# Generated by pormake.
# Topology vcr, (7)-cn, num edge types: 1
# Building blocks:
#     Node 0, Type 0, BuildingBlock: HICVOG_clean_sbu_0, # of connection points: 7
#     Node 1, Type 0, BuildingBlock: HICVOG_clean_sbu_0, # of connection points: 7
#     Node 2, Type 0, BuildingBlock: HICVOG_clean_sbu_0, # of connection points: 7
#     Node 3, Type 0, BuildingBlock: HICVOG_clean_sbu_0, # of connection points: 7
#     Node 4, Type 0, BuildingBlock: HICVOG_clean_sbu_0, # of connection points: 7
#     Node 5, Type 0, BuildingBlock: HICVOG_clean_sbu_0, # of connection points: 7
#     Node 6, Type 0, BuildingBlock: HICVOG_clean_sbu_0, # of connection points: 7
#     Node 7, Type 0, BuildingBlock: HICVOG_clean_sbu_0, # of connection points: 7
#     Edge 8, Type (0, 0), BuildingBlock: ZUJKAS_clean_linker_0, # of connection points: 2
#     Edge 9, Type (0, 0), BuildingBlock: ZUJKAS_clean_linker_0, # of connection points: 2
#     Edge 10, Type (0, 0), BuildingBlock: ZUJKAS_clean_linker_0, # of connection points: 2
#     Edge 11, Type (0, 0), BuildingBlock: ZUJKAS_clean_linker_0, # of connection points: 2
#     Edge 12, Type (0, 0), BuildingBlock: ZUJKAS_clean_linker_0, # of connection points: 2
#     Edge 13, Type (0, 0), BuildingBlock: ZUJKAS_clean_linker_0, # of connection points: 2
#     Edge 14, Type (0, 0), BuildingBlock: ZUJKAS_clean_linker_0, # of connection points: 2
#     Edge 15, Type (0, 0), BuildingBlock: ZUJKAS_clean_linker_0, # of connection points: 2
#     Edge 16, Type (0, 0), BuildingBlock: ZUJKAS_clean_linker_0, # of connection points: 2
#     Edge 17, Type (0, 0), BuildingBlock: ZUJKAS_clean_linker_0, # of connection points: 2
#     Edge 18, Type (0, 0), BuildingBlock: ZUJKAS_clean_linker_0, # of connection points: 2
#     Edge 19, Type (0, 0), BuildingBlock: ZUJKAS_clean_linker_0, # of connection points: 2
#     Edge 20, Type (0, 0), BuildingBlock: ZUJKAS_clean_linker_0, # of connection points: 2
#     Edge 21, Type (0, 0), BuildingBlock: ZUJKAS_clean_linker_0, # of connection points: 2
#     Edge 22, Type (0, 0), BuildingBlock: ZUJKAS_clean_linker_0, # of connection points: 2
#     Edge 23, Type (0, 0), BuildingBlock: ZUJKAS_clean_linker_0, # of connection points: 2
#     Edge 24, Type (0, 0), BuildingBlock: ZUJKAS_clean_linker_0, # of connection points: 2
#     Edge 25, Type (0, 0), BuildingBlock: ZUJKAS_clean_linker_0, # of connection points: 2
#     Edge 26, Type (0, 0), BuildingBlock: ZUJKAS_clean_linker_0, # of connection points: 2
#     Edge 27, Type (0, 0), BuildingBlock: ZUJKAS_clean_linker_0, # of connection points: 2
#     Edge 28, Type (0, 0), BuildingBlock: ZUJKAS_clean_linker_0, # of connection points: 2
#     Edge 29, Type (0, 0), BuildingBlock: ZUJKAS_clean_linker_0, # of connection points: 2
#     Edge 30, Type (0, 0), BuildingBlock: ZUJKAS_clean_linker_0, # of connection points: 2
#     Edge 31, Type (0, 0), BuildingBlock: ZUJKAS_clean_linker_0, # of connection points: 2
#     Edge 32, Type (0, 0), BuildingBlock: ZUJKAS_clean_linker_0, # of connection points: 2
#     Edge 33, Type (0, 0), BuildingBlock: ZUJKAS_clean_linker_0, # of connection points: 2
#     Edge 34, Type (0, 0), BuildingBlock: ZUJKAS_clean_linker_0, # of connection points: 2
#     Edge 35, Type (0, 0), BuildingBlock: ZUJKAS_clean_linker_0, # of connection points: 2
# Relax obj value: 0.281
# Max RMSD: 0.256
# Mean RMSD: 0.256
data_MOF--net-vcr--node1-HICVOG_clean_sbu_0--edge1-ZUJKAS_clean_linker_0
_symmetry_space_group_name_H-M    P1
_symmetry_Int_Tables_number       1
_symmetry_cell_setting            triclinic
loop_
_symmetry_equiv_pos_as_xyz
'x, y, z'
_cell_length_a     43.583814
_cell_length_b     66.015124
_cell_length_c     24.011098
_cell_angle_alpha  90.072475
_cell_angle_beta   90.086226
_cell_angle_gamma 90.088507
loop_
_atom_site_label
_atom_site_type_symbol
_atom_site_fract_x
_atom_site_fract_y
_atom_site_fract_z
_atom_type_partial_charge
Zn0 Zn 0.14988 0.12551 0.15287 0.0
C1 C 0.11096 0.09834 0.02109 0.0
N2 N 0.13688 0.08737 0.02073 0.0
C3 C 0.15419 0.09642 0.05984 0.0
N4 N 0.13941 0.11218 0.08371 0.0
N5 N 0.11264 0.11368 0.05812 0.0
C6 C 0.02522 0.14554 0.02691 0.0
O7 O 0.03387 0.16415 0.03863 0.0
O8 O 0.19638 0.12672 0.15567 0.0
Zn9 Zn 0.08888 0.1381 0.05015 0.0
N10 N 0.13247 0.10948 0.21331 0.0
C11 C 0.10163 0.08153 0.24139 0.0
C12 C 0.11475 0.09323 0.19959 0.0
C13 C 0.13691 0.11483 0.26754 0.0
N14 N 0.1061 0.08679 0.29537 0.0
C15 C 0.1232 0.10324 0.3101 0.0
O16 O 0.08988 0.15805 0.11475 0.0
C17 C 0.10917 0.16406 0.1512 0.0
O18 O 0.13302 0.15382 0.16336 0.0
H19 H 0.111 0.08921 0.15651 0.0
H20 H 0.15104 0.12788 0.277 0.0
C21 C 0.10458 0.14577 0.93495 0.0
C22 C 0.11833 0.15682 0.89135 0.0
C23 C 0.13557 0.18123 0.9572 0.0
C24 C 0.12217 0.17019 2e-05 0.0
N25 N 0.10681 0.15276 0.98822 0.0
N26 N 0.13334 0.17433 0.90418 0.0
H27 H 0.09195 0.13194 0.92704 0.0
C28 C 0.20904 0.13714 0.11753 0.0
O29 O 0.19149 0.14752 0.08338 0.0
O30 O 0.04492 0.13141 0.02967 0.0
H31 H 0.12408 0.17554 0.04234 0.0
H32 H 0.08778 0.06843 0.23107 0.0
H33 H 0.14776 0.19517 0.96597 0.0
Zn34 Zn 0.42056 0.89824 0.04395 0.0
C35 C 0.37315 0.94712 0.08609 0.0
N36 N 0.39282 0.95672 0.05244 0.0
C37 C 0.41336 0.94223 0.0405 0.0
N38 N 0.40679 0.92463 0.0666 0.0
N39 N 0.38149 0.9278 0.0956 0.0
C40 C 0.30164 0.89604 0.13852 0.0
O41 O 0.31439 0.87803 0.13995 0.0
O42 O 0.46261 0.9002 0.00761 0.0
Zn43 Zn 0.36492 0.91124 0.15435 0.0
N44 N 0.39002 0.88882 0.99169 0.0
C45 C 0.33937 0.87599 0.98045 0.0
C46 C 0.36303 0.88277 0.01458 0.0
C47 C 0.39421 0.88874 0.93557 0.0
N48 N 0.34341 0.87593 0.92451 0.0
C49 C 0.37009 0.88223 0.90061 0.0
O50 O 0.38165 0.88249 0.16025 0.0
C51 C 0.40345 0.87122 0.14317 0.0
O52 O 0.42131 0.87669 0.10391 0.0
H53 H 0.35987 0.88336 0.05907 0.0
H54 H 0.41601 0.89365 0.9189 0.0
C55 C 0.36632 0.91743 0.27317 0.0
C56 C 0.37699 0.92642 0.32272 0.0
C57 C 0.4084 0.94854 0.26976 0.0
C58 C 0.39867 0.9391 0.22106 0.0
N59 N 0.37714 0.92417 0.2234 0.0
N60 N 0.39747 0.94196 0.31931 0.0
H61 H 0.34995 0.90509 0.27393 0.0
C62 C 0.48596 0.90271 0.03874 0.0
O63 O 0.48199 0.90362 0.09293 0.0
O64 O 0.3184 0.91164 0.14557 0.0
H65 H 0.4085 0.94363 0.1818 0.0
H66 H 0.31781 0.87106 -0.00184 0.0
H67 H 0.42507 0.96069 0.26835 0.0
Zn68 Zn 0.14961 0.40929 0.34119 0.0
C69 C 0.10277 0.44121 0.45554 0.0
N70 N 0.12303 0.45568 0.44178 0.0
C71 C 0.14196 0.44593 0.40709 0.0
N72 N 0.13341 0.42654 0.39877 0.0
N73 N 0.10869 0.42349 0.42955 0.0
C74 C 0.02933 0.4016 0.45925 0.0
O75 O 0.03332 0.40061 0.40507 0.0
O76 O 0.19603 0.40899 0.35043 0.0
Zn77 Zn 0.09455 0.39741 0.45392 0.0
N78 N 0.13848 0.42181 0.27111 0.0
C79 C 0.10939 0.44658 0.22221 0.0
C80 C 0.118 0.43735 0.27182 0.0
C81 C 0.14927 0.41429 0.22214 0.0
N82 N 0.12034 0.43925 0.17345 0.0
C83 C 0.13975 0.42313 0.17172 0.0
O84 O 0.09288 0.37541 0.39515 0.0
C85 C 0.1101 0.36968 0.35525 0.0
O86 O 0.13181 0.38079 0.33686 0.0
H87 H 0.10812 0.4425 0.31046 0.0
H88 H 0.16478 0.40151 0.22264 0.0
C89 C 0.121 0.38705 0.56172 0.0
C90 C 0.1454 0.38057 0.596 0.0
C91 C 0.17657 0.37647 0.51565 0.0
C92 C 0.1526 0.38317 0.48225 0.0
N93 N 0.1253 0.38817 0.50572 0.0
N94 N 0.17244 0.37537 0.57148 0.0
H95 H 0.0989 0.39107 0.5788 0.0
C96 C 0.21227 0.39313 0.35607 0.0
O97 O 0.19894 0.37529 0.35339 0.0
O98 O 0.05273 0.40027 0.4908 0.0
H99 H 0.15571 0.38449 0.43782 0.0
H100 H 0.09357 0.4592 0.22231 0.0
H101 H 0.1984 0.37236 0.49747 0.0
Zn102 Zn 0.41981 0.64013 0.45284 0.0
C103 C 0.36117 0.59585 0.43629 0.0
N104 N 0.37988 0.58678 0.47299 0.0
C105 C 0.40515 0.59843 0.47199 0.0
N106 N 0.40191 0.61412 0.43646 0.0
N107 N 0.37452 0.61231 0.41318 0.0
C108 C 0.29926 0.643 0.36104 0.0
O109 O 0.31357 0.66026 0.36961 0.0
O110 O 0.46292 0.63716 0.48407 0.0
Zn111 Zn 0.36163 0.62686 0.34737 0.0
N112 N 0.3936 0.65173 0.5093 0.0
C113 C 0.34844 0.67045 0.52969 0.0
C114 C 0.36876 0.66227 0.49123 0.0
C115 C 0.39877 0.64873 0.56458 0.0
N116 N 0.35346 0.66746 0.58478 0.0
C117 C 0.37798 0.65671 0.60386 0.0
O118 O 0.37858 0.6554 0.33801 0.0
C119 C 0.40146 0.6663 0.35235 0.0
O120 O 0.42001 0.66079 0.39052 0.0
H121 H 0.36461 0.66416 0.44725 0.0
H122 H 0.41883 0.64028 0.57721 0.0
C123 C 0.37254 0.6188 0.23098 0.0
C124 C 0.38494 0.60811 0.18555 0.0
C125 C 0.40657 0.58429 0.24827 0.0
C126 C 0.39474 0.59511 0.29307 0.0
N127 N 0.37751 0.61195 0.28366 0.0
N128 N 0.40143 0.591 0.19577 0.0
H129 H 0.35898 0.63234 0.22487 0.0
C130 C 0.48568 0.63367 0.45237 0.0
O131 O 0.48095 0.63173 0.39857 0.0
O132 O 0.31485 0.62739 0.3484 0.0
H133 H 0.39905 0.58994 0.33498 0.0
H134 H 0.32861 0.67893 0.51592 0.0
H135 H 0.41994 0.57072 0.25513 0.0
Zn136 Zn 0.86285 0.91196 0.84756 0.0
C137 C 0.90275 0.93946 0.97776 0.0
N138 N 0.87753 0.95115 0.97608 0.0
C139 C 0.86019 0.94214 0.93699 0.0
N140 N 0.87426 0.92579 0.91507 0.0
N141 N 0.90067 0.92383 0.9416 0.0
C142 C 0.98837 0.90562 0.94609 0.0
O143 O 0.98345 0.90648 0.89214 0.0
O144 O 0.81623 0.91337 0.84346 0.0
Zn145 Zn 0.92192 0.89847 0.95155 0.0
N146 N 0.88217 0.92624 0.78605 0.0
C147 C 0.91884 0.95052 0.75537 0.0
C148 C 0.90405 0.94029 0.79825 0.0
C149 C 0.8752 0.9215 0.73227 0.0
N150 N 0.91187 0.94587 0.70182 0.0
C151 C 0.89062 0.93149 0.68861 0.0
O152 O 0.92164 0.87886 0.88589 0.0
C153 C 0.90149 0.87265 0.85118 0.0
O154 O 0.87744 0.8829 0.84031 0.0
H155 H 0.90981 0.94373 0.84097 0.0
H156 H 0.8579 0.91013 0.72401 0.0
C157 C 0.90298 0.89058 0.0645 0.0
C158 C 0.88617 0.88053 0.10633 0.0
C159 C 0.86428 0.8591 0.03726 0.0
C160 C 0.88074 0.86919 0.99616 0.0
N161 N 0.89991 0.88461 0.01046 0.0
N162 N 0.86738 0.86496 0.09109 0.0
H163 H 0.91857 0.90283 0.07437 0.0
C164 C 0.7995 0.89795 0.853 0.0
O165 O 0.81268 0.88029 0.86069 0.0
O166 O 0.96575 0.90273 0.9786 0.0
H167 H 0.87809 0.86473 0.95322 0.0
H168 H 0.93598 0.96192 0.7645 0.0
H169 H 0.84904 0.84675 0.0265 0.0
Zn170 Zn 0.59003 0.13931 0.94232 0.0
C171 C 0.65572 0.09756 0.9284 0.0
N172 N 0.6401 0.08872 0.9699 0.0
C173 C 0.61445 0.09994 0.97312 0.0
N174 N 0.6147 0.11516 0.93562 0.0
N175 N 0.64021 0.11331 0.90646 0.0
C176 C 0.70941 0.13668 0.86641 0.0
O177 O 0.69277 0.14843 0.89861 0.0
O178 O 0.54575 0.13243 0.96025 0.0
Zn179 Zn 0.64949 0.12616 0.83676 0.0
N180 N 0.60665 0.15399 0.00548 0.0
C181 C 0.63338 0.1829 0.03958 0.0
C182 C 0.6206 0.17206 0.99559 0.0
C183 C 0.60512 0.14619 0.05788 0.0
N184 N 0.63197 0.17515 0.09173 0.0
C185 C 0.61832 0.157 0.10262 0.0
O186 O 0.63457 0.15501 0.82818 0.0
C187 C 0.61131 0.16556 0.84188 0.0
O188 O 0.59216 0.15958 0.87849 0.0
H189 H 0.62195 0.17806 0.95391 0.0
H190 H 0.59352 0.1319 0.06418 0.0
C191 C 0.6365 0.1144 0.72357 0.0
C192 C 0.62078 0.10367 0.68151 0.0
C193 C 0.59269 0.08607 0.75101 0.0
C194 C 0.60772 0.09709 0.79231 0.0
N195 N 0.62972 0.11075 0.77795 0.0
N196 N 0.59948 0.08964 0.69681 0.0
H197 H 0.65385 0.12554 0.71358 0.0
C198 C 0.52597 0.14656 0.96143 0.0
O199 O 0.53474 0.16509 0.94938 0.0
O200 O 0.6958 0.12551 0.8309 0.0
H201 H 0.60211 0.09457 0.83555 0.0
H202 H 0.64448 0.19732 0.03236 0.0
H203 H 0.57549 0.07493 0.76187 0.0
Zn204 Zn 0.86252 0.62737 0.65481 0.0
C205 C 0.9085 0.59751 0.53505 0.0
N206 N 0.88761 0.5831 0.54603 0.0
C207 C 0.86892 0.59227 0.58228 0.0
N208 N 0.87821 0.61128 0.59421 0.0
N209 N 0.90314 0.61464 0.56424 0.0
C210 C 0.9842 0.63639 0.54227 0.0
O211 O 0.97977 0.635 0.59625 0.0
O212 O 0.81598 0.62706 0.6481 0.0
Zn213 Zn 0.91858 0.64106 0.54521 0.0
N214 N 0.8753 0.61403 0.72278 0.0
C215 C 0.90575 0.5889 0.76734 0.0
C216 C 0.89586 0.59861 0.71919 0.0
C217 C 0.86563 0.62098 0.77314 0.0
N218 N 0.89594 0.59568 0.81751 0.0
C219 C 0.87646 0.6117 0.82206 0.0
O220 O 0.91961 0.66183 0.60743 0.0
C221 C 0.90142 0.66729 0.64617 0.0
O222 O 0.87911 0.65614 0.6618 0.0
H223 H 0.90483 0.59393 0.67937 0.0
H224 H 0.85001 0.6337 0.77486 0.0
C225 C 0.89418 0.65106 0.43606 0.0
C226 C 0.87108 0.65823 0.39991 0.0
C227 C 0.84039 0.66649 0.47846 0.0
C228 C 0.86302 0.65907 0.51374 0.0
N229 N 0.88951 0.65167 0.49204 0.0
N230 N 0.8449 0.66585 0.42266 0.0
H231 H 0.91558 0.64508 0.42047 0.0
C232 C 0.79973 0.64279 0.64009 0.0
O233 O 0.81317 0.66061 0.63908 0.0
O234 O 0.9611 0.63904 0.51064 0.0
H235 H 0.8594 0.65902 0.55815 0.0
H236 H 0.92165 0.57637 0.76497 0.0
H237 H 0.81922 0.67248 0.49518 0.0
Zn238 Zn 0.65129 0.41081 0.64428 0.0
C239 C 0.61101 0.43858 0.51464 0.0
N240 N 0.63638 0.45018 0.51568 0.0
C241 C 0.6538 0.44125 0.55463 0.0
N242 N 0.63968 0.42496 0.57702 0.0
N243 N 0.61305 0.42307 0.55108 0.0
C244 C 0.52687 0.40382 0.54221 0.0
O245 O 0.53183 0.4054 0.59603 0.0
O246 O 0.69806 0.41072 0.64784 0.0
Zn247 Zn 0.59311 0.39737 0.53843 0.0
N248 N 0.63324 0.42564 0.70604 0.0
C249 C 0.59925 0.45141 0.73744 0.0
C250 C 0.61301 0.44073 0.69425 0.0
C251 C 0.63968 0.42045 0.75962 0.0
N252 N 0.60566 0.44627 0.79082 0.0
C253 C 0.62534 0.43095 0.80357 0.0
O254 O 0.59317 0.3772 0.60216 0.0
C255 C 0.61213 0.37142 0.63936 0.0
O256 O 0.63546 0.38203 0.65283 0.0
H257 H 0.60769 0.44459 0.65165 0.0
H258 H 0.65582 0.40835 0.76745 0.0
C259 C 0.61327 0.38983 0.42618 0.0
C260 C 0.63128 0.38036 0.38504 0.0
C261 C 0.6552 0.36054 0.45519 0.0
C262 C 0.63755 0.37008 0.49567 0.0
N263 N 0.61677 0.38439 0.48044 0.0
N264 N 0.65164 0.36586 0.40107 0.0
H265 H 0.59647 0.40124 0.41555 0.0
C266 C 0.71189 0.4054 0.60349 0.0
O267 O 0.69543 0.39916 0.56088 0.0
O268 O 0.54952 0.40085 0.50988 0.0
H269 H 0.64055 0.36611 0.53888 0.0
H270 H 0.58338 0.46358 0.72866 0.0
H271 H 0.67171 0.34906 0.46667 0.0
H272 H 0.50147 0.11154 0.00488 0.0
H273 H 0.44816 0.10567 0.03411 0.0
H274 H 0.42446 0.16633 0.9839 0.0
H275 H 0.4774 0.17241 0.95513 0.0
H276 H 0.41193 0.13406 0.11575 0.0
H277 H 0.36221 0.12463 0.90396 0.0
H278 H 0.40209 0.11954 0.91932 0.0
H279 H 0.38897 0.14518 0.91292 0.0
C280 C 0.48487 0.1236 -0.00013 0.0
C281 C 0.4937 0.14246 0.97763 0.0
C282 C 0.45448 0.12023 0.01674 0.0
C283 C 0.43243 0.13556 0.01092 0.0
C284 C 0.44114 0.15429 0.98842 0.0
H285 H 0.24336 0.16264 0.05408 0.0
H286 H 0.29784 0.16017 0.032 0.0
C287 C 0.47144 0.15773 0.97208 0.0
C288 C 0.40024 0.1324 0.02883 0.0
H289 H 0.32718 0.1297 0.9781 0.0
C290 C 0.39333 0.13279 0.08588 0.0
C291 C 0.37617 0.13082 0.98963 0.0
C292 C 0.38256 0.12986 0.92796 0.0
C293 C 0.36275 0.13266 0.10469 0.0
C294 C 0.33855 0.1317 0.0653 0.0
C295 C 0.34567 0.13051 0.00831 0.0
C296 C 0.3057 0.13331 0.0816 0.0
C297 C 0.35662 0.13458 0.16629 0.0
C298 C 0.29187 0.11909 0.1172 0.0
C299 C 0.26063 0.12064 0.13053 0.0
C300 C 0.2426 0.13626 0.10781 0.0
C301 C 0.25657 0.15045 0.07237 0.0
C302 C 0.28774 0.14902 0.05956 0.0
H303 H 0.37724 0.1398 0.18951 0.0
H304 H 0.33757 0.14534 0.1743 0.0
H305 H 0.34986 0.11957 0.18305 0.0
H306 H 0.30503 0.10657 0.13374 0.0
H307 H 0.25044 0.10929 0.15731 0.0
H308 H 0.25941 0.86592 0.12098 0.0
H309 H 0.20601 0.86945 0.09154 0.0
H310 H 0.21565 0.93448 0.09234 0.0
H311 H 0.26873 0.93107 0.12405 0.0
H312 H 0.16132 0.92372 0.13423 0.0
H313 H 0.17909 0.88261 0.93592 0.0
H314 H 0.18925 0.86754 0.99519 0.0
H315 H 0.21055 0.89027 0.98006 0.0
C316 C 0.25018 0.881 0.11519 0.0
C317 C 0.2686 0.89822 0.12414 0.0
C318 C 0.21965 0.88299 0.09784 0.0
C319 C 0.20695 0.90222 0.08812 0.0
C320 C 0.22495 0.91946 0.09892 0.0
H321 H 0.04008 0.91797 0.89124 0.0
H322 H 0.09265 0.91922 0.92684 0.0
C323 C 0.25541 0.91748 0.11685 0.0
C324 C 0.17501 0.90433 0.06648 0.0
H325 H 0.12721 0.88899 0.96161 0.0
C326 C 0.15391 0.9162 0.09632 0.0
C327 C 0.1654 0.89493 0.01631 0.0
C328 C 0.18734 0.88332 0.97969 0.0
C329 C 0.12337 0.91848 0.0782 0.0
C330 C 0.11336 0.90816 0.02968 0.0
C331 C 0.13467 0.89671 -0.00083 0.0
C332 C 0.08096 0.90888 0.00968 0.0
C333 C 0.10235 0.93225 0.11068 0.0
C334 C 0.05669 0.90278 0.04432 0.0
C335 C 0.02652 0.90225 0.02419 0.0
C336 C 0.02002 0.90746 0.96861 0.0
C337 C 0.04428 0.91376 0.93416 0.0
C338 C 0.07439 0.91448 0.95448 0.0
H339 H 0.11552 0.94371 0.13483 0.0
H340 H 0.08607 0.94027 0.08277 0.0
H341 H 0.08892 0.92308 0.14073 0.0
H342 H 0.06114 0.89789 0.08659 0.0
H343 H 0.00841 0.89721 0.05177 0.0
H344 H 0.47457 0.4152 0.59671 0.0
H345 H 0.4219 0.41452 0.56156 0.0
H346 H 0.45431 0.39292 0.40264 0.0
H347 H 0.50719 0.39412 0.437 0.0
H348 H 0.41014 0.42097 0.38942 0.0
H349 H 0.37128 0.36391 0.54298 0.0
H350 H 0.38694 0.38618 0.57513 0.0
H351 H 0.41122 0.37017 0.53347 0.0
C352 C 0.47052 0.41034 0.55422 0.0
C353 C 0.49509 0.4045 0.51988 0.0
C354 C 0.44034 0.40984 0.53427 0.0
C355 C 0.43398 0.40317 0.47987 0.0
C356 C 0.45857 0.39796 0.44491 0.0
H357 H 0.25364 0.36236 0.37014 0.0
H358 H 0.30774 0.36505 0.39614 0.0
C359 C 0.48881 0.39865 0.46465 0.0
C360 C 0.40176 0.40145 0.45955 0.0
H361 H 0.33247 0.37962 0.48859 0.0
C362 C 0.39318 0.41187 0.41099 0.0
C363 C 0.37969 0.38929 0.48707 0.0
C364 C 0.38777 0.37658 0.5372 0.0
C365 C 0.36311 0.41073 0.38974 0.0
C366 C 0.34074 0.39923 0.41859 0.0
C367 C 0.34947 0.38858 0.46668 0.0
C368 C 0.30821 0.39782 0.39964 0.0
C369 C 0.35587 0.4215 0.33593 0.0
C370 C 0.2903 0.41532 0.39277 0.0
C371 C 0.25941 0.41383 0.3772 0.0
C372 C 0.24553 0.39478 0.36916 0.0
C373 C 0.26352 0.37728 0.37591 0.0
C374 C 0.29449 0.37879 0.39095 0.0
H375 H 0.3769 0.42413 0.31082 0.0
H376 H 0.33924 0.41275 0.31037 0.0
H377 H 0.34568 0.4365 0.34547 0.0
H378 H 0.30002 0.43017 0.40051 0.0
H379 H 0.24631 0.42762 0.37239 0.0
H380 H 1.00378 0.6456 0.43657 0.0
H381 H 0.05647 0.64506 0.40124 0.0
H382 H 0.08844 0.62298 0.56003 0.0
H383 H 0.0361 0.62404 0.59598 0.0
H384 H 0.12297 0.65337 0.52606 0.0
H385 H 0.11031 0.59907 0.35158 0.0
H386 H 0.08424 0.62 0.34663 0.0
H387 H 0.081 0.6025 0.40374 0.0
C388 C 0.02201 0.64046 0.46379 0.0
C389 C 0.01572 0.63496 0.5192 0.0
C390 C 0.05214 0.64001 0.44339 0.0
C391 C 0.07651 0.63372 0.47766 0.0
C392 C 0.07011 0.62788 0.53268 0.0
H393 H 0.26484 0.60849 0.37439 0.0
H394 H 0.21081 0.6061 0.40136 0.0
C395 C 0.04011 0.62851 0.55322 0.0
C396 C 0.1089 0.63435 0.4577 0.0
H397 H 0.15711 0.6179 0.3549 0.0
C398 C 0.1304 0.64553 0.48873 0.0
C399 C 0.11884 0.62388 0.40945 0.0
C400 C 0.09747 0.61051 0.37623 0.0
C401 C 0.16133 0.64677 0.47266 0.0
C402 C 0.17101 0.63708 0.42304 0.0
C403 C 0.14965 0.62559 0.39244 0.0
C404 C 0.20328 0.63851 0.4029 0.0
C405 C 0.18343 0.6581 0.50989 0.0
C406 C 0.21691 0.65747 0.39313 0.0
C407 C 0.24788 0.65889 0.37827 0.0
C408 C 0.26579 0.64135 0.37178 0.0
C409 C 0.25174 0.62231 0.37897 0.0
C410 C 0.22081 0.62092 0.39445 0.0
H411 H 0.17469 0.65922 0.55323 0.0
H412 H 0.20623 0.65062 0.5109 0.0
H413 H 0.18644 0.67373 0.49387 0.0
H414 H 0.2037 0.67124 0.39776 0.0
H415 H 0.25786 0.67377 0.3725 0.0
H416 H 0.75639 0.868 0.85471 0.0
H417 H 0.70211 0.87091 0.87845 0.0
H418 H 0.71271 0.93546 0.89895 0.0
H419 H 0.76686 0.93276 0.87302 0.0
H420 H 0.67905 0.88263 0.97435 0.0
H421 H 0.63467 0.93392 0.81047 0.0
H422 H 0.67192 0.92213 0.80596 0.0
H423 H 0.66653 0.94436 0.84829 0.0
C424 C 0.74706 0.88288 0.86326 0.0
C425 C 0.76596 0.90014 0.86181 0.0
C426 C 0.716 0.88452 0.87697 0.0
C427 C 0.70308 0.90343 0.88996 0.0
C428 C 0.72181 0.92078 0.88769 0.0
H429 H 0.53824 0.9147 0.09218 0.0
H430 H 0.59032 0.91622 0.05499 0.0
C431 C 0.75287 0.91918 0.87317 0.0
C432 C 0.67072 0.90459 0.90983 0.0
H433 H 0.60127 0.92724 0.88693 0.0
C434 C 0.66206 0.89233 0.95497 0.0
C435 C 0.64838 0.91716 0.88448 0.0
C436 C 0.65571 0.93 0.83429 0.0
C437 C 0.63193 0.8923 0.97554 0.0
C438 C 0.60981 0.90528 0.95128 0.0
C439 C 0.61829 0.91744 0.90584 0.0
C440 C 0.57771 0.90611 0.9723 0.0
C441 C 0.62394 0.87802 0.0224 0.0
C442 C 0.553 0.9008 0.93756 0.0
C443 C 0.52302 0.90008 0.95863 0.0
C444 C 0.51725 0.90464 0.01491 0.0
C445 C 0.54192 0.91072 0.04893 0.0
C446 C 0.57176 0.91157 0.02775 0.0
H447 H 0.64077 0.86545 0.02586 0.0
H448 H 0.62415 0.88647 0.06237 0.0
H449 H 0.60072 0.87141 0.01649 0.0
H450 H 0.557 0.89666 0.89451 0.0
H451 H 0.50452 0.8955 0.93121 0.0
H452 H 0.74549 0.16336 0.92252 0.0
H453 H 0.79978 0.16018 0.94539 0.0
H454 H 0.80349 0.10325 0.8574 0.0
H455 H 0.74892 0.10652 0.83333 0.0
H456 H 0.82655 0.13035 0.00721 0.0
H457 H 0.87806 0.13269 0.79538 0.0
H458 H 0.8388 0.13994 0.80838 0.0
H459 H 0.8492 0.11363 0.8062 0.0
C460 C 0.75788 0.15026 0.90739 0.0
C461 C 0.74294 0.13527 0.87577 0.0
C462 C 0.78894 0.14843 0.92065 0.0
C463 C 0.80582 0.13155 0.90282 0.0
C464 C 0.79109 0.11659 0.87073 0.0
H465 H 1.00094 0.10994 0.98647 0.0
H466 H 0.9478 0.10366 0.95666 0.0
C467 C 0.75992 0.11848 0.85702 0.0
C468 C 0.83845 0.12957 0.92017 0.0
H469 H 0.91211 0.12925 0.87122 0.0
C470 C 0.84522 0.12994 0.9774 0.0
C471 C 0.86284 0.12887 0.88131 0.0
C472 C 0.85704 0.12891 0.81935 0.0
C473 C 0.87561 0.13033 0.99674 0.0
C474 C 0.89992 0.13046 0.95792 0.0
C475 C 0.89332 0.12915 0.9008 0.0
C476 C 0.93205 0.13392 0.9759 0.0
C477 C 0.88159 0.13106 0.0586 0.0
C478 C 0.94071 0.15301 0.99622 0.0
C479 C 0.97092 0.15669 0.01292 0.0
C480 C 0.99312 0.1413 0.00983 0.0
C481 C 0.98437 0.1221 0.98955 0.0
C482 C 0.95408 0.11849 0.97237 0.0
H483 H 0.86117 0.12627 0.08293 0.0
H484 H 0.90126 0.12119 0.06984 0.0
H485 H 0.88749 0.14681 0.07084 0.0
H486 H 0.92406 0.16515 -0.00115 0.0
H487 H 0.97682 0.17163 0.02828 0.0
H488 H 0.76528 0.60807 0.63081 0.0
H489 H 0.71176 0.60507 0.60107 0.0
H490 H 0.70485 0.67017 0.5931 0.0
H491 H 0.75861 0.67327 0.62072 0.0
H492 H 0.65796 0.6179 0.64344 0.0
H493 H 0.67695 0.65455 0.43907 0.0
H494 H 0.70818 0.64697 0.48371 0.0
H495 H 0.6883 0.67043 0.49618 0.0
C496 C 0.75244 0.62176 0.62252 0.0
C497 C 0.76648 0.64091 0.6272 0.0
C498 C 0.72176 0.62002 0.60572 0.0
C499 C 0.70442 0.63738 0.59345 0.0
C500 C 0.71797 0.65653 0.60066 0.0
H501 H 0.50573 0.64465 0.55641 0.0
H502 H 0.55843 0.64436 0.59164 0.0
C503 C 0.74871 0.65828 0.61693 0.0
C504 C 0.67233 0.63549 0.5726 0.0
H505 H 0.62497 0.6495 0.46593 0.0
C506 C 0.65077 0.62473 0.60449 0.0
C507 C 0.66301 0.64402 0.5212 0.0
C508 C 0.68539 0.65445 0.48277 0.0
C509 C 0.62007 0.62269 0.58705 0.0
C510 C 0.61043 0.63209 0.53699 0.0
C511 C 0.63217 0.64247 0.50461 0.0
C512 C 0.57806 0.63134 0.51694 0.0
C513 C 0.59847 0.61013 0.62193 0.0
C514 C 0.57143 0.62451 0.46279 0.0
C515 C 0.54139 0.625 0.4422 0.0
C516 C 0.51724 0.63229 0.47536 0.0
C517 C 0.52377 0.63881 0.52991 0.0
C518 C 0.55391 0.63852 0.55028 0.0
H519 H 0.61113 0.59906 0.6481 0.0
H520 H 0.58547 0.62026 0.65023 0.0
H521 H 0.58182 0.60174 0.59549 0.0
H522 H 0.58961 0.61893 0.43617 0.0
H523 H 0.53716 0.61977 0.40011 0.0
H524 H 0.74599 0.39964 0.50987 0.0
H525 H 0.8014 0.40295 0.49889 0.0
H526 H 0.81024 0.41932 0.67195 0.0
H527 H 0.75434 0.41622 0.68348 0.0
H528 H 0.84074 0.4406 0.53212 0.0
H529 H 0.86896 0.36764 0.63715 0.0
H530 H 0.83186 0.3718 0.60556 0.0
H531 H 0.84179 0.38473 0.66871 0.0
C532 C 0.75959 0.40392 0.5458 0.0
C533 C 0.74569 0.40744 0.59777 0.0
C534 C 0.7913 0.40589 0.5393 0.0
C535 C 0.8099 0.41126 0.58462 0.0
C536 C 0.79624 0.41502 0.63655 0.0
H537 H 0.01197 0.40435 0.56921 0.0
H538 H 0.95994 0.40924 0.60596 0.0
C539 C 0.76434 0.41322 0.64305 0.0
C540 C 0.84362 0.41244 0.57688 0.0
H541 H 0.90919 0.38471 0.59212 0.0
C542 C 0.85584 0.42854 0.54587 0.0
C543 C 0.86324 0.39678 0.59524 0.0
C544 C 0.85103 0.37916 0.62846 0.0
C545 C 0.88706 0.42905 0.53123 0.0
C546 C 0.90637 0.41275 0.5467 0.0
C547 C 0.8944 0.39714 0.58001 0.0
C548 C 0.93821 0.41075 0.52498 0.0
C549 C 0.89899 0.44698 0.49887 0.0
C550 C 0.9433 0.40973 0.46734 0.0
C551 C 0.97286 0.40689 0.4463 0.0
C552 C 0.99811 0.40482 0.48241 0.0
C553 C 0.99304 0.40586 0.54023 0.0
C554 C 0.96333 0.40868 0.56131 0.0
H555 H 0.88489 0.46071 0.5066 0.0
H556 H 0.92322 0.45041 0.50984 0.0
H557 H 0.89781 0.44354 0.45367 0.0
H558 H 0.92426 0.41078 0.43845 0.0
H559 H 0.97583 0.40614 0.40157 0.0
H560 H 0.0785 0.33786 0.40076 0.0
H561 H 0.07642 0.30288 0.36752 0.0
H562 H 0.13003 0.31948 0.22374 0.0
H563 H 0.13318 0.35435 0.25776 0.0
H564 H 0.05431 0.28479 0.27784 0.0
H565 H 0.18011 0.27346 0.28209 0.0
H566 H 0.16214 0.29556 0.31168 0.0
H567 H 0.16912 0.29408 0.23787 0.0
C568 C 0.08975 0.33412 0.3619 0.0
C569 C 0.10627 0.34891 0.33223 0.0
C570 C 0.08856 0.31406 0.34295 0.0
C571 C 0.1037 0.30835 0.29377 0.0
C572 C 0.119 0.32331 0.26272 0.0
H573 H 0.07376 0.19536 0.11321 0.0
H574 H 0.07127 0.22988 0.14943 0.0
C575 C 0.12056 0.34331 0.28202 0.0
C576 C 0.10362 0.28676 0.27538 0.0
H577 H 0.15064 0.2477 0.23781 0.0
C578 C 0.07539 0.27666 0.26932 0.0
C579 C 0.13111 0.27593 0.26534 0.0
C580 C 0.16233 0.28524 0.27514 0.0
C581 C 0.07388 0.25624 0.25263 0.0
C582 C 0.10132 0.24572 0.23998 0.0
C583 C 0.12955 0.25574 0.24692 0.0
C584 C 0.10149 0.22437 0.21946 0.0
C585 C 0.04288 0.24607 0.25006 0.0
C586 C 0.11982 0.20972 0.24584 0.0
C587 C 0.12174 0.19001 0.22455 0.0
C588 C 0.10522 0.18444 0.17652 0.0
C589 C 0.08643 0.19901 0.15076 0.0
C590 C 0.08486 0.2188 0.17163 0.0
H591 H 0.02608 0.25369 0.27781 0.0
H592 H 0.03388 0.24697 0.20689 0.0
H593 H 0.04435 0.22987 0.26212 0.0
H594 H 0.13295 0.21361 0.28268 0.0
H595 H 0.13643 0.17918 0.24543 0.0
H596 H 0.37502 0.6809 0.25678 0.0
H597 H 0.37863 0.71519 0.21878 0.0
H598 H 0.43825 0.73249 0.35435 0.0
H599 H 0.43566 0.69812 0.39136 0.0
H600 H 0.36025 0.7496 0.26146 0.0
H601 H 0.48535 0.75554 0.22724 0.0
H602 H 0.46681 0.73179 0.24289 0.0
H603 H 0.47656 0.74921 0.298 0.0
C604 C 0.38927 0.69193 0.27808 0.0
C605 C 0.40521 0.68668 0.32696 0.0
C606 C 0.39126 0.71157 0.25635 0.0
C607 C 0.4091 0.72645 0.2831 0.0
C608 C 0.42507 0.72122 0.33188 0.0
H609 H 0.37853 0.85626 0.23959 0.0
H610 H 0.38079 0.8215 0.27446 0.0
C611 C 0.42342 0.70152 0.35322 0.0
C612 C 0.40958 0.74768 0.26179 0.0
H613 H 0.45723 0.78662 0.2251 0.0
C614 C 0.38149 0.75762 0.25316 0.0
C615 C 0.43722 0.75817 0.25013 0.0
C616 C 0.46816 0.74805 0.25447 0.0
C617 C 0.38024 0.77774 0.2341 0.0
C618 C 0.40791 0.78855 0.22511 0.0
C619 C 0.436 0.77851 0.23281 0.0
C620 C 0.40818 0.81007 0.20615 0.0
C621 C 0.34921 0.78696 0.22254 0.0
C622 C 0.42416 0.81558 0.15769 0.0
C623 C 0.42347 0.83556 0.13829 0.0
C624 C 0.40662 0.85051 0.16676 0.0
C625 C 0.39143 0.8451 0.21625 0.0
C626 C 0.39248 0.82516 0.23602 0.0
H627 H 0.33151 0.77513 0.21502 0.0
H628 H 0.34188 0.79595 0.25924 0.0
H629 H 0.34997 0.79713 0.18576 0.0
H630 H 0.43662 0.80429 0.13404 0.0
H631 H 0.43541 0.83914 0.10001 0.0
H632 H 0.94839 0.84542 0.86634 0.0
H633 H 0.95198 0.81084 0.83028 0.0
H634 H 0.8654 0.81829 0.74574 0.0
H635 H 0.8618 0.85294 0.78069 0.0
H636 H 0.91318 0.77902 0.8489 0.0
H637 H 0.91871 0.79522 0.62283 0.0
H638 H 0.92437 0.81458 0.67502 0.0
H639 H 0.88622 0.80666 0.65615 0.0
C640 C 0.93026 0.83983 0.83949 0.0
C641 C 0.90485 0.85209 0.82632 0.0
C642 C 0.93233 0.82 0.81903 0.0
C643 C 0.90917 0.812 0.7847 0.0
C644 C 0.8839 0.82423 0.77113 0.0
H645 H 0.8646 0.68581 0.72357 0.0
H646 H 0.86822 0.72048 0.75862 0.0
C647 C 0.88182 0.84406 0.79145 0.0
C648 C 0.91071 0.7906 0.76519 0.0
H649 H 0.90877 0.76092 0.64851 0.0
C650 C 0.91243 0.77507 0.80505 0.0
C651 C 0.91014 0.78541 0.70797 0.0
C652 C 0.91007 0.80134 0.66298 0.0
C653 C 0.91281 0.75454 0.78935 0.0
C654 C 0.91087 0.74933 0.73223 0.0
C655 C 0.90995 0.76487 0.69232 0.0
C656 C 0.90948 0.7279 0.71287 0.0
C657 C 0.91565 0.73863 0.83413 0.0
C658 C 0.93119 0.72052 0.67477 0.0
C659 C 0.92906 0.7007 0.65423 0.0
C660 C 0.90505 0.68782 0.67114 0.0
C661 C 0.88354 0.69519 0.70986 0.0
C662 C 0.88565 0.71503 0.73024 0.0
H663 H 0.92592 0.74496 0.87282 0.0
H664 H 0.89247 0.73281 0.84459 0.0
H665 H 0.92991 0.7257 0.81989 0.0
H666 H 0.94971 0.73017 0.66058 0.0
H667 H 0.94601 0.69562 0.62441 0.0
H668 H 0.63797 0.18123 0.74789 0.0
H669 H 0.63549 0.21611 0.71392 0.0
H670 H 0.57598 0.23199 0.85049 0.0
H671 H 0.57736 0.197 0.88338 0.0
H672 H 0.55702 0.25 0.75956 0.0
H673 H 0.68216 0.2627 0.77763 0.0
H674 H 0.67324 0.24206 0.73181 0.0
H675 H 0.66375 0.24032 0.80466 0.0
C676 C 0.62421 0.19212 0.77051 0.0
C677 C 0.60801 0.18631 0.81856 0.0
C678 C 0.62303 0.21214 0.75132 0.0
C679 C 0.60624 0.22691 0.78045 0.0
C680 C 0.58928 0.22097 0.82742 0.0
H681 H 0.6379 0.35658 0.73521 0.0
H682 H 0.63443 0.32209 0.77201 0.0
C683 C 0.59006 0.2009 0.84616 0.0
C684 C 0.60636 0.24853 0.76228 0.0
H685 H 0.65374 0.2881 0.72994 0.0
C686 C 0.57819 0.25835 0.75335 0.0
C687 C 0.63392 0.25966 0.75527 0.0
C688 C 0.66495 0.25072 0.76842 0.0
C689 C 0.5768 0.27876 0.73675 0.0
C690 C 0.6044 0.28957 0.72694 0.0
C691 C 0.63254 0.27984 0.73679 0.0
C692 C 0.60476 0.3109 0.70634 0.0
C693 C 0.54572 0.2886 0.73125 0.0
C694 C 0.58921 0.31626 0.65722 0.0
C695 C 0.59074 0.33607 0.63664 0.0
C696 C 0.60845 0.35091 0.66398 0.0
C697 C 0.62403 0.34554 0.71313 0.0
C698 C 0.62211 0.32579 0.73416 0.0
H699 H 0.52834 0.28087 0.75757 0.0
H700 H 0.54654 0.30485 0.74323 0.0
H701 H 0.53791 0.28748 0.68735 0.0
H702 H 0.57646 0.305 0.63388 0.0
H703 H 0.57884 0.33957 0.5982 0.0
H704 H 0.31274 0.94585 0.06094 0.0
H705 H 0.27604 0.97305 0.08072 0.0
H706 H 0.34208 1.00143 0.1899 0.0
H707 H 0.37915 0.97501 0.1675 0.0
H708 H 0.24852 0.99306 0.1694 0.0
H709 H 0.33474 0.04192 0.06402 0.0
H710 H 0.33814 1.01474 0.06638 0.0
H711 H 0.34824 0.02978 0.1262 0.0
C712 C 0.31877 0.95742 0.09111 0.0
C713 C 0.34836 0.95813 0.11382 0.0
C714 C 0.29796 0.97302 0.10209 0.0
C715 C 0.30667 0.98949 0.13577 0.0
C716 C 0.33512 0.98905 0.16305 0.0
H717 H 0.17414 0.08923 0.16709 0.0
H718 H 0.21455 0.06581 0.19479 0.0
C719 C 0.35607 0.97371 0.15115 0.0
C720 C 0.28802 1.00823 0.13567 0.0
H721 H 0.28883 0.05741 0.09145 0.0
C722 C 0.25736 1.00722 0.15307 0.0
C723 C 0.29963 0.0266 0.11347 0.0
C724 C 0.33188 0.02837 0.09096 0.0
C725 C 0.23771 0.02394 0.14748 0.0
C726 C 0.24931 0.04224 0.12498 0.0
C727 C 0.2802 0.04343 0.10929 0.0
C728 C 0.22886 0.05931 0.11042 0.0
C729 C 0.20432 0.0215 0.1628 0.0
C730 C 0.22495 0.06449 0.05424 0.0
C731 C 0.20215 0.07813 0.03857 0.0
C732 C 0.183 0.08696 0.07877 0.0
C733 C 0.18852 0.08292 0.13526 0.0
C734 C 0.21144 0.06929 0.15109 0.0
H735 H 0.19801 1.00539 0.16981 0.0
H736 H 0.19965 0.03 0.20175 0.0
H737 H 0.18931 0.02772 0.12958 0.0
H738 H 0.23829 0.05705 0.02215 0.0
H739 H 0.19829 0.08088 0.99463 0.0
H740 H 0.2027 0.44371 0.42891 0.0
H741 H 0.23966 0.47093 0.41017 0.0
H742 H 0.17279 0.50098 0.30678 0.0
H743 H 0.13561 0.47439 0.32762 0.0
H744 H 0.26599 0.49282 0.32048 0.0
H745 H 0.18199 0.53871 0.4407 0.0
H746 H 0.17898 0.51157 0.43458 0.0
H747 H 0.16721 0.52757 0.37792 0.0
C748 C 0.19657 0.4556 0.39989 0.0
C749 C 0.1667 0.45676 0.37855 0.0
C750 C 0.21753 0.47123 0.38959 0.0
C751 C 0.20865 0.48816 0.35806 0.0
C752 C 0.1799 0.48818 0.33183 0.0
H753 H 0.33698 0.59081 0.33055 0.0
H754 H 0.2969 0.56689 0.30368 0.0
C755 C 0.15886 0.47278 0.34292 0.0
C756 C 0.2273 0.50692 0.36009 0.0
H757 H 0.22723 0.55504 0.41277 0.0
C758 C 0.25747 0.50653 0.33995 0.0
C759 C 0.21613 0.52469 0.38638 0.0
C760 C 0.18442 0.52571 0.41161 0.0
C761 C 0.27704 0.5233 0.34645 0.0
C762 C 0.26589 0.54098 0.37304 0.0
C763 C 0.23549 0.54155 0.39181 0.0
C764 C 0.28649 0.55795 0.38821 0.0
C765 C 0.30993 0.5216 0.32744 0.0
C766 C 0.29256 0.56178 0.44459 0.0
C767 C 0.31529 0.5756 0.45988 0.0
C768 C 0.33221 0.58598 0.41915 0.0
C769 C 0.32448 0.58323 0.36288 0.0
C770 C 0.30171 0.56935 0.34744 0.0
H771 H 0.31619 0.50579 0.31634 0.0
H772 H 0.31338 0.53123 0.29012 0.0
H773 H 0.32583 0.52703 0.36046 0.0
H774 H 0.28092 0.55324 0.47678 0.0
H775 H 0.32082 0.57734 0.50365 0.0
H776 H 0.71 0.0904 0.97834 0.0
H777 H 0.7467 0.0641 0.95183 0.0
H778 H 0.69652 0.0538 0.79948 0.0
H779 H 0.65993 0.07998 0.8262 0.0
H780 H 0.70022 0.01997 0.8713 0.0
H781 H 0.81519 0.05369 0.83655 0.0
H782 H 0.79575 0.06351 0.89672 0.0
H783 H 0.78003 0.06791 0.82855 0.0
C784 C 0.70775 0.0832 0.93796 0.0
C785 C 0.6825 0.0875 0.90372 0.0
C786 C 0.72867 0.06817 0.92284 0.0
C787 C 0.72438 0.05706 0.87353 0.0
C788 C 0.7004 0.06234 0.8374 0.0
H789 H 0.84929 0.95465 0.83032 0.0
H790 H 0.81222 0.9803 0.80181 0.0
C791 C 0.67966 0.07752 0.85235 0.0
C792 C 0.74146 0.03793 0.8652 0.0
H793 H 0.81385 1.01848 0.86232 0.0
C794 C 0.72503 0.01961 0.86805 0.0
C795 C 0.77373 0.0375 0.86064 0.0
C796 C 0.79225 0.05669 0.85491 0.0
C797 C 0.74026 1.00091 0.87017 0.0
C798 C 0.77262 1.00059 0.86962 0.0
C799 C 0.78897 1.0188 0.86303 0.0
C800 C 0.79013 0.98198 0.88223 0.0
C801 C 0.72176 0.98166 0.87476 0.0
C802 C 0.78928 0.97393 0.93625 0.0
C803 C 0.81055 0.95928 0.95251 0.0
C804 C 0.83271 0.95226 0.91483 0.0
C805 C 0.83206 0.95927 0.85968 0.0
C806 C 0.81102 0.97412 0.84352 0.0
H807 H 0.69769 0.98388 0.86075 0.0
H808 H 0.7323 0.96935 0.84969 0.0
H809 H 0.72131 0.97669 0.91889 0.0
H810 H 0.77365 0.98003 0.96702 0.0
H811 H 0.81099 0.9544 0.99558 0.0
H812 H 0.69904 0.45636 0.49097 0.0
H813 H 0.73948 0.47979 0.51979 0.0
H814 H 0.71214 0.47275 0.69123 0.0
H815 H 0.67152 0.44955 0.66218 0.0
H816 H 0.71231 0.51259 0.65624 0.0
H817 H 0.82175 0.47571 0.5998 0.0
H818 H 0.79466 0.47493 0.54354 0.0
H819 H 0.78634 0.46173 0.60729 0.0
C820 C 0.70234 0.4593 0.53499 0.0
C821 C 0.6823 0.45092 0.57446 0.0
C822 C 0.72551 0.47263 0.55145 0.0
C823 C 0.72897 0.4779 0.60774 0.0
C824 C 0.70998 0.46877 0.64761 0.0
H825 H 0.87753 0.56313 0.65888 0.0
H826 H 0.84135 0.53637 0.68259 0.0
C827 C 0.68685 0.45534 0.63104 0.0
C828 C 0.7496 0.49482 0.62331 0.0
H829 H 0.82237 0.5123 0.60461 0.0
C830 C 0.73656 0.51243 0.64612 0.0
C831 C 0.78122 0.4945 0.61074 0.0
C832 C 0.79688 0.47562 0.58955 0.0
C833 C 0.75396 0.53015 0.65357 0.0
C834 C 0.78504 0.53032 0.6368 0.0
C835 C 0.79846 0.51231 0.61708 0.0
C836 C 0.80374 0.54914 0.63541 0.0
C837 C 0.73873 0.54854 0.67854 0.0
C838 C 0.79421 0.56586 0.60345 0.0
C839 C 0.8147 0.58162 0.59158 0.0
C840 C 0.84496 0.58077 0.61114 0.0
C841 C 0.85391 0.56466 0.64558 0.0
C842 C 0.83336 0.54915 0.6583 0.0
H843 H 0.71968 0.54411 0.70674 0.0
H844 H 0.75534 0.55798 0.70225 0.0
H845 H 0.7288 0.55789 0.64464 0.0
H846 H 0.7718 0.56598 0.58394 0.0
H847 H 0.80775 0.59347 0.56306 0.0
H848 H 0.10045 0.07731 0.92602 0.0
H849 H 0.06299 0.04983 0.91669 0.0
H850 H 0.02115 0.06796 0.07155 0.0
H851 H 0.05836 0.09536 0.0808 0.0
H852 H 0.06412 0.01988 0.99679 0.0
H853 H 0.94685 0.05176 0.97916 0.0
H854 H 0.98084 0.06641 0.96397 0.0
H855 H 0.96897 0.0626 0.03485 0.0
C856 C 0.08219 0.07608 0.95642 0.0
C857 C 0.08205 0.08862 0.00369 0.0
C858 C 0.06104 0.06024 0.95144 0.0
C859 C 0.03937 0.05677 0.99356 0.0
C860 C 0.03733 0.07051 0.03808 0.0
H861 H 0.91397 0.95954 0.07414 0.0
H862 H 0.95199 0.98665 0.08449 0.0
C863 C 0.05846 0.08636 0.04303 0.0
C864 C 0.02231 0.03731 0.99545 0.0
H865 H 0.95055 1.01689 0.00417 0.0
C866 C 0.03926 0.0192 -0.00206 0.0
C867 C 0.98995 0.03647 -0.00232 0.0
C868 C 0.97055 0.05533 0.99328 0.0
C869 C 0.02471 1.0003 0.00322 0.0
C870 C 0.99236 0.99947 0.00554 0.0
C871 C 0.97542 1.01757 0.00307 0.0
C872 C 0.97525 0.98004 0.00706 0.0
C873 C 0.04408 0.98141 0.00724 0.0
C874 C 0.97689 0.9666 0.9618 0.0
C875 C 0.95537 0.95101 0.95618 0.0
C876 C 0.93193 0.94862 0.99573 0.0
C877 C 0.9322 0.96081 0.04368 0.0
C878 C 0.95367 0.97644 0.04926 0.0
H879 H 0.06787 0.98493 0.02087 0.0
H880 H 0.0339 0.97034 0.03673 0.0
H881 H 0.04535 0.97412 0.96563 0.0
H882 H 0.99293 0.96929 0.9282 0.0
H883 H 0.95494 0.94246 0.91768 0.0
H884 H 0.56032 0.0957 0.9189 0.0
H885 H 0.52498 0.06761 0.9331 0.0
H886 H 0.57159 0.05226 0.08586 0.0
H887 H 0.60727 0.08044 0.07142 0.0
H888 H 0.57306 0.0216 0.00928 0.0
H889 H 0.45403 0.04994 0.02972 0.0
H890 H 0.47385 0.06069 0.97136 0.0
H891 H 0.48707 0.06599 0.04087 0.0
C892 C 0.5618 0.08722 0.95741 0.0
C893 C 0.5863 0.09041 0.99449 0.0
C894 C 0.54174 0.07094 0.96518 0.0
C895 C 0.54573 0.05773 0.01039 0.0
C896 C 0.56816 0.06222 0.0506 0.0
H897 H 0.46667 0.94324 0.09684 0.0
H898 H 0.50506 0.96959 0.08242 0.0
C899 C 0.58826 0.07848 0.04275 0.0
C900 C 0.53007 0.03775 0.01073 0.0
H901 H 0.45979 1.01509 0.00472 0.0
C902 C 0.54827 0.02016 0.00883 0.0
C903 C 0.49779 0.03589 0.00944 0.0
C904 C 0.47704 0.05412 0.01349 0.0
C905 C 0.53503 1.00079 0.00485 0.0
C906 C 0.50278 0.99897 0.00309 0.0
C907 C 0.48459 1.01654 0.00522 0.0
C908 C 0.48698 0.97906 0.00263 0.0
C909 C 0.5556 0.98246 0.00159 0.0
C910 C 0.46541 0.97468 0.96082 0.0
C911 C 0.44378 0.95931 0.96868 0.0
C912 C 0.44335 0.94824 0.01852 0.0
C913 C 0.46725 0.95096 0.05707 0.0
C914 C 0.48895 0.9663 0.04922 0.0
H915 H 0.57921 0.98658 0.98831 0.0
H916 H 0.55712 0.97535 0.04335 0.0
H917 H 0.54621 0.97103 0.97215 0.0
H918 H 0.46351 0.98435 0.92457 0.0
H919 H 0.42512 0.95783 0.93905 0.0
H920 H 0.04757 0.44234 0.40538 0.0
H921 H 0.01165 0.46999 0.42263 0.0
H922 H 0.05839 0.48381 0.57641 0.0
H923 H 0.09442 0.45616 0.55898 0.0
H924 H 0.97363 0.4884 0.51069 0.0
H925 H 0.08167 0.53006 0.46432 0.0
H926 H 0.07766 0.50314 0.45332 0.0
H927 H 0.08345 0.51294 0.52237 0.0
C928 C 0.04874 0.45026 0.44488 0.0
C929 C 0.07364 0.44713 0.48099 0.0
C930 C 0.02854 0.46634 0.45421 0.0
C931 C 0.03312 0.47931 0.49981 0.0
C932 C 0.0549 0.47415 0.54043 0.0
H933 H 0.96251 0.59549 0.58906 0.0
H934 H 0.9984 0.56776 0.57308 0.0
C935 C 0.07512 0.45812 0.53099 0.0
C936 C 0.01941 0.4998 0.49935 0.0
H937 H 0.03779 0.54987 0.48318 0.0
C938 C 0.98759 0.50184 0.50471 0.0
C939 C 0.03778 0.51728 0.49073 0.0
C940 C 0.07201 0.51585 0.48185 0.0
C941 C 0.97365 0.52099 0.50304 0.0
C942 C 0.99204 0.53846 0.49463 0.0
C943 C 0.02385 0.53643 0.4892 0.0
C944 C 0.97836 0.55896 0.49424 0.0
C945 C 0.9394 0.52245 0.51139 0.0
C946 C 0.9574 0.56439 0.45249 0.0
C947 C 0.93732 0.58056 0.46106 0.0
C948 C 0.93801 0.59137 0.51145 0.0
C949 C 0.96207 0.58784 0.54914 0.0
C950 C 0.9822 0.57167 0.54057 0.0
H951 H 0.92952 0.50813 0.52782 0.0
H952 H 0.93372 0.53495 0.54061 0.0
H953 H 0.92821 0.52578 0.47088 0.0
H954 H 0.95446 0.55489 0.41605 0.0
H955 H 0.91864 0.58279 0.43186 0.0
H956 H 0.45517 0.59444 0.40601 0.0
H957 H 0.49232 0.56687 0.41347 0.0
H958 H 0.45661 0.55164 0.57544 0.0
H959 H 0.41951 0.57934 0.5682 0.0
H960 H 0.53731 0.55111 0.49412 0.0
H961 H 0.43294 0.50328 0.47081 0.0
H962 H 0.43281 0.53021 0.45782 0.0
H963 H 0.43238 0.52085 0.52803 0.0
C964 C 0.45657 0.58609 0.44472 0.0
C965 C 0.43474 0.58918 0.48688 0.0
C966 C 0.47745 0.57007 0.44851 0.0
C967 C 0.47658 0.55691 0.49433 0.0
C968 C 0.45725 0.56144 0.53931 0.0
H969 H 0.55882 0.44254 0.57477 0.0
H970 H 0.5223 0.47026 0.56348 0.0
C971 C 0.4364 0.57744 0.53553 0.0
C972 C 0.49273 0.53717 0.49183 0.0
H973 H 0.48003 0.48611 0.48311 0.0
C974 C 0.52486 0.5369 0.49156 0.0
C975 C 0.47631 0.51867 0.48805 0.0
C976 C 0.4417 0.51815 0.48569 0.0
C977 C 0.54108 0.51853 0.48912 0.0
C978 C 0.52466 0.50001 0.48546 0.0
C979 C 0.49251 0.50031 0.4855 0.0
C980 C 0.54073 0.48021 0.48447 0.0
C981 C 0.57567 0.5191 0.49208 0.0
C982 C 0.56136 0.47555 0.44152 0.0
C983 C 0.58194 0.45947 0.44754 0.0
C984 C 0.58196 0.44776 0.49634 0.0
C985 C 0.55878 0.4509 0.53601 0.0
C986 C 0.53823 0.46702 0.53005 0.0
H987 H 0.58431 0.53395 0.50731 0.0
H988 H 0.58448 0.50702 0.51996 0.0
H989 H 0.58523 0.51651 0.44986 0.0
H990 H 0.56317 0.4853 0.40541 0.0
H991 H 0.59982 0.4575 0.4167 0.0
H992 H 0.1135 0.1179 0.84817 0.0
H993 H 0.11527 0.10798 0.74998 0.0
H994 H 0.12341 0.17067 0.70223 0.0
H995 H 0.12142 0.18082 0.79976 0.0
H996 H 0.07693 0.11984 0.65893 0.0
H997 H 0.1978 0.14371 0.62738 0.0
H998 H 0.18125 0.1404 0.69568 0.0
H999 H 0.17366 0.16303 0.65646 0.0
C1000 C 0.11515 0.12965 0.81691 0.0
C1001 C 0.11724 0.15022 0.83212 0.0
C1002 C 0.11642 0.12391 0.76076 0.0
C1003 C 0.12006 0.13858 0.71898 0.0
C1004 C 0.12131 0.15908 0.7339 0.0
H1005 H 0.13065 0.14095 0.35891 0.0
H1006 H 0.13075 0.14886 0.45843 0.0
C1007 C 0.12006 0.16483 0.78977 0.0
C1008 C 0.12238 0.1326 0.65961 0.0
H1009 H 0.16925 0.13543 0.54594 0.0
C1010 C 0.09719 0.12307 0.63428 0.0
C1011 C 0.14883 0.13693 0.62759 0.0
C1012 C 0.17705 0.14641 0.65318 0.0
C1013 C 0.0974 0.11823 0.5773 0.0
C1014 C 0.12376 0.12271 0.54516 0.0
C1015 C 0.14906 0.13208 0.57064 0.0
C1016 C 0.12548 0.11775 0.48499 0.0
C1017 C 0.06907 0.10889 0.55167 0.0
C1018 C 0.12337 0.09759 0.46703 0.0
C1019 C 0.12349 0.09298 0.41026 0.0
C1020 C 0.12606 0.10842 0.37015 0.0
C1021 C 0.12919 0.1286 0.38839 0.0
C1022 C 0.12899 0.13319 0.44534 0.0
H1023 H 0.04848 0.1112 0.57814 0.0
H1024 H 0.0645 0.11534 0.5098 0.0
H1025 H 0.07262 0.09233 0.54691 0.0
H1026 H 0.12134 0.0854 0.49696 0.0
H1027 H 0.12131 0.07727 0.39778 0.0
H1028 H 0.3687 0.94871 0.41619 0.0
H1029 H 0.36355 0.93636 0.5116 0.0
H1030 H 0.36216 0.87478 0.45158 0.0
H1031 H 0.36753 0.887 0.35568 0.0
H1032 H 0.31813 0.90854 0.56322 0.0
H1033 H 0.43865 0.88038 0.5599 0.0
H1034 H 0.42456 0.89847 0.50969 0.0
H1035 H 0.41335 0.87239 0.50471 0.0
C1036 C 0.36675 0.93255 0.42318 0.0
C1037 C 0.36845 0.91885 0.37848 0.0
C1038 C 0.36377 0.92553 0.47763 0.0
C1039 C 0.3628 0.90469 0.48841 0.0
C1040 C 0.36305 0.89093 0.44385 0.0
H1041 H 0.33868 0.85858 0.8272 0.0
H1042 H 0.33686 0.86157 0.72584 0.0
C1043 C 0.36579 0.89796 0.38913 0.0
C1044 C 0.36369 0.89763 0.54669 0.0
H1045 H 0.41224 0.87843 0.64502 0.0
C1046 C 0.33848 0.90167 0.58108 0.0
C1047 C 0.39052 0.88895 0.56963 0.0
C1048 C 0.41848 0.88484 0.5344 0.0
C1049 C 0.33958 0.89758 0.63835 0.0
C1050 C 0.36657 0.88918 0.66145 0.0
C1051 C 0.39158 0.88479 0.62688 0.0
C1052 C 0.36979 0.88603 0.72203 0.0
C1053 C 0.31237 0.903 0.67418 0.0
C1054 C 0.38963 0.89843 0.75305 0.0
C1055 C 0.39073 0.89684 0.81104 0.0
C1056 C 0.37211 0.88266 0.83892 0.0
C1057 C 0.35315 0.86976 0.80719 0.0
C1058 C 0.35205 0.87141 0.74929 0.0
H1059 H 0.29531 0.91234 0.65136 0.0
H1060 H 0.30085 0.88891 0.68822 0.0
H1061 H 0.31995 0.91143 0.71183 0.0
H1062 H 0.40343 0.90985 0.73251 0.0
H1063 H 0.40514 0.90734 0.8338 0.0
H1064 H 0.14505 0.38321 0.14092 0.0
H1065 H 0.15087 0.37008 0.04589 0.0
H1066 H 0.15802 0.43113 0.98359 0.0
H1067 H 0.15221 0.44435 0.07807 0.0
H1068 H 0.10796 0.38152 0.95778 0.0
H1069 H 0.22888 0.39952 0.90525 0.0
H1070 H 0.21548 0.39719 0.97617 0.0
H1071 H 0.20835 0.42 0.9375 0.0
C1072 C 0.14883 0.3938 0.10718 0.0
C1073 C 0.14843 0.41482 0.11684 0.0
C1074 C 0.1519 0.38627 0.05297 0.0
C1075 C 0.15513 0.39965 0.00801 0.0
C1076 C 0.15601 0.42057 0.01791 0.0
H1077 H 0.10845 0.40323 0.66604 0.0
H1078 H 0.10982 0.40397 0.76746 0.0
C1079 C 0.15258 0.42809 0.07181 0.0
C1080 C 0.15452 0.39215 0.95007 0.0
H1081 H 0.19486 0.39341 0.82861 0.0
C1082 C 0.12711 0.38376 0.92963 0.0
C1083 C 0.17959 0.39502 0.91375 0.0
C1084 C 0.20987 0.40326 0.93426 0.0
C1085 C 0.12361 0.37913 0.87293 0.0
C1086 C 0.14808 0.38315 0.83602 0.0
C1087 C 0.17603 0.39052 0.85703 0.0
C1088 C 0.14476 0.38089 0.77506 0.0
C1089 C 0.09362 0.37034 0.85277 0.0
C1090 C 0.16393 0.36763 0.74579 0.0
C1091 C 0.16309 0.36704 0.68771 0.0
C1092 C 0.14321 0.37981 0.65767 0.0
C1093 C 0.1235 0.39278 0.68739 0.0
C1094 C 0.12431 0.39329 0.74556 0.0
H1095 H 0.08057 0.36318 0.88727 0.0
H1096 H 0.07931 0.38264 0.83508 0.0
H1097 H 0.0975 0.35888 0.81962 0.0
H1098 H 0.17998 0.35803 0.76789 0.0
H1099 H 0.17853 0.35683 0.66629 0.0
H1100 H 0.40823 0.62584 0.66007 0.0
H1101 H 0.40956 0.62011 0.76041 0.0
H1102 H 0.35507 0.67364 0.78692 0.0
H1103 H 0.35416 0.67997 0.68681 0.0
H1104 H 0.42795 0.65099 0.85387 0.0
H1105 H 0.30785 0.62188 0.85617 0.0
H1106 H 0.33114 0.62159 0.79397 0.0
H1107 H 0.31542 0.64499 0.81877 0.0
C1108 C 0.39716 0.63676 0.68693 0.0
C1109 C 0.38126 0.65352 0.66491 0.0
C1110 C 0.39777 0.63332 0.7444 0.0
C1111 C 0.38228 0.64641 0.78072 0.0
C1112 C 0.367 0.66333 0.75932 0.0
H1113 H 0.38262 0.64718 0.14521 0.0
H1114 H 0.38086 0.65765 0.04732 0.0
C1115 C 0.3665 0.66686 0.70203 0.0
C1116 C 0.38104 0.64195 0.84091 0.0
H1117 H 0.33359 0.62389 0.94242 0.0
C1118 C 0.40734 0.64515 0.87343 0.0
C1119 C 0.35407 0.63429 0.86587 0.0
C1120 C 0.32545 0.63034 0.83212 0.0
C1121 C 0.40737 0.64082 0.93067 0.0
C1122 C 0.3804 0.63314 0.95561 0.0
C1123 C 0.3541 0.62996 0.92305 0.0
C1124 C 0.37971 0.62709 0.0148 0.0
C1125 C 0.43635 0.64401 0.96398 0.0
C1126 C 0.37896 0.60649 0.0286 0.0
C1127 C 0.37992 0.60046 0.08424 0.0
C1128 C 0.38121 0.61493 0.12719 0.0
C1129 C 0.3811 0.63564 0.11323 0.0
C1130 C 0.38041 0.64166 0.05737 0.0
H1131 H 0.45634 0.6476 0.93705 0.0
H1132 H 0.43296 0.65674 0.99354 0.0
H1133 H 0.44168 0.63027 0.9888 0.0
H1134 H 0.37834 0.59505 0.9962 0.0
H1135 H 0.37991 0.58441 0.09364 0.0
H1136 H 0.89913 0.91796 0.15344 0.0
H1137 H 0.89966 0.9266 0.25252 0.0
H1138 H 0.87595 0.86501 0.29379 0.0
H1139 H 0.87621 0.85602 0.19533 0.0
H1140 H 0.85055 0.923 0.32832 0.0
H1141 H 0.94983 0.87628 0.39456 0.0
H1142 H 0.94231 0.88227 0.32247 0.0
H1143 H 0.9211 0.86248 0.35654 0.0
C1144 C 0.89475 0.9061 0.18348 0.0
C1145 C 0.8881 0.88616 0.16621 0.0
C1146 C 0.89476 0.91114 0.24015 0.0
C1147 C 0.8883 0.89637 0.2805 0.0
C1148 C 0.88161 0.87654 0.26344 0.0
H1149 H 0.87402 0.89483 0.64151 0.0
H1150 H 0.87057 0.88672 0.54231 0.0
C1151 C 0.88155 0.87149 0.207 0.0
C1152 C 0.88738 0.90175 0.34043 0.0
H1153 H 0.91925 0.89042 0.46656 0.0
C1154 C 0.86568 0.91599 0.35855 0.0
C1155 C 0.90703 0.89247 0.37975 0.0
C1156 C 0.93158 0.87766 0.36242 0.0
C1157 C 0.86276 0.92096 0.4152 0.0
C1158 C 0.88239 0.91165 0.45451 0.0
C1159 C 0.90409 0.89742 0.43635 0.0
C1160 C 0.88169 0.917 0.51447 0.0
C1161 C 0.83831 0.93582 0.4326 0.0
C1162 C 0.88893 0.93674 0.53167 0.0
C1163 C 0.89073 0.94147 0.58826 0.0
C1164 C 0.88537 0.92656 0.62897 0.0
C1165 C 0.87759 0.90684 0.61156 0.0
C1166 C 0.87588 0.90211 0.5548 0.0
H1167 H 0.82005 0.93724 0.40051 0.0
H1168 H 0.8276 0.93122 0.47258 0.0
H1169 H 0.84889 0.95097 0.43851 0.0
H1170 H 0.89409 0.94837 0.5013 0.0
H1171 H 0.89687 0.95679 0.60015 0.0
H1172 H 0.61531 0.07676 0.59626 0.0
H1173 H 0.61829 0.08349 0.49634 0.0
H1174 H 0.6386 0.14626 0.53035 0.0
H1175 H 0.63589 0.13967 0.63019 0.0
H1176 H 0.58173 0.10892 0.43764 0.0
H1177 H 0.70306 0.13264 0.41499 0.0
H1178 H 0.68897 0.11997 0.47646 0.0
H1179 H 0.68302 0.14674 0.46746 0.0
C1180 C 0.62086 0.09195 0.5825 0.0
C1181 C 0.62575 0.1076 0.62135 0.0
C1182 C 0.62255 0.09576 0.52538 0.0
C1183 C 0.62911 0.1153 0.50585 0.0
C1184 C 0.63435 0.13093 0.54445 0.0
H1185 H 0.62242 0.17957 0.19703 0.0
H1186 H 0.62498 0.16795 0.29317 0.0
C1187 C 0.63283 0.12712 0.60166 0.0
C1188 C 0.62828 0.11962 0.44526 0.0
H1189 H 0.66965 0.14017 0.33866 0.0
C1190 C 0.60108 0.11552 0.41581 0.0
C1191 C 0.65356 0.12821 0.41687 0.0
C1192 C 0.6839 0.13197 0.44542 0.0
C1193 C 0.59812 0.12044 0.35919 0.0
C1194 C 0.62311 0.12951 0.33128 0.0
C1195 C 0.6505 0.13325 0.36035 0.0
C1196 C 0.62082 0.13618 0.2726 0.0
C1197 C 0.56796 0.11657 0.33008 0.0
C1198 C 0.61765 0.12211 0.2291 0.0
C1199 C 0.61627 0.12868 0.17372 0.0
C1200 C 0.618 0.14949 0.16099 0.0
C1201 C 0.62106 0.16345 0.20504 0.0
C1202 C 0.62252 0.15686 0.26014 0.0
H1203 H 0.54933 0.11281 0.35988 0.0
H1204 H 0.56098 0.13001 0.30542 0.0
H1205 H 0.57062 0.10365 0.30086 0.0
H1206 H 0.61681 0.10603 0.23793 0.0
H1207 H 0.61473 0.11738 0.14116 0.0
H1208 H 0.86682 0.58954 0.91532 0.0
H1209 H 0.86219 0.60192 0.01097 0.0
H1210 H 0.86648 0.66353 0.95215 0.0
H1211 H 0.87103 0.65127 0.85604 0.0
H1212 H 0.91154 0.65057 0.03978 0.0
H1213 H 0.78989 0.63345 0.09085 0.0
H1214 H 0.81051 0.61363 0.05565 0.0
H1215 H 0.80317 0.63706 0.02025 0.0
C1216 C 0.86615 0.60573 0.92265 0.0
C1217 C 0.869 0.61943 0.87821 0.0
C1218 C 0.86343 0.61276 0.97721 0.0
C1219 C 0.8638 0.6336 0.98834 0.0
C1220 C 0.86589 0.64738 0.94411 0.0
H1221 H 0.84084 0.68149 0.32424 0.0
H1222 H 0.84012 0.67795 0.22307 0.0
C1223 C 0.86824 0.64035 0.88928 0.0
C1224 C 0.86457 0.64072 0.04663 0.0
H1225 H 0.8232 0.64068 0.16705 0.0
C1226 C 0.89214 0.64869 0.06756 0.0
C1227 C 0.83918 0.63825 0.08241 0.0
C1228 C 0.80887 0.63028 0.06128 0.0
C1229 C 0.89533 0.65354 0.12419 0.0
C1230 C 0.87034 0.65023 0.16047 0.0
C1231 C 0.84238 0.64304 0.13905 0.0
C1232 C 0.87295 0.65346 0.22119 0.0
C1233 C 0.92544 0.66195 0.145 0.0
C1234 C 0.89178 0.64088 0.25349 0.0
C1235 C 0.89211 0.6427 0.3115 0.0
C1236 C 0.87361 0.65724 0.33823 0.0
C1237 C 0.85533 0.6701 0.30527 0.0
C1238 C 0.8549 0.66817 0.24739 0.0
H1239 H 0.93977 0.66788 0.11042 0.0
H1240 H 0.92155 0.67428 0.17567 0.0
H1241 H 0.93844 0.64973 0.16618 0.0
H1242 H 0.90542 0.62916 0.23392 0.0
H1243 H 0.90589 0.63213 0.33507 0.0
H1244 H 0.61674 0.41721 0.33729 0.0
H1245 H 0.61586 0.42544 0.23798 0.0
H1246 H 0.64153 0.36408 0.19806 0.0
H1247 H 0.64187 0.35554 0.29692 0.0
H1248 H 0.66657 0.42137 0.1625 0.0
H1249 H 0.56628 0.37491 0.09757 0.0
H1250 H 0.57347 0.38169 0.16931 0.0
H1251 H 0.59483 0.36158 0.13717 0.0
C1252 C 0.62151 0.40532 0.30746 0.0
C1253 C 0.62895 0.38559 0.32513 0.0
C1254 C 0.62128 0.41012 0.25073 0.0
C1255 C 0.62824 0.39529 0.21079 0.0
C1256 C 0.63558 0.37564 0.22822 0.0
H1257 H 0.63947 0.39369 0.84954 0.0
H1258 H 0.64311 0.3853 0.94838 0.0
C1259 C 0.63594 0.37084 0.28478 0.0
C1260 C 0.6291 0.4005 0.15091 0.0
H1261 H 0.59613 0.38945 0.02549 0.0
C1262 C 0.65109 0.4145 0.13249 0.0
C1263 C 0.60902 0.39134 0.112 0.0
C1264 C 0.58437 0.37666 0.12988 0.0
C1265 C 0.65382 0.41941 0.07586 0.0
C1266 C 0.63362 0.41034 0.03694 0.0
C1267 C 0.61169 0.3963 0.05541 0.0
C1268 C 0.634 0.41577 0.97713 0.0
C1269 C 0.67868 0.43396 0.05809 0.0
C1270 C 0.62776 0.4357 0.96057 0.0
C1271 C 0.62596 0.44061 0.90416 0.0
C1272 C 0.63023 0.42568 0.86302 0.0
C1273 C 0.63682 0.40572 0.87979 0.0
C1274 C 0.63861 0.40083 0.93637 0.0
H1275 H 0.69738 0.4349 0.0895 0.0
H1276 H 0.68871 0.42941 0.01748 0.0
H1277 H 0.66869 0.44932 0.05341 0.0
H1278 H 0.62347 0.44737 0.9913 0.0
H1279 H 0.62074 0.4561 0.89279 0.0
loop_
_geom_bond_atom_site_label_1
_geom_bond_atom_site_label_2
_geom_bond_distance
_geom_bond_site_symmetry_2
_ccdc_geom_bond_type
Zn0 N4 2.020 . S
Zn0 O8 2.019 . S
Zn0 N10 2.119 . S
Zn0 O18 1.975 . S
C1 N2 1.334 . S
C1 N5 1.336 . S
N2 C1 1.334 . S
N2 C3 1.334 . S
C3 N2 1.334 . S
C3 N4 1.336 . S
N4 Zn0 2.020 . S
N4 C3 1.336 . S
N4 N5 1.354 . S
N5 C1 1.336 . S
N5 N4 1.354 . S
N5 Zn9 2.020 . S
C6 O7 1.244 . S
C6 O30 1.257 . S
O7 C6 1.244 . S
O8 Zn0 2.019 . S
O8 C28 1.257 . S
Zn9 N5 2.020 . S
Zn9 O16 1.975 . S
Zn9 N25 2.119 1_554 S
Zn9 O30 2.019 . S
N10 Zn0 2.119 . S
N10 C12 1.334 . S
N10 C13 1.328 . S
C11 C12 1.391 . S
C11 N14 1.329 . S
C11 H32 0.930 . S
C12 N10 1.334 . S
C12 C11 1.391 . S
C12 H19 0.930 . S
C13 N10 1.328 . S
C13 C15 1.392 . S
C13 H20 0.930 . S
N14 C11 1.329 . S
N14 C15 1.331 . S
C15 C13 1.392 . S
C15 N14 1.331 . S
O16 Zn9 1.975 . S
O16 C17 1.252 . S
C17 O16 1.252 . S
C17 O18 1.252 . S
O18 Zn0 1.975 . S
O18 C17 1.252 . S
H19 C12 0.930 . S
H20 C13 0.930 . S
C21 C22 1.392 . S
C21 N25 1.328 . S
C21 H27 0.930 . S
C22 C21 1.392 . S
C22 N26 1.331 . S
C23 C24 1.391 . S
C23 N26 1.329 . S
C23 H33 0.930 . S
C24 C23 1.391 . S
C24 N25 1.334 . S
C24 H31 0.930 . S
N25 Zn9 2.119 1_556 S
N25 C21 1.328 . S
N25 C24 1.334 . S
N26 C22 1.331 . S
N26 C23 1.329 . S
H27 C21 0.930 . S
C28 O8 1.257 . S
C28 O29 1.244 . S
O29 C28 1.244 . S
O30 C6 1.257 . S
O30 Zn9 2.019 . S
H31 C24 0.930 . S
H32 C11 0.930 . S
H33 C23 0.930 . S
Zn34 N38 2.020 . S
Zn34 O42 2.019 . S
Zn34 N44 2.119 1_554 S
Zn34 O52 1.975 . S
C35 N36 1.334 . S
C35 N39 1.336 . S
N36 C35 1.334 . S
N36 C37 1.334 . S
C37 N36 1.334 . S
C37 N38 1.336 . S
N38 Zn34 2.020 . S
N38 C37 1.336 . S
N38 N39 1.354 . S
N39 C35 1.336 . S
N39 N38 1.354 . S
N39 Zn43 2.020 . S
C40 O41 1.244 . S
C40 O64 1.257 . S
O41 C40 1.244 . S
O42 Zn34 2.019 . S
O42 C62 1.257 . S
Zn43 N39 2.020 . S
Zn43 O50 1.975 . S
Zn43 N59 2.119 . S
Zn43 O64 2.019 . S
N44 Zn34 2.119 1_556 S
N44 C46 1.334 . S
N44 C47 1.328 . S
C45 C46 1.391 . S
C45 N48 1.329 . S
C45 H66 0.930 . S
C46 N44 1.334 . S
C46 C45 1.391 . S
C46 H53 0.930 . S
C47 N44 1.328 . S
C47 C49 1.392 . S
C47 H54 0.930 . S
N48 C45 1.329 . S
N48 C49 1.331 . S
C49 C47 1.392 . S
C49 N48 1.331 . S
O50 Zn43 1.975 . S
O50 C51 1.252 . S
C51 O50 1.252 . S
C51 O52 1.252 . S
O52 Zn34 1.975 . S
O52 C51 1.252 . S
H53 C46 0.930 . S
H54 C47 0.930 . S
C55 C56 1.392 . S
C55 N59 1.328 . S
C55 H61 0.930 . S
C56 C55 1.392 . S
C56 N60 1.331 . S
C57 C58 1.391 . S
C57 N60 1.329 . S
C57 H67 0.930 . S
C58 C57 1.391 . S
C58 N59 1.334 . S
C58 H65 0.930 . S
N59 Zn43 2.119 . S
N59 C55 1.328 . S
N59 C58 1.334 . S
N60 C56 1.331 . S
N60 C57 1.329 . S
H61 C55 0.930 . S
C62 O42 1.257 . S
C62 O63 1.244 . S
O63 C62 1.244 . S
O64 C40 1.257 . S
O64 Zn43 2.019 . S
H65 C58 0.930 . S
H66 C45 0.930 . S
H67 C57 0.930 . S
Zn68 N72 2.020 . S
Zn68 O76 2.019 . S
Zn68 N78 2.119 . S
Zn68 O86 1.975 . S
C69 N70 1.334 . S
C69 N73 1.336 . S
N70 C69 1.334 . S
N70 C71 1.334 . S
C71 N70 1.334 . S
C71 N72 1.336 . S
N72 Zn68 2.020 . S
N72 C71 1.336 . S
N72 N73 1.354 . S
N73 C69 1.336 . S
N73 N72 1.354 . S
N73 Zn77 2.020 . S
C74 O75 1.244 . S
C74 O98 1.257 . S
O75 C74 1.244 . S
O76 Zn68 2.019 . S
O76 C96 1.257 . S
Zn77 N73 2.020 . S
Zn77 O84 1.975 . S
Zn77 N93 2.119 . S
Zn77 O98 2.019 . S
N78 Zn68 2.119 . S
N78 C80 1.334 . S
N78 C81 1.328 . S
C79 C80 1.391 . S
C79 N82 1.329 . S
C79 H100 0.930 . S
C80 N78 1.334 . S
C80 C79 1.391 . S
C80 H87 0.930 . S
C81 N78 1.328 . S
C81 C83 1.392 . S
C81 H88 0.930 . S
N82 C79 1.329 . S
N82 C83 1.331 . S
C83 C81 1.392 . S
C83 N82 1.331 . S
O84 Zn77 1.975 . S
O84 C85 1.252 . S
C85 O84 1.252 . S
C85 O86 1.252 . S
O86 Zn68 1.975 . S
O86 C85 1.252 . S
H87 C80 0.930 . S
H88 C81 0.930 . S
C89 C90 1.392 . S
C89 N93 1.328 . S
C89 H95 0.930 . S
C90 C89 1.392 . S
C90 N94 1.331 . S
C91 C92 1.391 . S
C91 N94 1.329 . S
C91 H101 0.930 . S
C92 C91 1.391 . S
C92 N93 1.334 . S
C92 H99 0.930 . S
N93 Zn77 2.119 . S
N93 C89 1.328 . S
N93 C92 1.334 . S
N94 C90 1.331 . S
N94 C91 1.329 . S
H95 C89 0.930 . S
C96 O76 1.257 . S
C96 O97 1.244 . S
O97 C96 1.244 . S
O98 C74 1.257 . S
O98 Zn77 2.019 . S
H99 C92 0.930 . S
H100 C79 0.930 . S
H101 C91 0.930 . S
Zn102 N106 2.020 . S
Zn102 O110 2.019 . S
Zn102 N112 2.119 . S
Zn102 O120 1.975 . S
C103 N104 1.334 . S
C103 N107 1.336 . S
N104 C103 1.334 . S
N104 C105 1.334 . S
C105 N104 1.334 . S
C105 N106 1.336 . S
N106 Zn102 2.020 . S
N106 C105 1.336 . S
N106 N107 1.354 . S
N107 C103 1.336 . S
N107 N106 1.354 . S
N107 Zn111 2.020 . S
C108 O109 1.244 . S
C108 O132 1.257 . S
O109 C108 1.244 . S
O110 Zn102 2.019 . S
O110 C130 1.257 . S
Zn111 N107 2.020 . S
Zn111 O118 1.975 . S
Zn111 N127 2.119 . S
Zn111 O132 2.019 . S
N112 Zn102 2.119 . S
N112 C114 1.334 . S
N112 C115 1.328 . S
C113 C114 1.391 . S
C113 N116 1.329 . S
C113 H134 0.930 . S
C114 N112 1.334 . S
C114 C113 1.391 . S
C114 H121 0.930 . S
C115 N112 1.328 . S
C115 C117 1.392 . S
C115 H122 0.930 . S
N116 C113 1.329 . S
N116 C117 1.331 . S
C117 C115 1.392 . S
C117 N116 1.331 . S
O118 Zn111 1.975 . S
O118 C119 1.252 . S
C119 O118 1.252 . S
C119 O120 1.252 . S
O120 Zn102 1.975 . S
O120 C119 1.252 . S
H121 C114 0.930 . S
H122 C115 0.930 . S
C123 C124 1.392 . S
C123 N127 1.328 . S
C123 H129 0.930 . S
C124 C123 1.392 . S
C124 N128 1.331 . S
C125 C126 1.391 . S
C125 N128 1.329 . S
C125 H135 0.930 . S
C126 C125 1.391 . S
C126 N127 1.334 . S
C126 H133 0.930 . S
N127 Zn111 2.119 . S
N127 C123 1.328 . S
N127 C126 1.334 . S
N128 C124 1.331 . S
N128 C125 1.329 . S
H129 C123 0.930 . S
C130 O110 1.257 . S
C130 O131 1.244 . S
O131 C130 1.244 . S
O132 C108 1.257 . S
O132 Zn111 2.019 . S
H133 C126 0.930 . S
H134 C113 0.930 . S
H135 C125 0.930 . S
Zn136 N140 2.020 . S
Zn136 O144 2.019 . S
Zn136 N146 2.119 . S
Zn136 O154 1.975 . S
C137 N138 1.334 . S
C137 N141 1.336 . S
N138 C137 1.334 . S
N138 C139 1.334 . S
C139 N138 1.334 . S
C139 N140 1.336 . S
N140 Zn136 2.020 . S
N140 C139 1.336 . S
N140 N141 1.354 . S
N141 C137 1.336 . S
N141 N140 1.354 . S
N141 Zn145 2.020 . S
C142 O143 1.244 . S
C142 O166 1.257 . S
O143 C142 1.244 . S
O144 Zn136 2.019 . S
O144 C164 1.257 . S
Zn145 N141 2.020 . S
Zn145 O152 1.975 . S
Zn145 N161 2.119 1_556 S
Zn145 O166 2.019 . S
N146 Zn136 2.119 . S
N146 C148 1.334 . S
N146 C149 1.328 . S
C147 C148 1.391 . S
C147 N150 1.329 . S
C147 H168 0.930 . S
C148 N146 1.334 . S
C148 C147 1.391 . S
C148 H155 0.930 . S
C149 N146 1.328 . S
C149 C151 1.392 . S
C149 H156 0.930 . S
N150 C147 1.329 . S
N150 C151 1.331 . S
C151 C149 1.392 . S
C151 N150 1.331 . S
O152 Zn145 1.975 . S
O152 C153 1.252 . S
C153 O152 1.252 . S
C153 O154 1.252 . S
O154 Zn136 1.975 . S
O154 C153 1.252 . S
H155 C148 0.930 . S
H156 C149 0.930 . S
C157 C158 1.392 . S
C157 N161 1.328 . S
C157 H163 0.930 . S
C158 C157 1.392 . S
C158 N162 1.331 . S
C159 C160 1.391 . S
C159 N162 1.329 . S
C159 H169 0.930 . S
C160 C159 1.391 . S
C160 N161 1.334 . S
C160 H167 0.930 . S
N161 Zn145 2.119 1_554 S
N161 C157 1.328 . S
N161 C160 1.334 . S
N162 C158 1.331 . S
N162 C159 1.329 . S
H163 C157 0.930 . S
C164 O144 1.257 . S
C164 O165 1.244 . S
O165 C164 1.244 . S
O166 C142 1.257 . S
O166 Zn145 2.019 . S
H167 C160 0.930 . S
H168 C147 0.930 . S
H169 C159 0.930 . S
Zn170 N174 2.020 . S
Zn170 O178 2.019 . S
Zn170 N180 2.119 1_556 S
Zn170 O188 1.975 . S
C171 N172 1.334 . S
C171 N175 1.336 . S
N172 C171 1.334 . S
N172 C173 1.334 . S
C173 N172 1.334 . S
C173 N174 1.336 . S
N174 Zn170 2.020 . S
N174 C173 1.336 . S
N174 N175 1.354 . S
N175 C171 1.336 . S
N175 N174 1.354 . S
N175 Zn179 2.020 . S
C176 O177 1.244 . S
C176 O200 1.257 . S
O177 C176 1.244 . S
O178 Zn170 2.019 . S
O178 C198 1.257 . S
Zn179 N175 2.020 . S
Zn179 O186 1.975 . S
Zn179 N195 2.119 . S
Zn179 O200 2.019 . S
N180 Zn170 2.119 1_554 S
N180 C182 1.334 . S
N180 C183 1.328 . S
C181 C182 1.391 . S
C181 N184 1.329 . S
C181 H202 0.930 . S
C182 N180 1.334 . S
C182 C181 1.391 . S
C182 H189 0.930 . S
C183 N180 1.328 . S
C183 C185 1.392 . S
C183 H190 0.930 . S
N184 C181 1.329 . S
N184 C185 1.331 . S
C185 C183 1.392 . S
C185 N184 1.331 . S
O186 Zn179 1.975 . S
O186 C187 1.252 . S
C187 O186 1.252 . S
C187 O188 1.252 . S
O188 Zn170 1.975 . S
O188 C187 1.252 . S
H189 C182 0.930 . S
H190 C183 0.930 . S
C191 C192 1.392 . S
C191 N195 1.328 . S
C191 H197 0.930 . S
C192 C191 1.392 . S
C192 N196 1.331 . S
C193 C194 1.391 . S
C193 N196 1.329 . S
C193 H203 0.930 . S
C194 C193 1.391 . S
C194 N195 1.334 . S
C194 H201 0.930 . S
N195 Zn179 2.119 . S
N195 C191 1.328 . S
N195 C194 1.334 . S
N196 C192 1.331 . S
N196 C193 1.329 . S
H197 C191 0.930 . S
C198 O178 1.257 . S
C198 O199 1.244 . S
O199 C198 1.244 . S
O200 C176 1.257 . S
O200 Zn179 2.019 . S
H201 C194 0.930 . S
H202 C181 0.930 . S
H203 C193 0.930 . S
Zn204 N208 2.020 . S
Zn204 O212 2.019 . S
Zn204 N214 2.119 . S
Zn204 O222 1.975 . S
C205 N206 1.334 . S
C205 N209 1.336 . S
N206 C205 1.334 . S
N206 C207 1.334 . S
C207 N206 1.334 . S
C207 N208 1.336 . S
N208 Zn204 2.020 . S
N208 C207 1.336 . S
N208 N209 1.354 . S
N209 C205 1.336 . S
N209 N208 1.354 . S
N209 Zn213 2.020 . S
C210 O211 1.244 . S
C210 O234 1.257 . S
O211 C210 1.244 . S
O212 Zn204 2.019 . S
O212 C232 1.257 . S
Zn213 N209 2.020 . S
Zn213 O220 1.975 . S
Zn213 N229 2.119 . S
Zn213 O234 2.019 . S
N214 Zn204 2.119 . S
N214 C216 1.334 . S
N214 C217 1.328 . S
C215 C216 1.391 . S
C215 N218 1.329 . S
C215 H236 0.930 . S
C216 N214 1.334 . S
C216 C215 1.391 . S
C216 H223 0.930 . S
C217 N214 1.328 . S
C217 C219 1.392 . S
C217 H224 0.930 . S
N218 C215 1.329 . S
N218 C219 1.331 . S
C219 C217 1.392 . S
C219 N218 1.331 . S
O220 Zn213 1.975 . S
O220 C221 1.252 . S
C221 O220 1.252 . S
C221 O222 1.252 . S
O222 Zn204 1.975 . S
O222 C221 1.252 . S
H223 C216 0.930 . S
H224 C217 0.930 . S
C225 C226 1.392 . S
C225 N229 1.328 . S
C225 H231 0.930 . S
C226 C225 1.392 . S
C226 N230 1.331 . S
C227 C228 1.391 . S
C227 N230 1.329 . S
C227 H237 0.930 . S
C228 C227 1.391 . S
C228 N229 1.334 . S
C228 H235 0.930 . S
N229 Zn213 2.119 . S
N229 C225 1.328 . S
N229 C228 1.334 . S
N230 C226 1.331 . S
N230 C227 1.329 . S
H231 C225 0.930 . S
C232 O212 1.257 . S
C232 O233 1.244 . S
O233 C232 1.244 . S
O234 C210 1.257 . S
O234 Zn213 2.019 . S
H235 C228 0.930 . S
H236 C215 0.930 . S
H237 C227 0.930 . S
Zn238 N242 2.020 . S
Zn238 O246 2.019 . S
Zn238 N248 2.119 . S
Zn238 O256 1.975 . S
C239 N240 1.334 . S
C239 N243 1.336 . S
N240 C239 1.334 . S
N240 C241 1.334 . S
C241 N240 1.334 . S
C241 N242 1.336 . S
N242 Zn238 2.020 . S
N242 C241 1.336 . S
N242 N243 1.354 . S
N243 C239 1.336 . S
N243 N242 1.354 . S
N243 Zn247 2.020 . S
C244 O245 1.244 . S
C244 O268 1.257 . S
O245 C244 1.244 . S
O246 Zn238 2.019 . S
O246 C266 1.257 . S
Zn247 N243 2.020 . S
Zn247 O254 1.975 . S
Zn247 N263 2.119 . S
Zn247 O268 2.019 . S
N248 Zn238 2.119 . S
N248 C250 1.334 . S
N248 C251 1.328 . S
C249 C250 1.391 . S
C249 N252 1.329 . S
C249 H270 0.930 . S
C250 N248 1.334 . S
C250 C249 1.391 . S
C250 H257 0.930 . S
C251 N248 1.328 . S
C251 C253 1.392 . S
C251 H258 0.930 . S
N252 C249 1.329 . S
N252 C253 1.331 . S
C253 C251 1.392 . S
C253 N252 1.331 . S
O254 Zn247 1.975 . S
O254 C255 1.252 . S
C255 O254 1.252 . S
C255 O256 1.252 . S
O256 Zn238 1.975 . S
O256 C255 1.252 . S
H257 C250 0.930 . S
H258 C251 0.930 . S
C259 C260 1.392 . S
C259 N263 1.328 . S
C259 H265 0.930 . S
C260 C259 1.392 . S
C260 N264 1.331 . S
C261 C262 1.391 . S
C261 N264 1.329 . S
C261 H271 0.930 . S
C262 C261 1.391 . S
C262 N263 1.334 . S
C262 H269 0.930 . S
N263 Zn247 2.119 . S
N263 C259 1.328 . S
N263 C262 1.334 . S
N264 C260 1.331 . S
N264 C261 1.329 . S
H265 C259 0.930 . S
C266 O246 1.257 . S
C266 O267 1.244 . S
O267 C266 1.244 . S
O268 C244 1.257 . S
O268 Zn247 2.019 . S
H269 C262 0.930 . S
H270 C249 0.930 . S
H271 C261 0.930 . S
H272 C280 0.929 . S
H273 C282 0.930 . S
H274 C284 0.930 . S
H275 C287 0.929 . S
H276 C290 0.930 . S
H277 C292 0.960 . S
H278 C292 0.960 . S
H279 C292 0.960 . S
C280 H272 0.929 . S
C280 C281 1.377 . S
C280 C282 1.384 1_556 S
C281 C280 1.377 . S
C281 C287 1.390 . S
C282 H273 0.930 . S
C282 C280 1.384 1_554 S
C282 C283 1.372 1_554 S
C283 C282 1.372 1_556 S
C283 C284 1.400 . S
C283 C288 1.490 1_556 S
C284 H274 0.930 . S
C284 C283 1.400 . S
C284 C287 1.386 . S
H285 C301 0.930 . S
H286 C302 0.931 . S
C287 H275 0.929 . S
C287 C281 1.390 . S
C287 C284 1.386 . S
C288 C283 1.490 1_554 S
C288 C290 1.395 . S
C288 C291 1.403 1_554 S
H289 C295 0.930 1_556 S
C290 H276 0.930 . S
C290 C288 1.395 . S
C290 C293 1.403 . S
C291 C288 1.403 1_556 S
C291 C292 1.524 . S
C291 C295 1.400 1_556 S
C292 H277 0.960 . S
C292 H278 0.960 . S
C292 H279 0.960 . S
C292 C291 1.524 . S
C293 C290 1.403 . S
C293 C294 1.392 . S
C293 C297 1.495 . S
C294 C293 1.392 . S
C294 C295 1.385 . S
C294 C296 1.478 . S
C295 H289 0.930 1_554 S
C295 C291 1.400 1_554 S
C295 C294 1.385 . S
C296 C294 1.478 . S
C296 C298 1.381 . S
C296 C302 1.383 . S
C297 C293 1.495 . S
C297 H303 0.959 . S
C297 H304 0.961 . S
C297 H305 0.960 . S
C298 C296 1.381 . S
C298 C299 1.394 . S
C298 H306 0.930 . S
C299 C298 1.394 . S
C299 C300 1.383 . S
C299 H307 0.929 . S
C300 C299 1.383 . S
C300 C301 1.377 . S
C301 H285 0.930 . S
C301 C300 1.377 . S
C301 C302 1.379 . S
C302 H286 0.931 . S
C302 C296 1.383 . S
C302 C301 1.379 . S
H303 C297 0.959 . S
H304 C297 0.961 . S
H305 C297 0.960 . S
H306 C298 0.930 . S
H307 C299 0.929 . S
H308 C316 0.929 . S
H309 C318 0.930 . S
H310 C320 0.930 . S
H311 C323 0.929 . S
H312 C326 0.930 . S
H313 C328 0.960 . S
H314 C328 0.960 . S
H315 C328 0.960 . S
C316 H308 0.929 . S
C316 C317 1.377 . S
C316 C318 1.384 . S
C317 C316 1.377 . S
C317 C323 1.390 . S
C318 H309 0.930 . S
C318 C316 1.384 . S
C318 C319 1.372 . S
C319 C318 1.372 . S
C319 C320 1.400 . S
C319 C324 1.490 . S
C320 H310 0.930 . S
C320 C319 1.400 . S
C320 C323 1.386 . S
H321 C337 0.930 . S
H322 C338 0.931 . S
C323 H311 0.929 . S
C323 C317 1.390 . S
C323 C320 1.386 . S
C324 C319 1.490 . S
C324 C326 1.395 . S
C324 C327 1.403 1_554 S
H325 C331 0.930 . S
C326 H312 0.930 . S
C326 C324 1.395 . S
C326 C329 1.403 . S
C327 C324 1.403 1_556 S
C327 C328 1.524 . S
C327 C331 1.400 . S
C328 H313 0.960 . S
C328 H314 0.960 . S
C328 H315 0.960 . S
C328 C327 1.524 . S
C329 C326 1.403 . S
C329 C330 1.392 . S
C329 C333 1.495 . S
C330 C329 1.392 . S
C330 C331 1.385 1_554 S
C330 C332 1.477 1_554 S
C331 H325 0.930 . S
C331 C327 1.400 . S
C331 C330 1.385 1_556 S
C332 C330 1.477 1_556 S
C332 C334 1.381 1_556 S
C332 C338 1.384 . S
C333 C329 1.495 . S
C333 H339 0.959 . S
C333 H340 0.961 . S
C333 H341 0.960 . S
C334 C332 1.381 1_554 S
C334 C335 1.394 1_554 S
C334 H342 0.930 . S
C335 C334 1.394 1_556 S
C335 C336 1.383 . S
C335 H343 0.929 . S
C336 C335 1.383 . S
C336 C337 1.377 . S
C337 H321 0.930 . S
C337 C336 1.377 . S
C337 C338 1.379 . S
C338 H322 0.931 . S
C338 C332 1.384 . S
C338 C337 1.379 . S
H339 C333 0.959 . S
H340 C333 0.961 . S
H341 C333 0.960 . S
H342 C334 0.930 . S
H343 C335 0.929 . S
H344 C352 0.929 . S
H345 C354 0.930 . S
H346 C356 0.930 . S
H347 C359 0.929 . S
H348 C362 0.930 . S
H349 C364 0.960 . S
H350 C364 0.960 . S
H351 C364 0.960 . S
C352 H344 0.929 . S
C352 C353 1.377 . S
C352 C354 1.384 . S
C353 C352 1.377 . S
C353 C359 1.390 . S
C354 H345 0.930 . S
C354 C352 1.384 . S
C354 C355 1.372 . S
C355 C354 1.372 . S
C355 C356 1.400 . S
C355 C360 1.490 . S
C356 H346 0.930 . S
C356 C355 1.400 . S
C356 C359 1.386 . S
H357 C373 0.930 . S
H358 C374 0.931 . S
C359 H347 0.929 . S
C359 C353 1.390 . S
C359 C356 1.386 . S
C360 C355 1.490 . S
C360 C362 1.395 . S
C360 C363 1.403 . S
H361 C367 0.930 . S
C362 H348 0.930 . S
C362 C360 1.395 . S
C362 C365 1.403 . S
C363 C360 1.403 . S
C363 C364 1.524 . S
C363 C367 1.400 . S
C364 H349 0.960 . S
C364 H350 0.960 . S
C364 H351 0.960 . S
C364 C363 1.524 . S
C365 C362 1.403 . S
C365 C366 1.392 . S
C365 C369 1.495 . S
C366 C365 1.392 . S
C366 C367 1.385 . S
C366 C368 1.478 . S
C367 H361 0.930 . S
C367 C363 1.400 . S
C367 C366 1.385 . S
C368 C366 1.478 . S
C368 C370 1.381 . S
C368 C374 1.383 . S
C369 C365 1.495 . S
C369 H375 0.959 . S
C369 H376 0.961 . S
C369 H377 0.960 . S
C370 C368 1.381 . S
C370 C371 1.394 . S
C370 H378 0.930 . S
C371 C370 1.394 . S
C371 C372 1.383 . S
C371 H379 0.929 . S
C372 C371 1.383 . S
C372 C373 1.377 . S
C373 H357 0.930 . S
C373 C372 1.377 . S
C373 C374 1.379 . S
C374 H358 0.931 . S
C374 C368 1.383 . S
C374 C373 1.379 . S
H375 C369 0.959 . S
H376 C369 0.961 . S
H377 C369 0.960 . S
H378 C370 0.930 . S
H379 C371 0.929 . S
H380 C388 0.929 . S
H381 C390 0.930 . S
H382 C392 0.930 . S
H383 C395 0.929 . S
H384 C398 0.930 . S
H385 C400 0.960 . S
H386 C400 0.960 . S
H387 C400 0.960 . S
C388 H380 0.929 . S
C388 C389 1.377 . S
C388 C390 1.384 . S
C389 C388 1.377 . S
C389 C395 1.390 . S
C390 H381 0.930 . S
C390 C388 1.384 . S
C390 C391 1.372 . S
C391 C390 1.372 . S
C391 C392 1.400 . S
C391 C396 1.490 . S
C392 H382 0.930 . S
C392 C391 1.400 . S
C392 C395 1.386 . S
H393 C409 0.930 . S
H394 C410 0.931 . S
C395 H383 0.929 . S
C395 C389 1.390 . S
C395 C392 1.386 . S
C396 C391 1.490 . S
C396 C398 1.395 . S
C396 C399 1.403 . S
H397 C403 0.930 . S
C398 H384 0.930 . S
C398 C396 1.395 . S
C398 C401 1.403 . S
C399 C396 1.403 . S
C399 C400 1.524 . S
C399 C403 1.400 . S
C400 H385 0.960 . S
C400 H386 0.960 . S
C400 H387 0.960 . S
C400 C399 1.524 . S
C401 C398 1.403 . S
C401 C402 1.392 . S
C401 C405 1.495 . S
C402 C401 1.392 . S
C402 C403 1.385 . S
C402 C404 1.478 . S
C403 H397 0.930 . S
C403 C399 1.400 . S
C403 C402 1.385 . S
C404 C402 1.478 . S
C404 C406 1.381 . S
C404 C410 1.383 . S
C405 C401 1.495 . S
C405 H411 0.959 . S
C405 H412 0.961 . S
C405 H413 0.960 . S
C406 C404 1.381 . S
C406 C407 1.394 . S
C406 H414 0.930 . S
C407 C406 1.394 . S
C407 C408 1.383 . S
C407 H415 0.929 . S
C408 C407 1.383 . S
C408 C409 1.377 . S
C409 H393 0.930 . S
C409 C408 1.377 . S
C409 C410 1.379 . S
C410 H394 0.931 . S
C410 C404 1.383 . S
C410 C409 1.379 . S
H411 C405 0.959 . S
H412 C405 0.961 . S
H413 C405 0.960 . S
H414 C406 0.930 . S
H415 C407 0.929 . S
H416 C424 0.929 . S
H417 C426 0.930 . S
H418 C428 0.930 . S
H419 C431 0.929 . S
H420 C434 0.930 . S
H421 C436 0.960 . S
H422 C436 0.960 . S
H423 C436 0.960 . S
C424 H416 0.929 . S
C424 C425 1.377 . S
C424 C426 1.384 . S
C425 C424 1.377 . S
C425 C431 1.390 . S
C426 H417 0.930 . S
C426 C424 1.384 . S
C426 C427 1.372 . S
C427 C426 1.372 . S
C427 C428 1.400 . S
C427 C432 1.490 . S
C428 H418 0.930 . S
C428 C427 1.400 . S
C428 C431 1.386 . S
H429 C445 0.930 . S
H430 C446 0.931 . S
C431 H419 0.929 . S
C431 C425 1.390 . S
C431 C428 1.386 . S
C432 C427 1.490 . S
C432 C434 1.395 . S
C432 C435 1.403 . S
H433 C439 0.930 . S
C434 H420 0.930 . S
C434 C432 1.395 . S
C434 C437 1.403 1_556 S
C435 C432 1.403 . S
C435 C436 1.524 . S
C435 C439 1.400 . S
C436 H421 0.960 . S
C436 H422 0.960 . S
C436 H423 0.960 . S
C436 C435 1.524 . S
C437 C434 1.403 1_554 S
C437 C438 1.392 1_554 S
C437 C441 1.495 . S
C438 C437 1.392 1_556 S
C438 C439 1.385 . S
C438 C440 1.478 1_556 S
C439 H433 0.930 . S
C439 C435 1.400 . S
C439 C438 1.385 . S
C440 C438 1.478 1_554 S
C440 C442 1.381 . S
C440 C446 1.383 . S
C441 C437 1.495 . S
C441 H447 0.959 . S
C441 H448 0.961 . S
C441 H449 0.960 . S
C442 C440 1.381 . S
C442 C443 1.394 . S
C442 H450 0.930 1_554 S
C443 C442 1.394 . S
C443 C444 1.383 . S
C443 H451 0.929 . S
C444 C443 1.383 . S
C444 C445 1.377 . S
C445 H429 0.930 . S
C445 C444 1.377 . S
C445 C446 1.379 . S
C446 H430 0.931 . S
C446 C440 1.383 . S
C446 C445 1.379 . S
H447 C441 0.959 . S
H448 C441 0.961 . S
H449 C441 0.960 . S
H450 C442 0.930 1_556 S
H451 C443 0.929 . S
H452 C460 0.929 . S
H453 C462 0.930 . S
H454 C464 0.930 . S
H455 C467 0.929 . S
H456 C470 0.930 . S
H457 C472 0.960 . S
H458 C472 0.960 . S
H459 C472 0.960 . S
C460 H452 0.929 . S
C460 C461 1.377 . S
C460 C462 1.384 . S
C461 C460 1.377 . S
C461 C467 1.390 . S
C462 H453 0.930 . S
C462 C460 1.384 . S
C462 C463 1.372 . S
C463 C462 1.372 . S
C463 C464 1.400 . S
C463 C468 1.490 . S
C464 H454 0.930 . S
C464 C463 1.400 . S
C464 C467 1.386 . S
H465 C481 0.930 . S
H466 C482 0.931 1_556 S
C467 H455 0.929 . S
C467 C461 1.390 . S
C467 C464 1.386 . S
C468 C463 1.490 . S
C468 C470 1.395 1_556 S
C468 C471 1.403 . S
H469 C475 0.930 . S
C470 H456 0.930 . S
C470 C468 1.395 1_554 S
C470 C473 1.403 . S
C471 C468 1.403 . S
C471 C472 1.524 . S
C471 C475 1.400 . S
C472 H457 0.960 . S
C472 H458 0.960 . S
C472 H459 0.960 . S
C472 C471 1.524 . S
C473 C470 1.403 . S
C473 C474 1.387 1_554 S
C473 C477 1.495 . S
C474 C473 1.387 1_556 S
C474 C475 1.394 . S
C474 C476 1.475 1_556 S
C475 H469 0.930 . S
C475 C471 1.400 . S
C475 C474 1.394 . S
C476 C474 1.475 1_554 S
C476 C478 1.381 . S
C476 C482 1.383 . S
C477 C473 1.495 . S
C477 H483 0.959 . S
C477 H484 0.961 . S
C477 H485 0.960 . S
C478 C476 1.381 . S
C478 C479 1.394 . S
C478 H486 0.930 . S
C479 C478 1.394 . S
C479 C480 1.383 . S
C479 H487 0.929 . S
C480 C479 1.383 . S
C480 C481 1.377 . S
C481 H465 0.930 . S
C481 C480 1.377 . S
C481 C482 1.379 . S
C482 H466 0.931 1_554 S
C482 C476 1.383 . S
C482 C481 1.379 . S
H483 C477 0.959 . S
H484 C477 0.961 . S
H485 C477 0.960 . S
H486 C478 0.930 . S
H487 C479 0.929 . S
H488 C496 0.929 . S
H489 C498 0.930 . S
H490 C500 0.930 . S
H491 C503 0.929 . S
H492 C506 0.930 . S
H493 C508 0.960 . S
H494 C508 0.960 . S
H495 C508 0.960 . S
C496 H488 0.929 . S
C496 C497 1.377 . S
C496 C498 1.384 . S
C497 C496 1.377 . S
C497 C503 1.390 . S
C498 H489 0.930 . S
C498 C496 1.384 . S
C498 C499 1.372 . S
C499 C498 1.372 . S
C499 C500 1.400 . S
C499 C504 1.490 . S
C500 H490 0.930 . S
C500 C499 1.400 . S
C500 C503 1.386 . S
H501 C517 0.930 . S
H502 C518 0.931 . S
C503 H491 0.929 . S
C503 C497 1.390 . S
C503 C500 1.386 . S
C504 C499 1.490 . S
C504 C506 1.395 . S
C504 C507 1.403 . S
H505 C511 0.930 . S
C506 H492 0.930 . S
C506 C504 1.395 . S
C506 C509 1.403 . S
C507 C504 1.403 . S
C507 C508 1.524 . S
C507 C511 1.400 . S
C508 H493 0.960 . S
C508 H494 0.960 . S
C508 H495 0.960 . S
C508 C507 1.524 . S
C509 C506 1.403 . S
C509 C510 1.392 . S
C509 C513 1.495 . S
C510 C509 1.392 . S
C510 C511 1.385 . S
C510 C512 1.478 . S
C511 H505 0.930 . S
C511 C507 1.400 . S
C511 C510 1.385 . S
C512 C510 1.478 . S
C512 C514 1.381 . S
C512 C518 1.383 . S
C513 C509 1.495 . S
C513 H519 0.959 . S
C513 H520 0.961 . S
C513 H521 0.960 . S
C514 C512 1.381 . S
C514 C515 1.394 . S
C514 H522 0.930 . S
C515 C514 1.394 . S
C515 C516 1.383 . S
C515 H523 0.929 . S
C516 C515 1.383 . S
C516 C517 1.377 . S
C517 H501 0.930 . S
C517 C516 1.377 . S
C517 C518 1.379 . S
C518 H502 0.931 . S
C518 C512 1.383 . S
C518 C517 1.379 . S
H519 C513 0.959 . S
H520 C513 0.961 . S
H521 C513 0.960 . S
H522 C514 0.930 . S
H523 C515 0.929 . S
H524 C532 0.929 . S
H525 C534 0.930 . S
H526 C536 0.930 . S
H527 C539 0.929 . S
H528 C542 0.930 . S
H529 C544 0.960 . S
H530 C544 0.960 . S
H531 C544 0.960 . S
C532 H524 0.929 . S
C532 C533 1.377 . S
C532 C534 1.384 . S
C533 C532 1.377 . S
C533 C539 1.390 . S
C534 H525 0.930 . S
C534 C532 1.384 . S
C534 C535 1.372 . S
C535 C534 1.372 . S
C535 C536 1.400 . S
C535 C540 1.490 . S
C536 H526 0.930 . S
C536 C535 1.400 . S
C536 C539 1.386 . S
H537 C553 0.930 1_455 S
H538 C554 0.931 . S
C539 H527 0.929 . S
C539 C533 1.390 . S
C539 C536 1.386 . S
C540 C535 1.490 . S
C540 C542 1.395 . S
C540 C543 1.403 . S
H541 C547 0.930 . S
C542 H528 0.930 . S
C542 C540 1.395 . S
C542 C545 1.403 . S
C543 C540 1.403 . S
C543 C544 1.524 . S
C543 C547 1.400 . S
C544 H529 0.960 . S
C544 H530 0.960 . S
C544 H531 0.960 . S
C544 C543 1.524 . S
C545 C542 1.403 . S
C545 C546 1.392 . S
C545 C549 1.495 . S
C546 C545 1.392 . S
C546 C547 1.385 . S
C546 C548 1.478 . S
C547 H541 0.930 . S
C547 C543 1.400 . S
C547 C546 1.385 . S
C548 C546 1.478 . S
C548 C550 1.381 . S
C548 C554 1.383 . S
C549 C545 1.495 . S
C549 H555 0.959 . S
C549 H556 0.961 . S
C549 H557 0.960 . S
C550 C548 1.381 . S
C550 C551 1.394 . S
C550 H558 0.930 . S
C551 C550 1.394 . S
C551 C552 1.383 . S
C551 H559 0.929 . S
C552 C551 1.383 . S
C552 C553 1.377 . S
C553 H537 0.930 1_655 S
C553 C552 1.377 . S
C553 C554 1.379 . S
C554 H538 0.931 . S
C554 C548 1.383 . S
C554 C553 1.379 . S
H555 C549 0.959 . S
H556 C549 0.961 . S
H557 C549 0.960 . S
H558 C550 0.930 . S
H559 C551 0.929 . S
H560 C568 0.929 . S
H561 C570 0.930 . S
H562 C572 0.930 . S
H563 C575 0.929 . S
H564 C578 0.930 . S
H565 C580 0.960 . S
H566 C580 0.960 . S
H567 C580 0.960 . S
C568 H560 0.929 . S
C568 C569 1.377 . S
C568 C570 1.384 . S
C569 C568 1.377 . S
C569 C575 1.390 . S
C570 H561 0.930 . S
C570 C568 1.384 . S
C570 C571 1.372 . S
C571 C570 1.372 . S
C571 C572 1.400 . S
C571 C576 1.490 . S
C572 H562 0.930 . S
C572 C571 1.400 . S
C572 C575 1.386 . S
H573 C589 0.930 . S
H574 C590 0.931 . S
C575 H563 0.929 . S
C575 C569 1.390 . S
C575 C572 1.386 . S
C576 C571 1.490 . S
C576 C578 1.395 . S
C576 C579 1.403 . S
H577 C583 0.930 . S
C578 H564 0.930 . S
C578 C576 1.395 . S
C578 C581 1.403 . S
C579 C576 1.403 . S
C579 C580 1.524 . S
C579 C583 1.400 . S
C580 H565 0.960 . S
C580 H566 0.960 . S
C580 H567 0.960 . S
C580 C579 1.524 . S
C581 C578 1.403 . S
C581 C582 1.392 . S
C581 C585 1.495 . S
C582 C581 1.392 . S
C582 C583 1.385 . S
C582 C584 1.478 . S
C583 H577 0.930 . S
C583 C579 1.400 . S
C583 C582 1.385 . S
C584 C582 1.478 . S
C584 C586 1.381 . S
C584 C590 1.383 . S
C585 C581 1.495 . S
C585 H591 0.959 . S
C585 H592 0.961 . S
C585 H593 0.960 . S
C586 C584 1.381 . S
C586 C587 1.394 . S
C586 H594 0.930 . S
C587 C586 1.394 . S
C587 C588 1.383 . S
C587 H595 0.929 . S
C588 C587 1.383 . S
C588 C589 1.377 . S
C589 H573 0.930 . S
C589 C588 1.377 . S
C589 C590 1.379 . S
C590 H574 0.931 . S
C590 C584 1.383 . S
C590 C589 1.379 . S
H591 C585 0.959 . S
H592 C585 0.961 . S
H593 C585 0.960 . S
H594 C586 0.930 . S
H595 C587 0.929 . S
H596 C604 0.929 . S
H597 C606 0.930 . S
H598 C608 0.930 . S
H599 C611 0.929 . S
H600 C614 0.930 . S
H601 C616 0.960 . S
H602 C616 0.960 . S
H603 C616 0.960 . S
C604 H596 0.929 . S
C604 C605 1.377 . S
C604 C606 1.384 . S
C605 C604 1.377 . S
C605 C611 1.390 . S
C606 H597 0.930 . S
C606 C604 1.384 . S
C606 C607 1.372 . S
C607 C606 1.372 . S
C607 C608 1.400 . S
C607 C612 1.490 . S
C608 H598 0.930 . S
C608 C607 1.400 . S
C608 C611 1.386 . S
H609 C625 0.930 . S
H610 C626 0.931 . S
C611 H599 0.929 . S
C611 C605 1.390 . S
C611 C608 1.386 . S
C612 C607 1.490 . S
C612 C614 1.395 . S
C612 C615 1.403 . S
H613 C619 0.930 . S
C614 H600 0.930 . S
C614 C612 1.395 . S
C614 C617 1.403 . S
C615 C612 1.403 . S
C615 C616 1.524 . S
C615 C619 1.400 . S
C616 H601 0.960 . S
C616 H602 0.960 . S
C616 H603 0.960 . S
C616 C615 1.524 . S
C617 C614 1.403 . S
C617 C618 1.392 . S
C617 C621 1.495 . S
C618 C617 1.392 . S
C618 C619 1.385 . S
C618 C620 1.478 . S
C619 H613 0.930 . S
C619 C615 1.400 . S
C619 C618 1.385 . S
C620 C618 1.478 . S
C620 C622 1.381 . S
C620 C626 1.383 . S
C621 C617 1.495 . S
C621 H627 0.959 . S
C621 H628 0.961 . S
C621 H629 0.960 . S
C622 C620 1.381 . S
C622 C623 1.394 . S
C622 H630 0.930 . S
C623 C622 1.394 . S
C623 C624 1.383 . S
C623 H631 0.929 . S
C624 C623 1.383 . S
C624 C625 1.377 . S
C625 H609 0.930 . S
C625 C624 1.377 . S
C625 C626 1.379 . S
C626 H610 0.931 . S
C626 C620 1.383 . S
C626 C625 1.379 . S
H627 C621 0.959 . S
H628 C621 0.961 . S
H629 C621 0.960 . S
H630 C622 0.930 . S
H631 C623 0.929 . S
H632 C640 0.929 . S
H633 C642 0.930 . S
H634 C644 0.930 . S
H635 C647 0.929 . S
H636 C650 0.930 . S
H637 C652 0.960 . S
H638 C652 0.960 . S
H639 C652 0.960 . S
C640 H632 0.929 . S
C640 C641 1.377 . S
C640 C642 1.384 . S
C641 C640 1.377 . S
C641 C647 1.390 . S
C642 H633 0.930 . S
C642 C640 1.384 . S
C642 C643 1.372 . S
C643 C642 1.372 . S
C643 C644 1.400 . S
C643 C648 1.490 . S
C644 H634 0.930 . S
C644 C643 1.400 . S
C644 C647 1.386 . S
H645 C661 0.930 . S
H646 C662 0.931 . S
C647 H635 0.929 . S
C647 C641 1.390 . S
C647 C644 1.386 . S
C648 C643 1.490 . S
C648 C650 1.395 . S
C648 C651 1.403 . S
H649 C655 0.930 . S
C650 H636 0.930 . S
C650 C648 1.395 . S
C650 C653 1.403 . S
C651 C648 1.403 . S
C651 C652 1.524 . S
C651 C655 1.400 . S
C652 H637 0.960 . S
C652 H638 0.960 . S
C652 H639 0.960 . S
C652 C651 1.524 . S
C653 C650 1.403 . S
C653 C654 1.392 . S
C653 C657 1.495 . S
C654 C653 1.392 . S
C654 C655 1.385 . S
C654 C656 1.478 . S
C655 H649 0.930 . S
C655 C651 1.400 . S
C655 C654 1.385 . S
C656 C654 1.478 . S
C656 C658 1.381 . S
C656 C662 1.383 . S
C657 C653 1.495 . S
C657 H663 0.959 . S
C657 H664 0.961 . S
C657 H665 0.960 . S
C658 C656 1.381 . S
C658 C659 1.394 . S
C658 H666 0.930 . S
C659 C658 1.394 . S
C659 C660 1.383 . S
C659 H667 0.929 . S
C660 C659 1.383 . S
C660 C661 1.377 . S
C661 H645 0.930 . S
C661 C660 1.377 . S
C661 C662 1.379 . S
C662 H646 0.931 . S
C662 C656 1.383 . S
C662 C661 1.379 . S
H663 C657 0.959 . S
H664 C657 0.961 . S
H665 C657 0.960 . S
H666 C658 0.930 . S
H667 C659 0.929 . S
H668 C676 0.929 . S
H669 C678 0.930 . S
H670 C680 0.930 . S
H671 C683 0.929 . S
H672 C686 0.930 . S
H673 C688 0.960 . S
H674 C688 0.960 . S
H675 C688 0.960 . S
C676 H668 0.929 . S
C676 C677 1.377 . S
C676 C678 1.384 . S
C677 C676 1.377 . S
C677 C683 1.390 . S
C678 H669 0.930 . S
C678 C676 1.384 . S
C678 C679 1.372 . S
C679 C678 1.372 . S
C679 C680 1.400 . S
C679 C684 1.490 . S
C680 H670 0.930 . S
C680 C679 1.400 . S
C680 C683 1.386 . S
H681 C697 0.930 . S
H682 C698 0.931 . S
C683 H671 0.929 . S
C683 C677 1.390 . S
C683 C680 1.386 . S
C684 C679 1.490 . S
C684 C686 1.395 . S
C684 C687 1.403 . S
H685 C691 0.930 . S
C686 H672 0.930 . S
C686 C684 1.395 . S
C686 C689 1.403 . S
C687 C684 1.403 . S
C687 C688 1.524 . S
C687 C691 1.400 . S
C688 H673 0.960 . S
C688 H674 0.960 . S
C688 H675 0.960 . S
C688 C687 1.524 . S
C689 C686 1.403 . S
C689 C690 1.392 . S
C689 C693 1.495 . S
C690 C689 1.392 . S
C690 C691 1.385 . S
C690 C692 1.478 . S
C691 H685 0.930 . S
C691 C687 1.400 . S
C691 C690 1.385 . S
C692 C690 1.478 . S
C692 C694 1.381 . S
C692 C698 1.383 . S
C693 C689 1.495 . S
C693 H699 0.959 . S
C693 H700 0.961 . S
C693 H701 0.960 . S
C694 C692 1.381 . S
C694 C695 1.394 . S
C694 H702 0.930 . S
C695 C694 1.394 . S
C695 C696 1.383 . S
C695 H703 0.929 . S
C696 C695 1.383 . S
C696 C697 1.377 . S
C697 H681 0.930 . S
C697 C696 1.377 . S
C697 C698 1.379 . S
C698 H682 0.931 . S
C698 C692 1.383 . S
C698 C697 1.379 . S
H699 C693 0.959 . S
H700 C693 0.961 . S
H701 C693 0.960 . S
H702 C694 0.930 . S
H703 C695 0.929 . S
H704 C712 0.929 . S
H705 C714 0.930 . S
H706 C716 0.930 . S
H707 C719 0.929 . S
H708 C722 0.930 . S
H709 C724 0.960 . S
H710 C724 0.960 . S
H711 C724 0.960 . S
C712 H704 0.929 . S
C712 C713 1.377 . S
C712 C714 1.384 . S
C713 C712 1.377 . S
C713 C719 1.390 . S
C714 H705 0.930 . S
C714 C712 1.384 . S
C714 C715 1.372 . S
C715 C714 1.372 . S
C715 C716 1.400 . S
C715 C720 1.490 . S
C716 H706 0.930 . S
C716 C715 1.400 . S
C716 C719 1.386 . S
H717 C733 0.930 . S
H718 C734 0.931 . S
C719 H707 0.929 . S
C719 C713 1.390 . S
C719 C716 1.386 . S
C720 C715 1.490 . S
C720 C722 1.395 . S
C720 C723 1.403 1_565 S
H721 C727 0.930 . S
C722 H708 0.930 . S
C722 C720 1.395 . S
C722 C725 1.403 . S
C723 C720 1.403 1_545 S
C723 C724 1.524 . S
C723 C727 1.400 . S
C724 H709 0.960 . S
C724 H710 0.960 . S
C724 H711 0.960 . S
C724 C723 1.524 . S
C725 C722 1.403 . S
C725 C726 1.392 1_565 S
C725 C729 1.495 . S
C726 C725 1.392 1_545 S
C726 C727 1.385 . S
C726 C728 1.478 . S
C727 H721 0.930 . S
C727 C723 1.400 . S
C727 C726 1.385 . S
C728 C726 1.478 . S
C728 C730 1.381 . S
C728 C734 1.383 . S
C729 C725 1.495 . S
C729 H735 0.959 . S
C729 H736 0.961 . S
C729 H737 0.960 . S
C730 C728 1.381 . S
C730 C731 1.394 . S
C730 H738 0.930 . S
C731 C730 1.394 . S
C731 C732 1.383 . S
C731 H739 0.929 . S
C732 C731 1.383 . S
C732 C733 1.377 . S
C733 H717 0.930 . S
C733 C732 1.377 . S
C733 C734 1.379 . S
C734 H718 0.931 . S
C734 C728 1.383 . S
C734 C733 1.379 . S
H735 C729 0.959 . S
H736 C729 0.961 . S
H737 C729 0.960 . S
H738 C730 0.930 . S
H739 C731 0.929 . S
H740 C748 0.929 . S
H741 C750 0.930 . S
H742 C752 0.930 . S
H743 C755 0.929 . S
H744 C758 0.930 . S
H745 C760 0.960 . S
H746 C760 0.960 . S
H747 C760 0.960 . S
C748 H740 0.929 . S
C748 C749 1.377 . S
C748 C750 1.384 . S
C749 C748 1.377 . S
C749 C755 1.390 . S
C750 H741 0.930 . S
C750 C748 1.384 . S
C750 C751 1.372 . S
C751 C750 1.372 . S
C751 C752 1.400 . S
C751 C756 1.490 . S
C752 H742 0.930 . S
C752 C751 1.400 . S
C752 C755 1.386 . S
H753 C769 0.930 . S
H754 C770 0.931 . S
C755 H743 0.929 . S
C755 C749 1.390 . S
C755 C752 1.386 . S
C756 C751 1.490 . S
C756 C758 1.395 . S
C756 C759 1.403 . S
H757 C763 0.930 . S
C758 H744 0.930 . S
C758 C756 1.395 . S
C758 C761 1.403 . S
C759 C756 1.403 . S
C759 C760 1.524 . S
C759 C763 1.400 . S
C760 H745 0.960 . S
C760 H746 0.960 . S
C760 H747 0.960 . S
C760 C759 1.524 . S
C761 C758 1.403 . S
C761 C762 1.392 . S
C761 C765 1.495 . S
C762 C761 1.392 . S
C762 C763 1.385 . S
C762 C764 1.478 . S
C763 H757 0.930 . S
C763 C759 1.400 . S
C763 C762 1.385 . S
C764 C762 1.478 . S
C764 C766 1.381 . S
C764 C770 1.383 . S
C765 C761 1.495 . S
C765 H771 0.959 . S
C765 H772 0.961 . S
C765 H773 0.960 . S
C766 C764 1.381 . S
C766 C767 1.394 . S
C766 H774 0.930 . S
C767 C766 1.394 . S
C767 C768 1.383 . S
C767 H775 0.929 . S
C768 C767 1.383 . S
C768 C769 1.377 . S
C769 H753 0.930 . S
C769 C768 1.377 . S
C769 C770 1.379 . S
C770 H754 0.931 . S
C770 C764 1.383 . S
C770 C769 1.379 . S
H771 C765 0.959 . S
H772 C765 0.961 . S
H773 C765 0.960 . S
H774 C766 0.930 . S
H775 C767 0.929 . S
H776 C784 0.929 . S
H777 C786 0.930 . S
H778 C788 0.930 . S
H779 C791 0.929 . S
H780 C794 0.930 . S
H781 C796 0.960 . S
H782 C796 0.960 . S
H783 C796 0.960 . S
C784 H776 0.929 . S
C784 C785 1.377 . S
C784 C786 1.384 . S
C785 C784 1.377 . S
C785 C791 1.390 . S
C786 H777 0.930 . S
C786 C784 1.384 . S
C786 C787 1.372 . S
C787 C786 1.372 . S
C787 C788 1.400 . S
C787 C792 1.490 . S
C788 H778 0.930 . S
C788 C787 1.400 . S
C788 C791 1.386 . S
H789 C805 0.930 . S
H790 C806 0.931 . S
C791 H779 0.929 . S
C791 C785 1.390 . S
C791 C788 1.386 . S
C792 C787 1.490 . S
C792 C794 1.395 . S
C792 C795 1.403 . S
H793 C799 0.930 . S
C794 H780 0.930 . S
C794 C792 1.395 . S
C794 C797 1.403 1_545 S
C795 C792 1.403 . S
C795 C796 1.524 . S
C795 C799 1.400 1_545 S
C796 H781 0.960 . S
C796 H782 0.960 . S
C796 H783 0.960 . S
C796 C795 1.524 . S
C797 C794 1.403 1_565 S
C797 C798 1.392 . S
C797 C801 1.495 . S
C798 C797 1.392 . S
C798 C799 1.385 . S
C798 C800 1.478 . S
C799 H793 0.930 . S
C799 C795 1.400 1_565 S
C799 C798 1.385 . S
C800 C798 1.478 . S
C800 C802 1.381 . S
C800 C806 1.383 . S
C801 C797 1.495 . S
C801 H807 0.959 1_556 S
C801 H808 0.961 . S
C801 H809 0.960 1_556 S
C802 C800 1.381 . S
C802 C803 1.394 . S
C802 H810 0.930 . S
C803 C802 1.394 . S
C803 C804 1.383 . S
C803 H811 0.929 . S
C804 C803 1.383 . S
C804 C805 1.377 . S
C805 H789 0.930 . S
C805 C804 1.377 . S
C805 C806 1.379 . S
C806 H790 0.931 . S
C806 C800 1.383 . S
C806 C805 1.379 . S
H807 C801 0.959 1_554 S
H808 C801 0.961 . S
H809 C801 0.960 1_554 S
H810 C802 0.930 . S
H811 C803 0.929 . S
H812 C820 0.929 . S
H813 C822 0.930 . S
H814 C824 0.930 . S
H815 C827 0.929 . S
H816 C830 0.930 . S
H817 C832 0.960 . S
H818 C832 0.960 . S
H819 C832 0.960 . S
C820 H812 0.929 . S
C820 C821 1.377 . S
C820 C822 1.384 . S
C821 C820 1.377 . S
C821 C827 1.390 . S
C822 H813 0.930 . S
C822 C820 1.384 . S
C822 C823 1.372 . S
C823 C822 1.372 . S
C823 C824 1.400 . S
C823 C828 1.490 . S
C824 H814 0.930 . S
C824 C823 1.400 . S
C824 C827 1.386 . S
H825 C841 0.930 . S
H826 C842 0.931 . S
C827 H815 0.929 . S
C827 C821 1.390 . S
C827 C824 1.386 . S
C828 C823 1.490 . S
C828 C830 1.395 . S
C828 C831 1.403 . S
H829 C835 0.930 . S
C830 H816 0.930 . S
C830 C828 1.395 . S
C830 C833 1.403 . S
C831 C828 1.403 . S
C831 C832 1.524 . S
C831 C835 1.400 . S
C832 H817 0.960 . S
C832 H818 0.960 . S
C832 H819 0.960 . S
C832 C831 1.524 . S
C833 C830 1.403 . S
C833 C834 1.392 . S
C833 C837 1.495 . S
C834 C833 1.392 . S
C834 C835 1.385 . S
C834 C836 1.478 . S
C835 H829 0.930 . S
C835 C831 1.400 . S
C835 C834 1.385 . S
C836 C834 1.478 . S
C836 C838 1.381 . S
C836 C842 1.383 . S
C837 C833 1.495 . S
C837 H843 0.959 . S
C837 H844 0.961 . S
C837 H845 0.960 . S
C838 C836 1.381 . S
C838 C839 1.394 . S
C838 H846 0.930 . S
C839 C838 1.394 . S
C839 C840 1.383 . S
C839 H847 0.929 . S
C840 C839 1.383 . S
C840 C841 1.377 . S
C841 H825 0.930 . S
C841 C840 1.377 . S
C841 C842 1.379 . S
C842 H826 0.931 . S
C842 C836 1.383 . S
C842 C841 1.379 . S
H843 C837 0.959 . S
H844 C837 0.961 . S
H845 C837 0.960 . S
H846 C838 0.930 . S
H847 C839 0.929 . S
H848 C856 0.929 . S
H849 C858 0.930 . S
H850 C860 0.930 . S
H851 C863 0.929 . S
H852 C866 0.930 . S
H853 C868 0.960 . S
H854 C868 0.960 . S
H855 C868 0.960 1_554 S
C856 H848 0.929 . S
C856 C857 1.377 1_556 S
C856 C858 1.384 . S
C857 C856 1.377 1_554 S
C857 C863 1.390 . S
C858 H849 0.930 . S
C858 C856 1.384 . S
C858 C859 1.372 1_556 S
C859 C858 1.372 1_554 S
C859 C860 1.400 . S
C859 C864 1.490 . S
C860 H850 0.930 . S
C860 C859 1.400 . S
C860 C863 1.386 . S
H861 C877 0.930 . S
H862 C878 0.931 . S
C863 H851 0.929 . S
C863 C857 1.390 . S
C863 C860 1.386 . S
C864 C859 1.490 . S
C864 C866 1.395 1_545 S
C864 C867 1.403 1_454 S
H865 C871 0.929 1_545 S
C866 H852 0.930 . S
C866 C864 1.395 1_565 S
C866 C869 1.403 . S
C867 C864 1.403 1_656 S
C867 C868 1.524 . S
C867 C871 1.368 1_545 S
C868 H853 0.960 . S
C868 H854 0.960 . S
C868 H855 0.960 1_556 S
C868 C867 1.524 . S
C869 C866 1.403 . S
C869 C870 1.392 1_454 S
C869 C873 1.495 . S
C870 C869 1.392 1_656 S
C870 C871 1.419 . S
C870 C872 1.478 . S
C871 H865 0.929 1_565 S
C871 C867 1.368 1_565 S
C871 C870 1.419 . S
C872 C870 1.478 . S
C872 C874 1.381 . S
C872 C878 1.383 1_556 S
C873 C869 1.495 . S
C873 H879 0.959 . S
C873 H880 0.961 . S
C873 H881 0.960 1_554 S
C874 C872 1.381 . S
C874 C875 1.394 . S
C874 H882 0.930 . S
C875 C874 1.394 . S
C875 C876 1.383 . S
C875 H883 0.929 . S
C876 C875 1.383 . S
C876 C877 1.377 1_556 S
C877 H861 0.930 . S
C877 C876 1.377 1_554 S
C877 C878 1.379 . S
C878 H862 0.931 . S
C878 C872 1.383 1_554 S
C878 C877 1.379 . S
H879 C873 0.959 . S
H880 C873 0.961 . S
H881 C873 0.960 1_556 S
H882 C874 0.930 . S
H883 C875 0.929 . S
H884 C892 0.929 . S
H885 C894 0.930 . S
H886 C896 0.930 . S
H887 C899 0.929 1_554 S
H888 C902 0.929 . S
H889 C904 0.960 . S
H890 C904 0.960 . S
H891 C904 0.960 . S
C892 H884 0.929 . S
C892 C893 1.377 . S
C892 C894 1.384 . S
C893 C892 1.377 . S
C893 C899 1.390 . S
C894 H885 0.930 . S
C894 C892 1.384 . S
C894 C895 1.372 . S
C895 C894 1.372 . S
C895 C896 1.400 1_556 S
C895 C900 1.490 . S
C896 H886 0.930 . S
C896 C895 1.400 1_554 S
C896 C899 1.386 1_554 S
H897 C913 0.930 . S
H898 C914 0.931 . S
C899 H887 0.929 1_556 S
C899 C893 1.390 . S
C899 C896 1.386 1_556 S
C900 C895 1.490 . S
C900 C902 1.353 1_546 S
C900 C903 1.403 . S
H901 C907 0.930 . S
C902 H888 0.929 . S
C902 C900 1.353 1_564 S
C902 C905 1.448 . S
C903 C900 1.403 . S
C903 C904 1.524 . S
C903 C907 1.400 1_545 S
C904 H889 0.960 . S
C904 H890 0.960 . S
C904 H891 0.960 . S
C904 C903 1.524 . S
C905 C902 1.448 . S
C905 C906 1.392 . S
C905 C909 1.495 . S
C906 C905 1.392 . S
C906 C907 1.385 1_554 S
C906 C908 1.478 . S
C907 H901 0.930 . S
C907 C903 1.400 1_565 S
C907 C906 1.385 1_556 S
C908 C906 1.478 . S
C908 C910 1.381 1_554 S
C908 C914 1.383 . S
C909 C905 1.495 . S
C909 H915 0.959 . S
C909 H916 0.961 . S
C909 H917 0.960 . S
C910 C908 1.381 1_556 S
C910 C911 1.394 1_556 S
C910 H918 0.930 . S
C911 C910 1.394 1_554 S
C911 C912 1.383 . S
C911 H919 0.929 1_554 S
C912 C911 1.383 . S
C912 C913 1.377 . S
C913 H897 0.930 . S
C913 C912 1.377 . S
C913 C914 1.379 . S
C914 H898 0.931 . S
C914 C908 1.383 . S
C914 C913 1.379 . S
H915 C909 0.959 . S
H916 C909 0.961 . S
H917 C909 0.960 . S
H918 C910 0.930 . S
H919 C911 0.929 1_556 S
H920 C928 0.929 . S
H921 C930 0.930 . S
H922 C932 0.930 . S
H923 C935 0.929 . S
H924 C938 0.930 . S
H925 C940 0.960 . S
H926 C940 0.960 . S
H927 C940 0.960 . S
C928 H920 0.929 . S
C928 C929 1.377 . S
C928 C930 1.384 . S
C929 C928 1.377 . S
C929 C935 1.390 . S
C930 H921 0.930 . S
C930 C928 1.384 . S
C930 C931 1.372 . S
C931 C930 1.372 . S
C931 C932 1.400 . S
C931 C936 1.490 . S
C932 H922 0.930 . S
C932 C931 1.400 . S
C932 C935 1.386 . S
H933 C949 0.930 . S
H934 C950 0.931 . S
C935 H923 0.929 . S
C935 C929 1.390 . S
C935 C932 1.386 . S
C936 C931 1.490 . S
C936 C938 1.395 1_455 S
C936 C939 1.403 . S
H937 C943 0.930 . S
C938 H924 0.930 . S
C938 C936 1.395 1_655 S
C938 C941 1.403 . S
C939 C936 1.403 . S
C939 C940 1.524 . S
C939 C943 1.400 . S
C940 H925 0.960 . S
C940 H926 0.960 . S
C940 H927 0.960 . S
C940 C939 1.524 . S
C941 C938 1.403 . S
C941 C942 1.392 . S
C941 C945 1.495 . S
C942 C941 1.392 . S
C942 C943 1.385 1_655 S
C942 C944 1.478 . S
C943 H937 0.930 . S
C943 C939 1.400 . S
C943 C942 1.385 1_455 S
C944 C942 1.478 . S
C944 C946 1.381 . S
C944 C950 1.383 . S
C945 C941 1.495 . S
C945 H951 0.959 . S
C945 H952 0.961 . S
C945 H953 0.960 . S
C946 C944 1.381 . S
C946 C947 1.394 . S
C946 H954 0.930 . S
C947 C946 1.394 . S
C947 C948 1.383 . S
C947 H955 0.929 . S
C948 C947 1.383 . S
C948 C949 1.377 . S
C949 H933 0.930 . S
C949 C948 1.377 . S
C949 C950 1.379 . S
C950 H934 0.931 . S
C950 C944 1.383 . S
C950 C949 1.379 . S
H951 C945 0.959 . S
H952 C945 0.961 . S
H953 C945 0.960 . S
H954 C946 0.930 . S
H955 C947 0.929 . S
H956 C964 0.929 . S
H957 C966 0.930 . S
H958 C968 0.930 . S
H959 C971 0.929 . S
H960 C974 0.930 . S
H961 C976 0.960 . S
H962 C976 0.960 . S
H963 C976 0.960 . S
C964 H956 0.929 . S
C964 C965 1.377 . S
C964 C966 1.384 . S
C965 C964 1.377 . S
C965 C971 1.390 . S
C966 H957 0.930 . S
C966 C964 1.384 . S
C966 C967 1.372 . S
C967 C966 1.372 . S
C967 C968 1.400 . S
C967 C972 1.490 . S
C968 H958 0.930 . S
C968 C967 1.400 . S
C968 C971 1.386 . S
H969 C985 0.930 . S
H970 C986 0.931 . S
C971 H959 0.929 . S
C971 C965 1.390 . S
C971 C968 1.386 . S
C972 C967 1.490 . S
C972 C974 1.395 . S
C972 C975 1.403 . S
H973 C979 0.930 . S
C974 H960 0.930 . S
C974 C972 1.395 . S
C974 C977 1.403 . S
C975 C972 1.403 . S
C975 C976 1.524 . S
C975 C979 1.400 . S
C976 H961 0.960 . S
C976 H962 0.960 . S
C976 H963 0.960 . S
C976 C975 1.524 . S
C977 C974 1.403 . S
C977 C978 1.392 . S
C977 C981 1.495 . S
C978 C977 1.392 . S
C978 C979 1.385 . S
C978 C980 1.478 . S
C979 H973 0.930 . S
C979 C975 1.400 . S
C979 C978 1.385 . S
C980 C978 1.478 . S
C980 C982 1.381 . S
C980 C986 1.383 . S
C981 C977 1.495 . S
C981 H987 0.959 . S
C981 H988 0.961 . S
C981 H989 0.960 . S
C982 C980 1.381 . S
C982 C983 1.394 . S
C982 H990 0.930 . S
C983 C982 1.394 . S
C983 C984 1.383 . S
C983 H991 0.929 . S
C984 C983 1.383 . S
C984 C985 1.377 . S
C985 H969 0.930 . S
C985 C984 1.377 . S
C985 C986 1.379 . S
C986 H970 0.931 . S
C986 C980 1.383 . S
C986 C985 1.379 . S
H987 C981 0.959 . S
H988 C981 0.961 . S
H989 C981 0.960 . S
H990 C982 0.930 . S
H991 C983 0.929 . S
H992 C1000 0.929 . S
H993 C1002 0.930 . S
H994 C1004 0.930 . S
H995 C1007 0.929 . S
H996 C1010 0.930 . S
H997 C1012 0.960 . S
H998 C1012 0.960 . S
H999 C1012 0.960 . S
C1000 H992 0.929 . S
C1000 C1001 1.377 . S
C1000 C1002 1.384 . S
C1001 C1000 1.377 . S
C1001 C1007 1.390 . S
C1002 H993 0.930 . S
C1002 C1000 1.384 . S
C1002 C1003 1.372 . S
C1003 C1002 1.372 . S
C1003 C1004 1.400 . S
C1003 C1008 1.490 . S
C1004 H994 0.930 . S
C1004 C1003 1.400 . S
C1004 C1007 1.386 . S
H1005 C1021 0.930 . S
H1006 C1022 0.931 . S
C1007 H995 0.929 . S
C1007 C1001 1.390 . S
C1007 C1004 1.386 . S
C1008 C1003 1.490 . S
C1008 C1010 1.395 . S
C1008 C1011 1.403 . S
H1009 C1015 0.930 . S
C1010 H996 0.930 . S
C1010 C1008 1.395 . S
C1010 C1013 1.403 . S
C1011 C1008 1.403 . S
C1011 C1012 1.524 . S
C1011 C1015 1.400 . S
C1012 H997 0.960 . S
C1012 H998 0.960 . S
C1012 H999 0.960 . S
C1012 C1011 1.524 . S
C1013 C1010 1.403 . S
C1013 C1014 1.392 . S
C1013 C1017 1.495 . S
C1014 C1013 1.392 . S
C1014 C1015 1.385 . S
C1014 C1016 1.478 . S
C1015 H1009 0.930 . S
C1015 C1011 1.400 . S
C1015 C1014 1.385 . S
C1016 C1014 1.478 . S
C1016 C1018 1.381 . S
C1016 C1022 1.383 . S
C1017 C1013 1.495 . S
C1017 H1023 0.959 . S
C1017 H1024 0.961 . S
C1017 H1025 0.960 . S
C1018 C1016 1.381 . S
C1018 C1019 1.394 . S
C1018 H1026 0.930 . S
C1019 C1018 1.394 . S
C1019 C1020 1.383 . S
C1019 H1027 0.929 . S
C1020 C1019 1.383 . S
C1020 C1021 1.377 . S
C1021 H1005 0.930 . S
C1021 C1020 1.377 . S
C1021 C1022 1.379 . S
C1022 H1006 0.931 . S
C1022 C1016 1.383 . S
C1022 C1021 1.379 . S
H1023 C1017 0.959 . S
H1024 C1017 0.961 . S
H1025 C1017 0.960 . S
H1026 C1018 0.930 . S
H1027 C1019 0.929 . S
H1028 C1036 0.929 . S
H1029 C1038 0.930 . S
H1030 C1040 0.930 . S
H1031 C1043 0.929 . S
H1032 C1046 0.930 . S
H1033 C1048 0.960 . S
H1034 C1048 0.960 . S
H1035 C1048 0.960 . S
C1036 H1028 0.929 . S
C1036 C1037 1.377 . S
C1036 C1038 1.384 . S
C1037 C1036 1.377 . S
C1037 C1043 1.390 . S
C1038 H1029 0.930 . S
C1038 C1036 1.384 . S
C1038 C1039 1.372 . S
C1039 C1038 1.372 . S
C1039 C1040 1.400 . S
C1039 C1044 1.490 . S
C1040 H1030 0.930 . S
C1040 C1039 1.400 . S
C1040 C1043 1.386 . S
H1041 C1057 0.930 . S
H1042 C1058 0.931 . S
C1043 H1031 0.929 . S
C1043 C1037 1.390 . S
C1043 C1040 1.386 . S
C1044 C1039 1.490 . S
C1044 C1046 1.395 . S
C1044 C1047 1.403 . S
H1045 C1051 0.930 . S
C1046 H1032 0.930 . S
C1046 C1044 1.395 . S
C1046 C1049 1.403 . S
C1047 C1044 1.403 . S
C1047 C1048 1.524 . S
C1047 C1051 1.400 . S
C1048 H1033 0.960 . S
C1048 H1034 0.960 . S
C1048 H1035 0.960 . S
C1048 C1047 1.524 . S
C1049 C1046 1.403 . S
C1049 C1050 1.392 . S
C1049 C1053 1.495 . S
C1050 C1049 1.392 . S
C1050 C1051 1.385 . S
C1050 C1052 1.478 . S
C1051 H1045 0.930 . S
C1051 C1047 1.400 . S
C1051 C1050 1.385 . S
C1052 C1050 1.478 . S
C1052 C1054 1.381 . S
C1052 C1058 1.383 . S
C1053 C1049 1.495 . S
C1053 H1059 0.959 . S
C1053 H1060 0.961 . S
C1053 H1061 0.960 . S
C1054 C1052 1.381 . S
C1054 C1055 1.394 . S
C1054 H1062 0.930 . S
C1055 C1054 1.394 . S
C1055 C1056 1.383 . S
C1055 H1063 0.929 . S
C1056 C1055 1.383 . S
C1056 C1057 1.377 . S
C1057 H1041 0.930 . S
C1057 C1056 1.377 . S
C1057 C1058 1.379 . S
C1058 H1042 0.931 . S
C1058 C1052 1.383 . S
C1058 C1057 1.379 . S
H1059 C1053 0.959 . S
H1060 C1053 0.961 . S
H1061 C1053 0.960 . S
H1062 C1054 0.930 . S
H1063 C1055 0.929 . S
H1064 C1072 0.929 . S
H1065 C1074 0.930 . S
H1066 C1076 0.930 . S
H1067 C1079 0.929 . S
H1068 C1082 0.930 . S
H1069 C1084 0.960 . S
H1070 C1084 0.960 . S
H1071 C1084 0.960 . S
C1072 H1064 0.929 . S
C1072 C1073 1.377 . S
C1072 C1074 1.384 . S
C1073 C1072 1.377 . S
C1073 C1079 1.390 . S
C1074 H1065 0.930 . S
C1074 C1072 1.384 . S
C1074 C1075 1.372 . S
C1075 C1074 1.372 . S
C1075 C1076 1.400 . S
C1075 C1080 1.490 1_554 S
C1076 H1066 0.930 . S
C1076 C1075 1.400 . S
C1076 C1079 1.386 . S
H1077 C1093 0.930 . S
H1078 C1094 0.931 . S
C1079 H1067 0.929 . S
C1079 C1073 1.390 . S
C1079 C1076 1.386 . S
C1080 C1075 1.490 1_556 S
C1080 C1082 1.395 . S
C1080 C1083 1.403 . S
H1081 C1087 0.930 . S
C1082 H1068 0.930 . S
C1082 C1080 1.395 . S
C1082 C1085 1.403 . S
C1083 C1080 1.403 . S
C1083 C1084 1.524 . S
C1083 C1087 1.400 . S
C1084 H1069 0.960 . S
C1084 H1070 0.960 . S
C1084 H1071 0.960 . S
C1084 C1083 1.524 . S
C1085 C1082 1.403 . S
C1085 C1086 1.392 . S
C1085 C1089 1.495 . S
C1086 C1085 1.392 . S
C1086 C1087 1.385 . S
C1086 C1088 1.478 . S
C1087 H1081 0.930 . S
C1087 C1083 1.400 . S
C1087 C1086 1.385 . S
C1088 C1086 1.478 . S
C1088 C1090 1.381 . S
C1088 C1094 1.383 . S
C1089 C1085 1.495 . S
C1089 H1095 0.959 . S
C1089 H1096 0.961 . S
C1089 H1097 0.960 . S
C1090 C1088 1.381 . S
C1090 C1091 1.394 . S
C1090 H1098 0.930 . S
C1091 C1090 1.394 . S
C1091 C1092 1.383 . S
C1091 H1099 0.929 . S
C1092 C1091 1.383 . S
C1092 C1093 1.377 . S
C1093 H1077 0.930 . S
C1093 C1092 1.377 . S
C1093 C1094 1.379 . S
C1094 H1078 0.931 . S
C1094 C1088 1.383 . S
C1094 C1093 1.379 . S
H1095 C1089 0.959 . S
H1096 C1089 0.961 . S
H1097 C1089 0.960 . S
H1098 C1090 0.930 . S
H1099 C1091 0.929 . S
H1100 C1108 0.929 . S
H1101 C1110 0.930 . S
H1102 C1112 0.930 . S
H1103 C1115 0.929 . S
H1104 C1118 0.930 . S
H1105 C1120 0.960 . S
H1106 C1120 0.960 . S
H1107 C1120 0.960 . S
C1108 H1100 0.929 . S
C1108 C1109 1.377 . S
C1108 C1110 1.384 . S
C1109 C1108 1.377 . S
C1109 C1115 1.390 . S
C1110 H1101 0.930 . S
C1110 C1108 1.384 . S
C1110 C1111 1.372 . S
C1111 C1110 1.372 . S
C1111 C1112 1.400 . S
C1111 C1116 1.490 . S
C1112 H1102 0.930 . S
C1112 C1111 1.400 . S
C1112 C1115 1.386 . S
H1113 C1129 0.930 . S
H1114 C1130 0.931 . S
C1115 H1103 0.929 . S
C1115 C1109 1.390 . S
C1115 C1112 1.386 . S
C1116 C1111 1.490 . S
C1116 C1118 1.395 . S
C1116 C1119 1.403 . S
H1117 C1123 0.930 . S
C1118 H1104 0.930 . S
C1118 C1116 1.395 . S
C1118 C1121 1.403 . S
C1119 C1116 1.403 . S
C1119 C1120 1.524 . S
C1119 C1123 1.400 . S
C1120 H1105 0.960 . S
C1120 H1106 0.960 . S
C1120 H1107 0.960 . S
C1120 C1119 1.524 . S
C1121 C1118 1.403 . S
C1121 C1122 1.392 . S
C1121 C1125 1.495 . S
C1122 C1121 1.392 . S
C1122 C1123 1.385 . S
C1122 C1124 1.478 1_556 S
C1123 H1117 0.930 . S
C1123 C1119 1.400 . S
C1123 C1122 1.385 . S
C1124 C1122 1.478 1_554 S
C1124 C1126 1.381 . S
C1124 C1130 1.383 . S
C1125 C1121 1.495 . S
C1125 H1131 0.959 . S
C1125 H1132 0.961 1_556 S
C1125 H1133 0.960 . S
C1126 C1124 1.381 . S
C1126 C1127 1.394 . S
C1126 H1134 0.930 . S
C1127 C1126 1.394 . S
C1127 C1128 1.383 . S
C1127 H1135 0.929 . S
C1128 C1127 1.383 . S
C1128 C1129 1.377 . S
C1129 H1113 0.930 . S
C1129 C1128 1.377 . S
C1129 C1130 1.379 . S
C1130 H1114 0.931 . S
C1130 C1124 1.383 . S
C1130 C1129 1.379 . S
H1131 C1125 0.959 . S
H1132 C1125 0.961 1_554 S
H1133 C1125 0.960 . S
H1134 C1126 0.930 . S
H1135 C1127 0.929 . S
H1136 C1144 0.929 . S
H1137 C1146 0.930 . S
H1138 C1148 0.930 . S
H1139 C1151 0.929 . S
H1140 C1154 0.930 . S
H1141 C1156 0.960 . S
H1142 C1156 0.960 . S
H1143 C1156 0.960 . S
C1144 H1136 0.929 . S
C1144 C1145 1.377 . S
C1144 C1146 1.384 . S
C1145 C1144 1.377 . S
C1145 C1151 1.390 . S
C1146 H1137 0.930 . S
C1146 C1144 1.384 . S
C1146 C1147 1.372 . S
C1147 C1146 1.372 . S
C1147 C1148 1.400 . S
C1147 C1152 1.490 . S
C1148 H1138 0.930 . S
C1148 C1147 1.400 . S
C1148 C1151 1.386 . S
H1149 C1165 0.930 . S
H1150 C1166 0.931 . S
C1151 H1139 0.929 . S
C1151 C1145 1.390 . S
C1151 C1148 1.386 . S
C1152 C1147 1.490 . S
C1152 C1154 1.395 . S
C1152 C1155 1.403 . S
H1153 C1159 0.930 . S
C1154 H1140 0.930 . S
C1154 C1152 1.395 . S
C1154 C1157 1.403 . S
C1155 C1152 1.403 . S
C1155 C1156 1.524 . S
C1155 C1159 1.400 . S
C1156 H1141 0.960 . S
C1156 H1142 0.960 . S
C1156 H1143 0.960 . S
C1156 C1155 1.524 . S
C1157 C1154 1.403 . S
C1157 C1158 1.392 . S
C1157 C1161 1.495 . S
C1158 C1157 1.392 . S
C1158 C1159 1.385 . S
C1158 C1160 1.478 . S
C1159 H1153 0.930 . S
C1159 C1155 1.400 . S
C1159 C1158 1.385 . S
C1160 C1158 1.478 . S
C1160 C1162 1.381 . S
C1160 C1166 1.383 . S
C1161 C1157 1.495 . S
C1161 H1167 0.959 . S
C1161 H1168 0.961 . S
C1161 H1169 0.960 . S
C1162 C1160 1.381 . S
C1162 C1163 1.394 . S
C1162 H1170 0.930 . S
C1163 C1162 1.394 . S
C1163 C1164 1.383 . S
C1163 H1171 0.929 . S
C1164 C1163 1.383 . S
C1164 C1165 1.377 . S
C1165 H1149 0.930 . S
C1165 C1164 1.377 . S
C1165 C1166 1.379 . S
C1166 H1150 0.931 . S
C1166 C1160 1.383 . S
C1166 C1165 1.379 . S
H1167 C1161 0.959 . S
H1168 C1161 0.961 . S
H1169 C1161 0.960 . S
H1170 C1162 0.930 . S
H1171 C1163 0.929 . S
H1172 C1180 0.929 . S
H1173 C1182 0.930 . S
H1174 C1184 0.930 . S
H1175 C1187 0.929 . S
H1176 C1190 0.930 . S
H1177 C1192 0.960 . S
H1178 C1192 0.960 . S
H1179 C1192 0.960 . S
C1180 H1172 0.929 . S
C1180 C1181 1.377 . S
C1180 C1182 1.384 . S
C1181 C1180 1.377 . S
C1181 C1187 1.390 . S
C1182 H1173 0.930 . S
C1182 C1180 1.384 . S
C1182 C1183 1.372 . S
C1183 C1182 1.372 . S
C1183 C1184 1.400 . S
C1183 C1188 1.490 . S
C1184 H1174 0.930 . S
C1184 C1183 1.400 . S
C1184 C1187 1.386 . S
H1185 C1201 0.930 . S
H1186 C1202 0.931 . S
C1187 H1175 0.929 . S
C1187 C1181 1.390 . S
C1187 C1184 1.386 . S
C1188 C1183 1.490 . S
C1188 C1190 1.395 . S
C1188 C1191 1.403 . S
H1189 C1195 0.930 . S
C1190 H1176 0.930 . S
C1190 C1188 1.395 . S
C1190 C1193 1.403 . S
C1191 C1188 1.403 . S
C1191 C1192 1.524 . S
C1191 C1195 1.400 . S
C1192 H1177 0.960 . S
C1192 H1178 0.960 . S
C1192 H1179 0.960 . S
C1192 C1191 1.524 . S
C1193 C1190 1.403 . S
C1193 C1194 1.392 . S
C1193 C1197 1.495 . S
C1194 C1193 1.392 . S
C1194 C1195 1.385 . S
C1194 C1196 1.478 . S
C1195 H1189 0.930 . S
C1195 C1191 1.400 . S
C1195 C1194 1.385 . S
C1196 C1194 1.478 . S
C1196 C1198 1.381 . S
C1196 C1202 1.383 . S
C1197 C1193 1.495 . S
C1197 H1203 0.959 . S
C1197 H1204 0.961 . S
C1197 H1205 0.960 . S
C1198 C1196 1.381 . S
C1198 C1199 1.394 . S
C1198 H1206 0.930 . S
C1199 C1198 1.394 . S
C1199 C1200 1.383 . S
C1199 H1207 0.929 . S
C1200 C1199 1.383 . S
C1200 C1201 1.377 . S
C1201 H1185 0.930 . S
C1201 C1200 1.377 . S
C1201 C1202 1.379 . S
C1202 H1186 0.931 . S
C1202 C1196 1.383 . S
C1202 C1201 1.379 . S
H1203 C1197 0.959 . S
H1204 C1197 0.961 . S
H1205 C1197 0.960 . S
H1206 C1198 0.930 . S
H1207 C1199 0.929 . S
H1208 C1216 0.929 . S
H1209 C1218 0.930 . S
H1210 C1220 0.930 . S
H1211 C1223 0.929 . S
H1212 C1226 0.930 . S
H1213 C1228 0.960 . S
H1214 C1228 0.960 . S
H1215 C1228 0.960 . S
C1216 H1208 0.929 . S
C1216 C1217 1.377 . S
C1216 C1218 1.384 . S
C1217 C1216 1.377 . S
C1217 C1223 1.390 . S
C1218 H1209 0.930 . S
C1218 C1216 1.384 . S
C1218 C1219 1.372 . S
C1219 C1218 1.372 . S
C1219 C1220 1.400 . S
C1219 C1224 1.490 1_556 S
C1220 H1210 0.930 . S
C1220 C1219 1.400 . S
C1220 C1223 1.386 . S
H1221 C1237 0.930 . S
H1222 C1238 0.931 . S
C1223 H1211 0.929 . S
C1223 C1217 1.390 . S
C1223 C1220 1.386 . S
C1224 C1219 1.490 1_554 S
C1224 C1226 1.395 . S
C1224 C1227 1.403 . S
H1225 C1231 0.930 . S
C1226 H1212 0.930 . S
C1226 C1224 1.395 . S
C1226 C1229 1.403 . S
C1227 C1224 1.403 . S
C1227 C1228 1.524 . S
C1227 C1231 1.400 . S
C1228 H1213 0.960 . S
C1228 H1214 0.960 . S
C1228 H1215 0.960 . S
C1228 C1227 1.524 . S
C1229 C1226 1.403 . S
C1229 C1230 1.392 . S
C1229 C1233 1.495 . S
C1230 C1229 1.392 . S
C1230 C1231 1.385 . S
C1230 C1232 1.478 . S
C1231 H1225 0.930 . S
C1231 C1227 1.400 . S
C1231 C1230 1.385 . S
C1232 C1230 1.478 . S
C1232 C1234 1.381 . S
C1232 C1238 1.383 . S
C1233 C1229 1.495 . S
C1233 H1239 0.959 . S
C1233 H1240 0.961 . S
C1233 H1241 0.960 . S
C1234 C1232 1.381 . S
C1234 C1235 1.394 . S
C1234 H1242 0.930 . S
C1235 C1234 1.394 . S
C1235 C1236 1.383 . S
C1235 H1243 0.929 . S
C1236 C1235 1.383 . S
C1236 C1237 1.377 . S
C1237 H1221 0.930 . S
C1237 C1236 1.377 . S
C1237 C1238 1.379 . S
C1238 H1222 0.931 . S
C1238 C1232 1.383 . S
C1238 C1237 1.379 . S
H1239 C1233 0.959 . S
H1240 C1233 0.961 . S
H1241 C1233 0.960 . S
H1242 C1234 0.930 . S
H1243 C1235 0.929 . S
H1244 C1252 0.929 . S
H1245 C1254 0.930 . S
H1246 C1256 0.930 . S
H1247 C1259 0.929 . S
H1248 C1262 0.930 . S
H1249 C1264 0.960 . S
H1250 C1264 0.960 . S
H1251 C1264 0.960 . S
C1252 H1244 0.929 . S
C1252 C1253 1.377 . S
C1252 C1254 1.384 . S
C1253 C1252 1.377 . S
C1253 C1259 1.390 . S
C1254 H1245 0.930 . S
C1254 C1252 1.384 . S
C1254 C1255 1.372 . S
C1255 C1254 1.372 . S
C1255 C1256 1.400 . S
C1255 C1260 1.490 . S
C1256 H1246 0.930 . S
C1256 C1255 1.400 . S
C1256 C1259 1.386 . S
H1257 C1273 0.930 . S
H1258 C1274 0.931 . S
C1259 H1247 0.929 . S
C1259 C1253 1.390 . S
C1259 C1256 1.386 . S
C1260 C1255 1.490 . S
C1260 C1262 1.395 . S
C1260 C1263 1.403 . S
H1261 C1267 0.930 . S
C1262 H1248 0.930 . S
C1262 C1260 1.395 . S
C1262 C1265 1.403 . S
C1263 C1260 1.403 . S
C1263 C1264 1.524 . S
C1263 C1267 1.400 . S
C1264 H1249 0.960 . S
C1264 H1250 0.960 . S
C1264 H1251 0.960 . S
C1264 C1263 1.524 . S
C1265 C1262 1.403 . S
C1265 C1266 1.392 . S
C1265 C1269 1.495 . S
C1266 C1265 1.392 . S
C1266 C1267 1.385 . S
C1266 C1268 1.478 1_554 S
C1267 H1261 0.930 . S
C1267 C1263 1.400 . S
C1267 C1266 1.385 . S
C1268 C1266 1.478 1_556 S
C1268 C1270 1.381 . S
C1268 C1274 1.383 . S
C1269 C1265 1.495 . S
C1269 H1275 0.959 . S
C1269 H1276 0.961 . S
C1269 H1277 0.960 . S
C1270 C1268 1.381 . S
C1270 C1271 1.394 . S
C1270 H1278 0.930 . S
C1271 C1270 1.394 . S
C1271 C1272 1.383 . S
C1271 H1279 0.929 . S
C1272 C1271 1.383 . S
C1272 C1273 1.377 . S
C1273 H1257 0.930 . S
C1273 C1272 1.377 . S
C1273 C1274 1.379 . S
C1274 H1258 0.931 . S
C1274 C1268 1.383 . S
C1274 C1273 1.379 . S
H1275 C1269 0.959 . S
H1276 C1269 0.961 . S
H1277 C1269 0.960 . S
H1278 C1270 0.930 . S
H1279 C1271 0.929 . S
C281 C198 1.597 . S
C300 C28 1.595 . S
C317 C40 1.577 . S
C336 C142 1.578 1_455 S
C353 C244 1.599 . S
C372 C96 1.587 . S
C389 C210 1.594 1_455 S
C408 C108 1.567 . S
C425 C164 1.582 . S
C444 C62 1.607 . S
C461 C176 1.580 . S
C480 C6 1.607 1_655 S
C497 C232 1.573 . S
C516 C130 1.579 . S
C533 C266 1.577 . S
C552 C74 1.597 1_655 S
C569 C85 1.751 . S
C588 C17 1.742 . S
C605 C119 1.748 . S
C624 C51 1.755 . S
C641 C153 1.749 . S
C660 C221 1.730 . S
C677 C187 1.746 . S
C696 C255 1.751 . S
C713 C35 1.617 . S
C732 C3 1.601 . S
C749 C71 1.617 . S
C768 C103 1.602 . S
C785 C171 1.628 . S
C804 C139 1.604 . S
C821 C241 1.618 . S
C840 C207 1.648 . S
C857 C1 1.786 . S
C876 C137 1.805 . S
C893 C173 1.777 . S
C912 C37 1.787 . S
C929 C69 1.776 . S
C948 C205 1.777 . S
C965 C105 1.776 . S
C984 C239 1.757 . S
C1001 C22 1.212 . S
C1020 C15 1.204 . S
C1037 C56 1.223 . S
C1056 C49 1.169 . S
C1073 C83 1.237 . S
C1092 C90 1.269 . S
C1109 C117 1.215 . S
C1128 C124 1.178 . S
C1145 C158 1.234 . S
C1164 C151 1.248 . S
C1181 C192 1.237 . S
C1200 C185 1.267 . S
C1217 C219 1.236 . S
C1236 C226 1.269 . S
C1253 C260 1.229 . S
C1272 C253 1.276 . S
