# Generated by pormake.
# Topology ftb, (5)-cn, num edge types: 1
# Building blocks:
#     Node 0, Type 0, BuildingBlock: XOMCOT_clean_sbu_0, # of connection points: 5
#     Node 1, Type 0, BuildingBlock: XOMCOT_clean_sbu_0, # of connection points: 5
#     Node 2, Type 0, BuildingBlock: XOMCOT_clean_sbu_0, # of connection points: 5
#     Node 3, Type 0, BuildingBlock: XOMCOT_clean_sbu_0, # of connection points: 5
#     Node 4, Type 0, BuildingBlock: XOMCOT_clean_sbu_0, # of connection points: 5
#     Node 5, Type 0, BuildingBlock: XOMCOT_clean_sbu_0, # of connection points: 5
#     Node 6, Type 0, BuildingBlock: XOMCOT_clean_sbu_0, # of connection points: 5
#     Node 7, Type 0, BuildingBlock: XOMCOT_clean_sbu_0, # of connection points: 5
#     Edge 8, Type (0, 0), BuildingBlock: XIVTED_clean_linker_0, # of connection points: 2
#     Edge 9, Type (0, 0), BuildingBlock: XIVTED_clean_linker_0, # of connection points: 2
#     Edge 10, Type (0, 0), BuildingBlock: XIVTED_clean_linker_0, # of connection points: 2
#     Edge 11, Type (0, 0), BuildingBlock: XIVTED_clean_linker_0, # of connection points: 2
#     Edge 12, Type (0, 0), BuildingBlock: XIVTED_clean_linker_0, # of connection points: 2
#     Edge 13, Type (0, 0), BuildingBlock: XIVTED_clean_linker_0, # of connection points: 2
#     Edge 14, Type (0, 0), BuildingBlock: XIVTED_clean_linker_0, # of connection points: 2
#     Edge 15, Type (0, 0), BuildingBlock: XIVTED_clean_linker_0, # of connection points: 2
#     Edge 16, Type (0, 0), BuildingBlock: XIVTED_clean_linker_0, # of connection points: 2
#     Edge 17, Type (0, 0), BuildingBlock: XIVTED_clean_linker_0, # of connection points: 2
#     Edge 18, Type (0, 0), BuildingBlock: XIVTED_clean_linker_0, # of connection points: 2
#     Edge 19, Type (0, 0), BuildingBlock: XIVTED_clean_linker_0, # of connection points: 2
#     Edge 20, Type (0, 0), BuildingBlock: XIVTED_clean_linker_0, # of connection points: 2
#     Edge 21, Type (0, 0), BuildingBlock: XIVTED_clean_linker_0, # of connection points: 2
#     Edge 22, Type (0, 0), BuildingBlock: XIVTED_clean_linker_0, # of connection points: 2
#     Edge 23, Type (0, 0), BuildingBlock: XIVTED_clean_linker_0, # of connection points: 2
#     Edge 24, Type (0, 0), BuildingBlock: XIVTED_clean_linker_0, # of connection points: 2
#     Edge 25, Type (0, 0), BuildingBlock: XIVTED_clean_linker_0, # of connection points: 2
#     Edge 26, Type (0, 0), BuildingBlock: XIVTED_clean_linker_0, # of connection points: 2
#     Edge 27, Type (0, 0), BuildingBlock: XIVTED_clean_linker_0, # of connection points: 2
# Relax obj value: 0.116
# Max RMSD: 0.196
# Mean RMSD: 0.196
data_MOF--net-ftb--node1-XOMCOT_clean_sbu_0--edge1-XIVTED_clean_linker_0
_symmetry_space_group_name_H-M    P1
_symmetry_Int_Tables_number       1
_symmetry_cell_setting            triclinic
loop_
_symmetry_equiv_pos_as_xyz
'x, y, z'
_cell_length_a     55.171202
_cell_length_b     20.986022
_cell_length_c     28.661001
_cell_angle_alpha  90.134128
_cell_angle_beta   92.141074
_cell_angle_gamma 89.586707
loop_
_atom_site_label
_atom_site_type_symbol
_atom_site_fract_x
_atom_site_fract_y
_atom_site_fract_z
_atom_type_partial_charge
Co0 Co 0.32632 0.00063 0.0358 0.0
C1 C 0.32825 0.93471 0.94412 0.0
C2 C 0.30384 0.01429 0.94139 0.0
C3 C 0.30143 0.98133 0.89982 0.0
N4 N 0.32108 0.98588 0.96898 0.0
N5 N 0.31667 0.93087 0.90183 0.0
H6 H 0.34041 0.89836 0.95757 0.0
H7 H 0.29254 0.05369 0.95195 0.0
C8 C 0.32868 0.13269 0.99384 0.0
O9 O 0.3407 0.11112 0.95831 0.0
N10 N 0.3309 0.01448 0.10213 0.0
C11 C 0.34433 0.9786 0.13232 0.0
C12 C 0.34491 0.00818 0.17535 0.0
C13 C 0.32336 0.06496 0.12702 0.0
N14 N 0.33182 0.06272 0.1719 0.0
C15 C 0.37315 0.9444 1.02406 0.0
C16 C 0.39999 0.05241 0.04369 0.0
C17 C 0.41215 -0.00501 0.03503 0.0
C18 C 0.3984 0.94061 1.02492 0.0
C19 C 0.37463 0.05429 0.04184 0.0
N20 N 0.36145 0.00102 0.03086 0.0
H21 H 0.36314 0.90074 1.02043 0.0
H22 H 0.3658 0.09803 0.05163 0.0
H23 H 0.35374 0.93515 0.12329 0.0
H24 H 0.31215 0.10294 0.11238 0.0
O25 O 0.3212 0.91041 0.04659 0.0
O26 O 0.29253 0.98502 0.04344 0.0
O27 O 0.32311 0.09561 0.02691 0.0
C28 C 0.29826 0.92509 0.04769 0.0
H29 H 0.28821 0.99105 0.87184 0.0
H30 H 0.35504 0.99197 0.20618 0.0
H31 H 0.40997 0.09525 0.05267 0.0
H32 H 0.40707 0.89473 1.01999 0.0
Co33 Co 0.67774 0.99131 0.06 0.0
C34 C 0.67927 0.91414 0.14643 0.0
C35 C 0.69916 0.00127 0.15477 0.0
C36 C 0.70131 0.96752 0.19584 0.0
N37 N 0.68526 0.96792 0.124 0.0
N38 N 0.68882 0.91267 0.19064 0.0
H39 H 0.6682 0.87703 0.13056 0.0
H40 H 0.70758 0.04638 0.14751 0.0
C41 C 0.66181 0.12927 0.06737 0.0
O42 O 0.64399 0.12175 0.03617 0.0
N43 N 0.67085 0.01502 0.99502 0.0
C44 C 0.6601 0.97906 0.9612 0.0
C45 C 0.65976 0.01193 0.91982 0.0
C46 C 0.67803 0.06813 0.97277 0.0
N47 N 0.67083 0.06829 0.92709 0.0
C48 C 0.63243 0.92439 0.04882 0.0
C49 C 0.60567 0.00775 0.10136 0.0
C50 C 0.5934 0.96123 0.07456 0.0
C51 C 0.60729 0.91722 0.04983 0.0
C52 C 0.63082 0.01273 0.09953 0.0
N53 N 0.64356 0.97517 0.07 0.0
H54 H 0.64289 0.8894 0.03052 0.0
H55 H 0.63985 0.04782 0.12137 0.0
H56 H 0.65376 0.93108 0.96512 0.0
H57 H 0.68817 0.10608 0.98976 0.0
O58 O 0.68837 0.90788 0.03959 0.0
O59 O 0.71174 0.99307 0.0486 0.0
O60 O 0.6752 0.08236 0.08042 0.0
C61 C 0.70982 0.93329 0.03757 0.0
H62 H 0.71187 0.98164 0.22666 0.0
H63 H 0.65246 -0.00534 0.88662 0.0
H64 H 0.59597 0.04174 0.12229 0.0
H65 H 0.59884 0.87801 0.03095 0.0
Co66 Co 0.32486 0.48312 0.54614 0.0
C67 C 0.32477 0.40054 0.46152 0.0
C68 C 0.3012 0.48202 0.45355 0.0
C69 C 0.29983 0.44711 0.41296 0.0
N70 N 0.31693 0.45315 0.48379 0.0
N71 N 0.31467 0.39594 0.41786 0.0
H72 H 0.33767 0.36677 0.47679 0.0
H73 H 0.29118 0.52518 0.46078 0.0
C74 C 0.3365 0.62309 0.53255 0.0
O75 O 0.35356 0.62337 0.56579 0.0
N76 N 0.33212 0.51406 0.60909 0.0
C77 C 0.34677 0.48718 0.64234 0.0
C78 C 0.34618 0.52358 0.68221 0.0
C79 C 0.32215 0.56532 0.62998 0.0
N80 N 0.33081 0.57298 0.67439 0.0
C81 C 0.36945 0.41188 0.55509 0.0
C82 C 0.39802 0.49766 0.50964 0.0
C83 C 0.40906 0.44609 0.53298 0.0
C84 C 0.39446 0.40127 0.55417 0.0
C85 C 0.37289 0.50561 0.5105 0.0
N86 N 0.35915 0.4659 0.5363 0.0
H87 H 0.35851 0.37776 0.57276 0.0
H88 H 0.36481 0.54411 0.49058 0.0
H89 H 0.35702 0.44371 0.63878 0.0
H90 H 0.30887 0.59644 0.61287 0.0
O91 O 0.31504 0.40199 0.57154 0.0
O92 O 0.29094 0.48557 0.55861 0.0
O93 O 0.32592 0.57159 0.52028 0.0
C94 C 0.29338 0.42709 0.57263 0.0
H95 H 0.28835 0.45797 0.38253 0.0
H96 H 0.35663 0.51473 0.71427 0.0
H97 H 0.40877 0.53192 0.49136 0.0
H98 H 0.40241 0.36007 0.57175 0.0
Co99 Co 0.67416 0.49151 0.55826 0.0
C100 C 0.67558 0.41285 0.64405 0.0
C101 C 0.69473 0.50088 0.65367 0.0
C102 C 0.69696 0.46643 0.6944 0.0
N103 N 0.68125 0.46741 0.62229 0.0
N104 N 0.68497 0.41096 0.68838 0.0
H105 H 0.66539 0.37476 0.62728 0.0
H106 H 0.70277 0.54666 0.64713 0.0
C107 C 0.66016 0.63088 0.56231 0.0
O108 O 0.64319 0.62442 0.52926 0.0
N109 N 0.66768 0.51587 0.49344 0.0
C110 C 0.65383 0.48541 0.46079 0.0
C111 C 0.65502 0.51724 0.41909 0.0
C112 C 0.6778 0.56462 0.47043 0.0
N113 N 0.66999 0.56731 0.42515 0.0
C114 C 0.63056 0.4174 0.54994 0.0
C115 C 0.60063 0.50361 0.59293 0.0
C116 C 0.59019 0.44948 0.57171 0.0
C117 C 0.60575 0.40487 0.55154 0.0
C118 C 0.62556 0.51363 0.59118 0.0
N119 N 0.63994 0.47328 0.5668 0.0
H120 H 0.64213 0.38264 0.5339 0.0
H121 H 0.63299 0.55423 0.60951 0.0
H122 H 0.64375 0.44246 0.46596 0.0
H123 H 0.6906 0.59748 0.48666 0.0
O124 O 0.68559 0.409 0.53736 0.0
O125 O 0.70829 0.49503 0.54816 0.0
O126 O 0.6713 0.58229 0.57927 0.0
C127 C 0.70689 0.43543 0.53645 0.0
H128 H 0.70667 0.48136 0.72601 0.0
H129 H 0.64523 0.50484 0.38696 0.0
H130 H 0.5897 0.53922 0.60983 0.0
H131 H 0.59889 0.36078 0.53669 0.0
Co132 Co 0.82402 0.9873 0.51277 0.0
C133 C 0.82237 0.90897 0.42675 0.0
C134 C 0.80167 -0.00446 0.41864 0.0
C135 C 0.79928 0.96091 0.3779 0.0
N136 N 0.8162 0.96303 0.44906 0.0
N137 N 0.81227 0.90644 0.38302 0.0
H138 H 0.83343 0.87163 0.44272 0.0
H139 H 0.79306 0.04077 0.42586 0.0
C140 C 0.83729 0.12648 0.50818 0.0
O141 O 0.8545 0.12017 0.54082 0.0
N142 N 0.83122 0.01178 0.57735 0.0
C143 C 0.8456 0.98131 0.60935 0.0
C144 C 0.84445 0.01257 0.65138 0.0
C145 C 0.82089 0.06004 0.60109 0.0
N146 N 0.82899 0.06227 0.6462 0.0
C147 C 0.86812 0.91343 0.51928 0.0
C148 C 0.89672 -0.00184 0.473 0.0
C149 C 0.90778 0.94476 0.49437 0.0
C150 C 0.89294 0.90093 0.51637 0.0
C151 C 0.87184 0.00855 0.47657 0.0
N152 N 0.85815 0.96889 0.50243 0.0
H153 H 0.85703 0.87904 0.53635 0.0
H154 H 0.86385 0.04877 0.4584 0.0
H155 H 0.85593 0.93852 0.60365 0.0
H156 H 0.80762 0.09264 0.58559 0.0
O157 O 0.81326 0.90489 0.53407 0.0
O158 O 0.79007 0.99107 0.52456 0.0
O159 O 0.82617 0.0779 0.4917 0.0
C160 C 0.79187 0.93147 0.53602 0.0
H161 H 0.78881 0.97501 0.3469 0.0
H162 H 0.8545 -0.00014 0.68319 0.0
H163 H 0.9072 0.03288 0.45469 0.0
H164 H 0.90041 0.85752 0.53158 0.0
Co165 Co 0.17392 -0.00271 0.52387 0.0
C166 C 0.17232 0.92335 0.61299 0.0
C167 C 0.19722 0.00108 0.61751 0.0
C168 C 0.19909 0.96738 0.65863 0.0
N169 N 0.18006 0.97436 0.5891 0.0
N170 N 0.1835 0.91829 0.65562 0.0
H171 H 0.15944 0.88919 0.59938 0.0
H172 H 0.20827 0.04116 0.60825 0.0
C173 C 0.16473 0.11598 0.57891 0.0
O174 O 0.15423 0.08264 0.61109 0.0
N175 N 0.16858 0.01923 0.45898 0.0
C176 C 0.15701 0.98325 0.42639 0.0
C177 C 0.15683 0.01505 0.38449 0.0
C178 C 0.17544 0.07225 0.43663 0.0
N179 N 0.16844 0.07105 0.39084 0.0
C180 C 0.1302 0.92343 0.52804 0.0
C181 C 0.09843 0.0251 0.51713 0.0
C182 C 0.08904 0.96346 0.51918 0.0
C183 C 0.10522 0.91216 0.52513 0.0
C184 C 0.12342 0.0343 0.52078 0.0
N185 N 0.13907 0.98404 0.52742 0.0
H186 H 0.14242 0.88304 0.52865 0.0
H187 H 0.13 0.08184 0.51558 0.0
H188 H 0.14909 0.93724 0.43275 0.0
H189 H 0.1855 0.11046 0.45354 0.0
O190 O 0.18456 0.91286 0.50564 0.0
O191 O 0.20825 -0.00284 0.51607 0.0
O192 O 0.17145 0.08971 0.54131 0.0
C193 C 0.20629 0.9371 0.50597 0.0
H194 H 0.21181 0.97648 0.68751 0.0
H195 H 0.14831 -0.00147 0.35212 0.0
H196 H 0.08655 0.06598 0.51172 0.0
H197 H 0.09869 0.8636 0.52531 0.0
Co198 Co 0.82185 0.48021 1.01618 0.0
C199 C 0.81771 0.40094 0.93041 0.0
C200 C 0.79654 0.48702 0.92483 0.0
C201 C 0.79348 0.45326 0.88385 0.0
N202 N 0.81181 0.45439 0.95379 0.0
N203 N 0.80682 0.39915 0.8873 0.0
H204 H 0.82985 0.36456 0.94454 0.0
H205 H 0.78802 0.53201 0.93314 0.0
C206 C 0.83752 0.61719 1.00623 0.0
O207 O 0.85543 0.61069 0.0374 0.0
N208 N 0.83132 0.50661 0.07941 0.0
C209 C 0.84583 0.47534 0.11073 0.0
C210 C 0.84697 0.50928 0.15176 0.0
C211 C 0.82305 0.55799 0.10278 0.0
N212 N 0.83281 0.56163 0.14673 0.0
C213 C 0.86395 0.39925 1.02038 0.0
C214 C 0.89347 0.47556 0.969 0.0
C215 C 0.90343 0.42074 0.99033 0.0
C216 C 0.8881 0.38138 1.01512 0.0
C217 C 0.86919 0.49168 0.97521 0.0
N218 N 0.85514 0.45583 1.00319 0.0
H219 H 0.85248 0.36791 0.0394 0.0
H220 H 0.86192 0.53296 0.95725 0.0
H221 H 0.85462 0.43013 0.10537 0.0
H222 H 0.81052 0.59263 0.08746 0.0
O223 O 0.8102 0.40072 0.04059 0.0
O224 O 0.78838 0.48936 0.03137 0.0
O225 O 0.82526 0.56912 0.99225 0.0
C226 C 0.78947 0.43015 0.04421 0.0
H227 H 0.78196 0.46712 0.85417 0.0
H228 H 0.85711 0.49551 0.18322 0.0
H229 H 0.90447 0.50682 0.94864 0.0
H230 H 0.89473 0.33726 0.03062 0.0
Co231 Co 0.16389 0.49862 1.02425 0.0
C232 C 0.17099 0.41784 0.10957 0.0
C233 C 0.1634 0.51518 0.12677 0.0
C234 C 0.16651 0.48139 0.1675 0.0
N235 N 0.16597 0.47545 0.09015 0.0
N236 N 0.17125 0.42013 0.1568 0.0
H237 H 0.17461 0.37522 0.08967 0.0
H238 H 0.15952 0.56553 0.12482 0.0
C239 C 0.15592 0.64217 0.04696 0.0
O240 O 0.13885 0.68232 0.05893 0.0
N241 N 0.16202 0.5213 0.95866 0.0
C242 C 0.15239 0.48507 0.92392 0.0
C243 C 0.15393 0.51735 0.88246 0.0
C244 C 0.16992 0.5743 0.93766 0.0
N245 N 0.16492 0.5737 0.89104 0.0
C246 C 0.12498 0.40705 0.02986 0.0
C247 C 0.08925 0.48853 0.99428 0.0
C248 C 0.08291 0.42652 1.00644 0.0
C249 C 0.10103 0.38545 1.02474 0.0
C250 C 0.11312 0.50836 1.00056 0.0
N251 N 0.13067 0.4682 1.01858 0.0
H252 H 0.13894 0.37435 0.04216 0.0
H253 H 0.11755 0.55589 0.9895 0.0
H254 H 0.14444 0.43865 0.92856 0.0
H255 H 0.1796 0.61167 0.9558 0.0
O256 O 0.18086 0.42212 1.00744 0.0
O257 O 0.19865 0.51356 0.0264 0.0
O258 O 0.15018 0.58375 0.04253 0.0
C259 C 0.20075 0.4543 1.0133 0.0
H260 H 0.16485 0.50049 0.20235 0.0
H261 H 0.14694 0.50088 0.84883 0.0
H262 H 0.0758 0.52186 0.98022 0.0
H263 H 0.09682 0.33688 0.03403 0.0
H264 H 0.32805 0.27209 0.43257 0.0
H265 H 0.3216 0.18876 0.15932 0.0
H266 H 0.30995 0.40797 0.3238 0.0
H267 H 0.33625 0.04766 0.26627 0.0
H268 H 0.31796 0.26958 0.21963 0.0
H269 H 0.33262 0.18957 0.37276 0.0
C270 C 0.32519 0.28472 0.39618 0.0
C271 C 0.31843 0.34707 0.38329 0.0
C272 C 0.32194 0.22093 0.23001 0.0
C273 C 0.32344 0.25283 0.3147 0.0
C274 C 0.32385 0.17444 0.19545 0.0
C275 C 0.32916 0.11089 0.20751 0.0
C276 C 0.32538 0.20413 0.27722 0.0
C277 C 0.33237 0.09599 0.25517 0.0
C278 C 0.32765 0.2375 0.36206 0.0
C279 C 0.31474 0.36045 0.33554 0.0
N280 N 0.33043 0.14221 0.28825 0.0
N281 N 0.31727 0.31385 0.30312 0.0
H282 H 0.69426 0.92345 0.2851 0.0
H283 H 0.66795 0.55462 0.33068 0.0
H284 H 0.6789 0.78716 0.17509 0.0
H285 H 0.68352 0.69033 0.4409 0.0
H286 H 0.67319 0.63846 0.27326 0.0
H287 H 0.69161 0.83836 0.34241 0.0
C288 C 0.69046 0.87564 0.27283 0.0
C289 C 0.68683 0.86273 0.22493 0.0
C290 C 0.67553 0.64994 0.30999 0.0
C291 C 0.68353 0.76472 0.29083 0.0
C292 C 0.67245 0.60204 0.34291 0.0
C293 C 0.67504 0.61537 0.3909 0.0
C294 C 0.68123 0.71197 0.32496 0.0
C295 C 0.68142 0.67762 0.40441 0.0
C296 C 0.68884 0.82701 0.30573 0.0
C297 C 0.68154 0.79976 0.2115 0.0
N298 N 0.68414 0.72363 0.37166 0.0
N299 N 0.68007 0.75322 0.24423 0.0
H300 H 0.31698 0.69482 0.65299 0.0
H301 H 0.32786 0.80687 0.92036 0.0
H302 H 0.33392 0.56956 0.76902 0.0
H303 H 0.30748 0.93507 0.80789 0.0
H304 H 0.32971 0.71975 0.86455 0.0
H305 H 0.31215 0.7831 0.70816 0.0
C306 C 0.31943 0.68564 0.69001 0.0
C307 C 0.32605 0.62459 0.7063 0.0
C308 C 0.32484 0.76688 0.8519 0.0
C309 C 0.32085 0.7256 0.76959 0.0
C310 C 0.32399 0.81699 0.88384 0.0
C311 C 0.31777 0.87882 0.86884 0.0
C312 C 0.31947 0.77824 0.80433 0.0
C313 C 0.31229 0.88821 0.82103 0.0
C314 C 0.31683 0.73619 0.72148 0.0
C315 C 0.32925 0.61585 0.7547 0.0
N316 N 0.31336 0.83854 0.79044 0.0
N317 N 0.32671 0.66568 0.78447 0.0
H318 H 0.65031 0.31946 0.69087 0.0
H319 H 0.70473 0.16248 0.92765 0.0
H320 H 0.71526 0.38614 0.76355 0.0
H321 H 0.64274 0.08952 0.84878 0.0
H322 H 0.70848 0.24644 0.86923 0.0
H323 H 0.64715 0.23545 0.74904 0.0
C324 C 0.664 0.31636 0.71882 0.0
C325 C 0.68304 0.36035 0.72216 0.0
C326 C 0.6941 0.21187 0.8647 0.0
C327 C 0.67937 0.26434 0.7895 0.0
C328 C 0.69188 0.16405 0.89822 0.0
C329 C 0.67349 0.11833 0.89312 0.0
C330 C 0.67773 0.2143 0.82592 0.0
C331 C 0.65748 0.12275 0.8539 0.0
C332 C 0.66211 0.26848 0.75226 0.0
C333 C 0.70004 0.35416 0.75976 0.0
N334 N 0.65996 0.16975 0.82197 0.0
N335 N 0.69779 0.3072 0.79189 0.0
H336 H 0.8312 0.04673 0.74034 0.0
H337 H 0.79938 0.41182 0.79338 0.0
H338 H 0.81413 0.18514 0.63274 0.0
H339 H 0.81906 0.27427 0.90019 0.0
H340 H 0.80278 0.32865 0.73439 0.0
H341 H 0.82493 0.12838 0.79936 0.0
C342 C 0.82616 0.09431 0.72903 0.0
C343 C 0.82343 0.10907 0.68133 0.0
C344 C 0.80632 0.31661 0.77074 0.0
C345 C 0.81602 0.20312 0.74909 0.0
C346 C 0.80426 0.3641 0.80459 0.0
C347 C 0.80892 0.35026 0.85206 0.0
C348 C 0.81309 0.25455 0.78426 0.0
C349 C 0.81558 0.28754 0.86412 0.0
C350 C 0.82248 0.14095 0.76286 0.0
C351 C 0.81633 0.17139 0.66899 0.0
N352 N 0.81746 0.24211 0.83049 0.0
N353 N 0.81301 0.21617 0.70263 0.0
H354 H 0.17426 0.69922 0.90885 0.0
H355 H 0.17058 0.7953 0.63878 0.0
H356 H 0.16533 0.56353 0.79614 0.0
H357 H 0.19076 0.92604 0.7497 0.0
H358 H 0.16682 0.71086 0.69643 0.0
H359 H 0.17946 0.78336 0.85173 0.0
C360 C 0.17356 0.68672 0.87227 0.0
C361 C 0.16919 0.62369 0.85767 0.0
C362 C 0.17209 0.75801 0.70821 0.0
C363 C 0.17477 0.72067 0.79167 0.0
C364 C 0.17404 0.80646 0.67528 0.0
C365 C 0.18092 0.86806 0.68938 0.0
C366 C 0.1769 0.77112 0.75574 0.0
C367 C 0.18562 0.87919 0.73721 0.0
C368 C 0.17641 0.73509 0.83954 0.0
C369 C 0.16822 0.61122 0.80939 0.0
N370 N 0.18345 0.8313 0.76866 0.0
N371 N 0.17088 0.65919 0.77825 0.0
H372 H 0.78062 0.87685 0.31118 0.0
H373 H 0.8637 0.59242 0.2192 0.0
H374 H 0.84914 0.82052 0.37671 0.0
H375 H 0.79515 0.64611 0.15248 0.0
H376 H 0.85828 0.67543 0.27721 0.0
H377 H 0.78537 0.79308 0.25288 0.0
C378 C 0.79674 0.84715 0.31326 0.0
C379 C 0.81457 0.85611 0.34897 0.0
C380 C 0.84437 0.66909 0.24997 0.0
C381 C 0.81998 0.75944 0.28233 0.0
C382 C 0.84737 0.62122 0.21685 0.0
C383 C 0.82975 0.61153 0.1809 0.0
C384 C 0.8236 0.70807 0.24738 0.0
C385 C 0.80928 0.65184 0.17929 0.0
C386 C 0.79936 0.79903 0.28002 0.0
C387 C 0.83481 0.81515 0.35023 0.0
N388 N 0.80675 0.69823 0.21211 0.0
N389 N 0.83698 0.76881 0.31738 0.0
H390 H 0.16699 0.05671 0.29627 0.0
H391 H 0.18692 0.42738 0.24768 0.0
H392 H 0.17765 0.19726 0.40528 0.0
H393 H 0.16293 0.29386 0.14121 0.0
H394 H 0.18853 0.34109 0.3045 0.0
H395 H 0.17013 0.14045 0.23811 0.0
C396 C 0.16993 0.10508 0.30816 0.0
C397 C 0.17177 0.1197 0.35606 0.0
C398 C 0.183 0.33058 0.26868 0.0
C399 C 0.17578 0.21605 0.28915 0.0
C400 C 0.18197 0.37995 0.23615 0.0
C401 C 0.17446 0.36823 0.18954 0.0
C402 C 0.17654 0.2687 0.25467 0.0
C403 C 0.1689 0.30526 0.17658 0.0
C404 C 0.17186 0.15291 0.27476 0.0
C405 C 0.17622 0.18333 0.36895 0.0
N406 N 0.16991 0.25796 0.20903 0.0
N407 N 0.17797 0.22909 0.33573 0.0
H408 H 0.56074 0.98922 0.14241 0.0
H409 H 0.44306 0.93525 0.97633 0.0
H410 H 0.56429 0.93287 0.99773 0.0
H411 H 0.44208 0.04285 0.10469 0.0
H412 H 0.48712 0.92325 0.98678 0.0
H413 H 0.51669 -0.0022 0.13257 0.0
C414 C 0.55234 0.97862 0.10857 0.0
C415 C 0.56641 0.96066 0.07077 0.0
C416 C 0.47727 0.94969 1.01255 0.0
C417 C 0.51584 0.96965 0.05955 0.0
C418 C 0.45216 0.95642 1.00666 0.0
C419 C 0.43895 0.9903 0.03961 0.0
C420 C 0.48922 0.97632 0.052 0.0
C421 C 0.45162 0.01706 0.07817 0.0
C422 C 0.52715 0.98341 0.10305 0.0
C423 C 0.55429 0.94609 0.02808 0.0
N424 N 0.47604 0.0092 0.08344 0.0
N425 N 0.52974 0.95102 1.02363 0.0
H426 H 0.43931 0.35259 0.50133 0.0
H427 H 0.55665 0.4873 0.63559 0.0
H428 H 0.43896 0.5298 0.57757 0.0
H429 H 0.56192 0.39237 0.50224 0.0
H430 H 0.51257 0.48372 0.62637 0.0
H431 H 0.48387 0.3477 0.51239 0.0
C432 C 0.44869 0.39027 0.52038 0.0
C433 C 0.43572 0.44193 0.53829 0.0
C434 C 0.52349 0.46344 0.59934 0.0
C435 C 0.48601 0.43587 0.55204 0.0
C436 C 0.5487 0.46575 0.60434 0.0
C437 C 0.56331 0.44109 0.56929 0.0
C438 C 0.51266 0.43508 0.55954 0.0
C439 C 0.55162 0.4116 0.53047 0.0
C440 C 0.47395 0.38753 0.52661 0.0
C441 C 0.44848 0.48958 0.56291 0.0
N442 N 0.52699 0.40946 0.52662 0.0
N443 N 0.47293 0.48519 0.5694 0.0
H444 H 0.05869 0.01371 0.45141 0.0
H445 H 0.93759 0.89745 0.5653 0.0
H446 H 0.05936 0.88955 0.57114 0.0
H447 H 0.9395 0.97372 0.42564 0.0
H448 H 0.98187 0.8938 0.56885 0.0
H449 H 0.01479 0.00119 0.44255 0.0
C450 C 0.04954 0.98378 0.47585 0.0
C451 C 0.0626 0.95308 0.51233 0.0
C452 C 0.97256 0.91078 0.5373 0.0
C453 C 0.01232 0.93844 0.50242 0.0
C454 C 0.94723 0.91255 0.53507 0.0
C455 C 0.93464 0.93649 0.49521 0.0
C456 C 0.98548 0.93371 0.49963 0.0
C457 C 0.9483 0.95629 0.45752 0.0
C458 C 0.02451 0.97629 0.4706 0.0
C459 C 0.04992 0.91399 0.54255 0.0
N460 N 0.97293 0.95501 0.46085 0.0
N461 N 0.02541 0.9083 0.53724 0.0
H462 H 0.93303 0.4332 0.91593 0.0
H463 H 0.05468 0.36625 0.06929 0.0
H464 H 0.93394 0.3755 0.06046 0.0
H465 H 0.05289 0.44245 0.92959 0.0
H466 H 0.01065 0.35064 0.0623 0.0
H467 H 0.97704 0.41969 0.91633 0.0
C468 C 0.94246 0.41744 0.9477 0.0
C469 C 0.92977 0.40623 0.98837 0.0
C470 C 0.01995 0.37001 0.03296 0.0
C471 C 0.9802 0.3903 0.98904 0.0
C472 C 0.04507 0.37847 0.03685 0.0
C473 C 0.0573 0.40649 1.00021 0.0
C474 C 0.00711 0.38957 0.99209 0.0
C475 C 0.04403 0.42176 0.95898 0.0
C476 C 0.96759 0.4094 0.94786 0.0
C477 C 0.94293 0.38446 0.02823 0.0
N478 N 0.01964 0.41368 0.9562 0.0
N479 N 0.96744 0.37784 0.0277 0.0
H480 H 0.24334 0.46511 0.06521 0.0
H481 H 0.31087 0.19756 0.91733 0.0
H482 H 0.21122 0.37217 0.94397 0.0
H483 H 0.31946 0.21121 0.06718 0.0
H484 H 0.28349 0.29033 0.91783 0.0
H485 H 0.28014 0.39901 0.05708 0.0
C486 C 0.24431 0.43194 0.03631 0.0
C487 C 0.22431 0.42346 1.00537 0.0
C488 C 0.29187 0.27381 0.95042 0.0
C489 C 0.26608 0.34928 0.99545 0.0
C490 C 0.30762 0.22133 0.95013 0.0
C491 C 0.31725 0.19655 0.99232 0.0
C492 C 0.28612 0.30221 0.99309 0.0
C493 C 0.3122 0.22865 0.03395 0.0
C494 C 0.26517 0.39422 0.03182 0.0
C495 C 0.22626 0.37957 0.96873 0.0
N496 N 0.29683 0.27963 0.03337 0.0
N497 N 0.24676 0.34407 0.96477 0.0
H498 H 0.8068 0.64961 0.93366 0.0
H499 H 0.75707 0.96046 0.05922 0.0
H500 H 0.84146 0.72652 0.05881 0.0
H501 H 0.71158 0.82235 0.98748 0.0
H502 H 0.79282 0.89584 0.04164 0.0
H503 H 0.77749 0.73725 0.93373 0.0
C504 C 0.80873 0.68608 0.96034 0.0
C505 C 0.82627 0.68008 0.99689 0.0
C506 C 0.77502 0.88025 0.02937 0.0
C507 C 0.79274 0.77994 0.99714 0.0
C508 C 0.75465 0.91687 0.03931 0.0
C509 C 0.73137 0.89619 1.02507 0.0
C510 C 0.77206 0.82341 1.00416 0.0
C511 C 0.7292 0.83949 0.99948 0.0
C512 C 0.79187 0.73569 0.9605 0.0
C513 C 0.82814 0.72912 0.03016 0.0
N514 N 0.74933 0.805 0.98978 0.0
N515 N 0.81122 0.77663 0.03001 0.0
H516 H 0.16434 0.73853 0.98965 0.0
H517 H 0.30279 0.79618 0.06566 0.0
H518 H 0.20079 0.60996 0.08647 0.0
H519 H 0.25029 0.94304 0.02924 0.0
H520 H 0.27 0.71664 0.06021 0.0
H521 H 0.20118 0.80108 0.98635 0.0
C522 C 0.18044 0.72258 1.00924 0.0
C523 C 0.1798 0.66848 0.03755 0.0
C524 C 0.26585 0.7664 0.0536 0.0
C525 C 0.22171 0.74145 0.03578 0.0
C526 C 0.28443 0.81166 0.0568 0.0
C527 C 0.27918 0.87628 0.04813 0.0
C528 C 0.2422 0.7862 0.0406 0.0
C529 C 0.25518 0.89392 0.03653 0.0
C530 C 0.20135 0.75856 1.00774 0.0
C531 C 0.2009 0.65038 0.06312 0.0
N532 N 0.23769 0.84915 0.03282 0.0
N533 N 0.22112 0.68736 0.06204 0.0
H534 H 0.68517 0.16567 0.14779 0.0
H535 H 0.78756 0.32207 0.09641 0.0
H536 H 0.66107 0.23569 1.01237 0.0
H537 H 0.74223 0.46362 0.02672 0.0
H538 H 0.75122 0.26341 0.11582 0.0
H539 H 0.71398 0.2534 0.15463 0.0
C540 C 0.6854 0.20085 0.12018 0.0
C541 C 0.67119 0.19288 0.079 0.0
C542 C 0.74916 0.30825 0.09744 0.0
C543 C 0.70454 0.29129 0.08586 0.0
C544 C 0.76991 0.34118 0.08585 0.0
C545 C 0.7678 0.39739 0.05985 0.0
C546 C 0.72621 0.33124 0.08214 0.0
C547 C 0.74454 0.42034 0.04694 0.0
C548 C 0.70204 0.25025 0.12386 0.0
C549 C 0.67189 0.24 0.04452 0.0
N550 N 0.72459 0.38635 0.05733 0.0
N551 N 0.68882 0.28669 0.04822 0.0
H552 H 0.2093 0.81878 0.46611 0.0
H553 H 0.33767 0.74125 0.57402 0.0
H554 H 0.25287 0.96677 0.531 0.0
H555 H 0.30825 0.63989 0.45378 0.0
H556 H 0.30826 0.82729 0.55805 0.0
H557 H 0.24577 0.75205 0.46152 0.0
C558 C 0.22657 0.83734 0.47895 0.0
C559 C 0.22812 0.89803 0.49912 0.0
C560 C 0.3087 0.78686 0.53453 0.0
C561 C 0.26968 0.82221 0.49455 0.0
C562 C 0.3256 0.73802 0.54343 0.0
C563 C 0.32502 0.68283 0.51577 0.0
C564 C 0.29108 0.77961 0.49822 0.0
C565 C 0.30892 0.68103 0.47664 0.0
C566 C 0.24738 0.79956 0.47609 0.0
C567 C 0.25093 0.9201 0.51516 0.0
N568 N 0.29218 0.72795 0.46967 0.0
N569 N 0.2708 0.88177 0.51326 0.0
H570 H 0.75368 0.46472 0.56026 0.0
H571 H 0.80716 0.15865 0.4346 0.0
H572 H 0.71 0.32544 0.48557 0.0
H573 H 0.83969 0.235 0.56196 0.0
H574 H 0.77723 0.24479 0.43404 0.0
H575 H 0.7901 0.40223 0.54376 0.0
C576 C 0.7518 0.42134 0.53993 0.0
C577 C 0.72884 0.39967 0.52454 0.0
C578 C 0.79127 0.24341 0.46149 0.0
C579 C 0.77029 0.32936 0.50487 0.0
C580 C 0.80846 0.19463 0.46173 0.0
C581 C 0.82555 0.18879 0.49908 0.0
C582 C 0.79136 0.28704 0.49851 0.0
C583 C 0.82667 0.23737 0.53279 0.0
C584 C 0.77255 0.38594 0.5306 0.0
C585 C 0.72736 0.34329 0.49845 0.0
N586 N 0.80943 0.28406 0.53221 0.0
N587 N 0.74787 0.30999 0.48937 0.0
H588 H 0.16523 0.22188 0.52491 0.0
H589 H 0.29208 0.31392 0.62028 0.0
H590 H 0.1912 0.14629 0.65738 0.0
H591 H 0.24604 0.45648 0.55343 0.0
H592 H 0.25598 0.24946 0.63355 0.0
H593 H 0.19431 0.30912 0.53375 0.0
C594 C 0.17647 0.22518 0.55665 0.0
C595 C 0.17578 0.17755 0.59068 0.0
C596 C 0.25383 0.29545 0.61678 0.0
C597 C 0.20977 0.27455 0.59984 0.0
C598 C 0.27438 0.33189 0.60892 0.0
C599 C 0.27201 0.39021 0.58542 0.0
C600 C 0.23098 0.31696 0.59991 0.0
C601 C 0.24867 0.41162 0.57157 0.0
C602 C 0.19313 0.27454 0.56156 0.0
C603 C 0.19104 0.1828 0.63073 0.0
N604 N 0.22909 0.37442 0.57819 0.0
N605 N 0.20797 0.22954 0.63366 0.0
H606 H 0.65737 0.7388 0.50822 0.0
H607 H 0.78979 0.82057 0.58558 0.0
H608 H 0.69044 0.6633 0.63549 0.0
H609 H 0.74478 0.96175 0.51466 0.0
H610 H 0.75325 0.76044 0.60259 0.0
H611 H 0.68772 0.82348 0.50963 0.0
C612 C 0.67044 0.74125 0.5373 0.0
C613 C 0.6718 0.69302 0.57111 0.0
C614 C 0.75138 0.80506 0.58384 0.0
C615 C 0.70676 0.78814 0.57216 0.0
C616 C 0.77221 0.83894 0.57383 0.0
C617 C 0.77022 0.89581 0.54856 0.0
C618 C 0.72856 0.82755 0.56742 0.0
C619 C 0.74703 0.91796 0.5343 0.0
C620 C 0.68787 0.78927 0.53788 0.0
C621 C 0.68914 0.69863 0.60803 0.0
N622 N 0.72707 0.88322 0.54326 0.0
N623 N 0.70637 0.74423 0.60691 0.0
loop_
_geom_bond_atom_site_label_1
_geom_bond_atom_site_label_2
_geom_bond_distance
_geom_bond_site_symmetry_2
_ccdc_geom_bond_type
Co0 N4 2.148 1_554 S
Co0 N10 2.128 1_565 S
Co0 N20 2.196 . S
Co0 O25 2.351 . S
Co0 O26 2.155 . S
Co0 O27 2.096 1_564 S
C1 N4 1.301 . S
C1 N5 1.328 . S
C1 H6 0.930 . S
C2 C3 1.333 1_545 S
C2 N4 1.317 1_545 S
C2 H7 0.930 . S
C3 C2 1.333 1_565 S
C3 N5 1.350 . S
C3 H29 0.931 . S
N4 Co0 2.148 1_556 S
N4 C1 1.301 . S
N4 C2 1.317 1_565 S
N5 C1 1.328 . S
N5 C3 1.350 . S
H6 C1 0.930 . S
H7 C2 0.930 . S
C8 O9 1.224 . S
C8 O27 1.247 . S
O9 C8 1.224 . S
N10 Co0 2.128 1_545 S
N10 C11 1.355 . S
N10 C13 1.311 . S
C11 N10 1.355 . S
C11 C12 1.363 . S
C11 H23 0.929 1_545 S
C12 C11 1.363 . S
C12 N14 1.375 . S
C12 H30 0.931 . S
C13 N10 1.311 . S
C13 N14 1.347 . S
C13 H24 0.929 . S
N14 C12 1.375 . S
N14 C13 1.347 . S
C15 C18 1.365 . S
C15 N20 1.331 . S
C15 H21 0.929 . S
C16 C17 1.362 1_556 S
C16 C19 1.378 . S
C16 H31 0.929 . S
C17 C16 1.362 1_554 S
C17 C18 1.366 1_545 S
C18 C15 1.365 . S
C18 C17 1.366 1_565 S
C18 H32 0.930 . S
C19 C16 1.378 . S
C19 N20 1.312 1_546 S
C19 H22 0.930 . S
N20 Co0 2.196 . S
N20 C15 1.331 . S
N20 C19 1.312 1_564 S
H21 C15 0.929 . S
H22 C19 0.930 . S
H23 C11 0.929 1_565 S
H24 C13 0.929 . S
O25 Co0 2.351 . S
O25 C28 1.244 . S
O26 Co0 2.155 . S
O26 C28 1.240 . S
O27 Co0 2.096 1_546 S
O27 C8 1.247 . S
C28 O25 1.244 . S
C28 O26 1.240 . S
H29 C3 0.931 . S
H30 C12 0.931 . S
H31 C16 0.929 . S
H32 C18 0.930 . S
Co33 N37 2.148 . S
Co33 N43 2.128 1_564 S
Co33 N53 2.194 . S
Co33 O58 2.351 1_554 S
Co33 O59 2.155 1_554 S
Co33 O60 2.096 1_565 S
C34 N37 1.301 . S
C34 N38 1.328 . S
C34 H39 0.930 . S
C35 C36 1.333 1_545 S
C35 N37 1.317 1_545 S
C35 H40 0.930 . S
C36 C35 1.333 1_565 S
C36 N38 1.350 . S
C36 H62 0.931 . S
N37 Co33 2.148 . S
N37 C34 1.301 . S
N37 C35 1.317 1_565 S
N38 C34 1.328 . S
N38 C36 1.350 . S
H39 C34 0.930 . S
H40 C35 0.930 . S
C41 O42 1.224 . S
C41 O60 1.247 . S
O42 C41 1.224 . S
N43 Co33 2.128 1_546 S
N43 C44 1.355 . S
N43 C46 1.311 . S
C44 N43 1.355 . S
C44 C45 1.363 . S
C44 H56 0.929 1_545 S
C45 C44 1.363 . S
C45 N47 1.375 . S
C45 H63 0.931 . S
C46 N43 1.311 . S
C46 N47 1.347 . S
C46 H57 0.929 . S
N47 C45 1.375 . S
N47 C46 1.347 . S
C48 C51 1.365 . S
C48 N53 1.328 . S
C48 H54 0.929 . S
C49 C50 1.362 . S
C49 C52 1.378 . S
C49 H64 0.929 . S
C50 C49 1.362 . S
C50 C51 1.366 1_545 S
C51 C48 1.365 . S
C51 C50 1.366 1_565 S
C51 H65 0.930 . S
C52 C49 1.378 . S
C52 N53 1.315 1_545 S
C52 H55 0.930 . S
N53 Co33 2.194 . S
N53 C48 1.328 . S
N53 C52 1.315 1_565 S
H54 C48 0.929 . S
H55 C52 0.930 . S
H56 C44 0.929 1_565 S
H57 C46 0.929 . S
O58 Co33 2.351 1_556 S
O58 C61 1.244 . S
O59 Co33 2.155 1_556 S
O59 C61 1.240 . S
O60 Co33 2.096 1_545 S
O60 C41 1.247 . S
C61 O58 1.244 . S
C61 O59 1.240 . S
H62 C36 0.931 . S
H63 C45 0.931 . S
H64 C49 0.929 . S
H65 C51 0.930 . S
Co66 N70 2.148 . S
Co66 N76 2.128 . S
Co66 N86 2.194 . S
Co66 O91 2.351 . S
Co66 O92 2.155 . S
Co66 O93 2.096 . S
C67 N70 1.301 . S
C67 N71 1.328 . S
C67 H72 0.930 . S
C68 C69 1.333 . S
C68 N70 1.317 . S
C68 H73 0.930 . S
C69 C68 1.333 . S
C69 N71 1.350 . S
C69 H95 0.931 . S
N70 Co66 2.148 . S
N70 C67 1.301 . S
N70 C68 1.317 . S
N71 C67 1.328 . S
N71 C69 1.350 . S
H72 C67 0.930 . S
H73 C68 0.930 . S
C74 O75 1.224 . S
C74 O93 1.247 . S
O75 C74 1.224 . S
N76 Co66 2.128 . S
N76 C77 1.355 . S
N76 C79 1.311 . S
C77 N76 1.355 . S
C77 C78 1.363 . S
C77 H89 0.929 . S
C78 C77 1.363 . S
C78 N80 1.375 . S
C78 H96 0.931 . S
C79 N76 1.311 . S
C79 N80 1.347 . S
C79 H90 0.929 . S
N80 C78 1.375 . S
N80 C79 1.347 . S
C81 C84 1.365 . S
C81 N86 1.328 . S
C81 H87 0.929 . S
C82 C83 1.362 . S
C82 C85 1.378 . S
C82 H97 0.929 . S
C83 C82 1.362 . S
C83 C84 1.366 . S
C84 C81 1.365 . S
C84 C83 1.366 . S
C84 H98 0.930 . S
C85 C82 1.378 . S
C85 N86 1.315 . S
C85 H88 0.930 . S
N86 Co66 2.194 . S
N86 C81 1.328 . S
N86 C85 1.315 . S
H87 C81 0.929 . S
H88 C85 0.930 . S
H89 C77 0.929 . S
H90 C79 0.929 . S
O91 Co66 2.351 . S
O91 C94 1.244 . S
O92 Co66 2.155 . S
O92 C94 1.240 . S
O93 Co66 2.096 . S
O93 C74 1.247 . S
C94 O91 1.244 . S
C94 O92 1.240 . S
H95 C69 0.931 . S
H96 C78 0.931 . S
H97 C82 0.929 . S
H98 C84 0.930 . S
Co99 N103 2.148 . S
Co99 N109 2.128 . S
Co99 N119 2.194 . S
Co99 O124 2.351 . S
Co99 O125 2.155 . S
Co99 O126 2.096 . S
C100 N103 1.301 . S
C100 N104 1.328 . S
C100 H105 0.930 . S
C101 C102 1.333 . S
C101 N103 1.317 . S
C101 H106 0.930 . S
C102 C101 1.333 . S
C102 N104 1.350 . S
C102 H128 0.931 . S
N103 Co99 2.148 . S
N103 C100 1.301 . S
N103 C101 1.317 . S
N104 C100 1.328 . S
N104 C102 1.350 . S
H105 C100 0.930 . S
H106 C101 0.930 . S
C107 O108 1.224 . S
C107 O126 1.247 . S
O108 C107 1.224 . S
N109 Co99 2.128 . S
N109 C110 1.355 . S
N109 C112 1.311 . S
C110 N109 1.355 . S
C110 C111 1.363 . S
C110 H122 0.929 . S
C111 C110 1.363 . S
C111 N113 1.375 . S
C111 H129 0.931 . S
C112 N109 1.311 . S
C112 N113 1.347 . S
C112 H123 0.929 . S
N113 C111 1.375 . S
N113 C112 1.347 . S
C114 C117 1.365 . S
C114 N119 1.328 . S
C114 H120 0.929 . S
C115 C116 1.362 . S
C115 C118 1.378 . S
C115 H130 0.929 . S
C116 C115 1.362 . S
C116 C117 1.366 . S
C117 C114 1.365 . S
C117 C116 1.366 . S
C117 H131 0.930 . S
C118 C115 1.378 . S
C118 N119 1.315 . S
C118 H121 0.930 . S
N119 Co99 2.194 . S
N119 C114 1.328 . S
N119 C118 1.315 . S
H120 C114 0.929 . S
H121 C118 0.930 . S
H122 C110 0.929 . S
H123 C112 0.929 . S
O124 Co99 2.351 . S
O124 C127 1.244 . S
O125 Co99 2.155 . S
O125 C127 1.240 . S
O126 Co99 2.096 . S
O126 C107 1.247 . S
C127 O124 1.244 . S
C127 O125 1.240 . S
H128 C102 0.931 . S
H129 C111 0.931 . S
H130 C115 0.929 . S
H131 C117 0.930 . S
Co132 N136 2.148 . S
Co132 N142 2.128 1_565 S
Co132 N152 2.194 . S
Co132 O157 2.351 . S
Co132 O158 2.155 . S
Co132 O159 2.096 1_565 S
C133 N136 1.301 . S
C133 N137 1.328 . S
C133 H138 0.930 . S
C134 C135 1.333 1_545 S
C134 N136 1.317 1_545 S
C134 H139 0.930 . S
C135 C134 1.333 1_565 S
C135 N137 1.350 . S
C135 H161 0.931 . S
N136 Co132 2.148 . S
N136 C133 1.301 . S
N136 C134 1.317 1_565 S
N137 C133 1.328 . S
N137 C135 1.350 . S
H138 C133 0.930 . S
H139 C134 0.930 . S
C140 O141 1.224 . S
C140 O159 1.247 . S
O141 C140 1.224 . S
N142 Co132 2.128 1_545 S
N142 C143 1.355 . S
N142 C145 1.311 . S
C143 N142 1.355 . S
C143 C144 1.363 . S
C143 H155 0.929 1_545 S
C144 C143 1.363 . S
C144 N146 1.375 . S
C144 H162 0.931 . S
C145 N142 1.311 . S
C145 N146 1.347 . S
C145 H156 0.929 . S
N146 C144 1.375 . S
N146 C145 1.347 . S
C147 C150 1.365 . S
C147 N152 1.328 . S
C147 H153 0.929 . S
C148 C149 1.362 . S
C148 C151 1.378 . S
C148 H163 0.929 . S
C149 C148 1.362 . S
C149 C150 1.366 1_545 S
C150 C147 1.365 . S
C150 C149 1.366 1_565 S
C150 H164 0.930 . S
C151 C148 1.378 . S
C151 N152 1.315 1_545 S
C151 H154 0.930 . S
N152 Co132 2.194 . S
N152 C147 1.328 . S
N152 C151 1.315 1_565 S
H153 C147 0.929 . S
H154 C151 0.930 . S
H155 C143 0.929 1_565 S
H156 C145 0.929 . S
O157 Co132 2.351 . S
O157 C160 1.244 . S
O158 Co132 2.155 . S
O158 C160 1.240 . S
O159 Co132 2.096 1_545 S
O159 C140 1.247 . S
C160 O157 1.244 . S
C160 O158 1.240 . S
H161 C135 0.931 . S
H162 C144 0.931 . S
H163 C148 0.929 . S
H164 C150 0.930 . S
Co165 N169 2.148 . S
Co165 N175 2.128 1_565 S
Co165 N185 2.194 . S
Co165 O190 2.351 . S
Co165 O191 2.155 . S
Co165 O192 2.096 1_565 S
C166 N169 1.301 . S
C166 N170 1.328 . S
C166 H171 0.930 . S
C167 C168 1.333 1_545 S
C167 N169 1.317 1_545 S
C167 H172 0.930 . S
C168 C167 1.333 1_565 S
C168 N170 1.350 . S
C168 H194 0.931 . S
N169 Co165 2.148 . S
N169 C166 1.301 . S
N169 C167 1.317 1_565 S
N170 C166 1.328 . S
N170 C168 1.350 . S
H171 C166 0.930 . S
H172 C167 0.930 . S
C173 O174 1.224 . S
C173 O192 1.247 . S
O174 C173 1.224 . S
N175 Co165 2.128 1_545 S
N175 C176 1.355 . S
N175 C178 1.311 . S
C176 N175 1.355 . S
C176 C177 1.363 . S
C176 H188 0.929 1_545 S
C177 C176 1.363 . S
C177 N179 1.375 . S
C177 H195 0.931 . S
C178 N175 1.311 . S
C178 N179 1.347 . S
C178 H189 0.929 . S
N179 C177 1.375 . S
N179 C178 1.347 . S
C180 C183 1.365 . S
C180 N185 1.328 . S
C180 H186 0.929 . S
C181 C182 1.362 . S
C181 C184 1.378 . S
C181 H196 0.929 . S
C182 C181 1.362 . S
C182 C183 1.366 1_545 S
C183 C180 1.365 . S
C183 C182 1.366 1_565 S
C183 H197 0.930 . S
C184 C181 1.378 . S
C184 N185 1.315 1_545 S
C184 H187 0.930 . S
N185 Co165 2.194 . S
N185 C180 1.328 . S
N185 C184 1.315 1_565 S
H186 C180 0.929 . S
H187 C184 0.930 . S
H188 C176 0.929 1_565 S
H189 C178 0.929 . S
O190 Co165 2.351 . S
O190 C193 1.244 . S
O191 Co165 2.155 . S
O191 C193 1.240 . S
O192 Co165 2.096 1_545 S
O192 C173 1.247 . S
C193 O190 1.244 . S
C193 O191 1.240 . S
H194 C168 0.931 . S
H195 C177 0.931 . S
H196 C181 0.929 . S
H197 C183 0.930 . S
Co198 N202 2.148 1_554 S
Co198 N208 2.128 . S
Co198 N218 2.196 . S
Co198 O223 2.351 . S
Co198 O224 2.155 . S
Co198 O225 2.096 1_554 S
C199 N202 1.301 . S
C199 N203 1.328 . S
C199 H204 0.930 . S
C200 C201 1.333 . S
C200 N202 1.317 . S
C200 H205 0.930 . S
C201 C200 1.333 . S
C201 N203 1.350 . S
C201 H227 0.931 . S
N202 Co198 2.148 1_556 S
N202 C199 1.301 . S
N202 C200 1.317 . S
N203 C199 1.328 . S
N203 C201 1.350 . S
H204 C199 0.930 . S
H205 C200 0.930 . S
C206 O207 1.224 . S
C206 O225 1.247 . S
O207 C206 1.224 . S
N208 Co198 2.128 . S
N208 C209 1.355 . S
N208 C211 1.311 . S
C209 N208 1.355 . S
C209 C210 1.363 . S
C209 H221 0.929 . S
C210 C209 1.363 . S
C210 N212 1.375 . S
C210 H228 0.931 . S
C211 N208 1.311 . S
C211 N212 1.347 . S
C211 H222 0.929 . S
N212 C210 1.375 . S
N212 C211 1.347 . S
C213 C216 1.365 . S
C213 N218 1.330 . S
C213 H219 0.929 . S
C214 C215 1.362 1_556 S
C214 C217 1.378 . S
C214 H229 0.929 . S
C215 C214 1.362 1_554 S
C215 C216 1.366 . S
C216 C213 1.365 . S
C216 C215 1.366 . S
C216 H230 0.930 . S
C217 C214 1.378 . S
C217 N218 1.312 1_556 S
C217 H220 0.930 . S
N218 Co198 2.196 . S
N218 C213 1.330 . S
N218 C217 1.312 1_554 S
H219 C213 0.929 . S
H220 C217 0.930 . S
H221 C209 0.929 . S
H222 C211 0.929 . S
O223 Co198 2.351 . S
O223 C226 1.244 . S
O224 Co198 2.155 . S
O224 C226 1.240 . S
O225 Co198 2.096 1_556 S
O225 C206 1.247 . S
C226 O223 1.244 . S
C226 O224 1.240 . S
H227 C201 0.931 . S
H228 C210 0.931 . S
H229 C214 0.929 . S
H230 C216 0.930 . S
Co231 N235 2.148 . S
Co231 N241 2.128 1_554 S
Co231 N251 2.194 . S
Co231 O256 2.351 1_554 S
Co231 O257 2.155 1_554 S
Co231 O258 2.096 . S
C232 N235 1.301 . S
C232 N236 1.328 . S
C232 H237 0.930 . S
C233 C234 1.333 . S
C233 N235 1.317 . S
C233 H238 0.930 . S
C234 C233 1.333 . S
C234 N236 1.350 . S
C234 H260 0.931 . S
N235 Co231 2.148 . S
N235 C232 1.301 . S
N235 C233 1.317 . S
N236 C232 1.328 . S
N236 C234 1.350 . S
H237 C232 0.930 . S
H238 C233 0.930 . S
C239 O240 1.224 . S
C239 O258 1.247 . S
O240 C239 1.224 . S
N241 Co231 2.128 1_556 S
N241 C242 1.355 . S
N241 C244 1.311 . S
C242 N241 1.355 . S
C242 C243 1.363 . S
C242 H254 0.929 . S
C243 C242 1.363 . S
C243 N245 1.375 . S
C243 H261 0.931 . S
C244 N241 1.311 . S
C244 N245 1.347 . S
C244 H255 0.929 . S
N245 C243 1.375 . S
N245 C244 1.347 . S
C246 C249 1.365 . S
C246 N251 1.328 . S
C246 H252 0.929 . S
C247 C248 1.362 . S
C247 C250 1.378 . S
C247 H262 0.929 . S
C248 C247 1.362 . S
C248 C249 1.366 . S
C249 C246 1.365 . S
C249 C248 1.366 . S
C249 H263 0.930 . S
C250 C247 1.378 . S
C250 N251 1.315 . S
C250 H253 0.930 . S
N251 Co231 2.194 . S
N251 C246 1.328 . S
N251 C250 1.315 . S
H252 C246 0.929 . S
H253 C250 0.930 . S
H254 C242 0.929 . S
H255 C244 0.929 . S
O256 Co231 2.351 1_556 S
O256 C259 1.244 . S
O257 Co231 2.155 1_556 S
O257 C259 1.240 . S
O258 Co231 2.096 . S
O258 C239 1.247 . S
C259 O256 1.244 . S
C259 O257 1.240 . S
H260 C234 0.931 . S
H261 C243 0.931 . S
H262 C247 0.929 . S
H263 C249 0.930 . S
H264 C270 0.930 . S
H265 C274 0.930 . S
H266 C279 0.929 . S
H267 C277 0.929 . S
H268 C272 0.929 . S
H269 C278 0.929 . S
C270 H264 0.930 . S
C270 C271 1.367 . S
C270 C278 1.378 . S
C271 C270 1.367 . S
C271 C279 1.433 . S
C272 H268 0.929 . S
C272 C274 1.378 . S
C272 C276 1.350 . S
C273 C276 1.463 . S
C273 C278 1.350 . S
C273 N281 1.427 . S
C274 H265 0.930 . S
C274 C272 1.378 . S
C274 C275 1.367 . S
C275 C274 1.367 . S
C275 C277 1.433 . S
C276 C272 1.350 . S
C276 C273 1.463 . S
C276 N280 1.427 . S
C277 H267 0.929 . S
C277 C275 1.433 . S
C277 N280 1.384 . S
C278 H269 0.929 . S
C278 C270 1.378 . S
C278 C273 1.350 . S
C279 H266 0.929 . S
C279 C271 1.433 . S
C279 N281 1.384 . S
N280 C276 1.427 . S
N280 C277 1.384 . S
N281 C273 1.427 . S
N281 C279 1.384 . S
H282 C288 0.930 . S
H283 C292 0.930 . S
H284 C297 0.929 . S
H285 C295 0.929 . S
H286 C290 0.929 . S
H287 C296 0.929 . S
C288 H282 0.930 . S
C288 C289 1.367 . S
C288 C296 1.378 . S
C289 C288 1.367 . S
C289 C297 1.433 . S
C290 H286 0.929 . S
C290 C292 1.378 . S
C290 C294 1.350 . S
C291 C294 1.463 . S
C291 C296 1.350 . S
C291 N299 1.427 . S
C292 H283 0.930 . S
C292 C290 1.378 . S
C292 C293 1.367 . S
C293 C292 1.367 . S
C293 C295 1.433 . S
C294 C290 1.350 . S
C294 C291 1.463 . S
C294 N298 1.427 . S
C295 H285 0.929 . S
C295 C293 1.433 . S
C295 N298 1.384 . S
C296 H287 0.929 . S
C296 C288 1.378 . S
C296 C291 1.350 . S
C297 H284 0.929 . S
C297 C289 1.433 . S
C297 N299 1.384 . S
N298 C294 1.427 . S
N298 C295 1.384 . S
N299 C291 1.427 . S
N299 C297 1.384 . S
H300 C306 0.930 . S
H301 C310 0.930 . S
H302 C315 0.929 . S
H303 C313 0.929 . S
H304 C308 0.929 . S
H305 C314 0.929 . S
C306 H300 0.930 . S
C306 C307 1.367 . S
C306 C314 1.378 . S
C307 C306 1.367 . S
C307 C315 1.433 . S
C308 H304 0.929 . S
C308 C310 1.378 . S
C308 C312 1.350 . S
C309 C312 1.463 . S
C309 C314 1.350 . S
C309 N317 1.427 . S
C310 H301 0.930 . S
C310 C308 1.378 . S
C310 C311 1.367 . S
C311 C310 1.367 . S
C311 C313 1.433 . S
C312 C308 1.350 . S
C312 C309 1.463 . S
C312 N316 1.427 . S
C313 H303 0.929 . S
C313 C311 1.433 . S
C313 N316 1.384 . S
C314 H305 0.929 . S
C314 C306 1.378 . S
C314 C309 1.350 . S
C315 H302 0.929 . S
C315 C307 1.433 . S
C315 N317 1.384 . S
N316 C312 1.427 . S
N316 C313 1.384 . S
N317 C309 1.427 . S
N317 C315 1.384 . S
H318 C324 0.930 . S
H319 C328 0.930 . S
H320 C333 0.929 . S
H321 C331 0.929 . S
H322 C326 0.929 . S
H323 C332 0.929 . S
C324 H318 0.930 . S
C324 C325 1.367 . S
C324 C332 1.378 . S
C325 C324 1.367 . S
C325 C333 1.433 . S
C326 H322 0.929 . S
C326 C328 1.378 . S
C326 C330 1.350 . S
C327 C330 1.463 . S
C327 C332 1.350 . S
C327 N335 1.427 . S
C328 H319 0.930 . S
C328 C326 1.378 . S
C328 C329 1.367 . S
C329 C328 1.367 . S
C329 C331 1.433 . S
C330 C326 1.350 . S
C330 C327 1.463 . S
C330 N334 1.427 . S
C331 H321 0.929 . S
C331 C329 1.433 . S
C331 N334 1.384 . S
C332 H323 0.929 . S
C332 C324 1.378 . S
C332 C327 1.350 . S
C333 H320 0.929 . S
C333 C325 1.433 . S
C333 N335 1.384 . S
N334 C330 1.427 . S
N334 C331 1.384 . S
N335 C327 1.427 . S
N335 C333 1.384 . S
H336 C342 0.930 . S
H337 C346 0.930 . S
H338 C351 0.929 . S
H339 C349 0.929 . S
H340 C344 0.929 . S
H341 C350 0.929 . S
C342 H336 0.930 . S
C342 C343 1.367 . S
C342 C350 1.378 . S
C343 C342 1.367 . S
C343 C351 1.433 . S
C344 H340 0.929 . S
C344 C346 1.378 . S
C344 C348 1.350 . S
C345 C348 1.463 . S
C345 C350 1.350 . S
C345 N353 1.427 . S
C346 H337 0.930 . S
C346 C344 1.378 . S
C346 C347 1.367 . S
C347 C346 1.367 . S
C347 C349 1.433 . S
C348 C344 1.350 . S
C348 C345 1.463 . S
C348 N352 1.427 . S
C349 H339 0.929 . S
C349 C347 1.433 . S
C349 N352 1.384 . S
C350 H341 0.929 . S
C350 C342 1.378 . S
C350 C345 1.350 . S
C351 H338 0.929 . S
C351 C343 1.433 . S
C351 N353 1.384 . S
N352 C348 1.427 . S
N352 C349 1.384 . S
N353 C345 1.427 . S
N353 C351 1.384 . S
H354 C360 0.930 . S
H355 C364 0.930 . S
H356 C369 0.929 . S
H357 C367 0.929 . S
H358 C362 0.929 . S
H359 C368 0.929 . S
C360 H354 0.930 . S
C360 C361 1.367 . S
C360 C368 1.378 . S
C361 C360 1.367 . S
C361 C369 1.433 . S
C362 H358 0.929 . S
C362 C364 1.378 . S
C362 C366 1.350 . S
C363 C366 1.463 . S
C363 C368 1.350 . S
C363 N371 1.427 . S
C364 H355 0.930 . S
C364 C362 1.378 . S
C364 C365 1.367 . S
C365 C364 1.367 . S
C365 C367 1.433 . S
C366 C362 1.350 . S
C366 C363 1.463 . S
C366 N370 1.427 . S
C367 H357 0.929 . S
C367 C365 1.433 . S
C367 N370 1.384 . S
C368 H359 0.929 . S
C368 C360 1.378 . S
C368 C363 1.350 . S
C369 H356 0.929 . S
C369 C361 1.433 . S
C369 N371 1.384 . S
N370 C366 1.427 . S
N370 C367 1.384 . S
N371 C363 1.427 . S
N371 C369 1.384 . S
H372 C378 0.930 . S
H373 C382 0.930 . S
H374 C387 0.929 . S
H375 C385 0.929 . S
H376 C380 0.929 . S
H377 C386 0.929 . S
C378 H372 0.930 . S
C378 C379 1.367 . S
C378 C386 1.378 . S
C379 C378 1.367 . S
C379 C387 1.433 . S
C380 H376 0.929 . S
C380 C382 1.378 . S
C380 C384 1.350 . S
C381 C384 1.463 . S
C381 C386 1.350 . S
C381 N389 1.427 . S
C382 H373 0.930 . S
C382 C380 1.378 . S
C382 C383 1.367 . S
C383 C382 1.367 . S
C383 C385 1.433 . S
C384 C380 1.350 . S
C384 C381 1.463 . S
C384 N388 1.427 . S
C385 H375 0.929 . S
C385 C383 1.433 . S
C385 N388 1.384 . S
C386 H377 0.929 . S
C386 C378 1.378 . S
C386 C381 1.350 . S
C387 H374 0.929 . S
C387 C379 1.433 . S
C387 N389 1.384 . S
N388 C384 1.427 . S
N388 C385 1.384 . S
N389 C381 1.427 . S
N389 C387 1.384 . S
H390 C396 0.930 . S
H391 C400 0.930 . S
H392 C405 0.929 . S
H393 C403 0.929 . S
H394 C398 0.929 . S
H395 C404 0.929 . S
C396 H390 0.930 . S
C396 C397 1.367 . S
C396 C404 1.378 . S
C397 C396 1.367 . S
C397 C405 1.433 . S
C398 H394 0.929 . S
C398 C400 1.378 . S
C398 C402 1.350 . S
C399 C402 1.463 . S
C399 C404 1.350 . S
C399 N407 1.427 . S
C400 H391 0.930 . S
C400 C398 1.378 . S
C400 C401 1.367 . S
C401 C400 1.367 . S
C401 C403 1.433 . S
C402 C398 1.350 . S
C402 C399 1.463 . S
C402 N406 1.427 . S
C403 H393 0.929 . S
C403 C401 1.433 . S
C403 N406 1.384 . S
C404 H395 0.929 . S
C404 C396 1.378 . S
C404 C399 1.350 . S
C405 H392 0.929 . S
C405 C397 1.433 . S
C405 N407 1.384 . S
N406 C402 1.427 . S
N406 C403 1.384 . S
N407 C399 1.427 . S
N407 C405 1.384 . S
H408 C414 0.930 . S
H409 C418 0.930 . S
H410 C423 0.929 1_556 S
H411 C421 0.929 . S
H412 C416 0.929 . S
H413 C422 0.929 . S
C414 H408 0.930 . S
C414 C415 1.367 . S
C414 C422 1.378 . S
C415 C414 1.367 . S
C415 C423 1.433 1_545 S
C416 H412 0.929 . S
C416 C418 1.378 . S
C416 C420 1.350 1_566 S
C417 C420 1.463 . S
C417 C422 1.350 . S
C417 N425 1.427 1_544 S
C418 H409 0.930 . S
C418 C416 1.378 . S
C418 C419 1.367 1_566 S
C419 C418 1.367 1_544 S
C419 C421 1.433 . S
C420 C416 1.350 1_544 S
C420 C417 1.463 . S
C420 N424 1.427 . S
C421 H411 0.929 . S
C421 C419 1.433 . S
C421 N424 1.384 . S
C422 H413 0.929 . S
C422 C414 1.378 . S
C422 C417 1.350 . S
C423 H410 0.929 1_554 S
C423 C415 1.433 1_565 S
C423 N425 1.384 1_554 S
N424 C420 1.427 . S
N424 C421 1.384 . S
N425 C417 1.427 1_566 S
N425 C423 1.384 1_556 S
H426 C432 0.930 . S
H427 C436 0.930 . S
H428 C441 0.929 . S
H429 C439 0.929 . S
H430 C434 0.929 . S
H431 C440 0.929 . S
C432 H426 0.930 . S
C432 C433 1.367 . S
C432 C440 1.378 . S
C433 C432 1.367 . S
C433 C441 1.433 . S
C434 H430 0.929 . S
C434 C436 1.378 . S
C434 C438 1.350 . S
C435 C438 1.463 . S
C435 C440 1.350 . S
C435 N443 1.427 . S
C436 H427 0.930 . S
C436 C434 1.378 . S
C436 C437 1.367 . S
C437 C436 1.367 . S
C437 C439 1.433 . S
C438 C434 1.350 . S
C438 C435 1.463 . S
C438 N442 1.427 . S
C439 H429 0.929 . S
C439 C437 1.433 . S
C439 N442 1.384 . S
C440 H431 0.929 . S
C440 C432 1.378 . S
C440 C435 1.350 . S
C441 H428 0.929 . S
C441 C433 1.433 . S
C441 N443 1.384 . S
N442 C438 1.427 . S
N442 C439 1.384 . S
N443 C435 1.427 . S
N443 C441 1.384 . S
H444 C450 0.930 . S
H445 C454 0.930 . S
H446 C459 0.929 . S
H447 C457 0.929 . S
H448 C452 0.929 . S
H449 C458 0.929 . S
C450 H444 0.930 . S
C450 C451 1.367 . S
C450 C458 1.378 . S
C451 C450 1.367 . S
C451 C459 1.433 1_545 S
C452 H448 0.929 . S
C452 C454 1.378 . S
C452 C456 1.350 1_565 S
C453 C456 1.463 1_455 S
C453 C458 1.350 . S
C453 N461 1.427 1_545 S
C454 H445 0.930 . S
C454 C452 1.378 . S
C454 C455 1.367 1_565 S
C455 C454 1.367 1_545 S
C455 C457 1.433 . S
C456 C452 1.350 1_545 S
C456 C453 1.463 1_655 S
C456 N460 1.427 . S
C457 H447 0.929 . S
C457 C455 1.433 . S
C457 N460 1.384 . S
C458 H449 0.929 . S
C458 C450 1.378 . S
C458 C453 1.350 . S
C459 H446 0.929 . S
C459 C451 1.433 1_565 S
C459 N461 1.384 . S
N460 C456 1.427 . S
N460 C457 1.384 . S
N461 C453 1.427 1_565 S
N461 C459 1.384 . S
H462 C468 0.933 . S
H463 C472 0.930 . S
H464 C477 0.929 . S
H465 C475 0.929 1_556 S
H466 C470 0.929 . S
H467 C476 0.929 . S
C468 H462 0.933 . S
C468 C469 1.364 1_556 S
C468 C476 1.378 . S
C469 C468 1.364 1_554 S
C469 C477 1.433 . S
C470 H466 0.929 . S
C470 C472 1.378 . S
C470 C474 1.350 . S
C471 C474 1.463 1_655 S
C471 C476 1.350 1_554 S
C471 N479 1.427 . S
C472 H463 0.930 . S
C472 C470 1.378 . S
C472 C473 1.367 . S
C473 C472 1.367 . S
C473 C475 1.433 . S
C474 C470 1.350 . S
C474 C471 1.463 1_455 S
C474 N478 1.431 . S
C475 H465 0.929 1_554 S
C475 C473 1.433 . S
C475 N478 1.383 . S
C476 H467 0.929 . S
C476 C468 1.378 . S
C476 C471 1.350 1_556 S
C477 H464 0.929 . S
C477 C469 1.433 . S
C477 N479 1.384 . S
N478 C474 1.431 . S
N478 C475 1.383 . S
N479 C471 1.427 . S
N479 C477 1.384 . S
H480 C486 0.931 . S
H481 C490 0.930 . S
H482 C495 0.929 . S
H483 C493 0.929 . S
H484 C488 0.929 . S
H485 C494 0.929 . S
C486 H480 0.931 . S
C486 C487 1.367 . S
C486 C494 1.378 . S
C487 C486 1.367 . S
C487 C495 1.433 . S
C488 H484 0.929 . S
C488 C490 1.378 . S
C488 C492 1.350 . S
C489 C492 1.463 . S
C489 C494 1.350 . S
C489 N497 1.427 . S
C490 H481 0.930 . S
C490 C488 1.378 . S
C490 C491 1.367 . S
C491 C490 1.367 . S
C491 C493 1.433 . S
C492 C488 1.350 . S
C492 C489 1.463 . S
C492 N496 1.427 . S
C493 H483 0.929 . S
C493 C491 1.433 . S
C493 N496 1.384 . S
C494 H485 0.929 . S
C494 C486 1.378 . S
C494 C489 1.350 . S
C495 H482 0.929 . S
C495 C487 1.433 . S
C495 N497 1.384 . S
N496 C492 1.427 . S
N496 C493 1.384 . S
N497 C489 1.427 . S
N497 C495 1.384 . S
H498 C504 0.930 . S
H499 C508 0.930 . S
H500 C513 0.929 . S
H501 C511 0.929 . S
H502 C506 0.929 . S
H503 C512 0.929 . S
C504 H498 0.930 . S
C504 C505 1.367 1_554 S
C504 C512 1.378 . S
C505 C504 1.367 1_556 S
C505 C513 1.433 . S
C506 H502 0.929 . S
C506 C508 1.378 . S
C506 C510 1.350 . S
C507 C510 1.463 . S
C507 C512 1.350 1_556 S
C507 N515 1.427 . S
C508 H499 0.930 . S
C508 C506 1.378 . S
C508 C509 1.367 . S
C509 C508 1.367 . S
C509 C511 1.433 1_556 S
C510 C506 1.350 . S
C510 C507 1.463 . S
C510 N514 1.427 1_556 S
C511 H501 0.929 . S
C511 C509 1.433 1_554 S
C511 N514 1.384 . S
C512 H503 0.929 . S
C512 C504 1.378 . S
C512 C507 1.350 1_554 S
C513 H500 0.929 . S
C513 C505 1.433 . S
C513 N515 1.384 . S
N514 C510 1.427 1_554 S
N514 C511 1.384 . S
N515 C507 1.427 . S
N515 C513 1.384 . S
H516 C522 0.930 1_556 S
H517 C526 0.930 . S
H518 C531 0.929 . S
H519 C529 0.929 1_556 S
H520 C524 0.929 . S
H521 C530 0.929 1_556 S
C522 H516 0.930 1_554 S
C522 C523 1.367 . S
C522 C530 1.378 . S
C523 C522 1.367 . S
C523 C531 1.433 . S
C524 H520 0.929 . S
C524 C526 1.378 . S
C524 C528 1.350 . S
C525 C528 1.463 . S
C525 C530 1.350 . S
C525 N533 1.427 . S
C526 H517 0.930 . S
C526 C524 1.378 . S
C526 C527 1.367 . S
C527 C526 1.367 . S
C527 C529 1.433 . S
C528 C524 1.350 . S
C528 C525 1.463 . S
C528 N532 1.427 . S
C529 H519 0.929 1_554 S
C529 C527 1.433 . S
C529 N532 1.384 . S
C530 H521 0.929 1_554 S
C530 C522 1.378 . S
C530 C525 1.350 . S
C531 H518 0.929 . S
C531 C523 1.433 . S
C531 N533 1.384 . S
N532 C528 1.427 . S
N532 C529 1.384 . S
N533 C525 1.427 . S
N533 C531 1.384 . S
H534 C540 0.930 . S
H535 C544 0.930 . S
H536 C549 0.929 . S
H537 C547 0.929 . S
H538 C542 0.929 . S
H539 C548 0.929 . S
C540 H534 0.930 . S
C540 C541 1.367 . S
C540 C548 1.378 . S
C541 C540 1.367 . S
C541 C549 1.433 1_554 S
C542 H538 0.929 . S
C542 C544 1.378 . S
C542 C546 1.350 1_556 S
C543 C546 1.463 . S
C543 C548 1.350 . S
C543 N551 1.427 1_554 S
C544 H535 0.930 . S
C544 C542 1.378 . S
C544 C545 1.367 1_556 S
C545 C544 1.367 1_554 S
C545 C547 1.433 . S
C546 C542 1.350 1_554 S
C546 C543 1.463 . S
C546 N550 1.427 . S
C547 H537 0.929 . S
C547 C545 1.433 . S
C547 N550 1.384 . S
C548 H539 0.929 . S
C548 C540 1.378 . S
C548 C543 1.350 . S
C549 H536 0.929 . S
C549 C541 1.433 1_556 S
C549 N551 1.384 . S
N550 C546 1.427 . S
N550 C547 1.384 . S
N551 C543 1.427 1_556 S
N551 C549 1.384 . S
H552 C558 0.930 . S
H553 C562 0.930 . S
H554 C567 0.929 . S
H555 C565 0.929 . S
H556 C560 0.929 . S
H557 C566 0.929 . S
C558 H552 0.930 . S
C558 C559 1.367 . S
C558 C566 1.378 . S
C559 C558 1.367 . S
C559 C567 1.433 . S
C560 H556 0.929 . S
C560 C562 1.378 . S
C560 C564 1.350 . S
C561 C564 1.463 . S
C561 C566 1.350 . S
C561 N569 1.427 . S
C562 H553 0.930 . S
C562 C560 1.378 . S
C562 C563 1.367 . S
C563 C562 1.367 . S
C563 C565 1.433 . S
C564 C560 1.350 . S
C564 C561 1.463 . S
C564 N568 1.427 . S
C565 H555 0.929 . S
C565 C563 1.433 . S
C565 N568 1.384 . S
C566 H557 0.929 . S
C566 C558 1.378 . S
C566 C561 1.350 . S
C567 H554 0.929 . S
C567 C559 1.433 . S
C567 N569 1.384 . S
N568 C564 1.427 . S
N568 C565 1.384 . S
N569 C561 1.427 . S
N569 C567 1.384 . S
H570 C576 0.930 . S
H571 C580 0.930 . S
H572 C585 0.929 . S
H573 C583 0.929 . S
H574 C578 0.929 . S
H575 C584 0.929 . S
C576 H570 0.930 . S
C576 C577 1.367 . S
C576 C584 1.378 . S
C577 C576 1.367 . S
C577 C585 1.433 . S
C578 H574 0.929 . S
C578 C580 1.378 . S
C578 C582 1.350 . S
C579 C582 1.463 . S
C579 C584 1.350 . S
C579 N587 1.427 . S
C580 H571 0.930 . S
C580 C578 1.378 . S
C580 C581 1.367 . S
C581 C580 1.367 . S
C581 C583 1.433 . S
C582 C578 1.350 . S
C582 C579 1.463 . S
C582 N586 1.427 . S
C583 H573 0.929 . S
C583 C581 1.433 . S
C583 N586 1.384 . S
C584 H575 0.929 . S
C584 C576 1.378 . S
C584 C579 1.350 . S
C585 H572 0.929 . S
C585 C577 1.433 . S
C585 N587 1.384 . S
N586 C582 1.427 . S
N586 C583 1.384 . S
N587 C579 1.427 . S
N587 C585 1.384 . S
H588 C594 0.930 . S
H589 C598 0.930 . S
H590 C603 0.929 . S
H591 C601 0.929 . S
H592 C596 0.929 . S
H593 C602 0.929 . S
C594 H588 0.930 . S
C594 C595 1.367 . S
C594 C602 1.378 . S
C595 C594 1.367 . S
C595 C603 1.433 . S
C596 H592 0.929 . S
C596 C598 1.378 . S
C596 C600 1.350 . S
C597 C600 1.463 . S
C597 C602 1.350 . S
C597 N605 1.427 . S
C598 H589 0.930 . S
C598 C596 1.378 . S
C598 C599 1.367 . S
C599 C598 1.367 . S
C599 C601 1.433 . S
C600 C596 1.350 . S
C600 C597 1.463 . S
C600 N604 1.427 . S
C601 H591 0.929 . S
C601 C599 1.433 . S
C601 N604 1.384 . S
C602 H593 0.929 . S
C602 C594 1.378 . S
C602 C597 1.350 . S
C603 H590 0.929 . S
C603 C595 1.433 . S
C603 N605 1.384 . S
N604 C600 1.427 . S
N604 C601 1.384 . S
N605 C597 1.427 . S
N605 C603 1.384 . S
H606 C612 0.930 . S
H607 C616 0.930 . S
H608 C621 0.929 . S
H609 C619 0.929 . S
H610 C614 0.929 . S
H611 C620 0.929 . S
C612 H606 0.930 . S
C612 C613 1.367 . S
C612 C620 1.378 . S
C613 C612 1.367 . S
C613 C621 1.433 . S
C614 H610 0.929 . S
C614 C616 1.378 . S
C614 C618 1.350 . S
C615 C618 1.463 . S
C615 C620 1.350 . S
C615 N623 1.427 . S
C616 H607 0.930 . S
C616 C614 1.378 . S
C616 C617 1.367 . S
C617 C616 1.367 . S
C617 C619 1.433 . S
C618 C614 1.350 . S
C618 C615 1.463 . S
C618 N622 1.427 . S
C619 H609 0.929 . S
C619 C617 1.433 . S
C619 N622 1.384 . S
C620 H611 0.929 . S
C620 C612 1.378 . S
C620 C615 1.350 . S
C621 H608 0.929 . S
C621 C613 1.433 . S
C621 N623 1.384 . S
N622 C618 1.427 . S
N622 C619 1.384 . S
N623 C615 1.427 . S
N623 C621 1.384 . S
C271 N71 1.599 . S
C275 N14 1.594 . S
C289 N38 1.600 . S
C293 N113 1.596 . S
C307 N80 1.597 . S
C311 N5 1.601 . S
C325 N104 1.602 . S
C329 N47 1.598 . S
C343 N146 1.593 . S
C347 N203 1.598 . S
C361 N245 1.595 . S
C365 N170 1.600 . S
C379 N137 1.598 . S
C383 N212 1.593 . S
C397 N179 1.593 . S
C401 N236 1.598 . S
C415 C50 1.401 . S
C419 C17 1.399 . S
C433 C83 1.399 . S
C437 C116 1.401 . S
C451 C182 1.401 . S
C455 C149 1.400 . S
C469 C215 1.401 . S
C473 C248 1.399 . S
C487 C259 0.672 . S
C491 C8 0.676 . S
C505 C206 0.672 . S
C509 C61 0.681 . S
C523 C239 0.686 . S
C527 C28 0.698 . S
C541 C41 0.687 . S
C545 C226 0.676 . S
C559 C193 0.695 . S
C563 C74 0.681 . S
C577 C127 0.677 . S
C581 C140 0.672 . S
C595 C173 0.689 . S
C599 C94 0.699 . S
C613 C107 0.695 . S
C617 C160 0.688 . S
