# Generated by pormake.
# Topology uop, (4)-cn, num edge types: 1
# Building blocks:
#     Node 0, Type 0, BuildingBlock: ICAMEG_clean_sbu_1, # of connection points: 4
#     Node 1, Type 0, BuildingBlock: ICAMEG_clean_sbu_1, # of connection points: 4
#     Node 2, Type 0, BuildingBlock: ICAMEG_clean_sbu_1, # of connection points: 4
#     Node 3, Type 0, BuildingBlock: ICAMEG_clean_sbu_1, # of connection points: 4
#     Node 4, Type 0, BuildingBlock: ICAMEG_clean_sbu_1, # of connection points: 4
#     Node 5, Type 0, BuildingBlock: ICAMEG_clean_sbu_1, # of connection points: 4
#     Node 6, Type 0, BuildingBlock: ICAMEG_clean_sbu_1, # of connection points: 4
#     Node 7, Type 0, BuildingBlock: ICAMEG_clean_sbu_1, # of connection points: 4
#     Node 8, Type 0, BuildingBlock: ICAMEG_clean_sbu_1, # of connection points: 4
#     Node 9, Type 0, BuildingBlock: ICAMEG_clean_sbu_1, # of connection points: 4
#     Node 10, Type 0, BuildingBlock: ICAMEG_clean_sbu_1, # of connection points: 4
#     Node 11, Type 0, BuildingBlock: ICAMEG_clean_sbu_1, # of connection points: 4
#     Edge 12, Type (0, 0), BuildingBlock: OJICUG_clean_linker_0, # of connection points: 2
#     Edge 13, Type (0, 0), BuildingBlock: OJICUG_clean_linker_0, # of connection points: 2
#     Edge 14, Type (0, 0), BuildingBlock: OJICUG_clean_linker_0, # of connection points: 2
#     Edge 15, Type (0, 0), BuildingBlock: OJICUG_clean_linker_0, # of connection points: 2
#     Edge 16, Type (0, 0), BuildingBlock: OJICUG_clean_linker_0, # of connection points: 2
#     Edge 17, Type (0, 0), BuildingBlock: OJICUG_clean_linker_0, # of connection points: 2
#     Edge 18, Type (0, 0), BuildingBlock: OJICUG_clean_linker_0, # of connection points: 2
#     Edge 19, Type (0, 0), BuildingBlock: OJICUG_clean_linker_0, # of connection points: 2
#     Edge 20, Type (0, 0), BuildingBlock: OJICUG_clean_linker_0, # of connection points: 2
#     Edge 21, Type (0, 0), BuildingBlock: OJICUG_clean_linker_0, # of connection points: 2
#     Edge 22, Type (0, 0), BuildingBlock: OJICUG_clean_linker_0, # of connection points: 2
#     Edge 23, Type (0, 0), BuildingBlock: OJICUG_clean_linker_0, # of connection points: 2
#     Edge 24, Type (0, 0), BuildingBlock: OJICUG_clean_linker_0, # of connection points: 2
#     Edge 25, Type (0, 0), BuildingBlock: OJICUG_clean_linker_0, # of connection points: 2
#     Edge 26, Type (0, 0), BuildingBlock: OJICUG_clean_linker_0, # of connection points: 2
#     Edge 27, Type (0, 0), BuildingBlock: OJICUG_clean_linker_0, # of connection points: 2
#     Edge 28, Type (0, 0), BuildingBlock: OJICUG_clean_linker_0, # of connection points: 2
#     Edge 29, Type (0, 0), BuildingBlock: OJICUG_clean_linker_0, # of connection points: 2
#     Edge 30, Type (0, 0), BuildingBlock: OJICUG_clean_linker_0, # of connection points: 2
#     Edge 31, Type (0, 0), BuildingBlock: OJICUG_clean_linker_0, # of connection points: 2
#     Edge 32, Type (0, 0), BuildingBlock: OJICUG_clean_linker_0, # of connection points: 2
#     Edge 33, Type (0, 0), BuildingBlock: OJICUG_clean_linker_0, # of connection points: 2
#     Edge 34, Type (0, 0), BuildingBlock: OJICUG_clean_linker_0, # of connection points: 2
#     Edge 35, Type (0, 0), BuildingBlock: OJICUG_clean_linker_0, # of connection points: 2
# Relax obj value: 0.107
# Max RMSD: 0.101
# Mean RMSD: 0.101
data_MOF--net-uop--node1-ICAMEG_clean_sbu_1--edge1-OJICUG_clean_linker_0
_symmetry_space_group_name_H-M    P1
_symmetry_Int_Tables_number       1
_symmetry_cell_setting            triclinic
loop_
_symmetry_equiv_pos_as_xyz
'x, y, z'
_cell_length_a     26.293529
_cell_length_b     26.22718
_cell_length_c     32.544474
_cell_angle_alpha  89.896958
_cell_angle_beta   90.21082
_cell_angle_gamma 120.08535
loop_
_atom_site_label
_atom_site_type_symbol
_atom_site_fract_x
_atom_site_fract_y
_atom_site_fract_z
_atom_type_partial_charge
Co0 Co 0.30018 0.4478 0.22748 0.0
Co1 Co 0.25381 0.32457 0.17166 0.0
O2 O 0.23957 0.38633 0.19297 0.0
C3 C 0.26752 0.51498 0.17074 0.0
O4 O 0.27291 0.48673 0.13932 0.0
C5 C 0.12553 0.25815 0.19415 0.0
O6 O 0.13948 0.27924 0.23164 0.0
O7 O 0.25538 0.30025 0.22976 0.0
O8 O 0.32216 0.39094 0.25054 0.0
H9 H 0.35919 0.21026 0.16525 0.0
H10 H 0.17631 0.41959 0.23304 0.0
O11 O 0.27733 0.50433 0.20691 0.0
H12 H 0.23543 0.40783 0.37517 0.0
H13 H 0.40523 0.64881 0.29156 0.0
H14 H 0.42016 0.47553 0.25267 0.0
H15 H 0.30562 0.43363 0.31808 0.0
H16 H 0.31699 0.55698 0.27023 0.0
O17 O 0.16587 0.27024 0.16782 0.0
H18 H 0.33753 0.28437 0.19261 0.0
H19 H 0.19539 0.22928 0.10867 0.0
H20 H 0.50748 0.5638 0.27841 0.0
H21 H 0.10465 0.39372 0.28925 0.0
H22 H 0.50135 0.65271 0.29534 0.0
H23 H 0.13415 0.3879 0.36087 0.0
O24 O 0.35673 0.46828 0.18195 0.0
H25 H 0.17519 0.38995 0.0543 0.0
H26 H 0.3303 0.34824 0.09832 0.0
H27 H 0.33126 0.38269 0.02774 0.0
H28 H 0.25366 0.404 0.00541 0.0
H29 H 0.17627 0.35605 0.12491 0.0
H30 H 0.21339 0.15175 0.0819 0.0
H31 H 0.2963 0.1422 0.10986 0.0
O32 O 0.3432 0.37852 0.17276 0.0
C33 C 0.29187 0.33548 0.25637 0.0
C34 C 0.32254 0.21325 0.15299 0.0
C35 C 0.2409 0.18076 0.10616 0.0
N36 N 0.26567 0.26161 0.15198 0.0
C37 C 0.31041 0.25569 0.16816 0.0
C38 C 0.23066 0.22446 0.12164 0.0
C39 C 0.28742 0.17542 0.12185 0.0
C40 C 0.18941 0.41716 0.26417 0.0
N41 N 0.24503 0.42819 0.27228 0.0
C42 C 0.14868 0.40245 0.29585 0.0
C43 C 0.16525 0.39911 0.33605 0.0
C44 C 0.22207 0.41035 0.34408 0.0
C45 C 0.26162 0.42497 0.31163 0.0
C46 C 0.40848 0.61045 0.28379 0.0
C47 C 0.41571 0.51231 0.26261 0.0
C48 C 0.35866 0.55834 0.27137 0.0
N49 N 0.36313 0.51091 0.25915 0.0
C50 C 0.46589 0.5628 0.27653 0.0
C51 C 0.46241 0.6126 0.28617 0.0
C52 C 0.37589 0.43469 0.17084 0.0
C53 C 0.20933 0.38079 0.06372 0.0
C54 C 0.2963 0.35752 0.08891 0.0
C55 C 0.29701 0.37686 0.04884 0.0
C56 C 0.25328 0.38867 0.03629 0.0
N57 N 0.2532 0.35008 0.11575 0.0
C58 C 0.21002 0.36135 0.1036 0.0
Co59 Co 0.83954 0.30535 0.54792 0.0
Co60 Co 0.91868 0.26554 0.48902 0.0
O61 O 0.8425 0.24826 0.51139 0.0
C62 C 0.71828 0.2426 0.50832 0.0
O63 O 0.72352 0.20008 0.4914 0.0
C64 C 0.86209 0.13727 0.51124 0.0
O65 O 0.85862 0.15155 0.54935 0.0
O66 O 0.94676 0.26636 0.54666 0.0
O67 O 0.91865 0.32808 0.57069 0.0
H68 H 0.13772 0.38036 0.47604 0.0
H69 H 0.75708 0.17345 0.55163 0.0
O70 O 0.76062 0.28484 0.52731 0.0
H71 H 0.81253 0.23705 0.69492 0.0
H72 H 0.73749 0.39533 0.62344 0.0
H73 H 0.92788 0.42737 0.57317 0.0
H74 H 0.85232 0.30884 0.63843 0.0
H75 H 0.74598 0.31259 0.5958 0.0
O76 O 0.88649 0.17755 0.48405 0.0
H77 H 0.04277 0.35339 0.50731 0.0
H78 H 0.95559 0.20943 0.42473 0.0
H79 H 0.92189 0.51048 0.60275 0.0
H80 H 0.71561 0.10032 0.60677 0.0
H81 H 0.82539 0.49527 0.62599 0.0
H82 H 0.74318 0.13163 0.67929 0.0
O83 O 0.87482 0.36524 0.50394 0.0
H84 H 0.76723 0.19267 0.37651 0.0
H85 H 0.9687 0.34356 0.41562 0.0
H86 H 0.9306 0.34791 0.34719 0.0
H87 H 0.82887 0.27252 0.32742 0.0
H88 H 0.80767 0.18888 0.44418 0.0
H89 H 0.0508 0.23159 0.39511 0.0
H90 H 0.14289 0.31803 0.42049 0.0
O91 O 0.95201 0.3547 0.49153 0.0
C92 C 0.94541 0.29913 0.57522 0.0
C93 C 0.09834 0.34185 0.46521 0.0
C94 C 0.04936 0.25863 0.41965 0.0
N95 N 0.99357 0.28026 0.46762 0.0
C96 C 0.04416 0.32684 0.48247 0.0
C97 C 0.99563 0.24594 0.43684 0.0
C98 C 0.10101 0.30715 0.43387 0.0
C99 C 0.76798 0.18837 0.58281 0.0
N100 N 0.80507 0.24656 0.59159 0.0
C101 C 0.74488 0.14628 0.6141 0.0
C102 C 0.7605 0.1638 0.65475 0.0
C103 C 0.79928 0.22287 0.66353 0.0
C104 C 0.8214 0.26358 0.6314 0.0
C105 C 0.77949 0.40263 0.61258 0.0
C106 C 0.88627 0.41967 0.58491 0.0
C107 C 0.78466 0.3559 0.59697 0.0
N108 N 0.83711 0.36518 0.58186 0.0
C109 C 0.88303 0.4672 0.60115 0.0
C110 C 0.82892 0.45874 0.61413 0.0
C111 C 0.92734 0.38624 0.49164 0.0
C112 C 0.81176 0.22549 0.38462 0.0
C113 C 0.92472 0.30998 0.40703 0.0
C114 C 0.90334 0.3128 0.36825 0.0
C115 C 0.8463 0.27043 0.35716 0.0
N116 N 0.89047 0.26587 0.43388 0.0
C117 C 0.83484 0.22366 0.42295 0.0
Co118 Co 0.55843 0.8543 0.89081 0.0
Co119 Co 0.67782 0.92234 0.83052 0.0
O120 O 0.6165 0.84945 0.85645 0.0
C121 C 0.48482 0.75343 0.83693 0.0
O122 O 0.51106 0.78702 0.80507 0.0
C123 C 0.74261 0.85861 0.85356 0.0
O124 O 0.72403 0.85462 0.89148 0.0
O125 O 0.70792 0.95334 0.88682 0.0
O126 O 0.61987 0.93386 0.91062 0.0
H127 H 0.79817 0.14093 0.81168 0.0
H128 H 0.57909 0.75375 0.9002 0.0
O129 O 0.49837 0.77403 0.87298 0.0
H130 H 0.60684 0.84025 0.03864 0.0
H131 H 0.35726 0.77436 0.95117 0.0
H132 H 0.54186 0.9542 0.91608 0.0
H133 H 0.58001 0.88203 0.98008 0.0
H134 H 0.44464 0.76834 0.93274 0.0
O135 O 0.72912 0.88517 0.82648 0.0
H136 H 0.72538 0.04962 0.8455 0.0
H137 H 0.76462 0.94859 0.76322 0.0
H138 H 0.45839 0.96246 0.94033 0.0
H139 H 0.60529 0.71008 0.95798 0.0
H140 H 0.36403 0.872 0.95589 0.0
H141 H 0.61918 0.7533 0.02778 0.0
O142 O 0.53795 0.88874 0.84416 0.0
H143 H 0.58143 0.76072 0.72673 0.0
H144 H 0.64989 0.96978 0.75547 0.0
H145 H 0.59758 0.92579 0.6906 0.0
H146 H 0.56126 0.82008 0.67644 0.0
H147 H 0.63562 0.80698 0.79039 0.0
H148 H 0.84106 0.03956 0.73014 0.0
H149 H 0.85788 0.13681 0.75404 0.0
O150 O 0.62772 0.96207 0.83186 0.0
C151 C 0.67565 0.95812 0.91411 0.0
C152 C 0.79209 0.09917 0.80125 0.0
C153 C 0.81577 0.04214 0.75539 0.0
N154 N 0.74028 0.99376 0.8061 0.0
C155 C 0.75033 0.0471 0.82007 0.0
C156 C 0.77274 0.99079 0.77446 0.0
C157 C 0.8252 0.09666 0.7688 0.0
C158 C 0.58476 0.77254 0.93056 0.0
N159 N 0.57767 0.82007 0.93685 0.0
C160 C 0.59975 0.74777 0.96312 0.0
C161 C 0.60767 0.77213 0.00228 0.0
C162 C 0.60066 0.82084 0.00839 0.0
C163 C 0.58544 0.84429 0.97512 0.0
C164 C 0.39823 0.81413 0.94442 0.0
C165 C 0.50282 0.91458 0.92562 0.0
C166 C 0.44794 0.81098 0.93346 0.0
N167 N 0.4988 0.86058 0.92235 0.0
C168 C 0.45496 0.91962 0.93855 0.0
C169 C 0.40199 0.86888 0.94716 0.0
C170 C 0.57199 0.94067 0.83169 0.0
C171 C 0.59731 0.80696 0.73231 0.0
C172 C 0.63576 0.92417 0.74897 0.0
C173 C 0.60595 0.89947 0.71226 0.0
C174 C 0.58583 0.84021 0.70425 0.0
N175 N 0.6456 0.89086 0.77675 0.0
C176 C 0.62818 0.83343 0.76832 0.0
Co177 Co 0.70554 0.54609 0.23882 0.0
Co178 Co 0.75244 0.65392 0.16764 0.0
O179 O 0.76613 0.59803 0.19978 0.0
C180 C 0.73446 0.46602 0.1951 0.0
O181 O 0.73346 0.49147 0.16062 0.0
C182 C 0.88115 0.72418 0.18897 0.0
O183 O 0.86773 0.71002 0.22775 0.0
O184 O 0.75227 0.69281 0.22049 0.0
O185 O 0.68618 0.60892 0.25095 0.0
H186 H 0.648 0.76419 0.13232 0.0
H187 H 0.82856 0.57298 0.24902 0.0
O188 O 0.72501 0.48324 0.229 0.0
H189 H 0.77454 0.62235 0.38202 0.0
H190 H 0.59699 0.36369 0.32431 0.0
H191 H 0.58754 0.52783 0.25852 0.0
H192 H 0.70289 0.58281 0.32509 0.0
H193 H 0.68682 0.44869 0.29693 0.0
O194 O 0.84039 0.7067 0.16206 0.0
H195 H 0.66913 0.69862 0.17394 0.0
H196 H 0.81122 0.73185 0.0954 0.0
H197 H 0.4993 0.44821 0.2904 0.0
H198 H 0.90181 0.61255 0.3052 0.0
H199 H 0.50241 0.36301 0.32059 0.0
H200 H 0.87493 0.63762 0.37223 0.0
O201 O 0.648 0.51532 0.19323 0.0
H202 H 0.82727 0.55823 0.07008 0.0
H203 H 0.67428 0.611 0.0938 0.0
H204 H 0.67019 0.55643 0.03121 0.0
H205 H 0.74636 0.52881 0.0193 0.0
H206 H 0.82933 0.61225 0.13264 0.0
H207 H 0.79446 0.80165 0.05485 0.0
H208 H 0.71204 0.81799 0.07307 0.0
O209 O 0.66296 0.60148 0.17041 0.0
C210 C 0.71708 0.66495 0.2499 0.0
C211 C 0.68464 0.75835 0.12443 0.0
C212 C 0.76664 0.77906 0.08087 0.0
N213 N 0.74104 0.71095 0.13696 0.0
C214 C 0.69642 0.72065 0.14765 0.0
C215 C 0.77623 0.73985 0.10418 0.0
C216 C 0.72034 0.78813 0.09105 0.0
C217 C 0.8166 0.58362 0.27818 0.0
N218 N 0.76161 0.57558 0.28379 0.0
C219 C 0.8582 0.60604 0.30985 0.0
C220 C 0.8431 0.62012 0.34745 0.0
C221 C 0.7868 0.61156 0.35298 0.0
C222 C 0.74639 0.58908 0.32063 0.0
C223 C 0.59508 0.40043 0.31081 0.0
C224 C 0.59091 0.49351 0.27443 0.0
C225 C 0.64571 0.44846 0.29488 0.0
N226 N 0.64259 0.49279 0.27507 0.0
C227 C 0.54013 0.44769 0.29177 0.0
C228 C 0.542 0.40009 0.30897 0.0
C229 C 0.62964 0.54577 0.17499 0.0
C230 C 0.79362 0.5698 0.07501 0.0
C231 C 0.70785 0.5994 0.08885 0.0
C232 C 0.70536 0.56862 0.05325 0.0
C233 C 0.74831 0.55337 0.04652 0.0
N234 N 0.75184 0.61451 0.11704 0.0
C235 C 0.79475 0.60068 0.11027 0.0
Co236 Co 0.16763 0.72213 0.54044 0.0
Co237 Co 0.07765 0.76259 0.49542 0.0
O238 O 0.15712 0.77958 0.50936 0.0
C239 C 0.27777 0.7866 0.48872 0.0
O240 O 0.26876 0.82943 0.47727 0.0
C241 C 0.13739 0.88902 0.52236 0.0
O242 O 0.14613 0.87233 0.55848 0.0
O243 O 0.05985 0.7587 0.55554 0.0
O244 O 0.09432 0.69879 0.57211 0.0
H245 H 0.8583 0.64135 0.49223 0.0
H246 H 0.24895 0.85441 0.54307 0.0
O247 O 0.24099 0.74369 0.51043 0.0
H248 H 0.22798 0.78819 0.68662 0.0
H249 H 0.28321 0.63084 0.59485 0.0
H250 H 0.08507 0.6004 0.56929 0.0
H251 H 0.17596 0.71714 0.63129 0.0
H252 H 0.27048 0.71345 0.57242 0.0
O253 O 0.1089 0.85061 0.49462 0.0
H254 H 0.95662 0.67231 0.51993 0.0
H255 H 0.03114 0.82192 0.44147 0.0
H256 H 0.09584 0.5177 0.59413 0.0
H257 H 0.30233 0.92669 0.59707 0.0
H258 H 0.19556 0.53196 0.60567 0.0
H259 H 0.29225 0.8941 0.66974 0.0
O260 O 0.12341 0.66272 0.49751 0.0
H261 H 0.1995 0.8536 0.36902 0.0
H262 H 0.01676 0.6863 0.42287 0.0
H263 H 0.03681 0.69276 0.34863 0.0
H264 H 0.12774 0.77763 0.32118 0.0
H265 H 0.17789 0.84528 0.44323 0.0
H266 H 0.93275 0.79531 0.41552 0.0
H267 H 0.84575 0.70306 0.43935 0.0
O268 O 0.04498 0.67352 0.49468 0.0
C269 C 0.06789 0.72675 0.58155 0.0
C270 C 0.89573 0.68177 0.48152 0.0
C271 C 0.93761 0.7681 0.43845 0.0
N272 N 0.99973 0.74825 0.48181 0.0
C273 C 0.95167 0.69932 0.49696 0.0
C274 C 0.99315 0.78341 0.45375 0.0
C275 C 0.88877 0.71633 0.45192 0.0
C276 C 0.24553 0.83885 0.574 0.0
N277 N 0.21129 0.78035 0.58324 0.0
C278 C 0.27541 0.88051 0.60479 0.0
C279 C 0.26958 0.86228 0.64555 0.0
C280 C 0.23365 0.80293 0.65501 0.0
C281 C 0.20453 0.76263 0.62338 0.0
C282 C 0.23954 0.62392 0.58953 0.0
C283 C 0.12859 0.60786 0.57572 0.0
C284 C 0.23199 0.67061 0.5768 0.0
N285 N 0.17705 0.66191 0.56892 0.0
C286 C 0.13441 0.56048 0.58928 0.0
C287 C 0.19035 0.56843 0.59556 0.0
C288 C 0.06909 0.64185 0.49029 0.0
C289 C 0.1594 0.81664 0.38064 0.0
C290 C 0.05718 0.72277 0.41133 0.0
C291 C 0.06814 0.7263 0.3692 0.0
C292 C 0.11936 0.77386 0.35381 0.0
N293 N 0.09591 0.76568 0.43739 0.0
C294 C 0.14692 0.8117 0.42262 0.0
Co295 Co 0.47394 0.1799 0.8926 0.0
Co296 Co 0.35238 0.09392 0.83673 0.0
O297 O 0.41211 0.17229 0.85558 0.0
C298 C 0.54299 0.27285 0.83158 0.0
O299 O 0.51942 0.2344 0.80161 0.0
C300 C 0.28339 0.15454 0.85447 0.0
O301 O 0.30495 0.16516 0.89195 0.0
O302 O 0.32859 0.07123 0.89554 0.0
O303 O 0.41968 0.10292 0.9191 0.0
H304 H 0.24501 0.87338 0.83766 0.0
H305 H 0.4407 0.27236 0.88838 0.0
O306 O 0.52835 0.25749 0.86849 0.0
H307 H 0.42729 0.21921 0.03498 0.0
H308 H 0.66682 0.29385 0.96672 0.0
H309 H 0.51166 0.09684 0.9223 0.0
H310 H 0.4585 0.17156 0.98359 0.0
H311 H 0.57433 0.27983 0.93705 0.0
O312 O 0.29588 0.12459 0.82987 0.0
H313 H 0.31661 0.97234 0.86232 0.0
H314 H 0.25695 0.04932 0.77333 0.0
H315 H 0.60203 0.10841 0.95392 0.0
H316 H 0.40951 0.32147 0.93873 0.0
H317 H 0.68157 0.20799 0.97461 0.0
H318 H 0.40245 0.29478 0.01262 0.0
O319 O 0.49734 0.1399 0.85144 0.0
H320 H 0.4231 0.23378 0.71717 0.0
H321 H 0.37655 0.03704 0.76581 0.0
H322 H 0.41391 0.06802 0.69549 0.0
H323 H 0.43791 0.16727 0.67082 0.0
H324 H 0.38392 0.20044 0.78685 0.0
H325 H 0.18197 0.95057 0.74913 0.0
H326 H 0.17607 0.8616 0.78094 0.0
O327 O 0.40866 0.06198 0.84062 0.0
C328 C 0.36404 0.07444 0.92388 0.0
C329 C 0.24646 0.91151 0.8237 0.0
C330 C 0.21142 0.95498 0.77395 0.0
N331 N 0.29138 0.01657 0.81903 0.0
C332 C 0.28743 0.96784 0.83735 0.0
C333 C 0.25367 0.01077 0.78799 0.0
C334 C 0.20812 0.90507 0.79182 0.0
C335 C 0.43785 0.26066 0.92049 0.0
N336 N 0.45106 0.21888 0.93302 0.0
C337 C 0.42015 0.28857 0.94886 0.0
C338 C 0.41618 0.27357 0.9903 0.0
C339 C 0.43006 0.23115 0.00287 0.0
C340 C 0.44756 0.20417 0.97363 0.0
C341 C 0.63277 0.25038 0.95729 0.0
C342 C 0.54484 0.13992 0.93287 0.0
C343 C 0.58019 0.24213 0.94056 0.0
N344 N 0.53779 0.18772 0.92731 0.0
C345 C 0.59636 0.1463 0.95023 0.0
C346 C 0.64102 0.20215 0.96175 0.0
C347 C 0.46483 0.08682 0.83991 0.0
C348 C 0.41205 0.19018 0.72735 0.0
C349 C 0.38603 0.07998 0.75514 0.0
C350 C 0.40732 0.09731 0.71529 0.0
C351 C 0.42067 0.15295 0.70145 0.0
N352 N 0.37765 0.11676 0.78038 0.0
C353 C 0.38994 0.17107 0.76682 0.0
Co354 Co 0.54628 0.7252 0.43594 0.0
Co355 Co 0.67126 0.7614 0.48783 0.0
O356 O 0.61125 0.78047 0.47045 0.0
C357 C 0.49541 0.78765 0.48496 0.0
O358 O 0.54563 0.82949 0.49969 0.0
C359 C 0.74003 0.88916 0.4645 0.0
O360 O 0.71651 0.87429 0.4277 0.0
O361 O 0.69104 0.75928 0.42877 0.0
O362 O 0.59845 0.70197 0.40697 0.0
H363 H 0.76463 0.63603 0.49728 0.0
H364 H 0.59754 0.85733 0.43586 0.0
O365 O 0.49211 0.74638 0.46275 0.0
H366 H 0.5695 0.7989 0.29033 0.0
H367 H 0.34608 0.64052 0.37139 0.0
H368 H 0.5065 0.60316 0.40813 0.0
H369 H 0.54293 0.72479 0.34467 0.0
H370 H 0.44111 0.7214 0.39617 0.0
O371 O 0.72906 0.84917 0.49119 0.0
H372 H 0.70142 0.66976 0.46602 0.0
H373 H 0.77229 0.81734 0.54634 0.0
H374 H 0.41286 0.52159 0.38223 0.0
H375 H 0.62382 0.93272 0.38281 0.0
H376 H 0.33084 0.53939 0.36553 0.0
H377 H 0.61006 0.90397 0.30918 0.0
O378 O 0.52549 0.6638 0.47833 0.0
H379 H 0.62905 0.84746 0.61211 0.0
H380 H 0.64774 0.68165 0.55924 0.0
H381 H 0.62568 0.68397 0.63231 0.0
H382 H 0.61751 0.76747 0.6592 0.0
H383 H 0.6503 0.84302 0.53883 0.0
H384 H 0.84023 0.78802 0.57589 0.0
H385 H 0.83486 0.69534 0.55283 0.0
O386 O 0.61343 0.67263 0.48658 0.0
C387 C 0.65387 0.72834 0.40093 0.0
C388 C 0.76755 0.67655 0.50771 0.0
C389 C 0.80987 0.76181 0.5518 0.0
N390 N 0.73235 0.7449 0.50479 0.0
C391 C 0.73156 0.69572 0.49021 0.0
C392 C 0.7719 0.77869 0.53446 0.0
C393 C 0.80683 0.70978 0.53882 0.0
C394 C 0.58943 0.84358 0.40432 0.0
N395 N 0.5662 0.78561 0.39387 0.0
C396 C 0.60528 0.88694 0.37416 0.0
C397 C 0.59779 0.87088 0.33288 0.0
C398 C 0.57501 0.81198 0.3223 0.0
C399 C 0.55972 0.76997 0.35331 0.0
C400 C 0.38119 0.63204 0.37925 0.0
C401 C 0.47201 0.61199 0.39933 0.0
C402 C 0.43529 0.67776 0.39308 0.0
N403 N 0.4793 0.66705 0.40421 0.0
C404 C 0.4187 0.56531 0.38523 0.0
C405 C 0.37264 0.57528 0.37599 0.0
C406 C 0.55728 0.64224 0.48889 0.0
C407 C 0.63281 0.81079 0.60064 0.0
C408 C 0.64305 0.7178 0.5705 0.0
C409 C 0.63085 0.71896 0.61198 0.0
C410 C 0.62612 0.76597 0.62707 0.0
N411 N 0.65061 0.76238 0.54479 0.0
C412 C 0.64491 0.8081 0.55922 0.0
Co413 Co 0.86896 0.55962 0.76487 0.0
Co414 Co 0.93619 0.67646 0.82791 0.0
O415 O 0.86319 0.61581 0.80134 0.0
C416 C 0.76336 0.48593 0.81423 0.0
O417 O 0.79256 0.51482 0.84711 0.0
C418 C 0.87127 0.73999 0.80577 0.0
O419 O 0.86642 0.72028 0.76805 0.0
O420 O 0.96735 0.70843 0.77187 0.0
O421 O 0.94952 0.62128 0.74806 0.0
H422 H 0.15402 0.79127 0.84962 0.0
H423 H 0.7709 0.58367 0.75508 0.0
O424 O 0.78796 0.49831 0.77942 0.0
H425 H 0.86371 0.61961 0.6186 0.0
H426 H 0.79211 0.36524 0.69282 0.0
H427 H 0.96904 0.54304 0.74198 0.0
H428 H 0.9004 0.5859 0.67634 0.0
H429 H 0.78584 0.45147 0.71567 0.0
O430 O 0.8997 0.72844 0.83256 0.0
H431 H 0.06288 0.72145 0.81406 0.0
H432 H 0.96355 0.76403 0.89529 0.0
H433 H 0.97808 0.46175 0.71466 0.0
H434 H 0.73217 0.61663 0.69799 0.0
H435 H 0.88891 0.37004 0.69271 0.0
H436 H 0.77893 0.63516 0.62921 0.0
O437 O 0.90031 0.53553 0.8115 0.0
H438 H 0.78231 0.59763 0.93861 0.0
H439 H 0.98307 0.64541 0.90149 0.0
H440 H 0.94436 0.60447 0.96989 0.0
H441 H 0.84369 0.58054 0.98888 0.0
H442 H 0.82252 0.63802 0.87009 0.0
H443 H 0.05456 0.83802 0.92983 0.0
H444 H 0.15082 0.85155 0.90741 0.0
O445 O 0.97446 0.62454 0.82583 0.0
C446 C 0.97203 0.67675 0.74409 0.0
C447 C 0.11272 0.78673 0.85935 0.0
C448 C 0.05675 0.81255 0.90447 0.0
N449 N 0.00784 0.73813 0.85283 0.0
C450 C 0.06073 0.7466 0.83957 0.0
C451 C 1.00539 0.77096 0.88454 0.0
C452 C 0.11073 0.82012 0.8919 0.0
C453 C 0.79105 0.59112 0.72512 0.0
N454 N 0.83778 0.58288 0.71904 0.0
C455 C 0.76907 0.60993 0.69295 0.0
C456 C 0.79535 0.62036 0.65438 0.0
C457 C 0.84291 0.61166 0.6484 0.0
C458 C 0.86348 0.59254 0.68123 0.0
C459 C 0.83129 0.40488 0.70271 0.0
C460 C 0.93016 0.5056 0.72972 0.0
C461 C 0.8279 0.45367 0.71623 0.0
N462 N 0.87654 0.50227 0.73139 0.0
C463 C 0.93558 0.45883 0.71483 0.0
C464 C 0.88554 0.40758 0.70228 0.0
C465 C 0.95205 0.56837 0.82486 0.0
C466 C 0.82641 0.608 0.93064 0.0
C467 C 0.93885 0.63459 0.90928 0.0
C468 C 0.9173 0.61166 0.94818 0.0
C469 C 0.86072 0.59831 0.95884 0.0
N470 N 0.90504 0.64404 0.88172 0.0
C471 C 0.84948 0.63108 0.89197 0.0
Co472 Co 0.29523 0.83133 0.09629 0.0
Co473 Co 0.25474 0.9073 0.1585 0.0
O474 O 0.23786 0.83257 0.13338 0.0
C475 C 0.26608 0.73077 0.15106 0.0
O476 O 0.27574 0.76522 0.18285 0.0
C477 C 0.1264 0.84696 0.13706 0.0
O478 O 0.13985 0.83959 0.09955 0.0
O479 O 0.25673 0.93885 0.10208 0.0
O480 O 0.31836 0.91176 0.07549 0.0
H481 H 0.36619 0.1266 0.17526 0.0
H482 H 0.17057 0.7355 0.09238 0.0
O483 O 0.27154 0.75067 0.11493 0.0
H484 H 0.21962 0.81714 0.95208 0.0
H485 H 0.38542 0.72848 0.0239 0.0
H486 H 0.41682 0.92026 0.07182 0.0
H487 H 0.29405 0.85687 0.00737 0.0
H488 H 0.30169 0.73889 0.04639 0.0
O489 O 0.16721 0.87539 0.16326 0.0
H490 H 0.3411 0.03262 0.14252 0.0
H491 H 0.19939 0.94059 0.22556 0.0
H492 H 0.50095 0.91284 0.04654 0.0
H493 H 0.09459 0.69421 0.03806 0.0
H494 H 0.48602 0.81541 0.02515 0.0
H495 H 0.11893 0.73528 0.96735 0.0
O496 O 0.35548 0.86532 0.14034 0.0
H497 H 0.17643 0.74994 0.26693 0.0
H498 H 0.33197 0.95192 0.23288 0.0
H499 H 0.3332 0.90991 0.30047 0.0
H500 H 0.25518 0.80807 0.3178 0.0
H501 H 0.17611 0.79407 0.2001 0.0
H502 H 0.22056 0.03449 0.25756 0.0
H503 H 0.30498 0.12849 0.23277 0.0
O504 O 0.34356 0.94094 0.15634 0.0
C505 C 0.29134 0.94083 0.0738 0.0
C506 C 0.32885 0.08628 0.18614 0.0
C507 C 0.24733 0.03443 0.23239 0.0
N508 N 0.26926 0.98108 0.18238 0.0
C509 C 0.3148 0.03269 0.16793 0.0
C510 C 0.23527 0.98144 0.21394 0.0
C511 C 0.29469 0.08715 0.21848 0.0
C512 C 0.18154 0.75318 0.06159 0.0
N513 N 0.23673 0.79826 0.05292 0.0
C514 C 0.13834 0.72977 0.03099 0.0
C515 C 0.152 0.75285 0.99133 0.0
C516 C 0.20848 0.79877 0.98273 0.0
C517 C 0.2505 0.82101 0.0141 0.0
C518 C 0.39258 0.77082 0.03416 0.0
C519 C 0.40925 0.87849 0.06019 0.0
C520 C 0.34528 0.77705 0.04676 0.0
N521 N 0.35442 0.82964 0.06172 0.0
C522 C 0.45738 0.87436 0.04661 0.0
C523 C 0.44907 0.81972 0.0347 0.0
C524 C 0.3757 0.91709 0.1544 0.0
C525 C 0.21042 0.79452 0.2599 0.0
C526 C 0.29756 0.90776 0.24031 0.0
C527 C 0.29854 0.88419 0.27863 0.0
C528 C 0.25475 0.82708 0.28834 0.0
N529 N 0.25385 0.87556 0.21259 0.0
C530 C 0.21037 0.81982 0.22212 0.0
Co531 Co 0.45576 0.30101 0.46083 0.0
Co532 Co 0.32679 0.26644 0.5056 0.0
O533 O 0.3886 0.24768 0.49409 0.0
C534 C 0.50213 0.24257 0.51842 0.0
O535 O 0.45052 0.20178 0.53174 0.0
C536 C 0.26113 0.13905 0.48303 0.0
O537 O 0.28774 0.15465 0.44734 0.0
O538 O 0.31161 0.26523 0.44538 0.0
O539 O 0.40544 0.32121 0.42615 0.0
H540 H 0.22396 0.38261 0.49257 0.0
H541 H 0.40679 0.16908 0.46617 0.0
O542 O 0.50807 0.28255 0.49357 0.0
H543 H 0.44242 0.21826 0.31934 0.0
H544 H 0.66018 0.38255 0.40484 0.0
H545 H 0.49635 0.42011 0.42606 0.0
H546 H 0.46307 0.29521 0.37046 0.0
H547 H 0.56443 0.3035 0.4298 0.0
O548 O 0.2697 0.1785 0.50958 0.0
H549 H 0.29556 0.35294 0.47351 0.0
H550 H 0.22245 0.21409 0.56095 0.0
H551 H 0.59073 0.4997 0.39992 0.0
H552 H 0.38637 0.091 0.41663 0.0
H553 H 0.67429 0.48194 0.3907 0.0
H554 H 0.40407 0.11501 0.34235 0.0
O555 O 0.4726 0.36512 0.49995 0.0
H556 H 0.35907 0.18682 0.63765 0.0
H557 H 0.34506 0.3499 0.57376 0.0
H558 H 0.36255 0.35162 0.6483 0.0
H559 H 0.36818 0.26917 0.68088 0.0
H560 H 0.34331 0.18762 0.56299 0.0
H561 H 0.14709 0.23994 0.57921 0.0
H562 H 0.14817 0.32553 0.54559 0.0
O563 O 0.38375 0.35543 0.50249 0.0
C564 C 0.35044 0.2945 0.41824 0.0
C565 C 0.22231 0.34484 0.50728 0.0
C566 C 0.17954 0.26496 0.55598 0.0
N567 N 0.26372 0.28239 0.51651 0.0
C568 C 0.26329 0.32817 0.49682 0.0
C569 C 0.22197 0.25021 0.54526 0.0
C570 C 0.18015 0.31298 0.53708 0.0
C571 C 0.41695 0.18096 0.43448 0.0
N572 N 0.43951 0.238 0.42183 0.0
C573 C 0.40426 0.136 0.40625 0.0
C574 C 0.41394 0.14942 0.36458 0.0
C575 C 0.43552 0.20727 0.35168 0.0
C576 C 0.44766 0.25094 0.38084 0.0
C577 C 0.62437 0.3911 0.40938 0.0
C578 C 0.53169 0.41121 0.42085 0.0
C579 C 0.56988 0.3464 0.42334 0.0
N580 N 0.52483 0.35723 0.4301 0.0
C581 C 0.58537 0.4568 0.4065 0.0
C582 C 0.63229 0.44687 0.40148 0.0
C583 C 0.43983 0.38716 0.50533 0.0
C584 C 0.35647 0.22299 0.62384 0.0
C585 C 0.34882 0.31438 0.58751 0.0
C586 C 0.35831 0.31544 0.6298 0.0
C587 C 0.36171 0.26918 0.64806 0.0
N588 N 0.34291 0.26853 0.56401 0.0
C589 C 0.34734 0.22357 0.58157 0.0
Co590 Co 0.18086 0.46023 0.75512 0.0
Co591 Co 0.09844 0.34124 0.81421 0.0
O592 O 0.17537 0.39969 0.79265 0.0
C593 C 0.27625 0.53008 0.81388 0.0
O594 O 0.23906 0.50461 0.84417 0.0
C595 C 0.15854 0.27205 0.7954 0.0
O596 O 0.16812 0.29333 0.75788 0.0
O597 O 0.0713 0.31462 0.75638 0.0
O598 O 0.1023 0.40513 0.73122 0.0
H599 H 0.87862 0.23517 0.82091 0.0
H600 H 0.2742 0.42802 0.75594 0.0
O601 O 0.25991 0.51574 0.777 0.0
H602 H 0.20524 0.4027 0.61225 0.0
H603 H 0.29137 0.65025 0.678 0.0
H604 H 0.09694 0.49808 0.7279 0.0
H605 H 0.16301 0.43775 0.66509 0.0
H606 H 0.27747 0.55724 0.70688 0.0
O607 O 0.12873 0.28424 0.82028 0.0
H608 H 0.97558 0.30535 0.79281 0.0
H609 H 0.05814 0.24861 0.8794 0.0
H610 H 0.10812 0.58891 0.69699 0.0
H611 H 0.3179 0.39299 0.70397 0.0
H612 H 0.20683 0.6672 0.67413 0.0
H613 H 0.28311 0.37992 0.63153 0.0
O614 O 0.14425 0.48617 0.79725 0.0
H615 H 0.24453 0.41079 0.93022 0.0
H616 H 0.04837 0.37118 0.88632 0.0
H617 H 0.08428 0.41056 0.95568 0.0
H618 H 0.18313 0.43124 0.97794 0.0
H619 H 0.20695 0.37146 0.86113 0.0
H620 H 0.96141 0.17517 0.90708 0.0
H621 H 0.8707 0.16854 0.87821 0.0
O622 O 0.06693 0.3983 0.81112 0.0
C623 C 0.0724 0.34913 0.72812 0.0
C624 C 0.91756 0.23702 0.83362 0.0
C625 C 0.96415 0.20364 0.88203 0.0
N626 N 0.0225 0.28148 0.83468 0.0
C627 C 0.97275 0.27715 0.818 0.0
C628 C 0.01877 0.24501 0.86603 0.0
C629 C 0.91327 0.19994 0.86581 0.0
C630 C 0.25923 0.42278 0.72443 0.0
N631 N 0.21617 0.43489 0.71356 0.0
C632 C 0.28401 0.40283 0.69516 0.0
C633 C 0.26447 0.39546 0.65454 0.0
C634 C 0.22074 0.40821 0.64368 0.0
C635 C 0.19699 0.42803 0.67375 0.0
C636 C 0.24842 0.61679 0.68855 0.0
C637 C 0.13932 0.53056 0.71604 0.0
C638 C 0.24025 0.56398 0.70484 0.0
N639 N 0.18675 0.5227 0.71987 0.0
C640 C 0.14554 0.58232 0.6991 0.0
C641 C 0.20084 0.62623 0.68626 0.0
C642 C 0.0922 0.4547 0.81067 0.0
C643 C 0.20126 0.40186 0.92098 0.0
C644 C 0.09136 0.37966 0.89582 0.0
C645 C 0.11142 0.40192 0.93518 0.0
C646 C 0.16686 0.41333 0.94769 0.0
N647 N 0.12549 0.36887 0.86967 0.0
C648 C 0.17966 0.37939 0.88189 0.0
Co649 Co 0.71719 0.16498 0.11372 0.0
Co650 Co 0.75146 0.07113 0.16029 0.0
O651 O 0.76916 0.15153 0.14905 0.0
C652 C 0.73275 0.24834 0.18161 0.0
O653 O 0.70955 0.20594 0.20903 0.0
C654 C 0.88024 0.13645 0.14215 0.0
O655 O 0.86735 0.15025 0.10632 0.0
O656 O 0.75519 0.0587 0.09994 0.0
O657 O 0.69714 0.09383 0.08006 0.0
H658 H 0.64416 0.85206 0.14084 0.0
H659 H 0.84219 0.25647 0.12549 0.0
O660 O 0.73837 0.2375 0.14459 0.0
H661 H 0.81352 0.23305 0.97542 0.0
H662 H 0.64196 0.29018 0.05142 0.0
H663 H 0.59885 0.08732 0.07797 0.0
H664 H 0.73119 0.17512 0.02262 0.0
H665 H 0.71854 0.27184 0.07933 0.0
O666 O 0.83898 0.10273 0.16655 0.0
H667 H 0.66912 0.9538 0.12535 0.0
H668 H 0.8019 0.01873 0.21737 0.0
H669 H 0.52196 0.10365 0.04821 0.0
H670 H 0.9259 0.31575 0.0795 0.0
H671 H 0.54252 0.20581 0.03635 0.0
H672 H 0.91189 0.30407 0.00386 0.0
O673 O 0.65118 0.11685 0.15149 0.0
H674 H 0.82405 0.18212 0.29319 0.0
H675 H 0.667 1.00274 0.22717 0.0
H676 H 0.6625 0.0171 0.30161 0.0
H677 H 0.74186 0.10659 0.33524 0.0
H678 H 0.82603 0.16689 0.21866 0.0
H679 H 0.77953 0.91752 0.23315 0.0
H680 H 0.69942 0.83322 0.19546 0.0
O681 O 0.66286 0.03841 0.15586 0.0
C682 C 0.72515 0.06688 0.07247 0.0
C683 C 0.67917 0.88825 0.15763 0.0
C684 C 0.75511 0.9251 0.20943 0.0
N685 N 0.73639 0.99202 0.17077 0.0
C686 C 0.6933 0.94603 0.14908 0.0
C687 C 0.76779 0.98231 0.20021 0.0
C688 C 0.71017 0.87779 0.18818 0.0
C689 C 0.83574 0.25118 0.09261 0.0
N690 N 0.7819 0.21188 0.07672 0.0
C691 C 0.8833 0.28487 0.06672 0.0
C692 C 0.87543 0.27828 0.02429 0.0
C693 C 0.82029 0.23841 0.00832 0.0
C694 C 0.77381 0.20549 0.03517 0.0
C695 C 0.63227 0.24549 0.05697 0.0
C696 C 0.60905 0.13184 0.0714 0.0
C697 C 0.67556 0.23478 0.07265 0.0
N698 N 0.66317 0.17855 0.08084 0.0
C699 C 0.56496 0.14081 0.05505 0.0
C700 C 0.57645 0.19812 0.04852 0.0
C701 C 0.63055 0.06217 0.15831 0.0
C702 C 0.78918 0.14283 0.27893 0.0
C703 C 0.70123 0.04245 0.24142 0.0
C704 C 0.69856 0.05015 0.28363 0.0
C705 C 0.74308 0.10053 0.30248 0.0
N706 N 0.74703 0.08375 0.2186 0.0
C707 C 0.79023 0.13382 0.23674 0.0
C708 C 0.25344 0.64759 0.19531 0.0
C709 C 0.25663 0.6709 0.15611 0.0
H710 H 0.25236 0.57869 0.23055 0.0
C711 C 0.25536 0.63828 0.12133 0.0
H712 H 0.25326 0.67112 0.22258 0.0
C713 C 0.25602 0.58578 0.12578 0.0
C714 C 0.25716 0.56469 0.16508 0.0
H715 H 0.25646 0.65441 0.09054 0.0
H716 H 0.2581 0.56318 0.09856 0.0
C717 C 0.25322 0.59469 0.19974 0.0
C718 C 0.66073 0.29155 0.52205 0.0
C719 C 0.66118 0.23988 0.51136 0.0
H720 H 0.60935 0.33157 0.53505 0.0
C721 C 0.60762 0.18654 0.50815 0.0
H722 H 0.70116 0.33345 0.52485 0.0
C723 C 0.55442 0.18558 0.51455 0.0
C724 C 0.55471 0.23792 0.52419 0.0
H725 H 0.60687 0.14596 0.50064 0.0
H726 H 0.51331 0.14493 0.50973 0.0
C727 C 0.60824 0.29047 0.52861 0.0
C728 C 0.40246 0.66049 0.86579 0.0
C729 C 0.43594 0.69278 0.83161 0.0
H730 H 0.32537 0.58328 0.88708 0.0
C731 C 0.42046 0.66755 0.79245 0.0
H732 H 0.41398 0.6782 0.89658 0.0
C733 C 0.37037 0.61262 0.78721 0.0
C734 C 0.33433 0.58234 0.82098 0.0
H735 H 0.44602 0.69086 0.76569 0.0
H736 H 0.35874 0.59515 0.75635 0.0
C737 C 0.35184 0.60586 0.86048 0.0
C738 C 0.76928 0.40404 0.16186 0.0
C739 C 0.74157 0.41398 0.19488 0.0
H740 H 0.7911 0.34484 0.13309 0.0
C741 C 0.71836 0.37244 0.227 0.0
H742 H 0.7885 0.43586 0.13719 0.0
C743 C 0.71889 0.31956 0.2245 0.0
C744 C 0.74321 0.30797 0.19005 0.0
H745 H 0.69696 0.37926 0.25301 0.0
H746 H 0.69745 0.28667 0.24827 0.0
C747 C 0.77081 0.3519 0.15974 0.0
C748 C 0.38754 0.7369 0.48403 0.0
C749 C 0.441 0.7899 0.48845 0.0
H750 H 0.29464 0.69518 0.47842 0.0
C751 C 0.44105 0.84346 0.49001 0.0
H752 H 0.38613 0.69492 0.48245 0.0
C753 C 0.38784 0.84358 0.48725 0.0
C754 C 0.33461 0.79012 0.48305 0.0
H755 H 0.48195 0.88493 0.49257 0.0
H756 H 0.38811 0.88488 0.4898 0.0
C757 C 0.33517 0.73706 0.48112 0.0
C758 C 0.6222 0.34742 0.78662 0.0
C759 C 0.59384 0.33192 0.82469 0.0
H760 H 0.69796 0.4089 0.75337 0.0
C761 C 0.61845 0.37104 0.85812 0.0
H762 H 0.60407 0.3185 0.76029 0.0
C763 C 0.67283 0.42219 0.8545 0.0
C764 C 0.70311 0.4357 0.8172 0.0
H765 H 0.59698 0.361 0.88775 0.0
H766 H 0.69179 0.45013 0.88121 0.0
C767 C 0.67628 0.3991 0.78286 0.0
C768 C 0.53777 0.55078 0.16109 0.0
C769 C 0.56528 0.51704 0.1664 0.0
H770 H 0.45666 0.55135 0.15804 0.0
C771 C 0.52962 0.45518 0.16814 0.0
H772 H 0.5636 0.59841 0.15977 0.0
C773 C 0.46814 0.42803 0.16689 0.0
C774 C 0.44055 0.46201 0.16422 0.0
H775 H 0.54917 0.42766 0.17213 0.0
H776 H 0.44232 0.3806 0.17017 0.0
C777 C 0.47625 0.52365 0.16019 0.0
C778 C 0.05843 0.54149 0.48006 0.0
C779 C 0.03208 0.57676 0.48372 0.0
H780 H 0.04661 0.4544 0.47924 0.0
C781 C 0.9704 0.54831 0.48543 0.0
H782 H 0.10579 0.56157 0.47857 0.0
C783 C 0.93638 0.48655 0.48585 0.0
C784 C 0.96297 0.45131 0.4845 0.0
H785 H 0.94837 0.57366 0.48826 0.0
H786 H 0.88917 0.46647 0.48888 0.0
C787 C 0.02441 0.47974 0.48041 0.0
C788 C 0.45864 0.98964 0.82503 0.0
C789 C 0.49307 0.05076 0.83135 0.0
H790 H 0.45654 0.90733 0.8195 0.0
C791 C 0.55474 0.0762 0.83264 0.0
H792 H 0.41116 0.96836 0.82367 0.0
C793 C 0.58098 0.04105 0.82995 0.0
C794 C 0.5462 0.97953 0.82612 0.0
H795 H 0.58283 0.12315 0.83733 0.0
H796 H 0.62826 0.06181 0.83308 0.0
C797 C 0.48481 0.95456 0.82254 0.0
C798 C 0.55952 0.54917 0.50559 0.0
C799 C 0.52721 0.57786 0.49886 0.0
H800 H 0.5576 0.46722 0.51363 0.0
C801 C 0.46524 0.54342 0.49877 0.0
H802 H 0.60712 0.57392 0.50604 0.0
C803 C 0.43658 0.48189 0.50315 0.0
C804 C 0.46901 0.45291 0.50777 0.0
H805 H 0.43859 0.56372 0.49385 0.0
H806 H 0.38907 0.45692 0.50119 0.0
C807 C 0.53087 0.48769 0.51003 0.0
C808 C 0.96359 0.47915 0.83224 0.0
C809 C 0.98978 0.54092 0.8292 0.0
H810 H 0.97477 0.4037 0.82918 0.0
C811 C 0.05105 0.57434 0.82412 0.0
H812 H 0.91649 0.45183 0.83608 0.0
C813 C 0.08457 0.54649 0.81976 0.0
C814 C 0.05782 0.48447 0.82066 0.0
H815 H 0.07275 0.62183 0.82122 0.0
H816 H 0.13128 0.57366 0.81418 0.0
C817 C 0.99707 0.45137 0.82815 0.0
C818 C 0.46804 0.01497 0.16608 0.0
C819 C 0.44052 0.95343 0.16168 0.0
H820 H 0.54896 0.09726 0.16865 0.0
C821 C 0.47638 0.92761 0.16013 0.0
H822 H 0.44218 0.0366 0.1673 0.0
C823 C 0.53792 0.9625 0.16104 0.0
C824 C 0.56547 0.02428 0.16331 0.0
H825 H 0.45695 0.88038 0.15677 0.0
H826 H 0.56384 0.94106 0.15832 0.0
C827 C 0.52956 0.04987 0.16676 0.0
C828 C 0.36331 0.34232 0.30776 0.0
C829 C 0.30479 0.31397 0.29445 0.0
H830 H 0.42282 0.36107 0.3571 0.0
C831 C 0.26013 0.27628 0.32155 0.0
H832 H 0.39837 0.37196 0.28751 0.0
C833 C 0.27423 0.26911 0.3621 0.0
C834 C 0.33302 0.29999 0.37582 0.0
H835 H 0.21446 0.25512 0.31214 0.0
H836 H 0.23922 0.24068 0.38283 0.0
C837 C 0.37718 0.33607 0.34786 0.0
C838 C 0.97821 0.34932 0.64266 0.0
C839 C 0.977 0.3077 0.61485 0.0
H840 H 1.00602 0.3915 0.7007 0.0
C841 C 1.00327 0.27444 0.62672 0.0
H842 H 0.9591 0.37634 0.63505 0.0
C843 C 0.0314 0.28416 0.66529 0.0
C844 C 0.0329 0.32681 0.69224 0.0
H845 H 1.00281 0.24181 0.60614 0.0
H846 H 0.05402 0.26052 0.6732 0.0
C847 C 1.00496 0.35805 0.6807 0.0
C848 C 0.67691 0.03045 0.96205 0.0
C849 C 0.70117 0.9959 0.95031 0.0
H850 H 0.66274 0.07673 0.00953 0.0
C851 C 0.73736 0.98744 0.97807 0.0
H852 H 0.64823 0.03696 0.94135 0.0
C853 C 0.74666 0.01125 0.01793 0.0
C854 C 0.71929 0.0431 0.03031 0.0
H855 H 0.75521 0.95952 0.9699 0.0
H856 H 0.77338 1.00302 0.03933 0.0
C857 C 0.68515 0.05303 0.00148 0.0
C858 C 0.63052 0.6858 0.33052 0.0
C859 C 0.67347 0.7196 0.36012 0.0
H860 H 0.61164 0.64617 0.27119 0.0
C861 C 0.73316 0.74383 0.34971 0.0
H862 H 0.58415 0.66535 0.33723 0.0
C863 C 0.74892 0.73147 0.31126 0.0
C864 C 0.70514 0.69566 0.28278 0.0
H865 H 0.76735 0.77013 0.37173 0.0
H866 H 0.7947 0.74635 0.30497 0.0
C867 C 0.64616 0.67487 0.29232 0.0
C868 C 0.05555 0.68279 0.65098 0.0
C869 C 0.04592 0.71945 0.62435 0.0
H870 H 0.0443 0.64521 0.71045 0.0
C871 C 0.01805 0.7493 0.63993 0.0
H872 H 0.07593 0.65815 0.64051 0.0
C873 C 0.99807 0.74024 0.68086 0.0
C874 C 1.00676 0.70208 0.70658 0.0
H875 H 0.01028 0.77812 0.62031 0.0
H876 H 0.97298 0.76006 0.69156 0.0
C877 C 0.03752 0.67535 0.6915 0.0
C878 C 0.2652 0.98146 0.01223 0.0
C879 C 0.30745 0.9822 0.03925 0.0
H880 H 0.24959 0.00969 0.95359 0.0
C881 C 0.36693 0.01473 0.02883 0.0
H882 H 0.21885 0.95533 0.01935 0.0
C883 C 0.3842 0.04411 0.9916 0.0
C884 C 0.34255 0.04249 0.96346 0.0
H885 H 0.40028 0.01545 0.04893 0.0
H886 H 0.43073 0.06712 0.98472 0.0
C887 C 0.2827 0.01159 0.97443 0.0
C888 C 0.95789 0.1682 0.19746 0.0
C889 C 0.94287 0.16399 0.15551 0.0
H890 H 0.02698 0.20175 0.24265 0.0
C891 C 0.98852 0.18917 0.12653 0.0
H892 H 0.9239 0.14967 0.22067 0.0
C893 C 0.04755 0.21812 0.13909 0.0
C894 C 0.06266 0.22382 0.18108 0.0
H895 H 0.97866 0.18683 0.09401 0.0
H896 H 0.0814 0.2374 0.11582 0.0
C897 C 0.01703 0.19828 0.2101 0.0
C898 C 0.82372 0.05704 0.45753 0.0
C899 C 0.8343 0.07391 0.49915 0.0
H900 H 0.78566 0.98605 0.414 0.0
C901 C 0.81587 0.02936 0.5291 0.0
H902 H 0.837 0.08999 0.43357 0.0
C903 C 0.78706 0.96964 0.51781 0.0
C904 C 0.77506 0.95271 0.47625 0.0
H905 H 0.82326 0.04058 0.56143 0.0
H906 H 0.77283 0.93666 0.54181 0.0
C907 C 0.79413 0.99729 0.44627 0.0
C908 C 0.83282 0.78119 0.85975 0.0
C909 C 0.84059 0.77264 0.81801 0.0
H910 H 0.7957 0.81424 0.9037 0.0
C911 C 0.81683 0.79379 0.78819 0.0
H912 H 0.85015 0.76526 0.88364 0.0
C913 C 0.78609 0.82248 0.79973 0.0
C914 C 0.77744 0.83015 0.84146 0.0
H915 H 0.82181 0.78805 0.75579 0.0
H916 H 0.7682 0.83779 0.77581 0.0
C917 C 0.80135 0.80917 0.8713 0.0
C918 C 0.9898 0.78425 0.20469 0.0
C919 C 0.94393 0.75803 0.17572 0.0
H920 H 0.08285 0.83328 0.21537 0.0
C921 C 0.95874 0.76308 0.13374 0.0
H922 H 0.98021 0.78133 0.23723 0.0
C923 C 0.01771 0.79249 0.12117 0.0
C924 C 0.0636 0.81832 0.15016 0.0
H925 H 0.92473 0.74333 0.11048 0.0
H926 H 0.0273 0.79459 0.08867 0.0
C927 C 0.04879 0.81426 0.19209 0.0
C928 C 0.18576 0.99569 0.54396 0.0
C929 C 0.16491 0.95301 0.51256 0.0
H930 H 0.23127 0.08773 0.5594 0.0
C931 C 0.17331 0.97228 0.47147 0.0
H932 H 0.18004 0.98246 0.57593 0.0
C933 C 0.20351 0.03256 0.46202 0.0
C934 C 0.2251 0.07526 0.49337 0.0
H935 H 0.15811 0.94077 0.44646 0.0
H936 H 0.21048 0.04571 0.43002 0.0
C937 C 0.21496 0.05608 0.53449 0.0
C938 C 0.19285 0.23157 0.85278 0.0
C939 C 0.18697 0.23835 0.81036 0.0
H940 H 0.2281 0.2006 0.89993 0.0
C941 C 0.21121 0.21522 0.78267 0.0
H942 H 0.17512 0.24908 0.87509 0.0
C943 C 0.24088 0.18656 0.79699 0.0
C944 C 0.24811 0.1812 0.83942 0.0
H945 H 0.20769 0.21965 0.74984 0.0
H946 H 0.25952 0.16996 0.7747 0.0
C947 C 0.22345 0.20388 0.8671 0.0
loop_
_geom_bond_atom_site_label_1
_geom_bond_atom_site_label_2
_geom_bond_distance
_geom_bond_site_symmetry_2
_ccdc_geom_bond_type
Co0 O2 2.143 . S
Co0 O8 2.074 . S
Co0 O11 2.093 . S
Co0 O24 2.097 . S
Co0 N41 2.151 . S
Co0 N49 2.214 . S
Co1 O2 2.160 . S
Co1 O7 2.058 . S
Co1 O17 2.057 . S
Co1 O32 2.037 . S
Co1 N36 2.145 . S
Co1 N57 2.257 . S
O2 Co0 2.143 . S
O2 Co1 2.160 . S
C3 O4 1.278 . S
C3 O11 1.224 . S
O4 C3 1.278 . S
C5 O6 1.245 . S
C5 O17 1.232 . S
O6 C5 1.245 . S
O7 Co1 2.058 . S
O7 C33 1.269 . S
O8 Co0 2.074 . S
O8 C33 1.257 . S
H9 C34 0.930 . S
H10 C40 0.930 . S
O11 Co0 2.093 . S
O11 C3 1.224 . S
H12 C44 0.929 . S
H13 C46 0.930 . S
H14 C47 0.930 . S
H15 C45 0.929 . S
H16 C48 0.928 . S
O17 Co1 2.057 . S
O17 C5 1.232 . S
H18 C37 0.929 . S
H19 C38 0.929 . S
H20 C50 0.931 . S
H21 C42 0.929 . S
H22 C51 0.930 . S
H23 C43 0.931 . S
O24 Co0 2.097 . S
O24 C52 1.214 . S
H25 C53 0.929 . S
H26 C54 0.929 . S
H27 C55 0.930 . S
H28 C56 0.929 1_556 S
H29 C58 0.930 . S
H30 C35 0.930 . S
H31 C39 0.930 . S
O32 Co1 2.037 . S
O32 C52 1.234 . S
C33 O7 1.269 . S
C33 O8 1.257 . S
C34 H9 0.930 . S
C34 C37 1.388 . S
C34 C39 1.418 . S
C35 H30 0.930 . S
C35 C38 1.404 . S
C35 C39 1.353 . S
N36 Co1 2.145 . S
N36 C37 1.397 . S
N36 C38 1.334 . S
C37 H18 0.929 . S
C37 C34 1.388 . S
C37 N36 1.397 . S
C38 H19 0.929 . S
C38 C35 1.404 . S
C38 N36 1.334 . S
C39 H31 0.930 . S
C39 C34 1.418 . S
C39 C35 1.353 . S
C40 H10 0.930 . S
C40 N41 1.330 . S
C40 C42 1.446 . S
N41 Co0 2.151 . S
N41 C40 1.330 . S
N41 C45 1.418 . S
C42 H21 0.929 . S
C42 C40 1.446 . S
C42 C43 1.332 . S
C43 H23 0.931 . S
C43 C42 1.332 . S
C43 C44 1.267 . S
C44 H12 0.929 . S
C44 C43 1.267 . S
C44 C45 1.251 . S
C45 H15 0.929 . S
C45 N41 1.418 . S
C45 C44 1.251 . S
C46 H13 0.930 . S
C46 C48 1.406 . S
C46 C51 1.261 . S
C47 H14 0.930 . S
C47 N49 1.325 . S
C47 C50 1.357 . S
C48 H16 0.928 . S
C48 C46 1.406 . S
C48 N49 1.261 . S
N49 Co0 2.214 . S
N49 C47 1.325 . S
N49 C48 1.261 . S
C50 H20 0.931 . S
C50 C47 1.357 . S
C50 C51 1.312 . S
C51 H22 0.930 . S
C51 C46 1.261 . S
C51 C50 1.312 . S
C52 O24 1.214 . S
C52 O32 1.234 . S
C53 H25 0.929 . S
C53 C56 1.391 . S
C53 C58 1.391 . S
C54 H26 0.929 . S
C54 C55 1.390 . S
C54 N57 1.391 . S
C55 H27 0.930 . S
C55 C54 1.390 . S
C55 C56 1.392 . S
C56 H28 0.929 1_554 S
C56 C53 1.391 . S
C56 C55 1.392 . S
N57 Co1 2.257 . S
N57 C54 1.391 . S
N57 C58 1.388 . S
C58 H29 0.930 . S
C58 C53 1.391 . S
C58 N57 1.388 . S
Co59 O61 2.143 . S
Co59 O67 2.074 . S
Co59 O70 2.093 . S
Co59 O83 2.097 . S
Co59 N100 2.151 . S
Co59 N108 2.214 . S
Co60 O61 2.160 . S
Co60 O66 2.058 . S
Co60 O76 2.057 . S
Co60 O91 2.037 . S
Co60 N95 2.145 1_655 S
Co60 N116 2.257 . S
O61 Co59 2.143 . S
O61 Co60 2.160 . S
C62 O63 1.278 . S
C62 O70 1.224 . S
O63 C62 1.278 . S
C64 O65 1.245 . S
C64 O76 1.232 . S
O65 C64 1.245 . S
O66 Co60 2.058 . S
O66 C92 1.269 . S
O67 Co59 2.074 . S
O67 C92 1.257 . S
H68 C93 0.930 . S
H69 C99 0.930 . S
O70 Co59 2.093 . S
O70 C62 1.224 . S
H71 C103 0.929 . S
H72 C105 0.930 . S
H73 C106 0.930 . S
H74 C104 0.929 . S
H75 C107 0.928 . S
O76 Co60 2.057 . S
O76 C64 1.232 . S
H77 C96 0.929 . S
H78 C97 0.919 1_655 S
H79 C109 0.931 . S
H80 C101 0.929 . S
H81 C110 0.930 . S
H82 C102 0.931 . S
O83 Co59 2.097 . S
O83 C111 1.214 . S
H84 C112 0.929 . S
H85 C113 0.929 . S
H86 C114 0.930 . S
H87 C115 0.929 . S
H88 C117 0.930 . S
H89 C94 0.930 . S
H90 C98 0.930 . S
O91 Co60 2.037 . S
O91 C111 1.234 . S
C92 O66 1.269 . S
C92 O67 1.257 . S
C93 H68 0.930 . S
C93 C96 1.388 . S
C93 C98 1.418 . S
C94 H89 0.930 . S
C94 C97 1.423 . S
C94 C98 1.353 . S
N95 Co60 2.145 1_455 S
N95 C96 1.397 . S
N95 C97 1.326 . S
C96 H77 0.929 . S
C96 C93 1.388 . S
C96 N95 1.397 . S
C97 H78 0.919 1_455 S
C97 C94 1.423 . S
C97 N95 1.326 . S
C98 H90 0.930 . S
C98 C93 1.418 . S
C98 C94 1.353 . S
C99 H69 0.930 . S
C99 N100 1.330 . S
C99 C101 1.446 . S
N100 Co59 2.151 . S
N100 C99 1.330 . S
N100 C104 1.418 . S
C101 H80 0.929 . S
C101 C99 1.446 . S
C101 C102 1.332 . S
C102 H82 0.931 . S
C102 C101 1.332 . S
C102 C103 1.267 . S
C103 H71 0.929 . S
C103 C102 1.267 . S
C103 C104 1.251 . S
C104 H74 0.929 . S
C104 N100 1.418 . S
C104 C103 1.251 . S
C105 H72 0.930 . S
C105 C107 1.406 . S
C105 C110 1.261 . S
C106 H73 0.930 . S
C106 N108 1.325 . S
C106 C109 1.357 . S
C107 H75 0.928 . S
C107 C105 1.406 . S
C107 N108 1.261 . S
N108 Co59 2.214 . S
N108 C106 1.325 . S
N108 C107 1.261 . S
C109 H79 0.931 . S
C109 C106 1.357 . S
C109 C110 1.312 . S
C110 H81 0.930 . S
C110 C105 1.261 . S
C110 C109 1.312 . S
C111 O83 1.214 . S
C111 O91 1.234 . S
C112 H84 0.929 . S
C112 C115 1.391 . S
C112 C117 1.391 . S
C113 H85 0.929 . S
C113 C114 1.390 . S
C113 N116 1.391 . S
C114 H86 0.930 . S
C114 C113 1.390 . S
C114 C115 1.392 . S
C115 H87 0.929 . S
C115 C112 1.391 . S
C115 C114 1.392 . S
N116 Co60 2.257 . S
N116 C113 1.391 . S
N116 C117 1.388 . S
C117 H88 0.930 . S
C117 C112 1.391 . S
C117 N116 1.388 . S
Co118 O120 2.143 . S
Co118 O126 2.074 . S
Co118 O129 2.093 . S
Co118 O142 2.097 . S
Co118 N159 2.151 . S
Co118 N167 2.214 . S
Co119 O120 2.160 . S
Co119 O125 2.058 . S
Co119 O135 2.057 . S
Co119 O150 2.037 . S
Co119 N154 2.145 1_565 S
Co119 N175 2.257 . S
O120 Co118 2.143 . S
O120 Co119 2.160 . S
C121 O122 1.278 . S
C121 O129 1.224 . S
O122 C121 1.278 . S
C123 O124 1.245 . S
C123 O135 1.232 . S
O124 C123 1.245 . S
O125 Co119 2.058 . S
O125 C151 1.269 . S
O126 Co118 2.074 . S
O126 C151 1.257 . S
H127 C152 0.930 . S
H128 C158 0.930 . S
O129 Co118 2.093 . S
O129 C121 1.224 . S
H130 C162 0.929 . S
H131 C164 0.930 . S
H132 C165 0.930 . S
H133 C163 0.929 . S
H134 C166 0.928 . S
O135 Co119 2.057 . S
O135 C123 1.232 . S
H136 C155 0.929 . S
H137 C156 0.909 1_565 S
H138 C168 0.931 . S
H139 C160 0.929 . S
H140 C169 0.930 . S
H141 C161 0.931 1_554 S
O142 Co118 2.097 . S
O142 C170 1.214 . S
H143 C171 0.929 . S
H144 C172 0.929 . S
H145 C173 0.930 . S
H146 C174 0.929 . S
H147 C176 0.930 . S
H148 C153 0.930 . S
H149 C157 0.930 . S
O150 Co119 2.037 . S
O150 C170 1.234 . S
C151 O125 1.269 . S
C151 O126 1.257 . S
C152 H127 0.930 . S
C152 C155 1.388 . S
C152 C157 1.418 . S
C153 H148 0.930 . S
C153 C156 1.414 . S
C153 C157 1.353 . S
N154 Co119 2.145 1_545 S
N154 C155 1.397 . S
N154 C156 1.344 . S
C155 H136 0.929 . S
C155 C152 1.388 . S
C155 N154 1.397 . S
C156 H137 0.909 1_545 S
C156 C153 1.414 . S
C156 N154 1.344 . S
C157 H149 0.930 . S
C157 C152 1.418 . S
C157 C153 1.353 . S
C158 H128 0.930 . S
C158 N159 1.330 . S
C158 C160 1.446 . S
N159 Co118 2.151 . S
N159 C158 1.330 . S
N159 C163 1.418 . S
C160 H139 0.929 . S
C160 C158 1.446 . S
C160 C161 1.332 . S
C161 H141 0.931 1_556 S
C161 C160 1.332 . S
C161 C162 1.267 1_556 S
C162 H130 0.929 . S
C162 C161 1.267 1_554 S
C162 C163 1.251 1_554 S
C163 H133 0.929 . S
C163 N159 1.418 . S
C163 C162 1.251 1_556 S
C164 H131 0.930 . S
C164 C166 1.406 . S
C164 C169 1.261 . S
C165 H132 0.930 . S
C165 N167 1.325 . S
C165 C168 1.357 . S
C166 H134 0.928 . S
C166 C164 1.406 . S
C166 N167 1.261 . S
N167 Co118 2.214 . S
N167 C165 1.325 . S
N167 C166 1.261 . S
C168 H138 0.931 . S
C168 C165 1.357 . S
C168 C169 1.312 . S
C169 H140 0.930 . S
C169 C164 1.261 . S
C169 C168 1.312 . S
C170 O142 1.214 . S
C170 O150 1.234 . S
C171 H143 0.929 . S
C171 C174 1.391 . S
C171 C176 1.391 . S
C172 H144 0.929 . S
C172 C173 1.390 . S
C172 N175 1.391 . S
C173 H145 0.930 . S
C173 C172 1.390 . S
C173 C174 1.392 . S
C174 H146 0.929 . S
C174 C171 1.391 . S
C174 C173 1.392 . S
N175 Co119 2.257 . S
N175 C172 1.391 . S
N175 C176 1.388 . S
C176 H147 0.930 . S
C176 C171 1.391 . S
C176 N175 1.388 . S
Co177 O179 2.143 . S
Co177 O185 2.074 . S
Co177 O188 2.093 . S
Co177 O201 2.097 . S
Co177 N218 2.151 . S
Co177 N226 2.214 . S
Co178 O179 2.160 . S
Co178 O184 2.058 . S
Co178 O194 2.057 . S
Co178 O209 2.037 . S
Co178 N213 2.145 . S
Co178 N234 2.257 . S
O179 Co177 2.143 . S
O179 Co178 2.160 . S
C180 O181 1.278 . S
C180 O188 1.224 . S
O181 C180 1.278 . S
C182 O183 1.245 . S
C182 O194 1.232 . S
O183 C182 1.245 . S
O184 Co178 2.058 . S
O184 C210 1.269 . S
O185 Co177 2.074 . S
O185 C210 1.257 . S
H186 C211 0.930 . S
H187 C217 0.930 . S
O188 Co177 2.093 . S
O188 C180 1.224 . S
H189 C221 0.929 . S
H190 C223 0.930 . S
H191 C224 0.930 . S
H192 C222 0.929 . S
H193 C225 0.928 . S
O194 Co178 2.057 . S
O194 C182 1.232 . S
H195 C214 0.929 . S
H196 C215 0.929 . S
H197 C227 0.931 . S
H198 C219 0.929 . S
H199 C228 0.930 . S
H200 C220 0.931 . S
O201 Co177 2.097 . S
O201 C229 1.214 . S
H202 C230 0.929 . S
H203 C231 0.929 . S
H204 C232 0.930 . S
H205 C233 0.929 1_556 S
H206 C235 0.930 . S
H207 C212 0.930 . S
H208 C216 0.930 . S
O209 Co178 2.037 . S
O209 C229 1.234 . S
C210 O184 1.269 . S
C210 O185 1.257 . S
C211 H186 0.930 . S
C211 C214 1.388 . S
C211 C216 1.418 . S
C212 H207 0.930 . S
C212 C215 1.404 . S
C212 C216 1.353 . S
N213 Co178 2.145 . S
N213 C214 1.397 . S
N213 C215 1.334 . S
C214 H195 0.929 . S
C214 C211 1.388 . S
C214 N213 1.397 . S
C215 H196 0.929 . S
C215 C212 1.404 . S
C215 N213 1.334 . S
C216 H208 0.930 . S
C216 C211 1.418 . S
C216 C212 1.353 . S
C217 H187 0.930 . S
C217 N218 1.330 . S
C217 C219 1.446 . S
N218 Co177 2.151 . S
N218 C217 1.330 . S
N218 C222 1.418 . S
C219 H198 0.929 . S
C219 C217 1.446 . S
C219 C220 1.332 . S
C220 H200 0.931 . S
C220 C219 1.332 . S
C220 C221 1.267 . S
C221 H189 0.929 . S
C221 C220 1.267 . S
C221 C222 1.251 . S
C222 H192 0.929 . S
C222 N218 1.418 . S
C222 C221 1.251 . S
C223 H190 0.930 . S
C223 C225 1.406 . S
C223 C228 1.261 . S
C224 H191 0.930 . S
C224 N226 1.325 . S
C224 C227 1.357 . S
C225 H193 0.928 . S
C225 C223 1.406 . S
C225 N226 1.261 . S
N226 Co177 2.214 . S
N226 C224 1.325 . S
N226 C225 1.261 . S
C227 H197 0.931 . S
C227 C224 1.357 . S
C227 C228 1.312 . S
C228 H199 0.930 . S
C228 C223 1.261 . S
C228 C227 1.312 . S
C229 O201 1.214 . S
C229 O209 1.234 . S
C230 H202 0.929 . S
C230 C233 1.391 . S
C230 C235 1.391 . S
C231 H203 0.929 . S
C231 C232 1.390 . S
C231 N234 1.391 . S
C232 H204 0.930 . S
C232 C231 1.390 . S
C232 C233 1.392 . S
C233 H205 0.929 1_554 S
C233 C230 1.391 . S
C233 C232 1.392 . S
N234 Co178 2.257 . S
N234 C231 1.391 . S
N234 C235 1.388 . S
C235 H206 0.930 . S
C235 C230 1.391 . S
C235 N234 1.388 . S
Co236 O238 2.143 . S
Co236 O244 2.074 . S
Co236 O247 2.093 . S
Co236 O260 2.097 . S
Co236 N277 2.151 . S
Co236 N285 2.214 . S
Co237 O238 2.160 . S
Co237 O243 2.058 . S
Co237 O253 2.057 . S
Co237 O268 2.037 . S
Co237 N272 2.145 1_455 S
Co237 N293 2.257 . S
O238 Co236 2.143 . S
O238 Co237 2.160 . S
C239 O240 1.278 . S
C239 O247 1.224 . S
O240 C239 1.278 . S
C241 O242 1.245 . S
C241 O253 1.232 . S
O242 C241 1.245 . S
O243 Co237 2.058 . S
O243 C269 1.269 . S
O244 Co236 2.074 . S
O244 C269 1.257 . S
H245 C270 0.930 . S
H246 C276 0.930 . S
O247 Co236 2.093 . S
O247 C239 1.224 . S
H248 C280 0.929 . S
H249 C282 0.930 . S
H250 C283 0.930 . S
H251 C281 0.929 . S
H252 C284 0.928 . S
O253 Co237 2.057 . S
O253 C241 1.232 . S
H254 C273 0.929 . S
H255 C274 0.919 1_455 S
H256 C286 0.931 . S
H257 C278 0.929 . S
H258 C287 0.930 . S
H259 C279 0.931 . S
O260 Co236 2.097 . S
O260 C288 1.214 . S
H261 C289 0.929 . S
H262 C290 0.929 . S
H263 C291 0.930 . S
H264 C292 0.929 . S
H265 C294 0.930 . S
H266 C271 0.930 . S
H267 C275 0.930 . S
O268 Co237 2.037 . S
O268 C288 1.234 . S
C269 O243 1.269 . S
C269 O244 1.257 . S
C270 H245 0.930 . S
C270 C273 1.388 . S
C270 C275 1.418 . S
C271 H266 0.930 . S
C271 C274 1.423 . S
C271 C275 1.353 . S
N272 Co237 2.145 1_655 S
N272 C273 1.397 . S
N272 C274 1.326 . S
C273 H254 0.929 . S
C273 C270 1.388 . S
C273 N272 1.397 . S
C274 H255 0.919 1_655 S
C274 C271 1.423 . S
C274 N272 1.326 . S
C275 H267 0.930 . S
C275 C270 1.418 . S
C275 C271 1.353 . S
C276 H246 0.930 . S
C276 N277 1.330 . S
C276 C278 1.446 . S
N277 Co236 2.151 . S
N277 C276 1.330 . S
N277 C281 1.418 . S
C278 H257 0.929 . S
C278 C276 1.446 . S
C278 C279 1.332 . S
C279 H259 0.931 . S
C279 C278 1.332 . S
C279 C280 1.267 . S
C280 H248 0.929 . S
C280 C279 1.267 . S
C280 C281 1.251 . S
C281 H251 0.929 . S
C281 N277 1.418 . S
C281 C280 1.251 . S
C282 H249 0.930 . S
C282 C284 1.406 . S
C282 C287 1.261 . S
C283 H250 0.930 . S
C283 N285 1.325 . S
C283 C286 1.357 . S
C284 H252 0.928 . S
C284 C282 1.406 . S
C284 N285 1.261 . S
N285 Co236 2.214 . S
N285 C283 1.325 . S
N285 C284 1.261 . S
C286 H256 0.931 . S
C286 C283 1.357 . S
C286 C287 1.312 . S
C287 H258 0.930 . S
C287 C282 1.261 . S
C287 C286 1.312 . S
C288 O260 1.214 . S
C288 O268 1.234 . S
C289 H261 0.929 . S
C289 C292 1.391 . S
C289 C294 1.391 . S
C290 H262 0.929 . S
C290 C291 1.390 . S
C290 N293 1.391 . S
C291 H263 0.930 . S
C291 C290 1.390 . S
C291 C292 1.392 . S
C292 H264 0.929 . S
C292 C289 1.391 . S
C292 C291 1.392 . S
N293 Co237 2.257 . S
N293 C290 1.391 . S
N293 C294 1.388 . S
C294 H265 0.930 . S
C294 C289 1.391 . S
C294 N293 1.388 . S
Co295 O297 2.143 . S
Co295 O303 2.074 . S
Co295 O306 2.093 . S
Co295 O319 2.097 . S
Co295 N336 2.151 . S
Co295 N344 2.214 . S
Co296 O297 2.160 . S
Co296 O302 2.058 . S
Co296 O312 2.057 . S
Co296 O327 2.037 . S
Co296 N331 2.145 1_545 S
Co296 N352 2.257 . S
O297 Co295 2.143 . S
O297 Co296 2.160 . S
C298 O299 1.278 . S
C298 O306 1.224 . S
O299 C298 1.278 . S
C300 O301 1.245 . S
C300 O312 1.232 . S
O301 C300 1.245 . S
O302 Co296 2.058 . S
O302 C328 1.269 . S
O303 Co295 2.074 . S
O303 C328 1.257 . S
H304 C329 0.930 . S
H305 C335 0.930 . S
O306 Co295 2.093 . S
O306 C298 1.224 . S
H307 C339 0.929 . S
H308 C341 0.930 . S
H309 C342 0.930 . S
H310 C340 0.929 . S
H311 C343 0.928 . S
O312 Co296 2.057 . S
O312 C300 1.232 . S
H313 C332 0.929 . S
H314 C333 0.909 1_545 S
H315 C345 0.931 . S
H316 C337 0.929 . S
H317 C346 0.930 . S
H318 C338 0.931 1_554 S
O319 Co295 2.097 . S
O319 C347 1.214 . S
H320 C348 0.929 . S
H321 C349 0.929 . S
H322 C350 0.930 . S
H323 C351 0.929 . S
H324 C353 0.930 . S
H325 C330 0.930 . S
H326 C334 0.930 . S
O327 Co296 2.037 . S
O327 C347 1.234 . S
C328 O302 1.269 . S
C328 O303 1.257 . S
C329 H304 0.930 . S
C329 C332 1.388 . S
C329 C334 1.418 . S
C330 H325 0.930 . S
C330 C333 1.414 . S
C330 C334 1.353 . S
N331 Co296 2.145 1_565 S
N331 C332 1.397 . S
N331 C333 1.344 . S
C332 H313 0.929 . S
C332 C329 1.388 . S
C332 N331 1.397 . S
C333 H314 0.909 1_565 S
C333 C330 1.414 . S
C333 N331 1.344 . S
C334 H326 0.930 . S
C334 C329 1.418 . S
C334 C330 1.353 . S
C335 H305 0.930 . S
C335 N336 1.330 . S
C335 C337 1.446 . S
N336 Co295 2.151 . S
N336 C335 1.330 . S
N336 C340 1.418 . S
C337 H316 0.929 . S
C337 C335 1.446 . S
C337 C338 1.332 . S
C338 H318 0.931 1_556 S
C338 C337 1.332 . S
C338 C339 1.267 1_556 S
C339 H307 0.929 . S
C339 C338 1.267 1_554 S
C339 C340 1.251 1_554 S
C340 H310 0.929 . S
C340 N336 1.418 . S
C340 C339 1.251 1_556 S
C341 H308 0.930 . S
C341 C343 1.406 . S
C341 C346 1.261 . S
C342 H309 0.930 . S
C342 N344 1.325 . S
C342 C345 1.357 . S
C343 H311 0.928 . S
C343 C341 1.406 . S
C343 N344 1.261 . S
N344 Co295 2.214 . S
N344 C342 1.325 . S
N344 C343 1.261 . S
C345 H315 0.931 . S
C345 C342 1.357 . S
C345 C346 1.312 . S
C346 H317 0.930 . S
C346 C341 1.261 . S
C346 C345 1.312 . S
C347 O319 1.214 . S
C347 O327 1.234 . S
C348 H320 0.929 . S
C348 C351 1.391 . S
C348 C353 1.391 . S
C349 H321 0.929 . S
C349 C350 1.390 . S
C349 N352 1.391 . S
C350 H322 0.930 . S
C350 C349 1.390 . S
C350 C351 1.392 . S
C351 H323 0.929 . S
C351 C348 1.391 . S
C351 C350 1.392 . S
N352 Co296 2.257 . S
N352 C349 1.391 . S
N352 C353 1.388 . S
C353 H324 0.930 . S
C353 C348 1.391 . S
C353 N352 1.388 . S
Co354 O356 2.143 . S
Co354 O362 2.074 . S
Co354 O365 2.093 . S
Co354 O378 2.097 . S
Co354 N395 2.151 . S
Co354 N403 2.214 . S
Co355 O356 2.160 . S
Co355 O361 2.058 . S
Co355 O371 2.057 . S
Co355 O386 2.037 . S
Co355 N390 2.145 . S
Co355 N411 2.257 . S
O356 Co354 2.143 . S
O356 Co355 2.160 . S
C357 O358 1.278 . S
C357 O365 1.224 . S
O358 C357 1.278 . S
C359 O360 1.245 . S
C359 O371 1.232 . S
O360 C359 1.245 . S
O361 Co355 2.058 . S
O361 C387 1.269 . S
O362 Co354 2.074 . S
O362 C387 1.257 . S
H363 C388 0.930 . S
H364 C394 0.930 . S
O365 Co354 2.093 . S
O365 C357 1.224 . S
H366 C398 0.929 . S
H367 C400 0.930 . S
H368 C401 0.930 . S
H369 C399 0.929 . S
H370 C402 0.928 . S
O371 Co355 2.057 . S
O371 C359 1.232 . S
H372 C391 0.929 . S
H373 C392 0.929 . S
H374 C404 0.931 . S
H375 C396 0.929 . S
H376 C405 0.930 . S
H377 C397 0.931 . S
O378 Co354 2.097 . S
O378 C406 1.214 . S
H379 C407 0.929 . S
H380 C408 0.929 . S
H381 C409 0.930 . S
H382 C410 0.929 . S
H383 C412 0.930 . S
H384 C389 0.930 . S
H385 C393 0.930 . S
O386 Co355 2.037 . S
O386 C406 1.234 . S
C387 O361 1.269 . S
C387 O362 1.257 . S
C388 H363 0.930 . S
C388 C391 1.388 . S
C388 C393 1.418 . S
C389 H384 0.930 . S
C389 C392 1.404 . S
C389 C393 1.353 . S
N390 Co355 2.145 . S
N390 C391 1.397 . S
N390 C392 1.334 . S
C391 H372 0.929 . S
C391 C388 1.388 . S
C391 N390 1.397 . S
C392 H373 0.929 . S
C392 C389 1.404 . S
C392 N390 1.334 . S
C393 H385 0.930 . S
C393 C388 1.418 . S
C393 C389 1.353 . S
C394 H364 0.930 . S
C394 N395 1.330 . S
C394 C396 1.446 . S
N395 Co354 2.151 . S
N395 C394 1.330 . S
N395 C399 1.418 . S
C396 H375 0.929 . S
C396 C394 1.446 . S
C396 C397 1.332 . S
C397 H377 0.931 . S
C397 C396 1.332 . S
C397 C398 1.267 . S
C398 H366 0.929 . S
C398 C397 1.267 . S
C398 C399 1.251 . S
C399 H369 0.929 . S
C399 N395 1.418 . S
C399 C398 1.251 . S
C400 H367 0.930 . S
C400 C402 1.406 . S
C400 C405 1.261 . S
C401 H368 0.930 . S
C401 N403 1.325 . S
C401 C404 1.357 . S
C402 H370 0.928 . S
C402 C400 1.406 . S
C402 N403 1.261 . S
N403 Co354 2.214 . S
N403 C401 1.325 . S
N403 C402 1.261 . S
C404 H374 0.931 . S
C404 C401 1.357 . S
C404 C405 1.312 . S
C405 H376 0.930 . S
C405 C400 1.261 . S
C405 C404 1.312 . S
C406 O378 1.214 . S
C406 O386 1.234 . S
C407 H379 0.929 . S
C407 C410 1.391 . S
C407 C412 1.391 . S
C408 H380 0.929 . S
C408 C409 1.390 . S
C408 N411 1.391 . S
C409 H381 0.930 . S
C409 C408 1.390 . S
C409 C410 1.392 . S
C410 H382 0.929 . S
C410 C407 1.391 . S
C410 C409 1.392 . S
N411 Co355 2.257 . S
N411 C408 1.391 . S
N411 C412 1.388 . S
C412 H383 0.930 . S
C412 C407 1.391 . S
C412 N411 1.388 . S
Co413 O415 2.143 . S
Co413 O421 2.074 . S
Co413 O424 2.093 . S
Co413 O437 2.097 . S
Co413 N454 2.151 . S
Co413 N462 2.214 . S
Co414 O415 2.160 . S
Co414 O420 2.058 . S
Co414 O430 2.057 . S
Co414 O445 2.037 . S
Co414 N449 2.145 1_655 S
Co414 N470 2.257 . S
O415 Co413 2.143 . S
O415 Co414 2.160 . S
C416 O417 1.278 . S
C416 O424 1.224 . S
O417 C416 1.278 . S
C418 O419 1.245 . S
C418 O430 1.232 . S
O419 C418 1.245 . S
O420 Co414 2.058 . S
O420 C446 1.269 . S
O421 Co413 2.074 . S
O421 C446 1.257 . S
H422 C447 0.930 . S
H423 C453 0.930 . S
O424 Co413 2.093 . S
O424 C416 1.224 . S
H425 C457 0.929 . S
H426 C459 0.930 . S
H427 C460 0.930 . S
H428 C458 0.929 . S
H429 C461 0.928 . S
O430 Co414 2.057 . S
O430 C418 1.232 . S
H431 C450 0.929 . S
H432 C451 0.909 1_655 S
H433 C463 0.931 . S
H434 C455 0.929 . S
H435 C464 0.930 . S
H436 C456 0.931 . S
O437 Co413 2.097 . S
O437 C465 1.214 . S
H438 C466 0.929 . S
H439 C467 0.929 . S
H440 C468 0.930 . S
H441 C469 0.929 1_554 S
H442 C471 0.930 . S
H443 C448 0.930 . S
H444 C452 0.930 . S
O445 Co414 2.037 . S
O445 C465 1.234 . S
C446 O420 1.269 . S
C446 O421 1.257 . S
C447 H422 0.930 . S
C447 C450 1.388 . S
C447 C452 1.418 . S
C448 H443 0.930 . S
C448 C451 1.414 . S
C448 C452 1.353 . S
N449 Co414 2.145 1_455 S
N449 C450 1.397 . S
N449 C451 1.344 . S
C450 H431 0.929 . S
C450 C447 1.388 . S
C450 N449 1.397 . S
C451 H432 0.909 1_455 S
C451 C448 1.414 . S
C451 N449 1.344 . S
C452 H444 0.930 . S
C452 C447 1.418 . S
C452 C448 1.353 . S
C453 H423 0.930 . S
C453 N454 1.330 . S
C453 C455 1.446 . S
N454 Co413 2.151 . S
N454 C453 1.330 . S
N454 C458 1.418 . S
C455 H434 0.929 . S
C455 C453 1.446 . S
C455 C456 1.332 . S
C456 H436 0.931 . S
C456 C455 1.332 . S
C456 C457 1.267 . S
C457 H425 0.929 . S
C457 C456 1.267 . S
C457 C458 1.251 . S
C458 H428 0.929 . S
C458 N454 1.418 . S
C458 C457 1.251 . S
C459 H426 0.930 . S
C459 C461 1.406 . S
C459 C464 1.261 . S
C460 H427 0.930 . S
C460 N462 1.325 . S
C460 C463 1.357 . S
C461 H429 0.928 . S
C461 C459 1.406 . S
C461 N462 1.261 . S
N462 Co413 2.214 . S
N462 C460 1.325 . S
N462 C461 1.261 . S
C463 H433 0.931 . S
C463 C460 1.357 . S
C463 C464 1.312 . S
C464 H435 0.930 . S
C464 C459 1.261 . S
C464 C463 1.312 . S
C465 O437 1.214 . S
C465 O445 1.234 . S
C466 H438 0.929 . S
C466 C469 1.391 . S
C466 C471 1.391 . S
C467 H439 0.929 . S
C467 C468 1.390 . S
C467 N470 1.391 . S
C468 H440 0.930 . S
C468 C467 1.390 . S
C468 C469 1.392 . S
C469 H441 0.929 1_556 S
C469 C466 1.391 . S
C469 C468 1.392 . S
N470 Co414 2.257 . S
N470 C467 1.391 . S
N470 C471 1.388 . S
C471 H442 0.930 . S
C471 C466 1.391 . S
C471 N470 1.388 . S
Co472 O474 2.143 . S
Co472 O480 2.074 . S
Co472 O483 2.093 . S
Co472 O496 2.097 . S
Co472 N513 2.151 . S
Co472 N521 2.214 . S
Co473 O474 2.160 . S
Co473 O479 2.058 . S
Co473 O489 2.057 . S
Co473 O504 2.037 . S
Co473 N508 2.145 1_565 S
Co473 N529 2.257 . S
O474 Co472 2.143 . S
O474 Co473 2.160 . S
C475 O476 1.278 . S
C475 O483 1.224 . S
O476 C475 1.278 . S
C477 O478 1.245 . S
C477 O489 1.232 . S
O478 C477 1.245 . S
O479 Co473 2.058 . S
O479 C505 1.269 . S
O480 Co472 2.074 . S
O480 C505 1.257 . S
H481 C506 0.930 . S
H482 C512 0.930 . S
O483 Co472 2.093 . S
O483 C475 1.224 . S
H484 C516 0.929 . S
H485 C518 0.930 . S
H486 C519 0.930 . S
H487 C517 0.929 . S
H488 C520 0.928 . S
O489 Co473 2.057 . S
O489 C477 1.232 . S
H490 C509 0.929 . S
H491 C510 0.919 1_565 S
H492 C522 0.931 . S
H493 C514 0.929 . S
H494 C523 0.930 . S
H495 C515 0.931 1_556 S
O496 Co472 2.097 . S
O496 C524 1.214 . S
H497 C525 0.929 . S
H498 C526 0.929 . S
H499 C527 0.930 . S
H500 C528 0.929 . S
H501 C530 0.930 . S
H502 C507 0.930 . S
H503 C511 0.930 . S
O504 Co473 2.037 . S
O504 C524 1.234 . S
C505 O479 1.269 . S
C505 O480 1.257 . S
C506 H481 0.930 . S
C506 C509 1.388 . S
C506 C511 1.418 . S
C507 H502 0.930 . S
C507 C510 1.423 . S
C507 C511 1.353 . S
N508 Co473 2.145 1_545 S
N508 C509 1.397 . S
N508 C510 1.326 . S
C509 H490 0.929 . S
C509 C506 1.388 . S
C509 N508 1.397 . S
C510 H491 0.919 1_545 S
C510 C507 1.423 . S
C510 N508 1.326 . S
C511 H503 0.930 . S
C511 C506 1.418 . S
C511 C507 1.353 . S
C512 H482 0.930 . S
C512 N513 1.330 . S
C512 C514 1.446 . S
N513 Co472 2.151 . S
N513 C512 1.330 . S
N513 C517 1.418 . S
C514 H493 0.929 . S
C514 C512 1.446 . S
C514 C515 1.332 . S
C515 H495 0.931 1_554 S
C515 C514 1.332 . S
C515 C516 1.267 1_554 S
C516 H484 0.929 . S
C516 C515 1.267 1_556 S
C516 C517 1.251 1_556 S
C517 H487 0.929 . S
C517 N513 1.418 . S
C517 C516 1.251 1_554 S
C518 H485 0.930 . S
C518 C520 1.406 . S
C518 C523 1.261 . S
C519 H486 0.930 . S
C519 N521 1.325 . S
C519 C522 1.357 . S
C520 H488 0.928 . S
C520 C518 1.406 . S
C520 N521 1.261 . S
N521 Co472 2.214 . S
N521 C519 1.325 . S
N521 C520 1.261 . S
C522 H492 0.931 . S
C522 C519 1.357 . S
C522 C523 1.312 . S
C523 H494 0.930 . S
C523 C518 1.261 . S
C523 C522 1.312 . S
C524 O496 1.214 . S
C524 O504 1.234 . S
C525 H497 0.929 . S
C525 C528 1.391 . S
C525 C530 1.391 . S
C526 H498 0.929 . S
C526 C527 1.390 . S
C526 N529 1.391 . S
C527 H499 0.930 . S
C527 C526 1.390 . S
C527 C528 1.392 . S
C528 H500 0.929 . S
C528 C525 1.391 . S
C528 C527 1.392 . S
N529 Co473 2.257 . S
N529 C526 1.391 . S
N529 C530 1.388 . S
C530 H501 0.930 . S
C530 C525 1.391 . S
C530 N529 1.388 . S
Co531 O533 2.143 . S
Co531 O539 2.074 . S
Co531 O542 2.093 . S
Co531 O555 2.097 . S
Co531 N572 2.151 . S
Co531 N580 2.214 . S
Co532 O533 2.160 . S
Co532 O538 2.058 . S
Co532 O548 2.057 . S
Co532 O563 2.037 . S
Co532 N567 2.145 . S
Co532 N588 2.257 . S
O533 Co531 2.143 . S
O533 Co532 2.160 . S
C534 O535 1.278 . S
C534 O542 1.224 . S
O535 C534 1.278 . S
C536 O537 1.245 . S
C536 O548 1.232 . S
O537 C536 1.245 . S
O538 Co532 2.058 . S
O538 C564 1.269 . S
O539 Co531 2.074 . S
O539 C564 1.257 . S
H540 C565 0.930 . S
H541 C571 0.930 . S
O542 Co531 2.093 . S
O542 C534 1.224 . S
H543 C575 0.929 . S
H544 C577 0.930 . S
H545 C578 0.930 . S
H546 C576 0.929 . S
H547 C579 0.928 . S
O548 Co532 2.057 . S
O548 C536 1.232 . S
H549 C568 0.929 . S
H550 C569 0.929 . S
H551 C581 0.931 . S
H552 C573 0.929 . S
H553 C582 0.930 . S
H554 C574 0.931 . S
O555 Co531 2.097 . S
O555 C583 1.214 . S
H556 C584 0.929 . S
H557 C585 0.929 . S
H558 C586 0.930 . S
H559 C587 0.929 . S
H560 C589 0.930 . S
H561 C566 0.930 . S
H562 C570 0.930 . S
O563 Co532 2.037 . S
O563 C583 1.234 . S
C564 O538 1.269 . S
C564 O539 1.257 . S
C565 H540 0.930 . S
C565 C568 1.388 . S
C565 C570 1.418 . S
C566 H561 0.930 . S
C566 C569 1.404 . S
C566 C570 1.353 . S
N567 Co532 2.145 . S
N567 C568 1.397 . S
N567 C569 1.334 . S
C568 H549 0.929 . S
C568 C565 1.388 . S
C568 N567 1.397 . S
C569 H550 0.929 . S
C569 C566 1.404 . S
C569 N567 1.334 . S
C570 H562 0.930 . S
C570 C565 1.418 . S
C570 C566 1.353 . S
C571 H541 0.930 . S
C571 N572 1.330 . S
C571 C573 1.446 . S
N572 Co531 2.151 . S
N572 C571 1.330 . S
N572 C576 1.418 . S
C573 H552 0.929 . S
C573 C571 1.446 . S
C573 C574 1.332 . S
C574 H554 0.931 . S
C574 C573 1.332 . S
C574 C575 1.267 . S
C575 H543 0.929 . S
C575 C574 1.267 . S
C575 C576 1.251 . S
C576 H546 0.929 . S
C576 N572 1.418 . S
C576 C575 1.251 . S
C577 H544 0.930 . S
C577 C579 1.406 . S
C577 C582 1.261 . S
C578 H545 0.930 . S
C578 N580 1.325 . S
C578 C581 1.357 . S
C579 H547 0.928 . S
C579 C577 1.406 . S
C579 N580 1.261 . S
N580 Co531 2.214 . S
N580 C578 1.325 . S
N580 C579 1.261 . S
C581 H551 0.931 . S
C581 C578 1.357 . S
C581 C582 1.312 . S
C582 H553 0.930 . S
C582 C577 1.261 . S
C582 C581 1.312 . S
C583 O555 1.214 . S
C583 O563 1.234 . S
C584 H556 0.929 . S
C584 C587 1.391 . S
C584 C589 1.391 . S
C585 H557 0.929 . S
C585 C586 1.390 . S
C585 N588 1.391 . S
C586 H558 0.930 . S
C586 C585 1.390 . S
C586 C587 1.392 . S
C587 H559 0.929 . S
C587 C584 1.391 . S
C587 C586 1.392 . S
N588 Co532 2.257 . S
N588 C585 1.391 . S
N588 C589 1.388 . S
C589 H560 0.930 . S
C589 C584 1.391 . S
C589 N588 1.388 . S
Co590 O592 2.143 . S
Co590 O598 2.074 . S
Co590 O601 2.093 . S
Co590 O614 2.097 . S
Co590 N631 2.151 . S
Co590 N639 2.214 . S
Co591 O592 2.160 . S
Co591 O597 2.058 . S
Co591 O607 2.057 . S
Co591 O622 2.037 . S
Co591 N626 2.145 1_455 S
Co591 N647 2.257 . S
O592 Co590 2.143 . S
O592 Co591 2.160 . S
C593 O594 1.278 . S
C593 O601 1.224 . S
O594 C593 1.278 . S
C595 O596 1.245 . S
C595 O607 1.232 . S
O596 C595 1.245 . S
O597 Co591 2.058 . S
O597 C623 1.269 . S
O598 Co590 2.074 . S
O598 C623 1.257 . S
H599 C624 0.930 . S
H600 C630 0.930 . S
O601 Co590 2.093 . S
O601 C593 1.224 . S
H602 C634 0.929 . S
H603 C636 0.930 . S
H604 C637 0.930 . S
H605 C635 0.929 . S
H606 C638 0.928 . S
O607 Co591 2.057 . S
O607 C595 1.232 . S
H608 C627 0.929 . S
H609 C628 0.909 1_455 S
H610 C640 0.931 . S
H611 C632 0.929 . S
H612 C641 0.930 . S
H613 C633 0.931 . S
O614 Co590 2.097 . S
O614 C642 1.214 . S
H615 C643 0.929 . S
H616 C644 0.929 . S
H617 C645 0.930 . S
H618 C646 0.929 1_554 S
H619 C648 0.930 . S
H620 C625 0.930 . S
H621 C629 0.930 . S
O622 Co591 2.037 . S
O622 C642 1.234 . S
C623 O597 1.269 . S
C623 O598 1.257 . S
C624 H599 0.930 . S
C624 C627 1.388 . S
C624 C629 1.418 . S
C625 H620 0.930 . S
C625 C628 1.414 . S
C625 C629 1.353 . S
N626 Co591 2.145 1_655 S
N626 C627 1.397 . S
N626 C628 1.344 . S
C627 H608 0.929 . S
C627 C624 1.388 . S
C627 N626 1.397 . S
C628 H609 0.909 1_655 S
C628 C625 1.414 . S
C628 N626 1.344 . S
C629 H621 0.930 . S
C629 C624 1.418 . S
C629 C625 1.353 . S
C630 H600 0.930 . S
C630 N631 1.330 . S
C630 C632 1.446 . S
N631 Co590 2.151 . S
N631 C630 1.330 . S
N631 C635 1.418 . S
C632 H611 0.929 . S
C632 C630 1.446 . S
C632 C633 1.332 . S
C633 H613 0.931 . S
C633 C632 1.332 . S
C633 C634 1.267 . S
C634 H602 0.929 . S
C634 C633 1.267 . S
C634 C635 1.251 . S
C635 H605 0.929 . S
C635 N631 1.418 . S
C635 C634 1.251 . S
C636 H603 0.930 . S
C636 C638 1.406 . S
C636 C641 1.261 . S
C637 H604 0.930 . S
C637 N639 1.325 . S
C637 C640 1.357 . S
C638 H606 0.928 . S
C638 C636 1.406 . S
C638 N639 1.261 . S
N639 Co590 2.214 . S
N639 C637 1.325 . S
N639 C638 1.261 . S
C640 H610 0.931 . S
C640 C637 1.357 . S
C640 C641 1.312 . S
C641 H612 0.930 . S
C641 C636 1.261 . S
C641 C640 1.312 . S
C642 O614 1.214 . S
C642 O622 1.234 . S
C643 H615 0.929 . S
C643 C646 1.391 . S
C643 C648 1.391 . S
C644 H616 0.929 . S
C644 C645 1.390 . S
C644 N647 1.391 . S
C645 H617 0.930 . S
C645 C644 1.390 . S
C645 C646 1.392 . S
C646 H618 0.929 1_556 S
C646 C643 1.391 . S
C646 C645 1.392 . S
N647 Co591 2.257 . S
N647 C644 1.391 . S
N647 C648 1.388 . S
C648 H619 0.930 . S
C648 C643 1.391 . S
C648 N647 1.388 . S
Co649 O651 2.143 . S
Co649 O657 2.074 . S
Co649 O660 2.093 . S
Co649 O673 2.097 . S
Co649 N690 2.151 . S
Co649 N698 2.214 . S
Co650 O651 2.160 . S
Co650 O656 2.058 . S
Co650 O666 2.057 . S
Co650 O681 2.037 . S
Co650 N685 2.145 1_545 S
Co650 N706 2.257 . S
O651 Co649 2.143 . S
O651 Co650 2.160 . S
C652 O653 1.278 . S
C652 O660 1.224 . S
O653 C652 1.278 . S
C654 O655 1.245 . S
C654 O666 1.232 . S
O655 C654 1.245 . S
O656 Co650 2.058 . S
O656 C682 1.269 . S
O657 Co649 2.074 . S
O657 C682 1.257 . S
H658 C683 0.930 . S
H659 C689 0.930 . S
O660 Co649 2.093 . S
O660 C652 1.224 . S
H661 C693 0.929 . S
H662 C695 0.930 . S
H663 C696 0.930 . S
H664 C694 0.929 . S
H665 C697 0.928 . S
O666 Co650 2.057 . S
O666 C654 1.232 . S
H667 C686 0.929 . S
H668 C687 0.919 1_545 S
H669 C699 0.931 . S
H670 C691 0.929 . S
H671 C700 0.930 . S
H672 C692 0.931 1_556 S
O673 Co649 2.097 . S
O673 C701 1.214 . S
H674 C702 0.929 . S
H675 C703 0.929 . S
H676 C704 0.930 . S
H677 C705 0.929 . S
H678 C707 0.930 . S
H679 C684 0.930 . S
H680 C688 0.930 . S
O681 Co650 2.037 . S
O681 C701 1.234 . S
C682 O656 1.269 . S
C682 O657 1.257 . S
C683 H658 0.930 . S
C683 C686 1.388 . S
C683 C688 1.418 . S
C684 H679 0.930 . S
C684 C687 1.423 . S
C684 C688 1.353 . S
N685 Co650 2.145 1_565 S
N685 C686 1.397 . S
N685 C687 1.326 . S
C686 H667 0.929 . S
C686 C683 1.388 . S
C686 N685 1.397 . S
C687 H668 0.919 1_565 S
C687 C684 1.423 . S
C687 N685 1.326 . S
C688 H680 0.930 . S
C688 C683 1.418 . S
C688 C684 1.353 . S
C689 H659 0.930 . S
C689 N690 1.330 . S
C689 C691 1.446 . S
N690 Co649 2.151 . S
N690 C689 1.330 . S
N690 C694 1.418 . S
C691 H670 0.929 . S
C691 C689 1.446 . S
C691 C692 1.332 . S
C692 H672 0.931 1_554 S
C692 C691 1.332 . S
C692 C693 1.267 1_554 S
C693 H661 0.929 . S
C693 C692 1.267 1_556 S
C693 C694 1.251 1_556 S
C694 H664 0.929 . S
C694 N690 1.418 . S
C694 C693 1.251 1_554 S
C695 H662 0.930 . S
C695 C697 1.406 . S
C695 C700 1.261 . S
C696 H663 0.930 . S
C696 N698 1.325 . S
C696 C699 1.357 . S
C697 H665 0.928 . S
C697 C695 1.406 . S
C697 N698 1.261 . S
N698 Co649 2.214 . S
N698 C696 1.325 . S
N698 C697 1.261 . S
C699 H669 0.931 . S
C699 C696 1.357 . S
C699 C700 1.312 . S
C700 H671 0.930 . S
C700 C695 1.261 . S
C700 C699 1.312 . S
C701 O673 1.214 . S
C701 O681 1.234 . S
C702 H674 0.929 . S
C702 C705 1.391 . S
C702 C707 1.391 . S
C703 H675 0.929 . S
C703 C704 1.390 . S
C703 N706 1.391 . S
C704 H676 0.930 . S
C704 C703 1.390 . S
C704 C705 1.392 . S
C705 H677 0.929 . S
C705 C702 1.391 . S
C705 C704 1.392 . S
N706 Co650 2.257 . S
N706 C703 1.391 . S
N706 C707 1.388 . S
C707 H678 0.930 . S
C707 C702 1.391 . S
C707 N706 1.388 . S
C708 C709 1.387 . S
C708 H712 0.950 . S
C708 C717 1.390 . S
C709 C708 1.387 . S
C709 C711 1.387 . S
H710 C717 0.950 . S
C711 C709 1.387 . S
C711 C713 1.390 . S
C711 H715 0.950 . S
H712 C708 0.950 . S
C713 C711 1.390 . S
C713 C714 1.387 . S
C713 H716 0.950 . S
C714 C713 1.387 . S
C714 C717 1.387 . S
H715 C711 0.950 . S
H716 C713 0.950 . S
C717 C708 1.390 . S
C717 H710 0.950 . S
C717 C714 1.387 . S
C718 C719 1.387 . S
C718 H722 0.950 . S
C718 C727 1.390 . S
C719 C718 1.387 . S
C719 C721 1.387 . S
H720 C727 0.950 . S
C721 C719 1.387 . S
C721 C723 1.390 . S
C721 H725 0.950 . S
H722 C718 0.950 . S
C723 C721 1.390 . S
C723 C724 1.387 . S
C723 H726 0.950 . S
C724 C723 1.387 . S
C724 C727 1.387 . S
H725 C721 0.950 . S
H726 C723 0.950 . S
C727 C718 1.390 . S
C727 H720 0.950 . S
C727 C724 1.387 . S
C728 C729 1.387 . S
C728 H732 0.950 . S
C728 C737 1.390 . S
C729 C728 1.387 . S
C729 C731 1.387 . S
H730 C737 0.950 . S
C731 C729 1.387 . S
C731 C733 1.390 . S
C731 H735 0.950 . S
H732 C728 0.950 . S
C733 C731 1.390 . S
C733 C734 1.387 . S
C733 H736 0.950 . S
C734 C733 1.387 . S
C734 C737 1.387 . S
H735 C731 0.950 . S
H736 C733 0.950 . S
C737 C728 1.390 . S
C737 H730 0.950 . S
C737 C734 1.387 . S
C738 C739 1.387 . S
C738 H742 0.950 . S
C738 C747 1.390 . S
C739 C738 1.387 . S
C739 C741 1.387 . S
H740 C747 0.950 . S
C741 C739 1.387 . S
C741 C743 1.390 . S
C741 H745 0.950 . S
H742 C738 0.950 . S
C743 C741 1.390 . S
C743 C744 1.387 . S
C743 H746 0.950 . S
C744 C743 1.387 . S
C744 C747 1.387 . S
H745 C741 0.950 . S
H746 C743 0.950 . S
C747 C738 1.390 . S
C747 H740 0.950 . S
C747 C744 1.387 . S
C748 C749 1.387 . S
C748 H752 0.950 . S
C748 C757 1.390 . S
C749 C748 1.387 . S
C749 C751 1.387 . S
H750 C757 0.950 . S
C751 C749 1.387 . S
C751 C753 1.390 . S
C751 H755 0.950 . S
H752 C748 0.950 . S
C753 C751 1.390 . S
C753 C754 1.387 . S
C753 H756 0.950 . S
C754 C753 1.387 . S
C754 C757 1.387 . S
H755 C751 0.950 . S
H756 C753 0.950 . S
C757 C748 1.390 . S
C757 H750 0.950 . S
C757 C754 1.387 . S
C758 C759 1.387 . S
C758 H762 0.950 . S
C758 C767 1.390 . S
C759 C758 1.387 . S
C759 C761 1.387 . S
H760 C767 0.950 . S
C761 C759 1.387 . S
C761 C763 1.390 . S
C761 H765 0.950 . S
H762 C758 0.950 . S
C763 C761 1.390 . S
C763 C764 1.387 . S
C763 H766 0.950 . S
C764 C763 1.387 . S
C764 C767 1.387 . S
H765 C761 0.950 . S
H766 C763 0.950 . S
C767 C758 1.390 . S
C767 H760 0.950 . S
C767 C764 1.387 . S
C768 C769 1.387 . S
C768 H772 0.950 . S
C768 C777 1.390 . S
C769 C768 1.387 . S
C769 C771 1.387 . S
H770 C777 0.950 . S
C771 C769 1.387 . S
C771 C773 1.390 . S
C771 H775 0.950 . S
H772 C768 0.950 . S
C773 C771 1.390 . S
C773 C774 1.387 . S
C773 H776 0.950 . S
C774 C773 1.387 . S
C774 C777 1.387 . S
H775 C771 0.950 . S
H776 C773 0.950 . S
C777 C768 1.390 . S
C777 H770 0.950 . S
C777 C774 1.387 . S
C778 C779 1.387 . S
C778 H782 0.950 . S
C778 C787 1.390 1_455 S
C779 C778 1.387 . S
C779 C781 1.387 . S
H780 C787 0.950 . S
C781 C779 1.387 . S
C781 C783 1.390 1_455 S
C781 H785 0.950 . S
H782 C778 0.950 . S
C783 C781 1.390 1_655 S
C783 C784 1.387 . S
C783 H786 0.950 . S
C784 C783 1.387 . S
C784 C787 1.387 . S
H785 C781 0.950 . S
H786 C783 0.950 . S
C787 C778 1.390 1_655 S
C787 H780 0.950 . S
C787 C784 1.387 . S
C788 C789 1.387 . S
C788 H792 0.950 . S
C788 C797 1.390 1_545 S
C789 C788 1.387 . S
C789 C791 1.387 . S
H790 C797 0.950 . S
C791 C789 1.387 . S
C791 C793 1.390 1_545 S
C791 H795 0.950 . S
H792 C788 0.950 . S
C793 C791 1.390 1_565 S
C793 C794 1.387 . S
C793 H796 0.950 . S
C794 C793 1.387 . S
C794 C797 1.387 . S
H795 C791 0.950 . S
H796 C793 0.950 . S
C797 C788 1.390 1_565 S
C797 H790 0.950 . S
C797 C794 1.387 . S
C798 C799 1.387 . S
C798 H802 0.950 . S
C798 C807 1.390 . S
C799 C798 1.387 . S
C799 C801 1.387 . S
H800 C807 0.950 . S
C801 C799 1.387 . S
C801 C803 1.390 . S
C801 H805 0.950 . S
H802 C798 0.950 . S
C803 C801 1.390 . S
C803 C804 1.387 . S
C803 H806 0.950 . S
C804 C803 1.387 . S
C804 C807 1.387 . S
H805 C801 0.950 . S
H806 C803 0.950 . S
C807 C798 1.390 . S
C807 H800 0.950 . S
C807 C804 1.387 . S
C808 C809 1.387 . S
C808 H812 0.950 . S
C808 C817 1.390 1_655 S
C809 C808 1.387 . S
C809 C811 1.387 . S
H810 C817 0.950 . S
C811 C809 1.387 . S
C811 C813 1.390 1_655 S
C811 H815 0.950 . S
H812 C808 0.950 . S
C813 C811 1.390 1_455 S
C813 C814 1.387 . S
C813 H816 0.950 . S
C814 C813 1.387 . S
C814 C817 1.387 . S
H815 C811 0.950 . S
H816 C813 0.950 . S
C817 C808 1.390 1_455 S
C817 H810 0.950 . S
C817 C814 1.387 . S
C818 C819 1.387 . S
C818 H822 0.950 . S
C818 C827 1.390 1_565 S
C819 C818 1.387 . S
C819 C821 1.387 . S
H820 C827 0.950 . S
C821 C819 1.387 . S
C821 C823 1.390 1_565 S
C821 H825 0.950 . S
H822 C818 0.950 . S
C823 C821 1.390 1_545 S
C823 C824 1.387 . S
C823 H826 0.950 . S
C824 C823 1.387 . S
C824 C827 1.387 . S
H825 C821 0.950 . S
H826 C823 0.950 . S
C827 C818 1.390 1_545 S
C827 H820 0.950 . S
C827 C824 1.387 . S
C828 C829 1.387 . S
C828 H832 0.950 . S
C828 C837 1.390 . S
C829 C828 1.387 . S
C829 C831 1.387 . S
H830 C837 0.950 . S
C831 C829 1.387 . S
C831 C833 1.390 . S
C831 H835 0.950 . S
H832 C828 0.950 . S
C833 C831 1.390 . S
C833 C834 1.387 . S
C833 H836 0.950 . S
C834 C833 1.387 . S
C834 C837 1.387 . S
H835 C831 0.950 . S
H836 C833 0.950 . S
C837 C828 1.390 . S
C837 H830 0.950 . S
C837 C834 1.387 . S
C838 C839 1.387 . S
C838 H842 0.950 . S
C838 C847 1.390 . S
C839 C838 1.387 . S
C839 C841 1.387 1_655 S
H840 C847 0.950 . S
C841 C839 1.387 1_455 S
C841 C843 1.390 . S
C841 H845 0.950 . S
H842 C838 0.950 . S
C843 C841 1.390 . S
C843 C844 1.387 . S
C843 H846 0.950 . S
C844 C843 1.387 . S
C844 C847 1.387 1_455 S
H845 C841 0.950 . S
H846 C843 0.950 . S
C847 C838 1.390 . S
C847 H840 0.950 . S
C847 C844 1.387 1_655 S
C848 C849 1.387 . S
C848 H852 0.950 . S
C848 C857 1.390 1_566 S
C849 C848 1.387 . S
C849 C851 1.387 . S
H850 C857 0.950 . S
C851 C849 1.387 . S
C851 C853 1.390 1_566 S
C851 H855 0.950 . S
H852 C848 0.950 . S
C853 C851 1.390 1_544 S
C853 C854 1.387 . S
C853 H856 0.950 . S
C854 C853 1.387 . S
C854 C857 1.387 . S
H855 C851 0.950 . S
H856 C853 0.950 . S
C857 C848 1.390 1_544 S
C857 H850 0.950 . S
C857 C854 1.387 . S
C858 C859 1.387 . S
C858 H862 0.950 . S
C858 C867 1.390 . S
C859 C858 1.387 . S
C859 C861 1.387 . S
H860 C867 0.950 . S
C861 C859 1.387 . S
C861 C863 1.390 . S
C861 H865 0.950 . S
H862 C858 0.950 . S
C863 C861 1.390 . S
C863 C864 1.387 . S
C863 H866 0.950 . S
C864 C863 1.387 . S
C864 C867 1.387 . S
H865 C861 0.950 . S
H866 C863 0.950 . S
C867 C858 1.390 . S
C867 H860 0.950 . S
C867 C864 1.387 . S
C868 C869 1.387 . S
C868 H872 0.950 . S
C868 C877 1.390 . S
C869 C868 1.387 . S
C869 C871 1.387 1_455 S
H870 C877 0.950 . S
C871 C869 1.387 1_655 S
C871 C873 1.390 . S
C871 H875 0.950 . S
H872 C868 0.950 . S
C873 C871 1.390 . S
C873 C874 1.387 . S
C873 H876 0.950 . S
C874 C873 1.387 . S
C874 C877 1.387 1_655 S
H875 C871 0.950 . S
H876 C873 0.950 . S
C877 C868 1.390 . S
C877 H870 0.950 . S
C877 C874 1.387 1_455 S
C878 C879 1.387 . S
C878 H882 0.950 . S
C878 C887 1.390 1_564 S
C879 C878 1.387 . S
C879 C881 1.387 . S
H880 C887 0.950 . S
C881 C879 1.387 . S
C881 C883 1.390 1_564 S
C881 H885 0.950 . S
H882 C878 0.950 . S
C883 C881 1.390 1_546 S
C883 C884 1.387 . S
C883 H886 0.950 . S
C884 C883 1.387 . S
C884 C887 1.387 . S
H885 C881 0.950 . S
H886 C883 0.950 . S
C887 C878 1.390 1_546 S
C887 H880 0.950 . S
C887 C884 1.387 . S
C888 C889 1.387 . S
C888 H892 0.950 . S
C888 C897 1.390 1_655 S
C889 C888 1.387 . S
C889 C891 1.387 . S
H890 C897 0.950 . S
C891 C889 1.387 . S
C891 C893 1.390 1_655 S
C891 H895 0.950 . S
H892 C888 0.950 . S
C893 C891 1.390 1_455 S
C893 C894 1.387 . S
C893 H896 0.950 . S
C894 C893 1.387 . S
C894 C897 1.387 . S
H895 C891 0.950 . S
H896 C893 0.950 . S
C897 C888 1.390 1_455 S
C897 H890 0.950 . S
C897 C894 1.387 . S
C898 C899 1.387 . S
C898 H902 0.950 . S
C898 C907 1.390 1_545 S
C899 C898 1.387 . S
C899 C901 1.387 . S
H900 C907 0.950 . S
C901 C899 1.387 . S
C901 C903 1.390 1_545 S
C901 H905 0.950 . S
H902 C898 0.950 . S
C903 C901 1.390 1_565 S
C903 C904 1.387 . S
C903 H906 0.950 . S
C904 C903 1.387 . S
C904 C907 1.387 . S
H905 C901 0.950 . S
H906 C903 0.950 . S
C907 C898 1.390 1_565 S
C907 H900 0.950 . S
C907 C904 1.387 . S
C908 C909 1.387 . S
C908 H912 0.950 . S
C908 C917 1.390 . S
C909 C908 1.387 . S
C909 C911 1.387 . S
H910 C917 0.950 . S
C911 C909 1.387 . S
C911 C913 1.390 . S
C911 H915 0.950 . S
H912 C908 0.950 . S
C913 C911 1.390 . S
C913 C914 1.387 . S
C913 H916 0.950 . S
C914 C913 1.387 . S
C914 C917 1.387 . S
H915 C911 0.950 . S
H916 C913 0.950 . S
C917 C908 1.390 . S
C917 H910 0.950 . S
C917 C914 1.387 . S
C918 C919 1.387 . S
C918 H922 0.950 . S
C918 C927 1.390 1_655 S
C919 C918 1.387 . S
C919 C921 1.387 . S
H920 C927 0.950 . S
C921 C919 1.387 . S
C921 C923 1.390 1_655 S
C921 H925 0.950 . S
H922 C918 0.950 . S
C923 C921 1.390 1_455 S
C923 C924 1.387 . S
C923 H926 0.950 . S
C924 C923 1.387 . S
C924 C927 1.387 . S
H925 C921 0.950 . S
H926 C923 0.950 . S
C927 C918 1.390 1_455 S
C927 H920 0.950 . S
C927 C924 1.387 . S
C928 C929 1.387 . S
C928 H932 0.950 . S
C928 C937 1.390 1_565 S
C929 C928 1.387 . S
C929 C931 1.387 . S
H930 C937 0.950 . S
C931 C929 1.387 . S
C931 C933 1.390 1_565 S
C931 H935 0.950 . S
H932 C928 0.950 . S
C933 C931 1.390 1_545 S
C933 C934 1.387 . S
C933 H936 0.950 . S
C934 C933 1.387 . S
C934 C937 1.387 . S
H935 C931 0.950 . S
H936 C933 0.950 . S
C937 C928 1.390 1_545 S
C937 H930 0.950 . S
C937 C934 1.387 . S
C938 C939 1.387 . S
C938 H942 0.950 . S
C938 C947 1.390 . S
C939 C938 1.387 . S
C939 C941 1.387 . S
H940 C947 0.950 . S
C941 C939 1.387 . S
C941 C943 1.390 . S
C941 H945 0.950 . S
H942 C938 0.950 . S
C943 C941 1.390 . S
C943 C944 1.387 . S
C943 H946 0.950 . S
C944 C943 1.387 . S
C944 C947 1.387 . S
H945 C941 0.950 . S
H946 C943 0.950 . S
C947 C938 1.390 . S
C947 H940 0.950 . S
C947 C944 1.387 . S
C709 C475 1.618 . S
C714 C3 1.619 . S
C719 C62 1.618 . S
C724 C534 1.618 . S
C729 C121 1.620 . S
C734 C593 1.619 . S
C739 C180 1.618 . S
C744 C652 1.619 . S
C749 C357 1.618 . S
C754 C239 1.618 . S
C759 C298 1.618 . S
C764 C416 1.620 . S
C769 C229 1.453 . S
C774 C52 1.453 . S
C779 C288 1.451 . S
C784 C111 1.451 . S
C789 C347 1.450 . S
C794 C170 1.450 . S
C799 C406 1.453 . S
C804 C583 1.453 . S
C809 C465 1.450 . S
C814 C642 1.450 . S
C819 C524 1.451 . S
C824 C701 1.451 . S
C829 C33 1.618 . S
C834 C564 1.618 . S
C839 C92 1.617 . S
C844 C623 1.618 . S
C849 C151 1.618 . S
C854 C682 1.618 . S
C859 C387 1.617 . S
C864 C210 1.618 . S
C869 C269 1.617 . S
C874 C446 1.618 . S
C879 C505 1.617 . S
C884 C328 1.617 . S
C889 C654 1.498 . S
C894 C5 1.499 . S
C899 C64 1.498 . S
C904 C359 1.498 . S
C909 C418 1.499 . S
C914 C123 1.500 . S
C919 C182 1.498 . S
C924 C477 1.498 . S
C929 C241 1.501 . S
C934 C536 1.501 . S
C939 C595 1.499 . S
C944 C300 1.500 . S
