# Generated by pormake.
# Topology cab, (5)-cn, num edge types: 1
# Building blocks:
#     Node 0, Type 0, BuildingBlock: XOMCOT_clean_sbu_0, # of connection points: 5
#     Node 1, Type 0, BuildingBlock: XOMCOT_clean_sbu_0, # of connection points: 5
#     Node 2, Type 0, BuildingBlock: XOMCOT_clean_sbu_0, # of connection points: 5
#     Node 3, Type 0, BuildingBlock: XOMCOT_clean_sbu_0, # of connection points: 5
#     Node 4, Type 0, BuildingBlock: XOMCOT_clean_sbu_0, # of connection points: 5
#     Node 5, Type 0, BuildingBlock: XOMCOT_clean_sbu_0, # of connection points: 5
#     Edge 6, Type (0, 0), BuildingBlock: EZIPEK_clean_linker_0, # of connection points: 2
#     Edge 7, Type (0, 0), BuildingBlock: EZIPEK_clean_linker_0, # of connection points: 2
#     Edge 8, Type (0, 0), BuildingBlock: EZIPEK_clean_linker_0, # of connection points: 2
#     Edge 9, Type (0, 0), BuildingBlock: EZIPEK_clean_linker_0, # of connection points: 2
#     Edge 10, Type (0, 0), BuildingBlock: EZIPEK_clean_linker_0, # of connection points: 2
#     Edge 11, Type (0, 0), BuildingBlock: EZIPEK_clean_linker_0, # of connection points: 2
#     Edge 12, Type (0, 0), BuildingBlock: EZIPEK_clean_linker_0, # of connection points: 2
#     Edge 13, Type (0, 0), BuildingBlock: EZIPEK_clean_linker_0, # of connection points: 2
#     Edge 14, Type (0, 0), BuildingBlock: EZIPEK_clean_linker_0, # of connection points: 2
#     Edge 15, Type (0, 0), BuildingBlock: EZIPEK_clean_linker_0, # of connection points: 2
#     Edge 16, Type (0, 0), BuildingBlock: EZIPEK_clean_linker_0, # of connection points: 2
#     Edge 17, Type (0, 0), BuildingBlock: EZIPEK_clean_linker_0, # of connection points: 2
#     Edge 18, Type (0, 0), BuildingBlock: EZIPEK_clean_linker_0, # of connection points: 2
#     Edge 19, Type (0, 0), BuildingBlock: EZIPEK_clean_linker_0, # of connection points: 2
#     Edge 20, Type (0, 0), BuildingBlock: EZIPEK_clean_linker_0, # of connection points: 2
# Relax obj value: 0.854
# Max RMSD: 0.232
# Mean RMSD: 0.229
data_MOF--net-cab--node1-XOMCOT_clean_sbu_0--edge1-EZIPEK_clean_linker_0
_symmetry_space_group_name_H-M    P1
_symmetry_Int_Tables_number       1
_symmetry_cell_setting            triclinic
loop_
_symmetry_equiv_pos_as_xyz
'x, y, z'
_cell_length_a     27.808671
_cell_length_b     28.020417
_cell_length_c     27.76492
_cell_angle_alpha  77.984707
_cell_angle_beta   77.122898
_cell_angle_gamma 78.149184
loop_
_atom_site_label
_atom_site_type_symbol
_atom_site_fract_x
_atom_site_fract_y
_atom_site_fract_z
_atom_type_partial_charge
Co0 Co -0.00017 0.02523 0.33322 0.0
C1 C 0.02555 0.91386 0.3591 0.0
C2 C 0.96818 0.93966 0.31559 0.0
C3 C 0.97806 0.88927 0.32171 0.0
N4 N 0.99645 0.95546 0.34049 0.0
N5 N 0.01371 0.87212 0.35007 0.0
H6 H 0.0581 0.91465 0.37346 0.0
H7 H 0.94454 0.96347 0.29113 0.0
C8 C 0.89078 0.02089 0.36388 0.0
O9 O 0.90073 0.9874 0.40273 0.0
N10 N 0.00136 0.09539 0.32193 0.0
C11 C 0.01834 0.12192 0.34795 0.0
C12 C 0.01433 0.1704 0.32357 0.0
C13 C 0.98828 0.12762 0.2818 0.0
N14 N 0.99606 0.17354 0.28167 0.0
C15 C 0.02746 -0.00183 0.42934 0.0
C16 C 0.95514 0.06656 0.47533 0.0
C17 C 0.99646 0.0439 0.49755 0.0
C18 C 0.03163 0.00783 0.47529 0.0
C19 C 0.95304 0.05668 0.42852 0.0
N20 N 0.98946 0.02341 0.40548 0.0
H21 H 0.05819 0.97444 0.41075 0.0
H22 H 0.92554 0.08003 0.40843 0.0
H23 H 0.03512 0.10662 0.38052 0.0
H24 H 0.97511 0.11729 0.25215 0.0
O25 O 0.0716 0.01145 0.32127 0.0
O26 O 0.02678 0.02568 0.2617 0.0
O27 O 0.92564 0.04104 0.33313 0.0
C28 C 0.07086 0.01674 0.27399 0.0
H29 H 0.96337 0.86783 0.30195 0.0
H30 H 0.02679 0.20033 0.33398 0.0
H31 H 0.92771 0.09526 0.49139 0.0
H32 H 0.06421 0.98994 0.49144 0.0
Co33 Co 0.13835 0.13568 0.77865 0.0
C34 C 0.04633 0.14869 0.85816 0.0
C35 C 0.05771 0.07994 0.83182 0.0
C36 C 0.01903 0.07971 0.87274 0.0
N37 N 0.07587 0.12274 0.82346 0.0
N38 N 0.01289 0.12263 0.88951 0.0
H39 H 0.04891 0.18541 0.86138 0.0
H40 H 0.07342 0.04963 0.81144 0.0
C41 C 0.19256 0.04559 0.83289 0.0
O42 O 0.20813 0.0746 0.8555 0.0
N43 N 0.20092 0.14706 0.73482 0.0
C44 C 0.2118 0.16254 0.68478 0.0
C45 C 0.26299 0.16221 0.67068 0.0
C46 C 0.24469 0.13911 0.7503 0.0
N47 N 0.283 0.14712 0.71239 0.0
C48 C 0.0699 0.1477 0.71371 0.0
C49 C 0.11621 0.06874 0.66522 0.0
C50 C 0.07073 0.0961 0.6541 0.0
C51 C 0.04759 0.13612 0.67838 0.0
C52 C 0.13732 0.08155 0.70096 0.0
N53 N 0.11378 0.1203 0.72489 0.0
H54 H 0.05137 0.17804 0.73318 0.0
H55 H 0.1725 0.06044 0.70935 0.0
H56 H 0.18488 0.17226 0.66014 0.0
H57 H 0.24922 0.12715 0.78866 0.0
O58 O 0.11507 0.20645 0.7701 0.0
O59 O 0.15634 0.16366 0.82869 0.0
O60 O 0.16674 0.06396 0.79872 0.0
C61 C 0.13454 0.20637 0.80864 0.0
H62 H 0.99838 0.04976 0.89003 0.0
H63 H 0.28387 0.17089 0.63302 0.0
H64 H 0.13517 0.038 0.64633 0.0
H65 H 0.0126 0.15809 0.67009 0.0
Co66 Co 0.33772 0.03108 0.9903 0.0
C67 C 0.38063 0.06185 0.88234 0.0
C68 C 0.36221 0.9893 0.89787 0.0
C69 C 0.3765 0.00236 0.84708 0.0
N70 N 0.36643 0.02578 0.92053 0.0
N71 N 0.38887 0.04816 0.83659 0.0
H72 H 0.3789 0.09906 0.88794 0.0
H73 H 0.34409 0.95799 0.91614 0.0
C74 C 0.38286 0.92304 0.00132 0.0
O75 O 0.42602 0.93429 0.97582 0.0
N76 N 0.30677 0.03655 0.05882 0.0
C77 C 0.31019 0.07165 0.0835 0.0
C78 C 0.27804 0.06637 0.12873 0.0
C79 C 0.27208 0.01096 0.08887 0.0
N80 N 0.25504 0.02679 0.13366 0.0
C81 C 0.43332 0.06192 0.97985 0.0
C82 C 0.45605 0.0031 0.06782 0.0
C83 C 0.48791 0.0357 0.04035 0.0
C84 C 0.4767 0.06511 0.99568 0.0
C85 C 0.41334 0.00099 0.0506 0.0
N86 N 0.40257 0.02956 0.00678 0.0
H87 H 0.42346 0.0873 0.94747 0.0
H88 H 0.38735 0.97811 0.0739 0.0
H89 H 0.33258 0.10059 0.06849 0.0
H90 H 0.25762 0.98416 0.07579 0.0
O91 O 0.31867 0.10151 0.97274 0.0
O92 O 0.2717 0.04612 0.97391 0.0
O93 O 0.3445 0.95664 0.00903 0.0
C94 C 0.27563 0.09247 0.96923 0.0
H95 H 0.37178 0.98174 0.82006 0.0
H96 H 0.27017 0.09231 0.15447 0.0
H97 H 0.4632 0.9808 0.10317 0.0
H98 H 0.50019 0.09165 0.9744 0.0
Co99 Co 0.01625 0.36478 0.02912 0.0
C100 C 0.90016 0.41183 0.07765 0.0
C101 C 0.92762 0.42156 0.96389 0.0
C102 C 0.85214 0.44567 0.98463 0.0
N103 N 0.95001 0.40261 0.02345 0.0
N104 N 0.84175 0.43642 0.05342 0.0
H105 H 0.90238 0.39577 0.11618 0.0
H106 H 0.94757 0.4156 0.92716 0.0
C107 C 0.03649 0.36357 0.91542 0.0
O108 O 0.0414 0.41028 0.90174 0.0
N109 N 0.08125 0.32497 0.034 0.0
C110 C 0.11993 0.33341 0.05123 0.0
C111 C 0.15958 0.29524 0.04327 0.0
C112 C 0.09715 0.28155 0.01746 0.0
N113 N 0.14473 0.2631 0.02195 0.0
C114 C 0.02621 0.46376 0.02484 0.0
C115 C 0.12138 0.45825 0.96649 0.0
C116 C 0.10227 0.49744 0.9929 0.0
C117 C 0.05343 0.50139 0.02038 0.0
C118 C 0.09291 0.42119 0.97211 0.0
N119 N 0.04663 0.42343 0.00246 0.0
H120 H 0.99042 0.4649 0.05003 0.0
H121 H 0.10987 0.38875 0.95531 0.0
H122 H 0.11983 0.36565 0.06692 0.0
H123 H 0.07446 0.26388 0.00208 0.0
O124 O 0.00533 0.36902 0.09932 0.0
O125 O 0.98725 0.30889 0.06934 0.0
O126 O 0.02429 0.34576 0.96183 0.0
C127 C 0.99133 0.326 0.10823 0.0
H128 H 0.82371 0.45054 0.96219 0.0
H129 H 0.19647 0.29167 0.05165 0.0
H130 H 0.15918 0.45446 0.945 0.0
H131 H 0.03788 0.53152 0.04117 0.0
Co132 Co 0.80727 0.11027 0.12661 0.0
C133 C 0.77171 0.21993 0.10886 0.0
C134 C 0.78652 0.19153 0.18253 0.0
C135 C 0.78105 0.24192 0.17535 0.0
N136 N 0.77987 0.17693 0.14137 0.0
N137 N 0.77335 0.2598 0.12853 0.0
H138 H 0.77111 0.22196 0.06983 0.0
H139 H 0.80258 0.16774 0.21271 0.0
C140 C 0.7634 0.08672 0.23592 0.0
O141 O 0.71956 0.11122 0.2277 0.0
N142 N 0.83868 0.04454 0.1144 0.0
C143 C 0.83417 0.01943 0.07961 0.0
C144 C 0.87167 0.97838 0.07887 0.0
C145 C 0.87862 0.01892 0.13392 0.0
N146 N 0.89948 0.97851 0.11296 0.0
C147 C 0.7136 0.12834 0.09509 0.0
C148 C 0.68494 0.03845 0.14147 0.0
C149 C 0.65623 0.071 0.10907 0.0
C150 C 0.67037 0.11664 0.08641 0.0
C151 C 0.72821 0.05161 0.14902 0.0
N152 N 0.74198 0.09618 0.12601 0.0
H153 H 0.72563 0.16219 0.07464 0.0
H154 H 0.75192 0.0251 0.17148 0.0
H155 H 0.80768 0.03168 0.05454 0.0
H156 H 0.89455 0.03178 0.1601 0.0
O157 O 0.82467 0.1354 0.05631 0.0
O158 O 0.87329 0.12811 0.11112 0.0
O159 O 0.80134 0.08355 0.20026 0.0
C160 C 0.86742 0.14026 0.06454 0.0
H161 H 0.78911 0.26329 0.20004 0.0
H162 H 0.88016 0.95259 0.05284 0.0
H163 H 0.67507 0.00258 0.15907 0.0
H164 H 0.64914 0.14222 0.06065 0.0
Co165 Co 0.16279 0.79764 0.09844 0.0
C166 C 0.13839 0.76102 0.20855 0.0
C167 C 0.20128 0.79849 0.18732 0.0
C168 C 0.18954 0.78883 0.23845 0.0
N169 N 0.17004 0.78016 0.16816 0.0
N170 N 0.14975 0.76488 0.25267 0.0
H171 H 0.10438 0.75044 0.20529 0.0
H172 H 0.22706 0.8226 0.16595 0.0
C173 C 0.27537 0.77614 0.08786 0.0
O174 O 0.27368 0.73288 0.11706 0.0
N175 N 0.15678 0.81676 0.02919 0.0
C176 C 0.13162 0.79824 0.00305 0.0
C177 C 0.13808 0.82353 0.95437 0.0
C178 C 0.1776 0.85288 0.99687 0.0
N179 N 0.1667 0.85794 0.95112 0.0
C180 C 0.14442 0.69824 0.11355 0.0
C181 C 0.21348 0.67344 0.03009 0.0
C182 C 0.17755 0.64361 0.05303 0.0
C183 C 0.14406 0.65496 0.09638 0.0
C184 C 0.21209 0.71658 0.04806 0.0
N185 N 0.17736 0.72914 0.08874 0.0
H186 H 0.11495 0.70913 0.14351 0.0
H187 H 0.23471 0.74282 0.02533 0.0
H188 H 0.10888 0.76971 0.01876 0.0
H189 H 0.1978 0.8771 0.00739 0.0
O190 O 0.09017 0.80619 0.11669 0.0
O191 O 0.13503 0.86463 0.10917 0.0
O192 O 0.23552 0.80483 0.07777 0.0
C193 C 0.09092 0.85254 0.11668 0.0
H194 H 0.20543 0.80454 0.26245 0.0
H195 H 0.11976 0.82 0.92505 0.0
H196 H 0.23904 0.66603 0.99582 0.0
H197 H 0.11539 0.63264 0.11442 0.0
C198 C 0.94651 0.26911 0.17912 0.0
C199 C 0.98816 0.29393 0.15868 0.0
C200 C 0.03569 0.23658 0.21757 0.0
C201 C 0.99284 0.21495 0.24105 0.0
N202 N 0.90435 0.21718 0.25065 0.0
N203 N 0.06705 0.30982 0.17102 0.0
C204 C 0.94723 0.23316 0.22368 0.0
C205 C 0.03088 0.28075 0.18203 0.0
N206 N 0.90634 0.27954 0.15591 0.0
N207 N 0.08182 0.21322 0.22651 0.0
H208 H 0.06471 0.34407 0.14786 0.0
H209 H 0.09653 0.30286 0.1904 0.0
H210 H 0.08749 0.17886 0.24945 0.0
H211 H 0.11491 0.2249 0.20625 0.0
H212 H 0.87869 0.25749 0.1646 0.0
H213 H 0.90236 0.30851 0.12605 0.0
H214 H 0.86906 0.2322 0.24231 0.0
H215 H 0.9036 0.19211 0.28424 0.0
C216 C 0.78051 0.0994 0.31618 0.0
C217 C 0.77223 0.06694 0.28721 0.0
C218 C 0.82394 -0.00243 0.3305 0.0
C219 C 0.84019 0.032 0.35162 0.0
N220 N 0.82102 0.10909 0.38192 0.0
N221 N 0.76814 0.98442 0.27995 0.0
C222 C 0.81384 0.08096 0.35032 0.0
C223 C 0.7878 0.01544 0.29927 0.0
N224 N 0.75849 0.14792 0.30901 0.0
N225 N 0.84492 0.94874 0.33816 0.0
H226 H 0.74014 -0.00203 0.25866 0.0
H227 H 0.77579 0.946 0.28837 0.0
H228 H 0.86833 0.93416 0.36404 0.0
H229 H 0.83948 0.92266 0.31903 0.0
H230 H 0.76703 0.17517 0.32452 0.0
H231 H 0.7314 0.16097 0.28665 0.0
H232 H 0.80207 0.1448 0.38463 0.0
H233 H 0.84289 0.09421 0.40918 0.0
C234 C 0.02851 0.78512 0.33522 0.0
C235 C 0.04224 0.82212 0.35491 0.0
C236 C 0.12859 0.7807 0.34062 0.0
C237 C 0.11679 0.76225 0.30162 0.0
N238 N 0.05816 0.71634 0.28883 0.0
N239 N 0.0968 0.82929 0.40796 0.0
C240 C 0.06711 0.75417 0.30761 0.0
C241 C 0.09001 0.81182 0.36815 0.0
N242 N 0.97958 0.77964 0.34436 0.0
N243 N 0.17547 0.76704 0.3513 0.0
H244 H 0.06632 0.84621 0.43163 0.0
H245 H 0.13099 0.82442 0.41921 0.0
H246 H 0.20164 0.74075 0.33331 0.0
H247 H 0.18758 0.77981 0.37839 0.0
H248 H 0.9662 0.75449 0.33008 0.0
H249 H 0.9527 0.79993 0.36851 0.0
H250 H 0.0227 0.70874 0.29054 0.0
H251 H 0.08776 0.69094 0.2736 0.0
C252 C 0.20449 0.03374 0.2184 0.0
C253 C 0.21479 0.01238 0.17477 0.0
C254 C 0.13266 0.98525 0.20025 0.0
C255 C 0.11889 0.01659 0.23712 0.0
N256 N 0.14152 0.07752 0.27484 0.0
N257 N 0.20199 0.94016 0.1489 0.0
C258 C 0.15488 0.04244 0.24464 0.0
C259 C 0.18244 0.98051 0.17143 0.0
N260 N 0.2429 0.04101 0.2377 0.0
N261 N 0.09895 0.95932 0.19325 0.0
H262 H 0.24057 0.92896 0.13961 0.0
H263 H 0.18157 0.91318 0.14829 0.0
H264 H 0.06377 0.95838 0.216 0.0
H265 H 0.10504 0.94103 0.16289 0.0
H266 H 0.23754 0.05275 0.27206 0.0
H267 H 0.28016 0.02855 0.22255 0.0
H268 H 0.16605 0.09999 0.27764 0.0
H269 H 0.10478 0.08833 0.29197 0.0
C270 C 0.2162 0.90652 0.88006 0.0
C271 C 0.1706 0.90174 0.91427 0.0
C272 C 0.14355 0.9905 0.89808 0.0
C273 C 0.18659 0.99552 0.86031 0.0
N274 N 0.2628 0.95857 0.81168 0.0
N275 N 0.08614 0.9373 0.94701 0.0
C276 C 0.22263 0.95345 0.84982 0.0
C277 C 0.13258 0.94309 0.91988 0.0
N278 N 0.25354 0.86649 0.87802 0.0
N279 N 0.11499 0.03096 0.91608 0.0
H280 H 0.07695 0.90325 0.96593 0.0
H281 H 0.05556 0.96593 0.94695 0.0
H282 H 0.12278 0.06654 0.9023 0.0
H283 H 0.08654 0.02852 0.94756 0.0
H284 H 0.28963 0.86822 0.85771 0.0
H285 H 0.24863 0.83171 0.899 0.0
H286 H 0.28842 0.92878 0.79956 0.0
H287 H 0.26885 0.99289 0.79029 0.0
C288 C 0.38211 0.13192 0.78312 0.0
C289 C 0.39245 0.07989 0.78748 0.0
C290 C 0.35995 0.08601 0.71152 0.0
C291 C 0.33411 0.13381 0.71889 0.0
N292 N 0.32864 0.20708 0.75272 0.0
N293 N 0.42311 0.01669 0.73672 0.0
C294 C 0.34945 0.15894 0.75059 0.0
C295 C 0.39228 0.05993 0.7448 0.0
N296 N 0.40557 0.1549 0.80756 0.0
N297 N 0.34941 0.06399 0.6766 0.0
H298 H 0.448 -0.00087 0.76067 0.0
H299 H 0.4272 0.00132 0.70466 0.0
H300 H 0.3268 0.08315 0.65111 0.0
H301 H 0.36224 0.02689 0.67368 0.0
H302 H 0.40154 0.19322 0.80367 0.0
H303 H 0.43365 0.13492 0.82683 0.0
H304 H 0.3336 0.22617 0.77921 0.0
H305 H 0.30495 0.22688 0.72834 0.0
C306 C 0.09746 0.24182 0.88584 0.0
C307 C 0.12077 0.24982 0.83496 0.0
C308 C 0.08397 0.3383 0.83083 0.0
C309 C 0.05573 0.32688 0.88021 0.0
N310 N 0.01704 0.26168 0.93702 0.0
N311 N 0.13765 0.3067 0.75789 0.0
C312 C 0.05641 0.27662 0.90209 0.0
C313 C 0.1146 0.29866 0.80703 0.0
N314 N 0.11229 0.20064 0.9184 0.0
N315 N 0.08014 0.38594 0.806 0.0
H316 H 0.16353 0.2792 0.74152 0.0
H317 H 0.1308 0.33982 0.73339 0.0
H318 H 0.05077 0.41354 0.81686 0.0
H319 H 0.10485 0.39762 0.77358 0.0
H320 H 0.09567 0.19567 0.95627 0.0
H321 H 0.14494 0.17575 0.9097 0.0
H322 H 0.01624 0.22459 0.95255 0.0
H323 H 0.98338 0.28566 0.94538 0.0
C324 C 0.9596 0.13577 0.02437 0.0
C325 C 0.90841 0.15244 0.0211 0.0
C326 C 0.92931 0.15893 0.92966 0.0
C327 C 0.97889 0.13687 0.93337 0.0
N328 N 0.04522 0.11792 0.98033 0.0
N329 N 0.8514 0.20271 0.96946 0.0
C330 C 0.99529 0.12923 0.97971 0.0
C331 C 0.89538 0.17125 0.97322 0.0
N332 N 0.97422 0.12667 0.06966 0.0
N333 N 0.9145 0.16708 0.88454 0.0
H334 H 0.82808 0.21568 0.00052 0.0
H335 H 0.8414 0.22076 0.93546 0.0
H336 H 0.93934 0.16015 0.85158 0.0
H337 H 0.8773 0.17781 0.8804 0.0
H338 H 0.00829 0.10573 0.07646 0.0
H339 H 0.95301 0.14234 0.10015 0.0
H340 H 0.06087 0.11444 0.01184 0.0
H341 H 0.07167 0.11692 0.94754 0.0
C342 C 0.19134 0.12909 0.01291 0.0
C343 C 0.23176 0.13307 0.97146 0.0
C344 C 0.20649 0.22336 0.95726 0.0
C345 C 0.1738 0.21928 0.00443 0.0
N346 N 0.13541 0.16947 0.07852 0.0
N347 N 0.27386 0.18283 0.89954 0.0
C348 C 0.16599 0.1724 0.03244 0.0
C349 C 0.23775 0.18005 0.94191 0.0
N350 N 0.17639 0.08448 0.03296 0.0
N351 N 0.20643 0.26852 0.92697 0.0
H352 H 0.29376 0.15126 0.88537 0.0
H353 H 0.28452 0.21578 0.87902 0.0
H354 H 0.18377 0.30059 0.93773 0.0
H355 H 0.22581 0.27378 0.89013 0.0
H356 H 0.1451 0.08022 0.06115 0.0
H357 H 0.19073 0.05281 0.01706 0.0
H358 H 0.13237 0.1364 0.10347 0.0
H359 H 0.11616 0.2008 0.09347 0.0
C360 C 0.36453 0.84241 0.99092 0.0
C361 C 0.37719 0.87093 0.02129 0.0
C362 C 0.34377 0.81713 0.09692 0.0
C363 C 0.32314 0.79443 0.06714 0.0
N364 N 0.33144 0.76933 0.98799 0.0
N365 N 0.39572 0.87444 0.10093 0.0
C366 C 0.33939 0.80186 0.01453 0.0
C367 C 0.37273 0.85428 0.07348 0.0
N368 N 0.37515 0.85518 0.93999 0.0
N369 N 0.33566 0.80476 0.14774 0.0
H370 H 0.42175 0.89769 0.08368 0.0
H371 H 0.39189 0.86443 0.13981 0.0
H372 H 0.31584 0.77671 0.16772 0.0
H373 H 0.31584 0.77671 0.16772 0.0
H374 H 0.36177 0.83989 0.91553 0.0
H375 H 0.39768 0.88172 0.92236 0.0
H376 H 0.34359 0.77101 0.94951 0.0
H377 H 0.31745 0.73712 0.00621 0.0
C378 C 0.75142 0.35089 0.11997 0.0
C379 C 0.78304 0.3081 0.10266 0.0
C380 C 0.84062 0.36126 0.0507 0.0
C381 C 0.81177 0.39982 0.06942 0.0
N382 N 0.74372 0.43903 0.12401 0.0
N383 N 0.86249 0.27274 0.05515 0.0
C384 C 0.76786 0.39775 0.10487 0.0
C385 C 0.82894 0.31313 0.06758 0.0
N386 N 0.70647 0.34594 0.15079 0.0
N387 N 0.88503 0.37598 0.02289 0.0
H388 H 0.85868 0.23703 0.07327 0.0
H389 H 0.8953 0.27463 0.0286 0.0
H390 H 0.89973 0.45422 0.0174 0.0
H391 H 0.9099 0.34598 0.00865 0.0
H392 H 0.68092 0.37554 0.1634 0.0
H393 H 0.69375 0.31203 0.16131 0.0
H394 H 0.71231 0.43959 0.15258 0.0
H395 H 0.75712 0.47256 0.1114 0.0
C396 C 0.0012 0.87858 0.15827 0.0
C397 C 0.0435 0.88989 0.12081 0.0
C398 C 0.99075 0.96357 0.08237 0.0
C399 C 0.94827 0.94972 0.11706 0.0
N400 N 0.91207 0.90025 0.19219 0.0
N401 N 0.08041 0.95092 0.05476 0.0
C402 C 0.95334 0.90902 0.15644 0.0
C403 C 0.03898 0.93485 0.08534 0.0
N404 N 0.00739 0.83936 0.19622 0.0
N405 N 0.98436 0.00353 0.04515 0.0
H406 H 0.11595 0.93002 0.05008 0.0
H407 H 0.08035 0.98696 0.03543 0.0
H408 H 0.95009 0.02675 0.04344 0.0
H409 H 0.01205 0.01273 0.01454 0.0
H410 H 0.97849 0.82567 0.2227 0.0
H411 H 0.04259 0.82085 0.20221 0.0
H412 H 0.91209 0.87283 0.22379 0.0
H413 H 0.87694 0.92201 0.19087 0.0
C414 C 0.0193 0.04591 0.62734 0.0
C415 C 0.04823 0.08448 0.61524 0.0
C416 C 0.03121 0.10406 0.52996 0.0
C417 C 0.00755 0.06169 0.54007 0.0
N418 N 0.98016 0.99089 0.5971 0.0
N419 N 0.08703 0.14683 0.55427 0.0
C420 C 0.00166 0.03232 0.58857 0.0
C421 C 0.05537 0.11284 0.56641 0.0
N422 N 0.00801 0.02302 0.67603 0.0
N423 N 0.03033 0.13619 0.48565 0.0
H424 H 0.1051 0.1548 0.58005 0.0
H425 H 0.09872 0.1643 0.51778 0.0
H426 H 0.01346 0.13116 0.45766 0.0
H427 H 0.04205 0.17039 0.4784 0.0
H428 H 0.98296 -0.00188 0.68835 0.0
H429 H 0.02105 0.03159 0.70513 0.0
H430 H 0.98008 0.9645 0.6296 0.0
H431 H 0.96418 0.98166 0.57036 0.0
C432 C 0.62067 0.02489 0.0606 0.0
C433 C 0.61278 0.05698 0.09607 0.0
C434 C 0.5231 0.07532 0.09465 0.0
C435 C 0.53074 0.04188 0.0606 0.0
N436 N 0.58398 0.9778 0.01834 0.0
N437 N 0.55649 0.10494 0.15447 0.0
C438 C 0.57872 0.01437 0.04587 0.0
C439 C 0.56388 0.07981 0.11546 0.0
N440 N 0.6683 0.00634 0.03927 0.0
N441 N 0.47721 0.10381 0.1059 0.0
H442 H 0.5857 0.10872 0.17061 0.0
H443 H 0.5213 0.11831 0.17372 0.0
H444 H 0.44604 0.10073 0.09239 0.0
H445 H 0.47067 0.13291 0.12576 0.0
H446 H 0.6766 0.98749 0.00906 0.0
H447 H 0.70008 0.01268 0.04938 0.0
H448 H 0.61689 0.95272 0.01114 0.0
H449 H 0.55417 0.96994 0.00592 0.0
C450 C 0.14163 0.61832 0.98894 0.0
C451 C 0.16978 0.60488 0.02806 0.0
C452 C 0.16464 0.51782 0.03463 0.0
C453 C 0.13431 0.53163 0.99739 0.0
N454 N 0.10611 0.59073 0.92922 0.0
N455 N 0.22017 0.54245 0.07774 0.0
C456 C 0.12714 0.5806 0.97104 0.0
C457 C 0.18549 0.55464 0.04731 0.0
N458 N 0.12635 0.66709 0.97099 0.0
N459 N 0.17098 0.47024 0.05985 0.0
H460 H 0.23577 0.56907 0.08759 0.0
H461 H 0.23676 0.50627 0.08943 0.0
H462 H 0.15757 0.44188 0.05063 0.0
H463 H 0.1874 0.4592 0.09149 0.0
H464 H 0.10064 0.67928 0.94712 0.0
H465 H 0.13731 0.69588 0.982 0.0
H466 H 0.10375 0.62487 0.90551 0.0
H467 H 0.09524 0.56331 0.91566 0.0
loop_
_geom_bond_atom_site_label_1
_geom_bond_atom_site_label_2
_geom_bond_distance
_geom_bond_site_symmetry_2
_ccdc_geom_bond_type
Co0 N4 2.148 1_545 S
Co0 N10 2.128 . S
Co0 N20 2.194 . S
Co0 O25 2.351 1_545 S
Co0 O26 2.155 . S
Co0 O27 2.096 1_455 S
C1 N4 1.301 . S
C1 N5 1.328 . S
C1 H6 0.930 . S
C2 C3 1.333 . S
C2 N4 1.317 1_655 S
C2 H7 0.930 . S
C3 C2 1.333 . S
C3 N5 1.350 1_655 S
C3 H29 0.931 . S
N4 Co0 2.148 1_565 S
N4 C1 1.301 . S
N4 C2 1.317 1_455 S
N5 C1 1.328 . S
N5 C3 1.350 1_455 S
H6 C1 0.930 . S
H7 C2 0.930 . S
C8 O9 1.224 . S
C8 O27 1.247 . S
O9 C8 1.224 . S
N10 Co0 2.128 . S
N10 C11 1.355 . S
N10 C13 1.311 1_455 S
C11 N10 1.355 . S
C11 C12 1.363 . S
C11 H23 0.929 . S
C12 C11 1.363 . S
C12 N14 1.375 1_455 S
C12 H30 0.931 . S
C13 N10 1.311 1_655 S
C13 N14 1.347 . S
C13 H24 0.929 . S
N14 C12 1.375 1_655 S
N14 C13 1.347 . S
C15 C18 1.368 . S
C15 N20 1.328 . S
C15 H21 0.927 1_545 S
C16 C17 1.362 1_655 S
C16 C19 1.378 . S
C16 H31 0.929 . S
C17 C16 1.362 1_455 S
C17 C18 1.366 . S
C18 C15 1.368 . S
C18 C17 1.366 . S
C18 H32 0.930 1_545 S
C19 C16 1.378 . S
C19 N20 1.315 1_655 S
C19 H22 0.930 . S
N20 Co0 2.194 . S
N20 C15 1.328 . S
N20 C19 1.315 1_455 S
H21 C15 0.927 1_565 S
H22 C19 0.930 . S
H23 C11 0.929 . S
H24 C13 0.929 . S
O25 Co0 2.351 1_565 S
O25 C28 1.244 . S
O26 Co0 2.155 . S
O26 C28 1.240 1_545 S
O27 Co0 2.096 1_655 S
O27 C8 1.247 . S
C28 O25 1.244 . S
C28 O26 1.240 1_565 S
H29 C3 0.931 . S
H30 C12 0.931 . S
H31 C16 0.929 . S
H32 C18 0.930 1_565 S
Co33 N37 2.148 . S
Co33 N43 2.128 . S
Co33 N53 2.194 . S
Co33 O58 2.351 . S
Co33 O59 2.155 . S
Co33 O60 2.096 . S
C34 N37 1.301 . S
C34 N38 1.328 1_455 S
C34 H39 0.930 . S
C35 C36 1.333 1_455 S
C35 N37 1.317 . S
C35 H40 0.930 . S
C36 C35 1.333 1_655 S
C36 N38 1.350 . S
C36 H62 0.931 . S
N37 Co33 2.148 . S
N37 C34 1.301 . S
N37 C35 1.317 . S
N38 C34 1.328 1_655 S
N38 C36 1.350 . S
H39 C34 0.930 . S
H40 C35 0.930 . S
C41 O42 1.224 . S
C41 O60 1.247 . S
O42 C41 1.224 . S
N43 Co33 2.128 . S
N43 C44 1.355 . S
N43 C46 1.311 . S
C44 N43 1.355 . S
C44 C45 1.363 . S
C44 H56 0.929 . S
C45 C44 1.363 . S
C45 N47 1.375 . S
C45 H63 0.931 . S
C46 N43 1.311 . S
C46 N47 1.347 . S
C46 H57 0.929 . S
N47 C45 1.375 . S
N47 C46 1.347 . S
C48 C51 1.365 . S
C48 N53 1.328 . S
C48 H54 0.929 . S
C49 C50 1.362 . S
C49 C52 1.378 . S
C49 H64 0.929 . S
C50 C49 1.362 . S
C50 C51 1.366 . S
C51 C48 1.365 . S
C51 C50 1.366 . S
C51 H65 0.930 . S
C52 C49 1.378 . S
C52 N53 1.315 . S
C52 H55 0.930 . S
N53 Co33 2.194 . S
N53 C48 1.328 . S
N53 C52 1.315 . S
H54 C48 0.929 . S
H55 C52 0.930 . S
H56 C44 0.929 . S
H57 C46 0.929 . S
O58 Co33 2.351 . S
O58 C61 1.244 . S
O59 Co33 2.155 . S
O59 C61 1.240 . S
O60 Co33 2.096 . S
O60 C41 1.247 . S
C61 O58 1.244 . S
C61 O59 1.240 . S
H62 C36 0.931 . S
H63 C45 0.931 . S
H64 C49 0.929 . S
H65 C51 0.930 . S
Co66 N70 2.148 1_554 S
Co66 N76 2.128 . S
Co66 N86 2.194 . S
Co66 O91 2.351 1_554 S
Co66 O92 2.151 1_554 S
Co66 O93 2.096 1_545 S
C67 N70 1.301 . S
C67 N71 1.328 . S
C67 H72 0.930 . S
C68 C69 1.333 1_565 S
C68 N70 1.317 1_565 S
C68 H73 0.930 . S
C69 C68 1.333 1_545 S
C69 N71 1.350 . S
C69 H95 0.931 1_545 S
N70 Co66 2.148 1_556 S
N70 C67 1.301 . S
N70 C68 1.317 1_545 S
N71 C67 1.328 . S
N71 C69 1.350 . S
H72 C67 0.930 . S
H73 C68 0.930 . S
C74 O75 1.224 . S
C74 O93 1.247 . S
O75 C74 1.224 . S
N76 Co66 2.128 . S
N76 C77 1.355 . S
N76 C79 1.311 1_545 S
C77 N76 1.355 . S
C77 C78 1.363 . S
C77 H89 0.929 . S
C78 C77 1.363 . S
C78 N80 1.384 . S
C78 H96 0.931 . S
C79 N76 1.311 1_565 S
C79 N80 1.344 1_565 S
C79 H90 0.929 . S
N80 C78 1.384 . S
N80 C79 1.344 1_545 S
C81 C84 1.365 . S
C81 N86 1.328 1_556 S
C81 H87 0.929 . S
C82 C83 1.362 1_565 S
C82 C85 1.378 . S
C82 H97 0.929 . S
C83 C82 1.362 1_545 S
C83 C84 1.366 1_554 S
C84 C81 1.365 . S
C84 C83 1.366 1_556 S
C84 H98 0.930 . S
C85 C82 1.378 . S
C85 N86 1.315 1_565 S
C85 H88 0.930 . S
N86 Co66 2.194 . S
N86 C81 1.328 1_554 S
N86 C85 1.315 1_545 S
H87 C81 0.929 . S
H88 C85 0.930 . S
H89 C77 0.929 . S
H90 C79 0.929 . S
O91 Co66 2.351 1_556 S
O91 C94 1.244 . S
O92 Co66 2.151 1_556 S
O92 C94 1.238 . S
O93 Co66 2.096 1_565 S
O93 C74 1.247 . S
C94 O91 1.244 . S
C94 O92 1.238 . S
H95 C69 0.931 1_565 S
H96 C78 0.931 . S
H97 C82 0.929 . S
H98 C84 0.930 . S
Co99 N103 2.148 1_455 S
Co99 N109 2.128 . S
Co99 N119 2.194 . S
Co99 O124 2.351 . S
Co99 O125 2.155 . S
Co99 O126 2.096 1_554 S
C100 N103 1.301 . S
C100 N104 1.328 . S
C100 H105 0.930 . S
C101 C102 1.333 . S
C101 N103 1.317 1_556 S
C101 H106 0.930 . S
C102 C101 1.333 . S
C102 N104 1.350 1_556 S
C102 H128 0.931 . S
N103 Co99 2.148 1_655 S
N103 C100 1.301 . S
N103 C101 1.317 1_554 S
N104 C100 1.328 . S
N104 C102 1.350 1_554 S
H105 C100 0.930 . S
H106 C101 0.930 . S
C107 O108 1.224 . S
C107 O126 1.247 . S
O108 C107 1.224 . S
N109 Co99 2.128 . S
N109 C110 1.355 . S
N109 C112 1.311 1_554 S
C110 N109 1.355 . S
C110 C111 1.363 . S
C110 H122 0.929 . S
C111 C110 1.363 . S
C111 N113 1.375 1_554 S
C111 H129 0.931 . S
C112 N109 1.311 1_556 S
C112 N113 1.347 . S
C112 H123 0.929 . S
N113 C111 1.375 1_556 S
N113 C112 1.347 . S
C114 C117 1.365 . S
C114 N119 1.328 . S
C114 H120 0.929 1_455 S
C115 C116 1.362 1_556 S
C115 C118 1.378 . S
C115 H130 0.929 . S
C116 C115 1.362 1_554 S
C116 C117 1.366 . S
C117 C114 1.365 . S
C117 C116 1.366 . S
C117 H131 0.930 . S
C118 C115 1.378 . S
C118 N119 1.315 1_556 S
C118 H121 0.930 . S
N119 Co99 2.194 . S
N119 C114 1.328 . S
N119 C118 1.315 1_554 S
H120 C114 0.929 1_655 S
H121 C118 0.930 . S
H122 C110 0.929 . S
H123 C112 0.929 . S
O124 Co99 2.351 . S
O124 C127 1.244 . S
O125 Co99 2.155 . S
O125 C127 1.240 . S
O126 Co99 2.096 1_556 S
O126 C107 1.247 . S
C127 O124 1.244 . S
C127 O125 1.240 . S
H128 C102 0.931 . S
H129 C111 0.931 . S
H130 C115 0.929 . S
H131 C117 0.930 . S
Co132 N136 2.148 . S
Co132 N142 2.128 . S
Co132 N152 2.194 . S
Co132 O157 2.351 . S
Co132 O158 2.155 . S
Co132 O159 2.096 . S
C133 N136 1.301 . S
C133 N137 1.328 . S
C133 H138 0.930 . S
C134 C135 1.333 . S
C134 N136 1.317 . S
C134 H139 0.930 . S
C135 C134 1.333 . S
C135 N137 1.350 . S
C135 H161 0.931 . S
N136 Co132 2.148 . S
N136 C133 1.301 . S
N136 C134 1.317 . S
N137 C133 1.328 . S
N137 C135 1.350 . S
H138 C133 0.930 . S
H139 C134 0.930 . S
C140 O141 1.224 . S
C140 O159 1.247 . S
O141 C140 1.224 . S
N142 Co132 2.128 . S
N142 C143 1.355 . S
N142 C145 1.311 . S
C143 N142 1.355 . S
C143 C144 1.363 1_545 S
C143 H155 0.929 . S
C144 C143 1.363 1_565 S
C144 N146 1.375 . S
C144 H162 0.931 . S
C145 N142 1.311 . S
C145 N146 1.347 1_545 S
C145 H156 0.929 . S
N146 C144 1.375 . S
N146 C145 1.347 1_565 S
C147 C150 1.365 . S
C147 N152 1.328 . S
C147 H153 0.929 . S
C148 C149 1.362 . S
C148 C151 1.378 . S
C148 H163 0.929 . S
C149 C148 1.362 . S
C149 C150 1.366 . S
C150 C147 1.365 . S
C150 C149 1.366 . S
C150 H164 0.930 . S
C151 C148 1.378 . S
C151 N152 1.315 . S
C151 H154 0.930 . S
N152 Co132 2.194 . S
N152 C147 1.328 . S
N152 C151 1.315 . S
H153 C147 0.929 . S
H154 C151 0.930 . S
H155 C143 0.929 . S
H156 C145 0.929 . S
O157 Co132 2.351 . S
O157 C160 1.244 . S
O158 Co132 2.155 . S
O158 C160 1.240 . S
O159 Co132 2.096 . S
O159 C140 1.247 . S
C160 O157 1.244 . S
C160 O158 1.240 . S
H161 C135 0.931 . S
H162 C144 0.931 . S
H163 C148 0.929 . S
H164 C150 0.930 . S
Co165 N169 2.148 . S
Co165 N175 2.128 . S
Co165 N185 2.194 . S
Co165 O190 2.351 . S
Co165 O191 2.155 . S
Co165 O192 2.096 . S
C166 N169 1.301 . S
C166 N170 1.328 . S
C166 H171 0.930 . S
C167 C168 1.333 . S
C167 N169 1.317 . S
C167 H172 0.930 . S
C168 C167 1.333 . S
C168 N170 1.350 . S
C168 H194 0.931 . S
N169 Co165 2.148 . S
N169 C166 1.301 . S
N169 C167 1.317 . S
N170 C166 1.328 . S
N170 C168 1.350 . S
H171 C166 0.930 . S
H172 C167 0.930 . S
C173 O174 1.224 . S
C173 O192 1.247 . S
O174 C173 1.224 . S
N175 Co165 2.128 . S
N175 C176 1.355 . S
N175 C178 1.311 . S
C176 N175 1.355 . S
C176 C177 1.363 1_554 S
C176 H188 0.929 . S
C177 C176 1.363 1_556 S
C177 N179 1.375 . S
C177 H195 0.931 . S
C178 N175 1.311 . S
C178 N179 1.347 1_554 S
C178 H189 0.929 . S
N179 C177 1.375 . S
N179 C178 1.347 1_556 S
C180 C183 1.365 . S
C180 N185 1.328 . S
C180 H186 0.929 . S
C181 C182 1.362 . S
C181 C184 1.378 . S
C181 H196 0.929 . S
C182 C181 1.362 . S
C182 C183 1.366 . S
C183 C180 1.365 . S
C183 C182 1.366 . S
C183 H197 0.930 . S
C184 C181 1.378 . S
C184 N185 1.315 . S
C184 H187 0.930 . S
N185 Co165 2.194 . S
N185 C180 1.328 . S
N185 C184 1.315 . S
H186 C180 0.929 . S
H187 C184 0.930 . S
H188 C176 0.929 . S
H189 C178 0.929 . S
O190 Co165 2.351 . S
O190 C193 1.244 . S
O191 Co165 2.155 . S
O191 C193 1.240 . S
O192 Co165 2.096 . S
O192 C173 1.247 . S
C193 O190 1.244 . S
C193 O191 1.240 . S
H194 C168 0.931 . S
H195 C177 0.931 . S
H196 C181 0.929 . S
H197 C183 0.930 . S
C198 C199 1.363 . S
C198 C204 1.379 . S
C198 N206 1.356 . S
C199 C198 1.363 . S
C199 C205 1.363 1_655 S
C200 C201 1.363 1_455 S
C200 C205 1.379 . S
C200 N207 1.356 . S
C201 C200 1.363 1_655 S
C201 C204 1.363 . S
N202 C204 1.356 . S
N202 H214 0.984 . S
N202 H215 0.985 . S
N203 C205 1.356 . S
N203 H208 0.984 . S
N203 H209 0.985 . S
C204 C198 1.379 . S
C204 C201 1.363 . S
C204 N202 1.356 . S
C205 C199 1.363 1_455 S
C205 C200 1.379 . S
C205 N203 1.356 . S
N206 C198 1.356 . S
N206 H212 0.984 . S
N206 H213 0.984 . S
N207 C200 1.356 . S
N207 H210 0.984 . S
N207 H211 0.985 . S
H208 N203 0.984 . S
H209 N203 0.985 . S
H210 N207 0.984 . S
H211 N207 0.985 . S
H212 N206 0.984 . S
H213 N206 0.984 . S
H214 N202 0.984 . S
H215 N202 0.985 . S
C216 C217 1.363 . S
C216 C222 1.379 . S
C216 N224 1.356 . S
C217 C216 1.363 . S
C217 C223 1.363 . S
C218 C219 1.363 . S
C218 C223 1.379 . S
C218 N225 1.356 1_545 S
C219 C218 1.363 . S
C219 C222 1.363 . S
N220 C222 1.356 . S
N220 H232 0.984 . S
N220 H233 0.985 . S
N221 C223 1.356 . S
N221 H226 0.984 . S
N221 H227 0.985 . S
C222 C216 1.379 . S
C222 C219 1.363 . S
C222 N220 1.356 . S
C223 C217 1.363 . S
C223 C218 1.379 . S
C223 N221 1.356 . S
N224 C216 1.356 . S
N224 H230 0.984 . S
N224 H231 0.984 . S
N225 C218 1.356 1_565 S
N225 H228 0.984 . S
N225 H229 0.985 . S
H226 N221 0.984 . S
H227 N221 0.985 . S
H228 N225 0.984 . S
H229 N225 0.985 . S
H230 N224 0.984 . S
H231 N224 0.984 . S
H232 N220 0.984 . S
H233 N220 0.985 . S
C234 C235 1.363 . S
C234 C240 1.379 . S
C234 N242 1.356 1_455 S
C235 C234 1.363 . S
C235 C241 1.363 . S
C236 C237 1.363 . S
C236 C241 1.379 . S
C236 N243 1.356 . S
C237 C236 1.363 . S
C237 C240 1.363 . S
N238 C240 1.356 . S
N238 H250 0.984 1_455 S
N238 H251 0.985 . S
N239 C241 1.356 . S
N239 H244 0.984 . S
N239 H245 0.985 . S
C240 C234 1.379 . S
C240 C237 1.363 . S
C240 N238 1.356 . S
C241 C235 1.363 . S
C241 C236 1.379 . S
C241 N239 1.356 . S
N242 C234 1.356 1_655 S
N242 H248 0.984 . S
N242 H249 0.984 . S
N243 C236 1.356 . S
N243 H246 0.984 . S
N243 H247 0.985 . S
H244 N239 0.984 . S
H245 N239 0.985 . S
H246 N243 0.984 . S
H247 N243 0.985 . S
H248 N242 0.984 . S
H249 N242 0.984 . S
H250 N238 0.984 1_655 S
H251 N238 0.985 . S
C252 C253 1.363 1_545 S
C252 C258 1.379 . S
C252 N260 1.356 . S
C253 C252 1.363 1_565 S
C253 C259 1.363 . S
C254 C255 1.363 . S
C254 C259 1.379 . S
C254 N261 1.356 . S
C255 C254 1.363 . S
C255 C258 1.363 1_565 S
N256 C258 1.356 . S
N256 H268 0.984 . S
N256 H269 0.985 . S
N257 C259 1.356 . S
N257 H262 0.984 . S
N257 H263 0.985 . S
C258 C252 1.379 . S
C258 C255 1.363 1_545 S
C258 N256 1.356 . S
C259 C253 1.363 . S
C259 C254 1.379 . S
C259 N257 1.356 . S
N260 C252 1.356 . S
N260 H266 0.984 . S
N260 H267 0.984 . S
N261 C254 1.356 . S
N261 H264 0.984 . S
N261 H265 0.985 . S
H262 N257 0.984 . S
H263 N257 0.985 . S
H264 N261 0.984 . S
H265 N261 0.985 . S
H266 N260 0.984 . S
H267 N260 0.984 . S
H268 N256 0.984 . S
H269 N256 0.985 . S
C270 C271 1.363 . S
C270 C276 1.379 . S
C270 N278 1.356 . S
C271 C270 1.363 . S
C271 C277 1.363 . S
C272 C273 1.363 . S
C272 C277 1.379 . S
C272 N279 1.356 1_565 S
C273 C272 1.363 . S
C273 C276 1.363 . S
N274 C276 1.356 . S
N274 H286 0.984 . S
N274 H287 0.985 1_565 S
N275 C277 1.356 . S
N275 H280 0.984 . S
N275 H281 0.985 . S
C276 C270 1.379 . S
C276 C273 1.363 . S
C276 N274 1.356 . S
C277 C271 1.363 . S
C277 C272 1.379 . S
C277 N275 1.356 . S
N278 C270 1.356 . S
N278 H284 0.984 . S
N278 H285 0.984 . S
N279 C272 1.356 1_545 S
N279 H282 0.984 . S
N279 H283 0.985 . S
H280 N275 0.984 . S
H281 N275 0.985 . S
H282 N279 0.984 . S
H283 N279 0.985 . S
H284 N278 0.984 . S
H285 N278 0.984 . S
H286 N274 0.984 . S
H287 N274 0.985 1_545 S
C288 C289 1.363 . S
C288 C294 1.379 . S
C288 N296 1.356 . S
C289 C288 1.363 . S
C289 C295 1.363 . S
C290 C291 1.363 . S
C290 C295 1.379 . S
C290 N297 1.356 . S
C291 C290 1.363 . S
C291 C294 1.363 . S
N292 C294 1.356 . S
N292 H304 0.984 . S
N292 H305 0.985 . S
N293 C295 1.356 . S
N293 H298 0.984 . S
N293 H299 0.985 1_545 S
C294 C288 1.379 . S
C294 C291 1.363 . S
C294 N292 1.356 . S
C295 C289 1.363 . S
C295 C290 1.379 . S
C295 N293 1.356 . S
N296 C288 1.356 . S
N296 H302 0.984 . S
N296 H303 0.984 . S
N297 C290 1.356 . S
N297 H300 0.984 . S
N297 H301 0.985 . S
H298 N293 0.984 . S
H299 N293 0.985 1_565 S
H300 N297 0.984 . S
H301 N297 0.985 . S
H302 N296 0.984 . S
H303 N296 0.984 . S
H304 N292 0.984 . S
H305 N292 0.985 . S
C306 C307 1.363 . S
C306 C312 1.379 . S
C306 N314 1.356 . S
C307 C306 1.363 . S
C307 C313 1.363 . S
C308 C309 1.363 . S
C308 C313 1.379 . S
C308 N315 1.356 . S
C309 C308 1.363 . S
C309 C312 1.363 . S
N310 C312 1.356 . S
N310 H322 0.984 . S
N310 H323 0.985 . S
N311 C313 1.356 . S
N311 H316 0.984 . S
N311 H317 0.985 . S
C312 C306 1.379 . S
C312 C309 1.363 . S
C312 N310 1.356 . S
C313 C307 1.363 . S
C313 C308 1.379 . S
C313 N311 1.356 . S
N314 C306 1.356 . S
N314 H320 0.984 . S
N314 H321 0.984 . S
N315 C308 1.356 . S
N315 H318 0.984 . S
N315 H319 0.985 . S
H316 N311 0.984 . S
H317 N311 0.985 . S
H318 N315 0.984 . S
H319 N315 0.985 . S
H320 N314 0.984 . S
H321 N314 0.984 . S
H322 N310 0.984 . S
H323 N310 0.985 . S
C324 C325 1.363 . S
C324 C330 1.379 . S
C324 N332 1.356 . S
C325 C324 1.363 . S
C325 C331 1.363 . S
C326 C327 1.363 . S
C326 C331 1.379 . S
C326 N333 1.356 . S
C327 C326 1.363 . S
C327 C330 1.363 . S
N328 C330 1.356 1_455 S
N328 H340 0.984 . S
N328 H341 0.985 . S
N329 C331 1.356 . S
N329 H334 0.984 . S
N329 H335 0.985 . S
C330 C324 1.379 . S
C330 C327 1.363 . S
C330 N328 1.356 1_655 S
C331 C325 1.363 . S
C331 C326 1.379 . S
C331 N329 1.356 . S
N332 C324 1.356 . S
N332 H338 0.984 . S
N332 H339 0.984 1_556 S
N333 C326 1.356 . S
N333 H336 0.984 . S
N333 H337 0.985 . S
H334 N329 0.984 . S
H335 N329 0.985 . S
H336 N333 0.984 . S
H337 N333 0.985 . S
H338 N332 0.984 . S
H339 N332 0.984 1_554 S
H340 N328 0.984 . S
H341 N328 0.985 . S
C342 C343 1.363 1_554 S
C342 C348 1.379 . S
C342 N350 1.356 . S
C343 C342 1.363 1_556 S
C343 C349 1.363 . S
C344 C345 1.363 . S
C344 C349 1.379 . S
C344 N351 1.356 . S
C345 C344 1.363 . S
C345 C348 1.363 1_556 S
N346 C348 1.356 . S
N346 H358 0.984 . S
N346 H359 0.985 . S
N347 C349 1.356 . S
N347 H352 0.984 . S
N347 H353 0.985 . S
C348 C342 1.379 . S
C348 C345 1.363 1_554 S
C348 N346 1.356 . S
C349 C343 1.363 . S
C349 C344 1.379 . S
C349 N347 1.356 . S
N350 C342 1.356 . S
N350 H356 0.984 . S
N350 H357 0.984 . S
N351 C344 1.356 . S
N351 H354 0.984 . S
N351 H355 0.985 . S
H352 N347 0.984 . S
H353 N347 0.985 . S
H354 N351 0.984 . S
H355 N351 0.985 . S
H356 N350 0.984 . S
H357 N350 0.984 . S
H358 N346 0.984 . S
H359 N346 0.985 . S
C360 C361 1.363 . S
C360 C366 1.379 . S
C360 N368 1.356 1_554 S
C361 C360 1.363 . S
C361 C367 1.363 . S
C362 C363 1.363 . S
C362 C367 1.379 . S
C362 N369 1.356 . S
C363 C362 1.363 . S
C363 C366 1.363 . S
N364 C366 1.356 . S
N364 H376 0.984 . S
N364 H377 0.985 . S
N365 C367 1.356 . S
N365 H370 0.984 . S
N365 H371 0.985 . S
C366 C360 1.379 . S
C366 C363 1.363 . S
C366 N364 1.356 . S
C367 C361 1.363 . S
C367 C362 1.379 . S
C367 N365 1.356 . S
N368 C360 1.356 1_556 S
N368 H374 0.984 . S
N368 H375 0.984 . S
N369 C362 1.356 . S
N369 H372 0.984 . S
N369 H373 0.985 . S
H370 N365 0.984 . S
H371 N365 0.985 . S
H372 N369 0.984 . S
H373 N369 0.985 . S
H374 N368 0.984 . S
H375 N368 0.984 . S
H376 N364 0.984 . S
H377 N364 0.985 . S
C378 C379 1.363 . S
C378 C384 1.379 . S
C378 N386 1.356 . S
C379 C378 1.363 . S
C379 C385 1.363 . S
C380 C381 1.363 . S
C380 C385 1.379 . S
C380 N387 1.356 1_554 S
C381 C380 1.363 . S
C381 C384 1.363 . S
N382 C384 1.356 . S
N382 H394 0.984 . S
N382 H395 0.985 . S
N383 C385 1.356 . S
N383 H388 0.984 . S
N383 H389 0.985 1_554 S
C384 C378 1.379 . S
C384 C381 1.363 . S
C384 N382 1.356 . S
C385 C379 1.363 . S
C385 C380 1.379 . S
C385 N383 1.356 . S
N386 C378 1.356 . S
N386 H392 0.984 . S
N386 H393 0.984 . S
N387 C380 1.356 1_556 S
N387 H390 0.984 . S
N387 H391 0.985 . S
H388 N383 0.984 . S
H389 N383 0.985 1_556 S
H390 N387 0.984 . S
H391 N387 0.985 . S
H392 N386 0.984 . S
H393 N386 0.984 . S
H394 N382 0.984 . S
H395 N382 0.985 . S
C396 C397 1.363 . S
C396 C402 1.379 . S
C396 N404 1.356 . S
C397 C396 1.363 . S
C397 C403 1.363 . S
C398 C399 1.363 . S
C398 C403 1.379 . S
C398 N405 1.356 . S
C399 C398 1.363 . S
C399 C402 1.363 . S
N400 C402 1.356 . S
N400 H412 0.984 . S
N400 H413 0.985 . S
N401 C403 1.356 1_455 S
N401 H406 0.984 . S
N401 H407 0.985 . S
C402 C396 1.379 . S
C402 C399 1.363 . S
C402 N400 1.356 . S
C403 C397 1.363 . S
C403 C398 1.379 . S
C403 N401 1.356 1_655 S
N404 C396 1.356 . S
N404 H410 0.984 . S
N404 H411 0.984 1_655 S
N405 C398 1.356 . S
N405 H408 0.984 . S
N405 H409 0.985 . S
H406 N401 0.984 . S
H407 N401 0.985 . S
H408 N405 0.984 . S
H409 N405 0.985 . S
H410 N404 0.984 . S
H411 N404 0.984 1_455 S
H412 N400 0.984 . S
H413 N400 0.985 . S
C414 C415 1.363 . S
C414 C420 1.379 . S
C414 N422 1.356 . S
C415 C414 1.363 . S
C415 C421 1.363 . S
C416 C417 1.363 . S
C416 C421 1.379 . S
C416 N423 1.367 . S
C417 C416 1.363 . S
C417 C420 1.363 . S
N418 C420 1.356 1_565 S
N418 H430 0.984 . S
N418 H431 0.985 . S
N419 C421 1.356 . S
N419 H424 0.984 . S
N419 H425 0.985 . S
C420 C414 1.379 . S
C420 C417 1.363 . S
C420 N418 1.356 1_545 S
C421 C415 1.363 . S
C421 C416 1.379 . S
C421 N419 1.356 . S
N422 C414 1.356 . S
N422 H428 0.984 . S
N422 H429 0.984 . S
N423 C416 1.367 . S
N423 H426 0.977 1_455 S
N423 H427 0.981 1_455 S
H424 N419 0.984 . S
H425 N419 0.985 . S
H426 N423 0.977 1_655 S
H427 N423 0.981 1_655 S
H428 N422 0.984 . S
H429 N422 0.984 . S
H430 N418 0.984 . S
H431 N418 0.985 . S
C432 C433 1.363 . S
C432 C438 1.379 . S
C432 N440 1.356 . S
C433 C432 1.363 . S
C433 C439 1.363 . S
C434 C435 1.363 . S
C434 C439 1.379 . S
C434 N441 1.356 1_554 S
C435 C434 1.363 . S
C435 C438 1.363 . S
N436 C438 1.356 1_565 S
N436 H448 0.984 . S
N436 H449 0.985 . S
N437 C439 1.356 . S
N437 H442 0.984 . S
N437 H443 0.985 . S
C438 C432 1.379 . S
C438 C435 1.363 . S
C438 N436 1.356 1_545 S
C439 C433 1.363 . S
C439 C434 1.379 . S
C439 N437 1.356 . S
N440 C432 1.356 . S
N440 H446 0.984 . S
N440 H447 0.984 . S
N441 C434 1.356 1_556 S
N441 H444 0.984 . S
N441 H445 0.985 . S
H442 N437 0.984 . S
H443 N437 0.985 . S
H444 N441 0.984 . S
H445 N441 0.985 . S
H446 N440 0.984 . S
H447 N440 0.984 . S
H448 N436 0.984 . S
H449 N436 0.985 . S
C450 C451 1.363 . S
C450 C456 1.379 . S
C450 N458 1.356 . S
C451 C450 1.363 . S
C451 C457 1.363 . S
C452 C453 1.363 . S
C452 C457 1.379 . S
C452 N459 1.356 1_554 S
C453 C452 1.363 . S
C453 C456 1.363 . S
N454 C456 1.356 1_655 S
N454 H466 0.984 . S
N454 H467 0.985 . S
N455 C457 1.356 . S
N455 H460 0.984 . S
N455 H461 0.985 . S
C456 C450 1.379 . S
C456 C453 1.363 . S
C456 N454 1.356 1_455 S
C457 C451 1.363 . S
C457 C452 1.379 . S
C457 N455 1.356 . S
N458 C450 1.356 . S
N458 H464 0.984 . S
N458 H465 0.984 . S
N459 C452 1.356 1_556 S
N459 H462 0.984 . S
N459 H463 0.985 . S
H460 N455 0.984 . S
H461 N455 0.985 . S
H462 N459 0.984 . S
H463 N459 0.985 . S
H464 N458 0.984 . S
H465 N458 0.984 . S
H466 N454 0.984 . S
H467 N454 0.985 . S
C199 C127 1.744 1_655 S
C201 N14 1.563 . S
C217 C140 1.111 . S
C219 C8 1.097 . S
C235 N5 0.846 . S
C237 N170 0.856 . S
C253 N80 1.577 1_565 S
C255 C28 1.762 . S
C271 N179 1.607 . S
C273 C41 1.772 1_565 S
C289 N71 0.839 . S
C291 N47 0.873 . S
C307 C61 1.106 . S
C309 C107 1.115 . S
C325 C160 1.746 1_556 S
C327 N38 1.396 . S
C343 C94 1.733 . S
C345 N113 1.557 . S
C361 C74 1.007 . S
C363 C173 1.004 . S
C379 N137 0.814 . S
C381 N104 0.813 . S
C397 C193 1.765 1_655 S
C399 N146 1.587 . S
C415 C50 1.520 . S
C417 C17 1.558 . S
C433 C149 1.422 . S
C435 C83 1.419 . S
C451 C182 1.437 . S
C453 C116 1.441 . S
