# Generated by pormake.
# Topology umn, (4)-cn, num edge types: 1
# Building blocks:
#     Node 0, Type 0, BuildingBlock: GALJAG_clean_sbu_0, # of connection points: 4
#     Node 1, Type 0, BuildingBlock: GALJAG_clean_sbu_0, # of connection points: 4
#     Node 2, Type 0, BuildingBlock: GALJAG_clean_sbu_0, # of connection points: 4
#     Node 3, Type 0, BuildingBlock: GALJAG_clean_sbu_0, # of connection points: 4
#     Node 4, Type 0, BuildingBlock: GALJAG_clean_sbu_0, # of connection points: 4
#     Node 5, Type 0, BuildingBlock: GALJAG_clean_sbu_0, # of connection points: 4
#     Node 6, Type 0, BuildingBlock: GALJAG_clean_sbu_0, # of connection points: 4
#     Node 7, Type 0, BuildingBlock: GALJAG_clean_sbu_0, # of connection points: 4
#     Node 8, Type 0, BuildingBlock: GALJAG_clean_sbu_0, # of connection points: 4
#     Node 9, Type 0, BuildingBlock: GALJAG_clean_sbu_0, # of connection points: 4
#     Node 10, Type 0, BuildingBlock: GALJAG_clean_sbu_0, # of connection points: 4
#     Node 11, Type 0, BuildingBlock: GALJAG_clean_sbu_0, # of connection points: 4
#     Node 12, Type 0, BuildingBlock: GALJAG_clean_sbu_0, # of connection points: 4
#     Node 13, Type 0, BuildingBlock: GALJAG_clean_sbu_0, # of connection points: 4
#     Node 14, Type 0, BuildingBlock: GALJAG_clean_sbu_0, # of connection points: 4
#     Node 15, Type 0, BuildingBlock: GALJAG_clean_sbu_0, # of connection points: 4
#     Node 16, Type 0, BuildingBlock: GALJAG_clean_sbu_0, # of connection points: 4
#     Node 17, Type 0, BuildingBlock: GALJAG_clean_sbu_0, # of connection points: 4
#     Node 18, Type 0, BuildingBlock: GALJAG_clean_sbu_0, # of connection points: 4
#     Node 19, Type 0, BuildingBlock: GALJAG_clean_sbu_0, # of connection points: 4
#     Node 20, Type 0, BuildingBlock: GALJAG_clean_sbu_0, # of connection points: 4
#     Node 21, Type 0, BuildingBlock: GALJAG_clean_sbu_0, # of connection points: 4
#     Node 22, Type 0, BuildingBlock: GALJAG_clean_sbu_0, # of connection points: 4
#     Node 23, Type 0, BuildingBlock: GALJAG_clean_sbu_0, # of connection points: 4
#     Node 24, Type 0, BuildingBlock: GALJAG_clean_sbu_0, # of connection points: 4
#     Node 25, Type 0, BuildingBlock: GALJAG_clean_sbu_0, # of connection points: 4
#     Node 26, Type 0, BuildingBlock: GALJAG_clean_sbu_0, # of connection points: 4
#     Node 27, Type 0, BuildingBlock: GALJAG_clean_sbu_0, # of connection points: 4
#     Node 28, Type 0, BuildingBlock: GALJAG_clean_sbu_0, # of connection points: 4
#     Node 29, Type 0, BuildingBlock: GALJAG_clean_sbu_0, # of connection points: 4
#     Node 30, Type 0, BuildingBlock: GALJAG_clean_sbu_0, # of connection points: 4
#     Node 31, Type 0, BuildingBlock: GALJAG_clean_sbu_0, # of connection points: 4
#     Node 32, Type 0, BuildingBlock: GALJAG_clean_sbu_0, # of connection points: 4
#     Node 33, Type 0, BuildingBlock: GALJAG_clean_sbu_0, # of connection points: 4
#     Node 34, Type 0, BuildingBlock: GALJAG_clean_sbu_0, # of connection points: 4
#     Node 35, Type 0, BuildingBlock: GALJAG_clean_sbu_0, # of connection points: 4
#     Edge 36, Type (0, 0), BuildingBlock: CIFDUS_clean_linker_0, # of connection points: 2
#     Edge 37, Type (0, 0), BuildingBlock: CIFDUS_clean_linker_0, # of connection points: 2
#     Edge 38, Type (0, 0), BuildingBlock: CIFDUS_clean_linker_0, # of connection points: 2
#     Edge 39, Type (0, 0), BuildingBlock: CIFDUS_clean_linker_0, # of connection points: 2
#     Edge 40, Type (0, 0), BuildingBlock: CIFDUS_clean_linker_0, # of connection points: 2
#     Edge 41, Type (0, 0), BuildingBlock: CIFDUS_clean_linker_0, # of connection points: 2
#     Edge 42, Type (0, 0), BuildingBlock: CIFDUS_clean_linker_0, # of connection points: 2
#     Edge 43, Type (0, 0), BuildingBlock: CIFDUS_clean_linker_0, # of connection points: 2
#     Edge 44, Type (0, 0), BuildingBlock: CIFDUS_clean_linker_0, # of connection points: 2
#     Edge 45, Type (0, 0), BuildingBlock: CIFDUS_clean_linker_0, # of connection points: 2
#     Edge 46, Type (0, 0), BuildingBlock: CIFDUS_clean_linker_0, # of connection points: 2
#     Edge 47, Type (0, 0), BuildingBlock: CIFDUS_clean_linker_0, # of connection points: 2
#     Edge 48, Type (0, 0), BuildingBlock: CIFDUS_clean_linker_0, # of connection points: 2
#     Edge 49, Type (0, 0), BuildingBlock: CIFDUS_clean_linker_0, # of connection points: 2
#     Edge 50, Type (0, 0), BuildingBlock: CIFDUS_clean_linker_0, # of connection points: 2
#     Edge 51, Type (0, 0), BuildingBlock: CIFDUS_clean_linker_0, # of connection points: 2
#     Edge 52, Type (0, 0), BuildingBlock: CIFDUS_clean_linker_0, # of connection points: 2
#     Edge 53, Type (0, 0), BuildingBlock: CIFDUS_clean_linker_0, # of connection points: 2
#     Edge 54, Type (0, 0), BuildingBlock: CIFDUS_clean_linker_0, # of connection points: 2
#     Edge 55, Type (0, 0), BuildingBlock: CIFDUS_clean_linker_0, # of connection points: 2
#     Edge 56, Type (0, 0), BuildingBlock: CIFDUS_clean_linker_0, # of connection points: 2
#     Edge 57, Type (0, 0), BuildingBlock: CIFDUS_clean_linker_0, # of connection points: 2
#     Edge 58, Type (0, 0), BuildingBlock: CIFDUS_clean_linker_0, # of connection points: 2
#     Edge 59, Type (0, 0), BuildingBlock: CIFDUS_clean_linker_0, # of connection points: 2
#     Edge 60, Type (0, 0), BuildingBlock: CIFDUS_clean_linker_0, # of connection points: 2
#     Edge 61, Type (0, 0), BuildingBlock: CIFDUS_clean_linker_0, # of connection points: 2
#     Edge 62, Type (0, 0), BuildingBlock: CIFDUS_clean_linker_0, # of connection points: 2
#     Edge 63, Type (0, 0), BuildingBlock: CIFDUS_clean_linker_0, # of connection points: 2
#     Edge 64, Type (0, 0), BuildingBlock: CIFDUS_clean_linker_0, # of connection points: 2
#     Edge 65, Type (0, 0), BuildingBlock: CIFDUS_clean_linker_0, # of connection points: 2
#     Edge 66, Type (0, 0), BuildingBlock: CIFDUS_clean_linker_0, # of connection points: 2
#     Edge 67, Type (0, 0), BuildingBlock: CIFDUS_clean_linker_0, # of connection points: 2
#     Edge 68, Type (0, 0), BuildingBlock: CIFDUS_clean_linker_0, # of connection points: 2
#     Edge 69, Type (0, 0), BuildingBlock: CIFDUS_clean_linker_0, # of connection points: 2
#     Edge 70, Type (0, 0), BuildingBlock: CIFDUS_clean_linker_0, # of connection points: 2
#     Edge 71, Type (0, 0), BuildingBlock: CIFDUS_clean_linker_0, # of connection points: 2
#     Edge 72, Type (0, 0), BuildingBlock: CIFDUS_clean_linker_0, # of connection points: 2
#     Edge 73, Type (0, 0), BuildingBlock: CIFDUS_clean_linker_0, # of connection points: 2
#     Edge 74, Type (0, 0), BuildingBlock: CIFDUS_clean_linker_0, # of connection points: 2
#     Edge 75, Type (0, 0), BuildingBlock: CIFDUS_clean_linker_0, # of connection points: 2
#     Edge 76, Type (0, 0), BuildingBlock: CIFDUS_clean_linker_0, # of connection points: 2
#     Edge 77, Type (0, 0), BuildingBlock: CIFDUS_clean_linker_0, # of connection points: 2
#     Edge 78, Type (0, 0), BuildingBlock: CIFDUS_clean_linker_0, # of connection points: 2
#     Edge 79, Type (0, 0), BuildingBlock: CIFDUS_clean_linker_0, # of connection points: 2
#     Edge 80, Type (0, 0), BuildingBlock: CIFDUS_clean_linker_0, # of connection points: 2
#     Edge 81, Type (0, 0), BuildingBlock: CIFDUS_clean_linker_0, # of connection points: 2
#     Edge 82, Type (0, 0), BuildingBlock: CIFDUS_clean_linker_0, # of connection points: 2
#     Edge 83, Type (0, 0), BuildingBlock: CIFDUS_clean_linker_0, # of connection points: 2
#     Edge 84, Type (0, 0), BuildingBlock: CIFDUS_clean_linker_0, # of connection points: 2
#     Edge 85, Type (0, 0), BuildingBlock: CIFDUS_clean_linker_0, # of connection points: 2
#     Edge 86, Type (0, 0), BuildingBlock: CIFDUS_clean_linker_0, # of connection points: 2
#     Edge 87, Type (0, 0), BuildingBlock: CIFDUS_clean_linker_0, # of connection points: 2
#     Edge 88, Type (0, 0), BuildingBlock: CIFDUS_clean_linker_0, # of connection points: 2
#     Edge 89, Type (0, 0), BuildingBlock: CIFDUS_clean_linker_0, # of connection points: 2
#     Edge 90, Type (0, 0), BuildingBlock: CIFDUS_clean_linker_0, # of connection points: 2
#     Edge 91, Type (0, 0), BuildingBlock: CIFDUS_clean_linker_0, # of connection points: 2
#     Edge 92, Type (0, 0), BuildingBlock: CIFDUS_clean_linker_0, # of connection points: 2
#     Edge 93, Type (0, 0), BuildingBlock: CIFDUS_clean_linker_0, # of connection points: 2
#     Edge 94, Type (0, 0), BuildingBlock: CIFDUS_clean_linker_0, # of connection points: 2
#     Edge 95, Type (0, 0), BuildingBlock: CIFDUS_clean_linker_0, # of connection points: 2
#     Edge 96, Type (0, 0), BuildingBlock: CIFDUS_clean_linker_0, # of connection points: 2
#     Edge 97, Type (0, 0), BuildingBlock: CIFDUS_clean_linker_0, # of connection points: 2
#     Edge 98, Type (0, 0), BuildingBlock: CIFDUS_clean_linker_0, # of connection points: 2
#     Edge 99, Type (0, 0), BuildingBlock: CIFDUS_clean_linker_0, # of connection points: 2
#     Edge 100, Type (0, 0), BuildingBlock: CIFDUS_clean_linker_0, # of connection points: 2
#     Edge 101, Type (0, 0), BuildingBlock: CIFDUS_clean_linker_0, # of connection points: 2
#     Edge 102, Type (0, 0), BuildingBlock: CIFDUS_clean_linker_0, # of connection points: 2
#     Edge 103, Type (0, 0), BuildingBlock: CIFDUS_clean_linker_0, # of connection points: 2
#     Edge 104, Type (0, 0), BuildingBlock: CIFDUS_clean_linker_0, # of connection points: 2
#     Edge 105, Type (0, 0), BuildingBlock: CIFDUS_clean_linker_0, # of connection points: 2
#     Edge 106, Type (0, 0), BuildingBlock: CIFDUS_clean_linker_0, # of connection points: 2
#     Edge 107, Type (0, 0), BuildingBlock: CIFDUS_clean_linker_0, # of connection points: 2
# Relax obj value: 0.191
# Max RMSD: 0.184
# Mean RMSD: 0.184
data_MOF--net-umn--node1-GALJAG_clean_sbu_0--edge1-CIFDUS_clean_linker_0
_symmetry_space_group_name_H-M    P1
_symmetry_Int_Tables_number       1
_symmetry_cell_setting            triclinic
loop_
_symmetry_equiv_pos_as_xyz
'x, y, z'
_cell_length_a     73.995653
_cell_length_b     73.919292
_cell_length_c     31.951989
_cell_angle_alpha  89.966877
_cell_angle_beta   90.046735
_cell_angle_gamma 120.0101
loop_
_atom_site_label
_atom_site_type_symbol
_atom_site_fract_x
_atom_site_fract_y
_atom_site_fract_z
_atom_type_partial_charge
In0 In 0.35841 0.09055 0.23374 0.0
O1 O 0.36951 0.10265 0.30079 0.0
O2 O 0.33685 0.08521 0.28789 0.0
C3 C 0.39085 0.09708 0.18414 0.0
C4 C 0.34619 0.1166 0.20527 0.0
C5 C 0.33776 0.04895 0.23414 0.0
O6 O 0.39201 0.09681 0.22369 0.0
O7 O 0.37399 0.09509 0.17049 0.0
O8 O 0.33328 0.05911 0.20842 0.0
O9 O 0.35288 0.05972 0.25822 0.0
C10 C 0.35099 0.09458 0.31484 0.0
O11 O 0.33603 0.09718 0.19804 0.0
O12 O 0.36288 0.12293 0.226 0.0
In13 In 0.88979 0.25512 0.23681 0.0
O14 O 0.87879 0.25509 0.30454 0.0
O15 O 0.89595 0.23967 0.29151 0.0
C16 C 0.88369 0.28164 0.1881 0.0
C17 C 0.86319 0.21744 0.20605 0.0
C18 C 0.93141 0.27568 0.23696 0.0
O19 O 0.88248 0.28176 0.22765 0.0
O20 O 0.88693 0.26765 0.17365 0.0
O21 O 0.92097 0.2578 0.22054 0.0
O22 O 0.92081 0.28333 0.25127 0.0
C23 C 0.88712 0.2449 0.31869 0.0
O24 O 0.88228 0.22731 0.19614 0.0
O25 O 0.85734 0.22696 0.2306 0.0
In26 In 0.72244 0.62395 0.23854 0.0
O27 O 0.75249 0.64281 0.20294 0.0
O28 O 0.7484 0.61628 0.23788 0.0
C29 C 0.7012 0.64398 0.23013 0.0
C30 C 0.73112 0.63389 0.31994 0.0
C31 C 0.69709 0.59194 0.18839 0.0
O32 O 0.72013 0.65235 0.21907 0.0
O33 O 0.69316 0.62563 0.24424 0.0
O34 O 0.69592 0.59032 0.228 0.0
O35 O 0.71171 0.6091 0.17481 0.0
C36 C 0.76017 0.63177 0.21507 0.0
O37 O 0.72076 0.61493 0.30821 0.0
O38 O 0.73691 0.64711 0.29081 0.0
In39 In 0.09143 0.36181 0.29512 0.0
O40 O 0.09878 0.36959 0.2247 0.0
O41 O 0.0816 0.33775 0.24493 0.0
C42 C 0.09824 0.39105 0.35267 0.0
C43 C 0.12107 0.35328 0.31586 0.0
C44 C 0.05037 0.34428 0.29925 0.0
O45 O 0.09956 0.39517 0.3137 0.0
O46 O 0.09453 0.37285 0.3616 0.0
O47 O 0.0597 0.33495 0.31261 0.0
O48 O 0.06186 0.36256 0.28529 0.0
C49 C 0.08929 0.3503 0.21468 0.0
O50 O 0.10226 0.34189 0.32738 0.0
O51 O 0.12496 0.36942 0.29494 0.0
In52 In 0.62708 0.73156 0.28433 0.0
O53 O 0.61492 0.72946 0.21705 0.0
O54 O 0.64753 0.74819 0.22907 0.0
C55 C 0.59693 0.70336 0.33507 0.0
C56 C 0.6342 0.76848 0.3127 0.0
C57 C 0.65018 0.71316 0.282 0.0
O58 O 0.59432 0.70355 0.29589 0.0
O59 O 0.61416 0.71794 0.34841 0.0
O60 O 0.65679 0.73067 0.29974 0.0
O61 O 0.63194 0.70499 0.26738 0.0
C62 C 0.63309 0.74113 0.20231 0.0
O63 O 0.64628 0.76142 0.32054 0.0
O64 O 0.61805 0.75648 0.29175 0.0
In65 In 0.2473 0.8894 0.30096 0.0
O66 O 0.24592 0.88213 0.23046 0.0
O67 O 0.2304 0.89792 0.25411 0.0
C68 C 0.27131 0.88228 0.35395 0.0
C69 C 0.20929 0.86037 0.32401 0.0
C70 C 0.27141 0.9305 0.30166 0.0
O71 O 0.27259 0.88059 0.31457 0.0
O72 O 0.25756 0.88655 0.36553 0.0
O73 O 0.25572 0.92147 0.32575 0.0
O74 O 0.27503 0.91874 0.27881 0.0
C75 C 0.23509 0.8908 0.22259 0.0
O76 O 0.21706 0.87939 0.33437 0.0
O77 O 0.22116 0.85593 0.30318 0.0
In78 In 0.62138 0.89153 0.79748 0.0
O79 O 0.61097 0.88057 0.72935 0.0
O80 O 0.64339 0.8976 0.74386 0.0
C81 C 0.58864 0.88661 0.84395 0.0
C82 C 0.63135 0.86431 0.82937 0.0
C83 C 0.64417 0.93315 0.79853 0.0
O84 O 0.58795 0.88591 0.80432 0.0
O85 O 0.60521 0.88862 0.8595 0.0
O86 O 0.65055 0.92185 0.81519 0.0
O87 O 0.62601 0.9234 0.78342 0.0
C88 C 0.62962 0.88882 0.7161 0.0
O89 O 0.6405 0.88333 0.8399 0.0
O90 O 0.61644 0.85875 0.8037 0.0
In91 In 0.08977 0.73144 0.79315 0.0
O92 O 0.10112 0.76204 0.82651 0.0
O93 O 0.1237 0.75663 0.79559 0.0
C94 C 0.04827 0.71171 0.79367 0.0
C95 C 0.0907 0.74035 0.71139 0.0
C96 C 0.09479 0.70669 0.8482 0.0
O97 O 0.05901 0.7297 0.80972 0.0
O98 O 0.05855 0.70359 0.77983 0.0
O99 O 0.09612 0.70471 0.80902 0.0
O100 O 0.09165 0.72135 0.85881 0.0
C101 C 0.12003 0.769 0.81646 0.0
O102 O 0.0976 0.72865 0.72436 0.0
O103 O 0.08428 0.74763 0.73964 0.0
In104 In 0.25982 0.35819 0.78642 0.0
O105 O 0.25972 0.36953 0.71904 0.0
O106 O 0.24584 0.33685 0.73136 0.0
C107 C 0.28112 0.38783 0.84434 0.0
C108 C 0.22127 0.34555 0.81256 0.0
C109 C 0.28487 0.34213 0.78565 0.0
O110 O 0.28359 0.39206 0.80548 0.0
O111 O 0.26767 0.36921 0.85309 0.0
O112 O 0.26619 0.33166 0.79833 0.0
O113 O 0.29089 0.3607 0.77473 0.0
C114 C 0.25024 0.35099 0.7046 0.0
O115 O 0.23059 0.33555 0.8212 0.0
O116 O 0.23169 0.36211 0.79142 0.0
In117 In 0.88877 0.62746 0.72797 0.0
O118 O 0.87857 0.64626 0.68929 0.0
O119 O 0.85544 0.62037 0.72486 0.0
C120 C 0.92997 0.64492 0.72554 0.0
C121 C 0.89006 0.64081 0.8066 0.0
C122 C 0.88193 0.59512 0.67917 0.0
O123 O 0.92083 0.65395 0.70971 0.0
O124 O 0.91827 0.62706 0.74101 0.0
O125 O 0.88011 0.5933 0.71875 0.0
O126 O 0.886 0.61272 0.66492 0.0
C127 C 0.85969 0.63565 0.70088 0.0
O128 O 0.88104 0.62135 0.79843 0.0
O129 O 0.89767 0.65269 0.77538 0.0
In130 In 0.36624 0.26105 0.74014 0.0
O131 O 0.37769 0.26283 0.80821 0.0
O132 O 0.34513 0.24536 0.79521 0.0
C133 C 0.397 0.28933 0.69041 0.0
C134 C 0.35907 0.22406 0.71209 0.0
C135 C 0.34216 0.27837 0.73668 0.0
O136 O 0.3986 0.29003 0.72996 0.0
O137 O 0.38062 0.27382 0.67649 0.0
O138 O 0.33617 0.26041 0.72174 0.0
O139 O 0.36034 0.28756 0.7518 0.0
C140 C 0.35931 0.25177 0.82245 0.0
O141 O 0.34742 0.2315 0.70324 0.0
O142 O 0.37493 0.23573 0.73409 0.0
In143 In 0.72913 0.09224 0.72667 0.0
O144 O 0.75748 0.09843 0.68949 0.0
O145 O 0.75784 0.12407 0.72191 0.0
C146 C 0.70244 0.0515 0.72794 0.0
C147 C 0.74038 0.09221 0.80674 0.0
C148 C 0.70776 0.10152 0.67086 0.0
O149 O 0.72068 0.05888 0.71319 0.0
O150 O 0.6976 0.06472 0.74047 0.0
O151 O 0.70639 0.10396 0.70992 0.0
O152 O 0.72029 0.09534 0.66088 0.0
C153 C 0.76754 0.11763 0.69924 0.0
O154 O 0.73057 0.10162 0.79634 0.0
O155 O 0.74437 0.08357 0.77698 0.0
In156 In 0.02065 0.43025 0.56634 0.0
O157 O 0.00066 0.44094 0.5343 0.0
O158 O 0.02816 0.46394 0.56605 0.0
C159 C -0.00049 0.38886 0.56064 0.0
C160 C 0.01202 0.42935 0.64854 0.0
C161 C 0.05058 0.43675 0.51026 0.0
O162 O -0.00788 0.39986 0.5467 0.0
O163 O 0.01775 0.39891 0.57546 0.0
O164 O 0.05382 0.437 0.54937 0.0
O165 O 0.03292 0.43416 0.50045 0.0
C166 C 0.01196 0.45982 0.54523 0.0
O167 O 0.03079 0.43739 0.6358 0.0
O168 O -0.00154 0.42256 0.61998 0.0
In169 In 0.56228 0.59009 0.55952 0.0
O170 O 0.55487 0.56257 0.51791 0.0
O171 O 0.5297 0.5626 0.55074 0.0
C172 C 0.60383 0.61038 0.56445 0.0
C173 C 0.55768 0.57809 0.64031 0.0
C174 C 0.55792 0.61784 0.51157 0.0
O175 O 0.59387 0.59313 0.54535 0.0
O176 O 0.59282 0.61754 0.57891 0.0
O177 O 0.55569 0.61719 0.55096 0.0
O178 O 0.56126 0.60396 0.49676 0.0
C179 C 0.53562 0.55299 0.52662 0.0
O180 O 0.54989 0.58882 0.62641 0.0
O181 O 0.56694 0.57326 0.61335 0.0
In182 In 0.39418 0.96112 0.55388 0.0
O183 O 0.39338 0.951 0.62247 0.0
O184 O 0.41138 0.98334 0.60619 0.0
C185 C 0.36889 0.9308 0.50001 0.0
C186 C 0.43212 0.96985 0.53015 0.0
C187 C 0.37405 0.98245 0.55454 0.0
O188 O 0.36711 0.92782 0.53931 0.0
O189 O 0.3836 0.94842 0.48889 0.0
O190 O 0.38934 0.98747 0.53021 0.0
O191 O 0.36866 0.96646 0.57683 0.0
C192 C 0.40515 0.96973 0.63473 0.0
O193 O 0.42489 0.98179 0.52204 0.0
O194 O 0.4198 0.95305 0.54904 0.0
In195 In 0.76301 0.69836 0.62576 0.0
O196 O 0.77016 0.70817 0.55625 0.0
O197 O 0.7537 0.67583 0.57257 0.0
C198 C 0.77049 0.72899 0.68039 0.0
C199 C 0.79205 0.68877 0.64621 0.0
C200 C 0.72174 0.67894 0.63338 0.0
O201 O 0.77046 0.73178 0.64115 0.0
O202 O 0.76798 0.71143 0.69111 0.0
O203 O 0.73201 0.67013 0.64365 0.0
O204 O 0.73238 0.69756 0.62086 0.0
C205 C 0.76112 0.68928 0.54385 0.0
O206 O 0.77331 0.67811 0.65848 0.0
O207 O 0.7963 0.70486 0.6248 0.0
In208 In 0.29786 0.06543 0.62854 0.0
O209 O 0.28577 0.06306 0.56101 0.0
O210 O 0.31854 0.08099 0.57317 0.0
C211 C 0.26857 0.04195 0.68595 0.0
C212 C 0.30824 0.10419 0.65028 0.0
C213 C 0.31819 0.04429 0.62745 0.0
O214 O 0.26468 0.03927 0.64702 0.0
O215 O 0.28658 0.0566 0.69501 0.0
O216 O 0.32429 0.06029 0.6503 0.0
O217 O 0.3017 0.03877 0.60687 0.0
C218 C 0.30411 0.07419 0.54629 0.0
O219 O 0.31996 0.09662 0.65764 0.0
O220 O 0.29098 0.0919 0.63286 0.0
In221 In 0.9244 0.22891 0.63148 0.0
O222 O 0.89576 0.22292 0.66737 0.0
O223 O 0.8964 0.19676 0.63995 0.0
C224 C 0.94822 0.27007 0.62529 0.0
C225 C 0.91398 0.22455 0.54985 0.0
C226 C 0.94787 0.224 0.68999 0.0
O227 O 0.92973 0.26167 0.63913 0.0
O228 O 0.95472 0.25772 0.61607 0.0
O229 O 0.94954 0.22085 0.65145 0.0
O230 O 0.93388 0.22845 0.69835 0.0
C231 C 0.88626 0.20344 0.66048 0.0
O232 O 0.92406 0.21626 0.565 0.0
O233 O 0.90927 0.2343 0.57591 0.0
In234 In 0.30508 0.23125 0.1354 0.0
O235 O 0.32664 0.22408 0.17254 0.0
O236 O 0.30054 0.19877 0.14165 0.0
C237 C 0.32504 0.27284 0.13358 0.0
C238 C 0.31188 0.22816 0.05349 0.0
C239 C 0.27417 0.22479 0.18903 0.0
O240 O 0.33312 0.26301 0.15016 0.0
O241 O 0.30668 0.26163 0.12004 0.0
O242 O 0.27132 0.22344 0.14973 0.0
O243 O 0.29202 0.2285 0.20048 0.0
C244 C 0.31675 0.20479 0.16386 0.0
O245 O 0.29344 0.21999 0.06799 0.0
O246 O 0.32613 0.23707 0.08034 0.0
In247 In 0.75084 0.06195 0.12982 0.0
O248 O 0.76086 0.06515 0.06025 0.0
O249 O 0.74204 0.07784 0.08077 0.0
C250 C 0.75832 0.03647 0.17801 0.0
C251 C 0.77694 0.09928 0.16198 0.0
C252 C 0.7098 0.03694 0.12948 0.0
O253 O 0.76055 0.03707 0.1385 0.0
O254 O 0.75367 0.0495 0.19259 0.0
O255 O 0.71811 0.05506 0.14532 0.0
O256 O 0.72221 0.03146 0.11515 0.0
C257 C 0.75116 0.07476 0.05066 0.0
O258 O 0.75783 0.08914 0.17206 0.0
O259 O 0.78295 0.09013 0.13676 0.0
In260 In 0.91623 0.6858 0.12702 0.0
O261 O 0.88729 0.66846 0.16643 0.0
O262 O 0.8909 0.69429 0.12951 0.0
C263 C 0.93684 0.66487 0.13002 0.0
C264 C 0.9036 0.67286 0.04827 0.0
C265 C 0.94321 0.71907 0.17267 0.0
O266 O 0.91964 0.6583 0.14899 0.0
O267 O 0.9438 0.68228 0.11191 0.0
O268 O 0.94288 0.71979 0.13298 0.0
O269 O 0.92956 0.70202 0.18862 0.0
C270 C 0.87961 0.6795 0.15425 0.0
O271 O 0.91567 0.69212 0.05639 0.0
O272 O 0.89787 0.66095 0.07967 0.0
In273 In 0.54938 0.95977 0.06873 0.0
O274 O 0.54091 0.95008 0.13796 0.0
O275 O 0.55615 0.98233 0.12162 0.0
C276 C 0.54486 0.92783 0.02023 0.0
C277 C 0.52055 0.96826 0.04049 0.0
C278 C 0.59085 0.98207 0.06553 0.0
O279 O 0.54329 0.92628 0.05977 0.0
O280 O 0.54751 0.94487 1.00572 0.0
O281 O 0.57962 0.98868 0.0494 0.0
O282 O 0.58105 0.964 0.08117 0.0
C283 C 0.54892 0.96888 0.15034 0.0
O284 O 0.53962 0.979 0.03075 0.0
O285 O 0.5158 0.95256 0.06356 0.0
In286 In 0.01974 0.58823 0.05815 0.0
O287 O -0.00171 0.55765 0.02607 0.0
O288 O 0.02622 0.56154 0.05486 0.0
C289 C 0.00183 0.61167 0.05946 0.0
C290 C 0.01293 0.57991 0.14022 0.0
C291 C 0.04831 0.61084 0.9997 0.0
O292 O -0.00805 0.59284 0.04725 0.0
O293 O 0.0207 0.61863 0.06928 0.0
O294 O 0.05292 0.61298 0.0384 0.0
O295 O 0.02985 0.59684 0.99116 0.0
C296 C 0.00947 0.54967 0.03537 0.0
O297 O 0.03145 0.59023 0.12597 0.0
O298 O -0.00129 0.57392 0.11308 0.0
In299 In 0.39423 0.43197 0.0654 0.0
O300 O 0.39147 0.44087 0.13365 0.0
O301 O 0.40824 0.42494 0.12068 0.0
C302 C 0.37209 0.43836 1.00622 0.0
C303 C 0.43286 0.4602 0.0433 0.0
C304 C 0.37195 0.39055 0.0636 0.0
O305 O 0.36896 0.4397 0.04492 0.0
O306 O 0.38675 0.43481 0.99824 0.0
O307 O 0.39088 0.40033 0.05227 0.0
O308 O 0.36424 0.40172 0.07414 0.0
C309 C 0.40186 0.43273 0.14794 0.0
O310 O 0.42475 0.44105 0.03387 0.0
O311 O 0.42111 0.4652 0.06292 0.0
In312 In 0.68467 0.75814 0.88795 0.0
O313 O 0.66085 0.7627 0.85208 0.0
O314 O 0.68551 0.78896 0.88397 0.0
C315 C 0.66939 0.71698 0.88894 0.0
C316 C 0.6785 0.76089 0.97015 0.0
C317 C 0.71549 0.76834 0.83185 0.0
O318 O 0.65851 0.72487 0.87713 0.0
O319 O 0.68804 0.72985 0.8986 0.0
O320 O 0.71902 0.76972 0.87093 0.0
O321 O 0.69691 0.76274 0.82187 0.0
C322 C 0.66904 0.78177 0.86217 0.0
O323 O 0.69674 0.77061 0.95453 0.0
O324 O 0.66416 0.75028 0.94439 0.0
In325 In 0.22342 0.92504 0.90401 0.0
O326 O 0.21267 0.89491 0.86969 0.0
O327 O 0.18955 0.90065 0.89785 0.0
C328 C 0.26403 0.9489 0.91378 0.0
C329 C 0.22169 0.91016 0.98101 0.0
C330 C 0.21995 0.94925 0.84573 0.0
O331 O 0.25649 0.93372 0.88815 0.0
O332 O 0.25107 0.95234 0.93285 0.0
O333 O 0.21583 0.95052 0.88399 0.0
O334 O 0.22518 0.93573 0.83786 0.0
C335 C 0.19353 0.88827 0.87758 0.0
O336 O 0.2142 0.9221 0.97343 0.0
O337 O 0.22916 0.90566 0.9497 0.0
In338 In 0.06879 0.31161 0.89083 0.0
O339 O 0.09708 0.33173 0.85163 0.0
O340 O 0.09572 0.30566 0.88418 0.0
C341 C 0.04588 0.33004 0.89377 0.0
C342 C 0.08106 0.3223 0.97076 0.0
C343 C 0.04438 0.28027 0.83817 0.0
O344 O 0.06333 0.33849 0.87514 0.0
O345 O 0.03988 0.31209 0.90866 0.0
O346 O 0.04391 0.27723 0.87741 0.0
O347 O 0.0573 0.29858 0.82642 0.0
C348 C 0.10593 0.32132 0.8605 0.0
O349 O 0.06913 0.30327 0.96053 0.0
O350 O 0.08697 0.33506 0.94073 0.0
In351 In 0.42823 0.03217 0.93984 0.0
O352 O 0.43963 0.04212 0.87216 0.0
O353 O 0.42384 0.00969 0.88858 0.0
C354 C 0.43234 0.06213 0.99358 0.0
C355 C 0.45552 0.02193 0.96913 0.0
C356 C 0.38709 0.01297 0.93176 0.0
O357 O 0.4356 0.06577 0.95463 0.0
O358 O 0.42788 0.04399 1.00465 0.0
O359 O 0.39563 0.00673 0.95801 0.0
O360 O 0.39922 0.02916 0.91129 0.0
C361 C 0.43224 0.02327 0.86017 0.0
O362 O 0.43605 0.01055 0.97488 0.0
O363 O 0.46121 0.03887 0.9496 0.0
In364 In 0.94881 0.39113 0.95603 0.0
O365 O 0.96768 0.42086 0.99243 0.0
O366 O 0.9408 0.41698 0.95936 0.0
C367 C 0.9705 0.37148 0.96169 0.0
C368 C 0.95802 0.40018 0.87419 0.0
C369 C 0.91789 0.36414 1.00679 0.0
O370 O 0.9781 0.39025 0.97343 0.0
O371 O 0.95197 0.36269 0.94845 0.0
O372 O 0.91585 0.36334 0.96724 0.0
O373 O 0.93476 0.37929 0.02012 0.0
C374 C 0.95653 0.42863 0.98175 0.0
O375 O 0.93918 0.38983 0.88657 0.0
O376 O 0.97143 0.40586 0.90289 0.0
In377 In 0.58995 0.55592 0.95272 0.0
O378 O 0.5916 0.54588 0.88497 0.0
O379 O 0.57369 0.56055 0.8978 0.0
C380 C 0.61703 0.5519 1.00324 0.0
C381 C 0.55267 0.52693 0.98095 0.0
C382 C 0.60813 0.59753 0.95345 0.0
O383 O 0.61781 0.5508 0.96375 0.0
O384 O 0.60221 0.55408 0.01667 0.0
O385 O 0.59043 0.58605 0.96986 0.0
O386 O 0.61681 0.58797 0.93867 0.0
C387 C 0.58021 0.55283 0.87069 0.0
O388 O 0.56061 0.5461 0.98972 0.0
O389 O 0.56397 0.52226 0.95896 0.0
In390 In 0.95547 0.55917 0.45047 0.0
O391 O 0.97443 0.54896 0.48856 0.0
O392 O 0.94733 0.52549 0.45673 0.0
C393 C 0.9777 0.60077 0.45169 0.0
C394 C 0.9635 0.55659 0.36919 0.0
C395 C 0.92365 0.55463 0.49908 0.0
O396 O 0.98442 0.5898 0.46866 0.0
O397 O 0.95968 0.59067 0.43599 0.0
O398 O 0.92217 0.55336 0.45952 0.0
O399 O 0.94068 0.55727 0.51356 0.0
C400 C 0.96299 0.52984 0.4795 0.0
O401 O 0.94493 0.54931 0.3823 0.0
O402 O 0.97735 0.56444 0.39709 0.0
In403 In 0.42414 0.39597 0.45831 0.0
O404 O 0.43081 0.42395 0.49796 0.0
O405 O 0.45602 0.42471 0.46363 0.0
C406 C 0.38281 0.37202 0.45901 0.0
C407 C 0.42552 0.40603 0.37674 0.0
C408 C 0.43213 0.3714 0.50852 0.0
O409 O 0.39174 0.39068 0.47206 0.0
O410 O 0.39475 0.36545 0.44721 0.0
O411 O 0.43383 0.37122 0.46902 0.0
O412 O 0.4276 0.38467 0.52215 0.0
C413 C 0.44985 0.43418 0.48758 0.0
O414 O 0.43502 0.39684 0.39016 0.0
O415 O 0.41595 0.41009 0.40437 0.0
In416 In 0.59128 0.03069 0.45729 0.0
O417 O 0.56072 0.01003 0.48964 0.0
O418 O 0.56532 0.03822 0.46057 0.0
C419 C 0.61399 0.01207 0.45844 0.0
C420 C 0.58171 0.02234 0.37579 0.0
C421 C 0.61432 0.05954 0.51519 0.0
O422 O 0.59532 0.00284 0.47148 0.0
O423 O 0.62113 0.03065 0.44612 0.0
O424 O 0.61693 0.06378 0.47631 0.0
O425 O 0.59972 0.0414 0.52401 0.0
C426 C 0.5532 0.02162 0.48029 0.0
O427 O 0.59236 0.04113 0.38863 0.0
O428 O 0.57624 0.00862 0.4039 0.0
In429 In 0.22289 0.29684 0.39148 0.0
O430 O 0.21452 0.28478 0.45945 0.0
O431 O 0.22799 0.31738 0.44704 0.0
C432 C 0.2196 0.26826 0.33491 0.0
C433 C 0.19271 0.3043 0.36823 0.0
C434 C 0.26433 0.3195 0.39165 0.0
O435 O 0.21779 0.26436 0.37388 0.0
O436 O 0.22205 0.2859 0.32518 0.0
O437 O 0.2533 0.32661 0.37648 0.0
O438 O 0.25436 0.30088 0.40452 0.0
C439 C 0.22135 0.30307 0.4741 0.0
O440 O 0.21168 0.31639 0.35895 0.0
O441 O 0.18887 0.28795 0.38821 0.0
In442 In 0.68818 0.92443 0.40622 0.0
O443 O 0.69883 0.9257 0.4747 0.0
O444 O 0.66645 0.90785 0.45991 0.0
C445 C 0.71911 0.95233 0.35634 0.0
C446 C 0.68118 0.88747 0.37843 0.0
C447 C 0.66558 0.94337 0.4053 0.0
O448 O 0.72114 0.9524 0.39578 0.0
O449 O 0.70209 0.93764 0.34246 0.0
O450 O 0.65893 0.92566 0.38842 0.0
O451 O 0.68363 0.95146 0.42089 0.0
C452 C 0.68029 0.91423 0.48789 0.0
O453 O 0.66932 0.89468 0.36956 0.0
O454 O 0.69708 0.89936 0.40015 0.0
In455 In 0.051 0.7627 0.40412 0.0
O456 O 0.05055 0.77203 0.4729 0.0
O457 O 0.06592 0.75504 0.45707 0.0
C458 C 0.02528 0.76796 0.35247 0.0
C459 C 0.0886 0.79178 0.37808 0.0
C460 C 0.029 0.72127 0.40066 0.0
O461 O 0.02456 0.7697 0.39191 0.0
O462 O 0.03972 0.76495 0.33968 0.0
O463 O 0.04768 0.73123 0.38775 0.0
O464 O 0.02159 0.73223 0.41423 0.0
C465 C 0.0608 0.76345 0.48542 0.0
O466 O 0.08077 0.77271 0.36829 0.0
O467 O 0.07701 0.79623 0.39971 0.0
H468 H 0.28393 0.95115 0.22938 0.0
H469 H 0.28539 0.96009 0.36289 0.0
H470 H 0.30704 -0.00195 0.35338 0.0
H471 H 0.32573 0.02832 0.3067 0.0
H472 H 0.32108 0.01952 0.17296 0.0
H473 H 0.30031 0.98153 0.1826 0.0
C474 C 0.28906 0.96149 0.2563 0.0
C475 C 0.28351 0.95315 0.29676 0.0
C476 C 0.30083 0.98308 0.25041 0.0
C477 C 0.28967 0.96643 0.33155 0.0
C478 C 0.30203 0.98799 0.32608 0.0
C479 C 0.32018 0.01798 0.27978 0.0
C480 C 0.32502 0.02635 0.23923 0.0
C481 C 0.30776 -0.00357 0.28565 0.0
C482 C 0.31748 0.01316 0.20437 0.0
C483 C 0.30569 0.99156 0.20991 0.0
H484 H 0.02527 0.30444 0.27591 0.0
H485 H 0.02555 0.3612 0.30814 0.0
H486 H 0.9885 0.34497 0.29019 0.0
H487 H 0.95655 0.31503 0.26371 0.0
H488 H 0.95662 0.25886 0.22727 0.0
H489 H -0.00667 0.27465 0.24748 0.0
C490 C 0.01702 0.31302 0.27971 0.0
C491 C 0.02775 0.33372 0.294 0.0
C492 C -0.00393 0.30391 0.26769 0.0
C493 C 0.01732 0.3451 0.29765 0.0
C494 C -0.00372 0.33591 0.28711 0.0
C495 C 0.96465 0.30631 0.25991 0.0
C496 C 0.95401 0.28587 0.24407 0.0
C497 C 0.9856 0.31543 0.27162 0.0
C498 C 0.96462 0.27471 0.23913 0.0
C499 C 0.98551 0.28364 0.25103 0.0
H500 H 0.71611 0.68409 0.25316 0.0
H501 H 0.66044 0.62844 0.21294 0.0
H502 H 0.63966 0.64519 0.22583 0.0
H503 H 0.63713 0.67474 0.25174 0.0
H504 H 0.69211 0.73 0.29608 0.0
H505 H 0.71347 0.71416 0.27926 0.0
C506 C 0.69951 0.6759 0.24644 0.0
C507 C 0.68971 0.65528 0.23161 0.0
C508 C 0.68758 0.68533 0.25558 0.0
C509 C 0.66817 0.64444 0.22401 0.0
C510 C 0.65633 0.65392 0.23166 0.0
C511 C 0.65379 0.68333 0.25784 0.0
C512 C 0.66307 0.70344 0.2752 0.0
C513 C 0.66581 0.67419 0.24814 0.0
C514 C 0.68463 0.71439 0.28303 0.0
C515 C 0.69684 0.70542 0.27313 0.0
H516 H 0.63256 0.96039 0.77171 0.0
H517 H 0.6864 0.95591 0.80783 0.0
H518 H 0.70944 0.99199 0.78556 0.0
H519 H 0.71418 0.02445 0.75427 0.0
H520 H 0.6603 0.02955 0.7223 0.0
H521 H 0.6372 0.99324 0.74355 0.0
C522 C 0.64933 0.9674 0.77508 0.0
C523 C 0.65783 0.95561 0.79125 0.0
C524 C 0.6624 0.98801 0.76214 0.0
C525 C 0.67954 0.9648 0.7957 0.0
C526 C 0.69271 0.98532 0.7826 0.0
C527 C 0.69738 0.01741 0.75136 0.0
C528 C 0.6888 0.02924 0.73602 0.0
C529 C 0.6843 -0.00306 0.76522 0.0
C530 C 0.66708 0.02042 0.73354 0.0
C531 C 0.65394 -0.00019 0.74595 0.0
H532 H 0.02279 0.67253 0.76671 0.0
H533 H 0.02354 0.72927 0.8018 0.0
H534 H 0.98715 0.71416 0.77944 0.0
H535 H 0.95525 0.68476 0.74934 0.0
H536 H 0.9544 0.62761 0.71808 0.0
H537 H -0.00893 0.64318 0.73838 0.0
C538 C 0.01495 0.68155 0.76979 0.0
C539 C 0.02573 0.70193 0.78588 0.0
C540 C -0.00576 0.67286 0.75667 0.0
C541 C 0.01543 0.71344 0.78982 0.0
C542 C -0.00527 0.70491 0.77665 0.0
C543 C 0.96333 0.67597 0.74621 0.0
C544 C 0.95254 0.65533 0.73152 0.0
C545 C 0.98408 0.68471 0.7596 0.0
C546 C 0.9627 0.64368 0.72879 0.0
C547 C 0.98352 0.65248 0.74071 0.0
H548 H 0.3539 0.31826 0.75445 0.0
H549 H 0.29974 0.25828 0.72884 0.0
H550 H 0.27692 0.27255 0.74448 0.0
H551 H 0.27256 0.302 0.76713 0.0
H552 H 0.327 0.36221 0.78934 0.0
H553 H 0.34968 0.34782 0.77408 0.0
C554 C 0.3371 0.30836 0.752 0.0
C555 C 0.32844 0.2873 0.74068 0.0
C556 C 0.3242 0.31661 0.76108 0.0
C557 C 0.3067 0.27461 0.73728 0.0
C558 C 0.29368 0.2827 0.74655 0.0
C559 C 0.28939 0.31182 0.7691 0.0
C560 C 0.29823 0.33297 0.7799 0.0
C561 C 0.30228 0.30361 0.75901 0.0
C562 C 0.31999 0.34581 0.7814 0.0
C563 C 0.33291 0.33764 0.77249 0.0
H564 H 0.01356 0.36277 0.58096 0.0
H565 H 0.95731 0.36427 0.55245 0.0
H566 H 0.93619 0.32749 0.57233 0.0
H567 H 0.93387 0.29546 0.60087 0.0
H568 H 0.99029 0.29391 0.62675 0.0
H569 H 0.01135 0.3305 0.6057 0.0
C570 C -0.00332 0.35497 0.57864 0.0
C571 C 0.98694 0.36612 0.56549 0.0
C572 C 0.98474 0.33405 0.59049 0.0
C573 C 0.9651 0.35589 0.56232 0.0
C574 C 0.95304 0.33497 0.57407 0.0
C575 C 0.95078 0.30329 0.60233 0.0
C576 C 0.96065 0.29236 0.61595 0.0
C577 C 0.96271 0.32404 0.58897 0.0
C578 C 0.9825 0.30228 0.61672 0.0
C579 C -0.00551 0.32307 0.60449 0.0
H580 H 0.62762 0.64811 0.59955 0.0
H581 H 0.62997 0.59482 0.55126 0.0
H582 H 0.66647 0.61048 0.57324 0.0
H583 H 0.69777 0.63969 0.60525 0.0
H584 H 0.69563 0.6937 0.64929 0.0
H585 H 0.65861 0.6771 0.63104 0.0
C586 C 0.63614 0.63996 0.59366 0.0
C587 C 0.62624 0.62042 0.57374 0.0
C588 C 0.65694 0.64899 0.60637 0.0
C589 C 0.63741 0.61 0.56623 0.0
C590 C 0.65817 0.61884 0.57911 0.0
C591 C 0.68898 0.64753 0.61167 0.0
C592 C 0.69905 0.66761 0.62919 0.0
C593 C 0.66804 0.63829 0.59937 0.0
C594 C 0.68791 0.67807 0.63628 0.0
C595 C 0.66689 0.66869 0.62553 0.0
H596 H 0.32739 0.03368 0.55408 0.0
H597 H 0.33617 0.0321 0.68709 0.0
H598 H 0.3544 0.0124 0.67578 0.0
H599 H 0.36649 -0.00535 0.62778 0.0
H600 H 0.36072 -0.00079 0.4945 0.0
H601 H 0.34258 0.01899 0.50581 0.0
C602 C 0.33339 0.02902 0.58046 0.0
C603 C 0.33034 0.03388 0.62133 0.0
C604 C 0.34424 0.01834 0.57354 0.0
C605 C 0.33842 0.02832 0.65546 0.0
C606 C 0.34872 0.01708 0.64896 0.0
C607 C 0.36125 7e-05 0.60133 0.0
C608 C 0.36448 -0.00462 0.56045 0.0
C609 C 0.35149 0.01183 0.60816 0.0
C610 C 0.3582 0.00271 0.52616 0.0
C611 C 0.34785 0.0139 0.53266 0.0
H612 H 0.38785 0.36683 0.08994 0.0
H613 H 0.33038 0.36443 0.05513 0.0
H614 H 0.31055 0.32761 0.07547 0.0
H615 H 0.30966 0.29662 0.10455 0.0
H616 H 0.36688 0.29932 0.14303 0.0
H617 H 0.38682 0.33585 0.12085 0.0
C618 C 0.37102 0.35806 0.08614 0.0
C619 C 0.36049 0.36798 0.07047 0.0
C620 C 0.35974 0.33724 0.09941 0.0
C621 C 0.33869 0.35685 0.06674 0.0
C622 C 0.3274 0.33593 0.07863 0.0
C623 C 0.32648 0.30525 0.10838 0.0
C624 C 0.33683 0.29539 0.12536 0.0
C625 C 0.33776 0.32608 0.09545 0.0
C626 C 0.3586 0.3067 0.13029 0.0
C627 C 0.37 0.32748 0.11727 0.0
H628 H 0.61752 0.96936 0.08949 0.0
H629 H 0.61444 0.02436 0.05632 0.0
H630 H 0.65097 0.04656 0.0769 0.0
H631 H 0.68346 0.05015 0.10592 0.0
H632 H 0.68675 -0.00506 0.13526 0.0
H633 H 0.65008 0.97282 0.11563 0.0
C634 C 0.62491 0.98621 0.0864 0.0
C635 C 0.61343 -0.00472 0.07154 0.0
C636 C 0.64571 -0.00125 0.09847 0.0
C637 C 0.62312 0.01707 0.06742 0.0
C638 C 0.64388 0.02974 0.07958 0.0
C639 C 0.67594 0.03328 0.10864 0.0
C640 C 0.68737 0.02403 0.12272 0.0
C641 C 0.65521 0.02074 0.09572 0.0
C642 C 0.67793 0.00223 0.12498 0.0
C643 C 0.65712 0.98964 0.11348 0.0
H644 H 0.97519 0.67795 0.09915 0.0
H645 H 0.92037 0.62315 0.14542 0.0
H646 H 0.9351 0.60134 0.12431 0.0
H647 H 0.96333 0.59795 0.09085 0.0
H648 H 0.0186 0.65319 0.04786 0.0
H649 H 0.00368 0.67483 0.06851 0.0
C650 C 0.96655 0.66125 0.10499 0.0
C651 C 0.94676 0.65212 0.12372 0.0
C652 C 0.97499 0.64891 0.09249 0.0
C653 C 0.93574 0.63051 0.13132 0.0
C654 C 0.94404 0.61804 0.11886 0.0
C655 C 0.97185 0.61468 0.08542 0.0
C656 C -0.00825 0.62406 0.06718 0.0
C657 C 0.96351 0.62705 0.09882 0.0
C658 C 0.0031 0.64576 0.06139 0.0
C659 C -0.00533 0.65809 0.07345 0.0
H660 H 0.64704 0.62492 0.92744 0.0
H661 H 0.58873 0.62038 0.96352 0.0
H662 H 0.60216 0.65686 0.94352 0.0
H663 H 0.63033 0.68978 0.91445 0.0
H664 H 0.68916 0.69464 0.88206 0.0
H665 H 0.67552 0.658 0.9011 0.0
C666 C 0.63734 0.63198 0.93125 0.0
C667 C 0.61696 0.62007 0.94683 0.0
C668 C 0.64512 0.65282 0.91963 0.0
C669 C 0.60454 0.62935 0.95182 0.0
C670 C 0.61214 0.65011 0.94006 0.0
C671 C 0.63999 0.68265 0.91103 0.0
C672 C 0.66051 0.69457 0.89628 0.0
C673 C 0.6323 0.66189 0.92344 0.0
C674 C 0.6732 0.68553 0.89299 0.0
C675 C 0.66547 0.6647 0.90408 0.0
H676 H 0.35507 -0.00296 0.98649 0.0
H677 H 0.36995 0.00283 0.85507 0.0
H678 H 0.33285 0.98251 0.83735 0.0
H679 H 0.29614 0.96319 0.85957 0.0
H680 H 0.28112 0.96092 0.99043 0.0
H681 H 0.31825 0.97981 1.00841 0.0
C682 C 0.35004 0.99376 0.95411 0.0
C683 C 0.36488 0.00111 0.92206 0.0
C684 C 0.32875 0.98279 0.94419 0.0
C685 C 0.35852 -0.00279 0.88007 0.0
C686 C 0.33741 0.98561 0.86997 0.0
C687 C 0.30113 0.96689 0.89192 0.0
C688 C 0.28624 0.96073 0.92373 0.0
C689 C 0.3224 0.97834 0.90178 0.0
C690 C 0.29257 0.96571 0.96557 0.0
C691 C 0.3137 0.97641 0.97584 0.0
H692 H 0.00743 0.31335 0.92663 0.0
H693 H 0.05878 0.37131 0.88111 0.0
H694 H 0.04069 0.38988 0.90282 0.0
H695 H 0.01007 0.38936 0.93436 0.0
H696 H 0.95812 0.33092 0.97577 0.0
H697 H 0.97697 0.31272 0.9572 0.0
C698 C 0.01463 0.33003 0.92124 0.0
C699 C 0.03433 0.34098 0.90227 0.0
C700 C 0.00424 0.3405 0.93387 0.0
C701 C 0.04349 0.36256 0.89536 0.0
C702 C 0.03327 0.37319 0.9081 0.0
C703 C 0.00317 0.37273 0.9401 0.0
C704 C 0.98304 0.36142 0.95702 0.0
C705 C 0.01371 0.36232 0.92765 0.0
C706 C 0.97378 0.33982 0.96323 0.0
C707 C 0.98444 0.32945 0.9523 0.0
H708 H 0.04365 0.69573 0.4227 0.0
H709 H 0.98767 0.69648 0.38841 0.0
H710 H 0.96669 0.65904 0.40237 0.0
H711 H 0.96425 0.62659 0.4261 0.0
H712 H 0.0197 0.62563 0.46432 0.0
H713 H 0.04102 0.66291 0.44801 0.0
C714 C 0.02691 0.68751 0.41764 0.0
C715 C 0.01711 0.69852 0.404 0.0
C716 C 0.01491 0.6662 0.42727 0.0
C717 C -0.00459 0.68808 0.39856 0.0
C718 C 0.98345 0.66679 0.40677 0.0
C719 C 0.981 0.63456 0.43107 0.0
C720 C 0.99044 0.6235 0.44636 0.0
C721 C -0.00698 0.65579 0.42162 0.0
C722 C 0.01211 0.63396 0.45285 0.0
C723 C 0.02429 0.65518 0.44321 0.0
H724 H 0.29026 0.30611 0.41692 0.0
H725 H 0.28853 0.36193 0.3847 0.0
H726 H 0.32498 0.38346 0.40656 0.0
H727 H 0.35712 0.3862 0.43566 0.0
H728 H 0.35881 0.33008 0.46467 0.0
H729 H 0.3222 0.30872 0.44429 0.0
C730 C 0.2979 0.32299 0.41438 0.0
C731 C 0.28683 0.33248 0.39926 0.0
C732 C 0.31862 0.33514 0.42724 0.0
C733 C 0.29687 0.35432 0.39597 0.0
C734 C 0.3176 0.36661 0.40882 0.0
C735 C 0.34927 0.3693 0.43818 0.0
C736 C 0.3603 0.35959 0.4522 0.0
C737 C 0.32852 0.35717 0.42495 0.0
C738 C 0.35037 0.33775 0.45433 0.0
C739 C 0.32957 0.32559 0.44241 0.0
H740 H 0.67912 0.98299 0.42852 0.0
H741 H 0.62339 0.92573 0.39493 0.0
H742 H 0.60206 0.94159 0.41182 0.0
H743 H 0.59949 0.97181 0.43698 0.0
H744 H 0.65569 0.02934 0.46686 0.0
H745 H 0.67674 0.01313 0.45149 0.0
C746 C 0.66231 0.97401 0.42466 0.0
C747 C 0.65277 0.95327 0.4106 0.0
C748 C 0.65029 0.98316 0.43446 0.0
C749 C 0.63103 0.94181 0.40546 0.0
C750 C 0.61885 0.9508 0.41545 0.0
C751 C 0.61632 0.98059 0.4407 0.0
C752 C 0.62614 0.00153 0.45358 0.0
C753 C 0.62832 0.9714 0.43038 0.0
C754 C 0.64792 0.0131 0.4573 0.0
C755 C 0.65992 0.00391 0.44831 0.0
H756 H 0.34239 0.09652 0.51115 0.0
H757 H 0.27702 0.06011 0.47966 0.0
H758 H 0.28592 0.06427 0.40507 0.0
H759 H 0.31235 0.07671 0.34931 0.0
H760 H 0.37775 0.11232 0.38108 0.0
H761 H 0.36872 0.11007 0.45537 0.0
C762 C 0.33003 0.08961 0.48801 0.0
C763 C 0.30902 0.07797 0.50101 0.0
C764 C 0.33529 0.09186 0.44535 0.0
C765 C 0.29327 0.06915 0.47055 0.0
C766 C 0.29837 0.07148 0.42792 0.0
C767 C 0.32466 0.08413 0.37243 0.0
C768 C 0.34574 0.09465 0.35963 0.0
C769 C 0.31934 0.08258 0.41502 0.0
C770 C 0.36144 0.10415 0.39004 0.0
C771 C 0.35627 0.10282 0.43251 0.0
H772 H 0.89118 0.24007 0.51531 0.0
H773 H 0.92515 0.20861 0.48333 0.0
H774 H 0.91861 0.2111 0.40885 0.0
H775 H 0.90498 0.22404 0.35308 0.0
H776 H 0.87172 0.25618 0.38551 0.0
H777 H 0.87616 0.25147 0.45993 0.0
C778 C 0.89706 0.2336 0.49213 0.0
C779 C 0.90875 0.22424 0.50489 0.0
C780 C 0.89341 0.23528 0.44955 0.0
C781 C 0.91614 0.21588 0.47438 0.0
C782 C 0.91244 0.21737 0.43182 0.0
C783 C 0.89853 0.22987 0.37641 0.0
C784 C 0.88807 0.24053 0.36372 0.0
C785 C 0.90135 0.2273 0.41907 0.0
C786 C 0.87981 0.24795 0.39438 0.0
C787 C 0.88241 0.2453 0.43691 0.0
H788 H 0.74203 0.64967 0.51469 0.0
H789 H 0.77392 0.71387 0.4733 0.0
H790 H 0.76781 0.70213 0.40023 0.0
H791 H 0.7526 0.67365 0.34866 0.0
H792 H 0.72035 0.60951 0.39042 0.0
H793 H 0.72748 0.62128 0.46331 0.0
C794 C 0.74775 0.66117 0.48974 0.0
C795 C 0.75843 0.68267 0.49943 0.0
C796 C 0.74407 0.6543 0.44806 0.0
C797 C 0.7657 0.69728 0.46669 0.0
C798 C 0.76217 0.69055 0.42497 0.0
C799 C 0.74718 0.6622 0.37367 0.0
C800 C 0.73591 0.64068 0.36413 0.0
C801 C 0.75125 0.6691 0.41536 0.0
C802 C 0.72902 0.62611 0.39692 0.0
C803 C 0.73309 0.63285 0.43854 0.0
H804 H 0.10811 0.3716 0.14234 0.0
H805 H 0.06408 0.31037 0.18955 0.0
H806 H 0.0585 0.29589 0.11934 0.0
H807 H 0.0651 0.30055 0.04357 0.0
H808 H 0.10916 0.36162 0.99595 0.0
H809 H 0.11583 0.37595 0.06658 0.0
C810 C 0.09733 0.35511 0.13717 0.0
C811 C 0.08652 0.34219 0.17124 0.0
C812 C 0.0942 0.34671 0.09642 0.0
C813 C 0.07267 0.32077 0.16399 0.0
C814 C 0.06943 0.31239 0.12374 0.0
C815 C 0.07635 0.31691 0.04875 0.0
C816 C 0.08655 0.32993 0.01445 0.0
C817 C 0.08002 0.32519 0.08961 0.0
C818 C 0.10101 0.35118 0.02175 0.0
C819 C 0.10482 0.35947 0.0622 0.0
H820 H 0.67116 0.76417 0.16654 0.0
H821 H 0.60572 0.72639 0.13647 0.0
H822 H 0.61422 0.73014 0.06179 0.0
H823 H 0.64027 0.74247 1.00573 0.0
H824 H 0.70579 0.77961 0.03548 0.0
H825 H 0.6972 0.77782 0.11003 0.0
C826 C 0.6587 0.7569 0.14366 0.0
C827 C 0.63779 0.74495 0.15706 0.0
C828 C 0.66375 0.7589 0.10091 0.0
C829 C 0.6219 0.73566 0.127 0.0
C830 C 0.62677 0.73774 0.08434 0.0
C831 C 0.65272 0.75029 0.02844 0.0
C832 C 0.67369 0.76108 0.01509 0.0
C833 C 0.64765 0.74906 0.07104 0.0
C834 C 0.68957 0.77118 0.04494 0.0
C835 C 0.68464 0.77013 0.08752 0.0
H836 H 0.24312 0.87837 0.14737 0.0
H837 H 0.21392 0.91073 0.202 0.0
H838 H 0.20625 0.91883 0.13272 0.0
H839 H 0.20934 0.91841 0.05602 0.0
H840 H 0.23822 0.88576 1.00132 0.0
H841 H 0.24427 0.8761 0.07055 0.0
C842 C 0.23493 0.88702 0.14405 0.0
C843 C 0.22924 0.89398 0.17991 0.0
C844 C 0.23051 0.89171 0.10387 0.0
C845 C 0.21857 0.90518 0.175 0.0
C846 C 0.21417 0.90989 0.13529 0.0
C847 C 0.21675 0.90902 0.05928 0.0
C848 C 0.22337 0.90295 0.02346 0.0
C849 C 0.22028 0.90348 0.09943 0.0
C850 C 0.23298 0.89074 0.02831 0.0
C851 C 0.23652 0.8852 0.06798 0.0
H852 H 0.66871 0.90713 0.68405 0.0
H853 H 0.60384 0.8727 0.64785 0.0
H854 H 0.61408 0.87662 0.57401 0.0
H855 H 0.64136 0.89136 0.52004 0.0
H856 H 0.70618 0.92665 0.5563 0.0
H857 H 0.69602 0.92076 0.63019 0.0
C858 C 0.65676 0.90032 0.66007 0.0
C859 C 0.63549 0.88965 0.67147 0.0
C860 C 0.66277 0.90287 0.61781 0.0
C861 C 0.62028 0.88096 0.63995 0.0
C862 C 0.62614 0.88325 0.59775 0.0
C863 C 0.65332 0.89765 0.54407 0.0
C864 C 0.67455 0.9095 0.53265 0.0
C865 C 0.64733 0.8944 0.58636 0.0
C866 C 0.68978 0.91751 0.56421 0.0
C867 C 0.68395 0.91417 0.60643 0.0
H868 H 0.08127 0.74448 0.51586 0.0
H869 H 0.05228 0.77996 0.55443 0.0
H870 H 0.06015 0.77678 0.62767 0.0
H871 H 0.07403 0.76283 0.6804 0.0
H872 H 0.10215 0.72651 0.64208 0.0
H873 H 0.09596 0.73127 0.56856 0.0
C874 C 0.07673 0.75163 0.54023 0.0
C875 C 0.06614 0.76243 0.52972 0.0
C876 C 0.08116 0.74957 0.58212 0.0
C877 C 0.0604 0.77157 0.56169 0.0
C878 C 0.0649 0.76973 0.60352 0.0
C879 C 0.07898 0.75606 0.656 0.0
C880 C 0.08856 0.7443 0.6667 0.0
C881 C 0.0751 0.75862 0.61405 0.0
C882 C 0.0948 0.73562 0.63468 0.0
C883 C 0.0912 0.73831 0.59271 0.0
H884 H 0.2373 0.34148 0.50875 0.0
H885 H 0.20998 0.27628 0.54106 0.0
H886 H 0.2159 0.28557 0.61542 0.0
H887 H 0.23025 0.31227 0.67055 0.0
H888 H 0.25833 0.37752 0.63812 0.0
H889 H 0.25065 0.36811 0.56407 0.0
C890 C 0.23246 0.32924 0.53203 0.0
C891 C 0.2232 0.30817 0.51934 0.0
C892 C 0.23617 0.33473 0.57453 0.0
C893 C 0.21709 0.29257 0.54996 0.0
C894 C 0.22054 0.2979 0.59243 0.0
C895 C 0.23463 0.32448 0.64735 0.0
C896 C 0.24494 0.34563 0.65985 0.0
C897 C 0.2303 0.31894 0.60497 0.0
C898 C 0.25044 0.36118 0.62935 0.0
C899 C 0.24605 0.35579 0.58705 0.0
H900 H 0.91491 0.69366 0.97353 0.0
H901 H 0.87871 0.63212 0.02715 0.0
H902 H 0.87069 0.61659 0.95761 0.0
H903 H 0.87522 0.62019 0.88106 0.0
H904 H 0.91124 0.68183 0.82764 0.0
H905 H 0.91789 0.69741 0.89698 0.0
C906 C 0.90511 0.67689 0.96992 0.0
C907 C 0.89753 0.66413 1.00552 0.0
C908 C 0.90056 0.66796 0.92967 0.0
C909 C 0.88483 0.64238 1.00029 0.0
C910 C 0.88024 0.63342 0.96047 0.0
C911 C 0.8844 0.63701 0.88466 0.0
C912 C 0.89276 0.64974 0.84919 0.0
C913 C 0.88823 0.64601 0.92487 0.0
C914 C 0.9046 0.67157 0.85439 0.0
C915 C 0.90848 0.68057 0.89411 0.0
H916 H 0.35044 0.24585 0.01915 0.0
H917 H 0.28505 0.21206 0.98669 0.0
H918 H 0.29422 0.21555 0.91226 0.0
H919 H 0.32076 0.22968 0.85674 0.0
H920 H 0.3861 0.26427 0.88938 0.0
H921 H 0.37696 0.25888 0.96379 0.0
C922 C 0.33814 0.23909 0.99586 0.0
C923 C 0.31704 0.22872 1.00849 0.0
C924 C 0.34354 0.24138 0.95328 0.0
C925 C 0.30137 0.22008 0.97784 0.0
C926 C 0.30662 0.22213 0.93531 0.0
C927 C 0.33305 0.23593 0.8801 0.0
C928 C 0.35413 0.24742 0.8675 0.0
C929 C 0.32765 0.23296 0.92271 0.0
C930 C 0.3698 0.2554 0.8982 0.0
C931 C 0.36456 0.25234 0.94072 0.0
H932 H 0.72905 0.10304 0.88031 0.0
H933 H 0.76468 0.07623 0.83084 0.0
H934 H 0.77206 0.06923 0.90131 0.0
H935 H 0.76687 0.0688 0.97752 0.0
H936 H 0.73108 0.0954 0.02712 0.0
H937 H 0.72547 0.10435 0.95685 0.0
C938 C 0.73861 0.09589 0.88503 0.0
C939 C 0.74616 0.0901 0.85024 0.0
C940 C 0.74272 0.09168 0.92594 0.0
C941 C 0.75852 0.08078 0.85698 0.0
C942 C 0.76277 0.07671 0.89738 0.0
C943 C 0.75801 0.07671 0.97292 0.0
C944 C 0.74936 0.08129 1.00761 0.0
C945 C 0.7547 0.08179 0.93215 0.0
C946 C 0.7379 0.09158 1.00103 0.0
C947 C 0.73463 0.09673 0.96075 0.0
H948 H 0.97262 0.41141 0.67882 0.0
H949 H 0.03696 0.44136 0.71859 0.0
H950 H 0.02569 0.4354 0.79193 0.0
H951 H -0.00243 0.4208 0.84425 0.0
H952 H 0.93324 0.39029 0.80428 0.0
H953 H 0.94456 0.39741 0.73109 0.0
C954 C 0.98425 0.41676 0.70348 0.0
C955 C 0.00567 0.42685 0.69319 0.0
C956 C 0.97763 0.41311 0.74538 0.0
C957 C 0.02043 0.4336 0.7256 0.0
C958 C 0.01397 0.43015 0.7675 0.0
C959 C 0.98598 0.41576 0.81958 0.0
C960 C 0.96453 0.40499 0.82976 0.0
C961 C -0.00738 0.41979 0.77769 0.0
C962 C 0.94979 0.39858 0.79734 0.0
C963 C 0.95628 0.40264 0.75553 0.0
H964 H 0.55745 0.56853 0.8365 0.0
H965 H 0.59319 0.539 0.80378 0.0
H966 H 0.58802 0.54306 0.72935 0.0
H967 H 0.57517 0.55687 0.67411 0.0
H968 H 0.54045 0.58746 0.70693 0.0
H969 H 0.54331 0.58097 0.78118 0.0
C970 C 0.56399 0.5628 0.81312 0.0
C971 C 0.57577 0.55351 0.82567 0.0
C972 C 0.56119 0.56546 0.77056 0.0
C973 C 0.58409 0.54619 0.79497 0.0
C974 C 0.58117 0.54857 0.75245 0.0
C975 C 0.56804 0.56198 0.69744 0.0
C976 C 0.55764 0.57271 0.685 0.0
C977 C 0.57002 0.55846 0.73995 0.0
C978 C 0.54852 0.57919 0.71566 0.0
C979 C 0.55021 0.57553 0.75809 0.0
H980 H 0.41439 0.98377 0.83018 0.0
H981 H 0.44778 0.04824 0.79068 0.0
H982 H 0.4433 0.03706 0.71738 0.0
H983 H 0.42818 0.00908 0.66488 0.0
H984 H 0.39368 0.94464 0.70437 0.0
H985 H 0.40041 0.95575 0.77772 0.0
C986 C 0.4209 -0.00457 0.8056 0.0
C987 C 0.43142 0.01686 0.81591 0.0
C988 C 0.41795 0.98887 0.76366 0.0
C989 C 0.43966 0.03169 0.78362 0.0
C990 C 0.43704 0.02529 0.74174 0.0
C991 C 0.42225 -0.0026 0.68948 0.0
C992 C 0.41038 0.97601 0.67915 0.0
C993 C 0.42595 0.00393 0.73144 0.0
C994 C 0.40283 0.96116 0.71145 0.0
C995 C 0.40665 0.96752 0.75336 0.0
H996 H 0.56801 0.00843 0.18058 0.0
H997 H 0.53592 0.94394 0.22013 0.0
H998 H 0.54273 0.9551 0.29341 0.0
H999 H 0.55902 0.98303 0.34562 0.0
H1000 H 0.59185 0.04754 0.3063 0.0
H1001 H 0.58348 0.03646 0.2331 0.0
C1002 C 0.56233 -0.00323 0.20521 0.0
C1003 C 0.55144 0.97532 0.19488 0.0
C1004 C 0.56655 0.00331 0.24713 0.0
C1005 C 0.54428 0.96049 0.2272 0.0
C1006 C 0.54824 0.96688 0.26906 0.0
C1007 C 0.56431 -0.00527 0.32111 0.0
C1008 C 0.57614 0.01613 0.33142 0.0
C1009 C 0.55955 0.98823 0.2793 0.0
C1010 C 0.58278 0.03102 0.29923 0.0
C1011 C 0.57799 0.02466 0.25742 0.0
H1012 H 0.00247 0.57377 0.3367 0.0
H1013 H 0.93741 0.54138 0.30147 0.0
H1014 H 0.94728 0.54493 0.22753 0.0
H1015 H 0.97424 0.5586 0.17335 0.0
H1016 H 0.03936 0.5919 0.20801 0.0
H1017 H 0.02956 0.58651 0.28221 0.0
C1018 C 0.99041 0.56733 0.31288 0.0
C1019 C 0.96919 0.55733 0.32456 0.0
C1020 C -0.00378 0.56966 0.27053 0.0
C1021 C 0.95381 0.54912 0.29332 0.0
C1022 C 0.95946 0.55119 0.25108 0.0
C1023 C 0.98636 0.5646 0.19707 0.0
C1024 C 0.00755 0.57571 0.18517 0.0
C1025 C 0.9806 0.56164 0.23939 0.0
C1026 C 0.02298 0.58332 0.21634 0.0
C1027 C 0.01737 0.58027 0.2587 0.0
H1028 H 0.42471 0.41694 0.18096 0.0
H1029 H 0.38767 0.44472 0.21612 0.0
H1030 H 0.39256 0.43956 0.29022 0.0
H1031 H 0.4061 0.42579 0.34445 0.0
H1032 H 0.44267 0.39755 0.30882 0.0
H1033 H 0.43924 0.40434 0.23504 0.0
C1034 C 0.41777 0.42201 0.20478 0.0
C1035 C 0.40576 0.43117 0.19299 0.0
C1036 C 0.42052 0.41883 0.24708 0.0
C1037 C 0.39697 0.43766 0.22432 0.0
C1038 C 0.39973 0.43465 0.26664 0.0
C1039 C 0.41344 0.4212 0.32059 0.0
C1040 C 0.42461 0.41109 0.33214 0.0
C1041 C 0.41128 0.42505 0.27832 0.0
C1042 C 0.43402 0.40532 0.30081 0.0
C1043 C 0.43202 0.40918 0.25865 0.0
H1044 H 0.30055 0.16413 0.14257 0.0
H1045 H 0.35023 0.21396 0.21326 0.0
H1046 H 0.3641 0.19114 0.23134 0.0
H1047 H 0.36224 0.15719 0.22661 0.0
H1048 H 0.31251 0.10727 0.15623 0.0
H1049 H 0.29861 0.13008 0.13812 0.0
C1050 C 0.31434 0.16994 0.16213 0.0
C1051 C 0.32434 0.19064 0.17664 0.0
C1052 C 0.3223 0.15681 0.17214 0.0
C1053 C 0.34224 0.19803 0.20178 0.0
C1054 C 0.35022 0.18504 0.21203 0.0
C1055 C 0.34844 0.15135 0.20711 0.0
C1056 C 0.33845 0.13065 0.19263 0.0
C1057 C 0.34043 0.16445 0.19719 0.0
C1058 C 0.32049 0.1232 0.16765 0.0
C1059 C 0.3125 0.1362 0.15739 0.0
H1060 H 0.81642 0.12557 0.13625 0.0
H1061 H 0.76835 0.12149 0.21871 0.0
H1062 H 0.79062 0.15805 0.23866 0.0
H1063 H 0.82364 0.1912 0.23219 0.0
H1064 H 0.87161 0.19514 0.14957 0.0
H1065 H 0.84935 0.1586 0.12976 0.0
C1066 C 0.81088 0.13264 0.15881 0.0
C1067 C 0.79085 0.12087 0.17612 0.0
C1068 C 0.82364 0.15367 0.16976 0.0
C1069 C 0.78378 0.13025 0.20507 0.0
C1070 C 0.79646 0.15116 0.21637 0.0
C1071 C 0.82915 0.18408 0.20963 0.0
C1072 C 0.84917 0.19582 0.19224 0.0
C1073 C 0.81636 0.16304 0.19871 0.0
C1074 C 0.8562 0.1864 0.1633 0.0
C1075 C 0.84353 0.16551 0.15207 0.0
H1076 H 0.78939 0.66655 0.17557 0.0
H1077 H 0.77959 0.60981 0.23467 0.0
H1078 H 0.81612 0.62015 0.2228 0.0
H1079 H 0.8507 0.64524 0.19553 0.0
H1080 H 0.86046 0.70187 0.13601 0.0
H1081 H 0.82404 0.69176 0.14871 0.0
C1082 C 0.79523 0.65639 0.18562 0.0
C1083 C 0.78185 0.63742 0.20577 0.0
C1084 C 0.81623 0.66251 0.17904 0.0
C1085 C 0.78961 0.62447 0.21893 0.0
C1086 C 0.81049 0.6304 0.21231 0.0
C1087 C 0.8449 0.65546 0.18568 0.0
C1088 C 0.8582 0.67429 0.16501 0.0
C1089 C 0.82393 0.64942 0.19254 0.0
C1090 C 0.85048 0.68731 0.15211 0.0
C1091 C 0.82967 0.6815 0.15919 0.0
H1092 H 0.11524 0.31729 0.35029 0.0
H1093 H 0.16265 0.37606 0.29886 0.0
H1094 H 0.18889 0.36565 0.30918 0.0
H1095 H 0.19828 0.33992 0.33275 0.0
H1096 H 0.15097 0.28112 0.38421 0.0
H1097 H 0.12462 0.2914 0.37343 0.0
C1098 C 0.13134 0.32786 0.34157 0.0
C1099 C 0.13705 0.34743 0.32404 0.0
C1100 C 0.14627 0.3217 0.34722 0.0
C1101 C 0.15791 0.36092 0.31256 0.0
C1102 C 0.17289 0.35497 0.31832 0.0
C1103 C 0.18218 0.32929 0.34135 0.0
C1104 C 0.17653 0.30979 0.35915 0.0
C1105 C 0.16722 0.33537 0.33547 0.0
C1106 C 0.15565 0.29621 0.37034 0.0
C1107 C 0.14062 0.3021 0.36434 0.0
H1108 H 0.64554 0.85777 0.34225 0.0
H1109 H 0.70489 0.86913 0.39008 0.0
H1110 H 0.69522 0.83296 0.37521 0.0
H1111 H 0.66983 0.79816 0.34905 0.0
H1112 H 0.61045 0.78679 0.30139 0.0
H1113 H 0.62012 0.82295 0.31629 0.0
C1114 C 0.65642 0.85236 0.34915 0.0
C1115 C 0.67592 0.86608 0.36704 0.0
C1116 C 0.65067 0.83154 0.34098 0.0
C1117 C 0.6898 0.85885 0.37614 0.0
C1118 C 0.68426 0.83818 0.36781 0.0
C1119 C 0.65895 0.80356 0.3422 0.0
C1120 C 0.63944 0.78985 0.3243 0.0
C1121 C 0.66469 0.82437 0.35045 0.0
C1122 C 0.62554 0.79707 0.31532 0.0
C1123 C 0.63109 0.81774 0.32367 0.0
H1124 H 0.11776 0.78477 0.34281 0.0
H1125 H 0.10825 0.83372 0.39216 0.0
H1126 H 0.14506 0.85921 0.38085 0.0
H1127 H 0.17992 0.86741 0.35797 0.0
H1128 H 0.18951 0.81849 0.30875 0.0
H1129 H 0.15263 0.79303 0.31949 0.0
C1130 C 0.12372 0.80105 0.35076 0.0
C1131 C 0.11035 0.8074 0.36815 0.0
C1132 C 0.1449 0.81553 0.34467 0.0
C1133 C 0.11827 0.82849 0.3786 0.0
C1134 C 0.1393 0.84304 0.37231 0.0
C1135 C 0.17397 0.85115 0.34985 0.0
C1136 C 0.18739 0.84479 0.33281 0.0
C1137 C 0.15277 0.83669 0.3557 0.0
C1138 C 0.17946 0.82372 0.32209 0.0
C1139 C 0.15838 0.80919 0.32806 0.0
H1140 H 0.61869 0.82502 0.80176 0.0
H1141 H 0.66163 0.87257 0.88669 0.0
H1142 H 0.67722 0.85122 0.90383 0.0
H1143 H 0.67954 0.81975 0.89288 0.0
H1144 H 0.63671 0.77192 0.80841 0.0
H1145 H 0.62027 0.79278 0.79257 0.0
C1146 C 0.6313 0.83057 0.82437 0.0
C1147 C 0.63902 0.85031 0.84291 0.0
C1148 C 0.64037 0.81832 0.83373 0.0
C1149 C 0.65542 0.8574 0.872 0.0
C1150 C 0.66441 0.84526 0.88169 0.0
C1151 C 0.66666 0.81393 0.87085 0.0
C1152 C 0.65944 0.79446 0.85153 0.0
C1153 C 0.6572 0.82585 0.86231 0.0
C1154 C 0.64259 0.78695 0.82349 0.0
C1155 C 0.63316 0.79883 0.81453 0.0
H1156 H 0.11477 0.79938 0.85118 0.0
H1157 H 0.16186 0.78686 0.80277 0.0
H1158 H 0.18876 0.82304 0.8161 0.0
H1159 H 0.19879 0.8581 0.84157 0.0
H1160 H 0.15163 0.87059 0.88982 0.0
H1161 H 0.12473 0.83449 0.87599 0.0
C1162 C 0.13094 0.80455 0.84376 0.0
C1163 C 0.13638 0.79051 0.82623 0.0
C1164 C 0.14623 0.82535 0.85111 0.0
C1165 C 0.15733 0.79741 0.81644 0.0
C1166 C 0.17269 0.81808 0.82392 0.0
C1167 C 0.1826 0.85295 0.84879 0.0
C1168 C 0.17717 0.86695 0.86659 0.0
C1169 C 0.16729 0.83218 0.84112 0.0
C1170 C 0.15617 0.86008 0.87599 0.0
C1171 C 0.14081 0.83945 0.86824 0.0
H1172 H 0.12905 0.30335 0.87976 0.0
H1173 H 0.13042 0.35384 0.80917 0.0
H1174 H 0.16637 0.36582 0.78829 0.0
H1175 H 0.19752 0.36239 0.79126 0.0
H1176 H 0.19638 0.31198 0.8617 0.0
H1177 H 0.16015 0.29955 0.8817 0.0
C1178 C 0.13719 0.3169 0.85961 0.0
C1179 C 0.12716 0.32772 0.84603 0.0
C1180 C 0.15788 0.32378 0.84797 0.0
C1181 C 0.13785 0.34526 0.82001 0.0
C1182 C 0.15841 0.35215 0.80814 0.0
C1183 C 0.18936 0.34871 0.81106 0.0
C1184 C 0.19957 0.33816 0.82517 0.0
C1185 C 0.1686 0.34162 0.82221 0.0
C1186 C 0.18881 0.32039 0.85057 0.0
C1187 C 0.16812 0.31326 0.86195 0.0
H1188 H 0.86663 0.67105 0.66173 0.0
H1189 H 0.81807 0.61434 0.71782 0.0
H1190 H 0.7929 0.62607 0.70648 0.0
H1191 H 0.78497 0.65275 0.68232 0.0
H1192 H 0.83348 0.70959 0.62656 0.0
H1193 H 0.85854 0.69758 0.63655 0.0
C1194 C 0.85049 0.66118 0.67108 0.0
C1195 C 0.84417 0.64186 0.69048 0.0
C1196 C 0.83621 0.66814 0.66503 0.0
C1197 C 0.82327 0.62927 0.70274 0.0
C1198 C 0.80891 0.636 0.69644 0.0
C1199 C 0.80105 0.66256 0.67255 0.0
C1200 C 0.80743 0.68206 0.65398 0.0
C1201 C 0.81527 0.65549 0.67804 0.0
C1202 C 0.82825 0.69454 0.64113 0.0
C1203 C 0.84255 0.68766 0.64668 0.0
H1204 H 0.32337 0.19513 0.67522 0.0
H1205 H 0.38198 0.20479 0.72384 0.0
H1206 H 0.37129 0.1683 0.70914 0.0
H1207 H 0.34493 0.13357 0.684 0.0
H1208 H 0.28612 0.124 0.63661 0.0
H1209 H 0.29722 0.16064 0.6497 0.0
C1210 C 0.33389 0.18931 0.6823 0.0
C1211 C 0.35344 0.20259 0.70046 0.0
C1212 C 0.32753 0.16834 0.67439 0.0
C1213 C 0.36686 0.19482 0.70973 0.0
C1214 C 0.36073 0.17398 0.70149 0.0
C1215 C 0.33453 0.1395 0.67666 0.0
C1216 C 0.31472 0.12612 0.65953 0.0
C1217 C 0.34102 0.16056 0.68417 0.0
C1218 C 0.30142 0.134 0.64999 0.0
C1219 C 0.30778 0.15494 0.65734 0.0
H1220 H 0.86096 0.16303 0.6386 0.0
H1221 H 0.86252 0.21338 0.70986 0.0
H1222 H 0.82565 0.19133 0.72734 0.0
H1223 H 0.79299 0.15791 0.72179 0.0
H1224 H 0.79134 0.10764 0.65007 0.0
H1225 H 0.82827 0.12961 0.63297 0.0
C1226 C 0.85326 0.16911 0.6582 0.0
C1227 C 0.86441 0.18973 0.67306 0.0
C1228 C 0.83205 0.15646 0.66769 0.0
C1229 C 0.85423 0.1975 0.69814 0.0
C1230 C 0.83316 0.18495 0.70803 0.0
C1231 C 0.80069 0.15181 0.70224 0.0
C1232 C 0.78949 0.13124 0.68712 0.0
C1233 C 0.8219 0.16445 0.69278 0.0
C1234 C 0.79966 0.12348 0.66199 0.0
C1235 C 0.82076 0.13599 0.65231 0.0
H1236 H 0.97637 0.4533 0.50842 0.0
H1237 H 0.03402 0.50162 0.56194 0.0
H1238 H 0.0234 0.52752 0.54803 0.0
H1239 H -0.00207 0.53635 0.51977 0.0
H1240 H 0.94041 0.4879 0.466 0.0
H1241 H 0.95072 0.46196 0.48144 0.0
C1242 C 0.98665 0.46951 0.51693 0.0
C1243 C 0.00598 0.47561 0.53593 0.0
C1244 C 0.98041 0.4842 0.50909 0.0
C1245 C 0.01908 0.49661 0.54709 0.0
C1246 C 0.013 0.51139 0.53926 0.0
C1247 C 0.98758 0.52008 0.51176 0.0
C1248 C 0.96845 0.514 0.49183 0.0
C1249 C -0.0063 0.50534 0.52026 0.0
C1250 C 0.95522 0.49292 0.48142 0.0
C1251 C 0.96112 0.47812 0.49008 0.0
H1252 H 0.4959 0.52712 0.55206 0.0
H1253 H 0.54404 0.53033 0.47093 0.0
H1254 H 0.52183 0.49358 0.45249 0.0
H1255 H 0.4891 0.46045 0.46052 0.0
H1256 H 0.44097 0.45711 0.54183 0.0
H1257 H 0.46296 0.49402 0.55952 0.0
C1258 C 0.50144 0.51982 0.53004 0.0
C1259 C 0.52152 0.53139 0.51277 0.0
C1260 C 0.48873 0.49865 0.52004 0.0
C1261 C 0.52859 0.52172 0.48455 0.0
C1262 C 0.51596 0.50071 0.47413 0.0
C1263 C 0.48347 0.46778 0.48231 0.0
C1264 C 0.46352 0.4561 0.50003 0.0
C1265 C 0.49609 0.48899 0.492 0.0
C1266 C 0.45634 0.46579 0.52793 0.0
C1267 C 0.46886 0.48689 0.53793 0.0
H1268 H 0.52319 0.98466 0.51147 0.0
H1269 H 0.53416 0.04457 0.46762 0.0
H1270 H 0.49734 0.03347 0.47785 0.0
H1271 H 0.46213 0.00672 0.4988 0.0
H1272 H 0.4511 0.94677 0.54259 0.0
H1273 H 0.48792 0.95785 0.5323 0.0
C1274 C 0.51754 -0.00467 0.50444 0.0
C1275 C 0.53133 0.01541 0.489 0.0
C1276 C 0.49637 0.98878 0.50994 0.0
C1277 C 0.52381 0.02904 0.47969 0.0
C1278 C 0.50278 0.02269 0.48537 0.0
C1279 C 0.46776 -0.00398 0.50581 0.0
C1280 C 0.45396 0.97595 0.52127 0.0
C1281 C 0.48892 0.00256 0.50025 0.0
C1282 C 0.46145 0.9623 0.5305 0.0
C1283 C 0.48249 0.96864 0.52479 0.0
H1284 H 0.44668 0.98552 1.0066 0.0
H1285 H 0.49769 0.04319 0.95897 0.0
H1286 H 0.52217 0.03119 0.97562 0.0
H1287 H 0.52899 0.00433 1.00304 0.0
H1288 H 0.47828 0.9468 0.05172 0.0
H1289 H 0.45362 0.95866 0.03483 0.0
C1290 C 0.46317 -0.0045 1.0001 0.0
C1291 C 0.4704 0.01521 0.98167 0.0
C1292 C 0.47712 0.98846 1.00953 0.0
C1293 C 0.49177 0.02797 0.97327 0.0
C1294 C 0.50576 0.0211 0.98262 0.0
C1295 C 0.51252 -0.00568 1.00971 0.0
C1296 C 0.5054 0.97469 0.02835 0.0
C1297 C 0.49857 0.00134 1.00051 0.0
C1298 C 0.48408 0.96195 0.0372 0.0
C1299 C 0.47001 0.96875 0.02769 0.0
H1300 H 0.97278 0.52038 1.00135 0.0
H1301 H 0.03104 0.52947 0.05093 0.0
H1302 H 0.01926 0.49251 0.04052 0.0
H1303 H -0.00745 0.45774 0.01737 0.0
H1304 H 0.93441 0.44848 0.96684 0.0
H1305 H 0.94592 0.48542 0.97814 0.0
C1306 C 0.98293 0.51428 1.00963 0.0
C1307 C 0.00276 0.52762 0.02672 0.0
C1308 C 0.97602 0.493 1.00382 0.0
C1309 C 0.01572 0.51951 0.03757 0.0
C1310 C 0.00898 0.49838 0.03179 0.0
C1311 C 0.98231 0.46376 1.00915 0.0
C1312 C 0.96264 0.45044 0.99149 0.0
C1313 C 0.98914 0.48499 0.01511 0.0
C1314 C 0.94961 0.45846 0.98065 0.0
C1315 C 0.95621 0.47957 0.98693 0.0
H1316 H 0.46139 0.45221 1.0082 0.0
H1317 H 0.4536 0.50212 0.05825 0.0
H1318 H 0.49041 0.52703 0.04511 0.0
H1319 H 0.52456 0.5346 0.01887 0.0
H1320 H 0.53234 0.4848 0.96819 0.0
H1321 H 0.49569 0.45972 0.98266 0.0
C1322 C 0.46774 0.46855 0.01608 0.0
C1323 C 0.45483 0.47537 0.03396 0.0
C1324 C 0.48888 0.48272 1.00867 0.0
C1325 C 0.46325 0.49654 0.04428 0.0
C1326 C 0.48428 0.51076 0.03691 0.0
C1327 C 0.51828 0.51823 1.0113 0.0
C1328 C 0.53109 0.51152 0.99259 0.0
C1329 C 0.49721 0.50401 0.01917 0.0
C1330 C 0.52276 0.4903 0.98271 0.0
C1331 C 0.50181 0.47599 0.99082 0.0
H1332 H 0.43941 0.06466 0.07707 0.0
H1333 H 0.42001 0.09063 0.97765 0.0
H1334 H 0.40776 0.10658 0.02922 0.0
H1335 H 0.39739 0.108 0.10209 0.0
H1336 H 0.41744 0.08258 0.20148 0.0
H1337 H 0.43498 0.07188 0.15056 0.0
C1338 C 0.43302 0.0743 0.06676 0.0
C1339 C 0.43038 0.07629 0.02365 0.0
C1340 C 0.42593 0.08331 0.0966 0.0
C1341 C 0.42225 0.08893 1.01063 0.0
C1342 C 0.41506 0.09788 0.04014 0.0
C1343 C 0.40609 0.10062 0.11267 0.0
C1344 C 0.40591 0.09584 0.15543 0.0
C1345 C 0.41605 0.09443 0.08314 0.0
C1346 C 0.41737 0.08645 0.1688 0.0
C1347 C 0.42724 0.08016 0.13961 0.0
H1348 H 0.87529 0.27956 0.10488 0.0
H1349 H 0.89561 0.32171 0.21008 0.0
H1350 H 0.90564 0.3513 0.16283 0.0
H1351 H 0.9135 0.36553 0.091 0.0
H1352 H 0.89228 0.32328 0.98591 0.0
H1353 H 0.87736 0.2934 0.03361 0.0
C1354 C 0.88144 0.29518 0.1175 0.0
C1355 C 0.88493 0.29848 0.16088 0.0
C1356 C 0.88717 0.31212 0.09009 0.0
C1357 C 0.89274 0.31875 0.17685 0.0
C1358 C 0.89864 0.3357 0.14978 0.0
C1359 C 0.9051 0.34977 0.07858 0.0
C1360 C 0.90418 0.34663 0.03496 0.0
C1361 C 0.89663 0.33264 0.10626 0.0
C1362 C 0.89315 0.32614 0.0193 0.0
C1363 C 0.88479 0.30903 0.04661 0.0
H1364 H 0.61427 0.54379 0.08652 0.0
H1365 H 0.65775 0.56582 0.9836 0.0
H1366 H 0.68694 0.57778 0.03263 0.0
H1367 H 0.70006 0.58695 0.10498 0.0
H1368 H 0.65655 0.56433 0.20787 0.0
H1369 H 0.62741 0.54724 0.15874 0.0
C1370 C 0.63012 0.55073 0.07482 0.0
C1371 C 0.63389 0.55418 0.03157 0.0
C1372 C 0.64681 0.55763 0.10324 0.0
C1373 C 0.65445 0.563 0.01674 0.0
C1374 C 0.67115 0.56999 0.04481 0.0
C1375 C 0.68422 0.57779 0.11665 0.0
C1376 C 0.68043 0.57711 0.15996 0.0
C1377 C 0.66754 0.56813 0.08817 0.0
C1378 C 0.65988 0.56507 0.17471 0.0
C1379 C 0.6432 0.55545 0.14658 0.0
H1380 H 0.08535 0.4196 0.34564 0.0
H1381 H 0.10834 0.39203 0.43457 0.0
H1382 H 0.09884 0.40721 0.49244 0.0
H1383 H 0.0786 0.42319 0.51794 0.0
H1384 H 0.05299 0.44814 0.42884 0.0
H1385 H 0.06909 0.43955 0.37133 0.0
C1386 C 0.08889 0.41752 0.37763 0.0
C1387 C 0.09749 0.40469 0.3858 0.0
C1388 C 0.08258 0.4256 0.41095 0.0
C1389 C 0.10168 0.40183 0.42748 0.0
C1390 C 0.09614 0.4104 0.46064 0.0
C1391 C 0.07711 0.42733 0.48605 0.0
C1392 C 0.06456 0.43621 0.47767 0.0
C1393 C 0.08577 0.42158 0.45286 0.0
C1394 C 0.06252 0.44122 0.4361 0.0
C1395 C 0.07165 0.43621 0.40312 0.0
H1396 H 0.55061 0.61735 0.4282 0.0
H1397 H 0.57131 0.65789 0.53591 0.0
H1398 H 0.58332 0.68842 0.49041 0.0
H1399 H 0.59252 0.70367 0.41947 0.0
H1400 H 0.57058 0.66306 0.31189 0.0
H1401 H 0.55416 0.63249 0.35774 0.0
C1402 C 0.55728 0.63285 0.44171 0.0
C1403 C 0.56028 0.6354 0.48529 0.0
C1404 C 0.56411 0.65032 0.41533 0.0
C1405 C 0.56878 0.65552 0.50249 0.0
C1406 C 0.57581 0.67299 0.47643 0.0
C1407 C 0.58369 0.68814 0.40613 0.0
C1408 C 0.58296 0.6856 0.36237 0.0
C1409 C 0.57425 0.67062 0.43274 0.0
C1410 C 0.57134 0.66543 0.34545 0.0
C1411 C 0.5621 0.64792 0.37168 0.0
H1412 H 0.32774 0.90233 0.51216 0.0
H1413 H 0.37554 0.92812 0.41741 0.0
H1414 H 0.34926 0.91156 0.36265 0.0
H1415 H 0.31237 0.89505 0.34134 0.0
H1416 H 0.26454 0.87187 0.43606 0.0
H1417 H 0.29087 0.88159 0.49077 0.0
C1418 C 0.33241 0.90375 0.47961 0.0
C1419 C 0.35353 0.91652 0.46885 0.0
C1420 C 0.31709 0.89482 0.44805 0.0
C1421 C 0.35935 0.91845 0.42647 0.0
C1422 C 0.34431 0.90905 0.39508 0.0
C1423 C 0.30771 0.89149 0.37385 0.0
C1424 C 0.28657 0.88281 0.38466 0.0
C1425 C 0.32305 0.89795 0.40537 0.0
C1426 C 0.28076 0.87858 0.42699 0.0
C1427 C 0.29582 0.88427 0.45835 0.0
H1428 H 0.58151 0.87894 0.92718 0.0
H1429 H 0.5623 0.90044 0.81968 0.0
H1430 H 0.54427 0.91286 0.86535 0.0
H1431 H 0.53892 0.92255 0.93625 0.0
H1432 H 0.55754 0.90045 0.04372 0.0
H1433 H 0.57049 0.88299 0.99775 0.0
C1434 C 0.57291 0.88586 0.91372 0.0
C1435 C 0.57345 0.88901 0.87015 0.0
C1436 C 0.56266 0.89305 0.94023 0.0
C1437 C 0.56211 0.89782 0.85307 0.0
C1438 C 0.55194 0.90509 0.87924 0.0
C1439 C 0.54532 0.91344 0.94959 0.0
C1440 C 0.54751 0.913 0.99331 0.0
C1441 C 0.55283 0.90353 0.92292 0.0
C1442 C 0.55566 0.90102 1.0102 0.0
C1443 C 0.56324 0.89118 0.98389 0.0
H1444 H 0.07714 0.65192 1.00884 0.0
H1445 H 0.04866 0.60291 0.91686 0.0
H1446 H 0.06408 0.62852 0.86045 0.0
H1447 H 0.08067 0.66523 0.83751 0.0
H1448 H 0.10595 0.71425 0.92992 0.0
H1449 H 0.0972 0.68851 0.98559 0.0
C1450 C 0.0749 0.64683 0.97646 0.0
C1451 C 0.06181 0.62558 0.96698 0.0
C1452 C 0.08303 0.66177 0.94413 0.0
C1453 C 0.05869 0.61921 0.92489 0.0
C1454 C 0.06741 0.63387 0.8926 0.0
C1455 C 0.08482 0.67026 0.86971 0.0
C1456 C 0.0939 0.69157 0.87965 0.0
C1457 C 0.07888 0.65527 0.90181 0.0
C1458 C 0.09889 0.6979 0.92156 0.0
C1459 C 0.0938 0.68318 0.95344 0.0
H1460 H 0.32207 0.41783 0.83858 0.0
H1461 H 0.27069 0.38887 0.92519 0.0
H1462 H 0.29441 0.40571 0.98394 0.0
H1463 H 0.33034 0.42358 1.01131 0.0
H1464 H 0.38195 0.4495 0.92493 0.0
H1465 H 0.35782 0.43943 0.86585 0.0
C1466 C 0.31604 0.41579 0.87021 0.0
C1467 C 0.29469 0.40214 0.87758 0.0
C1468 C 0.32994 0.42481 0.9041 0.0
C1469 C 0.28709 0.39931 0.91879 0.0
C1470 C 0.30067 0.40885 0.95244 0.0
C1471 C 0.33627 0.42764 0.97962 0.0
C1472 C 0.35787 0.43727 0.97246 0.0
C1473 C 0.32224 0.42092 0.94564 0.0
C1474 C 0.36536 0.44209 0.93118 0.0
C1475 C 0.35156 0.43621 0.89735 0.0
H1476 H 0.87435 0.58951 0.59584 0.0
H1477 H 0.89423 0.56729 0.70114 0.0
H1478 H 0.90668 0.54993 0.65364 0.0
H1479 H 0.91728 0.54644 0.58223 0.0
H1480 H 0.8968 0.56811 0.47695 0.0
H1481 H 0.8789 0.58001 0.52425 0.0
C1482 C 0.88085 0.58034 0.60836 0.0
C1483 C 0.8836 0.57986 0.65187 0.0
C1484 C 0.88812 0.57055 0.58083 0.0
C1485 C 0.89189 0.56783 0.66778 0.0
C1486 C 0.89922 0.55809 0.64059 0.0
C1487 C 0.90842 0.55327 0.56964 0.0
C1488 C 0.90859 0.55668 0.52624 0.0
C1489 C 0.89823 0.56014 0.59706 0.0
C1490 C 0.89691 0.56533 0.51022 0.0
C1491 C 0.88681 0.57229 0.5373 0.0
H1492 H 0.40311 0.28813 0.60683 0.0
H1493 H 0.42104 0.33035 0.7117 0.0
H1494 H 0.43622 0.36023 0.664 0.0
H1495 H 0.43931 0.37389 0.59226 0.0
H1496 H 0.4223 0.33179 0.48738 0.0
H1497 H 0.4122 0.30239 0.53515 0.0
C1498 C 0.41084 0.3039 0.61924 0.0
C1499 C 0.41074 0.30702 0.66271 0.0
C1500 C 0.4195 0.32102 0.59157 0.0
C1501 C 0.42094 0.32752 0.67841 0.0
C1502 C 0.42946 0.34462 0.6511 0.0
C1503 C 0.43391 0.35835 0.57988 0.0
C1504 C 0.43133 0.35497 0.53637 0.0
C1505 C 0.4281 0.34151 0.60758 0.0
C1506 C 0.42447 0.33481 0.5207 0.0
C1507 C 0.41852 0.31796 0.54806 0.0
H1508 H 0.6559 0.08702 0.50756 0.0
H1509 H 0.60571 0.06102 0.59721 0.0
H1510 H 0.63073 0.07571 0.65473 0.0
H1511 H 0.66694 0.09044 0.67963 0.0
H1512 H 0.71696 0.11317 0.58977 0.0
H1513 H 0.69225 0.10576 0.53263 0.0
C1514 C 0.65046 0.0852 0.53963 0.0
C1515 C 0.62901 0.07295 0.54814 0.0
C1516 C 0.66503 0.09291 0.5727 0.0
C1517 C 0.62217 0.07038 0.5899 0.0
C1518 C 0.63648 0.07868 0.62284 0.0
C1519 C 0.67246 0.09444 0.64767 0.0
C1520 C 0.69372 0.10237 0.63889 0.0
C1521 C 0.65799 0.0892 0.61472 0.0
C1522 C 0.70064 0.10708 0.59724 0.0
C1523 C 0.68649 0.10271 0.56452 0.0
H1524 H 0.75423 0.75448 0.67017 0.0
H1525 H 0.78223 0.73333 0.76198 0.0
H1526 H 0.77084 0.74773 0.81819 0.0
H1527 H 0.74732 0.76028 0.84164 0.0
H1528 H 0.71645 0.77813 0.74975 0.0
H1529 H 0.73471 0.7715 0.69347 0.0
C1530 C 0.75848 0.75372 0.70237 0.0
C1531 C 0.76902 0.74284 0.71196 0.0
C1532 C 0.75099 0.76116 0.7347 0.0
C1533 C 0.77411 0.74163 0.75387 0.0
C1534 C 0.76746 0.74973 0.78606 0.0
C1535 C 0.74516 0.76337 0.80937 0.0
C1536 C 0.73051 0.76959 0.79982 0.0
C1537 C 0.75504 0.75864 0.77699 0.0
C1538 C 0.7276 0.77325 0.75784 0.0
C1539 C 0.73796 0.76936 0.72561 0.0
H1540 H 0.24019 0.00042 0.67935 0.0
H1541 H 0.26684 0.05144 0.76727 0.0
H1542 H 0.25058 0.0271 0.82539 0.0
H1543 H 0.23364 0.99091 0.85197 0.0
H1544 H 0.21 0.93992 0.76413 0.0
H1545 H 0.21974 0.96435 0.70567 0.0
C1546 C 0.24188 0.00621 0.71112 0.0
C1547 C 0.25472 0.02767 0.719 0.0
C1548 C 0.23317 0.992 0.74465 0.0
C1549 C 0.25706 0.03495 0.76042 0.0
C1550 C 0.24784 0.02103 0.79374 0.0
C1551 C 0.23003 0.98518 0.82007 0.0
C1552 C 0.22109 0.96367 0.81233 0.0
C1553 C 0.23655 -0.00056 0.78641 0.0
C1554 C 0.21687 0.95644 0.77081 0.0
C1555 C 0.22255 0.97041 0.73733 0.0
H1556 H 0.98929 0.23819 0.68 0.0
H1557 H 0.94079 0.21623 0.77315 0.0
H1558 H 0.9669 0.22856 0.82895 0.0
H1559 H 0.00357 0.25096 0.85075 0.0
H1560 H 0.0518 0.27603 0.75688 0.0
H1561 H 0.02607 0.257 0.70228 0.0
C1562 C 0.98447 0.23547 0.71252 0.0
C1563 C 0.96317 0.22628 0.72246 0.0
C1564 C -0.00036 0.24353 0.74447 0.0
C1565 C 0.95712 0.22325 0.76475 0.0
C1566 C 0.97206 0.23043 0.79669 0.0
C1567 C 0.00847 0.25168 0.81851 0.0
C1568 C 0.02953 0.26485 0.80783 0.0
C1569 C -0.0066 0.24139 0.78693 0.0
C1570 C 0.03565 0.26598 0.76582 0.0
C1571 C 0.02092 0.25518 0.73454 0.0
H1572 H 0.24538 0.2369 0.17602 0.0
H1573 H 0.27067 0.21457 0.27133 0.0
H1574 H 0.25255 0.22272 0.32549 0.0
H1575 H 0.23426 0.2414 0.34655 0.0
H1576 H 0.21179 0.26671 0.25157 0.0
H1577 H 0.22361 0.25198 0.1968 0.0
C1578 C 0.24639 0.23326 0.20853 0.0
C1579 C 0.25936 0.22519 0.21967 0.0
C1580 C 0.2366 0.23881 0.23976 0.0
C1581 C 0.2608 0.22084 0.262 0.0
C1582 C 0.25052 0.22559 0.29303 0.0
C1583 C 0.2314 0.24312 0.31389 0.0
C1584 C 0.2222 0.25515 0.30312 0.0
C1585 C 0.23905 0.23535 0.28246 0.0
C1586 C 0.21888 0.25754 0.26063 0.0
C1587 C 0.22574 0.24922 0.22927 0.0
H1588 H 0.76585 0.03773 0.26139 0.0
H1589 H 0.74632 -0.00344 0.15469 0.0
H1590 H 0.73445 0.96637 0.20111 0.0
H1591 H 0.7246 0.95152 0.27232 0.0
H1592 H 0.74517 0.99279 0.37894 0.0
H1593 H 0.76194 0.02308 0.33242 0.0
C1594 C 0.75955 0.02218 0.2483 0.0
C1595 C 0.7568 0.01935 0.2047 0.0
C1596 C 0.7527 0.0049 0.27524 0.0
C1597 C 0.74871 -0.00083 0.1881 0.0
C1598 C 0.74171 0.98187 0.21469 0.0
C1599 C 0.73322 0.96714 0.28535 0.0
C1600 C 0.73344 0.96993 0.329 0.0
C1601 C 0.74287 0.9845 0.25835 0.0
C1602 C 0.7448 0.99022 0.3455 0.0
C1603 C 0.75426 0.00756 0.31886 0.0
H1604 H 0.02712 0.77313 0.26815 0.0
H1605 H 0.98489 0.75506 0.37292 0.0
H1606 H 0.9551 0.74048 0.32509 0.0
H1607 H 0.94119 0.7276 0.25443 0.0
H1608 H 0.98333 0.7462 0.14947 0.0
H1609 H 0.01302 0.76613 0.19624 0.0
C1610 C 0.01141 0.76654 0.28041 0.0
C1611 C 0.00819 0.76493 0.32401 0.0
C1612 C -0.00566 0.75803 0.25269 0.0
C1613 C 0.98779 0.75652 0.33952 0.0
C1614 C 0.97072 0.74798 0.31217 0.0
C1615 C 0.95684 0.73648 0.24171 0.0
C1616 C 0.96013 0.73523 0.19869 0.0
C1617 C 0.97381 0.74784 0.26883 0.0
C1618 C 0.98041 0.74694 0.18247 0.0
C1619 C -0.00259 0.7582 0.20927 0.0
loop_
_geom_bond_atom_site_label_1
_geom_bond_atom_site_label_2
_geom_bond_distance
_geom_bond_site_symmetry_2
_ccdc_geom_bond_type
In0 O1 2.294 . S
In0 O2 2.326 . S
In0 O6 2.266 . S
In0 O7 2.326 . S
In0 O8 2.266 . S
In0 O9 2.326 . S
In0 O11 2.294 . S
In0 O12 2.326 . S
O1 In0 2.294 . S
O1 C10 1.240 . S
O2 In0 2.326 . S
O2 C10 1.252 . S
C3 O6 1.252 . S
C3 O7 1.260 . S
C4 O11 1.240 . S
C4 O12 1.252 . S
C5 O8 1.252 . S
C5 O9 1.260 . S
O6 In0 2.266 . S
O6 C3 1.252 . S
O7 In0 2.326 . S
O7 C3 1.260 . S
O8 In0 2.266 . S
O8 C5 1.252 . S
O9 In0 2.326 . S
O9 C5 1.260 . S
C10 O1 1.240 . S
C10 O2 1.252 . S
O11 In0 2.294 . S
O11 C4 1.240 . S
O12 In0 2.326 . S
O12 C4 1.252 . S
In13 O14 2.294 . S
In13 O15 2.326 . S
In13 O19 2.266 . S
In13 O20 2.326 . S
In13 O21 2.266 . S
In13 O22 2.326 . S
In13 O24 2.294 . S
In13 O25 2.326 . S
O14 In13 2.294 . S
O14 C23 1.240 . S
O15 In13 2.326 . S
O15 C23 1.252 . S
C16 O19 1.252 . S
C16 O20 1.260 . S
C17 O24 1.240 . S
C17 O25 1.252 . S
C18 O21 1.252 . S
C18 O22 1.260 . S
O19 In13 2.266 . S
O19 C16 1.252 . S
O20 In13 2.326 . S
O20 C16 1.260 . S
O21 In13 2.266 . S
O21 C18 1.252 . S
O22 In13 2.326 . S
O22 C18 1.260 . S
C23 O14 1.240 . S
C23 O15 1.252 . S
O24 In13 2.294 . S
O24 C17 1.240 . S
O25 In13 2.326 . S
O25 C17 1.252 . S
In26 O27 2.294 . S
In26 O28 2.326 . S
In26 O32 2.266 . S
In26 O33 2.326 . S
In26 O34 2.266 . S
In26 O35 2.326 . S
In26 O37 2.294 . S
In26 O38 2.326 . S
O27 In26 2.294 . S
O27 C36 1.240 . S
O28 In26 2.326 . S
O28 C36 1.252 . S
C29 O32 1.252 . S
C29 O33 1.260 . S
C30 O37 1.240 . S
C30 O38 1.252 . S
C31 O34 1.252 . S
C31 O35 1.260 . S
O32 In26 2.266 . S
O32 C29 1.252 . S
O33 In26 2.326 . S
O33 C29 1.260 . S
O34 In26 2.266 . S
O34 C31 1.252 . S
O35 In26 2.326 . S
O35 C31 1.260 . S
C36 O27 1.240 . S
C36 O28 1.252 . S
O37 In26 2.294 . S
O37 C30 1.240 . S
O38 In26 2.326 . S
O38 C30 1.252 . S
In39 O40 2.294 . S
In39 O41 2.326 . S
In39 O45 2.266 . S
In39 O46 2.326 . S
In39 O47 2.266 . S
In39 O48 2.326 . S
In39 O50 2.294 . S
In39 O51 2.326 . S
O40 In39 2.294 . S
O40 C49 1.240 . S
O41 In39 2.326 . S
O41 C49 1.252 . S
C42 O45 1.252 . S
C42 O46 1.260 . S
C43 O50 1.240 . S
C43 O51 1.252 . S
C44 O47 1.252 . S
C44 O48 1.260 . S
O45 In39 2.266 . S
O45 C42 1.252 . S
O46 In39 2.326 . S
O46 C42 1.260 . S
O47 In39 2.266 . S
O47 C44 1.252 . S
O48 In39 2.326 . S
O48 C44 1.260 . S
C49 O40 1.240 . S
C49 O41 1.252 . S
O50 In39 2.294 . S
O50 C43 1.240 . S
O51 In39 2.326 . S
O51 C43 1.252 . S
In52 O53 2.294 . S
In52 O54 2.326 . S
In52 O58 2.266 . S
In52 O59 2.326 . S
In52 O60 2.266 . S
In52 O61 2.326 . S
In52 O63 2.294 . S
In52 O64 2.326 . S
O53 In52 2.294 . S
O53 C62 1.240 . S
O54 In52 2.326 . S
O54 C62 1.252 . S
C55 O58 1.252 . S
C55 O59 1.260 . S
C56 O63 1.240 . S
C56 O64 1.252 . S
C57 O60 1.252 . S
C57 O61 1.260 . S
O58 In52 2.266 . S
O58 C55 1.252 . S
O59 In52 2.326 . S
O59 C55 1.260 . S
O60 In52 2.266 . S
O60 C57 1.252 . S
O61 In52 2.326 . S
O61 C57 1.260 . S
C62 O53 1.240 . S
C62 O54 1.252 . S
O63 In52 2.294 . S
O63 C56 1.240 . S
O64 In52 2.326 . S
O64 C56 1.252 . S
In65 O66 2.294 . S
In65 O67 2.326 . S
In65 O71 2.266 . S
In65 O72 2.326 . S
In65 O73 2.266 . S
In65 O74 2.326 . S
In65 O76 2.294 . S
In65 O77 2.326 . S
O66 In65 2.294 . S
O66 C75 1.240 . S
O67 In65 2.326 . S
O67 C75 1.252 . S
C68 O71 1.252 . S
C68 O72 1.260 . S
C69 O76 1.240 . S
C69 O77 1.252 . S
C70 O73 1.252 . S
C70 O74 1.260 . S
O71 In65 2.266 . S
O71 C68 1.252 . S
O72 In65 2.326 . S
O72 C68 1.260 . S
O73 In65 2.266 . S
O73 C70 1.252 . S
O74 In65 2.326 . S
O74 C70 1.260 . S
C75 O66 1.240 . S
C75 O67 1.252 . S
O76 In65 2.294 . S
O76 C69 1.240 . S
O77 In65 2.326 . S
O77 C69 1.252 . S
In78 O79 2.294 . S
In78 O80 2.326 . S
In78 O84 2.266 . S
In78 O85 2.326 . S
In78 O86 2.266 . S
In78 O87 2.326 . S
In78 O89 2.294 . S
In78 O90 2.326 . S
O79 In78 2.294 . S
O79 C88 1.240 . S
O80 In78 2.326 . S
O80 C88 1.252 . S
C81 O84 1.252 . S
C81 O85 1.260 . S
C82 O89 1.240 . S
C82 O90 1.252 . S
C83 O86 1.252 . S
C83 O87 1.260 . S
O84 In78 2.266 . S
O84 C81 1.252 . S
O85 In78 2.326 . S
O85 C81 1.260 . S
O86 In78 2.266 . S
O86 C83 1.252 . S
O87 In78 2.326 . S
O87 C83 1.260 . S
C88 O79 1.240 . S
C88 O80 1.252 . S
O89 In78 2.294 . S
O89 C82 1.240 . S
O90 In78 2.326 . S
O90 C82 1.252 . S
In91 O92 2.294 . S
In91 O93 2.326 . S
In91 O97 2.266 . S
In91 O98 2.326 . S
In91 O99 2.266 . S
In91 O100 2.326 . S
In91 O102 2.294 . S
In91 O103 2.326 . S
O92 In91 2.294 . S
O92 C101 1.240 . S
O93 In91 2.326 . S
O93 C101 1.252 . S
C94 O97 1.252 . S
C94 O98 1.260 . S
C95 O102 1.240 . S
C95 O103 1.252 . S
C96 O99 1.252 . S
C96 O100 1.260 . S
O97 In91 2.266 . S
O97 C94 1.252 . S
O98 In91 2.326 . S
O98 C94 1.260 . S
O99 In91 2.266 . S
O99 C96 1.252 . S
O100 In91 2.326 . S
O100 C96 1.260 . S
C101 O92 1.240 . S
C101 O93 1.252 . S
O102 In91 2.294 . S
O102 C95 1.240 . S
O103 In91 2.326 . S
O103 C95 1.252 . S
In104 O105 2.294 . S
In104 O106 2.326 . S
In104 O110 2.266 . S
In104 O111 2.326 . S
In104 O112 2.266 . S
In104 O113 2.326 . S
In104 O115 2.294 . S
In104 O116 2.326 . S
O105 In104 2.294 . S
O105 C114 1.240 . S
O106 In104 2.326 . S
O106 C114 1.252 . S
C107 O110 1.252 . S
C107 O111 1.260 . S
C108 O115 1.240 . S
C108 O116 1.252 . S
C109 O112 1.252 . S
C109 O113 1.260 . S
O110 In104 2.266 . S
O110 C107 1.252 . S
O111 In104 2.326 . S
O111 C107 1.260 . S
O112 In104 2.266 . S
O112 C109 1.252 . S
O113 In104 2.326 . S
O113 C109 1.260 . S
C114 O105 1.240 . S
C114 O106 1.252 . S
O115 In104 2.294 . S
O115 C108 1.240 . S
O116 In104 2.326 . S
O116 C108 1.252 . S
In117 O118 2.294 . S
In117 O119 2.326 . S
In117 O123 2.266 . S
In117 O124 2.326 . S
In117 O125 2.266 . S
In117 O126 2.326 . S
In117 O128 2.294 . S
In117 O129 2.326 . S
O118 In117 2.294 . S
O118 C127 1.240 . S
O119 In117 2.326 . S
O119 C127 1.252 . S
C120 O123 1.252 . S
C120 O124 1.260 . S
C121 O128 1.240 . S
C121 O129 1.252 . S
C122 O125 1.252 . S
C122 O126 1.260 . S
O123 In117 2.266 . S
O123 C120 1.252 . S
O124 In117 2.326 . S
O124 C120 1.260 . S
O125 In117 2.266 . S
O125 C122 1.252 . S
O126 In117 2.326 . S
O126 C122 1.260 . S
C127 O118 1.240 . S
C127 O119 1.252 . S
O128 In117 2.294 . S
O128 C121 1.240 . S
O129 In117 2.326 . S
O129 C121 1.252 . S
In130 O131 2.294 . S
In130 O132 2.326 . S
In130 O136 2.266 . S
In130 O137 2.326 . S
In130 O138 2.266 . S
In130 O139 2.326 . S
In130 O141 2.294 . S
In130 O142 2.326 . S
O131 In130 2.294 . S
O131 C140 1.240 . S
O132 In130 2.326 . S
O132 C140 1.252 . S
C133 O136 1.252 . S
C133 O137 1.260 . S
C134 O141 1.240 . S
C134 O142 1.252 . S
C135 O138 1.252 . S
C135 O139 1.260 . S
O136 In130 2.266 . S
O136 C133 1.252 . S
O137 In130 2.326 . S
O137 C133 1.260 . S
O138 In130 2.266 . S
O138 C135 1.252 . S
O139 In130 2.326 . S
O139 C135 1.260 . S
C140 O131 1.240 . S
C140 O132 1.252 . S
O141 In130 2.294 . S
O141 C134 1.240 . S
O142 In130 2.326 . S
O142 C134 1.252 . S
In143 O144 2.294 . S
In143 O145 2.326 . S
In143 O149 2.266 . S
In143 O150 2.326 . S
In143 O151 2.266 . S
In143 O152 2.326 . S
In143 O154 2.294 . S
In143 O155 2.326 . S
O144 In143 2.294 . S
O144 C153 1.240 . S
O145 In143 2.326 . S
O145 C153 1.252 . S
C146 O149 1.252 . S
C146 O150 1.260 . S
C147 O154 1.240 . S
C147 O155 1.252 . S
C148 O151 1.252 . S
C148 O152 1.260 . S
O149 In143 2.266 . S
O149 C146 1.252 . S
O150 In143 2.326 . S
O150 C146 1.260 . S
O151 In143 2.266 . S
O151 C148 1.252 . S
O152 In143 2.326 . S
O152 C148 1.260 . S
C153 O144 1.240 . S
C153 O145 1.252 . S
O154 In143 2.294 . S
O154 C147 1.240 . S
O155 In143 2.326 . S
O155 C147 1.252 . S
In156 O157 2.294 . S
In156 O158 2.326 . S
In156 O162 2.266 . S
In156 O163 2.326 . S
In156 O164 2.266 . S
In156 O165 2.326 . S
In156 O167 2.294 . S
In156 O168 2.326 . S
O157 In156 2.294 . S
O157 C166 1.240 . S
O158 In156 2.326 . S
O158 C166 1.252 . S
C159 O162 1.252 . S
C159 O163 1.260 . S
C160 O167 1.240 . S
C160 O168 1.252 . S
C161 O164 1.252 . S
C161 O165 1.260 . S
O162 In156 2.266 . S
O162 C159 1.252 . S
O163 In156 2.326 . S
O163 C159 1.260 . S
O164 In156 2.266 . S
O164 C161 1.252 . S
O165 In156 2.326 . S
O165 C161 1.260 . S
C166 O157 1.240 . S
C166 O158 1.252 . S
O167 In156 2.294 . S
O167 C160 1.240 . S
O168 In156 2.326 . S
O168 C160 1.252 . S
In169 O170 2.294 . S
In169 O171 2.326 . S
In169 O175 2.266 . S
In169 O176 2.326 . S
In169 O177 2.266 . S
In169 O178 2.326 . S
In169 O180 2.294 . S
In169 O181 2.326 . S
O170 In169 2.294 . S
O170 C179 1.240 . S
O171 In169 2.326 . S
O171 C179 1.252 . S
C172 O175 1.252 . S
C172 O176 1.260 . S
C173 O180 1.240 . S
C173 O181 1.252 . S
C174 O177 1.252 . S
C174 O178 1.260 . S
O175 In169 2.266 . S
O175 C172 1.252 . S
O176 In169 2.326 . S
O176 C172 1.260 . S
O177 In169 2.266 . S
O177 C174 1.252 . S
O178 In169 2.326 . S
O178 C174 1.260 . S
C179 O170 1.240 . S
C179 O171 1.252 . S
O180 In169 2.294 . S
O180 C173 1.240 . S
O181 In169 2.326 . S
O181 C173 1.252 . S
In182 O183 2.294 . S
In182 O184 2.326 . S
In182 O188 2.266 . S
In182 O189 2.326 . S
In182 O190 2.266 . S
In182 O191 2.326 . S
In182 O193 2.294 . S
In182 O194 2.326 . S
O183 In182 2.294 . S
O183 C192 1.240 . S
O184 In182 2.326 . S
O184 C192 1.252 . S
C185 O188 1.252 . S
C185 O189 1.260 . S
C186 O193 1.240 . S
C186 O194 1.252 . S
C187 O190 1.252 . S
C187 O191 1.260 . S
O188 In182 2.266 . S
O188 C185 1.252 . S
O189 In182 2.326 . S
O189 C185 1.260 . S
O190 In182 2.266 . S
O190 C187 1.252 . S
O191 In182 2.326 . S
O191 C187 1.260 . S
C192 O183 1.240 . S
C192 O184 1.252 . S
O193 In182 2.294 . S
O193 C186 1.240 . S
O194 In182 2.326 . S
O194 C186 1.252 . S
In195 O196 2.294 . S
In195 O197 2.326 . S
In195 O201 2.266 . S
In195 O202 2.326 . S
In195 O203 2.266 . S
In195 O204 2.326 . S
In195 O206 2.294 . S
In195 O207 2.326 . S
O196 In195 2.294 . S
O196 C205 1.240 . S
O197 In195 2.326 . S
O197 C205 1.252 . S
C198 O201 1.252 . S
C198 O202 1.260 . S
C199 O206 1.240 . S
C199 O207 1.252 . S
C200 O203 1.252 . S
C200 O204 1.260 . S
O201 In195 2.266 . S
O201 C198 1.252 . S
O202 In195 2.326 . S
O202 C198 1.260 . S
O203 In195 2.266 . S
O203 C200 1.252 . S
O204 In195 2.326 . S
O204 C200 1.260 . S
C205 O196 1.240 . S
C205 O197 1.252 . S
O206 In195 2.294 . S
O206 C199 1.240 . S
O207 In195 2.326 . S
O207 C199 1.252 . S
In208 O209 2.294 . S
In208 O210 2.326 . S
In208 O214 2.266 . S
In208 O215 2.326 . S
In208 O216 2.266 . S
In208 O217 2.326 . S
In208 O219 2.294 . S
In208 O220 2.326 . S
O209 In208 2.294 . S
O209 C218 1.240 . S
O210 In208 2.326 . S
O210 C218 1.252 . S
C211 O214 1.252 . S
C211 O215 1.260 . S
C212 O219 1.240 . S
C212 O220 1.252 . S
C213 O216 1.252 . S
C213 O217 1.260 . S
O214 In208 2.266 . S
O214 C211 1.252 . S
O215 In208 2.326 . S
O215 C211 1.260 . S
O216 In208 2.266 . S
O216 C213 1.252 . S
O217 In208 2.326 . S
O217 C213 1.260 . S
C218 O209 1.240 . S
C218 O210 1.252 . S
O219 In208 2.294 . S
O219 C212 1.240 . S
O220 In208 2.326 . S
O220 C212 1.252 . S
In221 O222 2.294 . S
In221 O223 2.326 . S
In221 O227 2.266 . S
In221 O228 2.326 . S
In221 O229 2.266 . S
In221 O230 2.326 . S
In221 O232 2.294 . S
In221 O233 2.326 . S
O222 In221 2.294 . S
O222 C231 1.240 . S
O223 In221 2.326 . S
O223 C231 1.252 . S
C224 O227 1.252 . S
C224 O228 1.260 . S
C225 O232 1.240 . S
C225 O233 1.252 . S
C226 O229 1.252 . S
C226 O230 1.260 . S
O227 In221 2.266 . S
O227 C224 1.252 . S
O228 In221 2.326 . S
O228 C224 1.260 . S
O229 In221 2.266 . S
O229 C226 1.252 . S
O230 In221 2.326 . S
O230 C226 1.260 . S
C231 O222 1.240 . S
C231 O223 1.252 . S
O232 In221 2.294 . S
O232 C225 1.240 . S
O233 In221 2.326 . S
O233 C225 1.252 . S
In234 O235 2.294 . S
In234 O236 2.326 . S
In234 O240 2.266 . S
In234 O241 2.326 . S
In234 O242 2.266 . S
In234 O243 2.326 . S
In234 O245 2.294 . S
In234 O246 2.326 . S
O235 In234 2.294 . S
O235 C244 1.240 . S
O236 In234 2.326 . S
O236 C244 1.252 . S
C237 O240 1.252 . S
C237 O241 1.260 . S
C238 O245 1.240 . S
C238 O246 1.252 . S
C239 O242 1.252 . S
C239 O243 1.260 . S
O240 In234 2.266 . S
O240 C237 1.252 . S
O241 In234 2.326 . S
O241 C237 1.260 . S
O242 In234 2.266 . S
O242 C239 1.252 . S
O243 In234 2.326 . S
O243 C239 1.260 . S
C244 O235 1.240 . S
C244 O236 1.252 . S
O245 In234 2.294 . S
O245 C238 1.240 . S
O246 In234 2.326 . S
O246 C238 1.252 . S
In247 O248 2.294 . S
In247 O249 2.326 . S
In247 O253 2.266 . S
In247 O254 2.326 . S
In247 O255 2.266 . S
In247 O256 2.326 . S
In247 O258 2.294 . S
In247 O259 2.326 . S
O248 In247 2.294 . S
O248 C257 1.240 . S
O249 In247 2.326 . S
O249 C257 1.252 . S
C250 O253 1.252 . S
C250 O254 1.260 . S
C251 O258 1.240 . S
C251 O259 1.252 . S
C252 O255 1.252 . S
C252 O256 1.260 . S
O253 In247 2.266 . S
O253 C250 1.252 . S
O254 In247 2.326 . S
O254 C250 1.260 . S
O255 In247 2.266 . S
O255 C252 1.252 . S
O256 In247 2.326 . S
O256 C252 1.260 . S
C257 O248 1.240 . S
C257 O249 1.252 . S
O258 In247 2.294 . S
O258 C251 1.240 . S
O259 In247 2.326 . S
O259 C251 1.252 . S
In260 O261 2.294 . S
In260 O262 2.326 . S
In260 O266 2.266 . S
In260 O267 2.326 . S
In260 O268 2.266 . S
In260 O269 2.326 . S
In260 O271 2.294 . S
In260 O272 2.326 . S
O261 In260 2.294 . S
O261 C270 1.240 . S
O262 In260 2.326 . S
O262 C270 1.252 . S
C263 O266 1.252 . S
C263 O267 1.260 . S
C264 O271 1.240 . S
C264 O272 1.252 . S
C265 O268 1.252 . S
C265 O269 1.260 . S
O266 In260 2.266 . S
O266 C263 1.252 . S
O267 In260 2.326 . S
O267 C263 1.260 . S
O268 In260 2.266 . S
O268 C265 1.252 . S
O269 In260 2.326 . S
O269 C265 1.260 . S
C270 O261 1.240 . S
C270 O262 1.252 . S
O271 In260 2.294 . S
O271 C264 1.240 . S
O272 In260 2.326 . S
O272 C264 1.252 . S
In273 O274 2.294 . S
In273 O275 2.326 . S
In273 O279 2.266 . S
In273 O280 2.326 . S
In273 O281 2.266 . S
In273 O282 2.326 . S
In273 O284 2.294 . S
In273 O285 2.326 . S
O274 In273 2.294 . S
O274 C283 1.240 . S
O275 In273 2.326 . S
O275 C283 1.252 . S
C276 O279 1.252 . S
C276 O280 1.260 . S
C277 O284 1.240 . S
C277 O285 1.252 . S
C278 O281 1.252 . S
C278 O282 1.260 . S
O279 In273 2.266 . S
O279 C276 1.252 . S
O280 In273 2.326 . S
O280 C276 1.260 . S
O281 In273 2.266 . S
O281 C278 1.252 . S
O282 In273 2.326 . S
O282 C278 1.260 . S
C283 O274 1.240 . S
C283 O275 1.252 . S
O284 In273 2.294 . S
O284 C277 1.240 . S
O285 In273 2.326 . S
O285 C277 1.252 . S
In286 O287 2.294 . S
In286 O288 2.326 . S
In286 O292 2.266 . S
In286 O293 2.326 . S
In286 O294 2.266 . S
In286 O295 2.326 . S
In286 O297 2.294 . S
In286 O298 2.326 . S
O287 In286 2.294 . S
O287 C296 1.240 . S
O288 In286 2.326 . S
O288 C296 1.252 . S
C289 O292 1.252 . S
C289 O293 1.260 . S
C290 O297 1.240 . S
C290 O298 1.252 . S
C291 O294 1.252 . S
C291 O295 1.260 . S
O292 In286 2.266 . S
O292 C289 1.252 . S
O293 In286 2.326 . S
O293 C289 1.260 . S
O294 In286 2.266 . S
O294 C291 1.252 . S
O295 In286 2.326 . S
O295 C291 1.260 . S
C296 O287 1.240 . S
C296 O288 1.252 . S
O297 In286 2.294 . S
O297 C290 1.240 . S
O298 In286 2.326 . S
O298 C290 1.252 . S
In299 O300 2.294 . S
In299 O301 2.326 . S
In299 O305 2.266 . S
In299 O306 2.326 . S
In299 O307 2.266 . S
In299 O308 2.326 . S
In299 O310 2.294 . S
In299 O311 2.326 . S
O300 In299 2.294 . S
O300 C309 1.240 . S
O301 In299 2.326 . S
O301 C309 1.252 . S
C302 O305 1.252 . S
C302 O306 1.260 . S
C303 O310 1.240 . S
C303 O311 1.252 . S
C304 O307 1.252 . S
C304 O308 1.260 . S
O305 In299 2.266 . S
O305 C302 1.252 . S
O306 In299 2.326 . S
O306 C302 1.260 . S
O307 In299 2.266 . S
O307 C304 1.252 . S
O308 In299 2.326 . S
O308 C304 1.260 . S
C309 O300 1.240 . S
C309 O301 1.252 . S
O310 In299 2.294 . S
O310 C303 1.240 . S
O311 In299 2.326 . S
O311 C303 1.252 . S
In312 O313 2.294 . S
In312 O314 2.326 . S
In312 O318 2.266 . S
In312 O319 2.326 . S
In312 O320 2.266 . S
In312 O321 2.326 . S
In312 O323 2.294 . S
In312 O324 2.326 . S
O313 In312 2.294 . S
O313 C322 1.240 . S
O314 In312 2.326 . S
O314 C322 1.252 . S
C315 O318 1.252 . S
C315 O319 1.260 . S
C316 O323 1.240 . S
C316 O324 1.252 . S
C317 O320 1.252 . S
C317 O321 1.260 . S
O318 In312 2.266 . S
O318 C315 1.252 . S
O319 In312 2.326 . S
O319 C315 1.260 . S
O320 In312 2.266 . S
O320 C317 1.252 . S
O321 In312 2.326 . S
O321 C317 1.260 . S
C322 O313 1.240 . S
C322 O314 1.252 . S
O323 In312 2.294 . S
O323 C316 1.240 . S
O324 In312 2.326 . S
O324 C316 1.252 . S
In325 O326 2.294 . S
In325 O327 2.326 . S
In325 O331 2.266 . S
In325 O332 2.326 . S
In325 O333 2.266 . S
In325 O334 2.326 . S
In325 O336 2.294 . S
In325 O337 2.326 . S
O326 In325 2.294 . S
O326 C335 1.240 . S
O327 In325 2.326 . S
O327 C335 1.252 . S
C328 O331 1.252 . S
C328 O332 1.260 . S
C329 O336 1.240 . S
C329 O337 1.252 . S
C330 O333 1.252 . S
C330 O334 1.260 . S
O331 In325 2.266 . S
O331 C328 1.252 . S
O332 In325 2.326 . S
O332 C328 1.260 . S
O333 In325 2.266 . S
O333 C330 1.252 . S
O334 In325 2.326 . S
O334 C330 1.260 . S
C335 O326 1.240 . S
C335 O327 1.252 . S
O336 In325 2.294 . S
O336 C329 1.240 . S
O337 In325 2.326 . S
O337 C329 1.252 . S
In338 O339 2.294 . S
In338 O340 2.326 . S
In338 O344 2.266 . S
In338 O345 2.326 . S
In338 O346 2.266 . S
In338 O347 2.326 . S
In338 O349 2.294 . S
In338 O350 2.326 . S
O339 In338 2.294 . S
O339 C348 1.240 . S
O340 In338 2.326 . S
O340 C348 1.252 . S
C341 O344 1.252 . S
C341 O345 1.260 . S
C342 O349 1.240 . S
C342 O350 1.252 . S
C343 O346 1.252 . S
C343 O347 1.260 . S
O344 In338 2.266 . S
O344 C341 1.252 . S
O345 In338 2.326 . S
O345 C341 1.260 . S
O346 In338 2.266 . S
O346 C343 1.252 . S
O347 In338 2.326 . S
O347 C343 1.260 . S
C348 O339 1.240 . S
C348 O340 1.252 . S
O349 In338 2.294 . S
O349 C342 1.240 . S
O350 In338 2.326 . S
O350 C342 1.252 . S
In351 O352 2.294 . S
In351 O353 2.326 . S
In351 O357 2.266 . S
In351 O358 2.326 . S
In351 O359 2.266 . S
In351 O360 2.326 . S
In351 O362 2.294 . S
In351 O363 2.326 . S
O352 In351 2.294 . S
O352 C361 1.240 . S
O353 In351 2.326 . S
O353 C361 1.252 . S
C354 O357 1.252 . S
C354 O358 1.260 . S
C355 O362 1.240 . S
C355 O363 1.252 . S
C356 O359 1.252 . S
C356 O360 1.260 . S
O357 In351 2.266 . S
O357 C354 1.252 . S
O358 In351 2.326 . S
O358 C354 1.260 . S
O359 In351 2.266 . S
O359 C356 1.252 . S
O360 In351 2.326 . S
O360 C356 1.260 . S
C361 O352 1.240 . S
C361 O353 1.252 . S
O362 In351 2.294 . S
O362 C355 1.240 . S
O363 In351 2.326 . S
O363 C355 1.252 . S
In364 O365 2.294 . S
In364 O366 2.326 . S
In364 O370 2.266 . S
In364 O371 2.326 . S
In364 O372 2.266 . S
In364 O373 2.326 . S
In364 O375 2.294 . S
In364 O376 2.326 . S
O365 In364 2.294 . S
O365 C374 1.240 . S
O366 In364 2.326 . S
O366 C374 1.252 . S
C367 O370 1.252 . S
C367 O371 1.260 . S
C368 O375 1.240 . S
C368 O376 1.252 . S
C369 O372 1.252 . S
C369 O373 1.260 . S
O370 In364 2.266 . S
O370 C367 1.252 . S
O371 In364 2.326 . S
O371 C367 1.260 . S
O372 In364 2.266 . S
O372 C369 1.252 . S
O373 In364 2.326 . S
O373 C369 1.260 . S
C374 O365 1.240 . S
C374 O366 1.252 . S
O375 In364 2.294 . S
O375 C368 1.240 . S
O376 In364 2.326 . S
O376 C368 1.252 . S
In377 O378 2.294 . S
In377 O379 2.326 . S
In377 O383 2.266 . S
In377 O384 2.326 . S
In377 O385 2.266 . S
In377 O386 2.326 . S
In377 O388 2.294 . S
In377 O389 2.326 . S
O378 In377 2.294 . S
O378 C387 1.240 . S
O379 In377 2.326 . S
O379 C387 1.252 . S
C380 O383 1.252 . S
C380 O384 1.260 . S
C381 O388 1.240 . S
C381 O389 1.252 . S
C382 O385 1.252 . S
C382 O386 1.260 . S
O383 In377 2.266 . S
O383 C380 1.252 . S
O384 In377 2.326 . S
O384 C380 1.260 . S
O385 In377 2.266 . S
O385 C382 1.252 . S
O386 In377 2.326 . S
O386 C382 1.260 . S
C387 O378 1.240 . S
C387 O379 1.252 . S
O388 In377 2.294 . S
O388 C381 1.240 . S
O389 In377 2.326 . S
O389 C381 1.252 . S
In390 O391 2.294 . S
In390 O392 2.326 . S
In390 O396 2.266 . S
In390 O397 2.326 . S
In390 O398 2.266 . S
In390 O399 2.326 . S
In390 O401 2.294 . S
In390 O402 2.326 . S
O391 In390 2.294 . S
O391 C400 1.240 . S
O392 In390 2.326 . S
O392 C400 1.252 . S
C393 O396 1.252 . S
C393 O397 1.260 . S
C394 O401 1.240 . S
C394 O402 1.252 . S
C395 O398 1.252 . S
C395 O399 1.260 . S
O396 In390 2.266 . S
O396 C393 1.252 . S
O397 In390 2.326 . S
O397 C393 1.260 . S
O398 In390 2.266 . S
O398 C395 1.252 . S
O399 In390 2.326 . S
O399 C395 1.260 . S
C400 O391 1.240 . S
C400 O392 1.252 . S
O401 In390 2.294 . S
O401 C394 1.240 . S
O402 In390 2.326 . S
O402 C394 1.252 . S
In403 O404 2.294 . S
In403 O405 2.326 . S
In403 O409 2.266 . S
In403 O410 2.326 . S
In403 O411 2.266 . S
In403 O412 2.326 . S
In403 O414 2.294 . S
In403 O415 2.326 . S
O404 In403 2.294 . S
O404 C413 1.240 . S
O405 In403 2.326 . S
O405 C413 1.252 . S
C406 O409 1.252 . S
C406 O410 1.260 . S
C407 O414 1.240 . S
C407 O415 1.252 . S
C408 O411 1.252 . S
C408 O412 1.260 . S
O409 In403 2.266 . S
O409 C406 1.252 . S
O410 In403 2.326 . S
O410 C406 1.260 . S
O411 In403 2.266 . S
O411 C408 1.252 . S
O412 In403 2.326 . S
O412 C408 1.260 . S
C413 O404 1.240 . S
C413 O405 1.252 . S
O414 In403 2.294 . S
O414 C407 1.240 . S
O415 In403 2.326 . S
O415 C407 1.252 . S
In416 O417 2.294 . S
In416 O418 2.326 . S
In416 O422 2.266 . S
In416 O423 2.326 . S
In416 O424 2.266 . S
In416 O425 2.326 . S
In416 O427 2.294 . S
In416 O428 2.326 . S
O417 In416 2.294 . S
O417 C426 1.240 . S
O418 In416 2.326 . S
O418 C426 1.252 . S
C419 O422 1.252 . S
C419 O423 1.260 . S
C420 O427 1.240 . S
C420 O428 1.252 . S
C421 O424 1.252 . S
C421 O425 1.260 . S
O422 In416 2.266 . S
O422 C419 1.252 . S
O423 In416 2.326 . S
O423 C419 1.260 . S
O424 In416 2.266 . S
O424 C421 1.252 . S
O425 In416 2.326 . S
O425 C421 1.260 . S
C426 O417 1.240 . S
C426 O418 1.252 . S
O427 In416 2.294 . S
O427 C420 1.240 . S
O428 In416 2.326 . S
O428 C420 1.252 . S
In429 O430 2.294 . S
In429 O431 2.326 . S
In429 O435 2.266 . S
In429 O436 2.326 . S
In429 O437 2.266 . S
In429 O438 2.326 . S
In429 O440 2.294 . S
In429 O441 2.326 . S
O430 In429 2.294 . S
O430 C439 1.240 . S
O431 In429 2.326 . S
O431 C439 1.252 . S
C432 O435 1.252 . S
C432 O436 1.260 . S
C433 O440 1.240 . S
C433 O441 1.252 . S
C434 O437 1.252 . S
C434 O438 1.260 . S
O435 In429 2.266 . S
O435 C432 1.252 . S
O436 In429 2.326 . S
O436 C432 1.260 . S
O437 In429 2.266 . S
O437 C434 1.252 . S
O438 In429 2.326 . S
O438 C434 1.260 . S
C439 O430 1.240 . S
C439 O431 1.252 . S
O440 In429 2.294 . S
O440 C433 1.240 . S
O441 In429 2.326 . S
O441 C433 1.252 . S
In442 O443 2.294 . S
In442 O444 2.326 . S
In442 O448 2.266 . S
In442 O449 2.326 . S
In442 O450 2.266 . S
In442 O451 2.326 . S
In442 O453 2.294 . S
In442 O454 2.326 . S
O443 In442 2.294 . S
O443 C452 1.240 . S
O444 In442 2.326 . S
O444 C452 1.252 . S
C445 O448 1.252 . S
C445 O449 1.260 . S
C446 O453 1.240 . S
C446 O454 1.252 . S
C447 O450 1.252 . S
C447 O451 1.260 . S
O448 In442 2.266 . S
O448 C445 1.252 . S
O449 In442 2.326 . S
O449 C445 1.260 . S
O450 In442 2.266 . S
O450 C447 1.252 . S
O451 In442 2.326 . S
O451 C447 1.260 . S
C452 O443 1.240 . S
C452 O444 1.252 . S
O453 In442 2.294 . S
O453 C446 1.240 . S
O454 In442 2.326 . S
O454 C446 1.252 . S
In455 O456 2.294 . S
In455 O457 2.326 . S
In455 O461 2.266 . S
In455 O462 2.326 . S
In455 O463 2.266 . S
In455 O464 2.326 . S
In455 O466 2.294 . S
In455 O467 2.326 . S
O456 In455 2.294 . S
O456 C465 1.240 . S
O457 In455 2.326 . S
O457 C465 1.252 . S
C458 O461 1.252 . S
C458 O462 1.260 . S
C459 O466 1.240 . S
C459 O467 1.252 . S
C460 O463 1.252 . S
C460 O464 1.260 . S
O461 In455 2.266 . S
O461 C458 1.252 . S
O462 In455 2.326 . S
O462 C458 1.260 . S
O463 In455 2.266 . S
O463 C460 1.252 . S
O464 In455 2.326 . S
O464 C460 1.260 . S
C465 O456 1.240 . S
C465 O457 1.252 . S
O466 In455 2.294 . S
O466 C459 1.240 . S
O467 In455 2.326 . S
O467 C459 1.252 . S
H468 C474 0.930 . S
H469 C477 0.930 . S
H470 C478 0.894 1_545 S
H471 C479 0.930 . S
H472 C482 0.930 . S
H473 C483 0.930 1_565 S
C474 H468 0.930 . S
C474 C475 1.355 . S
C474 C476 1.415 . S
C475 C474 1.355 . S
C475 C477 1.419 . S
C476 C474 1.415 . S
C476 C481 1.425 1_565 S
C476 C483 1.409 1_565 S
C477 H469 0.930 . S
C477 C475 1.419 . S
C477 C478 1.362 . S
C478 H470 0.894 1_565 S
C478 C477 1.362 . S
C478 C481 1.409 1_565 S
C479 H471 0.930 . S
C479 C480 1.355 . S
C479 C481 1.415 . S
C480 C479 1.355 . S
C480 C482 1.419 . S
C481 C476 1.425 1_545 S
C481 C478 1.409 1_545 S
C481 C479 1.415 . S
C482 H472 0.930 . S
C482 C480 1.419 . S
C482 C483 1.362 . S
C483 H473 0.930 1_545 S
C483 C476 1.409 1_545 S
C483 C482 1.362 . S
H484 C490 0.930 . S
H485 C493 0.930 . S
H486 C494 0.930 . S
H487 C495 0.930 . S
H488 C498 0.930 . S
H489 C499 0.930 . S
C490 H484 0.930 . S
C490 C491 1.355 . S
C490 C492 1.415 . S
C491 C490 1.355 . S
C491 C493 1.419 . S
C492 C490 1.415 . S
C492 C497 1.425 1_455 S
C492 C499 1.409 1_455 S
C493 H485 0.930 . S
C493 C491 1.419 . S
C493 C494 1.362 . S
C494 H486 0.930 . S
C494 C493 1.362 . S
C494 C497 1.409 1_455 S
C495 H487 0.930 . S
C495 C496 1.355 . S
C495 C497 1.415 . S
C496 C495 1.355 . S
C496 C498 1.419 . S
C497 C492 1.425 1_655 S
C497 C494 1.409 1_655 S
C497 C495 1.415 . S
C498 H488 0.930 . S
C498 C496 1.419 . S
C498 C499 1.362 . S
C499 H489 0.930 . S
C499 C492 1.409 1_655 S
C499 C498 1.362 . S
H500 C506 0.930 . S
H501 C509 0.930 . S
H502 C510 0.930 . S
H503 C511 0.930 . S
H504 C514 0.930 . S
H505 C515 0.930 . S
C506 H500 0.930 . S
C506 C507 1.355 . S
C506 C508 1.415 . S
C507 C506 1.355 . S
C507 C509 1.419 . S
C508 C506 1.415 . S
C508 C513 1.425 . S
C508 C515 1.409 . S
C509 H501 0.930 . S
C509 C507 1.419 . S
C509 C510 1.362 . S
C510 H502 0.930 . S
C510 C509 1.362 . S
C510 C513 1.409 . S
C511 H503 0.930 . S
C511 C512 1.355 . S
C511 C513 1.415 . S
C512 C511 1.355 . S
C512 C514 1.419 . S
C513 C508 1.425 . S
C513 C510 1.409 . S
C513 C511 1.415 . S
C514 H504 0.930 . S
C514 C512 1.419 . S
C514 C515 1.362 . S
C515 H505 0.930 . S
C515 C508 1.409 . S
C515 C514 1.362 . S
H516 C522 0.930 . S
H517 C525 0.930 . S
H518 C526 0.930 . S
H519 C527 0.930 . S
H520 C530 0.930 . S
H521 C531 0.930 . S
C522 H516 0.930 . S
C522 C523 1.355 . S
C522 C524 1.415 . S
C523 C522 1.355 . S
C523 C525 1.419 . S
C524 C522 1.415 . S
C524 C529 1.425 1_565 S
C524 C531 1.409 1_565 S
C525 H517 0.930 . S
C525 C523 1.419 . S
C525 C526 1.362 . S
C526 H518 0.930 . S
C526 C525 1.362 . S
C526 C529 1.409 1_565 S
C527 H519 0.930 . S
C527 C528 1.355 . S
C527 C529 1.415 . S
C528 C527 1.355 . S
C528 C530 1.419 . S
C529 C524 1.425 1_545 S
C529 C526 1.409 1_545 S
C529 C527 1.415 . S
C530 H520 0.930 . S
C530 C528 1.419 . S
C530 C531 1.362 . S
C531 H521 0.930 . S
C531 C524 1.409 1_545 S
C531 C530 1.362 . S
H532 C538 0.930 . S
H533 C541 0.930 . S
H534 C542 0.930 . S
H535 C543 0.930 . S
H536 C546 0.930 . S
H537 C547 0.930 . S
C538 H532 0.930 . S
C538 C539 1.355 . S
C538 C540 1.415 . S
C539 C538 1.355 . S
C539 C541 1.419 . S
C540 C538 1.415 . S
C540 C545 1.425 1_455 S
C540 C547 1.409 1_455 S
C541 H533 0.930 . S
C541 C539 1.419 . S
C541 C542 1.362 . S
C542 H534 0.930 . S
C542 C541 1.362 . S
C542 C545 1.409 1_455 S
C543 H535 0.930 . S
C543 C544 1.355 . S
C543 C545 1.415 . S
C544 C543 1.355 . S
C544 C546 1.419 . S
C545 C540 1.425 1_655 S
C545 C542 1.409 1_655 S
C545 C543 1.415 . S
C546 H536 0.930 . S
C546 C544 1.419 . S
C546 C547 1.362 . S
C547 H537 0.930 . S
C547 C540 1.409 1_655 S
C547 C546 1.362 . S
H548 C554 0.930 . S
H549 C557 0.930 . S
H550 C558 0.930 . S
H551 C559 0.930 . S
H552 C562 0.930 . S
H553 C563 0.930 . S
C554 H548 0.930 . S
C554 C555 1.355 . S
C554 C556 1.415 . S
C555 C554 1.355 . S
C555 C557 1.419 . S
C556 C554 1.415 . S
C556 C561 1.425 . S
C556 C563 1.409 . S
C557 H549 0.930 . S
C557 C555 1.419 . S
C557 C558 1.362 . S
C558 H550 0.930 . S
C558 C557 1.362 . S
C558 C561 1.409 . S
C559 H551 0.930 . S
C559 C560 1.355 . S
C559 C561 1.415 . S
C560 C559 1.355 . S
C560 C562 1.419 . S
C561 C556 1.425 . S
C561 C558 1.409 . S
C561 C559 1.415 . S
C562 H552 0.930 . S
C562 C560 1.419 . S
C562 C563 1.362 . S
C563 H553 0.930 . S
C563 C556 1.409 . S
C563 C562 1.362 . S
H564 C570 0.930 . S
H565 C573 0.930 . S
H566 C574 0.930 . S
H567 C575 0.930 . S
H568 C578 0.930 . S
H569 C579 0.930 1_455 S
C570 H564 0.930 . S
C570 C571 1.344 1_455 S
C570 C572 1.415 1_455 S
C571 C570 1.344 1_655 S
C571 C573 1.432 . S
C572 C570 1.415 1_655 S
C572 C577 1.425 . S
C572 C579 1.409 . S
C573 H565 0.930 . S
C573 C571 1.432 . S
C573 C574 1.362 . S
C574 H566 0.930 . S
C574 C573 1.362 . S
C574 C577 1.409 . S
C575 H567 0.930 . S
C575 C576 1.355 . S
C575 C577 1.415 . S
C576 C575 1.355 . S
C576 C578 1.419 . S
C577 C572 1.425 . S
C577 C574 1.409 . S
C577 C575 1.415 . S
C578 H568 0.930 . S
C578 C576 1.419 . S
C578 C579 1.362 . S
C579 H569 0.930 1_655 S
C579 C572 1.409 . S
C579 C578 1.362 . S
H580 C586 0.930 . S
H581 C589 0.930 . S
H582 C590 0.930 . S
H583 C591 0.930 . S
H584 C594 0.930 . S
H585 C595 0.930 . S
C586 H580 0.930 . S
C586 C587 1.355 . S
C586 C588 1.415 . S
C587 C586 1.355 . S
C587 C589 1.419 . S
C588 C586 1.415 . S
C588 C593 1.425 . S
C588 C595 1.409 . S
C589 H581 0.930 . S
C589 C587 1.419 . S
C589 C590 1.362 . S
C590 H582 0.930 . S
C590 C589 1.362 . S
C590 C593 1.409 . S
C591 H583 0.930 . S
C591 C592 1.355 . S
C591 C593 1.415 . S
C592 C591 1.355 . S
C592 C594 1.419 . S
C593 C588 1.425 . S
C593 C590 1.409 . S
C593 C591 1.415 . S
C594 H584 0.930 . S
C594 C592 1.419 . S
C594 C595 1.362 . S
C595 H585 0.930 . S
C595 C588 1.409 . S
C595 C594 1.362 . S
H596 C602 0.930 . S
H597 C605 0.930 . S
H598 C606 0.930 . S
H599 C607 0.930 . S
H600 C610 0.930 1_565 S
H601 C611 0.930 . S
C602 H596 0.930 . S
C602 C603 1.355 . S
C602 C604 1.415 . S
C603 C602 1.355 . S
C603 C605 1.419 . S
C604 C602 1.415 . S
C604 C609 1.425 . S
C604 C611 1.409 . S
C605 H597 0.930 . S
C605 C603 1.419 . S
C605 C606 1.362 . S
C606 H598 0.930 . S
C606 C605 1.362 . S
C606 C609 1.409 . S
C607 H599 0.930 . S
C607 C608 1.329 1_545 S
C607 C609 1.415 . S
C608 C607 1.329 1_565 S
C608 C610 1.397 1_565 S
C609 C604 1.425 . S
C609 C606 1.409 . S
C609 C607 1.415 . S
C610 H600 0.930 1_545 S
C610 C608 1.397 1_545 S
C610 C611 1.362 . S
C611 H601 0.930 . S
C611 C604 1.409 . S
C611 C610 1.362 . S
H612 C618 0.930 . S
H613 C621 0.930 . S
H614 C622 0.930 . S
H615 C623 0.930 . S
H616 C626 0.930 . S
H617 C627 0.930 . S
C618 H612 0.930 . S
C618 C619 1.355 . S
C618 C620 1.415 . S
C619 C618 1.355 . S
C619 C621 1.419 . S
C620 C618 1.415 . S
C620 C625 1.425 . S
C620 C627 1.409 . S
C621 H613 0.930 . S
C621 C619 1.419 . S
C621 C622 1.362 . S
C622 H614 0.930 . S
C622 C621 1.362 . S
C622 C625 1.409 . S
C623 H615 0.930 . S
C623 C624 1.355 . S
C623 C625 1.415 . S
C624 C623 1.355 . S
C624 C626 1.419 . S
C625 C620 1.425 . S
C625 C622 1.409 . S
C625 C623 1.415 . S
C626 H616 0.930 . S
C626 C624 1.419 . S
C626 C627 1.362 . S
C627 H617 0.930 . S
C627 C620 1.409 . S
C627 C626 1.362 . S
H628 C634 0.930 . S
H629 C637 0.930 . S
H630 C638 0.930 . S
H631 C639 0.930 . S
H632 C642 0.930 . S
H633 C643 0.941 . S
C634 H628 0.930 . S
C634 C635 1.348 1_565 S
C634 C636 1.415 1_565 S
C635 C634 1.348 1_545 S
C635 C637 1.428 . S
C636 C634 1.415 1_545 S
C636 C641 1.425 . S
C636 C643 1.401 1_545 S
C637 H629 0.930 . S
C637 C635 1.428 . S
C637 C638 1.362 . S
C638 H630 0.930 . S
C638 C637 1.362 . S
C638 C641 1.409 . S
C639 H631 0.930 . S
C639 C640 1.355 . S
C639 C641 1.415 . S
C640 C639 1.355 . S
C640 C642 1.419 . S
C641 C636 1.425 . S
C641 C638 1.409 . S
C641 C639 1.415 . S
C642 H632 0.930 . S
C642 C640 1.419 . S
C642 C643 1.360 1_545 S
C643 H633 0.941 . S
C643 C636 1.401 1_565 S
C643 C642 1.360 1_565 S
H644 C650 0.930 . S
H645 C653 0.930 . S
H646 C654 0.930 . S
H647 C655 0.930 . S
H648 C658 0.930 . S
H649 C659 0.930 . S
C650 H644 0.930 . S
C650 C651 1.355 . S
C650 C652 1.415 . S
C651 C650 1.355 . S
C651 C653 1.419 . S
C652 C650 1.415 . S
C652 C657 1.425 . S
C652 C659 1.409 1_655 S
C653 H645 0.930 . S
C653 C651 1.419 . S
C653 C654 1.362 . S
C654 H646 0.930 . S
C654 C653 1.362 . S
C654 C657 1.409 . S
C655 H647 0.930 . S
C655 C656 1.355 1_655 S
C655 C657 1.415 . S
C656 C655 1.355 1_455 S
C656 C658 1.419 . S
C657 C652 1.425 . S
C657 C654 1.409 . S
C657 C655 1.415 . S
C658 H648 0.930 . S
C658 C656 1.419 . S
C658 C659 1.362 . S
C659 H649 0.930 . S
C659 C652 1.409 1_455 S
C659 C658 1.362 . S
H660 C666 0.930 . S
H661 C669 0.930 . S
H662 C670 0.930 . S
H663 C671 0.930 . S
H664 C674 0.930 . S
H665 C675 0.930 . S
C666 H660 0.930 . S
C666 C667 1.355 . S
C666 C668 1.415 . S
C667 C666 1.355 . S
C667 C669 1.419 . S
C668 C666 1.415 . S
C668 C673 1.425 . S
C668 C675 1.409 . S
C669 H661 0.930 . S
C669 C667 1.419 . S
C669 C670 1.362 . S
C670 H662 0.930 . S
C670 C669 1.362 . S
C670 C673 1.409 . S
C671 H663 0.930 . S
C671 C672 1.355 . S
C671 C673 1.415 . S
C672 C671 1.355 . S
C672 C674 1.419 . S
C673 C668 1.425 . S
C673 C670 1.409 . S
C673 C671 1.415 . S
C674 H664 0.930 . S
C674 C672 1.419 . S
C674 C675 1.362 . S
C675 H665 0.930 . S
C675 C668 1.409 . S
C675 C674 1.362 . S
H676 C682 0.930 . S
H677 C685 0.930 . S
H678 C686 0.930 . S
H679 C687 0.930 . S
H680 C690 0.930 . S
H681 C691 0.930 . S
C682 H676 0.930 . S
C682 C683 1.355 1_565 S
C682 C684 1.415 . S
C683 C682 1.355 1_545 S
C683 C685 1.419 . S
C684 C682 1.415 . S
C684 C689 1.425 . S
C684 C691 1.409 . S
C685 H677 0.930 . S
C685 C683 1.419 . S
C685 C686 1.362 1_545 S
C686 H678 0.930 . S
C686 C685 1.362 1_565 S
C686 C689 1.409 . S
C687 H679 0.930 . S
C687 C688 1.355 . S
C687 C689 1.415 . S
C688 C687 1.355 . S
C688 C690 1.419 . S
C689 C684 1.425 . S
C689 C686 1.409 . S
C689 C687 1.415 . S
C690 H680 0.930 . S
C690 C688 1.419 . S
C690 C691 1.362 . S
C691 H681 0.930 . S
C691 C684 1.409 . S
C691 C690 1.362 . S
H692 C698 0.930 . S
H693 C701 0.930 . S
H694 C702 0.930 . S
H695 C703 0.930 . S
H696 C706 0.930 . S
H697 C707 0.929 . S
C698 H692 0.930 . S
C698 C699 1.355 . S
C698 C700 1.415 . S
C699 C698 1.355 . S
C699 C701 1.419 . S
C700 C698 1.415 . S
C700 C705 1.425 . S
C700 C707 1.398 1_455 S
C701 H693 0.930 . S
C701 C699 1.419 . S
C701 C702 1.362 . S
C702 H694 0.930 . S
C702 C701 1.362 . S
C702 C705 1.409 . S
C703 H695 0.930 . S
C703 C704 1.355 1_455 S
C703 C705 1.415 . S
C704 C703 1.355 1_655 S
C704 C706 1.419 . S
C705 C700 1.425 . S
C705 C702 1.409 . S
C705 C703 1.415 . S
C706 H696 0.930 . S
C706 C704 1.419 . S
C706 C707 1.375 . S
C707 H697 0.929 . S
C707 C700 1.398 1_655 S
C707 C706 1.375 . S
H708 C714 0.930 . S
H709 C717 0.930 . S
H710 C718 0.907 1_655 S
H711 C719 0.930 . S
H712 C722 0.930 . S
H713 C723 0.930 . S
C714 H708 0.930 . S
C714 C715 1.355 . S
C714 C716 1.415 . S
C715 C714 1.355 . S
C715 C717 1.419 . S
C716 C714 1.415 . S
C716 C721 1.425 . S
C716 C723 1.409 . S
C717 H709 0.930 . S
C717 C715 1.419 . S
C717 C718 1.367 . S
C718 H710 0.907 1_455 S
C718 C717 1.367 . S
C718 C721 1.427 . S
C719 H711 0.930 . S
C719 C720 1.343 1_655 S
C719 C721 1.415 1_655 S
C720 C719 1.343 1_455 S
C720 C722 1.434 . S
C721 C716 1.425 . S
C721 C718 1.427 . S
C721 C719 1.415 1_455 S
C722 H712 0.930 . S
C722 C720 1.434 . S
C722 C723 1.362 . S
C723 H713 0.930 . S
C723 C716 1.409 . S
C723 C722 1.362 . S
H724 C730 0.930 . S
H725 C733 0.930 . S
H726 C734 0.930 . S
H727 C735 0.930 . S
H728 C738 0.930 . S
H729 C739 0.930 . S
C730 H724 0.930 . S
C730 C731 1.355 . S
C730 C732 1.415 . S
C731 C730 1.355 . S
C731 C733 1.419 . S
C732 C730 1.415 . S
C732 C737 1.425 . S
C732 C739 1.409 . S
C733 H725 0.930 . S
C733 C731 1.419 . S
C733 C734 1.362 . S
C734 H726 0.930 . S
C734 C733 1.362 . S
C734 C737 1.409 . S
C735 H727 0.930 . S
C735 C736 1.355 . S
C735 C737 1.415 . S
C736 C735 1.355 . S
C736 C738 1.419 . S
C737 C732 1.425 . S
C737 C734 1.409 . S
C737 C735 1.415 . S
C738 H728 0.930 . S
C738 C736 1.419 . S
C738 C739 1.362 . S
C739 H729 0.930 . S
C739 C732 1.409 . S
C739 C738 1.362 . S
H740 C746 0.930 . S
H741 C749 0.930 . S
H742 C750 0.930 . S
H743 C751 0.930 . S
H744 C754 0.930 . S
H745 C755 0.930 . S
C746 H740 0.930 . S
C746 C747 1.355 . S
C746 C748 1.415 . S
C747 C746 1.355 . S
C747 C749 1.419 . S
C748 C746 1.415 . S
C748 C753 1.425 . S
C748 C755 1.409 1_565 S
C749 H741 0.930 . S
C749 C747 1.419 . S
C749 C750 1.362 . S
C750 H742 0.930 . S
C750 C749 1.362 . S
C750 C753 1.409 . S
C751 H743 0.930 . S
C751 C752 1.355 1_565 S
C751 C753 1.415 . S
C752 C751 1.355 1_545 S
C752 C754 1.419 . S
C753 C748 1.425 . S
C753 C750 1.409 . S
C753 C751 1.415 . S
C754 H744 0.930 . S
C754 C752 1.419 . S
C754 C755 1.362 . S
C755 H745 0.930 . S
C755 C748 1.409 1_545 S
C755 C754 1.362 . S
H756 C762 0.930 . S
H757 C765 0.930 . S
H758 C766 0.930 . S
H759 C767 0.930 . S
H760 C770 0.930 . S
H761 C771 0.930 . S
C762 H756 0.930 . S
C762 C763 1.355 . S
C762 C764 1.415 . S
C763 C762 1.355 . S
C763 C765 1.419 . S
C764 C762 1.415 . S
C764 C769 1.425 . S
C764 C771 1.409 . S
C765 H757 0.930 . S
C765 C763 1.419 . S
C765 C766 1.362 . S
C766 H758 0.930 . S
C766 C765 1.362 . S
C766 C769 1.409 . S
C767 H759 0.930 . S
C767 C768 1.355 . S
C767 C769 1.415 . S
C768 C767 1.355 . S
C768 C770 1.419 . S
C769 C764 1.425 . S
C769 C766 1.409 . S
C769 C767 1.415 . S
C770 H760 0.930 . S
C770 C768 1.419 . S
C770 C771 1.362 . S
C771 H761 0.930 . S
C771 C764 1.409 . S
C771 C770 1.362 . S
H772 C778 0.930 . S
H773 C781 0.930 . S
H774 C782 0.930 . S
H775 C783 0.930 . S
H776 C786 0.930 . S
H777 C787 0.930 . S
C778 H772 0.930 . S
C778 C779 1.355 . S
C778 C780 1.415 . S
C779 C778 1.355 . S
C779 C781 1.419 . S
C780 C778 1.415 . S
C780 C785 1.425 . S
C780 C787 1.409 . S
C781 H773 0.930 . S
C781 C779 1.419 . S
C781 C782 1.362 . S
C782 H774 0.930 . S
C782 C781 1.362 . S
C782 C785 1.409 . S
C783 H775 0.930 . S
C783 C784 1.355 . S
C783 C785 1.415 . S
C784 C783 1.355 . S
C784 C786 1.419 . S
C785 C780 1.425 . S
C785 C782 1.409 . S
C785 C783 1.415 . S
C786 H776 0.930 . S
C786 C784 1.419 . S
C786 C787 1.362 . S
C787 H777 0.930 . S
C787 C780 1.409 . S
C787 C786 1.362 . S
H788 C794 0.930 . S
H789 C797 0.930 . S
H790 C798 0.930 . S
H791 C799 0.930 . S
H792 C802 0.930 . S
H793 C803 0.930 . S
C794 H788 0.930 . S
C794 C795 1.355 . S
C794 C796 1.415 . S
C795 C794 1.355 . S
C795 C797 1.419 . S
C796 C794 1.415 . S
C796 C801 1.425 . S
C796 C803 1.409 . S
C797 H789 0.930 . S
C797 C795 1.419 . S
C797 C798 1.362 . S
C798 H790 0.930 . S
C798 C797 1.362 . S
C798 C801 1.409 . S
C799 H791 0.930 . S
C799 C800 1.355 . S
C799 C801 1.415 . S
C800 C799 1.355 . S
C800 C802 1.419 . S
C801 C796 1.425 . S
C801 C798 1.409 . S
C801 C799 1.415 . S
C802 H792 0.930 . S
C802 C800 1.419 . S
C802 C803 1.362 . S
C803 H793 0.930 . S
C803 C796 1.409 . S
C803 C802 1.362 . S
H804 C810 0.930 . S
H805 C813 0.930 . S
H806 C814 0.930 . S
H807 C815 0.930 . S
H808 C818 0.930 1_556 S
H809 C819 0.930 . S
C810 H804 0.930 . S
C810 C811 1.355 . S
C810 C812 1.415 . S
C811 C810 1.355 . S
C811 C813 1.419 . S
C812 C810 1.415 . S
C812 C817 1.425 . S
C812 C819 1.409 . S
C813 H805 0.930 . S
C813 C811 1.419 . S
C813 C814 1.362 . S
C814 H806 0.930 . S
C814 C813 1.362 . S
C814 C817 1.409 . S
C815 H807 0.930 . S
C815 C816 1.355 . S
C815 C817 1.415 . S
C816 C815 1.355 . S
C816 C818 1.419 . S
C817 C812 1.425 . S
C817 C814 1.409 . S
C817 C815 1.415 . S
C818 H808 0.930 1_554 S
C818 C816 1.419 . S
C818 C819 1.362 . S
C819 H809 0.930 . S
C819 C812 1.409 . S
C819 C818 1.362 . S
H820 C826 0.930 . S
H821 C829 0.930 . S
H822 C830 0.930 . S
H823 C831 0.930 . S
H824 C834 0.930 . S
H825 C835 0.930 . S
C826 H820 0.930 . S
C826 C827 1.355 . S
C826 C828 1.415 . S
C827 C826 1.355 . S
C827 C829 1.419 . S
C828 C826 1.415 . S
C828 C833 1.425 . S
C828 C835 1.409 . S
C829 H821 0.930 . S
C829 C827 1.419 . S
C829 C830 1.362 . S
C830 H822 0.930 . S
C830 C829 1.362 . S
C830 C833 1.409 . S
C831 H823 0.930 . S
C831 C832 1.355 . S
C831 C833 1.415 . S
C832 C831 1.355 . S
C832 C834 1.419 . S
C833 C828 1.425 . S
C833 C830 1.409 . S
C833 C831 1.415 . S
C834 H824 0.930 . S
C834 C832 1.419 . S
C834 C835 1.362 . S
C835 H825 0.930 . S
C835 C828 1.409 . S
C835 C834 1.362 . S
H836 C842 0.930 . S
H837 C845 0.930 . S
H838 C846 0.930 . S
H839 C847 0.930 . S
H840 C850 0.930 1_556 S
H841 C851 0.930 . S
C842 H836 0.930 . S
C842 C843 1.355 . S
C842 C844 1.415 . S
C843 C842 1.355 . S
C843 C845 1.419 . S
C844 C842 1.415 . S
C844 C849 1.425 . S
C844 C851 1.409 . S
C845 H837 0.930 . S
C845 C843 1.419 . S
C845 C846 1.362 . S
C846 H838 0.930 . S
C846 C845 1.362 . S
C846 C849 1.409 . S
C847 H839 0.930 . S
C847 C848 1.355 . S
C847 C849 1.415 . S
C848 C847 1.355 . S
C848 C850 1.419 . S
C849 C844 1.425 . S
C849 C846 1.409 . S
C849 C847 1.415 . S
C850 H840 0.930 1_554 S
C850 C848 1.419 . S
C850 C851 1.362 . S
C851 H841 0.930 . S
C851 C844 1.409 . S
C851 C850 1.362 . S
H852 C858 0.930 . S
H853 C861 0.930 . S
H854 C862 0.930 . S
H855 C863 0.930 . S
H856 C866 0.930 . S
H857 C867 0.930 . S
C858 H852 0.930 . S
C858 C859 1.355 . S
C858 C860 1.415 . S
C859 C858 1.355 . S
C859 C861 1.419 . S
C860 C858 1.415 . S
C860 C865 1.425 . S
C860 C867 1.409 . S
C861 H853 0.930 . S
C861 C859 1.419 . S
C861 C862 1.362 . S
C862 H854 0.930 . S
C862 C861 1.362 . S
C862 C865 1.409 . S
C863 H855 0.930 . S
C863 C864 1.355 . S
C863 C865 1.415 . S
C864 C863 1.355 . S
C864 C866 1.419 . S
C865 C860 1.425 . S
C865 C862 1.409 . S
C865 C863 1.415 . S
C866 H856 0.930 . S
C866 C864 1.419 . S
C866 C867 1.362 . S
C867 H857 0.930 . S
C867 C860 1.409 . S
C867 C866 1.362 . S
H868 C874 0.930 . S
H869 C877 0.930 . S
H870 C878 0.930 . S
H871 C879 0.930 . S
H872 C882 0.930 . S
H873 C883 0.930 . S
C874 H868 0.930 . S
C874 C875 1.355 . S
C874 C876 1.415 . S
C875 C874 1.355 . S
C875 C877 1.419 . S
C876 C874 1.415 . S
C876 C881 1.425 . S
C876 C883 1.409 . S
C877 H869 0.930 . S
C877 C875 1.419 . S
C877 C878 1.362 . S
C878 H870 0.930 . S
C878 C877 1.362 . S
C878 C881 1.409 . S
C879 H871 0.930 . S
C879 C880 1.355 . S
C879 C881 1.415 . S
C880 C879 1.355 . S
C880 C882 1.419 . S
C881 C876 1.425 . S
C881 C878 1.409 . S
C881 C879 1.415 . S
C882 H872 0.930 . S
C882 C880 1.419 . S
C882 C883 1.362 . S
C883 H873 0.930 . S
C883 C876 1.409 . S
C883 C882 1.362 . S
H884 C890 0.930 . S
H885 C893 0.930 . S
H886 C894 0.930 . S
H887 C895 0.930 . S
H888 C898 0.930 . S
H889 C899 0.930 . S
C890 H884 0.930 . S
C890 C891 1.355 . S
C890 C892 1.415 . S
C891 C890 1.355 . S
C891 C893 1.419 . S
C892 C890 1.415 . S
C892 C897 1.425 . S
C892 C899 1.409 . S
C893 H885 0.930 . S
C893 C891 1.419 . S
C893 C894 1.362 . S
C894 H886 0.930 . S
C894 C893 1.362 . S
C894 C897 1.409 . S
C895 H887 0.930 . S
C895 C896 1.355 . S
C895 C897 1.415 . S
C896 C895 1.355 . S
C896 C898 1.419 . S
C897 C892 1.425 . S
C897 C894 1.409 . S
C897 C895 1.415 . S
C898 H888 0.930 . S
C898 C896 1.419 . S
C898 C899 1.362 . S
C899 H889 0.930 . S
C899 C892 1.409 . S
C899 C898 1.362 . S
H900 C906 0.930 . S
H901 C909 0.930 1_554 S
H902 C910 0.930 . S
H903 C911 0.930 . S
H904 C914 0.930 . S
H905 C915 0.930 . S
C906 H900 0.930 . S
C906 C907 1.355 . S
C906 C908 1.415 . S
C907 C906 1.355 . S
C907 C909 1.419 . S
C908 C906 1.415 . S
C908 C913 1.425 . S
C908 C915 1.409 . S
C909 H901 0.930 1_556 S
C909 C907 1.419 . S
C909 C910 1.362 . S
C910 H902 0.930 . S
C910 C909 1.362 . S
C910 C913 1.409 . S
C911 H903 0.930 . S
C911 C912 1.355 . S
C911 C913 1.415 . S
C912 C911 1.355 . S
C912 C914 1.419 . S
C913 C908 1.425 . S
C913 C910 1.409 . S
C913 C911 1.415 . S
C914 H904 0.930 . S
C914 C912 1.419 . S
C914 C915 1.362 . S
C915 H905 0.930 . S
C915 C908 1.409 . S
C915 C914 1.362 . S
H916 C922 0.930 . S
H917 C925 0.930 . S
H918 C926 0.930 . S
H919 C927 0.930 . S
H920 C930 0.930 . S
H921 C931 0.930 . S
C922 H916 0.930 . S
C922 C923 1.355 . S
C922 C924 1.415 . S
C923 C922 1.355 . S
C923 C925 1.419 . S
C924 C922 1.415 . S
C924 C929 1.425 . S
C924 C931 1.409 . S
C925 H917 0.930 . S
C925 C923 1.419 . S
C925 C926 1.362 . S
C926 H918 0.930 . S
C926 C925 1.362 . S
C926 C929 1.409 . S
C927 H919 0.930 . S
C927 C928 1.355 . S
C927 C929 1.415 . S
C928 C927 1.355 . S
C928 C930 1.419 . S
C929 C924 1.425 . S
C929 C926 1.409 . S
C929 C927 1.415 . S
C930 H920 0.930 . S
C930 C928 1.419 . S
C930 C931 1.362 . S
C931 H921 0.930 . S
C931 C924 1.409 . S
C931 C930 1.362 . S
H932 C938 0.930 . S
H933 C941 0.930 . S
H934 C942 0.930 . S
H935 C943 0.930 . S
H936 C946 0.930 1_554 S
H937 C947 0.930 . S
C938 H932 0.930 . S
C938 C939 1.355 . S
C938 C940 1.415 . S
C939 C938 1.355 . S
C939 C941 1.419 . S
C940 C938 1.415 . S
C940 C945 1.425 . S
C940 C947 1.409 . S
C941 H933 0.930 . S
C941 C939 1.419 . S
C941 C942 1.362 . S
C942 H934 0.930 . S
C942 C941 1.362 . S
C942 C945 1.409 . S
C943 H935 0.930 . S
C943 C944 1.355 . S
C943 C945 1.415 . S
C944 C943 1.355 . S
C944 C946 1.419 . S
C945 C940 1.425 . S
C945 C942 1.409 . S
C945 C943 1.415 . S
C946 H936 0.930 1_556 S
C946 C944 1.419 . S
C946 C947 1.362 . S
C947 H937 0.930 . S
C947 C940 1.409 . S
C947 C946 1.362 . S
H948 C954 0.965 . S
H949 C957 0.930 . S
H950 C958 0.930 . S
H951 C959 0.966 . S
H952 C962 0.930 . S
H953 C963 0.930 . S
C954 H948 0.965 . S
C954 C955 1.355 . S
C954 C956 1.415 1_455 S
C955 C954 1.355 . S
C955 C957 1.419 . S
C956 C954 1.415 1_655 S
C956 C961 1.425 1_655 S
C956 C963 1.409 . S
C957 H949 0.930 . S
C957 C955 1.419 . S
C957 C958 1.362 . S
C958 H950 0.930 . S
C958 C957 1.362 . S
C958 C961 1.409 . S
C959 H951 0.966 . S
C959 C960 1.355 . S
C959 C961 1.415 1_655 S
C960 C959 1.355 . S
C960 C962 1.419 . S
C961 C956 1.425 1_455 S
C961 C958 1.409 . S
C961 C959 1.415 1_455 S
C962 H952 0.930 . S
C962 C960 1.419 . S
C962 C963 1.362 . S
C963 H953 0.930 . S
C963 C956 1.409 . S
C963 C962 1.362 . S
H964 C970 0.930 . S
H965 C973 0.930 . S
H966 C974 0.930 . S
H967 C975 0.930 . S
H968 C978 0.930 . S
H969 C979 0.930 . S
C970 H964 0.930 . S
C970 C971 1.355 . S
C970 C972 1.415 . S
C971 C970 1.355 . S
C971 C973 1.419 . S
C972 C970 1.415 . S
C972 C977 1.425 . S
C972 C979 1.409 . S
C973 H965 0.930 . S
C973 C971 1.419 . S
C973 C974 1.362 . S
C974 H966 0.930 . S
C974 C973 1.362 . S
C974 C977 1.409 . S
C975 H967 0.930 . S
C975 C976 1.355 . S
C975 C977 1.415 . S
C976 C975 1.355 . S
C976 C978 1.419 . S
C977 C972 1.425 . S
C977 C974 1.409 . S
C977 C975 1.415 . S
C978 H968 0.930 . S
C978 C976 1.419 . S
C978 C979 1.362 . S
C979 H969 0.930 . S
C979 C972 1.409 . S
C979 C978 1.362 . S
H980 C986 0.930 1_565 S
H981 C989 0.930 . S
H982 C990 0.930 . S
H983 C991 0.930 1_545 S
H984 C994 0.930 . S
H985 C995 0.930 . S
C986 H980 0.930 1_545 S
C986 C987 1.355 . S
C986 C988 1.415 1_545 S
C987 C986 1.355 . S
C987 C989 1.419 . S
C988 C986 1.415 1_565 S
C988 C993 1.425 1_565 S
C988 C995 1.409 . S
C989 H981 0.930 . S
C989 C987 1.419 . S
C989 C990 1.362 . S
C990 H982 0.930 . S
C990 C989 1.362 . S
C990 C993 1.409 . S
C991 H983 0.930 1_565 S
C991 C992 1.355 . S
C991 C993 1.415 1_565 S
C992 C991 1.355 . S
C992 C994 1.419 . S
C993 C988 1.425 1_545 S
C993 C990 1.409 . S
C993 C991 1.415 1_545 S
C994 H984 0.930 . S
C994 C992 1.419 . S
C994 C995 1.362 . S
C995 H985 0.930 . S
C995 C988 1.409 . S
C995 C994 1.362 . S
H996 C1002 0.930 1_545 S
H997 C1005 0.930 . S
H998 C1006 0.930 . S
H999 C1007 0.930 1_565 S
H1000 C1010 0.930 . S
H1001 C1011 0.930 . S
C1002 H996 0.930 1_565 S
C1002 C1003 1.355 . S
C1002 C1004 1.415 1_565 S
C1003 C1002 1.355 . S
C1003 C1005 1.419 . S
C1004 C1002 1.415 1_545 S
C1004 C1009 1.425 1_545 S
C1004 C1011 1.409 . S
C1005 H997 0.930 . S
C1005 C1003 1.419 . S
C1005 C1006 1.362 . S
C1006 H998 0.930 . S
C1006 C1005 1.362 . S
C1006 C1009 1.409 . S
C1007 H999 0.930 1_545 S
C1007 C1008 1.355 . S
C1007 C1009 1.415 1_545 S
C1008 C1007 1.355 . S
C1008 C1010 1.419 . S
C1009 C1004 1.425 1_565 S
C1009 C1006 1.409 . S
C1009 C1007 1.415 1_565 S
C1010 H1000 0.930 . S
C1010 C1008 1.419 . S
C1010 C1011 1.362 . S
C1011 H1001 0.930 . S
C1011 C1004 1.409 . S
C1011 C1010 1.362 . S
H1012 C1018 0.930 . S
H1013 C1021 0.930 . S
H1014 C1022 0.932 1_455 S
H1015 C1023 0.930 . S
H1016 C1026 0.930 . S
H1017 C1027 0.933 1_655 S
C1018 H1012 0.930 . S
C1018 C1019 1.355 . S
C1018 C1020 1.415 . S
C1019 C1018 1.355 . S
C1019 C1021 1.419 . S
C1020 C1018 1.415 . S
C1020 C1025 1.425 1_655 S
C1020 C1027 1.409 1_655 S
C1021 H1013 0.930 . S
C1021 C1019 1.419 . S
C1021 C1022 1.362 . S
C1022 H1014 0.932 1_655 S
C1022 C1021 1.362 . S
C1022 C1025 1.409 1_655 S
C1023 H1015 0.930 . S
C1023 C1024 1.355 . S
C1023 C1025 1.415 . S
C1024 C1023 1.355 . S
C1024 C1026 1.419 . S
C1025 C1020 1.425 1_455 S
C1025 C1022 1.409 1_455 S
C1025 C1023 1.415 . S
C1026 H1016 0.930 . S
C1026 C1024 1.419 . S
C1026 C1027 1.362 . S
C1027 H1017 0.933 1_455 S
C1027 C1020 1.409 1_455 S
C1027 C1026 1.362 . S
H1028 C1034 0.930 . S
H1029 C1037 0.930 . S
H1030 C1038 0.930 . S
H1031 C1039 0.930 . S
H1032 C1042 0.930 . S
H1033 C1043 0.930 . S
C1034 H1028 0.930 . S
C1034 C1035 1.355 . S
C1034 C1036 1.415 . S
C1035 C1034 1.355 . S
C1035 C1037 1.419 . S
C1036 C1034 1.415 . S
C1036 C1041 1.425 . S
C1036 C1043 1.409 . S
C1037 H1029 0.930 . S
C1037 C1035 1.419 . S
C1037 C1038 1.362 . S
C1038 H1030 0.930 . S
C1038 C1037 1.362 . S
C1038 C1041 1.409 . S
C1039 H1031 0.930 . S
C1039 C1040 1.355 . S
C1039 C1041 1.415 . S
C1040 C1039 1.355 . S
C1040 C1042 1.419 . S
C1041 C1036 1.425 . S
C1041 C1038 1.409 . S
C1041 C1039 1.415 . S
C1042 H1032 0.930 . S
C1042 C1040 1.419 . S
C1042 C1043 1.362 . S
C1043 H1033 0.930 . S
C1043 C1036 1.409 . S
C1043 C1042 1.362 . S
H1044 C1050 0.930 . S
H1045 C1053 0.930 . S
H1046 C1054 0.930 . S
H1047 C1055 0.930 . S
H1048 C1058 0.930 . S
H1049 C1059 0.930 . S
C1050 H1044 0.930 . S
C1050 C1051 1.355 . S
C1050 C1052 1.415 . S
C1051 C1050 1.355 . S
C1051 C1053 1.419 . S
C1052 C1050 1.415 . S
C1052 C1057 1.425 . S
C1052 C1059 1.409 . S
C1053 H1045 0.930 . S
C1053 C1051 1.419 . S
C1053 C1054 1.362 . S
C1054 H1046 0.930 . S
C1054 C1053 1.362 . S
C1054 C1057 1.409 . S
C1055 H1047 0.930 . S
C1055 C1056 1.355 . S
C1055 C1057 1.415 . S
C1056 C1055 1.355 . S
C1056 C1058 1.419 . S
C1057 C1052 1.425 . S
C1057 C1054 1.409 . S
C1057 C1055 1.415 . S
C1058 H1048 0.930 . S
C1058 C1056 1.419 . S
C1058 C1059 1.362 . S
C1059 H1049 0.930 . S
C1059 C1052 1.409 . S
C1059 C1058 1.362 . S
H1060 C1066 0.930 . S
H1061 C1069 0.930 . S
H1062 C1070 0.930 . S
H1063 C1071 0.930 . S
H1064 C1074 0.930 . S
H1065 C1075 0.930 . S
C1066 H1060 0.930 . S
C1066 C1067 1.355 . S
C1066 C1068 1.415 . S
C1067 C1066 1.355 . S
C1067 C1069 1.419 . S
C1068 C1066 1.415 . S
C1068 C1073 1.425 . S
C1068 C1075 1.409 . S
C1069 H1061 0.930 . S
C1069 C1067 1.419 . S
C1069 C1070 1.362 . S
C1070 H1062 0.930 . S
C1070 C1069 1.362 . S
C1070 C1073 1.409 . S
C1071 H1063 0.930 . S
C1071 C1072 1.355 . S
C1071 C1073 1.415 . S
C1072 C1071 1.355 . S
C1072 C1074 1.419 . S
C1073 C1068 1.425 . S
C1073 C1070 1.409 . S
C1073 C1071 1.415 . S
C1074 H1064 0.930 . S
C1074 C1072 1.419 . S
C1074 C1075 1.362 . S
C1075 H1065 0.930 . S
C1075 C1068 1.409 . S
C1075 C1074 1.362 . S
H1076 C1082 0.930 . S
H1077 C1085 0.930 . S
H1078 C1086 0.930 . S
H1079 C1087 0.930 . S
H1080 C1090 0.930 . S
H1081 C1091 0.930 . S
C1082 H1076 0.930 . S
C1082 C1083 1.355 . S
C1082 C1084 1.415 . S
C1083 C1082 1.355 . S
C1083 C1085 1.419 . S
C1084 C1082 1.415 . S
C1084 C1089 1.425 . S
C1084 C1091 1.409 . S
C1085 H1077 0.930 . S
C1085 C1083 1.419 . S
C1085 C1086 1.362 . S
C1086 H1078 0.930 . S
C1086 C1085 1.362 . S
C1086 C1089 1.409 . S
C1087 H1079 0.930 . S
C1087 C1088 1.355 . S
C1087 C1089 1.415 . S
C1088 C1087 1.355 . S
C1088 C1090 1.419 . S
C1089 C1084 1.425 . S
C1089 C1086 1.409 . S
C1089 C1087 1.415 . S
C1090 H1080 0.930 . S
C1090 C1088 1.419 . S
C1090 C1091 1.362 . S
C1091 H1081 0.930 . S
C1091 C1084 1.409 . S
C1091 C1090 1.362 . S
H1092 C1098 0.930 . S
H1093 C1101 0.930 . S
H1094 C1102 0.930 . S
H1095 C1103 0.930 . S
H1096 C1106 0.930 . S
H1097 C1107 0.930 . S
C1098 H1092 0.930 . S
C1098 C1099 1.355 . S
C1098 C1100 1.415 . S
C1099 C1098 1.355 . S
C1099 C1101 1.419 . S
C1100 C1098 1.415 . S
C1100 C1105 1.425 . S
C1100 C1107 1.409 . S
C1101 H1093 0.930 . S
C1101 C1099 1.419 . S
C1101 C1102 1.362 . S
C1102 H1094 0.930 . S
C1102 C1101 1.362 . S
C1102 C1105 1.409 . S
C1103 H1095 0.930 . S
C1103 C1104 1.355 . S
C1103 C1105 1.415 . S
C1104 C1103 1.355 . S
C1104 C1106 1.419 . S
C1105 C1100 1.425 . S
C1105 C1102 1.409 . S
C1105 C1103 1.415 . S
C1106 H1096 0.930 . S
C1106 C1104 1.419 . S
C1106 C1107 1.362 . S
C1107 H1097 0.930 . S
C1107 C1100 1.409 . S
C1107 C1106 1.362 . S
H1108 C1114 0.930 . S
H1109 C1117 0.930 . S
H1110 C1118 0.930 . S
H1111 C1119 0.930 . S
H1112 C1122 0.930 . S
H1113 C1123 0.930 . S
C1114 H1108 0.930 . S
C1114 C1115 1.355 . S
C1114 C1116 1.415 . S
C1115 C1114 1.355 . S
C1115 C1117 1.419 . S
C1116 C1114 1.415 . S
C1116 C1121 1.425 . S
C1116 C1123 1.409 . S
C1117 H1109 0.930 . S
C1117 C1115 1.419 . S
C1117 C1118 1.362 . S
C1118 H1110 0.930 . S
C1118 C1117 1.362 . S
C1118 C1121 1.409 . S
C1119 H1111 0.930 . S
C1119 C1120 1.355 . S
C1119 C1121 1.415 . S
C1120 C1119 1.355 . S
C1120 C1122 1.419 . S
C1121 C1116 1.425 . S
C1121 C1118 1.409 . S
C1121 C1119 1.415 . S
C1122 H1112 0.930 . S
C1122 C1120 1.419 . S
C1122 C1123 1.362 . S
C1123 H1113 0.930 . S
C1123 C1116 1.409 . S
C1123 C1122 1.362 . S
H1124 C1130 0.930 . S
H1125 C1133 0.930 . S
H1126 C1134 0.930 . S
H1127 C1135 0.930 . S
H1128 C1138 0.930 . S
H1129 C1139 0.930 . S
C1130 H1124 0.930 . S
C1130 C1131 1.355 . S
C1130 C1132 1.415 . S
C1131 C1130 1.355 . S
C1131 C1133 1.419 . S
C1132 C1130 1.415 . S
C1132 C1137 1.425 . S
C1132 C1139 1.409 . S
C1133 H1125 0.930 . S
C1133 C1131 1.419 . S
C1133 C1134 1.362 . S
C1134 H1126 0.930 . S
C1134 C1133 1.362 . S
C1134 C1137 1.409 . S
C1135 H1127 0.930 . S
C1135 C1136 1.355 . S
C1135 C1137 1.415 . S
C1136 C1135 1.355 . S
C1136 C1138 1.419 . S
C1137 C1132 1.425 . S
C1137 C1134 1.409 . S
C1137 C1135 1.415 . S
C1138 H1128 0.930 . S
C1138 C1136 1.419 . S
C1138 C1139 1.362 . S
C1139 H1129 0.930 . S
C1139 C1132 1.409 . S
C1139 C1138 1.362 . S
H1140 C1146 0.930 . S
H1141 C1149 0.930 . S
H1142 C1150 0.930 . S
H1143 C1151 0.930 . S
H1144 C1154 0.930 . S
H1145 C1155 0.930 . S
C1146 H1140 0.930 . S
C1146 C1147 1.355 . S
C1146 C1148 1.415 . S
C1147 C1146 1.355 . S
C1147 C1149 1.419 . S
C1148 C1146 1.415 . S
C1148 C1153 1.425 . S
C1148 C1155 1.409 . S
C1149 H1141 0.930 . S
C1149 C1147 1.419 . S
C1149 C1150 1.362 . S
C1150 H1142 0.930 . S
C1150 C1149 1.362 . S
C1150 C1153 1.409 . S
C1151 H1143 0.930 . S
C1151 C1152 1.355 . S
C1151 C1153 1.415 . S
C1152 C1151 1.355 . S
C1152 C1154 1.419 . S
C1153 C1148 1.425 . S
C1153 C1150 1.409 . S
C1153 C1151 1.415 . S
C1154 H1144 0.930 . S
C1154 C1152 1.419 . S
C1154 C1155 1.362 . S
C1155 H1145 0.930 . S
C1155 C1148 1.409 . S
C1155 C1154 1.362 . S
H1156 C1162 0.930 . S
H1157 C1165 0.930 . S
H1158 C1166 0.930 . S
H1159 C1167 0.930 . S
H1160 C1170 0.930 . S
H1161 C1171 0.930 . S
C1162 H1156 0.930 . S
C1162 C1163 1.355 . S
C1162 C1164 1.415 . S
C1163 C1162 1.355 . S
C1163 C1165 1.419 . S
C1164 C1162 1.415 . S
C1164 C1169 1.425 . S
C1164 C1171 1.409 . S
C1165 H1157 0.930 . S
C1165 C1163 1.419 . S
C1165 C1166 1.362 . S
C1166 H1158 0.930 . S
C1166 C1165 1.362 . S
C1166 C1169 1.409 . S
C1167 H1159 0.930 . S
C1167 C1168 1.355 . S
C1167 C1169 1.415 . S
C1168 C1167 1.355 . S
C1168 C1170 1.419 . S
C1169 C1164 1.425 . S
C1169 C1166 1.409 . S
C1169 C1167 1.415 . S
C1170 H1160 0.930 . S
C1170 C1168 1.419 . S
C1170 C1171 1.362 . S
C1171 H1161 0.930 . S
C1171 C1164 1.409 . S
C1171 C1170 1.362 . S
H1172 C1178 0.930 . S
H1173 C1181 0.930 . S
H1174 C1182 0.930 . S
H1175 C1183 0.930 . S
H1176 C1186 0.930 . S
H1177 C1187 0.930 . S
C1178 H1172 0.930 . S
C1178 C1179 1.355 . S
C1178 C1180 1.415 . S
C1179 C1178 1.355 . S
C1179 C1181 1.419 . S
C1180 C1178 1.415 . S
C1180 C1185 1.425 . S
C1180 C1187 1.409 . S
C1181 H1173 0.930 . S
C1181 C1179 1.419 . S
C1181 C1182 1.362 . S
C1182 H1174 0.930 . S
C1182 C1181 1.362 . S
C1182 C1185 1.409 . S
C1183 H1175 0.930 . S
C1183 C1184 1.355 . S
C1183 C1185 1.415 . S
C1184 C1183 1.355 . S
C1184 C1186 1.419 . S
C1185 C1180 1.425 . S
C1185 C1182 1.409 . S
C1185 C1183 1.415 . S
C1186 H1176 0.930 . S
C1186 C1184 1.419 . S
C1186 C1187 1.362 . S
C1187 H1177 0.930 . S
C1187 C1180 1.409 . S
C1187 C1186 1.362 . S
H1188 C1194 0.930 . S
H1189 C1197 0.930 . S
H1190 C1198 0.930 . S
H1191 C1199 0.930 . S
H1192 C1202 0.930 . S
H1193 C1203 0.930 . S
C1194 H1188 0.930 . S
C1194 C1195 1.355 . S
C1194 C1196 1.415 . S
C1195 C1194 1.355 . S
C1195 C1197 1.419 . S
C1196 C1194 1.415 . S
C1196 C1201 1.425 . S
C1196 C1203 1.409 . S
C1197 H1189 0.930 . S
C1197 C1195 1.419 . S
C1197 C1198 1.362 . S
C1198 H1190 0.930 . S
C1198 C1197 1.362 . S
C1198 C1201 1.409 . S
C1199 H1191 0.930 . S
C1199 C1200 1.355 . S
C1199 C1201 1.415 . S
C1200 C1199 1.355 . S
C1200 C1202 1.419 . S
C1201 C1196 1.425 . S
C1201 C1198 1.409 . S
C1201 C1199 1.415 . S
C1202 H1192 0.930 . S
C1202 C1200 1.419 . S
C1202 C1203 1.362 . S
C1203 H1193 0.930 . S
C1203 C1196 1.409 . S
C1203 C1202 1.362 . S
H1204 C1210 0.930 . S
H1205 C1213 0.930 . S
H1206 C1214 0.930 . S
H1207 C1215 0.930 . S
H1208 C1218 0.930 . S
H1209 C1219 0.930 . S
C1210 H1204 0.930 . S
C1210 C1211 1.355 . S
C1210 C1212 1.415 . S
C1211 C1210 1.355 . S
C1211 C1213 1.419 . S
C1212 C1210 1.415 . S
C1212 C1217 1.425 . S
C1212 C1219 1.409 . S
C1213 H1205 0.930 . S
C1213 C1211 1.419 . S
C1213 C1214 1.362 . S
C1214 H1206 0.930 . S
C1214 C1213 1.362 . S
C1214 C1217 1.409 . S
C1215 H1207 0.930 . S
C1215 C1216 1.355 . S
C1215 C1217 1.415 . S
C1216 C1215 1.355 . S
C1216 C1218 1.419 . S
C1217 C1212 1.425 . S
C1217 C1214 1.409 . S
C1217 C1215 1.415 . S
C1218 H1208 0.930 . S
C1218 C1216 1.419 . S
C1218 C1219 1.362 . S
C1219 H1209 0.930 . S
C1219 C1212 1.409 . S
C1219 C1218 1.362 . S
H1220 C1226 0.930 . S
H1221 C1229 0.930 . S
H1222 C1230 0.930 . S
H1223 C1231 0.930 . S
H1224 C1234 0.930 . S
H1225 C1235 0.930 . S
C1226 H1220 0.930 . S
C1226 C1227 1.355 . S
C1226 C1228 1.415 . S
C1227 C1226 1.355 . S
C1227 C1229 1.419 . S
C1228 C1226 1.415 . S
C1228 C1233 1.425 . S
C1228 C1235 1.409 . S
C1229 H1221 0.930 . S
C1229 C1227 1.419 . S
C1229 C1230 1.362 . S
C1230 H1222 0.930 . S
C1230 C1229 1.362 . S
C1230 C1233 1.409 . S
C1231 H1223 0.930 . S
C1231 C1232 1.355 . S
C1231 C1233 1.415 . S
C1232 C1231 1.355 . S
C1232 C1234 1.419 . S
C1233 C1228 1.425 . S
C1233 C1230 1.409 . S
C1233 C1231 1.415 . S
C1234 H1224 0.930 . S
C1234 C1232 1.419 . S
C1234 C1235 1.362 . S
C1235 H1225 0.930 . S
C1235 C1228 1.409 . S
C1235 C1234 1.362 . S
H1236 C1242 0.930 . S
H1237 C1245 0.930 . S
H1238 C1246 0.930 . S
H1239 C1247 0.930 . S
H1240 C1250 0.930 . S
H1241 C1251 0.930 . S
C1242 H1236 0.930 . S
C1242 C1243 1.355 1_655 S
C1242 C1244 1.415 . S
C1243 C1242 1.355 1_455 S
C1243 C1245 1.419 . S
C1244 C1242 1.415 . S
C1244 C1249 1.425 1_655 S
C1244 C1251 1.409 . S
C1245 H1237 0.930 . S
C1245 C1243 1.419 . S
C1245 C1246 1.362 . S
C1246 H1238 0.930 . S
C1246 C1245 1.362 . S
C1246 C1249 1.409 . S
C1247 H1239 0.930 . S
C1247 C1248 1.355 1_455 S
C1247 C1249 1.415 . S
C1248 C1247 1.355 1_655 S
C1248 C1250 1.419 . S
C1249 C1244 1.425 1_455 S
C1249 C1246 1.409 . S
C1249 C1247 1.415 . S
C1250 H1240 0.930 . S
C1250 C1248 1.419 . S
C1250 C1251 1.362 . S
C1251 H1241 0.930 . S
C1251 C1244 1.409 . S
C1251 C1250 1.362 . S
H1252 C1258 0.930 . S
H1253 C1261 0.930 . S
H1254 C1262 0.930 . S
H1255 C1263 0.930 . S
H1256 C1266 0.930 . S
H1257 C1267 0.930 . S
C1258 H1252 0.930 . S
C1258 C1259 1.355 . S
C1258 C1260 1.415 . S
C1259 C1258 1.355 . S
C1259 C1261 1.419 . S
C1260 C1258 1.415 . S
C1260 C1265 1.425 . S
C1260 C1267 1.409 . S
C1261 H1253 0.930 . S
C1261 C1259 1.419 . S
C1261 C1262 1.362 . S
C1262 H1254 0.930 . S
C1262 C1261 1.362 . S
C1262 C1265 1.409 . S
C1263 H1255 0.930 . S
C1263 C1264 1.355 . S
C1263 C1265 1.415 . S
C1264 C1263 1.355 . S
C1264 C1266 1.419 . S
C1265 C1260 1.425 . S
C1265 C1262 1.409 . S
C1265 C1263 1.415 . S
C1266 H1256 0.930 . S
C1266 C1264 1.419 . S
C1266 C1267 1.362 . S
C1267 H1257 0.930 . S
C1267 C1260 1.409 . S
C1267 C1266 1.362 . S
H1268 C1274 0.930 . S
H1269 C1277 0.930 . S
H1270 C1278 0.930 . S
H1271 C1279 0.930 . S
H1272 C1282 0.930 . S
H1273 C1283 0.930 . S
C1274 H1268 0.930 . S
C1274 C1275 1.355 . S
C1274 C1276 1.415 . S
C1275 C1274 1.355 . S
C1275 C1277 1.419 . S
C1276 C1274 1.415 . S
C1276 C1281 1.425 1_545 S
C1276 C1283 1.409 . S
C1277 H1269 0.930 . S
C1277 C1275 1.419 . S
C1277 C1278 1.362 1_545 S
C1278 H1270 0.930 . S
C1278 C1277 1.362 1_565 S
C1278 C1281 1.409 . S
C1279 H1271 0.930 . S
C1279 C1280 1.355 . S
C1279 C1281 1.415 . S
C1280 C1279 1.355 . S
C1280 C1282 1.419 . S
C1281 C1276 1.425 1_565 S
C1281 C1278 1.409 . S
C1281 C1279 1.415 . S
C1282 H1272 0.930 . S
C1282 C1280 1.419 . S
C1282 C1283 1.362 1_565 S
C1283 H1273 0.930 . S
C1283 C1276 1.409 . S
C1283 C1282 1.362 1_545 S
H1284 C1290 0.930 . S
H1285 C1293 0.930 . S
H1286 C1294 0.930 . S
H1287 C1295 0.930 . S
H1288 C1298 0.930 . S
H1289 C1299 0.930 . S
C1290 H1284 0.930 . S
C1290 C1291 1.355 1_554 S
C1290 C1292 1.415 1_545 S
C1291 C1290 1.355 1_556 S
C1291 C1293 1.419 . S
C1292 C1290 1.415 1_565 S
C1292 C1297 1.425 1_564 S
C1292 C1299 1.409 . S
C1293 H1285 0.930 . S
C1293 C1291 1.419 . S
C1293 C1294 1.362 . S
C1294 H1286 0.930 . S
C1294 C1293 1.362 . S
C1294 C1297 1.409 . S
C1295 H1287 0.930 . S
C1295 C1296 1.355 1_556 S
C1295 C1297 1.415 1_565 S
C1296 C1295 1.355 1_554 S
C1296 C1298 1.419 . S
C1297 C1292 1.425 1_546 S
C1297 C1294 1.409 . S
C1297 C1295 1.415 1_545 S
C1298 H1288 0.930 . S
C1298 C1296 1.419 . S
C1298 C1299 1.362 . S
C1299 H1289 0.930 . S
C1299 C1292 1.409 . S
C1299 C1298 1.362 . S
H1300 C1306 0.975 . S
H1301 C1309 0.936 . S
H1302 C1310 0.930 . S
H1303 C1311 0.975 . S
H1304 C1314 0.936 . S
H1305 C1315 0.930 . S
C1306 H1300 0.975 . S
C1306 C1307 1.323 1_655 S
C1306 C1308 1.405 . S
C1307 C1306 1.323 1_455 S
C1307 C1309 1.400 1_554 S
C1308 C1306 1.405 . S
C1308 C1313 1.425 1_654 S
C1308 C1315 1.409 . S
C1309 H1301 0.936 . S
C1309 C1307 1.400 1_556 S
C1309 C1310 1.377 . S
C1310 H1302 0.930 . S
C1310 C1309 1.377 . S
C1310 C1313 1.409 . S
C1311 H1303 0.975 . S
C1311 C1312 1.323 1_455 S
C1311 C1313 1.405 . S
C1312 C1311 1.323 1_655 S
C1312 C1314 1.400 1_556 S
C1313 C1308 1.425 1_456 S
C1313 C1310 1.409 . S
C1313 C1311 1.405 . S
C1314 H1304 0.936 . S
C1314 C1312 1.400 1_554 S
C1314 C1315 1.377 . S
C1315 H1305 0.930 . S
C1315 C1308 1.409 . S
C1315 C1314 1.377 . S
H1316 C1322 0.930 . S
H1317 C1325 0.930 . S
H1318 C1326 0.930 . S
H1319 C1327 0.930 . S
H1320 C1330 0.930 . S
H1321 C1331 0.930 . S
C1322 H1316 0.930 . S
C1322 C1323 1.355 . S
C1322 C1324 1.415 . S
C1323 C1322 1.355 . S
C1323 C1325 1.419 1_554 S
C1324 C1322 1.415 . S
C1324 C1329 1.425 1_554 S
C1324 C1331 1.409 . S
C1325 H1317 0.930 . S
C1325 C1323 1.419 1_556 S
C1325 C1326 1.362 . S
C1326 H1318 0.930 . S
C1326 C1325 1.362 . S
C1326 C1329 1.409 . S
C1327 H1319 0.930 . S
C1327 C1328 1.355 . S
C1327 C1329 1.415 . S
C1328 C1327 1.355 . S
C1328 C1330 1.419 1_556 S
C1329 C1324 1.425 1_556 S
C1329 C1326 1.409 . S
C1329 C1327 1.415 . S
C1330 H1320 0.930 . S
C1330 C1328 1.419 1_554 S
C1330 C1331 1.362 . S
C1331 H1321 0.930 . S
C1331 C1324 1.409 . S
C1331 C1330 1.362 . S
H1332 C1338 0.930 . S
H1333 C1341 0.930 1_556 S
H1334 C1342 0.930 . S
H1335 C1343 0.930 . S
H1336 C1346 0.930 . S
H1337 C1347 0.930 . S
C1338 H1332 0.930 . S
C1338 C1339 1.355 . S
C1338 C1340 1.415 . S
C1339 C1338 1.355 . S
C1339 C1341 1.419 . S
C1340 C1338 1.415 . S
C1340 C1345 1.425 . S
C1340 C1347 1.409 . S
C1341 H1333 0.930 1_554 S
C1341 C1339 1.419 . S
C1341 C1342 1.362 . S
C1342 H1334 0.930 . S
C1342 C1341 1.362 . S
C1342 C1345 1.409 . S
C1343 H1335 0.930 . S
C1343 C1344 1.355 . S
C1343 C1345 1.415 . S
C1344 C1343 1.355 . S
C1344 C1346 1.419 . S
C1345 C1340 1.425 . S
C1345 C1342 1.409 . S
C1345 C1343 1.415 . S
C1346 H1336 0.930 . S
C1346 C1344 1.419 . S
C1346 C1347 1.362 . S
C1347 H1337 0.930 . S
C1347 C1340 1.409 . S
C1347 C1346 1.362 . S
H1348 C1354 0.930 . S
H1349 C1357 0.930 . S
H1350 C1358 0.930 . S
H1351 C1359 0.930 . S
H1352 C1362 0.930 1_556 S
H1353 C1363 0.930 . S
C1354 H1348 0.930 . S
C1354 C1355 1.355 . S
C1354 C1356 1.415 . S
C1355 C1354 1.355 . S
C1355 C1357 1.419 . S
C1356 C1354 1.415 . S
C1356 C1361 1.425 . S
C1356 C1363 1.409 . S
C1357 H1349 0.930 . S
C1357 C1355 1.419 . S
C1357 C1358 1.362 . S
C1358 H1350 0.930 . S
C1358 C1357 1.362 . S
C1358 C1361 1.409 . S
C1359 H1351 0.930 . S
C1359 C1360 1.355 . S
C1359 C1361 1.415 . S
C1360 C1359 1.355 . S
C1360 C1362 1.419 . S
C1361 C1356 1.425 . S
C1361 C1358 1.409 . S
C1361 C1359 1.415 . S
C1362 H1352 0.930 1_554 S
C1362 C1360 1.419 . S
C1362 C1363 1.362 . S
C1363 H1353 0.930 . S
C1363 C1356 1.409 . S
C1363 C1362 1.362 . S
H1364 C1370 0.930 . S
H1365 C1373 0.930 1_556 S
H1366 C1374 0.930 . S
H1367 C1375 0.930 . S
H1368 C1378 0.930 . S
H1369 C1379 0.930 . S
C1370 H1364 0.930 . S
C1370 C1371 1.355 . S
C1370 C1372 1.415 . S
C1371 C1370 1.355 . S
C1371 C1373 1.419 . S
C1372 C1370 1.415 . S
C1372 C1377 1.425 . S
C1372 C1379 1.409 . S
C1373 H1365 0.930 1_554 S
C1373 C1371 1.419 . S
C1373 C1374 1.362 . S
C1374 H1366 0.930 . S
C1374 C1373 1.362 . S
C1374 C1377 1.409 . S
C1375 H1367 0.930 . S
C1375 C1376 1.355 . S
C1375 C1377 1.415 . S
C1376 C1375 1.355 . S
C1376 C1378 1.419 . S
C1377 C1372 1.425 . S
C1377 C1374 1.409 . S
C1377 C1375 1.415 . S
C1378 H1368 0.930 . S
C1378 C1376 1.419 . S
C1378 C1379 1.362 . S
C1379 H1369 0.930 . S
C1379 C1372 1.409 . S
C1379 C1378 1.362 . S
H1380 C1386 0.930 . S
H1381 C1389 0.930 . S
H1382 C1390 0.930 . S
H1383 C1391 0.930 . S
H1384 C1394 0.930 . S
H1385 C1395 0.930 . S
C1386 H1380 0.930 . S
C1386 C1387 1.355 . S
C1386 C1388 1.415 . S
C1387 C1386 1.355 . S
C1387 C1389 1.419 . S
C1388 C1386 1.415 . S
C1388 C1393 1.425 . S
C1388 C1395 1.409 . S
C1389 H1381 0.930 . S
C1389 C1387 1.419 . S
C1389 C1390 1.362 . S
C1390 H1382 0.930 . S
C1390 C1389 1.362 . S
C1390 C1393 1.409 . S
C1391 H1383 0.930 . S
C1391 C1392 1.355 . S
C1391 C1393 1.415 . S
C1392 C1391 1.355 . S
C1392 C1394 1.419 . S
C1393 C1388 1.425 . S
C1393 C1390 1.409 . S
C1393 C1391 1.415 . S
C1394 H1384 0.930 . S
C1394 C1392 1.419 . S
C1394 C1395 1.362 . S
C1395 H1385 0.930 . S
C1395 C1388 1.409 . S
C1395 C1394 1.362 . S
H1396 C1402 0.930 . S
H1397 C1405 0.930 . S
H1398 C1406 0.930 . S
H1399 C1407 0.930 . S
H1400 C1410 0.930 . S
H1401 C1411 0.930 . S
C1402 H1396 0.930 . S
C1402 C1403 1.355 . S
C1402 C1404 1.415 . S
C1403 C1402 1.355 . S
C1403 C1405 1.419 . S
C1404 C1402 1.415 . S
C1404 C1409 1.425 . S
C1404 C1411 1.409 . S
C1405 H1397 0.930 . S
C1405 C1403 1.419 . S
C1405 C1406 1.362 . S
C1406 H1398 0.930 . S
C1406 C1405 1.362 . S
C1406 C1409 1.409 . S
C1407 H1399 0.930 . S
C1407 C1408 1.355 . S
C1407 C1409 1.415 . S
C1408 C1407 1.355 . S
C1408 C1410 1.419 . S
C1409 C1404 1.425 . S
C1409 C1406 1.409 . S
C1409 C1407 1.415 . S
C1410 H1400 0.930 . S
C1410 C1408 1.419 . S
C1410 C1411 1.362 . S
C1411 H1401 0.930 . S
C1411 C1404 1.409 . S
C1411 C1410 1.362 . S
H1412 C1418 0.930 . S
H1413 C1421 0.930 . S
H1414 C1422 0.930 . S
H1415 C1423 0.930 . S
H1416 C1426 0.930 . S
H1417 C1427 0.930 . S
C1418 H1412 0.930 . S
C1418 C1419 1.355 . S
C1418 C1420 1.415 . S
C1419 C1418 1.355 . S
C1419 C1421 1.419 . S
C1420 C1418 1.415 . S
C1420 C1425 1.425 . S
C1420 C1427 1.409 . S
C1421 H1413 0.930 . S
C1421 C1419 1.419 . S
C1421 C1422 1.362 . S
C1422 H1414 0.930 . S
C1422 C1421 1.362 . S
C1422 C1425 1.409 . S
C1423 H1415 0.930 . S
C1423 C1424 1.355 . S
C1423 C1425 1.415 . S
C1424 C1423 1.355 . S
C1424 C1426 1.419 . S
C1425 C1420 1.425 . S
C1425 C1422 1.409 . S
C1425 C1423 1.415 . S
C1426 H1416 0.930 . S
C1426 C1424 1.419 . S
C1426 C1427 1.362 . S
C1427 H1417 0.930 . S
C1427 C1420 1.409 . S
C1427 C1426 1.362 . S
H1428 C1434 0.930 . S
H1429 C1437 0.930 . S
H1430 C1438 0.930 . S
H1431 C1439 0.930 . S
H1432 C1442 0.930 1_554 S
H1433 C1443 0.930 . S
C1434 H1428 0.930 . S
C1434 C1435 1.355 . S
C1434 C1436 1.415 . S
C1435 C1434 1.355 . S
C1435 C1437 1.419 . S
C1436 C1434 1.415 . S
C1436 C1441 1.425 . S
C1436 C1443 1.409 . S
C1437 H1429 0.930 . S
C1437 C1435 1.419 . S
C1437 C1438 1.362 . S
C1438 H1430 0.930 . S
C1438 C1437 1.362 . S
C1438 C1441 1.409 . S
C1439 H1431 0.930 . S
C1439 C1440 1.355 . S
C1439 C1441 1.415 . S
C1440 C1439 1.355 . S
C1440 C1442 1.419 . S
C1441 C1436 1.425 . S
C1441 C1438 1.409 . S
C1441 C1439 1.415 . S
C1442 H1432 0.930 1_556 S
C1442 C1440 1.419 . S
C1442 C1443 1.362 . S
C1443 H1433 0.930 . S
C1443 C1436 1.409 . S
C1443 C1442 1.362 . S
H1444 C1450 0.930 . S
H1445 C1453 0.930 . S
H1446 C1454 0.930 . S
H1447 C1455 0.930 . S
H1448 C1458 0.930 . S
H1449 C1459 0.930 . S
C1450 H1444 0.930 . S
C1450 C1451 1.355 . S
C1450 C1452 1.415 . S
C1451 C1450 1.355 . S
C1451 C1453 1.419 . S
C1452 C1450 1.415 . S
C1452 C1457 1.425 . S
C1452 C1459 1.409 . S
C1453 H1445 0.930 . S
C1453 C1451 1.419 . S
C1453 C1454 1.362 . S
C1454 H1446 0.930 . S
C1454 C1453 1.362 . S
C1454 C1457 1.409 . S
C1455 H1447 0.930 . S
C1455 C1456 1.355 . S
C1455 C1457 1.415 . S
C1456 C1455 1.355 . S
C1456 C1458 1.419 . S
C1457 C1452 1.425 . S
C1457 C1454 1.409 . S
C1457 C1455 1.415 . S
C1458 H1448 0.930 . S
C1458 C1456 1.419 . S
C1458 C1459 1.362 . S
C1459 H1449 0.930 . S
C1459 C1452 1.409 . S
C1459 C1458 1.362 . S
H1460 C1466 0.930 . S
H1461 C1469 0.930 . S
H1462 C1470 0.930 . S
H1463 C1471 0.930 . S
H1464 C1474 0.930 . S
H1465 C1475 0.930 . S
C1466 H1460 0.930 . S
C1466 C1467 1.355 . S
C1466 C1468 1.415 . S
C1467 C1466 1.355 . S
C1467 C1469 1.419 . S
C1468 C1466 1.415 . S
C1468 C1473 1.425 . S
C1468 C1475 1.409 . S
C1469 H1461 0.930 . S
C1469 C1467 1.419 . S
C1469 C1470 1.362 . S
C1470 H1462 0.930 . S
C1470 C1469 1.362 . S
C1470 C1473 1.409 . S
C1471 H1463 0.930 . S
C1471 C1472 1.355 . S
C1471 C1473 1.415 . S
C1472 C1471 1.355 . S
C1472 C1474 1.419 . S
C1473 C1468 1.425 . S
C1473 C1470 1.409 . S
C1473 C1471 1.415 . S
C1474 H1464 0.930 . S
C1474 C1472 1.419 . S
C1474 C1475 1.362 . S
C1475 H1465 0.930 . S
C1475 C1468 1.409 . S
C1475 C1474 1.362 . S
H1476 C1482 0.930 . S
H1477 C1485 0.930 . S
H1478 C1486 0.930 . S
H1479 C1487 0.930 . S
H1480 C1490 0.930 . S
H1481 C1491 0.930 . S
C1482 H1476 0.930 . S
C1482 C1483 1.355 . S
C1482 C1484 1.415 . S
C1483 C1482 1.355 . S
C1483 C1485 1.419 . S
C1484 C1482 1.415 . S
C1484 C1489 1.425 . S
C1484 C1491 1.409 . S
C1485 H1477 0.930 . S
C1485 C1483 1.419 . S
C1485 C1486 1.362 . S
C1486 H1478 0.930 . S
C1486 C1485 1.362 . S
C1486 C1489 1.409 . S
C1487 H1479 0.930 . S
C1487 C1488 1.355 . S
C1487 C1489 1.415 . S
C1488 C1487 1.355 . S
C1488 C1490 1.419 . S
C1489 C1484 1.425 . S
C1489 C1486 1.409 . S
C1489 C1487 1.415 . S
C1490 H1480 0.930 . S
C1490 C1488 1.419 . S
C1490 C1491 1.362 . S
C1491 H1481 0.930 . S
C1491 C1484 1.409 . S
C1491 C1490 1.362 . S
H1492 C1498 0.930 . S
H1493 C1501 0.930 . S
H1494 C1502 0.930 . S
H1495 C1503 0.930 . S
H1496 C1506 0.930 . S
H1497 C1507 0.930 . S
C1498 H1492 0.930 . S
C1498 C1499 1.355 . S
C1498 C1500 1.415 . S
C1499 C1498 1.355 . S
C1499 C1501 1.419 . S
C1500 C1498 1.415 . S
C1500 C1505 1.425 . S
C1500 C1507 1.409 . S
C1501 H1493 0.930 . S
C1501 C1499 1.419 . S
C1501 C1502 1.362 . S
C1502 H1494 0.930 . S
C1502 C1501 1.362 . S
C1502 C1505 1.409 . S
C1503 H1495 0.930 . S
C1503 C1504 1.355 . S
C1503 C1505 1.415 . S
C1504 C1503 1.355 . S
C1504 C1506 1.419 . S
C1505 C1500 1.425 . S
C1505 C1502 1.409 . S
C1505 C1503 1.415 . S
C1506 H1496 0.930 . S
C1506 C1504 1.419 . S
C1506 C1507 1.362 . S
C1507 H1497 0.930 . S
C1507 C1500 1.409 . S
C1507 C1506 1.362 . S
H1508 C1514 0.930 . S
H1509 C1517 0.930 . S
H1510 C1518 0.930 . S
H1511 C1519 0.930 . S
H1512 C1522 0.930 . S
H1513 C1523 0.930 . S
C1514 H1508 0.930 . S
C1514 C1515 1.355 . S
C1514 C1516 1.415 . S
C1515 C1514 1.355 . S
C1515 C1517 1.419 . S
C1516 C1514 1.415 . S
C1516 C1521 1.425 . S
C1516 C1523 1.409 . S
C1517 H1509 0.930 . S
C1517 C1515 1.419 . S
C1517 C1518 1.362 . S
C1518 H1510 0.930 . S
C1518 C1517 1.362 . S
C1518 C1521 1.409 . S
C1519 H1511 0.930 . S
C1519 C1520 1.355 . S
C1519 C1521 1.415 . S
C1520 C1519 1.355 . S
C1520 C1522 1.419 . S
C1521 C1516 1.425 . S
C1521 C1518 1.409 . S
C1521 C1519 1.415 . S
C1522 H1512 0.930 . S
C1522 C1520 1.419 . S
C1522 C1523 1.362 . S
C1523 H1513 0.930 . S
C1523 C1516 1.409 . S
C1523 C1522 1.362 . S
H1524 C1530 0.930 . S
H1525 C1533 0.930 . S
H1526 C1534 0.930 . S
H1527 C1535 0.930 . S
H1528 C1538 0.930 . S
H1529 C1539 0.930 . S
C1530 H1524 0.930 . S
C1530 C1531 1.355 . S
C1530 C1532 1.415 . S
C1531 C1530 1.355 . S
C1531 C1533 1.419 . S
C1532 C1530 1.415 . S
C1532 C1537 1.425 . S
C1532 C1539 1.409 . S
C1533 H1525 0.930 . S
C1533 C1531 1.419 . S
C1533 C1534 1.362 . S
C1534 H1526 0.930 . S
C1534 C1533 1.362 . S
C1534 C1537 1.409 . S
C1535 H1527 0.930 . S
C1535 C1536 1.355 . S
C1535 C1537 1.415 . S
C1536 C1535 1.355 . S
C1536 C1538 1.419 . S
C1537 C1532 1.425 . S
C1537 C1534 1.409 . S
C1537 C1535 1.415 . S
C1538 H1528 0.930 . S
C1538 C1536 1.419 . S
C1538 C1539 1.362 . S
C1539 H1529 0.930 . S
C1539 C1532 1.409 . S
C1539 C1538 1.362 . S
H1540 C1546 0.930 1_565 S
H1541 C1549 0.930 . S
H1542 C1550 0.930 . S
H1543 C1551 0.930 1_545 S
H1544 C1554 0.930 . S
H1545 C1555 0.930 . S
C1546 H1540 0.930 1_545 S
C1546 C1547 1.355 . S
C1546 C1548 1.415 1_545 S
C1547 C1546 1.355 . S
C1547 C1549 1.419 . S
C1548 C1546 1.415 1_565 S
C1548 C1553 1.425 1_565 S
C1548 C1555 1.409 . S
C1549 H1541 0.930 . S
C1549 C1547 1.419 . S
C1549 C1550 1.362 . S
C1550 H1542 0.930 . S
C1550 C1549 1.362 . S
C1550 C1553 1.409 . S
C1551 H1543 0.930 1_565 S
C1551 C1552 1.355 . S
C1551 C1553 1.415 1_565 S
C1552 C1551 1.355 . S
C1552 C1554 1.419 . S
C1553 C1548 1.425 1_545 S
C1553 C1550 1.409 . S
C1553 C1551 1.415 1_545 S
C1554 H1544 0.930 . S
C1554 C1552 1.419 . S
C1554 C1555 1.362 . S
C1555 H1545 0.930 . S
C1555 C1548 1.409 . S
C1555 C1554 1.362 . S
H1556 C1562 0.930 1_455 S
H1557 C1565 0.930 . S
H1558 C1566 0.930 . S
H1559 C1567 0.930 1_655 S
H1560 C1570 0.930 . S
H1561 C1571 0.930 . S
C1562 H1556 0.930 1_655 S
C1562 C1563 1.355 . S
C1562 C1564 1.415 1_655 S
C1563 C1562 1.355 . S
C1563 C1565 1.419 . S
C1564 C1562 1.415 1_455 S
C1564 C1569 1.425 1_455 S
C1564 C1571 1.409 . S
C1565 H1557 0.930 . S
C1565 C1563 1.419 . S
C1565 C1566 1.362 . S
C1566 H1558 0.930 . S
C1566 C1565 1.362 . S
C1566 C1569 1.409 . S
C1567 H1559 0.930 1_455 S
C1567 C1568 1.355 . S
C1567 C1569 1.415 1_455 S
C1568 C1567 1.355 . S
C1568 C1570 1.419 . S
C1569 C1564 1.425 1_655 S
C1569 C1566 1.409 . S
C1569 C1567 1.415 1_655 S
C1570 H1560 0.930 . S
C1570 C1568 1.419 . S
C1570 C1571 1.362 . S
C1571 H1561 0.930 . S
C1571 C1564 1.409 . S
C1571 C1570 1.362 . S
H1572 C1578 0.930 . S
H1573 C1581 0.930 . S
H1574 C1582 0.930 . S
H1575 C1583 0.930 . S
H1576 C1586 0.930 . S
H1577 C1587 0.930 . S
C1578 H1572 0.930 . S
C1578 C1579 1.355 . S
C1578 C1580 1.415 . S
C1579 C1578 1.355 . S
C1579 C1581 1.419 . S
C1580 C1578 1.415 . S
C1580 C1585 1.425 . S
C1580 C1587 1.409 . S
C1581 H1573 0.930 . S
C1581 C1579 1.419 . S
C1581 C1582 1.362 . S
C1582 H1574 0.930 . S
C1582 C1581 1.362 . S
C1582 C1585 1.409 . S
C1583 H1575 0.930 . S
C1583 C1584 1.355 . S
C1583 C1585 1.415 . S
C1584 C1583 1.355 . S
C1584 C1586 1.419 . S
C1585 C1580 1.425 . S
C1585 C1582 1.409 . S
C1585 C1583 1.415 . S
C1586 H1576 0.930 . S
C1586 C1584 1.419 . S
C1586 C1587 1.362 . S
C1587 H1577 0.930 . S
C1587 C1580 1.409 . S
C1587 C1586 1.362 . S
H1588 C1594 0.930 . S
H1589 C1597 0.930 1_565 S
H1590 C1598 0.930 . S
H1591 C1599 0.930 . S
H1592 C1602 0.930 1_545 S
H1593 C1603 0.930 . S
C1594 H1588 0.930 . S
C1594 C1595 1.355 . S
C1594 C1596 1.415 . S
C1595 C1594 1.355 . S
C1595 C1597 1.419 . S
C1596 C1594 1.415 . S
C1596 C1601 1.425 1_545 S
C1596 C1603 1.409 . S
C1597 H1589 0.930 1_545 S
C1597 C1595 1.419 . S
C1597 C1598 1.362 1_545 S
C1598 H1590 0.930 . S
C1598 C1597 1.362 1_565 S
C1598 C1601 1.409 . S
C1599 H1591 0.930 . S
C1599 C1600 1.355 . S
C1599 C1601 1.415 . S
C1600 C1599 1.355 . S
C1600 C1602 1.419 . S
C1601 C1596 1.425 1_565 S
C1601 C1598 1.409 . S
C1601 C1599 1.415 . S
C1602 H1592 0.930 1_565 S
C1602 C1600 1.419 . S
C1602 C1603 1.362 1_565 S
C1603 H1593 0.930 . S
C1603 C1596 1.409 . S
C1603 C1602 1.362 1_545 S
H1604 C1610 0.930 . S
H1605 C1613 0.930 . S
H1606 C1614 0.930 . S
H1607 C1615 0.930 . S
H1608 C1618 0.930 . S
H1609 C1619 0.930 . S
C1610 H1604 0.930 . S
C1610 C1611 1.355 . S
C1610 C1612 1.415 . S
C1611 C1610 1.355 . S
C1611 C1613 1.419 . S
C1612 C1610 1.415 . S
C1612 C1617 1.425 1_455 S
C1612 C1619 1.409 . S
C1613 H1605 0.930 . S
C1613 C1611 1.419 . S
C1613 C1614 1.362 1_455 S
C1614 H1606 0.930 . S
C1614 C1613 1.362 1_655 S
C1614 C1617 1.409 . S
C1615 H1607 0.930 . S
C1615 C1616 1.355 . S
C1615 C1617 1.415 . S
C1616 C1615 1.355 . S
C1616 C1618 1.419 . S
C1617 C1612 1.425 1_655 S
C1617 C1614 1.409 . S
C1617 C1615 1.415 . S
C1618 H1608 0.930 . S
C1618 C1616 1.419 . S
C1618 C1619 1.362 1_655 S
C1619 H1609 0.930 . S
C1619 C1612 1.409 . S
C1619 C1618 1.362 1_455 S
C475 C70 1.190 . S
C480 C5 1.190 . S
C491 C44 1.171 . S
C496 C18 1.177 . S
C507 C29 1.160 . S
C512 C57 1.166 . S
C523 C83 1.153 . S
C528 C146 1.152 . S
C539 C94 1.160 . S
C544 C120 1.156 . S
C555 C135 1.152 . S
C560 C109 1.155 . S
C571 C159 1.172 1_655 S
C576 C224 1.167 . S
C587 C172 1.176 . S
C592 C200 1.169 . S
C603 C213 1.189 . S
C608 C187 1.242 . S
C619 C304 1.154 . S
C624 C237 1.158 . S
C635 C278 1.169 1_545 S
C640 C252 1.164 . S
C651 C263 1.182 . S
C656 C289 1.176 . S
C667 C382 1.187 . S
C672 C315 1.183 . S
C683 C356 1.153 . S
C688 C328 1.152 . S
C699 C341 1.190 . S
C704 C367 1.187 . S
C715 C460 1.172 . S
C720 C393 1.176 1_455 S
C731 C434 1.153 . S
C736 C406 1.152 . S
C747 C447 1.171 . S
C752 C419 1.164 . S
C763 C218 1.548 . S
C768 C10 1.517 . S
C779 C225 1.579 . S
C784 C23 1.550 . S
C795 C205 1.589 . S
C800 C30 1.584 . S
C811 C49 1.500 . S
C816 C342 1.522 1_554 S
C827 C62 1.537 . S
C832 C316 1.569 1_554 S
C843 C75 1.501 . S
C848 C329 1.501 1_554 S
C859 C88 1.559 . S
C864 C452 1.584 . S
C875 C465 1.586 . S
C880 C95 1.562 . S
C891 C439 1.589 . S
C896 C114 1.582 . S
C907 C264 1.498 1_556 S
C912 C121 1.511 . S
C923 C238 1.564 1_556 S
C928 C140 1.586 . S
C939 C147 1.530 . S
C944 C257 1.504 1_556 S
C955 C160 1.584 . S
C960 C368 1.589 . S
C971 C387 1.499 . S
C976 C173 1.502 . S
C987 C361 1.590 . S
C992 C192 1.577 . S
C1003 C283 1.575 . S
C1008 C420 1.589 . S
C1019 C394 1.568 . S
C1024 C290 1.536 . S
C1035 C309 1.570 . S
C1040 C407 1.538 . S
C1051 C244 1.632 . S
C1056 C4 1.632 . S
C1067 C251 1.634 . S
C1072 C17 1.634 . S
C1083 C36 1.659 . S
C1088 C270 1.659 . S
C1099 C43 1.642 . S
C1104 C433 1.642 . S
C1115 C446 1.658 . S
C1120 C56 1.658 . S
C1131 C459 1.659 . S
C1136 C69 1.659 . S
C1147 C82 1.631 . S
C1152 C322 1.631 . S
C1163 C101 1.660 . S
C1168 C335 1.660 . S
C1179 C348 1.635 . S
C1184 C108 1.635 . S
C1195 C127 1.659 . S
C1200 C199 1.659 . S
C1211 C134 1.659 . S
C1216 C212 1.659 . S
C1227 C231 1.632 . S
C1232 C153 1.632 . S
C1243 C166 1.651 . S
C1248 C400 1.651 . S
C1259 C179 1.634 . S
C1264 C413 1.634 . S
C1275 C426 1.645 . S
C1280 C186 1.645 . S
C1291 C355 1.659 . S
C1296 C277 1.659 . S
C1307 C296 1.656 . S
C1312 C374 1.656 . S
C1323 C303 1.653 . S
C1328 C381 1.653 . S
C1339 C354 1.632 1_554 S
C1344 C3 1.621 . S
C1355 C16 1.636 . S
C1360 C369 1.616 1_554 S
C1371 C380 1.628 1_554 S
C1376 C31 1.626 . S
C1387 C42 1.634 . S
C1392 C161 1.594 . S
C1403 C174 1.645 . S
C1408 C55 1.598 . S
C1419 C185 1.636 . S
C1424 C68 1.593 . S
C1435 C81 1.642 . S
C1440 C276 1.606 1_556 S
C1451 C291 1.627 1_556 S
C1456 C96 1.598 . S
C1467 C107 1.624 . S
C1472 C302 1.600 1_556 S
C1483 C122 1.639 . S
C1488 C395 1.612 . S
C1499 C133 1.643 . S
C1504 C408 1.593 . S
C1515 C421 1.632 . S
C1520 C148 1.595 . S
C1531 C198 1.642 . S
C1536 C317 1.593 . S
C1547 C211 1.612 . S
C1552 C330 1.609 . S
C1563 C226 1.611 . S
C1568 C343 1.610 . S
C1579 C239 1.597 . S
C1584 C432 1.628 . S
C1595 C250 1.636 . S
C1600 C445 1.617 . S
C1611 C458 1.619 . S
C1616 C265 1.634 . S
