# Generated by pormake.
# Topology wfa, (4)-cn, num edge types: 1
# Building blocks:
#     Node 0, Type 0, BuildingBlock: KOZSID_clean_sbu_0, # of connection points: 4
#     Node 1, Type 0, BuildingBlock: KOZSID_clean_sbu_0, # of connection points: 4
#     Node 2, Type 0, BuildingBlock: KOZSID_clean_sbu_0, # of connection points: 4
#     Node 3, Type 0, BuildingBlock: KOZSID_clean_sbu_0, # of connection points: 4
#     Node 4, Type 0, BuildingBlock: KOZSID_clean_sbu_0, # of connection points: 4
#     Node 5, Type 0, BuildingBlock: KOZSID_clean_sbu_0, # of connection points: 4
#     Node 6, Type 0, BuildingBlock: KOZSID_clean_sbu_0, # of connection points: 4
#     Node 7, Type 0, BuildingBlock: KOZSID_clean_sbu_0, # of connection points: 4
#     Node 8, Type 0, BuildingBlock: KOZSID_clean_sbu_0, # of connection points: 4
#     Node 9, Type 0, BuildingBlock: KOZSID_clean_sbu_0, # of connection points: 4
#     Node 10, Type 0, BuildingBlock: KOZSID_clean_sbu_0, # of connection points: 4
#     Node 11, Type 0, BuildingBlock: KOZSID_clean_sbu_0, # of connection points: 4
#     Node 12, Type 0, BuildingBlock: KOZSID_clean_sbu_0, # of connection points: 4
#     Node 13, Type 0, BuildingBlock: KOZSID_clean_sbu_0, # of connection points: 4
#     Node 14, Type 0, BuildingBlock: KOZSID_clean_sbu_0, # of connection points: 4
#     Node 15, Type 0, BuildingBlock: KOZSID_clean_sbu_0, # of connection points: 4
#     Edge 16, Type (0, 0), BuildingBlock: XIVTED_clean_linker_0, # of connection points: 2
#     Edge 17, Type (0, 0), BuildingBlock: XIVTED_clean_linker_0, # of connection points: 2
#     Edge 18, Type (0, 0), BuildingBlock: XIVTED_clean_linker_0, # of connection points: 2
#     Edge 19, Type (0, 0), BuildingBlock: XIVTED_clean_linker_0, # of connection points: 2
#     Edge 20, Type (0, 0), BuildingBlock: XIVTED_clean_linker_0, # of connection points: 2
#     Edge 21, Type (0, 0), BuildingBlock: XIVTED_clean_linker_0, # of connection points: 2
#     Edge 22, Type (0, 0), BuildingBlock: XIVTED_clean_linker_0, # of connection points: 2
#     Edge 23, Type (0, 0), BuildingBlock: XIVTED_clean_linker_0, # of connection points: 2
#     Edge 24, Type (0, 0), BuildingBlock: XIVTED_clean_linker_0, # of connection points: 2
#     Edge 25, Type (0, 0), BuildingBlock: XIVTED_clean_linker_0, # of connection points: 2
#     Edge 26, Type (0, 0), BuildingBlock: XIVTED_clean_linker_0, # of connection points: 2
#     Edge 27, Type (0, 0), BuildingBlock: XIVTED_clean_linker_0, # of connection points: 2
#     Edge 28, Type (0, 0), BuildingBlock: XIVTED_clean_linker_0, # of connection points: 2
#     Edge 29, Type (0, 0), BuildingBlock: XIVTED_clean_linker_0, # of connection points: 2
#     Edge 30, Type (0, 0), BuildingBlock: XIVTED_clean_linker_0, # of connection points: 2
#     Edge 31, Type (0, 0), BuildingBlock: XIVTED_clean_linker_0, # of connection points: 2
#     Edge 32, Type (0, 0), BuildingBlock: XIVTED_clean_linker_0, # of connection points: 2
#     Edge 33, Type (0, 0), BuildingBlock: XIVTED_clean_linker_0, # of connection points: 2
#     Edge 34, Type (0, 0), BuildingBlock: XIVTED_clean_linker_0, # of connection points: 2
#     Edge 35, Type (0, 0), BuildingBlock: XIVTED_clean_linker_0, # of connection points: 2
#     Edge 36, Type (0, 0), BuildingBlock: XIVTED_clean_linker_0, # of connection points: 2
#     Edge 37, Type (0, 0), BuildingBlock: XIVTED_clean_linker_0, # of connection points: 2
#     Edge 38, Type (0, 0), BuildingBlock: XIVTED_clean_linker_0, # of connection points: 2
#     Edge 39, Type (0, 0), BuildingBlock: XIVTED_clean_linker_0, # of connection points: 2
#     Edge 40, Type (0, 0), BuildingBlock: XIVTED_clean_linker_0, # of connection points: 2
#     Edge 41, Type (0, 0), BuildingBlock: XIVTED_clean_linker_0, # of connection points: 2
#     Edge 42, Type (0, 0), BuildingBlock: XIVTED_clean_linker_0, # of connection points: 2
#     Edge 43, Type (0, 0), BuildingBlock: XIVTED_clean_linker_0, # of connection points: 2
#     Edge 44, Type (0, 0), BuildingBlock: XIVTED_clean_linker_0, # of connection points: 2
#     Edge 45, Type (0, 0), BuildingBlock: XIVTED_clean_linker_0, # of connection points: 2
#     Edge 46, Type (0, 0), BuildingBlock: XIVTED_clean_linker_0, # of connection points: 2
#     Edge 47, Type (0, 0), BuildingBlock: XIVTED_clean_linker_0, # of connection points: 2
# Relax obj value: 0.124
# Max RMSD: 0.263
# Mean RMSD: 0.210
data_MOF--net-wfa--node1-KOZSID_clean_sbu_0--edge1-XIVTED_clean_linker_0
_symmetry_space_group_name_H-M    P1
_symmetry_Int_Tables_number       1
_symmetry_cell_setting            triclinic
loop_
_symmetry_equiv_pos_as_xyz
'x, y, z'
_cell_length_a     59.661119
_cell_length_b     62.156821
_cell_length_c     25.093013
_cell_angle_alpha  88.382949
_cell_angle_beta   88.39315
_cell_angle_gamma 89.030987
loop_
_atom_site_label
_atom_site_type_symbol
_atom_site_fract_x
_atom_site_fract_y
_atom_site_fract_z
_atom_type_partial_charge
C0 C 0.54816 0.02401 0.99907 0.0
C1 C 0.54291 0.04183 0.9672 0.0
C2 C 0.56233 0.05346 0.96082 0.0
C3 C 0.57833 0.04209 0.98904 0.0
N4 N 0.57008 0.02404 0.0121 0.0
Co5 Co 0.58594 1.00403 0.06155 0.0
N6 N 0.60818 0.02597 0.0786 0.0
C7 C 0.6127 0.04373 0.04836 0.0
C8 C 0.62986 0.0554 0.06779 0.0
C9 C 0.63676 0.04409 0.11237 0.0
C10 C 0.62337 0.02605 0.11785 0.0
N11 N 0.60108 0.98377 0.11193 0.0
C12 C 0.61621 0.98756 0.1498 0.0
C13 C 0.62252 0.96847 0.17584 0.0
C14 C 0.61142 0.95224 0.15235 0.0
C15 C 0.59886 0.96223 0.11362 0.0
N16 N 0.5638 0.98226 0.04338 0.0
C17 C 0.566 0.96083 0.05035 0.0
C18 C 0.547 0.95017 0.03715 0.0
C19 C 0.53193 0.96595 0.02163 0.0
C20 C 0.54265 0.9854 0.02614 0.0
N21 N 0.60647 0.9948 0.00316 0.0
C22 C 0.63903 0.99274 0.91992 0.0
C23 C 0.64497 0.99035 0.97327 0.0
C24 C 0.62866 0.99151 0.01382 0.0
C25 C 0.61604 0.99405 0.90889 0.0
C26 C 0.59999 0.99487 0.95119 0.0
N27 N 0.5661 0.01395 0.11925 0.0
C28 C 0.53983 1.00767 0.19255 0.0
C29 C 0.53556 0.02984 0.19512 0.0
C30 C 0.54725 0.0438 0.16039 0.0
C31 C 0.56252 0.03561 0.12336 0.0
C32 C 0.55515 0.99998 0.15373 0.0
H33 H 0.57111 0.04692 0.09724 0.0
H34 H 0.55794 0.98284 0.15109 0.0
H35 H 0.63451 0.99116 0.05385 0.0
H36 H 0.58249 0.9968 0.94184 0.0
C37 C 0.59871 0.05016 0.00623 0.0
C38 C 0.53258 1.00671 0.01485 0.0
C39 C 0.62726 0.00828 0.15684 0.0
C40 C 0.58298 0.95233 0.08259 0.0
H41 H 0.52673 0.04607 0.95113 0.0
H42 H 0.56409 0.06909 0.94116 0.0
H43 H 0.63639 0.07049 0.05196 0.0
H44 H 0.65045 0.04835 0.13723 0.0
H45 H 0.63442 0.96638 0.2074 0.0
H46 H 0.6122 0.93524 0.16284 0.0
H47 H 0.54377 0.93315 0.04244 0.0
H48 H 0.51486 0.96344 0.01008 0.0
H49 H 0.66237 0.98848 0.98403 0.0
H50 H 0.61055 0.99557 0.86818 0.0
H51 H 0.5312 0.99647 0.2195 0.0
H52 H 0.54467 0.06108 0.16206 0.0
C53 C 0.54573 0.65644 0.08362 0.0
C54 C 0.56711 0.65004 0.09855 0.0
C55 C 0.58174 0.65983 0.06319 0.0
C56 C 0.56851 0.6715 0.02878 0.0
N57 N 0.54634 0.67026 0.04095 0.0
Co58 Co 0.52101 0.6827 0.99841 0.0
N59 N 0.5422 0.69405 0.94132 0.0
C60 C 0.56471 0.69123 0.93875 0.0
C61 C 0.5749 0.70215 0.89671 0.0
C62 C 0.55797 0.71308 0.87175 0.0
C63 C 0.53837 0.70823 0.90026 0.0
N64 N 0.49575 0.69539 0.95566 0.0
C65 C 0.49638 0.70946 0.91314 0.0
C66 C 0.475 0.71581 0.89824 0.0
C67 C 0.46035 0.70582 0.93322 0.0
C68 C 0.47354 0.69403 0.9675 0.0
N69 N 0.49975 0.67151 0.0552 0.0
C70 C 0.47718 0.67393 0.05722 0.0
C71 C 0.4671 0.66318 0.09969 0.0
C72 C 0.48422 0.65276 0.12531 0.0
C73 C 0.50376 0.65776 0.09669 0.0
N74 N 0.52309 0.71032 0.03681 0.0
C75 C 0.5257 0.74537 0.10619 0.0
C76 C 0.50504 0.73754 0.09117 0.0
C77 C 0.50413 0.72032 0.05671 0.0
C78 C 0.54506 0.73634 0.08242 0.0
C79 C 0.54338 0.71904 0.04785 0.0
N80 N 0.51883 0.65432 0.96262 0.0
C81 C 0.49654 0.6223 0.95437 0.0
C82 C 0.51574 0.60906 0.95123 0.0
C83 C 0.53648 0.61938 0.94725 0.0
C84 C 0.53761 0.64187 0.95224 0.0
C85 C 0.49844 0.64465 0.95908 0.0
H86 H 0.55393 0.6487 0.95063 0.0
H87 H 0.48313 0.6536 0.96285 0.0
H88 H 0.48782 0.71507 0.04778 0.0
H89 H 0.55872 0.71263 0.03154 0.0
C90 C 0.57603 0.68101 0.98059 0.0
C91 C 0.52528 0.64718 0.1066 0.0
C92 C 0.5168 0.7186 0.88894 0.0
C93 C 0.46585 0.68414 0.01524 0.0
H94 H 0.57169 0.63863 0.12982 0.0
H95 H 0.59976 0.65752 0.06072 0.0
H96 H 0.59268 0.7031 0.88726 0.0
H97 H 0.55989 0.72411 0.83782 0.0
H98 H 0.47044 0.72725 0.86696 0.0
H99 H 0.44231 0.708 0.93544 0.0
H100 H 0.44934 0.66201 0.10908 0.0
H101 H 0.48248 0.64181 0.15944 0.0
H102 H 0.48947 0.74444 0.10667 0.0
H103 H 0.56151 0.74196 0.09201 0.0
H104 H 0.47999 0.6154 0.95493 0.0
H105 H 0.55193 0.6101 0.94329 0.0
C106 C 0.96967 0.50139 0.93179 0.0
C107 C 0.97495 0.48479 0.89756 0.0
C108 C 0.95603 0.47235 0.89548 0.0
C109 C 0.94002 0.48236 0.92713 0.0
N110 N 0.94777 0.50032 0.94789 0.0
Co111 Co 0.93068 0.51991 0.99499 0.0
N112 N 0.9098 0.49713 0.01937 0.0
C113 C 0.90618 0.47902 0.99279 0.0
C114 C 0.8897 0.46669 0.01689 0.0
C115 C 0.88232 0.47797 0.06058 0.0
C116 C 0.89474 0.49667 0.06089 0.0
N117 N 0.91436 0.54003 0.04243 0.0
C118 C 0.89952 0.53601 0.08326 0.0
C119 C 0.89186 0.5552 0.10501 0.0
C120 C 0.90167 0.57161 0.07541 0.0
C121 C 0.91493 0.56167 0.03757 0.0
N122 N 0.95148 0.54238 0.96951 0.0
C123 C 0.94694 0.56356 0.96732 0.0
C124 C 0.96394 0.57497 0.94219 0.0
C125 C 0.98015 0.55984 0.92871 0.0
C126 C 0.97247 0.54012 0.9484 0.0
N127 N 0.90972 0.52751 0.93726 0.0
C128 C 0.87723 0.53081 0.85734 0.0
C129 C 0.87114 0.53156 0.9115 0.0
C130 C 0.88736 0.52975 0.95024 0.0
C131 C 0.90032 0.52989 0.8439 0.0
C132 C 0.9163 0.52837 0.88448 0.0
N133 N 0.95079 0.5117 0.0523 0.0
C134 C 0.97455 0.52004 0.12479 0.0
C135 C 0.98003 0.49814 0.13184 0.0
C136 C 0.97046 0.48331 0.0989 0.0
C137 C 0.95579 0.49034 0.06005 0.0
C138 C 0.96003 0.52656 0.08405 0.0
H139 H 0.94854 0.47836 0.03598 0.0
H140 H 0.95622 0.54349 0.07814 0.0
H141 H 0.8814 0.52921 0.99097 0.0
H142 H 0.93387 0.52704 0.8732 0.0
C143 C 0.92013 0.47328 0.94876 0.0
C144 C 0.98457 0.51918 0.94567 0.0
C145 C 0.88979 0.51476 0.09661 0.0
C146 C 0.92949 0.57189 0.99989 0.0
H147 H 0.9907 0.48191 0.87636 0.0
H148 H 0.95459 0.45725 0.87553 0.0
H149 H 0.88382 0.45128 0.00451 0.0
H150 H 0.86884 0.47329 0.08803 0.0
H151 H 0.87977 0.55719 0.13752 0.0
H152 H 0.89943 0.58872 0.081 0.0
H153 H 0.96503 0.59226 0.93681 0.0
H154 H 0.99594 0.56302 0.90796 0.0
H155 H 0.85372 0.53304 0.92442 0.0
H156 H 0.90599 0.52949 0.80258 0.0
H157 H 0.98155 0.53191 0.15006 0.0
H158 H 0.97394 0.46621 0.10391 0.0
C159 C 0.97359 0.8776 0.09648 0.0
C160 C 0.9527 0.88417 0.11628 0.0
C161 C 0.93715 0.87451 0.08649 0.0
C162 C 0.94936 0.86273 0.05021 0.0
N163 N 0.97179 0.86383 0.05591 0.0
Co164 Co 0.9958 0.85124 0.00798 0.0
N165 N 0.97309 0.83987 0.95872 0.0
C166 C 0.95056 0.84257 0.96274 0.0
C167 C 0.93918 0.83148 0.92592 0.0
C168 C 0.95531 0.82059 0.89745 0.0
C169 C 0.97575 0.82576 0.91845 0.0
N170 N 0.01974 0.83849 0.96008 0.0
C171 C 0.01797 0.82457 0.91966 0.0
C172 C 0.03884 0.81861 0.89866 0.0
C173 C 0.05439 0.82849 0.928 0.0
C174 C 0.04218 0.83996 0.96494 0.0
N175 N 0.01859 0.86246 0.0568 0.0
C176 C 0.04113 0.85997 0.05247 0.0
C177 C 0.05244 0.87052 0.09042 0.0
C178 C 0.03619 0.88088 0.11977 0.0
C179 C 0.01585 0.8761 0.09767 0.0
N180 N 0.99474 0.8237 0.05067 0.0
C181 C 0.99286 0.78811 0.12349 0.0
C182 C 0.01342 0.79614 0.10433 0.0
C183 C 0.01397 0.81371 0.06807 0.0
C184 C 0.97332 0.79743 0.10281 0.0
C185 C 0.97464 0.81492 0.06659 0.0
N186 N 0.99683 0.87946 0.96761 0.0
C187 C 0.01756 0.91243 0.95229 0.0
C188 C 0.99769 0.92473 0.95313 0.0
C189 C 0.97745 0.91367 0.9541 0.0
C190 C 0.97746 0.89116 0.95969 0.0
C191 C 0.01674 0.88992 0.95899 0.0
H192 H 0.96149 0.88369 0.96098 0.0
H193 H 0.03243 0.88145 0.96052 0.0
H194 H 0.03014 0.81923 0.05558 0.0
H195 H 0.95912 0.8213 0.05277 0.0
C196 C 0.94049 0.853 0.00609 0.0
C197 C 0.99465 0.88634 0.11369 0.0
C198 C 0.99705 0.81557 0.90196 0.0
C199 C 0.05118 0.84978 0.00877 0.0
H200 H 0.94902 0.89556 0.14724 0.0
H201 H 0.91913 0.87687 0.08885 0.0
H202 H 0.9212 0.83036 0.92237 0.0
H203 H 0.9522 0.80936 0.86647 0.0
H204 H 0.04244 0.80758 0.86678 0.0
H205 H 0.07244 0.82657 0.92469 0.0
H206 H 0.07041 0.87152 0.09446 0.0
H207 H 0.03902 0.89154 0.15221 0.0
H208 H 0.02908 0.78946 0.11867 0.0
H209 H 0.95697 0.7914 0.1149 0.0
H210 H 0.0337 0.92017 0.94991 0.0
H211 H 0.96161 0.92239 0.95225 0.0
C212 C 0.04588 0.99498 0.56463 0.0
C213 C 0.04064 0.97639 0.59382 0.0
C214 C 0.06041 0.9648 0.59905 0.0
C215 C 0.07664 0.97683 0.57264 0.0
N216 N 0.06815 0.99525 0.55179 0.0
Co217 Co 0.08428 0.01599 0.50396 0.0
N218 N 0.10739 0.99435 0.48354 0.0
C219 C 0.1121 0.97616 0.5118 0.0
C220 C 0.12976 0.96471 0.48981 0.0
C221 C 0.1367 0.97661 0.44555 0.0
C222 C 0.12279 0.99474 0.44276 0.0
N223 N 0.09966 0.03707 0.45561 0.0
C224 C 0.11498 0.03381 0.41564 0.0
C225 C 0.12078 0.05329 0.39079 0.0
C226 C 0.1093 0.06916 0.41753 0.0
C227 C 0.09691 0.05862 0.45672 0.0
N228 N 0.0612 0.03742 0.52511 0.0
C229 C 0.06292 0.05892 0.52132 0.0
C230 C 0.04327 0.06931 0.53632 0.0
C231 C 0.02835 0.05325 0.54954 0.0
C232 C 0.03977 0.03397 0.54164 0.0
N233 N 0.10356 0.02408 0.5628 0.0
C234 C 0.13448 0.02607 0.64566 0.0
C235 C 0.14139 0.02831 0.59208 0.0
C236 C 0.1259 0.02721 0.55177 0.0
C237 C 0.11129 0.0246 0.65701 0.0
C238 C 0.09609 0.02374 0.61496 0.0
N239 N 0.06581 1.00722 0.44552 0.0
C240 C 0.04202 0.01493 0.371 0.0
C241 C 0.03836 0.99287 0.36594 0.0
C242 C 0.04903 0.97828 0.40043 0.0
C243 C 0.0628 0.98571 0.43927 0.0
C244 C 0.0557 0.02182 0.41169 0.0
H245 H 0.07083 0.97389 0.46472 0.0
H246 H 0.05799 0.03885 0.41611 0.0
H247 H 0.13247 0.02767 0.51148 0.0
H248 H 0.07847 0.02175 0.62462 0.0
C249 C 0.09763 0.96906 0.55387 0.0
C250 C 0.03006 0.01255 0.54968 0.0
C251 C 0.12623 0.013 0.40469 0.0
C252 C 0.08026 0.06801 0.48973 0.0
H253 H 0.02432 0.97134 0.60855 0.0
H254 H 0.06231 0.94873 0.61626 0.0
H255 H 0.13652 0.94933 0.50357 0.0
H256 H 0.15069 0.97262 0.41907 0.0
H257 H 0.1324 0.05587 0.35745 0.0
H258 H 0.10949 0.08628 0.40844 0.0
H259 H 0.03961 0.08642 0.53365 0.0
H260 H 0.01094 0.0554 0.56182 0.0
H261 H 0.15893 0.03024 0.58093 0.0
H262 H 0.10502 0.02309 0.69783 0.0
H263 H 0.03412 0.02664 0.34453 0.0
H264 H 0.04696 0.96108 0.39699 0.0
C265 C 0.46723 0.15778 0.43294 0.0
C266 C 0.446 0.15103 0.42052 0.0
C267 C 0.4314 0.16004 0.4567 0.0
C268 C 0.44451 0.17165 0.48905 0.0
N269 N 0.46653 0.17109 0.47481 0.0
Co270 Co 0.49182 0.18373 0.514 0.0
N271 N 0.47095 0.19408 0.5724 0.0
C272 C 0.44863 0.19079 0.57703 0.0
C273 C 0.43843 0.20119 0.61886 0.0
C274 C 0.4551 0.21225 0.64156 0.0
C275 C 0.47464 0.20789 0.61227 0.0
N276 N 0.51701 0.19665 0.55319 0.0
C277 C 0.5163 0.2103 0.59464 0.0
C278 C 0.53758 0.21672 0.60755 0.0
C279 C 0.55221 0.20741 0.57194 0.0
C280 C 0.53911 0.19581 0.53954 0.0
N281 N 0.51277 0.17356 0.45604 0.0
C282 C 0.53517 0.17645 0.45186 0.0
C283 C 0.54518 0.16638 0.40925 0.0
C284 C 0.52825 0.15593 0.3858 0.0
C285 C 0.50888 0.16023 0.41574 0.0
N286 N 0.48743 0.21161 0.47381 0.0
C287 C 0.48107 0.24739 0.40302 0.0
C288 C 0.50258 0.23992 0.4156 0.0
C289 C 0.50535 0.22226 0.45084 0.0
C290 C 0.46284 0.23739 0.42923 0.0
C291 C 0.46638 0.21985 0.46458 0.0
N292 N 0.49622 0.15509 0.5516 0.0
C293 C 0.5201 0.12315 0.55819 0.0
C294 C 0.5015 0.10964 0.56296 0.0
C295 C 0.48041 0.11972 0.56926 0.0
C296 C 0.47824 0.14229 0.56459 0.0
C297 C 0.51712 0.14559 0.55333 0.0
H298 H 0.46166 0.14893 0.56822 0.0
H299 H 0.53195 0.15482 0.54781 0.0
H300 H 0.52217 0.21719 0.45781 0.0
H301 H 0.45181 0.21296 0.48325 0.0
C302 C 0.43725 0.18062 0.5371 0.0
C303 C 0.4878 0.14937 0.40822 0.0
C304 C 0.49588 0.21858 0.62093 0.0
C305 C 0.54658 0.18649 0.49199 0.0
H306 H 0.44161 0.13991 0.39027 0.0
H307 H 0.41356 0.15731 0.46099 0.0
H308 H 0.42073 0.20178 0.62951 0.0
H309 H 0.45287 0.22306 0.67438 0.0
H310 H 0.54195 0.22769 0.63823 0.0
H311 H 0.57012 0.20981 0.56824 0.0
H312 H 0.56286 0.16569 0.39837 0.0
H313 H 0.53008 0.14543 0.35221 0.0
H314 H 0.51731 0.24709 0.39676 0.0
H315 H 0.44584 0.24294 0.42221 0.0
H316 H 0.53696 0.11646 0.55613 0.0
H317 H 0.46538 0.11031 0.57461 0.0
C318 C 0.46738 0.52197 0.51798 0.0
C319 C 0.47223 0.54007 0.54613 0.0
C320 C 0.45244 0.55176 0.55102 0.0
C321 C 0.43662 0.54013 0.52572 0.0
N322 N 0.44533 0.52187 0.50593 0.0
Co323 Co 0.42979 0.50155 0.46073 0.0
N324 N 0.40691 0.52342 0.4398 0.0
C325 C 0.40197 0.54142 0.46679 0.0
C326 C 0.38451 0.55307 0.44525 0.0
C327 C 0.37788 0.5415 0.40274 0.0
C328 C 0.39174 0.52334 0.4005 0.0
N329 N 0.41504 0.48097 0.41453 0.0
C330 C 0.39974 0.48452 0.37605 0.0
C331 C 0.39388 0.46524 0.35389 0.0
C332 C 0.40543 0.44917 0.38048 0.0
C333 C 0.41782 0.45942 0.41709 0.0
N334 N 0.45269 0.47991 0.48268 0.0
C335 C 0.45106 0.45845 0.47985 0.0
C336 C 0.47052 0.44786 0.49412 0.0
C337 C 0.48527 0.46371 0.50586 0.0
C338 C 0.47395 0.48315 0.4982 0.0
N339 N 0.40959 0.49291 0.52118 0.0
C340 C 0.37715 0.48989 0.60511 0.0
C341 C 0.37131 0.48779 0.55196 0.0
C342 C 0.38751 0.48948 0.51115 0.0
C343 C 0.40009 0.49175 0.61571 0.0
C344 C 0.41607 0.49308 0.57313 0.0
N345 N 0.44917 0.51077 0.40081 0.0
C346 C 0.47559 0.5035 0.32887 0.0
C347 C 0.47921 0.52558 0.32166 0.0
C348 C 0.46708 0.54001 0.35327 0.0
C349 C 0.45209 0.53233 0.3921 0.0
C350 C 0.46047 0.49636 0.36919 0.0
H351 H 0.44322 0.54397 0.41598 0.0
H352 H 0.45817 0.47929 0.37541 0.0
H353 H 0.3816 0.48921 0.47123 0.0
H354 H 0.43348 0.49529 0.58211 0.0
C355 C 0.41593 0.54813 0.50741 0.0
C356 C 0.48351 0.50456 0.50489 0.0
C357 C 0.38834 0.50533 0.36465 0.0
C358 C 0.43414 0.44977 0.44968 0.0
H359 H 0.48838 0.54449 0.56064 0.0
H360 H 0.45031 0.56758 0.56756 0.0
H361 H 0.37763 0.56833 0.45825 0.0
H362 H 0.36409 0.54569 0.37713 0.0
H363 H 0.38203 0.46294 0.32275 0.0
H364 H 0.40511 0.43209 0.37327 0.0
H365 H 0.47425 0.4308 0.49179 0.0
H366 H 0.50253 0.46122 0.5169 0.0
H367 H 0.35404 0.48554 0.5414 0.0
H368 H 0.40556 0.49315 0.65622 0.0
H369 H 0.48461 0.49196 0.30445 0.0
H370 H 0.46921 0.55723 0.34801 0.0
C371 C 0.04225 0.37831 0.41104 0.0
C372 C 0.06352 0.38407 0.39259 0.0
C373 C 0.07841 0.37306 0.42392 0.0
C374 C 0.06544 0.36135 0.45972 0.0
N375 N 0.04316 0.36377 0.45226 0.0
Co376 Co 0.01822 0.35162 0.49865 0.0
N377 N 0.03995 0.33835 0.55018 0.0
C378 C 0.06253 0.34001 0.54812 0.0
C379 C 0.07306 0.32806 0.58712 0.0
C380 C 0.05625 0.31776 0.61505 0.0
C381 C 0.03638 0.32401 0.59128 0.0
N382 N 0.99334 0.33928 0.54507 0.0
C383 C 0.99423 0.32494 0.58689 0.0
C384 C 0.97296 0.31937 0.60569 0.0
C385 C 0.95808 0.33017 0.57395 0.0
C386 C 0.97105 0.34166 0.53768 0.0
N387 N 0.99643 0.36483 0.44756 0.0
C388 C 0.97384 0.36334 0.4499 0.0
C389 C 0.96334 0.37513 0.41061 0.0
C390 C 0.9802 0.38522 0.38243 0.0
C391 C 1.00006 0.37906 0.40652 0.0
N392 N 0.01941 0.32468 0.45697 0.0
C393 C 0.02161 0.28944 0.38757 0.0
C394 C 1.001 0.29846 0.40405 0.0
C395 C 1.00028 0.31584 0.43853 0.0
C396 C 0.041 0.29773 0.40881 0.0
C397 C 0.03952 0.31504 0.44334 0.0
N398 N 0.01708 0.37918 0.5382 0.0
C399 C 0.99617 0.4121 0.55685 0.0
C400 C 0.01597 0.42381 0.55843 0.0
C401 C 0.03626 0.41224 0.55569 0.0
C402 C 0.0364 0.39003 0.54706 0.0
C403 C 0.9971 0.38994 0.54708 0.0
H404 H 0.05242 0.38219 0.54487 0.0
H405 H 0.98144 0.38211 0.54395 0.0
H406 H 0.98407 0.32211 0.44892 0.0
H407 H 0.05494 0.32054 0.45792 0.0
C408 C 0.07347 0.35053 0.50511 0.0
C409 C 0.02167 0.38848 0.39196 0.0
C410 C 0.01472 0.31495 0.60728 0.0
C411 C 0.96293 0.35273 0.49278 0.0
H412 H 0.06789 0.39578 0.36152 0.0
H413 H 0.09647 0.37452 0.42291 0.0
H414 H 0.09091 0.32617 0.59279 0.0
H415 H 0.0584 0.30633 0.64793 0.0
H416 H 0.96865 0.308 0.63765 0.0
H417 H 0.94 0.3289 0.5754 0.0
H418 H 0.9455 0.37702 0.40483 0.0
H419 H 0.97808 0.39657 0.34936 0.0
H420 H 0.98543 0.29265 0.38906 0.0
H421 H 0.05736 0.29096 0.39867 0.0
H422 H 0.97999 0.42019 0.56006 0.0
H423 H 0.05206 0.42038 0.55896 0.0
C424 C 0.35005 0.03495 0.03918 0.0
C425 C 0.35917 0.05437 0.05272 0.0
C426 C 0.34377 0.07007 0.03993 0.0
C427 C 0.32618 0.05947 0.01916 0.0
N428 N 0.32916 0.03789 0.01944 0.0
Co429 Co 0.30862 0.01659 0.98831 0.0
N430 N 0.29018 0.03982 0.95269 0.0
C431 C 0.29381 0.06119 0.95412 0.0
C432 C 0.27929 0.07338 0.924 0.0
C433 C 0.2656 0.05891 0.90179 0.0
C434 C 0.27238 0.03862 0.92023 0.0
N435 N 0.28753 0.99522 0.95973 0.0
C436 C 0.26922 0.99813 0.92908 0.0
C437 C 0.25851 0.9788 0.92182 0.0
C438 C 0.27055 0.96319 0.94828 0.0
C439 C 0.28777 0.97378 0.97061 0.0
N440 N 0.32822 0.99341 0.0205 0.0
C441 C 0.32488 0.97198 0.01966 0.0
C442 C 0.34265 0.95985 0.03788 0.0
C443 C 0.35867 0.9744 0.04913 0.0
C444 C 0.34969 0.99461 0.03713 0.0
N445 N 0.2888 0.01772 0.05409 0.0
C446 C 0.25547 0.01735 0.13687 0.0
C447 C 0.26795 0.99884 0.12493 0.0
C448 C 0.28456 0.99945 0.08449 0.0
C449 C 0.26091 0.0364 0.10887 0.0
C450 C 0.27747 0.03624 0.06805 0.0
N451 N 0.32821 0.0151 0.92364 0.0
C452 C 0.35041 0.99163 0.86791 0.0
C453 C 0.36697 1.0072 0.86153 0.0
C454 C 0.36199 0.02794 0.8792 0.0
C455 C 0.3422 0.03166 0.90913 0.0
C456 C 0.33123 0.99589 0.89885 0.0
H457 H 0.33938 0.04755 0.92376 0.0
H458 H 0.32 0.98283 0.90555 0.0
H459 H 0.29343 0.98475 0.0783 0.0
H460 H 0.28042 0.05125 0.04779 0.0
C461 C 0.31007 0.06929 0.98683 0.0
C462 C 0.36257 0.01443 0.03957 0.0
C463 C 0.26126 0.01877 0.90631 0.0
C464 C 0.30568 0.96387 0.99715 0.0
H465 H 0.37574 0.05722 0.06703 0.0
H466 H 0.34612 0.08729 0.04078 0.0
H467 H 0.27858 0.09074 0.91921 0.0
H468 H 0.25204 0.06292 0.87535 0.0
H469 H 0.24357 0.97622 0.89953 0.0
H470 H 0.26738 0.94609 0.95012 0.0
H471 H 0.34423 0.94247 0.04012 0.0
H472 H 0.37537 0.9706 0.06274 0.0
H473 H 0.26489 0.98382 0.1467 0.0
H474 H 0.2519 0.05127 0.11709 0.0
H475 H 0.35296 0.97566 0.85238 0.0
H476 H 0.37398 0.04076 0.87373 0.0
C477 C 0.47788 0.43842 0.9614 0.0
C478 C 0.45814 0.45056 0.96231 0.0
C479 C 0.44139 0.4371 0.94829 0.0
C480 C 0.45178 0.41759 0.93935 0.0
N481 N 0.47396 0.41796 0.94718 0.0
Co482 Co 0.49546 0.39368 0.93601 0.0
N483 N 0.47472 0.37886 0.88921 0.0
C484 C 0.45257 0.38301 0.88607 0.0
C485 C 0.44223 0.36995 0.85139 0.0
C486 C 0.45886 0.35659 0.83196 0.0
C487 C 0.47855 0.36224 0.85593 0.0
N488 N 0.51674 0.36905 0.92669 0.0
C489 C 0.51693 0.35288 0.89134 0.0
C490 C 0.53471 0.33869 0.90064 0.0
C491 C 0.54561 0.34601 0.94391 0.0
C492 C 0.53404 0.36428 0.95863 0.0
N493 N 0.51623 0.40906 0.98145 0.0
C494 C 0.53388 0.40031 0.00666 0.0
C495 C 0.54592 0.41544 0.03223 0.0
C496 C 0.53512 0.43483 0.02213 0.0
C497 C 0.51708 0.43045 0.99083 0.0
N498 N 0.48264 0.37837 0.99922 0.0
C499 C 0.47394 0.35407 0.09365 0.0
C500 C 0.47662 0.37646 0.09474 0.0
C501 C 0.48067 0.38832 0.04712 0.0
C502 C 0.47413 0.34447 0.04376 0.0
C503 C 0.47846 0.35682 0.99732 0.0
N504 N 0.50901 0.40891 0.87415 0.0
C505 C 0.5432 0.42346 0.83724 0.0
C506 C 0.53129 0.44023 0.81225 0.0
C507 C 0.50782 0.43942 0.81273 0.0
C508 C 0.49693 0.42327 0.84351 0.0
C509 C 0.53184 0.40814 0.86812 0.0
H510 H 0.47884 0.42349 0.84592 0.0
H511 H 0.5419 0.397 0.89098 0.0
H512 H 0.48331 0.40541 0.04936 0.0
H513 H 0.47968 0.34856 0.9602 0.0
C514 C 0.44268 0.40069 0.91169 0.0
C515 C 0.50012 0.44651 0.97363 0.0
C516 C 0.49966 0.34967 0.85147 0.0
C517 C 0.54095 0.37915 0.9959 0.0
H518 H 0.45605 0.46744 0.97077 0.0
H519 H 0.42404 0.4415 0.9417 0.0
H520 H 0.42475 0.37027 0.84092 0.0
H521 H 0.45661 0.34373 0.8045 0.0
H522 H 0.53925 0.32443 0.87879 0.0
H523 H 0.56061 0.33919 0.96137 0.0
H524 H 0.56137 0.41291 0.05329 0.0
H525 H 0.53994 0.45038 0.03598 0.0
H526 H 0.47611 0.38471 0.13221 0.0
H527 H 0.47222 0.32726 0.04061 0.0
H528 H 0.56138 0.42313 0.83643 0.0
H529 H 0.49802 0.45192 0.79291 0.0
C530 C 0.1648 0.48386 0.0338 0.0
C531 C 0.1575 0.46634 0.06468 0.0
C532 C 0.17414 0.45071 0.06106 0.0
C533 C 0.191 0.4598 0.02986 0.0
N534 N 0.18597 0.48012 0.01478 0.0
Co535 Co 0.20582 0.49971 0.97314 0.0
N536 N 0.22266 0.47557 0.94043 0.0
C537 C 0.22279 0.4551 0.95966 0.0
C538 C 0.23638 0.44177 0.92978 0.0
C539 C 0.24566 0.45477 0.8901 0.0
C540 C 0.2374 0.47549 0.89822 0.0
N541 N 0.22558 0.51987 0.9325 0.0
C542 C 0.24029 0.51631 0.89137 0.0
C543 C 0.25198 0.53497 0.87811 0.0
C544 C 0.24453 0.55043 0.91276 0.0
C545 C 0.22875 0.5405 0.94534 0.0
N546 N 0.18851 0.52339 0.00595 0.0
C547 C 0.19601 0.54321 0.0137 0.0
C548 C 0.18037 0.55573 0.04038 0.0
C549 C 0.16193 0.54284 0.04895 0.0
C550 C 0.16705 0.52338 0.02528 0.0
N551 N 0.22734 0.49943 0.03171 0.0
C552 C 0.25943 0.50206 0.11186 0.0
C553 C 0.2363 0.50323 0.12445 0.0
C554 C 0.22055 0.50193 0.08381 0.0
C555 C 0.26589 0.49882 0.05862 0.0
C556 C 0.2498 0.49754 0.01966 0.0
N557 N 0.18471 0.50018 0.91513 0.0
C558 C 0.16061 0.52129 0.85846 0.0
C559 C 0.14757 0.50326 0.85041 0.0
C560 C 0.15433 0.48332 0.87211 0.0
C561 C 0.17339 0.48203 0.90337 0.0
C562 C 0.17901 0.51945 0.89125 0.0
H563 H 0.17808 0.46661 0.92091 0.0
H564 H 0.18769 0.53393 0.90012 0.0
H565 H 0.2029 0.50329 0.0943 0.0
H566 H 0.2558 0.49535 0.97941 0.0
C567 C 0.20857 0.44882 0.00307 0.0
C568 C 0.15234 0.50439 0.0243 0.0
C569 C 0.24603 0.49497 0.86981 0.0
C570 C 0.21522 0.55036 0.98507 0.0
H571 H 0.14177 0.46485 0.08687 0.0
H572 H 0.1734 0.43434 0.07677 0.0
H573 H 0.23915 0.42463 0.93583 0.0
H574 H 0.2577 0.44965 0.85979 0.0
H575 H 0.26518 0.53701 0.84804 0.0
H576 H 0.24999 0.56692 0.91395 0.0
H577 H 0.18172 0.57249 0.05017 0.0
H578 H 0.14652 0.54733 0.06984 0.0
H579 H 0.23041 0.50567 0.16507 0.0
H580 H 0.28343 0.49722 0.04678 0.0
H581 H 0.1557 0.537 0.8425 0.0
H582 H 0.14459 0.46906 0.86642 0.0
C583 C 0.02742 0.09621 0.97762 0.0
C584 C 0.04755 0.08541 0.98641 0.0
C585 C 0.06423 0.10005 0.97565 0.0
C586 C 0.05335 0.11892 0.96112 0.0
N587 N 0.03096 0.11697 0.96266 0.0
Co588 Co 0.00878 0.13948 0.94249 0.0
N589 N 0.0313 0.15549 0.89826 0.0
C590 C 0.05371 0.15318 0.90192 0.0
C591 C 0.06529 0.16691 0.86786 0.0
C592 C 0.04918 0.17878 0.84171 0.0
C593 C 0.02852 0.1716 0.86126 0.0
N594 N 0.98645 0.16217 0.92329 0.0
C595 C 0.98732 0.17787 0.88463 0.0
C596 C 0.96786 0.19047 0.88615 0.0
C597 C 0.95481 0.18272 0.9281 0.0
C598 C 0.96683 0.16575 0.94971 0.0
N599 N 0.9865 0.12292 0.98619 0.0
C600 C 0.96683 0.13051 0.00577 0.0
C601 C 0.95401 0.1145 0.02928 0.0
C602 C 0.96641 0.09578 0.02374 0.0
C603 C 0.98632 0.10141 0.99746 0.0
N604 N 0.01634 0.15613 0.00492 0.0
C605 C 0.02203 0.18134 0.09489 0.0
C606 C 0.01957 0.15893 0.1002 0.0
C607 C 0.01698 0.14661 0.05473 0.0
C608 C 0.02225 0.19063 0.04339 0.0
C609 C 0.01934 0.17787 0.9993 0.0
N610 N 1.00078 0.12294 0.88098 0.0
C611 C 0.9716 0.10461 0.83768 0.0
C612 C 0.9875 0.09156 0.81194 0.0
C613 C 0.01029 0.09563 0.81753 0.0
C614 C 0.01662 0.11162 0.85226 0.0
C615 C 0.97856 0.12027 0.87163 0.0
H616 H 0.03424 0.11394 0.85834 0.0
H617 H 0.96579 0.12915 0.89315 0.0
H618 H 0.01496 0.12944 0.05995 0.0
H619 H 0.01882 0.18584 0.96074 0.0
C620 C 0.0631 0.13644 0.9333 0.0
C621 C 1.00516 0.08659 0.98403 0.0
C622 C 1.00698 0.18241 0.84929 0.0
C623 C 0.95885 0.15087 0.98873 0.0
H624 H 0.04988 0.06864 0.9981 0.0
H625 H 0.08213 0.09684 0.97478 0.0
H626 H 0.08329 0.16804 0.86222 0.0
H627 H 0.05234 0.19171 0.81284 0.0
H628 H 0.9636 0.20401 0.86014 0.0
H629 H 0.93824 0.18838 0.94026 0.0
H630 H 0.93695 0.11592 0.04477 0.0
H631 H 0.96094 0.07992 0.03631 0.0
H632 H 0.01957 0.15098 0.13916 0.0
H633 H 0.02384 0.20786 0.03712 0.0
H634 H 0.95382 0.10201 0.83353 0.0
H635 H 0.02298 0.08589 0.79752 0.0
C636 C 0.85134 0.98407 0.49682 0.0
C637 C 0.86122 0.965 0.48016 0.0
C638 C 0.84569 0.94919 0.49044 0.0
C639 C 0.82723 0.95951 0.51255 0.0
N640 N 0.8302 0.98079 0.51596 0.0
Co641 Co 0.80902 1.00173 0.54856 0.0
N642 N 0.79348 0.97886 0.59123 0.0
C643 C 0.79497 0.95761 0.58205 0.0
C644 C 0.78228 0.94548 0.61764 0.0
C645 C 0.77186 0.96002 0.6506 0.0
C646 C 0.77861 0.98035 0.63293 0.0
N647 N 0.7878 0.02298 0.58024 0.0
C648 C 0.77291 0.02084 0.62186 0.0
C649 C 0.76018 0.03961 0.62755 0.0
C650 C 0.76719 0.05373 0.5877 0.0
C651 C 0.78373 0.0429 0.55977 0.0
N652 N 0.82528 0.02419 0.50608 0.0
C653 C 0.81747 0.04405 0.4938 0.0
C654 C 0.83369 0.05673 0.46973 0.0
C655 C 0.85283 0.04406 0.46733 0.0
C656 C 0.84722 0.02414 0.48973 0.0
N657 N 0.78788 0.99829 0.49044 0.0
C658 C 0.75568 1.00048 0.41029 0.0
C659 C 0.77874 1.0013 0.39717 0.0
C660 C 0.79458 1.00014 0.43787 0.0
C661 C 0.74938 0.99714 0.46396 0.0
C662 C 0.76554 0.9961 0.50296 0.0
N663 N 0.82978 1.00573 0.60619 0.0
C664 C 0.85439 0.03054 0.64533 0.0
C665 C 0.86849 0.01355 0.66129 0.0
C666 C 0.86123 0.99242 0.65605 0.0
C667 C 0.84175 0.98882 0.62773 0.0
C668 C 0.83492 0.02628 0.61874 0.0
H669 H 0.83744 0.97247 0.61954 0.0
H670 H 0.82526 0.03982 0.60389 0.0
H671 H 0.81216 1.00153 0.42705 0.0
H672 H 0.75963 0.99439 0.54362 0.0
C673 C 0.81022 0.94958 0.54353 0.0
C674 C 0.86235 1.00507 0.49487 0.0
C675 C 0.76836 1.0006 0.65197 0.0
C676 C 0.79758 0.05163 0.51864 0.0
H677 H 0.87809 0.96272 0.46408 0.0
H678 H 0.84832 0.93203 0.4864 0.0
H679 H 0.78098 0.92813 0.6199 0.0
H680 H 0.76013 0.95609 0.68294 0.0
H681 H 0.74676 0.04259 0.65643 0.0
H682 H 0.76111 0.07002 0.58043 0.0
H683 H 0.83237 0.07372 0.45931 0.0
H684 H 0.86897 0.04937 0.45228 0.0
H685 H 0.78447 1.00368 0.35614 0.0
H686 H 0.7319 0.99571 0.47618 0.0
H687 H 0.85911 0.04711 0.65034 0.0
H688 H 0.87157 0.97887 0.66898 0.0
C689 C 0.53939 0.9376 0.52295 0.0
C690 C 0.55989 0.94774 0.51695 0.0
C691 C 0.57615 0.93226 0.52645 0.0
C692 C 0.56479 0.91359 0.53817 0.0
N693 N 0.54245 0.91645 0.53608 0.0
Co694 Co 0.51964 0.89467 0.55575 0.0
N695 N 0.541 0.87746 0.5992 0.0
C696 C 0.56349 0.87877 0.59538 0.0
C697 C 0.57413 0.86448 0.62926 0.0
C698 C 0.55728 0.85334 0.6555 0.0
C699 C 0.53716 0.86151 0.63621 0.0
N700 N 0.49664 0.87287 0.57449 0.0
C701 C 0.49645 0.85707 0.61298 0.0
C702 C 0.47699 0.8452 0.61098 0.0
C703 C 0.46502 0.85357 0.56901 0.0
C704 C 0.47765 0.87015 0.54781 0.0
N705 N 0.49848 0.91233 0.51308 0.0
C706 C 0.47934 0.90562 0.49264 0.0
C707 C 0.46749 0.92224 0.46854 0.0
C708 C 0.47999 0.9404 0.47481 0.0
C709 C 0.49876 0.93384 0.50255 0.0
N710 N 0.52824 0.8779 0.49266 0.0
C711 C 0.53238 0.85208 0.40236 0.0
C712 C 0.53177 0.87465 0.39696 0.0
C713 C 0.52974 0.88728 0.44267 0.0
C714 C 0.53251 0.84295 0.45399 0.0
C715 C 0.53047 0.85601 0.49818 0.0
N716 N 0.51058 0.9111 0.61807 0.0
C717 C 0.48066 0.9282 0.66755 0.0
C718 C 0.4961 0.939 0.69726 0.0
C719 C 0.51902 0.93502 0.68846 0.0
C720 C 0.52596 0.92078 0.64861 0.0
C721 C 0.48819 0.91435 0.62835 0.0
H722 H 0.54368 0.91809 0.64137 0.0
H723 H 0.4758 0.9069 0.60497 0.0
H724 H 0.52842 0.90457 0.43754 0.0
H725 H 0.52964 0.84811 0.53686 0.0
C726 C 0.57368 0.89541 0.56497 0.0
C727 C 0.51715 0.94798 0.51654 0.0
C728 C 0.51514 0.85191 0.64876 0.0
C729 C 0.47074 0.88548 0.50893 0.0
H730 H 0.563 0.96456 0.50846 0.0
H731 H 0.59399 0.9348 0.52893 0.0
H732 H 0.59198 0.86262 0.63499 0.0
H733 H 0.55959 0.84032 0.68446 0.0
H734 H 0.47202 0.83176 0.63673 0.0
H735 H 0.44873 0.84857 0.5566 0.0
H736 H 0.45101 0.92157 0.45175 0.0
H737 H 0.47568 0.9566 0.46136 0.0
H738 H 0.5318 0.88247 0.35784 0.0
H739 H 0.53355 0.82566 0.4604 0.0
H740 H 0.46279 0.93087 0.67378 0.0
H741 H 0.53134 0.94306 0.71136 0.0
C742 C 0.66448 0.54028 0.45583 0.0
C743 C 0.65502 0.55907 0.43462 0.0
C744 C 0.67133 0.57445 0.43477 0.0
C745 C 0.68979 0.56439 0.45641 0.0
N746 N 0.68608 0.54359 0.4691 0.0
Co747 Co 0.70672 0.52384 0.50817 0.0
N748 N 0.72352 0.5479 0.53748 0.0
C749 C 0.72285 0.56841 0.51874 0.0
C750 C 0.73627 0.58167 0.54631 0.0
C751 C 0.74627 0.56861 0.58408 0.0
C752 C 0.73854 0.54794 0.57722 0.0
N753 N 0.72719 0.50362 0.54635 0.0
C754 C 0.74218 0.50719 0.58474 0.0
C755 C 0.75415 0.48841 0.59709 0.0
C756 C 0.74653 0.47276 0.56495 0.0
C757 C 0.73041 0.48274 0.53461 0.0
N758 N 0.68947 0.50011 0.47939 0.0
C759 C 0.69651 0.47962 0.4746 0.0
C760 C 0.67989 0.46662 0.45726 0.0
C761 C 0.6613 0.47984 0.45144 0.0
C762 C 0.66762 0.50017 0.46575 0.0
N763 N 0.72777 0.52338 0.44612 0.0
C764 C 0.7595 0.51939 0.36134 0.0
C765 C 0.73635 0.51842 0.3524 0.0
C766 C 0.72075 0.5204 0.39539 0.0
C767 C 0.76615 0.5232 0.41317 0.0
C768 C 0.75024 0.52513 0.45446 0.0
N769 N 0.68611 0.52413 0.56985 0.0
C770 C 0.66333 0.50389 0.63276 0.0
C771 C 0.65024 0.52224 0.64311 0.0
C772 C 0.65627 0.5419 0.61893 0.0
C773 C 0.67471 0.54258 0.5833 0.0
C774 C 0.68106 0.50513 0.59575 0.0
H775 H 0.67896 0.55782 0.56442 0.0
H776 H 0.68982 0.49043 0.58584 0.0
H777 H 0.70308 0.51916 0.3879 0.0
H778 H 0.75641 0.52765 0.49352 0.0
C779 C 0.7075 0.57495 0.47979 0.0
C780 C 0.65296 0.51949 0.46421 0.0
C781 C 0.74761 0.52851 0.60492 0.0
C782 C 0.71615 0.47256 0.49975 0.0
H783 H 0.638 0.56184 0.42235 0.0
H784 H 0.66921 0.59142 0.42498 0.0
H785 H 0.73824 0.59886 0.54041 0.0
H786 H 0.75822 0.5737 0.61261 0.0
H787 H 0.76751 0.48634 0.62514 0.0
H788 H 0.75193 0.45606 0.56431 0.0
H789 H 0.68065 0.44934 0.45311 0.0
H790 H 0.64492 0.47505 0.43914 0.0
H791 H 0.73035 0.51559 0.31292 0.0
H792 H 0.7837 0.52469 0.42213 0.0
H793 H 0.65902 0.48839 0.6507 0.0
H794 H 0.64655 0.55642 0.62657 0.0
C795 C 0.98635 0.59645 0.55804 0.0
C796 C 0.96665 0.58589 0.54828 0.0
C797 C 0.94941 0.60034 0.55789 0.0
C798 C 0.95952 0.61889 0.57268 0.0
N799 N 0.98198 0.61695 0.57247 0.0
Co800 Co 1.00313 0.63932 0.59256 0.0
N801 N 0.97955 0.65495 0.63399 0.0
C802 C 0.9573 0.65245 0.62971 0.0
C803 C 0.94488 0.66571 0.6624 0.0
C804 C 0.96027 0.67748 0.68826 0.0
C805 C 0.98133 0.67082 0.66967 0.0
N806 N 0.02437 0.66196 0.61133 0.0
C807 C 0.02242 0.67744 0.64832 0.0
C808 C 0.04104 0.69058 0.64585 0.0
C809 C 0.05488 0.68317 0.60554 0.0
C810 C 0.04403 0.66598 0.58553 0.0
N811 N 0.02657 0.62318 0.55183 0.0
C812 C 0.04625 0.631 0.53341 0.0
C813 C 0.05992 0.61533 0.51169 0.0
C814 C 0.04805 0.59657 0.517 0.0
C815 C 0.02757 0.60185 0.54123 0.0
N816 N 0.99575 0.65641 0.52811 0.0
C817 C 0.99025 0.68202 0.43505 0.0
C818 C 0.99349 0.65965 0.43232 0.0
C819 C 0.99598 0.64713 0.47927 0.0
C820 C 0.98913 0.69109 0.48555 0.0
C821 C 0.99194 0.67811 0.53126 0.0
N822 N 0.01098 0.62218 0.65603 0.0
C823 C 0.04078 0.603 0.69959 0.0
C824 C 0.02565 0.58776 0.71985 0.0
C825 C 1.00268 0.59148 0.7135 0.0
C826 C 0.99562 0.60918 0.68189 0.0
C827 C 0.03313 0.62008 0.66791 0.0
H828 H 0.97796 0.6112 0.67458 0.0
H829 H 0.04555 0.63024 0.64885 0.0
H830 H 0.99864 0.62999 0.47597 0.0
H831 H 0.99169 0.68587 0.56907 0.0
C832 C 0.94888 0.636 0.59906 0.0
C833 C 0.00895 0.58685 0.5527 0.0
C834 C 1.00232 0.68154 0.68215 0.0
C835 C 0.05314 0.65135 0.54879 0.0
H836 H 0.96495 0.56938 0.53655 0.0
H837 H 0.93163 0.59718 0.55762 0.0
H838 H 0.92681 0.66653 0.66746 0.0
H839 H 0.9564 0.68993 0.71654 0.0
H840 H 0.0441 0.70433 0.66999 0.0
H841 H 0.07117 0.68927 0.59327 0.0
H842 H 0.07709 0.61697 0.49725 0.0
H843 H 0.05418 0.58089 0.50545 0.0
H844 H 0.99416 0.65187 0.39422 0.0
H845 H 0.98689 0.70829 0.48981 0.0
H846 H 0.05866 0.60069 0.70441 0.0
H847 H 0.99053 0.58005 0.7293 0.0
H848 H 0.5069 0.11281 0.44799 0.0
H849 H 0.4973 0.05236 0.1751 0.0
H850 H 0.47066 0.13766 0.31325 0.0
H851 H 0.53931 0.03033 0.30302 0.0
H852 H 0.47925 0.07835 0.23452 0.0
H853 H 0.51165 0.07817 0.40431 0.0
C854 C 0.49959 0.1107 0.40961 0.0
C855 C 0.48833 0.12786 0.38415 0.0
C856 C 0.492 0.06749 0.25016 0.0
C857 C 0.49386 0.08864 0.33351 0.0
C858 C 0.5021 0.05252 0.21643 0.0
C859 C 0.5198 0.03936 0.23441 0.0
C860 C 0.49996 0.0695 0.30189 0.0
C861 C 0.52564 0.04021 0.28794 0.0
C862 C 0.50228 0.09103 0.38467 0.0
C863 C 0.47932 0.12466 0.33416 0.0
N864 N 0.51604 0.05539 0.31964 0.0
N865 N 0.48246 0.10546 0.31017 0.0
H866 H 0.47553 0.52634 0.21368 0.0
H867 H 0.54257 0.63457 0.20256 0.0
H868 H 0.51753 0.54663 0.3391 0.0
H869 H 0.50802 0.61084 0.06849 0.0
H870 H 0.5393 0.59917 0.24708 0.0
H871 H 0.49354 0.55268 0.15257 0.0
C872 C 0.48923 0.53573 0.22758 0.0
C873 C 0.49505 0.53454 0.28125 0.0
C874 C 0.53279 0.60149 0.20744 0.0
C875 C 0.515 0.56515 0.21288 0.0
C876 C 0.5347 0.62168 0.18217 0.0
C877 C 0.52562 0.62538 0.13192 0.0
C878 C 0.52125 0.5851 0.18267 0.0
C879 C 0.51522 0.6084 0.10729 0.0
C880 C 0.49933 0.55094 0.19301 0.0
C881 C 0.5126 0.54722 0.29786 0.0
N882 N 0.51304 0.58903 0.13316 0.0
N883 N 0.52165 0.56234 0.2641 0.0
H884 H 0.01836 0.47438 0.12111 0.0
H885 H 1.00645 0.42821 0.42025 0.0
H886 H 0.9735 0.50175 0.23942 0.0
H887 H 0.03747 0.39428 0.28952 0.0
H888 H 1.00265 0.4604 0.36176 0.0
H889 H 0.03478 0.45106 0.19028 0.0
C890 C 0.01251 0.47592 0.16213 0.0
C891 C 0.99448 0.48979 0.17476 0.0
C892 C 0.01067 0.44605 0.34617 0.0
C893 C 0.01262 0.46279 0.25367 0.0
C894 C 0.01282 0.42776 0.37941 0.0
C895 C 0.02228 0.40874 0.35932 0.0
C896 C 0.01803 0.44519 0.29257 0.0
C897 C 0.03023 0.40875 0.30635 0.0
C898 C 0.02171 0.4625 0.20147 0.0
C899 C 0.98741 0.49124 0.22829 0.0
N900 N 0.02779 0.42667 0.27466 0.0
N901 N 0.99621 0.47755 0.26578 0.0
H902 H 0.01001 0.92595 0.0831 0.0
H903 H 1.0017 0.96803 0.3809 0.0
H904 H 0.98063 0.89085 0.21727 0.0
H905 H 0.04384 0.99705 0.25754 0.0
H906 H 0.98534 0.94536 0.31463 0.0
H907 H 0.01485 0.95697 0.14013 0.0
C908 C 1.00425 0.925 0.12443 0.0
C909 C 0.99491 0.90599 0.14585 0.0
C910 C 0.99783 0.95698 0.3017 0.0
C911 C 1.00038 0.9411 0.21101 0.0
C912 C 1.00701 0.97002 0.33942 0.0
C913 C 0.0242 0.98424 0.32448 0.0
C914 C 1.00609 0.95799 0.24876 0.0
C915 C 0.03057 0.98627 0.27042 0.0
C916 C 1.00701 0.94262 0.15687 0.0
C917 C 0.98777 0.90534 0.19943 0.0
N918 N 0.02178 0.97296 0.23449 0.0
N919 N 0.99078 0.92261 0.2303 0.0
H920 H 0.39711 0.02963 0.7959 0.0
H921 H 0.48435 0.9309 0.80074 0.0
H922 H 0.38975 0.97041 0.88839 0.0
H923 H 0.486 0.98127 0.67955 0.0
H924 H 0.45648 0.95184 0.85155 0.0
H925 H 0.43509 0.01765 0.76813 0.0
C926 C 0.40347 0.01421 0.81051 0.0
C927 C 0.38999 1.00079 0.84344 0.0
C928 C 0.46336 0.95864 0.8145 0.0
C929 C 0.43338 0.9873 0.81308 0.0
C930 C 0.4795 0.94682 0.78605 0.0
C931 C 0.48729 0.95446 0.7361 0.0
C932 C 0.45471 0.97794 0.79207 0.0
C933 C 0.48025 0.97495 0.71801 0.0
C934 C 0.42512 1.00744 0.79487 0.0
C935 C 0.39917 0.98102 0.86152 0.0
N936 N 0.46393 0.98585 0.74544 0.0
N937 N 0.42017 0.9749 0.84603 0.0
H938 H 0.60723 0.52959 0.61212 0.0
H939 H 0.56214 0.46182 0.86551 0.0
H940 H 0.6462 0.50859 0.74638 0.0
H941 H 0.52904 0.46217 0.71479 0.0
H942 H 0.58694 0.48971 0.83104 0.0
H943 H 0.57337 0.51517 0.65772 0.0
C944 C 0.60847 0.5225 0.65184 0.0
C945 C 0.62942 0.51986 0.67545 0.0
C946 C 0.57413 0.48393 0.80551 0.0
C947 C 0.59115 0.50379 0.72765 0.0
C948 C 0.55993 0.46799 0.82514 0.0
C949 C 0.5438 0.45937 0.79254 0.0
C950 C 0.57266 0.4911 0.75231 0.0
C951 C 0.54146 0.46824 0.74092 0.0
C952 C 0.58925 0.51424 0.67763 0.0
C953 C 0.63032 0.51076 0.7269 0.0
N954 N 0.55613 0.4834 0.72183 0.0
N955 N 0.61148 0.50288 0.7511 0.0
H956 H 0.02812 0.57176 0.82286 0.0
H957 H 0.13972 0.51641 0.74814 0.0
H958 H 0.04533 0.55743 0.65965 0.0
H959 H 0.1063 0.49815 0.89615 0.0
H960 H 0.10389 0.52969 0.71395 0.0
H961 H 0.05407 0.54285 0.85239 0.0
C962 C 0.03672 0.56195 0.79342 0.0
C963 C 0.03482 0.56688 0.73892 0.0
C964 C 0.10421 0.52229 0.75353 0.0
C965 C 0.06481 0.53468 0.77182 0.0
C966 C 0.12463 0.51471 0.77284 0.0
C967 C 0.12574 0.50629 0.82496 0.0
C968 C 0.085 0.52215 0.78736 0.0
C969 C 0.10588 0.50463 0.85586 0.0
C970 C 0.05156 0.54558 0.81012 0.0
C971 C 0.04646 0.55402 0.70207 0.0
N972 N 0.08632 0.51304 0.8372 0.0
N973 N 0.06137 0.53884 0.71915 0.0
H974 H 0.97334 0.05365 0.85483 0.0
H975 H 0.89921 0.03666 0.604 0.0
H976 H 0.98175 0.08845 0.70506 0.0
H977 H 0.89014 1.00136 0.75311 0.0
H978 H 0.93522 0.0492 0.63329 0.0
H979 H 0.94946 0.028 0.81195 0.0
C980 C 0.97081 0.05534 0.81234 0.0
C981 C 0.9795 0.073 0.78315 0.0
C982 C 0.92557 0.03853 0.65956 0.0
C983 C 0.95154 0.0444 0.73432 0.0
C984 C 0.90499 0.03141 0.64289 0.0
C985 C 0.89156 0.01836 0.67678 0.0
C986 C 0.93259 0.03299 0.71113 0.0
C987 C 0.89994 0.01163 0.72618 0.0
C988 C 0.95701 0.04085 0.78796 0.0
C989 C 0.97542 0.0749 0.72861 0.0
N990 N 0.91977 0.0194 0.74241 0.0
N991 N 0.96139 0.06096 0.70608 0.0
H992 H 0.67765 0.01555 0.92452 0.0
H993 H 0.72707 0.98365 0.63637 0.0
H994 H 0.64167 0.97597 0.81843 0.0
H995 H 0.76471 0.01619 0.75285 0.0
H996 H 0.69474 0.98237 0.69925 0.0
H997 H 0.70845 0.01781 0.85916 0.0
C998 C 0.67624 1.00718 0.88752 0.0
C999 C 0.65708 0.99518 0.87762 0.0
C1000 C 0.71005 0.98974 0.71119 0.0
C1001 C 0.69255 0.99805 0.80151 0.0
C1002 C 0.72849 0.99042 0.67542 0.0
C1003 C 0.74864 0.99972 0.68998 0.0
C1004 C 0.71167 0.99868 0.76174 0.0
C1005 C 0.74955 0.00866 0.74046 0.0
C1006 C 0.69388 0.0086 0.84998 0.0
C1007 C 0.65607 0.98535 0.82798 0.0
N1008 N 0.73137 1.00788 0.77452 0.0
N1009 N 0.6736 0.9869 0.79192 0.0
H1010 H 0.51703 0.85195 0.75755 0.0
H1011 H 0.53099 0.75822 0.91572 0.0
H1012 H 0.51126 0.80912 0.62701 0.0
H1013 H 0.50154 0.7252 0.78719 0.0
H1014 H 0.53065 0.79156 0.86153 0.0
H1015 H 0.5169 0.8209 0.81982 0.0
C1016 C 0.51568 0.83593 0.74218 0.0
C1017 C 0.51386 0.83309 0.68727 0.0
C1018 C 0.52378 0.77726 0.84519 0.0
C1019 C 0.51455 0.79713 0.758 0.0
C1020 C 0.52419 0.75815 0.87613 0.0
C1021 C 0.51599 0.73907 0.85612 0.0
C1022 C 0.5151 0.77735 0.79351 0.0
C1023 C 0.50772 0.73968 0.80428 0.0
C1024 C 0.51589 0.81809 0.77765 0.0
C1025 C 0.51236 0.812 0.66921 0.0
N1026 N 0.50753 0.75846 0.77479 0.0
N1027 N 0.51266 0.79488 0.7044 0.0
H1028 H 0.87598 0.54987 0.75568 0.0
H1029 H 0.7486 0.51539 0.70974 0.0
H1030 H 0.83707 0.50991 0.86567 0.0
H1031 H 0.78999 0.54425 0.58484 0.0
H1032 H 0.78046 0.51571 0.76947 0.0
H1033 H 0.84475 0.54985 0.69359 0.0
C1034 C 0.86101 0.54101 0.76679 0.0
C1035 C 0.8592 0.53017 0.81668 0.0
C1036 C 0.78262 0.52212 0.72912 0.0
C1037 C 0.82318 0.53031 0.74589 0.0
C1038 C 0.76437 0.52203 0.69519 0.0
C1039 C 0.76655 0.53014 0.64266 0.0
C1040 C 0.80334 0.53038 0.71052 0.0
C1041 C 0.78749 0.53823 0.62545 0.0
C1042 C 0.84311 0.54111 0.7314 0.0
C1043 C 0.8392 0.51904 0.82858 0.0
N1044 N 0.80503 0.53821 0.65924 0.0
N1045 N 0.82209 0.51952 0.79384 0.0
H1046 H 0.98584 0.81194 0.79715 0.0
H1047 H 0.01653 0.68543 0.7844 0.0
H1048 H 0.01017 0.77466 0.9313 0.0
H1049 H 0.98665 0.72185 0.65562 0.0
H1050 H 0.01544 0.71797 0.83828 0.0
H1051 H 0.98704 0.77936 0.74388 0.0
C1052 C 0.99132 0.79681 0.81537 0.0
C1053 C 0.99761 0.79587 0.86883 0.0
C1054 C 0.00905 0.71887 0.79831 0.0
C1055 C 0.99938 0.7585 0.80805 0.0
C1056 C 0.00967 0.70031 0.76769 0.0
C1057 C 1.00147 0.70101 0.71588 0.0
C1058 C 1.00031 0.73833 0.77673 0.0
C1059 C 0.99294 0.72068 0.69566 0.0
C1060 C 0.99207 0.77822 0.785 0.0
C1061 C 1.005 0.77598 0.89031 0.0
N1062 N 0.99258 0.73852 0.72605 0.0
N1063 N 1.00566 0.7581 0.85996 0.0
H1064 H 0.13391 0.04318 0.74698 0.0
H1065 H 0.25973 1.00206 0.80699 0.0
H1066 H 0.17475 1.00429 0.64126 0.0
H1067 H 0.21909 0.03683 0.92109 0.0
H1068 H 0.22833 1.00304 0.74601 0.0
H1069 H 0.16407 0.04107 0.81207 0.0
C1070 C 0.14909 0.03412 0.73748 0.0
C1071 C 0.1518 0.0242 0.68794 0.0
C1072 C 0.22617 0.01048 0.78434 0.0
C1073 C 0.18651 0.02181 0.76225 0.0
C1074 C 0.24413 0.00991 0.81909 0.0
C1075 C 0.24202 0.01945 0.86896 0.0
C1076 C 0.20581 0.02073 0.79932 0.0
C1077 C 0.22141 0.02941 0.88278 0.0
C1078 C 0.16637 0.033 0.77458 0.0
C1079 C 0.17197 0.0127 0.67811 0.0
N1080 N 0.20413 0.02985 0.84817 0.0
N1081 N 0.18843 0.01193 0.71456 0.0
H1082 H 0.50316 0.26029 0.5884 0.0
H1083 H 0.49576 0.30746 0.88429 0.0
H1084 H 0.49107 0.22105 0.73001 0.0
H1085 H 0.50427 0.34742 0.74253 0.0
H1086 H 0.49521 0.27556 0.82879 0.0
H1087 H 0.5048 0.29221 0.64383 0.0
C1088 C 0.5008 0.25846 0.63125 0.0
C1089 C 0.49674 0.23808 0.65467 0.0
C1090 C 0.49733 0.29125 0.80966 0.0
C1091 C 0.49874 0.2745 0.71864 0.0
C1092 C 0.49777 0.30944 0.8414 0.0
C1093 C 0.50045 0.33004 0.81796 0.0
C1094 C 0.49947 0.29361 0.7538 0.0
C1095 C 0.50246 0.33178 0.76214 0.0
C1096 C 0.50174 0.27666 0.66291 0.0
C1097 C 0.494 0.23652 0.71039 0.0
N1098 N 0.50197 0.31385 0.73201 0.0
N1099 N 0.49501 0.25444 0.74039 0.0
H1100 H 0.37623 0.47264 0.70866 0.0
H1101 H 0.24734 0.50774 0.76466 0.0
H1102 H 0.33627 0.51043 0.59873 0.0
H1103 H 0.2887 0.47927 0.88647 0.0
H1104 H 0.27963 0.50693 0.70192 0.0
H1105 H 0.34464 0.47353 0.77389 0.0
C1106 C 0.36095 0.4812 0.69823 0.0
C1107 C 0.35893 0.49115 0.64752 0.0
C1108 C 0.28169 0.50072 0.74226 0.0
C1109 C 0.32256 0.49206 0.72188 0.0
C1110 C 0.26321 0.5011 0.77789 0.0
C1111 C 0.26527 0.49321 0.83039 0.0
C1112 C 0.30252 0.49242 0.75916 0.0
C1113 C 0.28633 0.48511 0.84593 0.0
C1114 C 0.34285 0.48161 0.73541 0.0
C1115 C 0.33857 0.50198 0.63653 0.0
N1116 N 0.3041 0.48486 0.81051 0.0
N1117 N 0.32129 0.50202 0.67303 0.0
H1118 H 0.02217 0.27323 0.57962 0.0
H1119 H 1.00308 0.22454 0.87742 0.0
H1120 H 1.00478 0.312 0.71451 0.0
H1121 H 0.01227 0.18492 0.74028 0.0
H1122 H 1.00475 0.25675 0.8188 0.0
H1123 H 0.01994 0.24074 0.63772 0.0
C1124 C 0.0179 0.27482 0.6216 0.0
C1125 C 0.01359 0.2952 0.64249 0.0
C1126 C 1.00625 0.24105 0.80131 0.0
C1127 C 0.01105 0.25824 0.70929 0.0
C1128 C 1.00519 0.22268 0.83477 0.0
C1129 C 1.00708 0.20207 0.81344 0.0
C1130 C 0.00955 0.23889 0.74599 0.0
C1131 C 0.01042 0.20053 0.75811 0.0
C1132 C 0.01658 0.25632 0.65472 0.0
C1133 C 0.00816 0.29652 0.69703 0.0
N1134 N 0.01155 0.21867 0.72629 0.0
N1135 N 1.00706 0.27832 0.72854 0.0
H1136 H 0.13076 0.9901 0.31311 0.0
H1137 H 0.24552 0.04576 0.21651 0.0
H1138 H 0.16595 0.0341 0.40916 0.0
H1139 H 0.22257 0.9872 0.14944 0.0
H1140 H 0.21444 0.04402 0.28248 0.0
H1141 H 0.16251 0.99054 0.24815 0.0
C1142 C 0.1452 0.99984 0.32036 0.0
C1143 C 0.14565 0.01238 0.36583 0.0
C1144 C 0.21625 0.03152 0.25342 0.0
C1145 C 0.18184 0.01312 0.29204 0.0
C1146 C 0.23391 0.03258 0.21556 0.0
C1147 C 0.23672 0.01658 0.17746 0.0
C1148 C 0.20101 0.01451 0.25277 0.0
C1149 C 0.22121 0.99976 0.17843 0.0
C1150 C 0.16328 1.0001 0.28345 0.0
C1151 C 0.16482 0.02453 0.37396 0.0
N1152 N 0.20398 0.99924 0.2152 0.0
N1153 N 0.18203 0.02478 0.33721 0.0
H1154 H 0.44922 0.25008 0.3259 0.0
H1155 H 0.49774 0.35784 0.18508 0.0
H1156 H 0.5055 0.28428 0.38414 0.0
H1157 H 0.44735 0.31896 0.11645 0.0
H1158 H 0.49791 0.3334 0.26328 0.0
H1159 H 0.44555 0.27732 0.25431 0.0
C1160 C 0.46065 0.26344 0.32413 0.0
C1161 C 0.47775 0.26476 0.36129 0.0
C1162 C 0.4867 0.33028 0.23127 0.0
C1163 C 0.47375 0.29605 0.27859 0.0
C1164 C 0.48645 0.34436 0.18672 0.0
C1165 C 0.47254 0.34049 0.1438 0.0
C1166 C 0.47288 0.31217 0.23333 0.0
C1167 C 0.45856 0.3225 0.14811 0.0
C1168 C 0.45864 0.27894 0.28289 0.0
C1169 C 0.49225 0.28236 0.35615 0.0
N1170 N 0.45913 0.30902 0.19185 0.0
N1171 N 0.48995 0.29724 0.31565 0.0
H1172 H 0.3851 0.52589 0.26709 0.0
H1173 H 0.26012 0.48549 0.21542 0.0
H1174 H 0.34719 0.487 0.38072 0.0
H1175 H 0.29913 0.52375 0.10196 0.0
H1176 H 0.29074 0.48731 0.2785 0.0
H1177 H 0.35302 0.52653 0.20762 0.0
C1178 C 0.36997 0.5175 0.27937 0.0
C1179 C 0.36882 0.50617 0.3284 0.0
C1180 C 0.29255 0.49536 0.23983 0.0
C1181 C 0.33193 0.50684 0.26095 0.0
C1182 C 0.27498 0.49444 0.20388 0.0
C1183 C 0.27702 0.50427 0.15287 0.0
C1184 C 0.31235 0.50629 0.22493 0.0
C1185 C 0.29686 0.51552 0.14028 0.0
C1186 C 0.35165 0.51784 0.24555 0.0
C1187 C 0.34877 0.49571 0.34285 0.0
N1188 N 0.31367 0.51614 0.17578 0.0
N1189 N 0.33118 0.49621 0.30928 0.0
H1190 H 0.99759 0.17921 0.18964 0.0
H1191 H 0.05228 0.28491 0.30488 0.0
H1192 H 0.04978 0.21548 0.1079 0.0
H1193 H 0.99397 0.25463 0.37726 0.0
H1194 H 0.05374 0.25744 0.23724 0.0
H1195 H 0.99828 0.20431 0.26333 0.0
C1196 C 0.00939 0.19227 0.18744 0.0
C1197 C 0.02357 0.19525 0.14224 0.0
C1198 C 0.04065 0.25672 0.26798 0.0
C1199 C 0.02432 0.2242 0.22639 0.0
C1200 C 0.03989 0.27236 0.30698 0.0
C1201 C 0.02298 0.27218 0.34713 0.0
C1202 C 0.02442 0.24057 0.26885 0.0
C1203 C 1.00717 0.25562 0.34688 0.0
C1204 C 0.00965 0.20671 0.22936 0.0
C1205 C 0.03832 0.21267 0.14149 0.0
N1206 N 0.00828 0.24052 0.30845 0.0
N1207 N 0.03828 0.22643 0.18272 0.0
H1208 H 0.66877 0.99044 0.13806 0.0
H1209 H 0.71652 0.02387 0.41941 0.0
H1210 H 0.63104 0.02733 0.25331 0.0
H1211 H 0.75421 0.98473 0.30821 0.0
H1212 H 0.68615 0.027 0.35657 0.0
H1213 H 0.70108 0.98984 0.1968 0.0
C1214 C 0.66741 0.99848 0.17579 0.0
C1215 C 0.64726 0.00881 0.19127 0.0
C1216 C 0.70104 0.01775 0.34568 0.0
C1217 C 0.68407 0.00829 0.25864 0.0
C1218 C 0.71842 0.01585 0.38175 0.0
C1219 C 0.73794 1.00372 0.36962 0.0
C1220 C 0.70298 1.00748 0.29663 0.0
C1221 C 0.73955 0.99424 0.31941 0.0
C1222 C 0.6858 0.99814 0.20928 0.0
C1223 C 0.64628 0.01912 0.2402 0.0
N1224 N 0.72226 0.99618 0.28498 0.0
N1225 N 0.66437 0.01853 0.27223 0.0
H1226 H 0.55538 0.85506 0.30477 0.0
H1227 H 0.49989 0.74817 0.19762 0.0
H1228 H 0.50689 0.81642 0.39287 0.0
H1229 H 0.55407 0.78019 0.11193 0.0
H1230 H 0.50118 0.77483 0.26641 0.0
H1231 H 0.55404 0.82982 0.23088 0.0
C1232 C 0.5444 0.84138 0.30852 0.0
C1233 C 0.53144 0.83777 0.35551 0.0
C1234 C 0.51281 0.77615 0.23261 0.0
C1235 C 0.5298 0.80887 0.27121 0.0
C1236 C 0.51197 0.76094 0.19288 0.0
C1237 C 0.52676 0.76192 0.14833 0.0
C1238 C 0.52856 0.7927 0.22835 0.0
C1239 C 0.54239 0.77867 0.14556 0.0
C1240 C 0.54373 0.82692 0.26647 0.0
C1241 C 0.51754 0.8197 0.35805 0.0
N1242 N 0.54285 0.79343 0.18488 0.0
N1243 N 0.51712 0.80604 0.31678 0.0
H1244 H 0.75995 0.53513 0.25702 0.0
H1245 H 0.88688 0.4951 0.19557 0.0
H1246 H 0.79923 0.49673 0.36703 0.0
H1247 H 0.84758 0.53135 0.082 0.0
H1248 H 0.85425 0.49435 0.25762 0.0
H1249 H 0.79085 0.53254 0.19053 0.0
C1250 C 0.77492 0.52596 0.26705 0.0
C1251 C 0.77701 0.51637 0.31809 0.0
C1252 C 0.85269 0.50245 0.21911 0.0
C1253 C 0.81261 0.5135 0.24227 0.0
C1254 C 0.87132 0.50286 0.18382 0.0
C1255 C 0.86991 0.51351 0.1341 0.0
C1256 C 0.83246 0.51276 0.2045 0.0
C1257 C 0.84934 0.52318 0.12037 0.0
C1258 C 0.79264 0.5246 0.22918 0.0
C1259 C 0.79696 0.5048 0.32873 0.0
N1260 N 0.83147 0.52269 0.15543 0.0
N1261 N 0.81392 0.50381 0.29146 0.0
H1262 H 0.0201 0.75206 0.13687 0.0
H1263 H 0.96174 0.71635 0.4166 0.0
H1264 H 0.9631 0.785 0.2086 0.0
H1265 H 0.01559 0.67998 0.3418 0.0
H1266 H 0.96162 0.74107 0.33927 0.0
H1267 H 0.01855 0.72514 0.21011 0.0
C1268 C 1.00725 0.75366 0.16791 0.0
C1269 C 0.99169 0.77091 0.16631 0.0
C1270 C 0.9734 0.72763 0.33951 0.0
C1271 C 0.98978 0.74001 0.25037 0.0
C1272 C 0.97353 0.71352 0.38384 0.0
C1273 C 0.98878 0.69608 0.38599 0.0
C1274 C 0.98874 0.72447 0.2968 0.0
C1275 C 1.00342 0.69309 0.34181 0.0
C1276 C 1.00631 0.7382 0.20961 0.0
C1277 C 0.97526 0.7719 0.2075 0.0
N1278 N 1.00315 0.70722 0.29926 0.0
N1279 N 0.97482 0.75679 0.24776 0.0
H1280 H 0.38916 0.99897 0.95946 0.0
H1281 H 0.50661 0.02552 0.09254 0.0
H1282 H 0.39343 0.02714 0.11298 0.0
H1283 H 0.50187 0.9949 0.94169 0.0
H1284 H 0.46541 0.02787 0.09929 0.0
H1285 H 0.43032 0.99828 0.9509 0.0
C1286 C 0.39886 1.00518 0.99105 0.0
C1287 C 0.38783 0.01364 0.03603 0.0
C1288 C 0.47332 0.02073 0.06452 0.0
C1289 C 0.43515 0.01271 0.02757 0.0
C1290 C 0.49684 0.01951 0.06058 0.0
C1291 C 0.50763 0.01003 0.0165 0.0
C1292 C 0.46038 0.01241 0.02398 0.0
C1293 C 0.4942 1.00234 0.97633 0.0
C1294 C 0.42235 1.00477 0.9864 0.0
C1295 C 0.40118 0.02102 0.07684 0.0
N1296 N 0.47136 1.00363 0.98108 0.0
N1297 N 0.42405 0.02046 0.07158 0.0
H1298 H 0.52581 0.46986 0.90274 0.0
H1299 H 0.48694 0.58468 0.01465 0.0
H1300 H 0.4839 0.47712 0.0431 0.0
H1301 H 0.54069 0.57785 0.89747 0.0
H1302 H 0.48446 0.54555 0.02233 0.0
H1303 H 0.53092 0.50913 0.89743 0.0
C1304 C 0.51797 0.47978 0.93274 0.0
C1305 C 0.50451 0.47025 0.97321 0.0
C1306 C 0.49682 0.55255 0.99488 0.0
C1307 C 0.5097 0.51533 0.96732 0.0
C1308 C 0.49816 0.57502 0.99011 0.0
C1309 C 0.514 0.58487 0.95507 0.0
C1310 C 0.5112 0.53947 0.96391 0.0
C1311 C 0.52828 0.57118 0.92522 0.0
C1312 C 0.52072 0.50219 0.92967 0.0
C1313 C 0.49433 0.48381 0.01099 0.0
N1314 N 0.52643 0.54929 0.93003 0.0
N1315 N 0.49698 0.50559 0.0069 0.0
H1316 H 0.01461 0.54964 0.9816 0.0
H1317 H 0.12104 0.47129 0.0129 0.0
H1318 H 0.01217 0.48176 0.95042 0.0
H1319 H 0.12541 0.54046 0.9973 0.0
H1320 H 0.08108 0.47433 0.9987 0.0
H1321 H 0.05418 0.54587 0.99647 0.0
C1322 C 0.02214 0.53404 0.97508 0.0
C1323 C 0.00944 0.51648 0.95885 0.0
C1324 C 0.09077 0.48888 0.99989 0.0
C1325 C 0.05587 0.51175 0.98129 0.0
C1326 C 0.1139 0.48727 0.00928 0.0
C1327 C 0.12728 0.50578 0.01215 0.0
C1328 C 0.08055 0.50915 0.99155 0.0
C1329 C 0.11631 0.52566 1.00052 0.0
C1330 C 0.04509 0.53187 0.98498 0.0
C1331 C 0.02087 0.49632 0.95827 0.0
N1332 N 0.09384 0.52677 0.99147 0.0
N1333 N 0.04324 0.49457 0.96891 0.0
H1334 H 0.01778 0.06256 0.89881 0.0
H1335 H 0.9734 0.95021 0.0215 0.0
H1336 H 0.98901 0.05599 0.05761 0.0
H1337 H 0.02284 0.95398 0.89312 0.0
H1338 H 0.97457 0.98944 0.02883 0.0
H1339 H 0.01572 0.02345 0.88973 0.0
C1340 C 0.01066 0.05293 0.93145 0.0
C1341 C 1.00272 0.06276 0.97822 0.0
C1342 C 0.98511 0.98172 0.99893 0.0
C1343 C 1.00057 0.01778 0.96844 0.0
C1344 C 0.98434 0.95932 0.99443 0.0
C1345 C 0.99793 0.94874 0.95634 0.0
C1346 C 0.99934 0.99383 0.96457 0.0
C1347 C 0.01209 0.96142 0.92306 0.0
C1348 C 0.00961 0.03058 0.92636 0.0
C1349 C 0.99423 0.04936 0.01979 0.0
N1350 N 0.01231 0.98325 0.92768 0.0
N1351 N 0.99324 0.02763 0.0138 0.0
H1352 H 0.99715 0.99829 0.6221 0.0
H1353 H 0.89472 0.02497 0.42852 0.0
H1354 H 1.00657 0.02189 0.46016 0.0
H1355 H 0.88791 0.98513 0.57078 0.0
H1356 H 0.93513 0.02681 0.44254 0.0
H1357 H 0.95672 0.99591 0.60764 0.0
C1358 C 0.99083 1.00241 0.58306 0.0
C1359 C 1.00545 0.00959 0.5417 0.0
C1360 C 0.92472 0.01798 0.47132 0.0
C1361 C 0.95889 1.00779 0.5254 0.0
C1362 C 0.90147 0.01732 0.46394 0.0
C1363 C 0.88741 1.0062 0.50079 0.0
C1364 C 0.93419 1.00722 0.51563 0.0
C1365 C 0.89777 0.99486 0.543 0.0
C1366 C 0.96766 1.00131 0.57498 0.0
C1367 C 0.99599 0.01592 0.49286 0.0
N1368 N 0.92034 0.99584 0.54963 0.0
N1369 N 0.97342 0.0149 0.48608 0.0
H1370 H 0.48937 0.96883 0.58728 0.0
H1371 H 0.53191 0.08707 0.50022 0.0
H1372 H 0.53559 0.98147 0.4559 0.0
H1373 H 0.47675 0.0767 0.61248 0.0
H1374 H 0.53478 0.04839 0.48779 0.0
H1375 H 0.48499 1.00791 0.5996 0.0
C1376 C 0.49868 0.97986 0.56125 0.0
C1377 C 0.51346 0.97183 0.52176 0.0
C1378 C 0.52205 0.05452 0.51526 0.0
C1379 C 0.5086 0.01664 0.53546 0.0
C1380 C 0.5205 0.07675 0.52289 0.0
C1381 C 0.50404 0.08555 0.55766 0.0
C1382 C 0.50722 0.04056 0.54293 0.0
C1383 C 0.48957 0.07096 0.5848 0.0
C1384 C 0.49621 1.00215 0.56829 0.0
C1385 C 0.52474 0.98685 0.48829 0.0
N1386 N 0.49155 0.0493 0.57702 0.0
N1387 N 0.52225 0.00841 0.49618 0.0
H1388 H 0.62048 0.53188 0.39164 0.0
H1389 H 0.51562 0.492 0.57709 0.0
H1390 H 0.62792 0.50132 0.54628 0.0
H1391 H 0.50818 0.52467 0.42506 0.0
H1392 H 0.55657 0.49562 0.56737 0.0
H1393 H 0.57958 0.52954 0.40308 0.0
C1394 C 0.61352 0.52509 0.42856 0.0
C1395 C 0.62776 0.51762 0.46905 0.0
C1396 C 0.54605 0.50207 0.53607 0.0
C1397 C 0.5806 0.51405 0.48171 0.0
C1398 C 0.52264 0.50002 0.54172 0.0
C1399 C 0.50845 0.50798 0.5017 0.0
C1400 C 0.55552 0.51212 0.48989 0.0
C1401 C 0.51848 0.51833 0.45683 0.0
C1402 C 0.59009 0.52351 0.43485 0.0
C1403 C 0.61764 0.50772 0.51452 0.0
N1404 N 0.54129 0.52001 0.45202 0.0
N1405 N 0.59483 0.50632 0.51973 0.0
H1406 H 0.02571 0.5602 0.47375 0.0
H1407 H 0.99018 0.45013 0.6233 0.0
H1408 H 0.99662 0.55847 0.6328 0.0
H1409 H 0.04046 0.45245 0.49661 0.0
H1410 H 0.98927 0.48969 0.62302 0.0
H1411 H 0.02859 0.52077 0.47703 0.0
C1412 C 0.02052 0.55158 0.50997 0.0
C1413 C 0.01181 0.56277 0.554 0.0
C1414 C 1.00058 0.48154 0.59546 0.0
C1415 C 0.01383 0.5174 0.55686 0.0
C1416 C 1.00104 0.45895 0.59547 0.0
C1417 C 0.01554 0.44789 0.56021 0.0
C1418 C 0.01436 0.49328 0.55913 0.0
C1419 C 0.02926 0.46025 0.52503 0.0
C1420 C 0.02188 0.52901 0.51155 0.0
C1421 C 1.0039 0.55054 0.59843 0.0
N1422 N 0.02821 0.48219 0.52511 0.0
N1423 N 1.00505 0.5286 0.59872 0.0
loop_
_geom_bond_atom_site_label_1
_geom_bond_atom_site_label_2
_geom_bond_distance
_geom_bond_site_symmetry_2
_ccdc_geom_bond_type
C0 C1 1.443 . S
C0 N4 1.376 . S
C0 C38 1.391 . S
C1 C0 1.443 . S
C1 C2 1.340 . S
C1 H41 0.951 . S
C2 C1 1.340 . S
C2 C3 1.439 . S
C2 H42 0.950 . S
C3 C2 1.439 . S
C3 N4 1.374 . S
C3 C37 1.395 . S
N4 C0 1.376 . S
N4 C3 1.374 . S
N4 Co5 2.008 . S
Co5 N4 2.008 . S
Co5 N6 1.995 . S
Co5 N11 2.008 1_545 S
Co5 N16 1.995 1_545 S
Co5 N21 2.282 1_545 S
Co5 N27 2.282 . S
N6 Co5 1.995 . S
N6 C7 1.376 . S
N6 C10 1.383 . S
C7 N6 1.376 . S
C7 C8 1.446 . S
C7 C37 1.391 . S
C8 C7 1.446 . S
C8 C9 1.339 . S
C8 H43 0.949 . S
C9 C8 1.339 . S
C9 C10 1.439 . S
C9 H44 0.950 . S
C10 N6 1.383 . S
C10 C9 1.439 . S
C10 C39 1.389 . S
N11 Co5 2.008 1_565 S
N11 C12 1.376 . S
N11 C15 1.374 . S
C12 N11 1.376 . S
C12 C13 1.443 . S
C12 C39 1.391 1_565 S
C13 C12 1.443 . S
C13 C14 1.340 . S
C13 H45 0.951 . S
C14 C13 1.340 . S
C14 C15 1.439 . S
C14 H46 0.950 . S
C15 N11 1.374 . S
C15 C14 1.439 . S
C15 C40 1.395 . S
N16 Co5 1.995 1_565 S
N16 C17 1.376 . S
N16 C20 1.383 . S
C17 N16 1.376 . S
C17 C18 1.446 . S
C17 C40 1.391 . S
C18 C17 1.446 . S
C18 C19 1.339 . S
C18 H47 0.949 . S
C19 C18 1.339 . S
C19 C20 1.439 . S
C19 H48 0.950 . S
C20 N16 1.383 . S
C20 C19 1.439 . S
C20 C38 1.389 1_565 S
N21 Co5 2.282 1_565 S
N21 C24 1.332 . S
N21 C26 1.317 1_565 S
C22 C23 1.386 . S
C22 C25 1.388 . S
C23 C22 1.386 . S
C23 C24 1.382 1_556 S
C23 H49 0.950 . S
C24 N21 1.332 . S
C24 C23 1.382 1_554 S
C24 H35 0.952 . S
C25 C22 1.388 . S
C25 C26 1.373 1_566 S
C25 H50 0.950 1_565 S
C26 N21 1.317 1_545 S
C26 C25 1.373 1_544 S
C26 H36 0.974 . S
N27 Co5 2.282 . S
N27 C31 1.332 . S
N27 C32 1.324 1_545 S
C28 C29 1.388 . S
C28 C32 1.378 1_545 S
C28 H51 0.950 1_545 S
C29 C28 1.388 . S
C29 C30 1.386 . S
C30 C29 1.386 . S
C30 C31 1.382 . S
C30 H52 0.950 . S
C31 N27 1.332 . S
C31 C30 1.382 . S
C31 H33 0.952 . S
C32 N27 1.324 1_565 S
C32 C28 1.378 1_565 S
C32 H34 0.961 . S
H33 C31 0.952 . S
H34 C32 0.961 . S
H35 C24 0.952 . S
H36 C26 0.974 . S
C37 C3 1.395 . S
C37 C7 1.391 . S
C38 C0 1.391 . S
C38 C20 1.389 1_545 S
C39 C10 1.389 . S
C39 C12 1.391 1_545 S
C40 C15 1.395 . S
C40 C17 1.391 . S
H41 C1 0.951 . S
H42 C2 0.950 . S
H43 C8 0.949 . S
H44 C9 0.950 . S
H45 C13 0.951 . S
H46 C14 0.950 . S
H47 C18 0.949 . S
H48 C19 0.950 . S
H49 C23 0.950 . S
H50 C25 0.950 1_545 S
H51 C28 0.950 1_565 S
H52 C30 0.950 . S
C53 C54 1.443 . S
C53 N57 1.376 . S
C53 C91 1.389 . S
C54 C53 1.443 . S
C54 C55 1.340 . S
C54 H94 0.951 . S
C55 C54 1.340 . S
C55 C56 1.439 . S
C55 H95 0.950 . S
C56 C55 1.439 . S
C56 N57 1.374 . S
C56 C90 1.395 . S
N57 C53 1.376 . S
N57 C56 1.374 . S
N57 Co58 2.008 . S
Co58 N57 2.008 . S
Co58 N59 1.995 . S
Co58 N64 2.008 . S
Co58 N69 1.995 . S
Co58 N74 2.282 . S
Co58 N80 2.267 1_554 S
N59 Co58 1.995 . S
N59 C60 1.376 . S
N59 C63 1.383 1_554 S
C60 N59 1.376 . S
C60 C61 1.446 1_554 S
C60 C90 1.391 . S
C61 C60 1.446 1_556 S
C61 C62 1.339 . S
C61 H96 0.949 . S
C62 C61 1.339 . S
C62 C63 1.439 . S
C62 H97 0.950 . S
C63 N59 1.383 1_556 S
C63 C62 1.439 . S
C63 C92 1.392 . S
N64 Co58 2.008 . S
N64 C65 1.376 1_554 S
N64 C68 1.374 . S
C65 N64 1.376 1_556 S
C65 C66 1.443 . S
C65 C92 1.389 . S
C66 C65 1.443 . S
C66 C67 1.340 1_556 S
C66 H98 0.951 . S
C67 C66 1.340 1_554 S
C67 C68 1.439 . S
C67 H99 0.950 . S
C68 N64 1.374 . S
C68 C67 1.439 . S
C68 C93 1.395 . S
N69 Co58 1.995 . S
N69 C70 1.376 . S
N69 C73 1.383 . S
C70 N69 1.376 . S
C70 C71 1.446 . S
C70 C93 1.391 . S
C71 C70 1.446 . S
C71 C72 1.339 . S
C71 H100 0.949 . S
C72 C71 1.339 . S
C72 C73 1.439 . S
C72 H101 0.950 . S
C73 N69 1.383 . S
C73 C72 1.439 . S
C73 C91 1.392 . S
N74 Co58 2.282 . S
N74 C77 1.332 . S
N74 C79 1.332 . S
C75 C76 1.386 . S
C75 C78 1.388 . S
C76 C75 1.386 . S
C76 C77 1.382 . S
C76 H102 0.950 . S
C77 N74 1.332 . S
C77 C76 1.382 . S
C77 H88 0.952 . S
C78 C75 1.388 . S
C78 C79 1.382 . S
C78 H103 0.950 . S
C79 N74 1.332 . S
C79 C78 1.382 . S
C79 H89 0.948 . S
N80 Co58 2.267 1_556 S
N80 C84 1.342 . S
N80 C85 1.336 . S
C81 C82 1.388 . S
C81 C85 1.382 . S
C81 H104 0.950 . S
C82 C81 1.388 . S
C82 C83 1.386 . S
C83 C82 1.386 . S
C83 C84 1.382 . S
C83 H105 0.950 . S
C84 N80 1.342 . S
C84 C83 1.382 . S
C84 H86 0.952 . S
C85 N80 1.336 . S
C85 C81 1.382 . S
C85 H87 0.948 1_556 S
H86 C84 0.952 . S
H87 C85 0.948 1_554 S
H88 C77 0.952 . S
H89 C79 0.948 . S
C90 C56 1.395 . S
C90 C60 1.391 . S
C91 C53 1.389 . S
C91 C73 1.392 . S
C92 C63 1.392 . S
C92 C65 1.389 . S
C93 C68 1.395 . S
C93 C70 1.391 . S
H94 C54 0.951 . S
H95 C55 0.950 . S
H96 C61 0.949 . S
H97 C62 0.950 . S
H98 C66 0.951 . S
H99 C67 0.950 . S
H100 C71 0.949 . S
H101 C72 0.950 . S
H102 C76 0.950 . S
H103 C78 0.950 . S
H104 C81 0.950 . S
H105 C83 0.950 . S
C106 C107 1.443 . S
C106 N110 1.376 . S
C106 C144 1.389 . S
C107 C106 1.443 . S
C107 C108 1.340 . S
C107 H147 0.951 1_554 S
C108 C107 1.340 . S
C108 C109 1.439 . S
C108 H148 0.950 . S
C109 C108 1.439 . S
C109 N110 1.374 . S
C109 C143 1.395 . S
N110 C106 1.376 . S
N110 C109 1.374 . S
N110 Co111 2.008 . S
Co111 N110 2.008 . S
Co111 N112 1.995 . S
Co111 N117 2.008 . S
Co111 N122 1.995 . S
Co111 N127 2.282 . S
Co111 N133 2.282 . S
N112 Co111 1.995 . S
N112 C113 1.376 . S
N112 C116 1.383 . S
C113 N112 1.376 . S
C113 C114 1.446 . S
C113 C143 1.391 . S
C114 C113 1.446 . S
C114 C115 1.339 . S
C114 H149 0.949 . S
C115 C114 1.339 . S
C115 C116 1.439 . S
C115 H150 0.950 . S
C116 N112 1.383 . S
C116 C115 1.439 . S
C116 C145 1.392 . S
N117 Co111 2.008 . S
N117 C118 1.376 . S
N117 C121 1.374 . S
C118 N117 1.376 . S
C118 C119 1.443 . S
C118 C145 1.389 . S
C119 C118 1.443 . S
C119 C120 1.340 . S
C119 H151 0.951 . S
C120 C119 1.340 . S
C120 C121 1.439 . S
C120 H152 0.950 . S
C121 N117 1.374 . S
C121 C120 1.439 . S
C121 C146 1.395 . S
N122 Co111 1.995 . S
N122 C123 1.376 . S
N122 C126 1.383 . S
C123 N122 1.376 . S
C123 C124 1.446 . S
C123 C146 1.391 . S
C124 C123 1.446 . S
C124 C125 1.339 . S
C124 H153 0.949 . S
C125 C124 1.339 . S
C125 C126 1.439 . S
C125 H154 0.950 1_655 S
C126 N122 1.383 . S
C126 C125 1.439 . S
C126 C144 1.392 . S
N127 Co111 2.282 . S
N127 C130 1.332 1_554 S
N127 C132 1.332 1_554 S
C128 C129 1.386 . S
C128 C131 1.388 . S
C129 C128 1.386 . S
C129 C130 1.382 . S
C129 H155 0.950 . S
C130 N127 1.332 1_556 S
C130 C129 1.382 . S
C130 H141 0.952 1_556 S
C131 C128 1.388 . S
C131 C132 1.382 . S
C131 H156 0.950 . S
C132 N127 1.332 1_556 S
C132 C131 1.382 . S
C132 H142 0.948 . S
N133 Co111 2.282 . S
N133 C137 1.332 . S
N133 C138 1.332 . S
C134 C135 1.388 . S
C134 C138 1.382 . S
C134 H157 0.950 . S
C135 C134 1.388 . S
C135 C136 1.386 . S
C136 C135 1.386 . S
C136 C137 1.382 . S
C136 H158 0.950 . S
C137 N133 1.332 . S
C137 C136 1.382 . S
C137 H139 0.952 . S
C138 N133 1.332 . S
C138 C134 1.382 . S
C138 H140 0.948 . S
H139 C137 0.952 . S
H140 C138 0.948 . S
H141 C130 0.952 1_554 S
H142 C132 0.948 . S
C143 C109 1.395 . S
C143 C113 1.391 . S
C144 C106 1.389 . S
C144 C126 1.392 . S
C145 C116 1.392 . S
C145 C118 1.389 . S
C146 C121 1.395 . S
C146 C123 1.391 . S
H147 C107 0.951 1_556 S
H148 C108 0.950 . S
H149 C114 0.949 . S
H150 C115 0.950 . S
H151 C119 0.951 . S
H152 C120 0.950 . S
H153 C124 0.949 . S
H154 C125 0.950 1_455 S
H155 C129 0.950 . S
H156 C131 0.950 . S
H157 C134 0.950 . S
H158 C136 0.950 . S
C159 C160 1.443 . S
C159 N163 1.376 . S
C159 C197 1.389 1_655 S
C160 C159 1.443 . S
C160 C161 1.340 . S
C160 H200 0.951 . S
C161 C160 1.340 . S
C161 C162 1.439 . S
C161 H201 0.950 . S
C162 C161 1.439 . S
C162 N163 1.374 . S
C162 C196 1.395 . S
N163 C159 1.376 . S
N163 C162 1.374 . S
N163 Co164 2.008 1_655 S
Co164 N163 2.008 1_455 S
Co164 N165 1.995 1_455 S
Co164 N170 2.008 1_554 S
Co164 N175 1.995 . S
Co164 N180 2.282 1_455 S
Co164 N186 2.282 1_554 S
N165 Co164 1.995 1_655 S
N165 C166 1.376 . S
N165 C169 1.383 1_554 S
C166 N165 1.376 . S
C166 C167 1.446 1_554 S
C166 C196 1.391 . S
C167 C166 1.446 1_556 S
C167 C168 1.339 . S
C167 H202 0.949 . S
C168 C167 1.339 . S
C168 C169 1.439 . S
C168 H203 0.950 . S
C169 N165 1.383 1_556 S
C169 C168 1.439 . S
C169 C198 1.392 . S
N170 Co164 2.008 1_556 S
N170 C171 1.376 . S
N170 C174 1.374 . S
C171 N170 1.376 . S
C171 C172 1.443 . S
C171 C198 1.389 1_455 S
C172 C171 1.443 . S
C172 C173 1.340 . S
C172 H204 0.951 . S
C173 C172 1.340 . S
C173 C174 1.439 . S
C173 H205 0.950 . S
C174 N170 1.374 . S
C174 C173 1.439 . S
C174 C199 1.395 1_556 S
N175 Co164 1.995 . S
N175 C176 1.376 . S
N175 C179 1.383 . S
C176 N175 1.376 . S
C176 C177 1.446 . S
C176 C199 1.391 . S
C177 C176 1.446 . S
C177 C178 1.339 . S
C177 H206 0.949 . S
C178 C177 1.339 . S
C178 C179 1.439 . S
C178 H207 0.950 . S
C179 N175 1.383 . S
C179 C178 1.439 . S
C179 C197 1.392 . S
N180 Co164 2.282 1_655 S
N180 C183 1.296 1_655 S
N180 C185 1.368 . S
C181 C182 1.388 . S
C181 C184 1.386 1_455 S
C182 C181 1.388 . S
C182 C183 1.382 . S
C182 H208 0.950 . S
C183 N180 1.296 1_455 S
C183 C182 1.382 . S
C183 H194 0.952 . S
C184 C181 1.386 1_655 S
C184 C185 1.382 . S
C184 H209 0.950 . S
C185 N180 1.368 . S
C185 C184 1.382 . S
C185 H195 0.948 . S
N186 Co164 2.282 1_556 S
N186 C190 1.286 1_455 S
N186 C191 1.378 . S
C187 C188 1.386 . S
C187 C191 1.382 . S
C187 H210 0.950 . S
C188 C187 1.386 . S
C188 C189 1.388 1_455 S
C189 C188 1.388 1_655 S
C189 C190 1.382 . S
C189 H211 0.950 . S
C190 N186 1.286 1_655 S
C190 C189 1.382 . S
C190 H192 0.952 . S
C191 N186 1.378 . S
C191 C187 1.382 . S
C191 H193 0.948 . S
H192 C190 0.952 . S
H193 C191 0.948 . S
H194 C183 0.952 . S
H195 C185 0.948 . S
C196 C162 1.395 . S
C196 C166 1.391 . S
C197 C159 1.389 1_455 S
C197 C179 1.392 . S
C198 C169 1.392 . S
C198 C171 1.389 1_655 S
C199 C174 1.395 1_554 S
C199 C176 1.391 . S
H200 C160 0.951 . S
H201 C161 0.950 . S
H202 C167 0.949 . S
H203 C168 0.950 . S
H204 C172 0.951 . S
H205 C173 0.950 . S
H206 C177 0.949 . S
H207 C178 0.950 . S
H208 C182 0.950 . S
H209 C184 0.950 . S
H210 C187 0.950 . S
H211 C189 0.950 . S
C212 C213 1.443 . S
C212 N216 1.376 . S
C212 C250 1.389 . S
C213 C212 1.443 . S
C213 C214 1.340 . S
C213 H253 0.951 . S
C214 C213 1.340 . S
C214 C215 1.439 . S
C214 H254 0.950 . S
C215 C214 1.439 . S
C215 N216 1.374 . S
C215 C249 1.395 . S
N216 C212 1.376 . S
N216 C215 1.374 . S
N216 Co217 2.008 . S
Co217 N216 2.008 . S
Co217 N218 1.995 . S
Co217 N223 2.008 1_565 S
Co217 N228 1.995 1_565 S
Co217 N233 2.282 1_565 S
Co217 N239 2.282 . S
N218 Co217 1.995 . S
N218 C219 1.376 . S
N218 C222 1.383 . S
C219 N218 1.376 . S
C219 C220 1.446 . S
C219 C249 1.391 . S
C220 C219 1.446 . S
C220 C221 1.339 . S
C220 H255 0.949 . S
C221 C220 1.339 . S
C221 C222 1.439 . S
C221 H256 0.950 . S
C222 N218 1.383 . S
C222 C221 1.439 . S
C222 C251 1.392 1_565 S
N223 Co217 2.008 1_545 S
N223 C224 1.376 . S
N223 C227 1.374 . S
C224 N223 1.376 . S
C224 C225 1.443 . S
C224 C251 1.389 . S
C225 C224 1.443 . S
C225 C226 1.340 . S
C225 H257 0.951 . S
C226 C225 1.340 . S
C226 C227 1.439 . S
C226 H258 0.950 . S
C227 N223 1.374 . S
C227 C226 1.439 . S
C227 C252 1.395 . S
N228 Co217 1.995 1_545 S
N228 C229 1.376 . S
N228 C232 1.383 . S
C229 N228 1.376 . S
C229 C230 1.446 . S
C229 C252 1.391 . S
C230 C229 1.446 . S
C230 C231 1.339 . S
C230 H259 0.949 . S
C231 C230 1.339 . S
C231 C232 1.439 . S
C231 H260 0.950 . S
C232 N228 1.383 . S
C232 C231 1.439 . S
C232 C250 1.392 1_545 S
N233 Co217 2.282 1_545 S
N233 C236 1.332 . S
N233 C238 1.332 1_545 S
C234 C235 1.386 . S
C234 C237 1.388 . S
C235 C234 1.386 . S
C235 C236 1.382 . S
C235 H261 0.950 . S
C236 N233 1.332 . S
C236 C235 1.382 . S
C236 H247 0.952 . S
C237 C234 1.388 . S
C237 C238 1.382 1_545 S
C237 H262 0.950 1_545 S
C238 N233 1.332 1_565 S
C238 C237 1.382 1_565 S
C238 H248 0.948 . S
N239 Co217 2.282 . S
N239 C243 1.332 . S
N239 C244 1.307 1_565 S
C240 C241 1.388 . S
C240 C244 1.366 1_565 S
C240 H263 0.950 1_565 S
C241 C240 1.388 . S
C241 C242 1.386 . S
C242 C241 1.386 . S
C242 C243 1.382 . S
C242 H264 0.950 . S
C243 N239 1.332 . S
C243 C242 1.382 . S
C243 H245 0.952 . S
C244 N239 1.307 1_545 S
C244 C240 1.366 1_545 S
C244 H246 0.993 . S
H245 C243 0.952 . S
H246 C244 0.993 . S
H247 C236 0.952 . S
H248 C238 0.948 . S
C249 C215 1.395 . S
C249 C219 1.391 . S
C250 C212 1.389 . S
C250 C232 1.392 1_565 S
C251 C222 1.392 1_545 S
C251 C224 1.389 . S
C252 C227 1.395 . S
C252 C229 1.391 . S
H253 C213 0.951 . S
H254 C214 0.950 . S
H255 C220 0.949 . S
H256 C221 0.950 . S
H257 C225 0.951 . S
H258 C226 0.950 . S
H259 C230 0.949 . S
H260 C231 0.950 . S
H261 C235 0.950 . S
H262 C237 0.950 1_565 S
H263 C240 0.950 1_545 S
H264 C242 0.950 . S
C265 C266 1.443 . S
C265 N269 1.376 . S
C265 C303 1.389 . S
C266 C265 1.443 . S
C266 C267 1.340 . S
C266 H306 0.951 . S
C267 C266 1.340 . S
C267 C268 1.439 . S
C267 H307 0.950 . S
C268 C267 1.439 . S
C268 N269 1.374 . S
C268 C302 1.395 . S
N269 C265 1.376 . S
N269 C268 1.374 . S
N269 Co270 2.008 . S
Co270 N269 2.008 . S
Co270 N271 1.995 . S
Co270 N276 2.008 . S
Co270 N281 1.995 . S
Co270 N286 2.282 . S
Co270 N292 2.282 . S
N271 Co270 1.995 . S
N271 C272 1.376 . S
N271 C275 1.383 . S
C272 N271 1.376 . S
C272 C273 1.446 . S
C272 C302 1.391 . S
C273 C272 1.446 . S
C273 C274 1.339 . S
C273 H308 0.949 . S
C274 C273 1.339 . S
C274 C275 1.439 . S
C274 H309 0.950 . S
C275 N271 1.383 . S
C275 C274 1.439 . S
C275 C304 1.392 . S
N276 Co270 2.008 . S
N276 C277 1.376 . S
N276 C280 1.374 . S
C277 N276 1.376 . S
C277 C278 1.443 . S
C277 C304 1.389 . S
C278 C277 1.443 . S
C278 C279 1.340 . S
C278 H310 0.951 . S
C279 C278 1.340 . S
C279 C280 1.439 . S
C279 H311 0.950 . S
C280 N276 1.374 . S
C280 C279 1.439 . S
C280 C305 1.395 . S
N281 Co270 1.995 . S
N281 C282 1.376 . S
N281 C285 1.383 . S
C282 N281 1.376 . S
C282 C283 1.446 . S
C282 C305 1.391 . S
C283 C282 1.446 . S
C283 C284 1.339 . S
C283 H312 0.949 . S
C284 C283 1.339 . S
C284 C285 1.439 . S
C284 H313 0.950 . S
C285 N281 1.383 . S
C285 C284 1.439 . S
C285 C303 1.392 . S
N286 Co270 2.282 . S
N286 C289 1.332 . S
N286 C291 1.332 . S
C287 C288 1.386 . S
C287 C290 1.388 . S
C288 C287 1.386 . S
C288 C289 1.382 . S
C288 H314 0.950 . S
C289 N286 1.332 . S
C289 C288 1.382 . S
C289 H300 0.952 . S
C290 C287 1.388 . S
C290 C291 1.382 . S
C290 H315 0.950 . S
C291 N286 1.332 . S
C291 C290 1.382 . S
C291 H301 0.948 . S
N292 Co270 2.282 . S
N292 C296 1.332 . S
N292 C297 1.332 . S
C293 C294 1.388 . S
C293 C297 1.382 . S
C293 H316 0.950 . S
C294 C293 1.388 . S
C294 C295 1.386 . S
C295 C294 1.386 . S
C295 C296 1.382 . S
C295 H317 0.950 . S
C296 N292 1.332 . S
C296 C295 1.382 . S
C296 H298 0.952 . S
C297 N292 1.332 . S
C297 C293 1.382 . S
C297 H299 0.948 . S
H298 C296 0.952 . S
H299 C297 0.948 . S
H300 C289 0.952 . S
H301 C291 0.948 . S
C302 C268 1.395 . S
C302 C272 1.391 . S
C303 C265 1.389 . S
C303 C285 1.392 . S
C304 C275 1.392 . S
C304 C277 1.389 . S
C305 C280 1.395 . S
C305 C282 1.391 . S
H306 C266 0.951 . S
H307 C267 0.950 . S
H308 C273 0.949 . S
H309 C274 0.950 . S
H310 C278 0.951 . S
H311 C279 0.950 . S
H312 C283 0.949 . S
H313 C284 0.950 . S
H314 C288 0.950 . S
H315 C290 0.950 . S
H316 C293 0.950 . S
H317 C295 0.950 . S
C318 C319 1.443 . S
C318 N322 1.376 . S
C318 C356 1.389 . S
C319 C318 1.443 . S
C319 C320 1.340 . S
C319 H359 0.951 . S
C320 C319 1.340 . S
C320 C321 1.439 . S
C320 H360 0.950 . S
C321 C320 1.439 . S
C321 N322 1.374 . S
C321 C355 1.395 . S
N322 C318 1.376 . S
N322 C321 1.374 . S
N322 Co323 2.008 . S
Co323 N322 2.008 . S
Co323 N324 1.995 . S
Co323 N329 2.008 . S
Co323 N334 1.995 . S
Co323 N339 2.282 . S
Co323 N345 2.282 . S
N324 Co323 1.995 . S
N324 C325 1.376 . S
N324 C328 1.383 . S
C325 N324 1.376 . S
C325 C326 1.446 . S
C325 C355 1.391 . S
C326 C325 1.446 . S
C326 C327 1.339 . S
C326 H361 0.949 . S
C327 C326 1.339 . S
C327 C328 1.439 . S
C327 H362 0.950 . S
C328 N324 1.383 . S
C328 C327 1.439 . S
C328 C357 1.392 . S
N329 Co323 2.008 . S
N329 C330 1.376 . S
N329 C333 1.374 . S
C330 N329 1.376 . S
C330 C331 1.443 . S
C330 C357 1.389 . S
C331 C330 1.443 . S
C331 C332 1.340 . S
C331 H363 0.951 . S
C332 C331 1.340 . S
C332 C333 1.439 . S
C332 H364 0.950 . S
C333 N329 1.374 . S
C333 C332 1.439 . S
C333 C358 1.395 . S
N334 Co323 1.995 . S
N334 C335 1.376 . S
N334 C338 1.383 . S
C335 N334 1.376 . S
C335 C336 1.446 . S
C335 C358 1.391 . S
C336 C335 1.446 . S
C336 C337 1.339 . S
C336 H365 0.949 . S
C337 C336 1.339 . S
C337 C338 1.439 . S
C337 H366 0.950 . S
C338 N334 1.383 . S
C338 C337 1.439 . S
C338 C356 1.392 . S
N339 Co323 2.282 . S
N339 C342 1.332 . S
N339 C344 1.332 . S
C340 C341 1.386 . S
C340 C343 1.388 . S
C341 C340 1.386 . S
C341 C342 1.382 . S
C341 H367 0.950 . S
C342 N339 1.332 . S
C342 C341 1.382 . S
C342 H353 0.952 . S
C343 C340 1.388 . S
C343 C344 1.382 . S
C343 H368 0.950 . S
C344 N339 1.332 . S
C344 C343 1.382 . S
C344 H354 0.948 . S
N345 Co323 2.282 . S
N345 C349 1.332 . S
N345 C350 1.332 . S
C346 C347 1.388 . S
C346 C350 1.382 . S
C346 H369 0.950 . S
C347 C346 1.388 . S
C347 C348 1.386 . S
C348 C347 1.386 . S
C348 C349 1.382 . S
C348 H370 0.950 . S
C349 N345 1.332 . S
C349 C348 1.382 . S
C349 H351 0.952 . S
C350 N345 1.332 . S
C350 C346 1.382 . S
C350 H352 0.948 . S
H351 C349 0.952 . S
H352 C350 0.948 . S
H353 C342 0.952 . S
H354 C344 0.948 . S
C355 C321 1.395 . S
C355 C325 1.391 . S
C356 C318 1.389 . S
C356 C338 1.392 . S
C357 C328 1.392 . S
C357 C330 1.389 . S
C358 C333 1.395 . S
C358 C335 1.391 . S
H359 C319 0.951 . S
H360 C320 0.950 . S
H361 C326 0.949 . S
H362 C327 0.950 . S
H363 C331 0.951 . S
H364 C332 0.950 . S
H365 C336 0.949 . S
H366 C337 0.950 . S
H367 C341 0.950 . S
H368 C343 0.950 . S
H369 C346 0.950 . S
H370 C348 0.950 . S
C371 C372 1.443 . S
C371 N375 1.376 . S
C371 C409 1.389 1_455 S
C372 C371 1.443 . S
C372 C373 1.340 . S
C372 H412 0.951 . S
C373 C372 1.340 . S
C373 C374 1.439 . S
C373 H413 0.950 . S
C374 C373 1.439 . S
C374 N375 1.374 . S
C374 C408 1.395 . S
N375 C371 1.376 . S
N375 C374 1.374 . S
N375 Co376 2.008 1_455 S
Co376 N375 2.008 1_655 S
Co376 N377 1.995 1_655 S
Co376 N382 2.008 . S
Co376 N387 1.995 . S
Co376 N392 2.283 1_655 S
Co376 N398 2.284 . S
N377 Co376 1.995 1_455 S
N377 C378 1.376 . S
N377 C381 1.383 . S
C378 N377 1.376 . S
C378 C379 1.446 . S
C378 C408 1.391 . S
C379 C378 1.446 . S
C379 C380 1.339 . S
C379 H414 0.949 . S
C380 C379 1.339 . S
C380 C381 1.439 . S
C380 H415 0.950 . S
C381 N377 1.383 . S
C381 C380 1.439 . S
C381 C410 1.392 . S
N382 Co376 2.008 . S
N382 C383 1.376 . S
N382 C386 1.374 . S
C383 N382 1.376 . S
C383 C384 1.443 . S
C383 C410 1.389 1_655 S
C384 C383 1.443 . S
C384 C385 1.340 . S
C384 H416 0.951 . S
C385 C384 1.340 . S
C385 C386 1.439 . S
C385 H417 0.950 . S
C386 N382 1.374 . S
C386 C385 1.439 . S
C386 C411 1.395 . S
N387 Co376 1.995 . S
N387 C388 1.376 . S
N387 C391 1.383 . S
C388 N387 1.376 . S
C388 C389 1.446 . S
C388 C411 1.391 . S
C389 C388 1.446 . S
C389 C390 1.339 . S
C389 H418 0.949 . S
C390 C389 1.339 . S
C390 C391 1.439 . S
C390 H419 0.950 . S
C391 N387 1.383 . S
C391 C390 1.439 . S
C391 C409 1.392 . S
N392 Co376 2.283 1_455 S
N392 C395 1.302 1_455 S
N392 C397 1.361 . S
C393 C394 1.408 . S
C393 C396 1.365 1_655 S
C394 C393 1.408 . S
C394 C395 1.382 . S
C394 H420 0.950 . S
C395 N392 1.302 1_655 S
C395 C394 1.382 . S
C395 H406 0.952 . S
C396 C393 1.365 1_455 S
C396 C397 1.382 . S
C396 H421 0.950 . S
C397 N392 1.361 . S
C397 C396 1.382 . S
C397 H407 0.948 . S
N398 Co376 2.284 . S
N398 C402 1.291 1_655 S
N398 C403 1.371 . S
C399 C400 1.375 1_655 S
C399 C403 1.382 . S
C399 H422 0.950 . S
C400 C399 1.375 1_455 S
C400 C401 1.398 . S
C401 C400 1.398 . S
C401 C402 1.382 . S
C401 H423 0.950 . S
C402 N398 1.291 1_455 S
C402 C401 1.382 . S
C402 H404 0.952 . S
C403 N398 1.371 . S
C403 C399 1.382 . S
C403 H405 0.948 . S
H404 C402 0.952 . S
H405 C403 0.948 . S
H406 C395 0.952 . S
H407 C397 0.948 . S
C408 C374 1.395 . S
C408 C378 1.391 . S
C409 C371 1.389 1_655 S
C409 C391 1.392 . S
C410 C381 1.392 . S
C410 C383 1.389 1_455 S
C411 C386 1.395 . S
C411 C388 1.391 . S
H412 C372 0.951 . S
H413 C373 0.950 . S
H414 C379 0.949 . S
H415 C380 0.950 . S
H416 C384 0.951 . S
H417 C385 0.950 . S
H418 C389 0.949 . S
H419 C390 0.950 . S
H420 C394 0.950 . S
H421 C396 0.950 . S
H422 C399 0.950 . S
H423 C401 0.950 . S
C424 C425 1.443 . S
C424 N428 1.376 1_554 S
C424 C462 1.389 . S
C425 C424 1.443 . S
C425 C426 1.340 1_554 S
C425 H465 0.951 . S
C426 C425 1.340 1_556 S
C426 C427 1.439 . S
C426 H466 0.950 . S
C427 C426 1.439 . S
C427 N428 1.374 . S
C427 C461 1.395 . S
N428 C424 1.376 1_556 S
N428 C427 1.374 . S
N428 Co429 2.008 1_545 S
Co429 N428 2.008 1_565 S
Co429 N430 1.995 1_565 S
Co429 N435 2.008 . S
Co429 N440 1.995 1_556 S
Co429 N445 2.282 1_566 S
Co429 N451 2.282 . S
N430 Co429 1.995 1_545 S
N430 C431 1.376 . S
N430 C434 1.383 . S
C431 N430 1.376 . S
C431 C432 1.446 . S
C431 C461 1.391 . S
C432 C431 1.446 . S
C432 C433 1.339 . S
C432 H467 0.949 . S
C433 C432 1.339 . S
C433 C434 1.439 . S
C433 H468 0.950 . S
C434 N430 1.383 . S
C434 C433 1.439 . S
C434 C463 1.392 1_545 S
N435 Co429 2.008 . S
N435 C436 1.376 . S
N435 C439 1.374 . S
C436 N435 1.376 . S
C436 C437 1.443 . S
C436 C463 1.389 . S
C437 C436 1.443 . S
C437 C438 1.340 . S
C437 H469 0.951 . S
C438 C437 1.340 . S
C438 C439 1.439 . S
C438 H470 0.950 . S
C439 N435 1.374 . S
C439 C438 1.439 . S
C439 C464 1.395 1_556 S
N440 Co429 1.995 1_554 S
N440 C441 1.376 . S
N440 C444 1.383 . S
C441 N440 1.376 . S
C441 C442 1.446 . S
C441 C464 1.391 . S
C442 C441 1.446 . S
C442 C443 1.339 . S
C442 H471 0.949 . S
C443 C442 1.339 . S
C443 C444 1.439 . S
C443 H472 0.950 . S
C444 N440 1.383 . S
C444 C443 1.439 . S
C444 C462 1.392 1_565 S
N445 Co429 2.282 1_544 S
N445 C448 1.332 1_545 S
N445 C450 1.332 . S
C446 C447 1.386 1_545 S
C446 C449 1.388 . S
C447 C446 1.386 1_565 S
C447 C448 1.382 . S
C447 H473 0.950 . S
C448 N445 1.332 1_565 S
C448 C447 1.382 . S
C448 H459 0.952 . S
C449 C446 1.388 . S
C449 C450 1.382 . S
C449 H474 0.950 . S
C450 N445 1.332 . S
C450 C449 1.382 . S
C450 H460 0.948 . S
N451 Co429 2.282 . S
N451 C455 1.332 1_565 S
N451 C456 1.332 . S
C452 C453 1.388 . S
C452 C456 1.382 . S
C452 H475 0.950 . S
C453 C452 1.388 . S
C453 C454 1.386 1_565 S
C454 C453 1.386 1_545 S
C454 C455 1.382 . S
C454 H476 0.950 . S
C455 N451 1.332 1_545 S
C455 C454 1.382 . S
C455 H457 0.952 . S
C456 N451 1.332 . S
C456 C452 1.382 . S
C456 H458 0.948 . S
H457 C455 0.952 . S
H458 C456 0.948 . S
H459 C448 0.952 . S
H460 C450 0.948 . S
C461 C427 1.395 . S
C461 C431 1.391 . S
C462 C424 1.389 . S
C462 C444 1.392 1_545 S
C463 C434 1.392 1_565 S
C463 C436 1.389 . S
C464 C439 1.395 1_554 S
C464 C441 1.391 . S
H465 C425 0.951 . S
H466 C426 0.950 . S
H467 C432 0.949 . S
H468 C433 0.950 . S
H469 C437 0.951 . S
H470 C438 0.950 . S
H471 C442 0.949 . S
H472 C443 0.950 . S
H473 C447 0.950 . S
H474 C449 0.950 . S
H475 C452 0.950 . S
H476 C454 0.950 . S
C477 C478 1.443 . S
C477 N481 1.376 . S
C477 C515 1.389 . S
C478 C477 1.443 . S
C478 C479 1.340 . S
C478 H518 0.951 . S
C479 C478 1.340 . S
C479 C480 1.439 . S
C479 H519 0.950 . S
C480 C479 1.439 . S
C480 N481 1.374 . S
C480 C514 1.395 . S
N481 C477 1.376 . S
N481 C480 1.374 . S
N481 Co482 2.008 . S
Co482 N481 2.008 . S
Co482 N483 1.995 . S
Co482 N488 2.008 . S
Co482 N493 1.995 . S
Co482 N498 2.282 . S
Co482 N504 2.282 . S
N483 Co482 1.995 . S
N483 C484 1.376 . S
N483 C487 1.383 . S
C484 N483 1.376 . S
C484 C485 1.446 . S
C484 C514 1.391 . S
C485 C484 1.446 . S
C485 C486 1.339 . S
C485 H520 0.949 . S
C486 C485 1.339 . S
C486 C487 1.439 . S
C486 H521 0.950 . S
C487 N483 1.383 . S
C487 C486 1.439 . S
C487 C516 1.392 . S
N488 Co482 2.008 . S
N488 C489 1.376 . S
N488 C492 1.374 . S
C489 N488 1.376 . S
C489 C490 1.443 . S
C489 C516 1.389 . S
C490 C489 1.443 . S
C490 C491 1.340 . S
C490 H522 0.951 . S
C491 C490 1.340 . S
C491 C492 1.439 . S
C491 H523 0.950 . S
C492 N488 1.374 . S
C492 C491 1.439 . S
C492 C517 1.395 . S
N493 Co482 1.995 . S
N493 C494 1.376 . S
N493 C497 1.383 . S
C494 N493 1.376 . S
C494 C495 1.446 . S
C494 C517 1.391 . S
C495 C494 1.446 . S
C495 C496 1.339 . S
C495 H524 0.949 . S
C496 C495 1.339 . S
C496 C497 1.439 . S
C496 H525 0.950 . S
C497 N493 1.383 . S
C497 C496 1.439 . S
C497 C515 1.392 . S
N498 Co482 2.282 . S
N498 C501 1.332 . S
N498 C503 1.332 . S
C499 C500 1.386 . S
C499 C502 1.388 . S
C500 C499 1.386 . S
C500 C501 1.382 . S
C500 H526 0.950 1_556 S
C501 N498 1.332 . S
C501 C500 1.382 . S
C501 H512 0.952 . S
C502 C499 1.388 . S
C502 C503 1.382 . S
C502 H527 0.950 . S
C503 N498 1.332 . S
C503 C502 1.382 . S
C503 H513 0.948 . S
N504 Co482 2.282 . S
N504 C508 1.332 . S
N504 C509 1.332 . S
C505 C506 1.388 . S
C505 C509 1.382 . S
C505 H528 0.950 . S
C506 C505 1.388 . S
C506 C507 1.386 . S
C507 C506 1.386 . S
C507 C508 1.382 . S
C507 H529 0.950 . S
C508 N504 1.332 . S
C508 C507 1.382 . S
C508 H510 0.952 . S
C509 N504 1.332 . S
C509 C505 1.382 . S
C509 H511 0.948 . S
H510 C508 0.952 . S
H511 C509 0.948 . S
H512 C501 0.952 . S
H513 C503 0.948 . S
C514 C480 1.395 . S
C514 C484 1.391 . S
C515 C477 1.389 . S
C515 C497 1.392 . S
C516 C487 1.392 . S
C516 C489 1.389 . S
C517 C492 1.395 . S
C517 C494 1.391 . S
H518 C478 0.951 . S
H519 C479 0.950 . S
H520 C485 0.949 . S
H521 C486 0.950 . S
H522 C490 0.951 . S
H523 C491 0.950 . S
H524 C495 0.949 . S
H525 C496 0.950 . S
H526 C500 0.950 1_554 S
H527 C502 0.950 . S
H528 C505 0.950 . S
H529 C507 0.950 . S
C530 C531 1.443 . S
C530 N534 1.376 . S
C530 C568 1.389 1_556 S
C531 C530 1.443 . S
C531 C532 1.340 . S
C531 H571 0.951 1_556 S
C532 C531 1.340 . S
C532 C533 1.439 . S
C532 H572 0.950 . S
C533 C532 1.439 . S
C533 N534 1.374 . S
C533 C567 1.395 . S
N534 C530 1.376 . S
N534 C533 1.374 . S
N534 Co535 2.008 . S
Co535 N534 2.008 . S
Co535 N536 1.995 . S
Co535 N541 2.008 . S
Co535 N546 1.995 . S
Co535 N551 2.282 . S
Co535 N557 2.282 . S
N536 Co535 1.995 . S
N536 C537 1.376 . S
N536 C540 1.383 . S
C537 N536 1.376 . S
C537 C538 1.446 . S
C537 C567 1.391 . S
C538 C537 1.446 . S
C538 C539 1.339 . S
C538 H573 0.949 . S
C539 C538 1.339 . S
C539 C540 1.439 . S
C539 H574 0.950 . S
C540 N536 1.383 . S
C540 C539 1.439 . S
C540 C569 1.392 . S
N541 Co535 2.008 . S
N541 C542 1.376 . S
N541 C545 1.374 . S
C542 N541 1.376 . S
C542 C543 1.443 . S
C542 C569 1.389 . S
C543 C542 1.443 . S
C543 C544 1.340 . S
C543 H575 0.951 . S
C544 C543 1.340 . S
C544 C545 1.439 . S
C544 H576 0.950 . S
C545 N541 1.374 . S
C545 C544 1.439 . S
C545 C570 1.395 . S
N546 Co535 1.995 . S
N546 C547 1.376 . S
N546 C550 1.383 1_556 S
C547 N546 1.376 . S
C547 C548 1.446 1_556 S
C547 C570 1.391 . S
C548 C547 1.446 1_554 S
C548 C549 1.339 . S
C548 H577 0.949 . S
C549 C548 1.339 . S
C549 C550 1.439 . S
C549 H578 0.950 . S
C550 N546 1.383 1_554 S
C550 C549 1.439 . S
C550 C568 1.392 . S
N551 Co535 2.282 . S
N551 C554 1.332 1_556 S
N551 C556 1.332 . S
C552 C553 1.386 . S
C552 C555 1.388 . S
C553 C552 1.386 . S
C553 C554 1.382 . S
C553 H579 0.950 . S
C554 N551 1.332 1_554 S
C554 C553 1.382 . S
C554 H565 0.952 . S
C555 C552 1.388 . S
C555 C556 1.382 1_554 S
C555 H580 0.950 . S
C556 N551 1.332 . S
C556 C555 1.382 1_556 S
C556 H566 0.948 . S
N557 Co535 2.282 . S
N557 C561 1.332 . S
N557 C562 1.332 . S
C558 C559 1.388 . S
C558 C562 1.382 . S
C558 H581 0.950 . S
C559 C558 1.388 . S
C559 C560 1.386 . S
C560 C559 1.386 . S
C560 C561 1.382 . S
C560 H582 0.950 . S
C561 N557 1.332 . S
C561 C560 1.382 . S
C561 H563 0.952 . S
C562 N557 1.332 . S
C562 C558 1.382 . S
C562 H564 0.948 . S
H563 C561 0.952 . S
H564 C562 0.948 . S
H565 C554 0.952 . S
H566 C556 0.948 . S
C567 C533 1.395 . S
C567 C537 1.391 . S
C568 C530 1.389 1_554 S
C568 C550 1.392 . S
C569 C540 1.392 . S
C569 C542 1.389 . S
C570 C545 1.395 . S
C570 C547 1.391 . S
H571 C531 0.951 1_554 S
H572 C532 0.950 . S
H573 C538 0.949 . S
H574 C539 0.950 . S
H575 C543 0.951 . S
H576 C544 0.950 . S
H577 C548 0.949 . S
H578 C549 0.950 . S
H579 C553 0.950 . S
H580 C555 0.950 . S
H581 C558 0.950 . S
H582 C560 0.950 . S
C583 C584 1.443 . S
C583 N587 1.376 . S
C583 C621 1.385 . S
C584 C583 1.443 . S
C584 C585 1.340 . S
C584 H624 0.951 . S
C585 C584 1.340 . S
C585 C586 1.439 . S
C585 H625 0.950 . S
C586 C585 1.439 . S
C586 N587 1.374 . S
C586 C620 1.395 . S
N587 C583 1.376 . S
N587 C586 1.374 . S
N587 Co588 2.008 1_455 S
Co588 N587 2.008 1_655 S
Co588 N589 1.995 1_655 S
Co588 N594 2.008 . S
Co588 N599 1.995 . S
Co588 N604 2.282 1_655 S
Co588 N610 2.282 . S
N589 Co588 1.995 1_455 S
N589 C590 1.376 . S
N589 C593 1.383 . S
C590 N589 1.376 . S
C590 C591 1.446 . S
C590 C620 1.391 . S
C591 C590 1.446 . S
C591 C592 1.339 . S
C591 H626 0.949 . S
C592 C591 1.339 . S
C592 C593 1.439 . S
C592 H627 0.950 . S
C593 N589 1.383 . S
C593 C592 1.439 . S
C593 C622 1.386 1_455 S
N594 Co588 2.008 . S
N594 C595 1.376 . S
N594 C598 1.374 . S
C595 N594 1.376 . S
C595 C596 1.443 . S
C595 C622 1.395 . S
C596 C595 1.443 . S
C596 C597 1.340 . S
C596 H628 0.951 . S
C597 C596 1.340 . S
C597 C598 1.439 . S
C597 H629 0.950 . S
C598 N594 1.374 . S
C598 C597 1.439 . S
C598 C623 1.395 . S
N599 Co588 1.995 . S
N599 C600 1.376 . S
N599 C603 1.383 . S
C600 N599 1.376 . S
C600 C601 1.446 . S
C600 C623 1.391 . S
C601 C600 1.446 . S
C601 C602 1.339 . S
C601 H630 0.949 1_556 S
C602 C601 1.339 . S
C602 C603 1.439 . S
C602 H631 0.950 1_556 S
C603 N599 1.383 . S
C603 C602 1.439 . S
C603 C621 1.395 1_655 S
N604 Co588 2.282 1_455 S
N604 C607 1.332 . S
N604 C609 1.332 . S
C605 C606 1.386 . S
C605 C608 1.388 1_554 S
C606 C605 1.386 . S
C606 C607 1.382 1_554 S
C606 H632 0.950 . S
C607 N604 1.332 . S
C607 C606 1.382 1_556 S
C607 H618 0.952 1_455 S
C608 C605 1.388 1_556 S
C608 C609 1.382 . S
C608 H633 0.950 . S
C609 N604 1.332 . S
C609 C608 1.382 . S
C609 H619 0.948 . S
N610 Co588 2.282 . S
N610 C614 1.332 . S
N610 C615 1.332 . S
C611 C612 1.388 . S
C611 C615 1.382 . S
C611 H634 0.950 . S
C612 C611 1.388 . S
C612 C613 1.386 . S
C613 C612 1.386 . S
C613 C614 1.382 . S
C613 H635 0.950 . S
C614 N610 1.332 . S
C614 C613 1.382 . S
C614 H616 0.952 1_655 S
C615 N610 1.332 . S
C615 C611 1.382 . S
C615 H617 0.948 . S
H616 C614 0.952 1_455 S
H617 C615 0.948 . S
H618 C607 0.952 1_655 S
H619 C609 0.948 . S
C620 C586 1.395 . S
C620 C590 1.391 . S
C621 C583 1.385 . S
C621 C603 1.395 1_455 S
C622 C593 1.386 1_655 S
C622 C595 1.395 . S
C623 C598 1.395 . S
C623 C600 1.391 . S
H624 C584 0.951 . S
H625 C585 0.950 . S
H626 C591 0.949 . S
H627 C592 0.950 . S
H628 C596 0.951 . S
H629 C597 0.950 . S
H630 C601 0.949 1_554 S
H631 C602 0.950 1_554 S
H632 C606 0.950 . S
H633 C608 0.950 . S
H634 C611 0.950 . S
H635 C613 0.950 . S
C636 C637 1.443 . S
C636 N640 1.376 . S
C636 C674 1.389 . S
C637 C636 1.443 . S
C637 C638 1.340 . S
C637 H677 0.951 . S
C638 C637 1.340 . S
C638 C639 1.439 . S
C638 H678 0.950 . S
C639 C638 1.439 . S
C639 N640 1.374 . S
C639 C673 1.395 . S
N640 C636 1.376 . S
N640 C639 1.374 . S
N640 Co641 2.008 1_565 S
Co641 N640 2.008 1_545 S
Co641 N642 1.995 1_545 S
Co641 N647 2.008 . S
Co641 N652 1.995 . S
Co641 N657 2.282 1_545 S
Co641 N663 2.282 . S
N642 Co641 1.995 1_565 S
N642 C643 1.376 . S
N642 C646 1.383 . S
C643 N642 1.376 . S
C643 C644 1.446 . S
C643 C673 1.391 . S
C644 C643 1.446 . S
C644 C645 1.339 . S
C644 H679 0.949 . S
C645 C644 1.339 . S
C645 C646 1.439 . S
C645 H680 0.950 . S
C646 N642 1.383 . S
C646 C645 1.439 . S
C646 C675 1.392 1_565 S
N647 Co641 2.008 . S
N647 C648 1.376 . S
N647 C651 1.374 . S
C648 N647 1.376 . S
C648 C649 1.443 . S
C648 C675 1.389 . S
C649 C648 1.443 . S
C649 C650 1.340 . S
C649 H681 0.951 . S
C650 C649 1.340 . S
C650 C651 1.439 . S
C650 H682 0.950 . S
C651 N647 1.374 . S
C651 C650 1.439 . S
C651 C676 1.395 . S
N652 Co641 1.995 . S
N652 C653 1.376 . S
N652 C656 1.383 . S
C653 N652 1.376 . S
C653 C654 1.446 . S
C653 C676 1.391 . S
C654 C653 1.446 . S
C654 C655 1.339 . S
C654 H683 0.949 . S
C655 C654 1.339 . S
C655 C656 1.439 . S
C655 H684 0.950 . S
C656 N652 1.383 . S
C656 C655 1.439 . S
C656 C674 1.392 1_545 S
N657 Co641 2.282 1_565 S
N657 C660 1.332 1_565 S
N657 C662 1.332 . S
C658 C659 1.386 . S
C658 C661 1.388 . S
C659 C658 1.386 . S
C659 C660 1.382 1_565 S
C659 H685 0.950 1_565 S
C660 N657 1.332 1_545 S
C660 C659 1.382 1_545 S
C660 H671 0.952 . S
C661 C658 1.388 . S
C661 C662 1.382 . S
C661 H686 0.950 . S
C662 N657 1.332 . S
C662 C661 1.382 . S
C662 H672 0.948 . S
N663 Co641 2.282 . S
N663 C667 1.332 1_545 S
N663 C668 1.332 . S
C664 C665 1.388 . S
C664 C668 1.382 . S
C664 H687 0.950 . S
C665 C664 1.388 . S
C665 C666 1.386 . S
C666 C665 1.386 . S
C666 C667 1.382 1_545 S
C666 H688 0.950 1_545 S
C667 N663 1.332 1_565 S
C667 C666 1.382 1_565 S
C667 H669 0.952 . S
C668 N663 1.332 . S
C668 C664 1.382 . S
C668 H670 0.948 . S
H669 C667 0.952 . S
H670 C668 0.948 . S
H671 C660 0.952 . S
H672 C662 0.948 . S
C673 C639 1.395 . S
C673 C643 1.391 . S
C674 C636 1.389 . S
C674 C656 1.392 1_565 S
C675 C646 1.392 1_545 S
C675 C648 1.389 . S
C676 C651 1.395 . S
C676 C653 1.391 . S
H677 C637 0.951 . S
H678 C638 0.950 . S
H679 C644 0.949 . S
H680 C645 0.950 . S
H681 C649 0.951 . S
H682 C650 0.950 . S
H683 C654 0.949 . S
H684 C655 0.950 . S
H685 C659 0.950 1_545 S
H686 C661 0.950 . S
H687 C664 0.950 . S
H688 C666 0.950 1_565 S
C689 C690 1.443 . S
C689 N693 1.376 . S
C689 C727 1.389 . S
C690 C689 1.443 . S
C690 C691 1.340 . S
C690 H730 0.951 . S
C691 C690 1.340 . S
C691 C692 1.439 . S
C691 H731 0.950 . S
C692 C691 1.439 . S
C692 N693 1.374 . S
C692 C726 1.395 . S
N693 C689 1.376 . S
N693 C692 1.374 . S
N693 Co694 2.008 . S
Co694 N693 2.008 . S
Co694 N695 1.995 . S
Co694 N700 2.008 . S
Co694 N705 1.995 . S
Co694 N710 2.282 . S
Co694 N716 2.282 . S
N695 Co694 1.995 . S
N695 C696 1.376 . S
N695 C699 1.383 . S
C696 N695 1.376 . S
C696 C697 1.446 . S
C696 C726 1.391 . S
C697 C696 1.446 . S
C697 C698 1.339 . S
C697 H732 0.949 . S
C698 C697 1.339 . S
C698 C699 1.439 . S
C698 H733 0.950 . S
C699 N695 1.383 . S
C699 C698 1.439 . S
C699 C728 1.392 . S
N700 Co694 2.008 . S
N700 C701 1.376 . S
N700 C704 1.374 . S
C701 N700 1.376 . S
C701 C702 1.443 . S
C701 C728 1.389 . S
C702 C701 1.443 . S
C702 C703 1.340 . S
C702 H734 0.951 . S
C703 C702 1.340 . S
C703 C704 1.439 . S
C703 H735 0.950 . S
C704 N700 1.374 . S
C704 C703 1.439 . S
C704 C729 1.395 . S
N705 Co694 1.995 . S
N705 C706 1.376 . S
N705 C709 1.383 . S
C706 N705 1.376 . S
C706 C707 1.446 . S
C706 C729 1.391 . S
C707 C706 1.446 . S
C707 C708 1.339 . S
C707 H736 0.949 . S
C708 C707 1.339 . S
C708 C709 1.439 . S
C708 H737 0.950 . S
C709 N705 1.383 . S
C709 C708 1.439 . S
C709 C727 1.392 . S
N710 Co694 2.282 . S
N710 C713 1.332 . S
N710 C715 1.332 . S
C711 C712 1.386 . S
C711 C714 1.388 . S
C712 C711 1.386 . S
C712 C713 1.382 . S
C712 H738 0.950 . S
C713 N710 1.332 . S
C713 C712 1.382 . S
C713 H724 0.952 . S
C714 C711 1.388 . S
C714 C715 1.382 . S
C714 H739 0.950 . S
C715 N710 1.332 . S
C715 C714 1.382 . S
C715 H725 0.948 . S
N716 Co694 2.282 . S
N716 C720 1.332 . S
N716 C721 1.332 . S
C717 C718 1.388 . S
C717 C721 1.382 . S
C717 H740 0.950 . S
C718 C717 1.388 . S
C718 C719 1.386 . S
C719 C718 1.386 . S
C719 C720 1.382 . S
C719 H741 0.950 . S
C720 N716 1.332 . S
C720 C719 1.382 . S
C720 H722 0.952 . S
C721 N716 1.332 . S
C721 C717 1.382 . S
C721 H723 0.948 . S
H722 C720 0.952 . S
H723 C721 0.948 . S
H724 C713 0.952 . S
H725 C715 0.948 . S
C726 C692 1.395 . S
C726 C696 1.391 . S
C727 C689 1.389 . S
C727 C709 1.392 . S
C728 C699 1.392 . S
C728 C701 1.389 . S
C729 C704 1.395 . S
C729 C706 1.391 . S
H730 C690 0.951 . S
H731 C691 0.950 . S
H732 C697 0.949 . S
H733 C698 0.950 . S
H734 C702 0.951 . S
H735 C703 0.950 . S
H736 C707 0.949 . S
H737 C708 0.950 . S
H738 C712 0.950 . S
H739 C714 0.950 . S
H740 C717 0.950 . S
H741 C719 0.950 . S
C742 C743 1.443 . S
C742 N746 1.376 . S
C742 C780 1.389 . S
C743 C742 1.443 . S
C743 C744 1.340 . S
C743 H783 0.951 . S
C744 C743 1.340 . S
C744 C745 1.439 . S
C744 H784 0.950 . S
C745 C744 1.439 . S
C745 N746 1.374 . S
C745 C779 1.395 . S
N746 C742 1.376 . S
N746 C745 1.374 . S
N746 Co747 2.008 . S
Co747 N746 2.008 . S
Co747 N748 1.995 . S
Co747 N753 2.008 . S
Co747 N758 1.995 . S
Co747 N763 2.282 . S
Co747 N769 2.282 . S
N748 Co747 1.995 . S
N748 C749 1.376 . S
N748 C752 1.383 . S
C749 N748 1.376 . S
C749 C750 1.446 . S
C749 C779 1.391 . S
C750 C749 1.446 . S
C750 C751 1.339 . S
C750 H785 0.949 . S
C751 C750 1.339 . S
C751 C752 1.439 . S
C751 H786 0.950 . S
C752 N748 1.383 . S
C752 C751 1.439 . S
C752 C781 1.392 . S
N753 Co747 2.008 . S
N753 C754 1.376 . S
N753 C757 1.374 . S
C754 N753 1.376 . S
C754 C755 1.443 . S
C754 C781 1.389 . S
C755 C754 1.443 . S
C755 C756 1.340 . S
C755 H787 0.951 . S
C756 C755 1.340 . S
C756 C757 1.439 . S
C756 H788 0.950 . S
C757 N753 1.374 . S
C757 C756 1.439 . S
C757 C782 1.395 . S
N758 Co747 1.995 . S
N758 C759 1.376 . S
N758 C762 1.383 . S
C759 N758 1.376 . S
C759 C760 1.446 . S
C759 C782 1.391 . S
C760 C759 1.446 . S
C760 C761 1.339 . S
C760 H789 0.949 . S
C761 C760 1.339 . S
C761 C762 1.439 . S
C761 H790 0.950 . S
C762 N758 1.383 . S
C762 C761 1.439 . S
C762 C780 1.392 . S
N763 Co747 2.282 . S
N763 C766 1.332 . S
N763 C768 1.332 . S
C764 C765 1.386 . S
C764 C767 1.388 . S
C765 C764 1.386 . S
C765 C766 1.382 . S
C765 H791 0.950 . S
C766 N763 1.332 . S
C766 C765 1.382 . S
C766 H777 0.952 . S
C767 C764 1.388 . S
C767 C768 1.382 . S
C767 H792 0.950 . S
C768 N763 1.332 . S
C768 C767 1.382 . S
C768 H778 0.948 . S
N769 Co747 2.282 . S
N769 C773 1.332 . S
N769 C774 1.332 . S
C770 C771 1.388 . S
C770 C774 1.382 . S
C770 H793 0.950 . S
C771 C770 1.388 . S
C771 C772 1.386 . S
C772 C771 1.386 . S
C772 C773 1.382 . S
C772 H794 0.950 . S
C773 N769 1.332 . S
C773 C772 1.382 . S
C773 H775 0.952 . S
C774 N769 1.332 . S
C774 C770 1.382 . S
C774 H776 0.948 . S
H775 C773 0.952 . S
H776 C774 0.948 . S
H777 C766 0.952 . S
H778 C768 0.948 . S
C779 C745 1.395 . S
C779 C749 1.391 . S
C780 C742 1.389 . S
C780 C762 1.392 . S
C781 C752 1.392 . S
C781 C754 1.389 . S
C782 C757 1.395 . S
C782 C759 1.391 . S
H783 C743 0.951 . S
H784 C744 0.950 . S
H785 C750 0.949 . S
H786 C751 0.950 . S
H787 C755 0.951 . S
H788 C756 0.950 . S
H789 C760 0.949 . S
H790 C761 0.950 . S
H791 C765 0.950 . S
H792 C767 0.950 . S
H793 C770 0.950 . S
H794 C772 0.950 . S
C795 C796 1.443 . S
C795 N799 1.376 . S
C795 C833 1.389 . S
C796 C795 1.443 . S
C796 C797 1.340 . S
C796 H836 0.951 . S
C797 C796 1.340 . S
C797 C798 1.439 . S
C797 H837 0.950 . S
C798 C797 1.439 . S
C798 N799 1.374 . S
C798 C832 1.395 . S
N799 C795 1.376 . S
N799 C798 1.374 . S
N799 Co800 2.008 1_655 S
Co800 N799 2.008 1_455 S
Co800 N801 1.995 1_455 S
Co800 N806 2.008 . S
Co800 N811 1.995 . S
Co800 N816 2.282 1_455 S
Co800 N822 2.282 . S
N801 Co800 1.995 1_655 S
N801 C802 1.376 . S
N801 C805 1.383 . S
C802 N801 1.376 . S
C802 C803 1.446 . S
C802 C832 1.391 . S
C803 C802 1.446 . S
C803 C804 1.339 . S
C803 H838 0.949 . S
C804 C803 1.339 . S
C804 C805 1.439 . S
C804 H839 0.950 . S
C805 N801 1.383 . S
C805 C804 1.439 . S
C805 C834 1.392 1_655 S
N806 Co800 2.008 . S
N806 C807 1.376 . S
N806 C810 1.374 . S
C807 N806 1.376 . S
C807 C808 1.443 . S
C807 C834 1.389 . S
C808 C807 1.443 . S
C808 C809 1.340 . S
C808 H840 0.951 . S
C809 C808 1.340 . S
C809 C810 1.439 . S
C809 H841 0.950 . S
C810 N806 1.374 . S
C810 C809 1.439 . S
C810 C835 1.395 . S
N811 Co800 1.995 . S
N811 C812 1.376 . S
N811 C815 1.383 . S
C812 N811 1.376 . S
C812 C813 1.446 . S
C812 C835 1.391 . S
C813 C812 1.446 . S
C813 C814 1.339 . S
C813 H842 0.949 . S
C814 C813 1.339 . S
C814 C815 1.439 . S
C814 H843 0.950 . S
C815 N811 1.383 . S
C815 C814 1.439 . S
C815 C833 1.392 1_455 S
N816 Co800 2.282 1_655 S
N816 C819 1.332 . S
N816 C821 1.332 . S
C817 C818 1.386 . S
C817 C820 1.388 . S
C818 C817 1.386 . S
C818 C819 1.382 . S
C818 H844 0.950 . S
C819 N816 1.332 . S
C819 C818 1.382 . S
C819 H830 0.952 1_655 S
C820 C817 1.388 . S
C820 C821 1.382 . S
C820 H845 0.950 . S
C821 N816 1.332 . S
C821 C820 1.382 . S
C821 H831 0.948 . S
N822 Co800 2.282 . S
N822 C826 1.332 . S
N822 C827 1.332 . S
C823 C824 1.388 . S
C823 C827 1.382 . S
C823 H846 0.950 . S
C824 C823 1.388 . S
C824 C825 1.386 . S
C825 C824 1.386 . S
C825 C826 1.382 . S
C825 H847 0.957 . S
C826 N822 1.332 . S
C826 C825 1.382 . S
C826 H828 0.952 1_455 S
C827 N822 1.332 . S
C827 C823 1.382 . S
C827 H829 0.948 . S
H828 C826 0.952 1_655 S
H829 C827 0.948 . S
H830 C819 0.952 1_455 S
H831 C821 0.948 . S
C832 C798 1.395 . S
C832 C802 1.391 . S
C833 C795 1.389 . S
C833 C815 1.392 1_655 S
C834 C805 1.392 1_455 S
C834 C807 1.389 . S
C835 C810 1.395 . S
C835 C812 1.391 . S
H836 C796 0.951 . S
H837 C797 0.950 . S
H838 C803 0.949 . S
H839 C804 0.950 . S
H840 C808 0.951 . S
H841 C809 0.950 . S
H842 C813 0.949 . S
H843 C814 0.950 . S
H844 C818 0.950 . S
H845 C820 0.950 . S
H846 C823 0.950 . S
H847 C825 0.957 . S
H848 C854 0.930 . S
H849 C858 0.930 . S
H850 C863 0.929 . S
H851 C861 0.929 . S
H852 C856 0.929 . S
H853 C862 0.929 . S
C854 H848 0.930 . S
C854 C855 1.367 . S
C854 C862 1.378 . S
C855 C854 1.367 . S
C855 C863 1.433 . S
C856 H852 0.929 . S
C856 C858 1.378 . S
C856 C860 1.350 . S
C857 C860 1.463 . S
C857 C862 1.350 . S
C857 N865 1.427 . S
C858 H849 0.930 . S
C858 C856 1.378 . S
C858 C859 1.367 . S
C859 C858 1.367 . S
C859 C861 1.433 . S
C860 C856 1.350 . S
C860 C857 1.463 . S
C860 N864 1.427 . S
C861 H851 0.929 . S
C861 C859 1.433 . S
C861 N864 1.384 . S
C862 H853 0.929 . S
C862 C854 1.378 . S
C862 C857 1.350 . S
C863 H850 0.929 . S
C863 C855 1.433 . S
C863 N865 1.384 . S
N864 C860 1.427 . S
N864 C861 1.384 . S
N865 C857 1.427 . S
N865 C863 1.384 . S
H866 C872 0.930 . S
H867 C876 0.930 . S
H868 C881 0.929 . S
H869 C879 0.929 . S
H870 C874 0.929 . S
H871 C880 0.929 . S
C872 H866 0.930 . S
C872 C873 1.367 . S
C872 C880 1.378 . S
C873 C872 1.367 . S
C873 C881 1.433 . S
C874 H870 0.929 . S
C874 C876 1.378 . S
C874 C878 1.350 . S
C875 C878 1.463 . S
C875 C880 1.350 . S
C875 N883 1.427 . S
C876 H867 0.930 . S
C876 C874 1.378 . S
C876 C877 1.367 . S
C877 C876 1.367 . S
C877 C879 1.433 . S
C878 C874 1.350 . S
C878 C875 1.463 . S
C878 N882 1.427 . S
C879 H869 0.929 . S
C879 C877 1.433 . S
C879 N882 1.384 . S
C880 H871 0.929 . S
C880 C872 1.378 . S
C880 C875 1.350 . S
C881 H868 0.929 . S
C881 C873 1.433 . S
C881 N883 1.384 . S
N882 C878 1.427 . S
N882 C879 1.384 . S
N883 C875 1.427 . S
N883 C881 1.384 . S
H884 C890 0.930 1_455 S
H885 C894 0.930 . S
H886 C899 0.929 . S
H887 C897 0.929 . S
H888 C892 0.929 . S
H889 C898 0.929 1_455 S
C890 H884 0.930 1_655 S
C890 C891 1.367 . S
C890 C898 1.378 . S
C891 C890 1.367 . S
C891 C899 1.433 . S
C892 H888 0.929 . S
C892 C894 1.378 . S
C892 C896 1.350 . S
C893 C896 1.463 . S
C893 C898 1.350 . S
C893 N901 1.427 . S
C894 H885 0.930 . S
C894 C892 1.378 . S
C894 C895 1.367 . S
C895 C894 1.367 . S
C895 C897 1.433 1_655 S
C896 C892 1.350 . S
C896 C893 1.463 . S
C896 N900 1.427 1_655 S
C897 H887 0.929 . S
C897 C895 1.433 1_455 S
C897 N900 1.384 . S
C898 H889 0.929 1_655 S
C898 C890 1.378 . S
C898 C893 1.350 . S
C899 H886 0.929 . S
C899 C891 1.433 . S
C899 N901 1.384 . S
N900 C896 1.427 1_455 S
N900 C897 1.384 . S
N901 C893 1.427 . S
N901 C899 1.384 . S
H902 C908 0.933 1_655 S
H903 C912 0.930 . S
H904 C917 0.929 . S
H905 C915 0.927 1_655 S
H906 C910 0.929 . S
H907 C916 0.929 1_655 S
C908 H902 0.933 1_455 S
C908 C909 1.365 . S
C908 C916 1.377 . S
C909 C908 1.365 . S
C909 C917 1.433 . S
C910 H906 0.929 . S
C910 C912 1.378 . S
C910 C914 1.350 . S
C911 C914 1.463 . S
C911 C916 1.350 . S
C911 N919 1.427 . S
C912 H903 0.930 . S
C912 C910 1.378 . S
C912 C913 1.367 . S
C913 C912 1.367 . S
C913 C915 1.433 . S
C914 C910 1.350 . S
C914 C911 1.463 . S
C914 N918 1.427 . S
C915 H905 0.927 1_455 S
C915 C913 1.433 . S
C915 N918 1.384 . S
C916 H907 0.929 1_455 S
C916 C908 1.377 . S
C916 C911 1.350 . S
C917 H904 0.929 . S
C917 C909 1.433 . S
C917 N919 1.384 . S
N918 C914 1.427 . S
N918 C915 1.384 . S
N919 C911 1.427 . S
N919 C917 1.384 . S
H920 C926 0.930 . S
H921 C930 0.930 . S
H922 C935 0.929 . S
H923 C933 0.929 . S
H924 C928 0.929 . S
H925 C934 0.929 . S
C926 H920 0.930 . S
C926 C927 1.367 . S
C926 C934 1.378 . S
C927 C926 1.367 . S
C927 C935 1.433 . S
C928 H924 0.929 . S
C928 C930 1.378 . S
C928 C932 1.350 . S
C929 C932 1.463 . S
C929 C934 1.350 . S
C929 N937 1.427 . S
C930 H921 0.930 . S
C930 C928 1.378 . S
C930 C931 1.367 . S
C931 C930 1.367 . S
C931 C933 1.433 . S
C932 C928 1.350 . S
C932 C929 1.463 . S
C932 N936 1.427 . S
C933 H923 0.929 . S
C933 C931 1.433 . S
C933 N936 1.384 . S
C934 H925 0.929 . S
C934 C926 1.378 . S
C934 C929 1.350 . S
C935 H922 0.929 . S
C935 C927 1.433 . S
C935 N937 1.384 . S
N936 C932 1.427 . S
N936 C933 1.384 . S
N937 C929 1.427 . S
N937 C935 1.384 . S
H938 C944 0.930 . S
H939 C948 0.930 . S
H940 C953 0.929 . S
H941 C951 0.929 . S
H942 C946 0.929 . S
H943 C952 0.929 . S
C944 H938 0.930 . S
C944 C945 1.367 . S
C944 C952 1.378 . S
C945 C944 1.367 . S
C945 C953 1.433 . S
C946 H942 0.929 . S
C946 C948 1.378 . S
C946 C950 1.350 . S
C947 C950 1.463 . S
C947 C952 1.350 . S
C947 N955 1.427 . S
C948 H939 0.930 . S
C948 C946 1.378 . S
C948 C949 1.367 . S
C949 C948 1.367 . S
C949 C951 1.433 . S
C950 C946 1.350 . S
C950 C947 1.463 . S
C950 N954 1.427 . S
C951 H941 0.929 . S
C951 C949 1.433 . S
C951 N954 1.384 . S
C952 H943 0.929 . S
C952 C944 1.378 . S
C952 C947 1.350 . S
C953 H940 0.929 . S
C953 C945 1.433 . S
C953 N955 1.384 . S
N954 C950 1.427 . S
N954 C951 1.384 . S
N955 C947 1.427 . S
N955 C953 1.384 . S
H956 C962 0.930 . S
H957 C966 0.930 . S
H958 C971 0.929 . S
H959 C969 0.929 . S
H960 C964 0.929 . S
H961 C970 0.929 . S
C962 H956 0.930 . S
C962 C963 1.367 . S
C962 C970 1.378 . S
C963 C962 1.367 . S
C963 C971 1.433 . S
C964 H960 0.929 . S
C964 C966 1.378 . S
C964 C968 1.350 . S
C965 C968 1.463 . S
C965 C970 1.350 . S
C965 N973 1.427 . S
C966 H957 0.930 . S
C966 C964 1.378 . S
C966 C967 1.367 . S
C967 C966 1.367 . S
C967 C969 1.433 . S
C968 C964 1.350 . S
C968 C965 1.463 . S
C968 N972 1.427 . S
C969 H959 0.929 . S
C969 C967 1.433 . S
C969 N972 1.384 . S
C970 H961 0.929 . S
C970 C962 1.378 . S
C970 C965 1.350 . S
C971 H958 0.929 . S
C971 C963 1.433 . S
C971 N973 1.384 . S
N972 C968 1.427 . S
N972 C969 1.384 . S
N973 C965 1.427 . S
N973 C971 1.384 . S
H974 C980 0.930 . S
H975 C984 0.930 . S
H976 C989 0.929 . S
H977 C987 0.929 . S
H978 C982 0.929 . S
H979 C988 0.929 . S
C980 H974 0.930 . S
C980 C981 1.367 . S
C980 C988 1.378 . S
C981 C980 1.367 . S
C981 C989 1.433 . S
C982 H978 0.929 . S
C982 C984 1.378 . S
C982 C986 1.350 . S
C983 C986 1.463 . S
C983 C988 1.350 . S
C983 N991 1.427 . S
C984 H975 0.930 . S
C984 C982 1.378 . S
C984 C985 1.367 . S
C985 C984 1.367 . S
C985 C987 1.433 . S
C986 C982 1.350 . S
C986 C983 1.463 . S
C986 N990 1.427 . S
C987 H977 0.929 . S
C987 C985 1.433 . S
C987 N990 1.384 . S
C988 H979 0.929 . S
C988 C980 1.378 . S
C988 C983 1.350 . S
C989 H976 0.929 . S
C989 C981 1.433 . S
C989 N991 1.384 . S
N990 C986 1.427 . S
N990 C987 1.384 . S
N991 C983 1.427 . S
N991 C989 1.384 . S
H992 C998 0.930 . S
H993 C1002 0.930 . S
H994 C1007 0.929 . S
H995 C1005 0.929 . S
H996 C1000 0.929 . S
H997 C1006 0.929 . S
C998 H992 0.930 . S
C998 C999 1.367 . S
C998 C1006 1.378 . S
C999 C998 1.367 . S
C999 C1007 1.433 . S
C1000 H996 0.929 . S
C1000 C1002 1.378 . S
C1000 C1004 1.350 . S
C1001 C1004 1.463 . S
C1001 C1006 1.350 . S
C1001 N1009 1.427 . S
C1002 H993 0.930 . S
C1002 C1000 1.378 . S
C1002 C1003 1.367 . S
C1003 C1002 1.367 . S
C1003 C1005 1.433 1_565 S
C1004 C1000 1.350 . S
C1004 C1001 1.463 . S
C1004 N1008 1.443 . S
C1005 H995 0.929 . S
C1005 C1003 1.433 1_545 S
C1005 N1008 1.378 1_545 S
C1006 H997 0.929 . S
C1006 C998 1.378 . S
C1006 C1001 1.350 . S
C1007 H994 0.929 . S
C1007 C999 1.433 . S
C1007 N1009 1.384 . S
N1008 C1004 1.443 . S
N1008 C1005 1.378 1_565 S
N1009 C1001 1.427 . S
N1009 C1007 1.384 . S
H1010 C1016 0.930 . S
H1011 C1020 0.930 . S
H1012 C1025 0.929 . S
H1013 C1023 0.929 . S
H1014 C1018 0.929 . S
H1015 C1024 0.929 . S
C1016 H1010 0.930 . S
C1016 C1017 1.367 . S
C1016 C1024 1.378 . S
C1017 C1016 1.367 . S
C1017 C1025 1.433 . S
C1018 H1014 0.929 . S
C1018 C1020 1.378 . S
C1018 C1022 1.350 . S
C1019 C1022 1.463 . S
C1019 C1024 1.350 . S
C1019 N1027 1.427 . S
C1020 H1011 0.930 . S
C1020 C1018 1.378 . S
C1020 C1021 1.367 . S
C1021 C1020 1.367 . S
C1021 C1023 1.433 . S
C1022 C1018 1.350 . S
C1022 C1019 1.463 . S
C1022 N1026 1.427 . S
C1023 H1013 0.929 . S
C1023 C1021 1.433 . S
C1023 N1026 1.384 . S
C1024 H1015 0.929 . S
C1024 C1016 1.378 . S
C1024 C1019 1.350 . S
C1025 H1012 0.929 . S
C1025 C1017 1.433 . S
C1025 N1027 1.384 . S
N1026 C1022 1.427 . S
N1026 C1023 1.384 . S
N1027 C1019 1.427 . S
N1027 C1025 1.384 . S
H1028 C1034 0.930 . S
H1029 C1038 0.930 . S
H1030 C1043 0.929 . S
H1031 C1041 0.929 . S
H1032 C1036 0.929 . S
H1033 C1042 0.929 . S
C1034 H1028 0.930 . S
C1034 C1035 1.367 . S
C1034 C1042 1.378 . S
C1035 C1034 1.367 . S
C1035 C1043 1.433 . S
C1036 H1032 0.929 . S
C1036 C1038 1.378 . S
C1036 C1040 1.350 . S
C1037 C1040 1.463 . S
C1037 C1042 1.350 . S
C1037 N1045 1.427 . S
C1038 H1029 0.930 . S
C1038 C1036 1.378 . S
C1038 C1039 1.367 . S
C1039 C1038 1.367 . S
C1039 C1041 1.433 . S
C1040 C1036 1.350 . S
C1040 C1037 1.463 . S
C1040 N1044 1.427 . S
C1041 H1031 0.929 . S
C1041 C1039 1.433 . S
C1041 N1044 1.384 . S
C1042 H1033 0.929 . S
C1042 C1034 1.378 . S
C1042 C1037 1.350 . S
C1043 H1030 0.929 . S
C1043 C1035 1.433 . S
C1043 N1045 1.384 . S
N1044 C1040 1.427 . S
N1044 C1041 1.384 . S
N1045 C1037 1.427 . S
N1045 C1043 1.384 . S
H1046 C1052 0.930 . S
H1047 C1056 0.930 . S
H1048 C1061 0.929 . S
H1049 C1059 0.929 . S
H1050 C1054 0.929 . S
H1051 C1060 0.929 . S
C1052 H1046 0.930 . S
C1052 C1053 1.367 . S
C1052 C1060 1.378 . S
C1053 C1052 1.367 . S
C1053 C1061 1.433 1_655 S
C1054 H1050 0.929 . S
C1054 C1056 1.378 . S
C1054 C1058 1.350 1_455 S
C1055 C1058 1.463 . S
C1055 C1060 1.350 . S
C1055 N1063 1.427 1_655 S
C1056 H1047 0.930 . S
C1056 C1054 1.378 . S
C1056 C1057 1.362 1_455 S
C1057 C1056 1.362 1_655 S
C1057 C1059 1.438 . S
C1058 C1054 1.350 1_655 S
C1058 C1055 1.463 . S
C1058 N1062 1.427 . S
C1059 H1049 0.929 . S
C1059 C1057 1.438 . S
C1059 N1062 1.384 . S
C1060 H1051 0.929 . S
C1060 C1052 1.378 . S
C1060 C1055 1.350 . S
C1061 H1048 0.929 . S
C1061 C1053 1.433 1_455 S
C1061 N1063 1.384 . S
N1062 C1058 1.427 . S
N1062 C1059 1.384 . S
N1063 C1055 1.427 1_455 S
N1063 C1061 1.384 . S
H1064 C1070 0.930 . S
H1065 C1074 0.930 . S
H1066 C1079 0.929 1_565 S
H1067 C1077 0.929 . S
H1068 C1072 0.929 . S
H1069 C1078 0.929 . S
C1070 H1064 0.930 . S
C1070 C1071 1.367 . S
C1070 C1078 1.378 . S
C1071 C1070 1.367 . S
C1071 C1079 1.433 . S
C1072 H1068 0.929 . S
C1072 C1074 1.378 . S
C1072 C1076 1.350 1_565 S
C1073 C1076 1.463 . S
C1073 C1078 1.350 . S
C1073 N1081 1.427 . S
C1074 H1065 0.930 . S
C1074 C1072 1.378 . S
C1074 C1075 1.367 1_565 S
C1075 C1074 1.367 1_545 S
C1075 C1077 1.433 . S
C1076 C1072 1.350 1_545 S
C1076 C1073 1.463 . S
C1076 N1080 1.427 . S
C1077 H1067 0.929 . S
C1077 C1075 1.433 . S
C1077 N1080 1.384 . S
C1078 H1069 0.929 . S
C1078 C1070 1.378 . S
C1078 C1073 1.350 . S
C1079 H1066 0.929 1_545 S
C1079 C1071 1.433 . S
C1079 N1081 1.384 . S
N1080 C1076 1.427 . S
N1080 C1077 1.384 . S
N1081 C1073 1.427 . S
N1081 C1079 1.384 . S
H1082 C1088 0.930 . S
H1083 C1092 0.930 . S
H1084 C1097 0.929 . S
H1085 C1095 0.929 . S
H1086 C1090 0.929 . S
H1087 C1096 0.929 . S
C1088 H1082 0.930 . S
C1088 C1089 1.367 . S
C1088 C1096 1.378 . S
C1089 C1088 1.367 . S
C1089 C1097 1.433 . S
C1090 H1086 0.929 . S
C1090 C1092 1.378 . S
C1090 C1094 1.350 . S
C1091 C1094 1.463 . S
C1091 C1096 1.350 . S
C1091 N1099 1.427 . S
C1092 H1083 0.930 . S
C1092 C1090 1.378 . S
C1092 C1093 1.367 . S
C1093 C1092 1.367 . S
C1093 C1095 1.433 . S
C1094 C1090 1.350 . S
C1094 C1091 1.463 . S
C1094 N1098 1.427 . S
C1095 H1085 0.929 . S
C1095 C1093 1.433 . S
C1095 N1098 1.384 . S
C1096 H1087 0.929 . S
C1096 C1088 1.378 . S
C1096 C1091 1.350 . S
C1097 H1084 0.929 . S
C1097 C1089 1.433 . S
C1097 N1099 1.384 . S
N1098 C1094 1.427 . S
N1098 C1095 1.384 . S
N1099 C1091 1.427 . S
N1099 C1097 1.384 . S
H1100 C1106 0.930 . S
H1101 C1110 0.930 . S
H1102 C1115 0.929 . S
H1103 C1113 0.929 . S
H1104 C1108 0.929 . S
H1105 C1114 0.929 . S
C1106 H1100 0.930 . S
C1106 C1107 1.367 . S
C1106 C1114 1.378 . S
C1107 C1106 1.367 . S
C1107 C1115 1.433 . S
C1108 H1104 0.929 . S
C1108 C1110 1.378 . S
C1108 C1112 1.350 . S
C1109 C1112 1.463 . S
C1109 C1114 1.350 . S
C1109 N1117 1.427 . S
C1110 H1101 0.930 . S
C1110 C1108 1.378 . S
C1110 C1111 1.367 . S
C1111 C1110 1.367 . S
C1111 C1113 1.433 . S
C1112 C1108 1.350 . S
C1112 C1109 1.463 . S
C1112 N1116 1.427 . S
C1113 H1103 0.929 . S
C1113 C1111 1.433 . S
C1113 N1116 1.384 . S
C1114 H1105 0.929 . S
C1114 C1106 1.378 . S
C1114 C1109 1.350 . S
C1115 H1102 0.929 . S
C1115 C1107 1.433 . S
C1115 N1117 1.384 . S
N1116 C1112 1.427 . S
N1116 C1113 1.384 . S
N1117 C1109 1.427 . S
N1117 C1115 1.384 . S
H1118 C1124 0.930 . S
H1119 C1128 0.930 . S
H1120 C1133 0.929 . S
H1121 C1131 0.929 . S
H1122 C1126 0.929 . S
H1123 C1132 0.929 . S
C1124 H1118 0.930 . S
C1124 C1125 1.367 . S
C1124 C1132 1.378 . S
C1125 C1124 1.367 . S
C1125 C1133 1.433 1_455 S
C1126 H1122 0.929 . S
C1126 C1128 1.378 . S
C1126 C1130 1.350 1_655 S
C1127 C1130 1.463 . S
C1127 C1132 1.350 . S
C1127 N1135 1.427 1_455 S
C1128 H1119 0.930 . S
C1128 C1126 1.378 . S
C1128 C1129 1.367 1_655 S
C1129 C1128 1.367 1_455 S
C1129 C1131 1.433 . S
C1130 C1126 1.350 1_455 S
C1130 C1127 1.463 . S
C1130 N1134 1.427 . S
C1131 H1121 0.929 . S
C1131 C1129 1.433 . S
C1131 N1134 1.384 . S
C1132 H1123 0.929 . S
C1132 C1124 1.378 . S
C1132 C1127 1.350 . S
C1133 H1120 0.929 . S
C1133 C1125 1.433 1_655 S
C1133 N1135 1.384 . S
N1134 C1130 1.427 . S
N1134 C1131 1.384 . S
N1135 C1127 1.427 1_655 S
N1135 C1133 1.384 . S
H1136 C1142 0.930 . S
H1137 C1146 0.930 . S
H1138 C1151 0.929 . S
H1139 C1149 0.914 1_565 S
H1140 C1144 0.929 . S
H1141 C1150 0.929 . S
C1142 H1136 0.930 . S
C1142 C1143 1.367 1_565 S
C1142 C1150 1.378 . S
C1143 C1142 1.367 1_545 S
C1143 C1151 1.433 . S
C1144 H1140 0.929 . S
C1144 C1146 1.378 . S
C1144 C1148 1.350 . S
C1145 C1148 1.463 . S
C1145 C1150 1.350 1_545 S
C1145 N1153 1.427 . S
C1146 H1137 0.930 . S
C1146 C1144 1.378 . S
C1146 C1147 1.367 . S
C1147 C1146 1.367 . S
C1147 C1149 1.452 . S
C1148 C1144 1.350 . S
C1148 C1145 1.463 . S
C1148 N1152 1.427 1_545 S
C1149 H1139 0.914 1_545 S
C1149 C1147 1.452 . S
C1149 N1152 1.381 1_545 S
C1150 H1141 0.929 . S
C1150 C1142 1.378 . S
C1150 C1145 1.350 1_565 S
C1151 H1138 0.929 . S
C1151 C1143 1.433 . S
C1151 N1153 1.384 . S
N1152 C1148 1.427 1_565 S
N1152 C1149 1.381 1_565 S
N1153 C1145 1.427 . S
N1153 C1151 1.384 . S
H1154 C1160 0.930 . S
H1155 C1164 0.930 . S
H1156 C1169 0.929 . S
H1157 C1167 0.929 . S
H1158 C1162 0.929 . S
H1159 C1168 0.929 . S
C1160 H1154 0.930 . S
C1160 C1161 1.367 . S
C1160 C1168 1.378 . S
C1161 C1160 1.367 . S
C1161 C1169 1.433 . S
C1162 H1158 0.929 . S
C1162 C1164 1.378 . S
C1162 C1166 1.350 . S
C1163 C1166 1.463 . S
C1163 C1168 1.350 . S
C1163 N1171 1.427 . S
C1164 H1155 0.930 . S
C1164 C1162 1.378 . S
C1164 C1165 1.367 . S
C1165 C1164 1.367 . S
C1165 C1167 1.433 . S
C1166 C1162 1.350 . S
C1166 C1163 1.463 . S
C1166 N1170 1.427 . S
C1167 H1157 0.929 . S
C1167 C1165 1.433 . S
C1167 N1170 1.384 . S
C1168 H1159 0.929 . S
C1168 C1160 1.378 . S
C1168 C1163 1.350 . S
C1169 H1156 0.929 . S
C1169 C1161 1.433 . S
C1169 N1171 1.384 . S
N1170 C1166 1.427 . S
N1170 C1167 1.384 . S
N1171 C1163 1.427 . S
N1171 C1169 1.384 . S
H1172 C1178 0.930 . S
H1173 C1182 0.930 . S
H1174 C1187 0.929 . S
H1175 C1185 0.929 . S
H1176 C1180 0.929 . S
H1177 C1186 0.929 . S
C1178 H1172 0.930 . S
C1178 C1179 1.367 . S
C1178 C1186 1.378 . S
C1179 C1178 1.367 . S
C1179 C1187 1.433 . S
C1180 H1176 0.929 . S
C1180 C1182 1.378 . S
C1180 C1184 1.350 . S
C1181 C1184 1.463 . S
C1181 C1186 1.350 . S
C1181 N1189 1.427 . S
C1182 H1173 0.930 . S
C1182 C1180 1.378 . S
C1182 C1183 1.367 . S
C1183 C1182 1.367 . S
C1183 C1185 1.433 . S
C1184 C1180 1.350 . S
C1184 C1181 1.463 . S
C1184 N1188 1.427 . S
C1185 H1175 0.929 . S
C1185 C1183 1.433 . S
C1185 N1188 1.384 . S
C1186 H1177 0.929 . S
C1186 C1178 1.378 . S
C1186 C1181 1.350 . S
C1187 H1174 0.929 . S
C1187 C1179 1.433 . S
C1187 N1189 1.384 . S
N1188 C1184 1.427 . S
N1188 C1185 1.384 . S
N1189 C1181 1.427 . S
N1189 C1187 1.384 . S
H1190 C1196 0.930 . S
H1191 C1200 0.930 . S
H1192 C1205 0.929 . S
H1193 C1203 0.929 . S
H1194 C1198 0.929 . S
H1195 C1204 0.929 1_655 S
C1196 H1190 0.930 . S
C1196 C1197 1.367 . S
C1196 C1204 1.378 . S
C1197 C1196 1.367 . S
C1197 C1205 1.433 . S
C1198 H1194 0.929 . S
C1198 C1200 1.378 . S
C1198 C1202 1.350 . S
C1199 C1202 1.463 . S
C1199 C1204 1.350 . S
C1199 N1207 1.427 . S
C1200 H1191 0.930 . S
C1200 C1198 1.378 . S
C1200 C1201 1.367 . S
C1201 C1200 1.367 . S
C1201 C1203 1.433 1_455 S
C1202 C1198 1.350 . S
C1202 C1199 1.463 . S
C1202 N1206 1.427 1_455 S
C1203 H1193 0.929 . S
C1203 C1201 1.433 1_655 S
C1203 N1206 1.384 . S
C1204 H1195 0.929 1_455 S
C1204 C1196 1.378 . S
C1204 C1199 1.350 . S
C1205 H1192 0.929 . S
C1205 C1197 1.433 . S
C1205 N1207 1.384 . S
N1206 C1202 1.427 1_655 S
N1206 C1203 1.384 . S
N1207 C1199 1.427 . S
N1207 C1205 1.384 . S
H1208 C1214 0.930 . S
H1209 C1218 0.930 1_545 S
H1210 C1223 0.929 . S
H1211 C1221 0.929 . S
H1212 C1216 0.929 . S
H1213 C1222 0.929 . S
C1214 H1208 0.930 . S
C1214 C1215 1.367 . S
C1214 C1222 1.378 . S
C1215 C1214 1.367 . S
C1215 C1223 1.433 1_565 S
C1216 H1212 0.929 . S
C1216 C1218 1.378 1_545 S
C1216 C1220 1.350 1_545 S
C1217 C1220 1.463 . S
C1217 C1222 1.350 . S
C1217 N1225 1.427 1_565 S
C1218 H1209 0.930 1_565 S
C1218 C1216 1.378 1_565 S
C1218 C1219 1.367 . S
C1219 C1218 1.367 . S
C1219 C1221 1.433 . S
C1220 C1216 1.350 1_565 S
C1220 C1217 1.463 . S
C1220 N1224 1.427 . S
C1221 H1211 0.929 . S
C1221 C1219 1.433 . S
C1221 N1224 1.384 . S
C1222 H1213 0.929 . S
C1222 C1214 1.378 . S
C1222 C1217 1.350 . S
C1223 H1210 0.929 . S
C1223 C1215 1.433 1_545 S
C1223 N1225 1.384 . S
N1224 C1220 1.427 . S
N1224 C1221 1.384 . S
N1225 C1217 1.427 1_545 S
N1225 C1223 1.384 . S
H1226 C1232 0.930 . S
H1227 C1236 0.930 . S
H1228 C1241 0.929 . S
H1229 C1239 0.929 . S
H1230 C1234 0.929 . S
H1231 C1240 0.929 . S
C1232 H1226 0.930 . S
C1232 C1233 1.367 . S
C1232 C1240 1.378 . S
C1233 C1232 1.367 . S
C1233 C1241 1.433 . S
C1234 H1230 0.929 . S
C1234 C1236 1.378 . S
C1234 C1238 1.350 . S
C1235 C1238 1.463 . S
C1235 C1240 1.350 . S
C1235 N1243 1.427 . S
C1236 H1227 0.930 . S
C1236 C1234 1.378 . S
C1236 C1237 1.367 . S
C1237 C1236 1.367 . S
C1237 C1239 1.433 . S
C1238 C1234 1.350 . S
C1238 C1235 1.463 . S
C1238 N1242 1.427 . S
C1239 H1229 0.929 . S
C1239 C1237 1.433 . S
C1239 N1242 1.384 . S
C1240 H1231 0.929 . S
C1240 C1232 1.378 . S
C1240 C1235 1.350 . S
C1241 H1228 0.929 . S
C1241 C1233 1.433 . S
C1241 N1243 1.384 . S
N1242 C1238 1.427 . S
N1242 C1239 1.384 . S
N1243 C1235 1.427 . S
N1243 C1241 1.384 . S
H1244 C1250 0.930 . S
H1245 C1254 0.930 . S
H1246 C1259 0.929 . S
H1247 C1257 0.929 . S
H1248 C1252 0.929 . S
H1249 C1258 0.929 . S
C1250 H1244 0.930 . S
C1250 C1251 1.367 . S
C1250 C1258 1.378 . S
C1251 C1250 1.367 . S
C1251 C1259 1.433 . S
C1252 H1248 0.929 . S
C1252 C1254 1.378 . S
C1252 C1256 1.350 . S
C1253 C1256 1.463 . S
C1253 C1258 1.350 . S
C1253 N1261 1.427 . S
C1254 H1245 0.930 . S
C1254 C1252 1.378 . S
C1254 C1255 1.367 . S
C1255 C1254 1.367 . S
C1255 C1257 1.433 . S
C1256 C1252 1.350 . S
C1256 C1253 1.463 . S
C1256 N1260 1.427 . S
C1257 H1247 0.929 . S
C1257 C1255 1.433 . S
C1257 N1260 1.384 . S
C1258 H1249 0.929 . S
C1258 C1250 1.378 . S
C1258 C1253 1.350 . S
C1259 H1246 0.929 . S
C1259 C1251 1.433 . S
C1259 N1261 1.384 . S
N1260 C1256 1.427 . S
N1260 C1257 1.384 . S
N1261 C1253 1.427 . S
N1261 C1259 1.384 . S
H1262 C1268 0.930 . S
H1263 C1272 0.930 . S
H1264 C1277 0.929 . S
H1265 C1275 0.929 . S
H1266 C1270 0.929 . S
H1267 C1276 0.929 . S
C1268 H1262 0.930 . S
C1268 C1269 1.367 1_455 S
C1268 C1276 1.378 . S
C1269 C1268 1.367 1_655 S
C1269 C1277 1.433 . S
C1270 H1266 0.929 . S
C1270 C1272 1.378 . S
C1270 C1274 1.350 . S
C1271 C1274 1.463 . S
C1271 C1276 1.350 1_655 S
C1271 N1279 1.427 . S
C1272 H1263 0.930 . S
C1272 C1270 1.378 . S
C1272 C1273 1.367 . S
C1273 C1272 1.367 . S
C1273 C1275 1.433 . S
C1274 C1270 1.350 . S
C1274 C1271 1.463 . S
C1274 N1278 1.427 . S
C1275 H1265 0.929 . S
C1275 C1273 1.433 . S
C1275 N1278 1.384 . S
C1276 H1267 0.929 . S
C1276 C1268 1.378 . S
C1276 C1271 1.350 1_455 S
C1277 H1264 0.929 . S
C1277 C1269 1.433 . S
C1277 N1279 1.384 . S
N1278 C1274 1.427 . S
N1278 C1275 1.384 . S
N1279 C1271 1.427 . S
N1279 C1277 1.384 . S
H1280 C1286 0.930 1_556 S
H1281 C1290 0.930 . S
H1282 C1295 0.929 . S
H1283 C1293 0.929 . S
H1284 C1288 0.929 . S
H1285 C1294 0.929 1_556 S
C1286 H1280 0.930 1_554 S
C1286 C1287 1.367 1_565 S
C1286 C1294 1.378 . S
C1287 C1286 1.367 1_545 S
C1287 C1295 1.433 . S
C1288 H1284 0.929 . S
C1288 C1290 1.378 . S
C1288 C1292 1.373 . S
C1289 C1292 1.462 . S
C1289 C1294 1.339 1_545 S
C1289 N1297 1.439 . S
C1290 H1281 0.930 . S
C1290 C1288 1.378 . S
C1290 C1291 1.374 . S
C1291 C1290 1.374 . S
C1291 C1293 1.426 1_544 S
C1292 C1288 1.373 . S
C1292 C1289 1.462 . S
C1292 N1296 1.405 1_545 S
C1293 H1283 0.929 . S
C1293 C1291 1.426 1_566 S
C1293 N1296 1.384 1_556 S
C1294 H1285 0.929 1_554 S
C1294 C1286 1.378 . S
C1294 C1289 1.339 1_565 S
C1295 H1282 0.929 . S
C1295 C1287 1.433 . S
C1295 N1297 1.384 . S
N1296 C1292 1.405 1_565 S
N1296 C1293 1.384 1_554 S
N1297 C1289 1.439 . S
N1297 C1295 1.384 . S
H1298 C1304 0.930 . S
H1299 C1308 0.930 . S
H1300 C1313 0.929 . S
H1301 C1311 0.929 . S
H1302 C1306 0.929 . S
H1303 C1312 0.929 . S
C1304 H1298 0.930 . S
C1304 C1305 1.367 . S
C1304 C1312 1.378 . S
C1305 C1304 1.367 . S
C1305 C1313 1.433 . S
C1306 H1302 0.929 . S
C1306 C1308 1.378 . S
C1306 C1310 1.350 . S
C1307 C1310 1.463 . S
C1307 C1312 1.350 . S
C1307 N1315 1.427 . S
C1308 H1299 0.930 . S
C1308 C1306 1.378 . S
C1308 C1309 1.367 . S
C1309 C1308 1.367 . S
C1309 C1311 1.433 . S
C1310 C1306 1.350 . S
C1310 C1307 1.463 . S
C1310 N1314 1.427 . S
C1311 H1301 0.929 . S
C1311 C1309 1.433 . S
C1311 N1314 1.384 . S
C1312 H1303 0.929 . S
C1312 C1304 1.378 . S
C1312 C1307 1.350 . S
C1313 H1300 0.929 . S
C1313 C1305 1.433 . S
C1313 N1315 1.384 . S
N1314 C1310 1.427 . S
N1314 C1311 1.384 . S
N1315 C1307 1.427 . S
N1315 C1313 1.384 . S
H1316 C1322 0.930 . S
H1317 C1326 0.927 1_556 S
H1318 C1331 0.929 . S
H1319 C1329 0.929 . S
H1320 C1324 0.929 1_556 S
H1321 C1330 0.929 . S
C1322 H1316 0.930 . S
C1322 C1323 1.367 . S
C1322 C1330 1.378 . S
C1323 C1322 1.367 . S
C1323 C1331 1.433 1_554 S
C1324 H1320 0.929 1_554 S
C1324 C1326 1.378 . S
C1324 C1328 1.350 . S
C1325 C1328 1.463 . S
C1325 C1330 1.350 . S
C1325 N1333 1.427 1_554 S
C1326 H1317 0.927 1_554 S
C1326 C1324 1.378 . S
C1326 C1327 1.367 . S
C1327 C1326 1.367 . S
C1327 C1329 1.433 . S
C1328 C1324 1.350 . S
C1328 C1325 1.463 . S
C1328 N1332 1.427 . S
C1329 H1319 0.929 . S
C1329 C1327 1.433 . S
C1329 N1332 1.384 . S
C1330 H1321 0.929 . S
C1330 C1322 1.378 . S
C1330 C1325 1.350 . S
C1331 H1318 0.929 . S
C1331 C1323 1.433 1_556 S
C1331 N1333 1.384 . S
N1332 C1328 1.427 . S
N1332 C1329 1.384 . S
N1333 C1325 1.427 1_556 S
N1333 C1331 1.384 . S
H1334 C1340 0.930 . S
H1335 C1344 0.930 . S
H1336 C1349 0.929 1_554 S
H1337 C1347 0.929 . S
H1338 C1342 0.929 . S
H1339 C1348 0.929 . S
C1340 H1334 0.930 . S
C1340 C1341 1.363 1_455 S
C1340 C1348 1.378 . S
C1341 C1340 1.363 1_655 S
C1341 C1349 1.437 . S
C1342 H1338 0.929 . S
C1342 C1344 1.378 . S
C1342 C1346 1.384 . S
C1343 C1346 1.460 1_445 S
C1343 C1348 1.348 . S
C1343 N1351 1.429 1_455 S
C1344 H1335 0.930 . S
C1344 C1342 1.378 . S
C1344 C1345 1.390 . S
C1345 C1344 1.390 . S
C1345 C1347 1.410 1_655 S
C1346 C1342 1.384 . S
C1346 C1343 1.460 1_665 S
C1346 N1350 1.395 1_655 S
C1347 H1337 0.929 . S
C1347 C1345 1.410 1_455 S
C1347 N1350 1.384 . S
C1348 H1339 0.929 . S
C1348 C1340 1.378 . S
C1348 C1343 1.348 . S
C1349 H1336 0.929 1_556 S
C1349 C1341 1.437 . S
C1349 N1351 1.384 . S
N1350 C1346 1.395 1_455 S
N1350 C1347 1.384 . S
N1351 C1343 1.429 1_655 S
N1351 C1349 1.384 . S
H1352 C1358 0.930 . S
H1353 C1362 0.930 . S
H1354 C1367 0.929 . S
H1355 C1365 0.929 . S
H1356 C1360 0.929 . S
H1357 C1366 0.929 . S
C1358 H1352 0.930 . S
C1358 C1359 1.367 . S
C1358 C1366 1.378 . S
C1359 C1358 1.367 . S
C1359 C1367 1.433 1_565 S
C1360 H1356 0.929 . S
C1360 C1362 1.378 . S
C1360 C1364 1.350 1_545 S
C1361 C1364 1.463 . S
C1361 C1366 1.350 . S
C1361 N1369 1.427 1_565 S
C1362 H1353 0.930 . S
C1362 C1360 1.378 . S
C1362 C1363 1.367 1_545 S
C1363 C1362 1.367 1_565 S
C1363 C1365 1.433 . S
C1364 C1360 1.350 1_565 S
C1364 C1361 1.463 . S
C1364 N1368 1.427 . S
C1365 H1355 0.929 . S
C1365 C1363 1.433 . S
C1365 N1368 1.384 . S
C1366 H1357 0.929 . S
C1366 C1358 1.378 . S
C1366 C1361 1.350 . S
C1367 H1354 0.929 . S
C1367 C1359 1.433 1_545 S
C1367 N1369 1.384 . S
N1368 C1364 1.427 . S
N1368 C1365 1.384 . S
N1369 C1361 1.427 1_545 S
N1369 C1367 1.384 . S
H1370 C1376 0.930 . S
H1371 C1380 0.930 . S
H1372 C1385 0.929 . S
H1373 C1383 0.929 . S
H1374 C1378 0.929 . S
H1375 C1384 0.929 . S
C1376 H1370 0.930 . S
C1376 C1377 1.367 . S
C1376 C1384 1.378 . S
C1377 C1376 1.367 . S
C1377 C1385 1.433 . S
C1378 H1374 0.929 . S
C1378 C1380 1.378 . S
C1378 C1382 1.350 . S
C1379 C1382 1.463 . S
C1379 C1384 1.350 1_545 S
C1379 N1387 1.427 . S
C1380 H1371 0.930 . S
C1380 C1378 1.378 . S
C1380 C1381 1.367 . S
C1381 C1380 1.367 . S
C1381 C1383 1.433 . S
C1382 C1378 1.350 . S
C1382 C1379 1.463 . S
C1382 N1386 1.427 . S
C1383 H1373 0.929 . S
C1383 C1381 1.433 . S
C1383 N1386 1.384 . S
C1384 H1375 0.929 . S
C1384 C1376 1.378 . S
C1384 C1379 1.350 1_565 S
C1385 H1372 0.929 . S
C1385 C1377 1.433 . S
C1385 N1387 1.384 1_565 S
N1386 C1382 1.427 . S
N1386 C1383 1.384 . S
N1387 C1379 1.427 . S
N1387 C1385 1.384 1_545 S
H1388 C1394 0.930 . S
H1389 C1398 0.930 . S
H1390 C1403 0.929 . S
H1391 C1401 0.929 . S
H1392 C1396 0.929 . S
H1393 C1402 0.929 . S
C1394 H1388 0.930 . S
C1394 C1395 1.367 . S
C1394 C1402 1.378 . S
C1395 C1394 1.367 . S
C1395 C1403 1.433 . S
C1396 H1392 0.929 . S
C1396 C1398 1.378 . S
C1396 C1400 1.350 . S
C1397 C1400 1.463 . S
C1397 C1402 1.350 . S
C1397 N1405 1.427 . S
C1398 H1389 0.930 . S
C1398 C1396 1.378 . S
C1398 C1399 1.367 . S
C1399 C1398 1.367 . S
C1399 C1401 1.433 . S
C1400 C1396 1.350 . S
C1400 C1397 1.463 . S
C1400 N1404 1.427 . S
C1401 H1391 0.929 . S
C1401 C1399 1.433 . S
C1401 N1404 1.384 . S
C1402 H1393 0.929 . S
C1402 C1394 1.378 . S
C1402 C1397 1.350 . S
C1403 H1390 0.929 . S
C1403 C1395 1.433 . S
C1403 N1405 1.384 . S
N1404 C1400 1.427 . S
N1404 C1401 1.384 . S
N1405 C1397 1.427 . S
N1405 C1403 1.384 . S
H1406 C1412 0.930 . S
H1407 C1416 0.930 . S
H1408 C1421 0.929 . S
H1409 C1419 0.929 . S
H1410 C1414 0.929 . S
H1411 C1420 0.929 . S
C1412 H1406 0.930 . S
C1412 C1413 1.357 1_455 S
C1412 C1420 1.378 . S
C1413 C1412 1.357 1_655 S
C1413 C1421 1.443 . S
C1414 H1410 0.929 . S
C1414 C1416 1.378 . S
C1414 C1418 1.363 . S
C1415 C1418 1.461 1_455 S
C1415 C1420 1.359 . S
C1415 N1423 1.418 1_455 S
C1416 H1407 0.930 . S
C1416 C1414 1.378 . S
C1416 C1417 1.361 1_655 S
C1417 C1416 1.361 1_455 S
C1417 C1419 1.439 . S
C1418 C1414 1.363 . S
C1418 C1415 1.461 1_655 S
C1418 N1422 1.414 1_655 S
C1419 H1409 0.929 . S
C1419 C1417 1.439 . S
C1419 N1422 1.384 . S
C1420 H1411 0.929 . S
C1420 C1412 1.378 . S
C1420 C1415 1.359 . S
C1421 H1408 0.929 . S
C1421 C1413 1.443 . S
C1421 N1423 1.384 . S
N1422 C1418 1.414 1_455 S
N1422 C1419 1.384 . S
N1423 C1415 1.418 1_655 S
N1423 C1421 1.384 . S
C855 C303 0.911 . S
C859 C29 0.896 . S
C873 C347 1.222 . S
C877 C91 1.248 . S
C891 C135 0.859 . S
C895 C409 0.884 . S
C909 C197 0.431 . S
C913 C241 0.523 . S
C927 C453 1.024 . S
C931 C718 0.976 . S
C945 C771 1.393 . S
C949 C506 1.376 . S
C963 C824 1.186 . S
C967 C559 1.170 . S
C981 C612 0.666 . S
C985 C665 0.638 . S
C999 C22 2.328 . S
C1003 C675 2.383 1_565 S
C1017 C728 2.300 . S
C1021 C92 2.283 . S
C1035 C128 2.701 . S
C1039 C781 2.783 . S
C1053 C198 2.084 . S
C1057 C834 2.083 1_655 S
C1071 C234 2.424 . S
C1075 C463 2.477 1_545 S
C1089 C304 2.577 . S
C1093 C516 2.623 . S
C1107 C340 2.495 . S
C1111 C569 2.539 . S
C1125 C410 1.827 . S
C1129 C622 1.815 1_455 S
C1143 C251 1.443 . S
C1147 C446 1.472 . S
C1161 C287 2.141 . S
C1165 C499 2.123 1_554 S
C1179 C357 2.324 . S
C1183 C552 2.268 . S
C1197 C605 2.046 . S
C1201 C393 2.087 1_455 S
C1215 C39 1.762 1_565 S
C1219 C658 1.753 . S
C1233 C711 2.324 . S
C1237 C75 2.371 . S
C1251 C764 1.910 . S
C1255 C145 1.925 . S
C1269 C181 1.987 1_655 S
C1273 C817 1.967 . S
C1287 C462 1.552 . S
C1291 C38 1.580 . S
C1305 C515 2.100 . S
C1309 C82 2.049 . S
C1323 C144 2.485 1_455 S
C1327 C568 2.438 . S
C1341 C621 1.997 1_655 S
C1345 C188 1.970 1_655 S
C1359 C250 2.010 1_655 S
C1363 C674 1.971 . S
C1377 C727 2.534 . S
C1381 C294 2.471 . S
C1395 C780 1.974 . S
C1399 C356 2.004 . S
C1413 C833 1.597 . S
C1417 C400 1.574 . S
