# Generated by pormake.
# Topology smm, (6)-cn, num edge types: 1
# Building blocks:
#     Node 0, Type 0, BuildingBlock: KUMJIN_clean_sbu_1, # of connection points: 6
#     Node 1, Type 0, BuildingBlock: KUMJIN_clean_sbu_1, # of connection points: 6
#     Node 2, Type 0, BuildingBlock: KUMJIN_clean_sbu_1, # of connection points: 6
#     Node 3, Type 0, BuildingBlock: KUMJIN_clean_sbu_1, # of connection points: 6
#     Node 4, Type 0, BuildingBlock: KUMJIN_clean_sbu_1, # of connection points: 6
#     Node 5, Type 0, BuildingBlock: KUMJIN_clean_sbu_1, # of connection points: 6
#     Node 6, Type 0, BuildingBlock: KUMJIN_clean_sbu_1, # of connection points: 6
#     Node 7, Type 0, BuildingBlock: KUMJIN_clean_sbu_1, # of connection points: 6
#     Node 8, Type 0, BuildingBlock: KUMJIN_clean_sbu_1, # of connection points: 6
#     Edge 9, Type (0, 0), BuildingBlock: KIFKEQ_clean_linker_1, # of connection points: 2
#     Edge 10, Type (0, 0), BuildingBlock: KIFKEQ_clean_linker_1, # of connection points: 2
#     Edge 11, Type (0, 0), BuildingBlock: KIFKEQ_clean_linker_1, # of connection points: 2
#     Edge 12, Type (0, 0), BuildingBlock: KIFKEQ_clean_linker_1, # of connection points: 2
#     Edge 13, Type (0, 0), BuildingBlock: KIFKEQ_clean_linker_1, # of connection points: 2
#     Edge 14, Type (0, 0), BuildingBlock: KIFKEQ_clean_linker_1, # of connection points: 2
#     Edge 15, Type (0, 0), BuildingBlock: KIFKEQ_clean_linker_1, # of connection points: 2
#     Edge 16, Type (0, 0), BuildingBlock: KIFKEQ_clean_linker_1, # of connection points: 2
#     Edge 17, Type (0, 0), BuildingBlock: KIFKEQ_clean_linker_1, # of connection points: 2
#     Edge 18, Type (0, 0), BuildingBlock: KIFKEQ_clean_linker_1, # of connection points: 2
#     Edge 19, Type (0, 0), BuildingBlock: KIFKEQ_clean_linker_1, # of connection points: 2
#     Edge 20, Type (0, 0), BuildingBlock: KIFKEQ_clean_linker_1, # of connection points: 2
#     Edge 21, Type (0, 0), BuildingBlock: KIFKEQ_clean_linker_1, # of connection points: 2
#     Edge 22, Type (0, 0), BuildingBlock: KIFKEQ_clean_linker_1, # of connection points: 2
#     Edge 23, Type (0, 0), BuildingBlock: KIFKEQ_clean_linker_1, # of connection points: 2
#     Edge 24, Type (0, 0), BuildingBlock: KIFKEQ_clean_linker_1, # of connection points: 2
#     Edge 25, Type (0, 0), BuildingBlock: KIFKEQ_clean_linker_1, # of connection points: 2
#     Edge 26, Type (0, 0), BuildingBlock: KIFKEQ_clean_linker_1, # of connection points: 2
#     Edge 27, Type (0, 0), BuildingBlock: KIFKEQ_clean_linker_1, # of connection points: 2
#     Edge 28, Type (0, 0), BuildingBlock: KIFKEQ_clean_linker_1, # of connection points: 2
#     Edge 29, Type (0, 0), BuildingBlock: KIFKEQ_clean_linker_1, # of connection points: 2
#     Edge 30, Type (0, 0), BuildingBlock: KIFKEQ_clean_linker_1, # of connection points: 2
#     Edge 31, Type (0, 0), BuildingBlock: KIFKEQ_clean_linker_1, # of connection points: 2
#     Edge 32, Type (0, 0), BuildingBlock: KIFKEQ_clean_linker_1, # of connection points: 2
#     Edge 33, Type (0, 0), BuildingBlock: KIFKEQ_clean_linker_1, # of connection points: 2
#     Edge 34, Type (0, 0), BuildingBlock: KIFKEQ_clean_linker_1, # of connection points: 2
#     Edge 35, Type (0, 0), BuildingBlock: KIFKEQ_clean_linker_1, # of connection points: 2
# Relax obj value: 0.108
# Max RMSD: 0.222
# Mean RMSD: 0.175
data_MOF--net-smm--node1-KUMJIN_clean_sbu_1--edge1-KIFKEQ_clean_linker_1
_symmetry_space_group_name_H-M    P1
_symmetry_Int_Tables_number       1
_symmetry_cell_setting            triclinic
loop_
_symmetry_equiv_pos_as_xyz
'x, y, z'
_cell_length_a     59.740942
_cell_length_b     75.454977
_cell_length_c     15.213656
_cell_angle_alpha  96.495393
_cell_angle_beta   96.451238
_cell_angle_gamma 121.96131
loop_
_atom_site_label
_atom_site_type_symbol
_atom_site_fract_x
_atom_site_fract_y
_atom_site_fract_z
_atom_type_partial_charge
Eu0 Eu 0.04115 0.18196 0.10784 0.0
C1 C 0.16612 0.24638 0.27023 0.0
N2 N 0.14538 0.24717 0.29429 0.0
C3 C 0.16765 0.25922 0.45 0.0
C4 C 0.18836 0.25162 0.33651 0.0
C5 C 0.14588 0.25361 0.38221 0.0
C6 C 0.18898 0.25819 0.42711 0.0
C7 C 0.1851 0.23713 0.15421 0.0
C8 C 0.16468 0.23956 0.17945 0.0
C9 C 0.20738 0.24259 0.22001 0.0
C10 C 0.20908 0.24992 0.31073 0.0
Eu11 Eu 0.11073 0.23926 0.17579 0.0
N12 N 0.14266 0.2341 0.1169 0.0
C13 C 0.18224 0.22874 0.06389 0.0
C14 C 0.13961 0.2254 0.02901 0.0
C15 C 0.15929 0.22267 0.00135 0.0
H16 H 0.12982 0.25497 0.39979 0.0
H17 H 0.15655 0.21562 0.93176 0.0
H18 H 1.02198 0.15947 0.88703 0.0
H19 H 0.97889 0.18085 0.34554 0.0
H20 H 0.12177 0.21971 0.97963 0.0
H21 H 0.19736 0.22645 0.04215 0.0
H22 H 1.01906 0.18435 0.2987 0.0
H23 H 0.16804 0.26444 0.51974 0.0
H24 H 0.22327 0.24092 0.20153 0.0
H25 H 0.22632 0.25391 0.36072 0.0
H26 H 0.98282 0.14545 0.76247 0.0
H27 H 0.2058 0.26246 0.47984 0.0
H28 H 0.93935 0.17077 0.22957 0.0
N29 N 1.0047 0.168 0.98479 0.0
C30 C 0.98219 0.16648 0.0041 0.0
C31 C 0.98246 0.15151 0.8299 0.0
C32 C 0.95921 0.15827 0.93559 0.0
C33 C 1.00464 0.15958 0.90038 0.0
C34 C 0.95983 0.15124 0.84723 0.0
N35 N 1.00297 0.17746 0.15842 0.0
C36 C 1.00206 0.18023 0.24791 0.0
C37 C 0.95762 0.16855 0.11715 0.0
C38 C 0.98122 0.1712 0.09372 0.0
C39 C 0.95706 0.17252 0.20882 0.0
C40 C 0.9793 0.17818 0.2745 0.0
H41 H 0.94257 0.1448 0.7927 0.0
H42 H 0.91822 0.15034 0.90627 0.0
H43 H 0.91697 0.15962 0.06525 0.0
O44 O 1.02529 0.15415 0.17138 0.0
O45 O 1.03645 0.20946 0.1549 0.0
O46 O 0.07285 0.23802 0.11709 0.0
O47 O 0.03884 0.15346 0.04624 0.0
O48 O 0.06467 0.1937 0.25271 0.0
O49 O 0.08457 0.22998 0.27881 0.0
O50 O 0.13762 0.26917 0.13541 0.0
O51 O 0.11142 0.21047 0.2045 0.0
O52 O 0.08128 0.1906 0.07698 0.0
O53 O 0.12131 0.26923 0.25693 0.0
O54 O 0.09365 0.22986 0.02583 0.0
O55 O 0.05213 0.19697 0.98558 0.0
C56 C 0.04894 0.22889 0.13851 0.0
C57 C 1.00444 0.12094 0.07086 0.0
C58 C 0.98586 0.08297 0.04736 0.0
C59 C 0.96277 0.07901 0.99036 0.0
C60 C 0.98089 0.11671 0.01677 0.0
C61 C 0.96029 0.09584 0.97574 0.0
C62 C 1.00681 0.10408 0.0866 0.0
C63 C 0.07393 0.212 0.30707 0.0
C64 C 1.0275 0.14273 0.10653 0.0
C65 C 0.93598 0.1564 0.9581 0.0
C66 C 0.93523 0.1616 0.04867 0.0
C67 C 0.09961 0.19317 0.14172 0.0
C68 C 0.15903 0.30213 0.24044 0.0
C69 C 0.18549 0.33822 0.21557 0.0
C70 C 0.19819 0.34547 0.30732 0.0
C71 C 0.17187 0.30929 0.33187 0.0
C72 C 0.16598 0.31655 0.18298 0.0
C73 C 0.19149 0.33098 0.36501 0.0
C74 C 0.07226 0.21431 0.96636 0.0
C75 C 0.1361 0.28047 0.20314 0.0
H76 H 0.94656 0.0629 0.95749 0.0
H77 H 0.97837 0.1294 0.00564 0.0
H78 H 0.94236 0.0927 0.93268 0.0
H79 H 1.02483 0.10745 0.13032 0.0
H80 H 0.21346 0.36221 0.33394 0.0
H81 H 0.16641 0.29832 0.37762 0.0
H82 H 0.15544 0.31094 0.11282 0.0
H83 H 0.20134 0.3366 0.43563 0.0
Eu84 Eu 0.93567 0.86461 0.08725 0.0
C85 C 0.98897 0.81637 -0.00046 0.0
N86 N 0.96502 0.81208 0.95451 0.0
C87 C 0.97609 0.80604 0.8124 0.0
C88 C 1.00767 0.81607 0.95163 0.0
C89 C 0.95805 0.80634 0.86253 0.0
C90 C 1.00106 0.81104 0.85704 0.0
C91 C 1.01957 0.82557 0.14186 0.0
C92 C 0.9949 0.82102 0.09415 0.0
C93 C 0.03816 0.82529 0.09393 0.0
C94 C 1.03224 0.82057 -0.00074 0.0
Eu95 Eu 0.93585 0.81136 0.04774 0.0
N96 N 0.97694 0.8219 0.1394 0.0
C97 C 1.02486 0.83029 0.23652 0.0
C98 C 0.98142 0.82549 0.23145 0.0
C99 C 1.00562 0.83011 0.28143 0.0
H100 H 0.93829 0.80124 0.82743 0.0
H101 H 1.00925 0.83321 0.35453 0.0
H102 H 0.93617 0.87247 0.30853 0.0
H103 H 0.8752 0.87083 0.80973 0.0
H104 H 0.96619 0.82432 0.26653 0.0
H105 H 0.04359 0.83384 0.27555 0.0
H106 H 0.91311 0.86963 0.88349 0.0
H107 H 0.97051 0.80158 0.73939 0.0
H108 H 0.05721 0.82871 0.12951 0.0
H109 H 0.04681 0.82037 0.96342 0.0
H110 H 0.90693 0.87326 0.40908 0.0
H111 H 1.0149 0.81061 0.8179 0.0
H112 H 0.84267 0.87061 0.89765 0.0
N113 N 0.91007 0.86739 0.18857 0.0
C114 C 0.88881 0.86813 0.15274 0.0
C115 C 0.90125 0.87138 0.33687 0.0
C116 C 0.87183 0.86921 0.20741 0.0
C117 C 0.91743 0.87033 0.27966 0.0
C118 C 0.878 0.87038 0.30033 0.0
N119 N 0.90168 0.86788 0.01125 0.0
C120 C 0.89888 0.86916 0.92239 0.0
C121 C 0.8627 0.86933 0.02226 0.0
C122 C 0.88449 0.8684 0.06148 0.0
C123 C 0.85923 0.86998 0.93041 0.0
C124 C 0.87753 0.87006 0.8805 0.0
H125 H 0.86551 0.87128 0.34473 0.0
H126 H 0.83626 0.87017 0.2088 0.0
H127 H 0.8281 0.87008 0.04649 0.0
O128 O 0.95085 0.8974 0.07484 0.0
O129 O 0.89405 0.8348 0.07607 0.0
O130 O 0.8932 0.80518 0.00607 0.0
O131 O 0.9712 0.89096 0.1821 0.0
O132 O 0.93391 0.852 0.94113 0.0
O133 O 0.91888 0.81589 0.91628 0.0
O134 O 0.92453 0.78527 0.12195 0.0
O135 O 0.97697 0.84623 0.08267 0.0
O136 O 0.96533 0.86519 0.00716 0.0
O137 O 0.92267 0.77897 0.98014 0.0
O138 O 0.92023 0.81683 0.16894 0.0
O139 O 0.94889 0.85272 0.20027 0.0
C140 C 0.88104 0.815 0.0301 0.0
C141 C 0.97319 0.92344 0.2101 0.0
C142 C 0.98221 0.95922 0.23407 0.0
C143 C 0.98253 0.95929 0.32652 0.0
C144 C 0.97348 0.92363 0.30275 0.0
C145 C 0.97803 0.94149 0.36045 0.0
C146 C 0.97744 0.94124 0.1763 0.0
C147 C 0.92402 0.8333 0.88713 0.0
C148 C 0.96971 0.90546 0.14745 0.0
C149 C 0.8497 0.86957 0.16809 0.0
C150 C 0.84511 0.86959 0.07571 0.0
C151 C 0.98427 0.86289 0.04284 0.0
C152 C 0.89369 0.74903 0.04323 0.0
C153 C 0.86965 0.71095 0.05772 0.0
C154 C 0.84529 0.70897 0.02476 0.0
C155 C 0.86875 0.74605 0.01167 0.0
C156 C 0.89417 0.73126 0.06597 0.0
C157 C 0.84488 0.72622 0.00217 0.0
C158 C 0.93199 0.83506 0.22545 0.0
C159 C 0.9187 0.77077 0.05221 0.0
H160 H 0.98587 0.97296 0.3721 0.0
H161 H 0.97057 0.9102 0.33091 0.0
H162 H 0.97819 0.94157 0.43171 0.0
H163 H 0.97748 0.94122 0.10498 0.0
H164 H 0.82623 0.69384 0.01645 0.0
H165 H 0.86774 0.75917 0.99411 0.0
H166 H 0.91327 0.73335 0.09138 0.0
H167 H 0.82579 0.72419 0.97738 0.0
Eu168 Eu 0.21861 0.04518 0.022 0.0
C169 C 0.21289 0.96131 0.09364 0.0
N170 N 0.23049 0.9822 0.13453 0.0
C171 C 0.23258 0.97261 0.27851 0.0
C172 C 0.20409 0.94521 0.14477 0.0
C173 C 0.24087 0.98802 0.22509 0.0
C174 C 0.21406 0.95112 0.23827 0.0
C175 C 0.18476 0.93452 0.95671 0.0
C176 C 0.20345 0.95599 0.00025 0.0
C177 C 0.17604 0.91847 0.0076 0.0
C178 C 0.1857 0.9238 0.10122 0.0
Eu179 Eu 0.24477 1.00641 0.03705 0.0
N180 N 0.21168 0.97191 0.9528 0.0
C181 C 0.17523 0.9298 0.86329 0.0
C182 C 0.20312 0.96734 0.86138 0.0
C183 C 0.18453 0.94628 0.81545 0.0
H184 H 0.25614 1.00446 0.25587 0.0
H185 H 0.17763 0.94275 0.74298 0.0
H186 H 0.21145 0.04951 0.80494 0.0
H187 H 0.29048 0.10435 0.32382 0.0
H188 H 0.21091 0.97971 0.82298 0.0
H189 H 0.16083 0.9135 0.82739 0.0
H190 H 0.25317 0.06895 0.2405 0.0
H191 H 0.24077 0.97728 0.35045 0.0
H192 H 0.16173 0.90188 0.97519 0.0
H193 H 0.17874 0.91121 0.13943 0.0
H194 H 0.23217 0.07734 0.71518 0.0
H195 H 0.20779 0.93921 0.27984 0.0
H196 H 0.31232 0.1341 0.24363 0.0
N197 N 0.23782 0.06976 0.92864 0.0
C198 C 0.25715 0.09006 0.97319 0.0
C199 C 0.2396 0.08108 0.78741 0.0
C200 C 0.26899 0.10663 0.92497 0.0
C201 C 0.22836 0.06519 0.83785 0.0
C202 C 0.26008 0.10187 0.83106 0.0
N203 N 0.25519 0.07769 0.11219 0.0
C204 C 0.26319 0.08132 0.20348 0.0
C205 C 0.28721 0.11483 0.11288 0.0
C206 C 0.2662 0.0941 0.0669 0.0
C207 C 0.2962 0.11839 0.20601 0.0
C208 C 0.28406 0.1016 0.25146 0.0
H209 H 0.26876 0.11417 0.79172 0.0
H210 H 0.29901 0.14017 0.93534 0.0
H211 H 0.3149 0.14735 0.09925 0.0
O212 O 0.20401 0.0627 0.09505 0.0
O213 O 0.26182 0.05682 0.99555 0.0
O214 O 0.27679 0.04188 0.08796 0.0
O215 O 0.18905 0.05015 0.95144 0.0
O216 O 0.21614 0.03238 0.15189 0.0
O217 O 0.25217 0.02891 0.16486 0.0
O218 O 0.26726 0.99841 0.95355 0.0
O219 O 0.19924 0.98986 0.04166 0.0
O220 O 0.18213 1.01074 0.01593 0.0
O221 O 0.27802 1.00463 0.09875 0.0
O222 O 0.24366 1.01803 0.90576 0.0
O223 O 0.20727 1.02129 0.8931 0.0
C224 C 0.28203 0.05679 0.04136 0.0
C225 C 0.16476 0.06151 0.02883 0.0
C226 C 0.14285 0.08088 0.05646 0.0
C227 C 0.11776 0.06127 0.03293 0.0
C228 C 0.13946 0.04223 0.00567 0.0
C229 C 0.11612 0.04218 0.00744 0.0
C230 C 0.16643 0.08091 0.05355 0.0
C231 C 0.23274 0.02871 0.19807 0.0
C232 C 0.18941 0.06181 0.02228 0.0
C233 C 0.28967 0.12727 0.97135 0.0
C234 C 0.29875 0.13134 0.06479 0.0
C235 C 0.17881 0.99242 0.0297 0.0
C236 C 0.28442 0.97953 0.01808 0.0
C237 C 0.30306 0.95958 0.96044 0.0
C238 C 0.28958 0.94458 0.01368 0.0
C239 C 0.27186 0.96458 0.07251 0.0
C240 C 0.30041 0.97711 0.96264 0.0
C241 C 0.27416 0.94712 0.0694 0.0
C242 C 0.22495 1.01916 0.85693 0.0
C243 C 0.282 0.99814 0.02273 0.0
H244 H 0.0993 0.06076 0.0331 0.0
H245 H 0.13775 0.02726 0.98532 0.0
H246 H 0.09661 0.02725 0.98859 0.0
H247 H 0.18594 0.09591 0.07057 0.0
H248 H 0.29165 0.93116 0.01418 0.0
H249 H 0.26079 0.96655 0.11946 0.0
H250 H 0.31081 0.98881 0.92206 0.0
H251 H 0.26436 0.93575 0.11171 0.0
Eu252 Eu 0.81321 0.5171 0.14266 0.0
C253 C 0.69165 0.48119 0.02895 0.0
N254 N 0.71435 0.49675 0.00562 0.0
C255 C 0.69239 0.48348 0.84896 0.0
C256 C 0.66897 0.46548 0.96208 0.0
C257 C 0.71421 0.49883 0.91743 0.0
C258 C 0.66984 0.46651 0.8712 0.0
C259 C 0.66725 0.4655 0.14602 0.0
C260 C 0.69055 0.48131 0.12016 0.0
C261 C 0.64502 0.44957 0.07938 0.0
C262 C 0.64586 0.44958 0.98778 0.0
Eu263 Eu 0.74934 0.52207 0.12925 0.0
N264 N 0.71255 0.49661 0.18379 0.0
C265 C 0.66706 0.46609 0.23832 0.0
C266 C 0.71228 0.49763 0.27366 0.0
C267 C 0.68964 0.48228 0.30237 0.0
H268 H 0.73029 0.51267 0.8988 0.0
H269 H 0.68957 0.48299 0.37378 0.0
H270 H 0.82989 0.526 0.37332 0.0
H271 H 0.87472 0.56111 0.91118 0.0
H272 H 0.72944 0.51043 0.32294 0.0
H273 H 0.64955 0.45418 0.26081 0.0
H274 H 0.83599 0.53057 0.95495 0.0
H275 H 0.69271 0.48504 0.77916 0.0
H276 H 0.62698 0.43724 0.09799 0.0
H277 H 0.62835 0.43736 0.9372 0.0
H278 H 0.86268 0.55551 0.49812 0.0
H279 H 0.65281 0.45478 0.81796 0.0
H280 H 0.90972 0.59246 0.02865 0.0
N281 N 0.84419 0.54378 0.27042 0.0
C282 C 0.86579 0.56119 0.25079 0.0
C283 C 0.86337 0.55759 0.42901 0.0
C284 C 0.88605 0.57815 0.3205 0.0
C285 C 0.84403 0.54111 0.35779 0.0
C286 C 0.88415 0.57642 0.41037 0.0
N287 N 0.84905 0.54502 0.09441 0.0
C288 C 0.85132 0.54428 0.00609 0.0
C289 C 0.89087 0.57933 0.13907 0.0
C290 C 0.86857 0.56166 0.16091 0.0
C291 C 0.89288 0.57913 0.04808 0.0
C292 C 0.87314 0.56147 0.98144 0.0
H293 H 0.89935 0.58907 0.46574 0.0
H294 H 0.92366 0.60916 0.35141 0.0
H295 H 0.92767 0.61032 0.19282 0.0
O296 O 0.82779 0.49964 0.06873 0.0
O297 O 0.81736 0.54778 0.10607 0.0
O298 O 0.79096 0.55139 0.19266 0.0
O299 O 0.83794 0.50769 0.21308 0.0
O300 O 0.7866 0.50512 0.00357 0.0
O301 O 0.76976 0.52659 0.00801 0.0
O302 O 0.73146 0.53703 0.20067 0.0
O303 O 0.74058 0.48928 0.14728 0.0
O304 O 0.77278 0.48494 0.09573 0.0
O305 O 0.73731 0.54073 0.06287 0.0
O306 O 0.77602 0.53193 0.26645 0.0
O307 O 0.79014 0.50888 0.25748 0.0
C308 C 0.81036 0.5599 0.14763 0.0
C309 C 0.83079 0.4752 0.14642 0.0
C310 C 0.84043 0.44737 0.14359 0.0
C311 C 0.81544 0.43403 0.16708 0.0
C312 C 0.806 0.46144 0.1697 0.0
C313 C 0.79843 0.44102 0.17995 0.0
C314 C 0.84822 0.46821 0.13407 0.0
C315 C 0.77682 0.51485 0.96369 0.0
C316 C 0.83867 0.49714 0.14124 0.0
C317 C 0.90806 0.59594 0.29868 0.0
C318 C 0.91042 0.59655 0.20833 0.0
C319 C 0.74878 0.47711 0.11606 0.0
C320 C 0.71632 0.55748 0.13022 0.0
C321 C 0.70235 0.57903 0.20776 0.0
C322 C 0.69413 0.58218 0.12408 0.0
C323 C 0.70777 0.56073 0.04722 0.0
C324 C 0.71318 0.56642 0.21065 0.0
C325 C 0.69664 0.57293 0.04433 0.0
C326 C 0.78193 0.51958 0.30293 0.0
C327 C 0.72833 0.54474 0.1315 0.0
H328 H 0.80915 0.41814 0.17664 0.0
H329 H 0.79266 0.46664 0.18177 0.0
H330 H 0.77936 0.43061 0.19867 0.0
H331 H 0.86751 0.4788 0.1169 0.0
H332 H 0.68563 0.59176 0.12052 0.0
H333 H 0.70962 0.55378 0.98433 0.0
H334 H 0.71972 0.56407 0.2752 0.0
H335 H 0.69007 0.57532 0.98005 0.0
Eu336 Eu 0.53897 0.22024 0.07801 0.0
C337 C 0.59037 0.16889 0.99532 0.0
N338 N 0.56542 0.16268 0.95178 0.0
C339 C 0.57388 0.15245 0.8109 0.0
C340 C 0.60848 0.16772 0.94681 0.0
C341 C 0.55676 0.15417 0.86153 0.0
C342 C 0.59993 0.1594 0.85357 0.0
C343 C 0.62412 0.18389 0.13433 0.0
C344 C 0.59803 0.17683 0.08853 0.0
C345 C 0.6423 0.18304 0.08578 0.0
C346 C 0.63447 0.1749 0.99247 0.0
Eu347 Eu 0.53787 0.16561 0.04274 0.0
N348 N 0.5802 0.17789 0.13405 0.0
C349 C 0.63119 0.19155 0.22783 0.0
C350 C 0.58647 0.18405 0.22588 0.0
C351 C 0.61217 0.19137 0.27387 0.0
H352 H 0.53641 0.14823 0.82917 0.0
H353 H 0.61715 0.19657 0.34662 0.0
H354 H 0.54704 0.23634 0.30125 0.0
H355 H 0.46156 0.2045 0.79536 0.0
H356 H 0.57169 0.18281 0.26312 0.0
H357 H 0.65106 0.1972 0.26532 0.0
H358 H 0.50298 0.20799 0.86645 0.0
H359 H 0.56693 0.14567 0.73919 0.0
H360 H 0.66246 0.18854 0.11991 0.0
H361 H 0.6487 0.17425 0.95618 0.0
H362 H 0.52262 0.24362 0.40487 0.0
H363 H 0.61321 0.15812 0.81409 0.0
H364 H 0.43485 0.21143 0.88983 0.0
N365 N 0.51757 0.22736 0.18363 0.0
C366 C 0.49462 0.22596 0.14789 0.0
C367 C 0.5144 0.23846 0.33291 0.0
C368 C 0.48041 0.23052 0.20444 0.0
C369 C 0.52793 0.23394 0.27429 0.0
C370 C 0.49047 0.23665 0.29793 0.0
N371 N 0.49918 0.21548 0.00089 0.0
C372 C 0.49128 0.21043 0.90904 0.0
C373 C 0.46171 0.21868 0.01587 0.0
C374 C 0.48538 0.22014 0.05424 0.0
C375 C 0.45296 0.21275 0.9218 0.0
C376 C 0.4679 0.20872 0.86822 0.0
H377 H 0.48013 0.24031 0.34354 0.0
H378 H 0.44563 0.23246 0.20863 0.0
H379 H 0.42926 0.22206 0.04392 0.0
O380 O 0.56339 0.24593 0.00716 0.0
O381 O 0.49596 0.18908 0.06502 0.0
O382 O 0.49564 0.15826 0.02101 0.0
O383 O 0.55539 0.25388 0.13402 0.0
O384 O 0.54077 0.20739 0.93863 0.0
O385 O 0.52059 0.17052 0.91343 0.0
O386 O 0.53211 0.14097 0.11848 0.0
O387 O 0.57185 0.19603 0.01177 0.0
O388 O 0.57662 0.22051 0.12632 0.0
O389 O 0.51706 0.13235 0.97183 0.0
O390 O 0.52743 0.17534 0.17061 0.0
O391 O 0.55361 0.21197 0.20075 0.0
C392 C 0.48326 0.16789 0.04071 0.0
C393 C 0.59721 0.2797 0.10232 0.0
C394 C 0.63493 0.3172 0.11508 0.0
C395 C 0.65137 0.31308 0.17108 0.0
C396 C 0.61456 0.27655 0.15815 0.0
C397 C 0.64132 0.29304 0.19201 0.0
C398 C 0.6074 0.30029 0.08125 0.0
C399 C 0.52968 0.18859 0.88457 0.0
C400 C 0.56849 0.26148 0.07069 0.0
C401 C 0.4568 0.22901 0.16616 0.0
C402 C 0.4475 0.22312 0.07229 0.0
C403 C 0.58706 0.21443 0.06819 0.0
C404 C 0.5099 0.10345 0.04739 0.0
C405 C 0.50303 0.07557 0.1298 0.0
C406 C 0.49335 0.06101 0.04732 0.0
C407 C 0.49987 0.08855 0.96566 0.0
C408 C 0.51117 0.0968 0.12976 0.0
C409 C 0.49162 0.06746 0.96583 0.0
C410 C 0.53878 0.19382 0.22622 0.0
C411 C 0.52003 0.12596 0.04579 0.0
H412 H 0.67223 0.32555 0.2 0.0
H413 H 0.60725 0.2613 0.17699 0.0
H414 H 0.65438 0.29032 0.23546 0.0
H415 H 0.5942 0.30302 0.03856 0.0
H416 H 0.487 0.0446 0.0461 0.0
H417 H 0.49874 0.09324 0.90143 0.0
H418 H 0.51897 0.10813 0.19345 0.0
H419 H 0.48407 0.05611 0.90251 0.0
Eu420 Eu 0.90615 0.31529 0.15028 0.0
C421 C 0.9876 0.40735 0.15823 0.0
N422 N 0.98526 0.38934 0.11602 0.0
C423 C 0.99089 0.40236 0.97813 0.0
C424 C 0.98998 0.42293 0.10967 0.0
C425 C 0.98894 0.38754 0.02931 0.0
C426 C 0.99085 0.41992 0.01796 0.0
C427 C 0.99108 0.42921 0.2963 0.0
C428 C 0.98847 0.41065 0.25107 0.0
C429 C 0.99272 0.44441 0.24735 0.0
C430 C 0.99215 0.44127 0.1544 0.0
Eu431 Eu 0.98238 0.36573 0.21083 0.0
N432 N 0.98581 0.39532 0.29662 0.0
C433 C 0.99161 0.43182 0.38935 0.0
C434 C 0.98691 0.39793 0.38757 0.0
C435 C 0.98963 0.41616 0.43519 0.0
H436 H 0.99141 0.37517 -0.00017 0.0
H437 H 0.99023 0.41813 0.50717 0.0
H438 H 0.89497 0.30538 0.35774 0.0
H439 H 0.88928 0.26003 0.84861 0.0
H440 H 0.98568 0.38593 0.42307 0.0
H441 H 0.99356 0.44586 0.42641 0.0
H442 H 0.89766 0.29348 0.93567 0.0
H443 H 0.99307 0.40049 0.90862 0.0
H444 H 0.99454 0.4587 0.28085 0.0
H445 H 0.9938 0.45331 0.11789 0.0
H446 H 0.89063 0.2792 0.44849 0.0
H447 H 0.99267 0.43152 0.97837 0.0
H448 H 0.88398 0.23147 0.92739 0.0
N449 N 0.90046 0.29055 0.24247 0.0
C450 C 0.89652 0.27198 0.19961 0.0
C451 C 0.893 0.27721 0.37927 0.0
C452 C 0.89237 0.25583 0.24717 0.0
C453 C 0.89655 0.29253 0.32872 0.0
C454 C 0.89153 0.25898 0.33889 0.0
N455 N 0.89753 0.28389 0.06162 0.0
C456 C 0.8955 0.28109 0.97029 0.0
C457 C 0.88943 0.24901 0.0595 0.0
C458 C 0.8944 0.26834 0.10637 0.0
C459 C 0.88767 0.24608 0.96578 0.0
C460 C 0.89068 0.26218 0.92102 0.0
H461 H 0.88832 0.24695 0.37775 0.0
H462 H 0.88498 0.22422 0.23666 0.0
H463 H 0.88291 0.21841 0.07276 0.0
O464 O 0.86612 0.29781 0.06249 0.0
O465 O 0.93869 0.30818 0.13092 0.0
O466 O 0.97758 0.33462 0.2317 0.0
O467 O 0.87151 0.31229 0.19983 0.0
O468 O 0.92179 0.33199 0.03605 0.0
O469 O 0.96722 0.34493 0.06861 0.0
O470 O 1.02057 0.38429 0.3111 0.0
O471 O 0.94767 0.36966 0.23035 0.0
O472 O 0.91471 0.34594 0.11022 0.0
O473 O 1.02042 0.37712 0.16747 0.0
O474 O 0.96896 0.3473 0.32128 0.0
O475 O 0.924 0.33538 0.29427 0.0
C476 C 0.96274 0.31544 0.17956 0.0
C477 C 0.82893 0.28118 0.1332 0.0
C478 C 0.78016 0.26117 0.12308 0.0
C479 C 0.78106 0.24401 0.14638 0.0
C480 C 0.82909 0.26373 0.15543 0.0
C481 C 0.80534 0.24533 0.16252 0.0
C482 C 0.80437 0.27998 0.11766 0.0
C483 C 0.94456 0.33753 0.01076 0.0
C484 C 0.85426 0.30037 0.12479 0.0
C485 C 0.88796 0.23671 0.201 0.0
C486 C 0.88657 0.23333 0.10751 0.0
C487 C 0.92744 0.36441 0.16604 0.0
C488 C 0.06425 0.39833 0.26854 0.0
C489 C 0.10783 0.42204 0.37077 0.0
C490 C 0.12057 0.42053 0.30086 0.0
C491 C 0.07742 0.39714 0.19939 0.0
C492 C 0.07959 0.411 0.35459 0.0
C493 C 0.10542 0.4082 0.21563 0.0
C494 C 0.94643 0.34101 0.34932 0.0
C495 C 1.03467 0.38666 0.24905 0.0
H496 H 0.76285 0.22949 0.15221 0.0
H497 H 0.84751 0.26423 0.16683 0.0
H498 H 0.80574 0.23197 0.18001 0.0
H499 H 0.80402 0.29332 0.09948 0.0
H500 H 0.14234 0.429 0.31235 0.0
H501 H 0.0661 0.38762 0.13255 0.0
H502 H 0.06975 0.41218 0.40856 0.0
H503 H 0.11541 0.40718 0.16202 0.0
Eu504 Eu 0.41766 0.87098 0.73192 0.0
C505 C 0.54413 0.94131 0.87592 0.0
N506 N 0.52318 0.94094 0.90466 0.0
C507 C 0.54749 0.95314 0.05829 0.0
C508 C 0.56732 0.94695 0.9382 0.0
C509 C 0.52499 0.94758 0.99409 0.0
C510 C 0.56859 0.95255 0.0304 0.0
C511 C 0.56467 0.93779 0.75156 0.0
C512 C 0.54292 0.93687 0.78365 0.0
C513 C 0.58739 0.94272 0.81354 0.0
C514 C 0.58872 0.94729 0.90657 0.0
Eu515 Eu 0.48563 0.92995 0.78999 0.0
N516 N 0.52049 0.93175 0.72507 0.0
C517 C 0.563 0.93392 0.65803 0.0
C518 C 0.51946 0.92936 0.63422 0.0
C519 C 0.54044 0.92998 0.59915 0.0
H520 H 0.50931 0.9489 0.01645 0.0
H521 H 0.5393 0.92761 0.52687 0.0
H522 H 0.40384 0.86178 0.50488 0.0
H523 H 0.34816 0.85688 0.96151 0.0
H524 H 0.50262 0.92715 0.58881 0.0
H525 H 0.57926 0.93443 0.63071 0.0
H526 H 0.38878 0.86163 0.91568 0.0
H527 H 0.54863 0.95807 0.12917 0.0
H528 H 0.60423 0.94334 0.79019 0.0
H529 H 0.60661 0.95144 0.95351 0.0
H530 H 0.36957 0.85739 0.3824 0.0
H531 H 0.58608 0.95699 0.08032 0.0
H532 H 0.31302 0.85503 0.85069 0.0
N533 N 0.38478 0.86505 0.60961 0.0
C534 C 0.36193 0.8627 0.63008 0.0
C535 C 0.36735 0.85921 0.45188 0.0
C536 C 0.34123 0.85934 0.56187 0.0
C537 C 0.38712 0.86226 0.52175 0.0
C538 C 0.34446 0.85807 0.47213 0.0
N539 N 0.37846 0.86482 0.78225 0.0
C540 C 0.37442 0.86201 0.86755 0.0
C541 C 0.33466 0.85922 0.74172 0.0
C542 C 0.35873 0.86266 0.719 0.0
C543 C 0.33124 0.85773 0.83064 0.0
C544 C 0.35105 0.85882 0.89345 0.0
H545 H 0.32901 0.85547 0.41779 0.0
H546 H 0.30166 0.85424 0.53352 0.0
H547 H 0.2959 0.85413 0.69101 0.0
O548 O 0.3989 0.84085 0.77493 0.0
O549 O 0.41417 0.89888 0.71304 0.0
O550 O 0.44758 0.92497 0.82911 0.0
O551 O 0.41047 0.84276 0.64403 0.0
O552 O 0.43176 0.88425 0.88328 0.0
O553 O 0.47014 0.91911 0.9169 0.0
O554 O 0.48741 0.95293 0.70885 0.0
O555 O 0.49065 0.90192 0.75424 0.0
O556 O 0.45648 0.87838 0.81463 0.0
O557 O 0.50838 0.96381 0.85049 0.0
O558 O 0.45858 0.91657 0.65174 0.0
O559 O 0.44472 0.88158 0.62992 0.0
C560 C 0.42414 0.91624 0.77471 0.0
C561 C 0.37471 0.80977 0.66467 0.0
C562 C 0.35365 0.77192 0.65312 0.0
C563 C 0.32832 0.76857 0.62362 0.0
C564 C 0.3496 0.80665 0.63429 0.0
C565 C 0.3264 0.78595 0.61321 0.0
C566 C 0.37666 0.79253 0.67307 0.0
C567 C 0.45083 0.90197 0.94029 0.0
C568 C 0.39897 0.83061 0.70051 0.0
C569 C 0.31771 0.85674 0.58492 0.0
C570 C 0.31444 0.85668 0.67462 0.0
C571 C 0.47837 0.88403 0.78394 0.0
C572 C 0.51174 0.99122 0.77285 0.0
C573 C 0.51427 1.01806 0.69024 0.0
C574 C 0.5284 0.03356 0.77088 0.0
C575 C 0.52572 1.00704 0.85217 0.0
C576 C 0.50601 0.99678 0.69181 0.0
C577 C 0.53395 0.02803 0.851 0.0
C578 C 0.45164 0.89886 0.59851 0.0
C579 C 0.50208 0.96892 0.77721 0.0
H580 H 0.3102 0.75265 0.60929 0.0
H581 H 0.34788 0.82007 0.62924 0.0
H582 H 0.3069 0.78343 0.59074 0.0
H583 H 0.39613 0.79533 0.70029 0.0
H584 H 0.53559 0.05013 0.77207 0.0
H585 H 0.53012 1.00317 0.91561 0.0
H586 H 0.49477 0.98456 0.63077 0.0
H587 H 0.54473 0.04011 0.91253 0.0
Eu588 Eu 0.3191 0.5794 0.86082 0.0
C589 C 0.39191 0.54381 0.79016 0.0
N590 N 0.36883 0.53959 0.73881 0.0
C591 C 0.38587 0.53877 0.6041 0.0
C592 C 0.41321 0.54614 0.74987 0.0
C593 C 0.36528 0.53655 0.64679 0.0
C594 C 0.41002 0.54374 0.65584 0.0
C595 C 0.41771 0.54943 0.93776 0.0
C596 C 0.39409 0.54532 0.88325 0.0
C597 C 0.43909 0.55214 0.89782 0.0
C598 C 0.43683 0.55046 0.80421 0.0
Eu599 Eu 0.33505 0.535 0.81823 0.0
N600 N 0.37324 0.54286 0.92062 0.0
C601 C 0.41911 0.55059 0.0309 0.0
C602 C 0.37392 0.54279 0.01053 0.0
C603 C 0.39701 0.54707 0.06726 0.0
H604 H 0.34631 0.5317 0.60543 0.0
H605 H 0.39757 0.54731 0.13878 0.0
H606 H 0.30268 0.57493 0.06163 0.0
H607 H 0.26529 0.58222 0.55029 0.0
H608 H 0.35659 0.53895 0.03893 0.0
H609 H 0.43693 0.55377 0.075 0.0
H610 H 0.30473 0.58852 0.65175 0.0
H611 H 0.38295 0.53634 0.53117 0.0
H612 H 0.4574 0.55535 0.93869 0.0
H613 H 0.45341 0.55235 0.77435 0.0
H614 H 0.26328 0.56541 0.13057 0.0
H615 H 0.42587 0.5453 0.62241 0.0
H616 H 0.22243 0.56913 0.60218 0.0
N617 N 0.28234 0.57045 0.9297 0.0
C618 C 0.26033 0.56784 0.87841 0.0
C619 C 0.26195 0.56561 0.05918 0.0
C620 C 0.23741 0.56268 0.91476 0.0
C621 C 0.28405 0.57052 0.01977 0.0
C622 C 0.23832 0.56131 0.00605 0.0
N623 N 0.28398 0.57689 0.75851 0.0
C624 C 0.28599 0.58182 0.6748 0.0
C625 C 0.23811 0.56768 0.73463 0.0
C626 C 0.26092 0.57061 0.78973 0.0
C627 C 0.23956 0.57133 0.64675 0.0
C628 C 0.26371 0.57868 0.61717 0.0
H629 H 0.22118 0.5575 0.03665 0.0
H630 H 0.1966 0.5551 0.88581 0.0
H631 H 0.19707 0.55921 0.72781 0.0
O632 O 0.32436 0.61035 0.87537 0.0
O633 O 0.28465 0.54492 0.85207 0.0
O634 O 0.29678 0.52996 0.74613 0.0
O635 O 0.34398 0.60356 0.98312 0.0
O636 O 0.32925 0.57624 0.72097 0.0
O637 O 0.32243 0.54255 0.68748 0.0
O638 O 0.31189 0.50504 0.86411 0.0
O639 O 0.37069 0.56948 0.87481 0.0
O640 O 0.35713 0.58914 0.8092 0.0
O641 O 0.32916 0.50601 0.74328 0.0
O642 O 0.31825 0.53645 0.94381 0.0
O643 O 0.33914 0.57221 0.97228 0.0
C644 C 0.27822 0.52934 0.78565 0.0
C645 C 0.36765 0.63851 0.95725 0.0
C646 C 0.39028 0.67174 0.90449 0.0
C647 C 0.4108 0.68103 0.98263 0.0
C648 C 0.38797 0.64785 0.03552 0.0
C649 C 0.41001 0.66883 0.04639 0.0
C650 C 0.37051 0.6499 0.88874 0.0
C651 C 0.32569 0.55996 0.66372 0.0
C652 C 0.34215 0.61809 0.95092 0.0
C653 C 0.21452 0.5593 0.8594 0.0
C654 C 0.2148 0.56165 0.76942 0.0
C655 C 0.37622 0.58656 0.84254 0.0
C656 C 0.3035 0.47168 0.78432 0.0
C657 C 0.27169 0.43717 0.81616 0.0
C658 C 0.27976 0.42756 0.75376 0.0
C659 C 0.31145 0.46195 0.72223 0.0
C660 C 0.28363 0.45925 0.83096 0.0
C661 C 0.29957 0.43994 0.70714 0.0
C662 C 0.3269 0.55428 -0.00016 0.0
C663 C 0.31479 0.49453 0.797 0.0
H664 H 0.42649 0.69786 0.99737 0.0
H665 H 0.38644 0.63917 0.08903 0.0
H666 H 0.42556 0.67608 0.10716 0.0
H667 H 0.35565 0.64227 0.82607 0.0
H668 H 0.27118 0.41055 0.74243 0.0
H669 H 0.32674 0.47131 0.68517 0.0
H670 H 0.27713 0.4667 0.87785 0.0
H671 H 0.3058 0.43248 0.65949 0.0
Eu672 Eu 0.62011 0.75038 0.87412 0.0
C673 C 0.56911 0.65467 0.87735 0.0
N674 N 0.59231 0.67085 0.93332 0.0
C675 C 0.5782 0.65447 0.05968 0.0
C676 C 0.54918 0.6378 0.91128 0.0
C677 C 0.59729 0.67091 0.02304 0.0
C678 C 0.55398 0.63787 0.00364 0.0
C679 C 0.54108 0.63882 0.72682 0.0
C680 C 0.56504 0.65539 0.78638 0.0
C681 C 0.52099 0.62212 0.76055 0.0
C682 C 0.52504 0.62161 0.85248 0.0
Eu683 Eu 0.62317 0.6983 0.8676 0.0
N684 N 0.58471 0.67195 0.7558 0.0
C685 C 0.53831 0.63921 0.63467 0.0
C686 C 0.58318 0.67111 0.6651 0.0
C687 C 0.55971 0.65519 0.60348 0.0
H688 H 0.61611 0.6836 0.06601 0.0
H689 H 0.55842 0.65494 0.53177 0.0
H690 H 0.61979 0.75743 0.65944 0.0
H691 H 0.69083 0.80346 0.18758 0.0
H692 H 0.6003 0.68203 0.63914 0.0
H693 H 0.52025 0.62677 0.58669 0.0
H694 H 0.64999 0.77112 0.09618 0.0
H695 H 0.58218 0.65462 0.13103 0.0
H696 H 0.50239 0.60936 0.71583 0.0
H697 H 0.50939 0.60858 0.87738 0.0
H698 H 0.64949 0.78366 0.57536 0.0
H699 H 0.53915 0.62519 0.03229 0.0
H700 H 0.72245 0.8316 0.11371 0.0
N701 N 0.64677 0.77399 0.78628 0.0
C702 C 0.66943 0.79244 0.83399 0.0
C703 C 0.65555 0.78618 0.6478 0.0
C704 C 0.68647 0.80831 0.78914 0.0
C705 C 0.63914 0.771 0.69511 0.0
C706 C 0.67944 0.80485 0.6949 0.0
N707 N 0.65921 0.77978 0.97031 0.0
C708 C 0.66401 0.78269 0.06224 0.0
C709 C 0.69909 0.81449 0.97855 0.0
C710 C 0.6757 0.79548 0.92821 0.0
C711 C 0.7047 0.81717 0.0727 0.0
C712 C 0.68699 0.80128 0.11467 0.0
H713 H 0.69202 0.81669 0.6581 0.0
H714 H 0.72311 0.83955 0.80612 0.0
H715 H 0.73411 0.84497 0.97147 0.0
O716 O 0.59983 0.76268 0.9484 0.0
O717 O 0.66199 0.75458 0.87066 0.0
O718 O 0.66121 0.72897 0.94102 0.0
O719 O 0.60575 0.7687 0.81613 0.0
O720 O 0.61473 0.73703 0.00354 0.0
O721 O 0.63743 0.7197 0.00676 0.0
O722 O 0.64166 0.68558 0.78537 0.0
O723 O 0.5871 0.69706 0.90647 0.0
O724 O 0.58034 0.71777 0.8222 0.0
O725 O 0.64122 0.68265 0.92668 0.0
O726 O 0.63277 0.71607 0.75135 0.0
O727 O 0.6032 0.72662 0.7421 0.0
C728 C 0.67461 0.74659 0.91098 0.0
C729 C 0.56906 0.76828 0.86073 0.0
C730 C 0.54082 0.78282 0.83845 0.0
C731 C 0.51819 0.76178 0.80879 0.0
C732 C 0.54604 0.74759 0.83056 0.0
C733 C 0.52083 0.74441 0.80461 0.0
C734 C 0.56648 0.786 0.86357 0.0
C735 C 0.62613 0.72858 0.04666 0.0
C736 C 0.59585 0.77138 0.8841 0.0
C737 C 0.70981 0.82717 0.83947 0.0
C738 C 0.71607 0.83026 0.93373 0.0
C739 C 0.57106 0.70145 0.86301 0.0
C740 C 0.66231 0.66771 0.84702 0.0
C741 C 0.67906 0.64959 0.76014 0.0
C742 C 0.69151 0.64843 0.84125 0.0
C743 C 0.67467 0.66612 0.92723 0.0
C744 C 0.66428 0.65917 0.76312 0.0
C745 C 0.68916 0.65653 0.92416 0.0
C746 C 0.61793 0.72119 0.7044 0.0
C747 C 0.64802 0.67868 0.85241 0.0
H748 H 0.49832 0.75875 0.78789 0.0
H749 H 0.54761 0.73387 0.82635 0.0
H750 H 0.50318 0.72836 0.78094 0.0
H751 H 0.58421 0.80207 0.88603 0.0
H752 H 0.70291 0.64106 0.84032 0.0
H753 H 0.67342 0.67253 0.99258 0.0
H754 H 0.65478 0.66024 0.70069 0.0
H755 H 0.69873 0.65547 0.98632 0.0
H756 H 0.19086 0.37681 0.23945 0.0
H757 H 0.19504 0.33224 0.04833 0.0
H758 H 0.20409 0.40148 0.13514 0.0
H759 H 0.20839 0.35667 0.94534 0.0
H760 H 0.22431 0.39859 0.75564 0.0
H761 H 0.19612 0.37467 0.84794 0.0
H762 H 0.24676 0.42311 0.08868 0.0
H763 H 0.27465 0.44694 0.99665 0.0
C764 C 0.19464 0.37236 0.17526 0.0
C765 C 0.19243 0.35289 0.15234 0.0
C766 C 0.20196 0.38632 0.11548 0.0
C767 C 0.20725 0.38098 0.03224 0.0
C768 C 0.20395 0.36109 0.00816 0.0
C769 C 0.19658 0.34718 0.06756 0.0
C770 C 0.22907 0.40416 0.82819 0.0
C771 C 0.25195 0.42432 0.86937 0.0
C772 C 0.21294 0.39056 0.88086 0.0
C773 C 0.21956 0.39691 0.97548 0.0
C774 C 0.24104 0.4178 0.01589 0.0
C775 C 0.25712 0.43142 0.96318 0.0
H776 H 0.85216 0.82828 0.94169 0.0
H777 H 0.84114 0.77604 0.06086 0.0
H778 H 0.80453 0.81343 0.9148 0.0
H779 H 0.7931 0.76034 0.03428 0.0
H780 H 0.70407 0.73183 0.98319 0.0
H781 H 0.75124 0.74679 0.00769 0.0
H782 H 0.7627 0.8012 0.89963 0.0
H783 H 0.71454 0.78532 0.87344 0.0
C784 C 0.83935 0.81353 0.96292 0.0
C785 C 0.85081 0.80365 0.00453 0.0
C786 C 0.81137 0.80465 0.94699 0.0
C787 C 0.79319 0.78523 0.97214 0.0
C788 C 0.80504 0.77514 0.01252 0.0
C789 C 0.83315 0.78411 0.02788 0.0
C790 C 0.71657 0.74706 0.96444 0.0
C791 C 0.70489 0.75723 0.92618 0.0
C792 C 0.74446 0.75596 0.97886 0.0
C793 C 0.76258 0.77572 0.95634 0.0
C794 C 0.75066 0.78601 0.91846 0.0
C795 C 0.72248 0.7769 0.9033 0.0
H796 H 0.28952 0.92455 0.83941 0.0
H797 H 0.35655 0.98816 0.96568 0.0
H798 H 0.32006 0.91629 0.78264 0.0
H799 H 0.38744 0.98027 0.90603 0.0
H800 H 0.4326 0.94589 0.91757 0.0
H801 H 0.40426 0.95914 0.94504 0.0
H802 H 0.35065 0.9209 0.68826 0.0
H803 H 0.37878 0.90727 0.66188 0.0
C804 C 0.3108 0.93698 0.85246 0.0
C805 C 0.32074 0.9569 0.90737 0.0
C806 C 0.32836 0.93231 0.81958 0.0
C807 C 0.35633 0.94751 0.84064 0.0
C808 C 0.36606 0.96805 0.88995 0.0
C809 C 0.34839 0.97271 0.92303 0.0
C810 C 0.41489 0.94043 0.86655 0.0
C811 C 0.40774 0.92527 0.78809 0.0
C812 C 0.39873 0.94821 0.88194 0.0
C813 C 0.3751 0.94112 0.81892 0.0
C814 C 0.36847 0.92648 0.73894 0.0
C815 C 0.38457 0.91862 0.72381 0.0
H816 H 0.45481 0.12453 0.02734 0.0
H817 H 0.44265 0.17622 0.05343 0.0
H818 H 0.4079 0.09942 0.02746 0.0
H819 H 0.39471 0.15052 0.05334 0.0
H820 H 0.30318 0.09217 0.95884 0.0
H821 H 0.35024 0.11982 0.96313 0.0
H822 H 0.37552 0.08722 0.12138 0.0
H823 H 0.32858 0.06023 0.12038 0.0
C824 C 0.44223 0.13076 0.0328 0.0
C825 C 0.45326 0.15286 0.03977 0.0
C826 C 0.41492 0.11608 0.03373 0.0
C827 C 0.39687 0.12255 0.04109 0.0
C828 C 0.40762 0.14463 0.04707 0.0
C829 C 0.43534 0.15953 0.04733 0.0
C830 C 0.31862 0.0911 0.9967 0.0
C831 C 0.31136 0.0739 0.04127 0.0
C832 C 0.34595 0.10706 -0.00132 0.0
C833 C 0.36734 0.10616 0.04275 0.0
C834 C 0.36005 0.08875 0.08601 0.0
C835 C 0.3328 0.07312 0.08578 0.0
H836 H 0.94475 0.27815 0.05817 0.0
H837 H 1.00786 0.32238 0.28729 0.0
H838 H 0.96432 0.25675 0.04943 0.0
H839 H 1.02771 0.30135 0.27762 0.0
H840 H 0.07301 0.27224 0.17503 0.0
H841 H 0.05183 0.29238 0.1849 0.0
H842 H 0.97336 0.23341 0.1238 0.0
H843 H 0.99471 0.21334 0.11372 0.0
C844 C 0.96247 0.28314 0.10778 0.0
C845 C 0.97429 0.30191 0.17431 0.0
C846 C 0.97388 0.2709 0.10246 0.0
C847 C 0.99779 0.27722 0.16263 0.0
C848 C 1.00956 0.296 0.22912 0.0
C849 C 0.99802 0.30808 0.23494 0.0
C850 C 0.05122 0.26353 0.16335 0.0
C851 C 1.03563 0.24106 0.14362 0.0
C852 C 0.03901 0.27512 0.16979 0.0
C853 C 1.01074 0.26466 0.1555 0.0
C854 C 0.99513 0.24214 0.13476 0.0
C855 C 1.00741 0.23055 0.12968 0.0
H856 H 0.8931 0.68899 0.00094 0.0
H857 H 0.83993 0.68767 0.17255 0.0
H858 H 0.88196 0.65389 0.02625 0.0
H859 H 0.82731 0.65267 0.19334 0.0
H860 H 0.81087 0.59141 0.25803 0.0
H861 H 0.82944 0.6281 0.24727 0.0
H862 H 0.8558 0.61787 0.00396 0.0
H863 H 0.83869 0.58119 0.02016 0.0
C864 C 0.87941 0.68142 0.04553 0.0
C865 C 0.86765 0.69148 0.08517 0.0
C866 C 0.87247 0.66089 0.05896 0.0
C867 C 0.85333 0.64954 0.11213 0.0
C868 C 0.84245 0.66024 0.15355 0.0
C869 C 0.84961 0.68065 0.14105 0.0
C870 C 0.8208 0.59697 0.20239 0.0
C871 C 0.82305 0.58301 0.14005 0.0
C872 C 0.83134 0.61831 0.19505 0.0
C873 C 0.844 0.62674 0.12308 0.0
C874 C 0.8466 0.6127 0.06113 0.0
C875 C 0.83656 0.59135 0.06998 0.0
H876 H 0.23114 0.52477 0.82222 0.0
H877 H 0.26095 0.49496 0.65487 0.0
H878 H 0.18492 0.49764 0.74034 0.0
H879 H 0.21552 0.46806 0.57615 0.0
H880 H 0.13523 0.41258 0.48796 0.0
H881 H 0.17352 0.4378 0.61032 0.0
H882 H 0.15859 0.48677 0.57182 0.0
H883 H 0.11969 0.46114 0.44989 0.0
C884 C 0.22794 0.51256 0.76842 0.0
C885 C 0.24984 0.51234 0.74428 0.0
C886 C 0.2015 0.49698 0.72197 0.0
C887 C 0.19664 0.48062 0.65269 0.0
C888 C 0.21853 0.48021 0.6304 0.0
C889 C 0.2447 0.49581 0.67538 0.0
C890 C 0.13949 0.42847 0.50837 0.0
C891 C 0.12478 0.43505 0.45995 0.0
C892 C 0.16144 0.44293 0.57782 0.0
C893 C 0.16927 0.46431 0.59925 0.0
C894 C 0.15292 0.47036 0.55678 0.0
C895 C 0.13074 0.45576 0.48721 0.0
H896 H 0.63931 0.61788 0.62282 0.0
H897 H 0.72559 0.66133 0.70433 0.0
H898 H 0.64515 0.60048 0.48866 0.0
H899 H 0.73147 0.64426 0.57039 0.0
H900 H 0.72621 0.62142 0.2678 0.0
H901 H 0.72004 0.63922 0.39865 0.0
H902 H 0.66659 0.57812 0.46471 0.0
H903 H 0.67317 0.56033 0.33387 0.0
C904 C 0.65945 0.62388 0.61106 0.0
C905 C 0.68204 0.64086 0.67347 0.0
C906 C 0.66281 0.61384 0.53513 0.0
C907 C 0.68878 0.62093 0.51977 0.0
C908 C 0.71124 0.63848 0.58053 0.0
C909 C 0.7079 0.64824 0.65697 0.0
C910 C 0.71333 0.61187 0.31088 0.0
C911 C 0.70017 0.58958 0.29129 0.0
C912 C 0.7098 0.62201 0.38553 0.0
C913 C 0.69265 0.61003 0.44121 0.0
C914 C 0.67966 0.5877 0.42213 0.0
C915 C 0.68361 0.57756 0.34814 0.0
H916 H 0.47545 0.07298 0.26406 0.0
H917 H 0.53458 0.06162 0.18555 0.0
H918 H 0.47499 0.05718 0.39614 0.0
H919 H 0.53562 0.04703 0.31981 0.0
H920 H 0.51598 1.004 0.5177 0.0
H921 H 0.51154 1.0173 0.3827 0.0
H922 H 0.49789 0.0612 0.53749 0.0
H923 H 0.50015 0.04669 0.66993 0.0
C924 C 0.48872 0.06743 0.2764 0.0
C925 C 0.50498 0.06838 0.21506 0.0
C926 C 0.48856 0.05842 0.3521 0.0
C927 C 0.50507 0.05052 0.36875 0.0
C928 C 0.52202 0.05227 0.3083 0.0
C929 C 0.52175 0.06089 0.23193 0.0
C930 C 0.51143 1.01615 0.52241 0.0
C931 C 0.5089 0.02451 0.60532 0.0
C932 C 0.50934 0.02408 0.44518 0.0
C933 C 0.50495 0.04074 0.44902 0.0
C934 C 0.50124 0.04839 0.53115 0.0
C935 C 0.50294 0.04025 0.60785 0.0
H936 H 0.12192 0.09033 0.19022 0.0
H937 H 0.16421 0.11613 0.97853 0.0
H938 H 0.11548 0.11978 0.21648 0.0
H939 H 0.15742 0.14559 0.00383 0.0
H940 H 0.0982 0.16959 0.98881 0.0
H941 H 0.11397 0.14558 0.97613 0.0
H942 H 0.14018 0.16058 0.26594 0.0
H943 H 0.12499 0.18517 0.27842 0.0
C944 C 0.1303 0.10257 0.15048 0.0
C945 C 0.14352 0.10088 0.08223 0.0
C946 C 0.12666 0.11947 0.16563 0.0
C947 C 0.13574 0.13498 0.11184 0.0
C948 C 0.14999 0.13381 0.04595 0.0
C949 C 0.15408 0.11705 0.03191 0.0
C950 C 0.10748 0.16789 0.04986 0.0
C951 C 0.11017 0.17918 0.13472 0.0
C952 C 0.11674 0.15425 0.04249 0.0
C953 C 0.12839 0.15115 0.11995 0.0
C954 C 0.13128 0.16259 0.20494 0.0
C955 C 0.12261 0.17668 0.21212 0.0
H956 H 0.95113 0.95847 0.08738 0.0
H957 H 1.02195 1.00121 0.29704 0.0
H958 H 0.9549 0.98899 0.03331 0.0
H959 H 1.02554 0.03187 0.24323 0.0
H960 H 1.02979 0.07969 0.06333 0.0
H961 H 1.03176 0.0498 0.1019 0.0
H962 H 0.94771 1.01632 0.1183 0.0
H963 H 0.94582 0.0461 0.08279 0.0
C964 C 0.96772 0.9744 0.12094 0.0
C965 C 0.98604 0.97762 0.19708 0.0
C966 C 0.96982 0.99179 0.09025 0.0
C967 C 0.99034 1.01264 0.13491 0.0
C968 C 1.00959 1.01588 0.20783 0.0
C969 C 1.00736 0.99844 0.23909 0.0
C970 C 1.0118 0.06596 0.07559 0.0
C971 C 0.9875 0.06505 0.06879 0.0
C972 C 1.01295 0.04892 0.09725 0.0
C973 C 0.98975 0.03075 0.11133 0.0
C974 C 0.96566 0.02998 0.10539 0.0
C975 C 0.96457 0.04699 0.08478 0.0
H976 H 1.00129 0.89666 0.9572 0.0
H977 H 1.03489 0.87122 0.12835 0.0
H978 H 0.04565 0.92595 0.95386 0.0
H979 H 0.08035 0.90152 0.12841 0.0
H980 H 0.16374 0.95447 0.088 0.0
H981 H 0.11957 0.92393 0.08966 0.0
H982 H 0.08398 0.95696 0.99221 0.0
H983 H 0.12833 0.98677 0.98508 0.0
C984 C 1.0182 0.89725 0.99522 0.0
C985 C 1.01356 0.88094 0.04314 0.0
C986 C 0.04439 0.91466 0.99407 0.0
C987 C 0.06807 0.91729 0.04172 0.0
C988 C 0.06349 0.90079 0.08959 0.0
C989 C 1.03697 0.88308 0.09009 0.0
C990 C 0.14658 0.95514 0.06451 0.0
C991 C 0.1505 0.97345 0.03389 0.0
C992 C 0.1206 0.93736 0.06701 0.0
C993 C 0.0967 0.93684 0.04026 0.0
C994 C 0.10082 0.95553 0.01161 0.0
C995 C 0.12684 0.9732 0.00822 0.0
H996 H 0.8939 0.46536 0.22013 0.0
H997 H 0.82538 0.40975 0.03944 0.0
H998 H 0.91856 0.44766 0.21883 0.0
H999 H 0.84918 0.39186 0.04037 0.0
H1000 H 0.90035 0.36602 0.01393 0.0
H1001 H 0.88386 0.3891 0.99755 0.0
H1002 H 0.91725 0.4191 0.28021 0.0
H1003 H 0.93392 0.396 0.29583 0.0
C1004 C 0.88434 0.44955 0.17875 0.0
C1005 C 0.85763 0.43888 0.13035 0.0
C1006 C 0.89829 0.43927 0.1789 0.0
C1007 C 0.88585 0.41818 0.13019 0.0
C1008 C 0.85969 0.40813 0.07795 0.0
C1009 C 0.84588 0.41834 0.07783 0.0
C1010 C 0.90428 0.37762 0.07248 0.0
C1011 C 0.91849 0.37919 0.1562 0.0
C1012 C 0.89479 0.39088 0.06319 0.0
C1013 C 0.89898 0.40597 0.13766 0.0
C1014 C 0.91389 0.40793 0.22094 0.0
C1015 C 0.92343 0.39464 0.23009 0.0
H1016 H 0.75019 0.44508 0.0158 0.0
H1017 H 0.70642 0.45494 0.20075 0.0
H1018 H 0.72055 0.40673 0.00137 0.0
H1019 H 0.67701 0.41661 0.18887 0.0
H1020 H 0.61685 0.34457 0.12329 0.0
H1021 H 0.6425 0.38251 0.11579 0.0
H1022 H 0.70919 0.37813 0.06243 0.0
H1023 H 0.68302 0.34051 0.0638 0.0
C1024 C 0.73421 0.43908 0.05364 0.0
C1025 C 0.73059 0.45334 0.10827 0.0
C1026 C 0.7171 0.41686 0.04598 0.0
C1027 C 0.69589 0.40795 0.09387 0.0
C1028 C 0.69243 0.42236 0.14885 0.0
C1029 C 0.70944 0.44458 0.15584 0.0
C1030 C 0.63669 0.35165 0.10735 0.0
C1031 C 0.6478 0.33932 0.09474 0.0
C1032 C 0.65177 0.37364 0.10466 0.0
C1033 C 0.67847 0.38401 0.08957 0.0
C1034 C 0.68884 0.37123 0.07307 0.0
C1035 C 0.67376 0.34941 0.07473 0.0
H1036 H 0.62884 0.24095 0.21393 0.0
H1037 H 0.61161 0.21359 0.93075 0.0
H1038 H 0.67681 0.25542 0.22073 0.0
H1039 H 0.65907 0.22829 0.93646 0.0
H1040 H 0.73511 0.22853 0.0085 0.0
H1041 H 0.68954 0.2201 0.99416 0.0
H1042 H 0.71897 0.27958 0.17709 0.0
H1043 H 0.76501 0.28757 0.19405 0.0
C1044 C 0.6354 0.23855 0.1527 0.0
C1045 C 0.61648 0.22614 0.07189 0.0
C1046 C 0.66288 0.24682 0.15645 0.0
C1047 C 0.67191 0.24287 0.07934 0.0
C1048 C 0.65296 0.23134 -0.00226 0.0
C1049 C 0.62568 0.22303 0.99423 0.0
C1050 C 0.7319 0.23992 0.04495 0.0
C1051 C 0.75355 0.25858 0.10301 0.0
C1052 C 0.70573 0.23519 0.03626 0.0
C1053 C 0.70039 0.24912 0.08464 0.0
C1054 C 0.72227 0.26835 0.13977 0.0
C1055 C 0.74866 0.27308 0.1486 0.0
H1056 H 0.50578 0.78731 0.92232 0.0
H1057 H 0.56568 0.81868 0.76303 0.0
H1058 H 0.49318 0.81288 0.91289 0.0
H1059 H 0.55229 0.84406 0.7494 0.0
H1060 H 0.53071 0.89486 0.78499 0.0
H1061 H 0.54868 0.87269 0.80612 0.0
H1062 H 0.46889 0.82001 0.81336 0.0
H1063 H 0.45171 0.84239 0.79776 0.0
C1064 C 0.51637 0.79982 0.88538 0.0
C1065 C 0.5366 0.80079 0.84292 0.0
C1066 C 0.5089 0.81443 0.87879 0.0
C1067 C 0.52103 0.83041 0.82794 0.0
C1068 C 0.54232 0.83209 0.78914 0.0
C1069 C 0.55009 0.81752 0.79692 0.0
C1070 C 0.5171 0.87856 0.79118 0.0
C1071 C 0.48977 0.87058 0.79034 0.0
C1072 C 0.52738 0.86572 0.80304 0.0
C1073 C 0.51051 0.84443 0.81321 0.0
C1074 C 0.48299 0.83641 0.8092 0.0
C1075 C 0.47293 0.84928 0.79903 0.0
H1076 H 0.42799 0.70978 0.8614 0.0
H1077 H 0.34183 0.66412 0.82513 0.0
H1078 H 0.41883 0.73359 0.79191 0.0
H1079 H 0.33328 0.68645 0.74829 0.0
H1080 H 0.32686 0.74346 0.75596 0.0
H1081 H 0.3374 0.71897 0.80909 0.0
H1082 H 0.39947 0.73831 0.65122 0.0
H1083 H 0.38913 0.76314 0.5994 0.0
C1084 C 0.40727 0.70456 0.83711 0.0
C1085 C 0.38581 0.68494 0.84914 0.0
C1086 C 0.40205 0.71805 0.79639 0.0
C1087 C 0.37532 0.71188 0.76622 0.0
C1088 C 0.35406 0.69178 0.7728 0.0
C1089 C 0.35916 0.67869 0.81525 0.0
C1090 C 0.34216 0.74197 0.73072 0.0
C1091 C 0.35676 0.75467 0.67223 0.0
C1092 C 0.34838 0.72813 0.76144 0.0
C1093 C 0.36909 0.72666 0.73329 0.0
C1094 C 0.38351 0.73923 0.67399 0.0
C1095 C 0.37736 0.75315 0.64359 0.0
H1096 H 0.52741 0.69085 0.73292 0.0
H1097 H 0.54888 0.67888 0.98976 0.0
H1098 H 0.47998 0.66288 0.72495 0.0
H1099 H 0.50215 0.65141 0.98264 0.0
H1100 H 0.42255 0.58852 0.9065 0.0
H1101 H 0.4687 0.61633 0.9059 0.0
H1102 H 0.44081 0.65253 0.78842 0.0
H1103 H 0.39448 0.62402 0.78393 0.0
C1104 C 0.52195 0.68251 0.78819 0.0
C1105 C 0.5419 0.68694 0.86143 0.0
C1106 C 0.49482 0.66644 0.7837 0.0
C1107 C 0.48718 0.65457 0.85253 0.0
C1108 C 0.50718 0.65973 0.9272 0.0
C1109 C 0.53405 0.67567 0.93162 0.0
C1110 C 0.42613 0.60216 0.87908 0.0
C1111 C 0.40462 0.60374 0.84424 0.0
C1112 C 0.45274 0.61836 0.87983 0.0
C1113 C 0.45865 0.63685 0.8474 0.0
C1114 C 0.43711 0.63845 0.81266 0.0
C1115 C 0.41047 0.6221 0.81085 0.0
H1116 H 1.02923 0.19208 0.82367 0.0
H1117 H 0.11433 0.2412 0.89118 0.0
H1118 H 1.03015 0.19069 0.66367 0.0
H1119 H 0.11484 0.24052 0.73091 0.0
H1120 H 0.08865 0.24641 0.43696 0.0
H1121 H 0.0893 0.24787 0.59786 0.0
H1122 H 0.05676 0.1804 0.55733 0.0
H1123 H 0.05737 0.17896 0.39627 0.0
C1124 C 0.04818 0.20223 0.80468 0.0
C1125 C 0.0719 0.21585 0.87034 0.0
C1126 C 0.04863 0.20162 0.71313 0.0
C1127 C 0.07269 0.21517 0.68576 0.0
C1128 C 0.09612 0.22976 0.75094 0.0
C1129 C 0.09574 0.23011 0.84256 0.0
C1130 C 0.08212 0.23193 0.46223 0.0
C1131 C 0.07343 0.21264 0.404 0.0
C1132 C 0.0824 0.23281 0.55422 0.0
C1133 C 0.07317 0.21428 0.58914 0.0
C1134 C 0.06395 0.19488 0.53125 0.0
C1135 C 0.06432 0.19409 0.4394 0.0
H1136 H 0.89835 0.79867 0.74459 0.0
H1137 H 0.94672 0.86763 0.80564 0.0
H1138 H 0.90012 0.79896 0.5851 0.0
H1139 H 0.9472 0.86792 0.64685 0.0
H1140 H 0.97067 0.86216 0.37572 0.0
H1141 H 0.96744 0.8613 0.53384 0.0
H1142 H 0.88538 0.80652 0.45058 0.0
H1143 H 0.88909 0.80712 0.2925 0.0
C1144 C 0.90912 0.81388 0.72407 0.0
C1145 C 0.92252 0.83308 0.78855 0.0
C1146 C 0.90995 0.81407 0.63233 0.0
C1147 C 0.92403 0.83349 0.60262 0.0
C1148 C 0.93665 0.85265 0.66695 0.0
C1149 C 0.93601 0.85245 0.75839 0.0
C1150 C 0.95197 0.84997 0.39143 0.0
C1151 C 0.93012 0.83475 0.32183 0.0
C1152 C 0.94999 0.84952 0.48211 0.0
C1153 C 0.92607 0.83387 0.50559 0.0
C1154 C 0.90425 0.81861 0.43553 0.0
C1155 C 0.90631 0.81899 0.34484 0.0
H1156 H 0.26718 0.02942 0.77328 0.0
H1157 H 0.18389 1.00968 0.71892 0.0
H1158 H 0.26896 0.03104 0.61548 0.0
H1159 H 0.1859 1.01235 0.56135 0.0
H1160 H 0.18957 1.00144 0.26464 0.0
H1161 H 0.18744 0.99787 0.42156 0.0
H1162 H 0.27116 0.05008 0.50468 0.0
H1163 H 0.27342 0.05236 0.34667 0.0
C1164 C 0.24916 0.02538 0.72748 0.0
C1165 C 0.22537 1.01944 0.75913 0.0
C1166 C 0.25028 0.02661 0.63667 0.0
C1167 C 0.22765 1.02199 0.57437 0.0
C1168 C 0.20372 1.01578 0.60614 0.0
C1169 C 0.20257 1.0144 0.69701 0.0
C1170 C 0.20742 1.01214 0.31692 0.0
C1171 C 0.23157 0.02726 0.29393 0.0
C1172 C 0.20624 1.01021 0.40717 0.0
C1173 C 0.22906 0.02375 0.47726 0.0
C1174 C 0.25323 0.03902 0.4534 0.0
C1175 C 0.25455 0.04053 0.36279 0.0
H1176 H 0.78436 0.49135 0.39568 0.0
H1177 H 0.77649 0.54528 0.42862 0.0
H1178 H 0.78386 0.49036 0.55475 0.0
H1179 H 0.7743 0.54355 0.58609 0.0
H1180 H 0.79732 0.54949 0.88637 0.0
H1181 H 0.79922 0.5506 0.72777 0.0
H1182 H 0.75794 0.48181 0.66458 0.0
H1183 H 0.75794 0.48116 0.82485 0.0
C1184 C 0.78232 0.50292 0.43678 0.0
C1185 C 0.78063 0.51847 0.39935 0.0
C1186 C 0.78175 0.50223 0.52813 0.0
C1187 C 0.77906 0.51689 0.58434 0.0
C1188 C 0.77696 0.53224 0.54612 0.0
C1189 C 0.77791 0.5331 0.45516 0.0
C1190 C 0.78874 0.53466 0.8382 0.0
C1191 C 0.77753 0.51525 0.86731 0.0
C1192 C 0.7896 0.53522 0.74702 0.0
C1193 C 0.77859 0.51628 0.68222 0.0
C1194 C 0.76714 0.4968 0.71207 0.0
C1195 C 0.76694 0.49634 0.8038 0.0
H1196 H 0.57617 0.22341 0.37475 0.0
H1197 H 0.49945 0.16306 0.29514 0.0
H1198 H 0.57498 0.22146 0.5333 0.0
H1199 H 0.49747 0.16142 0.45274 0.0
H1200 H 0.50885 0.15449 0.7412 0.0
H1201 H 0.51369 0.15584 0.58492 0.0
H1202 H 0.55444 0.22452 0.64916 0.0
H1203 H 0.55191 0.22332 0.8057 0.0
C1204 C 0.55885 0.2099 0.39135 0.0
C1205 C 0.53778 0.19349 0.32274 0.0
C1206 C 0.55809 0.20874 0.48229 0.0
C1207 C 0.53605 0.19127 0.50666 0.0
C1208 C 0.51502 0.17492 0.43734 0.0
C1209 C 0.51599 0.17596 0.3467 0.0
C1210 C 0.51938 0.16989 0.72245 0.0
C1211 C 0.5304 0.18875 0.78712 0.0
C1212 C 0.52179 0.17068 0.63215 0.0
C1213 C 0.53453 0.19033 0.60359 0.0
C1214 C 0.54507 0.20911 0.6682 0.0
C1215 C 0.54323 0.20835 0.75846 0.0
H1216 H 0.91005 0.34071 0.4447 0.0
H1217 H 0.9843 0.34295 0.47596 0.0
H1218 H 0.90927 0.33903 0.60266 0.0
H1219 H 0.98487 0.34309 0.63594 0.0
H1220 H 0.96616 0.32209 0.90126 0.0
H1221 H 0.96644 0.32282 0.74114 0.0
H1222 H 0.92692 0.35715 0.74863 0.0
H1223 H 0.92479 0.35463 0.90564 0.0
C1224 C 0.92634 0.341 0.48562 0.0
C1225 C 0.94694 0.34154 0.44725 0.0
C1226 C 0.92614 0.34033 0.57693 0.0
C1227 C 0.94699 0.34085 0.63317 0.0
C1228 C 0.96809 0.34213 0.59502 0.0
C1229 C 0.96797 0.34235 0.5032 0.0
C1230 C 0.95744 0.32962 0.86775 0.0
C1231 C 0.94525 0.33812 0.91476 0.0
C1232 C 0.95777 0.33027 0.77625 0.0
C1233 C 0.94665 0.34004 0.73082 0.0
C1234 C 0.93498 0.34892 0.77958 0.0
C1235 C 0.93388 0.34763 0.86992 0.0
H1236 H 0.43714 0.92025 0.49989 0.0
H1237 H 0.46265 0.87632 0.47782 0.0
H1238 H 0.4362 0.92077 0.33914 0.0
H1239 H 0.46228 0.8772 0.31679 0.0
H1240 H 0.49139 0.90952 0.07048 0.0
H1241 H 0.4906 0.90785 0.2303 0.0
H1242 H 0.40941 0.89332 0.18595 0.0
H1243 H 0.41038 0.89515 0.02643 0.0
C1244 C 0.44259 0.91074 0.46045 0.0
C1245 C 0.45011 0.89833 0.50085 0.0
C1246 C 0.44191 0.91096 0.36863 0.0
C1247 C 0.44932 0.89914 0.31607 0.0
C1248 C 0.45667 0.88658 0.3563 0.0
C1249 C 0.45675 0.88598 0.44789 0.0
C1250 C 0.47354 0.90617 0.09546 0.0
C1251 C 0.45089 0.90234 0.03688 0.0
C1252 C 0.47296 0.90498 0.18623 0.0
C1253 C 0.44985 0.90026 0.21988 0.0
C1254 C 0.42742 0.89693 0.16146 0.0
C1255 C 0.42789 0.89783 0.07042 0.0
H1256 H 0.29149 0.52282 0.07984 0.0
H1257 H 0.36172 0.58732 0.13957 0.0
H1258 H 0.29046 0.52494 0.24141 0.0
H1259 H 0.36069 0.58947 0.29974 0.0
H1260 H 0.36871 0.57555 0.58437 0.0
H1261 H 0.36863 0.57366 0.42266 0.0
H1262 H 0.28236 0.54417 0.3665 0.0
H1263 H 0.28262 0.5457 0.5289 0.0
C1264 C 0.30681 0.53732 0.12757 0.0
C1265 C 0.3268 0.5548 0.09733 0.0
C1266 C 0.30607 0.53865 0.21978 0.0
C1267 C 0.32555 0.55737 0.2834 0.0
C1268 C 0.34558 0.57475 0.25272 0.0
C1269 C 0.34612 0.57352 0.16086 0.0
C1270 C 0.34987 0.56899 0.53721 0.0
C1271 C 0.32575 0.56105 0.56814 0.0
C1272 C 0.34976 0.56787 0.44484 0.0
C1273 C 0.32548 0.55877 0.3817 0.0
C1274 C 0.30133 0.55105 0.41332 0.0
C1275 C 0.30147 0.55213 0.50594 0.0
H1276 H 0.65994 0.73041 0.62248 0.0
H1277 H 0.5776 0.71298 0.56853 0.0
H1278 H 0.66241 0.73319 0.46565 0.0
H1279 H 0.57938 0.71463 0.40983 0.0
H1280 H 0.59879 0.73942 0.15088 0.0
H1281 H 0.59679 0.73768 0.30904 0.0
H1282 H 0.64895 0.71415 0.319 0.0
H1283 H 0.65239 0.7173 0.16373 0.0
C1284 C 0.64221 0.72683 0.57642 0.0
C1285 C 0.61864 0.72156 0.6076 0.0
C1286 C 0.64353 0.72833 0.48616 0.0
C1287 C 0.62109 0.72413 0.42416 0.0
C1288 C 0.59727 0.71842 0.45548 0.0
C1289 C 0.59613 0.71728 0.54628 0.0
C1290 C 0.61008 0.73411 0.18722 0.0
C1291 C 0.62563 0.7284 0.14408 0.0
C1292 C 0.60867 0.73285 0.27787 0.0
C1293 C 0.62261 0.72568 0.32754 0.0
C1294 C 0.63826 0.72009 0.28411 0.0
C1295 C 0.63999 0.72167 0.1942 0.0
loop_
_geom_bond_atom_site_label_1
_geom_bond_atom_site_label_2
_geom_bond_distance
_geom_bond_site_symmetry_2
_ccdc_geom_bond_type
Eu0 N29 2.600 1_454 S
Eu0 N35 2.562 1_455 S
Eu0 O44 2.462 1_455 S
Eu0 O45 2.373 . S
Eu0 O47 2.432 1_455 S
Eu0 O48 2.291 . S
Eu0 O52 2.335 . S
Eu0 O55 2.372 1_554 S
Eu0 C64 2.787 1_455 S
C1 N2 1.365 . S
C1 C4 1.405 . S
C1 C8 1.448 . S
N2 C1 1.365 . S
N2 C5 1.319 . S
N2 Eu11 2.600 . S
C3 C5 1.397 . S
C3 C6 1.367 . S
C3 H23 0.931 . S
C4 C1 1.405 . S
C4 C6 1.403 . S
C4 C10 1.439 . S
C5 N2 1.319 . S
C5 C3 1.397 . S
C5 H16 0.930 . S
C6 C3 1.367 . S
C6 C4 1.403 . S
C6 H27 0.929 . S
C7 C8 1.430 . S
C7 C9 1.387 . S
C7 C13 1.404 . S
C8 C1 1.448 . S
C8 C7 1.430 . S
C8 N12 1.351 . S
C9 C7 1.387 . S
C9 C10 1.374 . S
C9 H24 0.931 . S
C10 C4 1.439 . S
C10 C9 1.374 . S
C10 H25 0.931 . S
Eu11 N2 2.600 . S
Eu11 N12 2.562 . S
Eu11 O46 2.335 . S
Eu11 O49 2.372 . S
Eu11 O50 2.462 . S
Eu11 O51 2.373 . S
Eu11 O53 2.432 . S
Eu11 O54 2.291 . S
Eu11 C75 2.787 . S
N12 C8 1.351 . S
N12 Eu11 2.562 . S
N12 C14 1.325 . S
C13 C7 1.404 . S
C13 C15 1.366 . S
C13 H21 0.930 . S
C14 N12 1.325 . S
C14 C15 1.416 . S
C14 H20 0.929 . S
C15 C13 1.366 . S
C15 C14 1.416 . S
C15 H17 0.930 1_554 S
H16 C5 0.930 . S
H17 C15 0.930 1_556 S
H18 C33 0.930 . S
H19 C40 0.930 . S
H20 C14 0.929 . S
H21 C13 0.930 . S
H22 C36 0.929 . S
H23 C3 0.931 . S
H24 C9 0.931 . S
H25 C10 0.931 . S
H26 C31 0.931 . S
H27 C6 0.929 . S
H28 C39 0.930 . S
N29 Eu0 2.600 1_656 S
N29 C30 1.365 . S
N29 C33 1.319 . S
C30 N29 1.365 . S
C30 C32 1.405 . S
C30 C38 1.448 1_556 S
C31 H26 0.931 . S
C31 C33 1.397 . S
C31 C34 1.367 . S
C32 C30 1.405 . S
C32 C34 1.403 . S
C32 C65 1.439 . S
C33 H18 0.930 . S
C33 N29 1.319 . S
C33 C31 1.397 . S
C34 C31 1.367 . S
C34 C32 1.403 . S
C34 H41 0.929 . S
N35 Eu0 2.562 1_655 S
N35 C36 1.325 . S
N35 C38 1.351 . S
C36 H22 0.929 . S
C36 N35 1.325 . S
C36 C40 1.416 . S
C37 C38 1.430 . S
C37 C39 1.404 . S
C37 C66 1.387 . S
C38 C30 1.448 1_554 S
C38 N35 1.351 . S
C38 C37 1.430 . S
C39 H28 0.930 . S
C39 C37 1.404 . S
C39 C40 1.366 . S
C40 H19 0.930 . S
C40 C36 1.416 . S
C40 C39 1.366 . S
H41 C34 0.929 . S
H42 C65 0.931 . S
H43 C66 0.931 . S
O44 Eu0 2.462 1_655 S
O44 C64 1.252 . S
O45 Eu0 2.373 . S
O45 C56 1.249 . S
O46 Eu11 2.335 . S
O46 C56 1.264 . S
O47 Eu0 2.432 1_655 S
O47 C64 1.268 . S
O48 Eu0 2.291 . S
O48 C63 1.255 . S
O49 Eu11 2.372 . S
O49 C63 1.257 . S
O50 Eu11 2.462 . S
O50 C75 1.252 . S
O51 Eu11 2.373 . S
O51 C67 1.249 . S
O52 Eu0 2.335 . S
O52 C67 1.264 . S
O53 Eu11 2.432 . S
O53 C75 1.268 . S
O54 Eu11 2.291 . S
O54 C74 1.255 1_554 S
O55 Eu0 2.372 1_556 S
O55 C74 1.257 . S
C56 O45 1.249 . S
C56 O46 1.264 . S
C57 C60 1.382 . S
C57 C62 1.390 . S
C57 C64 1.506 . S
C58 C59 1.398 . S
C58 C62 1.392 . S
C59 C58 1.398 . S
C59 C61 1.372 . S
C59 H76 0.931 . S
C60 C57 1.382 . S
C60 C61 1.390 . S
C60 H77 0.931 1_554 S
C61 C59 1.372 . S
C61 C60 1.390 . S
C61 H78 0.929 1_554 S
C62 C57 1.390 . S
C62 C58 1.392 . S
C62 H79 0.930 . S
C63 O48 1.255 . S
C63 O49 1.257 . S
C64 Eu0 2.787 1_655 S
C64 O44 1.252 . S
C64 O47 1.268 . S
C64 C57 1.506 . S
C65 C32 1.439 . S
C65 H42 0.931 . S
C65 C66 1.374 1_556 S
C66 C37 1.387 . S
C66 H43 0.931 . S
C66 C65 1.374 1_554 S
C67 O51 1.249 . S
C67 O52 1.264 . S
C68 C71 1.382 . S
C68 C72 1.390 . S
C68 C75 1.506 . S
C69 C70 1.398 . S
C69 C72 1.392 . S
C70 C69 1.398 . S
C70 C73 1.372 . S
C70 H80 0.931 . S
C71 C68 1.382 . S
C71 C73 1.390 . S
C71 H81 0.931 . S
C72 C68 1.390 . S
C72 C69 1.392 . S
C72 H82 0.930 . S
C73 C70 1.372 . S
C73 C71 1.390 . S
C73 H83 0.929 . S
C74 O54 1.255 1_556 S
C74 O55 1.257 . S
C75 Eu11 2.787 . S
C75 O50 1.252 . S
C75 O53 1.268 . S
C75 C68 1.506 . S
H76 C59 0.931 . S
H77 C60 0.931 1_556 S
H78 C61 0.929 1_556 S
H79 C62 0.930 . S
H80 C70 0.931 . S
H81 C71 0.931 . S
H82 C72 0.930 . S
H83 C73 0.929 . S
Eu84 N113 2.600 . S
Eu84 N119 2.562 . S
Eu84 O128 2.462 . S
Eu84 O129 2.373 . S
Eu84 O131 2.432 . S
Eu84 O132 2.291 . S
Eu84 O136 2.335 . S
Eu84 O139 2.372 . S
Eu84 C148 2.787 . S
C85 N86 1.365 1_554 S
C85 C88 1.405 1_554 S
C85 C92 1.448 . S
N86 C85 1.365 1_556 S
N86 C89 1.319 . S
N86 Eu95 2.600 1_556 S
C87 C89 1.397 . S
C87 C90 1.367 . S
C87 H107 0.931 . S
C88 C85 1.405 1_556 S
C88 C90 1.403 . S
C88 C94 1.439 1_556 S
C89 N86 1.319 . S
C89 C87 1.397 . S
C89 H100 0.930 . S
C90 C87 1.367 . S
C90 C88 1.403 . S
C90 H111 0.929 . S
C91 C92 1.430 . S
C91 C93 1.387 . S
C91 C97 1.404 . S
C92 C85 1.448 . S
C92 C91 1.430 . S
C92 N96 1.351 . S
C93 C91 1.387 . S
C93 C94 1.374 . S
C93 H108 0.931 1_655 S
C94 C88 1.439 1_554 S
C94 C93 1.374 . S
C94 H109 0.931 1_554 S
Eu95 N86 2.600 1_554 S
Eu95 N96 2.562 . S
Eu95 O130 2.335 . S
Eu95 O133 2.372 1_554 S
Eu95 O134 2.462 . S
Eu95 O135 2.373 . S
Eu95 O137 2.432 . S
Eu95 O138 2.291 . S
Eu95 C159 2.787 . S
N96 C92 1.351 . S
N96 Eu95 2.562 . S
N96 C98 1.325 . S
C97 C91 1.404 . S
C97 C99 1.366 . S
C97 H105 0.930 . S
C98 N96 1.325 . S
C98 C99 1.416 . S
C98 H104 0.929 . S
C99 C97 1.366 . S
C99 C98 1.416 . S
C99 H101 0.930 . S
H100 C89 0.930 . S
H101 C99 0.930 . S
H102 C117 0.930 . S
H103 C124 0.930 . S
H104 C98 0.929 . S
H105 C97 0.930 . S
H106 C120 0.929 . S
H107 C87 0.931 . S
H108 C93 0.931 1_455 S
H109 C94 0.931 1_556 S
H110 C115 0.931 . S
H111 C90 0.929 . S
H112 C123 0.930 . S
N113 Eu84 2.600 . S
N113 C114 1.365 . S
N113 C117 1.319 . S
C114 N113 1.365 . S
C114 C116 1.405 . S
C114 C122 1.448 . S
C115 H110 0.931 . S
C115 C117 1.397 . S
C115 C118 1.367 . S
C116 C114 1.405 . S
C116 C118 1.403 . S
C116 C149 1.439 . S
C117 H102 0.930 . S
C117 N113 1.319 . S
C117 C115 1.397 . S
C118 C115 1.367 . S
C118 C116 1.403 . S
C118 H125 0.929 . S
N119 Eu84 2.562 . S
N119 C120 1.325 1_554 S
N119 C122 1.351 . S
C120 H106 0.929 . S
C120 N119 1.325 1_556 S
C120 C124 1.416 . S
C121 C122 1.430 . S
C121 C123 1.404 1_554 S
C121 C150 1.387 . S
C122 C114 1.448 . S
C122 N119 1.351 . S
C122 C121 1.430 . S
C123 H112 0.930 . S
C123 C121 1.404 1_556 S
C123 C124 1.366 . S
C124 H103 0.930 . S
C124 C120 1.416 . S
C124 C123 1.366 . S
H125 C118 0.929 . S
H126 C149 0.931 . S
H127 C150 0.931 . S
O128 Eu84 2.462 . S
O128 C148 1.252 . S
O129 Eu84 2.373 . S
O129 C140 1.249 . S
O130 Eu95 2.335 . S
O130 C140 1.264 . S
O131 Eu84 2.432 . S
O131 C148 1.268 . S
O132 Eu84 2.291 . S
O132 C147 1.255 1_554 S
O133 Eu95 2.372 1_556 S
O133 C147 1.257 . S
O134 Eu95 2.462 . S
O134 C159 1.252 . S
O135 Eu95 2.373 . S
O135 C151 1.249 . S
O136 Eu84 2.335 . S
O136 C151 1.264 . S
O137 Eu95 2.432 . S
O137 C159 1.268 . S
O138 Eu95 2.291 . S
O138 C158 1.255 . S
O139 Eu84 2.372 . S
O139 C158 1.257 . S
C140 O129 1.249 . S
C140 O130 1.264 . S
C141 C144 1.382 . S
C141 C146 1.390 . S
C141 C148 1.506 . S
C142 C143 1.398 . S
C142 C146 1.392 . S
C143 C142 1.398 . S
C143 C145 1.372 . S
C143 H160 0.931 . S
C144 C141 1.382 . S
C144 C145 1.390 . S
C144 H161 0.931 . S
C145 C143 1.372 . S
C145 C144 1.390 . S
C145 H162 0.929 . S
C146 C141 1.390 . S
C146 C142 1.392 . S
C146 H163 0.930 . S
C147 O132 1.255 1_556 S
C147 O133 1.257 . S
C148 Eu84 2.787 . S
C148 O128 1.252 . S
C148 O131 1.268 . S
C148 C141 1.506 . S
C149 C116 1.439 . S
C149 H126 0.931 . S
C149 C150 1.374 . S
C150 C121 1.387 . S
C150 H127 0.931 . S
C150 C149 1.374 . S
C151 O135 1.249 . S
C151 O136 1.264 . S
C152 C155 1.382 1_554 S
C152 C156 1.390 . S
C152 C159 1.506 . S
C153 C154 1.398 . S
C153 C156 1.392 . S
C154 C153 1.398 . S
C154 C157 1.372 1_554 S
C154 H164 0.931 . S
C155 C152 1.382 1_556 S
C155 C157 1.390 . S
C155 H165 0.931 . S
C156 C152 1.390 . S
C156 C153 1.392 . S
C156 H166 0.930 . S
C157 C154 1.372 1_556 S
C157 C155 1.390 . S
C157 H167 0.929 . S
C158 O138 1.255 . S
C158 O139 1.257 . S
C159 Eu95 2.787 . S
C159 O134 1.252 . S
C159 O137 1.268 . S
C159 C152 1.506 . S
H160 C143 0.931 . S
H161 C144 0.931 . S
H162 C145 0.929 . S
H163 C146 0.930 . S
H164 C154 0.931 . S
H165 C155 0.931 . S
H166 C156 0.930 . S
H167 C157 0.929 . S
Eu168 N197 2.600 . S
Eu168 N203 2.562 1_556 S
Eu168 O212 2.462 1_556 S
Eu168 O213 2.373 . S
Eu168 O215 2.432 . S
Eu168 O216 2.291 1_556 S
Eu168 O220 2.335 . S
Eu168 O223 2.372 . S
Eu168 C232 2.787 1_556 S
C169 N170 1.365 . S
C169 C172 1.405 . S
C169 C176 1.448 1_554 S
N170 C169 1.365 . S
N170 C173 1.319 . S
N170 Eu179 2.600 . S
C171 C173 1.397 . S
C171 C174 1.367 . S
C171 H191 0.931 . S
C172 C169 1.405 . S
C172 C174 1.403 . S
C172 C178 1.439 . S
C173 N170 1.319 . S
C173 C171 1.397 . S
C173 H184 0.930 . S
C174 C171 1.367 . S
C174 C172 1.403 . S
C174 H195 0.929 . S
C175 C176 1.430 . S
C175 C177 1.387 . S
C175 C181 1.404 . S
C176 C169 1.448 1_556 S
C176 C175 1.430 . S
C176 N180 1.351 . S
C177 C175 1.387 . S
C177 C178 1.374 1_556 S
C177 H192 0.931 . S
C178 C172 1.439 . S
C178 C177 1.374 1_554 S
C178 H193 0.931 . S
Eu179 N170 2.600 . S
Eu179 N180 2.562 1_554 S
Eu179 O214 2.335 1_565 S
Eu179 O217 2.372 1_565 S
Eu179 O218 2.462 1_554 S
Eu179 O219 2.373 . S
Eu179 O221 2.432 . S
Eu179 O222 2.291 1_554 S
Eu179 C243 2.787 1_554 S
N180 C176 1.351 . S
N180 Eu179 2.562 1_556 S
N180 C182 1.325 . S
C181 C175 1.404 . S
C181 C183 1.366 . S
C181 H189 0.930 . S
C182 N180 1.325 . S
C182 C183 1.416 . S
C182 H188 0.929 . S
C183 C181 1.366 . S
C183 C182 1.416 . S
C183 H185 0.930 . S
H184 C173 0.930 . S
H185 C183 0.930 . S
H186 C201 0.930 . S
H187 C208 0.930 . S
H188 C182 0.929 . S
H189 C181 0.930 . S
H190 C204 0.929 . S
H191 C171 0.931 . S
H192 C177 0.931 . S
H193 C178 0.931 . S
H194 C199 0.931 . S
H195 C174 0.929 . S
H196 C207 0.930 . S
N197 Eu168 2.600 . S
N197 C198 1.365 . S
N197 C201 1.319 . S
C198 N197 1.365 . S
C198 C200 1.405 . S
C198 C206 1.448 1_556 S
C199 H194 0.931 . S
C199 C201 1.397 . S
C199 C202 1.367 . S
C200 C198 1.405 . S
C200 C202 1.403 . S
C200 C233 1.439 . S
C201 H186 0.930 . S
C201 N197 1.319 . S
C201 C199 1.397 . S
C202 C199 1.367 . S
C202 C200 1.403 . S
C202 H209 0.929 . S
N203 Eu168 2.562 1_554 S
N203 C204 1.325 . S
N203 C206 1.351 . S
C204 H190 0.929 . S
C204 N203 1.325 . S
C204 C208 1.416 . S
C205 C206 1.430 . S
C205 C207 1.404 . S
C205 C234 1.387 . S
C206 C198 1.448 1_554 S
C206 N203 1.351 . S
C206 C205 1.430 . S
C207 H196 0.930 . S
C207 C205 1.404 . S
C207 C208 1.366 . S
C208 H187 0.930 . S
C208 C204 1.416 . S
C208 C207 1.366 . S
H209 C202 0.929 . S
H210 C233 0.931 . S
H211 C234 0.931 . S
O212 Eu168 2.462 1_554 S
O212 C232 1.252 . S
O213 Eu168 2.373 . S
O213 C224 1.249 1_556 S
O214 Eu179 2.335 1_545 S
O214 C224 1.264 . S
O215 Eu168 2.432 . S
O215 C232 1.268 1_556 S
O216 Eu168 2.291 1_554 S
O216 C231 1.255 . S
O217 Eu179 2.372 1_545 S
O217 C231 1.257 . S
O218 Eu179 2.462 1_556 S
O218 C243 1.252 . S
O219 Eu179 2.373 . S
O219 C235 1.249 1_554 S
O220 Eu168 2.335 . S
O220 C235 1.264 1_545 S
O221 Eu179 2.432 . S
O221 C243 1.268 1_554 S
O222 Eu179 2.291 1_556 S
O222 C242 1.255 1_565 S
O223 Eu168 2.372 . S
O223 C242 1.257 . S
C224 O213 1.249 1_554 S
C224 O214 1.264 . S
C225 C228 1.382 1_554 S
C225 C230 1.390 . S
C225 C232 1.506 . S
C226 C227 1.398 . S
C226 C230 1.392 . S
C227 C226 1.398 . S
C227 C229 1.372 1_554 S
C227 H244 0.931 . S
C228 C225 1.382 1_556 S
C228 C229 1.390 . S
C228 H245 0.931 . S
C229 C227 1.372 1_556 S
C229 C228 1.390 . S
C229 H246 0.929 . S
C230 C225 1.390 . S
C230 C226 1.392 . S
C230 H247 0.930 . S
C231 O216 1.255 . S
C231 O217 1.257 . S
C232 Eu168 2.787 1_554 S
C232 O212 1.252 . S
C232 O215 1.268 1_554 S
C232 C225 1.506 . S
C233 C200 1.439 . S
C233 H210 0.931 . S
C233 C234 1.374 1_556 S
C234 C205 1.387 . S
C234 H211 0.931 . S
C234 C233 1.374 1_554 S
C235 O219 1.249 1_556 S
C235 O220 1.264 1_565 S
C236 C239 1.382 1_556 S
C236 C240 1.390 . S
C236 C243 1.506 . S
C237 C238 1.398 . S
C237 C240 1.392 . S
C238 C237 1.398 . S
C238 C241 1.372 1_556 S
C238 H248 0.931 . S
C239 C236 1.382 1_554 S
C239 C241 1.390 . S
C239 H249 0.931 . S
C240 C236 1.390 . S
C240 C237 1.392 . S
C240 H250 0.930 . S
C241 C238 1.372 1_554 S
C241 C239 1.390 . S
C241 H251 0.929 . S
C242 O222 1.255 1_545 S
C242 O223 1.257 . S
C243 Eu179 2.787 1_556 S
C243 O218 1.252 . S
C243 O221 1.268 1_556 S
C243 C236 1.506 . S
H244 C227 0.931 . S
H245 C228 0.931 . S
H246 C229 0.929 . S
H247 C230 0.930 . S
H248 C238 0.931 . S
H249 C239 0.931 . S
H250 C240 0.930 . S
H251 C241 0.929 . S
Eu252 N281 2.600 . S
Eu252 N287 2.562 . S
Eu252 O296 2.462 . S
Eu252 O297 2.373 . S
Eu252 O299 2.432 . S
Eu252 O300 2.291 . S
Eu252 O304 2.335 . S
Eu252 O307 2.372 . S
Eu252 C316 2.787 . S
C253 N254 1.365 1_554 S
C253 C256 1.405 1_554 S
C253 C260 1.448 . S
N254 C253 1.365 1_556 S
N254 C257 1.319 . S
N254 Eu263 2.600 1_556 S
C255 C257 1.397 . S
C255 C258 1.367 . S
C255 H275 0.931 . S
C256 C253 1.405 1_556 S
C256 C258 1.403 . S
C256 C262 1.439 . S
C257 N254 1.319 . S
C257 C255 1.397 . S
C257 H268 0.930 . S
C258 C255 1.367 . S
C258 C256 1.403 . S
C258 H279 0.929 . S
C259 C260 1.430 . S
C259 C261 1.387 . S
C259 C265 1.404 . S
C260 C253 1.448 . S
C260 C259 1.430 . S
C260 N264 1.351 . S
C261 C259 1.387 . S
C261 C262 1.374 1_554 S
C261 H276 0.931 . S
C262 C256 1.439 . S
C262 C261 1.374 1_556 S
C262 H277 0.931 . S
Eu263 N254 2.600 1_554 S
Eu263 N264 2.562 . S
Eu263 O298 2.335 . S
Eu263 O301 2.372 1_554 S
Eu263 O302 2.462 . S
Eu263 O303 2.373 . S
Eu263 O305 2.432 . S
Eu263 O306 2.291 . S
Eu263 C327 2.787 . S
N264 C260 1.351 . S
N264 Eu263 2.562 . S
N264 C266 1.325 . S
C265 C259 1.404 . S
C265 C267 1.366 . S
C265 H273 0.930 . S
C266 N264 1.325 . S
C266 C267 1.416 . S
C266 H272 0.929 . S
C267 C265 1.366 . S
C267 C266 1.416 . S
C267 H269 0.930 . S
H268 C257 0.930 . S
H269 C267 0.930 . S
H270 C285 0.930 . S
H271 C292 0.930 1_556 S
H272 C266 0.929 . S
H273 C265 0.930 . S
H274 C288 0.929 . S
H275 C255 0.931 . S
H276 C261 0.931 . S
H277 C262 0.931 . S
H278 C283 0.931 . S
H279 C258 0.929 . S
H280 C291 0.930 . S
N281 Eu252 2.600 . S
N281 C282 1.365 . S
N281 C285 1.319 . S
C282 N281 1.365 . S
C282 C284 1.405 . S
C282 C290 1.448 . S
C283 H278 0.931 . S
C283 C285 1.397 . S
C283 C286 1.367 . S
C284 C282 1.405 . S
C284 C286 1.403 . S
C284 C317 1.439 . S
C285 H270 0.930 . S
C285 N281 1.319 . S
C285 C283 1.397 . S
C286 C283 1.367 . S
C286 C284 1.403 . S
C286 H293 0.929 . S
N287 Eu252 2.562 . S
N287 C288 1.325 . S
N287 C290 1.351 . S
C288 H274 0.929 . S
C288 N287 1.325 . S
C288 C292 1.416 . S
C289 C290 1.430 . S
C289 C291 1.404 . S
C289 C318 1.387 . S
C290 C282 1.448 . S
C290 N287 1.351 . S
C290 C289 1.430 . S
C291 H280 0.930 . S
C291 C289 1.404 . S
C291 C292 1.366 . S
C292 H271 0.930 1_554 S
C292 C288 1.416 . S
C292 C291 1.366 . S
H293 C286 0.929 . S
H294 C317 0.931 . S
H295 C318 0.931 . S
O296 Eu252 2.462 . S
O296 C316 1.252 . S
O297 Eu252 2.373 . S
O297 C308 1.249 . S
O298 Eu263 2.335 . S
O298 C308 1.264 . S
O299 Eu252 2.432 . S
O299 C316 1.268 . S
O300 Eu252 2.291 . S
O300 C315 1.255 1_554 S
O301 Eu263 2.372 1_556 S
O301 C315 1.257 . S
O302 Eu263 2.462 . S
O302 C327 1.252 . S
O303 Eu263 2.373 . S
O303 C319 1.249 . S
O304 Eu252 2.335 . S
O304 C319 1.264 . S
O305 Eu263 2.432 . S
O305 C327 1.268 . S
O306 Eu263 2.291 . S
O306 C326 1.255 . S
O307 Eu252 2.372 . S
O307 C326 1.257 . S
C308 O297 1.249 . S
C308 O298 1.264 . S
C309 C312 1.382 . S
C309 C314 1.390 . S
C309 C316 1.506 . S
C310 C311 1.398 . S
C310 C314 1.392 . S
C311 C310 1.398 . S
C311 C313 1.372 . S
C311 H328 0.931 . S
C312 C309 1.382 . S
C312 C313 1.390 . S
C312 H329 0.931 . S
C313 C311 1.372 . S
C313 C312 1.390 . S
C313 H330 0.929 . S
C314 C309 1.390 . S
C314 C310 1.392 . S
C314 H331 0.930 1_554 S
C315 O300 1.255 1_556 S
C315 O301 1.257 . S
C316 Eu252 2.787 . S
C316 O296 1.252 . S
C316 O299 1.268 . S
C316 C309 1.506 . S
C317 C284 1.439 . S
C317 H294 0.931 . S
C317 C318 1.374 . S
C318 C289 1.387 . S
C318 H295 0.931 . S
C318 C317 1.374 . S
C319 O303 1.249 . S
C319 O304 1.264 . S
C320 C323 1.382 . S
C320 C324 1.390 . S
C320 C327 1.506 . S
C321 C322 1.398 . S
C321 C324 1.392 . S
C322 C321 1.398 . S
C322 C325 1.372 . S
C322 H332 0.931 . S
C323 C320 1.382 . S
C323 C325 1.390 . S
C323 H333 0.931 . S
C324 C320 1.390 . S
C324 C321 1.392 . S
C324 H334 0.930 . S
C325 C322 1.372 . S
C325 C323 1.390 . S
C325 H335 0.929 . S
C326 O306 1.255 . S
C326 O307 1.257 . S
C327 Eu263 2.787 . S
C327 O302 1.252 . S
C327 O305 1.268 . S
C327 C320 1.506 . S
H328 C311 0.931 . S
H329 C312 0.931 . S
H330 C313 0.929 . S
H331 C314 0.930 1_556 S
H332 C322 0.931 . S
H333 C323 0.931 . S
H334 C324 0.930 . S
H335 C325 0.929 . S
Eu336 N365 2.600 . S
Eu336 N371 2.562 . S
Eu336 O380 2.462 . S
Eu336 O381 2.373 . S
Eu336 O383 2.432 . S
Eu336 O384 2.291 1_554 S
Eu336 O388 2.335 . S
Eu336 O391 2.372 . S
Eu336 C400 2.787 . S
C337 N338 1.365 . S
C337 C340 1.405 . S
C337 C344 1.448 1_556 S
N338 C337 1.365 . S
N338 C341 1.319 . S
N338 Eu347 2.600 1_556 S
C339 C341 1.397 . S
C339 C342 1.367 . S
C339 H359 0.931 . S
C340 C337 1.405 . S
C340 C342 1.403 . S
C340 C346 1.439 . S
C341 N338 1.319 . S
C341 C339 1.397 . S
C341 H352 0.930 . S
C342 C339 1.367 . S
C342 C340 1.403 . S
C342 H363 0.929 . S
C343 C344 1.430 . S
C343 C345 1.387 . S
C343 C349 1.404 . S
C344 C337 1.448 1_554 S
C344 C343 1.430 . S
C344 N348 1.351 . S
C345 C343 1.387 . S
C345 C346 1.374 1_554 S
C345 H360 0.931 . S
C346 C340 1.439 . S
C346 C345 1.374 1_556 S
C346 H361 0.931 . S
Eu347 N338 2.600 1_554 S
Eu347 N348 2.562 . S
Eu347 O382 2.335 . S
Eu347 O385 2.372 1_554 S
Eu347 O386 2.462 . S
Eu347 O387 2.373 . S
Eu347 O389 2.432 1_554 S
Eu347 O390 2.291 . S
Eu347 C411 2.787 . S
N348 C344 1.351 . S
N348 Eu347 2.562 . S
N348 C350 1.325 . S
C349 C343 1.404 . S
C349 C351 1.366 . S
C349 H357 0.930 . S
C350 N348 1.325 . S
C350 C351 1.416 . S
C350 H356 0.929 . S
C351 C349 1.366 . S
C351 C350 1.416 . S
C351 H353 0.930 . S
H352 C341 0.930 . S
H353 C351 0.930 . S
H354 C369 0.930 . S
H355 C376 0.930 . S
H356 C350 0.929 . S
H357 C349 0.930 . S
H358 C372 0.929 . S
H359 C339 0.931 . S
H360 C345 0.931 . S
H361 C346 0.931 . S
H362 C367 0.931 . S
H363 C342 0.929 . S
H364 C375 0.930 . S
N365 Eu336 2.600 . S
N365 C366 1.365 . S
N365 C369 1.319 . S
C366 N365 1.365 . S
C366 C368 1.405 . S
C366 C374 1.448 . S
C367 H362 0.931 . S
C367 C369 1.397 . S
C367 C370 1.367 . S
C368 C366 1.405 . S
C368 C370 1.403 . S
C368 C401 1.439 . S
C369 H354 0.930 . S
C369 N365 1.319 . S
C369 C367 1.397 . S
C370 C367 1.367 . S
C370 C368 1.403 . S
C370 H377 0.929 . S
N371 Eu336 2.562 . S
N371 C372 1.325 1_554 S
N371 C374 1.351 . S
C372 H358 0.929 . S
C372 N371 1.325 1_556 S
C372 C376 1.416 . S
C373 C374 1.430 . S
C373 C375 1.404 1_554 S
C373 C402 1.387 . S
C374 C366 1.448 . S
C374 N371 1.351 . S
C374 C373 1.430 . S
C375 H364 0.930 . S
C375 C373 1.404 1_556 S
C375 C376 1.366 . S
C376 H355 0.930 . S
C376 C372 1.416 . S
C376 C375 1.366 . S
H377 C370 0.929 . S
H378 C401 0.931 . S
H379 C402 0.931 . S
O380 Eu336 2.462 . S
O380 C400 1.252 . S
O381 Eu336 2.373 . S
O381 C392 1.249 . S
O382 Eu347 2.335 . S
O382 C392 1.264 . S
O383 Eu336 2.432 . S
O383 C400 1.268 . S
O384 Eu336 2.291 1_556 S
O384 C399 1.255 . S
O385 Eu347 2.372 1_556 S
O385 C399 1.257 . S
O386 Eu347 2.462 . S
O386 C411 1.252 . S
O387 Eu347 2.373 . S
O387 C403 1.249 . S
O388 Eu336 2.335 . S
O388 C403 1.264 . S
O389 Eu347 2.432 1_556 S
O389 C411 1.268 1_556 S
O390 Eu347 2.291 . S
O390 C410 1.255 . S
O391 Eu336 2.372 . S
O391 C410 1.257 . S
C392 O381 1.249 . S
C392 O382 1.264 . S
C393 C396 1.382 . S
C393 C398 1.390 1_554 S
C393 C400 1.506 . S
C394 C395 1.398 1_556 S
C394 C398 1.392 . S
C395 C394 1.398 1_554 S
C395 C397 1.372 . S
C395 H412 0.931 . S
C396 C393 1.382 . S
C396 C397 1.390 . S
C396 H413 0.931 . S
C397 C395 1.372 . S
C397 C396 1.390 . S
C397 H414 0.929 . S
C398 C393 1.390 1_556 S
C398 C394 1.392 . S
C398 H415 0.930 . S
C399 O384 1.255 . S
C399 O385 1.257 . S
C400 Eu336 2.787 . S
C400 O380 1.252 . S
C400 O383 1.268 . S
C400 C393 1.506 . S
C401 C368 1.439 . S
C401 H378 0.931 . S
C401 C402 1.374 . S
C402 C373 1.387 . S
C402 H379 0.931 . S
C402 C401 1.374 . S
C403 O387 1.249 . S
C403 O388 1.264 . S
C404 C407 1.382 1_554 S
C404 C408 1.390 . S
C404 C411 1.506 . S
C405 C406 1.398 . S
C405 C408 1.392 . S
C406 C405 1.398 . S
C406 C409 1.372 1_554 S
C406 H416 0.931 . S
C407 C404 1.382 1_556 S
C407 C409 1.390 . S
C407 H417 0.931 . S
C408 C404 1.390 . S
C408 C405 1.392 . S
C408 H418 0.930 . S
C409 C406 1.372 1_556 S
C409 C407 1.390 . S
C409 H419 0.929 . S
C410 O390 1.255 . S
C410 O391 1.257 . S
C411 Eu347 2.787 . S
C411 O386 1.252 . S
C411 O389 1.268 1_554 S
C411 C404 1.506 . S
H412 C395 0.931 . S
H413 C396 0.931 . S
H414 C397 0.929 . S
H415 C398 0.930 . S
H416 C406 0.931 . S
H417 C407 0.931 . S
H418 C408 0.930 . S
H419 C409 0.929 . S
Eu420 N449 2.600 . S
Eu420 N455 2.562 . S
Eu420 O464 2.462 . S
Eu420 O465 2.373 . S
Eu420 O467 2.432 . S
Eu420 O468 2.291 . S
Eu420 O472 2.335 . S
Eu420 O475 2.372 . S
Eu420 C484 2.787 . S
C421 N422 1.365 . S
C421 C424 1.405 . S
C421 C428 1.448 . S
N422 C421 1.365 . S
N422 C425 1.319 . S
N422 Eu431 2.600 . S
C423 C425 1.397 1_556 S
C423 C426 1.367 1_556 S
C423 H443 0.931 . S
C424 C421 1.405 . S
C424 C426 1.403 . S
C424 C430 1.439 . S
C425 N422 1.319 . S
C425 C423 1.397 1_554 S
C425 H436 0.930 1_554 S
C426 C423 1.367 1_554 S
C426 C424 1.403 . S
C426 H447 0.929 1_554 S
C427 C428 1.430 . S
C427 C429 1.387 . S
C427 C433 1.404 . S
C428 C421 1.448 . S
C428 C427 1.430 . S
C428 N432 1.351 . S
C429 C427 1.387 . S
C429 C430 1.374 . S
C429 H444 0.931 . S
C430 C424 1.439 . S
C430 C429 1.374 . S
C430 H445 0.931 . S
Eu431 N422 2.600 . S
Eu431 N432 2.562 . S
Eu431 O466 2.335 . S
Eu431 O469 2.372 . S
Eu431 O470 2.462 . S
Eu431 O471 2.373 . S
Eu431 O473 2.432 . S
Eu431 O474 2.291 . S
Eu431 C495 2.787 . S
N432 C428 1.351 . S
N432 Eu431 2.562 . S
N432 C434 1.325 . S
C433 C427 1.404 . S
C433 C435 1.366 . S
C433 H441 0.930 . S
C434 N432 1.325 . S
C434 C435 1.416 . S
C434 H440 0.929 . S
C435 C433 1.366 . S
C435 C434 1.416 . S
C435 H437 0.930 . S
H436 C425 0.930 1_556 S
H437 C435 0.930 . S
H438 C453 0.930 . S
H439 C460 0.930 . S
H440 C434 0.929 . S
H441 C433 0.930 . S
H442 C456 0.929 1_556 S
H443 C423 0.931 . S
H444 C429 0.931 . S
H445 C430 0.931 . S
H446 C451 0.931 . S
H447 C426 0.929 1_556 S
H448 C459 0.930 1_556 S
N449 Eu420 2.600 . S
N449 C450 1.365 . S
N449 C453 1.319 . S
C450 N449 1.365 . S
C450 C452 1.405 . S
C450 C458 1.448 . S
C451 H446 0.931 . S
C451 C453 1.397 . S
C451 C454 1.367 . S
C452 C450 1.405 . S
C452 C454 1.403 . S
C452 C485 1.439 . S
C453 H438 0.930 . S
C453 N449 1.319 . S
C453 C451 1.397 . S
C454 C451 1.367 . S
C454 C452 1.403 . S
C454 H461 0.929 . S
N455 Eu420 2.562 . S
N455 C456 1.325 . S
N455 C458 1.351 . S
C456 H442 0.929 1_554 S
C456 N455 1.325 . S
C456 C460 1.416 1_554 S
C457 C458 1.430 . S
C457 C459 1.404 . S
C457 C486 1.387 . S
C458 C450 1.448 . S
C458 N455 1.351 . S
C458 C457 1.430 . S
C459 H448 0.930 1_554 S
C459 C457 1.404 . S
C459 C460 1.366 1_554 S
C460 H439 0.930 . S
C460 C456 1.416 1_556 S
C460 C459 1.366 1_556 S
H461 C454 0.929 . S
H462 C485 0.931 . S
H463 C486 0.931 . S
O464 Eu420 2.462 . S
O464 C484 1.252 . S
O465 Eu420 2.373 . S
O465 C476 1.249 . S
O466 Eu431 2.335 . S
O466 C476 1.264 . S
O467 Eu420 2.432 . S
O467 C484 1.268 . S
O468 Eu420 2.291 . S
O468 C483 1.255 . S
O469 Eu431 2.372 . S
O469 C483 1.257 . S
O470 Eu431 2.462 . S
O470 C495 1.252 . S
O471 Eu431 2.373 . S
O471 C487 1.249 . S
O472 Eu420 2.335 . S
O472 C487 1.264 . S
O473 Eu431 2.432 . S
O473 C495 1.268 . S
O474 Eu431 2.291 . S
O474 C494 1.255 . S
O475 Eu420 2.372 . S
O475 C494 1.257 . S
C476 O465 1.249 . S
C476 O466 1.264 . S
C477 C480 1.382 . S
C477 C482 1.390 . S
C477 C484 1.506 . S
C478 C479 1.398 1_556 S
C478 C482 1.392 1_556 S
C479 C478 1.398 1_554 S
C479 C481 1.372 . S
C479 H496 0.931 . S
C480 C477 1.382 . S
C480 C481 1.390 . S
C480 H497 0.931 . S
C481 C479 1.372 . S
C481 C480 1.390 . S
C481 H498 0.929 . S
C482 C477 1.390 . S
C482 C478 1.392 1_554 S
C482 H499 0.930 1_554 S
C483 O468 1.255 . S
C483 O469 1.257 . S
C484 Eu420 2.787 . S
C484 O464 1.252 . S
C484 O467 1.268 . S
C484 C477 1.506 . S
C485 C452 1.439 . S
C485 H462 0.931 . S
C485 C486 1.374 . S
C486 C457 1.387 . S
C486 H463 0.931 . S
C486 C485 1.374 . S
C487 O471 1.249 . S
C487 O472 1.264 . S
C488 C491 1.382 . S
C488 C492 1.390 . S
C488 C495 1.506 1_455 S
C489 C490 1.398 . S
C489 C492 1.392 . S
C490 C489 1.398 . S
C490 C493 1.372 . S
C490 H500 0.931 . S
C491 C488 1.382 . S
C491 C493 1.390 . S
C491 H501 0.931 . S
C492 C488 1.390 . S
C492 C489 1.392 . S
C492 H502 0.930 . S
C493 C490 1.372 . S
C493 C491 1.390 . S
C493 H503 0.929 . S
C494 O474 1.255 . S
C494 O475 1.257 . S
C495 Eu431 2.787 . S
C495 O470 1.252 . S
C495 O473 1.268 . S
C495 C488 1.506 1_655 S
H496 C479 0.931 . S
H497 C480 0.931 . S
H498 C481 0.929 . S
H499 C482 0.930 1_556 S
H500 C490 0.931 . S
H501 C491 0.931 . S
H502 C492 0.930 . S
H503 C493 0.929 . S
Eu504 N533 2.600 . S
Eu504 N539 2.562 . S
Eu504 O548 2.462 . S
Eu504 O549 2.373 . S
Eu504 O551 2.432 . S
Eu504 O552 2.291 . S
Eu504 O556 2.335 . S
Eu504 O559 2.372 . S
Eu504 C568 2.787 . S
C505 N506 1.365 . S
C505 C508 1.405 . S
C505 C512 1.448 . S
N506 C505 1.365 . S
N506 C509 1.319 . S
N506 Eu515 2.600 . S
C507 C509 1.397 1_554 S
C507 C510 1.367 . S
C507 H527 0.931 . S
C508 C505 1.405 . S
C508 C510 1.403 1_556 S
C508 C514 1.439 . S
C509 N506 1.319 . S
C509 C507 1.397 1_556 S
C509 H520 0.930 1_556 S
C510 C507 1.367 . S
C510 C508 1.403 1_554 S
C510 H531 0.929 . S
C511 C512 1.430 . S
C511 C513 1.387 . S
C511 C517 1.404 . S
C512 C505 1.448 . S
C512 C511 1.430 . S
C512 N516 1.351 . S
C513 C511 1.387 . S
C513 C514 1.374 . S
C513 H528 0.931 . S
C514 C508 1.439 . S
C514 C513 1.374 . S
C514 H529 0.931 . S
Eu515 N506 2.600 . S
Eu515 N516 2.562 . S
Eu515 O550 2.335 . S
Eu515 O553 2.372 . S
Eu515 O554 2.462 . S
Eu515 O555 2.373 . S
Eu515 O557 2.432 . S
Eu515 O558 2.291 . S
Eu515 C579 2.787 . S
N516 C512 1.351 . S
N516 Eu515 2.562 . S
N516 C518 1.325 . S
C517 C511 1.404 . S
C517 C519 1.366 . S
C517 H525 0.930 . S
C518 N516 1.325 . S
C518 C519 1.416 . S
C518 H524 0.929 . S
C519 C517 1.366 . S
C519 C518 1.416 . S
C519 H521 0.930 . S
H520 C509 0.930 1_554 S
H521 C519 0.930 . S
H522 C537 0.930 . S
H523 C544 0.930 . S
H524 C518 0.929 . S
H525 C517 0.930 . S
H526 C540 0.929 . S
H527 C507 0.931 . S
H528 C513 0.931 . S
H529 C514 0.931 . S
H530 C535 0.931 . S
H531 C510 0.929 . S
H532 C543 0.930 . S
N533 Eu504 2.600 . S
N533 C534 1.365 . S
N533 C537 1.319 . S
C534 N533 1.365 . S
C534 C536 1.405 . S
C534 C542 1.448 . S
C535 H530 0.931 . S
C535 C537 1.397 . S
C535 C538 1.367 . S
C536 C534 1.405 . S
C536 C538 1.403 . S
C536 C569 1.439 . S
C537 H522 0.930 . S
C537 N533 1.319 . S
C537 C535 1.397 . S
C538 C535 1.367 . S
C538 C536 1.403 . S
C538 H545 0.929 . S
N539 Eu504 2.562 . S
N539 C540 1.325 . S
N539 C542 1.351 . S
C540 H526 0.929 . S
C540 N539 1.325 . S
C540 C544 1.416 . S
C541 C542 1.430 . S
C541 C543 1.404 . S
C541 C570 1.387 . S
C542 C534 1.448 . S
C542 N539 1.351 . S
C542 C541 1.430 . S
C543 H532 0.930 . S
C543 C541 1.404 . S
C543 C544 1.366 . S
C544 H523 0.930 . S
C544 C540 1.416 . S
C544 C543 1.366 . S
H545 C538 0.929 . S
H546 C569 0.931 . S
H547 C570 0.931 . S
O548 Eu504 2.462 . S
O548 C568 1.252 . S
O549 Eu504 2.373 . S
O549 C560 1.249 . S
O550 Eu515 2.335 . S
O550 C560 1.264 . S
O551 Eu504 2.432 . S
O551 C568 1.268 . S
O552 Eu504 2.291 . S
O552 C567 1.255 . S
O553 Eu515 2.372 . S
O553 C567 1.257 . S
O554 Eu515 2.462 . S
O554 C579 1.252 . S
O555 Eu515 2.373 . S
O555 C571 1.249 . S
O556 Eu504 2.335 . S
O556 C571 1.264 . S
O557 Eu515 2.432 . S
O557 C579 1.268 . S
O558 Eu515 2.291 . S
O558 C578 1.255 . S
O559 Eu504 2.372 . S
O559 C578 1.257 . S
C560 O549 1.249 . S
C560 O550 1.264 . S
C561 C564 1.382 . S
C561 C566 1.390 . S
C561 C568 1.506 . S
C562 C563 1.398 . S
C562 C566 1.392 . S
C563 C562 1.398 . S
C563 C565 1.372 . S
C563 H580 0.931 . S
C564 C561 1.382 . S
C564 C565 1.390 . S
C564 H581 0.931 . S
C565 C563 1.372 . S
C565 C564 1.390 . S
C565 H582 0.929 . S
C566 C561 1.390 . S
C566 C562 1.392 . S
C566 H583 0.930 . S
C567 O552 1.255 . S
C567 O553 1.257 . S
C568 Eu504 2.787 . S
C568 O548 1.252 . S
C568 O551 1.268 . S
C568 C561 1.506 . S
C569 C536 1.439 . S
C569 H546 0.931 . S
C569 C570 1.374 . S
C570 C541 1.387 . S
C570 H547 0.931 . S
C570 C569 1.374 . S
C571 O555 1.249 . S
C571 O556 1.264 . S
C572 C575 1.382 . S
C572 C576 1.390 . S
C572 C579 1.506 . S
C573 C574 1.398 1_565 S
C573 C576 1.392 . S
C574 C573 1.398 1_545 S
C574 C577 1.372 1_545 S
C574 H584 0.931 . S
C575 C572 1.382 . S
C575 C577 1.390 . S
C575 H585 0.931 . S
C576 C572 1.390 . S
C576 C573 1.392 . S
C576 H586 0.930 . S
C577 C574 1.372 1_565 S
C577 C575 1.390 . S
C577 H587 0.929 1_565 S
C578 O558 1.255 . S
C578 O559 1.257 . S
C579 Eu515 2.787 . S
C579 O554 1.252 . S
C579 O557 1.268 . S
C579 C572 1.506 . S
H580 C563 0.931 . S
H581 C564 0.931 . S
H582 C565 0.929 . S
H583 C566 0.930 . S
H584 C574 0.931 . S
H585 C575 0.931 . S
H586 C576 0.930 . S
H587 C577 0.929 1_545 S
Eu588 N617 2.600 . S
Eu588 N623 2.562 . S
Eu588 O632 2.462 . S
Eu588 O633 2.373 . S
Eu588 O635 2.432 . S
Eu588 O636 2.291 . S
Eu588 O640 2.335 . S
Eu588 O643 2.372 1_556 S
Eu588 C652 2.787 . S
C589 N590 1.365 . S
C589 C592 1.405 . S
C589 C596 1.448 . S
N590 C589 1.365 . S
N590 C593 1.319 . S
N590 Eu599 2.600 . S
C591 C593 1.397 . S
C591 C594 1.367 . S
C591 H611 0.931 . S
C592 C589 1.405 . S
C592 C594 1.403 . S
C592 C598 1.439 . S
C593 N590 1.319 . S
C593 C591 1.397 . S
C593 H604 0.930 . S
C594 C591 1.367 . S
C594 C592 1.403 . S
C594 H615 0.929 . S
C595 C596 1.430 . S
C595 C597 1.387 . S
C595 C601 1.404 1_556 S
C596 C589 1.448 . S
C596 C595 1.430 . S
C596 N600 1.351 . S
C597 C595 1.387 . S
C597 C598 1.374 . S
C597 H612 0.931 . S
C598 C592 1.439 . S
C598 C597 1.374 . S
C598 H613 0.931 . S
Eu599 N590 2.600 . S
Eu599 N600 2.562 . S
Eu599 O634 2.335 . S
Eu599 O637 2.372 . S
Eu599 O638 2.462 . S
Eu599 O639 2.373 . S
Eu599 O641 2.432 . S
Eu599 O642 2.291 . S
Eu599 C663 2.787 . S
N600 C596 1.351 . S
N600 Eu599 2.562 . S
N600 C602 1.325 1_556 S
C601 C595 1.404 1_554 S
C601 C603 1.366 . S
C601 H609 0.930 . S
C602 N600 1.325 1_554 S
C602 C603 1.416 . S
C602 H608 0.929 . S
C603 C601 1.366 . S
C603 C602 1.416 . S
C603 H605 0.930 . S
H604 C593 0.930 . S
H605 C603 0.930 . S
H606 C621 0.930 . S
H607 C628 0.930 . S
H608 C602 0.929 . S
H609 C601 0.930 . S
H610 C624 0.929 . S
H611 C591 0.931 . S
H612 C597 0.931 . S
H613 C598 0.931 . S
H614 C619 0.931 . S
H615 C594 0.929 . S
H616 C627 0.930 . S
N617 Eu588 2.600 . S
N617 C618 1.365 . S
N617 C621 1.319 1_556 S
C618 N617 1.365 . S
C618 C620 1.405 . S
C618 C626 1.448 . S
C619 H614 0.931 . S
C619 C621 1.397 . S
C619 C622 1.367 . S
C620 C618 1.405 . S
C620 C622 1.403 1_556 S
C620 C653 1.439 . S
C621 H606 0.930 . S
C621 N617 1.319 1_554 S
C621 C619 1.397 . S
C622 C619 1.367 . S
C622 C620 1.403 1_554 S
C622 H629 0.929 . S
N623 Eu588 2.562 . S
N623 C624 1.325 . S
N623 C626 1.351 . S
C624 H610 0.929 . S
C624 N623 1.325 . S
C624 C628 1.416 . S
C625 C626 1.430 . S
C625 C627 1.404 . S
C625 C654 1.387 . S
C626 C618 1.448 . S
C626 N623 1.351 . S
C626 C625 1.430 . S
C627 H616 0.930 . S
C627 C625 1.404 . S
C627 C628 1.366 . S
C628 H607 0.930 . S
C628 C624 1.416 . S
C628 C627 1.366 . S
H629 C622 0.929 . S
H630 C653 0.931 . S
H631 C654 0.931 . S
O632 Eu588 2.462 . S
O632 C652 1.252 . S
O633 Eu588 2.373 . S
O633 C644 1.249 . S
O634 Eu599 2.335 . S
O634 C644 1.264 . S
O635 Eu588 2.432 . S
O635 C652 1.268 . S
O636 Eu588 2.291 . S
O636 C651 1.255 . S
O637 Eu599 2.372 . S
O637 C651 1.257 . S
O638 Eu599 2.462 . S
O638 C663 1.252 . S
O639 Eu599 2.373 . S
O639 C655 1.249 . S
O640 Eu588 2.335 . S
O640 C655 1.264 . S
O641 Eu599 2.432 . S
O641 C663 1.268 . S
O642 Eu599 2.291 . S
O642 C662 1.255 1_556 S
O643 Eu588 2.372 1_554 S
O643 C662 1.257 . S
C644 O633 1.249 . S
C644 O634 1.264 . S
C645 C648 1.382 . S
C645 C650 1.390 . S
C645 C652 1.506 . S
C646 C647 1.398 . S
C646 C650 1.392 . S
C647 C646 1.398 . S
C647 C649 1.372 . S
C647 H664 0.931 . S
C648 C645 1.382 . S
C648 C649 1.390 . S
C648 H665 0.931 . S
C649 C647 1.372 . S
C649 C648 1.390 . S
C649 H666 0.929 . S
C650 C645 1.390 . S
C650 C646 1.392 . S
C650 H667 0.930 . S
C651 O636 1.255 . S
C651 O637 1.257 . S
C652 Eu588 2.787 . S
C652 O632 1.252 . S
C652 O635 1.268 . S
C652 C645 1.506 . S
C653 C620 1.439 . S
C653 H630 0.931 . S
C653 C654 1.374 . S
C654 C625 1.387 . S
C654 H631 0.931 . S
C654 C653 1.374 . S
C655 O639 1.249 . S
C655 O640 1.264 . S
C656 C659 1.382 . S
C656 C660 1.390 . S
C656 C663 1.506 . S
C657 C658 1.398 . S
C657 C660 1.392 . S
C658 C657 1.398 . S
C658 C661 1.372 . S
C658 H668 0.931 . S
C659 C656 1.382 . S
C659 C661 1.390 . S
C659 H669 0.931 . S
C660 C656 1.390 . S
C660 C657 1.392 . S
C660 H670 0.930 . S
C661 C658 1.372 . S
C661 C659 1.390 . S
C661 H671 0.929 . S
C662 O642 1.255 1_554 S
C662 O643 1.257 . S
C663 Eu599 2.787 . S
C663 O638 1.252 . S
C663 O641 1.268 . S
C663 C656 1.506 . S
H664 C647 0.931 . S
H665 C648 0.931 . S
H666 C649 0.929 . S
H667 C650 0.930 . S
H668 C658 0.931 . S
H669 C659 0.931 . S
H670 C660 0.930 . S
H671 C661 0.929 . S
Eu672 N701 2.600 . S
Eu672 N707 2.562 . S
Eu672 O716 2.462 . S
Eu672 O717 2.373 . S
Eu672 O719 2.432 . S
Eu672 O720 2.291 . S
Eu672 O724 2.335 . S
Eu672 O727 2.372 . S
Eu672 C736 2.787 . S
C673 N674 1.365 . S
C673 C676 1.405 . S
C673 C680 1.448 . S
N674 C673 1.365 . S
N674 C677 1.319 1_556 S
N674 Eu683 2.600 . S
C675 C677 1.397 . S
C675 C678 1.367 . S
C675 H695 0.931 . S
C676 C673 1.405 . S
C676 C678 1.403 1_556 S
C676 C682 1.439 . S
C677 N674 1.319 1_554 S
C677 C675 1.397 . S
C677 H688 0.930 . S
C678 C675 1.367 . S
C678 C676 1.403 1_554 S
C678 H699 0.929 . S
C679 C680 1.430 . S
C679 C681 1.387 . S
C679 C685 1.404 . S
C680 C673 1.448 . S
C680 C679 1.430 . S
C680 N684 1.351 . S
C681 C679 1.387 . S
C681 C682 1.374 . S
C681 H696 0.931 . S
C682 C676 1.439 . S
C682 C681 1.374 . S
C682 H697 0.931 . S
Eu683 N674 2.600 . S
Eu683 N684 2.562 . S
Eu683 O718 2.335 . S
Eu683 O721 2.372 . S
Eu683 O722 2.462 . S
Eu683 O723 2.373 . S
Eu683 O725 2.432 . S
Eu683 O726 2.291 . S
Eu683 C747 2.787 . S
N684 C680 1.351 . S
N684 Eu683 2.562 . S
N684 C686 1.325 . S
C685 C679 1.404 . S
C685 C687 1.366 . S
C685 H693 0.930 . S
C686 N684 1.325 . S
C686 C687 1.416 . S
C686 H692 0.929 . S
C687 C685 1.366 . S
C687 C686 1.416 . S
C687 H689 0.930 . S
H688 C677 0.930 . S
H689 C687 0.930 . S
H690 C705 0.930 . S
H691 C712 0.930 . S
H692 C686 0.929 . S
H693 C685 0.930 . S
H694 C708 0.929 . S
H695 C675 0.931 . S
H696 C681 0.931 . S
H697 C682 0.931 . S
H698 C703 0.931 . S
H699 C678 0.929 . S
H700 C711 0.930 . S
N701 Eu672 2.600 . S
N701 C702 1.365 . S
N701 C705 1.319 . S
C702 N701 1.365 . S
C702 C704 1.405 . S
C702 C710 1.448 . S
C703 H698 0.931 . S
C703 C705 1.397 . S
C703 C706 1.367 . S
C704 C702 1.405 . S
C704 C706 1.403 . S
C704 C737 1.439 . S
C705 H690 0.930 . S
C705 N701 1.319 . S
C705 C703 1.397 . S
C706 C703 1.367 . S
C706 C704 1.403 . S
C706 H713 0.929 . S
N707 Eu672 2.562 . S
N707 C708 1.325 1_556 S
N707 C710 1.351 . S
C708 H694 0.929 . S
C708 N707 1.325 1_554 S
C708 C712 1.416 . S
C709 C710 1.430 . S
C709 C711 1.404 1_556 S
C709 C738 1.387 . S
C710 C702 1.448 . S
C710 N707 1.351 . S
C710 C709 1.430 . S
C711 H700 0.930 . S
C711 C709 1.404 1_554 S
C711 C712 1.366 . S
C712 H691 0.930 . S
C712 C708 1.416 . S
C712 C711 1.366 . S
H713 C706 0.929 . S
H714 C737 0.931 . S
H715 C738 0.931 . S
O716 Eu672 2.462 . S
O716 C736 1.252 . S
O717 Eu672 2.373 . S
O717 C728 1.249 . S
O718 Eu683 2.335 . S
O718 C728 1.264 . S
O719 Eu672 2.432 . S
O719 C736 1.268 . S
O720 Eu672 2.291 . S
O720 C735 1.255 1_556 S
O721 Eu683 2.372 . S
O721 C735 1.257 1_556 S
O722 Eu683 2.462 . S
O722 C747 1.252 . S
O723 Eu683 2.373 . S
O723 C739 1.249 . S
O724 Eu672 2.335 . S
O724 C739 1.264 . S
O725 Eu683 2.432 . S
O725 C747 1.268 . S
O726 Eu683 2.291 . S
O726 C746 1.255 . S
O727 Eu672 2.372 . S
O727 C746 1.257 . S
C728 O717 1.249 . S
C728 O718 1.264 . S
C729 C732 1.382 . S
C729 C734 1.390 . S
C729 C736 1.506 . S
C730 C731 1.398 . S
C730 C734 1.392 . S
C731 C730 1.398 . S
C731 C733 1.372 . S
C731 H748 0.931 . S
C732 C729 1.382 . S
C732 C733 1.390 . S
C732 H749 0.931 . S
C733 C731 1.372 . S
C733 C732 1.390 . S
C733 H750 0.929 . S
C734 C729 1.390 . S
C734 C730 1.392 . S
C734 H751 0.930 1_556 S
C735 O720 1.255 1_554 S
C735 O721 1.257 1_554 S
C736 Eu672 2.787 . S
C736 O716 1.252 . S
C736 O719 1.268 . S
C736 C729 1.506 . S
C737 C704 1.439 . S
C737 H714 0.931 . S
C737 C738 1.374 . S
C738 C709 1.387 . S
C738 H715 0.931 . S
C738 C737 1.374 . S
C739 O723 1.249 . S
C739 O724 1.264 . S
C740 C743 1.382 . S
C740 C744 1.390 . S
C740 C747 1.506 . S
C741 C742 1.398 . S
C741 C744 1.392 . S
C742 C741 1.398 . S
C742 C745 1.372 . S
C742 H752 0.931 . S
C743 C740 1.382 . S
C743 C745 1.390 . S
C743 H753 0.931 . S
C744 C740 1.390 . S
C744 C741 1.392 . S
C744 H754 0.930 . S
C745 C742 1.372 . S
C745 C743 1.390 . S
C745 H755 0.929 . S
C746 O726 1.255 . S
C746 O727 1.257 . S
C747 Eu683 2.787 . S
C747 O722 1.252 . S
C747 O725 1.268 . S
C747 C740 1.506 . S
H748 C731 0.931 . S
H749 C732 0.931 . S
H750 C733 0.929 . S
H751 C734 0.930 1_554 S
H752 C742 0.931 . S
H753 C743 0.931 . S
H754 C744 0.930 . S
H755 C745 0.929 . S
H756 C764 0.950 . S
H757 C769 0.950 . S
H758 C766 0.950 . S
H759 C768 0.950 . S
H760 C770 0.950 . S
H761 C772 0.950 . S
H762 C774 0.950 . S
H763 C775 0.950 . S
C764 H756 0.950 . S
C764 C765 1.386 . S
C764 C766 1.391 . S
C765 C764 1.386 . S
C765 C769 1.393 1_554 S
C766 H758 0.950 . S
C766 C764 1.391 . S
C766 C767 1.400 . S
C767 C766 1.400 . S
C767 C768 1.398 1_554 S
C767 C773 1.491 1_554 S
C768 H759 0.950 . S
C768 C767 1.398 1_556 S
C768 C769 1.391 . S
C769 H757 0.950 . S
C769 C765 1.393 1_556 S
C769 C768 1.391 . S
C770 H760 0.950 . S
C770 C771 1.386 . S
C770 C772 1.391 . S
C771 C770 1.386 . S
C771 C775 1.393 1_556 S
C772 H761 0.950 . S
C772 C770 1.391 . S
C772 C773 1.400 . S
C773 C767 1.491 1_556 S
C773 C772 1.400 . S
C773 C774 1.399 1_556 S
C774 H762 0.950 . S
C774 C773 1.399 1_554 S
C774 C775 1.391 . S
C775 H763 0.950 . S
C775 C771 1.393 1_554 S
C775 C774 1.391 . S
H776 C784 0.950 . S
H777 C789 0.950 . S
H778 C786 0.950 . S
H779 C788 0.950 . S
H780 C790 0.950 1_554 S
H781 C792 0.950 . S
H782 C794 0.950 . S
H783 C795 0.950 . S
C784 H776 0.950 . S
C784 C785 1.386 1_556 S
C784 C786 1.391 . S
C785 C784 1.386 1_554 S
C785 C789 1.393 . S
C786 H778 0.950 . S
C786 C784 1.391 . S
C786 C787 1.400 . S
C787 C786 1.400 . S
C787 C788 1.398 1_556 S
C787 C793 1.491 . S
C788 H779 0.950 . S
C788 C787 1.398 1_554 S
C788 C789 1.391 . S
C789 H777 0.950 . S
C789 C785 1.393 . S
C789 C788 1.391 . S
C790 H780 0.950 1_556 S
C790 C791 1.386 . S
C790 C792 1.391 1_556 S
C791 C790 1.386 . S
C791 C795 1.393 . S
C792 H781 0.950 . S
C792 C790 1.391 1_554 S
C792 C793 1.400 1_554 S
C793 C787 1.491 . S
C793 C792 1.400 1_556 S
C793 C794 1.398 . S
C794 H782 0.950 . S
C794 C793 1.398 . S
C794 C795 1.391 . S
C795 H783 0.950 . S
C795 C791 1.393 . S
C795 C794 1.391 . S
H796 C804 0.950 . S
H797 C809 0.950 . S
H798 C806 0.950 . S
H799 C808 0.950 . S
H800 C810 0.950 . S
H801 C812 0.950 . S
H802 C814 0.950 . S
H803 C815 0.950 . S
C804 H796 0.950 . S
C804 C805 1.386 . S
C804 C806 1.391 . S
C805 C804 1.386 . S
C805 C809 1.393 . S
C806 H798 0.950 . S
C806 C804 1.391 . S
C806 C807 1.400 . S
C807 C806 1.400 . S
C807 C808 1.398 . S
C807 C813 1.491 . S
C808 H799 0.950 . S
C808 C807 1.398 . S
C808 C809 1.391 . S
C809 H797 0.950 . S
C809 C805 1.393 . S
C809 C808 1.391 . S
C810 H800 0.950 . S
C810 C811 1.386 . S
C810 C812 1.391 . S
C811 C810 1.386 . S
C811 C815 1.393 . S
C812 H801 0.950 . S
C812 C810 1.391 . S
C812 C813 1.400 . S
C813 C807 1.491 . S
C813 C812 1.400 . S
C813 C814 1.398 . S
C814 H802 0.950 . S
C814 C813 1.398 . S
C814 C815 1.391 . S
C815 H803 0.950 . S
C815 C811 1.393 . S
C815 C814 1.391 . S
H816 C824 0.950 . S
H817 C829 0.950 . S
H818 C826 0.950 . S
H819 C828 0.950 . S
H820 C830 0.950 . S
H821 C832 0.950 . S
H822 C834 0.950 . S
H823 C835 0.950 . S
C824 H816 0.950 . S
C824 C825 1.386 . S
C824 C826 1.391 . S
C825 C824 1.386 . S
C825 C829 1.393 . S
C826 H818 0.950 . S
C826 C824 1.391 . S
C826 C827 1.400 . S
C827 C826 1.400 . S
C827 C828 1.398 . S
C827 C833 1.491 . S
C828 H819 0.950 . S
C828 C827 1.398 . S
C828 C829 1.391 . S
C829 H817 0.950 . S
C829 C825 1.393 . S
C829 C828 1.391 . S
C830 H820 0.950 . S
C830 C831 1.386 . S
C830 C832 1.391 . S
C831 C830 1.386 . S
C831 C835 1.393 . S
C832 H821 0.950 . S
C832 C830 1.391 . S
C832 C833 1.400 . S
C833 C827 1.491 . S
C833 C832 1.400 . S
C833 C834 1.398 . S
C834 H822 0.950 . S
C834 C833 1.398 . S
C834 C835 1.391 . S
C835 H823 0.950 . S
C835 C831 1.393 . S
C835 C834 1.391 . S
H836 C844 0.950 . S
H837 C849 0.950 . S
H838 C846 0.950 . S
H839 C848 0.950 . S
H840 C850 0.950 . S
H841 C852 0.950 . S
H842 C854 0.950 . S
H843 C855 0.950 . S
C844 H836 0.950 . S
C844 C845 1.386 . S
C844 C846 1.391 . S
C845 C844 1.386 . S
C845 C849 1.393 . S
C846 H838 0.950 . S
C846 C844 1.391 . S
C846 C847 1.400 . S
C847 C846 1.400 . S
C847 C848 1.398 . S
C847 C853 1.491 . S
C848 H839 0.950 . S
C848 C847 1.398 . S
C848 C849 1.391 . S
C849 H837 0.950 . S
C849 C845 1.393 . S
C849 C848 1.391 . S
C850 H840 0.950 . S
C850 C851 1.385 . S
C850 C852 1.391 . S
C851 C850 1.385 . S
C851 C855 1.385 1_455 S
C852 H841 0.950 . S
C852 C850 1.391 . S
C852 C853 1.400 1_455 S
C853 C847 1.491 . S
C853 C852 1.400 1_655 S
C853 C854 1.398 . S
C854 H842 0.950 . S
C854 C853 1.398 . S
C854 C855 1.391 . S
C855 H843 0.950 . S
C855 C851 1.385 1_655 S
C855 C854 1.391 . S
H856 C864 0.950 . S
H857 C869 0.950 . S
H858 C866 0.950 . S
H859 C868 0.950 . S
H860 C870 0.950 . S
H861 C872 0.950 . S
H862 C874 0.950 . S
H863 C875 0.950 . S
C864 H856 0.950 . S
C864 C865 1.386 . S
C864 C866 1.391 . S
C865 C864 1.386 . S
C865 C869 1.393 . S
C866 H858 0.950 . S
C866 C864 1.391 . S
C866 C867 1.400 . S
C867 C866 1.400 . S
C867 C868 1.398 . S
C867 C873 1.491 . S
C868 H859 0.950 . S
C868 C867 1.398 . S
C868 C869 1.391 . S
C869 H857 0.950 . S
C869 C865 1.393 . S
C869 C868 1.391 . S
C870 H860 0.950 . S
C870 C871 1.386 . S
C870 C872 1.391 . S
C871 C870 1.386 . S
C871 C875 1.393 . S
C872 H861 0.950 . S
C872 C870 1.391 . S
C872 C873 1.400 . S
C873 C867 1.491 . S
C873 C872 1.400 . S
C873 C874 1.398 . S
C874 H862 0.950 . S
C874 C873 1.398 . S
C874 C875 1.391 . S
C875 H863 0.950 . S
C875 C871 1.393 . S
C875 C874 1.391 . S
H876 C884 0.950 . S
H877 C889 0.950 . S
H878 C886 0.950 . S
H879 C888 0.950 . S
H880 C890 0.950 . S
H881 C892 0.950 . S
H882 C894 0.950 . S
H883 C895 0.950 . S
C884 H876 0.950 . S
C884 C885 1.386 . S
C884 C886 1.391 . S
C885 C884 1.386 . S
C885 C889 1.393 . S
C886 H878 0.950 . S
C886 C884 1.391 . S
C886 C887 1.400 . S
C887 C886 1.400 . S
C887 C888 1.398 . S
C887 C893 1.491 . S
C888 H879 0.950 . S
C888 C887 1.398 . S
C888 C889 1.391 . S
C889 H877 0.950 . S
C889 C885 1.393 . S
C889 C888 1.391 . S
C890 H880 0.950 . S
C890 C891 1.386 . S
C890 C892 1.391 . S
C891 C890 1.386 . S
C891 C895 1.393 . S
C892 H881 0.950 . S
C892 C890 1.391 . S
C892 C893 1.400 . S
C893 C887 1.491 . S
C893 C892 1.400 . S
C893 C894 1.398 . S
C894 H882 0.950 . S
C894 C893 1.398 . S
C894 C895 1.391 . S
C895 H883 0.950 . S
C895 C891 1.393 . S
C895 C894 1.391 . S
H896 C904 0.950 . S
H897 C909 0.950 . S
H898 C906 0.950 . S
H899 C908 0.950 . S
H900 C910 0.950 . S
H901 C912 0.950 . S
H902 C914 0.950 . S
H903 C915 0.950 . S
C904 H896 0.950 . S
C904 C905 1.386 . S
C904 C906 1.391 . S
C905 C904 1.386 . S
C905 C909 1.393 . S
C906 H898 0.950 . S
C906 C904 1.391 . S
C906 C907 1.400 . S
C907 C906 1.400 . S
C907 C908 1.398 . S
C907 C913 1.491 . S
C908 H899 0.950 . S
C908 C907 1.398 . S
C908 C909 1.391 . S
C909 H897 0.950 . S
C909 C905 1.393 . S
C909 C908 1.391 . S
C910 H900 0.950 . S
C910 C911 1.386 . S
C910 C912 1.391 . S
C911 C910 1.386 . S
C911 C915 1.393 . S
C912 H901 0.950 . S
C912 C910 1.391 . S
C912 C913 1.400 . S
C913 C907 1.491 . S
C913 C912 1.400 . S
C913 C914 1.398 . S
C914 H902 0.950 . S
C914 C913 1.398 . S
C914 C915 1.391 . S
C915 H903 0.950 . S
C915 C911 1.393 . S
C915 C914 1.391 . S
H916 C924 0.950 . S
H917 C929 0.950 . S
H918 C926 0.950 . S
H919 C928 0.950 . S
H920 C930 0.950 . S
H921 C932 0.950 . S
H922 C934 0.950 . S
H923 C935 0.950 . S
C924 H916 0.950 . S
C924 C925 1.386 . S
C924 C926 1.391 . S
C925 C924 1.386 . S
C925 C929 1.393 . S
C926 H918 0.950 . S
C926 C924 1.391 . S
C926 C927 1.400 . S
C927 C926 1.400 . S
C927 C928 1.398 . S
C927 C933 1.491 . S
C928 H919 0.950 . S
C928 C927 1.398 . S
C928 C929 1.391 . S
C929 H917 0.950 . S
C929 C925 1.393 . S
C929 C928 1.391 . S
C930 H920 0.950 . S
C930 C931 1.386 . S
C930 C932 1.391 1_565 S
C931 C930 1.386 . S
C931 C935 1.393 1_565 S
C932 H921 0.950 . S
C932 C930 1.391 1_545 S
C932 C933 1.400 . S
C933 C927 1.491 . S
C933 C932 1.400 . S
C933 C934 1.398 . S
C934 H922 0.950 . S
C934 C933 1.398 . S
C934 C935 1.391 . S
C935 H923 0.950 . S
C935 C931 1.393 1_545 S
C935 C934 1.391 . S
H936 C944 0.950 . S
H937 C949 0.950 . S
H938 C946 0.950 . S
H939 C948 0.950 . S
H940 C950 0.950 . S
H941 C952 0.950 . S
H942 C954 0.950 . S
H943 C955 0.950 . S
C944 H936 0.950 . S
C944 C945 1.386 . S
C944 C946 1.391 . S
C945 C944 1.386 . S
C945 C949 1.393 . S
C946 H938 0.950 . S
C946 C944 1.391 . S
C946 C947 1.400 . S
C947 C946 1.400 . S
C947 C948 1.398 . S
C947 C953 1.491 . S
C948 H939 0.950 . S
C948 C947 1.398 . S
C948 C949 1.391 . S
C949 H937 0.950 . S
C949 C945 1.393 . S
C949 C948 1.391 . S
C950 H940 0.950 . S
C950 C951 1.386 . S
C950 C952 1.391 . S
C951 C950 1.386 . S
C951 C955 1.393 . S
C952 H941 0.950 . S
C952 C950 1.391 . S
C952 C953 1.400 . S
C953 C947 1.491 . S
C953 C952 1.400 . S
C953 C954 1.398 . S
C954 H942 0.950 . S
C954 C953 1.398 . S
C954 C955 1.391 . S
C955 H943 0.950 . S
C955 C951 1.393 . S
C955 C954 1.391 . S
H956 C964 0.950 1_556 S
H957 C969 0.950 . S
H958 C966 0.950 . S
H959 C968 0.950 . S
H960 C970 0.950 . S
H961 C972 0.950 . S
H962 C974 0.955 . S
H963 C975 0.950 . S
C964 H956 0.950 1_554 S
C964 C965 1.386 . S
C964 C966 1.391 . S
C965 C964 1.386 . S
C965 C969 1.393 . S
C966 H958 0.950 . S
C966 C964 1.391 . S
C966 C967 1.400 . S
C967 C966 1.400 . S
C967 C968 1.398 . S
C967 C973 1.491 1_565 S
C968 H959 0.950 . S
C968 C967 1.398 . S
C968 C969 1.391 . S
C969 H957 0.950 . S
C969 C965 1.393 . S
C969 C968 1.391 . S
C970 H960 0.950 . S
C970 C971 1.386 . S
C970 C972 1.391 . S
C971 C970 1.386 . S
C971 C975 1.393 . S
C972 H961 0.950 . S
C972 C970 1.391 . S
C972 C973 1.400 . S
C973 C967 1.491 1_545 S
C973 C972 1.400 . S
C973 C974 1.398 . S
C974 H962 0.955 . S
C974 C973 1.398 . S
C974 C975 1.391 . S
C975 H963 0.950 . S
C975 C971 1.393 . S
C975 C974 1.391 . S
H976 C984 0.950 1_556 S
H977 C989 0.950 . S
H978 C986 0.950 1_556 S
H979 C988 0.950 . S
H980 C990 0.950 . S
H981 C992 0.950 . S
H982 C994 0.950 . S
H983 C995 0.950 . S
C984 H976 0.950 1_554 S
C984 C985 1.386 . S
C984 C986 1.391 1_655 S
C985 C984 1.386 . S
C985 C989 1.393 1_655 S
C986 H978 0.950 1_554 S
C986 C984 1.391 1_455 S
C986 C987 1.400 . S
C987 C986 1.400 . S
C987 C988 1.398 . S
C987 C993 1.491 . S
C988 H979 0.950 . S
C988 C987 1.398 . S
C988 C989 1.391 . S
C989 H977 0.950 . S
C989 C985 1.393 1_455 S
C989 C988 1.391 . S
C990 H980 0.950 . S
C990 C991 1.386 . S
C990 C992 1.391 . S
C991 C990 1.386 . S
C991 C995 1.393 1_554 S
C992 H981 0.950 . S
C992 C990 1.391 . S
C992 C993 1.400 . S
C993 C987 1.491 . S
C993 C992 1.400 . S
C993 C994 1.398 1_554 S
C994 H982 0.950 . S
C994 C993 1.398 1_556 S
C994 C995 1.391 . S
C995 H983 0.950 . S
C995 C991 1.393 1_556 S
C995 C994 1.391 . S
H996 C1004 0.950 . S
H997 C1009 0.950 . S
H998 C1006 0.950 . S
H999 C1008 0.950 . S
H1000 C1010 0.950 . S
H1001 C1012 0.950 1_556 S
H1002 C1014 0.950 . S
H1003 C1015 0.950 . S
C1004 H996 0.950 . S
C1004 C1005 1.386 . S
C1004 C1006 1.391 . S
C1005 C1004 1.386 . S
C1005 C1009 1.393 1_554 S
C1006 H998 0.950 . S
C1006 C1004 1.391 . S
C1006 C1007 1.400 . S
C1007 C1006 1.400 . S
C1007 C1008 1.398 1_554 S
C1007 C1013 1.491 . S
C1008 H999 0.950 . S
C1008 C1007 1.398 1_556 S
C1008 C1009 1.391 . S
C1009 H997 0.950 . S
C1009 C1005 1.393 1_556 S
C1009 C1008 1.391 . S
C1010 H1000 0.950 . S
C1010 C1011 1.386 . S
C1010 C1012 1.391 . S
C1011 C1010 1.386 . S
C1011 C1015 1.393 . S
C1012 H1001 0.950 1_554 S
C1012 C1010 1.391 . S
C1012 C1013 1.400 . S
C1013 C1007 1.491 . S
C1013 C1012 1.400 . S
C1013 C1014 1.398 . S
C1014 H1002 0.950 . S
C1014 C1013 1.398 . S
C1014 C1015 1.391 . S
C1015 H1003 0.950 . S
C1015 C1011 1.393 . S
C1015 C1014 1.391 . S
H1016 C1024 0.950 1_556 S
H1017 C1029 0.950 . S
H1018 C1026 0.950 1_556 S
H1019 C1028 0.950 . S
H1020 C1030 0.950 . S
H1021 C1032 0.950 . S
H1022 C1034 0.950 . S
H1023 C1035 0.950 . S
C1024 H1016 0.950 1_554 S
C1024 C1025 1.386 . S
C1024 C1026 1.391 . S
C1025 C1024 1.386 . S
C1025 C1029 1.393 . S
C1026 H1018 0.950 1_554 S
C1026 C1024 1.391 . S
C1026 C1027 1.400 . S
C1027 C1026 1.400 . S
C1027 C1028 1.398 . S
C1027 C1033 1.491 . S
C1028 H1019 0.950 . S
C1028 C1027 1.398 . S
C1028 C1029 1.391 . S
C1029 H1017 0.950 . S
C1029 C1025 1.393 . S
C1029 C1028 1.391 . S
C1030 H1020 0.950 . S
C1030 C1031 1.386 1_554 S
C1030 C1032 1.391 . S
C1031 C1030 1.386 1_556 S
C1031 C1035 1.393 . S
C1032 H1021 0.950 . S
C1032 C1030 1.391 . S
C1032 C1033 1.400 . S
C1033 C1027 1.491 . S
C1033 C1032 1.400 . S
C1033 C1034 1.398 1_554 S
C1034 H1022 0.950 . S
C1034 C1033 1.398 1_556 S
C1034 C1035 1.391 . S
C1035 H1023 0.950 . S
C1035 C1031 1.393 . S
C1035 C1034 1.391 . S
H1036 C1044 0.950 . S
H1037 C1049 0.950 . S
H1038 C1046 0.950 . S
H1039 C1048 0.950 . S
H1040 C1050 0.950 . S
H1041 C1052 0.950 . S
H1042 C1054 0.950 . S
H1043 C1055 0.950 . S
C1044 H1036 0.950 . S
C1044 C1045 1.386 . S
C1044 C1046 1.391 . S
C1045 C1044 1.386 . S
C1045 C1049 1.393 1_554 S
C1046 H1038 0.950 . S
C1046 C1044 1.391 . S
C1046 C1047 1.400 . S
C1047 C1046 1.400 . S
C1047 C1048 1.398 1_554 S
C1047 C1053 1.496 . S
C1048 H1039 0.950 . S
C1048 C1047 1.398 1_556 S
C1048 C1049 1.391 . S
C1049 H1037 0.950 . S
C1049 C1045 1.393 1_556 S
C1049 C1048 1.391 . S
C1050 H1040 0.950 . S
C1050 C1051 1.386 . S
C1050 C1052 1.391 . S
C1051 C1050 1.386 . S
C1051 C1055 1.393 1_556 S
C1052 H1041 0.950 . S
C1052 C1050 1.391 . S
C1052 C1053 1.388 1_556 S
C1053 C1047 1.496 . S
C1053 C1052 1.388 1_554 S
C1053 C1054 1.405 . S
C1054 H1042 0.950 . S
C1054 C1053 1.405 . S
C1054 C1055 1.391 . S
C1055 H1043 0.950 . S
C1055 C1051 1.393 1_554 S
C1055 C1054 1.391 . S
H1056 C1064 0.950 . S
H1057 C1069 0.950 . S
H1058 C1066 0.950 . S
H1059 C1068 0.950 . S
H1060 C1070 0.950 . S
H1061 C1072 0.950 . S
H1062 C1074 0.950 . S
H1063 C1075 0.950 . S
C1064 H1056 0.950 . S
C1064 C1065 1.386 . S
C1064 C1066 1.391 . S
C1065 C1064 1.386 . S
C1065 C1069 1.393 . S
C1066 H1058 0.950 . S
C1066 C1064 1.391 . S
C1066 C1067 1.400 . S
C1067 C1066 1.400 . S
C1067 C1068 1.398 . S
C1067 C1073 1.491 . S
C1068 H1059 0.950 . S
C1068 C1067 1.398 . S
C1068 C1069 1.391 . S
C1069 H1057 0.950 . S
C1069 C1065 1.393 . S
C1069 C1068 1.391 . S
C1070 H1060 0.950 . S
C1070 C1071 1.386 . S
C1070 C1072 1.391 . S
C1071 C1070 1.386 . S
C1071 C1075 1.393 . S
C1072 H1061 0.950 . S
C1072 C1070 1.391 . S
C1072 C1073 1.400 . S
C1073 C1067 1.491 . S
C1073 C1072 1.400 . S
C1073 C1074 1.398 . S
C1074 H1062 0.950 . S
C1074 C1073 1.398 . S
C1074 C1075 1.391 . S
C1075 H1063 0.950 . S
C1075 C1071 1.393 . S
C1075 C1074 1.391 . S
H1076 C1084 0.950 . S
H1077 C1089 0.950 . S
H1078 C1086 0.950 . S
H1079 C1088 0.950 . S
H1080 C1090 0.950 . S
H1081 C1092 0.950 . S
H1082 C1094 0.950 . S
H1083 C1095 0.950 . S
C1084 H1076 0.950 . S
C1084 C1085 1.386 . S
C1084 C1086 1.391 . S
C1085 C1084 1.386 . S
C1085 C1089 1.393 . S
C1086 H1078 0.950 . S
C1086 C1084 1.391 . S
C1086 C1087 1.400 . S
C1087 C1086 1.400 . S
C1087 C1088 1.398 . S
C1087 C1093 1.491 . S
C1088 H1079 0.950 . S
C1088 C1087 1.398 . S
C1088 C1089 1.391 . S
C1089 H1077 0.950 . S
C1089 C1085 1.393 . S
C1089 C1088 1.391 . S
C1090 H1080 0.950 . S
C1090 C1091 1.386 . S
C1090 C1092 1.391 . S
C1091 C1090 1.386 . S
C1091 C1095 1.393 . S
C1092 H1081 0.950 . S
C1092 C1090 1.391 . S
C1092 C1093 1.400 . S
C1093 C1087 1.491 . S
C1093 C1092 1.400 . S
C1093 C1094 1.398 . S
C1094 H1082 0.950 . S
C1094 C1093 1.398 . S
C1094 C1095 1.391 . S
C1095 H1083 0.950 . S
C1095 C1091 1.393 . S
C1095 C1094 1.391 . S
H1096 C1104 0.950 . S
H1097 C1109 0.950 . S
H1098 C1106 0.950 . S
H1099 C1108 0.950 . S
H1100 C1110 0.950 1_554 S
H1101 C1112 0.950 . S
H1102 C1114 0.950 . S
H1103 C1115 0.950 . S
C1104 H1096 0.950 . S
C1104 C1105 1.386 . S
C1104 C1106 1.391 . S
C1105 C1104 1.386 . S
C1105 C1109 1.393 . S
C1106 H1098 0.950 . S
C1106 C1104 1.391 . S
C1106 C1107 1.400 . S
C1107 C1106 1.400 . S
C1107 C1108 1.398 . S
C1107 C1113 1.491 . S
C1108 H1099 0.950 . S
C1108 C1107 1.398 . S
C1108 C1109 1.391 . S
C1109 H1097 0.950 . S
C1109 C1105 1.393 . S
C1109 C1108 1.391 . S
C1110 H1100 0.950 1_556 S
C1110 C1111 1.386 . S
C1110 C1112 1.391 . S
C1111 C1110 1.386 . S
C1111 C1115 1.393 . S
C1112 H1101 0.950 . S
C1112 C1110 1.391 . S
C1112 C1113 1.400 . S
C1113 C1107 1.491 . S
C1113 C1112 1.400 . S
C1113 C1114 1.398 . S
C1114 H1102 0.950 . S
C1114 C1113 1.398 . S
C1114 C1115 1.391 . S
C1115 H1103 0.950 . S
C1115 C1111 1.393 . S
C1115 C1114 1.391 . S
H1116 C1124 0.950 . S
H1117 C1129 0.950 . S
H1118 C1126 0.950 . S
H1119 C1128 0.950 . S
H1120 C1130 0.950 . S
H1121 C1132 0.950 . S
H1122 C1134 0.950 . S
H1123 C1135 0.950 . S
C1124 H1116 0.950 . S
C1124 C1125 1.386 . S
C1124 C1126 1.391 . S
C1125 C1124 1.386 . S
C1125 C1129 1.393 . S
C1126 H1118 0.950 . S
C1126 C1124 1.391 . S
C1126 C1127 1.400 . S
C1127 C1126 1.400 . S
C1127 C1128 1.398 . S
C1127 C1133 1.491 . S
C1128 H1119 0.950 . S
C1128 C1127 1.398 . S
C1128 C1129 1.391 . S
C1129 H1117 0.950 . S
C1129 C1125 1.393 . S
C1129 C1128 1.391 . S
C1130 H1120 0.950 . S
C1130 C1131 1.386 . S
C1130 C1132 1.391 . S
C1131 C1130 1.386 . S
C1131 C1135 1.393 . S
C1132 H1121 0.950 . S
C1132 C1130 1.391 . S
C1132 C1133 1.400 . S
C1133 C1127 1.491 . S
C1133 C1132 1.400 . S
C1133 C1134 1.398 . S
C1134 H1122 0.950 . S
C1134 C1133 1.398 . S
C1134 C1135 1.391 . S
C1135 H1123 0.950 . S
C1135 C1131 1.393 . S
C1135 C1134 1.391 . S
H1136 C1144 0.950 . S
H1137 C1149 0.950 . S
H1138 C1146 0.950 . S
H1139 C1148 0.950 . S
H1140 C1150 0.950 . S
H1141 C1152 0.950 . S
H1142 C1154 0.950 . S
H1143 C1155 0.950 . S
C1144 H1136 0.950 . S
C1144 C1145 1.386 . S
C1144 C1146 1.391 . S
C1145 C1144 1.386 . S
C1145 C1149 1.393 . S
C1146 H1138 0.950 . S
C1146 C1144 1.391 . S
C1146 C1147 1.400 . S
C1147 C1146 1.400 . S
C1147 C1148 1.398 . S
C1147 C1153 1.491 . S
C1148 H1139 0.950 . S
C1148 C1147 1.398 . S
C1148 C1149 1.391 . S
C1149 H1137 0.950 . S
C1149 C1145 1.393 . S
C1149 C1148 1.391 . S
C1150 H1140 0.950 . S
C1150 C1151 1.386 . S
C1150 C1152 1.391 . S
C1151 C1150 1.386 . S
C1151 C1155 1.393 . S
C1152 H1141 0.950 . S
C1152 C1150 1.391 . S
C1152 C1153 1.400 . S
C1153 C1147 1.491 . S
C1153 C1152 1.400 . S
C1153 C1154 1.398 . S
C1154 H1142 0.950 . S
C1154 C1153 1.398 . S
C1154 C1155 1.391 . S
C1155 H1143 0.950 . S
C1155 C1151 1.393 . S
C1155 C1154 1.391 . S
H1156 C1164 0.950 . S
H1157 C1169 0.950 . S
H1158 C1166 0.950 . S
H1159 C1168 0.950 . S
H1160 C1170 0.950 . S
H1161 C1172 0.950 . S
H1162 C1174 0.950 . S
H1163 C1175 0.950 . S
C1164 H1156 0.950 . S
C1164 C1165 1.445 . S
C1164 C1166 1.391 . S
C1165 C1164 1.445 . S
C1165 C1169 1.350 1_545 S
C1166 H1158 0.950 . S
C1166 C1164 1.391 . S
C1166 C1167 1.400 . S
C1167 C1166 1.400 . S
C1167 C1168 1.398 1_545 S
C1167 C1173 1.491 . S
C1168 H1159 0.950 . S
C1168 C1167 1.398 1_565 S
C1168 C1169 1.391 . S
C1169 H1157 0.950 . S
C1169 C1165 1.350 1_565 S
C1169 C1168 1.391 . S
C1170 H1160 0.950 . S
C1170 C1171 1.386 1_565 S
C1170 C1172 1.391 . S
C1171 C1170 1.386 1_545 S
C1171 C1175 1.393 . S
C1172 H1161 0.950 . S
C1172 C1170 1.391 . S
C1172 C1173 1.400 1_565 S
C1173 C1167 1.491 . S
C1173 C1172 1.400 1_545 S
C1173 C1174 1.398 . S
C1174 H1162 0.950 . S
C1174 C1173 1.398 . S
C1174 C1175 1.391 . S
C1175 H1163 0.950 . S
C1175 C1171 1.393 . S
C1175 C1174 1.391 . S
H1176 C1184 0.950 . S
H1177 C1189 0.950 . S
H1178 C1186 0.950 . S
H1179 C1188 0.950 . S
H1180 C1190 0.950 . S
H1181 C1192 0.950 . S
H1182 C1194 0.950 . S
H1183 C1195 0.950 . S
C1184 H1176 0.950 . S
C1184 C1185 1.386 . S
C1184 C1186 1.391 . S
C1185 C1184 1.386 . S
C1185 C1189 1.393 . S
C1186 H1178 0.950 . S
C1186 C1184 1.391 . S
C1186 C1187 1.400 . S
C1187 C1186 1.400 . S
C1187 C1188 1.398 . S
C1187 C1193 1.491 . S
C1188 H1179 0.950 . S
C1188 C1187 1.398 . S
C1188 C1189 1.391 . S
C1189 H1177 0.950 . S
C1189 C1185 1.393 . S
C1189 C1188 1.391 . S
C1190 H1180 0.950 . S
C1190 C1191 1.386 . S
C1190 C1192 1.391 . S
C1191 C1190 1.386 . S
C1191 C1195 1.393 . S
C1192 H1181 0.950 . S
C1192 C1190 1.391 . S
C1192 C1193 1.400 . S
C1193 C1187 1.491 . S
C1193 C1192 1.400 . S
C1193 C1194 1.398 . S
C1194 H1182 0.950 . S
C1194 C1193 1.398 . S
C1194 C1195 1.391 . S
C1195 H1183 0.950 . S
C1195 C1191 1.393 . S
C1195 C1194 1.391 . S
H1196 C1204 0.950 . S
H1197 C1209 0.950 . S
H1198 C1206 0.950 . S
H1199 C1208 0.950 . S
H1200 C1210 0.950 . S
H1201 C1212 0.950 . S
H1202 C1214 0.950 . S
H1203 C1215 0.950 . S
C1204 H1196 0.950 . S
C1204 C1205 1.386 . S
C1204 C1206 1.391 . S
C1205 C1204 1.386 . S
C1205 C1209 1.393 . S
C1206 H1198 0.950 . S
C1206 C1204 1.391 . S
C1206 C1207 1.400 . S
C1207 C1206 1.400 . S
C1207 C1208 1.398 . S
C1207 C1213 1.491 . S
C1208 H1199 0.950 . S
C1208 C1207 1.398 . S
C1208 C1209 1.391 . S
C1209 H1197 0.950 . S
C1209 C1205 1.393 . S
C1209 C1208 1.391 . S
C1210 H1200 0.950 . S
C1210 C1211 1.386 . S
C1210 C1212 1.391 . S
C1211 C1210 1.386 . S
C1211 C1215 1.393 . S
C1212 H1201 0.950 . S
C1212 C1210 1.391 . S
C1212 C1213 1.400 . S
C1213 C1207 1.491 . S
C1213 C1212 1.400 . S
C1213 C1214 1.398 . S
C1214 H1202 0.950 . S
C1214 C1213 1.398 . S
C1214 C1215 1.391 . S
C1215 H1203 0.950 . S
C1215 C1211 1.393 . S
C1215 C1214 1.391 . S
H1216 C1224 0.950 . S
H1217 C1229 0.950 . S
H1218 C1226 0.950 . S
H1219 C1228 0.950 . S
H1220 C1230 0.950 . S
H1221 C1232 0.950 . S
H1222 C1234 0.950 . S
H1223 C1235 0.950 . S
C1224 H1216 0.950 . S
C1224 C1225 1.386 . S
C1224 C1226 1.391 . S
C1225 C1224 1.386 . S
C1225 C1229 1.393 . S
C1226 H1218 0.950 . S
C1226 C1224 1.391 . S
C1226 C1227 1.400 . S
C1227 C1226 1.400 . S
C1227 C1228 1.398 . S
C1227 C1233 1.491 . S
C1228 H1219 0.950 . S
C1228 C1227 1.398 . S
C1228 C1229 1.391 . S
C1229 H1217 0.950 . S
C1229 C1225 1.393 . S
C1229 C1228 1.391 . S
C1230 H1220 0.950 . S
C1230 C1231 1.386 . S
C1230 C1232 1.391 . S
C1231 C1230 1.386 . S
C1231 C1235 1.393 . S
C1232 H1221 0.950 . S
C1232 C1230 1.391 . S
C1232 C1233 1.400 . S
C1233 C1227 1.491 . S
C1233 C1232 1.400 . S
C1233 C1234 1.398 . S
C1234 H1222 0.950 . S
C1234 C1233 1.398 . S
C1234 C1235 1.391 . S
C1235 H1223 0.950 . S
C1235 C1231 1.393 . S
C1235 C1234 1.391 . S
H1236 C1244 0.950 . S
H1237 C1249 0.950 . S
H1238 C1246 0.950 . S
H1239 C1248 0.950 . S
H1240 C1250 0.950 . S
H1241 C1252 0.950 . S
H1242 C1254 0.950 . S
H1243 C1255 0.950 . S
C1244 H1236 0.950 . S
C1244 C1245 1.386 . S
C1244 C1246 1.391 . S
C1245 C1244 1.386 . S
C1245 C1249 1.393 . S
C1246 H1238 0.950 . S
C1246 C1244 1.391 . S
C1246 C1247 1.400 . S
C1247 C1246 1.400 . S
C1247 C1248 1.398 . S
C1247 C1253 1.491 . S
C1248 H1239 0.950 . S
C1248 C1247 1.398 . S
C1248 C1249 1.391 . S
C1249 H1237 0.950 . S
C1249 C1245 1.393 . S
C1249 C1248 1.391 . S
C1250 H1240 0.950 . S
C1250 C1251 1.386 . S
C1250 C1252 1.391 . S
C1251 C1250 1.386 . S
C1251 C1255 1.393 . S
C1252 H1241 0.950 . S
C1252 C1250 1.391 . S
C1252 C1253 1.400 . S
C1253 C1247 1.491 . S
C1253 C1252 1.400 . S
C1253 C1254 1.398 . S
C1254 H1242 0.950 . S
C1254 C1253 1.398 . S
C1254 C1255 1.391 . S
C1255 H1243 0.950 . S
C1255 C1251 1.393 . S
C1255 C1254 1.391 . S
H1256 C1264 0.950 . S
H1257 C1269 0.950 . S
H1258 C1266 0.950 . S
H1259 C1268 0.950 . S
H1260 C1270 0.950 . S
H1261 C1272 0.950 . S
H1262 C1274 0.950 . S
H1263 C1275 0.950 . S
C1264 H1256 0.950 . S
C1264 C1265 1.386 . S
C1264 C1266 1.391 . S
C1265 C1264 1.386 . S
C1265 C1269 1.393 . S
C1266 H1258 0.950 . S
C1266 C1264 1.391 . S
C1266 C1267 1.400 . S
C1267 C1266 1.400 . S
C1267 C1268 1.398 . S
C1267 C1273 1.491 . S
C1268 H1259 0.950 . S
C1268 C1267 1.398 . S
C1268 C1269 1.391 . S
C1269 H1257 0.950 . S
C1269 C1265 1.393 . S
C1269 C1268 1.391 . S
C1270 H1260 0.950 . S
C1270 C1271 1.386 . S
C1270 C1272 1.391 . S
C1271 C1270 1.386 . S
C1271 C1275 1.393 . S
C1272 H1261 0.950 . S
C1272 C1270 1.391 . S
C1272 C1273 1.400 . S
C1273 C1267 1.491 . S
C1273 C1272 1.400 . S
C1273 C1274 1.398 . S
C1274 H1262 0.950 . S
C1274 C1273 1.398 . S
C1274 C1275 1.391 . S
C1275 H1263 0.950 . S
C1275 C1271 1.393 . S
C1275 C1274 1.391 . S
H1276 C1284 0.950 . S
H1277 C1289 0.950 . S
H1278 C1286 0.950 . S
H1279 C1288 0.950 . S
H1280 C1290 0.950 . S
H1281 C1292 0.950 . S
H1282 C1294 0.950 . S
H1283 C1295 0.950 . S
C1284 H1276 0.950 . S
C1284 C1285 1.386 . S
C1284 C1286 1.391 . S
C1285 C1284 1.386 . S
C1285 C1289 1.393 . S
C1286 H1278 0.950 . S
C1286 C1284 1.391 . S
C1286 C1287 1.400 . S
C1287 C1286 1.400 . S
C1287 C1288 1.398 . S
C1287 C1293 1.491 . S
C1288 H1279 0.950 . S
C1288 C1287 1.398 . S
C1288 C1289 1.391 . S
C1289 H1277 0.950 . S
C1289 C1285 1.393 . S
C1289 C1288 1.391 . S
C1290 H1280 0.950 . S
C1290 C1291 1.386 . S
C1290 C1292 1.391 . S
C1291 C1290 1.386 . S
C1291 C1295 1.393 . S
C1292 H1281 0.950 . S
C1292 C1290 1.391 . S
C1292 C1293 1.400 . S
C1293 C1287 1.491 . S
C1293 C1292 1.400 . S
C1293 C1294 1.398 . S
C1294 H1282 0.950 . S
C1294 C1293 1.398 . S
C1294 C1295 1.391 . S
C1295 H1283 0.950 . S
C1295 C1291 1.393 . S
C1295 C1294 1.391 . S
C765 C69 1.092 . S
C771 C657 1.120 . S
C785 C140 2.222 . S
C791 C728 2.229 . S
C805 C237 1.302 . S
C811 C560 1.495 . S
C825 C392 2.353 . S
C831 C224 2.367 . S
C845 C476 2.256 . S
C851 C56 2.260 . S
C865 C153 1.907 . S
C871 C308 2.156 . S
C885 C644 1.583 . S
C891 C489 1.463 . S
C905 C741 1.246 . S
C911 C321 1.266 . S
C925 C405 1.559 . S
C931 C573 1.589 . S
C945 C226 1.404 . S
C951 C67 1.746 . S
C965 C142 1.177 . S
C971 C58 1.202 . S
C985 C151 2.957 . S
C991 C235 2.982 1_554 S
C1005 C310 1.605 . S
C1011 C487 2.054 . S
C1025 C319 2.043 . S
C1031 C394 1.663 . S
C1045 C403 1.990 . S
C1051 C478 1.514 . S
C1065 C730 1.768 . S
C1071 C571 2.284 . S
C1085 C646 0.828 . S
C1091 C562 0.852 . S
C1105 C739 2.034 . S
C1111 C655 2.030 . S
C1125 C74 1.472 . S
C1131 C63 1.472 . S
C1145 C147 1.495 . S
C1151 C158 1.495 . S
C1165 C242 1.540 . S
C1171 C231 1.539 . S
C1185 C326 1.475 . S
C1191 C315 1.475 . S
C1205 C410 1.478 . S
C1211 C399 1.478 . S
C1225 C494 1.490 . S
C1231 C483 1.490 1_556 S
C1245 C578 1.473 . S
C1251 C567 1.473 1_554 S
C1265 C662 1.467 . S
C1271 C651 1.467 . S
C1285 C746 1.483 . S
C1291 C735 1.483 . S
