# Generated by pormake.
# Topology sxc, (6)-cn, num edge types: 1
# Building blocks:
#     Node 0, Type 0, BuildingBlock: HISSIN_clean_sbu_0, # of connection points: 6
#     Node 1, Type 0, BuildingBlock: HISSIN_clean_sbu_0, # of connection points: 6
#     Node 2, Type 0, BuildingBlock: HISSIN_clean_sbu_0, # of connection points: 6
#     Edge 3, Type (0, 0), BuildingBlock: ZUJKAS_clean_linker_0, # of connection points: 2
#     Edge 4, Type (0, 0), BuildingBlock: ZUJKAS_clean_linker_0, # of connection points: 2
#     Edge 5, Type (0, 0), BuildingBlock: ZUJKAS_clean_linker_0, # of connection points: 2
#     Edge 6, Type (0, 0), BuildingBlock: ZUJKAS_clean_linker_0, # of connection points: 2
#     Edge 7, Type (0, 0), BuildingBlock: ZUJKAS_clean_linker_0, # of connection points: 2
#     Edge 8, Type (0, 0), BuildingBlock: ZUJKAS_clean_linker_0, # of connection points: 2
#     Edge 9, Type (0, 0), BuildingBlock: ZUJKAS_clean_linker_0, # of connection points: 2
#     Edge 10, Type (0, 0), BuildingBlock: ZUJKAS_clean_linker_0, # of connection points: 2
#     Edge 11, Type (0, 0), BuildingBlock: ZUJKAS_clean_linker_0, # of connection points: 2
# Relax obj value: 0.210
# Max RMSD: 0.135
# Mean RMSD: 0.083
data_MOF--net-sxc--node1-HISSIN_clean_sbu_0--edge1-ZUJKAS_clean_linker_0
_symmetry_space_group_name_H-M    P1
_symmetry_Int_Tables_number       1
_symmetry_cell_setting            triclinic
loop_
_symmetry_equiv_pos_as_xyz
'x, y, z'
_cell_length_a     21.857714
_cell_length_b     20.38541
_cell_length_c     59.997653
_cell_angle_alpha  92.80477
_cell_angle_beta   96.524008
_cell_angle_gamma 98.53809
loop_
_atom_site_label
_atom_site_type_symbol
_atom_site_fract_x
_atom_site_fract_y
_atom_site_fract_z
_atom_type_partial_charge
Eu0 Eu 0.24847 0.07953 0.0108 0.0
Eu1 Eu 1.09665 0.05706 0.00461 0.0
C2 C 0.17105 0.06303 0.96188 0.0
C3 C 0.41256 0.1491 0.00363 0.0
C4 C 0.3887 0.19654 -0.00956 0.0
C5 C 0.51741 0.19732 -0.00193 0.0
C6 C 0.42894 0.24452 0.98127 0.0
C7 C 0.47695 0.14919 0.00725 0.0
C8 C 0.49377 0.2458 -0.01487 0.0
C9 C 0.36973 0.09978 0.01342 0.0
O10 O 0.11822 0.95218 0.00932 0.0
O11 O 0.22284 0.96703 0.00572 0.0
C12 C 0.17021 0.92784 0.0075 0.0
O13 O 0.22082 0.05404 0.04491 0.0
O14 O 1.01018 0.07264 -0.01481 0.0
O15 O 1.00701 1.01919 0.01549 0.0
O16 O 0.12594 0.08932 0.04131 0.0
C17 C 0.17337 0.07213 0.05392 0.0
O18 O 0.22691 0.18539 0.0144 0.0
O19 O 0.12203 0.16852 0.002 0.0
O20 O 0.12536 1.02933 0.97088 0.0
O21 O 0.33898 0.12344 0.02859 0.0
O22 O 0.33395 0.05701 -0.00111 0.0
O23 O 0.21806 0.09855 0.97472 0.0
C24 C 0.93256 0.98005 0.98489 0.0
C25 C 0.95555 0.9356 0.97058 0.0
C26 C 0.83122 0.911 0.97887 0.0
C27 C 0.9169 0.87847 0.96079 0.0
C28 C 0.86999 0.9683 -0.01136 0.0
C29 C 0.85478 0.8647 0.96531 0.0
C30 C 0.97536 1.03511 -0.00268 0.0
C31 C 0.17483 0.20874 0.00828 0.0
H32 H 0.3389 0.19694 -0.01252 0.0
H33 H 0.56713 0.19688 0.00118 0.0
H34 H 0.40931 0.28184 0.97174 0.0
H35 H 0.49588 0.11247 0.0173 0.0
H36 H 1.00398 0.94392 0.96759 0.0
H37 H 0.78382 0.90126 0.98293 0.0
H38 H 0.93616 0.84403 0.95027 0.0
H39 H 0.8518 1.00204 -0.00023 0.0
Eu40 Eu 1.0535 1.02336 0.33278 0.0
Eu41 Eu 0.2034 0.04934 0.34336 0.0
C42 C 0.11868 1.0319 0.38465 0.0
C43 C 0.90234 1.03349 0.29952 0.0
C44 C 0.92592 0.09779 0.294 0.0
C45 C 0.82296 1.02437 0.26735 0.0
C46 C 0.89747 0.12567 0.27553 0.0
C47 C 0.85116 0.9967 0.28596 0.0
C48 C 0.84558 0.08931 0.26206 0.0
C49 C 0.93548 1.00224 0.31777 0.0
O50 O 0.18074 0.93972 0.34972 0.0
O51 O 1.08172 0.91979 0.33107 0.0
C52 C 0.13127 0.89781 0.34078 0.0
O53 O 1.09034 0.06162 0.30136 0.0
O54 O 0.2944 1.01854 0.3421 0.0
O55 O 0.28911 0.11931 0.35373 0.0
O56 O 0.18161 1.02134 0.30613 0.0
C57 C 0.13836 0.04337 0.29299 0.0
O58 O 1.07402 0.13509 0.34115 0.0
O59 O 0.17666 0.15086 0.33551 0.0
O60 O 0.17286 0.05463 0.37803 0.0
O61 O 0.97513 0.96593 0.31116 0.0
O62 O 0.95837 0.04036 0.33583 0.0
O63 O 1.06856 1.01089 0.37023 0.0
C64 C 0.35689 0.10546 0.32672 0.0
C65 C 0.34796 0.06934 0.30571 0.0
C66 C 0.4137 0.19863 0.31004 0.0
C67 C 0.37106 0.09762 0.28711 0.0
C68 C 0.39034 0.17025 0.32874 0.0
C69 C 0.40374 0.16274 0.28897 0.0
C70 C 0.32337 0.07958 0.34528 0.0
C71 C 0.12541 0.17514 0.33859 0.0
H72 H 0.9666 0.12635 0.3039 0.0
H73 H 0.78237 0.99567 0.25746 0.0
H74 H 0.91583 0.17573 0.2718 0.0
H75 H 0.83322 0.94652 0.28971 0.0
H76 H 0.32188 1.0195 0.30342 0.0
H77 H 0.43888 0.24889 0.31201 0.0
H78 H 0.36399 0.06792 0.27129 0.0
H79 H 0.39695 0.19953 0.34464 0.0
Eu80 Eu 0.11091 0.96881 0.6721 0.0
Eu81 Eu 0.13039 0.1228 0.67333 0.0
C82 C 0.13439 0.05212 0.71885 0.0
C83 C 1.02727 0.7941 0.66883 0.0
C84 C 0.97388 0.81366 0.67643 0.0
C85 C 0.9649 0.69096 0.65235 0.0
C86 C 0.91672 0.7723 0.67214 0.0
C87 C 1.02256 0.73248 0.65679 0.0
C88 C 0.91156 0.71063 0.66005 0.0
C89 C 1.08666 0.83972 0.67248 0.0
O90 O 0.23593 0.10125 0.67697 0.0
O91 O 0.21864 0.98969 0.66769 0.0
C92 C 0.25969 0.04572 0.67226 0.0
O93 O 1.08442 0.99014 0.63591 0.0
O94 O 0.17252 0.21841 0.69033 0.0
O95 O 0.11068 0.21491 0.65921 0.0
O96 O 0.14205 0.09274 0.6376 0.0
C97 C 0.11122 0.04012 0.62578 0.0
O98 O 1.00792 0.99074 0.67612 0.0
O99 O 1.01958 0.09968 0.66838 0.0
O100 O 0.10864 0.097 0.70801 0.0
O101 O 1.10327 0.87006 0.65498 0.0
O102 O 1.09468 0.87989 0.69051 0.0
O103 O 0.15434 1.00521 0.70737 0.0
C104 C 0.19757 0.29849 0.66496 0.0
C105 C 0.23867 0.27377 0.65159 0.0
C106 C 0.25192 0.41018 0.66305 0.0
C107 C 0.28682 0.31685 0.64428 0.0
C108 C 0.20365 0.36687 0.67038 0.0
C109 C 0.29465 0.38539 0.65026 0.0
C110 C 0.15073 0.25219 0.67412 0.0
C111 C 0.98126 0.04491 0.67218 0.0
H112 H 0.97603 0.86136 0.6855 0.0
H113 H 0.96201 0.64358 0.64298 0.0
H114 H 0.87618 0.78938 0.67788 0.0
H115 H 1.06321 0.71689 0.65063 0.0
H116 H 0.23459 0.22086 0.64736 0.0
H117 H 0.25659 0.46282 0.66775 0.0
H118 H 0.31952 0.29602 0.6348 0.0
H119 H 0.17205 0.38651 0.68068 0.0
H120 H 1.07494 0.27681 0.00136 0.0
H121 H 1.07529 0.39697 0.0012 0.0
H122 H 0.27552 0.43067 0.0153 0.0
H123 H 0.27564 0.31036 0.0154 0.0
H124 H 0.11803 0.49864 0.03471 0.0
H125 H 0.24807 0.54201 0.96131 0.0
H126 H 0.21481 0.45986 0.96791 0.0
H127 H 0.28692 0.50076 0.98324 0.0
C128 C 0.11926 0.30951 0.00436 0.0
C129 C 0.1753 0.28295 0.00832 0.0
C130 C 0.11934 0.37868 0.00431 0.0
C131 C 0.17543 0.42382 0.00791 0.0
C132 C 0.23149 0.39754 0.01202 0.0
H133 H 0.27036 0.85938 0.00982 0.0
H134 H 0.27042 0.73948 0.01041 0.0
C135 C 0.23145 0.3283 0.01223 0.0
C136 C 0.17492 0.49796 0.00774 0.0
H137 H 0.22782 0.63752 0.9815 0.0
C138 C 0.1419 0.52885 0.02299 0.0
C139 C 0.20612 0.5383 -0.00741 0.0
C140 C 0.24057 0.50868 0.97518 0.0
C141 C 0.14028 0.59815 0.02384 0.0
C142 C 0.171 0.63855 0.00853 0.0
C143 C 0.20404 0.6075 -0.00672 0.0
C144 C 0.17022 0.7128 0.0082 0.0
C145 C 0.1072 0.6275 0.04174 0.0
C146 C 0.11397 0.73942 0.00644 0.0
C147 C 0.11383 0.80863 0.00631 0.0
C148 C 0.16993 0.85369 0.00757 0.0
C149 C 0.22607 0.82688 0.00886 0.0
C150 C 0.22618 0.75778 0.00917 0.0
H151 H 1.10375 0.59537 0.05612 0.0
H152 H 0.13149 0.67769 0.04821 0.0
H153 H 1.05907 0.63183 0.03449 0.0
H154 H 1.06976 0.70662 0.00493 0.0
H155 H 1.0695 0.82673 0.00501 0.0
H156 H 0.35166 0.15396 0.24475 0.0
H157 H 0.40829 0.17239 0.21203 0.0
H158 H 0.57574 0.2499 0.25633 0.0
H159 H 0.52 0.23205 0.28875 0.0
H160 H 0.57085 0.3042 0.21234 0.0
H161 H 0.51596 1.02734 0.206 0.0
H162 H 0.45546 0.07812 0.20215 0.0
H163 H 0.49411 0.07137 0.22987 0.0
C164 C 0.40022 0.1766 0.24741 0.0
C165 C 0.43193 0.18989 0.26934 0.0
C166 C 0.43231 0.18746 0.22869 0.0
C167 C 0.49651 0.21112 0.23176 0.0
C168 C 0.52612 0.23171 0.25352 0.0
H169 H 0.80904 0.21013 0.26526 0.0
H170 H 0.7289 0.24955 0.24085 0.0
C171 C 0.49418 0.22121 0.27215 0.0
C172 C 0.53687 0.20003 0.21417 0.0
H173 H 0.6186 0.07499 0.20411 0.0
C174 C 0.58031 0.25394 0.20944 0.0
C175 C 0.54793 0.13462 0.20902 0.0
C176 C 0.50096 0.07431 0.21186 0.0
C177 C 0.6397 0.2441 0.20455 0.0
C178 C 0.65583 0.1795 0.20537 0.0
C179 C 0.60769 0.12516 0.20463 0.0
C180 C 0.71914 0.16879 0.21502 0.0
C181 C 0.68651 0.30363 0.20107 0.0
C182 C 0.74288 0.11106 0.20869 0.0
C183 C 0.78775 0.08703 0.22329 0.0
C184 C 0.81059 0.12126 0.24418 0.0
C185 C 0.79252 0.18289 0.24922 0.0
C186 C 0.74693 0.2061 0.23493 0.0
H187 H 0.66515 0.33476 0.18862 0.0
H188 H 0.69963 0.33488 0.21707 0.0
H189 H 0.72908 0.28902 0.19503 0.0
H190 H 0.72266 0.08133 0.19344 0.0
H191 H 0.80177 0.03976 0.21889 0.0
H192 H 0.82603 0.6809 0.689 0.0
H193 H 0.71841 0.62553 0.67983 0.0
H194 H 0.74933 0.59095 0.6108 0.0
H195 H 0.85745 0.64724 0.61982 0.0
H196 H 0.63257 0.67399 0.64351 0.0
H197 H 0.66118 0.40741 0.6321 0.0
H198 H 0.71921 0.46722 0.64913 0.0
H199 H 0.71071 0.46928 0.61913 0.0
C200 C 0.81008 0.66102 0.67191 0.0
C201 C 0.84977 0.66876 0.65506 0.0
C202 C 0.74879 0.6294 0.66672 0.0
C203 C 0.7263 0.6046 0.64467 0.0
C204 C 0.76631 0.60959 0.62795 0.0
H205 H 0.34787 0.38629 0.61102 0.0
H206 H 0.44966 0.44647 0.60494 0.0
C207 C 0.82791 0.64138 0.63313 0.0
C208 C 0.65977 0.57728 0.63924 0.0
H209 H 0.55908 0.43142 0.63095 0.0
C210 C 0.61627 0.62105 0.64041 0.0
C211 C 0.63917 0.50843 0.635 0.0
C212 C 0.6847 0.45991 0.63379 0.0
C213 C 0.55229 0.59731 0.63841 0.0
C214 C 0.53178 0.52804 0.63557 0.0
C215 C 0.57512 0.48456 0.63312 0.0
C216 C 0.46694 0.49906 0.63778 0.0
C217 C 0.50743 0.64646 0.6399 0.0
C218 C 0.44292 0.5095 0.65814 0.0
C219 C 0.38523 0.47513 0.6617 0.0
C220 C 0.35072 0.42926 0.64501 0.0
C221 C 0.37375 0.4209 0.62426 0.0
C222 C 0.43162 0.45534 0.62072 0.0
H223 H 0.52705 0.69566 0.63442 0.0
H224 H 0.4622 0.62838 0.62948 0.0
H225 H 0.49861 0.65367 0.65764 0.0
H226 H 0.4702 0.54176 0.67173 0.0
H227 H 0.3694 0.48173 0.67801 0.0
H228 H 0.88431 0.95237 0.68779 0.0
H229 H 0.77212 0.95442 0.68821 0.0
H230 H 0.78996 0.13654 0.65468 0.0
H231 H 0.90196 0.13661 0.65583 0.0
H232 H 0.66614 0.94136 0.67143 0.0
H233 H 0.67409 0.21061 0.68506 0.0
H234 H 0.70803 0.19218 0.66019 0.0
H235 H 0.7443 0.17422 0.68741 0.0
C236 C 0.86527 0.99395 0.68071 0.0
C237 C 0.90704 0.04481 0.67207 0.0
C238 C 0.7986 0.99513 0.68085 0.0
C239 C 0.76644 0.04694 0.67219 0.0
C240 C 0.80842 0.09654 0.6629 0.0
H241 H 0.36759 0.14181 0.68971 0.0
H242 H 0.47999 0.13966 0.69006 0.0
C243 C 0.87513 0.09607 0.66318 0.0
C244 C 0.69162 0.04758 0.67243 0.0
H245 H 0.57493 0.14889 0.67356 0.0
C246 C 0.64766 0.98775 0.67199 0.0
C247 C 0.66112 0.10595 0.67373 0.0
C248 C 0.6992 0.17436 0.67688 0.0
C249 C 0.58034 0.98443 0.67249 0.0
C250 C 0.54938 0.04266 0.67239 0.0
C251 C 0.59346 0.10252 0.67317 0.0
C252 C 0.47442 0.04331 0.67218 0.0
C253 C 0.54385 0.91655 0.67423 0.0
C254 C 0.42595 0.99156 0.66192 0.0
C255 C 0.35945 0.99221 0.66223 0.0
C256 C 0.3338 0.04567 0.67214 0.0
C257 C 0.38164 0.09852 0.68178 0.0
C258 C 0.44837 0.09724 0.6819 0.0
H259 H 0.57408 0.88195 0.68165 0.0
H260 H 0.5057 0.91896 0.68482 0.0
H261 H 0.5239 0.89511 0.65714 0.0
H262 H 0.43868 0.94957 0.6529 0.0
H263 H 0.32747 0.94995 0.65409 0.0
H264 H 0.73128 0.83735 0.94815 0.0
H265 H 0.66602 0.72767 0.94285 0.0
H266 H 0.82755 0.63487 0.96159 0.0
H267 H 0.89278 0.74361 0.96695 0.0
H268 H 0.73966 0.56176 0.92653 0.0
H269 H 0.63302 0.63874 0.00175 0.0
H270 H 0.62753 0.69064 0.97847 0.0
H271 H 0.70244 0.68579 -0.00649 0.0
C272 C 0.75291 0.79342 0.95079 0.0
C273 C 0.81696 0.79906 0.9582 0.0
C274 C 0.71572 0.73097 0.94768 0.0
C275 C 0.74203 0.67356 0.95215 0.0
C276 C 0.80653 0.67871 0.95801 0.0
H277 H 0.59956 0.31689 0.00804 0.0
H278 H 0.66139 0.41688 -0.00318 0.0
C279 C 0.84373 0.74094 0.96102 0.0
C280 C 0.7022 0.60924 0.95364 0.0
H281 H 0.60125 0.52945 -0.01356 0.0
C282 C 0.70875 0.5546 0.93942 0.0
C283 C 0.66285 0.60029 0.97076 0.0
C284 C 0.65615 0.65669 -0.01285 0.0
C285 C 0.67742 0.49072 0.94211 0.0
C286 C 0.63871 0.48192 0.95938 0.0
C287 C 0.63117 0.53675 0.97324 0.0
C288 C 0.60735 0.41598 0.96425 0.0
C289 C 0.68754 0.43275 0.92712 0.0
C290 C 0.55748 0.38181 0.94937 0.0
C291 C 0.52221 0.32436 0.95569 0.0
C292 C 0.5362 0.30059 0.97702 0.0
C293 C 0.58804 0.33342 -0.00859 0.0
C294 C 0.62318 0.39073 -0.01491 0.0
H295 H 0.72649 0.44623 0.91698 0.0
H296 H 0.69754 0.39067 0.9373 0.0
H297 H 0.64443 0.41539 0.91543 0.0
H298 H 0.54422 0.40109 0.93332 0.0
H299 H 0.4829 0.29964 0.94416 0.0
H300 H 0.22608 0.27612 0.34184 0.0
H301 H 0.22654 0.39648 0.34299 0.0
H302 H 1.0257 0.36415 0.33579 0.0
H303 H 1.02515 0.24396 0.33556 0.0
H304 H 0.18928 0.47948 0.31537 0.0
H305 H 1.05229 0.49884 0.38665 0.0
H306 H 1.08007 0.42303 0.37888 0.0
H307 H 1.00963 0.44379 0.36414 0.0
C308 C 0.18186 0.29445 0.34065 0.0
C309 C 0.12558 0.24943 0.33885 0.0
C310 C 0.18217 0.36385 0.34128 0.0
C311 C 0.12624 0.39103 0.34005 0.0
C312 C 1.0699 0.34589 0.33764 0.0
H313 H 1.03275 0.79561 0.32956 0.0
H314 H 1.03282 0.67533 0.32951 0.0
C315 C 1.06958 0.2765 0.3373 0.0
C316 C 0.12709 0.46592 0.34072 0.0
H317 H 1.06852 0.59491 0.36567 0.0
C318 C 0.16313 0.50439 0.32655 0.0
C319 C 1.09337 0.50006 0.35526 0.0
C320 C 1.05723 0.46442 0.37225 0.0
C321 C 0.16532 0.57422 0.32619 0.0
C322 C 0.13084 0.60792 0.34044 0.0
C323 C 1.09485 0.56975 0.35461 0.0
C324 C 0.13124 0.68239 0.34078 0.0
C325 C 0.20364 0.61136 0.31009 0.0
C326 C 0.18627 0.72783 0.34745 0.0
C327 C 0.18629 0.7972 0.3477 0.0
C328 C 0.1313 0.8236 0.34116 0.0
C329 C 1.0762 0.7779 0.33464 0.0
C330 C 1.07611 0.70862 0.33463 0.0
H331 H 0.21608 0.57735 0.29688 0.0
H332 H 0.17813 0.64866 0.30186 0.0
H333 H 0.2475 0.63822 0.31956 0.0
H334 H 0.22943 0.70966 0.35263 0.0
H335 H 0.22972 0.83018 0.35287 0.0
H336 H 0.23393 1.01448 0.27004 0.0
H337 H 0.24344 1.02355 0.23001 0.0
H338 H 1.06521 0.09136 0.2204 0.0
H339 H 1.05581 0.08363 0.26046 0.0
H340 H 0.16604 0.95858 0.19312 0.0
H341 H 0.17549 0.23129 0.19039 0.0
H342 H 0.18675 0.19127 0.2164 0.0
H343 H 0.10943 0.19105 0.20243 0.0
C344 C 0.19687 1.03174 0.25948 0.0
C345 C 0.14422 0.04861 0.26859 0.0
C346 C 0.20236 1.03679 0.23654 0.0
C347 C 0.15549 0.05904 0.22216 0.0
C348 C 1.10268 0.07545 0.23118 0.0
H349 H 1.08295 0.10544 0.07872 0.0
H350 H 1.08062 0.1019 0.11932 0.0
C351 C 1.09719 0.07056 0.25412 0.0
C352 C 0.16081 0.06289 0.19764 0.0
H353 H 0.1621 0.16891 0.15514 0.0
C354 C 0.16563 1.00468 0.18486 0.0
C355 C 0.16026 0.123 0.18679 0.0
C356 C 0.1583 0.18788 0.19971 0.0
C357 C 0.16824 1.00454 0.1615 0.0
C358 C 0.16712 0.06454 0.1506 0.0
C359 C 0.16279 0.12287 0.16343 0.0
C360 C 0.16955 0.06761 0.12589 0.0
C361 C 0.17033 0.93964 0.14861 0.0
C362 C 0.2208 0.05059 0.11598 0.0
C363 C 0.22229 0.0525 0.0927 0.0
C364 C 0.17268 0.07187 0.07877 0.0
C365 C 0.12194 0.09007 0.08883 0.0
C366 C 0.12053 0.08816 0.1121 0.0
H367 H 0.1548 0.89618 0.15817 0.0
H368 H 0.14055 0.93542 0.13217 0.0
H369 H 0.21896 0.93739 0.14534 0.0
H370 H 0.25986 1.03596 0.12626 0.0
H371 H 0.26233 1.03853 0.08565 0.0
H372 H 0.21352 0.06132 0.4194 0.0
H373 H 0.20708 0.05851 0.45972 0.0
H374 H 1.00856 0.99552 0.44655 0.0
H375 H 1.01437 0.99841 0.40602 0.0
H376 H 1.04467 0.09968 0.48087 0.0
H377 H 0.17856 0.89183 0.49564 0.0
H378 H 0.21753 0.95809 0.48131 0.0
H379 H 0.14634 0.90944 0.4679 0.0
C380 C 0.16836 0.04664 0.42497 0.0
C381 C 0.11447 1.02983 0.40929 0.0
C382 C 0.16487 0.04471 0.44811 0.0
C383 C 0.10749 1.02588 0.45623 0.0
C384 C 1.05345 1.00984 0.44071 0.0
H385 H 1.0623 0.93451 0.5955 0.0
H386 H 1.0579 0.93016 0.55441 0.0
C387 C 1.0569 1.01141 0.4175 0.0
C388 C 1.10398 1.02432 0.48092 0.0
H389 H 0.1583 0.95279 0.52814 0.0
C390 C 1.06924 0.06731 0.49118 0.0
C391 C 0.13541 0.98155 0.49441 0.0
C392 C 0.17113 0.93212 0.48428 0.0
C393 C 1.06657 0.07001 0.51456 0.0
C394 C 1.09992 1.02901 0.52815 0.0
C395 C 0.13317 0.98466 0.5178 0.0
C396 C 1.10161 1.03208 0.55314 0.0
C397 C 1.02769 0.11646 0.52452 0.0
C398 C 0.12819 0.09059 0.56619 0.0
C399 C 0.13104 0.09317 0.58969 0.0
C400 C 0.10733 1.03725 0.60074 0.0
C401 C 1.08077 0.97863 0.58761 0.0
C402 C 1.0783 0.97599 0.56409 0.0
H403 H 0.99287 0.13143 0.51157 0.0
H404 H 1.00286 0.09304 0.53797 0.0
H405 H 1.05863 0.16211 0.53209 0.0
H406 H 0.14749 0.13418 0.55822 0.0
H407 H 0.15203 0.13912 0.59918 0.0
H408 H 0.20069 0.97885 0.74706 0.0
H409 H 0.20902 0.9812 0.78811 0.0
H410 H 1.08797 0.13006 0.78839 0.0
H411 H 1.08116 0.12957 0.7474 0.0
H412 H 0.182 0.16094 0.8208 0.0
H413 H 1.08312 0.89652 0.82559 0.0
H414 H 0.15051 0.90649 0.81087 0.0
H415 H 1.0809 0.93659 0.79944 0.0
C416 C 0.17574 1.01205 0.75584 0.0
C417 C 0.13999 0.05379 0.74386 0.0
C418 C 0.18017 1.01298 0.77937 0.0
C419 C 0.14803 0.05473 0.79147 0.0
C420 C 0.113 0.09709 0.77954 0.0
H421 H 1.0731 1.01204 0.93013 0.0
H422 H 1.06851 1.01213 0.88923 0.0
C423 C 0.10909 0.09672 0.75604 0.0
C424 C 0.15158 0.05519 0.81654 0.0
H425 H 0.12923 0.95539 0.86006 0.0
C426 C 0.17025 0.11595 0.82936 0.0
C427 C 0.13536 0.9968 0.82784 0.0
C428 C 0.11073 0.93055 0.81523 0.0
C429 C 0.17375 0.11989 0.85298 0.0
C430 C 0.15991 0.06108 0.86433 0.0
C431 C 0.14062 1.00044 0.8515 0.0
C432 C 0.16338 0.06145 0.88939 0.0
C433 C 0.19057 0.18744 0.86545 0.0
C434 C 0.21847 0.08833 0.90332 0.0
C435 C 0.22102 0.08902 0.92681 0.0
C436 C 0.16885 0.06172 0.93694 0.0
C437 C 0.1142 1.03353 0.92296 0.0
C438 C 0.11151 1.0335 0.89951 0.0
H439 H 0.18115 0.2278 0.85436 0.0
H440 H 0.16422 0.19094 0.88012 0.0
H441 H 0.24111 0.19613 0.87162 0.0
H442 H 0.25979 0.10848 0.89604 0.0
H443 H 0.26408 0.11055 0.93701 0.0
loop_
_geom_bond_atom_site_label_1
_geom_bond_atom_site_label_2
_geom_bond_distance
_geom_bond_site_symmetry_2
_ccdc_geom_bond_type
Eu0 C9 2.828 . S
Eu0 O11 2.392 1_545 S
Eu0 O13 2.418 . S
Eu0 O18 2.373 . S
Eu0 O21 2.488 . S
Eu0 O22 2.471 1_554 S
Eu0 O23 2.349 1_554 S
Eu1 O10 2.373 1_655 S
Eu1 O14 2.488 . S
Eu1 O15 2.471 1_556 S
Eu1 O16 2.349 1_666 S
Eu1 O19 2.392 1_665 S
Eu1 O20 2.418 . S
Eu1 C30 2.835 . S
C2 O20 1.244 1_445 S
C2 O23 1.265 . S
C3 C4 1.379 1_554 S
C3 C7 1.373 . S
C3 C9 1.505 . S
C4 C3 1.379 1_556 S
C4 C6 1.369 . S
C4 H32 0.930 . S
C5 C7 1.383 . S
C5 C8 1.382 . S
C5 H33 0.930 . S
C6 C4 1.369 . S
C6 C8 1.392 1_556 S
C6 H34 0.930 . S
C7 C3 1.373 . S
C7 C5 1.383 . S
C7 H35 0.931 . S
C8 C5 1.382 . S
C8 C6 1.392 1_554 S
C9 Eu0 2.828 . S
C9 C3 1.505 . S
C9 O21 1.249 . S
C9 O22 1.244 1_554 S
O10 Eu1 2.373 1_455 S
O10 C12 1.258 1_556 S
O11 Eu0 2.392 1_565 S
O11 C12 1.242 . S
C12 O10 1.258 1_554 S
C12 O11 1.242 . S
O13 Eu0 2.418 . S
O13 C17 1.244 . S
O14 Eu1 2.488 . S
O14 C30 1.285 . S
O15 Eu1 2.471 1_554 S
O15 C30 1.216 1_554 S
O16 Eu1 2.349 1_444 S
O16 C17 1.265 . S
C17 O13 1.244 . S
C17 O16 1.265 . S
O18 Eu0 2.373 . S
O18 C31 1.258 . S
O19 Eu1 2.392 1_445 S
O19 C31 1.242 1_556 S
O20 Eu1 2.418 . S
O20 C2 1.244 1_665 S
O21 Eu0 2.488 . S
O21 C9 1.249 . S
O22 Eu0 2.471 1_556 S
O22 C9 1.244 1_556 S
O23 Eu0 2.349 1_556 S
O23 C2 1.265 . S
C24 C25 1.415 . S
C24 C28 1.345 1_554 S
C24 C30 1.493 1_554 S
C25 C24 1.415 . S
C25 C27 1.369 . S
C25 H36 0.930 . S
C26 C28 1.383 . S
C26 C29 1.382 1_556 S
C26 H37 0.930 . S
C27 C25 1.369 . S
C27 C29 1.392 . S
C27 H38 0.930 . S
C28 C24 1.345 1_556 S
C28 C26 1.383 . S
C28 H39 0.931 . S
C29 C26 1.382 1_554 S
C29 C27 1.392 . S
C30 Eu1 2.835 . S
C30 O14 1.285 . S
C30 O15 1.216 1_556 S
C30 C24 1.493 1_556 S
C31 O18 1.258 . S
C31 O19 1.242 1_554 S
H32 C4 0.930 . S
H33 C5 0.930 . S
H34 C6 0.930 . S
H35 C7 0.931 . S
H36 C25 0.930 . S
H37 C26 0.930 . S
H38 C27 0.930 . S
H39 C28 0.931 . S
Eu40 C49 2.828 1_565 S
Eu40 O51 2.392 . S
Eu40 O53 2.418 1_565 S
Eu40 O58 2.373 1_565 S
Eu40 O61 2.488 1_565 S
Eu40 O62 2.471 1_565 S
Eu40 O63 2.349 1_565 S
Eu41 O50 2.373 1_545 S
Eu41 O54 2.488 . S
Eu41 O55 2.471 . S
Eu41 O56 2.349 . S
Eu41 O59 2.392 . S
Eu41 O60 2.418 . S
Eu41 C70 2.828 . S
C42 O60 1.244 . S
C42 O63 1.265 1_455 S
C43 C44 1.379 . S
C43 C47 1.373 . S
C43 C49 1.505 . S
C44 C43 1.379 . S
C44 C46 1.369 . S
C44 H72 0.930 . S
C45 C47 1.383 . S
C45 C48 1.382 . S
C45 H73 0.930 . S
C46 C44 1.369 . S
C46 C48 1.392 . S
C46 H74 0.930 . S
C47 C43 1.373 . S
C47 C45 1.383 . S
C47 H75 0.931 . S
C48 C45 1.382 . S
C48 C46 1.392 . S
C49 Eu40 2.828 1_545 S
C49 C43 1.505 . S
C49 O61 1.249 . S
C49 O62 1.244 . S
O50 Eu41 2.373 1_565 S
O50 C52 1.258 . S
O51 Eu40 2.392 . S
O51 C52 1.242 1_655 S
C52 O50 1.258 . S
C52 O51 1.242 1_455 S
O53 Eu40 2.418 1_545 S
O53 C57 1.244 1_655 S
O54 Eu41 2.488 . S
O54 C70 1.249 . S
O55 Eu41 2.471 . S
O55 C70 1.244 . S
O56 Eu41 2.349 . S
O56 C57 1.265 . S
C57 O53 1.244 1_455 S
C57 O56 1.265 . S
O58 Eu40 2.373 1_545 S
O58 C71 1.258 . S
O59 Eu41 2.392 . S
O59 C71 1.242 1_455 S
O60 Eu41 2.418 . S
O60 C42 1.244 . S
O61 Eu40 2.488 1_545 S
O61 C49 1.249 . S
O62 Eu40 2.471 1_545 S
O62 C49 1.244 . S
O63 Eu40 2.349 1_545 S
O63 C42 1.265 1_655 S
C64 C65 1.379 1_545 S
C64 C68 1.373 . S
C64 C70 1.505 . S
C65 C64 1.379 1_565 S
C65 C67 1.369 . S
C65 H76 0.930 . S
C66 C68 1.383 . S
C66 C69 1.382 1_545 S
C66 H77 0.930 . S
C67 C65 1.369 . S
C67 C69 1.392 . S
C67 H78 0.930 . S
C68 C64 1.373 . S
C68 C66 1.383 . S
C68 H79 0.931 . S
C69 C66 1.382 1_565 S
C69 C67 1.392 . S
C70 Eu41 2.828 . S
C70 O54 1.249 . S
C70 O55 1.244 . S
C70 C64 1.505 . S
C71 O58 1.258 . S
C71 O59 1.242 1_655 S
H72 C44 0.930 . S
H73 C45 0.930 . S
H74 C46 0.930 . S
H75 C47 0.931 . S
H76 C65 0.930 . S
H77 C66 0.930 . S
H78 C67 0.930 . S
H79 C68 0.931 . S
Eu80 C89 2.828 . S
Eu80 O91 2.392 1_655 S
Eu80 O93 2.418 . S
Eu80 O98 2.373 . S
Eu80 O101 2.488 . S
Eu80 O102 2.471 . S
Eu80 O103 2.349 1_665 S
Eu81 O90 2.373 . S
Eu81 O94 2.488 . S
Eu81 O95 2.471 . S
Eu81 O96 2.349 . S
Eu81 O99 2.392 1_455 S
Eu81 O100 2.418 . S
Eu81 C110 2.828 . S
C82 O100 1.244 . S
C82 O103 1.265 . S
C83 C84 1.379 . S
C83 C87 1.373 . S
C83 C89 1.505 . S
C84 C83 1.379 . S
C84 C86 1.369 . S
C84 H112 0.930 . S
C85 C87 1.383 . S
C85 C88 1.382 . S
C85 H113 0.930 . S
C86 C84 1.369 . S
C86 C88 1.392 . S
C86 H114 0.930 . S
C87 C83 1.373 . S
C87 C85 1.383 . S
C87 H115 0.931 . S
C88 C85 1.382 . S
C88 C86 1.392 . S
C89 Eu80 2.828 . S
C89 C83 1.505 . S
C89 O101 1.249 . S
C89 O102 1.244 . S
O90 Eu81 2.373 . S
O90 C92 1.258 . S
O91 Eu80 2.392 1_455 S
O91 C92 1.242 1_565 S
C92 O90 1.258 . S
C92 O91 1.242 1_545 S
O93 Eu80 2.418 . S
O93 C97 1.244 1_665 S
O94 Eu81 2.488 . S
O94 C110 1.249 . S
O95 Eu81 2.471 . S
O95 C110 1.244 . S
O96 Eu81 2.349 . S
O96 C97 1.265 . S
C97 O93 1.244 1_445 S
C97 O96 1.265 . S
O98 Eu80 2.373 . S
O98 C111 1.258 1_565 S
O99 Eu81 2.392 1_655 S
O99 C111 1.242 . S
O100 Eu81 2.418 . S
O100 C82 1.244 . S
O101 Eu80 2.488 . S
O101 C89 1.249 . S
O102 Eu80 2.471 . S
O102 C89 1.244 . S
O103 Eu80 2.349 1_445 S
O103 C82 1.265 . S
C104 C105 1.379 . S
C104 C108 1.373 . S
C104 C110 1.505 . S
C105 C104 1.379 . S
C105 C107 1.369 . S
C105 H116 0.930 . S
C106 C108 1.383 . S
C106 C109 1.382 . S
C106 H117 0.930 . S
C107 C105 1.369 . S
C107 C109 1.392 . S
C107 H118 0.930 . S
C108 C104 1.373 . S
C108 C106 1.383 . S
C108 H119 0.931 . S
C109 C106 1.382 . S
C109 C107 1.392 . S
C110 Eu81 2.828 . S
C110 O94 1.249 . S
C110 O95 1.244 . S
C110 C104 1.505 . S
C111 O98 1.258 1_545 S
C111 O99 1.242 . S
H112 C84 0.930 . S
H113 C85 0.930 . S
H114 C86 0.930 . S
H115 C87 0.931 . S
H116 C105 0.930 . S
H117 C106 0.930 . S
H118 C107 0.930 . S
H119 C108 0.931 . S
H120 C128 0.929 1_655 S
H121 C130 0.930 1_655 S
H122 C132 0.930 . S
H123 C135 0.929 . S
H124 C138 0.930 1_655 S
H125 C140 0.960 . S
H126 C140 0.960 . S
H127 C140 0.960 1_554 S
C128 H120 0.929 1_455 S
C128 C129 1.377 1_556 S
C128 C130 1.384 . S
C129 C128 1.377 1_554 S
C129 C135 1.390 . S
C130 H121 0.930 1_455 S
C130 C128 1.384 . S
C130 C131 1.372 1_556 S
C131 C130 1.372 1_554 S
C131 C132 1.400 . S
C131 C136 1.490 . S
C132 H122 0.930 . S
C132 C131 1.400 . S
C132 C135 1.386 . S
H133 C149 0.930 . S
H134 C150 0.931 . S
C135 H123 0.929 . S
C135 C129 1.390 . S
C135 C132 1.386 . S
C136 C131 1.490 . S
C136 C138 1.395 . S
C136 C139 1.403 1_554 S
H137 C143 0.938 . S
C138 H124 0.930 1_455 S
C138 C136 1.395 . S
C138 C141 1.403 1_455 S
C139 C136 1.403 1_556 S
C139 C140 1.524 . S
C139 C143 1.400 . S
C140 H125 0.960 . S
C140 H126 0.960 . S
C140 H127 0.960 1_556 S
C140 C139 1.524 . S
C141 C138 1.403 1_655 S
C141 C142 1.392 1_655 S
C141 C145 1.495 . S
C142 C141 1.392 1_455 S
C142 C143 1.379 1_554 S
C142 C144 1.478 . S
C143 H137 0.938 . S
C143 C139 1.400 . S
C143 C142 1.379 1_556 S
C144 C142 1.478 . S
C144 C146 1.381 1_554 S
C144 C150 1.383 . S
C145 C141 1.495 . S
C145 H151 0.959 . S
C145 H152 0.961 . S
C145 H153 0.960 1_554 S
C146 C144 1.381 1_556 S
C146 C147 1.394 . S
C146 H154 0.930 1_455 S
C147 C146 1.394 . S
C147 C148 1.383 1_556 S
C147 H155 0.929 1_455 S
C148 C147 1.383 1_554 S
C148 C149 1.377 . S
C149 H133 0.930 . S
C149 C148 1.377 . S
C149 C150 1.379 . S
C150 H134 0.931 . S
C150 C144 1.383 . S
C150 C149 1.379 . S
H151 C145 0.959 . S
H152 C145 0.961 . S
H153 C145 0.960 1_556 S
H154 C146 0.930 1_655 S
H155 C147 0.929 1_655 S
H156 C164 0.929 1_545 S
H157 C166 0.930 . S
H158 C168 0.930 . S
H159 C171 0.929 . S
H160 C174 0.930 . S
H161 C176 0.960 . S
H162 C176 0.960 . S
H163 C176 0.960 . S
C164 H156 0.929 1_565 S
C164 C165 1.377 . S
C164 C166 1.384 1_565 S
C165 C164 1.377 . S
C165 C171 1.390 . S
C166 H157 0.930 . S
C166 C164 1.384 1_545 S
C166 C167 1.372 1_545 S
C167 C166 1.372 1_565 S
C167 C168 1.400 . S
C167 C172 1.490 1_565 S
C168 H158 0.930 . S
C168 C167 1.400 . S
C168 C171 1.386 . S
H169 C185 0.930 . S
H170 C186 0.931 . S
C171 H159 0.929 . S
C171 C165 1.390 . S
C171 C168 1.386 . S
C172 C167 1.490 1_545 S
C172 C174 1.395 . S
C172 C175 1.403 1_545 S
H173 C179 0.930 1_565 S
C174 H160 0.930 . S
C174 C172 1.395 . S
C174 C177 1.403 . S
C175 C172 1.403 1_565 S
C175 C176 1.524 . S
C175 C179 1.400 1_565 S
C176 H161 0.960 . S
C176 H162 0.960 . S
C176 H163 0.960 . S
C176 C175 1.524 . S
C177 C174 1.403 . S
C177 C178 1.392 . S
C177 C181 1.495 . S
C178 C177 1.392 . S
C178 C179 1.385 . S
C178 C180 1.478 . S
C179 H173 0.930 1_545 S
C179 C175 1.400 1_545 S
C179 C178 1.385 . S
C180 C178 1.478 . S
C180 C182 1.381 . S
C180 C186 1.383 . S
C181 C177 1.495 . S
C181 H187 0.959 . S
C181 H188 0.961 . S
C181 H189 0.960 . S
C182 C180 1.381 . S
C182 C183 1.394 . S
C182 H190 0.930 . S
C183 C182 1.394 . S
C183 C184 1.383 . S
C183 H191 0.929 . S
C184 C183 1.383 . S
C184 C185 1.377 . S
C185 H169 0.930 . S
C185 C184 1.377 . S
C185 C186 1.379 . S
C186 H170 0.931 . S
C186 C180 1.383 . S
C186 C185 1.379 . S
H187 C181 0.959 . S
H188 C181 0.961 . S
H189 C181 0.960 . S
H190 C182 0.930 . S
H191 C183 0.929 . S
H192 C200 0.929 . S
H193 C202 0.930 . S
H194 C204 0.930 . S
H195 C207 0.929 . S
H196 C210 0.930 . S
H197 C212 0.960 . S
H198 C212 0.960 . S
H199 C212 0.960 . S
C200 H192 0.929 . S
C200 C201 1.377 . S
C200 C202 1.384 . S
C201 C200 1.377 . S
C201 C207 1.390 . S
C202 H193 0.930 . S
C202 C200 1.384 . S
C202 C203 1.372 . S
C203 C202 1.372 . S
C203 C204 1.400 . S
C203 C208 1.490 . S
C204 H194 0.930 . S
C204 C203 1.400 . S
C204 C207 1.386 . S
H205 C221 0.930 . S
H206 C222 0.931 . S
C207 H195 0.929 . S
C207 C201 1.390 . S
C207 C204 1.386 . S
C208 C203 1.490 . S
C208 C210 1.395 . S
C208 C211 1.403 . S
H209 C215 0.930 . S
C210 H196 0.930 . S
C210 C208 1.395 . S
C210 C213 1.403 . S
C211 C208 1.403 . S
C211 C212 1.524 . S
C211 C215 1.400 . S
C212 H197 0.960 . S
C212 H198 0.960 . S
C212 H199 0.960 . S
C212 C211 1.524 . S
C213 C210 1.403 . S
C213 C214 1.392 . S
C213 C217 1.495 . S
C214 C213 1.392 . S
C214 C215 1.385 . S
C214 C216 1.478 . S
C215 H209 0.930 . S
C215 C211 1.400 . S
C215 C214 1.385 . S
C216 C214 1.478 . S
C216 C218 1.381 . S
C216 C222 1.383 . S
C217 C213 1.495 . S
C217 H223 0.959 . S
C217 H224 0.961 . S
C217 H225 0.960 . S
C218 C216 1.381 . S
C218 C219 1.394 . S
C218 H226 0.930 . S
C219 C218 1.394 . S
C219 C220 1.383 . S
C219 H227 0.929 . S
C220 C219 1.383 . S
C220 C221 1.377 . S
C221 H205 0.930 . S
C221 C220 1.377 . S
C221 C222 1.379 . S
C222 H206 0.931 . S
C222 C216 1.383 . S
C222 C221 1.379 . S
H223 C217 0.959 . S
H224 C217 0.961 . S
H225 C217 0.960 . S
H226 C218 0.930 . S
H227 C219 0.929 . S
H228 C236 0.929 . S
H229 C238 0.930 . S
H230 C240 0.930 . S
H231 C243 0.929 . S
H232 C246 0.930 . S
H233 C248 0.960 . S
H234 C248 0.960 . S
H235 C248 0.960 . S
C236 H228 0.929 . S
C236 C237 1.377 1_565 S
C236 C238 1.384 . S
C237 C236 1.377 1_545 S
C237 C243 1.390 . S
C238 H229 0.930 . S
C238 C236 1.384 . S
C238 C239 1.372 1_565 S
C239 C238 1.372 1_545 S
C239 C240 1.400 . S
C239 C244 1.490 . S
C240 H230 0.930 . S
C240 C239 1.400 . S
C240 C243 1.386 . S
H241 C257 0.930 . S
H242 C258 0.931 . S
C243 H231 0.929 . S
C243 C237 1.390 . S
C243 C240 1.386 . S
C244 C239 1.490 . S
C244 C246 1.395 1_545 S
C244 C247 1.403 . S
H245 C251 0.930 . S
C246 H232 0.930 . S
C246 C244 1.395 1_565 S
C246 C249 1.403 . S
C247 C244 1.403 . S
C247 C248 1.524 . S
C247 C251 1.400 . S
C248 H233 0.960 . S
C248 H234 0.960 . S
C248 H235 0.960 . S
C248 C247 1.524 . S
C249 C246 1.403 . S
C249 C250 1.392 1_565 S
C249 C253 1.495 . S
C250 C249 1.392 1_545 S
C250 C251 1.385 . S
C250 C252 1.478 . S
C251 H245 0.930 . S
C251 C247 1.400 . S
C251 C250 1.385 . S
C252 C250 1.478 . S
C252 C254 1.381 1_545 S
C252 C258 1.383 . S
C253 C249 1.495 . S
C253 H259 0.959 . S
C253 H260 0.961 . S
C253 H261 0.960 . S
C254 C252 1.381 1_565 S
C254 C255 1.394 . S
C254 H262 0.930 . S
C255 C254 1.394 . S
C255 C256 1.383 1_565 S
C255 H263 0.929 . S
C256 C255 1.383 1_545 S
C256 C257 1.377 . S
C257 H241 0.930 . S
C257 C256 1.377 . S
C257 C258 1.379 . S
C258 H242 0.931 . S
C258 C252 1.383 . S
C258 C257 1.379 . S
H259 C253 0.959 . S
H260 C253 0.961 . S
H261 C253 0.960 . S
H262 C254 0.930 . S
H263 C255 0.929 . S
H264 C272 0.929 . S
H265 C274 0.930 . S
H266 C276 0.930 . S
H267 C279 0.929 . S
H268 C282 0.930 . S
H269 C284 0.960 . S
H270 C284 0.960 . S
H271 C284 0.960 . S
C272 H264 0.929 . S
C272 C273 1.377 1_556 S
C272 C274 1.384 . S
C273 C272 1.377 1_554 S
C273 C279 1.390 . S
C274 H265 0.930 . S
C274 C272 1.384 . S
C274 C275 1.372 1_556 S
C275 C274 1.372 1_554 S
C275 C276 1.400 . S
C275 C280 1.490 . S
C276 H266 0.930 . S
C276 C275 1.400 . S
C276 C279 1.386 . S
H277 C293 0.930 . S
H278 C294 0.931 . S
C279 H267 0.929 . S
C279 C273 1.390 . S
C279 C276 1.386 . S
C280 C275 1.490 . S
C280 C282 1.395 . S
C280 C283 1.403 1_554 S
H281 C287 0.930 . S
C282 H268 0.930 . S
C282 C280 1.395 . S
C282 C285 1.403 . S
C283 C280 1.403 1_556 S
C283 C284 1.524 . S
C283 C287 1.400 . S
C284 H269 0.960 . S
C284 H270 0.960 . S
C284 H271 0.960 . S
C284 C283 1.524 . S
C285 C282 1.403 . S
C285 C286 1.392 . S
C285 C289 1.495 . S
C286 C285 1.392 . S
C286 C287 1.385 1_554 S
C286 C288 1.478 . S
C287 H281 0.930 . S
C287 C283 1.400 . S
C287 C286 1.385 1_556 S
C288 C286 1.478 . S
C288 C290 1.381 1_554 S
C288 C294 1.383 . S
C289 C285 1.495 . S
C289 H295 0.959 . S
C289 H296 0.961 . S
C289 H297 0.960 . S
C290 C288 1.381 1_556 S
C290 C291 1.394 . S
C290 H298 0.930 . S
C291 C290 1.394 . S
C291 C292 1.383 1_556 S
C291 H299 0.929 . S
C292 C291 1.383 1_554 S
C292 C293 1.377 . S
C293 H277 0.930 . S
C293 C292 1.377 . S
C293 C294 1.379 . S
C294 H278 0.931 . S
C294 C288 1.383 . S
C294 C293 1.379 . S
H295 C289 0.959 . S
H296 C289 0.961 . S
H297 C289 0.960 . S
H298 C290 0.930 . S
H299 C291 0.929 . S
H300 C308 0.929 . S
H301 C310 0.930 . S
H302 C312 0.930 . S
H303 C315 0.929 . S
H304 C318 0.930 . S
H305 C320 0.960 . S
H306 C320 0.960 . S
H307 C320 0.960 . S
C308 H300 0.929 . S
C308 C309 1.377 1_455 S
C308 C310 1.384 . S
C309 C308 1.377 1_655 S
C309 C315 1.390 . S
C310 H301 0.930 . S
C310 C308 1.384 . S
C310 C311 1.372 . S
C311 C310 1.372 . S
C311 C312 1.400 1_455 S
C311 C316 1.490 . S
C312 H302 0.930 . S
C312 C311 1.400 1_655 S
C312 C315 1.386 . S
H313 C329 0.930 . S
H314 C330 0.931 . S
C315 H303 0.929 . S
C315 C309 1.390 . S
C315 C312 1.386 . S
C316 C311 1.490 . S
C316 C318 1.395 . S
C316 C319 1.403 1_455 S
H317 C323 0.930 . S
C318 H304 0.930 . S
C318 C316 1.395 . S
C318 C321 1.403 . S
C319 C316 1.403 1_655 S
C319 C320 1.524 . S
C319 C323 1.400 . S
C320 H305 0.960 . S
C320 H306 0.960 . S
C320 H307 0.960 . S
C320 C319 1.524 . S
C321 C318 1.403 . S
C321 C322 1.392 . S
C321 C325 1.495 . S
C322 C321 1.392 . S
C322 C323 1.385 1_455 S
C322 C324 1.478 . S
C323 H317 0.930 . S
C323 C319 1.400 . S
C323 C322 1.385 1_655 S
C324 C322 1.478 . S
C324 C326 1.381 . S
C324 C330 1.383 . S
C325 C321 1.495 . S
C325 H331 0.959 . S
C325 H332 0.961 . S
C325 H333 0.960 . S
C326 C324 1.381 . S
C326 C327 1.394 . S
C326 H334 0.930 . S
C327 C326 1.394 . S
C327 C328 1.383 . S
C327 H335 0.929 . S
C328 C327 1.383 . S
C328 C329 1.377 . S
C329 H313 0.930 . S
C329 C328 1.377 . S
C329 C330 1.379 . S
C330 H314 0.931 . S
C330 C324 1.383 . S
C330 C329 1.379 . S
H331 C325 0.959 . S
H332 C325 0.961 . S
H333 C325 0.960 . S
H334 C326 0.930 . S
H335 C327 0.929 . S
H336 C344 0.929 . S
H337 C346 0.930 . S
H338 C348 0.930 . S
H339 C351 0.929 . S
H340 C354 0.930 . S
H341 C356 0.960 . S
H342 C356 0.960 1_455 S
H343 C356 0.960 . S
C344 H336 0.929 . S
C344 C345 1.377 . S
C344 C346 1.384 . S
C345 C344 1.377 . S
C345 C351 1.390 1_455 S
C346 H337 0.930 . S
C346 C344 1.384 . S
C346 C347 1.372 . S
C347 C346 1.372 . S
C347 C348 1.400 1_455 S
C347 C352 1.490 . S
C348 H338 0.930 . S
C348 C347 1.400 1_655 S
C348 C351 1.386 . S
H349 C365 0.930 1_655 S
H350 C366 0.932 1_655 S
C351 H339 0.929 . S
C351 C345 1.390 1_655 S
C351 C348 1.386 . S
C352 C347 1.490 . S
C352 C354 1.395 1_545 S
C352 C355 1.403 . S
H353 C359 0.930 . S
C354 H340 0.930 . S
C354 C352 1.395 1_565 S
C354 C357 1.403 . S
C355 C352 1.403 . S
C355 C356 1.524 1_455 S
C355 C359 1.400 . S
C356 H341 0.960 . S
C356 H342 0.960 1_655 S
C356 H343 0.960 . S
C356 C355 1.524 1_655 S
C357 C354 1.403 . S
C357 C358 1.392 1_565 S
C357 C361 1.495 . S
C358 C357 1.392 1_545 S
C358 C359 1.385 . S
C358 C360 1.478 . S
C359 H353 0.930 . S
C359 C355 1.400 . S
C359 C358 1.385 . S
C360 C358 1.478 . S
C360 C362 1.381 . S
C360 C366 1.382 1_545 S
C361 C357 1.495 . S
C361 H367 0.959 . S
C361 H368 0.961 . S
C361 H369 0.960 . S
C362 C360 1.381 . S
C362 C363 1.394 . S
C362 H370 0.930 . S
C363 C362 1.394 . S
C363 C364 1.383 . S
C363 H371 0.929 . S
C364 C363 1.383 . S
C364 C365 1.377 1_545 S
C365 H349 0.930 1_455 S
C365 C364 1.377 1_565 S
C365 C366 1.379 . S
C366 H350 0.932 1_455 S
C366 C360 1.382 1_565 S
C366 C365 1.379 . S
H367 C361 0.959 . S
H368 C361 0.961 . S
H369 C361 0.960 . S
H370 C362 0.930 . S
H371 C363 0.929 . S
H372 C380 0.929 . S
H373 C382 0.930 . S
H374 C384 0.930 . S
H375 C387 0.929 . S
H376 C390 0.930 . S
H377 C392 0.960 . S
H378 C392 0.960 . S
H379 C392 0.960 1_655 S
C380 H372 0.929 . S
C380 C381 1.377 . S
C380 C382 1.384 . S
C381 C380 1.377 . S
C381 C387 1.390 1_445 S
C382 H373 0.930 . S
C382 C380 1.384 . S
C382 C383 1.372 . S
C383 C382 1.372 . S
C383 C384 1.400 1_445 S
C383 C388 1.490 . S
C384 H374 0.930 . S
C384 C383 1.400 1_665 S
C384 C387 1.386 . S
H385 C401 0.930 1_565 S
H386 C402 0.931 1_565 S
C387 H375 0.929 . S
C387 C381 1.390 1_665 S
C387 C384 1.386 . S
C388 C383 1.490 . S
C388 C390 1.395 . S
C388 C391 1.403 1_545 S
H389 C395 0.930 . S
C390 H376 0.930 . S
C390 C388 1.395 . S
C390 C393 1.403 . S
C391 C388 1.403 1_565 S
C391 C392 1.524 . S
C391 C395 1.400 . S
C392 H377 0.960 . S
C392 H378 0.960 . S
C392 H379 0.960 1_455 S
C392 C391 1.524 . S
C393 C390 1.403 . S
C393 C394 1.392 . S
C393 C397 1.495 . S
C394 C393 1.392 . S
C394 C395 1.385 1_545 S
C394 C396 1.478 . S
C395 H389 0.930 . S
C395 C391 1.400 . S
C395 C394 1.385 1_565 S
C396 C394 1.478 . S
C396 C398 1.381 . S
C396 C402 1.383 1_455 S
C397 C393 1.495 . S
C397 H403 0.959 . S
C397 H404 0.952 1_455 S
C397 H405 0.960 . S
C398 C396 1.381 . S
C398 C399 1.394 . S
C398 H406 0.930 . S
C399 C398 1.394 . S
C399 C400 1.383 . S
C399 H407 0.929 . S
C400 C399 1.383 . S
C400 C401 1.377 1_455 S
C401 H385 0.930 1_545 S
C401 C400 1.377 1_655 S
C401 C402 1.379 . S
C402 H386 0.931 1_545 S
C402 C396 1.383 1_655 S
C402 C401 1.379 . S
H403 C397 0.959 . S
H404 C397 0.952 1_655 S
H405 C397 0.960 . S
H406 C398 0.930 . S
H407 C399 0.929 . S
H408 C416 0.930 . S
H409 C418 0.930 . S
H410 C420 0.932 . S
H411 C423 0.929 . S
H412 C426 0.930 . S
H413 C428 0.960 . S
H414 C428 0.960 . S
H415 C428 0.960 . S
C416 H408 0.930 . S
C416 C417 1.376 1_565 S
C416 C418 1.384 . S
C417 C416 1.376 1_545 S
C417 C423 1.390 1_455 S
C418 H409 0.930 . S
C418 C416 1.384 . S
C418 C419 1.372 1_565 S
C419 C418 1.372 1_545 S
C419 C420 1.397 1_455 S
C419 C424 1.490 . S
C420 H410 0.932 . S
C420 C419 1.397 1_655 S
C420 C423 1.386 . S
H421 C437 0.917 1_655 S
H422 C438 0.947 . S
C423 H411 0.929 . S
C423 C417 1.390 1_655 S
C423 C420 1.386 . S
C424 C419 1.490 . S
C424 C426 1.395 . S
C424 C427 1.403 1_545 S
H425 C431 0.930 1_655 S
C426 H412 0.930 . S
C426 C424 1.395 . S
C426 C429 1.403 . S
C427 C424 1.403 1_565 S
C427 C428 1.524 1_455 S
C427 C431 1.400 . S
C428 H413 0.960 . S
C428 H414 0.960 . S
C428 H415 0.960 . S
C428 C427 1.524 1_655 S
C429 C426 1.403 . S
C429 C430 1.392 . S
C429 C433 1.495 . S
C430 C429 1.392 . S
C430 C431 1.385 1_545 S
C430 C432 1.478 . S
C431 H425 0.930 1_455 S
C431 C427 1.400 . S
C431 C430 1.385 1_565 S
C432 C430 1.478 . S
C432 C434 1.381 1_545 S
C432 C438 1.383 . S
C433 C429 1.495 . S
C433 H439 0.959 . S
C433 H440 0.961 . S
C433 H441 0.960 . S
C434 C432 1.381 1_565 S
C434 C435 1.394 . S
C434 H442 0.930 . S
C435 C434 1.394 . S
C435 C436 1.383 1_565 S
C435 H443 0.929 . S
C436 C435 1.383 1_545 S
C436 C437 1.377 . S
C437 H421 0.917 1_455 S
C437 C436 1.377 . S
C437 C438 1.379 . S
C438 H422 0.947 . S
C438 C432 1.383 . S
C438 C437 1.379 . S
H439 C433 0.959 . S
H440 C433 0.961 . S
H441 C433 0.960 . S
H442 C434 0.930 . S
H443 C435 0.929 . S
C129 C31 2.954 . S
C148 C12 2.951 . S
C165 C69 0.982 . S
C184 C48 1.037 . S
C201 C88 0.605 . S
C220 C109 0.595 . S
C237 C111 4.805 . S
C256 C92 4.801 . S
C273 C29 0.568 . S
C292 C8 0.534 . S
C309 C71 2.998 . S
C328 C52 2.999 . S
C345 C57 1.484 . S
C364 C17 1.474 . S
C381 C42 1.461 . S
C400 C97 1.486 . S
C417 C82 1.481 . S
C436 C2 1.483 . S
