# Generated by pormake.
# Topology acs-i, (5)-cn, num edge types: 1
# Building blocks:
#     Node 0, Type 0, BuildingBlock: XOMCOT_clean_sbu_0, # of connection points: 5
#     Node 1, Type 0, BuildingBlock: XOMCOT_clean_sbu_0, # of connection points: 5
#     Node 2, Type 0, BuildingBlock: XOMCOT_clean_sbu_0, # of connection points: 5
#     Node 3, Type 0, BuildingBlock: XOMCOT_clean_sbu_0, # of connection points: 5
#     Node 4, Type 0, BuildingBlock: XOMCOT_clean_sbu_0, # of connection points: 5
#     Node 5, Type 0, BuildingBlock: XOMCOT_clean_sbu_0, # of connection points: 5
#     Node 6, Type 0, BuildingBlock: XOMCOT_clean_sbu_0, # of connection points: 5
#     Node 7, Type 0, BuildingBlock: XOMCOT_clean_sbu_0, # of connection points: 5
#     Node 8, Type 0, BuildingBlock: XOMCOT_clean_sbu_0, # of connection points: 5
#     Node 9, Type 0, BuildingBlock: XOMCOT_clean_sbu_0, # of connection points: 5
#     Node 10, Type 0, BuildingBlock: XOMCOT_clean_sbu_0, # of connection points: 5
#     Node 11, Type 0, BuildingBlock: XOMCOT_clean_sbu_0, # of connection points: 5
#     Edge 12, Type (0, 0), BuildingBlock: TEMPAE_clean_linker_10, # of connection points: 2
#     Edge 13, Type (0, 0), BuildingBlock: TEMPAE_clean_linker_10, # of connection points: 2
#     Edge 14, Type (0, 0), BuildingBlock: TEMPAE_clean_linker_10, # of connection points: 2
#     Edge 15, Type (0, 0), BuildingBlock: TEMPAE_clean_linker_10, # of connection points: 2
#     Edge 16, Type (0, 0), BuildingBlock: TEMPAE_clean_linker_10, # of connection points: 2
#     Edge 17, Type (0, 0), BuildingBlock: TEMPAE_clean_linker_10, # of connection points: 2
#     Edge 18, Type (0, 0), BuildingBlock: TEMPAE_clean_linker_10, # of connection points: 2
#     Edge 19, Type (0, 0), BuildingBlock: TEMPAE_clean_linker_10, # of connection points: 2
#     Edge 20, Type (0, 0), BuildingBlock: TEMPAE_clean_linker_10, # of connection points: 2
#     Edge 21, Type (0, 0), BuildingBlock: TEMPAE_clean_linker_10, # of connection points: 2
#     Edge 22, Type (0, 0), BuildingBlock: TEMPAE_clean_linker_10, # of connection points: 2
#     Edge 23, Type (0, 0), BuildingBlock: TEMPAE_clean_linker_10, # of connection points: 2
#     Edge 24, Type (0, 0), BuildingBlock: TEMPAE_clean_linker_10, # of connection points: 2
#     Edge 25, Type (0, 0), BuildingBlock: TEMPAE_clean_linker_10, # of connection points: 2
#     Edge 26, Type (0, 0), BuildingBlock: TEMPAE_clean_linker_10, # of connection points: 2
#     Edge 27, Type (0, 0), BuildingBlock: TEMPAE_clean_linker_10, # of connection points: 2
#     Edge 28, Type (0, 0), BuildingBlock: TEMPAE_clean_linker_10, # of connection points: 2
#     Edge 29, Type (0, 0), BuildingBlock: TEMPAE_clean_linker_10, # of connection points: 2
#     Edge 30, Type (0, 0), BuildingBlock: TEMPAE_clean_linker_10, # of connection points: 2
#     Edge 31, Type (0, 0), BuildingBlock: TEMPAE_clean_linker_10, # of connection points: 2
#     Edge 32, Type (0, 0), BuildingBlock: TEMPAE_clean_linker_10, # of connection points: 2
#     Edge 33, Type (0, 0), BuildingBlock: TEMPAE_clean_linker_10, # of connection points: 2
#     Edge 34, Type (0, 0), BuildingBlock: TEMPAE_clean_linker_10, # of connection points: 2
#     Edge 35, Type (0, 0), BuildingBlock: TEMPAE_clean_linker_10, # of connection points: 2
#     Edge 36, Type (0, 0), BuildingBlock: TEMPAE_clean_linker_10, # of connection points: 2
#     Edge 37, Type (0, 0), BuildingBlock: TEMPAE_clean_linker_10, # of connection points: 2
#     Edge 38, Type (0, 0), BuildingBlock: TEMPAE_clean_linker_10, # of connection points: 2
#     Edge 39, Type (0, 0), BuildingBlock: TEMPAE_clean_linker_10, # of connection points: 2
#     Edge 40, Type (0, 0), BuildingBlock: TEMPAE_clean_linker_10, # of connection points: 2
#     Edge 41, Type (0, 0), BuildingBlock: TEMPAE_clean_linker_10, # of connection points: 2
# Relax obj value: 0.846
# Max RMSD: 0.232
# Mean RMSD: 0.232
data_MOF--net-acs-i--node1-XOMCOT_clean_sbu_0--edge1-TEMPAE_clean_linker_10
_symmetry_space_group_name_H-M    P1
_symmetry_Int_Tables_number       1
_symmetry_cell_setting            triclinic
loop_
_symmetry_equiv_pos_as_xyz
'x, y, z'
_cell_length_a     52.578473
_cell_length_b     52.56056
_cell_length_c     35.895714
_cell_angle_alpha  89.993885
_cell_angle_beta   89.949938
_cell_angle_gamma 119.97655
loop_
_atom_site_label
_atom_site_type_symbol
_atom_site_fract_x
_atom_site_fract_y
_atom_site_fract_z
_atom_type_partial_charge
Co0 Co 0.30712 0.5117 0.07108 0.0
C1 C 0.35377 0.52118 0.12583 0.0
C2 C 0.37183 0.54485 0.07506 0.0
C3 C 0.39449 0.55149 0.09919 0.0
N4 N 0.34614 0.52581 0.09165 0.0
N5 N 0.3831 0.5368 0.13117 0.0
H6 H 0.33829 0.50757 0.14699 0.0
H7 H 0.37429 0.55441 0.04775 0.0
C8 C 0.32193 0.54189 0.99575 0.0
O9 O 0.30531 0.51738 0.97765 0.0
N10 N 0.26882 0.49912 0.0494 0.0
C11 C 0.25333 0.47766 0.02427 0.0
C12 C 0.23357 0.48363 0.00662 0.0
C13 C 0.25778 0.51733 0.04691 0.0
N14 N 0.23649 0.50854 0.02113 0.0
C15 C 0.29523 0.45376 0.05615 0.0
C16 C 0.34214 0.46877 0.00899 0.0
C17 C 0.32669 0.44009 0.02316 0.0
C18 C 0.30231 0.43244 0.046 0.0
C19 C 0.33448 0.48951 0.02008 0.0
N20 N 0.31156 0.48208 0.04395 0.0
H21 H 0.27722 0.44772 0.07524 0.0
H22 H 0.34837 0.51185 0.01121 0.0
H23 H 0.25796 0.46071 0.01581 0.0
H24 H 0.26774 0.5387 0.06005 0.0
O25 O 0.28917 0.48922 0.11577 0.0
O26 O 0.30056 0.53539 0.10722 0.0
O27 O 0.32495 0.54213 0.03099 0.0
C28 C 0.28988 0.51257 0.12902 0.0
H29 H 0.41738 0.56751 0.09451 0.0
H30 H 0.22002 0.47207 0.98287 0.0
H31 H 0.36092 0.47559 0.99085 0.0
H32 H 0.28984 0.41065 0.0579 0.0
Co33 Co 0.7919 0.31235 0.56053 0.0
C34 C 0.83098 0.36123 0.61109 0.0
C35 C 0.80327 0.37163 0.57819 0.0
C36 C 0.8212 0.39565 0.59944 0.0
N37 N 0.80967 0.35018 0.58503 0.0
N38 N 0.83854 0.38908 0.61996 0.0
H39 H 0.84047 0.34914 0.62361 0.0
H40 H 0.78638 0.36998 0.55956 0.0
C41 C 0.78628 0.33443 0.48478 0.0
O42 O 0.8015 0.32399 0.46839 0.0
N43 N 0.77233 0.27437 0.53561 0.0
C44 C 0.76977 0.24866 0.54704 0.0
C45 C 0.74648 0.22578 0.52865 0.0
C46 C 0.75039 0.26645 0.51078 0.0
N47 N 0.73459 0.23724 0.50564 0.0
C48 C 0.84077 0.30536 0.53975 0.0
C49 C 0.87588 0.36236 0.51496 0.0
C50 C 0.88809 0.34422 0.51904 0.0
C51 C 0.87005 0.31512 0.53045 0.0
C52 C 0.84652 0.35166 0.52403 0.0
N53 N 0.82936 0.3236 0.53686 0.0
H54 H 0.82795 0.28376 0.55154 0.0
H55 H 0.83803 0.36656 0.52242 0.0
H56 H 0.78178 0.24626 0.56989 0.0
H57 H 0.74312 0.28106 0.50054 0.0
O58 O 0.79721 0.29509 0.60502 0.0
O59 O 0.75798 0.29907 0.59283 0.0
O60 O 0.7799 0.32995 0.51935 0.0
C61 C 0.77194 0.29122 0.61596 0.0
H62 H 0.82049 0.41585 0.60127 0.0
H63 H 0.73738 0.20259 0.53425 0.0
H64 H 0.88924 0.38501 0.50616 0.0
H65 H 0.87896 0.30066 0.53446 0.0
Co66 Co 0.48775 0.79289 0.06797 0.0
C67 C 0.47611 0.82676 0.12549 0.0
C68 C 0.45419 0.82398 0.07411 0.0
C69 C 0.44652 0.83846 0.09955 0.0
N70 N 0.47277 0.81653 0.09028 0.0
N71 N 0.46013 0.83996 0.13187 0.0
H72 H 0.48904 0.82382 0.14661 0.0
H73 H 0.44554 0.8183 0.04619 0.0
C74 C 0.45597 0.77556 0.99381 0.0
O75 O 0.48008 0.78261 0.97514 0.0
N76 N 0.50137 0.76852 0.04477 0.0
C77 C 0.5232 0.77559 0.01981 0.0
C78 C 0.51795 0.75041 0.00114 0.0
C79 C 0.48383 0.73927 0.04144 0.0
N80 N 0.49326 0.72773 0.01513 0.0
C81 C 0.54432 0.84182 0.05307 0.0
C82 C 0.5266 0.86974 0.00305 0.0
C83 C 0.55508 0.88534 0.01775 0.0
C84 C 0.56414 0.87059 0.04218 0.0
C85 C 0.50728 0.84132 0.0154 0.0
N86 N 0.516 0.82771 0.04059 0.0
H87 H 0.55149 0.83136 0.07302 0.0
H88 H 0.4849 0.8314 0.00625 0.0
H89 H 0.5399 0.79757 0.01234 0.0
H90 H 0.46243 0.72715 0.05442 0.0
O91 O 0.51109 0.79752 0.11191 0.0
O92 O 0.46532 0.76182 0.10366 0.0
O93 O 0.45648 0.77969 0.02887 0.0
C94 C 0.48836 0.77412 0.12497 0.0
H95 H 0.43056 0.84549 0.09539 0.0
H96 H 0.52986 0.74924 0.9772 0.0
H97 H 0.51867 0.87985 0.98346 0.0
H98 H 0.58577 0.8816 0.05464 0.0
Co99 Co 0.68714 0.47883 0.55851 0.0
C100 C 0.6396 0.46697 0.61247 0.0
C101 C 0.62839 0.43035 0.57623 0.0
C102 C 0.60569 0.42268 0.60067 0.0
N103 N 0.64956 0.45817 0.58339 0.0
N104 N 0.61274 0.44561 0.62353 0.0
H105 H 0.65205 0.48812 0.62593 0.0
H106 H 0.6297 0.41598 0.55576 0.0
C107 C 0.66449 0.45353 0.48115 0.0
O108 O 0.67454 0.47934 0.46532 0.0
N109 N 0.72487 0.49823 0.5331 0.0
C110 C 0.75047 0.52132 0.54476 0.0
C111 C 0.77331 0.52204 0.52483 0.0
C112 C 0.73277 0.48535 0.50658 0.0
N113 N 0.76192 0.49946 0.50064 0.0
C114 C 0.69424 0.53568 0.54663 0.0
C115 C 0.63991 0.51678 0.51472 0.0
C116 C 0.65771 0.54673 0.52306 0.0
C117 C 0.68536 0.55608 0.53891 0.0
C118 C 0.64934 0.49704 0.52378 0.0
N119 N 0.67644 0.50661 0.53895 0.0
H120 H 0.71475 0.54314 0.56089 0.0
H121 H 0.63437 0.47388 0.51961 0.0
H122 H 0.75298 0.5348 0.56874 0.0
H123 H 0.71828 0.4637 0.49555 0.0
O124 O 0.70493 0.49879 0.60431 0.0
O125 O 0.70005 0.45603 0.58688 0.0
O126 O 0.66902 0.4512 0.51555 0.0
C127 C 0.70829 0.47648 0.6121 0.0
H128 H 0.58634 0.40116 0.60307 0.0
H129 H 0.7965 0.53618 0.53024 0.0
H130 H 0.61847 0.50839 0.50218 0.0
H131 H 0.69956 0.57872 0.54705 0.0
Co132 Co 0.20509 0.69735 0.06643 0.0
C133 C 0.17177 0.65323 0.12599 0.0
C134 C 0.17277 0.6328 0.07487 0.0
C135 C 0.15895 0.61128 0.1012 0.0
N136 N 0.18081 0.65929 0.09019 0.0
N137 N 0.15861 0.62419 0.13335 0.0
H138 H 0.17588 0.6696 0.14694 0.0
H139 H 0.17792 0.62904 0.04702 0.0
C140 C 0.21803 0.67855 0.99234 0.0
O141 O 0.20915 0.69387 0.97305 0.0
N142 N 0.23023 0.73456 0.04164 0.0
C143 C 0.22376 0.74822 0.01437 0.0
C144 C 0.24918 0.76702 0.99539 0.0
C145 C 0.25948 0.74577 0.03901 0.0
N146 N 0.27149 0.76538 0.01117 0.0
C147 C 0.15949 0.70952 0.05063 0.0
C148 C 0.12493 0.65956 0.00951 0.0
C149 C 0.11287 0.6764 0.02248 0.0
C150 C 0.13086 0.70232 0.04193 0.0
C151 C 0.15376 0.66765 0.01863 0.0
N152 N 0.17046 0.6919 0.03998 0.0
H153 H 0.17255 0.72878 0.06742 0.0
H154 H 0.16169 0.6532 0.01038 0.0
H155 H 0.20203 0.74267 0.00539 0.0
H156 H 0.27124 0.73682 0.05366 0.0
O157 O 0.20155 0.71742 0.10937 0.0
O158 O 0.23621 0.7057 0.102 0.0
O159 O 0.2166 0.67754 0.02779 0.0
C160 C 0.22453 0.71749 0.12271 0.0
H161 H 0.15196 0.58823 0.09784 0.0
H162 H 0.25071 0.77879 0.96996 0.0
H163 H 0.11175 0.63954 0.9939 0.0
H164 H 0.12234 0.71592 0.05243 0.0
Co165 Co 0.50931 0.20287 0.56316 0.0
C166 C 0.51366 0.16344 0.61907 0.0
C167 C 0.54899 0.17959 0.57962 0.0
C168 C 0.55306 0.16266 0.60531 0.0
N169 N 0.5242 0.1801 0.5881 0.0
N170 N 0.53102 0.15277 0.63025 0.0
H171 H 0.49449 0.1602 0.63422 0.0
H172 H 0.56406 0.19156 0.55733 0.0
C173 C 0.54137 0.20972 0.48977 0.0
O174 O 0.5171 0.19692 0.47006 0.0
N175 N 0.49554 0.22659 0.538 0.0
C176 C 0.47295 0.2307 0.54757 0.0
C177 C 0.47511 0.25424 0.52781 0.0
C178 C 0.51111 0.24798 0.51296 0.0
N179 N 0.49894 0.26468 0.50574 0.0
C180 C 0.45223 0.15828 0.54126 0.0
C181 C 0.46929 0.12077 0.51097 0.0
C182 C 0.43953 0.11057 0.51736 0.0
C183 C 0.43089 0.12971 0.5319 0.0
C184 C 0.48996 0.14927 0.52148 0.0
N185 N 0.4814 0.16767 0.53669 0.0
H186 H 0.44528 0.17194 0.55507 0.0
H187 H 0.51288 0.15579 0.51941 0.0
H188 H 0.45737 0.21921 0.56963 0.0
H189 H 0.5328 0.2538 0.50334 0.0
O190 O 0.48532 0.19841 0.60599 0.0
O191 O 0.53104 0.23478 0.59805 0.0
O192 O 0.54088 0.21414 0.52465 0.0
C193 C 0.50784 0.22182 0.61928 0.0
H194 H 0.57208 0.15988 0.60731 0.0
H195 H 0.46162 0.26427 0.53144 0.0
H196 H 0.47663 0.10614 0.50061 0.0
H197 H 0.40801 0.12213 0.53794 0.0
Co198 Co 0.48777 0.68407 0.44293 0.0
C199 C 0.48585 0.64369 0.38323 0.0
C200 C 0.45521 0.62034 0.42699 0.0
C201 C 0.45197 0.60065 0.39982 0.0
N202 N 0.47649 0.64749 0.41673 0.0
N203 N 0.471 0.61536 0.37214 0.0
H204 H 0.50222 0.66131 0.3664 0.0
H205 H 0.44185 0.61488 0.45178 0.0
C206 C 0.45452 0.65772 0.51545 0.0
O207 O 0.47796 0.6717 0.53647 0.0
N208 N 0.4978 0.72015 0.46938 0.0
C209 C 0.52087 0.74752 0.46436 0.0
C210 C 0.51572 0.76728 0.48365 0.0
C211 C 0.47893 0.72395 0.49089 0.0
N212 N 0.48948 0.75213 0.50068 0.0
C213 C 0.54596 0.6992 0.46408 0.0
C214 C 0.53096 0.6468 0.49931 0.0
C215 C 0.56044 0.66666 0.49187 0.0
C216 C 0.56807 0.69336 0.47471 0.0
C217 C 0.50954 0.6532 0.48757 0.0
N218 N 0.51704 0.67911 0.46999 0.0
H219 H 0.55211 0.71887 0.44837 0.0
H220 H 0.48693 0.63631 0.49057 0.0
H221 H 0.53902 0.75331 0.4456 0.0
H222 H 0.4565 0.7071 0.49615 0.0
O223 O 0.51168 0.70625 0.40101 0.0
O224 O 0.46465 0.69247 0.40829 0.0
O225 O 0.45587 0.6611 0.48016 0.0
C226 C 0.48824 0.70544 0.38783 0.0
H227 H 0.43521 0.57767 0.39914 0.0
H228 H 0.52926 0.79098 0.4833 0.0
H229 H 0.52439 0.62554 0.51155 0.0
H230 H 0.59072 0.70876 0.46763 0.0
Co231 Co 0.81563 0.49563 0.92135 0.0
C232 C 0.86091 0.50113 0.86711 0.0
C233 C 0.84605 0.46333 0.90194 0.0
C234 C 0.86425 0.46247 0.87535 0.0
N235 N 0.84457 0.48809 0.89778 0.0
N236 N 0.87323 0.48596 0.85302 0.0
H237 H 0.86085 0.51909 0.85254 0.0
H238 H 0.83204 0.44506 0.9197 0.0
C239 C 0.8321 0.46764 0.98361 0.0
O240 O 0.86015 0.48635 0.97832 0.0
N241 N 0.78614 0.50156 0.94464 0.0
C242 C 0.78498 0.52628 0.95054 0.0
C243 C 0.75781 0.51847 0.96574 0.0
C244 C 0.76018 0.47939 0.95605 0.0
N245 N 0.74233 0.48893 0.96874 0.0
C246 C 0.86373 0.55374 0.92008 0.0
C247 C 0.87792 0.55833 0.99471 0.0
C248 C 0.89821 0.57894 0.96945 0.0
C249 C 0.8895 0.5778 0.93239 0.0
C250 C 0.85142 0.53511 0.98126 0.0
N251 N 0.8464 0.53147 0.94379 0.0
H252 H 0.8586 0.55251 0.89089 0.0
H253 H 0.83604 0.51911 0.00067 0.0
H254 H 0.80217 0.54819 0.94331 0.0
H255 H 0.75419 0.4565 0.95412 0.0
O256 O 0.8113 0.51237 0.87576 0.0
O257 O 0.78564 0.46514 0.89009 0.0
O258 O 0.81274 0.47013 0.96498 0.0
C259 C 0.79172 0.48596 0.86601 0.0
H260 H 0.86691 0.44372 0.86941 0.0
H261 H 0.74958 0.53314 0.97235 0.0
H262 H 0.88317 0.55888 0.02395 0.0
H263 H 0.90353 0.59428 0.91232 0.0
Co264 Co 0.30682 0.79941 0.44424 0.0
C265 C 0.34998 0.83416 0.38482 0.0
C266 C 0.37084 0.8278 0.43229 0.0
C267 C 0.39172 0.84219 0.40534 0.0
N268 N 0.34449 0.82248 0.41941 0.0
N269 N 0.37854 0.84593 0.37536 0.0
H270 H 0.3334 0.83323 0.36628 0.0
H271 H 0.37482 0.82074 0.45881 0.0
C272 C 0.32497 0.7824 0.51619 0.0
O273 O 0.31005 0.79056 0.53756 0.0
N274 N 0.26978 0.7757 0.46995 0.0
C275 C 0.25657 0.78332 0.49655 0.0
C276 C 0.23606 0.75828 0.51486 0.0
C277 C 0.25678 0.74624 0.47233 0.0
N278 N 0.23629 0.73511 0.49932 0.0
C279 C 0.29993 0.84821 0.46182 0.0
C280 C 0.34807 0.87659 0.50804 0.0
C281 C 0.3339 0.89174 0.49598 0.0
C282 C 0.30899 0.87678 0.47336 0.0
C283 C 0.33875 0.84828 0.49502 0.0
N284 N 0.31501 0.83441 0.47201 0.0
H285 H 0.2813 0.83753 0.44337 0.0
H286 H 0.35193 0.83855 0.50185 0.0
H287 H 0.26302 0.80541 0.50502 0.0
H288 H 0.26449 0.73341 0.45761 0.0
O289 O 0.28668 0.80422 0.40201 0.0
O290 O 0.29645 0.76809 0.40859 0.0
O291 O 0.32602 0.78587 0.481 0.0
C292 C 0.28543 0.78071 0.38835 0.0
H293 H 0.41442 0.84751 0.40675 0.0
H294 H 0.22358 0.75737 0.53932 0.0
H295 H 0.36713 0.88694 0.52599 0.0
H296 H 0.29746 0.88749 0.46271 0.0
Co297 Co 0.49384 0.30177 0.93628 0.0
C298 C 0.50534 0.34012 0.86986 0.0
C299 C 0.49518 0.35697 0.91831 0.0
C300 C 0.50419 0.3778 0.89063 0.0
N301 N 0.49593 0.33322 0.90539 0.0
N302 N 0.51089 0.36727 0.86024 0.0
H303 H 0.50947 0.32628 0.85176 0.0
H304 H 0.49066 0.36008 0.94678 0.0
C305 C 0.53759 0.335 0.99872 0.0
O306 O 0.52924 0.31152 0.01932 0.0
N307 N 0.49251 0.27102 0.96765 0.0
C308 C 0.47304 0.25489 0.9945 0.0
C309 C 0.48317 0.2385 0.01273 0.0
C310 C 0.51358 0.26353 0.96924 0.0
N311 N 0.50853 0.244 0.99654 0.0
C312 C 0.43553 0.29043 0.94375 0.0
C313 C 0.44327 0.32161 0.00872 0.0
C314 C 0.4184 0.31386 0.98672 0.0
C315 C 0.4138 0.29642 0.95522 0.0
C316 C 0.46441 0.31473 0.99649 0.0
N317 N 0.46123 0.30106 0.963 0.0
H318 H 0.4325 0.27933 0.91751 0.0
H319 H 0.48399 0.3223 0.0128 0.0
H320 H 0.45342 0.25561 0.00147 0.0
H321 H 0.53341 0.27373 0.95262 0.0
O322 O 0.47186 0.27284 0.8984 0.0
O323 O 0.52029 0.29743 0.90238 0.0
O324 O 0.52458 0.33381 0.96823 0.0
C325 C 0.49693 0.27822 0.88468 0.0
H326 H 0.50759 0.39977 0.8937 0.0
H327 H 0.47309 0.22421 0.03645 0.0
H328 H 0.44755 0.33485 0.03354 0.0
H329 H 0.39449 0.28925 0.938 0.0
Co330 Co 0.20407 0.51364 0.44822 0.0
C331 C 0.17061 0.52457 0.38969 0.0
C332 C 0.19109 0.56035 0.42839 0.0
C333 C 0.17692 0.56742 0.4019 0.0
N334 N 0.18696 0.53335 0.42103 0.0
N335 N 0.16424 0.54505 0.37752 0.0
H336 H 0.16442 0.50423 0.37525 0.0
H337 H 0.20436 0.57467 0.4506 0.0
C338 C 0.20869 0.5422 0.52301 0.0
O339 O 0.193 0.51668 0.53956 0.0
N340 N 0.22277 0.49543 0.47558 0.0
C341 C 0.22439 0.47129 0.46664 0.0
C342 C 0.24694 0.47146 0.4866 0.0
C343 C 0.24464 0.5099 0.50034 0.0
N344 N 0.25941 0.49575 0.50798 0.0
C345 C 0.15401 0.45821 0.46803 0.0
C346 C 0.11935 0.48121 0.49071 0.0
C347 C 0.10671 0.45079 0.48703 0.0
C348 C 0.12448 0.43917 0.47664 0.0
C349 C 0.14895 0.49938 0.48238 0.0
N350 N 0.16593 0.48794 0.4707 0.0
H351 H 0.16665 0.449 0.45695 0.0
H352 H 0.1578 0.52282 0.48377 0.0
H353 H 0.21232 0.45617 0.44441 0.0
H354 H 0.25254 0.53233 0.50881 0.0
O355 O 0.19995 0.49038 0.4048 0.0
O356 O 0.2388 0.53381 0.41721 0.0
O357 O 0.21532 0.54384 0.48856 0.0
C358 C 0.22536 0.5118 0.39425 0.0
H359 H 0.17767 0.58831 0.39919 0.0
H360 H 0.25519 0.45641 0.48315 0.0
H361 H 0.10619 0.49092 0.49869 0.0
H362 H 0.11522 0.41573 0.47292 0.0
Co363 Co 0.68727 0.19651 0.93453 0.0
C364 C 0.64054 0.16259 0.87875 0.0
C365 C 0.62249 0.1679 0.9297 0.0
C366 C 0.59999 0.15348 0.90472 0.0
N367 N 0.64808 0.17374 0.91346 0.0
N368 N 0.61144 0.15041 0.87268 0.0
H369 H 0.65598 0.16427 0.85764 0.0
H370 H 0.62004 0.17453 0.9573 0.0
C371 C 0.67128 0.20887 0.01159 0.0
O372 O 0.6866 0.1993 0.02955 0.0
N373 N 0.72612 0.21987 0.95594 0.0
C374 C 0.75101 0.21951 0.94762 0.0
C375 C 0.77464 0.24415 0.96255 0.0
C376 C 0.73517 0.24495 0.97528 0.0
N377 N 0.76443 0.25978 0.98029 0.0
C378 C 0.69741 0.14876 0.94713 0.0
C379 C 0.65071 0.11717 0.99473 0.0
C380 C 0.66636 0.10409 0.98099 0.0
C381 C 0.69034 0.12042 0.95755 0.0
C382 C 0.65825 0.14545 0.98316 0.0
N383 N 0.68142 0.16105 0.95958 0.0
H384 H 0.71449 0.15983 0.92678 0.0
H385 H 0.64411 0.15375 0.99148 0.0
H386 H 0.7526 0.20428 0.92898 0.0
H387 H 0.72119 0.25395 0.98205 0.0
O388 O 0.70445 0.19277 0.88861 0.0
O389 O 0.69549 0.22878 0.90115 0.0
O390 O 0.66993 0.20844 0.97614 0.0
C391 C 0.70513 0.21668 0.87764 0.0
H392 H 0.57731 0.14763 0.9089 0.0
H393 H 0.79761 0.25124 0.95819 0.0
H394 H 0.63151 0.10488 0.01213 0.0
H395 H 0.70267 0.11084 0.94593 0.0
C396 C 0.39158 0.33083 0.02893 0.0
C397 C 0.39992 0.32748 0.99298 0.0
C398 C 0.37685 0.34662 0.03481 0.0
C399 C 0.37067 0.35954 0.00403 0.0
C400 C 0.37813 0.35533 0.96761 0.0
C401 C 0.39266 0.33941 0.96256 0.0
C402 C 0.36894 0.35046 0.07401 0.0
C403 C 0.3722 0.36899 0.93409 0.0
C404 C 0.31811 0.38914 0.01203 0.0
C405 C 0.33765 0.41924 0.01731 0.0
C406 C 0.32844 0.36924 0.00847 0.0
C407 C 0.359 0.37977 0.00993 0.0
C408 C 0.3788 0.41008 0.01523 0.0
C409 C 0.36789 0.42939 0.01905 0.0
C410 C 0.30672 0.33703 0.00289 0.0
C411 C 0.41159 0.4222 0.01667 0.0
H412 H 0.397 0.32152 0.05248 0.0
H413 H 0.39958 0.33749 0.93475 0.0
H414 H 0.38251 0.37379 0.08246 0.0
H415 H 0.34561 0.34482 0.07541 0.0
H416 H 0.37252 0.33663 0.09436 0.0
H417 H 0.3771 0.36155 0.90744 0.0
H418 H 0.34893 0.36355 0.93376 0.0
H419 H 0.38595 0.39326 0.93566 0.0
H420 H 0.29473 0.38115 0.01047 0.0
H421 H 0.38311 0.45247 0.02407 0.0
H422 H 0.30995 0.3238 0.02447 0.0
H423 H 0.31047 0.32979 0.97543 0.0
H424 H 0.28361 0.3322 0.00416 0.0
H425 H 0.41704 0.41137 0.03932 0.0
H426 H 0.42398 0.44631 0.02138 0.0
H427 H 0.41922 0.41742 0.99014 0.0
C428 C 0.93922 0.38169 0.53537 0.0
C429 C 0.92008 0.35664 0.51497 0.0
C430 C 0.96967 0.39452 0.53154 0.0
C431 C 0.98122 0.38225 0.50619 0.0
C432 C 0.96197 0.35655 0.48603 0.0
C433 C 0.93149 0.34382 0.49096 0.0
C434 C 0.98946 0.42163 0.55399 0.0
C435 C 0.97351 0.34315 0.45834 0.0
C436 C 0.05605 0.43771 0.46896 0.0
C437 C 0.07462 0.43175 0.49058 0.0
C438 C 0.02552 0.42082 0.4726 0.0
C439 C 0.01332 0.39774 0.49902 0.0
C440 C 0.03198 0.39116 0.52034 0.0
C441 C 0.06254 0.40814 0.51557 0.0
C442 C 0.00636 0.42822 0.44891 0.0
C443 C 0.01974 0.36702 0.54916 0.0
H444 H 0.93028 0.39126 0.5544 0.0
H445 H 0.91656 0.32439 0.47528 0.0
H446 H 0.00614 0.41855 0.56908 0.0
H447 H 0.00142 0.4407 0.53506 0.0
H448 H 0.97705 0.42701 0.57456 0.0
H449 H 0.95578 0.32216 0.44668 0.0
H450 H 0.98454 0.35875 0.43505 0.0
H451 H 0.99016 0.33906 0.47164 0.0
H452 H 0.06552 0.45575 0.44922 0.0
H453 H 0.07704 0.40362 0.5322 0.0
H454 H 0.99493 0.43655 0.46686 0.0
H455 H 0.98925 0.40823 0.43466 0.0
H456 H 0.01919 0.44514 0.42753 0.0
H457 H 0.00916 0.37278 0.57184 0.0
H458 H 0.037 0.36334 0.56152 0.0
H459 H 0.00258 0.34615 0.53665 0.0
C460 C 0.64919 0.05392 0.95612 0.0
C461 C 0.65524 0.07243 0.98696 0.0
C462 C 0.63528 0.02338 0.96053 0.0
C463 C 0.62773 0.01116 0.99672 0.0
C464 C 0.63518 0.02988 0.02813 0.0
C465 C 0.64853 0.06036 0.02282 0.0
C466 C 0.6271 0.00417 0.9263 0.0
C467 C 0.62803 0.01766 0.0672 0.0
C468 C 0.56125 0.93529 0.00738 0.0
C469 C 0.57401 0.91743 0.01055 0.0
C470 C 0.57852 0.96568 0.00229 0.0
C471 C 0.60944 0.97884 0.00139 0.0
C472 C 0.62261 0.96115 0.00476 0.0
C473 C 0.60473 0.9306 0.00887 0.0
C474 C 0.56359 0.98375 0.9982 0.0
C475 C 0.65557 0.97453 0.00447 0.0
H476 H 0.65404 0.06328 0.92833 0.0
H477 H 0.65336 0.07475 0.04663 0.0
H478 H 0.63465 0.98797 0.92901 0.0
H479 H 0.60285 0.99161 0.92341 0.0
H480 H 0.63662 0.01714 0.90045 0.0
H481 H 0.63833 0.03516 0.08863 0.0
H482 H 0.6039 0.00588 0.07143 0.0
H483 H 0.63554 0.00155 0.07155 0.0
H484 H 0.53767 0.92568 0.00969 0.0
H485 H 0.61487 0.91708 0.01088 0.0
H486 H 0.57082 0.99673 0.97205 0.0
H487 H 0.56992 -0.00046 0.02161 0.0
H488 H 0.53927 0.96995 0.99778 0.0
H489 H 0.66474 0.98632 0.97785 0.0
H490 H 0.66239 0.9578 0.00805 0.0
H491 H 0.66541 0.99094 0.0272 0.0
C492 C 0.66593 0.59712 0.50806 0.0
C493 C 0.64671 0.56766 0.51774 0.0
C494 C 0.6558 0.61716 0.50444 0.0
C495 C 0.62562 0.60731 0.5096 0.0
C496 C 0.60607 0.57764 0.51904 0.0
C497 C 0.61691 0.55834 0.52356 0.0
C498 C 0.67733 0.64882 0.49509 0.0
C499 C 0.57358 0.56616 0.52416 0.0
C500 C 0.59306 0.65571 0.53061 0.0
C501 C 0.58197 0.65682 0.49567 0.0
C502 C 0.60949 0.64154 0.53509 0.0
C503 C 0.61393 0.62753 0.50406 0.0
C504 C 0.60383 0.62988 0.46838 0.0
C505 C 0.58811 0.64475 0.46461 0.0
C506 C 0.62057 0.64009 0.57335 0.0
C507 C 0.60756 0.61476 0.43478 0.0
H508 H 0.68893 0.60456 0.50307 0.0
H509 H 0.60194 0.53594 0.53211 0.0
H510 H 0.67183 0.6545 0.46765 0.0
H511 H 0.67581 0.66352 0.51606 0.0
H512 H 0.70034 0.65334 0.49414 0.0
H513 H 0.56123 0.54226 0.53042 0.0
H514 H 0.56999 0.57802 0.54728 0.0
H515 H 0.56428 0.57017 0.49856 0.0
H516 H 0.58801 0.665 0.55453 0.0
H517 H 0.57908 0.64547 0.43772 0.0
H518 H 0.64363 0.64488 0.57184 0.0
H519 H 0.60715 0.61759 0.58479 0.0
H520 H 0.61936 0.65578 0.593 0.0
H521 H 0.63066 0.61991 0.43216 0.0
H522 H 0.60106 0.62117 0.40852 0.0
H523 H 0.59378 0.59061 0.43821 0.0
C524 C 0.0708 0.68428 0.00732 0.0
C525 C 0.08108 0.66554 0.01878 0.0
C526 C 0.04061 0.67366 0.003 0.0
C527 C 0.02047 0.64373 0.01051 0.0
C528 C 0.03074 0.62514 0.02383 0.0
C529 C 0.06094 0.63627 0.0277 0.0
C530 C 0.03041 0.69405 0.98858 0.0
C531 C 0.00993 0.5931 0.03228 0.0
C532 C 0.93779 0.61162 0.01491 0.0
C533 C 0.92947 0.59857 0.97962 0.0
C534 C 0.96758 0.62767 0.02508 0.0
C535 C 0.9893 0.6306 0.99931 0.0
C536 C 0.98106 0.61841 0.96329 0.0
C537 C 0.95136 0.60238 0.95407 0.0
C538 C 0.97572 0.64045 0.06376 0.0
C539 C 0.00354 0.62094 0.93497 0.0
H540 H 0.08639 0.70698 0.00064 0.0
H541 H 0.06885 0.62198 0.03756 0.0
H542 H 0.02256 0.68799 0.9595 0.0
H543 H 0.01172 0.69187 0.00541 0.0
H544 H 0.04825 0.71738 0.98894 0.0
H545 H 0.02116 0.58249 0.04609 0.0
H546 H 0.99179 0.59064 0.0505 0.0
H547 H -4e-05 0.58116 0.00599 0.0
H548 H 0.92106 0.60893 0.03473 0.0
H549 H 0.94531 0.59172 0.92711 0.0
H550 H 0.99356 0.66371 0.0625 0.0
H551 H 0.98411 0.62823 0.08002 0.0
H552 H 0.9567 0.63924 0.07888 0.0
H553 H 0.02108 0.64418 0.93178 0.0
H554 H 0.99365 0.61239 0.90719 0.0
H555 H 0.01407 0.60838 0.94473 0.0
C556 C 0.32869 0.93624 0.50712 0.0
C557 C 0.34672 0.9237 0.50348 0.0
C558 C 0.34082 0.96678 0.50984 0.0
C559 C 0.37168 0.9851 0.51005 0.0
C560 C 0.39001 0.97258 0.50801 0.0
C561 C 0.37734 0.94214 0.50416 0.0
C562 C 0.32066 0.97948 0.51141 0.0
C563 C 0.42308 0.9914 0.50898 0.0
C564 C 0.41108 0.06484 0.48031 0.0
C565 C 0.41848 0.07898 0.51484 0.0
C566 C 0.39402 0.03415 0.47829 0.0
C567 C 0.38516 0.01747 0.51165 0.0
C568 C 0.3919 0.03188 0.54656 0.0
C569 C 0.4083 0.06259 0.54769 0.0
C570 C 0.38663 0.01953 0.44056 0.0
C571 C 0.38355 0.01488 0.5827 0.0
H572 H 0.30504 0.92225 0.50728 0.0
H573 H 0.39162 0.933 0.50049 0.0
H574 H 0.32528 0.99327 0.53666 0.0
H575 H 0.32473 0.99394 0.48694 0.0
H576 H 0.29712 0.96219 0.51163 0.0
H577 H 0.4341 0.97806 0.50991 0.0
H578 H 0.43088 0.00563 0.48391 0.0
H579 H 0.43002 0.00603 0.5337 0.0
H580 H 0.41918 0.07777 0.45505 0.0
H581 H 0.4145 0.07379 0.57434 0.0
H582 H 0.36297 0.00276 0.43913 0.0
H583 H 0.39926 0.00806 0.43605 0.0
H584 H 0.39188 0.03558 0.41759 0.0
H585 H 0.35995 0.99793 0.5827 0.0
H586 H 0.38805 0.02936 0.60729 0.0
H587 H 0.39623 0.0033 0.58572 0.0
C588 C 0.21621 0.541 0.02935 0.0
C589 C 0.22676 0.52733 0.00557 0.0
C590 C 0.21301 0.56449 0.01694 0.0
C591 C 0.22117 0.57489 0.97993 0.0
C592 C 0.23002 0.55987 0.95504 0.0
C593 C 0.23264 0.53609 0.9682 0.0
C594 C 0.20287 0.57946 0.04428 0.0
C595 C 0.23893 0.57022 0.91549 0.0
C596 C 0.19866 0.63122 0.95957 0.0
C597 C 0.22277 0.65625 0.97445 0.0
C598 C 0.19883 0.60463 0.9571 0.0
C599 C 0.22378 0.60348 0.96961 0.0
C600 C 0.24953 0.62977 0.97986 0.0
C601 C 0.24856 0.65585 0.98263 0.0
C602 C 0.17112 0.57724 0.94551 0.0
C603 C 0.27691 0.62972 0.99244 0.0
H604 H 0.21189 0.53414 0.05825 0.0
H605 H 0.24131 0.52574 0.95007 0.0
H606 H 0.22128 0.60179 0.05065 0.0
H607 H 0.18489 0.58198 0.03203 0.0
H608 H 0.19495 0.56709 0.07085 0.0
H609 H 0.23862 0.55276 0.89773 0.0
H610 H 0.22431 0.57747 0.90299 0.0
H611 H 0.26158 0.58932 0.91537 0.0
H612 H 0.17859 0.63155 0.95376 0.0
H613 H 0.26709 0.6753 0.99437 0.0
H614 H 0.15887 0.56513 0.97078 0.0
H615 H 0.1762 0.56243 0.92913 0.0
H616 H 0.15662 0.58255 0.92875 0.0
H617 H 0.2734 0.62027 0.0209 0.0
H618 H 0.29627 0.65225 0.99316 0.0
H619 H 0.28188 0.61594 0.97379 0.0
C620 C 0.57023 0.19234 0.45344 0.0
C621 C 0.56934 0.21431 0.47455 0.0
C622 C 0.59673 0.19214 0.44899 0.0
C623 C 0.62259 0.2144 0.46612 0.0
C624 C 0.62212 0.23807 0.48436 0.0
C625 C 0.59547 0.23768 0.48835 0.0
C626 C 0.59645 0.1669 0.42865 0.0
C627 C 0.64924 0.26257 0.50259 0.0
C628 C 0.68146 0.20425 0.51145 0.0
C629 C 0.70574 0.22295 0.48955 0.0
C630 C 0.65321 0.19856 0.50189 0.0
C631 C 0.64933 0.21168 0.46946 0.0
C632 C 0.67321 0.22739 0.44487 0.0
C633 C 0.70125 0.23308 0.45542 0.0
C634 C 0.62828 0.18152 0.52886 0.0
C635 C 0.6699 0.24102 0.40955 0.0
H636 H 0.54993 0.17408 0.44308 0.0
H637 H 0.5947 0.25469 0.50458 0.0
H638 H 0.61686 0.17443 0.41221 0.0
H639 H 0.59514 0.15053 0.44922 0.0
H640 H 0.57725 0.15577 0.40971 0.0
H641 H 0.64562 0.28041 0.51304 0.0
H642 H 0.65579 0.25367 0.52644 0.0
H643 H 0.66784 0.27219 0.48264 0.0
H644 H 0.68496 0.19662 0.53796 0.0
H645 H 0.72014 0.24749 0.43851 0.0
H646 H 0.60809 0.16574 0.51378 0.0
H647 H 0.62337 0.19696 0.54408 0.0
H648 H 0.63373 0.16928 0.5496 0.0
H649 H 0.64863 0.22627 0.39576 0.0
H650 H 0.68803 0.24613 0.38963 0.0
H651 H 0.67034 0.26182 0.41641 0.0
C652 C 0.46274 0.67474 0.02199 0.0
C653 C 0.47493 0.69942 0.9989 0.0
C654 C 0.43858 0.64827 0.01037 0.0
C655 C 0.42604 0.6467 0.97486 0.0
C656 C 0.43979 0.67093 0.95022 0.0
C657 C 0.46421 0.69714 0.9626 0.0
C658 C 0.425 0.62282 0.0374 0.0
C659 C 0.42735 0.67017 0.91213 0.0
C660 C 0.36679 0.56851 0.95752 0.0
C661 C 0.34337 0.56848 0.97612 0.0
C662 C 0.3935 0.59482 0.95265 0.0
C663 C 0.39645 0.62135 0.96669 0.0
C664 C 0.37145 0.62173 0.98077 0.0
C665 C 0.34522 0.59513 0.98571 0.0
C666 C 0.4194 0.59359 0.93668 0.0
C667 C 0.37331 0.64963 0.99509 0.0
H668 H 0.47106 0.67685 0.05012 0.0
H669 H 0.47341 0.71652 0.94507 0.0
H670 H 0.4032 0.61902 0.04654 0.0
H671 H 0.42157 0.60244 0.02369 0.0
H672 H 0.43884 0.6268 0.06251 0.0
H673 H 0.44426 0.68679 0.89328 0.0
H674 H 0.41819 0.64814 0.89919 0.0
H675 H 0.40926 0.67516 0.91477 0.0
H676 H 0.36536 0.54777 0.9505 0.0
H677 H 0.327 0.59491 0.00024 0.0
H678 H 0.43299 0.59282 0.95982 0.0
H679 H 0.43346 0.61341 0.91973 0.0
H680 H 0.41224 0.57373 0.91917 0.0
H681 H 0.385 0.65559 0.02221 0.0
H682 H 0.35122 0.6471 0.99927 0.0
H683 H 0.3859 0.6681 0.97554 0.0
C684 C 0.76689 0.47243 0.44831 0.0
C685 C 0.77646 0.4856 0.48331 0.0
C686 C 0.7723 0.45015 0.43642 0.0
C687 C 0.78691 0.44047 0.46068 0.0
C688 C 0.79966 0.45618 0.49404 0.0
C689 C 0.79445 0.47881 0.5048 0.0
C690 C 0.7594 0.43482 0.39999 0.0
C691 C 0.81542 0.4466 0.52082 0.0
C692 C 0.75818 0.36018 0.47833 0.0
C693 C 0.782 0.35718 0.46691 0.0
C694 C 0.75838 0.38665 0.47336 0.0
C695 C 0.783 0.41062 0.45625 0.0
C696 C 0.80542 0.40652 0.44059 0.0
C697 C 0.80473 0.3797 0.44624 0.0
C698 C 0.7337 0.3898 0.4901 0.0
C699 C 0.83148 0.43118 0.42103 0.0
H700 H 0.75302 0.47785 0.43174 0.0
H701 H 0.80162 0.48885 0.53198 0.0
H702 H 0.77368 0.42752 0.38653 0.0
H703 H 0.7377 0.41508 0.40524 0.0
H704 H 0.75614 0.44934 0.38045 0.0
H705 H 0.82737 0.46331 0.54272 0.0
H706 H 0.79917 0.42586 0.53465 0.0
H707 H 0.83127 0.44222 0.50581 0.0
H708 H 0.7405 0.34259 0.49405 0.0
H709 H 0.82324 0.37744 0.43749 0.0
H710 H 0.72523 0.39953 0.46961 0.0
H711 H 0.74204 0.40481 0.51444 0.0
H712 H 0.71513 0.36842 0.49955 0.0
H713 H 0.82502 0.44504 0.40486 0.0
H714 H 0.84214 0.42263 0.40199 0.0
H715 H 0.84794 0.44537 0.44206 0.0
C716 C 0.4294 0.79329 0.95472 0.0
C717 C 0.42927 0.77028 0.97453 0.0
C718 C 0.40327 0.79398 0.94965 0.0
C719 C 0.37676 0.77103 0.96461 0.0
C720 C 0.37614 0.74588 0.97995 0.0
C721 C 0.40259 0.746 0.98517 0.0
C722 C 0.40475 0.82086 0.93246 0.0
C723 C 0.34819 0.72046 0.99521 0.0
C724 C 0.32431 0.78638 0.01839 0.0
C725 C 0.29964 0.77386 0.99535 0.0
C726 C 0.35049 0.7878 0.00718 0.0
C727 C 0.35173 0.77587 0.97223 0.0
C728 C 0.32751 0.76523 0.94763 0.0
C729 C 0.30164 0.76438 0.95953 0.0
C730 C 0.37598 0.79989 0.0341 0.0
C731 C 0.32791 0.75243 0.91017 0.0
H732 H 0.4502 0.81219 0.94685 0.0
H733 H 0.40269 0.72829 0.00058 0.0
H734 H 0.38493 0.81491 0.91548 0.0
H735 H 0.40574 0.83582 0.95494 0.0
H736 H 0.42457 0.83299 0.91468 0.0
H737 H 0.3505 0.70087 0.00043 0.0
H738 H 0.3425 0.72705 0.02193 0.0
H739 H 0.32966 0.71427 0.97569 0.0
H740 H 0.32243 0.79344 0.04612 0.0
H741 H 0.28226 0.75421 0.94205 0.0
H742 H 0.39651 0.81612 0.01993 0.0
H743 H 0.37927 0.78181 0.04433 0.0
H744 H 0.37238 0.81068 0.05855 0.0
H745 H 0.34989 0.76466 0.89696 0.0
H746 H 0.31136 0.7525 0.89102 0.0
H747 H 0.3226 0.72933 0.91392 0.0
C748 C 0.64007 0.3999 0.47382 0.0
C749 C 0.64204 0.42643 0.46309 0.0
C750 C 0.61367 0.37335 0.47046 0.0
C751 C 0.58882 0.37335 0.45525 0.0
C752 C 0.5919 0.3995 0.43962 0.0
C753 C 0.61859 0.42599 0.44399 0.0
C754 C 0.61162 0.34602 0.48732 0.0
C755 C 0.56632 0.40013 0.42162 0.0
C756 C 0.52664 0.29514 0.45251 0.0
C757 C 0.51432 0.29279 0.48784 0.0
C758 C 0.54869 0.32237 0.43897 0.0
C759 C 0.55933 0.34741 0.4621 0.0
C760 C 0.54491 0.34554 0.4963 0.0
C761 C 0.52227 0.31819 0.50854 0.0
C762 C 0.56245 0.32364 0.40162 0.0
C763 C 0.55571 0.37157 0.52216 0.0
H764 H 0.65839 0.40032 0.48828 0.0
H765 H 0.62006 0.44653 0.43569 0.0
H766 H 0.59759 0.33967 0.51262 0.0
H767 H 0.60132 0.32742 0.46749 0.0
H768 H 0.63348 0.34931 0.49533 0.0
H769 H 0.5739 0.41904 0.40222 0.0
H770 H 0.55223 0.3795 0.40614 0.0
H771 H 0.55266 0.40239 0.44348 0.0
H772 H 0.52029 0.27533 0.43658 0.0
H773 H 0.51288 0.31618 0.53602 0.0
H774 H 0.58214 0.32137 0.4056 0.0
H775 H 0.56951 0.34495 0.38752 0.0
H776 H 0.54697 0.30552 0.38318 0.0
H777 H 0.57711 0.37645 0.53419 0.0
H778 H 0.54015 0.36741 0.54543 0.0
H779 H 0.55924 0.39136 0.50678 0.0
C780 C 0.34834 0.75205 0.51401 0.0
C781 C 0.34572 0.7743 0.5318 0.0
C782 C 0.3735 0.74972 0.51846 0.0
C783 C 0.39662 0.77026 0.54132 0.0
C784 C 0.39275 0.79088 0.56241 0.0
C785 C 0.3672 0.79274 0.55729 0.0
C786 C 0.37641 0.72708 0.49577 0.0
C787 C 0.41653 0.81257 0.58784 0.0
C788 C 0.45458 0.74839 0.54859 0.0
C789 C 0.47212 0.76306 0.51767 0.0
C790 C 0.43164 0.75304 0.55964 0.0
C791 C 0.42576 0.77225 0.53857 0.0
C792 C 0.4452 0.78919 0.5095 0.0
C793 C 0.46838 0.78453 0.49959 0.0
C794 C 0.41207 0.73527 0.59149 0.0
C795 C 0.43966 0.80986 0.48619 0.0
H796 H 0.33159 0.73783 0.49431 0.0
H797 H 0.36525 0.81017 0.57072 0.0
H798 H 0.39344 0.73828 0.47398 0.0
H799 H 0.38349 0.71456 0.51365 0.0
H800 H 0.3555 0.71128 0.48191 0.0
H801 H 0.4077 0.82193 0.60847 0.0
H802 H 0.42739 0.80215 0.60291 0.0
H803 H 0.43352 0.83089 0.57099 0.0
H804 H 0.45771 0.73189 0.56261 0.0
H805 H 0.48184 0.79566 0.47552 0.0
H806 H 0.39211 0.71595 0.58026 0.0
H807 H 0.4049 0.7484 0.60805 0.0
H808 H 0.42331 0.72717 0.61022 0.0
H809 H 0.42006 0.79693 0.4684 0.0
H810 H 0.45859 0.82392 0.46784 0.0
H811 H 0.43504 0.82421 0.50422 0.0
C812 C 0.69488 0.44439 0.95891 0.0
C813 C 0.71196 0.47054 0.97854 0.0
C814 C 0.66567 0.42519 0.96863 0.0
C815 C 0.65307 0.43223 0.99895 0.0
C816 C 0.67002 0.45883 0.01873 0.0
C817 C 0.69937 0.47785 0.00809 0.0
C818 C 0.64832 0.39729 0.94633 0.0
C819 C 0.65731 0.46689 0.05131 0.0
C820 C 0.57108 0.38856 0.98879 0.0
C821 C 0.56476 0.36267 0.00769 0.0
C822 C 0.59943 0.41304 0.98912 0.0
C823 C 0.62194 0.41152 0.00877 0.0
C824 C 0.61488 0.38674 0.03136 0.0
C825 C 0.58626 0.36251 0.03058 0.0
C826 C 0.60588 0.43911 0.96494 0.0
C827 C 0.63819 0.38442 0.05311 0.0
H828 H 0.70444 0.43903 0.93558 0.0
H829 H 0.71269 0.49803 0.02335 0.0
H830 H 0.64045 0.37788 0.96483 0.0
H831 H 0.62871 0.39671 0.93394 0.0
H832 H 0.66146 0.39523 0.9235 0.0
H833 H 0.6729 0.489 0.06258 0.0
H834 H 0.6368 0.46645 0.04294 0.0
H835 H 0.65149 0.45047 0.07388 0.0
H836 H 0.55437 0.38905 0.97163 0.0
H837 H 0.58145 0.34268 0.04555 0.0
H838 H 0.61652 0.43799 0.93875 0.0
H839 H 0.62123 0.46001 0.97905 0.0
H840 H 0.58554 0.43947 0.95756 0.0
H841 H 0.65118 0.37885 0.03379 0.0
H842 H 0.62846 0.36706 0.07483 0.0
H843 H 0.65353 0.40563 0.06659 0.0
C844 C 0.18893 0.5706 0.5546 0.0
C845 C 0.21311 0.56938 0.54038 0.0
C846 C 0.18971 0.59763 0.55772 0.0
C847 C 0.21534 0.62371 0.54664 0.0
C848 C 0.24095 0.62272 0.5369 0.0
C849 C 0.23941 0.59546 0.53355 0.0
C850 C 0.16208 0.59779 0.56859 0.0
C851 C 0.26899 0.65006 0.52569 0.0
C852 C 0.21267 0.68224 0.48906 0.0
C853 C 0.22409 0.70589 0.51382 0.0
C854 C 0.20728 0.65453 0.50046 0.0
C855 C 0.21396 0.65057 0.53752 0.0
C856 C 0.22329 0.67383 0.56349 0.0
C857 C 0.2282 0.70134 0.55128 0.0
C858 C 0.19704 0.63034 0.4718 0.0
C859 C 0.23054 0.67051 0.6032 0.0
H860 H 0.16847 0.55034 0.55949 0.0
H861 H 0.25807 0.59437 0.52255 0.0
H862 H 0.16719 0.61729 0.58583 0.0
H863 H 0.15079 0.59886 0.54303 0.0
H864 H 0.14671 0.57762 0.58421 0.0
H865 H 0.28795 0.64625 0.52476 0.0
H866 H 0.26623 0.65717 0.49759 0.0
H867 H 0.27414 0.6683 0.54532 0.0
H868 H 0.20958 0.686 0.46013 0.0
H869 H 0.2374 0.71983 0.57028 0.0
H870 H 0.17946 0.60924 0.48333 0.0
H871 H 0.2157 0.62722 0.46383 0.0
H872 H 0.18865 0.63552 0.44619 0.0
H873 H 0.21465 0.64853 0.61443 0.0
H874 H 0.23071 0.68762 0.62156 0.0
H875 H 0.25266 0.67275 0.60411 0.0
C876 C 0.62365 0.19173 0.04282 0.0
C877 C 0.65051 0.21521 0.0309 0.0
C878 C 0.59876 0.19495 0.04602 0.0
C879 C 0.60114 0.22236 0.03734 0.0
C880 C 0.62912 0.24695 0.02979 0.0
C881 C 0.65345 0.24296 0.02618 0.0
C882 C 0.56944 0.16819 0.05423 0.0
C883 C 0.63282 0.27672 0.02111 0.0
C884 C 0.54172 0.22543 0.98148 0.0
C885 C 0.52859 0.23452 0.0082 0.0
C886 C 0.56423 0.21979 0.9912 0.0
C887 C 0.57437 0.22409 0.02853 0.0
C888 C 0.56042 0.23225 0.05598 0.0
C889 C 0.53743 0.23716 0.04549 0.0
C890 C 0.57798 0.21042 0.96113 0.0
C891 C 0.57078 0.23739 0.09588 0.0
H892 H 0.62132 0.17012 0.04571 0.0
H893 H 0.67421 0.26097 0.0164 0.0
H894 H 0.55577 0.17382 0.07216 0.0
H895 H 0.55743 0.15925 0.02768 0.0
H896 H 0.57201 0.1507 0.06808 0.0
H897 H 0.6562 0.29437 0.02246 0.0
H898 H 0.62458 0.27648 0.99258 0.0
H899 H 0.61987 0.28209 0.04074 0.0
H900 H 0.53467 0.22335 0.95272 0.0
H901 H 0.52743 0.24458 0.06598 0.0
H902 H 0.57822 0.19028 0.96981 0.0
H903 H 0.6011 0.22788 0.95663 0.0
H904 H 0.56611 0.206 0.93419 0.0
H905 H 0.57416 0.21934 0.10595 0.0
H906 H 0.55503 0.23929 0.1147 0.0
H907 H 0.59224 0.25803 0.09766 0.0
C908 C 0.40048 0.63129 0.51466 0.0
C909 C 0.4263 0.63497 0.53082 0.0
C910 C 0.37359 0.60573 0.52066 0.0
C911 C 0.37253 0.58317 0.5434 0.0
C912 C 0.39813 0.58785 0.56242 0.0
C913 C 0.42491 0.61385 0.55584 0.0
C914 C 0.34679 0.60202 0.50025 0.0
C915 C 0.39779 0.56465 0.58746 0.0
C916 C 0.29303 0.52709 0.55675 0.0
C917 C 0.28803 0.50988 0.5248 0.0
C918 C 0.32149 0.54901 0.56647 0.0
C919 C 0.34528 0.55398 0.54324 0.0
C920 C 0.34072 0.53414 0.51381 0.0
C921 C 0.31203 0.51216 0.50502 0.0
C922 C 0.32549 0.56901 0.59879 0.0
C923 C 0.36555 0.53846 0.48857 0.0
H924 H 0.40163 0.6478 0.49549 0.0
H925 H 0.44498 0.61664 0.5681 0.0
H926 H 0.33967 0.58418 0.47935 0.0
H927 H 0.32833 0.59567 0.51996 0.0
H928 H 0.35104 0.6224 0.4856 0.0
H929 H 0.41657 0.57422 0.6072 0.0
H930 H 0.37702 0.5531 0.60355 0.0
H931 H 0.39951 0.54807 0.57018 0.0
H932 H 0.27438 0.52506 0.57221 0.0
H933 H 0.30819 0.49892 0.48027 0.0
H934 H 0.32614 0.58917 0.58825 0.0
H935 H 0.34648 0.57576 0.61348 0.0
H936 H 0.3071 0.55827 0.61903 0.0
H937 H 0.37146 0.55744 0.46984 0.0
H938 H 0.35944 0.5188 0.47108 0.0
H939 H 0.38533 0.54344 0.50505 0.0
C940 C 0.77634 0.29832 0.02674 0.0
C941 C 0.78089 0.28989 0.99152 0.0
C942 C 0.7879 0.3281 0.03561 0.0
C943 C 0.80305 0.34962 0.00785 0.0
C944 C 0.80898 0.34114 0.97285 0.0
C945 C 0.79814 0.31131 0.96535 0.0
C946 C 0.78222 0.33623 0.07378 0.0
C947 C 0.8245 0.36324 0.9421 0.0
C948 C 0.794 0.41586 0.99685 0.0
C949 C 0.82308 0.43877 0.00099 0.0
C950 C 0.78663 0.38656 0.00182 0.0
C951 C 0.80867 0.38008 0.01258 0.0
C952 C 0.83705 0.40322 0.02178 0.0
C953 C 0.8441 0.43241 0.0154 0.0
C954 C 0.75603 0.36259 0.99164 0.0
C955 C 0.86062 0.39715 0.03546 0.0
H956 H 0.76288 0.28149 0.04681 0.0
H957 H 0.80117 0.3045 0.93799 0.0
H958 H 0.80088 0.35751 0.08319 0.0
H959 H 0.76234 0.33845 0.07288 0.0
H960 H 0.77836 0.31904 0.09464 0.0
H961 H 0.82859 0.3532 0.91723 0.0
H962 H 0.81097 0.37303 0.93348 0.0
H963 H 0.84583 0.38137 0.95215 0.0
H964 H 0.77739 0.42053 0.98648 0.0
H965 H 0.86649 0.45 0.01946 0.0
H966 H 0.74653 0.34605 0.01422 0.0
H967 H 0.75702 0.35111 0.96619 0.0
H968 H 0.74098 0.37129 0.98623 0.0
H969 H 0.85136 0.3782 0.05493 0.0
H970 H 0.8786 0.41658 0.04971 0.0
H971 H 0.87021 0.39156 0.01145 0.0
C972 C 0.21644 0.4957 0.32803 0.0
C973 C 0.23634 0.51247 0.35609 0.0
C974 C 0.22566 0.49709 0.29105 0.0
C975 C 0.2557 0.51516 0.28195 0.0
C976 C 0.27597 0.53209 0.31021 0.0
C977 C 0.26598 0.53076 0.34695 0.0
C978 C 0.2032 0.47919 0.2617 0.0
C979 C 0.30829 0.55104 0.30188 0.0
C980 C 0.28038 0.49331 0.19406 0.0
C981 C 0.28132 0.51366 0.16803 0.0
C982 C 0.27302 0.49419 0.23145 0.0
C983 C 0.26578 0.51555 0.24298 0.0
C984 C 0.26672 0.53621 0.21681 0.0
C985 C 0.27483 0.53524 0.17969 0.0
C986 C 0.27279 0.4721 0.25855 0.0
C987 C 0.25879 0.55908 0.22794 0.0
H988 H 0.19338 0.48188 0.3348 0.0
H989 H 0.2814 0.54378 0.36858 0.0
H990 H 0.20464 0.49343 0.23803 0.0
H991 H 0.20776 0.46218 0.25055 0.0
H992 H 0.18041 0.46812 0.27278 0.0
H993 H 0.3206 0.56538 0.32573 0.0
H994 H 0.3176 0.53671 0.29543 0.0
H995 H 0.31176 0.565 0.27706 0.0
H996 H 0.28578 0.47683 0.18532 0.0
H997 H 0.27562 0.55105 0.15966 0.0
H998 H 0.25022 0.45784 0.26935 0.0
H999 H 0.28704 0.4836 0.28276 0.0
H1000 H 0.28049 0.45795 0.2456 0.0
H1001 H 0.23631 0.54827 0.23986 0.0
H1002 H 0.25976 0.57299 0.20407 0.0
H1003 H 0.274 0.57346 0.24993 0.0
C1004 C 0.72077 0.25658 0.82982 0.0
C1005 C 0.71424 0.22806 0.83929 0.0
C1006 C 0.72919 0.26731 0.79332 0.0
C1007 C 0.73062 0.2489 0.76553 0.0
C1008 C 0.72342 0.21988 0.77484 0.0
C1009 C 0.71559 0.20992 0.81164 0.0
C1010 C 0.73686 0.29843 0.78454 0.0
C1011 C 0.72414 0.19937 0.74596 0.0
C1012 C 0.73116 0.26826 0.66293 0.0
C1013 C 0.76092 0.2803 0.65394 0.0
C1014 C 0.7209 0.25804 0.69918 0.0
C1015 C 0.74099 0.26036 0.72716 0.0
C1016 C 0.77116 0.27304 0.71826 0.0
C1017 C 0.78068 0.28258 0.68174 0.0
C1018 C 0.68846 0.24391 0.7071 0.0
C1019 C 0.79342 0.27651 0.74733 0.0
H1020 H 0.71966 0.27065 0.85106 0.0
H1021 H 0.71017 0.18771 0.81865 0.0
H1022 H 0.75989 0.31113 0.77456 0.0
H1023 H 0.72261 0.29848 0.76179 0.0
H1024 H 0.73433 0.30983 0.80911 0.0
H1025 H 0.71677 0.1771 0.75734 0.0
H1026 H 0.70984 0.19735 0.7221 0.0
H1027 H 0.74678 0.20847 0.73499 0.0
H1028 H 0.71581 0.26637 0.64147 0.0
H1029 H 0.8038 0.29226 0.67508 0.0
H1030 H 0.68439 0.25167 0.73399 0.0
H1031 H 0.67909 0.21981 0.70925 0.0
H1032 H 0.67661 0.24832 0.68469 0.0
H1033 H 0.79239 0.28925 0.77136 0.0
H1034 H 0.81621 0.28784 0.73624 0.0
H1035 H 0.78827 0.25462 0.75798 0.0
C1036 C 0.46721 0.73496 0.17396 0.0
C1037 C 0.48791 0.76368 0.1634 0.0
C1038 C 0.4664 0.72509 0.21059 0.0
C1039 C 0.48621 0.74468 0.23752 0.0
C1040 C 0.50673 0.77389 0.2271 0.0
C1041 C 0.50758 0.78291 0.19007 0.0
C1042 C 0.44432 0.69371 0.22046 0.0
C1043 C 0.52772 0.79568 0.25511 0.0
C1044 C 0.46838 0.72592 0.34038 0.0
C1045 C 0.48786 0.71608 0.34983 0.0
C1046 C 0.46771 0.73554 0.30399 0.0
C1047 C 0.48631 0.73438 0.27624 0.0
C1048 C 0.5055 0.72377 0.28559 0.0
C1049 C 0.50646 0.71532 0.32241 0.0
C1050 C 0.44776 0.74775 0.29559 0.0
C1051 C 0.52494 0.72116 0.25663 0.0
H1052 H 0.45188 0.72007 0.15345 0.0
H1053 H 0.52334 0.80528 0.18216 0.0
H1054 H 0.4552 0.68327 0.23537 0.0
H1055 H 0.42751 0.69333 0.2395 0.0
H1056 H 0.43304 0.68034 0.19548 0.0
H1057 H 0.54126 0.81797 0.243 0.0
H1058 H 0.51534 0.79716 0.27926 0.0
H1059 H 0.54263 0.78814 0.26584 0.0
H1060 H 0.45407 0.72662 0.36162 0.0
H1061 H 0.52134 0.70741 0.32951 0.0
H1062 H 0.43466 0.73752 0.27013 0.0
H1063 H 0.46137 0.77166 0.29022 0.0
H1064 H 0.43255 0.74438 0.319 0.0
H1065 H 0.51166 0.7086 0.23222 0.0
H1066 H 0.53666 0.71009 0.26768 0.0
H1067 H 0.54146 0.74333 0.24658 0.0
C1068 C 0.71463 0.48776 0.67972 0.0
C1069 C 0.71881 0.47372 0.64912 0.0
C1070 C 0.72455 0.48589 0.71526 0.0
C1071 C 0.73969 0.47016 0.72019 0.0
C1072 C 0.74323 0.45519 0.68952 0.0
C1073 C 0.7325 0.45698 0.65431 0.0
C1074 C 0.7195 0.50145 0.74734 0.0
C1075 C 0.75959 0.43851 0.69287 0.0
C1076 C 0.794 0.50028 0.79971 0.0
C1077 C 0.77876 0.48024 0.82837 0.0
C1078 C 0.78216 0.49626 0.76385 0.0
C1079 C 0.75399 0.472 0.75664 0.0
C1080 C 0.73881 0.45115 0.78515 0.0
C1081 C 0.75155 0.45537 0.82073 0.0
C1082 C 0.79953 0.51841 0.7339 0.0
C1083 C 0.70888 0.42487 0.77823 0.0
H1084 H 0.70343 0.50019 0.67592 0.0
H1085 H 0.73565 0.44601 0.63066 0.0
H1086 H 0.70965 0.48627 0.77131 0.0
H1087 H 0.74082 0.52004 0.75674 0.0
H1088 H 0.70483 0.51016 0.73964 0.0
H1089 H 0.75009 0.41922 0.67393 0.0
H1090 H 0.78271 0.45314 0.68423 0.0
H1091 H 0.75951 0.43085 0.72168 0.0
H1092 H 0.81536 0.51922 0.80531 0.0
H1093 H 0.73985 0.43974 0.84281 0.0
H1094 H 0.78838 0.53088 0.72631 0.0
H1095 H 0.80063 0.50703 0.70842 0.0
H1096 H 0.82226 0.53425 0.74296 0.0
H1097 H 0.69306 0.43232 0.77132 0.0
H1098 H 0.70048 0.41003 0.80277 0.0
H1099 H 0.70978 0.41226 0.75396 0.0
C1100 C 0.27867 0.79146 0.32271 0.0
C1101 C 0.27543 0.77093 0.34992 0.0
C1102 C 0.2719 0.78316 0.28529 0.0
C1103 C 0.2603 0.75335 0.27516 0.0
C1104 C 0.25645 0.73243 0.30271 0.0
C1105 C 0.26457 0.74158 0.33971 0.0
C1106 C 0.27753 0.80636 0.2565 0.0
C1107 C 0.24357 0.70039 0.29312 0.0
C1108 C 0.21521 0.72958 0.18645 0.0
C1109 C 0.23442 0.72742 0.16122 0.0
C1110 C 0.2232 0.73739 0.22371 0.0
C1111 C 0.25146 0.74406 0.23589 0.0
C1112 C 0.27114 0.74223 0.21042 0.0
C1113 C 0.26217 0.73347 0.17347 0.0
C1114 C 0.20118 0.73803 0.2502 0.0
C1115 C 0.30145 0.74885 0.22195 0.0
H1116 H 0.28744 0.81427 0.33044 0.0
H1117 H 0.26213 0.72571 0.36076 0.0
H1118 H 0.2904 0.80485 0.23293 0.0
H1119 H 0.25637 0.80267 0.24505 0.0
H1120 H 0.28965 0.82891 0.26823 0.0
H1121 H 0.24113 0.68671 0.31795 0.0
H1122 H 0.22168 0.69203 0.2801 0.0
H1123 H 0.25779 0.69772 0.27251 0.0
H1124 H 0.19352 0.72445 0.17729 0.0
H1125 H 0.277 0.73158 0.15414 0.0
H1126 H 0.20973 0.76058 0.26118 0.0
H1127 H 0.19771 0.72348 0.27439 0.0
H1128 H 0.17964 0.73087 0.23671 0.0
H1129 H 0.31039 0.76485 0.24517 0.0
H1130 H 0.31702 0.75754 0.19814 0.0
H1131 H 0.30033 0.72819 0.23131 0.0
C1132 C 0.49121 0.20929 0.68487 0.0
C1133 C 0.50782 0.2308 0.65826 0.0
C1134 C 0.49122 0.21663 0.72239 0.0
C1135 C 0.50721 0.24644 0.7334 0.0
C1136 C 0.52391 0.26837 0.70658 0.0
C1137 C 0.52451 0.26019 0.66936 0.0
C1138 C 0.4736 0.19241 0.75004 0.0
C1139 C 0.54043 0.30048 0.71698 0.0
C1140 C 0.47793 0.26431 0.82022 0.0
C1141 C 0.49888 0.26802 0.84702 0.0
C1142 C 0.48095 0.25821 0.78298 0.0
C1143 C 0.50491 0.25458 0.77252 0.0
C1144 C 0.52575 0.25752 0.79973 0.0
C1145 C 0.52284 0.26488 0.83657 0.0
C1146 C 0.45874 0.25618 0.75471 0.0
C1147 C 0.55098 0.25274 0.78998 0.0
H1148 H 0.47847 0.18648 0.67648 0.0
H1149 H 0.53733 0.27683 0.64877 0.0
H1150 H 0.48609 0.1958 0.77623 0.0
H1151 H 0.45316 0.19258 0.75719 0.0
H1152 H 0.46742 0.1704 0.7387 0.0
H1153 H 0.55205 0.31485 0.69281 0.0
H1154 H 0.52497 0.30706 0.72854 0.0
H1155 H 0.55674 0.30437 0.73901 0.0
H1156 H 0.45974 0.26741 0.82806 0.0
H1157 H 0.53914 0.26797 0.85727 0.0
H1158 H 0.44665 0.23366 0.74303 0.0
H1159 H 0.4701 0.27143 0.7312 0.0
H1160 H 0.44256 0.26154 0.76691 0.0
H1161 H 0.54263 0.23114 0.77613 0.0
H1162 H 0.56387 0.25352 0.81489 0.0
H1163 H 0.56588 0.26981 0.77001 0.0
C1164 C 0.4714 0.62149 0.30425 0.0
C1165 C 0.46916 0.60417 0.33512 0.0
C1166 C 0.46177 0.60877 0.26907 0.0
C1167 C 0.44972 0.57807 0.26488 0.0
C1168 C 0.45055 0.56115 0.29497 0.0
C1169 C 0.46023 0.57444 0.32987 0.0
C1170 C 0.46162 0.62776 0.23762 0.0
C1171 C 0.43868 0.52853 0.2913 0.0
C1172 C 0.3853 0.54415 0.19884 0.0
C1173 C 0.39857 0.54242 0.16586 0.0
C1174 C 0.40157 0.55466 0.23167 0.0
C1175 C 0.43176 0.56327 0.23157 0.0
C1176 C 0.44485 0.55979 0.19899 0.0
C1177 C 0.42809 0.54958 0.16634 0.0
C1178 C 0.38679 0.55813 0.26585 0.0
C1179 C 0.47682 0.56827 0.19807 0.0
H1180 H 0.47822 0.64447 0.30809 0.0
H1181 H 0.45908 0.56119 0.35364 0.0
H1182 H 0.46713 0.62139 0.21066 0.0
H1183 H 0.4393 0.62492 0.23508 0.0
H1184 H 0.47742 0.65137 0.24271 0.0
H1185 H 0.44624 0.51986 0.3144 0.0
H1186 H 0.41432 0.51695 0.29187 0.0
H1187 H 0.44539 0.52327 0.26439 0.0
H1188 H 0.36261 0.53899 0.19845 0.0
H1189 H 0.43824 0.54795 0.14085 0.0
H1190 H 0.39696 0.58175 0.27314 0.0
H1191 H 0.38982 0.54673 0.28997 0.0
H1192 H 0.3629 0.54922 0.26157 0.0
H1193 H 0.49066 0.59255 0.19877 0.0
H1194 H 0.48242 0.5601 0.17258 0.0
H1195 H 0.48253 0.55956 0.22289 0.0
C1196 C 0.90362 0.47987 0.80619 0.0
C1197 C 0.88094 0.48552 0.81487 0.0
C1198 C 0.90516 0.46922 0.77093 0.0
C1199 C 0.88285 0.4632 0.74461 0.0
C1200 C 0.86168 0.47171 0.75207 0.0
C1201 C 0.86129 0.48321 0.78705 0.0
C1202 C 0.92893 0.46181 0.76329 0.0
C1203 C 0.83725 0.46544 0.72499 0.0
C1204 C 0.87558 0.43635 0.64569 0.0
C1205 C 0.85602 0.40629 0.65058 0.0
C1206 C 0.88724 0.45507 0.67648 0.0
C1207 C 0.87806 0.44343 0.71267 0.0
C1208 C 0.86005 0.41266 0.7177 0.0
C1209 C 0.84959 0.39438 0.68642 0.0
C1210 C 0.90743 0.48749 0.67005 0.0
C1211 C 0.84936 0.39932 0.75581 0.0
H1212 H 0.91876 0.48171 0.82791 0.0
H1213 H 0.84355 0.48722 0.79402 0.0
H1214 H 0.92025 0.43806 0.76837 0.0
H1215 H 0.93628 0.46645 0.73384 0.0
H1216 H 0.94818 0.47435 0.78179 0.0
H1217 H 0.82399 0.47544 0.73398 0.0
H1218 H 0.84625 0.47386 0.69688 0.0
H1219 H 0.82244 0.44134 0.72264 0.0
H1220 H 0.88049 0.44533 0.61772 0.0
H1221 H 0.83417 0.37113 0.68987 0.0
H1222 H 0.92454 0.49712 0.69199 0.0
H1223 H 0.89456 0.49896 0.67104 0.0
H1224 H 0.9183 0.49178 0.64238 0.0
H1225 H 0.8681 0.40659 0.77524 0.0
H1226 H 0.83707 0.37492 0.75502 0.0
H1227 H 0.83467 0.4069 0.76731 0.0
C1228 C 0.44726 0.87078 0.17008 0.0
C1229 C 0.45343 0.8478 0.16735 0.0
C1230 C 0.43693 0.87615 0.20354 0.0
C1231 C 0.43218 0.85768 0.23455 0.0
C1232 C 0.43934 0.83508 0.23223 0.0
C1233 C 0.45015 0.83061 0.19873 0.0
C1234 C 0.42991 0.90068 0.20521 0.0
C1235 C 0.43426 0.81467 0.26457 0.0
C1236 C 0.42138 0.873 0.33429 0.0
C1237 C 0.3911 0.85403 0.33866 0.0
C1238 C 0.43496 0.87633 0.2996 0.0
C1239 C 0.41777 0.86024 0.26871 0.0
C1240 C 0.38687 0.84312 0.27221 0.0
C1241 C 0.3739 0.84019 0.3072 0.0
C1242 C 0.46789 0.89536 0.29669 0.0
C1243 C 0.36766 0.82566 0.23994 0.0
H1244 H 0.44999 0.88414 0.14578 0.0
H1245 H 0.4545 0.81258 0.1965 0.0
H1246 H 0.40579 0.89127 0.20703 0.0
H1247 H 0.43966 0.91423 0.23051 0.0
H1248 H 0.43809 0.91513 0.1803 0.0
H1249 H 0.44081 0.79811 0.25792 0.0
H1250 H 0.4469 0.82746 0.2892 0.0
H1251 H 0.41068 0.80292 0.27241 0.0
H1252 H 0.43464 0.88422 0.35841 0.0
H1253 H 0.35052 0.82535 0.31026 0.0
H1254 H 0.47409 0.90887 0.27097 0.0
H1255 H 0.47792 0.88117 0.29507 0.0
H1256 H 0.47733 0.91014 0.32112 0.0
H1257 H 0.37482 0.83843 0.21366 0.0
H1258 H 0.34428 0.81888 0.24496 0.0
H1259 H 0.36932 0.80559 0.23605 0.0
C1260 C 0.52353 0.40797 0.81576 0.0
C1261 C 0.52519 0.38317 0.82667 0.0
C1262 C 0.53787 0.42382 0.78349 0.0
C1263 C 0.55379 0.4143 0.76136 0.0
C1264 C 0.55571 0.38945 0.77227 0.0
C1265 C 0.54166 0.37442 0.80485 0.0
C1266 C 0.53575 0.45048 0.77288 0.0
C1267 C 0.5723 0.37838 0.74925 0.0
C1268 C 0.56652 0.42602 0.6582 0.0
C1269 C 0.59707 0.44431 0.65695 0.0
C1270 C 0.5515 0.41809 0.69221 0.0
C1271 C 0.56747 0.42906 0.72569 0.0
C1272 C 0.5978 0.45014 0.72435 0.0
C1273 C 0.61233 0.45747 0.68985 0.0
C1274 C 0.51917 0.39554 0.69235 0.0
C1275 C 0.61549 0.4627 0.75945 0.0
H1276 H 0.51079 0.41488 0.83221 0.0
H1277 H 0.54398 0.35593 0.81324 0.0
H1278 H 0.55801 0.46958 0.76815 0.0
H1279 H 0.52346 0.44629 0.74638 0.0
H1280 H 0.52451 0.45637 0.79458 0.0
H1281 H 0.57237 0.35924 0.76228 0.0
H1282 H 0.56221 0.37178 0.72121 0.0
H1283 H 0.59539 0.39608 0.74533 0.0
H1284 H 0.55464 0.41637 0.63263 0.0
H1285 H 0.63595 0.47164 0.68905 0.0
H1286 H 0.50708 0.4017 0.71235 0.0
H1287 H 0.51622 0.37402 0.70134 0.0
H1288 H 0.50917 0.39278 0.66432 0.0
H1289 H 0.60318 0.46818 0.77999 0.0
H1290 H 0.63692 0.48273 0.75366 0.0
H1291 H 0.61987 0.4461 0.77241 0.0
C1292 C 0.17309 0.62405 0.19812 0.0
C1293 C 0.15285 0.61051 0.16928 0.0
C1294 C 0.1704 0.60918 0.23152 0.0
C1295 C 0.14632 0.58042 0.23655 0.0
C1296 C 0.1251 0.5671 0.20809 0.0
C1297 C 0.12886 0.58221 0.17447 0.0
C1298 C 0.19382 0.62404 0.26095 0.0
C1299 C 0.09892 0.53671 0.21281 0.0
C1300 C 0.16288 0.53917 0.30963 0.0
C1301 C 0.15311 0.54681 0.34176 0.0
C1302 C 0.1587 0.54797 0.27438 0.0
C1303 C 0.14414 0.56443 0.27149 0.0
C1304 C 0.13167 0.56953 0.30354 0.0
C1305 C 0.13651 0.5608 0.33842 0.0
C1306 C 0.17263 0.54235 0.24094 0.0
C1307 C 0.11544 0.58642 0.30149 0.0
H1308 H 0.1919 0.64574 0.19379 0.0
H1309 H 0.11331 0.57186 0.15195 0.0
H1310 H 0.18442 0.62924 0.28551 0.0
H1311 H 0.20193 0.60928 0.27044 0.0
H1312 H 0.21286 0.64469 0.25059 0.0
H1313 H 0.08328 0.53043 0.18919 0.0
H1314 H 0.10639 0.52041 0.21492 0.0
H1315 H 0.08715 0.53541 0.23905 0.0
H1316 H 0.17596 0.52858 0.3123 0.0
H1317 H 0.12877 0.56639 0.3634 0.0
H1318 H 0.19296 0.56295 0.23334 0.0
H1319 H 0.15775 0.53553 0.21653 0.0
H1320 H 0.17853 0.52516 0.24665 0.0
H1321 H 0.13144 0.6101 0.29753 0.0
H1322 H 0.10271 0.58389 0.3273 0.0
H1323 H 0.10023 0.57906 0.27736 0.0
C1324 C 0.56738 0.12031 0.83485 0.0
C1325 C 0.59679 0.14265 0.83734 0.0
C1326 C 0.55172 0.11522 0.80143 0.0
C1327 C 0.56575 0.13346 0.77033 0.0
C1328 C 0.59576 0.15536 0.77242 0.0
C1329 C 0.61099 0.15946 0.80581 0.0
C1330 C 0.51997 0.09122 0.79989 0.0
C1331 C 0.61149 0.17556 0.74002 0.0
C1332 C 0.54173 0.1214 0.67007 0.0
C1333 C 0.53172 0.14145 0.66633 0.0
C1334 C 0.5501 0.11603 0.70492 0.0
C1335 C 0.54894 0.13163 0.73637 0.0
C1336 C 0.53625 0.1498 0.73325 0.0
C1337 C 0.52753 0.1543 0.69818 0.0
C1338 C 0.56267 0.09581 0.70738 0.0
C1339 C 0.53491 0.16709 0.76603 0.0
H1340 H 0.55654 0.10725 0.8593 0.0
H1341 H 0.63359 0.17701 0.8079 0.0
H1342 H 0.50566 0.10114 0.79936 0.0
H1343 H 0.51559 0.07809 0.77405 0.0
H1344 H 0.51372 0.07628 0.82431 0.0
H1345 H 0.6348 0.19146 0.74651 0.0
H1346 H 0.61073 0.16257 0.71529 0.0
H1347 H 0.60039 0.18808 0.73243 0.0
H1348 H 0.54466 0.1113 0.64533 0.0
H1349 H 0.52003 0.17 0.69524 0.0
H1350 H 0.55513 0.08233 0.73312 0.0
H1351 H 0.58698 0.10909 0.70848 0.0
H1352 H 0.55646 0.08096 0.68289 0.0
H1353 H 0.52652 0.15306 0.7912 0.0
H1354 H 0.52072 0.1767 0.76026 0.0
H1355 H 0.55735 0.18528 0.77242 0.0
loop_
_geom_bond_atom_site_label_1
_geom_bond_atom_site_label_2
_geom_bond_distance
_geom_bond_site_symmetry_2
_ccdc_geom_bond_type
Co0 N4 2.148 . S
Co0 N10 2.128 . S
Co0 N20 2.194 . S
Co0 O25 2.351 . S
Co0 O26 2.155 . S
Co0 O27 2.096 . S
C1 N4 1.301 . S
C1 N5 1.328 . S
C1 H6 0.930 . S
C2 C3 1.333 . S
C2 N4 1.317 . S
C2 H7 0.930 . S
C3 C2 1.333 . S
C3 N5 1.350 . S
C3 H29 0.931 . S
N4 Co0 2.148 . S
N4 C1 1.301 . S
N4 C2 1.317 . S
N5 C1 1.328 . S
N5 C3 1.350 . S
H6 C1 0.930 . S
H7 C2 0.930 . S
C8 O9 1.224 . S
C8 O27 1.247 . S
O9 C8 1.224 . S
N10 Co0 2.128 . S
N10 C11 1.355 . S
N10 C13 1.311 . S
C11 N10 1.355 . S
C11 C12 1.363 1_554 S
C11 H23 0.929 . S
C12 C11 1.363 1_556 S
C12 N14 1.375 . S
C12 H30 0.931 . S
C13 N10 1.311 . S
C13 N14 1.347 1_554 S
C13 H24 0.929 . S
N14 C12 1.375 . S
N14 C13 1.347 1_556 S
C15 C18 1.365 . S
C15 N20 1.328 . S
C15 H21 0.929 . S
C16 C17 1.362 1_556 S
C16 C19 1.378 1_556 S
C16 H31 0.929 . S
C17 C16 1.362 1_554 S
C17 C18 1.366 . S
C18 C15 1.365 . S
C18 C17 1.366 . S
C18 H32 0.930 . S
C19 C16 1.378 1_554 S
C19 N20 1.315 . S
C19 H22 0.930 . S
N20 Co0 2.194 . S
N20 C15 1.328 . S
N20 C19 1.315 . S
H21 C15 0.929 . S
H22 C19 0.930 . S
H23 C11 0.929 . S
H24 C13 0.929 . S
O25 Co0 2.351 . S
O25 C28 1.244 . S
O26 Co0 2.155 . S
O26 C28 1.240 . S
O27 Co0 2.096 . S
O27 C8 1.247 . S
C28 O25 1.244 . S
C28 O26 1.240 . S
H29 C3 0.931 . S
H30 C12 0.931 . S
H31 C16 0.929 . S
H32 C18 0.930 . S
Co33 N37 2.148 . S
Co33 N43 2.128 . S
Co33 N53 2.194 . S
Co33 O58 2.351 . S
Co33 O59 2.155 . S
Co33 O60 2.096 . S
C34 N37 1.301 . S
C34 N38 1.328 . S
C34 H39 0.930 . S
C35 C36 1.333 . S
C35 N37 1.317 . S
C35 H40 0.930 . S
C36 C35 1.333 . S
C36 N38 1.350 . S
C36 H62 0.931 . S
N37 Co33 2.148 . S
N37 C34 1.301 . S
N37 C35 1.317 . S
N38 C34 1.328 . S
N38 C36 1.350 . S
H39 C34 0.930 . S
H40 C35 0.930 . S
C41 O42 1.224 . S
C41 O60 1.247 . S
O42 C41 1.224 . S
N43 Co33 2.128 . S
N43 C44 1.355 . S
N43 C46 1.311 . S
C44 N43 1.355 . S
C44 C45 1.363 . S
C44 H56 0.929 . S
C45 C44 1.363 . S
C45 N47 1.375 . S
C45 H63 0.931 . S
C46 N43 1.311 . S
C46 N47 1.347 . S
C46 H57 0.929 . S
N47 C45 1.375 . S
N47 C46 1.347 . S
C48 C51 1.365 . S
C48 N53 1.328 . S
C48 H54 0.929 . S
C49 C50 1.362 . S
C49 C52 1.378 . S
C49 H64 0.929 . S
C50 C49 1.362 . S
C50 C51 1.366 . S
C51 C48 1.365 . S
C51 C50 1.366 . S
C51 H65 0.930 . S
C52 C49 1.378 . S
C52 N53 1.315 . S
C52 H55 0.930 . S
N53 Co33 2.194 . S
N53 C48 1.328 . S
N53 C52 1.315 . S
H54 C48 0.929 . S
H55 C52 0.930 . S
H56 C44 0.929 . S
H57 C46 0.929 . S
O58 Co33 2.351 . S
O58 C61 1.244 . S
O59 Co33 2.155 . S
O59 C61 1.240 . S
O60 Co33 2.096 . S
O60 C41 1.247 . S
C61 O58 1.244 . S
C61 O59 1.240 . S
H62 C36 0.931 . S
H63 C45 0.931 . S
H64 C49 0.929 . S
H65 C51 0.930 . S
Co66 N70 2.148 . S
Co66 N76 2.128 . S
Co66 N86 2.194 . S
Co66 O91 2.351 . S
Co66 O92 2.155 . S
Co66 O93 2.096 . S
C67 N70 1.301 . S
C67 N71 1.328 . S
C67 H72 0.930 . S
C68 C69 1.333 . S
C68 N70 1.317 . S
C68 H73 0.930 . S
C69 C68 1.333 . S
C69 N71 1.350 . S
C69 H95 0.931 . S
N70 Co66 2.148 . S
N70 C67 1.301 . S
N70 C68 1.317 . S
N71 C67 1.328 . S
N71 C69 1.350 . S
H72 C67 0.930 . S
H73 C68 0.930 . S
C74 O75 1.224 . S
C74 O93 1.247 . S
O75 C74 1.224 . S
N76 Co66 2.128 . S
N76 C77 1.355 . S
N76 C79 1.311 . S
C77 N76 1.355 . S
C77 C78 1.363 1_554 S
C77 H89 0.929 . S
C78 C77 1.363 1_556 S
C78 N80 1.375 . S
C78 H96 0.931 . S
C79 N76 1.311 . S
C79 N80 1.347 1_554 S
C79 H90 0.929 . S
N80 C78 1.375 . S
N80 C79 1.347 1_556 S
C81 C84 1.365 . S
C81 N86 1.328 . S
C81 H87 0.929 . S
C82 C83 1.362 1_556 S
C82 C85 1.378 1_556 S
C82 H97 0.929 . S
C83 C82 1.362 1_554 S
C83 C84 1.366 . S
C84 C81 1.365 . S
C84 C83 1.366 . S
C84 H98 0.930 . S
C85 C82 1.378 1_554 S
C85 N86 1.315 . S
C85 H88 0.930 . S
N86 Co66 2.194 . S
N86 C81 1.328 . S
N86 C85 1.315 . S
H87 C81 0.929 . S
H88 C85 0.930 . S
H89 C77 0.929 . S
H90 C79 0.929 . S
O91 Co66 2.351 . S
O91 C94 1.244 . S
O92 Co66 2.155 . S
O92 C94 1.240 . S
O93 Co66 2.096 . S
O93 C74 1.247 . S
C94 O91 1.244 . S
C94 O92 1.240 . S
H95 C69 0.931 . S
H96 C78 0.931 . S
H97 C82 0.929 . S
H98 C84 0.930 . S
Co99 N103 2.148 . S
Co99 N109 2.128 . S
Co99 N119 2.194 . S
Co99 O124 2.351 . S
Co99 O125 2.155 . S
Co99 O126 2.096 . S
C100 N103 1.301 . S
C100 N104 1.328 . S
C100 H105 0.930 . S
C101 C102 1.333 . S
C101 N103 1.317 . S
C101 H106 0.930 . S
C102 C101 1.333 . S
C102 N104 1.350 . S
C102 H128 0.931 . S
N103 Co99 2.148 . S
N103 C100 1.301 . S
N103 C101 1.317 . S
N104 C100 1.328 . S
N104 C102 1.350 . S
H105 C100 0.930 . S
H106 C101 0.930 . S
C107 O108 1.224 . S
C107 O126 1.247 . S
O108 C107 1.224 . S
N109 Co99 2.128 . S
N109 C110 1.355 . S
N109 C112 1.311 . S
C110 N109 1.355 . S
C110 C111 1.363 . S
C110 H122 0.929 . S
C111 C110 1.363 . S
C111 N113 1.375 . S
C111 H129 0.931 . S
C112 N109 1.311 . S
C112 N113 1.347 . S
C112 H123 0.929 . S
N113 C111 1.375 . S
N113 C112 1.347 . S
C114 C117 1.365 . S
C114 N119 1.328 . S
C114 H120 0.929 . S
C115 C116 1.362 . S
C115 C118 1.378 . S
C115 H130 0.929 . S
C116 C115 1.362 . S
C116 C117 1.366 . S
C117 C114 1.365 . S
C117 C116 1.366 . S
C117 H131 0.930 . S
C118 C115 1.378 . S
C118 N119 1.315 . S
C118 H121 0.930 . S
N119 Co99 2.194 . S
N119 C114 1.328 . S
N119 C118 1.315 . S
H120 C114 0.929 . S
H121 C118 0.930 . S
H122 C110 0.929 . S
H123 C112 0.929 . S
O124 Co99 2.351 . S
O124 C127 1.244 . S
O125 Co99 2.155 . S
O125 C127 1.240 . S
O126 Co99 2.096 . S
O126 C107 1.247 . S
C127 O124 1.244 . S
C127 O125 1.240 . S
H128 C102 0.931 . S
H129 C111 0.931 . S
H130 C115 0.929 . S
H131 C117 0.930 . S
Co132 N136 2.148 . S
Co132 N142 2.128 . S
Co132 N152 2.194 . S
Co132 O157 2.351 . S
Co132 O158 2.155 . S
Co132 O159 2.096 . S
C133 N136 1.301 . S
C133 N137 1.328 . S
C133 H138 0.930 . S
C134 C135 1.333 . S
C134 N136 1.317 . S
C134 H139 0.930 . S
C135 C134 1.333 . S
C135 N137 1.350 . S
C135 H161 0.931 . S
N136 Co132 2.148 . S
N136 C133 1.301 . S
N136 C134 1.317 . S
N137 C133 1.328 . S
N137 C135 1.350 . S
H138 C133 0.930 . S
H139 C134 0.930 . S
C140 O141 1.224 . S
C140 O159 1.247 . S
O141 C140 1.224 . S
N142 Co132 2.128 . S
N142 C143 1.355 . S
N142 C145 1.311 . S
C143 N142 1.355 . S
C143 C144 1.363 1_554 S
C143 H155 0.929 . S
C144 C143 1.363 1_556 S
C144 N146 1.375 . S
C144 H162 0.931 . S
C145 N142 1.311 . S
C145 N146 1.347 1_554 S
C145 H156 0.929 . S
N146 C144 1.375 . S
N146 C145 1.347 1_556 S
C147 C150 1.365 . S
C147 N152 1.328 . S
C147 H153 0.929 . S
C148 C149 1.362 1_556 S
C148 C151 1.378 1_556 S
C148 H163 0.929 . S
C149 C148 1.362 1_554 S
C149 C150 1.366 . S
C150 C147 1.365 . S
C150 C149 1.366 . S
C150 H164 0.930 . S
C151 C148 1.378 1_554 S
C151 N152 1.315 . S
C151 H154 0.930 . S
N152 Co132 2.194 . S
N152 C147 1.328 . S
N152 C151 1.315 . S
H153 C147 0.929 . S
H154 C151 0.930 . S
H155 C143 0.929 . S
H156 C145 0.929 . S
O157 Co132 2.351 . S
O157 C160 1.244 . S
O158 Co132 2.155 . S
O158 C160 1.240 . S
O159 Co132 2.096 . S
O159 C140 1.247 . S
C160 O157 1.244 . S
C160 O158 1.240 . S
H161 C135 0.931 . S
H162 C144 0.931 . S
H163 C148 0.929 . S
H164 C150 0.930 . S
Co165 N169 2.148 . S
Co165 N175 2.128 . S
Co165 N185 2.194 . S
Co165 O190 2.351 . S
Co165 O191 2.155 . S
Co165 O192 2.096 . S
C166 N169 1.301 . S
C166 N170 1.328 . S
C166 H171 0.930 . S
C167 C168 1.333 . S
C167 N169 1.317 . S
C167 H172 0.930 . S
C168 C167 1.333 . S
C168 N170 1.350 . S
C168 H194 0.931 . S
N169 Co165 2.148 . S
N169 C166 1.301 . S
N169 C167 1.317 . S
N170 C166 1.328 . S
N170 C168 1.350 . S
H171 C166 0.930 . S
H172 C167 0.930 . S
C173 O174 1.224 . S
C173 O192 1.247 . S
O174 C173 1.224 . S
N175 Co165 2.128 . S
N175 C176 1.355 . S
N175 C178 1.311 . S
C176 N175 1.355 . S
C176 C177 1.363 . S
C176 H188 0.929 . S
C177 C176 1.363 . S
C177 N179 1.375 . S
C177 H195 0.931 . S
C178 N175 1.311 . S
C178 N179 1.347 . S
C178 H189 0.929 . S
N179 C177 1.375 . S
N179 C178 1.347 . S
C180 C183 1.365 . S
C180 N185 1.328 . S
C180 H186 0.929 . S
C181 C182 1.362 . S
C181 C184 1.378 . S
C181 H196 0.929 . S
C182 C181 1.362 . S
C182 C183 1.366 . S
C183 C180 1.365 . S
C183 C182 1.366 . S
C183 H197 0.930 . S
C184 C181 1.378 . S
C184 N185 1.315 . S
C184 H187 0.930 . S
N185 Co165 2.194 . S
N185 C180 1.328 . S
N185 C184 1.315 . S
H186 C180 0.929 . S
H187 C184 0.930 . S
H188 C176 0.929 . S
H189 C178 0.929 . S
O190 Co165 2.351 . S
O190 C193 1.244 . S
O191 Co165 2.155 . S
O191 C193 1.240 . S
O192 Co165 2.096 . S
O192 C173 1.247 . S
C193 O190 1.244 . S
C193 O191 1.240 . S
H194 C168 0.931 . S
H195 C177 0.931 . S
H196 C181 0.929 . S
H197 C183 0.930 . S
Co198 N202 2.148 . S
Co198 N208 2.128 . S
Co198 N218 2.194 . S
Co198 O223 2.351 . S
Co198 O224 2.155 . S
Co198 O225 2.096 . S
C199 N202 1.301 . S
C199 N203 1.328 . S
C199 H204 0.930 . S
C200 C201 1.333 . S
C200 N202 1.317 . S
C200 H205 0.930 . S
C201 C200 1.333 . S
C201 N203 1.350 . S
C201 H227 0.931 . S
N202 Co198 2.148 . S
N202 C199 1.301 . S
N202 C200 1.317 . S
N203 C199 1.328 . S
N203 C201 1.350 . S
H204 C199 0.930 . S
H205 C200 0.930 . S
C206 O207 1.224 . S
C206 O225 1.247 . S
O207 C206 1.224 . S
N208 Co198 2.128 . S
N208 C209 1.355 . S
N208 C211 1.311 . S
C209 N208 1.355 . S
C209 C210 1.363 . S
C209 H221 0.929 . S
C210 C209 1.363 . S
C210 N212 1.375 . S
C210 H228 0.931 . S
C211 N208 1.311 . S
C211 N212 1.347 . S
C211 H222 0.929 . S
N212 C210 1.375 . S
N212 C211 1.347 . S
C213 C216 1.365 . S
C213 N218 1.328 . S
C213 H219 0.929 . S
C214 C215 1.362 . S
C214 C217 1.378 . S
C214 H229 0.929 . S
C215 C214 1.362 . S
C215 C216 1.366 . S
C216 C213 1.365 . S
C216 C215 1.366 . S
C216 H230 0.930 . S
C217 C214 1.378 . S
C217 N218 1.315 . S
C217 H220 0.930 . S
N218 Co198 2.194 . S
N218 C213 1.328 . S
N218 C217 1.315 . S
H219 C213 0.929 . S
H220 C217 0.930 . S
H221 C209 0.929 . S
H222 C211 0.929 . S
O223 Co198 2.351 . S
O223 C226 1.244 . S
O224 Co198 2.155 . S
O224 C226 1.240 . S
O225 Co198 2.096 . S
O225 C206 1.247 . S
C226 O223 1.244 . S
C226 O224 1.240 . S
H227 C201 0.931 . S
H228 C210 0.931 . S
H229 C214 0.929 . S
H230 C216 0.930 . S
Co231 N235 2.148 . S
Co231 N241 2.128 . S
Co231 N251 2.194 . S
Co231 O256 2.351 . S
Co231 O257 2.155 . S
Co231 O258 2.096 . S
C232 N235 1.301 . S
C232 N236 1.328 . S
C232 H237 0.930 . S
C233 C234 1.333 . S
C233 N235 1.317 . S
C233 H238 0.930 . S
C234 C233 1.333 . S
C234 N236 1.350 . S
C234 H260 0.931 . S
N235 Co231 2.148 . S
N235 C232 1.301 . S
N235 C233 1.317 . S
N236 C232 1.328 . S
N236 C234 1.350 . S
H237 C232 0.930 . S
H238 C233 0.930 . S
C239 O240 1.224 . S
C239 O258 1.247 . S
O240 C239 1.224 . S
N241 Co231 2.128 . S
N241 C242 1.355 . S
N241 C244 1.311 . S
C242 N241 1.355 . S
C242 C243 1.363 1_556 S
C242 H254 0.929 . S
C243 C242 1.363 1_554 S
C243 N245 1.375 . S
C243 H261 0.931 . S
C244 N241 1.311 . S
C244 N245 1.347 1_556 S
C244 H255 0.929 . S
N245 C243 1.375 . S
N245 C244 1.347 1_554 S
C246 C249 1.365 . S
C246 N251 1.328 . S
C246 H252 0.929 . S
C247 C248 1.362 1_554 S
C247 C250 1.378 1_554 S
C247 H262 0.929 . S
C248 C247 1.362 1_556 S
C248 C249 1.366 . S
C249 C246 1.365 . S
C249 C248 1.366 . S
C249 H263 0.930 . S
C250 C247 1.378 1_556 S
C250 N251 1.315 . S
C250 H253 0.930 . S
N251 Co231 2.194 . S
N251 C246 1.328 . S
N251 C250 1.315 . S
H252 C246 0.929 . S
H253 C250 0.930 . S
H254 C242 0.929 . S
H255 C244 0.929 . S
O256 Co231 2.351 . S
O256 C259 1.244 . S
O257 Co231 2.155 . S
O257 C259 1.240 . S
O258 Co231 2.096 . S
O258 C239 1.247 . S
C259 O256 1.244 . S
C259 O257 1.240 . S
H260 C234 0.931 . S
H261 C243 0.931 . S
H262 C247 0.929 . S
H263 C249 0.930 . S
Co264 N268 2.148 . S
Co264 N274 2.128 . S
Co264 N284 2.194 . S
Co264 O289 2.351 . S
Co264 O290 2.155 . S
Co264 O291 2.096 . S
C265 N268 1.301 . S
C265 N269 1.328 . S
C265 H270 0.930 . S
C266 C267 1.333 . S
C266 N268 1.317 . S
C266 H271 0.930 . S
C267 C266 1.333 . S
C267 N269 1.350 . S
C267 H293 0.931 . S
N268 Co264 2.148 . S
N268 C265 1.301 . S
N268 C266 1.317 . S
N269 C265 1.328 . S
N269 C267 1.350 . S
H270 C265 0.930 . S
H271 C266 0.930 . S
C272 O273 1.224 . S
C272 O291 1.247 . S
O273 C272 1.224 . S
N274 Co264 2.128 . S
N274 C275 1.355 . S
N274 C277 1.311 . S
C275 N274 1.355 . S
C275 C276 1.363 . S
C275 H287 0.929 . S
C276 C275 1.363 . S
C276 N278 1.375 . S
C276 H294 0.931 . S
C277 N274 1.311 . S
C277 N278 1.347 . S
C277 H288 0.929 . S
N278 C276 1.375 . S
N278 C277 1.347 . S
C279 C282 1.365 . S
C279 N284 1.328 . S
C279 H285 0.929 . S
C280 C281 1.362 . S
C280 C283 1.378 . S
C280 H295 0.929 . S
C281 C280 1.362 . S
C281 C282 1.366 . S
C282 C279 1.365 . S
C282 C281 1.366 . S
C282 H296 0.930 . S
C283 C280 1.378 . S
C283 N284 1.315 . S
C283 H286 0.930 . S
N284 Co264 2.194 . S
N284 C279 1.328 . S
N284 C283 1.315 . S
H285 C279 0.929 . S
H286 C283 0.930 . S
H287 C275 0.929 . S
H288 C277 0.929 . S
O289 Co264 2.351 . S
O289 C292 1.244 . S
O290 Co264 2.155 . S
O290 C292 1.240 . S
O291 Co264 2.096 . S
O291 C272 1.247 . S
C292 O289 1.244 . S
C292 O290 1.240 . S
H293 C267 0.931 . S
H294 C276 0.931 . S
H295 C280 0.929 . S
H296 C282 0.930 . S
Co297 N301 2.148 . S
Co297 N307 2.128 . S
Co297 N317 2.194 . S
Co297 O322 2.351 . S
Co297 O323 2.155 . S
Co297 O324 2.096 . S
C298 N301 1.301 . S
C298 N302 1.328 . S
C298 H303 0.930 . S
C299 C300 1.333 . S
C299 N301 1.317 . S
C299 H304 0.930 . S
C300 C299 1.333 . S
C300 N302 1.350 . S
C300 H326 0.931 . S
N301 Co297 2.148 . S
N301 C298 1.301 . S
N301 C299 1.317 . S
N302 C298 1.328 . S
N302 C300 1.350 . S
H303 C298 0.930 . S
H304 C299 0.930 . S
C305 O306 1.224 . S
C305 O324 1.247 . S
O306 C305 1.224 . S
N307 Co297 2.128 . S
N307 C308 1.355 . S
N307 C310 1.311 . S
C308 N307 1.355 . S
C308 C309 1.363 1_556 S
C308 H320 0.929 . S
C309 C308 1.363 1_554 S
C309 N311 1.375 . S
C309 H327 0.931 . S
C310 N307 1.311 . S
C310 N311 1.347 1_556 S
C310 H321 0.929 . S
N311 C309 1.375 . S
N311 C310 1.347 1_554 S
C312 C315 1.365 . S
C312 N317 1.328 . S
C312 H318 0.929 . S
C313 C314 1.362 1_554 S
C313 C316 1.378 1_554 S
C313 H328 0.929 . S
C314 C313 1.362 1_556 S
C314 C315 1.366 . S
C315 C312 1.365 . S
C315 C314 1.366 . S
C315 H329 0.930 . S
C316 C313 1.378 1_556 S
C316 N317 1.315 . S
C316 H319 0.930 . S
N317 Co297 2.194 . S
N317 C312 1.328 . S
N317 C316 1.315 . S
H318 C312 0.929 . S
H319 C316 0.930 . S
H320 C308 0.929 . S
H321 C310 0.929 . S
O322 Co297 2.351 . S
O322 C325 1.244 . S
O323 Co297 2.155 . S
O323 C325 1.240 . S
O324 Co297 2.096 . S
O324 C305 1.247 . S
C325 O322 1.244 . S
C325 O323 1.240 . S
H326 C300 0.931 . S
H327 C309 0.931 . S
H328 C313 0.929 . S
H329 C315 0.930 . S
Co330 N334 2.148 . S
Co330 N340 2.128 . S
Co330 N350 2.194 . S
Co330 O355 2.351 . S
Co330 O356 2.155 . S
Co330 O357 2.096 . S
C331 N334 1.301 . S
C331 N335 1.328 . S
C331 H336 0.930 . S
C332 C333 1.333 . S
C332 N334 1.317 . S
C332 H337 0.930 . S
C333 C332 1.333 . S
C333 N335 1.350 . S
C333 H359 0.931 . S
N334 Co330 2.148 . S
N334 C331 1.301 . S
N334 C332 1.317 . S
N335 C331 1.328 . S
N335 C333 1.350 . S
H336 C331 0.930 . S
H337 C332 0.930 . S
C338 O339 1.224 . S
C338 O357 1.247 . S
O339 C338 1.224 . S
N340 Co330 2.128 . S
N340 C341 1.355 . S
N340 C343 1.311 . S
C341 N340 1.355 . S
C341 C342 1.363 . S
C341 H353 0.929 . S
C342 C341 1.363 . S
C342 N344 1.375 . S
C342 H360 0.931 . S
C343 N340 1.311 . S
C343 N344 1.347 . S
C343 H354 0.929 . S
N344 C342 1.375 . S
N344 C343 1.347 . S
C345 C348 1.365 . S
C345 N350 1.328 . S
C345 H351 0.929 . S
C346 C347 1.362 . S
C346 C349 1.378 . S
C346 H361 0.929 . S
C347 C346 1.362 . S
C347 C348 1.366 . S
C348 C345 1.365 . S
C348 C347 1.366 . S
C348 H362 0.930 . S
C349 C346 1.378 . S
C349 N350 1.315 . S
C349 H352 0.930 . S
N350 Co330 2.194 . S
N350 C345 1.328 . S
N350 C349 1.315 . S
H351 C345 0.929 . S
H352 C349 0.930 . S
H353 C341 0.929 . S
H354 C343 0.929 . S
O355 Co330 2.351 . S
O355 C358 1.244 . S
O356 Co330 2.155 . S
O356 C358 1.240 . S
O357 Co330 2.096 . S
O357 C338 1.247 . S
C358 O355 1.244 . S
C358 O356 1.240 . S
H359 C333 0.931 . S
H360 C342 0.931 . S
H361 C346 0.929 . S
H362 C348 0.930 . S
Co363 N367 2.148 . S
Co363 N373 2.128 . S
Co363 N383 2.194 . S
Co363 O388 2.351 . S
Co363 O389 2.155 . S
Co363 O390 2.096 . S
C364 N367 1.301 . S
C364 N368 1.328 . S
C364 H369 0.930 . S
C365 C366 1.333 . S
C365 N367 1.317 . S
C365 H370 0.930 . S
C366 C365 1.333 . S
C366 N368 1.350 . S
C366 H392 0.931 . S
N367 Co363 2.148 . S
N367 C364 1.301 . S
N367 C365 1.317 . S
N368 C364 1.328 . S
N368 C366 1.350 . S
H369 C364 0.930 . S
H370 C365 0.930 . S
C371 O372 1.224 . S
C371 O390 1.247 . S
O372 C371 1.224 . S
N373 Co363 2.128 . S
N373 C374 1.355 . S
N373 C376 1.311 . S
C374 N373 1.355 . S
C374 C375 1.363 1_556 S
C374 H386 0.929 . S
C375 C374 1.363 1_554 S
C375 N377 1.375 . S
C375 H393 0.931 . S
C376 N373 1.311 . S
C376 N377 1.347 1_556 S
C376 H387 0.929 . S
N377 C375 1.375 . S
N377 C376 1.347 1_554 S
C378 C381 1.365 . S
C378 N383 1.328 . S
C378 H384 0.929 . S
C379 C380 1.362 1_554 S
C379 C382 1.378 1_554 S
C379 H394 0.929 . S
C380 C379 1.362 1_556 S
C380 C381 1.366 . S
C381 C378 1.365 . S
C381 C380 1.366 . S
C381 H395 0.930 . S
C382 C379 1.378 1_556 S
C382 N383 1.315 . S
C382 H385 0.930 . S
N383 Co363 2.194 . S
N383 C378 1.328 . S
N383 C382 1.315 . S
H384 C378 0.929 . S
H385 C382 0.930 . S
H386 C374 0.929 . S
H387 C376 0.929 . S
O388 Co363 2.351 . S
O388 C391 1.244 . S
O389 Co363 2.155 . S
O389 C391 1.240 . S
O390 Co363 2.096 . S
O390 C371 1.247 . S
C391 O388 1.244 . S
C391 O389 1.240 . S
H392 C366 0.931 . S
H393 C375 0.931 . S
H394 C379 0.929 . S
H395 C381 0.930 . S
C396 C397 1.391 . S
C396 C398 1.394 . S
C396 H412 0.931 . S
C397 C396 1.391 . S
C397 C401 1.376 1_554 S
C398 C396 1.394 . S
C398 C399 1.369 . S
C398 C402 1.531 . S
C399 C398 1.369 . S
C399 C400 1.410 1_554 S
C399 C407 1.503 . S
C400 C399 1.410 1_556 S
C400 C401 1.392 . S
C400 C403 1.511 . S
C401 C397 1.376 1_556 S
C401 C400 1.392 . S
C401 H413 0.929 . S
C402 C398 1.531 . S
C402 H414 0.960 . S
C402 H415 0.962 . S
C402 H416 0.960 . S
C403 C400 1.511 . S
C403 H417 0.961 . S
C403 H418 0.961 . S
C403 H419 0.961 . S
C404 C405 1.370 . S
C404 C406 1.363 . S
C404 H420 0.931 . S
C405 C404 1.370 . S
C405 C409 1.408 1_556 S
C406 C404 1.363 . S
C406 C407 1.370 1_556 S
C406 C410 1.524 . S
C407 C399 1.503 . S
C407 C406 1.370 1_554 S
C407 C408 1.403 . S
C408 C407 1.403 . S
C408 C409 1.404 . S
C408 C411 1.539 . S
C409 C405 1.408 1_554 S
C409 C408 1.404 . S
C409 H421 0.930 . S
C410 C406 1.524 . S
C410 H422 0.956 . S
C410 H423 0.961 . S
C410 H424 0.961 . S
C411 C408 1.539 . S
C411 H425 0.958 . S
C411 H426 0.961 . S
C411 H427 0.960 . S
H412 C396 0.931 . S
H413 C401 0.929 . S
H414 C402 0.960 . S
H415 C402 0.962 . S
H416 C402 0.960 . S
H417 C403 0.961 . S
H418 C403 0.961 . S
H419 C403 0.961 . S
H420 C404 0.931 . S
H421 C409 0.930 . S
H422 C410 0.956 . S
H423 C410 0.961 . S
H424 C410 0.961 . S
H425 C411 0.958 . S
H426 C411 0.961 . S
H427 C411 0.960 . S
C428 C429 1.391 . S
C428 C430 1.394 . S
C428 H444 0.931 . S
C429 C428 1.391 . S
C429 C433 1.376 . S
C430 C428 1.394 . S
C430 C431 1.369 . S
C430 C434 1.531 . S
C431 C430 1.369 . S
C431 C432 1.410 . S
C431 C439 1.503 1_655 S
C432 C431 1.410 . S
C432 C433 1.392 . S
C432 C435 1.511 . S
C433 C429 1.376 . S
C433 C432 1.392 . S
C433 H445 0.929 . S
C434 C430 1.531 . S
C434 H446 0.957 1_655 S
C434 H447 0.962 . S
C434 H448 0.960 . S
C435 C432 1.511 . S
C435 H449 0.961 . S
C435 H450 0.961 1_655 S
C435 H451 0.961 . S
C436 C437 1.370 . S
C436 C438 1.363 . S
C436 H452 0.931 . S
C437 C436 1.370 . S
C437 C441 1.408 . S
C438 C436 1.363 . S
C438 C439 1.370 . S
C438 C442 1.524 . S
C439 C431 1.503 1_455 S
C439 C438 1.370 . S
C439 C440 1.403 . S
C440 C439 1.403 . S
C440 C441 1.404 . S
C440 C443 1.539 . S
C441 C437 1.408 . S
C441 C440 1.404 . S
C441 H453 0.930 . S
C442 C438 1.524 . S
C442 H454 0.956 . S
C442 H455 0.961 . S
C442 H456 0.961 . S
C443 C440 1.539 . S
C443 H457 0.958 . S
C443 H458 0.961 . S
C443 H459 0.960 1_455 S
H444 C428 0.931 . S
H445 C433 0.929 . S
H446 C434 0.957 1_455 S
H447 C434 0.962 . S
H448 C434 0.960 . S
H449 C435 0.961 . S
H450 C435 0.961 1_455 S
H451 C435 0.961 . S
H452 C436 0.931 . S
H453 C441 0.930 . S
H454 C442 0.956 . S
H455 C442 0.961 . S
H456 C442 0.961 . S
H457 C443 0.958 . S
H458 C443 0.961 . S
H459 C443 0.960 1_655 S
C460 C461 1.391 1_556 S
C460 C462 1.394 . S
C460 H476 0.931 . S
C461 C460 1.391 1_554 S
C461 C465 1.376 . S
C462 C460 1.394 . S
C462 C463 1.369 . S
C462 C466 1.531 . S
C463 C462 1.369 . S
C463 C464 1.410 1_556 S
C463 C471 1.503 1_545 S
C464 C463 1.410 1_554 S
C464 C465 1.392 . S
C464 C467 1.511 . S
C465 C461 1.376 . S
C465 C464 1.392 . S
C465 H477 0.929 . S
C466 C462 1.531 . S
C466 H478 0.988 . S
C466 H479 0.962 . S
C466 H480 0.960 . S
C467 C464 1.511 . S
C467 H481 0.961 . S
C467 H482 0.961 1_545 S
C467 H483 0.961 . S
C468 C469 1.370 1_554 S
C468 C470 1.363 . S
C468 H484 0.931 . S
C469 C468 1.370 1_556 S
C469 C473 1.408 . S
C470 C468 1.363 . S
C470 C471 1.370 1_554 S
C470 C474 1.524 . S
C471 C463 1.503 1_565 S
C471 C470 1.370 1_556 S
C471 C472 1.403 . S
C472 C471 1.403 . S
C472 C473 1.404 . S
C472 C475 1.539 . S
C473 C469 1.408 . S
C473 C472 1.404 . S
C473 H485 0.930 . S
C474 C470 1.524 . S
C474 H486 0.956 . S
C474 H487 0.965 . S
C474 H488 0.961 . S
C475 C472 1.539 . S
C475 H489 0.958 . S
C475 H490 0.961 . S
C475 H491 0.951 1_565 S
H476 C460 0.931 . S
H477 C465 0.929 . S
H478 C466 0.988 . S
H479 C466 0.962 . S
H480 C466 0.960 . S
H481 C467 0.961 . S
H482 C467 0.961 1_565 S
H483 C467 0.961 . S
H484 C468 0.931 . S
H485 C473 0.930 . S
H486 C474 0.956 . S
H487 C474 0.965 . S
H488 C474 0.961 . S
H489 C475 0.958 . S
H490 C475 0.961 . S
H491 C475 0.951 1_545 S
C492 C493 1.391 . S
C492 C494 1.394 . S
C492 H508 0.931 . S
C493 C492 1.391 . S
C493 C497 1.376 . S
C494 C492 1.394 . S
C494 C495 1.369 . S
C494 C498 1.531 . S
C495 C494 1.369 . S
C495 C496 1.410 . S
C495 C503 1.503 . S
C496 C495 1.410 . S
C496 C497 1.392 . S
C496 C499 1.511 . S
C497 C493 1.376 . S
C497 C496 1.392 . S
C497 H509 0.929 . S
C498 C494 1.531 . S
C498 H510 0.960 . S
C498 H511 0.962 . S
C498 H512 0.960 . S
C499 C496 1.511 . S
C499 H513 0.961 . S
C499 H514 0.961 . S
C499 H515 0.961 . S
C500 C501 1.370 . S
C500 C502 1.363 . S
C500 H516 0.931 . S
C501 C500 1.370 . S
C501 C505 1.408 . S
C502 C500 1.363 . S
C502 C503 1.370 . S
C502 C506 1.524 . S
C503 C495 1.503 . S
C503 C502 1.370 . S
C503 C504 1.403 . S
C504 C503 1.403 . S
C504 C505 1.404 . S
C504 C507 1.539 . S
C505 C501 1.408 . S
C505 C504 1.404 . S
C505 H517 0.930 . S
C506 C502 1.524 . S
C506 H518 0.956 . S
C506 H519 0.961 . S
C506 H520 0.961 . S
C507 C504 1.539 . S
C507 H521 0.958 . S
C507 H522 0.961 . S
C507 H523 0.960 . S
H508 C492 0.931 . S
H509 C497 0.929 . S
H510 C498 0.960 . S
H511 C498 0.962 . S
H512 C498 0.960 . S
H513 C499 0.961 . S
H514 C499 0.961 . S
H515 C499 0.961 . S
H516 C500 0.931 . S
H517 C505 0.930 . S
H518 C506 0.956 . S
H519 C506 0.961 . S
H520 C506 0.961 . S
H521 C507 0.958 . S
H522 C507 0.961 . S
H523 C507 0.960 . S
C524 C525 1.391 . S
C524 C526 1.394 . S
C524 H540 0.931 . S
C525 C524 1.391 . S
C525 C529 1.376 . S
C526 C524 1.394 . S
C526 C527 1.369 . S
C526 C530 1.531 . S
C527 C526 1.369 . S
C527 C528 1.410 . S
C527 C535 1.503 1_455 S
C528 C527 1.410 . S
C528 C529 1.392 . S
C528 C531 1.511 . S
C529 C525 1.376 . S
C529 C528 1.392 . S
C529 H541 0.929 . S
C530 C526 1.531 . S
C530 H542 0.960 1_455 S
C530 H543 0.962 1_556 S
C530 H544 0.960 . S
C531 C528 1.511 . S
C531 H545 0.961 . S
C531 H546 0.961 1_455 S
C531 H547 0.961 . S
C532 C533 1.370 . S
C532 C534 1.363 . S
C532 H548 0.931 . S
C533 C532 1.370 . S
C533 C537 1.408 1_554 S
C534 C532 1.363 . S
C534 C535 1.370 1_554 S
C534 C538 1.524 . S
C535 C527 1.503 1_655 S
C535 C534 1.370 1_556 S
C535 C536 1.403 . S
C536 C535 1.403 . S
C536 C537 1.404 . S
C536 C539 1.539 . S
C537 C533 1.408 1_556 S
C537 C536 1.404 . S
C537 H549 0.930 . S
C538 C534 1.524 . S
C538 H550 0.956 1_655 S
C538 H551 0.961 1_655 S
C538 H552 0.961 . S
C539 C536 1.539 . S
C539 H553 0.958 . S
C539 H554 0.961 . S
C539 H555 0.960 . S
H540 C524 0.931 . S
H541 C529 0.929 . S
H542 C530 0.960 1_655 S
H543 C530 0.962 1_554 S
H544 C530 0.960 . S
H545 C531 0.961 . S
H546 C531 0.961 1_655 S
H547 C531 0.961 . S
H548 C532 0.931 . S
H549 C537 0.930 . S
H550 C538 0.956 1_455 S
H551 C538 0.961 1_455 S
H552 C538 0.961 . S
H553 C539 0.958 . S
H554 C539 0.961 . S
H555 C539 0.960 . S
C556 C557 1.391 . S
C556 C558 1.394 . S
C556 H572 0.931 . S
C557 C556 1.391 . S
C557 C561 1.376 . S
C558 C556 1.394 . S
C558 C559 1.369 . S
C558 C562 1.531 . S
C559 C558 1.369 . S
C559 C560 1.410 . S
C559 C567 1.503 1_565 S
C560 C559 1.410 . S
C560 C561 1.392 . S
C560 C563 1.511 . S
C561 C557 1.376 . S
C561 C560 1.392 . S
C561 H573 0.929 . S
C562 C558 1.531 . S
C562 H574 0.960 1_565 S
C562 H575 0.962 . S
C562 H576 0.960 . S
C563 C560 1.511 . S
C563 H577 0.961 . S
C563 H578 0.961 1_565 S
C563 H579 0.961 . S
C564 C565 1.370 . S
C564 C566 1.363 . S
C564 H580 0.931 . S
C565 C564 1.370 . S
C565 C569 1.408 . S
C566 C564 1.363 . S
C566 C567 1.370 . S
C566 C570 1.524 . S
C567 C559 1.503 1_545 S
C567 C566 1.370 . S
C567 C568 1.403 . S
C568 C567 1.403 . S
C568 C569 1.404 . S
C568 C571 1.539 . S
C569 C565 1.408 . S
C569 C568 1.404 . S
C569 H581 0.930 . S
C570 C566 1.524 . S
C570 H582 0.956 1_545 S
C570 H583 0.961 1_545 S
C570 H584 0.961 . S
C571 C568 1.539 . S
C571 H585 0.958 . S
C571 H586 0.961 . S
C571 H587 0.960 . S
H572 C556 0.931 . S
H573 C561 0.929 . S
H574 C562 0.960 1_545 S
H575 C562 0.962 . S
H576 C562 0.960 . S
H577 C563 0.961 . S
H578 C563 0.961 1_545 S
H579 C563 0.961 . S
H580 C564 0.931 . S
H581 C569 0.930 . S
H582 C570 0.956 1_565 S
H583 C570 0.961 1_565 S
H584 C570 0.961 . S
H585 C571 0.958 . S
H586 C571 0.961 . S
H587 C571 0.960 . S
C588 C589 1.391 . S
C588 C590 1.394 . S
C588 H604 0.931 . S
C589 C588 1.391 . S
C589 C593 1.376 . S
C590 C588 1.394 . S
C590 C591 1.369 . S
C590 C594 1.531 . S
C591 C590 1.369 . S
C591 C592 1.410 1_556 S
C591 C599 1.503 1_556 S
C592 C591 1.410 1_554 S
C592 C593 1.392 1_554 S
C592 C595 1.511 . S
C593 C589 1.376 . S
C593 C592 1.392 1_556 S
C593 H605 0.929 . S
C594 C590 1.531 . S
C594 H606 0.960 . S
C594 H607 0.962 . S
C594 H608 0.960 . S
C595 C592 1.511 . S
C595 H609 0.961 . S
C595 H610 0.961 . S
C595 H611 0.961 . S
C596 C597 1.370 1_556 S
C596 C598 1.363 . S
C596 H612 0.931 . S
C597 C596 1.370 1_554 S
C597 C601 1.408 . S
C598 C596 1.363 . S
C598 C599 1.370 1_556 S
C598 C602 1.524 . S
C599 C591 1.503 1_554 S
C599 C598 1.370 1_554 S
C599 C600 1.403 . S
C600 C599 1.403 . S
C600 C601 1.404 . S
C600 C603 1.539 . S
C601 C597 1.408 . S
C601 C600 1.404 . S
C601 H613 0.930 . S
C602 C598 1.524 . S
C602 H614 0.956 . S
C602 H615 0.961 . S
C602 H616 0.961 . S
C603 C600 1.539 . S
C603 H617 0.958 . S
C603 H618 0.961 . S
C603 H619 0.960 . S
H604 C588 0.931 . S
H605 C593 0.929 . S
H606 C594 0.960 . S
H607 C594 0.962 . S
H608 C594 0.960 . S
H609 C595 0.961 . S
H610 C595 0.961 . S
H611 C595 0.961 . S
H612 C596 0.931 . S
H613 C601 0.930 . S
H614 C602 0.956 . S
H615 C602 0.961 . S
H616 C602 0.961 . S
H617 C603 0.958 . S
H618 C603 0.961 . S
H619 C603 0.960 . S
C620 C621 1.391 . S
C620 C622 1.394 . S
C620 H636 0.931 . S
C621 C620 1.391 . S
C621 C625 1.376 . S
C622 C620 1.394 . S
C622 C623 1.369 . S
C622 C626 1.531 . S
C623 C622 1.369 . S
C623 C624 1.410 . S
C623 C631 1.503 . S
C624 C623 1.410 . S
C624 C625 1.392 . S
C624 C627 1.511 . S
C625 C621 1.376 . S
C625 C624 1.392 . S
C625 H637 0.929 . S
C626 C622 1.531 . S
C626 H638 0.960 . S
C626 H639 0.962 . S
C626 H640 0.960 . S
C627 C624 1.511 . S
C627 H641 0.961 . S
C627 H642 0.961 . S
C627 H643 0.961 . S
C628 C629 1.370 . S
C628 C630 1.363 . S
C628 H644 0.931 . S
C629 C628 1.370 . S
C629 C633 1.408 . S
C630 C628 1.363 . S
C630 C631 1.370 . S
C630 C634 1.524 . S
C631 C623 1.503 . S
C631 C630 1.370 . S
C631 C632 1.403 . S
C632 C631 1.403 . S
C632 C633 1.404 . S
C632 C635 1.539 . S
C633 C629 1.408 . S
C633 C632 1.404 . S
C633 H645 0.930 . S
C634 C630 1.524 . S
C634 H646 0.956 . S
C634 H647 0.961 . S
C634 H648 0.961 . S
C635 C632 1.539 . S
C635 H649 0.958 . S
C635 H650 0.961 . S
C635 H651 0.960 . S
H636 C620 0.931 . S
H637 C625 0.929 . S
H638 C626 0.960 . S
H639 C626 0.962 . S
H640 C626 0.960 . S
H641 C627 0.961 . S
H642 C627 0.961 . S
H643 C627 0.961 . S
H644 C628 0.931 . S
H645 C633 0.930 . S
H646 C634 0.956 . S
H647 C634 0.961 . S
H648 C634 0.961 . S
H649 C635 0.958 . S
H650 C635 0.961 . S
H651 C635 0.960 . S
C652 C653 1.391 . S
C652 C654 1.394 1_556 S
C652 H668 0.931 . S
C653 C652 1.391 . S
C653 C657 1.376 . S
C654 C652 1.394 1_554 S
C654 C655 1.369 1_554 S
C654 C658 1.531 . S
C655 C654 1.369 1_556 S
C655 C656 1.410 . S
C655 C663 1.503 1_556 S
C656 C655 1.410 . S
C656 C657 1.392 . S
C656 C659 1.511 . S
C657 C653 1.376 . S
C657 C656 1.392 . S
C657 H669 0.929 . S
C658 C654 1.531 . S
C658 H670 0.960 . S
C658 H671 0.962 . S
C658 H672 0.960 . S
C659 C656 1.511 . S
C659 H673 0.961 . S
C659 H674 0.961 . S
C659 H675 0.961 . S
C660 C661 1.370 1_556 S
C660 C662 1.363 . S
C660 H676 0.931 . S
C661 C660 1.370 1_554 S
C661 C665 1.408 . S
C662 C660 1.363 . S
C662 C663 1.370 1_556 S
C662 C666 1.524 . S
C663 C655 1.503 1_554 S
C663 C662 1.370 1_554 S
C663 C664 1.403 . S
C664 C663 1.403 . S
C664 C665 1.404 . S
C664 C667 1.539 . S
C665 C661 1.408 . S
C665 C664 1.404 . S
C665 H677 0.930 . S
C666 C662 1.524 . S
C666 H678 0.956 . S
C666 H679 0.961 . S
C666 H680 0.961 . S
C667 C664 1.539 . S
C667 H681 0.958 . S
C667 H682 0.961 . S
C667 H683 0.960 . S
H668 C652 0.931 . S
H669 C657 0.929 . S
H670 C658 0.960 . S
H671 C658 0.962 . S
H672 C658 0.960 . S
H673 C659 0.961 . S
H674 C659 0.961 . S
H675 C659 0.961 . S
H676 C660 0.931 . S
H677 C665 0.930 . S
H678 C666 0.956 . S
H679 C666 0.961 . S
H680 C666 0.961 . S
H681 C667 0.958 . S
H682 C667 0.961 . S
H683 C667 0.960 . S
C684 C685 1.391 . S
C684 C686 1.394 . S
C684 H700 0.931 . S
C685 C684 1.391 . S
C685 C689 1.376 . S
C686 C684 1.394 . S
C686 C687 1.369 . S
C686 C690 1.531 . S
C687 C686 1.369 . S
C687 C688 1.410 . S
C687 C695 1.503 . S
C688 C687 1.410 . S
C688 C689 1.392 . S
C688 C691 1.511 . S
C689 C685 1.376 . S
C689 C688 1.392 . S
C689 H701 0.929 . S
C690 C686 1.531 . S
C690 H702 0.960 . S
C690 H703 0.962 . S
C690 H704 0.960 . S
C691 C688 1.511 . S
C691 H705 0.961 . S
C691 H706 0.961 . S
C691 H707 0.961 . S
C692 C693 1.370 . S
C692 C694 1.363 . S
C692 H708 0.931 . S
C693 C692 1.370 . S
C693 C697 1.408 . S
C694 C692 1.363 . S
C694 C695 1.370 . S
C694 C698 1.524 . S
C695 C687 1.503 . S
C695 C694 1.370 . S
C695 C696 1.403 . S
C696 C695 1.403 . S
C696 C697 1.404 . S
C696 C699 1.539 . S
C697 C693 1.408 . S
C697 C696 1.404 . S
C697 H709 0.930 . S
C698 C694 1.524 . S
C698 H710 0.956 . S
C698 H711 0.961 . S
C698 H712 0.961 . S
C699 C696 1.539 . S
C699 H713 0.958 . S
C699 H714 0.961 . S
C699 H715 0.960 . S
H700 C684 0.931 . S
H701 C689 0.929 . S
H702 C690 0.960 . S
H703 C690 0.962 . S
H704 C690 0.960 . S
H705 C691 0.961 . S
H706 C691 0.961 . S
H707 C691 0.961 . S
H708 C692 0.931 . S
H709 C697 0.930 . S
H710 C698 0.956 . S
H711 C698 0.961 . S
H712 C698 0.961 . S
H713 C699 0.958 . S
H714 C699 0.961 . S
H715 C699 0.960 . S
C716 C717 1.391 1_556 S
C716 C718 1.394 . S
C716 H732 0.931 . S
C717 C716 1.391 1_554 S
C717 C721 1.376 . S
C718 C716 1.394 . S
C718 C719 1.369 . S
C718 C722 1.531 . S
C719 C718 1.369 . S
C719 C720 1.410 1_556 S
C719 C727 1.503 . S
C720 C719 1.410 1_554 S
C720 C721 1.392 . S
C720 C723 1.511 . S
C721 C717 1.376 . S
C721 C720 1.392 . S
C721 H733 0.929 . S
C722 C718 1.531 . S
C722 H734 0.960 . S
C722 H735 0.962 . S
C722 H736 0.960 . S
C723 C720 1.511 . S
C723 H737 0.961 . S
C723 H738 0.961 . S
C723 H739 0.961 . S
C724 C725 1.370 . S
C724 C726 1.363 1_556 S
C724 H740 0.931 1_556 S
C725 C724 1.370 . S
C725 C729 1.408 . S
C726 C724 1.363 1_554 S
C726 C727 1.370 1_554 S
C726 C730 1.524 . S
C727 C719 1.503 . S
C727 C726 1.370 1_556 S
C727 C728 1.403 . S
C728 C727 1.403 . S
C728 C729 1.404 . S
C728 C731 1.539 . S
C729 C725 1.408 . S
C729 C728 1.404 . S
C729 H741 0.930 . S
C730 C726 1.524 . S
C730 H742 0.956 . S
C730 H743 0.961 . S
C730 H744 0.961 . S
C731 C728 1.539 . S
C731 H745 0.958 . S
C731 H746 0.961 . S
C731 H747 0.960 . S
H732 C716 0.931 . S
H733 C721 0.929 . S
H734 C722 0.960 . S
H735 C722 0.962 . S
H736 C722 0.960 . S
H737 C723 0.961 . S
H738 C723 0.961 . S
H739 C723 0.961 . S
H740 C724 0.931 1_554 S
H741 C729 0.930 . S
H742 C730 0.956 . S
H743 C730 0.961 . S
H744 C730 0.961 . S
H745 C731 0.958 . S
H746 C731 0.961 . S
H747 C731 0.960 . S
C748 C749 1.391 . S
C748 C750 1.394 . S
C748 H764 0.931 . S
C749 C748 1.391 . S
C749 C753 1.376 . S
C750 C748 1.394 . S
C750 C751 1.369 . S
C750 C754 1.531 . S
C751 C750 1.369 . S
C751 C752 1.410 . S
C751 C759 1.503 . S
C752 C751 1.410 . S
C752 C753 1.392 . S
C752 C755 1.511 . S
C753 C749 1.376 . S
C753 C752 1.392 . S
C753 H765 0.929 . S
C754 C750 1.531 . S
C754 H766 0.960 . S
C754 H767 0.962 . S
C754 H768 0.960 . S
C755 C752 1.511 . S
C755 H769 0.961 . S
C755 H770 0.961 . S
C755 H771 0.961 . S
C756 C757 1.370 . S
C756 C758 1.363 . S
C756 H772 0.931 . S
C757 C756 1.370 . S
C757 C761 1.408 . S
C758 C756 1.363 . S
C758 C759 1.370 . S
C758 C762 1.524 . S
C759 C751 1.503 . S
C759 C758 1.370 . S
C759 C760 1.403 . S
C760 C759 1.403 . S
C760 C761 1.404 . S
C760 C763 1.539 . S
C761 C757 1.408 . S
C761 C760 1.404 . S
C761 H773 0.930 . S
C762 C758 1.524 . S
C762 H774 0.956 . S
C762 H775 0.961 . S
C762 H776 0.961 . S
C763 C760 1.539 . S
C763 H777 0.958 . S
C763 H778 0.961 . S
C763 H779 0.960 . S
H764 C748 0.931 . S
H765 C753 0.929 . S
H766 C754 0.960 . S
H767 C754 0.962 . S
H768 C754 0.960 . S
H769 C755 0.961 . S
H770 C755 0.961 . S
H771 C755 0.961 . S
H772 C756 0.931 . S
H773 C761 0.930 . S
H774 C762 0.956 . S
H775 C762 0.961 . S
H776 C762 0.961 . S
H777 C763 0.958 . S
H778 C763 0.961 . S
H779 C763 0.960 . S
C780 C781 1.391 . S
C780 C782 1.394 . S
C780 H796 0.931 . S
C781 C780 1.391 . S
C781 C785 1.376 . S
C782 C780 1.394 . S
C782 C783 1.369 . S
C782 C786 1.531 . S
C783 C782 1.369 . S
C783 C784 1.410 . S
C783 C791 1.503 . S
C784 C783 1.410 . S
C784 C785 1.392 . S
C784 C787 1.511 . S
C785 C781 1.376 . S
C785 C784 1.392 . S
C785 H797 0.929 . S
C786 C782 1.531 . S
C786 H798 0.960 . S
C786 H799 0.962 . S
C786 H800 0.960 . S
C787 C784 1.511 . S
C787 H801 0.961 . S
C787 H802 0.961 . S
C787 H803 0.961 . S
C788 C789 1.370 . S
C788 C790 1.363 . S
C788 H804 0.931 . S
C789 C788 1.370 . S
C789 C793 1.408 . S
C790 C788 1.363 . S
C790 C791 1.370 . S
C790 C794 1.524 . S
C791 C783 1.503 . S
C791 C790 1.370 . S
C791 C792 1.403 . S
C792 C791 1.403 . S
C792 C793 1.404 . S
C792 C795 1.539 . S
C793 C789 1.408 . S
C793 C792 1.404 . S
C793 H805 0.930 . S
C794 C790 1.524 . S
C794 H806 0.956 . S
C794 H807 0.961 . S
C794 H808 0.961 . S
C795 C792 1.539 . S
C795 H809 0.958 . S
C795 H810 0.961 . S
C795 H811 0.960 . S
H796 C780 0.931 . S
H797 C785 0.929 . S
H798 C786 0.960 . S
H799 C786 0.962 . S
H800 C786 0.960 . S
H801 C787 0.961 . S
H802 C787 0.961 . S
H803 C787 0.961 . S
H804 C788 0.931 . S
H805 C793 0.930 . S
H806 C794 0.956 . S
H807 C794 0.961 . S
H808 C794 0.961 . S
H809 C795 0.958 . S
H810 C795 0.961 . S
H811 C795 0.960 . S
C812 C813 1.391 . S
C812 C814 1.394 1_554 S
C812 H828 0.931 1_554 S
C813 C812 1.391 . S
C813 C817 1.376 . S
C814 C812 1.394 1_556 S
C814 C815 1.369 1_556 S
C814 C818 1.531 . S
C815 C814 1.369 1_554 S
C815 C816 1.410 . S
C815 C823 1.503 . S
C816 C815 1.410 . S
C816 C817 1.392 . S
C816 C819 1.511 . S
C817 C813 1.376 . S
C817 C816 1.392 . S
C817 H829 0.929 . S
C818 C814 1.531 . S
C818 H830 0.960 . S
C818 H831 0.962 . S
C818 H832 0.960 . S
C819 C816 1.511 . S
C819 H833 0.961 . S
C819 H834 0.961 . S
C819 H835 0.961 . S
C820 C821 1.370 . S
C820 C822 1.363 . S
C820 H836 0.931 . S
C821 C820 1.370 . S
C821 C825 1.408 1_556 S
C822 C820 1.363 . S
C822 C823 1.370 1_556 S
C822 C826 1.524 . S
C823 C815 1.503 . S
C823 C822 1.370 1_554 S
C823 C824 1.403 . S
C824 C823 1.403 . S
C824 C825 1.404 . S
C824 C827 1.539 . S
C825 C821 1.408 1_554 S
C825 C824 1.404 . S
C825 H837 0.930 . S
C826 C822 1.524 . S
C826 H838 0.956 . S
C826 H839 0.961 . S
C826 H840 0.961 . S
C827 C824 1.539 . S
C827 H841 0.958 . S
C827 H842 0.961 . S
C827 H843 0.960 . S
H828 C812 0.931 1_556 S
H829 C817 0.929 . S
H830 C818 0.960 . S
H831 C818 0.962 . S
H832 C818 0.960 . S
H833 C819 0.961 . S
H834 C819 0.961 . S
H835 C819 0.961 . S
H836 C820 0.931 . S
H837 C825 0.930 . S
H838 C826 0.956 . S
H839 C826 0.961 . S
H840 C826 0.961 . S
H841 C827 0.958 . S
H842 C827 0.961 . S
H843 C827 0.960 . S
C844 C845 1.391 . S
C844 C846 1.394 . S
C844 H860 0.931 . S
C845 C844 1.391 . S
C845 C849 1.376 . S
C846 C844 1.394 . S
C846 C847 1.369 . S
C846 C850 1.531 . S
C847 C846 1.369 . S
C847 C848 1.410 . S
C847 C855 1.503 . S
C848 C847 1.410 . S
C848 C849 1.392 . S
C848 C851 1.511 . S
C849 C845 1.376 . S
C849 C848 1.392 . S
C849 H861 0.929 . S
C850 C846 1.531 . S
C850 H862 0.960 . S
C850 H863 0.962 . S
C850 H864 0.960 . S
C851 C848 1.511 . S
C851 H865 0.961 . S
C851 H866 0.961 . S
C851 H867 0.961 . S
C852 C853 1.370 . S
C852 C854 1.363 . S
C852 H868 0.931 . S
C853 C852 1.370 . S
C853 C857 1.408 . S
C854 C852 1.363 . S
C854 C855 1.370 . S
C854 C858 1.524 . S
C855 C847 1.503 . S
C855 C854 1.370 . S
C855 C856 1.403 . S
C856 C855 1.403 . S
C856 C857 1.404 . S
C856 C859 1.539 . S
C857 C853 1.408 . S
C857 C856 1.404 . S
C857 H869 0.930 . S
C858 C854 1.524 . S
C858 H870 0.956 . S
C858 H871 0.961 . S
C858 H872 0.961 . S
C859 C856 1.539 . S
C859 H873 0.958 . S
C859 H874 0.961 . S
C859 H875 0.960 . S
H860 C844 0.931 . S
H861 C849 0.929 . S
H862 C850 0.960 . S
H863 C850 0.962 . S
H864 C850 0.960 . S
H865 C851 0.961 . S
H866 C851 0.961 . S
H867 C851 0.961 . S
H868 C852 0.931 . S
H869 C857 0.930 . S
H870 C858 0.956 . S
H871 C858 0.961 . S
H872 C858 0.961 . S
H873 C859 0.958 . S
H874 C859 0.961 . S
H875 C859 0.960 . S
C876 C877 1.391 . S
C876 C878 1.394 . S
C876 H892 0.931 . S
C877 C876 1.391 . S
C877 C881 1.376 . S
C878 C876 1.394 . S
C878 C879 1.369 1_556 S
C878 C882 1.531 . S
C879 C878 1.369 1_554 S
C879 C880 1.410 . S
C879 C887 1.503 . S
C880 C879 1.410 . S
C880 C881 1.392 1_554 S
C880 C883 1.511 . S
C881 C877 1.376 . S
C881 C880 1.392 1_556 S
C881 H893 0.929 1_556 S
C882 C878 1.531 . S
C882 H894 0.960 1_556 S
C882 H895 0.962 . S
C882 H896 0.960 . S
C883 C880 1.511 . S
C883 H897 0.961 . S
C883 H898 0.961 . S
C883 H899 0.961 . S
C884 C885 1.370 1_556 S
C884 C886 1.363 . S
C884 H900 0.931 . S
C885 C884 1.370 1_554 S
C885 C889 1.408 . S
C886 C884 1.363 . S
C886 C887 1.370 1_556 S
C886 C890 1.524 . S
C887 C879 1.503 . S
C887 C886 1.370 1_554 S
C887 C888 1.403 . S
C888 C887 1.403 . S
C888 C889 1.404 . S
C888 C891 1.539 . S
C889 C885 1.408 . S
C889 C888 1.404 . S
C889 H901 0.930 . S
C890 C886 1.524 . S
C890 H902 0.956 . S
C890 H903 0.961 . S
C890 H904 0.961 . S
C891 C888 1.539 . S
C891 H905 0.958 . S
C891 H906 0.961 . S
C891 H907 0.960 . S
H892 C876 0.931 . S
H893 C881 0.929 1_554 S
H894 C882 0.960 1_554 S
H895 C882 0.962 . S
H896 C882 0.960 . S
H897 C883 0.961 . S
H898 C883 0.961 . S
H899 C883 0.961 . S
H900 C884 0.931 . S
H901 C889 0.930 . S
H902 C890 0.956 . S
H903 C890 0.961 . S
H904 C890 0.961 . S
H905 C891 0.958 . S
H906 C891 0.961 . S
H907 C891 0.960 . S
C908 C909 1.391 . S
C908 C910 1.394 . S
C908 H924 0.931 . S
C909 C908 1.391 . S
C909 C913 1.376 . S
C910 C908 1.394 . S
C910 C911 1.369 . S
C910 C914 1.531 . S
C911 C910 1.369 . S
C911 C912 1.410 . S
C911 C919 1.503 . S
C912 C911 1.410 . S
C912 C913 1.392 . S
C912 C915 1.511 . S
C913 C909 1.376 . S
C913 C912 1.392 . S
C913 H925 0.929 . S
C914 C910 1.531 . S
C914 H926 0.960 . S
C914 H927 0.962 . S
C914 H928 0.960 . S
C915 C912 1.511 . S
C915 H929 0.961 . S
C915 H930 0.961 . S
C915 H931 0.961 . S
C916 C917 1.370 . S
C916 C918 1.363 . S
C916 H932 0.931 . S
C917 C916 1.370 . S
C917 C921 1.408 . S
C918 C916 1.363 . S
C918 C919 1.370 . S
C918 C922 1.524 . S
C919 C911 1.503 . S
C919 C918 1.370 . S
C919 C920 1.403 . S
C920 C919 1.403 . S
C920 C921 1.404 . S
C920 C923 1.539 . S
C921 C917 1.408 . S
C921 C920 1.404 . S
C921 H933 0.930 . S
C922 C918 1.524 . S
C922 H934 0.956 . S
C922 H935 0.961 . S
C922 H936 0.961 . S
C923 C920 1.539 . S
C923 H937 0.958 . S
C923 H938 0.961 . S
C923 H939 0.960 . S
H924 C908 0.931 . S
H925 C913 0.929 . S
H926 C914 0.960 . S
H927 C914 0.962 . S
H928 C914 0.960 . S
H929 C915 0.961 . S
H930 C915 0.961 . S
H931 C915 0.961 . S
H932 C916 0.931 . S
H933 C921 0.930 . S
H934 C922 0.956 . S
H935 C922 0.961 . S
H936 C922 0.961 . S
H937 C923 0.958 . S
H938 C923 0.961 . S
H939 C923 0.960 . S
C940 C941 1.391 . S
C940 C942 1.394 . S
C940 H956 0.931 . S
C941 C940 1.391 . S
C941 C945 1.376 . S
C942 C940 1.394 . S
C942 C943 1.369 . S
C942 C946 1.531 . S
C943 C942 1.369 . S
C943 C944 1.410 . S
C943 C951 1.503 . S
C944 C943 1.410 . S
C944 C945 1.392 . S
C944 C947 1.511 1_554 S
C945 C941 1.376 . S
C945 C944 1.392 . S
C945 H957 0.929 . S
C946 C942 1.531 . S
C946 H958 0.960 . S
C946 H959 0.962 . S
C946 H960 0.960 . S
C947 C944 1.511 1_556 S
C947 H961 0.961 . S
C947 H962 0.961 . S
C947 H963 0.961 1_556 S
C948 C949 1.370 . S
C948 C950 1.363 . S
C948 H964 0.931 . S
C949 C948 1.370 . S
C949 C953 1.408 1_556 S
C950 C948 1.363 . S
C950 C951 1.370 1_556 S
C950 C954 1.524 . S
C951 C943 1.503 . S
C951 C950 1.370 1_554 S
C951 C952 1.403 . S
C952 C951 1.403 . S
C952 C953 1.404 . S
C952 C955 1.539 . S
C953 C949 1.408 1_554 S
C953 C952 1.404 . S
C953 H965 0.930 . S
C954 C950 1.524 . S
C954 H966 0.956 . S
C954 H967 0.961 . S
C954 H968 0.961 . S
C955 C952 1.539 . S
C955 H969 0.958 . S
C955 H970 0.961 . S
C955 H971 0.960 . S
H956 C940 0.931 . S
H957 C945 0.929 . S
H958 C946 0.960 . S
H959 C946 0.962 . S
H960 C946 0.960 . S
H961 C947 0.961 . S
H962 C947 0.961 . S
H963 C947 0.961 1_554 S
H964 C948 0.931 . S
H965 C953 0.930 . S
H966 C954 0.956 . S
H967 C954 0.961 . S
H968 C954 0.961 . S
H969 C955 0.958 . S
H970 C955 0.961 . S
H971 C955 0.960 . S
C972 C973 1.391 . S
C972 C974 1.394 . S
C972 H988 0.931 . S
C973 C972 1.391 . S
C973 C977 1.376 . S
C974 C972 1.394 . S
C974 C975 1.369 . S
C974 C978 1.531 . S
C975 C974 1.369 . S
C975 C976 1.410 . S
C975 C983 1.503 . S
C976 C975 1.410 . S
C976 C977 1.392 . S
C976 C979 1.511 . S
C977 C973 1.376 . S
C977 C976 1.392 . S
C977 H989 0.929 . S
C978 C974 1.531 . S
C978 H990 0.960 . S
C978 H991 0.962 . S
C978 H992 0.960 . S
C979 C976 1.511 . S
C979 H993 0.961 . S
C979 H994 0.961 . S
C979 H995 0.961 . S
C980 C981 1.370 . S
C980 C982 1.363 . S
C980 H996 0.931 . S
C981 C980 1.370 . S
C981 C985 1.408 . S
C982 C980 1.363 . S
C982 C983 1.370 . S
C982 C986 1.524 . S
C983 C975 1.503 . S
C983 C982 1.370 . S
C983 C984 1.403 . S
C984 C983 1.403 . S
C984 C985 1.404 . S
C984 C987 1.539 . S
C985 C981 1.408 . S
C985 C984 1.404 . S
C985 H997 0.930 . S
C986 C982 1.524 . S
C986 H998 0.956 . S
C986 H999 0.961 . S
C986 H1000 0.961 . S
C987 C984 1.539 . S
C987 H1001 0.958 . S
C987 H1002 0.961 . S
C987 H1003 0.960 . S
H988 C972 0.931 . S
H989 C977 0.929 . S
H990 C978 0.960 . S
H991 C978 0.962 . S
H992 C978 0.960 . S
H993 C979 0.961 . S
H994 C979 0.961 . S
H995 C979 0.961 . S
H996 C980 0.931 . S
H997 C985 0.930 . S
H998 C986 0.956 . S
H999 C986 0.961 . S
H1000 C986 0.961 . S
H1001 C987 0.958 . S
H1002 C987 0.961 . S
H1003 C987 0.960 . S
C1004 C1005 1.391 . S
C1004 C1006 1.394 . S
C1004 H1020 0.931 . S
C1005 C1004 1.391 . S
C1005 C1009 1.376 . S
C1006 C1004 1.394 . S
C1006 C1007 1.369 . S
C1006 C1010 1.531 . S
C1007 C1006 1.369 . S
C1007 C1008 1.410 . S
C1007 C1015 1.503 . S
C1008 C1007 1.410 . S
C1008 C1009 1.392 . S
C1008 C1011 1.511 . S
C1009 C1005 1.376 . S
C1009 C1008 1.392 . S
C1009 H1021 0.929 . S
C1010 C1006 1.531 . S
C1010 H1022 0.960 . S
C1010 H1023 0.962 . S
C1010 H1024 0.960 . S
C1011 C1008 1.511 . S
C1011 H1025 0.961 . S
C1011 H1026 0.961 . S
C1011 H1027 0.961 . S
C1012 C1013 1.370 . S
C1012 C1014 1.363 . S
C1012 H1028 0.931 . S
C1013 C1012 1.370 . S
C1013 C1017 1.408 . S
C1014 C1012 1.363 . S
C1014 C1015 1.370 . S
C1014 C1018 1.524 . S
C1015 C1007 1.503 . S
C1015 C1014 1.370 . S
C1015 C1016 1.403 . S
C1016 C1015 1.403 . S
C1016 C1017 1.404 . S
C1016 C1019 1.539 . S
C1017 C1013 1.408 . S
C1017 C1016 1.404 . S
C1017 H1029 0.930 . S
C1018 C1014 1.524 . S
C1018 H1030 0.956 . S
C1018 H1031 0.961 . S
C1018 H1032 0.961 . S
C1019 C1016 1.539 . S
C1019 H1033 0.958 . S
C1019 H1034 0.961 . S
C1019 H1035 0.960 . S
H1020 C1004 0.931 . S
H1021 C1009 0.929 . S
H1022 C1010 0.960 . S
H1023 C1010 0.962 . S
H1024 C1010 0.960 . S
H1025 C1011 0.961 . S
H1026 C1011 0.961 . S
H1027 C1011 0.961 . S
H1028 C1012 0.931 . S
H1029 C1017 0.930 . S
H1030 C1018 0.956 . S
H1031 C1018 0.961 . S
H1032 C1018 0.961 . S
H1033 C1019 0.958 . S
H1034 C1019 0.961 . S
H1035 C1019 0.960 . S
C1036 C1037 1.391 . S
C1036 C1038 1.394 . S
C1036 H1052 0.931 . S
C1037 C1036 1.391 . S
C1037 C1041 1.376 . S
C1038 C1036 1.394 . S
C1038 C1039 1.369 . S
C1038 C1042 1.531 . S
C1039 C1038 1.369 . S
C1039 C1040 1.410 . S
C1039 C1047 1.503 . S
C1040 C1039 1.410 . S
C1040 C1041 1.392 . S
C1040 C1043 1.511 . S
C1041 C1037 1.376 . S
C1041 C1040 1.392 . S
C1041 H1053 0.929 . S
C1042 C1038 1.531 . S
C1042 H1054 0.960 . S
C1042 H1055 0.962 . S
C1042 H1056 0.960 . S
C1043 C1040 1.511 . S
C1043 H1057 0.961 . S
C1043 H1058 0.961 . S
C1043 H1059 0.961 . S
C1044 C1045 1.370 . S
C1044 C1046 1.363 . S
C1044 H1060 0.931 . S
C1045 C1044 1.370 . S
C1045 C1049 1.408 . S
C1046 C1044 1.363 . S
C1046 C1047 1.370 . S
C1046 C1050 1.524 . S
C1047 C1039 1.503 . S
C1047 C1046 1.370 . S
C1047 C1048 1.403 . S
C1048 C1047 1.403 . S
C1048 C1049 1.404 . S
C1048 C1051 1.539 . S
C1049 C1045 1.408 . S
C1049 C1048 1.404 . S
C1049 H1061 0.930 . S
C1050 C1046 1.524 . S
C1050 H1062 0.956 . S
C1050 H1063 0.961 . S
C1050 H1064 0.961 . S
C1051 C1048 1.539 . S
C1051 H1065 0.958 . S
C1051 H1066 0.961 . S
C1051 H1067 0.960 . S
H1052 C1036 0.931 . S
H1053 C1041 0.929 . S
H1054 C1042 0.960 . S
H1055 C1042 0.962 . S
H1056 C1042 0.960 . S
H1057 C1043 0.961 . S
H1058 C1043 0.961 . S
H1059 C1043 0.961 . S
H1060 C1044 0.931 . S
H1061 C1049 0.930 . S
H1062 C1050 0.956 . S
H1063 C1050 0.961 . S
H1064 C1050 0.961 . S
H1065 C1051 0.958 . S
H1066 C1051 0.961 . S
H1067 C1051 0.960 . S
C1068 C1069 1.391 . S
C1068 C1070 1.394 . S
C1068 H1084 0.931 . S
C1069 C1068 1.391 . S
C1069 C1073 1.376 . S
C1070 C1068 1.394 . S
C1070 C1071 1.369 . S
C1070 C1074 1.531 . S
C1071 C1070 1.369 . S
C1071 C1072 1.410 . S
C1071 C1079 1.503 . S
C1072 C1071 1.410 . S
C1072 C1073 1.392 . S
C1072 C1075 1.511 . S
C1073 C1069 1.376 . S
C1073 C1072 1.392 . S
C1073 H1085 0.929 . S
C1074 C1070 1.531 . S
C1074 H1086 0.960 . S
C1074 H1087 0.962 . S
C1074 H1088 0.960 . S
C1075 C1072 1.511 . S
C1075 H1089 0.961 . S
C1075 H1090 0.961 . S
C1075 H1091 0.961 . S
C1076 C1077 1.370 . S
C1076 C1078 1.363 . S
C1076 H1092 0.931 . S
C1077 C1076 1.370 . S
C1077 C1081 1.408 . S
C1078 C1076 1.363 . S
C1078 C1079 1.370 . S
C1078 C1082 1.524 . S
C1079 C1071 1.503 . S
C1079 C1078 1.370 . S
C1079 C1080 1.403 . S
C1080 C1079 1.403 . S
C1080 C1081 1.404 . S
C1080 C1083 1.539 . S
C1081 C1077 1.408 . S
C1081 C1080 1.404 . S
C1081 H1093 0.930 . S
C1082 C1078 1.524 . S
C1082 H1094 0.956 . S
C1082 H1095 0.961 . S
C1082 H1096 0.961 . S
C1083 C1080 1.539 . S
C1083 H1097 0.958 . S
C1083 H1098 0.961 . S
C1083 H1099 0.960 . S
H1084 C1068 0.931 . S
H1085 C1073 0.929 . S
H1086 C1074 0.960 . S
H1087 C1074 0.962 . S
H1088 C1074 0.960 . S
H1089 C1075 0.961 . S
H1090 C1075 0.961 . S
H1091 C1075 0.961 . S
H1092 C1076 0.931 . S
H1093 C1081 0.930 . S
H1094 C1082 0.956 . S
H1095 C1082 0.961 . S
H1096 C1082 0.961 . S
H1097 C1083 0.958 . S
H1098 C1083 0.961 . S
H1099 C1083 0.960 . S
C1100 C1101 1.391 . S
C1100 C1102 1.394 . S
C1100 H1116 0.931 . S
C1101 C1100 1.391 . S
C1101 C1105 1.376 . S
C1102 C1100 1.394 . S
C1102 C1103 1.369 . S
C1102 C1106 1.531 . S
C1103 C1102 1.369 . S
C1103 C1104 1.410 . S
C1103 C1111 1.503 . S
C1104 C1103 1.410 . S
C1104 C1105 1.392 . S
C1104 C1107 1.511 . S
C1105 C1101 1.376 . S
C1105 C1104 1.392 . S
C1105 H1117 0.929 . S
C1106 C1102 1.531 . S
C1106 H1118 0.960 . S
C1106 H1119 0.962 . S
C1106 H1120 0.960 . S
C1107 C1104 1.511 . S
C1107 H1121 0.961 . S
C1107 H1122 0.961 . S
C1107 H1123 0.961 . S
C1108 C1109 1.370 . S
C1108 C1110 1.363 . S
C1108 H1124 0.931 . S
C1109 C1108 1.370 . S
C1109 C1113 1.408 . S
C1110 C1108 1.363 . S
C1110 C1111 1.370 . S
C1110 C1114 1.524 . S
C1111 C1103 1.503 . S
C1111 C1110 1.370 . S
C1111 C1112 1.403 . S
C1112 C1111 1.403 . S
C1112 C1113 1.404 . S
C1112 C1115 1.539 . S
C1113 C1109 1.408 . S
C1113 C1112 1.404 . S
C1113 H1125 0.930 . S
C1114 C1110 1.524 . S
C1114 H1126 0.956 . S
C1114 H1127 0.961 . S
C1114 H1128 0.961 . S
C1115 C1112 1.539 . S
C1115 H1129 0.958 . S
C1115 H1130 0.961 . S
C1115 H1131 0.960 . S
H1116 C1100 0.931 . S
H1117 C1105 0.929 . S
H1118 C1106 0.960 . S
H1119 C1106 0.962 . S
H1120 C1106 0.960 . S
H1121 C1107 0.961 . S
H1122 C1107 0.961 . S
H1123 C1107 0.961 . S
H1124 C1108 0.931 . S
H1125 C1113 0.930 . S
H1126 C1114 0.956 . S
H1127 C1114 0.961 . S
H1128 C1114 0.961 . S
H1129 C1115 0.958 . S
H1130 C1115 0.961 . S
H1131 C1115 0.960 . S
C1132 C1133 1.391 . S
C1132 C1134 1.394 . S
C1132 H1148 0.931 . S
C1133 C1132 1.391 . S
C1133 C1137 1.376 . S
C1134 C1132 1.394 . S
C1134 C1135 1.369 . S
C1134 C1138 1.531 . S
C1135 C1134 1.369 . S
C1135 C1136 1.410 . S
C1135 C1143 1.503 . S
C1136 C1135 1.410 . S
C1136 C1137 1.392 . S
C1136 C1139 1.511 . S
C1137 C1133 1.376 . S
C1137 C1136 1.392 . S
C1137 H1149 0.929 . S
C1138 C1134 1.531 . S
C1138 H1150 0.960 . S
C1138 H1151 0.962 . S
C1138 H1152 0.960 . S
C1139 C1136 1.511 . S
C1139 H1153 0.961 . S
C1139 H1154 0.961 . S
C1139 H1155 0.961 . S
C1140 C1141 1.370 . S
C1140 C1142 1.363 . S
C1140 H1156 0.931 . S
C1141 C1140 1.370 . S
C1141 C1145 1.408 . S
C1142 C1140 1.363 . S
C1142 C1143 1.370 . S
C1142 C1146 1.524 . S
C1143 C1135 1.503 . S
C1143 C1142 1.370 . S
C1143 C1144 1.403 . S
C1144 C1143 1.403 . S
C1144 C1145 1.404 . S
C1144 C1147 1.539 . S
C1145 C1141 1.408 . S
C1145 C1144 1.404 . S
C1145 H1157 0.930 . S
C1146 C1142 1.524 . S
C1146 H1158 0.956 . S
C1146 H1159 0.961 . S
C1146 H1160 0.961 . S
C1147 C1144 1.539 . S
C1147 H1161 0.958 . S
C1147 H1162 0.961 . S
C1147 H1163 0.960 . S
H1148 C1132 0.931 . S
H1149 C1137 0.929 . S
H1150 C1138 0.960 . S
H1151 C1138 0.962 . S
H1152 C1138 0.960 . S
H1153 C1139 0.961 . S
H1154 C1139 0.961 . S
H1155 C1139 0.961 . S
H1156 C1140 0.931 . S
H1157 C1145 0.930 . S
H1158 C1146 0.956 . S
H1159 C1146 0.961 . S
H1160 C1146 0.961 . S
H1161 C1147 0.958 . S
H1162 C1147 0.961 . S
H1163 C1147 0.960 . S
C1164 C1165 1.391 . S
C1164 C1166 1.394 . S
C1164 H1180 0.931 . S
C1165 C1164 1.391 . S
C1165 C1169 1.376 . S
C1166 C1164 1.394 . S
C1166 C1167 1.369 . S
C1166 C1170 1.531 . S
C1167 C1166 1.369 . S
C1167 C1168 1.410 . S
C1167 C1175 1.503 . S
C1168 C1167 1.410 . S
C1168 C1169 1.392 . S
C1168 C1171 1.511 . S
C1169 C1165 1.376 . S
C1169 C1168 1.392 . S
C1169 H1181 0.929 . S
C1170 C1166 1.531 . S
C1170 H1182 0.960 . S
C1170 H1183 0.962 . S
C1170 H1184 0.960 . S
C1171 C1168 1.511 . S
C1171 H1185 0.961 . S
C1171 H1186 0.961 . S
C1171 H1187 0.961 . S
C1172 C1173 1.370 . S
C1172 C1174 1.363 . S
C1172 H1188 0.931 . S
C1173 C1172 1.370 . S
C1173 C1177 1.408 . S
C1174 C1172 1.363 . S
C1174 C1175 1.370 . S
C1174 C1178 1.524 . S
C1175 C1167 1.503 . S
C1175 C1174 1.370 . S
C1175 C1176 1.403 . S
C1176 C1175 1.403 . S
C1176 C1177 1.404 . S
C1176 C1179 1.539 . S
C1177 C1173 1.408 . S
C1177 C1176 1.404 . S
C1177 H1189 0.930 . S
C1178 C1174 1.524 . S
C1178 H1190 0.956 . S
C1178 H1191 0.961 . S
C1178 H1192 0.961 . S
C1179 C1176 1.539 . S
C1179 H1193 0.958 . S
C1179 H1194 0.961 . S
C1179 H1195 0.960 . S
H1180 C1164 0.931 . S
H1181 C1169 0.929 . S
H1182 C1170 0.960 . S
H1183 C1170 0.962 . S
H1184 C1170 0.960 . S
H1185 C1171 0.961 . S
H1186 C1171 0.961 . S
H1187 C1171 0.961 . S
H1188 C1172 0.931 . S
H1189 C1177 0.930 . S
H1190 C1178 0.956 . S
H1191 C1178 0.961 . S
H1192 C1178 0.961 . S
H1193 C1179 0.958 . S
H1194 C1179 0.961 . S
H1195 C1179 0.960 . S
C1196 C1197 1.391 . S
C1196 C1198 1.394 . S
C1196 H1212 0.931 . S
C1197 C1196 1.391 . S
C1197 C1201 1.376 . S
C1198 C1196 1.394 . S
C1198 C1199 1.369 . S
C1198 C1202 1.531 . S
C1199 C1198 1.369 . S
C1199 C1200 1.410 . S
C1199 C1207 1.503 . S
C1200 C1199 1.410 . S
C1200 C1201 1.392 . S
C1200 C1203 1.511 . S
C1201 C1197 1.376 . S
C1201 C1200 1.392 . S
C1201 H1213 0.929 . S
C1202 C1198 1.531 . S
C1202 H1214 0.960 . S
C1202 H1215 0.962 . S
C1202 H1216 0.960 . S
C1203 C1200 1.511 . S
C1203 H1217 0.961 . S
C1203 H1218 0.961 . S
C1203 H1219 0.961 . S
C1204 C1205 1.370 . S
C1204 C1206 1.363 . S
C1204 H1220 0.931 . S
C1205 C1204 1.370 . S
C1205 C1209 1.408 . S
C1206 C1204 1.363 . S
C1206 C1207 1.370 . S
C1206 C1210 1.524 . S
C1207 C1199 1.503 . S
C1207 C1206 1.370 . S
C1207 C1208 1.403 . S
C1208 C1207 1.403 . S
C1208 C1209 1.404 . S
C1208 C1211 1.539 . S
C1209 C1205 1.408 . S
C1209 C1208 1.404 . S
C1209 H1221 0.930 . S
C1210 C1206 1.524 . S
C1210 H1222 0.956 . S
C1210 H1223 0.961 . S
C1210 H1224 0.961 . S
C1211 C1208 1.539 . S
C1211 H1225 0.958 . S
C1211 H1226 0.961 . S
C1211 H1227 0.960 . S
H1212 C1196 0.931 . S
H1213 C1201 0.929 . S
H1214 C1202 0.960 . S
H1215 C1202 0.962 . S
H1216 C1202 0.960 . S
H1217 C1203 0.961 . S
H1218 C1203 0.961 . S
H1219 C1203 0.961 . S
H1220 C1204 0.931 . S
H1221 C1209 0.930 . S
H1222 C1210 0.956 . S
H1223 C1210 0.961 . S
H1224 C1210 0.961 . S
H1225 C1211 0.958 . S
H1226 C1211 0.961 . S
H1227 C1211 0.960 . S
C1228 C1229 1.391 . S
C1228 C1230 1.394 . S
C1228 H1244 0.931 . S
C1229 C1228 1.391 . S
C1229 C1233 1.376 . S
C1230 C1228 1.394 . S
C1230 C1231 1.369 . S
C1230 C1234 1.531 . S
C1231 C1230 1.369 . S
C1231 C1232 1.410 . S
C1231 C1239 1.503 . S
C1232 C1231 1.410 . S
C1232 C1233 1.392 . S
C1232 C1235 1.511 . S
C1233 C1229 1.376 . S
C1233 C1232 1.392 . S
C1233 H1245 0.929 . S
C1234 C1230 1.531 . S
C1234 H1246 0.960 . S
C1234 H1247 0.962 . S
C1234 H1248 0.960 . S
C1235 C1232 1.511 . S
C1235 H1249 0.961 . S
C1235 H1250 0.961 . S
C1235 H1251 0.961 . S
C1236 C1237 1.370 . S
C1236 C1238 1.363 . S
C1236 H1252 0.931 . S
C1237 C1236 1.370 . S
C1237 C1241 1.408 . S
C1238 C1236 1.363 . S
C1238 C1239 1.370 . S
C1238 C1242 1.524 . S
C1239 C1231 1.503 . S
C1239 C1238 1.370 . S
C1239 C1240 1.403 . S
C1240 C1239 1.403 . S
C1240 C1241 1.404 . S
C1240 C1243 1.539 . S
C1241 C1237 1.408 . S
C1241 C1240 1.404 . S
C1241 H1253 0.930 . S
C1242 C1238 1.524 . S
C1242 H1254 0.956 . S
C1242 H1255 0.961 . S
C1242 H1256 0.961 . S
C1243 C1240 1.539 . S
C1243 H1257 0.958 . S
C1243 H1258 0.961 . S
C1243 H1259 0.960 . S
H1244 C1228 0.931 . S
H1245 C1233 0.929 . S
H1246 C1234 0.960 . S
H1247 C1234 0.962 . S
H1248 C1234 0.960 . S
H1249 C1235 0.961 . S
H1250 C1235 0.961 . S
H1251 C1235 0.961 . S
H1252 C1236 0.931 . S
H1253 C1241 0.930 . S
H1254 C1242 0.956 . S
H1255 C1242 0.961 . S
H1256 C1242 0.961 . S
H1257 C1243 0.958 . S
H1258 C1243 0.961 . S
H1259 C1243 0.960 . S
C1260 C1261 1.391 . S
C1260 C1262 1.394 . S
C1260 H1276 0.931 . S
C1261 C1260 1.391 . S
C1261 C1265 1.376 . S
C1262 C1260 1.394 . S
C1262 C1263 1.369 . S
C1262 C1266 1.531 . S
C1263 C1262 1.369 . S
C1263 C1264 1.410 . S
C1263 C1271 1.503 . S
C1264 C1263 1.410 . S
C1264 C1265 1.392 . S
C1264 C1267 1.511 . S
C1265 C1261 1.376 . S
C1265 C1264 1.392 . S
C1265 H1277 0.929 . S
C1266 C1262 1.531 . S
C1266 H1278 0.960 . S
C1266 H1279 0.962 . S
C1266 H1280 0.960 . S
C1267 C1264 1.511 . S
C1267 H1281 0.961 . S
C1267 H1282 0.961 . S
C1267 H1283 0.961 . S
C1268 C1269 1.370 . S
C1268 C1270 1.363 . S
C1268 H1284 0.931 . S
C1269 C1268 1.370 . S
C1269 C1273 1.408 . S
C1270 C1268 1.363 . S
C1270 C1271 1.370 . S
C1270 C1274 1.524 . S
C1271 C1263 1.503 . S
C1271 C1270 1.370 . S
C1271 C1272 1.403 . S
C1272 C1271 1.403 . S
C1272 C1273 1.404 . S
C1272 C1275 1.539 . S
C1273 C1269 1.408 . S
C1273 C1272 1.404 . S
C1273 H1285 0.930 . S
C1274 C1270 1.524 . S
C1274 H1286 0.956 . S
C1274 H1287 0.961 . S
C1274 H1288 0.961 . S
C1275 C1272 1.539 . S
C1275 H1289 0.958 . S
C1275 H1290 0.961 . S
C1275 H1291 0.960 . S
H1276 C1260 0.931 . S
H1277 C1265 0.929 . S
H1278 C1266 0.960 . S
H1279 C1266 0.962 . S
H1280 C1266 0.960 . S
H1281 C1267 0.961 . S
H1282 C1267 0.961 . S
H1283 C1267 0.961 . S
H1284 C1268 0.931 . S
H1285 C1273 0.930 . S
H1286 C1274 0.956 . S
H1287 C1274 0.961 . S
H1288 C1274 0.961 . S
H1289 C1275 0.958 . S
H1290 C1275 0.961 . S
H1291 C1275 0.960 . S
C1292 C1293 1.391 . S
C1292 C1294 1.394 . S
C1292 H1308 0.931 . S
C1293 C1292 1.391 . S
C1293 C1297 1.376 . S
C1294 C1292 1.394 . S
C1294 C1295 1.369 . S
C1294 C1298 1.531 . S
C1295 C1294 1.369 . S
C1295 C1296 1.410 . S
C1295 C1303 1.503 . S
C1296 C1295 1.410 . S
C1296 C1297 1.392 . S
C1296 C1299 1.511 . S
C1297 C1293 1.376 . S
C1297 C1296 1.392 . S
C1297 H1309 0.929 . S
C1298 C1294 1.531 . S
C1298 H1310 0.960 . S
C1298 H1311 0.962 . S
C1298 H1312 0.960 . S
C1299 C1296 1.511 . S
C1299 H1313 0.961 . S
C1299 H1314 0.961 . S
C1299 H1315 0.961 . S
C1300 C1301 1.370 . S
C1300 C1302 1.363 . S
C1300 H1316 0.931 . S
C1301 C1300 1.370 . S
C1301 C1305 1.408 . S
C1302 C1300 1.363 . S
C1302 C1303 1.370 . S
C1302 C1306 1.524 . S
C1303 C1295 1.503 . S
C1303 C1302 1.370 . S
C1303 C1304 1.403 . S
C1304 C1303 1.403 . S
C1304 C1305 1.404 . S
C1304 C1307 1.539 . S
C1305 C1301 1.408 . S
C1305 C1304 1.404 . S
C1305 H1317 0.930 . S
C1306 C1302 1.524 . S
C1306 H1318 0.956 . S
C1306 H1319 0.961 . S
C1306 H1320 0.961 . S
C1307 C1304 1.539 . S
C1307 H1321 0.958 . S
C1307 H1322 0.961 . S
C1307 H1323 0.960 . S
H1308 C1292 0.931 . S
H1309 C1297 0.929 . S
H1310 C1298 0.960 . S
H1311 C1298 0.962 . S
H1312 C1298 0.960 . S
H1313 C1299 0.961 . S
H1314 C1299 0.961 . S
H1315 C1299 0.961 . S
H1316 C1300 0.931 . S
H1317 C1305 0.930 . S
H1318 C1306 0.956 . S
H1319 C1306 0.961 . S
H1320 C1306 0.961 . S
H1321 C1307 0.958 . S
H1322 C1307 0.961 . S
H1323 C1307 0.960 . S
C1324 C1325 1.391 . S
C1324 C1326 1.394 . S
C1324 H1340 0.931 . S
C1325 C1324 1.391 . S
C1325 C1329 1.376 . S
C1326 C1324 1.394 . S
C1326 C1327 1.369 . S
C1326 C1330 1.531 . S
C1327 C1326 1.369 . S
C1327 C1328 1.410 . S
C1327 C1335 1.503 . S
C1328 C1327 1.410 . S
C1328 C1329 1.392 . S
C1328 C1331 1.511 . S
C1329 C1325 1.376 . S
C1329 C1328 1.392 . S
C1329 H1341 0.929 . S
C1330 C1326 1.531 . S
C1330 H1342 0.960 . S
C1330 H1343 0.962 . S
C1330 H1344 0.960 . S
C1331 C1328 1.511 . S
C1331 H1345 0.961 . S
C1331 H1346 0.961 . S
C1331 H1347 0.961 . S
C1332 C1333 1.370 . S
C1332 C1334 1.363 . S
C1332 H1348 0.931 . S
C1333 C1332 1.370 . S
C1333 C1337 1.408 . S
C1334 C1332 1.363 . S
C1334 C1335 1.370 . S
C1334 C1338 1.524 . S
C1335 C1327 1.503 . S
C1335 C1334 1.370 . S
C1335 C1336 1.403 . S
C1336 C1335 1.403 . S
C1336 C1337 1.404 . S
C1336 C1339 1.539 . S
C1337 C1333 1.408 . S
C1337 C1336 1.404 . S
C1337 H1349 0.930 . S
C1338 C1334 1.524 . S
C1338 H1350 0.956 . S
C1338 H1351 0.961 . S
C1338 H1352 0.961 . S
C1339 C1336 1.539 . S
C1339 H1353 0.958 . S
C1339 H1354 0.961 . S
C1339 H1355 0.960 . S
H1340 C1324 0.931 . S
H1341 C1329 0.929 . S
H1342 C1330 0.960 . S
H1343 C1330 0.962 . S
H1344 C1330 0.960 . S
H1345 C1331 0.961 . S
H1346 C1331 0.961 . S
H1347 C1331 0.961 . S
H1348 C1332 0.931 . S
H1349 C1337 0.930 . S
H1350 C1338 0.956 . S
H1351 C1338 0.961 . S
H1352 C1338 0.961 . S
H1353 C1339 0.958 . S
H1354 C1339 0.961 . S
H1355 C1339 0.960 . S
C397 C314 0.926 1_554 S
C405 C17 0.912 1_556 S
C429 C50 0.894 . S
C437 C347 0.956 . S
C461 C380 0.935 1_554 S
C469 C83 0.947 1_556 S
C493 C116 0.971 . S
C501 C215 0.904 . S
C525 C149 0.986 1_556 S
C533 C248 0.905 1_554 S
C557 C281 0.991 . S
C565 C182 0.909 . S
C589 N14 0.917 . S
C597 C140 1.143 . S
C621 C173 1.137 . S
C629 N47 1.025 . S
C653 N80 0.912 . S
C661 C8 1.149 . S
C685 N113 1.050 . S
C693 C41 1.137 . S
C717 C74 1.154 . S
C725 N146 1.008 . S
C749 C107 1.143 . S
C757 N179 0.959 . S
C781 C272 1.132 . S
C789 N212 0.969 . S
C813 N245 1.033 . S
C821 C305 1.149 . S
C845 C338 1.149 . S
C853 N278 1.018 . S
C877 C371 1.134 . S
C885 N311 1.025 . S
C909 C206 1.123 . S
C917 N344 0.996 . S
C941 N377 1.066 . S
C949 C239 1.139 . S
C973 C358 1.655 . S
C981 C28 1.669 . S
C1005 C391 1.682 . S
C1013 C61 1.679 . S
C1037 C94 1.665 . S
C1045 C226 1.672 . S
C1069 C127 1.659 . S
C1077 C259 1.670 . S
C1101 C292 1.668 . S
C1109 C160 1.676 . S
C1133 C193 1.660 . S
C1141 C325 1.672 . S
C1165 N203 0.716 . S
C1173 N5 0.654 . S
C1197 N236 0.573 . S
C1205 N38 0.644 . S
C1229 N71 0.682 . S
C1237 N269 0.706 . S
C1261 N302 0.644 . S
C1269 N104 0.695 . S
C1293 N137 0.766 . S
C1301 N335 0.690 . S
C1325 N368 0.607 . S
C1333 N170 0.679 . S
