# Generated by pormake.
# Topology wjm, (5)-cn, num edge types: 1
# Building blocks:
#     Node 0, Type 0, BuildingBlock: XOMCOT_clean_sbu_1, # of connection points: 5
#     Node 1, Type 0, BuildingBlock: XOMCOT_clean_sbu_1, # of connection points: 5
#     Node 2, Type 0, BuildingBlock: XOMCOT_clean_sbu_1, # of connection points: 5
#     Node 3, Type 0, BuildingBlock: XOMCOT_clean_sbu_1, # of connection points: 5
#     Node 4, Type 0, BuildingBlock: XOMCOT_clean_sbu_1, # of connection points: 5
#     Node 5, Type 0, BuildingBlock: XOMCOT_clean_sbu_1, # of connection points: 5
#     Node 6, Type 0, BuildingBlock: XOMCOT_clean_sbu_1, # of connection points: 5
#     Node 7, Type 0, BuildingBlock: XOMCOT_clean_sbu_1, # of connection points: 5
#     Node 8, Type 0, BuildingBlock: XOMCOT_clean_sbu_1, # of connection points: 5
#     Node 9, Type 0, BuildingBlock: XOMCOT_clean_sbu_1, # of connection points: 5
#     Node 10, Type 0, BuildingBlock: XOMCOT_clean_sbu_1, # of connection points: 5
#     Node 11, Type 0, BuildingBlock: XOMCOT_clean_sbu_1, # of connection points: 5
#     Edge 12, Type (0, 0), BuildingBlock: UVAHIK_clean_linker_0, # of connection points: 2
#     Edge 13, Type (0, 0), BuildingBlock: UVAHIK_clean_linker_0, # of connection points: 2
#     Edge 14, Type (0, 0), BuildingBlock: UVAHIK_clean_linker_0, # of connection points: 2
#     Edge 15, Type (0, 0), BuildingBlock: UVAHIK_clean_linker_0, # of connection points: 2
#     Edge 16, Type (0, 0), BuildingBlock: UVAHIK_clean_linker_0, # of connection points: 2
#     Edge 17, Type (0, 0), BuildingBlock: UVAHIK_clean_linker_0, # of connection points: 2
#     Edge 18, Type (0, 0), BuildingBlock: UVAHIK_clean_linker_0, # of connection points: 2
#     Edge 19, Type (0, 0), BuildingBlock: UVAHIK_clean_linker_0, # of connection points: 2
#     Edge 20, Type (0, 0), BuildingBlock: UVAHIK_clean_linker_0, # of connection points: 2
#     Edge 21, Type (0, 0), BuildingBlock: UVAHIK_clean_linker_0, # of connection points: 2
#     Edge 22, Type (0, 0), BuildingBlock: UVAHIK_clean_linker_0, # of connection points: 2
#     Edge 23, Type (0, 0), BuildingBlock: UVAHIK_clean_linker_0, # of connection points: 2
#     Edge 24, Type (0, 0), BuildingBlock: UVAHIK_clean_linker_0, # of connection points: 2
#     Edge 25, Type (0, 0), BuildingBlock: UVAHIK_clean_linker_0, # of connection points: 2
#     Edge 26, Type (0, 0), BuildingBlock: UVAHIK_clean_linker_0, # of connection points: 2
#     Edge 27, Type (0, 0), BuildingBlock: UVAHIK_clean_linker_0, # of connection points: 2
#     Edge 28, Type (0, 0), BuildingBlock: UVAHIK_clean_linker_0, # of connection points: 2
#     Edge 29, Type (0, 0), BuildingBlock: UVAHIK_clean_linker_0, # of connection points: 2
#     Edge 30, Type (0, 0), BuildingBlock: UVAHIK_clean_linker_0, # of connection points: 2
#     Edge 31, Type (0, 0), BuildingBlock: UVAHIK_clean_linker_0, # of connection points: 2
#     Edge 32, Type (0, 0), BuildingBlock: UVAHIK_clean_linker_0, # of connection points: 2
#     Edge 33, Type (0, 0), BuildingBlock: UVAHIK_clean_linker_0, # of connection points: 2
#     Edge 34, Type (0, 0), BuildingBlock: UVAHIK_clean_linker_0, # of connection points: 2
#     Edge 35, Type (0, 0), BuildingBlock: UVAHIK_clean_linker_0, # of connection points: 2
#     Edge 36, Type (0, 0), BuildingBlock: UVAHIK_clean_linker_0, # of connection points: 2
#     Edge 37, Type (0, 0), BuildingBlock: UVAHIK_clean_linker_0, # of connection points: 2
#     Edge 38, Type (0, 0), BuildingBlock: UVAHIK_clean_linker_0, # of connection points: 2
#     Edge 39, Type (0, 0), BuildingBlock: UVAHIK_clean_linker_0, # of connection points: 2
#     Edge 40, Type (0, 0), BuildingBlock: UVAHIK_clean_linker_0, # of connection points: 2
#     Edge 41, Type (0, 0), BuildingBlock: UVAHIK_clean_linker_0, # of connection points: 2
# Relax obj value: 0.677
# Max RMSD: 0.277
# Mean RMSD: 0.277
data_MOF--net-wjm--node1-XOMCOT_clean_sbu_1--edge1-UVAHIK_clean_linker_0
_symmetry_space_group_name_H-M    P1
_symmetry_Int_Tables_number       1
_symmetry_cell_setting            triclinic
loop_
_symmetry_equiv_pos_as_xyz
'x, y, z'
_cell_length_a     42.403131
_cell_length_b     42.405314
_cell_length_c     52.276181
_cell_angle_alpha  89.88505
_cell_angle_beta   90.022415
_cell_angle_gamma 119.98482
loop_
_atom_site_label
_atom_site_type_symbol
_atom_site_fract_x
_atom_site_fract_y
_atom_site_fract_z
_atom_type_partial_charge
C0 C 0.28407 0.50505 0.20482 0.0
C1 C 0.30695 0.53201 0.22134 0.0
N2 N 0.31176 0.516 0.24205 0.0
N3 N 0.27486 0.47235 0.21505 0.0
C4 C 0.29188 0.47989 0.23787 0.0
H5 H 0.27616 0.509 0.18594 0.0
Co6 Co 0.25066 0.42946 0.19688 0.0
C7 C 0.24646 0.37011 0.23068 0.0
O8 O 0.24806 0.35369 0.20986 0.0
N9 N 0.22547 0.38652 0.17698 0.0
C10 C 0.18002 0.33694 0.15891 0.0
C11 C 0.19121 0.35857 0.18052 0.0
C12 C 0.23439 0.38095 0.15325 0.0
N13 N 0.20722 0.35152 0.14164 0.0
O14 O 0.20598 0.42988 0.20319 0.0
H15 H 0.17462 0.35538 0.1971 0.0
H16 H 0.2597 0.39894 0.14388 0.0
O17 O 0.24613 0.40023 0.2286 0.0
C18 C 0.19896 0.44274 0.18316 0.0
O19 O 0.2161 0.44408 0.16189 0.0
N20 N 0.29605 0.43505 0.18863 0.0
C21 C 0.37013 0.4793 0.17958 0.0
C22 C 0.35795 0.45654 0.20111 0.0
C23 C 0.32058 0.43441 0.20534 0.0
C24 C 0.30786 0.45556 0.1669 0.0
C25 C 0.34473 0.47713 0.16165 0.0
H26 H 0.31223 0.42101 0.22359 0.0
H27 H 0.28866 0.45868 0.15508 0.0
H28 H 0.29202 0.45964 0.25034 0.0
H29 H 0.31996 0.56107 0.21807 0.0
H30 H 0.15315 0.3139 0.15554 0.0
H31 H 0.377 0.45822 0.2156 0.0
H32 H 0.35312 0.49517 0.14522 0.0
C33 C 0.87383 0.30358 0.52532 0.0
C34 C 0.87579 0.32995 0.54156 0.0
N35 N 0.86017 0.3139 0.56391 0.0
N36 N 0.8576 0.27126 0.5376 0.0
C37 C 0.84922 0.27829 0.56097 0.0
H38 H 0.88328 0.30752 0.50573 0.0
Co39 Co 0.84686 0.22699 0.52352 0.0
C40 C 0.87953 0.20039 0.56249 0.0
O41 O 0.89304 0.19075 0.5434 0.0
N42 N 0.83392 0.18231 0.50776 0.0
C43 C 0.81909 0.12726 0.49286 0.0
C44 C 0.82866 0.14914 0.51438 0.0
C45 C 0.82429 0.17859 0.4829 0.0
N46 N 0.81629 0.14614 0.47315 0.0
O47 O 0.79553 0.2083 0.53115 0.0
H48 H 0.83102 0.14084 0.5335 0.0
H49 H 0.82468 0.20025 0.47168 0.0
O50 O 0.85721 0.21186 0.55756 0.0
C51 C 0.78189 0.21909 0.51369 0.0
O52 O 0.8038 0.24032 0.49562 0.0
N53 N 0.89705 0.24741 0.51406 0.0
C54 C 0.9698 0.28883 0.4984 0.0
C55 C 0.96001 0.28848 0.52405 0.0
C56 C 0.92368 0.26814 0.53135 0.0
C57 C 0.90646 0.24655 0.48916 0.0
C58 C 0.94263 0.26644 0.48106 0.0
H59 H 0.9168 0.27111 0.55075 0.0
H60 H 0.88617 0.23274 0.47475 0.0
H61 H 0.83512 0.25763 0.57544 0.0
H62 H 0.88678 0.35847 0.53701 0.0
H63 H 0.8143 0.09972 0.49182 0.0
H64 H 0.97964 0.3063 0.53805 0.0
H65 H 0.94884 0.26622 0.46099 0.0
C66 C 0.50044 0.77729 0.88211 0.0
C67 C 0.47615 0.77782 0.89922 0.0
N68 N 0.49405 0.80779 0.91387 0.0
N69 N 0.53355 0.80657 0.8861 0.0
C70 C 0.52877 0.82483 0.9054 0.0
H71 H 0.49427 0.75707 0.86746 0.0
Co72 Co 0.57461 0.81838 0.86687 0.0
C73 C 0.63889 0.87306 0.89891 0.0
O74 O 0.66027 0.88346 0.87878 0.0
N75 N 0.61545 0.82936 0.84624 0.0
C76 C 0.66164 0.82781 0.82703 0.0
C77 C 0.64194 0.8208 0.84947 0.0
C78 C 0.6194 0.8409 0.82174 0.0
N79 N 0.64697 0.84009 0.80956 0.0
O80 O 0.57121 0.77324 0.87819 0.0
H81 H 0.64555 0.80859 0.86659 0.0
H82 H 0.60116 0.84802 0.81235 0.0
O83 O 0.60567 0.84738 0.8966 0.0
C84 C 0.55795 0.75025 0.85981 0.0
O85 O 0.55649 0.76247 0.83697 0.0
N86 N 0.57256 0.85804 0.85354 0.0
C87 C 0.5562 0.90446 0.82624 0.0
C88 C 0.5844 0.91842 0.84442 0.0
C89 C 0.59216 0.89461 0.85804 0.0
C90 C 0.54503 0.84424 0.83613 0.0
C91 C 0.53639 0.86679 0.82233 0.0
H92 H 0.61354 0.90584 0.87204 0.0
H93 H 0.52981 0.81519 0.83282 0.0
H94 H 0.55005 0.85067 0.91257 0.0
H95 H 0.44761 0.75753 0.90086 0.0
H96 H 0.68335 0.82201 0.82336 0.0
H97 H 0.60018 0.94737 0.84815 0.0
H98 H 0.51367 0.85452 0.80916 0.0
C99 C 0.70364 0.58243 0.19098 0.0
C100 C 0.67603 0.55796 0.20652 0.0
N101 N 0.69063 0.55644 0.22909 0.0
N102 N 0.73538 0.5965 0.20382 0.0
C103 C 0.72672 0.5799 0.22681 0.0
H104 H 0.70085 0.58975 0.17162 0.0
Co105 Co 0.78078 0.63012 0.19117 0.0
C106 C 0.8082 0.68432 0.23389 0.0
O107 O 0.8204 0.71058 0.2168 0.0
N108 N 0.82641 0.66202 0.17682 0.0
C109 C 0.88319 0.7002 0.16363 0.0
C110 C 0.86002 0.68777 0.18456 0.0
C111 C 0.83074 0.65764 0.1518 0.0
N112 N 0.8644 0.68078 0.14315 0.0
O113 O 0.79718 0.59516 0.19666 0.0
H114 H 0.86792 0.69628 0.20409 0.0
H115 H 0.80902 0.63795 0.13981 0.0
O116 O 0.7952 0.65125 0.22635 0.0
C117 C 0.78594 0.57206 0.17836 0.0
O118 O 0.76544 0.5749 0.16069 0.0
N119 N 0.76284 0.66257 0.18382 0.0
C120 C 0.7231 0.69665 0.1705 0.0
C121 C 0.72301 0.6852 0.19567 0.0
C122 C 0.74243 0.6678 0.20177 0.0
C123 C 0.76457 0.67517 0.15947 0.0
C124 C 0.74537 0.69272 0.15252 0.0
H125 H 0.73852 0.65594 0.22058 0.0
H126 H 0.7784 0.66947 0.14457 0.0
H127 H 0.74668 0.58446 0.24137 0.0
H128 H 0.64744 0.54281 0.20161 0.0
H129 H 0.91167 0.72099 0.1636 0.0
H130 H 0.70523 0.68625 0.21009 0.0
H131 H 0.74586 0.70069 0.13276 0.0
C132 C 0.21226 0.71593 0.53475 0.0
C133 C 0.21558 0.69189 0.5506 0.0
N134 N 0.19506 0.68669 0.57158 0.0
N135 N 0.18984 0.72592 0.54566 0.0
C136 C 0.17989 0.70782 0.56811 0.0
H137 H 0.22458 0.72487 0.51608 0.0
Co138 Co 0.17546 0.75541 0.52939 0.0
C139 C 0.12105 0.76013 0.56341 0.0
O140 O 0.10532 0.76308 0.54262 0.0
N141 N 0.16219 0.7861 0.51153 0.0
C142 C 0.16422 0.83651 0.49675 0.0
C143 C 0.17366 0.82146 0.51668 0.0
C144 C 0.14521 0.78031 0.48864 0.0
N145 N 0.14623 0.81039 0.47919 0.0
O146 O 0.22167 0.7965 0.53902 0.0
H147 H 0.18956 0.83593 0.53325 0.0
H148 H 0.13417 0.7553 0.47799 0.0
O149 O 0.1501 0.75784 0.56132 0.0
C150 C 0.24374 0.80592 0.5201 0.0
O151 O 0.22999 0.7947 0.49717 0.0
N152 N 0.13424 0.71328 0.51811 0.0
C153 C 0.10396 0.64034 0.50555 0.0
C154 C 0.09281 0.65055 0.52772 0.0
C155 C 0.10826 0.68741 0.5337 0.0
C156 C 0.1427 0.70359 0.49537 0.0
C157 C 0.12724 0.66724 0.48842 0.0
H158 H 0.10305 0.69402 0.55251 0.0
H159 H 0.16531 0.72378 0.48422 0.0
H160 H 0.16141 0.70958 0.58143 0.0
H161 H 0.23091 0.67836 0.54652 0.0
H162 H 0.17122 0.8647 0.49486 0.0
H163 H 0.07527 0.63025 0.54153 0.0
H164 H 0.13713 0.66028 0.47145 0.0
C165 C 0.43912 0.1489 0.85297 0.0
C166 C 0.46298 0.14381 0.86779 0.0
N167 N 0.45619 0.14703 0.89256 0.0
N168 N 0.41725 0.15508 0.86832 0.0
C169 C 0.4285 0.15416 0.89229 0.0
H170 H 0.43741 0.14773 0.83232 0.0
Co171 Co 0.37985 0.16258 0.8572 0.0
C172 C 0.32284 0.11535 0.8954 0.0
O173 O 0.30061 0.09961 0.87608 0.0
N174 N 0.34366 0.17231 0.84474 0.0
C175 C 0.29553 0.1769 0.83276 0.0
C176 C 0.31068 0.16665 0.85226 0.0
C177 C 0.34886 0.18868 0.82172 0.0
N178 N 0.31989 0.19078 0.81359 0.0
O179 O 0.40776 0.21294 0.86884 0.0
H180 H 0.29789 0.1555 0.87044 0.0
H181 H 0.37243 0.19599 0.80988 0.0
O182 O 0.35434 0.14333 0.89106 0.0
C183 C 0.43039 0.22987 0.85068 0.0
O184 O 0.43046 0.21069 0.831 0.0
N185 N 0.35595 0.11469 0.8428 0.0
C186 C 0.34767 0.05446 0.81551 0.0
C187 C 0.35197 0.0561 0.84217 0.0
C188 C 0.35602 0.0864 0.85545 0.0
C189 C 0.34771 0.11129 0.81731 0.0
C190 C 0.34252 0.08104 0.8035 0.0
H191 H 0.36335 0.0888 0.87544 0.0
H192 H 0.3488 0.13328 0.80652 0.0
H193 H 0.41613 0.15793 0.90922 0.0
H194 H 0.48389 0.1385 0.8608 0.0
H195 H 0.26857 0.17374 0.83248 0.0
H196 H 0.35644 0.03644 0.85239 0.0
H197 H 0.33851 0.08056 0.78301 0.0
C198 C 0.58347 0.70193 0.48813 0.0
C199 C 0.559 0.67486 0.47228 0.0
N200 N 0.55559 0.69066 0.4509 0.0
N201 N 0.59585 0.73442 0.47645 0.0
C202 C 0.57803 0.72672 0.45396 0.0
H203 H 0.59171 0.69828 0.50698 0.0
Co204 Co 0.62836 0.77983 0.4896 0.0
C205 C 0.68346 0.80866 0.44732 0.0
O206 O 0.70945 0.82113 0.46457 0.0
N207 N 0.65902 0.82538 0.50443 0.0
C208 C 0.69665 0.88156 0.5188 0.0
C209 C 0.68531 0.85921 0.49747 0.0
C210 C 0.65321 0.82882 0.52934 0.0
N211 N 0.67599 0.86207 0.53871 0.0
O212 O 0.59268 0.79522 0.48367 0.0
H213 H 0.69514 0.86778 0.47822 0.0
H214 H 0.63311 0.80658 0.54082 0.0
O215 O 0.65022 0.79512 0.45465 0.0
C216 C 0.56894 0.78322 0.50161 0.0
O217 O 0.57154 0.7625 0.51925 0.0
N218 N 0.66163 0.76296 0.4973 0.0
C219 C 0.69746 0.72505 0.5111 0.0
C220 C 0.68614 0.72459 0.48584 0.0
C221 C 0.66795 0.74316 0.47949 0.0
C222 C 0.67414 0.76513 0.52172 0.0
C223 C 0.69261 0.74693 0.52888 0.0
H224 H 0.65632 0.73899 0.4606 0.0
H225 H 0.66776 0.77856 0.53651 0.0
H226 H 0.58142 0.7472 0.44011 0.0
H227 H 0.54418 0.64596 0.47638 0.0
H228 H 0.71774 0.9099 0.51953 0.0
H229 H 0.68793 0.70712 0.47153 0.0
H230 H 0.70055 0.74781 0.54868 0.0
C231 C 0.7772 0.5063 0.80689 0.0
C232 C 0.77208 0.47949 0.78989 0.0
N233 N 0.79541 0.49513 0.77022 0.0
N234 N 0.80348 0.53867 0.79796 0.0
C235 C 0.8139 0.53108 0.77555 0.0
H236 H 0.76378 0.50232 0.82517 0.0
Co237 Co 0.8228 0.58125 0.81657 0.0
C238 C 0.87954 0.64037 0.78367 0.0
O239 O 0.89746 0.65565 0.80478 0.0
N240 N 0.8412 0.62394 0.83677 0.0
C241 C 0.84647 0.67391 0.85498 0.0
C242 C 0.83629 0.65277 0.83314 0.0
C243 C 0.85462 0.62849 0.86077 0.0
N244 N 0.8575 0.65812 0.87245 0.0
O245 O 0.77837 0.58214 0.81008 0.0
H246 H 0.82385 0.65685 0.81634 0.0
H247 H 0.86032 0.60944 0.87036 0.0
O248 O 0.84851 0.61081 0.78521 0.0
C249 C 0.75812 0.56979 0.82999 0.0
O250 O 0.77356 0.56899 0.8516 0.0
N251 N 0.86171 0.57433 0.82503 0.0
C252 C 0.89103 0.52978 0.83477 0.0
C253 C 0.90234 0.55276 0.81335 0.0
C254 C 0.88731 0.57501 0.80875 0.0
C255 C 0.85205 0.55336 0.84657 0.0
C256 C 0.86709 0.53166 0.85219 0.0
H257 H 0.89304 0.58867 0.79056 0.0
H258 H 0.82937 0.55021 0.85796 0.0
H259 H 0.83551 0.55133 0.76384 0.0
H260 H 0.7539 0.45059 0.79251 0.0
H261 H 0.84321 0.69729 0.85841 0.0
H262 H 0.92019 0.55122 0.79921 0.0
H263 H 0.85683 0.51339 0.86847 0.0
C264 C 0.30129 0.85439 0.17022 0.0
C265 C 0.32844 0.85607 0.15493 0.0
N266 N 0.31804 0.85401 0.13033 0.0
N267 N 0.27408 0.85165 0.15531 0.0
C268 C 0.28486 0.8511 0.13114 0.0
H269 H 0.30136 0.85536 0.1909 0.0
Co270 Co 0.23126 0.8486 0.16701 0.0
C271 C 0.22759 0.9013 0.13045 0.0
O272 O 0.22446 0.91845 0.15034 0.0
N273 N 0.18715 0.84326 0.17987 0.0
C274 C 0.13659 0.84361 0.19121 0.0
C275 C 0.16207 0.85201 0.17203 0.0
C276 C 0.17451 0.82714 0.20282 0.0
N277 N 0.14478 0.82811 0.21066 0.0
O278 O 0.20453 0.79893 0.15416 0.0
H279 H 0.16205 0.86397 0.15381 0.0
H280 H 0.18881 0.81745 0.21465 0.0
O281 O 0.22744 0.87115 0.13388 0.0
C282 C 0.20787 0.77972 0.1718 0.0
O283 O 0.227 0.79678 0.19213 0.0
N284 N 0.25947 0.89543 0.18255 0.0
C285 C 0.31647 0.94938 0.21111 0.0
C286 C 0.31835 0.94959 0.18431 0.0
C287 C 0.28951 0.9224 0.17037 0.0
C288 C 0.2558 0.89778 0.20835 0.0
C289 C 0.28353 0.92498 0.22284 0.0
H290 H 0.29351 0.92062 0.15013 0.0
H291 H 0.23357 0.87664 0.21875 0.0
H292 H 0.26884 0.84907 0.11446 0.0
H293 H 0.35361 0.85809 0.16146 0.0
H294 H 0.11426 0.84911 0.19103 0.0
H295 H 0.34336 0.96775 0.17433 0.0
H296 H 0.28069 0.92426 0.24346 0.0
C297 C 0.50152 0.28954 0.47709 0.0
C298 C 0.52821 0.31255 0.46039 0.0
N299 N 0.51204 0.31951 0.44074 0.0
N300 N 0.46879 0.28213 0.46798 0.0
C301 C 0.47604 0.3006 0.44573 0.0
H302 H 0.50573 0.27994 0.49524 0.0
Co303 Co 0.42624 0.25719 0.48656 0.0
C304 C 0.36598 0.25301 0.45376 0.0
O305 O 0.34906 0.25287 0.47483 0.0
N306 N 0.38363 0.23127 0.50688 0.0
C307 C 0.33578 0.18503 0.52603 0.0
C308 C 0.35668 0.1964 0.50404 0.0
C309 C 0.37793 0.24045 0.53049 0.0
N310 N 0.34965 0.21279 0.54284 0.0
O311 O 0.42676 0.21292 0.47889 0.0
H312 H 0.35389 0.17952 0.48775 0.0
H313 H 0.39513 0.26647 0.53919 0.0
O314 O 0.39656 0.25357 0.45541 0.0
C315 C 0.43936 0.204 0.49815 0.0
O316 O 0.43977 0.21847 0.52044 0.0
N317 N 0.43181 0.30214 0.49589 0.0
C318 C 0.47704 0.37585 0.50524 0.0
C319 C 0.45325 0.36434 0.4843 0.0
C320 C 0.43052 0.3271 0.47995 0.0
C321 C 0.45314 0.31329 0.51721 0.0
C322 C 0.47526 0.35 0.52263 0.0
H323 H 0.41608 0.31916 0.46207 0.0
H324 H 0.45629 0.29361 0.52848 0.0
H325 H 0.45569 0.30213 0.43422 0.0
H326 H 0.55724 0.32385 0.46277 0.0
H327 H 0.31391 0.15769 0.52996 0.0
H328 H 0.45456 0.38378 0.47025 0.0
H329 H 0.49399 0.35789 0.5386 0.0
C330 C 0.12571 0.42565 0.82185 0.0
C331 C 0.12393 0.45017 0.80554 0.0
N332 N 0.13894 0.44924 0.78304 0.0
N333 N 0.14131 0.40902 0.80954 0.0
C334 C 0.14945 0.42421 0.78604 0.0
H335 H 0.11639 0.42027 0.84148 0.0
Co336 Co 0.15082 0.3745 0.82366 0.0
C337 C 0.11929 0.31645 0.784 0.0
O338 O 0.10556 0.29281 0.80284 0.0
N339 N 0.16253 0.34172 0.8394 0.0
C340 C 0.18 0.3026 0.85247 0.0
C341 C 0.16992 0.31567 0.8316 0.0
C342 C 0.17108 0.34573 0.8645 0.0
N343 N 0.18079 0.32189 0.87307 0.0
O344 O 0.20246 0.4067 0.81724 0.0
H345 H 0.16954 0.30747 0.812 0.0
H346 H 0.17009 0.36598 0.87649 0.0
O347 O 0.14153 0.35009 0.78932 0.0
C348 C 0.21535 0.42991 0.83545 0.0
O349 O 0.19255 0.42842 0.85308 0.0
N350 N 0.10024 0.34503 0.83195 0.0
C351 C 0.02674 0.31323 0.8457 0.0
C352 C 0.03791 0.32377 0.82038 0.0
C353 C 0.07458 0.34003 0.81404 0.0
C354 C 0.08957 0.33389 0.85657 0.0
C355 C 0.05298 0.31742 0.86374 0.0
H356 H 0.08249 0.35068 0.79488 0.0
H357 H 0.10916 0.33974 0.87142 0.0
H358 H 0.16281 0.417 0.77145 0.0
H359 H 0.11322 0.46792 0.8101 0.0
H360 H 0.18744 0.28161 0.85237 0.0
H361 H 0.01906 0.32253 0.8059 0.0
H362 H 0.04568 0.31026 0.88362 0.0
C363 C 0.71946 0.21574 0.13358 0.0
C364 C 0.69221 0.21291 0.11789 0.0
N365 N 0.68008 0.18248 0.10375 0.0
N366 N 0.7248 0.18746 0.12918 0.0
C367 C 0.7002 0.16745 0.1111 0.0
H368 H 0.73418 0.23689 0.14752 0.0
Co369 Co 0.75777 0.17889 0.14664 0.0
C370 C 0.77185 0.12954 0.11144 0.0
O371 O 0.78902 0.12263 0.12953 0.0
N372 N 0.79131 0.17127 0.16565 0.0
C373 C 0.84205 0.17836 0.18394 0.0
C374 C 0.827 0.18293 0.1617 0.0
C375 C 0.78572 0.16048 0.19036 0.0
N376 N 0.81587 0.16459 0.20196 0.0
O377 O 0.79633 0.22572 0.13465 0.0
H378 H 0.84164 0.19598 0.14434 0.0
H379 H 0.76056 0.15208 0.20044 0.0
O380 O 0.76015 0.15168 0.11597 0.0
C381 C 0.80577 0.24859 0.15308 0.0
O382 O 0.79372 0.23595 0.17615 0.0
N383 N 0.71911 0.13696 0.16069 0.0
C384 C 0.6637 0.08548 0.19138 0.0
C385 C 0.67979 0.07454 0.17253 0.0
C386 C 0.70786 0.10092 0.15735 0.0
C387 C 0.70292 0.14769 0.17842 0.0
C388 C 0.67534 0.12253 0.19397 0.0
H389 H 0.72051 0.09212 0.14349 0.0
H390 H 0.71254 0.17637 0.18109 0.0
H391 H 0.69644 0.14188 0.104 0.0
H392 H 0.68245 0.23208 0.1168 0.0
H393 H 0.87048 0.18712 0.18715 0.0
H394 H 0.67111 0.04603 0.16981 0.0
H395 H 0.66299 0.13212 0.20777 0.0
C396 C 0.68089 0.72068 0.17927 0.0
C397 C 0.69367 0.70376 0.1624 0.0
C398 C 0.64492 0.71318 0.17764 0.0
C399 C 0.55697 0.65654 0.14328 0.0
H400 H 0.52627 0.60985 0.20962 0.0
C401 C 0.42775 0.51789 0.15548 0.0
C402 C 0.40761 0.5103 0.17817 0.0
C403 C 0.46091 0.55025 0.15294 0.0
C404 C 0.53391 0.62318 0.19114 0.0
H405 H 0.68115 0.67175 0.12763 0.0
H406 H 0.61917 0.65919 0.12466 0.0
H407 H 0.58796 0.65916 0.20392 0.0
H408 H 0.40555 0.53057 0.21579 0.0
H409 H 0.46321 0.58726 0.21135 0.0
H410 H 0.50302 0.61927 0.13033 0.0
C411 C 0.63638 0.67771 0.13942 0.0
C412 C 0.5694 0.65176 0.18789 0.0
C413 C 0.67221 0.68499 0.14113 0.0
C414 C 0.42118 0.5354 0.19836 0.0
C415 C 0.45405 0.56798 0.19571 0.0
C416 C 0.52124 0.62808 0.1466 0.0
C417 C 0.62154 0.68897 0.15898 0.0
C418 C 0.58181 0.66765 0.16367 0.0
C419 C 0.47423 0.57592 0.1729 0.0
C420 C 0.50984 0.61001 0.1703 0.0
H421 H 0.69726 0.73623 0.19542 0.0
H422 H 0.63435 0.723 0.1926 0.0
H423 H 0.56575 0.66845 0.12445 0.0
H424 H 0.41755 0.49901 0.1396 0.0
H425 H 0.47614 0.55503 0.13535 0.0
C426 C 0.00709 0.33933 0.46808 0.0
C427 C 0.00572 0.31834 0.48936 0.0
C428 C 0.03582 0.37488 0.4653 0.0
C429 C 0.08106 0.443 0.51222 0.0
H430 H 0.11072 0.50771 0.45363 0.0
C431 C 0.11221 0.59044 0.52271 0.0
C432 C 0.09902 0.60355 0.50321 0.0
C433 C 0.11265 0.55806 0.51951 0.0
C434 C 0.10251 0.48997 0.47019 0.0
H435 H 0.03677 0.31525 0.52124 0.0
H436 H 0.08679 0.37772 0.51659 0.0
H437 H 0.09648 0.4447 0.44811 0.0
H438 H 0.07628 0.59369 0.46508 0.0
H439 H 0.07475 0.53563 0.45995 0.0
H440 H 0.08393 0.4867 0.53399 0.0
C441 C 0.06527 0.36696 0.50243 0.0
C442 C 0.09487 0.45409 0.46706 0.0
C443 C 0.03657 0.33127 0.50514 0.0
C444 C 0.08605 0.58369 0.48048 0.0
C445 C 0.08586 0.55087 0.47743 0.0
C446 C 0.08829 0.47859 0.5153 0.0
C447 C 0.06345 0.38997 0.48383 0.0
C448 C 0.0826 0.42984 0.48788 0.0
C449 C 0.09939 0.53777 0.49686 0.0
C450 C 0.09768 0.50208 0.49414 0.0
H451 H 0.98398 0.33029 0.45539 0.0
H452 H 0.03368 0.39179 0.45064 0.0
H453 H 0.07104 0.42492 0.52861 0.0
H454 H 0.12349 0.60599 0.54008 0.0
H455 H 0.12388 0.54923 0.53468 0.0
C456 C 0.38181 0.04718 0.77931 0.0
C457 C 0.35792 0.03148 0.80019 0.0
C458 C 0.4014 0.03139 0.76991 0.0
C459 C 0.46294 0.01722 0.78095 0.0
H460 H 0.43705 0.91584 0.77712 0.0
C461 C 0.5422 0.95522 0.82612 0.0
C462 C 0.54481 0.92792 0.81276 0.0
C463 C 0.5237 0.9715 0.81537 0.0
C464 C 0.44472 0.94433 0.7776 0.0
H465 H 0.33196 0.98414 0.82496 0.0
H466 H 0.36681 0.95684 0.8088 0.0
H467 H 0.38953 0.93226 0.77284 0.0
H468 H 0.5339 0.89941 0.77649 0.0
H469 H 0.50026 0.92691 0.75822 0.0
H470 H 0.51761 0.02901 0.78769 0.0
C471 C 0.37038 0.98145 0.79979 0.0
C472 C 0.41756 0.95364 0.77529 0.0
C473 C 0.35066 0.99725 0.80921 0.0
C474 C 0.53144 0.91965 0.78755 0.0
C475 C 0.51239 0.93545 0.777 0.0
C476 C 0.48994 0.00787 0.78365 0.0
C477 C 0.39755 0.99966 0.7812 0.0
C478 C 0.42631 0.99006 0.77775 0.0
C479 C 0.50727 0.96048 0.79122 0.0
C480 C 0.48083 0.97127 0.78281 0.0
H481 H 0.38836 0.0736 0.77183 0.0
H482 H 0.42187 0.04567 0.75533 0.0
H483 H 0.47043 0.0455 0.78328 0.0
H484 H 0.55197 0.96209 0.84559 0.0
H485 H 0.51987 0.99065 0.82675 0.0
C486 C 0.72234 0.68342 0.50273 0.0
C487 C 0.70531 0.69621 0.51952 0.0
C488 C 0.71513 0.64756 0.50465 0.0
C489 C 0.65826 0.55984 0.53946 0.0
H490 H 0.6101 0.52975 0.47366 0.0
C491 C 0.51746 0.43316 0.52895 0.0
C492 C 0.50868 0.41293 0.50628 0.0
C493 C 0.5505 0.46572 0.5311 0.0
C494 C 0.62382 0.53717 0.49198 0.0
H495 H 0.6738 0.68399 0.55459 0.0
H496 H 0.66182 0.62232 0.55807 0.0
H497 H 0.66054 0.59087 0.47885 0.0
H498 H 0.52752 0.40996 0.46832 0.0
H499 H 0.58541 0.46652 0.47209 0.0
H500 H 0.62023 0.50628 0.5528 0.0
C501 C 0.68011 0.63937 0.54311 0.0
C502 C 0.65307 0.57235 0.49493 0.0
C503 C 0.68705 0.67505 0.54108 0.0
C504 C 0.53329 0.42575 0.48573 0.0
C505 C 0.56655 0.45798 0.488 0.0
C506 C 0.62913 0.52441 0.53644 0.0
C507 C 0.69116 0.62435 0.52354 0.0
C508 C 0.66947 0.58463 0.519 0.0
C509 C 0.57568 0.47828 0.51078 0.0
C510 C 0.6105 0.51328 0.51296 0.0
H511 H 0.73763 0.69959 0.48639 0.0
H512 H 0.72482 0.63686 0.4897 0.0
H513 H 0.67056 0.56853 0.55818 0.0
H514 H 0.49898 0.42346 0.54511 0.0
H515 H 0.55619 0.48107 0.54869 0.0
C516 C 0.98755 0.3253 0.87482 0.0
C517 C 0.99026 0.30627 0.85372 0.0
C518 C 0.95874 0.33217 0.8765 0.0
C519 C 0.91743 0.35705 0.82781 0.0
H520 H 0.88316 0.3899 0.88493 0.0
C521 C 0.88637 0.47375 0.81629 0.0
C522 C 0.89751 0.49882 0.83647 0.0
C523 C 0.88649 0.44112 0.81917 0.0
C524 C 0.89269 0.381 0.86878 0.0
H525 H 0.96124 0.273 0.82102 0.0
H526 H 0.91113 0.28561 0.82375 0.0
H527 H 0.8967 0.34076 0.89122 0.0
H528 H 0.91789 0.51004 0.87527 0.0
H529 H 0.92028 0.45396 0.87992 0.0
H530 H 0.91651 0.3989 0.80583 0.0
C531 C 0.93167 0.29587 0.83862 0.0
C532 C 0.89991 0.35254 0.87233 0.0
C533 C 0.96041 0.28878 0.83701 0.0
C534 C 0.90953 0.49117 0.85939 0.0
C535 C 0.91021 0.45877 0.86216 0.0
C536 C 0.91061 0.38565 0.82434 0.0
C537 C 0.9324 0.32027 0.85706 0.0
C538 C 0.91379 0.34132 0.85211 0.0
C539 C 0.89822 0.43311 0.8422 0.0
C540 C 0.8996 0.39897 0.84502 0.0
H541 H 0.00985 0.33899 0.88819 0.0
H542 H 0.95997 0.35087 0.89109 0.0
H543 H 0.92872 0.34956 0.81192 0.0
H544 H 0.87598 0.47865 0.79867 0.0
H545 H 0.87663 0.42185 0.80352 0.0
C546 C 0.37978 1.00119 0.21899 0.0
C547 C 0.35045 0.96734 0.22641 0.0
C548 C 0.41464 0.01282 0.22859 0.0
C549 C 0.48698 0.0326 0.25388 0.0
H550 H 0.50626 0.95492 0.23618 0.0
C551 C 0.63104 0.06675 0.2332 0.0
C552 C 0.63298 0.05902 0.20729 0.0
C553 C 0.59798 0.04887 0.24627 0.0
C554 C 0.50127 0.97664 0.24176 0.0
H555 H 0.33419 0.92087 0.25168 0.0
H556 H 0.39468 0.94149 0.26847 0.0
H557 H 0.4436 0.94156 0.24113 0.0
H558 H 0.60335 0.02335 0.17577 0.0
H559 H 0.54565 0.99174 0.19864 0.0
H560 H 0.54457 0.06815 0.25267 0.0
C561 C 0.39077 0.95883 0.25513 0.0
C562 C 0.46545 0.96903 0.24475 0.0
C563 C 0.356 0.94726 0.24562 0.0
C564 C 0.60259 0.02985 0.1957 0.0
C565 C 0.56955 0.01175 0.20885 0.0
C566 C 0.52281 0.04013 0.25117 0.0
C567 C 0.42065 0.9907 0.24569 0.0
C568 C 0.45798 0.99728 0.24959 0.0
C569 C 0.56653 0.02271 0.23368 0.0
C570 C 0.53015 0.01252 0.24384 0.0
H571 H 0.37628 0.01742 0.20445 0.0
H572 H 0.43727 0.03752 0.22092 0.0
H573 H 0.48189 0.05476 0.25775 0.0
H574 H 0.65441 0.08865 0.24273 0.0
H575 H 0.59641 0.05739 0.26553 0.0
C576 C 0.18386 0.30618 0.10635 0.0
C577 C 0.20593 0.34215 0.11494 0.0
C578 C 0.18288 0.2977 0.08028 0.0
C579 C 0.235 0.33514 0.01975 0.0
H580 H 0.14251 0.27457 0.98605 0.0
C581 C 0.21036 0.34971 0.91384 0.0
C582 C 0.18938 0.31837 0.89916 0.0
C583 C 0.21496 0.347 0.94003 0.0
C584 C 0.16863 0.29099 0.99526 0.0
H585 H 0.24291 0.39757 0.10248 0.0
H586 H 0.24126 0.38296 0.05772 0.0
H587 H 0.14474 0.27995 0.03271 0.0
H588 H 0.15734 0.2596 0.90006 0.0
H589 H 0.16487 0.25471 0.94635 0.0
H590 H 0.25861 0.34755 0.98229 0.0
C591 C 0.22556 0.36097 0.07102 0.0
C592 C 0.16992 0.29407 0.02199 0.0
C593 C 0.22652 0.36938 0.09685 0.0
C594 C 0.17393 0.28407 0.91101 0.0
C595 C 0.17797 0.28135 0.93743 0.0
C596 C 0.23365 0.33227 0.99312 0.0
C597 C 0.20396 0.32505 0.06234 0.0
C598 C 0.20299 0.31712 0.03448 0.0
C599 C 0.19822 0.31288 0.95224 0.0
C600 C 0.20033 0.31101 0.98053 0.0
H601 H 0.16769 0.28461 0.11979 0.0
H602 H 0.16594 0.26973 0.07423 0.0
H603 H 0.26108 0.35239 0.02877 0.0
H604 H 0.22254 0.37643 0.90509 0.0
H605 H 0.23041 0.37181 0.95093 0.0
C606 C 0.84179 0.14831 0.23892 0.0
C607 C 0.81988 0.16171 0.2291 0.0
C608 C 0.84385 0.14417 0.26546 0.0
C609 C 0.82978 0.17845 0.32669 0.0
H610 H 0.81312 0.0876 0.35665 0.0
C611 C 0.79139 0.14894 0.43141 0.0
C612 C 0.81098 0.13714 0.44639 0.0
C613 C 0.79274 0.14815 0.4048 0.0
C614 C 0.81818 0.11323 0.34853 0.0
H615 H 0.78418 0.18258 0.23933 0.0
H616 H 0.78761 0.17535 0.28506 0.0
H617 H 0.81828 0.09571 0.30997 0.0
H618 H 0.84542 0.11298 0.44541 0.0
H619 H 0.84786 0.11148 0.39846 0.0
H620 H 0.82924 0.19601 0.36484 0.0
C621 C 0.80312 0.16784 0.27251 0.0
C622 C 0.82127 0.11792 0.32186 0.0
C623 C 0.80083 0.17162 0.24624 0.0
C624 C 0.82984 0.12195 0.43423 0.0
C625 C 0.83136 0.12128 0.40742 0.0
C626 C 0.82668 0.17379 0.35314 0.0
C627 C 0.82456 0.15405 0.2825 0.0
C628 C 0.82618 0.15029 0.31068 0.0
C629 C 0.81397 0.13575 0.39247 0.0
C630 C 0.81988 0.14083 0.36437 0.0
H631 H 0.85666 0.14043 0.22608 0.0
H632 H 0.86071 0.13361 0.27266 0.0
H633 H 0.83436 0.204 0.3187 0.0
H634 H 0.77633 0.16038 0.44037 0.0
H635 H 0.77821 0.15856 0.39383 0.0
C636 C 0.68997 0.85928 0.77288 0.0
C637 C 0.65447 0.84545 0.78249 0.0
C638 C 0.69669 0.86463 0.74646 0.0
C639 C 0.64943 0.83193 0.68485 0.0
H640 H 0.7259 0.92209 0.65567 0.0
C641 C 0.64616 0.86027 0.57921 0.0
C642 C 0.67832 0.87187 0.56522 0.0
C643 C 0.64689 0.8616 0.60584 0.0
C644 C 0.70466 0.89666 0.66358 0.0
H645 H 0.59818 0.82552 0.77179 0.0
H646 H 0.60983 0.83505 0.72629 0.0
H647 H 0.72113 0.91392 0.70235 0.0
H648 H 0.73678 0.89608 0.56783 0.0
H649 H 0.73826 0.89834 0.61486 0.0
H650 H 0.63267 0.81448 0.6465 0.0
C651 C 0.63255 0.84187 0.73899 0.0
C652 C 0.702 0.89195 0.69025 0.0
C653 C 0.62593 0.83682 0.76518 0.0
C654 C 0.7117 0.88733 0.57828 0.0
C655 C 0.71246 0.88844 0.60513 0.0
C656 C 0.65207 0.83659 0.6584 0.0
C657 C 0.6679 0.85566 0.72925 0.0
C658 C 0.6738 0.8598 0.70113 0.0
C659 C 0.67982 0.87417 0.61918 0.0
C660 C 0.67913 0.86929 0.64741 0.0
H661 H 0.71246 0.86627 0.7858 0.0
H662 H 0.7242 0.87518 0.73947 0.0
H663 H 0.62793 0.80651 0.69261 0.0
H664 H 0.62017 0.8485 0.56947 0.0
H665 H 0.62138 0.85135 0.61604 0.0
C666 C 0.8933 0.71803 0.10458 0.0
C667 C 0.8756 0.68398 0.11688 0.0
C668 C 0.89643 0.72007 0.0778 0.0
C669 C 0.84649 0.66388 0.02276 0.0
H670 H 0.92949 0.72975 0.98132 0.0
C671 C 0.85237 0.63715 0.91707 0.0
C672 C 0.86323 0.66587 0.89948 0.0
C673 C 0.85652 0.64382 0.94325 0.0
C674 C 0.90599 0.71159 0.99272 0.0
H675 H 0.85039 0.62584 0.11142 0.0
H676 H 0.85649 0.62924 0.06501 0.0
H677 H 0.93416 0.73315 0.02827 0.0
H678 H 0.88733 0.7243 0.89573 0.0
H679 H 0.89464 0.73611 0.9421 0.0
H680 H 0.81835 0.64196 0.98763 0.0
C681 C 0.86702 0.65433 0.07574 0.0
C682 C 0.90868 0.71346 0.01952 0.0
C683 C 0.86375 0.65233 0.10228 0.0
C684 C 0.87867 0.70166 0.90884 0.0
C685 C 0.88306 0.70841 0.93529 0.0
C686 C 0.84382 0.66203 0.9962 0.0
C687 C 0.88194 0.68806 0.06309 0.0
C688 C 0.8792 0.68888 0.03477 0.0
C689 C 0.87152 0.67939 0.95273 0.0
C690 C 0.87376 0.68515 0.98085 0.0
H691 H 0.90238 0.74275 0.1155 0.0
H692 H 0.90814 0.74645 0.06857 0.0
H693 H 0.8229 0.64531 0.03395 0.0
H694 H 0.83972 0.60918 0.91072 0.0
H695 H 0.84773 0.62091 0.95617 0.0
C696 C 0.15909 0.84501 0.43875 0.0
C697 C 0.13606 0.8144 0.4536 0.0
C698 C 0.15208 0.84619 0.41268 0.0
C699 C 0.10248 0.78323 0.359 0.0
H700 H 0.13608 0.87351 0.32168 0.0
C701 C 0.13358 0.79478 0.25143 0.0
C702 C 0.13055 0.82067 0.23642 0.0
C703 C 0.12663 0.79212 0.27767 0.0
C704 C 0.12587 0.8479 0.33175 0.0
H705 H 0.0864 0.76222 0.45338 0.0
H706 H 0.07308 0.76476 0.40825 0.0
H707 H 0.13752 0.87426 0.36821 0.0
H708 H 0.11549 0.86252 0.23706 0.0
H709 H 0.1021 0.8571 0.28288 0.0
H710 H 0.09018 0.75675 0.32264 0.0
C711 C 0.09739 0.78735 0.41631 0.0
C712 C 0.12727 0.84841 0.35854 0.0
C713 C 0.10477 0.78595 0.44224 0.0
C714 C 0.11796 0.8422 0.24804 0.0
C715 C 0.11082 0.83944 0.2744 0.0
C716 C 0.1007 0.78266 0.33228 0.0
C717 C 0.12153 0.81698 0.40093 0.0
C718 C 0.11639 0.81619 0.37255 0.0
C719 C 0.11607 0.81506 0.28971 0.0
C720 C 0.11326 0.81508 0.31822 0.0
H721 H 0.18364 0.86711 0.44695 0.0
H722 H 0.17164 0.86928 0.40155 0.0
H723 H 0.09419 0.75781 0.36889 0.0
H724 H 0.14276 0.77746 0.24301 0.0
H725 H 0.13136 0.77322 0.28868 0.0
C726 C 0.34444 0.2268 0.77437 0.0
C727 C 0.31488 0.1989 0.78765 0.0
C728 C 0.34344 0.2295 0.74782 0.0
C729 C 0.28609 0.19827 0.68959 0.0
H730 H 0.375 0.21033 0.65941 0.0
C731 C 0.307 0.18567 0.57969 0.0
C732 C 0.34124 0.21157 0.56982 0.0
C733 C 0.30008 0.18353 0.60613 0.0
C734 C 0.3501 0.20732 0.66744 0.0
H735 H 0.26007 0.15343 0.78382 0.0
H736 H 0.25817 0.15809 0.73707 0.0
H737 H 0.36917 0.20977 0.70557 0.0
H738 H 0.39494 0.25553 0.58058 0.0
H739 H 0.38257 0.25247 0.62573 0.0
H740 H 0.26724 0.19593 0.65105 0.0
C741 C 0.2821 0.178 0.74729 0.0
C742 C 0.34678 0.20706 0.69397 0.0
C743 C 0.28308 0.17541 0.77403 0.0
C744 C 0.36801 0.23558 0.58704 0.0
C745 C 0.36111 0.23347 0.61322 0.0
C746 C 0.28949 0.19865 0.66282 0.0
C747 C 0.31291 0.20416 0.73383 0.0
C748 C 0.31506 0.2032 0.70543 0.0
C749 C 0.32736 0.20708 0.62322 0.0
C750 C 0.32186 0.20385 0.65147 0.0
H751 H 0.36914 0.24538 0.78448 0.0
H752 H 0.3673 0.25054 0.7381 0.0
H753 H 0.26124 0.19505 0.69786 0.0
H754 H 0.28567 0.16692 0.56704 0.0
H755 H 0.27378 0.16282 0.61324 0.0
C756 C 0.3756 0.27686 0.40802 0.0
C757 C 0.35238 0.25968 0.429 0.0
C758 C 0.36334 0.28792 0.38656 0.0
C759 C 0.27916 0.27255 0.35284 0.0
H760 H 0.34078 0.36901 0.32462 0.0
C761 C 0.24559 0.32072 0.25774 0.0
C762 C 0.25264 0.35682 0.25573 0.0
C763 C 0.25619 0.30875 0.27939 0.0
C764 C 0.32308 0.34209 0.33237 0.0
H765 H 0.29745 0.2394 0.44308 0.0
H766 H 0.2761 0.25776 0.40581 0.0
H767 H 0.36307 0.34741 0.35997 0.0
H768 H 0.27574 0.40828 0.27577 0.0
H769 H 0.29459 0.38749 0.31358 0.0
H770 H 0.2392 0.26713 0.32533 0.0
C771 C 0.30387 0.26303 0.40587 0.0
C772 C 0.33607 0.32949 0.35246 0.0
C773 C 0.31621 0.2525 0.42737 0.0
C774 C 0.26969 0.38033 0.27655 0.0
C775 C 0.28085 0.36845 0.29816 0.0
C776 C 0.26636 0.28496 0.3326 0.0
C777 C 0.32735 0.28151 0.3853 0.0
C778 C 0.31425 0.29455 0.36308 0.0
C779 C 0.27466 0.33256 0.29975 0.0
C780 C 0.28805 0.31995 0.32204 0.0
H781 H 0.40358 0.28296 0.4085 0.0
H782 H 0.38213 0.30168 0.37098 0.0
H783 H 0.26157 0.24544 0.36033 0.0
H784 H 0.23261 0.30176 0.24215 0.0
H785 H 0.25108 0.28104 0.2797 0.0
C786 C 0.92393 0.19572 0.59162 0.0
C787 C 0.89874 0.20769 0.5877 0.0
C788 C 0.94738 0.20738 0.6127 0.0
C789 C 0.98671 0.27965 0.66345 0.0
H790 H 0.02211 0.2174 0.68934 0.0
C791 C 0.10255 0.33085 0.74042 0.0
C792 C 0.10019 0.30531 0.75871 0.0
C793 C 0.07918 0.31968 0.719 0.0
C794 C 0.0124 0.23525 0.68275 0.0
H795 H 0.87796 0.24074 0.60386 0.0
H796 H 0.91779 0.25984 0.64148 0.0
H797 H 0.9762 0.19509 0.65639 0.0
H798 H 0.07174 0.24775 0.76807 0.0
H799 H 0.03113 0.22873 0.73189 0.0
H800 H 0.02179 0.31911 0.69102 0.0
C801 C 0.92008 0.24207 0.62771 0.0
C802 C 0.9862 0.22252 0.66328 0.0
C803 C 0.89669 0.2306 0.60629 0.0
C804 C 0.07474 0.26835 0.75445 0.0
C805 C 0.05132 0.2573 0.73337 0.0
C806 C 0.01263 0.29223 0.68332 0.0
C807 C 0.9463 0.23109 0.63106 0.0
C808 C 0.973 0.2445 0.65304 0.0
C809 C 0.05268 0.28268 0.71533 0.0
C810 C 0.02597 0.27021 0.69336 0.0
H811 H 0.92668 0.1783 0.57776 0.0
H812 H 0.96734 0.19865 0.61392 0.0
H813 H 0.97784 0.2978 0.65605 0.0
H814 H 0.1215 0.35959 0.7431 0.0
H815 H 0.08172 0.34018 0.70547 0.0
C816 C 0.6286 0.8922 0.94291 0.0
C817 C 0.65196 0.89634 0.92242 0.0
C818 C 0.64094 0.91699 0.9635 0.0
C819 C 0.66847 0.98579 0.99718 0.0
H820 H 0.76833 0.02633 0.01982 0.0
C821 C 0.73637 0.10715 0.06974 0.0
C822 C 0.75999 0.10581 0.08811 0.0
C823 C 0.72285 0.082 0.04939 0.0
C824 C 0.74026 0.01522 0.01399 0.0
H825 H 0.70707 0.92982 0.90816 0.0
H826 H 0.72814 0.97244 0.9434 0.0
H827 H 0.74475 0.9801 0.98675 0.0
H828 H 0.78821 0.0769 0.09885 0.0
H829 H 0.76481 0.03361 0.06403 0.0
H830 H 0.66393 0.02052 0.02504 0.0
C831 C 0.70039 0.94999 0.94394 0.0
C832 C 0.72675 0.98883 0.99465 0.0
C833 C 0.68812 0.92541 0.9235 0.0
C834 C 0.77026 0.07915 0.08516 0.0
C835 C 0.75685 0.05418 0.06495 0.0
C836 C 0.68202 0.01228 0.01664 0.0
C837 C 0.67705 0.94646 0.96425 0.0
C838 C 0.69068 0.9737 0.98579 0.0
C839 C 0.73274 0.05493 0.04676 0.0
C840 C 0.71817 0.02741 0.02541 0.0
H841 H 0.60063 0.87021 0.94288 0.0
H842 H 0.62217 0.91294 0.97888 0.0
H843 H 0.64069 0.97522 0.9908 0.0
H844 H 0.72791 0.12729 0.07121 0.0
H845 H 0.70477 0.08393 0.03565 0.0
C846 C 0.66775 0.76725 0.40894 0.0
C847 C 0.6923 0.79955 0.42169 0.0
C848 C 0.67953 0.7539 0.38863 0.0
C849 C 0.76638 0.76417 0.36123 0.0
H850 H 0.70319 0.70309 0.307 0.0
C851 C 0.81887 0.72821 0.26938 0.0
C852 C 0.79906 0.69256 0.25971 0.0
C853 C 0.80614 0.73906 0.29045 0.0
C854 C 0.72109 0.71979 0.3222 0.0
H855 H 0.74772 0.84457 0.42154 0.0
H856 H 0.76759 0.82292 0.38539 0.0
H857 H 0.6797 0.72823 0.33883 0.0
H858 H 0.75064 0.63999 0.26545 0.0
H859 H 0.72814 0.65907 0.30207 0.0
H860 H 0.80804 0.75659 0.34399 0.0
C861 C 0.73967 0.80662 0.39174 0.0
C862 C 0.7076 0.73428 0.34056 0.0
C863 C 0.72809 0.81951 0.41229 0.0
C864 C 0.76689 0.66752 0.27249 0.0
C865 C 0.7537 0.67861 0.29329 0.0
C866 C 0.77994 0.75014 0.34269 0.0
C867 C 0.71607 0.77283 0.38018 0.0
C868 C 0.7301 0.75698 0.36035 0.0
C869 C 0.77282 0.71477 0.30222 0.0
C870 C 0.75758 0.72786 0.32285 0.0
H871 H 0.64007 0.75087 0.41578 0.0
H872 H 0.66032 0.72779 0.3805 0.0
H873 H 0.78452 0.78044 0.37644 0.0
H874 H 0.84358 0.74829 0.25993 0.0
H875 H 0.82155 0.76711 0.2967 0.0
C876 C 0.8928 0.63107 0.73767 0.0
C877 C 0.89965 0.654 0.7589 0.0
C878 C 0.91632 0.64305 0.71632 0.0
C879 C 0.98865 0.72698 0.684 0.0
H880 H 0.01876 0.6624 0.65445 0.0
C881 C 0.10432 0.73255 0.60807 0.0
C882 C 0.10049 0.75267 0.58806 0.0
C883 C 0.08053 0.72112 0.62927 0.0
C884 C 0.01089 0.68092 0.66259 0.0
H885 H 0.93592 0.70814 0.77357 0.0
H886 H 0.97603 0.72899 0.73658 0.0
H887 H 0.97412 0.64068 0.68928 0.0
H888 H 0.06928 0.7776 0.57542 0.0
H889 H 0.02869 0.75842 0.61215 0.0
H890 H 0.02547 0.76728 0.65756 0.0
C891 C 0.95273 0.70171 0.73629 0.0
C892 C 0.98484 0.66827 0.68237 0.0
C893 C 0.92962 0.68965 0.75763 0.0
C894 C 0.07323 0.76223 0.5904 0.0
C895 C 0.04986 0.75124 0.6116 0.0
C896 C 0.01439 0.73949 0.66414 0.0
C897 C 0.94694 0.67846 0.71547 0.0
C898 C 0.97341 0.69117 0.69347 0.0
C899 C 0.05266 0.72998 0.6312 0.0
C900 C 0.026 0.71672 0.6531 0.0
H901 H 0.87019 0.60344 0.73793 0.0
H902 H 0.91066 0.62446 0.70054 0.0
H903 H 0.98048 0.74543 0.69184 0.0
H904 H 0.12475 0.72446 0.60697 0.0
H905 H 0.08387 0.70516 0.6441 0.0
C906 C 0.25877 0.95967 0.10571 0.0
C907 C 0.23851 0.92131 0.1055 0.0
C908 C 0.2693 0.97979 0.08293 0.0
C909 C 0.24235 0.97911 0.01699 0.0
H910 H 0.34211 0.05552 1.00566 0.0
C911 C 0.28394 0.05955 0.92168 0.0
C912 C 0.31357 0.09542 0.92049 0.0
C913 C 0.27581 0.03869 0.94403 0.0
C914 C 0.31395 0.03484 0.00855 0.0
H915 H 0.2138 0.87412 0.08082 0.0
H916 H 0.23096 0.9096 0.04063 0.0
H917 H 0.32638 0.01779 0.0441 0.0
H918 H 0.35775 0.13736 0.94259 0.0
H919 H 0.34249 0.10172 0.98223 0.0
H920 H 0.22904 0.99697 0.98256 0.0
C921 C 0.23903 0.92389 0.05872 0.0
C922 C 0.30503 0.01286 0.03058 0.0
C923 C 0.22925 0.90356 0.08168 0.0
C924 C 0.33461 0.10997 0.94273 0.0
C925 C 0.32598 0.08917 0.96547 0.0
C926 C 0.25104 1.00157 0.99529 0.0
C927 C 0.25927 0.96232 0.0591 0.0
C928 C 0.26914 0.98456 0.03502 0.0
C929 C 0.29644 0.05295 0.9665 0.0
C930 C 0.28709 0.02976 0.99045 0.0
H931 H 0.26683 0.97436 0.12365 0.0
H932 H 0.28467 0.00924 0.08399 0.0
H933 H 0.21433 0.95808 0.02006 0.0
H934 H 0.26727 0.04686 0.90498 0.0
H935 H 0.25362 0.01086 0.94328 0.0
C936 C 0.32728 0.51968 0.28768 0.0
C937 C 0.33663 0.53354 0.26276 0.0
C938 C 0.35162 0.53649 0.30782 0.0
C939 C 0.43457 0.62323 0.32516 0.0
H940 H 0.43819 0.56502 0.38112 0.0
C941 C 0.51451 0.68934 0.41715 0.0
C942 C 0.53194 0.67293 0.42961 0.0
C943 C 0.49117 0.672 0.39664 0.0
C944 C 0.43793 0.58169 0.36551 0.0
H945 H 0.37896 0.57473 0.23895 0.0
H946 H 0.42211 0.60351 0.27384 0.0
H947 H 0.39773 0.53519 0.34525 0.0
H948 H 0.53941 0.62607 0.43028 0.0
H949 H 0.49961 0.59613 0.39381 0.0
H950 H 0.47594 0.66957 0.3448 0.0
C951 C 0.39553 0.58055 0.27817 0.0
C952 C 0.41422 0.56459 0.34509 0.0
C953 C 0.37091 0.5641 0.25815 0.0
C954 C 0.52589 0.639 0.4211 0.0
C955 C 0.50299 0.62187 0.4003 0.0
C956 C 0.45864 0.64026 0.34538 0.0
C957 C 0.38612 0.56712 0.30331 0.0
C958 C 0.41202 0.58517 0.32475 0.0
C959 C 0.48522 0.63811 0.38786 0.0
C960 C 0.4604 0.61977 0.36593 0.0
H961 H 0.30087 0.49618 0.2916 0.0
H962 H 0.34313 0.52575 0.32695 0.0
H963 H 0.43334 0.64005 0.31004 0.0
H964 H 0.51835 0.71525 0.42365 0.0
H965 H 0.47737 0.68497 0.38795 0.0
C966 C 0.8233 0.31192 0.60101 0.0
C967 C 0.85456 0.33101 0.58576 0.0
C968 C 0.81706 0.3291 0.62153 0.0
C969 C 0.8626 0.40531 0.66615 0.0
H970 H 0.76767 0.39731 0.67189 0.0
C971 C 0.8354 0.49329 0.73651 0.0
C972 C 0.80171 0.47685 0.74932 0.0
C973 C 0.84178 0.47517 0.7167 0.0
C974 C 0.79416 0.39941 0.67081 0.0
H975 H 0.90426 0.38256 0.58041 0.0
H976 H 0.89344 0.41265 0.6164 0.0
H977 H 0.77916 0.36546 0.63761 0.0
H978 H 0.74823 0.42852 0.75104 0.0
H979 H 0.75976 0.39645 0.71712 0.0
H980 H 0.87756 0.43881 0.6995 0.0
C981 C 0.87377 0.38444 0.61241 0.0
C982 C 0.80072 0.38122 0.65114 0.0
C983 C 0.8798 0.36737 0.59172 0.0
C984 C 0.77458 0.44187 0.74179 0.0
C985 C 0.78105 0.42365 0.7221 0.0
C986 C 0.85595 0.42324 0.68597 0.0
C987 C 0.84216 0.36556 0.62734 0.0
C988 C 0.83503 0.38413 0.64858 0.0
C989 C 0.81474 0.44006 0.70934 0.0
C990 C 0.8217 0.42064 0.68846 0.0
H991 H 0.80324 0.28398 0.59668 0.0
H992 H 0.7926 0.31388 0.63287 0.0
H993 H 0.88918 0.40765 0.66474 0.0
H994 H 0.85719 0.51994 0.74197 0.0
H995 H 0.86788 0.48883 0.70707 0.0
C996 C 0.31973 0.83789 0.08516 0.0
C997 C 0.33807 0.8546 0.10792 0.0
C998 C 0.33908 0.83782 0.0636 0.0
C999 C 0.42555 0.84457 0.04483 0.0
H1000 H 0.39744 0.85778 0.97679 0.0
C1001 C 0.50151 0.8401 0.95469 0.0
C1002 C 0.47921 0.81887 0.93445 0.0
C1003 C 0.48665 0.84917 0.97531 0.0
C1004 C 0.40548 0.85387 0.99566 0.0
H1005 H 0.39127 0.88529 0.12561 0.0
H1006 H 0.42505 0.88495 0.08799 0.0
H1007 H 0.3669 0.86483 0.01407 0.0
H1008 H 0.42414 0.7918 0.91952 0.0
H1009 H 0.39812 0.80692 0.95567 0.0
H1010 H 0.4636 0.83288 0.02646 0.0
C1011 C 0.39563 0.87151 0.08697 0.0
C1012 C 0.388 0.85789 0.01699 0.0
C1013 C 0.37626 0.87161 0.10853 0.0
C1014 C 0.44195 0.80772 0.93497 0.0
C1015 C 0.42712 0.81681 0.95554 0.0
C1016 C 0.44301 0.84052 0.02351 0.0
C1017 C 0.37722 0.85443 0.06433 0.0
C1018 C 0.3975 0.85277 0.04177 0.0
C1019 C 0.44922 0.83728 0.97608 0.0
C1020 C 0.4328 0.84461 0.99869 0.0
H1021 H 0.29033 0.82409 0.08413 0.0
H1022 H 0.32408 0.82391 0.04656 0.0
H1023 H 0.43317 0.84001 0.06367 0.0
H1024 H 0.53026 0.84893 0.95497 0.0
H1025 H 0.50443 0.86528 0.99075 0.0
C1026 C 0.68697 0.54416 0.27557 0.0
C1027 C 0.67182 0.53421 0.25095 0.0
C1028 C 0.66916 0.52219 0.29667 0.0
C1029 C 0.57968 0.45069 0.31948 0.0
H1030 H 0.63613 0.42801 0.36672 0.0
C1031 C 0.51253 0.3381 0.39598 0.0
C1032 C 0.52956 0.34447 0.41995 0.0
C1033 C 0.52955 0.36232 0.37576 0.0
C1034 C 0.62005 0.43449 0.35394 0.0
H1035 H 0.62588 0.49328 0.22933 0.0
H1036 H 0.59467 0.45519 0.2662 0.0
H1037 H 0.66639 0.46885 0.33083 0.0
H1038 H 0.57704 0.38177 0.44189 0.0
H1039 H 0.60666 0.42436 0.40673 0.0
H1040 H 0.53334 0.41648 0.34263 0.0
C1041 C 0.62023 0.48018 0.26914 0.0
C1042 C 0.63739 0.45783 0.33337 0.0
C1043 C 0.63813 0.50205 0.24801 0.0
C1044 C 0.56369 0.37579 0.42345 0.0
C1045 C 0.5806 0.40016 0.4033 0.0
C1046 C 0.56234 0.42749 0.34016 0.0
C1047 C 0.6357 0.48991 0.29363 0.0
C1048 C 0.61736 0.466 0.31586 0.0
C1049 C 0.56384 0.3936 0.37917 0.0
C1050 C 0.58231 0.41897 0.35755 0.0
H1051 H 0.71247 0.56908 0.27864 0.0
H1052 H 0.68144 0.5306 0.31541 0.0
H1053 H 0.56366 0.4569 0.30644 0.0
H1054 H 0.48633 0.31402 0.39275 0.0
H1055 H 0.51612 0.35617 0.35732 0.0
C1056 C 0.119 0.48342 0.75559 0.0
C1057 C 0.14366 0.47123 0.7608 0.0
C1058 C 0.12404 0.50557 0.73441 0.0
C1059 C 0.19491 0.57038 0.6912 0.0
H1060 H 0.11376 0.55329 0.64772 0.0
C1061 C 0.21498 0.6517 0.5983 0.0
C1062 C 0.18919 0.66228 0.59259 0.0
C1063 C 0.20916 0.6277 0.61843 0.0
C1064 C 0.13662 0.5587 0.65985 0.0
H1065 H 0.19292 0.47267 0.74787 0.0
H1066 H 0.20169 0.51127 0.71076 0.0
H1067 H 0.10389 0.51226 0.68346 0.0
H1068 H 0.13673 0.65541 0.60353 0.0
H1069 H 0.12716 0.61454 0.63911 0.0
H1070 H 0.22759 0.61709 0.66793 0.0
C1071 C 0.17852 0.50376 0.72315 0.0
C1072 C 0.13097 0.53514 0.68027 0.0
C1073 C 0.17331 0.48137 0.74424 0.0
C1074 C 0.15743 0.6483 0.60756 0.0
C1075 C 0.15168 0.62441 0.62776 0.0
C1076 C 0.20054 0.59406 0.67088 0.0
C1077 C 0.15401 0.51619 0.71809 0.0
C1078 C 0.16006 0.54076 0.69615 0.0
C1079 C 0.17747 0.61382 0.63343 0.0
C1080 C 0.17146 0.58851 0.65497 0.0
H1081 H 0.09569 0.47572 0.76786 0.0
H1082 H 0.10486 0.51496 0.73109 0.0
H1083 H 0.21773 0.5757 0.70336 0.0
H1084 H 0.23987 0.66215 0.58735 0.0
H1085 H 0.22939 0.61977 0.62206 0.0
C1086 C 0.47445 0.15978 0.93797 0.0
C1087 C 0.47447 0.14336 0.91464 0.0
C1088 C 0.49287 0.15693 0.95918 0.0
C1089 C 0.56904 0.14373 0.97593 0.0
H1090 H 0.52923 0.12995 0.04448 0.0
C1091 C 0.65256 0.14805 0.06401 0.0
C1092 C 0.65233 0.1696 0.08433 0.0
C1093 C 0.62733 0.13807 0.04413 0.0
C1094 C 0.54076 0.13394 0.02546 0.0
H1095 H 0.49291 0.10995 0.89569 0.0
H1096 H 0.52552 0.10552 0.93264 0.0
H1097 H 0.49155 0.12549 1.00781 0.0
H1098 H 0.62409 0.1958 0.10037 0.0
H1099 H 0.58091 0.17937 0.06548 0.0
H1100 H 0.61861 0.15344 0.99349 0.0
C1101 C 0.51147 0.12086 0.93436 0.0
C1102 C 0.51919 0.13137 1.0045 0.0
C1103 C 0.49291 0.12355 0.91317 0.0
C1104 C 0.62546 0.17975 0.08481 0.0
C1105 C 0.60032 0.16985 0.06495 0.0
C1106 C 0.59067 0.14646 0.99688 0.0
C1107 C 0.51183 0.13772 0.95753 0.0
C1108 C 0.53335 0.1369 0.97957 0.0
C1109 C 0.60135 0.14943 0.04417 0.0
C1110 C 0.57699 0.14229 0.02191 0.0
H1111 H 0.461 0.17564 0.93975 0.0
H1112 H 0.49316 0.17071 0.97668 0.0
H1113 H 0.58082 0.14852 0.95695 0.0
H1114 H 0.67295 0.13988 0.06297 0.0
H1115 H 0.62854 0.12194 0.02852 0.0
C1116 C 0.18625 0.72034 0.1476 0.0
C1117 C 0.19258 0.73958 0.17065 0.0
C1118 C 0.17757 0.68357 0.14784 0.0
C1119 C 0.15105 0.60371 0.19255 0.0
H1120 H 0.1984 0.57505 0.14185 0.0
C1121 C 0.18445 0.48644 0.20591 0.0
C1122 C 0.18143 0.46557 0.1842 0.0
C1123 C 0.17784 0.51577 0.20404 0.0
C1124 C 0.18458 0.5824 0.15603 0.0
H1125 H 0.19267 0.73459 0.21197 0.0
H1126 H 0.1786 0.6721 0.21239 0.0
H1127 H 0.20104 0.63355 0.13772 0.0
H1128 H 0.16635 0.45739 0.14412 0.0
H1129 H 0.15462 0.50793 0.141 0.0
H1130 H 0.13614 0.55308 0.21143 0.0
C1131 C 0.1797 0.68449 0.19404 0.0
C1132 C 0.18593 0.61601 0.15357 0.0
C1133 C 0.18822 0.72079 0.19378 0.0
C1134 C 0.16899 0.47293 0.16122 0.0
C1135 C 0.16263 0.50219 0.15933 0.0
C1136 C 0.15016 0.57034 0.19518 0.0
C1137 C 0.17491 0.66532 0.17114 0.0
C1138 C 0.16969 0.62754 0.17202 0.0
C1139 C 0.16831 0.52488 0.18042 0.0
C1140 C 0.16724 0.55939 0.1771 0.0
H1141 H 0.18954 0.73404 0.12946 0.0
H1142 H 0.1736 0.66968 0.12976 0.0
H1143 H 0.1374 0.61098 0.20689 0.0
H1144 H 0.19458 0.48194 0.22376 0.0
H1145 H 0.1825 0.53273 0.22067 0.0
C1146 C 0.48759 0.19784 0.47433 0.0
C1147 C 0.46377 0.18847 0.49528 0.0
C1148 C 0.5182 0.19324 0.4756 0.0
C1149 C 0.57927 0.18869 0.52476 0.0
H1150 H 0.62384 0.16953 0.46671 0.0
C1151 C 0.71813 0.19098 0.53275 0.0
C1152 C 0.74266 0.20866 0.51253 0.0
C1153 C 0.68168 0.18305 0.53094 0.0
C1154 C 0.61191 0.17514 0.48315 0.0
H1155 H 0.45176 0.1642 0.53307 0.0
H1156 H 0.50395 0.15491 0.53491 0.0
H1157 H 0.56426 0.1645 0.46194 0.0
H1158 H 0.74754 0.23117 0.4744 0.0
H1159 H 0.68522 0.21782 0.47147 0.0
H1160 H 0.62726 0.20011 0.54582 0.0
C1161 C 0.49988 0.16686 0.51779 0.0
C1162 C 0.57764 0.17226 0.48037 0.0
C1163 C 0.46957 0.17167 0.51657 0.0
C1164 C 0.72966 0.21758 0.49046 0.0
C1165 C 0.69356 0.20957 0.48862 0.0
C1166 C 0.61356 0.19161 0.52754 0.0
C1167 C 0.52555 0.179 0.49781 0.0
C1168 C 0.56096 0.17943 0.50104 0.0
C1169 C 0.66893 0.19231 0.50879 0.0
C1170 C 0.6307 0.18548 0.50666 0.0
H1171 H 0.48433 0.21147 0.45784 0.0
H1172 H 0.53732 0.20305 0.45983 0.0
H1173 H 0.56775 0.19505 0.54108 0.0
H1174 H 0.72717 0.18373 0.55001 0.0
H1175 H 0.66347 0.16955 0.54685 0.0
C1176 C 0.28077 0.46381 0.81923 0.0
C1177 C 0.25465 0.45796 0.83801 0.0
C1178 C 0.31743 0.49119 0.82249 0.0
C1179 C 0.38353 0.55113 0.87276 0.0
H1180 H 0.43549 0.61416 0.81569 0.0
C1181 C 0.50919 0.69673 0.88391 0.0
C1182 C 0.53474 0.71044 0.8639 0.0
C1183 C 0.47859 0.66156 0.88232 0.0
C1184 C 0.42176 0.59651 0.83182 0.0
H1185 H 0.24704 0.47636 0.87508 0.0
H1186 H 0.3097 0.52345 0.88045 0.0
H1187 H 0.3755 0.56131 0.80884 0.0
H1188 H 0.55023 0.69683 0.82793 0.0
H1189 H 0.49813 0.63539 0.82568 0.0
H1190 H 0.42946 0.58693 0.89586 0.0
C1191 C 0.30247 0.50684 0.86338 0.0
C1192 C 0.38719 0.56607 0.82783 0.0
C1193 C 0.26618 0.47984 0.86011 0.0
C1194 C 0.53101 0.68702 0.84367 0.0
C1195 C 0.50075 0.65195 0.84217 0.0
C1196 C 0.41808 0.58163 0.87676 0.0
C1197 C 0.32875 0.51308 0.84469 0.0
C1198 C 0.36725 0.54326 0.84832 0.0
C1199 C 0.47313 0.63937 0.86077 0.0
C1200 C 0.43754 0.60507 0.85641 0.0
H1201 H 0.2729 0.44748 0.80201 0.0
H1202 H 0.33693 0.49506 0.80771 0.0
H1203 H 0.36939 0.53387 0.88896 0.0
H1204 H 0.51095 0.71425 0.89955 0.0
H1205 H 0.45797 0.65291 0.89706 0.0
C1206 C 0.78316 0.52 0.15409 0.0
C1207 C 0.79545 0.54272 0.17575 0.0
C1208 C 0.7913 0.49219 0.15067 0.0
C1209 C 0.81772 0.43299 0.18547 0.0
H1210 H 0.83525 0.41005 0.11696 0.0
C1211 C 0.84073 0.31206 0.16908 0.0
C1212 C 0.82067 0.28822 0.14914 0.0
C1213 C 0.84486 0.34686 0.17061 0.0
C1214 C 0.83022 0.4159 0.1362 0.0
H1215 H 0.82627 0.55372 0.21087 0.0
H1216 H 0.84068 0.50477 0.2049 0.0
H1217 H 0.82879 0.46342 0.12397 0.0
H1218 H 0.79128 0.28324 0.11414 0.0
H1219 H 0.79845 0.34415 0.11668 0.0
H1220 H 0.81845 0.38516 0.19766 0.0
C1221 C 0.82444 0.5086 0.19058 0.0
C1222 C 0.82649 0.44658 0.14027 0.0
C1223 C 0.81631 0.53676 0.194 0.0
C1224 C 0.80742 0.30116 0.12951 0.0
C1225 C 0.81132 0.33606 0.13113 0.0
C1226 C 0.82148 0.40234 0.18141 0.0
C1227 C 0.81209 0.48598 0.16877 0.0
C1228 C 0.81959 0.45528 0.16491 0.0
C1229 C 0.82872 0.35876 0.15235 0.0
C1230 C 0.82737 0.39305 0.15667 0.0
H1231 H 0.76694 0.5235 0.13956 0.0
H1232 H 0.78059 0.47505 0.13393 0.0
H1233 H 0.81194 0.43837 0.20463 0.0
H1234 H 0.8512 0.30285 0.18454 0.0
H1235 H 0.85934 0.36382 0.18682 0.0
C1236 C 0.53057 0.80931 0.48421 0.0
C1237 C 0.53903 0.79196 0.5038 0.0
C1238 C 0.50111 0.81568 0.48696 0.0
C1239 C 0.41537 0.78271 0.52463 0.0
H1240 H 0.41852 0.87079 0.50078 0.0
C1241 C 0.29514 0.80659 0.54468 0.0
C1242 C 0.283 0.81808 0.52352 0.0
C1243 C 0.32924 0.80857 0.54411 0.0
C1244 C 0.4171 0.84593 0.50748 0.0
H1245 H 0.52375 0.76902 0.54202 0.0
H1246 H 0.47367 0.78043 0.54681 0.0
H1247 H 0.47144 0.86301 0.4946 0.0
H1248 H 0.29826 0.84311 0.48603 0.0
H1249 H 0.35743 0.84694 0.48513 0.0
H1250 H 0.36111 0.76532 0.53724 0.0
C1251 C 0.48885 0.78837 0.52904 0.0
C1252 C 0.44746 0.84141 0.50382 0.0
C1253 C 0.51792 0.78198 0.52629 0.0
C1254 C 0.30688 0.83421 0.50272 0.0
C1255 C 0.34093 0.83638 0.5022 0.0
C1256 C 0.38516 0.78723 0.5283 0.0
C1257 C 0.47955 0.80483 0.50935 0.0
C1258 C 0.44707 0.80974 0.51242 0.0
C1259 C 0.35204 0.82226 0.52242 0.0
C1260 C 0.38548 0.81888 0.51982 0.0
H1261 H 0.54625 0.81741 0.46666 0.0
H1262 H 0.49472 0.82832 0.47132 0.0
H1263 H 0.41358 0.75757 0.53105 0.0
H1264 H 0.27728 0.79359 0.56085 0.0
H1265 H 0.33711 0.79803 0.56027 0.0
C1266 C 0.69743 0.53762 0.8512 0.0
C1267 C 0.71789 0.54593 0.82847 0.0
C1268 C 0.66238 0.50731 0.85276 0.0
C1269 C 0.60662 0.41764 0.82107 0.0
H1270 H 0.5328 0.40738 0.86959 0.0
C1271 C 0.46875 0.2864 0.82593 0.0
C1272 C 0.45636 0.26983 0.85001 0.0
C1273 C 0.49746 0.32208 0.82374 0.0
C1274 C 0.55329 0.40978 0.85612 0.0
H1275 H 0.71611 0.53034 0.78887 0.0
H1276 H 0.65418 0.4783 0.79112 0.0
H1277 H 0.58692 0.46708 0.86275 0.0
H1278 H 0.46332 0.2789 0.89086 0.0
H1279 H 0.51398 0.3423 0.88705 0.0
H1280 H 0.57282 0.36053 0.81423 0.0
C1281 C 0.66574 0.49461 0.80812 0.0
C1282 C 0.58442 0.44406 0.85213 0.0
C1283 C 0.70107 0.52498 0.80661 0.0
C1284 C 0.47213 0.29088 0.87206 0.0
C1285 C 0.50117 0.3271 0.86983 0.0
C1286 C 0.57543 0.38363 0.82485 0.0
C1287 C 0.64646 0.48437 0.83155 0.0
C1288 C 0.61172 0.44854 0.83458 0.0
C1289 C 0.51487 0.34264 0.84556 0.0
C1290 C 0.54834 0.37916 0.84242 0.0
H1291 H 0.70958 0.55313 0.86845 0.0
H1292 H 0.64892 0.50064 0.87118 0.0
H1293 H 0.62717 0.41934 0.80797 0.0
H1294 H 0.45689 0.2713 0.80849 0.0
H1295 H 0.50661 0.33337 0.80479 0.0
loop_
_geom_bond_atom_site_label_1
_geom_bond_atom_site_label_2
_geom_bond_distance
_geom_bond_site_symmetry_2
_ccdc_geom_bond_type
C0 C1 1.351 . S
C0 N3 1.368 . S
C0 H5 0.931 . S
C1 C0 1.351 . S
C1 N2 1.373 . S
C1 H29 0.930 . S
N2 C1 1.373 . S
N2 C4 1.340 . S
N3 C0 1.368 . S
N3 C4 1.321 . S
N3 Co6 2.135 . S
C4 N2 1.340 . S
C4 N3 1.321 . S
C4 H28 0.930 . S
H5 C0 0.931 . S
Co6 N3 2.135 . S
Co6 N9 2.121 . S
Co6 O14 2.055 . S
Co6 O17 2.039 . S
Co6 N20 2.140 . S
C7 O8 1.227 . S
C7 O17 1.265 . S
O8 C7 1.227 . S
N9 Co6 2.121 . S
N9 C11 1.375 . S
N9 C12 1.313 . S
C10 C11 1.338 . S
C10 N13 1.377 . S
C10 H30 0.930 . S
C11 N9 1.375 . S
C11 C10 1.338 . S
C11 H15 0.931 . S
C12 N9 1.313 . S
C12 N13 1.344 . S
C12 H16 0.930 . S
N13 C10 1.377 . S
N13 C12 1.344 . S
O14 Co6 2.055 . S
O14 C18 1.253 . S
H15 C11 0.931 . S
H16 C12 0.930 . S
O17 Co6 2.039 . S
O17 C7 1.265 . S
C18 O14 1.253 . S
C18 O19 1.227 . S
O19 C18 1.227 . S
N20 Co6 2.140 . S
N20 C23 1.346 . S
N20 C24 1.345 . S
C21 C22 1.387 . S
C21 C25 1.391 . S
C22 C21 1.387 . S
C22 C23 1.369 . S
C22 H31 0.929 . S
C23 N20 1.346 . S
C23 C22 1.369 . S
C23 H26 0.928 . S
C24 N20 1.345 . S
C24 C25 1.371 . S
C24 H27 0.931 . S
C25 C21 1.391 . S
C25 C24 1.371 . S
C25 H32 0.930 . S
H26 C23 0.928 . S
H27 C24 0.931 . S
H28 C4 0.930 . S
H29 C1 0.930 . S
H30 C10 0.930 . S
H31 C22 0.929 . S
H32 C25 0.930 . S
C33 C34 1.351 . S
C33 N36 1.368 . S
C33 H38 0.931 . S
C34 C33 1.351 . S
C34 N35 1.373 . S
C34 H62 0.930 . S
N35 C34 1.373 . S
N35 C37 1.340 . S
N36 C33 1.368 . S
N36 C37 1.321 . S
N36 Co39 2.135 . S
C37 N35 1.340 . S
C37 N36 1.321 . S
C37 H61 0.930 . S
H38 C33 0.931 . S
Co39 N36 2.135 . S
Co39 N42 2.121 . S
Co39 O47 2.055 . S
Co39 O50 2.039 . S
Co39 N53 2.140 . S
C40 O41 1.227 . S
C40 O50 1.265 . S
O41 C40 1.227 . S
N42 Co39 2.121 . S
N42 C44 1.375 . S
N42 C45 1.313 . S
C43 C44 1.338 . S
C43 N46 1.377 . S
C43 H63 0.930 . S
C44 N42 1.375 . S
C44 C43 1.338 . S
C44 H48 0.931 . S
C45 N42 1.313 . S
C45 N46 1.344 . S
C45 H49 0.930 . S
N46 C43 1.377 . S
N46 C45 1.344 . S
O47 Co39 2.055 . S
O47 C51 1.253 . S
H48 C44 0.931 . S
H49 C45 0.930 . S
O50 Co39 2.039 . S
O50 C40 1.265 . S
C51 O47 1.253 . S
C51 O52 1.227 . S
O52 C51 1.227 . S
N53 Co39 2.140 . S
N53 C56 1.346 . S
N53 C57 1.345 . S
C54 C55 1.387 . S
C54 C58 1.391 . S
C55 C54 1.387 . S
C55 C56 1.369 . S
C55 H64 0.929 . S
C56 N53 1.346 . S
C56 C55 1.369 . S
C56 H59 0.928 . S
C57 N53 1.345 . S
C57 C58 1.371 . S
C57 H60 0.931 . S
C58 C54 1.391 . S
C58 C57 1.371 . S
C58 H65 0.930 . S
H59 C56 0.928 . S
H60 C57 0.931 . S
H61 C37 0.930 . S
H62 C34 0.930 . S
H63 C43 0.930 . S
H64 C55 0.929 . S
H65 C58 0.930 . S
C66 C67 1.351 . S
C66 N69 1.368 . S
C66 H71 0.931 . S
C67 C66 1.351 . S
C67 N68 1.373 . S
C67 H95 0.930 . S
N68 C67 1.373 . S
N68 C70 1.340 . S
N69 C66 1.368 . S
N69 C70 1.321 . S
N69 Co72 2.135 . S
C70 N68 1.340 . S
C70 N69 1.321 . S
C70 H94 0.930 . S
H71 C66 0.931 . S
Co72 N69 2.135 . S
Co72 N75 2.121 . S
Co72 O80 2.055 . S
Co72 O83 2.039 . S
Co72 N86 2.140 . S
C73 O74 1.227 . S
C73 O83 1.265 . S
O74 C73 1.227 . S
N75 Co72 2.121 . S
N75 C77 1.375 . S
N75 C78 1.313 . S
C76 C77 1.338 . S
C76 N79 1.377 . S
C76 H96 0.930 . S
C77 N75 1.375 . S
C77 C76 1.338 . S
C77 H81 0.931 . S
C78 N75 1.313 . S
C78 N79 1.344 . S
C78 H82 0.930 . S
N79 C76 1.377 . S
N79 C78 1.344 . S
O80 Co72 2.055 . S
O80 C84 1.253 . S
H81 C77 0.931 . S
H82 C78 0.930 . S
O83 Co72 2.039 . S
O83 C73 1.265 . S
C84 O80 1.253 . S
C84 O85 1.227 . S
O85 C84 1.227 . S
N86 Co72 2.140 . S
N86 C89 1.346 . S
N86 C90 1.345 . S
C87 C88 1.387 . S
C87 C91 1.391 . S
C88 C87 1.387 . S
C88 C89 1.369 . S
C88 H97 0.929 . S
C89 N86 1.346 . S
C89 C88 1.369 . S
C89 H92 0.928 . S
C90 N86 1.345 . S
C90 C91 1.371 . S
C90 H93 0.931 . S
C91 C87 1.391 . S
C91 C90 1.371 . S
C91 H98 0.930 . S
H92 C89 0.928 . S
H93 C90 0.931 . S
H94 C70 0.930 . S
H95 C67 0.930 . S
H96 C76 0.930 . S
H97 C88 0.929 . S
H98 C91 0.930 . S
C99 C100 1.351 . S
C99 N102 1.368 . S
C99 H104 0.931 . S
C100 C99 1.351 . S
C100 N101 1.373 . S
C100 H128 0.930 . S
N101 C100 1.373 . S
N101 C103 1.340 . S
N102 C99 1.368 . S
N102 C103 1.321 . S
N102 Co105 2.135 . S
C103 N101 1.340 . S
C103 N102 1.321 . S
C103 H127 0.930 . S
H104 C99 0.931 . S
Co105 N102 2.135 . S
Co105 N108 2.121 . S
Co105 O113 2.055 . S
Co105 O116 2.039 . S
Co105 N119 2.140 . S
C106 O107 1.227 . S
C106 O116 1.265 . S
O107 C106 1.227 . S
N108 Co105 2.121 . S
N108 C110 1.375 . S
N108 C111 1.313 . S
C109 C110 1.338 . S
C109 N112 1.377 . S
C109 H129 0.930 . S
C110 N108 1.375 . S
C110 C109 1.338 . S
C110 H114 0.931 . S
C111 N108 1.313 . S
C111 N112 1.344 . S
C111 H115 0.930 . S
N112 C109 1.377 . S
N112 C111 1.344 . S
O113 Co105 2.055 . S
O113 C117 1.253 . S
H114 C110 0.931 . S
H115 C111 0.930 . S
O116 Co105 2.039 . S
O116 C106 1.265 . S
C117 O113 1.253 . S
C117 O118 1.227 . S
O118 C117 1.227 . S
N119 Co105 2.140 . S
N119 C122 1.346 . S
N119 C123 1.345 . S
C120 C121 1.387 . S
C120 C124 1.391 . S
C121 C120 1.387 . S
C121 C122 1.369 . S
C121 H130 0.929 . S
C122 N119 1.346 . S
C122 C121 1.369 . S
C122 H125 0.928 . S
C123 N119 1.345 . S
C123 C124 1.371 . S
C123 H126 0.931 . S
C124 C120 1.391 . S
C124 C123 1.371 . S
C124 H131 0.930 . S
H125 C122 0.928 . S
H126 C123 0.931 . S
H127 C103 0.930 . S
H128 C100 0.930 . S
H129 C109 0.930 . S
H130 C121 0.929 . S
H131 C124 0.930 . S
C132 C133 1.351 . S
C132 N135 1.368 . S
C132 H137 0.931 . S
C133 C132 1.351 . S
C133 N134 1.373 . S
C133 H161 0.930 . S
N134 C133 1.373 . S
N134 C136 1.340 . S
N135 C132 1.368 . S
N135 C136 1.321 . S
N135 Co138 2.135 . S
C136 N134 1.340 . S
C136 N135 1.321 . S
C136 H160 0.930 . S
H137 C132 0.931 . S
Co138 N135 2.135 . S
Co138 N141 2.121 . S
Co138 O146 2.055 . S
Co138 O149 2.039 . S
Co138 N152 2.140 . S
C139 O140 1.227 . S
C139 O149 1.265 . S
O140 C139 1.227 . S
N141 Co138 2.121 . S
N141 C143 1.375 . S
N141 C144 1.313 . S
C142 C143 1.338 . S
C142 N145 1.377 . S
C142 H162 0.930 . S
C143 N141 1.375 . S
C143 C142 1.338 . S
C143 H147 0.931 . S
C144 N141 1.313 . S
C144 N145 1.344 . S
C144 H148 0.930 . S
N145 C142 1.377 . S
N145 C144 1.344 . S
O146 Co138 2.055 . S
O146 C150 1.253 . S
H147 C143 0.931 . S
H148 C144 0.930 . S
O149 Co138 2.039 . S
O149 C139 1.265 . S
C150 O146 1.253 . S
C150 O151 1.227 . S
O151 C150 1.227 . S
N152 Co138 2.140 . S
N152 C155 1.346 . S
N152 C156 1.345 . S
C153 C154 1.387 . S
C153 C157 1.391 . S
C154 C153 1.387 . S
C154 C155 1.369 . S
C154 H163 0.929 . S
C155 N152 1.346 . S
C155 C154 1.369 . S
C155 H158 0.928 . S
C156 N152 1.345 . S
C156 C157 1.371 . S
C156 H159 0.931 . S
C157 C153 1.391 . S
C157 C156 1.371 . S
C157 H164 0.930 . S
H158 C155 0.928 . S
H159 C156 0.931 . S
H160 C136 0.930 . S
H161 C133 0.930 . S
H162 C142 0.930 . S
H163 C154 0.929 . S
H164 C157 0.930 . S
C165 C166 1.351 . S
C165 N168 1.368 . S
C165 H170 0.931 . S
C166 C165 1.351 . S
C166 N167 1.373 . S
C166 H194 0.930 . S
N167 C166 1.373 . S
N167 C169 1.340 . S
N168 C165 1.368 . S
N168 C169 1.321 . S
N168 Co171 2.135 . S
C169 N167 1.340 . S
C169 N168 1.321 . S
C169 H193 0.930 . S
H170 C165 0.931 . S
Co171 N168 2.135 . S
Co171 N174 2.121 . S
Co171 O179 2.055 . S
Co171 O182 2.039 . S
Co171 N185 2.140 . S
C172 O173 1.227 . S
C172 O182 1.265 . S
O173 C172 1.227 . S
N174 Co171 2.121 . S
N174 C176 1.375 . S
N174 C177 1.313 . S
C175 C176 1.338 . S
C175 N178 1.377 . S
C175 H195 0.930 . S
C176 N174 1.375 . S
C176 C175 1.338 . S
C176 H180 0.931 . S
C177 N174 1.313 . S
C177 N178 1.344 . S
C177 H181 0.930 . S
N178 C175 1.377 . S
N178 C177 1.344 . S
O179 Co171 2.055 . S
O179 C183 1.253 . S
H180 C176 0.931 . S
H181 C177 0.930 . S
O182 Co171 2.039 . S
O182 C172 1.265 . S
C183 O179 1.253 . S
C183 O184 1.227 . S
O184 C183 1.227 . S
N185 Co171 2.140 . S
N185 C188 1.346 . S
N185 C189 1.345 . S
C186 C187 1.387 . S
C186 C190 1.391 . S
C187 C186 1.387 . S
C187 C188 1.369 . S
C187 H196 0.929 . S
C188 N185 1.346 . S
C188 C187 1.369 . S
C188 H191 0.928 . S
C189 N185 1.345 . S
C189 C190 1.371 . S
C189 H192 0.931 . S
C190 C186 1.391 . S
C190 C189 1.371 . S
C190 H197 0.930 . S
H191 C188 0.928 . S
H192 C189 0.931 . S
H193 C169 0.930 . S
H194 C166 0.930 . S
H195 C175 0.930 . S
H196 C187 0.929 . S
H197 C190 0.930 . S
C198 C199 1.351 . S
C198 N201 1.368 . S
C198 H203 0.931 . S
C199 C198 1.351 . S
C199 N200 1.373 . S
C199 H227 0.930 . S
N200 C199 1.373 . S
N200 C202 1.340 . S
N201 C198 1.368 . S
N201 C202 1.321 . S
N201 Co204 2.135 . S
C202 N200 1.340 . S
C202 N201 1.321 . S
C202 H226 0.930 . S
H203 C198 0.931 . S
Co204 N201 2.135 . S
Co204 N207 2.121 . S
Co204 O212 2.055 . S
Co204 O215 2.039 . S
Co204 N218 2.140 . S
C205 O206 1.227 . S
C205 O215 1.265 . S
O206 C205 1.227 . S
N207 Co204 2.121 . S
N207 C209 1.375 . S
N207 C210 1.313 . S
C208 C209 1.338 . S
C208 N211 1.377 . S
C208 H228 0.930 . S
C209 N207 1.375 . S
C209 C208 1.338 . S
C209 H213 0.931 . S
C210 N207 1.313 . S
C210 N211 1.344 . S
C210 H214 0.930 . S
N211 C208 1.377 . S
N211 C210 1.344 . S
O212 Co204 2.055 . S
O212 C216 1.253 . S
H213 C209 0.931 . S
H214 C210 0.930 . S
O215 Co204 2.039 . S
O215 C205 1.265 . S
C216 O212 1.253 . S
C216 O217 1.227 . S
O217 C216 1.227 . S
N218 Co204 2.140 . S
N218 C221 1.346 . S
N218 C222 1.345 . S
C219 C220 1.387 . S
C219 C223 1.391 . S
C220 C219 1.387 . S
C220 C221 1.369 . S
C220 H229 0.929 . S
C221 N218 1.346 . S
C221 C220 1.369 . S
C221 H224 0.928 . S
C222 N218 1.345 . S
C222 C223 1.371 . S
C222 H225 0.931 . S
C223 C219 1.391 . S
C223 C222 1.371 . S
C223 H230 0.930 . S
H224 C221 0.928 . S
H225 C222 0.931 . S
H226 C202 0.930 . S
H227 C199 0.930 . S
H228 C208 0.930 . S
H229 C220 0.929 . S
H230 C223 0.930 . S
C231 C232 1.351 . S
C231 N234 1.368 . S
C231 H236 0.931 . S
C232 C231 1.351 . S
C232 N233 1.373 . S
C232 H260 0.930 . S
N233 C232 1.373 . S
N233 C235 1.340 . S
N234 C231 1.368 . S
N234 C235 1.321 . S
N234 Co237 2.135 . S
C235 N233 1.340 . S
C235 N234 1.321 . S
C235 H259 0.930 . S
H236 C231 0.931 . S
Co237 N234 2.135 . S
Co237 N240 2.121 . S
Co237 O245 2.055 . S
Co237 O248 2.039 . S
Co237 N251 2.140 . S
C238 O239 1.227 . S
C238 O248 1.265 . S
O239 C238 1.227 . S
N240 Co237 2.121 . S
N240 C242 1.375 . S
N240 C243 1.313 . S
C241 C242 1.338 . S
C241 N244 1.377 . S
C241 H261 0.930 . S
C242 N240 1.375 . S
C242 C241 1.338 . S
C242 H246 0.931 . S
C243 N240 1.313 . S
C243 N244 1.344 . S
C243 H247 0.930 . S
N244 C241 1.377 . S
N244 C243 1.344 . S
O245 Co237 2.055 . S
O245 C249 1.253 . S
H246 C242 0.931 . S
H247 C243 0.930 . S
O248 Co237 2.039 . S
O248 C238 1.265 . S
C249 O245 1.253 . S
C249 O250 1.227 . S
O250 C249 1.227 . S
N251 Co237 2.140 . S
N251 C254 1.346 . S
N251 C255 1.345 . S
C252 C253 1.387 . S
C252 C256 1.391 . S
C253 C252 1.387 . S
C253 C254 1.369 . S
C253 H262 0.929 . S
C254 N251 1.346 . S
C254 C253 1.369 . S
C254 H257 0.928 . S
C255 N251 1.345 . S
C255 C256 1.371 . S
C255 H258 0.931 . S
C256 C252 1.391 . S
C256 C255 1.371 . S
C256 H263 0.930 . S
H257 C254 0.928 . S
H258 C255 0.931 . S
H259 C235 0.930 . S
H260 C232 0.930 . S
H261 C241 0.930 . S
H262 C253 0.929 . S
H263 C256 0.930 . S
C264 C265 1.351 . S
C264 N267 1.368 . S
C264 H269 0.931 . S
C265 C264 1.351 . S
C265 N266 1.373 . S
C265 H293 0.930 . S
N266 C265 1.373 . S
N266 C268 1.340 . S
N267 C264 1.368 . S
N267 C268 1.321 . S
N267 Co270 2.135 . S
C268 N266 1.340 . S
C268 N267 1.321 . S
C268 H292 0.930 . S
H269 C264 0.931 . S
Co270 N267 2.135 . S
Co270 N273 2.121 . S
Co270 O278 2.055 . S
Co270 O281 2.039 . S
Co270 N284 2.140 . S
C271 O272 1.227 . S
C271 O281 1.265 . S
O272 C271 1.227 . S
N273 Co270 2.121 . S
N273 C275 1.375 . S
N273 C276 1.313 . S
C274 C275 1.338 . S
C274 N277 1.377 . S
C274 H294 0.930 . S
C275 N273 1.375 . S
C275 C274 1.338 . S
C275 H279 0.931 . S
C276 N273 1.313 . S
C276 N277 1.344 . S
C276 H280 0.930 . S
N277 C274 1.377 . S
N277 C276 1.344 . S
O278 Co270 2.055 . S
O278 C282 1.253 . S
H279 C275 0.931 . S
H280 C276 0.930 . S
O281 Co270 2.039 . S
O281 C271 1.265 . S
C282 O278 1.253 . S
C282 O283 1.227 . S
O283 C282 1.227 . S
N284 Co270 2.140 . S
N284 C287 1.346 . S
N284 C288 1.345 . S
C285 C286 1.387 . S
C285 C289 1.391 . S
C286 C285 1.387 . S
C286 C287 1.369 . S
C286 H295 0.929 . S
C287 N284 1.346 . S
C287 C286 1.369 . S
C287 H290 0.928 . S
C288 N284 1.345 . S
C288 C289 1.371 . S
C288 H291 0.931 . S
C289 C285 1.391 . S
C289 C288 1.371 . S
C289 H296 0.930 . S
H290 C287 0.928 . S
H291 C288 0.931 . S
H292 C268 0.930 . S
H293 C265 0.930 . S
H294 C274 0.930 . S
H295 C286 0.929 . S
H296 C289 0.930 . S
C297 C298 1.351 . S
C297 N300 1.368 . S
C297 H302 0.931 . S
C298 C297 1.351 . S
C298 N299 1.373 . S
C298 H326 0.930 . S
N299 C298 1.373 . S
N299 C301 1.340 . S
N300 C297 1.368 . S
N300 C301 1.321 . S
N300 Co303 2.135 . S
C301 N299 1.340 . S
C301 N300 1.321 . S
C301 H325 0.930 . S
H302 C297 0.931 . S
Co303 N300 2.135 . S
Co303 N306 2.121 . S
Co303 O311 2.055 . S
Co303 O314 2.039 . S
Co303 N317 2.140 . S
C304 O305 1.227 . S
C304 O314 1.265 . S
O305 C304 1.227 . S
N306 Co303 2.121 . S
N306 C308 1.375 . S
N306 C309 1.313 . S
C307 C308 1.338 . S
C307 N310 1.377 . S
C307 H327 0.930 . S
C308 N306 1.375 . S
C308 C307 1.338 . S
C308 H312 0.931 . S
C309 N306 1.313 . S
C309 N310 1.344 . S
C309 H313 0.930 . S
N310 C307 1.377 . S
N310 C309 1.344 . S
O311 Co303 2.055 . S
O311 C315 1.253 . S
H312 C308 0.931 . S
H313 C309 0.930 . S
O314 Co303 2.039 . S
O314 C304 1.265 . S
C315 O311 1.253 . S
C315 O316 1.227 . S
O316 C315 1.227 . S
N317 Co303 2.140 . S
N317 C320 1.346 . S
N317 C321 1.345 . S
C318 C319 1.387 . S
C318 C322 1.391 . S
C319 C318 1.387 . S
C319 C320 1.369 . S
C319 H328 0.929 . S
C320 N317 1.346 . S
C320 C319 1.369 . S
C320 H323 0.928 . S
C321 N317 1.345 . S
C321 C322 1.371 . S
C321 H324 0.931 . S
C322 C318 1.391 . S
C322 C321 1.371 . S
C322 H329 0.930 . S
H323 C320 0.928 . S
H324 C321 0.931 . S
H325 C301 0.930 . S
H326 C298 0.930 . S
H327 C307 0.930 . S
H328 C319 0.929 . S
H329 C322 0.930 . S
C330 C331 1.351 . S
C330 N333 1.368 . S
C330 H335 0.931 . S
C331 C330 1.351 . S
C331 N332 1.373 . S
C331 H359 0.930 . S
N332 C331 1.373 . S
N332 C334 1.340 . S
N333 C330 1.368 . S
N333 C334 1.321 . S
N333 Co336 2.135 . S
C334 N332 1.340 . S
C334 N333 1.321 . S
C334 H358 0.930 . S
H335 C330 0.931 . S
Co336 N333 2.135 . S
Co336 N339 2.121 . S
Co336 O344 2.055 . S
Co336 O347 2.039 . S
Co336 N350 2.140 . S
C337 O338 1.227 . S
C337 O347 1.265 . S
O338 C337 1.227 . S
N339 Co336 2.121 . S
N339 C341 1.375 . S
N339 C342 1.313 . S
C340 C341 1.338 . S
C340 N343 1.377 . S
C340 H360 0.930 . S
C341 N339 1.375 . S
C341 C340 1.338 . S
C341 H345 0.931 . S
C342 N339 1.313 . S
C342 N343 1.344 . S
C342 H346 0.930 . S
N343 C340 1.377 . S
N343 C342 1.344 . S
O344 Co336 2.055 . S
O344 C348 1.253 . S
H345 C341 0.931 . S
H346 C342 0.930 . S
O347 Co336 2.039 . S
O347 C337 1.265 . S
C348 O344 1.253 . S
C348 O349 1.227 . S
O349 C348 1.227 . S
N350 Co336 2.140 . S
N350 C353 1.346 . S
N350 C354 1.345 . S
C351 C352 1.387 . S
C351 C355 1.391 . S
C352 C351 1.387 . S
C352 C353 1.369 . S
C352 H361 0.929 . S
C353 N350 1.346 . S
C353 C352 1.369 . S
C353 H356 0.928 . S
C354 N350 1.345 . S
C354 C355 1.371 . S
C354 H357 0.931 . S
C355 C351 1.391 . S
C355 C354 1.371 . S
C355 H362 0.930 . S
H356 C353 0.928 . S
H357 C354 0.931 . S
H358 C334 0.930 . S
H359 C331 0.930 . S
H360 C340 0.930 . S
H361 C352 0.929 . S
H362 C355 0.930 . S
C363 C364 1.351 . S
C363 N366 1.368 . S
C363 H368 0.931 . S
C364 C363 1.351 . S
C364 N365 1.373 . S
C364 H392 0.930 . S
N365 C364 1.373 . S
N365 C367 1.340 . S
N366 C363 1.368 . S
N366 C367 1.321 . S
N366 Co369 2.135 . S
C367 N365 1.340 . S
C367 N366 1.321 . S
C367 H391 0.930 . S
H368 C363 0.931 . S
Co369 N366 2.135 . S
Co369 N372 2.121 . S
Co369 O377 2.055 . S
Co369 O380 2.039 . S
Co369 N383 2.140 . S
C370 O371 1.227 . S
C370 O380 1.265 . S
O371 C370 1.227 . S
N372 Co369 2.121 . S
N372 C374 1.375 . S
N372 C375 1.313 . S
C373 C374 1.338 . S
C373 N376 1.377 . S
C373 H393 0.930 . S
C374 N372 1.375 . S
C374 C373 1.338 . S
C374 H378 0.931 . S
C375 N372 1.313 . S
C375 N376 1.344 . S
C375 H379 0.930 . S
N376 C373 1.377 . S
N376 C375 1.344 . S
O377 Co369 2.055 . S
O377 C381 1.253 . S
H378 C374 0.931 . S
H379 C375 0.930 . S
O380 Co369 2.039 . S
O380 C370 1.265 . S
C381 O377 1.253 . S
C381 O382 1.227 . S
O382 C381 1.227 . S
N383 Co369 2.140 . S
N383 C386 1.346 . S
N383 C387 1.345 . S
C384 C385 1.387 . S
C384 C388 1.391 . S
C385 C384 1.387 . S
C385 C386 1.369 . S
C385 H394 0.929 . S
C386 N383 1.346 . S
C386 C385 1.369 . S
C386 H389 0.928 . S
C387 N383 1.345 . S
C387 C388 1.371 . S
C387 H390 0.931 . S
C388 C384 1.391 . S
C388 C387 1.371 . S
C388 H395 0.930 . S
H389 C386 0.928 . S
H390 C387 0.931 . S
H391 C367 0.930 . S
H392 C364 0.930 . S
H393 C373 0.930 . S
H394 C385 0.929 . S
H395 C388 0.930 . S
C396 C397 1.349 . S
C396 C398 1.327 . S
C396 H421 0.950 . S
C397 C396 1.349 . S
C397 C413 1.349 . S
C398 C396 1.327 . S
C398 C417 1.429 . S
C398 H422 0.950 . S
C399 C416 1.574 . S
C399 C418 1.368 . S
C399 H423 0.949 . S
H400 C404 0.949 . S
C401 C402 1.349 . S
C401 C403 1.327 . S
C401 H424 0.950 . S
C402 C401 1.349 . S
C402 C414 1.349 . S
C403 C401 1.327 . S
C403 C419 1.429 . S
C403 H425 0.950 . S
C404 H400 0.949 . S
C404 C412 1.574 . S
C404 C420 1.368 . S
H405 C413 0.950 . S
H406 C411 0.950 . S
H407 C412 0.949 . S
H408 C414 0.950 . S
H409 C415 0.950 . S
H410 C416 0.949 . S
C411 H406 0.950 . S
C411 C413 1.327 . S
C411 C417 1.429 . S
C412 C404 1.574 . S
C412 H407 0.949 . S
C412 C418 1.368 . S
C413 C397 1.349 . S
C413 H405 0.950 . S
C413 C411 1.327 . S
C414 C402 1.349 . S
C414 H408 0.950 . S
C414 C415 1.327 . S
C415 H409 0.950 . S
C415 C414 1.327 . S
C415 C419 1.429 . S
C416 C399 1.574 . S
C416 H410 0.949 . S
C416 C420 1.368 . S
C417 C398 1.429 . S
C417 C411 1.429 . S
C417 C418 1.523 . S
C418 C399 1.368 . S
C418 C412 1.368 . S
C418 C417 1.523 . S
C419 C403 1.429 . S
C419 C415 1.429 . S
C419 C420 1.523 . S
C420 C404 1.368 . S
C420 C416 1.368 . S
C420 C419 1.523 . S
H421 C396 0.950 . S
H422 C398 0.950 . S
H423 C399 0.949 . S
H424 C401 0.950 . S
H425 C403 0.950 . S
C426 C427 1.349 . S
C426 C428 1.327 . S
C426 H451 0.950 . S
C427 C426 1.349 . S
C427 C443 1.349 . S
C428 C426 1.327 . S
C428 C447 1.429 . S
C428 H452 0.950 . S
C429 C446 1.574 . S
C429 C448 1.368 1_455 S
C429 H453 0.949 . S
H430 C434 0.949 . S
C431 C432 1.349 . S
C431 C433 1.327 . S
C431 H454 0.950 . S
C432 C431 1.349 . S
C432 C444 1.349 . S
C433 C431 1.327 . S
C433 C449 1.429 . S
C433 H455 0.950 . S
C434 H430 0.949 . S
C434 C442 1.574 . S
C434 C450 1.368 1_655 S
H435 C443 0.950 . S
H436 C441 0.950 . S
H437 C442 0.949 . S
H438 C444 0.950 . S
H439 C445 0.950 . S
H440 C446 0.949 . S
C441 H436 0.950 . S
C441 C443 1.327 . S
C441 C447 1.429 . S
C442 C434 1.574 . S
C442 H437 0.949 . S
C442 C448 1.368 . S
C443 C427 1.349 . S
C443 H435 0.950 . S
C443 C441 1.327 . S
C444 C432 1.349 . S
C444 H438 0.950 . S
C444 C445 1.327 . S
C445 H439 0.950 . S
C445 C444 1.327 . S
C445 C449 1.429 . S
C446 C429 1.574 . S
C446 H440 0.949 . S
C446 C450 1.368 . S
C447 C428 1.429 . S
C447 C441 1.429 . S
C447 C448 1.523 . S
C448 C429 1.368 1_655 S
C448 C442 1.368 . S
C448 C447 1.523 . S
C449 C433 1.429 . S
C449 C445 1.429 . S
C449 C450 1.523 . S
C450 C434 1.368 1_455 S
C450 C446 1.368 . S
C450 C449 1.523 . S
H451 C426 0.950 . S
H452 C428 0.950 . S
H453 C429 0.949 . S
H454 C431 0.950 . S
H455 C433 0.950 . S
C456 C457 1.349 . S
C456 C458 1.327 . S
C456 H481 0.950 . S
C457 C456 1.349 . S
C457 C473 1.349 . S
C458 C456 1.327 . S
C458 C477 1.429 . S
C458 H482 0.950 . S
C459 C476 1.574 . S
C459 C478 1.368 1_565 S
C459 H483 0.949 . S
H460 C464 0.949 . S
C461 C462 1.349 . S
C461 C463 1.327 . S
C461 H484 0.950 . S
C462 C461 1.349 . S
C462 C474 1.349 . S
C463 C461 1.327 . S
C463 C479 1.429 . S
C463 H485 0.950 . S
C464 H460 0.949 . S
C464 C472 1.574 . S
C464 C480 1.368 1_545 S
H465 C473 0.950 . S
H466 C471 0.950 . S
H467 C472 0.949 . S
H468 C474 0.950 . S
H469 C475 0.950 . S
H470 C476 0.949 . S
C471 H466 0.950 . S
C471 C473 1.327 . S
C471 C477 1.429 . S
C472 C464 1.574 . S
C472 H467 0.949 . S
C472 C478 1.368 . S
C473 C457 1.349 . S
C473 H465 0.950 . S
C473 C471 1.327 . S
C474 C462 1.349 . S
C474 H468 0.950 . S
C474 C475 1.327 . S
C475 H469 0.950 . S
C475 C474 1.327 . S
C475 C479 1.429 . S
C476 C459 1.574 . S
C476 H470 0.949 . S
C476 C480 1.368 . S
C477 C458 1.429 . S
C477 C471 1.429 . S
C477 C478 1.523 . S
C478 C459 1.368 1_545 S
C478 C472 1.368 . S
C478 C477 1.523 . S
C479 C463 1.429 . S
C479 C475 1.429 . S
C479 C480 1.523 . S
C480 C464 1.368 1_565 S
C480 C476 1.368 . S
C480 C479 1.523 . S
H481 C456 0.950 . S
H482 C458 0.950 . S
H483 C459 0.949 . S
H484 C461 0.950 . S
H485 C463 0.950 . S
C486 C487 1.349 . S
C486 C488 1.327 . S
C486 H511 0.950 . S
C487 C486 1.349 . S
C487 C503 1.349 . S
C488 C486 1.327 . S
C488 C507 1.429 . S
C488 H512 0.950 . S
C489 C506 1.574 . S
C489 C508 1.368 . S
C489 H513 0.949 . S
H490 C494 0.949 . S
C491 C492 1.349 . S
C491 C493 1.327 . S
C491 H514 0.950 . S
C492 C491 1.349 . S
C492 C504 1.349 . S
C493 C491 1.327 . S
C493 C509 1.429 . S
C493 H515 0.950 . S
C494 H490 0.949 . S
C494 C502 1.574 . S
C494 C510 1.368 . S
H495 C503 0.950 . S
H496 C501 0.950 . S
H497 C502 0.949 . S
H498 C504 0.950 . S
H499 C505 0.950 . S
H500 C506 0.949 . S
C501 H496 0.950 . S
C501 C503 1.327 . S
C501 C507 1.429 . S
C502 C494 1.574 . S
C502 H497 0.949 . S
C502 C508 1.368 . S
C503 C487 1.349 . S
C503 H495 0.950 . S
C503 C501 1.327 . S
C504 C492 1.349 . S
C504 H498 0.950 . S
C504 C505 1.327 . S
C505 H499 0.950 . S
C505 C504 1.327 . S
C505 C509 1.429 . S
C506 C489 1.574 . S
C506 H500 0.949 . S
C506 C510 1.368 . S
C507 C488 1.429 . S
C507 C501 1.429 . S
C507 C508 1.523 . S
C508 C489 1.368 . S
C508 C502 1.368 . S
C508 C507 1.523 . S
C509 C493 1.429 . S
C509 C505 1.429 . S
C509 C510 1.523 . S
C510 C494 1.368 . S
C510 C506 1.368 . S
C510 C509 1.523 . S
H511 C486 0.950 . S
H512 C488 0.950 . S
H513 C489 0.949 . S
H514 C491 0.950 . S
H515 C493 0.950 . S
C516 C517 1.349 . S
C516 C518 1.327 . S
C516 H541 0.950 . S
C517 C516 1.349 . S
C517 C533 1.349 . S
C518 C516 1.327 . S
C518 C537 1.429 . S
C518 H542 0.950 . S
C519 C536 1.574 . S
C519 C538 1.368 1_655 S
C519 H543 0.949 . S
H520 C524 0.949 . S
C521 C522 1.349 . S
C521 C523 1.327 . S
C521 H544 0.950 . S
C522 C521 1.349 . S
C522 C534 1.349 . S
C523 C521 1.327 . S
C523 C539 1.429 . S
C523 H545 0.950 . S
C524 H520 0.949 . S
C524 C532 1.574 . S
C524 C540 1.368 1_455 S
H525 C533 0.950 . S
H526 C531 0.950 . S
H527 C532 0.949 . S
H528 C534 0.950 . S
H529 C535 0.950 . S
H530 C536 0.949 . S
C531 H526 0.950 . S
C531 C533 1.327 . S
C531 C537 1.429 . S
C532 C524 1.574 . S
C532 H527 0.949 . S
C532 C538 1.368 . S
C533 C517 1.349 . S
C533 H525 0.950 . S
C533 C531 1.327 . S
C534 C522 1.349 . S
C534 H528 0.950 . S
C534 C535 1.327 . S
C535 H529 0.950 . S
C535 C534 1.327 . S
C535 C539 1.429 . S
C536 C519 1.574 . S
C536 H530 0.949 . S
C536 C540 1.368 . S
C537 C518 1.429 . S
C537 C531 1.429 . S
C537 C538 1.523 . S
C538 C519 1.368 1_455 S
C538 C532 1.368 . S
C538 C537 1.523 . S
C539 C523 1.429 . S
C539 C535 1.429 . S
C539 C540 1.523 . S
C540 C524 1.368 1_655 S
C540 C536 1.368 . S
C540 C539 1.523 . S
H541 C516 0.950 . S
H542 C518 0.950 . S
H543 C519 0.949 . S
H544 C521 0.950 . S
H545 C523 0.950 . S
C546 C547 1.349 . S
C546 C548 1.327 . S
C546 H571 0.950 . S
C547 C546 1.349 . S
C547 C563 1.349 . S
C548 C546 1.327 . S
C548 C567 1.429 . S
C548 H572 0.950 . S
C549 C566 1.574 . S
C549 C568 1.368 . S
C549 H573 0.949 . S
H550 C554 0.949 . S
C551 C552 1.349 . S
C551 C553 1.327 . S
C551 H574 0.950 . S
C552 C551 1.349 . S
C552 C564 1.349 . S
C553 C551 1.327 . S
C553 C569 1.429 . S
C553 H575 0.950 . S
C554 H550 0.949 . S
C554 C562 1.574 . S
C554 C570 1.368 . S
H555 C563 0.950 . S
H556 C561 0.950 . S
H557 C562 0.949 . S
H558 C564 0.950 . S
H559 C565 0.950 . S
H560 C566 0.949 . S
C561 H556 0.950 . S
C561 C563 1.327 . S
C561 C567 1.429 . S
C562 C554 1.574 . S
C562 H557 0.949 . S
C562 C568 1.368 1_545 S
C563 C547 1.349 . S
C563 H555 0.950 . S
C563 C561 1.327 . S
C564 C552 1.349 . S
C564 H558 0.950 . S
C564 C565 1.327 . S
C565 H559 0.950 . S
C565 C564 1.327 . S
C565 C569 1.429 . S
C566 C549 1.574 . S
C566 H560 0.949 . S
C566 C570 1.368 1_565 S
C567 C548 1.429 . S
C567 C561 1.429 . S
C567 C568 1.523 . S
C568 C549 1.368 . S
C568 C562 1.368 1_565 S
C568 C567 1.523 . S
C569 C553 1.429 . S
C569 C565 1.429 . S
C569 C570 1.523 . S
C570 C554 1.368 . S
C570 C566 1.368 1_545 S
C570 C569 1.523 . S
H571 C546 0.950 . S
H572 C548 0.950 . S
H573 C549 0.949 . S
H574 C551 0.950 . S
H575 C553 0.950 . S
C576 C577 1.349 . S
C576 C578 1.327 . S
C576 H601 0.950 . S
C577 C576 1.349 . S
C577 C593 1.349 . S
C578 C576 1.327 . S
C578 C597 1.429 . S
C578 H602 0.950 . S
C579 C596 1.574 1_554 S
C579 C598 1.368 . S
C579 H603 0.949 . S
H580 C584 0.949 . S
C581 C582 1.349 . S
C581 C583 1.327 . S
C581 H604 0.950 . S
C582 C581 1.349 . S
C582 C594 1.349 . S
C583 C581 1.327 . S
C583 C599 1.429 . S
C583 H605 0.950 . S
C584 H580 0.949 . S
C584 C592 1.574 1_556 S
C584 C600 1.368 . S
H585 C593 0.950 . S
H586 C591 0.950 . S
H587 C592 0.949 . S
H588 C594 0.950 . S
H589 C595 0.950 . S
H590 C596 0.949 . S
C591 H586 0.950 . S
C591 C593 1.327 . S
C591 C597 1.429 . S
C592 C584 1.574 1_554 S
C592 H587 0.949 . S
C592 C598 1.368 . S
C593 C577 1.349 . S
C593 H585 0.950 . S
C593 C591 1.327 . S
C594 C582 1.349 . S
C594 H588 0.950 . S
C594 C595 1.327 . S
C595 H589 0.950 . S
C595 C594 1.327 . S
C595 C599 1.429 . S
C596 C579 1.574 1_556 S
C596 H590 0.949 . S
C596 C600 1.368 . S
C597 C578 1.429 . S
C597 C591 1.429 . S
C597 C598 1.523 . S
C598 C579 1.368 . S
C598 C592 1.368 . S
C598 C597 1.523 . S
C599 C583 1.429 . S
C599 C595 1.429 . S
C599 C600 1.523 . S
C600 C584 1.368 . S
C600 C596 1.368 . S
C600 C599 1.523 . S
H601 C576 0.950 . S
H602 C578 0.950 . S
H603 C579 0.949 . S
H604 C581 0.950 . S
H605 C583 0.950 . S
C606 C607 1.349 . S
C606 C608 1.327 . S
C606 H631 0.950 . S
C607 C606 1.349 . S
C607 C623 1.349 . S
C608 C606 1.327 . S
C608 C627 1.429 . S
C608 H632 0.950 . S
C609 C626 1.574 . S
C609 C628 1.368 . S
C609 H633 0.949 . S
H610 C614 0.949 . S
C611 C612 1.349 . S
C611 C613 1.327 . S
C611 H634 0.950 . S
C612 C611 1.349 . S
C612 C624 1.349 . S
C613 C611 1.327 . S
C613 C629 1.429 . S
C613 H635 0.950 . S
C614 H610 0.949 . S
C614 C622 1.574 . S
C614 C630 1.368 . S
H615 C623 0.950 . S
H616 C621 0.950 . S
H617 C622 0.949 . S
H618 C624 0.950 . S
H619 C625 0.950 . S
H620 C626 0.949 . S
C621 H616 0.950 . S
C621 C623 1.327 . S
C621 C627 1.429 . S
C622 C614 1.574 . S
C622 H617 0.949 . S
C622 C628 1.368 . S
C623 C607 1.349 . S
C623 H615 0.950 . S
C623 C621 1.327 . S
C624 C612 1.349 . S
C624 H618 0.950 . S
C624 C625 1.327 . S
C625 H619 0.950 . S
C625 C624 1.327 . S
C625 C629 1.429 . S
C626 C609 1.574 . S
C626 H620 0.949 . S
C626 C630 1.368 . S
C627 C608 1.429 . S
C627 C621 1.429 . S
C627 C628 1.523 . S
C628 C609 1.368 . S
C628 C622 1.368 . S
C628 C627 1.523 . S
C629 C613 1.429 . S
C629 C625 1.429 . S
C629 C630 1.523 . S
C630 C614 1.368 . S
C630 C626 1.368 . S
C630 C629 1.523 . S
H631 C606 0.950 . S
H632 C608 0.950 . S
H633 C609 0.949 . S
H634 C611 0.950 . S
H635 C613 0.950 . S
C636 C637 1.349 . S
C636 C638 1.327 . S
C636 H661 0.950 . S
C637 C636 1.349 . S
C637 C653 1.349 . S
C638 C636 1.327 . S
C638 C657 1.429 . S
C638 H662 0.950 . S
C639 C656 1.574 . S
C639 C658 1.368 . S
C639 H663 0.949 . S
H640 C644 0.949 . S
C641 C642 1.349 . S
C641 C643 1.327 . S
C641 H664 0.950 . S
C642 C641 1.349 . S
C642 C654 1.349 . S
C643 C641 1.327 . S
C643 C659 1.429 . S
C643 H665 0.950 . S
C644 H640 0.949 . S
C644 C652 1.574 . S
C644 C660 1.368 . S
H645 C653 0.950 . S
H646 C651 0.950 . S
H647 C652 0.949 . S
H648 C654 0.950 . S
H649 C655 0.950 . S
H650 C656 0.949 . S
C651 H646 0.950 . S
C651 C653 1.327 . S
C651 C657 1.429 . S
C652 C644 1.574 . S
C652 H647 0.949 . S
C652 C658 1.368 . S
C653 C637 1.349 . S
C653 H645 0.950 . S
C653 C651 1.327 . S
C654 C642 1.349 . S
C654 H648 0.950 . S
C654 C655 1.327 . S
C655 H649 0.950 . S
C655 C654 1.327 . S
C655 C659 1.429 . S
C656 C639 1.574 . S
C656 H650 0.949 . S
C656 C660 1.368 . S
C657 C638 1.429 . S
C657 C651 1.429 . S
C657 C658 1.523 . S
C658 C639 1.368 . S
C658 C652 1.368 . S
C658 C657 1.523 . S
C659 C643 1.429 . S
C659 C655 1.429 . S
C659 C660 1.523 . S
C660 C644 1.368 . S
C660 C656 1.368 . S
C660 C659 1.523 . S
H661 C636 0.950 . S
H662 C638 0.950 . S
H663 C639 0.949 . S
H664 C641 0.950 . S
H665 C643 0.950 . S
C666 C667 1.349 . S
C666 C668 1.327 . S
C666 H691 0.950 . S
C667 C666 1.349 . S
C667 C683 1.349 . S
C668 C666 1.327 . S
C668 C687 1.429 . S
C668 H692 0.950 . S
C669 C686 1.574 1_554 S
C669 C688 1.368 . S
C669 H693 0.949 . S
H670 C674 0.949 . S
C671 C672 1.349 . S
C671 C673 1.327 . S
C671 H694 0.950 . S
C672 C671 1.349 . S
C672 C684 1.349 . S
C673 C671 1.327 . S
C673 C689 1.429 . S
C673 H695 0.950 . S
C674 H670 0.949 . S
C674 C682 1.574 1_556 S
C674 C690 1.368 . S
H675 C683 0.950 . S
H676 C681 0.950 . S
H677 C682 0.949 . S
H678 C684 0.950 . S
H679 C685 0.950 . S
H680 C686 0.949 . S
C681 H676 0.950 . S
C681 C683 1.327 . S
C681 C687 1.429 . S
C682 C674 1.574 1_554 S
C682 H677 0.949 . S
C682 C688 1.368 . S
C683 C667 1.349 . S
C683 H675 0.950 . S
C683 C681 1.327 . S
C684 C672 1.349 . S
C684 H678 0.950 . S
C684 C685 1.327 . S
C685 H679 0.950 . S
C685 C684 1.327 . S
C685 C689 1.429 . S
C686 C669 1.574 1_556 S
C686 H680 0.949 . S
C686 C690 1.368 . S
C687 C668 1.429 . S
C687 C681 1.429 . S
C687 C688 1.523 . S
C688 C669 1.368 . S
C688 C682 1.368 . S
C688 C687 1.523 . S
C689 C673 1.429 . S
C689 C685 1.429 . S
C689 C690 1.523 . S
C690 C674 1.368 . S
C690 C686 1.368 . S
C690 C689 1.523 . S
H691 C666 0.950 . S
H692 C668 0.950 . S
H693 C669 0.949 . S
H694 C671 0.950 . S
H695 C673 0.950 . S
C696 C697 1.349 . S
C696 C698 1.327 . S
C696 H721 0.950 . S
C697 C696 1.349 . S
C697 C713 1.349 . S
C698 C696 1.327 . S
C698 C717 1.429 . S
C698 H722 0.950 . S
C699 C716 1.574 . S
C699 C718 1.368 . S
C699 H723 0.949 . S
H700 C704 0.949 . S
C701 C702 1.349 . S
C701 C703 1.327 . S
C701 H724 0.950 . S
C702 C701 1.349 . S
C702 C714 1.349 . S
C703 C701 1.327 . S
C703 C719 1.429 . S
C703 H725 0.950 . S
C704 H700 0.949 . S
C704 C712 1.574 . S
C704 C720 1.368 . S
H705 C713 0.950 . S
H706 C711 0.950 . S
H707 C712 0.949 . S
H708 C714 0.950 . S
H709 C715 0.950 . S
H710 C716 0.949 . S
C711 H706 0.950 . S
C711 C713 1.327 . S
C711 C717 1.429 . S
C712 C704 1.574 . S
C712 H707 0.949 . S
C712 C718 1.368 . S
C713 C697 1.349 . S
C713 H705 0.950 . S
C713 C711 1.327 . S
C714 C702 1.349 . S
C714 H708 0.950 . S
C714 C715 1.327 . S
C715 H709 0.950 . S
C715 C714 1.327 . S
C715 C719 1.429 . S
C716 C699 1.574 . S
C716 H710 0.949 . S
C716 C720 1.368 . S
C717 C698 1.429 . S
C717 C711 1.429 . S
C717 C718 1.523 . S
C718 C699 1.368 . S
C718 C712 1.368 . S
C718 C717 1.523 . S
C719 C703 1.429 . S
C719 C715 1.429 . S
C719 C720 1.523 . S
C720 C704 1.368 . S
C720 C716 1.368 . S
C720 C719 1.523 . S
H721 C696 0.950 . S
H722 C698 0.950 . S
H723 C699 0.949 . S
H724 C701 0.950 . S
H725 C703 0.950 . S
C726 C727 1.349 . S
C726 C728 1.327 . S
C726 H751 0.950 . S
C727 C726 1.349 . S
C727 C743 1.349 . S
C728 C726 1.327 . S
C728 C747 1.429 . S
C728 H752 0.950 . S
C729 C746 1.574 . S
C729 C748 1.368 . S
C729 H753 0.949 . S
H730 C734 0.949 . S
C731 C732 1.349 . S
C731 C733 1.327 . S
C731 H754 0.950 . S
C732 C731 1.349 . S
C732 C744 1.349 . S
C733 C731 1.327 . S
C733 C749 1.429 . S
C733 H755 0.950 . S
C734 H730 0.949 . S
C734 C742 1.574 . S
C734 C750 1.368 . S
H735 C743 0.950 . S
H736 C741 0.950 . S
H737 C742 0.949 . S
H738 C744 0.950 . S
H739 C745 0.950 . S
H740 C746 0.949 . S
C741 H736 0.950 . S
C741 C743 1.327 . S
C741 C747 1.429 . S
C742 C734 1.574 . S
C742 H737 0.949 . S
C742 C748 1.368 . S
C743 C727 1.349 . S
C743 H735 0.950 . S
C743 C741 1.327 . S
C744 C732 1.349 . S
C744 H738 0.950 . S
C744 C745 1.327 . S
C745 H739 0.950 . S
C745 C744 1.327 . S
C745 C749 1.429 . S
C746 C729 1.574 . S
C746 H740 0.949 . S
C746 C750 1.368 . S
C747 C728 1.429 . S
C747 C741 1.429 . S
C747 C748 1.523 . S
C748 C729 1.368 . S
C748 C742 1.368 . S
C748 C747 1.523 . S
C749 C733 1.429 . S
C749 C745 1.429 . S
C749 C750 1.523 . S
C750 C734 1.368 . S
C750 C746 1.368 . S
C750 C749 1.523 . S
H751 C726 0.950 . S
H752 C728 0.950 . S
H753 C729 0.949 . S
H754 C731 0.950 . S
H755 C733 0.950 . S
C756 C757 1.349 . S
C756 C758 1.327 . S
C756 H781 0.950 . S
C757 C756 1.349 . S
C757 C773 1.349 . S
C758 C756 1.327 . S
C758 C777 1.429 . S
C758 H782 0.950 . S
C759 C776 1.574 . S
C759 C778 1.368 . S
C759 H783 0.949 . S
H760 C764 0.949 . S
C761 C762 1.349 . S
C761 C763 1.327 . S
C761 H784 0.950 . S
C762 C761 1.349 . S
C762 C774 1.349 . S
C763 C761 1.327 . S
C763 C779 1.429 . S
C763 H785 0.950 . S
C764 H760 0.949 . S
C764 C772 1.574 . S
C764 C780 1.368 . S
H765 C773 0.950 . S
H766 C771 0.950 . S
H767 C772 0.949 . S
H768 C774 0.950 . S
H769 C775 0.950 . S
H770 C776 0.949 . S
C771 H766 0.950 . S
C771 C773 1.327 . S
C771 C777 1.429 . S
C772 C764 1.574 . S
C772 H767 0.949 . S
C772 C778 1.368 . S
C773 C757 1.349 . S
C773 H765 0.950 . S
C773 C771 1.327 . S
C774 C762 1.349 . S
C774 H768 0.950 . S
C774 C775 1.327 . S
C775 H769 0.950 . S
C775 C774 1.327 . S
C775 C779 1.429 . S
C776 C759 1.574 . S
C776 H770 0.949 . S
C776 C780 1.368 . S
C777 C758 1.429 . S
C777 C771 1.429 . S
C777 C778 1.523 . S
C778 C759 1.368 . S
C778 C772 1.368 . S
C778 C777 1.523 . S
C779 C763 1.429 . S
C779 C775 1.429 . S
C779 C780 1.523 . S
C780 C764 1.368 . S
C780 C776 1.368 . S
C780 C779 1.523 . S
H781 C756 0.950 . S
H782 C758 0.950 . S
H783 C759 0.949 . S
H784 C761 0.950 . S
H785 C763 0.950 . S
C786 C787 1.349 . S
C786 C788 1.327 . S
C786 H811 0.950 . S
C787 C786 1.349 . S
C787 C803 1.349 . S
C788 C786 1.327 . S
C788 C807 1.429 . S
C788 H812 0.950 . S
C789 C806 1.574 1_655 S
C789 C808 1.368 . S
C789 H813 0.949 . S
H790 C794 0.949 . S
C791 C792 1.349 . S
C791 C793 1.327 . S
C791 H814 0.950 . S
C792 C791 1.349 . S
C792 C804 1.349 . S
C793 C791 1.327 . S
C793 C809 1.429 . S
C793 H815 0.950 . S
C794 H790 0.949 . S
C794 C802 1.574 1_455 S
C794 C810 1.368 . S
H795 C803 0.950 . S
H796 C801 0.950 . S
H797 C802 0.949 . S
H798 C804 0.950 . S
H799 C805 0.950 . S
H800 C806 0.949 . S
C801 H796 0.950 . S
C801 C803 1.327 . S
C801 C807 1.429 . S
C802 C794 1.574 1_655 S
C802 H797 0.949 . S
C802 C808 1.368 . S
C803 C787 1.349 . S
C803 H795 0.950 . S
C803 C801 1.327 . S
C804 C792 1.349 . S
C804 H798 0.950 . S
C804 C805 1.327 . S
C805 H799 0.950 . S
C805 C804 1.327 . S
C805 C809 1.429 . S
C806 C789 1.574 1_455 S
C806 H800 0.949 . S
C806 C810 1.368 . S
C807 C788 1.429 . S
C807 C801 1.429 . S
C807 C808 1.523 . S
C808 C789 1.368 . S
C808 C802 1.368 . S
C808 C807 1.523 . S
C809 C793 1.429 . S
C809 C805 1.429 . S
C809 C810 1.523 . S
C810 C794 1.368 . S
C810 C806 1.368 . S
C810 C809 1.523 . S
H811 C786 0.950 . S
H812 C788 0.950 . S
H813 C789 0.949 . S
H814 C791 0.950 . S
H815 C793 0.950 . S
C816 C817 1.349 . S
C816 C818 1.327 . S
C816 H841 0.950 . S
C817 C816 1.349 . S
C817 C833 1.349 . S
C818 C816 1.327 . S
C818 C837 1.429 . S
C818 H842 0.950 . S
C819 C836 1.548 1_566 S
C819 C838 1.379 . S
C819 H843 0.946 . S
H820 C824 0.945 . S
C821 C822 1.349 . S
C821 C823 1.327 . S
C821 H844 0.950 . S
C822 C821 1.349 . S
C822 C834 1.349 . S
C823 C821 1.327 . S
C823 C839 1.429 . S
C823 H845 0.950 . S
C824 H820 0.945 . S
C824 C832 1.548 1_544 S
C824 C840 1.380 . S
H825 C833 0.950 . S
H826 C831 0.950 . S
H827 C832 0.951 . S
H828 C834 0.950 . S
H829 C835 0.950 . S
H830 C836 0.951 . S
C831 H826 0.950 . S
C831 C833 1.327 . S
C831 C837 1.429 . S
C832 C824 1.548 1_566 S
C832 H827 0.951 . S
C832 C838 1.386 . S
C833 C817 1.349 . S
C833 H825 0.950 . S
C833 C831 1.327 . S
C834 C822 1.349 . S
C834 H828 0.950 . S
C834 C835 1.327 . S
C835 H829 0.950 . S
C835 C834 1.327 . S
C835 C839 1.429 . S
C836 C819 1.548 1_544 S
C836 H830 0.951 . S
C836 C840 1.386 . S
C837 C818 1.429 . S
C837 C831 1.429 . S
C837 C838 1.523 . S
C838 C819 1.379 . S
C838 C832 1.386 . S
C838 C837 1.523 . S
C839 C823 1.429 . S
C839 C835 1.429 . S
C839 C840 1.523 . S
C840 C824 1.380 . S
C840 C836 1.386 . S
C840 C839 1.523 . S
H841 C816 0.950 . S
H842 C818 0.950 . S
H843 C819 0.946 . S
H844 C821 0.950 . S
H845 C823 0.950 . S
C846 C847 1.349 . S
C846 C848 1.327 . S
C846 H871 0.950 . S
C847 C846 1.349 . S
C847 C863 1.349 . S
C848 C846 1.327 . S
C848 C867 1.429 . S
C848 H872 0.950 . S
C849 C866 1.574 . S
C849 C868 1.368 . S
C849 H873 0.949 . S
H850 C854 0.949 . S
C851 C852 1.349 . S
C851 C853 1.327 . S
C851 H874 0.950 . S
C852 C851 1.349 . S
C852 C864 1.349 . S
C853 C851 1.327 . S
C853 C869 1.429 . S
C853 H875 0.950 . S
C854 H850 0.949 . S
C854 C862 1.574 . S
C854 C870 1.368 . S
H855 C863 0.950 . S
H856 C861 0.950 . S
H857 C862 0.949 . S
H858 C864 0.950 . S
H859 C865 0.950 . S
H860 C866 0.949 . S
C861 H856 0.950 . S
C861 C863 1.327 . S
C861 C867 1.429 . S
C862 C854 1.574 . S
C862 H857 0.949 . S
C862 C868 1.368 . S
C863 C847 1.349 . S
C863 H855 0.950 . S
C863 C861 1.327 . S
C864 C852 1.349 . S
C864 H858 0.950 . S
C864 C865 1.327 . S
C865 H859 0.950 . S
C865 C864 1.327 . S
C865 C869 1.429 . S
C866 C849 1.574 . S
C866 H860 0.949 . S
C866 C870 1.368 . S
C867 C848 1.429 . S
C867 C861 1.429 . S
C867 C868 1.523 . S
C868 C849 1.368 . S
C868 C862 1.368 . S
C868 C867 1.523 . S
C869 C853 1.429 . S
C869 C865 1.429 . S
C869 C870 1.523 . S
C870 C854 1.368 . S
C870 C866 1.368 . S
C870 C869 1.523 . S
H871 C846 0.950 . S
H872 C848 0.950 . S
H873 C849 0.949 . S
H874 C851 0.950 . S
H875 C853 0.950 . S
C876 C877 1.349 . S
C876 C878 1.327 . S
C876 H901 0.950 . S
C877 C876 1.349 . S
C877 C893 1.349 . S
C878 C876 1.327 . S
C878 C897 1.429 . S
C878 H902 0.950 . S
C879 C896 1.574 . S
C879 C898 1.368 1_455 S
C879 H903 0.949 . S
H880 C884 0.949 . S
C881 C882 1.349 . S
C881 C883 1.327 . S
C881 H904 0.950 . S
C882 C881 1.349 . S
C882 C894 1.349 . S
C883 C881 1.327 . S
C883 C899 1.429 . S
C883 H905 0.950 . S
C884 H880 0.949 . S
C884 C892 1.574 . S
C884 C900 1.368 1_655 S
H885 C893 0.950 . S
H886 C891 0.950 . S
H887 C892 0.949 . S
H888 C894 0.950 . S
H889 C895 0.950 . S
H890 C896 0.949 . S
C891 H886 0.950 . S
C891 C893 1.327 . S
C891 C897 1.429 . S
C892 C884 1.574 . S
C892 H887 0.949 . S
C892 C898 1.368 . S
C893 C877 1.349 . S
C893 H885 0.950 . S
C893 C891 1.327 . S
C894 C882 1.349 . S
C894 H888 0.950 . S
C894 C895 1.327 . S
C895 H889 0.950 . S
C895 C894 1.327 . S
C895 C899 1.429 . S
C896 C879 1.574 . S
C896 H890 0.949 . S
C896 C900 1.368 . S
C897 C878 1.429 . S
C897 C891 1.429 . S
C897 C898 1.523 . S
C898 C879 1.368 1_655 S
C898 C892 1.368 . S
C898 C897 1.523 . S
C899 C883 1.429 . S
C899 C895 1.429 . S
C899 C900 1.523 . S
C900 C884 1.368 1_455 S
C900 C896 1.368 . S
C900 C899 1.523 . S
H901 C876 0.950 . S
H902 C878 0.950 . S
H903 C879 0.949 . S
H904 C881 0.950 . S
H905 C883 0.950 . S
C906 C907 1.349 . S
C906 C908 1.327 . S
C906 H931 0.950 . S
C907 C906 1.349 . S
C907 C923 1.349 . S
C908 C906 1.327 . S
C908 C927 1.429 . S
C908 H932 0.950 . S
C909 C926 1.574 . S
C909 C928 1.368 1_556 S
C909 H933 0.949 . S
H910 C914 0.949 . S
C911 C912 1.349 . S
C911 C913 1.327 . S
C911 H934 0.950 . S
C912 C911 1.349 . S
C912 C924 1.349 . S
C913 C911 1.327 . S
C913 C929 1.429 . S
C913 H935 0.950 . S
C914 H910 0.949 . S
C914 C922 1.574 . S
C914 C930 1.368 1_554 S
H915 C923 0.950 . S
H916 C921 0.950 . S
H917 C922 0.949 . S
H918 C924 0.950 . S
H919 C925 0.950 . S
H920 C926 0.949 . S
C921 H916 0.950 . S
C921 C923 1.327 . S
C921 C927 1.429 . S
C922 C914 1.574 . S
C922 H917 0.949 . S
C922 C928 1.368 1_545 S
C923 C907 1.349 . S
C923 H915 0.950 . S
C923 C921 1.327 . S
C924 C912 1.349 . S
C924 H918 0.950 . S
C924 C925 1.327 . S
C925 H919 0.950 . S
C925 C924 1.327 . S
C925 C929 1.429 . S
C926 C909 1.574 . S
C926 H920 0.949 . S
C926 C930 1.368 1_565 S
C927 C908 1.429 . S
C927 C921 1.429 . S
C927 C928 1.523 . S
C928 C909 1.368 1_554 S
C928 C922 1.368 1_565 S
C928 C927 1.523 . S
C929 C913 1.429 . S
C929 C925 1.429 . S
C929 C930 1.523 . S
C930 C914 1.368 1_556 S
C930 C926 1.368 1_545 S
C930 C929 1.523 . S
H931 C906 0.950 . S
H932 C908 0.950 . S
H933 C909 0.949 . S
H934 C911 0.950 . S
H935 C913 0.950 . S
C936 C937 1.349 . S
C936 C938 1.327 . S
C936 H961 0.950 . S
C937 C936 1.349 . S
C937 C953 1.349 . S
C938 C936 1.327 . S
C938 C957 1.429 . S
C938 H962 0.950 . S
C939 C956 1.574 . S
C939 C958 1.368 . S
C939 H963 0.949 . S
H940 C944 0.949 . S
C941 C942 1.349 . S
C941 C943 1.327 . S
C941 H964 0.950 . S
C942 C941 1.349 . S
C942 C954 1.349 . S
C943 C941 1.327 . S
C943 C959 1.429 . S
C943 H965 0.950 . S
C944 H940 0.949 . S
C944 C952 1.574 . S
C944 C960 1.368 . S
H945 C953 0.950 . S
H946 C951 0.950 . S
H947 C952 0.949 . S
H948 C954 0.950 . S
H949 C955 0.950 . S
H950 C956 0.949 . S
C951 H946 0.950 . S
C951 C953 1.327 . S
C951 C957 1.429 . S
C952 C944 1.574 . S
C952 H947 0.949 . S
C952 C958 1.368 . S
C953 C937 1.349 . S
C953 H945 0.950 . S
C953 C951 1.327 . S
C954 C942 1.349 . S
C954 H948 0.950 . S
C954 C955 1.327 . S
C955 H949 0.950 . S
C955 C954 1.327 . S
C955 C959 1.429 . S
C956 C939 1.574 . S
C956 H950 0.949 . S
C956 C960 1.368 . S
C957 C938 1.429 . S
C957 C951 1.429 . S
C957 C958 1.523 . S
C958 C939 1.368 . S
C958 C952 1.368 . S
C958 C957 1.523 . S
C959 C943 1.429 . S
C959 C955 1.429 . S
C959 C960 1.523 . S
C960 C944 1.368 . S
C960 C956 1.368 . S
C960 C959 1.523 . S
H961 C936 0.950 . S
H962 C938 0.950 . S
H963 C939 0.949 . S
H964 C941 0.950 . S
H965 C943 0.950 . S
C966 C967 1.349 . S
C966 C968 1.327 . S
C966 H991 0.950 . S
C967 C966 1.349 . S
C967 C983 1.349 . S
C968 C966 1.327 . S
C968 C987 1.429 . S
C968 H992 0.950 . S
C969 C986 1.574 . S
C969 C988 1.368 . S
C969 H993 0.949 . S
H970 C974 0.949 . S
C971 C972 1.349 . S
C971 C973 1.327 . S
C971 H994 0.950 . S
C972 C971 1.349 . S
C972 C984 1.349 . S
C973 C971 1.327 . S
C973 C989 1.429 . S
C973 H995 0.950 . S
C974 H970 0.949 . S
C974 C982 1.574 . S
C974 C990 1.368 . S
H975 C983 0.950 . S
H976 C981 0.950 . S
H977 C982 0.949 . S
H978 C984 0.950 . S
H979 C985 0.950 . S
H980 C986 0.949 . S
C981 H976 0.950 . S
C981 C983 1.327 . S
C981 C987 1.429 . S
C982 C974 1.574 . S
C982 H977 0.949 . S
C982 C988 1.368 . S
C983 C967 1.349 . S
C983 H975 0.950 . S
C983 C981 1.327 . S
C984 C972 1.349 . S
C984 H978 0.950 . S
C984 C985 1.327 . S
C985 H979 0.950 . S
C985 C984 1.327 . S
C985 C989 1.429 . S
C986 C969 1.574 . S
C986 H980 0.949 . S
C986 C990 1.368 . S
C987 C968 1.429 . S
C987 C981 1.429 . S
C987 C988 1.523 . S
C988 C969 1.368 . S
C988 C982 1.368 . S
C988 C987 1.523 . S
C989 C973 1.429 . S
C989 C985 1.429 . S
C989 C990 1.523 . S
C990 C974 1.368 . S
C990 C986 1.368 . S
C990 C989 1.523 . S
H991 C966 0.950 . S
H992 C968 0.950 . S
H993 C969 0.949 . S
H994 C971 0.950 . S
H995 C973 0.950 . S
C996 C997 1.349 . S
C996 C998 1.327 . S
C996 H1021 0.950 . S
C997 C996 1.349 . S
C997 C1013 1.349 . S
C998 C996 1.327 . S
C998 C1017 1.429 . S
C998 H1022 0.950 . S
C999 C1016 1.574 . S
C999 C1018 1.368 . S
C999 H1023 0.949 . S
H1000 C1004 0.949 . S
C1001 C1002 1.349 . S
C1001 C1003 1.327 . S
C1001 H1024 0.950 . S
C1002 C1001 1.349 . S
C1002 C1014 1.349 . S
C1003 C1001 1.327 . S
C1003 C1019 1.429 . S
C1003 H1025 0.950 . S
C1004 H1000 0.949 . S
C1004 C1012 1.574 . S
C1004 C1020 1.368 . S
H1005 C1013 0.950 . S
H1006 C1011 0.950 . S
H1007 C1012 0.949 . S
H1008 C1014 0.950 . S
H1009 C1015 0.950 . S
H1010 C1016 0.949 . S
C1011 H1006 0.950 . S
C1011 C1013 1.327 . S
C1011 C1017 1.429 . S
C1012 C1004 1.574 . S
C1012 H1007 0.949 . S
C1012 C1018 1.368 1_556 S
C1013 C997 1.349 . S
C1013 H1005 0.950 . S
C1013 C1011 1.327 . S
C1014 C1002 1.349 . S
C1014 H1008 0.950 . S
C1014 C1015 1.327 . S
C1015 H1009 0.950 . S
C1015 C1014 1.327 . S
C1015 C1019 1.429 . S
C1016 C999 1.574 . S
C1016 H1010 0.949 . S
C1016 C1020 1.368 1_554 S
C1017 C998 1.429 . S
C1017 C1011 1.429 . S
C1017 C1018 1.523 . S
C1018 C999 1.368 . S
C1018 C1012 1.368 1_554 S
C1018 C1017 1.523 . S
C1019 C1003 1.429 . S
C1019 C1015 1.429 . S
C1019 C1020 1.523 . S
C1020 C1004 1.368 . S
C1020 C1016 1.368 1_556 S
C1020 C1019 1.523 . S
H1021 C996 0.950 . S
H1022 C998 0.950 . S
H1023 C999 0.949 . S
H1024 C1001 0.950 . S
H1025 C1003 0.950 . S
C1026 C1027 1.349 . S
C1026 C1028 1.327 . S
C1026 H1051 0.950 . S
C1027 C1026 1.349 . S
C1027 C1043 1.349 . S
C1028 C1026 1.327 . S
C1028 C1047 1.429 . S
C1028 H1052 0.950 . S
C1029 C1046 1.574 . S
C1029 C1048 1.368 . S
C1029 H1053 0.949 . S
H1030 C1034 0.949 . S
C1031 C1032 1.349 . S
C1031 C1033 1.327 . S
C1031 H1054 0.950 . S
C1032 C1031 1.349 . S
C1032 C1044 1.349 . S
C1033 C1031 1.327 . S
C1033 C1049 1.429 . S
C1033 H1055 0.950 . S
C1034 H1030 0.949 . S
C1034 C1042 1.574 . S
C1034 C1050 1.368 . S
H1035 C1043 0.950 . S
H1036 C1041 0.950 . S
H1037 C1042 0.949 . S
H1038 C1044 0.950 . S
H1039 C1045 0.950 . S
H1040 C1046 0.949 . S
C1041 H1036 0.950 . S
C1041 C1043 1.327 . S
C1041 C1047 1.429 . S
C1042 C1034 1.574 . S
C1042 H1037 0.949 . S
C1042 C1048 1.368 . S
C1043 C1027 1.349 . S
C1043 H1035 0.950 . S
C1043 C1041 1.327 . S
C1044 C1032 1.349 . S
C1044 H1038 0.950 . S
C1044 C1045 1.327 . S
C1045 H1039 0.950 . S
C1045 C1044 1.327 . S
C1045 C1049 1.429 . S
C1046 C1029 1.574 . S
C1046 H1040 0.949 . S
C1046 C1050 1.368 . S
C1047 C1028 1.429 . S
C1047 C1041 1.429 . S
C1047 C1048 1.523 . S
C1048 C1029 1.368 . S
C1048 C1042 1.368 . S
C1048 C1047 1.523 . S
C1049 C1033 1.429 . S
C1049 C1045 1.429 . S
C1049 C1050 1.523 . S
C1050 C1034 1.368 . S
C1050 C1046 1.368 . S
C1050 C1049 1.523 . S
H1051 C1026 0.950 . S
H1052 C1028 0.950 . S
H1053 C1029 0.949 . S
H1054 C1031 0.950 . S
H1055 C1033 0.950 . S
C1056 C1057 1.349 . S
C1056 C1058 1.327 . S
C1056 H1081 0.950 . S
C1057 C1056 1.349 . S
C1057 C1073 1.349 . S
C1058 C1056 1.327 . S
C1058 C1077 1.429 . S
C1058 H1082 0.950 . S
C1059 C1076 1.574 . S
C1059 C1078 1.368 . S
C1059 H1083 0.949 . S
H1060 C1064 0.949 . S
C1061 C1062 1.349 . S
C1061 C1063 1.327 . S
C1061 H1084 0.950 . S
C1062 C1061 1.349 . S
C1062 C1074 1.349 . S
C1063 C1061 1.327 . S
C1063 C1079 1.429 . S
C1063 H1085 0.950 . S
C1064 H1060 0.949 . S
C1064 C1072 1.574 . S
C1064 C1080 1.368 . S
H1065 C1073 0.950 . S
H1066 C1071 0.950 . S
H1067 C1072 0.949 . S
H1068 C1074 0.950 . S
H1069 C1075 0.950 . S
H1070 C1076 0.949 . S
C1071 H1066 0.950 . S
C1071 C1073 1.327 . S
C1071 C1077 1.429 . S
C1072 C1064 1.574 . S
C1072 H1067 0.949 . S
C1072 C1078 1.368 . S
C1073 C1057 1.349 . S
C1073 H1065 0.950 . S
C1073 C1071 1.327 . S
C1074 C1062 1.349 . S
C1074 H1068 0.950 . S
C1074 C1075 1.327 . S
C1075 H1069 0.950 . S
C1075 C1074 1.327 . S
C1075 C1079 1.429 . S
C1076 C1059 1.574 . S
C1076 H1070 0.949 . S
C1076 C1080 1.368 . S
C1077 C1058 1.429 . S
C1077 C1071 1.429 . S
C1077 C1078 1.523 . S
C1078 C1059 1.368 . S
C1078 C1072 1.368 . S
C1078 C1077 1.523 . S
C1079 C1063 1.429 . S
C1079 C1075 1.429 . S
C1079 C1080 1.523 . S
C1080 C1064 1.368 . S
C1080 C1076 1.368 . S
C1080 C1079 1.523 . S
H1081 C1056 0.950 . S
H1082 C1058 0.950 . S
H1083 C1059 0.949 . S
H1084 C1061 0.950 . S
H1085 C1063 0.950 . S
C1086 C1087 1.349 . S
C1086 C1088 1.327 . S
C1086 H1111 0.950 . S
C1087 C1086 1.349 . S
C1087 C1103 1.349 . S
C1088 C1086 1.327 . S
C1088 C1107 1.429 . S
C1088 H1112 0.950 . S
C1089 C1106 1.574 . S
C1089 C1108 1.368 . S
C1089 H1113 0.949 . S
H1090 C1094 0.949 . S
C1091 C1092 1.349 . S
C1091 C1093 1.327 . S
C1091 H1114 0.950 . S
C1092 C1091 1.349 . S
C1092 C1104 1.349 . S
C1093 C1091 1.327 . S
C1093 C1109 1.429 . S
C1093 H1115 0.950 . S
C1094 H1090 0.949 . S
C1094 C1102 1.574 . S
C1094 C1110 1.368 . S
H1095 C1103 0.950 . S
H1096 C1101 0.950 . S
H1097 C1102 0.949 . S
H1098 C1104 0.950 . S
H1099 C1105 0.950 . S
H1100 C1106 0.949 . S
C1101 H1096 0.950 . S
C1101 C1103 1.327 . S
C1101 C1107 1.429 . S
C1102 C1094 1.574 . S
C1102 H1097 0.949 . S
C1102 C1108 1.368 1_554 S
C1103 C1087 1.349 . S
C1103 H1095 0.950 . S
C1103 C1101 1.327 . S
C1104 C1092 1.349 . S
C1104 H1098 0.950 . S
C1104 C1105 1.327 . S
C1105 H1099 0.950 . S
C1105 C1104 1.327 . S
C1105 C1109 1.429 . S
C1106 C1089 1.574 . S
C1106 H1100 0.949 . S
C1106 C1110 1.368 1_556 S
C1107 C1088 1.429 . S
C1107 C1101 1.429 . S
C1107 C1108 1.523 . S
C1108 C1089 1.368 . S
C1108 C1102 1.368 1_556 S
C1108 C1107 1.523 . S
C1109 C1093 1.429 . S
C1109 C1105 1.429 . S
C1109 C1110 1.523 . S
C1110 C1094 1.368 . S
C1110 C1106 1.368 1_554 S
C1110 C1109 1.523 . S
H1111 C1086 0.950 . S
H1112 C1088 0.950 . S
H1113 C1089 0.949 . S
H1114 C1091 0.950 . S
H1115 C1093 0.950 . S
C1116 C1117 1.349 . S
C1116 C1118 1.327 . S
C1116 H1141 0.950 . S
C1117 C1116 1.349 . S
C1117 C1133 1.349 . S
C1118 C1116 1.327 . S
C1118 C1137 1.429 . S
C1118 H1142 0.950 . S
C1119 C1136 1.574 . S
C1119 C1138 1.368 . S
C1119 H1143 0.949 . S
H1120 C1124 0.949 . S
C1121 C1122 1.349 . S
C1121 C1123 1.327 . S
C1121 H1144 0.950 . S
C1122 C1121 1.349 . S
C1122 C1134 1.349 . S
C1123 C1121 1.327 . S
C1123 C1139 1.429 . S
C1123 H1145 0.950 . S
C1124 H1120 0.949 . S
C1124 C1132 1.574 . S
C1124 C1140 1.368 . S
H1125 C1133 0.950 . S
H1126 C1131 0.950 . S
H1127 C1132 0.949 . S
H1128 C1134 0.950 . S
H1129 C1135 0.950 . S
H1130 C1136 0.949 . S
C1131 H1126 0.950 . S
C1131 C1133 1.327 . S
C1131 C1137 1.429 . S
C1132 C1124 1.574 . S
C1132 H1127 0.949 . S
C1132 C1138 1.368 . S
C1133 C1117 1.349 . S
C1133 H1125 0.950 . S
C1133 C1131 1.327 . S
C1134 C1122 1.349 . S
C1134 H1128 0.950 . S
C1134 C1135 1.327 . S
C1135 H1129 0.950 . S
C1135 C1134 1.327 . S
C1135 C1139 1.429 . S
C1136 C1119 1.574 . S
C1136 H1130 0.949 . S
C1136 C1140 1.368 . S
C1137 C1118 1.429 . S
C1137 C1131 1.429 . S
C1137 C1138 1.523 . S
C1138 C1119 1.368 . S
C1138 C1132 1.368 . S
C1138 C1137 1.523 . S
C1139 C1123 1.429 . S
C1139 C1135 1.429 . S
C1139 C1140 1.523 . S
C1140 C1124 1.368 . S
C1140 C1136 1.368 . S
C1140 C1139 1.523 . S
H1141 C1116 0.950 . S
H1142 C1118 0.950 . S
H1143 C1119 0.949 . S
H1144 C1121 0.950 . S
H1145 C1123 0.950 . S
C1146 C1147 1.349 . S
C1146 C1148 1.327 . S
C1146 H1171 0.950 . S
C1147 C1146 1.349 . S
C1147 C1163 1.349 . S
C1148 C1146 1.327 . S
C1148 C1167 1.429 . S
C1148 H1172 0.950 . S
C1149 C1166 1.574 . S
C1149 C1168 1.368 . S
C1149 H1173 0.949 . S
H1150 C1154 0.949 . S
C1151 C1152 1.349 . S
C1151 C1153 1.327 . S
C1151 H1174 0.950 . S
C1152 C1151 1.349 . S
C1152 C1164 1.349 . S
C1153 C1151 1.327 . S
C1153 C1169 1.429 . S
C1153 H1175 0.950 . S
C1154 H1150 0.949 . S
C1154 C1162 1.574 . S
C1154 C1170 1.368 . S
H1155 C1163 0.950 . S
H1156 C1161 0.950 . S
H1157 C1162 0.949 . S
H1158 C1164 0.950 . S
H1159 C1165 0.950 . S
H1160 C1166 0.949 . S
C1161 H1156 0.950 . S
C1161 C1163 1.327 . S
C1161 C1167 1.429 . S
C1162 C1154 1.574 . S
C1162 H1157 0.949 . S
C1162 C1168 1.368 . S
C1163 C1147 1.349 . S
C1163 H1155 0.950 . S
C1163 C1161 1.327 . S
C1164 C1152 1.349 . S
C1164 H1158 0.950 . S
C1164 C1165 1.327 . S
C1165 H1159 0.950 . S
C1165 C1164 1.327 . S
C1165 C1169 1.429 . S
C1166 C1149 1.574 . S
C1166 H1160 0.949 . S
C1166 C1170 1.368 . S
C1167 C1148 1.429 . S
C1167 C1161 1.429 . S
C1167 C1168 1.523 . S
C1168 C1149 1.368 . S
C1168 C1162 1.368 . S
C1168 C1167 1.523 . S
C1169 C1153 1.429 . S
C1169 C1165 1.429 . S
C1169 C1170 1.523 . S
C1170 C1154 1.368 . S
C1170 C1166 1.368 . S
C1170 C1169 1.523 . S
H1171 C1146 0.950 . S
H1172 C1148 0.950 . S
H1173 C1149 0.949 . S
H1174 C1151 0.950 . S
H1175 C1153 0.950 . S
C1176 C1177 1.349 . S
C1176 C1178 1.327 . S
C1176 H1201 0.950 . S
C1177 C1176 1.349 . S
C1177 C1193 1.349 . S
C1178 C1176 1.327 . S
C1178 C1197 1.429 . S
C1178 H1202 0.950 . S
C1179 C1196 1.574 . S
C1179 C1198 1.368 . S
C1179 H1203 0.949 . S
H1180 C1184 0.949 . S
C1181 C1182 1.349 . S
C1181 C1183 1.327 . S
C1181 H1204 0.950 . S
C1182 C1181 1.349 . S
C1182 C1194 1.349 . S
C1183 C1181 1.327 . S
C1183 C1199 1.429 . S
C1183 H1205 0.950 . S
C1184 H1180 0.949 . S
C1184 C1192 1.574 . S
C1184 C1200 1.368 . S
H1185 C1193 0.950 . S
H1186 C1191 0.950 . S
H1187 C1192 0.949 . S
H1188 C1194 0.950 . S
H1189 C1195 0.950 . S
H1190 C1196 0.949 . S
C1191 H1186 0.950 . S
C1191 C1193 1.327 . S
C1191 C1197 1.429 . S
C1192 C1184 1.574 . S
C1192 H1187 0.949 . S
C1192 C1198 1.368 . S
C1193 C1177 1.349 . S
C1193 H1185 0.950 . S
C1193 C1191 1.327 . S
C1194 C1182 1.349 . S
C1194 H1188 0.950 . S
C1194 C1195 1.327 . S
C1195 H1189 0.950 . S
C1195 C1194 1.327 . S
C1195 C1199 1.429 . S
C1196 C1179 1.574 . S
C1196 H1190 0.949 . S
C1196 C1200 1.368 . S
C1197 C1178 1.429 . S
C1197 C1191 1.429 . S
C1197 C1198 1.523 . S
C1198 C1179 1.368 . S
C1198 C1192 1.368 . S
C1198 C1197 1.523 . S
C1199 C1183 1.429 . S
C1199 C1195 1.429 . S
C1199 C1200 1.523 . S
C1200 C1184 1.368 . S
C1200 C1196 1.368 . S
C1200 C1199 1.523 . S
H1201 C1176 0.950 . S
H1202 C1178 0.950 . S
H1203 C1179 0.949 . S
H1204 C1181 0.950 . S
H1205 C1183 0.950 . S
C1206 C1207 1.349 . S
C1206 C1208 1.327 . S
C1206 H1231 0.950 . S
C1207 C1206 1.349 . S
C1207 C1223 1.349 . S
C1208 C1206 1.327 . S
C1208 C1227 1.429 . S
C1208 H1232 0.950 . S
C1209 C1226 1.574 . S
C1209 C1228 1.368 . S
C1209 H1233 0.949 . S
H1210 C1214 0.949 . S
C1211 C1212 1.349 . S
C1211 C1213 1.327 . S
C1211 H1234 0.950 . S
C1212 C1211 1.349 . S
C1212 C1224 1.349 . S
C1213 C1211 1.327 . S
C1213 C1229 1.429 . S
C1213 H1235 0.950 . S
C1214 H1210 0.949 . S
C1214 C1222 1.574 . S
C1214 C1230 1.368 . S
H1215 C1223 0.950 . S
H1216 C1221 0.950 . S
H1217 C1222 0.949 . S
H1218 C1224 0.950 . S
H1219 C1225 0.950 . S
H1220 C1226 0.949 . S
C1221 H1216 0.950 . S
C1221 C1223 1.327 . S
C1221 C1227 1.429 . S
C1222 C1214 1.574 . S
C1222 H1217 0.949 . S
C1222 C1228 1.368 . S
C1223 C1207 1.349 . S
C1223 H1215 0.950 . S
C1223 C1221 1.327 . S
C1224 C1212 1.349 . S
C1224 H1218 0.950 . S
C1224 C1225 1.327 . S
C1225 H1219 0.950 . S
C1225 C1224 1.327 . S
C1225 C1229 1.429 . S
C1226 C1209 1.574 . S
C1226 H1220 0.949 . S
C1226 C1230 1.368 . S
C1227 C1208 1.429 . S
C1227 C1221 1.429 . S
C1227 C1228 1.523 . S
C1228 C1209 1.368 . S
C1228 C1222 1.368 . S
C1228 C1227 1.523 . S
C1229 C1213 1.429 . S
C1229 C1225 1.429 . S
C1229 C1230 1.523 . S
C1230 C1214 1.368 . S
C1230 C1226 1.368 . S
C1230 C1229 1.523 . S
H1231 C1206 0.950 . S
H1232 C1208 0.950 . S
H1233 C1209 0.949 . S
H1234 C1211 0.950 . S
H1235 C1213 0.950 . S
C1236 C1237 1.349 . S
C1236 C1238 1.327 . S
C1236 H1261 0.950 . S
C1237 C1236 1.349 . S
C1237 C1253 1.349 . S
C1238 C1236 1.327 . S
C1238 C1257 1.429 . S
C1238 H1262 0.950 . S
C1239 C1256 1.574 . S
C1239 C1258 1.368 . S
C1239 H1263 0.949 . S
H1240 C1244 0.949 . S
C1241 C1242 1.349 . S
C1241 C1243 1.327 . S
C1241 H1264 0.950 . S
C1242 C1241 1.349 . S
C1242 C1254 1.349 . S
C1243 C1241 1.327 . S
C1243 C1259 1.429 . S
C1243 H1265 0.950 . S
C1244 H1240 0.949 . S
C1244 C1252 1.574 . S
C1244 C1260 1.368 . S
H1245 C1253 0.950 . S
H1246 C1251 0.950 . S
H1247 C1252 0.949 . S
H1248 C1254 0.950 . S
H1249 C1255 0.950 . S
H1250 C1256 0.949 . S
C1251 H1246 0.950 . S
C1251 C1253 1.327 . S
C1251 C1257 1.429 . S
C1252 C1244 1.574 . S
C1252 H1247 0.949 . S
C1252 C1258 1.368 . S
C1253 C1237 1.349 . S
C1253 H1245 0.950 . S
C1253 C1251 1.327 . S
C1254 C1242 1.349 . S
C1254 H1248 0.950 . S
C1254 C1255 1.327 . S
C1255 H1249 0.950 . S
C1255 C1254 1.327 . S
C1255 C1259 1.429 . S
C1256 C1239 1.574 . S
C1256 H1250 0.949 . S
C1256 C1260 1.368 . S
C1257 C1238 1.429 . S
C1257 C1251 1.429 . S
C1257 C1258 1.523 . S
C1258 C1239 1.368 . S
C1258 C1252 1.368 . S
C1258 C1257 1.523 . S
C1259 C1243 1.429 . S
C1259 C1255 1.429 . S
C1259 C1260 1.523 . S
C1260 C1244 1.368 . S
C1260 C1256 1.368 . S
C1260 C1259 1.523 . S
H1261 C1236 0.950 . S
H1262 C1238 0.950 . S
H1263 C1239 0.949 . S
H1264 C1241 0.950 . S
H1265 C1243 0.950 . S
C1266 C1267 1.349 . S
C1266 C1268 1.327 . S
C1266 H1291 0.950 . S
C1267 C1266 1.349 . S
C1267 C1283 1.349 . S
C1268 C1266 1.327 . S
C1268 C1287 1.429 . S
C1268 H1292 0.950 . S
C1269 C1286 1.574 . S
C1269 C1288 1.368 . S
C1269 H1293 0.949 . S
H1270 C1274 0.949 . S
C1271 C1272 1.349 . S
C1271 C1273 1.327 . S
C1271 H1294 0.950 . S
C1272 C1271 1.349 . S
C1272 C1284 1.349 . S
C1273 C1271 1.327 . S
C1273 C1289 1.429 . S
C1273 H1295 0.950 . S
C1274 H1270 0.949 . S
C1274 C1282 1.574 . S
C1274 C1290 1.368 . S
H1275 C1283 0.950 . S
H1276 C1281 0.950 . S
H1277 C1282 0.949 . S
H1278 C1284 0.950 . S
H1279 C1285 0.950 . S
H1280 C1286 0.949 . S
C1281 H1276 0.950 . S
C1281 C1283 1.327 . S
C1281 C1287 1.429 . S
C1282 C1274 1.574 . S
C1282 H1277 0.949 . S
C1282 C1288 1.368 . S
C1283 C1267 1.349 . S
C1283 H1275 0.950 . S
C1283 C1281 1.327 . S
C1284 C1272 1.349 . S
C1284 H1278 0.950 . S
C1284 C1285 1.327 . S
C1285 H1279 0.950 . S
C1285 C1284 1.327 . S
C1285 C1289 1.429 . S
C1286 C1269 1.574 . S
C1286 H1280 0.949 . S
C1286 C1290 1.368 . S
C1287 C1268 1.429 . S
C1287 C1281 1.429 . S
C1287 C1288 1.523 . S
C1288 C1269 1.368 . S
C1288 C1282 1.368 . S
C1288 C1287 1.523 . S
C1289 C1273 1.429 . S
C1289 C1285 1.429 . S
C1289 C1290 1.523 . S
C1290 C1274 1.368 . S
C1290 C1286 1.368 . S
C1290 C1289 1.523 . S
H1291 C1266 0.950 . S
H1292 C1268 0.950 . S
H1293 C1269 0.949 . S
H1294 C1271 0.950 . S
H1295 C1273 0.950 . S
C397 C120 0.424 . S
C402 C21 0.424 . S
C427 C54 0.424 . S
C432 C153 0.424 . S
C457 C186 0.424 . S
C462 C87 0.424 . S
C487 C219 0.424 . S
C492 C318 0.424 . S
C517 C351 0.424 . S
C522 C252 0.424 . S
C547 C285 0.424 . S
C552 C384 0.424 . S
C577 N13 1.919 . S
C582 N343 1.919 . S
C607 N376 1.919 . S
C612 N46 1.919 . S
C637 N79 1.919 . S
C642 N211 1.919 . S
C667 N112 1.919 . S
C672 N244 1.919 . S
C697 N145 1.919 . S
C702 N277 1.919 . S
C727 N178 1.919 . S
C732 N310 1.919 . S
C757 C304 1.407 . S
C762 C7 1.407 . S
C787 C40 1.407 . S
C792 C337 1.407 . S
C817 C73 1.407 . S
C822 C370 1.407 . S
C847 C205 1.407 . S
C852 C106 1.407 . S
C877 C238 1.407 . S
C882 C139 1.407 . S
C907 C271 1.407 . S
C912 C172 1.407 . S
C937 N2 0.757 . S
C942 N200 0.757 . S
C967 N35 0.757 . S
C972 N233 0.757 . S
C997 N266 0.757 . S
C1002 N68 0.757 . S
C1027 N101 0.757 . S
C1032 N299 0.757 . S
C1057 N332 0.757 . S
C1062 N134 0.757 . S
C1087 N167 0.757 . S
C1092 N365 0.757 . S
C1117 C282 1.145 . S
C1122 C18 1.145 . S
C1147 C315 1.145 . S
C1152 C51 1.145 . S
C1177 C348 1.145 . S
C1182 C84 1.145 . S
C1207 C117 1.145 . S
C1212 C381 1.145 . S
C1237 C216 1.145 . S
C1242 C150 1.145 . S
C1267 C249 1.145 . S
C1272 C183 1.145 . S
