# Generated by pormake.
# Topology uov, (4)-cn, num edge types: 1
# Building blocks:
#     Node 0, Type 0, BuildingBlock: QUQFOY_clean_sbu_1, # of connection points: 4
#     Node 1, Type 0, BuildingBlock: QUQFOY_clean_sbu_1, # of connection points: 4
#     Node 2, Type 0, BuildingBlock: QUQFOY_clean_sbu_1, # of connection points: 4
#     Node 3, Type 0, BuildingBlock: QUQFOY_clean_sbu_1, # of connection points: 4
#     Node 4, Type 0, BuildingBlock: QUQFOY_clean_sbu_1, # of connection points: 4
#     Node 5, Type 0, BuildingBlock: QUQFOY_clean_sbu_1, # of connection points: 4
#     Node 6, Type 0, BuildingBlock: QUQFOY_clean_sbu_1, # of connection points: 4
#     Node 7, Type 0, BuildingBlock: QUQFOY_clean_sbu_1, # of connection points: 4
#     Edge 8, Type (0, 0), BuildingBlock: XUDNAN_clean_linker_2, # of connection points: 2
#     Edge 9, Type (0, 0), BuildingBlock: XUDNAN_clean_linker_2, # of connection points: 2
#     Edge 10, Type (0, 0), BuildingBlock: XUDNAN_clean_linker_2, # of connection points: 2
#     Edge 11, Type (0, 0), BuildingBlock: XUDNAN_clean_linker_2, # of connection points: 2
#     Edge 12, Type (0, 0), BuildingBlock: XUDNAN_clean_linker_2, # of connection points: 2
#     Edge 13, Type (0, 0), BuildingBlock: XUDNAN_clean_linker_2, # of connection points: 2
#     Edge 14, Type (0, 0), BuildingBlock: XUDNAN_clean_linker_2, # of connection points: 2
#     Edge 15, Type (0, 0), BuildingBlock: XUDNAN_clean_linker_2, # of connection points: 2
#     Edge 16, Type (0, 0), BuildingBlock: XUDNAN_clean_linker_2, # of connection points: 2
#     Edge 17, Type (0, 0), BuildingBlock: XUDNAN_clean_linker_2, # of connection points: 2
#     Edge 18, Type (0, 0), BuildingBlock: XUDNAN_clean_linker_2, # of connection points: 2
#     Edge 19, Type (0, 0), BuildingBlock: XUDNAN_clean_linker_2, # of connection points: 2
#     Edge 20, Type (0, 0), BuildingBlock: XUDNAN_clean_linker_2, # of connection points: 2
#     Edge 21, Type (0, 0), BuildingBlock: XUDNAN_clean_linker_2, # of connection points: 2
#     Edge 22, Type (0, 0), BuildingBlock: XUDNAN_clean_linker_2, # of connection points: 2
#     Edge 23, Type (0, 0), BuildingBlock: XUDNAN_clean_linker_2, # of connection points: 2
# Relax obj value: 0.031
# Max RMSD: 0.047
# Mean RMSD: 0.047
data_MOF--net-uov--node1-QUQFOY_clean_sbu_1--edge1-XUDNAN_clean_linker_2
_symmetry_space_group_name_H-M    P1
_symmetry_Int_Tables_number       1
_symmetry_cell_setting            triclinic
loop_
_symmetry_equiv_pos_as_xyz
'x, y, z'
_cell_length_a     32.140058
_cell_length_b     32.107959
_cell_length_c     45.080304
_cell_angle_alpha  89.961188
_cell_angle_beta   89.996943
_cell_angle_gamma 89.976275
loop_
_atom_site_label
_atom_site_type_symbol
_atom_site_fract_x
_atom_site_fract_y
_atom_site_fract_z
_atom_type_partial_charge
O0 O 0.99549 0.25822 0.56701 0.0
Cd1 Cd 0.05286 0.28233 0.57584 0.0
Cd2 Cd 0.05068 0.21012 0.6108 0.0
O3 O 0.98724 0.21084 0.60189 0.0
O4 O 0.04881 0.33082 0.54877 0.0
O5 O 0.05511 0.33837 0.59704 0.0
C6 C 0.04976 0.35512 0.57132 0.0
C7 C 0.07757 0.19754 0.65813 0.0
C8 C 0.97298 0.23152 0.58008 0.0
C9 C 0.10654 0.21256 0.55657 0.0
O10 O 0.08829 0.19071 0.57621 0.0
O11 O 0.10037 0.25154 0.55489 0.0
O12 O 0.05946 0.16853 0.64318 0.0
O13 O 0.07887 0.23447 0.64673 0.0
O14 O 0.25324 0.98607 0.43561 0.0
Cd15 Cd 0.28543 0.93322 0.4253 0.0
Cd16 Cd 0.21021 0.91814 0.39694 0.0
O17 O 0.19805 0.9802 0.40671 0.0
O18 O 0.3417 0.94915 0.43916 0.0
O19 O 0.32837 0.93422 0.39236 0.0
C20 C 0.35454 0.94657 0.41221 0.0
C21 C 0.18597 0.88923 0.35249 0.0
C22 C 0.21956 0.00071 0.42533 0.0
C23 C 0.23491 0.86759 0.45226 0.0
O24 O 0.20817 0.87767 0.43273 0.0
O25 O 0.27079 0.88403 0.45229 0.0
O26 O 0.16115 0.89774 0.37404 0.0
O27 O 0.22482 0.89851 0.35549 0.0
O28 O 0.00595 0.74267 0.5741 0.0
Cd29 Cd 0.94853 0.71747 0.58154 0.0
Cd30 Cd 0.94791 0.79167 0.61597 0.0
O31 O 0.01144 0.79257 0.60737 0.0
O32 O 0.95449 0.67075 0.55315 0.0
O33 O 0.9471 0.66011 0.60104 0.0
C34 C 0.95352 0.64507 0.57493 0.0
C35 C 0.92056 0.80302 0.66322 0.0
C36 C 0.02727 0.7707 0.58676 0.0
C37 C 0.89153 0.78581 0.56236 0.0
O38 O 0.90904 0.80902 0.58151 0.0
O39 O 0.8999 0.74721 0.56095 0.0
O40 O 0.93764 0.83276 0.64834 0.0
O41 O 0.92061 0.7661 0.6518 0.0
O42 O 0.73513 0.00653 0.44037 0.0
Cd43 Cd 0.70921 0.06024 0.42464 0.0
Cd44 Cd 0.78346 0.06305 0.3942 0.0
O45 O 0.78522 0.00091 0.40722 0.0
O46 O 0.65084 0.05431 0.43798 0.0
O47 O 0.6683 0.05718 0.39063 0.0
C48 C 0.63985 0.05232 0.41056 0.0
C49 C 0.81413 0.07905 0.34822 0.0
C50 C 0.76468 0.98604 0.42886 0.0
C51 C 0.7677 0.12342 0.44557 0.0
O52 O 0.7931 0.10682 0.4274 0.0
O53 O 0.72986 0.11222 0.44622 0.0
O54 O 0.83578 0.06658 0.3705 0.0
O55 O 0.77443 0.08254 0.35173 0.0
O56 O 0.98768 0.26423 0.06639 0.0
Cd57 Cd 0.93367 0.2857 0.08536 0.0
Cd58 Cd 0.94426 0.21489 0.11391 0.0
O59 O 0.00623 0.22365 0.10335 0.0
O60 O 0.93303 0.34447 0.07198 0.0
O61 O 0.93784 0.32665 0.11921 0.0
C62 C 0.93811 0.35548 0.0992 0.0
C63 C 0.92694 0.18538 0.15991 0.0
C64 C 0.01475 0.24158 0.07899 0.0
C65 C 0.88225 0.22025 0.06344 0.0
O66 O 0.90755 0.19781 0.07815 0.0
O67 O 0.88118 0.25935 0.06753 0.0
O68 O 0.94557 0.16432 0.13958 0.0
O69 O 0.91823 0.22389 0.1544 0.0
O70 O 0.24644 0.99395 0.93364 0.0
Cd71 Cd 0.27265 0.05052 0.92416 0.0
Cd72 Cd 0.19897 0.05144 0.89004 0.0
O73 O 0.197 0.98824 0.9 0.0
O74 O 0.32036 0.04608 0.95185 0.0
O75 O 0.32913 0.05085 0.90357 0.0
C76 C 0.3452 0.04641 0.92959 0.0
C77 C 0.18922 0.07755 0.8422 0.0
C78 C 0.21811 0.97278 0.92118 0.0
C79 C 0.20601 0.11039 0.94187 0.0
O80 O 0.18211 0.09208 0.92356 0.0
O81 O 0.24441 0.1013 0.94312 0.0
O82 O 0.15881 0.06159 0.85701 0.0
O83 O 0.22587 0.07687 0.85402 0.0
O84 O 0.99289 0.74484 0.0712 0.0
Cd85 Cd 0.04673 0.71348 0.08037 0.0
Cd86 Cd 0.06195 0.78447 0.1105 0.0
O87 O 0.00103 0.79986 0.09989 0.0
O88 O 0.03237 0.65656 0.06673 0.0
O89 O 0.04779 0.67072 0.11337 0.0
C90 C 0.03588 0.644 0.09373 0.0
C91 C 0.08508 0.79189 0.15928 0.0
C92 C 0.97936 0.77895 0.08159 0.0
C93 C 0.11372 0.76586 0.05559 0.0
O94 O 0.10483 0.7909 0.07652 0.0
O95 O 0.0957 0.73077 0.05378 0.0
O96 O 0.08143 0.82363 0.14195 0.0
O97 O 0.07528 0.75563 0.14897 0.0
O98 O 0.73959 0.02425 0.92382 0.0
Cd99 Cd 0.71369 0.96605 0.92524 0.0
Cd100 Cd 0.78932 0.95037 0.89205 0.0
O101 O 0.79889 0.01305 0.90037 0.0
O102 O 0.66714 0.9799 0.95236 0.0
O103 O 0.65624 0.95813 0.90679 0.0
C104 C 0.64129 0.97133 0.9316 0.0
C105 C 0.80229 0.92141 0.84538 0.0
C106 C 0.77412 0.03734 0.91394 0.0
C107 C 0.77804 0.90583 0.95019 0.0
O108 O 0.80065 0.91176 0.92746 0.0
O109 O 0.74292 0.92365 0.9528 0.0
O110 O 0.83208 0.93515 0.86179 0.0
O111 O 0.76462 0.92534 0.855 0.0
H112 H 0.96961 0.58319 0.61624 0.0
H113 H 0.96155 0.60721 0.52152 0.0
H114 H 0.98836 0.53715 0.51126 0.0
H115 H 0.06376 0.52498 0.61443 0.0
H116 H 0.04841 0.48734 0.64202 0.0
H117 H 0.02683 0.53912 0.6428 0.0
H118 H 0.95217 0.50887 0.64087 0.0
H119 H 0.97351 0.45698 0.64067 0.0
H120 H 0.9384 0.47311 0.61166 0.0
H121 H 0.01975 0.46773 0.51051 0.0
H122 H 0.04546 0.39677 0.5191 0.0
H123 H 0.03215 0.41428 0.61422 0.0
C124 C 0.9728 0.57336 0.59339 0.0
C125 C 0.96359 0.60079 0.56969 0.0
C126 C 0.96848 0.58689 0.54006 0.0
C127 C 0.98387 0.54716 0.53395 0.0
C128 C 0.994 0.52146 0.55768 0.0
C129 C 0.98803 0.53343 0.5868 0.0
C130 C 0.00131 0.49904 0.60794 0.0
C131 C 0.03721 0.5135 0.62798 0.0
C132 C 0.96413 0.48358 0.62637 0.0
C133 C 0.01581 0.46618 0.58603 0.0
C134 C 0.01159 0.48022 0.55722 0.0
C135 C 0.02292 0.45612 0.53294 0.0
C136 C 0.03767 0.41588 0.5381 0.0
C137 C 0.04072 0.39989 0.56733 0.0
C138 C 0.03042 0.42574 0.59166 0.0
H139 H 0.57507 0.04336 0.44869 0.0
H140 H 0.60719 0.0343 0.35542 0.0
H141 H 0.53671 0.00662 0.34472 0.0
H142 H 0.52043 0.94967 0.45321 0.0
H143 H 0.48184 0.96889 0.47879 0.0
H144 H 0.53309 0.9914 0.47838 0.0
H145 H 0.50159 0.06477 0.4696 0.0
H146 H 0.45015 0.04259 0.47046 0.0
H147 H 0.46657 0.0729 0.4389 0.0
H148 H 0.46279 0.97565 0.34545 0.0
H149 H 0.39254 0.94809 0.35723 0.0
H150 H 0.41269 0.9768 0.45018 0.0
C151 C 0.56724 0.03625 0.42588 0.0
C152 C 0.59657 0.0411 0.40286 0.0
C153 C 0.58503 0.03111 0.37338 0.0
C154 C 0.54517 0.01521 0.36713 0.0
C155 C 0.5174 0.00968 0.39062 0.0
C156 C 0.52799 0.02033 0.41935 0.0
C157 C 0.49363 0.01019 0.44099 0.0
C158 C 0.50813 0.97813 0.4642 0.0
C159 C 0.477 0.04998 0.45585 0.0
C160 C 0.46202 0.99168 0.42009 0.0
C161 C 0.47594 0.99167 0.39109 0.0
C162 C 0.45161 0.97569 0.3681 0.0
C163 C 0.41188 0.95993 0.37499 0.0
C164 C 0.39719 0.96015 0.40462 0.0
C165 C 0.42293 0.97599 0.4273 0.0
H166 H 0.9433 0.42021 0.06048 0.0
H167 H 0.9577 0.3894 0.15366 0.0
H168 H 0.98387 0.46077 0.16329 0.0
H169 H 0.03537 0.47719 0.05365 0.0
H170 H 0.01419 0.51501 0.02823 0.0
H171 H 0.993 0.46318 0.02942 0.0
H172 H 0.91935 0.49301 0.0395 0.0
H173 H 0.94018 0.54502 0.03785 0.0
H174 H 0.91162 0.52826 0.07013 0.0
H175 H 0.01257 0.53548 0.16149 0.0
H176 H 0.03769 0.60636 0.14881 0.0
H177 H 0.00565 0.5846 0.05659 0.0
C178 C 0.95118 0.42852 0.08307 0.0
C179 C 0.94824 0.39928 0.10636 0.0
C180 C 0.95938 0.41144 0.13551 0.0
C181 C 0.97443 0.45183 0.14115 0.0
C182 C 0.97809 0.4795 0.11739 0.0
C183 C 0.96641 0.46829 0.08899 0.0
C184 C 0.97479 0.50269 0.06693 0.0
C185 C 0.00621 0.48866 0.04317 0.0
C186 C 0.93406 0.51816 0.05278 0.0
C187 C 0.99338 0.53507 0.08723 0.0
C188 C 0.995 0.52144 0.11628 0.0
C189 C 0.01128 0.54644 0.1388 0.0
C190 C 0.02564 0.58654 0.13139 0.0
C191 C 0.02378 0.60097 0.10171 0.0
C192 C 0.00771 0.57456 0.07949 0.0
H193 H 0.40579 0.02752 0.88805 0.0
H194 H 0.38575 0.04783 0.98227 0.0
H195 H 0.45822 0.02831 0.99237 0.0
H196 H 0.47159 0.93837 0.89566 0.0
H197 H 0.50618 0.9521 0.86574 0.0
H198 H 0.45278 0.96918 0.86501 0.0
H199 H 0.4767 0.04588 0.85977 0.0
H200 H 0.53015 0.02897 0.86004 0.0
H201 H 0.51258 0.06723 0.88647 0.0
H202 H 0.53059 0.00464 0.99323 0.0
H203 H 0.60291 0.98338 0.98436 0.0
H204 H 0.57878 0.97792 0.88961 0.0
C205 C 0.41692 0.02842 0.91071 0.0
C206 C 0.39008 0.03917 0.93438 0.0
C207 C 0.40564 0.03962 0.96378 0.0
C208 C 0.44676 0.02847 0.9698 0.0
C209 C 0.47207 0.017 0.94619 0.0
C210 C 0.45817 0.01727 0.9172 0.0
C211 C 0.49238 0.00342 0.89615 0.0
C212 C 0.47998 0.96339 0.87967 0.0
C213 C 0.50362 0.03847 0.87432 0.0
C214 C 0.52745 0.99531 0.91797 0.0
C215 C 0.51471 0.00323 0.94669 0.0
C216 C 0.54111 -0.00154 0.97086 0.0
C217 C 0.58213 0.98629 0.96555 0.0
C218 C 0.59649 0.97902 0.9363 0.0
C219 C 0.56855 0.98291 0.91221 0.0
H220 H 0.21874 0.0188 0.48347 0.0
H221 H 0.18291 0.06796 0.39766 0.0
H222 H 0.1573 0.13256 0.4221 0.0
H223 H 0.12888 0.05369 0.52083 0.0
H224 H 0.15558 0.06387 0.55523 0.0
H225 H 0.17492 0.02455 0.53041 0.0
H226 H 0.24673 0.06134 0.52941 0.0
H227 H 0.22742 0.1011 0.55401 0.0
H228 H 0.24984 0.11539 0.5188 0.0
H229 H 0.13596 0.19149 0.45673 0.0
H230 H 0.10929 0.23424 0.4982 0.0
H231 H 0.15363 0.14207 0.56104 0.0
C232 C 0.20602 0.04348 0.46979 0.0
C233 C 0.20333 0.0391 0.43873 0.0
C234 C 0.18537 0.07118 0.4215 0.0
C235 C 0.17113 0.10791 0.43518 0.0
C236 C 0.17454 0.11135 0.466 0.0
C237 C 0.19082 0.07953 0.48307 0.0
C238 C 0.18719 0.0886 0.51587 0.0
C239 C 0.16001 0.05574 0.53149 0.0
C240 C 0.23037 0.0918 0.53037 0.0
C241 C 0.1659 0.13048 0.51478 0.0
C242 C 0.15985 0.14366 0.48586 0.0
C243 C 0.14054 0.18144 0.47941 0.0
C244 C 0.12579 0.20562 0.50311 0.0
C245 C 0.12958 0.19135 0.53273 0.0
C246 C 0.15054 0.1537 0.53858 0.0
H247 H 0.17829 0.80479 0.4525 0.0
H248 H 0.25692 0.87852 0.51014 0.0
H249 H 0.21752 0.85355 0.55374 0.0
H250 H 0.08807 0.82578 0.48469 0.0
H251 H 0.06453 0.77506 0.48128 0.0
H252 H 0.10435 0.79068 0.4557 0.0
H253 H 0.14839 0.7258 0.46929 0.0
H254 H 0.10818 0.70936 0.49461 0.0
H255 H 0.16087 0.71552 0.50759 0.0
H256 H 0.15855 0.83468 0.5887 0.0
H257 H 0.09184 0.81478 0.61259 0.0
H258 H 0.05586 0.7495 0.53239 0.0
C259 C 0.18841 0.81403 0.47445 0.0
C260 C 0.2207 0.84322 0.47806 0.0
C261 C 0.23269 0.8555 0.50699 0.0
C262 C 0.2103 0.84168 0.53187 0.0
C263 C 0.1769 0.81469 0.52743 0.0
C264 C 0.16694 0.79989 0.49946 0.0
C265 C 0.12756 0.77424 0.50005 0.0
C266 C 0.09419 0.79257 0.47921 0.0
C267 C 0.13682 0.72851 0.49244 0.0
C268 C 0.11548 0.77905 0.53225 0.0
C269 C 0.14424 0.80226 0.54788 0.0
C270 C 0.13654 0.8152 0.57698 0.0
C271 C 0.09851 0.80405 0.59034 0.0
C272 C 0.06898 0.78002 0.57458 0.0
C273 C 0.07823 0.7669 0.54541 0.0
H274 H 0.76793 0.97182 0.48782 0.0
H275 H 0.79442 0.91464 0.40284 0.0
H276 H 0.82127 0.85185 0.42873 0.0
H277 H 0.86064 0.94077 0.52072 0.0
H278 H 0.83903 0.93338 0.55725 0.0
H279 H 0.81551 0.97002 0.53216 0.0
H280 H 0.74468 0.9322 0.5377 0.0
H281 H 0.76806 0.89529 0.56282 0.0
H282 H 0.74136 0.87718 0.53013 0.0
H283 H 0.84798 0.79708 0.46424 0.0
H284 H 0.8818 0.75918 0.5054 0.0
H285 H 0.8439 0.85621 0.56661 0.0
C286 C 0.77835 0.94557 0.47468 0.0
C287 C 0.77835 0.94738 0.44342 0.0
C288 C 0.79379 0.91337 0.42685 0.0
C289 C 0.8088 0.87764 0.44136 0.0
C290 C 0.80873 0.877 0.47235 0.0
C291 C 0.79444 0.9104 0.48877 0.0
C292 C 0.80272 0.90456 0.52155 0.0
C293 C 0.83117 0.93922 0.53361 0.0
C294 C 0.76176 0.90216 0.53908 0.0
C295 C 0.82466 0.86294 0.52107 0.0
C296 C 0.82676 0.84697 0.49261 0.0
C297 C 0.84636 0.80921 0.4866 0.0
C298 C 0.86531 0.78784 0.51014 0.0
C299 C 0.86539 0.80486 0.53913 0.0
C300 C 0.84417 0.8425 0.54467 0.0
H301 H 0.83323 0.17701 0.44248 0.0
H302 H 0.74135 0.12663 0.50299 0.0
H303 H 0.7801 0.156 0.54544 0.0
H304 H 0.91849 0.15467 0.4825 0.0
H305 H 0.94731 0.20149 0.4745 0.0
H306 H 0.90871 0.18332 0.4488 0.0
H307 H 0.87036 0.25425 0.45159 0.0
H308 H 0.90937 0.27303 0.47701 0.0
H309 H 0.85516 0.2748 0.48719 0.0
H310 H 0.83751 0.17702 0.58124 0.0
H311 H 0.9029 0.19798 0.60663 0.0
H312 H 0.95285 0.23965 0.52234 0.0
C313 C 0.82046 0.17365 0.46459 0.0
C314 C 0.78433 0.14985 0.46952 0.0
C315 C 0.76871 0.1454 0.49874 0.0
C316 C 0.79064 0.16175 0.52301 0.0
C317 C 0.82738 0.18346 0.51753 0.0
C318 C 0.8414 0.19059 0.48892 0.0
C319 C 0.88299 0.21243 0.4889 0.0
C320 C 0.91631 0.18641 0.47274 0.0
C321 C 0.87923 0.25624 0.47538 0.0
C322 C 0.89124 0.21449 0.52185 0.0
C323 C 0.859 0.19767 0.53816 0.0
C324 C 0.86235 0.1916 0.5688 0.0
C325 C 0.89957 0.20329 0.58303 0.0
C326 C 0.93246 0.22122 0.56656 0.0
C327 C 0.92774 0.22725 0.53572 0.0
H328 H 0.85038 0.05471 0.93572 0.0
H329 H 0.7288 0.10867 0.9204 0.0
H330 H 0.74648 0.16739 0.95355 0.0
H331 H 0.84873 0.06848 0.0089 0.0
H332 H 0.90311 0.07992 0.01426 0.0
H333 H 0.88696 0.04921 0.98304 0.0
H334 H 0.92249 0.10064 0.9467 0.0
H335 H 0.94006 0.13099 0.9779 0.0
H336 H 0.91038 0.15539 0.94875 0.0
H337 H 0.77349 0.21414 0.99442 0.0
H338 H 0.80791 0.24483 0.03861 0.0
H339 H 0.90794 0.15493 0.03021 0.0
C340 C 0.8285 0.08019 0.93797 0.0
C341 C 0.78873 0.07794 0.92492 0.0
C342 C 0.75983 0.11054 0.92969 0.0
C343 C 0.76956 0.14385 0.94858 0.0
C344 C 0.80814 0.14378 0.96272 0.0
C345 C 0.83734 0.11293 0.95739 0.0
C346 C 0.87358 0.11603 0.97869 0.0
C347 C 0.87832 0.07605 0.99731 0.0
C348 C 0.91402 0.1264 0.96202 0.0
C349 C 0.85945 0.15224 0.99755 0.0
C350 C 0.82223 0.16864 0.98763 0.0
C351 C 0.80284 0.20176 1.00221 0.0
C352 C 0.82234 0.21877 0.02736 0.0
C353 C 0.86007 0.20173 0.03805 0.0
C354 C 0.87866 0.16811 0.02286 0.0
H355 H 0.13201 0.15258 0.93914 0.0
H356 H 0.23915 0.131 0.99568 0.0
H357 H 0.20465 0.16917 0.03631 0.0
H358 H 0.10764 0.25879 0.96859 0.0
H359 H 0.05242 0.25011 0.96536 0.0
H360 H 0.08773 0.22544 0.93974 0.0
H361 H 0.05693 0.15336 0.95354 0.0
H362 H 0.02182 0.17771 0.97927 0.0
H363 H 0.05641 0.13719 0.99185 0.0
H364 H 0.15339 0.19826 0.0732 0.0
H365 H 0.09218 0.22366 0.1015 0.0
H366 H 0.02171 0.23175 0.01972 0.0
C367 C 0.14861 0.15679 0.95982 0.0
C368 C 0.1882 0.13885 0.96426 0.0
C369 C 0.2089 0.1448 0.9917 0.0
C370 C 0.18953 0.16635 0.01495 0.0
C371 C 0.14992 0.18258 0.01017 0.0
C372 C 0.13008 0.1789 0.98305 0.0
C373 C 0.08685 0.19743 0.98403 0.0
C374 C 0.08348 0.2352 0.9632 0.0
C375 C 0.05357 0.16445 0.97676 0.0
C376 C 0.08486 0.21055 0.01622 0.0
C377 C 0.12144 0.20168 0.03102 0.0
C378 C 0.12502 0.20659 0.0617 0.0
C379 C 0.09021 0.22083 0.0776 0.0
C380 C 0.0528 0.23055 0.06263 0.0
C381 C 0.05047 0.22591 0.03155 0.0
H382 H 0.17423 0.82537 0.05692 0.0
H383 H 0.10716 0.74348 0.99735 0.0
H384 H 0.13413 0.78287 0.9544 0.0
H385 H 0.15372 0.91507 0.02238 0.0
H386 H 0.20363 0.93958 0.02759 0.0
H387 H 0.18648 0.9002 0.05309 0.0
H388 H 0.25307 0.85692 0.04305 0.0
H389 H 0.27095 0.89666 0.01782 0.0
H390 H 0.26674 0.84345 0.00547 0.0
H391 H 0.15486 0.84112 0.91938 0.0
H392 H 0.17647 0.90702 0.89501 0.0
H393 H 0.23391 0.94701 0.97725 0.0
C394 C 0.16669 0.81468 0.03478 0.0
C395 C 0.13881 0.78135 0.03044 0.0
C396 C 0.12901 0.76859 1.00118 0.0
C397 C 0.144 0.79094 0.97662 0.0
C398 C 0.16967 0.82518 0.98172 0.0
C399 C 0.18201 0.83613 0.01008 0.0
C400 C 0.20702 0.87598 0.00993 0.0
C401 C 0.18646 0.90966 0.02938 0.0
C402 C 0.25213 0.86774 0.01964 0.0
C403 C 0.20475 0.88706 0.97738 0.0
C404 C 0.18326 0.85744 0.96131 0.0
C405 C 0.17296 0.86384 0.93152 0.0
C406 C 0.18506 0.9014 0.91789 0.0
C407 C 0.20748 0.93176 0.93406 0.0
C408 C 0.21784 0.92393 0.964 0.0
H409 H 0.83371 0.84179 0.94823 0.0
H410 H 0.76324 0.91898 0.00905 0.0
H411 H 0.80297 0.88986 0.05121 0.0
H412 H 0.84351 0.75 0.99959 0.0
H413 H 0.89515 0.73872 0.98622 0.0
H414 H 0.85721 0.76163 0.9617 0.0
H415 H 0.90824 0.82215 0.95053 0.0
H416 H 0.94604 0.79982 0.97523 0.0
H417 H 0.92863 0.8526 0.98082 0.0
H418 H 0.85978 0.8623 0.08505 0.0
H419 H 0.92229 0.83079 0.10848 0.0
H420 H 0.95055 0.76756 0.02595 0.0
C421 C 0.82581 0.85158 0.97052 0.0
C422 C 0.79546 0.88248 0.97547 0.0
C423 C 0.78611 0.8949 0.00487 0.0
C424 C 0.80863 0.87869 0.02893 0.0
C425 C 0.83954 0.84933 0.0232 0.0
C426 C 0.84729 0.83505 0.99476 0.0
C427 C 0.8834 0.80493 0.99422 0.0
C428 C 0.86894 0.76122 0.98489 0.0
C429 C 0.91864 0.82086 0.97402 0.0
C430 C 0.89593 0.80588 0.02652 0.0
C431 C 0.87046 0.83169 0.04298 0.0
C432 C 0.87917 0.84098 0.07262 0.0
C433 C 0.91474 0.82322 0.0857 0.0
C434 C 0.94057 0.79614 0.06918 0.0
C435 C 0.93059 0.78714 0.03939 0.0
H436 H 0.05958 0.13405 0.69656 0.0
H437 H 0.14344 0.23821 0.68334 0.0
H438 H 0.18316 0.21715 0.72797 0.0
H439 H 0.05699 0.14181 0.77704 0.0
H440 H 0.05395 0.08622 0.78221 0.0
H441 H 0.03271 0.10966 0.74922 0.0
H442 H 0.07839 0.06094 0.71696 0.0
H443 H 0.1002 0.03776 0.74986 0.0
H444 H 0.13398 0.06042 0.72232 0.0
H445 H 0.21642 0.18146 0.77229 0.0
H446 H 0.23434 0.14057 0.81708 0.0
H447 H 0.12559 0.06305 0.80319 0.0
C448 C 0.08613 0.1526 0.7032 0.0
C449 C 0.09858 0.18768 0.68648 0.0
C450 C 0.13327 0.21136 0.69596 0.0
C451 C 0.15617 0.19945 0.72113 0.0
C452 C 0.14352 0.16421 0.73683 0.0
C453 C 0.10877 0.14166 0.72857 0.0
C454 C 0.10079 0.10596 0.74981 0.0
C455 C 0.05862 0.11125 0.7655 0.0
C456 C 0.10351 0.06378 0.73377 0.0
C457 C 0.13669 0.11167 0.77118 0.0
C458 C 0.16138 0.14502 0.76307 0.0
C459 C 0.19707 0.15553 0.77899 0.0
C460 C 0.20718 0.13196 0.80426 0.0
C461 C 0.1813 0.09877 0.81361 0.0
C462 C 0.14585 0.0884 0.79663 0.0
H463 H 0.13665 0.85249 0.18085 0.0
H464 H 0.0657 0.74374 0.2073 0.0
H465 H 0.08582 0.75575 0.2596 0.0
H466 H 0.22236 0.83513 0.23328 0.0
H467 H 0.23 0.88997 0.23982 0.0
H468 H 0.21059 0.87232 0.2045 0.0
H469 H 0.14646 0.92058 0.21013 0.0
H470 H 0.16555 0.93825 0.24549 0.0
H471 H 0.11415 0.91615 0.24268 0.0
H472 H 0.10752 0.78396 0.30917 0.0
H473 H 0.13625 0.82145 0.35247 0.0
H474 H 0.19921 0.90771 0.29367 0.0
C475 C 0.1256 0.83108 0.19767 0.0
C476 C 0.09938 0.79733 0.19018 0.0
C477 C 0.08585 0.7697 0.21264 0.0
C478 C 0.09704 0.77635 0.24236 0.0
C479 C 0.12253 0.81021 0.24907 0.0
C480 C 0.13733 0.83665 0.22732 0.0
C481 C 0.16477 0.87039 0.24044 0.0
C482 C 0.20959 0.86671 0.22882 0.0
C483 C 0.14663 0.91391 0.23432 0.0
C484 C 0.16226 0.85942 0.27309 0.0
C485 C 0.13737 0.82482 0.27756 0.0
C486 C 0.12771 0.81053 0.30592 0.0
C487 C 0.14399 0.83207 0.33032 0.0
C488 C 0.17029 0.86692 0.32623 0.0
C489 C 0.17986 0.88055 0.29727 0.0
H490 H 0.93797 0.8652 0.70271 0.0
H491 H 0.85401 0.76185 0.68701 0.0
H492 H 0.81293 0.78212 0.73119 0.0
H493 H 0.93759 0.85562 0.78339 0.0
H494 H 0.94086 0.91109 0.78905 0.0
H495 H 0.96326 0.88803 0.75633 0.0
H496 H 0.91934 0.93771 0.72354 0.0
H497 H 0.89637 0.96051 0.75614 0.0
H498 H 0.86356 0.9386 0.72773 0.0
H499 H 0.77787 0.81769 0.7749 0.0
H500 H 0.75798 0.85869 0.81924 0.0
H501 H 0.8683 0.9349 0.80845 0.0
C502 C 0.91116 0.84661 0.70876 0.0
C503 C 0.89901 0.81204 0.69146 0.0
C504 C 0.86395 0.78829 0.70012 0.0
C505 C 0.84029 0.79976 0.72503 0.0
C506 C 0.85263 0.83457 0.7413 0.0
C507 C 0.88781 0.85705 0.73389 0.0
C508 C 0.89522 0.89231 0.75555 0.0
C509 C 0.93668 0.88639 0.77206 0.0
C510 C 0.8935 0.93479 0.73979 0.0
C511 C 0.85843 0.88654 0.77611 0.0
C512 C 0.83383 0.85349 0.76728 0.0
C513 C 0.79719 0.8433 0.78221 0.0
C514 C 0.78597 0.86691 0.8072 0.0
C515 C 0.81172 0.89974 0.81727 0.0
C516 C 0.84821 0.90973 0.80135 0.0
H517 H 0.79273 0.13821 0.30645 0.0
H518 H 0.88313 0.04177 0.32634 0.0
H519 H 0.92102 0.05842 0.28027 0.0
H520 H 0.79194 0.12583 0.22615 0.0
H521 H 0.78872 0.18093 0.21883 0.0
H522 H 0.767 0.15991 0.2525 0.0
H523 H 0.81182 0.211 0.28336 0.0
H524 H 0.83387 0.23201 0.2498 0.0
H525 H 0.86747 0.21161 0.27834 0.0
H526 H 0.9486 0.08421 0.23226 0.0
H527 H 0.96679 0.1204 0.18579 0.0
H528 H 0.86236 0.2044 0.19798 0.0
C529 C 0.8202 0.12034 0.30081 0.0
C530 C 0.83486 0.08841 0.31974 0.0
C531 C 0.87139 0.06626 0.31207 0.0
C532 C 0.89307 0.07545 0.28595 0.0
C533 C 0.87823 0.10738 0.26793 0.0
C534 C 0.84287 0.12979 0.27502 0.0
C535 C 0.83504 0.16391 0.25233 0.0
C536 C 0.79319 0.15723 0.23651 0.0
C537 C 0.83719 0.2072 0.26683 0.0
C538 C 0.8714 0.15694 0.23139 0.0
C539 C 0.89558 0.12385 0.24075 0.0
C540 C 0.9301 0.11035 0.22478 0.0
C541 C 0.94016 0.13108 0.19841 0.0
C542 C 0.91622 0.16537 0.18845 0.0
C543 C 0.88155 0.17865 0.20532 0.0
loop_
_geom_bond_atom_site_label_1
_geom_bond_atom_site_label_2
_geom_bond_distance
_geom_bond_site_symmetry_2
_ccdc_geom_bond_type
O0 Cd1 2.223 . S
O0 C8 1.315 . S
Cd1 O0 2.223 . S
Cd1 O4 2.297 . S
Cd1 O5 2.439 . S
Cd1 O11 2.240 . S
Cd2 O3 2.240 . S
Cd2 O10 2.223 . S
Cd2 O12 2.297 . S
Cd2 O13 2.439 . S
O3 Cd2 2.240 . S
O3 C8 1.279 . S
O4 Cd1 2.297 . S
O4 C6 1.247 . S
O5 Cd1 2.439 . S
O5 C6 1.208 . S
C6 O4 1.247 . S
C6 O5 1.208 . S
C7 O12 1.247 . S
C7 O13 1.208 . S
C8 O0 1.315 . S
C8 O3 1.279 . S
C9 O10 1.315 . S
C9 O11 1.279 . S
O10 Cd2 2.223 . S
O10 C9 1.315 . S
O11 Cd1 2.240 . S
O11 C9 1.279 . S
O12 Cd2 2.297 . S
O12 C7 1.247 . S
O13 Cd2 2.439 . S
O13 C7 1.208 . S
O14 Cd15 2.223 . S
O14 C22 1.315 . S
Cd15 O14 2.223 . S
Cd15 O18 2.297 . S
Cd15 O19 2.439 . S
Cd15 O25 2.240 . S
Cd16 O17 2.240 . S
Cd16 O24 2.223 . S
Cd16 O26 2.297 . S
Cd16 O27 2.439 . S
O17 Cd16 2.240 . S
O17 C22 1.279 . S
O18 Cd15 2.297 . S
O18 C20 1.247 . S
O19 Cd15 2.439 . S
O19 C20 1.208 . S
C20 O18 1.247 . S
C20 O19 1.208 . S
C21 O26 1.247 . S
C21 O27 1.208 . S
C22 O14 1.315 . S
C22 O17 1.279 . S
C23 O24 1.315 . S
C23 O25 1.279 . S
O24 Cd16 2.223 . S
O24 C23 1.315 . S
O25 Cd15 2.240 . S
O25 C23 1.279 . S
O26 Cd16 2.297 . S
O26 C21 1.247 . S
O27 Cd16 2.439 . S
O27 C21 1.208 . S
O28 Cd29 2.223 . S
O28 C36 1.315 . S
Cd29 O28 2.223 . S
Cd29 O32 2.297 . S
Cd29 O33 2.439 . S
Cd29 O39 2.240 . S
Cd30 O31 2.240 . S
Cd30 O38 2.223 . S
Cd30 O40 2.297 . S
Cd30 O41 2.439 . S
O31 Cd30 2.240 . S
O31 C36 1.279 . S
O32 Cd29 2.297 . S
O32 C34 1.247 . S
O33 Cd29 2.439 . S
O33 C34 1.208 . S
C34 O32 1.247 . S
C34 O33 1.208 . S
C35 O40 1.247 . S
C35 O41 1.208 . S
C36 O28 1.315 . S
C36 O31 1.279 . S
C37 O38 1.315 . S
C37 O39 1.279 . S
O38 Cd30 2.223 . S
O38 C37 1.315 . S
O39 Cd29 2.240 . S
O39 C37 1.279 . S
O40 Cd30 2.297 . S
O40 C35 1.247 . S
O41 Cd30 2.439 . S
O41 C35 1.208 . S
O42 Cd43 2.223 . S
O42 C50 1.315 . S
Cd43 O42 2.223 . S
Cd43 O46 2.297 . S
Cd43 O47 2.439 . S
Cd43 O53 2.240 . S
Cd44 O45 2.240 . S
Cd44 O52 2.223 . S
Cd44 O54 2.297 . S
Cd44 O55 2.439 . S
O45 Cd44 2.240 . S
O45 C50 1.279 . S
O46 Cd43 2.297 . S
O46 C48 1.247 . S
O47 Cd43 2.439 . S
O47 C48 1.208 . S
C48 O46 1.247 . S
C48 O47 1.208 . S
C49 O54 1.247 . S
C49 O55 1.208 . S
C50 O42 1.315 . S
C50 O45 1.279 . S
C51 O52 1.315 . S
C51 O53 1.279 . S
O52 Cd44 2.223 . S
O52 C51 1.315 . S
O53 Cd43 2.240 . S
O53 C51 1.279 . S
O54 Cd44 2.297 . S
O54 C49 1.247 . S
O55 Cd44 2.439 . S
O55 C49 1.208 . S
O56 Cd57 2.223 . S
O56 C64 1.315 . S
Cd57 O56 2.223 . S
Cd57 O60 2.297 . S
Cd57 O61 2.439 . S
Cd57 O67 2.240 . S
Cd58 O59 2.240 . S
Cd58 O66 2.223 . S
Cd58 O68 2.297 . S
Cd58 O69 2.439 . S
O59 Cd58 2.240 . S
O59 C64 1.279 . S
O60 Cd57 2.297 . S
O60 C62 1.247 . S
O61 Cd57 2.439 . S
O61 C62 1.208 . S
C62 O60 1.247 . S
C62 O61 1.208 . S
C63 O68 1.247 . S
C63 O69 1.208 . S
C64 O56 1.315 . S
C64 O59 1.279 . S
C65 O66 1.315 . S
C65 O67 1.279 . S
O66 Cd58 2.223 . S
O66 C65 1.315 . S
O67 Cd57 2.240 . S
O67 C65 1.279 . S
O68 Cd58 2.297 . S
O68 C63 1.247 . S
O69 Cd58 2.439 . S
O69 C63 1.208 . S
O70 Cd71 2.223 . S
O70 C78 1.315 . S
Cd71 O70 2.223 . S
Cd71 O74 2.297 . S
Cd71 O75 2.439 . S
Cd71 O81 2.240 . S
Cd72 O73 2.240 . S
Cd72 O80 2.223 . S
Cd72 O82 2.297 . S
Cd72 O83 2.439 . S
O73 Cd72 2.240 . S
O73 C78 1.279 . S
O74 Cd71 2.297 . S
O74 C76 1.247 . S
O75 Cd71 2.439 . S
O75 C76 1.208 . S
C76 O74 1.247 . S
C76 O75 1.208 . S
C77 O82 1.247 . S
C77 O83 1.208 . S
C78 O70 1.315 . S
C78 O73 1.279 . S
C79 O80 1.315 . S
C79 O81 1.279 . S
O80 Cd72 2.223 . S
O80 C79 1.315 . S
O81 Cd71 2.240 . S
O81 C79 1.279 . S
O82 Cd72 2.297 . S
O82 C77 1.247 . S
O83 Cd72 2.439 . S
O83 C77 1.208 . S
O84 Cd85 2.223 . S
O84 C92 1.315 . S
Cd85 O84 2.223 . S
Cd85 O88 2.297 . S
Cd85 O89 2.439 . S
Cd85 O95 2.240 . S
Cd86 O87 2.240 . S
Cd86 O94 2.223 . S
Cd86 O96 2.297 . S
Cd86 O97 2.439 . S
O87 Cd86 2.240 . S
O87 C92 1.279 . S
O88 Cd85 2.297 . S
O88 C90 1.247 . S
O89 Cd85 2.439 . S
O89 C90 1.208 . S
C90 O88 1.247 . S
C90 O89 1.208 . S
C91 O96 1.247 . S
C91 O97 1.208 . S
C92 O84 1.315 . S
C92 O87 1.279 . S
C93 O94 1.315 . S
C93 O95 1.279 . S
O94 Cd86 2.223 . S
O94 C93 1.315 . S
O95 Cd85 2.240 . S
O95 C93 1.279 . S
O96 Cd86 2.297 . S
O96 C91 1.247 . S
O97 Cd86 2.439 . S
O97 C91 1.208 . S
O98 Cd99 2.223 . S
O98 C106 1.315 . S
Cd99 O98 2.223 . S
Cd99 O102 2.297 . S
Cd99 O103 2.439 . S
Cd99 O109 2.240 . S
Cd100 O101 2.240 . S
Cd100 O108 2.223 . S
Cd100 O110 2.297 . S
Cd100 O111 2.439 . S
O101 Cd100 2.240 . S
O101 C106 1.279 . S
O102 Cd99 2.297 . S
O102 C104 1.247 . S
O103 Cd99 2.439 . S
O103 C104 1.208 . S
C104 O102 1.247 . S
C104 O103 1.208 . S
C105 O110 1.247 . S
C105 O111 1.208 . S
C106 O98 1.315 . S
C106 O101 1.279 . S
C107 O108 1.315 . S
C107 O109 1.279 . S
O108 Cd100 2.223 . S
O108 C107 1.315 . S
O109 Cd99 2.240 . S
O109 C107 1.279 . S
O110 Cd100 2.297 . S
O110 C105 1.247 . S
O111 Cd100 2.439 . S
O111 C105 1.208 . S
H112 C124 0.930 . S
H113 C126 0.930 . S
H114 C127 0.930 . S
H115 C131 0.959 . S
H116 C131 0.959 . S
H117 C131 0.961 . S
H118 C132 0.960 . S
H119 C132 0.961 . S
H120 C132 0.959 . S
H121 C135 0.929 1_655 S
H122 C136 0.931 . S
H123 C138 0.930 . S
C124 H112 0.930 . S
C124 C125 1.399 . S
C124 C129 1.399 . S
C125 C124 1.399 . S
C125 C126 1.376 . S
C126 H113 0.930 . S
C126 C125 1.376 . S
C126 C127 1.388 . S
C127 H114 0.930 . S
C127 C126 1.388 . S
C127 C128 1.390 . S
C128 C127 1.390 . S
C128 C129 1.394 . S
C128 C134 1.465 1_655 S
C129 C124 1.399 . S
C129 C128 1.394 . S
C129 C130 1.516 1_655 S
C130 C129 1.516 1_455 S
C130 C131 1.502 . S
C130 C132 1.561 1_455 S
C130 C133 1.526 . S
C131 H115 0.959 . S
C131 H116 0.959 . S
C131 H117 0.961 . S
C131 C130 1.502 . S
C132 H118 0.960 . S
C132 H119 0.961 . S
C132 H120 0.959 . S
C132 C130 1.561 1_655 S
C133 C130 1.526 . S
C133 C134 1.396 . S
C133 C138 1.390 . S
C134 C128 1.465 1_455 S
C134 C133 1.396 . S
C134 C135 1.399 . S
C135 H121 0.929 1_455 S
C135 C134 1.399 . S
C135 C136 1.385 . S
C136 H122 0.931 . S
C136 C135 1.385 . S
C136 C137 1.389 . S
C137 C136 1.389 . S
C137 C138 1.387 . S
C138 H123 0.930 . S
C138 C133 1.390 . S
C138 C137 1.387 . S
H139 C151 0.930 . S
H140 C153 0.930 . S
H141 C154 0.930 . S
H142 C158 0.959 . S
H143 C158 0.959 . S
H144 C158 0.961 . S
H145 C159 0.960 . S
H146 C159 0.961 . S
H147 C159 0.959 . S
H148 C162 0.929 . S
H149 C163 0.931 . S
H150 C165 0.930 . S
C151 H139 0.930 . S
C151 C152 1.399 . S
C151 C156 1.399 . S
C152 C151 1.399 . S
C152 C153 1.376 . S
C153 H140 0.930 . S
C153 C152 1.376 . S
C153 C154 1.388 1_545 S
C154 H141 0.930 . S
C154 C153 1.388 1_565 S
C154 C155 1.390 1_565 S
C155 C154 1.390 1_545 S
C155 C156 1.394 . S
C155 C161 1.465 1_545 S
C156 C151 1.399 . S
C156 C155 1.394 . S
C156 C157 1.516 . S
C157 C156 1.516 . S
C157 C158 1.502 . S
C157 C159 1.561 . S
C157 C160 1.526 1_545 S
C158 H142 0.959 . S
C158 H143 0.959 . S
C158 H144 0.961 . S
C158 C157 1.502 . S
C159 H145 0.960 . S
C159 H146 0.961 . S
C159 H147 0.959 . S
C159 C157 1.561 . S
C160 C157 1.526 1_565 S
C160 C161 1.396 . S
C160 C165 1.390 . S
C161 C155 1.465 1_565 S
C161 C160 1.396 . S
C161 C162 1.399 . S
C162 H148 0.929 . S
C162 C161 1.399 . S
C162 C163 1.385 . S
C163 H149 0.931 . S
C163 C162 1.385 . S
C163 C164 1.389 . S
C164 C163 1.389 . S
C164 C165 1.387 . S
C165 H150 0.930 . S
C165 C160 1.390 . S
C165 C164 1.387 . S
H166 C178 0.930 . S
H167 C180 0.930 . S
H168 C181 0.930 . S
H169 C185 0.959 . S
H170 C185 0.959 . S
H171 C185 0.961 . S
H172 C186 0.960 . S
H173 C186 0.961 . S
H174 C186 0.959 1_655 S
H175 C189 0.929 . S
H176 C190 0.931 . S
H177 C192 0.930 . S
C178 H166 0.930 . S
C178 C179 1.399 . S
C178 C183 1.399 . S
C179 C178 1.399 . S
C179 C180 1.376 . S
C180 H167 0.930 . S
C180 C179 1.376 . S
C180 C181 1.388 . S
C181 H168 0.930 . S
C181 C180 1.388 . S
C181 C182 1.390 . S
C182 C181 1.390 . S
C182 C183 1.394 . S
C182 C188 1.465 . S
C183 C178 1.399 . S
C183 C182 1.394 . S
C183 C184 1.516 1_655 S
C184 C183 1.516 1_455 S
C184 C185 1.502 . S
C184 C186 1.561 . S
C184 C187 1.526 . S
C185 H169 0.959 . S
C185 H170 0.959 . S
C185 H171 0.961 . S
C185 C184 1.502 . S
C186 H172 0.960 . S
C186 H173 0.961 . S
C186 H174 0.959 1_455 S
C186 C184 1.561 . S
C187 C184 1.526 . S
C187 C188 1.396 1_455 S
C187 C192 1.390 . S
C188 C182 1.465 . S
C188 C187 1.396 1_655 S
C188 C189 1.399 . S
C189 H175 0.929 . S
C189 C188 1.399 . S
C189 C190 1.385 1_655 S
C190 H176 0.931 . S
C190 C189 1.385 1_455 S
C190 C191 1.389 . S
C191 C190 1.389 . S
C191 C192 1.387 . S
C192 H177 0.930 . S
C192 C187 1.390 . S
C192 C191 1.387 . S
H193 C205 0.930 . S
H194 C207 0.930 . S
H195 C208 0.930 . S
H196 C212 0.959 . S
H197 C212 0.959 . S
H198 C212 0.961 . S
H199 C213 0.960 . S
H200 C213 0.961 1_565 S
H201 C213 0.959 . S
H202 C216 0.929 . S
H203 C217 0.931 . S
H204 C219 0.930 . S
C205 H193 0.930 . S
C205 C206 1.399 . S
C205 C210 1.399 . S
C206 C205 1.399 . S
C206 C207 1.376 . S
C207 H194 0.930 . S
C207 C206 1.376 . S
C207 C208 1.388 . S
C208 H195 0.930 . S
C208 C207 1.388 . S
C208 C209 1.390 . S
C209 C208 1.390 . S
C209 C210 1.394 . S
C209 C215 1.465 . S
C210 C205 1.399 . S
C210 C209 1.394 . S
C210 C211 1.516 1_545 S
C211 C210 1.516 1_565 S
C211 C212 1.502 . S
C211 C213 1.561 1_565 S
C211 C214 1.526 . S
C212 H196 0.959 . S
C212 H197 0.959 . S
C212 H198 0.961 . S
C212 C211 1.502 . S
C213 H199 0.960 . S
C213 H200 0.961 1_545 S
C213 H201 0.959 . S
C213 C211 1.561 1_545 S
C214 C211 1.526 . S
C214 C215 1.396 1_565 S
C214 C219 1.390 . S
C215 C209 1.465 . S
C215 C214 1.396 1_545 S
C215 C216 1.399 . S
C216 H202 0.929 . S
C216 C215 1.399 . S
C216 C217 1.385 1_545 S
C217 H203 0.931 . S
C217 C216 1.385 1_565 S
C217 C218 1.389 . S
C218 C217 1.389 . S
C218 C219 1.387 . S
C219 H204 0.930 . S
C219 C214 1.390 . S
C219 C218 1.387 . S
H220 C232 0.930 1_565 S
H221 C234 0.930 . S
H222 C235 0.930 . S
H223 C239 0.959 . S
H224 C239 0.959 . S
H225 C239 0.961 . S
H226 C240 0.960 . S
H227 C240 0.961 . S
H228 C240 0.959 . S
H229 C243 0.929 . S
H230 C244 0.931 . S
H231 C246 0.930 . S
C232 H220 0.930 1_545 S
C232 C233 1.399 . S
C232 C237 1.399 . S
C233 C232 1.399 . S
C233 C234 1.376 . S
C234 H221 0.930 . S
C234 C233 1.376 . S
C234 C235 1.388 . S
C235 H222 0.930 . S
C235 C234 1.388 . S
C235 C236 1.390 . S
C236 C235 1.390 . S
C236 C237 1.394 . S
C236 C242 1.465 . S
C237 C232 1.399 . S
C237 C236 1.394 . S
C237 C238 1.516 . S
C238 C237 1.516 . S
C238 C239 1.502 . S
C238 C240 1.561 . S
C238 C241 1.526 . S
C239 H223 0.959 . S
C239 H224 0.959 . S
C239 H225 0.961 . S
C239 C238 1.502 . S
C240 H226 0.960 . S
C240 H227 0.961 . S
C240 H228 0.959 . S
C240 C238 1.561 . S
C241 C238 1.526 . S
C241 C242 1.396 . S
C241 C246 1.390 . S
C242 C236 1.465 . S
C242 C241 1.396 . S
C242 C243 1.399 . S
C243 H229 0.929 . S
C243 C242 1.399 . S
C243 C244 1.385 . S
C244 H230 0.931 . S
C244 C243 1.385 . S
C244 C245 1.389 . S
C245 C244 1.389 . S
C245 C246 1.387 . S
C246 H231 0.930 . S
C246 C241 1.390 . S
C246 C245 1.387 . S
H247 C259 0.930 . S
H248 C261 0.930 . S
H249 C262 0.930 . S
H250 C266 0.959 . S
H251 C266 0.959 . S
H252 C266 0.961 . S
H253 C267 0.960 . S
H254 C267 0.961 . S
H255 C267 0.959 . S
H256 C270 0.929 . S
H257 C271 0.931 . S
H258 C273 0.930 . S
C259 H247 0.930 . S
C259 C260 1.399 . S
C259 C264 1.399 . S
C260 C259 1.399 . S
C260 C261 1.376 . S
C261 H248 0.930 . S
C261 C260 1.376 . S
C261 C262 1.388 . S
C262 H249 0.930 . S
C262 C261 1.388 . S
C262 C263 1.390 . S
C263 C262 1.390 . S
C263 C264 1.394 . S
C263 C269 1.465 . S
C264 C259 1.399 . S
C264 C263 1.394 . S
C264 C265 1.516 . S
C265 C264 1.516 . S
C265 C266 1.502 . S
C265 C267 1.561 . S
C265 C268 1.526 . S
C266 H250 0.959 . S
C266 H251 0.959 . S
C266 H252 0.961 . S
C266 C265 1.502 . S
C267 H253 0.960 . S
C267 H254 0.961 . S
C267 H255 0.959 . S
C267 C265 1.561 . S
C268 C265 1.526 . S
C268 C269 1.396 . S
C268 C273 1.390 . S
C269 C263 1.465 . S
C269 C268 1.396 . S
C269 C270 1.399 . S
C270 H256 0.929 . S
C270 C269 1.399 . S
C270 C271 1.385 . S
C271 H257 0.931 . S
C271 C270 1.385 . S
C271 C272 1.389 . S
C272 C271 1.389 . S
C272 C273 1.387 . S
C273 H258 0.930 . S
C273 C268 1.390 . S
C273 C272 1.387 . S
H274 C286 0.930 1_545 S
H275 C288 0.930 . S
H276 C289 0.930 . S
H277 C293 0.959 . S
H278 C293 0.959 . S
H279 C293 0.961 . S
H280 C294 0.960 . S
H281 C294 0.961 . S
H282 C294 0.959 . S
H283 C297 0.929 . S
H284 C298 0.931 . S
H285 C300 0.930 . S
C286 H274 0.930 1_565 S
C286 C287 1.399 . S
C286 C291 1.399 . S
C287 C286 1.399 . S
C287 C288 1.376 . S
C288 H275 0.930 . S
C288 C287 1.376 . S
C288 C289 1.388 . S
C289 H276 0.930 . S
C289 C288 1.388 . S
C289 C290 1.390 . S
C290 C289 1.390 . S
C290 C291 1.394 . S
C290 C296 1.465 . S
C291 C286 1.399 . S
C291 C290 1.394 . S
C291 C292 1.516 . S
C292 C291 1.516 . S
C292 C293 1.502 . S
C292 C294 1.561 . S
C292 C295 1.526 . S
C293 H277 0.959 . S
C293 H278 0.959 . S
C293 H279 0.961 . S
C293 C292 1.502 . S
C294 H280 0.960 . S
C294 H281 0.961 . S
C294 H282 0.959 . S
C294 C292 1.561 . S
C295 C292 1.526 . S
C295 C296 1.396 . S
C295 C300 1.390 . S
C296 C290 1.465 . S
C296 C295 1.396 . S
C296 C297 1.399 . S
C297 H283 0.929 . S
C297 C296 1.399 . S
C297 C298 1.385 . S
C298 H284 0.931 . S
C298 C297 1.385 . S
C298 C299 1.389 . S
C299 C298 1.389 . S
C299 C300 1.387 . S
C300 H285 0.930 . S
C300 C295 1.390 . S
C300 C299 1.387 . S
H301 C313 0.930 . S
H302 C315 0.930 . S
H303 C316 0.930 . S
H304 C320 0.959 . S
H305 C320 0.959 . S
H306 C320 0.961 . S
H307 C321 0.960 . S
H308 C321 0.961 . S
H309 C321 0.959 . S
H310 C324 0.929 . S
H311 C325 0.931 . S
H312 C327 0.930 . S
C313 H301 0.930 . S
C313 C314 1.399 . S
C313 C318 1.399 . S
C314 C313 1.399 . S
C314 C315 1.376 . S
C315 H302 0.930 . S
C315 C314 1.376 . S
C315 C316 1.388 . S
C316 H303 0.930 . S
C316 C315 1.388 . S
C316 C317 1.390 . S
C317 C316 1.390 . S
C317 C318 1.394 . S
C317 C323 1.465 . S
C318 C313 1.399 . S
C318 C317 1.394 . S
C318 C319 1.516 . S
C319 C318 1.516 . S
C319 C320 1.502 . S
C319 C321 1.561 . S
C319 C322 1.526 . S
C320 H304 0.959 . S
C320 H305 0.959 . S
C320 H306 0.961 . S
C320 C319 1.502 . S
C321 H307 0.960 . S
C321 H308 0.961 . S
C321 H309 0.959 . S
C321 C319 1.561 . S
C322 C319 1.526 . S
C322 C323 1.396 . S
C322 C327 1.390 . S
C323 C317 1.465 . S
C323 C322 1.396 . S
C323 C324 1.399 . S
C324 H310 0.929 . S
C324 C323 1.399 . S
C324 C325 1.385 . S
C325 H311 0.931 . S
C325 C324 1.385 . S
C325 C326 1.389 . S
C326 C325 1.389 . S
C326 C327 1.387 . S
C327 H312 0.930 . S
C327 C322 1.390 . S
C327 C326 1.387 . S
H328 C340 0.930 . S
H329 C342 0.927 1_564 S
H330 C343 0.930 . S
H331 C347 0.959 . S
H332 C347 0.959 . S
H333 C347 0.961 . S
H334 C348 0.960 . S
H335 C348 0.961 . S
H336 C348 0.959 . S
H337 C351 0.929 . S
H338 C352 0.931 . S
H339 C354 0.930 1_556 S
C340 H328 0.930 . S
C340 C341 1.399 . S
C340 C345 1.399 . S
C341 C340 1.399 . S
C341 C342 1.376 . S
C342 H329 0.927 1_546 S
C342 C341 1.376 . S
C342 C343 1.388 1_556 S
C343 H330 0.930 . S
C343 C342 1.388 1_554 S
C343 C344 1.390 . S
C344 C343 1.390 . S
C344 C345 1.394 1_554 S
C344 C350 1.465 . S
C345 C340 1.399 . S
C345 C344 1.394 1_556 S
C345 C346 1.516 . S
C346 C345 1.516 . S
C346 C347 1.502 . S
C346 C348 1.561 . S
C346 C349 1.526 1_556 S
C347 H331 0.959 . S
C347 H332 0.959 . S
C347 H333 0.961 . S
C347 C346 1.502 . S
C348 H334 0.960 . S
C348 H335 0.961 . S
C348 H336 0.959 . S
C348 C346 1.561 . S
C349 C346 1.526 1_554 S
C349 C350 1.396 . S
C349 C354 1.390 . S
C350 C344 1.465 . S
C350 C349 1.396 . S
C350 C351 1.399 . S
C351 H337 0.929 . S
C351 C350 1.399 . S
C351 C352 1.385 . S
C352 H338 0.931 . S
C352 C351 1.385 . S
C352 C353 1.389 . S
C353 C352 1.389 . S
C353 C354 1.387 . S
C354 H339 0.930 1_554 S
C354 C349 1.390 . S
C354 C353 1.387 . S
H355 C367 0.930 . S
H356 C369 0.930 . S
H357 C370 0.930 . S
H358 C374 0.959 . S
H359 C374 0.959 . S
H360 C374 0.961 . S
H361 C375 0.960 . S
H362 C375 0.961 . S
H363 C375 0.959 . S
H364 C378 0.929 . S
H365 C379 0.931 . S
H366 C381 0.932 1_556 S
C367 H355 0.930 . S
C367 C368 1.399 . S
C367 C372 1.399 . S
C368 C367 1.399 . S
C368 C369 1.376 . S
C369 H356 0.930 . S
C369 C368 1.376 . S
C369 C370 1.388 1_556 S
C370 H357 0.930 . S
C370 C369 1.388 1_554 S
C370 C371 1.390 . S
C371 C370 1.390 . S
C371 C372 1.394 1_554 S
C371 C377 1.465 . S
C372 C367 1.399 . S
C372 C371 1.394 1_556 S
C372 C373 1.516 . S
C373 C372 1.516 . S
C373 C374 1.502 . S
C373 C375 1.561 . S
C373 C376 1.544 . S
C374 H358 0.959 . S
C374 H359 0.959 . S
C374 H360 0.961 . S
C374 C373 1.502 . S
C375 H361 0.960 . S
C375 H362 0.961 . S
C375 H363 0.959 . S
C375 C373 1.561 . S
C376 C373 1.544 . S
C376 C377 1.384 1_556 S
C376 C381 1.383 1_556 S
C377 C371 1.465 . S
C377 C376 1.384 1_554 S
C377 C378 1.399 . S
C378 H364 0.929 . S
C378 C377 1.399 . S
C378 C379 1.385 . S
C379 H365 0.931 . S
C379 C378 1.385 . S
C379 C380 1.389 . S
C380 C379 1.389 . S
C380 C381 1.387 . S
C381 H366 0.932 1_554 S
C381 C376 1.383 1_554 S
C381 C380 1.387 . S
H382 C394 0.930 . S
H383 C396 0.930 . S
H384 C397 0.930 . S
H385 C401 0.959 . S
H386 C401 0.959 . S
H387 C401 0.961 . S
H388 C402 0.960 . S
H389 C402 0.961 . S
H390 C402 0.959 . S
H391 C405 0.929 . S
H392 C406 0.931 . S
H393 C408 0.930 . S
C394 H382 0.930 . S
C394 C395 1.399 . S
C394 C399 1.399 . S
C395 C394 1.399 . S
C395 C396 1.376 . S
C396 H383 0.930 . S
C396 C395 1.376 . S
C396 C397 1.388 1_554 S
C397 H384 0.930 . S
C397 C396 1.388 1_556 S
C397 C398 1.390 . S
C398 C397 1.390 . S
C398 C399 1.394 1_556 S
C398 C404 1.465 . S
C399 C394 1.399 . S
C399 C398 1.394 1_554 S
C399 C400 1.516 . S
C400 C399 1.516 . S
C400 C401 1.502 . S
C400 C402 1.561 . S
C400 C403 1.526 1_554 S
C401 H385 0.959 . S
C401 H386 0.959 . S
C401 H387 0.961 . S
C401 C400 1.502 . S
C402 H388 0.960 . S
C402 H389 0.961 . S
C402 H390 0.959 . S
C402 C400 1.561 . S
C403 C400 1.526 1_556 S
C403 C404 1.396 . S
C403 C408 1.390 . S
C404 C398 1.465 . S
C404 C403 1.396 . S
C404 C405 1.399 . S
C405 H391 0.929 . S
C405 C404 1.399 . S
C405 C406 1.385 . S
C406 H392 0.931 . S
C406 C405 1.385 . S
C406 C407 1.389 . S
C407 C406 1.389 . S
C407 C408 1.387 . S
C408 H393 0.930 . S
C408 C403 1.390 . S
C408 C407 1.387 . S
H409 C421 0.930 . S
H410 C423 0.930 . S
H411 C424 0.927 1_554 S
H412 C428 0.959 1_554 S
H413 C428 0.959 . S
H414 C428 0.961 . S
H415 C429 0.960 . S
H416 C429 0.961 . S
H417 C429 0.959 . S
H418 C432 0.929 . S
H419 C433 0.931 1_455 S
H420 C435 0.930 . S
C421 H409 0.930 . S
C421 C422 1.399 . S
C421 C426 1.399 . S
C422 C421 1.399 . S
C422 C423 1.376 . S
C423 H410 0.930 . S
C423 C422 1.376 . S
C423 C424 1.388 . S
C424 H411 0.927 1_556 S
C424 C423 1.388 . S
C424 C425 1.390 . S
C425 C424 1.390 . S
C425 C426 1.394 . S
C425 C431 1.465 1_556 S
C426 C421 1.399 . S
C426 C425 1.394 . S
C426 C427 1.516 . S
C427 C426 1.516 . S
C427 C428 1.502 . S
C427 C429 1.561 . S
C427 C430 1.526 1_556 S
C428 H412 0.959 1_556 S
C428 H413 0.959 . S
C428 H414 0.961 . S
C428 C427 1.502 . S
C429 H415 0.960 . S
C429 H416 0.961 . S
C429 H417 0.959 . S
C429 C427 1.561 . S
C430 C427 1.526 1_554 S
C430 C431 1.396 . S
C430 C435 1.390 . S
C431 C425 1.465 1_554 S
C431 C430 1.396 . S
C431 C432 1.399 . S
C432 H418 0.929 . S
C432 C431 1.399 . S
C432 C433 1.385 . S
C433 H419 0.931 1_655 S
C433 C432 1.385 . S
C433 C434 1.389 . S
C434 C433 1.389 . S
C434 C435 1.387 . S
C435 H420 0.930 . S
C435 C430 1.390 . S
C435 C434 1.387 . S
H436 C448 0.930 . S
H437 C450 0.930 . S
H438 C451 0.930 . S
H439 C455 0.959 . S
H440 C455 0.959 . S
H441 C455 0.961 . S
H442 C456 0.960 . S
H443 C456 0.961 . S
H444 C456 0.959 . S
H445 C459 0.929 . S
H446 C460 0.931 . S
H447 C462 0.930 . S
C448 H436 0.930 . S
C448 C449 1.399 . S
C448 C453 1.399 . S
C449 C448 1.399 . S
C449 C450 1.376 . S
C450 H437 0.930 . S
C450 C449 1.376 . S
C450 C451 1.388 . S
C451 H438 0.930 . S
C451 C450 1.388 . S
C451 C452 1.390 . S
C452 C451 1.390 . S
C452 C453 1.394 . S
C452 C458 1.465 . S
C453 C448 1.399 . S
C453 C452 1.394 . S
C453 C454 1.516 . S
C454 C453 1.516 . S
C454 C455 1.502 . S
C454 C456 1.561 . S
C454 C457 1.526 . S
C455 H439 0.959 . S
C455 H440 0.959 . S
C455 H441 0.961 . S
C455 C454 1.502 . S
C456 H442 0.960 . S
C456 H443 0.961 . S
C456 H444 0.959 . S
C456 C454 1.561 . S
C457 C454 1.526 . S
C457 C458 1.396 . S
C457 C462 1.390 . S
C458 C452 1.465 . S
C458 C457 1.396 . S
C458 C459 1.399 . S
C459 H445 0.929 . S
C459 C458 1.399 . S
C459 C460 1.385 . S
C460 H446 0.931 . S
C460 C459 1.385 . S
C460 C461 1.389 . S
C461 C460 1.389 . S
C461 C462 1.387 . S
C462 H447 0.930 . S
C462 C457 1.390 . S
C462 C461 1.387 . S
H463 C475 0.930 . S
H464 C477 0.930 . S
H465 C478 0.930 . S
H466 C482 0.959 . S
H467 C482 0.959 . S
H468 C482 0.961 . S
H469 C483 0.960 . S
H470 C483 0.961 . S
H471 C483 0.959 . S
H472 C486 0.929 . S
H473 C487 0.931 . S
H474 C489 0.930 . S
C475 H463 0.930 . S
C475 C476 1.399 . S
C475 C480 1.399 . S
C476 C475 1.399 . S
C476 C477 1.376 . S
C477 H464 0.930 . S
C477 C476 1.376 . S
C477 C478 1.388 . S
C478 H465 0.930 . S
C478 C477 1.388 . S
C478 C479 1.390 . S
C479 C478 1.390 . S
C479 C480 1.394 . S
C479 C485 1.465 . S
C480 C475 1.399 . S
C480 C479 1.394 . S
C480 C481 1.516 . S
C481 C480 1.516 . S
C481 C482 1.502 . S
C481 C483 1.561 . S
C481 C484 1.526 . S
C482 H466 0.959 . S
C482 H467 0.959 . S
C482 H468 0.961 . S
C482 C481 1.502 . S
C483 H469 0.960 . S
C483 H470 0.961 . S
C483 H471 0.959 . S
C483 C481 1.561 . S
C484 C481 1.526 . S
C484 C485 1.396 . S
C484 C489 1.390 . S
C485 C479 1.465 . S
C485 C484 1.396 . S
C485 C486 1.399 . S
C486 H472 0.929 . S
C486 C485 1.399 . S
C486 C487 1.385 . S
C487 H473 0.931 . S
C487 C486 1.385 . S
C487 C488 1.389 . S
C488 C487 1.389 . S
C488 C489 1.387 . S
C489 H474 0.930 . S
C489 C484 1.390 . S
C489 C488 1.387 . S
H490 C502 0.930 . S
H491 C504 0.930 . S
H492 C505 0.930 . S
H493 C509 0.959 . S
H494 C509 0.959 . S
H495 C509 0.961 . S
H496 C510 0.960 . S
H497 C510 0.961 . S
H498 C510 0.959 . S
H499 C513 0.929 . S
H500 C514 0.931 . S
H501 C516 0.930 . S
C502 H490 0.930 . S
C502 C503 1.399 . S
C502 C507 1.399 . S
C503 C502 1.399 . S
C503 C504 1.376 . S
C504 H491 0.930 . S
C504 C503 1.376 . S
C504 C505 1.388 . S
C505 H492 0.930 . S
C505 C504 1.388 . S
C505 C506 1.390 . S
C506 C505 1.390 . S
C506 C507 1.394 . S
C506 C512 1.465 . S
C507 C502 1.399 . S
C507 C506 1.394 . S
C507 C508 1.516 . S
C508 C507 1.516 . S
C508 C509 1.502 . S
C508 C510 1.561 . S
C508 C511 1.526 . S
C509 H493 0.959 . S
C509 H494 0.959 . S
C509 H495 0.961 . S
C509 C508 1.502 . S
C510 H496 0.960 . S
C510 H497 0.961 . S
C510 H498 0.959 . S
C510 C508 1.561 . S
C511 C508 1.526 . S
C511 C512 1.396 . S
C511 C516 1.390 . S
C512 C506 1.465 . S
C512 C511 1.396 . S
C512 C513 1.399 . S
C513 H499 0.929 . S
C513 C512 1.399 . S
C513 C514 1.385 . S
C514 H500 0.931 . S
C514 C513 1.385 . S
C514 C515 1.389 . S
C515 C514 1.389 . S
C515 C516 1.387 . S
C516 H501 0.930 . S
C516 C511 1.390 . S
C516 C515 1.387 . S
H517 C529 0.930 . S
H518 C531 0.930 . S
H519 C532 0.930 . S
H520 C536 0.959 . S
H521 C536 0.959 . S
H522 C536 0.961 . S
H523 C537 0.960 . S
H524 C537 0.961 . S
H525 C537 0.959 . S
H526 C540 0.929 . S
H527 C541 0.931 . S
H528 C543 0.930 . S
C529 H517 0.930 . S
C529 C530 1.399 . S
C529 C534 1.399 . S
C530 C529 1.399 . S
C530 C531 1.376 . S
C531 H518 0.930 . S
C531 C530 1.376 . S
C531 C532 1.388 . S
C532 H519 0.930 . S
C532 C531 1.388 . S
C532 C533 1.390 . S
C533 C532 1.390 . S
C533 C534 1.394 . S
C533 C539 1.465 . S
C534 C529 1.399 . S
C534 C533 1.394 . S
C534 C535 1.516 . S
C535 C534 1.516 . S
C535 C536 1.502 . S
C535 C537 1.561 . S
C535 C538 1.526 . S
C536 H520 0.959 . S
C536 H521 0.959 . S
C536 H522 0.961 . S
C536 C535 1.502 . S
C537 H523 0.960 . S
C537 H524 0.961 . S
C537 H525 0.959 . S
C537 C535 1.561 . S
C538 C535 1.526 . S
C538 C539 1.396 . S
C538 C543 1.390 . S
C539 C533 1.465 . S
C539 C538 1.396 . S
C539 C540 1.399 . S
C540 H526 0.929 . S
C540 C539 1.399 . S
C540 C541 1.385 . S
C541 H527 0.931 . S
C541 C540 1.385 . S
C541 C542 1.389 . S
C542 C541 1.389 . S
C542 C543 1.387 . S
C543 H528 0.930 . S
C543 C538 1.390 . S
C543 C542 1.387 . S
C125 C34 1.411 . S
C137 C6 1.393 . S
C152 C48 1.438 . S
C164 C20 1.447 . S
C179 C62 1.441 . S
C191 C90 1.425 . S
C206 C76 1.417 . S
C218 C104 1.393 . S
C233 C22 1.426 1_545 S
C245 C9 1.416 . S
C260 C23 1.398 . S
C272 C36 1.444 1_455 S
C287 C50 1.432 1_565 S
C299 C37 1.408 . S
C314 C51 1.399 . S
C326 C8 1.444 1_655 S
C341 C106 1.401 1_545 S
C353 C65 1.363 . S
C368 C79 1.377 . S
C380 C64 1.444 1_455 S
C395 C93 1.402 . S
C407 C78 1.443 1_565 S
C422 C107 1.343 . S
C434 C92 1.441 1_655 S
C449 C7 1.613 . S
C461 C77 1.606 . S
C476 C91 1.574 . S
C488 C21 1.578 . S
C503 C35 1.609 . S
C515 C105 1.613 . S
C530 C49 1.551 . S
C542 C63 1.553 . S
