# Generated by pormake.
# Topology uni, (4)-cn, num edge types: 1
# Building blocks:
#     Node 0, Type 0, BuildingBlock: TATPOV_clean_sbu_0, # of connection points: 4
#     Node 1, Type 0, BuildingBlock: TATPOV_clean_sbu_0, # of connection points: 4
#     Node 2, Type 0, BuildingBlock: TATPOV_clean_sbu_0, # of connection points: 4
#     Node 3, Type 0, BuildingBlock: TATPOV_clean_sbu_0, # of connection points: 4
#     Node 4, Type 0, BuildingBlock: TATPOV_clean_sbu_0, # of connection points: 4
#     Node 5, Type 0, BuildingBlock: TATPOV_clean_sbu_0, # of connection points: 4
#     Edge 6, Type (0, 0), BuildingBlock: FUNLAD_clean_linker_1, # of connection points: 2
#     Edge 7, Type (0, 0), BuildingBlock: FUNLAD_clean_linker_1, # of connection points: 2
#     Edge 8, Type (0, 0), BuildingBlock: FUNLAD_clean_linker_1, # of connection points: 2
#     Edge 9, Type (0, 0), BuildingBlock: FUNLAD_clean_linker_1, # of connection points: 2
#     Edge 10, Type (0, 0), BuildingBlock: FUNLAD_clean_linker_1, # of connection points: 2
#     Edge 11, Type (0, 0), BuildingBlock: FUNLAD_clean_linker_1, # of connection points: 2
#     Edge 12, Type (0, 0), BuildingBlock: FUNLAD_clean_linker_1, # of connection points: 2
#     Edge 13, Type (0, 0), BuildingBlock: FUNLAD_clean_linker_1, # of connection points: 2
#     Edge 14, Type (0, 0), BuildingBlock: FUNLAD_clean_linker_1, # of connection points: 2
#     Edge 15, Type (0, 0), BuildingBlock: FUNLAD_clean_linker_1, # of connection points: 2
#     Edge 16, Type (0, 0), BuildingBlock: FUNLAD_clean_linker_1, # of connection points: 2
#     Edge 17, Type (0, 0), BuildingBlock: FUNLAD_clean_linker_1, # of connection points: 2
# Relax obj value: 0.034
# Max RMSD: 0.067
# Mean RMSD: 0.067
data_MOF--net-uni--node1-TATPOV_clean_sbu_0--edge1-FUNLAD_clean_linker_1
_symmetry_space_group_name_H-M    P1
_symmetry_Int_Tables_number       1
_symmetry_cell_setting            triclinic
loop_
_symmetry_equiv_pos_as_xyz
'x, y, z'
_cell_length_a     40.594147
_cell_length_b     40.572599
_cell_length_c     23.900201
_cell_angle_alpha  90.015455
_cell_angle_beta   90.042753
_cell_angle_gamma 120.05893
loop_
_atom_site_label
_atom_site_type_symbol
_atom_site_fract_x
_atom_site_fract_y
_atom_site_fract_z
_atom_type_partial_charge
Zn0 Zn 0.55729 0.93649 0.06401 0.0
Zn1 Zn 0.6326 0.99228 0.05604 0.0
O2 O 0.63657 0.94496 0.07488 0.0
O3 O 0.57627 0.89967 0.07989 0.0
O4 O 0.68649 0.03526 0.04415 0.0
O5 O 0.5482 0.9479 0.98487 0.0
O6 O 0.60873 0.99221 0.98061 0.0
C7 C 0.61134 0.91024 0.08298 0.0
C8 C 0.58008 0.99824 0.14294 0.0
O9 O 0.61249 0.01095 0.12001 0.0
O10 O 0.55191 0.96694 0.12714 0.0
C11 C 0.70617 0.05934 0.08176 0.0
O12 O 0.69259 0.05514 0.13269 0.0
C13 C 0.57589 0.97419 0.95833 0.0
Zn14 Zn 0.66831 0.57478 0.2339 0.0
Zn15 Zn 0.67256 0.64325 0.21521 0.0
O16 O 0.72813 0.65782 0.23057 0.0
O17 O 0.72479 0.60331 0.25144 0.0
O18 O 0.67532 0.69304 0.19678 0.0
O19 O 0.64966 0.55852 0.15404 0.0
O20 O 0.64682 0.61119 0.14565 0.0
C21 C 0.74413 0.63915 0.24578 0.0
C22 C 0.62254 0.59243 0.30912 0.0
O23 O 0.63794 0.62411 0.28339 0.0
O24 O 0.62992 0.56661 0.29532 0.0
C25 C 0.69669 0.72389 0.22278 0.0
O26 O 0.71832 0.72409 0.26377 0.0
C27 C 0.6405 0.57929 0.12632 0.0
Zn28 Zn 0.13266 0.67022 0.40547 0.0
Zn29 Zn 0.06504 0.67019 0.40921 0.0
O30 O 0.10443 0.72664 0.42146 0.0
O31 O 0.15914 0.72743 0.41832 0.0
O32 O 0.01425 0.66771 0.40748 0.0
O33 O 0.1189 0.64682 0.32752 0.0
O34 O 0.06531 0.648 0.33283 0.0
C35 C 0.14062 0.74474 0.42433 0.0
C36 C 0.08167 0.62318 0.49323 0.0
O37 O 0.05993 0.63465 0.47371 0.0
O38 O 0.11425 0.63455 0.47225 0.0
C39 C 0.0089 0.69058 0.37781 0.0
O40 O 0.03755 0.71778 0.35004 0.0
C41 C 0.08741 0.63983 0.30633 0.0
Zn42 Zn 0.49243 0.13272 0.56209 0.0
Zn43 Zn 0.4182 0.07452 0.55396 0.0
O44 O 0.41179 0.12006 0.57578 0.0
O45 O 0.47124 0.16726 0.58088 0.0
O46 O 0.36493 0.0301 0.54219 0.0
O47 O 0.5019 0.12336 0.48215 0.0
O48 O 0.44238 0.07662 0.47779 0.0
C49 C 0.43587 0.15501 0.585 0.0
C50 C 0.47298 0.07062 0.63887 0.0
O51 O 0.44027 0.05686 0.61646 0.0
O52 O 0.50016 0.10265 0.62344 0.0
C53 C 0.34731 0.00424 0.57857 0.0
O54 O 0.36269 0.00722 0.62796 0.0
C55 C 0.47496 0.09639 0.45534 0.0
Zn56 Zn 0.3954 0.49416 0.72711 0.0
Zn57 Zn 0.38324 0.42179 0.72277 0.0
O58 O 0.32914 0.41262 0.73208 0.0
O59 O 0.33856 0.47075 0.74225 0.0
O60 O 0.37658 0.36956 0.71218 0.0
O61 O 0.4168 0.50471 0.6485 0.0
O62 O 0.41079 0.44767 0.65007 0.0
C63 C 0.31626 0.435 0.74102 0.0
C64 C 0.43524 0.47658 0.81247 0.0
O65 O 0.41654 0.44286 0.79308 0.0
O66 O 0.43225 0.50343 0.79067 0.0
C67 C 0.35328 0.33947 0.73818 0.0
O68 O 0.33115 0.341 0.77685 0.0
C69 C 0.42181 0.47937 0.6257 0.0
Zn70 Zn 0.9269 0.39561 0.91709 0.0
Zn71 Zn 0.98915 0.38913 0.89051 0.0
O72 O 0.94823 0.33379 0.90784 0.0
O73 O 0.8985 0.33876 0.93221 0.0
O74 O 0.03566 0.3863 0.86809 0.0
O75 O 0.92848 0.41663 0.83938 0.0
O76 O 0.98025 0.41371 0.82176 0.0
C77 C 0.91393 0.31859 0.92472 0.0
C78 C 0.99249 0.44046 0.98736 0.0
O79 O 0.00733 0.42522 0.9578 0.0
O80 O 0.95857 0.43274 0.97849 0.0
C81 C 0.06054 0.3898 0.90365 0.0
O82 O 0.05536 0.39375 0.95687 0.0
C83 C 0.95569 0.42282 0.80709 0.0
H84 H 0.60056 0.04644 0.20203 0.0
C85 C 0.57544 0.02075 0.18742 0.0
H86 H 0.51566 0.98618 0.19343 0.0
H87 H 0.55629 0.07672 0.43667 0.0
H88 H 0.5886 0.0419 0.45924 0.0
H89 H 0.59683 0.00261 0.38802 0.0
H90 H 0.57296 0.9981 0.29381 0.0
C91 C 0.54123 0.01085 0.20928 0.0
C92 C 0.53668 0.03465 0.25242 0.0
C93 C 0.55073 0.03681 0.30744 0.0
C94 C 0.54549 0.05902 0.34869 0.0
C95 C 0.55954 0.06043 0.4035 0.0
C96 C 0.57808 0.04048 0.41715 0.0
C97 C 0.58275 0.0184 0.37705 0.0
C98 C 0.56913 0.0163 0.32291 0.0
H99 H 0.45865 0.05976 0.38055 0.0
C100 C 0.48219 0.08425 0.40082 0.0
H101 H 0.54158 0.12197 0.40142 0.0
H102 H 0.50685 0.03701 0.15067 0.0
H103 H 0.4744 0.07185 0.12811 0.0
H104 H 0.46564 0.11064 0.19965 0.0
H105 H 0.48919 0.11473 0.29427 0.0
C106 C 0.51751 0.09873 0.38003 0.0
C107 C 0.52553 0.07836 0.33513 0.0
C108 C 0.51191 0.07659 0.27997 0.0
C109 C 0.5173 0.05451 0.23864 0.0
C110 C 0.50339 0.0532 0.18381 0.0
C111 C 0.48481 0.07315 0.17024 0.0
C112 C 0.47985 0.09496 0.21053 0.0
C113 C 0.49329 0.09688 0.26477 0.0
H114 H 0.591 0.60921 0.36668 0.0
C115 C 0.5953 0.58582 0.35441 0.0
H116 H 0.57782 0.5277 0.36621 0.0
H117 H 0.52162 0.56856 0.60391 0.0
H118 H 0.58878 0.60842 0.62441 0.0
H119 H 0.63731 0.61927 0.55351 0.0
H120 H 0.61894 0.59043 0.46165 0.0
C121 C 0.57512 0.55184 0.37959 0.0
C122 C 0.54613 0.54525 0.4228 0.0
C123 C 0.55745 0.56226 0.47643 0.0
C124 C 0.52948 0.5556 0.51753 0.0
C125 C 0.54158 0.5727 0.57094 0.0
C126 C 0.58009 0.59561 0.58338 0.0
C127 C 0.6074 0.60174 0.54345 0.0
C128 C 0.59641 0.5852 0.49067 0.0
H129 H 0.44772 0.46494 0.55591 0.0
C130 C 0.44359 0.48739 0.5733 0.0
H131 H 0.45932 0.54543 0.56862 0.0
H132 H 0.51493 0.50869 0.32393 0.0
H133 H 0.44767 0.469 0.30324 0.0
H134 H 0.39914 0.45811 0.37421 0.0
H135 H 0.4176 0.48673 0.46639 0.0
C136 C 0.46166 0.52221 0.55013 0.0
C137 C 0.49032 0.53138 0.50524 0.0
C138 C 0.47899 0.51481 0.45138 0.0
C139 C 0.50697 0.5215 0.41026 0.0
C140 C 0.4949 0.5045 0.35682 0.0
C141 C 0.45637 0.48172 0.34432 0.0
C142 C 0.42905 0.47556 0.3843 0.0
C143 C 0.44004 0.49195 0.43718 0.0
H144 H 0.93931 0.4517 0.74397 0.0
C145 C 0.96099 0.44463 0.75527 0.0
H146 H 0.01657 0.4551 0.73923 0.0
H147 H 0.98395 0.52093 0.50429 0.0
H148 H 0.93943 0.45484 0.48191 0.0
H149 H 0.92352 0.40417 0.55156 0.0
H150 H 0.9521 0.41931 0.64407 0.0
C151 C 0.99374 0.46008 0.7264 0.0
C152 C 0.00271 0.49021 0.68406 0.0
C153 C 0.98556 0.48088 0.63041 0.0
C154 C 0.99487 0.5101 0.59021 0.0
C155 C 0.9778 0.49993 0.53656 0.0
C156 C 0.95222 0.46208 0.52312 0.0
C157 C 0.94325 0.43356 0.56234 0.0
C158 C 0.95973 0.44265 0.61536 0.0
H159 H 0.08934 0.58802 0.55623 0.0
C160 C 0.06906 0.59556 0.53952 0.0
H161 H 0.01228 0.58428 0.54226 0.0
H162 H 0.03985 0.51782 0.78385 0.0
H163 H 0.08301 0.584 0.80715 0.0
H164 H 0.09761 0.63486 0.73842 0.0
H165 H 0.06934 0.61977 0.64585 0.0
C166 C 0.0335 0.57846 0.56003 0.0
C167 C 0.02148 0.5485 0.60374 0.0
C168 C 0.03769 0.55794 0.65807 0.0
C169 C 0.02869 0.5287 0.698 0.0
C170 C 0.04563 0.53886 0.75179 0.0
C171 C 0.07041 0.57678 0.76582 0.0
C172 C 0.07867 0.6054 0.72711 0.0
C173 C 0.06247 0.59629 0.67392 0.0
H174 H 0.59418 0.01069 0.88343 0.0
C175 C 0.56965 0.98764 0.90431 0.0
H176 H 0.50953 0.9538 0.9051 0.0
H177 H 0.53004 0.10754 0.7825 0.0
H178 H 0.54535 0.13412 0.87609 0.0
H179 H 0.55243 0.09815 0.95383 0.0
H180 H 0.54444 0.03555 0.93838 0.0
C181 C 0.53459 0.97642 0.88471 0.0
C182 C 0.52889 0.99735 0.83829 0.0
C183 C 0.53322 0.03379 0.84835 0.0
C184 C 0.52865 0.0543 0.80376 0.0
C185 C 0.53325 0.0907 0.81483 0.0
C186 C 0.54196 0.10629 0.86841 0.0
C187 C 0.54598 0.08606 0.91215 0.0
C188 C 0.54154 0.05019 0.90257 0.0
H189 H 0.45451 0.02259 0.69765 0.0
C190 C 0.47901 0.04863 0.68263 0.0
H191 H 0.53834 0.08591 0.68992 0.0
H192 H 0.51744 0.92777 0.80595 0.0
H193 H 0.50203 0.90101 0.71223 0.0
H194 H 0.49509 0.93699 0.63435 0.0
H195 H 0.50324 0.99976 0.64965 0.0
C196 C 0.51368 0.05956 0.70363 0.0
C197 C 0.51899 0.03801 0.74957 0.0
C198 C 0.5145 0.0015 0.73956 0.0
C199 C 0.51913 0.98101 0.78421 0.0
C200 C 0.51435 0.94456 0.77337 0.0
C201 C 0.50556 0.92891 0.71982 0.0
C202 C 0.50159 0.94914 0.67598 0.0
C203 C 0.50612 0.98508 0.68543 0.0
H204 H 0.62935 0.55146 0.04343 0.0
C205 C 0.61985 0.56517 0.07321 0.0
H206 H 0.57863 0.57975 0.09491 0.0
H207 H 0.50719 0.58376 0.8687 0.0
H208 H 0.53386 0.64842 0.90177 0.0
H209 H 0.57677 0.67113 0.98343 0.0
H210 H 0.5925 0.62894 0.03318 0.0
C211 C 0.58797 0.56664 0.06375 0.0
C212 C 0.56566 0.55331 0.01072 0.0
C213 C 0.55815 0.5789 0.98037 0.0
C214 C 0.53481 0.56627 0.93173 0.0
C215 C 0.52587 0.59193 0.90459 0.0
C216 C 0.54084 0.62923 0.92331 0.0
C217 C 0.56489 0.64198 0.96936 0.0
C218 C 0.57352 0.61729 0.99772 0.0
H219 H 0.45061 0.46546 0.89616 0.0
C220 C 0.46069 0.48479 0.8607 0.0
H221 H 0.50514 0.53411 0.82429 0.0
H222 H 0.56743 0.49396 0.06386 0.0
H223 H 0.54715 0.43156 0.02511 0.0
H224 H 0.51799 0.41405 0.93128 0.0
H225 H 0.50728 0.45831 0.8771 0.0
C226 C 0.49564 0.51582 0.86098 0.0
C227 C 0.52065 0.5286 0.91156 0.0
C228 C 0.53024 0.50377 0.93992 0.0
C229 C 0.55069 0.51531 0.99134 0.0
C230 C 0.55507 0.48803 0.02247 0.0
C231 C 0.54309 0.45184 0.001 0.0
C232 C 0.52643 0.44189 0.9484 0.0
C233 C 0.52002 0.46743 0.91802 0.0
H234 H 0.04423 0.47316 0.0387 0.0
C235 C 0.01571 0.4682 0.03087 0.0
H236 H 0.97444 0.48315 0.05294 0.0
H237 H 0.04487 0.54342 0.29293 0.0
H238 H 0.99148 0.4817 0.31753 0.0
H239 H 0.9536 0.435 0.24437 0.0
H240 H 0.96902 0.44973 0.14615 0.0
C241 C 0.00311 0.48821 0.05943 0.0
C242 C 0.0268 0.51616 0.10307 0.0
C243 C 0.01716 0.5072 0.16017 0.0
C244 C 0.03874 0.53424 0.20225 0.0
C245 C 0.029 0.52424 0.25912 0.0
C246 C 0.99853 0.48881 0.27387 0.0
C247 C 0.97722 0.46252 0.23269 0.0
C248 C 0.98634 0.47139 0.17645 0.0
H249 H 0.04657 0.61332 0.23729 0.0
C250 C 0.07358 0.61809 0.25388 0.0
H251 H 0.11646 0.60308 0.2472 0.0
H252 H 0.05232 0.54284 0.99725 0.0
H253 H 0.10625 0.60431 0.97294 0.0
H254 H 0.14419 0.65083 0.04629 0.0
H255 H 0.12822 0.63614 0.14457 0.0
C256 C 0.08993 0.59963 0.23088 0.0
C257 C 0.0695 0.57043 0.187 0.0
C258 C 0.07973 0.57908 0.13006 0.0
C259 C 0.05817 0.55202 0.08789 0.0
C260 C 0.06816 0.56196 0.03112 0.0
C261 C 0.09896 0.59724 0.01655 0.0
C262 C 0.12029 0.62346 0.05785 0.0
C263 C 0.11085 0.61469 0.11403 0.0
H264 H 0.71453 0.78473 0.23264 0.0
C265 C 0.69647 0.75916 0.20856 0.0
H266 H 0.65662 0.73513 0.14266 0.0
H267 H 0.63861 0.88374 0.21084 0.0
H268 H 0.61551 0.85263 0.30054 0.0
H269 H 0.61696 0.79414 0.32382 0.0
H270 H 0.64212 0.76688 0.2582 0.0
C271 C 0.67394 0.76016 0.16816 0.0
C272 C 0.67294 0.7955 0.15492 0.0
C273 C 0.65694 0.81028 0.19334 0.0
C274 C 0.65441 0.84295 0.17892 0.0
C275 C 0.63983 0.85814 0.21886 0.0
C276 C 0.6267 0.84071 0.27063 0.0
C277 C 0.62765 0.80786 0.28381 0.0
C278 C 0.64245 0.79265 0.24578 0.0
H279 H 0.59904 0.85253 0.10467 0.0
C280 C 0.622 0.88163 0.09825 0.0
H281 H 0.6817 0.91856 0.09968 0.0
H282 H 0.70708 0.77583 0.07311 0.0
H283 H 0.72918 0.80658 0.98291 0.0
H284 H 0.72269 0.86189 0.95683 0.0
H285 H 0.69421 0.88695 0.02094 0.0
C286 C 0.65807 0.88999 0.10688 0.0
C287 C 0.66613 0.85965 0.12519 0.0
C288 C 0.6831 0.84559 0.0875 0.0
C289 C 0.68649 0.81347 0.10236 0.0
C290 C 0.70343 0.79991 0.06376 0.0
C291 C 0.71631 0.81733 0.01189 0.0
C292 C 0.71268 0.8485 0.99722 0.0
C293 C 0.69626 0.86257 0.03438 0.0
H294 H 0.94663 0.65724 0.38726 0.0
C295 C 0.96981 0.6833 0.36975 0.0
H296 H 0.98481 0.73181 0.32017 0.0
H297 H 0.83167 0.65189 0.18124 0.0
H298 H 0.87949 0.66703 0.10976 0.0
H299 H 0.94718 0.69469 0.13502 0.0
H300 H 0.96747 0.70739 0.23175 0.0
C301 C 0.96187 0.70616 0.33889 0.0
C302 C 0.92184 0.69434 0.32348 0.0
C303 C 0.91061 0.68773 0.26641 0.0
C304 C 0.87156 0.67178 0.25176 0.0
C305 C 0.86095 0.66435 0.19468 0.0
C306 C 0.88811 0.67279 0.15319 0.0
C307 C 0.92621 0.68836 0.16742 0.0
C308 C 0.93747 0.6956 0.22325 0.0
H309 H 0.80176 0.69002 0.24917 0.0
C310 C 0.78537 0.65965 0.25775 0.0
H311 H 0.78645 0.61187 0.29079 0.0
H312 H 0.93464 0.71098 0.43524 0.0
H313 H 0.88681 0.69685 0.5065 0.0
H314 H 0.81881 0.66666 0.48146 0.0
H315 H 0.79831 0.65087 0.38487 0.0
C316 C 0.80272 0.64189 0.27996 0.0
C317 C 0.84391 0.66261 0.29415 0.0
C318 C 0.85534 0.67101 0.35083 0.0
C319 C 0.89442 0.6875 0.36545 0.0
C320 C 0.90519 0.69707 0.42212 0.0
C321 C 0.87806 0.68944 0.46337 0.0
C322 C 0.83978 0.6725 0.44925 0.0
C323 C 0.82839 0.66347 0.39369 0.0
H324 H 0.14526 0.8012 0.43426 0.0
C325 C 0.16096 0.78601 0.4363 0.0
H326 H 0.21362 0.78951 0.45325 0.0
H327 H 0.32762 0.96121 0.42165 0.0
H328 H 0.34047 0.9348 0.33936 0.0
H329 H 0.29763 0.86794 0.312 0.0
H330 H 0.24185 0.82697 0.36738 0.0
C331 C 0.19774 0.80454 0.45187 0.0
C332 C 0.21927 0.84616 0.46395 0.0
C333 C 0.25109 0.87018 0.43016 0.0
C334 C 0.27524 0.90899 0.4452 0.0
C335 C 0.30777 0.93174 0.41187 0.0
C336 C 0.3156 0.91692 0.36442 0.0
C337 C 0.29153 0.87927 0.34908 0.0
C338 C 0.25967 0.85603 0.3814 0.0
H339 H 0.30381 0.94423 0.59145 0.0
C340 C 0.31308 0.96816 0.56298 0.0
H341 H 0.30508 0.98665 0.48437 0.0
H342 H 0.16138 0.80803 0.53982 0.0
H343 H 0.14539 0.83582 0.6173 0.0
H344 H 0.18342 0.90465 0.63712 0.0
H345 H 0.23841 0.94588 0.58023 0.0
C346 C 0.29549 0.96298 0.51336 0.0
C347 C 0.26711 0.92397 0.49355 0.0
C348 C 0.23357 0.90075 0.52472 0.0
C349 C 0.21029 0.86149 0.51111 0.0
C350 C 0.179 0.83835 0.54624 0.0
C351 C 0.16962 0.8539 0.59124 0.0
C352 C 0.19112 0.89262 0.60256 0.0
C353 C 0.22276 0.91589 0.56986 0.0
H354 H 0.3325 0.278 0.75002 0.0
C355 C 0.35134 0.30293 0.72537 0.0
H356 H 0.3904 0.32453 0.65833 0.0
H357 H 0.40894 0.1765 0.71801 0.0
H358 H 0.43409 0.207 0.80767 0.0
H359 H 0.43184 0.26446 0.83513 0.0
H360 H 0.40394 0.29136 0.77373 0.0
C361 C 0.37256 0.3001 0.68453 0.0
C362 C 0.37131 0.26371 0.67097 0.0
C363 C 0.38843 0.24888 0.70721 0.0
C364 C 0.39112 0.21667 0.69049 0.0
C365 C 0.40735 0.20169 0.72794 0.0
C366 C 0.42169 0.21877 0.77963 0.0
C367 C 0.42031 0.25105 0.79515 0.0
C368 C 0.40401 0.26611 0.75952 0.0
H369 H 0.44566 0.21141 0.60944 0.0
C370 C 0.4236 0.1819 0.60318 0.0
H371 H 0.36452 0.14242 0.60849 0.0
H372 H 0.33337 0.28255 0.59438 0.0
H373 H 0.30806 0.25164 0.50497 0.0
H374 H 0.31439 0.19686 0.47508 0.0
H375 H 0.34596 0.17252 0.53451 0.0
C376 C 0.38735 0.1715 0.61511 0.0
C377 C 0.37807 0.20031 0.63682 0.0
C378 C 0.35911 0.21377 0.60202 0.0
C379 C 0.35577 0.24555 0.61908 0.0
C380 C 0.33706 0.25875 0.58319 0.0
C381 C 0.32231 0.24121 0.53185 0.0
C382 C 0.32585 0.21034 0.51503 0.0
C383 C 0.34407 0.19669 0.54949 0.0
H384 H 0.11954 0.40276 0.91636 0.0
C385 C 0.09697 0.3936 0.88542 0.0
H386 H 0.08153 0.37969 0.80076 0.0
H387 H 0.24758 0.47898 0.70539 0.0
H388 H 0.21394 0.50759 0.66202 0.0
H389 H 0.14763 0.48707 0.68801 0.0
H390 H 0.11443 0.43756 0.7569 0.0
C391 C 0.10372 0.38814 0.83213 0.0
C392 C 0.14273 0.39818 0.81351 0.0
C393 C 0.16183 0.42747 0.77335 0.0
C394 C 0.20038 0.43998 0.75936 0.0
C395 C 0.21856 0.46888 0.71848 0.0
C396 C 0.19955 0.4855 0.69308 0.0
C397 C 0.16221 0.4739 0.70763 0.0
C398 C 0.14345 0.44532 0.74728 0.0
H399 H 0.2561 0.38889 0.74251 0.0
C400 C 0.2752 0.41886 0.75157 0.0
H401 H 0.28033 0.46974 0.78333 0.0
H402 H 0.11221 0.33594 0.88246 0.0
H403 H 0.14637 0.30887 0.92887 0.0
H404 H 0.2152 0.33558 0.9134 0.0
H405 H 0.24992 0.38859 0.85031 0.0
C406 C 0.26139 0.43968 0.77465 0.0
C407 C 0.22008 0.42376 0.78629 0.0
C408 C 0.20078 0.39402 0.82586 0.0
C409 C 0.16168 0.3803 0.83782 0.0
C410 C 0.14236 0.34879 0.87427 0.0
C411 C 0.16156 0.33278 0.90083 0.0
C412 C 0.20025 0.34769 0.8919 0.0
C413 C 0.21979 0.37799 0.85506 0.0
H414 H 0.90441 0.25982 0.92415 0.0
C415 C 0.89212 0.27724 0.93598 0.0
H416 H 0.84518 0.27824 0.97196 0.0
H417 H 0.71726 0.11099 0.93681 0.0
H418 H 0.70065 0.14316 0.86664 0.0
H419 H 0.74517 0.21016 0.84201 0.0
H420 H 0.80648 0.24548 0.88797 0.0
C421 C 0.85789 0.26105 0.96107 0.0
C422 C 0.83429 0.21924 0.97044 0.0
C423 C 0.79898 0.19859 0.94208 0.0
C424 C 0.77371 0.15971 0.95542 0.0
C425 C 0.738 0.14033 0.92781 0.0
C426 C 0.72799 0.15849 0.88741 0.0
C427 C 0.75301 0.19622 0.87362 0.0
C428 C 0.78808 0.21619 0.9005 0.0
H429 H 0.75297 0.11766 0.09781 0.0
C430 C 0.74093 0.09511 0.06664 0.0
H431 H 0.74299 0.07983 0.98291 0.0
H432 H 0.89941 0.25047 0.03405 0.0
H433 H 0.91793 0.21713 0.09958 0.0
H434 H 0.87635 0.14836 0.11677 0.0
H435 H 0.81552 0.11273 0.06929 0.0
C436 C 0.75549 0.10197 0.01462 0.0
C437 C 0.78401 0.14133 0.99664 0.0
C438 C 0.82036 0.16129 0.0224 0.0
C439 C 0.84517 0.20055 0.01035 0.0
C440 C 0.88008 0.22035 0.03976 0.0
C441 C 0.891 0.20158 0.0778 0.0
C442 C 0.86753 0.16289 0.08764 0.0
C443 C 0.83259 0.14285 0.06041 0.0
loop_
_geom_bond_atom_site_label_1
_geom_bond_atom_site_label_2
_geom_bond_distance
_geom_bond_site_symmetry_2
_ccdc_geom_bond_type
Zn0 O3 2.031 . S
Zn0 O5 2.049 1_554 S
Zn0 O10 2.067 1_565 S
Zn1 O2 1.962 . S
Zn1 O4 1.986 . S
Zn1 O6 1.996 1_554 S
Zn1 O9 1.943 . S
O2 Zn1 1.962 . S
O2 C7 1.254 1_545 S
O3 Zn0 2.031 . S
O3 C7 1.269 . S
O4 Zn1 1.986 . S
O4 C11 1.262 . S
O5 Zn0 2.049 1_556 S
O5 C13 1.260 1_565 S
O6 Zn1 1.996 1_556 S
O6 C13 1.257 . S
C7 O2 1.254 1_565 S
C7 O3 1.269 . S
C8 O9 1.249 . S
C8 O10 1.270 . S
O9 Zn1 1.943 . S
O9 C8 1.249 . S
O10 Zn0 2.067 1_545 S
O10 C8 1.270 . S
C11 O4 1.262 . S
C11 O12 1.232 . S
O12 C11 1.232 . S
C13 O5 1.260 1_545 S
C13 O6 1.257 . S
Zn14 O17 2.031 . S
Zn14 O19 2.049 . S
Zn14 O24 2.067 . S
Zn15 O16 1.962 . S
Zn15 O18 1.986 . S
Zn15 O20 1.996 . S
Zn15 O23 1.943 . S
O16 Zn15 1.962 . S
O16 C21 1.254 . S
O17 Zn14 2.031 . S
O17 C21 1.269 . S
O18 Zn15 1.986 . S
O18 C25 1.262 . S
O19 Zn14 2.049 . S
O19 C27 1.260 . S
O20 Zn15 1.996 . S
O20 C27 1.257 . S
C21 O16 1.254 . S
C21 O17 1.269 . S
C22 O23 1.249 . S
C22 O24 1.270 . S
O23 Zn15 1.943 . S
O23 C22 1.249 . S
O24 Zn14 2.067 . S
O24 C22 1.270 . S
C25 O18 1.262 . S
C25 O26 1.232 . S
O26 C25 1.232 . S
C27 O19 1.260 . S
C27 O20 1.257 . S
Zn28 O31 2.031 . S
Zn28 O33 2.049 . S
Zn28 O38 2.067 . S
Zn29 O30 1.962 . S
Zn29 O32 1.986 1_455 S
Zn29 O34 1.996 . S
Zn29 O37 1.943 . S
O30 Zn29 1.962 . S
O30 C35 1.254 . S
O31 Zn28 2.031 . S
O31 C35 1.269 . S
O32 Zn29 1.986 1_655 S
O32 C39 1.262 . S
O33 Zn28 2.049 . S
O33 C41 1.260 . S
O34 Zn29 1.996 . S
O34 C41 1.257 . S
C35 O30 1.254 . S
C35 O31 1.269 . S
C36 O37 1.249 . S
C36 O38 1.270 . S
O37 Zn29 1.943 . S
O37 C36 1.249 . S
O38 Zn28 2.067 . S
O38 C36 1.270 . S
C39 O32 1.262 . S
C39 O40 1.232 . S
O40 C39 1.232 . S
C41 O33 1.260 . S
C41 O34 1.257 . S
Zn42 O45 2.031 . S
Zn42 O47 2.049 . S
Zn42 O52 2.067 . S
Zn43 O44 1.962 . S
Zn43 O46 1.986 1_545 S
Zn43 O48 1.996 . S
Zn43 O51 1.943 . S
O44 Zn43 1.962 . S
O44 C49 1.254 . S
O45 Zn42 2.031 . S
O45 C49 1.269 . S
O46 Zn43 1.986 1_565 S
O46 C53 1.262 . S
O47 Zn42 2.049 . S
O47 C55 1.260 . S
O48 Zn43 1.996 . S
O48 C55 1.257 . S
C49 O44 1.254 . S
C49 O45 1.269 . S
C50 O51 1.249 . S
C50 O52 1.270 . S
O51 Zn43 1.943 . S
O51 C50 1.249 . S
O52 Zn42 2.067 . S
O52 C50 1.270 . S
C53 O46 1.262 . S
C53 O54 1.232 . S
O54 C53 1.232 . S
C55 O47 1.260 . S
C55 O48 1.257 . S
Zn56 O59 2.031 . S
Zn56 O61 2.049 . S
Zn56 O66 2.067 . S
Zn57 O58 1.962 . S
Zn57 O60 1.986 . S
Zn57 O62 1.996 . S
Zn57 O65 1.943 . S
O58 Zn57 1.962 . S
O58 C63 1.254 . S
O59 Zn56 2.031 . S
O59 C63 1.269 . S
O60 Zn57 1.986 . S
O60 C67 1.262 . S
O61 Zn56 2.049 . S
O61 C69 1.260 . S
O62 Zn57 1.996 . S
O62 C69 1.257 . S
C63 O58 1.254 . S
C63 O59 1.269 . S
C64 O65 1.249 . S
C64 O66 1.270 . S
O65 Zn57 1.943 . S
O65 C64 1.249 . S
O66 Zn56 2.067 . S
O66 C64 1.270 . S
C67 O60 1.262 . S
C67 O68 1.232 . S
O68 C67 1.232 . S
C69 O61 1.260 . S
C69 O62 1.257 . S
Zn70 O73 2.031 . S
Zn70 O75 2.049 . S
Zn70 O80 2.067 1_655 S
Zn71 O72 1.962 1_455 S
Zn71 O74 1.986 . S
Zn71 O76 1.996 . S
Zn71 O79 1.943 . S
O72 Zn71 1.962 1_655 S
O72 C77 1.254 . S
O73 Zn70 2.031 . S
O73 C77 1.269 . S
O74 Zn71 1.986 . S
O74 C81 1.262 . S
O75 Zn70 2.049 . S
O75 C83 1.260 1_655 S
O76 Zn71 1.996 . S
O76 C83 1.257 . S
C77 O72 1.254 . S
C77 O73 1.269 . S
C78 O79 1.249 . S
C78 O80 1.270 . S
O79 Zn71 1.943 . S
O79 C78 1.249 . S
O80 Zn70 2.067 1_455 S
O80 C78 1.270 . S
C81 O74 1.262 . S
C81 O82 1.232 . S
O82 C81 1.232 . S
C83 O75 1.260 1_455 S
C83 O76 1.257 . S
H84 C85 0.951 . S
C85 H84 0.951 . S
C85 C91 1.265 . S
H86 C91 0.950 . S
H87 C95 0.949 . S
H88 C96 0.950 . S
H89 C97 0.951 . S
H90 C98 0.951 . S
C91 C85 1.265 . S
C91 H86 0.950 . S
C91 C92 1.478 . S
C92 C91 1.478 . S
C92 C93 1.397 . S
C92 C109 1.394 . S
C93 C92 1.397 . S
C93 C94 1.438 . S
C93 C98 1.429 . S
C94 C93 1.438 . S
C94 C95 1.428 . S
C94 C107 1.394 . S
C95 H87 0.949 . S
C95 C94 1.428 . S
C95 C96 1.345 . S
C96 H88 0.950 . S
C96 C95 1.345 . S
C96 C97 1.424 . S
C97 H89 0.951 . S
C97 C96 1.424 . S
C97 C98 1.347 . S
C98 H90 0.951 . S
C98 C93 1.429 . S
C98 C97 1.347 . S
H99 C100 0.951 . S
C100 H99 0.951 . S
C100 C106 1.265 . S
H101 C106 0.950 . S
H102 C110 0.949 . S
H103 C111 0.950 . S
H104 C112 0.951 . S
H105 C113 0.951 . S
C106 C100 1.265 . S
C106 H101 0.950 . S
C106 C107 1.478 . S
C107 C94 1.394 . S
C107 C106 1.478 . S
C107 C108 1.397 . S
C108 C107 1.397 . S
C108 C109 1.438 . S
C108 C113 1.429 1_545 S
C109 C92 1.394 . S
C109 C108 1.438 . S
C109 C110 1.428 1_545 S
C110 H102 0.949 . S
C110 C109 1.428 1_565 S
C110 C111 1.345 . S
C111 H103 0.950 . S
C111 C110 1.345 . S
C111 C112 1.424 . S
C112 H104 0.951 . S
C112 C111 1.424 . S
C112 C113 1.347 . S
C113 H105 0.951 . S
C113 C108 1.429 1_565 S
C113 C112 1.347 . S
H114 C115 0.951 . S
C115 H114 0.951 . S
C115 C121 1.265 . S
H116 C121 0.950 . S
H117 C125 0.949 . S
H118 C126 0.950 . S
H119 C127 0.951 . S
H120 C128 0.951 . S
C121 C115 1.265 . S
C121 H116 0.950 . S
C121 C122 1.478 . S
C122 C121 1.478 . S
C122 C123 1.397 . S
C122 C139 1.394 . S
C123 C122 1.397 . S
C123 C124 1.438 . S
C123 C128 1.429 . S
C124 C123 1.438 . S
C124 C125 1.428 . S
C124 C137 1.394 . S
C125 H117 0.949 . S
C125 C124 1.428 . S
C125 C126 1.345 . S
C126 H118 0.950 . S
C126 C125 1.345 . S
C126 C127 1.424 . S
C127 H119 0.951 . S
C127 C126 1.424 . S
C127 C128 1.347 . S
C128 H120 0.951 . S
C128 C123 1.429 . S
C128 C127 1.347 . S
H129 C130 0.951 . S
C130 H129 0.951 . S
C130 C136 1.265 . S
H131 C136 0.950 . S
H132 C140 0.949 . S
H133 C141 0.950 . S
H134 C142 0.951 . S
H135 C143 0.951 . S
C136 C130 1.265 . S
C136 H131 0.950 . S
C136 C137 1.478 . S
C137 C124 1.394 . S
C137 C136 1.478 . S
C137 C138 1.397 . S
C138 C137 1.397 . S
C138 C139 1.438 . S
C138 C143 1.429 . S
C139 C122 1.394 . S
C139 C138 1.438 . S
C139 C140 1.428 . S
C140 H132 0.949 . S
C140 C139 1.428 . S
C140 C141 1.345 . S
C141 H133 0.950 . S
C141 C140 1.345 . S
C141 C142 1.424 . S
C142 H134 0.951 . S
C142 C141 1.424 . S
C142 C143 1.347 . S
C143 H135 0.951 . S
C143 C138 1.429 . S
C143 C142 1.347 . S
H144 C145 0.951 . S
C145 H144 0.951 . S
C145 C151 1.265 . S
H146 C151 0.950 . S
H147 C155 0.949 . S
H148 C156 0.950 . S
H149 C157 0.951 . S
H150 C158 0.951 . S
C151 C145 1.265 . S
C151 H146 0.950 . S
C151 C152 1.478 . S
C152 C151 1.478 . S
C152 C153 1.397 . S
C152 C169 1.394 . S
C153 C152 1.397 . S
C153 C154 1.438 . S
C153 C158 1.429 1_455 S
C154 C153 1.438 . S
C154 C155 1.428 1_455 S
C154 C167 1.394 . S
C155 H147 0.949 . S
C155 C154 1.428 1_655 S
C155 C156 1.345 . S
C156 H148 0.950 . S
C156 C155 1.345 . S
C156 C157 1.424 . S
C157 H149 0.951 . S
C157 C156 1.424 . S
C157 C158 1.347 . S
C158 H150 0.951 . S
C158 C153 1.429 1_655 S
C158 C157 1.347 . S
H159 C160 0.951 . S
C160 H159 0.951 . S
C160 C166 1.265 . S
H161 C166 0.950 1_655 S
H162 C170 0.949 . S
H163 C171 0.950 . S
H164 C172 0.951 . S
H165 C173 0.951 . S
C166 C160 1.265 . S
C166 H161 0.950 1_455 S
C166 C167 1.478 . S
C167 C154 1.394 . S
C167 C166 1.478 . S
C167 C168 1.397 . S
C168 C167 1.397 . S
C168 C169 1.438 . S
C168 C173 1.429 . S
C169 C152 1.394 . S
C169 C168 1.438 . S
C169 C170 1.428 . S
C170 H162 0.949 . S
C170 C169 1.428 . S
C170 C171 1.345 . S
C171 H163 0.950 . S
C171 C170 1.345 . S
C171 C172 1.424 . S
C172 H164 0.951 . S
C172 C171 1.424 . S
C172 C173 1.347 . S
C173 H165 0.951 . S
C173 C168 1.429 . S
C173 C172 1.347 . S
H174 C175 0.951 . S
C175 H174 0.951 . S
C175 C181 1.265 . S
H176 C181 0.950 . S
H177 C185 0.949 . S
H178 C186 0.950 . S
H179 C187 0.951 . S
H180 C188 0.951 . S
C181 C175 1.265 . S
C181 H176 0.950 . S
C181 C182 1.478 . S
C182 C181 1.478 . S
C182 C183 1.397 . S
C182 C199 1.370 1_545 S
C183 C182 1.397 . S
C183 C184 1.438 . S
C183 C188 1.429 . S
C184 C183 1.438 . S
C184 C185 1.428 . S
C184 C197 1.394 . S
C185 H177 0.949 . S
C185 C184 1.428 . S
C185 C186 1.345 . S
C186 H178 0.950 . S
C186 C185 1.345 . S
C186 C187 1.424 . S
C187 H179 0.951 . S
C187 C186 1.424 . S
C187 C188 1.347 . S
C188 H180 0.951 . S
C188 C183 1.429 . S
C188 C187 1.347 . S
H189 C190 0.951 . S
C190 H189 0.951 . S
C190 C196 1.265 . S
H191 C196 0.950 . S
H192 C200 0.949 . S
H193 C201 0.950 . S
H194 C202 0.951 . S
H195 C203 0.951 . S
C196 C190 1.265 . S
C196 H191 0.950 . S
C196 C197 1.478 . S
C197 C184 1.394 . S
C197 C196 1.478 . S
C197 C198 1.397 1_545 S
C198 C197 1.397 1_565 S
C198 C199 1.432 . S
C198 C203 1.429 . S
C199 C182 1.370 1_565 S
C199 C198 1.432 . S
C199 C200 1.459 . S
C200 H192 0.949 . S
C200 C199 1.459 . S
C200 C201 1.345 . S
C201 H193 0.950 . S
C201 C200 1.345 . S
C201 C202 1.424 . S
C202 H194 0.951 . S
C202 C201 1.424 . S
C202 C203 1.347 . S
C203 H195 0.951 . S
C203 C198 1.429 . S
C203 C202 1.347 . S
H204 C205 0.951 . S
C205 H204 0.951 . S
C205 C211 1.265 . S
H206 C211 0.950 . S
H207 C215 0.949 . S
H208 C216 0.950 . S
H209 C217 0.951 . S
H210 C218 0.951 . S
C211 C205 1.265 . S
C211 H206 0.950 . S
C211 C212 1.478 . S
C212 C211 1.478 . S
C212 C213 1.397 1_554 S
C212 C229 1.394 . S
C213 C212 1.397 1_556 S
C213 C214 1.438 . S
C213 C218 1.429 . S
C214 C213 1.438 . S
C214 C215 1.428 . S
C214 C227 1.394 . S
C215 H207 0.949 . S
C215 C214 1.428 . S
C215 C216 1.345 . S
C216 H208 0.950 . S
C216 C215 1.345 . S
C216 C217 1.424 . S
C217 H209 0.951 . S
C217 C216 1.424 . S
C217 C218 1.347 . S
C218 H210 0.951 . S
C218 C213 1.429 . S
C218 C217 1.347 . S
H219 C220 0.951 . S
C220 H219 0.951 . S
C220 C226 1.265 . S
H221 C226 0.950 . S
H222 C230 0.949 . S
H223 C231 0.950 . S
H224 C232 0.951 . S
H225 C233 0.951 . S
C226 C220 1.265 . S
C226 H221 0.950 . S
C226 C227 1.478 . S
C227 C214 1.394 . S
C227 C226 1.478 . S
C227 C228 1.397 . S
C228 C227 1.397 . S
C228 C229 1.438 1_556 S
C228 C233 1.429 . S
C229 C212 1.394 . S
C229 C228 1.438 1_554 S
C229 C230 1.428 . S
C230 H222 0.949 . S
C230 C229 1.428 . S
C230 C231 1.345 . S
C231 H223 0.950 . S
C231 C230 1.345 . S
C231 C232 1.424 . S
C232 H224 0.951 . S
C232 C231 1.424 . S
C232 C233 1.347 1_554 S
C233 H225 0.951 . S
C233 C228 1.429 . S
C233 C232 1.347 1_556 S
H234 C235 0.951 . S
C235 H234 0.951 . S
C235 C241 1.265 . S
H236 C241 0.950 1_655 S
H237 C245 0.949 . S
H238 C246 0.950 . S
H239 C247 0.951 . S
H240 C248 0.951 . S
C241 C235 1.265 . S
C241 H236 0.950 1_455 S
C241 C242 1.478 . S
C242 C241 1.478 . S
C242 C243 1.392 1_455 S
C242 C259 1.394 . S
C243 C242 1.392 1_655 S
C243 C244 1.439 1_655 S
C243 C248 1.432 . S
C244 C243 1.439 1_455 S
C244 C245 1.428 1_455 S
C244 C257 1.394 . S
C245 H237 0.949 . S
C245 C244 1.428 1_655 S
C245 C246 1.345 . S
C246 H238 0.950 . S
C246 C245 1.345 . S
C246 C247 1.424 . S
C247 H239 0.951 . S
C247 C246 1.424 . S
C247 C248 1.347 . S
C248 H240 0.951 . S
C248 C243 1.432 . S
C248 C247 1.347 . S
H249 C250 0.951 . S
C250 H249 0.951 . S
C250 C256 1.265 . S
H251 C256 0.950 . S
H252 C260 0.949 . S
H253 C261 0.950 . S
H254 C262 0.951 . S
H255 C263 0.951 . S
C256 C250 1.265 . S
C256 H251 0.950 . S
C256 C257 1.478 . S
C257 C244 1.394 . S
C257 C256 1.478 . S
C257 C258 1.397 . S
C258 C257 1.397 . S
C258 C259 1.438 . S
C258 C263 1.429 . S
C259 C242 1.394 . S
C259 C258 1.438 . S
C259 C260 1.428 . S
C260 H252 0.949 . S
C260 C259 1.428 . S
C260 C261 1.345 . S
C261 H253 0.950 . S
C261 C260 1.345 . S
C261 C262 1.424 . S
C262 H254 0.951 . S
C262 C261 1.424 . S
C262 C263 1.347 . S
C263 H255 0.951 . S
C263 C258 1.429 . S
C263 C262 1.347 . S
H264 C265 0.951 . S
C265 H264 0.951 . S
C265 C271 1.265 . S
H266 C271 0.950 . S
H267 C275 0.949 . S
H268 C276 0.950 . S
H269 C277 0.951 . S
H270 C278 0.951 . S
C271 C265 1.265 . S
C271 H266 0.950 . S
C271 C272 1.478 . S
C272 C271 1.478 . S
C272 C273 1.397 . S
C272 C289 1.394 . S
C273 C272 1.397 . S
C273 C274 1.438 . S
C273 C278 1.429 . S
C274 C273 1.438 . S
C274 C275 1.428 . S
C274 C287 1.394 . S
C275 H267 0.949 . S
C275 C274 1.428 . S
C275 C276 1.345 . S
C276 H268 0.950 . S
C276 C275 1.345 . S
C276 C277 1.424 . S
C277 H269 0.951 . S
C277 C276 1.424 . S
C277 C278 1.347 . S
C278 H270 0.951 . S
C278 C273 1.429 . S
C278 C277 1.347 . S
H279 C280 0.951 . S
C280 H279 0.951 . S
C280 C286 1.265 . S
H281 C286 0.950 . S
H282 C290 0.949 . S
H283 C291 0.962 . S
H284 C292 0.951 1_556 S
H285 C293 0.951 . S
C286 C280 1.265 . S
C286 H281 0.950 . S
C286 C287 1.478 . S
C287 C274 1.394 . S
C287 C286 1.478 . S
C287 C288 1.397 . S
C288 C287 1.397 . S
C288 C289 1.438 . S
C288 C293 1.429 . S
C289 C272 1.394 . S
C289 C288 1.438 . S
C289 C290 1.428 . S
C290 H282 0.949 . S
C290 C289 1.428 . S
C290 C291 1.345 . S
C291 H283 0.962 . S
C291 C290 1.345 . S
C291 C292 1.424 . S
C292 H284 0.951 1_554 S
C292 C291 1.424 . S
C292 C293 1.347 . S
C293 H285 0.951 . S
C293 C288 1.429 . S
C293 C292 1.347 . S
H294 C295 0.951 . S
C295 H294 0.951 . S
C295 C301 1.265 . S
H296 C301 0.950 . S
H297 C305 0.949 . S
H298 C306 0.950 . S
H299 C307 0.951 . S
H300 C308 0.951 . S
C301 C295 1.265 . S
C301 H296 0.950 . S
C301 C302 1.478 . S
C302 C301 1.478 . S
C302 C303 1.397 . S
C302 C319 1.394 . S
C303 C302 1.397 . S
C303 C304 1.438 . S
C303 C308 1.429 . S
C304 C303 1.438 . S
C304 C305 1.428 . S
C304 C317 1.394 . S
C305 H297 0.949 . S
C305 C304 1.428 . S
C305 C306 1.345 . S
C306 H298 0.950 . S
C306 C305 1.345 . S
C306 C307 1.424 . S
C307 H299 0.951 . S
C307 C306 1.424 . S
C307 C308 1.347 . S
C308 H300 0.951 . S
C308 C303 1.429 . S
C308 C307 1.347 . S
H309 C310 0.951 . S
C310 H309 0.951 . S
C310 C316 1.265 . S
H311 C316 0.950 . S
H312 C320 0.949 . S
H313 C321 0.950 . S
H314 C322 0.951 . S
H315 C323 0.951 . S
C316 C310 1.265 . S
C316 H311 0.950 . S
C316 C317 1.478 . S
C317 C304 1.394 . S
C317 C316 1.478 . S
C317 C318 1.397 . S
C318 C317 1.397 . S
C318 C319 1.438 . S
C318 C323 1.429 . S
C319 C302 1.394 . S
C319 C318 1.438 . S
C319 C320 1.428 . S
C320 H312 0.949 . S
C320 C319 1.428 . S
C320 C321 1.345 . S
C321 H313 0.950 . S
C321 C320 1.345 . S
C321 C322 1.424 . S
C322 H314 0.951 . S
C322 C321 1.424 . S
C322 C323 1.347 . S
C323 H315 0.951 . S
C323 C318 1.429 . S
C323 C322 1.347 . S
H324 C325 0.951 . S
C325 H324 0.951 . S
C325 C331 1.265 . S
H326 C331 0.950 . S
H327 C335 0.949 . S
H328 C336 0.950 . S
H329 C337 0.951 . S
H330 C338 0.951 . S
C331 C325 1.265 . S
C331 H326 0.950 . S
C331 C332 1.478 . S
C332 C331 1.478 . S
C332 C333 1.397 . S
C332 C349 1.394 . S
C333 C332 1.397 . S
C333 C334 1.438 . S
C333 C338 1.429 . S
C334 C333 1.438 . S
C334 C335 1.428 . S
C334 C347 1.394 . S
C335 H327 0.949 . S
C335 C334 1.428 . S
C335 C336 1.345 . S
C336 H328 0.950 . S
C336 C335 1.345 . S
C336 C337 1.424 . S
C337 H329 0.951 . S
C337 C336 1.424 . S
C337 C338 1.347 . S
C338 H330 0.951 . S
C338 C333 1.429 . S
C338 C337 1.347 . S
H339 C340 0.951 . S
C340 H339 0.951 . S
C340 C346 1.265 . S
H341 C346 0.950 . S
H342 C350 0.949 . S
H343 C351 0.950 . S
H344 C352 0.951 . S
H345 C353 0.951 . S
C346 C340 1.265 . S
C346 H341 0.950 . S
C346 C347 1.478 . S
C347 C334 1.394 . S
C347 C346 1.478 . S
C347 C348 1.397 . S
C348 C347 1.397 . S
C348 C349 1.438 . S
C348 C353 1.429 . S
C349 C332 1.394 . S
C349 C348 1.438 . S
C349 C350 1.428 . S
C350 H342 0.949 . S
C350 C349 1.428 . S
C350 C351 1.345 . S
C351 H343 0.950 . S
C351 C350 1.345 . S
C351 C352 1.424 . S
C352 H344 0.951 . S
C352 C351 1.424 . S
C352 C353 1.347 . S
C353 H345 0.951 . S
C353 C348 1.429 . S
C353 C352 1.347 . S
H354 C355 0.951 . S
C355 H354 0.951 . S
C355 C361 1.265 . S
H356 C361 0.950 . S
H357 C365 0.949 . S
H358 C366 0.950 . S
H359 C367 0.951 . S
H360 C368 0.951 . S
C361 C355 1.265 . S
C361 H356 0.950 . S
C361 C362 1.478 . S
C362 C361 1.478 . S
C362 C363 1.397 . S
C362 C379 1.394 . S
C363 C362 1.397 . S
C363 C364 1.438 . S
C363 C368 1.429 . S
C364 C363 1.438 . S
C364 C365 1.428 . S
C364 C377 1.394 . S
C365 H357 0.949 . S
C365 C364 1.428 . S
C365 C366 1.345 . S
C366 H358 0.950 . S
C366 C365 1.345 . S
C366 C367 1.424 . S
C367 H359 0.951 . S
C367 C366 1.424 . S
C367 C368 1.347 . S
C368 H360 0.951 . S
C368 C363 1.429 . S
C368 C367 1.347 . S
H369 C370 0.951 . S
C370 H369 0.951 . S
C370 C376 1.265 . S
H371 C376 0.950 . S
H372 C380 0.949 . S
H373 C381 0.950 . S
H374 C382 0.951 . S
H375 C383 0.951 . S
C376 C370 1.265 . S
C376 H371 0.950 . S
C376 C377 1.478 . S
C377 C364 1.394 . S
C377 C376 1.478 . S
C377 C378 1.397 . S
C378 C377 1.397 . S
C378 C379 1.438 . S
C378 C383 1.429 . S
C379 C362 1.394 . S
C379 C378 1.438 . S
C379 C380 1.428 . S
C380 H372 0.949 . S
C380 C379 1.428 . S
C380 C381 1.345 . S
C381 H373 0.950 . S
C381 C380 1.345 . S
C381 C382 1.424 . S
C382 H374 0.951 . S
C382 C381 1.424 . S
C382 C383 1.347 . S
C383 H375 0.951 . S
C383 C378 1.429 . S
C383 C382 1.347 . S
H384 C385 0.951 . S
C385 H384 0.951 . S
C385 C391 1.265 . S
H386 C391 0.950 . S
H387 C395 0.949 . S
H388 C396 0.950 . S
H389 C397 0.951 . S
H390 C398 0.951 . S
C391 C385 1.265 . S
C391 H386 0.950 . S
C391 C392 1.478 . S
C392 C391 1.478 . S
C392 C393 1.397 . S
C392 C409 1.394 . S
C393 C392 1.397 . S
C393 C394 1.438 . S
C393 C398 1.429 . S
C394 C393 1.438 . S
C394 C395 1.428 . S
C394 C407 1.394 . S
C395 H387 0.949 . S
C395 C394 1.428 . S
C395 C396 1.345 . S
C396 H388 0.950 . S
C396 C395 1.345 . S
C396 C397 1.424 . S
C397 H389 0.951 . S
C397 C396 1.424 . S
C397 C398 1.347 . S
C398 H390 0.951 . S
C398 C393 1.429 . S
C398 C397 1.347 . S
H399 C400 0.951 . S
C400 H399 0.951 . S
C400 C406 1.265 . S
H401 C406 0.950 . S
H402 C410 0.949 . S
H403 C411 0.950 . S
H404 C412 0.951 . S
H405 C413 0.951 . S
C406 C400 1.265 . S
C406 H401 0.950 . S
C406 C407 1.478 . S
C407 C394 1.394 . S
C407 C406 1.478 . S
C407 C408 1.397 . S
C408 C407 1.397 . S
C408 C409 1.438 . S
C408 C413 1.429 . S
C409 C392 1.394 . S
C409 C408 1.438 . S
C409 C410 1.428 . S
C410 H402 0.949 . S
C410 C409 1.428 . S
C410 C411 1.345 . S
C411 H403 0.950 . S
C411 C410 1.345 . S
C411 C412 1.424 . S
C412 H404 0.951 . S
C412 C411 1.424 . S
C412 C413 1.347 . S
C413 H405 0.951 . S
C413 C408 1.429 . S
C413 C412 1.347 . S
H414 C415 0.951 . S
C415 H414 0.951 . S
C415 C421 1.265 . S
H416 C421 0.950 . S
H417 C425 0.949 . S
H418 C426 0.950 . S
H419 C427 0.951 . S
H420 C428 0.951 . S
C421 C415 1.265 . S
C421 H416 0.950 . S
C421 C422 1.478 . S
C422 C421 1.478 . S
C422 C423 1.397 . S
C422 C439 1.394 1_556 S
C423 C422 1.397 . S
C423 C424 1.438 . S
C423 C428 1.429 . S
C424 C423 1.438 . S
C424 C425 1.428 . S
C424 C437 1.394 . S
C425 H417 0.949 . S
C425 C424 1.428 . S
C425 C426 1.345 . S
C426 H418 0.950 . S
C426 C425 1.345 . S
C426 C427 1.424 . S
C427 H419 0.951 . S
C427 C426 1.424 . S
C427 C428 1.347 . S
C428 H420 0.951 . S
C428 C423 1.429 . S
C428 C427 1.347 . S
H429 C430 0.951 . S
C430 H429 0.951 . S
C430 C436 1.265 . S
H431 C436 0.950 . S
H432 C440 0.949 . S
H433 C441 0.950 . S
H434 C442 0.951 . S
H435 C443 0.951 . S
C436 C430 1.265 . S
C436 H431 0.950 . S
C436 C437 1.478 1_554 S
C437 C424 1.394 . S
C437 C436 1.478 1_556 S
C437 C438 1.397 1_556 S
C438 C437 1.397 1_554 S
C438 C439 1.438 . S
C438 C443 1.429 . S
C439 C422 1.394 1_554 S
C439 C438 1.438 . S
C439 C440 1.428 . S
C440 H432 0.949 . S
C440 C439 1.428 . S
C440 C441 1.345 . S
C441 H433 0.950 . S
C441 C440 1.345 . S
C441 C442 1.424 . S
C442 H434 0.951 . S
C442 C441 1.424 . S
C442 C443 1.347 . S
C443 H435 0.951 . S
C443 C438 1.429 . S
C443 C442 1.347 . S
C85 C8 1.331 . S
C100 C55 1.315 . S
C115 C22 1.390 . S
C130 C69 1.392 . S
C145 C83 1.285 . S
C160 C36 1.326 . S
C175 C13 1.372 . S
C190 C50 1.420 . S
C205 C27 1.293 . S
C220 C64 1.363 . S
C235 C78 1.421 1_554 S
C250 C41 1.405 . S
C265 C25 1.405 . S
C280 C7 1.378 . S
C295 C39 1.404 . S
C310 C21 1.405 . S
C325 C35 1.430 . S
C340 C53 1.424 . S
C355 C67 1.408 . S
C370 C49 1.378 . S
C385 C81 1.425 . S
C400 C63 1.405 . S
C415 C77 1.430 . S
C430 C11 1.425 . S
