# Generated by pormake.
# Topology uky, (4)-cn, num edge types: 1
# Building blocks:
#     Node 0, Type 0, BuildingBlock: QUQFOY_clean_sbu_1, # of connection points: 4
#     Node 1, Type 0, BuildingBlock: QUQFOY_clean_sbu_1, # of connection points: 4
#     Node 2, Type 0, BuildingBlock: QUQFOY_clean_sbu_1, # of connection points: 4
#     Node 3, Type 0, BuildingBlock: QUQFOY_clean_sbu_1, # of connection points: 4
#     Node 4, Type 0, BuildingBlock: QUQFOY_clean_sbu_1, # of connection points: 4
#     Node 5, Type 0, BuildingBlock: QUQFOY_clean_sbu_1, # of connection points: 4
#     Node 6, Type 0, BuildingBlock: QUQFOY_clean_sbu_1, # of connection points: 4
#     Node 7, Type 0, BuildingBlock: QUQFOY_clean_sbu_1, # of connection points: 4
#     Node 8, Type 0, BuildingBlock: QUQFOY_clean_sbu_1, # of connection points: 4
#     Node 9, Type 0, BuildingBlock: QUQFOY_clean_sbu_1, # of connection points: 4
#     Node 10, Type 0, BuildingBlock: QUQFOY_clean_sbu_1, # of connection points: 4
#     Node 11, Type 0, BuildingBlock: QUQFOY_clean_sbu_1, # of connection points: 4
#     Node 12, Type 0, BuildingBlock: QUQFOY_clean_sbu_1, # of connection points: 4
#     Node 13, Type 0, BuildingBlock: QUQFOY_clean_sbu_1, # of connection points: 4
#     Node 14, Type 0, BuildingBlock: QUQFOY_clean_sbu_1, # of connection points: 4
#     Node 15, Type 0, BuildingBlock: QUQFOY_clean_sbu_1, # of connection points: 4
#     Node 16, Type 0, BuildingBlock: QUQFOY_clean_sbu_1, # of connection points: 4
#     Node 17, Type 0, BuildingBlock: QUQFOY_clean_sbu_1, # of connection points: 4
#     Node 18, Type 0, BuildingBlock: QUQFOY_clean_sbu_1, # of connection points: 4
#     Node 19, Type 0, BuildingBlock: QUQFOY_clean_sbu_1, # of connection points: 4
#     Node 20, Type 0, BuildingBlock: QUQFOY_clean_sbu_1, # of connection points: 4
#     Node 21, Type 0, BuildingBlock: QUQFOY_clean_sbu_1, # of connection points: 4
#     Node 22, Type 0, BuildingBlock: QUQFOY_clean_sbu_1, # of connection points: 4
#     Node 23, Type 0, BuildingBlock: QUQFOY_clean_sbu_1, # of connection points: 4
#     Node 24, Type 0, BuildingBlock: QUQFOY_clean_sbu_1, # of connection points: 4
#     Node 25, Type 0, BuildingBlock: QUQFOY_clean_sbu_1, # of connection points: 4
#     Node 26, Type 0, BuildingBlock: QUQFOY_clean_sbu_1, # of connection points: 4
#     Node 27, Type 0, BuildingBlock: QUQFOY_clean_sbu_1, # of connection points: 4
#     Node 28, Type 0, BuildingBlock: QUQFOY_clean_sbu_1, # of connection points: 4
#     Node 29, Type 0, BuildingBlock: QUQFOY_clean_sbu_1, # of connection points: 4
#     Node 30, Type 0, BuildingBlock: QUQFOY_clean_sbu_1, # of connection points: 4
#     Node 31, Type 0, BuildingBlock: QUQFOY_clean_sbu_1, # of connection points: 4
#     Node 32, Type 0, BuildingBlock: QUQFOY_clean_sbu_1, # of connection points: 4
#     Node 33, Type 0, BuildingBlock: QUQFOY_clean_sbu_1, # of connection points: 4
#     Node 34, Type 0, BuildingBlock: QUQFOY_clean_sbu_1, # of connection points: 4
#     Node 35, Type 0, BuildingBlock: QUQFOY_clean_sbu_1, # of connection points: 4
#     Node 36, Type 0, BuildingBlock: QUQFOY_clean_sbu_1, # of connection points: 4
#     Node 37, Type 0, BuildingBlock: QUQFOY_clean_sbu_1, # of connection points: 4
#     Node 38, Type 0, BuildingBlock: QUQFOY_clean_sbu_1, # of connection points: 4
#     Node 39, Type 0, BuildingBlock: QUQFOY_clean_sbu_1, # of connection points: 4
#     Node 40, Type 0, BuildingBlock: QUQFOY_clean_sbu_1, # of connection points: 4
#     Node 41, Type 0, BuildingBlock: QUQFOY_clean_sbu_1, # of connection points: 4
#     Node 42, Type 0, BuildingBlock: QUQFOY_clean_sbu_1, # of connection points: 4
#     Node 43, Type 0, BuildingBlock: QUQFOY_clean_sbu_1, # of connection points: 4
#     Node 44, Type 0, BuildingBlock: QUQFOY_clean_sbu_1, # of connection points: 4
#     Node 45, Type 0, BuildingBlock: QUQFOY_clean_sbu_1, # of connection points: 4
#     Node 46, Type 0, BuildingBlock: QUQFOY_clean_sbu_1, # of connection points: 4
#     Node 47, Type 0, BuildingBlock: QUQFOY_clean_sbu_1, # of connection points: 4
#     Edge 48, Type (0, 0), BuildingBlock: UVAHIK_clean_linker_0, # of connection points: 2
#     Edge 49, Type (0, 0), BuildingBlock: UVAHIK_clean_linker_0, # of connection points: 2
#     Edge 50, Type (0, 0), BuildingBlock: UVAHIK_clean_linker_0, # of connection points: 2
#     Edge 51, Type (0, 0), BuildingBlock: UVAHIK_clean_linker_0, # of connection points: 2
#     Edge 52, Type (0, 0), BuildingBlock: UVAHIK_clean_linker_0, # of connection points: 2
#     Edge 53, Type (0, 0), BuildingBlock: UVAHIK_clean_linker_0, # of connection points: 2
#     Edge 54, Type (0, 0), BuildingBlock: UVAHIK_clean_linker_0, # of connection points: 2
#     Edge 55, Type (0, 0), BuildingBlock: UVAHIK_clean_linker_0, # of connection points: 2
#     Edge 56, Type (0, 0), BuildingBlock: UVAHIK_clean_linker_0, # of connection points: 2
#     Edge 57, Type (0, 0), BuildingBlock: UVAHIK_clean_linker_0, # of connection points: 2
#     Edge 58, Type (0, 0), BuildingBlock: UVAHIK_clean_linker_0, # of connection points: 2
#     Edge 59, Type (0, 0), BuildingBlock: UVAHIK_clean_linker_0, # of connection points: 2
#     Edge 60, Type (0, 0), BuildingBlock: UVAHIK_clean_linker_0, # of connection points: 2
#     Edge 61, Type (0, 0), BuildingBlock: UVAHIK_clean_linker_0, # of connection points: 2
#     Edge 62, Type (0, 0), BuildingBlock: UVAHIK_clean_linker_0, # of connection points: 2
#     Edge 63, Type (0, 0), BuildingBlock: UVAHIK_clean_linker_0, # of connection points: 2
#     Edge 64, Type (0, 0), BuildingBlock: UVAHIK_clean_linker_0, # of connection points: 2
#     Edge 65, Type (0, 0), BuildingBlock: UVAHIK_clean_linker_0, # of connection points: 2
#     Edge 66, Type (0, 0), BuildingBlock: UVAHIK_clean_linker_0, # of connection points: 2
#     Edge 67, Type (0, 0), BuildingBlock: UVAHIK_clean_linker_0, # of connection points: 2
#     Edge 68, Type (0, 0), BuildingBlock: UVAHIK_clean_linker_0, # of connection points: 2
#     Edge 69, Type (0, 0), BuildingBlock: UVAHIK_clean_linker_0, # of connection points: 2
#     Edge 70, Type (0, 0), BuildingBlock: UVAHIK_clean_linker_0, # of connection points: 2
#     Edge 71, Type (0, 0), BuildingBlock: UVAHIK_clean_linker_0, # of connection points: 2
#     Edge 72, Type (0, 0), BuildingBlock: UVAHIK_clean_linker_0, # of connection points: 2
#     Edge 73, Type (0, 0), BuildingBlock: UVAHIK_clean_linker_0, # of connection points: 2
#     Edge 74, Type (0, 0), BuildingBlock: UVAHIK_clean_linker_0, # of connection points: 2
#     Edge 75, Type (0, 0), BuildingBlock: UVAHIK_clean_linker_0, # of connection points: 2
#     Edge 76, Type (0, 0), BuildingBlock: UVAHIK_clean_linker_0, # of connection points: 2
#     Edge 77, Type (0, 0), BuildingBlock: UVAHIK_clean_linker_0, # of connection points: 2
#     Edge 78, Type (0, 0), BuildingBlock: UVAHIK_clean_linker_0, # of connection points: 2
#     Edge 79, Type (0, 0), BuildingBlock: UVAHIK_clean_linker_0, # of connection points: 2
#     Edge 80, Type (0, 0), BuildingBlock: UVAHIK_clean_linker_0, # of connection points: 2
#     Edge 81, Type (0, 0), BuildingBlock: UVAHIK_clean_linker_0, # of connection points: 2
#     Edge 82, Type (0, 0), BuildingBlock: UVAHIK_clean_linker_0, # of connection points: 2
#     Edge 83, Type (0, 0), BuildingBlock: UVAHIK_clean_linker_0, # of connection points: 2
#     Edge 84, Type (0, 0), BuildingBlock: UVAHIK_clean_linker_0, # of connection points: 2
#     Edge 85, Type (0, 0), BuildingBlock: UVAHIK_clean_linker_0, # of connection points: 2
#     Edge 86, Type (0, 0), BuildingBlock: UVAHIK_clean_linker_0, # of connection points: 2
#     Edge 87, Type (0, 0), BuildingBlock: UVAHIK_clean_linker_0, # of connection points: 2
#     Edge 88, Type (0, 0), BuildingBlock: UVAHIK_clean_linker_0, # of connection points: 2
#     Edge 89, Type (0, 0), BuildingBlock: UVAHIK_clean_linker_0, # of connection points: 2
#     Edge 90, Type (0, 0), BuildingBlock: UVAHIK_clean_linker_0, # of connection points: 2
#     Edge 91, Type (0, 0), BuildingBlock: UVAHIK_clean_linker_0, # of connection points: 2
#     Edge 92, Type (0, 0), BuildingBlock: UVAHIK_clean_linker_0, # of connection points: 2
#     Edge 93, Type (0, 0), BuildingBlock: UVAHIK_clean_linker_0, # of connection points: 2
#     Edge 94, Type (0, 0), BuildingBlock: UVAHIK_clean_linker_0, # of connection points: 2
#     Edge 95, Type (0, 0), BuildingBlock: UVAHIK_clean_linker_0, # of connection points: 2
#     Edge 96, Type (0, 0), BuildingBlock: UVAHIK_clean_linker_0, # of connection points: 2
#     Edge 97, Type (0, 0), BuildingBlock: UVAHIK_clean_linker_0, # of connection points: 2
#     Edge 98, Type (0, 0), BuildingBlock: UVAHIK_clean_linker_0, # of connection points: 2
#     Edge 99, Type (0, 0), BuildingBlock: UVAHIK_clean_linker_0, # of connection points: 2
#     Edge 100, Type (0, 0), BuildingBlock: UVAHIK_clean_linker_0, # of connection points: 2
#     Edge 101, Type (0, 0), BuildingBlock: UVAHIK_clean_linker_0, # of connection points: 2
#     Edge 102, Type (0, 0), BuildingBlock: UVAHIK_clean_linker_0, # of connection points: 2
#     Edge 103, Type (0, 0), BuildingBlock: UVAHIK_clean_linker_0, # of connection points: 2
#     Edge 104, Type (0, 0), BuildingBlock: UVAHIK_clean_linker_0, # of connection points: 2
#     Edge 105, Type (0, 0), BuildingBlock: UVAHIK_clean_linker_0, # of connection points: 2
#     Edge 106, Type (0, 0), BuildingBlock: UVAHIK_clean_linker_0, # of connection points: 2
#     Edge 107, Type (0, 0), BuildingBlock: UVAHIK_clean_linker_0, # of connection points: 2
#     Edge 108, Type (0, 0), BuildingBlock: UVAHIK_clean_linker_0, # of connection points: 2
#     Edge 109, Type (0, 0), BuildingBlock: UVAHIK_clean_linker_0, # of connection points: 2
#     Edge 110, Type (0, 0), BuildingBlock: UVAHIK_clean_linker_0, # of connection points: 2
#     Edge 111, Type (0, 0), BuildingBlock: UVAHIK_clean_linker_0, # of connection points: 2
#     Edge 112, Type (0, 0), BuildingBlock: UVAHIK_clean_linker_0, # of connection points: 2
#     Edge 113, Type (0, 0), BuildingBlock: UVAHIK_clean_linker_0, # of connection points: 2
#     Edge 114, Type (0, 0), BuildingBlock: UVAHIK_clean_linker_0, # of connection points: 2
#     Edge 115, Type (0, 0), BuildingBlock: UVAHIK_clean_linker_0, # of connection points: 2
#     Edge 116, Type (0, 0), BuildingBlock: UVAHIK_clean_linker_0, # of connection points: 2
#     Edge 117, Type (0, 0), BuildingBlock: UVAHIK_clean_linker_0, # of connection points: 2
#     Edge 118, Type (0, 0), BuildingBlock: UVAHIK_clean_linker_0, # of connection points: 2
#     Edge 119, Type (0, 0), BuildingBlock: UVAHIK_clean_linker_0, # of connection points: 2
#     Edge 120, Type (0, 0), BuildingBlock: UVAHIK_clean_linker_0, # of connection points: 2
#     Edge 121, Type (0, 0), BuildingBlock: UVAHIK_clean_linker_0, # of connection points: 2
#     Edge 122, Type (0, 0), BuildingBlock: UVAHIK_clean_linker_0, # of connection points: 2
#     Edge 123, Type (0, 0), BuildingBlock: UVAHIK_clean_linker_0, # of connection points: 2
#     Edge 124, Type (0, 0), BuildingBlock: UVAHIK_clean_linker_0, # of connection points: 2
#     Edge 125, Type (0, 0), BuildingBlock: UVAHIK_clean_linker_0, # of connection points: 2
#     Edge 126, Type (0, 0), BuildingBlock: UVAHIK_clean_linker_0, # of connection points: 2
#     Edge 127, Type (0, 0), BuildingBlock: UVAHIK_clean_linker_0, # of connection points: 2
#     Edge 128, Type (0, 0), BuildingBlock: UVAHIK_clean_linker_0, # of connection points: 2
#     Edge 129, Type (0, 0), BuildingBlock: UVAHIK_clean_linker_0, # of connection points: 2
#     Edge 130, Type (0, 0), BuildingBlock: UVAHIK_clean_linker_0, # of connection points: 2
#     Edge 131, Type (0, 0), BuildingBlock: UVAHIK_clean_linker_0, # of connection points: 2
#     Edge 132, Type (0, 0), BuildingBlock: UVAHIK_clean_linker_0, # of connection points: 2
#     Edge 133, Type (0, 0), BuildingBlock: UVAHIK_clean_linker_0, # of connection points: 2
#     Edge 134, Type (0, 0), BuildingBlock: UVAHIK_clean_linker_0, # of connection points: 2
#     Edge 135, Type (0, 0), BuildingBlock: UVAHIK_clean_linker_0, # of connection points: 2
#     Edge 136, Type (0, 0), BuildingBlock: UVAHIK_clean_linker_0, # of connection points: 2
#     Edge 137, Type (0, 0), BuildingBlock: UVAHIK_clean_linker_0, # of connection points: 2
#     Edge 138, Type (0, 0), BuildingBlock: UVAHIK_clean_linker_0, # of connection points: 2
#     Edge 139, Type (0, 0), BuildingBlock: UVAHIK_clean_linker_0, # of connection points: 2
#     Edge 140, Type (0, 0), BuildingBlock: UVAHIK_clean_linker_0, # of connection points: 2
#     Edge 141, Type (0, 0), BuildingBlock: UVAHIK_clean_linker_0, # of connection points: 2
#     Edge 142, Type (0, 0), BuildingBlock: UVAHIK_clean_linker_0, # of connection points: 2
#     Edge 143, Type (0, 0), BuildingBlock: UVAHIK_clean_linker_0, # of connection points: 2
# Relax obj value: 0.295
# Max RMSD: 0.252
# Mean RMSD: 0.252
data_MOF--net-uky--node1-QUQFOY_clean_sbu_1--edge1-UVAHIK_clean_linker_0
_symmetry_space_group_name_H-M    P1
_symmetry_Int_Tables_number       1
_symmetry_cell_setting            triclinic
loop_
_symmetry_equiv_pos_as_xyz
'x, y, z'
_cell_length_a     81.876176
_cell_length_b     81.90336
_cell_length_c     81.874365
_cell_angle_alpha  89.980782
_cell_angle_beta   89.98339
_cell_angle_gamma 89.99736
loop_
_atom_site_label
_atom_site_type_symbol
_atom_site_fract_x
_atom_site_fract_y
_atom_site_fract_z
_atom_type_partial_charge
O0 O 0.24011 0.17308 0.40056 0.0
Cd1 Cd 0.23239 0.17074 0.37673 0.0
Cd2 Cd 0.23253 0.20399 0.37709 0.0
O3 O 0.23593 0.19967 0.40178 0.0
O4 O 0.21744 0.15157 0.37489 0.0
O5 O 0.20932 0.17734 0.37305 0.0
C6 C 0.20566 0.162 0.37353 0.0
C7 C 0.21572 0.22557 0.36868 0.0
C8 C 0.2396 0.18627 0.40874 0.0
C9 C 0.25574 0.18609 0.35399 0.0
O10 O 0.25121 0.19928 0.36083 0.0
O11 O 0.24922 0.17258 0.35798 0.0
O12 O 0.2298 0.22813 0.37522 0.0
O13 O 0.21078 0.21065 0.36754 0.0
O14 O 0.07175 0.9848 0.6502 0.0
Cd15 Cd 0.07432 0.97793 0.62615 0.0
Cd16 Cd 0.04125 0.97732 0.62626 0.0
O17 O 0.0453 0.97981 0.65109 0.0
O18 O 0.09404 0.96385 0.62396 0.0
O19 O 0.06863 0.95476 0.62149 0.0
C20 C 0.08412 0.95172 0.62201 0.0
C21 C 0.01924 0.96137 0.61732 0.0
C22 C 0.05853 0.98366 0.65826 0.0
C23 C 0.05876 0.00199 0.60442 0.0
O24 O 0.04563 0.99688 0.61095 0.0
O25 O 0.07238 0.99552 0.60814 0.0
O26 O 0.01709 0.97504 0.62476 0.0
O27 O 0.03404 0.95625 0.61551 0.0
O28 O 0.25447 0.8184 0.90485 0.0
Cd29 Cd 0.26222 0.81984 0.88087 0.0
Cd30 Cd 0.25829 0.7876 0.88169 0.0
O31 O 0.25873 0.79189 0.90654 0.0
O32 O 0.28552 0.81374 0.87684 0.0
O33 O 0.27672 0.83926 0.87891 0.0
C34 C 0.28875 0.82919 0.87723 0.0
C35 C 0.27184 0.76478 0.87116 0.0
C36 C 0.25555 0.80546 0.91336 0.0
C37 C 0.2355 0.80733 0.86043 0.0
O38 O 0.23788 0.79414 0.86828 0.0
O39 O 0.24508 0.81938 0.86239 0.0
O40 O 0.25865 0.7634 0.87962 0.0
O41 O 0.27783 0.77923 0.86917 0.0
O42 O 0.42064 0.01326 0.15109 0.0
Cd43 Cd 0.41841 0.01976 0.12687 0.0
Cd44 Cd 0.45148 0.01946 0.12722 0.0
O45 O 0.44725 0.01731 0.15205 0.0
O46 O 0.39877 0.03387 0.1242 0.0
O47 O 0.42423 0.04282 0.12171 0.0
C48 C 0.40874 0.0459 0.12194 0.0
C49 C 0.47387 0.03479 0.11816 0.0
C50 C 0.43385 0.01402 0.1592 0.0
C51 C 0.43352 0.99508 0.10549 0.0
O52 O 0.44674 -9e-05 0.11204 0.0
O53 O 0.42005 0.0019 0.10913 0.0
O54 O 0.47569 0.02114 0.12573 0.0
O55 O 0.4592 0.04028 0.11635 0.0
O56 O 0.23621 0.82089 0.09664 0.0
Cd57 Cd 0.22907 0.82309 0.12073 0.0
Cd58 Cd 0.23033 0.79067 0.12027 0.0
O59 O 0.22946 0.79488 0.09539 0.0
O60 O 0.21524 0.843 0.12277 0.0
O61 O 0.20571 0.81777 0.12522 0.0
C62 C 0.20293 0.8333 0.12467 0.0
C63 C 0.21579 0.76853 0.13107 0.0
C64 C 0.2337 0.80803 0.08832 0.0
C65 C 0.25527 0.8089 0.14057 0.0
O66 O 0.25156 0.79585 0.13301 0.0
O67 O 0.24662 0.82166 0.13876 0.0
O68 O 0.22865 0.7665 0.12224 0.0
O69 O 0.21072 0.78328 0.13336 0.0
O70 O 0.42345 0.98438 0.34124 0.0
Cd71 Cd 0.42197 0.97617 0.36499 0.0
Cd72 Cd 0.45484 0.979 0.36428 0.0
O73 O 0.45024 0.98214 0.33963 0.0
O74 O 0.40306 0.96097 0.36672 0.0
O75 O 0.42892 0.95308 0.36849 0.0
C76 C 0.41359 0.94929 0.36805 0.0
C77 C 0.47811 0.96462 0.37261 0.0
C78 C 0.43653 0.98495 0.33289 0.0
C79 C 0.43553 0.00067 0.38759 0.0
O80 O 0.44893 0.99737 0.38047 0.0
O81 O 0.4226 0.99294 0.38387 0.0
O82 O 0.47912 0.9787 0.36568 0.0
O83 O 0.4638 0.95818 0.37412 0.0
O84 O 0.2553 0.17424 0.59233 0.0
Cd85 Cd 0.26127 0.17244 0.61679 0.0
Cd86 Cd 0.25782 0.20499 0.61605 0.0
O87 O 0.25787 0.201 0.59116 0.0
O88 O 0.27472 0.15232 0.61947 0.0
O89 O 0.28451 0.17739 0.62226 0.0
C90 C 0.28707 0.16183 0.6219 0.0
C91 C 0.2738 0.22579 0.62725 0.0
C92 C 0.25577 0.18736 0.58404 0.0
C93 C 0.23406 0.18597 0.63664 0.0
O94 O 0.23715 0.19933 0.62935 0.0
O95 O 0.2431 0.17355 0.63436 0.0
O96 O 0.26092 0.22899 0.61879 0.0
O97 O 0.27798 0.21068 0.62895 0.0
O98 O 0.06894 0.0109 0.84053 0.0
Cd99 Cd 0.07072 0.01827 0.86452 0.0
Cd100 Cd 0.0377 0.0172 0.86376 0.0
O101 O 0.04225 0.01422 0.83907 0.0
O102 O 0.09028 0.03254 0.86685 0.0
O103 O 0.06478 0.0415 0.86876 0.0
C104 C 0.08026 0.04461 0.86856 0.0
C105 C 0.01526 0.03285 0.87205 0.0
C106 C 0.05583 0.01104 0.83222 0.0
C107 C 0.05578 0.99406 0.88663 0.0
O108 O 0.04254 -0.00171 0.87971 0.0
O109 O 0.06913 0.00106 0.88291 0.0
O110 O 0.02991 0.03838 0.8738 0.0
O111 O 0.01348 0.01892 0.86499 0.0
O112 O 0.40018 0.24287 0.17367 0.0
Cd113 Cd 0.3759 0.23614 0.17186 0.0
Cd114 Cd 0.37657 0.2388 0.20457 0.0
O115 O 0.4014 0.23989 0.20039 0.0
O116 O 0.37338 0.22242 0.15189 0.0
O117 O 0.37111 0.21284 0.17711 0.0
C118 C 0.3713 0.21013 0.16156 0.0
C119 C 0.36635 0.22222 0.22543 0.0
C120 C 0.40845 0.24251 0.18681 0.0
C121 C 0.355 0.26217 0.18611 0.0
O122 O 0.36236 0.25896 0.1994 0.0
O123 O 0.35772 0.25366 0.17341 0.0
O124 O 0.37433 0.2354 0.2286 0.0
O125 O 0.36457 0.21808 0.21033 0.0
O126 O 0.00747 0.1525 0.42866 0.0
Cd127 Cd 0.01508 0.12833 0.4285 0.0
Cd128 Cd 0.00792 0.13047 0.46015 0.0
O129 O 0.0079 0.15513 0.45544 0.0
O130 O 0.02989 0.12559 0.4093 0.0
O131 O 0.03831 0.12473 0.43499 0.0
C132 C 0.04178 0.12443 0.4196 0.0
C133 C 0.02337 0.11928 0.4813 0.0
C134 C 0.00654 0.16145 0.44133 0.0
C135 C 0.98722 0.10824 0.44033 0.0
O136 O 0.98786 0.11703 0.45309 0.0
O137 O -0.00188 0.10948 0.42933 0.0
O138 O 0.0103 0.12757 0.48425 0.0
O139 O 0.028 0.11781 0.46629 0.0
O140 O 0.08588 0.75904 0.68371 0.0
Cd141 Cd 0.11061 0.76419 0.68259 0.0
Cd142 Cd 0.10845 0.75958 0.71491 0.0
O143 O 0.08368 0.76059 0.71049 0.0
O144 O 0.11408 0.77701 0.6622 0.0
O145 O 0.11688 0.78738 0.68703 0.0
C146 C 0.1169 0.78951 0.67139 0.0
C147 C 0.12018 0.77473 0.73602 0.0
C148 C 0.07707 0.75926 0.69651 0.0
C149 C 0.12893 0.73585 0.69584 0.0
O150 O 0.12108 0.73863 0.70894 0.0
O151 O 0.1276 0.74548 0.68373 0.0
O152 O 0.11155 0.76188 0.73893 0.0
O153 O 0.1216 0.77942 0.72102 0.0
O154 O 0.48694 0.84482 0.92933 0.0
Cd155 Cd 0.47925 0.86877 0.92715 0.0
Cd156 Cd 0.4835 0.869 0.95954 0.0
O157 O 0.48478 0.84408 0.95614 0.0
O158 O 0.465 0.87003 0.90743 0.0
O159 O 0.45585 0.87278 0.93275 0.0
C160 C 0.45282 0.87186 0.91729 0.0
C161 C 0.4675 0.87981 0.98052 0.0
C162 C 0.48717 0.83682 0.94263 0.0
C163 C 0.50554 0.89048 0.93951 0.0
O164 O 0.50327 0.88321 0.95305 0.0
O165 O 0.49626 0.88752 0.9274 0.0
O166 O 0.48088 0.8721 0.98356 0.0
O167 O 0.46284 0.88095 0.9655 0.0
O168 O 0.40712 0.75098 0.31192 0.0
Cd169 Cd 0.38298 0.75838 0.31305 0.0
Cd170 Cd 0.38464 0.75357 0.28073 0.0
O171 O 0.40941 0.75232 0.28512 0.0
O172 O 0.38072 0.7723 0.33291 0.0
O173 O 0.37881 0.78182 0.30765 0.0
C174 C 0.37903 0.7846 0.32318 0.0
C175 C 0.37393 0.76958 0.25969 0.0
C176 C 0.41588 0.75036 0.2991 0.0
C177 C 0.36229 0.73168 0.3 0.0
O178 O 0.37032 0.73383 0.28689 0.0
O179 O 0.36441 0.74118 0.31211 0.0
O180 O 0.38148 0.75609 0.25671 0.0
O181 O 0.37314 0.77442 0.27468 0.0
O182 O 0.48137 0.14996 0.56702 0.0
Cd183 Cd 0.47528 0.12556 0.56912 0.0
Cd184 Cd 0.47856 0.1259 0.53664 0.0
O185 O 0.47826 0.15084 0.54031 0.0
O186 O 0.45201 0.12008 0.56428 0.0
O187 O 0.46188 0.12311 0.5893 0.0
C188 C 0.4495 0.12058 0.57986 0.0
C189 C 0.46288 0.11431 0.51583 0.0
C190 C 0.48065 0.15811 0.55382 0.0
C191 C 0.50252 0.10572 0.55579 0.0
O192 O 0.49942 0.11294 0.54239 0.0
O193 O 0.49342 0.10798 0.56817 0.0
O194 O 0.47562 0.12298 0.51264 0.0
O195 O 0.45863 0.11262 0.53093 0.0
O196 O 0.09161 0.24257 0.81731 0.0
Cd197 Cd 0.11563 0.23541 0.81946 0.0
Cd198 Cd 0.11554 0.23829 0.78647 0.0
O199 O 0.09071 0.24107 0.79043 0.0
O200 O 0.11746 0.22114 0.83907 0.0
O201 O 0.12034 0.21222 0.81366 0.0
C202 C 0.11967 0.20909 0.82913 0.0
C203 C 0.12468 0.2226 0.76441 0.0
C204 C 0.08357 0.24326 0.80405 0.0
C205 C 0.13788 0.26053 0.8062 0.0
O206 O 0.13138 0.25694 0.79257 0.0
O207 O 0.13383 0.25286 0.81907 0.0
O208 O 0.11806 0.23672 0.76231 0.0
O209 O 0.1255 0.21698 0.77912 0.0
O210 O 0.00752 0.84687 0.06718 0.0
Cd211 Cd 0.01465 0.87116 0.06846 0.0
Cd212 Cd 0.00921 0.87005 0.03649 0.0
O213 O 0.0097 0.84528 0.04042 0.0
O214 O 0.02829 0.87336 0.08852 0.0
O215 O 0.03818 0.87543 0.06342 0.0
C216 C 0.04074 0.87512 0.079 0.0
C217 C 0.02447 0.88159 0.0154 0.0
C218 C 0.00764 0.83838 0.05417 0.0
C219 C 0.98704 0.89114 0.05605 0.0
O220 O 0.98851 0.88281 0.04306 0.0
O221 O 0.99741 0.88976 0.06753 0.0
O222 O 0.01161 0.87299 0.01246 0.0
O223 O 0.029 0.88329 0.03041 0.0
O224 O 0.16958 0.39955 0.2424 0.0
Cd225 Cd 0.16795 0.37545 0.23505 0.0
Cd226 Cd 0.20036 0.37578 0.24032 0.0
O227 O 0.19647 0.4006 0.24187 0.0
O228 O 0.14887 0.37369 0.22004 0.0
O229 O 0.17459 0.37098 0.212 0.0
C230 C 0.15925 0.37165 0.20832 0.0
C231 C 0.22268 0.36589 0.22547 0.0
C232 C 0.18275 0.4077 0.24343 0.0
C233 C 0.17962 0.35407 0.2618 0.0
O234 O 0.19324 0.36118 0.25958 0.0
O235 O 0.16762 0.35705 0.2524 0.0
O236 O 0.22452 0.37292 0.23943 0.0
O237 O 0.20807 0.36489 0.21961 0.0
O238 O 0.67938 0.09192 0.75861 0.0
Cd239 Cd 0.67831 0.11628 0.76515 0.0
Cd240 Cd 0.71079 0.1142 0.76259 0.0
O241 O 0.70596 0.08949 0.76208 0.0
O242 O 0.65799 0.11944 0.77824 0.0
O243 O 0.68293 0.12108 0.78861 0.0
C244 C 0.66731 0.12129 0.79084 0.0
C245 C 0.73133 0.12493 0.77922 0.0
C246 C 0.69211 0.08306 0.75926 0.0
C247 C 0.69334 0.13573 0.73853 0.0
O248 O 0.70621 0.1277 0.74183 0.0
O249 O 0.68064 0.13412 0.74734 0.0
O250 O 0.73476 0.11632 0.7665 0.0
O251 O 0.71613 0.12691 0.78294 0.0
O252 O 0.15554 0.42328 0.0094 0.0
Cd253 Cd 0.13128 0.42214 0.01632 0.0
Cd254 Cd 0.13314 0.45451 0.01443 0.0
O255 O 0.1578 0.44932 0.01574 0.0
O256 O 0.12816 0.40265 0.03054 0.0
O257 O 0.12672 0.42817 0.0395 0.0
C258 C 0.12644 0.41269 0.0426 0.0
C259 C 0.12275 0.47727 0.02824 0.0
C260 C 0.16436 0.43582 0.01181 0.0
C261 C 0.11213 0.43675 0.98983 0.0
O262 O 0.12042 0.44943 0.99319 0.0
O263 O 0.11327 0.42412 -0.00124 0.0
O264 O 0.13193 0.47877 0.01556 0.0
O265 O 0.11999 0.46272 0.03365 0.0
O266 O 0.82386 0.89893 0.25453 0.0
Cd267 Cd 0.82554 0.87499 0.26245 0.0
Cd268 Cd 0.79323 0.87526 0.25764 0.0
O269 O 0.79702 0.9001 0.2561 0.0
O270 O 0.81896 0.87116 0.28563 0.0
O271 O 0.84466 0.87355 0.27744 0.0
C272 C 0.83432 0.87188 0.28924 0.0
C273 C 0.77082 0.86503 0.27212 0.0
C274 C 0.81069 0.90713 0.25391 0.0
C275 C 0.81358 0.85327 0.23619 0.0
O276 O 0.80013 0.86072 0.23827 0.0
O277 O 0.82562 0.85612 0.24558 0.0
O278 O 0.78537 0.86395 0.27811 0.0
O279 O 0.76908 0.87249 0.25837 0.0
O280 O 0.84066 0.07203 0.00291 0.0
Cd281 Cd 0.86504 0.07387 0.00941 0.0
Cd282 Cd 0.86444 0.04169 0.0036 0.0
O283 O 0.83952 0.04514 0.0036 0.0
O284 O 0.86699 0.09317 0.02407 0.0
O285 O 0.87034 0.06764 0.03242 0.0
C286 C 0.86954 0.08302 0.03588 0.0
C287 C 0.87596 0.01917 0.01683 0.0
C288 C 0.8324 0.05888 0.00233 0.0
C289 C 0.88497 0.06295 0.98149 0.0
O290 O 0.8776 0.04946 0.9836 0.0
O291 O 0.88292 0.07462 0.9915 0.0
O292 O 0.86822 0.01767 0.00321 0.0
O293 O 0.87657 0.03347 0.02345 0.0
O294 O 0.31349 0.59126 0.7373 0.0
Cd295 Cd 0.31378 0.61586 0.73149 0.0
Cd296 Cd 0.28153 0.61308 0.73677 0.0
O297 O 0.28675 0.58849 0.73606 0.0
O298 O 0.33379 0.61953 0.71819 0.0
O299 O 0.3087 0.62139 0.70821 0.0
C300 C 0.32431 0.62176 0.70579 0.0
C301 C 0.25858 0.6233 0.72325 0.0
C302 C 0.30088 0.5822 0.7374 0.0
C303 C 0.30072 0.63446 0.75967 0.0
O304 O 0.28778 0.62623 0.75731 0.0
O305 O 0.31265 0.63326 0.7498 0.0
O306 O 0.25728 0.61458 0.73629 0.0
O307 O 0.27303 0.62567 0.71738 0.0
O308 O 0.15758 0.56785 0.4922 0.0
Cd309 Cd 0.13337 0.56955 0.48525 0.0
Cd310 Cd 0.13363 0.5375 0.49209 0.0
O311 O 0.15858 0.54097 0.49277 0.0
O312 O 0.13177 0.58903 0.47079 0.0
O313 O 0.12841 0.56365 0.46205 0.0
C314 C 0.12931 0.57907 0.45882 0.0
C315 C 0.1225 0.51524 0.47814 0.0
C316 C 0.16574 0.55472 0.49359 0.0
C317 C 0.11245 0.55917 0.51296 0.0
O318 O 0.11963 0.5455 0.51147 0.0
O319 O 0.11522 0.57059 0.50281 0.0
O320 O 0.12178 0.52973 0.47195 0.0
O321 O 0.1301 0.51345 0.49181 0.0
O322 O 0.34771 0.42146 0.99008 0.0
Cd323 Cd 0.37162 0.42014 0.98204 0.0
Cd324 Cd 0.37088 0.45248 0.98577 0.0
O325 O 0.34606 0.44796 0.98568 0.0
O326 O 0.37367 0.40163 0.96637 0.0
O327 O 0.37523 0.42769 0.95916 0.0
C328 C 0.37501 0.41247 0.95497 0.0
C329 C 0.3809 0.47566 0.97238 0.0
C330 C 0.33922 0.43442 0.98899 0.0
C331 C 0.39257 0.43277 0.00828 0.0
O332 O 0.38473 0.44596 0.00587 0.0
O333 O 0.39037 0.4206 -0.00109 0.0
O334 O 0.37264 0.47673 0.98573 0.0
O335 O 0.38296 0.46133 0.96614 0.0
O336 O 0.73777 0.67833 0.90335 0.0
Cd337 Cd 0.73044 0.6773 0.87911 0.0
Cd338 Cd 0.73806 0.70877 0.88028 0.0
O339 O 0.73755 0.70516 0.90514 0.0
O340 O 0.71616 0.65772 0.87717 0.0
O341 O 0.70708 0.68309 0.87481 0.0
C342 C 0.70403 0.66761 0.87527 0.0
C343 C 0.72419 0.73053 0.86813 0.0
C344 C 0.73866 0.69125 0.91193 0.0
C345 C 0.75872 0.68764 0.85906 0.0
O346 O 0.75817 0.70066 0.86745 0.0
O347 O 0.74757 0.67694 0.86044 0.0
O348 O 0.73744 0.73275 0.87635 0.0
O349 O 0.71836 0.71589 0.86736 0.0
O350 O 0.5723 0.48702 0.15315 0.0
Cd351 Cd 0.57449 0.47992 0.12899 0.0
Cd352 Cd 0.54211 0.48488 0.12891 0.0
O353 O 0.5454 0.48603 0.15385 0.0
O354 O 0.59408 0.46555 0.12749 0.0
O355 O 0.56872 0.45669 0.12424 0.0
C356 C 0.58415 0.45351 0.12519 0.0
C357 C 0.52055 0.46967 0.11797 0.0
C358 C 0.559 0.48775 0.16115 0.0
C359 C 0.56282 0.5069 0.10787 0.0
O360 O 0.54918 0.50457 0.11489 0.0
O361 O 0.57482 0.49746 0.11073 0.0
O362 O 0.51807 0.48336 0.12533 0.0
O363 O 0.53535 0.46425 0.1173 0.0
O364 O 0.76298 0.31925 0.39907 0.0
Cd365 Cd 0.76947 0.32072 0.37466 0.0
Cd366 Cd 0.76666 0.28824 0.37604 0.0
O367 O 0.76651 0.29264 0.4008 0.0
O368 O 0.78316 0.34061 0.37178 0.0
O369 O 0.79275 0.31538 0.3696 0.0
C370 C 0.79545 0.33094 0.36966 0.0
C371 C 0.78105 0.26581 0.3657 0.0
C372 C 0.76373 0.3063 0.40761 0.0
C373 C 0.74258 0.30676 0.35516 0.0
O374 O 0.74592 0.29371 0.36287 0.0
O375 O 0.75152 0.31933 0.35687 0.0
O376 O 0.76795 0.26404 0.37423 0.0
O377 O 0.78648 0.28046 0.36354 0.0
O378 O 0.92754 0.50754 0.6503 0.0
Cd379 Cd 0.925 0.5151 0.62642 0.0
Cd380 Cd 0.95808 0.51349 0.62604 0.0
O381 O 0.95433 0.5102 0.65081 0.0
O382 O 0.90532 0.5293 0.62487 0.0
O383 O 0.93069 0.5384 0.62211 0.0
C384 C 0.91521 0.54143 0.62285 0.0
C385 C 0.98032 0.52927 0.61744 0.0
C386 C 0.94094 0.5073 0.65813 0.0
C387 C 0.93885 0.49092 0.60353 0.0
O388 O 0.9524 0.49495 0.60994 0.0
O389 O 0.92574 0.49801 0.60787 0.0
O390 O 0.98226 0.51505 0.62387 0.0
O391 O 0.96564 0.53493 0.61641 0.0
O392 O 0.73829 0.31794 0.5904 0.0
Cd393 Cd 0.73054 0.31905 0.61445 0.0
Cd394 Cd 0.73674 0.28708 0.61359 0.0
O395 O 0.73735 0.2911 0.58877 0.0
O396 O 0.71534 0.33795 0.61621 0.0
O397 O 0.70743 0.31215 0.61839 0.0
C398 C 0.70366 0.32748 0.61786 0.0
C399 C 0.72359 0.2641 0.62428 0.0
C400 C 0.73909 0.30493 0.58194 0.0
C401 C 0.75777 0.30797 0.63532 0.0
O402 O 0.75631 0.2947 0.62744 0.0
O403 O 0.74756 0.31947 0.6332 0.0
O404 O 0.7371 0.26293 0.6163 0.0
O405 O 0.71703 0.27838 0.62558 0.0
O406 O 0.93197 0.48791 0.84151 0.0
Cd407 Cd 0.93038 0.48173 0.86596 0.0
Cd408 Cd 0.96272 0.487 0.86501 0.0
O409 O 0.95883 0.4869 0.84013 0.0
O410 O 0.9103 0.46822 0.86837 0.0
O411 O 0.93534 0.45842 0.87145 0.0
C412 C 0.91976 0.45588 0.87093 0.0
C413 C 0.98492 0.47292 0.87614 0.0
C414 C 0.94504 0.48827 0.83313 0.0
C415 C 0.94239 0.50958 0.88575 0.0
O416 O 0.95583 0.50723 0.87834 0.0
O417 O 0.93049 0.49986 0.88358 0.0
O418 O 0.98684 0.48619 0.86789 0.0
O419 O 0.97029 0.46717 0.87753 0.0
O420 O 0.76009 0.67097 0.09434 0.0
Cd421 Cd 0.76804 0.66822 0.11816 0.0
Cd422 Cd 0.7627 0.70053 0.11948 0.0
O423 O 0.76083 0.69787 0.0945 0.0
O424 O 0.78294 0.649 0.11868 0.0
O425 O 0.79124 0.6745 0.12234 0.0
C426 C 0.79478 0.65918 0.1209 0.0
C427 C 0.77769 0.72233 0.13026 0.0
C428 C 0.75902 0.68451 0.0868 0.0
C429 C 0.74175 0.67879 0.14064 0.0
O430 O 0.74363 0.69269 0.13399 0.0
O431 O 0.75122 0.66704 0.13702 0.0
O432 O 0.76368 0.72452 0.12344 0.0
O433 O 0.78352 0.70768 0.13055 0.0
O434 O 0.57093 0.50683 0.34457 0.0
Cd435 Cd 0.5728 0.51306 0.36897 0.0
Cd436 Cd 0.54011 0.51141 0.36799 0.0
O437 O 0.54435 0.51083 0.34314 0.0
O438 O 0.59322 0.52605 0.37186 0.0
O439 O 0.56833 0.53643 0.37417 0.0
C440 C 0.58396 0.53863 0.37409 0.0
C441 C 0.51985 0.52834 0.37879 0.0
C442 C 0.55791 0.50784 0.33618 0.0
C443 C 0.55769 0.48686 0.38899 0.0
O444 O 0.54457 0.49065 0.38159 0.0
O445 O 0.57063 0.49514 0.3867 0.0
O446 O 0.51622 0.51555 0.37038 0.0
O447 O 0.53509 0.53192 0.38062 0.0
O448 O 0.89552 0.74227 0.67079 0.0
Cd449 Cd 0.8724 0.7333 0.66691 0.0
Cd450 Cd 0.86932 0.7368 0.70036 0.0
O451 O 0.89398 0.74206 0.6977 0.0
O452 O 0.87313 0.71809 0.64802 0.0
O453 O 0.86873 0.71011 0.67354 0.0
C454 C 0.87082 0.70637 0.65833 0.0
C455 C 0.86093 0.72399 0.72452 0.0
C456 C 0.90218 0.74422 0.68467 0.0
C457 C 0.8464 0.75575 0.67738 0.0
O458 O 0.85151 0.75243 0.69166 0.0
O459 O 0.85303 0.74926 0.66496 0.0
O460 O 0.86555 0.73901 0.72424 0.0
O461 O 0.86178 0.7158 0.71107 0.0
O462 O 0.50831 0.65374 0.93141 0.0
Cd463 Cd 0.5154 0.62958 0.92933 0.0
Cd464 Cd 0.51244 0.6302 0.96188 0.0
O465 O 0.51132 0.65507 0.95813 0.0
O466 O 0.52891 0.62769 0.90916 0.0
O467 O 0.53886 0.62507 0.9342 0.0
C468 C 0.54136 0.62567 0.91862 0.0
C469 C 0.52862 0.61938 0.98279 0.0
C470 C 0.50861 0.66205 0.94453 0.0
C471 C 0.48925 0.60875 0.94298 0.0
O472 O 0.49226 0.61623 0.95624 0.0
O473 O 0.49806 0.6112 0.93043 0.0
O474 O 0.51521 0.62704 0.98586 0.0
O475 O 0.53325 0.6184 0.96774 0.0
O476 O 0.59254 0.2563 0.1768 0.0
Cd477 Cd 0.61699 0.26267 0.17558 0.0
Cd478 Cd 0.61547 0.25852 0.20791 0.0
O479 O 0.59069 0.25881 0.20353 0.0
O480 O 0.61984 0.27689 0.15602 0.0
O481 O 0.62197 0.28581 0.18149 0.0
C482 C 0.62187 0.28892 0.16601 0.0
C483 C 0.62654 0.27303 0.22986 0.0
C484 C 0.58392 0.2567 0.18972 0.0
C485 C 0.63659 0.23531 0.18875 0.0
O486 O 0.62866 0.23796 0.20183 0.0
O487 O 0.63491 0.24479 0.17656 0.0
O488 O 0.61801 0.25999 0.23206 0.0
O489 O 0.6282 0.27834 0.2151 0.0
O490 O 0.98979 0.34473 0.42357 0.0
Cd491 Cd 0.98353 0.36913 0.42168 0.0
Cd492 Cd 0.98365 0.36788 0.4543 0.0
O493 O 0.98356 0.34314 0.44971 0.0
O494 O 0.97037 0.3721 0.40137 0.0
O495 O 0.96014 0.37397 0.42637 0.0
C496 C 0.95781 0.37396 0.41076 0.0
C497 C 0.96703 0.3787 0.47484 0.0
C498 C 0.98754 0.33623 0.43638 0.0
C499 C 0.00923 0.38862 0.43789 0.0
O500 O 0.00496 0.38081 0.45061 0.0
O501 O 0.00127 0.38696 0.42465 0.0
O502 O 0.97948 0.36971 0.47824 0.0
O503 O 0.96357 0.38112 0.45965 0.0
O504 O 0.90066 0.26063 0.82089 0.0
Cd505 Cd 0.87652 0.26715 0.82376 0.0
Cd506 Cd 0.87593 0.26629 0.79073 0.0
O507 O 0.90091 0.26486 0.7943 0.0
O508 O 0.87475 0.2812 0.84352 0.0
O509 O 0.87144 0.29032 0.81822 0.0
C510 C 0.8724 0.29333 0.8337 0.0
C511 C 0.86611 0.28096 0.76822 0.0
C512 C 0.90844 0.26164 0.80749 0.0
C513 C 0.85501 0.24199 0.80972 0.0
O514 O 0.86132 0.2465 0.79627 0.0
O515 O 0.85872 0.24928 0.82291 0.0
O516 O 0.87388 0.2674 0.76654 0.0
O517 O 0.86444 0.28671 0.7828 0.0
O518 O 0.9925 0.65452 0.06559 0.0
Cd519 Cd 0.98585 0.63016 0.06689 0.0
Cd520 Cd 0.99069 0.6314 0.03451 0.0
O521 O 0.99123 0.65619 0.03875 0.0
O522 O 0.97175 0.62758 0.08657 0.0
O523 O 0.96263 0.62525 0.0612 0.0
C524 C 0.95964 0.62545 0.0767 0.0
C525 C 0.97549 0.62083 0.01278 0.0
C526 C 0.99289 0.66302 0.0526 0.0
C527 C 0.01303 0.60985 0.05423 0.0
O528 O 0.01068 0.6175 0.04093 0.0
O529 O 0.00354 0.61207 0.06632 0.0
O530 O 0.98899 0.62858 0.01039 0.0
O531 O 0.97024 0.61959 0.02761 0.0
O532 O 0.59865 0.73238 0.32045 0.0
Cd533 Cd 0.62305 0.7263 0.32327 0.0
Cd534 Cd 0.62313 0.7273 0.29051 0.0
O535 O 0.59821 0.7279 0.29391 0.0
O536 O 0.62532 0.71296 0.34352 0.0
O537 O 0.62851 0.70306 0.31852 0.0
C538 C 0.62789 0.70057 0.3341 0.0
C539 C 0.63404 0.7111 0.26963 0.0
C540 C 0.59074 0.73109 0.30714 0.0
C541 C 0.64337 0.75228 0.30864 0.0
O542 O 0.63645 0.74808 0.2954 0.0
O543 O 0.64081 0.74427 0.3217 0.0
O544 O 0.62608 0.72431 0.26654 0.0
O545 O 0.63539 0.7067 0.28471 0.0
O546 O 0.50257 0.34072 0.56797 0.0
Cd547 Cd 0.511 0.36443 0.57024 0.0
Cd548 Cd 0.50366 0.36556 0.53827 0.0
O549 O 0.50138 0.34064 0.54108 0.0
O550 O 0.52602 0.36464 0.58938 0.0
O551 O 0.5343 0.36821 0.56386 0.0
C552 C 0.53786 0.36669 0.57917 0.0
C553 C 0.51818 0.37623 0.51613 0.0
C554 C 0.5004 0.3331 0.55462 0.0
C555 C 0.48447 0.38732 0.56092 0.0
O556 O 0.48537 0.38052 0.54699 0.0
O557 O 0.49456 0.38358 0.57211 0.0
O558 O 0.50393 0.36978 0.51431 0.0
O559 O 0.52452 0.37612 0.53057 0.0
O560 O 0.67199 0.90102 0.73502 0.0
Cd561 Cd 0.66881 0.87692 0.72817 0.0
Cd562 Cd 0.70175 0.87703 0.72739 0.0
O563 O 0.69824 0.9019 0.72901 0.0
O564 O 0.64829 0.87505 0.71501 0.0
O565 O 0.67318 0.87244 0.7047 0.0
C566 C 0.65759 0.87306 0.7024 0.0
C567 C 0.72075 0.86608 0.70906 0.0
C568 C 0.68516 0.90909 0.73328 0.0
C569 C 0.68508 0.85589 0.75268 0.0
O570 O 0.69803 0.8631 0.74803 0.0
O571 O 0.6716 0.85852 0.74541 0.0
O572 O 0.72535 0.87383 0.72196 0.0
O573 O 0.70529 0.86507 0.7062 0.0
O574 O 0.17265 0.59157 0.25922 0.0
Cd575 Cd 0.17199 0.61582 0.2663 0.0
Cd576 Cd 0.20407 0.61424 0.26055 0.0
O577 O 0.19942 0.58953 0.26086 0.0
O578 O 0.15324 0.61836 0.28157 0.0
O579 O 0.17916 0.62009 0.28923 0.0
C580 C 0.16385 0.61997 0.29313 0.0
C581 C 0.22746 0.62446 0.27335 0.0
C582 C 0.18552 0.58287 0.2591 0.0
C583 C 0.18381 0.63593 0.23882 0.0
O584 O 0.1969 0.62779 0.24056 0.0
O585 O 0.17215 0.63423 0.24893 0.0
O586 O 0.2283 0.61609 0.26006 0.0
O587 O 0.21324 0.62651 0.27987 0.0
O588 O 0.6512 0.92766 0.50714 0.0
Cd589 Cd 0.62663 0.92621 0.51304 0.0
Cd590 Cd 0.6279 0.95854 0.50822 0.0
O591 O 0.65274 0.9545 0.50836 0.0
O592 O 0.62084 0.93179 0.53611 0.0
O593 O 0.62361 0.90648 0.52698 0.0
C594 C 0.62096 0.91628 0.53904 0.0
C595 C 0.61664 0.98026 0.52293 0.0
C596 C 0.65966 0.94068 0.50689 0.0
C597 C 0.60737 0.93866 0.48506 0.0
O598 O 0.6148 0.95201 0.48774 0.0
O599 O 0.60926 0.9266 0.49465 0.0
O600 O 0.62481 0.98264 0.50969 0.0
O601 O 0.61538 0.96546 0.52825 0.0
O602 O 0.32276 0.39956 0.75554 0.0
Cd603 Cd 0.32509 0.37574 0.76335 0.0
Cd604 Cd 0.29195 0.37597 0.76378 0.0
O605 O 0.29634 0.40064 0.76068 0.0
O606 O 0.34443 0.37376 0.77808 0.0
O607 O 0.31874 0.37221 0.78654 0.0
C608 C 0.33414 0.37253 0.79 0.0
C609 C 0.27031 0.3677 0.78051 0.0
C610 C 0.30956 0.40767 0.75654 0.0
C611 C 0.30926 0.35316 0.74006 0.0
O612 O 0.29615 0.36008 0.74469 0.0
O613 O 0.32284 0.35697 0.74656 0.0
O614 O 0.26779 0.37497 0.7668 0.0
O615 O 0.28522 0.36561 0.78516 0.0
O616 O 0.3486 0.57334 0.51047 0.0
Cd617 Cd 0.37243 0.57656 0.51784 0.0
Cd618 Cd 0.37328 0.54345 0.51802 0.0
O619 O 0.34838 0.54684 0.51523 0.0
O620 O 0.37671 0.57128 0.54121 0.0
O621 O 0.37356 0.59647 0.53175 0.0
C622 C 0.37554 0.58677 0.54404 0.0
C623 C 0.38234 0.52152 0.53401 0.0
C624 C 0.34089 0.5599 0.51142 0.0
C625 C 0.39519 0.56196 0.49413 0.0
O626 O 0.3889 0.54859 0.49888 0.0
O627 O 0.39093 0.57536 0.5007 0.0
O628 O 0.37551 0.51932 0.52003 0.0
O629 O 0.38354 0.5363 0.53935 0.0
O630 O 0.82128 0.09059 0.23451 0.0
Cd631 Cd 0.82239 0.11496 0.22787 0.0
Cd632 Cd 0.79016 0.11362 0.23306 0.0
O633 O 0.79448 0.08883 0.2328 0.0
O634 O 0.84168 0.11756 0.21329 0.0
O635 O 0.81607 0.11987 0.20481 0.0
C636 C 0.83149 0.11965 0.20143 0.0
C637 C 0.76741 0.12439 0.21952 0.0
C638 C 0.80832 0.08203 0.23457 0.0
C639 C 0.81025 0.13476 0.25549 0.0
O640 O 0.79704 0.12691 0.25331 0.0
O641 O 0.82211 0.13297 0.24563 0.0
O642 O 0.76595 0.11597 0.23274 0.0
O643 O 0.78189 0.12616 0.2135 0.0
O644 O 0.64877 0.0737 0.98722 0.0
Cd645 Cd 0.62455 0.07567 0.98024 0.0
Cd646 Cd 0.62486 0.04331 0.98477 0.0
O647 O 0.64976 0.04688 0.98526 0.0
O648 O 0.62275 0.09516 0.96578 0.0
O649 O 0.61983 0.06971 0.95705 0.0
C650 C 0.62059 0.08514 0.95379 0.0
C651 C 0.61391 0.02125 0.97029 0.0
C652 C 0.65694 0.06049 0.98733 0.0
C653 C 0.60397 0.06364 0.00731 0.0
O654 O 0.61132 0.05019 0.00486 0.0
O655 O 0.60631 0.07568 -0.0022 0.0
O656 O 0.62173 0.0192 0.98379 0.0
O657 O 0.61277 0.03592 0.9646 0.0
O658 O 0.84286 0.92388 0.48863 0.0
Cd659 Cd 0.86706 0.92156 0.48151 0.0
Cd660 Cd 0.86735 0.95372 0.48793 0.0
O661 O 0.8424 0.95079 0.48844 0.0
O662 O 0.86824 0.90231 0.46672 0.0
O663 O 0.872 0.92777 0.45837 0.0
C664 C 0.87081 0.91242 0.4549 0.0
C665 C 0.87877 0.97674 0.47551 0.0
C666 C 0.83496 0.93723 0.48965 0.0
C667 C 0.8879 0.93158 0.50912 0.0
O668 O 0.88076 0.94524 0.50743 0.0
O669 O 0.88538 0.92013 0.49895 0.0
O670 O 0.8713 0.97764 0.48932 0.0
O671 O 0.87917 0.96276 0.46822 0.0
C672 C 0.25371 0.20132 0.55687 0.0
C673 C 0.25421 0.1868 0.56601 0.0
C674 C 0.25265 0.20084 0.53984 0.0
C675 C 0.2412 0.17393 0.50538 0.0
H676 H 0.266 0.20524 0.47991 0.0
C677 C 0.24475 0.17108 0.43488 0.0
C678 C 0.2427 0.18597 0.42658 0.0
C679 C 0.24687 0.1708 0.45183 0.0
C680 C 0.25891 0.19649 0.48686 0.0
H681 H 0.25396 0.16035 0.56438 0.0
H682 H 0.25233 0.15953 0.53465 0.0
H683 H 0.26816 0.20539 0.5096 0.0
H684 H 0.24157 0.21228 0.42959 0.0
H685 H 0.24526 0.21176 0.4591 0.0
H686 H 0.23199 0.16502 0.48259 0.0
C687 C 0.25252 0.1713 0.54067 0.0
C688 C 0.26011 0.1966 0.50388 0.0
C689 C 0.25353 0.17178 0.55772 0.0
C690 C 0.24311 0.20059 0.43558 0.0
C691 C 0.24532 0.2003 0.4525 0.0
C692 C 0.24005 0.17378 0.48835 0.0
C693 C 0.25213 0.18584 0.53152 0.0
C694 C 0.25118 0.1854 0.51337 0.0
C695 C 0.24709 0.18541 0.46084 0.0
C696 C 0.24881 0.18514 0.4789 0.0
H697 H 0.25414 0.21311 0.56284 0.0
H698 H 0.25208 0.21227 0.53321 0.0
H699 H 0.23398 0.16527 0.51231 0.0
H700 H 0.24451 0.15959 0.42834 0.0
H701 H 0.24838 0.15914 0.45789 0.0
C702 C 0.07323 0.98916 0.6846 0.0
C703 C 0.05851 0.98667 0.67611 0.0
C704 C 0.07317 0.99178 0.70148 0.0
C705 C 0.04675 0.00539 0.73522 0.0
H706 H 0.07795 0.98274 0.76271 0.0
C707 C 0.04181 0.00642 0.8054 0.0
C708 C 0.05635 0.00777 0.81443 0.0
C709 C 0.04226 0.00371 0.78856 0.0
C710 C 0.06929 0.98932 0.7552 0.0
H711 H 0.03218 0.98504 0.67873 0.0
H712 H 0.03212 0.98962 0.70814 0.0
H713 H 0.0785 0.97854 0.73321 0.0
H714 H 0.0828 0.00728 0.81278 0.0
H715 H 0.08359 0.00284 0.78337 0.0
H716 H 0.0376 0.0163 0.7571 0.0
C717 C 0.04369 0.98965 0.70172 0.0
C718 C 0.0696 0.98689 0.7383 0.0
C719 C 0.04374 0.98693 0.68487 0.0
C720 C 0.07136 0.00624 0.80622 0.0
C721 C 0.07181 0.00361 0.78935 0.0
C722 C 0.04649 0.00789 0.75209 0.0
C723 C 0.0584 0.99207 0.71021 0.0
C724 C 0.05828 0.99485 0.72813 0.0
C725 C 0.05727 0.00237 0.7803 0.0
C726 C 0.0577 -0.00017 0.76231 0.0
H727 H 0.08483 0.98903 0.67824 0.0
H728 H 0.0847 0.99376 0.70767 0.0
H729 H 0.03803 0.01189 0.72768 0.0
H730 H 0.03003 0.00744 0.81134 0.0
H731 H 0.03082 0.00254 0.78204 0.0
C732 C 0.25958 0.79373 0.94125 0.0
C733 C 0.25326 0.80615 0.93126 0.0
C734 C 0.25754 0.79432 0.95817 0.0
C735 C 0.24606 0.82247 0.99215 0.0
H736 H 0.24117 0.78174 0.01573 0.0
C737 C 0.24526 0.82026 0.06275 0.0
C738 C 0.23561 0.80831 0.07037 0.0
C739 C 0.24733 0.82022 0.04578 0.0
C740 C 0.24227 0.79328 0.00938 0.0
H741 H 0.23969 0.82886 0.93113 0.0
H742 H 0.23545 0.82957 0.96058 0.0
H743 H 0.24419 0.78129 0.98633 0.0
H744 H 0.22015 0.78724 0.0662 0.0
H745 H 0.2231 0.78757 0.03667 0.0
H746 H 0.24324 0.83449 0.01514 0.0
C747 C 0.24247 0.81961 0.95546 0.0
C748 C 0.24432 0.793 0.99245 0.0
C749 C 0.24479 0.81916 0.93854 0.0
C750 C 0.22782 0.7965 0.06068 0.0
C751 C 0.22963 0.79664 0.04372 0.0
C752 C 0.24372 0.82277 0.00907 0.0
C753 C 0.24883 0.8072 0.96553 0.0
C754 C 0.24636 0.80758 0.98359 0.0
C755 C 0.23954 0.80839 0.03602 0.0
C756 C 0.24186 0.80816 0.01794 0.0
H757 H 0.26634 0.78363 0.93602 0.0
H758 H 0.26297 0.78474 0.96548 0.0
H759 H 0.2478 0.83396 0.98585 0.0
H760 H 0.25149 0.82946 0.06991 0.0
H761 H 0.25528 0.8293 0.0404 0.0
C762 C 0.45027 0.99051 0.30608 0.0
C763 C 0.43582 0.98868 0.31519 0.0
C764 C 0.44964 0.99375 0.28934 0.0
C765 C 0.42301 0.9897 0.25339 0.0
H766 H 0.45241 0.02153 0.23428 0.0
C767 C 0.41889 0.00895 0.18551 0.0
C768 C 0.43369 0.01123 0.17709 0.0
C769 C 0.41879 0.00652 0.20242 0.0
C770 C 0.44424 0.01247 0.23939 0.0
H771 H 0.40935 0.9889 0.31378 0.0
H772 H 0.40828 0.99458 0.28454 0.0
H773 H 0.4529 0.0168 0.26367 0.0
H774 H 0.46002 0.01258 0.17989 0.0
H775 H 0.45985 0.00808 0.20926 0.0
H776 H 0.41447 0.98522 0.2291 0.0
C777 C 0.42009 0.99339 0.29037 0.0
C778 C 0.44451 0.00978 0.25624 0.0
C779 C 0.42072 0.99023 0.30715 0.0
C780 C 0.44838 0.01095 0.18598 0.0
C781 C 0.44828 0.00847 0.20286 0.0
C782 C 0.42278 0.99234 0.23652 0.0
C783 C 0.43455 0.99517 0.28128 0.0
C784 C 0.43395 -0.00168 0.26342 0.0
C785 C 0.43349 0.00628 0.2113 0.0
C786 C 0.43345 0.00371 0.2293 0.0
H787 H 0.46211 0.98938 0.31187 0.0
H788 H 0.461 0.99487 0.28264 0.0
H789 H 0.41486 0.98064 0.25854 0.0
H790 H 0.40734 0.00916 0.17906 0.0
H791 H 0.40716 0.00507 0.20856 0.0
C792 C 0.55643 0.25482 0.20304 0.0
C793 C 0.56591 0.25509 0.18872 0.0
C794 C 0.53943 0.25381 0.20218 0.0
C795 C 0.50541 0.24214 0.17485 0.0
H796 H 0.4797 0.26795 0.20512 0.0
C797 C 0.43478 0.24614 0.17141 0.0
C798 C 0.4264 0.24484 0.18636 0.0
C799 C 0.45178 0.24791 0.1711 0.0
C800 C 0.48671 0.26058 0.19667 0.0
H801 H 0.56489 0.2544 0.16224 0.0
H802 H 0.53517 0.25281 0.16077 0.0
H803 H 0.50939 0.26989 0.20565 0.0
H804 H 0.42937 0.24451 0.21271 0.0
H805 H 0.45892 0.24756 0.21213 0.0
H806 H 0.48265 0.23284 0.16589 0.0
C807 C 0.54093 0.25319 0.17267 0.0
C808 C 0.50373 0.26166 0.19698 0.0
C809 C 0.55797 0.25417 0.17352 0.0
C810 C 0.4354 0.2455 0.20097 0.0
C811 C 0.45235 0.24735 0.20066 0.0
C812 C 0.48836 0.2411 0.1745 0.0
C813 C 0.53145 0.2531 0.187 0.0
C814 C 0.5133 0.25233 0.18619 0.0
C815 C 0.46075 0.24852 0.18573 0.0
C816 C 0.47882 0.25018 0.18552 0.0
H817 H 0.56213 0.25542 0.21496 0.0
H818 H 0.53253 0.25346 0.21347 0.0
H819 H 0.51241 0.23466 0.16649 0.0
H820 H 0.42823 0.24568 0.15993 0.0
H821 H 0.45789 0.24894 0.15941 0.0
C822 C 0.99245 0.31005 0.42109 0.0
C823 C 0.98935 0.31823 0.43587 0.0
C824 C 0.99383 0.29302 0.42072 0.0
C825 C 0.98307 0.25609 0.44461 0.0
H826 H 0.01659 0.23519 0.41848 0.0
C827 C 0.00125 0.18889 0.45372 0.0
C828 C 0.00393 0.17929 0.43974 0.0
C829 C -0.00109 0.20572 0.45238 0.0
C830 C 0.00704 0.24084 0.42568 0.0
H831 H 0.98551 0.31488 0.4619 0.0
H832 H 0.98817 0.28535 0.46128 0.0
H833 H 0.01368 0.26486 0.41774 0.0
H834 H 0.00627 0.17992 0.41335 0.0
H835 H 0.00218 0.2094 0.41103 0.0
H836 H 0.97661 0.23212 0.45275 0.0
C837 C 0.98921 0.29202 0.4499 0.0
C838 C 0.00536 0.25784 0.42525 0.0
C839 C 0.9878 0.309 0.45027 0.0
C840 C 0.00422 0.18695 0.42436 0.0
C841 C 0.00197 0.20384 0.42303 0.0
C842 C 0.98479 0.23914 0.44509 0.0
C843 C 0.99215 0.2838 0.43512 0.0
C844 C 0.99347 0.26568 0.43487 0.0
C845 C -0.00075 0.21339 0.43703 0.0
C846 C 0.99691 0.23133 0.43577 0.0
H847 H 0.99366 0.31679 0.40977 0.0
H848 H 0.99595 0.28706 0.4091 0.0
H849 H 0.97355 0.26169 0.4519 0.0
H850 H 0.00098 0.18342 0.46577 0.0
H851 H 0.99706 0.21277 0.46342 0.0
C852 C 0.0515 0.75761 0.67969 0.0
C853 C 0.05904 0.75828 0.6951 0.0
C854 C 0.03449 0.75697 0.67836 0.0
C855 C 0.99648 0.76557 0.70132 0.0
H856 H 0.97684 0.7367 0.66936 0.0
C857 C 0.92763 0.74956 0.70092 0.0
C858 C 0.91985 0.74808 0.68568 0.0
C859 C 0.94451 0.75194 0.70186 0.0
C860 C 0.98212 0.74499 0.6782 0.0
H861 H 0.05455 0.75874 0.72122 0.0
H862 H 0.02492 0.7574 0.7189 0.0
H863 H 0.00647 0.73834 0.67144 0.0
H864 H 0.92372 0.74848 0.65945 0.0
H865 H 0.95311 0.75275 0.66111 0.0
H866 H 0.97208 0.77209 0.70817 0.0
C867 C 0.03215 0.75761 0.70783 0.0
C868 C -0.00088 0.74593 0.6794 0.0
C869 C 0.04916 0.75826 0.70916 0.0
C870 C 0.9293 0.74948 0.67139 0.0
C871 C 0.94618 0.75183 0.67234 0.0
C872 C 0.97946 0.76462 0.70013 0.0
C873 C 0.02461 0.75698 0.69242 0.0
C874 C 0.00651 0.75619 0.691 0.0
C875 C 0.95402 0.75285 0.68758 0.0
C876 C 0.97209 0.75428 0.68858 0.0
H877 H 0.05872 0.75769 0.6686 0.0
H878 H 0.02908 0.7567 0.6663 0.0
H879 H 0.00177 0.77379 0.71022 0.0
H880 H 0.92074 0.74854 0.71217 0.0
H881 H 0.95019 0.75254 0.71379 0.0
C882 C 0.49107 0.81036 0.92761 0.0
C883 C 0.48989 0.81892 0.94245 0.0
C884 C 0.4931 0.7934 0.92751 0.0
C885 C 0.48722 0.75693 0.95356 0.0
H886 H 0.5163 0.73618 0.92246 0.0
C887 C 0.50552 0.68911 0.95849 0.0
C888 C 0.50604 0.67996 0.94397 0.0
C889 C 0.50335 0.70603 0.95801 0.0
C890 C 0.508 0.74178 0.9311 0.0
H891 H 0.49022 0.81635 0.96883 0.0
H892 H 0.494 0.7869 0.96865 0.0
H893 H 0.51316 0.76582 0.92219 0.0
H894 H 0.50464 0.68146 0.91754 0.0
H895 H 0.50077 0.71099 0.91674 0.0
H896 H 0.48215 0.73292 0.96254 0.0
C897 C 0.49305 0.79323 0.95707 0.0
C898 C 0.50619 0.75876 0.93095 0.0
C899 C 0.49099 0.81016 0.95717 0.0
C900 C 0.5043 0.68813 0.92896 0.0
C901 C 0.50219 0.70507 0.92848 0.0
C902 C 0.48906 0.73997 0.95374 0.0
C903 C 0.49402 0.78462 0.94225 0.0
C904 C 0.49583 0.76655 0.94222 0.0
C905 C 0.50169 0.7142 0.94301 0.0
C906 C 0.49951 0.73221 0.94256 0.0
H907 H 0.49023 0.81672 0.91604 0.0
H908 H 0.49363 0.78714 0.91588 0.0
H909 H 0.47889 0.76248 0.9622 0.0
H910 H 0.50686 0.68324 0.97027 0.0
H911 H 0.50322 0.71274 0.9694 0.0
C912 C 0.56416 0.7326 0.29209 0.0
C913 C 0.57274 0.73307 0.30695 0.0
C914 C 0.54718 0.73412 0.2918 0.0
C915 C 0.51203 0.7487 0.31611 0.0
H916 H 0.48724 0.72195 0.2859 0.0
C917 C 0.44134 0.74697 0.31587 0.0
C918 C 0.43373 0.74761 0.30048 0.0
C919 C 0.45823 0.74477 0.31713 0.0
C920 C 0.494 0.7296 0.29431 0.0
H921 H 0.57014 0.73555 0.3332 0.0
H922 H 0.54043 0.73802 0.33271 0.0
H923 H 0.51681 0.71895 0.28737 0.0
H924 H 0.43796 0.74631 0.27434 0.0
H925 H 0.46739 0.74249 0.27656 0.0
H926 H 0.48915 0.75933 0.32304 0.0
C927 C 0.54689 0.73668 0.32125 0.0
C928 C 0.51096 0.7279 0.29514 0.0
C929 C 0.56392 0.73519 0.32154 0.0
C930 C 0.4434 0.74586 0.28639 0.0
C931 C 0.46026 0.74357 0.28766 0.0
C932 C 0.49504 0.75036 0.31531 0.0
C933 C 0.53832 0.73609 0.30637 0.0
C934 C 0.5202 0.73753 0.30595 0.0
C935 C 0.46788 0.74306 0.30303 0.0
C936 C 0.48586 0.74092 0.30431 0.0
H937 H 0.57056 0.73107 0.2806 0.0
H938 H 0.54102 0.73392 0.2801 0.0
H939 H 0.51878 0.75646 0.32442 0.0
H940 H 0.43427 0.74827 0.32698 0.0
H941 H 0.46372 0.74425 0.32915 0.0
C942 C 0.49714 0.30651 0.56956 0.0
C943 C 0.49723 0.31528 0.55478 0.0
C944 C 0.49486 0.28959 0.56961 0.0
C945 C 0.49859 0.25347 0.54288 0.0
H946 H 0.47213 0.23236 0.57602 0.0
C947 C 0.48183 0.18517 0.53954 0.0
C948 C 0.48244 0.17612 0.55413 0.0
C949 C 0.48343 0.20215 0.53977 0.0
C950 C 0.4797 0.23806 0.56678 0.0
H951 H 0.49461 0.31311 0.52849 0.0
H952 H 0.49045 0.28367 0.52862 0.0
H953 H 0.47497 0.26202 0.57611 0.0
H954 H 0.48521 0.1779 0.58043 0.0
H955 H 0.48814 0.20754 0.58079 0.0
H956 H 0.50332 0.22953 0.53355 0.0
C957 C 0.49242 0.28985 0.54015 0.0
C958 C 0.48133 0.25506 0.56683 0.0
C959 C 0.49471 0.30675 0.54009 0.0
C960 C 0.48467 0.18448 0.56896 0.0
C961 C 0.48625 0.20148 0.56919 0.0
C962 C 0.49695 0.23649 0.54282 0.0
C963 C 0.49261 0.28104 0.55489 0.0
C964 C 0.49078 0.26297 0.55486 0.0
C965 C 0.48568 0.21051 0.55459 0.0
C966 C 0.48747 0.22858 0.55476 0.0
H967 H 0.49908 0.31268 0.58109 0.0
H968 H 0.49524 0.28316 0.58116 0.0
H969 H 0.50621 0.25913 0.53366 0.0
H970 H 0.48007 0.17915 0.52789 0.0
H971 H 0.48272 0.20875 0.52832 0.0
C972 C 0.93519 0.25748 0.82188 0.0
C973 C 0.92641 0.25946 0.80726 0.0
C974 C 0.9522 0.25592 0.82165 0.0
C975 C 0.98832 0.26432 0.79574 0.0
H976 H 0.0098 0.23375 0.82484 0.0
C977 C 0.05667 0.24752 0.78997 0.0
C978 C 0.06569 0.24611 0.80452 0.0
C979 C 0.03973 0.24959 0.79042 0.0
C980 C 0.00399 0.24247 0.81676 0.0
H981 H 0.92865 0.26111 0.7809 0.0
H982 H 0.95823 0.25812 0.78049 0.0
H983 H 0.98013 0.23618 0.82536 0.0
H984 H 0.06394 0.24599 0.83097 0.0
H985 H 0.0344 0.24966 0.83173 0.0
H986 H 0.01221 0.27048 0.78706 0.0
C987 C 0.95201 0.25808 0.79217 0.0
C988 C 0.98698 0.24388 0.81706 0.0
C989 C 0.93502 0.25968 0.7924 0.0
C990 C 0.05738 0.247 0.81953 0.0
C991 C 0.04044 0.249 0.81998 0.0
C992 C 0.00533 0.26287 0.7954 0.0
C993 C 0.96082 0.25626 0.8068 0.0
C994 C 0.97893 0.25481 0.80654 0.0
C995 C 0.03141 0.25023 0.80543 0.0
C996 C 0.01335 0.25192 0.8059 0.0
H997 H 0.92896 0.25732 0.83356 0.0
H998 H 0.95861 0.25474 0.83316 0.0
H999 H 0.98255 0.27306 0.78767 0.0
H1000 H 0.06267 0.24687 0.77819 0.0
H1001 H 0.0331 0.25035 0.779 0.0
C1002 C 0.99553 0.68901 0.06871 0.0
C1003 C 0.99481 0.681 0.05353 0.0
C1004 C 0.99671 0.70603 0.0695 0.0
C1005 C 0.98877 0.74308 0.04493 0.0
H1006 H 0.01742 0.76427 0.07612 0.0
C1007 C 0.00494 0.81123 0.0404 0.0
C1008 C 0.00555 0.82042 0.05489 0.0
C1009 C 0.00318 0.79429 0.04091 0.0
C1010 C 0.00921 0.75854 0.06748 0.0
H1011 H 0.99508 0.68465 0.02728 0.0
H1012 H 0.99733 0.71423 0.02866 0.0
H1013 H 0.01548 0.73451 0.07572 0.0
H1014 H 0.00476 0.81892 0.08134 0.0
H1015 H 0.0016 0.78925 0.08222 0.0
H1016 H 0.98259 0.76705 0.0366 0.0
C1017 C 0.9967 0.70739 0.03997 0.0
C1018 C 0.0081 0.74149 0.06724 0.0
C1019 C 0.99552 0.6904 0.03918 0.0
C1020 C 0.00433 0.81222 0.06995 0.0
C1021 C 0.00262 0.79522 0.07046 0.0
C1022 C 0.9899 0.76009 0.04516 0.0
C1023 C 0.99717 0.71543 0.05513 0.0
C1024 C -0.00201 0.73356 0.05585 0.0
C1025 C 0.002 0.78608 0.05594 0.0
C1026 C 0.00025 0.76802 0.05632 0.0
H1027 H 0.99498 0.68215 0.08002 0.0
H1028 H 0.99691 0.71186 0.08137 0.0
H1029 H 0.9806 0.73739 0.03623 0.0
H1030 H 0.00589 0.81711 0.02858 0.0
H1031 H 0.00299 0.7876 0.02951 0.0
C1032 C 0.19673 0.43459 0.24761 0.0
C1033 C 0.18218 0.4256 0.24609 0.0
C1034 C 0.1963 0.45151 0.24966 0.0
C1035 C 0.17025 0.48751 0.24269 0.0
H1036 H 0.20048 0.50836 0.27258 0.0
C1037 C 0.16914 0.55705 0.25627 0.0
C1038 C 0.18438 0.56489 0.25736 0.0
C1039 C 0.16819 0.54002 0.25521 0.0
C1040 C 0.19206 0.50274 0.26407 0.0
H1041 H 0.15574 0.42738 0.2457 0.0
H1042 H 0.15501 0.45695 0.24938 0.0
H1043 H 0.19999 0.47869 0.2705 0.0
H1044 H 0.2106 0.56094 0.25792 0.0
H1045 H 0.20893 0.53137 0.2559 0.0
H1046 H 0.16244 0.51161 0.23618 0.0
C1047 C 0.16675 0.45089 0.24882 0.0
C1048 C 0.19177 0.48574 0.26289 0.0
C1049 C 0.16718 0.43393 0.2468 0.0
C1050 C 0.19864 0.55533 0.25718 0.0
C1051 C 0.19769 0.53834 0.25613 0.0
C1052 C 0.17055 0.50455 0.24387 0.0
C1053 C 0.18132 0.45987 0.25023 0.0
C1054 C 0.18099 0.47792 0.25206 0.0
C1055 C 0.18247 0.53047 0.25525 0.0
C1056 C 0.18159 0.51236 0.25445 0.0
H1057 H 0.20851 0.4286 0.24707 0.0
H1058 H 0.20774 0.45808 0.25048 0.0
H1059 H 0.16193 0.48187 0.23411 0.0
H1060 H 0.15791 0.56405 0.25641 0.0
H1061 H 0.15627 0.53433 0.25467 0.0
C1062 C 0.67556 0.05754 0.75538 0.0
C1063 C 0.69088 0.0652 0.75664 0.0
C1064 C 0.67447 0.04068 0.75286 0.0
C1065 C 0.6978 0.00577 0.73696 0.0
H1066 H 0.6675 0.97958 0.76224 0.0
C1067 C 0.70017 0.93558 0.73604 0.0
C1068 C 0.68533 0.92696 0.73614 0.0
C1069 C 0.70043 0.95244 0.73852 0.0
C1070 C 0.67587 0.98673 0.75492 0.0
H1071 H 0.71707 0.0611 0.75625 0.0
H1072 H 0.71513 0.03176 0.75181 0.0
H1073 H 0.66861 0.00906 0.76648 0.0
H1074 H 0.65909 0.92934 0.73895 0.0
H1075 H 0.65952 0.95884 0.74299 0.0
H1076 H 0.70499 0.98357 0.72528 0.0
C1077 C 0.70397 0.03881 0.75268 0.0
C1078 C 0.67652 0.00362 0.75738 0.0
C1079 C 0.70507 0.05562 0.75532 0.0
C1080 C 0.67074 0.9356 0.73885 0.0
C1081 C 0.671 0.95251 0.74126 0.0
C1082 C 0.69709 0.98892 0.73443 0.0
C1083 C 0.68867 0.03115 0.75141 0.0
C1084 C 0.68759 0.01329 0.74851 0.0
C1085 C 0.68585 0.96115 0.74107 0.0
C1086 C 0.68621 0.97916 0.74347 0.0
H1087 H 0.66438 0.06455 0.75635 0.0
H1088 H 0.6625 0.03514 0.7518 0.0
H1089 H 0.70627 0.01294 0.72975 0.0
H1090 H 0.71166 0.92931 0.7341 0.0
H1091 H 0.71212 0.95863 0.73861 0.0
C1092 C 0.19237 0.44634 0.01784 0.0
C1093 C 0.18232 0.43481 0.0101 0.0
C1094 C 0.20932 0.44564 0.01609 0.0
C1095 C 0.24328 0.41858 0.002 0.0
H1096 H 0.26689 0.45956 0.00098 0.0
C1097 C 0.31397 0.42095 0.0 0.0
C1098 C 0.32132 0.43384 0.99138 0.0
C1099 C 0.29706 0.42073 0.0025 0.0
C1100 C 0.26053 0.44797 0.001 0.0
H1101 H 0.18213 0.4135 0.99443 0.0
H1102 H 0.21167 0.41267 0.99074 0.0
H1103 H 0.23754 0.45975 0.00431 0.0
H1104 H 0.31668 0.4563 0.97816 0.0
H1105 H 0.28727 0.45557 0.98184 0.0
H1106 H 0.26623 0.40687 -0.00224 0.0
C1107 C 0.20655 0.42199 -0.0014 0.0
C1108 C 0.24363 0.44807 0.00324 0.0
C1109 C 0.18958 0.42251 0.00062 0.0
C1110 C 0.3114 0.4463 0.98504 0.0
C1111 C 0.2945 0.44593 0.98727 0.0
C1112 C 0.26018 0.41849 -0.00052 0.0
C1113 C 0.21667 0.4336 0.00627 0.0
C1114 C 0.23474 0.43338 0.00384 0.0
C1115 C 0.28708 0.43324 0.99618 0.0
C1116 C 0.26906 0.4332 -0.00105 0.0
H1117 H 0.18714 0.45585 0.0254 0.0
H1118 H 0.21664 0.45455 0.02256 0.0
H1119 H 0.23695 0.40699 0.00261 0.0
H1120 H 0.32133 0.41121 0.0051 0.0
H1121 H 0.29188 0.41088 0.00964 0.0
C1122 C 0.79496 0.05459 0.23681 0.0
C1123 C 0.80929 0.06404 0.23641 0.0
C1124 C 0.79579 0.03762 0.23819 0.0
C1125 C 0.82291 0.00395 0.25107 0.0
H1126 H 0.79293 0.97754 0.22566 0.0
C1127 C 0.82619 0.93328 0.24969 0.0
C1128 C 0.8112 0.92498 0.25092 0.0
C1129 C 0.82656 0.9502 0.24729 0.0
C1130 C 0.8013 0.98474 0.23293 0.0
H1131 H 0.83576 0.063 0.23722 0.0
H1132 H 0.83719 0.03332 0.23948 0.0
H1133 H 0.79251 0.00714 0.22278 0.0
H1134 H 0.78486 0.92798 0.25049 0.0
H1135 H 0.78555 0.95739 0.24641 0.0
H1136 H 0.83164 0.9815 0.26126 0.0
C1137 C 0.8253 0.03909 0.2389 0.0
C1138 C 0.80105 0.00172 0.2313 0.0
C1139 C 0.82448 0.0561 0.23754 0.0
C1140 C 0.79662 0.93395 0.24957 0.0
C1141 C 0.79701 0.95082 0.24712 0.0
C1142 C 0.82318 0.98695 0.25269 0.0
C1143 C 0.81096 0.02964 0.23917 0.0
C1144 C 0.81173 0.01154 0.24047 0.0
C1145 C 0.81197 0.95916 0.24601 0.0
C1146 C 0.81226 0.97716 0.24375 0.0
H1147 H 0.78305 0.06029 0.23605 0.0
H1148 H 0.78449 0.03075 0.23864 0.0
H1149 H 0.83118 0.01117 0.25845 0.0
H1150 H 0.83765 0.92675 0.25066 0.0
H1151 H 0.83829 0.95624 0.24633 0.0
C1152 C 0.68329 0.07581 0.99094 0.0
C1153 C 0.6749 0.06089 0.9896 0.0
C1154 C 0.70028 0.0761 0.99269 0.0
C1155 C 0.73527 0.05038 0.00506 0.0
H1156 H 0.76084 0.08128 0.97988 0.0
C1157 C 0.80519 0.04509 -0.00028 0.0
C1158 C 0.8144 0.05956 0.00054 0.0
C1159 C 0.78818 0.04566 -0.00146 0.0
C1160 C 0.75387 0.07271 0.98715 0.0
H1161 H 0.67785 0.03455 0.98914 0.0
H1162 H 0.70741 0.03508 0.9921 0.0
H1163 H 0.7311 0.08165 0.97787 0.0
H1164 H 0.81287 0.08601 0.00064 0.0
H1165 H 0.78316 0.08699 -0.0013 0.0
H1166 H 0.75798 0.0414 0.01431 0.0
C1167 C 0.70085 0.04656 0.99197 0.0
C1168 C 0.73683 0.07292 0.986 0.0
C1169 C 0.68389 0.04627 0.99018 0.0
C1170 C 0.80618 0.07463 -1e-05 0.0
C1171 C 0.78914 0.0752 -0.0012 0.0
C1172 C 0.75228 0.05017 0.00622 0.0
C1173 C 0.70926 0.06147 0.99321 0.0
C1174 C 0.72734 0.06168 0.99486 0.0
C1175 C 0.77994 0.06072 -0.00184 0.0
C1176 C 0.76181 0.06125 0.99719 0.0
H1177 H 0.67675 0.0873 0.99055 0.0
H1178 H 0.70639 0.08778 0.99378 0.0
H1179 H 0.7283 0.04174 0.01226 0.0
H1180 H 0.81111 0.03326 5e-05 0.0
H1181 H 0.78149 0.03428 -0.00221 0.0
C1182 C 0.32418 0.43399 0.75054 0.0
C1183 C 0.30951 0.42545 0.75317 0.0
C1184 C 0.32402 0.45087 0.74789 0.0
C1185 C 0.29708 0.48472 0.73517 0.0
H1186 H 0.32769 0.51205 0.75879 0.0
C1187 C 0.28864 0.55427 0.73983 0.0
C1188 C 0.30258 0.56424 0.73884 0.0
C1189 C 0.29015 0.53732 0.74091 0.0
C1190 C 0.31921 0.50459 0.75192 0.0
H1191 H 0.28316 0.42796 0.75487 0.0
H1192 H 0.28294 0.45729 0.75027 0.0
H1193 H 0.32926 0.48241 0.76149 0.0
H1194 H 0.32908 0.56416 0.73821 0.0
H1195 H 0.3317 0.53453 0.73992 0.0
H1196 H 0.28698 0.50682 0.72562 0.0
C1197 C 0.29454 0.45095 0.75014 0.0
C1198 C 0.32011 0.48761 0.75347 0.0
C1199 C 0.29469 0.43413 0.75288 0.0
C1200 C 0.31809 0.55685 0.73902 0.0
C1201 C 0.31959 0.53986 0.74007 0.0
C1202 C 0.29621 0.50167 0.73357 0.0
C1203 C 0.3092 0.45953 0.74769 0.0
C1204 C 0.30893 0.4775 0.74527 0.0
C1205 C 0.30564 0.5299 0.74098 0.0
C1206 C 0.30713 0.51183 0.74208 0.0
H1207 H 0.3358 0.42768 0.75068 0.0
H1208 H 0.3355 0.45714 0.7459 0.0
H1209 H 0.28847 0.47724 0.72847 0.0
H1210 H 0.27651 0.55954 0.7398 0.0
H1211 H 0.27915 0.53005 0.74189 0.0
C1212 C 0.31444 0.54462 0.50922 0.0
C1213 C 0.32301 0.55949 0.50862 0.0
C1214 C 0.2975 0.54427 0.5072 0.0
C1215 C 0.2609 0.57015 0.51075 0.0
H1216 H 0.24049 0.53617 0.48486 0.0
C1217 C 0.19196 0.57048 0.49545 0.0
C1218 C 0.18371 0.55543 0.49575 0.0
C1219 C 0.20896 0.5711 0.49698 0.0
C1220 C 0.24598 0.54563 0.49229 0.0
H1221 H 0.32044 0.58565 0.50521 0.0
H1222 H 0.29088 0.58499 0.5016 0.0
H1223 H 0.27016 0.53706 0.48724 0.0
H1224 H 0.18688 0.52922 0.49813 0.0
H1225 H 0.21646 0.53034 0.50103 0.0
H1226 H 0.23673 0.57867 0.5159 0.0
C1227 C 0.29728 0.57363 0.50381 0.0
C1228 C 0.26299 0.54615 0.49363 0.0
C1229 C 0.31424 0.57398 0.50577 0.0
C1230 C 0.19284 0.54103 0.49778 0.0
C1231 C 0.20983 0.54165 0.49933 0.0
C1232 C 0.24388 0.56961 0.50944 0.0
C1233 C 0.28871 0.55877 0.50457 0.0
C1234 C 0.27064 0.5584 0.5029 0.0
C1235 C 0.21811 0.55669 0.49887 0.0
C1236 C 0.23621 0.55732 0.50022 0.0
H1237 H 0.32079 0.53323 0.51141 0.0
H1238 H 0.29124 0.53264 0.50803 0.0
H1239 H 0.26641 0.5796 0.51818 0.0
H1240 H 0.18533 0.58181 0.49385 0.0
H1241 H 0.21496 0.58287 0.49637 0.0
C1242 C 0.7549 0.67018 0.05998 0.0
C1243 C 0.75612 0.68478 0.06893 0.0
C1244 C 0.7528 0.67052 0.04302 0.0
C1245 C 0.75903 0.69734 0.00727 0.0
H1246 H 0.72948 0.66737 0.98559 0.0
C1247 C 0.74184 0.70439 0.9394 0.0
C1248 C 0.74083 0.69014 0.92987 0.0
C1249 C 0.74373 0.70341 0.95633 0.0
C1250 C 0.73793 0.67569 0.99145 0.0
H1251 H 0.75574 0.71122 0.06705 0.0
H1252 H 0.7519 0.7118 0.03759 0.0
H1253 H 0.73249 0.66626 0.01524 0.0
H1254 H 0.74104 0.66366 0.93075 0.0
H1255 H 0.74449 0.66197 0.9603 0.0
H1256 H 0.76448 0.70679 0.98353 0.0
C1257 C 0.75284 0.70007 0.04363 0.0
C1258 C 0.73964 0.67506 0.00844 0.0
C1259 C 0.75494 0.69973 0.06055 0.0
C1260 C 0.74176 0.67488 0.9377 0.0
C1261 C 0.74363 0.67391 0.95466 0.0
C1262 C 0.75732 0.69797 0.99031 0.0
C1263 C 0.75188 0.68548 0.03463 0.0
C1264 C 0.75016 0.68594 0.01656 0.0
C1265 C 0.74466 0.68817 0.96417 0.0
C1266 C 0.74669 0.68721 0.98219 0.0
H1267 H 0.75579 0.65845 0.06603 0.0
H1268 H 0.75225 0.65907 0.03645 0.0
H1269 H 0.76748 0.70568 0.0131 0.0
H1270 H 0.7411 0.71635 0.9338 0.0
H1271 H 0.74424 0.71463 0.9633 0.0
C1272 C 0.54396 0.50578 0.30901 0.0
C1273 C 0.55846 0.5056 0.31822 0.0
C1274 C 0.5444 0.50375 0.29207 0.0
C1275 C 0.57151 0.50744 0.25634 0.0
H1276 H 0.53924 0.47972 0.23555 0.0
C1277 C 0.5742 0.49079 0.18762 0.0
C1278 C 0.55931 0.49027 0.17908 0.0
C1279 C 0.57441 0.4927 0.2046 0.0
C1280 C 0.54822 0.48766 0.24113 0.0
H1281 H 0.58481 0.50318 0.31677 0.0
H1282 H 0.58555 0.49958 0.28718 0.0
H1283 H 0.53906 0.48286 0.26513 0.0
H1284 H 0.53297 0.49162 0.18171 0.0
H1285 H 0.53336 0.49518 0.21121 0.0
H1286 H 0.5806 0.51234 0.2323 0.0
C1287 C 0.57386 0.50141 0.29309 0.0
C1288 C 0.54813 0.48944 0.25809 0.0
C1289 C 0.57342 0.50338 0.31006 0.0
C1290 C 0.54466 0.49188 0.18789 0.0
C1291 C 0.54487 0.49381 0.20484 0.0
C1292 C 0.57158 0.5057 0.23934 0.0
C1293 C 0.55935 0.50154 0.28392 0.0
C1294 C 0.55972 0.4994 0.26589 0.0
C1295 C 0.55974 0.49414 0.21343 0.0
C1296 C 0.55988 0.49585 0.23152 0.0
H1297 H 0.53222 0.5075 0.31486 0.0
H1298 H 0.53303 0.50412 0.28533 0.0
H1299 H 0.58049 0.51536 0.26196 0.0
H1300 H 0.58572 0.48954 0.18123 0.0
H1301 H 0.58607 0.49272 0.21084 0.0
C1302 C 0.75892 0.32196 0.43359 0.0
C1303 C 0.76122 0.30697 0.42553 0.0
C1304 C 0.7564 0.32243 0.4505 0.0
C1305 C 0.74269 0.29673 0.48486 0.0
H1306 H 0.76517 0.32844 0.51189 0.0
C1307 C 0.74352 0.29145 0.55485 0.0
C1308 C 0.74182 0.30583 0.56407 0.0
C1309 C 0.74577 0.29217 0.53796 0.0
C1310 C 0.75864 0.31964 0.50449 0.0
H1311 H 0.76278 0.28073 0.42899 0.0
H1312 H 0.75846 0.28159 0.45836 0.0
H1313 H 0.76918 0.32875 0.48232 0.0
H1314 H 0.74127 0.33228 0.56271 0.0
H1315 H 0.74502 0.33352 0.53316 0.0
H1316 H 0.73212 0.28761 0.50692 0.0
C1317 C 0.75842 0.29297 0.45161 0.0
C1318 C 0.76095 0.31982 0.48756 0.0
C1319 C 0.761 0.2925 0.43477 0.0
C1320 C 0.74257 0.32097 0.55599 0.0
C1321 C 0.7448 0.32169 0.53906 0.0
C1322 C 0.74035 0.29658 0.50174 0.0
C1323 C 0.75603 0.30792 0.45967 0.0
C1324 C 0.75312 0.30826 0.47758 0.0
C1325 C 0.74633 0.30728 0.52983 0.0
C1326 C 0.74842 0.30792 0.5118 0.0
H1327 H 0.75902 0.33334 0.42685 0.0
H1328 H 0.75448 0.33414 0.45635 0.0
H1329 H 0.73624 0.28786 0.47747 0.0
H1330 H 0.7431 0.27958 0.56066 0.0
H1331 H 0.7472 0.28085 0.53128 0.0
C1332 C 0.95576 0.50334 0.68463 0.0
C1333 C 0.94097 0.50408 0.67595 0.0
C1334 C 0.95581 0.50091 0.70152 0.0
C1335 C 0.92998 0.50571 0.73802 0.0
H1336 H 0.962 0.47723 0.75816 0.0
C1337 C 0.92908 0.49059 0.80704 0.0
C1338 C 0.94422 0.49003 0.81512 0.0
C1339 C 0.92836 0.49192 0.79003 0.0
C1340 C 0.95309 0.48536 0.75274 0.0
H1341 H 0.9146 0.50263 0.67826 0.0
H1342 H 0.91471 0.49831 0.70774 0.0
H1343 H 0.96129 0.47995 0.72851 0.0
H1344 H 0.97049 0.49056 0.81161 0.0
H1345 H 0.96922 0.4931 0.78201 0.0
H1346 H 0.92187 0.51125 0.76224 0.0
C1347 C 0.92627 0.49977 0.70147 0.0
C1348 C 0.95267 0.4869 0.73575 0.0
C1349 C 0.92622 0.50215 0.68455 0.0
C1350 C 0.95862 0.49091 0.8058 0.0
C1351 C 0.95789 0.49225 0.7888 0.0
C1352 C 0.93042 0.5042 0.75502 0.0
C1353 C 0.94107 0.4992 0.71016 0.0
C1354 C 0.94117 0.49715 0.72819 0.0
C1355 C 0.94276 0.49272 0.7807 0.0
C1356 C 0.94204 0.49407 0.76259 0.0
H1357 H 0.96736 0.50479 0.67842 0.0
H1358 H 0.96741 0.50072 0.70788 0.0
H1359 H 0.92111 0.51388 0.73258 0.0
H1360 H 0.91775 0.48988 0.81384 0.0
H1361 H 0.9165 0.49206 0.78417 0.0
C1362 C 0.80833 0.92223 0.49252 0.0
C1363 C 0.81699 0.93704 0.49191 0.0
C1364 C 0.79131 0.92217 0.49415 0.0
C1365 C 0.75514 0.94842 0.4878 0.0
H1366 H 0.7335 0.91743 0.51634 0.0
C1367 C 0.68703 0.95419 0.50447 0.0
C1368 C 0.67765 0.93981 0.50498 0.0
C1369 C 0.70398 0.95345 0.50272 0.0
C1370 C 0.73935 0.92603 0.50817 0.0
H1371 H 0.81453 0.96341 0.49282 0.0
H1372 H 0.78497 0.96329 0.49584 0.0
H1373 H 0.76321 0.91685 0.51374 0.0
H1374 H 0.67882 0.91336 0.50404 0.0
H1375 H 0.70843 0.9121 0.50087 0.0
H1376 H 0.73133 0.95765 0.48227 0.0
C1377 C 0.79128 0.95171 0.49479 0.0
C1378 C 0.75637 0.92571 0.50668 0.0
C1379 C 0.80826 0.95178 0.49316 0.0
C1380 C 0.68566 0.92467 0.50371 0.0
C1381 C 0.70264 0.92394 0.50199 0.0
C1382 C 0.73815 0.94875 0.4893 0.0
C1383 C 0.78259 0.93692 0.4952 0.0
C1384 C 0.76447 0.93697 0.49656 0.0
C1385 C 0.712 0.93832 0.50145 0.0
C1386 C 0.73005 0.93763 0.49957 0.0
H1387 H 0.81466 0.91065 0.49156 0.0
H1388 H 0.78497 0.91057 0.49428 0.0
H1389 H 0.76096 0.95706 0.47966 0.0
H1390 H 0.68129 0.96607 0.50547 0.0
H1391 H 0.71084 0.96475 0.50259 0.0
C1392 C 0.16577 0.33005 0.27507 0.0
C1393 C 0.17811 0.34199 0.27518 0.0
C1394 C 0.1654 0.31787 0.2871 0.0
C1395 C 0.18101 0.30727 0.32817 0.0
H1396 H 0.18105 0.26265 0.3124 0.0
C1397 C 0.21227 0.25528 0.36278 0.0
C1398 C 0.20631 0.23925 0.36152 0.0
C1399 C 0.20482 0.268 0.35423 0.0
C1400 C 0.18067 0.27499 0.31713 0.0
H1401 H 0.19927 0.35095 0.28838 0.0
H1402 H 0.1985 0.32993 0.30933 0.0
H1403 H 0.175 0.28491 0.29358 0.0
H1404 H 0.18729 0.22413 0.35099 0.0
H1405 H 0.17412 0.24646 0.33615 0.0
H1406 H 0.18709 0.29745 0.3516 0.0
C1407 C 0.18913 0.32991 0.29999 0.0
C1408 C 0.17723 0.28775 0.30631 0.0
C1409 C 0.18965 0.34189 0.28789 0.0
C1410 C 0.19221 0.23635 0.35216 0.0
C1411 C 0.18473 0.24912 0.34357 0.0
C1412 C 0.18434 0.29452 0.339 0.0
C1413 C 0.17718 0.31762 0.2996 0.0
C1414 C 0.17791 0.30405 0.3116 0.0
C1415 C 0.19118 0.26504 0.34422 0.0
C1416 C 0.18478 0.27826 0.33349 0.0
H1417 H 0.15673 0.3298 0.26542 0.0
H1418 H 0.15602 0.30856 0.28654 0.0
H1419 H 0.18136 0.31971 0.33264 0.0
H1420 H 0.2231 0.25795 0.36989 0.0
H1421 H 0.21029 0.28002 0.35487 0.0
C1422 C 0.98923 0.95788 0.61368 0.0
C1423 C 0.00518 0.95289 0.60979 0.0
C1424 C 0.97596 0.95227 0.60461 0.0
C1425 C 0.96152 0.92251 0.57387 0.0
H1426 H 0.93452 0.95894 0.56025 0.0
C1427 C 0.91357 0.91966 0.52105 0.0
C1428 C 0.89971 0.92966 0.52263 0.0
C1429 C 0.92591 0.92007 0.53294 0.0
C1430 C 0.94169 0.94853 0.56413 0.0
H1431 H 0.0196 0.93718 0.59409 0.0
H1432 H 0.99627 0.92745 0.57807 0.0
H1433 H 0.95684 0.96356 0.57905 0.0
H1434 H 0.88718 0.94677 0.53846 0.0
H1435 H 0.90822 0.947 0.55935 0.0
H1436 H 0.94624 0.9075 0.55873 0.0
C1437 C 0.9941 0.93566 0.58821 0.0
C1438 C 0.95454 0.9512 0.57492 0.0
C1439 C 0.00745 0.94125 0.59736 0.0
C1440 C 0.89787 0.93915 0.53678 0.0
C1441 C 0.91 0.93935 0.54871 0.0
C1442 C 0.94849 0.91978 0.56307 0.0
C1443 C 0.9783 0.94162 0.59137 0.0
C1444 C 0.96456 0.93825 0.58002 0.0
C1445 C 0.92447 0.93033 0.54666 0.0
C1446 C 0.93834 0.93278 0.55817 0.0
H1447 H 0.98704 0.96667 0.62332 0.0
H1448 H 0.96388 0.9568 0.60757 0.0
H1449 H 0.96907 0.9123 0.57757 0.0
H1450 H 0.91529 0.91224 0.51024 0.0
H1451 H 0.9369 0.91298 0.53095 0.0
C1452 C 0.27215 0.7348 0.86575 0.0
C1453 C 0.2789 0.75032 0.86293 0.0
C1454 C 0.27693 0.72143 0.85634 0.0
C1455 C 0.30763 0.70552 0.82736 0.0
H1456 H 0.27054 0.68169 0.81012 0.0
C1457 C 0.31205 0.65946 0.77338 0.0
C1458 C 0.30129 0.64609 0.77349 0.0
C1459 C 0.31107 0.67145 0.78555 0.0
C1460 C 0.28109 0.68796 0.81502 0.0
H1461 H 0.29673 0.76377 0.84868 0.0
H1462 H 0.30506 0.7403 0.83212 0.0
H1463 H 0.26607 0.70372 0.82936 0.0
H1464 H 0.28188 0.63419 0.78702 0.0
H1465 H 0.28054 0.65468 0.80842 0.0
H1466 H 0.32266 0.68966 0.8129 0.0
C1467 C 0.29608 0.73853 0.84168 0.0
C1468 C 0.27851 0.70065 0.82605 0.0
C1469 C 0.29128 0.75197 0.85112 0.0
C1470 C 0.29018 0.64448 0.78645 0.0
C1471 C 0.28934 0.65631 0.79868 0.0
C1472 C 0.31025 0.69267 0.81636 0.0
C1473 C 0.28857 0.72325 0.84386 0.0
C1474 C 0.29172 0.70956 0.83238 0.0
C1475 C 0.29942 0.6702 0.79813 0.0
C1476 C 0.29698 0.68371 0.81008 0.0
H1477 H 0.26272 0.73305 0.87487 0.0
H1478 H 0.27115 0.70973 0.85853 0.0
H1479 H 0.31805 0.71216 0.83209 0.0
H1480 H 0.32074 0.66104 0.76352 0.0
H1481 H 0.31897 0.68202 0.78468 0.0
C1482 C 0.59371 0.05401 0.03428 0.0
C1483 C 0.59223 0.06474 0.02099 0.0
C1484 C 0.5818 0.05356 0.04644 0.0
C1485 C 0.54513 0.07469 0.06326 0.0
H1486 H 0.53455 0.03074 0.07737 0.0
C1487 C 0.48606 0.05493 0.09842 0.0
C1488 C 0.48811 0.0428 0.11042 0.0
C1489 C 0.49939 0.06015 0.08902 0.0
C1490 C 0.53748 0.04312 0.07374 0.0
H1491 H 0.57745 0.08394 0.01036 0.0
H1492 H 0.55622 0.08279 0.0314 0.0
H1493 H 0.55648 0.03494 0.05796 0.0
H1494 H 0.50595 0.02772 0.12293 0.0
H1495 H 0.52907 0.03688 0.10669 0.0
H1496 H 0.52554 0.08265 0.07884 0.0
C1497 C 0.56678 0.07492 0.03257 0.0
C1498 C 0.55012 0.04556 0.06262 0.0
C1499 C 0.5789 0.07555 0.02048 0.0
C1500 C 0.5039 0.03691 0.11364 0.0
C1501 C 0.51716 0.04212 0.1043 0.0
C1502 C 0.5323 0.07221 0.07436 0.0
C1503 C 0.5679 0.0636 0.04548 0.0
C1504 C 0.55426 0.06137 0.05733 0.0
C1505 C 0.51495 0.05331 0.09149 0.0
C1506 C 0.52848 0.05639 0.07981 0.0
H1507 H 0.60399 0.04572 0.03516 0.0
H1508 H 0.58335 0.04505 0.05644 0.0
H1509 H 0.54802 0.08703 0.05949 0.0
H1510 H 0.47403 0.05971 0.09568 0.0
H1511 H 0.49734 0.06879 0.07922 0.0
C1512 C 0.19635 0.75654 0.15164 0.0
C1513 C 0.20808 0.75438 0.13927 0.0
C1514 C 0.191 0.74319 0.16094 0.0
C1515 C 0.20656 0.70375 0.17472 0.0
H1516 H 0.16233 0.69492 0.18915 0.0
C1517 C 0.19313 0.64648 0.21184 0.0
C1518 C 0.18285 0.64807 0.22547 0.0
C1519 C 0.194 0.65883 0.20014 0.0
C1520 C 0.17476 0.69732 0.18532 0.0
H1521 H 0.22247 0.73638 0.12618 0.0
H1522 H 0.21309 0.71325 0.14224 0.0
H1523 H 0.16765 0.71794 0.17072 0.0
H1524 H 0.16481 0.6635 0.23716 0.0
H1525 H 0.16666 0.68541 0.2169 0.0
H1526 H 0.2139 0.68363 0.18949 0.0
C1527 C 0.20826 0.72525 0.14499 0.0
C1528 C 0.17778 0.71047 0.17476 0.0
C1529 C 0.21358 0.73852 0.13575 0.0
C1530 C 0.17283 0.66195 0.22675 0.0
C1531 C 0.17387 0.67447 0.21512 0.0
C1532 C 0.20359 0.69076 0.18529 0.0
C1533 C 0.19731 0.72749 0.15802 0.0
C1534 C 0.19372 0.7137 0.16924 0.0
C1535 C 0.18483 0.67324 0.20192 0.0
C1536 C 0.18765 0.68724 0.19063 0.0
H1537 H 0.19187 0.76862 0.15463 0.0
H1538 H 0.18257 0.74529 0.17092 0.0
H1539 H 0.21904 0.70617 0.17103 0.0
H1540 H 0.20082 0.63581 0.21037 0.0
H1541 H 0.2022 0.65723 0.18989 0.0
C1542 C 0.59748 0.94882 0.4581 0.0
C1543 C 0.59601 0.93766 0.47104 0.0
C1544 C 0.58593 0.94917 0.44559 0.0
C1545 C 0.55076 0.92693 0.42708 0.0
H1546 H 0.53851 0.9707 0.41379 0.0
C1547 C 0.49137 0.94449 0.39161 0.0
C1548 C 0.49277 0.95718 0.38011 0.0
C1549 C 0.50491 0.93974 0.40094 0.0
C1550 C 0.54193 0.95837 0.41716 0.0
H1551 H 0.58163 0.91763 0.48067 0.0
H1552 H 0.56107 0.91857 0.45902 0.0
H1553 H 0.5602 0.967 0.43356 0.0
H1554 H 0.50975 0.97381 0.36838 0.0
H1555 H 0.53326 0.96543 0.38448 0.0
H1556 H 0.5319 0.91848 0.4109 0.0
C1557 C 0.57134 0.92687 0.45839 0.0
C1558 C 0.55443 0.95623 0.4285 0.0
C1559 C 0.58308 0.92637 0.47084 0.0
C1560 C 0.5082 0.96414 0.37728 0.0
C1561 C 0.52167 0.9594 0.38656 0.0
C1562 C 0.53809 0.92911 0.41576 0.0
C1563 C 0.57242 0.93856 0.44582 0.0
C1564 C 0.55911 0.9405 0.43356 0.0
C1565 C 0.52005 0.9476 0.39891 0.0
C1566 C 0.53363 0.94487 0.41062 0.0
H1567 H 0.60745 0.95751 0.45775 0.0
H1568 H 0.58745 0.95801 0.43587 0.0
H1569 H 0.55411 0.91464 0.43062 0.0
H1570 H 0.47964 0.93888 0.39405 0.0
H1571 H 0.50329 0.93062 0.41038 0.0
C1572 C 0.29122 0.23591 0.65024 0.0
C1573 C 0.28259 0.23904 0.63576 0.0
C1574 C 0.29717 0.24883 0.65973 0.0
C1575 C 0.28844 0.29264 0.66674 0.0
H1576 H 0.32503 0.28945 0.69661 0.0
C1577 C 0.29302 0.33453 0.72223 0.0
C1578 C 0.30834 0.34045 0.72719 0.0
C1579 C 0.29179 0.32267 0.7101 0.0
C1580 C 0.31491 0.29065 0.68819 0.0
H1581 H 0.27462 0.25797 0.61909 0.0
H1582 H 0.28565 0.28042 0.63512 0.0
H1583 H 0.32068 0.26808 0.67628 0.0
H1584 H 0.33446 0.33839 0.72331 0.0
H1585 H 0.33229 0.31777 0.70175 0.0
H1586 H 0.28281 0.31527 0.67832 0.0
C1587 C 0.28725 0.2681 0.63962 0.0
C1588 C 0.31228 0.27828 0.67665 0.0
C1589 C 0.28103 0.25522 0.63033 0.0
C1590 C 0.32247 0.33409 0.71976 0.0
C1591 C 0.32123 0.32223 0.70746 0.0
C1592 C 0.29115 0.30501 0.6781 0.0
C1593 C 0.29482 0.26514 0.65477 0.0
C1594 C 0.29882 0.27896 0.66596 0.0
C1595 C 0.30583 0.31646 0.70241 0.0
C1596 C 0.30416 0.304 0.68926 0.0
H1597 H 0.29255 0.22354 0.65474 0.0
H1598 H 0.3028 0.24602 0.67135 0.0
H1599 H 0.2778 0.29359 0.65895 0.0
H1600 H 0.28187 0.33897 0.7278 0.0
H1601 H 0.27975 0.31823 0.70687 0.0
C1602 C 0.91015 0.07479 0.96848 0.0
C1603 C 0.89648 0.06444 0.96766 0.0
C1604 C 0.92217 0.07424 0.95628 0.0
C1605 C 0.93781 0.04521 0.92551 0.0
H1606 H 0.96394 0.08173 0.91045 0.0
C1607 C 0.98516 0.03555 0.87574 0.0
C1608 C 0.00096 0.04117 0.87933 0.0
C1609 C 0.97176 0.04106 0.88469 0.0
C1610 C 0.95673 0.07144 0.9146 0.0
H1611 H 0.88397 0.04645 0.95282 0.0
H1612 H 0.90445 0.04593 0.93138 0.0
H1613 H 0.94136 0.08649 0.9296 0.0
H1614 H 0.01497 0.0579 0.89432 0.0
H1615 H 0.99145 0.06746 0.91015 0.0
H1616 H 0.95307 0.03014 0.91074 0.0
C1617 C 0.90633 0.054 0.94168 0.0
C1618 C 0.94385 0.07414 0.92558 0.0
C1619 C 0.89452 0.05436 0.95394 0.0
C1620 C 0.00293 0.05333 0.89129 0.0
C1621 C 0.98947 0.05883 0.90033 0.0
C1622 C 0.95052 0.04255 0.91453 0.0
C1623 C 0.9206 0.06346 0.94297 0.0
C1624 C 0.93419 0.06103 0.93111 0.0
C1625 C 0.97385 0.05226 0.89752 0.0
C1626 C 0.9601 0.0556 0.90889 0.0
H1627 H 0.91197 0.08267 0.97894 0.0
H1628 H 0.93301 0.08166 0.95769 0.0
H1629 H 0.93101 0.03473 0.92986 0.0
H1630 H 0.98319 0.02634 0.86645 0.0
H1631 H 0.95982 0.03605 0.882 0.0
C1632 C 0.34395 0.20424 0.23587 0.0
C1633 C 0.35838 0.21303 0.23875 0.0
C1634 C 0.33485 0.19802 0.24894 0.0
C1635 C 0.31856 0.18265 0.27861 0.0
H1636 H 0.31753 0.2119 0.31579 0.0
C1637 C 0.27584 0.17267 0.33484 0.0
C1638 C 0.26855 0.18686 0.3412 0.0
C1639 C 0.28809 0.17379 0.32291 0.0
C1640 C 0.31758 0.20361 0.30549 0.0
H1641 H 0.37543 0.22094 0.25735 0.0
H1642 H 0.36011 0.2094 0.28007 0.0
H1643 H 0.33662 0.21696 0.29386 0.0
H1644 H 0.26813 0.21333 0.33964 0.0
H1645 H 0.28898 0.21524 0.3188 0.0
H1646 H 0.29868 0.16994 0.28999 0.0
C1647 C 0.35533 0.2079 0.26783 0.0
C1648 C 0.32879 0.20635 0.29296 0.0
C1649 C 0.36421 0.21442 0.2548 0.0
C1650 C 0.27359 0.20213 0.3352 0.0
C1651 C 0.28568 0.20324 0.32328 0.0
C1652 C 0.30718 0.18001 0.29113 0.0
C1653 C 0.34017 0.20022 0.26516 0.0
C1654 C 0.3293 0.19607 0.2792 0.0
C1655 C 0.29324 0.18913 0.31709 0.0
C1656 C 0.30633 0.1907 0.30455 0.0
H1657 H 0.33915 0.20304 0.22359 0.0
H1658 H 0.32322 0.19231 0.24634 0.0
H1659 H 0.31874 0.17432 0.26835 0.0
H1660 H 0.27222 0.16072 0.3392 0.0
H1661 H 0.29371 0.16268 0.31845 0.0
C1662 C 0.07191 0.02367 0.58691 0.0
C1663 C 0.05784 0.01545 0.59235 0.0
C1664 C 0.07063 0.03662 0.57576 0.0
C1665 C 0.04009 0.06591 0.55914 0.0
H1666 H 0.07078 0.07077 0.52344 0.0
C1667 C 0.02946 0.11531 0.51094 0.0
C1668 C 0.03191 0.11062 0.49463 0.0
C1669 C 0.03562 0.10581 0.5237 0.0
C1670 C 0.06205 0.06956 0.5333 0.0
H1671 H 0.03147 0.01408 0.58995 0.0
H1672 H 0.02931 0.03612 0.57039 0.0
H1673 H 0.0752 0.04956 0.5439 0.0
H1674 H 0.04337 0.09275 0.47885 0.0
H1675 H 0.05352 0.07576 0.50105 0.0
H1676 H 0.02635 0.08507 0.54818 0.0
C1677 C 0.0413 0.03303 0.57504 0.0
C1678 C 0.06471 0.05751 0.54516 0.0
C1679 C 0.04256 0.02026 0.58621 0.0
C1680 C 0.04133 0.09668 0.49132 0.0
C1681 C 0.04723 0.08699 0.50409 0.0
C1682 C 0.03734 0.07778 0.54724 0.0
C1683 C 0.05526 0.04152 0.56978 0.0
C1684 C 0.05355 0.05531 0.55803 0.0
C1685 C 0.04406 0.09117 0.52047 0.0
C1686 C 0.04812 0.07962 0.53399 0.0
H1687 H 0.08386 0.02027 0.59142 0.0
H1688 H 0.08163 0.04294 0.57203 0.0
H1689 H 0.03141 0.06483 0.56907 0.0
H1690 H 0.02243 0.12613 0.51385 0.0
H1691 H 0.03334 0.10972 0.53612 0.0
C1692 C 0.13951 0.79627 0.74623 0.0
C1693 C 0.12912 0.78297 0.7494 0.0
C1694 C 0.14935 0.80273 0.75864 0.0
C1695 C 0.15603 0.80193 0.80381 0.0
H1696 H 0.20121 0.80996 0.79209 0.0
C1697 C 0.20918 0.79664 0.84926 0.0
C1698 C 0.22179 0.80827 0.84867 0.0
C1699 C 0.19669 0.79678 0.83766 0.0
C1700 C 0.18858 0.80805 0.79553 0.0
H1701 H 0.12046 0.76647 0.76824 0.0
H1702 H 0.13771 0.77744 0.78965 0.0
H1703 H 0.18121 0.80457 0.77072 0.0
H1704 H 0.23101 0.82938 0.83558 0.0
H1705 H 0.20922 0.82943 0.81507 0.0
H1706 H 0.16365 0.80462 0.8287 0.0
C1707 C 0.13815 0.78312 0.77771 0.0
C1708 C 0.17708 0.80499 0.78327 0.0
C1709 C 0.1283 0.77672 0.76536 0.0
C1710 C 0.22145 0.82026 0.83638 0.0
C1711 C 0.20904 0.82026 0.8246 0.0
C1712 C 0.16756 0.80483 0.81606 0.0
C1713 C 0.14903 0.79601 0.77446 0.0
C1714 C 0.16073 0.80149 0.78728 0.0
C1715 C 0.1966 0.80845 0.82508 0.0
C1716 C 0.18402 0.80755 0.81206 0.0
H1717 H 0.14038 0.8014 0.73407 0.0
H1718 H 0.15741 0.81281 0.75576 0.0
H1719 H 0.14349 0.79965 0.80734 0.0
H1720 H 0.20904 0.78726 0.85859 0.0
H1721 H 0.18738 0.78741 0.83824 0.0
C1722 C 0.44965 0.90243 0.99065 0.0
C1723 C 0.45867 0.8882 0.99382 0.0
C1724 C 0.44374 0.91196 0.00356 0.0
C1725 C 0.45319 0.91971 0.04711 0.0
H1726 H 0.41645 0.94939 0.04389 0.0
C1727 C 0.44939 0.97637 0.08743 0.0
C1728 C 0.43418 0.98166 0.09336 0.0
C1729 C 0.45038 0.96379 0.07602 0.0
C1730 C 0.42662 0.94102 0.04512 0.0
H1731 H 0.46735 0.87196 0.0128 0.0
H1732 H 0.45633 0.88801 0.03526 0.0
H1733 H 0.42047 0.92859 0.02294 0.0
H1734 H 0.40801 0.97787 0.09186 0.0
H1735 H 0.40976 0.95551 0.07207 0.0
H1736 H 0.45918 0.93182 0.06938 0.0
C1737 C 0.45442 0.89232 0.0229 0.0
C1738 C 0.42905 0.92921 0.03297 0.0
C1739 C 0.46062 0.88302 0.01003 0.0
C1740 C 0.41992 0.97407 0.08753 0.0
C1741 C 0.42092 0.96132 0.07614 0.0
C1742 C 0.45065 0.93134 0.05928 0.0
C1743 C 0.44649 0.90728 0.01989 0.0
C1744 C 0.44259 0.91862 0.03363 0.0
C1745 C 0.4362 0.95597 0.07032 0.0
C1746 C 0.43761 0.94245 0.05823 0.0
H1747 H 0.44802 0.90674 0.97825 0.0
H1748 H 0.43783 0.92343 0.00068 0.0
H1749 H 0.4639 0.91201 0.04804 0.0
H1750 H 0.46063 0.98205 0.09148 0.0
H1751 H 0.46233 0.96035 0.07152 0.0
C1752 C 0.36482 0.77181 0.23064 0.0
C1753 C 0.36526 0.77839 0.24648 0.0
C1754 C 0.35493 0.77876 0.21862 0.0
C1755 C 0.31757 0.80355 0.21458 0.0
H1756 H 0.32824 0.80099 0.16851 0.0
C1757 C 0.27152 0.8211 0.16361 0.0
C1758 C 0.26955 0.80891 0.15167 0.0
C1759 C 0.28453 0.82035 0.17469 0.0
C1760 C 0.32511 0.80182 0.18134 0.0
H1761 H 0.35631 0.79799 0.26187 0.0
H1762 H 0.33926 0.81036 0.24074 0.0
H1763 H 0.34916 0.79492 0.18883 0.0
H1764 H 0.28002 0.78672 0.14166 0.0
H1765 H 0.30272 0.78555 0.16082 0.0
H1766 H 0.29343 0.81025 0.207 0.0
C1767 C 0.34632 0.79959 0.23772 0.0
C1768 C 0.33707 0.79829 0.19299 0.0
C1769 C 0.35618 0.79257 0.2498 0.0
C1770 C 0.28114 0.79627 0.15074 0.0
C1771 C 0.29422 0.79566 0.16164 0.0
C1772 C 0.30565 0.80723 0.20291 0.0
C1773 C 0.34528 0.79254 0.22208 0.0
C1774 C 0.33333 0.79864 0.20976 0.0
C1775 C 0.29596 0.80757 0.17386 0.0
C1776 C 0.30918 0.80596 0.18617 0.0
H1777 H 0.37164 0.76087 0.22766 0.0
H1778 H 0.35431 0.77282 0.20682 0.0
H1779 H 0.31415 0.80376 0.22736 0.0
H1780 H 0.26279 0.83098 0.16465 0.0
H1781 H 0.28562 0.82972 0.18396 0.0
C1782 C 0.45026 0.01961 0.40636 0.0
C1783 C 0.43539 0.01344 0.40043 0.0
C1784 C 0.4505 0.0317 0.41833 0.0
C1785 C 0.42574 0.05141 0.45056 0.0
H1786 H 0.46039 0.08352 0.44774 0.0
C1787 C 0.4467 0.0905 0.50559 0.0
C1788 C 0.45439 0.10552 0.50258 0.0
C1789 C 0.44131 0.08079 0.49259 0.0
C1790 C 0.45039 0.07492 0.44866 0.0
H1791 H 0.40904 0.01507 0.4026 0.0
H1792 H 0.40946 0.03657 0.4234 0.0
H1793 H 0.45684 0.06402 0.4259 0.0
H1794 H 0.46114 0.12289 0.48381 0.0
H1795 H 0.45098 0.10647 0.46122 0.0
H1796 H 0.41911 0.06264 0.47325 0.0
C1797 C 0.42095 0.03184 0.41887 0.0
C1798 C 0.44855 0.06348 0.4362 0.0
C1799 C 0.4207 0.01958 0.4069 0.0
C1800 C 0.45546 0.11123 0.48646 0.0
C1801 C 0.44976 0.10173 0.47351 0.0
C1802 C 0.42747 0.06302 0.46302 0.0
C1803 C 0.43588 0.03813 0.42463 0.0
C1804 C 0.4365 0.0513 0.43716 0.0
C1805 C 0.44324 0.08606 0.47632 0.0
C1806 C 0.44004 0.07475 0.46238 0.0
H1807 H 0.46182 0.01504 0.40184 0.0
H1808 H 0.46224 0.03588 0.42276 0.0
H1809 H 0.41633 0.04219 0.45173 0.0
H1810 H 0.44578 0.08577 0.51792 0.0
H1811 H 0.43649 0.06879 0.49531 0.0
C1812 C 0.13165 0.22081 0.73476 0.0
C1813 C 0.13221 0.21389 0.75046 0.0
C1814 C 0.14044 0.2139 0.7219 0.0
C1815 C 0.17686 0.18867 0.71452 0.0
H1816 H 0.16266 0.19229 0.66948 0.0
C1817 C 0.21921 0.17275 0.66006 0.0
C1818 C 0.22026 0.18526 0.64833 0.0
C1819 C 0.2069 0.17301 0.67195 0.0
C1820 C 0.16677 0.19116 0.682 0.0
H1821 H 0.14177 0.19376 0.76476 0.0
H1822 H 0.15697 0.18149 0.74216 0.0
H1823 H 0.14343 0.19803 0.69151 0.0
H1824 H 0.20881 0.20746 0.63948 0.0
H1825 H 0.18735 0.20781 0.66005 0.0
H1826 H 0.20031 0.18208 0.70494 0.0
C1827 C 0.14994 0.19246 0.73989 0.0
C1828 C 0.15578 0.19449 0.69463 0.0
C1829 C 0.14115 0.19943 0.75282 0.0
C1830 C 0.20839 0.19767 0.64837 0.0
C1831 C 0.19601 0.19781 0.66009 0.0
C1832 C 0.18782 0.18521 0.70188 0.0
C1833 C 0.14997 0.19983 0.72435 0.0
C1834 C 0.16082 0.19378 0.71105 0.0
C1835 C 0.19527 0.18564 0.67217 0.0
C1836 C 0.18302 0.18688 0.68549 0.0
H1837 H 0.1249 0.23196 0.7325 0.0
H1838 H 0.14032 0.22007 0.7102 0.0
H1839 H 0.18125 0.18817 0.72698 0.0
H1840 H 0.22817 0.16303 0.66036 0.0
H1841 H 0.20657 0.16343 0.68107 0.0
C1842 C 0.03133 0.8845 0.98586 0.0
C1843 C 0.03287 0.89018 0.00195 0.0
C1844 C 0.03718 0.89377 0.9728 0.0
C1845 C 0.03749 0.9205 0.94781 0.0
H1846 H 0.07311 0.95158 0.95042 0.0
C1847 C 0.04014 0.9756 0.90518 0.0
C1848 C 0.05529 0.98112 0.89929 0.0
C1849 C 0.03933 0.9635 0.91712 0.0
C1850 C 0.06326 0.94282 0.94938 0.0
H1851 H 0.04242 0.90963 0.01711 0.0
H1852 H 0.052 0.92622 0.99431 0.0
H1853 H 0.06951 0.93142 0.97209 0.0
H1854 H 0.08153 0.97822 0.90141 0.0
H1855 H 0.0801 0.95669 0.92213 0.0
H1856 H 0.03142 0.93157 0.92502 0.0
C1857 C 0.04668 0.91441 0.9917 0.0
C1858 C 0.06106 0.93137 0.96192 0.0
C1859 C 0.04112 0.90494 0.00481 0.0
C1860 C 0.06966 0.97423 0.9057 0.0
C1861 C 0.06884 0.96196 0.91762 0.0
C1862 C 0.0398 0.93177 0.93525 0.0
C1863 C 0.04435 0.90917 0.97548 0.0
C1864 C 0.04794 0.92026 0.96146 0.0
C1865 C 0.05364 0.95639 0.92341 0.0
C1866 C 0.05244 0.94335 0.93605 0.0
H1867 H 0.02521 0.87305 0.98333 0.0
H1868 H 0.03562 0.88905 0.96055 0.0
H1869 H 0.0271 0.91238 0.94702 0.0
H1870 H 0.02881 0.98074 0.90069 0.0
H1871 H 0.02741 0.95987 0.92156 0.0
C1872 C 0.25241 0.35916 0.22416 0.0
C1873 C 0.23682 0.35839 0.21704 0.0
C1874 C 0.26556 0.35083 0.21723 0.0
C1875 C 0.27449 0.31541 0.19107 0.0
H1876 H 0.31884 0.33162 0.19477 0.0
C1877 C 0.33082 0.27627 0.17346 0.0
C1878 C 0.3427 0.27544 0.18584 0.0
C1879 C 0.31834 0.28794 0.17418 0.0
C1880 C 0.30652 0.32695 0.19361 0.0
H1881 H 0.22295 0.34876 0.19665 0.0
H1882 H 0.24604 0.33433 0.18437 0.0
H1883 H 0.29598 0.3496 0.20124 0.0
H1884 H 0.35117 0.28665 0.2083 0.0
H1885 H 0.32958 0.30703 0.20945 0.0
H1886 H 0.28512 0.29266 0.18371 0.0
C1887 C 0.24801 0.3412 0.19549 0.0
C1888 C 0.29342 0.33722 0.19737 0.0
C1889 C 0.23481 0.34955 0.20247 0.0
C1890 C 0.34219 0.28691 0.19859 0.0
C1891 C 0.32987 0.29868 0.1992 0.0
C1892 C 0.28761 0.30517 0.18719 0.0
C1893 C 0.2635 0.34153 0.20294 0.0
C1894 C 0.27725 0.33144 0.19662 0.0
C1895 C 0.31766 0.29916 0.18716 0.0
C1896 C 0.30377 0.3107 0.18888 0.0
H1897 H 0.2544 0.36584 0.23541 0.0
H1898 H 0.27721 0.35118 0.22348 0.0
H1899 H 0.26224 0.31047 0.1905 0.0
H1900 H 0.33087 0.26758 0.16348 0.0
H1901 H 0.30912 0.2881 0.16469 0.0
C1902 C 0.74115 0.14817 0.79642 0.0
C1903 C 0.74443 0.13349 0.78819 0.0
C1904 C 0.75397 0.15785 0.80226 0.0
C1905 C 0.78309 0.17569 0.81677 0.0
H1906 H 0.82013 0.17672 0.78731 0.0
C1907 C 0.83718 0.22145 0.82425 0.0
C1908 C 0.8431 0.22834 0.80966 0.0
C1909 C 0.82598 0.20849 0.82382 0.0
C1910 C 0.80986 0.17668 0.79564 0.0
H1911 H 0.7635 0.11667 0.78093 0.0
H1912 H 0.78578 0.13305 0.79182 0.0
H1913 H 0.79893 0.15659 0.78329 0.0
H1914 H 0.8416 0.2272 0.7832 0.0
H1915 H 0.82199 0.20513 0.78248 0.0
H1916 H 0.79371 0.19659 0.82842 0.0
C1917 C 0.77342 0.13754 0.79316 0.0
C1918 C 0.79777 0.16488 0.79352 0.0
C1919 C 0.76064 0.12805 0.78703 0.0
C1920 C 0.83747 0.2221 0.7947 0.0
C1921 C 0.82626 0.20931 0.79427 0.0
C1922 C 0.79517 0.18766 0.81879 0.0
C1923 C 0.77033 0.15291 0.80023 0.0
C1924 C 0.78404 0.16437 0.80385 0.0
C1925 C 0.82045 0.20222 0.80879 0.0
C1926 C 0.8085 0.18852 0.80798 0.0
H1927 H 0.72876 0.15269 0.79744 0.0
H1928 H 0.75103 0.16963 0.80749 0.0
H1929 H 0.77286 0.17554 0.82515 0.0
H1930 H 0.84129 0.22597 0.83598 0.0
H1931 H 0.82181 0.20327 0.83523 0.0
C1932 C 0.02589 0.58464 0.06613 0.0
C1933 C 0.02646 0.59779 0.05511 0.0
C1934 C 0.03769 0.57226 0.06546 0.0
C1935 C 0.06713 0.55447 0.03606 0.0
H1936 H 0.08312 0.53041 0.07359 0.0
C1937 C 0.11779 0.50733 0.02881 0.0
C1938 C 0.11451 0.49176 0.03525 0.0
C1939 C 0.10836 0.52075 0.03335 0.0
C1940 C 0.07869 0.53702 0.06302 0.0
H1941 H 0.04043 0.60888 0.03553 0.0
H1942 H 0.06123 0.58776 0.03476 0.0
H1943 H 0.06425 0.55332 0.0776 0.0
H1944 H 0.0994 0.4783 0.05235 0.0
H1945 H 0.08285 0.50192 0.06034 0.0
H1946 H 0.08154 0.53833 0.0215 0.0
C1947 C 0.05139 0.58658 0.04352 0.0
C1948 C 0.06786 0.5501 0.06529 0.0
C1949 C 0.03951 0.59877 0.04403 0.0
C1950 C 0.10221 0.49013 0.04715 0.0
C1951 C 0.09276 0.50364 0.05175 0.0
C1952 C 0.07801 0.54158 0.03383 0.0
C1953 C 0.05038 0.5729 0.05387 0.0
C1954 C 0.062 0.55903 0.05181 0.0
C1955 C 0.09542 0.51897 0.04448 0.0
C1956 C 0.08397 0.53275 0.04726 0.0
H1957 H 0.01594 0.58355 0.07479 0.0
H1958 H 0.03646 0.56188 0.07357 0.0
H1959 H 0.06253 0.56069 0.02533 0.0
H1960 H 0.12727 0.50907 0.01974 0.0
H1961 H 0.11087 0.53248 0.02777 0.0
C1962 C 0.65358 0.77795 0.29593 0.0
C1963 C 0.65485 0.76622 0.30836 0.0
C1964 C 0.66528 0.7902 0.29432 0.0
C1965 C 0.70052 0.81065 0.31454 0.0
H1966 H 0.71261 0.8195 0.26961 0.0
C1967 C 0.75882 0.84617 0.29321 0.0
C1968 C 0.7567 0.85677 0.27985 0.0
C1969 C 0.74581 0.83652 0.29876 0.0
C1970 C 0.70926 0.81733 0.28222 0.0
H1971 H 0.66904 0.75851 0.32933 0.0
H1972 H 0.68991 0.77972 0.32623 0.0
H1973 H 0.69119 0.79992 0.27537 0.0
H1974 H 0.73901 0.8664 0.26262 0.0
H1975 H 0.71646 0.84966 0.2723 0.0
H1976 H 0.71916 0.82789 0.32124 0.0
C1977 C 0.67967 0.77959 0.31787 0.0
C1978 C 0.69691 0.80612 0.28555 0.0
C1979 C 0.66775 0.76741 0.31962 0.0
C1980 C 0.74112 0.85824 0.27282 0.0
C1981 C 0.7282 0.8486 0.27832 0.0
C1982 C 0.71306 0.82183 0.31118 0.0
C1983 C 0.67878 0.79089 0.30492 0.0
C1984 C 0.69221 0.80274 0.30173 0.0
C1985 C 0.73052 0.83727 0.29099 0.0
C1986 C 0.7174 0.8254 0.29496 0.0
H1987 H 0.64362 0.77753 0.28722 0.0
H1988 H 0.66389 0.79898 0.28452 0.0
H1989 H 0.69718 0.80839 0.32714 0.0
H1990 H 0.77068 0.84479 0.2989 0.0
H1991 H 0.74795 0.82787 0.30854 0.0
C1992 C 0.88936 0.99209 0.01367 0.0
C1993 C 0.88484 0.0051 0.02385 0.0
C1994 C 0.89876 0.97923 0.01967 0.0
C1995 C 0.92593 0.96769 0.05448 0.0
H1996 H 0.92325 0.92573 0.03289 0.0
C1997 C 0.97714 0.91954 0.0607 0.0
C1998 C 0.97372 0.90315 0.05717 0.0
C1999 C 0.96491 0.9314 0.05925 0.0
C2000 C 0.92406 0.93717 0.03944 0.0
H2001 H 0.88621 0.01465 0.04846 0.0
H2002 H 0.90188 0.99168 0.0593 0.0
H2003 H 0.90384 0.9467 0.02614 0.0
H2004 H 0.95483 0.88598 0.05051 0.0
H2005 H 0.93315 0.90627 0.04935 0.0
H2006 H 0.94554 0.95776 0.06853 0.0
C2007 C 0.89869 0.99165 0.04648 0.0
C2008 C 0.91303 0.94946 0.03522 0.0
C2009 C 0.88957 0.00478 0.04033 0.0
C2010 C 0.95773 0.89862 0.05316 0.0
C2011 C 0.94537 0.91035 0.05228 0.0
C2012 C 0.93669 0.9552 0.05906 0.0
C2013 C 0.90358 0.97874 0.03618 0.0
C2014 C 0.91411 0.96509 0.04226 0.0
C2015 C 0.94887 0.92705 0.05469 0.0
C2016 C 0.93623 0.93986 0.05129 0.0
H2017 H 0.88611 0.99209 0.00084 0.0
H2018 H 0.9026 0.9699 0.01113 0.0
H2019 H 0.9273 0.97952 0.0602 0.0
H2020 H 0.98947 0.92331 0.06366 0.0
H2021 H 0.96834 0.94404 0.06099 0.0
C2022 C 0.24552 0.64332 0.70396 0.0
C2023 C 0.24401 0.63146 0.7163 0.0
C2024 C 0.23201 0.65274 0.6993 0.0
C2025 C 0.19438 0.66837 0.71733 0.0
H2026 H 0.18289 0.68161 0.67335 0.0
C2027 C 0.13869 0.70901 0.70653 0.0
C2028 C 0.1403 0.72181 0.69523 0.0
C2029 C 0.1503 0.69656 0.70724 0.0
C2030 C 0.18603 0.67814 0.68571 0.0
H2031 H 0.2269 0.61942 0.73259 0.0
H2032 H 0.20346 0.63575 0.72444 0.0
H2033 H 0.2053 0.66226 0.67764 0.0
H2034 H 0.15502 0.73126 0.67535 0.0
H2035 H 0.17565 0.70976 0.67692 0.0
H2036 H 0.1757 0.6845 0.72559 0.0
C2037 C 0.21511 0.63797 0.71856 0.0
C2038 C 0.19883 0.66703 0.68815 0.0
C2039 C 0.22854 0.62857 0.72317 0.0
C2040 C 0.15344 0.72154 0.68419 0.0
C2041 C 0.16523 0.70916 0.68505 0.0
C2042 C 0.18175 0.67953 0.71493 0.0
C2043 C 0.21679 0.65049 0.70695 0.0
C2044 C 0.20308 0.66199 0.704 0.0
C2045 C 0.16399 0.69672 0.69685 0.0
C2046 C 0.17733 0.68453 0.69911 0.0
H2047 H 0.25727 0.64582 0.69842 0.0
H2048 H 0.23367 0.66233 0.69035 0.0
H2049 H 0.1976 0.66503 0.72973 0.0
H2050 H 0.12856 0.70874 0.71505 0.0
H2051 H 0.14867 0.68695 0.71617 0.0
C2052 C 0.03427 0.39879 0.45194 0.0
C2053 C 0.0231 0.40017 0.439 0.0
C2054 C 0.04644 0.41049 0.4542 0.0
C2055 C 0.06794 0.44561 0.4349 0.0
H2056 H 0.0752 0.4576 0.48014 0.0
C2057 C 0.10368 0.50339 0.45694 0.0
C2058 C 0.11382 0.50125 0.47063 0.0
C2059 C 0.09385 0.49054 0.45133 0.0
C2060 C 0.07347 0.45428 0.46745 0.0
H2061 H 0.01633 0.41461 0.41787 0.0
H2062 H 0.03739 0.43539 0.42206 0.0
H2063 H 0.05567 0.43632 0.47363 0.0
H2064 H 0.12234 0.48367 0.48855 0.0
H2065 H 0.10531 0.46139 0.47878 0.0
H2066 H 0.0856 0.46407 0.42885 0.0
C2067 C 0.03688 0.42508 0.43033 0.0
C2068 C 0.06229 0.44201 0.4637 0.0
C2069 C 0.02478 0.41321 0.42795 0.0
C2070 C 0.11456 0.4858 0.47806 0.0
C2071 C 0.10474 0.47304 0.47252 0.0
C2072 C 0.0791 0.45805 0.43868 0.0
C2073 C 0.04763 0.42405 0.44372 0.0
C2074 C 0.05948 0.43737 0.4474 0.0
C2075 C 0.09396 0.47538 0.45938 0.0
C2076 C 0.08209 0.46237 0.45502 0.0
H2077 H 0.03348 0.38876 0.46053 0.0
H2078 H 0.05477 0.40901 0.46436 0.0
H2079 H 0.06615 0.4423 0.42223 0.0
H2080 H 0.10285 0.51515 0.45093 0.0
H2081 H 0.08563 0.49271 0.4412 0.0
C2082 C 0.46348 0.59736 0.95455 0.0
C2083 C 0.47582 0.59666 0.94266 0.0
C2084 C 0.45166 0.58514 0.95552 0.0
C2085 C 0.43371 0.54932 0.93397 0.0
H2086 H 0.42316 0.53626 0.97827 0.0
C2087 C 0.4002 0.48904 0.95257 0.0
C2088 C 0.38885 0.49033 0.96541 0.0
C2089 C 0.40943 0.50263 0.94777 0.0
C2090 C 0.4258 0.53988 0.96582 0.0
H2091 H 0.48508 0.58293 0.92201 0.0
H2092 H 0.46465 0.56122 0.924 0.0
H2093 H 0.44194 0.55868 0.97374 0.0
H2094 H 0.37751 0.50712 0.98249 0.0
H2095 H 0.39352 0.53069 0.9741 0.0
H2096 H 0.41777 0.52997 0.9262 0.0
C2097 C 0.46395 0.57139 0.93241 0.0
C2098 C 0.43655 0.5528 0.9632 0.0
C2099 C 0.4757 0.5838 0.9313 0.0
C2100 C 0.38626 0.50565 0.97268 0.0
C2101 C 0.39548 0.51916 0.96792 0.0
C2102 C 0.42299 0.53622 0.93662 0.0
C2103 C 0.45202 0.57173 0.9448 0.0
C2104 C 0.44055 0.55782 0.94726 0.0
C2105 C 0.40751 0.51769 0.95578 0.0
C2106 C 0.41883 0.53149 0.95259 0.0
H2107 H 0.46308 0.60726 0.96332 0.0
H2108 H 0.44239 0.58609 0.9649 0.0
H2109 H 0.43644 0.55291 0.92154 0.0
H2110 H 0.40245 0.4774 0.94671 0.0
H2111 H 0.41864 0.50115 0.93838 0.0
C2112 C 0.72424 0.75964 0.85906 0.0
C2113 C 0.7168 0.74418 0.85883 0.0
C2114 C 0.71879 0.77204 0.84872 0.0
C2115 C 0.68519 0.78656 0.82274 0.0
H2116 H 0.72032 0.80676 0.79823 0.0
C2117 C 0.67474 0.83142 0.76821 0.0
C2118 C 0.68617 0.8441 0.76634 0.0
C2119 C 0.67701 0.8194 0.78022 0.0
C2120 C 0.71034 0.80149 0.80512 0.0
H2121 H 0.69718 0.72991 0.84821 0.0
H2122 H 0.68757 0.75175 0.83012 0.0
H2123 H 0.72658 0.78582 0.81822 0.0
H2124 H 0.7083 0.85473 0.77627 0.0
H2125 H 0.71193 0.83429 0.79739 0.0
H2126 H 0.66895 0.80247 0.80969 0.0
C2127 C 0.69766 0.75418 0.83832 0.0
C2128 C 0.71395 0.78941 0.81656 0.0
C2129 C 0.70319 0.74168 0.84864 0.0
C2130 C 0.69941 0.84497 0.7772 0.0
C2131 C 0.70155 0.83315 0.78926 0.0
C2132 C 0.68155 0.79883 0.81134 0.0
C2133 C 0.70573 0.76932 0.83794 0.0
C2134 C 0.70147 0.78192 0.82561 0.0
C2135 C 0.69066 0.81995 0.79066 0.0
C2136 C 0.69413 0.80657 0.80252 0.0
H2137 H 0.73467 0.76205 0.86683 0.0
H2138 H 0.72507 0.78368 0.84888 0.0
H2139 H 0.67533 0.78096 0.82956 0.0
H2140 H 0.66441 0.83043 0.76 0.0
H2141 H 0.6684 0.80939 0.7809 0.0
C2142 C 0.49106 0.46765 0.1104 0.0
C2143 C 0.50692 0.46113 0.10969 0.0
C2144 C 0.47843 0.46076 0.10128 0.0
C2145 C 0.47155 0.43664 0.06403 0.0
H2146 H 0.42662 0.43777 0.07901 0.0
C2147 C 0.41695 0.42004 0.02199 0.0
C2148 C 0.40466 0.43204 0.02172 0.0
C2149 C 0.42912 0.42036 0.03402 0.0
C2150 C 0.43912 0.43734 0.07467 0.0
H2151 H 0.5218 0.44183 0.09934 0.0
H2152 H 0.49961 0.42963 0.0835 0.0
H2153 H 0.44867 0.44376 0.09812 0.0
H2154 H 0.39516 0.45337 0.03423 0.0
H2155 H 0.41619 0.45381 0.0552 0.0
H2156 H 0.46189 0.43053 0.04049 0.0
C2157 C 0.49703 0.44024 0.09096 0.0
C2158 C 0.45175 0.44081 0.08559 0.0
C2159 C 0.50972 0.44716 0.10012 0.0
C2160 C 0.40447 0.44398 0.03404 0.0
C2161 C 0.41646 0.44417 0.04615 0.0
C2162 C 0.45889 0.43305 0.05312 0.0
C2163 C 0.48129 0.44713 0.09122 0.0
C2164 C 0.4681 0.441 0.0803 0.0
C2165 C 0.42906 0.43252 0.04614 0.0
C2166 C 0.44252 0.43383 0.05822 0.0
H2167 H 0.48847 0.47841 0.11763 0.0
H2168 H 0.46655 0.46657 0.10162 0.0
H2169 H 0.48396 0.43682 0.05947 0.0
H2170 H 0.41745 0.4107 0.01264 0.0
H2171 H 0.43865 0.41119 0.03377 0.0
C2172 C 0.78255 0.2358 0.36079 0.0
C2173 C 0.78856 0.25154 0.35755 0.0
C2174 C 0.78758 0.22251 0.35141 0.0
C2175 C 0.81781 0.20724 0.32166 0.0
H2176 H 0.78086 0.18225 0.30578 0.0
C2177 C 0.82176 0.1601 0.26843 0.0
C2178 C 0.8112 0.14658 0.26911 0.0
C2179 C 0.82095 0.17232 0.28039 0.0
C2180 C 0.79139 0.18885 0.3103 0.0
H2181 H 0.8054 0.26549 0.3426 0.0
H2182 H 0.81419 0.24213 0.3261 0.0
H2183 H 0.77637 0.20444 0.32482 0.0
H2184 H 0.79243 0.13463 0.28346 0.0
H2185 H 0.79142 0.15549 0.30451 0.0
H2186 H 0.83283 0.19152 0.30703 0.0
C2187 C 0.80559 0.24015 0.33595 0.0
C2188 C 0.78879 0.20164 0.32121 0.0
C2189 C 0.80053 0.25351 0.34538 0.0
C2190 C 0.80054 0.14504 0.28245 0.0
C2191 C 0.79989 0.15707 0.29447 0.0
C2192 C 0.82045 0.19428 0.31077 0.0
C2193 C 0.79873 0.22462 0.33855 0.0
C2194 C 0.80194 0.21094 0.32708 0.0
C2195 C 0.80968 0.17114 0.29333 0.0
C2196 C 0.80725 0.18487 0.30502 0.0
H2197 H 0.77346 0.2338 0.3702 0.0
H2198 H 0.78233 0.21062 0.3539 0.0
H2199 H 0.82817 0.21422 0.326 0.0
H2200 H 0.8301 0.16162 0.25827 0.0
H2201 H 0.82863 0.183 0.27907 0.0
C2202 C 0.01024 0.53156 0.6121 0.0
C2203 C 0.99446 0.53805 0.61036 0.0
C2204 C 0.02342 0.5384 0.60376 0.0
C2205 C 0.03222 0.56155 0.56644 0.0
H2206 H 0.07648 0.55977 0.58322 0.0
C2207 C 0.08859 0.57391 0.52548 0.0
C2208 C 0.10029 0.56135 0.52618 0.0
C2209 C 0.07619 0.57487 0.53724 0.0
C2210 C 0.06418 0.56041 0.57839 0.0
H2211 H 0.98027 0.55738 0.59913 0.0
H2212 H 0.00341 0.56949 0.5846 0.0
H2213 H 0.05352 0.55513 0.60166 0.0
H2214 H 0.10858 0.54042 0.54016 0.0
H2215 H 0.08713 0.54219 0.56064 0.0
H2216 H 0.04295 0.56641 0.54308 0.0
C2217 C 0.00552 0.55893 0.59228 0.0
C2218 C 0.05102 0.55772 0.58893 0.0
C2219 C 0.99228 0.55206 0.60069 0.0
C2220 C 0.09972 0.55021 0.53922 0.0
C2221 C 0.0875 0.55129 0.55105 0.0
C2222 C 0.04538 0.56435 0.55592 0.0
C2223 C 0.02119 0.55195 0.59345 0.0
C2224 C 0.03491 0.5577 0.58297 0.0
C2225 C 0.07543 0.56344 0.55004 0.0
C2226 C 0.06151 0.56328 0.56168 0.0
H2227 H 0.01237 0.52078 0.61948 0.0
H2228 H 0.03523 0.53254 0.60479 0.0
H2229 H 0.02 0.56148 0.56139 0.0
H2230 H 0.08869 0.58267 0.51557 0.0
H2231 H 0.06709 0.5844 0.53621 0.0
C2232 C 0.72452 0.23445 0.6313 0.0
C2233 C 0.7168 0.2497 0.63286 0.0
C2234 C 0.7199 0.22135 0.64116 0.0
C2235 C 0.68825 0.20509 0.66881 0.0
H2236 H 0.72528 0.18426 0.68973 0.0
C2237 C 0.68219 0.16023 0.72371 0.0
C2238 C 0.69359 0.14743 0.72473 0.0
C2239 C 0.68357 0.17211 0.71147 0.0
C2240 C 0.71477 0.18969 0.68382 0.0
H2241 H 0.69745 0.26284 0.6453 0.0
H2242 H 0.68934 0.23981 0.66258 0.0
H2243 H 0.72988 0.20574 0.66986 0.0
H2244 H 0.71474 0.13649 0.71313 0.0
H2245 H 0.71683 0.15678 0.6916 0.0
H2246 H 0.67314 0.1889 0.68282 0.0
C2247 C 0.69899 0.23807 0.65369 0.0
C2248 C 0.71743 0.20207 0.67244 0.0
C2249 C 0.70366 0.25126 0.64382 0.0
C2250 C 0.7059 0.14634 0.71284 0.0
C2251 C 0.70716 0.15805 0.70054 0.0
C2252 C 0.68558 0.19254 0.68017 0.0
C2253 C 0.70742 0.22314 0.6528 0.0
C2254 C 0.70423 0.20987 0.66475 0.0
C2255 C 0.69629 0.17134 0.69992 0.0
C2256 C 0.69884 0.18465 0.68776 0.0
H2257 H 0.73458 0.23277 0.62288 0.0
H2258 H 0.72641 0.20989 0.63997 0.0
H2259 H 0.67785 0.21087 0.66304 0.0
H2260 H 0.67257 0.16141 0.73272 0.0
H2261 H 0.67504 0.18221 0.71144 0.0
C2262 C 0.1023 0.44933 0.96386 0.0
C2263 C 0.10058 0.43726 0.97593 0.0
C2264 C 0.09061 0.45106 0.95159 0.0
C2265 C 0.05468 0.43134 0.93179 0.0
H2266 H 0.04393 0.47626 0.92136 0.0
C2267 C 0.9967 0.45257 0.89592 0.0
C2268 C -0.00106 0.46548 0.8848 0.0
C2269 C 0.00967 0.44724 0.90574 0.0
C2270 C 0.04691 0.46364 0.92397 0.0
H2271 H 0.08554 0.41712 0.98423 0.0
H2272 H 0.06479 0.42044 0.96301 0.0
H2273 H 0.06536 0.47055 0.94097 0.0
H2274 H 0.01681 0.48215 0.87453 0.0
H2275 H 0.0393 0.47284 0.89154 0.0
H2276 H 0.0357 0.4246 0.91497 0.0
C2277 C 0.07535 0.4284 0.96288 0.0
C2278 C 0.05926 0.46034 0.9352 0.0
C2279 C 0.08721 0.42653 0.97508 0.0
C2280 C 0.0146 0.4723 0.88308 0.0
C2281 C 0.02749 0.46702 0.89288 0.0
C2282 C 0.04215 0.43468 0.92059 0.0
C2283 C 0.07673 0.44094 0.95119 0.0
C2284 C 0.06344 0.44416 0.93918 0.0
C2285 C 0.02507 0.45476 0.90464 0.0
C2286 C 0.03825 0.45088 0.91648 0.0
H2287 H 0.11258 0.45764 0.96402 0.0
H2288 H 0.09235 0.46055 0.94254 0.0
H2289 H 0.05763 0.41874 0.93449 0.0
H2290 H 0.98479 0.44705 0.89752 0.0
H2291 H 0.00744 0.43778 0.91472 0.0
C2292 C 0.82688 0.82868 0.22338 0.0
C2293 C 0.81476 0.84085 0.22308 0.0
C2294 C 0.82686 0.81615 0.21171 0.0
C2295 C 0.81039 0.80477 0.17116 0.0
H2296 H 0.81081 0.76044 0.18778 0.0
C2297 C 0.77961 0.75192 0.13735 0.0
C2298 C 0.78621 0.73612 0.13828 0.0
C2299 C 0.78659 0.76477 0.14609 0.0
C2300 C 0.81102 0.77271 0.18284 0.0
H2301 H 0.79358 0.8498 0.20992 0.0
H2302 H 0.79366 0.82817 0.18961 0.0
H2303 H 0.81707 0.78311 0.20608 0.0
H2304 H 0.80571 0.72152 0.14868 0.0
H2305 H 0.81801 0.74408 0.16394 0.0
H2306 H 0.80394 0.79448 0.14803 0.0
C2307 C 0.80316 0.82824 0.19881 0.0
C2308 C 0.8146 0.7857 0.19334 0.0
C2309 C 0.80305 0.84058 0.21054 0.0
C2310 C 0.80031 0.73356 0.14774 0.0
C2311 C 0.8073 0.74646 0.15655 0.0
C2312 C 0.8069 0.7918 0.16065 0.0
C2313 C 0.8149 0.81575 0.19939 0.0
C2314 C 0.81381 0.8019 0.18773 0.0
C2315 C 0.80037 0.76218 0.156 0.0
C2316 C 0.80665 0.77565 0.16648 0.0
H2317 H 0.83605 0.82854 0.23291 0.0
H2318 H 0.8361 0.80671 0.2124 0.0
H2319 H 0.80997 0.81711 0.16642 0.0
H2320 H 0.76875 0.75433 0.13019 0.0
H2321 H 0.78075 0.77662 0.14556 0.0
C2322 C 0.41361 0.54649 0.47542 0.0
C2323 C 0.4076 0.56158 0.48093 0.0
C2324 C 0.42511 0.54575 0.4629 0.0
C2325 C 0.45629 0.56963 0.44079 0.0
H2326 H 0.45255 0.53347 0.4105 0.0
C2327 C 0.51026 0.54599 0.40182 0.0
C2328 C 0.50688 0.53761 0.38725 0.0
C2329 C 0.49751 0.55214 0.41141 0.0
C2330 C 0.45371 0.54387 0.41857 0.0
H2331 H 0.40916 0.58782 0.47766 0.0
H2332 H 0.42921 0.5865 0.45546 0.0
H2333 H 0.4313 0.53797 0.43049 0.0
H2334 H 0.48774 0.53041 0.37049 0.0
H2335 H 0.46559 0.54181 0.38671 0.0
H2336 H 0.47869 0.57562 0.42862 0.0
C2337 C 0.42506 0.57524 0.46102 0.0
C2338 C 0.44159 0.54628 0.43028 0.0
C2339 C 0.41354 0.57599 0.47369 0.0
C2340 C 0.49067 0.53661 0.3818 0.0
C2341 C 0.47797 0.54304 0.39119 0.0
C2342 C 0.46842 0.5673 0.42892 0.0
C2343 C 0.43087 0.56007 0.4554 0.0
C2344 C 0.44293 0.55889 0.44183 0.0
C2345 C 0.48114 0.55026 0.40647 0.0
C2346 C 0.46745 0.55416 0.41787 0.0
H2347 H 0.40949 0.53514 0.48082 0.0
H2348 H 0.42961 0.53387 0.45921 0.0
H2349 H 0.45771 0.57947 0.44951 0.0
H2350 H 0.52266 0.54689 0.40634 0.0
H2351 H 0.50048 0.5575 0.42312 0.0
C2352 C 0.78785 0.6903 0.85073 0.0
C2353 C 0.77182 0.68571 0.84688 0.0
C2354 C 0.7999 0.69055 0.83865 0.0
C2355 C 0.80765 0.68107 0.79414 0.0
H2356 H 0.83865 0.71642 0.79911 0.0
C2357 C 0.851 0.70017 0.74128 0.0
C2358 C 0.85377 0.71701 0.73957 0.0
C2359 C 0.84325 0.69402 0.75529 0.0
C2360 C 0.82998 0.7066 0.79737 0.0
H2361 H 0.75578 0.67737 0.82764 0.0
H2362 H 0.77638 0.67888 0.80627 0.0
H2363 H 0.82057 0.70985 0.82133 0.0
H2364 H 0.85053 0.74061 0.75115 0.0
H2365 H 0.83654 0.73018 0.7749 0.0
H2366 H 0.81619 0.67892 0.76954 0.0
C2367 C 0.78004 0.68161 0.81867 0.0
C2368 C 0.81975 0.70253 0.81037 0.0
C2369 C 0.76813 0.68083 0.8309 0.0
C2370 C 0.84878 0.72753 0.75215 0.0
C2371 C 0.84083 0.72148 0.76592 0.0
C2372 C 0.81763 0.68544 0.78095 0.0
C2373 C 0.79606 0.68687 0.82228 0.0
C2374 C 0.80818 0.68989 0.80891 0.0
C2375 C 0.8379 0.70465 0.76774 0.0
C2376 C 0.82867 0.69855 0.78226 0.0
H2377 H 0.791 0.69394 0.86305 0.0
H2378 H 0.81215 0.69406 0.84217 0.0
H2379 H 0.79926 0.67098 0.79256 0.0
H2380 H 0.85473 0.69176 0.73178 0.0
H2381 H 0.84144 0.68097 0.7563 0.0
C2382 C 0.55304 0.53338 0.09636 0.0
C2383 C 0.56437 0.5205 0.09604 0.0
C2384 C 0.5536 0.54572 0.08464 0.0
C2385 C 0.56494 0.55291 0.04248 0.0
H2386 H 0.55682 0.59822 0.0536 0.0
C2387 C 0.55111 0.60094 0.99263 0.0
C2388 C 0.53761 0.61098 0.99605 0.0
C2389 C 0.55825 0.5915 0.005 0.0
C2390 C 0.55906 0.58562 0.05027 0.0
H2391 H 0.58541 0.51065 0.08333 0.0
H2392 H 0.58617 0.5322 0.06251 0.0
H2393 H 0.56223 0.57845 0.07523 0.0
H2394 H 0.5215 0.61955 0.01526 0.0
H2395 H 0.53368 0.60305 0.03662 0.0
H2396 H 0.56091 0.55983 0.01761 0.0
C2397 C 0.57694 0.53271 0.07197 0.0
C2398 C 0.56222 0.57432 0.06266 0.0
C2399 C 0.57654 0.52043 0.08391 0.0
C2400 C 0.53188 0.61194 0.01219 0.0
C2401 C 0.53897 0.60254 0.0245 0.0
C2402 C 0.56164 0.56419 0.03007 0.0
C2403 C 0.56538 0.54541 0.07217 0.0
C2404 C 0.56473 0.55777 0.05894 0.0
C2405 C 0.55205 0.59195 0.02103 0.0
C2406 C 0.55817 0.58059 0.03386 0.0
H2407 H 0.54355 0.53383 0.10558 0.0
H2408 H 0.54441 0.55523 0.085 0.0
H2409 H 0.56672 0.54021 0.03926 0.0
H2410 H 0.55584 0.59997 0.98032 0.0
H2411 H 0.56843 0.58364 0.00193 0.0
C2412 C 0.63344 0.2742 0.25953 0.0
C2413 C 0.63531 0.28062 0.24372 0.0
C2414 C 0.64346 0.27944 0.27226 0.0
C2415 C 0.67245 0.31097 0.28616 0.0
H2416 H 0.69208 0.27462 0.30929 0.0
C2417 C 0.72788 0.31755 0.33043 0.0
C2418 C 0.72854 0.30679 0.3438 0.0
C2419 C 0.71545 0.31608 0.31874 0.0
C2420 C 0.68653 0.28497 0.30321 0.0
H2421 H 0.64849 0.29839 0.22913 0.0
H2422 H 0.66607 0.30758 0.25151 0.0
H2423 H 0.67192 0.2694 0.28826 0.0
H2424 H 0.71609 0.28687 0.35603 0.0
H2425 H 0.69424 0.28471 0.33614 0.0
H2426 H 0.68712 0.32656 0.30127 0.0
C2427 C 0.65681 0.29847 0.25398 0.0
C2428 C 0.67498 0.28195 0.29109 0.0
C2429 C 0.64677 0.29317 0.24117 0.0
C2430 C 0.71608 0.29517 0.34572 0.0
C2431 C 0.70359 0.29386 0.33423 0.0
C2432 C 0.68397 0.31403 0.29846 0.0
C2433 C 0.65559 0.29126 0.26952 0.0
C2434 C 0.66774 0.29488 0.28248 0.0
C2435 C 0.70336 0.30394 0.32032 0.0
C2436 C 0.69109 0.30104 0.3072 0.0
H2437 H 0.62463 0.26463 0.26197 0.0
H2438 H 0.64205 0.27388 0.28419 0.0
H2439 H 0.66705 0.32118 0.2797 0.0
H2440 H 0.73734 0.32662 0.32863 0.0
H2441 H 0.7157 0.32401 0.30816 0.0
C2442 C 0.9535 0.47182 0.58481 0.0
C2443 C 0.93867 0.47803 0.5908 0.0
C2444 C 0.95367 0.45971 0.57287 0.0
C2445 C 0.92888 0.44039 0.54056 0.0
H2446 H 0.96319 0.4079 0.54326 0.0
C2447 C 0.95058 0.40227 0.48519 0.0
C2448 C 0.95809 0.38713 0.48804 0.0
C2449 C 0.9449 0.41169 0.49828 0.0
C2450 C 0.95328 0.41661 0.54237 0.0
H2451 H 0.9123 0.47639 0.5888 0.0
H2452 H 0.9126 0.45489 0.56801 0.0
H2453 H 0.95968 0.42722 0.56529 0.0
H2454 H 0.96417 0.36924 0.50655 0.0
H2455 H 0.95356 0.3852 0.52926 0.0
H2456 H 0.92236 0.42953 0.51766 0.0
C2457 C 0.92412 0.4596 0.57249 0.0
C2458 C 0.95146 0.42793 0.55495 0.0
C2459 C 0.92394 0.47185 0.58445 0.0
C2460 C 0.95864 0.38099 0.50403 0.0
C2461 C 0.95267 0.39023 0.51706 0.0
C2462 C 0.93061 0.42892 0.52797 0.0
C2463 C 0.93901 0.45331 0.56664 0.0
C2464 C 0.93954 0.44023 0.55403 0.0
C2465 C 0.94639 0.40602 0.51446 0.0
C2466 C 0.94307 0.41708 0.52856 0.0
H2467 H 0.96509 0.47639 0.58926 0.0
H2468 H 0.96538 0.45549 0.56838 0.0
H2469 H 0.91957 0.44972 0.53944 0.0
H2470 H 0.95004 0.40732 0.47297 0.0
H2471 H 0.94026 0.4238 0.49574 0.0
C2472 C 0.86159 0.28272 0.73817 0.0
C2473 C 0.85815 0.28862 0.75391 0.0
C2474 C 0.85227 0.2877 0.72483 0.0
C2475 C 0.82203 0.31735 0.70937 0.0
H2476 H 0.80722 0.28006 0.68426 0.0
C2477 C 0.7696 0.31988 0.66106 0.0
C2478 C 0.77101 0.3094 0.64753 0.0
C2479 C 0.78124 0.31942 0.67361 0.0
C2480 C 0.81143 0.29069 0.69091 0.0
H2481 H 0.84294 0.30525 0.76782 0.0
H2482 H 0.82649 0.31391 0.74436 0.0
H2483 H 0.82601 0.27599 0.70673 0.0
H2484 H 0.78632 0.29119 0.63592 0.0
H2485 H 0.80678 0.29078 0.65737 0.0
H2486 H 0.80731 0.33204 0.6934 0.0
C2487 C 0.83647 0.30546 0.74241 0.0
C2488 C 0.8222 0.28833 0.70385 0.0
C2489 C 0.84587 0.30047 0.75584 0.0
C2490 C 0.78474 0.29921 0.64632 0.0
C2491 C 0.79643 0.29891 0.65869 0.0
C2492 C 0.81126 0.31975 0.69626 0.0
C2493 C 0.83923 0.29865 0.72689 0.0
C2494 C 0.82774 0.30161 0.71316 0.0
C2495 C 0.79457 0.30858 0.67275 0.0
C2496 C 0.80594 0.30642 0.68679 0.0
H2497 H 0.87111 0.27374 0.73623 0.0
H2498 H 0.85491 0.28251 0.71295 0.0
H2499 H 0.8261 0.32781 0.71637 0.0
H2500 H 0.75912 0.32785 0.66231 0.0
H2501 H 0.7794 0.327 0.68428 0.0
C2502 C 0.95273 0.53592 0.89718 0.0
C2503 C 0.94106 0.52334 0.89741 0.0
C2504 C 0.9524 0.54828 0.9089 0.0
C2505 C 0.94036 0.55561 0.95098 0.0
H2506 H 0.95055 0.60064 0.94047 0.0
C2507 C 0.95318 0.60291 0.00169 0.0
C2508 C 0.96706 0.61265 -0.00097 0.0
C2509 C 0.94647 0.59372 0.98892 0.0
C2510 C 0.94774 0.58811 0.94363 0.0
H2511 H 0.91959 0.51412 0.90991 0.0
H2512 H 0.91917 0.5357 0.93062 0.0
H2513 H 0.94526 0.58121 0.91852 0.0
H2514 H 0.98434 0.62093 0.98072 0.0
H2515 H 0.97289 0.60484 0.95866 0.0
H2516 H 0.94361 0.56224 0.97603 0.0
C2517 C 0.92855 0.53594 0.92129 0.0
C2518 C 0.94466 0.57701 0.93105 0.0
C2519 C 0.92875 0.52365 0.9094 0.0
C2520 C 0.97365 0.61356 0.98321 0.0
C2521 C 0.96698 0.60439 0.97049 0.0
C2522 C 0.94356 0.56669 0.96357 0.0
C2523 C 0.94048 0.54829 0.92125 0.0
C2524 C 0.94135 0.56055 0.93457 0.0
C2525 C 0.95349 0.5941 0.97323 0.0
C2526 C 0.94772 0.58299 0.96004 0.0
H2527 H 0.96234 0.53608 0.88808 0.0
H2528 H 0.96187 0.55751 0.90865 0.0
H2529 H 0.93798 0.54297 0.95407 0.0
H2530 H 0.94778 0.602 0.01373 0.0
H2531 H 0.93594 0.58611 0.99141 0.0
C2532 C 0.6404 0.70731 0.24007 0.0
C2533 C 0.6422 0.70203 0.25629 0.0
C2534 C 0.64942 0.70011 0.22754 0.0
C2535 C 0.68803 0.67834 0.22074 0.0
H2536 H 0.67165 0.67641 0.17634 0.0
C2537 C 0.72969 0.66446 0.16499 0.0
C2538 C 0.72869 0.67668 0.15296 0.0
C2539 C 0.71797 0.66359 0.17745 0.0
C2540 C 0.67637 0.67678 0.1887 0.0
H2541 H 0.65436 0.68451 0.27199 0.0
H2542 H 0.67006 0.67175 0.24999 0.0
H2543 H 0.65276 0.68152 0.19881 0.0
H2544 H 0.71428 0.69707 0.14412 0.0
H2545 H 0.6938 0.69538 0.1656 0.0
H2546 H 0.71172 0.67395 0.21048 0.0
C2547 C 0.6618 0.68165 0.24703 0.0
C2548 C 0.66557 0.67977 0.20157 0.0
C2549 C 0.65274 0.68889 0.25962 0.0
C2550 C 0.71543 0.68756 0.15325 0.0
C2551 C 0.70363 0.68652 0.16549 0.0
C2552 C 0.69881 0.67519 0.20786 0.0
C2553 C 0.66046 0.68739 0.23087 0.0
C2554 C 0.67136 0.68121 0.21768 0.0
C2555 C 0.7049 0.67472 0.17786 0.0
C2556 C 0.69316 0.67496 0.19166 0.0
H2557 H 0.6324 0.7174 0.23706 0.0
H2558 H 0.64824 0.70506 0.21533 0.0
H2559 H 0.69296 0.67949 0.23296 0.0
H2560 H 0.7398 0.65593 0.16509 0.0
H2561 H 0.71921 0.65436 0.18684 0.0
C2562 C 0.54435 0.46209 0.40087 0.0
C2563 C 0.55752 0.4731 0.40074 0.0
C2564 C 0.54348 0.44971 0.41256 0.0
C2565 C 0.55613 0.44016 0.45411 0.0
H2566 H 0.54051 0.3968 0.44326 0.0
C2567 C 0.54125 0.39271 0.50431 0.0
C2568 C 0.52638 0.38439 0.50221 0.0
C2569 C 0.54803 0.40176 0.49146 0.0
C2570 C 0.54482 0.40887 0.44652 0.0
H2571 H 0.58031 0.47951 0.41263 0.0
H2572 H 0.57866 0.4579 0.43326 0.0
H2573 H 0.54691 0.41606 0.42145 0.0
H2574 H 0.50726 0.37861 0.48481 0.0
H2575 H 0.51885 0.39448 0.46263 0.0
H2576 H 0.55337 0.43327 0.47917 0.0
C2577 C 0.56904 0.45891 0.42424 0.0
C2578 C 0.54852 0.41988 0.43402 0.0
C2579 C 0.57001 0.47121 0.41239 0.0
C2580 C 0.51875 0.38485 0.48685 0.0
C2581 C 0.52547 0.39389 0.47406 0.0
C2582 C 0.55231 0.42918 0.46664 0.0
C2583 C 0.55569 0.44811 0.42451 0.0
C2584 C 0.55385 0.43577 0.43768 0.0
C2585 C 0.54007 0.40268 0.47625 0.0
C2586 C 0.54622 0.41353 0.463 0.0
H2587 H 0.53454 0.46315 0.39206 0.0
H2588 H 0.53295 0.44171 0.41256 0.0
H2589 H 0.56007 0.45237 0.45732 0.0
H2590 H 0.54747 0.39256 0.51599 0.0
H2591 H 0.55939 0.40821 0.49351 0.0
C2592 C 0.72768 0.84534 0.68765 0.0
C2593 C 0.73279 0.85736 0.69879 0.0
C2594 C 0.73913 0.8352 0.68003 0.0
C2595 C 0.78336 0.82911 0.67193 0.0
H2596 H 0.77378 0.78349 0.6803 0.0
C2597 C 0.8214 0.76883 0.68869 0.0
C2598 C 0.83232 0.76691 0.67559 0.0
C2599 C 0.80823 0.77953 0.68749 0.0
C2600 C 0.77653 0.79616 0.67766 0.0
H2601 H 0.75393 0.869 0.7097 0.0
H2602 H 0.77385 0.85139 0.69636 0.0
H2603 H 0.7526 0.804 0.68459 0.0
H2604 H 0.83799 0.77468 0.65092 0.0
H2605 H 0.81503 0.79397 0.64903 0.0
H2606 H 0.80756 0.8212 0.6657 0.0
C2607 C 0.76103 0.84977 0.69351 0.0
C2608 C 0.76439 0.8079 0.68 0.0
C2609 C 0.7496 0.85979 0.70126 0.0
C2610 C 0.82973 0.7759 0.66118 0.0
C2611 C 0.81667 0.78693 0.66011 0.0
C2612 C 0.79547 0.81731 0.66939 0.0
C2613 C 0.75589 0.83702 0.68325 0.0
C2614 C 0.76783 0.82455 0.6777 0.0
C2615 C 0.8058 0.78879 0.67327 0.0
C2616 C 0.7923 0.80081 0.67279 0.0
H2617 H 0.71481 0.8432 0.68546 0.0
H2618 H 0.73483 0.82555 0.67207 0.0
H2619 H 0.7863 0.84185 0.66996 0.0
H2620 H 0.823 0.76202 0.69992 0.0
H2621 H 0.80015 0.78088 0.69789 0.0
C2622 C 0.24113 0.64411 0.2926 0.0
C2623 C 0.24223 0.63253 0.27996 0.0
C2624 C 0.25482 0.65337 0.29706 0.0
C2625 C 0.29227 0.66899 0.27847 0.0
H2626 H 0.30533 0.68053 0.3225 0.0
C2627 C 0.35047 0.70581 0.28911 0.0
C2628 C 0.34991 0.71852 0.3006 0.0
C2629 C 0.33801 0.69423 0.28837 0.0
C2630 C 0.30174 0.67754 0.31013 0.0
H2631 H 0.25878 0.62083 0.26288 0.0
H2632 H 0.28252 0.63685 0.27071 0.0
H2633 H 0.28214 0.66207 0.31825 0.0
H2634 H 0.33612 0.72869 0.32079 0.0
H2635 H 0.31402 0.70865 0.31921 0.0
H2636 H 0.31138 0.68462 0.27021 0.0
C2637 C 0.27106 0.639 0.27697 0.0
C2638 C 0.28849 0.66695 0.30772 0.0
C2639 C 0.25746 0.62977 0.27254 0.0
C2640 C 0.3369 0.71902 0.3118 0.0
C2641 C 0.32426 0.7075 0.31093 0.0
C2642 C 0.30535 0.6796 0.28086 0.0
C2643 C 0.26979 0.65123 0.28893 0.0
C2644 C 0.28373 0.66246 0.29184 0.0
C2645 C 0.32449 0.69519 0.29893 0.0
C2646 C 0.31039 0.68391 0.2967 0.0
H2647 H 0.22957 0.64651 0.29856 0.0
H2648 H 0.25347 0.66273 0.3063 0.0
H2649 H 0.28865 0.66611 0.26608 0.0
H2650 H 0.36045 0.70493 0.28047 0.0
H2651 H 0.33884 0.68466 0.27928 0.0
C2652 C 0.52847 0.09435 0.54436 0.0
C2653 C 0.51643 0.09419 0.55661 0.0
C2654 C 0.54103 0.08283 0.54438 0.0
C2655 C 0.54982 0.04122 0.55699 0.0
H2656 H 0.59439 0.0526 0.54573 0.0
C2657 C 0.59827 0.9914 0.54488 0.0
C2658 C 0.60802 0.99398 0.53098 0.0
C2659 C 0.58874 0.00408 0.55127 0.0
C2660 C 0.58199 0.04919 0.54881 0.0
H2661 H 0.50836 0.08197 0.57869 0.0
H2662 H 0.53028 0.06161 0.57855 0.0
H2663 H 0.57448 0.07417 0.55081 0.0
H2664 H 0.61586 0.01206 0.51327 0.0
H2665 H 0.59912 0.03394 0.52411 0.0
H2666 H 0.55703 0.01628 0.55422 0.0
C2667 C 0.52995 0.07074 0.56899 0.0
C2668 C 0.57061 0.06156 0.55178 0.0
C2669 C 0.51746 0.08244 0.5691 0.0
C2670 C 0.60851 0.00964 0.524 0.0
C2671 C 0.59896 0.02227 0.53032 0.0
C2672 C 0.56116 0.02883 0.55387 0.0
C2673 C 0.54178 0.07075 0.55654 0.0
C2674 C 0.55432 0.05771 0.55553 0.0
C2675 C 0.58872 0.0196 0.54386 0.0
C2676 C 0.5773 0.03266 0.54935 0.0
H2677 H 0.52807 0.10327 0.53459 0.0
H2678 H 0.54987 0.08304 0.53453 0.0
H2679 H 0.53731 0.03788 0.55972 0.0
H2680 H 0.59768 0.97948 0.55058 0.0
H2681 H 0.58119 0.00165 0.56185 0.0
C2682 C 0.24083 0.36738 0.78805 0.0
C2683 C 0.25647 0.36058 0.78958 0.0
C2684 C 0.22717 0.35907 0.79397 0.0
C2685 C 0.20066 0.33392 0.79345 0.0
H2686 H 0.20126 0.30125 0.82769 0.0
C2687 C 0.1568 0.27984 0.7921 0.0
C2688 C 0.1505 0.27349 0.80675 0.0
C2689 C 0.16883 0.29187 0.7923 0.0
C2690 C 0.20076 0.31048 0.81824 0.0
H2691 H 0.27029 0.34022 0.79927 0.0
H2692 H 0.24644 0.32526 0.80887 0.0
H2693 H 0.2237 0.32072 0.82553 0.0
H2694 H 0.15191 0.27491 0.83316 0.0
H2695 H 0.17279 0.2963 0.83352 0.0
H2696 H 0.17765 0.324 0.78635 0.0
C2697 C 0.24462 0.33723 0.80358 0.0
C2698 C 0.21375 0.32154 0.81686 0.0
C2699 C 0.25834 0.34577 0.79801 0.0
C2700 C 0.15653 0.27953 0.82166 0.0
C2701 C 0.16854 0.29173 0.82186 0.0
C2702 C 0.18764 0.32306 0.79496 0.0
C2703 C 0.22878 0.3435 0.8011 0.0
C2704 C 0.21408 0.33315 0.80417 0.0
C2705 C 0.17481 0.29807 0.80716 0.0
C2706 C 0.18774 0.31087 0.80704 0.0
H2707 H 0.2391 0.3789 0.78177 0.0
H2708 H 0.21527 0.36459 0.79233 0.0
H2709 H 0.20044 0.34246 0.78336 0.0
H2710 H 0.1526 0.27537 0.78038 0.0
H2711 H 0.17364 0.2961 0.78073 0.0
C2712 C 0.38715 0.4916 0.537 0.0
C2713 C 0.38959 0.50752 0.54287 0.0
C2714 C 0.39556 0.47845 0.54381 0.0
C2715 C 0.43387 0.46935 0.56509 0.0
H2716 H 0.4158 0.42558 0.56555 0.0
C2717 C 0.47371 0.41175 0.57611 0.0
C2718 C 0.47192 0.40004 0.56368 0.0
C2719 C 0.46249 0.42459 0.57759 0.0
C2720 C 0.42099 0.43775 0.56557 0.0
H2721 H 0.4022 0.52204 0.56106 0.0
H2722 H 0.41689 0.49895 0.57311 0.0
H2723 H 0.39774 0.44893 0.56149 0.0
H2724 H 0.45658 0.39219 0.54356 0.0
H2725 H 0.437 0.41436 0.54628 0.0
H2726 H 0.4572 0.45805 0.56874 0.0
C2727 C 0.40857 0.4967 0.56307 0.0
C2728 C 0.41068 0.45112 0.56321 0.0
C2729 C 0.40008 0.50991 0.55625 0.0
C2730 C 0.45836 0.40105 0.55322 0.0
C2731 C 0.44705 0.41369 0.55485 0.0
C2732 C 0.44418 0.45596 0.56758 0.0
C2733 C 0.40665 0.48085 0.5567 0.0
C2734 C 0.41706 0.46704 0.56232 0.0
C2735 C 0.44912 0.42575 0.56687 0.0
C2736 C 0.43792 0.43999 0.56727 0.0
H2737 H 0.37915 0.48931 0.52672 0.0
H2738 H 0.39393 0.46649 0.53841 0.0
H2739 H 0.43924 0.48141 0.56434 0.0
H2740 H 0.48406 0.41131 0.58433 0.0
H2741 H 0.46434 0.43371 0.58699 0.0
C2742 C 0.64709 0.20894 0.1998 0.0
C2743 C 0.64841 0.22164 0.18835 0.0
C2744 C 0.65913 0.19694 0.20088 0.0
C2745 C 0.69562 0.17918 0.18029 0.0
H2746 H 0.70692 0.16744 0.22476 0.0
C2747 C 0.75481 0.14434 0.19984 0.0
C2748 C 0.75305 0.13281 0.21246 0.0
C2749 C 0.74149 0.1539 0.19492 0.0
C2750 C 0.7038 0.17041 0.21225 0.0
H2751 H 0.66309 0.23135 0.16857 0.0
H2752 H 0.68445 0.21057 0.17074 0.0
H2753 H 0.68482 0.18652 0.21986 0.0
H2754 H 0.73569 0.12153 0.22902 0.0
H2755 H 0.71258 0.13808 0.2204 0.0
H2756 H 0.7151 0.16324 0.17283 0.0
C2757 C 0.67394 0.20975 0.17872 0.0
C2758 C 0.69107 0.18134 0.20942 0.0
C2759 C 0.66173 0.22169 0.1775 0.0
C2760 C 0.73753 0.13041 0.21939 0.0
C2761 C 0.72428 0.13995 0.21451 0.0
C2762 C 0.70851 0.16827 0.18315 0.0
C2763 C 0.67297 0.19746 0.19072 0.0
C2764 C 0.68668 0.18578 0.19341 0.0
C2765 C 0.72621 0.15213 0.20257 0.0
C2766 C 0.71263 0.16367 0.19918 0.0
H2767 H 0.63686 0.20841 0.20817 0.0
H2768 H 0.65771 0.18741 0.20994 0.0
H2769 H 0.69253 0.18227 0.1678 0.0
H2770 H 0.76661 0.14646 0.19425 0.0
H2771 H 0.74334 0.16322 0.18571 0.0
C2772 C 0.60681 0.99162 0.9692 0.0
C2773 C 0.60563 0.00729 0.96231 0.0
C2774 C 0.59772 0.97866 0.9629 0.0
C2775 C 0.55997 0.9705 0.93992 0.0
H2776 H 0.57568 0.92588 0.94212 0.0
C2777 C 0.51863 0.91465 0.92578 0.0
C2778 C 0.51871 0.90281 0.93823 0.0
C2779 C 0.53043 0.92704 0.92552 0.0
C2780 C 0.57114 0.93829 0.94139 0.0
H2781 H 0.59448 0.02149 0.94294 0.0
H2782 H 0.57871 -0.00128 0.93175 0.0
H2783 H 0.59457 0.9484 0.94694 0.0
H2784 H 0.53162 0.89433 0.95977 0.0
H2785 H 0.55222 0.91574 0.95917 0.0
H2786 H 0.53645 0.96028 0.93464 0.0
C2787 C 0.5865 0.99654 0.94221 0.0
C2788 C 0.58194 0.95119 0.9442 0.0
C2789 C 0.59562 0.00956 0.94855 0.0
C2790 C 0.53116 0.90329 0.95004 0.0
C2791 C 0.54305 0.91549 0.94964 0.0
C2792 C 0.54919 0.95757 0.93698 0.0
C2793 C 0.58724 0.98099 0.94949 0.0
C2794 C 0.57638 0.96745 0.94401 0.0
C2795 C 0.54269 0.92764 0.93752 0.0
C2796 C 0.55457 0.94132 0.93816 0.0
H2797 H 0.61438 0.98942 0.97982 0.0
H2798 H 0.59843 0.96695 0.96901 0.0
H2799 H 0.5552 0.98284 0.93983 0.0
H2800 H 0.50918 0.91463 0.91653 0.0
H2801 H 0.52991 0.93622 0.916 0.0
C2802 C 0.95811 0.09995 0.4431 0.0
C2803 C 0.97421 0.09592 0.43894 0.0
C2804 C 0.94603 0.08791 0.44363 0.0
C2805 C 0.93833 0.04317 0.43536 0.0
H2806 H 0.90554 0.04977 0.4688 0.0
C2807 C 0.89206 0.99217 0.45247 0.0
C2808 C 0.88753 0.99112 0.46898 0.0
C2809 C 0.90098 0.00564 0.44677 0.0
C2810 C 0.91472 0.04754 0.45955 0.0
H2811 H 0.99041 0.07634 0.43181 0.0
H2812 H 0.96976 0.05505 0.43385 0.0
H2813 H 0.92448 0.07137 0.4627 0.0
H2814 H 0.88902 0.00314 0.49251 0.0
H2815 H 0.90514 0.02592 0.48295 0.0
H2816 H 0.92938 0.01873 0.43335 0.0
C2817 C 0.96606 0.06755 0.43599 0.0
C2818 C 0.92546 0.0602 0.45573 0.0
C2819 C 0.978 0.07973 0.4349 0.0
C2820 C 0.8921 0.00371 0.47966 0.0
C2821 C 0.90128 0.01691 0.47408 0.0
C2822 C 0.92784 0.03031 0.43953 0.0
C2823 C 0.94992 0.07139 0.44069 0.0
C2824 C 0.9376 0.0582 0.4437 0.0
C2825 C 0.90585 0.01816 0.45755 0.0
C2826 C 0.91606 0.03222 0.45191 0.0
H2827 H 0.95489 0.11243 0.44611 0.0
H2828 H 0.93372 0.0916 0.44669 0.0
H2829 H 0.94717 0.04116 0.42574 0.0
H2830 H 0.88867 0.98263 0.44397 0.0
H2831 H 0.90401 0.00621 0.43391 0.0
C2832 C 0.06263 0.12396 0.39717 0.0
C2833 C 0.05895 0.12427 0.41395 0.0
C2834 C 0.07871 0.12603 0.39177 0.0
C2835 C 0.11634 0.1461 0.40449 0.0
H2836 H 0.13672 0.12199 0.36916 0.0
C2837 C 0.17584 0.16833 0.37521 0.0
C2838 C 0.1884 0.15668 0.3742 0.0
C2839 C 0.1598 0.16352 0.37845 0.0
C2840 C 0.13117 0.1288 0.37905 0.0
H2841 H 0.06938 0.12615 0.43823 0.0
H2842 H 0.0974 0.12981 0.42879 0.0
H2843 H 0.10948 0.11407 0.37881 0.0
H2844 H 0.19379 0.13075 0.37481 0.0
H2845 H 0.16568 0.12235 0.38036 0.0
H2846 H 0.13789 0.16084 0.40479 0.0
C2847 C 0.08782 0.12811 0.41982 0.0
C2848 C 0.11558 0.12432 0.38451 0.0
C2849 C 0.07178 0.12592 0.42522 0.0
C2850 C 0.1844 0.14003 0.37554 0.0
C2851 C 0.1683 0.13521 0.37868 0.0
C2852 C 0.13178 0.15068 0.39893 0.0
C2853 C 0.09139 0.12858 0.40303 0.0
C2854 C 0.10805 0.1329 0.39734 0.0
C2855 C 0.15594 0.14695 0.38065 0.0
C2856 C 0.13936 0.1421 0.38615 0.0
H2857 H 0.05302 0.12267 0.38817 0.0
H2858 H 0.08109 0.1264 0.37876 0.0
H2859 H 0.11077 0.15308 0.41425 0.0
H2860 H 0.17848 0.18125 0.37416 0.0
H2861 H 0.15047 0.17282 0.37964 0.0
C2862 C 0.07917 0.92157 0.62193 0.0
C2863 C 0.09021 0.93471 0.62203 0.0
C2864 C 0.08467 0.90562 0.62442 0.0
C2865 C 0.11841 0.88357 0.64424 0.0
H2866 H 0.09743 0.84585 0.62484 0.0
C2867 C 0.11868 0.80807 0.64714 0.0
C2868 C 0.11866 0.80599 0.66419 0.0
C2869 C 0.11809 0.82369 0.6403 0.0
C2870 C 0.10364 0.85622 0.63021 0.0
H2871 H 0.11581 0.94128 0.62386 0.0
H2872 H 0.12544 0.91339 0.62795 0.0
H2873 H 0.09099 0.87305 0.61473 0.0
H2874 H 0.11879 0.81872 0.68741 0.0
H2875 H 0.11753 0.84594 0.6755 0.0
H2876 H 0.13104 0.86674 0.65975 0.0
C2877 C 0.11248 0.91547 0.62627 0.0
C2878 C 0.09978 0.87184 0.62453 0.0
C2879 C 0.10697 0.93144 0.6238 0.0
C2880 C 0.11884 0.8199 0.67423 0.0
C2881 C 0.11819 0.83552 0.66738 0.0
C2882 C 0.1223 0.86794 0.64989 0.0
C2883 C 0.10135 0.90241 0.62703 0.0
C2884 C 0.10685 0.88573 0.6317 0.0
C2885 C 0.11742 0.8376 0.65034 0.0
C2886 C 0.11471 0.85409 0.64318 0.0
H2887 H 0.06617 0.92366 0.62062 0.0
H2888 H 0.07573 0.8959 0.62509 0.0
H2889 H 0.12399 0.89399 0.65016 0.0
H2890 H 0.11865 0.7976 0.63906 0.0
H2891 H 0.11783 0.82485 0.62712 0.0
C2892 C 0.43266 0.86955 0.89437 0.0
C2893 C 0.43581 0.87146 0.91114 0.0
C2894 C 0.41672 0.86711 0.88876 0.0
C2895 C 0.38445 0.84999 0.88235 0.0
H2896 H 0.347 0.87106 0.90221 0.0
C2897 C 0.31895 0.82416 0.87783 0.0
C2898 C 0.30582 0.83518 0.87715 0.0
C2899 C 0.33494 0.82982 0.87984 0.0
C2900 C 0.35731 0.86521 0.89635 0.0
H2901 H 0.4246 0.87294 0.9351 0.0
H2902 H 0.39686 0.86854 0.92535 0.0
H2903 H 0.37444 0.87969 0.90976 0.0
H2904 H 0.29927 0.86085 0.8772 0.0
H2905 H 0.32716 0.87073 0.88042 0.0
H2906 H 0.36731 0.83553 0.86891 0.0
C2907 C 0.40666 0.86909 0.91649 0.0
C2908 C 0.37305 0.87003 0.90084 0.0
C2909 C 0.4226 0.87155 0.9221 0.0
C2910 C 0.3091 0.85202 0.87778 0.0
C2911 C 0.32508 0.85768 0.87975 0.0
C2912 C 0.36869 0.84517 0.87785 0.0
C2913 C 0.40356 0.86651 0.89978 0.0
C2914 C 0.38682 0.86233 0.89407 0.0
C2915 C 0.33816 0.84665 0.88116 0.0
C2916 C 0.35492 0.85257 0.88495 0.0
H2917 H 0.44256 0.86949 0.88559 0.0
H2918 H 0.41473 0.86545 0.87579 0.0
H2919 H 0.39476 0.84367 0.87701 0.0
H2920 H 0.31684 0.81111 0.87743 0.0
H2921 H 0.34468 0.82096 0.88104 0.0
C2922 C 0.37017 0.17988 0.16579 0.0
C2923 C 0.37054 0.19328 0.15508 0.0
C2924 C 0.37155 0.16397 0.1598 0.0
C2925 C 0.36873 0.13071 0.14382 0.0
H2926 H 0.40209 0.12415 0.11083 0.0
C2927 C 0.41364 0.07606 0.12095 0.0
C2928 C 0.40264 0.06289 0.12108 0.0
C2929 C 0.40797 0.09209 0.12242 0.0
C2930 C 0.39274 0.12576 0.12005 0.0
H2931 H 0.37181 0.20043 0.12959 0.0
H2932 H 0.37397 0.17264 0.11913 0.0
H2933 H 0.39483 0.15177 0.11911 0.0
H2934 H 0.37699 0.05629 0.12191 0.0
H2935 H 0.3671 0.08427 0.12418 0.0
H2936 H 0.36723 0.1047 0.14536 0.0
C2937 C 0.37292 0.17445 0.13219 0.0
C2938 C 0.38842 0.14162 0.12466 0.0
C2939 C 0.37157 0.19038 0.13818 0.0
C2940 C 0.3858 0.06615 0.12188 0.0
C2941 C 0.38013 0.08219 0.1233 0.0
C2942 C 0.37307 0.11486 0.13924 0.0
C2943 C 0.37329 0.16107 0.14295 0.0
C2944 C 0.37658 0.14428 0.13683 0.0
C2945 C 0.39117 0.09533 0.12399 0.0
C2946 C 0.38535 0.11218 0.12751 0.0
H2947 H 0.36941 0.18169 0.17887 0.0
H2948 H 0.37197 0.15398 0.16847 0.0
H2949 H 0.35942 0.13232 0.15307 0.0
H2950 H 0.42669 0.07397 0.12039 0.0
H2951 H 0.41684 0.10187 0.12308 0.0
C2952 C 0.17264 0.82903 0.12439 0.0
C2953 C 0.18603 0.83975 0.12464 0.0
C2954 C 0.15681 0.83498 0.12202 0.0
C2955 C 0.13552 0.86994 0.1034 0.0
H2956 H 0.09731 0.84986 0.12286 0.0
C2957 C 0.06011 0.87445 0.10267 0.0
C2958 C 0.05753 0.87531 0.08572 0.0
C2959 C 0.07586 0.87249 0.10897 0.0
C2960 C 0.10783 0.85579 0.11747 0.0
H2961 H 0.19321 0.86522 0.12349 0.0
H2962 H 0.16557 0.87562 0.11963 0.0
H2963 H 0.12442 0.84191 0.13215 0.0
H2964 H 0.06956 0.8755 0.06212 0.0
H2965 H 0.09697 0.87192 0.07307 0.0
H2966 H 0.11892 0.88382 0.08872 0.0
C2967 C 0.16733 0.86258 0.12093 0.0
C2968 C 0.1234 0.85108 0.12267 0.0
C2969 C 0.18317 0.85662 0.12327 0.0
C2970 C 0.07112 0.87491 0.07524 0.0
C2971 C 0.08686 0.87292 0.08154 0.0
C2972 C 0.11995 0.87466 0.09822 0.0
C2973 C 0.154 0.8518 0.11989 0.0
C2974 C 0.13744 0.85789 0.11551 0.0
C2975 C 0.08939 0.87133 0.09847 0.0
C2976 C 0.10592 0.86746 0.10499 0.0
H2977 H 0.17442 0.81596 0.12537 0.0
H2978 H 0.14687 0.82631 0.12113 0.0
H2979 H 0.14605 0.87533 0.0975 0.0
H2980 H 0.04991 0.87481 0.1111 0.0
H2981 H 0.07739 0.87161 0.12208 0.0
C2982 C 0.41987 0.91936 0.36702 0.0
C2983 C 0.40829 0.93201 0.36763 0.0
C2984 C 0.41493 0.90321 0.36448 0.0
C2985 C 0.38118 0.87982 0.34618 0.0
H2986 H 0.40348 0.84286 0.36561 0.0
C2987 C 0.3786 0.81489 0.3189 0.0
C2988 C 0.37868 0.80149 0.32962 0.0
C2989 C 0.38023 0.83079 0.32489 0.0
C2990 C 0.39696 0.85303 0.36022 0.0
H2991 H 0.38238 0.93751 0.36687 0.0
H2992 H 0.37377 0.90932 0.36268 0.0
H2993 H 0.41013 0.87043 0.37461 0.0
H2994 H 0.37978 0.79433 0.35511 0.0
H2995 H 0.38239 0.82208 0.36557 0.0
H2996 H 0.368 0.86242 0.33181 0.0
C2997 C 0.38669 0.91192 0.36385 0.0
C2998 C 0.40092 0.86885 0.36525 0.0
C2999 C 0.39162 0.92806 0.36637 0.0
C3000 C 0.37975 0.80438 0.34651 0.0
C3001 C 0.38137 0.82028 0.35251 0.0
C3002 C 0.37722 0.864 0.34115 0.0
C3003 C 0.39831 0.89934 0.36252 0.0
C3004 C 0.39323 0.88246 0.35814 0.0
C3005 C 0.38195 0.83366 0.34175 0.0
C3006 C 0.38521 0.85042 0.34796 0.0
H3007 H 0.4328 0.92198 0.3679 0.0
H3008 H 0.42423 0.89387 0.36337 0.0
H3009 H 0.37513 0.89002 0.34031 0.0
H3010 H 0.37784 0.81309 0.30582 0.0
H3011 H 0.38079 0.84078 0.31625 0.0
C3012 C 0.43015 0.12073 0.60357 0.0
C3013 C 0.43275 0.11978 0.58663 0.0
C3014 C 0.41435 0.12226 0.60986 0.0
C3015 C 0.37027 0.1192 0.59896 0.0
H3016 H 0.36519 0.15248 0.63226 0.0
C3017 C 0.31739 0.16567 0.62282 0.0
C3018 C 0.30385 0.15514 0.6227 0.0
C3019 C 0.33321 0.15948 0.62116 0.0
C3020 C 0.36639 0.14315 0.62296 0.0
H3021 H 0.42073 0.11891 0.56304 0.0
H3022 H 0.39324 0.12181 0.57395 0.0
H3023 H 0.39246 0.14448 0.6235 0.0
H3024 H 0.29636 0.12975 0.62173 0.0
H3025 H 0.32399 0.11892 0.61915 0.0
H3026 H 0.3442 0.11849 0.59779 0.0
C3027 C 0.40336 0.12118 0.58244 0.0
C3028 C 0.38204 0.13841 0.61808 0.0
C3029 C 0.41916 0.11959 0.57616 0.0
C3030 C 0.30653 0.13821 0.62176 0.0
C3031 C 0.32236 0.13201 0.62016 0.0
C3032 C 0.35462 0.12398 0.60381 0.0
C3033 C 0.40079 0.12292 0.59935 0.0
C3034 C 0.38418 0.1266 0.60578 0.0
C3035 C 0.33586 0.14259 0.61942 0.0
C3036 C 0.35248 0.13625 0.61565 0.0
H3037 H 0.44036 0.1208 0.61199 0.0
H3038 H 0.41278 0.12327 0.62296 0.0
H3039 H 0.37147 0.10992 0.58962 0.0
H3040 H 0.31575 0.17878 0.62349 0.0
H3041 H 0.34328 0.16802 0.62048 0.0
C3042 C 0.11881 0.18885 0.85205 0.0
C3043 C 0.12001 0.19208 0.83523 0.0
C3044 C 0.11703 0.17284 0.8577 0.0
C3045 C 0.12037 0.12928 0.84537 0.0
H3046 H 0.08688 0.12289 0.87827 0.0
C3047 C 0.07529 0.07478 0.86868 0.0
C3048 C 0.08632 0.06164 0.86888 0.0
C3049 C 0.08093 0.09079 0.86686 0.0
C3050 C 0.09625 0.12446 0.86907 0.0
H3051 H 0.121 0.18099 0.8112 0.0
H3052 H 0.11771 0.15312 0.82103 0.0
H3053 H 0.09448 0.15048 0.87017 0.0
H3054 H 0.11198 0.05506 0.86817 0.0
H3055 H 0.12182 0.08301 0.86525 0.0
H3056 H 0.12161 0.10325 0.84373 0.0
C3057 C 0.11831 0.16291 0.82989 0.0
C3058 C 0.10076 0.14028 0.86456 0.0
C3059 C 0.12013 0.17891 0.82424 0.0
C3060 C 0.10315 0.06491 0.86797 0.0
C3061 C 0.10879 0.08092 0.86618 0.0
C3062 C 0.11584 0.11344 0.84987 0.0
C3063 C 0.11639 0.15971 0.84667 0.0
C3064 C 0.1127 0.14289 0.85247 0.0
C3065 C 0.09773 0.09402 0.86524 0.0
C3066 C 0.10355 0.11084 0.86159 0.0
H3067 H 0.11877 0.19872 0.86085 0.0
H3068 H 0.11587 0.17078 0.87072 0.0
H3069 H 0.12973 0.13085 0.83616 0.0
H3070 H 0.06225 0.07269 0.86932 0.0
H3071 H 0.07205 0.10055 0.86603 0.0
C3072 C 0.16527 0.37135 0.17832 0.0
C3073 C 0.1538 0.37154 0.19108 0.0
C3074 C 0.16027 0.37339 0.16213 0.0
C3075 C 0.12685 0.39178 0.13834 0.0
H3076 H 0.14857 0.37069 0.10194 0.0
C3077 C 0.12597 0.38976 0.06286 0.0
C3078 C 0.12553 0.40661 0.05961 0.0
C3079 C 0.12714 0.38404 0.07891 0.0
C3080 C 0.14219 0.37654 0.11195 0.0
H3081 H 0.12796 0.37319 0.19676 0.0
H3082 H 0.11922 0.37652 0.16849 0.0
H3083 H 0.15496 0.36227 0.12976 0.0
H3084 H 0.1253 0.43065 0.07071 0.0
H3085 H 0.12748 0.4207 0.09865 0.0
H3086 H 0.1141 0.40605 0.12053 0.0
C3087 C 0.13213 0.3751 0.17103 0.0
C3088 C 0.14601 0.37184 0.12791 0.0
C3089 C 0.13713 0.37308 0.18723 0.0
C3090 C 0.12558 0.41759 0.07279 0.0
C3091 C 0.12677 0.41187 0.08883 0.0
C3092 C 0.12303 0.39647 0.12238 0.0
C3093 C 0.14366 0.37565 0.15832 0.0
C3094 C 0.13857 0.37957 0.14131 0.0
C3095 C 0.1279 0.39504 0.09207 0.0
C3096 C 0.13084 0.38909 0.10899 0.0
H3097 H 0.17821 0.37022 0.18087 0.0
H3098 H 0.1695 0.37391 0.15267 0.0
H3099 H 0.121 0.39811 0.14837 0.0
H3100 H 0.12587 0.38096 0.05299 0.0
H3101 H 0.1277 0.37099 0.08099 0.0
C3102 C 0.6433 0.12149 0.80984 0.0
C3103 C 0.6603 0.12217 0.80749 0.0
C3104 C 0.63676 0.12018 0.82556 0.0
C3105 C 0.62779 0.10472 0.85807 0.0
H3106 H 0.6475 0.12552 0.89574 0.0
C3107 C 0.62072 0.07997 0.92364 0.0
C3108 C 0.62053 0.09108 0.93671 0.0
C3109 C 0.62303 0.08547 0.90763 0.0
C3110 C 0.64166 0.11978 0.88536 0.0
H3111 H 0.68372 0.1227 0.81985 0.0
H3112 H 0.67235 0.12025 0.84721 0.0
H3113 H 0.65647 0.13309 0.86841 0.0
H3114 H 0.62165 0.11675 0.94314 0.0
H3115 H 0.62539 0.12634 0.91519 0.0
H3116 H 0.613 0.0914 0.87503 0.0
C3117 C 0.66403 0.1209 0.83695 0.0
C3118 C 0.64695 0.12398 0.86968 0.0
C3119 C 0.67057 0.12224 0.82123 0.0
C3120 C 0.62185 0.10786 0.93335 0.0
C3121 C 0.62411 0.11336 0.91734 0.0
C3122 C 0.62248 0.10053 0.87375 0.0
C3123 C 0.64706 0.1195 0.83929 0.0
C3124 C 0.6403 0.11629 0.85586 0.0
C3125 C 0.62514 0.1022 0.90433 0.0
C3126 C 0.62955 0.1078 0.8876 0.0
H3127 H 0.63504 0.12149 0.79951 0.0
H3128 H 0.62363 0.11941 0.82695 0.0
H3129 H 0.62249 0.09844 0.84772 0.0
H3130 H 0.61977 0.06696 0.92581 0.0
H3131 H 0.62391 0.0765 0.89795 0.0
C3132 C 0.85653 0.87362 0.31022 0.0
C3133 C 0.83984 0.87219 0.30646 0.0
C3134 C 0.86164 0.87591 0.32635 0.0
C3135 C 0.84793 0.87329 0.36954 0.0
H3136 H 0.88087 0.9066 0.37652 0.0
C3137 C 0.87114 0.91782 0.42475 0.0
C3138 C 0.87104 0.90663 0.43776 0.0
C3139 C 0.86931 0.9124 0.40865 0.0
C3140 C 0.87164 0.8973 0.37479 0.0
H3141 H 0.81546 0.87144 0.3168 0.0
H3142 H 0.82433 0.87558 0.34488 0.0
H3143 H 0.87337 0.89891 0.34877 0.0
H3144 H 0.86979 0.88092 0.44402 0.0
H3145 H 0.8669 0.87147 0.41596 0.0
H3146 H 0.84571 0.87215 0.39554 0.0
C3147 C 0.83352 0.87477 0.3354 0.0
C3148 C 0.86747 0.89273 0.35887 0.0
C3149 C 0.82841 0.87245 0.31927 0.0
C3150 C 0.86981 0.88987 0.43428 0.0
C3151 C 0.86803 0.88446 0.41819 0.0
C3152 C 0.85209 0.87786 0.38545 0.0
C3153 C 0.85017 0.87685 0.3391 0.0
C3154 C 0.85542 0.88081 0.35605 0.0
C3155 C 0.8674 0.89567 0.40521 0.0
C3156 C 0.86386 0.89006 0.38828 0.0
H3157 H 0.86566 0.8734 0.30064 0.0
H3158 H 0.87458 0.87718 0.3288 0.0
H3159 H 0.83874 0.86395 0.36782 0.0
H3160 H 0.87202 0.93081 0.42702 0.0
H3161 H 0.86873 0.9214 0.39897 0.0
C3162 C 0.82613 0.12023 0.1713 0.0
C3163 C 0.83731 0.1203 0.18432 0.0
C3164 C 0.83159 0.11865 0.1552 0.0
C3165 C 0.84655 0.12135 0.12136 0.0
H3166 H 0.88017 0.08874 0.11423 0.0
C3167 C 0.8688 0.10554 0.05654 0.0
C3168 C 0.87006 0.0888 0.053 0.0
C3169 C 0.86709 0.1109 0.07266 0.0
C3170 C 0.87076 0.09787 0.116 0.0
H3171 H 0.86306 0.11965 0.19056 0.0
H3172 H 0.87258 0.11716 0.16246 0.0
H3173 H 0.87223 0.09587 0.142 0.0
H3174 H 0.87125 0.06459 0.06368 0.0
H3175 H 0.86811 0.0739 0.09175 0.0
H3176 H 0.84457 0.12282 0.09536 0.0
C3177 C 0.85957 0.11799 0.16472 0.0
C3178 C 0.86634 0.10211 0.13194 0.0
C3179 C 0.85411 0.11953 0.18082 0.0
C3180 C 0.87034 0.07758 0.06598 0.0
C3181 C 0.8686 0.08294 0.08211 0.0
C3182 C 0.85097 0.11709 0.10542 0.0
C3183 C 0.84836 0.11715 0.15174 0.0
C3184 C 0.85401 0.11373 0.13481 0.0
C3185 C 0.86659 0.09964 0.08561 0.0
C3186 C 0.86296 0.10513 0.10255 0.0
H3187 H 0.81311 0.12076 0.17358 0.0
H3188 H 0.8226 0.1179 0.14553 0.0
H3189 H 0.83714 0.13047 0.12313 0.0
H3190 H 0.86864 0.11452 0.04682 0.0
H3191 H 0.86588 0.12387 0.07495 0.0
C3192 C 0.37514 0.58224 0.57428 0.0
C3193 C 0.37486 0.59307 0.56098 0.0
C3194 C 0.3721 0.58786 0.59011 0.0
C3195 C 0.35064 0.62109 0.61138 0.0
H3196 H 0.3709 0.60201 0.64967 0.0
C3197 C 0.34821 0.62385 0.68685 0.0
C3198 C 0.33121 0.62322 0.68914 0.0
C3199 C 0.3549 0.62295 0.67117 0.0
C3200 C 0.36526 0.60767 0.63913 0.0
H3201 H 0.37206 0.61847 0.55397 0.0
H3202 H 0.367 0.62831 0.58163 0.0
H3203 H 0.38127 0.59523 0.62264 0.0
H3204 H 0.30786 0.62191 0.67671 0.0
H3205 H 0.31952 0.6201 0.64938 0.0
H3206 H 0.33461 0.63352 0.62789 0.0
C3207 C 0.36926 0.61541 0.57978 0.0
C3208 C 0.3711 0.60362 0.62361 0.0
C3209 C 0.37229 0.60978 0.56395 0.0
C3210 C 0.32101 0.62246 0.67536 0.0
C3211 C 0.32771 0.62149 0.65967 0.0
C3212 C 0.34481 0.62516 0.62691 0.0
C3213 C 0.36875 0.60446 0.593 0.0
C3214 C 0.36368 0.61005 0.60954 0.0
C3215 C 0.34476 0.62132 0.65742 0.0
C3216 C 0.35187 0.61829 0.64097 0.0
H3217 H 0.37705 0.56928 0.57242 0.0
H3218 H 0.37165 0.57905 0.59997 0.0
H3219 H 0.34452 0.62616 0.60081 0.0
H3220 H 0.35641 0.62456 0.6972 0.0
H3221 H 0.36807 0.62317 0.66986 0.0
C3222 C 0.14196 0.61931 0.31449 0.0
C3223 C 0.15863 0.62013 0.31045 0.0
C3224 C 0.13705 0.61721 0.3307 0.0
C3225 C 0.15147 0.61906 0.37368 0.0
H3226 H 0.11797 0.58633 0.38081 0.0
C3227 C 0.13024 0.60193 0.43853 0.0
C3228 C 0.1289 0.58513 0.44179 0.0
C3229 C 0.13185 0.60757 0.4225 0.0
C3230 C 0.12735 0.59548 0.37903 0.0
H3231 H 0.18319 0.62011 0.32036 0.0
H3232 H 0.17464 0.61631 0.34861 0.0
H3233 H 0.12516 0.59425 0.35304 0.0
H3234 H 0.12754 0.56112 0.43071 0.0
H3235 H 0.13051 0.57094 0.40276 0.0
H3236 H 0.15413 0.61981 0.39965 0.0
C3237 C 0.16534 0.61744 0.33928 0.0
C3238 C 0.13135 0.60017 0.36311 0.0
C3239 C 0.17025 0.61956 0.32306 0.0
C3240 C 0.12852 0.57414 0.42862 0.0
C3241 C 0.13016 0.57979 0.41258 0.0
C3242 C 0.14747 0.61437 0.3896 0.0
C3243 C 0.14869 0.61587 0.34325 0.0
C3244 C 0.1436 0.61187 0.36023 0.0
C3245 C 0.13218 0.59655 0.40936 0.0
C3246 C 0.13551 0.60237 0.39247 0.0
H3247 H 0.13268 0.61979 0.30507 0.0
H3248 H 0.12412 0.61635 0.33338 0.0
H3249 H 0.16084 0.62822 0.3719 0.0
H3250 H 0.13048 0.61073 0.4484 0.0
H3251 H 0.13309 0.62057 0.42043 0.0
C3252 C 0.37322 0.41951 0.92527 0.0
C3253 C 0.37481 0.40763 0.93755 0.0
C3254 C 0.3707 0.4149 0.90903 0.0
C3255 C 0.37336 0.38069 0.87974 0.0
H3256 H 0.33719 0.40282 0.85862 0.0
C3257 C 0.35645 0.37391 0.81097 0.0
C3258 C 0.33971 0.37307 0.80719 0.0
C3259 C 0.36159 0.3767 0.82703 0.0
C3260 C 0.34725 0.39645 0.86438 0.0
H3261 H 0.37591 0.38158 0.94228 0.0
H3262 H 0.37161 0.37356 0.91389 0.0
H3263 H 0.34551 0.41104 0.88596 0.0
H3264 H 0.31528 0.37369 0.81746 0.0
H3265 H 0.32426 0.37856 0.84541 0.0
H3266 H 0.37498 0.36605 0.85806 0.0
C3267 C 0.37229 0.38643 0.91684 0.0
C3268 C 0.35216 0.40131 0.87996 0.0
C3269 C 0.3747 0.39104 0.93311 0.0
C3270 C 0.32826 0.37434 0.81992 0.0
C3271 C 0.33339 0.37723 0.83593 0.0
C3272 C 0.36854 0.37593 0.86403 0.0
C3273 C 0.36983 0.39831 0.9047 0.0
C3274 C 0.36522 0.39346 0.88785 0.0
C3275 C 0.35009 0.37883 0.83959 0.0
C3276 C 0.35535 0.3837 0.85625 0.0
H3277 H 0.3733 0.43239 0.92826 0.0
H3278 H 0.36908 0.42433 0.89989 0.0
H3279 H 0.3835 0.37446 0.88551 0.0
H3280 H 0.36558 0.37298 0.80144 0.0
H3281 H 0.37453 0.37792 0.82948 0.0
C3282 C 0.57171 0.62535 0.92238 0.0
C3283 C 0.55814 0.62552 0.91188 0.0
C3284 C 0.58748 0.62741 0.91618 0.0
C3285 C 0.60869 0.64582 0.88108 0.0
H3286 H 0.64662 0.62505 0.90032 0.0
C3287 C 0.68401 0.64451 0.87566 0.0
C3288 C 0.68706 0.66139 0.87506 0.0
C3289 C 0.66811 0.63863 0.87763 0.0
C3290 C 0.63617 0.6308 0.89462 0.0
H3291 H 0.55056 0.62711 0.88654 0.0
H3292 H 0.5781 0.63045 0.87571 0.0
H3293 H 0.61938 0.61641 0.90856 0.0
H3294 H 0.67572 0.68532 0.87532 0.0
H3295 H 0.64802 0.67509 0.87895 0.0
H3296 H 0.62548 0.66022 0.86714 0.0
C3297 C 0.57652 0.62905 0.88877 0.0
C3298 C 0.62054 0.62598 0.8995 0.0
C3299 C 0.56075 0.62701 0.89498 0.0
C3300 C 0.67379 0.67224 0.87571 0.0
C3301 C 0.65788 0.66636 0.87773 0.0
C3302 C 0.62432 0.65063 0.87618 0.0
C3303 C 0.59005 0.62964 0.89933 0.0
C3304 C 0.60661 0.63362 0.893 0.0
C3305 C 0.65489 0.6495 0.87908 0.0
C3306 C 0.63826 0.64337 0.88309 0.0
H3307 H 0.57013 0.62426 0.93547 0.0
H3308 H 0.59759 0.62797 0.92469 0.0
H3309 H 0.59824 0.65208 0.87593 0.0
H3310 H 0.69396 0.63582 0.87509 0.0
H3311 H 0.66621 0.62556 0.87832 0.0
C3312 C 0.62239 0.31911 0.1709 0.0
C3313 C 0.62258 0.30593 0.15992 0.0
C3314 C 0.62081 0.33512 0.16518 0.0
C3315 C 0.60442 0.35778 0.12994 0.0
H3316 H 0.62452 0.3948 0.1515 0.0
C3317 C 0.60697 0.43318 0.12666 0.0
C3318 C 0.59019 0.43647 0.12507 0.0
C3319 C 0.61252 0.41716 0.12866 0.0
C3320 C 0.61897 0.38461 0.14516 0.0
H3321 H 0.62213 0.2993 0.13427 0.0
H3322 H 0.61965 0.32724 0.1243 0.0
H3323 H 0.63237 0.3672 0.15933 0.0
H3324 H 0.56615 0.42545 0.12367 0.0
H3325 H 0.57579 0.39756 0.12733 0.0
H3326 H 0.59103 0.37518 0.11576 0.0
C3327 C 0.62039 0.32518 0.13735 0.0
C3328 C 0.62333 0.36877 0.1498 0.0
C3329 C 0.62193 0.30917 0.14306 0.0
C3330 C 0.57916 0.42333 0.12482 0.0
C3331 C 0.58471 0.40732 0.12686 0.0
C3332 C 0.60007 0.37361 0.12529 0.0
C3333 C 0.61942 0.33833 0.14835 0.0
C3334 C 0.61593 0.35516 0.14243 0.0
C3335 C 0.60143 0.40406 0.12915 0.0
C3336 C 0.60709 0.38723 0.13302 0.0
H3337 H 0.62283 0.31704 0.18396 0.0
H3338 H 0.61995 0.34492 0.17402 0.0
H3339 H 0.59834 0.34759 0.12411 0.0
H3340 H 0.61581 0.44302 0.12682 0.0
H3341 H 0.6255 0.41506 0.1301 0.0
C3342 C 0.81503 0.35444 0.36912 0.0
C3343 C 0.81228 0.3375 0.36881 0.0
C3344 C 0.83087 0.36064 0.37057 0.0
C3345 C 0.87489 0.34934 0.36839 0.0
H3346 H 0.87982 0.38388 0.40041 0.0
C3347 C 0.92746 0.3748 0.41433 0.0
C3348 C 0.94109 0.37445 0.4039 0.0
C3349 C 0.9117 0.37288 0.40808 0.0
C3350 C 0.87867 0.37424 0.39143 0.0
H3351 H 0.82409 0.3138 0.36901 0.0
H3352 H 0.85166 0.32458 0.37177 0.0
H3353 H 0.85259 0.37493 0.39253 0.0
H3354 H 0.94877 0.37273 0.3786 0.0
H3355 H 0.92122 0.36962 0.36766 0.0
H3356 H 0.90097 0.34809 0.36792 0.0
C3357 C 0.84162 0.33312 0.3707 0.0
C3358 C 0.86303 0.36923 0.38675 0.0
C3359 C 0.82578 0.32692 0.36919 0.0
C3360 C 0.93854 0.37297 0.38698 0.0
C3361 C 0.92276 0.37107 0.38072 0.0
C3362 C 0.89053 0.35433 0.3731 0.0
C3363 C 0.84433 0.35005 0.3718 0.0
C3364 C 0.86094 0.3565 0.3754 0.0
C3365 C 0.90918 0.37061 0.39124 0.0
C3366 C 0.89261 0.36663 0.38491 0.0
H3367 H 0.8049 0.36294 0.36874 0.0
H3368 H 0.83253 0.37375 0.37108 0.0
H3369 H 0.87373 0.33965 0.35947 0.0
H3370 H 0.92899 0.37589 0.42743 0.0
H3371 H 0.90156 0.37243 0.41657 0.0
C3372 C 0.8737 0.68532 0.63636 0.0
C3373 C 0.87173 0.68913 0.65298 0.0
C3374 C 0.87636 0.66921 0.63141 0.0
C3375 C 0.8937 0.63696 0.62607 0.0
H3376 H 0.87329 0.60005 0.64756 0.0
C3377 C 0.91995 0.57165 0.62282 0.0
C3378 C 0.90903 0.55842 0.62269 0.0
C3379 C 0.91419 0.58761 0.62462 0.0
C3380 C 0.87896 0.61021 0.64126 0.0
H3381 H 0.87045 0.67895 0.6774 0.0
H3382 H 0.87531 0.65088 0.66881 0.0
H3383 H 0.86453 0.62766 0.65432 0.0
H3384 H 0.88343 0.55164 0.62361 0.0
H3385 H 0.87338 0.57951 0.62646 0.0
H3386 H 0.90805 0.61951 0.61293 0.0
C3387 C 0.8746 0.6603 0.65955 0.0
C3388 C 0.87407 0.62605 0.64529 0.0
C3389 C 0.87188 0.67641 0.66449 0.0
C3390 C 0.89218 0.56155 0.62374 0.0
C3391 C 0.88642 0.57752 0.62551 0.0
C3392 C 0.89856 0.62112 0.62201 0.0
C3393 C 0.87717 0.65654 0.64297 0.0
C3394 C 0.88152 0.63964 0.6379 0.0
C3395 C 0.89737 0.59072 0.6263 0.0
C3396 C 0.8914 0.60755 0.6297 0.0
H3397 H 0.87355 0.69483 0.62716 0.0
H3398 H 0.87799 0.66671 0.61852 0.0
H3399 H 0.89984 0.64713 0.62025 0.0
H3400 H 0.93301 0.56965 0.62208 0.0
H3401 H 0.923 0.59745 0.62535 0.0
C3402 C 0.55865 0.36413 0.60145 0.0
C3403 C 0.55505 0.36608 0.58478 0.0
C3404 C 0.57474 0.36174 0.60664 0.0
C3405 C 0.61802 0.36521 0.59356 0.0
H3406 H 0.62498 0.33123 0.62582 0.0
C3407 C 0.68254 0.34956 0.61682 0.0
C3408 C 0.6864 0.33286 0.61773 0.0
C3409 C 0.66638 0.35463 0.61467 0.0
C3410 C 0.62325 0.34072 0.61677 0.0
H3411 H 0.56558 0.36757 0.56052 0.0
H3412 H 0.59362 0.36324 0.56953 0.0
H3413 H 0.59724 0.33859 0.61794 0.0
H3414 H 0.67623 0.30841 0.61772 0.0
H3415 H 0.64807 0.31724 0.61381 0.0
H3416 H 0.64403 0.36692 0.59193 0.0
C3417 C 0.58404 0.36374 0.57864 0.0
C3418 C 0.60734 0.34509 0.61239 0.0
C3419 C 0.56795 0.36616 0.57346 0.0
C3420 C 0.67367 0.32137 0.61711 0.0
C3421 C 0.6575 0.32645 0.61492 0.0
C3422 C 0.63393 0.36084 0.59794 0.0
C3423 C 0.5876 0.36121 0.59527 0.0
C3424 C 0.60453 0.35728 0.60061 0.0
C3425 C 0.65371 0.34313 0.61334 0.0
C3426 C 0.63675 0.34843 0.60948 0.0
H3427 H 0.54901 0.36408 0.61051 0.0
H3428 H 0.57708 0.36012 0.61955 0.0
H3429 H 0.61629 0.37476 0.58457 0.0
H3430 H 0.69204 0.35874 0.61734 0.0
H3431 H 0.66385 0.36759 0.6138 0.0
C3432 C 0.87426 0.31345 0.85667 0.0
C3433 C 0.87247 0.31032 0.83988 0.0
C3434 C 0.87677 0.32936 0.8623 0.0
C3435 C 0.89461 0.36121 0.86866 0.0
H3436 H 0.87494 0.39914 0.8483 0.0
C3437 C 0.92333 0.42549 0.8716 0.0
C3438 C 0.91296 0.43915 0.87181 0.0
C3439 C 0.91688 0.40974 0.87017 0.0
C3440 C 0.8804 0.3887 0.85432 0.0
H3441 H 0.87112 0.32155 0.81593 0.0
H3442 H 0.87566 0.34923 0.8257 0.0
H3443 H 0.86525 0.37197 0.84115 0.0
H3444 H 0.88763 0.44694 0.87162 0.0
H3445 H 0.87639 0.41948 0.86944 0.0
H3446 H 0.90975 0.37795 0.88184 0.0
C3447 C 0.87497 0.33944 0.83457 0.0
C3448 C 0.87496 0.3731 0.85006 0.0
C3449 C 0.87243 0.32353 0.82894 0.0
C3450 C 0.89597 0.43668 0.87137 0.0
C3451 C 0.88952 0.42094 0.87 0.0
C3452 C 0.90002 0.37682 0.87294 0.0
C3453 C 0.87757 0.34251 0.85128 0.0
C3454 C 0.88218 0.35914 0.85697 0.0
C3455 C 0.89991 0.4073 0.86899 0.0
C3456 C 0.89317 0.39075 0.86562 0.0
H3457 H 0.87427 0.30354 0.86544 0.0
H3458 H 0.87842 0.33133 0.87528 0.0
H3459 H 0.90057 0.35074 0.87411 0.0
H3460 H 0.93648 0.42698 0.87187 0.0
H3461 H 0.92526 0.39955 0.86927 0.0
C3462 C 0.82483 0.66495 0.12063 0.0
C3463 C 0.81197 0.65359 0.12044 0.0
C3464 C 0.84093 0.65985 0.11813 0.0
C3465 C 0.87502 0.64532 0.11879 0.0
H3466 H 0.88163 0.61381 0.08406 0.0
C3467 C 0.92939 0.62476 0.07212 0.0
C3468 C 0.9427 0.6246 0.08296 0.0
C3469 C 0.91342 0.62605 0.07803 0.0
C3470 C 0.88001 0.62264 0.09377 0.0
H3471 H 0.80602 0.62786 0.11828 0.0
H3472 H 0.83414 0.61896 0.1142 0.0
H3473 H 0.85398 0.62089 0.09245 0.0
H3474 H 0.94962 0.6248 0.10853 0.0
H3475 H 0.92175 0.62675 0.11884 0.0
H3476 H 0.90102 0.64763 0.11962 0.0
C3477 C 0.83175 0.63185 0.11595 0.0
C3478 C 0.86414 0.62656 0.09873 0.0
C3479 C 0.81564 0.63694 0.11841 0.0
C3480 C 0.93964 0.625 0.09985 0.0
C3481 C 0.92367 0.62624 0.10576 0.0
C3482 C 0.89088 0.64143 0.11382 0.0
C3483 C 0.84455 0.64328 0.11543 0.0
C3484 C 0.86145 0.63812 0.11115 0.0
C3485 C 0.91039 0.62714 0.09492 0.0
C3486 C 0.89357 0.63021 0.10109 0.0
H3487 H 0.82241 0.67786 0.12211 0.0
H3488 H 0.85045 0.66902 0.11764 0.0
H3489 H 0.8734 0.65413 0.12852 0.0
H3490 H 0.93133 0.62451 0.05904 0.0
H3491 H 0.90351 0.62687 0.06931 0.0
C3492 C 0.62737 0.68117 0.35778 0.0
C3493 C 0.6286 0.68382 0.34086 0.0
C3494 C 0.62571 0.66536 0.36401 0.0
C3495 C 0.60924 0.63312 0.37182 0.0
H3496 H 0.62898 0.59524 0.35146 0.0
C3497 C 0.608 0.55757 0.37443 0.0
C3498 C 0.591 0.55524 0.37508 0.0
C3499 C 0.61456 0.57329 0.37316 0.0
C3500 C 0.62353 0.60566 0.35751 0.0
H3501 H 0.62984 0.67186 0.31726 0.0
H3502 H 0.6267 0.64437 0.32804 0.0
H3503 H 0.63809 0.62246 0.34375 0.0
H3504 H 0.5676 0.56763 0.37568 0.0
H3505 H 0.57897 0.59495 0.37323 0.0
H3506 H 0.59467 0.61633 0.38558 0.0
C3507 C 0.62722 0.65445 0.33657 0.0
C3508 C 0.62863 0.62129 0.35292 0.0
C3509 C 0.62894 0.67026 0.33036 0.0
C3510 C 0.58075 0.56899 0.37522 0.0
C3511 C 0.5873 0.58469 0.3739 0.0
C3512 C 0.60419 0.61749 0.37646 0.0
C3513 C 0.62519 0.65183 0.35344 0.0
C3514 C 0.62128 0.63523 0.35974 0.0
C3515 C 0.60427 0.58702 0.37247 0.0
C3516 C 0.611 0.60357 0.36908 0.0
H3517 H 0.62717 0.69136 0.36622 0.0
H3518 H 0.62447 0.66376 0.37708 0.0
H3519 H 0.60319 0.64356 0.37725 0.0
H3520 H 0.61625 0.54724 0.37439 0.0
H3521 H 0.62769 0.57466 0.37238 0.0
C3522 C 0.61984 0.92066 0.5693 0.0
C3523 C 0.61947 0.90994 0.55591 0.0
C3524 C 0.6207 0.91458 0.58524 0.0
C3525 C 0.63471 0.878 0.60741 0.0
H3526 H 0.61637 0.90061 0.64473 0.0
C3527 C 0.63398 0.87541 0.68298 0.0
C3528 C 0.65077 0.87297 0.68565 0.0
C3529 C 0.62793 0.87748 0.66713 0.0
C3530 C 0.62138 0.89396 0.63446 0.0
H3531 H 0.61867 0.88445 0.54879 0.0
H3532 H 0.61979 0.87386 0.57659 0.0
H3533 H 0.60874 0.90903 0.61723 0.0
H3534 H 0.67424 0.87007 0.67371 0.0
H3535 H 0.66378 0.87385 0.64621 0.0
H3536 H 0.64733 0.86292 0.62461 0.0
C3537 C 0.61984 0.88696 0.57478 0.0
C3538 C 0.61716 0.89894 0.61867 0.0
C3539 C 0.61909 0.89304 0.55884 0.0
C3540 C 0.66124 0.87191 0.6721 0.0
C3541 C 0.65521 0.874 0.65628 0.0
C3542 C 0.63887 0.87299 0.62318 0.0
C3543 C 0.62109 0.89765 0.58816 0.0
C3544 C 0.62405 0.89125 0.60494 0.0
C3545 C 0.63853 0.87715 0.65361 0.0
C3546 C 0.63256 0.88114 0.6369 0.0
H3547 H 0.62018 0.93375 0.56747 0.0
H3548 H 0.62181 0.92319 0.59521 0.0
H3549 H 0.64038 0.87186 0.59716 0.0
H3550 H 0.62557 0.87623 0.69317 0.0
H3551 H 0.61498 0.87964 0.66549 0.0
loop_
_geom_bond_atom_site_label_1
_geom_bond_atom_site_label_2
_geom_bond_distance
_geom_bond_site_symmetry_2
_ccdc_geom_bond_type
O0 Cd1 2.223 . S
O0 C8 1.315 . S
Cd1 O0 2.223 . S
Cd1 O4 2.297 . S
Cd1 O5 2.439 . S
Cd1 O11 2.240 . S
Cd2 O3 2.240 . S
Cd2 O10 2.223 . S
Cd2 O12 2.297 . S
Cd2 O13 2.439 . S
O3 Cd2 2.240 . S
O3 C8 1.279 . S
O4 Cd1 2.297 . S
O4 C6 1.247 . S
O5 Cd1 2.439 . S
O5 C6 1.208 . S
C6 O4 1.247 . S
C6 O5 1.208 . S
C7 O12 1.247 . S
C7 O13 1.208 . S
C8 O0 1.315 . S
C8 O3 1.279 . S
C9 O10 1.315 . S
C9 O11 1.279 . S
O10 Cd2 2.223 . S
O10 C9 1.315 . S
O11 Cd1 2.240 . S
O11 C9 1.279 . S
O12 Cd2 2.297 . S
O12 C7 1.247 . S
O13 Cd2 2.439 . S
O13 C7 1.208 . S
O14 Cd15 2.223 . S
O14 C22 1.315 . S
Cd15 O14 2.223 . S
Cd15 O18 2.297 . S
Cd15 O19 2.439 . S
Cd15 O25 2.240 . S
Cd16 O17 2.240 . S
Cd16 O24 2.223 . S
Cd16 O26 2.297 . S
Cd16 O27 2.439 . S
O17 Cd16 2.240 . S
O17 C22 1.279 1_655 S
O18 Cd15 2.297 . S
O18 C20 1.247 . S
O19 Cd15 2.439 . S
O19 C20 1.208 . S
C20 O18 1.247 . S
C20 O19 1.208 . S
C21 O26 1.247 . S
C21 O27 1.208 . S
C22 O14 1.315 . S
C22 O17 1.279 1_455 S
C23 O24 1.315 1_455 S
C23 O25 1.279 . S
O24 Cd16 2.223 . S
O24 C23 1.315 1_655 S
O25 Cd15 2.240 . S
O25 C23 1.279 . S
O26 Cd16 2.297 . S
O26 C21 1.247 . S
O27 Cd16 2.439 . S
O27 C21 1.208 . S
O28 Cd29 2.223 . S
O28 C36 1.315 . S
Cd29 O28 2.223 . S
Cd29 O32 2.297 . S
Cd29 O33 2.439 . S
Cd29 O39 2.240 . S
Cd30 O31 2.240 . S
Cd30 O38 2.223 . S
Cd30 O40 2.297 . S
Cd30 O41 2.439 . S
O31 Cd30 2.240 . S
O31 C36 1.279 . S
O32 Cd29 2.297 . S
O32 C34 1.247 . S
O33 Cd29 2.439 . S
O33 C34 1.208 . S
C34 O32 1.247 . S
C34 O33 1.208 . S
C35 O40 1.247 . S
C35 O41 1.208 . S
C36 O28 1.315 . S
C36 O31 1.279 . S
C37 O38 1.315 . S
C37 O39 1.279 . S
O38 Cd30 2.223 . S
O38 C37 1.315 . S
O39 Cd29 2.240 . S
O39 C37 1.279 . S
O40 Cd30 2.297 . S
O40 C35 1.247 . S
O41 Cd30 2.439 . S
O41 C35 1.208 . S
O42 Cd43 2.223 . S
O42 C50 1.315 . S
Cd43 O42 2.223 . S
Cd43 O46 2.297 . S
Cd43 O47 2.439 . S
Cd43 O53 2.240 . S
Cd44 O45 2.240 . S
Cd44 O52 2.223 . S
Cd44 O54 2.297 . S
Cd44 O55 2.439 . S
O45 Cd44 2.240 . S
O45 C50 1.279 . S
O46 Cd43 2.297 . S
O46 C48 1.247 . S
O47 Cd43 2.439 . S
O47 C48 1.208 . S
C48 O46 1.247 . S
C48 O47 1.208 . S
C49 O54 1.247 . S
C49 O55 1.208 . S
C50 O42 1.315 . S
C50 O45 1.279 . S
C51 O52 1.315 . S
C51 O53 1.279 . S
O52 Cd44 2.223 . S
O52 C51 1.315 . S
O53 Cd43 2.240 . S
O53 C51 1.279 . S
O54 Cd44 2.297 . S
O54 C49 1.247 . S
O55 Cd44 2.439 . S
O55 C49 1.208 . S
O56 Cd57 2.223 . S
O56 C64 1.315 . S
Cd57 O56 2.223 . S
Cd57 O60 2.297 . S
Cd57 O61 2.439 . S
Cd57 O67 2.240 . S
Cd58 O59 2.240 . S
Cd58 O66 2.223 . S
Cd58 O68 2.297 . S
Cd58 O69 2.439 . S
O59 Cd58 2.240 . S
O59 C64 1.279 . S
O60 Cd57 2.297 . S
O60 C62 1.247 . S
O61 Cd57 2.439 . S
O61 C62 1.208 . S
C62 O60 1.247 . S
C62 O61 1.208 . S
C63 O68 1.247 . S
C63 O69 1.208 . S
C64 O56 1.315 . S
C64 O59 1.279 . S
C65 O66 1.315 . S
C65 O67 1.279 . S
O66 Cd58 2.223 . S
O66 C65 1.315 . S
O67 Cd57 2.240 . S
O67 C65 1.279 . S
O68 Cd58 2.297 . S
O68 C63 1.247 . S
O69 Cd58 2.439 . S
O69 C63 1.208 . S
O70 Cd71 2.223 . S
O70 C78 1.315 . S
Cd71 O70 2.223 . S
Cd71 O74 2.297 . S
Cd71 O75 2.439 . S
Cd71 O81 2.240 . S
Cd72 O73 2.240 . S
Cd72 O80 2.223 . S
Cd72 O82 2.297 . S
Cd72 O83 2.439 . S
O73 Cd72 2.240 . S
O73 C78 1.279 . S
O74 Cd71 2.297 . S
O74 C76 1.247 . S
O75 Cd71 2.439 . S
O75 C76 1.208 . S
C76 O74 1.247 . S
C76 O75 1.208 . S
C77 O82 1.247 . S
C77 O83 1.208 . S
C78 O70 1.315 . S
C78 O73 1.279 . S
C79 O80 1.315 . S
C79 O81 1.279 . S
O80 Cd72 2.223 . S
O80 C79 1.315 . S
O81 Cd71 2.240 . S
O81 C79 1.279 . S
O82 Cd72 2.297 . S
O82 C77 1.247 . S
O83 Cd72 2.439 . S
O83 C77 1.208 . S
O84 Cd85 2.223 . S
O84 C92 1.315 . S
Cd85 O84 2.223 . S
Cd85 O88 2.297 . S
Cd85 O89 2.439 . S
Cd85 O95 2.240 . S
Cd86 O87 2.240 . S
Cd86 O94 2.223 . S
Cd86 O96 2.297 . S
Cd86 O97 2.439 . S
O87 Cd86 2.240 . S
O87 C92 1.279 . S
O88 Cd85 2.297 . S
O88 C90 1.247 . S
O89 Cd85 2.439 . S
O89 C90 1.208 . S
C90 O88 1.247 . S
C90 O89 1.208 . S
C91 O96 1.247 . S
C91 O97 1.208 . S
C92 O84 1.315 . S
C92 O87 1.279 . S
C93 O94 1.315 . S
C93 O95 1.279 . S
O94 Cd86 2.223 . S
O94 C93 1.315 . S
O95 Cd85 2.240 . S
O95 C93 1.279 . S
O96 Cd86 2.297 . S
O96 C91 1.247 . S
O97 Cd86 2.439 . S
O97 C91 1.208 . S
O98 Cd99 2.223 . S
O98 C106 1.315 . S
Cd99 O98 2.223 . S
Cd99 O102 2.297 . S
Cd99 O103 2.439 . S
Cd99 O109 2.240 . S
Cd100 O101 2.240 . S
Cd100 O108 2.223 . S
Cd100 O110 2.297 . S
Cd100 O111 2.439 . S
O101 Cd100 2.240 . S
O101 C106 1.279 1_655 S
O102 Cd99 2.297 . S
O102 C104 1.247 . S
O103 Cd99 2.439 . S
O103 C104 1.208 . S
C104 O102 1.247 . S
C104 O103 1.208 . S
C105 O110 1.247 . S
C105 O111 1.208 . S
C106 O98 1.315 . S
C106 O101 1.279 1_455 S
C107 O108 1.315 1_455 S
C107 O109 1.279 . S
O108 Cd100 2.223 . S
O108 C107 1.315 1_655 S
O109 Cd99 2.240 . S
O109 C107 1.279 . S
O110 Cd100 2.297 . S
O110 C105 1.247 . S
O111 Cd100 2.439 . S
O111 C105 1.208 . S
O112 Cd113 2.223 . S
O112 C120 1.315 . S
Cd113 O112 2.223 . S
Cd113 O116 2.297 . S
Cd113 O117 2.439 . S
Cd113 O123 2.240 . S
Cd114 O115 2.240 . S
Cd114 O122 2.223 . S
Cd114 O124 2.297 . S
Cd114 O125 2.439 . S
O115 Cd114 2.240 . S
O115 C120 1.279 . S
O116 Cd113 2.297 . S
O116 C118 1.247 . S
O117 Cd113 2.439 . S
O117 C118 1.208 . S
C118 O116 1.247 . S
C118 O117 1.208 . S
C119 O124 1.247 . S
C119 O125 1.208 . S
C120 O112 1.315 . S
C120 O115 1.279 . S
C121 O122 1.315 . S
C121 O123 1.279 . S
O122 Cd114 2.223 . S
O122 C121 1.315 . S
O123 Cd113 2.240 . S
O123 C121 1.279 . S
O124 Cd114 2.297 . S
O124 C119 1.247 . S
O125 Cd114 2.439 . S
O125 C119 1.208 . S
O126 Cd127 2.223 . S
O126 C134 1.315 . S
Cd127 O126 2.223 . S
Cd127 O130 2.297 . S
Cd127 O131 2.439 . S
Cd127 O137 2.240 . S
Cd128 O129 2.240 . S
Cd128 O136 2.223 . S
Cd128 O138 2.297 . S
Cd128 O139 2.439 . S
O129 Cd128 2.240 . S
O129 C134 1.279 . S
O130 Cd127 2.297 . S
O130 C132 1.247 . S
O131 Cd127 2.439 . S
O131 C132 1.208 . S
C132 O130 1.247 . S
C132 O131 1.208 . S
C133 O138 1.247 . S
C133 O139 1.208 . S
C134 O126 1.315 . S
C134 O129 1.279 . S
C135 O136 1.315 . S
C135 O137 1.279 . S
O136 Cd128 2.223 . S
O136 C135 1.315 . S
O137 Cd127 2.240 . S
O137 C135 1.279 . S
O138 Cd128 2.297 . S
O138 C133 1.247 . S
O139 Cd128 2.439 . S
O139 C133 1.208 . S
O140 Cd141 2.223 . S
O140 C148 1.315 . S
Cd141 O140 2.223 . S
Cd141 O144 2.297 . S
Cd141 O145 2.439 . S
Cd141 O151 2.240 . S
Cd142 O143 2.240 . S
Cd142 O150 2.223 . S
Cd142 O152 2.297 . S
Cd142 O153 2.439 . S
O143 Cd142 2.240 . S
O143 C148 1.279 . S
O144 Cd141 2.297 . S
O144 C146 1.247 . S
O145 Cd141 2.439 . S
O145 C146 1.208 . S
C146 O144 1.247 . S
C146 O145 1.208 . S
C147 O152 1.247 . S
C147 O153 1.208 . S
C148 O140 1.315 . S
C148 O143 1.279 . S
C149 O150 1.315 . S
C149 O151 1.279 . S
O150 Cd142 2.223 . S
O150 C149 1.315 . S
O151 Cd141 2.240 . S
O151 C149 1.279 . S
O152 Cd142 2.297 . S
O152 C147 1.247 . S
O153 Cd142 2.439 . S
O153 C147 1.208 . S
O154 Cd155 2.223 . S
O154 C162 1.315 . S
Cd155 O154 2.223 . S
Cd155 O158 2.297 . S
Cd155 O159 2.439 . S
Cd155 O165 2.240 . S
Cd156 O157 2.240 . S
Cd156 O164 2.223 . S
Cd156 O166 2.297 . S
Cd156 O167 2.439 . S
O157 Cd156 2.240 . S
O157 C162 1.279 1_554 S
O158 Cd155 2.297 . S
O158 C160 1.247 . S
O159 Cd155 2.439 . S
O159 C160 1.208 . S
C160 O158 1.247 . S
C160 O159 1.208 . S
C161 O166 1.247 . S
C161 O167 1.208 . S
C162 O154 1.315 . S
C162 O157 1.279 1_556 S
C163 O164 1.315 1_556 S
C163 O165 1.279 . S
O164 Cd156 2.223 . S
O164 C163 1.315 1_554 S
O165 Cd155 2.240 . S
O165 C163 1.279 . S
O166 Cd156 2.297 . S
O166 C161 1.247 . S
O167 Cd156 2.439 . S
O167 C161 1.208 . S
O168 Cd169 2.223 . S
O168 C176 1.315 . S
Cd169 O168 2.223 . S
Cd169 O172 2.297 . S
Cd169 O173 2.439 . S
Cd169 O179 2.240 . S
Cd170 O171 2.240 . S
Cd170 O178 2.223 . S
Cd170 O180 2.297 . S
Cd170 O181 2.439 . S
O171 Cd170 2.240 . S
O171 C176 1.279 . S
O172 Cd169 2.297 . S
O172 C174 1.247 . S
O173 Cd169 2.439 . S
O173 C174 1.208 . S
C174 O172 1.247 . S
C174 O173 1.208 . S
C175 O180 1.247 . S
C175 O181 1.208 . S
C176 O168 1.315 . S
C176 O171 1.279 . S
C177 O178 1.315 . S
C177 O179 1.279 . S
O178 Cd170 2.223 . S
O178 C177 1.315 . S
O179 Cd169 2.240 . S
O179 C177 1.279 . S
O180 Cd170 2.297 . S
O180 C175 1.247 . S
O181 Cd170 2.439 . S
O181 C175 1.208 . S
O182 Cd183 2.223 . S
O182 C190 1.315 . S
Cd183 O182 2.223 . S
Cd183 O186 2.297 . S
Cd183 O187 2.439 . S
Cd183 O193 2.240 . S
Cd184 O185 2.240 . S
Cd184 O192 2.223 . S
Cd184 O194 2.297 . S
Cd184 O195 2.439 . S
O185 Cd184 2.240 . S
O185 C190 1.279 . S
O186 Cd183 2.297 . S
O186 C188 1.247 . S
O187 Cd183 2.439 . S
O187 C188 1.208 . S
C188 O186 1.247 . S
C188 O187 1.208 . S
C189 O194 1.247 . S
C189 O195 1.208 . S
C190 O182 1.315 . S
C190 O185 1.279 . S
C191 O192 1.315 . S
C191 O193 1.279 . S
O192 Cd184 2.223 . S
O192 C191 1.315 . S
O193 Cd183 2.240 . S
O193 C191 1.279 . S
O194 Cd184 2.297 . S
O194 C189 1.247 . S
O195 Cd184 2.439 . S
O195 C189 1.208 . S
O196 Cd197 2.223 . S
O196 C204 1.315 . S
Cd197 O196 2.223 . S
Cd197 O200 2.297 . S
Cd197 O201 2.439 . S
Cd197 O207 2.240 . S
Cd198 O199 2.240 . S
Cd198 O206 2.223 . S
Cd198 O208 2.297 . S
Cd198 O209 2.439 . S
O199 Cd198 2.240 . S
O199 C204 1.279 . S
O200 Cd197 2.297 . S
O200 C202 1.247 . S
O201 Cd197 2.439 . S
O201 C202 1.208 . S
C202 O200 1.247 . S
C202 O201 1.208 . S
C203 O208 1.247 . S
C203 O209 1.208 . S
C204 O196 1.315 . S
C204 O199 1.279 . S
C205 O206 1.315 . S
C205 O207 1.279 . S
O206 Cd198 2.223 . S
O206 C205 1.315 . S
O207 Cd197 2.240 . S
O207 C205 1.279 . S
O208 Cd198 2.297 . S
O208 C203 1.247 . S
O209 Cd198 2.439 . S
O209 C203 1.208 . S
O210 Cd211 2.223 . S
O210 C218 1.315 . S
Cd211 O210 2.223 . S
Cd211 O214 2.297 . S
Cd211 O215 2.439 . S
Cd211 O221 2.240 . S
Cd212 O213 2.240 . S
Cd212 O220 2.223 . S
Cd212 O222 2.297 . S
Cd212 O223 2.439 . S
O213 Cd212 2.240 . S
O213 C218 1.279 1_556 S
O214 Cd211 2.297 . S
O214 C216 1.247 . S
O215 Cd211 2.439 . S
O215 C216 1.208 . S
C216 O214 1.247 . S
C216 O215 1.208 . S
C217 O222 1.247 . S
C217 O223 1.208 . S
C218 O210 1.315 . S
C218 O213 1.279 1_554 S
C219 O220 1.315 1_554 S
C219 O221 1.279 . S
O220 Cd212 2.223 . S
O220 C219 1.315 1_556 S
O221 Cd211 2.240 . S
O221 C219 1.279 . S
O222 Cd212 2.297 . S
O222 C217 1.247 . S
O223 Cd212 2.439 . S
O223 C217 1.208 . S
O224 Cd225 2.223 . S
O224 C232 1.315 . S
Cd225 O224 2.223 . S
Cd225 O228 2.297 . S
Cd225 O229 2.439 . S
Cd225 O235 2.240 . S
Cd226 O227 2.240 . S
Cd226 O234 2.223 . S
Cd226 O236 2.297 . S
Cd226 O237 2.439 . S
O227 Cd226 2.240 . S
O227 C232 1.279 . S
O228 Cd225 2.297 . S
O228 C230 1.247 . S
O229 Cd225 2.439 . S
O229 C230 1.208 . S
C230 O228 1.247 . S
C230 O229 1.208 . S
C231 O236 1.247 . S
C231 O237 1.208 . S
C232 O224 1.315 . S
C232 O227 1.279 . S
C233 O234 1.315 . S
C233 O235 1.279 . S
O234 Cd226 2.223 . S
O234 C233 1.315 . S
O235 Cd225 2.240 . S
O235 C233 1.279 . S
O236 Cd226 2.297 . S
O236 C231 1.247 . S
O237 Cd226 2.439 . S
O237 C231 1.208 . S
O238 Cd239 2.223 . S
O238 C246 1.315 . S
Cd239 O238 2.223 . S
Cd239 O242 2.297 . S
Cd239 O243 2.439 . S
Cd239 O249 2.240 . S
Cd240 O241 2.240 . S
Cd240 O248 2.223 . S
Cd240 O250 2.297 . S
Cd240 O251 2.439 . S
O241 Cd240 2.240 . S
O241 C246 1.279 . S
O242 Cd239 2.297 . S
O242 C244 1.247 . S
O243 Cd239 2.439 . S
O243 C244 1.208 . S
C244 O242 1.247 . S
C244 O243 1.208 . S
C245 O250 1.247 . S
C245 O251 1.208 . S
C246 O238 1.315 . S
C246 O241 1.279 . S
C247 O248 1.315 . S
C247 O249 1.279 . S
O248 Cd240 2.223 . S
O248 C247 1.315 . S
O249 Cd239 2.240 . S
O249 C247 1.279 . S
O250 Cd240 2.297 . S
O250 C245 1.247 . S
O251 Cd240 2.439 . S
O251 C245 1.208 . S
O252 Cd253 2.223 . S
O252 C260 1.315 . S
Cd253 O252 2.223 . S
Cd253 O256 2.297 . S
Cd253 O257 2.439 . S
Cd253 O263 2.240 . S
Cd254 O255 2.240 . S
Cd254 O262 2.223 . S
Cd254 O264 2.297 . S
Cd254 O265 2.439 . S
O255 Cd254 2.240 . S
O255 C260 1.279 . S
O256 Cd253 2.297 . S
O256 C258 1.247 . S
O257 Cd253 2.439 . S
O257 C258 1.208 . S
C258 O256 1.247 . S
C258 O257 1.208 . S
C259 O264 1.247 . S
C259 O265 1.208 . S
C260 O252 1.315 . S
C260 O255 1.279 . S
C261 O262 1.315 . S
C261 O263 1.279 . S
O262 Cd254 2.223 . S
O262 C261 1.315 . S
O263 Cd253 2.240 . S
O263 C261 1.279 . S
O264 Cd254 2.297 . S
O264 C259 1.247 . S
O265 Cd254 2.439 . S
O265 C259 1.208 . S
O266 Cd267 2.223 . S
O266 C274 1.315 . S
Cd267 O266 2.223 . S
Cd267 O270 2.297 . S
Cd267 O271 2.439 . S
Cd267 O277 2.240 . S
Cd268 O269 2.240 . S
Cd268 O276 2.223 . S
Cd268 O278 2.297 . S
Cd268 O279 2.439 . S
O269 Cd268 2.240 . S
O269 C274 1.279 . S
O270 Cd267 2.297 . S
O270 C272 1.247 . S
O271 Cd267 2.439 . S
O271 C272 1.208 . S
C272 O270 1.247 . S
C272 O271 1.208 . S
C273 O278 1.247 . S
C273 O279 1.208 . S
C274 O266 1.315 . S
C274 O269 1.279 . S
C275 O276 1.315 . S
C275 O277 1.279 . S
O276 Cd268 2.223 . S
O276 C275 1.315 . S
O277 Cd267 2.240 . S
O277 C275 1.279 . S
O278 Cd268 2.297 . S
O278 C273 1.247 . S
O279 Cd268 2.439 . S
O279 C273 1.208 . S
O280 Cd281 2.223 . S
O280 C288 1.315 . S
Cd281 O280 2.223 . S
Cd281 O284 2.297 . S
Cd281 O285 2.439 . S
Cd281 O291 2.240 . S
Cd282 O283 2.240 . S
Cd282 O290 2.223 . S
Cd282 O292 2.297 . S
Cd282 O293 2.439 . S
O283 Cd282 2.240 . S
O283 C288 1.279 1_565 S
O284 Cd281 2.297 . S
O284 C286 1.247 . S
O285 Cd281 2.439 . S
O285 C286 1.208 . S
C286 O284 1.247 . S
C286 O285 1.208 . S
C287 O292 1.247 . S
C287 O293 1.208 . S
C288 O280 1.315 . S
C288 O283 1.279 1_545 S
C289 O290 1.315 1_545 S
C289 O291 1.279 . S
O290 Cd282 2.223 . S
O290 C289 1.315 1_565 S
O291 Cd281 2.240 . S
O291 C289 1.279 . S
O292 Cd282 2.297 . S
O292 C287 1.247 . S
O293 Cd282 2.439 . S
O293 C287 1.208 . S
O294 Cd295 2.223 . S
O294 C302 1.315 . S
Cd295 O294 2.223 . S
Cd295 O298 2.297 . S
Cd295 O299 2.439 . S
Cd295 O305 2.240 . S
Cd296 O297 2.240 . S
Cd296 O304 2.223 . S
Cd296 O306 2.297 . S
Cd296 O307 2.439 . S
O297 Cd296 2.240 . S
O297 C302 1.279 . S
O298 Cd295 2.297 . S
O298 C300 1.247 . S
O299 Cd295 2.439 . S
O299 C300 1.208 . S
C300 O298 1.247 . S
C300 O299 1.208 . S
C301 O306 1.247 . S
C301 O307 1.208 . S
C302 O294 1.315 . S
C302 O297 1.279 . S
C303 O304 1.315 . S
C303 O305 1.279 . S
O304 Cd296 2.223 . S
O304 C303 1.315 . S
O305 Cd295 2.240 . S
O305 C303 1.279 . S
O306 Cd296 2.297 . S
O306 C301 1.247 . S
O307 Cd296 2.439 . S
O307 C301 1.208 . S
O308 Cd309 2.223 . S
O308 C316 1.315 . S
Cd309 O308 2.223 . S
Cd309 O312 2.297 . S
Cd309 O313 2.439 . S
Cd309 O319 2.240 . S
Cd310 O311 2.240 . S
Cd310 O318 2.223 . S
Cd310 O320 2.297 . S
Cd310 O321 2.439 . S
O311 Cd310 2.240 . S
O311 C316 1.279 . S
O312 Cd309 2.297 . S
O312 C314 1.247 . S
O313 Cd309 2.439 . S
O313 C314 1.208 . S
C314 O312 1.247 . S
C314 O313 1.208 . S
C315 O320 1.247 . S
C315 O321 1.208 . S
C316 O308 1.315 . S
C316 O311 1.279 . S
C317 O318 1.315 . S
C317 O319 1.279 . S
O318 Cd310 2.223 . S
O318 C317 1.315 . S
O319 Cd309 2.240 . S
O319 C317 1.279 . S
O320 Cd310 2.297 . S
O320 C315 1.247 . S
O321 Cd310 2.439 . S
O321 C315 1.208 . S
O322 Cd323 2.223 . S
O322 C330 1.315 . S
Cd323 O322 2.223 . S
Cd323 O326 2.297 . S
Cd323 O327 2.439 . S
Cd323 O333 2.240 . S
Cd324 O325 2.240 . S
Cd324 O332 2.223 . S
Cd324 O334 2.297 . S
Cd324 O335 2.439 . S
O325 Cd324 2.240 . S
O325 C330 1.279 . S
O326 Cd323 2.297 . S
O326 C328 1.247 . S
O327 Cd323 2.439 . S
O327 C328 1.208 . S
C328 O326 1.247 . S
C328 O327 1.208 . S
C329 O334 1.247 . S
C329 O335 1.208 . S
C330 O322 1.315 . S
C330 O325 1.279 . S
C331 O332 1.315 . S
C331 O333 1.279 . S
O332 Cd324 2.223 . S
O332 C331 1.315 . S
O333 Cd323 2.240 . S
O333 C331 1.279 . S
O334 Cd324 2.297 . S
O334 C329 1.247 . S
O335 Cd324 2.439 . S
O335 C329 1.208 . S
O336 Cd337 2.223 . S
O336 C344 1.315 . S
Cd337 O336 2.223 . S
Cd337 O340 2.297 . S
Cd337 O341 2.439 . S
Cd337 O347 2.240 . S
Cd338 O339 2.240 . S
Cd338 O346 2.223 . S
Cd338 O348 2.297 . S
Cd338 O349 2.439 . S
O339 Cd338 2.240 . S
O339 C344 1.279 . S
O340 Cd337 2.297 . S
O340 C342 1.247 . S
O341 Cd337 2.439 . S
O341 C342 1.208 . S
C342 O340 1.247 . S
C342 O341 1.208 . S
C343 O348 1.247 . S
C343 O349 1.208 . S
C344 O336 1.315 . S
C344 O339 1.279 . S
C345 O346 1.315 . S
C345 O347 1.279 . S
O346 Cd338 2.223 . S
O346 C345 1.315 . S
O347 Cd337 2.240 . S
O347 C345 1.279 . S
O348 Cd338 2.297 . S
O348 C343 1.247 . S
O349 Cd338 2.439 . S
O349 C343 1.208 . S
O350 Cd351 2.223 . S
O350 C358 1.315 . S
Cd351 O350 2.223 . S
Cd351 O354 2.297 . S
Cd351 O355 2.439 . S
Cd351 O361 2.240 . S
Cd352 O353 2.240 . S
Cd352 O360 2.223 . S
Cd352 O362 2.297 . S
Cd352 O363 2.439 . S
O353 Cd352 2.240 . S
O353 C358 1.279 . S
O354 Cd351 2.297 . S
O354 C356 1.247 . S
O355 Cd351 2.439 . S
O355 C356 1.208 . S
C356 O354 1.247 . S
C356 O355 1.208 . S
C357 O362 1.247 . S
C357 O363 1.208 . S
C358 O350 1.315 . S
C358 O353 1.279 . S
C359 O360 1.315 . S
C359 O361 1.279 . S
O360 Cd352 2.223 . S
O360 C359 1.315 . S
O361 Cd351 2.240 . S
O361 C359 1.279 . S
O362 Cd352 2.297 . S
O362 C357 1.247 . S
O363 Cd352 2.439 . S
O363 C357 1.208 . S
O364 Cd365 2.223 . S
O364 C372 1.315 . S
Cd365 O364 2.223 . S
Cd365 O368 2.297 . S
Cd365 O369 2.439 . S
Cd365 O375 2.240 . S
Cd366 O367 2.240 . S
Cd366 O374 2.223 . S
Cd366 O376 2.297 . S
Cd366 O377 2.439 . S
O367 Cd366 2.240 . S
O367 C372 1.279 . S
O368 Cd365 2.297 . S
O368 C370 1.247 . S
O369 Cd365 2.439 . S
O369 C370 1.208 . S
C370 O368 1.247 . S
C370 O369 1.208 . S
C371 O376 1.247 . S
C371 O377 1.208 . S
C372 O364 1.315 . S
C372 O367 1.279 . S
C373 O374 1.315 . S
C373 O375 1.279 . S
O374 Cd366 2.223 . S
O374 C373 1.315 . S
O375 Cd365 2.240 . S
O375 C373 1.279 . S
O376 Cd366 2.297 . S
O376 C371 1.247 . S
O377 Cd366 2.439 . S
O377 C371 1.208 . S
O378 Cd379 2.223 . S
O378 C386 1.315 . S
Cd379 O378 2.223 . S
Cd379 O382 2.297 . S
Cd379 O383 2.439 . S
Cd379 O389 2.240 . S
Cd380 O381 2.240 . S
Cd380 O388 2.223 . S
Cd380 O390 2.297 . S
Cd380 O391 2.439 . S
O381 Cd380 2.240 . S
O381 C386 1.279 1_455 S
O382 Cd379 2.297 . S
O382 C384 1.247 . S
O383 Cd379 2.439 . S
O383 C384 1.208 . S
C384 O382 1.247 . S
C384 O383 1.208 . S
C385 O390 1.247 . S
C385 O391 1.208 . S
C386 O378 1.315 . S
C386 O381 1.279 1_655 S
C387 O388 1.315 1_655 S
C387 O389 1.279 . S
O388 Cd380 2.223 . S
O388 C387 1.315 1_455 S
O389 Cd379 2.240 . S
O389 C387 1.279 . S
O390 Cd380 2.297 . S
O390 C385 1.247 . S
O391 Cd380 2.439 . S
O391 C385 1.208 . S
O392 Cd393 2.223 . S
O392 C400 1.315 . S
Cd393 O392 2.223 . S
Cd393 O396 2.297 . S
Cd393 O397 2.439 . S
Cd393 O403 2.240 . S
Cd394 O395 2.240 . S
Cd394 O402 2.223 . S
Cd394 O404 2.297 . S
Cd394 O405 2.439 . S
O395 Cd394 2.240 . S
O395 C400 1.279 . S
O396 Cd393 2.297 . S
O396 C398 1.247 . S
O397 Cd393 2.439 . S
O397 C398 1.208 . S
C398 O396 1.247 . S
C398 O397 1.208 . S
C399 O404 1.247 . S
C399 O405 1.208 . S
C400 O392 1.315 . S
C400 O395 1.279 . S
C401 O402 1.315 . S
C401 O403 1.279 . S
O402 Cd394 2.223 . S
O402 C401 1.315 . S
O403 Cd393 2.240 . S
O403 C401 1.279 . S
O404 Cd394 2.297 . S
O404 C399 1.247 . S
O405 Cd394 2.439 . S
O405 C399 1.208 . S
O406 Cd407 2.223 . S
O406 C414 1.315 . S
Cd407 O406 2.223 . S
Cd407 O410 2.297 . S
Cd407 O411 2.439 . S
Cd407 O417 2.240 . S
Cd408 O409 2.240 . S
Cd408 O416 2.223 . S
Cd408 O418 2.297 . S
Cd408 O419 2.439 . S
O409 Cd408 2.240 . S
O409 C414 1.279 1_455 S
O410 Cd407 2.297 . S
O410 C412 1.247 . S
O411 Cd407 2.439 . S
O411 C412 1.208 . S
C412 O410 1.247 . S
C412 O411 1.208 . S
C413 O418 1.247 . S
C413 O419 1.208 . S
C414 O406 1.315 . S
C414 O409 1.279 1_655 S
C415 O416 1.315 1_655 S
C415 O417 1.279 . S
O416 Cd408 2.223 . S
O416 C415 1.315 1_455 S
O417 Cd407 2.240 . S
O417 C415 1.279 . S
O418 Cd408 2.297 . S
O418 C413 1.247 . S
O419 Cd408 2.439 . S
O419 C413 1.208 . S
O420 Cd421 2.223 . S
O420 C428 1.315 . S
Cd421 O420 2.223 . S
Cd421 O424 2.297 . S
Cd421 O425 2.439 . S
Cd421 O431 2.240 . S
Cd422 O423 2.240 . S
Cd422 O430 2.223 . S
Cd422 O432 2.297 . S
Cd422 O433 2.439 . S
O423 Cd422 2.240 . S
O423 C428 1.279 . S
O424 Cd421 2.297 . S
O424 C426 1.247 . S
O425 Cd421 2.439 . S
O425 C426 1.208 . S
C426 O424 1.247 . S
C426 O425 1.208 . S
C427 O432 1.247 . S
C427 O433 1.208 . S
C428 O420 1.315 . S
C428 O423 1.279 . S
C429 O430 1.315 . S
C429 O431 1.279 . S
O430 Cd422 2.223 . S
O430 C429 1.315 . S
O431 Cd421 2.240 . S
O431 C429 1.279 . S
O432 Cd422 2.297 . S
O432 C427 1.247 . S
O433 Cd422 2.439 . S
O433 C427 1.208 . S
O434 Cd435 2.223 . S
O434 C442 1.315 . S
Cd435 O434 2.223 . S
Cd435 O438 2.297 . S
Cd435 O439 2.439 . S
Cd435 O445 2.240 . S
Cd436 O437 2.240 . S
Cd436 O444 2.223 . S
Cd436 O446 2.297 . S
Cd436 O447 2.439 . S
O437 Cd436 2.240 . S
O437 C442 1.279 . S
O438 Cd435 2.297 . S
O438 C440 1.247 . S
O439 Cd435 2.439 . S
O439 C440 1.208 . S
C440 O438 1.247 . S
C440 O439 1.208 . S
C441 O446 1.247 . S
C441 O447 1.208 . S
C442 O434 1.315 . S
C442 O437 1.279 . S
C443 O444 1.315 . S
C443 O445 1.279 . S
O444 Cd436 2.223 . S
O444 C443 1.315 . S
O445 Cd435 2.240 . S
O445 C443 1.279 . S
O446 Cd436 2.297 . S
O446 C441 1.247 . S
O447 Cd436 2.439 . S
O447 C441 1.208 . S
O448 Cd449 2.223 . S
O448 C456 1.315 . S
Cd449 O448 2.223 . S
Cd449 O452 2.297 . S
Cd449 O453 2.439 . S
Cd449 O459 2.240 . S
Cd450 O451 2.240 . S
Cd450 O458 2.223 . S
Cd450 O460 2.297 . S
Cd450 O461 2.439 . S
O451 Cd450 2.240 . S
O451 C456 1.279 . S
O452 Cd449 2.297 . S
O452 C454 1.247 . S
O453 Cd449 2.439 . S
O453 C454 1.208 . S
C454 O452 1.247 . S
C454 O453 1.208 . S
C455 O460 1.247 . S
C455 O461 1.208 . S
C456 O448 1.315 . S
C456 O451 1.279 . S
C457 O458 1.315 . S
C457 O459 1.279 . S
O458 Cd450 2.223 . S
O458 C457 1.315 . S
O459 Cd449 2.240 . S
O459 C457 1.279 . S
O460 Cd450 2.297 . S
O460 C455 1.247 . S
O461 Cd450 2.439 . S
O461 C455 1.208 . S
O462 Cd463 2.223 . S
O462 C470 1.315 . S
Cd463 O462 2.223 . S
Cd463 O466 2.297 . S
Cd463 O467 2.439 . S
Cd463 O473 2.240 . S
Cd464 O465 2.240 . S
Cd464 O472 2.223 . S
Cd464 O474 2.297 . S
Cd464 O475 2.439 . S
O465 Cd464 2.240 . S
O465 C470 1.279 1_554 S
O466 Cd463 2.297 . S
O466 C468 1.247 . S
O467 Cd463 2.439 . S
O467 C468 1.208 . S
C468 O466 1.247 . S
C468 O467 1.208 . S
C469 O474 1.247 . S
C469 O475 1.208 . S
C470 O462 1.315 . S
C470 O465 1.279 1_556 S
C471 O472 1.315 1_556 S
C471 O473 1.279 . S
O472 Cd464 2.223 . S
O472 C471 1.315 1_554 S
O473 Cd463 2.240 . S
O473 C471 1.279 . S
O474 Cd464 2.297 . S
O474 C469 1.247 . S
O475 Cd464 2.439 . S
O475 C469 1.208 . S
O476 Cd477 2.223 . S
O476 C484 1.315 . S
Cd477 O476 2.223 . S
Cd477 O480 2.297 . S
Cd477 O481 2.439 . S
Cd477 O487 2.240 . S
Cd478 O479 2.240 . S
Cd478 O486 2.223 . S
Cd478 O488 2.297 . S
Cd478 O489 2.439 . S
O479 Cd478 2.240 . S
O479 C484 1.279 . S
O480 Cd477 2.297 . S
O480 C482 1.247 . S
O481 Cd477 2.439 . S
O481 C482 1.208 . S
C482 O480 1.247 . S
C482 O481 1.208 . S
C483 O488 1.247 . S
C483 O489 1.208 . S
C484 O476 1.315 . S
C484 O479 1.279 . S
C485 O486 1.315 . S
C485 O487 1.279 . S
O486 Cd478 2.223 . S
O486 C485 1.315 . S
O487 Cd477 2.240 . S
O487 C485 1.279 . S
O488 Cd478 2.297 . S
O488 C483 1.247 . S
O489 Cd478 2.439 . S
O489 C483 1.208 . S
O490 Cd491 2.223 . S
O490 C498 1.315 . S
Cd491 O490 2.223 . S
Cd491 O494 2.297 . S
Cd491 O495 2.439 . S
Cd491 O501 2.240 . S
Cd492 O493 2.240 . S
Cd492 O500 2.223 . S
Cd492 O502 2.297 . S
Cd492 O503 2.439 . S
O493 Cd492 2.240 . S
O493 C498 1.279 . S
O494 Cd491 2.297 . S
O494 C496 1.247 . S
O495 Cd491 2.439 . S
O495 C496 1.208 . S
C496 O494 1.247 . S
C496 O495 1.208 . S
C497 O502 1.247 . S
C497 O503 1.208 . S
C498 O490 1.315 . S
C498 O493 1.279 . S
C499 O500 1.315 . S
C499 O501 1.279 . S
O500 Cd492 2.223 . S
O500 C499 1.315 . S
O501 Cd491 2.240 . S
O501 C499 1.279 . S
O502 Cd492 2.297 . S
O502 C497 1.247 . S
O503 Cd492 2.439 . S
O503 C497 1.208 . S
O504 Cd505 2.223 . S
O504 C512 1.315 . S
Cd505 O504 2.223 . S
Cd505 O508 2.297 . S
Cd505 O509 2.439 . S
Cd505 O515 2.240 . S
Cd506 O507 2.240 . S
Cd506 O514 2.223 . S
Cd506 O516 2.297 . S
Cd506 O517 2.439 . S
O507 Cd506 2.240 . S
O507 C512 1.279 . S
O508 Cd505 2.297 . S
O508 C510 1.247 . S
O509 Cd505 2.439 . S
O509 C510 1.208 . S
C510 O508 1.247 . S
C510 O509 1.208 . S
C511 O516 1.247 . S
C511 O517 1.208 . S
C512 O504 1.315 . S
C512 O507 1.279 . S
C513 O514 1.315 . S
C513 O515 1.279 . S
O514 Cd506 2.223 . S
O514 C513 1.315 . S
O515 Cd505 2.240 . S
O515 C513 1.279 . S
O516 Cd506 2.297 . S
O516 C511 1.247 . S
O517 Cd506 2.439 . S
O517 C511 1.208 . S
O518 Cd519 2.223 . S
O518 C526 1.315 . S
Cd519 O518 2.223 . S
Cd519 O522 2.297 . S
Cd519 O523 2.439 . S
Cd519 O529 2.240 . S
Cd520 O521 2.240 . S
Cd520 O528 2.223 . S
Cd520 O530 2.297 . S
Cd520 O531 2.439 . S
O521 Cd520 2.240 . S
O521 C526 1.279 1_556 S
O522 Cd519 2.297 . S
O522 C524 1.247 . S
O523 Cd519 2.439 . S
O523 C524 1.208 . S
C524 O522 1.247 . S
C524 O523 1.208 . S
C525 O530 1.247 . S
C525 O531 1.208 . S
C526 O518 1.315 . S
C526 O521 1.279 1_554 S
C527 O528 1.315 1_554 S
C527 O529 1.279 . S
O528 Cd520 2.223 . S
O528 C527 1.315 1_556 S
O529 Cd519 2.240 . S
O529 C527 1.279 . S
O530 Cd520 2.297 . S
O530 C525 1.247 . S
O531 Cd520 2.439 . S
O531 C525 1.208 . S
O532 Cd533 2.223 . S
O532 C540 1.315 . S
Cd533 O532 2.223 . S
Cd533 O536 2.297 . S
Cd533 O537 2.439 . S
Cd533 O543 2.240 . S
Cd534 O535 2.240 . S
Cd534 O542 2.223 . S
Cd534 O544 2.297 . S
Cd534 O545 2.439 . S
O535 Cd534 2.240 . S
O535 C540 1.279 . S
O536 Cd533 2.297 . S
O536 C538 1.247 . S
O537 Cd533 2.439 . S
O537 C538 1.208 . S
C538 O536 1.247 . S
C538 O537 1.208 . S
C539 O544 1.247 . S
C539 O545 1.208 . S
C540 O532 1.315 . S
C540 O535 1.279 . S
C541 O542 1.315 . S
C541 O543 1.279 . S
O542 Cd534 2.223 . S
O542 C541 1.315 . S
O543 Cd533 2.240 . S
O543 C541 1.279 . S
O544 Cd534 2.297 . S
O544 C539 1.247 . S
O545 Cd534 2.439 . S
O545 C539 1.208 . S
O546 Cd547 2.223 . S
O546 C554 1.315 . S
Cd547 O546 2.223 . S
Cd547 O550 2.297 . S
Cd547 O551 2.439 . S
Cd547 O557 2.240 . S
Cd548 O549 2.240 . S
Cd548 O556 2.223 . S
Cd548 O558 2.297 . S
Cd548 O559 2.439 . S
O549 Cd548 2.240 . S
O549 C554 1.279 . S
O550 Cd547 2.297 . S
O550 C552 1.247 . S
O551 Cd547 2.439 . S
O551 C552 1.208 . S
C552 O550 1.247 . S
C552 O551 1.208 . S
C553 O558 1.247 . S
C553 O559 1.208 . S
C554 O546 1.315 . S
C554 O549 1.279 . S
C555 O556 1.315 . S
C555 O557 1.279 . S
O556 Cd548 2.223 . S
O556 C555 1.315 . S
O557 Cd547 2.240 . S
O557 C555 1.279 . S
O558 Cd548 2.297 . S
O558 C553 1.247 . S
O559 Cd548 2.439 . S
O559 C553 1.208 . S
O560 Cd561 2.223 . S
O560 C568 1.315 . S
Cd561 O560 2.223 . S
Cd561 O564 2.297 . S
Cd561 O565 2.439 . S
Cd561 O571 2.240 . S
Cd562 O563 2.240 . S
Cd562 O570 2.223 . S
Cd562 O572 2.297 . S
Cd562 O573 2.439 . S
O563 Cd562 2.240 . S
O563 C568 1.279 . S
O564 Cd561 2.297 . S
O564 C566 1.247 . S
O565 Cd561 2.439 . S
O565 C566 1.208 . S
C566 O564 1.247 . S
C566 O565 1.208 . S
C567 O572 1.247 . S
C567 O573 1.208 . S
C568 O560 1.315 . S
C568 O563 1.279 . S
C569 O570 1.315 . S
C569 O571 1.279 . S
O570 Cd562 2.223 . S
O570 C569 1.315 . S
O571 Cd561 2.240 . S
O571 C569 1.279 . S
O572 Cd562 2.297 . S
O572 C567 1.247 . S
O573 Cd562 2.439 . S
O573 C567 1.208 . S
O574 Cd575 2.223 . S
O574 C582 1.315 . S
Cd575 O574 2.223 . S
Cd575 O578 2.297 . S
Cd575 O579 2.439 . S
Cd575 O585 2.240 . S
Cd576 O577 2.240 . S
Cd576 O584 2.223 . S
Cd576 O586 2.297 . S
Cd576 O587 2.439 . S
O577 Cd576 2.240 . S
O577 C582 1.279 . S
O578 Cd575 2.297 . S
O578 C580 1.247 . S
O579 Cd575 2.439 . S
O579 C580 1.208 . S
C580 O578 1.247 . S
C580 O579 1.208 . S
C581 O586 1.247 . S
C581 O587 1.208 . S
C582 O574 1.315 . S
C582 O577 1.279 . S
C583 O584 1.315 . S
C583 O585 1.279 . S
O584 Cd576 2.223 . S
O584 C583 1.315 . S
O585 Cd575 2.240 . S
O585 C583 1.279 . S
O586 Cd576 2.297 . S
O586 C581 1.247 . S
O587 Cd576 2.439 . S
O587 C581 1.208 . S
O588 Cd589 2.223 . S
O588 C596 1.315 . S
Cd589 O588 2.223 . S
Cd589 O592 2.297 . S
Cd589 O593 2.439 . S
Cd589 O599 2.240 . S
Cd590 O591 2.240 . S
Cd590 O598 2.223 . S
Cd590 O600 2.297 . S
Cd590 O601 2.439 . S
O591 Cd590 2.240 . S
O591 C596 1.279 1_545 S
O592 Cd589 2.297 . S
O592 C594 1.247 . S
O593 Cd589 2.439 . S
O593 C594 1.208 . S
C594 O592 1.247 . S
C594 O593 1.208 . S
C595 O600 1.247 . S
C595 O601 1.208 . S
C596 O588 1.315 . S
C596 O591 1.279 1_565 S
C597 O598 1.315 1_565 S
C597 O599 1.279 . S
O598 Cd590 2.223 . S
O598 C597 1.315 1_545 S
O599 Cd589 2.240 . S
O599 C597 1.279 . S
O600 Cd590 2.297 . S
O600 C595 1.247 . S
O601 Cd590 2.439 . S
O601 C595 1.208 . S
O602 Cd603 2.223 . S
O602 C610 1.315 . S
Cd603 O602 2.223 . S
Cd603 O606 2.297 . S
Cd603 O607 2.439 . S
Cd603 O613 2.240 . S
Cd604 O605 2.240 . S
Cd604 O612 2.223 . S
Cd604 O614 2.297 . S
Cd604 O615 2.439 . S
O605 Cd604 2.240 . S
O605 C610 1.279 . S
O606 Cd603 2.297 . S
O606 C608 1.247 . S
O607 Cd603 2.439 . S
O607 C608 1.208 . S
C608 O606 1.247 . S
C608 O607 1.208 . S
C609 O614 1.247 . S
C609 O615 1.208 . S
C610 O602 1.315 . S
C610 O605 1.279 . S
C611 O612 1.315 . S
C611 O613 1.279 . S
O612 Cd604 2.223 . S
O612 C611 1.315 . S
O613 Cd603 2.240 . S
O613 C611 1.279 . S
O614 Cd604 2.297 . S
O614 C609 1.247 . S
O615 Cd604 2.439 . S
O615 C609 1.208 . S
O616 Cd617 2.223 . S
O616 C624 1.315 . S
Cd617 O616 2.223 . S
Cd617 O620 2.297 . S
Cd617 O621 2.439 . S
Cd617 O627 2.240 . S
Cd618 O619 2.240 . S
Cd618 O626 2.223 . S
Cd618 O628 2.297 . S
Cd618 O629 2.439 . S
O619 Cd618 2.240 . S
O619 C624 1.279 . S
O620 Cd617 2.297 . S
O620 C622 1.247 . S
O621 Cd617 2.439 . S
O621 C622 1.208 . S
C622 O620 1.247 . S
C622 O621 1.208 . S
C623 O628 1.247 . S
C623 O629 1.208 . S
C624 O616 1.315 . S
C624 O619 1.279 . S
C625 O626 1.315 . S
C625 O627 1.279 . S
O626 Cd618 2.223 . S
O626 C625 1.315 . S
O627 Cd617 2.240 . S
O627 C625 1.279 . S
O628 Cd618 2.297 . S
O628 C623 1.247 . S
O629 Cd618 2.439 . S
O629 C623 1.208 . S
O630 Cd631 2.223 . S
O630 C638 1.315 . S
Cd631 O630 2.223 . S
Cd631 O634 2.297 . S
Cd631 O635 2.439 . S
Cd631 O641 2.240 . S
Cd632 O633 2.240 . S
Cd632 O640 2.223 . S
Cd632 O642 2.297 . S
Cd632 O643 2.439 . S
O633 Cd632 2.240 . S
O633 C638 1.279 . S
O634 Cd631 2.297 . S
O634 C636 1.247 . S
O635 Cd631 2.439 . S
O635 C636 1.208 . S
C636 O634 1.247 . S
C636 O635 1.208 . S
C637 O642 1.247 . S
C637 O643 1.208 . S
C638 O630 1.315 . S
C638 O633 1.279 . S
C639 O640 1.315 . S
C639 O641 1.279 . S
O640 Cd632 2.223 . S
O640 C639 1.315 . S
O641 Cd631 2.240 . S
O641 C639 1.279 . S
O642 Cd632 2.297 . S
O642 C637 1.247 . S
O643 Cd632 2.439 . S
O643 C637 1.208 . S
O644 Cd645 2.223 . S
O644 C652 1.315 . S
Cd645 O644 2.223 . S
Cd645 O648 2.297 . S
Cd645 O649 2.439 . S
Cd645 O655 2.240 . S
Cd646 O647 2.240 . S
Cd646 O654 2.223 . S
Cd646 O656 2.297 . S
Cd646 O657 2.439 . S
O647 Cd646 2.240 . S
O647 C652 1.279 1_565 S
O648 Cd645 2.297 . S
O648 C650 1.247 . S
O649 Cd645 2.439 . S
O649 C650 1.208 . S
C650 O648 1.247 . S
C650 O649 1.208 . S
C651 O656 1.247 . S
C651 O657 1.208 . S
C652 O644 1.315 . S
C652 O647 1.279 1_545 S
C653 O654 1.315 1_545 S
C653 O655 1.279 . S
O654 Cd646 2.223 . S
O654 C653 1.315 1_565 S
O655 Cd645 2.240 . S
O655 C653 1.279 . S
O656 Cd646 2.297 . S
O656 C651 1.247 . S
O657 Cd646 2.439 . S
O657 C651 1.208 . S
O658 Cd659 2.223 . S
O658 C666 1.315 . S
Cd659 O658 2.223 . S
Cd659 O662 2.297 . S
Cd659 O663 2.439 . S
Cd659 O669 2.240 . S
Cd660 O661 2.240 . S
Cd660 O668 2.223 . S
Cd660 O670 2.297 . S
Cd660 O671 2.439 . S
O661 Cd660 2.240 . S
O661 C666 1.279 1_545 S
O662 Cd659 2.297 . S
O662 C664 1.247 . S
O663 Cd659 2.439 . S
O663 C664 1.208 . S
C664 O662 1.247 . S
C664 O663 1.208 . S
C665 O670 1.247 . S
C665 O671 1.208 . S
C666 O658 1.315 . S
C666 O661 1.279 1_565 S
C667 O668 1.315 1_565 S
C667 O669 1.279 . S
O668 Cd660 2.223 . S
O668 C667 1.315 1_545 S
O669 Cd659 2.240 . S
O669 C667 1.279 . S
O670 Cd660 2.297 . S
O670 C665 1.247 . S
O671 Cd660 2.439 . S
O671 C665 1.208 . S
C672 C673 1.349 . S
C672 C674 1.327 . S
C672 H697 0.950 . S
C673 C672 1.349 . S
C673 C689 1.349 . S
C674 C672 1.327 . S
C674 C693 1.429 . S
C674 H698 0.950 . S
C675 C692 1.574 . S
C675 C694 1.368 . S
C675 H699 0.949 . S
H676 C680 0.949 . S
C677 C678 1.349 . S
C677 C679 1.327 . S
C677 H700 0.950 . S
C678 C677 1.349 . S
C678 C690 1.349 . S
C679 C677 1.327 . S
C679 C695 1.429 . S
C679 H701 0.950 . S
C680 H676 0.949 . S
C680 C688 1.574 . S
C680 C696 1.368 . S
H681 C689 0.950 . S
H682 C687 0.950 . S
H683 C688 0.949 . S
H684 C690 0.950 . S
H685 C691 0.950 . S
H686 C692 0.949 . S
C687 H682 0.950 . S
C687 C689 1.327 . S
C687 C693 1.429 . S
C688 C680 1.574 . S
C688 H683 0.949 . S
C688 C694 1.368 . S
C689 C673 1.349 . S
C689 H681 0.950 . S
C689 C687 1.327 . S
C690 C678 1.349 . S
C690 H684 0.950 . S
C690 C691 1.327 . S
C691 H685 0.950 . S
C691 C690 1.327 . S
C691 C695 1.429 . S
C692 C675 1.574 . S
C692 H686 0.949 . S
C692 C696 1.368 . S
C693 C674 1.429 . S
C693 C687 1.429 . S
C693 C694 1.523 . S
C694 C675 1.368 . S
C694 C688 1.368 . S
C694 C693 1.523 . S
C695 C679 1.429 . S
C695 C691 1.429 . S
C695 C696 1.523 . S
C696 C680 1.368 . S
C696 C692 1.368 . S
C696 C695 1.523 . S
H697 C672 0.950 . S
H698 C674 0.950 . S
H699 C675 0.949 . S
H700 C677 0.950 . S
H701 C679 0.950 . S
C702 C703 1.349 . S
C702 C704 1.327 . S
C702 H727 0.950 . S
C703 C702 1.349 . S
C703 C719 1.408 . S
C704 C702 1.327 . S
C704 C723 1.429 . S
C704 H728 0.950 . S
C705 C722 1.574 . S
C705 C724 1.370 1_545 S
C705 H729 0.946 1_455 S
H706 C710 0.949 . S
C707 C708 1.351 . S
C707 C709 1.327 . S
C707 H730 0.947 1_455 S
C708 C707 1.351 . S
C708 C720 1.398 . S
C709 C707 1.327 . S
C709 C725 1.430 . S
C709 H731 0.947 1_455 S
C710 H706 0.949 . S
C710 C718 1.574 . S
C710 C726 1.368 1_565 S
H711 C719 0.905 1_645 S
H712 C717 0.947 1_655 S
H713 C718 0.949 . S
H714 C720 0.915 1_565 S
H715 C721 0.950 . S
H716 C722 0.946 1_655 S
C717 H712 0.947 1_455 S
C717 C719 1.313 1_545 S
C717 C723 1.430 1_545 S
C718 C710 1.574 . S
C718 H713 0.949 . S
C718 C724 1.368 . S
C719 C703 1.408 . S
C719 H711 0.905 1_465 S
C719 C717 1.313 1_565 S
C720 C708 1.398 . S
C720 H714 0.915 1_545 S
C720 C721 1.315 1_545 S
C721 H715 0.950 . S
C721 C720 1.315 1_565 S
C721 C725 1.429 1_565 S
C722 C705 1.574 . S
C722 H716 0.946 1_455 S
C722 C726 1.370 . S
C723 C704 1.429 . S
C723 C717 1.430 1_565 S
C723 C724 1.523 . S
C724 C705 1.370 1_565 S
C724 C718 1.368 . S
C724 C723 1.523 . S
C725 C709 1.430 . S
C725 C721 1.429 1_545 S
C725 C726 1.523 . S
C726 C710 1.368 1_545 S
C726 C722 1.370 . S
C726 C725 1.523 . S
H727 C702 0.950 . S
H728 C704 0.950 . S
H729 C705 0.946 1_655 S
H730 C707 0.947 1_655 S
H731 C709 0.947 1_655 S
C732 C733 1.349 . S
C732 C734 1.327 . S
C732 H757 0.950 . S
C733 C732 1.349 . S
C733 C749 1.349 . S
C734 C732 1.327 . S
C734 C753 1.429 . S
C734 H758 0.950 . S
C735 C752 1.574 1_556 S
C735 C754 1.368 . S
C735 H759 0.949 . S
H736 C740 0.949 . S
C737 C738 1.349 . S
C737 C739 1.327 . S
C737 H760 0.950 . S
C738 C737 1.349 . S
C738 C750 1.349 . S
C739 C737 1.327 . S
C739 C755 1.429 . S
C739 H761 0.950 . S
C740 H736 0.949 . S
C740 C748 1.574 1_554 S
C740 C756 1.368 . S
H741 C749 0.950 . S
H742 C747 0.950 . S
H743 C748 0.949 . S
H744 C750 0.950 . S
H745 C751 0.950 . S
H746 C752 0.949 . S
C747 H742 0.950 . S
C747 C749 1.327 . S
C747 C753 1.429 . S
C748 C740 1.574 1_556 S
C748 H743 0.949 . S
C748 C754 1.368 . S
C749 C733 1.349 . S
C749 H741 0.950 . S
C749 C747 1.327 . S
C750 C738 1.349 . S
C750 H744 0.950 . S
C750 C751 1.327 . S
C751 H745 0.950 . S
C751 C750 1.327 . S
C751 C755 1.429 . S
C752 C735 1.574 1_554 S
C752 H746 0.949 . S
C752 C756 1.368 . S
C753 C734 1.429 . S
C753 C747 1.429 . S
C753 C754 1.523 . S
C754 C735 1.368 . S
C754 C748 1.368 . S
C754 C753 1.523 . S
C755 C739 1.429 . S
C755 C751 1.429 . S
C755 C756 1.523 . S
C756 C740 1.368 . S
C756 C752 1.368 . S
C756 C755 1.523 . S
H757 C732 0.950 . S
H758 C734 0.950 . S
H759 C735 0.949 . S
H760 C737 0.950 . S
H761 C739 0.950 . S
C762 C763 1.349 . S
C762 C764 1.332 . S
C762 H787 0.950 1_565 S
C763 C762 1.349 . S
C763 C779 1.349 . S
C764 C762 1.332 . S
C764 C783 1.438 . S
C764 H788 0.935 1_565 S
C765 C782 1.574 . S
C765 C784 1.368 . S
C765 H789 0.949 . S
H766 C770 0.949 . S
C767 C768 1.349 . S
C767 C769 1.329 . S
C767 H790 0.950 1_545 S
C768 C767 1.349 . S
C768 C780 1.349 . S
C769 C767 1.329 . S
C769 C785 1.432 . S
C769 H791 0.944 1_545 S
C770 H766 0.949 . S
C770 C778 1.574 . S
C770 C786 1.368 . S
H771 C779 0.950 . S
H772 C777 0.950 . S
H773 C778 0.949 . S
H774 C780 0.950 . S
H775 C781 0.950 . S
H776 C782 0.949 . S
C777 H772 0.950 . S
C777 C779 1.327 . S
C777 C783 1.429 . S
C778 C770 1.574 . S
C778 H773 0.949 . S
C778 C784 1.368 1_545 S
C779 C763 1.349 . S
C779 H771 0.950 . S
C779 C777 1.327 . S
C780 C768 1.349 . S
C780 H774 0.950 . S
C780 C781 1.327 . S
C781 H775 0.950 . S
C781 C780 1.327 . S
C781 C785 1.429 . S
C782 C765 1.574 . S
C782 H776 0.949 . S
C782 C786 1.368 1_565 S
C783 C764 1.438 . S
C783 C777 1.429 . S
C783 C784 1.523 . S
C784 C765 1.368 . S
C784 C778 1.368 1_565 S
C784 C783 1.523 . S
C785 C769 1.432 . S
C785 C781 1.429 . S
C785 C786 1.523 . S
C786 C770 1.368 . S
C786 C782 1.368 1_545 S
C786 C785 1.523 . S
H787 C762 0.950 1_545 S
H788 C764 0.935 1_545 S
H789 C765 0.949 . S
H790 C767 0.950 1_565 S
H791 C769 0.944 1_565 S
C792 C793 1.349 . S
C792 C794 1.327 . S
C792 H817 0.950 . S
C793 C792 1.349 . S
C793 C809 1.349 . S
C794 C792 1.327 . S
C794 C813 1.429 . S
C794 H818 0.950 . S
C795 C812 1.574 . S
C795 C814 1.368 . S
C795 H819 0.949 . S
H796 C800 0.949 . S
C797 C798 1.349 . S
C797 C799 1.327 . S
C797 H820 0.950 . S
C798 C797 1.349 . S
C798 C810 1.349 . S
C799 C797 1.327 . S
C799 C815 1.429 . S
C799 H821 0.950 . S
C800 H796 0.949 . S
C800 C808 1.574 . S
C800 C816 1.368 . S
H801 C809 0.950 . S
H802 C807 0.950 . S
H803 C808 0.949 . S
H804 C810 0.950 . S
H805 C811 0.950 . S
H806 C812 0.949 . S
C807 H802 0.950 . S
C807 C809 1.327 . S
C807 C813 1.429 . S
C808 C800 1.574 . S
C808 H803 0.949 . S
C808 C814 1.368 . S
C809 C793 1.349 . S
C809 H801 0.950 . S
C809 C807 1.327 . S
C810 C798 1.349 . S
C810 H804 0.950 . S
C810 C811 1.327 . S
C811 H805 0.950 . S
C811 C810 1.327 . S
C811 C815 1.429 . S
C812 C795 1.574 . S
C812 H806 0.949 . S
C812 C816 1.368 . S
C813 C794 1.429 . S
C813 C807 1.429 . S
C813 C814 1.523 . S
C814 C795 1.368 . S
C814 C808 1.368 . S
C814 C813 1.523 . S
C815 C799 1.429 . S
C815 C811 1.429 . S
C815 C816 1.523 . S
C816 C800 1.368 . S
C816 C812 1.368 . S
C816 C815 1.523 . S
H817 C792 0.950 . S
H818 C794 0.950 . S
H819 C795 0.949 . S
H820 C797 0.950 . S
H821 C799 0.950 . S
C822 C823 1.349 . S
C822 C824 1.327 . S
C822 H847 0.950 . S
C823 C822 1.349 . S
C823 C839 1.349 . S
C824 C822 1.327 . S
C824 C843 1.429 . S
C824 H848 0.950 1_655 S
C825 C842 1.574 . S
C825 C844 1.368 . S
C825 H849 0.949 . S
H826 C830 0.949 . S
C827 C828 1.349 . S
C827 C829 1.327 . S
C827 H850 0.950 . S
C828 C827 1.349 . S
C828 C840 1.349 . S
C829 C827 1.327 . S
C829 C845 1.429 . S
C829 H851 0.950 1_455 S
C830 H826 0.949 . S
C830 C838 1.574 . S
C830 C846 1.368 . S
H831 C839 0.950 . S
H832 C837 0.950 . S
H833 C838 0.949 . S
H834 C840 0.950 . S
H835 C841 0.950 . S
H836 C842 0.949 . S
C837 H832 0.950 . S
C837 C839 1.327 . S
C837 C843 1.429 . S
C838 C830 1.574 . S
C838 H833 0.949 . S
C838 C844 1.368 1_455 S
C839 C823 1.349 . S
C839 H831 0.950 . S
C839 C837 1.327 . S
C840 C828 1.349 . S
C840 H834 0.950 . S
C840 C841 1.327 . S
C841 H835 0.950 . S
C841 C840 1.327 . S
C841 C845 1.429 . S
C842 C825 1.574 . S
C842 H836 0.949 . S
C842 C846 1.368 1_655 S
C843 C824 1.429 . S
C843 C837 1.429 . S
C843 C844 1.523 . S
C844 C825 1.368 . S
C844 C838 1.368 1_655 S
C844 C843 1.523 . S
C845 C829 1.429 . S
C845 C841 1.429 . S
C845 C846 1.523 . S
C846 C830 1.368 . S
C846 C842 1.368 1_455 S
C846 C845 1.523 . S
H847 C822 0.950 . S
H848 C824 0.950 1_455 S
H849 C825 0.949 . S
H850 C827 0.950 . S
H851 C829 0.950 1_655 S
C852 C853 1.349 . S
C852 C854 1.327 . S
C852 H877 0.950 . S
C853 C852 1.349 . S
C853 C869 1.349 . S
C854 C852 1.327 . S
C854 C873 1.429 . S
C854 H878 0.950 . S
C855 C872 1.574 1_455 S
C855 C874 1.368 . S
C855 H879 0.949 . S
H856 C860 0.949 . S
C857 C858 1.349 . S
C857 C859 1.327 . S
C857 H880 0.950 . S
C858 C857 1.349 . S
C858 C870 1.349 . S
C859 C857 1.327 . S
C859 C875 1.429 . S
C859 H881 0.950 . S
C860 H856 0.949 . S
C860 C868 1.574 1_655 S
C860 C876 1.368 . S
H861 C869 0.950 . S
H862 C867 0.950 . S
H863 C868 0.949 . S
H864 C870 0.950 . S
H865 C871 0.950 . S
H866 C872 0.949 . S
C867 H862 0.950 . S
C867 C869 1.327 . S
C867 C873 1.429 . S
C868 C860 1.574 1_455 S
C868 H863 0.949 . S
C868 C874 1.368 . S
C869 C853 1.349 . S
C869 H861 0.950 . S
C869 C867 1.327 . S
C870 C858 1.349 . S
C870 H864 0.950 . S
C870 C871 1.327 . S
C871 H865 0.950 . S
C871 C870 1.327 . S
C871 C875 1.429 . S
C872 C855 1.574 1_655 S
C872 H866 0.949 . S
C872 C876 1.368 . S
C873 C854 1.429 . S
C873 C867 1.429 . S
C873 C874 1.523 . S
C874 C855 1.368 . S
C874 C868 1.368 . S
C874 C873 1.523 . S
C875 C859 1.429 . S
C875 C871 1.429 . S
C875 C876 1.523 . S
C876 C860 1.368 . S
C876 C872 1.368 . S
C876 C875 1.523 . S
H877 C852 0.950 . S
H878 C854 0.950 . S
H879 C855 0.949 . S
H880 C857 0.950 . S
H881 C859 0.950 . S
C882 C883 1.349 . S
C882 C884 1.327 . S
C882 H907 0.950 . S
C883 C882 1.349 . S
C883 C899 1.349 1_556 S
C884 C882 1.327 . S
C884 C903 1.429 . S
C884 H908 0.950 . S
C885 C902 1.574 . S
C885 C904 1.368 1_554 S
C885 H909 0.949 . S
H886 C890 0.949 . S
C887 C888 1.349 1_554 S
C887 C889 1.327 . S
C887 H910 0.950 . S
C888 C887 1.349 1_556 S
C888 C900 1.349 . S
C889 C887 1.327 . S
C889 C905 1.429 1_554 S
C889 H911 0.950 . S
C890 H886 0.949 . S
C890 C898 1.574 . S
C890 C906 1.368 . S
H891 C899 0.950 . S
H892 C897 0.950 . S
H893 C898 0.949 . S
H894 C900 0.950 . S
H895 C901 0.950 . S
H896 C902 0.949 . S
C897 H892 0.950 . S
C897 C899 1.327 . S
C897 C903 1.429 1_554 S
C898 C890 1.574 . S
C898 H893 0.949 . S
C898 C904 1.368 . S
C899 C883 1.349 1_554 S
C899 H891 0.950 . S
C899 C897 1.327 . S
C900 C888 1.349 . S
C900 H894 0.950 . S
C900 C901 1.327 . S
C901 H895 0.950 . S
C901 C900 1.327 . S
C901 C905 1.429 . S
C902 C885 1.574 . S
C902 H896 0.949 . S
C902 C906 1.368 1_554 S
C903 C884 1.429 . S
C903 C897 1.429 1_556 S
C903 C904 1.523 . S
C904 C885 1.368 1_556 S
C904 C898 1.368 . S
C904 C903 1.523 . S
C905 C889 1.429 1_556 S
C905 C901 1.429 . S
C905 C906 1.523 . S
C906 C890 1.368 . S
C906 C902 1.368 1_556 S
C906 C905 1.523 . S
H907 C882 0.950 . S
H908 C884 0.950 . S
H909 C885 0.949 . S
H910 C887 0.950 . S
H911 C889 0.950 . S
C912 C913 1.349 . S
C912 C914 1.327 . S
C912 H937 0.950 . S
C913 C912 1.349 . S
C913 C929 1.349 . S
C914 C912 1.327 . S
C914 C933 1.429 . S
C914 H938 0.950 . S
C915 C932 1.574 . S
C915 C934 1.368 . S
C915 H939 0.949 . S
H916 C920 0.949 . S
C917 C918 1.349 . S
C917 C919 1.327 . S
C917 H940 0.950 . S
C918 C917 1.349 . S
C918 C930 1.349 . S
C919 C917 1.327 . S
C919 C935 1.429 . S
C919 H941 0.950 . S
C920 H916 0.949 . S
C920 C928 1.574 . S
C920 C936 1.368 . S
H921 C929 0.950 . S
H922 C927 0.950 . S
H923 C928 0.949 . S
H924 C930 0.950 . S
H925 C931 0.950 . S
H926 C932 0.949 . S
C927 H922 0.950 . S
C927 C929 1.327 . S
C927 C933 1.429 . S
C928 C920 1.574 . S
C928 H923 0.949 . S
C928 C934 1.368 . S
C929 C913 1.349 . S
C929 H921 0.950 . S
C929 C927 1.327 . S
C930 C918 1.349 . S
C930 H924 0.950 . S
C930 C931 1.327 . S
C931 H925 0.950 . S
C931 C930 1.327 . S
C931 C935 1.429 . S
C932 C915 1.574 . S
C932 H926 0.949 . S
C932 C936 1.368 . S
C933 C914 1.429 . S
C933 C927 1.429 . S
C933 C934 1.523 . S
C934 C915 1.368 . S
C934 C928 1.368 . S
C934 C933 1.523 . S
C935 C919 1.429 . S
C935 C931 1.429 . S
C935 C936 1.523 . S
C936 C920 1.368 . S
C936 C932 1.368 . S
C936 C935 1.523 . S
H937 C912 0.950 . S
H938 C914 0.950 . S
H939 C915 0.949 . S
H940 C917 0.950 . S
H941 C919 0.950 . S
C942 C943 1.349 . S
C942 C944 1.327 . S
C942 H967 0.950 . S
C943 C942 1.349 . S
C943 C959 1.349 . S
C944 C942 1.327 . S
C944 C963 1.429 . S
C944 H968 0.950 . S
C945 C962 1.574 . S
C945 C964 1.368 . S
C945 H969 0.949 . S
H946 C950 0.949 . S
C947 C948 1.349 . S
C947 C949 1.327 . S
C947 H970 0.950 . S
C948 C947 1.349 . S
C948 C960 1.349 . S
C949 C947 1.327 . S
C949 C965 1.429 . S
C949 H971 0.950 . S
C950 H946 0.949 . S
C950 C958 1.574 . S
C950 C966 1.368 . S
H951 C959 0.950 . S
H952 C957 0.950 . S
H953 C958 0.949 . S
H954 C960 0.950 . S
H955 C961 0.950 . S
H956 C962 0.949 . S
C957 H952 0.950 . S
C957 C959 1.327 . S
C957 C963 1.429 . S
C958 C950 1.574 . S
C958 H953 0.949 . S
C958 C964 1.368 . S
C959 C943 1.349 . S
C959 H951 0.950 . S
C959 C957 1.327 . S
C960 C948 1.349 . S
C960 H954 0.950 . S
C960 C961 1.327 . S
C961 H955 0.950 . S
C961 C960 1.327 . S
C961 C965 1.429 . S
C962 C945 1.574 . S
C962 H956 0.949 . S
C962 C966 1.368 . S
C963 C944 1.429 . S
C963 C957 1.429 . S
C963 C964 1.523 . S
C964 C945 1.368 . S
C964 C958 1.368 . S
C964 C963 1.523 . S
C965 C949 1.429 . S
C965 C961 1.429 . S
C965 C966 1.523 . S
C966 C950 1.368 . S
C966 C962 1.368 . S
C966 C965 1.523 . S
H967 C942 0.950 . S
H968 C944 0.950 . S
H969 C945 0.949 . S
H970 C947 0.950 . S
H971 C949 0.950 . S
C972 C973 1.349 . S
C972 C974 1.327 . S
C972 H997 0.950 . S
C973 C972 1.349 . S
C973 C989 1.349 . S
C974 C972 1.327 . S
C974 C993 1.429 . S
C974 H998 0.950 . S
C975 C992 1.574 1_655 S
C975 C994 1.368 . S
C975 H999 0.949 . S
H976 C980 0.949 . S
C977 C978 1.349 . S
C977 C979 1.327 . S
C977 H1000 0.950 . S
C978 C977 1.349 . S
C978 C990 1.349 . S
C979 C977 1.327 . S
C979 C995 1.429 . S
C979 H1001 0.950 . S
C980 H976 0.949 . S
C980 C988 1.574 1_455 S
C980 C996 1.368 . S
H981 C989 0.950 . S
H982 C987 0.950 . S
H983 C988 0.949 . S
H984 C990 0.950 . S
H985 C991 0.950 . S
H986 C992 0.949 . S
C987 H982 0.950 . S
C987 C989 1.327 . S
C987 C993 1.429 . S
C988 C980 1.574 1_655 S
C988 H983 0.949 . S
C988 C994 1.368 . S
C989 C973 1.349 . S
C989 H981 0.950 . S
C989 C987 1.327 . S
C990 C978 1.349 . S
C990 H984 0.950 . S
C990 C991 1.327 . S
C991 H985 0.950 . S
C991 C990 1.327 . S
C991 C995 1.429 . S
C992 C975 1.574 1_455 S
C992 H986 0.949 . S
C992 C996 1.368 . S
C993 C974 1.429 . S
C993 C987 1.429 . S
C993 C994 1.523 . S
C994 C975 1.368 . S
C994 C988 1.368 . S
C994 C993 1.523 . S
C995 C979 1.429 . S
C995 C991 1.429 . S
C995 C996 1.523 . S
C996 C980 1.368 . S
C996 C992 1.368 . S
C996 C995 1.523 . S
H997 C972 0.950 . S
H998 C974 0.950 . S
H999 C975 0.949 . S
H1000 C977 0.950 . S
H1001 C979 0.950 . S
C1002 C1003 1.349 . S
C1002 C1004 1.327 . S
C1002 H1027 0.950 . S
C1003 C1002 1.349 . S
C1003 C1019 1.349 1_554 S
C1004 C1002 1.327 . S
C1004 C1023 1.429 . S
C1004 H1028 0.950 1_655 S
C1005 C1022 1.574 . S
C1005 C1024 1.368 1_556 S
C1005 H1029 0.949 . S
H1006 C1010 0.949 . S
C1007 C1008 1.349 1_556 S
C1007 C1009 1.327 . S
C1007 H1030 0.950 . S
C1008 C1007 1.349 1_554 S
C1008 C1020 1.349 . S
C1009 C1007 1.327 . S
C1009 C1025 1.429 1_556 S
C1009 H1031 0.950 1_455 S
C1010 H1006 0.949 . S
C1010 C1018 1.574 . S
C1010 C1026 1.368 . S
H1011 C1019 0.950 . S
H1012 C1017 0.950 . S
H1013 C1018 0.949 . S
H1014 C1020 0.950 . S
H1015 C1021 0.950 . S
H1016 C1022 0.949 . S
C1017 H1012 0.950 . S
C1017 C1019 1.327 . S
C1017 C1023 1.429 1_556 S
C1018 C1010 1.574 . S
C1018 H1013 0.949 . S
C1018 C1024 1.368 1_455 S
C1019 C1003 1.349 1_556 S
C1019 H1011 0.950 . S
C1019 C1017 1.327 . S
C1020 C1008 1.349 . S
C1020 H1014 0.950 . S
C1020 C1021 1.327 . S
C1021 H1015 0.950 . S
C1021 C1020 1.327 . S
C1021 C1025 1.429 . S
C1022 C1005 1.574 . S
C1022 H1016 0.949 . S
C1022 C1026 1.368 1_656 S
C1023 C1004 1.429 . S
C1023 C1017 1.429 1_554 S
C1023 C1024 1.523 . S
C1024 C1005 1.368 1_554 S
C1024 C1018 1.368 1_655 S
C1024 C1023 1.523 . S
C1025 C1009 1.429 1_554 S
C1025 C1021 1.429 . S
C1025 C1026 1.523 . S
C1026 C1010 1.368 . S
C1026 C1022 1.368 1_454 S
C1026 C1025 1.523 . S
H1027 C1002 0.950 . S
H1028 C1004 0.950 1_455 S
H1029 C1005 0.949 . S
H1030 C1007 0.950 . S
H1031 C1009 0.950 1_655 S
C1032 C1033 1.349 . S
C1032 C1034 1.327 . S
C1032 H1057 0.950 . S
C1033 C1032 1.349 . S
C1033 C1049 1.349 . S
C1034 C1032 1.327 . S
C1034 C1053 1.429 . S
C1034 H1058 0.950 . S
C1035 C1052 1.574 . S
C1035 C1054 1.368 . S
C1035 H1059 0.949 . S
H1036 C1040 0.949 . S
C1037 C1038 1.349 . S
C1037 C1039 1.327 . S
C1037 H1060 0.950 . S
C1038 C1037 1.349 . S
C1038 C1050 1.349 . S
C1039 C1037 1.327 . S
C1039 C1055 1.429 . S
C1039 H1061 0.950 . S
C1040 H1036 0.949 . S
C1040 C1048 1.574 . S
C1040 C1056 1.368 . S
H1041 C1049 0.950 . S
H1042 C1047 0.950 . S
H1043 C1048 0.949 . S
H1044 C1050 0.950 . S
H1045 C1051 0.950 . S
H1046 C1052 0.949 . S
C1047 H1042 0.950 . S
C1047 C1049 1.327 . S
C1047 C1053 1.429 . S
C1048 C1040 1.574 . S
C1048 H1043 0.949 . S
C1048 C1054 1.368 . S
C1049 C1033 1.349 . S
C1049 H1041 0.950 . S
C1049 C1047 1.327 . S
C1050 C1038 1.349 . S
C1050 H1044 0.950 . S
C1050 C1051 1.327 . S
C1051 H1045 0.950 . S
C1051 C1050 1.327 . S
C1051 C1055 1.429 . S
C1052 C1035 1.574 . S
C1052 H1046 0.949 . S
C1052 C1056 1.368 . S
C1053 C1034 1.429 . S
C1053 C1047 1.429 . S
C1053 C1054 1.523 . S
C1054 C1035 1.368 . S
C1054 C1048 1.368 . S
C1054 C1053 1.523 . S
C1055 C1039 1.429 . S
C1055 C1051 1.429 . S
C1055 C1056 1.523 . S
C1056 C1040 1.368 . S
C1056 C1052 1.368 . S
C1056 C1055 1.523 . S
H1057 C1032 0.950 . S
H1058 C1034 0.950 . S
H1059 C1035 0.949 . S
H1060 C1037 0.950 . S
H1061 C1039 0.950 . S
C1062 C1063 1.349 . S
C1062 C1064 1.327 . S
C1062 H1087 0.950 . S
C1063 C1062 1.349 . S
C1063 C1079 1.349 . S
C1064 C1062 1.327 . S
C1064 C1083 1.429 . S
C1064 H1088 0.950 . S
C1065 C1082 1.574 1_545 S
C1065 C1084 1.368 . S
C1065 H1089 0.949 . S
H1066 C1070 0.949 . S
C1067 C1068 1.349 . S
C1067 C1069 1.327 . S
C1067 H1090 0.950 . S
C1068 C1067 1.349 . S
C1068 C1080 1.349 . S
C1069 C1067 1.327 . S
C1069 C1085 1.429 . S
C1069 H1091 0.950 . S
C1070 H1066 0.949 . S
C1070 C1078 1.574 1_565 S
C1070 C1086 1.368 . S
H1071 C1079 0.950 . S
H1072 C1077 0.950 . S
H1073 C1078 0.949 . S
H1074 C1080 0.950 . S
H1075 C1081 0.950 . S
H1076 C1082 0.949 . S
C1077 H1072 0.950 . S
C1077 C1079 1.327 . S
C1077 C1083 1.429 . S
C1078 C1070 1.574 1_545 S
C1078 H1073 0.949 . S
C1078 C1084 1.368 . S
C1079 C1063 1.349 . S
C1079 H1071 0.950 . S
C1079 C1077 1.327 . S
C1080 C1068 1.349 . S
C1080 H1074 0.950 . S
C1080 C1081 1.327 . S
C1081 H1075 0.950 . S
C1081 C1080 1.327 . S
C1081 C1085 1.429 . S
C1082 C1065 1.574 1_565 S
C1082 H1076 0.949 . S
C1082 C1086 1.368 . S
C1083 C1064 1.429 . S
C1083 C1077 1.429 . S
C1083 C1084 1.523 . S
C1084 C1065 1.368 . S
C1084 C1078 1.368 . S
C1084 C1083 1.523 . S
C1085 C1069 1.429 . S
C1085 C1081 1.429 . S
C1085 C1086 1.523 . S
C1086 C1070 1.368 . S
C1086 C1082 1.368 . S
C1086 C1085 1.523 . S
H1087 C1062 0.950 . S
H1088 C1064 0.950 . S
H1089 C1065 0.949 . S
H1090 C1067 0.950 . S
H1091 C1069 0.950 . S
C1092 C1093 1.349 . S
C1092 C1094 1.327 . S
C1092 H1117 0.950 . S
C1093 C1092 1.349 . S
C1093 C1109 1.349 . S
C1094 C1092 1.327 . S
C1094 C1113 1.429 . S
C1094 H1118 0.950 . S
C1095 C1112 1.574 . S
C1095 C1114 1.368 1_556 S
C1095 H1119 0.949 . S
H1096 C1100 0.949 . S
C1097 C1098 1.349 . S
C1097 C1099 1.327 . S
C1097 H1120 0.950 . S
C1098 C1097 1.349 . S
C1098 C1110 1.349 . S
C1099 C1097 1.327 . S
C1099 C1115 1.429 . S
C1099 H1121 0.950 . S
C1100 H1096 0.949 . S
C1100 C1108 1.574 . S
C1100 C1116 1.368 1_554 S
H1101 C1109 0.950 . S
H1102 C1107 0.950 1_556 S
H1103 C1108 0.949 . S
H1104 C1110 0.950 . S
H1105 C1111 0.950 1_554 S
H1106 C1112 0.949 . S
C1107 H1102 0.950 1_554 S
C1107 C1109 1.327 . S
C1107 C1113 1.429 . S
C1108 C1100 1.574 . S
C1108 H1103 0.949 . S
C1108 C1114 1.368 . S
C1109 C1093 1.349 . S
C1109 H1101 0.950 . S
C1109 C1107 1.327 . S
C1110 C1098 1.349 . S
C1110 H1104 0.950 . S
C1110 C1111 1.327 . S
C1111 H1105 0.950 1_556 S
C1111 C1110 1.327 . S
C1111 C1115 1.429 . S
C1112 C1095 1.574 . S
C1112 H1106 0.949 . S
C1112 C1116 1.368 . S
C1113 C1094 1.429 . S
C1113 C1107 1.429 . S
C1113 C1114 1.523 . S
C1114 C1095 1.368 1_554 S
C1114 C1108 1.368 . S
C1114 C1113 1.523 . S
C1115 C1099 1.429 . S
C1115 C1111 1.429 . S
C1115 C1116 1.523 . S
C1116 C1100 1.368 1_556 S
C1116 C1112 1.368 . S
C1116 C1115 1.523 . S
H1117 C1092 0.950 . S
H1118 C1094 0.950 . S
H1119 C1095 0.949 . S
H1120 C1097 0.950 . S
H1121 C1099 0.950 . S
C1122 C1123 1.349 . S
C1122 C1124 1.327 . S
C1122 H1147 0.950 . S
C1123 C1122 1.349 . S
C1123 C1139 1.349 . S
C1124 C1122 1.327 . S
C1124 C1143 1.429 . S
C1124 H1148 0.950 . S
C1125 C1142 1.574 1_545 S
C1125 C1144 1.368 . S
C1125 H1149 0.949 . S
H1126 C1130 0.949 . S
C1127 C1128 1.349 . S
C1127 C1129 1.327 . S
C1127 H1150 0.950 . S
C1128 C1127 1.349 . S
C1128 C1140 1.349 . S
C1129 C1127 1.327 . S
C1129 C1145 1.429 . S
C1129 H1151 0.950 . S
C1130 H1126 0.949 . S
C1130 C1138 1.574 1_565 S
C1130 C1146 1.368 . S
H1131 C1139 0.950 . S
H1132 C1137 0.950 . S
H1133 C1138 0.949 . S
H1134 C1140 0.950 . S
H1135 C1141 0.950 . S
H1136 C1142 0.949 . S
C1137 H1132 0.950 . S
C1137 C1139 1.327 . S
C1137 C1143 1.429 . S
C1138 C1130 1.574 1_545 S
C1138 H1133 0.949 . S
C1138 C1144 1.368 . S
C1139 C1123 1.349 . S
C1139 H1131 0.950 . S
C1139 C1137 1.327 . S
C1140 C1128 1.349 . S
C1140 H1134 0.950 . S
C1140 C1141 1.327 . S
C1141 H1135 0.950 . S
C1141 C1140 1.327 . S
C1141 C1145 1.429 . S
C1142 C1125 1.574 1_565 S
C1142 H1136 0.949 . S
C1142 C1146 1.368 . S
C1143 C1124 1.429 . S
C1143 C1137 1.429 . S
C1143 C1144 1.523 . S
C1144 C1125 1.368 . S
C1144 C1138 1.368 . S
C1144 C1143 1.523 . S
C1145 C1129 1.429 . S
C1145 C1141 1.429 . S
C1145 C1146 1.523 . S
C1146 C1130 1.368 . S
C1146 C1142 1.368 . S
C1146 C1145 1.523 . S
H1147 C1122 0.950 . S
H1148 C1124 0.950 . S
H1149 C1125 0.949 . S
H1150 C1127 0.950 . S
H1151 C1129 0.950 . S
C1152 C1153 1.349 . S
C1152 C1154 1.327 . S
C1152 H1177 0.950 . S
C1153 C1152 1.349 . S
C1153 C1169 1.349 1_545 S
C1154 C1152 1.327 . S
C1154 C1173 1.429 . S
C1154 H1178 0.950 1_556 S
C1155 C1172 1.574 . S
C1155 C1174 1.368 1_565 S
C1155 H1179 0.949 . S
H1156 C1160 0.949 . S
C1157 C1158 1.349 1_565 S
C1157 C1159 1.327 . S
C1157 H1180 0.950 . S
C1158 C1157 1.349 1_545 S
C1158 C1170 1.349 . S
C1159 C1157 1.327 . S
C1159 C1175 1.429 1_565 S
C1159 H1181 0.950 1_554 S
C1160 H1156 0.949 . S
C1160 C1168 1.574 . S
C1160 C1176 1.368 . S
H1161 C1169 0.950 . S
H1162 C1167 0.950 . S
H1163 C1168 0.949 . S
H1164 C1170 0.950 . S
H1165 C1171 0.950 . S
H1166 C1172 0.949 . S
C1167 H1162 0.950 . S
C1167 C1169 1.327 . S
C1167 C1173 1.429 1_565 S
C1168 C1160 1.574 . S
C1168 H1163 0.949 . S
C1168 C1174 1.368 1_554 S
C1169 C1153 1.349 1_565 S
C1169 H1161 0.950 . S
C1169 C1167 1.327 . S
C1170 C1158 1.349 . S
C1170 H1164 0.950 . S
C1170 C1171 1.327 . S
C1171 H1165 0.950 . S
C1171 C1170 1.327 . S
C1171 C1175 1.429 . S
C1172 C1155 1.574 . S
C1172 H1166 0.949 . S
C1172 C1176 1.368 1_566 S
C1173 C1154 1.429 . S
C1173 C1167 1.429 1_545 S
C1173 C1174 1.523 . S
C1174 C1155 1.368 1_545 S
C1174 C1168 1.368 1_556 S
C1174 C1173 1.523 . S
C1175 C1159 1.429 1_545 S
C1175 C1171 1.429 . S
C1175 C1176 1.523 . S
C1176 C1160 1.368 . S
C1176 C1172 1.368 1_544 S
C1176 C1175 1.523 . S
H1177 C1152 0.950 . S
H1178 C1154 0.950 1_554 S
H1179 C1155 0.949 . S
H1180 C1157 0.950 . S
H1181 C1159 0.950 1_556 S
C1182 C1183 1.349 . S
C1182 C1184 1.327 . S
C1182 H1207 0.950 . S
C1183 C1182 1.349 . S
C1183 C1199 1.349 . S
C1184 C1182 1.327 . S
C1184 C1203 1.429 . S
C1184 H1208 0.950 . S
C1185 C1202 1.574 . S
C1185 C1204 1.368 . S
C1185 H1209 0.949 . S
H1186 C1190 0.949 . S
C1187 C1188 1.349 . S
C1187 C1189 1.327 . S
C1187 H1210 0.950 . S
C1188 C1187 1.349 . S
C1188 C1200 1.349 . S
C1189 C1187 1.327 . S
C1189 C1205 1.429 . S
C1189 H1211 0.950 . S
C1190 H1186 0.949 . S
C1190 C1198 1.574 . S
C1190 C1206 1.368 . S
H1191 C1199 0.950 . S
H1192 C1197 0.950 . S
H1193 C1198 0.949 . S
H1194 C1200 0.950 . S
H1195 C1201 0.950 . S
H1196 C1202 0.949 . S
C1197 H1192 0.950 . S
C1197 C1199 1.327 . S
C1197 C1203 1.429 . S
C1198 C1190 1.574 . S
C1198 H1193 0.949 . S
C1198 C1204 1.368 . S
C1199 C1183 1.349 . S
C1199 H1191 0.950 . S
C1199 C1197 1.327 . S
C1200 C1188 1.349 . S
C1200 H1194 0.950 . S
C1200 C1201 1.327 . S
C1201 H1195 0.950 . S
C1201 C1200 1.327 . S
C1201 C1205 1.429 . S
C1202 C1185 1.574 . S
C1202 H1196 0.949 . S
C1202 C1206 1.368 . S
C1203 C1184 1.429 . S
C1203 C1197 1.429 . S
C1203 C1204 1.523 . S
C1204 C1185 1.368 . S
C1204 C1198 1.368 . S
C1204 C1203 1.523 . S
C1205 C1189 1.429 . S
C1205 C1201 1.429 . S
C1205 C1206 1.523 . S
C1206 C1190 1.368 . S
C1206 C1202 1.368 . S
C1206 C1205 1.523 . S
H1207 C1182 0.950 . S
H1208 C1184 0.950 . S
H1209 C1185 0.949 . S
H1210 C1187 0.950 . S
H1211 C1189 0.950 . S
C1212 C1213 1.349 . S
C1212 C1214 1.327 . S
C1212 H1237 0.950 . S
C1213 C1212 1.349 . S
C1213 C1229 1.349 . S
C1214 C1212 1.327 . S
C1214 C1233 1.429 . S
C1214 H1238 0.950 . S
C1215 C1232 1.574 . S
C1215 C1234 1.368 . S
C1215 H1239 0.949 . S
H1216 C1220 0.949 . S
C1217 C1218 1.349 . S
C1217 C1219 1.327 . S
C1217 H1240 0.950 . S
C1218 C1217 1.349 . S
C1218 C1230 1.349 . S
C1219 C1217 1.327 . S
C1219 C1235 1.429 . S
C1219 H1241 0.950 . S
C1220 H1216 0.949 . S
C1220 C1228 1.574 . S
C1220 C1236 1.368 . S
H1221 C1229 0.950 . S
H1222 C1227 0.950 . S
H1223 C1228 0.949 . S
H1224 C1230 0.950 . S
H1225 C1231 0.950 . S
H1226 C1232 0.949 . S
C1227 H1222 0.950 . S
C1227 C1229 1.327 . S
C1227 C1233 1.429 . S
C1228 C1220 1.574 . S
C1228 H1223 0.949 . S
C1228 C1234 1.368 . S
C1229 C1213 1.349 . S
C1229 H1221 0.950 . S
C1229 C1227 1.327 . S
C1230 C1218 1.349 . S
C1230 H1224 0.950 . S
C1230 C1231 1.327 . S
C1231 H1225 0.950 . S
C1231 C1230 1.327 . S
C1231 C1235 1.429 . S
C1232 C1215 1.574 . S
C1232 H1226 0.949 . S
C1232 C1236 1.368 . S
C1233 C1214 1.429 . S
C1233 C1227 1.429 . S
C1233 C1234 1.523 . S
C1234 C1215 1.368 . S
C1234 C1228 1.368 . S
C1234 C1233 1.523 . S
C1235 C1219 1.429 . S
C1235 C1231 1.429 . S
C1235 C1236 1.523 . S
C1236 C1220 1.368 . S
C1236 C1232 1.368 . S
C1236 C1235 1.523 . S
H1237 C1212 0.950 . S
H1238 C1214 0.950 . S
H1239 C1215 0.949 . S
H1240 C1217 0.950 . S
H1241 C1219 0.950 . S
C1242 C1243 1.349 . S
C1242 C1244 1.327 . S
C1242 H1267 0.950 . S
C1243 C1242 1.349 . S
C1243 C1259 1.349 . S
C1244 C1242 1.327 . S
C1244 C1263 1.429 . S
C1244 H1268 0.950 . S
C1245 C1262 1.574 1_554 S
C1245 C1264 1.368 . S
C1245 H1269 0.949 . S
H1246 C1250 0.949 . S
C1247 C1248 1.349 . S
C1247 C1249 1.327 . S
C1247 H1270 0.950 . S
C1248 C1247 1.349 . S
C1248 C1260 1.349 . S
C1249 C1247 1.327 . S
C1249 C1265 1.429 . S
C1249 H1271 0.950 . S
C1250 H1246 0.949 . S
C1250 C1258 1.574 1_556 S
C1250 C1266 1.368 . S
H1251 C1259 0.950 . S
H1252 C1257 0.950 . S
H1253 C1258 0.949 . S
H1254 C1260 0.950 . S
H1255 C1261 0.950 . S
H1256 C1262 0.949 . S
C1257 H1252 0.950 . S
C1257 C1259 1.327 . S
C1257 C1263 1.429 . S
C1258 C1250 1.574 1_554 S
C1258 H1253 0.949 . S
C1258 C1264 1.368 . S
C1259 C1243 1.349 . S
C1259 H1251 0.950 . S
C1259 C1257 1.327 . S
C1260 C1248 1.349 . S
C1260 H1254 0.950 . S
C1260 C1261 1.327 . S
C1261 H1255 0.950 . S
C1261 C1260 1.327 . S
C1261 C1265 1.429 . S
C1262 C1245 1.574 1_556 S
C1262 H1256 0.949 . S
C1262 C1266 1.368 . S
C1263 C1244 1.429 . S
C1263 C1257 1.429 . S
C1263 C1264 1.523 . S
C1264 C1245 1.368 . S
C1264 C1258 1.368 . S
C1264 C1263 1.523 . S
C1265 C1249 1.429 . S
C1265 C1261 1.429 . S
C1265 C1266 1.523 . S
C1266 C1250 1.368 . S
C1266 C1262 1.368 . S
C1266 C1265 1.523 . S
H1267 C1242 0.950 . S
H1268 C1244 0.950 . S
H1269 C1245 0.949 . S
H1270 C1247 0.950 . S
H1271 C1249 0.950 . S
C1272 C1273 1.349 . S
C1272 C1274 1.327 . S
C1272 H1297 0.950 . S
C1273 C1272 1.349 . S
C1273 C1289 1.349 . S
C1274 C1272 1.327 . S
C1274 C1293 1.429 . S
C1274 H1298 0.950 . S
C1275 C1292 1.574 . S
C1275 C1294 1.368 . S
C1275 H1299 0.949 . S
H1276 C1280 0.949 . S
C1277 C1278 1.349 . S
C1277 C1279 1.327 . S
C1277 H1300 0.950 . S
C1278 C1277 1.349 . S
C1278 C1290 1.349 . S
C1279 C1277 1.327 . S
C1279 C1295 1.429 . S
C1279 H1301 0.950 . S
C1280 H1276 0.949 . S
C1280 C1288 1.574 . S
C1280 C1296 1.368 . S
H1281 C1289 0.950 . S
H1282 C1287 0.950 . S
H1283 C1288 0.949 . S
H1284 C1290 0.950 . S
H1285 C1291 0.950 . S
H1286 C1292 0.949 . S
C1287 H1282 0.950 . S
C1287 C1289 1.327 . S
C1287 C1293 1.429 . S
C1288 C1280 1.574 . S
C1288 H1283 0.949 . S
C1288 C1294 1.368 . S
C1289 C1273 1.349 . S
C1289 H1281 0.950 . S
C1289 C1287 1.327 . S
C1290 C1278 1.349 . S
C1290 H1284 0.950 . S
C1290 C1291 1.327 . S
C1291 H1285 0.950 . S
C1291 C1290 1.327 . S
C1291 C1295 1.429 . S
C1292 C1275 1.574 . S
C1292 H1286 0.949 . S
C1292 C1296 1.368 . S
C1293 C1274 1.429 . S
C1293 C1287 1.429 . S
C1293 C1294 1.523 . S
C1294 C1275 1.368 . S
C1294 C1288 1.368 . S
C1294 C1293 1.523 . S
C1295 C1279 1.429 . S
C1295 C1291 1.429 . S
C1295 C1296 1.523 . S
C1296 C1280 1.368 . S
C1296 C1292 1.368 . S
C1296 C1295 1.523 . S
H1297 C1272 0.950 . S
H1298 C1274 0.950 . S
H1299 C1275 0.949 . S
H1300 C1277 0.950 . S
H1301 C1279 0.950 . S
C1302 C1303 1.349 . S
C1302 C1304 1.327 . S
C1302 H1327 0.950 . S
C1303 C1302 1.349 . S
C1303 C1319 1.349 . S
C1304 C1302 1.327 . S
C1304 C1323 1.429 . S
C1304 H1328 0.950 . S
C1305 C1322 1.574 . S
C1305 C1324 1.368 . S
C1305 H1329 0.949 . S
H1306 C1310 0.949 . S
C1307 C1308 1.349 . S
C1307 C1309 1.327 . S
C1307 H1330 0.950 . S
C1308 C1307 1.349 . S
C1308 C1320 1.349 . S
C1309 C1307 1.327 . S
C1309 C1325 1.429 . S
C1309 H1331 0.950 . S
C1310 H1306 0.949 . S
C1310 C1318 1.574 . S
C1310 C1326 1.368 . S
H1311 C1319 0.950 . S
H1312 C1317 0.950 . S
H1313 C1318 0.949 . S
H1314 C1320 0.950 . S
H1315 C1321 0.950 . S
H1316 C1322 0.949 . S
C1317 H1312 0.950 . S
C1317 C1319 1.327 . S
C1317 C1323 1.429 . S
C1318 C1310 1.574 . S
C1318 H1313 0.949 . S
C1318 C1324 1.368 . S
C1319 C1303 1.349 . S
C1319 H1311 0.950 . S
C1319 C1317 1.327 . S
C1320 C1308 1.349 . S
C1320 H1314 0.950 . S
C1320 C1321 1.327 . S
C1321 H1315 0.950 . S
C1321 C1320 1.327 . S
C1321 C1325 1.429 . S
C1322 C1305 1.574 . S
C1322 H1316 0.949 . S
C1322 C1326 1.368 . S
C1323 C1304 1.429 . S
C1323 C1317 1.429 . S
C1323 C1324 1.523 . S
C1324 C1305 1.368 . S
C1324 C1318 1.368 . S
C1324 C1323 1.523 . S
C1325 C1309 1.429 . S
C1325 C1321 1.429 . S
C1325 C1326 1.523 . S
C1326 C1310 1.368 . S
C1326 C1322 1.368 . S
C1326 C1325 1.523 . S
H1327 C1302 0.950 . S
H1328 C1304 0.950 . S
H1329 C1305 0.949 . S
H1330 C1307 0.950 . S
H1331 C1309 0.950 . S
C1332 C1333 1.349 1_455 S
C1332 C1334 1.327 . S
C1332 H1357 0.950 . S
C1333 C1332 1.349 1_655 S
C1333 C1349 1.349 . S
C1334 C1332 1.327 . S
C1334 C1353 1.429 1_455 S
C1334 H1358 0.950 . S
C1335 C1352 1.574 . S
C1335 C1354 1.368 . S
C1335 H1359 0.949 . S
H1336 C1340 0.949 . S
C1337 C1338 1.349 . S
C1337 C1339 1.327 . S
C1337 H1360 0.950 . S
C1338 C1337 1.349 . S
C1338 C1350 1.349 1_655 S
C1339 C1337 1.327 . S
C1339 C1355 1.429 . S
C1339 H1361 0.950 . S
C1340 H1336 0.949 . S
C1340 C1348 1.574 . S
C1340 C1356 1.368 1_455 S
H1341 C1349 0.950 . S
H1342 C1347 0.950 . S
H1343 C1348 0.949 . S
H1344 C1350 0.950 . S
H1345 C1351 0.950 . S
H1346 C1352 0.949 . S
C1347 H1342 0.950 . S
C1347 C1349 1.327 . S
C1347 C1353 1.429 . S
C1348 C1340 1.574 . S
C1348 H1343 0.949 . S
C1348 C1354 1.368 1_455 S
C1349 C1333 1.349 . S
C1349 H1341 0.950 . S
C1349 C1347 1.327 . S
C1350 C1338 1.349 1_455 S
C1350 H1344 0.950 . S
C1350 C1351 1.327 . S
C1351 H1345 0.950 . S
C1351 C1350 1.327 . S
C1351 C1355 1.429 1_455 S
C1352 C1335 1.574 . S
C1352 H1346 0.949 . S
C1352 C1356 1.368 . S
C1353 C1334 1.429 1_655 S
C1353 C1347 1.429 . S
C1353 C1354 1.523 . S
C1354 C1335 1.368 . S
C1354 C1348 1.368 1_655 S
C1354 C1353 1.523 . S
C1355 C1339 1.429 . S
C1355 C1351 1.429 1_655 S
C1355 C1356 1.523 . S
C1356 C1340 1.368 1_655 S
C1356 C1352 1.368 . S
C1356 C1355 1.523 . S
H1357 C1332 0.950 . S
H1358 C1334 0.950 . S
H1359 C1335 0.949 . S
H1360 C1337 0.950 . S
H1361 C1339 0.950 . S
C1362 C1363 1.349 . S
C1362 C1364 1.327 . S
C1362 H1387 0.950 . S
C1363 C1362 1.349 . S
C1363 C1379 1.349 1_565 S
C1364 C1362 1.327 . S
C1364 C1383 1.429 . S
C1364 H1388 0.950 . S
C1365 C1382 1.574 . S
C1365 C1384 1.368 1_545 S
C1365 H1389 0.949 . S
H1366 C1370 0.949 . S
C1367 C1368 1.349 1_545 S
C1367 C1369 1.327 . S
C1367 H1390 0.950 . S
C1368 C1367 1.349 1_565 S
C1368 C1380 1.349 . S
C1369 C1367 1.327 . S
C1369 C1385 1.429 1_545 S
C1369 H1391 0.950 . S
C1370 H1366 0.949 . S
C1370 C1378 1.574 . S
C1370 C1386 1.368 . S
H1371 C1379 0.950 . S
H1372 C1377 0.950 . S
H1373 C1378 0.949 . S
H1374 C1380 0.950 . S
H1375 C1381 0.950 . S
H1376 C1382 0.949 . S
C1377 H1372 0.950 . S
C1377 C1379 1.327 . S
C1377 C1383 1.429 1_545 S
C1378 C1370 1.574 . S
C1378 H1373 0.949 . S
C1378 C1384 1.368 . S
C1379 C1363 1.349 1_545 S
C1379 H1371 0.950 . S
C1379 C1377 1.327 . S
C1380 C1368 1.349 . S
C1380 H1374 0.950 . S
C1380 C1381 1.327 . S
C1381 H1375 0.950 . S
C1381 C1380 1.327 . S
C1381 C1385 1.429 . S
C1382 C1365 1.574 . S
C1382 H1376 0.949 . S
C1382 C1386 1.368 1_545 S
C1383 C1364 1.429 . S
C1383 C1377 1.429 1_565 S
C1383 C1384 1.523 . S
C1384 C1365 1.368 1_565 S
C1384 C1378 1.368 . S
C1384 C1383 1.523 . S
C1385 C1369 1.429 1_565 S
C1385 C1381 1.429 . S
C1385 C1386 1.523 . S
C1386 C1370 1.368 . S
C1386 C1382 1.368 1_565 S
C1386 C1385 1.523 . S
H1387 C1362 0.950 . S
H1388 C1364 0.950 . S
H1389 C1365 0.949 . S
H1390 C1367 0.950 . S
H1391 C1369 0.950 . S
C1392 C1393 1.349 . S
C1392 C1394 1.327 . S
C1392 H1417 0.950 . S
C1393 C1392 1.349 . S
C1393 C1409 1.349 . S
C1394 C1392 1.327 . S
C1394 C1413 1.429 . S
C1394 H1418 0.950 . S
C1395 C1412 1.574 . S
C1395 C1414 1.368 . S
C1395 H1419 0.949 . S
H1396 C1400 0.949 . S
C1397 C1398 1.349 . S
C1397 C1399 1.327 . S
C1397 H1420 0.950 . S
C1398 C1397 1.349 . S
C1398 C1410 1.349 . S
C1399 C1397 1.327 . S
C1399 C1415 1.429 . S
C1399 H1421 0.950 . S
C1400 H1396 0.949 . S
C1400 C1408 1.574 . S
C1400 C1416 1.368 . S
H1401 C1409 0.950 . S
H1402 C1407 0.950 . S
H1403 C1408 0.949 . S
H1404 C1410 0.950 . S
H1405 C1411 0.950 . S
H1406 C1412 0.949 . S
C1407 H1402 0.950 . S
C1407 C1409 1.327 . S
C1407 C1413 1.429 . S
C1408 C1400 1.574 . S
C1408 H1403 0.949 . S
C1408 C1414 1.368 . S
C1409 C1393 1.349 . S
C1409 H1401 0.950 . S
C1409 C1407 1.327 . S
C1410 C1398 1.349 . S
C1410 H1404 0.950 . S
C1410 C1411 1.327 . S
C1411 H1405 0.950 . S
C1411 C1410 1.327 . S
C1411 C1415 1.429 . S
C1412 C1395 1.574 . S
C1412 H1406 0.949 . S
C1412 C1416 1.368 . S
C1413 C1394 1.429 . S
C1413 C1407 1.429 . S
C1413 C1414 1.523 . S
C1414 C1395 1.368 . S
C1414 C1408 1.368 . S
C1414 C1413 1.523 . S
C1415 C1399 1.429 . S
C1415 C1411 1.429 . S
C1415 C1416 1.523 . S
C1416 C1400 1.368 . S
C1416 C1412 1.368 . S
C1416 C1415 1.523 . S
H1417 C1392 0.950 . S
H1418 C1394 0.950 . S
H1419 C1395 0.949 . S
H1420 C1397 0.950 . S
H1421 C1399 0.950 . S
C1422 C1423 1.349 . S
C1422 C1424 1.327 . S
C1422 H1447 0.950 . S
C1423 C1422 1.349 . S
C1423 C1439 1.349 . S
C1424 C1422 1.327 . S
C1424 C1443 1.429 . S
C1424 H1448 0.950 . S
C1425 C1442 1.574 . S
C1425 C1444 1.368 . S
C1425 H1449 0.949 . S
H1426 C1430 0.949 . S
C1427 C1428 1.349 . S
C1427 C1429 1.327 . S
C1427 H1450 0.950 . S
C1428 C1427 1.349 . S
C1428 C1440 1.349 . S
C1429 C1427 1.327 . S
C1429 C1445 1.429 . S
C1429 H1451 0.950 . S
C1430 H1426 0.949 . S
C1430 C1438 1.574 . S
C1430 C1446 1.368 . S
H1431 C1439 0.950 . S
H1432 C1437 0.950 . S
H1433 C1438 0.949 . S
H1434 C1440 0.950 1_545 S
H1435 C1441 0.950 1_545 S
H1436 C1442 0.949 . S
C1437 H1432 0.950 . S
C1437 C1439 1.327 . S
C1437 C1443 1.429 . S
C1438 C1430 1.574 . S
C1438 H1433 0.949 . S
C1438 C1444 1.368 . S
C1439 C1423 1.349 . S
C1439 H1431 0.950 . S
C1439 C1437 1.327 . S
C1440 C1428 1.349 . S
C1440 H1434 0.950 1_565 S
C1440 C1441 1.327 . S
C1441 H1435 0.950 1_565 S
C1441 C1440 1.327 . S
C1441 C1445 1.429 . S
C1442 C1425 1.574 . S
C1442 H1436 0.949 . S
C1442 C1446 1.368 . S
C1443 C1424 1.429 . S
C1443 C1437 1.429 . S
C1443 C1444 1.523 . S
C1444 C1425 1.368 . S
C1444 C1438 1.368 . S
C1444 C1443 1.523 . S
C1445 C1429 1.429 . S
C1445 C1441 1.429 . S
C1445 C1446 1.523 . S
C1446 C1430 1.368 . S
C1446 C1442 1.368 . S
C1446 C1445 1.523 . S
H1447 C1422 0.950 . S
H1448 C1424 0.950 . S
H1449 C1425 0.949 . S
H1450 C1427 0.950 . S
H1451 C1429 0.950 . S
C1452 C1453 1.349 . S
C1452 C1454 1.327 . S
C1452 H1477 0.950 . S
C1453 C1452 1.349 . S
C1453 C1469 1.349 . S
C1454 C1452 1.327 . S
C1454 C1473 1.429 . S
C1454 H1478 0.950 . S
C1455 C1472 1.574 . S
C1455 C1474 1.368 . S
C1455 H1479 0.949 . S
H1456 C1460 0.949 . S
C1457 C1458 1.349 . S
C1457 C1459 1.327 . S
C1457 H1480 0.950 . S
C1458 C1457 1.349 . S
C1458 C1470 1.349 . S
C1459 C1457 1.327 . S
C1459 C1475 1.429 . S
C1459 H1481 0.950 . S
C1460 H1456 0.949 . S
C1460 C1468 1.574 . S
C1460 C1476 1.368 . S
H1461 C1469 0.950 . S
H1462 C1467 0.950 . S
H1463 C1468 0.949 . S
H1464 C1470 0.950 . S
H1465 C1471 0.950 . S
H1466 C1472 0.949 . S
C1467 H1462 0.950 . S
C1467 C1469 1.327 . S
C1467 C1473 1.429 . S
C1468 C1460 1.574 . S
C1468 H1463 0.949 . S
C1468 C1474 1.368 . S
C1469 C1453 1.349 . S
C1469 H1461 0.950 . S
C1469 C1467 1.327 . S
C1470 C1458 1.349 . S
C1470 H1464 0.950 . S
C1470 C1471 1.327 . S
C1471 H1465 0.950 . S
C1471 C1470 1.327 . S
C1471 C1475 1.429 . S
C1472 C1455 1.574 . S
C1472 H1466 0.949 . S
C1472 C1476 1.368 . S
C1473 C1454 1.429 . S
C1473 C1467 1.429 . S
C1473 C1474 1.523 . S
C1474 C1455 1.368 . S
C1474 C1468 1.368 . S
C1474 C1473 1.523 . S
C1475 C1459 1.429 . S
C1475 C1471 1.429 . S
C1475 C1476 1.523 . S
C1476 C1460 1.368 . S
C1476 C1472 1.368 . S
C1476 C1475 1.523 . S
H1477 C1452 0.950 . S
H1478 C1454 0.950 . S
H1479 C1455 0.949 . S
H1480 C1457 0.950 . S
H1481 C1459 0.950 . S
C1482 C1483 1.349 . S
C1482 C1484 1.327 . S
C1482 H1507 0.950 . S
C1483 C1482 1.349 . S
C1483 C1499 1.349 1_554 S
C1484 C1482 1.327 . S
C1484 C1503 1.429 . S
C1484 H1508 0.950 . S
C1485 C1502 1.574 . S
C1485 C1504 1.368 . S
C1485 H1509 0.949 . S
H1486 C1490 0.949 . S
C1487 C1488 1.349 . S
C1487 C1489 1.327 . S
C1487 H1510 0.950 . S
C1488 C1487 1.349 . S
C1488 C1500 1.349 . S
C1489 C1487 1.327 . S
C1489 C1505 1.429 . S
C1489 H1511 0.950 . S
C1490 H1486 0.949 . S
C1490 C1498 1.574 . S
C1490 C1506 1.368 . S
H1491 C1499 0.950 . S
H1492 C1497 0.950 . S
H1493 C1498 0.949 . S
H1494 C1500 0.950 . S
H1495 C1501 0.950 . S
H1496 C1502 0.949 . S
C1497 H1492 0.950 . S
C1497 C1499 1.327 1_554 S
C1497 C1503 1.429 . S
C1498 C1490 1.574 . S
C1498 H1493 0.949 . S
C1498 C1504 1.368 . S
C1499 C1483 1.349 1_556 S
C1499 H1491 0.950 . S
C1499 C1497 1.327 1_556 S
C1500 C1488 1.349 . S
C1500 H1494 0.950 . S
C1500 C1501 1.327 . S
C1501 H1495 0.950 . S
C1501 C1500 1.327 . S
C1501 C1505 1.429 . S
C1502 C1485 1.574 . S
C1502 H1496 0.949 . S
C1502 C1506 1.368 . S
C1503 C1484 1.429 . S
C1503 C1497 1.429 . S
C1503 C1504 1.523 . S
C1504 C1485 1.368 . S
C1504 C1498 1.368 . S
C1504 C1503 1.523 . S
C1505 C1489 1.429 . S
C1505 C1501 1.429 . S
C1505 C1506 1.523 . S
C1506 C1490 1.368 . S
C1506 C1502 1.368 . S
C1506 C1505 1.523 . S
H1507 C1482 0.950 . S
H1508 C1484 0.950 . S
H1509 C1485 0.949 . S
H1510 C1487 0.950 . S
H1511 C1489 0.950 . S
C1512 C1513 1.349 . S
C1512 C1514 1.327 . S
C1512 H1537 0.950 . S
C1513 C1512 1.349 . S
C1513 C1529 1.349 . S
C1514 C1512 1.327 . S
C1514 C1533 1.429 . S
C1514 H1538 0.950 . S
C1515 C1532 1.574 . S
C1515 C1534 1.368 . S
C1515 H1539 0.949 . S
H1516 C1520 0.949 . S
C1517 C1518 1.349 . S
C1517 C1519 1.327 . S
C1517 H1540 0.950 . S
C1518 C1517 1.349 . S
C1518 C1530 1.349 . S
C1519 C1517 1.327 . S
C1519 C1535 1.429 . S
C1519 H1541 0.950 . S
C1520 H1516 0.949 . S
C1520 C1528 1.574 . S
C1520 C1536 1.368 . S
H1521 C1529 0.950 . S
H1522 C1527 0.950 . S
H1523 C1528 0.949 . S
H1524 C1530 0.950 . S
H1525 C1531 0.950 . S
H1526 C1532 0.949 . S
C1527 H1522 0.950 . S
C1527 C1529 1.327 . S
C1527 C1533 1.429 . S
C1528 C1520 1.574 . S
C1528 H1523 0.949 . S
C1528 C1534 1.368 . S
C1529 C1513 1.349 . S
C1529 H1521 0.950 . S
C1529 C1527 1.327 . S
C1530 C1518 1.349 . S
C1530 H1524 0.950 . S
C1530 C1531 1.327 . S
C1531 H1525 0.950 . S
C1531 C1530 1.327 . S
C1531 C1535 1.429 . S
C1532 C1515 1.574 . S
C1532 H1526 0.949 . S
C1532 C1536 1.368 . S
C1533 C1514 1.429 . S
C1533 C1527 1.429 . S
C1533 C1534 1.523 . S
C1534 C1515 1.368 . S
C1534 C1528 1.368 . S
C1534 C1533 1.523 . S
C1535 C1519 1.429 . S
C1535 C1531 1.429 . S
C1535 C1536 1.523 . S
C1536 C1520 1.368 . S
C1536 C1532 1.368 . S
C1536 C1535 1.523 . S
H1537 C1512 0.950 . S
H1538 C1514 0.950 . S
H1539 C1515 0.949 . S
H1540 C1517 0.950 . S
H1541 C1519 0.950 . S
C1542 C1543 1.349 . S
C1542 C1544 1.327 . S
C1542 H1567 0.950 . S
C1543 C1542 1.349 . S
C1543 C1559 1.349 . S
C1544 C1542 1.327 . S
C1544 C1563 1.429 . S
C1544 H1568 0.950 . S
C1545 C1562 1.574 . S
C1545 C1564 1.368 . S
C1545 H1569 0.949 . S
H1546 C1550 0.949 . S
C1547 C1548 1.349 . S
C1547 C1549 1.327 . S
C1547 H1570 0.950 . S
C1548 C1547 1.349 . S
C1548 C1560 1.349 . S
C1549 C1547 1.327 . S
C1549 C1565 1.429 . S
C1549 H1571 0.950 . S
C1550 H1546 0.949 . S
C1550 C1558 1.574 . S
C1550 C1566 1.368 . S
H1551 C1559 0.950 . S
H1552 C1557 0.950 . S
H1553 C1558 0.949 . S
H1554 C1560 0.950 . S
H1555 C1561 0.950 . S
H1556 C1562 0.949 . S
C1557 H1552 0.950 . S
C1557 C1559 1.327 . S
C1557 C1563 1.429 . S
C1558 C1550 1.574 . S
C1558 H1553 0.949 . S
C1558 C1564 1.368 . S
C1559 C1543 1.349 . S
C1559 H1551 0.950 . S
C1559 C1557 1.327 . S
C1560 C1548 1.349 . S
C1560 H1554 0.950 . S
C1560 C1561 1.327 . S
C1561 H1555 0.950 . S
C1561 C1560 1.327 . S
C1561 C1565 1.429 . S
C1562 C1545 1.574 . S
C1562 H1556 0.949 . S
C1562 C1566 1.368 . S
C1563 C1544 1.429 . S
C1563 C1557 1.429 . S
C1563 C1564 1.523 . S
C1564 C1545 1.368 . S
C1564 C1558 1.368 . S
C1564 C1563 1.523 . S
C1565 C1549 1.429 . S
C1565 C1561 1.429 . S
C1565 C1566 1.523 . S
C1566 C1550 1.368 . S
C1566 C1562 1.368 . S
C1566 C1565 1.523 . S
H1567 C1542 0.950 . S
H1568 C1544 0.950 . S
H1569 C1545 0.949 . S
H1570 C1547 0.950 . S
H1571 C1549 0.950 . S
C1572 C1573 1.349 . S
C1572 C1574 1.327 . S
C1572 H1597 0.950 . S
C1573 C1572 1.349 . S
C1573 C1589 1.349 . S
C1574 C1572 1.327 . S
C1574 C1593 1.429 . S
C1574 H1598 0.950 . S
C1575 C1592 1.574 . S
C1575 C1594 1.368 . S
C1575 H1599 0.949 . S
H1576 C1580 0.949 . S
C1577 C1578 1.349 . S
C1577 C1579 1.327 . S
C1577 H1600 0.950 . S
C1578 C1577 1.349 . S
C1578 C1590 1.349 . S
C1579 C1577 1.327 . S
C1579 C1595 1.429 . S
C1579 H1601 0.950 . S
C1580 H1576 0.949 . S
C1580 C1588 1.574 . S
C1580 C1596 1.368 . S
H1581 C1589 0.950 . S
H1582 C1587 0.950 . S
H1583 C1588 0.949 . S
H1584 C1590 0.950 . S
H1585 C1591 0.950 . S
H1586 C1592 0.949 . S
C1587 H1582 0.950 . S
C1587 C1589 1.327 . S
C1587 C1593 1.429 . S
C1588 C1580 1.574 . S
C1588 H1583 0.949 . S
C1588 C1594 1.368 . S
C1589 C1573 1.349 . S
C1589 H1581 0.950 . S
C1589 C1587 1.327 . S
C1590 C1578 1.349 . S
C1590 H1584 0.950 . S
C1590 C1591 1.327 . S
C1591 H1585 0.950 . S
C1591 C1590 1.327 . S
C1591 C1595 1.429 . S
C1592 C1575 1.574 . S
C1592 H1586 0.949 . S
C1592 C1596 1.368 . S
C1593 C1574 1.429 . S
C1593 C1587 1.429 . S
C1593 C1594 1.523 . S
C1594 C1575 1.368 . S
C1594 C1588 1.368 . S
C1594 C1593 1.523 . S
C1595 C1579 1.429 . S
C1595 C1591 1.429 . S
C1595 C1596 1.523 . S
C1596 C1580 1.368 . S
C1596 C1592 1.368 . S
C1596 C1595 1.523 . S
H1597 C1572 0.950 . S
H1598 C1574 0.950 . S
H1599 C1575 0.949 . S
H1600 C1577 0.950 . S
H1601 C1579 0.950 . S
C1602 C1603 1.350 . S
C1602 C1604 1.335 . S
C1602 H1627 0.941 1_556 S
C1603 C1602 1.350 . S
C1603 C1619 1.349 . S
C1604 C1602 1.335 . S
C1604 C1623 1.429 . S
C1604 H1628 0.950 . S
C1605 C1622 1.574 . S
C1605 C1624 1.368 . S
C1605 H1629 0.949 . S
H1606 C1610 0.949 . S
C1607 C1608 1.349 . S
C1607 C1609 1.327 . S
C1607 H1630 0.950 . S
C1608 C1607 1.349 . S
C1608 C1620 1.349 . S
C1609 C1607 1.327 . S
C1609 C1625 1.429 . S
C1609 H1631 0.950 . S
C1610 H1606 0.949 . S
C1610 C1618 1.574 . S
C1610 C1626 1.368 . S
H1611 C1619 0.950 1_565 S
H1612 C1617 0.950 . S
H1613 C1618 0.949 . S
H1614 C1620 0.950 . S
H1615 C1621 0.950 . S
H1616 C1622 0.949 . S
C1617 H1612 0.950 . S
C1617 C1619 1.327 . S
C1617 C1623 1.429 . S
C1618 C1610 1.574 . S
C1618 H1613 0.949 . S
C1618 C1624 1.368 . S
C1619 C1603 1.349 . S
C1619 H1611 0.950 1_545 S
C1619 C1617 1.327 . S
C1620 C1608 1.349 . S
C1620 H1614 0.950 . S
C1620 C1621 1.327 . S
C1621 H1615 0.950 . S
C1621 C1620 1.327 . S
C1621 C1625 1.429 . S
C1622 C1605 1.574 . S
C1622 H1616 0.949 . S
C1622 C1626 1.368 . S
C1623 C1604 1.429 . S
C1623 C1617 1.429 . S
C1623 C1624 1.523 . S
C1624 C1605 1.368 . S
C1624 C1618 1.368 . S
C1624 C1623 1.523 . S
C1625 C1609 1.429 . S
C1625 C1621 1.429 . S
C1625 C1626 1.523 . S
C1626 C1610 1.368 . S
C1626 C1622 1.368 . S
C1626 C1625 1.523 . S
H1627 C1602 0.941 1_554 S
H1628 C1604 0.950 . S
H1629 C1605 0.949 . S
H1630 C1607 0.950 . S
H1631 C1609 0.950 . S
C1632 C1633 1.349 . S
C1632 C1634 1.327 . S
C1632 H1657 0.950 . S
C1633 C1632 1.349 . S
C1633 C1649 1.349 . S
C1634 C1632 1.327 . S
C1634 C1653 1.429 . S
C1634 H1658 0.950 . S
C1635 C1652 1.574 . S
C1635 C1654 1.368 . S
C1635 H1659 0.949 . S
H1636 C1640 0.949 . S
C1637 C1638 1.349 . S
C1637 C1639 1.327 . S
C1637 H1660 0.950 . S
C1638 C1637 1.349 . S
C1638 C1650 1.349 . S
C1639 C1637 1.327 . S
C1639 C1655 1.429 . S
C1639 H1661 0.950 . S
C1640 H1636 0.949 . S
C1640 C1648 1.574 . S
C1640 C1656 1.368 . S
H1641 C1649 0.950 . S
H1642 C1647 0.950 . S
H1643 C1648 0.949 . S
H1644 C1650 0.950 . S
H1645 C1651 0.950 . S
H1646 C1652 0.949 . S
C1647 H1642 0.950 . S
C1647 C1649 1.327 . S
C1647 C1653 1.429 . S
C1648 C1640 1.574 . S
C1648 H1643 0.949 . S
C1648 C1654 1.368 . S
C1649 C1633 1.349 . S
C1649 H1641 0.950 . S
C1649 C1647 1.327 . S
C1650 C1638 1.349 . S
C1650 H1644 0.950 . S
C1650 C1651 1.327 . S
C1651 H1645 0.950 . S
C1651 C1650 1.327 . S
C1651 C1655 1.429 . S
C1652 C1635 1.574 . S
C1652 H1646 0.949 . S
C1652 C1656 1.368 . S
C1653 C1634 1.429 . S
C1653 C1647 1.429 . S
C1653 C1654 1.523 . S
C1654 C1635 1.368 . S
C1654 C1648 1.368 . S
C1654 C1653 1.523 . S
C1655 C1639 1.429 . S
C1655 C1651 1.429 . S
C1655 C1656 1.523 . S
C1656 C1640 1.368 . S
C1656 C1652 1.368 . S
C1656 C1655 1.523 . S
H1657 C1632 0.950 . S
H1658 C1634 0.950 . S
H1659 C1635 0.949 . S
H1660 C1637 0.950 . S
H1661 C1639 0.950 . S
C1662 C1663 1.349 1_565 S
C1662 C1664 1.327 1_565 S
C1662 H1687 0.950 . S
C1663 C1662 1.349 1_545 S
C1663 C1679 1.349 . S
C1664 C1662 1.327 1_545 S
C1664 C1683 1.429 . S
C1664 H1688 0.950 . S
C1665 C1682 1.574 . S
C1665 C1684 1.368 . S
C1665 H1689 0.949 . S
H1666 C1670 0.949 . S
C1667 C1668 1.349 . S
C1667 C1669 1.327 . S
C1667 H1690 0.950 . S
C1668 C1667 1.349 . S
C1668 C1680 1.349 . S
C1669 C1667 1.327 . S
C1669 C1685 1.429 . S
C1669 H1691 0.950 . S
C1670 H1666 0.949 . S
C1670 C1678 1.574 . S
C1670 C1686 1.368 . S
H1671 C1679 0.950 . S
H1672 C1677 0.950 . S
H1673 C1678 0.949 . S
H1674 C1680 0.950 . S
H1675 C1681 0.950 . S
H1676 C1682 0.949 . S
C1677 H1672 0.950 . S
C1677 C1679 1.327 . S
C1677 C1683 1.429 . S
C1678 C1670 1.574 . S
C1678 H1673 0.949 . S
C1678 C1684 1.368 . S
C1679 C1663 1.349 . S
C1679 H1671 0.950 . S
C1679 C1677 1.327 . S
C1680 C1668 1.349 . S
C1680 H1674 0.950 . S
C1680 C1681 1.327 . S
C1681 H1675 0.950 . S
C1681 C1680 1.327 . S
C1681 C1685 1.429 . S
C1682 C1665 1.574 . S
C1682 H1676 0.949 . S
C1682 C1686 1.368 . S
C1683 C1664 1.429 . S
C1683 C1677 1.429 . S
C1683 C1684 1.523 . S
C1684 C1665 1.368 . S
C1684 C1678 1.368 . S
C1684 C1683 1.523 . S
C1685 C1669 1.429 . S
C1685 C1681 1.429 . S
C1685 C1686 1.523 . S
C1686 C1670 1.368 . S
C1686 C1682 1.368 . S
C1686 C1685 1.523 . S
H1687 C1662 0.950 . S
H1688 C1664 0.950 . S
H1689 C1665 0.949 . S
H1690 C1667 0.950 . S
H1691 C1669 0.950 . S
C1692 C1693 1.349 . S
C1692 C1694 1.327 . S
C1692 H1717 0.950 . S
C1693 C1692 1.349 . S
C1693 C1709 1.349 . S
C1694 C1692 1.327 . S
C1694 C1713 1.429 . S
C1694 H1718 0.950 . S
C1695 C1712 1.574 . S
C1695 C1714 1.368 . S
C1695 H1719 0.949 . S
H1696 C1700 0.949 . S
C1697 C1698 1.349 . S
C1697 C1699 1.327 . S
C1697 H1720 0.950 . S
C1698 C1697 1.349 . S
C1698 C1710 1.349 . S
C1699 C1697 1.327 . S
C1699 C1715 1.429 . S
C1699 H1721 0.950 . S
C1700 H1696 0.949 . S
C1700 C1708 1.574 . S
C1700 C1716 1.368 . S
H1701 C1709 0.950 . S
H1702 C1707 0.950 . S
H1703 C1708 0.949 . S
H1704 C1710 0.950 . S
H1705 C1711 0.950 . S
H1706 C1712 0.949 . S
C1707 H1702 0.950 . S
C1707 C1709 1.327 . S
C1707 C1713 1.429 . S
C1708 C1700 1.574 . S
C1708 H1703 0.949 . S
C1708 C1714 1.368 . S
C1709 C1693 1.349 . S
C1709 H1701 0.950 . S
C1709 C1707 1.327 . S
C1710 C1698 1.349 . S
C1710 H1704 0.950 . S
C1710 C1711 1.327 . S
C1711 H1705 0.950 . S
C1711 C1710 1.327 . S
C1711 C1715 1.429 . S
C1712 C1695 1.574 . S
C1712 H1706 0.949 . S
C1712 C1716 1.368 . S
C1713 C1694 1.429 . S
C1713 C1707 1.429 . S
C1713 C1714 1.523 . S
C1714 C1695 1.368 . S
C1714 C1708 1.368 . S
C1714 C1713 1.523 . S
C1715 C1699 1.429 . S
C1715 C1711 1.429 . S
C1715 C1716 1.523 . S
C1716 C1700 1.368 . S
C1716 C1712 1.368 . S
C1716 C1715 1.523 . S
H1717 C1692 0.950 . S
H1718 C1694 0.950 . S
H1719 C1695 0.949 . S
H1720 C1697 0.950 . S
H1721 C1699 0.950 . S
C1722 C1723 1.349 . S
C1722 C1724 1.327 . S
C1722 H1747 0.950 . S
C1723 C1722 1.349 . S
C1723 C1739 1.349 . S
C1724 C1722 1.327 . S
C1724 C1743 1.429 . S
C1724 H1748 0.950 . S
C1725 C1742 1.574 . S
C1725 C1744 1.368 . S
C1725 H1749 0.949 . S
H1726 C1730 0.949 . S
C1727 C1728 1.349 . S
C1727 C1729 1.327 . S
C1727 H1750 0.950 . S
C1728 C1727 1.349 . S
C1728 C1740 1.349 1_565 S
C1729 C1727 1.327 . S
C1729 C1745 1.429 . S
C1729 H1751 0.950 . S
C1730 H1726 0.949 . S
C1730 C1738 1.574 . S
C1730 C1746 1.368 . S
H1731 C1739 0.950 . S
H1732 C1737 0.950 . S
H1733 C1738 0.949 . S
H1734 C1740 0.950 . S
H1735 C1741 0.950 . S
H1736 C1742 0.949 . S
C1737 H1732 0.950 . S
C1737 C1739 1.327 . S
C1737 C1743 1.429 . S
C1738 C1730 1.574 . S
C1738 H1733 0.949 . S
C1738 C1744 1.368 . S
C1739 C1723 1.349 . S
C1739 H1731 0.950 . S
C1739 C1737 1.327 . S
C1740 C1728 1.349 1_545 S
C1740 H1734 0.950 . S
C1740 C1741 1.327 1_545 S
C1741 H1735 0.950 . S
C1741 C1740 1.327 1_565 S
C1741 C1745 1.429 . S
C1742 C1725 1.574 . S
C1742 H1736 0.949 . S
C1742 C1746 1.368 . S
C1743 C1724 1.429 . S
C1743 C1737 1.429 . S
C1743 C1744 1.523 . S
C1744 C1725 1.368 . S
C1744 C1738 1.368 . S
C1744 C1743 1.523 . S
C1745 C1729 1.429 . S
C1745 C1741 1.429 . S
C1745 C1746 1.523 . S
C1746 C1730 1.368 . S
C1746 C1742 1.368 . S
C1746 C1745 1.523 . S
H1747 C1722 0.950 . S
H1748 C1724 0.950 . S
H1749 C1725 0.949 . S
H1750 C1727 0.950 . S
H1751 C1729 0.950 . S
C1752 C1753 1.349 . S
C1752 C1754 1.327 . S
C1752 H1777 0.950 . S
C1753 C1752 1.349 . S
C1753 C1769 1.349 . S
C1754 C1752 1.327 . S
C1754 C1773 1.429 . S
C1754 H1778 0.950 . S
C1755 C1772 1.574 . S
C1755 C1774 1.368 . S
C1755 H1779 0.949 . S
H1756 C1760 0.949 . S
C1757 C1758 1.349 . S
C1757 C1759 1.327 . S
C1757 H1780 0.950 . S
C1758 C1757 1.349 . S
C1758 C1770 1.349 . S
C1759 C1757 1.327 . S
C1759 C1775 1.429 . S
C1759 H1781 0.950 . S
C1760 H1756 0.949 . S
C1760 C1768 1.574 . S
C1760 C1776 1.368 . S
H1761 C1769 0.950 . S
H1762 C1767 0.950 . S
H1763 C1768 0.949 . S
H1764 C1770 0.950 . S
H1765 C1771 0.950 . S
H1766 C1772 0.949 . S
C1767 H1762 0.950 . S
C1767 C1769 1.327 . S
C1767 C1773 1.429 . S
C1768 C1760 1.574 . S
C1768 H1763 0.949 . S
C1768 C1774 1.368 . S
C1769 C1753 1.349 . S
C1769 H1761 0.950 . S
C1769 C1767 1.327 . S
C1770 C1758 1.349 . S
C1770 H1764 0.950 . S
C1770 C1771 1.327 . S
C1771 H1765 0.950 . S
C1771 C1770 1.327 . S
C1771 C1775 1.429 . S
C1772 C1755 1.574 . S
C1772 H1766 0.949 . S
C1772 C1776 1.368 . S
C1773 C1754 1.429 . S
C1773 C1767 1.429 . S
C1773 C1774 1.523 . S
C1774 C1755 1.368 . S
C1774 C1768 1.368 . S
C1774 C1773 1.523 . S
C1775 C1759 1.429 . S
C1775 C1771 1.429 . S
C1775 C1776 1.523 . S
C1776 C1760 1.368 . S
C1776 C1772 1.368 . S
C1776 C1775 1.523 . S
H1777 C1752 0.950 . S
H1778 C1754 0.950 . S
H1779 C1755 0.949 . S
H1780 C1757 0.950 . S
H1781 C1759 0.950 . S
C1782 C1783 1.349 . S
C1782 C1784 1.327 . S
C1782 H1807 0.950 . S
C1783 C1782 1.349 . S
C1783 C1799 1.349 1_545 S
C1784 C1782 1.327 . S
C1784 C1803 1.429 . S
C1784 H1808 0.950 . S
C1785 C1802 1.574 . S
C1785 C1804 1.368 . S
C1785 H1809 0.949 . S
H1786 C1790 0.949 . S
C1787 C1788 1.349 . S
C1787 C1789 1.327 . S
C1787 H1810 0.950 . S
C1788 C1787 1.349 . S
C1788 C1800 1.349 . S
C1789 C1787 1.327 . S
C1789 C1805 1.429 . S
C1789 H1811 0.950 . S
C1790 H1786 0.949 . S
C1790 C1798 1.574 . S
C1790 C1806 1.368 . S
H1791 C1799 0.950 . S
H1792 C1797 0.950 . S
H1793 C1798 0.949 . S
H1794 C1800 0.950 . S
H1795 C1801 0.950 . S
H1796 C1802 0.949 . S
C1797 H1792 0.950 . S
C1797 C1799 1.327 1_545 S
C1797 C1803 1.429 . S
C1798 C1790 1.574 . S
C1798 H1793 0.949 . S
C1798 C1804 1.368 . S
C1799 C1783 1.349 1_565 S
C1799 H1791 0.950 . S
C1799 C1797 1.327 1_565 S
C1800 C1788 1.349 . S
C1800 H1794 0.950 . S
C1800 C1801 1.327 . S
C1801 H1795 0.950 . S
C1801 C1800 1.327 . S
C1801 C1805 1.429 . S
C1802 C1785 1.574 . S
C1802 H1796 0.949 . S
C1802 C1806 1.368 . S
C1803 C1784 1.429 . S
C1803 C1797 1.429 . S
C1803 C1804 1.523 . S
C1804 C1785 1.368 . S
C1804 C1798 1.368 . S
C1804 C1803 1.523 . S
C1805 C1789 1.429 . S
C1805 C1801 1.429 . S
C1805 C1806 1.523 . S
C1806 C1790 1.368 . S
C1806 C1802 1.368 . S
C1806 C1805 1.523 . S
H1807 C1782 0.950 . S
H1808 C1784 0.950 . S
H1809 C1785 0.949 . S
H1810 C1787 0.950 . S
H1811 C1789 0.950 . S
C1812 C1813 1.349 . S
C1812 C1814 1.327 . S
C1812 H1837 0.950 . S
C1813 C1812 1.349 . S
C1813 C1829 1.349 . S
C1814 C1812 1.327 . S
C1814 C1833 1.429 . S
C1814 H1838 0.950 . S
C1815 C1832 1.574 . S
C1815 C1834 1.368 . S
C1815 H1839 0.949 . S
H1816 C1820 0.949 . S
C1817 C1818 1.349 . S
C1817 C1819 1.327 . S
C1817 H1840 0.950 . S
C1818 C1817 1.349 . S
C1818 C1830 1.349 . S
C1819 C1817 1.327 . S
C1819 C1835 1.429 . S
C1819 H1841 0.950 . S
C1820 H1816 0.949 . S
C1820 C1828 1.574 . S
C1820 C1836 1.368 . S
H1821 C1829 0.950 . S
H1822 C1827 0.950 . S
H1823 C1828 0.949 . S
H1824 C1830 0.950 . S
H1825 C1831 0.950 . S
H1826 C1832 0.949 . S
C1827 H1822 0.950 . S
C1827 C1829 1.327 . S
C1827 C1833 1.429 . S
C1828 C1820 1.574 . S
C1828 H1823 0.949 . S
C1828 C1834 1.368 . S
C1829 C1813 1.349 . S
C1829 H1821 0.950 . S
C1829 C1827 1.327 . S
C1830 C1818 1.349 . S
C1830 H1824 0.950 . S
C1830 C1831 1.327 . S
C1831 H1825 0.950 . S
C1831 C1830 1.327 . S
C1831 C1835 1.429 . S
C1832 C1815 1.574 . S
C1832 H1826 0.949 . S
C1832 C1836 1.368 . S
C1833 C1814 1.429 . S
C1833 C1827 1.429 . S
C1833 C1834 1.523 . S
C1834 C1815 1.368 . S
C1834 C1828 1.368 . S
C1834 C1833 1.523 . S
C1835 C1819 1.429 . S
C1835 C1831 1.429 . S
C1835 C1836 1.523 . S
C1836 C1820 1.368 . S
C1836 C1832 1.368 . S
C1836 C1835 1.523 . S
H1837 C1812 0.950 . S
H1838 C1814 0.950 . S
H1839 C1815 0.949 . S
H1840 C1817 0.950 . S
H1841 C1819 0.950 . S
C1842 C1843 1.349 . S
C1842 C1844 1.327 . S
C1842 H1867 0.950 . S
C1843 C1842 1.349 . S
C1843 C1859 1.349 . S
C1844 C1842 1.327 . S
C1844 C1863 1.429 . S
C1844 H1868 0.950 . S
C1845 C1862 1.574 . S
C1845 C1864 1.368 . S
C1845 H1869 0.949 . S
H1846 C1850 0.949 . S
C1847 C1848 1.349 . S
C1847 C1849 1.327 . S
C1847 H1870 0.947 1_465 S
C1848 C1847 1.349 . S
C1848 C1860 1.349 . S
C1849 C1847 1.327 . S
C1849 C1865 1.429 . S
C1849 H1871 0.950 1_455 S
C1850 H1846 0.949 . S
C1850 C1858 1.574 . S
C1850 C1866 1.368 . S
H1851 C1859 0.950 . S
H1852 C1857 0.950 . S
H1853 C1858 0.949 . S
H1854 C1860 0.950 . S
H1855 C1861 0.950 . S
H1856 C1862 0.949 . S
C1857 H1852 0.950 . S
C1857 C1859 1.327 . S
C1857 C1863 1.429 . S
C1858 C1850 1.574 . S
C1858 H1853 0.949 . S
C1858 C1864 1.368 . S
C1859 C1843 1.349 . S
C1859 H1851 0.950 . S
C1859 C1857 1.327 . S
C1860 C1848 1.349 . S
C1860 H1854 0.950 . S
C1860 C1861 1.327 . S
C1861 H1855 0.950 . S
C1861 C1860 1.327 . S
C1861 C1865 1.429 . S
C1862 C1845 1.574 . S
C1862 H1856 0.949 . S
C1862 C1866 1.368 . S
C1863 C1844 1.429 . S
C1863 C1857 1.429 . S
C1863 C1864 1.523 . S
C1864 C1845 1.368 . S
C1864 C1858 1.368 . S
C1864 C1863 1.523 . S
C1865 C1849 1.429 . S
C1865 C1861 1.429 . S
C1865 C1866 1.523 . S
C1866 C1850 1.368 . S
C1866 C1862 1.368 . S
C1866 C1865 1.523 . S
H1867 C1842 0.950 . S
H1868 C1844 0.950 . S
H1869 C1845 0.949 . S
H1870 C1847 0.947 1_645 S
H1871 C1849 0.950 1_655 S
C1872 C1873 1.349 . S
C1872 C1874 1.327 . S
C1872 H1897 0.950 . S
C1873 C1872 1.349 . S
C1873 C1889 1.349 . S
C1874 C1872 1.327 . S
C1874 C1893 1.429 . S
C1874 H1898 0.950 . S
C1875 C1892 1.574 . S
C1875 C1894 1.368 . S
C1875 H1899 0.949 . S
H1876 C1880 0.949 . S
C1877 C1878 1.349 . S
C1877 C1879 1.327 . S
C1877 H1900 0.950 . S
C1878 C1877 1.349 . S
C1878 C1890 1.349 . S
C1879 C1877 1.327 . S
C1879 C1895 1.429 . S
C1879 H1901 0.950 . S
C1880 H1876 0.949 . S
C1880 C1888 1.574 . S
C1880 C1896 1.368 . S
H1881 C1889 0.950 . S
H1882 C1887 0.950 . S
H1883 C1888 0.949 . S
H1884 C1890 0.950 . S
H1885 C1891 0.950 . S
H1886 C1892 0.949 . S
C1887 H1882 0.950 . S
C1887 C1889 1.327 . S
C1887 C1893 1.429 . S
C1888 C1880 1.574 . S
C1888 H1883 0.949 . S
C1888 C1894 1.368 . S
C1889 C1873 1.349 . S
C1889 H1881 0.950 . S
C1889 C1887 1.327 . S
C1890 C1878 1.349 . S
C1890 H1884 0.950 . S
C1890 C1891 1.327 . S
C1891 H1885 0.950 . S
C1891 C1890 1.327 . S
C1891 C1895 1.429 . S
C1892 C1875 1.574 . S
C1892 H1886 0.949 . S
C1892 C1896 1.368 . S
C1893 C1874 1.429 . S
C1893 C1887 1.429 . S
C1893 C1894 1.523 . S
C1894 C1875 1.368 . S
C1894 C1888 1.368 . S
C1894 C1893 1.523 . S
C1895 C1879 1.429 . S
C1895 C1891 1.429 . S
C1895 C1896 1.523 . S
C1896 C1880 1.368 . S
C1896 C1892 1.368 . S
C1896 C1895 1.523 . S
H1897 C1872 0.950 . S
H1898 C1874 0.950 . S
H1899 C1875 0.949 . S
H1900 C1877 0.950 . S
H1901 C1879 0.950 . S
C1902 C1903 1.349 . S
C1902 C1904 1.327 . S
C1902 H1927 0.950 . S
C1903 C1902 1.349 . S
C1903 C1919 1.349 . S
C1904 C1902 1.327 . S
C1904 C1923 1.429 . S
C1904 H1928 0.950 . S
C1905 C1922 1.574 . S
C1905 C1924 1.368 . S
C1905 H1929 0.949 . S
H1906 C1910 0.949 . S
C1907 C1908 1.349 . S
C1907 C1909 1.327 . S
C1907 H1930 0.950 . S
C1908 C1907 1.349 . S
C1908 C1920 1.349 . S
C1909 C1907 1.327 . S
C1909 C1925 1.429 . S
C1909 H1931 0.950 . S
C1910 H1906 0.949 . S
C1910 C1918 1.574 . S
C1910 C1926 1.368 . S
H1911 C1919 0.950 . S
H1912 C1917 0.950 . S
H1913 C1918 0.949 . S
H1914 C1920 0.950 . S
H1915 C1921 0.950 . S
H1916 C1922 0.949 . S
C1917 H1912 0.950 . S
C1917 C1919 1.327 . S
C1917 C1923 1.429 . S
C1918 C1910 1.574 . S
C1918 H1913 0.949 . S
C1918 C1924 1.368 . S
C1919 C1903 1.349 . S
C1919 H1911 0.950 . S
C1919 C1917 1.327 . S
C1920 C1908 1.349 . S
C1920 H1914 0.950 . S
C1920 C1921 1.327 . S
C1921 H1915 0.950 . S
C1921 C1920 1.327 . S
C1921 C1925 1.429 . S
C1922 C1905 1.574 . S
C1922 H1916 0.949 . S
C1922 C1926 1.368 . S
C1923 C1904 1.429 . S
C1923 C1917 1.429 . S
C1923 C1924 1.523 . S
C1924 C1905 1.368 . S
C1924 C1918 1.368 . S
C1924 C1923 1.523 . S
C1925 C1909 1.429 . S
C1925 C1921 1.429 . S
C1925 C1926 1.523 . S
C1926 C1910 1.368 . S
C1926 C1922 1.368 . S
C1926 C1925 1.523 . S
H1927 C1902 0.950 . S
H1928 C1904 0.950 . S
H1929 C1905 0.949 . S
H1930 C1907 0.950 . S
H1931 C1909 0.950 . S
C1932 C1933 1.350 . S
C1932 C1934 1.334 . S
C1932 H1957 0.941 1_455 S
C1933 C1932 1.350 . S
C1933 C1949 1.349 . S
C1934 C1932 1.334 . S
C1934 C1953 1.429 . S
C1934 H1958 0.950 . S
C1935 C1952 1.574 . S
C1935 C1954 1.368 . S
C1935 H1959 0.949 . S
H1936 C1940 0.949 . S
C1937 C1938 1.349 . S
C1937 C1939 1.327 . S
C1937 H1960 0.950 . S
C1938 C1937 1.349 . S
C1938 C1950 1.349 . S
C1939 C1937 1.327 . S
C1939 C1955 1.429 . S
C1939 H1961 0.950 . S
C1940 H1936 0.949 . S
C1940 C1948 1.574 . S
C1940 C1956 1.368 . S
H1941 C1949 0.950 1_556 S
H1942 C1947 0.985 . S
H1943 C1948 0.949 . S
H1944 C1950 0.950 . S
H1945 C1951 0.950 . S
H1946 C1952 0.949 . S
C1947 H1942 0.985 . S
C1947 C1949 1.327 . S
C1947 C1953 1.429 . S
C1948 C1940 1.574 . S
C1948 H1943 0.949 . S
C1948 C1954 1.368 . S
C1949 C1933 1.349 . S
C1949 H1941 0.950 1_554 S
C1949 C1947 1.327 . S
C1950 C1938 1.349 . S
C1950 H1944 0.950 . S
C1950 C1951 1.327 . S
C1951 H1945 0.950 . S
C1951 C1950 1.327 . S
C1951 C1955 1.429 . S
C1952 C1935 1.574 . S
C1952 H1946 0.949 . S
C1952 C1956 1.368 . S
C1953 C1934 1.429 . S
C1953 C1947 1.429 . S
C1953 C1954 1.523 . S
C1954 C1935 1.368 . S
C1954 C1948 1.368 . S
C1954 C1953 1.523 . S
C1955 C1939 1.429 . S
C1955 C1951 1.429 . S
C1955 C1956 1.523 . S
C1956 C1940 1.368 . S
C1956 C1952 1.368 . S
C1956 C1955 1.523 . S
H1957 C1932 0.941 1_655 S
H1958 C1934 0.950 . S
H1959 C1935 0.949 . S
H1960 C1937 0.950 . S
H1961 C1939 0.950 . S
C1962 C1963 1.349 . S
C1962 C1964 1.327 . S
C1962 H1987 0.950 . S
C1963 C1962 1.349 . S
C1963 C1979 1.349 . S
C1964 C1962 1.327 . S
C1964 C1983 1.429 . S
C1964 H1988 0.950 . S
C1965 C1982 1.574 . S
C1965 C1984 1.368 . S
C1965 H1989 0.949 . S
H1966 C1970 0.949 . S
C1967 C1968 1.349 . S
C1967 C1969 1.327 . S
C1967 H1990 0.950 . S
C1968 C1967 1.349 . S
C1968 C1980 1.349 . S
C1969 C1967 1.327 . S
C1969 C1985 1.429 . S
C1969 H1991 0.950 . S
C1970 H1966 0.949 . S
C1970 C1978 1.574 . S
C1970 C1986 1.368 . S
H1971 C1979 0.950 . S
H1972 C1977 0.950 . S
H1973 C1978 0.949 . S
H1974 C1980 0.950 . S
H1975 C1981 0.950 . S
H1976 C1982 0.949 . S
C1977 H1972 0.950 . S
C1977 C1979 1.327 . S
C1977 C1983 1.429 . S
C1978 C1970 1.574 . S
C1978 H1973 0.949 . S
C1978 C1984 1.368 . S
C1979 C1963 1.349 . S
C1979 H1971 0.950 . S
C1979 C1977 1.327 . S
C1980 C1968 1.349 . S
C1980 H1974 0.950 . S
C1980 C1981 1.327 . S
C1981 H1975 0.950 . S
C1981 C1980 1.327 . S
C1981 C1985 1.429 . S
C1982 C1965 1.574 . S
C1982 H1976 0.949 . S
C1982 C1986 1.368 . S
C1983 C1964 1.429 . S
C1983 C1977 1.429 . S
C1983 C1984 1.523 . S
C1984 C1965 1.368 . S
C1984 C1978 1.368 . S
C1984 C1983 1.523 . S
C1985 C1969 1.429 . S
C1985 C1981 1.429 . S
C1985 C1986 1.523 . S
C1986 C1970 1.368 . S
C1986 C1982 1.368 . S
C1986 C1985 1.523 . S
H1987 C1962 0.950 . S
H1988 C1964 0.950 . S
H1989 C1965 0.949 . S
H1990 C1967 0.950 . S
H1991 C1969 0.950 . S
C1992 C1993 1.349 . S
C1992 C1994 1.327 . S
C1992 H2017 0.950 . S
C1993 C1992 1.349 . S
C1993 C2009 1.349 . S
C1994 C1992 1.327 . S
C1994 C2013 1.429 . S
C1994 H2018 0.950 . S
C1995 C2012 1.574 . S
C1995 C2014 1.368 . S
C1995 H2019 0.949 . S
H1996 C2000 0.949 . S
C1997 C1998 1.349 . S
C1997 C1999 1.327 . S
C1997 H2020 0.950 1_655 S
C1998 C1997 1.349 . S
C1998 C2010 1.349 . S
C1999 C1997 1.327 . S
C1999 C2015 1.429 . S
C1999 H2021 0.950 . S
C2000 H1996 0.949 . S
C2000 C2008 1.574 . S
C2000 C2016 1.368 . S
H2001 C2009 0.950 . S
H2002 C2007 0.950 . S
H2003 C2008 0.949 . S
H2004 C2010 0.950 1_556 S
H2005 C2011 0.950 1_556 S
H2006 C2012 0.949 . S
C2007 H2002 0.950 . S
C2007 C2009 1.327 . S
C2007 C2013 1.429 . S
C2008 C2000 1.574 . S
C2008 H2003 0.949 . S
C2008 C2014 1.368 . S
C2009 C1993 1.349 . S
C2009 H2001 0.950 . S
C2009 C2007 1.327 . S
C2010 C1998 1.349 . S
C2010 H2004 0.950 1_554 S
C2010 C2011 1.327 . S
C2011 H2005 0.950 1_554 S
C2011 C2010 1.327 . S
C2011 C2015 1.429 . S
C2012 C1995 1.574 . S
C2012 H2006 0.949 . S
C2012 C2016 1.368 . S
C2013 C1994 1.429 . S
C2013 C2007 1.429 . S
C2013 C2014 1.523 . S
C2014 C1995 1.368 . S
C2014 C2008 1.368 . S
C2014 C2013 1.523 . S
C2015 C1999 1.429 . S
C2015 C2011 1.429 . S
C2015 C2016 1.523 . S
C2016 C2000 1.368 . S
C2016 C2012 1.368 . S
C2016 C2015 1.523 . S
H2017 C1992 0.950 . S
H2018 C1994 0.950 . S
H2019 C1995 0.949 . S
H2020 C1997 0.950 1_455 S
H2021 C1999 0.950 . S
C2022 C2023 1.349 . S
C2022 C2024 1.327 . S
C2022 H2047 0.950 . S
C2023 C2022 1.349 . S
C2023 C2039 1.349 . S
C2024 C2022 1.327 . S
C2024 C2043 1.429 . S
C2024 H2048 0.950 . S
C2025 C2042 1.574 . S
C2025 C2044 1.368 . S
C2025 H2049 0.949 . S
H2026 C2030 0.949 . S
C2027 C2028 1.349 . S
C2027 C2029 1.327 . S
C2027 H2050 0.950 . S
C2028 C2027 1.349 . S
C2028 C2040 1.349 . S
C2029 C2027 1.327 . S
C2029 C2045 1.429 . S
C2029 H2051 0.950 . S
C2030 H2026 0.949 . S
C2030 C2038 1.574 . S
C2030 C2046 1.368 . S
H2031 C2039 0.950 . S
H2032 C2037 0.950 . S
H2033 C2038 0.949 . S
H2034 C2040 0.950 . S
H2035 C2041 0.950 . S
H2036 C2042 0.949 . S
C2037 H2032 0.950 . S
C2037 C2039 1.327 . S
C2037 C2043 1.429 . S
C2038 C2030 1.574 . S
C2038 H2033 0.949 . S
C2038 C2044 1.368 . S
C2039 C2023 1.349 . S
C2039 H2031 0.950 . S
C2039 C2037 1.327 . S
C2040 C2028 1.349 . S
C2040 H2034 0.950 . S
C2040 C2041 1.327 . S
C2041 H2035 0.950 . S
C2041 C2040 1.327 . S
C2041 C2045 1.429 . S
C2042 C2025 1.574 . S
C2042 H2036 0.949 . S
C2042 C2046 1.368 . S
C2043 C2024 1.429 . S
C2043 C2037 1.429 . S
C2043 C2044 1.523 . S
C2044 C2025 1.368 . S
C2044 C2038 1.368 . S
C2044 C2043 1.523 . S
C2045 C2029 1.429 . S
C2045 C2041 1.429 . S
C2045 C2046 1.523 . S
C2046 C2030 1.368 . S
C2046 C2042 1.368 . S
C2046 C2045 1.523 . S
H2047 C2022 0.950 . S
H2048 C2024 0.950 . S
H2049 C2025 0.949 . S
H2050 C2027 0.950 . S
H2051 C2029 0.950 . S
C2052 C2053 1.349 . S
C2052 C2054 1.327 . S
C2052 H2077 0.950 . S
C2053 C2052 1.349 . S
C2053 C2069 1.352 . S
C2054 C2052 1.327 . S
C2054 C2073 1.429 . S
C2054 H2078 0.950 . S
C2055 C2072 1.574 . S
C2055 C2074 1.368 . S
C2055 H2079 0.949 . S
H2056 C2060 0.949 . S
C2057 C2058 1.349 . S
C2057 C2059 1.327 . S
C2057 H2080 0.950 . S
C2058 C2057 1.349 . S
C2058 C2070 1.349 . S
C2059 C2057 1.327 . S
C2059 C2075 1.429 . S
C2059 H2081 0.950 . S
C2060 H2056 0.949 . S
C2060 C2068 1.574 . S
C2060 C2076 1.368 . S
H2061 C2069 0.917 1_655 S
H2062 C2067 0.950 . S
H2063 C2068 0.949 . S
H2064 C2070 0.950 . S
H2065 C2071 0.950 . S
H2066 C2072 0.949 . S
C2067 H2062 0.950 . S
C2067 C2069 1.357 . S
C2067 C2073 1.429 . S
C2068 C2060 1.574 . S
C2068 H2063 0.949 . S
C2068 C2074 1.368 . S
C2069 C2053 1.352 . S
C2069 H2061 0.917 1_455 S
C2069 C2067 1.357 . S
C2070 C2058 1.349 . S
C2070 H2064 0.950 . S
C2070 C2071 1.327 . S
C2071 H2065 0.950 . S
C2071 C2070 1.327 . S
C2071 C2075 1.429 . S
C2072 C2055 1.574 . S
C2072 H2066 0.949 . S
C2072 C2076 1.368 . S
C2073 C2054 1.429 . S
C2073 C2067 1.429 . S
C2073 C2074 1.523 . S
C2074 C2055 1.368 . S
C2074 C2068 1.368 . S
C2074 C2073 1.523 . S
C2075 C2059 1.429 . S
C2075 C2071 1.429 . S
C2075 C2076 1.523 . S
C2076 C2060 1.368 . S
C2076 C2072 1.368 . S
C2076 C2075 1.523 . S
H2077 C2052 0.950 . S
H2078 C2054 0.950 . S
H2079 C2055 0.949 . S
H2080 C2057 0.950 . S
H2081 C2059 0.950 . S
C2082 C2083 1.349 . S
C2082 C2084 1.327 . S
C2082 H2107 0.950 1_556 S
C2083 C2082 1.349 . S
C2083 C2099 1.349 . S
C2084 C2082 1.327 . S
C2084 C2103 1.429 . S
C2084 H2108 0.950 . S
C2085 C2102 1.574 . S
C2085 C2104 1.368 . S
C2085 H2109 0.949 . S
H2086 C2090 0.949 . S
C2087 C2088 1.349 . S
C2087 C2089 1.327 . S
C2087 H2110 0.950 . S
C2088 C2087 1.349 . S
C2088 C2100 1.349 . S
C2089 C2087 1.327 . S
C2089 C2105 1.429 . S
C2089 H2111 0.950 . S
C2090 H2086 0.949 . S
C2090 C2098 1.574 . S
C2090 C2106 1.368 . S
H2091 C2099 0.950 . S
H2092 C2097 0.950 . S
H2093 C2098 0.949 . S
H2094 C2100 0.950 . S
H2095 C2101 0.950 . S
H2096 C2102 0.949 . S
C2097 H2092 0.950 . S
C2097 C2099 1.327 . S
C2097 C2103 1.429 . S
C2098 C2090 1.574 . S
C2098 H2093 0.949 . S
C2098 C2104 1.368 . S
C2099 C2083 1.349 . S
C2099 H2091 0.950 . S
C2099 C2097 1.327 . S
C2100 C2088 1.349 . S
C2100 H2094 0.950 . S
C2100 C2101 1.327 . S
C2101 H2095 0.950 . S
C2101 C2100 1.327 . S
C2101 C2105 1.429 . S
C2102 C2085 1.574 . S
C2102 H2096 0.949 . S
C2102 C2106 1.368 . S
C2103 C2084 1.429 . S
C2103 C2097 1.429 . S
C2103 C2104 1.523 . S
C2104 C2085 1.368 . S
C2104 C2098 1.368 . S
C2104 C2103 1.523 . S
C2105 C2089 1.429 . S
C2105 C2101 1.429 . S
C2105 C2106 1.523 . S
C2106 C2090 1.368 . S
C2106 C2102 1.368 . S
C2106 C2105 1.523 . S
H2107 C2082 0.950 1_554 S
H2108 C2084 0.950 . S
H2109 C2085 0.949 . S
H2110 C2087 0.950 . S
H2111 C2089 0.950 . S
C2112 C2113 1.349 . S
C2112 C2114 1.327 . S
C2112 H2137 0.950 . S
C2113 C2112 1.349 . S
C2113 C2129 1.349 . S
C2114 C2112 1.327 . S
C2114 C2133 1.429 . S
C2114 H2138 0.950 . S
C2115 C2132 1.574 . S
C2115 C2134 1.368 . S
C2115 H2139 0.949 . S
H2116 C2120 0.949 . S
C2117 C2118 1.349 . S
C2117 C2119 1.327 . S
C2117 H2140 0.950 . S
C2118 C2117 1.349 . S
C2118 C2130 1.349 . S
C2119 C2117 1.327 . S
C2119 C2135 1.429 . S
C2119 H2141 0.950 . S
C2120 H2116 0.949 . S
C2120 C2128 1.574 . S
C2120 C2136 1.368 . S
H2121 C2129 0.950 . S
H2122 C2127 0.950 . S
H2123 C2128 0.949 . S
H2124 C2130 0.950 . S
H2125 C2131 0.950 . S
H2126 C2132 0.949 . S
C2127 H2122 0.950 . S
C2127 C2129 1.327 . S
C2127 C2133 1.429 . S
C2128 C2120 1.574 . S
C2128 H2123 0.949 . S
C2128 C2134 1.368 . S
C2129 C2113 1.349 . S
C2129 H2121 0.950 . S
C2129 C2127 1.327 . S
C2130 C2118 1.349 . S
C2130 H2124 0.950 . S
C2130 C2131 1.327 . S
C2131 H2125 0.950 . S
C2131 C2130 1.327 . S
C2131 C2135 1.429 . S
C2132 C2115 1.574 . S
C2132 H2126 0.949 . S
C2132 C2136 1.368 . S
C2133 C2114 1.429 . S
C2133 C2127 1.429 . S
C2133 C2134 1.523 . S
C2134 C2115 1.368 . S
C2134 C2128 1.368 . S
C2134 C2133 1.523 . S
C2135 C2119 1.429 . S
C2135 C2131 1.429 . S
C2135 C2136 1.523 . S
C2136 C2120 1.368 . S
C2136 C2132 1.368 . S
C2136 C2135 1.523 . S
H2137 C2112 0.950 . S
H2138 C2114 0.950 . S
H2139 C2115 0.949 . S
H2140 C2117 0.950 . S
H2141 C2119 0.950 . S
C2142 C2143 1.349 . S
C2142 C2144 1.327 . S
C2142 H2167 0.950 . S
C2143 C2142 1.349 . S
C2143 C2159 1.349 . S
C2144 C2142 1.327 . S
C2144 C2163 1.429 . S
C2144 H2168 0.950 . S
C2145 C2162 1.574 . S
C2145 C2164 1.368 . S
C2145 H2169 0.949 . S
H2146 C2150 0.949 . S
C2147 C2148 1.349 . S
C2147 C2149 1.327 . S
C2147 H2170 0.950 1_554 S
C2148 C2147 1.349 . S
C2148 C2160 1.349 . S
C2149 C2147 1.327 . S
C2149 C2165 1.429 . S
C2149 H2171 0.950 . S
C2150 H2146 0.949 . S
C2150 C2158 1.574 . S
C2150 C2166 1.368 . S
H2151 C2159 0.950 . S
H2152 C2157 0.950 . S
H2153 C2158 0.949 . S
H2154 C2160 0.950 . S
H2155 C2161 0.950 . S
H2156 C2162 0.949 . S
C2157 H2152 0.950 . S
C2157 C2159 1.327 . S
C2157 C2163 1.429 . S
C2158 C2150 1.574 . S
C2158 H2153 0.949 . S
C2158 C2164 1.368 . S
C2159 C2143 1.349 . S
C2159 H2151 0.950 . S
C2159 C2157 1.327 . S
C2160 C2148 1.349 . S
C2160 H2154 0.950 . S
C2160 C2161 1.327 . S
C2161 H2155 0.950 . S
C2161 C2160 1.327 . S
C2161 C2165 1.429 . S
C2162 C2145 1.574 . S
C2162 H2156 0.949 . S
C2162 C2166 1.368 . S
C2163 C2144 1.429 . S
C2163 C2157 1.429 . S
C2163 C2164 1.523 . S
C2164 C2145 1.368 . S
C2164 C2158 1.368 . S
C2164 C2163 1.523 . S
C2165 C2149 1.429 . S
C2165 C2161 1.429 . S
C2165 C2166 1.523 . S
C2166 C2150 1.368 . S
C2166 C2162 1.368 . S
C2166 C2165 1.523 . S
H2167 C2142 0.950 . S
H2168 C2144 0.950 . S
H2169 C2145 0.949 . S
H2170 C2147 0.950 1_556 S
H2171 C2149 0.950 . S
C2172 C2173 1.349 . S
C2172 C2174 1.327 . S
C2172 H2197 0.950 . S
C2173 C2172 1.349 . S
C2173 C2189 1.349 . S
C2174 C2172 1.327 . S
C2174 C2193 1.429 . S
C2174 H2198 0.950 . S
C2175 C2192 1.574 . S
C2175 C2194 1.368 . S
C2175 H2199 0.949 . S
H2176 C2180 0.949 . S
C2177 C2178 1.349 . S
C2177 C2179 1.327 . S
C2177 H2200 0.950 . S
C2178 C2177 1.349 . S
C2178 C2190 1.349 . S
C2179 C2177 1.327 . S
C2179 C2195 1.429 . S
C2179 H2201 0.950 . S
C2180 H2176 0.949 . S
C2180 C2188 1.574 . S
C2180 C2196 1.368 . S
H2181 C2189 0.950 . S
H2182 C2187 0.950 . S
H2183 C2188 0.949 . S
H2184 C2190 0.950 . S
H2185 C2191 0.950 . S
H2186 C2192 0.949 . S
C2187 H2182 0.950 . S
C2187 C2189 1.327 . S
C2187 C2193 1.429 . S
C2188 C2180 1.574 . S
C2188 H2183 0.949 . S
C2188 C2194 1.368 . S
C2189 C2173 1.349 . S
C2189 H2181 0.950 . S
C2189 C2187 1.327 . S
C2190 C2178 1.349 . S
C2190 H2184 0.950 . S
C2190 C2191 1.327 . S
C2191 H2185 0.950 . S
C2191 C2190 1.327 . S
C2191 C2195 1.429 . S
C2192 C2175 1.574 . S
C2192 H2186 0.949 . S
C2192 C2196 1.368 . S
C2193 C2174 1.429 . S
C2193 C2187 1.429 . S
C2193 C2194 1.523 . S
C2194 C2175 1.368 . S
C2194 C2188 1.368 . S
C2194 C2193 1.523 . S
C2195 C2179 1.429 . S
C2195 C2191 1.429 . S
C2195 C2196 1.523 . S
C2196 C2180 1.368 . S
C2196 C2192 1.368 . S
C2196 C2195 1.523 . S
H2197 C2172 0.950 . S
H2198 C2174 0.950 . S
H2199 C2175 0.949 . S
H2200 C2177 0.950 . S
H2201 C2179 0.950 . S
C2202 C2203 1.349 . S
C2202 C2204 1.327 . S
C2202 H2227 0.950 . S
C2203 C2202 1.349 . S
C2203 C2219 1.349 . S
C2204 C2202 1.327 . S
C2204 C2223 1.429 . S
C2204 H2228 0.950 . S
C2205 C2222 1.574 . S
C2205 C2224 1.368 . S
C2205 H2229 0.949 . S
H2206 C2210 0.949 . S
C2207 C2208 1.349 . S
C2207 C2209 1.327 . S
C2207 H2230 0.950 . S
C2208 C2207 1.349 . S
C2208 C2220 1.349 . S
C2209 C2207 1.327 . S
C2209 C2225 1.429 . S
C2209 H2231 0.950 . S
C2210 H2206 0.949 . S
C2210 C2218 1.574 . S
C2210 C2226 1.368 . S
H2211 C2219 0.950 . S
H2212 C2217 0.950 . S
H2213 C2218 0.949 . S
H2214 C2220 0.950 . S
H2215 C2221 0.950 . S
H2216 C2222 0.949 . S
C2217 H2212 0.950 . S
C2217 C2219 1.327 . S
C2217 C2223 1.429 . S
C2218 C2210 1.574 . S
C2218 H2213 0.949 . S
C2218 C2224 1.368 . S
C2219 C2203 1.349 . S
C2219 H2211 0.950 . S
C2219 C2217 1.327 . S
C2220 C2208 1.349 . S
C2220 H2214 0.950 . S
C2220 C2221 1.327 . S
C2221 H2215 0.950 . S
C2221 C2220 1.327 . S
C2221 C2225 1.429 . S
C2222 C2205 1.574 . S
C2222 H2216 0.949 . S
C2222 C2226 1.368 . S
C2223 C2204 1.429 . S
C2223 C2217 1.429 . S
C2223 C2224 1.523 . S
C2224 C2205 1.368 . S
C2224 C2218 1.368 . S
C2224 C2223 1.523 . S
C2225 C2209 1.429 . S
C2225 C2221 1.429 . S
C2225 C2226 1.523 . S
C2226 C2210 1.368 . S
C2226 C2222 1.368 . S
C2226 C2225 1.523 . S
H2227 C2202 0.950 . S
H2228 C2204 0.950 . S
H2229 C2205 0.949 . S
H2230 C2207 0.950 . S
H2231 C2209 0.950 . S
C2232 C2233 1.349 . S
C2232 C2234 1.327 . S
C2232 H2257 0.950 . S
C2233 C2232 1.349 . S
C2233 C2249 1.349 . S
C2234 C2232 1.327 . S
C2234 C2253 1.429 . S
C2234 H2258 0.950 . S
C2235 C2252 1.574 . S
C2235 C2254 1.368 . S
C2235 H2259 0.949 . S
H2236 C2240 0.949 . S
C2237 C2238 1.349 . S
C2237 C2239 1.327 . S
C2237 H2260 0.950 . S
C2238 C2237 1.349 . S
C2238 C2250 1.349 . S
C2239 C2237 1.327 . S
C2239 C2255 1.429 . S
C2239 H2261 0.950 . S
C2240 H2236 0.949 . S
C2240 C2248 1.574 . S
C2240 C2256 1.368 . S
H2241 C2249 0.950 . S
H2242 C2247 0.950 . S
H2243 C2248 0.949 . S
H2244 C2250 0.950 . S
H2245 C2251 0.950 . S
H2246 C2252 0.949 . S
C2247 H2242 0.950 . S
C2247 C2249 1.327 . S
C2247 C2253 1.429 . S
C2248 C2240 1.574 . S
C2248 H2243 0.949 . S
C2248 C2254 1.368 . S
C2249 C2233 1.349 . S
C2249 H2241 0.950 . S
C2249 C2247 1.327 . S
C2250 C2238 1.349 . S
C2250 H2244 0.950 . S
C2250 C2251 1.327 . S
C2251 H2245 0.950 . S
C2251 C2250 1.327 . S
C2251 C2255 1.429 . S
C2252 C2235 1.574 . S
C2252 H2246 0.949 . S
C2252 C2256 1.368 . S
C2253 C2234 1.429 . S
C2253 C2247 1.429 . S
C2253 C2254 1.523 . S
C2254 C2235 1.368 . S
C2254 C2248 1.368 . S
C2254 C2253 1.523 . S
C2255 C2239 1.429 . S
C2255 C2251 1.429 . S
C2255 C2256 1.523 . S
C2256 C2240 1.368 . S
C2256 C2252 1.368 . S
C2256 C2255 1.523 . S
H2257 C2232 0.950 . S
H2258 C2234 0.950 . S
H2259 C2235 0.949 . S
H2260 C2237 0.950 . S
H2261 C2239 0.950 . S
C2262 C2263 1.349 . S
C2262 C2264 1.327 . S
C2262 H2287 0.950 . S
C2263 C2262 1.349 . S
C2263 C2279 1.349 . S
C2264 C2262 1.327 . S
C2264 C2283 1.429 . S
C2264 H2288 0.950 . S
C2265 C2282 1.574 . S
C2265 C2284 1.368 . S
C2265 H2289 0.949 . S
H2266 C2270 0.949 . S
C2267 C2268 1.349 . S
C2267 C2269 1.327 . S
C2267 H2290 0.950 . S
C2268 C2267 1.349 . S
C2268 C2280 1.349 . S
C2269 C2267 1.327 . S
C2269 C2285 1.429 . S
C2269 H2291 0.950 . S
C2270 H2266 0.949 . S
C2270 C2278 1.574 . S
C2270 C2286 1.368 . S
H2271 C2279 0.950 1_554 S
H2272 C2277 0.950 . S
H2273 C2278 0.949 . S
H2274 C2280 0.950 . S
H2275 C2281 0.950 . S
H2276 C2282 0.949 . S
C2277 H2272 0.950 . S
C2277 C2279 1.327 . S
C2277 C2283 1.429 . S
C2278 C2270 1.574 . S
C2278 H2273 0.949 . S
C2278 C2284 1.368 . S
C2279 C2263 1.349 . S
C2279 H2271 0.950 1_556 S
C2279 C2277 1.327 . S
C2280 C2268 1.349 . S
C2280 H2274 0.950 . S
C2280 C2281 1.327 . S
C2281 H2275 0.950 . S
C2281 C2280 1.327 . S
C2281 C2285 1.429 . S
C2282 C2265 1.574 . S
C2282 H2276 0.949 . S
C2282 C2286 1.368 . S
C2283 C2264 1.429 . S
C2283 C2277 1.429 . S
C2283 C2284 1.523 . S
C2284 C2265 1.368 . S
C2284 C2278 1.368 . S
C2284 C2283 1.523 . S
C2285 C2269 1.429 . S
C2285 C2281 1.429 . S
C2285 C2286 1.523 . S
C2286 C2270 1.368 . S
C2286 C2282 1.368 . S
C2286 C2285 1.523 . S
H2287 C2262 0.950 . S
H2288 C2264 0.950 . S
H2289 C2265 0.949 . S
H2290 C2267 0.950 . S
H2291 C2269 0.950 . S
C2292 C2293 1.349 . S
C2292 C2294 1.327 . S
C2292 H2317 0.950 . S
C2293 C2292 1.349 . S
C2293 C2309 1.349 . S
C2294 C2292 1.327 . S
C2294 C2313 1.429 . S
C2294 H2318 0.950 . S
C2295 C2312 1.574 . S
C2295 C2314 1.368 . S
C2295 H2319 0.949 . S
H2296 C2300 0.949 . S
C2297 C2298 1.349 . S
C2297 C2299 1.327 . S
C2297 H2320 0.950 . S
C2298 C2297 1.349 . S
C2298 C2310 1.349 . S
C2299 C2297 1.327 . S
C2299 C2315 1.429 . S
C2299 H2321 0.950 . S
C2300 H2296 0.949 . S
C2300 C2308 1.574 . S
C2300 C2316 1.368 . S
H2301 C2309 0.950 . S
H2302 C2307 0.950 . S
H2303 C2308 0.949 . S
H2304 C2310 0.950 . S
H2305 C2311 0.950 . S
H2306 C2312 0.949 . S
C2307 H2302 0.950 . S
C2307 C2309 1.327 . S
C2307 C2313 1.429 . S
C2308 C2300 1.574 . S
C2308 H2303 0.949 . S
C2308 C2314 1.368 . S
C2309 C2293 1.349 . S
C2309 H2301 0.950 . S
C2309 C2307 1.327 . S
C2310 C2298 1.349 . S
C2310 H2304 0.950 . S
C2310 C2311 1.327 . S
C2311 H2305 0.950 . S
C2311 C2310 1.327 . S
C2311 C2315 1.429 . S
C2312 C2295 1.574 . S
C2312 H2306 0.949 . S
C2312 C2316 1.368 . S
C2313 C2294 1.429 . S
C2313 C2307 1.429 . S
C2313 C2314 1.523 . S
C2314 C2295 1.368 . S
C2314 C2308 1.368 . S
C2314 C2313 1.523 . S
C2315 C2299 1.429 . S
C2315 C2311 1.429 . S
C2315 C2316 1.523 . S
C2316 C2300 1.368 . S
C2316 C2312 1.368 . S
C2316 C2315 1.523 . S
H2317 C2292 0.950 . S
H2318 C2294 0.950 . S
H2319 C2295 0.949 . S
H2320 C2297 0.950 . S
H2321 C2299 0.950 . S
C2322 C2323 1.349 . S
C2322 C2324 1.327 . S
C2322 H2347 0.950 . S
C2323 C2322 1.349 . S
C2323 C2339 1.349 . S
C2324 C2322 1.327 . S
C2324 C2343 1.429 . S
C2324 H2348 0.950 . S
C2325 C2342 1.574 . S
C2325 C2344 1.368 . S
C2325 H2349 0.949 . S
H2326 C2330 0.949 . S
C2327 C2328 1.349 . S
C2327 C2329 1.327 . S
C2327 H2350 0.950 . S
C2328 C2327 1.349 . S
C2328 C2340 1.349 . S
C2329 C2327 1.327 . S
C2329 C2345 1.429 . S
C2329 H2351 0.950 . S
C2330 H2326 0.949 . S
C2330 C2338 1.574 . S
C2330 C2346 1.368 . S
H2331 C2339 0.950 . S
H2332 C2337 0.950 . S
H2333 C2338 0.949 . S
H2334 C2340 0.950 . S
H2335 C2341 0.950 . S
H2336 C2342 0.949 . S
C2337 H2332 0.950 . S
C2337 C2339 1.327 . S
C2337 C2343 1.429 . S
C2338 C2330 1.574 . S
C2338 H2333 0.949 . S
C2338 C2344 1.368 . S
C2339 C2323 1.349 . S
C2339 H2331 0.950 . S
C2339 C2337 1.327 . S
C2340 C2328 1.349 . S
C2340 H2334 0.950 . S
C2340 C2341 1.327 . S
C2341 H2335 0.950 . S
C2341 C2340 1.327 . S
C2341 C2345 1.429 . S
C2342 C2325 1.574 . S
C2342 H2336 0.949 . S
C2342 C2346 1.368 . S
C2343 C2324 1.429 . S
C2343 C2337 1.429 . S
C2343 C2344 1.523 . S
C2344 C2325 1.368 . S
C2344 C2338 1.368 . S
C2344 C2343 1.523 . S
C2345 C2329 1.429 . S
C2345 C2341 1.429 . S
C2345 C2346 1.523 . S
C2346 C2330 1.368 . S
C2346 C2342 1.368 . S
C2346 C2345 1.523 . S
H2347 C2322 0.950 . S
H2348 C2324 0.950 . S
H2349 C2325 0.949 . S
H2350 C2327 0.950 . S
H2351 C2329 0.950 . S
C2352 C2353 1.349 . S
C2352 C2354 1.327 . S
C2352 H2377 0.950 . S
C2353 C2352 1.349 . S
C2353 C2369 1.349 . S
C2354 C2352 1.327 . S
C2354 C2373 1.429 . S
C2354 H2378 0.950 . S
C2355 C2372 1.574 . S
C2355 C2374 1.368 . S
C2355 H2379 0.949 . S
H2356 C2360 0.949 . S
C2357 C2358 1.349 . S
C2357 C2359 1.327 . S
C2357 H2380 0.950 . S
C2358 C2357 1.349 . S
C2358 C2370 1.349 . S
C2359 C2357 1.327 . S
C2359 C2375 1.429 . S
C2359 H2381 0.950 . S
C2360 H2356 0.949 . S
C2360 C2368 1.574 . S
C2360 C2376 1.368 . S
H2361 C2369 0.950 . S
H2362 C2367 0.950 . S
H2363 C2368 0.949 . S
H2364 C2370 0.950 . S
H2365 C2371 0.950 . S
H2366 C2372 0.949 . S
C2367 H2362 0.950 . S
C2367 C2369 1.327 . S
C2367 C2373 1.429 . S
C2368 C2360 1.574 . S
C2368 H2363 0.949 . S
C2368 C2374 1.368 . S
C2369 C2353 1.349 . S
C2369 H2361 0.950 . S
C2369 C2367 1.327 . S
C2370 C2358 1.349 . S
C2370 H2364 0.950 . S
C2370 C2371 1.327 . S
C2371 H2365 0.950 . S
C2371 C2370 1.327 . S
C2371 C2375 1.429 . S
C2372 C2355 1.574 . S
C2372 H2366 0.949 . S
C2372 C2376 1.368 . S
C2373 C2354 1.429 . S
C2373 C2367 1.429 . S
C2373 C2374 1.523 . S
C2374 C2355 1.368 . S
C2374 C2368 1.368 . S
C2374 C2373 1.523 . S
C2375 C2359 1.429 . S
C2375 C2371 1.429 . S
C2375 C2376 1.523 . S
C2376 C2360 1.368 . S
C2376 C2372 1.368 . S
C2376 C2375 1.523 . S
H2377 C2352 0.950 . S
H2378 C2354 0.950 . S
H2379 C2355 0.949 . S
H2380 C2357 0.950 . S
H2381 C2359 0.950 . S
C2382 C2383 1.349 . S
C2382 C2384 1.327 . S
C2382 H2407 0.950 . S
C2383 C2382 1.349 . S
C2383 C2399 1.349 . S
C2384 C2382 1.327 . S
C2384 C2403 1.429 . S
C2384 H2408 0.950 . S
C2385 C2402 1.574 . S
C2385 C2404 1.368 . S
C2385 H2409 0.949 . S
H2386 C2390 0.949 . S
C2387 C2388 1.349 . S
C2387 C2389 1.327 . S
C2387 H2410 0.950 . S
C2388 C2387 1.349 . S
C2388 C2400 1.349 . S
C2389 C2387 1.327 . S
C2389 C2405 1.429 . S
C2389 H2411 0.950 . S
C2390 H2386 0.949 . S
C2390 C2398 1.574 . S
C2390 C2406 1.368 . S
H2391 C2399 0.950 . S
H2392 C2397 0.950 . S
H2393 C2398 0.949 . S
H2394 C2400 0.950 . S
H2395 C2401 0.950 . S
H2396 C2402 0.949 . S
C2397 H2392 0.950 . S
C2397 C2399 1.327 . S
C2397 C2403 1.429 . S
C2398 C2390 1.574 . S
C2398 H2393 0.949 . S
C2398 C2404 1.368 . S
C2399 C2383 1.349 . S
C2399 H2391 0.950 . S
C2399 C2397 1.327 . S
C2400 C2388 1.349 . S
C2400 H2394 0.950 . S
C2400 C2401 1.327 . S
C2401 H2395 0.950 . S
C2401 C2400 1.327 . S
C2401 C2405 1.429 . S
C2402 C2385 1.574 . S
C2402 H2396 0.949 . S
C2402 C2406 1.368 . S
C2403 C2384 1.429 . S
C2403 C2397 1.429 . S
C2403 C2404 1.523 . S
C2404 C2385 1.368 . S
C2404 C2398 1.368 . S
C2404 C2403 1.523 . S
C2405 C2389 1.429 . S
C2405 C2401 1.429 . S
C2405 C2406 1.523 . S
C2406 C2390 1.368 . S
C2406 C2402 1.368 . S
C2406 C2405 1.523 . S
H2407 C2382 0.950 . S
H2408 C2384 0.950 . S
H2409 C2385 0.949 . S
H2410 C2387 0.950 . S
H2411 C2389 0.950 . S
C2412 C2413 1.349 . S
C2412 C2414 1.327 . S
C2412 H2437 0.950 . S
C2413 C2412 1.349 . S
C2413 C2429 1.349 . S
C2414 C2412 1.327 . S
C2414 C2433 1.429 . S
C2414 H2438 0.950 . S
C2415 C2432 1.574 . S
C2415 C2434 1.368 . S
C2415 H2439 0.949 . S
H2416 C2420 0.949 . S
C2417 C2418 1.349 . S
C2417 C2419 1.327 . S
C2417 H2440 0.950 . S
C2418 C2417 1.349 . S
C2418 C2430 1.349 . S
C2419 C2417 1.327 . S
C2419 C2435 1.429 . S
C2419 H2441 0.950 . S
C2420 H2416 0.949 . S
C2420 C2428 1.574 . S
C2420 C2436 1.368 . S
H2421 C2429 0.950 . S
H2422 C2427 0.950 . S
H2423 C2428 0.949 . S
H2424 C2430 0.950 . S
H2425 C2431 0.950 . S
H2426 C2432 0.949 . S
C2427 H2422 0.950 . S
C2427 C2429 1.327 . S
C2427 C2433 1.429 . S
C2428 C2420 1.574 . S
C2428 H2423 0.949 . S
C2428 C2434 1.368 . S
C2429 C2413 1.349 . S
C2429 H2421 0.950 . S
C2429 C2427 1.327 . S
C2430 C2418 1.349 . S
C2430 H2424 0.950 . S
C2430 C2431 1.327 . S
C2431 H2425 0.950 . S
C2431 C2430 1.327 . S
C2431 C2435 1.429 . S
C2432 C2415 1.574 . S
C2432 H2426 0.949 . S
C2432 C2436 1.368 . S
C2433 C2414 1.429 . S
C2433 C2427 1.429 . S
C2433 C2434 1.523 . S
C2434 C2415 1.368 . S
C2434 C2428 1.368 . S
C2434 C2433 1.523 . S
C2435 C2419 1.429 . S
C2435 C2431 1.429 . S
C2435 C2436 1.523 . S
C2436 C2420 1.368 . S
C2436 C2432 1.368 . S
C2436 C2435 1.523 . S
H2437 C2412 0.950 . S
H2438 C2414 0.950 . S
H2439 C2415 0.949 . S
H2440 C2417 0.950 . S
H2441 C2419 0.950 . S
C2442 C2443 1.349 . S
C2442 C2444 1.327 . S
C2442 H2467 0.950 . S
C2443 C2442 1.349 . S
C2443 C2459 1.349 . S
C2444 C2442 1.327 . S
C2444 C2463 1.429 . S
C2444 H2468 0.950 . S
C2445 C2462 1.574 . S
C2445 C2464 1.368 . S
C2445 H2469 0.949 . S
H2446 C2450 0.949 . S
C2447 C2448 1.349 . S
C2447 C2449 1.327 . S
C2447 H2470 0.950 . S
C2448 C2447 1.349 . S
C2448 C2460 1.349 . S
C2449 C2447 1.327 . S
C2449 C2465 1.429 . S
C2449 H2471 0.950 . S
C2450 H2446 0.949 . S
C2450 C2458 1.574 . S
C2450 C2466 1.368 . S
H2451 C2459 0.950 . S
H2452 C2457 0.950 . S
H2453 C2458 0.949 . S
H2454 C2460 0.950 . S
H2455 C2461 0.950 . S
H2456 C2462 0.949 . S
C2457 H2452 0.950 . S
C2457 C2459 1.327 . S
C2457 C2463 1.429 . S
C2458 C2450 1.574 . S
C2458 H2453 0.949 . S
C2458 C2464 1.368 . S
C2459 C2443 1.349 . S
C2459 H2451 0.950 . S
C2459 C2457 1.327 . S
C2460 C2448 1.349 . S
C2460 H2454 0.950 . S
C2460 C2461 1.327 . S
C2461 H2455 0.950 . S
C2461 C2460 1.327 . S
C2461 C2465 1.429 . S
C2462 C2445 1.574 . S
C2462 H2456 0.949 . S
C2462 C2466 1.368 . S
C2463 C2444 1.429 . S
C2463 C2457 1.429 . S
C2463 C2464 1.523 . S
C2464 C2445 1.368 . S
C2464 C2458 1.368 . S
C2464 C2463 1.523 . S
C2465 C2449 1.429 . S
C2465 C2461 1.429 . S
C2465 C2466 1.523 . S
C2466 C2450 1.368 . S
C2466 C2462 1.368 . S
C2466 C2465 1.523 . S
H2467 C2442 0.950 . S
H2468 C2444 0.950 . S
H2469 C2445 0.949 . S
H2470 C2447 0.950 . S
H2471 C2449 0.950 . S
C2472 C2473 1.349 . S
C2472 C2474 1.327 . S
C2472 H2497 0.950 . S
C2473 C2472 1.349 . S
C2473 C2489 1.349 . S
C2474 C2472 1.327 . S
C2474 C2493 1.429 . S
C2474 H2498 0.950 . S
C2475 C2492 1.574 . S
C2475 C2494 1.368 . S
C2475 H2499 0.949 . S
H2476 C2480 0.949 . S
C2477 C2478 1.349 . S
C2477 C2479 1.327 . S
C2477 H2500 0.950 . S
C2478 C2477 1.349 . S
C2478 C2490 1.349 . S
C2479 C2477 1.327 . S
C2479 C2495 1.429 . S
C2479 H2501 0.950 . S
C2480 H2476 0.949 . S
C2480 C2488 1.574 . S
C2480 C2496 1.368 . S
H2481 C2489 0.950 . S
H2482 C2487 0.950 . S
H2483 C2488 0.949 . S
H2484 C2490 0.950 . S
H2485 C2491 0.950 . S
H2486 C2492 0.949 . S
C2487 H2482 0.950 . S
C2487 C2489 1.327 . S
C2487 C2493 1.429 . S
C2488 C2480 1.574 . S
C2488 H2483 0.949 . S
C2488 C2494 1.368 . S
C2489 C2473 1.349 . S
C2489 H2481 0.950 . S
C2489 C2487 1.327 . S
C2490 C2478 1.349 . S
C2490 H2484 0.950 . S
C2490 C2491 1.327 . S
C2491 H2485 0.950 . S
C2491 C2490 1.327 . S
C2491 C2495 1.429 . S
C2492 C2475 1.574 . S
C2492 H2486 0.949 . S
C2492 C2496 1.368 . S
C2493 C2474 1.429 . S
C2493 C2487 1.429 . S
C2493 C2494 1.523 . S
C2494 C2475 1.368 . S
C2494 C2488 1.368 . S
C2494 C2493 1.523 . S
C2495 C2479 1.429 . S
C2495 C2491 1.429 . S
C2495 C2496 1.523 . S
C2496 C2480 1.368 . S
C2496 C2492 1.368 . S
C2496 C2495 1.523 . S
H2497 C2472 0.950 . S
H2498 C2474 0.950 . S
H2499 C2475 0.949 . S
H2500 C2477 0.950 . S
H2501 C2479 0.950 . S
C2502 C2503 1.349 . S
C2502 C2504 1.327 . S
C2502 H2527 0.950 . S
C2503 C2502 1.349 . S
C2503 C2519 1.349 . S
C2504 C2502 1.327 . S
C2504 C2523 1.429 . S
C2504 H2528 0.950 . S
C2505 C2522 1.574 . S
C2505 C2524 1.368 . S
C2505 H2529 0.949 . S
H2506 C2510 0.949 . S
C2507 C2508 1.349 . S
C2507 C2509 1.327 . S
C2507 H2530 0.950 . S
C2508 C2507 1.349 . S
C2508 C2520 1.349 . S
C2509 C2507 1.327 . S
C2509 C2525 1.429 . S
C2509 H2531 0.950 . S
C2510 H2506 0.949 . S
C2510 C2518 1.574 . S
C2510 C2526 1.368 . S
H2511 C2519 0.950 . S
H2512 C2517 0.950 . S
H2513 C2518 0.949 . S
H2514 C2520 0.950 . S
H2515 C2521 0.950 . S
H2516 C2522 0.949 . S
C2517 H2512 0.950 . S
C2517 C2519 1.327 . S
C2517 C2523 1.429 . S
C2518 C2510 1.574 . S
C2518 H2513 0.949 . S
C2518 C2524 1.368 . S
C2519 C2503 1.349 . S
C2519 H2511 0.950 . S
C2519 C2517 1.327 . S
C2520 C2508 1.349 . S
C2520 H2514 0.950 . S
C2520 C2521 1.327 . S
C2521 H2515 0.950 . S
C2521 C2520 1.327 . S
C2521 C2525 1.429 . S
C2522 C2505 1.574 . S
C2522 H2516 0.949 . S
C2522 C2526 1.368 . S
C2523 C2504 1.429 . S
C2523 C2517 1.429 . S
C2523 C2524 1.523 . S
C2524 C2505 1.368 . S
C2524 C2518 1.368 . S
C2524 C2523 1.523 . S
C2525 C2509 1.429 . S
C2525 C2521 1.429 . S
C2525 C2526 1.523 . S
C2526 C2510 1.368 . S
C2526 C2522 1.368 . S
C2526 C2525 1.523 . S
H2527 C2502 0.950 . S
H2528 C2504 0.950 . S
H2529 C2505 0.949 . S
H2530 C2507 0.950 . S
H2531 C2509 0.950 . S
C2532 C2533 1.349 . S
C2532 C2534 1.327 . S
C2532 H2557 0.950 . S
C2533 C2532 1.349 . S
C2533 C2549 1.349 . S
C2534 C2532 1.327 . S
C2534 C2553 1.429 . S
C2534 H2558 0.950 . S
C2535 C2552 1.574 . S
C2535 C2554 1.368 . S
C2535 H2559 0.949 . S
H2536 C2540 0.949 . S
C2537 C2538 1.349 . S
C2537 C2539 1.327 . S
C2537 H2560 0.950 . S
C2538 C2537 1.349 . S
C2538 C2550 1.349 . S
C2539 C2537 1.327 . S
C2539 C2555 1.429 . S
C2539 H2561 0.950 . S
C2540 H2536 0.949 . S
C2540 C2548 1.574 . S
C2540 C2556 1.368 . S
H2541 C2549 0.950 . S
H2542 C2547 0.950 . S
H2543 C2548 0.949 . S
H2544 C2550 0.950 . S
H2545 C2551 0.950 . S
H2546 C2552 0.949 . S
C2547 H2542 0.950 . S
C2547 C2549 1.327 . S
C2547 C2553 1.429 . S
C2548 C2540 1.574 . S
C2548 H2543 0.949 . S
C2548 C2554 1.368 . S
C2549 C2533 1.349 . S
C2549 H2541 0.950 . S
C2549 C2547 1.327 . S
C2550 C2538 1.349 . S
C2550 H2544 0.950 . S
C2550 C2551 1.327 . S
C2551 H2545 0.950 . S
C2551 C2550 1.327 . S
C2551 C2555 1.429 . S
C2552 C2535 1.574 . S
C2552 H2546 0.949 . S
C2552 C2556 1.368 . S
C2553 C2534 1.429 . S
C2553 C2547 1.429 . S
C2553 C2554 1.523 . S
C2554 C2535 1.368 . S
C2554 C2548 1.368 . S
C2554 C2553 1.523 . S
C2555 C2539 1.429 . S
C2555 C2551 1.429 . S
C2555 C2556 1.523 . S
C2556 C2540 1.368 . S
C2556 C2552 1.368 . S
C2556 C2555 1.523 . S
H2557 C2532 0.950 . S
H2558 C2534 0.950 . S
H2559 C2535 0.949 . S
H2560 C2537 0.950 . S
H2561 C2539 0.950 . S
C2562 C2563 1.349 . S
C2562 C2564 1.327 . S
C2562 H2587 0.950 . S
C2563 C2562 1.349 . S
C2563 C2579 1.349 . S
C2564 C2562 1.327 . S
C2564 C2583 1.429 . S
C2564 H2588 0.950 . S
C2565 C2582 1.574 . S
C2565 C2584 1.368 . S
C2565 H2589 0.949 . S
H2566 C2570 0.949 . S
C2567 C2568 1.349 . S
C2567 C2569 1.327 . S
C2567 H2590 0.950 . S
C2568 C2567 1.349 . S
C2568 C2580 1.349 . S
C2569 C2567 1.327 . S
C2569 C2585 1.429 . S
C2569 H2591 0.950 . S
C2570 H2566 0.949 . S
C2570 C2578 1.574 . S
C2570 C2586 1.368 . S
H2571 C2579 0.950 . S
H2572 C2577 0.950 . S
H2573 C2578 0.949 . S
H2574 C2580 0.950 . S
H2575 C2581 0.950 . S
H2576 C2582 0.949 . S
C2577 H2572 0.950 . S
C2577 C2579 1.327 . S
C2577 C2583 1.429 . S
C2578 C2570 1.574 . S
C2578 H2573 0.949 . S
C2578 C2584 1.368 . S
C2579 C2563 1.349 . S
C2579 H2571 0.950 . S
C2579 C2577 1.327 . S
C2580 C2568 1.349 . S
C2580 H2574 0.950 . S
C2580 C2581 1.327 . S
C2581 H2575 0.950 . S
C2581 C2580 1.327 . S
C2581 C2585 1.429 . S
C2582 C2565 1.574 . S
C2582 H2576 0.949 . S
C2582 C2586 1.368 . S
C2583 C2564 1.429 . S
C2583 C2577 1.429 . S
C2583 C2584 1.523 . S
C2584 C2565 1.368 . S
C2584 C2578 1.368 . S
C2584 C2583 1.523 . S
C2585 C2569 1.429 . S
C2585 C2581 1.429 . S
C2585 C2586 1.523 . S
C2586 C2570 1.368 . S
C2586 C2582 1.368 . S
C2586 C2585 1.523 . S
H2587 C2562 0.950 . S
H2588 C2564 0.950 . S
H2589 C2565 0.949 . S
H2590 C2567 0.950 . S
H2591 C2569 0.950 . S
C2592 C2593 1.349 . S
C2592 C2594 1.327 . S
C2592 H2617 0.950 . S
C2593 C2592 1.349 . S
C2593 C2609 1.349 . S
C2594 C2592 1.327 . S
C2594 C2613 1.429 . S
C2594 H2618 0.950 . S
C2595 C2612 1.574 . S
C2595 C2614 1.368 . S
C2595 H2619 0.949 . S
H2596 C2600 0.949 . S
C2597 C2598 1.349 . S
C2597 C2599 1.327 . S
C2597 H2620 0.950 . S
C2598 C2597 1.349 . S
C2598 C2610 1.349 . S
C2599 C2597 1.327 . S
C2599 C2615 1.429 . S
C2599 H2621 0.950 . S
C2600 H2596 0.949 . S
C2600 C2608 1.574 . S
C2600 C2616 1.368 . S
H2601 C2609 0.950 . S
H2602 C2607 0.950 . S
H2603 C2608 0.949 . S
H2604 C2610 0.950 . S
H2605 C2611 0.950 . S
H2606 C2612 0.949 . S
C2607 H2602 0.950 . S
C2607 C2609 1.327 . S
C2607 C2613 1.429 . S
C2608 C2600 1.574 . S
C2608 H2603 0.949 . S
C2608 C2614 1.368 . S
C2609 C2593 1.349 . S
C2609 H2601 0.950 . S
C2609 C2607 1.327 . S
C2610 C2598 1.349 . S
C2610 H2604 0.950 . S
C2610 C2611 1.327 . S
C2611 H2605 0.950 . S
C2611 C2610 1.327 . S
C2611 C2615 1.429 . S
C2612 C2595 1.574 . S
C2612 H2606 0.949 . S
C2612 C2616 1.368 . S
C2613 C2594 1.429 . S
C2613 C2607 1.429 . S
C2613 C2614 1.523 . S
C2614 C2595 1.368 . S
C2614 C2608 1.368 . S
C2614 C2613 1.523 . S
C2615 C2599 1.429 . S
C2615 C2611 1.429 . S
C2615 C2616 1.523 . S
C2616 C2600 1.368 . S
C2616 C2612 1.368 . S
C2616 C2615 1.523 . S
H2617 C2592 0.950 . S
H2618 C2594 0.950 . S
H2619 C2595 0.949 . S
H2620 C2597 0.950 . S
H2621 C2599 0.950 . S
C2622 C2623 1.349 . S
C2622 C2624 1.327 . S
C2622 H2647 0.950 . S
C2623 C2622 1.349 . S
C2623 C2639 1.349 . S
C2624 C2622 1.327 . S
C2624 C2643 1.429 . S
C2624 H2648 0.950 . S
C2625 C2642 1.574 . S
C2625 C2644 1.368 . S
C2625 H2649 0.949 . S
H2626 C2630 0.949 . S
C2627 C2628 1.349 . S
C2627 C2629 1.327 . S
C2627 H2650 0.950 . S
C2628 C2627 1.349 . S
C2628 C2640 1.349 . S
C2629 C2627 1.327 . S
C2629 C2645 1.429 . S
C2629 H2651 0.950 . S
C2630 H2626 0.949 . S
C2630 C2638 1.574 . S
C2630 C2646 1.368 . S
H2631 C2639 0.950 . S
H2632 C2637 0.950 . S
H2633 C2638 0.949 . S
H2634 C2640 0.950 . S
H2635 C2641 0.950 . S
H2636 C2642 0.949 . S
C2637 H2632 0.950 . S
C2637 C2639 1.327 . S
C2637 C2643 1.429 . S
C2638 C2630 1.574 . S
C2638 H2633 0.949 . S
C2638 C2644 1.368 . S
C2639 C2623 1.349 . S
C2639 H2631 0.950 . S
C2639 C2637 1.327 . S
C2640 C2628 1.349 . S
C2640 H2634 0.950 . S
C2640 C2641 1.327 . S
C2641 H2635 0.950 . S
C2641 C2640 1.327 . S
C2641 C2645 1.429 . S
C2642 C2625 1.574 . S
C2642 H2636 0.949 . S
C2642 C2646 1.368 . S
C2643 C2624 1.429 . S
C2643 C2637 1.429 . S
C2643 C2644 1.523 . S
C2644 C2625 1.368 . S
C2644 C2638 1.368 . S
C2644 C2643 1.523 . S
C2645 C2629 1.429 . S
C2645 C2641 1.429 . S
C2645 C2646 1.523 . S
C2646 C2630 1.368 . S
C2646 C2642 1.368 . S
C2646 C2645 1.523 . S
H2647 C2622 0.950 . S
H2648 C2624 0.950 . S
H2649 C2625 0.949 . S
H2650 C2627 0.950 . S
H2651 C2629 0.950 . S
C2652 C2653 1.349 . S
C2652 C2654 1.327 . S
C2652 H2677 0.950 . S
C2653 C2652 1.349 . S
C2653 C2669 1.349 . S
C2654 C2652 1.327 . S
C2654 C2673 1.429 . S
C2654 H2678 0.950 . S
C2655 C2672 1.574 . S
C2655 C2674 1.368 . S
C2655 H2679 0.949 . S
H2656 C2660 0.949 . S
C2657 C2658 1.349 . S
C2657 C2659 1.327 . S
C2657 H2680 0.950 . S
C2658 C2657 1.349 . S
C2658 C2670 1.349 . S
C2659 C2657 1.327 . S
C2659 C2675 1.429 . S
C2659 H2681 0.950 . S
C2660 H2656 0.949 . S
C2660 C2668 1.574 . S
C2660 C2676 1.368 . S
H2661 C2669 0.950 . S
H2662 C2667 0.950 . S
H2663 C2668 0.949 . S
H2664 C2670 0.950 . S
H2665 C2671 0.950 . S
H2666 C2672 0.949 . S
C2667 H2662 0.950 . S
C2667 C2669 1.327 . S
C2667 C2673 1.429 . S
C2668 C2660 1.574 . S
C2668 H2663 0.949 . S
C2668 C2674 1.368 . S
C2669 C2653 1.349 . S
C2669 H2661 0.950 . S
C2669 C2667 1.327 . S
C2670 C2658 1.349 . S
C2670 H2664 0.950 . S
C2670 C2671 1.327 . S
C2671 H2665 0.950 . S
C2671 C2670 1.327 . S
C2671 C2675 1.429 . S
C2672 C2655 1.574 . S
C2672 H2666 0.949 . S
C2672 C2676 1.368 . S
C2673 C2654 1.429 . S
C2673 C2667 1.429 . S
C2673 C2674 1.523 . S
C2674 C2655 1.368 . S
C2674 C2668 1.368 . S
C2674 C2673 1.523 . S
C2675 C2659 1.429 . S
C2675 C2671 1.429 . S
C2675 C2676 1.523 . S
C2676 C2660 1.368 . S
C2676 C2672 1.368 . S
C2676 C2675 1.523 . S
H2677 C2652 0.950 . S
H2678 C2654 0.950 . S
H2679 C2655 0.949 . S
H2680 C2657 0.950 . S
H2681 C2659 0.950 . S
C2682 C2683 1.349 . S
C2682 C2684 1.327 . S
C2682 H2707 0.950 . S
C2683 C2682 1.349 . S
C2683 C2699 1.349 . S
C2684 C2682 1.327 . S
C2684 C2703 1.429 . S
C2684 H2708 0.950 . S
C2685 C2702 1.574 . S
C2685 C2704 1.368 . S
C2685 H2709 0.949 . S
H2686 C2690 0.949 . S
C2687 C2688 1.349 . S
C2687 C2689 1.327 . S
C2687 H2710 0.950 . S
C2688 C2687 1.349 . S
C2688 C2700 1.349 . S
C2689 C2687 1.327 . S
C2689 C2705 1.429 . S
C2689 H2711 0.950 . S
C2690 H2686 0.949 . S
C2690 C2698 1.574 . S
C2690 C2706 1.368 . S
H2691 C2699 0.950 . S
H2692 C2697 0.950 . S
H2693 C2698 0.949 . S
H2694 C2700 0.950 . S
H2695 C2701 0.950 . S
H2696 C2702 0.949 . S
C2697 H2692 0.950 . S
C2697 C2699 1.327 . S
C2697 C2703 1.429 . S
C2698 C2690 1.574 . S
C2698 H2693 0.949 . S
C2698 C2704 1.368 . S
C2699 C2683 1.349 . S
C2699 H2691 0.950 . S
C2699 C2697 1.327 . S
C2700 C2688 1.349 . S
C2700 H2694 0.950 . S
C2700 C2701 1.327 . S
C2701 H2695 0.950 . S
C2701 C2700 1.327 . S
C2701 C2705 1.429 . S
C2702 C2685 1.574 . S
C2702 H2696 0.949 . S
C2702 C2706 1.368 . S
C2703 C2684 1.429 . S
C2703 C2697 1.429 . S
C2703 C2704 1.523 . S
C2704 C2685 1.368 . S
C2704 C2698 1.368 . S
C2704 C2703 1.523 . S
C2705 C2689 1.429 . S
C2705 C2701 1.429 . S
C2705 C2706 1.523 . S
C2706 C2690 1.368 . S
C2706 C2702 1.368 . S
C2706 C2705 1.523 . S
H2707 C2682 0.950 . S
H2708 C2684 0.950 . S
H2709 C2685 0.949 . S
H2710 C2687 0.950 . S
H2711 C2689 0.950 . S
C2712 C2713 1.349 . S
C2712 C2714 1.327 . S
C2712 H2737 0.950 . S
C2713 C2712 1.349 . S
C2713 C2729 1.349 . S
C2714 C2712 1.327 . S
C2714 C2733 1.429 . S
C2714 H2738 0.950 . S
C2715 C2732 1.574 . S
C2715 C2734 1.368 . S
C2715 H2739 0.949 . S
H2716 C2720 0.949 . S
C2717 C2718 1.349 . S
C2717 C2719 1.327 . S
C2717 H2740 0.950 . S
C2718 C2717 1.349 . S
C2718 C2730 1.349 . S
C2719 C2717 1.327 . S
C2719 C2735 1.429 . S
C2719 H2741 0.950 . S
C2720 H2716 0.949 . S
C2720 C2728 1.574 . S
C2720 C2736 1.368 . S
H2721 C2729 0.950 . S
H2722 C2727 0.950 . S
H2723 C2728 0.949 . S
H2724 C2730 0.950 . S
H2725 C2731 0.950 . S
H2726 C2732 0.949 . S
C2727 H2722 0.950 . S
C2727 C2729 1.327 . S
C2727 C2733 1.429 . S
C2728 C2720 1.574 . S
C2728 H2723 0.949 . S
C2728 C2734 1.368 . S
C2729 C2713 1.349 . S
C2729 H2721 0.950 . S
C2729 C2727 1.327 . S
C2730 C2718 1.349 . S
C2730 H2724 0.950 . S
C2730 C2731 1.327 . S
C2731 H2725 0.950 . S
C2731 C2730 1.327 . S
C2731 C2735 1.429 . S
C2732 C2715 1.574 . S
C2732 H2726 0.949 . S
C2732 C2736 1.368 . S
C2733 C2714 1.429 . S
C2733 C2727 1.429 . S
C2733 C2734 1.523 . S
C2734 C2715 1.368 . S
C2734 C2728 1.368 . S
C2734 C2733 1.523 . S
C2735 C2719 1.429 . S
C2735 C2731 1.429 . S
C2735 C2736 1.523 . S
C2736 C2720 1.368 . S
C2736 C2732 1.368 . S
C2736 C2735 1.523 . S
H2737 C2712 0.950 . S
H2738 C2714 0.950 . S
H2739 C2715 0.949 . S
H2740 C2717 0.950 . S
H2741 C2719 0.950 . S
C2742 C2743 1.349 . S
C2742 C2744 1.327 . S
C2742 H2767 0.950 . S
C2743 C2742 1.349 . S
C2743 C2759 1.349 . S
C2744 C2742 1.327 . S
C2744 C2763 1.429 . S
C2744 H2768 0.950 . S
C2745 C2762 1.574 . S
C2745 C2764 1.368 . S
C2745 H2769 0.949 . S
H2746 C2750 0.949 . S
C2747 C2748 1.349 . S
C2747 C2749 1.327 . S
C2747 H2770 0.950 . S
C2748 C2747 1.349 . S
C2748 C2760 1.349 . S
C2749 C2747 1.327 . S
C2749 C2765 1.429 . S
C2749 H2771 0.950 . S
C2750 H2746 0.949 . S
C2750 C2758 1.574 . S
C2750 C2766 1.368 . S
H2751 C2759 0.950 . S
H2752 C2757 0.950 . S
H2753 C2758 0.949 . S
H2754 C2760 0.950 . S
H2755 C2761 0.950 . S
H2756 C2762 0.949 . S
C2757 H2752 0.950 . S
C2757 C2759 1.327 . S
C2757 C2763 1.429 . S
C2758 C2750 1.574 . S
C2758 H2753 0.949 . S
C2758 C2764 1.368 . S
C2759 C2743 1.349 . S
C2759 H2751 0.950 . S
C2759 C2757 1.327 . S
C2760 C2748 1.349 . S
C2760 H2754 0.950 . S
C2760 C2761 1.327 . S
C2761 H2755 0.950 . S
C2761 C2760 1.327 . S
C2761 C2765 1.429 . S
C2762 C2745 1.574 . S
C2762 H2756 0.949 . S
C2762 C2766 1.368 . S
C2763 C2744 1.429 . S
C2763 C2757 1.429 . S
C2763 C2764 1.523 . S
C2764 C2745 1.368 . S
C2764 C2758 1.368 . S
C2764 C2763 1.523 . S
C2765 C2749 1.429 . S
C2765 C2761 1.429 . S
C2765 C2766 1.523 . S
C2766 C2750 1.368 . S
C2766 C2762 1.368 . S
C2766 C2765 1.523 . S
H2767 C2742 0.950 . S
H2768 C2744 0.950 . S
H2769 C2745 0.949 . S
H2770 C2747 0.950 . S
H2771 C2749 0.950 . S
C2772 C2773 1.349 . S
C2772 C2774 1.327 . S
C2772 H2797 0.950 . S
C2773 C2772 1.349 . S
C2773 C2789 1.349 . S
C2774 C2772 1.327 . S
C2774 C2793 1.429 . S
C2774 H2798 0.950 . S
C2775 C2792 1.574 . S
C2775 C2794 1.368 . S
C2775 H2799 0.949 . S
H2776 C2780 0.949 . S
C2777 C2778 1.349 . S
C2777 C2779 1.327 . S
C2777 H2800 0.950 1_556 S
C2778 C2777 1.349 . S
C2778 C2790 1.349 . S
C2779 C2777 1.327 . S
C2779 C2795 1.429 . S
C2779 H2801 0.950 . S
C2780 H2776 0.949 . S
C2780 C2788 1.574 . S
C2780 C2796 1.368 . S
H2781 C2789 0.950 . S
H2782 C2787 0.950 . S
H2783 C2788 0.949 . S
H2784 C2790 0.950 . S
H2785 C2791 0.950 . S
H2786 C2792 0.949 . S
C2787 H2782 0.950 . S
C2787 C2789 1.327 . S
C2787 C2793 1.429 . S
C2788 C2780 1.574 . S
C2788 H2783 0.949 . S
C2788 C2794 1.368 . S
C2789 C2773 1.349 . S
C2789 H2781 0.950 . S
C2789 C2787 1.327 . S
C2790 C2778 1.349 . S
C2790 H2784 0.950 . S
C2790 C2791 1.327 . S
C2791 H2785 0.950 . S
C2791 C2790 1.327 . S
C2791 C2795 1.429 . S
C2792 C2775 1.574 . S
C2792 H2786 0.949 . S
C2792 C2796 1.368 . S
C2793 C2774 1.429 . S
C2793 C2787 1.429 . S
C2793 C2794 1.523 . S
C2794 C2775 1.368 . S
C2794 C2788 1.368 . S
C2794 C2793 1.523 . S
C2795 C2779 1.429 . S
C2795 C2791 1.429 . S
C2795 C2796 1.523 . S
C2796 C2780 1.368 . S
C2796 C2792 1.368 . S
C2796 C2795 1.523 . S
H2797 C2772 0.950 . S
H2798 C2774 0.950 . S
H2799 C2775 0.949 . S
H2800 C2777 0.950 1_554 S
H2801 C2779 0.950 . S
C2802 C2803 1.349 . S
C2802 C2804 1.327 . S
C2802 H2827 0.950 . S
C2803 C2802 1.349 . S
C2803 C2819 1.349 . S
C2804 C2802 1.327 . S
C2804 C2823 1.429 . S
C2804 H2828 0.950 . S
C2805 C2822 1.574 . S
C2805 C2824 1.368 . S
C2805 H2829 0.949 . S
H2806 C2810 0.949 . S
C2807 C2808 1.349 . S
C2807 C2809 1.327 . S
C2807 H2830 0.950 . S
C2808 C2807 1.349 . S
C2808 C2820 1.349 . S
C2809 C2807 1.327 . S
C2809 C2825 1.429 . S
C2809 H2831 0.950 . S
C2810 H2806 0.949 . S
C2810 C2818 1.574 . S
C2810 C2826 1.368 . S
H2811 C2819 0.950 1_455 S
H2812 C2817 0.950 . S
H2813 C2818 0.949 . S
H2814 C2820 0.950 . S
H2815 C2821 0.950 . S
H2816 C2822 0.949 . S
C2817 H2812 0.950 . S
C2817 C2819 1.327 . S
C2817 C2823 1.429 . S
C2818 C2810 1.574 . S
C2818 H2813 0.949 . S
C2818 C2824 1.368 . S
C2819 C2803 1.349 . S
C2819 H2811 0.950 1_655 S
C2819 C2817 1.327 . S
C2820 C2808 1.349 . S
C2820 H2814 0.950 . S
C2820 C2821 1.327 . S
C2821 H2815 0.950 . S
C2821 C2820 1.327 . S
C2821 C2825 1.429 . S
C2822 C2805 1.574 . S
C2822 H2816 0.949 . S
C2822 C2826 1.368 . S
C2823 C2804 1.429 . S
C2823 C2817 1.429 . S
C2823 C2824 1.523 . S
C2824 C2805 1.368 . S
C2824 C2818 1.368 . S
C2824 C2823 1.523 . S
C2825 C2809 1.429 . S
C2825 C2821 1.429 . S
C2825 C2826 1.523 . S
C2826 C2810 1.368 . S
C2826 C2822 1.368 . S
C2826 C2825 1.523 . S
H2827 C2802 0.950 . S
H2828 C2804 0.950 . S
H2829 C2805 0.949 . S
H2830 C2807 0.950 . S
H2831 C2809 0.950 . S
C2832 C2833 1.349 . S
C2832 C2834 1.327 . S
C2832 H2857 0.950 . S
C2833 C2832 1.349 . S
C2833 C2849 1.349 . S
C2834 C2832 1.327 . S
C2834 C2853 1.429 . S
C2834 H2858 0.950 . S
C2835 C2852 1.574 . S
C2835 C2854 1.368 . S
C2835 H2859 0.949 . S
H2836 C2840 0.949 . S
C2837 C2838 1.349 . S
C2837 C2839 1.327 . S
C2837 H2860 0.950 . S
C2838 C2837 1.349 . S
C2838 C2850 1.349 . S
C2839 C2837 1.327 . S
C2839 C2855 1.429 . S
C2839 H2861 0.950 . S
C2840 H2836 0.949 . S
C2840 C2848 1.574 . S
C2840 C2856 1.368 . S
H2841 C2849 0.950 . S
H2842 C2847 0.950 . S
H2843 C2848 0.949 . S
H2844 C2850 0.950 . S
H2845 C2851 0.950 . S
H2846 C2852 0.949 . S
C2847 H2842 0.950 . S
C2847 C2849 1.327 . S
C2847 C2853 1.429 . S
C2848 C2840 1.574 . S
C2848 H2843 0.949 . S
C2848 C2854 1.368 . S
C2849 C2833 1.349 . S
C2849 H2841 0.950 . S
C2849 C2847 1.327 . S
C2850 C2838 1.349 . S
C2850 H2844 0.950 . S
C2850 C2851 1.327 . S
C2851 H2845 0.950 . S
C2851 C2850 1.327 . S
C2851 C2855 1.429 . S
C2852 C2835 1.574 . S
C2852 H2846 0.949 . S
C2852 C2856 1.368 . S
C2853 C2834 1.429 . S
C2853 C2847 1.429 . S
C2853 C2854 1.523 . S
C2854 C2835 1.368 . S
C2854 C2848 1.368 . S
C2854 C2853 1.523 . S
C2855 C2839 1.429 . S
C2855 C2851 1.429 . S
C2855 C2856 1.523 . S
C2856 C2840 1.368 . S
C2856 C2852 1.368 . S
C2856 C2855 1.523 . S
H2857 C2832 0.950 . S
H2858 C2834 0.950 . S
H2859 C2835 0.949 . S
H2860 C2837 0.950 . S
H2861 C2839 0.950 . S
C2862 C2863 1.349 . S
C2862 C2864 1.327 . S
C2862 H2887 0.950 . S
C2863 C2862 1.349 . S
C2863 C2879 1.349 . S
C2864 C2862 1.327 . S
C2864 C2883 1.429 . S
C2864 H2888 0.950 . S
C2865 C2882 1.574 . S
C2865 C2884 1.368 . S
C2865 H2889 0.949 . S
H2866 C2870 0.949 . S
C2867 C2868 1.349 . S
C2867 C2869 1.327 . S
C2867 H2890 0.950 . S
C2868 C2867 1.349 . S
C2868 C2880 1.349 . S
C2869 C2867 1.327 . S
C2869 C2885 1.429 . S
C2869 H2891 0.950 . S
C2870 H2866 0.949 . S
C2870 C2878 1.574 . S
C2870 C2886 1.368 . S
H2871 C2879 0.950 . S
H2872 C2877 0.950 . S
H2873 C2878 0.949 . S
H2874 C2880 0.950 . S
H2875 C2881 0.950 . S
H2876 C2882 0.949 . S
C2877 H2872 0.950 . S
C2877 C2879 1.327 . S
C2877 C2883 1.429 . S
C2878 C2870 1.574 . S
C2878 H2873 0.949 . S
C2878 C2884 1.368 . S
C2879 C2863 1.349 . S
C2879 H2871 0.950 . S
C2879 C2877 1.327 . S
C2880 C2868 1.349 . S
C2880 H2874 0.950 . S
C2880 C2881 1.327 . S
C2881 H2875 0.950 . S
C2881 C2880 1.327 . S
C2881 C2885 1.429 . S
C2882 C2865 1.574 . S
C2882 H2876 0.949 . S
C2882 C2886 1.368 . S
C2883 C2864 1.429 . S
C2883 C2877 1.429 . S
C2883 C2884 1.523 . S
C2884 C2865 1.368 . S
C2884 C2878 1.368 . S
C2884 C2883 1.523 . S
C2885 C2869 1.429 . S
C2885 C2881 1.429 . S
C2885 C2886 1.523 . S
C2886 C2870 1.368 . S
C2886 C2882 1.368 . S
C2886 C2885 1.523 . S
H2887 C2862 0.950 . S
H2888 C2864 0.950 . S
H2889 C2865 0.949 . S
H2890 C2867 0.950 . S
H2891 C2869 0.950 . S
C2892 C2893 1.349 . S
C2892 C2894 1.327 . S
C2892 H2917 0.950 . S
C2893 C2892 1.349 . S
C2893 C2909 1.349 . S
C2894 C2892 1.327 . S
C2894 C2913 1.429 . S
C2894 H2918 0.950 . S
C2895 C2912 1.574 . S
C2895 C2914 1.368 . S
C2895 H2919 0.949 . S
H2896 C2900 0.949 . S
C2897 C2898 1.349 . S
C2897 C2899 1.327 . S
C2897 H2920 0.950 . S
C2898 C2897 1.349 . S
C2898 C2910 1.349 . S
C2899 C2897 1.327 . S
C2899 C2915 1.429 . S
C2899 H2921 0.950 . S
C2900 H2896 0.949 . S
C2900 C2908 1.574 . S
C2900 C2916 1.368 . S
H2901 C2909 0.950 . S
H2902 C2907 0.950 . S
H2903 C2908 0.949 . S
H2904 C2910 0.950 . S
H2905 C2911 0.950 . S
H2906 C2912 0.949 . S
C2907 H2902 0.950 . S
C2907 C2909 1.327 . S
C2907 C2913 1.429 . S
C2908 C2900 1.574 . S
C2908 H2903 0.949 . S
C2908 C2914 1.368 . S
C2909 C2893 1.349 . S
C2909 H2901 0.950 . S
C2909 C2907 1.327 . S
C2910 C2898 1.349 . S
C2910 H2904 0.950 . S
C2910 C2911 1.327 . S
C2911 H2905 0.950 . S
C2911 C2910 1.327 . S
C2911 C2915 1.429 . S
C2912 C2895 1.574 . S
C2912 H2906 0.949 . S
C2912 C2916 1.368 . S
C2913 C2894 1.429 . S
C2913 C2907 1.429 . S
C2913 C2914 1.523 . S
C2914 C2895 1.368 . S
C2914 C2908 1.368 . S
C2914 C2913 1.523 . S
C2915 C2899 1.429 . S
C2915 C2911 1.429 . S
C2915 C2916 1.523 . S
C2916 C2900 1.368 . S
C2916 C2912 1.368 . S
C2916 C2915 1.523 . S
H2917 C2892 0.950 . S
H2918 C2894 0.950 . S
H2919 C2895 0.949 . S
H2920 C2897 0.950 . S
H2921 C2899 0.950 . S
C2922 C2923 1.349 . S
C2922 C2924 1.327 . S
C2922 H2947 0.950 . S
C2923 C2922 1.349 . S
C2923 C2939 1.349 . S
C2924 C2922 1.327 . S
C2924 C2943 1.429 . S
C2924 H2948 0.950 . S
C2925 C2942 1.574 . S
C2925 C2944 1.368 . S
C2925 H2949 0.949 . S
H2926 C2930 0.949 . S
C2927 C2928 1.349 . S
C2927 C2929 1.327 . S
C2927 H2950 0.950 . S
C2928 C2927 1.349 . S
C2928 C2940 1.349 . S
C2929 C2927 1.327 . S
C2929 C2945 1.429 . S
C2929 H2951 0.950 . S
C2930 H2926 0.949 . S
C2930 C2938 1.574 . S
C2930 C2946 1.368 . S
H2931 C2939 0.950 . S
H2932 C2937 0.950 . S
H2933 C2938 0.949 . S
H2934 C2940 0.950 . S
H2935 C2941 0.950 . S
H2936 C2942 0.949 . S
C2937 H2932 0.950 . S
C2937 C2939 1.327 . S
C2937 C2943 1.429 . S
C2938 C2930 1.574 . S
C2938 H2933 0.949 . S
C2938 C2944 1.368 . S
C2939 C2923 1.349 . S
C2939 H2931 0.950 . S
C2939 C2937 1.327 . S
C2940 C2928 1.349 . S
C2940 H2934 0.950 . S
C2940 C2941 1.327 . S
C2941 H2935 0.950 . S
C2941 C2940 1.327 . S
C2941 C2945 1.429 . S
C2942 C2925 1.574 . S
C2942 H2936 0.949 . S
C2942 C2946 1.368 . S
C2943 C2924 1.429 . S
C2943 C2937 1.429 . S
C2943 C2944 1.523 . S
C2944 C2925 1.368 . S
C2944 C2938 1.368 . S
C2944 C2943 1.523 . S
C2945 C2929 1.429 . S
C2945 C2941 1.429 . S
C2945 C2946 1.523 . S
C2946 C2930 1.368 . S
C2946 C2942 1.368 . S
C2946 C2945 1.523 . S
H2947 C2922 0.950 . S
H2948 C2924 0.950 . S
H2949 C2925 0.949 . S
H2950 C2927 0.950 . S
H2951 C2929 0.950 . S
C2952 C2953 1.349 . S
C2952 C2954 1.327 . S
C2952 H2977 0.950 . S
C2953 C2952 1.349 . S
C2953 C2969 1.349 . S
C2954 C2952 1.327 . S
C2954 C2973 1.429 . S
C2954 H2978 0.950 . S
C2955 C2972 1.574 . S
C2955 C2974 1.368 . S
C2955 H2979 0.949 . S
H2956 C2960 0.949 . S
C2957 C2958 1.349 . S
C2957 C2959 1.327 . S
C2957 H2980 0.950 . S
C2958 C2957 1.349 . S
C2958 C2970 1.349 . S
C2959 C2957 1.327 . S
C2959 C2975 1.429 . S
C2959 H2981 0.950 . S
C2960 H2956 0.949 . S
C2960 C2968 1.574 . S
C2960 C2976 1.368 . S
H2961 C2969 0.950 . S
H2962 C2967 0.950 . S
H2963 C2968 0.949 . S
H2964 C2970 0.950 . S
H2965 C2971 0.950 . S
H2966 C2972 0.949 . S
C2967 H2962 0.950 . S
C2967 C2969 1.327 . S
C2967 C2973 1.429 . S
C2968 C2960 1.574 . S
C2968 H2963 0.949 . S
C2968 C2974 1.368 . S
C2969 C2953 1.349 . S
C2969 H2961 0.950 . S
C2969 C2967 1.327 . S
C2970 C2958 1.349 . S
C2970 H2964 0.950 . S
C2970 C2971 1.327 . S
C2971 H2965 0.950 . S
C2971 C2970 1.327 . S
C2971 C2975 1.429 . S
C2972 C2955 1.574 . S
C2972 H2966 0.949 . S
C2972 C2976 1.368 . S
C2973 C2954 1.429 . S
C2973 C2967 1.429 . S
C2973 C2974 1.523 . S
C2974 C2955 1.368 . S
C2974 C2968 1.368 . S
C2974 C2973 1.523 . S
C2975 C2959 1.429 . S
C2975 C2971 1.429 . S
C2975 C2976 1.523 . S
C2976 C2960 1.368 . S
C2976 C2972 1.368 . S
C2976 C2975 1.523 . S
H2977 C2952 0.950 . S
H2978 C2954 0.950 . S
H2979 C2955 0.949 . S
H2980 C2957 0.950 . S
H2981 C2959 0.950 . S
C2982 C2983 1.349 . S
C2982 C2984 1.327 . S
C2982 H3007 0.950 . S
C2983 C2982 1.349 . S
C2983 C2999 1.349 . S
C2984 C2982 1.327 . S
C2984 C3003 1.429 . S
C2984 H3008 0.950 . S
C2985 C3002 1.574 . S
C2985 C3004 1.368 . S
C2985 H3009 0.949 . S
H2986 C2990 0.949 . S
C2987 C2988 1.349 . S
C2987 C2989 1.327 . S
C2987 H3010 0.950 . S
C2988 C2987 1.349 . S
C2988 C3000 1.349 . S
C2989 C2987 1.327 . S
C2989 C3005 1.429 . S
C2989 H3011 0.950 . S
C2990 H2986 0.949 . S
C2990 C2998 1.574 . S
C2990 C3006 1.368 . S
H2991 C2999 0.950 . S
H2992 C2997 0.950 . S
H2993 C2998 0.949 . S
H2994 C3000 0.950 . S
H2995 C3001 0.950 . S
H2996 C3002 0.949 . S
C2997 H2992 0.950 . S
C2997 C2999 1.327 . S
C2997 C3003 1.429 . S
C2998 C2990 1.574 . S
C2998 H2993 0.949 . S
C2998 C3004 1.368 . S
C2999 C2983 1.349 . S
C2999 H2991 0.950 . S
C2999 C2997 1.327 . S
C3000 C2988 1.349 . S
C3000 H2994 0.950 . S
C3000 C3001 1.327 . S
C3001 H2995 0.950 . S
C3001 C3000 1.327 . S
C3001 C3005 1.429 . S
C3002 C2985 1.574 . S
C3002 H2996 0.949 . S
C3002 C3006 1.368 . S
C3003 C2984 1.429 . S
C3003 C2997 1.429 . S
C3003 C3004 1.523 . S
C3004 C2985 1.368 . S
C3004 C2998 1.368 . S
C3004 C3003 1.523 . S
C3005 C2989 1.429 . S
C3005 C3001 1.429 . S
C3005 C3006 1.523 . S
C3006 C2990 1.368 . S
C3006 C3002 1.368 . S
C3006 C3005 1.523 . S
H3007 C2982 0.950 . S
H3008 C2984 0.950 . S
H3009 C2985 0.949 . S
H3010 C2987 0.950 . S
H3011 C2989 0.950 . S
C3012 C3013 1.349 . S
C3012 C3014 1.327 . S
C3012 H3037 0.950 . S
C3013 C3012 1.349 . S
C3013 C3029 1.349 . S
C3014 C3012 1.327 . S
C3014 C3033 1.429 . S
C3014 H3038 0.950 . S
C3015 C3032 1.574 . S
C3015 C3034 1.368 . S
C3015 H3039 0.949 . S
H3016 C3020 0.949 . S
C3017 C3018 1.349 . S
C3017 C3019 1.327 . S
C3017 H3040 0.950 . S
C3018 C3017 1.349 . S
C3018 C3030 1.349 . S
C3019 C3017 1.327 . S
C3019 C3035 1.429 . S
C3019 H3041 0.950 . S
C3020 H3016 0.949 . S
C3020 C3028 1.574 . S
C3020 C3036 1.368 . S
H3021 C3029 0.950 . S
H3022 C3027 0.950 . S
H3023 C3028 0.949 . S
H3024 C3030 0.950 . S
H3025 C3031 0.950 . S
H3026 C3032 0.949 . S
C3027 H3022 0.950 . S
C3027 C3029 1.327 . S
C3027 C3033 1.429 . S
C3028 C3020 1.574 . S
C3028 H3023 0.949 . S
C3028 C3034 1.368 . S
C3029 C3013 1.349 . S
C3029 H3021 0.950 . S
C3029 C3027 1.327 . S
C3030 C3018 1.349 . S
C3030 H3024 0.950 . S
C3030 C3031 1.327 . S
C3031 H3025 0.950 . S
C3031 C3030 1.327 . S
C3031 C3035 1.429 . S
C3032 C3015 1.574 . S
C3032 H3026 0.949 . S
C3032 C3036 1.368 . S
C3033 C3014 1.429 . S
C3033 C3027 1.429 . S
C3033 C3034 1.523 . S
C3034 C3015 1.368 . S
C3034 C3028 1.368 . S
C3034 C3033 1.523 . S
C3035 C3019 1.429 . S
C3035 C3031 1.429 . S
C3035 C3036 1.523 . S
C3036 C3020 1.368 . S
C3036 C3032 1.368 . S
C3036 C3035 1.523 . S
H3037 C3012 0.950 . S
H3038 C3014 0.950 . S
H3039 C3015 0.949 . S
H3040 C3017 0.950 . S
H3041 C3019 0.950 . S
C3042 C3043 1.349 . S
C3042 C3044 1.327 . S
C3042 H3067 0.950 . S
C3043 C3042 1.349 . S
C3043 C3059 1.349 . S
C3044 C3042 1.327 . S
C3044 C3063 1.429 . S
C3044 H3068 0.950 . S
C3045 C3062 1.574 . S
C3045 C3064 1.368 . S
C3045 H3069 0.949 . S
H3046 C3050 0.949 . S
C3047 C3048 1.349 . S
C3047 C3049 1.327 . S
C3047 H3070 0.950 . S
C3048 C3047 1.349 . S
C3048 C3060 1.349 . S
C3049 C3047 1.327 . S
C3049 C3065 1.429 . S
C3049 H3071 0.950 . S
C3050 H3046 0.949 . S
C3050 C3058 1.574 . S
C3050 C3066 1.368 . S
H3051 C3059 0.950 . S
H3052 C3057 0.950 . S
H3053 C3058 0.949 . S
H3054 C3060 0.950 . S
H3055 C3061 0.950 . S
H3056 C3062 0.949 . S
C3057 H3052 0.950 . S
C3057 C3059 1.327 . S
C3057 C3063 1.429 . S
C3058 C3050 1.574 . S
C3058 H3053 0.949 . S
C3058 C3064 1.368 . S
C3059 C3043 1.349 . S
C3059 H3051 0.950 . S
C3059 C3057 1.327 . S
C3060 C3048 1.349 . S
C3060 H3054 0.950 . S
C3060 C3061 1.327 . S
C3061 H3055 0.950 . S
C3061 C3060 1.327 . S
C3061 C3065 1.429 . S
C3062 C3045 1.574 . S
C3062 H3056 0.949 . S
C3062 C3066 1.368 . S
C3063 C3044 1.429 . S
C3063 C3057 1.429 . S
C3063 C3064 1.523 . S
C3064 C3045 1.368 . S
C3064 C3058 1.368 . S
C3064 C3063 1.523 . S
C3065 C3049 1.429 . S
C3065 C3061 1.429 . S
C3065 C3066 1.523 . S
C3066 C3050 1.368 . S
C3066 C3062 1.368 . S
C3066 C3065 1.523 . S
H3067 C3042 0.950 . S
H3068 C3044 0.950 . S
H3069 C3045 0.949 . S
H3070 C3047 0.950 . S
H3071 C3049 0.950 . S
C3072 C3073 1.349 . S
C3072 C3074 1.327 . S
C3072 H3097 0.950 . S
C3073 C3072 1.349 . S
C3073 C3089 1.349 . S
C3074 C3072 1.327 . S
C3074 C3093 1.429 . S
C3074 H3098 0.950 . S
C3075 C3092 1.574 . S
C3075 C3094 1.368 . S
C3075 H3099 0.949 . S
H3076 C3080 0.949 . S
C3077 C3078 1.349 . S
C3077 C3079 1.327 . S
C3077 H3100 0.950 . S
C3078 C3077 1.349 . S
C3078 C3090 1.349 . S
C3079 C3077 1.327 . S
C3079 C3095 1.429 . S
C3079 H3101 0.950 . S
C3080 H3076 0.949 . S
C3080 C3088 1.574 . S
C3080 C3096 1.368 . S
H3081 C3089 0.950 . S
H3082 C3087 0.950 . S
H3083 C3088 0.949 . S
H3084 C3090 0.950 . S
H3085 C3091 0.950 . S
H3086 C3092 0.949 . S
C3087 H3082 0.950 . S
C3087 C3089 1.327 . S
C3087 C3093 1.429 . S
C3088 C3080 1.574 . S
C3088 H3083 0.949 . S
C3088 C3094 1.368 . S
C3089 C3073 1.349 . S
C3089 H3081 0.950 . S
C3089 C3087 1.327 . S
C3090 C3078 1.349 . S
C3090 H3084 0.950 . S
C3090 C3091 1.327 . S
C3091 H3085 0.950 . S
C3091 C3090 1.327 . S
C3091 C3095 1.429 . S
C3092 C3075 1.574 . S
C3092 H3086 0.949 . S
C3092 C3096 1.368 . S
C3093 C3074 1.429 . S
C3093 C3087 1.429 . S
C3093 C3094 1.523 . S
C3094 C3075 1.368 . S
C3094 C3088 1.368 . S
C3094 C3093 1.523 . S
C3095 C3079 1.429 . S
C3095 C3091 1.429 . S
C3095 C3096 1.523 . S
C3096 C3080 1.368 . S
C3096 C3092 1.368 . S
C3096 C3095 1.523 . S
H3097 C3072 0.950 . S
H3098 C3074 0.950 . S
H3099 C3075 0.949 . S
H3100 C3077 0.950 . S
H3101 C3079 0.950 . S
C3102 C3103 1.349 . S
C3102 C3104 1.327 . S
C3102 H3127 0.950 . S
C3103 C3102 1.349 . S
C3103 C3119 1.349 . S
C3104 C3102 1.327 . S
C3104 C3123 1.429 . S
C3104 H3128 0.950 . S
C3105 C3122 1.574 . S
C3105 C3124 1.368 . S
C3105 H3129 0.949 . S
H3106 C3110 0.949 . S
C3107 C3108 1.349 . S
C3107 C3109 1.327 . S
C3107 H3130 1.007 . S
C3108 C3107 1.349 . S
C3108 C3120 1.349 . S
C3109 C3107 1.327 . S
C3109 C3125 1.429 . S
C3109 H3131 0.950 . S
C3110 H3106 0.949 . S
C3110 C3118 1.574 . S
C3110 C3126 1.368 . S
H3111 C3119 0.950 . S
H3112 C3117 0.950 . S
H3113 C3118 0.949 . S
H3114 C3120 0.950 . S
H3115 C3121 0.950 . S
H3116 C3122 0.949 . S
C3117 H3112 0.950 . S
C3117 C3119 1.327 . S
C3117 C3123 1.429 . S
C3118 C3110 1.574 . S
C3118 H3113 0.949 . S
C3118 C3124 1.368 . S
C3119 C3103 1.349 . S
C3119 H3111 0.950 . S
C3119 C3117 1.327 . S
C3120 C3108 1.349 . S
C3120 H3114 0.950 . S
C3120 C3121 1.327 . S
C3121 H3115 0.950 . S
C3121 C3120 1.327 . S
C3121 C3125 1.429 . S
C3122 C3105 1.574 . S
C3122 H3116 0.949 . S
C3122 C3126 1.368 . S
C3123 C3104 1.429 . S
C3123 C3117 1.429 . S
C3123 C3124 1.523 . S
C3124 C3105 1.368 . S
C3124 C3118 1.368 . S
C3124 C3123 1.523 . S
C3125 C3109 1.429 . S
C3125 C3121 1.429 . S
C3125 C3126 1.523 . S
C3126 C3110 1.368 . S
C3126 C3122 1.368 . S
C3126 C3125 1.523 . S
H3127 C3102 0.950 . S
H3128 C3104 0.950 . S
H3129 C3105 0.949 . S
H3130 C3107 1.007 . S
H3131 C3109 0.950 . S
C3132 C3133 1.349 . S
C3132 C3134 1.327 . S
C3132 H3157 0.950 . S
C3133 C3132 1.349 . S
C3133 C3149 1.349 . S
C3134 C3132 1.327 . S
C3134 C3153 1.429 . S
C3134 H3158 0.950 . S
C3135 C3152 1.574 . S
C3135 C3154 1.368 . S
C3135 H3159 0.949 . S
H3136 C3140 0.949 . S
C3137 C3138 1.349 . S
C3137 C3139 1.327 . S
C3137 H3160 0.950 . S
C3138 C3137 1.349 . S
C3138 C3150 1.349 . S
C3139 C3137 1.327 . S
C3139 C3155 1.429 . S
C3139 H3161 0.950 . S
C3140 H3136 0.949 . S
C3140 C3148 1.574 . S
C3140 C3156 1.368 . S
H3141 C3149 0.950 . S
H3142 C3147 0.950 . S
H3143 C3148 0.949 . S
H3144 C3150 0.950 . S
H3145 C3151 0.950 . S
H3146 C3152 0.949 . S
C3147 H3142 0.950 . S
C3147 C3149 1.327 . S
C3147 C3153 1.429 . S
C3148 C3140 1.574 . S
C3148 H3143 0.949 . S
C3148 C3154 1.368 . S
C3149 C3133 1.349 . S
C3149 H3141 0.950 . S
C3149 C3147 1.327 . S
C3150 C3138 1.349 . S
C3150 H3144 0.950 . S
C3150 C3151 1.327 . S
C3151 H3145 0.950 . S
C3151 C3150 1.327 . S
C3151 C3155 1.429 . S
C3152 C3135 1.574 . S
C3152 H3146 0.949 . S
C3152 C3156 1.368 . S
C3153 C3134 1.429 . S
C3153 C3147 1.429 . S
C3153 C3154 1.523 . S
C3154 C3135 1.368 . S
C3154 C3148 1.368 . S
C3154 C3153 1.523 . S
C3155 C3139 1.429 . S
C3155 C3151 1.429 . S
C3155 C3156 1.523 . S
C3156 C3140 1.368 . S
C3156 C3152 1.368 . S
C3156 C3155 1.523 . S
H3157 C3132 0.950 . S
H3158 C3134 0.950 . S
H3159 C3135 0.949 . S
H3160 C3137 0.950 . S
H3161 C3139 0.950 . S
C3162 C3163 1.349 . S
C3162 C3164 1.327 . S
C3162 H3187 0.950 . S
C3163 C3162 1.349 . S
C3163 C3179 1.349 . S
C3164 C3162 1.327 . S
C3164 C3183 1.429 . S
C3164 H3188 0.950 . S
C3165 C3182 1.574 . S
C3165 C3184 1.368 . S
C3165 H3189 0.949 . S
H3166 C3170 0.949 . S
C3167 C3168 1.349 . S
C3167 C3169 1.327 . S
C3167 H3190 0.950 . S
C3168 C3167 1.349 . S
C3168 C3180 1.349 . S
C3169 C3167 1.327 . S
C3169 C3185 1.429 . S
C3169 H3191 0.950 . S
C3170 H3166 0.949 . S
C3170 C3178 1.574 . S
C3170 C3186 1.368 . S
H3171 C3179 0.950 . S
H3172 C3177 0.950 . S
H3173 C3178 0.949 . S
H3174 C3180 0.950 . S
H3175 C3181 0.950 . S
H3176 C3182 0.949 . S
C3177 H3172 0.950 . S
C3177 C3179 1.327 . S
C3177 C3183 1.429 . S
C3178 C3170 1.574 . S
C3178 H3173 0.949 . S
C3178 C3184 1.368 . S
C3179 C3163 1.349 . S
C3179 H3171 0.950 . S
C3179 C3177 1.327 . S
C3180 C3168 1.349 . S
C3180 H3174 0.950 . S
C3180 C3181 1.327 . S
C3181 H3175 0.950 . S
C3181 C3180 1.327 . S
C3181 C3185 1.429 . S
C3182 C3165 1.574 . S
C3182 H3176 0.949 . S
C3182 C3186 1.368 . S
C3183 C3164 1.429 . S
C3183 C3177 1.429 . S
C3183 C3184 1.523 . S
C3184 C3165 1.368 . S
C3184 C3178 1.368 . S
C3184 C3183 1.523 . S
C3185 C3169 1.429 . S
C3185 C3181 1.429 . S
C3185 C3186 1.523 . S
C3186 C3170 1.368 . S
C3186 C3182 1.368 . S
C3186 C3185 1.523 . S
H3187 C3162 0.950 . S
H3188 C3164 0.950 . S
H3189 C3165 0.949 . S
H3190 C3167 0.950 . S
H3191 C3169 0.950 . S
C3192 C3193 1.349 . S
C3192 C3194 1.327 . S
C3192 H3217 0.950 . S
C3193 C3192 1.349 . S
C3193 C3209 1.349 . S
C3194 C3192 1.327 . S
C3194 C3213 1.429 . S
C3194 H3218 0.950 . S
C3195 C3212 1.574 . S
C3195 C3214 1.368 . S
C3195 H3219 0.949 . S
H3196 C3200 0.949 . S
C3197 C3198 1.349 . S
C3197 C3199 1.327 . S
C3197 H3220 0.950 . S
C3198 C3197 1.349 . S
C3198 C3210 1.349 . S
C3199 C3197 1.327 . S
C3199 C3215 1.429 . S
C3199 H3221 0.950 . S
C3200 H3196 0.949 . S
C3200 C3208 1.574 . S
C3200 C3216 1.368 . S
H3201 C3209 0.950 . S
H3202 C3207 0.950 . S
H3203 C3208 0.949 . S
H3204 C3210 0.950 . S
H3205 C3211 0.950 . S
H3206 C3212 0.949 . S
C3207 H3202 0.950 . S
C3207 C3209 1.327 . S
C3207 C3213 1.429 . S
C3208 C3200 1.574 . S
C3208 H3203 0.949 . S
C3208 C3214 1.368 . S
C3209 C3193 1.349 . S
C3209 H3201 0.950 . S
C3209 C3207 1.327 . S
C3210 C3198 1.349 . S
C3210 H3204 0.950 . S
C3210 C3211 1.327 . S
C3211 H3205 0.950 . S
C3211 C3210 1.327 . S
C3211 C3215 1.429 . S
C3212 C3195 1.574 . S
C3212 H3206 0.949 . S
C3212 C3216 1.368 . S
C3213 C3194 1.429 . S
C3213 C3207 1.429 . S
C3213 C3214 1.523 . S
C3214 C3195 1.368 . S
C3214 C3208 1.368 . S
C3214 C3213 1.523 . S
C3215 C3199 1.429 . S
C3215 C3211 1.429 . S
C3215 C3216 1.523 . S
C3216 C3200 1.368 . S
C3216 C3212 1.368 . S
C3216 C3215 1.523 . S
H3217 C3192 0.950 . S
H3218 C3194 0.950 . S
H3219 C3195 0.949 . S
H3220 C3197 0.950 . S
H3221 C3199 0.950 . S
C3222 C3223 1.349 . S
C3222 C3224 1.327 . S
C3222 H3247 0.950 . S
C3223 C3222 1.349 . S
C3223 C3239 1.349 . S
C3224 C3222 1.327 . S
C3224 C3243 1.429 . S
C3224 H3248 0.950 . S
C3225 C3242 1.574 . S
C3225 C3244 1.368 . S
C3225 H3249 0.949 . S
H3226 C3230 0.949 . S
C3227 C3228 1.349 . S
C3227 C3229 1.327 . S
C3227 H3250 0.950 . S
C3228 C3227 1.349 . S
C3228 C3240 1.349 . S
C3229 C3227 1.327 . S
C3229 C3245 1.429 . S
C3229 H3251 0.950 . S
C3230 H3226 0.949 . S
C3230 C3238 1.574 . S
C3230 C3246 1.368 . S
H3231 C3239 0.950 . S
H3232 C3237 0.950 . S
H3233 C3238 0.949 . S
H3234 C3240 0.950 . S
H3235 C3241 0.950 . S
H3236 C3242 0.949 . S
C3237 H3232 0.950 . S
C3237 C3239 1.327 . S
C3237 C3243 1.429 . S
C3238 C3230 1.574 . S
C3238 H3233 0.949 . S
C3238 C3244 1.368 . S
C3239 C3223 1.349 . S
C3239 H3231 0.950 . S
C3239 C3237 1.327 . S
C3240 C3228 1.349 . S
C3240 H3234 0.950 . S
C3240 C3241 1.327 . S
C3241 H3235 0.950 . S
C3241 C3240 1.327 . S
C3241 C3245 1.429 . S
C3242 C3225 1.574 . S
C3242 H3236 0.949 . S
C3242 C3246 1.368 . S
C3243 C3224 1.429 . S
C3243 C3237 1.429 . S
C3243 C3244 1.523 . S
C3244 C3225 1.368 . S
C3244 C3238 1.368 . S
C3244 C3243 1.523 . S
C3245 C3229 1.429 . S
C3245 C3241 1.429 . S
C3245 C3246 1.523 . S
C3246 C3230 1.368 . S
C3246 C3242 1.368 . S
C3246 C3245 1.523 . S
H3247 C3222 0.950 . S
H3248 C3224 0.950 . S
H3249 C3225 0.949 . S
H3250 C3227 0.950 . S
H3251 C3229 0.950 . S
C3252 C3253 1.349 . S
C3252 C3254 1.327 . S
C3252 H3277 0.950 . S
C3253 C3252 1.349 . S
C3253 C3269 1.349 . S
C3254 C3252 1.327 . S
C3254 C3273 1.429 . S
C3254 H3278 0.950 . S
C3255 C3272 1.574 . S
C3255 C3274 1.368 . S
C3255 H3279 0.949 . S
H3256 C3260 0.949 . S
C3257 C3258 1.349 . S
C3257 C3259 1.327 . S
C3257 H3280 0.950 . S
C3258 C3257 1.349 . S
C3258 C3270 1.349 . S
C3259 C3257 1.327 . S
C3259 C3275 1.429 . S
C3259 H3281 0.950 . S
C3260 H3256 0.949 . S
C3260 C3268 1.574 . S
C3260 C3276 1.368 . S
H3261 C3269 0.950 . S
H3262 C3267 0.950 . S
H3263 C3268 0.949 . S
H3264 C3270 0.950 . S
H3265 C3271 0.950 . S
H3266 C3272 0.949 . S
C3267 H3262 0.950 . S
C3267 C3269 1.327 . S
C3267 C3273 1.429 . S
C3268 C3260 1.574 . S
C3268 H3263 0.949 . S
C3268 C3274 1.368 . S
C3269 C3253 1.349 . S
C3269 H3261 0.950 . S
C3269 C3267 1.327 . S
C3270 C3258 1.349 . S
C3270 H3264 0.950 . S
C3270 C3271 1.327 . S
C3271 H3265 0.950 . S
C3271 C3270 1.327 . S
C3271 C3275 1.429 . S
C3272 C3255 1.574 . S
C3272 H3266 0.949 . S
C3272 C3276 1.368 . S
C3273 C3254 1.429 . S
C3273 C3267 1.429 . S
C3273 C3274 1.523 . S
C3274 C3255 1.368 . S
C3274 C3268 1.368 . S
C3274 C3273 1.523 . S
C3275 C3259 1.429 . S
C3275 C3271 1.429 . S
C3275 C3276 1.523 . S
C3276 C3260 1.368 . S
C3276 C3272 1.368 . S
C3276 C3275 1.523 . S
H3277 C3252 0.950 . S
H3278 C3254 0.950 . S
H3279 C3255 0.949 . S
H3280 C3257 0.950 . S
H3281 C3259 0.950 . S
C3282 C3283 1.349 . S
C3282 C3284 1.327 . S
C3282 H3307 0.950 . S
C3283 C3282 1.349 . S
C3283 C3299 1.349 . S
C3284 C3282 1.327 . S
C3284 C3303 1.429 . S
C3284 H3308 0.950 . S
C3285 C3302 1.574 . S
C3285 C3304 1.368 . S
C3285 H3309 0.949 . S
H3286 C3290 0.949 . S
C3287 C3288 1.349 . S
C3287 C3289 1.327 . S
C3287 H3310 0.950 . S
C3288 C3287 1.349 . S
C3288 C3300 1.349 . S
C3289 C3287 1.327 . S
C3289 C3305 1.429 . S
C3289 H3311 0.950 . S
C3290 H3286 0.949 . S
C3290 C3298 1.574 . S
C3290 C3306 1.368 . S
H3291 C3299 0.950 . S
H3292 C3297 0.950 . S
H3293 C3298 0.949 . S
H3294 C3300 0.950 . S
H3295 C3301 0.950 . S
H3296 C3302 0.949 . S
C3297 H3292 0.950 . S
C3297 C3299 1.327 . S
C3297 C3303 1.429 . S
C3298 C3290 1.574 . S
C3298 H3293 0.949 . S
C3298 C3304 1.368 . S
C3299 C3283 1.349 . S
C3299 H3291 0.950 . S
C3299 C3297 1.327 . S
C3300 C3288 1.349 . S
C3300 H3294 0.950 . S
C3300 C3301 1.327 . S
C3301 H3295 0.950 . S
C3301 C3300 1.327 . S
C3301 C3305 1.429 . S
C3302 C3285 1.574 . S
C3302 H3296 0.949 . S
C3302 C3306 1.368 . S
C3303 C3284 1.429 . S
C3303 C3297 1.429 . S
C3303 C3304 1.523 . S
C3304 C3285 1.368 . S
C3304 C3298 1.368 . S
C3304 C3303 1.523 . S
C3305 C3289 1.429 . S
C3305 C3301 1.429 . S
C3305 C3306 1.523 . S
C3306 C3290 1.368 . S
C3306 C3302 1.368 . S
C3306 C3305 1.523 . S
H3307 C3282 0.950 . S
H3308 C3284 0.950 . S
H3309 C3285 0.949 . S
H3310 C3287 0.950 . S
H3311 C3289 0.950 . S
C3312 C3313 1.349 . S
C3312 C3314 1.327 . S
C3312 H3337 0.950 . S
C3313 C3312 1.349 . S
C3313 C3329 1.349 . S
C3314 C3312 1.327 . S
C3314 C3333 1.429 . S
C3314 H3338 0.950 . S
C3315 C3332 1.574 . S
C3315 C3334 1.368 . S
C3315 H3339 0.949 . S
H3316 C3320 0.949 . S
C3317 C3318 1.349 . S
C3317 C3319 1.327 . S
C3317 H3340 0.950 . S
C3318 C3317 1.349 . S
C3318 C3330 1.349 . S
C3319 C3317 1.327 . S
C3319 C3335 1.429 . S
C3319 H3341 0.950 . S
C3320 H3316 0.949 . S
C3320 C3328 1.574 . S
C3320 C3336 1.368 . S
H3321 C3329 0.950 . S
H3322 C3327 0.950 . S
H3323 C3328 0.949 . S
H3324 C3330 0.950 . S
H3325 C3331 0.950 . S
H3326 C3332 0.949 . S
C3327 H3322 0.950 . S
C3327 C3329 1.327 . S
C3327 C3333 1.429 . S
C3328 C3320 1.574 . S
C3328 H3323 0.949 . S
C3328 C3334 1.368 . S
C3329 C3313 1.349 . S
C3329 H3321 0.950 . S
C3329 C3327 1.327 . S
C3330 C3318 1.349 . S
C3330 H3324 0.950 . S
C3330 C3331 1.327 . S
C3331 H3325 0.950 . S
C3331 C3330 1.327 . S
C3331 C3335 1.429 . S
C3332 C3315 1.574 . S
C3332 H3326 0.949 . S
C3332 C3336 1.368 . S
C3333 C3314 1.429 . S
C3333 C3327 1.429 . S
C3333 C3334 1.523 . S
C3334 C3315 1.368 . S
C3334 C3328 1.368 . S
C3334 C3333 1.523 . S
C3335 C3319 1.429 . S
C3335 C3331 1.429 . S
C3335 C3336 1.523 . S
C3336 C3320 1.368 . S
C3336 C3332 1.368 . S
C3336 C3335 1.523 . S
H3337 C3312 0.950 . S
H3338 C3314 0.950 . S
H3339 C3315 0.949 . S
H3340 C3317 0.950 . S
H3341 C3319 0.950 . S
C3342 C3343 1.349 . S
C3342 C3344 1.327 . S
C3342 H3367 0.950 . S
C3343 C3342 1.349 . S
C3343 C3359 1.349 . S
C3344 C3342 1.327 . S
C3344 C3363 1.429 . S
C3344 H3368 0.950 . S
C3345 C3362 1.574 . S
C3345 C3364 1.368 . S
C3345 H3369 0.949 . S
H3346 C3350 0.949 . S
C3347 C3348 1.349 . S
C3347 C3349 1.327 . S
C3347 H3370 0.950 . S
C3348 C3347 1.349 . S
C3348 C3360 1.349 . S
C3349 C3347 1.327 . S
C3349 C3365 1.429 . S
C3349 H3371 0.950 . S
C3350 H3346 0.949 . S
C3350 C3358 1.574 . S
C3350 C3366 1.368 . S
H3351 C3359 0.950 . S
H3352 C3357 0.950 . S
H3353 C3358 0.949 . S
H3354 C3360 0.950 . S
H3355 C3361 0.950 . S
H3356 C3362 0.949 . S
C3357 H3352 0.950 . S
C3357 C3359 1.327 . S
C3357 C3363 1.429 . S
C3358 C3350 1.574 . S
C3358 H3353 0.949 . S
C3358 C3364 1.368 . S
C3359 C3343 1.349 . S
C3359 H3351 0.950 . S
C3359 C3357 1.327 . S
C3360 C3348 1.349 . S
C3360 H3354 0.950 . S
C3360 C3361 1.327 . S
C3361 H3355 0.950 . S
C3361 C3360 1.327 . S
C3361 C3365 1.429 . S
C3362 C3345 1.574 . S
C3362 H3356 0.949 . S
C3362 C3366 1.368 . S
C3363 C3344 1.429 . S
C3363 C3357 1.429 . S
C3363 C3364 1.523 . S
C3364 C3345 1.368 . S
C3364 C3358 1.368 . S
C3364 C3363 1.523 . S
C3365 C3349 1.429 . S
C3365 C3361 1.429 . S
C3365 C3366 1.523 . S
C3366 C3350 1.368 . S
C3366 C3362 1.368 . S
C3366 C3365 1.523 . S
H3367 C3342 0.950 . S
H3368 C3344 0.950 . S
H3369 C3345 0.949 . S
H3370 C3347 0.950 . S
H3371 C3349 0.950 . S
C3372 C3373 1.349 . S
C3372 C3374 1.327 . S
C3372 H3397 0.950 . S
C3373 C3372 1.349 . S
C3373 C3389 1.349 . S
C3374 C3372 1.327 . S
C3374 C3393 1.429 . S
C3374 H3398 0.950 . S
C3375 C3392 1.574 . S
C3375 C3394 1.368 . S
C3375 H3399 0.949 . S
H3376 C3380 0.949 . S
C3377 C3378 1.349 . S
C3377 C3379 1.327 . S
C3377 H3400 1.000 . S
C3378 C3377 1.349 . S
C3378 C3390 1.349 . S
C3379 C3377 1.327 . S
C3379 C3395 1.429 . S
C3379 H3401 0.950 . S
C3380 H3376 0.949 . S
C3380 C3388 1.574 . S
C3380 C3396 1.368 . S
H3381 C3389 0.950 . S
H3382 C3387 0.950 . S
H3383 C3388 0.949 . S
H3384 C3390 0.950 . S
H3385 C3391 0.950 . S
H3386 C3392 0.949 . S
C3387 H3382 0.950 . S
C3387 C3389 1.327 . S
C3387 C3393 1.429 . S
C3388 C3380 1.574 . S
C3388 H3383 0.949 . S
C3388 C3394 1.368 . S
C3389 C3373 1.349 . S
C3389 H3381 0.950 . S
C3389 C3387 1.327 . S
C3390 C3378 1.349 . S
C3390 H3384 0.950 . S
C3390 C3391 1.327 . S
C3391 H3385 0.950 . S
C3391 C3390 1.327 . S
C3391 C3395 1.429 . S
C3392 C3375 1.574 . S
C3392 H3386 0.949 . S
C3392 C3396 1.368 . S
C3393 C3374 1.429 . S
C3393 C3387 1.429 . S
C3393 C3394 1.523 . S
C3394 C3375 1.368 . S
C3394 C3388 1.368 . S
C3394 C3393 1.523 . S
C3395 C3379 1.429 . S
C3395 C3391 1.429 . S
C3395 C3396 1.523 . S
C3396 C3380 1.368 . S
C3396 C3392 1.368 . S
C3396 C3395 1.523 . S
H3397 C3372 0.950 . S
H3398 C3374 0.950 . S
H3399 C3375 0.949 . S
H3400 C3377 1.000 . S
H3401 C3379 0.950 . S
C3402 C3403 1.349 . S
C3402 C3404 1.327 . S
C3402 H3427 0.950 . S
C3403 C3402 1.349 . S
C3403 C3419 1.349 . S
C3404 C3402 1.327 . S
C3404 C3423 1.429 . S
C3404 H3428 0.950 . S
C3405 C3422 1.574 . S
C3405 C3424 1.368 . S
C3405 H3429 0.949 . S
H3406 C3410 0.949 . S
C3407 C3408 1.349 . S
C3407 C3409 1.327 . S
C3407 H3430 0.950 . S
C3408 C3407 1.349 . S
C3408 C3420 1.349 . S
C3409 C3407 1.327 . S
C3409 C3425 1.429 . S
C3409 H3431 0.950 . S
C3410 H3406 0.949 . S
C3410 C3418 1.574 . S
C3410 C3426 1.368 . S
H3411 C3419 0.950 . S
H3412 C3417 0.950 . S
H3413 C3418 0.949 . S
H3414 C3420 0.950 . S
H3415 C3421 0.950 . S
H3416 C3422 0.949 . S
C3417 H3412 0.950 . S
C3417 C3419 1.327 . S
C3417 C3423 1.429 . S
C3418 C3410 1.574 . S
C3418 H3413 0.949 . S
C3418 C3424 1.368 . S
C3419 C3403 1.349 . S
C3419 H3411 0.950 . S
C3419 C3417 1.327 . S
C3420 C3408 1.349 . S
C3420 H3414 0.950 . S
C3420 C3421 1.327 . S
C3421 H3415 0.950 . S
C3421 C3420 1.327 . S
C3421 C3425 1.429 . S
C3422 C3405 1.574 . S
C3422 H3416 0.949 . S
C3422 C3426 1.368 . S
C3423 C3404 1.429 . S
C3423 C3417 1.429 . S
C3423 C3424 1.523 . S
C3424 C3405 1.368 . S
C3424 C3418 1.368 . S
C3424 C3423 1.523 . S
C3425 C3409 1.429 . S
C3425 C3421 1.429 . S
C3425 C3426 1.523 . S
C3426 C3410 1.368 . S
C3426 C3422 1.368 . S
C3426 C3425 1.523 . S
H3427 C3402 0.950 . S
H3428 C3404 0.950 . S
H3429 C3405 0.949 . S
H3430 C3407 0.950 . S
H3431 C3409 0.950 . S
C3432 C3433 1.349 . S
C3432 C3434 1.327 . S
C3432 H3457 0.950 . S
C3433 C3432 1.349 . S
C3433 C3449 1.349 . S
C3434 C3432 1.327 . S
C3434 C3453 1.429 . S
C3434 H3458 0.950 . S
C3435 C3452 1.574 . S
C3435 C3454 1.368 . S
C3435 H3459 0.949 . S
H3436 C3440 0.949 . S
C3437 C3438 1.349 . S
C3437 C3439 1.327 . S
C3437 H3460 0.983 . S
C3438 C3437 1.349 . S
C3438 C3450 1.349 . S
C3439 C3437 1.327 . S
C3439 C3455 1.429 . S
C3439 H3461 0.950 . S
C3440 H3436 0.949 . S
C3440 C3448 1.574 . S
C3440 C3456 1.368 . S
H3441 C3449 0.950 . S
H3442 C3447 0.950 . S
H3443 C3448 0.949 . S
H3444 C3450 0.950 . S
H3445 C3451 0.950 . S
H3446 C3452 0.949 . S
C3447 H3442 0.950 . S
C3447 C3449 1.327 . S
C3447 C3453 1.429 . S
C3448 C3440 1.574 . S
C3448 H3443 0.949 . S
C3448 C3454 1.368 . S
C3449 C3433 1.349 . S
C3449 H3441 0.950 . S
C3449 C3447 1.327 . S
C3450 C3438 1.349 . S
C3450 H3444 0.950 . S
C3450 C3451 1.327 . S
C3451 H3445 0.950 . S
C3451 C3450 1.327 . S
C3451 C3455 1.429 . S
C3452 C3435 1.574 . S
C3452 H3446 0.949 . S
C3452 C3456 1.368 . S
C3453 C3434 1.429 . S
C3453 C3447 1.429 . S
C3453 C3454 1.523 . S
C3454 C3435 1.368 . S
C3454 C3448 1.368 . S
C3454 C3453 1.523 . S
C3455 C3439 1.429 . S
C3455 C3451 1.429 . S
C3455 C3456 1.523 . S
C3456 C3440 1.368 . S
C3456 C3452 1.368 . S
C3456 C3455 1.523 . S
H3457 C3432 0.950 . S
H3458 C3434 0.950 . S
H3459 C3435 0.949 . S
H3460 C3437 0.983 . S
H3461 C3439 0.950 . S
C3462 C3463 1.349 . S
C3462 C3464 1.327 . S
C3462 H3487 0.950 . S
C3463 C3462 1.349 . S
C3463 C3479 1.349 . S
C3464 C3462 1.327 . S
C3464 C3483 1.429 . S
C3464 H3488 0.950 . S
C3465 C3482 1.574 . S
C3465 C3484 1.368 . S
C3465 H3489 0.949 . S
H3466 C3470 0.949 . S
C3467 C3468 1.349 . S
C3467 C3469 1.327 . S
C3467 H3490 0.950 . S
C3468 C3467 1.349 . S
C3468 C3480 1.349 . S
C3469 C3467 1.327 . S
C3469 C3485 1.429 . S
C3469 H3491 0.950 . S
C3470 H3466 0.949 . S
C3470 C3478 1.574 . S
C3470 C3486 1.368 . S
H3471 C3479 0.950 . S
H3472 C3477 0.950 . S
H3473 C3478 0.949 . S
H3474 C3480 0.950 . S
H3475 C3481 0.950 . S
H3476 C3482 0.949 . S
C3477 H3472 0.950 . S
C3477 C3479 1.327 . S
C3477 C3483 1.429 . S
C3478 C3470 1.574 . S
C3478 H3473 0.949 . S
C3478 C3484 1.368 . S
C3479 C3463 1.349 . S
C3479 H3471 0.950 . S
C3479 C3477 1.327 . S
C3480 C3468 1.349 . S
C3480 H3474 0.950 . S
C3480 C3481 1.327 . S
C3481 H3475 0.950 . S
C3481 C3480 1.327 . S
C3481 C3485 1.429 . S
C3482 C3465 1.574 . S
C3482 H3476 0.949 . S
C3482 C3486 1.368 . S
C3483 C3464 1.429 . S
C3483 C3477 1.429 . S
C3483 C3484 1.523 . S
C3484 C3465 1.368 . S
C3484 C3478 1.368 . S
C3484 C3483 1.523 . S
C3485 C3469 1.429 . S
C3485 C3481 1.429 . S
C3485 C3486 1.523 . S
C3486 C3470 1.368 . S
C3486 C3482 1.368 . S
C3486 C3485 1.523 . S
H3487 C3462 0.950 . S
H3488 C3464 0.950 . S
H3489 C3465 0.949 . S
H3490 C3467 0.950 . S
H3491 C3469 0.950 . S
C3492 C3493 1.349 . S
C3492 C3494 1.327 . S
C3492 H3517 0.950 . S
C3493 C3492 1.349 . S
C3493 C3509 1.349 . S
C3494 C3492 1.327 . S
C3494 C3513 1.429 . S
C3494 H3518 0.950 . S
C3495 C3512 1.574 . S
C3495 C3514 1.368 . S
C3495 H3519 0.949 . S
H3496 C3500 0.949 . S
C3497 C3498 1.349 . S
C3497 C3499 1.327 . S
C3497 H3520 0.950 . S
C3498 C3497 1.349 . S
C3498 C3510 1.349 . S
C3499 C3497 1.327 . S
C3499 C3515 1.429 . S
C3499 H3521 0.950 . S
C3500 H3496 0.949 . S
C3500 C3508 1.574 . S
C3500 C3516 1.368 . S
H3501 C3509 0.950 . S
H3502 C3507 0.950 . S
H3503 C3508 0.949 . S
H3504 C3510 0.950 . S
H3505 C3511 0.950 . S
H3506 C3512 0.949 . S
C3507 H3502 0.950 . S
C3507 C3509 1.327 . S
C3507 C3513 1.429 . S
C3508 C3500 1.574 . S
C3508 H3503 0.949 . S
C3508 C3514 1.368 . S
C3509 C3493 1.349 . S
C3509 H3501 0.950 . S
C3509 C3507 1.327 . S
C3510 C3498 1.349 . S
C3510 H3504 0.950 . S
C3510 C3511 1.327 . S
C3511 H3505 0.950 . S
C3511 C3510 1.327 . S
C3511 C3515 1.429 . S
C3512 C3495 1.574 . S
C3512 H3506 0.949 . S
C3512 C3516 1.368 . S
C3513 C3494 1.429 . S
C3513 C3507 1.429 . S
C3513 C3514 1.523 . S
C3514 C3495 1.368 . S
C3514 C3508 1.368 . S
C3514 C3513 1.523 . S
C3515 C3499 1.429 . S
C3515 C3511 1.429 . S
C3515 C3516 1.523 . S
C3516 C3500 1.368 . S
C3516 C3512 1.368 . S
C3516 C3515 1.523 . S
H3517 C3492 0.950 . S
H3518 C3494 0.950 . S
H3519 C3495 0.949 . S
H3520 C3497 0.950 . S
H3521 C3499 0.950 . S
C3522 C3523 1.349 . S
C3522 C3524 1.327 . S
C3522 H3547 0.950 . S
C3523 C3522 1.349 . S
C3523 C3539 1.349 . S
C3524 C3522 1.327 . S
C3524 C3543 1.429 . S
C3524 H3548 0.950 . S
C3525 C3542 1.574 . S
C3525 C3544 1.368 . S
C3525 H3549 0.949 . S
H3526 C3530 0.949 . S
C3527 C3528 1.349 . S
C3527 C3529 1.327 . S
C3527 H3550 0.950 . S
C3528 C3527 1.349 . S
C3528 C3540 1.349 . S
C3529 C3527 1.327 . S
C3529 C3545 1.429 . S
C3529 H3551 0.950 . S
C3530 H3526 0.949 . S
C3530 C3538 1.574 . S
C3530 C3546 1.368 . S
H3531 C3539 0.950 . S
H3532 C3537 0.950 . S
H3533 C3538 0.949 . S
H3534 C3540 0.950 . S
H3535 C3541 0.950 . S
H3536 C3542 0.949 . S
C3537 H3532 0.950 . S
C3537 C3539 1.327 . S
C3537 C3543 1.429 . S
C3538 C3530 1.574 . S
C3538 H3533 0.949 . S
C3538 C3544 1.368 . S
C3539 C3523 1.349 . S
C3539 H3531 0.950 . S
C3539 C3537 1.327 . S
C3540 C3528 1.349 . S
C3540 H3534 0.950 . S
C3540 C3541 1.327 . S
C3541 H3535 0.950 . S
C3541 C3540 1.327 . S
C3541 C3545 1.429 . S
C3542 C3525 1.574 . S
C3542 H3536 0.949 . S
C3542 C3546 1.368 . S
C3543 C3524 1.429 . S
C3543 C3537 1.429 . S
C3543 C3544 1.523 . S
C3544 C3525 1.368 . S
C3544 C3538 1.368 . S
C3544 C3543 1.523 . S
C3545 C3529 1.429 . S
C3545 C3541 1.429 . S
C3545 C3546 1.523 . S
C3546 C3530 1.368 . S
C3546 C3542 1.368 . S
C3546 C3545 1.523 . S
H3547 C3522 0.950 . S
H3548 C3524 0.950 . S
H3549 C3525 0.949 . S
H3550 C3527 0.950 . S
H3551 C3529 0.950 . S
C673 C92 1.103 . S
C678 C8 1.102 . S
C703 C22 1.103 . S
C708 C106 1.103 . S
C733 C36 1.102 . S
C738 C64 1.102 . S
C763 C78 1.102 . S
C768 C50 1.102 . S
C793 C484 1.103 . S
C798 C120 1.102 . S
C823 C498 1.102 . S
C828 C134 1.102 . S
C853 C148 1.103 . S
C858 C456 1.103 . S
C883 C162 1.103 . S
C888 C470 1.103 . S
C913 C540 1.103 . S
C918 C176 1.103 . S
C943 C554 1.103 . S
C948 C190 1.103 . S
C973 C512 1.102 . S
C978 C204 1.102 . S
C1003 C526 1.103 . S
C1008 C218 1.103 . S
C1033 C232 1.102 . S
C1038 C582 1.103 . S
C1063 C246 1.103 . S
C1068 C568 1.103 . S
C1093 C260 1.102 . S
C1098 C330 1.102 . S
C1123 C638 1.102 . S
C1128 C274 1.102 . S
C1153 C652 1.103 . S
C1158 C288 1.103 . S
C1183 C610 1.103 . S
C1188 C302 1.103 . S
C1213 C624 1.103 . S
C1218 C316 1.103 . S
C1243 C428 1.103 . S
C1248 C344 1.103 . S
C1273 C442 1.103 . S
C1278 C358 1.103 . S
C1303 C372 1.103 . S
C1308 C400 1.103 . S
C1333 C386 1.103 . S
C1338 C414 1.103 . S
C1363 C666 1.103 . S
C1368 C596 1.103 . S
C1393 C233 1.069 . S
C1398 C7 1.052 . S
C1423 C21 1.052 . S
C1428 C667 1.069 . S
C1453 C35 1.052 . S
C1458 C303 1.069 . S
C1483 C653 1.068 1_554 S
C1488 C49 1.051 . S
C1513 C63 1.051 . S
C1518 C583 1.068 . S
C1543 C597 1.069 . S
C1548 C77 1.052 . S
C1573 C91 1.052 . S
C1578 C611 1.069 . S
C1603 C289 1.069 1_556 S
C1608 C105 1.051 . S
C1633 C119 1.052 . S
C1638 C9 1.069 . S
C1663 C23 1.068 1_545 S
C1668 C133 1.051 . S
C1693 C147 1.052 . S
C1698 C37 1.069 . S
C1723 C161 1.052 . S
C1728 C51 1.069 1_565 S
C1753 C175 1.052 . S
C1758 C65 1.069 . S
C1783 C79 1.069 1_545 S
C1788 C189 1.052 . S
C1813 C203 1.051 . S
C1818 C93 1.068 . S
C1843 C217 1.051 . S
C1848 C107 1.069 1_565 S
C1873 C231 1.052 . S
C1878 C121 1.069 . S
C1903 C245 1.052 . S
C1908 C513 1.069 . S
C1933 C527 1.068 1_455 S
C1938 C259 1.051 . S
C1963 C541 1.069 . S
C1968 C273 1.052 . S
C1993 C287 1.051 . S
C1998 C219 1.069 1_655 S
C2023 C301 1.051 . S
C2028 C149 1.068 . S
C2053 C499 1.069 1_455 S
C2058 C315 1.052 . S
C2083 C471 1.069 . S
C2088 C329 1.052 . S
C2113 C343 1.051 . S
C2118 C569 1.069 . S
C2143 C357 1.052 . S
C2148 C331 1.069 1_554 S
C2173 C371 1.052 . S
C2178 C639 1.069 . S
C2203 C385 1.051 . S
C2208 C317 1.068 . S
C2233 C399 1.051 . S
C2238 C247 1.068 . S
C2263 C261 1.069 1_556 S
C2268 C413 1.052 . S
C2293 C275 1.069 . S
C2298 C427 1.052 . S
C2323 C625 1.069 . S
C2328 C441 1.051 . S
C2353 C345 1.069 . S
C2358 C455 1.051 . S
C2383 C359 1.068 . S
C2388 C469 1.051 . S
C2413 C483 1.052 . S
C2418 C373 1.069 . S
C2443 C387 1.069 . S
C2448 C497 1.052 . S
C2473 C511 1.052 . S
C2478 C401 1.069 . S
C2503 C415 1.069 . S
C2508 C525 1.052 . S
C2533 C539 1.051 . S
C2538 C429 1.068 . S
C2563 C443 1.069 . S
C2568 C553 1.051 . S
C2593 C567 1.051 . S
C2598 C457 1.069 . S
C2623 C581 1.052 . S
C2628 C177 1.069 . S
C2653 C191 1.068 . S
C2658 C595 1.051 . S
C2683 C609 1.052 . S
C2688 C205 1.069 . S
C2713 C623 1.051 . S
C2718 C555 1.069 . S
C2743 C485 1.068 . S
C2748 C637 1.051 . S
C2773 C651 1.052 . S
C2778 C163 1.069 . S
C2803 C135 1.069 1_655 S
C2808 C665 1.052 . S
C2833 C132 0.602 . S
C2838 C6 0.602 . S
C2863 C20 0.602 . S
C2868 C146 0.602 . S
C2893 C160 0.602 . S
C2898 C34 0.602 . S
C2923 C118 0.602 . S
C2928 C48 0.602 . S
C2953 C62 0.602 . S
C2958 C216 0.602 . S
C2983 C76 0.602 . S
C2988 C174 0.602 . S
C3013 C188 0.602 . S
C3018 C90 0.602 . S
C3043 C202 0.602 . S
C3048 C104 0.602 . S
C3073 C230 0.602 . S
C3078 C258 0.602 . S
C3103 C244 0.602 . S
C3108 C650 0.602 . S
C3133 C272 0.602 . S
C3138 C664 0.602 . S
C3163 C636 0.602 . S
C3168 C286 0.602 . S
C3193 C622 0.602 . S
C3198 C300 0.602 . S
C3223 C580 0.602 . S
C3228 C314 0.602 . S
C3253 C328 0.602 . S
C3258 C608 0.602 . S
C3283 C468 0.602 . S
C3288 C342 0.602 . S
C3313 C482 0.602 . S
C3318 C356 0.602 . S
C3343 C370 0.602 . S
C3348 C496 0.602 . S
C3373 C454 0.602 . S
C3378 C384 0.602 . S
C3403 C552 0.602 . S
C3408 C398 0.602 . S
C3433 C510 0.602 . S
C3438 C412 0.602 . S
C3463 C426 0.602 . S
C3468 C524 0.602 . S
C3493 C538 0.602 . S
C3498 C440 0.602 . S
C3523 C594 0.602 . S
C3528 C566 0.602 . S
