# Generated by pormake.
# Topology umb, (4)-cn, num edge types: 1
# Building blocks:
#     Node 0, Type 0, BuildingBlock: MUDLON_clean_sbu_0, # of connection points: 4
#     Node 1, Type 0, BuildingBlock: MUDLON_clean_sbu_0, # of connection points: 4
#     Node 2, Type 0, BuildingBlock: MUDLON_clean_sbu_0, # of connection points: 4
#     Node 3, Type 0, BuildingBlock: MUDLON_clean_sbu_0, # of connection points: 4
#     Node 4, Type 0, BuildingBlock: MUDLON_clean_sbu_0, # of connection points: 4
#     Node 5, Type 0, BuildingBlock: MUDLON_clean_sbu_0, # of connection points: 4
#     Node 6, Type 0, BuildingBlock: MUDLON_clean_sbu_0, # of connection points: 4
#     Node 7, Type 0, BuildingBlock: MUDLON_clean_sbu_0, # of connection points: 4
#     Node 8, Type 0, BuildingBlock: MUDLON_clean_sbu_0, # of connection points: 4
#     Node 9, Type 0, BuildingBlock: MUDLON_clean_sbu_0, # of connection points: 4
#     Node 10, Type 0, BuildingBlock: MUDLON_clean_sbu_0, # of connection points: 4
#     Node 11, Type 0, BuildingBlock: MUDLON_clean_sbu_0, # of connection points: 4
#     Edge 12, Type (0, 0), BuildingBlock: ZUJKAS_clean_linker_0, # of connection points: 2
#     Edge 13, Type (0, 0), BuildingBlock: ZUJKAS_clean_linker_0, # of connection points: 2
#     Edge 14, Type (0, 0), BuildingBlock: ZUJKAS_clean_linker_0, # of connection points: 2
#     Edge 15, Type (0, 0), BuildingBlock: ZUJKAS_clean_linker_0, # of connection points: 2
#     Edge 16, Type (0, 0), BuildingBlock: ZUJKAS_clean_linker_0, # of connection points: 2
#     Edge 17, Type (0, 0), BuildingBlock: ZUJKAS_clean_linker_0, # of connection points: 2
#     Edge 18, Type (0, 0), BuildingBlock: ZUJKAS_clean_linker_0, # of connection points: 2
#     Edge 19, Type (0, 0), BuildingBlock: ZUJKAS_clean_linker_0, # of connection points: 2
#     Edge 20, Type (0, 0), BuildingBlock: ZUJKAS_clean_linker_0, # of connection points: 2
#     Edge 21, Type (0, 0), BuildingBlock: ZUJKAS_clean_linker_0, # of connection points: 2
#     Edge 22, Type (0, 0), BuildingBlock: ZUJKAS_clean_linker_0, # of connection points: 2
#     Edge 23, Type (0, 0), BuildingBlock: ZUJKAS_clean_linker_0, # of connection points: 2
#     Edge 24, Type (0, 0), BuildingBlock: ZUJKAS_clean_linker_0, # of connection points: 2
#     Edge 25, Type (0, 0), BuildingBlock: ZUJKAS_clean_linker_0, # of connection points: 2
#     Edge 26, Type (0, 0), BuildingBlock: ZUJKAS_clean_linker_0, # of connection points: 2
#     Edge 27, Type (0, 0), BuildingBlock: ZUJKAS_clean_linker_0, # of connection points: 2
#     Edge 28, Type (0, 0), BuildingBlock: ZUJKAS_clean_linker_0, # of connection points: 2
#     Edge 29, Type (0, 0), BuildingBlock: ZUJKAS_clean_linker_0, # of connection points: 2
#     Edge 30, Type (0, 0), BuildingBlock: ZUJKAS_clean_linker_0, # of connection points: 2
#     Edge 31, Type (0, 0), BuildingBlock: ZUJKAS_clean_linker_0, # of connection points: 2
#     Edge 32, Type (0, 0), BuildingBlock: ZUJKAS_clean_linker_0, # of connection points: 2
#     Edge 33, Type (0, 0), BuildingBlock: ZUJKAS_clean_linker_0, # of connection points: 2
#     Edge 34, Type (0, 0), BuildingBlock: ZUJKAS_clean_linker_0, # of connection points: 2
#     Edge 35, Type (0, 0), BuildingBlock: ZUJKAS_clean_linker_0, # of connection points: 2
# Relax obj value: 0.250
# Max RMSD: 0.216
# Mean RMSD: 0.216
data_MOF--net-umb--node1-MUDLON_clean_sbu_0--edge1-ZUJKAS_clean_linker_0
_symmetry_space_group_name_H-M    P1
_symmetry_Int_Tables_number       1
_symmetry_cell_setting            triclinic
loop_
_symmetry_equiv_pos_as_xyz
'x, y, z'
_cell_length_a     61.644214
_cell_length_b     62.308689
_cell_length_c     51.831274
_cell_angle_alpha  90.27583
_cell_angle_beta   89.930325
_cell_angle_gamma 119.53388
loop_
_atom_site_label
_atom_site_type_symbol
_atom_site_fract_x
_atom_site_fract_y
_atom_site_fract_z
_atom_type_partial_charge
Mg0 Mg 0.54736 0.17954 0.37311 0.0
C1 C 0.60244 0.20867 0.35679 0.0
O2 O 0.59358 0.20918 0.33391 0.0
C3 C 0.54853 0.13285 0.36038 0.0
O4 O 0.57207 0.1472 0.36646 0.0
C5 C 0.53566 0.19233 0.32122 0.0
O6 O 0.53813 0.17305 0.31569 0.0
O7 O 0.53751 0.1992 0.34469 0.0
O8 O 0.58751 0.19776 0.37522 0.0
O9 O 0.5371 0.18067 0.41328 0.0
C10 C 0.54885 0.1742 0.42877 0.0
O11 O 0.5637 0.16673 0.41901 0.0
O12 O 0.53368 0.14151 0.36136 0.0
Mg13 Mg 0.36461 0.50882 0.67777 0.0
C14 C 0.35471 0.52661 0.72796 0.0
O15 O 0.35361 0.54221 0.71178 0.0
C16 C 0.33535 0.4823 0.63068 0.0
O17 O 0.35654 0.48272 0.62619 0.0
C18 C 0.40031 0.49043 0.69036 0.0
O19 O 0.39075 0.48874 0.71342 0.0
O20 O 0.39185 0.49705 0.67153 0.0
O21 O 0.35703 0.50881 0.71893 0.0
O22 O 0.38368 0.54741 0.66761 0.0
C23 C 0.37475 0.55596 0.65112 0.0
O24 O 0.35422 0.54074 0.63875 0.0
O25 O 0.33243 0.49038 0.65225 0.0
Mg26 Mg 0.80622 0.37863 1.01986 0.0
C27 C 0.80931 0.42826 1.01624 0.0
O28 O 0.83118 0.43533 1.02681 0.0
C29 C 0.86149 0.40248 1.02631 0.0
O30 O 0.85458 0.40047 0.05057 0.0
C31 C 0.78451 0.34603 0.97408 0.0
O32 O 0.80201 0.36654 0.9638 0.0
O33 O 0.78194 0.34499 0.99849 0.0
O34 O 0.79558 0.40571 1.01007 0.0
O35 O 0.80327 0.37647 0.0618 0.0
C36 C 0.7872 0.3805 0.07295 0.0
O37 O 0.7706 0.38246 0.0588 0.0
O38 O 0.84487 0.39391 1.00882 0.0
Mg39 Mg 0.39852 0.8249 0.31454 0.0
C40 C 0.34763 0.82136 0.30579 0.0
O41 O 0.33247 0.82906 0.29771 0.0
C42 C 0.43489 0.87641 0.29942 0.0
O43 O 0.41913 0.8695 0.28002 0.0
C44 C 0.41628 0.80509 0.27008 0.0
O45 O 0.42824 0.82856 0.26391 0.0
O46 O 0.40301 0.79847 0.2904 0.0
O47 O 0.3703 0.83261 0.29869 0.0
O48 O 0.3879 0.81191 0.35402 0.0
C49 C 0.38346 0.82541 0.36917 0.0
O50 O 0.38613 0.84635 0.36046 0.0
O51 O 0.43192 0.86066 0.31655 0.0
Mg52 Mg 0.65917 0.45833 0.697 0.0
C53 C 0.66505 0.44161 0.74996 0.0
O54 O 0.66605 0.4247 0.7356 0.0
C55 C 0.68509 0.48143 0.64858 0.0
O56 O 0.66144 0.47279 0.64293 0.0
C57 C 0.63031 0.48614 0.68607 0.0
O58 O 0.65233 0.50611 0.68591 0.0
O59 O 0.62869 0.46528 0.68986 0.0
O60 O 0.66445 0.45953 0.7389 0.0
O61 O 0.64449 0.42046 0.68535 0.0
C62 C 0.65786 0.41225 0.6755 0.0
O63 O 0.68173 0.42738 0.67167 0.0
O64 O 0.69089 0.47962 0.67172 0.0
Mg65 Mg 0.17363 0.5964 1.00244 0.0
C66 C 0.1898 0.56336 0.97215 0.0
O67 O 0.18807 0.57412 0.95113 0.0
C68 C 0.12232 0.55993 0.98296 0.0
O69 O 0.13556 0.55274 0.96932 0.0
C70 C 0.18275 0.62639 0.95467 0.0
O71 O 0.16124 0.60678 0.94944 0.0
O72 O 0.19278 0.62786 0.97655 0.0
O73 O 0.18501 0.56944 0.99396 0.0
O74 O 0.18192 0.60294 0.04365 0.0
C75 C 0.16702 0.58467 0.05741 0.0
O76 O 0.14828 0.5658 0.04594 0.0
O77 O 0.13346 0.57855 0.99779 0.0
Mg78 Mg 0.84713 0.47242 0.38528 0.0
C79 C 0.82169 0.46724 0.33481 0.0
O80 O 0.80248 0.45443 0.34995 0.0
C81 C 0.80933 0.4733 0.42138 0.0
O82 O 0.79553 0.45225 0.40936 0.0
C83 C 0.90283 0.49485 0.3784 0.0
O84 O 0.89786 0.50281 0.35699 0.0
O85 O 0.88527 0.48248 0.39414 0.0
O86 O 0.84324 0.47943 0.34492 0.0
O87 O 0.82634 0.43277 0.38628 0.0
C88 C 0.8245 0.41919 0.40526 0.0
O89 O 0.8358 0.42935 0.42709 0.0
O90 O 0.83187 0.48674 0.41435 0.0
Mg91 Mg 0.33879 0.79754 0.69171 0.0
C92 C 0.35169 0.7581 0.70267 0.0
O93 O 0.32903 0.74781 0.71221 0.0
C94 C 0.38526 0.84641 0.69203 0.0
O95 O 0.39191 0.83396 0.67649 0.0
C96 C 0.31781 0.78591 0.74426 0.0
O97 O 0.34139 0.80223 0.74807 0.0
O98 O 0.30995 0.78044 0.72114 0.0
O99 O 0.36107 0.77957 0.69316 0.0
O100 O 0.32713 0.79505 0.65153 0.0
C101 C 0.32508 0.77719 0.63769 0.0
O102 O 0.32692 0.75927 0.64885 0.0
O103 O 0.36337 0.83579 0.70136 0.0
Mg104 Mg 0.56588 0.37979 0.06462 0.0
C105 C 0.61185 0.43023 0.07146 0.0
O106 O 0.59747 0.43784 0.06099 0.0
C107 C 0.53966 0.40788 0.05121 0.0
O108 O 0.55057 0.40893 1.02909 0.0
C109 C 0.55207 0.35259 0.11383 0.0
O110 O 0.55521 0.37442 0.12004 0.0
O111 O 0.55468 0.34834 0.0903 0.0
O112 O 0.6029 0.40743 0.07635 0.0
O113 O 0.5699 0.37448 1.02345 0.0
C114 C 0.59119 0.37881 1.01531 0.0
O115 O 0.60866 0.38293 1.03226 0.0
O116 O 0.54202 0.39586 0.06969 0.0
Mg117 Mg 0.19519 0.52908 0.37428 0.0
C118 C 0.18409 0.51923 0.3176 0.0
O119 O 0.16175 0.50532 0.3273 0.0
C120 C 0.22556 0.51018 0.40178 0.0
O121 O 0.24272 0.52641 0.38644 0.0
C122 C 0.14277 0.51121 0.3971 0.0
O123 O 0.15086 0.504 0.41686 0.0
O124 O 0.15703 0.52125 0.37793 0.0
O125 O 0.20255 0.52968 0.33296 0.0
O126 O 0.21772 0.5667 0.38741 0.0
C127 C 0.23939 0.57978 0.37805 0.0
O128 O 0.24776 0.56981 0.36119 0.0
O129 O 0.20326 0.506 0.39953 0.0
Mg130 Mg 0.56528 0.1558 0.75594 0.0
C131 C 0.53155 0.17707 0.77394 0.0
O132 O 0.51222 0.17585 0.78599 0.0
C133 C 0.52837 0.10323 0.75014 0.0
O134 O 0.5146 0.11395 0.74988 0.0
C135 C 0.59806 0.17051 0.80259 0.0
O136 O 0.57639 0.15431 0.81222 0.0
O137 O 0.59973 0.1744 0.77841 0.0
O138 O 0.53652 0.15968 0.77673 0.0
O139 O 0.56894 0.169 0.71618 0.0
C140 C 0.54959 0.16606 0.70426 0.0
O141 O 0.52813 0.15583 0.71641 0.0
O142 O 0.55179 0.11653 0.75313 0.0
Mg143 Mg 0.41753 0.59754 0.04773 0.0
C144 C 0.3761 0.54701 0.03806 0.0
O145 O 0.39484 0.54601 1.02718 0.0
C146 C 0.43814 0.56926 0.07514 0.0
O147 O 0.41866 0.56375 0.08974 0.0
C148 C 0.41007 0.62201 0.09441 0.0
O149 O 0.39597 0.59863 0.10034 0.0
O150 O 0.42175 0.62745 0.07305 0.0
O151 O 0.38046 0.56629 0.05069 0.0
O152 O 0.41865 0.6052 1.00662 0.0
C153 C 0.42815 0.59608 0.9913 0.0
O154 O 0.44049 0.58581 1.00103 0.0
O155 O 0.44315 0.58438 0.05674 0.0
H156 H 0.57674 0.16729 0.46486 0.0
H157 H 0.57538 0.17067 0.51158 0.0
H158 H 0.51661 0.1888 0.50448 0.0
H159 H 0.51789 0.18557 0.45719 0.0
H160 H 0.58101 0.21459 0.54144 0.0
H161 H 0.49092 0.12779 0.55582 0.0
H162 H 0.50948 0.13304 0.5271 0.0
H163 H 0.49244 0.14919 0.53167 0.0
C164 C 0.56342 0.17195 0.47309 0.0
C165 C 0.54732 0.17606 0.45722 0.0
C166 C 0.56278 0.17397 0.49986 0.0
C167 C 0.54588 0.1799 0.51147 0.0
C168 C 0.52971 0.18406 0.49583 0.0
H169 H 0.51469 0.17111 0.67681 0.0
H170 H 0.51435 0.17825 0.63054 0.0
C171 C 0.53047 0.18222 0.46887 0.0
C172 C 0.54535 0.18142 0.54001 0.0
H173 H 0.51275 0.14922 0.59288 0.0
C174 C 0.56598 0.20048 0.55276 0.0
C175 C 0.5257 0.16302 0.55465 0.0
C176 C 0.50335 0.14196 0.54178 0.0
C177 C 0.56765 0.20146 0.57983 0.0
C178 C 0.54848 0.18244 0.59453 0.0
C179 C 0.52749 0.16378 0.5817 0.0
C180 C 0.5501 0.18082 0.62307 0.0
C181 C 0.58993 0.22292 0.5923 0.0
C182 C 0.57047 0.18019 0.6345 0.0
C183 C 0.57085 0.1764 0.66107 0.0
C184 C 0.55061 0.17262 0.67666 0.0
C185 C 0.53048 0.17374 0.6653 0.0
C186 C 0.53027 0.17785 0.63883 0.0
H187 H 0.59764 0.23954 0.57986 0.0
H188 H 0.58513 0.22764 0.61135 0.0
H189 H 0.6048 0.21803 0.59513 0.0
H190 H 0.58572 0.18178 0.62275 0.0
H191 H 0.58655 0.17548 0.6692 0.0
H192 H 0.35627 0.56634 0.75228 0.0
H193 H 0.36677 0.57883 0.79735 0.0
H194 H 0.37051 0.51277 0.81239 0.0
H195 H 0.36013 0.50007 0.76716 0.0
H196 H 0.34402 0.52905 0.85184 0.0
H197 H 0.44029 0.60025 0.8244 0.0
H198 H 0.41496 0.59951 0.80641 0.0
H199 H 0.42101 0.57422 0.80385 0.0
C200 C 0.35895 0.55423 0.76519 0.0
C201 C 0.35751 0.53225 0.75602 0.0
C202 C 0.36503 0.56147 0.79094 0.0
C203 C 0.36967 0.54685 0.80806 0.0
C204 C 0.36706 0.52433 0.79939 0.0
H205 H 0.44775 0.58041 0.95323 0.0
H206 H 0.43311 0.56955 0.90875 0.0
C207 C 0.36111 0.5171 0.77356 0.0
C208 C 0.37859 0.55577 0.8346 0.0
H209 H 0.42946 0.59821 0.8683 0.0
C210 C 0.36265 0.5442 0.85551 0.0
C211 C 0.40297 0.57545 0.83922 0.0
C212 C 0.42096 0.58808 0.81738 0.0
C213 C 0.37046 0.55187 0.88102 0.0
C214 C 0.39481 0.57169 0.88564 0.0
C215 C 0.41075 0.58317 0.86469 0.0
C216 C 0.40453 0.57995 0.91216 0.0
C217 C 0.35279 0.53843 0.90286 0.0
C218 C 0.39382 0.59013 0.92861 0.0
C219 C 0.40228 0.59654 0.95406 0.0
C220 C 0.42157 0.59281 0.9635 0.0
C221 C 0.43285 0.58349 0.94662 0.0
C222 C 0.42448 0.57723 0.92119 0.0
H223 H 0.33692 0.5205 0.89649 0.0
H224 H 0.36264 0.53504 0.9189 0.0
H225 H 0.34511 0.55 0.91045 0.0
H226 H 0.37867 0.59276 0.92189 0.0
H227 H 0.39312 0.6036 0.96655 0.0
H228 H 0.85826 0.47807 0.29883 0.0
H229 H 0.85251 0.46468 0.25359 0.0
H230 H 0.77302 0.43327 0.26161 0.0
H231 H 0.77847 0.4463 0.3069 0.0
H232 H 0.81513 0.40822 0.24057 0.0
H233 H 0.79813 0.47793 0.19152 0.0
H234 H 0.81708 0.48522 0.2203 0.0
H235 H 0.78389 0.46637 0.2225 0.0
C236 C 0.83958 0.4688 0.29085 0.0
C237 C 0.8188 0.46321 0.30651 0.0
C238 C 0.83635 0.46106 0.26504 0.0
C239 C 0.81236 0.448 0.25436 0.0
C240 C 0.79169 0.44343 0.26953 0.0
H241 H 0.75393 0.38586 0.10337 0.0
H242 H 0.75973 0.40075 0.14793 0.0
C243 C 0.79486 0.45091 0.29539 0.0
C244 C 0.80869 0.43745 0.22802 0.0
H245 H 0.79403 0.44452 0.16636 0.0
C246 C 0.81063 0.41616 0.22426 0.0
C247 C 0.80251 0.44773 0.207 0.0
C248 C 0.80032 0.47065 0.21028 0.0
C249 C 0.80623 0.40462 0.19997 0.0
C250 C 0.80041 0.4151 0.17871 0.0
C251 C 0.7985 0.43647 0.18259 0.0
C252 C 0.79628 0.40431 0.15228 0.0
C253 C 0.80712 0.38092 0.19756 0.0
C254 C 0.81477 0.40108 0.13989 0.0
C255 C 0.81134 0.39222 0.11451 0.0
C256 C 0.78953 0.38682 0.10081 0.0
C257 C 0.77092 0.38976 0.11337 0.0
C258 C 0.77425 0.39839 0.13883 0.0
H259 H 0.80403 0.37153 0.21647 0.0
H260 H 0.79291 0.36799 0.1837 0.0
H261 H 0.82581 0.38514 0.19052 0.0
H262 H 0.83219 0.40609 0.14957 0.0
H263 H 0.82621 0.3905 0.10531 0.0
H264 H 0.37367 0.85089 0.40601 0.0
H265 H 0.35983 0.83853 0.4503 0.0
H266 H 0.35856 0.76951 0.43719 0.0
H267 H 0.37317 0.78212 0.3929 0.0
H268 H 0.31732 0.79878 0.46954 0.0
H269 H 0.40198 0.79604 0.50143 0.0
H270 H 0.40071 0.80985 0.47136 0.0
H271 H 0.38629 0.77688 0.47404 0.0
C272 C 0.37056 0.8331 0.41252 0.0
C273 C 0.37473 0.81756 0.39595 0.0
C274 C 0.36254 0.82603 0.43785 0.0
C275 C 0.35849 0.80326 0.44722 0.0
C276 C 0.36207 0.7874 0.43058 0.0
H277 H 0.32301 0.74308 0.60297 0.0
H278 H 0.32809 0.74736 0.5562 0.0
C279 C 0.37027 0.79456 0.40522 0.0
C280 C 0.3508 0.79648 0.47452 0.0
H281 H 0.36971 0.78435 0.53188 0.0
C282 C 0.32873 0.79555 0.48317 0.0
C283 C 0.3657 0.79226 0.49229 0.0
C284 C 0.3901 0.79399 0.48446 0.0
C285 C 0.32121 0.79058 0.50909 0.0
C286 C 0.33633 0.78678 0.52692 0.0
C287 C 0.35812 0.78723 0.51817 0.0
C288 C 0.33047 0.78314 0.55492 0.0
C289 C 0.29706 0.78927 0.51712 0.0
C290 C 0.32977 0.80171 0.56978 0.0
C291 C 0.32682 0.79932 0.5966 0.0
C292 C 0.32469 0.77837 0.6091 0.0
C293 C 0.32457 0.75946 0.59403 0.0
C294 C 0.32754 0.76188 0.56725 0.0
H295 H 0.28446 0.78564 0.50037 0.0
H296 H 0.28718 0.77463 0.53171 0.0
H297 H 0.30114 0.80719 0.52582 0.0
H298 H 0.33246 0.81849 0.56076 0.0
H299 H 0.32715 0.81431 0.6076 0.0
H300 H 0.63468 0.38762 0.99231 0.0
H301 H 0.64717 0.39867 0.94746 0.0
H302 H 0.57529 0.39107 0.93024 0.0
H303 H 0.56245 0.37962 0.97517 0.0
H304 H 0.59151 0.3707 0.89243 0.0
H305 H 0.6659 0.46557 0.91638 0.0
H306 H 0.66902 0.4421 0.93315 0.0
H307 H 0.64251 0.4461 0.93938 0.0
C308 C 0.6214 0.38808 0.97899 0.0
C309 C 0.59757 0.38284 0.98743 0.0
C310 C 0.62868 0.39463 0.95336 0.0
C311 C 0.61241 0.3963 0.9356 0.0
C312 C 0.58825 0.39013 0.94367 0.0
H313 H 0.65412 0.46827 0.78493 0.0
H314 H 0.64143 0.45778 0.83005 0.0
C315 C 0.58091 0.38351 0.96935 0.0
C316 C 0.62067 0.40451 0.90868 0.0
H317 H 0.6652 0.45197 0.87317 0.0
C318 C 0.60755 0.38851 0.88822 0.0
C319 C 0.64139 0.42792 0.90313 0.0
C320 C 0.65539 0.44653 0.92413 0.0
C321 C 0.61496 0.395 0.86245 0.0
C322 C 0.63632 0.41796 0.85698 0.0
C323 C 0.64904 0.43425 0.87738 0.0
C324 C 0.64569 0.42533 0.83018 0.0
C325 C 0.59963 0.37729 0.84127 0.0
C326 C 0.65317 0.41111 0.81553 0.0
C327 C 0.66045 0.41706 0.78981 0.0
C328 C 0.66059 0.43749 0.77816 0.0
C329 C 0.65423 0.45242 0.79325 0.0
C330 C 0.6469 0.4464 0.81904 0.0
H331 H 0.58051 0.36399 0.84795 0.0
H332 H 0.5982 0.38732 0.82429 0.0
H333 H 0.60873 0.36658 0.83502 0.0
H334 H 0.65299 0.39512 0.82389 0.0
H335 H 0.66538 0.40523 0.77887 0.0
H336 H 0.14834 0.49988 0.28018 0.0
H337 H 0.15055 0.51505 0.23639 0.0
H338 H 0.22752 0.56991 0.24847 0.0
H339 H 0.22557 0.55469 0.29242 0.0
H340 H 0.16161 0.56369 0.22526 0.0
H341 H 0.22833 0.54067 0.17704 0.0
H342 H 0.21264 0.52621 0.2067 0.0
H343 H 0.23834 0.55719 0.20714 0.0
C344 C 0.16591 0.51489 0.27344 0.0
C345 C 0.18677 0.52607 0.28989 0.0
C346 C 0.16711 0.52359 0.24839 0.0
C347 C 0.1892 0.54357 0.2391 0.0
C348 C 0.21037 0.55425 0.25508 0.0
H349 H 0.20973 0.6129 0.0858 0.0
H350 H 0.21736 0.60661 0.13102 0.0
C351 C 0.2092 0.54552 0.28023 0.0
C352 C 0.18925 0.55409 0.2134 0.0
H353 H 0.21274 0.56177 0.15226 0.0
C354 C 0.17292 0.5634 0.20935 0.0
C355 C 0.20423 0.554 0.19273 0.0
C356 C 0.22179 0.54385 0.19591 0.0
C357 C 0.17065 0.572 0.18508 0.0
C358 C 0.18481 0.57093 0.16412 0.0
C359 C 0.20191 0.56258 0.16836 0.0
C360 C 0.18022 0.57602 0.13729 0.0
C361 C 0.15289 0.58193 0.182 0.0
C362 C 0.15688 0.56097 0.12589 0.0
C363 C 0.15252 0.56446 0.10025 0.0
C364 C 0.17143 0.58309 0.08531 0.0
C365 C 0.19473 0.59853 0.09685 0.0
C366 C 0.19915 0.59488 0.12261 0.0
H367 H 0.14941 0.58848 0.2007 0.0
H368 H 0.16017 0.59737 0.16801 0.0
H369 H 0.13475 0.567 0.17466 0.0
H370 H 0.14213 0.54606 0.13668 0.0
H371 H 0.13438 0.55219 0.092 0.0
H372 H 0.80803 0.38444 0.44364 0.0
H373 H 0.77649 0.3407 0.4396 0.0
H374 H 0.772 0.34993 0.35769 0.0
H375 H 0.80348 0.39311 0.36143 0.0
H376 H 0.72972 0.32661 0.4236 0.0
H377 H 0.76924 0.284 0.35922 0.0
H378 H 0.78846 0.31295 0.37567 0.0
H379 H 0.7733 0.31215 0.34567 0.0
C380 C 0.80074 0.37695 0.42471 0.0
C381 C 0.80807 0.39225 0.4029 0.0
C382 C 0.78279 0.35198 0.42242 0.0
C383 C 0.7722 0.34197 0.39828 0.0
C384 C 0.78037 0.35703 0.37639 0.0
H385 H 0.63922 0.24292 0.32603 0.0
H386 H 0.68246 0.27128 0.33845 0.0
C387 C 0.79818 0.38186 0.37864 0.0
C388 C 0.74998 0.31718 0.39618 0.0
H389 H 0.72386 0.26564 0.35808 0.0
C390 C 0.72857 0.31291 0.40984 0.0
C391 C 0.74854 0.29941 0.37815 0.0
C392 C 0.77124 0.30228 0.36407 0.0
C393 C 0.70534 0.29231 0.40448 0.0
C394 C 0.70363 0.27536 0.38524 0.0
C395 C 0.72527 0.27879 0.37269 0.0
C396 C 0.67916 0.25547 0.37631 0.0
C397 C 0.68255 0.28976 0.41819 0.0
C398 C 0.66343 0.23666 0.39314 0.0
C399 C 0.63872 0.22061 0.38621 0.0
C400 C 0.62943 0.22303 0.36225 0.0
C401 C 0.64578 0.24071 0.34467 0.0
C402 C 0.67049 0.25686 0.3517 0.0
H403 H 0.6866 0.30662 0.42932 0.0
H404 H 0.66743 0.28585 0.40416 0.0
H405 H 0.67558 0.2741 0.43186 0.0
H406 H 0.66995 0.23511 0.41206 0.0
H407 H 0.62665 0.20692 0.40003 0.0
H408 H 0.39842 0.7733 0.68321 0.0
H409 H 0.4174 0.74754 0.67413 0.0
H410 H 0.35284 0.68457 0.70603 0.0
H411 H 0.33417 0.71014 0.71579 0.0
H412 H 0.3965 0.68623 0.71964 0.0
H413 H 0.39291 0.69936 0.61373 0.0
H414 H 0.41091 0.72652 0.63302 0.0
H415 H 0.37763 0.70936 0.6366 0.0
C416 C 0.38845 0.75403 0.68859 0.0
C417 C 0.36465 0.74365 0.69991 0.0
C418 C 0.39927 0.73934 0.68326 0.0
C419 C 0.3863 0.71408 0.68894 0.0
C420 C 0.36314 0.70404 0.70142 0.0
H421 H 0.3519 0.57975 0.63043 0.0
H422 H 0.36319 0.62269 0.63732 0.0
C423 C 0.35244 0.71867 0.70692 0.0
C424 C 0.39556 0.69732 0.68064 0.0
H425 H 0.40124 0.66841 0.62709 0.0
C426 C 0.39811 0.6826 0.69943 0.0
C427 C 0.39763 0.69277 0.65422 0.0
C428 C 0.39451 0.70767 0.63313 0.0
C429 C 0.40047 0.66207 0.69255 0.0
C430 C 0.40114 0.65669 0.66607 0.0
C431 C 0.40076 0.67267 0.64732 0.0
C432 C 0.39759 0.63246 0.65757 0.0
C433 C 0.39999 0.64521 0.71368 0.0
C434 C 0.41383 0.62402 0.66546 0.0
C435 C 0.40715 0.59927 0.66195 0.0
C436 C 0.38439 0.5828 0.65002 0.0
C437 C 0.36945 0.59192 0.63985 0.0
C438 C 0.37594 0.61652 0.64373 0.0
H439 H 0.39521 0.64996 0.73276 0.0
H440 H 0.38621 0.62571 0.70918 0.0
H441 H 0.41865 0.64677 0.71533 0.0
H442 H 0.43098 0.63622 0.67552 0.0
H443 H 0.41923 0.5928 0.66962 0.0
H444 H 0.63888 0.47886 0.05695 0.0
H445 H 0.68404 0.5024 0.04988 0.0
H446 H 0.69114 0.44162 0.07979 0.0
H447 H 0.6467 0.41869 0.08787 0.0
H448 H 0.73139 0.48526 0.09167 0.0
H449 H 0.70873 0.48299 0.98709 0.0
H450 H 0.69986 0.49973 1.00901 0.0
H451 H 0.6845 0.46663 1.01044 0.0
C452 C 0.65022 0.47084 0.06264 0.0
C453 C 0.63915 0.44667 0.0724 0.0
C454 C 0.67599 0.48426 0.05842 0.0
C455 C 0.69087 0.4735 0.06358 0.0
C456 C 0.68007 0.45032 0.07551 0.0
H457 H 0.76288 0.41733 1.00066 0.0
H458 H 0.74196 0.44083 1.0094 0.0
C459 C 0.65453 0.4371 0.08 0.0
C460 C 0.71671 0.484 0.05377 0.0
H461 H 0.74605 0.48466 0.99773 0.0
C462 C 0.73507 0.48599 0.07113 0.0
C463 C 0.72156 0.48541 1.02693 0.0
C464 C 0.7027 0.48354 1.00717 0.0
C465 C 0.75623 0.48519 0.06247 0.0
C466 C 0.75947 0.48341 0.03563 0.0
C467 C 0.74324 0.48565 1.01827 0.0
C468 C 0.7744 0.47239 1.02579 0.0
C469 C 0.77311 0.48315 0.08222 0.0
C470 C 0.79999 0.48274 1.03094 0.0
C471 C 0.812 0.46899 1.02635 0.0
C472 C 0.79862 0.4449 1.01621 0.0
C473 C 0.77368 0.43568 1.00879 0.0
C474 C 0.7617 0.44922 1.01366 0.0
H475 H 0.76666 0.48288 0.1023 0.0
H476 H 0.77412 0.46604 0.07894 0.0
H477 H 0.7922 0.49913 0.08041 0.0
H478 H 0.81033 0.50087 0.03965 0.0
H479 H 0.83136 0.47674 1.03193 0.0
H480 H 0.35627 0.78303 0.3015 0.0
H481 H 0.33982 0.74632 0.32861 0.0
H482 H 0.30122 0.77437 0.3753 0.0
H483 H 0.31766 0.81123 0.34789 0.0
H484 H 0.34224 0.73959 0.38305 0.0
H485 H 0.24561 0.7078 0.34763 0.0
H486 H 0.2725 0.73249 0.33215 0.0
H487 H 0.26197 0.73772 0.36262 0.0
C488 C 0.34466 0.78153 0.31782 0.0
C489 C 0.33835 0.79989 0.32283 0.0
C490 C 0.33527 0.76061 0.33328 0.0
C491 C 0.31926 0.75764 0.35387 0.0
C492 C 0.31336 0.77626 0.35932 0.0
H493 H 0.22577 0.60705 0.40878 0.0
H494 H 0.24659 0.65205 0.4122 0.0
C495 C 0.32265 0.79718 0.34368 0.0
C496 C 0.30729 0.73398 0.36788 0.0
H497 H 0.25251 0.67969 0.37063 0.0
C498 C 0.3225 0.72667 0.38092 0.0
C499 C 0.28151 0.7172 0.36518 0.0
C500 C 0.26436 0.724 0.35105 0.0
C501 C 0.31288 0.70249 0.38997 0.0
C502 C 0.28756 0.68516 0.3853 0.0
C503 C 0.27195 0.69302 0.37412 0.0
C504 C 0.2777 0.65828 0.38789 0.0
C505 C 0.33012 0.69556 0.40361 0.0
C506 C 0.28854 0.64688 0.3735 0.0
C507 C 0.27671 0.62125 0.37145 0.0
C508 C 0.25366 0.60652 0.38355 0.0
C509 C 0.24347 0.6179 0.39912 0.0
C510 C 0.25536 0.6436 0.40117 0.0
H511 H 0.34486 0.71159 0.41436 0.0
H512 H 0.31983 0.68012 0.41727 0.0
H513 H 0.33951 0.68979 0.38909 0.0
H514 H 0.30542 0.65782 0.36253 0.0
H515 H 0.28508 0.61308 0.35936 0.0
H516 H 0.60884 0.3772 0.6751 0.0
H517 H 0.59169 0.3329 0.68062 0.0
H518 H 0.66558 0.34198 0.67568 0.0
H519 H 0.68304 0.38654 0.67016 0.0
H520 H 0.59706 0.29196 0.65434 0.0
H521 H 0.63938 0.32131 0.75229 0.0
H522 H 0.63532 0.34202 0.73122 0.0
H523 H 0.65925 0.33432 0.72465 0.0
C524 C 0.62142 0.36973 0.67452 0.0
C525 C 0.64733 0.38537 0.67277 0.0
C526 C 0.61156 0.3444 0.67748 0.0
C527 C 0.62744 0.33436 0.67883 0.0
C528 C 0.6531 0.34954 0.67475 0.0
H529 H 0.58176 0.20091 0.76773 0.0
H530 H 0.60699 0.23566 0.73945 0.0
C531 C 0.66301 0.37495 0.67164 0.0
C532 C 0.6175 0.30922 0.68906 0.0
H533 H 0.61191 0.27947 0.74571 0.0
C534 C 0.60058 0.28903 0.67416 0.0
C535 C 0.62222 0.30565 0.71491 0.0
C536 C 0.63991 0.3269 0.73187 0.0
C537 C 0.58764 0.26528 0.68478 0.0
C538 C 0.5913 0.26199 0.7111 0.0
C539 C 0.60911 0.28204 0.72555 0.0
C540 C 0.57566 0.23858 0.72486 0.0
C541 C 0.57013 0.24401 0.66784 0.0
C542 C 0.5497 0.2287 0.72615 0.0
C543 C 0.53528 0.20851 0.74198 0.0
C544 C 0.54662 0.19799 0.75682 0.0
C545 C 0.57254 0.208 0.75566 0.0
C546 C 0.58694 0.22798 0.73968 0.0
H547 H 0.575 0.24802 0.64713 0.0
H548 H 0.57049 0.22693 0.67303 0.0
H549 H 0.55083 0.24064 0.67041 0.0
H550 H 0.54067 0.23713 0.71569 0.0
H551 H 0.5153 0.20124 0.74277 0.0
H552 H 0.20388 0.54652 0.92965 0.0
H553 H 0.22477 0.52171 0.92971 0.0
H554 H 0.21845 0.51649 1.01269 0.0
H555 H 0.19694 0.54003 1.01265 0.0
H556 H 0.26766 0.5374 0.94895 0.0
H557 H 0.20983 0.45071 0.99915 0.0
H558 H 0.19661 0.46861 0.98614 0.0
H559 H 0.20916 0.47417 1.01855 0.0
C560 C 0.20634 0.53943 0.94779 0.0
C561 C 0.19908 0.54555 0.97117 0.0
C562 C 0.21816 0.52514 0.94779 0.0
C563 C 0.22289 0.51679 0.97115 0.0
C564 C 0.21434 0.52183 0.99428 0.0
H565 H 0.33301 0.54145 0.05888 0.0
H566 H 0.29239 0.52239 0.03774 0.0
C567 C 0.20238 0.53579 0.99427 0.0
C568 C 0.24097 0.50762 0.97252 0.0
H569 H 0.25543 0.47312 1.01247 0.0
C570 C 0.2647 0.52256 0.96187 0.0
C571 C 0.23718 0.48798 0.98897 0.0
C572 C 0.21166 0.46935 0.99853 0.0
C573 C 0.28535 0.5208 0.97027 0.0
C574 C 0.28206 0.50366 0.98978 0.0
C575 C 0.25792 0.48656 0.99787 0.0
C576 C 0.30348 0.5075 1.00576 0.0
C577 C 0.31093 0.53919 0.96043 0.0
C578 C 0.3226 0.50405 0.99555 0.0
C579 C 0.34592 0.51497 1.00763 0.0
C580 C 0.35032 0.52958 1.02992 0.0
C581 C 0.33027 0.53059 0.04157 0.0
C582 C 0.30699 0.51956 1.02958 0.0
H583 H 0.31021 0.55145 0.94535 0.0
H584 H 0.32272 0.55083 0.97661 0.0
H585 H 0.3201 0.52927 0.9521 0.0
H586 H 0.32013 0.49468 0.97722 0.0
H587 H 0.36097 0.5137 0.99827 0.0
H588 H 0.57506 0.10836 0.35848 0.0
H589 H 0.55974 0.0651 0.34722 0.0
H590 H 0.48631 0.05524 0.33404 0.0
H591 H 0.50135 0.09841 0.34561 0.0
H592 H 0.48648 0.01898 0.36487 0.0
H593 H 0.54175 0.03271 0.27561 0.0
H594 H 0.55974 0.04871 0.3036 0.0
H595 H 0.53807 0.05707 0.29025 0.0
C596 C 0.55567 0.09704 0.35304 0.0
C597 C 0.53941 0.10684 0.35291 0.0
C598 C 0.547 0.07236 0.34647 0.0
C599 C 0.52199 0.05709 0.33946 0.0
C600 C 0.50572 0.06679 0.33929 0.0
H601 H 0.44368 0.91478 0.26785 0.0
H602 H 0.46772 0.95874 0.27794 0.0
C603 C 0.51435 0.09145 0.3459 0.0
C604 C 0.51245 0.03071 0.33327 0.0
H605 H 0.51793 -0.00832 0.29066 0.0
C606 C 0.49338 0.01298 0.3487 0.0
C607 C 0.52143 0.02302 0.31205 0.0
C608 C 0.54123 0.04133 0.29425 0.0
C609 C 0.48289 0.98771 0.34339 0.0
C610 C 0.49207 0.97998 0.32236 0.0
C611 C 0.51121 -0.0023 0.30696 0.0
C612 C 0.48062 0.95364 0.31498 0.0
C613 C 0.46152 0.96955 0.35984 0.0
C614 C 0.48078 0.93629 0.33203 0.0
C615 C 0.46696 0.91108 0.32637 0.0
C616 C 0.45287 0.90289 0.30351 0.0
C617 C 0.45416 0.92045 0.28572 0.0
C618 C 0.46793 0.9456 0.29142 0.0
H619 H 0.45328 0.97872 0.37156 0.0
H620 H 0.4466 0.95509 0.34768 0.0
H621 H 0.46837 0.96037 0.37324 0.0
H622 H 0.49088 0.9422 0.3501 0.0
H623 H 0.46652 0.89804 0.34039 0.0
H624 H 0.42267 0.47554 0.72608 0.0
H625 H 0.46222 0.47565 0.72179 0.0
H626 H 0.46884 0.5006 0.64321 0.0
H627 H 0.42904 0.50002 0.6471 0.0
H628 H 0.48214 0.46506 0.64844 0.0
H629 H 0.52971 0.53826 0.72223 0.0
H630 H 0.50199 0.51213 0.7342 0.0
H631 H 0.49971 0.53062 0.70891 0.0
C632 C 0.43243 0.48086 0.70781 0.0
C633 C 0.42282 0.48799 0.68701 0.0
C634 C 0.45512 0.48111 0.70547 0.0
C635 C 0.46875 0.48876 0.68241 0.0
C636 C 0.45872 0.49487 0.66126 0.0
H637 H 0.62588 0.52715 0.67662 0.0
H638 H 0.58722 0.52905 0.67258 0.0
C639 C 0.43595 0.49449 0.66352 0.0
C640 C 0.49354 0.49054 0.68042 0.0
H641 H 0.55101 0.51689 0.70869 0.0
C642 C 0.49727 0.47653 0.66147 0.0
C643 C 0.51344 0.50598 0.69704 0.0
C644 C 0.51115 0.52281 0.71656 0.0
C645 C 0.52009 0.47679 0.65937 0.0
C646 C 0.53945 0.49103 0.67705 0.0
C647 C 0.53605 0.50579 0.69532 0.0
C648 C 0.56285 0.48985 0.6779 0.0
C649 C 0.52323 0.46183 0.63821 0.0
C650 C 0.56192 0.46726 0.68242 0.0
C651 C 0.58385 0.4661 0.68463 0.0
C652 C 0.60724 0.4876 0.68269 0.0
C653 C 0.60817 0.51026 0.67816 0.0
C654 C 0.58613 0.51138 0.67584 0.0
H655 H 0.5105 0.45884 0.62174 0.0
H656 H 0.5427 0.47096 0.63096 0.0
H657 H 0.51859 0.44345 0.64587 0.0
H658 H 0.5442 0.45053 0.68477 0.0
H659 H 0.58241 0.44834 0.68828 0.0
H660 H 0.90128 0.42255 0.05912 0.0
H661 H 0.94517 0.44883 0.0481 0.0
H662 H 0.92616 0.44089 0.96726 0.0
H663 H 0.88208 0.41467 0.97806 0.0
H664 H 0.97647 0.43868 1.01564 0.0
H665 H 0.96492 0.51662 0.98021 0.0
H666 H 0.94159 0.49193 0.99947 0.0
H667 H 0.94473 0.487 0.96584 0.0
C668 C 0.9064 0.42626 0.03897 0.0
C669 C 0.88818 0.41666 1.01947 0.0
C670 C 0.93149 0.44127 1.03273 0.0
C671 C 0.93877 0.44705 1.00692 0.0
C672 C 0.92079 0.43693 0.98732 0.0
H673 H 0.09313 0.51821 0.95499 0.0
H674 H 0.04813 0.49097 0.95876 0.0
C675 C 0.89566 0.42185 0.99354 0.0
C676 C 0.96524 0.46389 1.00071 0.0
H677 H 0.00519 0.5211 0.97704 0.0
C678 C 0.98279 0.45665 1.00707 0.0
C679 C 0.97331 0.4874 0.98984 0.0
C680 C 0.95524 0.4964 0.98359 0.0
C681 C 0.00831 0.47237 1.00288 0.0
C682 C 0.01637 0.49577 0.99173 0.0
C683 C -0.00117 0.50303 0.98536 0.0
C684 C 0.04309 0.51333 0.98761 0.0
C685 C 0.02653 0.4641 1.01104 0.0
C686 C 0.05489 0.53535 1.00188 0.0
C687 C 0.08058 0.55102 0.99973 0.0
C688 C 0.09484 0.54491 0.98318 0.0
C689 C 0.08272 0.52336 0.96805 0.0
C690 C 0.05704 0.50772 0.97023 0.0
H691 H 0.01781 0.44793 1.02411 0.0
H692 H 0.03338 0.45879 0.99369 0.0
H693 H 0.04287 0.4793 1.02098 0.0
H694 H 0.04434 0.54 1.0153 0.0
H695 H 0.08934 0.56752 1.01158 0.0
H696 H 0.12266 0.52782 0.36086 0.0
H697 H 0.0816 0.52447 0.36094 0.0
H698 H 0.06432 0.48502 0.43294 0.0
H699 H 0.10581 0.48871 0.43333 0.0
H700 H 0.03561 0.48235 0.36076 0.0
H701 H 0.04714 0.53942 0.44794 0.0
H702 H 0.07317 0.53927 0.43212 0.0
H703 H 0.05295 0.51415 0.45267 0.0
C704 C 0.11022 0.51847 0.3768 0.0
C705 C 0.11757 0.5086 0.39717 0.0
C706 C 0.08673 0.51658 0.37679 0.0
C707 C 0.07006 0.50482 0.39711 0.0
C708 C 0.07713 0.49464 0.41735 0.0
H709 H 0.91819 0.47736 0.41869 0.0
H710 H 0.95871 0.47964 0.42405 0.0
C711 C 0.10076 0.49662 0.41745 0.0
C712 C 0.0451 0.5028 0.39647 0.0
H713 H 0.00769 0.52071 0.42753 0.0
C714 C 0.02949 0.49071 0.37538 0.0
C715 C 0.03716 0.51367 0.41562 0.0
C716 C 0.05351 0.52755 0.43828 0.0
C717 C 0.00618 0.48927 0.37282 0.0
C718 C -0.00154 0.50057 0.39166 0.0
C719 C 0.01378 0.5122 0.41307 0.0
C720 C 0.97457 0.50063 0.38926 0.0
C721 C 0.98992 0.47548 0.35005 0.0
C722 C 0.97038 0.51229 0.36829 0.0
C723 C 0.94726 0.511 0.36512 0.0
C724 C 0.92798 0.49814 0.38297 0.0
C725 C 0.93261 0.48733 0.40453 0.0
C726 C 0.95574 0.48861 0.40765 0.0
H727 H -0.00445 0.46267 0.34126 0.0
H728 H 0.97002 0.46475 0.35581 0.0
H729 H 0.99165 0.48891 0.33508 0.0
H730 H 0.9849 0.5221 0.35418 0.0
H731 H 0.94439 0.51969 0.34843 0.0
H732 H 0.47945 0.07128 0.74034 0.0
H733 H 0.45993 0.02726 0.73108 0.0
H734 H 0.53078 0.03003 0.74017 0.0
H735 H 0.55071 0.07443 0.74953 0.0
H736 H 0.47589 0.00574 0.68913 0.0
H737 H 0.47891 0.97179 0.78765 0.0
H738 H 0.48093 0.00137 0.78244 0.0
H739 H 0.50701 -0.00279 0.77491 0.0
C740 C 0.49095 0.0626 0.74055 0.0
C741 C 0.51666 0.07636 0.74567 0.0
C742 C 0.47973 0.03744 0.7352 0.0
C743 C 0.49392 0.0255 0.73506 0.0
C744 C 0.51954 0.03899 0.74042 0.0
H745 H 0.43236 0.87529 0.6732 0.0
H746 H 0.46132 0.9186 0.68356 0.0
C747 C 0.53086 0.06431 0.7457 0.0
C748 C 0.48166 -0.001 0.72852 0.0
H749 H 0.45885 0.94191 0.75511 0.0
C750 C 0.47241 -0.00826 0.70341 0.0
C751 C 0.4771 0.98095 0.74735 0.0
C752 C 0.48634 0.98803 0.77469 0.0
C753 C 0.4581 0.96674 0.69674 0.0
C754 C 0.45312 0.94866 0.71568 0.0
C755 C 0.46286 0.95592 0.74066 0.0
C756 C 0.43636 0.9222 0.71034 0.0
C757 C 0.44752 0.95985 0.66981 0.0
C758 C 0.41298 0.9099 0.72235 0.0
C759 C 0.39639 0.88523 0.71647 0.0
C760 C 0.40299 0.87241 0.69857 0.0
C761 C 0.42667 0.88469 0.68697 0.0
C762 C 0.44323 0.90941 0.69282 0.0
H763 H 0.44974 0.97607 0.6588 0.0
H764 H 0.45731 0.95164 0.65918 0.0
H765 H 0.4274 0.94586 0.67049 0.0
H766 H 0.40741 0.91954 0.73594 0.0
H767 H 0.37836 0.87628 0.72585 0.0
H768 H 0.43205 0.53538 0.11189 0.0
H769 H 0.45087 0.50879 0.11265 0.0
H770 H 0.49254 0.54406 0.04392 0.0
H771 H 0.47432 0.571 0.04331 0.0
H772 H 0.44534 0.47571 0.07545 0.0
H773 H 0.54563 0.54272 0.08823 0.0
H774 H 0.52159 0.55069 0.09416 0.0
H775 H 0.53225 0.55068 0.0618 0.0
C776 C 0.4456 0.53781 0.09723 0.0
C777 C 0.4517 0.55532 0.07755 0.0
C778 C 0.45628 0.52257 0.09767 0.0
C779 C 0.47331 0.52463 0.07852 0.0
C780 C 0.47991 0.54252 0.05924 0.0
H781 H 0.53762 0.44074 1.01808 0.0
H782 H 0.52042 0.46805 1.02641 0.0
C783 C 0.46935 0.55784 0.05886 0.0
C784 C 0.48259 0.50678 0.07731 0.0
H785 H 0.53563 0.50269 0.072 0.0
C786 C 0.46508 0.48156 0.07509 0.0
C787 C 0.50834 0.51447 0.07685 0.0
C788 C 0.52802 0.5411 0.08066 0.0
C789 C 0.47267 0.46392 0.07141 0.0
C790 C 0.49838 0.47176 0.07003 0.0
C791 C 0.5159 0.49685 0.07289 0.0
C792 C 0.50751 0.45427 0.06482 0.0
C793 C 0.45324 0.43714 0.06814 0.0
C794 C 0.50572 0.43742 0.08368 0.0
C795 C 0.51559 0.42181 0.07904 0.0
C796 C 0.52737 0.42284 0.05544 0.0
C797 C 0.52862 0.43943 0.03642 0.0
C798 C 0.51889 0.4551 0.04115 0.0
H799 H 0.43414 0.43454 0.06619 0.0
H800 H 0.45743 0.42922 0.05084 0.0
H801 H 0.45361 0.42661 0.08518 0.0
H802 H 0.49714 0.4367 0.10214 0.0
H803 H 0.51437 0.40927 0.09409 0.0
H804 H 0.53466 0.23589 0.32472 0.0
H805 H 0.53394 0.26133 0.28914 0.0
H806 H 0.53139 0.20789 0.23428 0.0
H807 H 0.53172 0.18228 0.26955 0.0
H808 H 0.56916 0.28214 0.25059 0.0
H809 H 0.47648 0.22009 0.20752 0.0
H810 H 0.48515 0.21521 0.23931 0.0
H811 H 0.49559 0.20596 0.21113 0.0
C812 C 0.53356 0.22937 0.3051 0.0
C813 C 0.53319 0.20699 0.30004 0.0
C814 C 0.5332 0.24396 0.28477 0.0
C815 C 0.53227 0.23638 0.25901 0.0
C816 C 0.53154 0.21389 0.25396 0.0
H817 H 0.54799 0.30664 0.10929 0.0
H818 H 0.54269 0.278 0.1443 0.0
C819 C 0.5319 0.19932 0.27422 0.0
C820 C 0.53379 0.25271 0.23741 0.0
H821 H 0.50408 0.2552 0.18273 0.0
C822 C 0.55483 0.27631 0.23587 0.0
C823 C 0.51519 0.24502 0.21805 0.0
C824 C 0.49171 0.22028 0.21913 0.0
C825 C 0.55797 0.29226 0.21539 0.0
C826 C 0.53937 0.28461 0.19607 0.0
C827 C 0.51834 0.261 0.19751 0.0
C828 C 0.54123 0.30122 0.17464 0.0
C829 C 0.58145 0.31703 0.21431 0.0
C830 C 0.54154 0.32345 0.18002 0.0
C831 C 0.54455 0.33977 0.16016 0.0
C832 C 0.5472 0.33421 0.13439 0.0
C833 C 0.54609 0.31154 0.12891 0.0
C834 C 0.54305 0.29515 0.14888 0.0
H835 H 0.59649 0.3175 0.22651 0.0
H836 H 0.58838 0.32173 0.1942 0.0
H837 H 0.57738 0.33146 0.22154 0.0
H838 H 0.53968 0.32829 0.19968 0.0
H839 H 0.54511 0.35694 0.16513 0.0
H840 H 0.27215 0.51837 0.41373 0.0
H841 H 0.28549 0.50711 0.45328 0.0
H842 H 0.20949 0.46877 0.48015 0.0
H843 H 0.19584 0.47994 0.4405 0.0
H844 H 0.27665 0.52203 0.50324 0.0
H845 H 0.2372 0.42043 0.49468 0.0
H846 H 0.24236 0.43986 0.46696 0.0
H847 H 0.21655 0.43245 0.48805 0.0
C848 C 0.25814 0.50716 0.42778 0.0
C849 C 0.23292 0.50016 0.42395 0.0
C850 C 0.26584 0.50077 0.45042 0.0
C851 C 0.24849 0.48706 0.4696 0.0
C852 C 0.22314 0.47911 0.46544 0.0
H853 H 0.2945 0.48891 0.62982 0.0
H854 H 0.26987 0.48718 0.59201 0.0
C855 C 0.2154 0.48557 0.44278 0.0
C856 C 0.2574 0.48314 0.49477 0.0
H857 H 0.25828 0.43931 0.53347 0.0
C858 C 0.27252 0.50393 0.50995 0.0
C859 C 0.25201 0.45952 0.50336 0.0
C860 C 0.23627 0.43671 0.48743 0.0
C861 C 0.28269 0.50182 0.53336 0.0
C862 C 0.27737 0.47821 0.54199 0.0
C863 C 0.26208 0.45734 0.52692 0.0
C864 C 0.28917 0.47532 0.56567 0.0
C865 C 0.29973 0.52498 0.54828 0.0
C866 C 0.30736 0.46811 0.5636 0.0
C867 C 0.32143 0.46903 0.58514 0.0
C868 C 0.3175 0.4771 0.60921 0.0
C869 C 0.29809 0.48271 0.61158 0.0
C870 C 0.28406 0.48184 0.58997 0.0
H871 H 0.30558 0.54189 0.53665 0.0
H872 H 0.28984 0.52619 0.56565 0.0
H873 H 0.31668 0.52458 0.5548 0.0
H874 H 0.31154 0.46296 0.54503 0.0
H875 H 0.33611 0.46443 0.58265 0.0
H876 H 0.74359 0.30234 0.98818 0.0
H877 H 0.71361 0.26973 0.95962 0.0
H878 H 0.75571 0.3107 0.89333 0.0
H879 H 0.78582 0.34311 0.92159 0.0
H880 H 0.68467 0.27526 0.92209 0.0
H881 H 0.74441 0.24177 0.87765 0.0
H882 H 0.75331 0.26048 0.90656 0.0
H883 H 0.75715 0.27455 0.87544 0.0
C884 C 0.74665 0.30425 0.96754 0.0
C885 C 0.76714 0.32534 0.9572 0.0
C886 C 0.72948 0.28561 0.95124 0.0
C887 C 0.7326 0.2876 0.92434 0.0
C888 C 0.7532 0.30847 0.91402 0.0
H889 H 0.64349 0.21024 0.79035 0.0
H890 H 0.67641 0.23771 0.82028 0.0
C891 C 0.77033 0.3271 0.93025 0.0
C892 C 0.71346 0.26876 0.90696 0.0
H893 H 0.70501 0.22879 0.85756 0.0
C894 C 0.68905 0.26491 0.90817 0.0
C895 C 0.71925 0.25541 0.88865 0.0
C896 C 0.7449 0.25805 0.88709 0.0
C897 C 0.67042 0.24853 0.89119 0.0
C898 C 0.67623 0.23526 0.8728 0.0
C899 C 0.7006 0.23898 0.87166 0.0
C900 C 0.65719 0.21757 0.85453 0.0
C901 C 0.64485 0.24612 0.89261 0.0
C902 C 0.63583 0.19675 0.86379 0.0
C903 C 0.61701 0.18107 0.84678 0.0
C904 C 0.61923 0.18579 0.82011 0.0
C905 C 0.64116 0.20609 0.81076 0.0
C906 C 0.65998 0.22181 0.82784 0.0
H907 H 0.64517 0.26186 0.90312 0.0
H908 H 0.63712 0.24502 0.873 0.0
H909 H 0.63208 0.22895 0.90304 0.0
H910 H 0.63352 0.19283 0.88426 0.0
H911 H 0.60049 0.1655 0.85465 0.0
H912 H 0.38676 0.61592 0.14085 0.0
H913 H 0.3894 0.64782 0.17034 0.0
H914 H 0.44067 0.70413 0.11875 0.0
H915 H 0.43789 0.67228 0.08886 0.0
H916 H 0.43072 0.68519 0.19551 0.0
H917 H 0.38739 0.72408 0.13049 0.0
H918 H 0.38574 0.69478 0.12433 0.0
H919 H 0.41371 0.72306 0.11701 0.0
C920 C 0.39857 0.63508 0.13568 0.0
C921 C 0.41201 0.64152 0.11237 0.0
C922 C 0.40007 0.6533 0.15262 0.0
C923 C 0.41495 0.67836 0.14661 0.0
C924 C 0.42868 0.68491 0.12355 0.0
H925 H 0.44294 0.81332 0.22546 0.0
H926 H 0.4437 0.78273 0.19631 0.0
C927 C 0.42717 0.66667 0.10654 0.0
C928 C 0.41621 0.69753 0.1647 0.0
H929 H 0.40381 0.74511 0.16996 0.0
C930 C 0.42481 0.69828 0.18995 0.0
C931 C 0.40848 0.71459 0.15741 0.0
C932 C 0.3981 0.71405 0.13092 0.0
C933 C 0.42616 0.7158 0.20802 0.0
C934 C 0.4183 0.73277 0.20078 0.0
C935 C 0.40986 0.73212 0.17548 0.0
C936 C 0.41848 0.75125 0.21915 0.0
C937 C 0.43642 0.71627 0.23457 0.0
C938 C 0.40396 0.74373 0.24168 0.0
C939 C 0.40351 0.76119 0.25845 0.0
C940 C 0.41745 0.78653 0.25292 0.0
C941 C 0.43201 0.79398 0.23036 0.0
C942 C 0.43245 0.77651 0.21363 0.0
H943 H 0.44769 0.70681 0.23484 0.0
H944 H 0.44818 0.7355 0.24157 0.0
H945 H 0.4207 0.70657 0.24823 0.0
H946 H 0.39262 0.72431 0.24608 0.0
H947 H 0.39196 0.75479 0.27554 0.0
H948 H 0.7331 0.48948 0.65042 0.0
H949 H 0.76083 0.49613 0.6137 0.0
H950 H 0.70624 0.49674 0.56221 0.0
H951 H 0.67873 0.49049 0.59861 0.0
H952 H 0.74891 0.4634 0.57403 0.0
H953 H 0.77005 0.554 0.53478 0.0
H954 H 0.75771 0.5442 0.56685 0.0
H955 H 0.73721 0.5341 0.53932 0.0
C956 C 0.7273 0.49168 0.63136 0.0
C957 C 0.70367 0.48938 0.62745 0.0
C958 C 0.74313 0.49541 0.61038 0.0
C959 C 0.73575 0.4972 0.5852 0.0
C960 C 0.71262 0.49597 0.58147 0.0
H961 H 0.76254 0.44756 0.44165 0.0
H962 H 0.74721 0.45558 0.48193 0.0
C963 C 0.6968 0.49218 0.60234 0.0
C964 C 0.75062 0.49738 0.56252 0.0
H965 H 0.77494 0.5265 0.50531 0.0
C966 C 0.75497 0.47744 0.55923 0.0
C967 C 0.75874 0.51577 0.54325 0.0
C968 C 0.75592 0.53835 0.54633 0.0
C969 C 0.76603 0.47474 0.53667 0.0
C970 C 0.77262 0.49225 0.51669 0.0
C971 C 0.76952 0.51289 0.52049 0.0
C972 C 0.78167 0.48867 0.49136 0.0
C973 C 0.77025 0.45292 0.53426 0.0
C974 C 0.80586 0.50517 0.48277 0.0
C975 C 0.81473 0.50069 0.45959 0.0
C976 C 0.79945 0.47969 0.44456 0.0
C977 C 0.77489 0.46381 0.45278 0.0
C978 C 0.7661 0.46828 0.47589 0.0
H979 H 0.77065 0.44524 0.55345 0.0
H980 H 0.75479 0.43816 0.52292 0.0
H981 H 0.78802 0.45809 0.52411 0.0
H982 H 0.8181 0.52113 0.49435 0.0
H983 H 0.83371 0.51332 0.4538 0.0
H984 H 0.22842 0.66861 0.95754 0.0
H985 H 0.25011 0.69853 0.92311 0.0
H986 H 0.18818 0.65668 0.87179 0.0
H987 H 0.16629 0.62707 0.90601 0.0
H988 H 0.26469 0.68944 0.8762 0.0
H989 H 0.19996 0.72598 0.86115 0.0
H990 H 0.19854 0.70839 0.8893 0.0
H991 H 0.18482 0.69296 0.85934 0.0
C992 C 0.21929 0.66597 0.93902 0.0
C993 C 0.19558 0.64547 0.93459 0.0
C994 C 0.23172 0.68306 0.91936 0.0
C995 C 0.22061 0.68008 0.89497 0.0
C996 C 0.19689 0.65974 0.8906 0.0
H997 H 0.27012 0.74635 0.74376 0.0
H998 H 0.2462 0.72148 0.78078 0.0
C999 C 0.18446 0.6427 0.9102 0.0
C1000 C 0.23442 0.69724 0.87356 0.0
H1001 H 0.23062 0.73513 0.82842 0.0
C1002 C 0.25736 0.69962 0.86594 0.0
C1003 C 0.22476 0.71042 0.86004 0.0
C1004 C 0.20079 0.70953 0.86801 0.0
C1005 C 0.27062 0.71433 0.84485 0.0
C1006 C 0.26086 0.72732 0.8312 0.0
C1007 C 0.238 0.72508 0.83886 0.0
C1008 C 0.27436 0.74344 0.80906 0.0
C1009 C 0.2947 0.71539 0.83693 0.0
C1010 C 0.29775 0.76442 0.81281 0.0
C1011 C 0.3114 0.77864 0.79179 0.0
C1012 C 0.30191 0.77223 0.76654 0.0
C1013 C 0.27798 0.75178 0.76293 0.0
C1014 C 0.2643 0.73754 0.78405 0.0
H1015 H 0.2966 0.70004 0.84538 0.0
H1016 H 0.29598 0.71465 0.8156 0.0
H1017 H 0.31063 0.73303 0.84378 0.0
H1018 H 0.30566 0.76956 0.832 0.0
H1019 H 0.32967 0.79436 0.79534 0.0
loop_
_geom_bond_atom_site_label_1
_geom_bond_atom_site_label_2
_geom_bond_distance
_geom_bond_site_symmetry_2
_ccdc_geom_bond_type
Mg0 O7 2.141 . S
Mg0 O8 2.048 . S
Mg0 O9 2.048 . S
Mg0 O12 2.141 . S
C1 O2 1.313 . S
C1 O8 1.195 . S
O2 C1 1.313 . S
C3 O4 1.245 . S
C3 O12 1.289 . S
O4 C3 1.245 . S
C5 O6 1.245 . S
C5 O7 1.289 . S
O6 C5 1.245 . S
O7 Mg0 2.141 . S
O7 C5 1.289 . S
O8 Mg0 2.048 . S
O8 C1 1.195 . S
O9 Mg0 2.048 . S
O9 C10 1.195 . S
C10 O9 1.195 . S
C10 O11 1.313 . S
O11 C10 1.313 . S
O12 Mg0 2.141 . S
O12 C3 1.289 . S
Mg13 O20 2.141 . S
Mg13 O21 2.048 . S
Mg13 O22 2.048 . S
Mg13 O25 2.141 . S
C14 O15 1.313 . S
C14 O21 1.195 . S
O15 C14 1.313 . S
C16 O17 1.245 . S
C16 O25 1.289 . S
O17 C16 1.245 . S
C18 O19 1.245 . S
C18 O20 1.289 . S
O19 C18 1.245 . S
O20 Mg13 2.141 . S
O20 C18 1.289 . S
O21 Mg13 2.048 . S
O21 C14 1.195 . S
O22 Mg13 2.048 . S
O22 C23 1.195 . S
C23 O22 1.195 . S
C23 O24 1.313 . S
O24 C23 1.313 . S
O25 Mg13 2.141 . S
O25 C16 1.289 . S
Mg26 O33 2.164 . S
Mg26 O34 2.046 1_556 S
Mg26 O35 2.025 1_556 S
Mg26 O38 2.144 . S
C27 O28 1.309 1_554 S
C27 O34 1.197 . S
O28 C27 1.309 1_556 S
C29 O30 1.245 . S
C29 O38 1.289 . S
O30 C29 1.245 . S
C31 O32 1.245 . S
C31 O33 1.289 . S
O32 C31 1.245 . S
O33 Mg26 2.164 . S
O33 C31 1.289 . S
O34 Mg26 2.046 1_554 S
O34 C27 1.197 . S
O35 Mg26 2.025 1_554 S
O35 C36 1.195 . S
C36 O35 1.195 . S
C36 O37 1.313 . S
O37 C36 1.313 . S
O38 Mg26 2.144 . S
O38 C29 1.289 . S
Mg39 O46 2.141 . S
Mg39 O47 2.048 . S
Mg39 O48 2.048 . S
Mg39 O51 2.141 . S
C40 O41 1.313 . S
C40 O47 1.195 . S
O41 C40 1.313 . S
C42 O43 1.245 . S
C42 O51 1.289 . S
O43 C42 1.245 . S
C44 O45 1.245 . S
C44 O46 1.289 . S
O45 C44 1.245 . S
O46 Mg39 2.141 . S
O46 C44 1.289 . S
O47 Mg39 2.048 . S
O47 C40 1.195 . S
O48 Mg39 2.048 . S
O48 C49 1.195 . S
C49 O48 1.195 . S
C49 O50 1.313 . S
O50 C49 1.313 . S
O51 Mg39 2.141 . S
O51 C42 1.289 . S
Mg52 O59 2.141 . S
Mg52 O60 2.048 . S
Mg52 O61 2.048 . S
Mg52 O64 2.141 . S
C53 O54 1.313 . S
C53 O60 1.195 . S
O54 C53 1.313 . S
C55 O56 1.245 . S
C55 O64 1.289 . S
O56 C55 1.245 . S
C57 O58 1.245 . S
C57 O59 1.289 . S
O58 C57 1.245 . S
O59 Mg52 2.141 . S
O59 C57 1.289 . S
O60 Mg52 2.048 . S
O60 C53 1.195 . S
O61 Mg52 2.048 . S
O61 C62 1.195 . S
C62 O61 1.195 . S
C62 O63 1.313 . S
O63 C62 1.313 . S
O64 Mg52 2.141 . S
O64 C55 1.289 . S
Mg65 O72 2.164 . S
Mg65 O73 2.046 1_556 S
Mg65 O74 2.025 1_556 S
Mg65 O77 2.144 . S
C66 O67 1.309 1_554 S
C66 O73 1.197 . S
O67 C66 1.309 1_556 S
C68 O69 1.245 . S
C68 O77 1.289 . S
O69 C68 1.245 . S
C70 O71 1.245 . S
C70 O72 1.289 . S
O71 C70 1.245 . S
O72 Mg65 2.164 . S
O72 C70 1.289 . S
O73 Mg65 2.046 1_554 S
O73 C66 1.197 . S
O74 Mg65 2.025 1_554 S
O74 C75 1.195 . S
C75 O74 1.195 . S
C75 O76 1.313 . S
O76 C75 1.313 . S
O77 Mg65 2.144 . S
O77 C68 1.289 . S
Mg78 O85 2.141 . S
Mg78 O86 2.048 . S
Mg78 O87 2.048 . S
Mg78 O90 2.141 . S
C79 O80 1.313 . S
C79 O86 1.195 . S
O80 C79 1.313 . S
C81 O82 1.245 . S
C81 O90 1.289 . S
O82 C81 1.245 . S
C83 O84 1.245 . S
C83 O85 1.289 . S
O84 C83 1.245 . S
O85 Mg78 2.141 . S
O85 C83 1.289 . S
O86 Mg78 2.048 . S
O86 C79 1.195 . S
O87 Mg78 2.048 . S
O87 C88 1.195 . S
C88 O87 1.195 . S
C88 O89 1.313 . S
O89 C88 1.313 . S
O90 Mg78 2.141 . S
O90 C81 1.289 . S
Mg91 O98 2.141 . S
Mg91 O99 2.048 . S
Mg91 O100 2.048 . S
Mg91 O103 2.141 . S
C92 O93 1.313 . S
C92 O99 1.195 . S
O93 C92 1.313 . S
C94 O95 1.245 . S
C94 O103 1.289 . S
O95 C94 1.245 . S
C96 O97 1.245 . S
C96 O98 1.289 . S
O97 C96 1.245 . S
O98 Mg91 2.141 . S
O98 C96 1.289 . S
O99 Mg91 2.048 . S
O99 C92 1.195 . S
O100 Mg91 2.048 . S
O100 C101 1.195 . S
C101 O100 1.195 . S
C101 O102 1.313 . S
O102 C101 1.313 . S
O103 Mg91 2.141 . S
O103 C94 1.289 . S
Mg104 O111 2.141 1_556 S
Mg104 O112 2.048 . S
Mg104 O113 2.048 . S
Mg104 O116 2.140 1_556 S
C105 O106 1.313 . S
C105 O112 1.195 . S
O106 C105 1.313 . S
C107 O108 1.245 . S
C107 O116 1.292 . S
O108 C107 1.245 . S
C109 O110 1.245 . S
C109 O111 1.289 . S
O110 C109 1.245 . S
O111 Mg104 2.141 1_554 S
O111 C109 1.289 . S
O112 Mg104 2.048 . S
O112 C105 1.195 . S
O113 Mg104 2.048 . S
O113 C114 1.195 . S
C114 O113 1.195 . S
C114 O115 1.313 . S
O115 C114 1.313 . S
O116 Mg104 2.140 1_554 S
O116 C107 1.292 . S
Mg117 O124 2.141 . S
Mg117 O125 2.048 . S
Mg117 O126 2.048 . S
Mg117 O129 2.141 . S
C118 O119 1.313 . S
C118 O125 1.195 . S
O119 C118 1.313 . S
C120 O121 1.245 . S
C120 O129 1.289 . S
O121 C120 1.245 . S
C122 O123 1.245 . S
C122 O124 1.289 . S
O123 C122 1.245 . S
O124 Mg117 2.141 . S
O124 C122 1.289 . S
O125 Mg117 2.048 . S
O125 C118 1.195 . S
O126 Mg117 2.048 . S
O126 C127 1.195 . S
C127 O126 1.195 . S
C127 O128 1.313 . S
O128 C127 1.313 . S
O129 Mg117 2.141 . S
O129 C120 1.289 . S
Mg130 O137 2.141 . S
Mg130 O138 2.048 . S
Mg130 O139 2.048 . S
Mg130 O142 2.141 . S
C131 O132 1.313 . S
C131 O138 1.195 . S
O132 C131 1.313 . S
C133 O134 1.245 . S
C133 O142 1.289 . S
O134 C133 1.245 . S
C135 O136 1.245 . S
C135 O137 1.289 . S
O136 C135 1.245 . S
O137 Mg130 2.141 . S
O137 C135 1.289 . S
O138 Mg130 2.048 . S
O138 C131 1.195 . S
O139 Mg130 2.048 . S
O139 C140 1.195 . S
C140 O139 1.195 . S
C140 O141 1.313 . S
O141 C140 1.313 . S
O142 Mg130 2.141 . S
O142 C133 1.289 . S
Mg143 O150 2.141 1_556 S
Mg143 O151 2.048 . S
Mg143 O152 2.048 . S
Mg143 O155 2.140 1_556 S
C144 O145 1.313 . S
C144 O151 1.195 . S
O145 C144 1.313 . S
C146 O147 1.245 . S
C146 O155 1.292 . S
O147 C146 1.245 . S
C148 O149 1.245 . S
C148 O150 1.289 . S
O149 C148 1.245 . S
O150 Mg143 2.141 1_554 S
O150 C148 1.289 . S
O151 Mg143 2.048 . S
O151 C144 1.195 . S
O152 Mg143 2.048 . S
O152 C153 1.195 . S
C153 O152 1.195 . S
C153 O154 1.313 . S
O154 C153 1.313 . S
O155 Mg143 2.140 1_554 S
O155 C146 1.292 . S
H156 C164 0.929 . S
H157 C166 0.930 . S
H158 C168 0.930 . S
H159 C171 0.929 . S
H160 C174 0.930 . S
H161 C176 0.960 . S
H162 C176 0.960 . S
H163 C176 0.960 . S
C164 H156 0.929 . S
C164 C165 1.377 . S
C164 C166 1.384 . S
C165 C164 1.377 . S
C165 C171 1.390 . S
C166 H157 0.930 . S
C166 C164 1.384 . S
C166 C167 1.372 . S
C167 C166 1.372 . S
C167 C168 1.400 . S
C167 C172 1.490 . S
C168 H158 0.930 . S
C168 C167 1.400 . S
C168 C171 1.386 . S
H169 C185 0.930 . S
H170 C186 0.931 . S
C171 H159 0.929 . S
C171 C165 1.390 . S
C171 C168 1.386 . S
C172 C167 1.490 . S
C172 C174 1.395 . S
C172 C175 1.403 . S
H173 C179 0.930 . S
C174 H160 0.930 . S
C174 C172 1.395 . S
C174 C177 1.403 . S
C175 C172 1.403 . S
C175 C176 1.524 . S
C175 C179 1.400 . S
C176 H161 0.960 . S
C176 H162 0.960 . S
C176 H163 0.960 . S
C176 C175 1.524 . S
C177 C174 1.403 . S
C177 C178 1.392 . S
C177 C181 1.495 . S
C178 C177 1.392 . S
C178 C179 1.385 . S
C178 C180 1.478 . S
C179 H173 0.930 . S
C179 C175 1.400 . S
C179 C178 1.385 . S
C180 C178 1.478 . S
C180 C182 1.381 . S
C180 C186 1.383 . S
C181 C177 1.495 . S
C181 H187 0.959 . S
C181 H188 0.961 . S
C181 H189 0.960 . S
C182 C180 1.381 . S
C182 C183 1.394 . S
C182 H190 0.930 . S
C183 C182 1.394 . S
C183 C184 1.383 . S
C183 H191 0.929 . S
C184 C183 1.383 . S
C184 C185 1.377 . S
C185 H169 0.930 . S
C185 C184 1.377 . S
C185 C186 1.379 . S
C186 H170 0.931 . S
C186 C180 1.383 . S
C186 C185 1.379 . S
H187 C181 0.959 . S
H188 C181 0.961 . S
H189 C181 0.960 . S
H190 C182 0.930 . S
H191 C183 0.929 . S
H192 C200 0.929 . S
H193 C202 0.930 . S
H194 C204 0.930 . S
H195 C207 0.929 . S
H196 C210 0.930 . S
H197 C212 0.960 . S
H198 C212 0.960 . S
H199 C212 0.960 . S
C200 H192 0.929 . S
C200 C201 1.377 . S
C200 C202 1.384 . S
C201 C200 1.377 . S
C201 C207 1.390 . S
C202 H193 0.930 . S
C202 C200 1.384 . S
C202 C203 1.372 . S
C203 C202 1.372 . S
C203 C204 1.400 . S
C203 C208 1.490 . S
C204 H194 0.930 . S
C204 C203 1.400 . S
C204 C207 1.386 . S
H205 C221 0.930 . S
H206 C222 0.931 . S
C207 H195 0.929 . S
C207 C201 1.390 . S
C207 C204 1.386 . S
C208 C203 1.490 . S
C208 C210 1.395 . S
C208 C211 1.403 . S
H209 C215 0.930 . S
C210 H196 0.930 . S
C210 C208 1.395 . S
C210 C213 1.403 . S
C211 C208 1.403 . S
C211 C212 1.524 . S
C211 C215 1.400 . S
C212 H197 0.960 . S
C212 H198 0.960 . S
C212 H199 0.960 . S
C212 C211 1.524 . S
C213 C210 1.403 . S
C213 C214 1.392 . S
C213 C217 1.495 . S
C214 C213 1.392 . S
C214 C215 1.385 . S
C214 C216 1.478 . S
C215 H209 0.930 . S
C215 C211 1.400 . S
C215 C214 1.385 . S
C216 C214 1.478 . S
C216 C218 1.381 . S
C216 C222 1.383 . S
C217 C213 1.495 . S
C217 H223 0.959 . S
C217 H224 0.961 . S
C217 H225 0.960 . S
C218 C216 1.381 . S
C218 C219 1.394 . S
C218 H226 0.930 . S
C219 C218 1.394 . S
C219 C220 1.383 . S
C219 H227 0.929 . S
C220 C219 1.383 . S
C220 C221 1.377 . S
C221 H205 0.930 . S
C221 C220 1.377 . S
C221 C222 1.379 . S
C222 H206 0.931 . S
C222 C216 1.383 . S
C222 C221 1.379 . S
H223 C217 0.959 . S
H224 C217 0.961 . S
H225 C217 0.960 . S
H226 C218 0.930 . S
H227 C219 0.929 . S
H228 C236 0.929 . S
H229 C238 0.930 . S
H230 C240 0.930 . S
H231 C243 0.929 . S
H232 C246 0.930 . S
H233 C248 0.960 . S
H234 C248 0.960 . S
H235 C248 0.960 . S
C236 H228 0.929 . S
C236 C237 1.377 . S
C236 C238 1.384 . S
C237 C236 1.377 . S
C237 C243 1.390 . S
C238 H229 0.930 . S
C238 C236 1.384 . S
C238 C239 1.372 . S
C239 C238 1.372 . S
C239 C240 1.400 . S
C239 C244 1.490 . S
C240 H230 0.930 . S
C240 C239 1.400 . S
C240 C243 1.386 . S
H241 C257 0.930 . S
H242 C258 0.931 . S
C243 H231 0.929 . S
C243 C237 1.390 . S
C243 C240 1.386 . S
C244 C239 1.490 . S
C244 C246 1.395 . S
C244 C247 1.403 . S
H245 C251 0.930 . S
C246 H232 0.930 . S
C246 C244 1.395 . S
C246 C249 1.403 . S
C247 C244 1.403 . S
C247 C248 1.524 . S
C247 C251 1.400 . S
C248 H233 0.960 . S
C248 H234 0.960 . S
C248 H235 0.960 . S
C248 C247 1.524 . S
C249 C246 1.403 . S
C249 C250 1.392 . S
C249 C253 1.495 . S
C250 C249 1.392 . S
C250 C251 1.385 . S
C250 C252 1.478 . S
C251 H245 0.930 . S
C251 C247 1.400 . S
C251 C250 1.385 . S
C252 C250 1.478 . S
C252 C254 1.381 . S
C252 C258 1.383 . S
C253 C249 1.495 . S
C253 H259 0.959 . S
C253 H260 0.961 . S
C253 H261 0.960 . S
C254 C252 1.381 . S
C254 C255 1.394 . S
C254 H262 0.930 . S
C255 C254 1.394 . S
C255 C256 1.383 . S
C255 H263 0.929 . S
C256 C255 1.383 . S
C256 C257 1.377 . S
C257 H241 0.930 . S
C257 C256 1.377 . S
C257 C258 1.379 . S
C258 H242 0.931 . S
C258 C252 1.383 . S
C258 C257 1.379 . S
H259 C253 0.959 . S
H260 C253 0.961 . S
H261 C253 0.960 . S
H262 C254 0.930 . S
H263 C255 0.929 . S
H264 C272 0.929 . S
H265 C274 0.930 . S
H266 C276 0.930 . S
H267 C279 0.929 . S
H268 C282 0.930 . S
H269 C284 0.960 . S
H270 C284 0.960 . S
H271 C284 0.960 . S
C272 H264 0.929 . S
C272 C273 1.377 . S
C272 C274 1.384 . S
C273 C272 1.377 . S
C273 C279 1.390 . S
C274 H265 0.930 . S
C274 C272 1.384 . S
C274 C275 1.372 . S
C275 C274 1.372 . S
C275 C276 1.400 . S
C275 C280 1.490 . S
C276 H266 0.930 . S
C276 C275 1.400 . S
C276 C279 1.386 . S
H277 C293 0.930 . S
H278 C294 0.931 . S
C279 H267 0.929 . S
C279 C273 1.390 . S
C279 C276 1.386 . S
C280 C275 1.490 . S
C280 C282 1.395 . S
C280 C283 1.403 . S
H281 C287 0.930 . S
C282 H268 0.930 . S
C282 C280 1.395 . S
C282 C285 1.403 . S
C283 C280 1.403 . S
C283 C284 1.524 . S
C283 C287 1.400 . S
C284 H269 0.960 . S
C284 H270 0.960 . S
C284 H271 0.960 . S
C284 C283 1.524 . S
C285 C282 1.403 . S
C285 C286 1.392 . S
C285 C289 1.495 . S
C286 C285 1.392 . S
C286 C287 1.385 . S
C286 C288 1.478 . S
C287 H281 0.930 . S
C287 C283 1.400 . S
C287 C286 1.385 . S
C288 C286 1.478 . S
C288 C290 1.381 . S
C288 C294 1.383 . S
C289 C285 1.495 . S
C289 H295 0.959 . S
C289 H296 0.961 . S
C289 H297 0.960 . S
C290 C288 1.381 . S
C290 C291 1.394 . S
C290 H298 0.930 . S
C291 C290 1.394 . S
C291 C292 1.383 . S
C291 H299 0.929 . S
C292 C291 1.383 . S
C292 C293 1.377 . S
C293 H277 0.930 . S
C293 C292 1.377 . S
C293 C294 1.379 . S
C294 H278 0.931 . S
C294 C288 1.383 . S
C294 C293 1.379 . S
H295 C289 0.959 . S
H296 C289 0.961 . S
H297 C289 0.960 . S
H298 C290 0.930 . S
H299 C291 0.929 . S
H300 C308 0.929 . S
H301 C310 0.930 . S
H302 C312 0.930 . S
H303 C315 0.929 . S
H304 C318 0.930 . S
H305 C320 0.960 . S
H306 C320 0.960 . S
H307 C320 0.960 . S
C308 H300 0.929 . S
C308 C309 1.377 . S
C308 C310 1.384 . S
C309 C308 1.377 . S
C309 C315 1.390 . S
C310 H301 0.930 . S
C310 C308 1.384 . S
C310 C311 1.372 . S
C311 C310 1.372 . S
C311 C312 1.400 . S
C311 C316 1.490 . S
C312 H302 0.930 . S
C312 C311 1.400 . S
C312 C315 1.386 . S
H313 C329 0.930 . S
H314 C330 0.931 . S
C315 H303 0.929 . S
C315 C309 1.390 . S
C315 C312 1.386 . S
C316 C311 1.490 . S
C316 C318 1.395 . S
C316 C319 1.403 . S
H317 C323 0.930 . S
C318 H304 0.930 . S
C318 C316 1.395 . S
C318 C321 1.403 . S
C319 C316 1.403 . S
C319 C320 1.524 . S
C319 C323 1.400 . S
C320 H305 0.960 . S
C320 H306 0.960 . S
C320 H307 0.960 . S
C320 C319 1.524 . S
C321 C318 1.403 . S
C321 C322 1.392 . S
C321 C325 1.495 . S
C322 C321 1.392 . S
C322 C323 1.385 . S
C322 C324 1.478 . S
C323 H317 0.930 . S
C323 C319 1.400 . S
C323 C322 1.385 . S
C324 C322 1.478 . S
C324 C326 1.381 . S
C324 C330 1.383 . S
C325 C321 1.495 . S
C325 H331 0.959 . S
C325 H332 0.961 . S
C325 H333 0.960 . S
C326 C324 1.381 . S
C326 C327 1.394 . S
C326 H334 0.930 . S
C327 C326 1.394 . S
C327 C328 1.383 . S
C327 H335 0.929 . S
C328 C327 1.383 . S
C328 C329 1.377 . S
C329 H313 0.930 . S
C329 C328 1.377 . S
C329 C330 1.379 . S
C330 H314 0.931 . S
C330 C324 1.383 . S
C330 C329 1.379 . S
H331 C325 0.959 . S
H332 C325 0.961 . S
H333 C325 0.960 . S
H334 C326 0.930 . S
H335 C327 0.929 . S
H336 C344 0.929 . S
H337 C346 0.930 . S
H338 C348 0.930 . S
H339 C351 0.929 . S
H340 C354 0.930 . S
H341 C356 0.960 . S
H342 C356 0.960 . S
H343 C356 0.960 . S
C344 H336 0.929 . S
C344 C345 1.377 . S
C344 C346 1.384 . S
C345 C344 1.377 . S
C345 C351 1.390 . S
C346 H337 0.930 . S
C346 C344 1.384 . S
C346 C347 1.372 . S
C347 C346 1.372 . S
C347 C348 1.400 . S
C347 C352 1.490 . S
C348 H338 0.930 . S
C348 C347 1.400 . S
C348 C351 1.386 . S
H349 C365 0.930 . S
H350 C366 0.931 . S
C351 H339 0.929 . S
C351 C345 1.390 . S
C351 C348 1.386 . S
C352 C347 1.490 . S
C352 C354 1.395 . S
C352 C355 1.403 . S
H353 C359 0.930 . S
C354 H340 0.930 . S
C354 C352 1.395 . S
C354 C357 1.403 . S
C355 C352 1.403 . S
C355 C356 1.524 . S
C355 C359 1.400 . S
C356 H341 0.960 . S
C356 H342 0.960 . S
C356 H343 0.960 . S
C356 C355 1.524 . S
C357 C354 1.403 . S
C357 C358 1.392 . S
C357 C361 1.495 . S
C358 C357 1.392 . S
C358 C359 1.385 . S
C358 C360 1.478 . S
C359 H353 0.930 . S
C359 C355 1.400 . S
C359 C358 1.385 . S
C360 C358 1.478 . S
C360 C362 1.381 . S
C360 C366 1.383 . S
C361 C357 1.495 . S
C361 H367 0.959 . S
C361 H368 0.961 . S
C361 H369 0.960 . S
C362 C360 1.381 . S
C362 C363 1.394 . S
C362 H370 0.930 . S
C363 C362 1.394 . S
C363 C364 1.383 . S
C363 H371 0.929 . S
C364 C363 1.383 . S
C364 C365 1.377 . S
C365 H349 0.930 . S
C365 C364 1.377 . S
C365 C366 1.379 . S
C366 H350 0.931 . S
C366 C360 1.383 . S
C366 C365 1.379 . S
H367 C361 0.959 . S
H368 C361 0.961 . S
H369 C361 0.960 . S
H370 C362 0.930 . S
H371 C363 0.929 . S
H372 C380 0.929 . S
H373 C382 0.930 . S
H374 C384 0.930 . S
H375 C387 0.929 . S
H376 C390 0.930 . S
H377 C392 0.960 . S
H378 C392 0.960 . S
H379 C392 0.960 . S
C380 H372 0.929 . S
C380 C381 1.377 . S
C380 C382 1.384 . S
C381 C380 1.377 . S
C381 C387 1.390 . S
C382 H373 0.930 . S
C382 C380 1.384 . S
C382 C383 1.372 . S
C383 C382 1.372 . S
C383 C384 1.400 . S
C383 C388 1.490 . S
C384 H374 0.930 . S
C384 C383 1.400 . S
C384 C387 1.386 . S
H385 C401 0.930 . S
H386 C402 0.931 . S
C387 H375 0.929 . S
C387 C381 1.390 . S
C387 C384 1.386 . S
C388 C383 1.490 . S
C388 C390 1.395 . S
C388 C391 1.403 . S
H389 C395 0.930 . S
C390 H376 0.930 . S
C390 C388 1.395 . S
C390 C393 1.403 . S
C391 C388 1.403 . S
C391 C392 1.524 . S
C391 C395 1.400 . S
C392 H377 0.960 . S
C392 H378 0.960 . S
C392 H379 0.960 . S
C392 C391 1.524 . S
C393 C390 1.403 . S
C393 C394 1.392 . S
C393 C397 1.495 . S
C394 C393 1.392 . S
C394 C395 1.385 . S
C394 C396 1.478 . S
C395 H389 0.930 . S
C395 C391 1.400 . S
C395 C394 1.385 . S
C396 C394 1.478 . S
C396 C398 1.381 . S
C396 C402 1.383 . S
C397 C393 1.495 . S
C397 H403 0.959 . S
C397 H404 0.961 . S
C397 H405 0.960 . S
C398 C396 1.381 . S
C398 C399 1.394 . S
C398 H406 0.930 . S
C399 C398 1.394 . S
C399 C400 1.383 . S
C399 H407 0.929 . S
C400 C399 1.383 . S
C400 C401 1.377 . S
C401 H385 0.930 . S
C401 C400 1.377 . S
C401 C402 1.379 . S
C402 H386 0.931 . S
C402 C396 1.383 . S
C402 C401 1.379 . S
H403 C397 0.959 . S
H404 C397 0.961 . S
H405 C397 0.960 . S
H406 C398 0.930 . S
H407 C399 0.929 . S
H408 C416 0.929 . S
H409 C418 0.930 . S
H410 C420 0.930 . S
H411 C423 0.929 . S
H412 C426 0.930 . S
H413 C428 0.960 . S
H414 C428 0.960 . S
H415 C428 0.960 . S
C416 H408 0.929 . S
C416 C417 1.377 . S
C416 C418 1.384 . S
C417 C416 1.377 . S
C417 C423 1.390 . S
C418 H409 0.930 . S
C418 C416 1.384 . S
C418 C419 1.372 . S
C419 C418 1.372 . S
C419 C420 1.400 . S
C419 C424 1.490 . S
C420 H410 0.930 . S
C420 C419 1.400 . S
C420 C423 1.386 . S
H421 C437 0.930 . S
H422 C438 0.931 . S
C423 H411 0.929 . S
C423 C417 1.390 . S
C423 C420 1.386 . S
C424 C419 1.490 . S
C424 C426 1.395 . S
C424 C427 1.403 . S
H425 C431 0.930 . S
C426 H412 0.930 . S
C426 C424 1.395 . S
C426 C429 1.403 . S
C427 C424 1.403 . S
C427 C428 1.524 . S
C427 C431 1.400 . S
C428 H413 0.960 . S
C428 H414 0.960 . S
C428 H415 0.960 . S
C428 C427 1.524 . S
C429 C426 1.403 . S
C429 C430 1.392 . S
C429 C433 1.495 . S
C430 C429 1.392 . S
C430 C431 1.385 . S
C430 C432 1.478 . S
C431 H425 0.930 . S
C431 C427 1.400 . S
C431 C430 1.385 . S
C432 C430 1.478 . S
C432 C434 1.381 . S
C432 C438 1.383 . S
C433 C429 1.495 . S
C433 H439 0.959 . S
C433 H440 0.961 . S
C433 H441 0.960 . S
C434 C432 1.381 . S
C434 C435 1.394 . S
C434 H442 0.930 . S
C435 C434 1.394 . S
C435 C436 1.383 . S
C435 H443 0.929 . S
C436 C435 1.383 . S
C436 C437 1.377 . S
C437 H421 0.930 . S
C437 C436 1.377 . S
C437 C438 1.379 . S
C438 H422 0.931 . S
C438 C432 1.383 . S
C438 C437 1.379 . S
H439 C433 0.959 . S
H440 C433 0.961 . S
H441 C433 0.960 . S
H442 C434 0.930 . S
H443 C435 0.929 . S
H444 C452 0.929 . S
H445 C454 0.930 . S
H446 C456 0.930 . S
H447 C459 0.929 . S
H448 C462 0.930 . S
H449 C464 0.960 . S
H450 C464 0.960 . S
H451 C464 0.960 . S
C452 H444 0.929 . S
C452 C453 1.377 1_554 S
C452 C454 1.384 . S
C453 C452 1.377 1_556 S
C453 C459 1.390 . S
C454 H445 0.930 . S
C454 C452 1.384 . S
C454 C455 1.372 1_554 S
C455 C454 1.372 1_556 S
C455 C456 1.400 . S
C455 C460 1.490 . S
C456 H446 0.930 . S
C456 C455 1.400 . S
C456 C459 1.386 . S
H457 C473 0.930 . S
H458 C474 0.931 . S
C459 H447 0.929 . S
C459 C453 1.390 . S
C459 C456 1.386 . S
C460 C455 1.490 . S
C460 C462 1.395 1_556 S
C460 C463 1.403 . S
H461 C467 0.930 . S
C462 H448 0.930 . S
C462 C460 1.395 1_554 S
C462 C465 1.403 . S
C463 C460 1.403 . S
C463 C464 1.524 . S
C463 C467 1.400 . S
C464 H449 0.960 . S
C464 H450 0.960 . S
C464 H451 0.960 . S
C464 C463 1.524 . S
C465 C462 1.403 . S
C465 C466 1.392 . S
C465 C469 1.495 . S
C466 C465 1.392 . S
C466 C467 1.385 1_554 S
C466 C468 1.478 . S
C467 H461 0.930 . S
C467 C463 1.400 . S
C467 C466 1.385 1_556 S
C468 C466 1.478 . S
C468 C470 1.381 . S
C468 C474 1.383 1_554 S
C469 C465 1.495 . S
C469 H475 0.959 . S
C469 H476 0.961 . S
C469 H477 0.960 . S
C470 C468 1.381 . S
C470 C471 1.394 . S
C470 H478 0.930 . S
C471 C470 1.394 . S
C471 C472 1.383 . S
C471 H479 0.929 . S
C472 C471 1.383 . S
C472 C473 1.377 1_554 S
C473 H457 0.930 . S
C473 C472 1.377 1_556 S
C473 C474 1.379 . S
C474 H458 0.931 . S
C474 C468 1.383 1_556 S
C474 C473 1.379 . S
H475 C469 0.959 . S
H476 C469 0.961 . S
H477 C469 0.960 . S
H478 C470 0.930 . S
H479 C471 0.929 . S
H480 C488 0.929 . S
H481 C490 0.930 . S
H482 C492 0.930 . S
H483 C495 0.929 . S
H484 C498 0.930 . S
H485 C500 0.960 . S
H486 C500 0.960 . S
H487 C500 0.960 . S
C488 H480 0.929 . S
C488 C489 1.377 . S
C488 C490 1.384 . S
C489 C488 1.377 . S
C489 C495 1.390 . S
C490 H481 0.930 . S
C490 C488 1.384 . S
C490 C491 1.372 . S
C491 C490 1.372 . S
C491 C492 1.400 . S
C491 C496 1.490 . S
C492 H482 0.930 . S
C492 C491 1.400 . S
C492 C495 1.386 . S
H493 C509 0.930 . S
H494 C510 0.931 . S
C495 H483 0.929 . S
C495 C489 1.390 . S
C495 C492 1.386 . S
C496 C491 1.490 . S
C496 C498 1.395 . S
C496 C499 1.403 . S
H497 C503 0.930 . S
C498 H484 0.930 . S
C498 C496 1.395 . S
C498 C501 1.403 . S
C499 C496 1.403 . S
C499 C500 1.524 . S
C499 C503 1.400 . S
C500 H485 0.960 . S
C500 H486 0.960 . S
C500 H487 0.960 . S
C500 C499 1.524 . S
C501 C498 1.403 . S
C501 C502 1.392 . S
C501 C505 1.495 . S
C502 C501 1.392 . S
C502 C503 1.385 . S
C502 C504 1.478 . S
C503 H497 0.930 . S
C503 C499 1.400 . S
C503 C502 1.385 . S
C504 C502 1.478 . S
C504 C506 1.381 . S
C504 C510 1.383 . S
C505 C501 1.495 . S
C505 H511 0.959 . S
C505 H512 0.961 . S
C505 H513 0.960 . S
C506 C504 1.381 . S
C506 C507 1.394 . S
C506 H514 0.930 . S
C507 C506 1.394 . S
C507 C508 1.383 . S
C507 H515 0.929 . S
C508 C507 1.383 . S
C508 C509 1.377 . S
C509 H493 0.930 . S
C509 C508 1.377 . S
C509 C510 1.379 . S
C510 H494 0.931 . S
C510 C504 1.383 . S
C510 C509 1.379 . S
H511 C505 0.959 . S
H512 C505 0.961 . S
H513 C505 0.960 . S
H514 C506 0.930 . S
H515 C507 0.929 . S
H516 C524 0.929 . S
H517 C526 0.930 . S
H518 C528 0.930 . S
H519 C531 0.929 . S
H520 C534 0.930 . S
H521 C536 0.960 . S
H522 C536 0.960 . S
H523 C536 0.960 . S
C524 H516 0.929 . S
C524 C525 1.377 . S
C524 C526 1.384 . S
C525 C524 1.377 . S
C525 C531 1.390 . S
C526 H517 0.930 . S
C526 C524 1.384 . S
C526 C527 1.372 . S
C527 C526 1.372 . S
C527 C528 1.400 . S
C527 C532 1.490 . S
C528 H518 0.930 . S
C528 C527 1.400 . S
C528 C531 1.386 . S
H529 C545 0.930 . S
H530 C546 0.931 . S
C531 H519 0.929 . S
C531 C525 1.390 . S
C531 C528 1.386 . S
C532 C527 1.490 . S
C532 C534 1.395 . S
C532 C535 1.403 . S
H533 C539 0.930 . S
C534 H520 0.930 . S
C534 C532 1.395 . S
C534 C537 1.403 . S
C535 C532 1.403 . S
C535 C536 1.524 . S
C535 C539 1.400 . S
C536 H521 0.960 . S
C536 H522 0.960 . S
C536 H523 0.960 . S
C536 C535 1.524 . S
C537 C534 1.403 . S
C537 C538 1.392 . S
C537 C541 1.495 . S
C538 C537 1.392 . S
C538 C539 1.385 . S
C538 C540 1.478 . S
C539 H533 0.930 . S
C539 C535 1.400 . S
C539 C538 1.385 . S
C540 C538 1.478 . S
C540 C542 1.381 . S
C540 C546 1.383 . S
C541 C537 1.495 . S
C541 H547 0.959 . S
C541 H548 0.961 . S
C541 H549 0.960 . S
C542 C540 1.381 . S
C542 C543 1.394 . S
C542 H550 0.930 . S
C543 C542 1.394 . S
C543 C544 1.383 . S
C543 H551 0.929 . S
C544 C543 1.383 . S
C544 C545 1.377 . S
C545 H529 0.930 . S
C545 C544 1.377 . S
C545 C546 1.379 . S
C546 H530 0.931 . S
C546 C540 1.383 . S
C546 C545 1.379 . S
H547 C541 0.959 . S
H548 C541 0.961 . S
H549 C541 0.960 . S
H550 C542 0.930 . S
H551 C543 0.929 . S
H552 C560 0.929 . S
H553 C562 0.930 . S
H554 C564 0.930 . S
H555 C567 0.929 . S
H556 C570 0.930 . S
H557 C572 0.960 . S
H558 C572 0.960 . S
H559 C572 0.960 . S
C560 H552 0.929 . S
C560 C561 1.377 1_556 S
C560 C562 1.384 . S
C561 C560 1.377 1_554 S
C561 C567 1.390 . S
C562 H553 0.930 . S
C562 C560 1.384 . S
C562 C563 1.385 . S
C563 C562 1.385 . S
C563 C564 1.386 1_556 S
C563 C568 1.492 . S
C564 H554 0.930 . S
C564 C563 1.386 1_554 S
C564 C567 1.386 . S
H565 C581 0.930 . S
H566 C582 0.931 . S
C567 H555 0.929 . S
C567 C561 1.390 . S
C567 C564 1.386 . S
C568 C563 1.492 . S
C568 C570 1.395 . S
C568 C571 1.403 1_556 S
H569 C575 0.930 . S
C570 H556 0.930 . S
C570 C568 1.395 . S
C570 C573 1.403 . S
C571 C568 1.403 1_554 S
C571 C572 1.524 . S
C571 C575 1.400 . S
C572 H557 0.960 . S
C572 H558 0.960 . S
C572 H559 0.960 . S
C572 C571 1.524 . S
C573 C570 1.403 . S
C573 C574 1.392 . S
C573 C577 1.495 . S
C574 C573 1.392 . S
C574 C575 1.385 1_556 S
C574 C576 1.478 . S
C575 H569 0.930 . S
C575 C571 1.400 . S
C575 C574 1.385 1_554 S
C576 C574 1.478 . S
C576 C578 1.381 . S
C576 C582 1.383 1_556 S
C577 C573 1.495 . S
C577 H583 0.959 . S
C577 H584 0.961 . S
C577 H585 0.960 . S
C578 C576 1.381 . S
C578 C579 1.394 . S
C578 H586 0.930 . S
C579 C578 1.394 . S
C579 C580 1.383 . S
C579 H587 0.929 . S
C580 C579 1.383 . S
C580 C581 1.377 1_556 S
C581 H565 0.930 . S
C581 C580 1.377 1_554 S
C581 C582 1.379 . S
C582 H566 0.931 . S
C582 C576 1.383 1_554 S
C582 C581 1.379 . S
H583 C577 0.959 . S
H584 C577 0.961 . S
H585 C577 0.960 . S
H586 C578 0.930 . S
H587 C579 0.929 . S
H588 C596 0.929 . S
H589 C598 0.930 . S
H590 C600 0.930 . S
H591 C603 0.929 . S
H592 C606 0.930 . S
H593 C608 0.960 . S
H594 C608 0.960 . S
H595 C608 0.960 . S
C596 H588 0.929 . S
C596 C597 1.377 . S
C596 C598 1.384 . S
C597 C596 1.377 . S
C597 C603 1.390 . S
C598 H589 0.930 . S
C598 C596 1.384 . S
C598 C599 1.372 . S
C599 C598 1.372 . S
C599 C600 1.400 . S
C599 C604 1.490 . S
C600 H590 0.930 . S
C600 C599 1.400 . S
C600 C603 1.386 . S
H601 C617 0.930 . S
H602 C618 0.931 . S
C603 H591 0.929 . S
C603 C597 1.390 . S
C603 C600 1.386 . S
C604 C599 1.490 . S
C604 C606 1.395 . S
C604 C607 1.403 . S
H605 C611 0.930 . S
C606 H592 0.930 . S
C606 C604 1.395 . S
C606 C609 1.403 1_545 S
C607 C604 1.403 . S
C607 C608 1.524 . S
C607 C611 1.400 1_545 S
C608 H593 0.960 . S
C608 H594 0.960 . S
C608 H595 0.960 . S
C608 C607 1.524 . S
C609 C606 1.403 1_565 S
C609 C610 1.392 . S
C609 C613 1.495 . S
C610 C609 1.392 . S
C610 C611 1.385 . S
C610 C612 1.478 . S
C611 H605 0.930 . S
C611 C607 1.400 1_565 S
C611 C610 1.385 . S
C612 C610 1.478 . S
C612 C614 1.381 . S
C612 C618 1.383 . S
C613 C609 1.495 . S
C613 H619 0.959 . S
C613 H620 0.961 . S
C613 H621 0.960 . S
C614 C612 1.381 . S
C614 C615 1.394 . S
C614 H622 0.930 . S
C615 C614 1.394 . S
C615 C616 1.383 . S
C615 H623 0.929 . S
C616 C615 1.383 . S
C616 C617 1.377 . S
C617 H601 0.930 . S
C617 C616 1.377 . S
C617 C618 1.379 . S
C618 H602 0.931 . S
C618 C612 1.383 . S
C618 C617 1.379 . S
H619 C613 0.959 . S
H620 C613 0.961 . S
H621 C613 0.960 . S
H622 C614 0.930 . S
H623 C615 0.929 . S
H624 C632 0.929 . S
H625 C634 0.930 . S
H626 C636 0.930 . S
H627 C639 0.929 . S
H628 C642 0.930 . S
H629 C644 0.960 . S
H630 C644 0.960 . S
H631 C644 0.960 . S
C632 H624 0.929 . S
C632 C633 1.377 . S
C632 C634 1.384 . S
C633 C632 1.377 . S
C633 C639 1.390 . S
C634 H625 0.930 . S
C634 C632 1.384 . S
C634 C635 1.372 . S
C635 C634 1.372 . S
C635 C636 1.400 . S
C635 C640 1.490 . S
C636 H626 0.930 . S
C636 C635 1.400 . S
C636 C639 1.386 . S
H637 C653 0.930 . S
H638 C654 0.931 . S
C639 H627 0.929 . S
C639 C633 1.390 . S
C639 C636 1.386 . S
C640 C635 1.490 . S
C640 C642 1.395 . S
C640 C643 1.403 . S
H641 C647 0.930 . S
C642 H628 0.930 . S
C642 C640 1.395 . S
C642 C645 1.403 . S
C643 C640 1.403 . S
C643 C644 1.524 . S
C643 C647 1.400 . S
C644 H629 0.960 . S
C644 H630 0.960 . S
C644 H631 0.960 . S
C644 C643 1.524 . S
C645 C642 1.403 . S
C645 C646 1.392 . S
C645 C649 1.495 . S
C646 C645 1.392 . S
C646 C647 1.385 . S
C646 C648 1.478 . S
C647 H641 0.930 . S
C647 C643 1.400 . S
C647 C646 1.385 . S
C648 C646 1.478 . S
C648 C650 1.381 . S
C648 C654 1.383 . S
C649 C645 1.495 . S
C649 H655 0.959 . S
C649 H656 0.961 . S
C649 H657 0.960 . S
C650 C648 1.381 . S
C650 C651 1.394 . S
C650 H658 0.930 . S
C651 C650 1.394 . S
C651 C652 1.383 . S
C651 H659 0.929 . S
C652 C651 1.383 . S
C652 C653 1.377 . S
C653 H637 0.930 . S
C653 C652 1.377 . S
C653 C654 1.379 . S
C654 H638 0.931 . S
C654 C648 1.383 . S
C654 C653 1.379 . S
H655 C649 0.959 . S
H656 C649 0.961 . S
H657 C649 0.960 . S
H658 C650 0.930 . S
H659 C651 0.929 . S
H660 C668 0.929 1_554 S
H661 C670 0.930 1_554 S
H662 C672 0.930 . S
H663 C675 0.929 . S
H664 C678 0.930 . S
H665 C680 0.960 . S
H666 C680 0.960 . S
H667 C680 0.960 . S
C668 H660 0.929 1_556 S
C668 C669 1.377 . S
C668 C670 1.384 . S
C669 C668 1.377 . S
C669 C675 1.390 . S
C670 H661 0.930 1_556 S
C670 C668 1.384 . S
C670 C671 1.372 . S
C671 C670 1.372 . S
C671 C672 1.400 . S
C671 C676 1.490 . S
C672 H662 0.930 . S
C672 C671 1.400 . S
C672 C675 1.386 . S
H673 C689 0.930 . S
H674 C690 0.931 . S
C675 H663 0.929 . S
C675 C669 1.390 . S
C675 C672 1.386 . S
C676 C671 1.490 . S
C676 C678 1.395 1_556 S
C676 C679 1.403 . S
H677 C683 0.930 . S
C678 H664 0.930 . S
C678 C676 1.395 1_554 S
C678 C681 1.403 1_655 S
C679 C676 1.403 . S
C679 C680 1.524 . S
C679 C683 1.400 1_655 S
C680 H665 0.960 . S
C680 H666 0.960 . S
C680 H667 0.960 . S
C680 C679 1.524 . S
C681 C678 1.403 1_455 S
C681 C682 1.392 1_554 S
C681 C685 1.495 . S
C682 C681 1.392 1_556 S
C682 C683 1.385 . S
C682 C684 1.478 . S
C683 H677 0.930 . S
C683 C679 1.400 1_455 S
C683 C682 1.385 . S
C684 C682 1.478 . S
C684 C686 1.376 1_556 S
C684 C690 1.383 . S
C685 C681 1.495 . S
C685 H691 0.959 . S
C685 H692 0.961 . S
C685 H693 0.960 . S
C686 C684 1.376 1_554 S
C686 C687 1.393 1_554 S
C686 H694 0.938 . S
C687 C686 1.393 1_556 S
C687 C688 1.383 . S
C687 H695 0.929 1_556 S
C688 C687 1.383 . S
C688 C689 1.377 . S
C689 H673 0.930 . S
C689 C688 1.377 . S
C689 C690 1.379 . S
C690 H674 0.931 . S
C690 C684 1.383 . S
C690 C689 1.379 . S
H691 C685 0.959 . S
H692 C685 0.961 . S
H693 C685 0.960 . S
H694 C686 0.938 . S
H695 C687 0.929 1_554 S
H696 C704 0.929 . S
H697 C706 0.930 . S
H698 C708 0.930 . S
H699 C711 0.929 . S
H700 C714 0.930 . S
H701 C716 0.960 1_655 S
H702 C716 0.960 . S
H703 C716 0.960 . S
C704 H696 0.929 . S
C704 C705 1.377 . S
C704 C706 1.384 . S
C705 C704 1.377 . S
C705 C711 1.390 . S
C706 H697 0.930 . S
C706 C704 1.384 . S
C706 C707 1.372 . S
C707 C706 1.372 . S
C707 C708 1.400 . S
C707 C712 1.490 . S
C708 H698 0.930 . S
C708 C707 1.400 . S
C708 C711 1.386 . S
H709 C725 0.930 . S
H710 C726 0.931 . S
C711 H699 0.929 . S
C711 C705 1.390 . S
C711 C708 1.386 . S
C712 C707 1.490 . S
C712 C714 1.395 . S
C712 C715 1.403 . S
H713 C719 0.930 . S
C714 H700 0.930 . S
C714 C712 1.395 . S
C714 C717 1.403 1_455 S
C715 C712 1.403 . S
C715 C716 1.524 . S
C715 C719 1.400 1_455 S
C716 H701 0.960 1_455 S
C716 H702 0.960 . S
C716 H703 0.960 . S
C716 C715 1.524 . S
C717 C714 1.403 1_655 S
C717 C718 1.392 . S
C717 C721 1.495 . S
C718 C717 1.392 . S
C718 C719 1.385 . S
C718 C720 1.478 . S
C719 H713 0.930 . S
C719 C715 1.400 1_655 S
C719 C718 1.385 . S
C720 C718 1.478 . S
C720 C722 1.381 . S
C720 C726 1.383 . S
C721 C717 1.495 . S
C721 H727 0.959 1_655 S
C721 H728 0.961 . S
C721 H729 0.960 . S
C722 C720 1.381 . S
C722 C723 1.394 . S
C722 H730 0.930 . S
C723 C722 1.394 . S
C723 C724 1.383 . S
C723 H731 0.929 . S
C724 C723 1.383 . S
C724 C725 1.377 . S
C725 H709 0.930 . S
C725 C724 1.377 . S
C725 C726 1.379 . S
C726 H710 0.931 . S
C726 C720 1.383 . S
C726 C725 1.379 . S
H727 C721 0.959 1_455 S
H728 C721 0.961 . S
H729 C721 0.960 . S
H730 C722 0.930 . S
H731 C723 0.929 . S
H732 C740 0.929 . S
H733 C742 0.930 . S
H734 C744 0.930 . S
H735 C747 0.929 . S
H736 C750 0.930 . S
H737 C752 0.960 1_565 S
H738 C752 0.960 . S
H739 C752 0.960 . S
C740 H732 0.929 . S
C740 C741 1.377 . S
C740 C742 1.384 . S
C741 C740 1.377 . S
C741 C747 1.390 . S
C742 H733 0.930 . S
C742 C740 1.384 . S
C742 C743 1.372 . S
C743 C742 1.372 . S
C743 C744 1.400 . S
C743 C748 1.490 . S
C744 H734 0.930 . S
C744 C743 1.400 . S
C744 C747 1.386 . S
H745 C761 0.930 . S
H746 C762 0.931 . S
C747 H735 0.929 . S
C747 C741 1.390 . S
C747 C744 1.386 . S
C748 C743 1.490 . S
C748 C750 1.395 . S
C748 C751 1.403 . S
H749 C755 0.930 . S
C750 H736 0.930 . S
C750 C748 1.395 . S
C750 C753 1.403 1_545 S
C751 C748 1.403 . S
C751 C752 1.524 . S
C751 C755 1.400 1_545 S
C752 H737 0.960 1_545 S
C752 H738 0.960 . S
C752 H739 0.960 . S
C752 C751 1.524 . S
C753 C750 1.403 1_565 S
C753 C754 1.392 . S
C753 C757 1.495 . S
C754 C753 1.392 . S
C754 C755 1.385 . S
C754 C756 1.478 . S
C755 H749 0.930 . S
C755 C751 1.400 1_565 S
C755 C754 1.385 . S
C756 C754 1.478 . S
C756 C758 1.381 . S
C756 C762 1.383 . S
C757 C753 1.495 . S
C757 H763 0.959 1_565 S
C757 H764 0.961 . S
C757 H765 0.960 . S
C758 C756 1.381 . S
C758 C759 1.394 . S
C758 H766 0.930 . S
C759 C758 1.394 . S
C759 C760 1.383 . S
C759 H767 0.929 . S
C760 C759 1.383 . S
C760 C761 1.377 . S
C761 H745 0.930 . S
C761 C760 1.377 . S
C761 C762 1.379 . S
C762 H746 0.931 . S
C762 C756 1.383 . S
C762 C761 1.379 . S
H763 C757 0.959 1_545 S
H764 C757 0.961 . S
H765 C757 0.960 . S
H766 C758 0.930 . S
H767 C759 0.929 . S
H768 C776 0.929 . S
H769 C778 0.930 . S
H770 C780 0.930 . S
H771 C783 0.929 . S
H772 C786 0.930 . S
H773 C788 0.960 . S
H774 C788 0.960 . S
H775 C788 0.960 . S
C776 H768 0.929 . S
C776 C777 1.377 . S
C776 C778 1.384 . S
C777 C776 1.377 . S
C777 C783 1.390 . S
C778 H769 0.930 . S
C778 C776 1.384 . S
C778 C779 1.372 . S
C779 C778 1.372 . S
C779 C780 1.400 . S
C779 C784 1.490 . S
C780 H770 0.930 . S
C780 C779 1.400 . S
C780 C783 1.386 . S
H781 C797 0.929 . S
H782 C798 0.934 . S
C783 H771 0.929 . S
C783 C777 1.390 . S
C783 C780 1.386 . S
C784 C779 1.490 . S
C784 C786 1.395 1_554 S
C784 C787 1.403 . S
H785 C791 0.930 . S
C786 H772 0.930 . S
C786 C784 1.395 1_556 S
C786 C789 1.403 . S
C787 C784 1.403 . S
C787 C788 1.524 . S
C787 C791 1.400 . S
C788 H773 0.960 . S
C788 H774 0.960 . S
C788 H775 0.960 . S
C788 C787 1.524 . S
C789 C786 1.403 . S
C789 C790 1.358 1_556 S
C789 C793 1.495 . S
C790 C789 1.358 1_554 S
C790 C791 1.422 . S
C790 C792 1.477 . S
C791 H785 0.930 . S
C791 C787 1.400 . S
C791 C790 1.422 . S
C792 C790 1.477 . S
C792 C794 1.384 . S
C792 C798 1.381 1_554 S
C793 C789 1.495 . S
C793 H799 0.959 . S
C793 H800 0.961 . S
C793 H801 0.960 . S
C794 C792 1.384 . S
C794 C795 1.394 . S
C794 H802 0.930 . S
C795 C794 1.394 . S
C795 C796 1.383 . S
C795 H803 0.929 . S
C796 C795 1.383 . S
C796 C797 1.382 . S
C797 H781 0.929 . S
C797 C796 1.382 . S
C797 C798 1.377 1_554 S
C798 H782 0.934 . S
C798 C792 1.381 1_556 S
C798 C797 1.377 1_556 S
H799 C793 0.959 . S
H800 C793 0.961 . S
H801 C793 0.960 . S
H802 C794 0.930 . S
H803 C795 0.929 . S
H804 C812 0.929 . S
H805 C814 0.930 . S
H806 C816 0.930 . S
H807 C819 0.929 . S
H808 C822 0.930 . S
H809 C824 0.960 . S
H810 C824 0.960 . S
H811 C824 0.960 . S
C812 H804 0.929 . S
C812 C813 1.377 . S
C812 C814 1.384 . S
C813 C812 1.377 . S
C813 C819 1.390 . S
C814 H805 0.930 . S
C814 C812 1.384 . S
C814 C815 1.372 . S
C815 C814 1.372 . S
C815 C816 1.400 . S
C815 C820 1.490 . S
C816 H806 0.930 . S
C816 C815 1.400 . S
C816 C819 1.386 . S
H817 C833 0.930 . S
H818 C834 0.931 . S
C819 H807 0.929 . S
C819 C813 1.390 . S
C819 C816 1.386 . S
C820 C815 1.490 . S
C820 C822 1.395 . S
C820 C823 1.403 . S
H821 C827 0.930 . S
C822 H808 0.930 . S
C822 C820 1.395 . S
C822 C825 1.403 . S
C823 C820 1.403 . S
C823 C824 1.524 . S
C823 C827 1.400 . S
C824 H809 0.960 . S
C824 H810 0.960 . S
C824 H811 0.960 . S
C824 C823 1.524 . S
C825 C822 1.403 . S
C825 C826 1.392 . S
C825 C829 1.495 . S
C826 C825 1.392 . S
C826 C827 1.385 . S
C826 C828 1.478 . S
C827 H821 0.930 . S
C827 C823 1.400 . S
C827 C826 1.385 . S
C828 C826 1.478 . S
C828 C830 1.381 . S
C828 C834 1.383 . S
C829 C825 1.495 . S
C829 H835 0.959 . S
C829 H836 0.961 . S
C829 H837 0.960 . S
C830 C828 1.381 . S
C830 C831 1.394 . S
C830 H838 0.930 . S
C831 C830 1.394 . S
C831 C832 1.383 . S
C831 H839 0.929 . S
C832 C831 1.383 . S
C832 C833 1.377 . S
C833 H817 0.930 . S
C833 C832 1.377 . S
C833 C834 1.379 . S
C834 H818 0.931 . S
C834 C828 1.383 . S
C834 C833 1.379 . S
H835 C829 0.959 . S
H836 C829 0.961 . S
H837 C829 0.960 . S
H838 C830 0.930 . S
H839 C831 0.929 . S
H840 C848 0.929 . S
H841 C850 0.930 . S
H842 C852 0.930 . S
H843 C855 0.929 . S
H844 C858 0.930 . S
H845 C860 0.960 . S
H846 C860 0.960 . S
H847 C860 0.960 . S
C848 H840 0.929 . S
C848 C849 1.377 . S
C848 C850 1.384 . S
C849 C848 1.377 . S
C849 C855 1.390 . S
C850 H841 0.930 . S
C850 C848 1.384 . S
C850 C851 1.372 . S
C851 C850 1.372 . S
C851 C852 1.400 . S
C851 C856 1.490 . S
C852 H842 0.930 . S
C852 C851 1.400 . S
C852 C855 1.386 . S
H853 C869 0.930 . S
H854 C870 0.931 . S
C855 H843 0.929 . S
C855 C849 1.390 . S
C855 C852 1.386 . S
C856 C851 1.490 . S
C856 C858 1.395 . S
C856 C859 1.403 . S
H857 C863 0.930 . S
C858 H844 0.930 . S
C858 C856 1.395 . S
C858 C861 1.403 . S
C859 C856 1.403 . S
C859 C860 1.524 . S
C859 C863 1.400 . S
C860 H845 0.960 . S
C860 H846 0.960 . S
C860 H847 0.960 . S
C860 C859 1.524 . S
C861 C858 1.403 . S
C861 C862 1.392 . S
C861 C865 1.495 . S
C862 C861 1.392 . S
C862 C863 1.385 . S
C862 C864 1.478 . S
C863 H857 0.930 . S
C863 C859 1.400 . S
C863 C862 1.385 . S
C864 C862 1.478 . S
C864 C866 1.381 . S
C864 C870 1.383 . S
C865 C861 1.495 . S
C865 H871 0.959 . S
C865 H872 0.961 . S
C865 H873 0.960 . S
C866 C864 1.381 . S
C866 C867 1.394 . S
C866 H874 0.930 . S
C867 C866 1.394 . S
C867 C868 1.383 . S
C867 H875 0.929 . S
C868 C867 1.383 . S
C868 C869 1.377 . S
C869 H853 0.930 . S
C869 C868 1.377 . S
C869 C870 1.379 . S
C870 H854 0.931 . S
C870 C864 1.383 . S
C870 C869 1.379 . S
H871 C865 0.959 . S
H872 C865 0.961 . S
H873 C865 0.960 . S
H874 C866 0.930 . S
H875 C867 0.929 . S
H876 C884 0.929 . S
H877 C886 0.930 . S
H878 C888 0.930 . S
H879 C891 0.929 . S
H880 C894 0.930 . S
H881 C896 0.960 . S
H882 C896 0.960 . S
H883 C896 0.960 . S
C884 H876 0.929 . S
C884 C885 1.377 . S
C884 C886 1.384 . S
C885 C884 1.377 . S
C885 C891 1.390 . S
C886 H877 0.930 . S
C886 C884 1.384 . S
C886 C887 1.372 . S
C887 C886 1.372 . S
C887 C888 1.400 . S
C887 C892 1.490 . S
C888 H878 0.930 . S
C888 C887 1.400 . S
C888 C891 1.386 . S
H889 C905 0.930 . S
H890 C906 0.931 . S
C891 H879 0.929 . S
C891 C885 1.390 . S
C891 C888 1.386 . S
C892 C887 1.490 . S
C892 C894 1.395 . S
C892 C895 1.403 . S
H893 C899 0.930 . S
C894 H880 0.930 . S
C894 C892 1.395 . S
C894 C897 1.403 . S
C895 C892 1.403 . S
C895 C896 1.524 . S
C895 C899 1.400 . S
C896 H881 0.960 . S
C896 H882 0.960 . S
C896 H883 0.960 . S
C896 C895 1.524 . S
C897 C894 1.403 . S
C897 C898 1.392 . S
C897 C901 1.495 . S
C898 C897 1.392 . S
C898 C899 1.385 . S
C898 C900 1.478 . S
C899 H893 0.930 . S
C899 C895 1.400 . S
C899 C898 1.385 . S
C900 C898 1.478 . S
C900 C902 1.381 . S
C900 C906 1.383 . S
C901 C897 1.495 . S
C901 H907 0.959 . S
C901 H908 0.961 . S
C901 H909 0.960 . S
C902 C900 1.381 . S
C902 C903 1.394 . S
C902 H910 0.930 . S
C903 C902 1.394 . S
C903 C904 1.383 . S
C903 H911 0.929 . S
C904 C903 1.383 . S
C904 C905 1.377 . S
C905 H889 0.930 . S
C905 C904 1.377 . S
C905 C906 1.379 . S
C906 H890 0.931 . S
C906 C900 1.383 . S
C906 C905 1.379 . S
H907 C901 0.959 . S
H908 C901 0.961 . S
H909 C901 0.960 . S
H910 C902 0.930 . S
H911 C903 0.929 . S
H912 C920 0.929 . S
H913 C922 0.930 . S
H914 C924 0.930 . S
H915 C927 0.929 . S
H916 C930 0.930 . S
H917 C932 0.960 . S
H918 C932 0.960 . S
H919 C932 0.960 . S
C920 H912 0.929 . S
C920 C921 1.377 . S
C920 C922 1.384 . S
C921 C920 1.377 . S
C921 C927 1.390 . S
C922 H913 0.930 . S
C922 C920 1.384 . S
C922 C923 1.372 . S
C923 C922 1.372 . S
C923 C924 1.400 . S
C923 C928 1.490 . S
C924 H914 0.930 . S
C924 C923 1.400 . S
C924 C927 1.386 . S
H925 C941 0.930 . S
H926 C942 0.931 . S
C927 H915 0.929 . S
C927 C921 1.390 . S
C927 C924 1.386 . S
C928 C923 1.490 . S
C928 C930 1.395 . S
C928 C931 1.403 . S
H929 C935 0.930 . S
C930 H916 0.930 . S
C930 C928 1.395 . S
C930 C933 1.403 . S
C931 C928 1.403 . S
C931 C932 1.524 . S
C931 C935 1.400 . S
C932 H917 0.960 . S
C932 H918 0.960 . S
C932 H919 0.960 . S
C932 C931 1.524 . S
C933 C930 1.403 . S
C933 C934 1.392 . S
C933 C937 1.495 . S
C934 C933 1.392 . S
C934 C935 1.385 . S
C934 C936 1.478 . S
C935 H929 0.930 . S
C935 C931 1.400 . S
C935 C934 1.385 . S
C936 C934 1.478 . S
C936 C938 1.381 . S
C936 C942 1.383 . S
C937 C933 1.495 . S
C937 H943 0.959 . S
C937 H944 0.961 . S
C937 H945 0.960 . S
C938 C936 1.381 . S
C938 C939 1.394 . S
C938 H946 0.930 . S
C939 C938 1.394 . S
C939 C940 1.383 . S
C939 H947 0.929 . S
C940 C939 1.383 . S
C940 C941 1.377 . S
C941 H925 0.930 . S
C941 C940 1.377 . S
C941 C942 1.379 . S
C942 H926 0.931 . S
C942 C936 1.383 . S
C942 C941 1.379 . S
H943 C937 0.959 . S
H944 C937 0.961 . S
H945 C937 0.960 . S
H946 C938 0.930 . S
H947 C939 0.929 . S
H948 C956 0.929 . S
H949 C958 0.930 . S
H950 C960 0.930 . S
H951 C963 0.929 . S
H952 C966 0.930 . S
H953 C968 0.960 . S
H954 C968 0.960 . S
H955 C968 0.960 . S
C956 H948 0.929 . S
C956 C957 1.377 . S
C956 C958 1.384 . S
C957 C956 1.377 . S
C957 C963 1.390 . S
C958 H949 0.930 . S
C958 C956 1.384 . S
C958 C959 1.372 . S
C959 C958 1.372 . S
C959 C960 1.400 . S
C959 C964 1.490 . S
C960 H950 0.930 . S
C960 C959 1.400 . S
C960 C963 1.386 . S
H961 C977 0.930 . S
H962 C978 0.931 . S
C963 H951 0.929 . S
C963 C957 1.390 . S
C963 C960 1.386 . S
C964 C959 1.490 . S
C964 C966 1.395 . S
C964 C967 1.403 . S
H965 C971 0.930 . S
C966 H952 0.930 . S
C966 C964 1.395 . S
C966 C969 1.403 . S
C967 C964 1.403 . S
C967 C968 1.524 . S
C967 C971 1.400 . S
C968 H953 0.960 . S
C968 H954 0.960 . S
C968 H955 0.960 . S
C968 C967 1.524 . S
C969 C966 1.403 . S
C969 C970 1.392 . S
C969 C973 1.495 . S
C970 C969 1.392 . S
C970 C971 1.385 . S
C970 C972 1.478 . S
C971 H965 0.930 . S
C971 C967 1.400 . S
C971 C970 1.385 . S
C972 C970 1.478 . S
C972 C974 1.381 . S
C972 C978 1.383 . S
C973 C969 1.495 . S
C973 H979 0.959 . S
C973 H980 0.961 . S
C973 H981 0.960 . S
C974 C972 1.381 . S
C974 C975 1.394 . S
C974 H982 0.930 . S
C975 C974 1.394 . S
C975 C976 1.383 . S
C975 H983 0.929 . S
C976 C975 1.383 . S
C976 C977 1.377 . S
C977 H961 0.930 . S
C977 C976 1.377 . S
C977 C978 1.379 . S
C978 H962 0.931 . S
C978 C972 1.383 . S
C978 C977 1.379 . S
H979 C973 0.959 . S
H980 C973 0.961 . S
H981 C973 0.960 . S
H982 C974 0.930 . S
H983 C975 0.929 . S
H984 C992 0.929 . S
H985 C994 0.930 . S
H986 C996 0.930 . S
H987 C999 0.929 . S
H988 C1002 0.930 . S
H989 C1004 0.960 . S
H990 C1004 0.960 . S
H991 C1004 0.960 . S
C992 H984 0.929 . S
C992 C993 1.377 . S
C992 C994 1.384 . S
C993 C992 1.377 . S
C993 C999 1.390 . S
C994 H985 0.930 . S
C994 C992 1.384 . S
C994 C995 1.372 . S
C995 C994 1.372 . S
C995 C996 1.400 . S
C995 C1000 1.490 . S
C996 H986 0.930 . S
C996 C995 1.400 . S
C996 C999 1.386 . S
H997 C1013 0.930 . S
H998 C1014 0.931 . S
C999 H987 0.929 . S
C999 C993 1.390 . S
C999 C996 1.386 . S
C1000 C995 1.490 . S
C1000 C1002 1.395 . S
C1000 C1003 1.403 . S
H1001 C1007 0.930 . S
C1002 H988 0.930 . S
C1002 C1000 1.395 . S
C1002 C1005 1.403 . S
C1003 C1000 1.403 . S
C1003 C1004 1.524 . S
C1003 C1007 1.400 . S
C1004 H989 0.960 . S
C1004 H990 0.960 . S
C1004 H991 0.960 . S
C1004 C1003 1.524 . S
C1005 C1002 1.403 . S
C1005 C1006 1.392 . S
C1005 C1009 1.495 . S
C1006 C1005 1.392 . S
C1006 C1007 1.385 . S
C1006 C1008 1.478 . S
C1007 H1001 0.930 . S
C1007 C1003 1.400 . S
C1007 C1006 1.385 . S
C1008 C1006 1.478 . S
C1008 C1010 1.381 . S
C1008 C1014 1.383 . S
C1009 C1005 1.495 . S
C1009 H1015 0.959 . S
C1009 H1016 0.961 . S
C1009 H1017 0.960 . S
C1010 C1008 1.381 . S
C1010 C1011 1.394 . S
C1010 H1018 0.930 . S
C1011 C1010 1.394 . S
C1011 C1012 1.383 . S
C1011 H1019 0.929 . S
C1012 C1011 1.383 . S
C1012 C1013 1.377 . S
C1013 H997 0.930 . S
C1013 C1012 1.377 . S
C1013 C1014 1.379 . S
C1014 H998 0.931 . S
C1014 C1008 1.383 . S
C1014 C1013 1.379 . S
H1015 C1009 0.959 . S
H1016 C1009 0.961 . S
H1017 C1009 0.960 . S
H1018 C1010 0.930 . S
H1019 C1011 0.929 . S
C165 C10 1.679 . S
C184 C140 1.685 . S
C201 C14 1.692 . S
C220 C153 1.658 . S
C237 C79 1.694 . S
C256 C36 1.687 . S
C273 C49 1.680 . S
C292 C101 1.687 . S
C309 C114 1.674 . S
C328 C53 1.686 . S
C345 C118 1.692 . S
C364 C75 1.683 . S
C381 C88 0.752 . S
C400 C1 0.810 . S
C417 C92 0.758 . S
C436 C23 0.727 . S
C453 C105 0.743 . S
C472 C27 0.784 . S
C489 C40 0.742 . S
C508 C127 0.781 . S
C525 C62 0.753 . S
C544 C131 0.722 . S
C561 C66 0.747 . S
C580 C144 0.780 . S
C597 C3 2.262 . S
C616 C42 2.252 . S
C633 C18 2.421 . S
C652 C57 2.406 . S
C669 C29 2.263 . S
C688 C68 2.267 . S
C705 C122 2.420 . S
C724 C83 2.420 . S
C741 C133 2.264 . S
C760 C94 2.276 . S
C777 C146 2.264 . S
C796 C107 2.275 . S
C813 C5 1.823 . S
C832 C109 1.807 . S
C849 C120 1.823 . S
C868 C16 1.835 . S
C885 C31 1.827 . S
C904 C135 1.808 . S
C921 C148 1.822 . S
C940 C44 1.814 . S
C957 C55 1.818 . S
C976 C81 1.808 . S
C993 C70 1.827 . S
C1012 C96 1.808 . S
