# Generated by pormake.
# Topology una, (4)-cn, num edge types: 1
# Building blocks:
#     Node 0, Type 0, BuildingBlock: NAHDIM_clean_sbu_0, # of connection points: 4
#     Node 1, Type 0, BuildingBlock: NAHDIM_clean_sbu_0, # of connection points: 4
#     Node 2, Type 0, BuildingBlock: NAHDIM_clean_sbu_0, # of connection points: 4
#     Node 3, Type 0, BuildingBlock: NAHDIM_clean_sbu_0, # of connection points: 4
#     Node 4, Type 0, BuildingBlock: NAHDIM_clean_sbu_0, # of connection points: 4
#     Node 5, Type 0, BuildingBlock: NAHDIM_clean_sbu_0, # of connection points: 4
#     Node 6, Type 0, BuildingBlock: NAHDIM_clean_sbu_0, # of connection points: 4
#     Node 7, Type 0, BuildingBlock: NAHDIM_clean_sbu_0, # of connection points: 4
#     Node 8, Type 0, BuildingBlock: NAHDIM_clean_sbu_0, # of connection points: 4
#     Node 9, Type 0, BuildingBlock: NAHDIM_clean_sbu_0, # of connection points: 4
#     Node 10, Type 0, BuildingBlock: NAHDIM_clean_sbu_0, # of connection points: 4
#     Node 11, Type 0, BuildingBlock: NAHDIM_clean_sbu_0, # of connection points: 4
#     Edge 12, Type (0, 0), BuildingBlock: XUDNAN_clean_linker_2, # of connection points: 2
#     Edge 13, Type (0, 0), BuildingBlock: XUDNAN_clean_linker_2, # of connection points: 2
#     Edge 14, Type (0, 0), BuildingBlock: XUDNAN_clean_linker_2, # of connection points: 2
#     Edge 15, Type (0, 0), BuildingBlock: XUDNAN_clean_linker_2, # of connection points: 2
#     Edge 16, Type (0, 0), BuildingBlock: XUDNAN_clean_linker_2, # of connection points: 2
#     Edge 17, Type (0, 0), BuildingBlock: XUDNAN_clean_linker_2, # of connection points: 2
#     Edge 18, Type (0, 0), BuildingBlock: XUDNAN_clean_linker_2, # of connection points: 2
#     Edge 19, Type (0, 0), BuildingBlock: XUDNAN_clean_linker_2, # of connection points: 2
#     Edge 20, Type (0, 0), BuildingBlock: XUDNAN_clean_linker_2, # of connection points: 2
#     Edge 21, Type (0, 0), BuildingBlock: XUDNAN_clean_linker_2, # of connection points: 2
#     Edge 22, Type (0, 0), BuildingBlock: XUDNAN_clean_linker_2, # of connection points: 2
#     Edge 23, Type (0, 0), BuildingBlock: XUDNAN_clean_linker_2, # of connection points: 2
#     Edge 24, Type (0, 0), BuildingBlock: XUDNAN_clean_linker_2, # of connection points: 2
#     Edge 25, Type (0, 0), BuildingBlock: XUDNAN_clean_linker_2, # of connection points: 2
#     Edge 26, Type (0, 0), BuildingBlock: XUDNAN_clean_linker_2, # of connection points: 2
#     Edge 27, Type (0, 0), BuildingBlock: XUDNAN_clean_linker_2, # of connection points: 2
#     Edge 28, Type (0, 0), BuildingBlock: XUDNAN_clean_linker_2, # of connection points: 2
#     Edge 29, Type (0, 0), BuildingBlock: XUDNAN_clean_linker_2, # of connection points: 2
#     Edge 30, Type (0, 0), BuildingBlock: XUDNAN_clean_linker_2, # of connection points: 2
#     Edge 31, Type (0, 0), BuildingBlock: XUDNAN_clean_linker_2, # of connection points: 2
#     Edge 32, Type (0, 0), BuildingBlock: XUDNAN_clean_linker_2, # of connection points: 2
#     Edge 33, Type (0, 0), BuildingBlock: XUDNAN_clean_linker_2, # of connection points: 2
#     Edge 34, Type (0, 0), BuildingBlock: XUDNAN_clean_linker_2, # of connection points: 2
#     Edge 35, Type (0, 0), BuildingBlock: XUDNAN_clean_linker_2, # of connection points: 2
# Relax obj value: 0.122
# Max RMSD: 0.175
# Mean RMSD: 0.173
data_MOF--net-una--node1-NAHDIM_clean_sbu_0--edge1-XUDNAN_clean_linker_2
_symmetry_space_group_name_H-M    P1
_symmetry_Int_Tables_number       1
_symmetry_cell_setting            triclinic
loop_
_symmetry_equiv_pos_as_xyz
'x, y, z'
_cell_length_a     58.328203
_cell_length_b     57.476825
_cell_length_c     21.415534
_cell_angle_alpha  90.006745
_cell_angle_beta   90.034003
_cell_angle_gamma 120.45918
loop_
_atom_site_label
_atom_site_type_symbol
_atom_site_fract_x
_atom_site_fract_y
_atom_site_fract_z
_atom_type_partial_charge
C0 C 0.07651 0.38551 0.00745 0.0
O1 O 0.09392 0.37785 0.99727 0.0
O2 O 0.14213 0.43144 0.9806 0.0
Zn3 Zn 0.12251 0.42948 0.05925 0.0
O4 O 0.13232 0.4672 0.08323 0.0
C5 C 0.1589 0.42464 0.13569 0.0
O6 O 0.1746 0.44637 0.1032 0.0
O7 O 0.08372 0.40704 0.03821 0.0
C8 C 0.11587 0.47485 0.09576 0.0
O9 O 0.09027 0.45712 0.09557 0.0
C10 C 0.16261 0.45258 0.96074 0.0
O11 O 0.17235 0.47514 0.99273 0.0
O12 O 0.13396 0.41287 0.12632 0.0
C13 C 0.7289 0.16694 0.27993 0.0
O14 O 0.72086 0.18216 0.25346 0.0
O15 O 0.65386 0.12374 0.24766 0.0
Zn16 Zn 0.68712 0.12991 0.20463 0.0
O17 O 0.6999 0.16051 0.1429 0.0
C18 C 0.67182 0.09517 0.10022 0.0
O19 O 0.66693 0.11379 0.07998 0.0
O20 O 0.71669 0.14174 0.26844 0.0
C21 C 0.72012 0.16508 0.11102 0.0
O22 O 0.73041 0.14957 0.11909 0.0
C23 C 0.63703 0.12798 0.22007 0.0
O24 O 0.64134 0.13636 0.16188 0.0
O25 O 0.68013 0.09664 0.15588 0.0
C26 C 0.58511 0.66362 0.35504 0.0
O27 O 0.57583 0.65245 0.40975 0.0
O28 O 0.54855 0.71394 0.31655 0.0
Zn29 Zn 0.55727 0.69318 0.37903 0.0
O30 O 0.5229 0.6611 0.40903 0.0
C31 C 0.58442 0.74207 0.45318 0.0
O32 O 0.58094 0.75306 0.40303 0.0
O33 O 0.57981 0.68111 0.3345 0.0
C34 C 0.51081 0.66399 0.45511 0.0
O35 O 0.52161 0.68734 0.48407 0.0
C36 C 0.52982 0.71894 0.3237 0.0
O37 O 0.51476 0.71001 0.37361 0.0
O38 O 0.57695 0.71708 0.45278 0.0
C39 C 0.92071 0.61662 0.51417 0.0
O40 O 0.90338 0.62453 0.50582 0.0
O41 O 0.85318 0.5637 0.48834 0.0
Zn42 Zn 0.87516 0.57017 0.56548 0.0
O43 O 0.86934 0.53417 0.59331 0.0
C44 C 0.84907 0.59681 0.61741 0.0
O45 O 0.84553 0.59987 0.55806 0.0
O46 O 0.91341 0.59441 0.54195 0.0
C47 C 0.84548 0.51473 0.59693 0.0
O48 O 0.82604 0.51939 0.58536 0.0
C49 C 0.85303 0.54882 0.44434 0.0
O50 O 0.86782 0.53767 0.44911 0.0
O51 O 0.86242 0.58572 0.63233 0.0
C52 C 0.25811 0.83613 0.7564 0.0
O53 O 0.25207 0.83366 0.69671 0.0
O54 O 0.34507 0.86688 0.73344 0.0
Zn55 Zn 0.30902 0.85837 0.7028 0.0
O56 O 0.29472 0.82753 0.64275 0.0
C57 C 0.32535 0.91411 0.67318 0.0
O58 O 0.33742 0.91955 0.72758 0.0
O59 O 0.28245 0.84752 0.77232 0.0
C60 C 0.30577 0.82971 0.59034 0.0
O61 O 0.32814 0.852 0.57739 0.0
C62 C 0.35027 0.84816 0.74232 0.0
O63 O 0.33144 0.82296 0.73354 0.0
O64 O 0.312 0.88977 0.65498 0.0
C65 C 0.40277 0.31932 0.79778 0.0
O66 O 0.40005 0.30116 0.75657 0.0
O67 O 0.44596 0.29777 0.7572 0.0
Zn68 Zn 0.44581 0.3126 0.84181 0.0
O69 O 0.48208 0.34384 0.86256 0.0
C70 C 0.41626 0.2596 0.90009 0.0
O71 O 0.40081 0.25323 0.85077 0.0
O72 O 0.42026 0.32637 0.84039 0.0
C73 C 0.49925 0.34037 0.89095 0.0
O74 O 0.4935 0.31574 0.90503 0.0
C75 C 0.45433 0.2816 0.74695 0.0
O76 O 0.46482 0.27498 0.79301 0.0
O77 O 0.43562 0.28359 0.90616 0.0
C78 C 0.59639 0.84466 0.82527 0.0
O79 O 0.60145 0.84203 0.8838 0.0
O80 O 0.54123 0.8756 0.8539 0.0
Zn81 Zn 0.57194 0.87173 0.88273 0.0
O82 O 0.56043 0.84591 0.9547 0.0
C83 C 0.61107 0.9275 0.87312 0.0
O84 O 0.60445 0.92258 0.81389 0.0
O85 O 0.58449 0.8575 0.81289 0.0
C86 C 0.54388 0.84434 0.99544 0.0
O87 O 0.53373 0.86011 0.99079 0.0
C88 C 0.51833 0.85556 0.84222 0.0
O89 O 0.51439 0.83101 0.84733 0.0
O90 O 0.60049 0.90816 0.91189 0.0
C91 C 0.67553 0.57919 0.14982 0.0
O92 O 0.67469 0.56026 0.18582 0.0
O93 O 0.72347 0.55644 0.12841 0.0
Zn94 Zn 0.70031 0.55992 0.06395 0.0
O95 O 0.67061 0.52232 0.04536 0.0
C96 C 0.74681 0.58762 0.98465 0.0
O97 O 0.7596 0.59037 0.03711 0.0
O98 O 0.68573 0.58277 0.09572 0.0
C99 C 0.651 0.51664 0.00987 0.0
O100 O 0.64909 0.53629 0.98384 0.0
C101 C 0.73054 0.53923 0.11748 0.0
O102 O 0.72231 0.52486 0.06596 0.0
O103 O 0.72156 0.57601 0.98508 0.0
C104 C 0.08472 0.66987 0.28286 0.0
O105 O 0.09084 0.6509 0.28854 0.0
O106 O 0.16325 0.713 0.25383 0.0
Zn107 Zn 0.13031 0.6933 0.20127 0.0
O108 O 0.12595 0.65712 0.18104 0.0
C109 C 0.1541 0.7394 0.12083 0.0
O110 O 0.1663 0.75128 0.17294 0.0
O111 O 0.09867 0.68987 0.24734 0.0
C112 C 0.14699 0.65776 0.16275 0.0
O113 O 0.16889 0.68129 0.15649 0.0
C114 C 0.16537 0.70801 0.31057 0.0
O115 O 0.14454 0.68901 0.3401 0.0
O116 O 0.13671 0.71438 0.12151 0.0
C117 C 0.43066 0.15006 0.23191 0.0
O118 O 0.45327 0.16513 0.26138 0.0
O119 O 0.45977 0.11873 0.32282 0.0
Zn120 Zn 0.42567 0.11884 0.33617 0.0
O121 O 0.43239 0.14851 0.39655 0.0
C122 C 0.39537 0.08013 0.43065 0.0
O123 O 0.40977 0.10109 0.46667 0.0
O124 O 0.41423 0.12704 0.25435 0.0
C125 C 0.41844 0.15974 0.39362 0.0
O126 O 0.3996 0.15164 0.35132 0.0
C127 C 0.47163 0.11506 0.36821 0.0
O128 O 0.46137 0.1113 0.42444 0.0
O129 O 0.39804 0.08287 0.37169 0.0
C130 C 0.33006 0.42711 0.63375 0.0
O131 O 0.33224 0.44935 0.65655 0.0
O132 O 0.28155 0.44433 0.59576 0.0
Zn133 Zn 0.30819 0.44298 0.53849 0.0
O134 O 0.33974 0.48005 0.52362 0.0
C135 C 0.26544 0.40679 0.46081 0.0
O136 O 0.25697 0.39411 0.51437 0.0
O137 O 0.32025 0.41944 0.57946 0.0
C138 C 0.33693 0.50029 0.51429 0.0
O139 O 0.31292 0.49697 0.51325 0.0
C140 C 0.2851 0.46181 0.6368 0.0
O141 O 0.309 0.48269 0.64601 0.0
O142 O 0.28851 0.42767 0.45822 0.0
C143 C 0.91228 0.33763 0.78135 0.0
O144 O 0.89965 0.34848 0.80814 0.0
O145 O 0.83994 0.29372 0.76744 0.0
Zn146 Zn 0.86672 0.31489 0.70082 0.0
O147 O 0.86511 0.34832 0.68143 0.0
C148 C 0.84209 0.26682 0.62332 0.0
O149 O 0.83232 0.25443 0.67664 0.0
O150 O 0.90242 0.32328 0.73272 0.0
C151 C 0.84282 0.34414 0.66126 0.0
O152 O 0.8234 0.31912 0.65343 0.0
C153 C 0.82984 0.30338 0.80442 0.0
O154 O 0.83689 0.32896 0.80037 0.0
O155 O 0.85754 0.29229 0.62289 0.0
H156 H 0.21129 0.44646 0.16584 0.0
H157 H 0.13256 0.38014 0.21174 0.0
H158 H 0.15228 0.36476 0.29252 0.0
H159 H 0.24748 0.41025 0.19169 0.0
H160 H 0.27581 0.43958 0.22478 0.0
H161 H 0.25576 0.44354 0.16644 0.0
H162 H 0.24818 0.47441 0.24153 0.0
H163 H 0.26828 0.47067 0.29978 0.0
H164 H 0.23478 0.46219 0.31828 0.0
H165 H 0.18036 0.35917 0.3743 0.0
H166 H 0.21388 0.36499 0.45286 0.0
H167 H 0.27399 0.43486 0.35177 0.0
C168 C 0.19816 0.42847 0.19219 0.0
C169 C 0.17038 0.41447 0.18241 0.0
C170 C 0.15392 0.39116 0.21837 0.0
C171 C 0.16495 0.3822 0.26411 0.0
C172 C 0.19245 0.39667 0.27287 0.0
C173 C 0.2088 0.41929 0.23778 0.0
C174 C 0.23744 0.43246 0.25908 0.0
C175 C 0.25516 0.43138 0.20741 0.0
C176 C 0.24776 0.46165 0.28098 0.0
C177 C 0.23458 0.41422 0.31301 0.0
C178 C 0.20857 0.39345 0.31975 0.0
C179 C 0.20084 0.37513 0.36896 0.0
C180 C 0.22005 0.3786 0.41334 0.0
C181 C 0.2466 0.40033 0.4084 0.0
C182 C 0.25398 0.41783 0.35651 0.0
H183 H 0.80069 0.2152 0.60496 0.0
H184 H 0.86231 0.28509 0.50684 0.0
H185 H 0.84357 0.2626 0.40628 0.0
H186 H 0.79428 0.16279 0.48831 0.0
H187 H 0.75873 0.14332 0.49856 0.0
H188 H 0.77984 0.1625 0.56291 0.0
H189 H 0.75318 0.18708 0.57542 0.0
H190 H 0.73212 0.16812 0.51123 0.0
H191 H 0.74967 0.20448 0.50937 0.0
H192 H 0.81429 0.23703 0.31846 0.0
H193 H 0.77642 0.20938 0.24838 0.0
H194 H 0.73395 0.15493 0.40092 0.0
C195 C 0.81073 0.22541 0.56236 0.0
C196 C 0.83303 0.25186 0.56373 0.0
C197 C 0.84525 0.26481 0.50694 0.0
C198 C 0.83484 0.25212 0.44957 0.0
C199 C 0.81234 0.2264 0.44973 0.0
C200 C 0.80052 0.21303 0.50459 0.0
C201 C 0.77479 0.18687 0.49171 0.0
C202 C 0.77706 0.16242 0.51155 0.0
C203 C 0.75105 0.18665 0.52381 0.0
C204 C 0.77328 0.18835 0.42129 0.0
C205 C 0.79542 0.21113 0.39805 0.0
C206 C 0.79725 0.21872 0.33568 0.0
C207 C 0.77568 0.20299 0.29631 0.0
C208 C 0.75276 0.17987 0.31932 0.0
C209 C 0.75176 0.17203 0.38207 0.0
H210 H 0.58493 0.78861 0.48129 0.0
H211 H 0.60314 0.73002 0.55842 0.0
H212 H 0.61355 0.75364 0.66014 0.0
H213 H 0.63441 0.84811 0.57226 0.0
H214 H 0.61176 0.86051 0.58178 0.0
H215 H 0.60994 0.84161 0.51289 0.0
H216 H 0.56015 0.80789 0.53534 0.0
H217 H 0.56182 0.82654 0.60428 0.0
H218 H 0.55061 0.79106 0.6099 0.0
H219 H 0.61784 0.78106 0.75555 0.0
H220 H 0.61363 0.80858 0.83822 0.0
H221 H 0.59081 0.84801 0.69902 0.0
C222 C 0.59183 0.78117 0.51904 0.0
C223 C 0.59354 0.75768 0.51185 0.0
C224 C 0.60188 0.74811 0.5629 0.0
C225 C 0.60793 0.76145 0.62071 0.0
C226 C 0.60543 0.78423 0.62664 0.0
C227 C 0.59757 0.794 0.57713 0.0
C228 C 0.59371 0.81705 0.59718 0.0
C229 C 0.61365 0.84338 0.56406 0.0
C230 C 0.56486 0.81021 0.58603 0.0
C231 C 0.59989 0.81823 0.66611 0.0
C232 C 0.6071 0.7995 0.682 0.0
C233 C 0.6125 0.79599 0.74354 0.0
C234 C 0.61004 0.81173 0.79019 0.0
C235 C 0.60188 0.83045 0.77511 0.0
C236 C 0.59721 0.83398 0.71204 0.0
H237 H 0.85397 0.59582 0.7447 0.0
H238 H 0.81079 0.61024 0.59919 0.0
H239 H 0.78236 0.61394 0.67902 0.0
H240 H 0.79989 0.55448 0.83668 0.0
H241 H 0.81624 0.56717 0.91073 0.0
H242 H 0.8354 0.56906 0.84316 0.0
H243 H 0.86533 0.62074 0.85832 0.0
H244 H 0.84634 0.61899 0.92637 0.0
H245 H 0.8503 0.64144 0.86316 0.0
H246 H 0.75451 0.60922 0.77264 0.0
H247 H 0.73159 0.60004 0.87463 0.0
H248 H 0.79429 0.5912 0.95953 0.0
C249 C 0.83894 0.60037 0.7297 0.0
C250 C 0.8346 0.60272 0.6657 0.0
C251 C 0.81458 0.60847 0.64796 0.0
C252 C 0.7983 0.61061 0.69298 0.0
C253 C 0.80259 0.6074 0.75556 0.0
C254 C 0.82271 0.60286 0.77405 0.0
C255 C 0.8222 0.59867 0.84394 0.0
C256 C 0.81818 0.57068 0.8595 0.0
C257 C 0.84755 0.62132 0.87476 0.0
C258 C 0.79807 0.60056 0.8615 0.0
C259 C 0.78707 0.60569 0.80992 0.0
C260 C 0.76328 0.60584 0.81364 0.0
C261 C 0.75035 0.60049 0.87158 0.0
C262 C 0.76139 0.59531 0.92494 0.0
C263 C 0.78574 0.59576 0.91981 0.0
H264 H 0.26315 0.8407 0.88378 0.0
H265 H 0.20513 0.80134 0.73574 0.0
H266 H 0.17055 0.7753 0.81431 0.0
H267 H 0.24216 0.78468 0.97759 0.0
H268 H 0.24746 0.80208 0.05093 0.0
H269 H 0.26682 0.82003 0.98373 0.0
H270 H 0.25155 0.85503 0.99541 0.0
H271 H 0.23218 0.83722 0.063 0.0
H272 H 0.21652 0.84363 0.99799 0.0
H273 H 0.14406 0.74903 0.90766 0.0
H274 H 0.12706 0.72661 0.00967 0.0
H275 H 0.20169 0.78466 0.09675 0.0
C276 C 0.24305 0.82703 0.86793 0.0
C277 C 0.23685 0.82305 0.80366 0.0
C278 C 0.21034 0.80483 0.78477 0.0
C279 C 0.19054 0.78993 0.82905 0.0
C280 C 0.19747 0.79383 0.89201 0.0
C281 C 0.223 0.81222 0.9115 0.0
C282 C 0.22565 0.81151 0.98166 0.0
C283 C 0.24677 0.80412 -0.00052 0.0
C284 C 0.23184 0.83845 0.01125 0.0
C285 C 0.19792 0.78913 0.99831 0.0
C286 C 0.18189 0.77926 0.94605 0.0
C287 C 0.15621 0.75697 0.94915 0.0
C288 C 0.14676 0.74431 0.00714 0.0
C289 C 0.16294 0.75412 0.0611 0.0
C290 C 0.18864 0.77709 0.05657 0.0
H291 H 0.45851 0.20127 0.1858 0.0
H292 H 0.38697 0.12375 0.15509 0.0
H293 H 0.37499 0.14321 0.06646 0.0
H294 H 0.42951 0.24166 0.15456 0.0
H295 H 0.45878 0.26815 0.11692 0.0
H296 H 0.46198 0.24777 0.17623 0.0
H297 H 0.4881 0.23498 0.09915 0.0
H298 H 0.48513 0.25545 0.03973 0.0
H299 H 0.47358 0.22036 0.02457 0.0
H300 H 0.37107 0.17178 0.98085 0.0
H301 H 0.37558 0.20677 0.90626 0.0
H302 H 0.44918 0.26522 0.9969 0.0
C303 C 0.44041 0.18825 0.16026 0.0
C304 C 0.42373 0.16095 0.17716 0.0
C305 C 0.40009 0.14472 0.14281 0.0
C306 C 0.39311 0.1556 0.09248 0.0
C307 C 0.40994 0.18272 0.07748 0.0
C308 C 0.43309 0.19878 0.11047 0.0
C309 C 0.4476 0.22739 0.08606 0.0
C310 C 0.44957 0.24741 0.13645 0.0
C311 C 0.47523 0.23498 0.06087 0.0
C312 C 0.42905 0.22499 0.03396 0.0
C313 C 0.40746 0.1991 0.02948 0.0
C314 C 0.38788 0.19213 0.98407 0.0
C315 C 0.39059 0.21213 0.94198 0.0
C316 C 0.41265 0.23875 0.94588 0.0
C317 C 0.43196 0.24513 0.99283 0.0
H318 H 0.08663 0.49873 0.12557 0.0
H319 H 0.16731 0.51651 0.09052 0.0
H320 H 0.18376 0.565 0.10436 0.0
H321 H 0.0921 0.55574 0.04517 0.0
H322 H 0.07223 0.56154 0.10046 0.0
H323 H 0.06662 0.52798 0.08943 0.0
H324 H 0.07365 0.52453 0.20781 0.0
H325 H 0.07917 0.55804 0.21925 0.0
H326 H 0.10384 0.55002 0.24457 0.0
H327 H 0.19146 0.61141 0.11829 0.0
H328 H 0.19019 0.65311 0.13577 0.0
H329 H 0.1047 0.60556 0.16349 0.0
C330 C 0.10777 0.5128 0.12115 0.0
C331 C 0.12566 0.50379 0.10692 0.0
C332 C 0.15319 0.52288 0.10147 0.0
C333 C 0.16276 0.55049 0.10917 0.0
C334 C 0.14459 0.55871 0.12256 0.0
C335 C 0.11771 0.54048 0.12892 0.0
C336 C 0.10247 0.55476 0.14323 0.0
C337 C 0.08216 0.54971 0.09148 0.0
C338 C 0.08899 0.54634 0.20755 0.0
C339 C 0.125 0.58386 0.14345 0.0
C340 C 0.14909 0.58563 0.13131 0.0
C341 C 0.17274 0.61032 0.12812 0.0
C342 C 0.17178 0.63389 0.13798 0.0
C343 C 0.14736 0.63261 0.15106 0.0
C344 C 0.12368 0.6072 0.15374 0.0
H345 H 0.59635 0.13368 0.17343 0.0
H346 H 0.62362 0.11333 0.34233 0.0
H347 H 0.58406 0.10742 0.39845 0.0
H348 H 0.5706 0.17147 0.24737 0.0
H349 H 0.54246 0.15951 0.1956 0.0
H350 H 0.57274 0.16176 0.1685 0.0
H351 H 0.54654 0.11116 0.13771 0.0
H352 H 0.51618 0.10877 0.16466 0.0
H353 H 0.52646 0.0863 0.19549 0.0
H354 H 0.54194 0.10456 0.43664 0.0
H355 H 0.49994 0.10426 0.4537 0.0
H356 H 0.50014 0.1261 0.25947 0.0
C357 C 0.59402 0.12793 0.22218 0.0
C358 C 0.61311 0.12398 0.25348 0.0
C359 C 0.60926 0.11645 0.31732 0.0
C360 C 0.58686 0.11305 0.34963 0.0
C361 C 0.56848 0.1172 0.3174 0.0
C362 C 0.57177 0.1244 0.25507 0.0
C363 C 0.54915 0.12772 0.23134 0.0
C364 C 0.55935 0.15685 0.20943 0.0
C365 C 0.53367 0.10726 0.17922 0.0
C366 C 0.53266 0.12138 0.29014 0.0
C367 C 0.54415 0.11537 0.33927 0.0
C368 C 0.53271 0.10916 0.39848 0.0
C369 C 0.50887 0.10907 0.40771 0.0
C370 C 0.49672 0.11511 0.35793 0.0
C371 C 0.50886 0.1213 0.29844 0.0
H372 H 0.38634 0.5138 0.47133 0.0
H373 H 0.34064 0.5481 0.5452 0.0
H374 H 0.38064 0.59364 0.54085 0.0
H375 H 0.44786 0.55768 0.54921 0.0
H376 H 0.46838 0.56042 0.48349 0.0
H377 H 0.43635 0.53044 0.49367 0.0
H378 H 0.42234 0.53649 0.38276 0.0
H379 H 0.45438 0.5664 0.37209 0.0
H380 H 0.4245 0.56797 0.36231 0.0
H381 H 0.42596 0.63494 0.53318 0.0
H382 H 0.47239 0.67018 0.51134 0.0
H383 H 0.48784 0.6095 0.43502 0.0
C384 C 0.3848 0.53093 0.4866 0.0
C385 C 0.36052 0.52753 0.50896 0.0
C386 C 0.35909 0.55036 0.52777 0.0
C387 C 0.38171 0.57624 0.52577 0.0
C388 C 0.40542 0.57891 0.50388 0.0
C389 C 0.40703 0.55696 0.48366 0.0
C390 C 0.43465 0.56551 0.4598 0.0
C391 C 0.44757 0.55275 0.49889 0.0
C392 C 0.43391 0.55869 0.3901 0.0
C393 C 0.44837 0.59569 0.47024 0.0
C394 C 0.43123 0.60293 0.49649 0.0
C395 C 0.43951 0.62956 0.51217 0.0
C396 C 0.46594 0.64939 0.49988 0.0
C397 C 0.48361 0.64253 0.4713 0.0
C398 C 0.47467 0.61531 0.45648 0.0
H399 H 0.88091 0.49808 0.62537 0.0
H400 H 0.7969 0.46844 0.59515 0.0
H401 H 0.78722 0.42174 0.6092 0.0
H402 H 0.88355 0.44548 0.54423 0.0
H403 H 0.9064 0.44371 0.59801 0.0
H404 H 0.9068 0.475 0.58772 0.0
H405 H 0.89986 0.47718 0.70662 0.0
H406 H 0.89959 0.44596 0.71735 0.0
H407 H 0.87202 0.44905 0.74454 0.0
H408 H 0.78679 0.37831 0.62165 0.0
H409 H 0.79532 0.34087 0.63716 0.0
H410 H 0.8795 0.39855 0.66149 0.0
C411 C 0.86045 0.48179 0.62217 0.0
C412 C 0.83966 0.48693 0.60912 0.0
C413 C 0.81316 0.46503 0.60523 0.0
C414 C 0.80745 0.43841 0.61303 0.0
C415 C 0.82843 0.43404 0.62507 0.0
C416 C 0.85437 0.45509 0.63015 0.0
C417 C 0.87324 0.44479 0.64299 0.0
C418 C 0.8937 0.45272 0.59007 0.0
C419 C 0.88698 0.45485 0.70667 0.0
C420 C 0.85385 0.41465 0.64376 0.0
C421 C 0.82813 0.40892 0.63317 0.0
C422 C 0.80682 0.38253 0.63037 0.0
C423 C 0.8119 0.3614 0.63904 0.0
C424 C 0.83807 0.36677 0.65065 0.0
C425 C 0.85927 0.3938 0.65297 0.0
H426 H 0.36832 0.81297 0.76195 0.0
H427 H 0.39395 0.89832 0.76048 0.0
H428 H 0.43975 0.90943 0.78508 0.0
H429 H 0.41004 0.81587 0.88982 0.0
H430 H 0.41677 0.79121 0.85608 0.0
H431 H 0.38594 0.79 0.83901 0.0
H432 H 0.39584 0.79194 0.72055 0.0
H433 H 0.42675 0.79329 0.73726 0.0
H434 H 0.42662 0.81925 0.69032 0.0
H435 H 0.48282 0.91132 0.80826 0.0
H436 H 0.52003 0.90385 0.83126 0.0
H437 H 0.46631 0.81724 0.81776 0.0
C438 C 0.38351 0.83401 0.76704 0.0
C439 C 0.37752 0.85478 0.7593 0.0
C440 C 0.39803 0.88205 0.76626 0.0
C441 C 0.42412 0.88858 0.78015 0.0
C442 C 0.42937 0.86762 0.78699 0.0
C443 C 0.40965 0.84089 0.78092 0.0
C444 C 0.42058 0.82221 0.79046 0.0
C445 C 0.40756 0.80374 0.84723 0.0
C446 C 0.41725 0.8057 0.73111 0.0
C447 C 0.44956 0.84263 0.80278 0.0
C448 C 0.45421 0.8687 0.80048 0.0
C449 C 0.47942 0.891 0.81028 0.0
C450 C 0.50044 0.88653 0.82324 0.0
C451 C 0.49612 0.85995 0.82633 0.0
C452 C 0.4703 0.83779 0.81567 0.0
H453 H 0.51687 0.39404 0.87108 0.0
H454 H 0.53917 0.33995 0.95734 0.0
H455 H 0.5807 0.37921 0.9957 0.0
H456 H 0.58334 0.44506 0.82258 0.0
H457 H 0.57796 0.4727 0.83891 0.0
H458 H 0.5504 0.44031 0.81652 0.0
H459 H 0.52526 0.43932 0.91713 0.0
H460 H 0.55277 0.47164 0.93999 0.0
H461 H 0.54093 0.44319 0.99204 0.0
H462 H 0.61889 0.42418 0.02793 0.0
H463 H 0.65188 0.47185 0.04943 0.0
H464 H 0.60486 0.49672 0.94157 0.0
C465 C 0.53056 0.39041 0.89763 0.0
C466 C 0.52476 0.36389 0.91118 0.0
C467 C 0.54318 0.36006 0.94626 0.0
C468 C 0.56683 0.38223 0.96831 0.0
C469 C 0.57177 0.40808 0.95469 0.0
C470 C 0.55425 0.41229 0.91992 0.0
C471 C 0.56413 0.44212 0.91262 0.0
C472 C 0.56927 0.45054 0.84355 0.0
C473 C 0.54461 0.44949 0.94223 0.0
C474 C 0.58986 0.45403 0.9492 0.0
C475 C 0.59388 0.43404 0.97303 0.0
C476 C 0.61603 0.44002 0.00928 0.0
C477 C 0.63462 0.46719 0.02133 0.0
C478 C 0.63099 0.48806 0.99713 0.0
C479 C 0.60826 0.48128 0.96058 0.0
H480 H 0.28533 0.49344 0.73344 0.0
H481 H 0.23352 0.42077 0.62785 0.0
H482 H 0.19594 0.41229 0.69544 0.0
H483 H 0.25877 0.46712 0.88161 0.0
H484 H 0.26143 0.49775 0.91126 0.0
H485 H 0.28398 0.49941 0.85172 0.0
H486 H 0.27012 0.52676 0.7808 0.0
H487 H 0.24754 0.52523 0.84025 0.0
H488 H 0.23547 0.51326 0.7625 0.0
H489 H 0.16497 0.40956 0.77851 0.0
H490 H 0.14206 0.41343 0.87122 0.0
H491 H 0.21342 0.4883 0.922 0.0
C492 C 0.26601 0.47593 0.72404 0.0
C493 C 0.26239 0.45778 0.67537 0.0
C494 C 0.23682 0.43498 0.66487 0.0
C495 C 0.2153 0.42999 0.7029 0.0
C496 C 0.21962 0.44807 0.75094 0.0
C497 C 0.24426 0.47066 0.76149 0.0
C498 C 0.2437 0.48623 0.81796 0.0
C499 C 0.26312 0.4877 0.86862 0.0
C500 C 0.24955 0.51455 0.79924 0.0
C501 C 0.21505 0.46852 0.83817 0.0
C502 C 0.20151 0.44668 0.79866 0.0
C503 C 0.17522 0.42673 0.80941 0.0
C504 C 0.16243 0.42907 0.86228 0.0
C505 C 0.17593 0.45123 0.90353 0.0
C506 C 0.20249 0.47134 0.8908 0.0
H507 H 0.75595 0.17336 0.01968 0.0
H508 H 0.71226 0.20815 0.10289 0.0
H509 H 0.73499 0.24736 0.03184 0.0
H510 H 0.81723 0.23419 0.00034 0.0
H511 H 0.82481 0.22462 0.92645 0.0
H512 H 0.80446 0.19908 0.98247 0.0
H513 H 0.76706 0.17546 0.89983 0.0
H514 H 0.78734 0.2009 0.84344 0.0
H515 H 0.75441 0.19449 0.86094 0.0
H516 H 0.76465 0.28396 0.95533 0.0
H517 H 0.79684 0.31369 0.87543 0.0
H518 H 0.81946 0.25355 0.84127 0.0
C519 C 0.75105 0.18916 0.02283 0.0
C520 C 0.73244 0.18783 0.06682 0.0
C521 C 0.72643 0.20879 0.06928 0.0
C522 C 0.73927 0.23113 0.02927 0.0
C523 C 0.75776 0.23194 0.98682 0.0
C524 C 0.76341 0.21135 0.98298 0.0
C525 C 0.78408 0.217 0.93359 0.0
C526 C 0.80912 0.21884 0.96247 0.0
C527 C 0.77252 0.1957 0.88136 0.0
C528 C 0.78949 0.24418 0.91072 0.0
C529 C 0.77422 0.25255 0.942 0.0
C530 C 0.77654 0.2775 0.93014 0.0
C531 C 0.79491 0.29426 0.88489 0.0
C532 C 0.81052 0.28585 0.852 0.0
C533 C 0.80763 0.26044 0.86518 0.0
H534 H 0.55705 0.73995 0.21457 0.0
H535 H 0.49474 0.73729 0.33065 0.0
H536 H 0.49045 0.76809 0.25749 0.0
H537 H 0.58833 0.80918 0.17573 0.0
H538 H 0.59603 0.80475 0.09669 0.0
H539 H 0.59325 0.78148 0.15654 0.0
H540 H 0.5576 0.74149 0.09107 0.0
H541 H 0.56035 0.76466 0.03087 0.0
H542 H 0.52842 0.74195 0.06517 0.0
H543 H 0.4946 0.80102 0.17414 0.0
H544 H 0.50611 0.83259 0.08551 0.0
H545 H 0.56525 0.81292 0.02424 0.0
C546 C 0.54233 0.74563 0.22444 0.0
C547 C 0.52622 0.7362 0.27834 0.0
C548 C 0.50726 0.74421 0.28956 0.0
C549 C 0.50468 0.7617 0.24831 0.0
C550 C 0.52109 0.77085 0.19596 0.0
C551 C 0.53943 0.76296 0.18376 0.0
C552 C 0.55508 0.77608 0.12503 0.0
C553 C 0.58493 0.79393 0.13939 0.0
C554 C 0.55005 0.75477 0.07508 0.0
C555 C 0.54291 0.79287 0.1065 0.0
C556 C 0.52332 0.78957 0.14787 0.0
C557 C 0.50978 0.80363 0.14118 0.0
C558 C 0.51649 0.82154 0.0908 0.0
C559 C 0.53652 0.82517 0.0479 0.0
C560 C 0.54974 0.8105 0.05598 0.0
H561 H 0.82217 0.57097 0.41838 0.0
H562 H 0.84497 0.515 0.34589 0.0
H563 H 0.81561 0.50601 0.25475 0.0
H564 H 0.7537 0.53342 0.37193 0.0
H565 H 0.75206 0.563 0.35181 0.0
H566 H 0.77485 0.56498 0.41124 0.0
H567 H 0.81408 0.60396 0.35112 0.0
H568 H 0.79142 0.60215 0.29158 0.0
H569 H 0.81969 0.59907 0.27064 0.0
H570 H 0.78357 0.50298 0.17203 0.0
H571 H 0.75202 0.50691 0.10227 0.0
H572 H 0.75063 0.56519 0.22901 0.0
C573 C 0.82103 0.55682 0.38339 0.0
C574 C 0.83585 0.54366 0.38925 0.0
C575 C 0.83382 0.52534 0.34233 0.0
C576 C 0.81718 0.52006 0.29047 0.0
C577 C 0.80279 0.53333 0.28629 0.0
C578 C 0.80462 0.55138 0.33139 0.0
C579 C 0.78726 0.56314 0.31566 0.0
C580 C 0.76569 0.55568 0.36563 0.0
C581 C 0.80412 0.5939 0.30671 0.0
C582 C 0.77535 0.54888 0.25459 0.0
C583 C 0.7845 0.53172 0.23853 0.0
C584 C 0.77628 0.51636 0.18408 0.0
C585 C 0.75833 0.51872 0.14482 0.0
C586 C 0.74886 0.53637 0.16017 0.0
C587 C 0.75749 0.55153 0.21594 0.0
H588 H 0.17455 0.71277 0.43665 0.0
H589 H 0.214 0.74036 0.25751 0.0
H590 H 0.25642 0.77012 0.31132 0.0
H591 H 0.20593 0.77531 0.5077 0.0
H592 H 0.20856 0.76353 0.58388 0.0
H593 H 0.18239 0.7413 0.53174 0.0
H594 H 0.1978 0.7063 0.54072 0.0
H595 H 0.22413 0.72854 0.59295 0.0
H596 H 0.23181 0.71637 0.52306 0.0
H597 H 0.29317 0.80035 0.38357 0.0
H598 H 0.32084 0.83045 0.46879 0.0
H599 H 0.25736 0.78351 0.6007 0.0
C600 C 0.19226 0.72458 0.40881 0.0
C601 C 0.19104 0.72416 0.343 0.0
C602 C 0.2145 0.74037 0.30808 0.0
C603 C 0.23873 0.75719 0.33818 0.0
C604 C 0.23918 0.75753 0.40318 0.0
C605 C 0.21656 0.74166 0.43813 0.0
C606 C 0.22176 0.74786 0.50708 0.0
C607 C 0.20359 0.75759 0.53414 0.0
C608 C 0.2187 0.7233 0.54306 0.0
C609 C 0.25052 0.77038 0.50517 0.0
C610 C 0.26037 0.7753 0.44498 0.0
C611 C 0.28584 0.79644 0.43106 0.0
C612 C 0.30141 0.81344 0.47977 0.0
C613 C 0.29129 0.80932 0.54138 0.0
C614 C 0.26579 0.78705 0.55423 0.0
H615 H 0.46792 0.24447 0.70932 0.0
H616 H 0.42976 0.28837 0.64565 0.0
H617 H 0.41841 0.26347 0.54611 0.0
H618 H 0.49498 0.24111 0.55661 0.0
H619 H 0.48906 0.20758 0.57052 0.0
H620 H 0.49594 0.2303 0.6351 0.0
H621 H 0.4521 0.19479 0.68839 0.0
H622 H 0.44502 0.17205 0.62388 0.0
H623 H 0.42113 0.18157 0.64653 0.0
H624 H 0.40784 0.2313 0.4576 0.0
H625 H 0.40074 0.19538 0.38334 0.0
H626 H 0.44664 0.17312 0.50313 0.0
C627 C 0.45754 0.24916 0.6741 0.0
C628 C 0.44975 0.26839 0.68531 0.0
C629 C 0.43601 0.27378 0.63814 0.0
C630 C 0.42946 0.25974 0.58139 0.0
C631 C 0.43698 0.24055 0.57231 0.0
C632 C 0.45094 0.23541 0.61703 0.0
C633 C 0.4558 0.21308 0.59634 0.0
C634 C 0.48573 0.22366 0.58921 0.0
C635 C 0.44273 0.18895 0.64147 0.0
C636 C 0.44192 0.20613 0.5336 0.0
C637 C 0.43124 0.22224 0.52061 0.0
C638 C 0.41639 0.21876 0.46683 0.0
C639 C 0.41237 0.19824 0.42511 0.0
C640 C 0.42325 0.18159 0.43736 0.0
C641 C 0.43835 0.18576 0.49216 0.0
H642 H 0.03721 0.39847 0.01108 0.0
H643 H 0.05737 0.34199 0.92925 0.0
H644 H 0.01681 0.32278 0.86466 0.0
H645 H 0.96459 0.35201 0.01337 0.0
H646 H 0.95775 0.37844 0.99435 0.0
H647 H 0.98725 0.38621 0.03785 0.0
H648 H 0.01609 0.42217 0.9552 0.0
H649 H 0.98676 0.41429 0.91103 0.0
H650 H 0.01359 0.41242 0.87434 0.0
H651 H 0.97656 0.31259 0.8021 0.0
H652 H 0.937 0.30941 0.75186 0.0
H653 H 0.94243 0.37186 0.87572 0.0
C654 C 0.03285 0.38172 0.98048 0.0
C655 C 0.05049 0.37174 0.97524 0.0
C656 C 0.04415 0.34994 0.93422 0.0
C657 C 0.02117 0.33892 0.89721 0.0
C658 C 0.00464 0.34975 0.90217 0.0
C659 C 0.00995 0.3704 0.94336 0.0
C660 C 0.98935 0.37894 0.93817 0.0
C661 C 0.97381 0.37357 -0.00041 0.0
C662 C 0.00223 0.40872 0.9185 0.0
C663 C 0.97194 0.36022 0.88676 0.0
C664 C 0.98113 0.34357 0.86665 0.0
C665 C 0.96897 0.32529 0.81792 0.0
C666 C 0.94661 0.32376 0.78945 0.0
C667 C 0.93657 0.34032 0.80999 0.0
C668 C 0.9495 0.3588 0.85925 0.0
H669 H 0.62397 0.9449 0.99431 0.0
H670 H 0.63408 0.97365 0.80312 0.0
H671 H 0.65537 0.0205 0.84147 0.0
H672 H 0.60545 0.98802 0.05608 0.0
H673 H 0.62268 0.99384 0.12947 0.0
H674 H 0.61207 0.96291 0.08757 0.0
H675 H 0.66033 0.97197 0.08745 0.0
H676 H 0.67111 0.00288 0.13004 0.0
H677 H 0.68681 0.00346 0.05713 0.0
H678 H 0.66896 0.06287 0.89964 0.0
H679 H 0.67678 0.09883 0.97425 0.0
H680 H 0.65936 0.04337 0.12847 0.0
C681 C 0.63131 0.96108 0.96041 0.0
C682 C 0.62737 0.9556 0.89565 0.0
C683 C 0.63693 0.97734 0.8529 0.0
C684 C 0.64909 0.00404 0.87423 0.0
C685 C 0.65184 0.00867 0.93839 0.0
C686 C 0.64358 0.98786 0.98092 0.0
C687 C 0.64701 0.99817 0.04745 0.0
C688 C 0.62021 0.98495 0.08214 0.0
C689 C 0.66755 0.99387 0.08258 0.0
C690 C 0.65747 0.02786 0.03558 0.0
C691 C 0.66028 0.03346 0.9723 0.0
C692 C 0.66739 0.05889 0.94931 0.0
C693 C 0.6716 0.07911 0.99202 0.0
C694 C 0.66882 0.07385 0.057 0.0
C695 C 0.66209 0.04801 0.07907 0.0
H696 H 0.65225 0.57686 0.26302 0.0
H697 H 0.67325 0.61909 0.08532 0.0
H698 H 0.65367 0.64617 0.12005 0.0
H699 H 0.58964 0.57276 0.2805 0.0
H700 H 0.59268 0.57819 0.36374 0.0
H701 H 0.60927 0.5628 0.326 0.0
H702 H 0.6543 0.59959 0.37225 0.0
H703 H 0.63783 0.6151 0.41019 0.0
H704 H 0.66543 0.63469 0.35851 0.0
H705 H 0.63082 0.66776 0.17252 0.0
H706 H 0.60596 0.68235 0.23907 0.0
H707 H 0.59967 0.62611 0.3829 0.0
C708 C 0.65287 0.59189 0.23148 0.0
C709 C 0.66432 0.59585 0.17141 0.0
C710 C 0.66463 0.6157 0.13157 0.0
C711 C 0.65358 0.63121 0.15088 0.0
C712 C 0.64236 0.62671 0.21022 0.0
C713 C 0.64195 0.60758 0.25002 0.0
C714 C 0.6282 0.60643 0.31095 0.0
C715 C 0.60348 0.57838 0.32084 0.0
C716 C 0.6476 0.61444 0.36624 0.0
C717 C 0.6206 0.62762 0.29877 0.0
C718 C 0.62911 0.63916 0.24053 0.0
C719 C 0.62414 0.65895 0.21833 0.0
C720 C 0.60997 0.66709 0.25654 0.0
C721 C 0.60084 0.65539 0.31629 0.0
C722 C 0.60641 0.63549 0.33759 0.0
H723 H 0.05167 0.63033 0.36461 0.0
H724 H 0.06617 0.70518 0.27954 0.0
H725 H 0.02756 0.7015 0.336 0.0
H726 H 0.98163 0.59624 0.35594 0.0
H727 H 0.97636 0.57922 0.42978 0.0
H728 H 0.00608 0.58872 0.3857 0.0
H729 H 0.03483 0.61534 0.48111 0.0
H730 H 0.00515 0.60599 0.52545 0.0
H731 H 0.03011 0.64108 0.51641 0.0
H732 H 0.98578 0.68821 0.39694 0.0
H733 H 0.9437 0.66594 0.45644 0.0
H734 H 0.9572 0.60029 0.50262 0.0
C735 C 0.04689 0.64609 0.35815 0.0
C736 C 0.06196 0.66805 0.31764 0.0
C737 C 0.05493 0.68817 0.31037 0.0
C738 C 0.03308 0.6863 0.34237 0.0
C739 C 0.01858 0.66431 0.38173 0.0
C740 C 0.02523 0.64459 0.38981 0.0
C741 C 0.00582 0.62246 0.43286 0.0
C742 C 0.99163 0.59505 0.39903 0.0
C743 C 0.01982 0.62115 0.49249 0.0
C744 C 0.98691 0.63254 0.44677 0.0
C745 C 0.99469 0.6568 0.41722 0.0
C746 C 0.97963 0.66935 0.42081 0.0
C747 C 0.95576 0.65655 0.4547 0.0
C748 C 0.94722 0.63145 0.48445 0.0
C749 C 0.96332 0.61962 0.48111 0.0
H750 H 0.39524 0.06555 0.55208 0.0
H751 H 0.35792 0.03376 0.37238 0.0
H752 H 0.33247 0.98809 0.41827 0.0
H753 H 0.40481 0.01223 0.59028 0.0
H754 H 0.39848 0.01241 0.6726 0.0
H755 H 0.41107 0.04298 0.62793 0.0
H756 H 0.37125 0.04787 0.66351 0.0
H757 H 0.35855 0.0173 0.70858 0.0
H758 H 0.33779 0.02042 0.65075 0.0
H759 H 0.31393 0.94558 0.48147 0.0
H760 H 0.30459 0.90913 0.55599 0.0
H761 H 0.35496 0.96875 0.69379 0.0
C762 C 0.38129 0.04911 0.52262 0.0
C763 C 0.37839 0.05322 0.45874 0.0
C764 C 0.36036 0.03106 0.42149 0.0
C765 C 0.34577 0.00509 0.4472 0.0
C766 C 0.34948 0.00167 0.51012 0.0
C767 C 0.36679 0.02308 0.54734 0.0
C768 C 0.36882 0.01373 0.61214 0.0
C769 C 0.39749 0.02075 0.62654 0.0
C770 C 0.35848 0.02553 0.66166 0.0
C771 C 0.35041 0.98361 0.60517 0.0
C772 C 0.33917 0.9771 0.54626 0.0
C773 C 0.3224 0.95045 0.52792 0.0
C774 C 0.31725 0.92988 0.57063 0.0
C775 C 0.32903 0.93607 0.63082 0.0
C776 C 0.3455 0.96335 0.64836 0.0
H777 H 0.33271 0.3825 0.59826 0.0
H778 H 0.34758 0.43665 0.75431 0.0
H779 H 0.36369 0.41188 0.81692 0.0
H780 H 0.31152 0.32111 0.69174 0.0
H781 H 0.3278 0.30894 0.64094 0.0
H782 H 0.31519 0.32943 0.60981 0.0
H783 H 0.36188 0.36323 0.56573 0.0
H784 H 0.37456 0.34281 0.59645 0.0
H785 H 0.39013 0.37795 0.61762 0.0
H786 H 0.38128 0.38371 0.86001 0.0
H787 H 0.40035 0.35462 0.87948 0.0
H788 H 0.37375 0.31841 0.69623 0.0
C789 C 0.33904 0.38892 0.64585 0.0
C790 C 0.33884 0.41148 0.67138 0.0
C791 C 0.34755 0.41943 0.73366 0.0
C792 C 0.35662 0.40541 0.76979 0.0
C793 C 0.35676 0.38341 0.74312 0.0
C794 C 0.3482 0.37516 0.68263 0.0
C795 C 0.35193 0.35187 0.66401 0.0
C796 C 0.325 0.32633 0.65086 0.0
C797 C 0.37075 0.35943 0.60764 0.0
C798 C 0.36455 0.34882 0.72292 0.0
C799 C 0.36689 0.36702 0.7682 0.0
C800 C 0.3793 0.36913 0.82524 0.0
C801 C 0.39008 0.35255 0.83584 0.0
C802 C 0.38843 0.33417 0.78953 0.0
C803 C 0.375 0.33197 0.73292 0.0
loop_
_geom_bond_atom_site_label_1
_geom_bond_atom_site_label_2
_geom_bond_distance
_geom_bond_site_symmetry_2
_ccdc_geom_bond_type
C0 O1 1.160 . S
C0 O7 1.185 1_556 S
O1 C0 1.160 . S
O2 Zn3 1.899 1_556 S
O2 C10 1.284 . S
Zn3 O2 1.899 1_554 S
Zn3 O4 2.032 . S
Zn3 O7 2.086 . S
Zn3 O12 1.977 . S
O4 Zn3 2.032 . S
O4 C8 1.278 . S
C5 O6 1.203 . S
C5 O12 1.267 . S
O6 C5 1.203 . S
O7 C0 1.185 1_554 S
O7 Zn3 2.086 . S
C8 O4 1.278 . S
C8 O9 1.211 . S
O9 C8 1.211 . S
C10 O2 1.284 . S
C10 O11 1.273 . S
O11 C10 1.273 . S
O12 Zn3 1.977 . S
O12 C5 1.267 . S
C13 O14 1.160 . S
C13 O20 1.185 . S
O14 C13 1.160 . S
O15 Zn16 1.899 . S
O15 C23 1.284 . S
Zn16 O15 1.899 . S
Zn16 O17 2.032 . S
Zn16 O20 2.086 . S
Zn16 O25 1.977 . S
O17 Zn16 2.032 . S
O17 C21 1.278 . S
C18 O19 1.203 . S
C18 O25 1.267 . S
O19 C18 1.203 . S
O20 C13 1.185 . S
O20 Zn16 2.086 . S
C21 O17 1.278 . S
C21 O22 1.211 . S
O22 C21 1.211 . S
C23 O15 1.284 . S
C23 O24 1.273 . S
O24 C23 1.273 . S
O25 Zn16 1.977 . S
O25 C18 1.267 . S
C26 O27 1.160 . S
C26 O33 1.185 . S
O27 C26 1.160 . S
O28 Zn29 1.899 . S
O28 C36 1.284 . S
Zn29 O28 1.899 . S
Zn29 O30 2.032 . S
Zn29 O33 2.086 . S
Zn29 O38 1.977 . S
O30 Zn29 2.032 . S
O30 C34 1.278 . S
C31 O32 1.203 . S
C31 O38 1.267 . S
O32 C31 1.203 . S
O33 C26 1.185 . S
O33 Zn29 2.086 . S
C34 O30 1.278 . S
C34 O35 1.211 . S
O35 C34 1.211 . S
C36 O28 1.284 . S
C36 O37 1.273 . S
O37 C36 1.273 . S
O38 Zn29 1.977 . S
O38 C31 1.267 . S
C39 O40 1.160 . S
C39 O46 1.185 . S
O40 C39 1.160 . S
O41 Zn42 1.899 . S
O41 C49 1.284 . S
Zn42 O41 1.899 . S
Zn42 O43 2.032 . S
Zn42 O46 2.086 . S
Zn42 O51 1.977 . S
O43 Zn42 2.032 . S
O43 C47 1.278 . S
C44 O45 1.203 . S
C44 O51 1.267 . S
O45 C44 1.203 . S
O46 C39 1.185 . S
O46 Zn42 2.086 . S
C47 O43 1.278 . S
C47 O48 1.211 . S
O48 C47 1.211 . S
C49 O41 1.284 . S
C49 O50 1.273 . S
O50 C49 1.273 . S
O51 Zn42 1.977 . S
O51 C44 1.267 . S
C52 O53 1.160 . S
C52 O59 1.185 . S
O53 C52 1.160 . S
O54 Zn55 1.899 . S
O54 C62 1.284 . S
Zn55 O54 1.899 . S
Zn55 O56 2.032 . S
Zn55 O59 2.086 . S
Zn55 O64 1.977 . S
O56 Zn55 2.032 . S
O56 C60 1.278 . S
C57 O58 1.203 . S
C57 O64 1.267 . S
O58 C57 1.203 . S
O59 C52 1.185 . S
O59 Zn55 2.086 . S
C60 O56 1.278 . S
C60 O61 1.211 . S
O61 C60 1.211 . S
C62 O54 1.284 . S
C62 O63 1.273 . S
O63 C62 1.273 . S
O64 Zn55 1.977 . S
O64 C57 1.267 . S
C65 O66 1.160 . S
C65 O72 1.185 . S
O66 C65 1.160 . S
O67 Zn68 1.899 . S
O67 C75 1.284 . S
Zn68 O67 1.899 . S
Zn68 O69 2.032 . S
Zn68 O72 2.086 . S
Zn68 O77 1.977 . S
O69 Zn68 2.032 . S
O69 C73 1.278 . S
C70 O71 1.203 . S
C70 O77 1.267 . S
O71 C70 1.203 . S
O72 C65 1.185 . S
O72 Zn68 2.086 . S
C73 O69 1.278 . S
C73 O74 1.211 . S
O74 C73 1.211 . S
C75 O67 1.284 . S
C75 O76 1.273 . S
O76 C75 1.273 . S
O77 Zn68 1.977 . S
O77 C70 1.267 . S
C78 O79 1.160 . S
C78 O85 1.185 . S
O79 C78 1.160 . S
O80 Zn81 1.899 . S
O80 C88 1.284 . S
Zn81 O80 1.899 . S
Zn81 O82 2.032 . S
Zn81 O85 2.086 . S
Zn81 O90 1.977 . S
O82 Zn81 2.032 . S
O82 C86 1.278 . S
C83 O84 1.203 . S
C83 O90 1.267 . S
O84 C83 1.203 . S
O85 C78 1.185 . S
O85 Zn81 2.086 . S
C86 O82 1.278 . S
C86 O87 1.211 1_556 S
O87 C86 1.211 1_554 S
C88 O80 1.284 . S
C88 O89 1.273 . S
O89 C88 1.273 . S
O90 Zn81 1.977 . S
O90 C83 1.267 . S
C91 O92 1.160 . S
C91 O98 1.185 . S
O92 C91 1.160 . S
O93 Zn94 1.899 . S
O93 C101 1.284 . S
Zn94 O93 1.899 . S
Zn94 O95 2.032 . S
Zn94 O98 2.086 . S
Zn94 O103 1.977 1_554 S
O95 Zn94 2.032 . S
O95 C99 1.278 . S
C96 O97 1.203 . S
C96 O103 1.267 . S
O97 C96 1.203 . S
O98 C91 1.185 . S
O98 Zn94 2.086 . S
C99 O95 1.278 . S
C99 O100 1.211 1_554 S
O100 C99 1.211 1_556 S
C101 O93 1.284 . S
C101 O102 1.273 . S
O102 C101 1.273 . S
O103 Zn94 1.977 1_556 S
O103 C96 1.267 . S
C104 O105 1.160 . S
C104 O111 1.185 . S
O105 C104 1.160 . S
O106 Zn107 1.899 . S
O106 C114 1.284 . S
Zn107 O106 1.899 . S
Zn107 O108 2.032 . S
Zn107 O111 2.086 . S
Zn107 O116 1.977 . S
O108 Zn107 2.032 . S
O108 C112 1.278 . S
C109 O110 1.203 . S
C109 O116 1.267 . S
O110 C109 1.203 . S
O111 C104 1.185 . S
O111 Zn107 2.086 . S
C112 O108 1.278 . S
C112 O113 1.211 . S
O113 C112 1.211 . S
C114 O106 1.284 . S
C114 O115 1.273 . S
O115 C114 1.273 . S
O116 Zn107 1.977 . S
O116 C109 1.267 . S
C117 O118 1.160 . S
C117 O124 1.185 . S
O118 C117 1.160 . S
O119 Zn120 1.899 . S
O119 C127 1.284 . S
Zn120 O119 1.899 . S
Zn120 O121 2.032 . S
Zn120 O124 2.086 . S
Zn120 O129 1.977 . S
O121 Zn120 2.032 . S
O121 C125 1.278 . S
C122 O123 1.203 . S
C122 O129 1.267 . S
O123 C122 1.203 . S
O124 C117 1.185 . S
O124 Zn120 2.086 . S
C125 O121 1.278 . S
C125 O126 1.211 . S
O126 C125 1.211 . S
C127 O119 1.284 . S
C127 O128 1.273 . S
O128 C127 1.273 . S
O129 Zn120 1.977 . S
O129 C122 1.267 . S
C130 O131 1.160 . S
C130 O137 1.185 . S
O131 C130 1.160 . S
O132 Zn133 1.899 . S
O132 C140 1.284 . S
Zn133 O132 1.899 . S
Zn133 O134 2.032 . S
Zn133 O137 2.086 . S
Zn133 O142 1.977 . S
O134 Zn133 2.032 . S
O134 C138 1.278 . S
C135 O136 1.203 . S
C135 O142 1.267 . S
O136 C135 1.203 . S
O137 C130 1.185 . S
O137 Zn133 2.086 . S
C138 O134 1.278 . S
C138 O139 1.211 . S
O139 C138 1.211 . S
C140 O132 1.284 . S
C140 O141 1.273 . S
O141 C140 1.273 . S
O142 Zn133 1.977 . S
O142 C135 1.267 . S
C143 O144 1.160 . S
C143 O150 1.185 . S
O144 C143 1.160 . S
O145 Zn146 1.899 . S
O145 C153 1.284 . S
Zn146 O145 1.899 . S
Zn146 O147 2.032 . S
Zn146 O150 2.086 . S
Zn146 O155 1.977 . S
O147 Zn146 2.032 . S
O147 C151 1.278 . S
C148 O149 1.203 . S
C148 O155 1.267 . S
O149 C148 1.203 . S
O150 C143 1.185 . S
O150 Zn146 2.086 . S
C151 O147 1.278 . S
C151 O152 1.211 . S
O152 C151 1.211 . S
C153 O145 1.284 . S
C153 O154 1.273 . S
O154 C153 1.273 . S
O155 Zn146 1.977 . S
O155 C148 1.267 . S
H156 C168 0.930 . S
H157 C170 0.930 . S
H158 C171 0.930 . S
H159 C175 0.959 . S
H160 C175 0.959 . S
H161 C175 0.961 . S
H162 C176 0.960 . S
H163 C176 0.961 . S
H164 C176 0.959 . S
H165 C179 0.929 . S
H166 C180 0.931 . S
H167 C182 0.930 . S
C168 H156 0.930 . S
C168 C169 1.399 . S
C168 C173 1.399 . S
C169 C168 1.399 . S
C169 C170 1.376 . S
C170 H157 0.930 . S
C170 C169 1.376 . S
C170 C171 1.388 . S
C171 H158 0.930 . S
C171 C170 1.388 . S
C171 C172 1.390 . S
C172 C171 1.390 . S
C172 C173 1.394 . S
C172 C178 1.465 . S
C173 C168 1.399 . S
C173 C172 1.394 . S
C173 C174 1.516 . S
C174 C173 1.516 . S
C174 C175 1.502 . S
C174 C176 1.561 . S
C174 C177 1.526 . S
C175 H159 0.959 . S
C175 H160 0.959 . S
C175 H161 0.961 . S
C175 C174 1.502 . S
C176 H162 0.960 . S
C176 H163 0.961 . S
C176 H164 0.959 . S
C176 C174 1.561 . S
C177 C174 1.526 . S
C177 C178 1.396 . S
C177 C182 1.390 . S
C178 C172 1.465 . S
C178 C177 1.396 . S
C178 C179 1.399 . S
C179 H165 0.929 . S
C179 C178 1.399 . S
C179 C180 1.385 . S
C180 H166 0.931 . S
C180 C179 1.385 . S
C180 C181 1.389 . S
C181 C180 1.389 . S
C181 C182 1.387 . S
C182 H167 0.930 . S
C182 C177 1.390 . S
C182 C181 1.387 . S
H183 C195 0.930 . S
H184 C197 0.930 . S
H185 C198 0.930 . S
H186 C202 0.959 . S
H187 C202 0.959 . S
H188 C202 0.961 . S
H189 C203 0.960 . S
H190 C203 0.961 . S
H191 C203 0.959 . S
H192 C206 0.929 . S
H193 C207 0.931 . S
H194 C209 0.930 . S
C195 H183 0.930 . S
C195 C196 1.399 . S
C195 C200 1.399 . S
C196 C195 1.399 . S
C196 C197 1.376 . S
C197 H184 0.930 . S
C197 C196 1.376 . S
C197 C198 1.388 . S
C198 H185 0.930 . S
C198 C197 1.388 . S
C198 C199 1.390 . S
C199 C198 1.390 . S
C199 C200 1.394 . S
C199 C205 1.465 . S
C200 C195 1.399 . S
C200 C199 1.394 . S
C200 C201 1.516 . S
C201 C200 1.516 . S
C201 C202 1.502 . S
C201 C203 1.561 . S
C201 C204 1.526 . S
C202 H186 0.959 . S
C202 H187 0.959 . S
C202 H188 0.961 . S
C202 C201 1.502 . S
C203 H189 0.960 . S
C203 H190 0.961 . S
C203 H191 0.959 . S
C203 C201 1.561 . S
C204 C201 1.526 . S
C204 C205 1.396 . S
C204 C209 1.390 . S
C205 C199 1.465 . S
C205 C204 1.396 . S
C205 C206 1.399 . S
C206 H192 0.929 . S
C206 C205 1.399 . S
C206 C207 1.385 . S
C207 H193 0.931 . S
C207 C206 1.385 . S
C207 C208 1.389 . S
C208 C207 1.389 . S
C208 C209 1.387 . S
C209 H194 0.930 . S
C209 C204 1.390 . S
C209 C208 1.387 . S
H210 C222 0.930 . S
H211 C224 0.930 . S
H212 C225 0.930 . S
H213 C229 0.959 . S
H214 C229 0.959 . S
H215 C229 0.961 . S
H216 C230 0.960 . S
H217 C230 0.961 . S
H218 C230 0.959 . S
H219 C233 0.929 . S
H220 C234 0.931 . S
H221 C236 0.930 . S
C222 H210 0.930 . S
C222 C223 1.399 . S
C222 C227 1.399 . S
C223 C222 1.399 . S
C223 C224 1.376 . S
C224 H211 0.930 . S
C224 C223 1.376 . S
C224 C225 1.388 . S
C225 H212 0.930 . S
C225 C224 1.388 . S
C225 C226 1.390 . S
C226 C225 1.390 . S
C226 C227 1.394 . S
C226 C232 1.465 . S
C227 C222 1.399 . S
C227 C226 1.394 . S
C227 C228 1.516 . S
C228 C227 1.516 . S
C228 C229 1.502 . S
C228 C230 1.561 . S
C228 C231 1.526 . S
C229 H213 0.959 . S
C229 H214 0.959 . S
C229 H215 0.961 . S
C229 C228 1.502 . S
C230 H216 0.960 . S
C230 H217 0.961 . S
C230 H218 0.959 . S
C230 C228 1.561 . S
C231 C228 1.526 . S
C231 C232 1.396 . S
C231 C236 1.390 . S
C232 C226 1.465 . S
C232 C231 1.396 . S
C232 C233 1.399 . S
C233 H219 0.929 . S
C233 C232 1.399 . S
C233 C234 1.385 . S
C234 H220 0.931 . S
C234 C233 1.385 . S
C234 C235 1.389 . S
C235 C234 1.389 . S
C235 C236 1.387 . S
C236 H221 0.930 . S
C236 C231 1.390 . S
C236 C235 1.387 . S
H237 C249 0.930 . S
H238 C251 0.930 . S
H239 C252 0.930 . S
H240 C256 0.959 . S
H241 C256 0.959 . S
H242 C256 0.961 . S
H243 C257 0.960 . S
H244 C257 0.961 . S
H245 C257 0.959 . S
H246 C260 0.929 . S
H247 C261 0.931 . S
H248 C263 0.930 . S
C249 H237 0.930 . S
C249 C250 1.399 . S
C249 C254 1.399 . S
C250 C249 1.399 . S
C250 C251 1.376 . S
C251 H238 0.930 . S
C251 C250 1.376 . S
C251 C252 1.388 . S
C252 H239 0.930 . S
C252 C251 1.388 . S
C252 C253 1.390 . S
C253 C252 1.390 . S
C253 C254 1.394 . S
C253 C259 1.465 . S
C254 C249 1.399 . S
C254 C253 1.394 . S
C254 C255 1.516 . S
C255 C254 1.516 . S
C255 C256 1.502 . S
C255 C257 1.561 . S
C255 C258 1.526 . S
C256 H240 0.959 . S
C256 H241 0.959 . S
C256 H242 0.961 . S
C256 C255 1.502 . S
C257 H243 0.960 . S
C257 H244 0.961 . S
C257 H245 0.959 . S
C257 C255 1.561 . S
C258 C255 1.526 . S
C258 C259 1.396 . S
C258 C263 1.390 . S
C259 C253 1.465 . S
C259 C258 1.396 . S
C259 C260 1.399 . S
C260 H246 0.929 . S
C260 C259 1.399 . S
C260 C261 1.385 . S
C261 H247 0.931 . S
C261 C260 1.385 . S
C261 C262 1.389 . S
C262 C261 1.389 . S
C262 C263 1.387 . S
C263 H248 0.930 . S
C263 C258 1.390 . S
C263 C262 1.387 . S
H264 C276 0.930 . S
H265 C278 0.930 . S
H266 C279 0.930 . S
H267 C283 0.959 . S
H268 C283 0.959 . S
H269 C283 0.961 . S
H270 C284 0.960 . S
H271 C284 0.961 . S
H272 C284 0.959 . S
H273 C287 0.929 . S
H274 C288 0.931 . S
H275 C290 0.930 . S
C276 H264 0.930 . S
C276 C277 1.399 . S
C276 C281 1.399 . S
C277 C276 1.399 . S
C277 C278 1.376 . S
C278 H265 0.930 . S
C278 C277 1.376 . S
C278 C279 1.388 . S
C279 H266 0.930 . S
C279 C278 1.388 . S
C279 C280 1.390 . S
C280 C279 1.390 . S
C280 C281 1.394 . S
C280 C286 1.465 . S
C281 C276 1.399 . S
C281 C280 1.394 . S
C281 C282 1.516 1_556 S
C282 C281 1.516 1_554 S
C282 C283 1.502 . S
C282 C284 1.561 . S
C282 C285 1.526 . S
C283 H267 0.959 . S
C283 H268 0.959 . S
C283 H269 0.961 . S
C283 C282 1.502 . S
C284 H270 0.960 . S
C284 H271 0.961 . S
C284 H272 0.959 . S
C284 C282 1.561 . S
C285 C282 1.526 . S
C285 C286 1.396 1_554 S
C285 C290 1.390 . S
C286 C280 1.465 . S
C286 C285 1.396 1_556 S
C286 C287 1.399 . S
C287 H273 0.929 . S
C287 C286 1.399 . S
C287 C288 1.385 1_556 S
C288 H274 0.931 . S
C288 C287 1.385 1_554 S
C288 C289 1.389 . S
C289 C288 1.389 . S
C289 C290 1.387 . S
C290 H275 0.930 . S
C290 C285 1.390 . S
C290 C289 1.387 . S
H291 C303 0.930 . S
H292 C305 0.930 . S
H293 C306 0.930 . S
H294 C310 0.959 . S
H295 C310 0.959 . S
H296 C310 0.961 . S
H297 C311 0.960 . S
H298 C311 0.961 . S
H299 C311 0.959 . S
H300 C314 0.936 . S
H301 C315 0.931 . S
H302 C317 0.930 . S
C303 H291 0.930 . S
C303 C304 1.399 . S
C303 C308 1.399 . S
C304 C303 1.399 . S
C304 C305 1.376 . S
C305 H292 0.930 . S
C305 C304 1.376 . S
C305 C306 1.388 . S
C306 H293 0.930 . S
C306 C305 1.388 . S
C306 C307 1.390 . S
C307 C306 1.390 . S
C307 C308 1.394 . S
C307 C313 1.465 . S
C308 C303 1.399 . S
C308 C307 1.394 . S
C308 C309 1.516 . S
C309 C308 1.516 . S
C309 C310 1.502 . S
C309 C311 1.561 . S
C309 C312 1.526 . S
C310 H294 0.959 . S
C310 H295 0.959 . S
C310 H296 0.961 . S
C310 C309 1.502 . S
C311 H297 0.960 . S
C311 H298 0.961 . S
C311 H299 0.959 . S
C311 C309 1.561 . S
C312 C309 1.526 . S
C312 C313 1.396 . S
C312 C317 1.390 . S
C313 C307 1.465 . S
C313 C312 1.396 . S
C313 C314 1.386 1_554 S
C314 H300 0.936 . S
C314 C313 1.386 1_556 S
C314 C315 1.392 . S
C315 H301 0.931 . S
C315 C314 1.392 . S
C315 C316 1.389 . S
C316 C315 1.389 . S
C316 C317 1.387 1_556 S
C317 H302 0.930 . S
C317 C312 1.390 . S
C317 C316 1.387 1_554 S
H318 C330 0.930 . S
H319 C332 0.929 1_556 S
H320 C333 0.930 . S
H321 C337 0.959 . S
H322 C337 0.959 . S
H323 C337 0.961 . S
H324 C338 0.960 . S
H325 C338 0.961 . S
H326 C338 0.959 . S
H327 C341 0.929 . S
H328 C342 0.931 . S
H329 C344 0.930 . S
C330 H318 0.930 . S
C330 C331 1.399 . S
C330 C335 1.399 . S
C331 C330 1.399 . S
C331 C332 1.376 . S
C332 H319 0.929 1_554 S
C332 C331 1.376 . S
C332 C333 1.388 . S
C333 H320 0.930 . S
C333 C332 1.388 . S
C333 C334 1.390 . S
C334 C333 1.390 . S
C334 C335 1.394 . S
C334 C340 1.465 . S
C335 C330 1.399 . S
C335 C334 1.394 . S
C335 C336 1.516 . S
C336 C335 1.516 . S
C336 C337 1.502 . S
C336 C338 1.561 . S
C336 C339 1.526 . S
C337 H321 0.959 . S
C337 H322 0.959 . S
C337 H323 0.961 . S
C337 C336 1.502 . S
C338 H324 0.960 . S
C338 H325 0.961 . S
C338 H326 0.959 . S
C338 C336 1.561 . S
C339 C336 1.526 . S
C339 C340 1.396 . S
C339 C344 1.390 . S
C340 C334 1.465 . S
C340 C339 1.396 . S
C340 C341 1.399 . S
C341 H327 0.929 . S
C341 C340 1.399 . S
C341 C342 1.385 . S
C342 H328 0.931 . S
C342 C341 1.385 . S
C342 C343 1.389 . S
C343 C342 1.389 . S
C343 C344 1.387 . S
C344 H329 0.930 . S
C344 C339 1.390 . S
C344 C343 1.387 . S
H345 C357 0.930 . S
H346 C359 0.930 . S
H347 C360 0.930 . S
H348 C364 0.959 . S
H349 C364 0.959 . S
H350 C364 0.961 . S
H351 C365 0.960 . S
H352 C365 0.961 . S
H353 C365 0.959 . S
H354 C368 0.929 . S
H355 C369 0.931 . S
H356 C371 0.930 . S
C357 H345 0.930 . S
C357 C358 1.399 . S
C357 C362 1.399 . S
C358 C357 1.399 . S
C358 C359 1.376 . S
C359 H346 0.930 . S
C359 C358 1.376 . S
C359 C360 1.388 . S
C360 H347 0.930 . S
C360 C359 1.388 . S
C360 C361 1.390 . S
C361 C360 1.390 . S
C361 C362 1.394 . S
C361 C367 1.465 . S
C362 C357 1.399 . S
C362 C361 1.394 . S
C362 C363 1.516 . S
C363 C362 1.516 . S
C363 C364 1.502 . S
C363 C365 1.561 . S
C363 C366 1.526 . S
C364 H348 0.959 . S
C364 H349 0.959 . S
C364 H350 0.961 . S
C364 C363 1.502 . S
C365 H351 0.960 . S
C365 H352 0.961 . S
C365 H353 0.959 . S
C365 C363 1.561 . S
C366 C363 1.526 . S
C366 C367 1.396 . S
C366 C371 1.390 . S
C367 C361 1.465 . S
C367 C366 1.396 . S
C367 C368 1.399 . S
C368 H354 0.929 . S
C368 C367 1.399 . S
C368 C369 1.385 . S
C369 H355 0.931 . S
C369 C368 1.385 . S
C369 C370 1.389 . S
C370 C369 1.389 . S
C370 C371 1.387 . S
C371 H356 0.930 . S
C371 C366 1.390 . S
C371 C370 1.387 . S
H372 C384 0.930 . S
H373 C386 0.930 . S
H374 C387 0.930 . S
H375 C391 0.959 . S
H376 C391 0.959 . S
H377 C391 0.961 . S
H378 C392 0.960 . S
H379 C392 0.961 . S
H380 C392 0.959 . S
H381 C395 0.929 . S
H382 C396 0.931 . S
H383 C398 0.930 . S
C384 H372 0.930 . S
C384 C385 1.399 . S
C384 C389 1.399 . S
C385 C384 1.399 . S
C385 C386 1.376 . S
C386 H373 0.930 . S
C386 C385 1.376 . S
C386 C387 1.388 . S
C387 H374 0.930 . S
C387 C386 1.388 . S
C387 C388 1.390 . S
C388 C387 1.390 . S
C388 C389 1.394 . S
C388 C394 1.465 . S
C389 C384 1.399 . S
C389 C388 1.394 . S
C389 C390 1.516 . S
C390 C389 1.516 . S
C390 C391 1.502 . S
C390 C392 1.561 . S
C390 C393 1.526 . S
C391 H375 0.959 . S
C391 H376 0.959 . S
C391 H377 0.961 . S
C391 C390 1.502 . S
C392 H378 0.960 . S
C392 H379 0.961 . S
C392 H380 0.959 . S
C392 C390 1.561 . S
C393 C390 1.526 . S
C393 C394 1.396 . S
C393 C398 1.390 . S
C394 C388 1.465 . S
C394 C393 1.396 . S
C394 C395 1.399 . S
C395 H381 0.929 . S
C395 C394 1.399 . S
C395 C396 1.385 . S
C396 H382 0.931 . S
C396 C395 1.385 . S
C396 C397 1.389 . S
C397 C396 1.389 . S
C397 C398 1.387 . S
C398 H383 0.930 . S
C398 C393 1.390 . S
C398 C397 1.387 . S
H399 C411 0.930 . S
H400 C413 0.930 . S
H401 C414 0.930 . S
H402 C418 0.959 . S
H403 C418 0.959 . S
H404 C418 0.961 . S
H405 C419 0.960 . S
H406 C419 0.961 . S
H407 C419 0.959 . S
H408 C422 0.929 . S
H409 C423 0.931 . S
H410 C425 0.930 . S
C411 H399 0.930 . S
C411 C412 1.399 . S
C411 C416 1.399 . S
C412 C411 1.399 . S
C412 C413 1.376 . S
C413 H400 0.930 . S
C413 C412 1.376 . S
C413 C414 1.388 . S
C414 H401 0.930 . S
C414 C413 1.388 . S
C414 C415 1.390 . S
C415 C414 1.390 . S
C415 C416 1.394 . S
C415 C421 1.465 . S
C416 C411 1.399 . S
C416 C415 1.394 . S
C416 C417 1.516 . S
C417 C416 1.516 . S
C417 C418 1.502 . S
C417 C419 1.561 . S
C417 C420 1.526 . S
C418 H402 0.959 . S
C418 H403 0.959 . S
C418 H404 0.961 . S
C418 C417 1.502 . S
C419 H405 0.960 . S
C419 H406 0.961 . S
C419 H407 0.959 . S
C419 C417 1.561 . S
C420 C417 1.526 . S
C420 C421 1.396 . S
C420 C425 1.390 . S
C421 C415 1.465 . S
C421 C420 1.396 . S
C421 C422 1.399 . S
C422 H408 0.929 . S
C422 C421 1.399 . S
C422 C423 1.385 . S
C423 H409 0.931 . S
C423 C422 1.385 . S
C423 C424 1.389 . S
C424 C423 1.389 . S
C424 C425 1.387 . S
C425 H410 0.930 . S
C425 C420 1.390 . S
C425 C424 1.387 . S
H426 C438 0.930 . S
H427 C440 0.930 . S
H428 C441 0.930 . S
H429 C445 0.959 . S
H430 C445 0.959 . S
H431 C445 0.961 . S
H432 C446 0.960 . S
H433 C446 0.961 . S
H434 C446 0.959 . S
H435 C449 0.929 . S
H436 C450 0.931 . S
H437 C452 0.930 . S
C438 H426 0.930 . S
C438 C439 1.399 . S
C438 C443 1.399 . S
C439 C438 1.399 . S
C439 C440 1.376 . S
C440 H427 0.930 . S
C440 C439 1.376 . S
C440 C441 1.388 . S
C441 H428 0.930 . S
C441 C440 1.388 . S
C441 C442 1.390 . S
C442 C441 1.390 . S
C442 C443 1.394 . S
C442 C448 1.465 . S
C443 C438 1.399 . S
C443 C442 1.394 . S
C443 C444 1.516 . S
C444 C443 1.516 . S
C444 C445 1.502 . S
C444 C446 1.561 . S
C444 C447 1.526 . S
C445 H429 0.959 . S
C445 H430 0.959 . S
C445 H431 0.961 . S
C445 C444 1.502 . S
C446 H432 0.960 . S
C446 H433 0.961 . S
C446 H434 0.959 . S
C446 C444 1.561 . S
C447 C444 1.526 . S
C447 C448 1.396 . S
C447 C452 1.390 . S
C448 C442 1.465 . S
C448 C447 1.396 . S
C448 C449 1.399 . S
C449 H435 0.929 . S
C449 C448 1.399 . S
C449 C450 1.385 . S
C450 H436 0.931 . S
C450 C449 1.385 . S
C450 C451 1.389 . S
C451 C450 1.389 . S
C451 C452 1.387 . S
C452 H437 0.930 . S
C452 C447 1.390 . S
C452 C451 1.387 . S
H453 C465 0.930 . S
H454 C467 0.930 . S
H455 C468 0.930 . S
H456 C472 0.959 . S
H457 C472 0.959 . S
H458 C472 0.961 . S
H459 C473 0.960 . S
H460 C473 0.961 . S
H461 C473 0.959 . S
H462 C476 0.929 . S
H463 C477 0.931 . S
H464 C479 0.930 . S
C465 H453 0.930 . S
C465 C466 1.399 . S
C465 C470 1.399 . S
C466 C465 1.399 . S
C466 C467 1.376 . S
C467 H454 0.930 . S
C467 C466 1.376 . S
C467 C468 1.388 1_556 S
C468 H455 0.930 . S
C468 C467 1.388 1_554 S
C468 C469 1.390 1_554 S
C469 C468 1.390 1_556 S
C469 C470 1.394 . S
C469 C475 1.465 . S
C470 C465 1.399 . S
C470 C469 1.394 . S
C470 C471 1.516 . S
C471 C470 1.516 . S
C471 C472 1.502 . S
C471 C473 1.561 . S
C471 C474 1.526 . S
C472 H456 0.959 . S
C472 H457 0.959 . S
C472 H458 0.961 . S
C472 C471 1.502 . S
C473 H459 0.960 . S
C473 H460 0.961 . S
C473 H461 0.959 . S
C473 C471 1.561 . S
C474 C471 1.526 . S
C474 C475 1.396 . S
C474 C479 1.390 . S
C475 C469 1.465 . S
C475 C474 1.396 . S
C475 C476 1.399 1_556 S
C476 H462 0.929 . S
C476 C475 1.399 1_554 S
C476 C477 1.385 . S
C477 H463 0.931 . S
C477 C476 1.385 . S
C477 C478 1.389 . S
C478 C477 1.389 . S
C478 C479 1.387 1_554 S
C479 H464 0.930 . S
C479 C474 1.390 . S
C479 C478 1.387 1_556 S
H480 C492 0.930 . S
H481 C494 0.930 . S
H482 C495 0.930 . S
H483 C499 0.959 . S
H484 C499 0.959 . S
H485 C499 0.961 . S
H486 C500 0.960 . S
H487 C500 0.961 . S
H488 C500 0.959 . S
H489 C503 0.929 . S
H490 C504 0.931 . S
H491 C506 0.930 . S
C492 H480 0.930 . S
C492 C493 1.399 . S
C492 C497 1.399 . S
C493 C492 1.399 . S
C493 C494 1.376 . S
C494 H481 0.930 . S
C494 C493 1.376 . S
C494 C495 1.388 . S
C495 H482 0.930 . S
C495 C494 1.388 . S
C495 C496 1.390 . S
C496 C495 1.390 . S
C496 C497 1.394 . S
C496 C502 1.465 . S
C497 C492 1.399 . S
C497 C496 1.394 . S
C497 C498 1.516 . S
C498 C497 1.516 . S
C498 C499 1.502 . S
C498 C500 1.561 . S
C498 C501 1.526 . S
C499 H483 0.959 . S
C499 H484 0.959 . S
C499 H485 0.961 . S
C499 C498 1.502 . S
C500 H486 0.960 . S
C500 H487 0.961 . S
C500 H488 0.959 . S
C500 C498 1.561 . S
C501 C498 1.526 . S
C501 C502 1.396 . S
C501 C506 1.390 . S
C502 C496 1.465 . S
C502 C501 1.396 . S
C502 C503 1.399 . S
C503 H489 0.929 . S
C503 C502 1.399 . S
C503 C504 1.385 . S
C504 H490 0.931 . S
C504 C503 1.385 . S
C504 C505 1.389 . S
C505 C504 1.389 . S
C505 C506 1.387 . S
C506 H491 0.930 . S
C506 C501 1.390 . S
C506 C505 1.387 . S
H507 C519 0.930 . S
H508 C521 0.930 . S
H509 C522 0.930 . S
H510 C526 0.959 . S
H511 C526 0.959 . S
H512 C526 0.961 . S
H513 C527 0.960 . S
H514 C527 0.961 . S
H515 C527 0.959 . S
H516 C530 0.929 . S
H517 C531 0.931 . S
H518 C533 0.930 . S
C519 H507 0.930 . S
C519 C520 1.399 . S
C519 C524 1.399 1_554 S
C520 C519 1.399 . S
C520 C521 1.376 . S
C521 H508 0.930 . S
C521 C520 1.376 . S
C521 C522 1.388 . S
C522 H509 0.930 . S
C522 C521 1.388 . S
C522 C523 1.390 . S
C523 C522 1.390 . S
C523 C524 1.394 1_554 S
C523 C529 1.465 1_554 S
C524 C519 1.399 1_556 S
C524 C523 1.394 1_556 S
C524 C525 1.516 . S
C525 C524 1.516 . S
C525 C526 1.502 . S
C525 C527 1.561 . S
C525 C528 1.526 . S
C526 H510 0.959 . S
C526 H511 0.959 . S
C526 H512 0.961 . S
C526 C525 1.502 . S
C527 H513 0.960 . S
C527 H514 0.961 . S
C527 H515 0.959 . S
C527 C525 1.561 . S
C528 C525 1.526 . S
C528 C529 1.396 . S
C528 C533 1.390 . S
C529 C523 1.465 1_556 S
C529 C528 1.396 . S
C529 C530 1.399 . S
C530 H516 0.929 . S
C530 C529 1.399 . S
C530 C531 1.385 . S
C531 H517 0.931 . S
C531 C530 1.385 . S
C531 C532 1.389 . S
C532 C531 1.389 . S
C532 C533 1.387 . S
C533 H518 0.930 . S
C533 C528 1.390 . S
C533 C532 1.387 . S
H534 C546 0.930 . S
H535 C548 0.930 . S
H536 C549 0.930 . S
H537 C553 0.959 . S
H538 C553 0.959 . S
H539 C553 0.961 . S
H540 C554 0.960 . S
H541 C554 0.961 1_556 S
H542 C554 0.959 . S
H543 C557 0.929 . S
H544 C558 0.931 . S
H545 C560 0.930 1_556 S
C546 H534 0.930 . S
C546 C547 1.399 . S
C546 C551 1.399 . S
C547 C546 1.399 . S
C547 C548 1.376 . S
C548 H535 0.930 . S
C548 C547 1.376 . S
C548 C549 1.388 . S
C549 H536 0.930 . S
C549 C548 1.388 . S
C549 C550 1.390 . S
C550 C549 1.390 . S
C550 C551 1.394 . S
C550 C556 1.465 . S
C551 C546 1.399 . S
C551 C550 1.394 . S
C551 C552 1.516 . S
C552 C551 1.516 . S
C552 C553 1.502 . S
C552 C554 1.561 . S
C552 C555 1.526 . S
C553 H537 0.959 . S
C553 H538 0.959 . S
C553 H539 0.961 . S
C553 C552 1.502 . S
C554 H540 0.960 . S
C554 H541 0.961 1_554 S
C554 H542 0.959 . S
C554 C552 1.561 . S
C555 C552 1.526 . S
C555 C556 1.396 . S
C555 C560 1.390 . S
C556 C550 1.465 . S
C556 C555 1.396 . S
C556 C557 1.399 . S
C557 H543 0.929 . S
C557 C556 1.399 . S
C557 C558 1.385 . S
C558 H544 0.931 . S
C558 C557 1.385 . S
C558 C559 1.389 . S
C559 C558 1.389 . S
C559 C560 1.387 . S
C560 H545 0.930 1_554 S
C560 C555 1.390 . S
C560 C559 1.387 . S
H561 C573 0.930 . S
H562 C575 0.930 . S
H563 C576 0.930 . S
H564 C580 0.959 . S
H565 C580 0.959 . S
H566 C580 0.961 . S
H567 C581 0.960 . S
H568 C581 0.961 . S
H569 C581 0.959 . S
H570 C584 0.929 . S
H571 C585 0.931 . S
H572 C587 0.930 . S
C573 H561 0.930 . S
C573 C574 1.399 . S
C573 C578 1.399 . S
C574 C573 1.399 . S
C574 C575 1.376 . S
C575 H562 0.930 . S
C575 C574 1.376 . S
C575 C576 1.388 . S
C576 H563 0.930 . S
C576 C575 1.388 . S
C576 C577 1.390 . S
C577 C576 1.390 . S
C577 C578 1.394 . S
C577 C583 1.465 . S
C578 C573 1.399 . S
C578 C577 1.394 . S
C578 C579 1.516 . S
C579 C578 1.516 . S
C579 C580 1.502 . S
C579 C581 1.561 . S
C579 C582 1.526 . S
C580 H564 0.959 . S
C580 H565 0.959 . S
C580 H566 0.961 . S
C580 C579 1.502 . S
C581 H567 0.960 . S
C581 H568 0.961 . S
C581 H569 0.959 . S
C581 C579 1.561 . S
C582 C579 1.526 . S
C582 C583 1.396 . S
C582 C587 1.390 . S
C583 C577 1.465 . S
C583 C582 1.396 . S
C583 C584 1.399 . S
C584 H570 0.929 . S
C584 C583 1.399 . S
C584 C585 1.385 . S
C585 H571 0.931 . S
C585 C584 1.385 . S
C585 C586 1.389 . S
C586 C585 1.389 . S
C586 C587 1.387 . S
C587 H572 0.930 . S
C587 C582 1.390 . S
C587 C586 1.387 . S
H588 C600 0.930 . S
H589 C602 0.930 . S
H590 C603 0.930 . S
H591 C607 0.959 . S
H592 C607 0.959 . S
H593 C607 0.961 . S
H594 C608 0.960 . S
H595 C608 0.961 . S
H596 C608 0.959 . S
H597 C611 0.929 . S
H598 C612 0.931 . S
H599 C614 0.930 . S
C600 H588 0.930 . S
C600 C601 1.399 . S
C600 C605 1.399 . S
C601 C600 1.399 . S
C601 C602 1.376 . S
C602 H589 0.930 . S
C602 C601 1.376 . S
C602 C603 1.388 . S
C603 H590 0.930 . S
C603 C602 1.388 . S
C603 C604 1.390 . S
C604 C603 1.390 . S
C604 C605 1.394 . S
C604 C610 1.465 . S
C605 C600 1.399 . S
C605 C604 1.394 . S
C605 C606 1.516 . S
C606 C605 1.516 . S
C606 C607 1.502 . S
C606 C608 1.561 . S
C606 C609 1.526 . S
C607 H591 0.959 . S
C607 H592 0.959 . S
C607 H593 0.961 . S
C607 C606 1.502 . S
C608 H594 0.960 . S
C608 H595 0.961 . S
C608 H596 0.959 . S
C608 C606 1.561 . S
C609 C606 1.526 . S
C609 C610 1.396 . S
C609 C614 1.390 . S
C610 C604 1.465 . S
C610 C609 1.396 . S
C610 C611 1.399 . S
C611 H597 0.929 . S
C611 C610 1.399 . S
C611 C612 1.385 . S
C612 H598 0.931 . S
C612 C611 1.385 . S
C612 C613 1.389 . S
C613 C612 1.389 . S
C613 C614 1.387 . S
C614 H599 0.930 . S
C614 C609 1.390 . S
C614 C613 1.387 . S
H615 C627 0.930 . S
H616 C629 0.930 . S
H617 C630 0.930 . S
H618 C634 0.959 . S
H619 C634 0.959 . S
H620 C634 0.961 . S
H621 C635 0.960 . S
H622 C635 0.961 . S
H623 C635 0.959 . S
H624 C638 0.929 . S
H625 C639 0.931 . S
H626 C641 0.930 . S
C627 H615 0.930 . S
C627 C628 1.399 . S
C627 C632 1.399 . S
C628 C627 1.399 . S
C628 C629 1.376 . S
C629 H616 0.930 . S
C629 C628 1.376 . S
C629 C630 1.388 . S
C630 H617 0.930 . S
C630 C629 1.388 . S
C630 C631 1.390 . S
C631 C630 1.390 . S
C631 C632 1.394 . S
C631 C637 1.465 . S
C632 C627 1.399 . S
C632 C631 1.394 . S
C632 C633 1.516 . S
C633 C632 1.516 . S
C633 C634 1.502 . S
C633 C635 1.561 . S
C633 C636 1.526 . S
C634 H618 0.959 . S
C634 H619 0.959 . S
C634 H620 0.961 . S
C634 C633 1.502 . S
C635 H621 0.960 . S
C635 H622 0.961 . S
C635 H623 0.959 . S
C635 C633 1.561 . S
C636 C633 1.526 . S
C636 C637 1.396 . S
C636 C641 1.390 . S
C637 C631 1.465 . S
C637 C636 1.396 . S
C637 C638 1.399 . S
C638 H624 0.929 . S
C638 C637 1.399 . S
C638 C639 1.385 . S
C639 H625 0.931 . S
C639 C638 1.385 . S
C639 C640 1.389 . S
C640 C639 1.389 . S
C640 C641 1.387 . S
C641 H626 0.930 . S
C641 C636 1.390 . S
C641 C640 1.387 . S
H642 C654 0.930 1_554 S
H643 C656 0.930 . S
H644 C657 0.930 . S
H645 C661 0.959 . S
H646 C661 0.959 . S
H647 C661 0.961 1_554 S
H648 C662 0.960 1_554 S
H649 C662 0.961 . S
H650 C662 0.959 . S
H651 C665 0.929 1_455 S
H652 C666 0.931 . S
H653 C668 0.930 . S
C654 H642 0.930 1_556 S
C654 C655 1.399 . S
C654 C659 1.399 . S
C655 C654 1.399 . S
C655 C656 1.376 . S
C656 H643 0.930 . S
C656 C655 1.376 . S
C656 C657 1.388 . S
C657 H644 0.930 . S
C657 C656 1.388 . S
C657 C658 1.390 . S
C658 C657 1.390 . S
C658 C659 1.394 . S
C658 C664 1.465 1_455 S
C659 C654 1.399 . S
C659 C658 1.394 . S
C659 C660 1.516 1_455 S
C660 C659 1.516 1_655 S
C660 C661 1.502 . S
C660 C662 1.561 . S
C660 C663 1.526 . S
C661 H645 0.959 . S
C661 H646 0.959 . S
C661 H647 0.961 1_556 S
C661 C660 1.502 . S
C662 H648 0.960 1_556 S
C662 H649 0.961 . S
C662 H650 0.959 . S
C662 C660 1.561 . S
C663 C660 1.526 . S
C663 C664 1.396 . S
C663 C668 1.390 . S
C664 C658 1.465 1_655 S
C664 C663 1.396 . S
C664 C665 1.399 . S
C665 H651 0.929 1_655 S
C665 C664 1.399 . S
C665 C666 1.385 . S
C666 H652 0.931 . S
C666 C665 1.385 . S
C666 C667 1.389 . S
C667 C666 1.389 . S
C667 C668 1.387 . S
C668 H653 0.930 . S
C668 C663 1.390 . S
C668 C667 1.387 . S
H669 C681 0.930 1_554 S
H670 C683 0.930 . S
H671 C684 0.936 . S
H672 C688 0.959 . S
H673 C688 0.959 . S
H674 C688 0.961 . S
H675 C689 0.960 . S
H676 C689 0.961 1_545 S
H677 C689 0.959 1_545 S
H678 C692 0.929 . S
H679 C693 0.931 . S
H680 C695 0.930 . S
C681 H669 0.930 1_556 S
C681 C682 1.399 . S
C681 C686 1.399 1_556 S
C682 C681 1.399 . S
C682 C683 1.376 . S
C683 H670 0.930 . S
C683 C682 1.376 . S
C683 C684 1.388 . S
C684 H671 0.936 . S
C684 C683 1.388 . S
C684 C685 1.390 1_556 S
C685 C684 1.390 1_554 S
C685 C686 1.394 . S
C685 C691 1.465 1_565 S
C686 C681 1.399 1_554 S
C686 C685 1.394 . S
C686 C687 1.516 . S
C687 C686 1.516 . S
C687 C688 1.502 . S
C687 C689 1.561 . S
C687 C690 1.526 1_565 S
C688 H672 0.959 . S
C688 H673 0.959 . S
C688 H674 0.961 . S
C688 C687 1.502 . S
C689 H675 0.960 . S
C689 H676 0.961 1_565 S
C689 H677 0.959 1_565 S
C689 C687 1.561 . S
C690 C687 1.526 1_545 S
C690 C691 1.396 . S
C690 C695 1.390 . S
C691 C685 1.465 1_545 S
C691 C690 1.396 . S
C691 C692 1.399 . S
C692 H678 0.929 . S
C692 C691 1.399 . S
C692 C693 1.385 . S
C693 H679 0.931 . S
C693 C692 1.385 . S
C693 C694 1.389 . S
C694 C693 1.389 . S
C694 C695 1.387 . S
C695 H680 0.930 . S
C695 C690 1.390 . S
C695 C694 1.387 . S
H696 C708 0.930 . S
H697 C710 0.930 . S
H698 C711 0.930 . S
H699 C715 0.959 . S
H700 C715 0.959 . S
H701 C715 0.961 . S
H702 C716 0.960 . S
H703 C716 0.961 . S
H704 C716 0.959 . S
H705 C719 0.929 . S
H706 C720 0.931 . S
H707 C722 0.930 . S
C708 H696 0.930 . S
C708 C709 1.399 . S
C708 C713 1.399 . S
C709 C708 1.399 . S
C709 C710 1.376 . S
C710 H697 0.930 . S
C710 C709 1.376 . S
C710 C711 1.388 . S
C711 H698 0.930 . S
C711 C710 1.388 . S
C711 C712 1.390 . S
C712 C711 1.390 . S
C712 C713 1.394 . S
C712 C718 1.465 . S
C713 C708 1.399 . S
C713 C712 1.394 . S
C713 C714 1.516 . S
C714 C713 1.516 . S
C714 C715 1.502 . S
C714 C716 1.561 . S
C714 C717 1.526 . S
C715 H699 0.959 . S
C715 H700 0.959 . S
C715 H701 0.961 . S
C715 C714 1.502 . S
C716 H702 0.960 . S
C716 H703 0.961 . S
C716 H704 0.959 . S
C716 C714 1.561 . S
C717 C714 1.526 . S
C717 C718 1.396 . S
C717 C722 1.390 . S
C718 C712 1.465 . S
C718 C717 1.396 . S
C718 C719 1.399 . S
C719 H705 0.929 . S
C719 C718 1.399 . S
C719 C720 1.385 . S
C720 H706 0.931 . S
C720 C719 1.385 . S
C720 C721 1.389 . S
C721 C720 1.389 . S
C721 C722 1.387 . S
C722 H707 0.930 . S
C722 C717 1.390 . S
C722 C721 1.387 . S
H723 C735 0.930 . S
H724 C737 0.930 . S
H725 C738 0.930 1_655 S
H726 C742 0.959 . S
H727 C742 0.959 . S
H728 C742 0.961 . S
H729 C743 0.960 . S
H730 C743 0.961 . S
H731 C743 0.959 . S
H732 C746 0.929 . S
H733 C747 0.931 . S
H734 C749 0.930 . S
C735 H723 0.930 . S
C735 C736 1.399 . S
C735 C740 1.399 . S
C736 C735 1.399 . S
C736 C737 1.376 . S
C737 H724 0.930 . S
C737 C736 1.376 . S
C737 C738 1.388 . S
C738 H725 0.930 1_455 S
C738 C737 1.388 . S
C738 C739 1.390 . S
C739 C738 1.390 . S
C739 C740 1.394 . S
C739 C745 1.465 1_455 S
C740 C735 1.399 . S
C740 C739 1.394 . S
C740 C741 1.516 . S
C741 C740 1.516 . S
C741 C742 1.502 . S
C741 C743 1.561 . S
C741 C744 1.526 1_455 S
C742 H726 0.959 . S
C742 H727 0.959 . S
C742 H728 0.961 . S
C742 C741 1.502 . S
C743 H729 0.960 . S
C743 H730 0.961 . S
C743 H731 0.959 . S
C743 C741 1.561 . S
C744 C741 1.526 1_655 S
C744 C745 1.396 . S
C744 C749 1.390 . S
C745 C739 1.465 1_655 S
C745 C744 1.396 . S
C745 C746 1.399 . S
C746 H732 0.929 . S
C746 C745 1.399 . S
C746 C747 1.385 . S
C747 H733 0.931 . S
C747 C746 1.385 . S
C747 C748 1.389 . S
C748 C747 1.389 . S
C748 C749 1.387 . S
C749 H734 0.930 . S
C749 C744 1.390 . S
C749 C748 1.387 . S
H750 C762 0.930 . S
H751 C764 0.930 . S
H752 C765 0.930 1_565 S
H753 C769 0.959 . S
H754 C769 0.959 . S
H755 C769 0.961 . S
H756 C770 0.960 . S
H757 C770 0.961 . S
H758 C770 0.959 . S
H759 C773 0.929 . S
H760 C774 0.931 . S
H761 C776 0.930 . S
C762 H750 0.930 . S
C762 C763 1.399 . S
C762 C767 1.399 . S
C763 C762 1.399 . S
C763 C764 1.376 . S
C764 H751 0.930 . S
C764 C763 1.376 . S
C764 C765 1.388 . S
C765 H752 0.930 1_545 S
C765 C764 1.388 . S
C765 C766 1.390 . S
C766 C765 1.390 . S
C766 C767 1.394 . S
C766 C772 1.465 1_545 S
C767 C762 1.399 . S
C767 C766 1.394 . S
C767 C768 1.516 . S
C768 C767 1.516 . S
C768 C769 1.502 . S
C768 C770 1.561 . S
C768 C771 1.526 1_545 S
C769 H753 0.959 . S
C769 H754 0.959 . S
C769 H755 0.961 . S
C769 C768 1.502 . S
C770 H756 0.960 . S
C770 H757 0.961 . S
C770 H758 0.959 . S
C770 C768 1.561 . S
C771 C768 1.526 1_565 S
C771 C772 1.396 . S
C771 C776 1.390 . S
C772 C766 1.465 1_565 S
C772 C771 1.396 . S
C772 C773 1.399 . S
C773 H759 0.929 . S
C773 C772 1.399 . S
C773 C774 1.385 . S
C774 H760 0.931 . S
C774 C773 1.385 . S
C774 C775 1.389 . S
C775 C774 1.389 . S
C775 C776 1.387 . S
C776 H761 0.930 . S
C776 C771 1.390 . S
C776 C775 1.387 . S
H777 C789 0.930 . S
H778 C791 0.930 . S
H779 C792 0.930 . S
H780 C796 0.959 . S
H781 C796 0.959 . S
H782 C796 0.961 . S
H783 C797 0.960 . S
H784 C797 0.961 . S
H785 C797 0.959 . S
H786 C800 0.929 . S
H787 C801 0.931 . S
H788 C803 0.930 . S
C789 H777 0.930 . S
C789 C790 1.399 . S
C789 C794 1.399 . S
C790 C789 1.399 . S
C790 C791 1.376 . S
C791 H778 0.930 . S
C791 C790 1.376 . S
C791 C792 1.388 . S
C792 H779 0.930 . S
C792 C791 1.388 . S
C792 C793 1.390 . S
C793 C792 1.390 . S
C793 C794 1.394 . S
C793 C799 1.465 . S
C794 C789 1.399 . S
C794 C793 1.394 . S
C794 C795 1.516 . S
C795 C794 1.516 . S
C795 C796 1.502 . S
C795 C797 1.561 . S
C795 C798 1.526 . S
C796 H780 0.959 . S
C796 H781 0.959 . S
C796 H782 0.961 . S
C796 C795 1.502 . S
C797 H783 0.960 . S
C797 H784 0.961 . S
C797 H785 0.959 . S
C797 C795 1.561 . S
C798 C795 1.526 . S
C798 C799 1.396 . S
C798 C803 1.390 . S
C799 C793 1.465 . S
C799 C798 1.396 . S
C799 C800 1.399 . S
C800 H786 0.929 . S
C800 C799 1.399 . S
C800 C801 1.385 . S
C801 H787 0.931 . S
C801 C800 1.385 . S
C801 C802 1.389 . S
C802 C801 1.389 . S
C802 C803 1.387 . S
C803 H788 0.930 . S
C803 C798 1.390 . S
C803 C802 1.387 . S
C169 C5 1.206 . S
C181 C135 1.166 . S
C196 C148 1.062 . S
C208 C13 1.070 . S
C223 C31 1.126 . S
C235 C78 1.109 . S
C250 C44 1.089 . S
C262 C96 1.135 . S
C277 C52 1.152 . S
C289 C109 1.163 . S
C304 C117 1.099 . S
C316 C70 1.057 . S
C331 C8 1.536 . S
C343 C112 1.494 . S
C358 C23 1.566 . S
C370 C127 1.560 . S
C385 C138 1.512 . S
C397 C34 1.510 . S
C412 C47 1.527 . S
C424 C151 1.498 . S
C439 C62 1.561 . S
C451 C88 1.566 . S
C466 C73 1.503 . S
C478 C99 1.561 . S
C493 C140 1.131 . S
C505 C10 1.133 . S
C520 C21 1.112 . S
C532 C153 1.081 . S
C547 C36 1.079 . S
C559 C86 1.090 1_554 S
C574 C49 1.108 . S
C586 C101 1.106 . S
C601 C114 1.086 . S
C613 C60 1.065 . S
C628 C75 1.108 . S
C640 C125 1.048 . S
C655 C0 1.351 . S
C667 C143 1.431 . S
C682 C83 1.381 . S
C694 C18 1.317 . S
C709 C91 1.426 . S
C721 C26 1.360 . S
C736 C104 1.437 . S
C748 C39 1.339 . S
C763 C122 1.419 . S
C775 C57 1.357 . S
C790 C130 1.388 . S
C802 C65 1.401 . S
