# Generated by pormake.
# Topology acs-a, (4)-cn, num edge types: 1
# Building blocks:
#     Node 0, Type 0, BuildingBlock: TATPOV_clean_sbu_0, # of connection points: 4
#     Node 1, Type 0, BuildingBlock: TATPOV_clean_sbu_0, # of connection points: 4
#     Node 2, Type 0, BuildingBlock: TATPOV_clean_sbu_0, # of connection points: 4
#     Node 3, Type 0, BuildingBlock: TATPOV_clean_sbu_0, # of connection points: 4
#     Node 4, Type 0, BuildingBlock: TATPOV_clean_sbu_0, # of connection points: 4
#     Node 5, Type 0, BuildingBlock: TATPOV_clean_sbu_0, # of connection points: 4
#     Node 6, Type 0, BuildingBlock: TATPOV_clean_sbu_0, # of connection points: 4
#     Node 7, Type 0, BuildingBlock: TATPOV_clean_sbu_0, # of connection points: 4
#     Node 8, Type 0, BuildingBlock: TATPOV_clean_sbu_0, # of connection points: 4
#     Node 9, Type 0, BuildingBlock: TATPOV_clean_sbu_0, # of connection points: 4
#     Node 10, Type 0, BuildingBlock: TATPOV_clean_sbu_0, # of connection points: 4
#     Node 11, Type 0, BuildingBlock: TATPOV_clean_sbu_0, # of connection points: 4
#     Edge 12, Type (0, 0), BuildingBlock: EZIPEK_clean_linker_0, # of connection points: 2
#     Edge 13, Type (0, 0), BuildingBlock: EZIPEK_clean_linker_0, # of connection points: 2
#     Edge 14, Type (0, 0), BuildingBlock: EZIPEK_clean_linker_0, # of connection points: 2
#     Edge 15, Type (0, 0), BuildingBlock: EZIPEK_clean_linker_0, # of connection points: 2
#     Edge 16, Type (0, 0), BuildingBlock: EZIPEK_clean_linker_0, # of connection points: 2
#     Edge 17, Type (0, 0), BuildingBlock: EZIPEK_clean_linker_0, # of connection points: 2
#     Edge 18, Type (0, 0), BuildingBlock: EZIPEK_clean_linker_0, # of connection points: 2
#     Edge 19, Type (0, 0), BuildingBlock: EZIPEK_clean_linker_0, # of connection points: 2
#     Edge 20, Type (0, 0), BuildingBlock: EZIPEK_clean_linker_0, # of connection points: 2
#     Edge 21, Type (0, 0), BuildingBlock: EZIPEK_clean_linker_0, # of connection points: 2
#     Edge 22, Type (0, 0), BuildingBlock: EZIPEK_clean_linker_0, # of connection points: 2
#     Edge 23, Type (0, 0), BuildingBlock: EZIPEK_clean_linker_0, # of connection points: 2
#     Edge 24, Type (0, 0), BuildingBlock: EZIPEK_clean_linker_0, # of connection points: 2
#     Edge 25, Type (0, 0), BuildingBlock: EZIPEK_clean_linker_0, # of connection points: 2
#     Edge 26, Type (0, 0), BuildingBlock: EZIPEK_clean_linker_0, # of connection points: 2
#     Edge 27, Type (0, 0), BuildingBlock: EZIPEK_clean_linker_0, # of connection points: 2
#     Edge 28, Type (0, 0), BuildingBlock: EZIPEK_clean_linker_0, # of connection points: 2
#     Edge 29, Type (0, 0), BuildingBlock: EZIPEK_clean_linker_0, # of connection points: 2
#     Edge 30, Type (0, 0), BuildingBlock: EZIPEK_clean_linker_0, # of connection points: 2
#     Edge 31, Type (0, 0), BuildingBlock: EZIPEK_clean_linker_0, # of connection points: 2
#     Edge 32, Type (0, 0), BuildingBlock: EZIPEK_clean_linker_0, # of connection points: 2
#     Edge 33, Type (0, 0), BuildingBlock: EZIPEK_clean_linker_0, # of connection points: 2
#     Edge 34, Type (0, 0), BuildingBlock: EZIPEK_clean_linker_0, # of connection points: 2
#     Edge 35, Type (0, 0), BuildingBlock: EZIPEK_clean_linker_0, # of connection points: 2
# Relax obj value: 0.361
# Max RMSD: 0.184
# Mean RMSD: 0.179
data_MOF--net-acs-a--node1-TATPOV_clean_sbu_0--edge1-EZIPEK_clean_linker_0
_symmetry_space_group_name_H-M    P1
_symmetry_Int_Tables_number       1
_symmetry_cell_setting            triclinic
loop_
_symmetry_equiv_pos_as_xyz
'x, y, z'
_cell_length_a     33.743049
_cell_length_b     33.852077
_cell_length_c     33.566341
_cell_angle_alpha  90.130605
_cell_angle_beta   89.968267
_cell_angle_gamma 114.16121
loop_
_atom_site_label
_atom_site_type_symbol
_atom_site_fract_x
_atom_site_fract_y
_atom_site_fract_z
_atom_type_partial_charge
Zn0 Zn 0.63983 0.18128 0.11917 0.0
Zn1 Zn 0.60875 0.11073 0.07574 0.0
O2 O 0.67009 0.14404 0.05105 0.0
O3 O 0.69294 0.20496 0.08533 0.0
O4 O 0.58027 0.05883 0.0407 0.0
O5 O 0.6388 0.14502 0.1666 0.0
O6 O 0.61148 0.08501 0.13085 0.0
C7 C 0.69909 0.18174 0.05855 0.0
C8 C 0.55994 0.17045 0.08682 0.0
O9 O 0.56304 0.13716 0.07203 0.0
O10 O 0.58962 0.1962 0.10886 0.0
C11 C 0.56725 0.06433 0.00651 0.0
O12 O 0.57619 0.10372 0.99373 0.0
C13 C 0.62492 0.10429 0.16398 0.0
Zn14 Zn 0.48189 0.66771 0.6458 0.0
Zn15 Zn 0.45785 0.61782 0.58407 0.0
O16 O 0.50108 0.67415 0.55968 0.0
O17 O 0.51565 0.71885 0.61024 0.0
O18 O 0.4466 0.57584 0.53891 0.0
O19 O 0.51104 0.63374 0.67292 0.0
O20 O 0.47718 0.58592 0.62707 0.0
C21 C 0.51932 0.71248 0.57346 0.0
C22 C 0.39009 0.63823 0.62743 0.0
O23 O 0.40144 0.62461 0.59584 0.0
O24 O 0.41708 0.65263 0.65579 0.0
C25 C 0.42605 0.5353 0.54416 0.0
O26 O 0.40703 0.52181 0.57863 0.0
C27 C 0.49957 0.59594 0.65891 0.0
Zn28 Zn 0.80498 0.32719 0.15738 0.0
Zn29 Zn 0.86569 0.38947 0.12209 0.0
O30 O 0.8168 0.40912 0.11122 0.0
O31 O 0.76353 0.35141 0.13596 0.0
O32 O 0.91817 0.43391 0.0951 0.0
O33 O 0.82867 0.34354 0.21176 0.0
O34 O 0.88319 0.39615 0.18241 0.0
C35 C 0.7766 0.38756 0.11832 0.0
C36 C 0.83415 0.293 0.09542 0.0
O37 O 0.85444 0.33351 0.08913 0.0
O38 O 0.81299 0.28024 0.12739 0.0
C39 C 0.91698 0.4402 0.05792 0.0
O40 O 0.88125 0.4185 0.03776 0.0
C41 C 0.86432 0.37634 0.21399 0.0
Zn42 Zn 0.35994 0.76784 0.55375 0.0
Zn43 Zn 0.39356 0.85358 0.54659 0.0
O44 O 0.3372 0.83335 0.51329 0.0
O45 O 0.31176 0.7625 0.51606 0.0
O46 O 0.42115 0.91755 0.53761 0.0
O47 O 0.35464 0.7763 0.61344 0.0
O48 O 0.38305 0.84736 0.6067 0.0
C49 C 0.30868 0.7963 0.50327 0.0
C50 C 0.44671 0.80072 0.52524 0.0
O51 O 0.44318 0.83653 0.52909 0.0
O52 O 0.41464 0.76554 0.53289 0.0
C53 C 0.433 0.92919 0.50208 0.0
O54 O 0.42354 0.89972 0.47394 0.0
C55 C 0.36746 0.81382 0.62861 0.0
Zn56 Zn 0.54087 0.33864 0.16819 0.0
Zn57 Zn 0.52285 0.37421 0.10688 0.0
O58 O 0.49525 0.30835 0.09632 0.0
O59 O 0.50238 0.27809 0.1518 0.0
O60 O 0.49695 0.39655 0.06383 0.0
O61 O 0.5222 0.37101 0.20812 0.0
O62 O 0.50923 0.40328 0.15625 0.0
C63 C 0.48885 0.27432 0.11625 0.0
C64 C 0.6151 0.38887 0.11687 0.0
O65 O 0.58802 0.39745 0.09618 0.0
O66 O 0.60294 0.36533 0.14766 0.0
C67 C 0.51081 0.43696 0.05782 0.0
O68 O 0.54446 0.46377 0.07799 0.0
C69 C 0.51085 0.39928 0.19382 0.0
Zn70 Zn 0.17705 0.71248 0.62708 0.0
Zn71 Zn 0.13698 0.63841 0.59122 0.0
O72 O 0.19066 0.6295 0.60928 0.0
O73 O 0.22946 0.6962 0.62888 0.0
O74 O 0.09979 0.58536 0.56068 0.0
O75 O 0.13169 0.69554 0.67062 0.0
O76 O 0.09642 0.63547 0.63766 0.0
C77 C 0.22662 0.65833 0.62146 0.0
C78 C 0.16457 0.72719 0.5479 0.0
O79 O 0.15244 0.68622 0.54844 0.0
O80 O 0.17289 0.7477 0.58056 0.0
C81 C 0.0955 0.54721 0.56871 0.0
O82 O 0.11912 0.54066 0.59689 0.0
C83 C 0.09875 0.65994 0.66712 0.0
Zn84 Zn 0.77959 0.36801 0.4311 0.0
Zn85 Zn 0.85569 0.4098 0.46625 0.0
O86 O 0.83453 0.34826 0.49009 0.0
O87 O 0.76979 0.3151 0.46323 0.0
O88 O 0.91274 0.44077 0.49378 0.0
O89 O 0.81034 0.37672 0.37807 0.0
O90 O 0.87364 0.41235 0.4073 0.0
C91 C 0.79938 0.31451 0.48603 0.0
C92 C 0.78329 0.44346 0.471 0.0
O93 O 0.82144 0.44725 0.47995 0.0
O94 O 0.7583 0.41159 0.45056 0.0
C95 C 0.94441 0.43062 0.48683 0.0
O96 O 0.93972 0.39909 0.46184 0.0
C97 C 0.85118 0.39711 0.37603 0.0
Zn98 Zn 0.34416 0.75688 0.87072 0.0
Zn99 Zn 0.39339 0.83981 0.88548 0.0
O100 O 0.43266 0.80923 0.90153 0.0
O101 O 0.39136 0.74052 0.8899 0.0
O102 O 0.43257 0.90126 0.89857 0.0
O103 O 0.34155 0.77029 0.81249 0.0
O104 O 0.38349 0.83897 0.82454 0.0
C105 C 0.42695 0.76972 0.9015 0.0
C106 C 0.30605 0.79359 0.928 0.0
O107 O 0.33963 0.82824 0.9214 0.0
O108 O 0.3006 0.75895 0.90986 0.0
C109 C 0.44617 0.90725 0.93429 0.0
O110 O 0.43328 0.87449 0.95917 0.0
C111 C 0.36238 0.80858 0.80018 0.0
Zn112 Zn 0.6393 0.46596 0.35897 0.0
Zn113 Zn 0.57722 0.4405 0.41108 0.0
O114 O 0.6342 0.47774 0.44071 0.0
O115 O 0.68392 0.50813 0.39534 0.0
O116 O 0.52939 0.43777 0.44827 0.0
O117 O 0.60805 0.48491 0.31733 0.0
O118 O 0.55478 0.45742 0.35975 0.0
C119 C 0.67325 0.50254 0.43173 0.0
C120 C 0.60397 0.37302 0.38279 0.0
O121 O 0.57719 0.38092 0.40469 0.0
O122 O 0.6316 0.40255 0.36162 0.0
C123 C 0.53019 0.47499 0.45545 0.0
O124 O 0.56256 0.50937 0.44154 0.0
C125 C 0.56861 0.4746 0.32607 0.0
Zn126 Zn 0.17378 0.65459 0.85643 0.0
Zn127 Zn 0.11077 0.60639 0.90239 0.0
O128 O 0.1369 0.66359 0.935 0.0
O129 O 0.18599 0.70486 0.89252 0.0
O130 O 0.06073 0.56795 0.93615 0.0
O131 O 0.13533 0.64768 0.81044 0.0
O132 O 0.08014 0.60975 0.84927 0.0
C133 C 0.16618 0.70034 0.92534 0.0
C134 C 0.18756 0.58219 0.88351 0.0
O135 O 0.15099 0.57324 0.90036 0.0
O136 O 0.20512 0.61611 0.86285 0.0
C137 C 0.0669 0.55665 0.97084 0.0
O138 O 0.10653 0.57045 0.98516 0.0
C139 C 0.09501 0.62708 0.8157 0.0
Zn140 Zn 0.70392 0.18565 0.35961 0.0
Zn141 Zn 0.63535 0.13407 0.40097 0.0
O142 O 0.61975 0.18577 0.39416 0.0
O143 O 0.67684 0.22983 0.36037 0.0
O144 O 0.5859 0.08969 0.43109 0.0
O145 O 0.69132 0.14265 0.315 0.0
O146 O 0.6335 0.10134 0.34852 0.0
C147 C 0.64074 0.22193 0.37719 0.0
C148 C 0.72752 0.17081 0.43752 0.0
O149 O 0.68649 0.14996 0.44011 0.0
O150 O 0.74414 0.18714 0.4044 0.0
C151 C 0.55226 0.0936 0.44389 0.0
O152 O 0.54791 0.13013 0.43927 0.0
C153 C 0.65728 0.10799 0.31767 0.0
Zn154 Zn 0.40462 0.59059 0.81884 0.0
Zn155 Zn 0.42022 0.54819 0.87557 0.0
O156 O 0.3536 0.52942 0.88212 0.0
O157 O 0.34317 0.57185 0.83751 0.0
O158 O 0.43808 0.51636 0.91673 0.0
O159 O 0.42041 0.55879 0.77609 0.0
O160 O 0.44484 0.5317 0.82479 0.0
C161 C 0.3289 0.54472 0.8655 0.0
C162 C 0.46488 0.64639 0.87524 0.0
O163 O 0.45394 0.61078 0.89378 0.0
O164 O 0.45038 0.64634 0.84042 0.0
C165 C 0.41997 0.50389 0.95023 0.0
O166 O 0.38488 0.50962 0.95954 0.0
C167 C 0.44094 0.53701 0.78773 0.0
C168 C 0.59894 0.06592 0.26869 0.0
C169 C 0.64254 0.08001 0.28156 0.0
C170 C 0.66621 0.08106 0.21261 0.0
C171 C 0.62582 0.0804 0.20036 0.0
N172 N 0.5511 0.065 0.21427 0.0
N173 N 0.71299 0.08194 0.26834 0.0
C174 C 0.59088 0.06927 0.22756 0.0
C175 C 0.67455 0.0805 0.25408 0.0
N176 N 0.56585 0.04937 0.2955 0.0
N177 N 0.69701 0.08527 0.18455 0.0
H178 H 0.71809 0.08032 0.29889 0.0
H179 H 0.73841 0.08229 0.25062 0.0
H180 H 0.69044 0.08475 0.15411 0.0
H181 H 0.72837 0.0886 0.19095 0.0
H182 H 0.53316 0.0367 0.2876 0.0
H183 H 0.57125 0.04319 0.32496 0.0
H184 H 0.52548 0.06207 0.23305 0.0
H185 H 0.54443 0.0658 0.18398 0.0
C186 C 0.52942 0.57473 0.71904 0.0
C187 C 0.50242 0.56168 0.68503 0.0
C188 C 0.44648 0.50538 0.72286 0.0
C189 C 0.46756 0.52695 0.75789 0.0
N190 N 0.53589 0.56593 0.7905 0.0
N191 N 0.45176 0.49889 0.65107 0.0
C192 C 0.51205 0.55546 0.75628 0.0
C193 C 0.4666 0.52106 0.68567 0.0
N194 N 0.56977 0.60739 0.71554 0.0
N195 N 0.40598 0.47286 0.72544 0.0
H196 H 0.46848 0.5099 0.62434 0.0
H197 H 0.42651 0.46815 0.64985 0.0
H198 H 0.39175 0.46124 0.75307 0.0
H199 H 0.38673 0.45867 0.70071 0.0
H200 H 0.59051 0.62126 0.73941 0.0
H201 H 0.58215 0.62026 0.68766 0.0
H202 H 0.56874 0.58643 0.79167 0.0
H203 H 0.52292 0.55098 0.81749 0.0
C204 C 0.87406 0.42944 0.26908 0.0
C205 C 0.88043 0.39312 0.25427 0.0
C206 C 0.88318 0.36826 0.32222 0.0
C207 C 0.87211 0.40179 0.33663 0.0
N208 N 0.87045 0.47131 0.32694 0.0
N209 N 0.90424 0.33634 0.26541 0.0
C210 C 0.8725 0.43502 0.31099 0.0
C211 C 0.88984 0.36554 0.28064 0.0
N212 N 0.86605 0.45642 0.24321 0.0
N213 N 0.88484 0.33785 0.34808 0.0
H214 H 0.9094 0.33448 0.2349 0.0
H215 H 0.91445 0.31682 0.28275 0.0
H216 H 0.8818 0.34027 0.37885 0.0
H217 H 0.8879 0.30975 0.33925 0.0
H218 H 0.85558 0.48006 0.25202 0.0
H219 H 0.86839 0.45418 0.2124 0.0
H220 H 0.87399 0.49849 0.31035 0.0
H221 H 0.86906 0.47561 0.35764 0.0
C222 C 0.40485 0.8279 0.73637 0.0
C223 C 0.36472 0.81654 0.75664 0.0
C224 C 0.32635 0.80541 0.69264 0.0
C225 C 0.36667 0.81829 0.67247 0.0
N226 N 0.44506 0.84857 0.67445 0.0
N227 N 0.28874 0.8023 0.75506 0.0
C228 C 0.40619 0.83212 0.69418 0.0
C229 C 0.32585 0.80759 0.735 0.0
N230 N 0.44114 0.83153 0.75706 0.0
N231 N 0.28851 0.79037 0.67129 0.0
H232 H 0.28755 0.80433 0.78604 0.0
H233 H 0.26021 0.79967 0.74115 0.0
H234 H 0.28774 0.79071 0.64022 0.0
H235 H 0.25787 0.77536 0.68414 0.0
H236 H 0.46988 0.83423 0.74351 0.0
H237 H 0.44178 0.82833 0.7879 0.0
H238 H 0.47487 0.86401 0.68874 0.0
H239 H 0.44765 0.84969 0.64349 0.0
C240 C 0.55444 0.49523 0.25787 0.0
C241 C 0.53756 0.47263 0.29367 0.0
C242 C 0.48164 0.41452 0.25682 0.0
C243 C 0.50605 0.43092 0.22178 0.0
N244 N 0.55233 0.49417 0.1853 0.0
N245 N 0.47124 0.42682 0.32659 0.0
C246 C 0.53755 0.47434 0.22095 0.0
C247 C 0.49606 0.4377 0.29299 0.0
N248 N 0.58765 0.53539 0.25991 0.0
N249 N 0.44684 0.37541 0.25558 0.0
H250 H 0.48054 0.44557 0.35237 0.0
H251 H 0.43977 0.40277 0.32747 0.0
H252 H 0.43538 0.35922 0.22864 0.0
H253 H 0.43039 0.35889 0.28078 0.0
H254 H 0.60396 0.55342 0.23537 0.0
H255 H 0.59816 0.55093 0.28729 0.0
H256 H 0.57574 0.52563 0.18224 0.0
H257 H 0.53844 0.47984 0.15838 0.0
C258 C 0.06657 0.67484 0.72918 0.0
C259 C 0.06818 0.64408 0.7014 0.0
C260 C 0.05625 0.59135 0.75424 0.0
C261 C 0.06655 0.62554 0.78201 0.0
N262 N 0.06671 0.69426 0.79925 0.0
N263 N 0.03773 0.56805 0.68563 0.0
C264 C 0.06541 0.66521 0.77047 0.0
C265 C 0.05366 0.60031 0.71326 0.0
N266 N 0.06828 0.71344 0.71555 0.0
N267 N 0.05263 0.55174 0.76682 0.0
H268 H 0.03259 0.57442 0.65614 0.0
H269 H 0.02469 0.5353 0.6929 0.0
H270 H 0.0533 0.54475 0.79703 0.0
H271 H 0.05024 0.52672 0.74753 0.0
H272 H 0.06839 0.73842 0.73369 0.0
H273 H 0.06781 0.71932 0.68504 0.0
H274 H 0.06751 0.72477 0.79361 0.0
H275 H 0.0656 0.68654 0.82947 0.0
C276 C 0.49364 0.02023 0.97795 0.0
C277 C 0.53753 0.02643 0.9837 0.0
C278 C 0.52209 0.95541 0.95415 0.0
C279 C 0.47856 0.94979 0.94752 0.0
N280 N 0.42464 0.97935 0.94544 0.0
N281 N 0.59594 0.00471 0.97067 0.0
C282 C 0.46501 0.9832 0.95671 0.0
C283 C 0.55249 0.99536 0.96984 0.0
N284 N 0.47855 0.04816 0.99503 0.0
N285 N 0.53411 0.92225 0.94597 0.0
H286 H 0.61904 0.03387 0.98174 0.0
H287 H 0.60963 0.9854 0.95746 0.0
H288 H 0.51354 0.89357 0.93207 0.0
H289 H 0.56367 0.92213 0.95465 0.0
H290 H 0.44585 0.04261 0.99585 0.0
H291 H 0.49808 0.07532 0.01148 0.0
H292 H 0.41463 0.00459 0.94733 0.0
H293 H 0.40219 0.95195 0.93114 0.0
C294 C 0.44535 0.51896 0.47593 0.0
C295 C 0.4346 0.50551 0.5159 0.0
C296 C 0.47778 0.46268 0.51265 0.0
C297 C 0.49278 0.48007 0.47435 0.0
N298 N 0.48035 0.51277 0.41447 0.0
N299 N 0.42064 0.44646 0.56165 0.0
C300 C 0.47302 0.50433 0.45425 0.0
C301 C 0.44423 0.47136 0.53094 0.0
N302 N 0.42969 0.54654 0.45936 0.0
N303 N 0.49711 0.44021 0.5327 0.0
H304 H 0.3927 0.44881 0.57237 0.0
H305 H 0.42481 0.41947 0.57213 0.0
H306 H 0.52229 0.43362 0.52081 0.0
H307 H 0.49046 0.43122 0.56247 0.0
H308 H 0.44028 0.56239 0.43235 0.0
H309 H 0.40598 0.55391 0.47355 0.0
H310 H 0.46435 0.52718 0.39722 0.0
H311 H 0.50013 0.50217 0.39773 0.0
C312 C 0.02631 0.48579 0.00534 0.0
C313 C 0.02946 0.52753 0.99467 0.0
C314 C 0.95796 0.5113 0.0242 0.0
C315 C 0.95609 0.47068 0.03705 0.0
N316 N 0.9903 0.421 0.04494 0.0
N317 N 0.00265 0.58333 -0.00014 0.0
C318 C 0.99098 0.45858 0.02936 0.0
C319 C 0.99641 0.54119 0.00564 0.0
N320 N 0.05577 0.47123 0.99069 0.0
N321 N 0.92283 0.52115 0.02949 0.0
H322 H 0.03069 0.60634 0.98694 0.0
H323 H 0.98194 0.59658 0.01096 0.0
H324 H 0.89497 0.50109 0.04481 0.0
H325 H 0.92009 0.54785 0.01658 0.0
H326 H 0.05253 0.43944 0.99358 0.0
H327 H 0.08181 0.48991 0.97259 0.0
H328 H 0.01694 0.41294 0.0445 0.0
H329 H 0.96397 0.39898 0.0608 0.0
C330 C 0.4767 0.03486 0.44564 0.0
C331 C 0.51814 0.05617 0.46364 0.0
C332 C 0.50214 0.996 0.51007 0.0
C333 C 0.46036 0.97491 0.49253 0.0
N334 N 0.40369 0.97875 0.45123 0.0
N335 N 0.56563 0.06327 0.51927 0.0
C336 C 0.44629 0.99588 0.46274 0.0
C337 C 0.52925 0.03873 0.49802 0.0
N338 N 0.46729 0.05028 0.41094 0.0
N339 N 0.5172 0.97438 0.53619 0.0
H340 H 0.58594 0.09494 0.51131 0.0
H341 H 0.57321 0.05395 0.54677 0.0
H342 H 0.49891 0.9428 0.54558 0.0
H343 H 0.54925 0.98647 0.54609 0.0
H344 H 0.43965 0.03324 0.39399 0.0
H345 H 0.48858 0.07873 0.39737 0.0
H346 H 0.3905 0.99468 0.43244 0.0
H347 H 0.38054 0.95044 0.4636 0.0
C348 C 0.45017 0.44977 0.96694 0.0
C349 C 0.44027 0.48489 0.97904 0.0
C350 C 0.47147 0.48442 0.04468 0.0
C351 C 0.48678 0.45361 0.03063 0.0
N352 N 0.49717 0.4124 0.97587 0.0
N353 N 0.44946 0.54157 0.02685 0.0
C354 C 0.47784 0.43764 0.99106 0.0
C355 C 0.45296 0.50386 0.01725 0.0
N356 N 0.43211 0.42716 0.93302 0.0
N357 N 0.4728 0.49384 0.08441 0.0
H358 H 0.43735 0.55784 0.00731 0.0
H359 H 0.46262 0.55898 0.05278 0.0
H360 H 0.48433 0.47896 0.10587 0.0
H361 H 0.45808 0.51286 0.09651 0.0
H362 H 0.43485 0.39866 0.9249 0.0
H363 H 0.41063 0.4343 0.91515 0.0
H364 H 0.49521 0.4036 0.94593 0.0
H365 H 0.51874 0.40382 0.99215 0.0
C366 C 0.02291 0.48242 0.48544 0.0
C367 C 0.98623 0.45435 0.50728 0.0
C368 C 0.02403 0.48234 0.5702 0.0
C369 C 0.06076 0.51057 0.54839 0.0
N370 N 0.09972 0.52992 0.48635 0.0
N371 N 0.95563 0.4189 0.56903 0.0
C372 C 0.06164 0.50805 0.50626 0.0
C373 C 0.98808 0.4515 0.54927 0.0
N374 N 0.02001 0.48639 0.44513 0.0
N375 N 0.02219 0.48673 0.61057 0.0
H376 H 0.92895 0.39563 0.55441 0.0
H377 H 0.95717 0.41241 0.59917 0.0
H378 H 0.04784 0.50848 0.62731 0.0
H379 H 0.9941 0.47092 0.62727 0.0
H380 H 0.0439 0.51001 0.42825 0.0
H381 H 0.99232 0.46795 0.42873 0.0
H382 H 0.10364 0.52633 0.45598 0.0
H383 H 0.12868 0.54859 0.50101 0.0
C384 C 0.49033 0.16801 0.11286 0.0
C385 C 0.52068 0.17865 0.0812 0.0
C386 C 0.49587 0.2327 0.05757 0.0
C387 C 0.47802 0.23205 0.09578 0.0
N388 N 0.43995 0.18859 0.15091 0.0
N389 N 0.5467 0.21423 0.01868 0.0
C390 C 0.46817 0.19517 0.12 0.0
C391 C 0.52066 0.20798 0.05128 0.0
N392 N 0.48565 0.13419 0.13728 0.0
N393 N 0.48968 0.25737 0.02825 0.0
H394 H 0.56389 0.19517 0.01333 0.0
H395 H 0.55202 0.23867 -0.0021 0.0
H396 H 0.4694 0.27346 0.03255 0.0
H397 H 0.50038 0.2579 -0.00093 0.0
H398 H 0.46577 0.12548 0.1623 0.0
H399 H 0.50157 0.11402 0.13153 0.0
H400 H 0.43097 0.16273 0.17063 0.0
H401 H 0.42402 0.20901 0.15531 0.0
C402 C 0.31083 0.61003 0.60765 0.0
C403 C 0.34642 0.64001 0.62973 0.0
C404 C 0.29745 0.67113 0.65559 0.0
C405 C 0.26592 0.64867 0.62619 0.0
N406 N 0.24967 0.60313 0.56694 0.0
N407 N 0.37422 0.70781 0.66713 0.0
C408 C 0.27428 0.61962 0.60019 0.0
C409 C 0.34004 0.67297 0.65188 0.0
N410 N 0.31103 0.5719 0.59456 0.0
N411 N 0.28695 0.69016 0.68741 0.0
H412 H 0.40654 0.71493 0.66055 0.0
H413 H 0.37017 0.73314 0.68169 0.0
H414 H 0.25529 0.68666 0.69306 0.0
H415 H 0.30854 0.70439 0.71075 0.0
H416 H 0.28422 0.54808 0.58065 0.0
H417 H 0.33525 0.56169 0.60236 0.0
H418 H 0.25743 0.58453 0.54607 0.0
H419 H 0.22541 0.61231 0.55725 0.0
C420 C 0.80112 0.26883 0.02976 0.0
C421 C 0.82342 0.26113 0.06233 0.0
C422 C 0.77308 0.18499 0.06146 0.0
C423 C 0.74321 0.19756 0.04147 0.0
N424 N 0.73083 0.24678 0.9973 0.0
N425 N 0.84166 0.20999 0.09796 0.0
C426 C 0.75855 0.23764 0.02127 0.0
C427 C 0.8138 0.21787 0.07313 0.0
N428 N 0.81964 0.30672 0.00931 0.0
N429 N 0.76062 0.14273 0.07198 0.0
H430 H 0.8711 0.23496 0.10637 0.0
H431 H 0.836 0.17979 0.10981 0.0
H432 H 0.73051 0.11907 0.06339 0.0
H433 H 0.78058 0.13084 0.08668 0.0
H434 H 0.80554 0.314 0.98439 0.0
H435 H 0.85133 0.32881 0.01548 0.0
H436 H 0.73815 0.2771 0.98483 0.0
H437 H 0.69976 0.22335 0.99095 0.0
C438 C 0.49002 0.76506 0.49407 0.0
C439 C 0.48937 0.79888 0.5185 0.0
C440 C 0.54381 0.79169 0.56202 0.0
C441 C 0.53229 0.74998 0.54556 0.0
N442 N 0.51979 0.71126 0.48371 0.0
N443 N 0.53017 0.85712 0.56305 0.0
C444 C 0.51461 0.74197 0.50676 0.0
C445 C 0.52211 0.81719 0.5478 0.0
N446 N 0.4642 0.75315 0.4611 0.0
N447 N 0.57319 0.80482 0.59239 0.0
H448 H 0.51613 0.87664 0.55087 0.0
H449 H 0.55248 0.872 0.58558 0.0
H450 H 0.58931 0.78577 0.60147 0.0
H451 H 0.5824 0.83412 0.60745 0.0
H452 H 0.45959 0.72598 0.44391 0.0
H453 H 0.44686 0.77092 0.45171 0.0
H454 H 0.50885 0.70464 0.45443 0.0
H455 H 0.53879 0.69534 0.49345 0.0
C456 C 0.69313 0.43348 0.12948 0.0
C457 C 0.6609 0.40351 0.10464 0.0
C458 C 0.71489 0.3813 0.0752 0.0
C459 C 0.74376 0.40348 0.10629 0.0
N460 N 0.76419 0.45489 0.16017 0.0
N461 N 0.64069 0.35209 0.05062 0.0
C462 C 0.73453 0.43191 0.13191 0.0
C463 C 0.672 0.3793 0.07559 0.0
N464 N 0.68332 0.46242 0.15126 0.0
N465 N 0.72855 0.36136 0.04618 0.0
H466 H 0.60941 0.35111 0.04947 0.0
H467 H 0.64507 0.32963 0.03194 0.0
H468 H 0.76005 0.36276 0.04581 0.0
H469 H 0.71038 0.34678 0.02104 0.0
H470 H 0.7058 0.48713 0.16833 0.0
H471 H 0.65295 0.46367 0.14941 0.0
H472 H 0.75793 0.47262 0.18279 0.0
H473 H 0.79522 0.45523 0.16149 0.0
C474 C 0.19593 0.73094 0.48045 0.0
C475 C 0.18224 0.75183 0.51047 0.0
C476 C 0.24673 0.81807 0.49872 0.0
C477 C 0.26684 0.79135 0.48471 0.0
N478 N 0.25858 0.72917 0.44562 0.0
N479 N 0.18308 0.81958 0.5322 0.0
C480 C 0.2402 0.75032 0.46866 0.0
C481 C 0.20341 0.79748 0.51316 0.0
N482 N 0.1674 0.69221 0.46571 0.0
N483 N 0.26955 0.86185 0.49943 0.0
H484 H 0.15096 0.80362 0.54186 0.0
H485 H 0.19743 0.85266 0.53806 0.0
H486 H 0.30045 0.87637 0.48675 0.0
H487 H 0.25686 0.88346 0.50925 0.0
H488 H 0.17494 0.67533 0.44311 0.0
H489 H 0.13487 0.67908 0.4746 0.0
H490 H 0.24212 0.6975 0.43554 0.0
H491 H 0.29114 0.74432 0.43702 0.0
C492 C 0.72882 0.46467 0.50353 0.0
C493 C 0.76764 0.47723 0.48109 0.0
C494 C 0.75192 0.53398 0.44909 0.0
C495 C 0.7085 0.51222 0.46202 0.0
N496 N 0.6644 0.47761 0.51831 0.0
N497 N 0.82225 0.53088 0.44078 0.0
C498 C 0.70009 0.48479 0.49547 0.0
C499 C 0.78192 0.51534 0.45759 0.0
N500 N 0.71832 0.43139 0.52999 0.0
N501 N 0.763 0.57093 0.42735 0.0
H502 H 0.84486 0.51825 0.44773 0.0
H503 H 0.83335 0.55597 0.42017 0.0
H504 H 0.74031 0.58395 0.42172 0.0
H505 H 0.79437 0.5899 0.41769 0.0
H506 H 0.68836 0.41722 0.54422 0.0
H507 H 0.74 0.41749 0.53683 0.0
H508 H 0.65708 0.45926 0.54428 0.0
H509 H 0.64462 0.49402 0.51284 0.0
C510 C 0.24046 0.80702 0.93732 0.0
C511 C 0.27043 0.79252 0.95414 0.0
C512 C 0.21083 0.73113 0.98362 0.0
C513 C 0.18401 0.73654 0.95398 0.0
N514 N 0.16494 0.78651 0.91746 0.0
N515 N 0.28568 0.75143 0.00505 0.0
C516 C 0.19579 0.77805 0.93729 0.0
C517 C 0.25579 0.75894 0.98269 0.0
N518 N 0.2555 0.84606 0.91853 0.0
N519 N 0.19381 0.69717 0.00923 0.0
H520 H 0.31863 0.77216 0.00347 0.0
H521 H 0.27812 0.72551 0.02455 0.0
H522 H 0.1607 0.67689 0.00865 0.0
H523 H 0.21136 0.69095 0.03201 0.0
H524 H 0.2357 0.85861 0.90451 0.0
H525 H 0.28849 0.86669 0.91891 0.0
H526 H 0.17082 0.81535 0.90268 0.0
H527 H 0.13267 0.76373 0.91693 0.0
C528 C 0.60017 0.26374 0.35061 0.0
C529 C 0.62571 0.25705 0.38115 0.0
C530 C 0.62781 0.32108 0.41709 0.0
C531 C 0.60638 0.33042 0.38438 0.0
N532 N 0.5728 0.31249 0.31969 0.0
N533 N 0.66523 0.27862 0.44295 0.0
C534 C 0.59241 0.30205 0.35114 0.0
C535 C 0.63949 0.28525 0.41454 0.0
N536 N 0.583 0.23313 0.32147 0.0
N537 N 0.63741 0.34686 0.45032 0.0
H538 H 0.67325 0.25194 0.44279 0.0
H539 H 0.6806 0.30037 0.46574 0.0
H540 H 0.63115 0.37448 0.45262 0.0
H541 H 0.64913 0.33974 0.47676 0.0
H542 H 0.56081 0.23378 0.30025 0.0
H543 H 0.58861 0.20504 0.32018 0.0
H544 H 0.5663 0.29619 0.29253 0.0
H545 H 0.56455 0.33903 0.32014 0.0
C546 C 0.21232 0.52722 0.85772 0.0
C547 C 0.21202 0.555 0.88913 0.0
C548 C 0.27904 0.55402 0.91614 0.0
C549 C 0.28427 0.53478 0.88002 0.0
N550 N 0.25377 0.49542 0.82007 0.0
N551 N 0.24021 0.59028 0.9514 0.0
C552 C 0.24957 0.51805 0.85236 0.0
C553 C 0.24331 0.56591 0.91999 0.0
N554 N 0.17743 0.51105 0.83263 0.0
N555 N 0.30906 0.56228 0.94583 0.0
H556 H 0.21331 0.59767 0.95543 0.0
H557 H 0.26419 0.60397 0.97288 0.0
H558 H 0.3356 0.55422 0.94351 0.0
H559 H 0.30612 0.57386 0.97391 0.0
H560 H 0.17414 0.48927 0.80966 0.0
H561 H 0.15001 0.51757 0.83677 0.0
H562 H 0.23188 0.48524 0.7965 0.0
H563 H 0.28009 0.48693 0.817 0.0
C564 C 0.79957 0.20988 0.46905 0.0
C565 C 0.75415 0.18781 0.47407 0.0
C566 C 0.75338 0.24486 0.51741 0.0
C567 C 0.79444 0.27189 0.50165 0.0
N568 N 0.86417 0.27647 0.48049 0.0
N569 N 0.69695 0.17159 0.52202 0.0
C570 C 0.8206 0.25274 0.48436 0.0
C571 C 0.73441 0.20073 0.50561 0.0
N572 N 0.82072 0.19102 0.44657 0.0
N573 N 0.73149 0.26267 0.54021 0.0
H574 H 0.68409 0.13906 0.51344 0.0
H575 H 0.68151 0.17869 0.54611 0.0
H576 H 0.74605 0.29512 0.54902 0.0
H577 H 0.69942 0.2459 0.54932 0.0
H578 H 0.85338 0.206 0.43883 0.0
H579 H 0.80435 0.15945 0.43581 0.0
H580 H 0.88542 0.26464 0.46808 0.0
H581 H 0.87933 0.30738 0.49285 0.0
C582 C 0.46964 0.69195 0.93451 0.0
C583 C 0.4856 0.68854 0.89637 0.0
C584 C 0.49329 0.76154 0.8806 0.0
C585 C 0.46249 0.75666 0.91089 0.0
N586 N 0.43018 0.725 0.97306 0.0
N587 N 0.53002 0.72574 0.84132 0.0
C588 C 0.45475 0.72503 0.94079 0.0
C589 C 0.50456 0.72615 0.87273 0.0
N590 N 0.46752 0.66298 0.96344 0.0
N591 N 0.50852 0.7982 0.85801 0.0
H592 H 0.53799 0.69935 0.83643 0.0
H593 H 0.54359 0.75091 0.82105 0.0
H594 H 0.50048 0.8242 0.86437 0.0
H595 H 0.5306 0.80395 0.83481 0.0
H596 H 0.45739 0.6646 0.99247 0.0
H597 H 0.48056 0.64016 0.95905 0.0
H598 H 0.41923 0.70026 0.99406 0.0
H599 H 0.42016 0.75003 0.97787 0.0
loop_
_geom_bond_atom_site_label_1
_geom_bond_atom_site_label_2
_geom_bond_distance
_geom_bond_site_symmetry_2
_ccdc_geom_bond_type
Zn0 O3 2.031 . S
Zn0 O5 2.049 . S
Zn0 O10 2.067 . S
Zn1 O2 1.962 . S
Zn1 O4 1.986 . S
Zn1 O6 1.996 . S
Zn1 O9 1.943 . S
O2 Zn1 1.962 . S
O2 C7 1.254 . S
O3 Zn0 2.031 . S
O3 C7 1.269 . S
O4 Zn1 1.986 . S
O4 C11 1.262 . S
O5 Zn0 2.049 . S
O5 C13 1.260 . S
O6 Zn1 1.996 . S
O6 C13 1.257 . S
C7 O2 1.254 . S
C7 O3 1.269 . S
C8 O9 1.249 . S
C8 O10 1.270 . S
O9 Zn1 1.943 . S
O9 C8 1.249 . S
O10 Zn0 2.067 . S
O10 C8 1.270 . S
C11 O4 1.262 . S
C11 O12 1.232 . S
O12 C11 1.232 . S
C13 O5 1.260 . S
C13 O6 1.257 . S
Zn14 O17 2.031 . S
Zn14 O19 2.049 . S
Zn14 O24 2.067 . S
Zn15 O16 1.962 . S
Zn15 O18 1.986 . S
Zn15 O20 1.996 . S
Zn15 O23 1.943 . S
O16 Zn15 1.962 . S
O16 C21 1.254 . S
O17 Zn14 2.031 . S
O17 C21 1.269 . S
O18 Zn15 1.986 . S
O18 C25 1.262 . S
O19 Zn14 2.049 . S
O19 C27 1.260 . S
O20 Zn15 1.996 . S
O20 C27 1.257 . S
C21 O16 1.254 . S
C21 O17 1.269 . S
C22 O23 1.249 . S
C22 O24 1.270 . S
O23 Zn15 1.943 . S
O23 C22 1.249 . S
O24 Zn14 2.067 . S
O24 C22 1.270 . S
C25 O18 1.262 . S
C25 O26 1.232 . S
O26 C25 1.232 . S
C27 O19 1.260 . S
C27 O20 1.257 . S
Zn28 O31 2.031 . S
Zn28 O33 2.049 . S
Zn28 O38 2.067 . S
Zn29 O30 1.962 . S
Zn29 O32 1.986 . S
Zn29 O34 1.996 . S
Zn29 O37 1.943 . S
O30 Zn29 1.962 . S
O30 C35 1.254 . S
O31 Zn28 2.031 . S
O31 C35 1.269 . S
O32 Zn29 1.986 . S
O32 C39 1.262 . S
O33 Zn28 2.049 . S
O33 C41 1.260 . S
O34 Zn29 1.996 . S
O34 C41 1.257 . S
C35 O30 1.254 . S
C35 O31 1.269 . S
C36 O37 1.249 . S
C36 O38 1.270 . S
O37 Zn29 1.943 . S
O37 C36 1.249 . S
O38 Zn28 2.067 . S
O38 C36 1.270 . S
C39 O32 1.262 . S
C39 O40 1.232 . S
O40 C39 1.232 . S
C41 O33 1.260 . S
C41 O34 1.257 . S
Zn42 O45 2.031 . S
Zn42 O47 2.049 . S
Zn42 O52 2.067 . S
Zn43 O44 1.962 . S
Zn43 O46 1.986 . S
Zn43 O48 1.996 . S
Zn43 O51 1.943 . S
O44 Zn43 1.962 . S
O44 C49 1.254 . S
O45 Zn42 2.031 . S
O45 C49 1.269 . S
O46 Zn43 1.986 . S
O46 C53 1.262 . S
O47 Zn42 2.049 . S
O47 C55 1.260 . S
O48 Zn43 1.996 . S
O48 C55 1.257 . S
C49 O44 1.254 . S
C49 O45 1.269 . S
C50 O51 1.249 . S
C50 O52 1.270 . S
O51 Zn43 1.943 . S
O51 C50 1.249 . S
O52 Zn42 2.067 . S
O52 C50 1.270 . S
C53 O46 1.262 . S
C53 O54 1.232 . S
O54 C53 1.232 . S
C55 O47 1.260 . S
C55 O48 1.257 . S
Zn56 O59 2.031 . S
Zn56 O61 2.049 . S
Zn56 O66 2.067 . S
Zn57 O58 1.962 . S
Zn57 O60 1.986 . S
Zn57 O62 1.996 . S
Zn57 O65 1.943 . S
O58 Zn57 1.962 . S
O58 C63 1.254 . S
O59 Zn56 2.031 . S
O59 C63 1.269 . S
O60 Zn57 1.986 . S
O60 C67 1.262 . S
O61 Zn56 2.049 . S
O61 C69 1.260 . S
O62 Zn57 1.996 . S
O62 C69 1.257 . S
C63 O58 1.254 . S
C63 O59 1.269 . S
C64 O65 1.249 . S
C64 O66 1.270 . S
O65 Zn57 1.943 . S
O65 C64 1.249 . S
O66 Zn56 2.067 . S
O66 C64 1.270 . S
C67 O60 1.262 . S
C67 O68 1.232 . S
O68 C67 1.232 . S
C69 O61 1.260 . S
C69 O62 1.257 . S
Zn70 O73 2.031 . S
Zn70 O75 2.049 . S
Zn70 O80 2.067 . S
Zn71 O72 1.962 . S
Zn71 O74 1.986 . S
Zn71 O76 1.996 . S
Zn71 O79 1.943 . S
O72 Zn71 1.962 . S
O72 C77 1.254 . S
O73 Zn70 2.031 . S
O73 C77 1.269 . S
O74 Zn71 1.986 . S
O74 C81 1.262 . S
O75 Zn70 2.049 . S
O75 C83 1.260 . S
O76 Zn71 1.996 . S
O76 C83 1.257 . S
C77 O72 1.254 . S
C77 O73 1.269 . S
C78 O79 1.249 . S
C78 O80 1.270 . S
O79 Zn71 1.943 . S
O79 C78 1.249 . S
O80 Zn70 2.067 . S
O80 C78 1.270 . S
C81 O74 1.262 . S
C81 O82 1.232 . S
O82 C81 1.232 . S
C83 O75 1.260 . S
C83 O76 1.257 . S
Zn84 O87 2.031 . S
Zn84 O89 2.049 . S
Zn84 O94 2.067 . S
Zn85 O86 1.962 . S
Zn85 O88 1.986 . S
Zn85 O90 1.996 . S
Zn85 O93 1.943 . S
O86 Zn85 1.962 . S
O86 C91 1.254 . S
O87 Zn84 2.031 . S
O87 C91 1.269 . S
O88 Zn85 1.986 . S
O88 C95 1.262 . S
O89 Zn84 2.049 . S
O89 C97 1.260 . S
O90 Zn85 1.996 . S
O90 C97 1.257 . S
C91 O86 1.254 . S
C91 O87 1.269 . S
C92 O93 1.249 . S
C92 O94 1.270 . S
O93 Zn85 1.943 . S
O93 C92 1.249 . S
O94 Zn84 2.067 . S
O94 C92 1.270 . S
C95 O88 1.262 . S
C95 O96 1.232 . S
O96 C95 1.232 . S
C97 O89 1.260 . S
C97 O90 1.257 . S
Zn98 O101 2.031 . S
Zn98 O103 2.049 . S
Zn98 O108 2.067 . S
Zn99 O100 1.962 . S
Zn99 O102 1.986 . S
Zn99 O104 1.996 . S
Zn99 O107 1.943 . S
O100 Zn99 1.962 . S
O100 C105 1.254 . S
O101 Zn98 2.031 . S
O101 C105 1.269 . S
O102 Zn99 1.986 . S
O102 C109 1.262 . S
O103 Zn98 2.049 . S
O103 C111 1.260 . S
O104 Zn99 1.996 . S
O104 C111 1.257 . S
C105 O100 1.254 . S
C105 O101 1.269 . S
C106 O107 1.249 . S
C106 O108 1.270 . S
O107 Zn99 1.943 . S
O107 C106 1.249 . S
O108 Zn98 2.067 . S
O108 C106 1.270 . S
C109 O102 1.262 . S
C109 O110 1.232 . S
O110 C109 1.232 . S
C111 O103 1.260 . S
C111 O104 1.257 . S
Zn112 O115 2.031 . S
Zn112 O117 2.049 . S
Zn112 O122 2.067 . S
Zn113 O114 1.962 . S
Zn113 O116 1.986 . S
Zn113 O118 1.996 . S
Zn113 O121 1.943 . S
O114 Zn113 1.962 . S
O114 C119 1.254 . S
O115 Zn112 2.031 . S
O115 C119 1.269 . S
O116 Zn113 1.986 . S
O116 C123 1.262 . S
O117 Zn112 2.049 . S
O117 C125 1.260 . S
O118 Zn113 1.996 . S
O118 C125 1.257 . S
C119 O114 1.254 . S
C119 O115 1.269 . S
C120 O121 1.249 . S
C120 O122 1.270 . S
O121 Zn113 1.943 . S
O121 C120 1.249 . S
O122 Zn112 2.067 . S
O122 C120 1.270 . S
C123 O116 1.262 . S
C123 O124 1.232 . S
O124 C123 1.232 . S
C125 O117 1.260 . S
C125 O118 1.257 . S
Zn126 O129 2.031 . S
Zn126 O131 2.049 . S
Zn126 O136 2.067 . S
Zn127 O128 1.962 . S
Zn127 O130 1.986 . S
Zn127 O132 1.996 . S
Zn127 O135 1.943 . S
O128 Zn127 1.962 . S
O128 C133 1.254 . S
O129 Zn126 2.031 . S
O129 C133 1.269 . S
O130 Zn127 1.986 . S
O130 C137 1.262 . S
O131 Zn126 2.049 . S
O131 C139 1.260 . S
O132 Zn127 1.996 . S
O132 C139 1.257 . S
C133 O128 1.254 . S
C133 O129 1.269 . S
C134 O135 1.249 . S
C134 O136 1.270 . S
O135 Zn127 1.943 . S
O135 C134 1.249 . S
O136 Zn126 2.067 . S
O136 C134 1.270 . S
C137 O130 1.262 . S
C137 O138 1.232 . S
O138 C137 1.232 . S
C139 O131 1.260 . S
C139 O132 1.257 . S
Zn140 O143 2.031 . S
Zn140 O145 2.049 . S
Zn140 O150 2.067 . S
Zn141 O142 1.962 . S
Zn141 O144 1.986 . S
Zn141 O146 1.996 . S
Zn141 O149 1.943 . S
O142 Zn141 1.962 . S
O142 C147 1.254 . S
O143 Zn140 2.031 . S
O143 C147 1.269 . S
O144 Zn141 1.986 . S
O144 C151 1.262 . S
O145 Zn140 2.049 . S
O145 C153 1.260 . S
O146 Zn141 1.996 . S
O146 C153 1.257 . S
C147 O142 1.254 . S
C147 O143 1.269 . S
C148 O149 1.249 . S
C148 O150 1.270 . S
O149 Zn141 1.943 . S
O149 C148 1.249 . S
O150 Zn140 2.067 . S
O150 C148 1.270 . S
C151 O144 1.262 . S
C151 O152 1.232 . S
O152 C151 1.232 . S
C153 O145 1.260 . S
C153 O146 1.257 . S
Zn154 O157 2.031 . S
Zn154 O159 2.049 . S
Zn154 O164 2.067 . S
Zn155 O156 1.962 . S
Zn155 O158 1.986 . S
Zn155 O160 1.996 . S
Zn155 O163 1.943 . S
O156 Zn155 1.962 . S
O156 C161 1.254 . S
O157 Zn154 2.031 . S
O157 C161 1.269 . S
O158 Zn155 1.986 . S
O158 C165 1.262 . S
O159 Zn154 2.049 . S
O159 C167 1.260 . S
O160 Zn155 1.996 . S
O160 C167 1.257 . S
C161 O156 1.254 . S
C161 O157 1.269 . S
C162 O163 1.249 . S
C162 O164 1.270 . S
O163 Zn155 1.943 . S
O163 C162 1.249 . S
O164 Zn154 2.067 . S
O164 C162 1.270 . S
C165 O158 1.262 . S
C165 O166 1.232 . S
O166 C165 1.232 . S
C167 O159 1.260 . S
C167 O160 1.257 . S
C168 C169 1.363 . S
C168 C174 1.379 . S
C168 N176 1.356 . S
C169 C168 1.363 . S
C169 C175 1.363 . S
C170 C171 1.363 . S
C170 C175 1.379 . S
C170 N177 1.356 . S
C171 C170 1.363 . S
C171 C174 1.363 . S
N172 C174 1.356 . S
N172 H184 0.984 . S
N172 H185 0.985 . S
N173 C175 1.356 . S
N173 H178 0.984 . S
N173 H179 0.985 . S
C174 C168 1.379 . S
C174 C171 1.363 . S
C174 N172 1.356 . S
C175 C169 1.363 . S
C175 C170 1.379 . S
C175 N173 1.356 . S
N176 C168 1.356 . S
N176 H182 0.984 . S
N176 H183 0.984 . S
N177 C170 1.356 . S
N177 H180 0.984 . S
N177 H181 0.985 . S
H178 N173 0.984 . S
H179 N173 0.985 . S
H180 N177 0.984 . S
H181 N177 0.985 . S
H182 N176 0.984 . S
H183 N176 0.984 . S
H184 N172 0.984 . S
H185 N172 0.985 . S
C186 C187 1.363 . S
C186 C192 1.379 . S
C186 N194 1.356 . S
C187 C186 1.363 . S
C187 C193 1.363 . S
C188 C189 1.363 . S
C188 C193 1.379 . S
C188 N195 1.356 . S
C189 C188 1.363 . S
C189 C192 1.363 . S
N190 C192 1.356 . S
N190 H202 0.984 . S
N190 H203 0.985 . S
N191 C193 1.356 . S
N191 H196 0.984 . S
N191 H197 0.985 . S
C192 C186 1.379 . S
C192 C189 1.363 . S
C192 N190 1.356 . S
C193 C187 1.363 . S
C193 C188 1.379 . S
C193 N191 1.356 . S
N194 C186 1.356 . S
N194 H200 0.984 . S
N194 H201 0.984 . S
N195 C188 1.356 . S
N195 H198 0.984 . S
N195 H199 0.985 . S
H196 N191 0.984 . S
H197 N191 0.985 . S
H198 N195 0.984 . S
H199 N195 0.985 . S
H200 N194 0.984 . S
H201 N194 0.984 . S
H202 N190 0.984 . S
H203 N190 0.985 . S
C204 C205 1.363 . S
C204 C210 1.379 . S
C204 N212 1.356 . S
C205 C204 1.363 . S
C205 C211 1.363 . S
C206 C207 1.363 . S
C206 C211 1.379 . S
C206 N213 1.356 . S
C207 C206 1.363 . S
C207 C210 1.363 . S
N208 C210 1.356 . S
N208 H220 0.984 . S
N208 H221 0.985 . S
N209 C211 1.356 . S
N209 H214 0.984 . S
N209 H215 0.985 . S
C210 C204 1.379 . S
C210 C207 1.363 . S
C210 N208 1.356 . S
C211 C205 1.363 . S
C211 C206 1.379 . S
C211 N209 1.356 . S
N212 C204 1.356 . S
N212 H218 0.984 . S
N212 H219 0.984 . S
N213 C206 1.356 . S
N213 H216 0.984 . S
N213 H217 0.985 . S
H214 N209 0.984 . S
H215 N209 0.985 . S
H216 N213 0.984 . S
H217 N213 0.985 . S
H218 N212 0.984 . S
H219 N212 0.984 . S
H220 N208 0.984 . S
H221 N208 0.985 . S
C222 C223 1.363 . S
C222 C228 1.379 . S
C222 N230 1.356 . S
C223 C222 1.363 . S
C223 C229 1.363 . S
C224 C225 1.363 . S
C224 C229 1.379 . S
C224 N231 1.356 . S
C225 C224 1.363 . S
C225 C228 1.363 . S
N226 C228 1.356 . S
N226 H238 0.984 . S
N226 H239 0.985 . S
N227 C229 1.356 . S
N227 H232 0.984 . S
N227 H233 0.985 . S
C228 C222 1.379 . S
C228 C225 1.363 . S
C228 N226 1.356 . S
C229 C223 1.363 . S
C229 C224 1.379 . S
C229 N227 1.356 . S
N230 C222 1.356 . S
N230 H236 0.984 . S
N230 H237 0.984 . S
N231 C224 1.356 . S
N231 H234 0.984 . S
N231 H235 0.985 . S
H232 N227 0.984 . S
H233 N227 0.985 . S
H234 N231 0.984 . S
H235 N231 0.985 . S
H236 N230 0.984 . S
H237 N230 0.984 . S
H238 N226 0.984 . S
H239 N226 0.985 . S
C240 C241 1.363 . S
C240 C246 1.379 . S
C240 N248 1.356 . S
C241 C240 1.363 . S
C241 C247 1.363 . S
C242 C243 1.363 . S
C242 C247 1.379 . S
C242 N249 1.356 . S
C243 C242 1.363 . S
C243 C246 1.363 . S
N244 C246 1.356 . S
N244 H256 0.984 . S
N244 H257 0.985 . S
N245 C247 1.356 . S
N245 H250 0.984 . S
N245 H251 0.985 . S
C246 C240 1.379 . S
C246 C243 1.363 . S
C246 N244 1.356 . S
C247 C241 1.363 . S
C247 C242 1.379 . S
C247 N245 1.356 . S
N248 C240 1.356 . S
N248 H254 0.984 . S
N248 H255 0.984 . S
N249 C242 1.356 . S
N249 H252 0.984 . S
N249 H253 0.985 . S
H250 N245 0.984 . S
H251 N245 0.985 . S
H252 N249 0.984 . S
H253 N249 0.985 . S
H254 N248 0.984 . S
H255 N248 0.984 . S
H256 N244 0.984 . S
H257 N244 0.985 . S
C258 C259 1.363 . S
C258 C264 1.379 . S
C258 N266 1.356 . S
C259 C258 1.363 . S
C259 C265 1.363 . S
C260 C261 1.363 . S
C260 C265 1.379 . S
C260 N267 1.356 . S
C261 C260 1.363 . S
C261 C264 1.363 . S
N262 C264 1.356 . S
N262 H274 0.984 . S
N262 H275 0.985 . S
N263 C265 1.356 . S
N263 H268 0.984 . S
N263 H269 0.985 . S
C264 C258 1.379 . S
C264 C261 1.363 . S
C264 N262 1.356 . S
C265 C259 1.363 . S
C265 C260 1.379 . S
C265 N263 1.356 . S
N266 C258 1.356 . S
N266 H272 0.984 . S
N266 H273 0.984 . S
N267 C260 1.356 . S
N267 H270 0.984 . S
N267 H271 0.985 . S
H268 N263 0.984 . S
H269 N263 0.985 . S
H270 N267 0.984 . S
H271 N267 0.985 . S
H272 N266 0.984 . S
H273 N266 0.984 . S
H274 N262 0.984 . S
H275 N262 0.985 . S
C276 C277 1.363 1_556 S
C276 C282 1.379 . S
C276 N284 1.356 . S
C277 C276 1.363 1_554 S
C277 C283 1.363 1_545 S
C278 C279 1.363 1_554 S
C278 C283 1.379 . S
C278 N285 1.356 . S
C279 C278 1.363 1_556 S
C279 C282 1.363 1_565 S
N280 C282 1.356 1_565 S
N280 H292 0.984 1_565 S
N280 H293 0.985 . S
N281 C283 1.353 . S
N281 H286 0.967 1_565 S
N281 H287 1.006 . S
C282 C276 1.379 . S
C282 C279 1.363 1_545 S
C282 N280 1.356 1_545 S
C283 C277 1.363 1_565 S
C283 C278 1.379 . S
C283 N281 1.353 . S
N284 C276 1.356 . S
N284 H290 0.984 . S
N284 H291 0.984 . S
N285 C278 1.356 . S
N285 H288 0.984 . S
N285 H289 0.985 . S
H286 N281 0.967 1_545 S
H287 N281 1.006 . S
H288 N285 0.984 . S
H289 N285 0.985 . S
H290 N284 0.984 . S
H291 N284 0.984 . S
H292 N280 0.984 1_545 S
H293 N280 0.985 . S
C294 C295 1.363 . S
C294 C300 1.379 . S
C294 N302 1.356 . S
C295 C294 1.363 . S
C295 C301 1.363 . S
C296 C297 1.363 . S
C296 C301 1.379 . S
C296 N303 1.356 . S
C297 C296 1.363 . S
C297 C300 1.363 . S
N298 C300 1.356 . S
N298 H310 0.984 . S
N298 H311 0.985 . S
N299 C301 1.356 . S
N299 H304 0.984 . S
N299 H305 0.985 . S
C300 C294 1.379 . S
C300 C297 1.363 . S
C300 N298 1.356 . S
C301 C295 1.363 . S
C301 C296 1.379 . S
C301 N299 1.356 . S
N302 C294 1.356 . S
N302 H308 0.984 . S
N302 H309 0.984 . S
N303 C296 1.356 . S
N303 H306 0.984 . S
N303 H307 0.985 . S
H304 N299 0.984 . S
H305 N299 0.985 . S
H306 N303 0.984 . S
H307 N303 0.985 . S
H308 N302 0.984 . S
H309 N302 0.984 . S
H310 N298 0.984 . S
H311 N298 0.985 . S
C312 C313 1.363 . S
C312 C318 1.379 1_455 S
C312 N320 1.356 . S
C313 C312 1.363 . S
C313 C319 1.363 1_556 S
C314 C315 1.363 . S
C314 C319 1.379 1_655 S
C314 N321 1.356 . S
C315 C314 1.363 . S
C315 C318 1.363 1_554 S
N316 C318 1.356 . S
N316 H328 0.984 . S
N316 H329 0.985 1_556 S
N317 C319 1.356 . S
N317 H322 0.984 1_554 S
N317 H323 0.985 . S
C318 C312 1.379 1_655 S
C318 C315 1.363 1_556 S
C318 N316 1.356 . S
C319 C313 1.363 1_554 S
C319 C314 1.379 1_455 S
C319 N317 1.356 . S
N320 C312 1.356 . S
N320 H326 0.984 . S
N320 H327 0.984 . S
N321 C314 1.356 . S
N321 H324 0.984 . S
N321 H325 0.985 . S
H322 N317 0.984 1_556 S
H323 N317 0.985 . S
H324 N321 0.984 . S
H325 N321 0.985 . S
H326 N320 0.984 . S
H327 N320 0.984 . S
H328 N316 0.984 . S
H329 N316 0.985 1_554 S
C330 C331 1.363 . S
C330 C336 1.379 . S
C330 N338 1.356 . S
C331 C330 1.363 . S
C331 C337 1.369 . S
C332 C333 1.363 . S
C332 C337 1.376 1_565 S
C332 N339 1.356 . S
C333 C332 1.363 . S
C333 C336 1.363 1_565 S
N334 C336 1.356 1_565 S
N334 H346 0.984 1_565 S
N334 H347 0.985 . S
N335 C337 1.355 . S
N335 H340 0.984 . S
N335 H341 0.985 1_545 S
C336 C330 1.379 . S
C336 C333 1.363 1_545 S
C336 N334 1.356 1_545 S
C337 C331 1.369 . S
C337 C332 1.376 1_545 S
C337 N335 1.355 . S
N338 C330 1.356 . S
N338 H344 0.984 . S
N338 H345 0.984 . S
N339 C332 1.356 . S
N339 H342 0.984 . S
N339 H343 0.985 . S
H340 N335 0.984 . S
H341 N335 0.985 1_565 S
H342 N339 0.984 . S
H343 N339 0.985 . S
H344 N338 0.984 . S
H345 N338 0.984 . S
H346 N334 0.984 1_545 S
H347 N334 0.985 . S
C348 C349 1.363 . S
C348 C354 1.379 1_556 S
C348 N356 1.356 . S
C349 C348 1.363 . S
C349 C355 1.363 . S
C350 C351 1.363 . S
C350 C355 1.379 1_554 S
C350 N357 1.356 . S
C351 C350 1.363 . S
C351 C354 1.363 . S
N352 C354 1.356 . S
N352 H364 0.984 . S
N352 H365 0.985 . S
N353 C355 1.356 . S
N353 H358 0.984 . S
N353 H359 0.985 . S
C354 C348 1.379 1_554 S
C354 C351 1.363 . S
C354 N352 1.356 . S
C355 C349 1.363 . S
C355 C350 1.379 1_556 S
C355 N353 1.356 . S
N356 C348 1.356 . S
N356 H362 0.984 . S
N356 H363 0.984 . S
N357 C350 1.356 . S
N357 H360 0.984 . S
N357 H361 0.985 . S
H358 N353 0.984 . S
H359 N353 0.985 . S
H360 N357 0.984 . S
H361 N357 0.985 . S
H362 N356 0.984 . S
H363 N356 0.984 . S
H364 N352 0.984 . S
H365 N352 0.985 . S
C366 C367 1.363 1_455 S
C366 C372 1.379 . S
C366 N374 1.356 1_455 S
C367 C366 1.363 1_655 S
C367 C373 1.363 . S
C368 C369 1.358 1_655 S
C368 C373 1.382 . S
C368 N375 1.356 1_655 S
C369 C368 1.358 1_455 S
C369 C372 1.363 . S
N370 C372 1.356 . S
N370 H382 0.984 . S
N370 H383 0.985 . S
N371 C373 1.356 . S
N371 H376 0.984 . S
N371 H377 0.985 . S
C372 C366 1.379 . S
C372 C369 1.363 . S
C372 N370 1.356 . S
C373 C367 1.363 . S
C373 C368 1.382 . S
C373 N371 1.356 . S
N374 C366 1.356 1_655 S
N374 H380 0.984 1_655 S
N374 H381 0.984 . S
N375 C368 1.356 1_455 S
N375 H378 0.984 . S
N375 H379 0.985 1_455 S
H376 N371 0.984 . S
H377 N371 0.985 . S
H378 N375 0.984 . S
H379 N375 0.985 1_655 S
H380 N374 0.984 1_455 S
H381 N374 0.984 . S
H382 N370 0.984 . S
H383 N370 0.985 . S
C384 C385 1.363 . S
C384 C390 1.379 . S
C384 N392 1.356 . S
C385 C384 1.363 . S
C385 C391 1.363 . S
C386 C387 1.363 . S
C386 C391 1.379 . S
C386 N393 1.356 . S
C387 C386 1.363 . S
C387 C390 1.363 . S
N388 C390 1.356 . S
N388 H400 0.984 . S
N388 H401 0.985 . S
N389 C391 1.356 . S
N389 H394 0.984 . S
N389 H395 0.985 1_554 S
C390 C384 1.379 . S
C390 C387 1.363 . S
C390 N388 1.356 . S
C391 C385 1.363 . S
C391 C386 1.379 . S
C391 N389 1.356 . S
N392 C384 1.356 . S
N392 H398 0.984 . S
N392 H399 0.984 . S
N393 C386 1.356 . S
N393 H396 0.984 . S
N393 H397 0.985 1_554 S
H394 N389 0.984 . S
H395 N389 0.985 1_556 S
H396 N393 0.984 . S
H397 N393 0.985 1_556 S
H398 N392 0.984 . S
H399 N392 0.984 . S
H400 N388 0.984 . S
H401 N388 0.985 . S
C402 C403 1.363 . S
C402 C408 1.379 . S
C402 N410 1.356 . S
C403 C402 1.363 . S
C403 C409 1.363 . S
C404 C405 1.363 . S
C404 C409 1.379 . S
C404 N411 1.356 . S
C405 C404 1.363 . S
C405 C408 1.363 . S
N406 C408 1.356 . S
N406 H418 0.984 . S
N406 H419 0.985 . S
N407 C409 1.356 . S
N407 H412 0.984 . S
N407 H413 0.985 . S
C408 C402 1.379 . S
C408 C405 1.363 . S
C408 N406 1.356 . S
C409 C403 1.363 . S
C409 C404 1.379 . S
C409 N407 1.356 . S
N410 C402 1.356 . S
N410 H416 0.984 . S
N410 H417 0.984 . S
N411 C404 1.356 . S
N411 H414 0.984 . S
N411 H415 0.985 . S
H412 N407 0.984 . S
H413 N407 0.985 . S
H414 N411 0.984 . S
H415 N411 0.985 . S
H416 N410 0.984 . S
H417 N410 0.984 . S
H418 N406 0.984 . S
H419 N406 0.985 . S
C420 C421 1.363 . S
C420 C426 1.379 . S
C420 N428 1.356 . S
C421 C420 1.363 . S
C421 C427 1.363 . S
C422 C423 1.363 . S
C422 C427 1.379 . S
C422 N429 1.356 . S
C423 C422 1.363 . S
C423 C426 1.363 . S
N424 C426 1.356 . S
N424 H436 0.984 1_554 S
N424 H437 0.985 . S
N425 C427 1.356 . S
N425 H430 0.984 . S
N425 H431 0.985 . S
C426 C420 1.379 . S
C426 C423 1.363 . S
C426 N424 1.356 . S
C427 C421 1.363 . S
C427 C422 1.379 . S
C427 N425 1.356 . S
N428 C420 1.356 . S
N428 H434 0.984 1_554 S
N428 H435 0.984 . S
N429 C422 1.356 . S
N429 H432 0.984 . S
N429 H433 0.985 . S
H430 N425 0.984 . S
H431 N425 0.985 . S
H432 N429 0.984 . S
H433 N429 0.985 . S
H434 N428 0.984 1_556 S
H435 N428 0.984 . S
H436 N424 0.984 1_556 S
H437 N424 0.985 . S
C438 C439 1.363 . S
C438 C444 1.379 . S
C438 N446 1.356 . S
C439 C438 1.363 . S
C439 C445 1.363 . S
C440 C441 1.363 . S
C440 C445 1.379 . S
C440 N447 1.356 . S
C441 C440 1.363 . S
C441 C444 1.363 . S
N442 C444 1.356 . S
N442 H454 0.984 . S
N442 H455 0.985 . S
N443 C445 1.356 . S
N443 H448 0.984 . S
N443 H449 0.985 . S
C444 C438 1.379 . S
C444 C441 1.363 . S
C444 N442 1.356 . S
C445 C439 1.363 . S
C445 C440 1.379 . S
C445 N443 1.356 . S
N446 C438 1.356 . S
N446 H452 0.984 . S
N446 H453 0.984 . S
N447 C440 1.356 . S
N447 H450 0.984 . S
N447 H451 0.985 . S
H448 N443 0.984 . S
H449 N443 0.985 . S
H450 N447 0.984 . S
H451 N447 0.985 . S
H452 N446 0.984 . S
H453 N446 0.984 . S
H454 N442 0.984 . S
H455 N442 0.985 . S
C456 C457 1.363 . S
C456 C462 1.379 . S
C456 N464 1.356 . S
C457 C456 1.363 . S
C457 C463 1.363 . S
C458 C459 1.363 . S
C458 C463 1.379 . S
C458 N465 1.356 . S
C459 C458 1.363 . S
C459 C462 1.363 . S
N460 C462 1.356 . S
N460 H472 0.984 . S
N460 H473 0.985 . S
N461 C463 1.356 . S
N461 H466 0.984 . S
N461 H467 0.985 . S
C462 C456 1.379 . S
C462 C459 1.363 . S
C462 N460 1.356 . S
C463 C457 1.363 . S
C463 C458 1.379 . S
C463 N461 1.356 . S
N464 C456 1.356 . S
N464 H470 0.984 . S
N464 H471 0.984 . S
N465 C458 1.356 . S
N465 H468 0.984 . S
N465 H469 0.985 . S
H466 N461 0.984 . S
H467 N461 0.985 . S
H468 N465 0.984 . S
H469 N465 0.985 . S
H470 N464 0.984 . S
H471 N464 0.984 . S
H472 N460 0.984 . S
H473 N460 0.985 . S
C474 C475 1.363 . S
C474 C480 1.379 . S
C474 N482 1.356 . S
C475 C474 1.363 . S
C475 C481 1.363 . S
C476 C477 1.363 . S
C476 C481 1.379 . S
C476 N483 1.356 . S
C477 C476 1.363 . S
C477 C480 1.363 . S
N478 C480 1.356 . S
N478 H490 0.984 . S
N478 H491 0.985 . S
N479 C481 1.356 . S
N479 H484 0.984 . S
N479 H485 0.985 . S
C480 C474 1.379 . S
C480 C477 1.363 . S
C480 N478 1.356 . S
C481 C475 1.363 . S
C481 C476 1.379 . S
C481 N479 1.356 . S
N482 C474 1.356 . S
N482 H488 0.984 . S
N482 H489 0.984 . S
N483 C476 1.356 . S
N483 H486 0.984 . S
N483 H487 0.985 . S
H484 N479 0.984 . S
H485 N479 0.985 . S
H486 N483 0.984 . S
H487 N483 0.985 . S
H488 N482 0.984 . S
H489 N482 0.984 . S
H490 N478 0.984 . S
H491 N478 0.985 . S
C492 C493 1.363 . S
C492 C498 1.379 . S
C492 N500 1.356 . S
C493 C492 1.363 . S
C493 C499 1.363 . S
C494 C495 1.363 . S
C494 C499 1.379 . S
C494 N501 1.356 . S
C495 C494 1.363 . S
C495 C498 1.363 . S
N496 C498 1.356 . S
N496 H508 0.984 . S
N496 H509 0.985 . S
N497 C499 1.356 . S
N497 H502 0.984 . S
N497 H503 0.985 . S
C498 C492 1.379 . S
C498 C495 1.363 . S
C498 N496 1.356 . S
C499 C493 1.363 . S
C499 C494 1.379 . S
C499 N497 1.356 . S
N500 C492 1.356 . S
N500 H506 0.984 . S
N500 H507 0.984 . S
N501 C494 1.356 . S
N501 H504 0.984 . S
N501 H505 0.985 . S
H502 N497 0.984 . S
H503 N497 0.985 . S
H504 N501 0.984 . S
H505 N501 0.985 . S
H506 N500 0.984 . S
H507 N500 0.984 . S
H508 N496 0.984 . S
H509 N496 0.985 . S
C510 C511 1.363 . S
C510 C516 1.379 . S
C510 N518 1.356 . S
C511 C510 1.363 . S
C511 C517 1.363 . S
C512 C513 1.363 . S
C512 C517 1.379 . S
C512 N519 1.356 . S
C513 C512 1.363 . S
C513 C516 1.363 . S
N514 C516 1.356 . S
N514 H526 0.984 . S
N514 H527 0.985 . S
N515 C517 1.356 . S
N515 H520 0.984 . S
N515 H521 0.985 1_556 S
C516 C510 1.379 . S
C516 C513 1.363 . S
C516 N514 1.356 . S
C517 C511 1.363 . S
C517 C512 1.379 . S
C517 N515 1.356 . S
N518 C510 1.356 . S
N518 H524 0.984 . S
N518 H525 0.984 . S
N519 C512 1.356 . S
N519 H522 0.984 . S
N519 H523 0.985 1_556 S
H520 N515 0.984 . S
H521 N515 0.985 1_554 S
H522 N519 0.984 . S
H523 N519 0.985 1_554 S
H524 N518 0.984 . S
H525 N518 0.984 . S
H526 N514 0.984 . S
H527 N514 0.985 . S
C528 C529 1.363 . S
C528 C534 1.379 . S
C528 N536 1.356 . S
C529 C528 1.363 . S
C529 C535 1.363 . S
C530 C531 1.363 . S
C530 C535 1.379 . S
C530 N537 1.356 . S
C531 C530 1.363 . S
C531 C534 1.363 . S
N532 C534 1.356 . S
N532 H544 0.984 . S
N532 H545 0.985 . S
N533 C535 1.356 . S
N533 H538 0.984 . S
N533 H539 0.985 . S
C534 C528 1.379 . S
C534 C531 1.363 . S
C534 N532 1.356 . S
C535 C529 1.363 . S
C535 C530 1.379 . S
C535 N533 1.356 . S
N536 C528 1.356 . S
N536 H542 0.984 . S
N536 H543 0.984 . S
N537 C530 1.356 . S
N537 H540 0.984 . S
N537 H541 0.985 . S
H538 N533 0.984 . S
H539 N533 0.985 . S
H540 N537 0.984 . S
H541 N537 0.985 . S
H542 N536 0.984 . S
H543 N536 0.984 . S
H544 N532 0.984 . S
H545 N532 0.985 . S
C546 C547 1.363 . S
C546 C552 1.379 . S
C546 N554 1.356 . S
C547 C546 1.363 . S
C547 C553 1.363 . S
C548 C549 1.363 . S
C548 C553 1.379 . S
C548 N555 1.356 . S
C549 C548 1.363 . S
C549 C552 1.363 . S
N550 C552 1.356 . S
N550 H562 0.984 . S
N550 H563 0.985 . S
N551 C553 1.356 . S
N551 H556 0.984 . S
N551 H557 0.985 . S
C552 C546 1.379 . S
C552 C549 1.363 . S
C552 N550 1.356 . S
C553 C547 1.363 . S
C553 C548 1.379 . S
C553 N551 1.356 . S
N554 C546 1.356 . S
N554 H560 0.984 . S
N554 H561 0.984 . S
N555 C548 1.356 . S
N555 H558 0.984 . S
N555 H559 0.985 . S
H556 N551 0.984 . S
H557 N551 0.985 . S
H558 N555 0.984 . S
H559 N555 0.985 . S
H560 N554 0.984 . S
H561 N554 0.984 . S
H562 N550 0.984 . S
H563 N550 0.985 . S
C564 C565 1.363 . S
C564 C570 1.379 . S
C564 N572 1.356 . S
C565 C564 1.363 . S
C565 C571 1.363 . S
C566 C567 1.363 . S
C566 C571 1.379 . S
C566 N573 1.356 . S
C567 C566 1.363 . S
C567 C570 1.363 . S
N568 C570 1.356 . S
N568 H580 0.984 . S
N568 H581 0.985 . S
N569 C571 1.356 . S
N569 H574 0.984 . S
N569 H575 0.985 . S
C570 C564 1.379 . S
C570 C567 1.363 . S
C570 N568 1.356 . S
C571 C565 1.363 . S
C571 C566 1.379 . S
C571 N569 1.356 . S
N572 C564 1.356 . S
N572 H578 0.984 . S
N572 H579 0.984 . S
N573 C566 1.356 . S
N573 H576 0.984 . S
N573 H577 0.985 . S
H574 N569 0.984 . S
H575 N569 0.985 . S
H576 N573 0.984 . S
H577 N573 0.985 . S
H578 N572 0.984 . S
H579 N572 0.984 . S
H580 N568 0.984 . S
H581 N568 0.985 . S
C582 C583 1.363 . S
C582 C588 1.379 . S
C582 N590 1.356 . S
C583 C582 1.363 . S
C583 C589 1.363 . S
C584 C585 1.363 . S
C584 C589 1.379 . S
C584 N591 1.356 . S
C585 C584 1.363 . S
C585 C588 1.363 . S
N586 C588 1.356 . S
N586 H598 0.984 1_556 S
N586 H599 0.985 . S
N587 C589 1.356 . S
N587 H592 0.984 . S
N587 H593 0.985 . S
C588 C582 1.379 . S
C588 C585 1.363 . S
C588 N586 1.356 . S
C589 C583 1.363 . S
C589 C584 1.379 . S
C589 N587 1.356 . S
N590 C582 1.356 . S
N590 H596 0.984 1_556 S
N590 H597 0.984 . S
N591 C584 1.356 . S
N591 H594 0.984 . S
N591 H595 0.985 . S
H592 N587 0.984 . S
H593 N587 0.985 . S
H594 N591 0.984 . S
H595 N591 0.985 . S
H596 N590 0.984 1_554 S
H597 N590 0.984 . S
H598 N586 0.984 1_554 S
H599 N586 0.985 . S
C169 C153 1.350 . S
C171 C13 1.356 . S
C187 C27 1.269 . S
C189 C167 1.270 . S
C205 C41 1.351 . S
C207 C97 1.356 . S
C223 C111 1.351 . S
C225 C55 1.356 . S
C241 C125 1.269 . S
C243 C69 1.270 . S
C259 C83 1.351 . S
C261 C139 1.356 . S
C277 C11 1.138 . S
C279 C109 1.117 . S
C295 C25 1.013 . S
C297 C123 1.013 . S
C313 C137 1.138 . S
C315 C39 1.117 . S
C331 C151 1.117 . S
C333 C53 1.138 . S
C349 C165 1.013 . S
C351 C67 1.013 . S
C367 C95 1.138 . S
C369 C81 1.117 . S
C385 C8 1.146 . S
C387 C63 1.098 . S
C403 C22 1.082 . S
C405 C77 1.093 . S
C421 C36 1.119 . S
C423 C7 1.095 . S
C439 C50 1.146 . S
C441 C21 1.098 . S
C457 C64 1.082 . S
C459 C35 1.093 . S
C475 C78 1.119 . S
C477 C49 1.095 . S
C493 C92 1.146 . S
C495 C119 1.098 . S
C511 C106 1.119 . S
C513 C133 1.095 . S
C529 C147 1.092 . S
C531 C120 1.082 . S
C547 C134 1.146 . S
C549 C161 1.098 . S
C565 C148 1.119 . S
C567 C91 1.095 . S
C583 C162 1.082 . S
C585 C105 1.093 . S
