# Generated by pormake.
# Topology lcy-e, (6)-cn, num edge types: 1
# Building blocks:
#     Node 0, Type 0, BuildingBlock: FUNLAD_clean_sbu_0, # of connection points: 6
#     Node 1, Type 0, BuildingBlock: FUNLAD_clean_sbu_0, # of connection points: 6
#     Node 2, Type 0, BuildingBlock: FUNLAD_clean_sbu_0, # of connection points: 6
#     Node 3, Type 0, BuildingBlock: FUNLAD_clean_sbu_0, # of connection points: 6
#     Node 4, Type 0, BuildingBlock: FUNLAD_clean_sbu_0, # of connection points: 6
#     Node 5, Type 0, BuildingBlock: FUNLAD_clean_sbu_0, # of connection points: 6
#     Node 6, Type 0, BuildingBlock: FUNLAD_clean_sbu_0, # of connection points: 6
#     Node 7, Type 0, BuildingBlock: FUNLAD_clean_sbu_0, # of connection points: 6
#     Node 8, Type 0, BuildingBlock: FUNLAD_clean_sbu_0, # of connection points: 6
#     Node 9, Type 0, BuildingBlock: FUNLAD_clean_sbu_0, # of connection points: 6
#     Node 10, Type 0, BuildingBlock: FUNLAD_clean_sbu_0, # of connection points: 6
#     Node 11, Type 0, BuildingBlock: FUNLAD_clean_sbu_0, # of connection points: 6
#     Edge 12, Type (0, 0), BuildingBlock: XUDNAN_clean_linker_2, # of connection points: 2
#     Edge 13, Type (0, 0), BuildingBlock: XUDNAN_clean_linker_2, # of connection points: 2
#     Edge 14, Type (0, 0), BuildingBlock: XUDNAN_clean_linker_2, # of connection points: 2
#     Edge 15, Type (0, 0), BuildingBlock: XUDNAN_clean_linker_2, # of connection points: 2
#     Edge 16, Type (0, 0), BuildingBlock: XUDNAN_clean_linker_2, # of connection points: 2
#     Edge 17, Type (0, 0), BuildingBlock: XUDNAN_clean_linker_2, # of connection points: 2
#     Edge 18, Type (0, 0), BuildingBlock: XUDNAN_clean_linker_2, # of connection points: 2
#     Edge 19, Type (0, 0), BuildingBlock: XUDNAN_clean_linker_2, # of connection points: 2
#     Edge 20, Type (0, 0), BuildingBlock: XUDNAN_clean_linker_2, # of connection points: 2
#     Edge 21, Type (0, 0), BuildingBlock: XUDNAN_clean_linker_2, # of connection points: 2
#     Edge 22, Type (0, 0), BuildingBlock: XUDNAN_clean_linker_2, # of connection points: 2
#     Edge 23, Type (0, 0), BuildingBlock: XUDNAN_clean_linker_2, # of connection points: 2
#     Edge 24, Type (0, 0), BuildingBlock: XUDNAN_clean_linker_2, # of connection points: 2
#     Edge 25, Type (0, 0), BuildingBlock: XUDNAN_clean_linker_2, # of connection points: 2
#     Edge 26, Type (0, 0), BuildingBlock: XUDNAN_clean_linker_2, # of connection points: 2
#     Edge 27, Type (0, 0), BuildingBlock: XUDNAN_clean_linker_2, # of connection points: 2
#     Edge 28, Type (0, 0), BuildingBlock: XUDNAN_clean_linker_2, # of connection points: 2
#     Edge 29, Type (0, 0), BuildingBlock: XUDNAN_clean_linker_2, # of connection points: 2
#     Edge 30, Type (0, 0), BuildingBlock: XUDNAN_clean_linker_2, # of connection points: 2
#     Edge 31, Type (0, 0), BuildingBlock: XUDNAN_clean_linker_2, # of connection points: 2
#     Edge 32, Type (0, 0), BuildingBlock: XUDNAN_clean_linker_2, # of connection points: 2
#     Edge 33, Type (0, 0), BuildingBlock: XUDNAN_clean_linker_2, # of connection points: 2
#     Edge 34, Type (0, 0), BuildingBlock: XUDNAN_clean_linker_2, # of connection points: 2
#     Edge 35, Type (0, 0), BuildingBlock: XUDNAN_clean_linker_2, # of connection points: 2
#     Edge 36, Type (0, 0), BuildingBlock: XUDNAN_clean_linker_2, # of connection points: 2
#     Edge 37, Type (0, 0), BuildingBlock: XUDNAN_clean_linker_2, # of connection points: 2
#     Edge 38, Type (0, 0), BuildingBlock: XUDNAN_clean_linker_2, # of connection points: 2
#     Edge 39, Type (0, 0), BuildingBlock: XUDNAN_clean_linker_2, # of connection points: 2
#     Edge 40, Type (0, 0), BuildingBlock: XUDNAN_clean_linker_2, # of connection points: 2
#     Edge 41, Type (0, 0), BuildingBlock: XUDNAN_clean_linker_2, # of connection points: 2
#     Edge 42, Type (0, 0), BuildingBlock: XUDNAN_clean_linker_2, # of connection points: 2
#     Edge 43, Type (0, 0), BuildingBlock: XUDNAN_clean_linker_2, # of connection points: 2
#     Edge 44, Type (0, 0), BuildingBlock: XUDNAN_clean_linker_2, # of connection points: 2
#     Edge 45, Type (0, 0), BuildingBlock: XUDNAN_clean_linker_2, # of connection points: 2
#     Edge 46, Type (0, 0), BuildingBlock: XUDNAN_clean_linker_2, # of connection points: 2
#     Edge 47, Type (0, 0), BuildingBlock: XUDNAN_clean_linker_2, # of connection points: 2
# Relax obj value: 0.597
# Max RMSD: 0.359
# Mean RMSD: 0.291
data_MOF--net-lcy-e--node1-FUNLAD_clean_sbu_0--edge1-XUDNAN_clean_linker_2
_symmetry_space_group_name_H-M    P1
_symmetry_Int_Tables_number       1
_symmetry_cell_setting            triclinic
loop_
_symmetry_equiv_pos_as_xyz
'x, y, z'
_cell_length_a     40.591761
_cell_length_b     38.031414
_cell_length_c     37.446363
_cell_angle_alpha  92.943428
_cell_angle_beta   87.239978
_cell_angle_gamma 95.669934
loop_
_atom_site_label
_atom_site_type_symbol
_atom_site_fract_x
_atom_site_fract_y
_atom_site_fract_z
_atom_type_partial_charge
C0 C 0.13625 0.20367 0.52988 0.0
N1 N 0.06886 0.20234 0.44627 0.0
C2 C 0.06818 0.16693 0.43876 0.0
C3 C 0.04131 0.14885 0.42139 0.0
C4 C 0.01514 0.16752 0.41144 0.0
C5 C 0.01624 0.20383 0.42058 0.0
C6 C 0.04329 0.22068 0.43814 0.0
Zn7 Zn 0.1094 0.23216 0.4653 0.0
C8 C 0.09099 0.28625 0.52077 0.0
N9 N 0.19272 0.30138 0.49975 0.0
C10 C 0.2237 0.29438 0.50797 0.0
C11 C 0.18533 0.33532 0.49754 0.0
C12 C 0.20903 0.36355 0.50309 0.0
C13 C 0.24107 0.35764 0.51205 0.0
C14 C 0.24845 0.32239 0.51441 0.0
Zn15 Zn 0.15393 0.26551 0.484 0.0
O16 O 0.1146 0.19697 0.50632 0.0
C17 C 0.17371 0.20906 0.43351 0.0
O18 O 0.15625 0.23179 0.52847 0.0
H19 H 0.16102 0.34086 0.49025 0.0
H20 H 0.08882 0.1529 0.44539 0.0
H21 H 0.22938 0.26726 0.50898 0.0
O22 O 0.14238 0.20289 0.43143 0.0
O23 O 0.18553 0.23477 0.45356 0.0
H24 H 0.04438 0.24887 0.44406 0.0
O25 O 0.15098 0.29768 0.4389 0.0
O26 O 0.10519 0.26756 0.42301 0.0
O27 O 0.12177 0.29471 0.51584 0.0
O28 O 0.07735 0.26054 0.50204 0.0
C29 C 0.12752 0.29271 0.41754 0.0
H30 H 0.04126 0.12067 0.41549 0.0
H31 H 0.99702 0.21948 0.41308 0.0
H32 H 0.20221 0.38994 0.49961 0.0
H33 H 0.27289 0.31655 0.5212 0.0
C34 C 0.08496 0.9475 0.77136 0.0
N35 N 0.13662 0.9016 0.6831 0.0
C36 C 0.16696 0.91804 0.69088 0.0
C37 C 0.19557 0.90047 0.68345 0.0
C38 C 0.19252 0.86574 0.66835 0.0
C39 C 0.16102 0.85001 0.65997 0.0
C40 C 0.13345 0.8684 0.66752 0.0
Zn41 Zn 0.0923 0.92235 0.69419 0.0
C42 C 0.04234 0.86894 0.72533 0.0
N43 N 0.99798 0.95971 0.71651 0.0
C44 C 0.98597 0.98089 0.74358 0.0
C45 C 0.97695 0.93949 0.69477 0.0
C46 C 0.94304 0.93947 0.69974 0.0
C47 C 0.92974 0.9591 0.72849 0.0
C48 C 0.95149 0.98107 0.75007 0.0
Zn49 Zn 0.04585 0.94616 0.70881 0.0
O50 O 0.10528 0.93753 0.74684 0.0
C51 C 0.09496 0.00115 0.68166 0.0
O52 O 0.05582 0.95331 0.76375 0.0
H53 H 0.98599 0.92102 0.67479 0.0
H54 H 0.16894 0.94446 0.70324 0.0
H55 H 0.0029 0.99608 0.76125 0.0
O56 O 0.11079 0.97391 0.67515 0.0
O57 O 0.06687 0.99806 0.69858 0.0
H58 H 0.10928 0.85575 0.66122 0.0
O59 O 0.0386 0.93995 0.65267 0.0
O60 O 0.07912 0.90686 0.64121 0.0
O61 O 0.02489 0.89403 0.72067 0.0
O62 O 0.0727 0.87252 0.71511 0.0
C63 C 0.05528 0.92189 0.63046 0.0
H64 H 0.21956 0.91343 0.69026 0.0
H65 H 0.15766 0.82353 0.64773 0.0
H66 H 0.92731 0.92272 0.68195 0.0
H67 H 0.94206 0.99671 0.77256 0.0
C68 C 0.3607 0.78931 0.93897 0.0
N69 N 0.26993 0.83329 0.96604 0.0
C70 C 0.26784 0.83779 0.93043 0.0
C71 C 0.23896 0.84845 0.91737 0.0
C72 C 0.21244 0.85506 0.94132 0.0
C73 C 0.21438 0.84822 0.97747 0.0
C74 C 0.24345 0.83675 0.98928 0.0
Zn75 Zn 0.31544 0.83095 0.98633 0.0
C76 C 0.31886 0.76837 0.03127 0.0
N77 N 0.41017 0.83092 0.02968 0.0
C78 C 0.43857 0.84068 0.01032 0.0
C79 C 0.4102 0.82757 0.06565 0.0
C80 C 0.4392 0.83587 0.08384 0.0
C81 C 0.46858 0.84741 0.06486 0.0
C82 C 0.46837 0.84889 0.02751 0.0
Zn83 Zn 0.36518 0.82932 0.00777 0.0
O84 O 0.331 0.79764 0.94235 0.0
C85 C 0.36417 0.88813 0.95968 0.0
O86 O 0.3808 0.79885 0.96338 0.0
H87 H 0.38737 0.81985 0.08053 0.0
H88 H 0.28929 0.83544 0.91252 0.0
H89 H 0.4379 0.84344 0.98176 0.0
O90 O 0.33412 0.87602 0.95649 0.0
O91 O 0.38199 0.87422 0.98076 0.0
H92 H 0.24559 0.83293 0.01746 0.0
O93 O 0.35005 0.86104 0.05161 0.0
O94 O 0.30184 0.86634 0.03015 0.0
O95 O 0.34832 0.7829 0.03337 0.0
O96 O 0.29788 0.78386 0.015 0.0
C97 C 0.32275 0.8746 0.05403 0.0
H98 H 0.2382 0.85386 0.8893 0.0
H99 H 0.19425 0.8532 0.99653 0.0
H100 H 0.43861 0.83334 0.11256 0.0
H101 H 0.49073 0.85724 0.01199 0.0
C102 C 0.3587 0.10345 0.31856 0.0
N103 N 0.38818 0.18292 0.24674 0.0
C104 C 0.35554 0.18522 0.24151 0.0
C105 C 0.34511 0.21616 0.22893 0.0
C106 C 0.3686 0.24479 0.22094 0.0
C107 C 0.40214 0.24123 0.22629 0.0
C108 C 0.41129 0.21038 0.23981 0.0
Zn109 Zn 0.40484 0.13783 0.26389 0.0
C110 C 0.44621 0.15297 0.3287 0.0
N111 N 0.44348 0.04453 0.29812 0.0
C112 C 0.43141 0.01165 0.28556 0.0
C113 C 0.47424 0.04997 0.31159 0.0
C114 C 0.49487 0.02289 0.31032 0.0
C115 C 0.48436 0.98992 0.29415 0.0
C116 C 0.45183 0.98392 0.28268 0.0
Zn117 Zn 0.42328 0.08941 0.28409 0.0
O118 O 0.36395 0.12956 0.29859 0.0
C119 C 0.38193 0.07295 0.22055 0.0
O120 O 0.3795 0.08039 0.31861 0.0
H121 H 0.48443 0.07607 0.32025 0.0
H122 H 0.33753 0.16307 0.24715 0.0
H123 H 0.40693 0.00741 0.27507 0.0
O124 O 0.3787 0.106 0.22217 0.0
O125 O 0.39951 0.06059 0.24299 0.0
H126 H 0.43709 0.20836 0.24445 0.0
O127 O 0.46617 0.09909 0.24901 0.0
O128 O 0.4464 0.14554 0.22926 0.0
O129 O 0.44671 0.11971 0.32552 0.0
O130 O 0.43065 0.16848 0.30633 0.0
C131 C 0.46909 0.12496 0.2286 0.0
H132 H 0.31891 0.21763 0.22594 0.0
H133 H 0.42146 0.26191 0.21984 0.0
H134 H 0.52 0.02879 0.31894 0.0
H135 H 0.44292 0.95871 0.27009 0.0
C136 C 0.65796 0.31025 0.50633 0.0
N137 N 0.59778 0.33015 0.59847 0.0
C138 C 0.60981 0.36475 0.60243 0.0
C139 C 0.58956 0.38981 0.6177 0.0
C140 C 0.55663 0.37913 0.62889 0.0
C141 C 0.54505 0.34324 0.62429 0.0
C142 C 0.56607 0.3192 0.60916 0.0
Zn143 Zn 0.62609 0.29179 0.57706 0.0
C144 C 0.58597 0.2417 0.52734 0.0
N145 N 0.68184 0.20867 0.53207 0.0
C146 C 0.71394 0.21557 0.52016 0.0
C147 C 0.66738 0.17483 0.53287 0.0
C148 C 0.68531 0.14638 0.52169 0.0
C149 C 0.71865 0.15263 0.50993 0.0
C150 C 0.73291 0.18783 0.50909 0.0
Zn151 Zn 0.65477 0.24904 0.55218 0.0
O152 O 0.64198 0.32223 0.5336 0.0
C153 C 0.69584 0.30153 0.59866 0.0
O154 O 0.66689 0.27903 0.50598 0.0
H155 H 0.64198 0.16979 0.54279 0.0
H156 H 0.63511 0.37291 0.59385 0.0
H157 H 0.72503 0.2426 0.51966 0.0
O158 O 0.66814 0.31391 0.60584 0.0
O159 O 0.69732 0.27485 0.57693 0.0
H160 H 0.55689 0.29162 0.6059 0.0
O161 O 0.64194 0.22023 0.59972 0.0
O162 O 0.61018 0.26091 0.62003 0.0
O163 O 0.61174 0.22507 0.52613 0.0
O164 O 0.58542 0.26987 0.54701 0.0
C165 C 0.62182 0.23172 0.62367 0.0
H166 H 0.59969 0.41715 0.62095 0.0
H167 H 0.51974 0.33377 0.6317 0.0
H168 H 0.6734 0.11969 0.52311 0.0
H169 H 0.75842 0.19388 0.49981 0.0
C170 C 0.8856 0.38778 0.73893 0.0
N171 N 0.89334 0.31133 0.81389 0.0
C172 C 0.85969 0.30623 0.81341 0.0
C173 C 0.84314 0.27329 0.82092 0.0
C174 C 0.8614 0.24574 0.82971 0.0
C175 C 0.89594 0.25177 0.83053 0.0
C176 C 0.91154 0.28482 0.82202 0.0
Zn177 Zn 0.91792 0.35861 0.80015 0.0
C178 C 0.97104 0.35048 0.74419 0.0
N179 N 0.96957 0.45662 0.77203 0.0
C180 C 0.95797 0.48809 0.76574 0.0
C181 C 0.00263 0.45377 0.77346 0.0
C182 C 0.02539 0.48273 0.76847 0.0
C183 C 0.0144 0.51532 0.7619 0.0
C184 C 0.98032 0.51826 0.76047 0.0
Zn185 Zn 0.9416 0.41081 0.78439 0.0
O186 O 0.88355 0.36351 0.76116 0.0
C187 C 0.88963 0.42217 0.83794 0.0
O188 O 0.90944 0.41229 0.74023 0.0
H189 H 0.01166 0.42898 0.77916 0.0
H190 H 0.84566 0.32761 0.80696 0.0
H191 H 0.93157 0.48989 0.76522 0.0
O192 O 0.88761 0.38847 0.83889 0.0
O193 O 0.91018 0.43811 0.81641 0.0
H194 H 0.93827 0.28915 0.82164 0.0
O195 O 0.97249 0.40848 0.8295 0.0
O196 O 0.95276 0.35425 0.8399 0.0
O197 O 0.9732 0.38342 0.75127 0.0
O198 O 0.94845 0.33071 0.76016 0.0
C199 C 0.97268 0.38112 0.8475 0.0
H200 H 0.81636 0.26948 0.82036 0.0
H201 H 0.9107 0.23096 0.83711 0.0
H202 H 0.0516 0.47972 0.76975 0.0
H203 H 0.97124 0.54326 0.75531 0.0
C204 C 0.87771 0.65271 0.94426 0.0
N205 N 0.95106 0.6835 0.01817 0.0
C206 C 0.94532 0.65206 0.0342 0.0
C207 C 0.96921 0.64039 0.05518 0.0
C208 C 0.99972 0.66091 0.05936 0.0
C209 C 0.00548 0.69249 0.04109 0.0
C210 C 0.98066 0.70345 0.02081 0.0
Zn211 Zn 0.91261 0.70409 0.99543 0.0
C212 C 0.93327 0.74313 0.92899 0.0
N213 N 0.83088 0.74935 0.95357 0.0
C214 C 0.7997 0.73247 0.95417 0.0
C215 C 0.83653 0.78387 0.94516 0.0
C216 C 0.8102 0.80319 0.93836 0.0
C217 C 0.77758 0.78701 0.94042 0.0
C218 C 0.77257 0.75089 0.94764 0.0
Zn219 Zn 0.86963 0.72631 0.97295 0.0
O220 O 0.90208 0.65778 0.96456 0.0
C221 C 0.84806 0.68619 0.03708 0.0
O222 O 0.85956 0.67781 0.94063 0.0
H223 H 0.86142 0.79696 0.94516 0.0
H224 H 0.92164 0.63656 0.03189 0.0
H225 H 0.79566 0.70512 0.96126 0.0
O226 O 0.87887 0.68237 0.03685 0.0
O227 O 0.83744 0.70437 0.01342 0.0
H228 H 0.98468 0.72851 0.00811 0.0
O229 O 0.87964 0.77271 0.00762 0.0
O230 O 0.92256 0.75026 0.02732 0.0
O231 O 0.90266 0.74807 0.93139 0.0
O232 O 0.94493 0.72543 0.95266 0.0
C233 C 0.90384 0.77506 0.02823 0.0
H234 H 0.96322 0.6161 0.06896 0.0
H235 H 0.02877 0.70889 0.0427 0.0
H236 H 0.81537 0.83074 0.93213 0.0
H237 H 0.74786 0.73732 0.9497 0.0
C238 C 0.59774 0.63868 0.32477 0.0
N239 N 0.6434 0.54785 0.2922 0.0
C240 C 0.65484 0.55061 0.32585 0.0
C241 C 0.66056 0.52058 0.34324 0.0
C242 C 0.65406 0.48708 0.3262 0.0
C243 C 0.64307 0.48481 0.29106 0.0
C244 C 0.63782 0.51583 0.27442 0.0
Zn245 Zn 0.63446 0.59412 0.2711 0.0
C246 C 0.56741 0.58907 0.23746 0.0
N247 N 0.61535 0.6921 0.23082 0.0
C248 C 0.58676 0.7072 0.23888 0.0
C249 C 0.64082 0.70919 0.21152 0.0
C250 C 0.63773 0.74239 0.19865 0.0
C251 C 0.60842 0.75837 0.20631 0.0
C252 C 0.58283 0.74062 0.22698 0.0
Zn253 Zn 0.62206 0.64439 0.25008 0.0
O254 O 0.60938 0.60888 0.32026 0.0
C255 C 0.68585 0.65128 0.28714 0.0
O256 O 0.599 0.65898 0.29884 0.0
H257 H 0.6636 0.69703 0.20593 0.0
H258 H 0.65913 0.57622 0.33961 0.0
H259 H 0.5669 0.69322 0.25434 0.0
O260 O 0.6798 0.61844 0.29147 0.0
O261 O 0.66629 0.6672 0.26985 0.0
H262 H 0.62876 0.51432 0.24763 0.0
O263 O 0.64699 0.63017 0.20153 0.0
O264 O 0.66117 0.58127 0.22239 0.0
O265 O 0.57608 0.62148 0.23202 0.0
O266 O 0.58769 0.57069 0.25137 0.0
C267 C 0.66325 0.60326 0.19768 0.0
H268 H 0.66965 0.5236 0.37007 0.0
H269 H 0.63765 0.45941 0.2771 0.0
H270 H 0.65782 0.75525 0.18249 0.0
H271 H 0.55952 0.75185 0.23267 0.0
C272 C 0.16327 0.53861 0.1725 0.0
N273 N 0.16487 0.44934 0.10173 0.0
C274 C 0.13139 0.44985 0.10645 0.0
C275 C 0.11037 0.43748 0.07901 0.0
C276 C 0.1238 0.4235 0.04679 0.0
C277 C 0.1582 0.42207 0.04298 0.0
C278 C 0.17842 0.43563 0.07071 0.0
Zn279 Zn 0.19569 0.47408 0.14002 0.0
C280 C 0.24015 0.53351 0.11068 0.0
N281 N 0.25734 0.53016 0.21897 0.0
C282 C 0.26968 0.50788 0.24118 0.0
C283 C 0.27558 0.56071 0.20992 0.0
C284 C 0.3091 0.56659 0.21803 0.0
C285 C 0.32377 0.54133 0.23661 0.0
C286 C 0.30278 0.51318 0.2506 0.0
Zn287 Zn 0.22272 0.50641 0.18364 0.0
O288 O 0.1621 0.51168 0.1509 0.0
C289 C 0.17815 0.44766 0.21453 0.0
O290 O 0.18773 0.54506 0.19281 0.0
H291 H 0.26553 0.57857 0.1927 0.0
H292 H 0.12089 0.4605 0.13129 0.0
H293 H 0.25534 0.48351 0.24804 0.0
O294 O 0.17191 0.44165 0.18153 0.0
O295 O 0.1983 0.47409 0.22353 0.0
H296 H 0.20503 0.43589 0.0671 0.0
O297 O 0.25646 0.46845 0.17278 0.0
O298 O 0.23087 0.43628 0.1304 0.0
O299 O 0.24595 0.53712 0.14358 0.0
O300 O 0.21977 0.50817 0.09959 0.0
C301 C 0.25531 0.44214 0.15054 0.0
H302 H 0.08388 0.4387 0.08296 0.0
H303 H 0.16938 0.41146 0.0184 0.0
H304 H 0.32385 0.58902 0.2069 0.0
H305 H 0.31236 0.4937 0.26635 0.0
C306 C 0.55829 0.00904 0.8633 0.0
N307 N 0.61314 0.06861 0.9413 0.0
C308 C 0.58823 0.09008 0.94574 0.0
C309 C 0.58032 0.10491 0.9795 0.0
C310 C 0.59786 0.09709 0.009 0.0
C311 C 0.62361 0.07513 0.00373 0.0
C312 C 0.6311 0.06135 0.96935 0.0
Zn313 Zn 0.62222 0.0455 0.89199 0.0
C314 C 0.63796 0.9709 0.89549 0.0
N315 N 0.63872 0.99671 0.78838 0.0
C316 C 0.65572 0.01883 0.76494 0.0
C317 C 0.64165 0.96134 0.78571 0.0
C318 C 0.66768 0.9485 0.76488 0.0
C319 C 0.68973 0.97231 0.74574 0.0
C320 C 0.68113 0.00685 0.74271 0.0
Zn321 Zn 0.62679 0.01899 0.83786 0.0
O322 O 0.57141 0.02839 0.88851 0.0
C323 C 0.61212 0.0926 0.83272 0.0
O324 O 0.57628 0.99831 0.83694 0.0
H325 H 0.62714 0.9438 0.80356 0.0
H326 H 0.57404 0.0952 0.92318 0.0
H327 H 0.65323 0.04686 0.76684 0.0
O328 O 0.61427 0.09375 0.86656 0.0
O329 O 0.6152 0.06398 0.81474 0.0
H330 H 0.65095 0.04439 0.96519 0.0
O331 O 0.67762 0.04096 0.83958 0.0
O332 O 0.67244 0.06264 0.89473 0.0
O333 O 0.63824 0.97371 0.86199 0.0
O334 O 0.63123 0.99702 0.91619 0.0
C335 C 0.6904 0.05748 0.8667 0.0
H336 H 0.55996 0.12137 0.98271 0.0
H337 H 0.63765 0.06864 0.02596 0.0
H338 H 0.67267 0.92136 0.76758 0.0
H339 H 0.69645 0.02573 0.72688 0.0
C340 C 0.86612 0.99303 0.30465 0.0
N341 N 0.91183 0.9185 0.35886 0.0
C342 C 0.94153 0.93337 0.34563 0.0
C343 C 0.96996 0.93361 0.3655 0.0
C344 C 0.96761 0.91785 0.39879 0.0
C345 C 0.93688 0.90179 0.411 0.0
C346 C 0.90925 0.90277 0.39082 0.0
Zn347 Zn 0.86786 0.92155 0.33542 0.0
C348 C 0.81997 0.95549 0.38669 0.0
N349 N 0.77399 0.93054 0.29149 0.0
C350 C 0.76607 0.94447 0.26058 0.0
C351 C 0.75001 0.91474 0.31361 0.0
C352 C 0.717 0.91225 0.30531 0.0
C353 C 0.70765 0.92764 0.27465 0.0
C354 C 0.73269 0.94348 0.25165 0.0
Zn355 Zn 0.82074 0.92984 0.31026 0.0
O356 O 0.88316 0.97221 0.31966 0.0
C357 C 0.86854 0.89943 0.25768 0.0
O358 O 0.83641 0.9829 0.29659 0.0
H359 H 0.75622 0.90422 0.33838 0.0
H360 H 0.94298 0.94609 0.32034 0.0
H361 H 0.78545 0.95686 0.24326 0.0
O362 O 0.88607 0.90067 0.28519 0.0
O363 O 0.8397 0.91004 0.26053 0.0
H364 H 0.88539 0.89216 0.40161 0.0
O365 O 0.8067 0.87733 0.32494 0.0
O366 O 0.8525 0.86972 0.35057 0.0
O367 O 0.8026 0.95043 0.3594 0.0
O368 O 0.84878 0.94484 0.38528 0.0
C369 C 0.82375 0.85796 0.34167 0.0
H370 H 0.99323 0.94669 0.35547 0.0
H371 H 0.93372 0.89038 0.43702 0.0
H372 H 0.69884 0.89895 0.32343 0.0
H373 H 0.72654 0.95584 0.22775 0.0
C374 C 0.40797 0.56648 0.66657 0.0
N375 N 0.43781 0.65408 0.60454 0.0
C376 C 0.46893 0.64844 0.61356 0.0
C377 C 0.4961 0.65699 0.59006 0.0
C378 C 0.49098 0.67231 0.55775 0.0
C379 C 0.45895 0.67923 0.54998 0.0
C380 C 0.4326 0.66938 0.5735 0.0
Zn381 Zn 0.39618 0.6345 0.63257 0.0
C382 C 0.35569 0.58121 0.58826 0.0
N383 N 0.30803 0.59184 0.68744 0.0
C384 C 0.30225 0.58587 0.72286 0.0
C385 C 0.28245 0.59267 0.66538 0.0
C386 C 0.24995 0.58846 0.67845 0.0
C387 C 0.24291 0.58281 0.71479 0.0
C388 C 0.26956 0.58113 0.73721 0.0
Zn389 Zn 0.35279 0.60958 0.66368 0.0
O390 O 0.42033 0.59176 0.64771 0.0
C391 C 0.3914 0.66097 0.70923 0.0
O392 O 0.37814 0.56632 0.67905 0.0
H393 H 0.28699 0.59895 0.63769 0.0
H394 H 0.47256 0.63591 0.63815 0.0
H395 H 0.32285 0.58619 0.7402 0.0
O396 O 0.41022 0.66474 0.6811 0.0
O397 O 0.36612 0.63857 0.70893 0.0
H398 H 0.40776 0.67236 0.56585 0.0
O399 O 0.32872 0.65313 0.64877 0.0
O400 O 0.37107 0.67803 0.61839 0.0
O401 O 0.33984 0.58029 0.61807 0.0
O402 O 0.38155 0.60272 0.58474 0.0
C403 C 0.34157 0.67869 0.63082 0.0
H404 H 0.52057 0.65091 0.59652 0.0
H405 H 0.45404 0.69016 0.52482 0.0
H406 H 0.23055 0.59126 0.66022 0.0
H407 H 0.26523 0.57678 0.76546 0.0
H408 H 0.22951 0.42069 0.54583 0.0
H409 H 0.30838 0.36554 0.49324 0.0
H410 H 0.34672 0.4204 0.49969 0.0
H411 H 0.25032 0.50288 0.50256 0.0
H412 H 0.23854 0.52911 0.54171 0.0
H413 H 0.21828 0.48531 0.53358 0.0
H414 H 0.23407 0.46713 0.59597 0.0
H415 H 0.25351 0.51107 0.60455 0.0
H416 H 0.27682 0.47351 0.60792 0.0
H417 H 0.37674 0.48267 0.51546 0.0
H418 H 0.39491 0.54198 0.54271 0.0
H419 H 0.29324 0.55554 0.57636 0.0
C420 C 0.25469 0.42 0.53508 0.0
C421 C 0.26572 0.38879 0.51857 0.0
C422 C 0.29932 0.38903 0.50618 0.0
C423 C 0.32114 0.42021 0.50931 0.0
C424 C 0.30881 0.45092 0.52442 0.0
C425 C 0.27626 0.45075 0.53709 0.0
C426 C 0.26856 0.48647 0.55275 0.0
C427 C 0.24238 0.50184 0.53136 0.0
C428 C 0.25763 0.48441 0.59264 0.0
C429 C 0.30205 0.50696 0.54772 0.0
C430 C 0.32519 0.48634 0.53135 0.0
C431 C 0.35863 0.49918 0.52759 0.0
C432 C 0.36872 0.5331 0.54264 0.0
C433 C 0.34533 0.55347 0.56104 0.0
C434 C 0.31151 0.54082 0.56175 0.0
H435 H 0.74665 0.01743 0.75037 0.0
H436 H 0.71167 0.90805 0.72274 0.0
H437 H 0.76942 0.89267 0.72057 0.0
H438 H 0.82152 0.02028 0.69132 0.0
H439 H 0.84445 0.04944 0.72278 0.0
H440 H 0.80035 0.05051 0.72065 0.0
H441 H 0.79436 0.03912 0.7894 0.0
H442 H 0.83858 0.03769 0.79009 0.0
H443 H 0.81094 0.00095 0.80536 0.0
H444 H 0.82975 0.88839 0.72685 0.0
H445 H 0.89053 0.89684 0.72792 0.0
H446 H 0.88677 0.01016 0.74548 0.0
C447 C 0.75087 0.99038 0.74259 0.0
C448 C 0.72428 0.96392 0.73677 0.0
C449 C 0.73141 0.92874 0.72779 0.0
C450 C 0.76413 0.91974 0.72655 0.0
C451 C 0.78941 0.9463 0.73387 0.0
C452 C 0.78328 0.98105 0.74072 0.0
C453 C 0.81497 0.0047 0.747 0.0
C454 C 0.82067 0.0329 0.71876 0.0
C455 C 0.8147 0.02163 0.78521 0.0
C456 C 0.84008 0.97778 0.74222 0.0
C457 C 0.82459 0.94417 0.73553 0.0
C458 C 0.84221 0.91465 0.73125 0.0
C459 C 0.87671 0.91979 0.73188 0.0
C460 C 0.89339 0.95431 0.73576 0.0
C461 C 0.87474 0.98355 0.74229 0.0
H462 H 0.25785 0.72763 0.03818 0.0
H463 H 0.36357 0.72482 0.04991 0.0
H464 H 0.35447 0.66201 0.06259 0.0
H465 H 0.23332 0.67044 0.11147 0.0
H466 H 0.19747 0.64877 0.09004 0.0
H467 H 0.21226 0.69349 0.07989 0.0
H468 H 0.2164 0.67433 0.01254 0.0
H469 H 0.20232 0.62935 0.0227 0.0
H470 H 0.2411 0.63895 0.99797 0.0
H471 H 0.33534 0.60032 0.0747 0.0
H472 H 0.30552 0.54493 0.09554 0.0
H473 H 0.21174 0.58536 0.07846 0.0
C474 C 0.279 0.71378 0.04357 0.0
C475 C 0.31148 0.73142 0.04283 0.0
C476 C 0.33843 0.71226 0.05032 0.0
C477 C 0.33361 0.67631 0.05724 0.0
C478 C 0.3016 0.65957 0.05702 0.0
C479 C 0.27458 0.67765 0.05123 0.0
C480 C 0.24261 0.6534 0.05534 0.0
C481 C 0.22009 0.66735 0.08601 0.0
C482 C 0.22454 0.64874 0.02002 0.0
C483 C 0.25607 0.61916 0.06456 0.0
C484 C 0.29027 0.62335 0.06467 0.0
C485 C 0.30859 0.59646 0.07425 0.0
C486 C 0.29152 0.56494 0.08564 0.0
C487 C 0.25652 0.56045 0.08725 0.0
C488 C 0.23855 0.58757 0.07579 0.0
H489 H 0.52676 0.96677 0.33921 0.0
H490 H 0.50007 0.95988 0.22839 0.0
H491 H 0.55299 0.93516 0.21079 0.0
H492 H 0.6039 0.00142 0.32399 0.0
H493 H 0.6231 0.97952 0.35793 0.0
H494 H 0.58004 0.9865 0.36315 0.0
H495 H 0.56405 0.91933 0.3695 0.0
H496 H 0.60732 0.9121 0.36524 0.0
H497 H 0.57831 0.88822 0.33566 0.0
H498 H 0.61388 0.92268 0.20457 0.0
H499 H 0.67414 0.91978 0.21133 0.0
H500 H 0.65997 0.93998 0.32585 0.0
C501 C 0.5314 0.95835 0.3115 0.0
C502 C 0.50936 0.96475 0.28523 0.0
C503 C 0.51641 0.95438 0.24901 0.0
C504 C 0.54653 0.94058 0.23877 0.0
C505 C 0.56894 0.93701 0.26517 0.0
C506 C 0.56131 0.94502 0.30094 0.0
C507 C 0.59086 0.94395 0.32365 0.0
C508 C 0.59999 0.97998 0.34329 0.0
C509 C 0.58477 0.91411 0.35006 0.0
C510 C 0.61675 0.93575 0.29502 0.0
C511 C 0.60381 0.93109 0.26149 0.0
C512 C 0.62408 0.92562 0.23085 0.0
C513 C 0.6583 0.92444 0.23485 0.0
C514 C 0.67177 0.9291 0.26918 0.0
C515 C 0.65048 0.93508 0.29934 0.0
H516 H 0.69988 0.09368 0.46753 0.0
H517 H 0.78226 0.14383 0.52705 0.0
H518 H 0.81531 0.09431 0.50802 0.0
H519 H 0.7124 0.00172 0.48429 0.0
H520 H 0.70139 0.98597 0.43981 0.0
H521 H 0.68336 0.02377 0.46063 0.0
H522 H 0.70439 0.06119 0.40666 0.0
H523 H 0.72206 0.0234 0.38563 0.0
H524 H 0.74779 0.06427 0.3932 0.0
H525 H 0.84047 0.04047 0.47945 0.0
H526 H 0.85688 0.9906 0.43963 0.0
H527 H 0.75776 0.97603 0.39936 0.0
C528 C 0.72467 0.09395 0.47709 0.0
C529 C 0.73842 0.12257 0.49895 0.0
C530 C 0.77127 0.1223 0.51012 0.0
C531 C 0.79011 0.09412 0.49973 0.0
C532 C 0.7758 0.06632 0.47813 0.0
C533 C 0.74386 0.06617 0.46679 0.0
C534 C 0.73504 0.03462 0.44153 0.0
C535 C 0.70635 0.01007 0.45753 0.0
C536 C 0.72686 0.0466 0.40458 0.0
C537 C 0.7672 0.01739 0.43985 0.0
C538 C 0.7903 0.03568 0.46153 0.0
C539 C 0.82243 0.02573 0.46269 0.0
C540 C 0.83149 0.99717 0.44017 0.0
C541 C 0.80859 0.97919 0.41653 0.0
C542 C 0.77579 0.98891 0.41738 0.0
H543 H 0.05168 0.52405 0.70188 0.0
H544 H 0.03723 0.56724 0.80981 0.0
H545 H 0.09475 0.59593 0.80766 0.0
H546 H 0.12308 0.49529 0.71556 0.0
H547 H 0.14325 0.50294 0.67233 0.0
H548 H 0.09888 0.49647 0.67657 0.0
H549 H 0.09361 0.55656 0.64883 0.0
H550 H 0.1381 0.56271 0.64286 0.0
H551 H 0.11621 0.59612 0.667 0.0
H552 H 0.15721 0.60879 0.79782 0.0
H553 H 0.21667 0.60944 0.77903 0.0
H554 H 0.18937 0.55018 0.68096 0.0
C555 C 0.06 0.54172 0.72396 0.0
C556 C 0.04002 0.5446 0.7555 0.0
C557 C 0.05199 0.566 0.78497 0.0
C558 C 0.08475 0.58193 0.78408 0.0
C559 C 0.10493 0.57595 0.75356 0.0
C560 C 0.09272 0.55681 0.72374 0.0
C561 C 0.12017 0.54866 0.69685 0.0
C562 C 0.12139 0.50848 0.68997 0.0
C563 C 0.11683 0.56713 0.66182 0.0
C564 C 0.14982 0.56493 0.71664 0.0
C565 C 0.14078 0.58119 0.74894 0.0
C566 C 0.16449 0.59662 0.77227 0.0
C567 C 0.19821 0.59634 0.76167 0.0
C568 C 0.20777 0.58017 0.72833 0.0
C569 C 0.18304 0.56367 0.70616 0.0
H570 H 0.68576 0.96315 0.94264 0.0
H571 H 0.61363 0.90467 0.87518 0.0
H572 H 0.6378 0.84918 0.88558 0.0
H573 H 0.75148 0.92102 0.90887 0.0
H574 H 0.77271 0.92009 0.94995 0.0
H575 H 0.74564 0.95391 0.94444 0.0
H576 H 0.71142 0.93587 0.00193 0.0
H577 H 0.7388 0.90232 0.00807 0.0
H578 H 0.69479 0.89048 0.00626 0.0
H579 H 0.67448 0.80212 0.89545 0.0
H580 H 0.72061 0.76645 0.90503 0.0
H581 H 0.77018 0.85533 0.96515 0.0
C582 C 0.67417 0.93834 0.93162 0.0
C583 C 0.64732 0.93779 0.90898 0.0
C584 C 0.63376 0.90528 0.89326 0.0
C585 C 0.64737 0.8737 0.89896 0.0
C586 C 0.67474 0.87516 0.92022 0.0
C587 C 0.6879 0.90657 0.93657 0.0
C588 C 0.71983 0.90159 0.95427 0.0
C589 C 0.74913 0.92557 0.93842 0.0
C590 C 0.71597 0.90793 0.99506 0.0
C591 C 0.72312 0.86292 0.94421 0.0
C592 C 0.69659 0.84803 0.92508 0.0
C593 C 0.69508 0.81327 0.91102 0.0
C594 C 0.72141 0.79318 0.91663 0.0
C595 C 0.74907 0.80797 0.93586 0.0
C596 C 0.74957 0.84325 0.9501 0.0
H597 H 0.5132 0.62604 0.23334 0.0
H598 H 0.54239 0.51926 0.23252 0.0
H599 H 0.48338 0.49555 0.23148 0.0
H600 H 0.44361 0.61113 0.29302 0.0
H601 H 0.41836 0.63963 0.27171 0.0
H602 H 0.46282 0.64817 0.26895 0.0
H603 H 0.46225 0.6459 0.19973 0.0
H604 H 0.41774 0.63772 0.20225 0.0
H605 H 0.44217 0.60757 0.17647 0.0
H606 H 0.42101 0.48372 0.23187 0.0
H607 H 0.36053 0.48411 0.23377 0.0
H608 H 0.37165 0.59913 0.23936 0.0
C609 C 0.50728 0.59761 0.2321 0.0
C610 C 0.53253 0.57444 0.23243 0.0
C611 C 0.52356 0.53748 0.23188 0.0
C612 C 0.49009 0.52381 0.23138 0.0
C613 C 0.46583 0.54743 0.23184 0.0
C614 C 0.47401 0.58356 0.23219 0.0
C615 C 0.44318 0.60331 0.23459 0.0
C616 C 0.44193 0.62695 0.26912 0.0
C617 C 0.44123 0.6249 0.20127 0.0
C618 C 0.4163 0.57265 0.23557 0.0
C619 C 0.42992 0.54067 0.23373 0.0
C620 C 0.41012 0.50864 0.23369 0.0
C621 C 0.37557 0.50923 0.2353 0.0
C622 C 0.36075 0.54168 0.23745 0.0
C623 C 0.38176 0.57378 0.23768 0.0
H624 H 0.49733 0.1326 0.36486 0.0
H625 H 0.4337 0.21735 0.36057 0.0
H626 H 0.46033 0.24745 0.41361 0.0
H627 H 0.4991 0.13011 0.46022 0.0
H628 H 0.54216 0.12216 0.46003 0.0
H629 H 0.51772 0.1071 0.42233 0.0
H630 H 0.55985 0.14179 0.37977 0.0
H631 H 0.58463 0.1566 0.41725 0.0
H632 H 0.57049 0.18843 0.38891 0.0
H633 H 0.49306 0.26708 0.46827 0.0
H634 H 0.53356 0.2789 0.51543 0.0
H635 H 0.57751 0.18228 0.48202 0.0
C636 C 0.48895 0.15752 0.37506 0.0
C637 C 0.46329 0.1726 0.35876 0.0
C638 C 0.45337 0.20543 0.3726 0.0
C639 C 0.46819 0.22253 0.40283 0.0
C640 C 0.49312 0.20662 0.41856 0.0
C641 C 0.50377 0.17511 0.40476 0.0
C642 C 0.53195 0.16424 0.42556 0.0
C643 C 0.52213 0.1288 0.44307 0.0
C644 C 0.5636 0.16269 0.40143 0.0
C645 C 0.53556 0.19454 0.45338 0.0
C646 C 0.51265 0.21846 0.44916 0.0
C647 C 0.51116 0.24858 0.4717 0.0
C648 C 0.53422 0.25494 0.49858 0.0
C649 C 0.5588 0.23152 0.50254 0.0
C650 C 0.559 0.20063 0.47987 0.0
H651 H 0.02929 0.26528 0.5533 0.0
H652 H 0.11473 0.34341 0.56112 0.0
H653 H 0.09485 0.3626 0.62098 0.0
H654 H 0.97082 0.32344 0.60056 0.0
H655 H 0.94741 0.28725 0.62241 0.0
H656 H 0.96778 0.2797 0.57927 0.0
H657 H 0.99819 0.23081 0.60551 0.0
H658 H 0.97863 0.23892 0.64899 0.0
H659 H 0.02317 0.24147 0.64383 0.0
H660 H 0.07065 0.36948 0.68119 0.0
H661 H 0.03453 0.37594 0.73499 0.0
H662 H 0.9606 0.29814 0.68966 0.0
C663 C 0.04331 0.28701 0.56728 0.0
C664 C 0.07388 0.30248 0.55248 0.0
C665 C 0.09148 0.33081 0.57178 0.0
C666 C 0.08054 0.3418 0.60604 0.0
C667 C 0.0515 0.32482 0.62062 0.0
C668 C 0.03232 0.299 0.60164 0.0
C669 C 0.00123 0.28664 0.6238 0.0
C670 C 0.96995 0.29475 0.60542 0.0
C671 C 0.00026 0.24711 0.63094 0.0
C672 C 0.00635 0.3094 0.65814 0.0
C673 C 0.03603 0.33051 0.6556 0.0
C674 C 0.04711 0.35352 0.68341 0.0
C675 C 0.02648 0.35677 0.71399 0.0
C676 C 0.99476 0.33763 0.71651 0.0
C677 C 0.98492 0.31268 0.68869 0.0
H678 H 0.98003 0.85862 0.75752 0.0
H679 H 0.0758 0.81652 0.75074 0.0
H680 H 0.05794 0.7784 0.80099 0.0
H681 H 0.97181 0.86467 0.85045 0.0
H682 H 0.92778 0.85218 0.85335 0.0
H683 H 0.94637 0.873 0.81421 0.0
H684 H 0.92215 0.82052 0.77371 0.0
H685 H 0.9029 0.79972 0.81264 0.0
H686 H 0.93012 0.77611 0.78281 0.0
H687 H 0.03151 0.7498 0.857 0.0
H688 H 0.99687 0.72858 0.90921 0.0
H689 H 0.91825 0.78906 0.87886 0.0
C690 C 0.99697 0.84061 0.76578 0.0
C691 C 0.0293 0.84042 0.74969 0.0
C692 C 0.05078 0.81687 0.76207 0.0
C693 C 0.04089 0.79525 0.79085 0.0
C694 C 0.00937 0.79724 0.80703 0.0
C695 C 0.98753 0.81891 0.79448 0.0
C696 C 0.95557 0.81739 0.8174 0.0
C697 C 0.95008 0.85398 0.83488 0.0
C698 C 0.92594 0.80254 0.79532 0.0
C699 C 0.96291 0.79182 0.84512 0.0
C700 C 0.99412 0.78058 0.83881 0.0
C701 C 0.00685 0.75806 0.86181 0.0
C702 C 0.98702 0.74627 0.89157 0.0
C703 C 0.95467 0.75687 0.89819 0.0
C704 C 0.9427 0.7801 0.87452 0.0
H705 H 0.61514 0.7693 0.13584 0.0
H706 H 0.58547 0.81849 0.23741 0.0
H707 H 0.55991 0.86349 0.2059 0.0
H708 H 0.61886 0.85557 0.0793 0.0
H709 H 0.60185 0.82846 0.04245 0.0
H710 H 0.63036 0.81121 0.07102 0.0
H711 H 0.58739 0.75773 0.08294 0.0
H712 H 0.55886 0.77479 0.05507 0.0
H713 H 0.54651 0.76547 0.1008 0.0
H714 H 0.5226 0.88793 0.16723 0.0
H715 H 0.47713 0.88862 0.1262 0.0
H716 H 0.52821 0.82288 0.04845 0.0
C717 C 0.60504 0.79095 0.15118 0.0
C718 C 0.60237 0.79084 0.1888 0.0
C719 C 0.58785 0.81846 0.20847 0.0
C720 C 0.57351 0.84425 0.19071 0.0
C721 C 0.57395 0.84196 0.15334 0.0
C722 C 0.58994 0.81628 0.13369 0.0
C723 C 0.58037 0.81386 0.09496 0.0
C724 C 0.6096 0.82815 0.07049 0.0
C725 C 0.56748 0.77574 0.08282 0.0
C726 C 0.55322 0.83852 0.09704 0.0
C727 C 0.5512 0.85599 0.13038 0.0
C728 C 0.52465 0.87542 0.14072 0.0
C729 C 0.49875 0.8754 0.11739 0.0
C730 C 0.49939 0.85569 0.08433 0.0
C731 C 0.52773 0.8388 0.07325 0.0
H732 H 0.17017 0.35088 0.40018 0.0
H733 H 0.08515 0.28364 0.36207 0.0
H734 H 0.08752 0.31708 0.30697 0.0
H735 H 0.14803 0.43276 0.36489 0.0
H736 H 0.19041 0.44829 0.3533 0.0
H737 H 0.18116 0.4199 0.39027 0.0
H738 H 0.22054 0.37586 0.36138 0.0
H739 H 0.22983 0.40403 0.32429 0.0
H740 H 0.21424 0.35841 0.31628 0.0
H741 H 0.10163 0.35565 0.25384 0.0
H742 H 0.12455 0.39791 0.20879 0.0
H743 H 0.19909 0.44123 0.28244 0.0
C744 C 0.15181 0.34337 0.38044 0.0
C745 C 0.12742 0.31455 0.3856 0.0
C746 C 0.10398 0.30564 0.35893 0.0
C747 C 0.10517 0.32447 0.32745 0.0
C748 C 0.12978 0.35241 0.32302 0.0
C749 C 0.1525 0.36203 0.34896 0.0
C750 C 0.17678 0.39273 0.33745 0.0
C751 C 0.17391 0.42535 0.363 0.0
C752 C 0.21245 0.38211 0.33468 0.0
C753 C 0.16442 0.39867 0.30084 0.0
C754 C 0.13735 0.37508 0.29292 0.0
C755 C 0.12259 0.37449 0.25996 0.0
C756 C 0.13581 0.39857 0.23448 0.0
C757 C 0.16341 0.42319 0.2421 0.0
C758 C 0.17765 0.42319 0.27591 0.0
H759 H 0.03854 0.86979 0.57911 0.0
H760 H 0.06258 0.98267 0.59651 0.0
H761 H 0.05478 0.99137 0.5327 0.0
H762 H 0.07167 0.86117 0.48342 0.0
H763 H 0.03698 0.8305 0.47082 0.0
H764 H 0.05157 0.83159 0.51564 0.0
H765 H 0.99272 0.84183 0.54167 0.0
H766 H 0.97802 0.84027 0.49709 0.0
H767 H 0.9725 0.87826 0.5268 0.0
H768 H 0.03886 0.98945 0.4702 0.0
H769 H 0.00593 0.97846 0.41646 0.0
H770 H 0.98912 0.86727 0.43897 0.0
C771 C 0.04308 0.89608 0.56899 0.0
C772 C 0.05176 0.92554 0.59212 0.0
C773 C 0.05635 0.95983 0.57875 0.0
C774 C 0.05237 0.96497 0.54258 0.0
C775 C 0.04355 0.93555 0.52022 0.0
C776 C 0.03841 0.90178 0.53293 0.0
C777 C 0.02339 0.87578 0.50481 0.0
C778 C 0.04734 0.84812 0.49297 0.0
C779 C 0.98966 0.85802 0.5184 0.0
C780 C 0.01956 0.9005 0.47509 0.0
C781 C 0.03247 0.93461 0.48406 0.0
C782 C 0.02916 0.96275 0.46247 0.0
C783 C 0.01062 0.95625 0.43183 0.0
C784 C 0.99518 0.92202 0.42356 0.0
C785 C 0.00105 0.8936 0.44456 0.0
H786 H 0.34248 0.68578 0.75079 0.0
H787 H 0.44953 0.68862 0.74008 0.0
H788 H 0.45383 0.72304 0.79837 0.0
H789 H 0.33961 0.77459 0.79154 0.0
H790 H 0.30364 0.76136 0.81958 0.0
H791 H 0.31001 0.73908 0.77655 0.0
H792 H 0.30597 0.67902 0.80701 0.0
H793 H 0.30004 0.70107 0.85017 0.0
H794 H 0.33333 0.6732 0.84232 0.0
H795 H 0.44501 0.75291 0.86038 0.0
H796 H 0.42493 0.78022 0.9176 0.0
H797 H 0.32348 0.75799 0.88503 0.0
C798 C 0.36691 0.69385 0.76057 0.0
C799 C 0.39573 0.68441 0.74141 0.0
C800 C 0.42724 0.69578 0.75457 0.0
C801 C 0.42982 0.71513 0.78758 0.0
C802 C 0.40064 0.72316 0.80632 0.0
C803 C 0.36985 0.71332 0.79285 0.0
C804 C 0.34212 0.72468 0.8178 0.0
C805 C 0.32272 0.75152 0.80033 0.0
C806 C 0.31902 0.69257 0.83004 0.0
C807 C 0.36196 0.74181 0.84814 0.0
C808 C 0.39566 0.74075 0.84114 0.0
C809 C 0.41872 0.75412 0.86594 0.0
C810 C 0.40703 0.76934 0.89845 0.0
C811 C 0.37259 0.77112 0.90578 0.0
C812 C 0.34992 0.75706 0.88022 0.0
H813 H 0.5072 0.07474 0.19869 0.0
H814 H 0.49241 0.18608 0.19761 0.0
H815 H 0.53216 0.19288 0.14603 0.0
H816 H 0.59738 0.08305 0.16536 0.0
H817 H 0.59132 0.04245 0.13845 0.0
H818 H 0.56757 0.04781 0.17999 0.0
H819 H 0.51329 0.03318 0.14636 0.0
H820 H 0.5367 0.02806 0.10479 0.0
H821 H 0.50562 0.05893 0.10903 0.0
H822 H 0.56449 0.18572 0.08911 0.0
H823 H 0.58855 0.165 0.03083 0.0
H824 H 0.58289 0.05839 0.06792 0.0
C825 C 0.51341 0.10079 0.18844 0.0
C826 C 0.49705 0.12996 0.20222 0.0
C827 C 0.50484 0.16344 0.18746 0.0
C828 C 0.5275 0.1676 0.15829 0.0
C829 C 0.54223 0.13805 0.14429 0.0
C830 C 0.53578 0.10531 0.15901 0.0
C831 C 0.5515 0.07696 0.13607 0.0
C832 C 0.57856 0.06167 0.15617 0.0
C833 C 0.52521 0.04758 0.12331 0.0
C834 C 0.56633 0.09858 0.10534 0.0
C835 C 0.56119 0.13387 0.11095 0.0
C836 C 0.56946 0.15836 0.08475 0.0
C837 C 0.58289 0.14638 0.05172 0.0
C838 C 0.58787 0.11029 0.04527 0.0
C839 C 0.58015 0.0863 0.07268 0.0
H840 H 0.66303 0.1963 0.66084 0.0
H841 H 0.56315 0.22762 0.66241 0.0
H842 H 0.55112 0.20146 0.72142 0.0
H843 H 0.64744 0.11443 0.70249 0.0
H844 H 0.684 0.12136 0.72844 0.0
H845 H 0.68322 0.14203 0.68643 0.0
H846 H 0.69954 0.20186 0.71937 0.0
H847 H 0.69689 0.18324 0.76283 0.0
H848 H 0.67237 0.21841 0.75445 0.0
H849 H 0.54941 0.16833 0.77876 0.0
H850 H 0.55772 0.12858 0.82747 0.0
H851 H 0.65974 0.12371 0.78997 0.0
C852 C 0.63848 0.19706 0.67338 0.0
C853 C 0.61379 0.21326 0.657 0.0
C854 C 0.58226 0.21492 0.67459 0.0
C855 C 0.57529 0.20038 0.70813 0.0
C856 C 0.60043 0.18514 0.724 0.0
C857 C 0.63139 0.18349 0.70717 0.0
C858 C 0.6544 0.16671 0.73023 0.0
C859 C 0.66804 0.1342 0.71074 0.0
C860 C 0.68249 0.19417 0.74238 0.0
C861 C 0.63087 0.15655 0.76136 0.0
C862 C 0.60003 0.16817 0.75784 0.0
C863 C 0.57363 0.15971 0.78222 0.0
C864 C 0.57857 0.13749 0.80997 0.0
C865 C 0.60956 0.12418 0.81274 0.0
C866 C 0.63616 0.13467 0.78887 0.0
H867 H 0.08461 0.46138 0.00867 0.0
H868 H 0.11463 0.35618 0.01826 0.0
H869 H 0.07839 0.33361 0.96906 0.0
H870 H 0.99942 0.43609 0.98685 0.0
H871 H 0.99854 0.46953 0.95459 0.0
H872 H 0.02561 0.47705 0.99153 0.0
H873 H 0.07592 0.48915 0.94715 0.0
H874 H 0.04899 0.48165 0.9101 0.0
H875 H 0.08416 0.45646 0.91212 0.0
H876 H 0.0374 0.32222 0.92032 0.0
H877 H 0.99847 0.32363 0.87169 0.0
H878 H 0.99858 0.4372 0.89005 0.0
C879 C 0.08332 0.43358 1.00042 0.0
C880 C 0.10207 0.41031 0.0173 0.0
C881 C 0.10031 0.37425 0.0056 0.0
C882 C 0.07978 0.36126 0.9778 0.0
C883 C 0.06159 0.38482 0.96159 0.0
C884 C 0.06346 0.42032 0.97214 0.0
C885 C 0.04253 0.44029 0.94913 0.0
C886 C 0.01489 0.4567 0.97189 0.0
C887 C 0.0642 0.46855 0.92839 0.0
C888 C 0.02846 0.41045 0.92415 0.0
C889 C 0.03943 0.37861 0.93213 0.0
C890 C 0.0289 0.34706 0.91361 0.0
C891 C 0.00674 0.34809 0.88611 0.0
C892 C 0.99579 0.38052 0.87688 0.0
C893 C 0.00692 0.41208 0.89618 0.0
H894 H 0.83412 0.8822 0.19694 0.0
H895 H 0.93224 0.88562 0.23906 0.0
H896 H 0.95362 0.86191 0.18078 0.0
H897 H 0.83688 0.80082 0.14928 0.0
H898 H 0.81414 0.81256 0.11219 0.0
H899 H 0.80759 0.8335 0.15576 0.0
H900 H 0.82162 0.89498 0.12895 0.0
H901 H 0.82857 0.87411 0.08528 0.0
H902 H 0.86059 0.90446 0.10452 0.0
H903 H 0.9633 0.83323 0.12024 0.0
H904 H 0.95979 0.79765 0.06335 0.0
H905 H 0.85552 0.81298 0.06006 0.0
C906 C 0.86023 0.87849 0.19376 0.0
C907 C 0.88157 0.88595 0.22253 0.0
C908 C 0.91543 0.88013 0.21742 0.0
C909 C 0.92785 0.86691 0.18434 0.0
C910 C 0.90612 0.85972 0.15659 0.0
C911 C 0.87299 0.86514 0.16098 0.0
C912 C 0.85429 0.8524 0.12793 0.0
C913 C 0.82661 0.82308 0.13683 0.0
C914 C 0.84046 0.88334 0.11065 0.0
C915 C 0.88193 0.83809 0.10458 0.0
C916 C 0.91172 0.84308 0.12145 0.0
C917 C 0.94026 0.82966 0.10652 0.0
C918 C 0.93804 0.80955 0.07416 0.0
C919 C 0.9075 0.80297 0.05708 0.0
C920 C 0.87938 0.81841 0.07198 0.0
H921 H 0.52577 0.62154 0.52501 0.0
H922 H 0.51239 0.73313 0.52523 0.0
H923 H 0.54405 0.73768 0.46737 0.0
H924 H 0.61057 0.62678 0.47557 0.0
H925 H 0.5997 0.58541 0.45132 0.0
H926 H 0.58307 0.59282 0.4963 0.0
H927 H 0.52381 0.57807 0.47366 0.0
H928 H 0.54004 0.57158 0.42855 0.0
H929 H 0.51015 0.60314 0.4385 0.0
H930 H 0.56672 0.72786 0.40567 0.0
H931 H 0.58479 0.70581 0.34567 0.0
H932 H 0.58356 0.60002 0.38459 0.0
C933 C 0.53114 0.64724 0.51369 0.0
C934 C 0.5174 0.67719 0.52963 0.0
C935 C 0.52337 0.71015 0.5135 0.0
C936 C 0.54119 0.7129 0.48068 0.0
C937 C 0.55286 0.68244 0.46454 0.0
C938 C 0.54869 0.65032 0.48074 0.0
C939 C 0.56022 0.62086 0.45583 0.0
C940 C 0.59018 0.60558 0.47064 0.0
C941 C 0.53185 0.59172 0.44873 0.0
C942 C 0.57006 0.64116 0.42263 0.0
C943 C 0.56591 0.67667 0.4284 0.0
C944 C 0.5708 0.70027 0.40101 0.0
C945 C 0.58071 0.68738 0.36693 0.0
C946 C 0.5856 0.65119 0.36049 0.0
C947 C 0.58027 0.62786 0.3888 0.0
H948 H 0.24102 0.21493 0.43548 0.0
H949 H 0.15814 0.14855 0.39141 0.0
H950 H 0.19708 0.10731 0.36455 0.0
H951 H 0.29618 0.2069 0.36134 0.0
H952 H 0.33207 0.20712 0.38793 0.0
H953 H 0.29699 0.22904 0.40509 0.0
H954 H 0.29398 0.19156 0.46139 0.0
H955 H 0.32862 0.16887 0.44378 0.0
H956 H 0.29001 0.14396 0.45613 0.0
H957 H 0.24628 0.07594 0.33871 0.0
H958 H 0.3007 0.06136 0.31196 0.0
H959 H 0.3498 0.14759 0.37516 0.0
C960 C 0.23088 0.19168 0.4203 0.0
C961 C 0.1965 0.18501 0.41549 0.0
C962 C 0.18442 0.15428 0.39533 0.0
C963 C 0.20632 0.13055 0.38028 0.0
C964 C 0.2401 0.13779 0.38599 0.0
C965 C 0.25221 0.16779 0.4054 0.0
C966 C 0.28957 0.17111 0.40588 0.0
C967 C 0.30457 0.20556 0.38904 0.0
C968 C 0.30122 0.16872 0.44407 0.0
C969 C 0.29685 0.13884 0.38278 0.0
C970 C 0.26807 0.11949 0.37196 0.0
C971 C 0.26892 0.09039 0.3477 0.0
C972 C 0.29987 0.08197 0.33297 0.0
C973 C 0.32921 0.10265 0.34265 0.0
C974 C 0.32769 0.13056 0.36864 0.0
H975 H 0.13752 0.13206 0.52338 0.0
H976 H 0.13528 0.21959 0.60186 0.0
H977 H 0.12838 0.17725 0.65058 0.0
H978 H 0.07847 0.07238 0.56431 0.0
H979 H 0.10013 0.03383 0.55331 0.0
H980 H 0.10641 0.0712 0.52541 0.0
H981 H 0.16969 0.07393 0.53397 0.0
H982 H 0.16309 0.03659 0.56211 0.0
H983 H 0.18491 0.07734 0.57858 0.0
H984 H 0.1129 0.12455 0.68945 0.0
H985 H 0.09782 0.06641 0.716 0.0
H986 H 0.1176 0.01347 0.61317 0.0
C987 C 0.13625 0.14223 0.55092 0.0
C988 C 0.13699 0.179 0.55905 0.0
C989 C 0.13513 0.19151 0.59524 0.0
C990 C 0.13107 0.16764 0.62299 0.0
C991 C 0.12987 0.13142 0.61408 0.0
C992 C 0.13328 0.11884 0.57893 0.0
C993 C 0.13115 0.07874 0.57644 0.0
C994 C 0.1023 0.06316 0.55351 0.0
C995 C 0.16418 0.0659 0.56192 0.0
C996 C 0.12459 0.07056 0.6155 0.0
C997 C 0.12369 0.1013 0.6368 0.0
C998 C 0.11452 0.10037 0.67319 0.0
C999 C 0.10596 0.0673 0.68806 0.0
C1000 C 0.10736 0.03557 0.66682 0.0
C1001 C 0.11731 0.03732 0.63023 0.0
H1002 H 0.08466 0.88478 0.79917 0.0
H1003 H 0.10542 0.99682 0.82398 0.0
H1004 H 0.13112 0.98354 0.88003 0.0
H1005 H 0.07468 0.85446 0.89635 0.0
H1006 H 0.09469 0.81544 0.88249 0.0
H1007 H 0.06919 0.83467 0.85209 0.0
H1008 H 0.11896 0.83768 0.80557 0.0
H1009 H 0.14467 0.82014 0.83654 0.0
H1010 H 0.15756 0.86213 0.81746 0.0
H1011 H 0.16352 0.95803 0.92605 0.0
H1012 H 0.20204 0.92356 0.95581 0.0
H1013 H 0.16338 0.82832 0.89767 0.0
C1014 C 0.0932 0.9064 0.81747 0.0
C1015 C 0.09254 0.9417 0.80822 0.0
C1016 C 0.10504 0.96965 0.83148 0.0
C1017 C 0.11962 0.96225 0.86323 0.0
C1018 C 0.12124 0.92686 0.87096 0.0
C1019 C 0.10805 0.89936 0.84876 0.0
C1020 C 0.11776 0.864 0.8592 0.0
C1021 C 0.08728 0.84076 0.87339 0.0
C1022 C 0.13583 0.84492 0.82784 0.0
C1023 C 0.14072 0.87603 0.88895 0.0
C1024 C 0.14132 0.91216 0.8964 0.0
C1025 C 0.16265 0.92968 0.92102 0.0
C1026 C 0.18441 0.90999 0.93775 0.0
C1027 C 0.1851 0.87344 0.92912 0.0
C1028 C 0.16264 0.85615 0.90503 0.0
H1029 H 0.39453 0.00501 0.20629 0.0
H1030 H 0.33286 0.08373 0.17404 0.0
H1031 H 0.30551 0.03891 0.13147 0.0
H1032 H 0.40814 0.96489 0.12089 0.0
H1033 H 0.40781 0.92119 0.13747 0.0
H1034 H 0.4205 0.9593 0.16569 0.0
H1035 H 0.37605 0.93827 0.21406 0.0
H1036 H 0.36283 0.9003 0.1857 0.0
H1037 H 0.33326 0.93013 0.20256 0.0
H1038 H 0.28655 0.98412 0.09071 0.0
H1039 H 0.28211 0.92847 0.0529 0.0
H1040 H 0.3563 0.88781 0.11483 0.0
C1041 C 0.3751 0.01305 0.19058 0.0
C1042 C 0.36567 0.04789 0.19369 0.0
C1043 C 0.34048 0.05718 0.17209 0.0
C1044 C 0.32469 0.03182 0.14807 0.0
C1045 C 0.33444 0.99747 0.14618 0.0
C1046 C 0.3593 0.98837 0.16683 0.0
C1047 C 0.36681 0.95058 0.15911 0.0
C1048 C 0.40293 0.94892 0.14493 0.0
C1049 C 0.35927 0.92853 0.19234 0.0
C1050 C 0.34257 0.9396 0.13039 0.0
C1051 C 0.32377 0.96667 0.12336 0.0
C1052 C 0.30097 0.96274 0.09632 0.0
C1053 C 0.29838 0.93092 0.07517 0.0
C1054 C 0.31872 0.90375 0.08109 0.0
C1055 C 0.34017 0.90793 0.10984 0.0
H1056 H 0.81934 0.37407 0.75021 0.0
H1057 H 0.8953 0.3944 0.66657 0.0
H1058 H 0.85367 0.37767 0.62069 0.0
H1059 H 0.77828 0.29977 0.71112 0.0
H1060 H 0.73695 0.30958 0.72519 0.0
H1061 H 0.77154 0.32704 0.75111 0.0
H1062 H 0.75564 0.39079 0.74554 0.0
H1063 H 0.72057 0.3735 0.72008 0.0
H1064 H 0.7505 0.40678 0.70185 0.0
H1065 H 0.80585 0.34876 0.58507 0.0
H1066 H 0.75365 0.31916 0.56164 0.0
H1067 H 0.70752 0.32301 0.66835 0.0
C1068 C 0.8269 0.37607 0.72218 0.0
C1069 C 0.86033 0.38578 0.71171 0.0
C1070 C 0.86964 0.38764 0.67496 0.0
C1071 C 0.84621 0.37792 0.64883 0.0
C1072 C 0.81357 0.36728 0.66008 0.0
C1073 C 0.80373 0.36729 0.69592 0.0
C1074 C 0.7675 0.35376 0.70116 0.0
C1075 C 0.76335 0.32057 0.72345 0.0
C1076 C 0.74736 0.38295 0.71816 0.0
C1077 C 0.75863 0.34491 0.66271 0.0
C1078 C 0.78562 0.35262 0.63943 0.0
C1079 C 0.78437 0.34353 0.60294 0.0
C1080 C 0.75475 0.32653 0.58993 0.0
C1081 C 0.72662 0.31938 0.61318 0.0
C1082 C 0.72853 0.32896 0.64996 0.0
H1083 H 0.91111 0.45367 0.899 0.0
H1084 H 0.82993 0.44548 0.82764 0.0
H1085 H 0.81329 0.50305 0.85231 0.0
H1086 H 0.87095 0.50742 0.97611 0.0
H1087 H 0.91022 0.53265 0.98341 0.0
H1088 H 0.90895 0.48685 0.96805 0.0
H1089 H 0.94844 0.50513 0.91451 0.0
H1090 H 0.94889 0.55101 0.92854 0.0
H1091 H 0.93644 0.53647 0.8842 0.0
H1092 H 0.81339 0.56721 0.87559 0.0
H1093 H 0.82688 0.62872 0.89968 0.0
H1094 H 0.91009 0.59459 0.95288 0.0
C1095 C 0.88837 0.46284 0.89062 0.0
C1096 C 0.87086 0.44461 0.86267 0.0
C1097 C 0.84264 0.45841 0.85026 0.0
C1098 C 0.83336 0.49135 0.86379 0.0
C1099 C 0.85268 0.51003 0.88964 0.0
C1100 C 0.87922 0.49582 0.9035 0.0
C1101 C 0.89907 0.52286 0.92694 0.0
C1102 C 0.89716 0.51178 0.96594 0.0
C1103 C 0.93532 0.52922 0.91266 0.0
C1104 C 0.8805 0.55488 0.92291 0.0
C1105 C 0.85354 0.54708 0.90178 0.0
C1106 C 0.83408 0.57338 0.89275 0.0
C1107 C 0.84209 0.60832 0.90624 0.0
C1108 C 0.86958 0.61663 0.92807 0.0
C1109 C 0.88886 0.58933 0.9363 0.0
H1110 H 0.78377 0.69924 0.05289 0.0
H1111 H 0.85799 0.63095 0.0786 0.0
H1112 H 0.81633 0.59725 0.11734 0.0
H1113 H 0.74517 0.70391 0.14068 0.0
H1114 H 0.70415 0.70482 0.12457 0.0
H1115 H 0.73968 0.72208 0.09808 0.0
H1116 H 0.7206 0.67999 0.04475 0.0
H1117 H 0.68532 0.66211 0.07139 0.0
H1118 H 0.71389 0.63303 0.05065 0.0
H1119 H 0.76605 0.57132 0.15386 0.0
H1120 H 0.71443 0.56079 0.19112 0.0
H1121 H 0.6738 0.64664 0.14134 0.0
C1122 C 0.79133 0.67719 0.06665 0.0
C1123 C 0.82415 0.66766 0.06263 0.0
C1124 C 0.83304 0.63884 0.08139 0.0
C1125 C 0.80946 0.61934 0.10319 0.0
C1126 C 0.77715 0.6291 0.10606 0.0
C1127 C 0.76826 0.65771 0.08868 0.0
C1128 C 0.73252 0.66414 0.09769 0.0
C1129 C 0.73026 0.7009 0.11637 0.0
C1130 C 0.71187 0.65953 0.06411 0.0
C1131 C 0.72266 0.63484 0.12312 0.0
C1132 C 0.74854 0.61457 0.12727 0.0
C1133 C 0.74559 0.58692 0.15066 0.0
C1134 C 0.716 0.58091 0.17151 0.0
C1135 C 0.68988 0.60272 0.1691 0.0
C1136 C 0.69304 0.62916 0.14359 0.0
H1137 H 0.63989 0.37641 0.5002 0.0
H1138 H 0.68767 0.2931 0.44063 0.0
H1139 H 0.69195 0.32889 0.38673 0.0
H1140 H 0.59081 0.39779 0.43069 0.0
H1141 H 0.59444 0.44447 0.44271 0.0
H1142 H 0.59696 0.41298 0.47651 0.0
H1143 H 0.65414 0.44389 0.49401 0.0
H1144 H 0.65168 0.4757 0.46049 0.0
H1145 H 0.68691 0.45029 0.46005 0.0
H1146 H 0.68905 0.37448 0.33867 0.0
H1147 H 0.68142 0.42589 0.30264 0.0
H1148 H 0.63366 0.4761 0.39517 0.0
C1149 C 0.6516 0.36564 0.476 0.0
C1150 C 0.66354 0.33199 0.47464 0.0
C1151 C 0.6785 0.31895 0.4423 0.0
C1152 C 0.68092 0.33901 0.41156 0.0
C1153 C 0.66821 0.37189 0.41379 0.0
C1154 C 0.65399 0.38503 0.44535 0.0
C1155 C 0.64147 0.42053 0.4411 0.0
C1156 C 0.60368 0.41881 0.44816 0.0
C1157 C 0.65965 0.4493 0.46534 0.0
C1158 C 0.65087 0.42557 0.40215 0.0
C1159 C 0.66626 0.3974 0.38662 0.0
C1160 C 0.67707 0.39667 0.35064 0.0
C1161 C 0.67246 0.42581 0.33035 0.0
C1162 C 0.65727 0.45509 0.34625 0.0
C1163 C 0.64595 0.45445 0.38242 0.0
H1164 H 0.24962 0.37027 0.13525 0.0
H1165 H 0.31803 0.45838 0.17147 0.0
H1166 H 0.35679 0.41692 0.18814 0.0
H1167 H 0.25887 0.31746 0.20409 0.0
H1168 H 0.25728 0.27572 0.17886 0.0
H1169 H 0.2372 0.31163 0.16296 0.0
H1170 H 0.27082 0.30811 0.10255 0.0
H1171 H 0.29054 0.27156 0.1179 0.0
H1172 H 0.31539 0.31014 0.10233 0.0
H1173 H 0.38247 0.3676 0.21152 0.0
H1174 H 0.39781 0.31236 0.23381 0.0
H1175 H 0.31557 0.25422 0.17928 0.0
C1176 C 0.27341 0.38073 0.14517 0.0
C1177 C 0.28099 0.41747 0.1518 0.0
C1178 C 0.31185 0.43029 0.166 0.0
C1179 C 0.33405 0.40696 0.17559 0.0
C1180 C 0.32519 0.37085 0.17049 0.0
C1181 C 0.29599 0.35765 0.15497 0.0
C1182 C 0.29139 0.31758 0.15554 0.0
C1183 C 0.25929 0.30488 0.17662 0.0
C1184 C 0.29209 0.30086 0.1173 0.0
C1185 C 0.32182 0.31065 0.17508 0.0
C1186 C 0.34094 0.3418 0.18327 0.0
C1187 C 0.36845 0.34281 0.20415 0.0
C1188 C 0.37706 0.31105 0.21656 0.0
C1189 C 0.35855 0.27837 0.20771 0.0
C1190 C 0.33049 0.27844 0.18659 0.0
H1191 H 0.82027 0.2019 0.78803 0.0
H1192 H 0.86373 0.21237 0.8919 0.0
H1193 H 0.83072 0.15726 0.90961 0.0
H1194 H 0.74103 0.17377 0.81499 0.0
H1195 H 0.73297 0.14195 0.77829 0.0
H1196 H 0.76324 0.17921 0.77242 0.0
H1197 H 0.80633 0.13621 0.75183 0.0
H1198 H 0.77655 0.09853 0.75896 0.0
H1199 H 0.81551 0.10246 0.78079 0.0
H1200 H 0.78548 0.10925 0.91978 0.0
H1201 H 0.73335 0.06977 0.92064 0.0
H1202 H 0.72275 0.08614 0.80829 0.0
C1203 C 0.82328 0.192 0.81417 0.0
C1204 C 0.84434 0.21108 0.83873 0.0
C1205 C 0.84778 0.19777 0.87276 0.0
C1206 C 0.82926 0.16651 0.88293 0.0
C1207 C 0.80819 0.1485 0.85833 0.0
C1208 C 0.80557 0.16041 0.82439 0.0
C1209 C 0.77952 0.13752 0.80394 0.0
C1210 C 0.75262 0.15948 0.79175 0.0
C1211 C 0.79544 0.11747 0.77199 0.0
C1212 C 0.76608 0.11257 0.83257 0.0
C1213 C 0.7833 0.11903 0.86362 0.0
C1214 C 0.77248 0.10307 0.89534 0.0
C1215 C 0.74282 0.08082 0.89565 0.0
C1216 C 0.72454 0.07455 0.86438 0.0
C1217 C 0.73696 0.08959 0.83219 0.0
H1218 H 0.10327 0.52264 0.14463 0.0
H1219 H 0.16624 0.61029 0.19095 0.0
H1220 H 0.12806 0.65197 0.17125 0.0
H1221 H 0.09189 0.56207 0.06714 0.0
H1222 H 0.04985 0.54308 0.06176 0.0
H1223 H 0.07775 0.52023 0.0859 0.0
H1224 H 0.03703 0.5188 0.14137 0.0
H1225 H 0.00857 0.54113 0.11721 0.0
H1226 H 0.02242 0.55942 0.15989 0.0
H1227 H 0.08563 0.68396 0.13971 0.0
H1228 H 0.04352 0.70305 0.10143 0.0
H1229 H 0.01342 0.59315 0.07132 0.0
C1230 C 0.10863 0.55052 0.1517 0.0
C1231 C 0.13761 0.56324 0.16958 0.0
C1232 C 0.14386 0.59994 0.17787 0.0
C1233 C 0.12242 0.62376 0.16652 0.0
C1234 C 0.09499 0.61026 0.14711 0.0
C1235 C 0.08803 0.57436 0.14011 0.0
C1236 C 0.05949 0.56629 0.11556 0.0
C1237 C 0.07042 0.54679 0.08054 0.0
C1238 C 0.03013 0.54517 0.13466 0.0
C1239 C 0.05166 0.60334 0.10908 0.0
C1240 C 0.07195 0.62841 0.12782 0.0
C1241 C 0.06958 0.66447 0.12509 0.0
C1242 C 0.04578 0.67505 0.10284 0.0
C1243 C 0.02496 0.64969 0.08306 0.0
C1244 C 0.02825 0.61338 0.08644 0.0
H1245 H 0.75991 0.83567 0.35566 0.0
H1246 H 0.85734 0.7988 0.34042 0.0
H1247 H 0.83185 0.73681 0.33666 0.0
H1248 H 0.71836 0.75566 0.40454 0.0
H1249 H 0.68071 0.75879 0.38176 0.0
H1250 H 0.70701 0.79832 0.39349 0.0
H1251 H 0.70979 0.8155 0.32721 0.0
H1252 H 0.68408 0.77608 0.31518 0.0
H1253 H 0.7242 0.7849 0.29294 0.0
H1254 H 0.79498 0.68103 0.32029 0.0
H1255 H 0.75079 0.63808 0.29513 0.0
H1256 H 0.67879 0.71308 0.32167 0.0
C1257 C 0.77587 0.81438 0.35305 0.0
C1258 C 0.81035 0.8216 0.34835 0.0
C1259 C 0.83076 0.79347 0.34451 0.0
C1260 C 0.81648 0.75828 0.34236 0.0
C1261 C 0.78199 0.75202 0.345 0.0
C1262 C 0.76204 0.77945 0.35109 0.0
C1263 C 0.72588 0.76701 0.34769 0.0
C1264 C 0.70688 0.77012 0.38404 0.0
C1265 C 0.71013 0.78704 0.31905 0.0
C1266 C 0.72865 0.72889 0.33604 0.0
C1267 C 0.76095 0.72017 0.33549 0.0
C1268 C 0.76951 0.68727 0.32157 0.0
C1269 C 0.74445 0.66313 0.30726 0.0
C1270 C 0.71178 0.67273 0.30643 0.0
C1271 C 0.70376 0.70536 0.32204 0.0
H1272 H 0.55246 0.44696 0.6087 0.0
H1273 H 0.50889 0.36996 0.6833 0.0
H1274 H 0.4675 0.41069 0.70402 0.0
H1275 H 0.54066 0.52571 0.6679 0.0
H1276 H 0.53178 0.55147 0.63106 0.0
H1277 H 0.5592 0.51704 0.62401 0.0
H1278 H 0.52255 0.48794 0.57365 0.0
H1279 H 0.495 0.52214 0.58069 0.0
H1280 H 0.47899 0.47638 0.58329 0.0
H1281 H 0.42739 0.45819 0.7125 0.0
H1282 H 0.39434 0.50944 0.70967 0.0
H1283 H 0.46678 0.55553 0.63204 0.0
C1284 C 0.53482 0.43892 0.63004 0.0
C1285 C 0.53393 0.40508 0.64415 0.0
C1286 C 0.50981 0.39548 0.67156 0.0
C1287 C 0.48631 0.41855 0.68374 0.0
C1288 C 0.48747 0.45138 0.66865 0.0
C1289 C 0.5114 0.46169 0.64271 0.0
C1290 C 0.50664 0.49778 0.62981 0.0
C1291 C 0.53634 0.52458 0.63874 0.0
C1292 C 0.50041 0.49592 0.58948 0.0
C1293 C 0.47591 0.50583 0.65194 0.0
C1294 C 0.46512 0.47888 0.67427 0.0
C1295 C 0.43593 0.47973 0.69554 0.0
C1296 C 0.41728 0.50886 0.69374 0.0
C1297 C 0.42807 0.53667 0.67096 0.0
C1298 C 0.45798 0.53505 0.65021 0.0
H1299 H 0.28036 0.68851 0.66024 0.0
H1300 H 0.36252 0.7413 0.59889 0.0
H1301 H 0.33449 0.7965 0.60339 0.0
H1302 H 0.21495 0.73082 0.6239 0.0
H1303 H 0.19198 0.73314 0.66623 0.0
H1304 H 0.21826 0.69812 0.65642 0.0
H1305 H 0.24935 0.71607 0.71445 0.0
H1306 H 0.22356 0.75155 0.72419 0.0
H1307 H 0.268 0.76078 0.72122 0.0
H1308 H 0.29722 0.84685 0.61694 0.0
H1309 H 0.25251 0.88546 0.63399 0.0
H1310 H 0.19699 0.79855 0.68748 0.0
C1311 C 0.29238 0.71145 0.64723 0.0
C1312 C 0.32358 0.71051 0.62901 0.0
C1313 C 0.33849 0.74133 0.61275 0.0
C1314 C 0.32285 0.77285 0.61537 0.0
C1315 C 0.29246 0.77302 0.63445 0.0
C1316 C 0.27737 0.74295 0.64983 0.0
C1317 C 0.24506 0.74976 0.6694 0.0
C1318 C 0.21584 0.7266 0.65299 0.0
C1319 C 0.24661 0.74422 0.70969 0.0
C1320 C 0.24394 0.78833 0.66229 0.0
C1321 C 0.27153 0.80155 0.64236 0.0
C1322 C 0.27552 0.8367 0.63251 0.0
C1323 C 0.25021 0.8585 0.6425 0.0
C1324 C 0.22134 0.84486 0.66185 0.0
C1325 C 0.21869 0.80957 0.6724 0.0
H1326 H 0.40892 0.87191 0.90877 0.0
H1327 H 0.35941 0.9593 0.95701 0.0
H1328 H 0.39969 0.00144 0.9251 0.0
H1329 H 0.48517 0.90654 0.92204 0.0
H1330 H 0.50492 0.89004 0.88128 0.0
H1331 H 0.46744 0.86695 0.89883 0.0
H1332 H 0.43912 0.87199 0.8391 0.0
H1333 H 0.47681 0.89474 0.82088 0.0
H1334 H 0.43838 0.91475 0.82062 0.0
H1335 H 0.45211 0.03279 0.90135 0.0
H1336 H 0.51071 0.05135 0.88523 0.0
H1337 H 0.52603 0.94362 0.85048 0.0
C1338 C 0.40569 0.89991 0.91099 0.0
C1339 C 0.38094 0.9127 0.93442 0.0
C1340 C 0.37781 0.94929 0.93827 0.0
C1341 C 0.40061 0.97325 0.92032 0.0
C1342 C 0.42588 0.95987 0.89851 0.0
C1343 C 0.42814 0.92391 0.89327 0.0
C1344 C 0.46014 0.9162 0.87324 0.0
C1345 C 0.4806 0.89364 0.89517 0.0
C1346 C 0.45319 0.89837 0.83625 0.0
C1347 C 0.47666 0.95337 0.86996 0.0
C1348 C 0.45625 0.97822 0.88415 0.0
C1349 C 0.46782 0.01378 0.88902 0.0
C1350 C 0.50113 0.02405 0.87996 0.0
C1351 C 0.52241 0.99892 0.86599 0.0
C1352 C 0.50979 0.96342 0.85988 0.0
H1353 H 0.92923 0.0157 0.28731 0.0
H1354 H 0.83516 0.05199 0.32395 0.0
H1355 H 0.86426 0.10768 0.34804 0.0
H1356 H 0.96671 0.03662 0.36069 0.0
H1357 H 0.00756 0.05081 0.34267 0.0
H1358 H 0.98047 0.02026 0.31701 0.0
H1359 H 0.98493 0.06184 0.26403 0.0
H1360 H 0.01341 0.09214 0.28875 0.0
H1361 H 0.9768 0.10742 0.27177 0.0
H1362 H 0.90348 0.14976 0.38257 0.0
H1363 H 0.94918 0.17921 0.41745 0.0
H1364 H 0.01817 0.11526 0.35834 0.0
C1365 C 0.91474 0.03649 0.29826 0.0
C1366 C 0.88008 0.03004 0.30337 0.0
C1367 C 0.86168 0.05697 0.31895 0.0
C1368 C 0.87811 0.0885 0.33307 0.0
C1369 C 0.91272 0.09262 0.3307 0.0
C1370 C 0.93081 0.06772 0.3127 0.0
C1371 C 0.9675 0.07516 0.31879 0.0
C1372 C 0.98132 0.04387 0.3358 0.0
C1373 C 0.9868 0.08473 0.28375 0.0
C1374 C 0.96711 0.10686 0.34473 0.0
C1375 C 0.93543 0.1169 0.35092 0.0
C1376 C 0.92853 0.14298 0.37694 0.0
C1377 C 0.95471 0.1595 0.39671 0.0
C1378 C 0.98744 0.14981 0.39051 0.0
C1379 C 0.99352 0.1233 0.3639 0.0
loop_
_geom_bond_atom_site_label_1
_geom_bond_atom_site_label_2
_geom_bond_distance
_geom_bond_site_symmetry_2
_ccdc_geom_bond_type
C0 O16 1.251 . S
C0 O18 1.254 . S
N1 C2 1.333 . S
N1 C6 1.307 . S
N1 Zn7 2.020 . S
C2 N1 1.333 . S
C2 C3 1.379 . S
C2 H20 0.952 . S
C3 C2 1.379 . S
C3 C4 1.390 . S
C3 H30 0.949 . S
C4 C3 1.390 . S
C4 C5 1.357 . S
C5 C4 1.357 . S
C5 C6 1.370 . S
C5 H31 0.950 . S
C6 N1 1.307 . S
C6 C5 1.370 . S
C6 H24 0.948 . S
Zn7 N1 2.020 . S
Zn7 O16 2.039 . S
Zn7 O22 2.034 . S
Zn7 O26 2.025 . S
Zn7 O28 2.024 . S
C8 O27 1.246 . S
C8 O28 1.249 . S
N9 C10 1.307 . S
N9 C11 1.333 . S
N9 Zn15 2.020 . S
C10 N9 1.307 . S
C10 C14 1.370 . S
C10 H21 0.948 . S
C11 N9 1.333 . S
C11 C12 1.379 . S
C11 H19 0.952 . S
C12 C11 1.379 . S
C12 C13 1.390 . S
C12 H32 0.949 . S
C13 C12 1.390 . S
C13 C14 1.357 . S
C14 C10 1.370 . S
C14 C13 1.357 . S
C14 H33 0.950 . S
Zn15 N9 2.020 . S
Zn15 O18 2.025 . S
Zn15 O23 2.024 . S
Zn15 O25 2.039 . S
Zn15 O27 2.034 . S
O16 C0 1.251 . S
O16 Zn7 2.039 . S
C17 O22 1.246 . S
C17 O23 1.249 . S
O18 C0 1.254 . S
O18 Zn15 2.025 . S
H19 C11 0.952 . S
H20 C2 0.952 . S
H21 C10 0.948 . S
O22 Zn7 2.034 . S
O22 C17 1.246 . S
O23 Zn15 2.024 . S
O23 C17 1.249 . S
H24 C6 0.948 . S
O25 Zn15 2.039 . S
O25 C29 1.251 . S
O26 Zn7 2.025 . S
O26 C29 1.254 . S
O27 C8 1.246 . S
O27 Zn15 2.034 . S
O28 Zn7 2.024 . S
O28 C8 1.249 . S
C29 O25 1.251 . S
C29 O26 1.254 . S
H30 C3 0.949 . S
H31 C5 0.950 . S
H32 C12 0.949 . S
H33 C14 0.950 . S
C34 O50 1.251 . S
C34 O52 1.254 . S
N35 C36 1.333 . S
N35 C40 1.307 . S
N35 Zn41 2.020 . S
C36 N35 1.333 . S
C36 C37 1.379 . S
C36 H54 0.952 . S
C37 C36 1.379 . S
C37 C38 1.390 . S
C37 H64 0.949 . S
C38 C37 1.390 . S
C38 C39 1.357 . S
C39 C38 1.357 . S
C39 C40 1.370 . S
C39 H65 0.950 . S
C40 N35 1.307 . S
C40 C39 1.370 . S
C40 H58 0.948 . S
Zn41 N35 2.020 . S
Zn41 O50 2.039 . S
Zn41 O56 2.034 . S
Zn41 O60 2.025 . S
Zn41 O62 2.024 . S
C42 O61 1.246 . S
C42 O62 1.249 . S
N43 C44 1.307 . S
N43 C45 1.333 1_455 S
N43 Zn49 2.020 . S
C44 N43 1.307 . S
C44 C48 1.370 1_565 S
C44 H55 0.948 . S
C45 N43 1.333 1_655 S
C45 C46 1.379 . S
C45 H53 0.952 . S
C46 C45 1.379 . S
C46 C47 1.391 1_565 S
C46 H66 0.949 . S
C47 C46 1.391 1_545 S
C47 C48 1.357 1_655 S
C48 C44 1.370 1_545 S
C48 C47 1.357 1_455 S
C48 H67 0.950 . S
Zn49 N43 2.020 . S
Zn49 O52 2.025 . S
Zn49 O57 2.024 . S
Zn49 O59 2.039 . S
Zn49 O61 2.034 . S
O50 C34 1.251 . S
O50 Zn41 2.039 . S
C51 O56 1.246 . S
C51 O57 1.249 . S
O52 C34 1.254 . S
O52 Zn49 2.025 . S
H53 C45 0.952 . S
H54 C36 0.952 . S
H55 C44 0.948 . S
O56 Zn41 2.034 . S
O56 C51 1.246 . S
O57 Zn49 2.024 . S
O57 C51 1.249 . S
H58 C40 0.948 . S
O59 Zn49 2.039 . S
O59 C63 1.251 . S
O60 Zn41 2.025 . S
O60 C63 1.254 . S
O61 C42 1.246 . S
O61 Zn49 2.034 . S
O62 Zn41 2.024 . S
O62 C42 1.249 . S
C63 O59 1.251 . S
C63 O60 1.254 . S
H64 C37 0.949 . S
H65 C39 0.950 . S
H66 C46 0.949 . S
H67 C48 0.950 . S
C68 O84 1.251 . S
C68 O86 1.254 . S
N69 C70 1.333 . S
N69 C74 1.307 . S
N69 Zn75 2.020 . S
C70 N69 1.333 . S
C70 C71 1.379 . S
C70 H88 0.952 . S
C71 C70 1.379 . S
C71 C72 1.390 . S
C71 H98 0.949 . S
C72 C71 1.390 . S
C72 C73 1.357 . S
C73 C72 1.357 . S
C73 C74 1.370 . S
C73 H99 0.950 . S
C74 N69 1.307 . S
C74 C73 1.370 . S
C74 H92 0.948 . S
Zn75 N69 2.020 . S
Zn75 O84 2.039 . S
Zn75 O90 2.034 . S
Zn75 O94 2.025 . S
Zn75 O96 2.024 . S
C76 O95 1.246 . S
C76 O96 1.249 . S
N77 C78 1.298 1_554 S
N77 C79 1.360 . S
N77 Zn83 2.004 1_554 S
C78 N77 1.298 1_556 S
C78 C82 1.370 1_556 S
C78 H89 0.948 . S
C79 N77 1.360 . S
C79 C80 1.379 . S
C79 H87 0.952 . S
C80 C79 1.379 . S
C80 C81 1.390 . S
C80 H100 0.949 . S
C81 C80 1.390 . S
C81 C82 1.357 . S
C82 C78 1.370 1_554 S
C82 C81 1.357 . S
C82 H101 0.950 1_554 S
Zn83 N77 2.004 1_556 S
Zn83 O86 2.025 . S
Zn83 O91 2.024 . S
Zn83 O93 2.039 1_556 S
Zn83 O95 2.034 . S
O84 C68 1.251 . S
O84 Zn75 2.039 . S
C85 O90 1.246 . S
C85 O91 1.249 . S
O86 C68 1.254 . S
O86 Zn83 2.025 . S
H87 C79 0.952 . S
H88 C70 0.952 . S
H89 C78 0.948 . S
O90 Zn75 2.034 . S
O90 C85 1.246 . S
O91 Zn83 2.024 . S
O91 C85 1.249 . S
H92 C74 0.948 . S
O93 Zn83 2.039 1_554 S
O93 C97 1.251 . S
O94 Zn75 2.025 . S
O94 C97 1.254 1_556 S
O95 C76 1.246 . S
O95 Zn83 2.034 . S
O96 Zn75 2.024 . S
O96 C76 1.249 . S
C97 O93 1.251 . S
C97 O94 1.254 1_554 S
H98 C71 0.949 . S
H99 C73 0.950 . S
H100 C80 0.949 . S
H101 C82 0.950 1_556 S
C102 O118 1.251 . S
C102 O120 1.254 . S
N103 C104 1.333 . S
N103 C108 1.307 . S
N103 Zn109 2.020 . S
C104 N103 1.333 . S
C104 C105 1.379 . S
C104 H122 0.952 . S
C105 C104 1.379 . S
C105 C106 1.390 . S
C105 H132 0.949 . S
C106 C105 1.390 . S
C106 C107 1.357 . S
C107 C106 1.357 . S
C107 C108 1.370 . S
C107 H133 0.950 . S
C108 N103 1.307 . S
C108 C107 1.370 . S
C108 H126 0.948 . S
Zn109 N103 2.020 . S
Zn109 O118 2.039 . S
Zn109 O124 2.034 . S
Zn109 O128 2.025 . S
Zn109 O130 2.024 . S
C110 O129 1.246 . S
C110 O130 1.249 . S
N111 C112 1.307 . S
N111 C113 1.333 . S
N111 Zn117 2.020 . S
C112 N111 1.307 . S
C112 C116 1.370 . S
C112 H123 0.948 . S
C113 N111 1.333 . S
C113 C114 1.379 . S
C113 H121 0.952 . S
C114 C113 1.379 . S
C114 C115 1.390 . S
C114 H134 0.949 . S
C115 C114 1.390 . S
C115 C116 1.357 . S
C116 C112 1.370 . S
C116 C115 1.357 . S
C116 H135 0.950 1_545 S
Zn117 N111 2.020 . S
Zn117 O120 2.025 . S
Zn117 O125 2.024 . S
Zn117 O127 2.039 . S
Zn117 O129 2.034 . S
O118 C102 1.251 . S
O118 Zn109 2.039 . S
C119 O124 1.246 . S
C119 O125 1.249 . S
O120 C102 1.254 . S
O120 Zn117 2.025 . S
H121 C113 0.952 . S
H122 C104 0.952 . S
H123 C112 0.948 . S
O124 Zn109 2.034 . S
O124 C119 1.246 . S
O125 Zn117 2.024 . S
O125 C119 1.249 . S
H126 C108 0.948 . S
O127 Zn117 2.039 . S
O127 C131 1.251 . S
O128 Zn109 2.025 . S
O128 C131 1.254 . S
O129 C110 1.246 . S
O129 Zn117 2.034 . S
O130 Zn109 2.024 . S
O130 C110 1.249 . S
C131 O127 1.251 . S
C131 O128 1.254 . S
H132 C105 0.949 . S
H133 C107 0.950 . S
H134 C114 0.949 . S
H135 C116 0.950 1_565 S
C136 O152 1.251 . S
C136 O154 1.254 . S
N137 C138 1.333 . S
N137 C142 1.307 . S
N137 Zn143 2.020 . S
C138 N137 1.333 . S
C138 C139 1.379 . S
C138 H156 0.952 . S
C139 C138 1.379 . S
C139 C140 1.390 . S
C139 H166 0.949 . S
C140 C139 1.390 . S
C140 C141 1.357 . S
C141 C140 1.357 . S
C141 C142 1.370 . S
C141 H167 0.950 . S
C142 N137 1.307 . S
C142 C141 1.370 . S
C142 H160 0.948 . S
Zn143 N137 2.020 . S
Zn143 O152 2.039 . S
Zn143 O158 2.034 . S
Zn143 O162 2.025 . S
Zn143 O164 2.024 . S
C144 O163 1.246 . S
C144 O164 1.249 . S
N145 C146 1.307 . S
N145 C147 1.333 . S
N145 Zn151 2.020 . S
C146 N145 1.307 . S
C146 C150 1.370 . S
C146 H157 0.948 . S
C147 N145 1.333 . S
C147 C148 1.379 . S
C147 H155 0.952 . S
C148 C147 1.379 . S
C148 C149 1.390 . S
C148 H168 0.949 . S
C149 C148 1.390 . S
C149 C150 1.357 . S
C150 C146 1.370 . S
C150 C149 1.357 . S
C150 H169 0.950 . S
Zn151 N145 2.020 . S
Zn151 O154 2.025 . S
Zn151 O159 2.024 . S
Zn151 O161 2.039 . S
Zn151 O163 2.034 . S
O152 C136 1.251 . S
O152 Zn143 2.039 . S
C153 O158 1.246 . S
C153 O159 1.249 . S
O154 C136 1.254 . S
O154 Zn151 2.025 . S
H155 C147 0.952 . S
H156 C138 0.952 . S
H157 C146 0.948 . S
O158 Zn143 2.034 . S
O158 C153 1.246 . S
O159 Zn151 2.024 . S
O159 C153 1.249 . S
H160 C142 0.948 . S
O161 Zn151 2.039 . S
O161 C165 1.251 . S
O162 Zn143 2.025 . S
O162 C165 1.254 . S
O163 C144 1.246 . S
O163 Zn151 2.034 . S
O164 Zn143 2.024 . S
O164 C144 1.249 . S
C165 O161 1.251 . S
C165 O162 1.254 . S
H166 C139 0.949 . S
H167 C141 0.950 . S
H168 C148 0.949 . S
H169 C150 0.950 . S
C170 O186 1.251 . S
C170 O188 1.254 . S
N171 C172 1.333 . S
N171 C176 1.307 . S
N171 Zn177 2.020 . S
C172 N171 1.333 . S
C172 C173 1.379 . S
C172 H190 0.952 . S
C173 C172 1.379 . S
C173 C174 1.390 . S
C173 H200 0.949 . S
C174 C173 1.390 . S
C174 C175 1.357 . S
C175 C174 1.357 . S
C175 C176 1.370 . S
C175 H201 0.950 . S
C176 N171 1.307 . S
C176 C175 1.370 . S
C176 H194 0.948 . S
Zn177 N171 2.020 . S
Zn177 O186 2.039 . S
Zn177 O192 2.034 . S
Zn177 O196 2.025 . S
Zn177 O198 2.024 . S
C178 O197 1.246 . S
C178 O198 1.249 . S
N179 C180 1.307 . S
N179 C181 1.333 1_655 S
N179 Zn185 2.020 . S
C180 N179 1.307 . S
C180 C184 1.370 . S
C180 H191 0.948 . S
C181 N179 1.333 1_455 S
C181 C182 1.379 . S
C181 H189 0.952 . S
C182 C181 1.379 . S
C182 C183 1.390 . S
C182 H202 0.949 . S
C183 C182 1.390 . S
C183 C184 1.357 1_455 S
C184 C180 1.370 . S
C184 C183 1.357 1_655 S
C184 H203 0.950 . S
Zn185 N179 2.020 . S
Zn185 O188 2.025 . S
Zn185 O193 2.024 . S
Zn185 O195 2.039 . S
Zn185 O197 2.034 . S
O186 C170 1.251 . S
O186 Zn177 2.039 . S
C187 O192 1.246 . S
C187 O193 1.249 . S
O188 C170 1.254 . S
O188 Zn185 2.025 . S
H189 C181 0.952 . S
H190 C172 0.952 . S
H191 C180 0.948 . S
O192 Zn177 2.034 . S
O192 C187 1.246 . S
O193 Zn185 2.024 . S
O193 C187 1.249 . S
H194 C176 0.948 . S
O195 Zn185 2.039 . S
O195 C199 1.251 . S
O196 Zn177 2.025 . S
O196 C199 1.254 . S
O197 C178 1.246 . S
O197 Zn185 2.034 . S
O198 Zn177 2.024 . S
O198 C178 1.249 . S
C199 O195 1.251 . S
C199 O196 1.254 . S
H200 C173 0.949 . S
H201 C175 0.950 . S
H202 C182 0.949 . S
H203 C184 0.950 . S
C204 O220 1.251 1_556 S
C204 O222 1.254 . S
N205 C206 1.333 . S
N205 C210 1.307 . S
N205 Zn211 2.020 . S
C206 N205 1.333 . S
C206 C207 1.379 . S
C206 H224 0.952 . S
C207 C206 1.379 . S
C207 C208 1.390 . S
C207 H234 0.949 . S
C208 C207 1.390 . S
C208 C209 1.357 . S
C209 C208 1.357 . S
C209 C210 1.370 . S
C209 H235 0.950 1_655 S
C210 N205 1.307 . S
C210 C209 1.370 . S
C210 H228 0.948 . S
Zn211 N205 2.020 . S
Zn211 O220 2.039 . S
Zn211 O226 2.034 . S
Zn211 O230 2.025 . S
Zn211 O232 2.024 . S
C212 O231 1.246 . S
C212 O232 1.249 1_556 S
N213 C214 1.307 . S
N213 C215 1.333 1_556 S
N213 Zn219 2.020 1_556 S
C214 N213 1.307 . S
C214 C218 1.370 . S
C214 H225 0.948 . S
C215 N213 1.333 1_554 S
C215 C216 1.379 1_554 S
C215 H223 0.952 . S
C216 C215 1.379 1_556 S
C216 C217 1.390 . S
C216 H236 0.949 . S
C217 C216 1.390 . S
C217 C218 1.357 . S
C218 C214 1.370 . S
C218 C217 1.357 . S
C218 H237 0.950 . S
Zn219 N213 2.020 1_554 S
Zn219 O222 2.025 1_554 S
Zn219 O227 2.024 . S
Zn219 O229 2.039 . S
Zn219 O231 2.034 1_554 S
O220 C204 1.251 1_554 S
O220 Zn211 2.039 . S
C221 O226 1.246 . S
C221 O227 1.249 . S
O222 C204 1.254 . S
O222 Zn219 2.025 1_556 S
H223 C215 0.952 . S
H224 C206 0.952 . S
H225 C214 0.948 . S
O226 Zn211 2.034 . S
O226 C221 1.246 . S
O227 Zn219 2.024 . S
O227 C221 1.249 . S
H228 C210 0.948 . S
O229 Zn219 2.039 . S
O229 C233 1.251 . S
O230 Zn211 2.025 . S
O230 C233 1.254 . S
O231 C212 1.246 . S
O231 Zn219 2.034 1_556 S
O232 Zn211 2.024 . S
O232 C212 1.249 1_554 S
C233 O229 1.251 . S
C233 O230 1.254 . S
H234 C207 0.949 . S
H235 C209 0.950 1_455 S
H236 C216 0.949 . S
H237 C218 0.950 . S
C238 O254 1.251 . S
C238 O256 1.254 . S
N239 C240 1.333 . S
N239 C244 1.307 . S
N239 Zn245 2.020 . S
C240 N239 1.333 . S
C240 C241 1.379 . S
C240 H258 0.952 . S
C241 C240 1.379 . S
C241 C242 1.390 . S
C241 H268 0.949 . S
C242 C241 1.390 . S
C242 C243 1.357 . S
C243 C242 1.357 . S
C243 C244 1.370 . S
C243 H269 0.950 . S
C244 N239 1.307 . S
C244 C243 1.370 . S
C244 H262 0.948 . S
Zn245 N239 2.020 . S
Zn245 O254 2.039 . S
Zn245 O260 2.034 . S
Zn245 O264 2.025 . S
Zn245 O266 2.024 . S
C246 O265 1.246 . S
C246 O266 1.249 . S
N247 C248 1.307 . S
N247 C249 1.333 . S
N247 Zn253 2.020 . S
C248 N247 1.307 . S
C248 C252 1.370 . S
C248 H259 0.948 . S
C249 N247 1.333 . S
C249 C250 1.379 . S
C249 H257 0.952 . S
C250 C249 1.379 . S
C250 C251 1.390 . S
C250 H270 0.949 . S
C251 C250 1.390 . S
C251 C252 1.357 . S
C252 C248 1.370 . S
C252 C251 1.357 . S
C252 H271 0.950 . S
Zn253 N247 2.020 . S
Zn253 O256 2.025 . S
Zn253 O261 2.024 . S
Zn253 O263 2.039 . S
Zn253 O265 2.034 . S
O254 C238 1.251 . S
O254 Zn245 2.039 . S
C255 O260 1.246 . S
C255 O261 1.249 . S
O256 C238 1.254 . S
O256 Zn253 2.025 . S
H257 C249 0.952 . S
H258 C240 0.952 . S
H259 C248 0.948 . S
O260 Zn245 2.034 . S
O260 C255 1.246 . S
O261 Zn253 2.024 . S
O261 C255 1.249 . S
H262 C244 0.948 . S
O263 Zn253 2.039 . S
O263 C267 1.251 . S
O264 Zn245 2.025 . S
O264 C267 1.254 . S
O265 C246 1.246 . S
O265 Zn253 2.034 . S
O266 Zn245 2.024 . S
O266 C246 1.249 . S
C267 O263 1.251 . S
C267 O264 1.254 . S
H268 C241 0.949 . S
H269 C243 0.950 . S
H270 C250 0.949 . S
H271 C252 0.950 . S
C272 O288 1.251 . S
C272 O290 1.254 . S
N273 C274 1.333 . S
N273 C278 1.307 . S
N273 Zn279 2.020 . S
C274 N273 1.333 . S
C274 C275 1.379 . S
C274 H292 0.952 . S
C275 C274 1.379 . S
C275 C276 1.390 . S
C275 H302 0.949 . S
C276 C275 1.390 . S
C276 C277 1.357 . S
C277 C276 1.357 . S
C277 C278 1.370 . S
C277 H303 0.950 . S
C278 N273 1.307 . S
C278 C277 1.370 . S
C278 H296 0.948 . S
Zn279 N273 2.020 . S
Zn279 O288 2.039 . S
Zn279 O294 2.034 . S
Zn279 O298 2.025 . S
Zn279 O300 2.024 . S
C280 O299 1.246 . S
C280 O300 1.249 . S
N281 C282 1.307 . S
N281 C283 1.333 . S
N281 Zn287 2.020 . S
C282 N281 1.307 . S
C282 C286 1.370 . S
C282 H293 0.948 . S
C283 N281 1.333 . S
C283 C284 1.379 . S
C283 H291 0.952 . S
C284 C283 1.379 . S
C284 C285 1.390 . S
C284 H304 0.949 . S
C285 C284 1.390 . S
C285 C286 1.357 . S
C286 C282 1.370 . S
C286 C285 1.357 . S
C286 H305 0.950 . S
Zn287 N281 2.020 . S
Zn287 O290 2.025 . S
Zn287 O295 2.024 . S
Zn287 O297 2.039 . S
Zn287 O299 2.034 . S
O288 C272 1.251 . S
O288 Zn279 2.039 . S
C289 O294 1.246 . S
C289 O295 1.249 . S
O290 C272 1.254 . S
O290 Zn287 2.025 . S
H291 C283 0.952 . S
H292 C274 0.952 . S
H293 C282 0.948 . S
O294 Zn279 2.034 . S
O294 C289 1.246 . S
O295 Zn287 2.024 . S
O295 C289 1.249 . S
H296 C278 0.948 . S
O297 Zn287 2.039 . S
O297 C301 1.251 . S
O298 Zn279 2.025 . S
O298 C301 1.254 . S
O299 C280 1.246 . S
O299 Zn287 2.034 . S
O300 Zn279 2.024 . S
O300 C280 1.249 . S
C301 O297 1.251 . S
C301 O298 1.254 . S
H302 C275 0.949 . S
H303 C277 0.950 . S
H304 C284 0.949 . S
H305 C286 0.950 . S
C306 O322 1.251 . S
C306 O324 1.254 . S
N307 C308 1.333 . S
N307 C312 1.307 . S
N307 Zn313 2.020 . S
C308 N307 1.333 . S
C308 C309 1.379 . S
C308 H326 0.952 . S
C309 C308 1.379 . S
C309 C310 1.390 . S
C309 H336 0.949 . S
C310 C309 1.390 . S
C310 C311 1.357 . S
C311 C310 1.357 . S
C311 C312 1.370 . S
C311 H337 0.950 1_556 S
C312 N307 1.307 . S
C312 C311 1.370 . S
C312 H330 0.948 . S
Zn313 N307 2.020 . S
Zn313 O322 2.039 . S
Zn313 O328 2.034 . S
Zn313 O332 2.025 . S
Zn313 O334 2.024 . S
C314 O333 1.246 . S
C314 O334 1.249 . S
N315 C316 1.307 . S
N315 C317 1.333 . S
N315 Zn321 2.020 . S
C316 N315 1.307 . S
C316 C320 1.370 1_545 S
C316 H327 0.947 1_545 S
C317 N315 1.333 . S
C317 C318 1.379 . S
C317 H325 0.952 . S
C318 C317 1.379 . S
C318 C319 1.390 1_545 S
C318 H338 0.949 . S
C319 C318 1.390 1_565 S
C319 C320 1.357 . S
C320 C316 1.370 1_565 S
C320 C319 1.357 . S
C320 H339 0.950 . S
Zn321 N315 2.020 . S
Zn321 O324 2.025 . S
Zn321 O329 2.024 . S
Zn321 O331 2.039 . S
Zn321 O333 2.034 . S
O322 C306 1.251 . S
O322 Zn313 2.039 . S
C323 O328 1.246 . S
C323 O329 1.249 . S
O324 C306 1.254 . S
O324 Zn321 2.025 . S
H325 C317 0.952 . S
H326 C308 0.952 . S
H327 C316 0.947 1_565 S
O328 Zn313 2.034 . S
O328 C323 1.246 . S
O329 Zn321 2.024 . S
O329 C323 1.249 . S
H330 C312 0.948 . S
O331 Zn321 2.039 . S
O331 C335 1.251 . S
O332 Zn313 2.025 . S
O332 C335 1.254 . S
O333 C314 1.246 . S
O333 Zn321 2.034 . S
O334 Zn313 2.024 . S
O334 C314 1.249 . S
C335 O331 1.251 . S
C335 O332 1.254 . S
H336 C309 0.949 . S
H337 C311 0.950 1_554 S
H338 C318 0.949 . S
H339 C320 0.950 . S
C340 O356 1.251 . S
C340 O358 1.254 . S
N341 C342 1.333 . S
N341 C346 1.307 . S
N341 Zn347 2.020 . S
C342 N341 1.333 . S
C342 C343 1.379 . S
C342 H360 0.952 . S
C343 C342 1.379 . S
C343 C344 1.390 . S
C343 H370 0.949 . S
C344 C343 1.390 . S
C344 C345 1.357 . S
C345 C344 1.357 . S
C345 C346 1.370 . S
C345 H371 0.950 . S
C346 N341 1.307 . S
C346 C345 1.370 . S
C346 H364 0.948 . S
Zn347 N341 2.020 . S
Zn347 O356 2.039 . S
Zn347 O362 2.034 . S
Zn347 O366 2.025 . S
Zn347 O368 2.024 . S
C348 O367 1.246 . S
C348 O368 1.249 . S
N349 C350 1.307 . S
N349 C351 1.333 . S
N349 Zn355 2.020 . S
C350 N349 1.307 . S
C350 C354 1.370 . S
C350 H361 0.948 . S
C351 N349 1.333 . S
C351 C352 1.379 . S
C351 H359 0.952 . S
C352 C351 1.379 . S
C352 C353 1.390 . S
C352 H372 0.949 . S
C353 C352 1.390 . S
C353 C354 1.357 . S
C354 C350 1.370 . S
C354 C353 1.357 . S
C354 H373 0.950 1_565 S
Zn355 N349 2.020 . S
Zn355 O358 2.025 . S
Zn355 O363 2.024 . S
Zn355 O365 2.039 . S
Zn355 O367 2.034 . S
O356 C340 1.251 . S
O356 Zn347 2.039 . S
C357 O362 1.246 . S
C357 O363 1.249 . S
O358 C340 1.254 . S
O358 Zn355 2.025 . S
H359 C351 0.952 . S
H360 C342 0.952 . S
H361 C350 0.948 . S
O362 Zn347 2.034 . S
O362 C357 1.246 . S
O363 Zn355 2.024 . S
O363 C357 1.249 . S
H364 C346 0.948 . S
O365 Zn355 2.039 . S
O365 C369 1.251 . S
O366 Zn347 2.025 . S
O366 C369 1.254 . S
O367 C348 1.246 . S
O367 Zn355 2.034 . S
O368 Zn347 2.024 . S
O368 C348 1.249 . S
C369 O365 1.251 . S
C369 O366 1.254 . S
H370 C343 0.949 . S
H371 C345 0.950 . S
H372 C352 0.949 . S
H373 C354 0.950 1_545 S
C374 O390 1.251 . S
C374 O392 1.254 . S
N375 C376 1.333 . S
N375 C380 1.307 . S
N375 Zn381 2.020 . S
C376 N375 1.333 . S
C376 C377 1.379 . S
C376 H394 0.952 . S
C377 C376 1.379 . S
C377 C378 1.390 . S
C377 H404 0.949 . S
C378 C377 1.390 . S
C378 C379 1.357 . S
C379 C378 1.357 . S
C379 C380 1.370 . S
C379 H405 0.950 . S
C380 N375 1.307 . S
C380 C379 1.370 . S
C380 H398 0.948 . S
Zn381 N375 2.020 . S
Zn381 O390 2.039 . S
Zn381 O396 2.034 . S
Zn381 O400 2.025 . S
Zn381 O402 2.024 . S
C382 O401 1.246 . S
C382 O402 1.249 . S
N383 C384 1.307 . S
N383 C385 1.333 . S
N383 Zn389 2.020 . S
C384 N383 1.307 . S
C384 C388 1.370 . S
C384 H395 0.948 . S
C385 N383 1.333 . S
C385 C386 1.379 . S
C385 H393 0.952 . S
C386 C385 1.379 . S
C386 C387 1.390 . S
C386 H406 0.949 . S
C387 C386 1.390 . S
C387 C388 1.357 . S
C388 C384 1.370 . S
C388 C387 1.357 . S
C388 H407 0.950 . S
Zn389 N383 2.020 . S
Zn389 O392 2.025 . S
Zn389 O397 2.024 . S
Zn389 O399 2.039 . S
Zn389 O401 2.034 . S
O390 C374 1.251 . S
O390 Zn381 2.039 . S
C391 O396 1.246 . S
C391 O397 1.249 . S
O392 C374 1.254 . S
O392 Zn389 2.025 . S
H393 C385 0.952 . S
H394 C376 0.952 . S
H395 C384 0.948 . S
O396 Zn381 2.034 . S
O396 C391 1.246 . S
O397 Zn389 2.024 . S
O397 C391 1.249 . S
H398 C380 0.948 . S
O399 Zn389 2.039 . S
O399 C403 1.251 . S
O400 Zn381 2.025 . S
O400 C403 1.254 . S
O401 C382 1.246 . S
O401 Zn389 2.034 . S
O402 Zn381 2.024 . S
O402 C382 1.249 . S
C403 O399 1.251 . S
C403 O400 1.254 . S
H404 C377 0.949 . S
H405 C379 0.950 . S
H406 C386 0.949 . S
H407 C388 0.950 . S
H408 C420 0.930 . S
H409 C422 0.930 . S
H410 C423 0.930 . S
H411 C427 0.959 . S
H412 C427 0.959 . S
H413 C427 0.961 . S
H414 C428 0.960 . S
H415 C428 0.961 . S
H416 C428 0.959 . S
H417 C431 0.929 . S
H418 C432 0.931 . S
H419 C434 0.930 . S
C420 H408 0.930 . S
C420 C421 1.399 . S
C420 C425 1.399 . S
C421 C420 1.399 . S
C421 C422 1.376 . S
C422 H409 0.930 . S
C422 C421 1.376 . S
C422 C423 1.388 . S
C423 H410 0.930 . S
C423 C422 1.388 . S
C423 C424 1.390 . S
C424 C423 1.390 . S
C424 C425 1.394 . S
C424 C430 1.465 . S
C425 C420 1.399 . S
C425 C424 1.394 . S
C425 C426 1.516 . S
C426 C425 1.516 . S
C426 C427 1.502 . S
C426 C428 1.561 . S
C426 C429 1.526 . S
C427 H411 0.959 . S
C427 H412 0.959 . S
C427 H413 0.961 . S
C427 C426 1.502 . S
C428 H414 0.960 . S
C428 H415 0.961 . S
C428 H416 0.959 . S
C428 C426 1.561 . S
C429 C426 1.526 . S
C429 C430 1.396 . S
C429 C434 1.390 . S
C430 C424 1.465 . S
C430 C429 1.396 . S
C430 C431 1.399 . S
C431 H417 0.929 . S
C431 C430 1.399 . S
C431 C432 1.385 . S
C432 H418 0.931 . S
C432 C431 1.385 . S
C432 C433 1.389 . S
C433 C432 1.389 . S
C433 C434 1.387 . S
C434 H419 0.930 . S
C434 C429 1.390 . S
C434 C433 1.387 . S
H435 C447 0.930 . S
H436 C449 0.930 . S
H437 C450 0.930 . S
H438 C454 0.959 1_565 S
H439 C454 0.959 . S
H440 C454 0.961 . S
H441 C455 0.960 . S
H442 C455 0.961 . S
H443 C455 0.959 . S
H444 C458 0.929 . S
H445 C459 0.931 . S
H446 C461 0.930 . S
C447 H435 0.930 . S
C447 C448 1.399 1_545 S
C447 C452 1.399 . S
C448 C447 1.399 1_565 S
C448 C449 1.376 . S
C449 H436 0.930 . S
C449 C448 1.376 . S
C449 C450 1.388 . S
C450 H437 0.930 . S
C450 C449 1.388 . S
C450 C451 1.390 . S
C451 C450 1.390 . S
C451 C452 1.394 1_565 S
C451 C457 1.465 . S
C452 C447 1.399 . S
C452 C451 1.394 1_545 S
C452 C453 1.516 . S
C453 C452 1.516 . S
C453 C454 1.502 . S
C453 C455 1.561 . S
C453 C456 1.526 . S
C454 H438 0.959 1_545 S
C454 H439 0.959 . S
C454 H440 0.961 . S
C454 C453 1.502 . S
C455 H441 0.960 . S
C455 H442 0.961 . S
C455 H443 0.959 . S
C455 C453 1.561 . S
C456 C453 1.526 . S
C456 C457 1.396 1_545 S
C456 C461 1.390 . S
C457 C451 1.465 . S
C457 C456 1.396 1_565 S
C457 C458 1.399 . S
C458 H444 0.929 . S
C458 C457 1.399 . S
C458 C459 1.385 . S
C459 H445 0.931 . S
C459 C458 1.385 . S
C459 C460 1.389 1_565 S
C460 C459 1.389 1_545 S
C460 C461 1.387 . S
C461 H446 0.930 . S
C461 C456 1.390 . S
C461 C460 1.387 . S
H462 C474 0.930 . S
H463 C476 0.930 . S
H464 C477 0.930 . S
H465 C481 0.959 . S
H466 C481 0.959 . S
H467 C481 0.961 1_556 S
H468 C482 0.960 . S
H469 C482 0.961 . S
H470 C482 0.959 . S
H471 C485 0.929 . S
H472 C486 0.931 . S
H473 C488 0.930 . S
C474 H462 0.930 . S
C474 C475 1.399 1_556 S
C474 C479 1.399 1_556 S
C475 C474 1.399 1_554 S
C475 C476 1.376 . S
C476 H463 0.930 . S
C476 C475 1.376 . S
C476 C477 1.388 . S
C477 H464 0.930 . S
C477 C476 1.388 . S
C477 C478 1.390 . S
C478 C477 1.390 . S
C478 C479 1.394 . S
C478 C484 1.465 . S
C479 C474 1.399 1_554 S
C479 C478 1.394 . S
C479 C480 1.516 . S
C480 C479 1.516 . S
C480 C481 1.502 . S
C480 C482 1.561 1_554 S
C480 C483 1.526 . S
C481 H465 0.959 . S
C481 H466 0.959 . S
C481 H467 0.961 1_554 S
C481 C480 1.502 . S
C482 H468 0.960 . S
C482 H469 0.961 . S
C482 H470 0.959 . S
C482 C480 1.561 1_556 S
C483 C480 1.526 . S
C483 C484 1.396 . S
C483 C488 1.390 . S
C484 C478 1.465 . S
C484 C483 1.396 . S
C484 C485 1.399 . S
C485 H471 0.929 . S
C485 C484 1.399 . S
C485 C486 1.385 . S
C486 H472 0.931 . S
C486 C485 1.385 . S
C486 C487 1.389 . S
C487 C486 1.389 . S
C487 C488 1.387 . S
C488 H473 0.930 . S
C488 C483 1.390 . S
C488 C487 1.387 . S
H489 C501 0.930 . S
H490 C503 0.930 . S
H491 C504 0.930 . S
H492 C508 0.959 . S
H493 C508 0.959 . S
H494 C508 0.961 . S
H495 C509 0.960 . S
H496 C509 0.961 . S
H497 C509 0.959 . S
H498 C512 0.929 . S
H499 C513 0.931 . S
H500 C515 0.930 . S
C501 H489 0.930 . S
C501 C502 1.404 . S
C501 C506 1.399 . S
C502 C501 1.404 . S
C502 C503 1.368 1_545 S
C503 H490 0.930 . S
C503 C502 1.368 1_565 S
C503 C504 1.388 . S
C504 H491 0.930 . S
C504 C503 1.388 . S
C504 C505 1.390 . S
C505 C504 1.390 . S
C505 C506 1.394 1_565 S
C505 C511 1.465 . S
C506 C501 1.399 . S
C506 C505 1.394 1_545 S
C506 C507 1.516 . S
C507 C506 1.516 . S
C507 C508 1.502 . S
C507 C509 1.561 . S
C507 C510 1.526 . S
C508 H492 0.959 . S
C508 H493 0.959 . S
C508 H494 0.961 . S
C508 C507 1.502 . S
C509 H495 0.960 . S
C509 H496 0.961 . S
C509 H497 0.959 . S
C509 C507 1.561 . S
C510 C507 1.526 . S
C510 C511 1.396 1_545 S
C510 C515 1.390 . S
C511 C505 1.465 . S
C511 C510 1.396 1_565 S
C511 C512 1.399 . S
C512 H498 0.929 . S
C512 C511 1.399 . S
C512 C513 1.385 . S
C513 H499 0.931 . S
C513 C512 1.385 . S
C513 C514 1.389 . S
C514 C513 1.389 . S
C514 C515 1.387 1_565 S
C515 H500 0.930 . S
C515 C510 1.390 . S
C515 C514 1.387 1_545 S
H516 C528 0.930 . S
H517 C530 0.930 . S
H518 C531 0.930 . S
H519 C535 0.959 . S
H520 C535 0.959 . S
H521 C535 0.961 . S
H522 C536 0.960 . S
H523 C536 0.961 . S
H524 C536 0.959 . S
H525 C539 0.929 . S
H526 C540 0.931 . S
H527 C542 0.930 . S
C528 H516 0.930 . S
C528 C529 1.399 . S
C528 C533 1.399 . S
C529 C528 1.399 . S
C529 C530 1.376 . S
C530 H517 0.930 . S
C530 C529 1.376 . S
C530 C531 1.388 . S
C531 H518 0.930 . S
C531 C530 1.388 . S
C531 C532 1.390 . S
C532 C531 1.390 . S
C532 C533 1.394 . S
C532 C538 1.465 . S
C533 C528 1.399 . S
C533 C532 1.394 . S
C533 C534 1.516 . S
C534 C533 1.516 . S
C534 C535 1.502 . S
C534 C536 1.561 . S
C534 C537 1.526 . S
C535 H519 0.959 . S
C535 H520 0.959 . S
C535 H521 0.961 . S
C535 C534 1.502 . S
C536 H522 0.960 . S
C536 H523 0.961 . S
C536 H524 0.959 . S
C536 C534 1.561 . S
C537 C534 1.526 . S
C537 C538 1.396 . S
C537 C542 1.390 . S
C538 C532 1.465 . S
C538 C537 1.396 . S
C538 C539 1.399 . S
C539 H525 0.929 . S
C539 C538 1.399 . S
C539 C540 1.385 1_545 S
C540 H526 0.931 . S
C540 C539 1.385 1_565 S
C540 C541 1.389 . S
C541 C540 1.389 . S
C541 C542 1.387 1_565 S
C542 H527 0.930 . S
C542 C537 1.390 . S
C542 C541 1.387 1_545 S
H543 C555 0.930 . S
H544 C557 0.930 . S
H545 C558 0.930 . S
H546 C562 0.959 . S
H547 C562 0.959 . S
H548 C562 0.961 . S
H549 C563 0.960 . S
H550 C563 0.961 . S
H551 C563 0.959 . S
H552 C566 0.929 . S
H553 C567 0.931 . S
H554 C569 0.930 . S
C555 H543 0.930 . S
C555 C556 1.399 . S
C555 C560 1.399 . S
C556 C555 1.399 . S
C556 C557 1.376 . S
C557 H544 0.930 . S
C557 C556 1.376 . S
C557 C558 1.388 . S
C558 H545 0.930 . S
C558 C557 1.388 . S
C558 C559 1.390 . S
C559 C558 1.390 . S
C559 C560 1.394 . S
C559 C565 1.465 . S
C560 C555 1.399 . S
C560 C559 1.394 . S
C560 C561 1.516 . S
C561 C560 1.516 . S
C561 C562 1.502 . S
C561 C563 1.561 . S
C561 C564 1.526 . S
C562 H546 0.959 . S
C562 H547 0.959 . S
C562 H548 0.961 . S
C562 C561 1.502 . S
C563 H549 0.960 . S
C563 H550 0.961 . S
C563 H551 0.959 . S
C563 C561 1.561 . S
C564 C561 1.526 . S
C564 C565 1.396 . S
C564 C569 1.390 . S
C565 C559 1.465 . S
C565 C564 1.396 . S
C565 C566 1.399 . S
C566 H552 0.929 . S
C566 C565 1.399 . S
C566 C567 1.385 . S
C567 H553 0.931 . S
C567 C566 1.385 . S
C567 C568 1.389 . S
C568 C567 1.389 . S
C568 C569 1.387 . S
C569 H554 0.930 . S
C569 C564 1.390 . S
C569 C568 1.387 . S
H570 C582 0.930 . S
H571 C584 0.930 . S
H572 C585 0.930 . S
H573 C589 0.959 1_556 S
H574 C589 0.959 . S
H575 C589 0.961 . S
H576 C590 0.960 . S
H577 C590 0.961 . S
H578 C590 0.959 . S
H579 C593 0.929 . S
H580 C594 0.931 . S
H581 C596 0.930 1_554 S
C582 H570 0.930 . S
C582 C583 1.399 . S
C582 C587 1.399 . S
C583 C582 1.399 . S
C583 C584 1.376 . S
C584 H571 0.930 . S
C584 C583 1.376 . S
C584 C585 1.388 . S
C585 H572 0.930 . S
C585 C584 1.388 . S
C585 C586 1.390 . S
C586 C585 1.390 . S
C586 C587 1.394 . S
C586 C592 1.465 . S
C587 C582 1.399 . S
C587 C586 1.394 . S
C587 C588 1.516 . S
C588 C587 1.516 . S
C588 C589 1.502 1_556 S
C588 C590 1.561 1_556 S
C588 C591 1.526 . S
C589 H573 0.959 1_554 S
C589 H574 0.959 . S
C589 H575 0.961 . S
C589 C588 1.502 1_554 S
C590 H576 0.960 . S
C590 H577 0.961 . S
C590 H578 0.959 . S
C590 C588 1.561 1_554 S
C591 C588 1.526 . S
C591 C592 1.396 . S
C591 C596 1.390 . S
C592 C586 1.465 . S
C592 C591 1.396 . S
C592 C593 1.399 . S
C593 H579 0.929 . S
C593 C592 1.399 . S
C593 C594 1.385 . S
C594 H580 0.931 . S
C594 C593 1.385 . S
C594 C595 1.389 . S
C595 C594 1.389 . S
C595 C596 1.387 . S
C596 H581 0.930 1_556 S
C596 C591 1.390 . S
C596 C595 1.387 . S
H597 C609 0.930 . S
H598 C611 0.930 . S
H599 C612 0.930 . S
H600 C616 0.959 . S
H601 C616 0.959 . S
H602 C616 0.961 . S
H603 C617 0.960 . S
H604 C617 0.961 . S
H605 C617 0.959 . S
H606 C620 0.929 . S
H607 C621 0.931 . S
H608 C623 0.930 . S
C609 H597 0.930 . S
C609 C610 1.399 . S
C609 C614 1.399 . S
C610 C609 1.399 . S
C610 C611 1.376 . S
C611 H598 0.930 . S
C611 C610 1.376 . S
C611 C612 1.388 . S
C612 H599 0.930 . S
C612 C611 1.388 . S
C612 C613 1.390 . S
C613 C612 1.390 . S
C613 C614 1.394 . S
C613 C619 1.465 . S
C614 C609 1.399 . S
C614 C613 1.394 . S
C614 C615 1.516 . S
C615 C614 1.516 . S
C615 C616 1.502 . S
C615 C617 1.561 . S
C615 C618 1.526 . S
C616 H600 0.959 . S
C616 H601 0.959 . S
C616 H602 0.961 . S
C616 C615 1.502 . S
C617 H603 0.960 . S
C617 H604 0.961 . S
C617 H605 0.959 . S
C617 C615 1.561 . S
C618 C615 1.526 . S
C618 C619 1.396 . S
C618 C623 1.390 . S
C619 C613 1.465 . S
C619 C618 1.396 . S
C619 C620 1.399 . S
C620 H606 0.929 . S
C620 C619 1.399 . S
C620 C621 1.385 . S
C621 H607 0.931 . S
C621 C620 1.385 . S
C621 C622 1.389 . S
C622 C621 1.389 . S
C622 C623 1.387 . S
C623 H608 0.930 . S
C623 C618 1.390 . S
C623 C622 1.387 . S
H624 C636 0.930 . S
H625 C638 0.930 . S
H626 C639 0.930 . S
H627 C643 0.959 . S
H628 C643 0.959 . S
H629 C643 0.961 . S
H630 C644 0.960 . S
H631 C644 0.961 . S
H632 C644 0.959 . S
H633 C647 0.929 . S
H634 C648 0.931 . S
H635 C650 0.930 . S
C636 H624 0.930 . S
C636 C637 1.399 . S
C636 C641 1.399 . S
C637 C636 1.399 . S
C637 C638 1.376 . S
C638 H625 0.930 . S
C638 C637 1.376 . S
C638 C639 1.388 . S
C639 H626 0.930 . S
C639 C638 1.388 . S
C639 C640 1.390 . S
C640 C639 1.390 . S
C640 C641 1.394 . S
C640 C646 1.465 . S
C641 C636 1.399 . S
C641 C640 1.394 . S
C641 C642 1.516 . S
C642 C641 1.516 . S
C642 C643 1.502 . S
C642 C644 1.561 . S
C642 C645 1.526 . S
C643 H627 0.959 . S
C643 H628 0.959 . S
C643 H629 0.961 . S
C643 C642 1.502 . S
C644 H630 0.960 . S
C644 H631 0.961 . S
C644 H632 0.959 . S
C644 C642 1.561 . S
C645 C642 1.526 . S
C645 C646 1.396 . S
C645 C650 1.390 . S
C646 C640 1.465 . S
C646 C645 1.396 . S
C646 C647 1.399 . S
C647 H633 0.929 . S
C647 C646 1.399 . S
C647 C648 1.385 . S
C648 H634 0.931 . S
C648 C647 1.385 . S
C648 C649 1.389 . S
C649 C648 1.389 . S
C649 C650 1.387 . S
C650 H635 0.930 . S
C650 C645 1.390 . S
C650 C649 1.387 . S
H651 C663 0.930 . S
H652 C665 0.930 . S
H653 C666 0.930 . S
H654 C670 0.959 . S
H655 C670 0.959 . S
H656 C670 0.961 . S
H657 C671 0.960 . S
H658 C671 0.961 . S
H659 C671 0.959 . S
H660 C674 0.929 . S
H661 C675 0.932 . S
H662 C677 0.930 . S
C663 H651 0.930 . S
C663 C664 1.399 . S
C663 C668 1.399 . S
C664 C663 1.399 . S
C664 C665 1.376 . S
C665 H652 0.930 . S
C665 C664 1.376 . S
C665 C666 1.388 . S
C666 H653 0.930 . S
C666 C665 1.388 . S
C666 C667 1.390 . S
C667 C666 1.390 . S
C667 C668 1.394 . S
C667 C673 1.465 . S
C668 C663 1.399 . S
C668 C667 1.394 . S
C668 C669 1.516 . S
C669 C668 1.516 . S
C669 C670 1.502 1_455 S
C669 C671 1.561 . S
C669 C672 1.526 . S
C670 H654 0.959 . S
C670 H655 0.959 . S
C670 H656 0.961 . S
C670 C669 1.502 1_655 S
C671 H657 0.960 . S
C671 H658 0.961 . S
C671 H659 0.959 . S
C671 C669 1.561 . S
C672 C669 1.526 . S
C672 C673 1.396 . S
C672 C677 1.390 1_455 S
C673 C667 1.465 . S
C673 C672 1.396 . S
C673 C674 1.399 . S
C674 H660 0.929 . S
C674 C673 1.399 . S
C674 C675 1.376 1_455 S
C675 H661 0.932 . S
C675 C674 1.376 1_655 S
C675 C676 1.397 . S
C676 C675 1.397 . S
C676 C677 1.387 . S
C677 H662 0.930 . S
C677 C672 1.390 1_655 S
C677 C676 1.387 . S
H678 C690 0.930 . S
H679 C692 0.930 . S
H680 C693 0.930 . S
H681 C697 0.959 . S
H682 C697 0.959 . S
H683 C697 0.961 . S
H684 C698 0.960 . S
H685 C698 0.961 . S
H686 C698 0.959 1_655 S
H687 C701 0.929 . S
H688 C702 0.931 . S
H689 C704 0.930 . S
C690 H678 0.930 . S
C690 C691 1.399 . S
C690 C695 1.399 . S
C691 C690 1.399 . S
C691 C692 1.376 1_455 S
C692 H679 0.930 . S
C692 C691 1.376 1_655 S
C692 C693 1.388 . S
C693 H680 0.930 . S
C693 C692 1.388 . S
C693 C694 1.390 . S
C694 C693 1.390 . S
C694 C695 1.394 1_655 S
C694 C700 1.465 . S
C695 C690 1.399 . S
C695 C694 1.394 1_455 S
C695 C696 1.516 . S
C696 C695 1.516 . S
C696 C697 1.502 . S
C696 C698 1.561 . S
C696 C699 1.526 1_455 S
C697 H681 0.959 . S
C697 H682 0.959 . S
C697 H683 0.961 . S
C697 C696 1.502 . S
C698 H684 0.960 . S
C698 H685 0.961 . S
C698 H686 0.959 1_455 S
C698 C696 1.561 . S
C699 C696 1.526 1_655 S
C699 C700 1.396 . S
C699 C704 1.390 . S
C700 C694 1.465 . S
C700 C699 1.396 . S
C700 C701 1.399 . S
C701 H687 0.929 . S
C701 C700 1.399 . S
C701 C702 1.385 . S
C702 H688 0.931 . S
C702 C701 1.385 . S
C702 C703 1.389 . S
C703 C702 1.389 . S
C703 C704 1.387 . S
C704 H689 0.930 . S
C704 C699 1.390 . S
C704 C703 1.387 . S
H705 C717 0.930 . S
H706 C719 0.930 . S
H707 C720 0.930 . S
H708 C724 0.959 . S
H709 C724 0.959 . S
H710 C724 0.961 . S
H711 C725 0.960 . S
H712 C725 0.961 . S
H713 C725 0.959 . S
H714 C728 0.929 . S
H715 C729 0.931 . S
H716 C731 0.930 . S
C717 H705 0.930 . S
C717 C718 1.399 . S
C717 C722 1.399 . S
C718 C717 1.399 . S
C718 C719 1.376 . S
C719 H706 0.930 . S
C719 C718 1.376 . S
C719 C720 1.388 . S
C720 H707 0.930 . S
C720 C719 1.388 . S
C720 C721 1.390 . S
C721 C720 1.390 . S
C721 C722 1.394 . S
C721 C727 1.465 . S
C722 C717 1.399 . S
C722 C721 1.394 . S
C722 C723 1.516 . S
C723 C722 1.516 . S
C723 C724 1.502 . S
C723 C725 1.561 . S
C723 C726 1.526 . S
C724 H708 0.959 . S
C724 H709 0.959 . S
C724 H710 0.961 . S
C724 C723 1.502 . S
C725 H711 0.960 . S
C725 H712 0.961 . S
C725 H713 0.959 . S
C725 C723 1.561 . S
C726 C723 1.526 . S
C726 C727 1.396 . S
C726 C731 1.390 . S
C727 C721 1.465 . S
C727 C726 1.396 . S
C727 C728 1.399 . S
C728 H714 0.929 . S
C728 C727 1.399 . S
C728 C729 1.385 . S
C729 H715 0.931 . S
C729 C728 1.385 . S
C729 C730 1.389 . S
C730 C729 1.389 . S
C730 C731 1.387 . S
C731 H716 0.930 . S
C731 C726 1.390 . S
C731 C730 1.387 . S
H732 C744 0.930 . S
H733 C746 0.930 . S
H734 C747 0.930 . S
H735 C751 0.959 . S
H736 C751 0.959 . S
H737 C751 0.961 . S
H738 C752 0.960 . S
H739 C752 0.961 . S
H740 C752 0.959 . S
H741 C755 0.929 . S
H742 C756 0.931 . S
H743 C758 0.930 . S
C744 H732 0.930 . S
C744 C745 1.399 . S
C744 C749 1.399 . S
C745 C744 1.399 . S
C745 C746 1.376 . S
C746 H733 0.930 . S
C746 C745 1.376 . S
C746 C747 1.388 . S
C747 H734 0.930 . S
C747 C746 1.388 . S
C747 C748 1.390 . S
C748 C747 1.390 . S
C748 C749 1.394 . S
C748 C754 1.465 . S
C749 C744 1.399 . S
C749 C748 1.394 . S
C749 C750 1.516 . S
C750 C749 1.516 . S
C750 C751 1.502 . S
C750 C752 1.561 . S
C750 C753 1.526 . S
C751 H735 0.959 . S
C751 H736 0.959 . S
C751 H737 0.961 . S
C751 C750 1.502 . S
C752 H738 0.960 . S
C752 H739 0.961 . S
C752 H740 0.959 . S
C752 C750 1.561 . S
C753 C750 1.526 . S
C753 C754 1.396 . S
C753 C758 1.390 . S
C754 C748 1.465 . S
C754 C753 1.396 . S
C754 C755 1.399 . S
C755 H741 0.929 . S
C755 C754 1.399 . S
C755 C756 1.385 . S
C756 H742 0.931 . S
C756 C755 1.385 . S
C756 C757 1.389 . S
C757 C756 1.389 . S
C757 C758 1.387 . S
C758 H743 0.930 . S
C758 C753 1.390 . S
C758 C757 1.387 . S
H759 C771 0.930 . S
H760 C773 0.930 . S
H761 C774 0.930 . S
H762 C778 0.959 . S
H763 C778 0.959 1_655 S
H764 C778 0.961 . S
H765 C779 0.960 . S
H766 C779 0.961 . S
H767 C779 0.959 . S
H768 C782 0.929 . S
H769 C783 0.931 . S
H770 C785 0.930 . S
C771 H759 0.930 . S
C771 C772 1.399 . S
C771 C776 1.399 1_455 S
C772 C771 1.399 . S
C772 C773 1.376 . S
C773 H760 0.930 . S
C773 C772 1.376 . S
C773 C774 1.388 1_455 S
C774 H761 0.930 . S
C774 C773 1.388 1_655 S
C774 C775 1.390 . S
C775 C774 1.390 . S
C775 C776 1.394 . S
C775 C781 1.465 . S
C776 C771 1.399 1_655 S
C776 C775 1.394 . S
C776 C777 1.516 . S
C777 C776 1.516 . S
C777 C778 1.502 1_655 S
C777 C779 1.561 . S
C777 C780 1.526 . S
C778 H762 0.959 . S
C778 H763 0.959 1_455 S
C778 H764 0.961 . S
C778 C777 1.502 1_455 S
C779 H765 0.960 . S
C779 H766 0.961 . S
C779 H767 0.959 . S
C779 C777 1.561 . S
C780 C777 1.526 . S
C780 C781 1.396 . S
C780 C785 1.390 . S
C781 C775 1.465 . S
C781 C780 1.396 . S
C781 C782 1.399 . S
C782 H768 0.929 . S
C782 C781 1.399 . S
C782 C783 1.385 . S
C783 H769 0.931 . S
C783 C782 1.385 . S
C783 C784 1.389 . S
C784 C783 1.389 . S
C784 C785 1.387 . S
C785 H770 0.930 . S
C785 C780 1.390 . S
C785 C784 1.387 . S
H786 C798 0.930 . S
H787 C800 0.930 . S
H788 C801 0.930 . S
H789 C805 0.959 . S
H790 C805 0.959 . S
H791 C805 0.961 . S
H792 C806 0.960 . S
H793 C806 0.961 . S
H794 C806 0.959 . S
H795 C809 0.929 . S
H796 C810 0.931 . S
H797 C812 0.930 . S
C798 H786 0.930 . S
C798 C799 1.399 . S
C798 C803 1.399 . S
C799 C798 1.399 . S
C799 C800 1.376 . S
C800 H787 0.930 . S
C800 C799 1.376 . S
C800 C801 1.388 . S
C801 H788 0.930 . S
C801 C800 1.388 . S
C801 C802 1.390 . S
C802 C801 1.390 . S
C802 C803 1.394 . S
C802 C808 1.465 . S
C803 C798 1.399 . S
C803 C802 1.394 . S
C803 C804 1.516 . S
C804 C803 1.516 . S
C804 C805 1.502 . S
C804 C806 1.561 . S
C804 C807 1.526 . S
C805 H789 0.959 . S
C805 H790 0.959 . S
C805 H791 0.961 . S
C805 C804 1.502 . S
C806 H792 0.960 . S
C806 H793 0.961 . S
C806 H794 0.959 . S
C806 C804 1.561 . S
C807 C804 1.526 . S
C807 C808 1.396 . S
C807 C812 1.390 . S
C808 C802 1.465 . S
C808 C807 1.396 . S
C808 C809 1.399 . S
C809 H795 0.929 . S
C809 C808 1.399 . S
C809 C810 1.385 . S
C810 H796 0.931 . S
C810 C809 1.385 . S
C810 C811 1.389 . S
C811 C810 1.389 . S
C811 C812 1.387 . S
C812 H797 0.930 . S
C812 C807 1.390 . S
C812 C811 1.387 . S
H813 C825 0.930 . S
H814 C827 0.930 . S
H815 C828 0.930 . S
H816 C832 0.959 . S
H817 C832 0.959 . S
H818 C832 0.961 . S
H819 C833 0.960 . S
H820 C833 0.961 . S
H821 C833 0.959 . S
H822 C836 0.929 . S
H823 C837 0.931 1_556 S
H824 C839 0.930 . S
C825 H813 0.930 . S
C825 C826 1.399 . S
C825 C830 1.399 . S
C826 C825 1.399 . S
C826 C827 1.376 . S
C827 H814 0.930 . S
C827 C826 1.376 . S
C827 C828 1.388 . S
C828 H815 0.930 . S
C828 C827 1.388 . S
C828 C829 1.390 . S
C829 C828 1.390 . S
C829 C830 1.394 . S
C829 C835 1.465 . S
C830 C825 1.399 . S
C830 C829 1.394 . S
C830 C831 1.516 . S
C831 C830 1.516 . S
C831 C832 1.502 . S
C831 C833 1.561 . S
C831 C834 1.526 . S
C832 H816 0.959 . S
C832 H817 0.959 . S
C832 H818 0.961 . S
C832 C831 1.502 . S
C833 H819 0.960 . S
C833 H820 0.961 . S
C833 H821 0.959 . S
C833 C831 1.561 . S
C834 C831 1.526 . S
C834 C835 1.396 . S
C834 C839 1.390 . S
C835 C829 1.465 . S
C835 C834 1.396 . S
C835 C836 1.399 . S
C836 H822 0.929 . S
C836 C835 1.399 . S
C836 C837 1.385 . S
C837 H823 0.931 1_554 S
C837 C836 1.385 . S
C837 C838 1.389 1_554 S
C838 C837 1.389 1_556 S
C838 C839 1.387 1_556 S
C839 H824 0.930 . S
C839 C834 1.390 . S
C839 C838 1.387 1_554 S
H840 C852 0.930 . S
H841 C854 0.930 . S
H842 C855 0.930 . S
H843 C859 0.959 . S
H844 C859 0.959 . S
H845 C859 0.961 . S
H846 C860 0.960 . S
H847 C860 0.961 . S
H848 C860 0.959 . S
H849 C863 0.929 . S
H850 C864 0.931 . S
H851 C866 0.930 . S
C852 H840 0.930 . S
C852 C853 1.399 . S
C852 C857 1.399 . S
C853 C852 1.399 . S
C853 C854 1.376 . S
C854 H841 0.930 . S
C854 C853 1.376 . S
C854 C855 1.388 . S
C855 H842 0.930 . S
C855 C854 1.388 . S
C855 C856 1.390 . S
C856 C855 1.390 . S
C856 C857 1.394 . S
C856 C862 1.465 . S
C857 C852 1.399 . S
C857 C856 1.394 . S
C857 C858 1.516 . S
C858 C857 1.516 . S
C858 C859 1.502 . S
C858 C860 1.561 . S
C858 C861 1.526 . S
C859 H843 0.959 . S
C859 H844 0.959 . S
C859 H845 0.961 . S
C859 C858 1.502 . S
C860 H846 0.960 . S
C860 H847 0.961 . S
C860 H848 0.959 . S
C860 C858 1.561 . S
C861 C858 1.526 . S
C861 C862 1.396 . S
C861 C866 1.390 . S
C862 C856 1.465 . S
C862 C861 1.396 . S
C862 C863 1.399 . S
C863 H849 0.929 . S
C863 C862 1.399 . S
C863 C864 1.385 . S
C864 H850 0.931 . S
C864 C863 1.385 . S
C864 C865 1.389 . S
C865 C864 1.389 . S
C865 C866 1.387 . S
C866 H851 0.930 . S
C866 C861 1.390 . S
C866 C865 1.387 . S
H867 C879 0.929 . S
H868 C881 0.930 1_554 S
H869 C882 0.930 . S
H870 C886 0.959 1_655 S
H871 C886 0.959 1_655 S
H872 C886 0.961 . S
H873 C887 0.960 . S
H874 C887 0.961 . S
H875 C887 0.959 . S
H876 C890 0.929 . S
H877 C891 0.930 1_655 S
H878 C893 0.930 . S
C879 H867 0.929 . S
C879 C880 1.399 . S
C879 C884 1.400 1_554 S
C880 C879 1.399 . S
C880 C881 1.376 1_554 S
C881 H868 0.930 1_556 S
C881 C880 1.376 1_556 S
C881 C882 1.388 . S
C882 H869 0.930 . S
C882 C881 1.388 . S
C882 C883 1.390 . S
C883 C882 1.390 . S
C883 C884 1.394 . S
C883 C889 1.465 . S
C884 C879 1.400 1_556 S
C884 C883 1.394 . S
C884 C885 1.516 . S
C885 C884 1.516 . S
C885 C886 1.502 . S
C885 C887 1.561 . S
C885 C888 1.526 . S
C886 H870 0.959 1_455 S
C886 H871 0.959 1_455 S
C886 H872 0.961 . S
C886 C885 1.502 . S
C887 H873 0.960 . S
C887 H874 0.961 . S
C887 H875 0.959 . S
C887 C885 1.561 . S
C888 C885 1.526 . S
C888 C889 1.396 . S
C888 C893 1.390 1_455 S
C889 C883 1.465 . S
C889 C888 1.396 . S
C889 C890 1.399 . S
C890 H876 0.929 . S
C890 C889 1.399 . S
C890 C891 1.387 . S
C891 H877 0.930 1_455 S
C891 C890 1.387 . S
C891 C892 1.388 1_455 S
C892 C891 1.388 1_655 S
C892 C893 1.387 . S
C893 H878 0.930 . S
C893 C888 1.390 1_655 S
C893 C892 1.387 . S
H894 C906 0.930 . S
H895 C908 0.930 . S
H896 C909 0.930 . S
H897 C913 0.959 . S
H898 C913 0.959 . S
H899 C913 0.961 . S
H900 C914 0.960 . S
H901 C914 0.961 . S
H902 C914 0.959 . S
H903 C917 0.929 . S
H904 C918 0.931 . S
H905 C920 0.930 . S
C906 H894 0.930 . S
C906 C907 1.399 . S
C906 C911 1.399 . S
C907 C906 1.399 . S
C907 C908 1.376 . S
C908 H895 0.930 . S
C908 C907 1.376 . S
C908 C909 1.388 . S
C909 H896 0.930 . S
C909 C908 1.388 . S
C909 C910 1.390 . S
C910 C909 1.390 . S
C910 C911 1.394 . S
C910 C916 1.465 . S
C911 C906 1.399 . S
C911 C910 1.394 . S
C911 C912 1.516 . S
C912 C911 1.516 . S
C912 C913 1.502 . S
C912 C914 1.561 . S
C912 C915 1.526 . S
C913 H897 0.959 . S
C913 H898 0.959 . S
C913 H899 0.961 . S
C913 C912 1.502 . S
C914 H900 0.960 . S
C914 H901 0.961 . S
C914 H902 0.959 . S
C914 C912 1.561 . S
C915 C912 1.526 . S
C915 C916 1.396 . S
C915 C920 1.390 . S
C916 C910 1.465 . S
C916 C915 1.396 . S
C916 C917 1.399 . S
C917 H903 0.929 . S
C917 C916 1.399 . S
C917 C918 1.385 . S
C918 H904 0.931 . S
C918 C917 1.385 . S
C918 C919 1.389 . S
C919 C918 1.389 . S
C919 C920 1.387 . S
C920 H905 0.930 . S
C920 C915 1.390 . S
C920 C919 1.387 . S
H921 C933 0.930 . S
H922 C935 0.930 . S
H923 C936 0.930 . S
H924 C940 0.959 . S
H925 C940 0.959 . S
H926 C940 0.961 . S
H927 C941 0.960 . S
H928 C941 0.961 . S
H929 C941 0.959 . S
H930 C944 0.929 . S
H931 C945 0.931 . S
H932 C947 0.930 . S
C933 H921 0.930 . S
C933 C934 1.399 . S
C933 C938 1.399 . S
C934 C933 1.399 . S
C934 C935 1.376 . S
C935 H922 0.930 . S
C935 C934 1.376 . S
C935 C936 1.388 . S
C936 H923 0.930 . S
C936 C935 1.388 . S
C936 C937 1.390 . S
C937 C936 1.390 . S
C937 C938 1.394 . S
C937 C943 1.465 . S
C938 C933 1.399 . S
C938 C937 1.394 . S
C938 C939 1.516 . S
C939 C938 1.516 . S
C939 C940 1.502 . S
C939 C941 1.561 . S
C939 C942 1.526 . S
C940 H924 0.959 . S
C940 H925 0.959 . S
C940 H926 0.961 . S
C940 C939 1.502 . S
C941 H927 0.960 . S
C941 H928 0.961 . S
C941 H929 0.959 . S
C941 C939 1.561 . S
C942 C939 1.526 . S
C942 C943 1.396 . S
C942 C947 1.390 . S
C943 C937 1.465 . S
C943 C942 1.396 . S
C943 C944 1.399 . S
C944 H930 0.929 . S
C944 C943 1.399 . S
C944 C945 1.385 . S
C945 H931 0.931 . S
C945 C944 1.385 . S
C945 C946 1.389 . S
C946 C945 1.389 . S
C946 C947 1.387 . S
C947 H932 0.930 . S
C947 C942 1.390 . S
C947 C946 1.387 . S
H948 C960 0.930 . S
H949 C962 0.930 . S
H950 C963 0.930 . S
H951 C967 0.959 . S
H952 C967 0.959 . S
H953 C967 0.961 . S
H954 C968 0.960 . S
H955 C968 0.961 . S
H956 C968 0.959 . S
H957 C971 0.929 . S
H958 C972 0.931 . S
H959 C974 0.930 . S
C960 H948 0.930 . S
C960 C961 1.399 . S
C960 C965 1.399 . S
C961 C960 1.399 . S
C961 C962 1.376 . S
C962 H949 0.930 . S
C962 C961 1.376 . S
C962 C963 1.388 . S
C963 H950 0.930 . S
C963 C962 1.388 . S
C963 C964 1.390 . S
C964 C963 1.390 . S
C964 C965 1.394 . S
C964 C970 1.465 . S
C965 C960 1.399 . S
C965 C964 1.394 . S
C965 C966 1.516 . S
C966 C965 1.516 . S
C966 C967 1.502 . S
C966 C968 1.561 . S
C966 C969 1.526 . S
C967 H951 0.959 . S
C967 H952 0.959 . S
C967 H953 0.961 . S
C967 C966 1.502 . S
C968 H954 0.960 . S
C968 H955 0.961 . S
C968 H956 0.959 . S
C968 C966 1.561 . S
C969 C966 1.526 . S
C969 C970 1.396 . S
C969 C974 1.390 . S
C970 C964 1.465 . S
C970 C969 1.396 . S
C970 C971 1.399 . S
C971 H957 0.929 . S
C971 C970 1.399 . S
C971 C972 1.385 . S
C972 H958 0.931 . S
C972 C971 1.385 . S
C972 C973 1.389 . S
C973 C972 1.389 . S
C973 C974 1.387 . S
C974 H959 0.930 . S
C974 C969 1.390 . S
C974 C973 1.387 . S
H975 C987 0.930 . S
H976 C989 0.930 . S
H977 C990 0.930 . S
H978 C994 0.959 . S
H979 C994 0.959 . S
H980 C994 0.961 . S
H981 C995 0.960 . S
H982 C995 0.961 . S
H983 C995 0.959 . S
H984 C998 0.929 . S
H985 C999 0.930 . S
H986 C1001 0.909 1_565 S
C987 H975 0.930 . S
C987 C988 1.399 . S
C987 C992 1.399 . S
C988 C987 1.399 . S
C988 C989 1.376 . S
C989 H976 0.930 . S
C989 C988 1.376 . S
C989 C990 1.388 . S
C990 H977 0.930 . S
C990 C989 1.388 . S
C990 C991 1.390 . S
C991 C990 1.390 . S
C991 C992 1.394 . S
C991 C997 1.465 . S
C992 C987 1.399 . S
C992 C991 1.394 . S
C992 C993 1.516 . S
C993 C992 1.516 . S
C993 C994 1.502 . S
C993 C995 1.561 . S
C993 C996 1.526 . S
C994 H978 0.959 . S
C994 H979 0.959 . S
C994 H980 0.961 . S
C994 C993 1.502 . S
C995 H981 0.960 . S
C995 H982 0.961 . S
C995 H983 0.959 . S
C995 C993 1.561 . S
C996 C993 1.526 . S
C996 C997 1.396 . S
C996 C1001 1.421 . S
C997 C991 1.465 . S
C997 C996 1.396 . S
C997 C998 1.399 . S
C998 H984 0.929 . S
C998 C997 1.399 . S
C998 C999 1.385 . S
C999 H985 0.930 . S
C999 C998 1.385 . S
C999 C1000 1.389 1_545 S
C1000 C999 1.389 1_565 S
C1000 C1001 1.376 1_565 S
C1001 H986 0.909 1_545 S
C1001 C996 1.421 . S
C1001 C1000 1.376 1_545 S
H1002 C1014 0.930 . S
H1003 C1016 0.930 . S
H1004 C1017 0.930 . S
H1005 C1021 0.959 . S
H1006 C1021 0.959 . S
H1007 C1021 0.961 . S
H1008 C1022 0.960 . S
H1009 C1022 0.961 . S
H1010 C1022 0.959 . S
H1011 C1025 0.929 . S
H1012 C1026 0.931 . S
H1013 C1028 0.930 . S
C1014 H1002 0.930 . S
C1014 C1015 1.399 . S
C1014 C1019 1.399 . S
C1015 C1014 1.399 . S
C1015 C1016 1.376 . S
C1016 H1003 0.930 . S
C1016 C1015 1.376 . S
C1016 C1017 1.388 . S
C1017 H1004 0.930 . S
C1017 C1016 1.388 . S
C1017 C1018 1.390 . S
C1018 C1017 1.390 . S
C1018 C1019 1.394 . S
C1018 C1024 1.465 . S
C1019 C1014 1.399 . S
C1019 C1018 1.394 . S
C1019 C1020 1.516 . S
C1020 C1019 1.516 . S
C1020 C1021 1.502 . S
C1020 C1022 1.561 . S
C1020 C1023 1.526 . S
C1021 H1005 0.959 . S
C1021 H1006 0.959 . S
C1021 H1007 0.961 . S
C1021 C1020 1.502 . S
C1022 H1008 0.960 . S
C1022 H1009 0.961 . S
C1022 H1010 0.959 . S
C1022 C1020 1.561 . S
C1023 C1020 1.526 . S
C1023 C1024 1.396 . S
C1023 C1028 1.390 . S
C1024 C1018 1.465 . S
C1024 C1023 1.396 . S
C1024 C1025 1.399 . S
C1025 H1011 0.929 . S
C1025 C1024 1.399 . S
C1025 C1026 1.385 . S
C1026 H1012 0.931 . S
C1026 C1025 1.385 . S
C1026 C1027 1.389 . S
C1027 C1026 1.389 . S
C1027 C1028 1.387 . S
C1028 H1013 0.930 . S
C1028 C1023 1.390 . S
C1028 C1027 1.387 . S
H1029 C1041 0.930 . S
H1030 C1043 0.930 . S
H1031 C1044 0.930 . S
H1032 C1048 0.959 . S
H1033 C1048 0.959 . S
H1034 C1048 0.961 . S
H1035 C1049 0.960 . S
H1036 C1049 0.961 . S
H1037 C1049 0.959 . S
H1038 C1052 0.929 . S
H1039 C1053 0.931 1_556 S
H1040 C1055 0.930 . S
C1041 H1029 0.930 . S
C1041 C1042 1.399 . S
C1041 C1046 1.399 . S
C1042 C1041 1.399 . S
C1042 C1043 1.376 . S
C1043 H1030 0.930 . S
C1043 C1042 1.376 . S
C1043 C1044 1.388 . S
C1044 H1031 0.930 . S
C1044 C1043 1.388 . S
C1044 C1045 1.390 . S
C1045 C1044 1.390 . S
C1045 C1046 1.394 . S
C1045 C1051 1.465 1_545 S
C1046 C1041 1.399 . S
C1046 C1045 1.394 . S
C1046 C1047 1.516 1_545 S
C1047 C1046 1.516 1_565 S
C1047 C1048 1.502 . S
C1047 C1049 1.561 . S
C1047 C1050 1.526 . S
C1048 H1032 0.959 . S
C1048 H1033 0.959 . S
C1048 H1034 0.961 . S
C1048 C1047 1.502 . S
C1049 H1035 0.960 . S
C1049 H1036 0.961 . S
C1049 H1037 0.959 . S
C1049 C1047 1.561 . S
C1050 C1047 1.526 . S
C1050 C1051 1.396 . S
C1050 C1055 1.390 . S
C1051 C1045 1.465 1_565 S
C1051 C1050 1.396 . S
C1051 C1052 1.399 . S
C1052 H1038 0.929 . S
C1052 C1051 1.399 . S
C1052 C1053 1.385 . S
C1053 H1039 0.931 1_554 S
C1053 C1052 1.385 . S
C1053 C1054 1.389 . S
C1054 C1053 1.389 . S
C1054 C1055 1.387 . S
C1055 H1040 0.930 . S
C1055 C1050 1.390 . S
C1055 C1054 1.387 . S
H1056 C1068 0.930 . S
H1057 C1070 0.930 . S
H1058 C1071 0.930 . S
H1059 C1075 0.959 . S
H1060 C1075 0.959 . S
H1061 C1075 0.961 . S
H1062 C1076 0.960 . S
H1063 C1076 0.961 . S
H1064 C1076 0.959 . S
H1065 C1079 0.929 . S
H1066 C1080 0.931 . S
H1067 C1082 0.930 . S
C1068 H1056 0.930 . S
C1068 C1069 1.399 . S
C1068 C1073 1.399 . S
C1069 C1068 1.399 . S
C1069 C1070 1.376 . S
C1070 H1057 0.930 . S
C1070 C1069 1.376 . S
C1070 C1071 1.388 . S
C1071 H1058 0.930 . S
C1071 C1070 1.388 . S
C1071 C1072 1.390 . S
C1072 C1071 1.390 . S
C1072 C1073 1.394 . S
C1072 C1078 1.465 . S
C1073 C1068 1.399 . S
C1073 C1072 1.394 . S
C1073 C1074 1.516 . S
C1074 C1073 1.516 . S
C1074 C1075 1.502 . S
C1074 C1076 1.561 . S
C1074 C1077 1.526 . S
C1075 H1059 0.959 . S
C1075 H1060 0.959 . S
C1075 H1061 0.961 . S
C1075 C1074 1.502 . S
C1076 H1062 0.960 . S
C1076 H1063 0.961 . S
C1076 H1064 0.959 . S
C1076 C1074 1.561 . S
C1077 C1074 1.526 . S
C1077 C1078 1.396 . S
C1077 C1082 1.390 . S
C1078 C1072 1.465 . S
C1078 C1077 1.396 . S
C1078 C1079 1.399 . S
C1079 H1065 0.929 . S
C1079 C1078 1.399 . S
C1079 C1080 1.385 . S
C1080 H1066 0.931 . S
C1080 C1079 1.385 . S
C1080 C1081 1.389 . S
C1081 C1080 1.389 . S
C1081 C1082 1.387 . S
C1082 H1067 0.930 . S
C1082 C1077 1.390 . S
C1082 C1081 1.387 . S
H1083 C1095 0.930 . S
H1084 C1097 0.930 . S
H1085 C1098 0.930 . S
H1086 C1102 0.959 . S
H1087 C1102 0.959 . S
H1088 C1102 0.961 . S
H1089 C1103 0.960 . S
H1090 C1103 0.962 1_554 S
H1091 C1103 0.959 . S
H1092 C1106 0.929 . S
H1093 C1107 0.931 . S
H1094 C1109 0.930 . S
C1095 H1083 0.930 . S
C1095 C1096 1.399 . S
C1095 C1100 1.399 . S
C1096 C1095 1.399 . S
C1096 C1097 1.376 . S
C1097 H1084 0.930 . S
C1097 C1096 1.376 . S
C1097 C1098 1.388 . S
C1098 H1085 0.930 . S
C1098 C1097 1.388 . S
C1098 C1099 1.390 . S
C1099 C1098 1.390 . S
C1099 C1100 1.394 . S
C1099 C1105 1.465 . S
C1100 C1095 1.399 . S
C1100 C1099 1.394 . S
C1100 C1101 1.516 . S
C1101 C1100 1.516 . S
C1101 C1102 1.502 . S
C1101 C1103 1.561 . S
C1101 C1104 1.526 . S
C1102 H1086 0.959 . S
C1102 H1087 0.959 . S
C1102 H1088 0.961 . S
C1102 C1101 1.502 . S
C1103 H1089 0.960 . S
C1103 H1090 0.962 1_556 S
C1103 H1091 0.959 . S
C1103 C1101 1.561 . S
C1104 C1101 1.526 . S
C1104 C1105 1.396 . S
C1104 C1109 1.390 . S
C1105 C1099 1.465 . S
C1105 C1104 1.396 . S
C1105 C1106 1.399 . S
C1106 H1092 0.929 . S
C1106 C1105 1.399 . S
C1106 C1107 1.385 . S
C1107 H1093 0.931 . S
C1107 C1106 1.385 . S
C1107 C1108 1.389 . S
C1108 C1107 1.389 . S
C1108 C1109 1.387 . S
C1109 H1094 0.930 . S
C1109 C1104 1.390 . S
C1109 C1108 1.387 . S
H1110 C1122 0.930 . S
H1111 C1124 0.930 . S
H1112 C1125 0.930 . S
H1113 C1129 0.959 . S
H1114 C1129 0.959 . S
H1115 C1129 0.961 . S
H1116 C1130 0.960 . S
H1117 C1130 0.961 . S
H1118 C1130 0.959 . S
H1119 C1133 0.929 . S
H1120 C1134 0.931 . S
H1121 C1136 0.930 . S
C1122 H1110 0.930 . S
C1122 C1123 1.399 . S
C1122 C1127 1.399 . S
C1123 C1122 1.399 . S
C1123 C1124 1.376 . S
C1124 H1111 0.930 . S
C1124 C1123 1.376 . S
C1124 C1125 1.388 . S
C1125 H1112 0.930 . S
C1125 C1124 1.388 . S
C1125 C1126 1.390 . S
C1126 C1125 1.390 . S
C1126 C1127 1.394 . S
C1126 C1132 1.465 . S
C1127 C1122 1.399 . S
C1127 C1126 1.394 . S
C1127 C1128 1.516 . S
C1128 C1127 1.516 . S
C1128 C1129 1.502 . S
C1128 C1130 1.561 . S
C1128 C1131 1.526 . S
C1129 H1113 0.959 . S
C1129 H1114 0.959 . S
C1129 H1115 0.961 . S
C1129 C1128 1.502 . S
C1130 H1116 0.960 . S
C1130 H1117 0.961 . S
C1130 H1118 0.959 . S
C1130 C1128 1.561 . S
C1131 C1128 1.526 . S
C1131 C1132 1.396 . S
C1131 C1136 1.390 . S
C1132 C1126 1.465 . S
C1132 C1131 1.396 . S
C1132 C1133 1.399 . S
C1133 H1119 0.929 . S
C1133 C1132 1.399 . S
C1133 C1134 1.385 . S
C1134 H1120 0.931 . S
C1134 C1133 1.385 . S
C1134 C1135 1.389 . S
C1135 C1134 1.389 . S
C1135 C1136 1.387 . S
C1136 H1121 0.930 . S
C1136 C1131 1.390 . S
C1136 C1135 1.387 . S
H1137 C1149 0.930 . S
H1138 C1151 0.930 . S
H1139 C1152 0.930 . S
H1140 C1156 0.959 . S
H1141 C1156 0.959 . S
H1142 C1156 0.961 . S
H1143 C1157 0.960 . S
H1144 C1157 0.961 . S
H1145 C1157 0.959 . S
H1146 C1160 0.929 . S
H1147 C1161 0.931 . S
H1148 C1163 0.930 . S
C1149 H1137 0.930 . S
C1149 C1150 1.399 . S
C1149 C1154 1.399 . S
C1150 C1149 1.399 . S
C1150 C1151 1.376 . S
C1151 H1138 0.930 . S
C1151 C1150 1.376 . S
C1151 C1152 1.388 . S
C1152 H1139 0.930 . S
C1152 C1151 1.388 . S
C1152 C1153 1.390 . S
C1153 C1152 1.390 . S
C1153 C1154 1.394 . S
C1153 C1159 1.465 . S
C1154 C1149 1.399 . S
C1154 C1153 1.394 . S
C1154 C1155 1.516 . S
C1155 C1154 1.516 . S
C1155 C1156 1.502 . S
C1155 C1157 1.561 . S
C1155 C1158 1.526 . S
C1156 H1140 0.959 . S
C1156 H1141 0.959 . S
C1156 H1142 0.961 . S
C1156 C1155 1.502 . S
C1157 H1143 0.960 . S
C1157 H1144 0.961 . S
C1157 H1145 0.959 . S
C1157 C1155 1.561 . S
C1158 C1155 1.526 . S
C1158 C1159 1.396 . S
C1158 C1163 1.390 . S
C1159 C1153 1.465 . S
C1159 C1158 1.396 . S
C1159 C1160 1.399 . S
C1160 H1146 0.929 . S
C1160 C1159 1.399 . S
C1160 C1161 1.385 . S
C1161 H1147 0.931 . S
C1161 C1160 1.385 . S
C1161 C1162 1.389 . S
C1162 C1161 1.389 . S
C1162 C1163 1.387 . S
C1163 H1148 0.930 . S
C1163 C1158 1.390 . S
C1163 C1162 1.387 . S
H1164 C1176 0.930 . S
H1165 C1178 0.930 . S
H1166 C1179 0.930 . S
H1167 C1183 0.959 . S
H1168 C1183 0.959 . S
H1169 C1183 0.961 . S
H1170 C1184 0.960 . S
H1171 C1184 0.961 . S
H1172 C1184 0.959 . S
H1173 C1187 0.929 . S
H1174 C1188 0.931 . S
H1175 C1190 0.930 . S
C1176 H1164 0.930 . S
C1176 C1177 1.399 . S
C1176 C1181 1.399 . S
C1177 C1176 1.399 . S
C1177 C1178 1.376 . S
C1178 H1165 0.930 . S
C1178 C1177 1.376 . S
C1178 C1179 1.388 . S
C1179 H1166 0.930 . S
C1179 C1178 1.388 . S
C1179 C1180 1.390 . S
C1180 C1179 1.390 . S
C1180 C1181 1.394 . S
C1180 C1186 1.465 . S
C1181 C1176 1.399 . S
C1181 C1180 1.394 . S
C1181 C1182 1.516 . S
C1182 C1181 1.516 . S
C1182 C1183 1.502 . S
C1182 C1184 1.561 . S
C1182 C1185 1.526 . S
C1183 H1167 0.959 . S
C1183 H1168 0.959 . S
C1183 H1169 0.961 . S
C1183 C1182 1.502 . S
C1184 H1170 0.960 . S
C1184 H1171 0.961 . S
C1184 H1172 0.959 . S
C1184 C1182 1.561 . S
C1185 C1182 1.526 . S
C1185 C1186 1.396 . S
C1185 C1190 1.390 . S
C1186 C1180 1.465 . S
C1186 C1185 1.396 . S
C1186 C1187 1.399 . S
C1187 H1173 0.929 . S
C1187 C1186 1.399 . S
C1187 C1188 1.385 . S
C1188 H1174 0.931 . S
C1188 C1187 1.385 . S
C1188 C1189 1.389 . S
C1189 C1188 1.389 . S
C1189 C1190 1.387 . S
C1190 H1175 0.930 . S
C1190 C1185 1.390 . S
C1190 C1189 1.387 . S
H1191 C1203 0.930 . S
H1192 C1205 0.930 . S
H1193 C1206 0.930 . S
H1194 C1210 0.959 . S
H1195 C1210 0.959 . S
H1196 C1210 0.961 . S
H1197 C1211 0.960 . S
H1198 C1211 0.961 . S
H1199 C1211 0.959 . S
H1200 C1214 0.929 . S
H1201 C1215 0.931 . S
H1202 C1217 0.930 . S
C1203 H1191 0.930 . S
C1203 C1204 1.399 . S
C1203 C1208 1.399 . S
C1204 C1203 1.399 . S
C1204 C1205 1.376 . S
C1205 H1192 0.930 . S
C1205 C1204 1.376 . S
C1205 C1206 1.388 . S
C1206 H1193 0.930 . S
C1206 C1205 1.388 . S
C1206 C1207 1.390 . S
C1207 C1206 1.390 . S
C1207 C1208 1.394 . S
C1207 C1213 1.465 . S
C1208 C1203 1.399 . S
C1208 C1207 1.394 . S
C1208 C1209 1.516 . S
C1209 C1208 1.516 . S
C1209 C1210 1.502 . S
C1209 C1211 1.561 . S
C1209 C1212 1.526 . S
C1210 H1194 0.959 . S
C1210 H1195 0.959 . S
C1210 H1196 0.961 . S
C1210 C1209 1.502 . S
C1211 H1197 0.960 . S
C1211 H1198 0.961 . S
C1211 H1199 0.959 . S
C1211 C1209 1.561 . S
C1212 C1209 1.526 . S
C1212 C1213 1.396 . S
C1212 C1217 1.390 . S
C1213 C1207 1.465 . S
C1213 C1212 1.396 . S
C1213 C1214 1.399 . S
C1214 H1200 0.929 . S
C1214 C1213 1.399 . S
C1214 C1215 1.385 . S
C1215 H1201 0.931 . S
C1215 C1214 1.385 . S
C1215 C1216 1.389 . S
C1216 C1215 1.389 . S
C1216 C1217 1.387 . S
C1217 H1202 0.930 . S
C1217 C1212 1.390 . S
C1217 C1216 1.387 . S
H1218 C1230 0.930 . S
H1219 C1232 0.930 . S
H1220 C1233 0.930 . S
H1221 C1237 0.959 . S
H1222 C1237 0.959 . S
H1223 C1237 0.961 . S
H1224 C1238 0.960 . S
H1225 C1238 0.961 . S
H1226 C1238 0.959 . S
H1227 C1241 0.929 . S
H1228 C1242 0.931 . S
H1229 C1244 0.932 . S
C1230 H1218 0.930 . S
C1230 C1231 1.399 . S
C1230 C1235 1.399 . S
C1231 C1230 1.399 . S
C1231 C1232 1.376 . S
C1232 H1219 0.930 . S
C1232 C1231 1.376 . S
C1232 C1233 1.388 . S
C1233 H1220 0.930 . S
C1233 C1232 1.388 . S
C1233 C1234 1.390 . S
C1234 C1233 1.390 . S
C1234 C1235 1.394 . S
C1234 C1240 1.465 . S
C1235 C1230 1.399 . S
C1235 C1234 1.394 . S
C1235 C1236 1.516 . S
C1236 C1235 1.516 . S
C1236 C1237 1.502 . S
C1236 C1238 1.561 . S
C1236 C1239 1.526 . S
C1237 H1221 0.959 . S
C1237 H1222 0.959 . S
C1237 H1223 0.961 . S
C1237 C1236 1.502 . S
C1238 H1224 0.960 . S
C1238 H1225 0.961 . S
C1238 H1226 0.959 . S
C1238 C1236 1.561 . S
C1239 C1236 1.526 . S
C1239 C1240 1.396 . S
C1239 C1244 1.390 . S
C1240 C1234 1.465 . S
C1240 C1239 1.396 . S
C1240 C1241 1.399 . S
C1241 H1227 0.929 . S
C1241 C1240 1.399 . S
C1241 C1242 1.385 . S
C1242 H1228 0.931 . S
C1242 C1241 1.385 . S
C1242 C1243 1.389 . S
C1243 C1242 1.389 . S
C1243 C1244 1.387 . S
C1244 H1229 0.932 . S
C1244 C1239 1.390 . S
C1244 C1243 1.387 . S
H1245 C1257 0.930 . S
H1246 C1259 0.930 . S
H1247 C1260 0.930 . S
H1248 C1264 0.959 . S
H1249 C1264 0.959 . S
H1250 C1264 0.961 . S
H1251 C1265 0.960 . S
H1252 C1265 0.961 . S
H1253 C1265 0.959 . S
H1254 C1268 0.929 . S
H1255 C1269 0.931 . S
H1256 C1271 0.930 . S
C1257 H1245 0.930 . S
C1257 C1258 1.399 . S
C1257 C1262 1.399 . S
C1258 C1257 1.399 . S
C1258 C1259 1.376 . S
C1259 H1246 0.930 . S
C1259 C1258 1.376 . S
C1259 C1260 1.388 . S
C1260 H1247 0.930 . S
C1260 C1259 1.388 . S
C1260 C1261 1.390 . S
C1261 C1260 1.390 . S
C1261 C1262 1.394 . S
C1261 C1267 1.465 . S
C1262 C1257 1.399 . S
C1262 C1261 1.394 . S
C1262 C1263 1.516 . S
C1263 C1262 1.516 . S
C1263 C1264 1.502 . S
C1263 C1265 1.561 . S
C1263 C1266 1.526 . S
C1264 H1248 0.959 . S
C1264 H1249 0.959 . S
C1264 H1250 0.961 . S
C1264 C1263 1.502 . S
C1265 H1251 0.960 . S
C1265 H1252 0.961 . S
C1265 H1253 0.959 . S
C1265 C1263 1.561 . S
C1266 C1263 1.526 . S
C1266 C1267 1.396 . S
C1266 C1271 1.390 . S
C1267 C1261 1.465 . S
C1267 C1266 1.396 . S
C1267 C1268 1.399 . S
C1268 H1254 0.929 . S
C1268 C1267 1.399 . S
C1268 C1269 1.385 . S
C1269 H1255 0.931 . S
C1269 C1268 1.385 . S
C1269 C1270 1.389 . S
C1270 C1269 1.389 . S
C1270 C1271 1.387 . S
C1271 H1256 0.930 . S
C1271 C1266 1.390 . S
C1271 C1270 1.387 . S
H1272 C1284 0.930 . S
H1273 C1286 0.930 . S
H1274 C1287 0.930 . S
H1275 C1291 0.959 . S
H1276 C1291 0.959 . S
H1277 C1291 0.961 . S
H1278 C1292 0.960 . S
H1279 C1292 0.961 . S
H1280 C1292 0.959 . S
H1281 C1295 0.929 . S
H1282 C1296 0.931 . S
H1283 C1298 0.930 . S
C1284 H1272 0.930 . S
C1284 C1285 1.399 . S
C1284 C1289 1.399 . S
C1285 C1284 1.399 . S
C1285 C1286 1.376 . S
C1286 H1273 0.930 . S
C1286 C1285 1.376 . S
C1286 C1287 1.388 . S
C1287 H1274 0.930 . S
C1287 C1286 1.388 . S
C1287 C1288 1.390 . S
C1288 C1287 1.390 . S
C1288 C1289 1.394 . S
C1288 C1294 1.465 . S
C1289 C1284 1.399 . S
C1289 C1288 1.394 . S
C1289 C1290 1.516 . S
C1290 C1289 1.516 . S
C1290 C1291 1.502 . S
C1290 C1292 1.561 . S
C1290 C1293 1.526 . S
C1291 H1275 0.959 . S
C1291 H1276 0.959 . S
C1291 H1277 0.961 . S
C1291 C1290 1.502 . S
C1292 H1278 0.960 . S
C1292 H1279 0.961 . S
C1292 H1280 0.959 . S
C1292 C1290 1.561 . S
C1293 C1290 1.526 . S
C1293 C1294 1.396 . S
C1293 C1298 1.390 . S
C1294 C1288 1.465 . S
C1294 C1293 1.396 . S
C1294 C1295 1.399 . S
C1295 H1281 0.929 . S
C1295 C1294 1.399 . S
C1295 C1296 1.385 . S
C1296 H1282 0.931 . S
C1296 C1295 1.385 . S
C1296 C1297 1.389 . S
C1297 C1296 1.389 . S
C1297 C1298 1.387 . S
C1298 H1283 0.930 . S
C1298 C1293 1.390 . S
C1298 C1297 1.387 . S
H1299 C1311 0.930 . S
H1300 C1313 0.930 . S
H1301 C1314 0.930 . S
H1302 C1318 0.959 . S
H1303 C1318 0.959 . S
H1304 C1318 0.961 . S
H1305 C1319 0.960 . S
H1306 C1319 0.961 . S
H1307 C1319 0.959 . S
H1308 C1322 0.929 . S
H1309 C1323 0.931 . S
H1310 C1325 0.930 . S
C1311 H1299 0.930 . S
C1311 C1312 1.399 . S
C1311 C1316 1.399 . S
C1312 C1311 1.399 . S
C1312 C1313 1.376 . S
C1313 H1300 0.930 . S
C1313 C1312 1.376 . S
C1313 C1314 1.388 . S
C1314 H1301 0.930 . S
C1314 C1313 1.388 . S
C1314 C1315 1.390 . S
C1315 C1314 1.390 . S
C1315 C1316 1.394 . S
C1315 C1321 1.465 . S
C1316 C1311 1.399 . S
C1316 C1315 1.394 . S
C1316 C1317 1.516 . S
C1317 C1316 1.516 . S
C1317 C1318 1.502 . S
C1317 C1319 1.561 . S
C1317 C1320 1.526 . S
C1318 H1302 0.959 . S
C1318 H1303 0.959 . S
C1318 H1304 0.961 . S
C1318 C1317 1.502 . S
C1319 H1305 0.960 . S
C1319 H1306 0.961 . S
C1319 H1307 0.959 . S
C1319 C1317 1.561 . S
C1320 C1317 1.526 . S
C1320 C1321 1.396 . S
C1320 C1325 1.390 . S
C1321 C1315 1.465 . S
C1321 C1320 1.396 . S
C1321 C1322 1.399 . S
C1322 H1308 0.929 . S
C1322 C1321 1.399 . S
C1322 C1323 1.385 . S
C1323 H1309 0.931 . S
C1323 C1322 1.385 . S
C1323 C1324 1.389 . S
C1324 C1323 1.389 . S
C1324 C1325 1.387 . S
C1325 H1310 0.930 . S
C1325 C1320 1.390 . S
C1325 C1324 1.387 . S
H1326 C1338 0.930 . S
H1327 C1340 0.930 . S
H1328 C1341 0.930 . S
H1329 C1345 0.959 . S
H1330 C1345 0.959 . S
H1331 C1345 0.961 . S
H1332 C1346 0.960 . S
H1333 C1346 0.961 . S
H1334 C1346 0.959 . S
H1335 C1349 0.929 . S
H1336 C1350 0.931 . S
H1337 C1352 0.930 . S
C1338 H1326 0.930 . S
C1338 C1339 1.399 . S
C1338 C1343 1.399 . S
C1339 C1338 1.399 . S
C1339 C1340 1.376 . S
C1340 H1327 0.930 . S
C1340 C1339 1.376 . S
C1340 C1341 1.388 . S
C1341 H1328 0.930 . S
C1341 C1340 1.388 . S
C1341 C1342 1.390 . S
C1342 C1341 1.390 . S
C1342 C1343 1.394 . S
C1342 C1348 1.465 . S
C1343 C1338 1.399 . S
C1343 C1342 1.394 . S
C1343 C1344 1.516 . S
C1344 C1343 1.516 . S
C1344 C1345 1.502 . S
C1344 C1346 1.561 . S
C1344 C1347 1.526 . S
C1345 H1329 0.959 . S
C1345 H1330 0.959 . S
C1345 H1331 0.961 . S
C1345 C1344 1.502 . S
C1346 H1332 0.960 . S
C1346 H1333 0.961 . S
C1346 H1334 0.959 . S
C1346 C1344 1.561 . S
C1347 C1344 1.526 . S
C1347 C1348 1.396 . S
C1347 C1352 1.390 . S
C1348 C1342 1.465 . S
C1348 C1347 1.396 . S
C1348 C1349 1.399 1_565 S
C1349 H1335 0.929 . S
C1349 C1348 1.399 1_545 S
C1349 C1350 1.385 . S
C1350 H1336 0.931 . S
C1350 C1349 1.385 . S
C1350 C1351 1.389 1_545 S
C1351 C1350 1.389 1_565 S
C1351 C1352 1.387 . S
C1352 H1337 0.930 . S
C1352 C1347 1.390 . S
C1352 C1351 1.387 . S
H1353 C1365 0.930 . S
H1354 C1367 0.930 . S
H1355 C1368 0.930 . S
H1356 C1372 0.959 . S
H1357 C1372 0.959 1_455 S
H1358 C1372 0.961 1_565 S
H1359 C1373 0.960 . S
H1360 C1373 0.961 . S
H1361 C1373 0.959 . S
H1362 C1376 0.929 . S
H1363 C1377 0.931 . S
H1364 C1379 0.930 . S
C1365 H1353 0.930 . S
C1365 C1366 1.399 . S
C1365 C1370 1.399 1_565 S
C1366 C1365 1.399 . S
C1366 C1367 1.376 1_565 S
C1367 H1354 0.930 . S
C1367 C1366 1.376 1_545 S
C1367 C1368 1.388 . S
C1368 H1355 0.930 . S
C1368 C1367 1.388 . S
C1368 C1369 1.390 . S
C1369 C1368 1.390 . S
C1369 C1370 1.394 . S
C1369 C1375 1.465 . S
C1370 C1365 1.399 1_545 S
C1370 C1369 1.394 . S
C1370 C1371 1.516 . S
C1371 C1370 1.516 . S
C1371 C1372 1.502 . S
C1371 C1373 1.561 . S
C1371 C1374 1.526 . S
C1372 H1356 0.959 . S
C1372 H1357 0.959 1_655 S
C1372 H1358 0.961 1_545 S
C1372 C1371 1.502 . S
C1373 H1359 0.960 . S
C1373 H1360 0.961 . S
C1373 H1361 0.959 . S
C1373 C1371 1.561 . S
C1374 C1371 1.526 . S
C1374 C1375 1.396 . S
C1374 C1379 1.390 1_655 S
C1375 C1369 1.465 . S
C1375 C1374 1.396 . S
C1375 C1376 1.399 . S
C1376 H1362 0.929 . S
C1376 C1375 1.399 . S
C1376 C1377 1.385 . S
C1377 H1363 0.931 . S
C1377 C1376 1.385 . S
C1377 C1378 1.389 1_655 S
C1378 C1377 1.389 1_455 S
C1378 C1379 1.387 . S
C1379 H1364 0.930 . S
C1379 C1374 1.390 1_455 S
C1379 C1378 1.387 . S
C421 C13 1.213 . S
C433 C382 1.238 . S
C448 C319 1.321 . S
C460 C47 1.430 . S
C475 C76 2.437 1_554 S
C487 C280 2.446 . S
C502 C115 1.632 . S
C514 C353 1.572 . S
C529 C149 1.443 . S
C541 C348 1.430 . S
C556 C183 1.265 . S
C568 C387 1.134 . S
C583 C314 1.646 1_565 S
C595 C217 1.707 . S
C610 C246 2.191 . S
C622 C285 2.110 . S
C637 C110 2.454 . S
C649 C144 2.468 . S
C664 C8 2.395 . S
C676 C178 2.344 . S
C691 C42 2.443 . S
C703 C212 2.453 . S
C718 C251 0.635 . S
C730 C81 0.412 . S
C745 C29 1.929 . S
C757 C289 1.918 . S
C772 C63 0.721 . S
C784 C344 0.645 . S
C799 C391 1.326 . S
C811 C68 1.372 . S
C826 C131 0.552 . S
C838 C310 0.663 . S
C853 C165 1.454 . S
C865 C323 1.405 . S
C880 C276 1.129 . S
C892 C199 1.140 . S
C907 C357 1.256 . S
C919 C233 1.205 . S
C934 C378 0.707 . S
C946 C238 0.746 . S
C961 C17 1.408 . S
C973 C102 1.344 . S
C988 C0 1.847 . S
C1000 C51 1.804 . S
C1015 C34 0.599 . S
C1027 C72 0.650 . S
C1042 C119 1.537 . S
C1054 C97 1.536 . S
C1069 C170 1.603 . S
C1081 C153 1.631 . S
C1096 C187 1.632 . S
C1108 C204 1.675 . S
C1123 C221 1.247 . S
C1135 C267 1.214 . S
C1150 C136 1.130 . S
C1162 C242 1.158 . S
C1177 C301 0.792 . S
C1189 C106 0.747 . S
C1204 C174 0.481 . S
C1216 C335 0.462 . S
C1231 C272 1.121 . S
C1243 C208 1.079 1_455 S
C1258 C369 0.657 . S
C1270 C255 0.663 . S
C1285 C140 1.113 . S
C1297 C374 1.113 . S
C1312 C403 0.858 . S
C1324 C38 0.864 . S
C1339 C85 1.049 . S
C1351 C306 0.958 1_565 S
C1366 C340 0.768 . S
C1378 C4 0.730 . S
