# Generated by pormake.
# Topology ecf, (8)-cn, num edge types: 1
# Building blocks:
#     Node 0, Type 0, BuildingBlock: AJUNOK_clean_sbu_0, # of connection points: 8
#     Node 1, Type 0, BuildingBlock: AJUNOK_clean_sbu_0, # of connection points: 8
#     Node 2, Type 0, BuildingBlock: AJUNOK_clean_sbu_0, # of connection points: 8
#     Node 3, Type 0, BuildingBlock: AJUNOK_clean_sbu_0, # of connection points: 8
#     Node 4, Type 0, BuildingBlock: AJUNOK_clean_sbu_0, # of connection points: 8
#     Node 5, Type 0, BuildingBlock: AJUNOK_clean_sbu_0, # of connection points: 8
#     Edge 6, Type (0, 0), BuildingBlock: ZUJKAS_clean_linker_0, # of connection points: 2
#     Edge 7, Type (0, 0), BuildingBlock: ZUJKAS_clean_linker_0, # of connection points: 2
#     Edge 8, Type (0, 0), BuildingBlock: ZUJKAS_clean_linker_0, # of connection points: 2
#     Edge 9, Type (0, 0), BuildingBlock: ZUJKAS_clean_linker_0, # of connection points: 2
#     Edge 10, Type (0, 0), BuildingBlock: ZUJKAS_clean_linker_0, # of connection points: 2
#     Edge 11, Type (0, 0), BuildingBlock: ZUJKAS_clean_linker_0, # of connection points: 2
#     Edge 12, Type (0, 0), BuildingBlock: ZUJKAS_clean_linker_0, # of connection points: 2
#     Edge 13, Type (0, 0), BuildingBlock: ZUJKAS_clean_linker_0, # of connection points: 2
#     Edge 14, Type (0, 0), BuildingBlock: ZUJKAS_clean_linker_0, # of connection points: 2
#     Edge 15, Type (0, 0), BuildingBlock: ZUJKAS_clean_linker_0, # of connection points: 2
#     Edge 16, Type (0, 0), BuildingBlock: ZUJKAS_clean_linker_0, # of connection points: 2
#     Edge 17, Type (0, 0), BuildingBlock: ZUJKAS_clean_linker_0, # of connection points: 2
#     Edge 18, Type (0, 0), BuildingBlock: ZUJKAS_clean_linker_0, # of connection points: 2
#     Edge 19, Type (0, 0), BuildingBlock: ZUJKAS_clean_linker_0, # of connection points: 2
#     Edge 20, Type (0, 0), BuildingBlock: ZUJKAS_clean_linker_0, # of connection points: 2
#     Edge 21, Type (0, 0), BuildingBlock: ZUJKAS_clean_linker_0, # of connection points: 2
#     Edge 22, Type (0, 0), BuildingBlock: ZUJKAS_clean_linker_0, # of connection points: 2
#     Edge 23, Type (0, 0), BuildingBlock: ZUJKAS_clean_linker_0, # of connection points: 2
#     Edge 24, Type (0, 0), BuildingBlock: ZUJKAS_clean_linker_0, # of connection points: 2
#     Edge 25, Type (0, 0), BuildingBlock: ZUJKAS_clean_linker_0, # of connection points: 2
#     Edge 26, Type (0, 0), BuildingBlock: ZUJKAS_clean_linker_0, # of connection points: 2
#     Edge 27, Type (0, 0), BuildingBlock: ZUJKAS_clean_linker_0, # of connection points: 2
#     Edge 28, Type (0, 0), BuildingBlock: ZUJKAS_clean_linker_0, # of connection points: 2
#     Edge 29, Type (0, 0), BuildingBlock: ZUJKAS_clean_linker_0, # of connection points: 2
# Relax obj value: 0.390
# Max RMSD: 0.282
# Mean RMSD: 0.282
data_MOF--net-ecf--node1-AJUNOK_clean_sbu_0--edge1-ZUJKAS_clean_linker_0
_symmetry_space_group_name_H-M    P1
_symmetry_Int_Tables_number       1
_symmetry_cell_setting            triclinic
loop_
_symmetry_equiv_pos_as_xyz
'x, y, z'
_cell_length_a     48.68381
_cell_length_b     48.683155
_cell_length_c     30.713713
_cell_angle_alpha  89.949576
_cell_angle_beta   89.964122
_cell_angle_gamma 119.99889
loop_
_atom_site_label
_atom_site_type_symbol
_atom_site_fract_x
_atom_site_fract_y
_atom_site_fract_z
_atom_type_partial_charge
Cd0 Cd 0.13565 0.3332 0.23406 0.0
Cd1 Cd 0.20133 0.33615 0.31091 0.0
C2 C 0.07576 0.2643 0.253 0.0
N3 N 0.10245 0.27809 0.22814 0.0
C4 C 0.0892 0.22778 0.19737 0.0
C5 C 0.06204 0.21281 0.22374 0.0
C6 C 0.05537 0.2316 0.25167 0.0
C7 C 0.1091 0.26059 0.19999 0.0
H8 H 0.0703 0.27864 0.27415 0.0
H9 H 0.12972 0.27186 0.17934 0.0
C10 C 0.20085 0.32237 0.19703 0.0
C11 C 0.24263 0.40262 0.26222 0.0
C12 C 0.26277 0.43536 0.25878 0.0
C13 C 0.26235 0.45562 0.29107 0.0
C14 C 0.24039 0.44203 0.32539 0.0
C15 C 0.22067 0.40904 0.32761 0.0
N16 N 0.22205 0.3901 0.29617 0.0
H17 H 0.24475 0.38717 0.23898 0.0
H18 H 0.20529 0.39844 0.35545 0.0
C19 C 0.19208 0.26923 0.28504 0.0
N20 N 0.17378 0.28169 0.29747 0.0
C21 C 0.12711 0.23052 0.29418 0.0
C22 C 0.14536 0.21747 0.27946 0.0
C23 C 0.17825 0.23716 0.27514 0.0
C24 C 0.14187 0.26301 0.30256 0.0
H25 H 0.21751 0.28438 0.28246 0.0
H26 H 0.12773 0.2731 0.313 0.0
C27 C 0.1258 0.3214 0.35127 0.0
C28 C 0.10274 0.35147 0.1754 0.0
N29 N 0.1644 0.38694 0.25432 0.0
C30 C 0.15452 0.3975 0.2886 0.0
C31 C 0.16605 0.42993 0.29436 0.0
C32 C 0.18736 0.45184 0.26396 0.0
C33 C 0.19725 0.44028 0.22896 0.0
C34 C 0.18523 0.40761 0.22457 0.0
C35 C 0.25273 0.34577 0.36522 0.0
O36 O 0.17563 0.32395 0.19226 0.0
O37 O 0.21361 0.32697 0.23447 0.0
O38 O 0.15375 0.32594 0.3573 0.0
O39 O 0.11669 0.32294 0.31281 0.0
O40 O 0.13014 0.35599 0.16702 0.0
O41 O 0.08945 0.33636 0.20994 0.0
O42 O 0.22604 0.33881 0.38127 0.0
O43 O 0.25476 0.34646 0.3242 0.0
H44 H 0.13645 0.38087 0.31037 0.0
H45 H 0.19166 0.39862 0.19651 0.0
H46 H 0.09501 0.21437 0.1748 0.0
H47 H 0.03493 0.22115 0.27303 0.0
H48 H 0.27982 0.44444 0.23241 0.0
H49 H 0.23909 0.45661 0.35099 0.0
H50 H 0.10171 0.21586 0.29848 0.0
H51 H 0.19321 0.22772 0.26498 0.0
H52 H 0.15698 0.43757 0.32111 0.0
H53 H 0.21365 0.45624 0.20474 0.0
Cd54 Cd 0.87418 0.20702 0.81895 0.0
Cd55 Cd 0.81266 0.13834 0.74128 0.0
C56 C 0.93562 0.20045 0.80927 0.0
N57 N 0.9036 0.18171 0.81209 0.0
C58 C 0.90792 0.13506 0.80908 0.0
C59 C 0.94099 0.15372 0.80583 0.0
C60 C 0.95488 0.18689 0.80587 0.0
C61 C 0.88957 0.1496 0.81189 0.0
H62 H 0.94615 0.22597 0.8095 0.0
H63 H 0.86422 0.13521 0.81409 0.0
C64 C 0.81466 0.13066 0.85943 0.0
C65 C 0.76736 0.15806 0.79533 0.0
C66 C 0.74646 0.16964 0.80046 0.0
C67 C 0.74457 0.18906 0.76811 0.0
C68 C 0.76446 0.19684 0.73157 0.0
C69 C 0.78526 0.185 0.72797 0.0
N70 N 0.78657 0.1662 0.75975 0.0
H71 H 0.7671 0.14151 0.81891 0.0
H72 H 0.79979 0.1901 0.69914 0.0
C73 C 0.81772 0.07732 0.76573 0.0
N74 N 0.83217 0.10334 0.73963 0.0
C75 C 0.8702 0.08898 0.71656 0.0
C76 C 0.85716 0.06351 0.74589 0.0
C77 C 0.83029 0.05733 0.77006 0.0
C78 C 0.8574 0.10899 0.71423 0.0
H79 H 0.79677 0.07239 0.78389 0.0
H80 H 0.86802 0.12927 0.6928 0.0
C81 C 0.88952 0.20315 0.70589 0.0
C82 C 0.91317 0.26101 0.87115 0.0
N83 N 0.83992 0.22548 0.80014 0.0
C84 C 0.84637 0.24364 0.76377 0.0
C85 C 0.83231 0.2623 0.75756 0.0
C86 C 0.81196 0.26293 0.78957 0.0
C87 C 0.8058 0.24395 0.82687 0.0
C88 C 0.82033 0.22554 0.83168 0.0
C89 C 0.76257 0.10484 0.68147 0.0
O90 O 0.83691 0.15913 0.86628 0.0
O91 O 0.8053 0.12156 0.82055 0.0
O92 O 0.86286 0.17774 0.70111 0.0
O93 O 0.89702 0.21675 0.74293 0.0
O94 O 0.89325 0.23482 0.88833 0.0
O95 O 0.91604 0.26136 0.83024 0.0
O96 O 0.78623 0.13158 0.67223 0.0
O97 O 0.76309 0.09247 0.71756 0.0
H98 H 0.86353 0.24481 0.74044 0.0
H99 H 0.81702 0.21229 0.8614 0.0
H100 H 0.89636 0.10952 0.81 0.0
H101 H 0.9803 0.20219 0.80289 0.0
H102 H 0.7309 0.16226 0.82854 0.0
H103 H 0.76375 0.21168 0.70582 0.0
H104 H 0.89079 0.0941 0.69711 0.0
H105 H 0.81933 0.0374 0.79233 0.0
H106 H 0.83856 0.27724 0.72893 0.0
H107 H 0.79044 0.24379 0.85248 0.0
Cd108 Cd 0.67802 0.81 0.23869 0.0
Cd109 Cd 0.67891 0.87249 0.31966 0.0
C110 C 0.74898 0.82181 0.25223 0.0
N111 N 0.73245 0.83098 0.22616 0.0
C112 C 0.77864 0.86215 0.1825 0.0
C113 C 0.79634 0.85342 0.2093 0.0
C114 C 0.7811 0.8331 0.24473 0.0
C115 C 0.74653 0.8504 0.19136 0.0
H116 H 0.73729 0.80559 0.27883 0.0
H117 H 0.73281 0.8563 0.16968 0.0
C118 C 0.69485 0.88873 0.20621 0.0
C119 C 0.61589 0.84988 0.26213 0.0
C120 C 0.58368 0.83896 0.2553 0.0
C121 C 0.56132 0.82049 0.28733 0.0
C122 C 0.57221 0.81214 0.32473 0.0
C123 C 0.60469 0.82342 0.33009 0.0
N124 N 0.62577 0.84187 0.29895 0.0
H125 H 0.633 0.86589 0.23883 0.0
H126 H 0.61329 0.81891 0.36019 0.0
C127 C 0.74848 0.93108 0.31376 0.0
N128 N 0.73396 0.89894 0.31474 0.0
C129 C 0.78402 0.90098 0.31169 0.0
C130 C 0.79972 0.93427 0.31049 0.0
C131 C 0.7814 0.94927 0.31131 0.0
C132 C 0.75095 0.88373 0.31362 0.0
H133 H 0.73438 0.94258 0.31446 0.0
H134 H 0.739 0.85828 0.31428 0.0
C135 C 0.6909 0.80971 0.35596 0.0
C136 C 0.65932 0.75654 0.18429 0.0
N137 N 0.62398 0.78613 0.25643 0.0
C138 C 0.61334 0.76704 0.29213 0.0
C139 C 0.58095 0.74607 0.29807 0.0
C140 C 0.55903 0.74419 0.26669 0.0
C141 C 0.57074 0.76448 0.23032 0.0
C142 C 0.60344 0.78491 0.22547 0.0
C143 C 0.66625 0.91249 0.37334 0.0
O144 O 0.68772 0.86017 0.19806 0.0
O145 O 0.69413 0.89699 0.24534 0.0
O146 O 0.68575 0.83242 0.36455 0.0
O147 O 0.68999 0.80103 0.3165 0.0
O148 O 0.66065 0.7816 0.16992 0.0
O149 O 0.66855 0.75721 0.22301 0.0
O150 O 0.67036 0.89095 0.38986 0.0
O151 O 0.67003 0.91647 0.33267 0.0
H152 H 0.63001 0.76679 0.31501 0.0
H153 H 0.61254 0.79917 0.19632 0.0
H154 H 0.78925 0.87725 0.15437 0.0
H155 H 0.79386 0.82604 0.26667 0.0
H156 H 0.57656 0.84578 0.22571 0.0
H157 H 0.55613 0.79857 0.35079 0.0
H158 H 0.79706 0.88835 0.31135 0.0
H159 H 0.79226 0.97481 0.3092 0.0
H160 H 0.57345 0.73036 0.32596 0.0
H161 H 0.55494 0.76421 0.20534 0.0
Cd162 Cd 0.80508 0.67114 0.81884 0.0
Cd163 Cd 0.86731 0.66991 0.73905 0.0
C164 C 0.82075 0.7406 0.79337 0.0
N165 N 0.83461 0.72671 0.81591 0.0
C166 C 0.87922 0.77754 0.83234 0.0
C167 C 0.86617 0.79226 0.80721 0.0
C168 C 0.83628 0.77337 0.78817 0.0
C169 C 0.86307 0.74457 0.83604 0.0
H170 H 0.79744 0.72623 0.77948 0.0
H171 H 0.87355 0.73366 0.85506 0.0
C172 C 0.87865 0.68055 0.85618 0.0
C173 C 0.84374 0.60274 0.78435 0.0
C174 C 0.83037 0.56989 0.78742 0.0
C175 C 0.8083 0.5501 0.75608 0.0
C176 C 0.79997 0.56423 0.72251 0.0
C177 C 0.81395 0.59729 0.72072 0.0
N178 N 0.83505 0.61574 0.75175 0.0
H179 H 0.862 0.61791 0.80703 0.0
H180 H 0.80876 0.6083 0.69381 0.0
C181 C 0.92221 0.7391 0.76583 0.0
N182 N 0.89412 0.72535 0.74413 0.0
C183 C 0.90079 0.77631 0.72727 0.0
C184 C 0.92895 0.79092 0.75146 0.0
C185 C 0.93981 0.7719 0.77051 0.0
C186 C 0.88351 0.74333 0.72433 0.0
H187 H 0.93124 0.72463 0.77918 0.0
H188 H 0.86187 0.73244 0.70589 0.0
C189 C 0.80346 0.68035 0.70145 0.0
C190 C 0.75407 0.65835 0.87583 0.0
N191 N 0.78236 0.61762 0.80136 0.0
C192 C 0.76048 0.60504 0.76897 0.0
C193 C 0.74073 0.57222 0.76569 0.0
C194 C 0.74293 0.55209 0.79663 0.0
C195 C 0.76574 0.56582 0.82976 0.0
C196 C 0.78504 0.59878 0.83177 0.0
C197 C 0.90974 0.6598 0.6871 0.0
O198 O 0.85126 0.67689 0.86385 0.0
O199 O 0.88663 0.679 0.81711 0.0
O200 O 0.82653 0.67556 0.69373 0.0
O201 O 0.79447 0.67984 0.74065 0.0
O202 O 0.77568 0.65238 0.88607 0.0
O203 O 0.75718 0.67258 0.84005 0.0
O204 O 0.88928 0.66523 0.66984 0.0
O205 O 0.91152 0.66095 0.72816 0.0
H206 H 0.75714 0.6204 0.74693 0.0
H207 H 0.80145 0.60946 0.85853 0.0
H208 H 0.90202 0.79124 0.84803 0.0
H209 H 0.82479 0.78382 0.76985 0.0
H210 H 0.8383 0.56021 0.81304 0.0
H211 H 0.78321 0.54995 0.69753 0.0
H212 H 0.89182 0.79012 0.7115 0.0
H213 H 0.96205 0.78229 0.78809 0.0
H214 H 0.72284 0.56289 0.74044 0.0
H215 H 0.76831 0.55132 0.85436 0.0
Cd216 Cd 0.1976 0.86516 0.23703 0.0
Cd217 Cd 0.13135 0.80728 0.31875 0.0
C218 C 0.19521 0.92899 0.25208 0.0
N219 N 0.17936 0.90118 0.22994 0.0
C220 C 0.14217 0.91564 0.20322 0.0
C221 C 0.15636 0.943 0.22912 0.0
C222 C 0.1838 0.95009 0.25268 0.0
C223 C 0.15396 0.89475 0.20444 0.0
H224 H 0.21643 0.93462 0.27009 0.0
H225 H 0.14242 0.87324 0.18555 0.0
C226 C 0.11712 0.80401 0.20538 0.0
C227 C 0.15423 0.76568 0.26195 0.0
C228 C 0.16619 0.74504 0.25717 0.0
C229 C 0.18627 0.74397 0.28922 0.0
C230 C 0.1948 0.765 0.32458 0.0
C231 C 0.1822 0.78518 0.32814 0.0
N232 N 0.16241 0.78531 0.297 0.0
H233 H 0.13681 0.76432 0.23909 0.0
H234 H 0.18712 0.79982 0.35679 0.0
C235 C 0.07139 0.81721 0.31076 0.0
N236 N 0.1036 0.8346 0.31195 0.0
C237 C 0.1022 0.88241 0.30067 0.0
C238 C 0.06908 0.86502 0.29776 0.0
C239 C 0.05354 0.83202 0.30365 0.0
C240 C 0.11914 0.86667 0.30746 0.0
H241 H 0.05959 0.7917 0.31408 0.0
H242 H 0.14466 0.88003 0.30818 0.0
C243 C 0.19524 0.8825 0.35217 0.0
C244 C 0.24694 0.89623 0.17487 0.0
N245 N 0.22389 0.83824 0.26057 0.0
C246 C 0.24256 0.84801 0.2967 0.0
C247 C 0.26411 0.83757 0.30466 0.0
C248 C 0.26746 0.81772 0.27447 0.0
C249 C 0.24739 0.80747 0.23794 0.0
C250 C 0.22587 0.81822 0.23149 0.0
C251 C 0.09832 0.75824 0.38064 0.0
O252 O 0.14607 0.82503 0.19815 0.0
O253 O 0.10765 0.79548 0.24433 0.0
O254 O 0.16988 0.85637 0.35979 0.0
O255 O 0.20719 0.8883 0.31395 0.0
O256 O 0.22349 0.86891 0.16772 0.0
O257 O 0.24676 0.90964 0.2101 0.0
O258 O 0.12455 0.78267 0.38927 0.0
O259 O 0.08575 0.75769 0.34433 0.0
H260 H 0.24182 0.86489 0.31864 0.0
H261 H 0.21173 0.81173 0.20214 0.0
H262 H 0.1214 0.9097 0.18379 0.0
H263 H 0.19603 0.97153 0.27193 0.0
H264 H 0.15814 0.72872 0.22999 0.0
H265 H 0.21034 0.76527 0.34998 0.0
H266 H 0.11483 0.90785 0.29713 0.0
H267 H 0.02798 0.8177 0.30117 0.0
H268 H 0.27876 0.84587 0.33354 0.0
H269 H 0.24937 0.79262 0.21336 0.0
Cd270 Cd 0.33224 0.13644 0.81102 0.0
Cd271 Cd 0.33446 0.20256 0.73426 0.0
C272 C 0.26604 0.07668 0.78399 0.0
N273 N 0.27727 0.10387 0.80752 0.0
C274 C 0.22446 0.09154 0.825 0.0
C275 C 0.21252 0.0645 0.79869 0.0
C276 C 0.23357 0.05691 0.77833 0.0
C277 C 0.25722 0.11124 0.82869 0.0
H278 H 0.28228 0.07038 0.76924 0.0
H279 H 0.26644 0.13243 0.84816 0.0
C280 C 0.31873 0.19983 0.84852 0.0
C281 C 0.3973 0.24143 0.79433 0.0
C282 C 0.42978 0.26103 0.80151 0.0
C283 C 0.4518 0.26221 0.77079 0.0
C284 C 0.44014 0.24242 0.73407 0.0
C285 C 0.40743 0.22336 0.728 0.0
N286 N 0.38673 0.22298 0.75808 0.0
H287 H 0.38076 0.24261 0.81649 0.0
H288 H 0.39845 0.20969 0.69841 0.0
C289 C 0.26694 0.19678 0.74666 0.0
N290 N 0.27932 0.17773 0.73825 0.0
C291 C 0.2274 0.13241 0.73356 0.0
C292 C 0.21399 0.15146 0.74233 0.0
C293 C 0.23419 0.18408 0.74903 0.0
C294 C 0.26027 0.14604 0.73195 0.0
H295 H 0.28257 0.22189 0.75181 0.0
H296 H 0.27034 0.13115 0.7258 0.0
C297 C 0.32008 0.1276 0.69382 0.0
C298 C 0.34453 0.09586 0.86393 0.0
N299 N 0.38648 0.16572 0.795 0.0
C300 C 0.39723 0.15792 0.75883 0.0
C301 C 0.42943 0.16821 0.75389 0.0
C302 C 0.45087 0.18582 0.78713 0.0
C303 C 0.43924 0.1941 0.8238 0.0
C304 C 0.40674 0.18346 0.82727 0.0
C305 C 0.35249 0.25453 0.67647 0.0
O306 O 0.32228 0.17573 0.85426 0.0
O307 O 0.32206 0.21177 0.81058 0.0
O308 O 0.32367 0.15512 0.68748 0.0
O309 O 0.32257 0.11919 0.73222 0.0
O310 O 0.34227 0.11847 0.88063 0.0
O311 O 0.33942 0.09141 0.8235 0.0
O312 O 0.35524 0.23085 0.66642 0.0
O313 O 0.33924 0.2533 0.71247 0.0
H314 H 0.3808 0.14257 0.73449 0.0
H315 H 0.39743 0.18794 0.85672 0.0
H316 H 0.20867 0.09781 0.84143 0.0
H317 H 0.22495 0.03578 0.75852 0.0
H318 H 0.43734 0.27647 0.82963 0.0
H319 H 0.45604 0.24219 0.70961 0.0
H320 H 0.21264 0.1073 0.72759 0.0
H321 H 0.22482 0.19957 0.75644 0.0
H322 H 0.43726 0.1615 0.72486 0.0
H323 H 0.45472 0.20714 0.8506 0.0
H324 H 0.20285 0.48892 0.33723 0.0
H325 H 0.21085 0.54263 0.34312 0.0
H326 H 0.20179 0.54609 0.20395 0.0
H327 H 0.19317 0.49225 0.19774 0.0
H328 H 0.2524 0.60527 0.2465 0.0
H329 H 0.13247 0.5552 0.32081 0.0
H330 H 0.15872 0.54376 0.34558 0.0
H331 H 0.14467 0.53108 0.29118 0.0
C332 C 0.20272 0.50115 0.30783 0.0
C333 C 0.19693 0.48605 0.26707 0.0
C334 C 0.20743 0.53189 0.31125 0.0
C335 C 0.20652 0.54815 0.27402 0.0
C336 C 0.2026 0.53393 0.23307 0.0
H337 H 0.20198 0.72061 0.21762 0.0
H338 H 0.21031 0.6751 0.2148 0.0
C339 C 0.19779 0.50316 0.2296 0.0
C340 C 0.20701 0.57879 0.27806 0.0
H341 H 0.16252 0.61062 0.31376 0.0
C342 C 0.23284 0.60656 0.2613 0.0
C343 C 0.18141 0.58032 0.29729 0.0
C344 C 0.15258 0.55104 0.31451 0.0
C345 C 0.23388 0.63596 0.26376 0.0
C346 C 0.20806 0.6374 0.28258 0.0
C347 C 0.18236 0.60958 0.29949 0.0
C348 C 0.20655 0.66717 0.28445 0.0
C349 C 0.26282 0.66526 0.24688 0.0
C350 C 0.2015 0.67788 0.32444 0.0
C351 C 0.19617 0.70354 0.32609 0.0
C352 C 0.19567 0.71912 0.2877 0.0
C353 C 0.20179 0.70898 0.24777 0.0
C354 C 0.20704 0.68322 0.24616 0.0
H355 H 0.28383 0.66201 0.24575 0.0
H356 H 0.25814 0.67023 0.21327 0.0
H357 H 0.26857 0.68623 0.26739 0.0
H358 H 0.20079 0.66577 0.3544 0.0
H359 H 0.19103 0.71019 0.35738 0.0
H360 H 0.50515 0.23971 0.8138 0.0
H361 H 0.55964 0.24927 0.81344 0.0
H362 H 0.52667 0.15719 0.75617 0.0
H363 H 0.47246 0.14722 0.7573 0.0
H364 H 0.56493 0.16925 0.83016 0.0
H365 H 0.62085 0.26741 0.70918 0.0
H366 H 0.59912 0.27207 0.75317 0.0
H367 H 0.57837 0.24187 0.71315 0.0
C368 C 0.50955 0.22163 0.80088 0.0
C369 C 0.48437 0.19287 0.7851 0.0
C370 C 0.54074 0.22721 0.80043 0.0
C371 C 0.54724 0.20405 0.78433 0.0
C372 C 0.52222 0.17547 0.76844 0.0
H373 H 0.70623 0.18935 0.70339 0.0
H374 H 0.66155 0.19865 0.71049 0.0
C375 C 0.49121 0.16994 0.76877 0.0
C376 C 0.57964 0.2084 0.78585 0.0
H377 H 0.6534 0.24945 0.74003 0.0
C378 C 0.5844 0.187 0.81084 0.0
C379 C 0.60487 0.23145 0.76035 0.0
C380 C 0.60072 0.25445 0.73211 0.0
C381 C 0.61341 0.18739 0.81015 0.0
C382 C 0.63861 0.21024 0.78433 0.0
C383 C 0.63413 0.23216 0.76007 0.0
C384 C 0.66861 0.20964 0.77921 0.0
C385 C 0.6163 0.16235 0.83545 0.0
C386 C 0.68817 0.21393 0.81515 0.0
C387 C 0.71374 0.20855 0.81122 0.0
C388 C 0.72034 0.19904 0.77117 0.0
C389 C 0.70192 0.19679 0.73463 0.0
C390 C 0.67631 0.20204 0.73865 0.0
H391 H 0.59287 0.14284 0.8465 0.0
H392 H 0.62789 0.15202 0.81543 0.0
H393 H 0.63118 0.17331 0.8647 0.0
H394 H 0.68301 0.2204 0.84657 0.0
H395 H 0.72788 0.2111 0.83975 0.0
H396 H 0.28692 0.49605 0.22096 0.0
H397 H 0.33377 0.54914 0.22 0.0
H398 H 0.33961 0.54692 0.35988 0.0
H399 H 0.29397 0.49332 0.36103 0.0
H400 H 0.35142 0.60744 0.25704 0.0
H401 H 0.42477 0.5589 0.32263 0.0
H402 H 0.3847 0.53377 0.30388 0.0
H403 H 0.39199 0.55171 0.35694 0.0
C404 C 0.29814 0.50684 0.25156 0.0
C405 C 0.28695 0.49 0.29098 0.0
C406 C 0.32479 0.53733 0.25098 0.0
C407 C 0.34075 0.5517 0.28976 0.0
C408 C 0.32819 0.536 0.32942 0.0
H409 H 0.52275 0.72148 0.34107 0.0
H410 H 0.46852 0.67711 0.34748 0.0
C411 C 0.30173 0.50542 0.33004 0.0
C412 C 0.37158 0.58201 0.28844 0.0
H413 H 0.45013 0.61444 0.31375 0.0
C414 C 0.37299 0.60899 0.26949 0.0
C415 C 0.39984 0.58401 0.3044 0.0
C416 C 0.40044 0.55552 0.32272 0.0
C417 C 0.40182 0.63791 0.26648 0.0
C418 C 0.42992 0.63979 0.28254 0.0
C419 C 0.42847 0.61297 0.30179 0.0
C420 C 0.46147 0.66887 0.27819 0.0
C421 C 0.40206 0.66633 0.24648 0.0
C422 C 0.47548 0.6791 0.23706 0.0
C423 C 0.50672 0.70416 0.23323 0.0
C424 C 0.52469 0.71962 0.27051 0.0
C425 C 0.51006 0.70985 0.31163 0.0
C426 C 0.47889 0.68466 0.3154 0.0
H427 H 0.37783 0.66309 0.24443 0.0
H428 H 0.41737 0.68809 0.2656 0.0
H429 H 0.41193 0.67001 0.21303 0.0
H430 H 0.46268 0.66684 0.20795 0.0
H431 H 0.51715 0.7104 0.20105 0.0
H432 H 0.78933 0.27733 0.71632 0.0
H433 H 0.77739 0.32032 0.7074 0.0
H434 H 0.79419 0.34188 0.84415 0.0
H435 H 0.80682 0.29951 0.85329 0.0
H436 H 0.73833 0.34468 0.80115 0.0
H437 H 0.85622 0.41414 0.72059 0.0
H438 H 0.83023 0.37461 0.70087 0.0
H439 H 0.84642 0.38023 0.75471 0.0
C440 C 0.79023 0.29105 0.74459 0.0
C441 C 0.79954 0.28527 0.78539 0.0
C442 C 0.78319 0.31544 0.73947 0.0
C443 C 0.78519 0.33441 0.77505 0.0
C444 C 0.79242 0.32742 0.81632 0.0
H445 H 0.78983 0.51032 0.82685 0.0
H446 H 0.77897 0.45559 0.82904 0.0
C447 C 0.79956 0.3031 0.82147 0.0
C448 C 0.78333 0.36362 0.76848 0.0
H449 H 0.82596 0.43901 0.72874 0.0
C450 C 0.75732 0.36529 0.78508 0.0
C451 C 0.80816 0.39039 0.74749 0.0
C452 C 0.837 0.39008 0.73004 0.0
C453 C 0.75555 0.3932 0.78117 0.0
C454 C 0.78083 0.42027 0.76111 0.0
C455 C 0.80652 0.41826 0.74395 0.0
C456 C 0.78233 0.45154 0.75928 0.0
C457 C 0.72654 0.39334 0.79818 0.0
C458 C 0.78766 0.46756 0.71938 0.0
C459 C 0.79443 0.49906 0.71813 0.0
C460 C 0.79619 0.5153 0.75682 0.0
C461 C 0.78913 0.49866 0.79653 0.0
C462 C 0.78245 0.46717 0.79776 0.0
H463 H 0.70562 0.369 0.7991 0.0
H464 H 0.73114 0.40272 0.83191 0.0
H465 H 0.72066 0.4086 0.77792 0.0
H466 H 0.78784 0.45607 0.68928 0.0
H467 H 0.8 0.51117 0.68702 0.0
H468 H 0.32784 0.85683 0.30374 0.0
H469 H 0.37178 0.84645 0.30699 0.0
H470 H 0.31147 0.75213 0.2572 0.0
H471 H 0.26681 0.76208 0.25462 0.0
H472 H 0.37715 0.79659 0.3511 0.0
H473 H 0.3882 0.79486 0.17067 0.0
H474 H 0.36625 0.81113 0.19679 0.0
H475 H 0.34992 0.76898 0.19438 0.0
C476 C 0.32353 0.83358 0.29433 0.0
C477 C 0.29357 0.81026 0.27903 0.0
C478 C 0.34884 0.82777 0.29596 0.0
C479 C 0.345 0.79865 0.282 0.0
C480 C 0.31505 0.77494 0.26761 0.0
H481 H 0.50735 0.7662 0.31421 0.0
H482 H 0.45245 0.7552 0.31194 0.0
C483 C 0.28956 0.7807 0.26611 0.0
C484 C 0.37295 0.79407 0.28131 0.0
H485 H 0.42722 0.79228 0.21249 0.0
C486 C 0.38784 0.79506 0.32088 0.0
C487 C 0.38693 0.79237 0.24176 0.0
C488 C 0.37225 0.79194 0.19834 0.0
C489 C 0.41691 0.79547 0.3219 0.0
C490 C 0.43137 0.79471 0.28229 0.0
C491 C 0.41595 0.79265 0.24279 0.0
C492 C 0.46404 0.79968 0.28105 0.0
C493 C 0.43281 0.79839 0.36517 0.0
C494 C 0.48863 0.82792 0.26355 0.0
C495 C 0.51995 0.83428 0.26484 0.0
C496 C 0.52748 0.81239 0.2834 0.0
C497 C 0.50257 0.78368 0.29995 0.0
C498 C 0.47114 0.77734 0.29869 0.0
H499 H 0.42058 0.80305 0.39229 0.0
H500 H 0.43273 0.776 0.37231 0.0
H501 H 0.4579 0.81784 0.36406 0.0
H502 H 0.48369 0.84556 0.25 0.0
H503 H 0.53836 0.85694 0.2526 0.0
H504 H 0.49466 0.29569 0.70599 0.0
H505 H 0.5492 0.33871 0.71396 0.0
H506 H 0.54165 0.32729 0.85335 0.0
H507 H 0.48728 0.28333 0.84586 0.0
H508 H 0.55949 0.38974 0.82015 0.0
H509 H 0.63408 0.34337 0.75229 0.0
H510 H 0.60047 0.33623 0.71964 0.0
H511 H 0.59421 0.31793 0.77225 0.0
C512 C 0.50475 0.30148 0.73836 0.0
C513 C 0.48626 0.28594 0.77531 0.0
C514 C 0.53603 0.32623 0.7428 0.0
C515 C 0.54952 0.33604 0.7842 0.0
C516 C 0.53166 0.32001 0.82107 0.0
H517 H 0.71408 0.51319 0.86663 0.0
H518 H 0.67036 0.45853 0.86572 0.0
C519 C 0.50044 0.2951 0.81669 0.0
C520 C 0.58074 0.36531 0.7891 0.0
H521 H 0.65941 0.3993 0.76347 0.0
C522 C 0.58142 0.39176 0.80827 0.0
C523 C 0.60917 0.36788 0.77313 0.0
C524 C 0.6097 0.33981 0.75342 0.0
C525 C 0.60962 0.42106 0.81076 0.0
C526 C 0.63815 0.42376 0.79467 0.0
C527 C 0.63757 0.39716 0.77595 0.0
C528 C 0.66835 0.45452 0.79552 0.0
C529 C 0.60829 0.44916 0.82906 0.0
C530 C 0.68312 0.46969 0.75644 0.0
C531 C 0.70858 0.50086 0.75684 0.0
C532 C 0.71967 0.51744 0.79635 0.0
C533 C 0.70626 0.50126 0.83557 0.0
C534 C 0.68099 0.47006 0.83514 0.0
H535 H 0.58367 0.44499 0.82986 0.0
H536 H 0.61741 0.45355 0.86292 0.0
H537 H 0.6232 0.47088 0.80959 0.0
H538 H 0.67398 0.45798 0.72551 0.0
H539 H 0.71889 0.51233 0.72611 0.0
H540 H 0.10397 0.16773 0.3301 0.0
H541 H 0.08851 0.11181 0.32024 0.0
H542 H 0.13802 0.13461 0.19742 0.0
H543 H 0.15409 0.19051 0.20738 0.0
H544 H 0.06551 0.06293 0.22813 0.0
H545 H 0.1832 0.11035 0.30928 0.0
H546 H 0.15766 0.1265 0.32016 0.0
H547 H 0.17838 0.1347 0.26929 0.0
C548 C 0.11069 0.16058 0.30041 0.0
C549 C 0.13075 0.18334 0.26989 0.0
C550 C 0.10158 0.12868 0.29464 0.0
C551 C 0.11199 0.11929 0.258 0.0
C552 C 0.12956 0.14153 0.22566 0.0
H553 H 0.13323 0.9657 0.16562 0.0
H554 H 0.11389 0.00318 0.17528 0.0
C555 C 0.13909 0.17341 0.23169 0.0
C556 C 0.11149 0.08887 0.25822 0.0
H557 H 0.15975 0.05897 0.28118 0.0
C558 C 0.08582 0.06172 0.24013 0.0
C559 C 0.13799 0.08762 0.2743 0.0
C560 C 0.16592 0.11622 0.29456 0.0
C561 C 0.0865 0.03322 0.23675 0.0
C562 C 0.11374 0.0325 0.25113 0.0
C563 C 0.13885 0.05955 0.27027 0.0
C564 C 0.11806 0.00475 0.24556 0.0
C565 C 0.05826 0.00429 0.21794 0.0
C566 C 0.12653 0.99309 0.28178 0.0
C567 C 0.13848 0.97269 0.27623 0.0
C568 C 0.14166 0.96303 0.23435 0.0
C569 C 0.13113 0.97293 0.19821 0.0
C570 C 0.11968 0.99396 0.20375 0.0
H571 H 0.03622 0.0056 0.22142 0.0
H572 H 0.06236 1.00273 0.18272 0.0
H573 H 0.0547 0.98229 0.23394 0.0
H574 H 0.12552 1.00118 0.31429 0.0
H575 H 0.14587 0.96498 0.30477 0.0
H576 H 0.93006 0.10271 0.75629 0.0
H577 H 0.96349 0.07874 0.74858 0.0
H578 H 0.03206 0.14943 0.83548 0.0
H579 H 0.99738 0.17145 0.84613 0.0
H580 H 0.01739 0.10365 0.71255 0.0
H581 H 0.03647 0.07521 0.8781 0.0
H582 H 0.00479 0.08306 0.86561 0.0
H583 H 0.04391 0.11508 0.87934 0.0
C584 C 0.95162 0.11222 0.77508 0.0
C585 C 0.96086 0.13866 0.80219 0.0
C586 C 0.97088 0.09872 0.77036 0.0
C587 C 1.00004 0.11178 0.79219 0.0
C588 C 0.00919 0.1381 0.8195 0.0
H589 H 0.17848 0.17524 0.70817 0.0
H590 H 0.12171 0.15424 0.71643 0.0
C591 C 0.98965 0.15118 0.82484 0.0
C592 C 0.02316 0.10137 0.78195 0.0
H593 H 0.08398 0.09697 0.82948 0.0
C594 C 0.03133 0.10116 0.73814 0.0
C595 C 0.04065 0.09661 0.81488 0.0
C596 C 0.03062 0.09209 0.86202 0.0
C597 C 0.05893 0.10061 0.72689 0.0
C598 C 0.07936 0.1016 0.76032 0.0
C599 C 0.06896 0.09742 0.80374 0.0
C600 C 0.11312 0.11206 0.75177 0.0
C601 C 0.0666 0.10051 0.67933 0.0
C602 C 0.12751 0.09601 0.77018 0.0
C603 C 0.16027 0.10872 0.76679 0.0
C604 C 0.17914 0.13742 0.7446 0.0
C605 C 0.16459 0.15312 0.72559 0.0
C606 C 0.13199 0.14074 0.72953 0.0
H607 H 0.04458 0.0859 0.66034 0.0
H608 H 0.07776 0.12506 0.66637 0.0
H609 H 0.08297 0.09113 0.67407 0.0
H610 H 0.11357 0.07415 0.78816 0.0
H611 H 0.17102 0.09673 0.78287 0.0
H612 H 0.99737 0.17894 0.22992 0.0
H613 H 0.96373 0.12176 0.23807 0.0
H614 H 0.04518 0.1097 0.22367 0.0
H615 H 0.07919 0.16721 0.21555 0.0
H616 H 0.95704 0.06982 0.18007 0.0
H617 H 1.0036 0.07012 0.3461 0.0
H618 H 0.01005 0.1065 0.32119 0.0
H619 H 0.03044 0.0871 0.30074 0.0
C620 C 0.00825 0.16425 0.22857 0.0
C621 C 0.04119 0.17779 0.22341 0.0
C622 C 0.98894 0.13155 0.23283 0.0
C623 C 1.00211 0.11169 0.23203 0.0
C624 C 0.0347 0.12476 0.22486 0.0
H625 H 0.83932 0.92001 0.2645 0.0
H626 H 0.89532 0.95601 0.24709 0.0
C627 C 0.05406 0.1576 0.22024 0.0
C628 C 0.98125 0.07764 0.24122 0.0
H629 H 0.95405 0.02671 0.32752 0.0
C630 C 0.95682 0.05977 0.2117 0.0
C631 C 0.98139 0.06481 0.28244 0.0
C632 C 0.00768 0.08297 0.31472 0.0
C633 C 0.93075 0.03063 0.22391 0.0
C634 C 0.92934 0.01926 0.26677 0.0
C635 C 0.95527 0.03566 0.2948 0.0
C636 C 0.89885 0.99474 0.28534 0.0
C637 C 0.90356 0.01379 0.19236 0.0
C638 C 0.88324 0.00406 0.3151 0.0
C639 C 0.85154 0.98357 0.3256 0.0
C640 C 0.83476 0.95347 0.30614 0.0
C641 C 0.85139 0.94317 0.2795 0.0
C642 C 0.88328 0.96367 0.26931 0.0
H643 H 0.90752 0.02723 0.16154 0.0
H644 H 0.90047 0.99019 0.1843 0.0
H645 H 0.88115 0.00998 0.20735 0.0
H646 H 0.89501 0.02793 0.32817 0.0
H647 H 0.83983 0.99188 0.34752 0.0
H648 H 0.86732 0.02799 0.68666 0.0
H649 H 0.88694 0.99128 0.70158 0.0
H650 H 0.90376 0.02217 0.83555 0.0
H651 H 0.88116 0.05618 0.82168 0.0
H652 H 0.93817 0.99175 0.73033 0.0
H653 H 0.84199 0.93137 0.85282 0.0
H654 H 0.8448 0.96255 0.8184 0.0
H655 H 0.86937 0.97186 0.86616 0.0
C656 C 0.87528 0.02681 0.71918 0.0
C657 C 0.87227 0.04426 0.75323 0.0
C658 C 0.88672 0.00615 0.72765 0.0
C659 C 0.89596 0.00335 0.77002 0.0
C660 C 0.89564 0.02306 0.80305 0.0
H661 H 0.89971 0.83827 0.86775 0.0
H662 H 0.92021 0.89522 0.85999 0.0
C663 C 0.88295 0.04262 0.79505 0.0
C664 C 0.90252 0.97752 0.78041 0.0
H665 H 0.87514 0.91045 0.84162 0.0
C666 C 0.92464 0.97412 0.75499 0.0
C667 C 0.88472 0.95442 0.81249 0.0
C668 C 0.8587 0.95499 0.83871 0.0
C669 C 0.92843 0.94752 0.75945 0.0
C670 C 0.91016 0.92424 0.79093 0.0
C671 C 0.88954 0.92866 0.81806 0.0
C672 C 0.90732 0.89262 0.79207 0.0
C673 C 0.95101 0.9443 0.72912 0.0
C674 C 0.89431 0.87255 0.75606 0.0
C675 C 0.88234 0.84006 0.7605 0.0
C676 C 0.8832 0.82707 0.80104 0.0
C677 C 0.89863 0.84754 0.83614 0.0
C678 C 0.91048 0.88009 0.83172 0.0
H679 H 0.94023 0.93784 0.69621 0.0
H680 H 0.97345 0.96734 0.72613 0.0
H681 H 0.95666 0.92601 0.73991 0.0
H682 H 0.89118 0.88163 0.72537 0.0
H683 H 0.87116 0.82496 0.73261 0.0
H684 H 0.84212 0.91281 0.18194 0.0
H685 H 0.89948 0.93332 0.17759 0.0
H686 H 0.88473 0.84122 0.21308 0.0
H687 H 0.82775 0.82035 0.21633 0.0
H688 H 0.93249 0.92983 0.2564 0.0
H689 H 0.95216 0.87304 0.11329 0.0
H690 H 0.91879 0.87958 0.1176 0.0
H691 H 0.91761 0.84591 0.14378 0.0
C692 C 0.85103 0.89674 0.18778 0.0
C693 C 0.83043 0.86512 0.20063 0.0
C694 C 0.88378 0.90856 0.18545 0.0
C695 C 0.89619 0.88881 0.19525 0.0
C696 C 0.87553 0.85681 0.20519 0.0
H697 H 0.01523 0.85832 0.33543 0.0
H698 H 0.98119 0.87797 0.30743 0.0
C699 C 0.84299 0.84504 0.20767 0.0
C700 C 0.93055 0.90168 0.20108 0.0
H701 H 0.98706 0.88278 0.17531 0.0
C702 C 0.94502 0.92055 0.23783 0.0
C703 C 0.94701 0.89006 0.1764 0.0
C704 C 0.93321 0.87128 0.13527 0.0
C705 C 0.97392 0.92474 0.25354 0.0
C706 C 0.98826 0.90949 0.23199 0.0
C707 C 0.97576 0.89407 0.19223 0.0
C708 C 0.01216 0.90393 0.25358 0.0
C709 C 0.98769 0.94358 0.29462 0.0
C710 C 0.04092 0.91223 0.23281 0.0
C711 C 0.06021 0.90083 0.24868 0.0
C712 C 0.05095 0.88076 0.28523 0.0
C713 C 0.02287 0.87369 0.30713 0.0
C714 C 1.00366 0.88524 0.29146 0.0
H715 H 0.98178 0.9628 0.29752 0.0
H716 H 0.97731 0.92766 0.32317 0.0
H717 H 0.01386 0.9542 0.29569 0.0
H718 H 0.04766 0.92621 0.20319 0.0
H719 H 0.08136 0.9061 0.23081 0.0
H720 H 0.16704 0.03263 0.85973 0.0
H721 H 0.11084 0.99464 0.84664 0.0
H722 H 0.12462 0.01628 0.70923 0.0
H723 H 0.18126 0.05149 0.72181 0.0
H724 H 0.06032 0.99272 0.81529 0.0
H725 H 0.09461 0.92493 0.70408 0.0
H726 H 0.12343 0.95825 0.735 0.0
H727 H 0.10774 0.96434 0.68505 0.0
C728 C 0.15788 0.02911 0.82682 0.0
C729 C 0.17826 0.04435 0.79166 0.0
C730 C 0.12583 0.0077 0.81936 0.0
C731 C 0.11372 1.00194 0.77674 0.0
C732 C 0.13368 0.01939 0.74212 0.0
H733 H 0.94197 0.83575 0.68882 0.0
H734 H 0.97989 0.89255 0.69377 0.0
C735 C 0.16592 0.03966 0.74933 0.0
C736 C 0.08119 0.97558 0.76835 0.0
H737 H 0.04052 0.90553 0.71389 0.0
C738 C 0.05593 0.97376 0.79284 0.0
C739 C 0.07549 0.95069 0.73928 0.0
C740 C 0.10177 0.94942 0.71473 0.0
C741 C 0.02539 0.94717 0.79028 0.0
C742 C 0.0199 0.92234 0.76141 0.0
C743 C 0.04472 0.92497 0.73532 0.0
C744 C 0.99057 0.89118 0.76184 0.0
C745 C 0.99996 0.94578 0.81976 0.0
C746 C 0.98335 0.87193 0.79886 0.0
C747 C 0.96203 0.83949 0.796 0.0
C748 C 0.94753 0.82582 0.75609 0.0
C749 C 0.95281 0.84559 0.71998 0.0
C750 C 0.97433 0.87804 0.72279 0.0
H751 H 1.0001 0.96866 0.81858 0.0
H752 H 0.97594 0.92639 0.81129 0.0
H753 H 0.00518 0.94226 0.85383 0.0
H754 H 0.99596 0.88154 0.82912 0.0
H755 H 0.95795 0.8249 0.82459 0.0
H756 H 0.26022 0.32859 0.18868 0.0
H757 H 0.28075 0.30985 0.12997 0.0
H758 H 0.19101 0.27118 0.06356 0.0
H759 H 0.17125 0.29171 0.12074 0.0
H760 H 0.2699 0.25745 0.10124 0.0
H761 H 0.24291 0.31068 0.96106 0.0
H762 H 0.23842 0.32023 1.01626 0.0
H763 H 0.20742 0.285 0.99051 0.0
C764 C 0.24498 0.3166 0.16119 0.0
C765 C 0.21407 0.31225 0.15961 0.0
C766 C 0.25675 0.3056 0.12743 0.0
C767 C 0.23799 0.2894 0.09094 0.0
C768 C 0.20686 0.28456 0.08983 0.0
H769 H 0.28823 0.17063 0.92522 0.0
H770 H 0.26861 0.19118 0.98277 0.0
C771 C 0.19532 0.29618 0.12311 0.0
C772 C 0.25065 0.27679 0.05531 0.0
H773 H 0.25556 0.27045 0.94443 0.0
C774 C 0.26686 0.26062 0.06699 0.0
C775 C 0.24761 0.28099 1.01002 0.0
C776 C 0.23347 0.30047 0.99373 0.0
C777 C 0.27953 0.24856 0.03561 0.0
C778 C 0.27494 0.25122 0.99035 0.0
C779 C 0.25902 0.26769 0.97867 0.0
C780 C 0.28697 0.23802 0.95468 0.0
C781 C 0.29879 0.23414 0.0518 0.0
C782 C 0.30293 0.25644 0.91774 0.0
C783 C 0.31341 0.24424 0.88391 0.0
C784 C 0.30878 0.21325 0.88583 0.0
C785 C 0.29293 0.19479 0.92272 0.0
C786 C 0.28183 0.20677 0.95613 0.0
H787 H 0.30932 0.24373 0.08423 0.0
H788 H 0.28308 0.20815 0.05548 0.0
H789 H 0.31828 0.23867 0.02895 0.0
H790 H 0.30741 0.28051 0.91493 0.0
H791 H 0.3253 0.25927 0.85613 0.0
H792 H 0.9411 0.2634 0.69518 0.0
H793 H 0.97958 0.28409 0.63538 0.0
H794 H 0.93165 0.1924 0.57353 0.0
H795 H 0.8921 0.17235 0.63178 0.0
H796 H 0.02262 0.27568 0.60642 0.0
H797 H 0.93939 0.24049 0.46863 0.0
H798 H 0.92612 0.23676 0.52416 0.0
H799 H 0.93203 0.20637 0.49975 0.0
C800 C 0.93842 0.24771 0.66852 0.0
C801 C 0.91292 0.21618 0.66846 0.0
C802 C 0.96071 0.25959 0.6341 0.0
C803 C 0.95871 0.24035 0.59845 0.0
C804 C 0.93358 0.20857 0.59903 0.0
H805 H 0.12691 0.29419 0.42971 0.0
H806 H 0.08747 0.27467 0.48813 0.0
C807 C 0.91089 0.19689 0.63293 0.0
C808 C 0.98333 0.25323 0.56192 0.0
H809 H 0.99278 0.25542 0.45075 0.0
C810 C 0.01585 0.27133 0.57242 0.0
C811 C 0.97532 0.24853 0.51689 0.0
C812 C 0.94132 0.2323 0.50167 0.0
C813 C 0.03999 0.28421 0.54016 0.0
C814 C 0.03207 0.27792 0.49524 0.0
C815 C 0.99953 0.26019 0.48472 0.0
C816 C 0.05675 0.28984 0.45878 0.0
C817 C 0.07369 0.30549 0.55504 0.0
C818 C 0.0528 0.30387 0.42076 0.0
C819 C 0.07511 0.31427 0.38637 0.0
C820 C 0.10256 0.31148 0.38881 0.0
C821 C 0.10658 0.29749 0.42672 0.0
C822 C 0.08391 0.28645 0.46066 0.0
H823 H 0.07448 0.31686 0.58672 0.0
H824 H 0.08532 0.29108 0.55979 0.0
H825 H 0.08754 0.32446 0.53092 0.0
H826 H 0.03233 0.30693 0.41755 0.0
H827 H 0.07086 0.32466 0.3578 0.0
H828 H 0.72247 0.95373 0.21346 0.0
H829 H 0.74186 0.99395 0.15578 0.0
H830 H 0.71218 0.92067 0.05892 0.0
H831 H 0.69297 0.88019 0.11659 0.0
H832 H 0.78898 0.00692 0.0886 0.0
H833 H 0.6721 0.97414 1.01632 0.0
H834 H 0.67597 0.9617 0.0703 0.0
H835 H 0.68023 0.94221 0.02333 0.0
C836 C 0.71977 0.94596 0.17992 0.0
C837 C 0.70572 0.91331 0.17016 0.0
C838 C 0.73108 0.96919 0.14675 0.0
C839 C 0.72835 0.96073 0.10247 0.0
C840 C 0.7143 0.92815 0.09253 0.0
H841 H 0.77236 0.06628 0.85493 0.0
H842 H 0.75313 0.02678 0.91306 0.0
C843 C 0.70332 0.90487 0.12576 0.0
C844 C 0.74064 0.98593 0.06708 0.0
H845 H 0.71737 0.01365 0.97989 0.0
C846 C 0.77325 0.0084 0.06493 0.0
C847 C 0.72048 0.98814 0.03565 0.0
C848 C 0.68519 0.96548 0.03644 0.0
C849 C 0.78618 0.03218 0.03216 0.0
C850 C 0.76595 0.03478 1.00096 0.0
C851 C 0.73326 0.01224 1.00333 0.0
C852 C 0.77806 0.05992 0.96515 0.0
C853 C 0.82171 0.05344 0.03055 0.0
C854 C 0.79835 0.09251 0.97393 0.0
C855 C 0.80993 0.11541 0.94016 0.0
C856 C 0.80115 0.10673 0.89635 0.0
C857 C 0.78003 0.07428 0.88787 0.0
C858 C 0.76881 0.05141 0.92148 0.0
H859 H 0.83409 0.04217 0.04648 0.0
H860 H 0.83038 0.05946 0.99651 0.0
H861 H 0.82834 0.07573 0.04833 0.0
H862 H 0.80524 0.10045 1.00708 0.0
H863 H 0.82585 0.14 0.94848 0.0
H864 H 0.76323 0.70485 0.70762 0.0
H865 H 0.74365 0.72516 0.64956 0.0
H866 H 0.79229 0.70025 0.55415 0.0
H867 H 0.81232 0.68017 0.61219 0.0
H868 H 0.78018 0.77497 0.58711 0.0
H869 H 0.7011 0.66122 0.50359 0.0
H870 H 0.71494 0.66287 0.55861 0.0
H871 H 0.74095 0.66955 0.51339 0.0
C872 C 0.76958 0.70328 0.6743 0.0
C873 C 0.78933 0.69044 0.66507 0.0
C874 C 0.75839 0.71514 0.64092 0.0
C875 C 0.76605 0.71415 0.59693 0.0
C876 C 0.78546 0.70102 0.58748 0.0
H877 H 0.71499 0.76913 0.34863 0.0
H878 H 0.73324 0.74726 0.4062 0.0
C879 C 0.79702 0.68951 0.62094 0.0
C880 C 0.75451 0.72765 0.56141 0.0
H881 H 0.70798 0.70783 0.4698 0.0
C882 C 0.76429 0.7602 0.56157 0.0
C883 C 0.73395 0.70877 0.5275 0.0
C884 C 0.72183 0.67361 0.52565 0.0
C885 C 0.75478 0.77433 0.52885 0.0
C886 C 0.73368 0.75536 0.49521 0.0
C887 C 0.72395 0.72274 0.49515 0.0
C888 C 0.72184 0.76879 0.45968 0.0
C889 C 0.76862 0.80981 0.53 0.0
C890 C 0.70848 0.788 0.46945 0.0
C891 C 0.69831 0.80098 0.43621 0.0
C892 C 0.70042 0.79471 0.39185 0.0
C893 C 0.71284 0.77468 0.38214 0.0
C894 C 0.72337 0.76203 0.41536 0.0
H895 H 0.79155 0.8217 0.54778 0.0
H896 H 0.7726 0.81997 0.49668 0.0
H897 H 0.75202 0.81538 0.54739 0.0
H898 H 0.70571 0.79295 0.50299 0.0
H899 H 0.68868 0.81596 0.4454 0.0
H900 H 0.94294 0.70215 0.85001 0.0
H901 H 0.9829 0.7219 0.90794 0.0
H902 H 0.91022 0.70219 1.00291 0.0
H903 H 0.87009 0.68265 0.94507 0.0
H904 H 0.99917 0.77319 0.96812 0.0
H905 H 0.95791 0.6598 0.05654 0.0
H906 H 0.94594 0.66134 1.00136 0.0
H907 H 0.92794 0.67023 0.04613 0.0
C908 C 0.93523 0.70163 0.88322 0.0
C909 C 0.90288 0.69038 0.89242 0.0
C910 C 0.95831 0.71316 0.91651 0.0
C911 C 0.94991 0.71342 0.96034 0.0
C912 C 0.9176 0.70194 0.96972 0.0
H913 H 0.052 0.76758 0.21018 0.0
H914 H 0.01319 0.74707 0.15118 0.0
C915 C 0.89453 0.69074 0.93637 0.0
C916 C 0.97491 0.72636 0.99584 0.0
H917 H 0.99858 0.70602 0.08989 0.0
C918 C 0.99908 0.75841 0.99463 0.0
C919 C 0.97505 0.70745 0.03093 0.0
C920 C 0.95053 0.67272 0.0339 0.0
C921 C 0.02256 0.77208 0.02756 0.0
C922 C 0.02298 0.75308 0.06256 0.0
C923 C 0.99879 0.72094 0.06352 0.0
C924 C 0.04758 0.76601 0.09886 0.0
C925 C 0.04592 0.80718 0.02517 0.0
C926 C 0.0805 0.78343 0.09025 0.0
C927 C 0.103 0.79565 0.12436 0.0
C928 C 0.09346 0.79032 0.1684 0.0
C929 C 0.06059 0.77225 0.17694 0.0
C930 C 0.03815 0.76039 0.1429 0.0
H931 H 0.03645 0.81982 1.00561 0.0
H932 H 0.05199 0.81799 0.05809 0.0
H933 H 0.06797 0.811 1.0091 0.0
H934 H 0.08899 0.78748 0.057 0.0
H935 H 0.12795 0.80918 0.11613 0.0
H936 H 0.29121 0.12677 0.6159 0.0
H937 H 0.27063 0.08572 0.55944 0.0
H938 H 0.30627 0.03375 0.63066 0.0
H939 H 0.32511 0.07375 0.68824 0.0
H940 H 0.29137 0.06336 0.50292 0.0
H941 H 0.22142 0.96189 0.61209 0.0
H942 H 0.24026 1.00218 0.63128 0.0
H943 H 0.26242 0.98165 0.62704 0.0
C944 C 0.29469 0.1066 0.61962 0.0
C945 C 0.30981 0.10377 0.65713 0.0
C946 C 0.2828 0.0829 0.58708 0.0
C947 C 0.28581 0.05558 0.59054 0.0
C948 C 0.30213 0.0535 0.62727 0.0
H949 H 0.25601 0.93417 0.3579 0.0
H950 H 0.27839 0.97505 0.41443 0.0
C951 C 0.3134 0.07682 0.66023 0.0
C952 C 0.27237 0.02981 0.55571 0.0
H953 H 0.22943 0.94913 0.54006 0.0
C954 C 0.27767 0.03842 0.51132 0.0
C955 C 0.25371 0.99689 0.56553 0.0
C956 C 0.24381 0.98513 0.61152 0.0
C957 C 0.26551 0.01566 0.47731 0.0
C958 C 0.24842 0.98265 0.48722 0.0
C959 C 0.24281 0.97409 0.5316 0.0
C960 C 0.23523 0.95673 0.45255 0.0
C961 C 0.27022 0.02764 0.43105 0.0
C962 C 0.2038 0.93113 0.4552 0.0
C963 C 0.19125 0.90696 0.42343 0.0
C964 C 0.20949 0.90753 0.38735 0.0
C965 C 0.24101 0.93288 0.3848 0.0
C966 C 0.25378 0.95671 0.41713 0.0
H967 H 0.27348 0.05191 0.42947 0.0
H968 H 0.29196 0.02891 0.41753 0.0
H969 H 0.24975 0.01184 0.41015 0.0
H970 H 0.18858 0.92995 0.48174 0.0
H971 H 0.16687 0.88808 0.42673 0.0
H972 H 0.719 0.68731 0.88496 0.0
H973 H 0.67878 0.67602 0.94062 0.0
H974 H 0.68548 0.5952 0.98402 0.0
H975 H 0.72708 0.60756 0.92994 0.0
H976 H 0.62089 0.62662 0.97056 0.0
H977 H 0.71898 0.65307 0.0876 0.0
H978 H 0.72627 0.65874 0.02996 0.0
H979 H 0.70599 0.61937 0.05257 0.0
C980 C 0.71155 0.66693 0.90604 0.0
C981 C 0.72668 0.64891 0.90439 0.0
C982 C 0.68838 0.66027 0.93749 0.0
C983 C 0.67972 0.63517 0.96701 0.0
C984 C 0.69246 0.61513 0.96226 0.0
H985 H 0.64495 0.69727 0.21035 0.0
H986 H 0.63317 0.65206 0.16364 0.0
C987 C 0.71625 0.6223 0.9316 0.0
C988 C 0.66206 0.63413 1.0066 0.0
H989 H 0.67752 0.65901 0.11173 0.0
C990 C 0.63272 0.63276 1.00191 0.0
C991 C 0.67722 0.64141 0.04773 0.0
C992 C 0.70888 0.6434 0.05503 0.0
C993 C 0.62007 0.64223 0.03586 0.0
C994 C 0.63751 0.65364 0.07486 0.0
C995 C 0.66436 0.65061 0.08155 0.0
C996 C 0.6339 0.67588 0.10374 0.0
C997 C 0.58937 0.64204 0.02856 0.0
C998 C 0.63717 0.7039 0.08571 0.0
C999 C 0.64392 0.7297 0.11224 0.0
C1000 C 0.64804 0.72807 0.15715 0.0
C1001 C 0.64249 0.69931 0.17563 0.0
C1002 C 0.63534 0.67334 0.1491 0.0
H1003 H 0.57268 0.62089 1.00934 0.0
H1004 H 0.57786 0.6421 0.05976 0.0
H1005 H 0.59412 0.66333 1.00941 0.0
H1006 H 0.63714 0.70687 0.05076 0.0
H1007 H 0.64781 0.7515 0.09721 0.0
H1008 H 0.12863 0.74184 0.44029 0.0
H1009 H 0.10453 0.70004 0.49528 0.0
H1010 H 0.01172 0.67345 0.44468 0.0
H1011 H 0.03589 0.71393 0.38842 0.0
H1012 H 0.07227 0.70455 0.55495 0.0
H1013 H 0.99365 0.58879 0.48319 0.0
H1014 H 0.02489 0.62034 0.45167 0.0
H1015 H 0.98587 0.61617 0.45459 0.0
C1016 C 0.1031 0.72652 0.44049 0.0
C1017 C 0.08391 0.73138 0.41095 0.0
C1018 C 0.08942 0.70243 0.4715 0.0
C1019 C 0.05632 0.68324 0.47395 0.0
C1020 C 0.03734 0.68709 0.44275 0.0
H1021 H 0.91475 0.66105 0.59891 0.0
H1022 H 0.9523 0.65327 0.55574 0.0
C1023 C 0.05108 0.71069 0.41109 0.0
C1024 C 0.04125 0.66507 0.51407 0.0
H1025 H 0.96945 0.60422 0.54566 0.0
C1026 C 0.05052 0.68182 0.55352 0.0
C1027 C 0.0134 0.63502 0.51282 0.0
C1028 C 1.00424 0.61402 0.47322 0.0
C1029 C 0.02989 0.67222 0.58914 0.0
C1030 C 0.99949 0.64507 0.58492 0.0
C1031 C 0.99251 0.62549 0.54829 0.0
C1032 C 0.97289 0.6424 0.61099 0.0
C1033 C 0.03908 0.69358 0.62853 0.0
C1034 C 0.97159 0.63808 0.65618 0.0
C1035 C 0.95053 0.64317 0.68105 0.0
C1036 C 0.93037 0.6523 0.66086 0.0
C1037 C 0.93029 0.65445 0.61536 0.0
C1038 C 0.95145 0.64961 0.59065 0.0
H1039 H 0.06346 0.71428 0.62588 0.0
H1040 H 0.02227 0.70253 0.63287 0.0
H1041 H 0.03796 0.68 0.65814 0.0
H1042 H 0.9878 0.63225 0.67231 0.0
H1043 H 0.95061 0.64075 0.71611 0.0
H1044 H 0.35404 0.09798 0.95159 0.0
H1045 H 0.36028 0.05978 0.99556 0.0
H1046 H 0.35966 0.0097 0.87937 0.0
H1047 H 0.35294 0.04765 0.83507 0.0
H1048 H 0.3128 0.97378 0.93372 0.0
H1049 H 0.42313 0.03193 0.0286 0.0
H1050 H 0.40447 0.05564 0.03014 0.0
H1051 H 0.41807 0.0488 0.97882 0.0
C1052 C 0.35592 0.07924 0.93533 0.0
C1053 C 0.35232 0.07535 0.89007 0.0
C1054 C 0.36007 0.05773 0.96044 0.0
C1055 C 0.36096 0.03219 0.94064 0.0
C1056 C 0.35943 0.02948 0.89516 0.0
H1057 H 0.26504 0.86874 0.11243 0.0
H1058 H 0.30347 0.89584 0.05374 0.0
C1059 C 0.35521 0.05096 0.87002 0.0
C1060 C 0.35587 0.00507 0.96789 0.0
H1061 H 0.37602 0.98998 0.0675 0.0
C1062 C 0.32716 0.97667 0.96222 0.0
C1063 C 0.37488 0.00886 1.00457 0.0
C1064 C 0.40703 0.0379 1.01056 0.0
C1065 C 0.3146 0.95396 0.99537 0.0
C1066 C 0.33192 0.95957 0.03458 0.0
C1067 C 0.36262 0.98595 0.03765 0.0
C1068 C 0.31577 0.94299 0.07508 0.0
C1069 C 0.28134 0.92626 0.98993 0.0
C1070 C 0.31188 0.96064 0.1082 0.0
C1071 C 0.29062 0.94532 0.14209 0.0
C1072 C 0.27257 0.91213 0.14292 0.0
C1073 C 0.2782 0.89443 0.11172 0.0
C1074 C 0.30012 0.90982 0.07833 0.0
H1075 H 0.26999 0.92776 0.95933 0.0
H1076 H 0.28203 0.90384 0.98911 0.0
H1077 H 0.26611 0.92505 1.01765 0.0
H1078 H 0.32376 0.98629 0.10636 0.0
H1079 H 0.28693 0.95947 0.16608 0.0
H1080 H 0.3995 0.27402 0.61639 0.0
H1081 H 0.41371 0.31503 0.56095 0.0
H1082 H 0.34437 0.33631 0.61451 0.0
H1083 H 0.33154 0.29672 0.67111 0.0
H1084 H 0.37381 0.3061 0.50343 0.0
H1085 H 0.40541 0.42174 0.57142 0.0
H1086 H 0.40825 0.39212 0.60353 0.0
H1087 H 0.37174 0.39334 0.60173 0.0
C1088 C 0.38799 0.28816 0.61688 0.0
C1089 C 0.36397 0.28193 0.64723 0.0
C1090 C 0.39637 0.31178 0.58555 0.0
C1091 C 0.38037 0.32904 0.58361 0.0
C1092 C 0.35786 0.32416 0.61592 0.0
H1093 H 0.25422 0.34282 0.45355 0.0
H1094 H 0.29894 0.35131 0.49876 0.0
C1095 C 0.35004 0.30106 0.64787 0.0
C1096 C 0.38087 0.3457 0.54305 0.0
H1097 H 0.36484 0.40301 0.51018 0.0
C1098 C 0.37334 0.32813 0.50429 0.0
C1099 C 0.38092 0.37475 0.5436 0.0
C1100 C 0.39243 0.39662 0.58236 0.0
C1101 C 0.36072 0.33596 0.46869 0.0
C1102 C 0.35593 0.3622 0.47212 0.0
C1103 C 0.36795 0.38248 0.50816 0.0
C1104 C 0.33185 0.36371 0.44494 0.0
C1105 C 0.34893 0.31382 0.43007 0.0
C1106 C 0.33587 0.36853 0.39989 0.0
C1107 C 0.31015 0.36314 0.37388 0.0
C1108 C 0.28025 0.35312 0.39274 0.0
C1109 C 0.27687 0.35014 0.43811 0.0
C1110 C 0.30249 0.35536 0.46399 0.0
H1111 H 0.35344 0.2937 0.43356 0.0
H1112 H 0.32303 0.30404 0.42584 0.0
H1113 H 0.36097 0.32706 0.40003 0.0
H1114 H 0.35845 0.37515 0.38477 0.0
H1115 H 0.31351 0.36613 0.33897 0.0
H1116 H 0.03955 0.3269 0.16293 0.0
H1117 H 0.01434 0.3421 0.1066 0.0
H1118 H 0.10576 0.41966 0.06808 0.0
H1119 H 0.13126 0.40326 0.1229 0.0
H1120 H 0.01048 0.39391 0.07873 0.0
H1121 H 0.08071 0.36599 0.96085 0.0
H1122 H 0.08112 0.35834 1.01809 0.0
H1123 H 0.1016 0.3984 0.99789 0.0
C1124 C 0.05417 0.34738 0.14275 0.0
C1125 C 0.08727 0.36331 0.14606 0.0
C1126 C 0.03979 0.35629 0.11089 0.0
C1127 C 0.0583 0.3816 0.08253 0.0
C1128 C 0.09117 0.39954 0.08882 0.0
H1129 H 0.95744 0.31975 0.84212 0.0
H1130 H 0.99305 0.36563 0.88644 0.0
C1131 C 0.10565 0.3901 0.11995 0.0
C1132 C 0.04324 0.38497 0.04274 0.0
H1133 H 0.03293 0.35973 0.93767 0.0
C1134 C 0.01591 0.38753 0.04736 0.0
C1135 C 0.05084 0.37754 1.00147 0.0
C1136 C 0.08007 0.37479 0.99399 0.0
C1137 C 0.99365 0.3782 1.01367 0.0
C1138 C 0.99901 0.36597 0.97497 0.0
C1139 C 0.02866 0.36859 0.96782 0.0
C1140 C 0.97252 0.34278 0.94789 0.0
C1141 C 0.96337 0.3788 1.02123 0.0
C1142 C 0.94887 0.31492 0.96776 0.0
C1143 C 0.92881 0.28864 0.94268 0.0
C1144 C 0.93223 0.28969 0.89729 0.0
C1145 C 0.95457 0.31819 0.87717 0.0
C1146 C 0.97466 0.34454 0.90233 0.0
H1147 H 0.96812 0.40003 0.04051 0.0
H1148 H 0.95184 0.37889 0.99008 0.0
H1149 H 0.94669 0.35756 0.04035 0.0
H1150 H 0.94738 0.3126 1.00288 0.0
H1151 H 0.91161 0.26709 0.95901 0.0
H1152 H 0.72387 0.04153 0.67075 0.0
H1153 H 0.68484 0.0155 0.61305 0.0
H1154 H 0.70012 0.10641 0.56923 0.0
H1155 H 0.74077 0.13269 0.62542 0.0
H1156 H 0.63031 0.01102 0.58063 0.0
H1157 H 0.73167 0.07996 0.46657 0.0
H1158 H 0.73795 0.08112 0.52439 0.0
H1159 H 0.71924 0.1015 0.50094 0.0
C1160 C 0.7186 0.05586 0.64908 0.0
C1161 C 0.73587 0.089 0.65132 0.0
C1162 C 0.69609 0.04102 0.61643 0.0
C1163 C 0.69017 0.05914 0.58621 0.0
C1164 C 0.70504 0.09211 0.59141 0.0
H1165 H 0.65382 0.95825 0.34499 0.0
H1166 H 0.64427 0.99417 0.38968 0.0
C1167 C 0.72824 0.10704 0.62332 0.0
C1168 C 0.67288 0.04354 0.54595 0.0
H1169 H 0.69009 0.03272 0.44221 0.0
C1170 C 0.64286 0.01626 0.54982 0.0
C1171 C 0.68895 0.05083 0.50541 0.0
C1172 C 0.72125 0.07983 0.49881 0.0
C1173 C 0.63059 0.9939 0.51618 0.0
C1174 C 0.64892 0.99915 0.47822 0.0
C1175 C 0.67635 0.02861 0.47177 0.0
C1176 C 0.64541 0.97271 0.45085 0.0
C1177 C 0.59943 0.96376 0.52297 0.0
C1178 C 0.64873 0.94844 0.47046 0.0
C1179 C 0.65452 0.92815 0.44515 0.0
C1180 C 0.65737 0.932 0.39983 0.0
C1181 C 0.65218 0.95506 0.37999 0.0
C1182 C 0.64631 0.97532 0.40535 0.0
H1183 H 0.58281 0.96855 0.54184 0.0
H1184 H 0.58821 0.95252 0.49152 0.0
H1185 H 0.60352 0.94679 0.54213 0.0
H1186 H 0.64913 0.94657 0.50558 0.0
H1187 H 0.65814 0.91041 0.46124 0.0
loop_
_geom_bond_atom_site_label_1
_geom_bond_atom_site_label_2
_geom_bond_distance
_geom_bond_site_symmetry_2
_ccdc_geom_bond_type
Cd0 N3 2.334 . S
Cd0 N29 2.304 . S
Cd0 O36 2.268 . S
Cd0 O39 2.273 . S
Cd0 O40 2.417 . S
Cd0 O41 2.330 . S
Cd1 N16 2.304 . S
Cd1 N20 2.334 . S
Cd1 O37 2.273 . S
Cd1 O38 2.268 . S
Cd1 O42 2.417 . S
Cd1 O43 2.330 . S
C2 N3 1.332 . S
C2 C6 1.381 . S
C2 H8 0.931 . S
N3 Cd0 2.334 . S
N3 C2 1.332 . S
N3 C7 1.328 . S
C4 C5 1.396 . S
C4 C7 1.378 . S
C4 H46 0.931 . S
C5 C4 1.396 . S
C5 C6 1.382 . S
C6 C2 1.381 . S
C6 C5 1.382 . S
C6 H47 0.930 . S
C7 N3 1.328 . S
C7 C4 1.378 . S
C7 H9 0.930 . S
H8 C2 0.931 . S
H9 C7 0.930 . S
C10 O36 1.238 . S
C10 O37 1.253 . S
C11 C12 1.379 . S
C11 N16 1.337 . S
C11 H17 0.929 . S
C12 C11 1.379 . S
C12 C13 1.380 . S
C12 H48 0.929 . S
C13 C12 1.380 . S
C13 C14 1.399 . S
C14 C13 1.399 . S
C14 C15 1.376 . S
C14 H49 0.931 . S
C15 C14 1.376 . S
C15 N16 1.338 . S
C15 H18 0.930 . S
N16 Cd1 2.304 . S
N16 C11 1.337 . S
N16 C15 1.338 . S
H17 C11 0.929 . S
H18 C15 0.930 . S
C19 N20 1.332 . S
C19 C23 1.381 . S
C19 H25 0.931 . S
N20 Cd1 2.334 . S
N20 C19 1.332 . S
N20 C24 1.328 . S
C21 C22 1.396 . S
C21 C24 1.378 . S
C21 H50 0.931 . S
C22 C21 1.396 . S
C22 C23 1.382 . S
C23 C19 1.381 . S
C23 C22 1.382 . S
C23 H51 0.930 . S
C24 N20 1.328 . S
C24 C21 1.378 . S
C24 H26 0.930 . S
H25 C19 0.931 . S
H26 C24 0.930 . S
C27 O38 1.238 . S
C27 O39 1.253 . S
C28 O40 1.239 . S
C28 O41 1.230 . S
N29 Cd0 2.304 . S
N29 C30 1.337 . S
N29 C34 1.338 . S
C30 N29 1.337 . S
C30 C31 1.379 . S
C30 H44 0.929 . S
C31 C30 1.379 . S
C31 C32 1.380 . S
C31 H52 0.929 . S
C32 C31 1.380 . S
C32 C33 1.399 . S
C33 C32 1.399 . S
C33 C34 1.376 . S
C33 H53 0.931 . S
C34 N29 1.338 . S
C34 C33 1.376 . S
C34 H45 0.930 . S
C35 O42 1.239 . S
C35 O43 1.230 . S
O36 Cd0 2.268 . S
O36 C10 1.238 . S
O37 Cd1 2.273 . S
O37 C10 1.253 . S
O38 Cd1 2.268 . S
O38 C27 1.238 . S
O39 Cd0 2.273 . S
O39 C27 1.253 . S
O40 Cd0 2.417 . S
O40 C28 1.239 . S
O41 Cd0 2.330 . S
O41 C28 1.230 . S
O42 Cd1 2.417 . S
O42 C35 1.239 . S
O43 Cd1 2.330 . S
O43 C35 1.230 . S
H44 C30 0.929 . S
H45 C34 0.930 . S
H46 C4 0.931 . S
H47 C6 0.930 . S
H48 C12 0.929 . S
H49 C14 0.931 . S
H50 C21 0.931 . S
H51 C23 0.930 . S
H52 C31 0.929 . S
H53 C33 0.931 . S
Cd54 N57 2.334 . S
Cd54 N83 2.304 . S
Cd54 O90 2.268 . S
Cd54 O93 2.273 . S
Cd54 O94 2.417 . S
Cd54 O95 2.330 . S
Cd55 N70 2.304 . S
Cd55 N74 2.334 . S
Cd55 O91 2.273 . S
Cd55 O92 2.268 . S
Cd55 O96 2.417 . S
Cd55 O97 2.330 . S
C56 N57 1.332 . S
C56 C60 1.381 . S
C56 H62 0.931 . S
N57 Cd54 2.334 . S
N57 C56 1.332 . S
N57 C61 1.328 . S
C58 C59 1.396 . S
C58 C61 1.378 . S
C58 H100 0.931 . S
C59 C58 1.396 . S
C59 C60 1.382 . S
C60 C56 1.381 . S
C60 C59 1.382 . S
C60 H101 0.930 . S
C61 N57 1.328 . S
C61 C58 1.378 . S
C61 H63 0.930 . S
H62 C56 0.931 . S
H63 C61 0.930 . S
C64 O90 1.238 . S
C64 O91 1.253 . S
C65 C66 1.379 . S
C65 N70 1.337 . S
C65 H71 0.929 . S
C66 C65 1.379 . S
C66 C67 1.380 . S
C66 H102 0.929 . S
C67 C66 1.380 . S
C67 C68 1.399 . S
C68 C67 1.399 . S
C68 C69 1.376 . S
C68 H103 0.931 . S
C69 C68 1.376 . S
C69 N70 1.338 . S
C69 H72 0.930 . S
N70 Cd55 2.304 . S
N70 C65 1.337 . S
N70 C69 1.338 . S
H71 C65 0.929 . S
H72 C69 0.930 . S
C73 N74 1.332 . S
C73 C77 1.381 . S
C73 H79 0.931 . S
N74 Cd55 2.334 . S
N74 C73 1.332 . S
N74 C78 1.328 . S
C75 C76 1.396 . S
C75 C78 1.378 . S
C75 H104 0.931 . S
C76 C75 1.396 . S
C76 C77 1.382 . S
C77 C73 1.381 . S
C77 C76 1.382 . S
C77 H105 0.930 . S
C78 N74 1.328 . S
C78 C75 1.378 . S
C78 H80 0.930 . S
H79 C73 0.931 . S
H80 C78 0.930 . S
C81 O92 1.238 . S
C81 O93 1.253 . S
C82 O94 1.239 . S
C82 O95 1.230 . S
N83 Cd54 2.304 . S
N83 C84 1.337 . S
N83 C88 1.338 . S
C84 N83 1.337 . S
C84 C85 1.379 . S
C84 H98 0.929 . S
C85 C84 1.379 . S
C85 C86 1.380 . S
C85 H106 0.929 . S
C86 C85 1.380 . S
C86 C87 1.399 . S
C87 C86 1.399 . S
C87 C88 1.376 . S
C87 H107 0.931 . S
C88 N83 1.338 . S
C88 C87 1.376 . S
C88 H99 0.930 . S
C89 O96 1.239 . S
C89 O97 1.230 . S
O90 Cd54 2.268 . S
O90 C64 1.238 . S
O91 Cd55 2.273 . S
O91 C64 1.253 . S
O92 Cd55 2.268 . S
O92 C81 1.238 . S
O93 Cd54 2.273 . S
O93 C81 1.253 . S
O94 Cd54 2.417 . S
O94 C82 1.239 . S
O95 Cd54 2.330 . S
O95 C82 1.230 . S
O96 Cd55 2.417 . S
O96 C89 1.239 . S
O97 Cd55 2.330 . S
O97 C89 1.230 . S
H98 C84 0.929 . S
H99 C88 0.930 . S
H100 C58 0.931 . S
H101 C60 0.930 . S
H102 C66 0.929 . S
H103 C68 0.931 . S
H104 C75 0.931 . S
H105 C77 0.930 . S
H106 C85 0.929 . S
H107 C87 0.931 . S
Cd108 N111 2.334 . S
Cd108 N137 2.304 . S
Cd108 O144 2.268 . S
Cd108 O147 2.273 . S
Cd108 O148 2.417 . S
Cd108 O149 2.330 . S
Cd109 N124 2.304 . S
Cd109 N128 2.334 . S
Cd109 O145 2.273 . S
Cd109 O146 2.268 . S
Cd109 O150 2.417 . S
Cd109 O151 2.330 . S
C110 N111 1.332 . S
C110 C114 1.381 . S
C110 H116 0.931 . S
N111 Cd108 2.334 . S
N111 C110 1.332 . S
N111 C115 1.328 . S
C112 C113 1.396 . S
C112 C115 1.378 . S
C112 H154 0.931 . S
C113 C112 1.396 . S
C113 C114 1.382 . S
C114 C110 1.381 . S
C114 C113 1.382 . S
C114 H155 0.930 . S
C115 N111 1.328 . S
C115 C112 1.378 . S
C115 H117 0.930 . S
H116 C110 0.931 . S
H117 C115 0.930 . S
C118 O144 1.238 . S
C118 O145 1.253 . S
C119 C120 1.379 . S
C119 N124 1.337 . S
C119 H125 0.929 . S
C120 C119 1.379 . S
C120 C121 1.380 . S
C120 H156 0.929 . S
C121 C120 1.380 . S
C121 C122 1.399 . S
C122 C121 1.399 . S
C122 C123 1.376 . S
C122 H157 0.931 . S
C123 C122 1.376 . S
C123 N124 1.338 . S
C123 H126 0.930 . S
N124 Cd109 2.304 . S
N124 C119 1.337 . S
N124 C123 1.338 . S
H125 C119 0.929 . S
H126 C123 0.930 . S
C127 N128 1.332 . S
C127 C131 1.381 . S
C127 H133 0.931 . S
N128 Cd109 2.334 . S
N128 C127 1.332 . S
N128 C132 1.328 . S
C129 C130 1.396 . S
C129 C132 1.378 . S
C129 H158 0.931 . S
C130 C129 1.396 . S
C130 C131 1.382 . S
C131 C127 1.381 . S
C131 C130 1.382 . S
C131 H159 0.930 . S
C132 N128 1.328 . S
C132 C129 1.378 . S
C132 H134 0.930 . S
H133 C127 0.931 . S
H134 C132 0.930 . S
C135 O146 1.238 . S
C135 O147 1.253 . S
C136 O148 1.239 . S
C136 O149 1.230 . S
N137 Cd108 2.304 . S
N137 C138 1.337 . S
N137 C142 1.338 . S
C138 N137 1.337 . S
C138 C139 1.379 . S
C138 H152 0.929 . S
C139 C138 1.379 . S
C139 C140 1.380 . S
C139 H160 0.929 . S
C140 C139 1.380 . S
C140 C141 1.399 . S
C141 C140 1.399 . S
C141 C142 1.376 . S
C141 H161 0.931 . S
C142 N137 1.338 . S
C142 C141 1.376 . S
C142 H153 0.930 . S
C143 O150 1.239 . S
C143 O151 1.230 . S
O144 Cd108 2.268 . S
O144 C118 1.238 . S
O145 Cd109 2.273 . S
O145 C118 1.253 . S
O146 Cd109 2.268 . S
O146 C135 1.238 . S
O147 Cd108 2.273 . S
O147 C135 1.253 . S
O148 Cd108 2.417 . S
O148 C136 1.239 . S
O149 Cd108 2.330 . S
O149 C136 1.230 . S
O150 Cd109 2.417 . S
O150 C143 1.239 . S
O151 Cd109 2.330 . S
O151 C143 1.230 . S
H152 C138 0.929 . S
H153 C142 0.930 . S
H154 C112 0.931 . S
H155 C114 0.930 . S
H156 C120 0.929 . S
H157 C122 0.931 . S
H158 C129 0.931 . S
H159 C131 0.930 . S
H160 C139 0.929 . S
H161 C141 0.931 . S
Cd162 N165 2.334 . S
Cd162 N191 2.304 . S
Cd162 O198 2.268 . S
Cd162 O201 2.273 . S
Cd162 O202 2.417 . S
Cd162 O203 2.330 . S
Cd163 N178 2.304 . S
Cd163 N182 2.334 . S
Cd163 O199 2.273 . S
Cd163 O200 2.268 . S
Cd163 O204 2.417 . S
Cd163 O205 2.330 . S
C164 N165 1.332 . S
C164 C168 1.381 . S
C164 H170 0.931 . S
N165 Cd162 2.334 . S
N165 C164 1.332 . S
N165 C169 1.328 . S
C166 C167 1.396 . S
C166 C169 1.378 . S
C166 H208 0.931 . S
C167 C166 1.396 . S
C167 C168 1.382 . S
C168 C164 1.381 . S
C168 C167 1.382 . S
C168 H209 0.930 . S
C169 N165 1.328 . S
C169 C166 1.378 . S
C169 H171 0.930 . S
H170 C164 0.931 . S
H171 C169 0.930 . S
C172 O198 1.238 . S
C172 O199 1.253 . S
C173 C174 1.379 . S
C173 N178 1.337 . S
C173 H179 0.929 . S
C174 C173 1.379 . S
C174 C175 1.380 . S
C174 H210 0.929 . S
C175 C174 1.380 . S
C175 C176 1.399 . S
C176 C175 1.399 . S
C176 C177 1.376 . S
C176 H211 0.931 . S
C177 C176 1.376 . S
C177 N178 1.338 . S
C177 H180 0.930 . S
N178 Cd163 2.304 . S
N178 C173 1.337 . S
N178 C177 1.338 . S
H179 C173 0.929 . S
H180 C177 0.930 . S
C181 N182 1.332 . S
C181 C185 1.381 . S
C181 H187 0.931 . S
N182 Cd163 2.334 . S
N182 C181 1.332 . S
N182 C186 1.328 . S
C183 C184 1.396 . S
C183 C186 1.378 . S
C183 H212 0.931 . S
C184 C183 1.396 . S
C184 C185 1.382 . S
C185 C181 1.381 . S
C185 C184 1.382 . S
C185 H213 0.930 . S
C186 N182 1.328 . S
C186 C183 1.378 . S
C186 H188 0.930 . S
H187 C181 0.931 . S
H188 C186 0.930 . S
C189 O200 1.238 . S
C189 O201 1.253 . S
C190 O202 1.239 . S
C190 O203 1.230 . S
N191 Cd162 2.304 . S
N191 C192 1.337 . S
N191 C196 1.338 . S
C192 N191 1.337 . S
C192 C193 1.379 . S
C192 H206 0.929 . S
C193 C192 1.379 . S
C193 C194 1.380 . S
C193 H214 0.929 . S
C194 C193 1.380 . S
C194 C195 1.399 . S
C195 C194 1.399 . S
C195 C196 1.376 . S
C195 H215 0.931 . S
C196 N191 1.338 . S
C196 C195 1.376 . S
C196 H207 0.930 . S
C197 O204 1.239 . S
C197 O205 1.230 . S
O198 Cd162 2.268 . S
O198 C172 1.238 . S
O199 Cd163 2.273 . S
O199 C172 1.253 . S
O200 Cd163 2.268 . S
O200 C189 1.238 . S
O201 Cd162 2.273 . S
O201 C189 1.253 . S
O202 Cd162 2.417 . S
O202 C190 1.239 . S
O203 Cd162 2.330 . S
O203 C190 1.230 . S
O204 Cd163 2.417 . S
O204 C197 1.239 . S
O205 Cd163 2.330 . S
O205 C197 1.230 . S
H206 C192 0.929 . S
H207 C196 0.930 . S
H208 C166 0.931 . S
H209 C168 0.930 . S
H210 C174 0.929 . S
H211 C176 0.931 . S
H212 C183 0.931 . S
H213 C185 0.930 . S
H214 C193 0.929 . S
H215 C195 0.931 . S
Cd216 N219 2.334 . S
Cd216 N245 2.304 . S
Cd216 O252 2.268 . S
Cd216 O255 2.273 . S
Cd216 O256 2.417 . S
Cd216 O257 2.330 . S
Cd217 N232 2.304 . S
Cd217 N236 2.334 . S
Cd217 O253 2.273 . S
Cd217 O254 2.268 . S
Cd217 O258 2.417 . S
Cd217 O259 2.330 . S
C218 N219 1.332 . S
C218 C222 1.381 . S
C218 H224 0.931 . S
N219 Cd216 2.334 . S
N219 C218 1.332 . S
N219 C223 1.328 . S
C220 C221 1.396 . S
C220 C223 1.378 . S
C220 H262 0.931 . S
C221 C220 1.396 . S
C221 C222 1.382 . S
C222 C218 1.381 . S
C222 C221 1.382 . S
C222 H263 0.930 . S
C223 N219 1.328 . S
C223 C220 1.378 . S
C223 H225 0.930 . S
H224 C218 0.931 . S
H225 C223 0.930 . S
C226 O252 1.238 . S
C226 O253 1.253 . S
C227 C228 1.379 . S
C227 N232 1.337 . S
C227 H233 0.929 . S
C228 C227 1.379 . S
C228 C229 1.380 . S
C228 H264 0.929 . S
C229 C228 1.380 . S
C229 C230 1.399 . S
C230 C229 1.399 . S
C230 C231 1.376 . S
C230 H265 0.931 . S
C231 C230 1.376 . S
C231 N232 1.338 . S
C231 H234 0.930 . S
N232 Cd217 2.304 . S
N232 C227 1.337 . S
N232 C231 1.338 . S
H233 C227 0.929 . S
H234 C231 0.930 . S
C235 N236 1.332 . S
C235 C239 1.381 . S
C235 H241 0.931 . S
N236 Cd217 2.334 . S
N236 C235 1.332 . S
N236 C240 1.328 . S
C237 C238 1.396 . S
C237 C240 1.378 . S
C237 H266 0.931 . S
C238 C237 1.396 . S
C238 C239 1.382 . S
C239 C235 1.381 . S
C239 C238 1.382 . S
C239 H267 0.930 . S
C240 N236 1.328 . S
C240 C237 1.378 . S
C240 H242 0.930 . S
H241 C235 0.931 . S
H242 C240 0.930 . S
C243 O254 1.238 . S
C243 O255 1.253 . S
C244 O256 1.239 . S
C244 O257 1.230 . S
N245 Cd216 2.304 . S
N245 C246 1.337 . S
N245 C250 1.338 . S
C246 N245 1.337 . S
C246 C247 1.379 . S
C246 H260 0.929 . S
C247 C246 1.379 . S
C247 C248 1.380 . S
C247 H268 0.929 . S
C248 C247 1.380 . S
C248 C249 1.399 . S
C249 C248 1.399 . S
C249 C250 1.376 . S
C249 H269 0.931 . S
C250 N245 1.338 . S
C250 C249 1.376 . S
C250 H261 0.930 . S
C251 O258 1.239 . S
C251 O259 1.230 . S
O252 Cd216 2.268 . S
O252 C226 1.238 . S
O253 Cd217 2.273 . S
O253 C226 1.253 . S
O254 Cd217 2.268 . S
O254 C243 1.238 . S
O255 Cd216 2.273 . S
O255 C243 1.253 . S
O256 Cd216 2.417 . S
O256 C244 1.239 . S
O257 Cd216 2.330 . S
O257 C244 1.230 . S
O258 Cd217 2.417 . S
O258 C251 1.239 . S
O259 Cd217 2.330 . S
O259 C251 1.230 . S
H260 C246 0.929 . S
H261 C250 0.930 . S
H262 C220 0.931 . S
H263 C222 0.930 . S
H264 C228 0.929 . S
H265 C230 0.931 . S
H266 C237 0.931 . S
H267 C239 0.930 . S
H268 C247 0.929 . S
H269 C249 0.931 . S
Cd270 N273 2.334 . S
Cd270 N299 2.304 . S
Cd270 O306 2.268 . S
Cd270 O309 2.273 . S
Cd270 O310 2.417 . S
Cd270 O311 2.330 . S
Cd271 N286 2.304 . S
Cd271 N290 2.334 . S
Cd271 O307 2.273 . S
Cd271 O308 2.268 . S
Cd271 O312 2.417 . S
Cd271 O313 2.330 . S
C272 N273 1.332 . S
C272 C276 1.381 . S
C272 H278 0.931 . S
N273 Cd270 2.334 . S
N273 C272 1.332 . S
N273 C277 1.328 . S
C274 C275 1.396 . S
C274 C277 1.378 . S
C274 H316 0.931 . S
C275 C274 1.396 . S
C275 C276 1.382 . S
C276 C272 1.381 . S
C276 C275 1.382 . S
C276 H317 0.930 . S
C277 N273 1.328 . S
C277 C274 1.378 . S
C277 H279 0.930 . S
H278 C272 0.931 . S
H279 C277 0.930 . S
C280 O306 1.238 . S
C280 O307 1.253 . S
C281 C282 1.379 . S
C281 N286 1.337 . S
C281 H287 0.929 . S
C282 C281 1.379 . S
C282 C283 1.380 . S
C282 H318 0.929 . S
C283 C282 1.380 . S
C283 C284 1.399 . S
C284 C283 1.399 . S
C284 C285 1.376 . S
C284 H319 0.931 . S
C285 C284 1.376 . S
C285 N286 1.338 . S
C285 H288 0.930 . S
N286 Cd271 2.304 . S
N286 C281 1.337 . S
N286 C285 1.338 . S
H287 C281 0.929 . S
H288 C285 0.930 . S
C289 N290 1.332 . S
C289 C293 1.381 . S
C289 H295 0.931 . S
N290 Cd271 2.334 . S
N290 C289 1.332 . S
N290 C294 1.328 . S
C291 C292 1.396 . S
C291 C294 1.378 . S
C291 H320 0.931 . S
C292 C291 1.396 . S
C292 C293 1.382 . S
C293 C289 1.381 . S
C293 C292 1.382 . S
C293 H321 0.930 . S
C294 N290 1.328 . S
C294 C291 1.378 . S
C294 H296 0.930 . S
H295 C289 0.931 . S
H296 C294 0.930 . S
C297 O308 1.238 . S
C297 O309 1.253 . S
C298 O310 1.239 . S
C298 O311 1.230 . S
N299 Cd270 2.304 . S
N299 C300 1.337 . S
N299 C304 1.338 . S
C300 N299 1.337 . S
C300 C301 1.379 . S
C300 H314 0.929 . S
C301 C300 1.379 . S
C301 C302 1.380 . S
C301 H322 0.929 . S
C302 C301 1.380 . S
C302 C303 1.399 . S
C303 C302 1.399 . S
C303 C304 1.376 . S
C303 H323 0.931 . S
C304 N299 1.338 . S
C304 C303 1.376 . S
C304 H315 0.930 . S
C305 O312 1.239 . S
C305 O313 1.230 . S
O306 Cd270 2.268 . S
O306 C280 1.238 . S
O307 Cd271 2.273 . S
O307 C280 1.253 . S
O308 Cd271 2.268 . S
O308 C297 1.238 . S
O309 Cd270 2.273 . S
O309 C297 1.253 . S
O310 Cd270 2.417 . S
O310 C298 1.239 . S
O311 Cd270 2.330 . S
O311 C298 1.230 . S
O312 Cd271 2.417 . S
O312 C305 1.239 . S
O313 Cd271 2.330 . S
O313 C305 1.230 . S
H314 C300 0.929 . S
H315 C304 0.930 . S
H316 C274 0.931 . S
H317 C276 0.930 . S
H318 C282 0.929 . S
H319 C284 0.931 . S
H320 C291 0.931 . S
H321 C293 0.930 . S
H322 C301 0.929 . S
H323 C303 0.931 . S
H324 C332 0.929 . S
H325 C334 0.930 . S
H326 C336 0.930 . S
H327 C339 0.929 . S
H328 C342 0.930 . S
H329 C344 0.960 . S
H330 C344 0.960 . S
H331 C344 0.960 . S
C332 H324 0.929 . S
C332 C333 1.377 . S
C332 C334 1.384 . S
C333 C332 1.377 . S
C333 C339 1.390 . S
C334 H325 0.930 . S
C334 C332 1.384 . S
C334 C335 1.372 . S
C335 C334 1.372 . S
C335 C336 1.400 . S
C335 C340 1.490 . S
C336 H326 0.930 . S
C336 C335 1.400 . S
C336 C339 1.386 . S
H337 C353 0.930 . S
H338 C354 0.931 . S
C339 H327 0.929 . S
C339 C333 1.390 . S
C339 C336 1.386 . S
C340 C335 1.490 . S
C340 C342 1.395 . S
C340 C343 1.403 . S
H341 C347 0.930 . S
C342 H328 0.930 . S
C342 C340 1.395 . S
C342 C345 1.403 . S
C343 C340 1.403 . S
C343 C344 1.524 . S
C343 C347 1.400 . S
C344 H329 0.960 . S
C344 H330 0.960 . S
C344 H331 0.960 . S
C344 C343 1.524 . S
C345 C342 1.403 . S
C345 C346 1.392 . S
C345 C349 1.495 . S
C346 C345 1.392 . S
C346 C347 1.385 . S
C346 C348 1.478 . S
C347 H341 0.930 . S
C347 C343 1.400 . S
C347 C346 1.385 . S
C348 C346 1.478 . S
C348 C350 1.381 . S
C348 C354 1.383 . S
C349 C345 1.495 . S
C349 H355 0.959 . S
C349 H356 0.961 . S
C349 H357 0.960 . S
C350 C348 1.381 . S
C350 C351 1.394 . S
C350 H358 0.930 . S
C351 C350 1.394 . S
C351 C352 1.383 . S
C351 H359 0.929 . S
C352 C351 1.383 . S
C352 C353 1.377 . S
C353 H337 0.930 . S
C353 C352 1.377 . S
C353 C354 1.379 . S
C354 H338 0.931 . S
C354 C348 1.383 . S
C354 C353 1.379 . S
H355 C349 0.959 . S
H356 C349 0.961 . S
H357 C349 0.960 . S
H358 C350 0.930 . S
H359 C351 0.929 . S
H360 C368 0.929 . S
H361 C370 0.930 . S
H362 C372 0.930 . S
H363 C375 0.929 . S
H364 C378 0.930 . S
H365 C380 0.960 . S
H366 C380 0.960 . S
H367 C380 0.960 . S
C368 H360 0.929 . S
C368 C369 1.377 . S
C368 C370 1.384 . S
C369 C368 1.377 . S
C369 C375 1.390 . S
C370 H361 0.930 . S
C370 C368 1.384 . S
C370 C371 1.372 . S
C371 C370 1.372 . S
C371 C372 1.400 . S
C371 C376 1.490 . S
C372 H362 0.930 . S
C372 C371 1.400 . S
C372 C375 1.386 . S
H373 C389 0.930 . S
H374 C390 0.931 . S
C375 H363 0.929 . S
C375 C369 1.390 . S
C375 C372 1.386 . S
C376 C371 1.490 . S
C376 C378 1.395 . S
C376 C379 1.403 . S
H377 C383 0.930 . S
C378 H364 0.930 . S
C378 C376 1.395 . S
C378 C381 1.403 . S
C379 C376 1.403 . S
C379 C380 1.524 . S
C379 C383 1.400 . S
C380 H365 0.960 . S
C380 H366 0.960 . S
C380 H367 0.960 . S
C380 C379 1.524 . S
C381 C378 1.403 . S
C381 C382 1.392 . S
C381 C385 1.495 . S
C382 C381 1.392 . S
C382 C383 1.385 . S
C382 C384 1.478 . S
C383 H377 0.930 . S
C383 C379 1.400 . S
C383 C382 1.385 . S
C384 C382 1.478 . S
C384 C386 1.381 . S
C384 C390 1.383 . S
C385 C381 1.495 . S
C385 H391 0.959 . S
C385 H392 0.961 . S
C385 H393 0.960 . S
C386 C384 1.381 . S
C386 C387 1.394 . S
C386 H394 0.930 . S
C387 C386 1.394 . S
C387 C388 1.383 . S
C387 H395 0.929 . S
C388 C387 1.383 . S
C388 C389 1.377 . S
C389 H373 0.930 . S
C389 C388 1.377 . S
C389 C390 1.379 . S
C390 H374 0.931 . S
C390 C384 1.383 . S
C390 C389 1.379 . S
H391 C385 0.959 . S
H392 C385 0.961 . S
H393 C385 0.960 . S
H394 C386 0.930 . S
H395 C387 0.929 . S
H396 C404 0.929 . S
H397 C406 0.930 . S
H398 C408 0.930 . S
H399 C411 0.929 . S
H400 C414 0.930 . S
H401 C416 0.960 . S
H402 C416 0.960 . S
H403 C416 0.960 . S
C404 H396 0.929 . S
C404 C405 1.377 . S
C404 C406 1.384 . S
C405 C404 1.377 . S
C405 C411 1.390 . S
C406 H397 0.930 . S
C406 C404 1.384 . S
C406 C407 1.372 . S
C407 C406 1.372 . S
C407 C408 1.400 . S
C407 C412 1.490 . S
C408 H398 0.930 . S
C408 C407 1.400 . S
C408 C411 1.386 . S
H409 C425 0.930 . S
H410 C426 0.931 . S
C411 H399 0.929 . S
C411 C405 1.390 . S
C411 C408 1.386 . S
C412 C407 1.490 . S
C412 C414 1.395 . S
C412 C415 1.403 . S
H413 C419 0.930 . S
C414 H400 0.930 . S
C414 C412 1.395 . S
C414 C417 1.403 . S
C415 C412 1.403 . S
C415 C416 1.524 . S
C415 C419 1.400 . S
C416 H401 0.960 . S
C416 H402 0.960 . S
C416 H403 0.960 . S
C416 C415 1.524 . S
C417 C414 1.403 . S
C417 C418 1.392 . S
C417 C421 1.495 . S
C418 C417 1.392 . S
C418 C419 1.385 . S
C418 C420 1.478 . S
C419 H413 0.930 . S
C419 C415 1.400 . S
C419 C418 1.385 . S
C420 C418 1.478 . S
C420 C422 1.381 . S
C420 C426 1.383 . S
C421 C417 1.495 . S
C421 H427 0.959 . S
C421 H428 0.961 . S
C421 H429 0.960 . S
C422 C420 1.381 . S
C422 C423 1.394 . S
C422 H430 0.930 . S
C423 C422 1.394 . S
C423 C424 1.383 . S
C423 H431 0.929 . S
C424 C423 1.383 . S
C424 C425 1.377 . S
C425 H409 0.930 . S
C425 C424 1.377 . S
C425 C426 1.379 . S
C426 H410 0.931 . S
C426 C420 1.383 . S
C426 C425 1.379 . S
H427 C421 0.959 . S
H428 C421 0.961 . S
H429 C421 0.960 . S
H430 C422 0.930 . S
H431 C423 0.929 . S
H432 C440 0.929 . S
H433 C442 0.930 . S
H434 C444 0.930 . S
H435 C447 0.929 . S
H436 C450 0.930 . S
H437 C452 0.960 . S
H438 C452 0.960 . S
H439 C452 0.960 . S
C440 H432 0.929 . S
C440 C441 1.377 . S
C440 C442 1.384 . S
C441 C440 1.377 . S
C441 C447 1.390 . S
C442 H433 0.930 . S
C442 C440 1.384 . S
C442 C443 1.372 . S
C443 C442 1.372 . S
C443 C444 1.400 . S
C443 C448 1.490 . S
C444 H434 0.930 . S
C444 C443 1.400 . S
C444 C447 1.386 . S
H445 C461 0.930 . S
H446 C462 0.931 . S
C447 H435 0.929 . S
C447 C441 1.390 . S
C447 C444 1.386 . S
C448 C443 1.490 . S
C448 C450 1.395 . S
C448 C451 1.403 . S
H449 C455 0.930 . S
C450 H436 0.930 . S
C450 C448 1.395 . S
C450 C453 1.403 . S
C451 C448 1.403 . S
C451 C452 1.524 . S
C451 C455 1.400 . S
C452 H437 0.960 . S
C452 H438 0.960 . S
C452 H439 0.960 . S
C452 C451 1.524 . S
C453 C450 1.403 . S
C453 C454 1.392 . S
C453 C457 1.495 . S
C454 C453 1.392 . S
C454 C455 1.385 . S
C454 C456 1.478 . S
C455 H449 0.930 . S
C455 C451 1.400 . S
C455 C454 1.385 . S
C456 C454 1.478 . S
C456 C458 1.381 . S
C456 C462 1.383 . S
C457 C453 1.495 . S
C457 H463 0.959 . S
C457 H464 0.961 . S
C457 H465 0.960 . S
C458 C456 1.381 . S
C458 C459 1.394 . S
C458 H466 0.930 . S
C459 C458 1.394 . S
C459 C460 1.383 . S
C459 H467 0.929 . S
C460 C459 1.383 . S
C460 C461 1.377 . S
C461 H445 0.930 . S
C461 C460 1.377 . S
C461 C462 1.379 . S
C462 H446 0.931 . S
C462 C456 1.383 . S
C462 C461 1.379 . S
H463 C457 0.959 . S
H464 C457 0.961 . S
H465 C457 0.960 . S
H466 C458 0.930 . S
H467 C459 0.929 . S
H468 C476 0.929 . S
H469 C478 0.930 . S
H470 C480 0.930 . S
H471 C483 0.929 . S
H472 C486 0.930 . S
H473 C488 0.960 . S
H474 C488 0.960 . S
H475 C488 0.960 . S
C476 H468 0.929 . S
C476 C477 1.377 . S
C476 C478 1.384 . S
C477 C476 1.377 . S
C477 C483 1.390 . S
C478 H469 0.930 . S
C478 C476 1.384 . S
C478 C479 1.372 . S
C479 C478 1.372 . S
C479 C480 1.400 . S
C479 C484 1.490 . S
C480 H470 0.930 . S
C480 C479 1.400 . S
C480 C483 1.386 . S
H481 C497 0.930 . S
H482 C498 0.931 . S
C483 H471 0.929 . S
C483 C477 1.390 . S
C483 C480 1.386 . S
C484 C479 1.490 . S
C484 C486 1.395 . S
C484 C487 1.403 . S
H485 C491 0.930 . S
C486 H472 0.930 . S
C486 C484 1.395 . S
C486 C489 1.403 . S
C487 C484 1.403 . S
C487 C488 1.524 . S
C487 C491 1.400 . S
C488 H473 0.960 . S
C488 H474 0.960 . S
C488 H475 0.960 . S
C488 C487 1.524 . S
C489 C486 1.403 . S
C489 C490 1.392 . S
C489 C493 1.495 . S
C490 C489 1.392 . S
C490 C491 1.385 . S
C490 C492 1.478 . S
C491 H485 0.930 . S
C491 C487 1.400 . S
C491 C490 1.385 . S
C492 C490 1.478 . S
C492 C494 1.381 . S
C492 C498 1.383 . S
C493 C489 1.495 . S
C493 H499 0.959 . S
C493 H500 0.961 . S
C493 H501 0.960 . S
C494 C492 1.381 . S
C494 C495 1.394 . S
C494 H502 0.930 . S
C495 C494 1.394 . S
C495 C496 1.383 . S
C495 H503 0.929 . S
C496 C495 1.383 . S
C496 C497 1.377 . S
C497 H481 0.930 . S
C497 C496 1.377 . S
C497 C498 1.379 . S
C498 H482 0.931 . S
C498 C492 1.383 . S
C498 C497 1.379 . S
H499 C493 0.959 . S
H500 C493 0.961 . S
H501 C493 0.960 . S
H502 C494 0.930 . S
H503 C495 0.929 . S
H504 C512 0.929 . S
H505 C514 0.930 . S
H506 C516 0.930 . S
H507 C519 0.929 . S
H508 C522 0.930 . S
H509 C524 0.960 . S
H510 C524 0.960 . S
H511 C524 0.960 . S
C512 H504 0.929 . S
C512 C513 1.377 . S
C512 C514 1.384 . S
C513 C512 1.377 . S
C513 C519 1.390 . S
C514 H505 0.930 . S
C514 C512 1.384 . S
C514 C515 1.372 . S
C515 C514 1.372 . S
C515 C516 1.400 . S
C515 C520 1.490 . S
C516 H506 0.930 . S
C516 C515 1.400 . S
C516 C519 1.386 . S
H517 C533 0.930 . S
H518 C534 0.931 . S
C519 H507 0.929 . S
C519 C513 1.390 . S
C519 C516 1.386 . S
C520 C515 1.490 . S
C520 C522 1.395 . S
C520 C523 1.403 . S
H521 C527 0.930 . S
C522 H508 0.930 . S
C522 C520 1.395 . S
C522 C525 1.403 . S
C523 C520 1.403 . S
C523 C524 1.524 . S
C523 C527 1.400 . S
C524 H509 0.960 . S
C524 H510 0.960 . S
C524 H511 0.960 . S
C524 C523 1.524 . S
C525 C522 1.403 . S
C525 C526 1.392 . S
C525 C529 1.495 . S
C526 C525 1.392 . S
C526 C527 1.385 . S
C526 C528 1.478 . S
C527 H521 0.930 . S
C527 C523 1.400 . S
C527 C526 1.385 . S
C528 C526 1.478 . S
C528 C530 1.381 . S
C528 C534 1.383 . S
C529 C525 1.495 . S
C529 H535 0.959 . S
C529 H536 0.961 . S
C529 H537 0.960 . S
C530 C528 1.381 . S
C530 C531 1.394 . S
C530 H538 0.930 . S
C531 C530 1.394 . S
C531 C532 1.383 . S
C531 H539 0.929 . S
C532 C531 1.383 . S
C532 C533 1.377 . S
C533 H517 0.930 . S
C533 C532 1.377 . S
C533 C534 1.379 . S
C534 H518 0.931 . S
C534 C528 1.383 . S
C534 C533 1.379 . S
H535 C529 0.959 . S
H536 C529 0.961 . S
H537 C529 0.960 . S
H538 C530 0.930 . S
H539 C531 0.929 . S
H540 C548 0.929 . S
H541 C550 0.930 . S
H542 C552 0.930 . S
H543 C555 0.929 . S
H544 C558 0.930 . S
H545 C560 0.960 . S
H546 C560 0.960 . S
H547 C560 0.960 . S
C548 H540 0.929 . S
C548 C549 1.377 . S
C548 C550 1.384 . S
C549 C548 1.377 . S
C549 C555 1.390 . S
C550 H541 0.930 . S
C550 C548 1.384 . S
C550 C551 1.372 . S
C551 C550 1.372 . S
C551 C552 1.400 . S
C551 C556 1.490 . S
C552 H542 0.930 . S
C552 C551 1.400 . S
C552 C555 1.386 . S
H553 C569 0.930 . S
H554 C570 0.931 . S
C555 H543 0.929 . S
C555 C549 1.390 . S
C555 C552 1.386 . S
C556 C551 1.490 . S
C556 C558 1.395 . S
C556 C559 1.403 . S
H557 C563 0.930 . S
C558 H544 0.930 . S
C558 C556 1.395 . S
C558 C561 1.403 . S
C559 C556 1.403 . S
C559 C560 1.524 . S
C559 C563 1.400 . S
C560 H545 0.960 . S
C560 H546 0.960 . S
C560 H547 0.960 . S
C560 C559 1.524 . S
C561 C558 1.403 . S
C561 C562 1.392 . S
C561 C565 1.495 . S
C562 C561 1.392 . S
C562 C563 1.385 . S
C562 C564 1.494 . S
C563 H557 0.930 . S
C563 C559 1.400 . S
C563 C562 1.385 . S
C564 C562 1.494 . S
C564 C566 1.371 1_545 S
C564 C570 1.377 1_545 S
C565 C561 1.495 . S
C565 H571 0.959 . S
C565 H572 0.961 1_545 S
C565 H573 0.960 . S
C566 C564 1.371 1_565 S
C566 C567 1.394 . S
C566 H574 0.930 1_565 S
C567 C566 1.394 . S
C567 C568 1.383 . S
C567 H575 0.929 . S
C568 C567 1.383 . S
C568 C569 1.377 . S
C569 H553 0.930 . S
C569 C568 1.377 . S
C569 C570 1.379 . S
C570 H554 0.931 . S
C570 C564 1.377 1_565 S
C570 C569 1.379 . S
H571 C565 0.959 . S
H572 C565 0.961 1_565 S
H573 C565 0.960 . S
H574 C566 0.930 1_545 S
H575 C567 0.929 . S
H576 C584 0.929 . S
H577 C586 0.930 . S
H578 C588 0.930 . S
H579 C591 0.929 . S
H580 C594 0.930 . S
H581 C596 0.960 . S
H582 C596 0.960 . S
H583 C596 0.960 . S
C584 H576 0.929 . S
C584 C585 1.377 . S
C584 C586 1.384 . S
C585 C584 1.377 . S
C585 C591 1.390 . S
C586 H577 0.930 . S
C586 C584 1.384 . S
C586 C587 1.372 1_655 S
C587 C586 1.372 1_455 S
C587 C588 1.400 . S
C587 C592 1.490 . S
C588 H578 0.930 . S
C588 C587 1.400 . S
C588 C591 1.386 1_455 S
H589 C605 0.930 . S
H590 C606 0.931 . S
C591 H579 0.929 . S
C591 C585 1.390 . S
C591 C588 1.386 1_655 S
C592 C587 1.490 . S
C592 C594 1.395 . S
C592 C595 1.403 . S
H593 C599 0.930 . S
C594 H580 0.930 . S
C594 C592 1.395 . S
C594 C597 1.403 . S
C595 C592 1.403 . S
C595 C596 1.524 . S
C595 C599 1.400 . S
C596 H581 0.960 . S
C596 H582 0.960 . S
C596 H583 0.960 . S
C596 C595 1.524 . S
C597 C594 1.403 . S
C597 C598 1.392 . S
C597 C601 1.495 . S
C598 C597 1.392 . S
C598 C599 1.385 . S
C598 C600 1.478 . S
C599 H593 0.930 . S
C599 C595 1.400 . S
C599 C598 1.385 . S
C600 C598 1.478 . S
C600 C602 1.381 . S
C600 C606 1.383 . S
C601 C597 1.495 . S
C601 H607 0.959 . S
C601 H608 0.961 . S
C601 H609 0.960 . S
C602 C600 1.381 . S
C602 C603 1.394 . S
C602 H610 0.930 . S
C603 C602 1.394 . S
C603 C604 1.383 . S
C603 H611 0.929 . S
C604 C603 1.383 . S
C604 C605 1.377 . S
C605 H589 0.930 . S
C605 C604 1.377 . S
C605 C606 1.379 . S
C606 H590 0.931 . S
C606 C600 1.383 . S
C606 C605 1.379 . S
H607 C601 0.959 . S
H608 C601 0.961 . S
H609 C601 0.960 . S
H610 C602 0.930 . S
H611 C603 0.929 . S
H612 C620 0.929 . S
H613 C622 0.929 1_655 S
H614 C624 0.930 . S
H615 C627 0.929 . S
H616 C630 0.930 . S
H617 C632 0.960 . S
H618 C632 0.959 . S
H619 C632 0.960 1_455 S
C620 H612 0.929 . S
C620 C621 1.377 . S
C620 C622 1.384 . S
C621 C620 1.377 . S
C621 C627 1.390 . S
C622 H613 0.929 1_455 S
C622 C620 1.384 . S
C622 C623 1.372 1_455 S
C623 C622 1.372 1_655 S
C623 C624 1.400 1_655 S
C623 C628 1.490 . S
C624 H614 0.930 . S
C624 C623 1.400 1_455 S
C624 C627 1.386 . S
H625 C641 0.930 . S
H626 C642 0.931 . S
C627 H615 0.929 . S
C627 C621 1.390 . S
C627 C624 1.386 . S
C628 C623 1.490 . S
C628 C630 1.395 . S
C628 C631 1.403 . S
H629 C635 0.930 . S
C630 H616 0.930 . S
C630 C628 1.395 . S
C630 C633 1.403 . S
C631 C628 1.403 . S
C631 C632 1.524 . S
C631 C635 1.400 . S
C632 H617 0.960 . S
C632 H618 0.959 . S
C632 H619 0.960 1_655 S
C632 C631 1.524 . S
C633 C630 1.403 . S
C633 C634 1.392 . S
C633 C637 1.495 . S
C634 C633 1.392 . S
C634 C635 1.385 . S
C634 C636 1.478 . S
C635 H629 0.930 . S
C635 C631 1.400 . S
C635 C634 1.385 . S
C636 C634 1.478 . S
C636 C638 1.381 . S
C636 C642 1.383 1_545 S
C637 C633 1.495 . S
C637 H643 0.959 . S
C637 H644 0.961 . S
C637 H645 0.960 . S
C638 C636 1.381 . S
C638 C639 1.394 1_545 S
C638 H646 0.930 . S
C639 C638 1.394 1_565 S
C639 C640 1.383 . S
C639 H647 0.929 . S
C640 C639 1.383 . S
C640 C641 1.377 . S
C641 H625 0.930 . S
C641 C640 1.377 . S
C641 C642 1.379 . S
C642 H626 0.931 . S
C642 C636 1.383 1_565 S
C642 C641 1.379 . S
H643 C637 0.959 . S
H644 C637 0.961 . S
H645 C637 0.960 . S
H646 C638 0.930 . S
H647 C639 0.929 . S
H648 C656 0.929 . S
H649 C658 0.930 . S
H650 C660 0.930 1_565 S
H651 C663 0.929 . S
H652 C666 0.930 . S
H653 C668 0.960 . S
H654 C668 0.960 . S
H655 C668 0.960 . S
C656 H648 0.929 . S
C656 C657 1.377 . S
C656 C658 1.384 . S
C657 C656 1.377 . S
C657 C663 1.390 . S
C658 H649 0.930 . S
C658 C656 1.384 . S
C658 C659 1.372 1_545 S
C659 C658 1.372 1_565 S
C659 C660 1.400 1_565 S
C659 C664 1.490 . S
C660 H650 0.930 1_545 S
C660 C659 1.400 1_545 S
C660 C663 1.386 . S
H661 C677 0.930 . S
H662 C678 0.931 . S
C663 H651 0.929 . S
C663 C657 1.390 . S
C663 C660 1.386 . S
C664 C659 1.490 . S
C664 C666 1.395 . S
C664 C667 1.403 . S
H665 C671 0.930 . S
C666 H652 0.930 . S
C666 C664 1.395 . S
C666 C669 1.403 . S
C667 C664 1.403 . S
C667 C668 1.524 . S
C667 C671 1.400 . S
C668 H653 0.960 . S
C668 H654 0.960 . S
C668 H655 0.960 . S
C668 C667 1.524 . S
C669 C666 1.403 . S
C669 C670 1.392 . S
C669 C673 1.495 . S
C670 C669 1.392 . S
C670 C671 1.385 . S
C670 C672 1.478 . S
C671 H665 0.930 . S
C671 C667 1.400 . S
C671 C670 1.385 . S
C672 C670 1.478 . S
C672 C674 1.381 . S
C672 C678 1.383 . S
C673 C669 1.495 . S
C673 H679 0.959 . S
C673 H680 0.961 . S
C673 H681 0.960 . S
C674 C672 1.381 . S
C674 C675 1.394 . S
C674 H682 0.930 . S
C675 C674 1.394 . S
C675 C676 1.383 . S
C675 H683 0.929 . S
C676 C675 1.383 . S
C676 C677 1.377 . S
C677 H661 0.930 . S
C677 C676 1.377 . S
C677 C678 1.379 . S
C678 H662 0.931 . S
C678 C672 1.383 . S
C678 C677 1.379 . S
H679 C673 0.959 . S
H680 C673 0.961 . S
H681 C673 0.960 . S
H682 C674 0.930 . S
H683 C675 0.929 . S
H684 C692 0.929 . S
H685 C694 0.930 . S
H686 C696 0.930 . S
H687 C699 0.929 . S
H688 C702 0.930 . S
H689 C704 0.960 . S
H690 C704 0.960 . S
H691 C704 0.960 . S
C692 H684 0.929 . S
C692 C693 1.377 . S
C692 C694 1.384 . S
C693 C692 1.377 . S
C693 C699 1.390 . S
C694 H685 0.930 . S
C694 C692 1.384 . S
C694 C695 1.372 . S
C695 C694 1.372 . S
C695 C696 1.400 . S
C695 C700 1.490 . S
C696 H686 0.930 . S
C696 C695 1.400 . S
C696 C699 1.386 . S
H697 C713 0.930 . S
H698 C714 0.931 . S
C699 H687 0.929 . S
C699 C693 1.390 . S
C699 C696 1.386 . S
C700 C695 1.490 . S
C700 C702 1.395 . S
C700 C703 1.403 . S
H701 C707 0.930 . S
C702 H688 0.930 . S
C702 C700 1.395 . S
C702 C705 1.403 . S
C703 C700 1.403 . S
C703 C704 1.524 . S
C703 C707 1.400 . S
C704 H689 0.960 . S
C704 H690 0.960 . S
C704 H691 0.960 . S
C704 C703 1.524 . S
C705 C702 1.403 . S
C705 C706 1.392 . S
C705 C709 1.495 . S
C706 C705 1.392 . S
C706 C707 1.385 . S
C706 C708 1.478 . S
C707 H701 0.930 . S
C707 C703 1.400 . S
C707 C706 1.385 . S
C708 C706 1.478 . S
C708 C710 1.381 1_655 S
C708 C714 1.383 . S
C709 C705 1.495 . S
C709 H715 0.959 . S
C709 H716 0.961 . S
C709 H717 0.960 . S
C710 C708 1.381 1_455 S
C710 C711 1.394 . S
C710 H718 0.930 . S
C711 C710 1.394 . S
C711 C712 1.383 . S
C711 H719 0.929 . S
C712 C711 1.383 . S
C712 C713 1.377 . S
C713 H697 0.930 . S
C713 C712 1.377 . S
C713 C714 1.379 1_455 S
C714 H698 0.931 . S
C714 C708 1.383 . S
C714 C713 1.379 1_655 S
H715 C709 0.959 . S
H716 C709 0.961 . S
H717 C709 0.960 . S
H718 C710 0.930 . S
H719 C711 0.929 . S
H720 C728 0.929 . S
H721 C730 0.930 1_565 S
H722 C732 0.930 . S
H723 C735 0.929 . S
H724 C738 0.930 . S
H725 C740 0.960 . S
H726 C740 0.960 . S
H727 C740 0.960 . S
C728 H720 0.929 . S
C728 C729 1.377 . S
C728 C730 1.384 . S
C729 C728 1.377 . S
C729 C735 1.390 . S
C730 H721 0.930 1_545 S
C730 C728 1.384 . S
C730 C731 1.372 1_545 S
C731 C730 1.372 1_565 S
C731 C732 1.400 1_565 S
C731 C736 1.490 . S
C732 H722 0.930 . S
C732 C731 1.400 1_545 S
C732 C735 1.386 . S
H733 C749 0.930 . S
H734 C750 0.931 . S
C735 H723 0.929 . S
C735 C729 1.390 . S
C735 C732 1.386 . S
C736 C731 1.490 . S
C736 C738 1.395 . S
C736 C739 1.403 . S
H737 C743 0.930 . S
C738 H724 0.930 . S
C738 C736 1.395 . S
C738 C741 1.403 . S
C739 C736 1.403 . S
C739 C740 1.524 . S
C739 C743 1.400 . S
C740 H725 0.960 . S
C740 H726 0.960 . S
C740 H727 0.960 . S
C740 C739 1.524 . S
C741 C738 1.403 . S
C741 C742 1.392 . S
C741 C745 1.495 . S
C742 C741 1.392 . S
C742 C743 1.385 . S
C742 C744 1.472 1_455 S
C743 H737 0.930 . S
C743 C739 1.400 . S
C743 C742 1.385 . S
C744 C742 1.472 1_655 S
C744 C746 1.384 . S
C744 C750 1.386 . S
C745 C741 1.495 . S
C745 H751 0.959 . S
C745 H752 0.961 1_455 S
C745 H753 0.960 1_455 S
C746 C744 1.384 . S
C746 C747 1.394 . S
C746 H754 0.930 . S
C747 C746 1.394 . S
C747 C748 1.383 . S
C747 H755 0.929 . S
C748 C747 1.383 . S
C748 C749 1.377 . S
C749 H733 0.930 . S
C749 C748 1.377 . S
C749 C750 1.379 . S
C750 H734 0.931 . S
C750 C744 1.386 . S
C750 C749 1.379 . S
H751 C745 0.959 . S
H752 C745 0.961 1_655 S
H753 C745 0.960 1_655 S
H754 C746 0.930 . S
H755 C747 0.929 . S
H756 C764 0.929 . S
H757 C766 0.930 . S
H758 C768 0.930 . S
H759 C771 0.929 . S
H760 C774 0.930 . S
H761 C776 0.960 . S
H762 C776 0.960 . S
H763 C776 0.960 . S
C764 H756 0.929 . S
C764 C765 1.377 . S
C764 C766 1.384 . S
C765 C764 1.377 . S
C765 C771 1.390 . S
C766 H757 0.930 . S
C766 C764 1.384 . S
C766 C767 1.372 . S
C767 C766 1.372 . S
C767 C768 1.400 . S
C767 C772 1.490 . S
C768 H758 0.930 . S
C768 C767 1.400 . S
C768 C771 1.386 . S
H769 C785 0.930 . S
H770 C786 0.931 . S
C771 H759 0.929 . S
C771 C765 1.390 . S
C771 C768 1.386 . S
C772 C767 1.490 . S
C772 C774 1.395 . S
C772 C775 1.403 1_554 S
H773 C779 0.930 . S
C774 H760 0.930 . S
C774 C772 1.395 . S
C774 C777 1.403 . S
C775 C772 1.403 1_556 S
C775 C776 1.524 . S
C775 C779 1.400 . S
C776 H761 0.960 . S
C776 H762 0.960 . S
C776 H763 0.960 . S
C776 C775 1.524 . S
C777 C774 1.403 . S
C777 C778 1.392 1_554 S
C777 C781 1.495 . S
C778 C777 1.392 1_556 S
C778 C779 1.385 . S
C778 C780 1.478 . S
C779 H773 0.930 . S
C779 C775 1.400 . S
C779 C778 1.385 . S
C780 C778 1.478 . S
C780 C782 1.381 . S
C780 C786 1.383 . S
C781 C777 1.495 . S
C781 H787 0.959 . S
C781 H788 0.961 . S
C781 H789 0.960 . S
C782 C780 1.381 . S
C782 C783 1.394 . S
C782 H790 0.930 . S
C783 C782 1.394 . S
C783 C784 1.383 . S
C783 H791 0.929 . S
C784 C783 1.383 . S
C784 C785 1.377 . S
C785 H769 0.930 . S
C785 C784 1.377 . S
C785 C786 1.379 . S
C786 H770 0.931 . S
C786 C780 1.383 . S
C786 C785 1.379 . S
H787 C781 0.959 . S
H788 C781 0.961 . S
H789 C781 0.960 . S
H790 C782 0.930 . S
H791 C783 0.929 . S
H792 C800 0.929 . S
H793 C802 0.930 . S
H794 C804 0.930 . S
H795 C807 0.929 . S
H796 C810 0.930 . S
H797 C812 0.960 . S
H798 C812 0.960 . S
H799 C812 0.960 . S
C800 H792 0.929 . S
C800 C801 1.377 . S
C800 C802 1.384 . S
C801 C800 1.377 . S
C801 C807 1.390 . S
C802 H793 0.930 . S
C802 C800 1.384 . S
C802 C803 1.372 . S
C803 C802 1.372 . S
C803 C804 1.400 . S
C803 C808 1.490 . S
C804 H794 0.930 . S
C804 C803 1.400 . S
C804 C807 1.386 . S
H805 C821 0.930 . S
H806 C822 0.931 . S
C807 H795 0.929 . S
C807 C801 1.390 . S
C807 C804 1.386 . S
C808 C803 1.490 . S
C808 C810 1.395 1_655 S
C808 C811 1.403 . S
H809 C815 0.930 . S
C810 H796 0.930 . S
C810 C808 1.395 1_455 S
C810 C813 1.403 . S
C811 C808 1.403 . S
C811 C812 1.524 . S
C811 C815 1.400 . S
C812 H797 0.960 . S
C812 H798 0.960 . S
C812 H799 0.960 . S
C812 C811 1.524 . S
C813 C810 1.403 . S
C813 C814 1.392 . S
C813 C817 1.495 . S
C814 C813 1.392 . S
C814 C815 1.385 1_455 S
C814 C816 1.478 . S
C815 H809 0.930 . S
C815 C811 1.400 . S
C815 C814 1.385 1_655 S
C816 C814 1.478 . S
C816 C818 1.381 . S
C816 C822 1.383 . S
C817 C813 1.495 . S
C817 H823 0.959 . S
C817 H824 0.961 . S
C817 H825 0.960 . S
C818 C816 1.381 . S
C818 C819 1.394 . S
C818 H826 0.930 . S
C819 C818 1.394 . S
C819 C820 1.383 . S
C819 H827 0.929 . S
C820 C819 1.383 . S
C820 C821 1.377 . S
C821 H805 0.930 . S
C821 C820 1.377 . S
C821 C822 1.379 . S
C822 H806 0.931 . S
C822 C816 1.383 . S
C822 C821 1.379 . S
H823 C817 0.959 . S
H824 C817 0.961 . S
H825 C817 0.960 . S
H826 C818 0.930 . S
H827 C819 0.929 . S
H828 C836 0.929 . S
H829 C838 0.930 . S
H830 C840 0.930 . S
H831 C843 0.929 . S
H832 C846 0.930 . S
H833 C848 0.960 1_556 S
H834 C848 0.960 . S
H835 C848 0.960 . S
C836 H828 0.929 . S
C836 C837 1.377 . S
C836 C838 1.384 . S
C837 C836 1.377 . S
C837 C843 1.390 . S
C838 H829 0.930 . S
C838 C836 1.384 . S
C838 C839 1.372 . S
C839 C838 1.372 . S
C839 C840 1.400 . S
C839 C844 1.490 . S
C840 H830 0.930 . S
C840 C839 1.400 . S
C840 C843 1.386 . S
H841 C857 0.930 . S
H842 C858 0.931 . S
C843 H831 0.929 . S
C843 C837 1.390 . S
C843 C840 1.386 . S
C844 C839 1.490 . S
C844 C846 1.395 . S
C844 C847 1.403 . S
H845 C851 0.930 . S
C846 H832 0.930 . S
C846 C844 1.395 . S
C846 C849 1.403 1_564 S
C847 C844 1.403 . S
C847 C848 1.524 . S
C847 C851 1.400 1_564 S
C848 H833 0.960 1_554 S
C848 H834 0.960 . S
C848 H835 0.960 . S
C848 C847 1.524 . S
C849 C846 1.403 1_546 S
C849 C850 1.392 . S
C849 C853 1.495 . S
C850 C849 1.392 . S
C850 C851 1.385 . S
C850 C852 1.478 . S
C851 H845 0.930 . S
C851 C847 1.400 1_546 S
C851 C850 1.385 . S
C852 C850 1.478 . S
C852 C854 1.381 . S
C852 C858 1.383 . S
C853 C849 1.495 . S
C853 H859 0.959 1_556 S
C853 H860 0.961 . S
C853 H861 0.962 . S
C854 C852 1.381 . S
C854 C855 1.394 . S
C854 H862 0.930 . S
C855 C854 1.394 . S
C855 C856 1.383 . S
C855 H863 0.929 . S
C856 C855 1.383 . S
C856 C857 1.377 . S
C857 H841 0.930 . S
C857 C856 1.377 . S
C857 C858 1.379 . S
C858 H842 0.931 . S
C858 C852 1.383 . S
C858 C857 1.379 . S
H859 C853 0.959 1_554 S
H860 C853 0.961 . S
H861 C853 0.962 . S
H862 C854 0.930 . S
H863 C855 0.929 . S
H864 C872 0.929 . S
H865 C874 0.930 . S
H866 C876 0.930 . S
H867 C879 0.929 . S
H868 C882 0.930 . S
H869 C884 0.960 . S
H870 C884 0.960 . S
H871 C884 0.960 . S
C872 H864 0.929 . S
C872 C873 1.377 . S
C872 C874 1.384 . S
C873 C872 1.377 . S
C873 C879 1.390 . S
C874 H865 0.930 . S
C874 C872 1.384 . S
C874 C875 1.372 . S
C875 C874 1.372 . S
C875 C876 1.400 . S
C875 C880 1.490 . S
C876 H866 0.930 . S
C876 C875 1.400 . S
C876 C879 1.386 . S
H877 C893 0.930 . S
H878 C894 0.931 . S
C879 H867 0.929 . S
C879 C873 1.390 . S
C879 C876 1.386 . S
C880 C875 1.490 . S
C880 C882 1.395 . S
C880 C883 1.403 . S
H881 C887 0.930 . S
C882 H868 0.930 . S
C882 C880 1.395 . S
C882 C885 1.403 . S
C883 C880 1.403 . S
C883 C884 1.524 . S
C883 C887 1.400 . S
C884 H869 0.960 . S
C884 H870 0.960 . S
C884 H871 0.960 . S
C884 C883 1.524 . S
C885 C882 1.403 . S
C885 C886 1.392 . S
C885 C889 1.495 . S
C886 C885 1.392 . S
C886 C887 1.385 . S
C886 C888 1.478 . S
C887 H881 0.930 . S
C887 C883 1.400 . S
C887 C886 1.385 . S
C888 C886 1.478 . S
C888 C890 1.381 . S
C888 C894 1.383 . S
C889 C885 1.495 . S
C889 H895 0.959 . S
C889 H896 0.961 . S
C889 H897 0.960 . S
C890 C888 1.381 . S
C890 C891 1.394 . S
C890 H898 0.930 . S
C891 C890 1.394 . S
C891 C892 1.383 . S
C891 H899 0.929 . S
C892 C891 1.383 . S
C892 C893 1.377 . S
C893 H877 0.930 . S
C893 C892 1.377 . S
C893 C894 1.379 . S
C894 H878 0.931 . S
C894 C888 1.383 . S
C894 C893 1.379 . S
H895 C889 0.959 . S
H896 C889 0.961 . S
H897 C889 0.960 . S
H898 C890 0.930 . S
H899 C891 0.929 . S
H900 C908 0.929 . S
H901 C910 0.930 . S
H902 C912 0.930 . S
H903 C915 0.929 . S
H904 C918 0.930 . S
H905 C920 0.960 . S
H906 C920 0.960 1_556 S
H907 C920 0.960 . S
C908 H900 0.929 . S
C908 C909 1.377 . S
C908 C910 1.384 . S
C909 C908 1.377 . S
C909 C915 1.390 . S
C910 H901 0.930 . S
C910 C908 1.384 . S
C910 C911 1.372 . S
C911 C910 1.372 . S
C911 C912 1.400 . S
C911 C916 1.490 . S
C912 H902 0.930 . S
C912 C911 1.400 . S
C912 C915 1.386 . S
H913 C929 0.930 . S
H914 C930 0.931 . S
C915 H903 0.929 . S
C915 C909 1.390 . S
C915 C912 1.386 . S
C916 C911 1.490 . S
C916 C918 1.395 1_655 S
C916 C919 1.403 1_556 S
H917 C923 0.930 . S
C918 H904 0.930 . S
C918 C916 1.395 1_455 S
C918 C921 1.403 . S
C919 C916 1.403 1_554 S
C919 C920 1.524 . S
C919 C923 1.400 . S
C920 H905 0.960 . S
C920 H906 0.960 1_554 S
C920 H907 0.960 . S
C920 C919 1.524 . S
C921 C918 1.403 . S
C921 C922 1.392 1_556 S
C921 C925 1.495 . S
C922 C921 1.392 1_554 S
C922 C923 1.385 1_455 S
C922 C924 1.478 . S
C923 H917 0.930 . S
C923 C919 1.400 . S
C923 C922 1.385 1_655 S
C924 C922 1.478 . S
C924 C926 1.381 . S
C924 C930 1.383 . S
C925 C921 1.495 . S
C925 H931 0.959 . S
C925 H932 0.961 . S
C925 H933 0.960 . S
C926 C924 1.381 . S
C926 C927 1.394 . S
C926 H934 0.930 . S
C927 C926 1.394 . S
C927 C928 1.383 . S
C927 H935 0.929 . S
C928 C927 1.383 . S
C928 C929 1.377 . S
C929 H913 0.930 . S
C929 C928 1.377 . S
C929 C930 1.379 . S
C930 H914 0.931 . S
C930 C924 1.383 . S
C930 C929 1.379 . S
H931 C925 0.959 . S
H932 C925 0.961 . S
H933 C925 0.960 . S
H934 C926 0.930 . S
H935 C927 0.929 . S
H936 C944 0.929 . S
H937 C946 0.930 . S
H938 C948 0.930 . S
H939 C951 0.929 . S
H940 C954 0.930 . S
H941 C956 0.960 . S
H942 C956 0.960 . S
H943 C956 0.960 . S
C944 H936 0.929 . S
C944 C945 1.377 . S
C944 C946 1.384 . S
C945 C944 1.377 . S
C945 C951 1.390 . S
C946 H937 0.930 . S
C946 C944 1.384 . S
C946 C947 1.372 . S
C947 C946 1.372 . S
C947 C948 1.400 . S
C947 C952 1.490 . S
C948 H938 0.930 . S
C948 C947 1.400 . S
C948 C951 1.386 . S
H949 C965 0.930 . S
H950 C966 0.931 . S
C951 H939 0.929 . S
C951 C945 1.390 . S
C951 C948 1.386 . S
C952 C947 1.490 . S
C952 C954 1.395 . S
C952 C955 1.403 1_545 S
H953 C959 0.930 . S
C954 H940 0.930 . S
C954 C952 1.395 . S
C954 C957 1.403 . S
C955 C952 1.403 1_565 S
C955 C956 1.524 . S
C955 C959 1.400 . S
C956 H941 0.960 . S
C956 H942 0.960 . S
C956 H943 0.960 . S
C956 C955 1.524 . S
C957 C954 1.403 . S
C957 C958 1.392 1_545 S
C957 C961 1.495 . S
C958 C957 1.392 1_565 S
C958 C959 1.385 . S
C958 C960 1.478 . S
C959 H953 0.930 . S
C959 C955 1.400 . S
C959 C958 1.385 . S
C960 C958 1.478 . S
C960 C962 1.381 . S
C960 C966 1.383 . S
C961 C957 1.495 . S
C961 H967 0.959 . S
C961 H968 0.961 . S
C961 H969 0.960 . S
C962 C960 1.381 . S
C962 C963 1.394 . S
C962 H970 0.930 . S
C963 C962 1.394 . S
C963 C964 1.383 . S
C963 H971 0.929 . S
C964 C963 1.383 . S
C964 C965 1.377 . S
C965 H949 0.930 . S
C965 C964 1.377 . S
C965 C966 1.379 . S
C966 H950 0.931 . S
C966 C960 1.383 . S
C966 C965 1.379 . S
H967 C961 0.959 . S
H968 C961 0.961 . S
H969 C961 0.960 . S
H970 C962 0.930 . S
H971 C963 0.929 . S
H972 C980 0.929 . S
H973 C982 0.930 . S
H974 C984 0.930 . S
H975 C987 0.929 . S
H976 C990 0.930 . S
H977 C992 0.960 1_554 S
H978 C992 0.960 . S
H979 C992 0.960 . S
C980 H972 0.929 . S
C980 C981 1.377 . S
C980 C982 1.384 . S
C981 C980 1.377 . S
C981 C987 1.390 . S
C982 H973 0.930 . S
C982 C980 1.384 . S
C982 C983 1.372 . S
C983 C982 1.372 . S
C983 C984 1.400 . S
C983 C988 1.490 . S
C984 H974 0.930 . S
C984 C983 1.400 . S
C984 C987 1.386 . S
H985 C1001 0.930 . S
H986 C1002 0.931 . S
C987 H975 0.929 . S
C987 C981 1.390 . S
C987 C984 1.386 . S
C988 C983 1.490 . S
C988 C990 1.395 . S
C988 C991 1.403 . S
H989 C995 0.930 . S
C990 H976 0.930 . S
C990 C988 1.395 . S
C990 C993 1.403 1_556 S
C991 C988 1.403 . S
C991 C992 1.524 . S
C991 C995 1.400 1_556 S
C992 H977 0.960 1_556 S
C992 H978 0.960 . S
C992 H979 0.960 . S
C992 C991 1.524 . S
C993 C990 1.403 1_554 S
C993 C994 1.392 . S
C993 C997 1.495 . S
C994 C993 1.392 . S
C994 C995 1.385 . S
C994 C996 1.478 . S
C995 H989 0.930 . S
C995 C991 1.400 1_554 S
C995 C994 1.385 . S
C996 C994 1.478 . S
C996 C998 1.381 . S
C996 C1002 1.383 . S
C997 C993 1.495 . S
C997 H1003 0.959 1_554 S
C997 H1004 0.961 . S
C997 H1005 0.960 . S
C998 C996 1.381 . S
C998 C999 1.394 . S
C998 H1006 0.930 . S
C999 C998 1.394 . S
C999 C1000 1.383 . S
C999 H1007 0.929 . S
C1000 C999 1.383 . S
C1000 C1001 1.377 . S
C1001 H985 0.930 . S
C1001 C1000 1.377 . S
C1001 C1002 1.379 . S
C1002 H986 0.931 . S
C1002 C996 1.383 . S
C1002 C1001 1.379 . S
H1003 C997 0.959 1_556 S
H1004 C997 0.961 . S
H1005 C997 0.960 . S
H1006 C998 0.930 . S
H1007 C999 0.929 . S
H1008 C1016 0.929 . S
H1009 C1018 0.930 . S
H1010 C1020 0.930 . S
H1011 C1023 0.929 . S
H1012 C1026 0.930 . S
H1013 C1028 0.965 . S
H1014 C1028 0.960 . S
H1015 C1028 0.960 . S
C1016 H1008 0.929 . S
C1016 C1017 1.377 . S
C1016 C1018 1.384 . S
C1017 C1016 1.377 . S
C1017 C1023 1.390 . S
C1018 H1009 0.930 . S
C1018 C1016 1.384 . S
C1018 C1019 1.372 . S
C1019 C1018 1.372 . S
C1019 C1020 1.400 . S
C1019 C1024 1.490 . S
C1020 H1010 0.930 . S
C1020 C1019 1.400 . S
C1020 C1023 1.386 . S
H1021 C1037 0.930 . S
H1022 C1038 0.931 . S
C1023 H1011 0.929 . S
C1023 C1017 1.390 . S
C1023 C1020 1.386 . S
C1024 C1019 1.490 . S
C1024 C1026 1.395 . S
C1024 C1027 1.403 . S
H1025 C1031 0.930 . S
C1026 H1012 0.930 . S
C1026 C1024 1.395 . S
C1026 C1029 1.403 1_455 S
C1027 C1024 1.403 . S
C1027 C1028 1.524 . S
C1027 C1031 1.400 1_455 S
C1028 H1013 0.965 . S
C1028 H1014 0.960 . S
C1028 H1015 0.960 . S
C1028 C1027 1.524 . S
C1029 C1026 1.403 1_655 S
C1029 C1030 1.392 . S
C1029 C1033 1.495 . S
C1030 C1029 1.392 . S
C1030 C1031 1.385 . S
C1030 C1032 1.478 . S
C1031 H1025 0.930 . S
C1031 C1027 1.400 1_655 S
C1031 C1030 1.385 . S
C1032 C1030 1.478 . S
C1032 C1034 1.381 . S
C1032 C1038 1.383 . S
C1033 C1029 1.495 . S
C1033 H1039 0.959 1_655 S
C1033 H1040 0.961 . S
C1033 H1041 0.960 . S
C1034 C1032 1.381 . S
C1034 C1035 1.394 . S
C1034 H1042 0.930 . S
C1035 C1034 1.394 . S
C1035 C1036 1.383 . S
C1035 H1043 0.929 . S
C1036 C1035 1.383 . S
C1036 C1037 1.377 . S
C1037 H1021 0.930 . S
C1037 C1036 1.377 . S
C1037 C1038 1.379 . S
C1038 H1022 0.931 . S
C1038 C1032 1.383 . S
C1038 C1037 1.379 . S
H1039 C1033 0.959 1_455 S
H1040 C1033 0.961 . S
H1041 C1033 0.960 . S
H1042 C1034 0.930 . S
H1043 C1035 0.929 . S
H1044 C1052 0.929 . S
H1045 C1054 0.930 . S
H1046 C1056 0.930 . S
H1047 C1059 0.929 . S
H1048 C1062 0.930 . S
H1049 C1064 0.960 . S
H1050 C1064 0.960 . S
H1051 C1064 0.960 . S
C1052 H1044 0.929 . S
C1052 C1053 1.377 . S
C1052 C1054 1.384 . S
C1053 C1052 1.377 . S
C1053 C1059 1.390 . S
C1054 H1045 0.930 . S
C1054 C1052 1.384 . S
C1054 C1055 1.372 . S
C1055 C1054 1.372 . S
C1055 C1056 1.400 . S
C1055 C1060 1.490 . S
C1056 H1046 0.930 . S
C1056 C1055 1.400 . S
C1056 C1059 1.386 . S
H1057 C1073 0.930 . S
H1058 C1074 0.931 . S
C1059 H1047 0.929 . S
C1059 C1053 1.390 . S
C1059 C1056 1.386 . S
C1060 C1055 1.490 . S
C1060 C1062 1.395 . S
C1060 C1063 1.403 . S
H1061 C1067 0.930 . S
C1062 H1048 0.930 . S
C1062 C1060 1.395 . S
C1062 C1065 1.403 1_546 S
C1063 C1060 1.403 . S
C1063 C1064 1.524 . S
C1063 C1067 1.400 1_546 S
C1064 H1049 0.960 . S
C1064 H1050 0.960 . S
C1064 H1051 0.960 . S
C1064 C1063 1.524 . S
C1065 C1062 1.403 1_564 S
C1065 C1066 1.392 . S
C1065 C1069 1.495 . S
C1066 C1065 1.392 . S
C1066 C1067 1.385 . S
C1066 C1068 1.478 . S
C1067 H1061 0.930 . S
C1067 C1063 1.400 1_564 S
C1067 C1066 1.385 . S
C1068 C1066 1.478 . S
C1068 C1070 1.381 . S
C1068 C1074 1.383 . S
C1069 C1065 1.495 . S
C1069 H1075 0.959 . S
C1069 H1076 0.961 . S
C1069 H1077 0.960 . S
C1070 C1068 1.381 . S
C1070 C1071 1.394 . S
C1070 H1078 0.930 . S
C1071 C1070 1.394 . S
C1071 C1072 1.383 . S
C1071 H1079 0.929 . S
C1072 C1071 1.383 . S
C1072 C1073 1.377 . S
C1073 H1057 0.930 . S
C1073 C1072 1.377 . S
C1073 C1074 1.379 . S
C1074 H1058 0.931 . S
C1074 C1068 1.383 . S
C1074 C1073 1.379 . S
H1075 C1069 0.959 . S
H1076 C1069 0.961 . S
H1077 C1069 0.960 . S
H1078 C1070 0.930 . S
H1079 C1071 0.929 . S
H1080 C1088 0.929 . S
H1081 C1090 0.930 . S
H1082 C1092 0.930 . S
H1083 C1095 0.929 . S
H1084 C1098 0.930 . S
H1085 C1100 0.960 . S
H1086 C1100 0.960 . S
H1087 C1100 0.960 . S
C1088 H1080 0.929 . S
C1088 C1089 1.377 . S
C1088 C1090 1.384 . S
C1089 C1088 1.377 . S
C1089 C1095 1.390 . S
C1090 H1081 0.930 . S
C1090 C1088 1.384 . S
C1090 C1091 1.372 . S
C1091 C1090 1.372 . S
C1091 C1092 1.400 . S
C1091 C1096 1.490 . S
C1092 H1082 0.930 . S
C1092 C1091 1.400 . S
C1092 C1095 1.386 . S
H1093 C1109 0.930 . S
H1094 C1110 0.931 . S
C1095 H1083 0.929 . S
C1095 C1089 1.390 . S
C1095 C1092 1.386 . S
C1096 C1091 1.490 . S
C1096 C1098 1.395 . S
C1096 C1099 1.403 . S
H1097 C1103 0.930 . S
C1098 H1084 0.930 . S
C1098 C1096 1.395 . S
C1098 C1101 1.403 . S
C1099 C1096 1.403 . S
C1099 C1100 1.524 . S
C1099 C1103 1.400 . S
C1100 H1085 0.960 . S
C1100 H1086 0.960 . S
C1100 H1087 0.960 . S
C1100 C1099 1.524 . S
C1101 C1098 1.403 . S
C1101 C1102 1.392 . S
C1101 C1105 1.495 . S
C1102 C1101 1.392 . S
C1102 C1103 1.385 . S
C1102 C1104 1.478 . S
C1103 H1097 0.930 . S
C1103 C1099 1.400 . S
C1103 C1102 1.385 . S
C1104 C1102 1.478 . S
C1104 C1106 1.381 . S
C1104 C1110 1.383 . S
C1105 C1101 1.495 . S
C1105 H1111 0.959 . S
C1105 H1112 0.961 . S
C1105 H1113 0.960 . S
C1106 C1104 1.381 . S
C1106 C1107 1.394 . S
C1106 H1114 0.930 . S
C1107 C1106 1.394 . S
C1107 C1108 1.383 . S
C1107 H1115 0.929 . S
C1108 C1107 1.383 . S
C1108 C1109 1.377 . S
C1109 H1093 0.930 . S
C1109 C1108 1.377 . S
C1109 C1110 1.379 . S
C1110 H1094 0.931 . S
C1110 C1104 1.383 . S
C1110 C1109 1.379 . S
H1111 C1105 0.959 . S
H1112 C1105 0.961 . S
H1113 C1105 0.960 . S
H1114 C1106 0.930 . S
H1115 C1107 0.929 . S
H1116 C1124 0.929 . S
H1117 C1126 0.930 . S
H1118 C1128 0.930 . S
H1119 C1131 0.929 . S
H1120 C1134 0.930 . S
H1121 C1136 0.960 1_556 S
H1122 C1136 0.960 . S
H1123 C1136 0.960 . S
C1124 H1116 0.929 . S
C1124 C1125 1.377 . S
C1124 C1126 1.384 . S
C1125 C1124 1.377 . S
C1125 C1131 1.390 . S
C1126 H1117 0.930 . S
C1126 C1124 1.384 . S
C1126 C1127 1.372 . S
C1127 C1126 1.372 . S
C1127 C1128 1.400 . S
C1127 C1132 1.490 . S
C1128 H1118 0.930 . S
C1128 C1127 1.400 . S
C1128 C1131 1.386 . S
H1129 C1145 0.930 . S
H1130 C1146 0.931 . S
C1131 H1119 0.929 . S
C1131 C1125 1.390 . S
C1131 C1128 1.386 . S
C1132 C1127 1.490 . S
C1132 C1134 1.395 1_455 S
C1132 C1135 1.403 . S
H1133 C1139 0.928 1_455 S
C1134 H1120 0.930 . S
C1134 C1132 1.395 1_655 S
C1134 C1137 1.403 . S
C1135 C1132 1.403 . S
C1135 C1136 1.524 . S
C1135 C1139 1.397 1_454 S
C1136 H1121 0.960 1_554 S
C1136 H1122 0.960 . S
C1136 H1123 0.960 . S
C1136 C1135 1.524 . S
C1137 C1134 1.403 . S
C1137 C1138 1.392 1_554 S
C1137 C1141 1.495 . S
C1138 C1137 1.392 1_556 S
C1138 C1139 1.390 . S
C1138 C1140 1.478 . S
C1139 H1133 0.928 1_655 S
C1139 C1135 1.397 1_656 S
C1139 C1138 1.390 . S
C1140 C1138 1.478 . S
C1140 C1142 1.381 . S
C1140 C1146 1.383 . S
C1141 C1137 1.495 . S
C1141 H1147 0.959 . S
C1141 H1148 0.961 1_554 S
C1141 H1149 0.960 . S
C1142 C1140 1.381 . S
C1142 C1143 1.394 . S
C1142 H1150 0.930 . S
C1143 C1142 1.394 . S
C1143 C1144 1.383 . S
C1143 H1151 0.929 . S
C1144 C1143 1.383 . S
C1144 C1145 1.377 . S
C1145 H1129 0.930 . S
C1145 C1144 1.377 . S
C1145 C1146 1.379 . S
C1146 H1130 0.931 . S
C1146 C1140 1.383 . S
C1146 C1145 1.379 . S
H1147 C1141 0.959 . S
H1148 C1141 0.961 1_556 S
H1149 C1141 0.960 . S
H1150 C1142 0.930 . S
H1151 C1143 0.929 . S
H1152 C1160 0.929 . S
H1153 C1162 0.930 . S
H1154 C1164 0.930 . S
H1155 C1167 0.929 . S
H1156 C1170 0.930 . S
H1157 C1172 0.960 . S
H1158 C1172 0.960 . S
H1159 C1172 0.960 . S
C1160 H1152 0.929 . S
C1160 C1161 1.377 . S
C1160 C1162 1.384 . S
C1161 C1160 1.377 . S
C1161 C1167 1.390 . S
C1162 H1153 0.930 . S
C1162 C1160 1.384 . S
C1162 C1163 1.372 . S
C1163 C1162 1.372 . S
C1163 C1164 1.400 . S
C1163 C1168 1.490 . S
C1164 H1154 0.930 . S
C1164 C1163 1.400 . S
C1164 C1167 1.386 . S
H1165 C1181 0.930 . S
H1166 C1182 0.931 . S
C1167 H1155 0.929 . S
C1167 C1161 1.390 . S
C1167 C1164 1.386 . S
C1168 C1163 1.490 . S
C1168 C1170 1.395 1_545 S
C1168 C1171 1.403 . S
H1169 C1175 0.930 . S
C1170 H1156 0.930 . S
C1170 C1168 1.395 1_565 S
C1170 C1173 1.403 . S
C1171 C1168 1.403 . S
C1171 C1172 1.524 . S
C1171 C1175 1.400 . S
C1172 H1157 0.960 . S
C1172 H1158 0.960 . S
C1172 H1159 0.960 . S
C1172 C1171 1.524 . S
C1173 C1170 1.403 . S
C1173 C1174 1.392 . S
C1173 C1177 1.495 . S
C1174 C1173 1.392 . S
C1174 C1175 1.385 1_565 S
C1174 C1176 1.478 . S
C1175 H1169 0.930 . S
C1175 C1171 1.400 . S
C1175 C1174 1.385 1_545 S
C1176 C1174 1.478 . S
C1176 C1178 1.381 . S
C1176 C1182 1.383 . S
C1177 C1173 1.495 . S
C1177 H1183 0.959 . S
C1177 H1184 0.961 . S
C1177 H1185 0.960 . S
C1178 C1176 1.381 . S
C1178 C1179 1.394 . S
C1178 H1186 0.930 . S
C1179 C1178 1.394 . S
C1179 C1180 1.383 . S
C1179 H1187 0.929 . S
C1180 C1179 1.383 . S
C1180 C1181 1.377 . S
C1181 H1165 0.930 . S
C1181 C1180 1.377 . S
C1181 C1182 1.379 . S
C1182 H1166 0.931 . S
C1182 C1176 1.383 . S
C1182 C1181 1.379 . S
H1183 C1177 0.959 . S
H1184 C1177 0.961 . S
H1185 C1177 0.960 . S
H1186 C1178 0.930 . S
H1187 C1179 0.929 . S
C333 C32 1.995 . S
C352 C229 2.011 . S
C369 C302 2.001 . S
C388 C67 1.987 . S
C405 C13 1.994 . S
C424 C140 2.012 . S
C441 C86 1.995 . S
C460 C175 2.011 . S
C477 C248 1.994 . S
C496 C121 1.995 . S
C513 C283 1.999 . S
C532 C194 1.976 . S
C549 C22 1.006 . S
C568 C221 1.028 . S
C585 C59 1.021 . S
C604 C292 1.021 . S
C621 C5 1.010 . S
C640 C130 0.977 . S
C657 C76 1.013 . S
C676 C167 1.051 . S
C693 C113 1.020 . S
C712 C238 1.036 . S
C729 C275 1.008 . S
C748 C184 1.042 . S
C765 C10 2.447 . S
C784 C280 2.454 . S
C801 C81 2.447 . S
C820 C27 2.454 . S
C837 C118 2.444 . S
C856 C64 2.439 . S
C873 C189 2.442 . S
C892 C135 2.431 . S
C909 C172 2.445 . S
C928 C226 2.447 . S
C945 C297 2.442 . S
C964 C243 2.427 . S
C981 C190 0.553 . S
C1000 C136 0.605 . S
C1017 C251 0.564 . S
C1036 C197 0.512 . S
C1053 C298 0.561 . S
C1072 C244 0.511 . S
C1089 C305 0.566 . S
C1108 C35 0.516 . S
C1125 C28 0.551 . S
C1144 C82 0.598 . S
C1161 C89 0.550 . S
C1180 C143 0.549 . S
