# Generated by pormake.
# Topology wne, (6)-cn, num edge types: 1
# Building blocks:
#     Node 0, Type 0, BuildingBlock: CUKXOW_clean_sbu_0, # of connection points: 6
#     Node 1, Type 0, BuildingBlock: CUKXOW_clean_sbu_0, # of connection points: 6
#     Node 2, Type 0, BuildingBlock: CUKXOW_clean_sbu_0, # of connection points: 6
#     Node 3, Type 0, BuildingBlock: CUKXOW_clean_sbu_0, # of connection points: 6
#     Node 4, Type 0, BuildingBlock: CUKXOW_clean_sbu_0, # of connection points: 6
#     Node 5, Type 0, BuildingBlock: CUKXOW_clean_sbu_0, # of connection points: 6
#     Node 6, Type 0, BuildingBlock: CUKXOW_clean_sbu_0, # of connection points: 6
#     Node 7, Type 0, BuildingBlock: CUKXOW_clean_sbu_0, # of connection points: 6
#     Node 8, Type 0, BuildingBlock: CUKXOW_clean_sbu_0, # of connection points: 6
#     Node 9, Type 0, BuildingBlock: CUKXOW_clean_sbu_0, # of connection points: 6
#     Node 10, Type 0, BuildingBlock: CUKXOW_clean_sbu_0, # of connection points: 6
#     Node 11, Type 0, BuildingBlock: CUKXOW_clean_sbu_0, # of connection points: 6
#     Node 12, Type 0, BuildingBlock: CUKXOW_clean_sbu_0, # of connection points: 6
#     Node 13, Type 0, BuildingBlock: CUKXOW_clean_sbu_0, # of connection points: 6
#     Node 14, Type 0, BuildingBlock: CUKXOW_clean_sbu_0, # of connection points: 6
#     Node 15, Type 0, BuildingBlock: CUKXOW_clean_sbu_0, # of connection points: 6
#     Node 16, Type 0, BuildingBlock: CUKXOW_clean_sbu_0, # of connection points: 6
#     Node 17, Type 0, BuildingBlock: CUKXOW_clean_sbu_0, # of connection points: 6
#     Node 18, Type 0, BuildingBlock: CUKXOW_clean_sbu_0, # of connection points: 6
#     Node 19, Type 0, BuildingBlock: CUKXOW_clean_sbu_0, # of connection points: 6
#     Node 20, Type 0, BuildingBlock: CUKXOW_clean_sbu_0, # of connection points: 6
#     Node 21, Type 0, BuildingBlock: CUKXOW_clean_sbu_0, # of connection points: 6
#     Node 22, Type 0, BuildingBlock: CUKXOW_clean_sbu_0, # of connection points: 6
#     Node 23, Type 0, BuildingBlock: CUKXOW_clean_sbu_0, # of connection points: 6
#     Node 24, Type 0, BuildingBlock: CUKXOW_clean_sbu_0, # of connection points: 6
#     Node 25, Type 0, BuildingBlock: CUKXOW_clean_sbu_0, # of connection points: 6
#     Node 26, Type 0, BuildingBlock: CUKXOW_clean_sbu_0, # of connection points: 6
#     Node 27, Type 0, BuildingBlock: CUKXOW_clean_sbu_0, # of connection points: 6
#     Node 28, Type 0, BuildingBlock: CUKXOW_clean_sbu_0, # of connection points: 6
#     Node 29, Type 0, BuildingBlock: CUKXOW_clean_sbu_0, # of connection points: 6
#     Node 30, Type 0, BuildingBlock: CUKXOW_clean_sbu_0, # of connection points: 6
#     Node 31, Type 0, BuildingBlock: CUKXOW_clean_sbu_0, # of connection points: 6
#     Node 32, Type 0, BuildingBlock: CUKXOW_clean_sbu_0, # of connection points: 6
#     Node 33, Type 0, BuildingBlock: CUKXOW_clean_sbu_0, # of connection points: 6
#     Node 34, Type 0, BuildingBlock: CUKXOW_clean_sbu_0, # of connection points: 6
#     Node 35, Type 0, BuildingBlock: CUKXOW_clean_sbu_0, # of connection points: 6
#     Edge 36, Type (0, 0), BuildingBlock: XIVTED_clean_linker_0, # of connection points: 2
#     Edge 37, Type (0, 0), BuildingBlock: XIVTED_clean_linker_0, # of connection points: 2
#     Edge 38, Type (0, 0), BuildingBlock: XIVTED_clean_linker_0, # of connection points: 2
#     Edge 39, Type (0, 0), BuildingBlock: XIVTED_clean_linker_0, # of connection points: 2
#     Edge 40, Type (0, 0), BuildingBlock: XIVTED_clean_linker_0, # of connection points: 2
#     Edge 41, Type (0, 0), BuildingBlock: XIVTED_clean_linker_0, # of connection points: 2
#     Edge 42, Type (0, 0), BuildingBlock: XIVTED_clean_linker_0, # of connection points: 2
#     Edge 43, Type (0, 0), BuildingBlock: XIVTED_clean_linker_0, # of connection points: 2
#     Edge 44, Type (0, 0), BuildingBlock: XIVTED_clean_linker_0, # of connection points: 2
#     Edge 45, Type (0, 0), BuildingBlock: XIVTED_clean_linker_0, # of connection points: 2
#     Edge 46, Type (0, 0), BuildingBlock: XIVTED_clean_linker_0, # of connection points: 2
#     Edge 47, Type (0, 0), BuildingBlock: XIVTED_clean_linker_0, # of connection points: 2
#     Edge 48, Type (0, 0), BuildingBlock: XIVTED_clean_linker_0, # of connection points: 2
#     Edge 49, Type (0, 0), BuildingBlock: XIVTED_clean_linker_0, # of connection points: 2
#     Edge 50, Type (0, 0), BuildingBlock: XIVTED_clean_linker_0, # of connection points: 2
#     Edge 51, Type (0, 0), BuildingBlock: XIVTED_clean_linker_0, # of connection points: 2
#     Edge 52, Type (0, 0), BuildingBlock: XIVTED_clean_linker_0, # of connection points: 2
#     Edge 53, Type (0, 0), BuildingBlock: XIVTED_clean_linker_0, # of connection points: 2
#     Edge 54, Type (0, 0), BuildingBlock: XIVTED_clean_linker_0, # of connection points: 2
#     Edge 55, Type (0, 0), BuildingBlock: XIVTED_clean_linker_0, # of connection points: 2
#     Edge 56, Type (0, 0), BuildingBlock: XIVTED_clean_linker_0, # of connection points: 2
#     Edge 57, Type (0, 0), BuildingBlock: XIVTED_clean_linker_0, # of connection points: 2
#     Edge 58, Type (0, 0), BuildingBlock: XIVTED_clean_linker_0, # of connection points: 2
#     Edge 59, Type (0, 0), BuildingBlock: XIVTED_clean_linker_0, # of connection points: 2
#     Edge 60, Type (0, 0), BuildingBlock: XIVTED_clean_linker_0, # of connection points: 2
#     Edge 61, Type (0, 0), BuildingBlock: XIVTED_clean_linker_0, # of connection points: 2
#     Edge 62, Type (0, 0), BuildingBlock: XIVTED_clean_linker_0, # of connection points: 2
#     Edge 63, Type (0, 0), BuildingBlock: XIVTED_clean_linker_0, # of connection points: 2
#     Edge 64, Type (0, 0), BuildingBlock: XIVTED_clean_linker_0, # of connection points: 2
#     Edge 65, Type (0, 0), BuildingBlock: XIVTED_clean_linker_0, # of connection points: 2
#     Edge 66, Type (0, 0), BuildingBlock: XIVTED_clean_linker_0, # of connection points: 2
#     Edge 67, Type (0, 0), BuildingBlock: XIVTED_clean_linker_0, # of connection points: 2
#     Edge 68, Type (0, 0), BuildingBlock: XIVTED_clean_linker_0, # of connection points: 2
#     Edge 69, Type (0, 0), BuildingBlock: XIVTED_clean_linker_0, # of connection points: 2
#     Edge 70, Type (0, 0), BuildingBlock: XIVTED_clean_linker_0, # of connection points: 2
#     Edge 71, Type (0, 0), BuildingBlock: XIVTED_clean_linker_0, # of connection points: 2
#     Edge 72, Type (0, 0), BuildingBlock: XIVTED_clean_linker_0, # of connection points: 2
#     Edge 73, Type (0, 0), BuildingBlock: XIVTED_clean_linker_0, # of connection points: 2
#     Edge 74, Type (0, 0), BuildingBlock: XIVTED_clean_linker_0, # of connection points: 2
#     Edge 75, Type (0, 0), BuildingBlock: XIVTED_clean_linker_0, # of connection points: 2
#     Edge 76, Type (0, 0), BuildingBlock: XIVTED_clean_linker_0, # of connection points: 2
#     Edge 77, Type (0, 0), BuildingBlock: XIVTED_clean_linker_0, # of connection points: 2
#     Edge 78, Type (0, 0), BuildingBlock: XIVTED_clean_linker_0, # of connection points: 2
#     Edge 79, Type (0, 0), BuildingBlock: XIVTED_clean_linker_0, # of connection points: 2
#     Edge 80, Type (0, 0), BuildingBlock: XIVTED_clean_linker_0, # of connection points: 2
#     Edge 81, Type (0, 0), BuildingBlock: XIVTED_clean_linker_0, # of connection points: 2
#     Edge 82, Type (0, 0), BuildingBlock: XIVTED_clean_linker_0, # of connection points: 2
#     Edge 83, Type (0, 0), BuildingBlock: XIVTED_clean_linker_0, # of connection points: 2
#     Edge 84, Type (0, 0), BuildingBlock: XIVTED_clean_linker_0, # of connection points: 2
#     Edge 85, Type (0, 0), BuildingBlock: XIVTED_clean_linker_0, # of connection points: 2
#     Edge 86, Type (0, 0), BuildingBlock: XIVTED_clean_linker_0, # of connection points: 2
#     Edge 87, Type (0, 0), BuildingBlock: XIVTED_clean_linker_0, # of connection points: 2
#     Edge 88, Type (0, 0), BuildingBlock: XIVTED_clean_linker_0, # of connection points: 2
#     Edge 89, Type (0, 0), BuildingBlock: XIVTED_clean_linker_0, # of connection points: 2
#     Edge 90, Type (0, 0), BuildingBlock: XIVTED_clean_linker_0, # of connection points: 2
#     Edge 91, Type (0, 0), BuildingBlock: XIVTED_clean_linker_0, # of connection points: 2
#     Edge 92, Type (0, 0), BuildingBlock: XIVTED_clean_linker_0, # of connection points: 2
#     Edge 93, Type (0, 0), BuildingBlock: XIVTED_clean_linker_0, # of connection points: 2
#     Edge 94, Type (0, 0), BuildingBlock: XIVTED_clean_linker_0, # of connection points: 2
#     Edge 95, Type (0, 0), BuildingBlock: XIVTED_clean_linker_0, # of connection points: 2
#     Edge 96, Type (0, 0), BuildingBlock: XIVTED_clean_linker_0, # of connection points: 2
#     Edge 97, Type (0, 0), BuildingBlock: XIVTED_clean_linker_0, # of connection points: 2
#     Edge 98, Type (0, 0), BuildingBlock: XIVTED_clean_linker_0, # of connection points: 2
#     Edge 99, Type (0, 0), BuildingBlock: XIVTED_clean_linker_0, # of connection points: 2
#     Edge 100, Type (0, 0), BuildingBlock: XIVTED_clean_linker_0, # of connection points: 2
#     Edge 101, Type (0, 0), BuildingBlock: XIVTED_clean_linker_0, # of connection points: 2
#     Edge 102, Type (0, 0), BuildingBlock: XIVTED_clean_linker_0, # of connection points: 2
#     Edge 103, Type (0, 0), BuildingBlock: XIVTED_clean_linker_0, # of connection points: 2
#     Edge 104, Type (0, 0), BuildingBlock: XIVTED_clean_linker_0, # of connection points: 2
#     Edge 105, Type (0, 0), BuildingBlock: XIVTED_clean_linker_0, # of connection points: 2
#     Edge 106, Type (0, 0), BuildingBlock: XIVTED_clean_linker_0, # of connection points: 2
#     Edge 107, Type (0, 0), BuildingBlock: XIVTED_clean_linker_0, # of connection points: 2
#     Edge 108, Type (0, 0), BuildingBlock: XIVTED_clean_linker_0, # of connection points: 2
#     Edge 109, Type (0, 0), BuildingBlock: XIVTED_clean_linker_0, # of connection points: 2
#     Edge 110, Type (0, 0), BuildingBlock: XIVTED_clean_linker_0, # of connection points: 2
#     Edge 111, Type (0, 0), BuildingBlock: XIVTED_clean_linker_0, # of connection points: 2
#     Edge 112, Type (0, 0), BuildingBlock: XIVTED_clean_linker_0, # of connection points: 2
#     Edge 113, Type (0, 0), BuildingBlock: XIVTED_clean_linker_0, # of connection points: 2
#     Edge 114, Type (0, 0), BuildingBlock: XIVTED_clean_linker_0, # of connection points: 2
#     Edge 115, Type (0, 0), BuildingBlock: XIVTED_clean_linker_0, # of connection points: 2
#     Edge 116, Type (0, 0), BuildingBlock: XIVTED_clean_linker_0, # of connection points: 2
#     Edge 117, Type (0, 0), BuildingBlock: XIVTED_clean_linker_0, # of connection points: 2
#     Edge 118, Type (0, 0), BuildingBlock: XIVTED_clean_linker_0, # of connection points: 2
#     Edge 119, Type (0, 0), BuildingBlock: XIVTED_clean_linker_0, # of connection points: 2
#     Edge 120, Type (0, 0), BuildingBlock: XIVTED_clean_linker_0, # of connection points: 2
#     Edge 121, Type (0, 0), BuildingBlock: XIVTED_clean_linker_0, # of connection points: 2
#     Edge 122, Type (0, 0), BuildingBlock: XIVTED_clean_linker_0, # of connection points: 2
#     Edge 123, Type (0, 0), BuildingBlock: XIVTED_clean_linker_0, # of connection points: 2
#     Edge 124, Type (0, 0), BuildingBlock: XIVTED_clean_linker_0, # of connection points: 2
#     Edge 125, Type (0, 0), BuildingBlock: XIVTED_clean_linker_0, # of connection points: 2
#     Edge 126, Type (0, 0), BuildingBlock: XIVTED_clean_linker_0, # of connection points: 2
#     Edge 127, Type (0, 0), BuildingBlock: XIVTED_clean_linker_0, # of connection points: 2
#     Edge 128, Type (0, 0), BuildingBlock: XIVTED_clean_linker_0, # of connection points: 2
#     Edge 129, Type (0, 0), BuildingBlock: XIVTED_clean_linker_0, # of connection points: 2
#     Edge 130, Type (0, 0), BuildingBlock: XIVTED_clean_linker_0, # of connection points: 2
#     Edge 131, Type (0, 0), BuildingBlock: XIVTED_clean_linker_0, # of connection points: 2
#     Edge 132, Type (0, 0), BuildingBlock: XIVTED_clean_linker_0, # of connection points: 2
#     Edge 133, Type (0, 0), BuildingBlock: XIVTED_clean_linker_0, # of connection points: 2
#     Edge 134, Type (0, 0), BuildingBlock: XIVTED_clean_linker_0, # of connection points: 2
#     Edge 135, Type (0, 0), BuildingBlock: XIVTED_clean_linker_0, # of connection points: 2
#     Edge 136, Type (0, 0), BuildingBlock: XIVTED_clean_linker_0, # of connection points: 2
#     Edge 137, Type (0, 0), BuildingBlock: XIVTED_clean_linker_0, # of connection points: 2
#     Edge 138, Type (0, 0), BuildingBlock: XIVTED_clean_linker_0, # of connection points: 2
#     Edge 139, Type (0, 0), BuildingBlock: XIVTED_clean_linker_0, # of connection points: 2
#     Edge 140, Type (0, 0), BuildingBlock: XIVTED_clean_linker_0, # of connection points: 2
#     Edge 141, Type (0, 0), BuildingBlock: XIVTED_clean_linker_0, # of connection points: 2
#     Edge 142, Type (0, 0), BuildingBlock: XIVTED_clean_linker_0, # of connection points: 2
#     Edge 143, Type (0, 0), BuildingBlock: XIVTED_clean_linker_0, # of connection points: 2
# Relax obj value: 0.146
# Max RMSD: 0.225
# Mean RMSD: 0.225
data_MOF--net-wne--node1-CUKXOW_clean_sbu_0--edge1-XIVTED_clean_linker_0
_symmetry_space_group_name_H-M    P1
_symmetry_Int_Tables_number       1
_symmetry_cell_setting            triclinic
loop_
_symmetry_equiv_pos_as_xyz
'x, y, z'
_cell_length_a     68.264072
_cell_length_b     68.268439
_cell_length_c     38.064114
_cell_angle_alpha  89.950424
_cell_angle_beta   90.033201
_cell_angle_gamma 119.91197
loop_
_atom_site_label
_atom_site_type_symbol
_atom_site_fract_x
_atom_site_fract_y
_atom_site_fract_z
_atom_type_partial_charge
Tb0 Tb 0.29077 0.2302 0.08617 0.0
C1 C 0.24769 0.22049 0.12647 0.0
Tb2 Tb 0.25333 0.23553 0.04599 0.0
O3 O 0.31003 0.26527 0.10665 0.0
O4 O 0.28169 0.25467 0.07687 0.0
O5 O 0.26242 0.2136 0.1213 0.0
C6 C 0.21815 0.24051 0.02794 0.0
O7 O 0.24372 0.2322 0.10219 0.0
C8 C 0.25586 0.19901 0.03197 0.0
C9 C 0.30046 0.25097 0.00976 0.0
O10 O 0.21712 0.2232 0.04378 0.0
O11 O 0.23927 0.25535 0.02191 0.0
O12 O 0.24838 0.20835 0.01009 0.0
O13 O 0.25934 0.20886 0.06116 0.0
O14 O 0.28295 0.25461 0.01163 0.0
O15 O 0.30428 0.23888 0.03335 0.0
C16 C 0.31528 0.2143 0.11506 0.0
O17 O 0.31038 0.21294 0.08178 0.0
O18 O 0.30649 0.2246 0.13173 0.0
C19 C 0.29672 0.27155 0.09259 0.0
Tb20 Tb 0.81925 0.06941 0.07883 0.0
C21 C 0.82804 0.03745 0.12401 0.0
Tb22 Tb 0.81362 0.0277 0.04366 0.0
O23 O 0.79128 0.04995 0.11484 0.0
O24 O 0.79087 0.03724 0.06535 0.0
O25 O 0.83488 0.05887 0.11774 0.0
C26 C 0.80737 0.98676 0.02659 0.0
O27 O 0.81631 0.02161 0.10019 0.0
C28 C 0.8512 0.06517 0.02721 0.0
C29 C 0.80143 0.05952 1.00147 0.0
O30 O 0.82408 1.0022 0.04441 0.0
O31 O 0.79386 0.99429 0.0181 0.0
O32 O 0.8409 0.04801 0.00632 0.0
O33 O 0.84158 0.05986 0.05666 0.0
O34 O 0.796 0.03801 0.0059 0.0
O35 O 0.81437 0.07542 0.02429 0.0
C36 C 0.8325 0.11075 0.10296 0.0
O37 O 0.81389 0.09834 0.08585 0.0
O38 O 0.8436 0.10007 0.10582 0.0
C39 C 0.78077 0.03253 0.09448 0.0
Tb40 Tb 0.97989 0.75772 0.08602 0.0
C41 C 1.0129 0.80135 0.1255 0.0
Tb42 Tb 1.02146 0.79556 0.0446 0.0
O43 O 0.99693 0.74005 0.108 0.0
O44 O 1.01365 0.76786 0.07653 0.0
O45 O 0.99138 0.78603 0.12131 0.0
C46 C 0.06116 0.83094 0.0256 0.0
O47 O 1.02823 0.80572 0.10047 0.0
C48 C 0.98159 0.79134 0.03078 0.0
C49 C 0.99209 0.74697 0.01081 0.0
O50 O 0.04474 0.8319 0.04109 0.0
O51 O 0.05523 0.80982 0.0204 0.0
O52 O 0.9983 0.79915 0.00874 0.0
O53 O 0.98849 0.78856 0.06005 0.0
O54 O 1.01212 0.76604 0.01085 0.0
O55 O 0.97614 0.74217 0.03479 0.0
C56 C 0.93948 0.73234 0.11413 0.0
O57 O 0.94314 0.73775 0.08103 0.0
O58 O 0.95847 0.74116 0.1311 0.0
C59 C 1.01621 0.75351 0.09325 0.0
Tb60 Tb 0.24113 0.28073 0.42064 0.0
C61 C 0.22935 0.23821 0.38003 0.0
Tb62 Tb 0.24414 0.24409 0.46012 0.0
O63 O 0.2711 0.28829 0.38922 0.0
O64 O 0.26781 0.27598 0.43958 0.0
O65 O 0.22207 0.25244 0.38648 0.0
C66 C 0.24928 0.20901 0.47947 0.0
O67 O 0.24179 0.23492 0.40371 0.0
C68 C 0.20713 0.24585 0.47148 0.0
C69 C 0.25833 0.29002 0.49948 0.0
O70 O 0.23167 0.2078 0.46456 0.0
O71 O 0.26426 0.2302 0.48391 0.0
O72 O 0.21632 0.23887 0.49446 0.0
O73 O 0.21739 0.24925 0.44263 0.0
O74 O 0.26042 0.27156 0.49918 0.0
O75 O 0.24958 0.29559 0.47279 0.0
C76 C 0.23026 0.31033 0.39487 0.0
O77 O 0.2238 0.30031 0.42506 0.0
O78 O 0.24301 0.30389 0.37947 0.0
C79 C 0.27969 0.28081 0.41237 0.0
Tb80 Tb 0.76656 0.96626 0.41925 0.0
C81 C 0.80901 0.99937 0.37728 0.0
Tb82 Tb 0.80449 1.00939 0.45786 0.0
O83 O 0.7469 0.98182 0.39924 0.0
O84 O 0.77559 0.99984 0.4281 0.0
O85 O 0.79438 0.97782 0.38305 0.0
C86 C 0.83918 0.05002 0.47496 0.0
O87 O 0.81335 1.01523 0.40136 0.0
C88 C 0.80261 0.97058 0.47184 0.0
C89 C 0.75787 0.97789 0.49577 0.0
O90 O 0.818 0.04327 0.48141 0.0
O91 O 0.84058 0.03392 0.45921 0.0
O92 O 0.8104 0.98753 0.49342 0.0
O93 O 0.79847 0.97672 0.44291 0.0
O94 O 0.7753 0.99899 0.49316 0.0
O95 O 0.75375 0.96177 0.47249 0.0
C96 C 0.74183 0.92597 0.39033 0.0
O97 O 0.74751 0.92934 0.42335 0.0
O98 O 0.74995 0.94514 0.37405 0.0
C99 C 0.76034 1.00152 0.41269 0.0
Tb100 Tb 0.08116 0.80863 0.43112 0.0
C101 C 0.04976 0.81667 0.37916 0.0
Tb102 Tb 0.03631 0.80452 0.46082 0.0
O103 O 0.06671 0.77221 0.43084 0.0
O104 O 0.04551 0.78572 0.42632 0.0
O105 O 0.06965 0.81821 0.38463 0.0
C106 C 0.99375 0.79394 0.47537 0.0
O107 O 0.03382 0.80987 0.40395 0.0
C108 C 0.07289 0.8443 0.47564 0.0
C109 C 0.06782 0.79361 0.508 0.0
O110 O 1.00732 0.80932 0.45358 0.0
O111 O 1.0041 0.7841 0.48926 0.0
O112 O 0.05263 0.83892 0.48547 0.0
O113 O 0.07063 0.82756 0.45922 0.0
O114 O 0.04636 0.78742 0.50048 0.0
O115 O 0.08486 0.8073 0.48732 0.0
C116 C 0.12223 0.82448 0.40431 0.0
O117 O 0.11038 0.80487 0.41908 0.0
O118 O 0.1111 0.83528 0.40504 0.0
C119 C 0.04582 0.76759 0.43122 0.0
Tb120 Tb 0.80639 0.80452 0.95822 0.0
C121 C 0.75904 0.78932 0.99382 0.0
Tb122 Tb 0.76934 0.81039 0.91768 0.0
O123 O 0.81145 0.83159 0.99441 0.0
O124 O 0.80066 0.83145 0.94328 0.0
O125 O 0.77642 0.78545 0.99212 0.0
C126 C 0.74466 0.82613 0.88884 0.0
O127 O 0.75559 0.80171 0.97033 0.0
C128 C 0.76325 0.76898 0.91096 0.0
C129 C 0.81253 0.82023 0.87784 0.0
O130 O 0.75397 0.81637 0.87202 0.0
O131 O 0.74924 0.82712 0.9222 0.0
O132 O 0.7501 0.7754 0.89675 0.0
O133 O 0.77819 0.78576 0.92693 0.0
O134 O 0.79793 0.82726 0.8831 0.0
O135 O 0.81626 0.80825 0.90199 0.0
C136 C 0.84115 0.79872 0.97639 0.0
O137 O 0.84253 0.81629 0.96086 0.0
O138 O 0.8199 0.7841 0.98203 0.0
C139 C 0.80413 0.84112 0.97263 0.0
Tb140 Tb 0.24484 1.01173 0.96294 0.0
C141 C 0.25901 0.97942 1.00051 0.0
Tb142 Tb 0.23913 0.96867 0.92365 0.0
O143 O 0.21701 0.99001 0.99826 0.0
O144 O 0.2179 0.97935 0.94746 0.0
O145 O 0.26318 1.00072 0.99817 0.0
C146 C 0.22316 0.92801 0.89587 0.0
O147 O 0.24682 0.96358 0.977 0.0
C148 C 0.28091 1.00325 0.91811 0.0
C149 C 0.23031 1.00243 0.8822 0.0
O150 O 0.22189 0.93189 0.92901 0.0
O151 O 0.23334 0.94691 0.87868 0.0
O152 O 0.2743 0.98362 0.9041 0.0
O153 O 0.26408 1.00197 0.93327 0.0
O154 O 0.22338 0.9808 0.88733 0.0
O155 O 0.24187 1.01803 0.90659 0.0
C156 C 0.25102 0.0524 0.9806 0.0
O157 O 0.23355 0.0365 0.9646 0.0
O158 O 0.26533 0.04545 0.98699 0.0
C159 C 0.20765 0.97324 0.97638 0.0
Tb160 Tb 0.03754 0.24144 0.95314 0.0
C161 C 0.06969 0.28787 0.99034 0.0
Tb162 Tb 0.0811 0.27837 0.91393 0.0
O163 O 0.05898 0.23535 0.98938 0.0
O164 O 0.07004 0.24671 0.9387 0.0
O165 O 0.04833 0.27096 0.98769 0.0
C166 C 0.12229 0.30128 0.88697 0.0
O167 O 0.08573 0.29118 0.96734 0.0
C168 C 0.04655 0.28561 0.90666 0.0
C169 C 0.04697 0.23618 0.87263 0.0
O170 O 0.11773 0.29931 0.92038 0.0
O171 O 0.10376 0.29066 0.86899 0.0
O172 O 0.06632 0.29853 0.89286 0.0
O173 O 0.04779 0.27022 0.92248 0.0
O174 O 0.06869 0.25015 0.87834 0.0
O175 O 0.03134 0.23252 0.89676 0.0
C176 C 0.99688 0.20675 0.97015 0.0
O177 O 1.01287 0.20539 0.95398 0.0
O178 O 1.00374 0.22791 0.97708 0.0
C179 C 0.07594 0.2427 0.9679 0.0
Tb180 Tb 0.81272 0.79386 0.5454 0.0
C181 C 0.79229 0.74508 0.51109 0.0
Tb182 Tb 0.81614 0.75519 0.58545 0.0
O183 O 0.83851 0.79682 0.50815 0.0
O184 O 0.83828 0.7859 0.55919 0.0
O185 O 0.79182 0.76446 0.51164 0.0
C186 C 0.83099 0.72932 0.61247 0.0
O187 O 0.80338 0.7398 0.53449 0.0
C188 C 0.77633 0.75234 0.59475 0.0
C189 C 0.82921 0.79938 0.62539 0.0
O190 O 0.83287 0.73517 0.57955 0.0
O191 O 0.82073 0.73792 0.62981 0.0
O192 O 0.78179 0.73834 0.60866 0.0
O193 O 0.79317 0.76637 0.57769 0.0
O194 O 0.83447 0.78342 0.62022 0.0
O195 O 0.81807 0.80434 0.60137 0.0
C196 C 0.80846 0.82949 0.52717 0.0
O197 O 0.82612 0.83028 0.54141 0.0
O198 O 0.79294 0.80841 0.52289 0.0
C199 C 0.84737 0.78854 0.52949 0.0
Tb200 Tb 0.2517 0.02887 0.54906 0.0
C201 C 0.30027 0.05675 0.51435 0.0
Tb202 Tb 0.29061 0.0703 0.58929 0.0
O203 O 0.24924 0.05219 0.51222 0.0
O204 O 0.25989 0.06237 0.56352 0.0
O205 O 0.28077 0.03711 0.51479 0.0
C206 C 0.31716 0.11076 0.61635 0.0
O207 O 0.30576 0.07299 0.53803 0.0
C208 C 0.2932 0.03315 0.59784 0.0
C209 C 0.24636 0.03941 0.62935 0.0
O210 O 0.31135 0.10694 0.58341 0.0
O211 O 0.3081 0.09191 0.63371 0.0
O212 O 0.30729 0.05244 0.61194 0.0
O213 O 0.2792 0.0362 0.58103 0.0
O214 O 0.2626 0.06052 0.62459 0.0
O215 O 0.24099 0.02354 0.60485 0.0
C216 C 0.21578 0.98955 0.53015 0.0
O217 O 0.21536 1.00734 0.54106 0.0
O218 O 0.23666 0.99387 0.52962 0.0
C219 C 0.25735 0.06909 0.53392 0.0
Tb220 Tb 1.01922 0.23417 0.53807 0.0
C221 C 0.9876 0.24871 0.49932 0.0
Tb222 Tb 0.97618 0.22916 0.5763 0.0
O223 O 0.99749 0.20641 0.50273 0.0
O224 O 0.9866 0.20749 0.5533 0.0
O225 O 1.00879 0.25265 0.50217 0.0
C226 C 0.93572 0.21364 0.60454 0.0
O227 O 0.97152 0.23676 0.52267 0.0
C228 C 1.01103 0.2708 0.58173 0.0
C229 C 1.0095 0.22028 0.61891 0.0
O230 O 0.93937 0.2119 0.57144 0.0
O231 O 0.95473 0.22408 0.62135 0.0
O232 O 0.99132 0.26447 0.59525 0.0
O233 O 1.00964 0.25381 0.56702 0.0
O234 O 0.98793 0.21342 0.61331 0.0
O235 O 1.02525 0.23156 0.59461 0.0
C236 C 0.05966 0.23951 0.52128 0.0
O237 O 0.04345 0.22223 0.53719 0.0
O238 O 0.05315 0.25412 0.51448 0.0
C239 C 0.98059 0.19722 0.52438 0.0
Tb240 Tb 0.95835 0.56223 0.41086 0.0
C241 C 0.91931 0.55511 0.46184 0.0
Tb242 Tb 0.91998 0.56719 0.38054 0.0
O243 O 0.9824 0.59787 0.40232 0.0
O244 O 0.94852 0.58751 0.41275 0.0
O245 O 0.93624 0.55136 0.45598 0.0
C246 C 0.88532 0.57393 0.36562 0.0
O247 O 0.91147 0.56325 0.43709 0.0
C248 C 0.91921 0.52905 0.36526 0.0
C249 C 0.9618 0.57739 0.33338 0.0
O250 O 0.88395 0.5564 0.38121 0.0
O251 O 0.90644 0.58797 0.35829 0.0
O252 O 0.91153 0.53878 0.34468 0.0
O253 O 0.92519 0.53982 0.39364 0.0
O254 O 0.94673 0.58387 0.34042 0.0
O255 O 0.96514 0.56412 0.35501 0.0
C256 C 0.9844 0.54819 0.44049 0.0
O257 O 0.98109 0.56407 0.45261 0.0
O258 O 0.9733 0.54041 0.41134 0.0
C259 C 0.96737 0.60414 0.40432 0.0
Tb260 Tb 0.48694 0.40436 0.41461 0.0
C261 C 0.49455 0.37058 0.45825 0.0
Tb262 Tb 0.48127 0.36065 0.37702 0.0
O263 O 0.45153 0.38964 0.43305 0.0
O264 O 0.46207 0.37102 0.40541 0.0
O265 O 0.50201 0.39223 0.4522 0.0
C266 C 0.4744 0.31951 0.36034 0.0
O267 O 0.4833 0.35479 0.43392 0.0
C268 C 0.51875 0.39904 0.36365 0.0
C269 C 0.46742 0.39278 0.33768 0.0
O270 O 0.49178 0.3352 0.37686 0.0
O271 O 0.46062 0.32696 0.35294 0.0
O272 O 0.50964 0.38205 0.34212 0.0
O273 O 0.5081 0.39313 0.39224 0.0
O274 O 0.46317 0.37148 0.34086 0.0
O275 O 0.47964 0.40894 0.36075 0.0
C276 C 0.50276 0.445 0.44241 0.0
O277 O 0.50459 0.44119 0.40941 0.0
O278 O 0.49211 0.42606 0.45937 0.0
C279 C 0.44509 0.36985 0.41976 0.0
Tb280 Tb 0.6437 0.0904 0.41879 0.0
C281 C 0.67644 0.13365 0.45899 0.0
Tb282 Tb 0.68618 0.12799 0.37873 0.0
O283 O 0.65965 0.07127 0.4394 0.0
O284 O 0.67726 0.09952 0.40937 0.0
O285 O 0.65493 0.11877 0.45365 0.0
C286 C 0.72636 0.16301 0.36077 0.0
O287 O 0.69225 0.13766 0.43496 0.0
C288 C 0.64708 0.12555 0.36525 0.0
C289 C 0.6544 0.08115 0.34208 0.0
O290 O 0.7101 0.16416 0.3764 0.0
O291 O 0.72004 0.14186 0.35487 0.0
O292 O 0.6638 0.13317 0.34322 0.0
O293 O 0.6536 0.12189 0.39418 0.0
O294 O 0.67556 0.09852 0.34399 0.0
O295 O 0.63859 0.07727 0.36578 0.0
C296 C 0.60337 0.06551 0.44729 0.0
O297 O 0.60698 0.07015 0.41396 0.0
O298 O 0.62237 0.07479 0.46426 0.0
C299 C 0.67917 0.08453 0.42526 0.0
Tb300 Tb 0.90732 0.61435 0.75518 0.0
C301 C 0.89662 0.57094 0.71481 0.0
Tb302 Tb 0.91148 0.57618 0.79551 0.0
O303 O 0.94199 0.63217 0.7331 0.0
O304 O 0.93088 0.60406 0.76384 0.0
O305 O 0.89039 0.58622 0.71963 0.0
C306 C 0.91631 0.5409 0.81352 0.0
O307 O 0.90773 0.56638 0.73939 0.0
C308 C 0.87586 0.58021 0.81012 0.0
C309 C 0.93054 0.62462 0.83014 0.0
O310 O 0.89874 0.53987 0.79856 0.0
O311 O 0.93141 0.56203 0.81872 0.0
O312 O 0.88481 0.57221 0.83179 0.0
O313 O 0.88547 0.58328 0.78078 0.0
O314 O 0.93158 0.60556 0.82961 0.0
O315 O 0.91927 0.62957 0.80654 0.0
C316 C 0.8918 0.63956 0.72776 0.0
O317 O 0.88998 0.63381 0.76072 0.0
O318 O 0.90237 0.63124 0.7106 0.0
C319 C 0.94777 0.61849 0.74731 0.0
Tb320 Tb 0.43449 0.30151 0.75813 0.0
C321 C 0.47568 0.3349 0.71381 0.0
Tb322 Tb 0.47288 0.34499 0.79505 0.0
O323 O 0.41372 0.31627 0.74016 0.0
O324 O 0.44315 0.33499 0.76719 0.0
O325 O 0.46127 0.31333 0.71992 0.0
C326 C 0.50762 0.38575 0.81159 0.0
O327 O 0.48055 0.35077 0.73813 0.0
C328 C 0.47167 0.30642 0.80859 0.0
C329 C 0.42724 0.31344 0.83515 0.0
O330 O 0.5089 0.3699 0.79481 0.0
O331 O 0.48653 0.37871 0.81929 0.0
O332 O 0.47966 0.32345 0.83001 0.0
O333 O 0.46693 0.31235 0.77997 0.0
O334 O 0.44433 0.33464 0.83166 0.0
O335 O 0.42298 0.29716 0.81215 0.0
C336 C 0.40964 0.26075 0.73087 0.0
O337 O 0.41559 0.26472 0.76373 0.0
O338 O 0.41755 0.27961 0.71376 0.0
C339 C 0.42716 0.3361 0.7532 0.0
Tb340 Tb 0.74663 0.14175 0.7516 0.0
C341 C 0.71373 0.15212 0.71111 0.0
Tb342 Tb 0.70373 0.13654 0.79127 0.0
O343 O 0.7308 0.10675 0.73083 0.0
O344 O 0.71309 0.11732 0.76077 0.0
O345 O 0.73526 0.15885 0.71672 0.0
C346 C 0.66333 0.13077 0.80956 0.0
O347 O 0.69783 0.14023 0.73498 0.0
C348 C 0.74261 0.17316 0.80504 0.0
C349 C 0.7357 0.12166 0.82828 0.0
O350 O 0.67913 0.14804 0.79303 0.0
O351 O 0.67021 0.11641 0.81602 0.0
O352 O 0.72577 0.16411 0.82684 0.0
O353 O 0.7363 0.16303 0.77611 0.0
O354 O 0.71449 0.11777 0.82605 0.0
O355 O 0.7516 0.13362 0.8047 0.0
C356 C 0.78695 0.15726 0.7229 0.0
O357 O 0.7834 0.15837 0.75624 0.0
O358 O 0.76791 0.14745 0.70607 0.0
C359 C 0.71122 0.10052 0.74479 0.0
Tb360 Tb 0.46953 0.13493 0.29656 0.0
C361 C 0.42121 0.11567 0.33165 0.0
Tb362 Tb 0.43111 0.13842 0.25644 0.0
O363 O 0.47333 0.16151 0.33272 0.0
O364 O 0.46218 0.16083 0.28171 0.0
O365 O 0.44034 0.11476 0.331 0.0
C366 C 0.40544 0.15325 0.22845 0.0
O367 O 0.4161 0.12677 0.30798 0.0
C368 C 0.42715 0.09801 0.24885 0.0
C369 C 0.4746 0.14961 0.21584 0.0
O370 O 0.41122 0.15537 0.26142 0.0
O371 O 0.41402 0.14279 0.21162 0.0
O372 O 0.41341 0.1037 0.23465 0.0
O373 O 0.44159 0.11496 0.26528 0.0
O374 O 0.45907 0.15549 0.22064 0.0
O375 O 0.47938 0.13871 0.24047 0.0
C376 C 0.50525 0.13077 0.31438 0.0
O377 O 0.50593 0.14812 0.29922 0.0
O378 O 0.48422 0.11551 0.31993 0.0
C379 C 0.46526 0.17042 0.31111 0.0
Tb380 Tb 0.90841 0.3428 0.2876 0.0
C381 C 0.92293 0.31052 0.32361 0.0
Tb382 Tb 0.90165 0.29954 0.24754 0.0
O383 O 0.88131 0.32119 0.32426 0.0
O384 O 0.88117 0.31037 0.27328 0.0
O385 O 0.92742 0.33191 0.32132 0.0
C386 C 0.88347 0.25862 0.21969 0.0
O387 O 0.91 0.29459 0.30065 0.0
C388 C 0.94333 0.33407 0.23973 0.0
C389 C 0.89257 0.33349 0.20771 0.0
O390 O 0.88672 0.26293 0.25313 0.0
O391 O 0.89067 0.27726 0.20218 0.0
O392 O 0.93631 0.31434 0.22568 0.0
O393 O 0.92686 0.33288 0.25598 0.0
O394 O 0.88503 0.3118 0.2133 0.0
O395 O 0.90496 0.34912 0.23154 0.0
C396 C 0.91404 0.38325 0.30515 0.0
O397 O 0.92864 0.37663 0.31141 0.0
O398 O 0.89662 0.36715 0.28938 0.0
C399 C 0.87155 0.30433 0.30265 0.0
Tb400 Tb 0.70512 0.57647 0.29265 0.0
C401 C 0.73415 0.62469 0.32773 0.0
Tb402 Tb 0.74845 0.61364 0.25464 0.0
O403 O 0.72669 0.57192 0.33082 0.0
O404 O 0.73814 0.58238 0.28008 0.0
O405 O 0.7138 0.60605 0.32601 0.0
C406 C 0.78956 0.63803 0.22824 0.0
O407 O 0.75093 0.62898 0.30565 0.0
C408 C 0.71367 0.61965 0.24261 0.0
C409 C 0.71573 0.57116 0.21272 0.0
O410 O 0.7852 0.63305 0.26139 0.0
O411 O 0.77091 0.62935 0.21044 0.0
O412 O 0.73372 0.63245 0.22982 0.0
O413 O 0.7145 0.60474 0.26078 0.0
O414 O 0.73728 0.58553 0.21902 0.0
O415 O 0.69973 0.56713 0.23636 0.0
C416 C 0.66476 0.54098 0.30915 0.0
O417 O 0.68124 0.54018 0.29361 0.0
O418 O 0.67095 0.56203 0.3157 0.0
C419 C 0.74392 0.57914 0.30993 0.0
Tb420 Tb 0.48143 0.12914 0.88115 0.0
C421 C 0.46739 0.08444 0.83848 0.0
Tb422 Tb 0.48513 0.09156 0.91704 0.0
O423 O 0.50913 0.13553 0.84581 0.0
O424 O 0.50843 0.12383 0.89672 0.0
O425 O 0.46469 0.10247 0.84107 0.0
C426 C 0.49686 0.0617 0.93911 0.0
O427 O 0.47698 0.0786 0.86362 0.0
C428 C 0.44666 0.09123 0.92779 0.0
C429 C 0.49476 0.13229 0.96215 0.0
O430 O 0.47864 0.06188 0.94798 0.0
O431 O 0.50831 0.0781 0.91736 0.0
O432 O 0.45571 0.0837 0.95012 0.0
O433 O 0.45827 0.09662 0.90019 0.0
O434 O 0.50161 0.11767 0.95577 0.0
O435 O 0.48338 0.13683 0.9381 0.0
C436 C 0.47631 0.16465 0.86439 0.0
O437 O 0.49354 0.16547 0.88003 0.0
O438 O 0.46165 0.14361 0.8579 0.0
C439 C 0.51864 0.12824 0.86763 0.0
Tb440 Tb 0.91897 0.35965 0.87454 0.0
C441 C 0.96547 0.39119 0.83693 0.0
Tb442 Tb 0.9569 0.40213 0.91387 0.0
O443 O 0.91356 0.38182 0.83908 0.0
O444 O 0.92523 0.39235 0.88989 0.0
O445 O 0.94807 0.37007 0.83916 0.0
C446 C 0.98207 0.44249 0.94202 0.0
O447 O 0.96961 0.40709 0.86057 0.0
C448 C 0.96289 0.3667 0.91966 0.0
C449 C 0.91382 0.36952 0.95492 0.0
O450 O 0.977 0.43884 0.90883 0.0
O451 O 0.97306 0.42352 0.95905 0.0
O452 O 0.97636 0.38626 0.93349 0.0
O453 O 0.94765 0.36855 0.90453 0.0
O454 O 0.92897 0.39097 0.94967 0.0
O455 O 0.90947 0.35371 0.93078 0.0
C456 C 0.88391 0.3194 0.85729 0.0
O457 O 0.8828 0.33579 0.87255 0.0
O458 O 0.90504 0.32564 0.85132 0.0
C459 C 0.92134 0.39865 0.8609 0.0
Tb460 Tb 0.68819 0.56892 0.87772 0.0
C461 C 0.6563 0.58392 0.84051 0.0
Tb462 Tb 0.64521 0.5635 0.91719 0.0
O463 O 0.66638 0.5414 0.8421 0.0
O464 O 0.65559 0.54212 0.8929 0.0
O465 O 0.67746 0.58765 0.8427 0.0
C466 C 0.60465 0.54771 0.94531 0.0
O467 O 0.64039 0.5719 0.86407 0.0
C468 C 0.68034 0.60496 0.92328 0.0
C469 C 0.67879 0.55445 0.95857 0.0
O470 O 0.6084 0.5462 0.91219 0.0
O471 O 0.62362 0.55805 0.96227 0.0
O472 O 0.66074 0.5987 0.93718 0.0
O473 O 0.6786 0.58804 0.90786 0.0
O474 O 0.65716 0.5475 0.95333 0.0
O475 O 0.6944 0.56589 0.93412 0.0
C476 C 0.72883 0.57495 0.86016 0.0
O477 O 0.71283 0.55746 0.87602 0.0
O478 O 0.72197 0.58933 0.85383 0.0
C479 C 0.64949 0.53209 0.86378 0.0
Tb480 Tb 0.62258 0.8953 0.74921 0.0
C481 C 0.58019 0.88694 0.79006 0.0
Tb482 Tb 0.58544 0.90136 0.70937 0.0
O483 O 0.64223 0.93028 0.76992 0.0
O484 O 0.6141 0.92018 0.73982 0.0
O485 O 0.59432 0.87931 0.78473 0.0
C486 C 0.55051 0.90696 0.69229 0.0
O487 O 0.57653 0.89882 0.76571 0.0
C488 C 0.58713 0.86436 0.69547 0.0
C489 C 0.63213 0.91595 0.67258 0.0
O490 O 0.54933 0.88955 0.70801 0.0
O491 O 0.57164 0.92154 0.68575 0.0
O492 O 0.5798 0.87386 0.67364 0.0
O493 O 0.59092 0.87434 0.72459 0.0
O494 O 0.61492 0.92002 0.67468 0.0
O495 O 0.63582 0.90373 0.69612 0.0
C496 C 0.64707 0.87923 0.77773 0.0
O497 O 0.63804 0.88922 0.79463 0.0
O498 O 0.64234 0.87819 0.74443 0.0
C499 C 0.62917 0.93685 0.75582 0.0
Tb500 Tb 0.15222 0.73772 0.75322 0.0
C501 C 0.16221 0.70422 0.79265 0.0
Tb502 Tb 0.14692 0.69518 0.71207 0.0
O503 O 0.11713 0.72153 0.77398 0.0
O504 O 0.12793 0.70434 0.74333 0.0
O505 O 0.169 0.72585 0.78783 0.0
C506 C 0.14128 0.65499 0.6926 0.0
O507 O 0.15052 0.68867 0.7682 0.0
C508 C 0.18348 0.73424 0.6988 0.0
C509 C 0.13162 0.72734 0.67671 0.0
O510 O 0.15881 0.67093 0.70846 0.0
O511 O 0.1266 0.66162 0.68748 0.0
O512 O 0.17431 0.71764 0.67659 0.0
O513 O 0.17347 0.72763 0.72781 0.0
O514 O 0.12794 0.70617 0.6781 0.0
O515 O 0.14366 0.74299 0.70056 0.0
C516 C 0.16797 0.7782 0.7815 0.0
O517 O 0.16903 0.77446 0.74824 0.0
O518 O 0.15807 0.75924 0.79857 0.0
C519 C 0.11103 0.70215 0.75937 0.0
Tb520 Tb 0.31239 0.42633 0.74809 0.0
C521 C 0.34483 0.46725 0.79235 0.0
Tb522 Tb 0.35328 0.46319 0.71109 0.0
O523 O 0.33349 0.41751 0.78077 0.0
O524 O 0.34415 0.43092 0.73137 0.0
O525 O 0.32339 0.45241 0.78703 0.0
C526 C 0.39387 0.49779 0.69263 0.0
O527 O 0.36027 0.47172 0.76762 0.0
C528 C 0.31526 0.46271 0.69711 0.0
C529 C 0.32044 0.41922 0.66944 0.0
O530 O 0.37842 0.49918 0.71032 0.0
O531 O 0.38652 0.47667 0.685 0.0
O532 O 0.33228 0.47029 0.67574 0.0
O533 O 0.32102 0.45819 0.72614 0.0
O534 O 0.34202 0.43539 0.67282 0.0
O535 O 0.30503 0.41596 0.69345 0.0
C536 C 0.27178 0.39799 0.77449 0.0
O537 O 0.2832 0.39214 0.75408 0.0
O538 O 0.28303 0.41958 0.77944 0.0
C539 C 0.35025 0.4253 0.75885 0.0
Tb540 Tb 0.5725 0.94968 0.09507 0.0
C541 C 0.56597 0.91127 0.0431 0.0
Tb542 Tb 0.57724 0.91096 0.12443 0.0
O543 O 0.60792 0.97371 0.10503 0.0
O544 O 0.59798 0.94005 0.09332 0.0
O545 O 0.56241 0.9283 0.04918 0.0
C546 C 0.58348 0.87588 0.1388 0.0
O547 O 0.57368 0.90299 0.06778 0.0
C548 C 0.53899 0.90998 0.13965 0.0
C549 C 0.58699 0.95211 0.17272 0.0
O550 O 0.56614 0.87486 0.12311 0.0
O551 O 0.59766 0.89691 0.14649 0.0
O552 O 0.54867 0.90216 0.16003 0.0
O553 O 0.54991 0.9163 0.11138 0.0
O554 O 0.59351 0.93713 0.16533 0.0
O555 O 0.57385 0.95569 0.15113 0.0
C556 C 0.55889 0.97616 0.06544 0.0
O557 O 0.5755 0.97365 0.05454 0.0
O558 O 0.55008 0.964 0.09343 0.0
C559 C 0.61442 0.95888 0.10256 0.0
Tb560 Tb 0.09963 0.63221 0.08604 0.0
C561 C 0.14254 0.66471 0.04486 0.0
Tb562 Tb 0.13753 0.67488 0.12534 0.0
O563 O 0.08062 0.64834 0.06534 0.0
O564 O 0.10904 0.66583 0.09494 0.0
O565 O 0.12766 0.64323 0.05048 0.0
C566 C 0.17274 0.71523 0.14212 0.0
O567 O 0.14686 0.68059 0.06891 0.0
C568 C 0.13484 0.63577 0.13969 0.0
C569 C 0.09055 0.64363 0.16249 0.0
O570 O 0.17377 0.69866 0.12733 0.0
O571 O 0.15162 0.70909 0.14793 0.0
O572 O 0.14259 0.65269 0.16134 0.0
O573 O 0.13119 0.64207 0.11052 0.0
O574 O 0.10813 0.66469 0.16028 0.0
O575 O 0.0865 0.62764 0.13903 0.0
C576 C 0.07444 0.59176 0.0582 0.0
O577 O 0.07955 0.5955 0.09137 0.0
O578 O 0.08342 0.61068 0.04104 0.0
C579 C 0.09415 0.6679 0.07913 0.0
Tb580 Tb 0.4145 0.47703 0.08857 0.0
C581 C 0.38136 0.4863 0.04663 0.0
Tb582 Tb 0.37126 0.47162 0.12732 0.0
O583 O 0.399 0.44188 0.0684 0.0
O584 O 0.38097 0.45252 0.09733 0.0
O585 O 0.40294 0.49336 0.05243 0.0
C586 C 0.33055 0.46577 0.1441 0.0
O587 O 0.36553 0.47475 0.07075 0.0
C588 C 0.41001 0.50837 0.14178 0.0
C589 C 0.40284 0.4564 0.16497 0.0
O590 O 0.33728 0.4513 0.15068 0.0
O591 O 0.34671 0.48323 0.12844 0.0
O592 O 0.39299 0.49908 0.16322 0.0
O593 O 0.40398 0.49835 0.11265 0.0
O594 O 0.38168 0.45266 0.16241 0.0
O595 O 0.41894 0.46858 0.14178 0.0
C596 C 0.45511 0.49265 0.06075 0.0
O597 O 0.45128 0.49407 0.09387 0.0
O598 O 0.43619 0.4825 0.04364 0.0
C599 C 0.37931 0.43561 0.08193 0.0
Tb600 Tb 0.13815 0.472 0.62286 0.0
C601 C 0.09279 0.45708 0.66426 0.0
Tb602 Tb 0.10083 0.47483 0.58573 0.0
O603 O 0.14361 0.4994 0.65808 0.0
O604 O 0.13262 0.49886 0.60671 0.0
O605 O 0.11129 0.45514 0.66266 0.0
C606 C 0.07044 0.48526 0.56204 0.0
O607 O 0.0868 0.46604 0.6384 0.0
C608 C 0.10096 0.43642 0.57615 0.0
C609 C 0.14238 0.48608 0.54244 0.0
O610 O 0.07463 0.47037 0.54842 0.0
O611 O 0.08317 0.49415 0.58936 0.0
O612 O 0.09343 0.44522 0.55342 0.0
O613 O 0.10598 0.44819 0.60351 0.0
O614 O 0.12801 0.49314 0.54931 0.0
O615 O 0.14645 0.47417 0.56612 0.0
C616 C 0.17354 0.46719 0.64133 0.0
O617 O 0.17453 0.48471 0.62645 0.0
O618 O 0.15242 0.45209 0.64602 0.0
C619 C 0.13644 0.50886 0.63595 0.0
Tb620 Tb 0.57739 0.6777 0.62555 0.0
C621 C 0.5924 0.64588 0.66285 0.0
Tb622 Tb 0.572 0.63473 0.58615 0.0
O623 O 0.54984 0.65587 0.6611 0.0
O624 O 0.55057 0.64511 0.61029 0.0
O625 O 0.59616 0.66705 0.66058 0.0
C626 C 0.55636 0.59422 0.55794 0.0
O627 O 0.58039 0.62995 0.63932 0.0
C628 C 0.61342 0.66991 0.58 0.0
C629 C 0.56341 0.66848 0.54456 0.0
O630 O 0.55469 0.59791 0.59104 0.0
O631 O 0.56676 0.61322 0.54106 0.0
O632 O 0.60719 0.65034 0.56604 0.0
O633 O 0.59652 0.66808 0.59559 0.0
O634 O 0.55612 0.6468 0.54994 0.0
O635 O 0.57488 0.68404 0.56905 0.0
C636 C 0.58312 0.7182 0.64318 0.0
O637 O 0.5658 0.70224 0.62696 0.0
O638 O 0.59753 0.7114 0.64977 0.0
C639 C 0.54053 0.639 0.6394 0.0
Tb640 Tb 0.37011 0.91046 0.62834 0.0
C641 C 0.40169 0.95759 0.66447 0.0
Tb642 Tb 0.41227 0.94811 0.58768 0.0
O643 O 0.39268 0.90556 0.66366 0.0
O644 O 0.40273 0.91672 0.6125 0.0
O645 O 0.38063 0.94 0.66289 0.0
C646 C 0.45252 0.97317 0.55906 0.0
O647 O 0.41741 0.96156 0.64052 0.0
C648 C 0.37645 0.95342 0.58161 0.0
C649 C 0.37938 0.90481 0.54774 0.0
O650 O 0.44899 0.9683 0.59233 0.0
O651 O 0.43348 0.96402 0.5422 0.0
O652 O 0.39583 0.96685 0.56716 0.0
O653 O 0.37876 0.93871 0.59755 0.0
O654 O 0.40092 0.91978 0.55268 0.0
O655 O 0.36377 0.90071 0.57217 0.0
C656 C 0.33002 0.87539 0.64639 0.0
O657 O 0.33624 0.89652 0.65217 0.0
O658 O 0.34633 0.87426 0.63089 0.0
C659 C 0.40932 0.91321 0.64149 0.0
Tb660 Tb 0.14465 0.45845 0.2084 0.0
C661 C 0.13038 0.41211 0.17013 0.0
Tb662 Tb 0.14994 0.42053 0.2473 0.0
O663 O 0.17278 0.46472 0.1736 0.0
O664 O 0.17135 0.45264 0.22419 0.0
O665 O 0.12654 0.42947 0.17254 0.0
C666 C 0.16656 0.39637 0.27549 0.0
O667 O 0.14216 0.40794 0.19383 0.0
C668 C 0.10823 0.4138 0.25237 0.0
C669 C 0.15834 0.46277 0.28945 0.0
O670 O 0.16876 0.40242 0.24265 0.0
O671 O 0.15488 0.4037 0.29204 0.0
O672 O 0.11452 0.4004 0.26609 0.0
O673 O 0.12528 0.42932 0.23766 0.0
O674 O 0.16521 0.44802 0.28427 0.0
O675 O 0.1471 0.46719 0.26491 0.0
C676 C 0.13878 0.49327 0.19104 0.0
O677 O 0.15612 0.49456 0.20719 0.0
O678 O 0.12443 0.4721 0.18434 0.0
C679 C 0.18189 0.45701 0.1955 0.0
Tb680 Tb 0.58705 0.69559 0.20947 0.0
C681 C 0.62901 0.72675 0.16242 0.0
Tb682 Tb 0.62567 0.73793 0.24007 0.0
O683 O 0.57909 0.71592 0.1736 0.0
O684 O 0.59276 0.72844 0.22262 0.0
O685 O 0.61373 0.70529 0.1693 0.0
C686 C 0.65288 0.77741 0.27002 0.0
O687 O 0.63254 0.74324 0.18432 0.0
C688 C 0.63394 0.70449 0.23319 0.0
C689 C 0.58632 0.7068 0.29082 0.0
O690 O 0.64234 0.77476 0.24046 0.0
O691 O 0.64826 0.75789 0.2825 0.0
O692 O 0.64917 0.72565 0.23106 0.0
O693 O 0.61527 0.7027 0.2418 0.0
O694 O 0.60343 0.72731 0.28497 0.0
O695 O 0.57831 0.69091 0.26601 0.0
C696 C 0.5521 0.65457 0.19409 0.0
O697 O 0.55092 0.67081 0.20972 0.0
O698 O 0.57319 0.66135 0.18697 0.0
C699 C 0.58696 0.73335 0.19406 0.0
Tb700 Tb 0.35193 0.89881 0.21271 0.0
C701 C 0.32039 0.91237 0.17256 0.0
Tb702 Tb 0.30814 0.89362 0.24933 0.0
O703 O 0.33102 0.87103 0.17646 0.0
O704 O 0.31883 0.8723 0.22573 0.0
O705 O 0.3419 0.9178 0.17733 0.0
C706 C 0.26637 0.87645 0.27398 0.0
O707 O 0.30391 0.89865 0.19412 0.0
C708 C 0.34357 0.93448 0.2589 0.0
C709 C 0.34192 0.88644 0.29494 0.0
O710 O 0.27563 0.89272 0.25117 0.0
O711 O 0.28053 0.86989 0.28262 0.0
O712 O 0.32381 0.92801 0.2725 0.0
O713 O 0.34187 0.91794 0.24224 0.0
O714 O 0.3208 0.88181 0.29102 0.0
O715 O 0.35735 0.89541 0.26937 0.0
C716 C 0.39277 0.90502 0.19624 0.0
O717 O 0.37693 0.88778 0.21279 0.0
O718 O 0.38568 0.91908 0.18875 0.0
C719 C 0.31343 0.86203 0.19681 0.0
H720 H 0.24463 0.17513 0.97122 0.0
H721 H 0.2804 0.08462 0.02743 0.0
H722 H 0.26959 0.17575 0.07554 0.0
H723 H 0.22777 0.07111 0.95244 0.0
H724 H 0.28305 0.12129 0.04079 0.0
H725 H 0.24502 0.14024 0.95883 0.0
C726 C 0.25035 0.16799 0.99148 0.0
C727 C 0.25711 0.17837 0.02445 0.0
C728 C 0.27097 0.11023 0.02141 0.0
C729 C 0.25778 0.13842 0.01029 0.0
C730 C 0.26953 0.08942 0.0137 0.0
C731 C 0.25381 0.07484 0.98886 0.0
C732 C 0.25696 0.11657 0.00352 0.0
C733 C 0.24006 0.08179 0.97186 0.0
C734 C 0.25052 0.14804 0.9844 0.0
C735 C 0.26441 0.16836 0.04968 0.0
N736 N 0.24206 0.10216 0.97932 0.0
N737 N 0.26462 0.14893 0.04207 0.0
H738 H 0.96497 0.20348 0.01791 0.0
H739 H 0.87457 0.07638 0.96556 0.0
H740 H 0.97814 0.16491 0.94147 0.0
H741 H 0.87563 0.10255 0.06894 0.0
H742 H 0.90934 0.11147 0.95126 0.0
H743 H 0.92877 0.1693 0.03215 0.0
C744 C 0.96017 0.18789 0.00401 0.0
C745 C 0.97456 0.18696 0.97857 0.0
C746 C 0.9019 0.10958 0.97705 0.0
C747 C 0.9333 0.14811 0.99429 0.0
C748 C 0.88205 0.08957 0.98522 0.0
C749 C 0.87211 0.08657 0.01848 0.0
C750 C 0.9118 0.12694 0.00212 0.0
C751 C 0.88255 0.10427 0.04289 0.0
C752 C 0.93963 0.16842 0.01223 0.0
C753 C 0.9676 0.16634 0.96138 0.0
N754 N 0.90178 0.12375 0.03421 0.0
N755 N 0.94747 0.14782 0.96939 0.0
H756 H 0.88319 0.8227 0.94898 0.0
H757 H 0.94488 0.77764 0.07499 0.0
H758 H 0.84439 0.76917 0.02273 0.0
H759 H 0.96861 0.80316 0.97073 0.0
H760 H 0.9094 0.77747 0.06192 0.0
H761 H 0.91643 0.81948 0.96243 0.0
C762 C 0.88167 0.81024 0.96808 0.0
C763 C 0.86098 0.79614 0.98469 0.0
C764 C 0.92235 0.78292 0.04191 0.0
C765 C 0.89921 0.79256 1.00064 0.0
C766 C 0.94255 0.78298 0.0493 0.0
C767 C 0.95968 0.79028 0.02382 0.0
C768 C 0.91957 0.79074 0.00914 0.0
C769 C 0.9559 0.79738 0.99117 0.0
C770 C 0.90066 0.80836 0.97566 0.0
C771 C 0.86003 0.78028 0.00922 0.0
N772 N 0.93643 0.79763 0.98492 0.0
N773 N 0.87896 0.77903 0.01673 0.0
H774 H 0.07709 0.21524 0.54977 0.0
H775 H 0.18494 0.26005 0.42653 0.0
H776 H 0.09274 0.26869 0.47528 0.0
H777 H 0.18129 0.23301 0.53029 0.0
H778 H 0.14956 0.26031 0.4384 0.0
H779 H 0.11337 0.21793 0.53723 0.0
C780 C 0.08821 0.22758 0.53071 0.0
C781 C 0.08195 0.2418 0.51359 0.0
C782 C 0.15665 0.25446 0.45854 0.0
C783 C 0.12354 0.24481 0.49875 0.0
C784 C 0.17678 0.2543 0.45181 0.0
C785 C 0.18607 0.24655 0.47752 0.0
C786 C 0.14559 0.24634 0.49089 0.0
C787 C 0.17472 0.23909 0.5097 0.0
C788 C 0.10896 0.22915 0.52365 0.0
C789 C 0.09704 0.25749 0.48914 0.0
N790 N 0.15504 0.23899 0.51533 0.0
N791 N 0.11714 0.25848 0.48219 0.0
H792 H 0.78788 0.93336 0.42877 0.0
H793 H 0.83469 0.87203 0.55194 0.0
H794 H 0.81617 0.95858 0.53121 0.0
H795 H 0.77816 0.83298 0.48319 0.0
H796 H 0.83217 0.9057 0.53835 0.0
H797 H 0.7876 0.89791 0.4422 0.0
C798 C 0.7938 0.93136 0.45416 0.0
C799 C 0.80183 0.94885 0.47907 0.0
C800 C 0.82026 0.88978 0.52626 0.0
C801 C 0.80226 0.90879 0.49407 0.0
C802 C 0.82174 0.87056 0.5339 0.0
C803 C 0.80657 0.84968 0.51873 0.0
C804 C 0.80378 0.88832 0.50265 0.0
C805 C 0.79011 0.84877 0.49555 0.0
C806 C 0.7937 0.91118 0.46174 0.0
C807 C 0.80978 0.94554 0.51128 0.0
N808 N 0.78925 0.86789 0.48793 0.0
N809 N 0.80998 0.92605 0.5177 0.0
H810 H 0.0772 0.88314 0.50246 0.0
H811 H 0.21304 0.95013 0.50633 0.0
H812 H 0.1167 0.85366 0.4671 0.0
H813 H 0.17203 0.97964 0.53343 0.0
H814 H 0.17841 0.91442 0.49254 0.0
H815 H 0.11211 0.91836 0.51517 0.0
C816 C 0.09327 0.88413 0.49727 0.0
C817 C 0.09408 0.86557 0.48331 0.0
C818 C 0.17702 0.92874 0.50146 0.0
C819 C 0.13426 0.90585 0.49793 0.0
C820 C 0.19677 0.94909 0.50931 0.0
C821 C 0.19538 0.96785 0.52102 0.0
C822 C 0.15578 0.92716 0.50551 0.0
C823 C 0.17389 0.96561 0.52447 0.0
C824 C 0.11323 0.90426 0.50448 0.0
C825 C 0.11535 0.86772 0.47723 0.0
N826 N 0.15501 0.94569 0.51683 0.0
N827 N 0.13461 0.88749 0.4846 0.0
H828 H 0.77971 0.95557 0.97713 0.0
H829 H 0.81482 0.86444 0.03394 0.0
H830 H 0.82925 0.9672 0.05683 0.0
H831 H 0.7904 0.86458 0.92949 0.0
H832 H 0.81399 0.89901 0.04706 0.0
H833 H 0.77744 0.91915 0.96324 0.0
C834 C 0.78997 0.9504 0.99179 0.0
C835 C 0.80472 0.96439 0.01811 0.0
C836 C 0.80872 0.89147 0.02128 0.0
C837 C 0.80204 0.92293 0.00277 0.0
C838 C 0.80914 0.87169 0.01379 0.0
C839 C 0.80268 0.86162 0.98057 0.0
C840 C 0.80153 0.90125 0.99554 0.0
C841 C 0.79541 0.87176 0.95551 0.0
C842 C 0.78875 0.92973 0.98378 0.0
C843 C 0.81772 0.95697 0.03626 0.0
N844 N 0.79498 0.89103 0.96351 0.0
N845 N 0.81599 0.93677 0.0284 0.0
H846 H 0.18239 0.96108 0.03593 0.0
H847 H 0.09449 0.83422 0.98086 0.0
H848 H 0.18516 0.93618 0.93306 0.0
H849 H 0.07809 0.87329 0.05149 0.0
H850 H 0.1309 0.86855 0.96794 0.0
H851 H 0.14723 0.92589 0.04753 0.0
C852 C 0.17567 0.94813 0.01584 0.0
C853 C 0.18675 0.95153 0.98352 0.0
C854 C 0.11925 0.8695 0.98622 0.0
C855 C 0.14656 0.91104 0.99679 0.0
C856 C 0.09858 0.84997 0.99367 0.0
C857 C 0.08328 0.85098 0.0172 0.0
C858 C 0.12476 0.88993 0.00311 0.0
C859 C 0.08935 0.87178 0.03308 0.0
C860 C 0.15557 0.92807 0.02245 0.0
C861 C 0.17725 0.93413 0.95845 0.0
N862 N 0.10963 0.89034 0.02597 0.0
N863 N 0.15772 0.91454 0.96565 0.0
H864 H 0.17625 0.21604 0.05551 0.0
H865 H 0.1135 0.25782 0.92562 0.0
H866 H 0.21422 0.2692 0.98078 0.0
H867 H 0.08821 0.23084 0.02868 0.0
H868 H 0.1494 0.2594 0.94047 0.0
H869 H 0.14245 0.21799 0.04104 0.0
C870 C 0.17746 0.22817 0.03602 0.0
C871 C 0.19806 0.24251 0.01936 0.0
C872 C 0.13601 0.25331 0.95985 0.0
C873 C 0.15923 0.24464 0.00227 0.0
C874 C 0.11558 0.25243 0.95143 0.0
C875 C 0.09792 0.24431 0.97605 0.0
C876 C 0.13853 0.24552 0.9928 0.0
C877 C 0.10135 0.23721 0.00891 0.0
C878 C 0.15816 0.22932 0.02786 0.0
C879 C 0.19865 0.25792 0.99432 0.0
N880 N 0.12113 0.23779 0.01619 0.0
N881 N 0.17942 0.25845 0.98624 0.0
H882 H 0.96595 0.77078 0.53141 0.0
H883 H 0.8684 0.79548 0.46653 0.0
H884 H 0.96931 0.80772 0.43754 0.0
H885 H 0.87196 0.77672 0.57355 0.0
H886 H 0.9026 0.7941 0.45297 0.0
H887 H 0.92886 0.76708 0.54494 0.0
C888 C 0.95878 0.77788 0.51352 0.0
C889 C 0.9707 0.78963 0.48337 0.0
C890 C 0.89591 0.79018 0.47943 0.0
C891 C 0.92852 0.78541 0.49847 0.0
C892 C 0.87634 0.79093 0.48717 0.0
C893 C 0.86737 0.78629 0.52123 0.0
C894 C 0.90671 0.78466 0.50588 0.0
C895 C 0.87832 0.78037 0.5469 0.0
C896 C 0.93773 0.77587 0.52132 0.0
C897 C 0.96075 0.79861 0.46114 0.0
N898 N 0.89749 0.77978 0.53874 0.0
N899 N 0.94033 0.7963 0.4691 0.0
H900 H 0.27188 0.1062 0.57727 0.0
H901 H 0.22416 0.16654 0.45405 0.0
H902 H 0.24476 0.08155 0.47405 0.0
H903 H 0.27979 0.20619 0.524 0.0
H904 H 0.22762 0.13339 0.46729 0.0
H905 H 0.27178 0.14152 0.56412 0.0
C906 C 0.26614 0.1083 0.55178 0.0
C907 C 0.25845 0.09097 0.52662 0.0
C908 C 0.23913 0.14933 0.47973 0.0
C909 C 0.25766 0.13086 0.5119 0.0
C910 C 0.2371 0.16825 0.47229 0.0
C911 C 0.25174 0.18915 0.4879 0.0
C912 C 0.25562 0.15108 0.50356 0.0
C913 C 0.26824 0.19038 0.51132 0.0
C914 C 0.26604 0.1284 0.54434 0.0
C915 C 0.25085 0.09444 0.49421 0.0
N916 N 0.26963 0.17152 0.51873 0.0
N917 N 0.25043 0.11383 0.48795 0.0
H918 H 0.96861 0.17218 0.46469 0.0
H919 H 0.84207 0.08283 0.52053 0.0
H920 H 0.94329 0.17466 0.56737 0.0
H921 H 0.88123 0.06813 0.44741 0.0
H922 H 0.87606 0.11955 0.53332 0.0
H923 H 0.93353 0.13704 0.45276 0.0
C924 C 0.95559 0.16539 0.48468 0.0
C925 C 0.95887 0.17637 0.51706 0.0
C926 C 0.8771 0.10822 0.51449 0.0
C927 C 0.91848 0.13615 0.50342 0.0
C928 C 0.85775 0.08738 0.5071 0.0
C929 C 0.8589 0.07245 0.48294 0.0
C930 C 0.89748 0.11425 0.49696 0.0
C931 C 0.87962 0.07909 0.46631 0.0
C932 C 0.93558 0.1453 0.47787 0.0
C933 C 0.94136 0.1668 0.54197 0.0
N934 N 0.89799 0.09949 0.47344 0.0
N935 N 0.92184 0.14723 0.53461 0.0
H936 H 0.93284 0.50537 0.40757 0.0
H937 H 0.89023 0.40135 0.277 0.0
H938 H 0.90651 0.50491 0.30442 0.0
H939 H 0.94281 0.41554 0.35244 0.0
H940 H 0.89263 0.43731 0.29138 0.0
H941 H 0.93369 0.47077 0.3925 0.0
C942 C 0.92749 0.49814 0.38165 0.0
C943 C 0.91987 0.50818 0.35702 0.0
C944 C 0.90374 0.43266 0.30472 0.0
C945 C 0.92011 0.46832 0.34009 0.0
C946 C 0.90233 0.41209 0.29662 0.0
C947 C 0.91637 0.40549 0.31353 0.0
C948 C 0.91899 0.44666 0.3305 0.0
C949 C 0.93176 0.42009 0.33871 0.0
C950 C 0.92791 0.47838 0.37313 0.0
C951 C 0.91256 0.49777 0.32416 0.0
N952 N 0.93252 0.43996 0.34673 0.0
N953 N 0.9127 0.47836 0.31676 0.0
H954 H 0.64771 0.49914 0.28122 0.0
H955 H 0.54083 0.43628 0.40671 0.0
H956 H 0.63152 0.5368 0.35509 0.0
H957 H 0.54416 0.41136 0.30415 0.0
H958 H 0.57562 0.47198 0.39327 0.0
H959 H 0.6117 0.46534 0.29442 0.0
C960 C 0.63653 0.50029 0.30026 0.0
C961 C 0.64259 0.52082 0.31704 0.0
C962 C 0.5686 0.45873 0.37369 0.0
C963 C 0.60132 0.48197 0.33266 0.0
C964 C 0.54875 0.4384 0.38129 0.0
C965 C 0.53949 0.4209 0.35638 0.0
C966 C 0.57951 0.4613 0.34129 0.0
C967 C 0.55068 0.42438 0.32411 0.0
C968 C 0.61593 0.48098 0.3077 0.0
C969 C 0.62742 0.5213 0.34147 0.0
N970 N 0.57014 0.44405 0.31764 0.0
N971 N 0.60752 0.50209 0.34883 0.0
H972 H 0.54728 0.15636 0.28749 0.0
H973 H 0.61031 0.11071 0.40922 0.0
H974 H 0.50938 0.10106 0.35893 0.0
H975 H 0.63425 0.13849 0.30606 0.0
H976 H 0.57463 0.11021 0.39687 0.0
H977 H 0.58107 0.15384 0.29985 0.0
C978 C 0.54609 0.14368 0.30587 0.0
C979 C 0.5255 0.12886 0.32217 0.0
C980 C 0.58767 0.11624 0.37692 0.0
C981 C 0.56428 0.12606 0.33679 0.0
C982 C 0.60798 0.11649 0.3839 0.0
C983 C 0.62518 0.12449 0.35851 0.0
C984 C 0.58486 0.12459 0.34469 0.0
C985 C 0.62144 0.13215 0.32637 0.0
C986 C 0.56537 0.1422 0.31279 0.0
C987 C 0.52494 0.11274 0.34572 0.0
N988 N 0.60182 0.13222 0.32053 0.0
N989 N 0.54413 0.11187 0.3526 0.0
H990 H 0.85199 0.56928 0.87094 0.0
H991 H 0.76117 0.60434 0.81349 0.0
H992 H 0.85248 0.59362 0.76618 0.0
H993 H 0.74751 0.5517 0.88855 0.0
H994 H 0.79794 0.60711 0.80051 0.0
H995 H 0.81696 0.56951 0.88299 0.0
C996 C 0.84481 0.57485 0.85052 0.0
C997 C 0.8552 0.58149 0.81753 0.0
C998 C 0.78682 0.59501 0.81981 0.0
C999 C 0.8151 0.58197 0.8313 0.0
C1000 C 0.76596 0.59349 0.82731 0.0
C1001 C 0.7513 0.57773 0.85206 0.0
C1002 C 0.79316 0.58104 0.83785 0.0
C1003 C 0.75824 0.56401 0.86918 0.0
C1004 C 0.82478 0.57493 0.85741 0.0
C1005 C 0.84512 0.58857 0.79208 0.0
N1006 N 0.77867 0.56609 0.86194 0.0
N1007 N 0.82561 0.58869 0.79951 0.0
H1008 H 0.50072 0.20653 0.89236 0.0
H1009 H 0.45657 0.26904 0.7657 0.0
H1010 H 0.44734 0.16869 0.81796 0.0
H1011 H 0.48473 0.29418 0.86823 0.0
H1012 H 0.45578 0.23336 0.77944 0.0
H1013 H 0.49834 0.24024 0.87882 0.0
C1014 C 0.48846 0.20532 0.87313 0.0
C1015 C 0.47418 0.18477 0.85631 0.0
C1016 C 0.46197 0.24666 0.79894 0.0
C1017 C 0.47155 0.22353 0.84027 0.0
C1018 C 0.46238 0.26698 0.79117 0.0
C1019 C 0.47056 0.28453 0.81598 0.0
C1020 C 0.4703 0.24416 0.83142 0.0
C1021 C 0.47827 0.28112 0.84833 0.0
C1022 C 0.48706 0.22458 0.86549 0.0
C1023 C 0.45859 0.18421 0.83162 0.0
N1024 N 0.47812 0.26147 0.85497 0.0
N1025 N 0.45781 0.20338 0.82407 0.0
H1026 H 0.77939 0.19524 0.76123 0.0
H1027 H 0.84218 0.30223 0.88535 0.0
H1028 H 0.7555 0.19809 0.86489 0.0
H1029 H 0.88014 0.28612 0.81192 0.0
H1030 H 0.80863 0.26596 0.8728 0.0
H1031 H 0.81514 0.23008 0.77415 0.0
C1032 C 0.78176 0.20306 0.78678 0.0
C1033 C 0.76455 0.19371 0.81214 0.0
C1034 C 0.82429 0.27027 0.85949 0.0
C1035 C 0.80493 0.2337 0.82664 0.0
C1036 C 0.84344 0.29101 0.86652 0.0
C1037 C 0.86395 0.29714 0.84966 0.0
C1038 C 0.82544 0.25561 0.83484 0.0
C1039 C 0.86462 0.28193 0.82555 0.0
C1040 C 0.8021 0.22291 0.79409 0.0
C1041 C 0.76832 0.20471 0.8446 0.0
N1042 N 0.84553 0.26188 0.81856 0.0
N1043 N 0.78798 0.22419 0.85078 0.0
H1044 H 0.47771 0.19503 0.37123 0.0
H1045 H 0.44476 0.28749 0.31354 0.0
H1046 H 0.45158 0.19385 0.26761 0.0
H1047 H 0.49682 0.29998 0.38903 0.0
H1048 H 0.44109 0.25033 0.30074 0.0
H1049 H 0.47856 0.23059 0.38302 0.0
C1050 C 0.47199 0.20218 0.351 0.0
C1051 C 0.46456 0.19143 0.31838 0.0
C1052 C 0.45328 0.26127 0.32009 0.0
C1053 C 0.46534 0.23223 0.33186 0.0
C1054 C 0.45531 0.28237 0.32749 0.0
C1055 C 0.47115 0.29682 0.35233 0.0
C1056 C 0.46684 0.25447 0.33827 0.0
C1057 C 0.48445 0.28942 0.3696 0.0
C1058 C 0.47253 0.22254 0.35773 0.0
C1059 C 0.45731 0.20151 0.29319 0.0
N1060 N 0.4819 0.26878 0.36243 0.0
N1061 N 0.45781 0.22136 0.30047 0.0
H1062 H 0.74383 0.20494 0.38824 0.0
H1063 H 0.84914 0.26692 0.26021 0.0
H1064 H 0.75911 0.16662 0.31431 0.0
H1065 H 0.84725 0.29214 0.36322 0.0
H1066 H 0.81458 0.23123 0.2746 0.0
H1067 H 0.77981 0.23851 0.37432 0.0
C1068 C 0.75481 0.2036 0.36903 0.0
C1069 C 0.74852 0.18297 0.35243 0.0
C1070 C 0.82188 0.24455 0.29406 0.0
C1071 C 0.78973 0.22153 0.336 0.0
C1072 C 0.84157 0.26487 0.28591 0.0
C1073 C 0.85111 0.28245 0.31064 0.0
C1074 C 0.81145 0.24208 0.32687 0.0
C1075 C 0.84047 0.27904 0.34337 0.0
C1076 C 0.77539 0.22277 0.36119 0.0
C1077 C 0.76343 0.18222 0.32778 0.0
N1078 N 0.82114 0.25938 0.35039 0.0
N1079 N 0.78332 0.20132 0.32001 0.0
H1080 H 0.75556 0.56753 0.37171 0.0
H1081 H 0.88226 0.60293 0.31834 0.0
H1082 H 0.78135 0.59239 0.26797 0.0
H1083 H 0.84348 0.55119 0.39462 0.0
H1084 H 0.84828 0.60548 0.30446 0.0
H1085 H 0.79063 0.56766 0.38568 0.0
C1086 C 0.76868 0.57319 0.35193 0.0
C1087 C 0.76555 0.58005 0.31867 0.0
C1088 C 0.84731 0.59364 0.32428 0.0
C1089 C 0.80591 0.58046 0.33465 0.0
C1090 C 0.86667 0.59226 0.3323 0.0
C1091 C 0.86563 0.5768 0.35761 0.0
C1092 C 0.82698 0.5798 0.34227 0.0
C1093 C 0.845 0.56328 0.37485 0.0
C1094 C 0.78868 0.57322 0.35991 0.0
C1095 C 0.78317 0.5872 0.29406 0.0
N1096 N 0.82658 0.56519 0.36703 0.0
N1097 N 0.80265 0.58731 0.30257 0.0
H1098 H 0.63272 0.10348 0.85986 0.0
H1099 H 0.54018 0.13655 0.80499 0.0
H1100 H 0.64374 0.15282 0.78009 0.0
H1101 H 0.54439 0.11791 0.91184 0.0
H1102 H 0.57464 0.13568 0.79105 0.0
H1103 H 0.59671 0.10174 0.87521 0.0
C1104 C 0.62748 0.11378 0.84547 0.0
C1105 C 0.64117 0.12834 0.81873 0.0
C1106 C 0.56798 0.13166 0.81753 0.0
C1107 C 0.60021 0.12622 0.83568 0.0
C1108 C 0.5483 0.13214 0.82552 0.0
C1109 C 0.53931 0.12715 0.85959 0.0
C1110 C 0.57874 0.12589 0.84364 0.0
C1111 C 0.55056 0.12151 0.88511 0.0
C1112 C 0.60708 0.11288 0.85434 0.0
C1113 C 0.63372 0.14143 0.80097 0.0
N1114 N 0.56969 0.12093 0.8766 0.0
N1115 N 0.61373 0.13995 0.80958 0.0
H1116 H 0.94679 0.53771 0.85746 0.0
H1117 H 0.90797 0.41091 0.80167 0.0
H1118 H 0.89098 0.49858 0.78752 0.0
H1119 H 0.93636 0.43581 0.90419 0.0
H1120 H 0.90789 0.44612 0.79042 0.0
H1121 H 0.94921 0.50345 0.86983 0.0
C1122 C 0.93514 0.52196 0.84467 0.0
C1123 C 0.91863 0.52091 0.8215 0.0
C1124 C 0.91424 0.44394 0.81534 0.0
C1125 C 0.92153 0.48204 0.83497 0.0
C1126 C 0.91434 0.42387 0.82175 0.0
C1127 C 0.92222 0.42043 0.8539 0.0
C1128 C 0.92238 0.46095 0.84102 0.0
C1129 C 0.93031 0.43786 0.87896 0.0
C1130 C 0.93647 0.50247 0.85181 0.0
C1131 C 0.9039 0.50012 0.80565 0.0
N1132 N 0.93027 0.45745 0.87196 0.0
N1133 N 0.90581 0.4816 0.81246 0.0
H1134 H 0.63726 0.5079 0.80326 0.0
H1135 H 0.5109 0.41776 0.85922 0.0
H1136 H 0.61227 0.50897 0.90684 0.0
H1137 H 0.54939 0.40452 0.78269 0.0
H1138 H 0.54498 0.45423 0.87273 0.0
H1139 H 0.60208 0.47304 0.79063 0.0
C1140 C 0.62429 0.50086 0.82332 0.0
C1141 C 0.6277 0.51138 0.85614 0.0
C1142 C 0.54586 0.44329 0.85298 0.0
C1143 C 0.58717 0.47143 0.8417 0.0
C1144 C 0.52645 0.42258 0.84518 0.0
C1145 C 0.52738 0.40812 0.81985 0.0
C1146 C 0.56609 0.44967 0.83475 0.0
C1147 C 0.54794 0.41511 0.80248 0.0
C1148 C 0.60422 0.48092 0.8161 0.0
C1149 C 0.61024 0.50148 0.8811 0.0
N1150 N 0.56637 0.43538 0.81008 0.0
N1151 N 0.59066 0.48206 0.87335 0.0
H1152 H 0.57547 0.84032 0.63484 0.0
H1153 H 0.61229 0.75043 0.69013 0.0
H1154 H 0.60119 0.84122 0.73868 0.0
H1155 H 0.55954 0.73664 0.61525 0.0
H1156 H 0.61461 0.78692 0.70373 0.0
H1157 H 0.57595 0.80549 0.62224 0.0
C1158 C 0.58136 0.83325 0.65495 0.0
C1159 C 0.58832 0.8437 0.68785 0.0
C1160 C 0.60258 0.77584 0.68433 0.0
C1161 C 0.5891 0.80382 0.67345 0.0
C1162 C 0.60132 0.75514 0.67648 0.0
C1163 C 0.58567 0.74053 0.65158 0.0
C1164 C 0.58844 0.78206 0.66653 0.0
C1165 C 0.57179 0.74735 0.6347 0.0
C1166 C 0.58159 0.81334 0.64776 0.0
C1167 C 0.59584 0.83377 0.71289 0.0
N1168 N 0.5736 0.76762 0.6423 0.0
N1169 N 0.5961 0.81438 0.70516 0.0
H1170 H 0.206 0.77066 0.74325 0.0
H1171 H 0.31268 0.8336 0.61849 0.0
H1172 H 0.20818 0.7475 0.63875 0.0
H1173 H 0.29694 0.87166 0.69226 0.0
H1174 H 0.2764 0.8001 0.63127 0.0
H1175 H 0.24097 0.80637 0.7305 0.0
C1176 C 0.2137 0.77318 0.71757 0.0
C1177 C 0.20412 0.75618 0.69191 0.0
C1178 C 0.28079 0.81577 0.64463 0.0
C1179 C 0.24425 0.7965 0.6776 0.0
C1180 C 0.30155 0.83489 0.63745 0.0
C1181 C 0.30778 0.85542 0.65431 0.0
C1182 C 0.26622 0.81696 0.66942 0.0
C1183 C 0.29267 0.85613 0.67862 0.0
C1184 C 0.23362 0.7935 0.71036 0.0
C1185 C 0.21497 0.76014 0.65928 0.0
N1186 N 0.2726 0.83707 0.68574 0.0
N1187 N 0.23452 0.77975 0.65319 0.0
H1188 H 0.17608 0.43609 0.68463 0.0
H1189 H 0.30557 0.47967 0.63942 0.0
H1190 H 0.21655 0.49375 0.61861 0.0
H1191 H 0.27625 0.44521 0.73679 0.0
H1192 H 0.27066 0.47986 0.62614 0.0
H1193 H 0.21033 0.4342 0.69927 0.0
C1194 C 0.19212 0.44826 0.67316 0.0
C1195 C 0.19353 0.46512 0.65042 0.0
C1196 C 0.27182 0.47223 0.65044 0.0
C1197 C 0.23247 0.46289 0.66658 0.0
C1198 C 0.29174 0.47208 0.65803 0.0
C1199 C 0.29386 0.46246 0.68935 0.0
C1200 C 0.25362 0.46239 0.67406 0.0
C1201 C 0.27531 0.45279 0.71239 0.0
C1202 C 0.21162 0.44724 0.68161 0.0
C1203 C 0.21471 0.48052 0.63632 0.0
N1204 N 0.25589 0.45289 0.70424 0.0
N1205 N 0.23326 0.47895 0.64443 0.0
H1206 H 0.42451 0.93374 0.14842 0.0
H1207 H 0.51503 0.89689 0.20055 0.0
H1208 H 0.41171 0.88198 0.22471 0.0
H1209 H 0.51493 0.92351 0.09785 0.0
H1210 H 0.4801 0.89695 0.21455 0.0
H1211 H 0.46081 0.93593 0.13405 0.0
C1212 C 0.42941 0.92298 0.16225 0.0
C1213 C 0.41512 0.90762 0.18773 0.0
C1214 C 0.48776 0.90289 0.18899 0.0
C1215 C 0.45646 0.9102 0.17182 0.0
C1216 C 0.50772 0.90288 0.18099 0.0
C1217 C 0.518 0.91037 0.14808 0.0
C1218 C 0.47806 0.9107 0.16406 0.0
C1219 C 0.50774 0.91794 0.12373 0.0
C1220 C 0.45001 0.92415 0.15395 0.0
C1221 C 0.42218 0.89399 0.20481 0.0
N1222 N 0.48837 0.91801 0.13224 0.0
N1223 N 0.44235 0.89568 0.1967 0.0
H1224 H 0.14679 0.62328 0.20009 0.0
H1225 H 0.10954 0.49659 0.14431 0.0
H1226 H 0.1203 0.59849 0.09664 0.0
H1227 H 0.16233 0.53516 0.21921 0.0
H1228 H 0.10719 0.5308 0.13104 0.0
H1229 H 0.14628 0.58792 0.2125 0.0
C1230 C 0.14072 0.61031 0.18002 0.0
C1231 C 0.13356 0.61384 0.14728 0.0
C1232 C 0.11924 0.53166 0.15038 0.0
C1233 C 0.13275 0.57311 0.16148 0.0
C1234 C 0.12051 0.51218 0.15805 0.0
C1235 C 0.13619 0.51309 0.18284 0.0
C1236 C 0.13339 0.55194 0.16825 0.0
C1237 C 0.15007 0.53371 0.19983 0.0
C1238 C 0.14048 0.59014 0.18711 0.0
C1239 C 0.12582 0.59639 0.12231 0.0
N1240 N 0.14825 0.55221 0.1924 0.0
N1241 N 0.12554 0.5767 0.12993 0.0
H1242 H 0.5489 0.62204 0.14772 0.0
H1243 H 0.42196 0.53275 0.20214 0.0
H1244 H 0.51013 0.63628 0.22227 0.0
H1245 H 0.44751 0.53126 0.09921 0.0
H1246 H 0.45717 0.56758 0.21496 0.0
H1247 H 0.51476 0.5856 0.13429 0.0
C1248 C 0.53327 0.61743 0.16137 0.0
C1249 C 0.53229 0.63217 0.1861 0.0
C1250 C 0.45515 0.55961 0.1896 0.0
C1251 C 0.49349 0.59066 0.17128 0.0
C1252 C 0.43506 0.53969 0.18228 0.0
C1253 C 0.4318 0.52906 0.14957 0.0
C1254 C 0.47236 0.56894 0.16424 0.0
C1255 C 0.44941 0.53883 0.12486 0.0
C1256 C 0.51383 0.59675 0.1536 0.0
C1257 C 0.51162 0.62547 0.20295 0.0
N1258 N 0.46901 0.55821 0.13272 0.0
N1259 N 0.49314 0.60521 0.19541 0.0
H1260 H 0.11153 0.62296 0.64587 0.0
H1261 H 0.14903 0.53308 0.69626 0.0
H1262 H 0.16575 0.63678 0.71776 0.0
H1263 H 0.12274 0.53259 0.59301 0.0
H1264 H 0.14899 0.56801 0.70944 0.0
H1265 H 0.10935 0.58673 0.63057 0.0
C1266 C 0.12286 0.61832 0.6585 0.0
C1267 C 0.13886 0.63285 0.68309 0.0
C1268 C 0.14316 0.56026 0.6839 0.0
C1269 C 0.13626 0.59163 0.6662 0.0
C1270 C 0.14315 0.54028 0.67635 0.0
C1271 C 0.13587 0.52988 0.64348 0.0
C1272 C 0.13554 0.5699 0.65863 0.0
C1273 C 0.12835 0.53999 0.61876 0.0
C1274 C 0.12169 0.59778 0.64966 0.0
C1275 C 0.15321 0.62613 0.69861 0.0
N1276 N 0.12828 0.55945 0.62688 0.0
N1277 N 0.15146 0.60601 0.69012 0.0
H1278 H 0.51646 0.62682 0.7 0.0
H1279 H 0.42541 0.50075 0.64421 0.0
H1280 H 0.51726 0.60181 0.59633 0.0
H1281 H 0.41307 0.53959 0.72128 0.0
H1282 H 0.46199 0.53464 0.63033 0.0
H1283 H 0.48153 0.59176 0.71271 0.0
C1284 C 0.50934 0.61387 0.67993 0.0
C1285 C 0.51979 0.61725 0.64706 0.0
C1286 C 0.45121 0.53564 0.65026 0.0
C1287 C 0.47973 0.57686 0.66156 0.0
C1288 C 0.43044 0.51634 0.65826 0.0
C1289 C 0.41622 0.51742 0.68388 0.0
C1290 C 0.45787 0.55589 0.66858 0.0
C1291 C 0.42347 0.53802 0.70128 0.0
C1292 C 0.48935 0.59386 0.68719 0.0
C1293 C 0.50979 0.59981 0.62209 0.0
N1294 N 0.44378 0.55633 0.69347 0.0
N1295 N 0.4903 0.58029 0.62987 0.0
H1296 H 0.50892 0.88307 0.72111 0.0
H1297 H 0.44591 0.92761 0.59717 0.0
H1298 H 0.54665 0.93628 0.64633 0.0
H1299 H 0.42252 0.90118 0.70115 0.0
H1300 H 0.48161 0.92817 0.60959 0.0
H1301 H 0.47547 0.88611 0.70882 0.0
C1302 C 0.51015 0.89543 0.70204 0.0
C1303 C 0.53059 0.90948 0.68475 0.0
C1304 C 0.4687 0.92243 0.6297 0.0
C1305 C 0.49214 0.91287 0.67019 0.0
C1306 C 0.44837 0.92214 0.62267 0.0
C1307 C 0.43129 0.91445 0.64826 0.0
C1308 C 0.47165 0.91447 0.66221 0.0
C1309 C 0.43521 0.90723 0.68066 0.0
C1310 C 0.49105 0.89721 0.69514 0.0
C1311 C 0.53121 0.92521 0.66032 0.0
N1312 N 0.45484 0.90722 0.68657 0.0
N1313 N 0.51216 0.92637 0.65348 0.0
H1314 H 0.20484 0.44335 0.23978 0.0
H1315 H 0.31242 0.48952 0.11566 0.0
H1316 H 0.20727 0.46986 0.13602 0.0
H1317 H 0.29764 0.43621 0.18999 0.0
H1318 H 0.27577 0.48608 0.12819 0.0
H1319 H 0.24034 0.44354 0.22723 0.0
C1320 C 0.21269 0.44897 0.21428 0.0
C1321 C 0.20298 0.4564 0.18877 0.0
C1322 C 0.28046 0.47506 0.14173 0.0
C1323 C 0.2438 0.45733 0.17472 0.0
C1324 C 0.30142 0.47706 0.13468 0.0
C1325 C 0.30805 0.46309 0.15176 0.0
C1326 C 0.26604 0.45925 0.16662 0.0
C1327 C 0.29309 0.44723 0.17615 0.0
C1328 C 0.23295 0.44913 0.2072 0.0
C1329 C 0.21412 0.46395 0.15644 0.0
N1330 N 0.27281 0.44585 0.18313 0.0
N1331 N 0.23398 0.4644 0.15048 0.0
H1332 H 0.57268 0.74408 0.13407 0.0
H1333 H 0.6126 0.87232 0.1853 0.0
H1334 H 0.60225 0.77152 0.23502 0.0
H1335 H 0.55963 0.83389 0.11061 0.0
H1336 H 0.6144 0.83794 0.19921 0.0
H1337 H 0.57305 0.77928 0.12026 0.0
C1338 C 0.57936 0.75757 0.15329 0.0
C1339 C 0.58754 0.75489 0.18569 0.0
C1340 C 0.60244 0.83712 0.17974 0.0
C1341 C 0.58824 0.79543 0.16988 0.0
C1342 C 0.60149 0.85672 0.17169 0.0
C1343 C 0.58592 0.85592 0.1468 0.0
C1344 C 0.58802 0.81676 0.16225 0.0
C1345 C 0.57184 0.83525 0.13004 0.0
C1346 C 0.57955 0.77766 0.14541 0.0
C1347 C 0.59602 0.77298 0.20958 0.0
N1348 N 0.5733 0.81659 0.13791 0.0
N1349 N 0.59625 0.79254 0.20117 0.0
H1350 H 0.27472 0.84115 0.23662 0.0
H1351 H 0.21498 0.73182 0.11592 0.0
H1352 H 0.30288 0.83557 0.13845 0.0
H1353 H 0.17613 0.74928 0.18528 0.0
H1354 H 0.2485 0.76819 0.12839 0.0
H1355 H 0.23947 0.80626 0.22273 0.0
C1356 C 0.27343 0.83271 0.21206 0.0
C1357 C 0.29173 0.84135 0.18864 0.0
C1358 C 0.23266 0.76416 0.14082 0.0
C1359 C 0.2517 0.80118 0.17286 0.0
C1360 C 0.21352 0.74335 0.13383 0.0
C1361 C 0.19275 0.73754 0.14961 0.0
C1362 C 0.23123 0.77923 0.16432 0.0
C1363 C 0.19184 0.75317 0.17252 0.0
C1364 C 0.25332 0.81279 0.20414 0.0
C1365 C 0.28921 0.82953 0.15729 0.0
N1366 N 0.21088 0.77326 0.17947 0.0
N1367 N 0.26969 0.80998 0.15047 0.0
H1368 H 0.32655 0.21716 0.18391 0.0
H1369 H 0.39291 0.14921 0.16012 0.0
H1370 H 0.33373 0.19107 0.0845 0.0
H1371 H 0.38719 0.17665 0.25915 0.0
H1372 H 0.37074 0.16393 0.13214 0.0
H1373 H 0.34831 0.20203 0.21216 0.0
C1374 C 0.33277 0.20823 0.16806 0.0
C1375 C 0.32847 0.20533 0.13189 0.0
C1376 C 0.37428 0.16673 0.15998 0.0
C1377 C 0.35326 0.18798 0.16392 0.0
C1378 C 0.38691 0.15833 0.17596 0.0
C1379 C 0.39178 0.16177 0.21192 0.0
C1380 C 0.36651 0.17866 0.18018 0.0
C1381 C 0.3837 0.17366 0.23132 0.0
C1382 C 0.34516 0.19961 0.18417 0.0
C1383 C 0.33679 0.19366 0.11248 0.0
N1384 N 0.37142 0.18173 0.21515 0.0
N1385 N 0.34883 0.18538 0.12878 0.0
H1386 H 0.86327 0.13038 0.15479 0.0
H1387 H 0.86603 0.24674 0.15407 0.0
H1388 H 0.81649 0.13976 0.09053 0.0
H1389 H 0.87866 0.21995 0.24866 0.0
H1390 H 0.85166 0.20979 0.1259 0.0
H1391 H 0.87368 0.1658 0.18507 0.0
C1392 C 0.85528 0.14001 0.14699 0.0
C1393 C 0.83907 0.13233 0.12017 0.0
C1394 C 0.85739 0.212 0.1529 0.0
C1395 C 0.85096 0.17269 0.15442 0.0
C1396 C 0.86566 0.23301 0.16889 0.0
C1397 C 0.87358 0.23623 0.20356 0.0
C1398 C 0.85762 0.19442 0.17156 0.0
C1399 C 0.87269 0.21802 0.22183 0.0
C1400 C 0.86108 0.16005 0.16443 0.0
C1401 C 0.82908 0.14524 0.11113 0.0
N1402 N 0.86512 0.19786 0.2054 0.0
N1403 N 0.83537 0.16504 0.12805 0.0
H1404 H 0.83075 0.65757 0.26092 0.0
H1405 H 0.89817 0.71294 0.0825 0.0
H1406 H 0.79897 0.64929 0.15977 0.0
H1407 H 0.93071 0.72021 0.18268 0.0
H1408 H 0.86146 0.6896 0.11066 0.0
H1409 H 0.86774 0.6807 0.23306 0.0
C1410 C 0.83162 0.66064 0.23289 0.0
C1411 C 0.81196 0.65166 0.21253 0.0
C1412 C 0.87663 0.69628 0.1265 0.0
C1413 C 0.85383 0.67788 0.18062 0.0
C1414 C 0.89752 0.70957 0.11042 0.0
C1415 C 0.91732 0.71837 0.13039 0.0
C1416 C 0.87567 0.69186 0.16274 0.0
C1417 C 0.91572 0.71365 0.16644 0.0
C1418 C 0.85265 0.67379 0.217 0.0
C1419 C 0.81383 0.65599 0.17635 0.0
N1420 N 0.89521 0.70068 0.18153 0.0
N1421 N 0.83441 0.66883 0.16153 0.0
H1422 H 0.1947 0.38313 0.24633 0.0
H1423 H 0.20205 0.3235 0.42322 0.0
H1424 H 0.16116 0.38198 0.34298 0.0
H1425 H 0.24045 0.32941 0.32987 0.0
H1426 H 0.18704 0.3452 0.39416 0.0
H1427 H 0.21159 0.36323 0.27609 0.0
C1428 C 0.19087 0.37859 0.27376 0.0
C1429 C 0.17651 0.38403 0.29229 0.0
C1430 C 0.19885 0.34188 0.38007 0.0
C1431 C 0.1957 0.36152 0.32643 0.0
C1432 C 0.20744 0.32956 0.39669 0.0
C1433 C 0.22245 0.32475 0.37882 0.0
C1434 C 0.20527 0.34928 0.34531 0.0
C1435 C 0.22888 0.33284 0.34448 0.0
C1436 C 0.20054 0.36735 0.29077 0.0
C1437 C 0.17213 0.37799 0.32779 0.0
N1438 N 0.22016 0.34465 0.32873 0.0
N1439 N 0.18166 0.36702 0.34371 0.0
H1440 H 0.67274 0.78445 0.33432 0.0
H1441 H 0.72711 0.91844 0.32314 0.0
H1442 H 0.66418 0.81928 0.2462 0.0
H1443 H 0.72699 0.88389 0.41818 0.0
H1444 H 0.70589 0.88215 0.29356 0.0
H1445 H 0.69468 0.82069 0.36452 0.0
C1446 C 0.6756 0.79978 0.32133 0.0
C1447 C 0.66676 0.79904 0.28781 0.0
C1448 C 0.71041 0.88243 0.3209 0.0
C1449 C 0.69162 0.8403 0.32202 0.0
C1450 C 0.72254 0.90313 0.33778 0.0
C1451 C 0.72868 0.90401 0.37309 0.0
C1452 C 0.7045 0.86247 0.33945 0.0
C1453 C 0.72242 0.88379 0.39091 0.0
C1454 C 0.68802 0.8204 0.33858 0.0
C1455 C 0.67079 0.81923 0.27205 0.0
N1456 N 0.71065 0.86373 0.37382 0.0
N1457 N 0.68296 0.83909 0.28932 0.0
H1458 H 0.2375 0.89301 0.26684 0.0
H1459 H 0.14717 0.80351 0.40144 0.0
H1460 H 0.2452 0.84097 0.3185 0.0
H1461 H 0.14574 0.86273 0.36541 0.0
H1462 H 0.18183 0.8155 0.36783 0.0
H1463 H 0.20193 0.88026 0.29861 0.0
C1464 C 0.23156 0.87879 0.28466 0.0
C1465 C 0.24418 0.86802 0.2903 0.0
C1466 C 0.17399 0.82593 0.36736 0.0
C1467 C 0.20388 0.8535 0.32665 0.0
C1468 C 0.15429 0.81912 0.38658 0.0
C1469 C 0.14377 0.83223 0.38614 0.0
C1470 C 0.18308 0.8459 0.34745 0.0
C1471 C 0.15349 0.85223 0.36644 0.0
C1472 C 0.21139 0.8716 0.30289 0.0
C1473 C 0.23591 0.84974 0.31361 0.0
N1474 N 0.17262 0.85845 0.34771 0.0
N1475 N 0.21627 0.84306 0.33102 0.0
H1476 H 0.73391 0.82384 0.81981 0.0
H1477 H 0.65784 0.88143 0.84668 0.0
H1478 H 0.72354 0.84651 0.92024 0.0
H1479 H 0.66792 0.85856 0.74624 0.0
H1480 H 0.68175 0.86859 0.87414 0.0
H1481 H 0.70986 0.83653 0.7923 0.0
C1482 C 0.72656 0.83155 0.83603 0.0
C1483 C 0.7306 0.83417 0.87227 0.0
C1484 C 0.67875 0.86634 0.8461 0.0
C1485 C 0.70312 0.84864 0.84111 0.0
C1486 C 0.6651 0.87364 0.83044 0.0
C1487 C 0.66102 0.87103 0.79421 0.0
C1488 C 0.68837 0.85637 0.82532 0.0
C1489 C 0.67074 0.86086 0.77429 0.0
C1490 C 0.71283 0.83876 0.82034 0.0
C1491 C 0.72075 0.84421 0.89217 0.0
N1492 N 0.68404 0.8539 0.79015 0.0
N1493 N 0.7074 0.8511 0.87629 0.0
H1494 H 0.18957 0.81946 0.74959 0.0
H1495 H 0.20143 0.88676 0.92795 0.0
H1496 H 0.16548 0.78715 0.85022 0.0
H1497 H 0.22585 0.91895 0.82733 0.0
H1498 H 0.18796 0.84992 0.9 0.0
H1499 H 0.20309 0.85624 0.77766 0.0
C1500 C 0.18716 0.82018 0.77759 0.0
C1501 C 0.17642 0.80041 0.79772 0.0
C1502 C 0.19627 0.86505 0.88404 0.0
C1503 C 0.19171 0.84214 0.82992 0.0
C1504 C 0.20392 0.88601 0.89998 0.0
C1505 C 0.21472 0.90575 0.87982 0.0
C1506 C 0.19951 0.86399 0.84776 0.0
C1507 C 0.21757 0.90402 0.84373 0.0
C1508 C 0.19485 0.84111 0.79361 0.0
C1509 C 0.17369 0.8021 0.83386 0.0
N1510 N 0.21001 0.88347 0.82882 0.0
N1511 N 0.18128 0.82264 0.84885 0.0
H1512 H 0.13428 0.29792 0.82027 0.0
H1513 H 0.25386 0.40744 0.83079 0.0
H1514 H 0.16136 0.33273 0.91829 0.0
H1515 H 0.24117 0.35417 0.75757 0.0
H1516 H 0.21806 0.38232 0.85999 0.0
H1517 H 0.17168 0.3202 0.79342 0.0
C1518 C 0.14817 0.31022 0.83611 0.0
C1519 C 0.14488 0.31371 0.87139 0.0
C1520 C 0.22318 0.3761 0.83767 0.0
C1521 C 0.1873 0.33922 0.84092 0.0
C1522 C 0.24346 0.39042 0.82087 0.0
C1523 C 0.25029 0.38276 0.79177 0.0
C1524 C 0.20944 0.35417 0.82476 0.0
C1525 C 0.23637 0.3606 0.77999 0.0
C1526 C 0.16944 0.32279 0.82087 0.0
C1527 C 0.16331 0.32966 0.89095 0.0
N1528 N 0.21636 0.34705 0.79636 0.0
N1529 N 0.18377 0.34211 0.87529 0.0
H1530 H 0.85454 0.71158 0.5808 0.0
H1531 H 0.8678 0.65687 0.75922 0.0
H1532 H 0.82719 0.71631 0.68054 0.0
H1533 H 0.89536 0.6523 0.65958 0.0
H1534 H 0.85259 0.67867 0.73082 0.0
H1535 H 0.86948 0.68949 0.60907 0.0
C1536 C 0.85165 0.70787 0.60861 0.0
C1537 C 0.83967 0.71565 0.62846 0.0
C1538 C 0.86199 0.67291 0.71518 0.0
C1539 C 0.85662 0.69064 0.66091 0.0
C1540 C 0.87066 0.66054 0.73139 0.0
C1541 C 0.88281 0.65292 0.71162 0.0
C1542 C 0.86555 0.67761 0.67902 0.0
C1543 C 0.88606 0.65796 0.67568 0.0
C1544 C 0.86017 0.69534 0.62475 0.0
C1545 C 0.83637 0.71055 0.66438 0.0
N1546 N 0.87747 0.67001 0.66049 0.0
N1547 N 0.84482 0.69835 0.6795 0.0
H1548 H 0.33591 0.15202 0.58451 0.0
H1549 H 0.39244 0.21945 0.76234 0.0
H1550 H 0.33038 0.11969 0.68436 0.0
H1551 H 0.3967 0.25166 0.66283 0.0
H1552 H 0.37016 0.18252 0.7341 0.0
H1553 H 0.35897 0.18886 0.61254 0.0
C1554 C 0.33964 0.15275 0.6123 0.0
C1555 C 0.33135 0.13297 0.63226 0.0
C1556 C 0.37597 0.19768 0.71846 0.0
C1557 C 0.35749 0.17473 0.66443 0.0
C1558 C 0.38863 0.21868 0.73458 0.0
C1559 C 0.39625 0.23845 0.7148 0.0
C1560 C 0.37101 0.19661 0.6824 0.0
C1561 C 0.39103 0.23671 0.67894 0.0
C1562 C 0.35274 0.1737 0.6283 0.0
C1563 C 0.33652 0.13465 0.66814 0.0
N1564 N 0.3787 0.21612 0.66385 0.0
N1565 N 0.34927 0.15521 0.68314 0.0
H1566 H 0.89413 0.19106 0.57359 0.0
H1567 H 0.82852 0.17915 0.75388 0.0
H1568 H 0.92733 0.21697 0.67312 0.0
H1569 H 0.79526 0.15453 0.65403 0.0
H1570 H 0.86507 0.19297 0.72479 0.0
H1571 H 0.85753 0.17718 0.60262 0.0
C1572 C 0.89365 0.19381 0.60153 0.0
C1573 C 0.9136 0.20514 0.62109 0.0
C1574 C 0.84977 0.18454 0.70924 0.0
C1575 C 0.87213 0.18943 0.65437 0.0
C1576 C 0.82898 0.17667 0.72585 0.0
C1577 C 0.80903 0.16573 0.70622 0.0
C1578 C 0.85046 0.18136 0.67286 0.0
C1579 C 0.81037 0.16291 0.67002 0.0
C1580 C 0.87283 0.18591 0.61809 0.0
C1581 C 0.91223 0.20829 0.65717 0.0
N1582 N 0.83077 0.17068 0.65446 0.0
N1583 N 0.89182 0.20047 0.67269 0.0
H1584 H 1.00755 0.56288 0.50194 0.0
H1585 H 0.04421 0.46836 0.50389 0.0
H1586 H 0.98971 0.51278 0.42068 0.0
H1587 H 0.0638 0.51957 0.58378 0.0
H1588 H 1.02259 0.4833 0.4745 0.0
H1589 H 1.02731 0.5466 0.53335 0.0
C1590 C 1.00791 0.5485 0.49068 0.0
C1591 C 0.99714 0.53916 0.4587 0.0
C1592 C 0.03151 0.49122 0.49855 0.0
C1593 C 1.01946 0.52036 0.49446 0.0
C1594 C 0.04376 0.48265 0.51537 0.0
C1595 C 0.05575 0.49282 0.54617 0.0
C1596 C 0.03134 0.51014 0.51264 0.0
C1597 C 0.05471 0.51127 0.56003 0.0
C1598 C 1.01911 0.53917 0.50864 0.0
C1599 C 0.99795 0.5205 0.44523 0.0
N1600 N 0.04277 0.51944 0.54304 0.0
N1601 N 1.00893 0.51168 0.46322 0.0
H1602 H 0.53407 0.55276 0.58925 0.0
H1603 H 0.52545 0.48647 0.41103 0.0
H1604 H 0.56012 0.58563 0.48954 0.0
H1605 H 0.49885 0.4537 0.51063 0.0
H1606 H 0.5386 0.52317 0.43933 0.0
H1607 H 0.52104 0.51612 0.5609 0.0
C1608 C 0.53701 0.55219 0.5614 0.0
C1609 C 0.54815 0.57207 0.54161 0.0
C1610 C 0.52988 0.50794 0.45498 0.0
C1611 C 0.53344 0.53053 0.50909 0.0
C1612 C 0.52242 0.48707 0.43884 0.0
C1613 C 0.51108 0.4672 0.45861 0.0
C1614 C 0.52592 0.50879 0.49106 0.0
C1615 C 0.50754 0.46872 0.49451 0.0
C1616 C 0.5296 0.53135 0.54522 0.0
C1617 C 0.55158 0.57059 0.50565 0.0
N1618 N 0.51493 0.48919 0.50962 0.0
N1619 N 0.54425 0.55014 0.4905 0.0
H1620 H 0.59484 0.05473 0.51622 0.0
H1621 H 0.46097 0.98429 0.4902 0.0
H1622 H 0.56195 0.04574 0.4159 0.0
H1623 H 0.49396 0.99277 0.59031 0.0
H1624 H 0.49782 1.00691 0.46247 0.0
H1625 H 0.55799 0.03219 0.54391 0.0
C1626 C 0.57979 0.04796 0.50006 0.0
C1627 C 0.58127 0.05197 0.46381 0.0
C1628 C 0.49704 1.00385 0.49049 0.0
C1629 C 0.53919 0.02627 0.49517 0.0
C1630 C 0.47604 0.99097 0.50631 0.0
C1631 C 0.4746 0.98679 0.5425 0.0
C1632 C 0.51666 1.01257 0.51111 0.0
C1633 C 0.49449 0.99572 0.56228 0.0
C1634 C 0.55879 0.03511 0.51585 0.0
C1635 C 0.5614 0.04292 0.44397 0.0
N1636 N 0.51479 1.00824 0.54628 0.0
N1637 N 0.54108 0.03044 0.45996 0.0
H1638 H 0.57781 1.0043 0.00961 0.0
H1639 H 0.47486 0.02798 0.98688 0.0
H1640 H 0.52008 0.97704 0.07872 0.0
H1641 H 0.53704 0.06316 0.92822 0.0
H1642 H 0.48981 1.00669 0.0175 0.0
H1643 H 0.56218 0.02423 0.97693 0.0
C1644 C 0.56187 1.00262 0.01795 0.0
C1645 C 0.5502 0.98914 0.04688 0.0
C1646 C 0.50017 0.01901 0.99786 0.0
C1647 C 0.5321 1.01159 0.0095 0.0
C1648 C 0.4916 0.03106 0.98028 0.0
C1649 C 0.50479 0.04731 0.95512 0.0
C1650 C 0.52208 0.0233 0.99018 0.0
C1651 C 0.52635 0.05071 0.94746 0.0
C1652 C 0.55294 1.01394 0.99928 0.0
C1653 C 0.52962 0.98742 0.05663 0.0
N1654 N 0.53438 0.03885 0.96505 0.0
N1655 N 0.52116 0.99847 0.03788 0.0
H1656 H 1.00132 0.48385 0.91051 0.0
H1657 H 0.05513 0.55042 0.08989 0.0
H1658 H 0.99358 0.45112 0.01068 0.0
H1659 H 0.06285 0.58304 0.98962 0.0
H1660 H 0.0324 0.51368 0.06141 0.0
H1661 H 1.02398 0.52056 0.93908 0.0
C1662 C 1.00445 0.48446 0.9385 0.0
C1663 C 0.99572 0.46462 0.95838 0.0
C1664 C 0.03906 0.52888 0.04565 0.0
C1665 C 1.02141 0.50621 0.99114 0.0
C1666 C 0.05198 0.54978 0.0619 0.0
C1667 C 0.06074 0.5696 0.04196 0.0
C1668 C 0.03497 0.52798 0.00932 0.0
C1669 C 0.05632 0.56804 0.00584 0.0
C1670 C 1.01734 0.50534 0.95481 0.0
C1671 C 1.00011 0.46615 0.99452 0.0
N1672 N 0.04371 0.54754 0.99062 0.0
N1673 N 1.01268 0.48663 0.0098 0.0
H1674 H 0.49648 0.51463 0.09245 0.0
H1675 H 0.56325 0.52544 0.91381 0.0
H1676 H 0.46395 0.48951 0.99227 0.0
H1677 H 0.59587 0.55087 0.01384 0.0
H1678 H 0.52651 0.51189 0.94215 0.0
H1679 H 0.53324 0.52805 0.06419 0.0
C1680 C 0.49714 0.51197 0.06452 0.0
C1681 C 0.47733 0.50099 0.04456 0.0
C1682 C 0.54171 0.52044 0.9579 0.0
C1683 C 0.51899 0.51615 0.01215 0.0
C1684 C 0.56261 0.52814 0.94173 0.0
C1685 C 0.58244 0.53925 0.96161 0.0
C1686 C 0.54079 0.52394 0.99412 0.0
C1687 C 0.58086 0.54236 0.99765 0.0
C1688 C 0.51805 0.51959 0.0484 0.0
C1689 C 0.47893 0.49792 0.00851 0.0
N1690 N 0.56036 0.53475 0.0128 0.0
N1691 N 0.49944 0.50546 0.99342 0.0
H1692 H 0.31632 0.29183 0.97478 0.0
H1693 H 0.40879 0.27422 0.87098 0.0
H1694 H 0.32368 0.23273 0.9805 0.0
H1695 H 0.40832 0.33705 0.86536 0.0
H1696 H 0.37747 0.25969 0.91204 0.0
H1697 H 0.34874 0.30914 0.93378 0.0
C1698 C 0.32446 0.28238 0.96695 0.0
C1699 C 0.31731 0.26082 0.98106 0.0
C1700 C 0.38419 0.27676 0.90226 0.0
C1701 C 0.35441 0.28052 0.93504 0.0
C1702 C 0.40224 0.28511 0.8789 0.0
C1703 C 0.41123 0.30689 0.86489 0.0
C1704 C 0.37464 0.2901 0.91163 0.0
C1705 C 0.40202 0.32025 0.87599 0.0
C1706 C 0.34309 0.29234 0.94394 0.0
C1707 C 0.32866 0.24943 0.97051 0.0
N1708 N 0.38403 0.31155 0.89853 0.0
N1709 N 0.34654 0.2594 0.94837 0.0
H1710 H 0.76091 0.03415 0.96624 0.0
H1711 H 0.77531 0.14307 0.86287 0.0
H1712 H 0.81904 0.1011 0.97229 0.0
H1713 H 0.71315 0.07923 0.85896 0.0
H1714 H 0.79088 0.12694 0.90343 0.0
H1715 H 0.74297 0.04874 0.9256 0.0
C1716 C 0.77005 0.05176 0.95853 0.0
C1717 C 0.79152 0.06643 0.97266 0.0
C1718 C 0.77375 0.11635 0.89412 0.0
C1719 C 0.77103 0.08325 0.92697 0.0
C1720 C 0.7648 0.12565 0.87105 0.0
C1721 C 0.74289 0.1125 0.85767 0.0
C1722 C 0.76089 0.0935 0.90382 0.0
C1723 C 0.73004 0.08999 0.86908 0.0
C1724 C 0.7597 0.06013 0.93572 0.0
C1725 C 0.80245 0.08917 0.96224 0.0
N1726 N 0.73931 0.08108 0.89133 0.0
N1727 N 0.7921 0.0968 0.94024 0.0
H1728 H 0.93899 0.61918 0.89935 0.0
H1729 H 1.00603 0.75216 0.94169 0.0
H1730 H 0.95106 0.6701 0.82184 0.0
H1731 H 0.96658 0.7015 0.01911 0.0
H1732 H 0.99411 0.72204 0.89734 0.0
H1733 H 0.9573 0.64924 0.9438 0.0
C1734 C 0.94573 0.63665 0.89163 0.0
C1735 C 0.94325 0.64215 0.85704 0.0
C1736 C 0.98826 0.71759 0.92416 0.0
C1737 C 0.96443 0.67648 0.90728 0.0
C1738 C 0.99512 0.73473 0.94942 0.0
C1739 C 0.98704 0.72934 0.98396 0.0
C1740 C 0.97368 0.69492 0.9338 0.0
C1741 C 0.97292 0.70644 0.99261 0.0
C1742 C 0.95607 0.65376 0.91693 0.0
C1743 C 0.9523 0.66509 0.84837 0.0
N1744 N 0.96671 0.6901 0.96777 0.0
N1745 N 0.96247 0.68138 0.87326 0.0
H1746 H 0.29803 0.30543 0.53713 0.0
H1747 H 0.27935 0.39794 0.63835 0.0
H1748 H 0.23927 0.31299 0.5266 0.0
H1749 H 0.34407 0.40123 0.63689 0.0
H1750 H 0.26434 0.36547 0.59928 0.0
H1751 H 0.31473 0.33821 0.57736 0.0
C1752 C 0.28846 0.31364 0.54395 0.0
C1753 C 0.2672 0.30646 0.52874 0.0
C1754 C 0.2819 0.37332 0.60709 0.0
C1755 C 0.28623 0.344 0.57381 0.0
C1756 C 0.29053 0.392 0.62928 0.0
C1757 C 0.31303 0.40241 0.64067 0.0
C1758 C 0.29573 0.3646 0.59635 0.0
C1759 C 0.3267 0.39388 0.62826 0.0
C1760 C 0.2981 0.3325 0.56644 0.0
C1761 C 0.2557 0.31796 0.53776 0.0
N1762 N 0.31778 0.37529 0.60697 0.0
N1763 N 0.26534 0.33607 0.55954 0.0
H1764 H 0.65229 0.89552 0.64047 0.0
H1765 H 0.74236 1.00334 0.53023 0.0
H1766 H 0.65026 0.95763 0.6395 0.0
H1767 H 0.73508 0.93689 0.52655 0.0
H1768 H 0.7105 0.98888 0.57223 0.0
H1769 H 0.68353 0.91181 0.5993 0.0
C1770 C 0.65832 0.9126 0.63119 0.0
C1771 C 0.64862 0.92521 0.64337 0.0
C1772 C 0.71605 0.97759 0.5623 0.0
C1773 C 0.68503 0.94438 0.59624 0.0
C1774 C 0.73436 0.98588 0.53872 0.0
C1775 C 0.74137 0.97128 0.52492 0.0
C1776 C 0.70493 0.95464 0.57215 0.0
C1777 C 0.7302 0.94874 0.53632 0.0
C1778 C 0.67629 0.92199 0.6077 0.0
C1779 C 0.65713 0.94727 0.6304 0.0
N1780 N 0.71265 0.94119 0.55906 0.0
N1781 N 0.67505 0.95629 0.60768 0.0
H1782 H 0.04356 0.75044 0.53545 0.0
H1783 H 0.15149 0.76819 0.64558 0.0
H1784 H 0.10621 0.81331 0.54652 0.0
H1785 H 0.08958 0.70404 0.64452 0.0
H1786 H 0.13434 0.78378 0.60723 0.0
H1787 H 0.05838 0.73241 0.57554 0.0
C1788 C 0.06014 0.76057 0.54703 0.0
C1789 C 0.07367 0.78344 0.53774 0.0
C1790 C 0.12437 0.76624 0.61503 0.0
C1791 C 0.09089 0.76289 0.58256 0.0
C1792 C 0.13427 0.75726 0.63682 0.0
C1793 C 0.12197 0.73478 0.64825 0.0
C1794 C 0.10176 0.75278 0.60447 0.0
C1795 C 0.09972 0.72141 0.63597 0.0
C1796 C 0.0687 0.75021 0.56948 0.0
C1797 C 0.0952 0.79565 0.55286 0.0
N1798 N 0.09021 0.73067 0.61488 0.0
N1799 N 0.10311 0.78524 0.57421 0.0
H1800 H 0.6479 0.76594 0.12609 0.0
H1801 H 0.74109 0.74738 0.02624 0.0
H1802 H 0.64743 0.70266 0.13221 0.0
H1803 H 0.73688 0.80832 0.0242 0.0
H1804 H 0.70761 0.72995 0.06517 0.0
H1805 H 0.67997 0.78041 0.08647 0.0
C1806 C 0.65437 0.75492 0.11856 0.0
C1807 C 0.64496 0.73307 0.13252 0.0
C1808 C 0.71419 0.74719 0.05633 0.0
C1809 C 0.68248 0.74983 0.08751 0.0
C1810 C 0.73344 0.75721 0.03454 0.0
C1811 C 0.74179 0.77935 0.02201 0.0
C1812 C 0.70341 0.75948 0.06556 0.0
C1813 C 0.731 0.79119 0.03303 0.0
C1814 C 0.67288 0.76327 0.09609 0.0
C1815 C 0.6541 0.71957 0.12183 0.0
N1816 N 0.71247 0.78114 0.05391 0.0
N1817 N 0.67256 0.72825 0.10022 0.0
H1818 H 0.30028 1.00357 0.03448 0.0
H1819 H 0.28085 0.89247 0.13721 0.0
H1820 H 0.23968 0.93832 0.03107 0.0
H1821 H 0.3442 0.95509 0.14315 0.0
H1822 H 0.26651 0.91002 0.0972 0.0
H1823 H 0.31718 0.9878 0.07512 0.0
C1824 C 0.2904 0.98612 0.04281 0.0
C1825 C 0.26855 0.97222 0.02941 0.0
C1826 C 0.28363 0.92005 0.10688 0.0
C1827 C 0.28779 0.95405 0.07497 0.0
C1828 C 0.29188 0.90993 0.12965 0.0
C1829 C 0.31376 0.92231 0.14349 0.0
C1830 C 0.29719 0.94294 0.09785 0.0
C1831 C 0.3273 0.94489 0.13272 0.0
C1832 C 0.30013 0.97707 0.0656 0.0
C1833 C 0.25662 0.94964 0.04055 0.0
N1834 N 0.31872 0.9546 0.11071 0.0
N1835 N 0.26638 0.94133 0.06243 0.0
H1836 H 0.09001 0.39679 0.13404 0.0
H1837 H 0.11062 0.3093 0.02161 0.0
H1838 H 0.14919 0.38958 0.14009 0.0
H1839 H 0.04542 0.30496 0.02425 0.0
H1840 H 0.12484 0.34021 0.06333 0.0
H1841 H 0.07352 0.36547 0.09105 0.0
C1842 C 0.09966 0.38892 0.12589 0.0
C1843 C 0.12101 0.39581 0.14062 0.0
C1844 C 0.10736 0.33252 0.05516 0.0
C1845 C 0.10226 0.36 0.09217 0.0
C1846 C 0.09919 0.31476 0.0313 0.0
C1847 C 0.07677 0.30447 0.01945 0.0
C1848 C 0.09317 0.34048 0.06735 0.0
C1849 C 0.06276 0.31228 0.03303 0.0
C1850 C 0.09016 0.37091 0.10173 0.0
C1851 C 0.13265 0.3848 0.1296 0.0
N1852 N 0.07124 0.32999 0.05612 0.0
N1853 N 0.12315 0.36756 0.10623 0.0
H1854 H 0.7691 0.69969 0.52053 0.0
H1855 H 0.7607 0.66999 0.31932 0.0
H1856 H 0.78613 0.75056 0.44079 0.0
H1857 H 0.71816 0.62018 0.39571 0.0
H1858 H 0.77115 0.6996 0.36329 0.0
H1859 H 0.75119 0.6703 0.4758 0.0
C1860 C 0.76889 0.70466 0.49355 0.0
C1861 C 0.77926 0.72762 0.48428 0.0
C1862 C 0.75935 0.68226 0.3704 0.0
C1863 C 0.75903 0.69396 0.4328 0.0
C1864 C 0.75347 0.66528 0.3454 0.0
C1865 C 0.73869 0.64252 0.35398 0.0
C1866 C 0.75082 0.67649 0.40465 0.0
C1867 C 0.72962 0.63749 0.38802 0.0
C1868 C 0.75856 0.68785 0.46808 0.0
C1869 C 0.77831 0.73307 0.44903 0.0
N1870 N 0.73613 0.65431 0.41232 0.0
N1871 N 0.76873 0.71636 0.42443 0.0
H1872 H 0.29424 0.04248 0.44533 0.0
H1873 H 0.42702 0.10741 0.40081 0.0
H1874 H 0.34586 0.08095 0.522 0.0
H1875 H 0.37569 0.09527 0.32405 0.0
H1876 H 0.39723 0.08947 0.44576 0.0
H1877 H 0.32396 0.05353 0.40048 0.0
C1878 C 0.31179 0.05298 0.4528 0.0
C1879 C 0.31757 0.06106 0.48727 0.0
C1880 C 0.39255 0.09059 0.41895 0.0
C1881 C 0.35154 0.07346 0.43651 0.0
C1882 C 0.40951 0.10072 0.39336 0.0
C1883 C 0.40383 0.10309 0.35883 0.0
C1884 C 0.36979 0.08236 0.40967 0.0
C1885 C 0.38085 0.09412 0.35052 0.0
C1886 C 0.32871 0.05935 0.42725 0.0
C1887 C 0.34061 0.07463 0.49557 0.0
N1888 N 0.3647 0.08418 0.37569 0.0
N1889 N 0.35672 0.08041 0.47044 0.0
H1890 H 1.01221 0.28997 0.46562 0.0
H1891 H 0.9037 0.26946 0.35433 0.0
H1892 H 0.94701 0.22925 0.46717 0.0
H1893 H 0.96448 0.3346 0.35681 0.0
H1894 H 0.92079 0.25492 0.39477 0.0
H1895 H 0.99711 0.30673 0.42347 0.0
C1896 C 0.99492 0.28005 0.45657 0.0
C1897 C 0.98082 0.25819 0.46983 0.0
C1898 C 0.9305 0.27246 0.38683 0.0
C1899 C 0.96344 0.27724 0.42249 0.0
C1900 C 0.92066 0.28081 0.36373 0.0
C1901 C 0.93266 0.30329 0.35219 0.0
C1902 C 0.95274 0.28653 0.39859 0.0
C1903 C 0.95458 0.31721 0.36538 0.0
C1904 C 0.98624 0.28969 0.43292 0.0
C1905 C 0.95846 0.24618 0.45778 0.0
N1906 N 0.96404 0.30855 0.38776 0.0
N1907 N 0.95053 0.25585 0.435 0.0
H1908 H 0.07308 0.66799 0.19515 0.0
H1909 H 0.98011 0.55682 0.2962 0.0
H1910 H 0.06898 0.6029 0.19409 0.0
H1911 H 0.98088 0.62018 0.30423 0.0
H1912 H 1.01204 0.57423 0.25626 0.0
H1913 H 0.04004 0.65234 0.23498 0.0
C1914 C 0.06556 0.65061 0.20388 0.0
C1915 C 0.07378 0.63671 0.19134 0.0
C1916 C 1.00525 0.58445 0.26636 0.0
C1917 C 0.0359 0.61864 0.23588 0.0
C1918 C 0.98681 0.57439 0.28902 0.0
C1919 C 0.97776 0.58702 0.30352 0.0
C1920 C 1.01511 0.60754 0.25815 0.0
C1921 C 0.98722 0.60977 0.29331 0.0
C1922 C 0.04657 0.64161 0.22619 0.0
C1923 C 0.06318 0.61422 0.20292 0.0
N1924 N 1.00557 0.61941 0.27148 0.0
N1925 N 0.04487 0.60595 0.22425 0.0
H1926 H 0.48783 0.43247 0.30302 0.0
H1927 H 0.37807 0.4148 0.19797 0.0
H1928 H 0.425 0.36927 0.30705 0.0
H1929 H 0.44361 0.47507 0.19647 0.0
H1930 H 0.39321 0.39728 0.23861 0.0
H1931 H 0.47086 0.4473 0.26275 0.0
C1932 C 0.47046 0.42157 0.29493 0.0
C1933 C 0.45785 0.39959 0.3083 0.0
C1934 C 0.40415 0.41439 0.22951 0.0
C1935 C 0.43784 0.41673 0.26241 0.0
C1936 C 0.39545 0.42447 0.20672 0.0
C1937 C 0.40961 0.44643 0.19386 0.0
C1938 C 0.42708 0.42647 0.23944 0.0
C1939 C 0.43209 0.45808 0.20552 0.0
C1940 C 0.46066 0.4301 0.27203 0.0
C1941 C 0.43537 0.38624 0.29695 0.0
N1942 N 0.44005 0.44797 0.22739 0.0
N1943 N 0.42596 0.39509 0.27483 0.0
H1944 H 0.61478 0.063 0.30765 0.0
H1945 H 0.62878 0.96835 0.20421 0.0
H1946 H 0.67668 0.06068 0.3123 0.0
H1947 H 0.56821 0.97323 0.2075 0.0
H1948 H 0.6472 1.00114 0.24406 0.0
H1949 H 0.59868 0.0305 0.26884 0.0
C1950 C 0.62513 0.05579 0.29994 0.0
C1951 C 0.64711 0.06459 0.31306 0.0
C1952 C 0.6298 0.99482 0.23631 0.0
C1953 C 0.62848 0.02665 0.26903 0.0
C1954 C 0.6192 0.97595 0.21395 0.0
C1955 C 0.59693 0.9681 0.20245 0.0
C1956 C 0.61795 1.00572 0.24718 0.0
C1957 C 0.58542 0.97876 0.21547 0.0
C1958 C 0.61586 0.03705 0.27795 0.0
C1959 C 0.65975 0.05454 0.30231 0.0
N1960 N 0.59607 0.997 0.23683 0.0
N1961 N 0.65017 0.0359 0.28107 0.0
H1962 H 0.37745 0.97463 0.69855 0.0
H1963 H 0.48746 0.06441 0.80505 0.0
H1964 H 0.44287 0.97953 0.69462 0.0
H1965 H 0.42598 0.06759 0.80547 0.0
H1966 H 0.47035 0.033 0.76409 0.0
H1967 H 0.39317 1.00724 0.73916 0.0
C1968 C 0.39493 0.98226 0.70676 0.0
C1969 C 0.40888 0.97437 0.69327 0.0
C1970 C 0.46052 0.04058 0.77267 0.0
C1971 C 0.42699 1.0117 0.73881 0.0
C1972 C 0.4704 0.05868 0.79592 0.0
C1973 C 0.45819 0.06871 0.80841 0.0
C1974 C 0.43799 0.03202 0.76198 0.0
C1975 C 0.43607 0.0605 0.79596 0.0
C1976 C 0.40396 1.00101 0.72951 0.0
C1977 C 0.43151 0.98509 0.70421 0.0
N1978 N 0.42653 0.04242 0.77362 0.0
N1979 N 0.43978 1.00311 0.72612 0.0
H1980 H 0.07943 0.41758 0.70162 0.0
H1981 H 0.98258 0.43016 0.80093 0.0
H1982 H 0.06846 0.47433 0.6924 0.0
H1983 H 0.98627 0.36908 0.808 0.0
H1984 H 1.01452 0.44598 0.76092 0.0
H1985 H 0.047 0.39951 0.74243 0.0
C1986 C 0.07055 0.42643 0.70882 0.0
C1987 C 0.07664 0.44751 0.69378 0.0
C1988 C 1.00836 0.42902 0.77078 0.0
C1989 C 0.03949 0.42688 0.73942 0.0
C1990 C 0.98996 0.41992 0.79347 0.0
C1991 C 0.9817 0.39825 0.80754 0.0
C1992 C 1.01898 0.41654 0.76219 0.0
C1993 C 0.99198 0.38575 0.79722 0.0
C1994 C 0.05189 0.416 0.73165 0.0
C1995 C 0.06433 0.45806 0.70334 0.0
N1996 N 1.0103 0.39517 0.77533 0.0
N1997 N 0.04641 0.44765 0.72533 0.0
H1998 H 0.57266 0.60527 0.69495 0.0
H1999 H 0.68125 0.62459 0.805 0.0
H2000 H 0.63398 0.66995 0.69614 0.0
H2001 H 0.61492 0.56555 0.81085 0.0
H2002 H 0.6663 0.64152 0.76286 0.0
H2003 H 0.58938 0.59082 0.73639 0.0
C2004 C 0.58965 0.61655 0.70432 0.0
C2005 C 0.60189 0.63887 0.69214 0.0
C2006 C 0.65513 0.62482 0.77331 0.0
C2007 C 0.62158 0.6222 0.7396 0.0
C2008 C 0.66371 0.61507 0.79699 0.0
C2009 C 0.64931 0.59362 0.81143 0.0
C2010 C 0.6321 0.61288 0.76395 0.0
C2011 C 0.62665 0.58216 0.8006 0.0
C2012 C 0.59928 0.60825 0.72799 0.0
C2013 C 0.62387 0.65269 0.70523 0.0
N2014 N 0.61883 0.5919 0.77772 0.0
N2015 N 0.63314 0.64408 0.7281 0.0
H2016 H 0.24701 0.21348 0.35033 0.0
H2017 H 0.22352 0.23894 0.15578 0.0
H2018 H 0.20482 0.24238 0.32684 0.0
H2019 H 0.25027 0.19491 0.1795 0.0
H2020 H 0.21427 0.23844 0.21815 0.0
H2021 H 0.24643 0.20443 0.28789 0.0
C2022 C 0.23732 0.21757 0.33224 0.0
C2023 C 0.22619 0.22894 0.3439 0.0
C2024 C 0.22187 0.22863 0.20954 0.0
C2025 C 0.22575 0.21901 0.27232 0.0
C2026 C 0.22706 0.22885 0.17388 0.0
C2027 C 0.23797 0.21722 0.16233 0.0
C2028 C 0.22782 0.21688 0.2338 0.0
C2029 C 0.24217 0.20444 0.18713 0.0
C2030 C 0.23703 0.21247 0.29654 0.0
C2031 C 0.21391 0.23384 0.31912 0.0
N2032 N 0.23741 0.20488 0.22165 0.0
N2033 N 0.21429 0.22916 0.28454 0.0
H2034 H 0.85303 0.06629 0.17666 0.0
H2035 H 0.80599 0.97077 0.32472 0.0
H2036 H 0.80984 0.99526 0.15474 0.0
H2037 H 0.8327 0.04166 0.34675 0.0
H2038 H 0.81487 0.97976 0.26283 0.0
H2039 H 0.85307 0.05743 0.23861 0.0
C2040 C 0.84376 0.04874 0.18472 0.0
C2041 C 0.83113 0.03149 0.16032 0.0
C2042 C 0.81902 0.99338 0.28122 0.0
C2043 C 0.8312 0.02131 0.23168 0.0
C2044 C 0.81403 0.98832 0.31671 0.0
C2045 C 0.81831 1.00549 0.34113 0.0
C2046 C 0.82851 1.0158 0.2698 0.0
C2047 C 0.82899 0.02787 0.32897 0.0
C2048 C 0.84378 0.04375 0.22024 0.0
C2049 C 0.81972 1.00911 0.17252 0.0
N2050 N 0.83353 0.03236 0.29408 0.0
N2051 N 0.81986 1.00469 0.20742 0.0
H2052 H 0.05581 0.82408 0.15359 0.0
H2053 H 1.00882 0.80713 0.35023 0.0
H2054 H 0.98591 0.80014 0.17945 0.0
H2055 H 0.07925 0.83434 0.3241 0.0
H2056 H 1.00074 0.80888 0.28793 0.0
H2057 H 0.06553 0.83277 0.21576 0.0
C2058 C 0.04258 0.82109 0.17215 0.0
C2059 C 1.01998 0.81109 0.16124 0.0
C2060 C 1.01801 0.8147 0.29593 0.0
C2061 C 0.03089 0.82062 0.2326 0.0
C2062 C 1.02263 0.81374 0.33156 0.0
C2063 C 0.04468 0.82028 0.34251 0.0
C2064 C 0.03556 0.8222 0.27104 0.0
C2065 C 0.0619 0.82877 0.31698 0.0
C2066 C 0.0481 0.82591 0.20774 0.0
C2067 C 1.00354 0.80754 0.18662 0.0
N2068 N 0.05694 0.82926 0.28253 0.0
N2069 N 1.00927 0.81201 0.22106 0.0
H2070 H 0.85494 0.79576 0.6772 0.0
H2071 H 0.81125 0.84712 0.82578 0.0
H2072 H 0.81303 0.82527 0.65589 0.0
H2073 H 0.83535 0.80064 0.8473 0.0
H2074 H 0.82014 0.847 0.76389 0.0
H2075 H 0.85604 0.80539 0.73901 0.0
C2076 C 0.84622 0.8046 0.68533 0.0
C2077 C 0.83356 0.80941 0.66116 0.0
C2078 C 0.82375 0.83705 0.78218 0.0
C2079 C 0.83483 0.82047 0.73241 0.0
C2080 C 0.81876 0.83712 0.81767 0.0
C2081 C 0.82224 0.82357 0.84193 0.0
C2082 C 0.83245 0.82345 0.77059 0.0
C2083 C 0.83227 0.81125 0.82965 0.0
C2084 C 0.84684 0.81002 0.72078 0.0
C2085 C 0.82291 0.82113 0.67347 0.0
N2086 N 0.83681 0.8113 0.79475 0.0
N2087 N 0.82359 0.82605 0.70831 0.0
H2088 H 0.24809 0.0451 0.85333 0.0
H2089 H 0.21997 0.99706 0.65826 0.0
H2090 H 0.20481 0.97443 0.82904 0.0
H2091 H 0.25112 0.06811 0.68289 0.0
H2092 H 0.21121 0.98837 0.7207 0.0
H2093 H 0.24672 0.05415 0.79133 0.0
C2094 C 0.23801 0.03154 0.83519 0.0
C2095 C 0.22683 1.00896 0.84647 0.0
C2096 C 0.21965 1.00585 0.71232 0.0
C2097 C 0.22542 0.01913 0.77537 0.0
C2098 C 0.22455 1.0108 0.67659 0.0
C2099 C 0.23658 0.03334 0.66524 0.0
C2100 C 0.22702 0.02357 0.73688 0.0
C2101 C 0.24211 0.05046 0.69036 0.0
C2102 C 0.23727 0.03669 0.79973 0.0
C2103 C 0.214 0.99208 0.82162 0.0
N2104 N 0.23761 0.04524 0.72495 0.0
N2105 N 0.21391 0.99747 0.7873 0.0
H2106 H 0.05203 0.23725 0.64791 0.0
H2107 H 1.00432 0.2126 0.84352 0.0
H2108 H 0.9811 0.19633 0.67271 0.0
H2109 H 0.07491 0.23978 0.81855 0.0
H2110 H 0.99526 0.20425 0.78107 0.0
H2111 H 0.06091 0.23636 0.71014 0.0
C2112 C 0.03836 0.2278 0.66623 0.0
C2113 C 1.01579 0.21711 0.65498 0.0
C2114 C 1.0127 0.21176 0.78938 0.0
C2115 C 1.02577 0.21627 0.72631 0.0
C2116 C 1.01786 0.21645 0.8251 0.0
C2117 C 0.04042 0.22716 0.8364 0.0
C2118 C 0.03025 0.21802 0.76478 0.0
C2119 C 0.05727 0.23176 0.81117 0.0
C2120 C 0.04341 0.22733 0.70181 0.0
C2121 C 0.99877 0.2051 0.68007 0.0
N2122 N 0.05188 0.22747 0.7766 0.0
N2123 N 1.00408 0.20527 0.71449 0.0
H2124 H 0.87048 0.57261 0.66176 0.0
H2125 H 0.92796 0.53397 0.51557 0.0
H2126 H 0.91659 0.54835 0.68521 0.0
H2127 H 0.89082 0.56828 0.49188 0.0
H2128 H 0.91801 0.53258 0.57722 0.0
H2129 H 0.87171 0.56426 0.59985 0.0
C2130 C 0.88061 0.56517 0.65404 0.0
C2131 C 0.89372 0.56146 0.67884 0.0
C2132 C 0.91184 0.54023 0.55857 0.0
C2133 C 0.89527 0.55201 0.60753 0.0
C2134 C 0.9175 0.54106 0.5232 0.0
C2135 C 0.91049 0.55157 0.49836 0.0
C2136 C 0.89903 0.55 0.56949 0.0
C2137 C 0.89673 0.56013 0.51002 0.0
C2138 C 0.88134 0.56049 0.61854 0.0
C2139 C 0.90628 0.55157 0.66711 0.0
N2140 N 0.89164 0.55936 0.54482 0.0
N2141 N 0.90696 0.54745 0.63224 0.0
H2142 H 0.4757 0.32813 0.48838 0.0
H2143 H 0.5002 0.37727 0.68368 0.0
H2144 H 0.51827 0.39898 0.5122 0.0
H2145 H 0.47036 0.30621 0.65994 0.0
H2146 H 0.50876 0.38572 0.62105 0.0
H2147 H 0.47519 0.31956 0.55109 0.0
C2148 C 0.48523 0.34183 0.5066 0.0
C2149 C 0.49684 0.36431 0.49486 0.0
C2150 C 0.50058 0.36829 0.62969 0.0
C2151 C 0.49605 0.3547 0.56679 0.0
C2152 C 0.49576 0.36348 0.66551 0.0
C2153 C 0.48433 0.341 0.67724 0.0
C2154 C 0.49375 0.35048 0.6054 0.0
C2155 C 0.47896 0.32382 0.65227 0.0
C2156 C 0.48488 0.33696 0.54246 0.0
C2157 C 0.50885 0.38138 0.51988 0.0
N2158 N 0.48345 0.3289 0.61764 0.0
N2159 N 0.5079 0.37626 0.55456 0.0
H2160 H 0.64785 0.13199 0.51048 0.0
H2161 H 0.7425 0.1787 0.65952 0.0
H2162 H 0.71868 0.15737 0.48964 0.0
H2163 H 0.67155 0.13405 0.68035 0.0
H2164 H 0.73384 0.17941 0.59767 0.0
H2165 H 0.65659 0.14129 0.57231 0.0
C2166 C 0.66535 0.13985 0.51873 0.0
C2167 C 0.68255 0.14356 0.49473 0.0
C2168 C 0.72014 0.16968 0.61582 0.0
C2169 C 0.69256 0.15427 0.56591 0.0
C2170 C 0.725 0.16927 0.65127 0.0
C2171 C 0.70773 0.15596 0.67528 0.0
C2172 C 0.69781 0.15684 0.60406 0.0
C2173 C 0.68541 0.14443 0.66286 0.0
C2174 C 0.67026 0.14509 0.55417 0.0
C2175 C 0.70487 0.15409 0.50713 0.0
N2176 N 0.68111 0.14495 0.628 0.0
N2177 N 0.70921 0.15886 0.54198 0.0
H2178 H 0.50001 0.13231 0.18738 0.0
H2179 H 0.47778 0.15776 0.99131 0.0
H2180 H 0.47086 0.17402 0.16195 0.0
H2181 H 0.51737 0.12625 0.0166 0.0
H2182 H 0.47773 0.16658 0.05368 0.0
H2183 H 0.50947 0.13262 0.12519 0.0
C2184 C 0.49597 0.14187 0.16893 0.0
C2185 C 0.48436 0.1529 0.17998 0.0
C2186 C 0.48668 0.15799 0.04548 0.0
C2187 C 0.49479 0.15303 0.10864 0.0
C2188 C 0.48676 0.15301 0.00981 0.0
C2189 C 0.49737 0.14103 0.9986 0.0
C2190 C 0.49714 0.15078 0.07017 0.0
C2191 C 0.50872 0.1353 0.02392 0.0
C2192 C 0.50128 0.14197 0.13335 0.0
C2193 C 0.47954 0.16499 0.15472 0.0
N2194 N 0.50806 0.13997 0.05845 0.0
N2195 N 0.48449 0.16447 0.1203 0.0
H2196 H 0.91153 0.37603 0.17824 0.0
H2197 H 0.88803 0.32715 0.9842 0.0
H2198 H 0.86689 0.30547 0.15472 0.0
H2199 H 0.91705 0.3982 0.00741 0.0
H2200 H 0.87776 0.31868 0.04633 0.0
H2201 H 0.91155 0.38477 0.11579 0.0
C2202 C 0.90141 0.36244 0.16015 0.0
C2203 C 0.88948 0.33997 0.17178 0.0
C2204 C 0.88608 0.3361 0.03764 0.0
C2205 C 0.88974 0.34975 0.10021 0.0
C2206 C 0.89188 0.34092 0.00213 0.0
C2207 C 0.90373 0.36341 0.99056 0.0
C2208 C 0.89237 0.35392 0.06172 0.0
C2209 C 0.90826 0.38058 0.0151 0.0
C2210 C 0.90147 0.36741 0.12444 0.0
C2211 C 0.87664 0.32305 0.14701 0.0
N2212 N 0.90289 0.37551 0.0495 0.0
N2213 N 0.8774 0.32823 0.11241 0.0
H2214 H 0.67339 0.54597 0.18316 0.0
H2215 H 0.72146 0.57274 0.98764 0.0
H2216 H 0.74443 0.57662 0.15865 0.0
H2217 H 0.65081 0.52956 0.01223 0.0
H2218 H 0.7305 0.57226 0.04992 0.0
H2219 H 0.66473 0.53753 0.12065 0.0
C2220 C 0.68714 0.55058 0.16483 0.0
C2221 C 0.70967 0.56223 0.17631 0.0
C2222 C 0.71305 0.56264 0.04153 0.0
C2223 C 0.69993 0.55299 0.10454 0.0
C2224 C 0.7079 0.56286 0.00592 0.0
C2225 C 0.68533 0.55142 0.99459 0.0
C2226 C 0.69549 0.55106 0.06601 0.0
C2227 C 0.66846 0.53891 0.01964 0.0
C2228 C 0.68221 0.54583 0.12906 0.0
C2229 C 0.72678 0.56781 0.15115 0.0
N2230 N 0.67385 0.53932 0.05409 0.0
N2231 N 0.72158 0.56342 0.11652 0.0
H2232 H 0.58106 0.86052 0.84334 0.0
H2233 H 0.54595 0.92118 0.98917 0.0
H2234 H 0.55931 0.9086 0.8197 0.0
H2235 H 0.57802 0.88192 0.01312 0.0
H2236 H 0.54427 0.91107 0.92758 0.0
H2237 H 0.57322 0.86241 0.90529 0.0
C2238 C 0.57429 0.87124 0.85104 0.0
C2239 C 0.57113 0.88468 0.82617 0.0
C2240 C 0.5515 0.90449 0.94628 0.0
C2241 C 0.56225 0.88698 0.89748 0.0
C2242 C 0.5525 0.91025 0.9816 0.0
C2243 C 0.56246 0.90265 0.0065 0.0
C2244 C 0.56052 0.891 0.93545 0.0
C2245 C 0.57033 0.88829 0.99492 0.0
C2246 C 0.5699 0.87234 0.88654 0.0
C2247 C 0.5621 0.89802 0.83786 0.0
N2248 N 0.56939 0.88311 0.96016 0.0
N2249 N 0.55823 0.89903 0.87273 0.0
H2250 H 0.13894 0.63599 0.9921 0.0
H2251 H 0.18884 0.73209 0.84505 0.0
H2252 H 0.1673 0.70703 0.01471 0.0
H2253 H 0.14299 0.66166 0.82247 0.0
H2254 H 0.18879 0.72266 0.90675 0.0
H2255 H 0.14816 0.64506 0.9303 0.0
C2256 C 0.14743 0.65359 0.98425 0.0
C2257 C 0.15206 0.67078 0.0088 0.0
C2258 C 0.17896 0.70923 0.88827 0.0
C2259 C 0.16267 0.68118 0.93757 0.0
C2260 C 0.17899 0.71453 0.85289 0.0
C2261 C 0.1656 0.69765 0.8284 0.0
C2262 C 0.16556 0.68684 0.8995 0.0
C2263 C 0.15347 0.67524 0.84032 0.0
C2264 C 0.15261 0.65869 0.94881 0.0
C2265 C 0.1633 0.69322 0.99683 0.0
N2266 N 0.15356 0.67051 0.87511 0.0
N2267 N 0.16804 0.69775 0.96199 0.0
H2268 H 0.33891 0.46843 0.01697 0.0
H2269 H 0.38743 0.4913 0.82176 0.0
H2270 H 0.40984 0.51028 0.99288 0.0
H2271 H 0.31667 0.46364 0.8459 0.0
H2272 H 0.39624 0.50041 0.88419 0.0
H2273 H 0.33028 0.46835 0.95442 0.0
C2274 C 0.35262 0.47791 0.99873 0.0
C2275 C 0.37513 0.48914 0.01031 0.0
C2276 C 0.37881 0.49262 0.87567 0.0
C2277 C 0.36545 0.48881 0.93856 0.0
C2278 C 0.3738 0.48749 0.83998 0.0
C2279 C 0.35128 0.47645 0.8285 0.0
C2280 C 0.36115 0.48647 0.90003 0.0
C2281 C 0.3343 0.47188 0.85346 0.0
C2282 C 0.34771 0.4778 0.96295 0.0
C2283 C 0.39221 0.50112 0.98528 0.0
N2284 N 0.33954 0.47663 0.88797 0.0
N2285 N 0.38705 0.50037 0.95066 0.0
H2286 H 0.13679 0.50953 0.48883 0.0
H2287 H 0.18436 0.46063 0.34214 0.0
H2288 H 0.16669 0.46818 0.51196 0.0
H2289 H 0.13958 0.4866 0.31921 0.0
H2290 H 0.18491 0.47063 0.4036 0.0
H2291 H 0.1447 0.50843 0.42668 0.0
C2292 C 0.14534 0.50046 0.48099 0.0
C2293 C 0.15085 0.48868 0.50582 0.0
C2294 C 0.17514 0.47436 0.38512 0.0
C2295 C 0.1599 0.48739 0.43425 0.0
C2296 C 0.17482 0.46871 0.34986 0.0
C2297 C 0.16161 0.47248 0.32533 0.0
C2298 C 0.16223 0.48397 0.39622 0.0
C2299 C 0.1499 0.48327 0.3371 0.0
C2300 C 0.14976 0.49981 0.44536 0.0
C2301 C 0.16205 0.47743 0.49386 0.0
N2302 N 0.15031 0.48844 0.37179 0.0
N2303 N 0.16603 0.4769 0.45889 0.0
H2304 H 0.59532 0.73662 0.34452 0.0
H2305 H 0.53731 0.64093 0.49135 0.0
H2306 H 0.55773 0.66527 0.32113 0.0
H2307 H 0.58449 0.71094 0.51444 0.0
H2308 H 0.53881 0.65047 0.42935 0.0
H2309 H 0.58571 0.72815 0.40631 0.0
C2310 C 0.58483 0.71912 0.35224 0.0
C2311 C 0.57757 0.70158 0.32742 0.0
C2312 C 0.54864 0.66381 0.44798 0.0
C2313 C 0.56653 0.69182 0.39874 0.0
C2314 C 0.54776 0.65843 0.48353 0.0
C2315 C 0.56103 0.67514 0.5083 0.0
C2316 C 0.56287 0.6861 0.43684 0.0
C2317 C 0.57403 0.69749 0.4964 0.0
C2318 C 0.57938 0.71433 0.38769 0.0
C2319 C 0.56379 0.67932 0.33924 0.0
N2320 N 0.5748 0.70227 0.46148 0.0
N2321 N 0.5589 0.67506 0.37411 0.0
H2322 H 0.33675 0.8801 0.51894 0.0
H2323 H 0.38456 0.90329 0.32358 0.0
H2324 H 0.40746 0.90772 0.4944 0.0
H2325 H 0.31368 0.86237 0.34863 0.0
H2326 H 0.39351 0.9026 0.38586 0.0
H2327 H 0.32777 0.87072 0.45672 0.0
C2328 C 0.35034 0.88381 0.50068 0.0
C2329 C 0.3729 0.895 0.51196 0.0
C2330 C 0.37602 0.89351 0.37757 0.0
C2331 C 0.36283 0.8847 0.44061 0.0
C2332 C 0.37093 0.89385 0.34196 0.0
C2333 C 0.34834 0.8832 0.33084 0.0
C2334 C 0.35838 0.88259 0.40215 0.0
C2335 C 0.33135 0.87121 0.35596 0.0
C2336 C 0.34523 0.87854 0.46509 0.0
C2337 C 0.38981 0.8994 0.48696 0.0
N2338 N 0.33669 0.8715 0.39038 0.0
N2339 N 0.38447 0.89456 0.45249 0.0
H2340 H 0.2892 0.29372 0.03882 0.0
H2341 H 0.34875 0.41364 0.13467 0.0
H2342 H 0.31448 0.30236 0.14479 0.0
H2343 H 0.36703 0.4047 0.02999 0.0
H2344 H 0.32206 0.37269 0.1379 0.0
H2345 H 0.30383 0.33474 0.03527 0.0
C2346 C 0.29721 0.30415 0.06162 0.0
C2347 C 0.30088 0.29485 0.09205 0.0
C2348 C 0.33154 0.3799 0.11396 0.0
C2349 C 0.31699 0.34122 0.08846 0.0
C2350 C 0.34665 0.40317 0.11206 0.0
C2351 C 0.36014 0.41235 0.08213 0.0
C2352 C 0.32954 0.36607 0.08532 0.0
C2353 C 0.35697 0.39811 0.05359 0.0
C2354 C 0.30558 0.32746 0.05954 0.0
C2355 C 0.31151 0.30904 0.12082 0.0
N2356 N 0.342 0.37561 0.05587 0.0
N2357 N 0.31926 0.33158 0.11834 0.0
H2358 H 0.64561 0.99104 0.14441 0.0
H2359 H 0.75144 1.00081 0.04746 0.0
H2360 H 0.63721 0.9404 0.06893 0.0
H2361 H 0.7549 0.02668 0.152 0.0
H2362 H 0.71006 0.97812 0.05318 0.0
H2363 H 0.68602 1.00441 0.14647 0.0
C2364 C 0.65232 0.98255 0.12858 0.0
C2365 C 0.63817 0.96463 0.1065 0.0
C2366 C 0.71997 0.98846 0.07505 0.0
C2367 C 0.68457 0.98024 0.1079 0.0
C2368 C 0.74353 1.00141 0.07179 0.0
C2369 C 0.75652 1.01589 0.09911 0.0
C2370 C 0.70948 0.99034 0.10561 0.0
C2371 C 0.7455 1.01598 0.13012 0.0
C2372 C 0.67538 0.99016 0.12978 0.0
C2373 C 0.64766 0.95424 0.0864 0.0
N2374 N 0.72262 1.00373 0.13229 0.0
N2375 N 0.67045 0.96249 0.08704 0.0
H2376 H 0.03086 0.7381 0.14671 0.0
H2377 H 0.07553 0.68013 0.027 0.0
H2378 H 0.04469 0.75927 0.03854 0.0
H2379 H 0.10397 0.69941 0.13082 0.0
H2380 H 0.06362 0.70853 0.02997 0.0
H2381 H 0.05729 0.72374 0.1427 0.0
C2382 C 0.03993 0.7402 0.12236 0.0
C2383 C 0.03565 0.7498 0.09288 0.0
C2384 C 0.07293 0.70691 0.05176 0.0
C2385 C 0.06514 0.73276 0.08776 0.0
C2386 C 0.07962 0.69068 0.05016 0.0
C2387 C 0.09063 0.68748 0.07876 0.0
C2388 C 0.07656 0.71939 0.08272 0.0
C2389 C 0.09553 0.70146 0.10823 0.0
C2390 C 0.055 0.73206 0.12011 0.0
C2391 C 0.04763 0.75203 0.06185 0.0
N2392 N 0.08792 0.71647 0.10986 0.0
N2393 N 0.06141 0.74297 0.05976 0.0
H2394 H 0.42312 0.33827 0.36805 0.0
H2395 H 0.30488 0.28254 0.46904 0.0
H2396 H 0.41399 0.35913 0.4707 0.0
H2397 H 0.30922 0.29384 0.35707 0.0
H2398 H 0.34599 0.29936 0.4713 0.0
H2399 H 0.38218 0.31111 0.36554 0.0
C2400 C 0.41259 0.33672 0.39033 0.0
C2401 C 0.42173 0.35092 0.41957 0.0
C2402 C 0.33786 0.29778 0.44618 0.0
C2403 C 0.3755 0.31996 0.41714 0.0
C2404 C 0.31444 0.28815 0.44482 0.0
C2405 C 0.30375 0.28717 0.41287 0.0
C2406 C 0.35061 0.30613 0.41532 0.0
C2407 C 0.31693 0.29457 0.38226 0.0
C2408 C 0.38933 0.32138 0.3888 0.0
C2409 C 0.40746 0.3485 0.44765 0.0
N2410 N 0.33979 0.30394 0.38424 0.0
N2411 N 0.38504 0.33331 0.44578 0.0
H2412 H 0.74231 1.01384 0.35987 0.0
H2413 H 0.69249 0.06768 0.47848 0.0
H2414 H 0.76831 0.03211 0.46518 0.0
H2415 H 0.70856 0.09107 0.37155 0.0
H2416 H 0.71943 0.05391 0.4752 0.0
H2417 H 0.7291 0.04124 0.36273 0.0
C2418 C 0.74562 0.024 0.38334 0.0
C2419 C 0.75634 0.02079 0.41236 0.0
C2420 C 0.71748 0.06255 0.45274 0.0
C2421 C 0.74072 0.0515 0.4162 0.0
C2422 C 0.7021 0.07033 0.45456 0.0
C2423 C 0.69839 0.08046 0.42523 0.0
C2424 C 0.72853 0.06416 0.42093 0.0
C2425 C 0.71108 0.08341 0.39475 0.0
C2426 C 0.73817 0.03964 0.3849 0.0
C2427 C 0.76017 0.03421 0.44224 0.0
N2428 N 0.7252 0.07473 0.39303 0.0
N2429 N 0.75181 0.04862 0.44378 0.0
H2430 H 0.04334 0.74638 0.37053 0.0
H2431 H 0.94687 0.62506 0.43749 0.0
H2432 H 1.00824 0.73787 0.4683 0.0
H2433 H 1.00096 0.63709 0.36655 0.0
H2434 H 0.96104 0.66615 0.4391 0.0
H2435 H 1.01883 0.70622 0.358 0.0
C2436 C 0.03001 0.73605 0.38891 0.0
C2437 C 1.02768 0.74521 0.42042 0.0
C2438 C 0.9695 0.65966 0.42278 0.0
C2439 C 1.00005 0.69924 0.40688 0.0
C2440 C 0.96141 0.63632 0.42174 0.0
C2441 C 0.97298 0.62789 0.40211 0.0
C2442 C 0.9889 0.67434 0.40342 0.0
C2443 C 0.99173 0.64301 0.38226 0.0
C2444 C 1.01614 0.71315 0.38191 0.0
C2445 C 1.01035 0.73126 0.44361 0.0
N2446 N 0.99913 0.66547 0.38348 0.0
N2447 N 0.9973 0.70875 0.43664 0.0
H2448 H 0.71063 0.62664 0.87015 0.0
H2449 H 0.77106 0.74695 0.9646 0.0
H2450 H 0.69284 0.63614 0.97486 0.0
H2451 H 0.74494 0.73795 0.85912 0.0
H2452 H 0.75631 0.70592 0.96848 0.0
H2453 H 0.73737 0.66755 0.8664 0.0
C2454 C 0.71284 0.63723 0.89265 0.0
C2455 C 0.69948 0.62822 0.92275 0.0
C2456 C 0.75439 0.71313 0.94424 0.0
C2457 C 0.73014 0.67445 0.91897 0.0
C2458 C 0.76282 0.73644 0.94197 0.0
C2459 C 0.75896 0.74563 0.9116 0.0
C2460 C 0.74273 0.69926 0.91555 0.0
C2461 C 0.74807 0.73135 0.88304 0.0
C2462 C 0.72799 0.66047 0.89046 0.0
C2463 C 0.70279 0.6426 0.95114 0.0
N2464 N 0.74026 0.7088 0.8857 0.0
N2465 N 0.71779 0.66508 0.94858 0.0
H2466 H 0.31109 1.01531 0.86548 0.0
H2467 H 0.41763 0.07652 0.98381 0.0
H2468 H 0.30405 0.033 0.97151 0.0
H2469 H 0.42081 0.09078 0.87288 0.0
H2470 H 0.37636 0.06008 0.98165 0.0
H2471 H 0.35164 0.04221 0.86817 0.0
C2472 C 0.31811 0.0252 0.88914 0.0
C2473 C 0.30435 0.02207 0.91826 0.0
C2474 C 0.3862 0.06723 0.95799 0.0
C2475 C 0.35074 0.05227 0.92201 0.0
C2476 C 0.40967 0.07652 0.95918 0.0
C2477 C 0.42255 0.08474 0.9284 0.0
C2478 C 0.37563 0.06576 0.92566 0.0
C2479 C 0.41149 0.08445 0.89717 0.0
C2480 C 0.3412 0.04055 0.89066 0.0
C2481 C 0.31418 0.03512 0.94843 0.0
N2482 N 0.38862 0.07469 0.89644 0.0
N2483 N 0.33696 0.04937 0.94985 0.0
H2484 H 0.95673 0.33846 0.86442 0.0
H2485 H 1.01507 0.27607 0.95828 0.0
H2486 H 0.98003 0.35269 0.97159 0.0
H2487 H 0.03582 0.30642 0.8558 0.0
H2488 H 0.98846 0.29047 0.9617 0.0
H2489 H 0.97212 0.31269 0.85988 0.0
C2490 C 0.96444 0.33561 0.88725 0.0
C2491 C 0.9673 0.3477 0.91837 0.0
C2492 C 0.9985 0.29345 0.93819 0.0
C2493 C 0.98432 0.31818 0.9136 0.0
C2494 C 1.01359 0.28523 0.93618 0.0
C2495 C 1.02772 0.29031 0.90685 0.0
C2496 C 0.99715 0.30614 0.9102 0.0
C2497 C 1.02528 0.30234 0.87895 0.0
C2498 C 0.97327 0.32105 0.88459 0.0
C2499 C 0.97763 0.34367 0.94713 0.0
N2500 N 1.01029 0.3099 0.88129 0.0
N2501 N 0.98582 0.32925 0.94408 0.0
H2502 H 0.74618 0.73624 0.64796 0.0
H2503 H 0.6443 0.68209 0.52806 0.0
H2504 H 0.75432 0.76031 0.54131 0.0
H2505 H 0.6351 0.70099 0.63213 0.0
H2506 H 0.68465 0.71007 0.53156 0.0
H2507 H 0.70563 0.723 0.64408 0.0
C2508 C 0.73945 0.73921 0.62401 0.0
C2509 C 0.75344 0.74925 0.59485 0.0
C2510 C 0.6737 0.70847 0.55329 0.0
C2511 C 0.70723 0.73353 0.58986 0.0
C2512 C 0.65077 0.69248 0.55138 0.0
C2513 C 0.63654 0.68928 0.57992 0.0
C2514 C 0.68252 0.72068 0.58448 0.0
C2515 C 0.64561 0.70305 0.6096 0.0
C2516 C 0.71639 0.73172 0.62185 0.0
C2517 C 0.74402 0.75264 0.56434 0.0
N2518 N 0.66824 0.71779 0.61155 0.0
N2519 N 0.72129 0.74418 0.56224 0.0
H2520 H 0.36344 0.97142 0.52961 0.0
H2521 H 0.30864 1.01832 0.65099 0.0
H2522 H 0.3457 0.94411 0.63432 0.0
H2523 H 0.28576 1.00383 0.54367 0.0
H2524 H 0.32208 0.99117 0.64672 0.0
H2525 H 0.33524 0.98354 0.53342 0.0
C2526 C 0.35325 0.96761 0.55314 0.0
C2527 C 0.35686 0.95688 0.58175 0.0
C2528 C 0.31357 0.99347 0.62441 0.0
C2529 C 0.32517 0.9712 0.58666 0.0
C2530 C 0.30595 1.00895 0.62681 0.0
C2531 C 0.29619 1.01327 0.5976 0.0
C2532 C 0.31217 0.98294 0.59215 0.0
C2533 C 0.29318 1.00088 0.56676 0.0
C2534 C 0.33713 0.97441 0.55524 0.0
C2535 C 0.34333 0.95233 0.61171 0.0
N2536 N 0.30175 0.98669 0.56447 0.0
N2537 N 0.32844 0.96007 0.6138 0.0
H2538 H 0.09901 0.41075 0.63234 0.0
H2539 H 0.0422 0.29305 0.52954 0.0
H2540 H 0.08749 0.40714 0.52048 0.0
H2541 H 1.02236 0.30158 0.63332 0.0
H2542 H 0.06941 0.334 0.52735 0.0
H2543 H 0.08187 0.36959 0.63401 0.0
C2544 C 0.09328 0.40133 0.60801 0.0
C2545 C 0.09432 0.41227 0.57627 0.0
C2546 C 0.05935 0.32672 0.55078 0.0
C2547 C 0.07497 0.36531 0.57804 0.0
C2548 C 0.044 0.30345 0.55212 0.0
C2549 C 0.03007 0.29413 0.58162 0.0
C2550 C 0.06107 0.3404 0.57953 0.0
C2551 C 0.03279 0.30824 0.61008 0.0
C2552 C 0.08346 0.37788 0.60903 0.0
C2553 C 0.08673 0.39925 0.54552 0.0
N2554 N 0.04798 0.33068 0.60837 0.0
N2555 N 0.07719 0.37636 0.54716 0.0
H2556 H 0.96956 0.61055 0.80111 0.0
H2557 H 0.0899 0.67155 0.7065 0.0
H2558 H 0.97846 0.63541 0.69484 0.0
H2559 H 0.07972 0.68921 0.81091 0.0
H2560 H 0.04919 0.64402 0.70284 0.0
H2561 H 1.01055 0.62519 0.805 0.0
C2562 C 0.98003 0.61842 0.7783 0.0
C2563 C 0.97084 0.62205 0.74773 0.0
C2564 C 0.05608 0.65356 0.72682 0.0
C2565 C 1.01718 0.63821 0.75172 0.0
C2566 C 0.0792 0.66916 0.72895 0.0
C2567 C 0.08794 0.68272 0.75891 0.0
C2568 C 0.04196 0.65116 0.75526 0.0
C2569 C 0.07346 0.67914 0.78727 0.0
C2570 C 1.00333 0.62681 0.78057 0.0
C2571 C 0.98507 0.63249 0.71892 0.0
N2572 N 0.0511 0.66371 0.78475 0.0
N2573 N 1.00761 0.64031 0.72163 0.0
H2574 H 0.43538 0.36673 0.80601 0.0
H2575 H 0.37513 0.42446 0.70356 0.0
H2576 H 0.40767 0.34756 0.70174 0.0
H2577 H 0.36482 0.41048 0.81465 0.0
H2578 H 0.39924 0.40737 0.7022 0.0
H2579 H 0.42106 0.39352 0.80864 0.0
C2580 C 0.42681 0.3686 0.78342 0.0
C2581 C 0.42258 0.35498 0.75363 0.0
C2582 C 0.39199 0.40841 0.72696 0.0
C2583 C 0.40666 0.38552 0.75623 0.0
C2584 C 0.37829 0.41819 0.72782 0.0
C2585 C 0.36771 0.41854 0.7592 0.0
C2586 C 0.39545 0.39928 0.7578 0.0
C2587 C 0.37249 0.41027 0.78987 0.0
C2588 C 0.41855 0.38371 0.78502 0.0
C2589 C 0.41118 0.35776 0.72518 0.0
N2590 N 0.38594 0.4008 0.7884 0.0
N2591 N 0.40364 0.37274 0.72713 0.0
H2592 H 0.69836 0.07055 0.69148 0.0
H2593 H 0.64703 0.96689 0.80896 0.0
H2594 H 0.68107 0.07785 0.79765 0.0
H2595 H 0.62141 0.9597 0.70344 0.0
H2596 H 0.66031 1.00748 0.80634 0.0
H2597 H 0.671 0.03 0.69427 0.0
C2598 C 0.68841 0.06362 0.71512 0.0
C2599 C 0.6919 0.07738 0.74441 0.0
C2600 C 0.6513 0.99693 0.78408 0.0
C2601 C 0.66127 0.03116 0.74815 0.0
C2602 C 0.64383 0.97386 0.7855 0.0
C2603 C 0.63323 0.96011 0.75633 0.0
C2604 C 0.64889 1.00637 0.75278 0.0
C2605 C 0.62949 0.96982 0.72647 0.0
C2606 C 0.67279 0.04057 0.71664 0.0
C2607 C 0.67875 0.06772 0.77451 0.0
N2608 N 0.63788 0.99256 0.72507 0.0
N2609 N 0.66438 0.04499 0.77599 0.0
H2610 H 0.4124 0.06839 0.19494 0.0
H2611 H 0.35479 0.96448 0.31212 0.0
H2612 H 0.43278 0.07507 0.30344 0.0
H2613 H 0.37577 0.95704 0.20861 0.0
H2614 H 0.38267 1.00493 0.31038 0.0
H2615 H 0.39863 0.02772 0.19829 0.0
C2616 C 0.41445 0.06131 0.21923 0.0
C2617 C 0.42369 0.07496 0.24896 0.0
C2618 C 0.38156 0.99435 0.28841 0.0
C2619 C 0.40729 0.02854 0.25334 0.0
C2620 C 0.36563 0.97135 0.28933 0.0
C2621 C 0.36304 0.95756 0.26043 0.0
C2622 C 0.39433 1.00371 0.25784 0.0
C2623 C 0.37736 0.96718 0.23143 0.0
C2624 C 0.40664 0.03817 0.22111 0.0
C2625 C 0.42584 0.06506 0.27993 0.0
N2626 N 0.39204 0.98985 0.23045 0.0
N2627 N 0.41709 0.04226 0.28164 0.0
H2628 H 0.96606 0.36412 0.29276 0.0
H2629 H 0.08642 0.42175 0.19847 0.0
H2630 H 0.97442 0.34532 0.18812 0.0
H2631 H 0.07683 0.39516 0.3037 0.0
H2632 H 0.04544 0.40741 0.19438 0.0
H2633 H 1.00725 0.38946 0.29645 0.0
C2634 C 0.97648 0.36581 0.27027 0.0
C2635 C 0.96699 0.35256 0.24019 0.0
C2636 C 0.0525 0.40526 0.21859 0.0
C2637 C 1.01363 0.38169 0.24392 0.0
C2638 C 0.07579 0.41348 0.22099 0.0
C2639 C 0.08483 0.40944 0.2514 0.0
C2640 C 0.03849 0.39365 0.2472 0.0
C2641 C 0.07037 0.39845 0.27977 0.0
C2642 C 0.99989 0.38016 0.27244 0.0
C2643 C 0.98121 0.35521 0.21182 0.0
N2644 N 0.04787 0.39091 0.27703 0.0
N2645 N 1.00386 0.36948 0.21435 0.0
H2646 H 0.61448 0.66331 0.26753 0.0
H2647 H 0.70612 0.63665 0.18415 0.0
H2648 H 0.66588 0.70449 0.19229 0.0
H2649 H 0.67849 0.61209 0.28712 0.0
H2650 H 0.68074 0.65176 0.17732 0.0
H2651 H 0.62849 0.63611 0.26659 0.0
C2652 C 0.62833 0.66632 0.25029 0.0
C2653 C 0.63918 0.68611 0.23 0.0
C2654 C 0.67989 0.64277 0.20125 0.0
C2655 C 0.65483 0.65529 0.2284 0.0
C2656 C 0.6943 0.63405 0.20508 0.0
C2657 C 0.69452 0.6234 0.23638 0.0
C2658 C 0.66581 0.64125 0.22918 0.0
C2659 C 0.67878 0.62028 0.26261 0.0
C2660 C 0.63634 0.65094 0.24991 0.0
C2661 C 0.65713 0.68946 0.20836 0.0
N2662 N 0.66525 0.62962 0.25874 0.0
N2663 N 0.66436 0.67425 0.20814 0.0
loop_
_geom_bond_atom_site_label_1
_geom_bond_atom_site_label_2
_geom_bond_distance
_geom_bond_site_symmetry_2
_ccdc_geom_bond_type
Tb0 O3 2.453 . S
Tb0 O4 2.596 . S
Tb0 O5 2.374 . S
Tb0 O13 2.343 . S
Tb0 O15 2.353 . S
Tb0 O17 2.427 . S
Tb0 O18 2.513 . S
C1 O5 1.251 . S
C1 O7 1.263 . S
Tb2 O4 2.343 . S
Tb2 O7 2.353 . S
Tb2 O10 2.427 . S
Tb2 O11 2.513 . S
Tb2 O12 2.453 . S
Tb2 O13 2.596 . S
Tb2 O14 2.374 . S
O3 Tb0 2.453 . S
O3 C19 1.245 . S
O4 Tb0 2.596 . S
O4 Tb2 2.343 . S
O4 C19 1.259 . S
O5 Tb0 2.374 . S
O5 C1 1.251 . S
C6 O10 1.275 . S
C6 O11 1.246 . S
O7 C1 1.263 . S
O7 Tb2 2.353 . S
C8 O12 1.245 . S
C8 O13 1.259 . S
C9 O14 1.250 . S
C9 O15 1.263 . S
O10 Tb2 2.427 . S
O10 C6 1.275 . S
O11 Tb2 2.513 . S
O11 C6 1.246 . S
O12 Tb2 2.453 . S
O12 C8 1.245 . S
O13 Tb0 2.343 . S
O13 Tb2 2.596 . S
O13 C8 1.259 . S
O14 Tb2 2.374 . S
O14 C9 1.250 . S
O15 Tb0 2.353 . S
O15 C9 1.263 . S
C16 O17 1.275 . S
C16 O18 1.246 . S
O17 Tb0 2.427 . S
O17 C16 1.275 . S
O18 Tb0 2.513 . S
O18 C16 1.246 . S
C19 O3 1.245 . S
C19 O4 1.259 . S
Tb20 O23 2.453 . S
Tb20 O24 2.596 . S
Tb20 O25 2.374 . S
Tb20 O33 2.343 . S
Tb20 O35 2.353 . S
Tb20 O37 2.427 . S
Tb20 O38 2.513 . S
C21 O25 1.251 . S
C21 O27 1.263 . S
Tb22 O24 2.343 . S
Tb22 O27 2.353 . S
Tb22 O30 2.427 1_545 S
Tb22 O31 2.513 1_545 S
Tb22 O32 2.453 . S
Tb22 O33 2.596 . S
Tb22 O34 2.374 . S
O23 Tb20 2.453 . S
O23 C39 1.245 . S
O24 Tb20 2.596 . S
O24 Tb22 2.343 . S
O24 C39 1.259 . S
O25 Tb20 2.374 . S
O25 C21 1.251 . S
C26 O30 1.275 . S
C26 O31 1.246 . S
O27 C21 1.263 . S
O27 Tb22 2.353 . S
C28 O32 1.245 . S
C28 O33 1.259 . S
C29 O34 1.250 . S
C29 O35 1.263 . S
O30 Tb22 2.427 1_565 S
O30 C26 1.275 . S
O31 Tb22 2.513 1_565 S
O31 C26 1.246 . S
O32 Tb22 2.453 . S
O32 C28 1.245 . S
O33 Tb20 2.343 . S
O33 Tb22 2.596 . S
O33 C28 1.259 . S
O34 Tb22 2.374 . S
O34 C29 1.250 . S
O35 Tb20 2.353 . S
O35 C29 1.263 . S
C36 O37 1.275 . S
C36 O38 1.246 . S
O37 Tb20 2.427 . S
O37 C36 1.275 . S
O38 Tb20 2.513 . S
O38 C36 1.246 . S
C39 O23 1.245 . S
C39 O24 1.259 . S
Tb40 O43 2.453 . S
Tb40 O44 2.596 . S
Tb40 O45 2.374 . S
Tb40 O53 2.343 . S
Tb40 O55 2.353 . S
Tb40 O57 2.427 . S
Tb40 O58 2.513 . S
C41 O45 1.251 . S
C41 O47 1.263 . S
Tb42 O44 2.343 . S
Tb42 O47 2.353 . S
Tb42 O50 2.427 1_655 S
Tb42 O51 2.513 1_655 S
Tb42 O52 2.453 . S
Tb42 O53 2.596 . S
Tb42 O54 2.374 . S
O43 Tb40 2.453 . S
O43 C59 1.245 . S
O44 Tb40 2.596 . S
O44 Tb42 2.343 . S
O44 C59 1.259 . S
O45 Tb40 2.374 . S
O45 C41 1.251 . S
C46 O50 1.275 . S
C46 O51 1.246 . S
O47 C41 1.263 . S
O47 Tb42 2.353 . S
C48 O52 1.245 . S
C48 O53 1.259 . S
C49 O54 1.250 . S
C49 O55 1.263 . S
O50 Tb42 2.427 1_455 S
O50 C46 1.275 . S
O51 Tb42 2.513 1_455 S
O51 C46 1.246 . S
O52 Tb42 2.453 . S
O52 C48 1.245 . S
O53 Tb40 2.343 . S
O53 Tb42 2.596 . S
O53 C48 1.259 . S
O54 Tb42 2.374 . S
O54 C49 1.250 . S
O55 Tb40 2.353 . S
O55 C49 1.263 . S
C56 O57 1.275 . S
C56 O58 1.246 . S
O57 Tb40 2.427 . S
O57 C56 1.275 . S
O58 Tb40 2.513 . S
O58 C56 1.246 . S
C59 O43 1.245 . S
C59 O44 1.259 . S
Tb60 O63 2.453 . S
Tb60 O64 2.596 . S
Tb60 O65 2.374 . S
Tb60 O73 2.343 . S
Tb60 O75 2.353 . S
Tb60 O77 2.427 . S
Tb60 O78 2.513 . S
C61 O65 1.251 . S
C61 O67 1.263 . S
Tb62 O64 2.343 . S
Tb62 O67 2.353 . S
Tb62 O70 2.427 . S
Tb62 O71 2.513 . S
Tb62 O72 2.453 . S
Tb62 O73 2.596 . S
Tb62 O74 2.374 . S
O63 Tb60 2.453 . S
O63 C79 1.245 . S
O64 Tb60 2.596 . S
O64 Tb62 2.343 . S
O64 C79 1.259 . S
O65 Tb60 2.374 . S
O65 C61 1.251 . S
C66 O70 1.275 . S
C66 O71 1.246 . S
O67 C61 1.263 . S
O67 Tb62 2.353 . S
C68 O72 1.245 . S
C68 O73 1.259 . S
C69 O74 1.250 . S
C69 O75 1.263 . S
O70 Tb62 2.427 . S
O70 C66 1.275 . S
O71 Tb62 2.513 . S
O71 C66 1.246 . S
O72 Tb62 2.453 . S
O72 C68 1.245 . S
O73 Tb60 2.343 . S
O73 Tb62 2.596 . S
O73 C68 1.259 . S
O74 Tb62 2.374 . S
O74 C69 1.250 . S
O75 Tb60 2.353 . S
O75 C69 1.263 . S
C76 O77 1.275 . S
C76 O78 1.246 . S
O77 Tb60 2.427 . S
O77 C76 1.275 . S
O78 Tb60 2.513 . S
O78 C76 1.246 . S
C79 O63 1.245 . S
C79 O64 1.259 . S
Tb80 O83 2.453 . S
Tb80 O84 2.596 . S
Tb80 O85 2.374 . S
Tb80 O93 2.343 . S
Tb80 O95 2.353 . S
Tb80 O97 2.427 . S
Tb80 O98 2.513 . S
C81 O85 1.251 . S
C81 O87 1.263 . S
Tb82 O84 2.343 . S
Tb82 O87 2.353 . S
Tb82 O90 2.427 1_565 S
Tb82 O91 2.513 1_565 S
Tb82 O92 2.453 . S
Tb82 O93 2.596 . S
Tb82 O94 2.374 . S
O83 Tb80 2.453 . S
O83 C99 1.245 . S
O84 Tb80 2.596 . S
O84 Tb82 2.343 . S
O84 C99 1.259 . S
O85 Tb80 2.374 . S
O85 C81 1.251 . S
C86 O90 1.275 . S
C86 O91 1.246 . S
O87 C81 1.263 . S
O87 Tb82 2.353 . S
C88 O92 1.245 . S
C88 O93 1.259 . S
C89 O94 1.250 . S
C89 O95 1.263 . S
O90 Tb82 2.427 1_545 S
O90 C86 1.275 . S
O91 Tb82 2.513 1_545 S
O91 C86 1.246 . S
O92 Tb82 2.453 . S
O92 C88 1.245 . S
O93 Tb80 2.343 . S
O93 Tb82 2.596 . S
O93 C88 1.259 . S
O94 Tb82 2.374 . S
O94 C89 1.250 . S
O95 Tb80 2.353 . S
O95 C89 1.263 . S
C96 O97 1.275 . S
C96 O98 1.246 . S
O97 Tb80 2.427 . S
O97 C96 1.275 . S
O98 Tb80 2.513 . S
O98 C96 1.246 . S
C99 O83 1.245 . S
C99 O84 1.259 . S
Tb100 O103 2.453 . S
Tb100 O104 2.596 . S
Tb100 O105 2.374 . S
Tb100 O113 2.343 . S
Tb100 O115 2.353 . S
Tb100 O117 2.427 . S
Tb100 O118 2.513 . S
C101 O105 1.251 . S
C101 O107 1.263 . S
Tb102 O104 2.343 . S
Tb102 O107 2.353 . S
Tb102 O110 2.427 1_455 S
Tb102 O111 2.513 1_455 S
Tb102 O112 2.453 . S
Tb102 O113 2.596 . S
Tb102 O114 2.374 . S
O103 Tb100 2.453 . S
O103 C119 1.245 . S
O104 Tb100 2.596 . S
O104 Tb102 2.343 . S
O104 C119 1.259 . S
O105 Tb100 2.374 . S
O105 C101 1.251 . S
C106 O110 1.275 . S
C106 O111 1.246 . S
O107 C101 1.263 . S
O107 Tb102 2.353 . S
C108 O112 1.245 . S
C108 O113 1.259 . S
C109 O114 1.250 . S
C109 O115 1.263 . S
O110 Tb102 2.427 1_655 S
O110 C106 1.275 . S
O111 Tb102 2.513 1_655 S
O111 C106 1.246 . S
O112 Tb102 2.453 . S
O112 C108 1.245 . S
O113 Tb100 2.343 . S
O113 Tb102 2.596 . S
O113 C108 1.259 . S
O114 Tb102 2.374 . S
O114 C109 1.250 . S
O115 Tb100 2.353 . S
O115 C109 1.263 . S
C116 O117 1.275 . S
C116 O118 1.246 . S
O117 Tb100 2.427 . S
O117 C116 1.275 . S
O118 Tb100 2.513 . S
O118 C116 1.246 . S
C119 O103 1.245 . S
C119 O104 1.259 . S
Tb120 O123 2.453 . S
Tb120 O124 2.596 . S
Tb120 O125 2.374 . S
Tb120 O133 2.343 . S
Tb120 O135 2.353 . S
Tb120 O137 2.427 . S
Tb120 O138 2.513 . S
C121 O125 1.251 . S
C121 O127 1.263 . S
Tb122 O124 2.343 . S
Tb122 O127 2.353 . S
Tb122 O130 2.427 . S
Tb122 O131 2.513 . S
Tb122 O132 2.453 . S
Tb122 O133 2.596 . S
Tb122 O134 2.374 . S
O123 Tb120 2.453 . S
O123 C139 1.245 . S
O124 Tb120 2.596 . S
O124 Tb122 2.343 . S
O124 C139 1.259 . S
O125 Tb120 2.374 . S
O125 C121 1.251 . S
C126 O130 1.275 . S
C126 O131 1.246 . S
O127 C121 1.263 . S
O127 Tb122 2.353 . S
C128 O132 1.245 . S
C128 O133 1.259 . S
C129 O134 1.250 . S
C129 O135 1.263 . S
O130 Tb122 2.427 . S
O130 C126 1.275 . S
O131 Tb122 2.513 . S
O131 C126 1.246 . S
O132 Tb122 2.453 . S
O132 C128 1.245 . S
O133 Tb120 2.343 . S
O133 Tb122 2.596 . S
O133 C128 1.259 . S
O134 Tb122 2.374 . S
O134 C129 1.250 . S
O135 Tb120 2.353 . S
O135 C129 1.263 . S
C136 O137 1.275 . S
C136 O138 1.246 . S
O137 Tb120 2.427 . S
O137 C136 1.275 . S
O138 Tb120 2.513 . S
O138 C136 1.246 . S
C139 O123 1.245 . S
C139 O124 1.259 . S
Tb140 O143 2.453 . S
Tb140 O144 2.596 . S
Tb140 O145 2.374 . S
Tb140 O153 2.343 . S
Tb140 O155 2.353 . S
Tb140 O157 2.427 1_565 S
Tb140 O158 2.513 1_565 S
C141 O145 1.251 . S
C141 O147 1.263 . S
Tb142 O144 2.343 . S
Tb142 O147 2.353 . S
Tb142 O150 2.427 . S
Tb142 O151 2.513 . S
Tb142 O152 2.453 . S
Tb142 O153 2.596 . S
Tb142 O154 2.374 . S
O143 Tb140 2.453 . S
O143 C159 1.245 . S
O144 Tb140 2.596 . S
O144 Tb142 2.343 . S
O144 C159 1.259 . S
O145 Tb140 2.374 . S
O145 C141 1.251 . S
C146 O150 1.275 . S
C146 O151 1.246 . S
O147 C141 1.263 . S
O147 Tb142 2.353 . S
C148 O152 1.245 . S
C148 O153 1.259 . S
C149 O154 1.250 . S
C149 O155 1.263 . S
O150 Tb142 2.427 . S
O150 C146 1.275 . S
O151 Tb142 2.513 . S
O151 C146 1.246 . S
O152 Tb142 2.453 . S
O152 C148 1.245 . S
O153 Tb140 2.343 . S
O153 Tb142 2.596 . S
O153 C148 1.259 . S
O154 Tb142 2.374 . S
O154 C149 1.250 . S
O155 Tb140 2.353 . S
O155 C149 1.263 . S
C156 O157 1.275 . S
C156 O158 1.246 . S
O157 Tb140 2.427 1_545 S
O157 C156 1.275 . S
O158 Tb140 2.513 1_545 S
O158 C156 1.246 . S
C159 O143 1.245 . S
C159 O144 1.259 . S
Tb160 O163 2.453 . S
Tb160 O164 2.596 . S
Tb160 O165 2.374 . S
Tb160 O173 2.343 . S
Tb160 O175 2.353 . S
Tb160 O177 2.427 1_455 S
Tb160 O178 2.513 1_455 S
C161 O165 1.251 . S
C161 O167 1.263 . S
Tb162 O164 2.343 . S
Tb162 O167 2.353 . S
Tb162 O170 2.427 . S
Tb162 O171 2.513 . S
Tb162 O172 2.453 . S
Tb162 O173 2.596 . S
Tb162 O174 2.374 . S
O163 Tb160 2.453 . S
O163 C179 1.245 . S
O164 Tb160 2.596 . S
O164 Tb162 2.343 . S
O164 C179 1.259 . S
O165 Tb160 2.374 . S
O165 C161 1.251 . S
C166 O170 1.275 . S
C166 O171 1.246 . S
O167 C161 1.263 . S
O167 Tb162 2.353 . S
C168 O172 1.245 . S
C168 O173 1.259 . S
C169 O174 1.250 . S
C169 O175 1.263 . S
O170 Tb162 2.427 . S
O170 C166 1.275 . S
O171 Tb162 2.513 . S
O171 C166 1.246 . S
O172 Tb162 2.453 . S
O172 C168 1.245 . S
O173 Tb160 2.343 . S
O173 Tb162 2.596 . S
O173 C168 1.259 . S
O174 Tb162 2.374 . S
O174 C169 1.250 . S
O175 Tb160 2.353 . S
O175 C169 1.263 . S
C176 O177 1.275 . S
C176 O178 1.246 . S
O177 Tb160 2.427 1_655 S
O177 C176 1.275 . S
O178 Tb160 2.513 1_655 S
O178 C176 1.246 . S
C179 O163 1.245 . S
C179 O164 1.259 . S
Tb180 O183 2.453 . S
Tb180 O184 2.596 . S
Tb180 O185 2.374 . S
Tb180 O193 2.343 . S
Tb180 O195 2.353 . S
Tb180 O197 2.427 . S
Tb180 O198 2.513 . S
C181 O185 1.251 . S
C181 O187 1.263 . S
Tb182 O184 2.343 . S
Tb182 O187 2.353 . S
Tb182 O190 2.427 . S
Tb182 O191 2.513 . S
Tb182 O192 2.453 . S
Tb182 O193 2.596 . S
Tb182 O194 2.374 . S
O183 Tb180 2.453 . S
O183 C199 1.245 . S
O184 Tb180 2.596 . S
O184 Tb182 2.343 . S
O184 C199 1.259 . S
O185 Tb180 2.374 . S
O185 C181 1.251 . S
C186 O190 1.275 . S
C186 O191 1.246 . S
O187 C181 1.263 . S
O187 Tb182 2.353 . S
C188 O192 1.245 . S
C188 O193 1.259 . S
C189 O194 1.250 . S
C189 O195 1.263 . S
O190 Tb182 2.427 . S
O190 C186 1.275 . S
O191 Tb182 2.513 . S
O191 C186 1.246 . S
O192 Tb182 2.453 . S
O192 C188 1.245 . S
O193 Tb180 2.343 . S
O193 Tb182 2.596 . S
O193 C188 1.259 . S
O194 Tb182 2.374 . S
O194 C189 1.250 . S
O195 Tb180 2.353 . S
O195 C189 1.263 . S
C196 O197 1.275 . S
C196 O198 1.246 . S
O197 Tb180 2.427 . S
O197 C196 1.275 . S
O198 Tb180 2.513 . S
O198 C196 1.246 . S
C199 O183 1.245 . S
C199 O184 1.259 . S
Tb200 O203 2.453 . S
Tb200 O204 2.596 . S
Tb200 O205 2.374 . S
Tb200 O213 2.343 . S
Tb200 O215 2.353 . S
Tb200 O217 2.427 1_545 S
Tb200 O218 2.513 1_545 S
C201 O205 1.251 . S
C201 O207 1.263 . S
Tb202 O204 2.343 . S
Tb202 O207 2.353 . S
Tb202 O210 2.427 . S
Tb202 O211 2.513 . S
Tb202 O212 2.453 . S
Tb202 O213 2.596 . S
Tb202 O214 2.374 . S
O203 Tb200 2.453 . S
O203 C219 1.245 . S
O204 Tb200 2.596 . S
O204 Tb202 2.343 . S
O204 C219 1.259 . S
O205 Tb200 2.374 . S
O205 C201 1.251 . S
C206 O210 1.275 . S
C206 O211 1.246 . S
O207 C201 1.263 . S
O207 Tb202 2.353 . S
C208 O212 1.245 . S
C208 O213 1.259 . S
C209 O214 1.250 . S
C209 O215 1.263 . S
O210 Tb202 2.427 . S
O210 C206 1.275 . S
O211 Tb202 2.513 . S
O211 C206 1.246 . S
O212 Tb202 2.453 . S
O212 C208 1.245 . S
O213 Tb200 2.343 . S
O213 Tb202 2.596 . S
O213 C208 1.259 . S
O214 Tb202 2.374 . S
O214 C209 1.250 . S
O215 Tb200 2.353 . S
O215 C209 1.263 . S
C216 O217 1.275 . S
C216 O218 1.246 . S
O217 Tb200 2.427 1_565 S
O217 C216 1.275 . S
O218 Tb200 2.513 1_565 S
O218 C216 1.246 . S
C219 O203 1.245 . S
C219 O204 1.259 . S
Tb220 O223 2.453 . S
Tb220 O224 2.596 . S
Tb220 O225 2.374 . S
Tb220 O233 2.343 . S
Tb220 O235 2.353 . S
Tb220 O237 2.427 1_655 S
Tb220 O238 2.513 1_655 S
C221 O225 1.251 . S
C221 O227 1.263 . S
Tb222 O224 2.343 . S
Tb222 O227 2.353 . S
Tb222 O230 2.427 . S
Tb222 O231 2.513 . S
Tb222 O232 2.453 . S
Tb222 O233 2.596 . S
Tb222 O234 2.374 . S
O223 Tb220 2.453 . S
O223 C239 1.245 . S
O224 Tb220 2.596 . S
O224 Tb222 2.343 . S
O224 C239 1.259 . S
O225 Tb220 2.374 . S
O225 C221 1.251 . S
C226 O230 1.275 . S
C226 O231 1.246 . S
O227 C221 1.263 . S
O227 Tb222 2.353 . S
C228 O232 1.245 . S
C228 O233 1.259 . S
C229 O234 1.250 . S
C229 O235 1.263 . S
O230 Tb222 2.427 . S
O230 C226 1.275 . S
O231 Tb222 2.513 . S
O231 C226 1.246 . S
O232 Tb222 2.453 . S
O232 C228 1.245 . S
O233 Tb220 2.343 . S
O233 Tb222 2.596 . S
O233 C228 1.259 . S
O234 Tb222 2.374 . S
O234 C229 1.250 . S
O235 Tb220 2.353 . S
O235 C229 1.263 . S
C236 O237 1.275 . S
C236 O238 1.246 . S
O237 Tb220 2.427 1_455 S
O237 C236 1.275 . S
O238 Tb220 2.513 1_455 S
O238 C236 1.246 . S
C239 O223 1.245 . S
C239 O224 1.259 . S
Tb240 O243 2.453 . S
Tb240 O244 2.596 . S
Tb240 O245 2.374 . S
Tb240 O253 2.343 . S
Tb240 O255 2.353 . S
Tb240 O257 2.427 . S
Tb240 O258 2.513 . S
C241 O245 1.251 . S
C241 O247 1.263 . S
Tb242 O244 2.343 . S
Tb242 O247 2.353 . S
Tb242 O250 2.427 . S
Tb242 O251 2.513 . S
Tb242 O252 2.453 . S
Tb242 O253 2.596 . S
Tb242 O254 2.374 . S
O243 Tb240 2.453 . S
O243 C259 1.245 . S
O244 Tb240 2.596 . S
O244 Tb242 2.343 . S
O244 C259 1.259 . S
O245 Tb240 2.374 . S
O245 C241 1.251 . S
C246 O250 1.275 . S
C246 O251 1.246 . S
O247 C241 1.263 . S
O247 Tb242 2.353 . S
C248 O252 1.245 . S
C248 O253 1.259 . S
C249 O254 1.250 . S
C249 O255 1.263 . S
O250 Tb242 2.427 . S
O250 C246 1.275 . S
O251 Tb242 2.513 . S
O251 C246 1.246 . S
O252 Tb242 2.453 . S
O252 C248 1.245 . S
O253 Tb240 2.343 . S
O253 Tb242 2.596 . S
O253 C248 1.259 . S
O254 Tb242 2.374 . S
O254 C249 1.250 . S
O255 Tb240 2.353 . S
O255 C249 1.263 . S
C256 O257 1.275 . S
C256 O258 1.246 . S
O257 Tb240 2.427 . S
O257 C256 1.275 . S
O258 Tb240 2.513 . S
O258 C256 1.246 . S
C259 O243 1.245 . S
C259 O244 1.259 . S
Tb260 O263 2.453 . S
Tb260 O264 2.596 . S
Tb260 O265 2.374 . S
Tb260 O273 2.343 . S
Tb260 O275 2.353 . S
Tb260 O277 2.427 . S
Tb260 O278 2.513 . S
C261 O265 1.251 . S
C261 O267 1.263 . S
Tb262 O264 2.343 . S
Tb262 O267 2.353 . S
Tb262 O270 2.427 . S
Tb262 O271 2.513 . S
Tb262 O272 2.453 . S
Tb262 O273 2.596 . S
Tb262 O274 2.374 . S
O263 Tb260 2.453 . S
O263 C279 1.245 . S
O264 Tb260 2.596 . S
O264 Tb262 2.343 . S
O264 C279 1.259 . S
O265 Tb260 2.374 . S
O265 C261 1.251 . S
C266 O270 1.275 . S
C266 O271 1.246 . S
O267 C261 1.263 . S
O267 Tb262 2.353 . S
C268 O272 1.245 . S
C268 O273 1.259 . S
C269 O274 1.250 . S
C269 O275 1.263 . S
O270 Tb262 2.427 . S
O270 C266 1.275 . S
O271 Tb262 2.513 . S
O271 C266 1.246 . S
O272 Tb262 2.453 . S
O272 C268 1.245 . S
O273 Tb260 2.343 . S
O273 Tb262 2.596 . S
O273 C268 1.259 . S
O274 Tb262 2.374 . S
O274 C269 1.250 . S
O275 Tb260 2.353 . S
O275 C269 1.263 . S
C276 O277 1.275 . S
C276 O278 1.246 . S
O277 Tb260 2.427 . S
O277 C276 1.275 . S
O278 Tb260 2.513 . S
O278 C276 1.246 . S
C279 O263 1.245 . S
C279 O264 1.259 . S
Tb280 O283 2.453 . S
Tb280 O284 2.596 . S
Tb280 O285 2.374 . S
Tb280 O293 2.343 . S
Tb280 O295 2.353 . S
Tb280 O297 2.427 . S
Tb280 O298 2.513 . S
C281 O285 1.251 . S
C281 O287 1.263 . S
Tb282 O284 2.343 . S
Tb282 O287 2.353 . S
Tb282 O290 2.427 . S
Tb282 O291 2.513 . S
Tb282 O292 2.453 . S
Tb282 O293 2.596 . S
Tb282 O294 2.374 . S
O283 Tb280 2.453 . S
O283 C299 1.245 . S
O284 Tb280 2.596 . S
O284 Tb282 2.343 . S
O284 C299 1.259 . S
O285 Tb280 2.374 . S
O285 C281 1.251 . S
C286 O290 1.275 . S
C286 O291 1.246 . S
O287 C281 1.263 . S
O287 Tb282 2.353 . S
C288 O292 1.245 . S
C288 O293 1.259 . S
C289 O294 1.250 . S
C289 O295 1.263 . S
O290 Tb282 2.427 . S
O290 C286 1.275 . S
O291 Tb282 2.513 . S
O291 C286 1.246 . S
O292 Tb282 2.453 . S
O292 C288 1.245 . S
O293 Tb280 2.343 . S
O293 Tb282 2.596 . S
O293 C288 1.259 . S
O294 Tb282 2.374 . S
O294 C289 1.250 . S
O295 Tb280 2.353 . S
O295 C289 1.263 . S
C296 O297 1.275 . S
C296 O298 1.246 . S
O297 Tb280 2.427 . S
O297 C296 1.275 . S
O298 Tb280 2.513 . S
O298 C296 1.246 . S
C299 O283 1.245 . S
C299 O284 1.259 . S
Tb300 O303 2.453 . S
Tb300 O304 2.596 . S
Tb300 O305 2.374 . S
Tb300 O313 2.343 . S
Tb300 O315 2.353 . S
Tb300 O317 2.427 . S
Tb300 O318 2.513 . S
C301 O305 1.251 . S
C301 O307 1.263 . S
Tb302 O304 2.343 . S
Tb302 O307 2.353 . S
Tb302 O310 2.427 . S
Tb302 O311 2.513 . S
Tb302 O312 2.453 . S
Tb302 O313 2.596 . S
Tb302 O314 2.374 . S
O303 Tb300 2.453 . S
O303 C319 1.245 . S
O304 Tb300 2.596 . S
O304 Tb302 2.343 . S
O304 C319 1.259 . S
O305 Tb300 2.374 . S
O305 C301 1.251 . S
C306 O310 1.275 . S
C306 O311 1.246 . S
O307 C301 1.263 . S
O307 Tb302 2.353 . S
C308 O312 1.245 . S
C308 O313 1.259 . S
C309 O314 1.250 . S
C309 O315 1.263 . S
O310 Tb302 2.427 . S
O310 C306 1.275 . S
O311 Tb302 2.513 . S
O311 C306 1.246 . S
O312 Tb302 2.453 . S
O312 C308 1.245 . S
O313 Tb300 2.343 . S
O313 Tb302 2.596 . S
O313 C308 1.259 . S
O314 Tb302 2.374 . S
O314 C309 1.250 . S
O315 Tb300 2.353 . S
O315 C309 1.263 . S
C316 O317 1.275 . S
C316 O318 1.246 . S
O317 Tb300 2.427 . S
O317 C316 1.275 . S
O318 Tb300 2.513 . S
O318 C316 1.246 . S
C319 O303 1.245 . S
C319 O304 1.259 . S
Tb320 O323 2.453 . S
Tb320 O324 2.596 . S
Tb320 O325 2.374 . S
Tb320 O333 2.343 . S
Tb320 O335 2.353 . S
Tb320 O337 2.427 . S
Tb320 O338 2.513 . S
C321 O325 1.251 . S
C321 O327 1.263 . S
Tb322 O324 2.343 . S
Tb322 O327 2.353 . S
Tb322 O330 2.427 . S
Tb322 O331 2.513 . S
Tb322 O332 2.453 . S
Tb322 O333 2.596 . S
Tb322 O334 2.374 . S
O323 Tb320 2.453 . S
O323 C339 1.245 . S
O324 Tb320 2.596 . S
O324 Tb322 2.343 . S
O324 C339 1.259 . S
O325 Tb320 2.374 . S
O325 C321 1.251 . S
C326 O330 1.275 . S
C326 O331 1.246 . S
O327 C321 1.263 . S
O327 Tb322 2.353 . S
C328 O332 1.245 . S
C328 O333 1.259 . S
C329 O334 1.250 . S
C329 O335 1.263 . S
O330 Tb322 2.427 . S
O330 C326 1.275 . S
O331 Tb322 2.513 . S
O331 C326 1.246 . S
O332 Tb322 2.453 . S
O332 C328 1.245 . S
O333 Tb320 2.343 . S
O333 Tb322 2.596 . S
O333 C328 1.259 . S
O334 Tb322 2.374 . S
O334 C329 1.250 . S
O335 Tb320 2.353 . S
O335 C329 1.263 . S
C336 O337 1.275 . S
C336 O338 1.246 . S
O337 Tb320 2.427 . S
O337 C336 1.275 . S
O338 Tb320 2.513 . S
O338 C336 1.246 . S
C339 O323 1.245 . S
C339 O324 1.259 . S
Tb340 O343 2.453 . S
Tb340 O344 2.596 . S
Tb340 O345 2.374 . S
Tb340 O353 2.343 . S
Tb340 O355 2.353 . S
Tb340 O357 2.427 . S
Tb340 O358 2.513 . S
C341 O345 1.251 . S
C341 O347 1.263 . S
Tb342 O344 2.343 . S
Tb342 O347 2.353 . S
Tb342 O350 2.427 . S
Tb342 O351 2.513 . S
Tb342 O352 2.453 . S
Tb342 O353 2.596 . S
Tb342 O354 2.374 . S
O343 Tb340 2.453 . S
O343 C359 1.245 . S
O344 Tb340 2.596 . S
O344 Tb342 2.343 . S
O344 C359 1.259 . S
O345 Tb340 2.374 . S
O345 C341 1.251 . S
C346 O350 1.275 . S
C346 O351 1.246 . S
O347 C341 1.263 . S
O347 Tb342 2.353 . S
C348 O352 1.245 . S
C348 O353 1.259 . S
C349 O354 1.250 . S
C349 O355 1.263 . S
O350 Tb342 2.427 . S
O350 C346 1.275 . S
O351 Tb342 2.513 . S
O351 C346 1.246 . S
O352 Tb342 2.453 . S
O352 C348 1.245 . S
O353 Tb340 2.343 . S
O353 Tb342 2.596 . S
O353 C348 1.259 . S
O354 Tb342 2.374 . S
O354 C349 1.250 . S
O355 Tb340 2.353 . S
O355 C349 1.263 . S
C356 O357 1.275 . S
C356 O358 1.246 . S
O357 Tb340 2.427 . S
O357 C356 1.275 . S
O358 Tb340 2.513 . S
O358 C356 1.246 . S
C359 O343 1.245 . S
C359 O344 1.259 . S
Tb360 O363 2.453 . S
Tb360 O364 2.596 . S
Tb360 O365 2.374 . S
Tb360 O373 2.343 . S
Tb360 O375 2.353 . S
Tb360 O377 2.427 . S
Tb360 O378 2.513 . S
C361 O365 1.251 . S
C361 O367 1.263 . S
Tb362 O364 2.343 . S
Tb362 O367 2.353 . S
Tb362 O370 2.427 . S
Tb362 O371 2.513 . S
Tb362 O372 2.453 . S
Tb362 O373 2.596 . S
Tb362 O374 2.374 . S
O363 Tb360 2.453 . S
O363 C379 1.245 . S
O364 Tb360 2.596 . S
O364 Tb362 2.343 . S
O364 C379 1.259 . S
O365 Tb360 2.374 . S
O365 C361 1.251 . S
C366 O370 1.275 . S
C366 O371 1.246 . S
O367 C361 1.263 . S
O367 Tb362 2.353 . S
C368 O372 1.245 . S
C368 O373 1.259 . S
C369 O374 1.250 . S
C369 O375 1.263 . S
O370 Tb362 2.427 . S
O370 C366 1.275 . S
O371 Tb362 2.513 . S
O371 C366 1.246 . S
O372 Tb362 2.453 . S
O372 C368 1.245 . S
O373 Tb360 2.343 . S
O373 Tb362 2.596 . S
O373 C368 1.259 . S
O374 Tb362 2.374 . S
O374 C369 1.250 . S
O375 Tb360 2.353 . S
O375 C369 1.263 . S
C376 O377 1.275 . S
C376 O378 1.246 . S
O377 Tb360 2.427 . S
O377 C376 1.275 . S
O378 Tb360 2.513 . S
O378 C376 1.246 . S
C379 O363 1.245 . S
C379 O364 1.259 . S
Tb380 O383 2.453 . S
Tb380 O384 2.596 . S
Tb380 O385 2.374 . S
Tb380 O393 2.343 . S
Tb380 O395 2.353 . S
Tb380 O397 2.427 . S
Tb380 O398 2.513 . S
C381 O385 1.251 . S
C381 O387 1.263 . S
Tb382 O384 2.343 . S
Tb382 O387 2.353 . S
Tb382 O390 2.427 . S
Tb382 O391 2.513 . S
Tb382 O392 2.453 . S
Tb382 O393 2.596 . S
Tb382 O394 2.374 . S
O383 Tb380 2.453 . S
O383 C399 1.245 . S
O384 Tb380 2.596 . S
O384 Tb382 2.343 . S
O384 C399 1.259 . S
O385 Tb380 2.374 . S
O385 C381 1.251 . S
C386 O390 1.275 . S
C386 O391 1.246 . S
O387 C381 1.263 . S
O387 Tb382 2.353 . S
C388 O392 1.245 . S
C388 O393 1.259 . S
C389 O394 1.250 . S
C389 O395 1.263 . S
O390 Tb382 2.427 . S
O390 C386 1.275 . S
O391 Tb382 2.513 . S
O391 C386 1.246 . S
O392 Tb382 2.453 . S
O392 C388 1.245 . S
O393 Tb380 2.343 . S
O393 Tb382 2.596 . S
O393 C388 1.259 . S
O394 Tb382 2.374 . S
O394 C389 1.250 . S
O395 Tb380 2.353 . S
O395 C389 1.263 . S
C396 O397 1.275 . S
C396 O398 1.246 . S
O397 Tb380 2.427 . S
O397 C396 1.275 . S
O398 Tb380 2.513 . S
O398 C396 1.246 . S
C399 O383 1.245 . S
C399 O384 1.259 . S
Tb400 O403 2.453 . S
Tb400 O404 2.596 . S
Tb400 O405 2.374 . S
Tb400 O413 2.343 . S
Tb400 O415 2.353 . S
Tb400 O417 2.427 . S
Tb400 O418 2.513 . S
C401 O405 1.251 . S
C401 O407 1.263 . S
Tb402 O404 2.343 . S
Tb402 O407 2.353 . S
Tb402 O410 2.427 . S
Tb402 O411 2.513 . S
Tb402 O412 2.453 . S
Tb402 O413 2.596 . S
Tb402 O414 2.374 . S
O403 Tb400 2.453 . S
O403 C419 1.245 . S
O404 Tb400 2.596 . S
O404 Tb402 2.343 . S
O404 C419 1.259 . S
O405 Tb400 2.374 . S
O405 C401 1.251 . S
C406 O410 1.275 . S
C406 O411 1.246 . S
O407 C401 1.263 . S
O407 Tb402 2.353 . S
C408 O412 1.245 . S
C408 O413 1.259 . S
C409 O414 1.250 . S
C409 O415 1.263 . S
O410 Tb402 2.427 . S
O410 C406 1.275 . S
O411 Tb402 2.513 . S
O411 C406 1.246 . S
O412 Tb402 2.453 . S
O412 C408 1.245 . S
O413 Tb400 2.343 . S
O413 Tb402 2.596 . S
O413 C408 1.259 . S
O414 Tb402 2.374 . S
O414 C409 1.250 . S
O415 Tb400 2.353 . S
O415 C409 1.263 . S
C416 O417 1.275 . S
C416 O418 1.246 . S
O417 Tb400 2.427 . S
O417 C416 1.275 . S
O418 Tb400 2.513 . S
O418 C416 1.246 . S
C419 O403 1.245 . S
C419 O404 1.259 . S
Tb420 O423 2.453 . S
Tb420 O424 2.596 . S
Tb420 O425 2.374 . S
Tb420 O433 2.343 . S
Tb420 O435 2.353 . S
Tb420 O437 2.427 . S
Tb420 O438 2.513 . S
C421 O425 1.251 . S
C421 O427 1.263 . S
Tb422 O424 2.343 . S
Tb422 O427 2.353 . S
Tb422 O430 2.427 . S
Tb422 O431 2.513 . S
Tb422 O432 2.453 . S
Tb422 O433 2.596 . S
Tb422 O434 2.374 . S
O423 Tb420 2.453 . S
O423 C439 1.245 . S
O424 Tb420 2.596 . S
O424 Tb422 2.343 . S
O424 C439 1.259 . S
O425 Tb420 2.374 . S
O425 C421 1.251 . S
C426 O430 1.275 . S
C426 O431 1.246 . S
O427 C421 1.263 . S
O427 Tb422 2.353 . S
C428 O432 1.245 . S
C428 O433 1.259 . S
C429 O434 1.250 . S
C429 O435 1.263 . S
O430 Tb422 2.427 . S
O430 C426 1.275 . S
O431 Tb422 2.513 . S
O431 C426 1.246 . S
O432 Tb422 2.453 . S
O432 C428 1.245 . S
O433 Tb420 2.343 . S
O433 Tb422 2.596 . S
O433 C428 1.259 . S
O434 Tb422 2.374 . S
O434 C429 1.250 . S
O435 Tb420 2.353 . S
O435 C429 1.263 . S
C436 O437 1.275 . S
C436 O438 1.246 . S
O437 Tb420 2.427 . S
O437 C436 1.275 . S
O438 Tb420 2.513 . S
O438 C436 1.246 . S
C439 O423 1.245 . S
C439 O424 1.259 . S
Tb440 O443 2.453 . S
Tb440 O444 2.596 . S
Tb440 O445 2.374 . S
Tb440 O453 2.343 . S
Tb440 O455 2.353 . S
Tb440 O457 2.427 . S
Tb440 O458 2.513 . S
C441 O445 1.251 . S
C441 O447 1.263 . S
Tb442 O444 2.343 . S
Tb442 O447 2.353 . S
Tb442 O450 2.427 . S
Tb442 O451 2.513 . S
Tb442 O452 2.453 . S
Tb442 O453 2.596 . S
Tb442 O454 2.374 . S
O443 Tb440 2.453 . S
O443 C459 1.245 . S
O444 Tb440 2.596 . S
O444 Tb442 2.343 . S
O444 C459 1.259 . S
O445 Tb440 2.374 . S
O445 C441 1.251 . S
C446 O450 1.275 . S
C446 O451 1.246 . S
O447 C441 1.263 . S
O447 Tb442 2.353 . S
C448 O452 1.245 . S
C448 O453 1.259 . S
C449 O454 1.250 . S
C449 O455 1.263 . S
O450 Tb442 2.427 . S
O450 C446 1.275 . S
O451 Tb442 2.513 . S
O451 C446 1.246 . S
O452 Tb442 2.453 . S
O452 C448 1.245 . S
O453 Tb440 2.343 . S
O453 Tb442 2.596 . S
O453 C448 1.259 . S
O454 Tb442 2.374 . S
O454 C449 1.250 . S
O455 Tb440 2.353 . S
O455 C449 1.263 . S
C456 O457 1.275 . S
C456 O458 1.246 . S
O457 Tb440 2.427 . S
O457 C456 1.275 . S
O458 Tb440 2.513 . S
O458 C456 1.246 . S
C459 O443 1.245 . S
C459 O444 1.259 . S
Tb460 O463 2.453 . S
Tb460 O464 2.596 . S
Tb460 O465 2.374 . S
Tb460 O473 2.343 . S
Tb460 O475 2.353 . S
Tb460 O477 2.427 . S
Tb460 O478 2.513 . S
C461 O465 1.251 . S
C461 O467 1.263 . S
Tb462 O464 2.343 . S
Tb462 O467 2.353 . S
Tb462 O470 2.427 . S
Tb462 O471 2.513 . S
Tb462 O472 2.453 . S
Tb462 O473 2.596 . S
Tb462 O474 2.374 . S
O463 Tb460 2.453 . S
O463 C479 1.245 . S
O464 Tb460 2.596 . S
O464 Tb462 2.343 . S
O464 C479 1.259 . S
O465 Tb460 2.374 . S
O465 C461 1.251 . S
C466 O470 1.275 . S
C466 O471 1.246 . S
O467 C461 1.263 . S
O467 Tb462 2.353 . S
C468 O472 1.245 . S
C468 O473 1.259 . S
C469 O474 1.250 . S
C469 O475 1.263 . S
O470 Tb462 2.427 . S
O470 C466 1.275 . S
O471 Tb462 2.513 . S
O471 C466 1.246 . S
O472 Tb462 2.453 . S
O472 C468 1.245 . S
O473 Tb460 2.343 . S
O473 Tb462 2.596 . S
O473 C468 1.259 . S
O474 Tb462 2.374 . S
O474 C469 1.250 . S
O475 Tb460 2.353 . S
O475 C469 1.263 . S
C476 O477 1.275 . S
C476 O478 1.246 . S
O477 Tb460 2.427 . S
O477 C476 1.275 . S
O478 Tb460 2.513 . S
O478 C476 1.246 . S
C479 O463 1.245 . S
C479 O464 1.259 . S
Tb480 O483 2.453 . S
Tb480 O484 2.596 . S
Tb480 O485 2.374 . S
Tb480 O493 2.343 . S
Tb480 O495 2.353 . S
Tb480 O497 2.427 . S
Tb480 O498 2.513 . S
C481 O485 1.251 . S
C481 O487 1.263 . S
Tb482 O484 2.343 . S
Tb482 O487 2.353 . S
Tb482 O490 2.427 . S
Tb482 O491 2.513 . S
Tb482 O492 2.453 . S
Tb482 O493 2.596 . S
Tb482 O494 2.374 . S
O483 Tb480 2.453 . S
O483 C499 1.245 . S
O484 Tb480 2.596 . S
O484 Tb482 2.343 . S
O484 C499 1.259 . S
O485 Tb480 2.374 . S
O485 C481 1.251 . S
C486 O490 1.275 . S
C486 O491 1.246 . S
O487 C481 1.263 . S
O487 Tb482 2.353 . S
C488 O492 1.245 . S
C488 O493 1.259 . S
C489 O494 1.250 . S
C489 O495 1.263 . S
O490 Tb482 2.427 . S
O490 C486 1.275 . S
O491 Tb482 2.513 . S
O491 C486 1.246 . S
O492 Tb482 2.453 . S
O492 C488 1.245 . S
O493 Tb480 2.343 . S
O493 Tb482 2.596 . S
O493 C488 1.259 . S
O494 Tb482 2.374 . S
O494 C489 1.250 . S
O495 Tb480 2.353 . S
O495 C489 1.263 . S
C496 O497 1.275 . S
C496 O498 1.246 . S
O497 Tb480 2.427 . S
O497 C496 1.275 . S
O498 Tb480 2.513 . S
O498 C496 1.246 . S
C499 O483 1.245 . S
C499 O484 1.259 . S
Tb500 O503 2.453 . S
Tb500 O504 2.596 . S
Tb500 O505 2.374 . S
Tb500 O513 2.343 . S
Tb500 O515 2.353 . S
Tb500 O517 2.427 . S
Tb500 O518 2.513 . S
C501 O505 1.251 . S
C501 O507 1.263 . S
Tb502 O504 2.343 . S
Tb502 O507 2.353 . S
Tb502 O510 2.427 . S
Tb502 O511 2.513 . S
Tb502 O512 2.453 . S
Tb502 O513 2.596 . S
Tb502 O514 2.374 . S
O503 Tb500 2.453 . S
O503 C519 1.245 . S
O504 Tb500 2.596 . S
O504 Tb502 2.343 . S
O504 C519 1.259 . S
O505 Tb500 2.374 . S
O505 C501 1.251 . S
C506 O510 1.275 . S
C506 O511 1.246 . S
O507 C501 1.263 . S
O507 Tb502 2.353 . S
C508 O512 1.245 . S
C508 O513 1.259 . S
C509 O514 1.250 . S
C509 O515 1.263 . S
O510 Tb502 2.427 . S
O510 C506 1.275 . S
O511 Tb502 2.513 . S
O511 C506 1.246 . S
O512 Tb502 2.453 . S
O512 C508 1.245 . S
O513 Tb500 2.343 . S
O513 Tb502 2.596 . S
O513 C508 1.259 . S
O514 Tb502 2.374 . S
O514 C509 1.250 . S
O515 Tb500 2.353 . S
O515 C509 1.263 . S
C516 O517 1.275 . S
C516 O518 1.246 . S
O517 Tb500 2.427 . S
O517 C516 1.275 . S
O518 Tb500 2.513 . S
O518 C516 1.246 . S
C519 O503 1.245 . S
C519 O504 1.259 . S
Tb520 O523 2.453 . S
Tb520 O524 2.596 . S
Tb520 O525 2.374 . S
Tb520 O533 2.343 . S
Tb520 O535 2.353 . S
Tb520 O537 2.427 . S
Tb520 O538 2.513 . S
C521 O525 1.251 . S
C521 O527 1.263 . S
Tb522 O524 2.343 . S
Tb522 O527 2.353 . S
Tb522 O530 2.427 . S
Tb522 O531 2.513 . S
Tb522 O532 2.453 . S
Tb522 O533 2.596 . S
Tb522 O534 2.374 . S
O523 Tb520 2.453 . S
O523 C539 1.245 . S
O524 Tb520 2.596 . S
O524 Tb522 2.343 . S
O524 C539 1.259 . S
O525 Tb520 2.374 . S
O525 C521 1.251 . S
C526 O530 1.275 . S
C526 O531 1.246 . S
O527 C521 1.263 . S
O527 Tb522 2.353 . S
C528 O532 1.245 . S
C528 O533 1.259 . S
C529 O534 1.250 . S
C529 O535 1.263 . S
O530 Tb522 2.427 . S
O530 C526 1.275 . S
O531 Tb522 2.513 . S
O531 C526 1.246 . S
O532 Tb522 2.453 . S
O532 C528 1.245 . S
O533 Tb520 2.343 . S
O533 Tb522 2.596 . S
O533 C528 1.259 . S
O534 Tb522 2.374 . S
O534 C529 1.250 . S
O535 Tb520 2.353 . S
O535 C529 1.263 . S
C536 O537 1.275 . S
C536 O538 1.246 . S
O537 Tb520 2.427 . S
O537 C536 1.275 . S
O538 Tb520 2.513 . S
O538 C536 1.246 . S
C539 O523 1.245 . S
C539 O524 1.259 . S
Tb540 O543 2.453 . S
Tb540 O544 2.596 . S
Tb540 O545 2.374 . S
Tb540 O553 2.343 . S
Tb540 O555 2.353 . S
Tb540 O557 2.427 . S
Tb540 O558 2.513 . S
C541 O545 1.251 . S
C541 O547 1.263 . S
Tb542 O544 2.343 . S
Tb542 O547 2.353 . S
Tb542 O550 2.427 . S
Tb542 O551 2.513 . S
Tb542 O552 2.453 . S
Tb542 O553 2.596 . S
Tb542 O554 2.374 . S
O543 Tb540 2.453 . S
O543 C559 1.245 . S
O544 Tb540 2.596 . S
O544 Tb542 2.343 . S
O544 C559 1.259 . S
O545 Tb540 2.374 . S
O545 C541 1.251 . S
C546 O550 1.275 . S
C546 O551 1.246 . S
O547 C541 1.263 . S
O547 Tb542 2.353 . S
C548 O552 1.245 . S
C548 O553 1.259 . S
C549 O554 1.250 . S
C549 O555 1.263 . S
O550 Tb542 2.427 . S
O550 C546 1.275 . S
O551 Tb542 2.513 . S
O551 C546 1.246 . S
O552 Tb542 2.453 . S
O552 C548 1.245 . S
O553 Tb540 2.343 . S
O553 Tb542 2.596 . S
O553 C548 1.259 . S
O554 Tb542 2.374 . S
O554 C549 1.250 . S
O555 Tb540 2.353 . S
O555 C549 1.263 . S
C556 O557 1.275 . S
C556 O558 1.246 . S
O557 Tb540 2.427 . S
O557 C556 1.275 . S
O558 Tb540 2.513 . S
O558 C556 1.246 . S
C559 O543 1.245 . S
C559 O544 1.259 . S
Tb560 O563 2.453 . S
Tb560 O564 2.596 . S
Tb560 O565 2.374 . S
Tb560 O573 2.343 . S
Tb560 O575 2.353 . S
Tb560 O577 2.427 . S
Tb560 O578 2.513 . S
C561 O565 1.251 . S
C561 O567 1.263 . S
Tb562 O564 2.343 . S
Tb562 O567 2.353 . S
Tb562 O570 2.427 . S
Tb562 O571 2.513 . S
Tb562 O572 2.453 . S
Tb562 O573 2.596 . S
Tb562 O574 2.374 . S
O563 Tb560 2.453 . S
O563 C579 1.245 . S
O564 Tb560 2.596 . S
O564 Tb562 2.343 . S
O564 C579 1.259 . S
O565 Tb560 2.374 . S
O565 C561 1.251 . S
C566 O570 1.275 . S
C566 O571 1.246 . S
O567 C561 1.263 . S
O567 Tb562 2.353 . S
C568 O572 1.245 . S
C568 O573 1.259 . S
C569 O574 1.250 . S
C569 O575 1.263 . S
O570 Tb562 2.427 . S
O570 C566 1.275 . S
O571 Tb562 2.513 . S
O571 C566 1.246 . S
O572 Tb562 2.453 . S
O572 C568 1.245 . S
O573 Tb560 2.343 . S
O573 Tb562 2.596 . S
O573 C568 1.259 . S
O574 Tb562 2.374 . S
O574 C569 1.250 . S
O575 Tb560 2.353 . S
O575 C569 1.263 . S
C576 O577 1.275 . S
C576 O578 1.246 . S
O577 Tb560 2.427 . S
O577 C576 1.275 . S
O578 Tb560 2.513 . S
O578 C576 1.246 . S
C579 O563 1.245 . S
C579 O564 1.259 . S
Tb580 O583 2.453 . S
Tb580 O584 2.596 . S
Tb580 O585 2.374 . S
Tb580 O593 2.343 . S
Tb580 O595 2.353 . S
Tb580 O597 2.427 . S
Tb580 O598 2.513 . S
C581 O585 1.251 . S
C581 O587 1.263 . S
Tb582 O584 2.343 . S
Tb582 O587 2.353 . S
Tb582 O590 2.427 . S
Tb582 O591 2.513 . S
Tb582 O592 2.453 . S
Tb582 O593 2.596 . S
Tb582 O594 2.374 . S
O583 Tb580 2.453 . S
O583 C599 1.245 . S
O584 Tb580 2.596 . S
O584 Tb582 2.343 . S
O584 C599 1.259 . S
O585 Tb580 2.374 . S
O585 C581 1.251 . S
C586 O590 1.275 . S
C586 O591 1.246 . S
O587 C581 1.263 . S
O587 Tb582 2.353 . S
C588 O592 1.245 . S
C588 O593 1.259 . S
C589 O594 1.250 . S
C589 O595 1.263 . S
O590 Tb582 2.427 . S
O590 C586 1.275 . S
O591 Tb582 2.513 . S
O591 C586 1.246 . S
O592 Tb582 2.453 . S
O592 C588 1.245 . S
O593 Tb580 2.343 . S
O593 Tb582 2.596 . S
O593 C588 1.259 . S
O594 Tb582 2.374 . S
O594 C589 1.250 . S
O595 Tb580 2.353 . S
O595 C589 1.263 . S
C596 O597 1.275 . S
C596 O598 1.246 . S
O597 Tb580 2.427 . S
O597 C596 1.275 . S
O598 Tb580 2.513 . S
O598 C596 1.246 . S
C599 O583 1.245 . S
C599 O584 1.259 . S
Tb600 O603 2.453 . S
Tb600 O604 2.596 . S
Tb600 O605 2.374 . S
Tb600 O613 2.343 . S
Tb600 O615 2.353 . S
Tb600 O617 2.427 . S
Tb600 O618 2.513 . S
C601 O605 1.251 . S
C601 O607 1.263 . S
Tb602 O604 2.343 . S
Tb602 O607 2.353 . S
Tb602 O610 2.427 . S
Tb602 O611 2.513 . S
Tb602 O612 2.453 . S
Tb602 O613 2.596 . S
Tb602 O614 2.374 . S
O603 Tb600 2.453 . S
O603 C619 1.245 . S
O604 Tb600 2.596 . S
O604 Tb602 2.343 . S
O604 C619 1.259 . S
O605 Tb600 2.374 . S
O605 C601 1.251 . S
C606 O610 1.275 . S
C606 O611 1.246 . S
O607 C601 1.263 . S
O607 Tb602 2.353 . S
C608 O612 1.245 . S
C608 O613 1.259 . S
C609 O614 1.250 . S
C609 O615 1.263 . S
O610 Tb602 2.427 . S
O610 C606 1.275 . S
O611 Tb602 2.513 . S
O611 C606 1.246 . S
O612 Tb602 2.453 . S
O612 C608 1.245 . S
O613 Tb600 2.343 . S
O613 Tb602 2.596 . S
O613 C608 1.259 . S
O614 Tb602 2.374 . S
O614 C609 1.250 . S
O615 Tb600 2.353 . S
O615 C609 1.263 . S
C616 O617 1.275 . S
C616 O618 1.246 . S
O617 Tb600 2.427 . S
O617 C616 1.275 . S
O618 Tb600 2.513 . S
O618 C616 1.246 . S
C619 O603 1.245 . S
C619 O604 1.259 . S
Tb620 O623 2.453 . S
Tb620 O624 2.596 . S
Tb620 O625 2.374 . S
Tb620 O633 2.343 . S
Tb620 O635 2.353 . S
Tb620 O637 2.427 . S
Tb620 O638 2.513 . S
C621 O625 1.251 . S
C621 O627 1.263 . S
Tb622 O624 2.343 . S
Tb622 O627 2.353 . S
Tb622 O630 2.427 . S
Tb622 O631 2.513 . S
Tb622 O632 2.453 . S
Tb622 O633 2.596 . S
Tb622 O634 2.374 . S
O623 Tb620 2.453 . S
O623 C639 1.245 . S
O624 Tb620 2.596 . S
O624 Tb622 2.343 . S
O624 C639 1.259 . S
O625 Tb620 2.374 . S
O625 C621 1.251 . S
C626 O630 1.275 . S
C626 O631 1.246 . S
O627 C621 1.263 . S
O627 Tb622 2.353 . S
C628 O632 1.245 . S
C628 O633 1.259 . S
C629 O634 1.250 . S
C629 O635 1.263 . S
O630 Tb622 2.427 . S
O630 C626 1.275 . S
O631 Tb622 2.513 . S
O631 C626 1.246 . S
O632 Tb622 2.453 . S
O632 C628 1.245 . S
O633 Tb620 2.343 . S
O633 Tb622 2.596 . S
O633 C628 1.259 . S
O634 Tb622 2.374 . S
O634 C629 1.250 . S
O635 Tb620 2.353 . S
O635 C629 1.263 . S
C636 O637 1.275 . S
C636 O638 1.246 . S
O637 Tb620 2.427 . S
O637 C636 1.275 . S
O638 Tb620 2.513 . S
O638 C636 1.246 . S
C639 O623 1.245 . S
C639 O624 1.259 . S
Tb640 O643 2.453 . S
Tb640 O644 2.596 . S
Tb640 O645 2.374 . S
Tb640 O653 2.343 . S
Tb640 O655 2.353 . S
Tb640 O657 2.427 . S
Tb640 O658 2.513 . S
C641 O645 1.251 . S
C641 O647 1.263 . S
Tb642 O644 2.343 . S
Tb642 O647 2.353 . S
Tb642 O650 2.427 . S
Tb642 O651 2.513 . S
Tb642 O652 2.453 . S
Tb642 O653 2.596 . S
Tb642 O654 2.374 . S
O643 Tb640 2.453 . S
O643 C659 1.245 . S
O644 Tb640 2.596 . S
O644 Tb642 2.343 . S
O644 C659 1.259 . S
O645 Tb640 2.374 . S
O645 C641 1.251 . S
C646 O650 1.275 . S
C646 O651 1.246 . S
O647 C641 1.263 . S
O647 Tb642 2.353 . S
C648 O652 1.245 . S
C648 O653 1.259 . S
C649 O654 1.250 . S
C649 O655 1.263 . S
O650 Tb642 2.427 . S
O650 C646 1.275 . S
O651 Tb642 2.513 . S
O651 C646 1.246 . S
O652 Tb642 2.453 . S
O652 C648 1.245 . S
O653 Tb640 2.343 . S
O653 Tb642 2.596 . S
O653 C648 1.259 . S
O654 Tb642 2.374 . S
O654 C649 1.250 . S
O655 Tb640 2.353 . S
O655 C649 1.263 . S
C656 O657 1.275 . S
C656 O658 1.246 . S
O657 Tb640 2.427 . S
O657 C656 1.275 . S
O658 Tb640 2.513 . S
O658 C656 1.246 . S
C659 O643 1.245 . S
C659 O644 1.259 . S
Tb660 O663 2.453 . S
Tb660 O664 2.596 . S
Tb660 O665 2.374 . S
Tb660 O673 2.343 . S
Tb660 O675 2.353 . S
Tb660 O677 2.427 . S
Tb660 O678 2.513 . S
C661 O665 1.251 . S
C661 O667 1.263 . S
Tb662 O664 2.343 . S
Tb662 O667 2.353 . S
Tb662 O670 2.427 . S
Tb662 O671 2.513 . S
Tb662 O672 2.453 . S
Tb662 O673 2.596 . S
Tb662 O674 2.374 . S
O663 Tb660 2.453 . S
O663 C679 1.245 . S
O664 Tb660 2.596 . S
O664 Tb662 2.343 . S
O664 C679 1.259 . S
O665 Tb660 2.374 . S
O665 C661 1.251 . S
C666 O670 1.275 . S
C666 O671 1.246 . S
O667 C661 1.263 . S
O667 Tb662 2.353 . S
C668 O672 1.245 . S
C668 O673 1.259 . S
C669 O674 1.250 . S
C669 O675 1.263 . S
O670 Tb662 2.427 . S
O670 C666 1.275 . S
O671 Tb662 2.513 . S
O671 C666 1.246 . S
O672 Tb662 2.453 . S
O672 C668 1.245 . S
O673 Tb660 2.343 . S
O673 Tb662 2.596 . S
O673 C668 1.259 . S
O674 Tb662 2.374 . S
O674 C669 1.250 . S
O675 Tb660 2.353 . S
O675 C669 1.263 . S
C676 O677 1.275 . S
C676 O678 1.246 . S
O677 Tb660 2.427 . S
O677 C676 1.275 . S
O678 Tb660 2.513 . S
O678 C676 1.246 . S
C679 O663 1.245 . S
C679 O664 1.259 . S
Tb680 O683 2.453 . S
Tb680 O684 2.596 . S
Tb680 O685 2.374 . S
Tb680 O693 2.343 . S
Tb680 O695 2.353 . S
Tb680 O697 2.427 . S
Tb680 O698 2.513 . S
C681 O685 1.251 . S
C681 O687 1.263 . S
Tb682 O684 2.343 . S
Tb682 O687 2.353 . S
Tb682 O690 2.427 . S
Tb682 O691 2.513 . S
Tb682 O692 2.453 . S
Tb682 O693 2.596 . S
Tb682 O694 2.374 . S
O683 Tb680 2.453 . S
O683 C699 1.245 . S
O684 Tb680 2.596 . S
O684 Tb682 2.343 . S
O684 C699 1.259 . S
O685 Tb680 2.374 . S
O685 C681 1.251 . S
C686 O690 1.275 . S
C686 O691 1.246 . S
O687 C681 1.263 . S
O687 Tb682 2.353 . S
C688 O692 1.245 . S
C688 O693 1.259 . S
C689 O694 1.250 . S
C689 O695 1.263 . S
O690 Tb682 2.427 . S
O690 C686 1.275 . S
O691 Tb682 2.513 . S
O691 C686 1.246 . S
O692 Tb682 2.453 . S
O692 C688 1.245 . S
O693 Tb680 2.343 . S
O693 Tb682 2.596 . S
O693 C688 1.259 . S
O694 Tb682 2.374 . S
O694 C689 1.250 . S
O695 Tb680 2.353 . S
O695 C689 1.263 . S
C696 O697 1.275 . S
C696 O698 1.246 . S
O697 Tb680 2.427 . S
O697 C696 1.275 . S
O698 Tb680 2.513 . S
O698 C696 1.246 . S
C699 O683 1.245 . S
C699 O684 1.259 . S
Tb700 O703 2.453 . S
Tb700 O704 2.596 . S
Tb700 O705 2.374 . S
Tb700 O713 2.343 . S
Tb700 O715 2.353 . S
Tb700 O717 2.427 . S
Tb700 O718 2.513 . S
C701 O705 1.251 . S
C701 O707 1.263 . S
Tb702 O704 2.343 . S
Tb702 O707 2.353 . S
Tb702 O710 2.427 . S
Tb702 O711 2.513 . S
Tb702 O712 2.453 . S
Tb702 O713 2.596 . S
Tb702 O714 2.374 . S
O703 Tb700 2.453 . S
O703 C719 1.245 . S
O704 Tb700 2.596 . S
O704 Tb702 2.343 . S
O704 C719 1.259 . S
O705 Tb700 2.374 . S
O705 C701 1.251 . S
C706 O710 1.275 . S
C706 O711 1.246 . S
O707 C701 1.263 . S
O707 Tb702 2.353 . S
C708 O712 1.245 . S
C708 O713 1.259 . S
C709 O714 1.250 . S
C709 O715 1.263 . S
O710 Tb702 2.427 . S
O710 C706 1.275 . S
O711 Tb702 2.513 . S
O711 C706 1.246 . S
O712 Tb702 2.453 . S
O712 C708 1.245 . S
O713 Tb700 2.343 . S
O713 Tb702 2.596 . S
O713 C708 1.259 . S
O714 Tb702 2.374 . S
O714 C709 1.250 . S
O715 Tb700 2.353 . S
O715 C709 1.263 . S
C716 O717 1.275 . S
C716 O718 1.246 . S
O717 Tb700 2.427 . S
O717 C716 1.275 . S
O718 Tb700 2.513 . S
O718 C716 1.246 . S
C719 O703 1.245 . S
C719 O704 1.259 . S
H720 C726 0.930 1_556 S
H721 C730 0.930 . S
H722 C735 0.929 . S
H723 C733 0.929 . S
H724 C728 0.929 . S
H725 C734 0.929 . S
C726 H720 0.930 1_554 S
C726 C727 1.367 . S
C726 C734 1.378 1_554 S
C727 C726 1.367 . S
C727 C735 1.433 . S
C728 H724 0.929 . S
C728 C730 1.378 . S
C728 C732 1.350 . S
C729 C732 1.463 . S
C729 C734 1.350 1_554 S
C729 N737 1.427 . S
C730 H721 0.930 . S
C730 C728 1.378 . S
C730 C731 1.367 1_554 S
C731 C730 1.367 1_556 S
C731 C733 1.433 . S
C732 C728 1.350 . S
C732 C729 1.463 . S
C732 N736 1.427 1_554 S
C733 H723 0.929 . S
C733 C731 1.433 . S
C733 N736 1.384 . S
C734 H725 0.929 . S
C734 C726 1.378 1_556 S
C734 C729 1.350 1_556 S
C735 H722 0.929 . S
C735 C727 1.433 . S
C735 N737 1.384 . S
N736 C732 1.427 1_556 S
N736 C733 1.384 . S
N737 C729 1.427 . S
N737 C735 1.384 . S
H738 C744 0.930 . S
H739 C748 0.930 . S
H740 C753 0.929 . S
H741 C751 0.929 . S
H742 C746 0.929 1_556 S
H743 C752 0.929 . S
C744 H738 0.930 . S
C744 C745 1.367 1_554 S
C744 C752 1.378 . S
C745 C744 1.367 1_556 S
C745 C753 1.433 . S
C746 H742 0.929 1_554 S
C746 C748 1.378 . S
C746 C750 1.350 . S
C747 C750 1.463 . S
C747 C752 1.350 . S
C747 N755 1.427 1_554 S
C748 H739 0.930 . S
C748 C746 1.378 . S
C748 C749 1.367 . S
C749 C748 1.367 . S
C749 C751 1.433 . S
C750 C746 1.350 . S
C750 C747 1.463 . S
C750 N754 1.427 . S
C751 H741 0.929 . S
C751 C749 1.433 . S
C751 N754 1.384 . S
C752 H743 0.929 . S
C752 C744 1.378 . S
C752 C747 1.350 . S
C753 H740 0.929 . S
C753 C745 1.433 . S
C753 N755 1.384 . S
N754 C750 1.427 . S
N754 C751 1.384 . S
N755 C747 1.427 1_556 S
N755 C753 1.384 . S
H756 C762 0.930 . S
H757 C766 0.930 . S
H758 C771 0.929 . S
H759 C769 0.929 . S
H760 C764 0.929 . S
H761 C770 0.929 . S
C762 H756 0.930 . S
C762 C763 1.367 . S
C762 C770 1.378 . S
C763 C762 1.367 . S
C763 C771 1.433 1_556 S
C764 H760 0.929 . S
C764 C766 1.378 . S
C764 C768 1.350 . S
C765 C768 1.463 . S
C765 C770 1.350 1_554 S
C765 N773 1.427 . S
C766 H757 0.930 . S
C766 C764 1.378 . S
C766 C767 1.367 . S
C767 C766 1.367 . S
C767 C769 1.433 . S
C768 C764 1.350 . S
C768 C765 1.463 . S
C768 N772 1.427 . S
C769 H759 0.929 . S
C769 C767 1.433 . S
C769 N772 1.384 . S
C770 H761 0.929 . S
C770 C762 1.378 . S
C770 C765 1.350 1_556 S
C771 H758 0.929 . S
C771 C763 1.433 1_554 S
C771 N773 1.384 . S
N772 C768 1.427 . S
N772 C769 1.384 . S
N773 C765 1.427 . S
N773 C771 1.384 . S
H774 C780 0.930 . S
H775 C784 0.930 . S
H776 C789 0.929 . S
H777 C787 0.929 . S
H778 C782 0.929 . S
H779 C788 0.929 . S
C780 H774 0.930 . S
C780 C781 1.367 . S
C780 C788 1.378 . S
C781 C780 1.367 . S
C781 C789 1.433 . S
C782 H778 0.929 . S
C782 C784 1.378 . S
C782 C786 1.350 . S
C783 C786 1.463 . S
C783 C788 1.350 . S
C783 N791 1.427 . S
C784 H775 0.930 . S
C784 C782 1.378 . S
C784 C785 1.367 . S
C785 C784 1.367 . S
C785 C787 1.433 . S
C786 C782 1.350 . S
C786 C783 1.463 . S
C786 N790 1.427 . S
C787 H777 0.929 . S
C787 C785 1.433 . S
C787 N790 1.384 . S
C788 H779 0.929 . S
C788 C780 1.378 . S
C788 C783 1.350 . S
C789 H776 0.929 . S
C789 C781 1.433 . S
C789 N791 1.384 . S
N790 C786 1.427 . S
N790 C787 1.384 . S
N791 C783 1.427 . S
N791 C789 1.384 . S
H792 C798 0.930 . S
H793 C802 0.930 . S
H794 C807 0.929 . S
H795 C805 0.929 . S
H796 C800 0.929 . S
H797 C806 0.929 . S
C798 H792 0.930 . S
C798 C799 1.367 . S
C798 C806 1.378 . S
C799 C798 1.367 . S
C799 C807 1.433 . S
C800 H796 0.929 . S
C800 C802 1.378 . S
C800 C804 1.350 . S
C801 C804 1.463 . S
C801 C806 1.350 . S
C801 N809 1.427 . S
C802 H793 0.930 . S
C802 C800 1.378 . S
C802 C803 1.367 . S
C803 C802 1.367 . S
C803 C805 1.433 . S
C804 C800 1.350 . S
C804 C801 1.463 . S
C804 N808 1.427 . S
C805 H795 0.929 . S
C805 C803 1.433 . S
C805 N808 1.384 . S
C806 H797 0.929 . S
C806 C798 1.378 . S
C806 C801 1.350 . S
C807 H794 0.929 . S
C807 C799 1.433 . S
C807 N809 1.384 . S
N808 C804 1.427 . S
N808 C805 1.384 . S
N809 C801 1.427 . S
N809 C807 1.384 . S
H810 C816 0.930 . S
H811 C820 0.930 . S
H812 C825 0.929 . S
H813 C823 0.929 . S
H814 C818 0.929 . S
H815 C824 0.929 . S
C816 H810 0.930 . S
C816 C817 1.367 . S
C816 C824 1.378 . S
C817 C816 1.367 . S
C817 C825 1.433 . S
C818 H814 0.929 . S
C818 C820 1.378 . S
C818 C822 1.350 . S
C819 C822 1.463 . S
C819 C824 1.350 . S
C819 N827 1.427 . S
C820 H811 0.930 . S
C820 C818 1.378 . S
C820 C821 1.367 . S
C821 C820 1.367 . S
C821 C823 1.433 . S
C822 C818 1.350 . S
C822 C819 1.463 . S
C822 N826 1.427 . S
C823 H813 0.929 . S
C823 C821 1.433 . S
C823 N826 1.384 . S
C824 H815 0.929 . S
C824 C816 1.378 . S
C824 C819 1.350 . S
C825 H812 0.929 . S
C825 C817 1.433 . S
C825 N827 1.384 . S
N826 C822 1.427 . S
N826 C823 1.384 . S
N827 C819 1.427 . S
N827 C825 1.384 . S
H828 C834 0.930 . S
H829 C838 0.930 . S
H830 C843 0.929 . S
H831 C841 0.929 . S
H832 C836 0.929 . S
H833 C842 0.929 . S
C834 H828 0.930 . S
C834 C835 1.367 . S
C834 C842 1.378 . S
C835 C834 1.367 . S
C835 C843 1.433 1_554 S
C836 H832 0.929 . S
C836 C838 1.378 . S
C836 C840 1.350 . S
C837 C840 1.463 . S
C837 C842 1.350 1_556 S
C837 N845 1.427 . S
C838 H829 0.930 . S
C838 C836 1.378 . S
C838 C839 1.367 . S
C839 C838 1.367 . S
C839 C841 1.433 . S
C840 C836 1.350 . S
C840 C837 1.463 . S
C840 N844 1.427 . S
C841 H831 0.929 . S
C841 C839 1.433 . S
C841 N844 1.384 . S
C842 H833 0.929 . S
C842 C834 1.378 . S
C842 C837 1.350 1_554 S
C843 H830 0.929 . S
C843 C835 1.433 1_556 S
C843 N845 1.384 . S
N844 C840 1.427 . S
N844 C841 1.384 . S
N845 C837 1.427 . S
N845 C843 1.384 . S
H846 C852 0.930 . S
H847 C856 0.930 . S
H848 C861 0.929 . S
H849 C859 0.929 . S
H850 C854 0.929 . S
H851 C860 0.929 . S
C852 H846 0.930 . S
C852 C853 1.367 . S
C852 C860 1.378 . S
C853 C852 1.367 . S
C853 C861 1.433 . S
C854 H850 0.929 . S
C854 C856 1.378 1_556 S
C854 C858 1.350 . S
C855 C858 1.463 . S
C855 C860 1.350 . S
C855 N863 1.427 . S
C856 H847 0.930 . S
C856 C854 1.378 1_554 S
C856 C857 1.367 . S
C857 C856 1.367 . S
C857 C859 1.433 . S
C858 C854 1.350 . S
C858 C855 1.463 . S
C858 N862 1.422 1_556 S
C859 H849 0.929 . S
C859 C857 1.433 . S
C859 N862 1.392 . S
C860 H851 0.929 . S
C860 C852 1.378 . S
C860 C855 1.350 . S
C861 H848 0.929 . S
C861 C853 1.433 . S
C861 N863 1.384 . S
N862 C858 1.422 1_554 S
N862 C859 1.392 . S
N863 C855 1.427 . S
N863 C861 1.384 . S
H864 C870 0.932 . S
H865 C874 0.930 . S
H866 C879 0.929 . S
H867 C877 0.929 . S
H868 C872 0.929 . S
H869 C878 0.929 . S
C870 H864 0.932 . S
C870 C871 1.367 . S
C870 C878 1.378 1_554 S
C871 C870 1.367 . S
C871 C879 1.433 . S
C872 H868 0.929 . S
C872 C874 1.378 . S
C872 C876 1.350 . S
C873 C876 1.463 . S
C873 C878 1.350 . S
C873 N881 1.427 1_556 S
C874 H865 0.930 . S
C874 C872 1.378 . S
C874 C875 1.367 . S
C875 C874 1.367 . S
C875 C877 1.433 . S
C876 C872 1.350 . S
C876 C873 1.463 . S
C876 N880 1.427 . S
C877 H867 0.929 . S
C877 C875 1.433 . S
C877 N880 1.384 . S
C878 H869 0.929 . S
C878 C870 1.378 1_556 S
C878 C873 1.350 . S
C879 H866 0.929 . S
C879 C871 1.433 . S
C879 N881 1.384 . S
N880 C876 1.427 . S
N880 C877 1.384 . S
N881 C873 1.427 1_554 S
N881 C879 1.384 . S
H882 C888 0.930 . S
H883 C892 0.930 . S
H884 C897 0.929 . S
H885 C895 0.929 . S
H886 C890 0.929 . S
H887 C896 0.929 . S
C888 H882 0.930 . S
C888 C889 1.367 . S
C888 C896 1.378 . S
C889 C888 1.367 . S
C889 C897 1.433 . S
C890 H886 0.929 . S
C890 C892 1.378 . S
C890 C894 1.350 . S
C891 C894 1.463 . S
C891 C896 1.350 . S
C891 N899 1.427 . S
C892 H883 0.930 . S
C892 C890 1.378 . S
C892 C893 1.367 . S
C893 C892 1.367 . S
C893 C895 1.433 . S
C894 C890 1.350 . S
C894 C891 1.463 . S
C894 N898 1.427 . S
C895 H885 0.929 . S
C895 C893 1.433 . S
C895 N898 1.384 . S
C896 H887 0.929 . S
C896 C888 1.378 . S
C896 C891 1.350 . S
C897 H884 0.929 . S
C897 C889 1.433 . S
C897 N899 1.384 . S
N898 C894 1.427 . S
N898 C895 1.384 . S
N899 C891 1.427 . S
N899 C897 1.384 . S
H900 C906 0.930 . S
H901 C910 0.930 . S
H902 C915 0.929 . S
H903 C913 0.929 . S
H904 C908 0.929 . S
H905 C914 0.929 . S
C906 H900 0.930 . S
C906 C907 1.367 . S
C906 C914 1.378 . S
C907 C906 1.367 . S
C907 C915 1.433 . S
C908 H904 0.929 . S
C908 C910 1.378 . S
C908 C912 1.350 . S
C909 C912 1.463 . S
C909 C914 1.350 . S
C909 N917 1.427 . S
C910 H901 0.930 . S
C910 C908 1.378 . S
C910 C911 1.367 . S
C911 C910 1.367 . S
C911 C913 1.433 . S
C912 C908 1.350 . S
C912 C909 1.463 . S
C912 N916 1.427 . S
C913 H903 0.929 . S
C913 C911 1.433 . S
C913 N916 1.384 . S
C914 H905 0.929 . S
C914 C906 1.378 . S
C914 C909 1.350 . S
C915 H902 0.929 . S
C915 C907 1.433 . S
C915 N917 1.384 . S
N916 C912 1.427 . S
N916 C913 1.384 . S
N917 C909 1.427 . S
N917 C915 1.384 . S
H918 C924 0.930 . S
H919 C928 0.930 . S
H920 C933 0.929 . S
H921 C931 0.929 . S
H922 C926 0.929 . S
H923 C932 0.929 . S
C924 H918 0.930 . S
C924 C925 1.367 . S
C924 C932 1.378 . S
C925 C924 1.367 . S
C925 C933 1.433 . S
C926 H922 0.929 . S
C926 C928 1.378 . S
C926 C930 1.350 . S
C927 C930 1.463 . S
C927 C932 1.350 . S
C927 N935 1.427 . S
C928 H919 0.930 . S
C928 C926 1.378 . S
C928 C929 1.367 . S
C929 C928 1.367 . S
C929 C931 1.433 . S
C930 C926 1.350 . S
C930 C927 1.463 . S
C930 N934 1.427 . S
C931 H921 0.929 . S
C931 C929 1.433 . S
C931 N934 1.384 . S
C932 H923 0.929 . S
C932 C924 1.378 . S
C932 C927 1.350 . S
C933 H920 0.929 . S
C933 C925 1.433 . S
C933 N935 1.384 . S
N934 C930 1.427 . S
N934 C931 1.384 . S
N935 C927 1.427 . S
N935 C933 1.384 . S
H936 C942 0.930 . S
H937 C946 0.930 . S
H938 C951 0.929 . S
H939 C949 0.929 . S
H940 C944 0.929 . S
H941 C950 0.929 . S
C942 H936 0.930 . S
C942 C943 1.367 . S
C942 C950 1.378 . S
C943 C942 1.367 . S
C943 C951 1.433 . S
C944 H940 0.929 . S
C944 C946 1.378 . S
C944 C948 1.350 . S
C945 C948 1.463 . S
C945 C950 1.350 . S
C945 N953 1.427 . S
C946 H937 0.930 . S
C946 C944 1.378 . S
C946 C947 1.367 . S
C947 C946 1.367 . S
C947 C949 1.433 . S
C948 C944 1.350 . S
C948 C945 1.463 . S
C948 N952 1.427 . S
C949 H939 0.929 . S
C949 C947 1.433 . S
C949 N952 1.384 . S
C950 H941 0.929 . S
C950 C942 1.378 . S
C950 C945 1.350 . S
C951 H938 0.929 . S
C951 C943 1.433 . S
C951 N953 1.384 . S
N952 C948 1.427 . S
N952 C949 1.384 . S
N953 C945 1.427 . S
N953 C951 1.384 . S
H954 C960 0.930 . S
H955 C964 0.930 . S
H956 C969 0.929 . S
H957 C967 0.929 . S
H958 C962 0.929 . S
H959 C968 0.929 . S
C960 H954 0.930 . S
C960 C961 1.367 . S
C960 C968 1.378 . S
C961 C960 1.367 . S
C961 C969 1.433 . S
C962 H958 0.929 . S
C962 C964 1.378 . S
C962 C966 1.350 . S
C963 C966 1.463 . S
C963 C968 1.350 . S
C963 N971 1.427 . S
C964 H955 0.930 . S
C964 C962 1.378 . S
C964 C965 1.367 . S
C965 C964 1.367 . S
C965 C967 1.433 . S
C966 C962 1.350 . S
C966 C963 1.463 . S
C966 N970 1.427 . S
C967 H957 0.929 . S
C967 C965 1.433 . S
C967 N970 1.384 . S
C968 H959 0.929 . S
C968 C960 1.378 . S
C968 C963 1.350 . S
C969 H956 0.929 . S
C969 C961 1.433 . S
C969 N971 1.384 . S
N970 C966 1.427 . S
N970 C967 1.384 . S
N971 C963 1.427 . S
N971 C969 1.384 . S
H972 C978 0.930 . S
H973 C982 0.930 . S
H974 C987 0.929 . S
H975 C985 0.929 . S
H976 C980 0.929 . S
H977 C986 0.929 . S
C978 H972 0.930 . S
C978 C979 1.367 . S
C978 C986 1.378 . S
C979 C978 1.367 . S
C979 C987 1.433 . S
C980 H976 0.929 . S
C980 C982 1.378 . S
C980 C984 1.350 . S
C981 C984 1.463 . S
C981 C986 1.350 . S
C981 N989 1.427 . S
C982 H973 0.930 . S
C982 C980 1.378 . S
C982 C983 1.367 . S
C983 C982 1.367 . S
C983 C985 1.433 . S
C984 C980 1.350 . S
C984 C981 1.463 . S
C984 N988 1.427 . S
C985 H975 0.929 . S
C985 C983 1.433 . S
C985 N988 1.384 . S
C986 H977 0.929 . S
C986 C978 1.378 . S
C986 C981 1.350 . S
C987 H974 0.929 . S
C987 C979 1.433 . S
C987 N989 1.384 . S
N988 C984 1.427 . S
N988 C985 1.384 . S
N989 C981 1.427 . S
N989 C987 1.384 . S
H990 C996 0.930 . S
H991 C1000 0.930 . S
H992 C1005 0.929 . S
H993 C1003 0.929 . S
H994 C998 0.929 . S
H995 C1004 0.929 . S
C996 H990 0.930 . S
C996 C997 1.367 . S
C996 C1004 1.378 . S
C997 C996 1.367 . S
C997 C1005 1.433 . S
C998 H994 0.929 . S
C998 C1000 1.378 . S
C998 C1002 1.350 . S
C999 C1002 1.463 . S
C999 C1004 1.350 . S
C999 N1007 1.427 . S
C1000 H991 0.930 . S
C1000 C998 1.378 . S
C1000 C1001 1.367 . S
C1001 C1000 1.367 . S
C1001 C1003 1.433 . S
C1002 C998 1.350 . S
C1002 C999 1.463 . S
C1002 N1006 1.427 . S
C1003 H993 0.929 . S
C1003 C1001 1.433 . S
C1003 N1006 1.384 . S
C1004 H995 0.929 . S
C1004 C996 1.378 . S
C1004 C999 1.350 . S
C1005 H992 0.929 . S
C1005 C997 1.433 . S
C1005 N1007 1.384 . S
N1006 C1002 1.427 . S
N1006 C1003 1.384 . S
N1007 C999 1.427 . S
N1007 C1005 1.384 . S
H1008 C1014 0.930 . S
H1009 C1018 0.930 . S
H1010 C1023 0.929 . S
H1011 C1021 0.929 . S
H1012 C1016 0.929 . S
H1013 C1022 0.929 . S
C1014 H1008 0.930 . S
C1014 C1015 1.367 . S
C1014 C1022 1.378 . S
C1015 C1014 1.367 . S
C1015 C1023 1.433 . S
C1016 H1012 0.929 . S
C1016 C1018 1.378 . S
C1016 C1020 1.350 . S
C1017 C1020 1.463 . S
C1017 C1022 1.350 . S
C1017 N1025 1.427 . S
C1018 H1009 0.930 . S
C1018 C1016 1.378 . S
C1018 C1019 1.367 . S
C1019 C1018 1.367 . S
C1019 C1021 1.433 . S
C1020 C1016 1.350 . S
C1020 C1017 1.463 . S
C1020 N1024 1.427 . S
C1021 H1011 0.929 . S
C1021 C1019 1.433 . S
C1021 N1024 1.384 . S
C1022 H1013 0.929 . S
C1022 C1014 1.378 . S
C1022 C1017 1.350 . S
C1023 H1010 0.929 . S
C1023 C1015 1.433 . S
C1023 N1025 1.384 . S
N1024 C1020 1.427 . S
N1024 C1021 1.384 . S
N1025 C1017 1.427 . S
N1025 C1023 1.384 . S
H1026 C1032 0.930 . S
H1027 C1036 0.930 . S
H1028 C1041 0.929 . S
H1029 C1039 0.929 . S
H1030 C1034 0.929 . S
H1031 C1040 0.929 . S
C1032 H1026 0.930 . S
C1032 C1033 1.367 . S
C1032 C1040 1.378 . S
C1033 C1032 1.367 . S
C1033 C1041 1.433 . S
C1034 H1030 0.929 . S
C1034 C1036 1.378 . S
C1034 C1038 1.350 . S
C1035 C1038 1.463 . S
C1035 C1040 1.350 . S
C1035 N1043 1.427 . S
C1036 H1027 0.930 . S
C1036 C1034 1.378 . S
C1036 C1037 1.367 . S
C1037 C1036 1.367 . S
C1037 C1039 1.433 . S
C1038 C1034 1.350 . S
C1038 C1035 1.463 . S
C1038 N1042 1.427 . S
C1039 H1029 0.929 . S
C1039 C1037 1.433 . S
C1039 N1042 1.384 . S
C1040 H1031 0.929 . S
C1040 C1032 1.378 . S
C1040 C1035 1.350 . S
C1041 H1028 0.929 . S
C1041 C1033 1.433 . S
C1041 N1043 1.384 . S
N1042 C1038 1.427 . S
N1042 C1039 1.384 . S
N1043 C1035 1.427 . S
N1043 C1041 1.384 . S
H1044 C1050 0.930 . S
H1045 C1054 0.930 . S
H1046 C1059 0.929 . S
H1047 C1057 0.929 . S
H1048 C1052 0.929 . S
H1049 C1058 0.929 . S
C1050 H1044 0.930 . S
C1050 C1051 1.367 . S
C1050 C1058 1.378 . S
C1051 C1050 1.367 . S
C1051 C1059 1.433 . S
C1052 H1048 0.929 . S
C1052 C1054 1.378 . S
C1052 C1056 1.350 . S
C1053 C1056 1.463 . S
C1053 C1058 1.350 . S
C1053 N1061 1.427 . S
C1054 H1045 0.930 . S
C1054 C1052 1.378 . S
C1054 C1055 1.367 . S
C1055 C1054 1.367 . S
C1055 C1057 1.433 . S
C1056 C1052 1.350 . S
C1056 C1053 1.463 . S
C1056 N1060 1.427 . S
C1057 H1047 0.929 . S
C1057 C1055 1.433 . S
C1057 N1060 1.384 . S
C1058 H1049 0.929 . S
C1058 C1050 1.378 . S
C1058 C1053 1.350 . S
C1059 H1046 0.929 . S
C1059 C1051 1.433 . S
C1059 N1061 1.384 . S
N1060 C1056 1.427 . S
N1060 C1057 1.384 . S
N1061 C1053 1.427 . S
N1061 C1059 1.384 . S
H1062 C1068 0.930 . S
H1063 C1072 0.930 . S
H1064 C1077 0.929 . S
H1065 C1075 0.929 . S
H1066 C1070 0.929 . S
H1067 C1076 0.929 . S
C1068 H1062 0.930 . S
C1068 C1069 1.367 . S
C1068 C1076 1.378 . S
C1069 C1068 1.367 . S
C1069 C1077 1.433 . S
C1070 H1066 0.929 . S
C1070 C1072 1.378 . S
C1070 C1074 1.350 . S
C1071 C1074 1.463 . S
C1071 C1076 1.350 . S
C1071 N1079 1.427 . S
C1072 H1063 0.930 . S
C1072 C1070 1.378 . S
C1072 C1073 1.367 . S
C1073 C1072 1.367 . S
C1073 C1075 1.433 . S
C1074 C1070 1.350 . S
C1074 C1071 1.463 . S
C1074 N1078 1.427 . S
C1075 H1065 0.929 . S
C1075 C1073 1.433 . S
C1075 N1078 1.384 . S
C1076 H1067 0.929 . S
C1076 C1068 1.378 . S
C1076 C1071 1.350 . S
C1077 H1064 0.929 . S
C1077 C1069 1.433 . S
C1077 N1079 1.384 . S
N1078 C1074 1.427 . S
N1078 C1075 1.384 . S
N1079 C1071 1.427 . S
N1079 C1077 1.384 . S
H1080 C1086 0.930 . S
H1081 C1090 0.930 . S
H1082 C1095 0.929 . S
H1083 C1093 0.929 . S
H1084 C1088 0.929 . S
H1085 C1094 0.929 . S
C1086 H1080 0.930 . S
C1086 C1087 1.367 . S
C1086 C1094 1.378 . S
C1087 C1086 1.367 . S
C1087 C1095 1.433 . S
C1088 H1084 0.929 . S
C1088 C1090 1.378 . S
C1088 C1092 1.350 . S
C1089 C1092 1.463 . S
C1089 C1094 1.350 . S
C1089 N1097 1.427 . S
C1090 H1081 0.930 . S
C1090 C1088 1.378 . S
C1090 C1091 1.367 . S
C1091 C1090 1.367 . S
C1091 C1093 1.433 . S
C1092 C1088 1.350 . S
C1092 C1089 1.463 . S
C1092 N1096 1.427 . S
C1093 H1083 0.929 . S
C1093 C1091 1.433 . S
C1093 N1096 1.384 . S
C1094 H1085 0.929 . S
C1094 C1086 1.378 . S
C1094 C1089 1.350 . S
C1095 H1082 0.929 . S
C1095 C1087 1.433 . S
C1095 N1097 1.384 . S
N1096 C1092 1.427 . S
N1096 C1093 1.384 . S
N1097 C1089 1.427 . S
N1097 C1095 1.384 . S
H1098 C1104 0.930 . S
H1099 C1108 0.930 . S
H1100 C1113 0.929 . S
H1101 C1111 0.929 . S
H1102 C1106 0.929 . S
H1103 C1112 0.929 . S
C1104 H1098 0.930 . S
C1104 C1105 1.367 . S
C1104 C1112 1.378 . S
C1105 C1104 1.367 . S
C1105 C1113 1.433 . S
C1106 H1102 0.929 . S
C1106 C1108 1.378 . S
C1106 C1110 1.350 . S
C1107 C1110 1.463 . S
C1107 C1112 1.350 . S
C1107 N1115 1.427 . S
C1108 H1099 0.930 . S
C1108 C1106 1.378 . S
C1108 C1109 1.367 . S
C1109 C1108 1.367 . S
C1109 C1111 1.433 . S
C1110 C1106 1.350 . S
C1110 C1107 1.463 . S
C1110 N1114 1.427 . S
C1111 H1101 0.929 . S
C1111 C1109 1.433 . S
C1111 N1114 1.384 . S
C1112 H1103 0.929 . S
C1112 C1104 1.378 . S
C1112 C1107 1.350 . S
C1113 H1100 0.929 . S
C1113 C1105 1.433 . S
C1113 N1115 1.384 . S
N1114 C1110 1.427 . S
N1114 C1111 1.384 . S
N1115 C1107 1.427 . S
N1115 C1113 1.384 . S
H1116 C1122 0.930 . S
H1117 C1126 0.930 . S
H1118 C1131 0.929 . S
H1119 C1129 0.929 . S
H1120 C1124 0.929 . S
H1121 C1130 0.929 . S
C1122 H1116 0.930 . S
C1122 C1123 1.367 . S
C1122 C1130 1.378 . S
C1123 C1122 1.367 . S
C1123 C1131 1.433 . S
C1124 H1120 0.929 . S
C1124 C1126 1.378 . S
C1124 C1128 1.350 . S
C1125 C1128 1.463 . S
C1125 C1130 1.350 . S
C1125 N1133 1.427 . S
C1126 H1117 0.930 . S
C1126 C1124 1.378 . S
C1126 C1127 1.367 . S
C1127 C1126 1.367 . S
C1127 C1129 1.433 . S
C1128 C1124 1.350 . S
C1128 C1125 1.463 . S
C1128 N1132 1.427 . S
C1129 H1119 0.929 . S
C1129 C1127 1.433 . S
C1129 N1132 1.384 . S
C1130 H1121 0.929 . S
C1130 C1122 1.378 . S
C1130 C1125 1.350 . S
C1131 H1118 0.929 . S
C1131 C1123 1.433 . S
C1131 N1133 1.384 . S
N1132 C1128 1.427 . S
N1132 C1129 1.384 . S
N1133 C1125 1.427 . S
N1133 C1131 1.384 . S
H1134 C1140 0.930 . S
H1135 C1144 0.930 . S
H1136 C1149 0.929 . S
H1137 C1147 0.929 . S
H1138 C1142 0.929 . S
H1139 C1148 0.929 . S
C1140 H1134 0.930 . S
C1140 C1141 1.367 . S
C1140 C1148 1.378 . S
C1141 C1140 1.367 . S
C1141 C1149 1.433 . S
C1142 H1138 0.929 . S
C1142 C1144 1.378 . S
C1142 C1146 1.350 . S
C1143 C1146 1.463 . S
C1143 C1148 1.350 . S
C1143 N1151 1.427 . S
C1144 H1135 0.930 . S
C1144 C1142 1.378 . S
C1144 C1145 1.367 . S
C1145 C1144 1.367 . S
C1145 C1147 1.433 . S
C1146 C1142 1.350 . S
C1146 C1143 1.463 . S
C1146 N1150 1.427 . S
C1147 H1137 0.929 . S
C1147 C1145 1.433 . S
C1147 N1150 1.384 . S
C1148 H1139 0.929 . S
C1148 C1140 1.378 . S
C1148 C1143 1.350 . S
C1149 H1136 0.929 . S
C1149 C1141 1.433 . S
C1149 N1151 1.384 . S
N1150 C1146 1.427 . S
N1150 C1147 1.384 . S
N1151 C1143 1.427 . S
N1151 C1149 1.384 . S
H1152 C1158 0.930 . S
H1153 C1162 0.930 . S
H1154 C1167 0.929 . S
H1155 C1165 0.929 . S
H1156 C1160 0.929 . S
H1157 C1166 0.929 . S
C1158 H1152 0.930 . S
C1158 C1159 1.367 . S
C1158 C1166 1.378 . S
C1159 C1158 1.367 . S
C1159 C1167 1.433 . S
C1160 H1156 0.929 . S
C1160 C1162 1.378 . S
C1160 C1164 1.350 . S
C1161 C1164 1.463 . S
C1161 C1166 1.350 . S
C1161 N1169 1.427 . S
C1162 H1153 0.930 . S
C1162 C1160 1.378 . S
C1162 C1163 1.367 . S
C1163 C1162 1.367 . S
C1163 C1165 1.433 . S
C1164 C1160 1.350 . S
C1164 C1161 1.463 . S
C1164 N1168 1.427 . S
C1165 H1155 0.929 . S
C1165 C1163 1.433 . S
C1165 N1168 1.384 . S
C1166 H1157 0.929 . S
C1166 C1158 1.378 . S
C1166 C1161 1.350 . S
C1167 H1154 0.929 . S
C1167 C1159 1.433 . S
C1167 N1169 1.384 . S
N1168 C1164 1.427 . S
N1168 C1165 1.384 . S
N1169 C1161 1.427 . S
N1169 C1167 1.384 . S
H1170 C1176 0.930 . S
H1171 C1180 0.930 . S
H1172 C1185 0.929 . S
H1173 C1183 0.929 . S
H1174 C1178 0.929 . S
H1175 C1184 0.929 . S
C1176 H1170 0.930 . S
C1176 C1177 1.367 . S
C1176 C1184 1.378 . S
C1177 C1176 1.367 . S
C1177 C1185 1.433 . S
C1178 H1174 0.929 . S
C1178 C1180 1.378 . S
C1178 C1182 1.350 . S
C1179 C1182 1.463 . S
C1179 C1184 1.350 . S
C1179 N1187 1.427 . S
C1180 H1171 0.930 . S
C1180 C1178 1.378 . S
C1180 C1181 1.367 . S
C1181 C1180 1.367 . S
C1181 C1183 1.433 . S
C1182 C1178 1.350 . S
C1182 C1179 1.463 . S
C1182 N1186 1.427 . S
C1183 H1173 0.929 . S
C1183 C1181 1.433 . S
C1183 N1186 1.384 . S
C1184 H1175 0.929 . S
C1184 C1176 1.378 . S
C1184 C1179 1.350 . S
C1185 H1172 0.929 . S
C1185 C1177 1.433 . S
C1185 N1187 1.384 . S
N1186 C1182 1.427 . S
N1186 C1183 1.384 . S
N1187 C1179 1.427 . S
N1187 C1185 1.384 . S
H1188 C1194 0.930 . S
H1189 C1198 0.930 . S
H1190 C1203 0.929 . S
H1191 C1201 0.929 . S
H1192 C1196 0.929 . S
H1193 C1202 0.929 . S
C1194 H1188 0.930 . S
C1194 C1195 1.367 . S
C1194 C1202 1.378 . S
C1195 C1194 1.367 . S
C1195 C1203 1.433 . S
C1196 H1192 0.929 . S
C1196 C1198 1.378 . S
C1196 C1200 1.350 . S
C1197 C1200 1.463 . S
C1197 C1202 1.350 . S
C1197 N1205 1.427 . S
C1198 H1189 0.930 . S
C1198 C1196 1.378 . S
C1198 C1199 1.367 . S
C1199 C1198 1.367 . S
C1199 C1201 1.433 . S
C1200 C1196 1.350 . S
C1200 C1197 1.463 . S
C1200 N1204 1.427 . S
C1201 H1191 0.929 . S
C1201 C1199 1.433 . S
C1201 N1204 1.384 . S
C1202 H1193 0.929 . S
C1202 C1194 1.378 . S
C1202 C1197 1.350 . S
C1203 H1190 0.929 . S
C1203 C1195 1.433 . S
C1203 N1205 1.384 . S
N1204 C1200 1.427 . S
N1204 C1201 1.384 . S
N1205 C1197 1.427 . S
N1205 C1203 1.384 . S
H1206 C1212 0.930 . S
H1207 C1216 0.930 . S
H1208 C1221 0.929 . S
H1209 C1219 0.929 . S
H1210 C1214 0.929 . S
H1211 C1220 0.929 . S
C1212 H1206 0.930 . S
C1212 C1213 1.367 . S
C1212 C1220 1.378 . S
C1213 C1212 1.367 . S
C1213 C1221 1.433 . S
C1214 H1210 0.929 . S
C1214 C1216 1.378 . S
C1214 C1218 1.350 . S
C1215 C1218 1.463 . S
C1215 C1220 1.350 . S
C1215 N1223 1.427 . S
C1216 H1207 0.930 . S
C1216 C1214 1.378 . S
C1216 C1217 1.367 . S
C1217 C1216 1.367 . S
C1217 C1219 1.433 . S
C1218 C1214 1.350 . S
C1218 C1215 1.463 . S
C1218 N1222 1.427 . S
C1219 H1209 0.929 . S
C1219 C1217 1.433 . S
C1219 N1222 1.384 . S
C1220 H1211 0.929 . S
C1220 C1212 1.378 . S
C1220 C1215 1.350 . S
C1221 H1208 0.929 . S
C1221 C1213 1.433 . S
C1221 N1223 1.384 . S
N1222 C1218 1.427 . S
N1222 C1219 1.384 . S
N1223 C1215 1.427 . S
N1223 C1221 1.384 . S
H1224 C1230 0.930 . S
H1225 C1234 0.930 . S
H1226 C1239 0.929 . S
H1227 C1237 0.929 . S
H1228 C1232 0.929 . S
H1229 C1238 0.929 . S
C1230 H1224 0.930 . S
C1230 C1231 1.367 . S
C1230 C1238 1.378 . S
C1231 C1230 1.367 . S
C1231 C1239 1.433 . S
C1232 H1228 0.929 . S
C1232 C1234 1.378 . S
C1232 C1236 1.350 . S
C1233 C1236 1.463 . S
C1233 C1238 1.350 . S
C1233 N1241 1.427 . S
C1234 H1225 0.930 . S
C1234 C1232 1.378 . S
C1234 C1235 1.367 . S
C1235 C1234 1.367 . S
C1235 C1237 1.433 . S
C1236 C1232 1.350 . S
C1236 C1233 1.463 . S
C1236 N1240 1.427 . S
C1237 H1227 0.929 . S
C1237 C1235 1.433 . S
C1237 N1240 1.384 . S
C1238 H1229 0.929 . S
C1238 C1230 1.378 . S
C1238 C1233 1.350 . S
C1239 H1226 0.929 . S
C1239 C1231 1.433 . S
C1239 N1241 1.384 . S
N1240 C1236 1.427 . S
N1240 C1237 1.384 . S
N1241 C1233 1.427 . S
N1241 C1239 1.384 . S
H1242 C1248 0.930 . S
H1243 C1252 0.930 . S
H1244 C1257 0.929 . S
H1245 C1255 0.929 . S
H1246 C1250 0.929 . S
H1247 C1256 0.929 . S
C1248 H1242 0.930 . S
C1248 C1249 1.367 . S
C1248 C1256 1.378 . S
C1249 C1248 1.367 . S
C1249 C1257 1.433 . S
C1250 H1246 0.929 . S
C1250 C1252 1.378 . S
C1250 C1254 1.350 . S
C1251 C1254 1.463 . S
C1251 C1256 1.350 . S
C1251 N1259 1.427 . S
C1252 H1243 0.930 . S
C1252 C1250 1.378 . S
C1252 C1253 1.367 . S
C1253 C1252 1.367 . S
C1253 C1255 1.433 . S
C1254 C1250 1.350 . S
C1254 C1251 1.463 . S
C1254 N1258 1.427 . S
C1255 H1245 0.929 . S
C1255 C1253 1.433 . S
C1255 N1258 1.384 . S
C1256 H1247 0.929 . S
C1256 C1248 1.378 . S
C1256 C1251 1.350 . S
C1257 H1244 0.929 . S
C1257 C1249 1.433 . S
C1257 N1259 1.384 . S
N1258 C1254 1.427 . S
N1258 C1255 1.384 . S
N1259 C1251 1.427 . S
N1259 C1257 1.384 . S
H1260 C1266 0.930 . S
H1261 C1270 0.930 . S
H1262 C1275 0.929 . S
H1263 C1273 0.929 . S
H1264 C1268 0.929 . S
H1265 C1274 0.929 . S
C1266 H1260 0.930 . S
C1266 C1267 1.367 . S
C1266 C1274 1.378 . S
C1267 C1266 1.367 . S
C1267 C1275 1.433 . S
C1268 H1264 0.929 . S
C1268 C1270 1.378 . S
C1268 C1272 1.350 . S
C1269 C1272 1.463 . S
C1269 C1274 1.350 . S
C1269 N1277 1.427 . S
C1270 H1261 0.930 . S
C1270 C1268 1.378 . S
C1270 C1271 1.367 . S
C1271 C1270 1.367 . S
C1271 C1273 1.433 . S
C1272 C1268 1.350 . S
C1272 C1269 1.463 . S
C1272 N1276 1.427 . S
C1273 H1263 0.929 . S
C1273 C1271 1.433 . S
C1273 N1276 1.384 . S
C1274 H1265 0.929 . S
C1274 C1266 1.378 . S
C1274 C1269 1.350 . S
C1275 H1262 0.929 . S
C1275 C1267 1.433 . S
C1275 N1277 1.384 . S
N1276 C1272 1.427 . S
N1276 C1273 1.384 . S
N1277 C1269 1.427 . S
N1277 C1275 1.384 . S
H1278 C1284 0.930 . S
H1279 C1288 0.930 . S
H1280 C1293 0.929 . S
H1281 C1291 0.929 . S
H1282 C1286 0.929 . S
H1283 C1292 0.929 . S
C1284 H1278 0.930 . S
C1284 C1285 1.367 . S
C1284 C1292 1.378 . S
C1285 C1284 1.367 . S
C1285 C1293 1.433 . S
C1286 H1282 0.929 . S
C1286 C1288 1.378 . S
C1286 C1290 1.350 . S
C1287 C1290 1.463 . S
C1287 C1292 1.350 . S
C1287 N1295 1.427 . S
C1288 H1279 0.930 . S
C1288 C1286 1.378 . S
C1288 C1289 1.367 . S
C1289 C1288 1.367 . S
C1289 C1291 1.433 . S
C1290 C1286 1.350 . S
C1290 C1287 1.463 . S
C1290 N1294 1.427 . S
C1291 H1281 0.929 . S
C1291 C1289 1.433 . S
C1291 N1294 1.384 . S
C1292 H1283 0.929 . S
C1292 C1284 1.378 . S
C1292 C1287 1.350 . S
C1293 H1280 0.929 . S
C1293 C1285 1.433 . S
C1293 N1295 1.384 . S
N1294 C1290 1.427 . S
N1294 C1291 1.384 . S
N1295 C1287 1.427 . S
N1295 C1293 1.384 . S
H1296 C1302 0.930 . S
H1297 C1306 0.930 . S
H1298 C1311 0.929 . S
H1299 C1309 0.929 . S
H1300 C1304 0.929 . S
H1301 C1310 0.929 . S
C1302 H1296 0.930 . S
C1302 C1303 1.367 . S
C1302 C1310 1.378 . S
C1303 C1302 1.367 . S
C1303 C1311 1.433 . S
C1304 H1300 0.929 . S
C1304 C1306 1.378 . S
C1304 C1308 1.350 . S
C1305 C1308 1.463 . S
C1305 C1310 1.350 . S
C1305 N1313 1.427 . S
C1306 H1297 0.930 . S
C1306 C1304 1.378 . S
C1306 C1307 1.367 . S
C1307 C1306 1.367 . S
C1307 C1309 1.433 . S
C1308 C1304 1.350 . S
C1308 C1305 1.463 . S
C1308 N1312 1.427 . S
C1309 H1299 0.929 . S
C1309 C1307 1.433 . S
C1309 N1312 1.384 . S
C1310 H1301 0.929 . S
C1310 C1302 1.378 . S
C1310 C1305 1.350 . S
C1311 H1298 0.929 . S
C1311 C1303 1.433 . S
C1311 N1313 1.384 . S
N1312 C1308 1.427 . S
N1312 C1309 1.384 . S
N1313 C1305 1.427 . S
N1313 C1311 1.384 . S
H1314 C1320 0.930 . S
H1315 C1324 0.930 . S
H1316 C1329 0.929 . S
H1317 C1327 0.929 . S
H1318 C1322 0.929 . S
H1319 C1328 0.929 . S
C1320 H1314 0.930 . S
C1320 C1321 1.367 . S
C1320 C1328 1.378 . S
C1321 C1320 1.367 . S
C1321 C1329 1.433 . S
C1322 H1318 0.929 . S
C1322 C1324 1.378 . S
C1322 C1326 1.350 . S
C1323 C1326 1.463 . S
C1323 C1328 1.350 . S
C1323 N1331 1.427 . S
C1324 H1315 0.930 . S
C1324 C1322 1.378 . S
C1324 C1325 1.367 . S
C1325 C1324 1.367 . S
C1325 C1327 1.433 . S
C1326 C1322 1.350 . S
C1326 C1323 1.463 . S
C1326 N1330 1.427 . S
C1327 H1317 0.929 . S
C1327 C1325 1.433 . S
C1327 N1330 1.384 . S
C1328 H1319 0.929 . S
C1328 C1320 1.378 . S
C1328 C1323 1.350 . S
C1329 H1316 0.929 . S
C1329 C1321 1.433 . S
C1329 N1331 1.384 . S
N1330 C1326 1.427 . S
N1330 C1327 1.384 . S
N1331 C1323 1.427 . S
N1331 C1329 1.384 . S
H1332 C1338 0.930 . S
H1333 C1342 0.930 . S
H1334 C1347 0.929 . S
H1335 C1345 0.929 . S
H1336 C1340 0.929 . S
H1337 C1346 0.929 . S
C1338 H1332 0.930 . S
C1338 C1339 1.367 . S
C1338 C1346 1.378 . S
C1339 C1338 1.367 . S
C1339 C1347 1.433 . S
C1340 H1336 0.929 . S
C1340 C1342 1.378 . S
C1340 C1344 1.350 . S
C1341 C1344 1.463 . S
C1341 C1346 1.350 . S
C1341 N1349 1.427 . S
C1342 H1333 0.930 . S
C1342 C1340 1.378 . S
C1342 C1343 1.367 . S
C1343 C1342 1.367 . S
C1343 C1345 1.433 . S
C1344 C1340 1.350 . S
C1344 C1341 1.463 . S
C1344 N1348 1.427 . S
C1345 H1335 0.929 . S
C1345 C1343 1.433 . S
C1345 N1348 1.384 . S
C1346 H1337 0.929 . S
C1346 C1338 1.378 . S
C1346 C1341 1.350 . S
C1347 H1334 0.929 . S
C1347 C1339 1.433 . S
C1347 N1349 1.384 . S
N1348 C1344 1.427 . S
N1348 C1345 1.384 . S
N1349 C1341 1.427 . S
N1349 C1347 1.384 . S
H1350 C1356 0.930 . S
H1351 C1360 0.930 . S
H1352 C1365 0.929 . S
H1353 C1363 0.929 . S
H1354 C1358 0.929 . S
H1355 C1364 0.929 . S
C1356 H1350 0.930 . S
C1356 C1357 1.367 . S
C1356 C1364 1.378 . S
C1357 C1356 1.367 . S
C1357 C1365 1.433 . S
C1358 H1354 0.929 . S
C1358 C1360 1.378 . S
C1358 C1362 1.350 . S
C1359 C1362 1.463 . S
C1359 C1364 1.350 . S
C1359 N1367 1.427 . S
C1360 H1351 0.930 . S
C1360 C1358 1.378 . S
C1360 C1361 1.367 . S
C1361 C1360 1.367 . S
C1361 C1363 1.433 . S
C1362 C1358 1.350 . S
C1362 C1359 1.463 . S
C1362 N1366 1.427 . S
C1363 H1353 0.929 . S
C1363 C1361 1.433 . S
C1363 N1366 1.384 . S
C1364 H1355 0.929 . S
C1364 C1356 1.378 . S
C1364 C1359 1.350 . S
C1365 H1352 0.929 . S
C1365 C1357 1.433 . S
C1365 N1367 1.384 . S
N1366 C1362 1.427 . S
N1366 C1363 1.384 . S
N1367 C1359 1.427 . S
N1367 C1365 1.384 . S
H1368 C1374 0.930 . S
H1369 C1378 0.930 . S
H1370 C1383 0.929 . S
H1371 C1381 0.929 . S
H1372 C1376 0.929 . S
H1373 C1382 0.929 . S
C1374 H1368 0.930 . S
C1374 C1375 1.367 . S
C1374 C1382 1.378 . S
C1375 C1374 1.367 . S
C1375 C1383 1.433 . S
C1376 H1372 0.929 . S
C1376 C1378 1.378 . S
C1376 C1380 1.350 . S
C1377 C1380 1.463 . S
C1377 C1382 1.350 . S
C1377 N1385 1.427 . S
C1378 H1369 0.930 . S
C1378 C1376 1.378 . S
C1378 C1379 1.367 . S
C1379 C1378 1.367 . S
C1379 C1381 1.433 . S
C1380 C1376 1.350 . S
C1380 C1377 1.463 . S
C1380 N1384 1.427 . S
C1381 H1371 0.929 . S
C1381 C1379 1.433 . S
C1381 N1384 1.384 . S
C1382 H1373 0.929 . S
C1382 C1374 1.378 . S
C1382 C1377 1.350 . S
C1383 H1370 0.929 . S
C1383 C1375 1.433 . S
C1383 N1385 1.384 . S
N1384 C1380 1.427 . S
N1384 C1381 1.384 . S
N1385 C1377 1.427 . S
N1385 C1383 1.384 . S
H1386 C1392 0.930 . S
H1387 C1396 0.930 . S
H1388 C1401 0.929 . S
H1389 C1399 0.929 . S
H1390 C1394 0.929 . S
H1391 C1400 0.929 . S
C1392 H1386 0.930 . S
C1392 C1393 1.367 . S
C1392 C1400 1.378 . S
C1393 C1392 1.367 . S
C1393 C1401 1.433 . S
C1394 H1390 0.929 . S
C1394 C1396 1.378 . S
C1394 C1398 1.350 . S
C1395 C1398 1.463 . S
C1395 C1400 1.350 . S
C1395 N1403 1.427 . S
C1396 H1387 0.930 . S
C1396 C1394 1.378 . S
C1396 C1397 1.367 . S
C1397 C1396 1.367 . S
C1397 C1399 1.433 . S
C1398 C1394 1.350 . S
C1398 C1395 1.463 . S
C1398 N1402 1.427 . S
C1399 H1389 0.929 . S
C1399 C1397 1.433 . S
C1399 N1402 1.384 . S
C1400 H1391 0.929 . S
C1400 C1392 1.378 . S
C1400 C1395 1.350 . S
C1401 H1388 0.929 . S
C1401 C1393 1.433 . S
C1401 N1403 1.384 . S
N1402 C1398 1.427 . S
N1402 C1399 1.384 . S
N1403 C1395 1.427 . S
N1403 C1401 1.384 . S
H1404 C1410 0.930 . S
H1405 C1414 0.930 . S
H1406 C1419 0.929 . S
H1407 C1417 0.929 . S
H1408 C1412 0.929 . S
H1409 C1418 0.929 . S
C1410 H1404 0.930 . S
C1410 C1411 1.367 . S
C1410 C1418 1.378 . S
C1411 C1410 1.367 . S
C1411 C1419 1.433 . S
C1412 H1408 0.929 . S
C1412 C1414 1.378 . S
C1412 C1416 1.350 . S
C1413 C1416 1.463 . S
C1413 C1418 1.350 . S
C1413 N1421 1.427 . S
C1414 H1405 0.930 . S
C1414 C1412 1.378 . S
C1414 C1415 1.367 . S
C1415 C1414 1.367 . S
C1415 C1417 1.433 . S
C1416 C1412 1.350 . S
C1416 C1413 1.463 . S
C1416 N1420 1.427 . S
C1417 H1407 0.929 . S
C1417 C1415 1.433 . S
C1417 N1420 1.384 . S
C1418 H1409 0.929 . S
C1418 C1410 1.378 . S
C1418 C1413 1.350 . S
C1419 H1406 0.929 . S
C1419 C1411 1.433 . S
C1419 N1421 1.384 . S
N1420 C1416 1.427 . S
N1420 C1417 1.384 . S
N1421 C1413 1.427 . S
N1421 C1419 1.384 . S
H1422 C1428 0.930 . S
H1423 C1432 0.930 . S
H1424 C1437 0.929 . S
H1425 C1435 0.929 . S
H1426 C1430 0.929 . S
H1427 C1436 0.929 . S
C1428 H1422 0.930 . S
C1428 C1429 1.367 . S
C1428 C1436 1.378 . S
C1429 C1428 1.367 . S
C1429 C1437 1.433 . S
C1430 H1426 0.929 . S
C1430 C1432 1.378 . S
C1430 C1434 1.350 . S
C1431 C1434 1.463 . S
C1431 C1436 1.350 . S
C1431 N1439 1.427 . S
C1432 H1423 0.930 . S
C1432 C1430 1.378 . S
C1432 C1433 1.367 . S
C1433 C1432 1.367 . S
C1433 C1435 1.433 . S
C1434 C1430 1.350 . S
C1434 C1431 1.463 . S
C1434 N1438 1.427 . S
C1435 H1425 0.929 . S
C1435 C1433 1.433 . S
C1435 N1438 1.384 . S
C1436 H1427 0.929 . S
C1436 C1428 1.378 . S
C1436 C1431 1.350 . S
C1437 H1424 0.929 . S
C1437 C1429 1.433 . S
C1437 N1439 1.384 . S
N1438 C1434 1.427 . S
N1438 C1435 1.384 . S
N1439 C1431 1.427 . S
N1439 C1437 1.384 . S
H1440 C1446 0.930 . S
H1441 C1450 0.930 . S
H1442 C1455 0.929 . S
H1443 C1453 0.929 . S
H1444 C1448 0.929 . S
H1445 C1454 0.929 . S
C1446 H1440 0.930 . S
C1446 C1447 1.367 . S
C1446 C1454 1.378 . S
C1447 C1446 1.367 . S
C1447 C1455 1.433 . S
C1448 H1444 0.929 . S
C1448 C1450 1.378 . S
C1448 C1452 1.350 . S
C1449 C1452 1.463 . S
C1449 C1454 1.350 . S
C1449 N1457 1.427 . S
C1450 H1441 0.930 . S
C1450 C1448 1.378 . S
C1450 C1451 1.367 . S
C1451 C1450 1.367 . S
C1451 C1453 1.433 . S
C1452 C1448 1.350 . S
C1452 C1449 1.463 . S
C1452 N1456 1.427 . S
C1453 H1443 0.929 . S
C1453 C1451 1.433 . S
C1453 N1456 1.384 . S
C1454 H1445 0.929 . S
C1454 C1446 1.378 . S
C1454 C1449 1.350 . S
C1455 H1442 0.929 . S
C1455 C1447 1.433 . S
C1455 N1457 1.384 . S
N1456 C1452 1.427 . S
N1456 C1453 1.384 . S
N1457 C1449 1.427 . S
N1457 C1455 1.384 . S
H1458 C1464 0.930 . S
H1459 C1468 0.930 . S
H1460 C1473 0.929 . S
H1461 C1471 0.929 . S
H1462 C1466 0.929 . S
H1463 C1472 0.929 . S
C1464 H1458 0.930 . S
C1464 C1465 1.367 . S
C1464 C1472 1.378 . S
C1465 C1464 1.367 . S
C1465 C1473 1.433 . S
C1466 H1462 0.929 . S
C1466 C1468 1.378 . S
C1466 C1470 1.350 . S
C1467 C1470 1.463 . S
C1467 C1472 1.350 . S
C1467 N1475 1.427 . S
C1468 H1459 0.930 . S
C1468 C1466 1.378 . S
C1468 C1469 1.367 . S
C1469 C1468 1.367 . S
C1469 C1471 1.433 . S
C1470 C1466 1.350 . S
C1470 C1467 1.463 . S
C1470 N1474 1.427 . S
C1471 H1461 0.929 . S
C1471 C1469 1.433 . S
C1471 N1474 1.384 . S
C1472 H1463 0.929 . S
C1472 C1464 1.378 . S
C1472 C1467 1.350 . S
C1473 H1460 0.929 . S
C1473 C1465 1.433 . S
C1473 N1475 1.384 . S
N1474 C1470 1.427 . S
N1474 C1471 1.384 . S
N1475 C1467 1.427 . S
N1475 C1473 1.384 . S
H1476 C1482 0.930 . S
H1477 C1486 0.930 . S
H1478 C1491 0.929 . S
H1479 C1489 0.929 . S
H1480 C1484 0.929 . S
H1481 C1490 0.929 . S
C1482 H1476 0.930 . S
C1482 C1483 1.367 . S
C1482 C1490 1.378 . S
C1483 C1482 1.367 . S
C1483 C1491 1.433 . S
C1484 H1480 0.929 . S
C1484 C1486 1.378 . S
C1484 C1488 1.350 . S
C1485 C1488 1.463 . S
C1485 C1490 1.350 . S
C1485 N1493 1.427 . S
C1486 H1477 0.930 . S
C1486 C1484 1.378 . S
C1486 C1487 1.367 . S
C1487 C1486 1.367 . S
C1487 C1489 1.433 . S
C1488 C1484 1.350 . S
C1488 C1485 1.463 . S
C1488 N1492 1.427 . S
C1489 H1479 0.929 . S
C1489 C1487 1.433 . S
C1489 N1492 1.384 . S
C1490 H1481 0.929 . S
C1490 C1482 1.378 . S
C1490 C1485 1.350 . S
C1491 H1478 0.929 . S
C1491 C1483 1.433 . S
C1491 N1493 1.384 . S
N1492 C1488 1.427 . S
N1492 C1489 1.384 . S
N1493 C1485 1.427 . S
N1493 C1491 1.384 . S
H1494 C1500 0.930 . S
H1495 C1504 0.930 . S
H1496 C1509 0.929 . S
H1497 C1507 0.929 . S
H1498 C1502 0.929 . S
H1499 C1508 0.929 . S
C1500 H1494 0.930 . S
C1500 C1501 1.367 . S
C1500 C1508 1.378 . S
C1501 C1500 1.367 . S
C1501 C1509 1.433 . S
C1502 H1498 0.929 . S
C1502 C1504 1.378 . S
C1502 C1506 1.350 . S
C1503 C1506 1.463 . S
C1503 C1508 1.350 . S
C1503 N1511 1.427 . S
C1504 H1495 0.930 . S
C1504 C1502 1.378 . S
C1504 C1505 1.367 . S
C1505 C1504 1.367 . S
C1505 C1507 1.433 . S
C1506 C1502 1.350 . S
C1506 C1503 1.463 . S
C1506 N1510 1.427 . S
C1507 H1497 0.929 . S
C1507 C1505 1.433 . S
C1507 N1510 1.384 . S
C1508 H1499 0.929 . S
C1508 C1500 1.378 . S
C1508 C1503 1.350 . S
C1509 H1496 0.929 . S
C1509 C1501 1.433 . S
C1509 N1511 1.384 . S
N1510 C1506 1.427 . S
N1510 C1507 1.384 . S
N1511 C1503 1.427 . S
N1511 C1509 1.384 . S
H1512 C1518 0.930 . S
H1513 C1522 0.930 . S
H1514 C1527 0.929 . S
H1515 C1525 0.929 . S
H1516 C1520 0.929 . S
H1517 C1526 0.929 . S
C1518 H1512 0.930 . S
C1518 C1519 1.367 . S
C1518 C1526 1.378 . S
C1519 C1518 1.367 . S
C1519 C1527 1.433 . S
C1520 H1516 0.929 . S
C1520 C1522 1.378 . S
C1520 C1524 1.350 . S
C1521 C1524 1.463 . S
C1521 C1526 1.350 . S
C1521 N1529 1.427 . S
C1522 H1513 0.930 . S
C1522 C1520 1.378 . S
C1522 C1523 1.367 . S
C1523 C1522 1.367 . S
C1523 C1525 1.433 . S
C1524 C1520 1.350 . S
C1524 C1521 1.463 . S
C1524 N1528 1.427 . S
C1525 H1515 0.929 . S
C1525 C1523 1.433 . S
C1525 N1528 1.384 . S
C1526 H1517 0.929 . S
C1526 C1518 1.378 . S
C1526 C1521 1.350 . S
C1527 H1514 0.929 . S
C1527 C1519 1.433 . S
C1527 N1529 1.384 . S
N1528 C1524 1.427 . S
N1528 C1525 1.384 . S
N1529 C1521 1.427 . S
N1529 C1527 1.384 . S
H1530 C1536 0.930 . S
H1531 C1540 0.930 . S
H1532 C1545 0.929 . S
H1533 C1543 0.929 . S
H1534 C1538 0.929 . S
H1535 C1544 0.929 . S
C1536 H1530 0.930 . S
C1536 C1537 1.367 . S
C1536 C1544 1.378 . S
C1537 C1536 1.367 . S
C1537 C1545 1.433 . S
C1538 H1534 0.929 . S
C1538 C1540 1.378 . S
C1538 C1542 1.350 . S
C1539 C1542 1.463 . S
C1539 C1544 1.350 . S
C1539 N1547 1.427 . S
C1540 H1531 0.930 . S
C1540 C1538 1.378 . S
C1540 C1541 1.367 . S
C1541 C1540 1.367 . S
C1541 C1543 1.433 . S
C1542 C1538 1.350 . S
C1542 C1539 1.463 . S
C1542 N1546 1.427 . S
C1543 H1533 0.929 . S
C1543 C1541 1.433 . S
C1543 N1546 1.384 . S
C1544 H1535 0.929 . S
C1544 C1536 1.378 . S
C1544 C1539 1.350 . S
C1545 H1532 0.929 . S
C1545 C1537 1.433 . S
C1545 N1547 1.384 . S
N1546 C1542 1.427 . S
N1546 C1543 1.384 . S
N1547 C1539 1.427 . S
N1547 C1545 1.384 . S
H1548 C1554 0.930 . S
H1549 C1558 0.930 . S
H1550 C1563 0.929 . S
H1551 C1561 0.929 . S
H1552 C1556 0.929 . S
H1553 C1562 0.929 . S
C1554 H1548 0.930 . S
C1554 C1555 1.367 . S
C1554 C1562 1.378 . S
C1555 C1554 1.367 . S
C1555 C1563 1.433 . S
C1556 H1552 0.929 . S
C1556 C1558 1.378 . S
C1556 C1560 1.350 . S
C1557 C1560 1.463 . S
C1557 C1562 1.350 . S
C1557 N1565 1.427 . S
C1558 H1549 0.930 . S
C1558 C1556 1.378 . S
C1558 C1559 1.367 . S
C1559 C1558 1.367 . S
C1559 C1561 1.433 . S
C1560 C1556 1.350 . S
C1560 C1557 1.463 . S
C1560 N1564 1.427 . S
C1561 H1551 0.929 . S
C1561 C1559 1.433 . S
C1561 N1564 1.384 . S
C1562 H1553 0.929 . S
C1562 C1554 1.378 . S
C1562 C1557 1.350 . S
C1563 H1550 0.929 . S
C1563 C1555 1.433 . S
C1563 N1565 1.384 . S
N1564 C1560 1.427 . S
N1564 C1561 1.384 . S
N1565 C1557 1.427 . S
N1565 C1563 1.384 . S
H1566 C1572 0.930 . S
H1567 C1576 0.930 . S
H1568 C1581 0.929 . S
H1569 C1579 0.929 . S
H1570 C1574 0.929 . S
H1571 C1580 0.929 . S
C1572 H1566 0.930 . S
C1572 C1573 1.367 . S
C1572 C1580 1.378 . S
C1573 C1572 1.367 . S
C1573 C1581 1.433 . S
C1574 H1570 0.929 . S
C1574 C1576 1.378 . S
C1574 C1578 1.350 . S
C1575 C1578 1.463 . S
C1575 C1580 1.350 . S
C1575 N1583 1.427 . S
C1576 H1567 0.930 . S
C1576 C1574 1.378 . S
C1576 C1577 1.367 . S
C1577 C1576 1.367 . S
C1577 C1579 1.433 . S
C1578 C1574 1.350 . S
C1578 C1575 1.463 . S
C1578 N1582 1.427 . S
C1579 H1569 0.929 . S
C1579 C1577 1.433 . S
C1579 N1582 1.384 . S
C1580 H1571 0.929 . S
C1580 C1572 1.378 . S
C1580 C1575 1.350 . S
C1581 H1568 0.929 . S
C1581 C1573 1.433 . S
C1581 N1583 1.384 . S
N1582 C1578 1.427 . S
N1582 C1579 1.384 . S
N1583 C1575 1.427 . S
N1583 C1581 1.384 . S
H1584 C1590 0.928 . S
H1585 C1594 0.928 . S
H1586 C1599 0.929 . S
H1587 C1597 0.929 . S
H1588 C1592 0.929 . S
H1589 C1598 0.929 . S
C1590 H1584 0.928 . S
C1590 C1591 1.367 . S
C1590 C1598 1.378 1_655 S
C1591 C1590 1.367 . S
C1591 C1599 1.433 . S
C1592 H1588 0.929 . S
C1592 C1594 1.378 1_655 S
C1592 C1596 1.350 1_655 S
C1593 C1596 1.463 1_655 S
C1593 C1598 1.350 1_655 S
C1593 N1601 1.427 . S
C1594 H1585 0.928 . S
C1594 C1592 1.378 1_455 S
C1594 C1595 1.367 . S
C1595 C1594 1.367 . S
C1595 C1597 1.433 . S
C1596 C1592 1.350 1_455 S
C1596 C1593 1.463 1_455 S
C1596 N1600 1.427 . S
C1597 H1587 0.929 . S
C1597 C1595 1.433 . S
C1597 N1600 1.384 . S
C1598 H1589 0.929 . S
C1598 C1590 1.378 1_455 S
C1598 C1593 1.350 1_455 S
C1599 H1586 0.929 . S
C1599 C1591 1.433 . S
C1599 N1601 1.384 . S
N1600 C1596 1.427 . S
N1600 C1597 1.384 . S
N1601 C1593 1.427 . S
N1601 C1599 1.384 . S
H1602 C1608 0.930 . S
H1603 C1612 0.930 . S
H1604 C1617 0.929 . S
H1605 C1615 0.929 . S
H1606 C1610 0.929 . S
H1607 C1616 0.929 . S
C1608 H1602 0.930 . S
C1608 C1609 1.367 . S
C1608 C1616 1.378 . S
C1609 C1608 1.367 . S
C1609 C1617 1.433 . S
C1610 H1606 0.929 . S
C1610 C1612 1.378 . S
C1610 C1614 1.350 . S
C1611 C1614 1.463 . S
C1611 C1616 1.350 . S
C1611 N1619 1.427 . S
C1612 H1603 0.930 . S
C1612 C1610 1.378 . S
C1612 C1613 1.367 . S
C1613 C1612 1.367 . S
C1613 C1615 1.433 . S
C1614 C1610 1.350 . S
C1614 C1611 1.463 . S
C1614 N1618 1.427 . S
C1615 H1605 0.929 . S
C1615 C1613 1.433 . S
C1615 N1618 1.384 . S
C1616 H1607 0.929 . S
C1616 C1608 1.378 . S
C1616 C1611 1.350 . S
C1617 H1604 0.929 . S
C1617 C1609 1.433 . S
C1617 N1619 1.384 . S
N1618 C1614 1.427 . S
N1618 C1615 1.384 . S
N1619 C1611 1.427 . S
N1619 C1617 1.384 . S
H1620 C1626 0.930 . S
H1621 C1630 0.930 . S
H1622 C1635 0.929 . S
H1623 C1633 0.929 . S
H1624 C1628 0.929 . S
H1625 C1634 0.929 . S
C1626 H1620 0.930 . S
C1626 C1627 1.367 . S
C1626 C1634 1.378 . S
C1627 C1626 1.367 . S
C1627 C1635 1.433 . S
C1628 H1624 0.929 . S
C1628 C1630 1.378 . S
C1628 C1632 1.350 . S
C1629 C1632 1.463 1_545 S
C1629 C1634 1.350 . S
C1629 N1637 1.427 . S
C1630 H1621 0.930 . S
C1630 C1628 1.378 . S
C1630 C1631 1.367 . S
C1631 C1630 1.367 . S
C1631 C1633 1.433 . S
C1632 C1628 1.350 . S
C1632 C1629 1.463 1_565 S
C1632 N1636 1.427 . S
C1633 H1623 0.929 . S
C1633 C1631 1.433 . S
C1633 N1636 1.384 . S
C1634 H1625 0.929 . S
C1634 C1626 1.378 . S
C1634 C1629 1.350 . S
C1635 H1622 0.929 . S
C1635 C1627 1.433 . S
C1635 N1637 1.384 . S
N1636 C1632 1.427 . S
N1636 C1633 1.384 . S
N1637 C1629 1.427 . S
N1637 C1635 1.384 . S
H1638 C1644 0.930 . S
H1639 C1648 0.930 . S
H1640 C1653 0.929 . S
H1641 C1651 0.929 . S
H1642 C1646 0.929 . S
H1643 C1652 0.929 . S
C1644 H1638 0.930 . S
C1644 C1645 1.367 . S
C1644 C1652 1.378 1_565 S
C1645 C1644 1.367 . S
C1645 C1653 1.433 . S
C1646 H1642 0.929 . S
C1646 C1648 1.378 1_565 S
C1646 C1650 1.350 1_565 S
C1647 C1650 1.463 1_564 S
C1647 C1652 1.350 1_565 S
C1647 N1655 1.432 . S
C1648 H1639 0.930 . S
C1648 C1646 1.378 1_545 S
C1648 C1649 1.367 . S
C1649 C1648 1.367 . S
C1649 C1651 1.433 . S
C1650 C1646 1.350 1_545 S
C1650 C1647 1.463 1_546 S
C1650 N1654 1.432 . S
C1651 H1641 0.929 . S
C1651 C1649 1.433 . S
C1651 N1654 1.393 . S
C1652 H1643 0.929 . S
C1652 C1644 1.378 1_545 S
C1652 C1647 1.350 1_545 S
C1653 H1640 0.929 . S
C1653 C1645 1.433 . S
C1653 N1655 1.393 . S
N1654 C1650 1.432 . S
N1654 C1651 1.393 . S
N1655 C1647 1.432 . S
N1655 C1653 1.393 . S
H1656 C1662 0.930 . S
H1657 C1666 0.930 . S
H1658 C1671 0.929 . S
H1659 C1669 0.929 . S
H1660 C1664 0.928 . S
H1661 C1670 0.928 . S
C1662 H1656 0.930 . S
C1662 C1663 1.367 . S
C1662 C1670 1.378 . S
C1663 C1662 1.367 . S
C1663 C1671 1.433 . S
C1664 H1660 0.928 . S
C1664 C1666 1.378 . S
C1664 C1668 1.350 . S
C1665 C1668 1.463 1_656 S
C1665 C1670 1.350 . S
C1665 N1673 1.427 1_556 S
C1666 H1657 0.930 . S
C1666 C1664 1.378 . S
C1666 C1667 1.367 . S
C1667 C1666 1.367 . S
C1667 C1669 1.433 . S
C1668 C1664 1.350 . S
C1668 C1665 1.463 1_454 S
C1668 N1672 1.427 1_554 S
C1669 H1659 0.929 . S
C1669 C1667 1.433 . S
C1669 N1672 1.384 1_554 S
C1670 H1661 0.928 . S
C1670 C1662 1.378 . S
C1670 C1665 1.350 . S
C1671 H1658 0.929 . S
C1671 C1663 1.433 . S
C1671 N1673 1.384 1_556 S
N1672 C1668 1.427 1_556 S
N1672 C1669 1.384 1_556 S
N1673 C1665 1.427 1_554 S
N1673 C1671 1.384 1_554 S
H1674 C1680 0.930 . S
H1675 C1684 0.930 . S
H1676 C1689 0.929 . S
H1677 C1687 0.929 . S
H1678 C1682 0.929 . S
H1679 C1688 0.929 . S
C1680 H1674 0.930 . S
C1680 C1681 1.367 . S
C1680 C1688 1.378 . S
C1681 C1680 1.367 . S
C1681 C1689 1.433 . S
C1682 H1678 0.929 . S
C1682 C1684 1.378 . S
C1682 C1686 1.350 . S
C1683 C1686 1.463 1_554 S
C1683 C1688 1.350 . S
C1683 N1691 1.433 . S
C1684 H1675 0.930 . S
C1684 C1682 1.378 . S
C1684 C1685 1.367 . S
C1685 C1684 1.367 . S
C1685 C1687 1.433 . S
C1686 C1682 1.350 . S
C1686 C1683 1.463 1_556 S
C1686 N1690 1.433 . S
C1687 H1677 0.929 . S
C1687 C1685 1.433 . S
C1687 N1690 1.395 . S
C1688 H1679 0.929 . S
C1688 C1680 1.378 . S
C1688 C1683 1.350 . S
C1689 H1676 0.929 . S
C1689 C1681 1.433 . S
C1689 N1691 1.395 . S
N1690 C1686 1.433 . S
N1690 C1687 1.395 . S
N1691 C1683 1.433 . S
N1691 C1689 1.395 . S
H1692 C1698 0.930 . S
H1693 C1702 0.930 . S
H1694 C1707 0.929 . S
H1695 C1705 0.929 . S
H1696 C1700 0.929 . S
H1697 C1706 0.929 . S
C1698 H1692 0.930 . S
C1698 C1699 1.367 . S
C1698 C1706 1.378 . S
C1699 C1698 1.367 . S
C1699 C1707 1.433 . S
C1700 H1696 0.929 . S
C1700 C1702 1.378 . S
C1700 C1704 1.350 . S
C1701 C1704 1.463 . S
C1701 C1706 1.350 . S
C1701 N1709 1.427 . S
C1702 H1693 0.930 . S
C1702 C1700 1.378 . S
C1702 C1703 1.367 . S
C1703 C1702 1.367 . S
C1703 C1705 1.433 . S
C1704 C1700 1.350 . S
C1704 C1701 1.463 . S
C1704 N1708 1.427 . S
C1705 H1695 0.929 . S
C1705 C1703 1.433 . S
C1705 N1708 1.384 . S
C1706 H1697 0.929 . S
C1706 C1698 1.378 . S
C1706 C1701 1.350 . S
C1707 H1694 0.929 . S
C1707 C1699 1.433 . S
C1707 N1709 1.384 . S
N1708 C1704 1.427 . S
N1708 C1705 1.384 . S
N1709 C1701 1.427 . S
N1709 C1707 1.384 . S
H1710 C1716 0.930 . S
H1711 C1720 0.930 . S
H1712 C1725 0.929 . S
H1713 C1723 0.929 . S
H1714 C1718 0.929 . S
H1715 C1724 0.929 . S
C1716 H1710 0.930 . S
C1716 C1717 1.367 . S
C1716 C1724 1.378 . S
C1717 C1716 1.367 . S
C1717 C1725 1.433 . S
C1718 H1714 0.929 . S
C1718 C1720 1.378 . S
C1718 C1722 1.350 . S
C1719 C1722 1.463 . S
C1719 C1724 1.350 . S
C1719 N1727 1.427 . S
C1720 H1711 0.930 . S
C1720 C1718 1.378 . S
C1720 C1721 1.367 . S
C1721 C1720 1.367 . S
C1721 C1723 1.433 . S
C1722 C1718 1.350 . S
C1722 C1719 1.463 . S
C1722 N1726 1.427 . S
C1723 H1713 0.929 . S
C1723 C1721 1.433 . S
C1723 N1726 1.384 . S
C1724 H1715 0.929 . S
C1724 C1716 1.378 . S
C1724 C1719 1.350 . S
C1725 H1712 0.929 . S
C1725 C1717 1.433 . S
C1725 N1727 1.384 . S
N1726 C1722 1.427 . S
N1726 C1723 1.384 . S
N1727 C1719 1.427 . S
N1727 C1725 1.384 . S
H1728 C1734 0.930 . S
H1729 C1738 0.930 . S
H1730 C1743 0.929 . S
H1731 C1741 0.929 1_554 S
H1732 C1736 0.929 . S
H1733 C1742 0.929 . S
C1734 H1728 0.930 . S
C1734 C1735 1.367 . S
C1734 C1742 1.378 . S
C1735 C1734 1.367 . S
C1735 C1743 1.433 . S
C1736 H1732 0.929 . S
C1736 C1738 1.378 . S
C1736 C1740 1.350 . S
C1737 C1740 1.463 . S
C1737 C1742 1.350 . S
C1737 N1745 1.427 . S
C1738 H1729 0.930 . S
C1738 C1736 1.378 . S
C1738 C1739 1.367 . S
C1739 C1738 1.367 . S
C1739 C1741 1.433 . S
C1740 C1736 1.350 . S
C1740 C1737 1.463 . S
C1740 N1744 1.427 . S
C1741 H1731 0.929 1_556 S
C1741 C1739 1.433 . S
C1741 N1744 1.384 . S
C1742 H1733 0.929 . S
C1742 C1734 1.378 . S
C1742 C1737 1.350 . S
C1743 H1730 0.929 . S
C1743 C1735 1.433 . S
C1743 N1745 1.384 . S
N1744 C1740 1.427 . S
N1744 C1741 1.384 . S
N1745 C1737 1.427 . S
N1745 C1743 1.384 . S
H1746 C1752 0.930 . S
H1747 C1756 0.930 . S
H1748 C1761 0.929 . S
H1749 C1759 0.929 . S
H1750 C1754 0.929 . S
H1751 C1760 0.929 . S
C1752 H1746 0.930 . S
C1752 C1753 1.367 . S
C1752 C1760 1.378 . S
C1753 C1752 1.367 . S
C1753 C1761 1.433 . S
C1754 H1750 0.929 . S
C1754 C1756 1.378 . S
C1754 C1758 1.350 . S
C1755 C1758 1.463 . S
C1755 C1760 1.350 . S
C1755 N1763 1.427 . S
C1756 H1747 0.930 . S
C1756 C1754 1.378 . S
C1756 C1757 1.367 . S
C1757 C1756 1.367 . S
C1757 C1759 1.433 . S
C1758 C1754 1.350 . S
C1758 C1755 1.463 . S
C1758 N1762 1.427 . S
C1759 H1749 0.929 . S
C1759 C1757 1.433 . S
C1759 N1762 1.384 . S
C1760 H1751 0.929 . S
C1760 C1752 1.378 . S
C1760 C1755 1.350 . S
C1761 H1748 0.929 . S
C1761 C1753 1.433 . S
C1761 N1763 1.384 . S
N1762 C1758 1.427 . S
N1762 C1759 1.384 . S
N1763 C1755 1.427 . S
N1763 C1761 1.384 . S
H1764 C1770 0.930 . S
H1765 C1774 0.930 . S
H1766 C1779 0.929 . S
H1767 C1777 0.929 . S
H1768 C1772 0.929 . S
H1769 C1778 0.929 . S
C1770 H1764 0.930 . S
C1770 C1771 1.367 . S
C1770 C1778 1.378 . S
C1771 C1770 1.367 . S
C1771 C1779 1.433 . S
C1772 H1768 0.929 . S
C1772 C1774 1.378 . S
C1772 C1776 1.350 . S
C1773 C1776 1.463 . S
C1773 C1778 1.350 . S
C1773 N1781 1.427 . S
C1774 H1765 0.930 . S
C1774 C1772 1.378 . S
C1774 C1775 1.367 . S
C1775 C1774 1.367 . S
C1775 C1777 1.433 . S
C1776 C1772 1.350 . S
C1776 C1773 1.463 . S
C1776 N1780 1.427 . S
C1777 H1767 0.929 . S
C1777 C1775 1.433 . S
C1777 N1780 1.384 . S
C1778 H1769 0.929 . S
C1778 C1770 1.378 . S
C1778 C1773 1.350 . S
C1779 H1766 0.929 . S
C1779 C1771 1.433 . S
C1779 N1781 1.384 . S
N1780 C1776 1.427 . S
N1780 C1777 1.384 . S
N1781 C1773 1.427 . S
N1781 C1779 1.384 . S
H1782 C1788 0.930 . S
H1783 C1792 0.930 . S
H1784 C1797 0.929 . S
H1785 C1795 0.929 . S
H1786 C1790 0.929 . S
H1787 C1796 0.929 . S
C1788 H1782 0.930 . S
C1788 C1789 1.367 . S
C1788 C1796 1.378 . S
C1789 C1788 1.367 . S
C1789 C1797 1.433 . S
C1790 H1786 0.929 . S
C1790 C1792 1.378 . S
C1790 C1794 1.350 . S
C1791 C1794 1.463 . S
C1791 C1796 1.350 . S
C1791 N1799 1.427 . S
C1792 H1783 0.930 . S
C1792 C1790 1.378 . S
C1792 C1793 1.367 . S
C1793 C1792 1.367 . S
C1793 C1795 1.433 . S
C1794 C1790 1.350 . S
C1794 C1791 1.463 . S
C1794 N1798 1.427 . S
C1795 H1785 0.929 . S
C1795 C1793 1.433 . S
C1795 N1798 1.384 . S
C1796 H1787 0.929 . S
C1796 C1788 1.378 . S
C1796 C1791 1.350 . S
C1797 H1784 0.929 . S
C1797 C1789 1.433 . S
C1797 N1799 1.384 . S
N1798 C1794 1.427 . S
N1798 C1795 1.384 . S
N1799 C1791 1.427 . S
N1799 C1797 1.384 . S
H1800 C1806 0.930 . S
H1801 C1810 0.930 . S
H1802 C1815 0.929 . S
H1803 C1813 0.929 . S
H1804 C1808 0.929 . S
H1805 C1814 0.929 . S
C1806 H1800 0.930 . S
C1806 C1807 1.367 . S
C1806 C1814 1.378 . S
C1807 C1806 1.367 . S
C1807 C1815 1.433 . S
C1808 H1804 0.929 . S
C1808 C1810 1.378 . S
C1808 C1812 1.350 . S
C1809 C1812 1.463 . S
C1809 C1814 1.350 . S
C1809 N1817 1.427 . S
C1810 H1801 0.930 . S
C1810 C1808 1.378 . S
C1810 C1811 1.367 . S
C1811 C1810 1.367 . S
C1811 C1813 1.433 . S
C1812 C1808 1.350 . S
C1812 C1809 1.463 . S
C1812 N1816 1.427 . S
C1813 H1803 0.929 . S
C1813 C1811 1.433 . S
C1813 N1816 1.384 . S
C1814 H1805 0.929 . S
C1814 C1806 1.378 . S
C1814 C1809 1.350 . S
C1815 H1802 0.929 . S
C1815 C1807 1.433 . S
C1815 N1817 1.384 . S
N1816 C1812 1.427 . S
N1816 C1813 1.384 . S
N1817 C1809 1.427 . S
N1817 C1815 1.384 . S
H1818 C1824 0.930 1_556 S
H1819 C1828 0.930 . S
H1820 C1833 0.929 . S
H1821 C1831 0.929 . S
H1822 C1826 0.929 . S
H1823 C1832 0.929 . S
C1824 H1818 0.930 1_554 S
C1824 C1825 1.367 . S
C1824 C1832 1.378 . S
C1825 C1824 1.367 . S
C1825 C1833 1.433 . S
C1826 H1822 0.929 . S
C1826 C1828 1.378 . S
C1826 C1830 1.350 . S
C1827 C1830 1.463 . S
C1827 C1832 1.350 . S
C1827 N1835 1.427 . S
C1828 H1819 0.930 . S
C1828 C1826 1.378 . S
C1828 C1829 1.367 . S
C1829 C1828 1.367 . S
C1829 C1831 1.433 . S
C1830 C1826 1.350 . S
C1830 C1827 1.463 . S
C1830 N1834 1.427 . S
C1831 H1821 0.929 . S
C1831 C1829 1.433 . S
C1831 N1834 1.384 . S
C1832 H1823 0.929 . S
C1832 C1824 1.378 . S
C1832 C1827 1.350 . S
C1833 H1820 0.929 . S
C1833 C1825 1.433 . S
C1833 N1835 1.384 . S
N1834 C1830 1.427 . S
N1834 C1831 1.384 . S
N1835 C1827 1.427 . S
N1835 C1833 1.384 . S
H1836 C1842 0.930 . S
H1837 C1846 0.930 . S
H1838 C1851 0.929 . S
H1839 C1849 0.929 . S
H1840 C1844 0.929 . S
H1841 C1850 0.929 . S
C1842 H1836 0.930 . S
C1842 C1843 1.367 . S
C1842 C1850 1.378 . S
C1843 C1842 1.367 . S
C1843 C1851 1.433 . S
C1844 H1840 0.929 . S
C1844 C1846 1.378 . S
C1844 C1848 1.350 . S
C1845 C1848 1.463 . S
C1845 C1850 1.350 . S
C1845 N1853 1.427 . S
C1846 H1837 0.930 . S
C1846 C1844 1.378 . S
C1846 C1847 1.367 . S
C1847 C1846 1.367 . S
C1847 C1849 1.433 . S
C1848 C1844 1.350 . S
C1848 C1845 1.463 . S
C1848 N1852 1.427 . S
C1849 H1839 0.929 . S
C1849 C1847 1.433 . S
C1849 N1852 1.384 . S
C1850 H1841 0.929 . S
C1850 C1842 1.378 . S
C1850 C1845 1.350 . S
C1851 H1838 0.929 . S
C1851 C1843 1.433 . S
C1851 N1853 1.384 . S
N1852 C1848 1.427 . S
N1852 C1849 1.384 . S
N1853 C1845 1.427 . S
N1853 C1851 1.384 . S
H1854 C1860 0.930 . S
H1855 C1864 0.930 . S
H1856 C1869 0.929 . S
H1857 C1867 0.929 . S
H1858 C1862 0.929 . S
H1859 C1868 0.929 . S
C1860 H1854 0.930 . S
C1860 C1861 1.367 . S
C1860 C1868 1.378 . S
C1861 C1860 1.367 . S
C1861 C1869 1.433 . S
C1862 H1858 0.929 . S
C1862 C1864 1.378 . S
C1862 C1866 1.350 . S
C1863 C1866 1.463 . S
C1863 C1868 1.350 . S
C1863 N1871 1.427 . S
C1864 H1855 0.930 . S
C1864 C1862 1.378 . S
C1864 C1865 1.367 . S
C1865 C1864 1.367 . S
C1865 C1867 1.433 . S
C1866 C1862 1.350 . S
C1866 C1863 1.463 . S
C1866 N1870 1.427 . S
C1867 H1857 0.929 . S
C1867 C1865 1.433 . S
C1867 N1870 1.384 . S
C1868 H1859 0.929 . S
C1868 C1860 1.378 . S
C1868 C1863 1.350 . S
C1869 H1856 0.929 . S
C1869 C1861 1.433 . S
C1869 N1871 1.384 . S
N1870 C1866 1.427 . S
N1870 C1867 1.384 . S
N1871 C1863 1.427 . S
N1871 C1869 1.384 . S
H1872 C1878 0.930 . S
H1873 C1882 0.930 . S
H1874 C1887 0.929 . S
H1875 C1885 0.929 . S
H1876 C1880 0.929 . S
H1877 C1886 0.929 . S
C1878 H1872 0.930 . S
C1878 C1879 1.367 . S
C1878 C1886 1.378 . S
C1879 C1878 1.367 . S
C1879 C1887 1.433 . S
C1880 H1876 0.929 . S
C1880 C1882 1.378 . S
C1880 C1884 1.350 . S
C1881 C1884 1.463 . S
C1881 C1886 1.350 . S
C1881 N1889 1.427 . S
C1882 H1873 0.930 . S
C1882 C1880 1.378 . S
C1882 C1883 1.367 . S
C1883 C1882 1.367 . S
C1883 C1885 1.433 . S
C1884 C1880 1.350 . S
C1884 C1881 1.463 . S
C1884 N1888 1.427 . S
C1885 H1875 0.929 . S
C1885 C1883 1.433 . S
C1885 N1888 1.384 . S
C1886 H1877 0.929 . S
C1886 C1878 1.378 . S
C1886 C1881 1.350 . S
C1887 H1874 0.929 . S
C1887 C1879 1.433 . S
C1887 N1889 1.384 . S
N1888 C1884 1.427 . S
N1888 C1885 1.384 . S
N1889 C1881 1.427 . S
N1889 C1887 1.384 . S
H1890 C1896 0.930 . S
H1891 C1900 0.930 . S
H1892 C1905 0.929 . S
H1893 C1903 0.929 . S
H1894 C1898 0.929 . S
H1895 C1904 0.929 . S
C1896 H1890 0.930 . S
C1896 C1897 1.367 . S
C1896 C1904 1.378 . S
C1897 C1896 1.367 . S
C1897 C1905 1.433 . S
C1898 H1894 0.929 . S
C1898 C1900 1.378 . S
C1898 C1902 1.350 . S
C1899 C1902 1.463 . S
C1899 C1904 1.350 . S
C1899 N1907 1.427 . S
C1900 H1891 0.930 . S
C1900 C1898 1.378 . S
C1900 C1901 1.367 . S
C1901 C1900 1.367 . S
C1901 C1903 1.433 . S
C1902 C1898 1.350 . S
C1902 C1899 1.463 . S
C1902 N1906 1.427 . S
C1903 H1893 0.929 . S
C1903 C1901 1.433 . S
C1903 N1906 1.384 . S
C1904 H1895 0.929 . S
C1904 C1896 1.378 . S
C1904 C1899 1.350 . S
C1905 H1892 0.929 . S
C1905 C1897 1.433 . S
C1905 N1907 1.384 . S
N1906 C1902 1.427 . S
N1906 C1903 1.384 . S
N1907 C1899 1.427 . S
N1907 C1905 1.384 . S
H1908 C1914 0.930 . S
H1909 C1918 0.930 . S
H1910 C1923 0.929 . S
H1911 C1921 0.929 . S
H1912 C1916 0.929 . S
H1913 C1922 0.929 . S
C1914 H1908 0.930 . S
C1914 C1915 1.367 . S
C1914 C1922 1.378 . S
C1915 C1914 1.367 . S
C1915 C1923 1.433 . S
C1916 H1912 0.929 . S
C1916 C1918 1.378 . S
C1916 C1920 1.350 . S
C1917 C1920 1.463 1_455 S
C1917 C1922 1.350 . S
C1917 N1925 1.427 . S
C1918 H1909 0.930 . S
C1918 C1916 1.378 . S
C1918 C1919 1.367 . S
C1919 C1918 1.367 . S
C1919 C1921 1.433 . S
C1920 C1916 1.350 . S
C1920 C1917 1.463 1_655 S
C1920 N1924 1.427 . S
C1921 H1911 0.929 . S
C1921 C1919 1.433 . S
C1921 N1924 1.384 . S
C1922 H1913 0.929 . S
C1922 C1914 1.378 . S
C1922 C1917 1.350 . S
C1923 H1910 0.929 . S
C1923 C1915 1.433 . S
C1923 N1925 1.384 . S
N1924 C1920 1.427 . S
N1924 C1921 1.384 . S
N1925 C1917 1.427 . S
N1925 C1923 1.384 . S
H1926 C1932 0.930 . S
H1927 C1936 0.930 . S
H1928 C1941 0.929 . S
H1929 C1939 0.929 . S
H1930 C1934 0.929 . S
H1931 C1940 0.929 . S
C1932 H1926 0.930 . S
C1932 C1933 1.367 . S
C1932 C1940 1.378 . S
C1933 C1932 1.367 . S
C1933 C1941 1.433 . S
C1934 H1930 0.929 . S
C1934 C1936 1.378 . S
C1934 C1938 1.350 . S
C1935 C1938 1.463 . S
C1935 C1940 1.350 . S
C1935 N1943 1.427 . S
C1936 H1927 0.930 . S
C1936 C1934 1.378 . S
C1936 C1937 1.367 . S
C1937 C1936 1.367 . S
C1937 C1939 1.433 . S
C1938 C1934 1.350 . S
C1938 C1935 1.463 . S
C1938 N1942 1.427 . S
C1939 H1929 0.929 . S
C1939 C1937 1.433 . S
C1939 N1942 1.384 . S
C1940 H1931 0.929 . S
C1940 C1932 1.378 . S
C1940 C1935 1.350 . S
C1941 H1928 0.929 . S
C1941 C1933 1.433 . S
C1941 N1943 1.384 . S
N1942 C1938 1.427 . S
N1942 C1939 1.384 . S
N1943 C1935 1.427 . S
N1943 C1941 1.384 . S
H1944 C1950 0.930 . S
H1945 C1954 0.930 . S
H1946 C1959 0.929 . S
H1947 C1957 0.929 . S
H1948 C1952 0.929 1_545 S
H1949 C1958 0.929 1_565 S
C1950 H1944 0.930 . S
C1950 C1951 1.367 . S
C1950 C1958 1.378 . S
C1951 C1950 1.367 . S
C1951 C1959 1.433 . S
C1952 H1948 0.929 1_565 S
C1952 C1954 1.378 . S
C1952 C1956 1.350 . S
C1953 C1956 1.463 1_545 S
C1953 C1958 1.350 . S
C1953 N1961 1.427 . S
C1954 H1945 0.930 . S
C1954 C1952 1.378 . S
C1954 C1955 1.367 . S
C1955 C1954 1.367 . S
C1955 C1957 1.433 . S
C1956 C1952 1.350 . S
C1956 C1953 1.463 1_565 S
C1956 N1960 1.427 . S
C1957 H1947 0.929 . S
C1957 C1955 1.433 . S
C1957 N1960 1.384 . S
C1958 H1949 0.929 1_545 S
C1958 C1950 1.378 . S
C1958 C1953 1.350 . S
C1959 H1946 0.929 . S
C1959 C1951 1.433 . S
C1959 N1961 1.384 . S
N1960 C1956 1.427 . S
N1960 C1957 1.384 . S
N1961 C1953 1.427 . S
N1961 C1959 1.384 . S
H1962 C1968 0.930 . S
H1963 C1972 0.930 . S
H1964 C1977 0.929 . S
H1965 C1975 0.929 . S
H1966 C1970 0.929 . S
H1967 C1976 0.929 . S
C1968 H1962 0.930 . S
C1968 C1969 1.367 . S
C1968 C1976 1.378 . S
C1969 C1968 1.367 . S
C1969 C1977 1.433 . S
C1970 H1966 0.929 . S
C1970 C1972 1.378 . S
C1970 C1974 1.350 . S
C1971 C1974 1.463 1_565 S
C1971 C1976 1.350 . S
C1971 N1979 1.427 . S
C1972 H1963 0.930 . S
C1972 C1970 1.378 . S
C1972 C1973 1.367 . S
C1973 C1972 1.367 . S
C1973 C1975 1.433 . S
C1974 C1970 1.350 . S
C1974 C1971 1.463 1_545 S
C1974 N1978 1.427 . S
C1975 H1965 0.929 . S
C1975 C1973 1.433 . S
C1975 N1978 1.384 . S
C1976 H1967 0.929 . S
C1976 C1968 1.378 . S
C1976 C1971 1.350 . S
C1977 H1964 0.929 . S
C1977 C1969 1.433 . S
C1977 N1979 1.384 . S
N1978 C1974 1.427 . S
N1978 C1975 1.384 . S
N1979 C1971 1.427 . S
N1979 C1977 1.384 . S
H1980 C1986 0.930 . S
H1981 C1990 0.930 . S
H1982 C1995 0.929 . S
H1983 C1993 0.929 . S
H1984 C1988 0.929 . S
H1985 C1994 0.929 . S
C1986 H1980 0.930 . S
C1986 C1987 1.367 . S
C1986 C1994 1.378 . S
C1987 C1986 1.367 . S
C1987 C1995 1.433 . S
C1988 H1984 0.929 . S
C1988 C1990 1.378 . S
C1988 C1992 1.350 . S
C1989 C1992 1.463 1_455 S
C1989 C1994 1.350 . S
C1989 N1997 1.427 . S
C1990 H1981 0.930 . S
C1990 C1988 1.378 . S
C1990 C1991 1.367 . S
C1991 C1990 1.367 . S
C1991 C1993 1.433 . S
C1992 C1988 1.350 . S
C1992 C1989 1.463 1_655 S
C1992 N1996 1.427 . S
C1993 H1983 0.929 . S
C1993 C1991 1.433 . S
C1993 N1996 1.384 . S
C1994 H1985 0.929 . S
C1994 C1986 1.378 . S
C1994 C1989 1.350 . S
C1995 H1982 0.929 . S
C1995 C1987 1.433 . S
C1995 N1997 1.384 . S
N1996 C1992 1.427 . S
N1996 C1993 1.384 . S
N1997 C1989 1.427 . S
N1997 C1995 1.384 . S
H1998 C2004 0.930 . S
H1999 C2008 0.930 . S
H2000 C2013 0.929 . S
H2001 C2011 0.929 . S
H2002 C2006 0.929 . S
H2003 C2012 0.929 . S
C2004 H1998 0.930 . S
C2004 C2005 1.367 . S
C2004 C2012 1.378 . S
C2005 C2004 1.367 . S
C2005 C2013 1.433 . S
C2006 H2002 0.929 . S
C2006 C2008 1.378 . S
C2006 C2010 1.350 . S
C2007 C2010 1.463 . S
C2007 C2012 1.350 . S
C2007 N2015 1.427 . S
C2008 H1999 0.930 . S
C2008 C2006 1.378 . S
C2008 C2009 1.367 . S
C2009 C2008 1.367 . S
C2009 C2011 1.433 . S
C2010 C2006 1.350 . S
C2010 C2007 1.463 . S
C2010 N2014 1.427 . S
C2011 H2001 0.929 . S
C2011 C2009 1.433 . S
C2011 N2014 1.384 . S
C2012 H2003 0.929 . S
C2012 C2004 1.378 . S
C2012 C2007 1.350 . S
C2013 H2000 0.929 . S
C2013 C2005 1.433 . S
C2013 N2015 1.384 . S
N2014 C2010 1.427 . S
N2014 C2011 1.384 . S
N2015 C2007 1.427 . S
N2015 C2013 1.384 . S
H2016 C2022 0.930 . S
H2017 C2026 0.930 . S
H2018 C2031 0.929 . S
H2019 C2029 0.929 . S
H2020 C2024 0.929 . S
H2021 C2030 0.929 . S
C2022 H2016 0.930 . S
C2022 C2023 1.367 . S
C2022 C2030 1.378 . S
C2023 C2022 1.367 . S
C2023 C2031 1.433 . S
C2024 H2020 0.929 . S
C2024 C2026 1.378 . S
C2024 C2028 1.350 . S
C2025 C2028 1.463 . S
C2025 C2030 1.350 . S
C2025 N2033 1.427 . S
C2026 H2017 0.930 . S
C2026 C2024 1.378 . S
C2026 C2027 1.367 . S
C2027 C2026 1.367 . S
C2027 C2029 1.433 . S
C2028 C2024 1.350 . S
C2028 C2025 1.463 . S
C2028 N2032 1.427 . S
C2029 H2019 0.929 . S
C2029 C2027 1.433 . S
C2029 N2032 1.384 . S
C2030 H2021 0.929 . S
C2030 C2022 1.378 . S
C2030 C2025 1.350 . S
C2031 H2018 0.929 . S
C2031 C2023 1.433 . S
C2031 N2033 1.384 . S
N2032 C2028 1.427 . S
N2032 C2029 1.384 . S
N2033 C2025 1.427 . S
N2033 C2031 1.384 . S
H2034 C2040 0.930 . S
H2035 C2044 0.930 . S
H2036 C2049 0.950 . S
H2037 C2047 0.950 . S
H2038 C2042 0.929 . S
H2039 C2048 0.929 . S
C2040 H2034 0.930 . S
C2040 C2041 1.367 . S
C2040 C2048 1.378 . S
C2041 C2040 1.367 . S
C2041 C2049 1.433 . S
C2042 H2038 0.929 . S
C2042 C2044 1.378 . S
C2042 C2046 1.350 . S
C2043 C2046 1.463 1_545 S
C2043 C2048 1.350 . S
C2043 N2051 1.427 1_545 S
C2044 H2035 0.930 . S
C2044 C2042 1.378 . S
C2044 C2045 1.367 . S
C2045 C2044 1.367 . S
C2045 C2047 1.433 . S
C2046 C2042 1.350 . S
C2046 C2043 1.463 1_565 S
C2046 N2050 1.427 1_565 S
C2047 H2037 0.950 . S
C2047 C2045 1.433 . S
C2047 N2050 1.384 1_565 S
C2048 H2039 0.929 . S
C2048 C2040 1.378 . S
C2048 C2043 1.350 . S
C2049 H2036 0.950 . S
C2049 C2041 1.433 . S
C2049 N2051 1.384 1_545 S
N2050 C2046 1.427 1_545 S
N2050 C2047 1.384 1_545 S
N2051 C2043 1.427 1_565 S
N2051 C2049 1.384 1_565 S
H2052 C2058 0.930 . S
H2053 C2062 0.930 . S
H2054 C2067 0.929 . S
H2055 C2065 0.929 . S
H2056 C2060 0.929 . S
H2057 C2066 0.929 . S
C2058 H2052 0.930 . S
C2058 C2059 1.367 . S
C2058 C2066 1.378 . S
C2059 C2058 1.367 . S
C2059 C2067 1.433 . S
C2060 H2056 0.929 . S
C2060 C2062 1.378 . S
C2060 C2064 1.350 . S
C2061 C2064 1.463 1_655 S
C2061 C2066 1.350 . S
C2061 N2069 1.427 . S
C2062 H2053 0.930 . S
C2062 C2060 1.378 . S
C2062 C2063 1.367 . S
C2063 C2062 1.367 . S
C2063 C2065 1.433 . S
C2064 C2060 1.350 . S
C2064 C2061 1.463 1_455 S
C2064 N2068 1.427 . S
C2065 H2055 0.929 . S
C2065 C2063 1.433 . S
C2065 N2068 1.384 . S
C2066 H2057 0.929 . S
C2066 C2058 1.378 . S
C2066 C2061 1.350 . S
C2067 H2054 0.929 . S
C2067 C2059 1.433 . S
C2067 N2069 1.384 . S
N2068 C2064 1.427 . S
N2068 C2065 1.384 . S
N2069 C2061 1.427 . S
N2069 C2067 1.384 . S
H2070 C2076 0.930 . S
H2071 C2080 0.930 . S
H2072 C2085 0.929 . S
H2073 C2083 0.929 . S
H2074 C2078 0.929 . S
H2075 C2084 0.929 . S
C2076 H2070 0.930 . S
C2076 C2077 1.367 . S
C2076 C2084 1.378 . S
C2077 C2076 1.367 . S
C2077 C2085 1.433 . S
C2078 H2074 0.929 . S
C2078 C2080 1.378 . S
C2078 C2082 1.350 . S
C2079 C2082 1.463 . S
C2079 C2084 1.350 . S
C2079 N2087 1.427 . S
C2080 H2071 0.930 . S
C2080 C2078 1.378 . S
C2080 C2081 1.367 . S
C2081 C2080 1.367 . S
C2081 C2083 1.433 . S
C2082 C2078 1.350 . S
C2082 C2079 1.463 . S
C2082 N2086 1.427 . S
C2083 H2073 0.929 . S
C2083 C2081 1.433 . S
C2083 N2086 1.384 . S
C2084 H2075 0.929 . S
C2084 C2076 1.378 . S
C2084 C2079 1.350 . S
C2085 H2072 0.929 . S
C2085 C2077 1.433 . S
C2085 N2087 1.384 . S
N2086 C2082 1.427 . S
N2086 C2083 1.384 . S
N2087 C2079 1.427 . S
N2087 C2085 1.384 . S
H2088 C2094 0.930 . S
H2089 C2098 0.930 . S
H2090 C2103 0.929 . S
H2091 C2101 0.929 . S
H2092 C2096 0.929 . S
H2093 C2102 0.929 . S
C2094 H2088 0.930 . S
C2094 C2095 1.367 1_545 S
C2094 C2102 1.378 . S
C2095 C2094 1.367 1_565 S
C2095 C2103 1.433 . S
C2096 H2092 0.929 . S
C2096 C2098 1.378 . S
C2096 C2100 1.350 1_565 S
C2097 C2100 1.463 1_565 S
C2097 C2102 1.350 1_565 S
C2097 N2105 1.427 . S
C2098 H2089 0.930 . S
C2098 C2096 1.378 . S
C2098 C2099 1.367 1_565 S
C2099 C2098 1.367 1_545 S
C2099 C2101 1.433 . S
C2100 C2096 1.350 1_545 S
C2100 C2097 1.463 1_545 S
C2100 N2104 1.427 . S
C2101 H2091 0.929 . S
C2101 C2099 1.433 . S
C2101 N2104 1.384 . S
C2102 H2093 0.929 . S
C2102 C2094 1.378 . S
C2102 C2097 1.350 1_545 S
C2103 H2090 0.929 . S
C2103 C2095 1.433 . S
C2103 N2105 1.384 . S
N2104 C2100 1.427 . S
N2104 C2101 1.384 . S
N2105 C2097 1.427 . S
N2105 C2103 1.384 . S
H2106 C2112 0.930 . S
H2107 C2116 0.930 . S
H2108 C2121 0.929 . S
H2109 C2119 0.929 . S
H2110 C2114 0.929 . S
H2111 C2120 0.929 . S
C2112 H2106 0.930 . S
C2112 C2113 1.367 1_455 S
C2112 C2120 1.378 . S
C2113 C2112 1.367 1_655 S
C2113 C2121 1.433 . S
C2114 H2110 0.929 . S
C2114 C2116 1.378 . S
C2114 C2118 1.350 1_655 S
C2115 C2118 1.463 1_655 S
C2115 C2120 1.350 1_655 S
C2115 N2123 1.427 . S
C2116 H2107 0.930 . S
C2116 C2114 1.378 . S
C2116 C2117 1.367 1_655 S
C2117 C2116 1.367 1_455 S
C2117 C2119 1.433 . S
C2118 C2114 1.350 1_455 S
C2118 C2115 1.463 1_455 S
C2118 N2122 1.427 . S
C2119 H2109 0.929 . S
C2119 C2117 1.433 . S
C2119 N2122 1.384 . S
C2120 H2111 0.929 . S
C2120 C2112 1.378 . S
C2120 C2115 1.350 1_455 S
C2121 H2108 0.929 . S
C2121 C2113 1.433 . S
C2121 N2123 1.384 . S
N2122 C2118 1.427 . S
N2122 C2119 1.384 . S
N2123 C2115 1.427 . S
N2123 C2121 1.384 . S
H2124 C2130 0.930 . S
H2125 C2134 0.930 . S
H2126 C2139 0.929 . S
H2127 C2137 0.929 . S
H2128 C2132 0.929 . S
H2129 C2138 0.929 . S
C2130 H2124 0.930 . S
C2130 C2131 1.367 . S
C2130 C2138 1.378 . S
C2131 C2130 1.367 . S
C2131 C2139 1.433 . S
C2132 H2128 0.929 . S
C2132 C2134 1.378 . S
C2132 C2136 1.350 . S
C2133 C2136 1.463 . S
C2133 C2138 1.350 . S
C2133 N2141 1.427 . S
C2134 H2125 0.930 . S
C2134 C2132 1.378 . S
C2134 C2135 1.367 . S
C2135 C2134 1.367 . S
C2135 C2137 1.433 . S
C2136 C2132 1.350 . S
C2136 C2133 1.463 . S
C2136 N2140 1.427 . S
C2137 H2127 0.929 . S
C2137 C2135 1.433 . S
C2137 N2140 1.384 . S
C2138 H2129 0.929 . S
C2138 C2130 1.378 . S
C2138 C2133 1.350 . S
C2139 H2126 0.929 . S
C2139 C2131 1.433 . S
C2139 N2141 1.384 . S
N2140 C2136 1.427 . S
N2140 C2137 1.384 . S
N2141 C2133 1.427 . S
N2141 C2139 1.384 . S
H2142 C2148 0.930 . S
H2143 C2152 0.930 . S
H2144 C2157 0.929 . S
H2145 C2155 0.929 . S
H2146 C2150 0.929 . S
H2147 C2156 0.929 . S
C2148 H2142 0.930 . S
C2148 C2149 1.367 . S
C2148 C2156 1.378 . S
C2149 C2148 1.367 . S
C2149 C2157 1.433 . S
C2150 H2146 0.929 . S
C2150 C2152 1.378 . S
C2150 C2154 1.350 . S
C2151 C2154 1.463 . S
C2151 C2156 1.350 . S
C2151 N2159 1.427 . S
C2152 H2143 0.930 . S
C2152 C2150 1.378 . S
C2152 C2153 1.367 . S
C2153 C2152 1.367 . S
C2153 C2155 1.433 . S
C2154 C2150 1.350 . S
C2154 C2151 1.463 . S
C2154 N2158 1.427 . S
C2155 H2145 0.929 . S
C2155 C2153 1.433 . S
C2155 N2158 1.384 . S
C2156 H2147 0.929 . S
C2156 C2148 1.378 . S
C2156 C2151 1.350 . S
C2157 H2144 0.929 . S
C2157 C2149 1.433 . S
C2157 N2159 1.384 . S
N2158 C2154 1.427 . S
N2158 C2155 1.384 . S
N2159 C2151 1.427 . S
N2159 C2157 1.384 . S
H2160 C2166 0.930 . S
H2161 C2170 0.930 . S
H2162 C2175 0.929 . S
H2163 C2173 0.929 . S
H2164 C2168 0.929 . S
H2165 C2174 0.929 . S
C2166 H2160 0.930 . S
C2166 C2167 1.367 . S
C2166 C2174 1.378 . S
C2167 C2166 1.367 . S
C2167 C2175 1.433 . S
C2168 H2164 0.929 . S
C2168 C2170 1.378 . S
C2168 C2172 1.350 . S
C2169 C2172 1.463 . S
C2169 C2174 1.350 . S
C2169 N2177 1.427 . S
C2170 H2161 0.930 . S
C2170 C2168 1.378 . S
C2170 C2171 1.367 . S
C2171 C2170 1.367 . S
C2171 C2173 1.433 . S
C2172 C2168 1.350 . S
C2172 C2169 1.463 . S
C2172 N2176 1.427 . S
C2173 H2163 0.929 . S
C2173 C2171 1.433 . S
C2173 N2176 1.384 . S
C2174 H2165 0.929 . S
C2174 C2166 1.378 . S
C2174 C2169 1.350 . S
C2175 H2162 0.929 . S
C2175 C2167 1.433 . S
C2175 N2177 1.384 . S
N2176 C2172 1.427 . S
N2176 C2173 1.384 . S
N2177 C2169 1.427 . S
N2177 C2175 1.384 . S
H2178 C2184 0.930 . S
H2179 C2188 0.937 . S
H2180 C2193 0.929 . S
H2181 C2191 0.929 . S
H2182 C2186 0.929 . S
H2183 C2192 0.929 . S
C2184 H2178 0.930 . S
C2184 C2185 1.367 . S
C2184 C2192 1.378 . S
C2185 C2184 1.367 . S
C2185 C2193 1.433 . S
C2186 H2182 0.929 . S
C2186 C2188 1.378 . S
C2186 C2190 1.350 . S
C2187 C2190 1.463 . S
C2187 C2192 1.350 . S
C2187 N2195 1.427 . S
C2188 H2179 0.937 . S
C2188 C2186 1.378 . S
C2188 C2189 1.367 1_554 S
C2189 C2188 1.367 1_556 S
C2189 C2191 1.433 1_556 S
C2190 C2186 1.350 . S
C2190 C2187 1.463 . S
C2190 N2194 1.427 . S
C2191 H2181 0.929 . S
C2191 C2189 1.433 1_554 S
C2191 N2194 1.384 . S
C2192 H2183 0.929 . S
C2192 C2184 1.378 . S
C2192 C2187 1.350 . S
C2193 H2180 0.929 . S
C2193 C2185 1.433 . S
C2193 N2195 1.384 . S
N2194 C2190 1.427 . S
N2194 C2191 1.384 . S
N2195 C2187 1.427 . S
N2195 C2193 1.384 . S
H2196 C2202 0.930 . S
H2197 C2206 0.930 1_556 S
H2198 C2211 0.929 . S
H2199 C2209 0.929 . S
H2200 C2204 0.929 . S
H2201 C2210 0.929 . S
C2202 H2196 0.930 . S
C2202 C2203 1.367 . S
C2202 C2210 1.378 . S
C2203 C2202 1.367 . S
C2203 C2211 1.433 . S
C2204 H2200 0.929 . S
C2204 C2206 1.378 . S
C2204 C2208 1.350 . S
C2205 C2208 1.463 . S
C2205 C2210 1.350 . S
C2205 N2213 1.427 . S
C2206 H2197 0.930 1_554 S
C2206 C2204 1.378 . S
C2206 C2207 1.367 1_554 S
C2207 C2206 1.367 1_556 S
C2207 C2209 1.433 1_556 S
C2208 C2204 1.350 . S
C2208 C2205 1.463 . S
C2208 N2212 1.427 . S
C2209 H2199 0.929 . S
C2209 C2207 1.433 1_554 S
C2209 N2212 1.384 . S
C2210 H2201 0.929 . S
C2210 C2202 1.378 . S
C2210 C2205 1.350 . S
C2211 H2198 0.929 . S
C2211 C2203 1.433 . S
C2211 N2213 1.384 . S
N2212 C2208 1.427 . S
N2212 C2209 1.384 . S
N2213 C2205 1.427 . S
N2213 C2211 1.384 . S
H2214 C2220 0.930 . S
H2215 C2224 0.930 1_556 S
H2216 C2229 0.929 . S
H2217 C2227 0.929 . S
H2218 C2222 0.929 . S
H2219 C2228 0.929 . S
C2220 H2214 0.930 . S
C2220 C2221 1.367 . S
C2220 C2228 1.378 . S
C2221 C2220 1.367 . S
C2221 C2229 1.433 . S
C2222 H2218 0.929 . S
C2222 C2224 1.378 . S
C2222 C2226 1.350 . S
C2223 C2226 1.463 . S
C2223 C2228 1.350 . S
C2223 N2231 1.427 . S
C2224 H2215 0.930 1_554 S
C2224 C2222 1.378 . S
C2224 C2225 1.367 1_554 S
C2225 C2224 1.367 1_556 S
C2225 C2227 1.433 1_556 S
C2226 C2222 1.350 . S
C2226 C2223 1.463 . S
C2226 N2230 1.427 . S
C2227 H2217 0.929 . S
C2227 C2225 1.433 1_554 S
C2227 N2230 1.384 . S
C2228 H2219 0.929 . S
C2228 C2220 1.378 . S
C2228 C2223 1.350 . S
C2229 H2216 0.929 . S
C2229 C2221 1.433 . S
C2229 N2231 1.384 . S
N2230 C2226 1.427 . S
N2230 C2227 1.384 . S
N2231 C2223 1.427 . S
N2231 C2229 1.384 . S
H2232 C2238 0.930 . S
H2233 C2242 0.930 . S
H2234 C2247 0.929 . S
H2235 C2245 0.929 1_554 S
H2236 C2240 0.929 . S
H2237 C2246 0.929 . S
C2238 H2232 0.930 . S
C2238 C2239 1.367 . S
C2238 C2246 1.378 . S
C2239 C2238 1.367 . S
C2239 C2247 1.433 . S
C2240 H2236 0.929 . S
C2240 C2242 1.378 . S
C2240 C2244 1.350 . S
C2241 C2244 1.463 . S
C2241 C2246 1.350 . S
C2241 N2249 1.427 . S
C2242 H2233 0.930 . S
C2242 C2240 1.378 . S
C2242 C2243 1.367 1_556 S
C2243 C2242 1.367 1_554 S
C2243 C2245 1.433 1_554 S
C2244 C2240 1.350 . S
C2244 C2241 1.463 . S
C2244 N2248 1.427 . S
C2245 H2235 0.929 1_556 S
C2245 C2243 1.433 1_556 S
C2245 N2248 1.384 . S
C2246 H2237 0.929 . S
C2246 C2238 1.378 . S
C2246 C2241 1.350 . S
C2247 H2234 0.929 . S
C2247 C2239 1.433 . S
C2247 N2249 1.384 . S
N2248 C2244 1.427 . S
N2248 C2245 1.384 . S
N2249 C2241 1.427 . S
N2249 C2247 1.384 . S
H2250 C2256 0.930 . S
H2251 C2260 0.930 . S
H2252 C2265 0.929 1_554 S
H2253 C2263 0.929 . S
H2254 C2258 0.929 . S
H2255 C2264 0.929 . S
C2256 H2250 0.930 . S
C2256 C2257 1.367 1_556 S
C2256 C2264 1.378 . S
C2257 C2256 1.367 1_554 S
C2257 C2265 1.433 1_554 S
C2258 H2254 0.929 . S
C2258 C2260 1.378 . S
C2258 C2262 1.350 . S
C2259 C2262 1.463 . S
C2259 C2264 1.350 . S
C2259 N2267 1.427 . S
C2260 H2251 0.930 . S
C2260 C2258 1.378 . S
C2260 C2261 1.367 . S
C2261 C2260 1.367 . S
C2261 C2263 1.433 . S
C2262 C2258 1.350 . S
C2262 C2259 1.463 . S
C2262 N2266 1.427 . S
C2263 H2253 0.929 . S
C2263 C2261 1.433 . S
C2263 N2266 1.384 . S
C2264 H2255 0.929 . S
C2264 C2256 1.378 . S
C2264 C2259 1.350 . S
C2265 H2252 0.929 1_556 S
C2265 C2257 1.433 1_556 S
C2265 N2267 1.384 . S
N2266 C2262 1.427 . S
N2266 C2263 1.384 . S
N2267 C2259 1.427 . S
N2267 C2265 1.384 . S
H2268 C2274 0.930 1_554 S
H2269 C2278 0.930 . S
H2270 C2283 0.929 . S
H2271 C2281 0.929 . S
H2272 C2276 0.929 . S
H2273 C2282 0.929 . S
C2274 H2268 0.930 1_556 S
C2274 C2275 1.367 1_556 S
C2274 C2282 1.378 . S
C2275 C2274 1.367 1_554 S
C2275 C2283 1.433 1_554 S
C2276 H2272 0.929 . S
C2276 C2278 1.378 . S
C2276 C2280 1.350 . S
C2277 C2280 1.463 . S
C2277 C2282 1.350 . S
C2277 N2285 1.427 . S
C2278 H2269 0.930 . S
C2278 C2276 1.378 . S
C2278 C2279 1.367 . S
C2279 C2278 1.367 . S
C2279 C2281 1.433 . S
C2280 C2276 1.350 . S
C2280 C2277 1.463 . S
C2280 N2284 1.427 . S
C2281 H2271 0.929 . S
C2281 C2279 1.433 . S
C2281 N2284 1.384 . S
C2282 H2273 0.929 . S
C2282 C2274 1.378 . S
C2282 C2277 1.350 . S
C2283 H2270 0.929 . S
C2283 C2275 1.433 1_556 S
C2283 N2285 1.384 . S
N2284 C2280 1.427 . S
N2284 C2281 1.384 . S
N2285 C2277 1.427 . S
N2285 C2283 1.384 . S
H2286 C2292 0.930 . S
H2287 C2296 0.930 . S
H2288 C2301 0.929 . S
H2289 C2299 0.929 . S
H2290 C2294 0.929 . S
H2291 C2300 0.929 . S
C2292 H2286 0.930 . S
C2292 C2293 1.367 . S
C2292 C2300 1.378 . S
C2293 C2292 1.367 . S
C2293 C2301 1.433 . S
C2294 H2290 0.929 . S
C2294 C2296 1.378 . S
C2294 C2298 1.350 . S
C2295 C2298 1.463 . S
C2295 C2300 1.350 . S
C2295 N2303 1.427 . S
C2296 H2287 0.930 . S
C2296 C2294 1.378 . S
C2296 C2297 1.367 . S
C2297 C2296 1.367 . S
C2297 C2299 1.433 . S
C2298 C2294 1.350 . S
C2298 C2295 1.463 . S
C2298 N2302 1.427 . S
C2299 H2289 0.929 . S
C2299 C2297 1.433 . S
C2299 N2302 1.384 . S
C2300 H2291 0.929 . S
C2300 C2292 1.378 . S
C2300 C2295 1.350 . S
C2301 H2288 0.929 . S
C2301 C2293 1.433 . S
C2301 N2303 1.384 . S
N2302 C2298 1.427 . S
N2302 C2299 1.384 . S
N2303 C2295 1.427 . S
N2303 C2301 1.384 . S
H2304 C2310 0.930 . S
H2305 C2314 0.930 . S
H2306 C2319 0.929 . S
H2307 C2317 0.929 . S
H2308 C2312 0.929 . S
H2309 C2318 0.929 . S
C2310 H2304 0.930 . S
C2310 C2311 1.367 . S
C2310 C2318 1.378 . S
C2311 C2310 1.367 . S
C2311 C2319 1.433 . S
C2312 H2308 0.929 . S
C2312 C2314 1.378 . S
C2312 C2316 1.350 . S
C2313 C2316 1.463 . S
C2313 C2318 1.350 . S
C2313 N2321 1.427 . S
C2314 H2305 0.930 . S
C2314 C2312 1.378 . S
C2314 C2315 1.367 . S
C2315 C2314 1.367 . S
C2315 C2317 1.433 . S
C2316 C2312 1.350 . S
C2316 C2313 1.463 . S
C2316 N2320 1.427 . S
C2317 H2307 0.929 . S
C2317 C2315 1.433 . S
C2317 N2320 1.384 . S
C2318 H2309 0.929 . S
C2318 C2310 1.378 . S
C2318 C2313 1.350 . S
C2319 H2306 0.929 . S
C2319 C2311 1.433 . S
C2319 N2321 1.384 . S
N2320 C2316 1.427 . S
N2320 C2317 1.384 . S
N2321 C2313 1.427 . S
N2321 C2319 1.384 . S
H2322 C2328 0.930 . S
H2323 C2332 0.930 . S
H2324 C2337 0.929 . S
H2325 C2335 0.929 . S
H2326 C2330 0.929 . S
H2327 C2336 0.929 . S
C2328 H2322 0.930 . S
C2328 C2329 1.367 . S
C2328 C2336 1.378 . S
C2329 C2328 1.367 . S
C2329 C2337 1.433 . S
C2330 H2326 0.929 . S
C2330 C2332 1.378 . S
C2330 C2334 1.350 . S
C2331 C2334 1.463 . S
C2331 C2336 1.350 . S
C2331 N2339 1.427 . S
C2332 H2323 0.930 . S
C2332 C2330 1.378 . S
C2332 C2333 1.367 . S
C2333 C2332 1.367 . S
C2333 C2335 1.433 . S
C2334 C2330 1.350 . S
C2334 C2331 1.463 . S
C2334 N2338 1.427 . S
C2335 H2325 0.929 . S
C2335 C2333 1.433 . S
C2335 N2338 1.384 . S
C2336 H2327 0.929 . S
C2336 C2328 1.378 . S
C2336 C2331 1.350 . S
C2337 H2324 0.929 . S
C2337 C2329 1.433 . S
C2337 N2339 1.384 . S
N2338 C2334 1.427 . S
N2338 C2335 1.384 . S
N2339 C2331 1.427 . S
N2339 C2337 1.384 . S
H2340 C2346 0.930 . S
H2341 C2350 0.930 . S
H2342 C2355 0.929 . S
H2343 C2353 0.929 . S
H2344 C2348 0.929 . S
H2345 C2354 0.929 . S
C2346 H2340 0.930 . S
C2346 C2347 1.367 . S
C2346 C2354 1.378 . S
C2347 C2346 1.367 . S
C2347 C2355 1.433 . S
C2348 H2344 0.929 . S
C2348 C2350 1.378 . S
C2348 C2352 1.350 . S
C2349 C2352 1.463 . S
C2349 C2354 1.350 . S
C2349 N2357 1.427 . S
C2350 H2341 0.930 . S
C2350 C2348 1.378 . S
C2350 C2351 1.367 . S
C2351 C2350 1.367 . S
C2351 C2353 1.433 . S
C2352 C2348 1.350 . S
C2352 C2349 1.463 . S
C2352 N2356 1.427 . S
C2353 H2343 0.929 . S
C2353 C2351 1.433 . S
C2353 N2356 1.384 . S
C2354 H2345 0.929 . S
C2354 C2346 1.378 . S
C2354 C2349 1.350 . S
C2355 H2342 0.929 . S
C2355 C2347 1.433 . S
C2355 N2357 1.384 . S
N2356 C2352 1.427 . S
N2356 C2353 1.384 . S
N2357 C2349 1.427 . S
N2357 C2355 1.384 . S
H2358 C2364 0.930 . S
H2359 C2368 0.930 . S
H2360 C2373 0.929 . S
H2361 C2371 0.929 . S
H2362 C2366 0.929 . S
H2363 C2372 0.929 . S
C2364 H2358 0.930 . S
C2364 C2365 1.367 . S
C2364 C2372 1.378 . S
C2365 C2364 1.367 . S
C2365 C2373 1.433 . S
C2366 H2362 0.929 . S
C2366 C2368 1.378 1_565 S
C2366 C2370 1.350 . S
C2367 C2370 1.463 . S
C2367 C2372 1.350 . S
C2367 N2375 1.427 . S
C2368 H2359 0.930 . S
C2368 C2366 1.378 1_545 S
C2368 C2369 1.367 1_545 S
C2369 C2368 1.367 1_565 S
C2369 C2371 1.433 . S
C2370 C2366 1.350 . S
C2370 C2367 1.463 . S
C2370 N2374 1.427 . S
C2371 H2361 0.929 . S
C2371 C2369 1.433 . S
C2371 N2374 1.384 . S
C2372 H2363 0.929 . S
C2372 C2364 1.378 . S
C2372 C2367 1.350 . S
C2373 H2360 0.929 . S
C2373 C2365 1.433 . S
C2373 N2375 1.384 . S
N2374 C2370 1.427 . S
N2374 C2371 1.384 . S
N2375 C2367 1.427 . S
N2375 C2373 1.384 . S
H2376 C2382 0.930 1_655 S
H2377 C2386 0.930 . S
H2378 C2391 0.929 . S
H2379 C2389 0.929 . S
H2380 C2384 0.929 . S
H2381 C2390 0.929 . S
C2382 H2376 0.930 1_455 S
C2382 C2383 1.367 . S
C2382 C2390 1.378 . S
C2383 C2382 1.367 . S
C2383 C2391 1.433 . S
C2384 H2380 0.929 . S
C2384 C2386 1.378 . S
C2384 C2388 1.350 . S
C2385 C2388 1.463 . S
C2385 C2390 1.350 . S
C2385 N2393 1.427 . S
C2386 H2377 0.930 . S
C2386 C2384 1.378 . S
C2386 C2387 1.367 . S
C2387 C2386 1.367 . S
C2387 C2389 1.433 . S
C2388 C2384 1.350 . S
C2388 C2385 1.463 . S
C2388 N2392 1.427 . S
C2389 H2379 0.929 . S
C2389 C2387 1.433 . S
C2389 N2392 1.384 . S
C2390 H2381 0.929 . S
C2390 C2382 1.378 . S
C2390 C2385 1.350 . S
C2391 H2378 0.929 . S
C2391 C2383 1.433 . S
C2391 N2393 1.384 . S
N2392 C2388 1.427 . S
N2392 C2389 1.384 . S
N2393 C2385 1.427 . S
N2393 C2391 1.384 . S
H2394 C2400 0.930 . S
H2395 C2404 0.930 . S
H2396 C2409 0.929 . S
H2397 C2407 0.929 . S
H2398 C2402 0.929 . S
H2399 C2408 0.929 . S
C2400 H2394 0.930 . S
C2400 C2401 1.367 . S
C2400 C2408 1.378 . S
C2401 C2400 1.367 . S
C2401 C2409 1.433 . S
C2402 H2398 0.929 . S
C2402 C2404 1.378 . S
C2402 C2406 1.350 . S
C2403 C2406 1.463 . S
C2403 C2408 1.350 . S
C2403 N2411 1.427 . S
C2404 H2395 0.930 . S
C2404 C2402 1.378 . S
C2404 C2405 1.367 . S
C2405 C2404 1.367 . S
C2405 C2407 1.433 . S
C2406 C2402 1.350 . S
C2406 C2403 1.463 . S
C2406 N2410 1.427 . S
C2407 H2397 0.929 . S
C2407 C2405 1.433 . S
C2407 N2410 1.384 . S
C2408 H2399 0.929 . S
C2408 C2400 1.378 . S
C2408 C2403 1.350 . S
C2409 H2396 0.929 . S
C2409 C2401 1.433 . S
C2409 N2411 1.384 . S
N2410 C2406 1.427 . S
N2410 C2407 1.384 . S
N2411 C2403 1.427 . S
N2411 C2409 1.384 . S
H2412 C2418 0.930 . S
H2413 C2422 0.930 . S
H2414 C2427 0.929 . S
H2415 C2425 0.929 . S
H2416 C2420 0.929 . S
H2417 C2426 0.929 . S
C2418 H2412 0.930 . S
C2418 C2419 1.367 . S
C2418 C2426 1.378 . S
C2419 C2418 1.367 . S
C2419 C2427 1.433 . S
C2420 H2416 0.929 . S
C2420 C2422 1.378 . S
C2420 C2424 1.350 . S
C2421 C2424 1.463 . S
C2421 C2426 1.350 . S
C2421 N2429 1.427 . S
C2422 H2413 0.930 . S
C2422 C2420 1.378 . S
C2422 C2423 1.367 . S
C2423 C2422 1.367 . S
C2423 C2425 1.433 . S
C2424 C2420 1.350 . S
C2424 C2421 1.463 . S
C2424 N2428 1.427 . S
C2425 H2415 0.929 . S
C2425 C2423 1.433 . S
C2425 N2428 1.384 . S
C2426 H2417 0.929 . S
C2426 C2418 1.378 . S
C2426 C2421 1.350 . S
C2427 H2414 0.929 . S
C2427 C2419 1.433 . S
C2427 N2429 1.384 . S
N2428 C2424 1.427 . S
N2428 C2425 1.384 . S
N2429 C2421 1.427 . S
N2429 C2427 1.384 . S
H2430 C2436 0.930 . S
H2431 C2440 0.930 . S
H2432 C2445 0.929 . S
H2433 C2443 0.929 . S
H2434 C2438 0.929 . S
H2435 C2444 0.929 . S
C2436 H2430 0.930 . S
C2436 C2437 1.367 1_455 S
C2436 C2444 1.378 1_455 S
C2437 C2436 1.367 1_655 S
C2437 C2445 1.433 . S
C2438 H2434 0.929 . S
C2438 C2440 1.378 . S
C2438 C2442 1.350 . S
C2439 C2442 1.463 . S
C2439 C2444 1.350 . S
C2439 N2447 1.427 . S
C2440 H2431 0.930 . S
C2440 C2438 1.378 . S
C2440 C2441 1.367 . S
C2441 C2440 1.367 . S
C2441 C2443 1.433 . S
C2442 C2438 1.350 . S
C2442 C2439 1.463 . S
C2442 N2446 1.427 . S
C2443 H2433 0.929 . S
C2443 C2441 1.433 . S
C2443 N2446 1.384 . S
C2444 H2435 0.929 . S
C2444 C2436 1.378 1_655 S
C2444 C2439 1.350 . S
C2445 H2432 0.929 . S
C2445 C2437 1.433 . S
C2445 N2447 1.384 . S
N2446 C2442 1.427 . S
N2446 C2443 1.384 . S
N2447 C2439 1.427 . S
N2447 C2445 1.384 . S
H2448 C2454 0.930 . S
H2449 C2458 0.930 . S
H2450 C2463 0.929 . S
H2451 C2461 0.929 . S
H2452 C2456 0.929 . S
H2453 C2462 0.929 . S
C2454 H2448 0.930 . S
C2454 C2455 1.367 . S
C2454 C2462 1.378 . S
C2455 C2454 1.367 . S
C2455 C2463 1.433 . S
C2456 H2452 0.929 . S
C2456 C2458 1.378 . S
C2456 C2460 1.350 . S
C2457 C2460 1.463 . S
C2457 C2462 1.350 . S
C2457 N2465 1.427 . S
C2458 H2449 0.930 . S
C2458 C2456 1.378 . S
C2458 C2459 1.367 . S
C2459 C2458 1.367 . S
C2459 C2461 1.433 . S
C2460 C2456 1.350 . S
C2460 C2457 1.463 . S
C2460 N2464 1.427 . S
C2461 H2451 0.929 . S
C2461 C2459 1.433 . S
C2461 N2464 1.384 . S
C2462 H2453 0.929 . S
C2462 C2454 1.378 . S
C2462 C2457 1.350 . S
C2463 H2450 0.929 . S
C2463 C2455 1.433 . S
C2463 N2465 1.384 . S
N2464 C2460 1.427 . S
N2464 C2461 1.384 . S
N2465 C2457 1.427 . S
N2465 C2463 1.384 . S
H2466 C2472 0.930 1_565 S
H2467 C2476 0.930 . S
H2468 C2481 0.929 . S
H2469 C2479 0.929 . S
H2470 C2474 0.929 . S
H2471 C2480 0.929 . S
C2472 H2466 0.930 1_545 S
C2472 C2473 1.367 . S
C2472 C2480 1.378 . S
C2473 C2472 1.367 . S
C2473 C2481 1.433 . S
C2474 H2470 0.929 . S
C2474 C2476 1.378 . S
C2474 C2478 1.350 . S
C2475 C2478 1.463 . S
C2475 C2480 1.350 . S
C2475 N2483 1.427 . S
C2476 H2467 0.930 . S
C2476 C2474 1.378 . S
C2476 C2477 1.367 . S
C2477 C2476 1.367 . S
C2477 C2479 1.433 . S
C2478 C2474 1.350 . S
C2478 C2475 1.463 . S
C2478 N2482 1.427 . S
C2479 H2469 0.929 . S
C2479 C2477 1.433 . S
C2479 N2482 1.384 . S
C2480 H2471 0.929 . S
C2480 C2472 1.378 . S
C2480 C2475 1.350 . S
C2481 H2468 0.929 . S
C2481 C2473 1.433 . S
C2481 N2483 1.384 . S
N2482 C2478 1.427 . S
N2482 C2479 1.384 . S
N2483 C2475 1.427 . S
N2483 C2481 1.384 . S
H2484 C2490 0.930 . S
H2485 C2494 0.930 . S
H2486 C2499 0.929 . S
H2487 C2497 0.929 . S
H2488 C2492 0.929 . S
H2489 C2498 0.929 . S
C2490 H2484 0.930 . S
C2490 C2491 1.367 . S
C2490 C2498 1.378 . S
C2491 C2490 1.367 . S
C2491 C2499 1.433 . S
C2492 H2488 0.929 . S
C2492 C2494 1.378 . S
C2492 C2496 1.350 . S
C2493 C2496 1.463 . S
C2493 C2498 1.350 . S
C2493 N2501 1.427 . S
C2494 H2485 0.930 . S
C2494 C2492 1.378 . S
C2494 C2495 1.367 . S
C2495 C2494 1.367 . S
C2495 C2497 1.433 . S
C2496 C2492 1.350 . S
C2496 C2493 1.463 . S
C2496 N2500 1.427 . S
C2497 H2487 0.929 . S
C2497 C2495 1.433 . S
C2497 N2500 1.384 . S
C2498 H2489 0.929 . S
C2498 C2490 1.378 . S
C2498 C2493 1.350 . S
C2499 H2486 0.929 . S
C2499 C2491 1.433 . S
C2499 N2501 1.384 . S
N2500 C2496 1.427 . S
N2500 C2497 1.384 . S
N2501 C2493 1.427 . S
N2501 C2499 1.384 . S
H2502 C2508 0.930 . S
H2503 C2512 0.930 . S
H2504 C2517 0.929 . S
H2505 C2515 0.929 . S
H2506 C2510 0.929 . S
H2507 C2516 0.929 . S
C2508 H2502 0.930 . S
C2508 C2509 1.367 . S
C2508 C2516 1.378 . S
C2509 C2508 1.367 . S
C2509 C2517 1.433 . S
C2510 H2506 0.929 . S
C2510 C2512 1.378 . S
C2510 C2514 1.350 . S
C2511 C2514 1.463 . S
C2511 C2516 1.350 . S
C2511 N2519 1.427 . S
C2512 H2503 0.930 . S
C2512 C2510 1.378 . S
C2512 C2513 1.367 . S
C2513 C2512 1.367 . S
C2513 C2515 1.433 . S
C2514 C2510 1.350 . S
C2514 C2511 1.463 . S
C2514 N2518 1.427 . S
C2515 H2505 0.929 . S
C2515 C2513 1.433 . S
C2515 N2518 1.384 . S
C2516 H2507 0.929 . S
C2516 C2508 1.378 . S
C2516 C2511 1.350 . S
C2517 H2504 0.929 . S
C2517 C2509 1.433 . S
C2517 N2519 1.384 . S
N2518 C2514 1.427 . S
N2518 C2515 1.384 . S
N2519 C2511 1.427 . S
N2519 C2517 1.384 . S
H2520 C2526 0.930 . S
H2521 C2530 0.930 1_545 S
H2522 C2535 0.929 . S
H2523 C2533 0.929 . S
H2524 C2528 0.929 . S
H2525 C2534 0.929 . S
C2526 H2520 0.930 . S
C2526 C2527 1.367 . S
C2526 C2534 1.378 . S
C2527 C2526 1.367 . S
C2527 C2535 1.433 . S
C2528 H2524 0.929 . S
C2528 C2530 1.378 . S
C2528 C2532 1.350 . S
C2529 C2532 1.463 . S
C2529 C2534 1.350 . S
C2529 N2537 1.427 . S
C2530 H2521 0.930 1_565 S
C2530 C2528 1.378 . S
C2530 C2531 1.367 . S
C2531 C2530 1.367 . S
C2531 C2533 1.433 . S
C2532 C2528 1.350 . S
C2532 C2529 1.463 . S
C2532 N2536 1.427 . S
C2533 H2523 0.929 . S
C2533 C2531 1.433 . S
C2533 N2536 1.384 . S
C2534 H2525 0.929 . S
C2534 C2526 1.378 . S
C2534 C2529 1.350 . S
C2535 H2522 0.929 . S
C2535 C2527 1.433 . S
C2535 N2537 1.384 . S
N2536 C2532 1.427 . S
N2536 C2533 1.384 . S
N2537 C2529 1.427 . S
N2537 C2535 1.384 . S
H2538 C2544 0.930 . S
H2539 C2548 0.930 . S
H2540 C2553 0.929 . S
H2541 C2551 0.929 . S
H2542 C2546 0.929 . S
H2543 C2552 0.929 . S
C2544 H2538 0.930 . S
C2544 C2545 1.367 . S
C2544 C2552 1.378 . S
C2545 C2544 1.367 . S
C2545 C2553 1.433 . S
C2546 H2542 0.929 . S
C2546 C2548 1.378 . S
C2546 C2550 1.350 . S
C2547 C2550 1.463 . S
C2547 C2552 1.350 . S
C2547 N2555 1.427 . S
C2548 H2539 0.930 . S
C2548 C2546 1.378 . S
C2548 C2549 1.367 . S
C2549 C2548 1.367 . S
C2549 C2551 1.433 1_455 S
C2550 C2546 1.350 . S
C2550 C2547 1.463 . S
C2550 N2554 1.427 . S
C2551 H2541 0.929 . S
C2551 C2549 1.433 1_655 S
C2551 N2554 1.384 1_655 S
C2552 H2543 0.929 . S
C2552 C2544 1.378 . S
C2552 C2547 1.350 . S
C2553 H2540 0.929 . S
C2553 C2545 1.433 . S
C2553 N2555 1.384 . S
N2554 C2550 1.427 . S
N2554 C2551 1.384 1_455 S
N2555 C2547 1.427 . S
N2555 C2553 1.384 . S
H2556 C2562 0.930 . S
H2557 C2566 0.930 . S
H2558 C2571 0.929 . S
H2559 C2569 0.929 . S
H2560 C2564 0.929 . S
H2561 C2570 0.929 . S
C2562 H2556 0.930 . S
C2562 C2563 1.367 . S
C2562 C2570 1.378 . S
C2563 C2562 1.367 . S
C2563 C2571 1.433 . S
C2564 H2560 0.929 . S
C2564 C2566 1.378 . S
C2564 C2568 1.350 . S
C2565 C2568 1.463 1_655 S
C2565 C2570 1.350 . S
C2565 N2573 1.427 . S
C2566 H2557 0.930 . S
C2566 C2564 1.378 . S
C2566 C2567 1.367 . S
C2567 C2566 1.367 . S
C2567 C2569 1.433 . S
C2568 C2564 1.350 . S
C2568 C2565 1.463 1_455 S
C2568 N2572 1.427 . S
C2569 H2559 0.929 . S
C2569 C2567 1.433 . S
C2569 N2572 1.384 . S
C2570 H2561 0.929 . S
C2570 C2562 1.378 . S
C2570 C2565 1.350 . S
C2571 H2558 0.929 . S
C2571 C2563 1.433 . S
C2571 N2573 1.384 . S
N2572 C2568 1.427 . S
N2572 C2569 1.384 . S
N2573 C2565 1.427 . S
N2573 C2571 1.384 . S
H2574 C2580 0.930 . S
H2575 C2584 0.930 . S
H2576 C2589 0.929 . S
H2577 C2587 0.929 . S
H2578 C2582 0.929 . S
H2579 C2588 0.929 . S
C2580 H2574 0.930 . S
C2580 C2581 1.367 . S
C2580 C2588 1.378 . S
C2581 C2580 1.367 . S
C2581 C2589 1.433 . S
C2582 H2578 0.929 . S
C2582 C2584 1.378 . S
C2582 C2586 1.350 . S
C2583 C2586 1.463 . S
C2583 C2588 1.350 . S
C2583 N2591 1.427 . S
C2584 H2575 0.930 . S
C2584 C2582 1.378 . S
C2584 C2585 1.367 . S
C2585 C2584 1.367 . S
C2585 C2587 1.433 . S
C2586 C2582 1.350 . S
C2586 C2583 1.463 . S
C2586 N2590 1.427 . S
C2587 H2577 0.929 . S
C2587 C2585 1.433 . S
C2587 N2590 1.384 . S
C2588 H2579 0.929 . S
C2588 C2580 1.378 . S
C2588 C2583 1.350 . S
C2589 H2576 0.929 . S
C2589 C2581 1.433 . S
C2589 N2591 1.384 . S
N2590 C2586 1.427 . S
N2590 C2587 1.384 . S
N2591 C2583 1.427 . S
N2591 C2589 1.384 . S
H2592 C2598 0.930 . S
H2593 C2602 0.930 . S
H2594 C2607 0.929 . S
H2595 C2605 0.929 . S
H2596 C2600 0.929 . S
H2597 C2606 0.929 . S
C2598 H2592 0.930 . S
C2598 C2599 1.367 . S
C2598 C2606 1.378 . S
C2599 C2598 1.367 . S
C2599 C2607 1.433 . S
C2600 H2596 0.929 . S
C2600 C2602 1.378 . S
C2600 C2604 1.350 . S
C2601 C2604 1.463 1_545 S
C2601 C2606 1.350 . S
C2601 N2609 1.427 . S
C2602 H2593 0.930 . S
C2602 C2600 1.378 . S
C2602 C2603 1.367 . S
C2603 C2602 1.367 . S
C2603 C2605 1.433 . S
C2604 C2600 1.350 . S
C2604 C2601 1.463 1_565 S
C2604 N2608 1.427 . S
C2605 H2595 0.929 . S
C2605 C2603 1.433 . S
C2605 N2608 1.384 . S
C2606 H2597 0.929 . S
C2606 C2598 1.378 . S
C2606 C2601 1.350 . S
C2607 H2594 0.929 . S
C2607 C2599 1.433 . S
C2607 N2609 1.384 . S
N2608 C2604 1.427 . S
N2608 C2605 1.384 . S
N2609 C2601 1.427 . S
N2609 C2607 1.384 . S
H2610 C2616 0.930 . S
H2611 C2620 0.930 . S
H2612 C2625 0.929 . S
H2613 C2623 0.929 . S
H2614 C2618 0.929 . S
H2615 C2624 0.929 . S
C2616 H2610 0.930 . S
C2616 C2617 1.367 . S
C2616 C2624 1.378 . S
C2617 C2616 1.367 . S
C2617 C2625 1.433 . S
C2618 H2614 0.929 . S
C2618 C2620 1.378 . S
C2618 C2622 1.350 . S
C2619 C2622 1.463 1_545 S
C2619 C2624 1.350 . S
C2619 N2627 1.427 . S
C2620 H2611 0.930 . S
C2620 C2618 1.378 . S
C2620 C2621 1.367 . S
C2621 C2620 1.367 . S
C2621 C2623 1.433 . S
C2622 C2618 1.350 . S
C2622 C2619 1.463 1_565 S
C2622 N2626 1.427 . S
C2623 H2613 0.929 . S
C2623 C2621 1.433 . S
C2623 N2626 1.384 . S
C2624 H2615 0.929 . S
C2624 C2616 1.378 . S
C2624 C2619 1.350 . S
C2625 H2612 0.929 . S
C2625 C2617 1.433 . S
C2625 N2627 1.384 . S
N2626 C2622 1.427 . S
N2626 C2623 1.384 . S
N2627 C2619 1.427 . S
N2627 C2625 1.384 . S
H2628 C2634 0.930 . S
H2629 C2638 0.930 . S
H2630 C2643 0.929 . S
H2631 C2641 0.929 . S
H2632 C2636 0.929 . S
H2633 C2642 0.929 . S
C2634 H2628 0.930 . S
C2634 C2635 1.367 . S
C2634 C2642 1.378 . S
C2635 C2634 1.367 . S
C2635 C2643 1.433 . S
C2636 H2632 0.929 . S
C2636 C2638 1.378 . S
C2636 C2640 1.350 . S
C2637 C2640 1.463 1_655 S
C2637 C2642 1.350 . S
C2637 N2645 1.427 . S
C2638 H2629 0.930 . S
C2638 C2636 1.378 . S
C2638 C2639 1.367 . S
C2639 C2638 1.367 . S
C2639 C2641 1.433 . S
C2640 C2636 1.350 . S
C2640 C2637 1.463 1_455 S
C2640 N2644 1.427 . S
C2641 H2631 0.929 . S
C2641 C2639 1.433 . S
C2641 N2644 1.384 . S
C2642 H2633 0.929 . S
C2642 C2634 1.378 . S
C2642 C2637 1.350 . S
C2643 H2630 0.929 . S
C2643 C2635 1.433 . S
C2643 N2645 1.384 . S
N2644 C2640 1.427 . S
N2644 C2641 1.384 . S
N2645 C2637 1.427 . S
N2645 C2643 1.384 . S
H2646 C2652 0.930 . S
H2647 C2656 0.930 . S
H2648 C2661 0.929 . S
H2649 C2659 0.929 . S
H2650 C2654 0.929 . S
H2651 C2660 0.929 . S
C2652 H2646 0.930 . S
C2652 C2653 1.367 . S
C2652 C2660 1.378 . S
C2653 C2652 1.367 . S
C2653 C2661 1.433 . S
C2654 H2650 0.929 . S
C2654 C2656 1.378 . S
C2654 C2658 1.350 . S
C2655 C2658 1.463 . S
C2655 C2660 1.350 . S
C2655 N2663 1.427 . S
C2656 H2647 0.930 . S
C2656 C2654 1.378 . S
C2656 C2657 1.367 . S
C2657 C2656 1.367 . S
C2657 C2659 1.433 . S
C2658 C2654 1.350 . S
C2658 C2655 1.463 . S
C2658 N2662 1.427 . S
C2659 H2649 0.929 . S
C2659 C2657 1.433 . S
C2659 N2662 1.384 . S
C2660 H2651 0.929 . S
C2660 C2652 1.378 . S
C2660 C2655 1.350 . S
C2661 H2648 0.929 . S
C2661 C2653 1.433 . S
C2661 N2663 1.384 . S
N2662 C2658 1.427 . S
N2662 C2659 1.384 . S
N2663 C2655 1.427 . S
N2663 C2661 1.384 . S
C727 C8 2.198 . S
C731 C156 2.113 . S
C745 C176 2.120 . S
C749 C28 2.195 . S
C763 C136 2.120 . S
C767 C48 2.198 . S
C781 C236 2.112 . S
C785 C68 2.202 . S
C799 C88 2.199 . S
C803 C196 2.117 . S
C817 C108 2.197 . S
C821 C216 2.121 . S
C835 C26 2.121 . S
C839 C139 2.197 . S
C853 C159 2.196 . S
C857 C46 2.122 . S
C871 C6 2.108 . S
C875 C179 2.201 . S
C889 C106 2.120 . S
C893 C199 2.195 . S
C907 C219 2.202 . S
C911 C66 2.111 . S
C925 C239 2.201 . S
C929 C86 2.110 . S
C943 C248 2.197 . S
C947 C396 2.121 . S
C961 C416 2.115 . S
C965 C268 2.201 . S
C979 C376 2.118 . S
C983 C288 2.199 . S
C997 C308 2.195 . S
C1001 C476 2.121 . S
C1015 C436 2.109 . S
C1019 C328 2.202 . S
C1033 C348 2.198 . S
C1037 C456 2.120 . S
C1051 C379 2.195 . S
C1055 C266 2.119 . S
C1069 C286 2.113 . S
C1073 C399 2.202 . S
C1087 C419 2.198 . S
C1091 C246 2.111 . S
C1105 C346 2.110 . S
C1109 C439 2.200 . S
C1123 C306 2.114 . S
C1127 C459 2.197 . S
C1141 C479 2.197 . S
C1145 C326 2.114 . S
C1159 C488 2.200 . S
C1163 C636 2.110 . S
C1177 C508 2.198 . S
C1181 C656 2.120 . S
C1195 C616 2.111 . S
C1199 C528 2.199 . S
C1213 C716 2.117 . S
C1217 C548 2.196 . S
C1231 C568 2.199 . S
C1235 C676 2.110 . S
C1249 C696 2.119 . S
C1253 C588 2.196 . S
C1267 C506 2.111 . S
C1271 C619 2.199 . S
C1285 C639 2.195 . S
C1289 C526 2.119 . S
C1303 C486 2.108 . S
C1307 C659 2.202 . S
C1321 C679 2.197 . S
C1325 C586 2.121 . S
C1339 C699 2.195 . S
C1343 C546 2.121 . S
C1357 C719 2.202 . S
C1361 C566 2.109 . S
C1375 C16 1.195 . S
C1379 C366 1.195 . S
C1393 C36 1.198 . S
C1397 C386 1.198 . S
C1411 C406 1.210 . S
C1415 C56 1.210 . S
C1429 C666 1.208 . S
C1433 C76 1.208 . S
C1447 C686 1.195 . S
C1451 C96 1.195 . S
C1465 C706 1.197 . S
C1469 C116 1.197 . S
C1483 C126 1.194 . S
C1487 C496 1.194 . S
C1501 C516 1.204 . S
C1505 C146 1.204 . S
C1519 C166 1.197 . S
C1523 C536 1.197 . S
C1537 C186 1.212 . S
C1541 C316 1.212 . S
C1555 C206 1.204 . S
C1559 C336 1.204 . S
C1573 C226 1.199 . S
C1577 C356 1.199 . S
C1591 C256 1.198 . S
C1595 C606 1.198 . S
C1609 C626 1.211 . S
C1613 C276 1.211 . S
C1627 C296 1.196 . S
C1631 C646 1.196 . S
C1645 C556 1.206 . S
C1649 C426 1.206 . S
C1663 C446 1.212 . S
C1667 C576 1.212 . S
C1681 C596 1.213 . S
C1685 C466 1.213 . S
C1699 C9 1.473 1_556 S
C1703 C329 1.485 . S
C1717 C29 1.476 1_556 S
C1721 C349 1.488 . S
C1735 C309 1.488 . S
C1739 C49 1.486 1_556 S
C1753 C69 1.484 . S
C1757 C529 1.489 . S
C1771 C489 1.489 . S
C1775 C89 1.480 . S
C1789 C109 1.484 . S
C1793 C509 1.488 . S
C1807 C681 1.481 . S
C1811 C121 1.472 1_554 S
C1825 C141 1.473 1_554 S
C1829 C701 1.477 . S
C1843 C661 1.472 . S
C1847 C161 1.482 1_554 S
C1861 C181 1.473 . S
C1865 C401 1.477 . S
C1879 C201 1.488 . S
C1883 C361 1.485 . S
C1897 C221 1.482 . S
C1901 C381 1.489 . S
C1915 C569 1.473 . S
C1919 C249 1.486 . S
C1933 C269 1.489 . S
C1937 C589 1.482 . S
C1951 C289 1.479 . S
C1955 C549 1.472 . S
C1969 C641 1.482 . S
C1973 C421 1.489 . S
C1987 C601 1.474 . S
C1991 C441 1.487 . S
C2005 C621 1.478 . S
C2009 C461 1.472 . S
C2023 C61 1.393 . S
C2027 C1 1.394 . S
C2041 C21 1.386 . S
C2045 C81 1.389 . S
C2059 C41 1.388 . S
C2063 C101 1.391 . S
C2077 C189 1.385 . S
C2081 C129 1.386 . S
C2095 C149 1.393 . S
C2099 C209 1.394 . S
C2113 C229 1.392 . S
C2117 C169 1.394 . S
C2131 C301 1.390 . S
C2135 C241 1.388 . S
C2149 C261 1.393 . S
C2153 C321 1.390 . S
C2167 C281 1.390 . S
C2171 C341 1.387 . S
C2185 C369 1.388 . S
C2189 C429 1.391 . S
C2203 C389 1.394 . S
C2207 C449 1.392 . S
C2221 C409 1.392 . S
C2225 C469 1.394 . S
C2239 C481 1.389 . S
C2243 C541 1.386 . S
C2257 C561 1.389 . S
C2261 C501 1.386 . S
C2275 C581 1.391 . S
C2279 C521 1.393 . S
C2293 C609 1.386 . S
C2297 C669 1.384 . S
C2311 C689 1.387 . S
C2315 C629 1.385 . S
C2329 C649 1.394 . S
C2333 C709 1.394 . S
C2347 C19 1.393 . S
C2351 C599 1.400 . S
C2365 C559 1.407 . S
C2369 C39 1.388 1_565 S
C2383 C59 1.394 1_455 S
C2387 C579 1.404 . S
C2401 C279 1.408 . S
C2405 C79 1.387 . S
C2419 C99 1.397 1_545 S
C2423 C299 1.401 . S
C2437 C119 1.391 1_655 S
C2441 C259 1.407 . S
C2455 C468 1.389 . S
C2459 C128 1.405 . S
C2473 C148 1.396 1_545 S
C2477 C428 1.403 . S
C2491 C448 1.396 . S
C2495 C168 1.397 1_655 S
C2509 C188 1.405 . S
C2513 C628 1.393 . S
C2527 C648 1.404 . S
C2531 C208 1.394 1_565 S
C2545 C608 1.386 . S
C2549 C228 1.409 1_455 S
C2563 C319 1.405 . S
C2567 C519 1.389 . S
C2581 C339 1.409 . S
C2585 C539 1.386 . S
C2599 C359 1.393 . S
C2603 C499 1.405 . S
C2617 C368 1.404 . S
C2621 C708 1.394 . S
C2635 C388 1.394 . S
C2639 C668 1.400 . S
C2653 C688 1.408 . S
C2657 C408 1.388 . S
