# Generated by pormake.
# Topology dia, (4)-cn, num edge types: 1
# Building blocks:
#     Node 0, Type 0, BuildingBlock: NAHDIM_clean_sbu_0, # of connection points: 4
#     Node 1, Type 0, BuildingBlock: NAHDIM_clean_sbu_0, # of connection points: 4
#     Node 2, Type 0, BuildingBlock: NAHDIM_clean_sbu_0, # of connection points: 4
#     Node 3, Type 0, BuildingBlock: NAHDIM_clean_sbu_0, # of connection points: 4
#     Node 4, Type 0, BuildingBlock: NAHDIM_clean_sbu_0, # of connection points: 4
#     Node 5, Type 0, BuildingBlock: NAHDIM_clean_sbu_0, # of connection points: 4
#     Node 6, Type 0, BuildingBlock: NAHDIM_clean_sbu_0, # of connection points: 4
#     Node 7, Type 0, BuildingBlock: NAHDIM_clean_sbu_0, # of connection points: 4
#     Edge 8, Type (0, 0), BuildingBlock: FUNLAD_clean_linker_0, # of connection points: 2
#     Edge 9, Type (0, 0), BuildingBlock: FUNLAD_clean_linker_0, # of connection points: 2
#     Edge 10, Type (0, 0), BuildingBlock: FUNLAD_clean_linker_0, # of connection points: 2
#     Edge 11, Type (0, 0), BuildingBlock: FUNLAD_clean_linker_0, # of connection points: 2
#     Edge 12, Type (0, 0), BuildingBlock: FUNLAD_clean_linker_0, # of connection points: 2
#     Edge 13, Type (0, 0), BuildingBlock: FUNLAD_clean_linker_0, # of connection points: 2
#     Edge 14, Type (0, 0), BuildingBlock: FUNLAD_clean_linker_0, # of connection points: 2
#     Edge 15, Type (0, 0), BuildingBlock: FUNLAD_clean_linker_0, # of connection points: 2
#     Edge 16, Type (0, 0), BuildingBlock: FUNLAD_clean_linker_0, # of connection points: 2
#     Edge 17, Type (0, 0), BuildingBlock: FUNLAD_clean_linker_0, # of connection points: 2
#     Edge 18, Type (0, 0), BuildingBlock: FUNLAD_clean_linker_0, # of connection points: 2
#     Edge 19, Type (0, 0), BuildingBlock: FUNLAD_clean_linker_0, # of connection points: 2
#     Edge 20, Type (0, 0), BuildingBlock: FUNLAD_clean_linker_0, # of connection points: 2
#     Edge 21, Type (0, 0), BuildingBlock: FUNLAD_clean_linker_0, # of connection points: 2
#     Edge 22, Type (0, 0), BuildingBlock: FUNLAD_clean_linker_0, # of connection points: 2
#     Edge 23, Type (0, 0), BuildingBlock: FUNLAD_clean_linker_0, # of connection points: 2
# Relax obj value: 0.005
# Max RMSD: 0.034
# Mean RMSD: 0.034
data_MOF--net-dia--node1-NAHDIM_clean_sbu_0--edge1-FUNLAD_clean_linker_0
_symmetry_space_group_name_H-M    P1
_symmetry_Int_Tables_number       1
_symmetry_cell_setting            triclinic
loop_
_symmetry_equiv_pos_as_xyz
'x, y, z'
_cell_length_a     43.625307
_cell_length_b     39.690232
_cell_length_c     39.667061
_cell_angle_alpha  88.814255
_cell_angle_beta   93.510981
_cell_angle_gamma 93.480754
loop_
_atom_site_label
_atom_site_type_symbol
_atom_site_fract_x
_atom_site_fract_y
_atom_site_fract_z
_atom_type_partial_charge
C0 C 0.07526 0.14638 0.6715 0.0
O1 O 0.06966 0.11349 0.6708 0.0
O2 O 0.14931 0.1024 0.65741 0.0
Zn3 Zn 0.1226 0.13175 0.62726 0.0
O4 O 0.09417 0.10222 0.59702 0.0
C5 C 0.16903 0.15284 0.58067 0.0
O6 O 0.17141 0.1202 0.57795 0.0
O7 O 0.09716 0.15971 0.65514 0.0
C8 C 0.08137 0.11269 0.56947 0.0
O9 O 0.0868 0.14422 0.55976 0.0
C10 C 0.1559 0.0736 0.64742 0.0
O11 O 0.14476 0.06322 0.61766 0.0
O12 O 0.14952 0.16339 0.59986 0.0
C13 C 0.91459 0.31194 0.84586 0.0
O14 O 0.91469 0.30875 0.87889 0.0
O15 O 0.85203 0.33839 0.89133 0.0
Zn16 Zn 0.87813 0.36658 0.85977 0.0
O17 O 0.91032 0.39528 0.88663 0.0
C18 C 0.82903 0.41001 0.84313 0.0
O19 O 0.82582 0.40669 0.87577 0.0
O20 O 0.89999 0.33542 0.8312 0.0
C21 C 0.91434 0.42716 0.88364 0.0
O22 O 0.8966 0.44351 0.86182 0.0
C23 C 0.85988 0.33424 0.92247 0.0
O24 O 0.88583 0.34887 0.93489 0.0
O25 O 0.85044 0.39526 0.83016 0.0
C26 C 0.57478 0.15203 0.15952 0.0
O27 O 0.56278 0.12196 0.15125 0.0
O28 O 0.65042 0.10317 0.1552 0.0
Zn29 Zn 0.62505 0.13131 0.12246 0.0
O30 O 0.59555 0.10192 0.09304 0.0
C31 C 0.68051 0.1546 0.08985 0.0
O32 O 0.69221 0.12865 0.10594 0.0
O33 O 0.60115 0.1616 0.14969 0.0
C34 C 0.60308 0.09042 0.06524 0.0
O35 O 0.63099 0.09755 0.05543 0.0
C36 C 0.65387 0.07188 0.15177 0.0
O37 O 0.6404 0.05624 0.12549 0.0
O38 O 0.65253 0.16044 0.09319 0.0
C39 C 0.89708 0.80863 0.34006 0.0
O40 O 0.87105 0.79285 0.34788 0.0
O41 O 0.84509 0.83484 0.39941 0.0
Zn42 Zn 0.87176 0.86567 0.37079 0.0
O43 O 0.89513 0.90126 0.3992 0.0
C44 C 0.82331 0.90593 0.34516 0.0
O45 O 0.82004 0.90905 0.37764 0.0
O46 O 0.90219 0.83951 0.34755 0.0
C47 C 0.90662 0.92775 0.3851 0.0
O48 O 0.90264 0.93151 0.35217 0.0
C49 C 0.84964 0.83181 0.43125 0.0
O50 O 0.87304 0.84888 0.44653 0.0
O51 O 0.8444 0.88819 0.33572 0.0
C52 C 0.06812 0.64851 0.17192 0.0
O53 O 0.06506 0.61575 0.16732 0.0
O54 O 0.14208 0.61037 0.16045 0.0
Zn55 Zn 0.11673 0.6403 0.12944 0.0
O56 O 0.08884 0.61378 0.09579 0.0
C57 C 0.17097 0.6643 0.09638 0.0
O58 O 0.17935 0.63379 0.10445 0.0
O59 O 0.08962 0.66558 0.15797 0.0
C60 C 0.09779 0.59692 0.07172 0.0
O61 O 0.12739 0.5954 0.06804 0.0
C62 C 0.1402 0.57829 0.16056 0.0
O63 O 0.12047 0.56233 0.13925 0.0
O64 O 0.14492 0.67305 0.10464 0.0
C65 C 0.41881 0.32498 0.332 0.0
O66 O 0.42966 0.33042 0.36317 0.0
O67 O 0.34664 0.33482 0.38131 0.0
Zn68 Zn 0.37191 0.36655 0.35223 0.0
O69 O 0.40358 0.39483 0.38041 0.0
C70 C 0.31939 0.40615 0.33444 0.0
O71 O 0.31286 0.39942 0.36586 0.0
O72 O 0.39412 0.33817 0.32139 0.0
C73 C 0.39983 0.42436 0.39066 0.0
O74 O 0.37362 0.43817 0.38315 0.0
C75 C 0.34258 0.33937 0.41231 0.0
O76 O 0.3555 0.36635 0.42721 0.0
O77 O 0.34367 0.39532 0.32347 0.0
C78 C 0.42206 0.82493 0.84466 0.0
O79 O 0.42785 0.82668 0.8775 0.0
O80 O 0.35054 0.83431 0.89065 0.0
Zn81 Zn 0.37452 0.86694 0.86089 0.0
O82 O 0.40393 0.89746 0.88946 0.0
C83 C 0.31971 0.90246 0.84222 0.0
O84 O 0.31198 0.89205 0.87235 0.0
O85 O 0.39961 0.84034 0.83111 0.0
C86 C 0.39793 0.92699 0.89784 0.0
O87 O 0.37133 0.93872 0.88778 0.0
C88 C 0.34528 0.84115 0.92086 0.0
O89 O 0.35584 0.87027 0.93337 0.0
O90 O 0.34533 0.89466 0.83183 0.0
C91 C 0.60264 0.66269 0.69103 0.0
O92 O 0.62639 0.64808 0.7055 0.0
O93 O 0.6446 0.59717 0.65986 0.0
Zn94 Zn 0.61879 0.62835 0.6308 0.0
O95 O 0.58751 0.60124 0.60132 0.0
C96 C 0.66961 0.67412 0.61674 0.0
O97 O 0.6738 0.67203 0.64979 0.0
O98 O 0.59562 0.65798 0.65983 0.0
C99 C 0.59271 0.59082 0.57224 0.0
O100 O 0.61993 0.59744 0.5604 0.0
C101 C 0.66638 0.58276 0.64723 0.0
O102 O 0.67113 0.58781 0.61508 0.0
O103 O 0.6468 0.65761 0.60226 0.0
C104 C 0.31762 0.3197 0.46514 0.0
C105 C 0.32299 0.31468 0.43109 0.0
C106 C 0.29884 0.29646 0.48267 0.0
C107 C 0.28486 0.26776 0.46638 0.0
C108 C 0.29067 0.26255 0.43253 0.0
C109 C 0.30938 0.28577 0.41502 0.0
C110 C 0.26482 0.24224 0.48392 0.0
C111 C 0.24945 0.24899 0.51121 0.0
C112 C 0.22886 0.22361 0.52823 0.0
C113 C 0.20611 0.235 0.54803 0.0
C114 C 0.18651 0.21207 0.5648 0.0
C115 C 0.18937 0.17713 0.56234 0.0
H116 H 0.24975 0.17871 0.51197 0.0
C117 C 0.21228 0.16567 0.54276 0.0
C118 C 0.23191 0.18861 0.526 0.0
H119 H 0.21532 0.13893 0.54063 0.0
H120 H 0.32798 0.34155 0.47835 0.0
H121 H 0.29581 0.30089 0.50903 0.0
H122 H 0.28047 0.24054 0.41944 0.0
H123 H 0.31314 0.28101 0.38885 0.0
H124 H 0.26142 0.21752 0.47262 0.0
H125 H 0.2506 0.27456 0.5206 0.0
H126 H 0.20338 0.26178 0.55044 0.0
H127 H 0.16919 0.22178 0.57979 0.0
C128 C 0.68312 0.55761 0.70345 0.0
C129 C 0.68689 0.56162 0.66863 0.0
C130 C 0.70309 0.5384 0.72375 0.0
C131 C 0.72721 0.52255 0.70957 0.0
C132 C 0.73094 0.52672 0.67479 0.0
C133 C 0.711 0.54591 0.65453 0.0
C134 C 0.7496 0.5025 0.73007 0.0
C135 C 0.74422 0.48873 0.76068 0.0
C136 C 0.76676 0.46878 0.78108 0.0
C137 C 0.76381 0.46541 0.81605 0.0
C138 C 0.78414 0.44657 0.83621 0.0
C139 C 0.80781 0.43039 0.82178 0.0
H140 H 0.79292 0.45324 0.73962 0.0
C141 C 0.81068 0.43347 0.78673 0.0
C142 C 0.79034 0.45233 0.76656 0.0
H143 H 0.82848 0.42106 0.77476 0.0
H144 H 0.66496 0.56966 0.71518 0.0
H145 H 0.69983 0.53682 0.75054 0.0
H146 H 0.74939 0.51505 0.66317 0.0
H147 H 0.71465 0.54856 0.62782 0.0
H148 H 0.7713 0.4989 0.71907 0.0
H149 H 0.7226 0.49238 0.77182 0.0
H150 H 0.74576 0.47754 0.82792 0.0
H151 H 0.78118 0.44463 0.8631 0.0
C152 C 0.55053 0.06228 0.05427 0.0
C153 C 0.58071 0.06901 0.04435 0.0
C154 C 0.52935 0.04219 0.03449 0.0
C155 C 0.53788 0.0285 0.00422 0.0
C156 C 0.56816 0.03479 0.99464 0.0
C157 C 0.58932 0.05497 0.01436 0.0
C158 C 0.51615 0.00677 0.98262 0.0
C159 C 0.48538 0.00877 0.98169 0.0
C160 C 0.46361 0.98737 0.95981 0.0
C161 C 0.43456 -0.00091 0.9503 0.0
C162 C 0.4133 0.9796 0.93003 0.0
C163 C 0.42052 0.94772 0.91913 0.0
H164 H 0.49249 0.94486 0.95685 0.0
C165 C 0.44945 0.93575 0.929 0.0
C166 C 0.47075 0.9553 0.94918 0.0
H167 H 0.45564 0.91116 0.92128 0.0
H168 H 0.54322 0.07246 0.0774 0.0
H169 H 0.50655 0.03704 0.04337 0.0
H170 H 0.57544 0.02428 0.97164 0.0
H171 H 0.61244 0.0595 0.00608 0.0
H172 H 0.52608 0.98987 0.96568 0.0
H173 H 0.47565 0.02799 0.99617 0.0
H174 H 0.42834 0.02354 0.95839 0.0
H175 H 0.39116 0.98951 0.92304 0.0
C176 C 0.91502 0.7565 0.31469 0.0
C177 C 0.92 0.79092 0.32215 0.0
C178 C 0.93645 0.73993 0.29729 0.0
C179 C 0.96329 0.75756 0.28669 0.0
C180 C 0.96846 0.79179 0.29475 0.0
C181 C 0.94707 0.80833 0.31218 0.0
C182 C 0.98669 0.74131 0.26773 0.0
C183 C 0.98094 0.71256 0.25035 0.0
C184 C 0.00425 0.69686 0.2309 0.0
C185 C 0.0006 0.66213 0.22468 0.0
C186 C 0.02151 0.64641 0.20586 0.0
C187 C 0.04641 0.66519 0.19245 0.0
H188 H 0.03227 0.74275 0.22063 0.0
C189 C 0.05001 0.70003 0.19842 0.0
C190 C 0.02914 0.71574 0.21739 0.0
H191 H 0.06882 0.71527 0.18821 0.0
H192 H 0.89456 0.74225 0.32235 0.0
H193 H 0.93192 0.71329 0.29275 0.0
H194 H 0.98902 0.80597 0.28721 0.0
H195 H 0.95172 0.83483 0.31764 0.0
H196 H 0.0094 0.7541 0.26776 0.0
H197 H 0.95838 0.69948 0.25033 0.0
H198 H 0.98151 0.64702 0.23452 0.0
H199 H 0.01796 0.61955 0.20162 0.0
C200 C 0.30679 0.93444 0.78851 0.0
C201 C 0.29933 0.92409 0.82126 0.0
C202 C 0.28766 0.95523 0.76898 0.0
C203 C 0.26058 0.96605 0.78179 0.0
C204 C 0.25337 0.95602 0.81464 0.0
C205 C 0.2724 0.93512 0.8341 0.0
C206 C 0.23984 0.98857 0.76211 0.0
C207 C 0.23726 0.98962 0.72809 0.0
C208 C 0.21601 0.01151 0.70834 0.0
C209 C 0.20549 0.00192 0.67559 0.0
C210 C 0.18577 0.02192 0.65599 0.0
C211 C 0.17641 0.05227 0.66856 0.0
H212 H 0.21514 0.0508 0.74562 0.0
C213 C 0.18719 0.06213 0.70121 0.0
C214 C 0.20681 0.042 0.72091 0.0
H215 H 0.1806 0.0855 0.71153 0.0
H216 H 0.32751 0.92663 0.77798 0.0
H217 H 0.29454 0.96325 0.74418 0.0
H218 H 0.23282 0.96422 0.82525 0.0
H219 H 0.26605 0.9278 0.85931 0.0
H220 H 0.22501 0.00329 0.77626 0.0
H221 H 0.24988 0.97246 0.71398 0.0
H222 H 0.21241 0.97872 0.66517 0.0
H223 H 0.17805 0.01365 0.63087 0.0
C224 C 0.94165 0.48103 0.90402 0.0
C225 C 0.93884 0.44556 0.90466 0.0
C226 C 0.9646 0.49835 0.92418 0.0
C227 C 0.98523 0.48051 0.94543 0.0
C228 C 0.9828 0.4451 0.94551 0.0
C229 C 0.95973 0.42779 0.92557 0.0
C230 C 0.00985 0.49797 0.9673 0.0
C231 C 0.00703 0.52864 0.98028 0.0
C232 C 0.03089 0.54553 0.0035 0.0
C233 C 0.02178 0.56841 0.02689 0.0
C234 C 0.04347 0.58487 0.04918 0.0
C235 C 0.0749 0.57921 0.04819 0.0
H236 H 0.07036 0.52325 0.98396 0.0
C237 C 0.08414 0.55671 0.02441 0.0
C238 C 0.06237 0.53999 0.00229 0.0
H239 H 0.1082 0.55196 0.02287 0.0
H240 H 0.92609 0.49547 0.88799 0.0
H241 H 0.96634 0.52565 0.92266 0.0
H242 H 0.99856 0.43076 0.96142 0.0
H243 H 0.95834 0.40044 0.92651 0.0
H244 H 0.02995 0.48408 0.9747 0.0
H245 H 0.9856 0.54101 0.97558 0.0
H246 H 0.99772 0.57336 0.02816 0.0
H247 H 0.03557 0.60221 0.06704 0.0
C248 C 0.46363 0.2914 0.32028 0.0
C249 C 0.43494 0.30348 0.30966 0.0
C250 C 0.47883 0.27094 0.2993 0.0
C251 C 0.46564 0.26217 0.26718 0.0
C252 C 0.43679 0.27386 0.25678 0.0
C253 C 0.42168 0.29451 0.27766 0.0
C254 C 0.48081 0.23994 0.24446 0.0
C255 C 0.51156 0.23823 0.24472 0.0
C256 C 0.52686 0.21608 0.22206 0.0
C257 C 0.55707 0.22513 0.21363 0.0
C258 C 0.57249 0.20457 0.19298 0.0
C259 C 0.55816 0.17422 0.18069 0.0
H260 H 0.48957 0.17732 0.2166 0.0
C261 C 0.528 0.16497 0.18936 0.0
C262 C 0.51249 0.18566 0.20983 0.0
H263 H 0.51638 0.14163 0.1805 0.0
H264 H 0.47438 0.29763 0.34489 0.0
H265 H 0.50059 0.26155 0.30864 0.0
H266 H 0.42599 0.26721 0.2323 0.0
H267 H 0.3995 0.30323 0.26879 0.0
H268 H 0.46616 0.2259 0.22586 0.0
H269 H 0.52631 0.25484 0.26098 0.0
H270 H 0.56876 0.24827 0.22295 0.0
H271 H 0.59578 0.21235 0.18694 0.0
C272 C 0.83214 0.80786 0.48633 0.0
C273 C 0.82815 0.81011 0.45095 0.0
C274 C 0.81135 0.78811 0.50498 0.0
C275 C 0.78596 0.77029 0.48861 0.0
C276 C 0.78244 0.77197 0.45322 0.0
C277 C 0.80318 0.79175 0.43458 0.0
C278 C 0.76308 0.74915 0.50734 0.0
C279 C 0.75747 0.75407 0.53987 0.0
C280 C 0.73448 0.73318 0.55868 0.0
C281 C 0.73761 0.73236 0.59412 0.0
C282 C 0.71656 0.71325 0.61293 0.0
C283 C 0.69163 0.69471 0.59671 0.0
H284 H 0.7053 0.71575 0.51524 0.0
C285 C 0.68813 0.6959 0.56125 0.0
C286 C 0.70925 0.71498 0.54241 0.0
H287 H 0.66903 0.68211 0.54798 0.0
H288 H 0.85131 0.82141 0.49971 0.0
H289 H 0.81562 0.7866 0.5321 0.0
H290 H 0.76332 0.75824 0.4399 0.0
H291 H 0.7995 0.79276 0.40733 0.0
H292 H 0.75011 0.72927 0.49333 0.0
H293 H 0.77043 0.77402 0.5538 0.0
H294 H 0.75662 0.74635 0.60735 0.0
H295 H 0.71989 0.71301 0.64021 0.0
C296 C 0.1627 0.52432 0.1808 0.0
C297 C 0.1604 0.55922 0.18435 0.0
C298 C 0.18226 0.50649 0.20294 0.0
C299 C 0.1998 0.52322 0.22919 0.0
C300 C 0.19696 0.5579 0.23317 0.0
C301 C 0.1777 0.5758 0.21082 0.0
C302 C 0.22065 0.50511 0.2533 0.0
C303 C 0.23564 0.47824 0.24455 0.0
C304 C 0.25721 0.46066 0.26829 0.0
C305 C 0.28151 0.44441 0.25533 0.0
C306 C 0.30201 0.42718 0.27685 0.0
C307 C 0.29828 0.42533 0.3118 0.0
H308 H 0.23447 0.47029 0.31407 0.0
C309 C 0.27376 0.44131 0.32478 0.0
C310 C 0.25344 0.45885 0.30328 0.0
H311 H 0.27015 0.44019 0.35156 0.0
H312 H 0.14955 0.51077 0.16079 0.0
H313 H 0.18322 0.47957 0.19972 0.0
H314 H 0.21 0.57131 0.25338 0.0
H315 H 0.17629 0.60263 0.21441 0.0
H316 H 0.22522 0.51561 0.2783 0.0
H317 H 0.23347 0.46993 0.21854 0.0
H318 H 0.28477 0.44519 0.22845 0.0
H319 H 0.32054 0.41494 0.266 0.0
C320 C 0.8122 0.29743 0.93131 0.0
C321 C 0.84035 0.31249 0.94428 0.0
C322 C 0.79397 0.27651 0.95178 0.0
C323 C 0.80344 0.27032 0.9858 0.0
C324 C 0.83168 0.28514 -0.00138 0.0
C325 C 0.84988 0.30614 0.97818 0.0
C326 C 0.78512 0.24764 0.00824 0.0
C327 C 0.75442 0.24165 0.00364 0.0
C328 C 0.73613 0.21911 0.02623 0.0
C329 C 0.70476 0.22418 0.02843 0.0
C330 C 0.68672 0.20336 0.04918 0.0
C331 C 0.69961 0.17671 0.06791 0.0
H332 H 0.77281 0.18672 0.04282 0.0
C333 C 0.73091 0.17128 0.06533 0.0
C334 C 0.74898 0.19218 0.04468 0.0
H335 H 0.74149 0.15078 0.07919 0.0
H336 H 0.80431 0.30159 0.90521 0.0
H337 H 0.77285 0.26474 0.94059 0.0
H338 H 0.83967 0.28057 0.02463 0.0
H339 H 0.8715 0.3172 0.98894 0.0
H340 H 0.79727 0.23687 0.03021 0.0
H341 H 0.74181 0.25501 0.98362 0.0
H342 H 0.6942 0.2445 0.01424 0.0
H343 H 0.66263 0.20813 0.05042 0.0
C344 C 0.7795 0.94253 0.33041 0.0
C345 C 0.80284 0.92295 0.31996 0.0
C346 C 0.76024 0.95877 0.30666 0.0
C347 C 0.76406 0.95597 0.27186 0.0
C348 C 0.78706 0.93593 0.26145 0.0
C349 C 0.80634 0.91971 0.2852 0.0
C350 C 0.7441 0.97281 0.24574 0.0
C351 C 0.72949 0.00089 0.25154 0.0
C352 C 0.71012 0.01835 0.22533 0.0
C353 C 0.70538 0.05267 0.2293 0.0
C354 C 0.68721 0.07006 0.2054 0.0
C355 C 0.67309 0.05339 0.17708 0.0
H356 H 0.69791 0.97484 0.19371 0.0
C357 C 0.67745 0.01892 0.17328 0.0
C358 C 0.69569 0.00152 0.19718 0.0
H359 H 0.66667 0.00525 0.15191 0.0
H360 H 0.77597 0.94526 0.35699 0.0
H361 H 0.74213 0.973 0.31576 0.0
H362 H 0.79033 0.93305 0.23483 0.0
H363 H 0.824 0.90467 0.27628 0.0
H364 H 0.74291 0.96267 0.22046 0.0
H365 H 0.7331 0.01284 0.27596 0.0
H366 H 0.71597 0.06619 0.25087 0.0
H367 H 0.68423 0.09658 0.2092 0.0
C368 C 0.93135 0.94841 0.44017 0.0
C369 C 0.92503 0.95353 0.40533 0.0
C370 C 0.94954 0.97229 0.45904 0.0
C371 C 0.96192 0.0018 0.44341 0.0
C372 C 0.95489 0.00731 0.40881 0.0
C373 C 0.93681 0.98337 0.38991 0.0
C374 C 0.98173 0.0276 0.46245 0.0
C375 C -0.00018 0.01996 0.49001 0.0
C376 C 0.02041 0.04484 0.50958 0.0
C377 C 0.03407 0.03422 0.54068 0.0
C378 C 0.0538 0.0562 0.56005 0.0
C379 C 0.06046 0.08948 0.54879 0.0
H380 H 0.01795 0.08753 0.47416 0.0
C381 C 0.047 0.10022 0.51764 0.0
C382 C 0.02726 0.07818 0.49817 0.0
H383 H 0.05182 0.12565 0.50814 0.0
H384 H 0.92235 0.92585 0.4529 0.0
H385 H 0.95347 0.96766 0.48588 0.0
H386 H 0.96383 0.02999 0.39622 0.0
H387 H 0.93221 0.98822 0.36316 0.0
H388 H 0.98187 0.05322 0.45249 0.0
H389 H -0.00015 0.99389 0.49884 0.0
H390 H 0.02941 0.00872 0.55014 0.0
H391 H 0.0638 0.04704 0.58392 0.0
C392 C 0.93431 0.29395 0.79132 0.0
C393 C 0.93175 0.28884 0.82623 0.0
C394 C 0.95116 0.27252 0.77306 0.0
C395 C 0.96587 0.24553 0.7894 0.0
C396 C 0.96266 0.24 0.82408 0.0
C397 C 0.94598 0.26152 0.84237 0.0
C398 C 0.9842 0.22231 0.77104 0.0
C399 C 0.99891 0.23168 0.74315 0.0
C400 C 0.01835 0.20903 0.72549 0.0
C401 C 0.04175 0.22351 0.70613 0.0
C402 C 0.06041 0.20319 0.68891 0.0
C403 C 0.05584 0.16783 0.69034 0.0
H404 H 0.99521 0.1615 0.74056 0.0
C405 C 0.0322 0.15328 0.70941 0.0
C406 C 0.0136 0.17363 0.72677 0.0
H407 H 0.02789 0.12614 0.7108 0.0
H408 H 0.92339 0.3146 0.77807 0.0
H409 H 0.95226 0.27696 0.74614 0.0
H410 H 0.97348 0.21921 0.83722 0.0
H411 H 0.94429 0.25672 0.86919 0.0
H412 H 0.98724 0.19746 0.78226 0.0
H413 H 0.99829 0.25759 0.7339 0.0
H414 H 0.04576 0.2507 0.70447 0.0
H415 H 0.0783 0.21526 0.67429 0.0
C416 C 0.5583 0.6994 0.6955 0.0
C417 C 0.58372 0.68374 0.71096 0.0
C418 C 0.54001 0.71866 0.71441 0.0
C419 C 0.54662 0.72252 0.74937 0.0
C420 C 0.5724 0.70741 0.76461 0.0
C421 C 0.59068 0.68815 0.7457 0.0
C422 C 0.52775 0.74252 0.77074 0.0
C423 C 0.49832 0.74948 0.76239 0.0
C424 C 0.4794 0.76894 0.78416 0.0
C425 C 0.45407 0.78505 0.76918 0.0
C426 C 0.43546 0.80329 0.78872 0.0
C427 C 0.44162 0.80555 0.82382 0.0
H428 H 0.5039 0.75789 0.8322 0.0
C429 C 0.4667 0.78905 0.83893 0.0
C430 C 0.48533 0.77086 0.81939 0.0
H431 H 0.47192 0.79001 0.86595 0.0
H432 H 0.55247 0.69682 0.6687 0.0
H433 H 0.52108 0.73076 0.7013 0.0
H434 H 0.57825 0.71019 0.7914 0.0
H435 H 0.61017 0.67658 0.7584 0.0
H436 H 0.53863 0.75124 0.79456 0.0
H437 H 0.48738 0.74094 0.73854 0.0
H438 H 0.44876 0.78373 0.74218 0.0
H439 H 0.41625 0.81558 0.77629 0.0
C440 C 0.21911 0.67728 0.06608 0.0
C441 C 0.19147 0.68795 0.07752 0.0
C442 C 0.23839 0.69941 0.04796 0.0
C443 C 0.23039 0.73274 0.04081 0.0
C444 C 0.20305 0.74355 0.05276 0.0
C445 C 0.18368 0.72137 0.07073 0.0
C446 C 0.25038 0.75713 0.02188 0.0
C447 C 0.26969 0.74767 -0.00096 0.0
C448 C 0.28919 0.7721 0.97961 0.0
C449 C 0.29821 0.76287 0.94788 0.0
C450 C 0.31645 0.78522 0.92879 0.0
C451 C 0.32643 0.81718 0.94127 0.0
H452 H 0.29396 0.81151 0.01716 0.0
C453 C 0.31796 0.82616 0.97335 0.0
C454 C 0.29957 0.80388 0.99235 0.0
H455 H 0.32546 0.85048 0.98383 0.0
H456 H 0.22593 0.65179 0.0711 0.0
H457 H 0.25973 0.69042 0.04015 0.0
H458 H 0.19649 0.76918 0.04791 0.0
H459 H 0.16264 0.73046 0.07934 0.0
H460 H 0.24776 0.7838 0.02564 0.0
H461 H 0.27005 0.72119 0.99281 0.0
H462 H 0.29081 0.73842 0.93762 0.0
H463 H 0.32271 0.77742 0.90425 0.0
C464 C 0.42047 0.47491 0.42363 0.0
C465 C 0.42487 0.44294 0.41078 0.0
C466 C 0.44416 0.49246 0.44255 0.0
C467 C 0.4728 0.47832 0.44914 0.0
C468 C 0.47729 0.44659 0.43589 0.0
C469 C 0.45358 0.42899 0.4171 0.0
C470 C 0.49875 0.49628 0.46876 0.0
C471 C 0.49475 0.51935 0.49231 0.0
C472 C 0.52058 0.53693 0.51245 0.0
C473 C 0.51484 0.54994 0.54393 0.0
C474 C 0.53829 0.56712 0.56346 0.0
C475 C 0.56803 0.57204 0.55175 0.0
H476 H 0.55549 0.53327 0.47603 0.0
C477 C 0.57378 0.55931 0.52009 0.0
C478 C 0.55032 0.54198 0.5006 0.0
H479 H 0.59637 0.56289 0.5102 0.0
H480 H 0.39873 0.4865 0.41899 0.0
H481 H 0.44007 0.5173 0.45138 0.0
H482 H 0.49918 0.43524 0.44029 0.0
H483 H 0.45783 0.40449 0.40742 0.0
H484 H 0.52177 0.48876 0.46485 0.0
H485 H 0.47158 0.52443 0.4985 0.0
H486 H 0.49211 0.54669 0.55356 0.0
H487 H 0.53301 0.57674 0.58766 0.0
loop_
_geom_bond_atom_site_label_1
_geom_bond_atom_site_label_2
_geom_bond_distance
_geom_bond_site_symmetry_2
_ccdc_geom_bond_type
C0 O1 1.160 . S
C0 O7 1.185 . S
O1 C0 1.160 . S
O2 Zn3 1.899 . S
O2 C10 1.284 . S
Zn3 O2 1.899 . S
Zn3 O4 2.032 . S
Zn3 O7 2.086 . S
Zn3 O12 1.977 . S
O4 Zn3 2.032 . S
O4 C8 1.278 . S
C5 O6 1.203 . S
C5 O12 1.267 . S
O6 C5 1.203 . S
O7 C0 1.185 . S
O7 Zn3 2.086 . S
C8 O4 1.278 . S
C8 O9 1.211 . S
O9 C8 1.211 . S
C10 O2 1.284 . S
C10 O11 1.273 . S
O11 C10 1.273 . S
O12 Zn3 1.977 . S
O12 C5 1.267 . S
C13 O14 1.160 . S
C13 O20 1.185 . S
O14 C13 1.160 . S
O15 Zn16 1.899 . S
O15 C23 1.284 . S
Zn16 O15 1.899 . S
Zn16 O17 2.032 . S
Zn16 O20 2.086 . S
Zn16 O25 1.977 . S
O17 Zn16 2.032 . S
O17 C21 1.278 . S
C18 O19 1.203 . S
C18 O25 1.267 . S
O19 C18 1.203 . S
O20 C13 1.185 . S
O20 Zn16 2.086 . S
C21 O17 1.278 . S
C21 O22 1.211 . S
O22 C21 1.211 . S
C23 O15 1.284 . S
C23 O24 1.273 . S
O24 C23 1.273 . S
O25 Zn16 1.977 . S
O25 C18 1.267 . S
C26 O27 1.160 . S
C26 O33 1.185 . S
O27 C26 1.160 . S
O28 Zn29 1.899 . S
O28 C36 1.284 . S
Zn29 O28 1.899 . S
Zn29 O30 2.032 . S
Zn29 O33 2.086 . S
Zn29 O38 1.977 . S
O30 Zn29 2.032 . S
O30 C34 1.278 . S
C31 O32 1.203 . S
C31 O38 1.267 . S
O32 C31 1.203 . S
O33 C26 1.185 . S
O33 Zn29 2.086 . S
C34 O30 1.278 . S
C34 O35 1.211 . S
O35 C34 1.211 . S
C36 O28 1.284 . S
C36 O37 1.273 . S
O37 C36 1.273 . S
O38 Zn29 1.977 . S
O38 C31 1.267 . S
C39 O40 1.160 . S
C39 O46 1.185 . S
O40 C39 1.160 . S
O41 Zn42 1.899 . S
O41 C49 1.284 . S
Zn42 O41 1.899 . S
Zn42 O43 2.032 . S
Zn42 O46 2.086 . S
Zn42 O51 1.977 . S
O43 Zn42 2.032 . S
O43 C47 1.278 . S
C44 O45 1.203 . S
C44 O51 1.267 . S
O45 C44 1.203 . S
O46 C39 1.185 . S
O46 Zn42 2.086 . S
C47 O43 1.278 . S
C47 O48 1.211 . S
O48 C47 1.211 . S
C49 O41 1.284 . S
C49 O50 1.273 . S
O50 C49 1.273 . S
O51 Zn42 1.977 . S
O51 C44 1.267 . S
C52 O53 1.160 . S
C52 O59 1.185 . S
O53 C52 1.160 . S
O54 Zn55 1.899 . S
O54 C62 1.284 . S
Zn55 O54 1.899 . S
Zn55 O56 2.032 . S
Zn55 O59 2.086 . S
Zn55 O64 1.977 . S
O56 Zn55 2.032 . S
O56 C60 1.278 . S
C57 O58 1.203 . S
C57 O64 1.267 . S
O58 C57 1.203 . S
O59 C52 1.185 . S
O59 Zn55 2.086 . S
C60 O56 1.278 . S
C60 O61 1.211 . S
O61 C60 1.211 . S
C62 O54 1.284 . S
C62 O63 1.273 . S
O63 C62 1.273 . S
O64 Zn55 1.977 . S
O64 C57 1.267 . S
C65 O66 1.160 . S
C65 O72 1.185 . S
O66 C65 1.160 . S
O67 Zn68 1.899 . S
O67 C75 1.284 . S
Zn68 O67 1.899 . S
Zn68 O69 2.032 . S
Zn68 O72 2.086 . S
Zn68 O77 1.977 . S
O69 Zn68 2.032 . S
O69 C73 1.278 . S
C70 O71 1.203 . S
C70 O77 1.267 . S
O71 C70 1.203 . S
O72 C65 1.185 . S
O72 Zn68 2.086 . S
C73 O69 1.278 . S
C73 O74 1.211 . S
O74 C73 1.211 . S
C75 O67 1.284 . S
C75 O76 1.273 . S
O76 C75 1.273 . S
O77 Zn68 1.977 . S
O77 C70 1.267 . S
C78 O79 1.160 . S
C78 O85 1.185 . S
O79 C78 1.160 . S
O80 Zn81 1.899 . S
O80 C88 1.284 . S
Zn81 O80 1.899 . S
Zn81 O82 2.032 . S
Zn81 O85 2.086 . S
Zn81 O90 1.977 . S
O82 Zn81 2.032 . S
O82 C86 1.278 . S
C83 O84 1.203 . S
C83 O90 1.267 . S
O84 C83 1.203 . S
O85 C78 1.185 . S
O85 Zn81 2.086 . S
C86 O82 1.278 . S
C86 O87 1.211 . S
O87 C86 1.211 . S
C88 O80 1.284 . S
C88 O89 1.273 . S
O89 C88 1.273 . S
O90 Zn81 1.977 . S
O90 C83 1.267 . S
C91 O92 1.160 . S
C91 O98 1.185 . S
O92 C91 1.160 . S
O93 Zn94 1.899 . S
O93 C101 1.284 . S
Zn94 O93 1.899 . S
Zn94 O95 2.032 . S
Zn94 O98 2.086 . S
Zn94 O103 1.977 . S
O95 Zn94 2.032 . S
O95 C99 1.278 . S
C96 O97 1.203 . S
C96 O103 1.267 . S
O97 C96 1.203 . S
O98 C91 1.185 . S
O98 Zn94 2.086 . S
C99 O95 1.278 . S
C99 O100 1.211 . S
O100 C99 1.211 . S
C101 O93 1.284 . S
C101 O102 1.273 . S
O102 C101 1.273 . S
O103 Zn94 1.977 . S
O103 C96 1.267 . S
C104 C105 1.386 . S
C104 C106 1.383 . S
C104 H120 0.951 . S
C105 C104 1.386 . S
C105 C109 1.383 . S
C106 C104 1.383 . S
C106 C107 1.402 . S
C106 H121 0.951 . S
C107 C106 1.402 . S
C107 C108 1.375 . S
C107 C110 1.481 . S
C108 C107 1.375 . S
C108 C109 1.367 . S
C108 H122 0.951 . S
C109 C105 1.383 . S
C109 C108 1.367 . S
C109 H123 0.950 . S
C110 C107 1.481 . S
C110 C111 1.297 . S
C110 H124 0.950 . S
C111 C110 1.297 . S
C111 C112 1.479 . S
C111 H125 0.950 . S
C112 C111 1.479 . S
C112 C113 1.375 . S
C112 C118 1.404 . S
C113 C112 1.375 . S
C113 C114 1.369 . S
C113 H126 0.950 . S
C114 C113 1.369 . S
C114 C115 1.392 . S
C114 H127 0.951 . S
C115 C114 1.392 . S
C115 C117 1.384 . S
H116 C118 0.949 . S
C117 C115 1.384 . S
C117 C118 1.385 . S
C117 H119 0.950 . S
C118 C112 1.404 . S
C118 H116 0.949 . S
C118 C117 1.385 . S
H119 C117 0.950 . S
H120 C104 0.951 . S
H121 C106 0.951 . S
H122 C108 0.951 . S
H123 C109 0.950 . S
H124 C110 0.950 . S
H125 C111 0.950 . S
H126 C113 0.950 . S
H127 C114 0.951 . S
C128 C129 1.386 . S
C128 C130 1.383 . S
C128 H144 0.951 . S
C129 C128 1.386 . S
C129 C133 1.383 . S
C130 C128 1.383 . S
C130 C131 1.402 . S
C130 H145 0.951 . S
C131 C130 1.402 . S
C131 C132 1.375 . S
C131 C134 1.481 . S
C132 C131 1.375 . S
C132 C133 1.367 . S
C132 H146 0.951 . S
C133 C129 1.383 . S
C133 C132 1.367 . S
C133 H147 0.950 . S
C134 C131 1.481 . S
C134 C135 1.297 . S
C134 H148 0.950 . S
C135 C134 1.297 . S
C135 C136 1.479 . S
C135 H149 0.950 . S
C136 C135 1.479 . S
C136 C137 1.375 . S
C136 C142 1.404 . S
C137 C136 1.375 . S
C137 C138 1.369 . S
C137 H150 0.950 . S
C138 C137 1.369 . S
C138 C139 1.392 . S
C138 H151 0.951 . S
C139 C138 1.392 . S
C139 C141 1.384 . S
H140 C142 0.949 . S
C141 C139 1.384 . S
C141 C142 1.385 . S
C141 H143 0.950 . S
C142 C136 1.404 . S
C142 H140 0.949 . S
C142 C141 1.385 . S
H143 C141 0.950 . S
H144 C128 0.951 . S
H145 C130 0.951 . S
H146 C132 0.951 . S
H147 C133 0.950 . S
H148 C134 0.950 . S
H149 C135 0.950 . S
H150 C137 0.950 . S
H151 C138 0.951 . S
C152 C153 1.386 . S
C152 C154 1.383 . S
C152 H168 0.951 . S
C153 C152 1.386 . S
C153 C157 1.383 . S
C154 C152 1.383 . S
C154 C155 1.402 . S
C154 H169 0.951 . S
C155 C154 1.402 . S
C155 C156 1.375 . S
C155 C158 1.481 1_554 S
C156 C155 1.375 . S
C156 C157 1.367 . S
C156 H170 0.951 1_554 S
C157 C153 1.383 . S
C157 C156 1.367 . S
C157 H171 0.950 . S
C158 C155 1.481 1_556 S
C158 C159 1.297 . S
C158 H172 0.950 . S
C159 C158 1.297 . S
C159 C160 1.479 1_545 S
C159 H173 0.950 1_556 S
C160 C159 1.479 1_565 S
C160 C161 1.375 . S
C160 C166 1.404 . S
C161 C160 1.375 . S
C161 C162 1.369 . S
C161 H174 0.950 1_556 S
C162 C161 1.369 . S
C162 C163 1.392 . S
C162 H175 0.951 . S
C163 C162 1.392 . S
C163 C165 1.384 . S
H164 C166 0.944 1_545 S
C165 C163 1.384 . S
C165 C166 1.385 . S
C165 H167 0.950 . S
C166 C160 1.404 . S
C166 H164 0.944 1_565 S
C166 C165 1.385 . S
H167 C165 0.950 . S
H168 C152 0.951 . S
H169 C154 0.951 . S
H170 C156 0.951 1_556 S
H171 C157 0.950 . S
H172 C158 0.950 . S
H173 C159 0.950 1_554 S
H174 C161 0.950 1_554 S
H175 C162 0.951 . S
C176 C177 1.386 . S
C176 C178 1.383 . S
C176 H192 0.951 . S
C177 C176 1.386 . S
C177 C181 1.383 . S
C178 C176 1.383 . S
C178 C179 1.402 . S
C178 H193 0.951 . S
C179 C178 1.402 . S
C179 C180 1.375 . S
C179 C182 1.481 . S
C180 C179 1.375 . S
C180 C181 1.367 . S
C180 H194 0.951 . S
C181 C177 1.383 . S
C181 C180 1.367 . S
C181 H195 0.950 . S
C182 C179 1.481 . S
C182 C183 1.297 . S
C182 H196 0.950 1_655 S
C183 C182 1.297 . S
C183 C184 1.479 1_655 S
C183 H197 0.950 . S
C184 C183 1.479 1_455 S
C184 C185 1.375 . S
C184 C190 1.404 . S
C185 C184 1.375 . S
C185 C186 1.369 . S
C185 H198 0.950 . S
C186 C185 1.369 . S
C186 C187 1.392 . S
C186 H199 0.951 . S
C187 C186 1.392 . S
C187 C189 1.384 . S
H188 C190 0.949 . S
C189 C187 1.384 . S
C189 C190 1.385 . S
C189 H191 0.950 . S
C190 C184 1.404 . S
C190 H188 0.949 . S
C190 C189 1.385 . S
H191 C189 0.950 . S
H192 C176 0.951 . S
H193 C178 0.951 . S
H194 C180 0.951 . S
H195 C181 0.950 . S
H196 C182 0.950 1_455 S
H197 C183 0.950 . S
H198 C185 0.950 . S
H199 C186 0.951 . S
C200 C201 1.386 . S
C200 C202 1.383 . S
C200 H216 0.951 . S
C201 C200 1.386 . S
C201 C205 1.383 . S
C202 C200 1.383 . S
C202 C203 1.402 . S
C202 H217 0.951 . S
C203 C202 1.402 . S
C203 C204 1.375 . S
C203 C206 1.481 1_565 S
C204 C203 1.375 . S
C204 C205 1.367 . S
C204 H218 0.951 1_565 S
C205 C201 1.383 . S
C205 C204 1.367 . S
C205 H219 0.950 . S
C206 C203 1.481 1_545 S
C206 C207 1.297 1_545 S
C206 H220 0.950 . S
C207 C206 1.297 1_565 S
C207 C208 1.479 1_565 S
C207 H221 0.950 . S
C208 C207 1.479 1_545 S
C208 C209 1.375 . S
C208 C214 1.404 . S
C209 C208 1.375 . S
C209 C210 1.369 . S
C209 H222 0.950 1_545 S
C210 C209 1.369 . S
C210 C211 1.392 . S
C210 H223 0.951 . S
C211 C210 1.392 . S
C211 C213 1.384 . S
H212 C214 0.949 . S
C213 C211 1.384 . S
C213 C214 1.385 . S
C213 H215 0.950 . S
C214 C208 1.404 . S
C214 H212 0.949 . S
C214 C213 1.385 . S
H215 C213 0.950 . S
H216 C200 0.951 . S
H217 C202 0.951 . S
H218 C204 0.951 1_545 S
H219 C205 0.950 . S
H220 C206 0.950 . S
H221 C207 0.950 . S
H222 C209 0.950 1_565 S
H223 C210 0.951 . S
C224 C225 1.386 . S
C224 C226 1.383 . S
C224 H240 0.951 . S
C225 C224 1.386 . S
C225 C229 1.383 . S
C226 C224 1.383 . S
C226 C227 1.402 . S
C226 H241 0.951 . S
C227 C226 1.402 . S
C227 C228 1.375 . S
C227 C230 1.481 1_556 S
C228 C227 1.375 . S
C228 C229 1.367 . S
C228 H242 0.951 . S
C229 C225 1.383 . S
C229 C228 1.367 . S
C229 H243 0.950 . S
C230 C227 1.481 1_554 S
C230 C231 1.297 . S
C230 H244 0.950 1_655 S
C231 C230 1.297 . S
C231 C232 1.479 1_655 S
C231 H245 0.950 . S
C232 C231 1.479 1_455 S
C232 C233 1.375 . S
C232 C238 1.404 . S
C233 C232 1.375 . S
C233 C234 1.369 . S
C233 H246 0.950 . S
C234 C233 1.369 . S
C234 C235 1.392 . S
C234 H247 0.951 . S
C235 C234 1.392 . S
C235 C237 1.384 . S
H236 C238 0.949 . S
C237 C235 1.384 . S
C237 C238 1.385 . S
C237 H239 0.950 . S
C238 C232 1.404 . S
C238 H236 0.949 . S
C238 C237 1.385 . S
H239 C237 0.950 . S
H240 C224 0.951 . S
H241 C226 0.951 . S
H242 C228 0.951 . S
H243 C229 0.950 . S
H244 C230 0.950 1_455 S
H245 C231 0.950 . S
H246 C233 0.950 . S
H247 C234 0.951 . S
C248 C249 1.386 . S
C248 C250 1.383 . S
C248 H264 0.951 . S
C249 C248 1.386 . S
C249 C253 1.383 . S
C250 C248 1.383 . S
C250 C251 1.402 . S
C250 H265 0.951 . S
C251 C250 1.402 . S
C251 C252 1.375 . S
C251 C254 1.481 . S
C252 C251 1.375 . S
C252 C253 1.367 . S
C252 H266 0.951 . S
C253 C249 1.383 . S
C253 C252 1.367 . S
C253 H267 0.950 . S
C254 C251 1.481 . S
C254 C255 1.297 . S
C254 H268 0.950 . S
C255 C254 1.297 . S
C255 C256 1.479 . S
C255 H269 0.950 . S
C256 C255 1.479 . S
C256 C257 1.375 . S
C256 C262 1.404 . S
C257 C256 1.375 . S
C257 C258 1.369 . S
C257 H270 0.950 . S
C258 C257 1.369 . S
C258 C259 1.392 . S
C258 H271 0.951 . S
C259 C258 1.392 . S
C259 C261 1.384 . S
H260 C262 0.949 . S
C261 C259 1.384 . S
C261 C262 1.385 . S
C261 H263 0.950 . S
C262 C256 1.404 . S
C262 H260 0.949 . S
C262 C261 1.385 . S
H263 C261 0.950 . S
H264 C248 0.951 . S
H265 C250 0.951 . S
H266 C252 0.951 . S
H267 C253 0.950 . S
H268 C254 0.950 . S
H269 C255 0.950 . S
H270 C257 0.950 . S
H271 C258 0.951 . S
C272 C273 1.386 . S
C272 C274 1.383 . S
C272 H288 0.951 . S
C273 C272 1.386 . S
C273 C277 1.383 . S
C274 C272 1.383 . S
C274 C275 1.402 . S
C274 H289 0.951 . S
C275 C274 1.402 . S
C275 C276 1.375 . S
C275 C278 1.481 . S
C276 C275 1.375 . S
C276 C277 1.367 . S
C276 H290 0.951 . S
C277 C273 1.383 . S
C277 C276 1.367 . S
C277 H291 0.950 . S
C278 C275 1.481 . S
C278 C279 1.297 . S
C278 H292 0.950 . S
C279 C278 1.297 . S
C279 C280 1.479 . S
C279 H293 0.950 . S
C280 C279 1.479 . S
C280 C281 1.375 . S
C280 C286 1.404 . S
C281 C280 1.375 . S
C281 C282 1.369 . S
C281 H294 0.950 . S
C282 C281 1.369 . S
C282 C283 1.392 . S
C282 H295 0.951 . S
C283 C282 1.392 . S
C283 C285 1.384 . S
H284 C286 0.949 . S
C285 C283 1.384 . S
C285 C286 1.385 . S
C285 H287 0.950 . S
C286 C280 1.404 . S
C286 H284 0.949 . S
C286 C285 1.385 . S
H287 C285 0.950 . S
H288 C272 0.951 . S
H289 C274 0.951 . S
H290 C276 0.951 . S
H291 C277 0.950 . S
H292 C278 0.950 . S
H293 C279 0.950 . S
H294 C281 0.950 . S
H295 C282 0.951 . S
C296 C297 1.386 . S
C296 C298 1.383 . S
C296 H312 0.951 . S
C297 C296 1.386 . S
C297 C301 1.383 . S
C298 C296 1.383 . S
C298 C299 1.402 . S
C298 H313 0.951 . S
C299 C298 1.402 . S
C299 C300 1.375 . S
C299 C302 1.481 . S
C300 C299 1.375 . S
C300 C301 1.367 . S
C300 H314 0.951 . S
C301 C297 1.383 . S
C301 C300 1.367 . S
C301 H315 0.950 . S
C302 C299 1.481 . S
C302 C303 1.297 . S
C302 H316 0.950 . S
C303 C302 1.297 . S
C303 C304 1.479 . S
C303 H317 0.950 . S
C304 C303 1.479 . S
C304 C305 1.375 . S
C304 C310 1.404 . S
C305 C304 1.375 . S
C305 C306 1.369 . S
C305 H318 0.950 . S
C306 C305 1.369 . S
C306 C307 1.392 . S
C306 H319 0.951 . S
C307 C306 1.392 . S
C307 C309 1.384 . S
H308 C310 0.949 . S
C309 C307 1.384 . S
C309 C310 1.385 . S
C309 H311 0.950 . S
C310 C304 1.404 . S
C310 H308 0.949 . S
C310 C309 1.385 . S
H311 C309 0.950 . S
H312 C296 0.951 . S
H313 C298 0.951 . S
H314 C300 0.951 . S
H315 C301 0.950 . S
H316 C302 0.950 . S
H317 C303 0.950 . S
H318 C305 0.950 . S
H319 C306 0.951 . S
C320 C321 1.386 . S
C320 C322 1.383 . S
C320 H336 0.951 . S
C321 C320 1.386 . S
C321 C325 1.383 . S
C322 C320 1.383 . S
C322 C323 1.402 . S
C322 H337 0.951 . S
C323 C322 1.402 . S
C323 C324 1.375 . S
C323 C326 1.481 . S
C324 C323 1.375 . S
C324 C325 1.367 . S
C324 H338 0.951 . S
C325 C321 1.383 . S
C325 C324 1.367 . S
C325 H339 0.950 . S
C326 C323 1.481 . S
C326 C327 1.297 . S
C326 H340 0.950 1_556 S
C327 C326 1.297 . S
C327 C328 1.479 1_556 S
C327 H341 0.950 . S
C328 C327 1.479 1_554 S
C328 C329 1.375 . S
C328 C334 1.404 . S
C329 C328 1.375 . S
C329 C330 1.369 . S
C329 H342 0.950 1_554 S
C330 C329 1.369 . S
C330 C331 1.392 . S
C330 H343 0.951 . S
C331 C330 1.392 . S
C331 C333 1.384 . S
H332 C334 0.949 . S
C333 C331 1.384 . S
C333 C334 1.385 . S
C333 H335 0.950 . S
C334 C328 1.404 . S
C334 H332 0.949 . S
C334 C333 1.385 . S
H335 C333 0.950 . S
H336 C320 0.951 . S
H337 C322 0.951 . S
H338 C324 0.951 . S
H339 C325 0.950 . S
H340 C326 0.950 1_554 S
H341 C327 0.950 . S
H342 C329 0.950 1_556 S
H343 C330 0.951 . S
C344 C345 1.386 . S
C344 C346 1.383 . S
C344 H360 0.951 . S
C345 C344 1.386 . S
C345 C349 1.383 . S
C346 C344 1.383 . S
C346 C347 1.402 . S
C346 H361 0.951 1_565 S
C347 C346 1.402 . S
C347 C348 1.375 . S
C347 C350 1.481 . S
C348 C347 1.375 . S
C348 C349 1.367 . S
C348 H362 0.951 . S
C349 C345 1.383 . S
C349 C348 1.367 . S
C349 H363 0.950 . S
C350 C347 1.481 . S
C350 C351 1.297 1_565 S
C350 H364 0.950 . S
C351 C350 1.297 1_545 S
C351 C352 1.479 . S
C351 H365 0.950 . S
C352 C351 1.479 . S
C352 C353 1.375 . S
C352 C358 1.404 . S
C353 C352 1.375 . S
C353 C354 1.369 . S
C353 H366 0.950 . S
C354 C353 1.369 . S
C354 C355 1.392 . S
C354 H367 0.951 . S
C355 C354 1.392 . S
C355 C357 1.384 . S
H356 C358 0.949 . S
C357 C355 1.384 . S
C357 C358 1.385 . S
C357 H359 0.950 . S
C358 C352 1.404 . S
C358 H356 0.949 . S
C358 C357 1.385 . S
H359 C357 0.950 . S
H360 C344 0.951 . S
H361 C346 0.951 1_545 S
H362 C348 0.951 . S
H363 C349 0.950 . S
H364 C350 0.950 . S
H365 C351 0.950 . S
H366 C353 0.950 . S
H367 C354 0.951 . S
C368 C369 1.386 . S
C368 C370 1.383 . S
C368 H384 0.951 . S
C369 C368 1.386 . S
C369 C373 1.383 . S
C370 C368 1.383 . S
C370 C371 1.402 . S
C370 H385 0.951 . S
C371 C370 1.402 . S
C371 C372 1.375 . S
C371 C374 1.481 1_665 S
C372 C371 1.375 . S
C372 C373 1.367 . S
C372 H386 0.951 1_565 S
C373 C369 1.383 . S
C373 C372 1.367 . S
C373 H387 0.950 . S
C374 C371 1.481 1_445 S
C374 C375 1.297 1_545 S
C374 H388 0.950 . S
C375 C374 1.297 1_565 S
C375 C376 1.479 1_565 S
C375 H389 0.950 . S
C376 C375 1.479 1_545 S
C376 C377 1.375 . S
C376 C382 1.404 . S
C377 C376 1.375 . S
C377 C378 1.369 . S
C377 H390 0.950 1_545 S
C378 C377 1.369 . S
C378 C379 1.392 . S
C378 H391 0.951 . S
C379 C378 1.392 . S
C379 C381 1.384 . S
H380 C382 0.949 . S
C381 C379 1.384 . S
C381 C382 1.385 . S
C381 H383 0.950 . S
C382 C376 1.404 . S
C382 H380 0.949 . S
C382 C381 1.385 . S
H383 C381 0.950 . S
H384 C368 0.951 . S
H385 C370 0.951 . S
H386 C372 0.951 1_545 S
H387 C373 0.950 . S
H388 C374 0.950 . S
H389 C375 0.950 . S
H390 C377 0.950 1_565 S
H391 C378 0.951 . S
C392 C393 1.386 . S
C392 C394 1.383 . S
C392 H408 0.951 . S
C393 C392 1.386 . S
C393 C397 1.383 . S
C394 C392 1.383 . S
C394 C395 1.402 . S
C394 H409 0.951 . S
C395 C394 1.402 . S
C395 C396 1.375 . S
C395 C398 1.481 . S
C396 C395 1.375 . S
C396 C397 1.367 . S
C396 H410 0.951 . S
C397 C393 1.383 . S
C397 C396 1.367 . S
C397 H411 0.950 . S
C398 C395 1.481 . S
C398 C399 1.297 1_655 S
C398 H412 0.950 . S
C399 C398 1.297 1_455 S
C399 C400 1.479 . S
C399 H413 0.950 . S
C400 C399 1.479 . S
C400 C401 1.375 . S
C400 C406 1.404 . S
C401 C400 1.375 . S
C401 C402 1.369 . S
C401 H414 0.950 . S
C402 C401 1.369 . S
C402 C403 1.392 . S
C402 H415 0.951 . S
C403 C402 1.392 . S
C403 C405 1.384 . S
H404 C406 0.949 . S
C405 C403 1.384 . S
C405 C406 1.385 . S
C405 H407 0.950 . S
C406 C400 1.404 . S
C406 H404 0.949 . S
C406 C405 1.385 . S
H407 C405 0.950 . S
H408 C392 0.951 . S
H409 C394 0.951 . S
H410 C396 0.951 . S
H411 C397 0.950 . S
H412 C398 0.950 . S
H413 C399 0.950 . S
H414 C401 0.950 . S
H415 C402 0.951 . S
C416 C417 1.386 . S
C416 C418 1.383 . S
C416 H432 0.951 . S
C417 C416 1.386 . S
C417 C421 1.383 . S
C418 C416 1.383 . S
C418 C419 1.402 . S
C418 H433 0.951 . S
C419 C418 1.402 . S
C419 C420 1.375 . S
C419 C422 1.481 . S
C420 C419 1.375 . S
C420 C421 1.367 . S
C420 H434 0.951 . S
C421 C417 1.383 . S
C421 C420 1.367 . S
C421 H435 0.950 . S
C422 C419 1.481 . S
C422 C423 1.297 . S
C422 H436 0.950 . S
C423 C422 1.297 . S
C423 C424 1.479 . S
C423 H437 0.950 . S
C424 C423 1.479 . S
C424 C425 1.375 . S
C424 C430 1.404 . S
C425 C424 1.375 . S
C425 C426 1.369 . S
C425 H438 0.950 . S
C426 C425 1.369 . S
C426 C427 1.392 . S
C426 H439 0.951 . S
C427 C426 1.392 . S
C427 C429 1.384 . S
H428 C430 0.949 . S
C429 C427 1.384 . S
C429 C430 1.385 . S
C429 H431 0.950 . S
C430 C424 1.404 . S
C430 H428 0.949 . S
C430 C429 1.385 . S
H431 C429 0.950 . S
H432 C416 0.951 . S
H433 C418 0.951 . S
H434 C420 0.951 . S
H435 C421 0.950 . S
H436 C422 0.950 . S
H437 C423 0.950 . S
H438 C425 0.950 . S
H439 C426 0.951 . S
C440 C441 1.386 . S
C440 C442 1.383 . S
C440 H456 0.951 . S
C441 C440 1.386 . S
C441 C445 1.383 . S
C442 C440 1.383 . S
C442 C443 1.402 . S
C442 H457 0.951 1_554 S
C443 C442 1.402 . S
C443 C444 1.375 . S
C443 C446 1.481 . S
C444 C443 1.375 . S
C444 C445 1.367 . S
C444 H458 0.951 . S
C445 C441 1.383 . S
C445 C444 1.367 . S
C445 H459 0.950 . S
C446 C443 1.481 . S
C446 C447 1.297 1_554 S
C446 H460 0.950 . S
C447 C446 1.297 1_556 S
C447 C448 1.479 . S
C447 H461 0.950 . S
C448 C447 1.479 . S
C448 C449 1.375 . S
C448 C454 1.404 . S
C449 C448 1.375 . S
C449 C450 1.369 . S
C449 H462 0.950 . S
C450 C449 1.369 . S
C450 C451 1.392 . S
C450 H463 0.951 . S
C451 C450 1.392 . S
C451 C453 1.384 . S
H452 C454 0.949 1_554 S
C453 C451 1.384 . S
C453 C454 1.385 . S
C453 H455 0.950 . S
C454 C448 1.404 . S
C454 H452 0.949 1_556 S
C454 C453 1.385 . S
H455 C453 0.950 . S
H456 C440 0.951 . S
H457 C442 0.951 1_556 S
H458 C444 0.951 . S
H459 C445 0.950 . S
H460 C446 0.950 . S
H461 C447 0.950 . S
H462 C449 0.950 . S
H463 C450 0.951 . S
C464 C465 1.386 . S
C464 C466 1.383 . S
C464 H480 0.951 . S
C465 C464 1.386 . S
C465 C469 1.383 . S
C466 C464 1.383 . S
C466 C467 1.402 . S
C466 H481 0.951 . S
C467 C466 1.402 . S
C467 C468 1.375 . S
C467 C470 1.481 . S
C468 C467 1.375 . S
C468 C469 1.367 . S
C468 H482 0.951 . S
C469 C465 1.383 . S
C469 C468 1.367 . S
C469 H483 0.950 . S
C470 C467 1.481 . S
C470 C471 1.297 . S
C470 H484 0.950 . S
C471 C470 1.297 . S
C471 C472 1.479 . S
C471 H485 0.950 . S
C472 C471 1.479 . S
C472 C473 1.375 . S
C472 C478 1.404 . S
C473 C472 1.375 . S
C473 C474 1.369 . S
C473 H486 0.950 . S
C474 C473 1.369 . S
C474 C475 1.392 . S
C474 H487 0.951 . S
C475 C474 1.392 . S
C475 C477 1.384 . S
H476 C478 0.949 . S
C477 C475 1.384 . S
C477 C478 1.385 . S
C477 H479 0.950 . S
C478 C472 1.404 . S
C478 H476 0.949 . S
C478 C477 1.385 . S
H479 C477 0.950 . S
H480 C464 0.951 . S
H481 C466 0.951 . S
H482 C468 0.951 . S
H483 C469 0.950 . S
H484 C470 0.950 . S
H485 C471 0.950 . S
H486 C473 0.950 . S
H487 C474 0.951 . S
C105 C75 1.498 . S
C115 C5 1.490 . S
C129 C101 1.467 . S
C139 C18 1.441 . S
C153 C34 1.456 . S
C163 C86 1.428 . S
C177 C39 1.490 . S
C187 C52 1.497 . S
C201 C83 1.457 . S
C211 C10 1.464 . S
C225 C21 1.482 . S
C235 C60 1.495 . S
C249 C65 1.459 . S
C259 C26 1.444 . S
C273 C49 1.484 . S
C283 C96 1.491 . S
C297 C62 1.496 . S
C307 C70 1.498 . S
C321 C23 1.487 . S
C331 C31 1.454 . S
C345 C44 1.491 . S
C355 C36 1.484 . S
C369 C47 1.467 . S
C379 C8 1.439 . S
C393 C13 1.464 . S
C403 C0 1.443 . S
C417 C91 1.459 . S
C427 C78 1.437 . S
C441 C57 1.486 . S
C451 C88 1.473 . S
C465 C73 1.482 . S
C475 C99 1.464 . S
