# Generated by pormake.
# Topology upb, (4)-cn, num edge types: 1
# Building blocks:
#     Node 0, Type 0, BuildingBlock: QUQFOY_clean_sbu_3, # of connection points: 4
#     Node 1, Type 0, BuildingBlock: QUQFOY_clean_sbu_3, # of connection points: 4
#     Node 2, Type 0, BuildingBlock: QUQFOY_clean_sbu_3, # of connection points: 4
#     Node 3, Type 0, BuildingBlock: QUQFOY_clean_sbu_3, # of connection points: 4
#     Node 4, Type 0, BuildingBlock: QUQFOY_clean_sbu_3, # of connection points: 4
#     Node 5, Type 0, BuildingBlock: QUQFOY_clean_sbu_3, # of connection points: 4
#     Node 6, Type 0, BuildingBlock: QUQFOY_clean_sbu_3, # of connection points: 4
#     Node 7, Type 0, BuildingBlock: QUQFOY_clean_sbu_3, # of connection points: 4
#     Node 8, Type 0, BuildingBlock: QUQFOY_clean_sbu_3, # of connection points: 4
#     Node 9, Type 0, BuildingBlock: QUQFOY_clean_sbu_3, # of connection points: 4
#     Node 10, Type 0, BuildingBlock: QUQFOY_clean_sbu_3, # of connection points: 4
#     Node 11, Type 0, BuildingBlock: QUQFOY_clean_sbu_3, # of connection points: 4
#     Node 12, Type 0, BuildingBlock: QUQFOY_clean_sbu_3, # of connection points: 4
#     Node 13, Type 0, BuildingBlock: QUQFOY_clean_sbu_3, # of connection points: 4
#     Node 14, Type 0, BuildingBlock: QUQFOY_clean_sbu_3, # of connection points: 4
#     Node 15, Type 0, BuildingBlock: QUQFOY_clean_sbu_3, # of connection points: 4
#     Edge 16, Type (0, 0), None
#     Edge 17, Type (0, 0), None
#     Edge 18, Type (0, 0), None
#     Edge 19, Type (0, 0), None
#     Edge 20, Type (0, 0), None
#     Edge 21, Type (0, 0), None
#     Edge 22, Type (0, 0), None
#     Edge 23, Type (0, 0), None
#     Edge 24, Type (0, 0), None
#     Edge 25, Type (0, 0), None
#     Edge 26, Type (0, 0), None
#     Edge 27, Type (0, 0), None
#     Edge 28, Type (0, 0), None
#     Edge 29, Type (0, 0), None
#     Edge 30, Type (0, 0), None
#     Edge 31, Type (0, 0), None
#     Edge 32, Type (0, 0), None
#     Edge 33, Type (0, 0), None
#     Edge 34, Type (0, 0), None
#     Edge 35, Type (0, 0), None
#     Edge 36, Type (0, 0), None
#     Edge 37, Type (0, 0), None
#     Edge 38, Type (0, 0), None
#     Edge 39, Type (0, 0), None
#     Edge 40, Type (0, 0), None
#     Edge 41, Type (0, 0), None
#     Edge 42, Type (0, 0), None
#     Edge 43, Type (0, 0), None
#     Edge 44, Type (0, 0), None
#     Edge 45, Type (0, 0), None
#     Edge 46, Type (0, 0), None
#     Edge 47, Type (0, 0), None
# Relax obj value: 0.206
# Max RMSD: 0.073
# Mean RMSD: 0.073
data_MOF--net-upb--node1-QUQFOY_clean_sbu_3--edge1-none
_symmetry_space_group_name_H-M    P1
_symmetry_Int_Tables_number       1
_symmetry_cell_setting            triclinic
loop_
_symmetry_equiv_pos_as_xyz
'x, y, z'
_cell_length_a     21.941971
_cell_length_b     21.938955
_cell_length_c     17.887435
_cell_angle_alpha  90.02296
_cell_angle_beta   90.017895
_cell_angle_gamma 90.001048
loop_
_atom_site_label
_atom_site_type_symbol
_atom_site_fract_x
_atom_site_fract_y
_atom_site_fract_z
_atom_type_partial_charge
C0 C -0.01962 0.13725 0.38666 0.0
O1 O -0.01882 0.08605 0.35379 0.0
Cd2 Cd 0.0193 0.06567 0.23371 0.0
O3 O -0.00189 0.18544 0.35301 0.0
Cd4 Cd 0.03173 0.19519 0.21785 0.0
C5 C 0.90473 0.13164 0.1545 0.0
O6 O 0.11305 0.12121 0.22949 0.0
O7 O 0.07165 0.12235 0.12144 0.0
O8 O 0.08706 0.28723 0.25173 0.0
C9 C 0.11276 0.10047 0.16359 0.0
O10 O 0.94234 0.08958 0.13883 0.0
C11 C 0.08609 0.31 0.18654 0.0
O12 O 0.9233 0.17769 0.19122 0.0
O13 O 0.05514 0.28206 0.13724 0.0
C14 C 0.80437 -0.01959 0.38659 0.0
O15 O 0.85556 -0.01875 0.35378 0.0
Cd16 Cd 0.87599 0.01942 0.23375 0.0
O17 O 0.75618 -0.00186 0.3529 0.0
Cd18 Cd 0.74642 0.03181 0.21776 0.0
C19 C 0.81003 0.90483 0.15443 0.0
O20 O 0.8204 0.11314 0.22951 0.0
O21 O 0.81915 0.0718 0.12135 0.0
O22 O 0.65442 0.08712 0.25169 0.0
C23 C 0.84103 0.11288 0.16358 0.0
O24 O 0.85209 0.94246 0.13883 0.0
C25 C 0.6316 0.08615 0.18651 0.0
O26 O 0.76397 0.92339 0.1911 0.0
O27 O 0.6595 0.05521 0.13719 0.0
C28 C 0.96124 0.80449 0.38663 0.0
O29 O 0.96046 0.85569 0.3538 0.0
Cd30 Cd 0.9223 0.87604 0.2337 0.0
O31 O 0.9435 0.7563 0.35293 0.0
Cd32 Cd 0.90985 0.7465 0.21778 0.0
C33 C 0.03681 0.80998 0.15445 0.0
O34 O 0.82855 0.82051 0.22946 0.0
O35 O 0.86985 0.81924 0.12132 0.0
O36 O 0.85454 0.65451 0.25174 0.0
C37 C 0.82879 0.84113 0.16353 0.0
O38 O -0.00081 0.85205 0.1388 0.0
C39 C 0.85547 0.63166 0.18657 0.0
O40 O 0.01825 0.76395 0.19116 0.0
O41 O 0.88638 0.65955 0.13724 0.0
C42 C 0.13709 0.96121 0.38672 0.0
O43 O 0.08589 0.96036 0.35388 0.0
Cd44 Cd 0.0655 0.92219 0.23378 0.0
O45 O 0.18529 0.94351 0.35305 0.0
Cd46 Cd 0.1951 0.90984 0.2179 0.0
C47 C 0.1315 0.03675 0.15453 0.0
O48 O 0.12114 0.8285 0.22952 0.0
O49 O 0.12238 0.86983 0.1214 0.0
O50 O 0.28713 0.85456 0.25183 0.0
C51 C 0.10051 0.82875 0.16358 0.0
O52 O 0.08939 -0.00084 0.13895 0.0
C53 C 0.30993 0.85552 0.18666 0.0
O54 O 0.17757 0.01825 0.19123 0.0
O55 O 0.28202 0.88644 0.13736 0.0
C56 C -0.01957 0.80449 0.46524 0.0
O57 O -0.01876 0.85569 0.49811 0.0
Cd58 Cd 0.01933 0.87601 0.61826 0.0
O59 O -0.00187 0.75629 0.49892 0.0
Cd60 Cd 0.03172 0.74649 0.63407 0.0
C61 C 0.90473 0.81002 0.69736 0.0
O62 O 0.11307 0.82042 0.62256 0.0
O63 O 0.07166 0.8193 0.73055 0.0
O64 O 0.08702 0.65447 0.60015 0.0
C65 C 0.11278 0.84124 0.68842 0.0
O66 O 0.94234 0.85209 0.71305 0.0
C67 C 0.08607 0.63166 0.66532 0.0
O68 O 0.9233 0.76397 0.66065 0.0
O69 O 0.05516 0.65958 0.71463 0.0
C70 C 0.13709 -0.01956 0.46532 0.0
O71 O 0.0859 -0.01871 0.49814 0.0
Cd72 Cd 0.06555 0.01946 0.61828 0.0
O73 O 0.18529 -0.00185 0.49903 0.0
Cd74 Cd 0.1951 0.03181 0.63412 0.0
C75 C 0.13154 0.9049 0.69753 0.0
O76 O 0.12126 0.1132 0.62261 0.0
O77 O 0.12232 0.07182 0.73058 0.0
O78 O 0.2871 0.08708 0.60022 0.0
C79 C 0.10034 0.11288 0.68839 0.0
O80 O 0.08943 0.94249 0.71309 0.0
C81 C 0.30993 0.08615 0.66539 0.0
O82 O 0.17759 0.9234 0.66083 0.0
O83 O 0.28204 0.05526 0.71472 0.0
C84 C 0.96118 0.13725 0.46525 0.0
O85 O 0.96036 0.08605 0.49807 0.0
Cd86 Cd 0.92221 0.06565 0.61814 0.0
O87 O 0.94345 0.18544 0.49895 0.0
Cd88 Cd 0.90981 0.1952 0.63409 0.0
C89 C 0.03673 0.13168 0.6975 0.0
O90 O 0.82848 0.1212 0.62243 0.0
O91 O 0.86991 0.12238 0.73047 0.0
O92 O 0.85448 0.28721 0.60022 0.0
C93 C 0.82878 0.10049 0.68831 0.0
O94 O -0.00083 0.08956 0.71306 0.0
C95 C 0.85544 0.31001 0.66541 0.0
O96 O 0.01823 0.17772 0.66079 0.0
O97 O 0.88637 0.2821 0.71471 0.0
C98 C 0.80437 0.96118 0.46517 0.0
O99 O 0.85557 0.96033 0.498 0.0
Cd100 Cd 0.87603 0.92217 0.61804 0.0
O101 O 0.75618 0.94348 0.49884 0.0
Cd102 Cd 0.74641 0.90982 0.63398 0.0
C103 C 0.81004 0.03677 0.69735 0.0
O104 O 0.82039 0.82849 0.6223 0.0
O105 O 0.81915 0.86986 0.73044 0.0
O106 O 0.65438 0.85449 0.60008 0.0
C107 C 0.84103 0.82877 0.68824 0.0
O108 O 0.85216 -0.00082 0.7129 0.0
C109 C 0.63159 0.85549 0.66526 0.0
O110 O 0.76396 0.01825 0.66066 0.0
O111 O 0.65952 0.88645 0.71456 0.0
C112 C 0.48038 0.63725 0.88666 0.0
O113 O 0.48117 0.58605 0.8538 0.0
Cd114 Cd 0.51928 0.56567 0.73368 0.0
O115 O 0.4981 0.68545 0.853 0.0
Cd116 Cd 0.53171 0.6952 0.71788 0.0
C117 C 0.40471 0.63165 0.65451 0.0
O118 O 0.61305 0.62129 0.72943 0.0
O119 O 0.57165 0.62233 0.62144 0.0
O120 O 0.58706 0.78722 0.75171 0.0
C121 C 0.61271 0.60039 0.66362 0.0
O122 O 0.44232 0.58958 0.63884 0.0
C123 C 0.58608 0.80998 0.68651 0.0
O124 O 0.42328 0.6777 0.69122 0.0
O125 O 0.55513 0.78206 0.63722 0.0
C126 C 0.30437 0.48042 0.8866 0.0
O127 O 0.35556 0.48125 0.85377 0.0
Cd128 Cd 0.37597 0.51942 0.73375 0.0
O129 O 0.25617 0.49815 0.85291 0.0
Cd130 Cd 0.2464 0.53181 0.71779 0.0
C131 C 0.31 0.40483 0.65444 0.0
O132 O 0.32039 0.61314 0.72952 0.0
O133 O 0.31913 0.57181 0.62136 0.0
O134 O 0.15441 0.58713 0.75172 0.0
C135 C 0.34102 0.61289 0.6636 0.0
O136 O 0.35206 0.44246 0.63883 0.0
C137 C 0.1316 0.58616 0.68653 0.0
O138 O 0.26395 0.42339 0.69112 0.0
O139 O 0.15948 0.55521 0.63721 0.0
C140 C 0.46124 0.3045 0.88662 0.0
O141 O 0.46045 0.3557 0.8538 0.0
Cd142 Cd 0.42229 0.37604 0.73371 0.0
O143 O 0.44349 0.25631 0.85293 0.0
Cd144 Cd 0.40983 0.2465 0.71777 0.0
C145 C 0.53679 0.30998 0.65445 0.0
O146 O 0.32854 0.32052 0.72947 0.0
O147 O 0.36983 0.31924 0.62133 0.0
O148 O 0.35452 0.15452 0.75176 0.0
C149 C 0.32877 0.34113 0.66354 0.0
O150 O 0.49918 0.35205 0.63879 0.0
C151 C 0.35545 0.13169 0.68658 0.0
O152 O 0.51824 0.26396 0.69115 0.0
O153 O 0.38637 0.15955 0.63724 0.0
C154 C 0.63709 0.46121 0.88672 0.0
O155 O 0.58589 0.46036 0.85389 0.0
Cd156 Cd 0.56548 0.42219 0.73381 0.0
O157 O 0.68528 0.44352 0.85303 0.0
Cd158 Cd 0.69509 0.40984 0.71788 0.0
C159 C 0.63148 0.53673 0.65453 0.0
O160 O 0.62113 0.32851 0.72951 0.0
O161 O 0.62236 0.36982 0.62139 0.0
O162 O 0.78711 0.35455 0.75182 0.0
C163 C 0.60049 0.32875 0.66358 0.0
O164 O 0.58936 0.49916 0.63897 0.0
C165 C 0.8099 0.35551 0.68664 0.0
O166 O 0.67755 0.51825 0.69122 0.0
O167 O 0.782 0.38645 0.63733 0.0
C168 C 0.48043 0.3045 -0.03477 0.0
O169 O 0.48124 0.3557 -0.0019 0.0
Cd170 Cd 0.51934 0.37601 0.11825 0.0
O171 O 0.49814 0.2563 -0.00109 0.0
Cd172 Cd 0.53174 0.24649 0.13406 0.0
C173 C 0.40475 0.31001 0.19736 0.0
O174 O 0.61308 0.32043 0.12254 0.0
O175 O 0.57168 0.3193 0.23054 0.0
O176 O 0.58704 0.15447 0.10012 0.0
C177 C 0.6128 0.34122 0.18841 0.0
O178 O 0.44234 0.35209 0.21304 0.0
C179 C 0.58609 0.13168 0.1653 0.0
O180 O 0.42331 0.26397 0.16064 0.0
O181 O 0.55516 0.15958 0.21462 0.0
C182 C 0.6371 0.48044 -0.03468 0.0
O183 O 0.58591 0.48129 -0.00185 0.0
Cd184 Cd 0.56557 0.51946 0.11826 0.0
O185 O 0.6853 0.49815 -0.00098 0.0
Cd186 Cd 0.69511 0.53181 0.13414 0.0
C187 C 0.63155 0.4049 0.19752 0.0
O188 O 0.62122 0.61318 0.12258 0.0
O189 O 0.62235 0.5718 0.23057 0.0
O190 O 0.78711 0.58709 0.1002 0.0
C191 C 0.60039 0.61292 0.18841 0.0
O192 O 0.58945 0.44249 0.21309 0.0
C193 C 0.80993 0.58615 0.16538 0.0
O194 O 0.6776 0.4234 0.16082 0.0
O195 O 0.78205 0.55525 0.21471 0.0
C196 C 0.46118 0.63726 -0.03474 0.0
O197 O 0.46037 0.58606 -0.00192 0.0
Cd198 Cd 0.42223 0.56566 0.11813 0.0
O199 O 0.44345 0.68545 -0.00104 0.0
Cd200 Cd 0.40982 0.6952 0.13411 0.0
C201 C 0.53676 0.63168 0.1975 0.0
O202 O 0.3285 0.62119 0.12243 0.0
O203 O 0.36991 0.62238 0.23048 0.0
O204 O 0.35449 0.7872 0.10023 0.0
C205 C 0.32878 0.60049 0.18832 0.0
O206 O 0.49918 0.58957 0.21307 0.0
C207 C 0.35544 0.81 0.16543 0.0
O208 O 0.51824 0.67772 0.16078 0.0
O209 O 0.38639 0.78211 0.21473 0.0
C210 C 0.30437 0.46118 -0.03482 0.0
O211 O 0.35558 0.46033 -0.002 0.0
Cd212 Cd 0.37604 0.42218 0.11808 0.0
O213 O 0.25618 0.44348 -0.00115 0.0
Cd214 Cd 0.24642 0.40982 0.13394 0.0
C215 C 0.31005 0.53677 0.19736 0.0
O216 O 0.32032 0.32849 0.12235 0.0
O217 O 0.31916 0.36984 0.23044 0.0
O218 O 0.1544 0.35448 0.10009 0.0
C219 C 0.34115 0.32878 0.18819 0.0
O220 O 0.35217 0.49918 0.21291 0.0
C221 C 0.13162 0.35549 0.16528 0.0
O222 O 0.26398 0.51825 0.16067 0.0
O223 O 0.15953 0.38646 0.21458 0.0
loop_
_geom_bond_atom_site_label_1
_geom_bond_atom_site_label_2
_geom_bond_distance
_geom_bond_site_symmetry_2
_ccdc_geom_bond_type
C0 O1 1.306 1_655 S
C0 O3 1.160 . S
O1 C0 1.306 1_455 S
O1 Cd2 2.228 . S
Cd2 O1 2.228 . S
Cd2 O6 2.273 . S
Cd2 O10 2.277 1_455 S
O3 C0 1.160 . S
O3 Cd4 2.203 1_655 S
Cd4 O3 2.203 1_455 S
Cd4 O6 2.411 . S
Cd4 O7 2.333 . S
Cd4 O8 2.352 . S
Cd4 O12 2.277 1_455 S
Cd4 O13 2.356 . S
C5 O10 1.209 . S
C5 O12 1.226 . S
O6 Cd2 2.273 . S
O6 Cd4 2.411 . S
O6 C9 1.320 . S
O7 Cd4 2.333 . S
O7 C9 1.214 . S
O8 Cd4 2.352 . S
O8 C11 1.258 . S
C9 O6 1.320 . S
C9 O7 1.214 . S
O10 Cd2 2.277 1_655 S
O10 C5 1.209 . S
C11 O8 1.258 . S
C11 O13 1.282 . S
O12 Cd4 2.277 1_655 S
O12 C5 1.226 . S
O13 Cd4 2.356 . S
O13 C11 1.282 . S
C14 O15 1.306 1_565 S
C14 O17 1.160 . S
O15 C14 1.306 1_545 S
O15 Cd16 2.228 . S
Cd16 O15 2.228 . S
Cd16 O20 2.273 . S
Cd16 O24 2.277 1_545 S
O17 C14 1.160 . S
O17 Cd18 2.203 1_565 S
Cd18 O17 2.203 1_545 S
Cd18 O20 2.411 . S
Cd18 O21 2.333 . S
Cd18 O22 2.352 . S
Cd18 O26 2.277 1_545 S
Cd18 O27 2.356 . S
C19 O24 1.209 . S
C19 O26 1.226 . S
O20 Cd16 2.273 . S
O20 Cd18 2.411 . S
O20 C23 1.320 . S
O21 Cd18 2.333 . S
O21 C23 1.214 . S
O22 Cd18 2.352 . S
O22 C25 1.258 . S
C23 O20 1.320 . S
C23 O21 1.214 . S
O24 Cd16 2.277 1_565 S
O24 C19 1.209 . S
C25 O22 1.258 . S
C25 O27 1.282 . S
O26 Cd18 2.277 1_565 S
O26 C19 1.226 . S
O27 Cd18 2.356 . S
O27 C25 1.282 . S
C28 O29 1.306 1_455 S
C28 O31 1.160 . S
O29 C28 1.306 1_655 S
O29 Cd30 2.228 . S
Cd30 O29 2.228 . S
Cd30 O34 2.273 . S
Cd30 O38 2.277 1_655 S
O31 C28 1.160 . S
O31 Cd32 2.203 1_455 S
Cd32 O31 2.203 1_655 S
Cd32 O34 2.411 . S
Cd32 O35 2.333 . S
Cd32 O36 2.352 . S
Cd32 O40 2.277 1_655 S
Cd32 O41 2.356 . S
C33 O38 1.209 . S
C33 O40 1.226 . S
O34 Cd30 2.273 . S
O34 Cd32 2.411 . S
O34 C37 1.320 . S
O35 Cd32 2.333 . S
O35 C37 1.214 . S
O36 Cd32 2.352 . S
O36 C39 1.258 . S
C37 O34 1.320 . S
C37 O35 1.214 . S
O38 Cd30 2.277 1_455 S
O38 C33 1.209 . S
C39 O36 1.258 . S
C39 O41 1.282 . S
O40 Cd32 2.277 1_455 S
O40 C33 1.226 . S
O41 Cd32 2.356 . S
O41 C39 1.282 . S
C42 O43 1.306 1_545 S
C42 O45 1.160 . S
O43 C42 1.306 1_565 S
O43 Cd44 2.228 . S
Cd44 O43 2.228 . S
Cd44 O48 2.273 . S
Cd44 O52 2.277 1_565 S
O45 C42 1.160 . S
O45 Cd46 2.203 1_545 S
Cd46 O45 2.203 1_565 S
Cd46 O48 2.411 . S
Cd46 O49 2.333 . S
Cd46 O50 2.352 . S
Cd46 O54 2.277 1_565 S
Cd46 O55 2.356 . S
C47 O52 1.209 . S
C47 O54 1.226 . S
O48 Cd44 2.273 . S
O48 Cd46 2.411 . S
O48 C51 1.320 . S
O49 Cd46 2.333 . S
O49 C51 1.214 . S
O50 Cd46 2.352 . S
O50 C53 1.258 . S
C51 O48 1.320 . S
C51 O49 1.214 . S
O52 Cd44 2.277 1_545 S
O52 C47 1.209 . S
C53 O50 1.258 . S
C53 O55 1.282 . S
O54 Cd46 2.277 1_545 S
O54 C47 1.226 . S
O55 Cd46 2.356 . S
O55 C53 1.282 . S
C56 O57 1.306 1_655 S
C56 O59 1.160 . S
O57 C56 1.306 1_455 S
O57 Cd58 2.228 . S
Cd58 O57 2.228 . S
Cd58 O62 2.273 . S
Cd58 O66 2.277 1_455 S
O59 C56 1.160 . S
O59 Cd60 2.203 1_655 S
Cd60 O59 2.203 1_455 S
Cd60 O62 2.411 . S
Cd60 O63 2.333 . S
Cd60 O64 2.352 . S
Cd60 O68 2.277 1_455 S
Cd60 O69 2.356 . S
C61 O66 1.209 . S
C61 O68 1.226 . S
O62 Cd58 2.273 . S
O62 Cd60 2.411 . S
O62 C65 1.320 . S
O63 Cd60 2.333 . S
O63 C65 1.214 . S
O64 Cd60 2.352 . S
O64 C67 1.258 . S
C65 O62 1.320 . S
C65 O63 1.214 . S
O66 Cd58 2.277 1_655 S
O66 C61 1.209 . S
C67 O64 1.258 . S
C67 O69 1.282 . S
O68 Cd60 2.277 1_655 S
O68 C61 1.226 . S
O69 Cd60 2.356 . S
O69 C67 1.282 . S
C70 O71 1.306 1_565 S
C70 O73 1.160 . S
O71 C70 1.306 1_545 S
O71 Cd72 2.228 . S
Cd72 O71 2.228 . S
Cd72 O76 2.273 . S
Cd72 O80 2.277 1_545 S
O73 C70 1.160 . S
O73 Cd74 2.203 1_565 S
Cd74 O73 2.203 1_545 S
Cd74 O76 2.411 . S
Cd74 O77 2.333 . S
Cd74 O78 2.352 . S
Cd74 O82 2.277 1_545 S
Cd74 O83 2.356 . S
C75 O80 1.209 . S
C75 O82 1.226 . S
O76 Cd72 2.273 . S
O76 Cd74 2.411 . S
O76 C79 1.320 . S
O77 Cd74 2.333 . S
O77 C79 1.214 . S
O78 Cd74 2.352 . S
O78 C81 1.258 . S
C79 O76 1.320 . S
C79 O77 1.214 . S
O80 Cd72 2.277 1_565 S
O80 C75 1.209 . S
C81 O78 1.258 . S
C81 O83 1.282 . S
O82 Cd74 2.277 1_565 S
O82 C75 1.226 . S
O83 Cd74 2.356 . S
O83 C81 1.282 . S
C84 O85 1.306 1_455 S
C84 O87 1.160 . S
O85 C84 1.306 1_655 S
O85 Cd86 2.228 . S
Cd86 O85 2.228 . S
Cd86 O90 2.273 . S
Cd86 O94 2.277 1_655 S
O87 C84 1.160 . S
O87 Cd88 2.203 1_455 S
Cd88 O87 2.203 1_655 S
Cd88 O90 2.411 . S
Cd88 O91 2.333 . S
Cd88 O92 2.352 . S
Cd88 O96 2.277 1_655 S
Cd88 O97 2.356 . S
C89 O94 1.209 . S
C89 O96 1.226 . S
O90 Cd86 2.273 . S
O90 Cd88 2.411 . S
O90 C93 1.320 . S
O91 Cd88 2.333 . S
O91 C93 1.214 . S
O92 Cd88 2.352 . S
O92 C95 1.258 . S
C93 O90 1.320 . S
C93 O91 1.214 . S
O94 Cd86 2.277 1_455 S
O94 C89 1.209 . S
C95 O92 1.258 . S
C95 O97 1.282 . S
O96 Cd88 2.277 1_455 S
O96 C89 1.226 . S
O97 Cd88 2.356 . S
O97 C95 1.282 . S
C98 O99 1.306 1_545 S
C98 O101 1.160 . S
O99 C98 1.306 1_565 S
O99 Cd100 2.228 . S
Cd100 O99 2.228 . S
Cd100 O104 2.273 . S
Cd100 O108 2.277 1_565 S
O101 C98 1.160 . S
O101 Cd102 2.203 1_545 S
Cd102 O101 2.203 1_565 S
Cd102 O104 2.411 . S
Cd102 O105 2.333 . S
Cd102 O106 2.352 . S
Cd102 O110 2.277 1_565 S
Cd102 O111 2.356 . S
C103 O108 1.209 . S
C103 O110 1.226 . S
O104 Cd100 2.273 . S
O104 Cd102 2.411 . S
O104 C107 1.320 . S
O105 Cd102 2.333 . S
O105 C107 1.214 . S
O106 Cd102 2.352 . S
O106 C109 1.258 . S
C107 O104 1.320 . S
C107 O105 1.214 . S
O108 Cd100 2.277 1_545 S
O108 C103 1.209 . S
C109 O106 1.258 . S
C109 O111 1.282 . S
O110 Cd102 2.277 1_545 S
O110 C103 1.226 . S
O111 Cd102 2.356 . S
O111 C109 1.282 . S
C112 O113 1.306 . S
C112 O115 1.160 . S
O113 C112 1.306 . S
O113 Cd114 2.228 . S
Cd114 O113 2.228 . S
Cd114 O118 2.273 . S
Cd114 O122 2.277 . S
O115 C112 1.160 . S
O115 Cd116 2.203 . S
Cd116 O115 2.203 . S
Cd116 O118 2.411 . S
Cd116 O119 2.333 . S
Cd116 O120 2.352 . S
Cd116 O124 2.277 . S
Cd116 O125 2.356 . S
C117 O122 1.209 . S
C117 O124 1.226 . S
O118 Cd114 2.273 . S
O118 Cd116 2.411 . S
O118 C121 1.320 . S
O119 Cd116 2.333 . S
O119 C121 1.214 . S
O120 Cd116 2.352 . S
O120 C123 1.258 . S
C121 O118 1.320 . S
C121 O119 1.214 . S
O122 Cd114 2.277 . S
O122 C117 1.209 . S
C123 O120 1.258 . S
C123 O125 1.282 . S
O124 Cd116 2.277 . S
O124 C117 1.226 . S
O125 Cd116 2.356 . S
O125 C123 1.282 . S
C126 O127 1.306 . S
C126 O129 1.160 . S
O127 C126 1.306 . S
O127 Cd128 2.228 . S
Cd128 O127 2.228 . S
Cd128 O132 2.273 . S
Cd128 O136 2.277 . S
O129 C126 1.160 . S
O129 Cd130 2.203 . S
Cd130 O129 2.203 . S
Cd130 O132 2.411 . S
Cd130 O133 2.333 . S
Cd130 O134 2.352 . S
Cd130 O138 2.277 . S
Cd130 O139 2.356 . S
C131 O136 1.209 . S
C131 O138 1.226 . S
O132 Cd128 2.273 . S
O132 Cd130 2.411 . S
O132 C135 1.320 . S
O133 Cd130 2.333 . S
O133 C135 1.214 . S
O134 Cd130 2.352 . S
O134 C137 1.258 . S
C135 O132 1.320 . S
C135 O133 1.214 . S
O136 Cd128 2.277 . S
O136 C131 1.209 . S
C137 O134 1.258 . S
C137 O139 1.282 . S
O138 Cd130 2.277 . S
O138 C131 1.226 . S
O139 Cd130 2.356 . S
O139 C137 1.282 . S
C140 O141 1.306 . S
C140 O143 1.160 . S
O141 C140 1.306 . S
O141 Cd142 2.228 . S
Cd142 O141 2.228 . S
Cd142 O146 2.273 . S
Cd142 O150 2.277 . S
O143 C140 1.160 . S
O143 Cd144 2.203 . S
Cd144 O143 2.203 . S
Cd144 O146 2.411 . S
Cd144 O147 2.333 . S
Cd144 O148 2.352 . S
Cd144 O152 2.277 . S
Cd144 O153 2.356 . S
C145 O150 1.209 . S
C145 O152 1.226 . S
O146 Cd142 2.273 . S
O146 Cd144 2.411 . S
O146 C149 1.320 . S
O147 Cd144 2.333 . S
O147 C149 1.214 . S
O148 Cd144 2.352 . S
O148 C151 1.258 . S
C149 O146 1.320 . S
C149 O147 1.214 . S
O150 Cd142 2.277 . S
O150 C145 1.209 . S
C151 O148 1.258 . S
C151 O153 1.282 . S
O152 Cd144 2.277 . S
O152 C145 1.226 . S
O153 Cd144 2.356 . S
O153 C151 1.282 . S
C154 O155 1.306 . S
C154 O157 1.160 . S
O155 C154 1.306 . S
O155 Cd156 2.228 . S
Cd156 O155 2.228 . S
Cd156 O160 2.273 . S
Cd156 O164 2.277 . S
O157 C154 1.160 . S
O157 Cd158 2.203 . S
Cd158 O157 2.203 . S
Cd158 O160 2.411 . S
Cd158 O161 2.333 . S
Cd158 O162 2.352 . S
Cd158 O166 2.277 . S
Cd158 O167 2.356 . S
C159 O164 1.209 . S
C159 O166 1.226 . S
O160 Cd156 2.273 . S
O160 Cd158 2.411 . S
O160 C163 1.320 . S
O161 Cd158 2.333 . S
O161 C163 1.214 . S
O162 Cd158 2.352 . S
O162 C165 1.258 . S
C163 O160 1.320 . S
C163 O161 1.214 . S
O164 Cd156 2.277 . S
O164 C159 1.209 . S
C165 O162 1.258 . S
C165 O167 1.282 . S
O166 Cd158 2.277 . S
O166 C159 1.226 . S
O167 Cd158 2.356 . S
O167 C165 1.282 . S
C168 O169 1.306 . S
C168 O171 1.160 . S
O169 C168 1.306 . S
O169 Cd170 2.228 . S
Cd170 O169 2.228 . S
Cd170 O174 2.273 . S
Cd170 O178 2.277 . S
O171 C168 1.160 . S
O171 Cd172 2.203 . S
Cd172 O171 2.203 . S
Cd172 O174 2.411 . S
Cd172 O175 2.333 . S
Cd172 O176 2.352 . S
Cd172 O180 2.277 . S
Cd172 O181 2.356 . S
C173 O178 1.209 . S
C173 O180 1.226 . S
O174 Cd170 2.273 . S
O174 Cd172 2.411 . S
O174 C177 1.320 . S
O175 Cd172 2.333 . S
O175 C177 1.214 . S
O176 Cd172 2.352 . S
O176 C179 1.258 . S
C177 O174 1.320 . S
C177 O175 1.214 . S
O178 Cd170 2.277 . S
O178 C173 1.209 . S
C179 O176 1.258 . S
C179 O181 1.282 . S
O180 Cd172 2.277 . S
O180 C173 1.226 . S
O181 Cd172 2.356 . S
O181 C179 1.282 . S
C182 O183 1.306 . S
C182 O185 1.160 . S
O183 C182 1.306 . S
O183 Cd184 2.228 . S
Cd184 O183 2.228 . S
Cd184 O188 2.273 . S
Cd184 O192 2.277 . S
O185 C182 1.160 . S
O185 Cd186 2.203 . S
Cd186 O185 2.203 . S
Cd186 O188 2.411 . S
Cd186 O189 2.333 . S
Cd186 O190 2.352 . S
Cd186 O194 2.277 . S
Cd186 O195 2.356 . S
C187 O192 1.209 . S
C187 O194 1.226 . S
O188 Cd184 2.273 . S
O188 Cd186 2.411 . S
O188 C191 1.320 . S
O189 Cd186 2.333 . S
O189 C191 1.214 . S
O190 Cd186 2.352 . S
O190 C193 1.258 . S
C191 O188 1.320 . S
C191 O189 1.214 . S
O192 Cd184 2.277 . S
O192 C187 1.209 . S
C193 O190 1.258 . S
C193 O195 1.282 . S
O194 Cd186 2.277 . S
O194 C187 1.226 . S
O195 Cd186 2.356 . S
O195 C193 1.282 . S
C196 O197 1.306 . S
C196 O199 1.160 . S
O197 C196 1.306 . S
O197 Cd198 2.228 . S
Cd198 O197 2.228 . S
Cd198 O202 2.273 . S
Cd198 O206 2.277 . S
O199 C196 1.160 . S
O199 Cd200 2.203 . S
Cd200 O199 2.203 . S
Cd200 O202 2.411 . S
Cd200 O203 2.333 . S
Cd200 O204 2.352 . S
Cd200 O208 2.277 . S
Cd200 O209 2.356 . S
C201 O206 1.209 . S
C201 O208 1.226 . S
O202 Cd198 2.273 . S
O202 Cd200 2.411 . S
O202 C205 1.320 . S
O203 Cd200 2.333 . S
O203 C205 1.214 . S
O204 Cd200 2.352 . S
O204 C207 1.258 . S
C205 O202 1.320 . S
C205 O203 1.214 . S
O206 Cd198 2.277 . S
O206 C201 1.209 . S
C207 O204 1.258 . S
C207 O209 1.282 . S
O208 Cd200 2.277 . S
O208 C201 1.226 . S
O209 Cd200 2.356 . S
O209 C207 1.282 . S
C210 O211 1.306 . S
C210 O213 1.160 . S
O211 C210 1.306 . S
O211 Cd212 2.228 . S
Cd212 O211 2.228 . S
Cd212 O216 2.273 . S
Cd212 O220 2.277 . S
O213 C210 1.160 . S
O213 Cd214 2.203 . S
Cd214 O213 2.203 . S
Cd214 O216 2.411 . S
Cd214 O217 2.333 . S
Cd214 O218 2.352 . S
Cd214 O222 2.277 . S
Cd214 O223 2.356 . S
C215 O220 1.209 . S
C215 O222 1.226 . S
O216 Cd212 2.273 . S
O216 Cd214 2.411 . S
O216 C219 1.320 . S
O217 Cd214 2.333 . S
O217 C219 1.214 . S
O218 Cd214 2.352 . S
O218 C221 1.258 . S
C219 O216 1.320 . S
C219 O217 1.214 . S
O220 Cd212 2.277 . S
O220 C215 1.209 . S
C221 O218 1.258 . S
C221 O223 1.282 . S
O222 Cd214 2.277 . S
O222 C215 1.226 . S
O223 Cd214 2.356 . S
O223 C221 1.282 . S
C9 C47 1.619 . S
C5 C23 1.619 . S
C19 C37 1.619 . S
C33 C51 1.619 . S
C65 C75 1.619 . S
C79 C89 1.619 . S
C93 C103 1.619 . S
C107 C61 1.619 . S
C121 C159 1.619 . S
C117 C135 1.619 . S
C131 C149 1.619 . S
C163 C145 1.619 . S
C187 C177 1.619 . S
C201 C191 1.619 . S
C205 C215 1.619 . S
C219 C173 1.619 . S
C11 C221 1.866 . S
C25 C179 1.866 . S
C193 C39 1.866 . S
C53 C207 1.866 . S
C137 C67 1.866 . S
C151 C81 1.866 . S
C95 C165 1.866 . S
C109 C123 1.866 . S
C0 C84 1.695 1_655 S
C98 C14 1.695 1_545 S
C56 C28 1.695 1_655 S
C70 C42 1.695 1_565 S
C112 C196 1.695 1_556 S
C126 C210 1.695 1_556 S
C168 C140 1.695 1_554 S
C154 C182 1.695 1_556 S
