# Generated by pormake.
# Topology rho, (4)-cn, num edge types: 1
# Building blocks:
#     Node 0, Type 0, BuildingBlock: GALJAG_clean_sbu_0, # of connection points: 4
#     Node 1, Type 0, BuildingBlock: GALJAG_clean_sbu_0, # of connection points: 4
#     Node 2, Type 0, BuildingBlock: GALJAG_clean_sbu_0, # of connection points: 4
#     Node 3, Type 0, BuildingBlock: GALJAG_clean_sbu_0, # of connection points: 4
#     Node 4, Type 0, BuildingBlock: GALJAG_clean_sbu_0, # of connection points: 4
#     Node 5, Type 0, BuildingBlock: GALJAG_clean_sbu_0, # of connection points: 4
#     Node 6, Type 0, BuildingBlock: GALJAG_clean_sbu_0, # of connection points: 4
#     Node 7, Type 0, BuildingBlock: GALJAG_clean_sbu_0, # of connection points: 4
#     Node 8, Type 0, BuildingBlock: GALJAG_clean_sbu_0, # of connection points: 4
#     Node 9, Type 0, BuildingBlock: GALJAG_clean_sbu_0, # of connection points: 4
#     Node 10, Type 0, BuildingBlock: GALJAG_clean_sbu_0, # of connection points: 4
#     Node 11, Type 0, BuildingBlock: GALJAG_clean_sbu_0, # of connection points: 4
#     Node 12, Type 0, BuildingBlock: GALJAG_clean_sbu_0, # of connection points: 4
#     Node 13, Type 0, BuildingBlock: GALJAG_clean_sbu_0, # of connection points: 4
#     Node 14, Type 0, BuildingBlock: GALJAG_clean_sbu_0, # of connection points: 4
#     Node 15, Type 0, BuildingBlock: GALJAG_clean_sbu_0, # of connection points: 4
#     Node 16, Type 0, BuildingBlock: GALJAG_clean_sbu_0, # of connection points: 4
#     Node 17, Type 0, BuildingBlock: GALJAG_clean_sbu_0, # of connection points: 4
#     Node 18, Type 0, BuildingBlock: GALJAG_clean_sbu_0, # of connection points: 4
#     Node 19, Type 0, BuildingBlock: GALJAG_clean_sbu_0, # of connection points: 4
#     Node 20, Type 0, BuildingBlock: GALJAG_clean_sbu_0, # of connection points: 4
#     Node 21, Type 0, BuildingBlock: GALJAG_clean_sbu_0, # of connection points: 4
#     Node 22, Type 0, BuildingBlock: GALJAG_clean_sbu_0, # of connection points: 4
#     Node 23, Type 0, BuildingBlock: GALJAG_clean_sbu_0, # of connection points: 4
#     Node 24, Type 0, BuildingBlock: GALJAG_clean_sbu_0, # of connection points: 4
#     Node 25, Type 0, BuildingBlock: GALJAG_clean_sbu_0, # of connection points: 4
#     Node 26, Type 0, BuildingBlock: GALJAG_clean_sbu_0, # of connection points: 4
#     Node 27, Type 0, BuildingBlock: GALJAG_clean_sbu_0, # of connection points: 4
#     Node 28, Type 0, BuildingBlock: GALJAG_clean_sbu_0, # of connection points: 4
#     Node 29, Type 0, BuildingBlock: GALJAG_clean_sbu_0, # of connection points: 4
#     Node 30, Type 0, BuildingBlock: GALJAG_clean_sbu_0, # of connection points: 4
#     Node 31, Type 0, BuildingBlock: GALJAG_clean_sbu_0, # of connection points: 4
#     Node 32, Type 0, BuildingBlock: GALJAG_clean_sbu_0, # of connection points: 4
#     Node 33, Type 0, BuildingBlock: GALJAG_clean_sbu_0, # of connection points: 4
#     Node 34, Type 0, BuildingBlock: GALJAG_clean_sbu_0, # of connection points: 4
#     Node 35, Type 0, BuildingBlock: GALJAG_clean_sbu_0, # of connection points: 4
#     Node 36, Type 0, BuildingBlock: GALJAG_clean_sbu_0, # of connection points: 4
#     Node 37, Type 0, BuildingBlock: GALJAG_clean_sbu_0, # of connection points: 4
#     Node 38, Type 0, BuildingBlock: GALJAG_clean_sbu_0, # of connection points: 4
#     Node 39, Type 0, BuildingBlock: GALJAG_clean_sbu_0, # of connection points: 4
#     Node 40, Type 0, BuildingBlock: GALJAG_clean_sbu_0, # of connection points: 4
#     Node 41, Type 0, BuildingBlock: GALJAG_clean_sbu_0, # of connection points: 4
#     Node 42, Type 0, BuildingBlock: GALJAG_clean_sbu_0, # of connection points: 4
#     Node 43, Type 0, BuildingBlock: GALJAG_clean_sbu_0, # of connection points: 4
#     Node 44, Type 0, BuildingBlock: GALJAG_clean_sbu_0, # of connection points: 4
#     Node 45, Type 0, BuildingBlock: GALJAG_clean_sbu_0, # of connection points: 4
#     Node 46, Type 0, BuildingBlock: GALJAG_clean_sbu_0, # of connection points: 4
#     Node 47, Type 0, BuildingBlock: GALJAG_clean_sbu_0, # of connection points: 4
#     Edge 48, Type (0, 0), BuildingBlock: AJUNOK_clean_linker_0, # of connection points: 2
#     Edge 49, Type (0, 0), BuildingBlock: AJUNOK_clean_linker_0, # of connection points: 2
#     Edge 50, Type (0, 0), BuildingBlock: AJUNOK_clean_linker_0, # of connection points: 2
#     Edge 51, Type (0, 0), BuildingBlock: AJUNOK_clean_linker_0, # of connection points: 2
#     Edge 52, Type (0, 0), BuildingBlock: AJUNOK_clean_linker_0, # of connection points: 2
#     Edge 53, Type (0, 0), BuildingBlock: AJUNOK_clean_linker_0, # of connection points: 2
#     Edge 54, Type (0, 0), BuildingBlock: AJUNOK_clean_linker_0, # of connection points: 2
#     Edge 55, Type (0, 0), BuildingBlock: AJUNOK_clean_linker_0, # of connection points: 2
#     Edge 56, Type (0, 0), BuildingBlock: AJUNOK_clean_linker_0, # of connection points: 2
#     Edge 57, Type (0, 0), BuildingBlock: AJUNOK_clean_linker_0, # of connection points: 2
#     Edge 58, Type (0, 0), BuildingBlock: AJUNOK_clean_linker_0, # of connection points: 2
#     Edge 59, Type (0, 0), BuildingBlock: AJUNOK_clean_linker_0, # of connection points: 2
#     Edge 60, Type (0, 0), BuildingBlock: AJUNOK_clean_linker_0, # of connection points: 2
#     Edge 61, Type (0, 0), BuildingBlock: AJUNOK_clean_linker_0, # of connection points: 2
#     Edge 62, Type (0, 0), BuildingBlock: AJUNOK_clean_linker_0, # of connection points: 2
#     Edge 63, Type (0, 0), BuildingBlock: AJUNOK_clean_linker_0, # of connection points: 2
#     Edge 64, Type (0, 0), BuildingBlock: AJUNOK_clean_linker_0, # of connection points: 2
#     Edge 65, Type (0, 0), BuildingBlock: AJUNOK_clean_linker_0, # of connection points: 2
#     Edge 66, Type (0, 0), BuildingBlock: AJUNOK_clean_linker_0, # of connection points: 2
#     Edge 67, Type (0, 0), BuildingBlock: AJUNOK_clean_linker_0, # of connection points: 2
#     Edge 68, Type (0, 0), BuildingBlock: AJUNOK_clean_linker_0, # of connection points: 2
#     Edge 69, Type (0, 0), BuildingBlock: AJUNOK_clean_linker_0, # of connection points: 2
#     Edge 70, Type (0, 0), BuildingBlock: AJUNOK_clean_linker_0, # of connection points: 2
#     Edge 71, Type (0, 0), BuildingBlock: AJUNOK_clean_linker_0, # of connection points: 2
#     Edge 72, Type (0, 0), BuildingBlock: AJUNOK_clean_linker_0, # of connection points: 2
#     Edge 73, Type (0, 0), BuildingBlock: AJUNOK_clean_linker_0, # of connection points: 2
#     Edge 74, Type (0, 0), BuildingBlock: AJUNOK_clean_linker_0, # of connection points: 2
#     Edge 75, Type (0, 0), BuildingBlock: AJUNOK_clean_linker_0, # of connection points: 2
#     Edge 76, Type (0, 0), BuildingBlock: AJUNOK_clean_linker_0, # of connection points: 2
#     Edge 77, Type (0, 0), BuildingBlock: AJUNOK_clean_linker_0, # of connection points: 2
#     Edge 78, Type (0, 0), BuildingBlock: AJUNOK_clean_linker_0, # of connection points: 2
#     Edge 79, Type (0, 0), BuildingBlock: AJUNOK_clean_linker_0, # of connection points: 2
#     Edge 80, Type (0, 0), BuildingBlock: AJUNOK_clean_linker_0, # of connection points: 2
#     Edge 81, Type (0, 0), BuildingBlock: AJUNOK_clean_linker_0, # of connection points: 2
#     Edge 82, Type (0, 0), BuildingBlock: AJUNOK_clean_linker_0, # of connection points: 2
#     Edge 83, Type (0, 0), BuildingBlock: AJUNOK_clean_linker_0, # of connection points: 2
#     Edge 84, Type (0, 0), BuildingBlock: AJUNOK_clean_linker_0, # of connection points: 2
#     Edge 85, Type (0, 0), BuildingBlock: AJUNOK_clean_linker_0, # of connection points: 2
#     Edge 86, Type (0, 0), BuildingBlock: AJUNOK_clean_linker_0, # of connection points: 2
#     Edge 87, Type (0, 0), BuildingBlock: AJUNOK_clean_linker_0, # of connection points: 2
#     Edge 88, Type (0, 0), BuildingBlock: AJUNOK_clean_linker_0, # of connection points: 2
#     Edge 89, Type (0, 0), BuildingBlock: AJUNOK_clean_linker_0, # of connection points: 2
#     Edge 90, Type (0, 0), BuildingBlock: AJUNOK_clean_linker_0, # of connection points: 2
#     Edge 91, Type (0, 0), BuildingBlock: AJUNOK_clean_linker_0, # of connection points: 2
#     Edge 92, Type (0, 0), BuildingBlock: AJUNOK_clean_linker_0, # of connection points: 2
#     Edge 93, Type (0, 0), BuildingBlock: AJUNOK_clean_linker_0, # of connection points: 2
#     Edge 94, Type (0, 0), BuildingBlock: AJUNOK_clean_linker_0, # of connection points: 2
#     Edge 95, Type (0, 0), BuildingBlock: AJUNOK_clean_linker_0, # of connection points: 2
#     Edge 96, Type (0, 0), BuildingBlock: AJUNOK_clean_linker_0, # of connection points: 2
#     Edge 97, Type (0, 0), BuildingBlock: AJUNOK_clean_linker_0, # of connection points: 2
#     Edge 98, Type (0, 0), BuildingBlock: AJUNOK_clean_linker_0, # of connection points: 2
#     Edge 99, Type (0, 0), BuildingBlock: AJUNOK_clean_linker_0, # of connection points: 2
#     Edge 100, Type (0, 0), BuildingBlock: AJUNOK_clean_linker_0, # of connection points: 2
#     Edge 101, Type (0, 0), BuildingBlock: AJUNOK_clean_linker_0, # of connection points: 2
#     Edge 102, Type (0, 0), BuildingBlock: AJUNOK_clean_linker_0, # of connection points: 2
#     Edge 103, Type (0, 0), BuildingBlock: AJUNOK_clean_linker_0, # of connection points: 2
#     Edge 104, Type (0, 0), BuildingBlock: AJUNOK_clean_linker_0, # of connection points: 2
#     Edge 105, Type (0, 0), BuildingBlock: AJUNOK_clean_linker_0, # of connection points: 2
#     Edge 106, Type (0, 0), BuildingBlock: AJUNOK_clean_linker_0, # of connection points: 2
#     Edge 107, Type (0, 0), BuildingBlock: AJUNOK_clean_linker_0, # of connection points: 2
#     Edge 108, Type (0, 0), BuildingBlock: AJUNOK_clean_linker_0, # of connection points: 2
#     Edge 109, Type (0, 0), BuildingBlock: AJUNOK_clean_linker_0, # of connection points: 2
#     Edge 110, Type (0, 0), BuildingBlock: AJUNOK_clean_linker_0, # of connection points: 2
#     Edge 111, Type (0, 0), BuildingBlock: AJUNOK_clean_linker_0, # of connection points: 2
#     Edge 112, Type (0, 0), BuildingBlock: AJUNOK_clean_linker_0, # of connection points: 2
#     Edge 113, Type (0, 0), BuildingBlock: AJUNOK_clean_linker_0, # of connection points: 2
#     Edge 114, Type (0, 0), BuildingBlock: AJUNOK_clean_linker_0, # of connection points: 2
#     Edge 115, Type (0, 0), BuildingBlock: AJUNOK_clean_linker_0, # of connection points: 2
#     Edge 116, Type (0, 0), BuildingBlock: AJUNOK_clean_linker_0, # of connection points: 2
#     Edge 117, Type (0, 0), BuildingBlock: AJUNOK_clean_linker_0, # of connection points: 2
#     Edge 118, Type (0, 0), BuildingBlock: AJUNOK_clean_linker_0, # of connection points: 2
#     Edge 119, Type (0, 0), BuildingBlock: AJUNOK_clean_linker_0, # of connection points: 2
#     Edge 120, Type (0, 0), BuildingBlock: AJUNOK_clean_linker_0, # of connection points: 2
#     Edge 121, Type (0, 0), BuildingBlock: AJUNOK_clean_linker_0, # of connection points: 2
#     Edge 122, Type (0, 0), BuildingBlock: AJUNOK_clean_linker_0, # of connection points: 2
#     Edge 123, Type (0, 0), BuildingBlock: AJUNOK_clean_linker_0, # of connection points: 2
#     Edge 124, Type (0, 0), BuildingBlock: AJUNOK_clean_linker_0, # of connection points: 2
#     Edge 125, Type (0, 0), BuildingBlock: AJUNOK_clean_linker_0, # of connection points: 2
#     Edge 126, Type (0, 0), BuildingBlock: AJUNOK_clean_linker_0, # of connection points: 2
#     Edge 127, Type (0, 0), BuildingBlock: AJUNOK_clean_linker_0, # of connection points: 2
#     Edge 128, Type (0, 0), BuildingBlock: AJUNOK_clean_linker_0, # of connection points: 2
#     Edge 129, Type (0, 0), BuildingBlock: AJUNOK_clean_linker_0, # of connection points: 2
#     Edge 130, Type (0, 0), BuildingBlock: AJUNOK_clean_linker_0, # of connection points: 2
#     Edge 131, Type (0, 0), BuildingBlock: AJUNOK_clean_linker_0, # of connection points: 2
#     Edge 132, Type (0, 0), BuildingBlock: AJUNOK_clean_linker_0, # of connection points: 2
#     Edge 133, Type (0, 0), BuildingBlock: AJUNOK_clean_linker_0, # of connection points: 2
#     Edge 134, Type (0, 0), BuildingBlock: AJUNOK_clean_linker_0, # of connection points: 2
#     Edge 135, Type (0, 0), BuildingBlock: AJUNOK_clean_linker_0, # of connection points: 2
#     Edge 136, Type (0, 0), BuildingBlock: AJUNOK_clean_linker_0, # of connection points: 2
#     Edge 137, Type (0, 0), BuildingBlock: AJUNOK_clean_linker_0, # of connection points: 2
#     Edge 138, Type (0, 0), BuildingBlock: AJUNOK_clean_linker_0, # of connection points: 2
#     Edge 139, Type (0, 0), BuildingBlock: AJUNOK_clean_linker_0, # of connection points: 2
#     Edge 140, Type (0, 0), BuildingBlock: AJUNOK_clean_linker_0, # of connection points: 2
#     Edge 141, Type (0, 0), BuildingBlock: AJUNOK_clean_linker_0, # of connection points: 2
#     Edge 142, Type (0, 0), BuildingBlock: AJUNOK_clean_linker_0, # of connection points: 2
#     Edge 143, Type (0, 0), BuildingBlock: AJUNOK_clean_linker_0, # of connection points: 2
# Relax obj value: 0.062
# Max RMSD: 0.056
# Mean RMSD: 0.055
data_MOF--net-rho--node1-GALJAG_clean_sbu_0--edge1-AJUNOK_clean_linker_0
_symmetry_space_group_name_H-M    P1
_symmetry_Int_Tables_number       1
_symmetry_cell_setting            triclinic
loop_
_symmetry_equiv_pos_as_xyz
'x, y, z'
_cell_length_a     53.765489
_cell_length_b     53.77124
_cell_length_c     53.765287
_cell_angle_alpha  90.04956
_cell_angle_beta   90.027243
_cell_angle_gamma 90.161441
loop_
_atom_site_label
_atom_site_type_symbol
_atom_site_fract_x
_atom_site_fract_y
_atom_site_fract_z
_atom_type_partial_charge
In0 In 0.10411 0.2497 0.39681 0.0
O1 O 0.1156 0.26974 0.43283 0.0
O2 O 0.10564 0.23147 0.43458 0.0
C3 C 0.11271 0.28408 0.36129 0.0
C4 C 0.13768 0.21443 0.38545 0.0
C5 C 0.05386 0.24785 0.39677 0.0
O6 O 0.11651 0.28851 0.38407 0.0
O7 O 0.10473 0.26249 0.3567 0.0
O8 O 0.06684 0.23132 0.3863 0.0
O9 O 0.06627 0.26506 0.40678 0.0
C10 C 0.11279 0.25057 0.44619 0.0
O11 O 0.11452 0.21033 0.38489 0.0
O12 O 0.14368 0.23643 0.39116 0.0
In13 In 0.75022 0.10278 0.39569 0.0
O14 O 0.7703 0.06641 0.38617 0.0
O15 O 0.73468 0.06436 0.40316 0.0
C16 C 0.78445 0.13798 0.3853 0.0
C17 C 0.71678 0.10946 0.35893 0.0
C18 C 0.74727 0.10941 0.44534 0.0
O19 O 0.78957 0.11505 0.38507 0.0
O20 O 0.76208 0.1429 0.39037 0.0
O21 O 0.72892 0.11345 0.43119 0.0
O22 O 0.76671 0.10236 0.43431 0.0
C23 C 0.75304 0.05272 0.39443 0.0
O24 O 0.71196 0.11481 0.38133 0.0
O25 O 0.73842 0.1012 0.35534 0.0
In26 In 0.8947 0.74912 0.39586 0.0
O27 O 0.88339 0.78836 0.38444 0.0
O28 O 0.85474 0.76217 0.39219 0.0
C29 C 0.94482 0.75166 0.39353 0.0
C30 C 0.88857 0.74656 0.44559 0.0
C31 C 0.8862 0.71534 0.35973 0.0
O32 O 0.93109 0.76905 0.38578 0.0
O33 O 0.93318 0.73324 0.40223 0.0
O34 O 0.88292 0.71039 0.38247 0.0
O35 O 0.8934 0.73726 0.35546 0.0
C36 C 0.86032 0.78416 0.38609 0.0
O37 O 0.88328 0.72847 0.43148 0.0
O38 O 0.8967 0.76556 0.43449 0.0
In39 In 0.24831 0.89579 0.39675 0.0
O40 O 0.23039 0.93306 0.38591 0.0
O41 O 0.2641 0.93351 0.40649 0.0
C42 C 0.21342 0.86159 0.38531 0.0
C43 C 0.28378 0.88746 0.36231 0.0
C44 C 0.24821 0.8887 0.44635 0.0
O45 O 0.2093 0.88469 0.38387 0.0
O46 O 0.23525 0.85599 0.39183 0.0
O47 O 0.26729 0.88449 0.43326 0.0
O48 O 0.22959 0.89629 0.43432 0.0
C49 C 0.24705 0.94598 0.39641 0.0
O50 O 0.28713 0.88289 0.38512 0.0
O51 O 0.26252 0.89585 0.35706 0.0
In52 In 0.10313 0.7512 0.60445 0.0
O53 O 0.06571 0.76937 0.61444 0.0
O54 O 0.06559 0.73478 0.59533 0.0
C55 C 0.13777 0.78557 0.61604 0.0
C56 C 0.11116 0.71681 0.63999 0.0
C57 C 0.11053 0.75068 0.55487 0.0
O58 O 0.11476 0.79043 0.61641 0.0
O59 O 0.14298 0.76344 0.61024 0.0
O60 O 0.11441 0.73166 0.56815 0.0
O61 O 0.10315 0.76951 0.56671 0.0
C62 C 0.05295 0.75214 0.60467 0.0
O63 O 0.11575 0.71263 0.61729 0.0
O64 O 0.10273 0.73822 0.64448 0.0
In65 In 0.24979 0.10469 0.60398 0.0
O66 O 0.21058 0.11582 0.61612 0.0
O67 O 0.23738 0.14439 0.61021 0.0
C68 C 0.249 0.05449 0.6059 0.0
C69 C 0.24997 0.112 0.55436 0.0
C70 C 0.28522 0.1133 0.63842 0.0
O71 O 0.23143 0.06744 0.61458 0.0
O72 O 0.26642 0.06693 0.59635 0.0
O73 O 0.28866 0.1176 0.61557 0.0
O74 O 0.26382 0.10517 0.64374 0.0
C75 C 0.21527 0.13888 0.61591 0.0
O76 O 0.26905 0.11596 0.56755 0.0
O77 O 0.23126 0.10435 0.56624 0.0
In78 In 0.8952 0.24967 0.60291 0.0
O79 O 0.88267 0.28828 0.61543 0.0
O80 O 0.89656 0.26343 0.64281 0.0
C81 C 0.88773 0.25166 0.5534 0.0
C82 C 0.94537 0.24729 0.60282 0.0
C83 C 0.86027 0.2154 0.61406 0.0
O84 O 0.88409 0.27027 0.56731 0.0
O85 O 0.89475 0.23232 0.56462 0.0
O86 O 0.88324 0.2104 0.6143 0.0
O87 O 0.85523 0.23765 0.60871 0.0
C88 C 0.88792 0.2847 0.63805 0.0
O89 O 0.93219 0.23077 0.61319 0.0
O90 O 0.93317 0.26474 0.59311 0.0
In91 In 0.75041 0.89526 0.60429 0.0
O92 O 0.72975 0.88487 0.56825 0.0
O93 O 0.76807 0.89455 0.56629 0.0
C94 C 0.71641 0.88865 0.64055 0.0
C95 C 0.78406 0.85989 0.61524 0.0
C96 C 0.7537 0.94532 0.60534 0.0
O97 O 0.71173 0.8836 0.61804 0.0
O98 O 0.73817 0.89657 0.64447 0.0
O99 O 0.77072 0.93161 0.61392 0.0
O100 O 0.73538 0.93369 0.59637 0.0
C101 C 0.74878 0.88785 0.55473 0.0
O102 O 0.7894 0.88281 0.61566 0.0
O103 O 0.7617 0.85507 0.60986 0.0
In104 In 0.39636 0.10446 0.2521 0.0
O105 O 0.38411 0.11777 0.2906 0.0
O106 O 0.3563 0.1059 0.26507 0.0
C107 C 0.44633 0.10907 0.25367 0.0
C108 C 0.39256 0.05442 0.25177 0.0
C109 C 0.38663 0.1386 0.21674 0.0
O110 O 0.43271 0.11562 0.27168 0.0
O111 O 0.43465 0.10043 0.23523 0.0
O112 O 0.384 0.11554 0.21297 0.0
O113 O 0.39358 0.14426 0.23845 0.0
C114 C 0.36126 0.11386 0.2866 0.0
O115 O 0.38587 0.06744 0.23338 0.0
O116 O 0.40114 0.06671 0.26981 0.0
In117 In 0.89573 0.39535 0.25001 0.0
O118 O 0.93243 0.3853 0.23056 0.0
O119 O 0.9335 0.39793 0.26803 0.0
C120 C 0.86038 0.38628 0.21561 0.0
C121 C 0.88645 0.3594 0.28358 0.0
C122 C 0.89228 0.44534 0.25252 0.0
O123 O 0.8833 0.38417 0.2108 0.0
O124 O 0.85558 0.39265 0.23768 0.0
O125 O 0.88461 0.43147 0.2699 0.0
O126 O 0.90142 0.43388 0.23422 0.0
C127 C 0.94557 0.3903 0.24945 0.0
O128 O 0.88384 0.38223 0.28867 0.0
O129 O 0.89313 0.35498 0.26152 0.0
In130 In 0.60291 0.89422 0.25047 0.0
O131 O 0.61451 0.88169 0.28942 0.0
O132 O 0.64266 0.8938 0.26439 0.0
C133 C 0.55291 0.89124 0.25059 0.0
C134 C 0.60531 0.94422 0.24936 0.0
C135 C 0.61282 0.85894 0.2163 0.0
O136 O 0.56573 0.88341 0.2687 0.0
O137 O 0.56544 0.89967 0.23266 0.0
O138 O 0.61561 0.88184 0.21174 0.0
O139 O 0.60547 0.85411 0.23805 0.0
C140 C 0.63738 0.8859 0.28586 0.0
O141 O 0.61407 0.93109 0.2319 0.0
O142 O 0.59616 0.93198 0.26715 0.0
In143 In 0.10418 0.60371 0.25077 0.0
O144 O 0.11401 0.56646 0.26933 0.0
O145 O 0.09854 0.56613 0.23299 0.0
C146 C 0.11308 0.63788 0.2864 0.0
C147 C 0.14014 0.61309 0.21709 0.0
C148 C 0.05435 0.60853 0.24824 0.0
O149 O 0.11568 0.61483 0.29023 0.0
O150 O 0.10658 0.64346 0.26455 0.0
O151 O 0.06843 0.61561 0.23076 0.0
O152 O 0.06554 0.59939 0.26669 0.0
C153 C 0.10674 0.5536 0.25099 0.0
O154 O 0.11734 0.61616 0.21226 0.0
O155 O 0.14459 0.60579 0.23894 0.0
In156 In 0.39587 0.89475 0.74931 0.0
O157 O 0.38247 0.8828 0.78778 0.0
O158 O 0.39348 0.85466 0.7623 0.0
C159 C 0.39175 0.9447 0.75157 0.0
C160 C 0.44588 0.89052 0.74913 0.0
C161 C 0.36136 0.88559 0.71403 0.0
O162 O 0.38479 0.9308 0.76919 0.0
O163 O 0.40064 0.93332 0.7331 0.0
O164 O 0.38435 0.88265 0.7101 0.0
O165 O 0.35602 0.8925 0.73581 0.0
C166 C 0.38572 0.85986 0.78384 0.0
O167 O 0.4329 0.88467 0.73038 0.0
O168 O 0.43358 0.89847 0.7674 0.0
In169 In 0.1041 0.39527 0.74922 0.0
O170 O 0.11623 0.4311 0.72928 0.0
O171 O 0.09945 0.4339 0.76495 0.0
C172 C 0.1122 0.35893 0.71572 0.0
C173 C 0.13913 0.38592 0.78381 0.0
C174 C 0.0541 0.3918 0.75 0.0
O175 O 0.11579 0.38163 0.71065 0.0
O176 O 0.10515 0.35483 0.73772 0.0
O177 O 0.06719 0.3858 0.76861 0.0
O178 O 0.06633 0.39951 0.73154 0.0
C179 C 0.10889 0.44514 0.74666 0.0
O180 O 0.11615 0.3842 0.78853 0.0
O181 O 0.14415 0.39196 0.7617 0.0
In182 In 0.6046 0.10391 0.75084 0.0
O183 O 0.61543 0.06811 0.77127 0.0
O184 O 0.60036 0.0654 0.73475 0.0
C185 C 0.61332 0.14041 0.7841 0.0
C186 C 0.64027 0.11183 0.71656 0.0
C187 C 0.55453 0.10578 0.74967 0.0
O188 O 0.61651 0.11772 0.78932 0.0
O189 O 0.60613 0.14446 0.76213 0.0
O190 O 0.56756 0.11375 0.73174 0.0
O191 O 0.56688 0.09759 0.76781 0.0
C192 C 0.6087 0.05412 0.75354 0.0
O193 O 0.61744 0.11489 0.71171 0.0
O194 O 0.64478 0.10535 0.73865 0.0
In195 In 0.89617 0.6028 0.74966 0.0
O196 O 0.93359 0.61267 0.76787 0.0
O197 O 0.93359 0.59614 0.73197 0.0
C198 C 0.86191 0.61345 0.78452 0.0
C199 C 0.88726 0.63846 0.71568 0.0
C200 C 0.89037 0.55301 0.74968 0.0
O201 O 0.88499 0.61582 0.78851 0.0
O202 O 0.85635 0.60624 0.76286 0.0
O203 O 0.88468 0.56605 0.73094 0.0
O204 O 0.89881 0.56519 0.76788 0.0
C205 C 0.94628 0.60474 0.74973 0.0
O206 O 0.88343 0.61569 0.71108 0.0
O207 O 0.89515 0.64293 0.73733 0.0
In208 In 0.25 0.39542 0.10466 0.0
O209 O 0.28907 0.38279 0.11598 0.0
O210 O 0.26185 0.35516 0.10818 0.0
C211 C 0.25267 0.44542 0.10855 0.0
C212 C 0.24754 0.39097 0.05471 0.0
C213 C 0.21484 0.38687 0.13938 0.0
O214 O 0.27011 0.43151 0.1159 0.0
O215 O 0.23425 0.43402 0.09951 0.0
O216 O 0.21097 0.38341 0.11645 0.0
O217 O 0.23653 0.3942 0.14466 0.0
C218 C 0.28401 0.35988 0.1143 0.0
O219 O 0.22973 0.3846 0.06866 0.0
O220 O 0.26634 0.3993 0.06605 0.0
In221 In 0.24974 0.60296 0.89637 0.0
O222 O 0.26965 0.5669 0.88518 0.0
O223 O 0.23366 0.56438 0.90128 0.0
C224 C 0.28396 0.63842 0.88661 0.0
C225 C 0.21466 0.61159 0.86158 0.0
C226 C 0.24757 0.60735 0.94636 0.0
O227 O 0.28884 0.6155 0.88488 0.0
O228 O 0.26189 0.64318 0.89289 0.0
O229 O 0.22977 0.61388 0.93249 0.0
O230 O 0.2662 0.5989 0.93491 0.0
C231 C 0.25208 0.55299 0.89236 0.0
O232 O 0.21067 0.61474 0.88452 0.0
O233 O 0.23641 0.60453 0.85634 0.0
In234 In 0.39436 0.24861 0.89662 0.0
O235 O 0.38424 0.22844 0.93286 0.0
O236 O 0.3985 0.26524 0.93511 0.0
C237 C 0.38589 0.21345 0.86181 0.0
C238 C 0.35866 0.2825 0.88739 0.0
C239 C 0.44422 0.25176 0.89198 0.0
O240 O 0.38271 0.20943 0.88474 0.0
O241 O 0.39279 0.23529 0.85661 0.0
O242 O 0.42999 0.26887 0.88453 0.0
O243 O 0.4332 0.23341 0.90161 0.0
C244 C 0.39054 0.24644 0.94665 0.0
O245 O 0.38154 0.28758 0.88553 0.0
O246 O 0.354 0.26032 0.89347 0.0
In247 In 0.75044 0.39716 0.89548 0.0
O248 O 0.78932 0.38392 0.88463 0.0
O249 O 0.76358 0.3921 0.85576 0.0
C250 C 0.75166 0.39647 0.94566 0.0
C251 C 0.75055 0.44683 0.88866 0.0
C252 C 0.71464 0.3629 0.88725 0.0
O253 O 0.76856 0.38649 0.93273 0.0
O254 O 0.73446 0.4063 0.93319 0.0
O255 O 0.71157 0.38567 0.88238 0.0
O256 O 0.73583 0.35757 0.8958 0.0
C257 C 0.7853 0.38533 0.86151 0.0
O258 O 0.73153 0.43368 0.88413 0.0
O259 O 0.76911 0.43482 0.89639 0.0
In260 In 0.6039 0.74925 0.89573 0.0
O261 O 0.61619 0.71029 0.88378 0.0
O262 O 0.64399 0.73723 0.89236 0.0
C263 C 0.55389 0.74899 0.89174 0.0
C264 C 0.60855 0.74971 0.94567 0.0
C265 C 0.61368 0.78333 0.86041 0.0
O266 O 0.56686 0.7306 0.88494 0.0
O267 O 0.56625 0.76694 0.90046 0.0
O268 O 0.61645 0.78799 0.88332 0.0
O269 O 0.60635 0.76153 0.8556 0.0
C270 C 0.63914 0.71522 0.88573 0.0
O271 O 0.61439 0.76837 0.93257 0.0
O272 O 0.60045 0.73135 0.9335 0.0
In273 In 0.74938 0.60354 0.10344 0.0
O274 O 0.76913 0.61474 0.06732 0.0
O275 O 0.73333 0.59818 0.06481 0.0
C276 C 0.78484 0.61237 0.1378 0.0
C277 C 0.7154 0.63911 0.11295 0.0
C278 C 0.74681 0.5537 0.10858 0.0
O279 O 0.78876 0.61482 0.11477 0.0
O280 O 0.76292 0.60601 0.14337 0.0
O281 O 0.72906 0.56771 0.11493 0.0
O282 O 0.76545 0.56493 0.09981 0.0
C283 C 0.75169 0.6073 0.0534 0.0
O284 O 0.71042 0.61621 0.11493 0.0
O285 O 0.73748 0.64382 0.10655 0.0
In286 In 0.39556 0.75083 0.10396 0.0
O287 O 0.38377 0.79016 0.11518 0.0
O288 O 0.39292 0.76443 0.14375 0.0
C289 C 0.39347 0.751 0.05381 0.0
C290 C 0.44539 0.7485 0.10893 0.0
C291 C 0.35971 0.71688 0.11304 0.0
O292 O 0.38561 0.76914 0.06656 0.0
O293 O 0.40185 0.73318 0.06646 0.0
O294 O 0.38249 0.71229 0.1165 0.0
O295 O 0.35522 0.73859 0.10543 0.0
C296 C 0.38622 0.78622 0.13824 0.0
O297 O 0.43131 0.73099 0.11598 0.0
O298 O 0.43419 0.76697 0.09984 0.0
In299 In 0.60344 0.2488 0.10303 0.0
O300 O 0.56783 0.26872 0.11558 0.0
O301 O 0.5648 0.23262 0.09968 0.0
C302 C 0.64 0.28225 0.11119 0.0
C303 C 0.61338 0.21304 0.13667 0.0
C304 C 0.60471 0.24904 0.05291 0.0
O305 O 0.61748 0.28689 0.11614 0.0
O306 O 0.64383 0.26071 0.10273 0.0
O307 O 0.61269 0.23077 0.06537 0.0
O308 O 0.59644 0.26675 0.06582 0.0
C309 C 0.55369 0.2511 0.10888 0.0
O310 O 0.61476 0.2092 0.11351 0.0
O311 O 0.60751 0.23496 0.14262 0.0
In312 In 0.89443 0.74885 0.60334 0.0
O313 O 0.88293 0.72833 0.56766 0.0
O314 O 0.89541 0.76578 0.56493 0.0
C315 C 0.88685 0.71475 0.63929 0.0
C316 C 0.85967 0.78322 0.6141 0.0
C317 C 0.9446 0.75086 0.6041 0.0
O318 O 0.88252 0.71014 0.61663 0.0
O319 O 0.89471 0.73647 0.64355 0.0
O320 O 0.93145 0.76799 0.61337 0.0
O321 O 0.93235 0.73304 0.59498 0.0
C322 C 0.88771 0.74665 0.55369 0.0
O323 O 0.88268 0.78813 0.61461 0.0
O324 O 0.85446 0.76101 0.60849 0.0
In325 In 0.24886 0.89594 0.60406 0.0
O326 O 0.23086 0.93324 0.61478 0.0
O327 O 0.26598 0.9336 0.59677 0.0
C328 C 0.21435 0.86155 0.61601 0.0
C329 C 0.28446 0.887 0.63815 0.0
C330 C 0.24855 0.8892 0.55435 0.0
O331 O 0.20975 0.88459 0.61666 0.0
O332 O 0.23632 0.85617 0.60981 0.0
O333 O 0.26754 0.88455 0.5674 0.0
O334 O 0.23014 0.89717 0.56644 0.0
C335 C 0.24862 0.94612 0.60623 0.0
O336 O 0.28772 0.88293 0.61522 0.0
O337 O 0.26317 0.89514 0.64371 0.0
In338 In 0.10388 0.24828 0.60322 0.0
O339 O 0.11516 0.26887 0.56752 0.0
O340 O 0.10622 0.23037 0.56531 0.0
C341 C 0.11084 0.28241 0.63932 0.0
C342 C 0.13848 0.21421 0.61522 0.0
C343 C 0.05369 0.2462 0.60239 0.0
O344 O 0.11621 0.28677 0.61684 0.0
O345 O 0.10217 0.26096 0.64331 0.0
O346 O 0.06655 0.22947 0.61273 0.0
O347 O 0.06622 0.26359 0.5929 0.0
C348 C 0.11291 0.24977 0.55394 0.0
O349 O 0.11552 0.20898 0.61455 0.0
O350 O 0.14364 0.23657 0.61026 0.0
In351 In 0.74991 0.1036 0.60318 0.0
O352 O 0.77042 0.06756 0.61304 0.0
O353 O 0.73465 0.0649 0.59645 0.0
C354 C 0.78402 0.13894 0.61359 0.0
C355 C 0.71611 0.11095 0.63948 0.0
C356 C 0.74714 0.1098 0.55345 0.0
O357 O 0.7891 0.11601 0.6142 0.0
O358 O 0.76175 0.14382 0.60806 0.0
O359 O 0.72877 0.11401 0.56751 0.0
O360 O 0.76652 0.1028 0.56461 0.0
C361 C 0.75323 0.05357 0.60512 0.0
O362 O 0.71125 0.11516 0.61686 0.0
O363 O 0.73791 0.10337 0.64351 0.0
In364 In 0.89535 0.24918 0.39594 0.0
O365 O 0.88334 0.28772 0.38261 0.0
O366 O 0.89568 0.26154 0.35569 0.0
C367 C 0.88782 0.25144 0.44541 0.0
C368 C 0.94554 0.24753 0.39604 0.0
C369 C 0.86059 0.2146 0.38529 0.0
O370 O 0.88371 0.26985 0.43138 0.0
O371 O 0.89532 0.23218 0.43433 0.0
O372 O 0.88359 0.20971 0.38501 0.0
O373 O 0.85544 0.23688 0.39052 0.0
C374 C 0.88764 0.28314 0.35995 0.0
O375 O 0.93259 0.2306 0.38599 0.0
O376 O 0.93311 0.265 0.40542 0.0
In377 In 0.74907 0.89437 0.39714 0.0
O378 O 0.72899 0.88438 0.43357 0.0
O379 O 0.76727 0.89419 0.43498 0.0
C380 C 0.71371 0.88609 0.36244 0.0
C381 C 0.78387 0.86013 0.38608 0.0
C382 C 0.75228 0.94447 0.39517 0.0
O383 O 0.71019 0.88154 0.38522 0.0
O384 O 0.7351 0.89431 0.35734 0.0
O385 O 0.76887 0.93056 0.38613 0.0
O386 O 0.73431 0.93304 0.40501 0.0
C387 C 0.74817 0.88755 0.44683 0.0
O388 O 0.78803 0.88322 0.38471 0.0
O389 O 0.76195 0.85444 0.39234 0.0
In390 In 0.10322 0.7499 0.39708 0.0
O391 O 0.11563 0.71076 0.38584 0.0
O392 O 0.10454 0.73575 0.35737 0.0
C393 C 0.10977 0.74986 0.44686 0.0
C394 C 0.0531 0.75211 0.39438 0.0
C395 C 0.13737 0.78488 0.38574 0.0
O396 O 0.11405 0.7308 0.43376 0.0
O397 O 0.10216 0.76843 0.4348 0.0
O398 O 0.11427 0.7888 0.38411 0.0
O399 O 0.14309 0.76315 0.39248 0.0
C400 C 0.11209 0.71426 0.36288 0.0
O401 O 0.0669 0.76906 0.38573 0.0
O402 O 0.06465 0.73428 0.40422 0.0
In403 In 0.24886 0.10453 0.39695 0.0
O404 O 0.26855 0.11564 0.43321 0.0
O405 O 0.23037 0.10534 0.43467 0.0
C406 C 0.28433 0.11282 0.36244 0.0
C407 C 0.21372 0.13818 0.38523 0.0
C408 C 0.24723 0.05431 0.39678 0.0
O409 O 0.28746 0.11811 0.38513 0.0
O410 O 0.26327 0.10374 0.35732 0.0
O411 O 0.23082 0.06722 0.38602 0.0
O412 O 0.26418 0.0668 0.40713 0.0
C413 C 0.24939 0.1124 0.44647 0.0
O414 O 0.20959 0.11504 0.38462 0.0
O415 O 0.2357 0.14411 0.39107 0.0
In416 In 0.60404 0.89603 0.75129 0.0
O417 O 0.61576 0.88298 0.78999 0.0
O418 O 0.60772 0.85563 0.76252 0.0
C419 C 0.60725 0.94596 0.75415 0.0
C420 C 0.55412 0.89095 0.75015 0.0
C421 C 0.64004 0.88872 0.71721 0.0
O422 O 0.61459 0.93206 0.77163 0.0
O423 O 0.59839 0.93456 0.73564 0.0
O424 O 0.61735 0.88459 0.7124 0.0
O425 O 0.64423 0.89594 0.73914 0.0
C426 C 0.61402 0.86013 0.78469 0.0
O427 O 0.56743 0.88597 0.73139 0.0
O428 O 0.56608 0.8984 0.7689 0.0
In429 In 0.10474 0.60318 0.74887 0.0
O430 O 0.11684 0.61701 0.71042 0.0
O431 O 0.10599 0.64366 0.73752 0.0
C432 C 0.10954 0.55336 0.74656 0.0
C433 C 0.05465 0.60522 0.74922 0.0
C434 C 0.13888 0.61216 0.7845 0.0
O435 O 0.11712 0.56732 0.7292 0.0
O436 O 0.09995 0.56467 0.76473 0.0
O437 O 0.11583 0.6148 0.78826 0.0
O438 O 0.14452 0.60557 0.76268 0.0
C439 C 0.11326 0.63968 0.71557 0.0
O440 O 0.06749 0.61262 0.76752 0.0
O441 O 0.06718 0.59717 0.73113 0.0
In442 In 0.39602 0.10273 0.74989 0.0
O443 O 0.43323 0.11364 0.73166 0.0
O444 O 0.4337 0.09542 0.76668 0.0
C445 C 0.3618 0.11267 0.71462 0.0
C446 C 0.387 0.13735 0.78505 0.0
C447 C 0.39087 0.05287 0.75152 0.0
O448 O 0.38487 0.11502 0.71071 0.0
O449 O 0.35623 0.10587 0.73638 0.0
O450 O 0.38458 0.06664 0.7695 0.0
O451 O 0.39933 0.06437 0.7329 0.0
C452 C 0.44617 0.10476 0.74917 0.0
O453 O 0.38281 0.11449 0.78853 0.0
O454 O 0.39524 0.14262 0.76372 0.0
In455 In 0.89584 0.395 0.75038 0.0
O456 O 0.88469 0.43167 0.73151 0.0
O457 O 0.89907 0.43286 0.7683 0.0
C458 C 0.88685 0.36038 0.71526 0.0
C459 C 0.86158 0.38409 0.78529 0.0
C460 C 0.94589 0.39189 0.75066 0.0
O461 O 0.88267 0.38323 0.71169 0.0
O462 O 0.89487 0.35515 0.73669 0.0
O463 O 0.93295 0.38496 0.76905 0.0
O464 O 0.93351 0.40041 0.73269 0.0
C465 C 0.89058 0.44488 0.75008 0.0
O466 O 0.88465 0.38192 0.78926 0.0
O467 O 0.85601 0.39108 0.76359 0.0
In468 In 0.60412 0.10261 0.24839 0.0
O469 O 0.56887 0.1146 0.26925 0.0
O470 O 0.56529 0.10052 0.23245 0.0
C471 C 0.64078 0.10999 0.28186 0.0
C472 C 0.61397 0.1365 0.21279 0.0
C473 C 0.60467 0.05249 0.24766 0.0
O474 O 0.61841 0.11557 0.28642 0.0
O475 O 0.64445 0.10134 0.26036 0.0
O476 O 0.61359 0.06519 0.22999 0.0
O477 O 0.59586 0.06515 0.2653 0.0
C478 C 0.55449 0.10892 0.25149 0.0
O479 O 0.61487 0.11337 0.20868 0.0
O480 O 0.60868 0.1423 0.23491 0.0
In481 In 0.89622 0.60356 0.24914 0.0
O482 O 0.93243 0.61436 0.22929 0.0
O483 O 0.93459 0.5999 0.26598 0.0
C484 C 0.86162 0.61201 0.21386 0.0
C485 C 0.88664 0.6393 0.283 0.0
C486 C 0.8924 0.55359 0.25199 0.0
O487 O 0.8846 0.61491 0.20989 0.0
O488 O 0.85623 0.60528 0.23569 0.0
O489 O 0.88493 0.56761 0.26931 0.0
O490 O 0.90151 0.56488 0.23356 0.0
C491 C 0.94616 0.60818 0.24733 0.0
O492 O 0.88428 0.61643 0.28793 0.0
O493 O 0.89335 0.64388 0.26099 0.0
In494 In 0.39457 0.8962 0.25085 0.0
O495 O 0.38385 0.93339 0.23282 0.0
O496 O 0.39917 0.93361 0.26928 0.0
C497 C 0.38519 0.86206 0.21526 0.0
C498 C 0.36009 0.88642 0.28587 0.0
C499 C 0.44461 0.89335 0.2512 0.0
O500 O 0.38167 0.88504 0.2118 0.0
O501 O 0.39276 0.85651 0.23677 0.0
O502 O 0.43161 0.88422 0.26857 0.0
O503 O 0.43225 0.90337 0.23402 0.0
C504 C 0.39069 0.94616 0.2514 0.0
O505 O 0.38308 0.88333 0.28972 0.0
O506 O 0.3547 0.8937 0.26421 0.0
In507 In 0.10345 0.39513 0.25052 0.0
O508 O 0.1155 0.38302 0.28954 0.0
O509 O 0.10747 0.3551 0.26263 0.0
C510 C 0.10593 0.44523 0.2511 0.0
C511 C 0.05363 0.38959 0.24999 0.0
C512 C 0.13829 0.38649 0.21562 0.0
O513 O 0.11419 0.4323 0.26893 0.0
O514 O 0.09665 0.43277 0.23353 0.0
O515 O 0.11547 0.38215 0.21189 0.0
O516 O 0.14338 0.39464 0.23706 0.0
C517 C 0.11379 0.36005 0.2847 0.0
O518 O 0.0668 0.38458 0.23117 0.0
O519 O 0.06567 0.39728 0.26861 0.0
In520 In 0.75047 0.60469 0.89505 0.0
O521 O 0.71127 0.6166 0.88335 0.0
O522 O 0.73778 0.64467 0.89211 0.0
C523 C 0.75019 0.55487 0.88929 0.0
C524 C 0.75229 0.60791 0.94514 0.0
C525 C 0.7854 0.61475 0.8606 0.0
O526 O 0.73142 0.56798 0.88395 0.0
O527 O 0.76853 0.56696 0.89755 0.0
O528 O 0.78938 0.61737 0.88363 0.0
O529 O 0.76366 0.60767 0.85512 0.0
C530 C 0.71584 0.63958 0.88549 0.0
O531 O 0.76968 0.61593 0.9315 0.0
O532 O 0.73424 0.59851 0.93343 0.0
In533 In 0.74973 0.3959 0.10407 0.0
O534 O 0.7291 0.43152 0.11529 0.0
O535 O 0.76639 0.4344 0.1024 0.0
C536 C 0.71624 0.35919 0.11114 0.0
C537 C 0.78399 0.38608 0.13927 0.0
C538 C 0.75132 0.39555 0.05398 0.0
O539 O 0.71147 0.38163 0.11631 0.0
O540 O 0.73786 0.35552 0.10282 0.0
O541 O 0.7688 0.38661 0.06693 0.0
O542 O 0.73338 0.40407 0.06639 0.0
C543 C 0.74729 0.44557 0.11011 0.0
O544 O 0.789 0.38495 0.11631 0.0
O545 O 0.76176 0.39171 0.14416 0.0
In546 In 0.60357 0.74909 0.10381 0.0
O547 O 0.61375 0.76848 0.06703 0.0
O548 O 0.60035 0.73127 0.06597 0.0
C549 C 0.61286 0.78315 0.1394 0.0
C550 C 0.63915 0.71527 0.11328 0.0
C551 C 0.5536 0.74714 0.1079 0.0
O552 O 0.61527 0.78809 0.11653 0.0
O553 O 0.60612 0.76114 0.14399 0.0
O554 O 0.56732 0.72948 0.11509 0.0
O555 O 0.5652 0.76541 0.09882 0.0
C556 C 0.60821 0.74974 0.05387 0.0
O557 O 0.61626 0.71024 0.1154 0.0
O558 O 0.64384 0.73735 0.10681 0.0
In559 In 0.25009 0.60364 0.10459 0.0
O560 O 0.21113 0.61472 0.11763 0.0
O561 O 0.23834 0.60609 0.14497 0.0
C562 C 0.24757 0.60752 0.05463 0.0
C563 C 0.25268 0.5537 0.10868 0.0
C564 C 0.28384 0.6398 0.11318 0.0
O565 O 0.22977 0.61407 0.06851 0.0
O566 O 0.26629 0.59926 0.06605 0.0
O567 O 0.28899 0.61701 0.11578 0.0
O568 O 0.26173 0.64407 0.10663 0.0
C569 C 0.21623 0.61247 0.14048 0.0
O570 O 0.27044 0.56768 0.11531 0.0
O571 O 0.23397 0.56501 0.10028 0.0
In572 In 0.39546 0.24926 0.1049 0.0
O573 O 0.38484 0.22896 0.06884 0.0
O574 O 0.39935 0.26564 0.0663 0.0
C575 C 0.38653 0.21433 0.13977 0.0
C576 C 0.36006 0.28344 0.11438 0.0
C577 C 0.44546 0.2516 0.10913 0.0
O578 O 0.38338 0.21027 0.11683 0.0
O579 O 0.3937 0.2361 0.14497 0.0
O580 O 0.43162 0.2692 0.11624 0.0
O581 O 0.43398 0.23321 0.10012 0.0
C582 C 0.39114 0.24681 0.05491 0.0
O583 O 0.38299 0.28839 0.11612 0.0
O584 O 0.35524 0.26129 0.10826 0.0
In585 In 0.24893 0.39483 0.89652 0.0
O586 O 0.22892 0.38405 0.93268 0.0
O587 O 0.26536 0.39928 0.93496 0.0
C588 C 0.21484 0.38591 0.86082 0.0
C589 C 0.2827 0.35899 0.88759 0.0
C590 C 0.25163 0.44475 0.89234 0.0
O591 O 0.20975 0.38396 0.8837 0.0
O592 O 0.23703 0.39203 0.85623 0.0
O593 O 0.26931 0.4308 0.88565 0.0
O594 O 0.23293 0.43341 0.90084 0.0
C595 C 0.24677 0.39077 0.94647 0.0
O596 O 0.2878 0.38184 0.88524 0.0
O597 O 0.2606 0.35447 0.8941 0.0
In598 In 0.60229 0.25217 0.89448 0.0
O599 O 0.61459 0.2133 0.88226 0.0
O600 O 0.60556 0.2398 0.85438 0.0
C601 C 0.60455 0.25097 0.94455 0.0
C602 C 0.55239 0.25326 0.8899 0.0
C603 C 0.63731 0.28718 0.88643 0.0
O604 O 0.6127 0.23326 0.93138 0.0
O605 O 0.59574 0.2689 0.93234 0.0
O606 O 0.61449 0.29107 0.88234 0.0
O607 O 0.64228 0.26556 0.89404 0.0
C608 C 0.61239 0.21792 0.85931 0.0
O609 O 0.56593 0.27127 0.88303 0.0
O610 O 0.56416 0.23498 0.89862 0.0
In611 In 0.39568 0.74928 0.89531 0.0
O612 O 0.38259 0.78788 0.88344 0.0
O613 O 0.39365 0.76233 0.85532 0.0
C614 C 0.39335 0.75003 0.94542 0.0
C615 C 0.4456 0.74928 0.89079 0.0
C616 C 0.36031 0.7149 0.88601 0.0
O617 O 0.38529 0.76788 0.93242 0.0
O618 O 0.40202 0.73214 0.93302 0.0
O619 O 0.38321 0.71031 0.88321 0.0
O620 O 0.35556 0.73674 0.89313 0.0
C621 C 0.38591 0.78387 0.8605 0.0
O622 O 0.43257 0.73075 0.88425 0.0
O623 O 0.43333 0.76733 0.89929 0.0
C624 C 0.11808 0.34677 0.32918 0.0
C625 C 0.11664 0.34041 0.30381 0.0
C626 C 0.11774 0.32839 0.34772 0.0
C627 C 0.11587 0.30302 0.34155 0.0
H628 H 0.1186 0.36611 0.33483 0.0
H629 H 0.11805 0.33418 0.36702 0.0
S630 S 0.11475 0.27642 0.27781 0.0
N631 N 0.1156 0.30679 0.27349 0.0
N632 N 0.11486 0.2724 0.30823 0.0
C633 C 0.11566 0.29638 0.31624 0.0
C634 C 0.11608 0.31503 0.2974 0.0
C635 C 0.67377 0.11917 0.34377 0.0
C636 C 0.69821 0.11138 0.33862 0.0
C637 C 0.65545 0.11936 0.32515 0.0
C638 C 0.66088 0.11177 0.30069 0.0
H639 H 0.66858 0.12468 0.36243 0.0
H640 H 0.63678 0.12498 0.33014 0.0
S641 S 0.72239 0.09103 0.27719 0.0
N642 N 0.7271 0.09691 0.30694 0.0
N643 N 0.6928 0.09727 0.2721 0.0
C644 C 0.68543 0.10464 0.29514 0.0
C645 C 0.70405 0.10445 0.31405 0.0
C646 C 0.88056 0.67124 0.34572 0.0
C647 C 0.88359 0.69654 0.33972 0.0
C648 C 0.88065 0.65286 0.32717 0.0
C649 C 0.88376 0.65911 0.30194 0.0
H650 H 0.87888 0.66547 0.36494 0.0
H651 H 0.87905 0.63357 0.33275 0.0
S652 S 0.88972 0.72293 0.27621 0.0
N653 N 0.88782 0.72703 0.30656 0.0
N654 N 0.88797 0.6926 0.2718 0.0
C655 C 0.88565 0.68444 0.29561 0.0
C656 C 0.88558 0.70312 0.31448 0.0
C657 C 0.31592 0.8889 0.29967 0.0
C658 C 0.34091 0.88387 0.30551 0.0
C659 C 0.29757 0.88928 0.3181 0.0
C660 C 0.30339 0.8846 0.34316 0.0
H661 H 0.31049 0.89323 0.28076 0.0
H662 H 0.27872 0.89383 0.31264 0.0
S663 S 0.36575 0.86876 0.36812 0.0
N664 N 0.37036 0.87282 0.33803 0.0
N665 N 0.33577 0.87348 0.37273 0.0
C666 C 0.32814 0.8786 0.3492 0.0
C667 C 0.34691 0.87825 0.33036 0.0
C668 C 0.1189 0.65412 0.67161 0.0
C669 C 0.11536 0.65985 0.69691 0.0
C670 C 0.11831 0.67275 0.65333 0.0
C671 C 0.11411 0.69778 0.65969 0.0
H672 H 0.12141 0.63501 0.66575 0.0
H673 H 0.12042 0.66736 0.63403 0.0
S674 S 0.10635 0.72294 0.72355 0.0
N675 N 0.10942 0.69268 0.72751 0.0
N676 N 0.10826 0.72755 0.69328 0.0
C677 C 0.1116 0.70389 0.68502 0.0
C678 C 0.11225 0.68497 0.70359 0.0
C679 C 0.29907 0.11154 0.68262 0.0
C680 C 0.30494 0.1159 0.65751 0.0
C681 C 0.31751 0.11144 0.70098 0.0
C682 C 0.34265 0.11564 0.69502 0.0
H683 H 0.28009 0.10759 0.68816 0.0
H684 H 0.31201 0.10738 0.71993 0.0
S685 S 0.36773 0.1297 0.63226 0.0
N686 N 0.33757 0.12589 0.62777 0.0
N687 N 0.37233 0.12563 0.66235 0.0
C688 C 0.34873 0.12097 0.67012 0.0
C689 C 0.32986 0.12112 0.65136 0.0
C690 C 0.89156 0.29834 0.68223 0.0
C691 C 0.88534 0.30408 0.65749 0.0
C692 C 0.89116 0.31653 0.70085 0.0
C693 C 0.88457 0.34126 0.69551 0.0
H694 H 0.89727 0.27971 0.68727 0.0
H695 H 0.89665 0.31121 0.71948 0.0
S696 S 0.86519 0.36571 0.63395 0.0
N697 N 0.8712 0.33605 0.62881 0.0
N698 N 0.8705 0.37032 0.66386 0.0
C699 C 0.87751 0.34714 0.67101 0.0
C700 C 0.87789 0.32854 0.65199 0.0
C701 C 0.67281 0.88044 0.65507 0.0
C702 C 0.69761 0.88682 0.66065 0.0
C703 C 0.65438 0.88045 0.67358 0.0
C704 C 0.66006 0.88681 0.69834 0.0
H705 H 0.66745 0.87591 0.63618 0.0
H706 H 0.63545 0.87593 0.6683 0.0
S707 S 0.7225 0.90355 0.72294 0.0
N708 N 0.72705 0.8986 0.69301 0.0
N709 N 0.69258 0.89859 0.72763 0.0
C710 C 0.68494 0.8925 0.70428 0.0
C711 C 0.70366 0.89252 0.68549 0.0
C712 C 0.31713 0.10978 0.3002 0.0
C713 C 0.34182 0.11632 0.30598 0.0
C714 C 0.29863 0.10942 0.31849 0.0
C715 C 0.304 0.11563 0.34334 0.0
H716 H 0.31208 0.10425 0.28149 0.0
H717 H 0.28006 0.10368 0.31311 0.0
S718 S 0.36534 0.13584 0.36794 0.0
N719 N 0.37042 0.13047 0.33813 0.0
N720 N 0.33556 0.12985 0.37256 0.0
C721 C 0.3284 0.12312 0.34926 0.0
C722 C 0.34732 0.12345 0.33057 0.0
C723 C 0.88148 0.32719 0.34621 0.0
C724 C 0.88485 0.30198 0.34007 0.0
C725 C 0.8811 0.34561 0.32774 0.0
C726 C 0.88401 0.33948 0.30246 0.0
H727 H 0.87988 0.33286 0.36548 0.0
H728 H 0.87926 0.36485 0.33343 0.0
S729 S 0.89066 0.27586 0.27639 0.0
N730 N 0.88919 0.27165 0.30675 0.0
N731 N 0.88841 0.30616 0.27212 0.0
C732 C 0.88626 0.31422 0.296 0.0
C733 C 0.88671 0.2955 0.31478 0.0
C734 C 0.69978 0.88953 0.31836 0.0
C735 C 0.69411 0.88357 0.34319 0.0
C736 C 0.68142 0.88947 0.29993 0.0
C737 C 0.65656 0.88347 0.30552 0.0
H738 H 0.71851 0.89482 0.31312 0.0
H739 H 0.68674 0.89473 0.28123 0.0
S740 S 0.63216 0.86489 0.36737 0.0
N741 N 0.66202 0.87027 0.37222 0.0
N742 N 0.62741 0.87017 0.33749 0.0
C743 C 0.65071 0.87664 0.3301 0.0
C744 C 0.6695 0.87669 0.34895 0.0
C745 C 0.1114 0.68209 0.30021 0.0
C746 C 0.11553 0.65697 0.30616 0.0
C747 C 0.11111 0.70047 0.31863 0.0
C748 C 0.11497 0.69455 0.34381 0.0
H749 H 0.10774 0.68763 0.28119 0.0
H750 H 0.10726 0.71944 0.31306 0.0
S751 S 0.1283 0.63179 0.36914 0.0
N752 N 0.12487 0.62726 0.33895 0.0
N753 N 0.12435 0.6619 0.37365 0.0
C754 C 0.12005 0.66965 0.34999 0.0
C755 C 0.12033 0.65085 0.33115 0.0
C756 C 0.31706 0.88757 0.70058 0.0
C757 C 0.3421 0.88316 0.69445 0.0
C758 C 0.29855 0.888 0.6823 0.0
C759 C 0.30425 0.88399 0.65709 0.0
H760 H 0.3117 0.89137 0.71962 0.0
H761 H 0.27966 0.89207 0.68799 0.0
S762 S 0.3667 0.86994 0.63133 0.0
N763 N 0.37148 0.87341 0.66147 0.0
N764 N 0.3366 0.87416 0.62704 0.0
C765 C 0.32906 0.8786 0.65074 0.0
C766 C 0.34799 0.8782 0.66943 0.0
C767 C 0.11888 0.34468 0.67184 0.0
C768 C 0.11419 0.33885 0.69692 0.0
C769 C 0.11849 0.32621 0.65338 0.0
C770 C 0.11331 0.30125 0.65931 0.0
H771 H 0.12227 0.36375 0.66629 0.0
H772 H 0.12161 0.33169 0.63424 0.0
S773 S 0.10189 0.27586 0.72251 0.0
N774 N 0.1058 0.30599 0.72691 0.0
N775 N 0.10499 0.27142 0.6923 0.0
C776 C 0.10949 0.29503 0.68444 0.0
C777 C 0.10995 0.31379 0.70321 0.0
C778 C 0.67232 0.11803 0.65384 0.0
C779 C 0.69741 0.11333 0.6596 0.0
C780 C 0.65401 0.11827 0.67245 0.0
C781 C 0.66012 0.11388 0.69752 0.0
H782 H 0.66664 0.12091 0.63473 0.0
H783 H 0.63485 0.12133 0.66703 0.0
S784 S 0.72348 0.10266 0.72267 0.0
N785 N 0.72761 0.10566 0.69242 0.0
N786 N 0.69336 0.10617 0.72728 0.0
C787 C 0.68529 0.11008 0.70363 0.0
C788 C 0.70389 0.10979 0.68471 0.0
C789 C 0.88096 0.67062 0.6531 0.0
C790 C 0.88442 0.69586 0.65919 0.0
C791 C 0.88101 0.65217 0.67157 0.0
C792 C 0.88451 0.65831 0.69678 0.0
H793 H 0.87895 0.66495 0.63386 0.0
H794 H 0.87907 0.63292 0.66593 0.0
S795 S 0.89158 0.72197 0.72276 0.0
N796 N 0.88943 0.72619 0.69244 0.0
N797 N 0.88951 0.69165 0.72703 0.0
C798 C 0.88686 0.68359 0.7032 0.0
C799 C 0.88682 0.70232 0.68443 0.0
C800 C 0.32834 0.34633 0.11866 0.0
C801 C 0.30293 0.34011 0.11726 0.0
C802 C 0.34673 0.32784 0.11868 0.0
C803 C 0.34038 0.30247 0.11729 0.0
H804 H 0.33415 0.36563 0.11891 0.0
H805 H 0.36606 0.33356 0.11894 0.0
S806 S 0.27641 0.27628 0.11627 0.0
N807 N 0.27234 0.30668 0.1166 0.0
N808 N 0.30679 0.27205 0.11663 0.0
C809 C 0.31501 0.29598 0.11711 0.0
C810 C 0.29631 0.31477 0.11709 0.0
C811 C 0.34685 0.67044 0.8819 0.0
C812 C 0.34061 0.6958 0.88312 0.0
C813 C 0.32837 0.65194 0.88208 0.0
C814 C 0.30299 0.65815 0.88346 0.0
H815 H 0.36617 0.66476 0.88169 0.0
H816 H 0.33409 0.63264 0.88198 0.0
S817 S 0.27677 0.72196 0.88382 0.0
N818 N 0.30718 0.7262 0.88346 0.0
N819 N 0.27255 0.69155 0.88377 0.0
C820 C 0.29649 0.68348 0.8834 0.0
C821 C 0.31527 0.70227 0.88324 0.0
C822 C 0.32689 0.34529 0.88275 0.0
C823 C 0.30152 0.33912 0.88477 0.0
C824 C 0.34525 0.32679 0.88269 0.0
C825 C 0.33891 0.30146 0.88464 0.0
H826 H 0.33272 0.36457 0.88201 0.0
H827 H 0.36457 0.33248 0.88191 0.0
S828 S 0.27496 0.27536 0.88752 0.0
N829 N 0.27091 0.30576 0.88671 0.0
N830 N 0.30533 0.27109 0.88659 0.0
C831 C 0.31354 0.295 0.88549 0.0
C832 C 0.29488 0.31381 0.88556 0.0
C833 C 0.68156 0.30069 0.88985 0.0
C834 C 0.65674 0.30665 0.88418 0.0
C835 C 0.70017 0.31892 0.89008 0.0
C836 C 0.69478 0.34391 0.88463 0.0
H837 H 0.68666 0.28183 0.8947 0.0
H838 H 0.71887 0.31338 0.89508 0.0
S839 S 0.633 0.36913 0.86716 0.0
N840 N 0.62791 0.3392 0.87187 0.0
N841 N 0.66297 0.37354 0.87228 0.0
C842 C 0.6702 0.35006 0.87812 0.0
C843 C 0.65117 0.33143 0.8779 0.0
C844 C 0.67128 0.65255 0.88155 0.0
C845 C 0.69665 0.65905 0.88243 0.0
C846 C 0.65271 0.67086 0.8816 0.0
C847 C 0.65886 0.6963 0.88252 0.0
H848 H 0.66568 0.63319 0.88174 0.0
H849 H 0.63343 0.66498 0.88183 0.0
S850 S 0.72258 0.72312 0.88174 0.0
N851 N 0.72693 0.69275 0.88187 0.0
N852 N 0.69215 0.72705 0.88194 0.0
C853 C 0.68416 0.70304 0.88207 0.0
C854 C 0.70302 0.68444 0.88203 0.0
C855 C 0.65266 0.67098 0.11778 0.0
C856 C 0.65892 0.69635 0.11615 0.0
C857 C 0.6711 0.65256 0.11769 0.0
C858 C 0.69647 0.65885 0.11595 0.0
H859 H 0.63335 0.66521 0.1183 0.0
H860 H 0.66535 0.63324 0.11814 0.0
S861 S 0.72279 0.72274 0.11421 0.0
N862 N 0.6924 0.72688 0.1149 0.0
N863 N 0.72696 0.69235 0.11471 0.0
C864 C 0.70301 0.6842 0.11553 0.0
C865 C 0.68427 0.70292 0.11563 0.0
C866 C 0.34626 0.67261 0.11868 0.0
C867 C 0.33994 0.69782 0.1158 0.0
C868 C 0.32793 0.65397 0.11867 0.0
C869 C 0.30261 0.65987 0.11583 0.0
H870 H 0.36557 0.6671 0.12015 0.0
H871 H 0.33376 0.63476 0.12016 0.0
S872 S 0.27607 0.72334 0.11043 0.0
N873 N 0.30639 0.72786 0.11203 0.0
N874 N 0.27203 0.69295 0.11206 0.0
C875 C 0.29596 0.68511 0.11409 0.0
C876 C 0.3146 0.70405 0.11406 0.0
C877 C 0.67286 0.34435 0.11981 0.0
C878 C 0.69758 0.33893 0.11321 0.0
C879 C 0.65446 0.32577 0.11988 0.0
C880 C 0.66011 0.30107 0.11335 0.0
H881 H 0.66749 0.36321 0.1244 0.0
H882 H 0.63556 0.33097 0.12448 0.0
S883 S 0.72245 0.27676 0.0964 0.0
N884 N 0.727 0.30672 0.10132 0.0
N885 N 0.69256 0.27193 0.10145 0.0
C886 C 0.68495 0.29524 0.10756 0.0
C887 C 0.70364 0.31413 0.10749 0.0
C888 C 0.61898 0.84625 0.82886 0.0
C889 C 0.61699 0.84019 0.80346 0.0
C890 C 0.6189 0.82768 0.84718 0.0
C891 C 0.6168 0.80239 0.84077 0.0
H892 H 0.61975 0.86551 0.83473 0.0
H893 H 0.61961 0.83328 0.86653 0.0
S894 S 0.61413 0.77654 0.77675 0.0
N895 N 0.61508 0.80695 0.77277 0.0
N896 N 0.61491 0.77215 0.80712 0.0
C897 C 0.61606 0.79603 0.81539 0.0
C898 C 0.61617 0.8149 0.79676 0.0
C899 C 0.20124 0.60983 0.81721 0.0
C900 C 0.19518 0.61431 0.84226 0.0
C901 C 0.18299 0.61001 0.79865 0.0
C902 C 0.15789 0.61467 0.80432 0.0
H903 H 0.22018 0.60556 0.81188 0.0
H904 H 0.1886 0.60585 0.77975 0.0
S905 S 0.13245 0.62929 0.86681 0.0
N906 N 0.16245 0.62491 0.87163 0.0
N907 N 0.1281 0.62524 0.83667 0.0
C908 C 0.15166 0.62009 0.82916 0.0
C909 C 0.17031 0.61992 0.84814 0.0
C910 C 0.38924 0.1815 0.7991 0.0
C911 C 0.38413 0.15646 0.80471 0.0
C912 C 0.38894 0.19983 0.81758 0.0
C913 C 0.38356 0.19391 0.84249 0.0
H914 H 0.39408 0.187 0.78033 0.0
H915 H 0.39358 0.21873 0.81232 0.0
S916 S 0.36724 0.13135 0.86677 0.0
N917 N 0.37223 0.12685 0.8368 0.0
N918 N 0.37171 0.16136 0.87161 0.0
C919 C 0.37754 0.16909 0.84827 0.0
C920 C 0.37781 0.15036 0.82937 0.0
C921 C 0.81725 0.38448 0.79881 0.0
C922 C 0.84245 0.381 0.80489 0.0
C923 C 0.79885 0.38479 0.8172 0.0
C924 C 0.80486 0.38164 0.84246 0.0
H925 H 0.81168 0.38778 0.77973 0.0
H926 H 0.77984 0.38831 0.81155 0.0
S927 S 0.8678 0.36955 0.86808 0.0
N928 N 0.87228 0.37255 0.83785 0.0
N929 N 0.83763 0.37315 0.87248 0.0
C930 C 0.82982 0.37693 0.84874 0.0
C931 C 0.84863 0.3766 0.82995 0.0
C932 C 0.61425 0.19927 0.18092 0.0
C933 C 0.61646 0.19322 0.15556 0.0
C934 C 0.61441 0.18083 0.19926 0.0
C935 C 0.61678 0.15554 0.19305 0.0
H936 H 0.6117 0.2184 0.18671 0.0
H937 H 0.61197 0.18649 0.21845 0.0
S938 S 0.62518 0.12989 0.12948 0.0
N939 N 0.62265 0.16019 0.12524 0.0
N940 N 0.62295 0.12546 0.15979 0.0
C941 C 0.62008 0.14924 0.16785 0.0
C942 C 0.61992 0.16809 0.14909 0.0
C943 C 0.81725 0.61078 0.20035 0.0
C944 C 0.84241 0.61464 0.19427 0.0
C945 C 0.79875 0.61091 0.18203 0.0
C946 C 0.80462 0.61489 0.15685 0.0
H947 H 0.81178 0.60706 0.21937 0.0
H948 H 0.77975 0.60726 0.18766 0.0
S949 S 0.86751 0.62759 0.13126 0.0
N950 N 0.87212 0.62385 0.16139 0.0
N951 N 0.8373 0.62408 0.12691 0.0
C952 C 0.82959 0.61967 0.15057 0.0
C953 C 0.84849 0.61955 0.16928 0.0
C954 C 0.38739 0.79971 0.18258 0.0
C955 C 0.38323 0.80576 0.15748 0.0
C956 C 0.3871 0.81796 0.20114 0.0
C957 C 0.38261 0.84307 0.19541 0.0
H958 H 0.39153 0.78076 0.18798 0.0
H959 H 0.39104 0.81234 0.22007 0.0
S960 S 0.36878 0.86853 0.13277 0.0
N961 N 0.37307 0.8385 0.12799 0.0
N962 N 0.3725 0.87289 0.16296 0.0
C963 C 0.37744 0.84931 0.17052 0.0
C964 C 0.37776 0.83064 0.15154 0.0
C965 C 0.2009 0.38987 0.1835 0.0
C966 C 0.19524 0.38423 0.15858 0.0
C967 C 0.18246 0.38976 0.20186 0.0
C968 C 0.15758 0.38399 0.1961 0.0
H969 H 0.21964 0.39501 0.18887 0.0
H970 H 0.18774 0.39482 0.22065 0.0
S971 S 0.13325 0.36616 0.13394 0.0
N972 N 0.16316 0.3714 0.12928 0.0
N973 N 0.12845 0.37118 0.16386 0.0
C974 C 0.15177 0.37742 0.17142 0.0
C975 C 0.17061 0.37755 0.15265 0.0
C976 C 0.79913 0.61309 0.81636 0.0
C977 C 0.80504 0.61754 0.84146 0.0
C978 C 0.81758 0.61276 0.79803 0.0
C979 C 0.84274 0.61685 0.80401 0.0
H980 H 0.78015 0.60912 0.81083 0.0
H981 H 0.81208 0.60855 0.7791 0.0
S982 S 0.86784 0.63149 0.86668 0.0
N983 N 0.83768 0.62776 0.87116 0.0
N984 N 0.87243 0.62712 0.83663 0.0
C985 C 0.84882 0.62241 0.82886 0.0
C986 C 0.82996 0.62276 0.8476 0.0
C987 C 0.38857 0.81574 0.79776 0.0
C988 C 0.38278 0.84062 0.80335 0.0
C989 C 0.38864 0.79745 0.81625 0.0
C990 C 0.38294 0.80323 0.84112 0.0
H991 H 0.39378 0.81039 0.77905 0.0
H992 H 0.39389 0.77872 0.81104 0.0
S993 S 0.36438 0.86518 0.8652 0.0
N994 N 0.36959 0.86982 0.8353 0.0
N995 N 0.36973 0.83536 0.8701 0.0
C996 C 0.37608 0.82782 0.84683 0.0
C997 C 0.376 0.84652 0.82794 0.0
C998 C 0.17051 0.38185 0.84697 0.0
C999 C 0.19595 0.38307 0.84094 0.0
C1000 C 0.1522 0.38184 0.82835 0.0
C1001 C 0.15868 0.38303 0.80302 0.0
H1002 H 0.16462 0.38173 0.86624 0.0
H1003 H 0.13284 0.38172 0.83391 0.0
S1004 S 0.22277 0.3835 0.7773 0.0
N1005 N 0.2267 0.38333 0.80774 0.0
N1006 N 0.1924 0.3833 0.77285 0.0
C1007 C 0.18408 0.38304 0.79672 0.0
C1008 C 0.20268 0.38306 0.81565 0.0
C1009 C 0.61852 0.15485 0.82811 0.0
C1010 C 0.61594 0.1606 0.8027 0.0
C1011 C 0.61831 0.17359 0.84629 0.0
C1012 C 0.61553 0.19876 0.83974 0.0
H1013 H 0.61989 0.13567 0.8341 0.0
H1014 H 0.61951 0.16819 0.86566 0.0
S1015 S 0.61098 0.22387 0.77557 0.0
N1016 N 0.61261 0.19346 0.77181 0.0
N1017 N 0.61224 0.22858 0.80588 0.0
C1018 C 0.61415 0.20484 0.81432 0.0
C1019 C 0.61434 0.18578 0.79583 0.0
C1020 C 0.84691 0.38213 0.17117 0.0
C1021 C 0.84066 0.38332 0.19656 0.0
C1022 C 0.82844 0.38206 0.15271 0.0
C1023 C 0.80305 0.38314 0.15898 0.0
H1024 H 0.86623 0.3821 0.16544 0.0
H1025 H 0.83416 0.38198 0.1334 0.0
S1026 S 0.77682 0.3835 0.22287 0.0
N1027 N 0.80723 0.38344 0.22704 0.0
N1028 N 0.77261 0.38327 0.19246 0.0
C1029 C 0.79655 0.38309 0.18433 0.0
C1030 C 0.81532 0.3832 0.20309 0.0
C1031 C 0.61791 0.84573 0.17189 0.0
C1032 C 0.61587 0.83932 0.19718 0.0
C1033 C 0.61789 0.82739 0.15328 0.0
C1034 C 0.61584 0.80201 0.15931 0.0
H1035 H 0.61865 0.86507 0.16633 0.0
H1036 H 0.61863 0.83324 0.13401 0.0
S1037 S 0.61311 0.77532 0.22294 0.0
N1038 N 0.61398 0.80569 0.22737 0.0
N1039 N 0.61396 0.77134 0.19252 0.0
C1040 C 0.61506 0.79532 0.1846 0.0
C1041 C 0.61507 0.81395 0.2035 0.0
C1042 C 0.1537 0.61817 0.17283 0.0
C1043 C 0.15996 0.61577 0.19813 0.0
C1044 C 0.17209 0.61795 0.15431 0.0
C1045 C 0.1974 0.61535 0.16041 0.0
H1046 H 0.13441 0.61941 0.16718 0.0
H1047 H 0.16631 0.61907 0.13504 0.0
S1048 S 0.22378 0.61128 0.22412 0.0
N1049 N 0.19343 0.61277 0.22843 0.0
N1050 N 0.2279 0.61239 0.19373 0.0
C1051 C 0.20398 0.61412 0.18572 0.0
C1052 C 0.18529 0.61432 0.20455 0.0
C1053 C 0.38837 0.20099 0.18413 0.0
C1054 C 0.38381 0.19488 0.1591 0.0
C1055 C 0.38836 0.18275 0.20268 0.0
C1056 C 0.3838 0.1576 0.19699 0.0
H1057 H 0.39261 0.21997 0.18946 0.0
H1058 H 0.39261 0.18839 0.22156 0.0
S1059 S 0.36894 0.13201 0.13456 0.0
N1060 N 0.37316 0.16205 0.12975 0.0
N1061 N 0.37316 0.1277 0.16467 0.0
C1062 C 0.37824 0.15131 0.17218 0.0
C1063 C 0.37824 0.16996 0.15323 0.0
C1064 C 0.84674 0.82775 0.61796 0.0
C1065 C 0.84024 0.80238 0.61767 0.0
C1066 C 0.82844 0.8463 0.61829 0.0
C1067 C 0.80298 0.84016 0.61835 0.0
H1068 H 0.86608 0.83337 0.617 0.0
H1069 H 0.83433 0.86557 0.61754 0.0
S1070 S 0.77624 0.77648 0.62095 0.0
N1071 N 0.80659 0.77211 0.61985 0.0
N1072 N 0.77228 0.8069 0.62047 0.0
C1073 C 0.79627 0.81487 0.61943 0.0
C1074 C 0.81488 0.79601 0.61909 0.0
C1075 C 0.84739 0.17 0.38221 0.0
C1076 C 0.84106 0.19537 0.38199 0.0
C1077 C 0.82896 0.15147 0.38223 0.0
C1078 C 0.80354 0.15764 0.38205 0.0
H1079 H 0.86669 0.16438 0.38329 0.0
H1080 H 0.83471 0.13221 0.38332 0.0
S1081 S 0.77722 0.22129 0.37822 0.0
N1082 N 0.80761 0.22563 0.37923 0.0
N1083 N 0.77306 0.19089 0.37929 0.0
C1084 C 0.797 0.18291 0.38049 0.0
C1085 C 0.81574 0.20175 0.38046 0.0
C1086 C 0.79747 0.81581 0.38578 0.0
C1087 C 0.80352 0.84112 0.38295 0.0
C1088 C 0.81592 0.7975 0.38584 0.0
C1089 C 0.8412 0.80372 0.38308 0.0
H1090 H 0.77836 0.81008 0.38869 0.0
H1091 H 0.81031 0.77836 0.38877 0.0
S1092 S 0.8668 0.86712 0.37307 0.0
N1093 N 0.83651 0.87135 0.37578 0.0
N1094 N 0.87123 0.83688 0.37589 0.0
C1095 C 0.84746 0.82884 0.37915 0.0
C1096 C 0.82862 0.84754 0.37908 0.0
C1097 C 0.18168 0.79866 0.38513 0.0
C1098 C 0.15638 0.80459 0.38228 0.0
C1099 C 0.20002 0.81717 0.38499 0.0
C1100 C 0.19384 0.8424 0.38202 0.0
H1101 H 0.18739 0.77961 0.38825 0.0
H1102 H 0.21915 0.81165 0.38803 0.0
S1103 S 0.13049 0.86763 0.37163 0.0
N1104 N 0.1262 0.83736 0.37467 0.0
N1105 N 0.16074 0.87222 0.37444 0.0
C1106 C 0.16874 0.84853 0.37796 0.0
C1107 C 0.15 0.82961 0.37808 0.0
C1108 C 0.2003 0.18248 0.38369 0.0
C1109 C 0.19405 0.15713 0.38184 0.0
C1110 C 0.18195 0.20088 0.38377 0.0
C1111 C 0.15657 0.19471 0.382 0.0
H1112 H 0.21951 0.18822 0.38589 0.0
H1113 H 0.18774 0.22006 0.38602 0.0
S1114 S 0.13042 0.13118 0.37447 0.0
N1115 N 0.16075 0.12686 0.37643 0.0
N1116 N 0.12619 0.16151 0.37658 0.0
C1117 C 0.15008 0.16952 0.37891 0.0
C1118 C 0.16883 0.15072 0.37883 0.0
C1119 C 0.17056 0.15152 0.61849 0.0
C1120 C 0.1959 0.15808 0.61947 0.0
C1121 C 0.15196 0.16977 0.61828 0.0
C1122 C 0.15803 0.19524 0.61907 0.0
H1123 H 0.16506 0.1322 0.61682 0.0
H1124 H 0.13276 0.16388 0.61648 0.0
S1125 S 0.22146 0.22203 0.6253 0.0
N1126 N 0.22595 0.19172 0.6238 0.0
N1127 N 0.19108 0.22595 0.62345 0.0
C1128 C 0.18322 0.20196 0.62155 0.0
C1129 C 0.20213 0.18341 0.62174 0.0
C1130 C 0.8285 0.15237 0.61718 0.0
C1131 C 0.80309 0.15859 0.61698 0.0
C1132 C 0.84696 0.17087 0.61735 0.0
C1133 C 0.84068 0.19625 0.61734 0.0
H1134 H 0.83422 0.13309 0.61627 0.0
H1135 H 0.86626 0.16519 0.61654 0.0
S1136 S 0.77685 0.22231 0.62014 0.0
N1137 N 0.77264 0.19191 0.61916 0.0
N1138 N 0.80725 0.2266 0.61951 0.0
C1139 C 0.81535 0.20269 0.61852 0.0
C1140 C 0.79658 0.18388 0.61833 0.0
C1141 C 0.16969 0.84856 0.61921 0.0
C1142 C 0.19506 0.8422 0.61975 0.0
C1143 C 0.15113 0.83014 0.6192 0.0
C1144 C 0.15729 0.80473 0.61973 0.0
H1145 H 0.16411 0.86785 0.61773 0.0
H1146 H 0.13188 0.83587 0.61771 0.0
S1147 S 0.22086 0.77844 0.6249 0.0
N1148 N 0.22525 0.8088 0.62347 0.0
N1149 N 0.19047 0.77429 0.62346 0.0
C1150 C 0.18253 0.79821 0.62178 0.0
C1151 C 0.20138 0.81692 0.62179 0.0
C1152 C 0.11485 0.27281 0.48718 0.0
C1153 C 0.11606 0.25051 0.47351 0.0
C1154 C 0.11488 0.27261 0.51332 0.0
C1155 C 0.11614 0.2501 0.52661 0.0
H1156 H 0.11287 0.29044 0.47766 0.0
H1157 H 0.11292 0.29009 0.52313 0.0
S1158 S 0.12358 0.18703 0.4995 0.0
N1159 N 0.12137 0.20563 0.47521 0.0
N1160 N 0.12145 0.20525 0.52413 0.0
C1161 C 0.11883 0.22785 0.51312 0.0
C1162 C 0.11878 0.22806 0.48662 0.0
C1163 C 0.76841 0.10843 0.51243 0.0
C1164 C 0.74631 0.11179 0.52598 0.0
C1165 C 0.76845 0.10834 0.48645 0.0
C1166 C 0.74638 0.1116 0.4728 0.0
H1167 H 0.78592 0.10544 0.52193 0.0
H1168 H 0.78598 0.10528 0.47702 0.0
S1169 S 0.68355 0.12224 0.49925 0.0
N1170 N 0.70178 0.11937 0.52382 0.0
N1171 N 0.70183 0.1192 0.47476 0.0
C1172 C 0.72418 0.1157 0.48602 0.0
C1173 C 0.72414 0.1158 0.51265 0.0
C1174 C 0.89075 0.76774 0.48667 0.0
C1175 C 0.88635 0.74583 0.47304 0.0
C1176 C 0.89047 0.76778 0.51265 0.0
C1177 C 0.8858 0.74591 0.52621 0.0
H1178 H 0.89481 0.78507 0.47723 0.0
H1179 H 0.89436 0.78514 0.52216 0.0
S1180 S 0.87213 0.68368 0.4995 0.0
N1181 N 0.87633 0.70173 0.47501 0.0
N1182 N 0.87583 0.70179 0.52406 0.0
C1183 C 0.8807 0.72393 0.51289 0.0
C1184 C 0.88097 0.72389 0.48627 0.0
C1185 C 0.2702 0.88422 0.48725 0.0
C1186 C 0.24785 0.88639 0.47379 0.0
C1187 C 0.27028 0.88437 0.51337 0.0
C1188 C 0.24802 0.88671 0.52692 0.0
H1189 H 0.28783 0.88315 0.47757 0.0
H1190 H 0.28797 0.8834 0.52298 0.0
S1191 S 0.18427 0.88987 0.50053 0.0
N1192 N 0.20271 0.88874 0.47603 0.0
N1193 N 0.20287 0.88905 0.52493 0.0
C1194 C 0.22548 0.88777 0.51367 0.0
C1195 C 0.22539 0.8876 0.48716 0.0
C1196 C 0.11428 0.72831 0.51406 0.0
C1197 C 0.11291 0.75079 0.52742 0.0
C1198 C 0.11403 0.72811 0.48792 0.0
C1199 C 0.11237 0.75037 0.47428 0.0
H1200 H 0.11477 0.71071 0.52383 0.0
H1201 H 0.11437 0.71036 0.47839 0.0
S1202 S 0.11156 0.81431 0.50042 0.0
N1203 N 0.11213 0.79596 0.52499 0.0
N1204 N 0.11163 0.79558 0.4761 0.0
C1205 C 0.11215 0.77299 0.48744 0.0
C1206 C 0.11243 0.7732 0.51395 0.0
C1207 C 0.27185 0.11542 0.48726 0.0
C1208 C 0.24934 0.11509 0.47388 0.0
C1209 C 0.27199 0.1153 0.51339 0.0
C1210 C 0.24964 0.11482 0.52698 0.0
H1211 H 0.28947 0.11491 0.47752 0.0
H1212 H 0.28972 0.11471 0.52295 0.0
S1213 S 0.1858 0.11741 0.50078 0.0
N1214 N 0.20419 0.11682 0.47622 0.0
N1215 N 0.20447 0.11656 0.52514 0.0
C1216 C 0.22706 0.11577 0.51381 0.0
C1217 C 0.22691 0.11592 0.4873 0.0
C1218 C 0.8886 0.23019 0.51242 0.0
C1219 C 0.88538 0.25233 0.52597 0.0
C1220 C 0.88862 0.23014 0.48644 0.0
C1221 C 0.88541 0.25222 0.47283 0.0
H1222 H 0.89161 0.2127 0.52193 0.0
H1223 H 0.89164 0.21261 0.47697 0.0
S1224 S 0.875 0.31509 0.49931 0.0
N1225 N 0.87789 0.29688 0.52385 0.0
N1226 N 0.87792 0.29678 0.47481 0.0
C1227 C 0.88136 0.27443 0.48606 0.0
C1228 C 0.88135 0.27449 0.51267 0.0
C1229 C 0.72595 0.88544 0.48783 0.0
C1230 C 0.74831 0.88492 0.47423 0.0
C1231 C 0.72609 0.88549 0.51397 0.0
C1232 C 0.7486 0.88502 0.52734 0.0
H1233 H 0.70827 0.88667 0.47825 0.0
H1234 H 0.70852 0.88677 0.52373 0.0
S1235 S 0.81199 0.87996 0.50046 0.0
N1236 N 0.79337 0.88137 0.47611 0.0
N1237 N 0.79364 0.88145 0.525 0.0
C1238 C 0.77097 0.88319 0.51392 0.0
C1239 C 0.77083 0.88315 0.48742 0.0
C1240 C 0.48697 0.10504 0.23195 0.0
C1241 C 0.47385 0.11069 0.25385 0.0
C1242 C 0.51295 0.10509 0.23141 0.0
C1243 C 0.52702 0.11076 0.25274 0.0
H1244 H 0.47712 0.10025 0.21502 0.0
H1245 H 0.52205 0.10029 0.21409 0.0
S1246 S 0.50176 0.12754 0.31474 0.0
N1247 N 0.47685 0.12272 0.29738 0.0
N1248 N 0.52589 0.12277 0.29637 0.0
C1249 C 0.51421 0.11696 0.27471 0.0
C1250 C 0.48759 0.11693 0.27526 0.0
C1251 C 0.90009 0.51236 0.23246 0.0
C1252 C 0.89126 0.52606 0.25291 0.0
C1253 C 0.90008 0.48637 0.2326 0.0
C1254 C 0.89122 0.47287 0.25318 0.0
H1255 H 0.90729 0.52174 0.21615 0.0
H1256 H 0.90725 0.47683 0.21637 0.0
S1257 S 0.86561 0.49976 0.31135 0.0
N1258 N 0.87304 0.5242 0.29428 0.0
N1259 N 0.873 0.47515 0.29453 0.0
C1260 C 0.88207 0.48626 0.27372 0.0
C1261 C 0.88209 0.51288 0.27359 0.0
C1262 C 0.51165 0.87881 0.26876 0.0
C1263 C 0.52535 0.89164 0.2505 0.0
C1264 C 0.48551 0.87935 0.26893 0.0
C1265 C 0.47218 0.89281 0.25088 0.0
H1266 H 0.52117 0.8682 0.28298 0.0
H1267 H 0.47572 0.86913 0.28326 0.0
S1268 S 0.49934 0.93067 0.19982 0.0
N1269 N 0.52358 0.91887 0.2144 0.0
N1270 N 0.47477 0.91995 0.21474 0.0
C1271 C 0.48572 0.90591 0.23269 0.0
C1272 C 0.51221 0.90531 0.23249 0.0
C1273 C 0.11566 0.51248 0.27127 0.0
C1274 C 0.10712 0.52602 0.25056 0.0
C1275 C 0.11547 0.48634 0.2713 0.0
C1276 C 0.10668 0.47281 0.25065 0.0
H1277 H 0.12239 0.52212 0.28765 0.0
H1278 H 0.12205 0.47671 0.28771 0.0
S1279 S 0.08287 0.4994 0.1915 0.0
N1280 N 0.09008 0.52382 0.20865 0.0
N1281 N 0.08968 0.475 0.20873 0.0
C1282 C 0.09834 0.48615 0.22974 0.0
C1283 C 0.09857 0.51267 0.2297 0.0
C1284 C 0.48712 0.88574 0.72768 0.0
C1285 C 0.4734 0.88892 0.74974 0.0
C1286 C 0.51327 0.88584 0.72792 0.0
C1287 C 0.52659 0.8891 0.75025 0.0
H1288 H 0.47762 0.88372 0.71002 0.0
H1289 H 0.52308 0.8839 0.71044 0.0
S1290 S 0.4994 0.89566 0.81342 0.0
N1291 N 0.47514 0.89365 0.79472 0.0
N1292 N 0.524 0.89381 0.7952 0.0
C1293 C 0.51304 0.89142 0.77252 0.0
C1294 C 0.48653 0.89134 0.77226 0.0
C1295 C 0.1008 0.48633 0.76604 0.0
C1296 C 0.11041 0.47265 0.74594 0.0
C1297 C 0.10098 0.51229 0.76603 0.0
C1298 C 0.11079 0.52583 0.74591 0.0
H1299 H 0.09278 0.47693 0.78196 0.0
H1300 H 0.09309 0.52179 0.78194 0.0
S1301 S 0.1391 0.49905 0.68897 0.0
N1302 N 0.13067 0.47458 0.70552 0.0
N1303 N 0.13101 0.52364 0.7055 0.0
C1304 C 0.12085 0.51249 0.72577 0.0
C1305 C 0.12066 0.48586 0.72578 0.0
C1306 C 0.48727 0.11773 0.73095 0.0
C1307 C 0.47375 0.10483 0.74932 0.0
C1308 C 0.51342 0.11797 0.73106 0.0
C1309 C 0.52695 0.10536 0.74956 0.0
H1310 H 0.4776 0.1278 0.71645 0.0
H1311 H 0.52307 0.12822 0.71665 0.0
S1312 S 0.50041 0.06769 0.80108 0.0
N1313 N 0.47598 0.0784 0.78598 0.0
N1314 N 0.5248 0.07887 0.7862 0.0
C1315 C 0.51362 0.09218 0.76784 0.0
C1316 C 0.48712 0.09191 0.76772 0.0
C1317 C 0.88473 0.51189 0.72818 0.0
C1318 C 0.88841 0.52552 0.75025 0.0
C1319 C 0.88482 0.48575 0.72828 0.0
C1320 C 0.8886 0.47236 0.75044 0.0
H1321 H 0.88241 0.52145 0.71061 0.0
H1322 H 0.88254 0.47601 0.71078 0.0
S1323 S 0.89637 0.49926 0.81363 0.0
N1324 N 0.89399 0.5236 0.79513 0.0
N1325 N 0.89418 0.47473 0.7953 0.0
C1326 C 0.89133 0.4858 0.77275 0.0
C1327 C 0.89122 0.5123 0.77265 0.0
C1328 C 0.23271 0.5125 0.10152 0.0
C1329 C 0.25345 0.52616 0.10986 0.0
C1330 C 0.23271 0.48651 0.10147 0.0
C1331 C 0.25345 0.47296 0.10978 0.0
H1332 H 0.21627 0.52192 0.09473 0.0
H1333 H 0.21627 0.47701 0.09466 0.0
S1334 S 0.31234 0.49971 0.13413 0.0
N1335 N 0.29523 0.52419 0.12713 0.0
N1336 N 0.29523 0.47514 0.12707 0.0
C1337 C 0.27426 0.4863 0.11851 0.0
C1338 C 0.27427 0.51293 0.11854 0.0
C1339 C 0.23183 0.51189 0.8992 0.0
C1340 C 0.25271 0.52546 0.89111 0.0
C1341 C 0.23172 0.48591 0.89918 0.0
C1342 C 0.25249 0.47228 0.89109 0.0
H1343 H 0.21537 0.52138 0.90583 0.0
H1344 H 0.21518 0.47647 0.90581 0.0
S1345 S 0.31174 0.49878 0.86743 0.0
N1346 N 0.29465 0.52333 0.87428 0.0
N1347 N 0.29445 0.47428 0.87426 0.0
C1348 C 0.27344 0.48552 0.8826 0.0
C1349 C 0.27355 0.51215 0.88261 0.0
C1350 C 0.4857 0.23276 0.89935 0.0
C1351 C 0.4717 0.25281 0.89019 0.0
C1352 C 0.51167 0.23308 0.89876 0.0
C1353 C 0.52485 0.25348 0.889 0.0
H1354 H 0.47657 0.21663 0.9073 0.0
H1355 H 0.52147 0.21721 0.90632 0.0
S1356 S 0.49709 0.31043 0.8618 0.0
N1357 N 0.47292 0.29347 0.8704 0.0
N1358 N 0.52195 0.2941 0.86933 0.0
C1359 C 0.51116 0.27357 0.8794 0.0
C1360 C 0.48455 0.27323 0.87998 0.0
C1361 C 0.72846 0.51381 0.88418 0.0
C1362 C 0.75068 0.52743 0.88695 0.0
C1363 C 0.72857 0.48768 0.88399 0.0
C1364 C 0.75089 0.4743 0.88651 0.0
H1365 H 0.7108 0.52335 0.88287 0.0
H1366 H 0.71096 0.47793 0.88255 0.0
S1367 S 0.81439 0.50126 0.89125 0.0
N1368 N 0.79579 0.52558 0.89014 0.0
N1369 N 0.79598 0.4767 0.88974 0.0
C1370 C 0.77331 0.48775 0.88819 0.0
C1371 C 0.7732 0.51425 0.88842 0.0
C1372 C 0.48662 0.72814 0.88369 0.0
C1373 C 0.47316 0.74976 0.88962 0.0
C1374 C 0.51276 0.72805 0.88397 0.0
C1375 C 0.52636 0.74958 0.89022 0.0
H1376 H 0.47692 0.71102 0.87923 0.0
H1377 H 0.52235 0.71088 0.87969 0.0
S1378 S 0.49998 0.81155 0.90545 0.0
N1379 N 0.47549 0.79363 0.90064 0.0
N1380 N 0.52433 0.79346 0.9012 0.0
C1381 C 0.51309 0.77148 0.89553 0.0
C1382 C 0.48658 0.77158 0.89522 0.0
C1383 C 0.76778 0.51271 0.10492 0.0
C1384 C 0.74618 0.52623 0.11064 0.0
C1385 C 0.76793 0.48674 0.10541 0.0
C1386 C 0.74647 0.47307 0.11158 0.0
H1387 H 0.78479 0.52222 0.09973 0.0
H1388 H 0.78504 0.47733 0.10052 0.0
S1389 S 0.68517 0.49949 0.12894 0.0
N1390 N 0.70283 0.52406 0.12341 0.0
N1391 N 0.70308 0.47501 0.12426 0.0
C1392 C 0.7248 0.48629 0.11788 0.0
C1393 C 0.72466 0.5129 0.11742 0.0
C1394 C 0.51272 0.76764 0.10113 0.0
C1395 C 0.52608 0.74679 0.10944 0.0
C1396 C 0.48674 0.76801 0.10147 0.0
C1397 C 0.47291 0.74754 0.11012 0.0
H1398 H 0.52237 0.78388 0.09406 0.0
H1399 H 0.47745 0.7845 0.09461 0.0
S1400 S 0.49884 0.68853 0.13462 0.0
N1401 N 0.52355 0.70523 0.12714 0.0
N1402 N 0.47451 0.70591 0.12775 0.0
C1403 C 0.48596 0.72664 0.11886 0.0
C1404 C 0.51257 0.72626 0.11853 0.0
C1405 C 0.5124 0.23108 0.10256 0.0
C1406 C 0.52618 0.25187 0.11055 0.0
C1407 C 0.48642 0.23123 0.10255 0.0
C1408 C 0.47299 0.25217 0.11054 0.0
H1409 H 0.52172 0.21451 0.09595 0.0
H1410 H 0.47681 0.21475 0.09596 0.0
S1411 S 0.50009 0.31123 0.13408 0.0
N1412 N 0.52447 0.29388 0.12729 0.0
N1413 N 0.47542 0.29415 0.12729 0.0
C1414 C 0.48645 0.27301 0.11903 0.0
C1415 C 0.51308 0.27286 0.11903 0.0
C1416 C 0.61349 0.77152 0.01287 0.0
C1417 C 0.61002 0.74936 0.02636 0.0
C1418 C 0.61359 0.77151 0.98672 0.0
C1419 C 0.61023 0.74933 0.97318 0.0
H1420 H 0.61557 0.78909 0.02254 0.0
H1421 H 0.61574 0.78906 0.97708 0.0
S1422 S 0.60301 0.68596 0.9997 0.0
N1423 N 0.60497 0.70441 0.02416 0.0
N1424 N 0.60516 0.7044 0.97529 0.0
C1425 C 0.60764 0.72696 0.98649 0.0
C1426 C 0.60754 0.72697 0.013 0.0
C1427 C 0.26762 0.60044 0.98751 0.0
C1428 C 0.24688 0.60865 0.97389 0.0
C1429 C 0.26761 0.60046 0.0135 0.0
C1430 C 0.24685 0.60869 0.02709 0.0
H1431 H 0.28406 0.59368 0.97805 0.0
H1432 H 0.28404 0.59373 0.02299 0.0
S1433 S 0.18797 0.6328 0.00043 0.0
N1434 N 0.2051 0.62579 0.97593 0.0
N1435 N 0.20507 0.62584 0.02497 0.0
C1436 C 0.22603 0.61731 0.01378 0.0
C1437 C 0.22605 0.61728 0.98716 0.0
C1438 C 0.39654 0.26722 0.0137 0.0
C1439 C 0.38972 0.24599 0.02739 0.0
C1440 C 0.3964 0.26713 0.9877 0.0
C1441 C 0.38942 0.2458 0.97419 0.0
H1442 H 0.40228 0.28411 0.02311 0.0
H1443 H 0.40203 0.28395 0.97815 0.0
S1444 S 0.36939 0.18542 0.00105 0.0
N1445 N 0.37534 0.20309 0.0255 0.0
N1446 N 0.37506 0.20292 0.97646 0.0
C1447 C 0.3822 0.22449 0.98757 0.0
C1448 C 0.38235 0.22458 0.01419 0.0
C1449 C 0.76951 0.38293 0.01284 0.0
C1450 C 0.7516 0.3963 0.02642 0.0
C1451 C 0.76957 0.38314 0.9867 0.0
C1452 C 0.75175 0.39676 0.97324 0.0
H1453 H 0.78343 0.37202 0.02244 0.0
H1454 H 0.78355 0.37238 0.977 0.0
S1455 S 0.70184 0.4362 5e-05 0.0
N1456 N 0.71625 0.42441 0.02441 0.0
N1457 N 0.71637 0.42482 0.97556 0.0
C1458 C 0.73403 0.41055 0.98665 0.0
C1459 C 0.73396 0.41032 0.01316 0.0
C1460 C 0.61527 0.23079 0.98529 0.0
C1461 C 0.60475 0.2508 0.97214 0.0
C1462 C 0.61526 0.23031 0.01142 0.0
C1463 C 0.60474 0.24981 0.02533 0.0
H1464 H 0.62354 0.21536 0.97535 0.0
H1465 H 0.62355 0.21453 0.02076 0.0
S1466 S 0.57451 0.30638 0.99982 0.0
N1467 N 0.58335 0.29055 0.97509 0.0
N1468 N 0.58334 0.28963 0.02392 0.0
C1469 C 0.59416 0.26991 0.01237 0.0
C1470 C 0.59416 0.27041 0.98586 0.0
C1471 C 0.73238 0.59898 0.0121 0.0
C1472 C 0.75251 0.6085 0.02587 0.0
C1473 C 0.73252 0.59912 0.98609 0.0
C1474 C 0.7528 0.60881 0.97268 0.0
H1475 H 0.71633 0.59113 0.02144 0.0
H1476 H 0.71658 0.59138 0.97646 0.0
S1477 S 0.81 0.63658 0.9998 0.0
N1478 N 0.7932 0.62834 0.02417 0.0
N1479 N 0.79347 0.62863 0.97514 0.0
C1480 C 0.77301 0.61868 0.98616 0.0
C1481 C 0.77286 0.61852 0.01277 0.0
C1482 C 0.38178 0.76933 0.98639 0.0
C1483 C 0.3933 0.75002 0.97301 0.0
C1484 C 0.38183 0.76958 0.01254 0.0
C1485 C 0.3934 0.75053 0.02623 0.0
H1486 H 0.37263 0.78436 0.97663 0.0
H1487 H 0.3727 0.78479 0.02207 0.0
S1488 S 0.42691 0.69613 4e-05 0.0
N1489 N 0.41704 0.71162 0.9755 0.0
N1490 N 0.41714 0.71209 0.02433 0.0
C1491 C 0.40508 0.7312 0.01302 0.0
C1492 C 0.40503 0.73094 0.98651 0.0
C1493 C 0.26739 0.39774 0.01345 0.0
C1494 C 0.24666 0.38962 0.02719 0.0
C1495 C 0.26719 0.39771 0.98746 0.0
C1496 C 0.24626 0.38955 0.974 0.0
H1497 H 0.28396 0.40445 0.0228 0.0
H1498 H 0.28362 0.40438 0.97787 0.0
S1499 S 0.18735 0.36565 0.00102 0.0
N1500 N 0.20471 0.37261 0.02542 0.0
N1501 N 0.20435 0.37254 0.97637 0.0
C1502 C 0.22547 0.381 0.98743 0.0
C1503 C 0.22567 0.38104 0.01405 0.0
C1504 C 0.01362 0.6149 0.76927 0.0
C1505 C 0.02707 0.60539 0.74893 0.0
C1506 C 0.98749 0.61478 0.76939 0.0
C1507 C 0.97386 0.60512 0.7492 0.0
H1508 H 0.02332 0.62244 0.78526 0.0
H1509 H 0.97793 0.62223 0.78548 0.0
S1510 S 0.00021 0.57801 0.69136 0.0
N1511 N 0.0247 0.58609 0.70802 0.0
N1512 N 0.97586 0.58584 0.70826 0.0
C1513 C 0.98711 0.59564 0.72872 0.0
C1514 C 0.01363 0.59578 0.72858 0.0
C1515 C 0.39694 0.98582 0.73095 0.0
C1516 C 0.39016 0.97219 0.75222 0.0
C1517 C 0.39663 0.01181 0.73091 0.0
C1518 C 0.38956 0.02535 0.75214 0.0
H1519 H 0.40277 0.97637 0.71414 0.0
H1520 H 0.40228 0.02134 0.71407 0.0
S1521 S 0.36956 0.99862 0.81256 0.0
N1522 N 0.37566 0.97415 0.79503 0.0
N1523 N 0.37512 0.02318 0.79497 0.0
C1524 C 0.38233 0.01202 0.77347 0.0
C1525 C 0.38262 0.98542 0.77351 0.0
C1526 C 0.01318 0.38625 0.77183 0.0
C1527 C 0.02656 0.39053 0.74974 0.0
C1528 C 0.98704 0.38627 0.77199 0.0
C1529 C 0.9734 0.3906 0.75007 0.0
H1530 H 0.02293 0.38331 0.78921 0.0
H1531 H 0.97749 0.38334 0.78948 0.0
S1532 S 0.99958 0.40055 0.68693 0.0
N1533 N 0.02413 0.39764 0.7051 0.0
N1534 N 0.97526 0.3977 0.70542 0.0
C1535 C 0.98659 0.39417 0.72776 0.0
C1536 C 0.01309 0.39413 0.72759 0.0
C1537 C 0.60061 0.987 0.73399 0.0
C1538 C 0.60862 0.97346 0.75486 0.0
C1539 C 0.60107 0.01297 0.7338 0.0
C1540 C 0.60954 0.02661 0.75448 0.0
H1541 H 0.59375 0.9775 0.71757 0.0
H1542 H 0.5945 0.02239 0.71726 0.0
S1543 S 0.63302 0.00017 0.81372 0.0
N1544 N 0.62569 0.97561 0.79673 0.0
N1545 N 0.62651 0.02465 0.79639 0.0
C1546 C 0.61787 0.01339 0.77546 0.0
C1547 C 0.61743 0.98678 0.77564 0.0
C1548 C 0.9866 0.38578 0.22766 0.0
C1549 C 0.97302 0.38815 0.24991 0.0
C1550 C 0.01273 0.38556 0.2278 0.0
C1551 C 0.02615 0.3877 0.2502 0.0
H1552 H 0.97701 0.38473 0.20997 0.0
H1553 H 0.02246 0.38437 0.21021 0.0
S1554 S 0.99933 0.3914 0.31372 0.0
N1555 N 0.97496 0.39061 0.29507 0.0
N1556 N 0.02384 0.3902 0.29532 0.0
C1557 C 0.01274 0.38906 0.27261 0.0
C1558 C 0.98624 0.38928 0.27247 0.0
C1559 C 0.6177 0.01123 0.23009 0.0
C1560 C 0.60443 0.02493 0.24801 0.0
C1561 C 0.61795 0.9851 0.23056 0.0
C1562 C 0.60496 0.97177 0.24899 0.0
H1563 H 0.62812 0.02074 0.2157 0.0
H1564 H 0.62851 0.97531 0.21649 0.0
S1565 S 0.56616 0.99886 0.29931 0.0
N1566 N 0.57719 0.02313 0.2841 0.0
N1567 N 0.57767 0.97431 0.28502 0.0
C1568 C 0.59137 0.98529 0.26679 0.0
C1569 C 0.5911 0.01178 0.2663 0.0
C1570 C 0.01309 0.60239 0.26828 0.0
C1571 C 0.02685 0.60995 0.24735 0.0
C1572 C 0.98711 0.60228 0.26806 0.0
C1573 C 0.97368 0.6097 0.24689 0.0
H1574 H 0.02244 0.59623 0.28502 0.0
H1575 H 0.97751 0.59604 0.28464 0.0
S1576 S 0.00072 0.63189 0.18738 0.0
N1577 N 0.02511 0.62564 0.20496 0.0
N1578 N 0.97607 0.62542 0.20453 0.0
C1579 C 0.98712 0.61773 0.2259 0.0
C1580 C 0.01373 0.61786 0.22614 0.0
C1581 C 0.38466 0.0135 0.23059 0.0
C1582 C 0.39095 0.02689 0.25222 0.0
C1583 C 0.38412 0.98737 0.23052 0.0
C1584 C 0.38984 0.97371 0.25208 0.0
H1585 H 0.3805 0.02324 0.21346 0.0
H1586 H 0.37961 0.97785 0.21333 0.0
S1587 S 0.40575 -8e-05 0.31406 0.0
N1588 N 0.4018 0.02446 0.29611 0.0
N1589 N 0.40077 0.97561 0.29599 0.0
C1590 C 0.39553 0.98691 0.27399 0.0
C1591 C 0.39609 0.01342 0.27405 0.0
C1592 C 0.73428 0.01227 0.59595 0.0
C1593 C 0.75435 0.02604 0.60563 0.0
C1594 C 0.73442 0.98628 0.59597 0.0
C1595 C 0.75462 0.97286 0.60569 0.0
H1596 H 0.71821 0.02161 0.58823 0.0
H1597 H 0.71843 0.97667 0.58828 0.0
S1598 S 0.81194 -5e-05 0.63322 0.0
N1599 N 0.79514 0.02432 0.62519 0.0
N1600 N 0.79538 0.97529 0.62524 0.0
C1601 C 0.7749 0.98632 0.61543 0.0
C1602 C 0.77477 0.01293 0.6154 0.0
C1603 C 0.73402 0.01175 0.40479 0.0
C1604 C 0.75382 0.02517 0.39416 0.0
C1605 C 0.73383 0.98575 0.40497 0.0
C1606 C 0.75342 0.972 0.3945 0.0
H1607 H 0.71842 0.02136 0.41313 0.0
H1608 H 0.71809 0.9764 0.41343 0.0
S1609 S 0.80976 0.99812 0.36424 0.0
N1610 N 0.79364 0.02277 0.37284 0.0
N1611 N 0.79328 0.97374 0.37315 0.0
C1612 C 0.77341 0.98512 0.38378 0.0
C1613 C 0.77361 0.01173 0.38362 0.0
C1614 C 0.98591 0.73257 0.40297 0.0
C1615 C 0.97237 0.75255 0.39297 0.0
C1616 C 0.01192 0.73269 0.40321 0.0
C1617 C 0.02556 0.75277 0.39341 0.0
H1618 H 0.97638 0.71664 0.41085 0.0
H1619 H 0.02137 0.71684 0.41123 0.0
S1620 S 0.9991 0.80964 0.36475 0.0
N1621 N 0.97455 0.79298 0.37281 0.0
N1622 N 0.02357 0.79319 0.3732 0.0
C1623 C 0.01231 0.77287 0.3832 0.0
C1624 C 0.98571 0.77277 0.38299 0.0
C1625 C 0.23013 0.01323 0.38234 0.0
C1626 C 0.24689 0.02674 0.39731 0.0
C1627 C 0.23009 0.98709 0.38224 0.0
C1628 C 0.24683 0.97355 0.39709 0.0
H1629 H 0.21711 0.0229 0.37041 0.0
H1630 H 0.21704 0.97746 0.37024 0.0
S1631 S 0.29329 8e-05 0.44094 0.0
N1632 N 0.27985 0.02453 0.42827 0.0
N1633 N 0.27979 0.97567 0.42807 0.0
C1634 C 0.26334 0.98687 0.41249 0.0
C1635 C 0.26337 0.01338 0.4126 0.0
C1636 C 0.01286 0.23059 0.38229 0.0
C1637 C 0.02629 0.24736 0.39732 0.0
C1638 C 0.98672 0.23049 0.38211 0.0
C1639 C 0.97309 0.24719 0.39694 0.0
H1640 H 0.02259 0.21764 0.37033 0.0
H1641 H 0.97714 0.21749 0.37002 0.0
S1642 S 0.99939 0.29345 0.44115 0.0
N1643 N 0.02391 0.28014 0.42846 0.0
N1644 N 0.97504 0.27998 0.42813 0.0
C1645 C 0.98633 0.26365 0.41247 0.0
C1646 C 0.01285 0.26373 0.41266 0.0
C1647 C 0.22832 0.01342 0.61454 0.0
C1648 C 0.24935 0.02691 0.60661 0.0
C1649 C 0.22824 0.98728 0.61464 0.0
C1650 C 0.24918 0.9737 0.60683 0.0
H1651 H 0.2117 0.0231 0.62046 0.0
H1652 H 0.21155 0.97768 0.62062 0.0
S1653 S 0.30946 0.00018 0.58565 0.0
N1654 N 0.29201 0.02464 0.59166 0.0
N1655 N 0.29186 0.9758 0.59186 0.0
C1656 C 0.27046 0.987 0.59928 0.0
C1657 C 0.27054 0.01352 0.59917 0.0
C1658 C 0.9863 0.22938 0.61645 0.0
C1659 C 0.97292 0.24654 0.60193 0.0
C1660 C 0.01244 0.22908 0.6163 0.0
C1661 C 0.02612 0.24592 0.60162 0.0
H1662 H 0.97653 0.21631 0.62828 0.0
H1663 H 0.02198 0.21581 0.62805 0.0
S1664 S -6e-05 0.29323 0.55872 0.0
N1665 N 0.9754 0.27987 0.57142 0.0
N1666 N 0.02425 0.2793 0.57114 0.0
C1667 C 0.01293 0.26275 0.58657 0.0
C1668 C 0.98642 0.26306 0.58673 0.0
C1669 C 0.01162 0.76969 0.61752 0.0
C1670 C 0.02537 0.75202 0.60399 0.0
C1671 C 0.98547 0.76938 0.61738 0.0
C1672 C 0.97217 0.75139 0.60371 0.0
H1673 H 0.02109 0.78372 0.62849 0.0
H1674 H 0.97565 0.78319 0.62825 0.0
S1675 S 0.9994 0.70197 0.56389 0.0
N1676 N 0.02364 0.7167 0.57568 0.0
N1677 N 0.97479 0.71613 0.57543 0.0
C1678 C 0.98574 0.7339 0.58978 0.0
C1679 C 0.01225 0.73421 0.58991 0.0
loop_
_geom_bond_atom_site_label_1
_geom_bond_atom_site_label_2
_geom_bond_distance
_geom_bond_site_symmetry_2
_ccdc_geom_bond_type
In0 O1 2.294 . S
In0 O2 2.326 . S
In0 O6 2.266 . S
In0 O7 2.326 . S
In0 O8 2.266 . S
In0 O9 2.326 . S
In0 O11 2.294 . S
In0 O12 2.326 . S
O1 In0 2.294 . S
O1 C10 1.240 . S
O2 In0 2.326 . S
O2 C10 1.252 . S
C3 O6 1.252 . S
C3 O7 1.260 . S
C4 O11 1.240 . S
C4 O12 1.252 . S
C5 O8 1.252 . S
C5 O9 1.260 . S
O6 In0 2.266 . S
O6 C3 1.252 . S
O7 In0 2.326 . S
O7 C3 1.260 . S
O8 In0 2.266 . S
O8 C5 1.252 . S
O9 In0 2.326 . S
O9 C5 1.260 . S
C10 O1 1.240 . S
C10 O2 1.252 . S
O11 In0 2.294 . S
O11 C4 1.240 . S
O12 In0 2.326 . S
O12 C4 1.252 . S
In13 O14 2.294 . S
In13 O15 2.326 . S
In13 O19 2.266 . S
In13 O20 2.326 . S
In13 O21 2.266 . S
In13 O22 2.326 . S
In13 O24 2.294 . S
In13 O25 2.326 . S
O14 In13 2.294 . S
O14 C23 1.240 . S
O15 In13 2.326 . S
O15 C23 1.252 . S
C16 O19 1.252 . S
C16 O20 1.260 . S
C17 O24 1.240 . S
C17 O25 1.252 . S
C18 O21 1.252 . S
C18 O22 1.260 . S
O19 In13 2.266 . S
O19 C16 1.252 . S
O20 In13 2.326 . S
O20 C16 1.260 . S
O21 In13 2.266 . S
O21 C18 1.252 . S
O22 In13 2.326 . S
O22 C18 1.260 . S
C23 O14 1.240 . S
C23 O15 1.252 . S
O24 In13 2.294 . S
O24 C17 1.240 . S
O25 In13 2.326 . S
O25 C17 1.252 . S
In26 O27 2.294 . S
In26 O28 2.326 . S
In26 O32 2.266 . S
In26 O33 2.326 . S
In26 O34 2.266 . S
In26 O35 2.326 . S
In26 O37 2.294 . S
In26 O38 2.326 . S
O27 In26 2.294 . S
O27 C36 1.240 . S
O28 In26 2.326 . S
O28 C36 1.252 . S
C29 O32 1.252 . S
C29 O33 1.260 . S
C30 O37 1.240 . S
C30 O38 1.252 . S
C31 O34 1.252 . S
C31 O35 1.260 . S
O32 In26 2.266 . S
O32 C29 1.252 . S
O33 In26 2.326 . S
O33 C29 1.260 . S
O34 In26 2.266 . S
O34 C31 1.252 . S
O35 In26 2.326 . S
O35 C31 1.260 . S
C36 O27 1.240 . S
C36 O28 1.252 . S
O37 In26 2.294 . S
O37 C30 1.240 . S
O38 In26 2.326 . S
O38 C30 1.252 . S
In39 O40 2.294 . S
In39 O41 2.326 . S
In39 O45 2.266 . S
In39 O46 2.326 . S
In39 O47 2.266 . S
In39 O48 2.326 . S
In39 O50 2.294 . S
In39 O51 2.326 . S
O40 In39 2.294 . S
O40 C49 1.240 . S
O41 In39 2.326 . S
O41 C49 1.252 . S
C42 O45 1.252 . S
C42 O46 1.260 . S
C43 O50 1.240 . S
C43 O51 1.252 . S
C44 O47 1.252 . S
C44 O48 1.260 . S
O45 In39 2.266 . S
O45 C42 1.252 . S
O46 In39 2.326 . S
O46 C42 1.260 . S
O47 In39 2.266 . S
O47 C44 1.252 . S
O48 In39 2.326 . S
O48 C44 1.260 . S
C49 O40 1.240 . S
C49 O41 1.252 . S
O50 In39 2.294 . S
O50 C43 1.240 . S
O51 In39 2.326 . S
O51 C43 1.252 . S
In52 O53 2.294 . S
In52 O54 2.326 . S
In52 O58 2.266 . S
In52 O59 2.326 . S
In52 O60 2.266 . S
In52 O61 2.326 . S
In52 O63 2.294 . S
In52 O64 2.326 . S
O53 In52 2.294 . S
O53 C62 1.240 . S
O54 In52 2.326 . S
O54 C62 1.252 . S
C55 O58 1.252 . S
C55 O59 1.260 . S
C56 O63 1.240 . S
C56 O64 1.252 . S
C57 O60 1.252 . S
C57 O61 1.260 . S
O58 In52 2.266 . S
O58 C55 1.252 . S
O59 In52 2.326 . S
O59 C55 1.260 . S
O60 In52 2.266 . S
O60 C57 1.252 . S
O61 In52 2.326 . S
O61 C57 1.260 . S
C62 O53 1.240 . S
C62 O54 1.252 . S
O63 In52 2.294 . S
O63 C56 1.240 . S
O64 In52 2.326 . S
O64 C56 1.252 . S
In65 O66 2.294 . S
In65 O67 2.326 . S
In65 O71 2.266 . S
In65 O72 2.326 . S
In65 O73 2.266 . S
In65 O74 2.326 . S
In65 O76 2.294 . S
In65 O77 2.326 . S
O66 In65 2.294 . S
O66 C75 1.240 . S
O67 In65 2.326 . S
O67 C75 1.252 . S
C68 O71 1.252 . S
C68 O72 1.260 . S
C69 O76 1.240 . S
C69 O77 1.252 . S
C70 O73 1.252 . S
C70 O74 1.260 . S
O71 In65 2.266 . S
O71 C68 1.252 . S
O72 In65 2.326 . S
O72 C68 1.260 . S
O73 In65 2.266 . S
O73 C70 1.252 . S
O74 In65 2.326 . S
O74 C70 1.260 . S
C75 O66 1.240 . S
C75 O67 1.252 . S
O76 In65 2.294 . S
O76 C69 1.240 . S
O77 In65 2.326 . S
O77 C69 1.252 . S
In78 O79 2.294 . S
In78 O80 2.326 . S
In78 O84 2.266 . S
In78 O85 2.326 . S
In78 O86 2.266 . S
In78 O87 2.326 . S
In78 O89 2.294 . S
In78 O90 2.326 . S
O79 In78 2.294 . S
O79 C88 1.240 . S
O80 In78 2.326 . S
O80 C88 1.252 . S
C81 O84 1.252 . S
C81 O85 1.260 . S
C82 O89 1.240 . S
C82 O90 1.252 . S
C83 O86 1.252 . S
C83 O87 1.260 . S
O84 In78 2.266 . S
O84 C81 1.252 . S
O85 In78 2.326 . S
O85 C81 1.260 . S
O86 In78 2.266 . S
O86 C83 1.252 . S
O87 In78 2.326 . S
O87 C83 1.260 . S
C88 O79 1.240 . S
C88 O80 1.252 . S
O89 In78 2.294 . S
O89 C82 1.240 . S
O90 In78 2.326 . S
O90 C82 1.252 . S
In91 O92 2.294 . S
In91 O93 2.326 . S
In91 O97 2.266 . S
In91 O98 2.326 . S
In91 O99 2.266 . S
In91 O100 2.326 . S
In91 O102 2.294 . S
In91 O103 2.326 . S
O92 In91 2.294 . S
O92 C101 1.240 . S
O93 In91 2.326 . S
O93 C101 1.252 . S
C94 O97 1.252 . S
C94 O98 1.260 . S
C95 O102 1.240 . S
C95 O103 1.252 . S
C96 O99 1.252 . S
C96 O100 1.260 . S
O97 In91 2.266 . S
O97 C94 1.252 . S
O98 In91 2.326 . S
O98 C94 1.260 . S
O99 In91 2.266 . S
O99 C96 1.252 . S
O100 In91 2.326 . S
O100 C96 1.260 . S
C101 O92 1.240 . S
C101 O93 1.252 . S
O102 In91 2.294 . S
O102 C95 1.240 . S
O103 In91 2.326 . S
O103 C95 1.252 . S
In104 O105 2.294 . S
In104 O106 2.326 . S
In104 O110 2.266 . S
In104 O111 2.326 . S
In104 O112 2.266 . S
In104 O113 2.326 . S
In104 O115 2.294 . S
In104 O116 2.326 . S
O105 In104 2.294 . S
O105 C114 1.240 . S
O106 In104 2.326 . S
O106 C114 1.252 . S
C107 O110 1.252 . S
C107 O111 1.260 . S
C108 O115 1.240 . S
C108 O116 1.252 . S
C109 O112 1.252 . S
C109 O113 1.260 . S
O110 In104 2.266 . S
O110 C107 1.252 . S
O111 In104 2.326 . S
O111 C107 1.260 . S
O112 In104 2.266 . S
O112 C109 1.252 . S
O113 In104 2.326 . S
O113 C109 1.260 . S
C114 O105 1.240 . S
C114 O106 1.252 . S
O115 In104 2.294 . S
O115 C108 1.240 . S
O116 In104 2.326 . S
O116 C108 1.252 . S
In117 O118 2.294 . S
In117 O119 2.326 . S
In117 O123 2.266 . S
In117 O124 2.326 . S
In117 O125 2.266 . S
In117 O126 2.326 . S
In117 O128 2.294 . S
In117 O129 2.326 . S
O118 In117 2.294 . S
O118 C127 1.240 . S
O119 In117 2.326 . S
O119 C127 1.252 . S
C120 O123 1.252 . S
C120 O124 1.260 . S
C121 O128 1.240 . S
C121 O129 1.252 . S
C122 O125 1.252 . S
C122 O126 1.260 . S
O123 In117 2.266 . S
O123 C120 1.252 . S
O124 In117 2.326 . S
O124 C120 1.260 . S
O125 In117 2.266 . S
O125 C122 1.252 . S
O126 In117 2.326 . S
O126 C122 1.260 . S
C127 O118 1.240 . S
C127 O119 1.252 . S
O128 In117 2.294 . S
O128 C121 1.240 . S
O129 In117 2.326 . S
O129 C121 1.252 . S
In130 O131 2.294 . S
In130 O132 2.326 . S
In130 O136 2.266 . S
In130 O137 2.326 . S
In130 O138 2.266 . S
In130 O139 2.326 . S
In130 O141 2.294 . S
In130 O142 2.326 . S
O131 In130 2.294 . S
O131 C140 1.240 . S
O132 In130 2.326 . S
O132 C140 1.252 . S
C133 O136 1.252 . S
C133 O137 1.260 . S
C134 O141 1.240 . S
C134 O142 1.252 . S
C135 O138 1.252 . S
C135 O139 1.260 . S
O136 In130 2.266 . S
O136 C133 1.252 . S
O137 In130 2.326 . S
O137 C133 1.260 . S
O138 In130 2.266 . S
O138 C135 1.252 . S
O139 In130 2.326 . S
O139 C135 1.260 . S
C140 O131 1.240 . S
C140 O132 1.252 . S
O141 In130 2.294 . S
O141 C134 1.240 . S
O142 In130 2.326 . S
O142 C134 1.252 . S
In143 O144 2.294 . S
In143 O145 2.326 . S
In143 O149 2.266 . S
In143 O150 2.326 . S
In143 O151 2.266 . S
In143 O152 2.326 . S
In143 O154 2.294 . S
In143 O155 2.326 . S
O144 In143 2.294 . S
O144 C153 1.240 . S
O145 In143 2.326 . S
O145 C153 1.252 . S
C146 O149 1.252 . S
C146 O150 1.260 . S
C147 O154 1.240 . S
C147 O155 1.252 . S
C148 O151 1.252 . S
C148 O152 1.260 . S
O149 In143 2.266 . S
O149 C146 1.252 . S
O150 In143 2.326 . S
O150 C146 1.260 . S
O151 In143 2.266 . S
O151 C148 1.252 . S
O152 In143 2.326 . S
O152 C148 1.260 . S
C153 O144 1.240 . S
C153 O145 1.252 . S
O154 In143 2.294 . S
O154 C147 1.240 . S
O155 In143 2.326 . S
O155 C147 1.252 . S
In156 O157 2.294 . S
In156 O158 2.326 . S
In156 O162 2.266 . S
In156 O163 2.326 . S
In156 O164 2.266 . S
In156 O165 2.326 . S
In156 O167 2.294 . S
In156 O168 2.326 . S
O157 In156 2.294 . S
O157 C166 1.240 . S
O158 In156 2.326 . S
O158 C166 1.252 . S
C159 O162 1.252 . S
C159 O163 1.260 . S
C160 O167 1.240 . S
C160 O168 1.252 . S
C161 O164 1.252 . S
C161 O165 1.260 . S
O162 In156 2.266 . S
O162 C159 1.252 . S
O163 In156 2.326 . S
O163 C159 1.260 . S
O164 In156 2.266 . S
O164 C161 1.252 . S
O165 In156 2.326 . S
O165 C161 1.260 . S
C166 O157 1.240 . S
C166 O158 1.252 . S
O167 In156 2.294 . S
O167 C160 1.240 . S
O168 In156 2.326 . S
O168 C160 1.252 . S
In169 O170 2.294 . S
In169 O171 2.326 . S
In169 O175 2.266 . S
In169 O176 2.326 . S
In169 O177 2.266 . S
In169 O178 2.326 . S
In169 O180 2.294 . S
In169 O181 2.326 . S
O170 In169 2.294 . S
O170 C179 1.240 . S
O171 In169 2.326 . S
O171 C179 1.252 . S
C172 O175 1.252 . S
C172 O176 1.260 . S
C173 O180 1.240 . S
C173 O181 1.252 . S
C174 O177 1.252 . S
C174 O178 1.260 . S
O175 In169 2.266 . S
O175 C172 1.252 . S
O176 In169 2.326 . S
O176 C172 1.260 . S
O177 In169 2.266 . S
O177 C174 1.252 . S
O178 In169 2.326 . S
O178 C174 1.260 . S
C179 O170 1.240 . S
C179 O171 1.252 . S
O180 In169 2.294 . S
O180 C173 1.240 . S
O181 In169 2.326 . S
O181 C173 1.252 . S
In182 O183 2.294 . S
In182 O184 2.326 . S
In182 O188 2.266 . S
In182 O189 2.326 . S
In182 O190 2.266 . S
In182 O191 2.326 . S
In182 O193 2.294 . S
In182 O194 2.326 . S
O183 In182 2.294 . S
O183 C192 1.240 . S
O184 In182 2.326 . S
O184 C192 1.252 . S
C185 O188 1.252 . S
C185 O189 1.260 . S
C186 O193 1.240 . S
C186 O194 1.252 . S
C187 O190 1.252 . S
C187 O191 1.260 . S
O188 In182 2.266 . S
O188 C185 1.252 . S
O189 In182 2.326 . S
O189 C185 1.260 . S
O190 In182 2.266 . S
O190 C187 1.252 . S
O191 In182 2.326 . S
O191 C187 1.260 . S
C192 O183 1.240 . S
C192 O184 1.252 . S
O193 In182 2.294 . S
O193 C186 1.240 . S
O194 In182 2.326 . S
O194 C186 1.252 . S
In195 O196 2.294 . S
In195 O197 2.326 . S
In195 O201 2.266 . S
In195 O202 2.326 . S
In195 O203 2.266 . S
In195 O204 2.326 . S
In195 O206 2.294 . S
In195 O207 2.326 . S
O196 In195 2.294 . S
O196 C205 1.240 . S
O197 In195 2.326 . S
O197 C205 1.252 . S
C198 O201 1.252 . S
C198 O202 1.260 . S
C199 O206 1.240 . S
C199 O207 1.252 . S
C200 O203 1.252 . S
C200 O204 1.260 . S
O201 In195 2.266 . S
O201 C198 1.252 . S
O202 In195 2.326 . S
O202 C198 1.260 . S
O203 In195 2.266 . S
O203 C200 1.252 . S
O204 In195 2.326 . S
O204 C200 1.260 . S
C205 O196 1.240 . S
C205 O197 1.252 . S
O206 In195 2.294 . S
O206 C199 1.240 . S
O207 In195 2.326 . S
O207 C199 1.252 . S
In208 O209 2.294 . S
In208 O210 2.326 . S
In208 O214 2.266 . S
In208 O215 2.326 . S
In208 O216 2.266 . S
In208 O217 2.326 . S
In208 O219 2.294 . S
In208 O220 2.326 . S
O209 In208 2.294 . S
O209 C218 1.240 . S
O210 In208 2.326 . S
O210 C218 1.252 . S
C211 O214 1.252 . S
C211 O215 1.260 . S
C212 O219 1.240 . S
C212 O220 1.252 . S
C213 O216 1.252 . S
C213 O217 1.260 . S
O214 In208 2.266 . S
O214 C211 1.252 . S
O215 In208 2.326 . S
O215 C211 1.260 . S
O216 In208 2.266 . S
O216 C213 1.252 . S
O217 In208 2.326 . S
O217 C213 1.260 . S
C218 O209 1.240 . S
C218 O210 1.252 . S
O219 In208 2.294 . S
O219 C212 1.240 . S
O220 In208 2.326 . S
O220 C212 1.252 . S
In221 O222 2.294 . S
In221 O223 2.326 . S
In221 O227 2.266 . S
In221 O228 2.326 . S
In221 O229 2.266 . S
In221 O230 2.326 . S
In221 O232 2.294 . S
In221 O233 2.326 . S
O222 In221 2.294 . S
O222 C231 1.240 . S
O223 In221 2.326 . S
O223 C231 1.252 . S
C224 O227 1.252 . S
C224 O228 1.260 . S
C225 O232 1.240 . S
C225 O233 1.252 . S
C226 O229 1.252 . S
C226 O230 1.260 . S
O227 In221 2.266 . S
O227 C224 1.252 . S
O228 In221 2.326 . S
O228 C224 1.260 . S
O229 In221 2.266 . S
O229 C226 1.252 . S
O230 In221 2.326 . S
O230 C226 1.260 . S
C231 O222 1.240 . S
C231 O223 1.252 . S
O232 In221 2.294 . S
O232 C225 1.240 . S
O233 In221 2.326 . S
O233 C225 1.252 . S
In234 O235 2.294 . S
In234 O236 2.326 . S
In234 O240 2.266 . S
In234 O241 2.326 . S
In234 O242 2.266 . S
In234 O243 2.326 . S
In234 O245 2.294 . S
In234 O246 2.326 . S
O235 In234 2.294 . S
O235 C244 1.240 . S
O236 In234 2.326 . S
O236 C244 1.252 . S
C237 O240 1.252 . S
C237 O241 1.260 . S
C238 O245 1.240 . S
C238 O246 1.252 . S
C239 O242 1.252 . S
C239 O243 1.260 . S
O240 In234 2.266 . S
O240 C237 1.252 . S
O241 In234 2.326 . S
O241 C237 1.260 . S
O242 In234 2.266 . S
O242 C239 1.252 . S
O243 In234 2.326 . S
O243 C239 1.260 . S
C244 O235 1.240 . S
C244 O236 1.252 . S
O245 In234 2.294 . S
O245 C238 1.240 . S
O246 In234 2.326 . S
O246 C238 1.252 . S
In247 O248 2.294 . S
In247 O249 2.326 . S
In247 O253 2.266 . S
In247 O254 2.326 . S
In247 O255 2.266 . S
In247 O256 2.326 . S
In247 O258 2.294 . S
In247 O259 2.326 . S
O248 In247 2.294 . S
O248 C257 1.240 . S
O249 In247 2.326 . S
O249 C257 1.252 . S
C250 O253 1.252 . S
C250 O254 1.260 . S
C251 O258 1.240 . S
C251 O259 1.252 . S
C252 O255 1.252 . S
C252 O256 1.260 . S
O253 In247 2.266 . S
O253 C250 1.252 . S
O254 In247 2.326 . S
O254 C250 1.260 . S
O255 In247 2.266 . S
O255 C252 1.252 . S
O256 In247 2.326 . S
O256 C252 1.260 . S
C257 O248 1.240 . S
C257 O249 1.252 . S
O258 In247 2.294 . S
O258 C251 1.240 . S
O259 In247 2.326 . S
O259 C251 1.252 . S
In260 O261 2.294 . S
In260 O262 2.326 . S
In260 O266 2.266 . S
In260 O267 2.326 . S
In260 O268 2.266 . S
In260 O269 2.326 . S
In260 O271 2.294 . S
In260 O272 2.326 . S
O261 In260 2.294 . S
O261 C270 1.240 . S
O262 In260 2.326 . S
O262 C270 1.252 . S
C263 O266 1.252 . S
C263 O267 1.260 . S
C264 O271 1.240 . S
C264 O272 1.252 . S
C265 O268 1.252 . S
C265 O269 1.260 . S
O266 In260 2.266 . S
O266 C263 1.252 . S
O267 In260 2.326 . S
O267 C263 1.260 . S
O268 In260 2.266 . S
O268 C265 1.252 . S
O269 In260 2.326 . S
O269 C265 1.260 . S
C270 O261 1.240 . S
C270 O262 1.252 . S
O271 In260 2.294 . S
O271 C264 1.240 . S
O272 In260 2.326 . S
O272 C264 1.252 . S
In273 O274 2.294 . S
In273 O275 2.326 . S
In273 O279 2.266 . S
In273 O280 2.326 . S
In273 O281 2.266 . S
In273 O282 2.326 . S
In273 O284 2.294 . S
In273 O285 2.326 . S
O274 In273 2.294 . S
O274 C283 1.240 . S
O275 In273 2.326 . S
O275 C283 1.252 . S
C276 O279 1.252 . S
C276 O280 1.260 . S
C277 O284 1.240 . S
C277 O285 1.252 . S
C278 O281 1.252 . S
C278 O282 1.260 . S
O279 In273 2.266 . S
O279 C276 1.252 . S
O280 In273 2.326 . S
O280 C276 1.260 . S
O281 In273 2.266 . S
O281 C278 1.252 . S
O282 In273 2.326 . S
O282 C278 1.260 . S
C283 O274 1.240 . S
C283 O275 1.252 . S
O284 In273 2.294 . S
O284 C277 1.240 . S
O285 In273 2.326 . S
O285 C277 1.252 . S
In286 O287 2.294 . S
In286 O288 2.326 . S
In286 O292 2.266 . S
In286 O293 2.326 . S
In286 O294 2.266 . S
In286 O295 2.326 . S
In286 O297 2.294 . S
In286 O298 2.326 . S
O287 In286 2.294 . S
O287 C296 1.240 . S
O288 In286 2.326 . S
O288 C296 1.252 . S
C289 O292 1.252 . S
C289 O293 1.260 . S
C290 O297 1.240 . S
C290 O298 1.252 . S
C291 O294 1.252 . S
C291 O295 1.260 . S
O292 In286 2.266 . S
O292 C289 1.252 . S
O293 In286 2.326 . S
O293 C289 1.260 . S
O294 In286 2.266 . S
O294 C291 1.252 . S
O295 In286 2.326 . S
O295 C291 1.260 . S
C296 O287 1.240 . S
C296 O288 1.252 . S
O297 In286 2.294 . S
O297 C290 1.240 . S
O298 In286 2.326 . S
O298 C290 1.252 . S
In299 O300 2.294 . S
In299 O301 2.326 . S
In299 O305 2.266 . S
In299 O306 2.326 . S
In299 O307 2.266 . S
In299 O308 2.326 . S
In299 O310 2.294 . S
In299 O311 2.326 . S
O300 In299 2.294 . S
O300 C309 1.240 . S
O301 In299 2.326 . S
O301 C309 1.252 . S
C302 O305 1.252 . S
C302 O306 1.260 . S
C303 O310 1.240 . S
C303 O311 1.252 . S
C304 O307 1.252 . S
C304 O308 1.260 . S
O305 In299 2.266 . S
O305 C302 1.252 . S
O306 In299 2.326 . S
O306 C302 1.260 . S
O307 In299 2.266 . S
O307 C304 1.252 . S
O308 In299 2.326 . S
O308 C304 1.260 . S
C309 O300 1.240 . S
C309 O301 1.252 . S
O310 In299 2.294 . S
O310 C303 1.240 . S
O311 In299 2.326 . S
O311 C303 1.252 . S
In312 O313 2.294 . S
In312 O314 2.326 . S
In312 O318 2.266 . S
In312 O319 2.326 . S
In312 O320 2.266 . S
In312 O321 2.326 . S
In312 O323 2.294 . S
In312 O324 2.326 . S
O313 In312 2.294 . S
O313 C322 1.240 . S
O314 In312 2.326 . S
O314 C322 1.252 . S
C315 O318 1.252 . S
C315 O319 1.260 . S
C316 O323 1.240 . S
C316 O324 1.252 . S
C317 O320 1.252 . S
C317 O321 1.260 . S
O318 In312 2.266 . S
O318 C315 1.252 . S
O319 In312 2.326 . S
O319 C315 1.260 . S
O320 In312 2.266 . S
O320 C317 1.252 . S
O321 In312 2.326 . S
O321 C317 1.260 . S
C322 O313 1.240 . S
C322 O314 1.252 . S
O323 In312 2.294 . S
O323 C316 1.240 . S
O324 In312 2.326 . S
O324 C316 1.252 . S
In325 O326 2.294 . S
In325 O327 2.326 . S
In325 O331 2.266 . S
In325 O332 2.326 . S
In325 O333 2.266 . S
In325 O334 2.326 . S
In325 O336 2.294 . S
In325 O337 2.326 . S
O326 In325 2.294 . S
O326 C335 1.240 . S
O327 In325 2.326 . S
O327 C335 1.252 . S
C328 O331 1.252 . S
C328 O332 1.260 . S
C329 O336 1.240 . S
C329 O337 1.252 . S
C330 O333 1.252 . S
C330 O334 1.260 . S
O331 In325 2.266 . S
O331 C328 1.252 . S
O332 In325 2.326 . S
O332 C328 1.260 . S
O333 In325 2.266 . S
O333 C330 1.252 . S
O334 In325 2.326 . S
O334 C330 1.260 . S
C335 O326 1.240 . S
C335 O327 1.252 . S
O336 In325 2.294 . S
O336 C329 1.240 . S
O337 In325 2.326 . S
O337 C329 1.252 . S
In338 O339 2.294 . S
In338 O340 2.326 . S
In338 O344 2.266 . S
In338 O345 2.326 . S
In338 O346 2.266 . S
In338 O347 2.326 . S
In338 O349 2.294 . S
In338 O350 2.326 . S
O339 In338 2.294 . S
O339 C348 1.240 . S
O340 In338 2.326 . S
O340 C348 1.252 . S
C341 O344 1.252 . S
C341 O345 1.260 . S
C342 O349 1.240 . S
C342 O350 1.252 . S
C343 O346 1.252 . S
C343 O347 1.260 . S
O344 In338 2.266 . S
O344 C341 1.252 . S
O345 In338 2.326 . S
O345 C341 1.260 . S
O346 In338 2.266 . S
O346 C343 1.252 . S
O347 In338 2.326 . S
O347 C343 1.260 . S
C348 O339 1.240 . S
C348 O340 1.252 . S
O349 In338 2.294 . S
O349 C342 1.240 . S
O350 In338 2.326 . S
O350 C342 1.252 . S
In351 O352 2.294 . S
In351 O353 2.326 . S
In351 O357 2.266 . S
In351 O358 2.326 . S
In351 O359 2.266 . S
In351 O360 2.326 . S
In351 O362 2.294 . S
In351 O363 2.326 . S
O352 In351 2.294 . S
O352 C361 1.240 . S
O353 In351 2.326 . S
O353 C361 1.252 . S
C354 O357 1.252 . S
C354 O358 1.260 . S
C355 O362 1.240 . S
C355 O363 1.252 . S
C356 O359 1.252 . S
C356 O360 1.260 . S
O357 In351 2.266 . S
O357 C354 1.252 . S
O358 In351 2.326 . S
O358 C354 1.260 . S
O359 In351 2.266 . S
O359 C356 1.252 . S
O360 In351 2.326 . S
O360 C356 1.260 . S
C361 O352 1.240 . S
C361 O353 1.252 . S
O362 In351 2.294 . S
O362 C355 1.240 . S
O363 In351 2.326 . S
O363 C355 1.252 . S
In364 O365 2.294 . S
In364 O366 2.326 . S
In364 O370 2.266 . S
In364 O371 2.326 . S
In364 O372 2.266 . S
In364 O373 2.326 . S
In364 O375 2.294 . S
In364 O376 2.326 . S
O365 In364 2.294 . S
O365 C374 1.240 . S
O366 In364 2.326 . S
O366 C374 1.252 . S
C367 O370 1.252 . S
C367 O371 1.260 . S
C368 O375 1.240 . S
C368 O376 1.252 . S
C369 O372 1.252 . S
C369 O373 1.260 . S
O370 In364 2.266 . S
O370 C367 1.252 . S
O371 In364 2.326 . S
O371 C367 1.260 . S
O372 In364 2.266 . S
O372 C369 1.252 . S
O373 In364 2.326 . S
O373 C369 1.260 . S
C374 O365 1.240 . S
C374 O366 1.252 . S
O375 In364 2.294 . S
O375 C368 1.240 . S
O376 In364 2.326 . S
O376 C368 1.252 . S
In377 O378 2.294 . S
In377 O379 2.326 . S
In377 O383 2.266 . S
In377 O384 2.326 . S
In377 O385 2.266 . S
In377 O386 2.326 . S
In377 O388 2.294 . S
In377 O389 2.326 . S
O378 In377 2.294 . S
O378 C387 1.240 . S
O379 In377 2.326 . S
O379 C387 1.252 . S
C380 O383 1.252 . S
C380 O384 1.260 . S
C381 O388 1.240 . S
C381 O389 1.252 . S
C382 O385 1.252 . S
C382 O386 1.260 . S
O383 In377 2.266 . S
O383 C380 1.252 . S
O384 In377 2.326 . S
O384 C380 1.260 . S
O385 In377 2.266 . S
O385 C382 1.252 . S
O386 In377 2.326 . S
O386 C382 1.260 . S
C387 O378 1.240 . S
C387 O379 1.252 . S
O388 In377 2.294 . S
O388 C381 1.240 . S
O389 In377 2.326 . S
O389 C381 1.252 . S
In390 O391 2.294 . S
In390 O392 2.326 . S
In390 O396 2.266 . S
In390 O397 2.326 . S
In390 O398 2.266 . S
In390 O399 2.326 . S
In390 O401 2.294 . S
In390 O402 2.326 . S
O391 In390 2.294 . S
O391 C400 1.240 . S
O392 In390 2.326 . S
O392 C400 1.252 . S
C393 O396 1.252 . S
C393 O397 1.260 . S
C394 O401 1.240 . S
C394 O402 1.252 . S
C395 O398 1.252 . S
C395 O399 1.260 . S
O396 In390 2.266 . S
O396 C393 1.252 . S
O397 In390 2.326 . S
O397 C393 1.260 . S
O398 In390 2.266 . S
O398 C395 1.252 . S
O399 In390 2.326 . S
O399 C395 1.260 . S
C400 O391 1.240 . S
C400 O392 1.252 . S
O401 In390 2.294 . S
O401 C394 1.240 . S
O402 In390 2.326 . S
O402 C394 1.252 . S
In403 O404 2.294 . S
In403 O405 2.326 . S
In403 O409 2.266 . S
In403 O410 2.326 . S
In403 O411 2.266 . S
In403 O412 2.326 . S
In403 O414 2.294 . S
In403 O415 2.326 . S
O404 In403 2.294 . S
O404 C413 1.240 . S
O405 In403 2.326 . S
O405 C413 1.252 . S
C406 O409 1.252 . S
C406 O410 1.260 . S
C407 O414 1.240 . S
C407 O415 1.252 . S
C408 O411 1.252 . S
C408 O412 1.260 . S
O409 In403 2.266 . S
O409 C406 1.252 . S
O410 In403 2.326 . S
O410 C406 1.260 . S
O411 In403 2.266 . S
O411 C408 1.252 . S
O412 In403 2.326 . S
O412 C408 1.260 . S
C413 O404 1.240 . S
C413 O405 1.252 . S
O414 In403 2.294 . S
O414 C407 1.240 . S
O415 In403 2.326 . S
O415 C407 1.252 . S
In416 O417 2.294 . S
In416 O418 2.326 . S
In416 O422 2.266 . S
In416 O423 2.326 . S
In416 O424 2.266 . S
In416 O425 2.326 . S
In416 O427 2.294 . S
In416 O428 2.326 . S
O417 In416 2.294 . S
O417 C426 1.240 . S
O418 In416 2.326 . S
O418 C426 1.252 . S
C419 O422 1.252 . S
C419 O423 1.260 . S
C420 O427 1.240 . S
C420 O428 1.252 . S
C421 O424 1.252 . S
C421 O425 1.260 . S
O422 In416 2.266 . S
O422 C419 1.252 . S
O423 In416 2.326 . S
O423 C419 1.260 . S
O424 In416 2.266 . S
O424 C421 1.252 . S
O425 In416 2.326 . S
O425 C421 1.260 . S
C426 O417 1.240 . S
C426 O418 1.252 . S
O427 In416 2.294 . S
O427 C420 1.240 . S
O428 In416 2.326 . S
O428 C420 1.252 . S
In429 O430 2.294 . S
In429 O431 2.326 . S
In429 O435 2.266 . S
In429 O436 2.326 . S
In429 O437 2.266 . S
In429 O438 2.326 . S
In429 O440 2.294 . S
In429 O441 2.326 . S
O430 In429 2.294 . S
O430 C439 1.240 . S
O431 In429 2.326 . S
O431 C439 1.252 . S
C432 O435 1.252 . S
C432 O436 1.260 . S
C433 O440 1.240 . S
C433 O441 1.252 . S
C434 O437 1.252 . S
C434 O438 1.260 . S
O435 In429 2.266 . S
O435 C432 1.252 . S
O436 In429 2.326 . S
O436 C432 1.260 . S
O437 In429 2.266 . S
O437 C434 1.252 . S
O438 In429 2.326 . S
O438 C434 1.260 . S
C439 O430 1.240 . S
C439 O431 1.252 . S
O440 In429 2.294 . S
O440 C433 1.240 . S
O441 In429 2.326 . S
O441 C433 1.252 . S
In442 O443 2.294 . S
In442 O444 2.326 . S
In442 O448 2.266 . S
In442 O449 2.326 . S
In442 O450 2.266 . S
In442 O451 2.326 . S
In442 O453 2.294 . S
In442 O454 2.326 . S
O443 In442 2.294 . S
O443 C452 1.240 . S
O444 In442 2.326 . S
O444 C452 1.252 . S
C445 O448 1.252 . S
C445 O449 1.260 . S
C446 O453 1.240 . S
C446 O454 1.252 . S
C447 O450 1.252 . S
C447 O451 1.260 . S
O448 In442 2.266 . S
O448 C445 1.252 . S
O449 In442 2.326 . S
O449 C445 1.260 . S
O450 In442 2.266 . S
O450 C447 1.252 . S
O451 In442 2.326 . S
O451 C447 1.260 . S
C452 O443 1.240 . S
C452 O444 1.252 . S
O453 In442 2.294 . S
O453 C446 1.240 . S
O454 In442 2.326 . S
O454 C446 1.252 . S
In455 O456 2.294 . S
In455 O457 2.326 . S
In455 O461 2.266 . S
In455 O462 2.326 . S
In455 O463 2.266 . S
In455 O464 2.326 . S
In455 O466 2.294 . S
In455 O467 2.326 . S
O456 In455 2.294 . S
O456 C465 1.240 . S
O457 In455 2.326 . S
O457 C465 1.252 . S
C458 O461 1.252 . S
C458 O462 1.260 . S
C459 O466 1.240 . S
C459 O467 1.252 . S
C460 O463 1.252 . S
C460 O464 1.260 . S
O461 In455 2.266 . S
O461 C458 1.252 . S
O462 In455 2.326 . S
O462 C458 1.260 . S
O463 In455 2.266 . S
O463 C460 1.252 . S
O464 In455 2.326 . S
O464 C460 1.260 . S
C465 O456 1.240 . S
C465 O457 1.252 . S
O466 In455 2.294 . S
O466 C459 1.240 . S
O467 In455 2.326 . S
O467 C459 1.252 . S
In468 O469 2.294 . S
In468 O470 2.326 . S
In468 O474 2.266 . S
In468 O475 2.326 . S
In468 O476 2.266 . S
In468 O477 2.326 . S
In468 O479 2.294 . S
In468 O480 2.326 . S
O469 In468 2.294 . S
O469 C478 1.240 . S
O470 In468 2.326 . S
O470 C478 1.252 . S
C471 O474 1.252 . S
C471 O475 1.260 . S
C472 O479 1.240 . S
C472 O480 1.252 . S
C473 O476 1.252 . S
C473 O477 1.260 . S
O474 In468 2.266 . S
O474 C471 1.252 . S
O475 In468 2.326 . S
O475 C471 1.260 . S
O476 In468 2.266 . S
O476 C473 1.252 . S
O477 In468 2.326 . S
O477 C473 1.260 . S
C478 O469 1.240 . S
C478 O470 1.252 . S
O479 In468 2.294 . S
O479 C472 1.240 . S
O480 In468 2.326 . S
O480 C472 1.252 . S
In481 O482 2.294 . S
In481 O483 2.326 . S
In481 O487 2.266 . S
In481 O488 2.326 . S
In481 O489 2.266 . S
In481 O490 2.326 . S
In481 O492 2.294 . S
In481 O493 2.326 . S
O482 In481 2.294 . S
O482 C491 1.240 . S
O483 In481 2.326 . S
O483 C491 1.252 . S
C484 O487 1.252 . S
C484 O488 1.260 . S
C485 O492 1.240 . S
C485 O493 1.252 . S
C486 O489 1.252 . S
C486 O490 1.260 . S
O487 In481 2.266 . S
O487 C484 1.252 . S
O488 In481 2.326 . S
O488 C484 1.260 . S
O489 In481 2.266 . S
O489 C486 1.252 . S
O490 In481 2.326 . S
O490 C486 1.260 . S
C491 O482 1.240 . S
C491 O483 1.252 . S
O492 In481 2.294 . S
O492 C485 1.240 . S
O493 In481 2.326 . S
O493 C485 1.252 . S
In494 O495 2.294 . S
In494 O496 2.326 . S
In494 O500 2.266 . S
In494 O501 2.326 . S
In494 O502 2.266 . S
In494 O503 2.326 . S
In494 O505 2.294 . S
In494 O506 2.326 . S
O495 In494 2.294 . S
O495 C504 1.240 . S
O496 In494 2.326 . S
O496 C504 1.252 . S
C497 O500 1.252 . S
C497 O501 1.260 . S
C498 O505 1.240 . S
C498 O506 1.252 . S
C499 O502 1.252 . S
C499 O503 1.260 . S
O500 In494 2.266 . S
O500 C497 1.252 . S
O501 In494 2.326 . S
O501 C497 1.260 . S
O502 In494 2.266 . S
O502 C499 1.252 . S
O503 In494 2.326 . S
O503 C499 1.260 . S
C504 O495 1.240 . S
C504 O496 1.252 . S
O505 In494 2.294 . S
O505 C498 1.240 . S
O506 In494 2.326 . S
O506 C498 1.252 . S
In507 O508 2.294 . S
In507 O509 2.326 . S
In507 O513 2.266 . S
In507 O514 2.326 . S
In507 O515 2.266 . S
In507 O516 2.326 . S
In507 O518 2.294 . S
In507 O519 2.326 . S
O508 In507 2.294 . S
O508 C517 1.240 . S
O509 In507 2.326 . S
O509 C517 1.252 . S
C510 O513 1.252 . S
C510 O514 1.260 . S
C511 O518 1.240 . S
C511 O519 1.252 . S
C512 O515 1.252 . S
C512 O516 1.260 . S
O513 In507 2.266 . S
O513 C510 1.252 . S
O514 In507 2.326 . S
O514 C510 1.260 . S
O515 In507 2.266 . S
O515 C512 1.252 . S
O516 In507 2.326 . S
O516 C512 1.260 . S
C517 O508 1.240 . S
C517 O509 1.252 . S
O518 In507 2.294 . S
O518 C511 1.240 . S
O519 In507 2.326 . S
O519 C511 1.252 . S
In520 O521 2.294 . S
In520 O522 2.326 . S
In520 O526 2.266 . S
In520 O527 2.326 . S
In520 O528 2.266 . S
In520 O529 2.326 . S
In520 O531 2.294 . S
In520 O532 2.326 . S
O521 In520 2.294 . S
O521 C530 1.240 . S
O522 In520 2.326 . S
O522 C530 1.252 . S
C523 O526 1.252 . S
C523 O527 1.260 . S
C524 O531 1.240 . S
C524 O532 1.252 . S
C525 O528 1.252 . S
C525 O529 1.260 . S
O526 In520 2.266 . S
O526 C523 1.252 . S
O527 In520 2.326 . S
O527 C523 1.260 . S
O528 In520 2.266 . S
O528 C525 1.252 . S
O529 In520 2.326 . S
O529 C525 1.260 . S
C530 O521 1.240 . S
C530 O522 1.252 . S
O531 In520 2.294 . S
O531 C524 1.240 . S
O532 In520 2.326 . S
O532 C524 1.252 . S
In533 O534 2.294 . S
In533 O535 2.326 . S
In533 O539 2.266 . S
In533 O540 2.326 . S
In533 O541 2.266 . S
In533 O542 2.326 . S
In533 O544 2.294 . S
In533 O545 2.326 . S
O534 In533 2.294 . S
O534 C543 1.240 . S
O535 In533 2.326 . S
O535 C543 1.252 . S
C536 O539 1.252 . S
C536 O540 1.260 . S
C537 O544 1.240 . S
C537 O545 1.252 . S
C538 O541 1.252 . S
C538 O542 1.260 . S
O539 In533 2.266 . S
O539 C536 1.252 . S
O540 In533 2.326 . S
O540 C536 1.260 . S
O541 In533 2.266 . S
O541 C538 1.252 . S
O542 In533 2.326 . S
O542 C538 1.260 . S
C543 O534 1.240 . S
C543 O535 1.252 . S
O544 In533 2.294 . S
O544 C537 1.240 . S
O545 In533 2.326 . S
O545 C537 1.252 . S
In546 O547 2.294 . S
In546 O548 2.326 . S
In546 O552 2.266 . S
In546 O553 2.326 . S
In546 O554 2.266 . S
In546 O555 2.326 . S
In546 O557 2.294 . S
In546 O558 2.326 . S
O547 In546 2.294 . S
O547 C556 1.240 . S
O548 In546 2.326 . S
O548 C556 1.252 . S
C549 O552 1.252 . S
C549 O553 1.260 . S
C550 O557 1.240 . S
C550 O558 1.252 . S
C551 O554 1.252 . S
C551 O555 1.260 . S
O552 In546 2.266 . S
O552 C549 1.252 . S
O553 In546 2.326 . S
O553 C549 1.260 . S
O554 In546 2.266 . S
O554 C551 1.252 . S
O555 In546 2.326 . S
O555 C551 1.260 . S
C556 O547 1.240 . S
C556 O548 1.252 . S
O557 In546 2.294 . S
O557 C550 1.240 . S
O558 In546 2.326 . S
O558 C550 1.252 . S
In559 O560 2.294 . S
In559 O561 2.326 . S
In559 O565 2.266 . S
In559 O566 2.326 . S
In559 O567 2.266 . S
In559 O568 2.326 . S
In559 O570 2.294 . S
In559 O571 2.326 . S
O560 In559 2.294 . S
O560 C569 1.240 . S
O561 In559 2.326 . S
O561 C569 1.252 . S
C562 O565 1.252 . S
C562 O566 1.260 . S
C563 O570 1.240 . S
C563 O571 1.252 . S
C564 O567 1.252 . S
C564 O568 1.260 . S
O565 In559 2.266 . S
O565 C562 1.252 . S
O566 In559 2.326 . S
O566 C562 1.260 . S
O567 In559 2.266 . S
O567 C564 1.252 . S
O568 In559 2.326 . S
O568 C564 1.260 . S
C569 O560 1.240 . S
C569 O561 1.252 . S
O570 In559 2.294 . S
O570 C563 1.240 . S
O571 In559 2.326 . S
O571 C563 1.252 . S
In572 O573 2.294 . S
In572 O574 2.326 . S
In572 O578 2.266 . S
In572 O579 2.326 . S
In572 O580 2.266 . S
In572 O581 2.326 . S
In572 O583 2.294 . S
In572 O584 2.326 . S
O573 In572 2.294 . S
O573 C582 1.240 . S
O574 In572 2.326 . S
O574 C582 1.252 . S
C575 O578 1.252 . S
C575 O579 1.260 . S
C576 O583 1.240 . S
C576 O584 1.252 . S
C577 O580 1.252 . S
C577 O581 1.260 . S
O578 In572 2.266 . S
O578 C575 1.252 . S
O579 In572 2.326 . S
O579 C575 1.260 . S
O580 In572 2.266 . S
O580 C577 1.252 . S
O581 In572 2.326 . S
O581 C577 1.260 . S
C582 O573 1.240 . S
C582 O574 1.252 . S
O583 In572 2.294 . S
O583 C576 1.240 . S
O584 In572 2.326 . S
O584 C576 1.252 . S
In585 O586 2.294 . S
In585 O587 2.326 . S
In585 O591 2.266 . S
In585 O592 2.326 . S
In585 O593 2.266 . S
In585 O594 2.326 . S
In585 O596 2.294 . S
In585 O597 2.326 . S
O586 In585 2.294 . S
O586 C595 1.240 . S
O587 In585 2.326 . S
O587 C595 1.252 . S
C588 O591 1.252 . S
C588 O592 1.260 . S
C589 O596 1.240 . S
C589 O597 1.252 . S
C590 O593 1.252 . S
C590 O594 1.260 . S
O591 In585 2.266 . S
O591 C588 1.252 . S
O592 In585 2.326 . S
O592 C588 1.260 . S
O593 In585 2.266 . S
O593 C590 1.252 . S
O594 In585 2.326 . S
O594 C590 1.260 . S
C595 O586 1.240 . S
C595 O587 1.252 . S
O596 In585 2.294 . S
O596 C589 1.240 . S
O597 In585 2.326 . S
O597 C589 1.252 . S
In598 O599 2.294 . S
In598 O600 2.326 . S
In598 O604 2.266 . S
In598 O605 2.326 . S
In598 O606 2.266 . S
In598 O607 2.326 . S
In598 O609 2.294 . S
In598 O610 2.326 . S
O599 In598 2.294 . S
O599 C608 1.240 . S
O600 In598 2.326 . S
O600 C608 1.252 . S
C601 O604 1.252 . S
C601 O605 1.260 . S
C602 O609 1.240 . S
C602 O610 1.252 . S
C603 O606 1.252 . S
C603 O607 1.260 . S
O604 In598 2.266 . S
O604 C601 1.252 . S
O605 In598 2.326 . S
O605 C601 1.260 . S
O606 In598 2.266 . S
O606 C603 1.252 . S
O607 In598 2.326 . S
O607 C603 1.260 . S
C608 O599 1.240 . S
C608 O600 1.252 . S
O609 In598 2.294 . S
O609 C602 1.240 . S
O610 In598 2.326 . S
O610 C602 1.252 . S
In611 O612 2.294 . S
In611 O613 2.326 . S
In611 O617 2.266 . S
In611 O618 2.326 . S
In611 O619 2.266 . S
In611 O620 2.326 . S
In611 O622 2.294 . S
In611 O623 2.326 . S
O612 In611 2.294 . S
O612 C621 1.240 . S
O613 In611 2.326 . S
O613 C621 1.252 . S
C614 O617 1.252 . S
C614 O618 1.260 . S
C615 O622 1.240 . S
C615 O623 1.252 . S
C616 O619 1.252 . S
C616 O620 1.260 . S
O617 In611 2.266 . S
O617 C614 1.252 . S
O618 In611 2.326 . S
O618 C614 1.260 . S
O619 In611 2.266 . S
O619 C616 1.252 . S
O620 In611 2.326 . S
O620 C616 1.260 . S
C621 O612 1.240 . S
C621 O613 1.252 . S
O622 In611 2.294 . S
O622 C615 1.240 . S
O623 In611 2.326 . S
O623 C615 1.252 . S
C624 C625 1.369 . S
C624 C626 1.419 . S
C624 H628 0.930 . S
C625 C624 1.369 . S
C625 C634 1.429 . S
C626 C624 1.419 . S
C626 C627 1.363 . S
C626 H629 0.929 . S
C627 C626 1.363 . S
C627 C633 1.428 . S
H628 C624 0.930 . S
H629 C626 0.929 . S
S630 N631 1.613 . S
S630 N632 1.610 . S
N631 S630 1.613 . S
N631 C634 1.350 . S
N632 S630 1.610 . S
N632 C633 1.351 . S
C633 C627 1.428 . S
C633 N632 1.351 . S
C633 C634 1.434 . S
C634 C625 1.429 . S
C634 N631 1.350 . S
C634 C633 1.434 . S
C635 C636 1.369 . S
C635 C637 1.419 . S
C635 H639 0.930 . S
C636 C635 1.369 . S
C636 C645 1.429 . S
C637 C635 1.419 . S
C637 C638 1.363 . S
C637 H640 0.929 . S
C638 C637 1.363 . S
C638 C644 1.428 . S
H639 C635 0.930 . S
H640 C637 0.929 . S
S641 N642 1.613 . S
S641 N643 1.610 . S
N642 S641 1.613 . S
N642 C645 1.350 . S
N643 S641 1.610 . S
N643 C644 1.351 . S
C644 C638 1.428 . S
C644 N643 1.351 . S
C644 C645 1.434 . S
C645 C636 1.429 . S
C645 N642 1.350 . S
C645 C644 1.434 . S
C646 C647 1.369 . S
C646 C648 1.419 . S
C646 H650 0.930 . S
C647 C646 1.369 . S
C647 C656 1.429 . S
C648 C646 1.419 . S
C648 C649 1.363 . S
C648 H651 0.929 . S
C649 C648 1.363 . S
C649 C655 1.428 . S
H650 C646 0.930 . S
H651 C648 0.929 . S
S652 N653 1.613 . S
S652 N654 1.610 . S
N653 S652 1.613 . S
N653 C656 1.350 . S
N654 S652 1.610 . S
N654 C655 1.351 . S
C655 C649 1.428 . S
C655 N654 1.351 . S
C655 C656 1.434 . S
C656 C647 1.429 . S
C656 N653 1.350 . S
C656 C655 1.434 . S
C657 C658 1.369 . S
C657 C659 1.419 . S
C657 H661 0.930 . S
C658 C657 1.369 . S
C658 C667 1.429 . S
C659 C657 1.419 . S
C659 C660 1.363 . S
C659 H662 0.929 . S
C660 C659 1.363 . S
C660 C666 1.428 . S
H661 C657 0.930 . S
H662 C659 0.929 . S
S663 N664 1.613 . S
S663 N665 1.610 . S
N664 S663 1.613 . S
N664 C667 1.350 . S
N665 S663 1.610 . S
N665 C666 1.351 . S
C666 C660 1.428 . S
C666 N665 1.351 . S
C666 C667 1.434 . S
C667 C658 1.429 . S
C667 N664 1.350 . S
C667 C666 1.434 . S
C668 C669 1.369 . S
C668 C670 1.419 . S
C668 H672 0.930 . S
C669 C668 1.369 . S
C669 C678 1.429 . S
C670 C668 1.419 . S
C670 C671 1.363 . S
C670 H673 0.929 . S
C671 C670 1.363 . S
C671 C677 1.428 . S
H672 C668 0.930 . S
H673 C670 0.929 . S
S674 N675 1.613 . S
S674 N676 1.610 . S
N675 S674 1.613 . S
N675 C678 1.350 . S
N676 S674 1.610 . S
N676 C677 1.351 . S
C677 C671 1.428 . S
C677 N676 1.351 . S
C677 C678 1.434 . S
C678 C669 1.429 . S
C678 N675 1.350 . S
C678 C677 1.434 . S
C679 C680 1.369 . S
C679 C681 1.419 . S
C679 H683 0.930 . S
C680 C679 1.369 . S
C680 C689 1.429 . S
C681 C679 1.419 . S
C681 C682 1.363 . S
C681 H684 0.929 . S
C682 C681 1.363 . S
C682 C688 1.428 . S
H683 C679 0.930 . S
H684 C681 0.929 . S
S685 N686 1.613 . S
S685 N687 1.610 . S
N686 S685 1.613 . S
N686 C689 1.350 . S
N687 S685 1.610 . S
N687 C688 1.351 . S
C688 C682 1.428 . S
C688 N687 1.351 . S
C688 C689 1.434 . S
C689 C680 1.429 . S
C689 N686 1.350 . S
C689 C688 1.434 . S
C690 C691 1.369 . S
C690 C692 1.419 . S
C690 H694 0.930 . S
C691 C690 1.369 . S
C691 C700 1.429 . S
C692 C690 1.419 . S
C692 C693 1.363 . S
C692 H695 0.929 . S
C693 C692 1.363 . S
C693 C699 1.428 . S
H694 C690 0.930 . S
H695 C692 0.929 . S
S696 N697 1.613 . S
S696 N698 1.610 . S
N697 S696 1.613 . S
N697 C700 1.350 . S
N698 S696 1.610 . S
N698 C699 1.351 . S
C699 C693 1.428 . S
C699 N698 1.351 . S
C699 C700 1.434 . S
C700 C691 1.429 . S
C700 N697 1.350 . S
C700 C699 1.434 . S
C701 C702 1.369 . S
C701 C703 1.419 . S
C701 H705 0.930 . S
C702 C701 1.369 . S
C702 C711 1.429 . S
C703 C701 1.419 . S
C703 C704 1.363 . S
C703 H706 0.929 . S
C704 C703 1.363 . S
C704 C710 1.428 . S
H705 C701 0.930 . S
H706 C703 0.929 . S
S707 N708 1.613 . S
S707 N709 1.610 . S
N708 S707 1.613 . S
N708 C711 1.350 . S
N709 S707 1.610 . S
N709 C710 1.351 . S
C710 C704 1.428 . S
C710 N709 1.351 . S
C710 C711 1.434 . S
C711 C702 1.429 . S
C711 N708 1.350 . S
C711 C710 1.434 . S
C712 C713 1.369 . S
C712 C714 1.419 . S
C712 H716 0.930 . S
C713 C712 1.369 . S
C713 C722 1.429 . S
C714 C712 1.419 . S
C714 C715 1.363 . S
C714 H717 0.929 . S
C715 C714 1.363 . S
C715 C721 1.428 . S
H716 C712 0.930 . S
H717 C714 0.929 . S
S718 N719 1.613 . S
S718 N720 1.610 . S
N719 S718 1.613 . S
N719 C722 1.350 . S
N720 S718 1.610 . S
N720 C721 1.351 . S
C721 C715 1.428 . S
C721 N720 1.351 . S
C721 C722 1.434 . S
C722 C713 1.429 . S
C722 N719 1.350 . S
C722 C721 1.434 . S
C723 C724 1.369 . S
C723 C725 1.419 . S
C723 H727 0.930 . S
C724 C723 1.369 . S
C724 C733 1.429 . S
C725 C723 1.419 . S
C725 C726 1.363 . S
C725 H728 0.929 . S
C726 C725 1.363 . S
C726 C732 1.428 . S
H727 C723 0.930 . S
H728 C725 0.929 . S
S729 N730 1.613 . S
S729 N731 1.610 . S
N730 S729 1.613 . S
N730 C733 1.350 . S
N731 S729 1.610 . S
N731 C732 1.351 . S
C732 C726 1.428 . S
C732 N731 1.351 . S
C732 C733 1.434 . S
C733 C724 1.429 . S
C733 N730 1.350 . S
C733 C732 1.434 . S
C734 C735 1.369 . S
C734 C736 1.419 . S
C734 H738 0.930 . S
C735 C734 1.369 . S
C735 C744 1.429 . S
C736 C734 1.419 . S
C736 C737 1.363 . S
C736 H739 0.929 . S
C737 C736 1.363 . S
C737 C743 1.428 . S
H738 C734 0.930 . S
H739 C736 0.929 . S
S740 N741 1.613 . S
S740 N742 1.610 . S
N741 S740 1.613 . S
N741 C744 1.350 . S
N742 S740 1.610 . S
N742 C743 1.351 . S
C743 C737 1.428 . S
C743 N742 1.351 . S
C743 C744 1.434 . S
C744 C735 1.429 . S
C744 N741 1.350 . S
C744 C743 1.434 . S
C745 C746 1.369 . S
C745 C747 1.419 . S
C745 H749 0.930 . S
C746 C745 1.369 . S
C746 C755 1.429 . S
C747 C745 1.419 . S
C747 C748 1.363 . S
C747 H750 0.929 . S
C748 C747 1.363 . S
C748 C754 1.428 . S
H749 C745 0.930 . S
H750 C747 0.929 . S
S751 N752 1.613 . S
S751 N753 1.610 . S
N752 S751 1.613 . S
N752 C755 1.350 . S
N753 S751 1.610 . S
N753 C754 1.351 . S
C754 C748 1.428 . S
C754 N753 1.351 . S
C754 C755 1.434 . S
C755 C746 1.429 . S
C755 N752 1.350 . S
C755 C754 1.434 . S
C756 C757 1.369 . S
C756 C758 1.419 . S
C756 H760 0.930 . S
C757 C756 1.369 . S
C757 C766 1.429 . S
C758 C756 1.419 . S
C758 C759 1.363 . S
C758 H761 0.929 . S
C759 C758 1.363 . S
C759 C765 1.428 . S
H760 C756 0.930 . S
H761 C758 0.929 . S
S762 N763 1.613 . S
S762 N764 1.610 . S
N763 S762 1.613 . S
N763 C766 1.350 . S
N764 S762 1.610 . S
N764 C765 1.351 . S
C765 C759 1.428 . S
C765 N764 1.351 . S
C765 C766 1.434 . S
C766 C757 1.429 . S
C766 N763 1.350 . S
C766 C765 1.434 . S
C767 C768 1.369 . S
C767 C769 1.419 . S
C767 H771 0.930 . S
C768 C767 1.369 . S
C768 C777 1.429 . S
C769 C767 1.419 . S
C769 C770 1.363 . S
C769 H772 0.929 . S
C770 C769 1.363 . S
C770 C776 1.428 . S
H771 C767 0.930 . S
H772 C769 0.929 . S
S773 N774 1.613 . S
S773 N775 1.610 . S
N774 S773 1.613 . S
N774 C777 1.350 . S
N775 S773 1.610 . S
N775 C776 1.351 . S
C776 C770 1.428 . S
C776 N775 1.351 . S
C776 C777 1.434 . S
C777 C768 1.429 . S
C777 N774 1.350 . S
C777 C776 1.434 . S
C778 C779 1.369 . S
C778 C780 1.419 . S
C778 H782 0.930 . S
C779 C778 1.369 . S
C779 C788 1.429 . S
C780 C778 1.419 . S
C780 C781 1.363 . S
C780 H783 0.929 . S
C781 C780 1.363 . S
C781 C787 1.428 . S
H782 C778 0.930 . S
H783 C780 0.929 . S
S784 N785 1.613 . S
S784 N786 1.610 . S
N785 S784 1.613 . S
N785 C788 1.350 . S
N786 S784 1.610 . S
N786 C787 1.351 . S
C787 C781 1.428 . S
C787 N786 1.351 . S
C787 C788 1.434 . S
C788 C779 1.429 . S
C788 N785 1.350 . S
C788 C787 1.434 . S
C789 C790 1.369 . S
C789 C791 1.419 . S
C789 H793 0.930 . S
C790 C789 1.369 . S
C790 C799 1.429 . S
C791 C789 1.419 . S
C791 C792 1.363 . S
C791 H794 0.929 . S
C792 C791 1.363 . S
C792 C798 1.428 . S
H793 C789 0.930 . S
H794 C791 0.929 . S
S795 N796 1.613 . S
S795 N797 1.610 . S
N796 S795 1.613 . S
N796 C799 1.350 . S
N797 S795 1.610 . S
N797 C798 1.351 . S
C798 C792 1.428 . S
C798 N797 1.351 . S
C798 C799 1.434 . S
C799 C790 1.429 . S
C799 N796 1.350 . S
C799 C798 1.434 . S
C800 C801 1.369 . S
C800 C802 1.419 . S
C800 H804 0.930 . S
C801 C800 1.369 . S
C801 C810 1.429 . S
C802 C800 1.419 . S
C802 C803 1.363 . S
C802 H805 0.929 . S
C803 C802 1.363 . S
C803 C809 1.428 . S
H804 C800 0.930 . S
H805 C802 0.929 . S
S806 N807 1.613 . S
S806 N808 1.610 . S
N807 S806 1.613 . S
N807 C810 1.350 . S
N808 S806 1.610 . S
N808 C809 1.351 . S
C809 C803 1.428 . S
C809 N808 1.351 . S
C809 C810 1.434 . S
C810 C801 1.429 . S
C810 N807 1.350 . S
C810 C809 1.434 . S
C811 C812 1.369 . S
C811 C813 1.419 . S
C811 H815 0.930 . S
C812 C811 1.369 . S
C812 C821 1.429 . S
C813 C811 1.419 . S
C813 C814 1.363 . S
C813 H816 0.929 . S
C814 C813 1.363 . S
C814 C820 1.428 . S
H815 C811 0.930 . S
H816 C813 0.929 . S
S817 N818 1.613 . S
S817 N819 1.610 . S
N818 S817 1.613 . S
N818 C821 1.350 . S
N819 S817 1.610 . S
N819 C820 1.351 . S
C820 C814 1.428 . S
C820 N819 1.351 . S
C820 C821 1.434 . S
C821 C812 1.429 . S
C821 N818 1.350 . S
C821 C820 1.434 . S
C822 C823 1.369 . S
C822 C824 1.419 . S
C822 H826 0.930 . S
C823 C822 1.369 . S
C823 C832 1.429 . S
C824 C822 1.419 . S
C824 C825 1.363 . S
C824 H827 0.929 . S
C825 C824 1.363 . S
C825 C831 1.428 . S
H826 C822 0.930 . S
H827 C824 0.929 . S
S828 N829 1.613 . S
S828 N830 1.610 . S
N829 S828 1.613 . S
N829 C832 1.350 . S
N830 S828 1.610 . S
N830 C831 1.351 . S
C831 C825 1.428 . S
C831 N830 1.351 . S
C831 C832 1.434 . S
C832 C823 1.429 . S
C832 N829 1.350 . S
C832 C831 1.434 . S
C833 C834 1.369 . S
C833 C835 1.419 . S
C833 H837 0.930 . S
C834 C833 1.369 . S
C834 C843 1.429 . S
C835 C833 1.419 . S
C835 C836 1.363 . S
C835 H838 0.929 . S
C836 C835 1.363 . S
C836 C842 1.428 . S
H837 C833 0.930 . S
H838 C835 0.929 . S
S839 N840 1.613 . S
S839 N841 1.610 . S
N840 S839 1.613 . S
N840 C843 1.350 . S
N841 S839 1.610 . S
N841 C842 1.351 . S
C842 C836 1.428 . S
C842 N841 1.351 . S
C842 C843 1.434 . S
C843 C834 1.429 . S
C843 N840 1.350 . S
C843 C842 1.434 . S
C844 C845 1.369 . S
C844 C846 1.419 . S
C844 H848 0.930 . S
C845 C844 1.369 . S
C845 C854 1.429 . S
C846 C844 1.419 . S
C846 C847 1.363 . S
C846 H849 0.929 . S
C847 C846 1.363 . S
C847 C853 1.428 . S
H848 C844 0.930 . S
H849 C846 0.929 . S
S850 N851 1.613 . S
S850 N852 1.610 . S
N851 S850 1.613 . S
N851 C854 1.350 . S
N852 S850 1.610 . S
N852 C853 1.351 . S
C853 C847 1.428 . S
C853 N852 1.351 . S
C853 C854 1.434 . S
C854 C845 1.429 . S
C854 N851 1.350 . S
C854 C853 1.434 . S
C855 C856 1.369 . S
C855 C857 1.419 . S
C855 H859 0.930 . S
C856 C855 1.369 . S
C856 C865 1.429 . S
C857 C855 1.419 . S
C857 C858 1.363 . S
C857 H860 0.929 . S
C858 C857 1.363 . S
C858 C864 1.428 . S
H859 C855 0.930 . S
H860 C857 0.929 . S
S861 N862 1.613 . S
S861 N863 1.610 . S
N862 S861 1.613 . S
N862 C865 1.350 . S
N863 S861 1.610 . S
N863 C864 1.351 . S
C864 C858 1.428 . S
C864 N863 1.351 . S
C864 C865 1.434 . S
C865 C856 1.429 . S
C865 N862 1.350 . S
C865 C864 1.434 . S
C866 C867 1.369 . S
C866 C868 1.419 . S
C866 H870 0.930 . S
C867 C866 1.369 . S
C867 C876 1.429 . S
C868 C866 1.419 . S
C868 C869 1.363 . S
C868 H871 0.929 . S
C869 C868 1.363 . S
C869 C875 1.428 . S
H870 C866 0.930 . S
H871 C868 0.929 . S
S872 N873 1.613 . S
S872 N874 1.610 . S
N873 S872 1.613 . S
N873 C876 1.350 . S
N874 S872 1.610 . S
N874 C875 1.351 . S
C875 C869 1.428 . S
C875 N874 1.351 . S
C875 C876 1.434 . S
C876 C867 1.429 . S
C876 N873 1.350 . S
C876 C875 1.434 . S
C877 C878 1.369 . S
C877 C879 1.419 . S
C877 H881 0.930 . S
C878 C877 1.369 . S
C878 C887 1.429 . S
C879 C877 1.419 . S
C879 C880 1.363 . S
C879 H882 0.929 . S
C880 C879 1.363 . S
C880 C886 1.428 . S
H881 C877 0.930 . S
H882 C879 0.929 . S
S883 N884 1.613 . S
S883 N885 1.610 . S
N884 S883 1.613 . S
N884 C887 1.350 . S
N885 S883 1.610 . S
N885 C886 1.351 . S
C886 C880 1.428 . S
C886 N885 1.351 . S
C886 C887 1.434 . S
C887 C878 1.429 . S
C887 N884 1.350 . S
C887 C886 1.434 . S
C888 C889 1.369 . S
C888 C890 1.419 . S
C888 H892 0.930 . S
C889 C888 1.369 . S
C889 C898 1.429 . S
C890 C888 1.419 . S
C890 C891 1.363 . S
C890 H893 0.929 . S
C891 C890 1.363 . S
C891 C897 1.428 . S
H892 C888 0.930 . S
H893 C890 0.929 . S
S894 N895 1.613 . S
S894 N896 1.610 . S
N895 S894 1.613 . S
N895 C898 1.350 . S
N896 S894 1.610 . S
N896 C897 1.351 . S
C897 C891 1.428 . S
C897 N896 1.351 . S
C897 C898 1.434 . S
C898 C889 1.429 . S
C898 N895 1.350 . S
C898 C897 1.434 . S
C899 C900 1.369 . S
C899 C901 1.419 . S
C899 H903 0.930 . S
C900 C899 1.369 . S
C900 C909 1.429 . S
C901 C899 1.419 . S
C901 C902 1.363 . S
C901 H904 0.929 . S
C902 C901 1.363 . S
C902 C908 1.428 . S
H903 C899 0.930 . S
H904 C901 0.929 . S
S905 N906 1.613 . S
S905 N907 1.610 . S
N906 S905 1.613 . S
N906 C909 1.350 . S
N907 S905 1.610 . S
N907 C908 1.351 . S
C908 C902 1.428 . S
C908 N907 1.351 . S
C908 C909 1.434 . S
C909 C900 1.429 . S
C909 N906 1.350 . S
C909 C908 1.434 . S
C910 C911 1.369 . S
C910 C912 1.419 . S
C910 H914 0.930 . S
C911 C910 1.369 . S
C911 C920 1.429 . S
C912 C910 1.419 . S
C912 C913 1.363 . S
C912 H915 0.929 . S
C913 C912 1.363 . S
C913 C919 1.428 . S
H914 C910 0.930 . S
H915 C912 0.929 . S
S916 N917 1.613 . S
S916 N918 1.610 . S
N917 S916 1.613 . S
N917 C920 1.350 . S
N918 S916 1.610 . S
N918 C919 1.351 . S
C919 C913 1.428 . S
C919 N918 1.351 . S
C919 C920 1.434 . S
C920 C911 1.429 . S
C920 N917 1.350 . S
C920 C919 1.434 . S
C921 C922 1.369 . S
C921 C923 1.419 . S
C921 H925 0.930 . S
C922 C921 1.369 . S
C922 C931 1.429 . S
C923 C921 1.419 . S
C923 C924 1.363 . S
C923 H926 0.929 . S
C924 C923 1.363 . S
C924 C930 1.428 . S
H925 C921 0.930 . S
H926 C923 0.929 . S
S927 N928 1.613 . S
S927 N929 1.610 . S
N928 S927 1.613 . S
N928 C931 1.350 . S
N929 S927 1.610 . S
N929 C930 1.351 . S
C930 C924 1.428 . S
C930 N929 1.351 . S
C930 C931 1.434 . S
C931 C922 1.429 . S
C931 N928 1.350 . S
C931 C930 1.434 . S
C932 C933 1.369 . S
C932 C934 1.419 . S
C932 H936 0.930 . S
C933 C932 1.369 . S
C933 C942 1.429 . S
C934 C932 1.419 . S
C934 C935 1.363 . S
C934 H937 0.929 . S
C935 C934 1.363 . S
C935 C941 1.428 . S
H936 C932 0.930 . S
H937 C934 0.929 . S
S938 N939 1.613 . S
S938 N940 1.610 . S
N939 S938 1.613 . S
N939 C942 1.350 . S
N940 S938 1.610 . S
N940 C941 1.351 . S
C941 C935 1.428 . S
C941 N940 1.351 . S
C941 C942 1.434 . S
C942 C933 1.429 . S
C942 N939 1.350 . S
C942 C941 1.434 . S
C943 C944 1.369 . S
C943 C945 1.419 . S
C943 H947 0.930 . S
C944 C943 1.369 . S
C944 C953 1.429 . S
C945 C943 1.419 . S
C945 C946 1.363 . S
C945 H948 0.929 . S
C946 C945 1.363 . S
C946 C952 1.428 . S
H947 C943 0.930 . S
H948 C945 0.929 . S
S949 N950 1.613 . S
S949 N951 1.610 . S
N950 S949 1.613 . S
N950 C953 1.350 . S
N951 S949 1.610 . S
N951 C952 1.351 . S
C952 C946 1.428 . S
C952 N951 1.351 . S
C952 C953 1.434 . S
C953 C944 1.429 . S
C953 N950 1.350 . S
C953 C952 1.434 . S
C954 C955 1.369 . S
C954 C956 1.419 . S
C954 H958 0.930 . S
C955 C954 1.369 . S
C955 C964 1.429 . S
C956 C954 1.419 . S
C956 C957 1.363 . S
C956 H959 0.929 . S
C957 C956 1.363 . S
C957 C963 1.428 . S
H958 C954 0.930 . S
H959 C956 0.929 . S
S960 N961 1.613 . S
S960 N962 1.610 . S
N961 S960 1.613 . S
N961 C964 1.350 . S
N962 S960 1.610 . S
N962 C963 1.351 . S
C963 C957 1.428 . S
C963 N962 1.351 . S
C963 C964 1.434 . S
C964 C955 1.429 . S
C964 N961 1.350 . S
C964 C963 1.434 . S
C965 C966 1.369 . S
C965 C967 1.419 . S
C965 H969 0.930 . S
C966 C965 1.369 . S
C966 C975 1.429 . S
C967 C965 1.419 . S
C967 C968 1.363 . S
C967 H970 0.929 . S
C968 C967 1.363 . S
C968 C974 1.428 . S
H969 C965 0.930 . S
H970 C967 0.929 . S
S971 N972 1.613 . S
S971 N973 1.610 . S
N972 S971 1.613 . S
N972 C975 1.350 . S
N973 S971 1.610 . S
N973 C974 1.351 . S
C974 C968 1.428 . S
C974 N973 1.351 . S
C974 C975 1.434 . S
C975 C966 1.429 . S
C975 N972 1.350 . S
C975 C974 1.434 . S
C976 C977 1.369 . S
C976 C978 1.419 . S
C976 H980 0.930 . S
C977 C976 1.369 . S
C977 C986 1.429 . S
C978 C976 1.419 . S
C978 C979 1.363 . S
C978 H981 0.929 . S
C979 C978 1.363 . S
C979 C985 1.428 . S
H980 C976 0.930 . S
H981 C978 0.929 . S
S982 N983 1.613 . S
S982 N984 1.610 . S
N983 S982 1.613 . S
N983 C986 1.350 . S
N984 S982 1.610 . S
N984 C985 1.351 . S
C985 C979 1.428 . S
C985 N984 1.351 . S
C985 C986 1.434 . S
C986 C977 1.429 . S
C986 N983 1.350 . S
C986 C985 1.434 . S
C987 C988 1.369 . S
C987 C989 1.419 . S
C987 H991 0.930 . S
C988 C987 1.369 . S
C988 C997 1.429 . S
C989 C987 1.419 . S
C989 C990 1.363 . S
C989 H992 0.929 . S
C990 C989 1.363 . S
C990 C996 1.428 . S
H991 C987 0.930 . S
H992 C989 0.929 . S
S993 N994 1.613 . S
S993 N995 1.610 . S
N994 S993 1.613 . S
N994 C997 1.350 . S
N995 S993 1.610 . S
N995 C996 1.351 . S
C996 C990 1.428 . S
C996 N995 1.351 . S
C996 C997 1.434 . S
C997 C988 1.429 . S
C997 N994 1.350 . S
C997 C996 1.434 . S
C998 C999 1.369 . S
C998 C1000 1.419 . S
C998 H1002 0.930 . S
C999 C998 1.369 . S
C999 C1008 1.429 . S
C1000 C998 1.419 . S
C1000 C1001 1.363 . S
C1000 H1003 0.929 . S
C1001 C1000 1.363 . S
C1001 C1007 1.428 . S
H1002 C998 0.930 . S
H1003 C1000 0.929 . S
S1004 N1005 1.613 . S
S1004 N1006 1.610 . S
N1005 S1004 1.613 . S
N1005 C1008 1.350 . S
N1006 S1004 1.610 . S
N1006 C1007 1.351 . S
C1007 C1001 1.428 . S
C1007 N1006 1.351 . S
C1007 C1008 1.434 . S
C1008 C999 1.429 . S
C1008 N1005 1.350 . S
C1008 C1007 1.434 . S
C1009 C1010 1.369 . S
C1009 C1011 1.419 . S
C1009 H1013 0.930 . S
C1010 C1009 1.369 . S
C1010 C1019 1.429 . S
C1011 C1009 1.419 . S
C1011 C1012 1.363 . S
C1011 H1014 0.929 . S
C1012 C1011 1.363 . S
C1012 C1018 1.428 . S
H1013 C1009 0.930 . S
H1014 C1011 0.929 . S
S1015 N1016 1.613 . S
S1015 N1017 1.610 . S
N1016 S1015 1.613 . S
N1016 C1019 1.350 . S
N1017 S1015 1.610 . S
N1017 C1018 1.351 . S
C1018 C1012 1.428 . S
C1018 N1017 1.351 . S
C1018 C1019 1.434 . S
C1019 C1010 1.429 . S
C1019 N1016 1.350 . S
C1019 C1018 1.434 . S
C1020 C1021 1.369 . S
C1020 C1022 1.419 . S
C1020 H1024 0.930 . S
C1021 C1020 1.369 . S
C1021 C1030 1.429 . S
C1022 C1020 1.419 . S
C1022 C1023 1.363 . S
C1022 H1025 0.929 . S
C1023 C1022 1.363 . S
C1023 C1029 1.428 . S
H1024 C1020 0.930 . S
H1025 C1022 0.929 . S
S1026 N1027 1.613 . S
S1026 N1028 1.610 . S
N1027 S1026 1.613 . S
N1027 C1030 1.350 . S
N1028 S1026 1.610 . S
N1028 C1029 1.351 . S
C1029 C1023 1.428 . S
C1029 N1028 1.351 . S
C1029 C1030 1.434 . S
C1030 C1021 1.429 . S
C1030 N1027 1.350 . S
C1030 C1029 1.434 . S
C1031 C1032 1.369 . S
C1031 C1033 1.419 . S
C1031 H1035 0.930 . S
C1032 C1031 1.369 . S
C1032 C1041 1.429 . S
C1033 C1031 1.419 . S
C1033 C1034 1.363 . S
C1033 H1036 0.929 . S
C1034 C1033 1.363 . S
C1034 C1040 1.428 . S
H1035 C1031 0.930 . S
H1036 C1033 0.929 . S
S1037 N1038 1.613 . S
S1037 N1039 1.610 . S
N1038 S1037 1.613 . S
N1038 C1041 1.350 . S
N1039 S1037 1.610 . S
N1039 C1040 1.351 . S
C1040 C1034 1.428 . S
C1040 N1039 1.351 . S
C1040 C1041 1.434 . S
C1041 C1032 1.429 . S
C1041 N1038 1.350 . S
C1041 C1040 1.434 . S
C1042 C1043 1.369 . S
C1042 C1044 1.419 . S
C1042 H1046 0.930 . S
C1043 C1042 1.369 . S
C1043 C1052 1.429 . S
C1044 C1042 1.419 . S
C1044 C1045 1.363 . S
C1044 H1047 0.929 . S
C1045 C1044 1.363 . S
C1045 C1051 1.428 . S
H1046 C1042 0.930 . S
H1047 C1044 0.929 . S
S1048 N1049 1.613 . S
S1048 N1050 1.610 . S
N1049 S1048 1.613 . S
N1049 C1052 1.350 . S
N1050 S1048 1.610 . S
N1050 C1051 1.351 . S
C1051 C1045 1.428 . S
C1051 N1050 1.351 . S
C1051 C1052 1.434 . S
C1052 C1043 1.429 . S
C1052 N1049 1.350 . S
C1052 C1051 1.434 . S
C1053 C1054 1.369 . S
C1053 C1055 1.419 . S
C1053 H1057 0.930 . S
C1054 C1053 1.369 . S
C1054 C1063 1.429 . S
C1055 C1053 1.419 . S
C1055 C1056 1.363 . S
C1055 H1058 0.929 . S
C1056 C1055 1.363 . S
C1056 C1062 1.428 . S
H1057 C1053 0.930 . S
H1058 C1055 0.929 . S
S1059 N1060 1.613 . S
S1059 N1061 1.610 . S
N1060 S1059 1.613 . S
N1060 C1063 1.350 . S
N1061 S1059 1.610 . S
N1061 C1062 1.351 . S
C1062 C1056 1.428 . S
C1062 N1061 1.351 . S
C1062 C1063 1.434 . S
C1063 C1054 1.429 . S
C1063 N1060 1.350 . S
C1063 C1062 1.434 . S
C1064 C1065 1.369 . S
C1064 C1066 1.419 . S
C1064 H1068 0.930 . S
C1065 C1064 1.369 . S
C1065 C1074 1.429 . S
C1066 C1064 1.419 . S
C1066 C1067 1.363 . S
C1066 H1069 0.929 . S
C1067 C1066 1.363 . S
C1067 C1073 1.428 . S
H1068 C1064 0.930 . S
H1069 C1066 0.929 . S
S1070 N1071 1.613 . S
S1070 N1072 1.610 . S
N1071 S1070 1.613 . S
N1071 C1074 1.350 . S
N1072 S1070 1.610 . S
N1072 C1073 1.351 . S
C1073 C1067 1.428 . S
C1073 N1072 1.351 . S
C1073 C1074 1.434 . S
C1074 C1065 1.429 . S
C1074 N1071 1.350 . S
C1074 C1073 1.434 . S
C1075 C1076 1.369 . S
C1075 C1077 1.419 . S
C1075 H1079 0.930 . S
C1076 C1075 1.369 . S
C1076 C1085 1.429 . S
C1077 C1075 1.419 . S
C1077 C1078 1.363 . S
C1077 H1080 0.929 . S
C1078 C1077 1.363 . S
C1078 C1084 1.428 . S
H1079 C1075 0.930 . S
H1080 C1077 0.929 . S
S1081 N1082 1.613 . S
S1081 N1083 1.610 . S
N1082 S1081 1.613 . S
N1082 C1085 1.350 . S
N1083 S1081 1.610 . S
N1083 C1084 1.351 . S
C1084 C1078 1.428 . S
C1084 N1083 1.351 . S
C1084 C1085 1.434 . S
C1085 C1076 1.429 . S
C1085 N1082 1.350 . S
C1085 C1084 1.434 . S
C1086 C1087 1.369 . S
C1086 C1088 1.419 . S
C1086 H1090 0.930 . S
C1087 C1086 1.369 . S
C1087 C1096 1.429 . S
C1088 C1086 1.419 . S
C1088 C1089 1.363 . S
C1088 H1091 0.929 . S
C1089 C1088 1.363 . S
C1089 C1095 1.428 . S
H1090 C1086 0.930 . S
H1091 C1088 0.929 . S
S1092 N1093 1.613 . S
S1092 N1094 1.610 . S
N1093 S1092 1.613 . S
N1093 C1096 1.350 . S
N1094 S1092 1.610 . S
N1094 C1095 1.351 . S
C1095 C1089 1.428 . S
C1095 N1094 1.351 . S
C1095 C1096 1.434 . S
C1096 C1087 1.429 . S
C1096 N1093 1.350 . S
C1096 C1095 1.434 . S
C1097 C1098 1.369 . S
C1097 C1099 1.419 . S
C1097 H1101 0.930 . S
C1098 C1097 1.369 . S
C1098 C1107 1.429 . S
C1099 C1097 1.419 . S
C1099 C1100 1.363 . S
C1099 H1102 0.929 . S
C1100 C1099 1.363 . S
C1100 C1106 1.428 . S
H1101 C1097 0.930 . S
H1102 C1099 0.929 . S
S1103 N1104 1.613 . S
S1103 N1105 1.610 . S
N1104 S1103 1.613 . S
N1104 C1107 1.350 . S
N1105 S1103 1.610 . S
N1105 C1106 1.351 . S
C1106 C1100 1.428 . S
C1106 N1105 1.351 . S
C1106 C1107 1.434 . S
C1107 C1098 1.429 . S
C1107 N1104 1.350 . S
C1107 C1106 1.434 . S
C1108 C1109 1.369 . S
C1108 C1110 1.419 . S
C1108 H1112 0.930 . S
C1109 C1108 1.369 . S
C1109 C1118 1.429 . S
C1110 C1108 1.419 . S
C1110 C1111 1.363 . S
C1110 H1113 0.929 . S
C1111 C1110 1.363 . S
C1111 C1117 1.428 . S
H1112 C1108 0.930 . S
H1113 C1110 0.929 . S
S1114 N1115 1.613 . S
S1114 N1116 1.610 . S
N1115 S1114 1.613 . S
N1115 C1118 1.350 . S
N1116 S1114 1.610 . S
N1116 C1117 1.351 . S
C1117 C1111 1.428 . S
C1117 N1116 1.351 . S
C1117 C1118 1.434 . S
C1118 C1109 1.429 . S
C1118 N1115 1.350 . S
C1118 C1117 1.434 . S
C1119 C1120 1.369 . S
C1119 C1121 1.419 . S
C1119 H1123 0.930 . S
C1120 C1119 1.369 . S
C1120 C1129 1.429 . S
C1121 C1119 1.419 . S
C1121 C1122 1.363 . S
C1121 H1124 0.929 . S
C1122 C1121 1.363 . S
C1122 C1128 1.428 . S
H1123 C1119 0.930 . S
H1124 C1121 0.929 . S
S1125 N1126 1.613 . S
S1125 N1127 1.610 . S
N1126 S1125 1.613 . S
N1126 C1129 1.350 . S
N1127 S1125 1.610 . S
N1127 C1128 1.351 . S
C1128 C1122 1.428 . S
C1128 N1127 1.351 . S
C1128 C1129 1.434 . S
C1129 C1120 1.429 . S
C1129 N1126 1.350 . S
C1129 C1128 1.434 . S
C1130 C1131 1.369 . S
C1130 C1132 1.419 . S
C1130 H1134 0.930 . S
C1131 C1130 1.369 . S
C1131 C1140 1.429 . S
C1132 C1130 1.419 . S
C1132 C1133 1.363 . S
C1132 H1135 0.929 . S
C1133 C1132 1.363 . S
C1133 C1139 1.428 . S
H1134 C1130 0.930 . S
H1135 C1132 0.929 . S
S1136 N1137 1.613 . S
S1136 N1138 1.610 . S
N1137 S1136 1.613 . S
N1137 C1140 1.350 . S
N1138 S1136 1.610 . S
N1138 C1139 1.351 . S
C1139 C1133 1.428 . S
C1139 N1138 1.351 . S
C1139 C1140 1.434 . S
C1140 C1131 1.429 . S
C1140 N1137 1.350 . S
C1140 C1139 1.434 . S
C1141 C1142 1.369 . S
C1141 C1143 1.419 . S
C1141 H1145 0.930 . S
C1142 C1141 1.369 . S
C1142 C1151 1.429 . S
C1143 C1141 1.419 . S
C1143 C1144 1.363 . S
C1143 H1146 0.929 . S
C1144 C1143 1.363 . S
C1144 C1150 1.428 . S
H1145 C1141 0.930 . S
H1146 C1143 0.929 . S
S1147 N1148 1.613 . S
S1147 N1149 1.610 . S
N1148 S1147 1.613 . S
N1148 C1151 1.350 . S
N1149 S1147 1.610 . S
N1149 C1150 1.351 . S
C1150 C1144 1.428 . S
C1150 N1149 1.351 . S
C1150 C1151 1.434 . S
C1151 C1142 1.429 . S
C1151 N1148 1.350 . S
C1151 C1150 1.434 . S
C1152 C1153 1.369 . S
C1152 C1154 1.419 . S
C1152 H1156 0.930 . S
C1153 C1152 1.369 . S
C1153 C1162 1.429 . S
C1154 C1152 1.419 . S
C1154 C1155 1.363 . S
C1154 H1157 0.929 . S
C1155 C1154 1.363 . S
C1155 C1161 1.428 . S
H1156 C1152 0.930 . S
H1157 C1154 0.929 . S
S1158 N1159 1.613 . S
S1158 N1160 1.610 . S
N1159 S1158 1.613 . S
N1159 C1162 1.350 . S
N1160 S1158 1.610 . S
N1160 C1161 1.351 . S
C1161 C1155 1.428 . S
C1161 N1160 1.351 . S
C1161 C1162 1.434 . S
C1162 C1153 1.429 . S
C1162 N1159 1.350 . S
C1162 C1161 1.434 . S
C1163 C1164 1.369 . S
C1163 C1165 1.419 . S
C1163 H1167 0.930 . S
C1164 C1163 1.369 . S
C1164 C1173 1.429 . S
C1165 C1163 1.419 . S
C1165 C1166 1.363 . S
C1165 H1168 0.929 . S
C1166 C1165 1.363 . S
C1166 C1172 1.428 . S
H1167 C1163 0.930 . S
H1168 C1165 0.929 . S
S1169 N1170 1.613 . S
S1169 N1171 1.610 . S
N1170 S1169 1.613 . S
N1170 C1173 1.350 . S
N1171 S1169 1.610 . S
N1171 C1172 1.351 . S
C1172 C1166 1.428 . S
C1172 N1171 1.351 . S
C1172 C1173 1.434 . S
C1173 C1164 1.429 . S
C1173 N1170 1.350 . S
C1173 C1172 1.434 . S
C1174 C1175 1.369 . S
C1174 C1176 1.419 . S
C1174 H1178 0.930 . S
C1175 C1174 1.369 . S
C1175 C1184 1.429 . S
C1176 C1174 1.419 . S
C1176 C1177 1.363 . S
C1176 H1179 0.929 . S
C1177 C1176 1.363 . S
C1177 C1183 1.428 . S
H1178 C1174 0.930 . S
H1179 C1176 0.929 . S
S1180 N1181 1.613 . S
S1180 N1182 1.610 . S
N1181 S1180 1.613 . S
N1181 C1184 1.350 . S
N1182 S1180 1.610 . S
N1182 C1183 1.351 . S
C1183 C1177 1.428 . S
C1183 N1182 1.351 . S
C1183 C1184 1.434 . S
C1184 C1175 1.429 . S
C1184 N1181 1.350 . S
C1184 C1183 1.434 . S
C1185 C1186 1.369 . S
C1185 C1187 1.419 . S
C1185 H1189 0.930 . S
C1186 C1185 1.369 . S
C1186 C1195 1.429 . S
C1187 C1185 1.419 . S
C1187 C1188 1.363 . S
C1187 H1190 0.929 . S
C1188 C1187 1.363 . S
C1188 C1194 1.428 . S
H1189 C1185 0.930 . S
H1190 C1187 0.929 . S
S1191 N1192 1.613 . S
S1191 N1193 1.610 . S
N1192 S1191 1.613 . S
N1192 C1195 1.350 . S
N1193 S1191 1.610 . S
N1193 C1194 1.351 . S
C1194 C1188 1.428 . S
C1194 N1193 1.351 . S
C1194 C1195 1.434 . S
C1195 C1186 1.429 . S
C1195 N1192 1.350 . S
C1195 C1194 1.434 . S
C1196 C1197 1.369 . S
C1196 C1198 1.419 . S
C1196 H1200 0.930 . S
C1197 C1196 1.369 . S
C1197 C1206 1.429 . S
C1198 C1196 1.419 . S
C1198 C1199 1.363 . S
C1198 H1201 0.929 . S
C1199 C1198 1.363 . S
C1199 C1205 1.428 . S
H1200 C1196 0.930 . S
H1201 C1198 0.929 . S
S1202 N1203 1.613 . S
S1202 N1204 1.610 . S
N1203 S1202 1.613 . S
N1203 C1206 1.350 . S
N1204 S1202 1.610 . S
N1204 C1205 1.351 . S
C1205 C1199 1.428 . S
C1205 N1204 1.351 . S
C1205 C1206 1.434 . S
C1206 C1197 1.429 . S
C1206 N1203 1.350 . S
C1206 C1205 1.434 . S
C1207 C1208 1.369 . S
C1207 C1209 1.419 . S
C1207 H1211 0.930 . S
C1208 C1207 1.369 . S
C1208 C1217 1.429 . S
C1209 C1207 1.419 . S
C1209 C1210 1.363 . S
C1209 H1212 0.929 . S
C1210 C1209 1.363 . S
C1210 C1216 1.428 . S
H1211 C1207 0.930 . S
H1212 C1209 0.929 . S
S1213 N1214 1.613 . S
S1213 N1215 1.610 . S
N1214 S1213 1.613 . S
N1214 C1217 1.350 . S
N1215 S1213 1.610 . S
N1215 C1216 1.351 . S
C1216 C1210 1.428 . S
C1216 N1215 1.351 . S
C1216 C1217 1.434 . S
C1217 C1208 1.429 . S
C1217 N1214 1.350 . S
C1217 C1216 1.434 . S
C1218 C1219 1.369 . S
C1218 C1220 1.419 . S
C1218 H1222 0.930 . S
C1219 C1218 1.369 . S
C1219 C1228 1.429 . S
C1220 C1218 1.419 . S
C1220 C1221 1.363 . S
C1220 H1223 0.929 . S
C1221 C1220 1.363 . S
C1221 C1227 1.428 . S
H1222 C1218 0.930 . S
H1223 C1220 0.929 . S
S1224 N1225 1.613 . S
S1224 N1226 1.610 . S
N1225 S1224 1.613 . S
N1225 C1228 1.350 . S
N1226 S1224 1.610 . S
N1226 C1227 1.351 . S
C1227 C1221 1.428 . S
C1227 N1226 1.351 . S
C1227 C1228 1.434 . S
C1228 C1219 1.429 . S
C1228 N1225 1.350 . S
C1228 C1227 1.434 . S
C1229 C1230 1.369 . S
C1229 C1231 1.419 . S
C1229 H1233 0.930 . S
C1230 C1229 1.369 . S
C1230 C1239 1.429 . S
C1231 C1229 1.419 . S
C1231 C1232 1.363 . S
C1231 H1234 0.929 . S
C1232 C1231 1.363 . S
C1232 C1238 1.428 . S
H1233 C1229 0.930 . S
H1234 C1231 0.929 . S
S1235 N1236 1.613 . S
S1235 N1237 1.610 . S
N1236 S1235 1.613 . S
N1236 C1239 1.350 . S
N1237 S1235 1.610 . S
N1237 C1238 1.351 . S
C1238 C1232 1.428 . S
C1238 N1237 1.351 . S
C1238 C1239 1.434 . S
C1239 C1230 1.429 . S
C1239 N1236 1.350 . S
C1239 C1238 1.434 . S
C1240 C1241 1.369 . S
C1240 C1242 1.419 . S
C1240 H1244 0.930 . S
C1241 C1240 1.369 . S
C1241 C1250 1.429 . S
C1242 C1240 1.419 . S
C1242 C1243 1.363 . S
C1242 H1245 0.929 . S
C1243 C1242 1.363 . S
C1243 C1249 1.428 . S
H1244 C1240 0.930 . S
H1245 C1242 0.929 . S
S1246 N1247 1.613 . S
S1246 N1248 1.610 . S
N1247 S1246 1.613 . S
N1247 C1250 1.350 . S
N1248 S1246 1.610 . S
N1248 C1249 1.351 . S
C1249 C1243 1.428 . S
C1249 N1248 1.351 . S
C1249 C1250 1.434 . S
C1250 C1241 1.429 . S
C1250 N1247 1.350 . S
C1250 C1249 1.434 . S
C1251 C1252 1.369 . S
C1251 C1253 1.419 . S
C1251 H1255 0.930 . S
C1252 C1251 1.369 . S
C1252 C1261 1.429 . S
C1253 C1251 1.419 . S
C1253 C1254 1.363 . S
C1253 H1256 0.929 . S
C1254 C1253 1.363 . S
C1254 C1260 1.428 . S
H1255 C1251 0.930 . S
H1256 C1253 0.929 . S
S1257 N1258 1.613 . S
S1257 N1259 1.610 . S
N1258 S1257 1.613 . S
N1258 C1261 1.350 . S
N1259 S1257 1.610 . S
N1259 C1260 1.351 . S
C1260 C1254 1.428 . S
C1260 N1259 1.351 . S
C1260 C1261 1.434 . S
C1261 C1252 1.429 . S
C1261 N1258 1.350 . S
C1261 C1260 1.434 . S
C1262 C1263 1.369 . S
C1262 C1264 1.419 . S
C1262 H1266 0.930 . S
C1263 C1262 1.369 . S
C1263 C1272 1.429 . S
C1264 C1262 1.419 . S
C1264 C1265 1.363 . S
C1264 H1267 0.929 . S
C1265 C1264 1.363 . S
C1265 C1271 1.428 . S
H1266 C1262 0.930 . S
H1267 C1264 0.929 . S
S1268 N1269 1.613 . S
S1268 N1270 1.610 . S
N1269 S1268 1.613 . S
N1269 C1272 1.350 . S
N1270 S1268 1.610 . S
N1270 C1271 1.351 . S
C1271 C1265 1.428 . S
C1271 N1270 1.351 . S
C1271 C1272 1.434 . S
C1272 C1263 1.429 . S
C1272 N1269 1.350 . S
C1272 C1271 1.434 . S
C1273 C1274 1.369 . S
C1273 C1275 1.419 . S
C1273 H1277 0.930 . S
C1274 C1273 1.369 . S
C1274 C1283 1.429 . S
C1275 C1273 1.419 . S
C1275 C1276 1.363 . S
C1275 H1278 0.929 . S
C1276 C1275 1.363 . S
C1276 C1282 1.428 . S
H1277 C1273 0.930 . S
H1278 C1275 0.929 . S
S1279 N1280 1.613 . S
S1279 N1281 1.610 . S
N1280 S1279 1.613 . S
N1280 C1283 1.350 . S
N1281 S1279 1.610 . S
N1281 C1282 1.351 . S
C1282 C1276 1.428 . S
C1282 N1281 1.351 . S
C1282 C1283 1.434 . S
C1283 C1274 1.429 . S
C1283 N1280 1.350 . S
C1283 C1282 1.434 . S
C1284 C1285 1.369 . S
C1284 C1286 1.419 . S
C1284 H1288 0.930 . S
C1285 C1284 1.369 . S
C1285 C1294 1.429 . S
C1286 C1284 1.419 . S
C1286 C1287 1.363 . S
C1286 H1289 0.929 . S
C1287 C1286 1.363 . S
C1287 C1293 1.428 . S
H1288 C1284 0.930 . S
H1289 C1286 0.929 . S
S1290 N1291 1.613 . S
S1290 N1292 1.610 . S
N1291 S1290 1.613 . S
N1291 C1294 1.350 . S
N1292 S1290 1.610 . S
N1292 C1293 1.351 . S
C1293 C1287 1.428 . S
C1293 N1292 1.351 . S
C1293 C1294 1.434 . S
C1294 C1285 1.429 . S
C1294 N1291 1.350 . S
C1294 C1293 1.434 . S
C1295 C1296 1.369 . S
C1295 C1297 1.419 . S
C1295 H1299 0.930 . S
C1296 C1295 1.369 . S
C1296 C1305 1.429 . S
C1297 C1295 1.419 . S
C1297 C1298 1.363 . S
C1297 H1300 0.929 . S
C1298 C1297 1.363 . S
C1298 C1304 1.428 . S
H1299 C1295 0.930 . S
H1300 C1297 0.929 . S
S1301 N1302 1.613 . S
S1301 N1303 1.610 . S
N1302 S1301 1.613 . S
N1302 C1305 1.350 . S
N1303 S1301 1.610 . S
N1303 C1304 1.351 . S
C1304 C1298 1.428 . S
C1304 N1303 1.351 . S
C1304 C1305 1.434 . S
C1305 C1296 1.429 . S
C1305 N1302 1.350 . S
C1305 C1304 1.434 . S
C1306 C1307 1.369 . S
C1306 C1308 1.419 . S
C1306 H1310 0.930 . S
C1307 C1306 1.369 . S
C1307 C1316 1.429 . S
C1308 C1306 1.419 . S
C1308 C1309 1.363 . S
C1308 H1311 0.929 . S
C1309 C1308 1.363 . S
C1309 C1315 1.428 . S
H1310 C1306 0.930 . S
H1311 C1308 0.929 . S
S1312 N1313 1.613 . S
S1312 N1314 1.610 . S
N1313 S1312 1.613 . S
N1313 C1316 1.350 . S
N1314 S1312 1.610 . S
N1314 C1315 1.351 . S
C1315 C1309 1.428 . S
C1315 N1314 1.351 . S
C1315 C1316 1.434 . S
C1316 C1307 1.429 . S
C1316 N1313 1.350 . S
C1316 C1315 1.434 . S
C1317 C1318 1.369 . S
C1317 C1319 1.419 . S
C1317 H1321 0.930 . S
C1318 C1317 1.369 . S
C1318 C1327 1.429 . S
C1319 C1317 1.419 . S
C1319 C1320 1.363 . S
C1319 H1322 0.929 . S
C1320 C1319 1.363 . S
C1320 C1326 1.428 . S
H1321 C1317 0.930 . S
H1322 C1319 0.929 . S
S1323 N1324 1.613 . S
S1323 N1325 1.610 . S
N1324 S1323 1.613 . S
N1324 C1327 1.350 . S
N1325 S1323 1.610 . S
N1325 C1326 1.351 . S
C1326 C1320 1.428 . S
C1326 N1325 1.351 . S
C1326 C1327 1.434 . S
C1327 C1318 1.429 . S
C1327 N1324 1.350 . S
C1327 C1326 1.434 . S
C1328 C1329 1.369 . S
C1328 C1330 1.419 . S
C1328 H1332 0.930 . S
C1329 C1328 1.369 . S
C1329 C1338 1.429 . S
C1330 C1328 1.419 . S
C1330 C1331 1.363 . S
C1330 H1333 0.929 . S
C1331 C1330 1.363 . S
C1331 C1337 1.428 . S
H1332 C1328 0.930 . S
H1333 C1330 0.929 . S
S1334 N1335 1.613 . S
S1334 N1336 1.610 . S
N1335 S1334 1.613 . S
N1335 C1338 1.350 . S
N1336 S1334 1.610 . S
N1336 C1337 1.351 . S
C1337 C1331 1.428 . S
C1337 N1336 1.351 . S
C1337 C1338 1.434 . S
C1338 C1329 1.429 . S
C1338 N1335 1.350 . S
C1338 C1337 1.434 . S
C1339 C1340 1.369 . S
C1339 C1341 1.419 . S
C1339 H1343 0.930 . S
C1340 C1339 1.369 . S
C1340 C1349 1.429 . S
C1341 C1339 1.419 . S
C1341 C1342 1.363 . S
C1341 H1344 0.929 . S
C1342 C1341 1.363 . S
C1342 C1348 1.428 . S
H1343 C1339 0.930 . S
H1344 C1341 0.929 . S
S1345 N1346 1.613 . S
S1345 N1347 1.610 . S
N1346 S1345 1.613 . S
N1346 C1349 1.350 . S
N1347 S1345 1.610 . S
N1347 C1348 1.351 . S
C1348 C1342 1.428 . S
C1348 N1347 1.351 . S
C1348 C1349 1.434 . S
C1349 C1340 1.429 . S
C1349 N1346 1.350 . S
C1349 C1348 1.434 . S
C1350 C1351 1.369 . S
C1350 C1352 1.419 . S
C1350 H1354 0.930 . S
C1351 C1350 1.369 . S
C1351 C1360 1.429 . S
C1352 C1350 1.419 . S
C1352 C1353 1.363 . S
C1352 H1355 0.929 . S
C1353 C1352 1.363 . S
C1353 C1359 1.428 . S
H1354 C1350 0.930 . S
H1355 C1352 0.929 . S
S1356 N1357 1.613 . S
S1356 N1358 1.610 . S
N1357 S1356 1.613 . S
N1357 C1360 1.350 . S
N1358 S1356 1.610 . S
N1358 C1359 1.351 . S
C1359 C1353 1.428 . S
C1359 N1358 1.351 . S
C1359 C1360 1.434 . S
C1360 C1351 1.429 . S
C1360 N1357 1.350 . S
C1360 C1359 1.434 . S
C1361 C1362 1.369 . S
C1361 C1363 1.419 . S
C1361 H1365 0.930 . S
C1362 C1361 1.369 . S
C1362 C1371 1.429 . S
C1363 C1361 1.419 . S
C1363 C1364 1.363 . S
C1363 H1366 0.929 . S
C1364 C1363 1.363 . S
C1364 C1370 1.428 . S
H1365 C1361 0.930 . S
H1366 C1363 0.929 . S
S1367 N1368 1.613 . S
S1367 N1369 1.610 . S
N1368 S1367 1.613 . S
N1368 C1371 1.350 . S
N1369 S1367 1.610 . S
N1369 C1370 1.351 . S
C1370 C1364 1.428 . S
C1370 N1369 1.351 . S
C1370 C1371 1.434 . S
C1371 C1362 1.429 . S
C1371 N1368 1.350 . S
C1371 C1370 1.434 . S
C1372 C1373 1.369 . S
C1372 C1374 1.419 . S
C1372 H1376 0.930 . S
C1373 C1372 1.369 . S
C1373 C1382 1.429 . S
C1374 C1372 1.419 . S
C1374 C1375 1.363 . S
C1374 H1377 0.929 . S
C1375 C1374 1.363 . S
C1375 C1381 1.428 . S
H1376 C1372 0.930 . S
H1377 C1374 0.929 . S
S1378 N1379 1.613 . S
S1378 N1380 1.610 . S
N1379 S1378 1.613 . S
N1379 C1382 1.350 . S
N1380 S1378 1.610 . S
N1380 C1381 1.351 . S
C1381 C1375 1.428 . S
C1381 N1380 1.351 . S
C1381 C1382 1.434 . S
C1382 C1373 1.429 . S
C1382 N1379 1.350 . S
C1382 C1381 1.434 . S
C1383 C1384 1.369 . S
C1383 C1385 1.419 . S
C1383 H1387 0.930 . S
C1384 C1383 1.369 . S
C1384 C1393 1.429 . S
C1385 C1383 1.419 . S
C1385 C1386 1.363 . S
C1385 H1388 0.929 . S
C1386 C1385 1.363 . S
C1386 C1392 1.428 . S
H1387 C1383 0.930 . S
H1388 C1385 0.929 . S
S1389 N1390 1.613 . S
S1389 N1391 1.610 . S
N1390 S1389 1.613 . S
N1390 C1393 1.350 . S
N1391 S1389 1.610 . S
N1391 C1392 1.351 . S
C1392 C1386 1.428 . S
C1392 N1391 1.351 . S
C1392 C1393 1.434 . S
C1393 C1384 1.429 . S
C1393 N1390 1.350 . S
C1393 C1392 1.434 . S
C1394 C1395 1.369 . S
C1394 C1396 1.419 . S
C1394 H1398 0.930 . S
C1395 C1394 1.369 . S
C1395 C1404 1.429 . S
C1396 C1394 1.419 . S
C1396 C1397 1.363 . S
C1396 H1399 0.929 . S
C1397 C1396 1.363 . S
C1397 C1403 1.428 . S
H1398 C1394 0.930 . S
H1399 C1396 0.929 . S
S1400 N1401 1.613 . S
S1400 N1402 1.610 . S
N1401 S1400 1.613 . S
N1401 C1404 1.350 . S
N1402 S1400 1.610 . S
N1402 C1403 1.351 . S
C1403 C1397 1.428 . S
C1403 N1402 1.351 . S
C1403 C1404 1.434 . S
C1404 C1395 1.429 . S
C1404 N1401 1.350 . S
C1404 C1403 1.434 . S
C1405 C1406 1.369 . S
C1405 C1407 1.419 . S
C1405 H1409 0.930 . S
C1406 C1405 1.369 . S
C1406 C1415 1.429 . S
C1407 C1405 1.419 . S
C1407 C1408 1.363 . S
C1407 H1410 0.929 . S
C1408 C1407 1.363 . S
C1408 C1414 1.428 . S
H1409 C1405 0.930 . S
H1410 C1407 0.929 . S
S1411 N1412 1.613 . S
S1411 N1413 1.610 . S
N1412 S1411 1.613 . S
N1412 C1415 1.350 . S
N1413 S1411 1.610 . S
N1413 C1414 1.351 . S
C1414 C1408 1.428 . S
C1414 N1413 1.351 . S
C1414 C1415 1.434 . S
C1415 C1406 1.429 . S
C1415 N1412 1.350 . S
C1415 C1414 1.434 . S
C1416 C1417 1.369 . S
C1416 C1418 1.419 1_554 S
C1416 H1420 0.930 . S
C1417 C1416 1.369 . S
C1417 C1426 1.429 . S
C1418 C1416 1.419 1_556 S
C1418 C1419 1.363 . S
C1418 H1421 0.929 . S
C1419 C1418 1.363 . S
C1419 C1425 1.428 . S
H1420 C1416 0.930 . S
H1421 C1418 0.929 . S
S1422 N1423 1.617 1_556 S
S1422 N1424 1.607 . S
N1423 S1422 1.617 1_554 S
N1423 C1426 1.350 . S
N1424 S1422 1.607 . S
N1424 C1425 1.351 . S
C1425 C1419 1.428 . S
C1425 N1424 1.351 . S
C1425 C1426 1.434 1_556 S
C1426 C1417 1.429 . S
C1426 N1423 1.350 . S
C1426 C1425 1.434 1_554 S
C1427 C1428 1.369 . S
C1427 C1429 1.419 1_556 S
C1427 H1431 0.930 . S
C1428 C1427 1.369 . S
C1428 C1437 1.429 . S
C1429 C1427 1.419 1_554 S
C1429 C1430 1.363 . S
C1429 H1432 0.929 . S
C1430 C1429 1.363 . S
C1430 C1436 1.428 . S
H1431 C1427 0.930 . S
H1432 C1429 0.929 . S
S1433 N1434 1.616 . S
S1433 N1435 1.608 1_556 S
N1434 S1433 1.616 . S
N1434 C1437 1.350 . S
N1435 S1433 1.608 1_554 S
N1435 C1436 1.351 . S
C1436 C1430 1.428 . S
C1436 N1435 1.351 . S
C1436 C1437 1.434 1_554 S
C1437 C1428 1.429 . S
C1437 N1434 1.350 . S
C1437 C1436 1.434 1_556 S
C1438 C1439 1.369 . S
C1438 C1440 1.419 1_554 S
C1438 H1442 0.930 . S
C1439 C1438 1.369 . S
C1439 C1448 1.429 . S
C1440 C1438 1.419 1_556 S
C1440 C1441 1.363 . S
C1440 H1443 0.929 . S
C1441 C1440 1.363 . S
C1441 C1447 1.428 . S
H1442 C1438 0.930 . S
H1443 C1440 0.929 . S
S1444 N1445 1.617 . S
S1444 N1446 1.606 1_554 S
N1445 S1444 1.617 . S
N1445 C1448 1.350 . S
N1446 S1444 1.606 1_556 S
N1446 C1447 1.351 . S
C1447 C1441 1.428 . S
C1447 N1446 1.351 . S
C1447 C1448 1.434 1_556 S
C1448 C1439 1.429 . S
C1448 N1445 1.350 . S
C1448 C1447 1.434 1_554 S
C1449 C1450 1.369 . S
C1449 C1451 1.419 1_554 S
C1449 H1453 0.930 . S
C1450 C1449 1.369 . S
C1450 C1459 1.429 . S
C1451 C1449 1.419 1_556 S
C1451 C1452 1.363 . S
C1451 H1454 0.929 . S
C1452 C1451 1.363 . S
C1452 C1458 1.428 . S
H1453 C1449 0.930 . S
H1454 C1451 0.929 . S
S1455 N1456 1.614 1_556 S
S1455 N1457 1.610 . S
N1456 S1455 1.614 1_554 S
N1456 C1459 1.350 . S
N1457 S1455 1.610 . S
N1457 C1458 1.351 . S
C1458 C1452 1.428 . S
C1458 N1457 1.351 . S
C1458 C1459 1.434 1_556 S
C1459 C1450 1.429 . S
C1459 N1456 1.350 . S
C1459 C1458 1.434 1_554 S
C1460 C1461 1.369 . S
C1460 C1462 1.419 1_556 S
C1460 H1464 0.930 . S
C1461 C1460 1.369 . S
C1461 C1470 1.429 . S
C1462 C1460 1.419 1_554 S
C1462 C1463 1.363 . S
C1462 H1465 0.929 . S
C1463 C1462 1.363 . S
C1463 C1469 1.428 . S
H1464 C1460 0.930 . S
H1465 C1462 0.929 . S
S1466 N1467 1.609 . S
S1466 N1468 1.614 1_556 S
N1467 S1466 1.609 . S
N1467 C1470 1.350 . S
N1468 S1466 1.614 1_554 S
N1468 C1469 1.351 . S
C1469 C1463 1.428 . S
C1469 N1468 1.351 . S
C1469 C1470 1.434 1_554 S
C1470 C1461 1.429 . S
C1470 N1467 1.350 . S
C1470 C1469 1.434 1_556 S
C1471 C1472 1.369 . S
C1471 C1473 1.419 1_554 S
C1471 H1475 0.930 . S
C1472 C1471 1.369 . S
C1472 C1481 1.429 . S
C1473 C1471 1.419 1_556 S
C1473 C1474 1.363 . S
C1473 H1476 0.929 . S
C1474 C1473 1.363 . S
C1474 C1480 1.428 . S
H1475 C1471 0.930 . S
H1476 C1473 0.929 . S
S1477 N1478 1.615 1_556 S
S1477 N1479 1.608 . S
N1478 S1477 1.615 1_554 S
N1478 C1481 1.350 . S
N1479 S1477 1.608 . S
N1479 C1480 1.351 . S
C1480 C1474 1.428 . S
C1480 N1479 1.351 . S
C1480 C1481 1.434 1_556 S
C1481 C1472 1.429 . S
C1481 N1478 1.350 . S
C1481 C1480 1.434 1_554 S
C1482 C1483 1.369 . S
C1482 C1484 1.419 1_556 S
C1482 H1486 0.930 . S
C1483 C1482 1.369 . S
C1483 C1492 1.429 . S
C1484 C1482 1.419 1_554 S
C1484 C1485 1.363 . S
C1484 H1487 0.929 . S
C1485 C1484 1.363 . S
C1485 C1491 1.428 . S
H1486 C1482 0.930 . S
H1487 C1484 0.929 . S
S1488 N1489 1.611 . S
S1488 N1490 1.612 1_556 S
N1489 S1488 1.611 . S
N1489 C1492 1.350 . S
N1490 S1488 1.612 1_554 S
N1490 C1491 1.351 . S
C1491 C1485 1.428 . S
C1491 N1490 1.351 . S
C1491 C1492 1.434 1_554 S
C1492 C1483 1.429 . S
C1492 N1489 1.350 . S
C1492 C1491 1.434 1_556 S
C1493 C1494 1.369 . S
C1493 C1495 1.419 1_554 S
C1493 H1497 0.930 . S
C1494 C1493 1.369 . S
C1494 C1503 1.429 . S
C1495 C1493 1.419 1_556 S
C1495 C1496 1.363 . S
C1495 H1498 0.929 . S
C1496 C1495 1.363 . S
C1496 C1502 1.428 . S
H1497 C1493 0.930 . S
H1498 C1495 0.929 . S
S1499 N1500 1.620 . S
S1499 N1501 1.603 1_554 S
N1500 S1499 1.620 . S
N1500 C1503 1.350 . S
N1501 S1499 1.603 1_556 S
N1501 C1502 1.351 . S
C1502 C1496 1.428 . S
C1502 N1501 1.351 . S
C1502 C1503 1.434 1_556 S
C1503 C1494 1.429 . S
C1503 N1500 1.350 . S
C1503 C1502 1.434 1_554 S
C1504 C1505 1.369 . S
C1504 C1506 1.419 1_455 S
C1504 H1508 0.930 . S
C1505 C1504 1.369 . S
C1505 C1514 1.429 . S
C1506 C1504 1.419 1_655 S
C1506 C1507 1.363 . S
C1506 H1509 0.929 . S
C1507 C1506 1.363 . S
C1507 C1513 1.428 . S
H1508 C1504 0.930 . S
H1509 C1506 0.929 . S
S1510 N1511 1.611 1_655 S
S1510 N1512 1.612 . S
N1511 S1510 1.611 1_455 S
N1511 C1514 1.350 . S
N1512 S1510 1.612 . S
N1512 C1513 1.351 . S
C1513 C1507 1.428 . S
C1513 N1512 1.351 . S
C1513 C1514 1.434 1_655 S
C1514 C1505 1.429 . S
C1514 N1511 1.350 . S
C1514 C1513 1.434 1_455 S
C1515 C1516 1.369 . S
C1515 C1517 1.419 1_565 S
C1515 H1519 0.930 . S
C1516 C1515 1.369 . S
C1516 C1525 1.429 . S
C1517 C1515 1.419 1_545 S
C1517 C1518 1.363 . S
C1517 H1520 0.929 . S
C1518 C1517 1.363 . S
C1518 C1524 1.428 . S
H1519 C1515 0.930 . S
H1520 C1517 0.929 . S
S1521 N1522 1.616 1_545 S
S1521 N1523 1.607 . S
N1522 S1521 1.616 1_565 S
N1522 C1525 1.350 . S
N1523 S1521 1.607 . S
N1523 C1524 1.351 . S
C1524 C1518 1.428 . S
C1524 N1523 1.351 . S
C1524 C1525 1.434 1_545 S
C1525 C1516 1.429 . S
C1525 N1522 1.350 . S
C1525 C1524 1.434 1_565 S
C1526 C1527 1.369 . S
C1526 C1528 1.419 1_455 S
C1526 H1530 0.930 . S
C1527 C1526 1.369 . S
C1527 C1536 1.429 . S
C1528 C1526 1.419 1_655 S
C1528 C1529 1.363 . S
C1528 H1531 0.929 . S
C1529 C1528 1.363 . S
C1529 C1535 1.428 . S
H1530 C1526 0.930 . S
H1531 C1528 0.929 . S
S1532 N1533 1.603 1_655 S
S1532 N1534 1.620 . S
N1533 S1532 1.603 1_455 S
N1533 C1536 1.350 . S
N1534 S1532 1.620 . S
N1534 C1535 1.351 . S
C1535 C1529 1.428 . S
C1535 N1534 1.351 . S
C1535 C1536 1.434 1_655 S
C1536 C1527 1.429 . S
C1536 N1533 1.350 . S
C1536 C1535 1.434 1_455 S
C1537 C1538 1.369 . S
C1537 C1539 1.419 1_565 S
C1537 H1541 0.930 . S
C1538 C1537 1.369 . S
C1538 C1547 1.429 . S
C1539 C1537 1.419 1_545 S
C1539 C1540 1.363 . S
C1539 H1542 0.929 . S
C1540 C1539 1.363 . S
C1540 C1546 1.428 . S
H1541 C1537 0.930 . S
H1542 C1539 0.929 . S
S1543 N1544 1.616 . S
S1543 N1545 1.608 1_565 S
N1544 S1543 1.616 . S
N1544 C1547 1.350 . S
N1545 S1543 1.608 1_545 S
N1545 C1546 1.351 . S
C1546 C1540 1.428 . S
C1546 N1545 1.351 . S
C1546 C1547 1.434 1_545 S
C1547 C1538 1.429 . S
C1547 N1544 1.350 . S
C1547 C1546 1.434 1_565 S
C1548 C1549 1.369 . S
C1548 C1550 1.419 1_655 S
C1548 H1552 0.930 . S
C1549 C1548 1.369 . S
C1549 C1558 1.429 . S
C1550 C1548 1.419 1_455 S
C1550 C1551 1.363 . S
C1550 H1553 0.929 . S
C1551 C1550 1.363 . S
C1551 C1557 1.428 . S
H1552 C1548 0.930 . S
H1553 C1550 0.929 . S
S1554 N1555 1.625 . S
S1554 N1556 1.599 1_655 S
N1555 S1554 1.625 . S
N1555 C1558 1.350 . S
N1556 S1554 1.599 1_455 S
N1556 C1557 1.351 . S
C1557 C1551 1.428 . S
C1557 N1556 1.351 . S
C1557 C1558 1.434 1_455 S
C1558 C1549 1.429 . S
C1558 N1555 1.350 . S
C1558 C1557 1.434 1_655 S
C1559 C1560 1.369 . S
C1559 C1561 1.419 1_545 S
C1559 H1563 0.930 . S
C1560 C1559 1.369 . S
C1560 C1569 1.429 . S
C1561 C1559 1.419 1_565 S
C1561 C1562 1.363 . S
C1561 H1564 0.929 . S
C1562 C1561 1.363 . S
C1562 C1568 1.428 . S
H1563 C1559 0.930 . S
H1564 C1561 0.929 . S
S1565 N1566 1.620 . S
S1565 N1567 1.603 1_545 S
N1566 S1565 1.620 . S
N1566 C1569 1.350 . S
N1567 S1565 1.603 1_565 S
N1567 C1568 1.351 . S
C1568 C1562 1.428 . S
C1568 N1567 1.351 . S
C1568 C1569 1.434 1_565 S
C1569 C1560 1.429 . S
C1569 N1566 1.350 . S
C1569 C1568 1.434 1_545 S
C1570 C1571 1.369 . S
C1570 C1572 1.419 1_455 S
C1570 H1574 0.930 . S
C1571 C1570 1.369 . S
C1571 C1580 1.429 . S
C1572 C1570 1.419 1_655 S
C1572 C1573 1.363 . S
C1572 H1575 0.929 . S
C1573 C1572 1.363 . S
C1573 C1579 1.428 . S
H1574 C1570 0.930 . S
H1575 C1572 0.929 . S
S1576 N1577 1.628 . S
S1576 N1578 1.595 1_455 S
N1577 S1576 1.628 . S
N1577 C1580 1.350 . S
N1578 S1576 1.595 1_655 S
N1578 C1579 1.351 . S
C1579 C1573 1.428 . S
C1579 N1578 1.351 . S
C1579 C1580 1.434 1_655 S
C1580 C1571 1.429 . S
C1580 N1577 1.350 . S
C1580 C1579 1.434 1_455 S
C1581 C1582 1.369 . S
C1581 C1583 1.419 1_545 S
C1581 H1585 0.930 . S
C1582 C1581 1.369 . S
C1582 C1591 1.429 . S
C1583 C1581 1.419 1_565 S
C1583 C1584 1.363 . S
C1583 H1586 0.929 . S
C1584 C1583 1.363 . S
C1584 C1590 1.428 . S
H1585 C1581 0.930 . S
H1586 C1583 0.929 . S
S1587 N1588 1.616 1_565 S
S1587 N1589 1.607 . S
N1588 S1587 1.616 1_545 S
N1588 C1591 1.350 . S
N1589 S1587 1.607 . S
N1589 C1590 1.351 . S
C1590 C1584 1.428 . S
C1590 N1589 1.351 . S
C1590 C1591 1.434 1_565 S
C1591 C1582 1.429 . S
C1591 N1588 1.350 . S
C1591 C1590 1.434 1_545 S
C1592 C1593 1.369 . S
C1592 C1594 1.419 1_545 S
C1592 H1596 0.930 . S
C1593 C1592 1.369 . S
C1593 C1602 1.429 . S
C1594 C1592 1.419 1_565 S
C1594 C1595 1.363 . S
C1594 H1597 0.929 . S
C1595 C1594 1.363 . S
C1595 C1601 1.428 . S
H1596 C1592 0.930 . S
H1597 C1594 0.929 . S
S1598 N1599 1.610 1_565 S
S1598 N1600 1.614 . S
N1599 S1598 1.610 1_545 S
N1599 C1602 1.350 . S
N1600 S1598 1.614 . S
N1600 C1601 1.351 . S
C1601 C1595 1.428 . S
C1601 N1600 1.351 . S
C1601 C1602 1.434 1_565 S
C1602 C1593 1.429 . S
C1602 N1599 1.350 . S
C1602 C1601 1.434 1_545 S
C1603 C1604 1.369 . S
C1603 C1605 1.419 1_545 S
C1603 H1607 0.930 . S
C1604 C1603 1.369 . S
C1604 C1613 1.429 . S
C1605 C1603 1.419 1_565 S
C1605 C1606 1.363 . S
C1605 H1608 0.929 . S
C1606 C1605 1.363 . S
C1606 C1612 1.428 . S
H1607 C1603 0.930 . S
H1608 C1605 0.929 . S
S1609 N1610 1.607 1_565 S
S1609 N1611 1.616 . S
N1610 S1609 1.607 1_545 S
N1610 C1613 1.350 . S
N1611 S1609 1.616 . S
N1611 C1612 1.351 . S
C1612 C1606 1.428 . S
C1612 N1611 1.351 . S
C1612 C1613 1.434 1_565 S
C1613 C1604 1.429 . S
C1613 N1610 1.350 . S
C1613 C1612 1.434 1_545 S
C1614 C1615 1.369 . S
C1614 C1616 1.419 1_655 S
C1614 H1618 0.930 . S
C1615 C1614 1.369 . S
C1615 C1624 1.429 . S
C1616 C1614 1.419 1_455 S
C1616 C1617 1.363 . S
C1616 H1619 0.929 . S
C1617 C1616 1.363 . S
C1617 C1623 1.428 . S
H1618 C1614 0.930 . S
H1619 C1616 0.929 . S
S1620 N1621 1.618 . S
S1620 N1622 1.605 1_655 S
N1621 S1620 1.618 . S
N1621 C1624 1.350 . S
N1622 S1620 1.605 1_455 S
N1622 C1623 1.351 . S
C1623 C1617 1.428 . S
C1623 N1622 1.351 . S
C1623 C1624 1.434 1_455 S
C1624 C1615 1.429 . S
C1624 N1621 1.350 . S
C1624 C1623 1.434 1_655 S
C1625 C1626 1.369 . S
C1625 C1627 1.419 1_545 S
C1625 H1629 0.930 . S
C1626 C1625 1.369 . S
C1626 C1635 1.429 . S
C1627 C1625 1.419 1_565 S
C1627 C1628 1.363 . S
C1627 H1630 0.929 . S
C1628 C1627 1.363 . S
C1628 C1634 1.428 . S
H1629 C1625 0.930 . S
H1630 C1627 0.929 . S
S1631 N1632 1.625 . S
S1631 N1633 1.598 1_545 S
N1632 S1631 1.625 . S
N1632 C1635 1.350 . S
N1633 S1631 1.598 1_565 S
N1633 C1634 1.351 . S
C1634 C1628 1.428 . S
C1634 N1633 1.351 . S
C1634 C1635 1.434 1_565 S
C1635 C1626 1.429 . S
C1635 N1632 1.350 . S
C1635 C1634 1.434 1_545 S
C1636 C1637 1.369 . S
C1636 C1638 1.419 1_455 S
C1636 H1640 0.930 . S
C1637 C1636 1.369 . S
C1637 C1646 1.429 . S
C1638 C1636 1.419 1_655 S
C1638 C1639 1.363 . S
C1638 H1641 0.929 . S
C1639 C1638 1.363 . S
C1639 C1645 1.428 . S
H1640 C1636 0.930 . S
H1641 C1638 0.929 . S
S1642 N1643 1.623 . S
S1642 N1644 1.600 1_455 S
N1643 S1642 1.623 . S
N1643 C1646 1.350 . S
N1644 S1642 1.600 1_655 S
N1644 C1645 1.351 . S
C1645 C1639 1.428 . S
C1645 N1644 1.351 . S
C1645 C1646 1.434 1_655 S
C1646 C1637 1.429 . S
C1646 N1643 1.350 . S
C1646 C1645 1.434 1_455 S
C1647 C1648 1.369 . S
C1647 C1649 1.419 1_545 S
C1647 H1651 0.930 . S
C1648 C1647 1.369 . S
C1648 C1657 1.429 . S
C1649 C1647 1.419 1_565 S
C1649 C1650 1.363 . S
C1649 H1652 0.929 . S
C1650 C1649 1.363 . S
C1650 C1656 1.428 . S
H1651 C1647 0.930 . S
H1652 C1649 0.929 . S
S1653 N1654 1.617 . S
S1653 N1655 1.606 1_545 S
N1654 S1653 1.617 . S
N1654 C1657 1.350 . S
N1655 S1653 1.606 1_565 S
N1655 C1656 1.351 . S
C1656 C1650 1.428 . S
C1656 N1655 1.351 . S
C1656 C1657 1.434 1_565 S
C1657 C1648 1.429 . S
C1657 N1654 1.350 . S
C1657 C1656 1.434 1_545 S
C1658 C1659 1.369 . S
C1658 C1660 1.419 1_655 S
C1658 H1662 0.930 . S
C1659 C1658 1.369 . S
C1659 C1668 1.429 . S
C1660 C1658 1.419 1_455 S
C1660 C1661 1.363 . S
C1660 H1663 0.929 . S
C1661 C1660 1.363 . S
C1661 C1667 1.428 . S
H1662 C1658 0.930 . S
H1663 C1660 0.929 . S
S1664 N1665 1.596 1_455 S
S1664 N1666 1.627 . S
N1665 S1664 1.596 1_655 S
N1665 C1668 1.350 . S
N1666 S1664 1.627 . S
N1666 C1667 1.351 . S
C1667 C1661 1.428 . S
C1667 N1666 1.351 . S
C1667 C1668 1.434 1_455 S
C1668 C1659 1.429 . S
C1668 N1665 1.350 . S
C1668 C1667 1.434 1_655 S
C1669 C1670 1.369 . S
C1669 C1671 1.419 1_455 S
C1669 H1673 0.930 . S
C1670 C1669 1.369 . S
C1670 C1679 1.429 . S
C1671 C1669 1.419 1_655 S
C1671 C1672 1.363 . S
C1671 H1674 0.929 . S
C1672 C1671 1.363 . S
C1672 C1678 1.428 . S
H1673 C1669 0.930 . S
H1674 C1671 0.929 . S
S1675 N1676 1.592 1_655 S
S1675 N1677 1.631 . S
N1676 S1675 1.592 1_455 S
N1676 C1679 1.350 . S
N1677 S1675 1.631 . S
N1677 C1678 1.351 . S
C1678 C1672 1.428 . S
C1678 N1677 1.351 . S
C1678 C1679 1.434 1_655 S
C1679 C1670 1.429 . S
C1679 N1676 1.350 . S
C1679 C1678 1.434 1_455 S
C625 C517 1.422 . S
C627 C3 1.423 . S
C636 C17 1.418 . S
C638 C471 1.420 . S
C647 C31 1.420 . S
C649 C485 1.418 . S
C658 C498 1.415 . S
C660 C43 1.416 . S
C669 C439 1.413 . S
C671 C56 1.414 . S
C680 C70 1.423 . S
C682 C445 1.424 . S
C691 C88 1.415 . S
C693 C458 1.417 . S
C702 C94 1.426 . S
C704 C421 1.426 . S
C713 C114 1.420 . S
C715 C406 1.423 . S
C724 C374 1.416 . S
C726 C121 1.416 . S
C735 C380 1.419 . S
C737 C140 1.417 . S
C746 C146 1.420 . S
C748 C400 1.418 . S
C757 C161 1.415 . S
C759 C329 1.413 . S
C768 C172 1.424 . S
C770 C341 1.424 . S
C779 C355 1.408 . S
C781 C186 1.409 . S
C790 C315 1.423 . S
C792 C199 1.421 . S
C801 C218 1.420 . S
C803 C576 1.419 . S
C812 C616 1.422 . S
C814 C224 1.422 . S
C823 C589 1.416 . S
C825 C238 1.416 . S
C834 C603 1.421 . S
C836 C252 1.421 . S
C845 C530 1.419 . S
C847 C270 1.419 . S
C856 C550 1.420 . S
C858 C277 1.420 . S
C867 C291 1.420 . S
C869 C564 1.420 . S
C878 C536 1.419 . S
C880 C302 1.419 . S
C889 C426 1.421 . S
C891 C265 1.423 . S
C900 C225 1.418 . S
C902 C434 1.420 . S
C911 C446 1.417 . S
C913 C237 1.419 . S
C922 C459 1.413 . S
C924 C257 1.412 . S
C933 C303 1.409 . S
C935 C472 1.409 . S
C944 C484 1.424 . S
C946 C276 1.423 . S
C955 C296 1.414 . S
C957 C497 1.416 . S
C966 C213 1.426 . S
C968 C512 1.426 . S
C977 C525 1.428 . S
C979 C198 1.428 . S
C988 C166 1.417 . S
C990 C621 1.417 . S
C999 C588 1.420 . S
C1001 C173 1.418 . S
C1010 C185 1.421 . S
C1012 C608 1.419 . S
C1021 C120 1.417 . S
C1023 C537 1.415 . S
C1032 C135 1.425 . S
C1034 C549 1.425 . S
C1043 C147 1.411 . S
C1045 C569 1.411 . S
C1054 C575 1.428 . S
C1056 C109 1.428 . S
C1065 C316 1.418 . S
C1067 C95 1.418 . S
C1076 C369 1.422 . S
C1078 C16 1.422 . S
C1087 C381 1.414 . S
C1089 C36 1.414 . S
C1098 C395 1.422 . S
C1100 C42 1.422 . S
C1109 C407 1.417 . S
C1111 C4 1.417 . S
C1120 C75 1.421 . S
C1122 C342 1.421 . S
C1131 C354 1.420 . S
C1133 C83 1.420 . S
C1142 C328 1.421 . S
C1144 C55 1.421 . S
C1153 C10 1.558 . S
C1155 C348 1.558 . S
C1164 C356 1.566 . S
C1166 C18 1.566 . S
C1175 C30 1.556 . S
C1177 C322 1.556 . S
C1186 C44 1.567 . S
C1188 C330 1.567 . S
C1197 C57 1.566 . S
C1199 C393 1.566 . S
C1208 C413 1.558 . S
C1210 C69 1.558 . S
C1219 C81 1.567 . S
C1221 C367 1.567 . S
C1230 C387 1.557 . S
C1232 C101 1.557 . S
C1241 C107 1.558 . S
C1243 C478 1.561 . S
C1252 C486 1.568 . S
C1254 C122 1.568 . S
C1263 C133 1.567 . S
C1265 C499 1.567 . S
C1274 C153 1.561 . S
C1276 C510 1.558 . S
C1285 C160 1.556 . S
C1287 C420 1.556 . S
C1296 C179 1.564 . S
C1298 C432 1.561 . S
C1307 C452 1.564 . S
C1309 C187 1.561 . S
C1318 C200 1.560 . S
C1320 C465 1.563 . S
C1329 C563 1.564 . S
C1331 C211 1.561 . S
C1340 C231 1.564 . S
C1342 C590 1.561 . S
C1351 C239 1.561 . S
C1353 C602 1.563 . S
C1362 C523 1.561 . S
C1364 C251 1.564 . S
C1373 C615 1.566 . S
C1375 C263 1.563 . S
C1384 C278 1.558 . S
C1386 C543 1.561 . S
C1395 C551 1.559 . S
C1397 C290 1.561 . S
C1406 C309 1.564 . S
C1408 C577 1.561 . S
C1417 C556 1.557 . S
C1419 C264 1.557 . S
C1428 C226 1.568 . S
C1430 C562 1.568 . S
C1439 C582 1.556 . S
C1441 C244 1.557 . S
C1450 C538 1.566 . S
C1452 C250 1.566 . S
C1461 C601 1.566 . S
C1463 C304 1.566 . S
C1472 C283 1.559 . S
C1474 C524 1.559 . S
C1483 C614 1.565 . S
C1485 C289 1.566 . S
C1494 C212 1.558 . S
C1496 C595 1.558 . S
C1505 C433 1.553 . S
C1507 C205 1.553 . S
C1516 C159 1.569 . S
C1518 C447 1.568 . S
C1527 C174 1.570 . S
C1529 C460 1.570 . S
C1538 C419 1.559 . S
C1540 C192 1.562 . S
C1549 C127 1.557 . S
C1551 C511 1.556 . S
C1560 C473 1.561 . S
C1562 C134 1.564 . S
C1571 C148 1.563 . S
C1573 C491 1.565 . S
C1582 C108 1.555 . S
C1584 C504 1.556 . S
C1593 C361 1.563 . S
C1595 C96 1.560 . S
C1604 C23 1.564 . S
C1606 C382 1.561 . S
C1615 C29 1.562 . S
C1617 C394 1.564 . S
C1626 C408 1.562 . S
C1628 C49 1.566 . S
C1637 C5 1.563 . S
C1639 C368 1.566 . S
C1648 C68 1.557 . S
C1650 C335 1.561 . S
C1659 C82 1.560 . S
C1661 C343 1.557 . S
C1670 C62 1.566 . S
C1672 C317 1.563 . S
