# Generated by pormake.
# Topology umj, (4)-cn, num edge types: 1
# Building blocks:
#     Node 0, Type 0, BuildingBlock: NAWXER_clean_sbu_0, # of connection points: 4
#     Node 1, Type 0, BuildingBlock: NAWXER_clean_sbu_0, # of connection points: 4
#     Node 2, Type 0, BuildingBlock: NAWXER_clean_sbu_0, # of connection points: 4
#     Node 3, Type 0, BuildingBlock: NAWXER_clean_sbu_0, # of connection points: 4
#     Node 4, Type 0, BuildingBlock: NAWXER_clean_sbu_0, # of connection points: 4
#     Node 5, Type 0, BuildingBlock: NAWXER_clean_sbu_0, # of connection points: 4
#     Node 6, Type 0, BuildingBlock: NAWXER_clean_sbu_0, # of connection points: 4
#     Node 7, Type 0, BuildingBlock: NAWXER_clean_sbu_0, # of connection points: 4
#     Node 8, Type 0, BuildingBlock: NAWXER_clean_sbu_0, # of connection points: 4
#     Node 9, Type 0, BuildingBlock: NAWXER_clean_sbu_0, # of connection points: 4
#     Node 10, Type 0, BuildingBlock: NAWXER_clean_sbu_0, # of connection points: 4
#     Node 11, Type 0, BuildingBlock: NAWXER_clean_sbu_0, # of connection points: 4
#     Edge 12, Type (0, 0), BuildingBlock: EZIPEK_clean_linker_0, # of connection points: 2
#     Edge 13, Type (0, 0), BuildingBlock: EZIPEK_clean_linker_0, # of connection points: 2
#     Edge 14, Type (0, 0), BuildingBlock: EZIPEK_clean_linker_0, # of connection points: 2
#     Edge 15, Type (0, 0), BuildingBlock: EZIPEK_clean_linker_0, # of connection points: 2
#     Edge 16, Type (0, 0), BuildingBlock: EZIPEK_clean_linker_0, # of connection points: 2
#     Edge 17, Type (0, 0), BuildingBlock: EZIPEK_clean_linker_0, # of connection points: 2
#     Edge 18, Type (0, 0), BuildingBlock: EZIPEK_clean_linker_0, # of connection points: 2
#     Edge 19, Type (0, 0), BuildingBlock: EZIPEK_clean_linker_0, # of connection points: 2
#     Edge 20, Type (0, 0), BuildingBlock: EZIPEK_clean_linker_0, # of connection points: 2
#     Edge 21, Type (0, 0), BuildingBlock: EZIPEK_clean_linker_0, # of connection points: 2
#     Edge 22, Type (0, 0), BuildingBlock: EZIPEK_clean_linker_0, # of connection points: 2
#     Edge 23, Type (0, 0), BuildingBlock: EZIPEK_clean_linker_0, # of connection points: 2
#     Edge 24, Type (0, 0), BuildingBlock: EZIPEK_clean_linker_0, # of connection points: 2
#     Edge 25, Type (0, 0), BuildingBlock: EZIPEK_clean_linker_0, # of connection points: 2
#     Edge 26, Type (0, 0), BuildingBlock: EZIPEK_clean_linker_0, # of connection points: 2
#     Edge 27, Type (0, 0), BuildingBlock: EZIPEK_clean_linker_0, # of connection points: 2
#     Edge 28, Type (0, 0), BuildingBlock: EZIPEK_clean_linker_0, # of connection points: 2
#     Edge 29, Type (0, 0), BuildingBlock: EZIPEK_clean_linker_0, # of connection points: 2
#     Edge 30, Type (0, 0), BuildingBlock: EZIPEK_clean_linker_0, # of connection points: 2
#     Edge 31, Type (0, 0), BuildingBlock: EZIPEK_clean_linker_0, # of connection points: 2
#     Edge 32, Type (0, 0), BuildingBlock: EZIPEK_clean_linker_0, # of connection points: 2
#     Edge 33, Type (0, 0), BuildingBlock: EZIPEK_clean_linker_0, # of connection points: 2
#     Edge 34, Type (0, 0), BuildingBlock: EZIPEK_clean_linker_0, # of connection points: 2
#     Edge 35, Type (0, 0), BuildingBlock: EZIPEK_clean_linker_0, # of connection points: 2
# Relax obj value: 0.019
# Max RMSD: 0.124
# Mean RMSD: 0.123
data_MOF--net-umj--node1-NAWXER_clean_sbu_0--edge1-EZIPEK_clean_linker_0
_symmetry_space_group_name_H-M    P1
_symmetry_Int_Tables_number       1
_symmetry_cell_setting            triclinic
loop_
_symmetry_equiv_pos_as_xyz
'x, y, z'
_cell_length_a     21.371137
_cell_length_b     21.448489
_cell_length_c     61.178549
_cell_angle_alpha  89.61175
_cell_angle_beta   90.044523
_cell_angle_gamma 119.93993
loop_
_atom_site_label
_atom_site_type_symbol
_atom_site_fract_x
_atom_site_fract_y
_atom_site_fract_z
_atom_type_partial_charge
C0 C 0.07479 0.29444 0.14105 0.0
C1 C 0.19232 0.35534 0.06888 0.0
O2 O 0.14282 0.32783 0.13775 0.0
Zn3 Zn 0.1415 0.32833 0.10575 0.0
O4 O 0.03168 0.27353 0.12483 0.0
Zn5 Zn 0.03501 0.27184 0.09058 0.0
O6 O 0.99559 0.16849 0.08542 0.0
O7 O 0.10579 0.21943 0.09875 0.0
O8 O 0.12349 0.31766 0.06882 0.0
O9 O 0.22682 0.37491 0.08687 0.0
O10 O 0.09449 0.39267 0.09902 0.0
O11 O 0.98838 0.3279 0.08298 0.0
C12 C 0.05003 0.16353 0.09159 0.0
C13 C 0.03787 0.38792 0.09037 0.0
C14 C 0.80308 0.13016 0.39423 0.0
C15 C 0.77111 0.06534 0.47234 0.0
O16 O 0.82588 0.17587 0.40968 0.0
Zn17 Zn 0.79194 0.10526 0.43367 0.0
O18 O 0.77092 0.06286 0.39857 0.0
Zn19 Zn 0.73615 0.99108 0.42533 0.0
O20 O 0.63142 0.94298 0.42099 0.0
O21 O 0.67929 0.05798 0.4295 0.0
O22 O 0.74508 0.01205 0.45925 0.0
O23 O 0.80272 0.12947 0.4648 0.0
O24 O 0.86027 0.06061 0.43006 0.0
O25 O 0.79579 0.94551 0.42163 0.0
C26 C 0.62437 0.99766 0.4246 0.0
C27 C 0.85692 1.00095 0.42541 0.0
C28 C 0.73046 0.74831 0.80054 0.0
C29 C 0.66653 0.7878 0.72592 0.0
O30 O 0.69346 0.7784 0.79592 0.0
Zn31 Zn 0.69517 0.77239 0.76392 0.0
O32 O 0.75371 0.7255 0.78509 0.0
Zn33 Zn 0.74715 0.71539 0.75076 0.0
O34 O 0.85015 0.77192 0.74322 0.0
O35 O 0.8074 0.83845 0.75701 0.0
O36 O 0.70241 0.75476 0.72722 0.0
O37 O 0.65016 0.80862 0.74339 0.0
O38 O 0.62477 0.6622 0.75933 0.0
O39 O 0.68446 0.60986 0.74762 0.0
C40 C 0.8601 0.83305 0.74927 0.0
C41 C 0.62502 0.60541 0.75346 0.0
C42 C 0.0496 0.66191 0.09271 0.0
C43 C 0.04906 0.8916 0.08934 0.0
O44 O 0.10557 0.72315 0.08933 0.0
Zn45 Zn 0.0574 0.77987 0.0914 0.0
O46 O 0.98849 0.65716 0.09646 0.0
Zn47 Zn 0.94219 0.72465 0.09851 0.0
O48 O 0.8767 0.69188 0.07295 0.0
O49 O 0.99095 0.73937 0.06376 0.0
O50 O 0.98855 0.83688 0.09447 0.0
O51 O 0.10365 0.88394 0.08584 0.0
O52 O 0.0324 0.77225 0.12523 0.0
O53 O 0.91388 0.71335 0.12959 0.0
C54 C 0.92481 0.70926 0.05813 0.0
C55 C 0.97714 0.74622 0.1378 0.0
C56 C 0.13627 0.01953 0.42696 0.0
C57 C 0.36783 0.02134 0.42814 0.0
O58 O 0.19766 0.0741 0.42261 0.0
Zn59 Zn 0.25637 0.02903 0.42857 0.0
O60 O 0.13202 0.96075 0.43343 0.0
Zn61 Zn 0.20062 0.91749 0.43947 0.0
O62 O 0.19106 0.90006 0.47118 0.0
O63 O 0.24901 0.01612 0.46319 0.0
O64 O 0.31277 0.96259 0.4344 0.0
O65 O 0.36107 0.0757 0.42345 0.0
O66 O 0.21885 0.95158 0.4033 0.0
O67 O 0.16539 0.84173 0.41738 0.0
C68 C 0.22361 0.96531 0.47742 0.0
C69 C 0.18581 0.88342 0.4007 0.0
C70 C 0.32108 0.16133 0.73821 0.0
C71 C 0.25863 0.22391 0.80907 0.0
O72 O 0.33965 0.14773 0.75667 0.0
Zn73 Zn 0.28937 0.18549 0.77414 0.0
O74 O 0.28144 0.19026 0.73724 0.0
Zn75 Zn 0.23143 0.23142 0.75793 0.0
O76 O 0.28497 0.33225 0.74843 0.0
O77 O 0.3527 0.29583 0.76545 0.0
O78 O 0.23443 0.24234 0.79259 0.0
O79 O 0.29189 0.18924 0.80605 0.0
O80 O 0.18034 0.10853 0.76665 0.0
O81 O 0.12928 0.16491 0.75108 0.0
C82 C 0.34632 0.34505 0.75558 0.0
C83 C 0.12513 0.10659 0.75781 0.0
C84 C 0.64694 0.01149 0.61011 0.0
C85 C 0.86065 0.97961 0.61086 0.0
O86 O 0.70956 0.06025 0.61621 0.0
Zn87 Zn 0.75836 1.00471 0.61051 0.0
O88 O 0.63773 0.95159 0.60305 0.0
Zn89 Zn 0.69415 0.89589 0.59769 0.0
O90 O 0.64043 0.81684 0.61859 0.0
O91 O 0.70724 0.92215 0.63429 0.0
O92 O 0.80193 0.92456 0.6048 0.0
O93 O 0.86068 0.03759 0.6154 0.0
O94 O 0.75258 1.00114 0.57631 0.0
O95 O 0.69118 0.88844 0.56553 0.0
C96 C 0.66353 0.85439 0.63592 0.0
C97 C 0.72701 0.95543 0.5609 0.0
C98 C 0.85388 0.68434 0.96654 0.0
C99 C 0.80908 0.72988 0.89061 0.0
O100 O 0.87257 0.66287 0.94967 0.0
Zn101 Zn 0.83671 0.70525 0.92818 0.0
O102 O 0.82194 0.72097 0.96446 0.0
Zn103 Zn 0.78271 0.76184 0.93958 0.0
O104 O 0.67909 0.70652 0.94565 0.0
O105 O 0.72409 0.64001 0.93346 0.0
O106 O 0.78317 0.75312 0.90518 0.0
O107 O 0.84487 0.69963 0.89645 0.0
O108 O 0.90745 0.81589 0.93403 0.0
O109 O 0.84351 0.86599 0.94379 0.0
C110 C 0.67036 0.64541 0.94016 0.0
C111 C 0.90462 0.87177 0.93955 0.0
C112 C 0.11938 0.82773 0.30863 0.0
C113 C 0.05363 0.79631 0.22969 0.0
O114 O 0.16377 0.84167 0.29291 0.0
Zn115 Zn 0.09531 0.81797 0.26841 0.0
O116 O 0.05325 0.80496 0.30408 0.0
Zn117 Zn 0.98215 0.77092 0.27733 0.0
O118 O 0.9295 0.66637 0.28322 0.0
O119 O 0.0417 0.70603 0.27253 0.0
O120 O 1.00078 0.77521 0.24306 0.0
O121 O 0.11804 0.82507 0.23697 0.0
O122 O 0.05885 0.89371 0.27193 0.0
O123 O 0.9427 0.83517 0.28065 0.0
C124 C 0.98069 0.65425 0.27864 0.0
C125 C 1.00071 0.89411 0.27667 0.0
C126 C 0.30809 0.09668 0.64783 0.0
C127 C 0.27729 0.05511 0.56766 0.0
O128 O 0.32504 0.14704 0.63377 0.0
Zn129 Zn 0.29581 0.08669 0.60715 0.0
O130 O 0.28058 0.03209 0.64128 0.0
Zn131 Zn 0.24447 0.97003 0.61309 0.0
O132 O 0.30709 0.92779 0.61452 0.0
O133 O 0.36735 0.04568 0.60868 0.0
O134 O 0.25398 0.99934 0.57985 0.0
O135 O 0.30625 0.11756 0.57619 0.0
O136 O 0.18344 0.0356 0.61048 0.0
O137 O 0.13908 0.92031 0.61786 0.0
C138 C 0.36669 0.98636 0.61167 0.0
C139 C 0.12949 0.97389 0.61484 0.0
C140 C 0.24317 0.29696 0.89873 0.0
C141 C 0.23726 0.32851 0.97853 0.0
O142 O 0.21341 0.32868 0.908 0.0
Zn143 Zn 0.2341 0.31398 0.93825 0.0
O144 O 0.27371 0.26982 0.91025 0.0
Zn145 Zn 0.29314 0.25731 0.94358 0.0
O146 O 0.23509 0.15288 0.94798 0.0
O147 O 0.16701 0.20121 0.9412 0.0
O148 O 0.27125 0.297 0.97222 0.0
O149 O 0.20552 0.3469 0.96436 0.0
O150 O 0.34886 0.37996 0.93928 0.0
O151 O 0.39813 0.31134 0.94452 0.0
C152 C 0.17279 0.14573 0.94508 0.0
C153 C 0.40471 0.37337 0.94187 0.0
C154 C 0.95034 0.24868 0.22791 0.0
C155 C 0.85338 0.19277 0.30279 0.0
O156 O 0.88339 0.21353 0.23281 0.0
Zn157 Zn 0.89349 0.21739 0.26474 0.0
O158 O 0.99748 0.27354 0.24305 0.0
Zn159 Zn 1.00356 0.27998 0.27715 0.0
O160 O 0.05715 0.22932 0.28323 0.0
O161 O 0.94758 0.15801 0.27017 0.0
O162 O 0.92186 0.23205 0.30106 0.0
O163 O 0.81395 0.17014 0.28576 0.0
O164 O 0.92542 0.32558 0.27103 0.0
O165 O 0.0391 0.38284 0.28138 0.0
C166 C 1.00785 0.167 0.27727 0.0
C167 C 0.9814 0.38385 0.27671 0.0
C168 C 0.02505 0.33148 0.1974 0.0
C169 C 0.97657 0.26019 0.20495 0.0
C170 C 0.99316 0.21141 0.17062 0.0
C171 C 0.04344 0.28252 0.16338 0.0
N172 N 0.0943 0.41056 0.16743 0.0
N173 N 0.92551 0.13211 0.20067 0.0
C174 C 0.05641 0.34268 0.17619 0.0
C175 C 0.96282 0.20009 0.19197 0.0
N176 N 0.04301 0.38875 0.21081 0.0
N177 N 0.97261 0.15442 0.15688 0.0
H178 H 0.90257 0.12081 0.21624 0.0
H179 H 0.92248 0.08704 0.19333 0.0
H180 H 0.99524 0.15878 0.14152 0.0
H181 H 0.92905 0.10327 0.15994 0.0
H182 H 0.08568 0.44044 0.20781 0.0
H183 H 0.01807 0.38431 0.22578 0.0
H184 H 0.09758 0.45597 0.17458 0.0
H185 H 0.11767 0.42148 0.15191 0.0
C186 C 0.69124 0.00887 0.50465 0.0
C187 C 0.7622 0.04913 0.49613 0.0
C188 C 0.81079 0.03196 0.53058 0.0
C189 C 0.73899 0.98355 0.53801 0.0
N190 N 0.61024 0.92372 0.53162 0.0
N191 N 0.89036 0.0999 0.50046 0.0
C192 C 0.67902 0.97116 0.52486 0.0
C193 C 0.82232 0.06172 0.50907 0.0
N194 N 0.63586 0.00996 0.49381 0.0
N195 N 0.86818 0.04982 0.54413 0.0
H196 H 0.90109 0.12542 0.48525 0.0
H197 H 0.93607 0.10361 0.50776 0.0
H198 H 0.86365 0.02539 0.55923 0.0
H199 H 0.92028 0.0917 0.541 0.0
H200 H 0.58399 0.9888 0.5002 0.0
H201 H 0.64389 0.03914 0.47934 0.0
H202 H 0.56525 0.90579 0.52157 0.0
H203 H 0.59786 0.89877 0.54691 0.0
C204 C 0.73788 0.67605 0.83241 0.0
C205 C 0.75161 0.74338 0.82348 0.0
C206 C 0.80879 0.80287 0.85799 0.0
C207 C 0.79276 0.73514 0.86717 0.0
N208 N 0.72818 0.60561 0.86466 0.0
N209 N 0.81841 0.87283 0.82557 0.0
C210 C 0.75436 0.67141 0.85472 0.0
C211 C 0.7915 0.8073 0.83574 0.0
N212 N 0.71124 0.61641 0.8195 0.0
N213 N 0.83888 0.86313 0.87069 0.0
H214 H 0.80967 0.87888 0.80912 0.0
H215 H 0.85572 0.92133 0.83264 0.0
H216 H 0.85673 0.86429 0.88656 0.0
H217 H 0.84186 0.91134 0.86607 0.0
H218 H 0.71016 0.56912 0.82418 0.0
H219 H 0.69581 0.61507 0.80334 0.0
H220 H 0.69103 0.55731 0.85743 0.0
H221 H 0.73738 0.59887 0.881 0.0
C222 C 0.98088 0.6992 0.17537 0.0
C223 C 0.98965 0.75697 0.1618 0.0
C224 C 0.04872 0.842 0.19203 0.0
C225 C 0.03712 0.7838 0.20589 0.0
N226 N 0.98622 0.65617 0.21177 0.0
N227 N 0.02177 0.88111 0.15762 0.0
C228 C 1.00123 0.71211 0.19784 0.0
C229 C 0.02096 0.82785 0.17027 0.0
N230 N 0.95598 0.63256 0.16651 0.0
N231 N 0.0865 0.91084 0.1997 0.0
H232 H 1.00081 0.87215 0.14181 0.0
H233 H 0.03758 0.9326 0.16317 0.0
H234 H 0.10518 0.92289 0.21573 0.0
H235 H 0.10354 0.95648 0.18997 0.0
H236 H 0.95664 0.59007 0.17461 0.0
H237 H 0.93823 0.62056 0.15039 0.0
H238 H 0.95236 0.60234 0.20789 0.0
H239 H 1.00514 0.66357 0.2278 0.0
C240 C 0.21028 0.04127 0.53254 0.0
C241 C 0.26956 0.04329 0.54367 0.0
C242 C 0.28881 0.98145 0.51296 0.0
C243 C 0.23372 0.98483 0.501 0.0
N244 N 0.14419 0.02151 0.49856 0.0
N245 N 0.37372 0.02824 0.54303 0.0
C246 C 0.19536 0.01624 0.51054 0.0
C247 C 0.31133 0.0172 0.53339 0.0
N248 N 0.16634 0.06018 0.54338 0.0
N249 N 0.31824 0.94227 0.50512 0.0
H250 H 0.39201 0.05516 0.55785 0.0
H251 H 0.41063 0.01718 0.5354 0.0
H252 H 0.30247 0.91468 0.49036 0.0
H253 H 0.35335 0.93168 0.5141 0.0
H254 H 0.11728 0.05178 0.53727 0.0
H255 H 0.17718 0.08096 0.55917 0.0
H256 H 0.12021 0.05116 0.50342 0.0
H257 H 0.12759 0.99816 0.4832 0.0
C258 C 0.18395 0.22131 0.8415 0.0
C259 C 0.25267 0.2485 0.83133 0.0
C260 C 0.3097 0.32522 0.86325 0.0
C261 C 0.24306 0.28897 0.87465 0.0
N262 N 0.11725 0.19797 0.8755 0.0
N263 N 0.3819 0.32752 0.83234 0.0
C264 C 0.18006 0.2363 0.86395 0.0
C265 C 0.31588 0.30097 0.84216 0.0
N266 N 0.1223 0.18188 0.82973 0.0
N267 N 0.36648 0.38421 0.87247 0.0
H268 H 0.38844 0.31527 0.81634 0.0
H269 H 0.43062 0.3591 0.84037 0.0
H270 H 0.36266 0.4037 0.88771 0.0
H271 H 0.41469 0.4177 0.86432 0.0
H272 H 0.07095 0.16667 0.83567 0.0
H273 H 0.12268 0.17035 0.81326 0.0
H274 H 0.0721 0.15254 0.86941 0.0
H275 H 0.11176 0.20867 0.89177 0.0
C276 C 0.23251 0.41584 0.03243 0.0
C277 C 0.22849 0.36405 0.04767 0.0
C278 C 0.22928 0.28915 0.01803 0.0
C279 C 0.23587 0.34204 1.00241 0.0
N280 N 0.26752 0.46589 0.99595 0.0
N281 N 0.24526 0.26369 0.05563 0.0
C282 C 0.24466 0.40865 1.00993 0.0
C283 C 0.23548 0.30547 0.0406 0.0
N284 N 0.22263 0.47068 0.03938 0.0
N285 N 0.21148 0.22122 1.01171 0.0
H286 H 0.24903 0.27426 0.07235 0.0
H287 H 0.25727 0.22386 0.05134 0.0
H288 H 0.20225 0.20371 0.99565 0.0
H289 H 0.19791 0.17916 0.02276 0.0
H290 H 0.2162 0.50515 0.02871 0.0
H291 H 0.21718 0.47899 0.0559 0.0
H292 H 0.28034 0.51712 1.0011 0.0
H293 H 0.28161 0.46447 0.97973 0.0
C294 C 0.84985 0.12038 0.35815 0.0
C295 C 0.81702 0.1513 0.37088 0.0
C296 C 0.79759 0.20396 0.33761 0.0
C297 C 0.82488 0.16752 0.32499 0.0
N298 N 0.85888 0.07647 0.3227 0.0
N299 N 0.74762 0.21194 0.37243 0.0
C300 C 0.84477 0.12071 0.33515 0.0
C301 C 0.78739 0.19029 0.36056 0.0
N302 N 0.88905 0.09372 0.36805 0.0
N303 N 0.78354 0.25299 0.32778 0.0
H304 H 0.7394 0.20312 0.38923 0.0
H305 H 0.71848 0.23385 0.36535 0.0
H306 H 0.7878 0.26172 0.31091 0.0
H307 H 0.77143 0.2873 0.33645 0.0
H308 H 0.91965 0.07665 0.35938 0.0
H309 H 0.89764 0.09636 0.38489 0.0
H310 H 0.86679 0.03609 0.32937 0.0
H311 H 0.85496 0.07526 0.30568 0.0
C312 C 0.64692 0.86189 0.6966 0.0
C313 C 0.64316 0.79702 0.70369 0.0
C314 C 0.63556 0.75901 0.66552 0.0
C315 C 0.64023 0.8243 0.65845 0.0
N316 N 0.61422 0.91805 0.66787 0.0
N317 N 0.59854 0.67225 0.69506 0.0
C318 C 0.63371 0.86908 0.67425 0.0
C319 C 0.62569 0.74164 0.68816 0.0
N320 N 0.66737 0.91847 0.71043 0.0
N321 N 0.64469 0.71542 0.6513 0.0
H322 H 0.58611 0.6575 0.71146 0.0
H323 H 0.57995 0.62916 0.6843 0.0
H324 H 0.65327 0.72563 0.63462 0.0
H325 H 0.64927 0.67149 0.65652 0.0
H326 H 0.67779 0.96896 0.705 0.0
H327 H 0.67997 0.91754 0.7268 0.0
H328 H 0.60352 0.94822 0.67899 0.0
H329 H 0.59987 0.92113 0.65176 0.0
C330 C 0.95534 0.74975 0.01859 0.0
C331 C 0.90745 0.69769 0.03422 0.0
C332 C 0.82676 0.62856 1.00406 0.0
C333 C 0.8772 0.67802 0.98878 0.0
N334 N 0.99737 0.77423 0.98109 0.0
N335 N 0.8083 0.57666 0.04037 0.0
C336 C 0.94437 0.7342 0.99597 0.0
C337 C 0.84606 0.6338 0.02657 0.0
N338 N 1.00843 0.81646 0.02494 0.0
N339 N 0.75995 0.57734 0.99713 0.0
H340 H 0.82335 0.57594 0.05652 0.0
H341 H 0.76705 0.52691 0.03508 0.0
H342 H 0.7456 0.56998 0.98064 0.0
H343 H 0.7179 0.54534 1.00783 0.0
H344 H 0.038 0.8583 1.01392 0.0
H345 H 0.01852 0.83389 0.04099 0.0
H346 H 0.05019 0.81121 0.98555 0.0
H347 H 0.9906 0.76509 0.96431 0.0
C348 C 0.2103 0.88707 0.33971 0.0
C349 C 0.14043 0.83433 0.33236 0.0
C350 C 0.10004 0.80876 0.3708 0.0
C351 C 0.17114 0.85634 0.3779 0.0
N352 N 0.2978 0.92237 0.36891 0.0
N353 N 0.02669 0.72752 0.34272 0.0
C354 C 0.22755 0.88901 0.36224 0.0
C355 C 0.0878 0.78956 0.34841 0.0
N356 N 0.25864 0.9392 0.3259 0.0
N357 N 0.04303 0.78476 0.38495 0.0
H358 H 0.0148 0.70753 0.32695 0.0
H359 H 0.99146 0.69094 0.3543 0.0
H360 H 0.0485 0.79839 0.40142 0.0
H361 H 0.98948 0.75683 0.37974 0.0
H362 H 0.30746 0.98193 0.33131 0.0
H363 H 0.24703 0.94581 0.30984 0.0
H364 H 0.34106 0.94195 0.35799 0.0
H365 H 0.31199 0.92275 0.38526 0.0
C366 C 0.26393 0.06092 0.68684 0.0
C367 C 0.31836 0.10963 0.6719 0.0
C368 C 0.38836 0.1839 0.70296 0.0
C369 C 0.3339 0.13529 0.71741 0.0
N370 N 0.23347 0.01753 0.7242 0.0
N371 N 0.44258 0.2035 0.66693 0.0
C372 C 0.27678 0.07009 0.70962 0.0
C373 C 0.38387 0.16711 0.68029 0.0
N374 N 0.19778 0.00869 0.67964 0.0
N375 N 0.44338 0.24679 0.7109 0.0
H376 H 0.44274 0.19018 0.65059 0.0
H377 H 0.49338 0.24162 0.6726 0.0
H378 H 0.44934 0.25829 0.72758 0.0
H379 H 0.48085 0.28824 0.70095 0.0
H380 H 0.154 0.97937 0.69006 0.0
H381 H 0.18311 0.998 0.66336 0.0
H382 H 0.19485 0.96569 0.71957 0.0
H383 H 0.24175 0.02369 0.74105 0.0
C384 C 0.04098 0.55426 0.11138 0.0
C385 C 0.05189 0.59415 0.0918 0.0
C386 C 0.04796 0.49546 0.07056 0.0
C387 C 0.03197 0.45376 0.09 0.0
N388 N 1.00102 0.43762 0.12825 0.0
N389 N 0.05449 0.59948 0.05239 0.0
C390 C 0.02481 0.48155 0.11023 0.0
C391 C 0.05235 0.56391 0.07125 0.0
N392 N 0.0482 0.58681 0.1311 0.0
N393 N 0.06161 0.47083 0.05162 0.0
H394 H 0.05967 0.65049 0.05223 0.0
H395 H 0.04633 0.57656 0.03695 0.0
H396 H 0.05664 0.42006 0.05036 0.0
H397 H 0.08217 0.50229 0.03757 0.0
H398 H 0.04795 0.56317 0.14604 0.0
H399 H 0.06104 0.64039 0.13245 0.0
H400 H 0.98808 0.45223 0.14304 0.0
H401 H 0.98789 0.38379 0.12784 0.0
C402 C 0.53902 0.02893 0.40598 0.0
C403 C 0.5538 0.99466 0.42358 0.0
C404 C 0.45864 0.99607 0.4452 0.0
C405 C 0.438 0.0227 0.42692 0.0
N406 N 0.45269 0.05535 0.38862 0.0
N407 N 0.51796 0.93183 0.45806 0.0
C408 C 0.47676 0.03704 0.40692 0.0
C409 C 0.51023 0.97356 0.44255 0.0
N410 N 0.58502 0.05449 0.38848 0.0
N411 N 0.43157 0.99591 0.46542 0.0
H412 H 0.55557 0.91456 0.4566 0.0
H413 H 0.4827 0.90909 0.47125 0.0
H414 H 0.39715 0.01652 0.46811 0.0
H415 H 0.44989 0.98357 0.47969 0.0
H416 H 0.58245 0.08774 0.37646 0.0
H417 H 0.62839 0.04546 0.38663 0.0
H418 H 0.47388 0.05828 0.37308 0.0
H419 H 0.40794 0.06252 0.38862 0.0
C420 C 0.45556 0.4339 0.73458 0.0
C421 C 0.41195 0.41678 0.7536 0.0
C422 C 0.50996 0.51856 0.77299 0.0
C423 C 0.55453 0.5362 0.75391 0.0
N424 N 0.56651 0.51683 0.71563 0.0
N425 N 0.39448 0.4399 0.79078 0.0
C426 C 0.5266 0.4952 0.73448 0.0
C427 C 0.43818 0.45896 0.77269 0.0
N428 N 0.42951 0.38971 0.71684 0.0
N429 N 0.53634 0.55946 0.7914 0.0
H430 H 0.34031 0.39957 0.79054 0.0
H431 H 0.41064 0.46225 0.80619 0.0
H432 H 0.58984 0.59952 0.79314 0.0
H433 H 0.50594 0.55545 0.80512 0.0
H434 H 0.46024 0.39337 0.70322 0.0
H435 H 0.37675 0.34658 0.71605 0.0
H436 H 0.5467 0.49507 0.70033 0.0
H437 H 0.61896 0.56016 0.71476 0.0
C438 C 0.48338 0.02072 0.63057 0.0
C439 C 0.43735 0.98952 0.61223 0.0
C440 C 0.53892 0.99918 0.59119 0.0
C441 C 0.58223 0.02024 0.6103 0.0
N442 N 0.59548 0.04926 0.64869 0.0
N443 N 0.41844 0.941 0.57591 0.0
C444 C 0.55483 0.03149 0.63011 0.0
C445 C 0.46431 0.97627 0.59279 0.0
N446 N 0.45885 0.04057 0.64835 0.0
N447 N 0.5702 1.00338 0.57135 0.0
H448 H 0.36337 0.92377 0.57653 0.0
H449 H 0.43367 0.92348 0.56213 0.0
H450 H 0.62554 0.02294 0.56962 0.0
H451 H 0.54324 0.99525 0.55653 0.0
H452 H 0.4921 0.07202 0.66098 0.0
H453 H 0.40542 0.02863 0.64998 0.0
H454 H 0.57528 0.04923 0.66417 0.0
H455 H 0.64879 0.0604 0.64892 0.0
C456 C 0.51508 0.46614 0.92254 0.0
C457 C 0.47596 0.43978 0.9423 0.0
C458 C 0.56392 0.54974 0.96115 0.0
C459 C 0.5989 0.57886 0.94087 0.0
N460 N 0.59943 0.5709 0.90158 0.0
N461 N 0.45662 0.45898 0.97991 0.0
C462 C 0.57209 0.53865 0.92136 0.0
C463 C 0.4984 0.48243 0.96147 0.0
N464 N 0.49828 0.42154 0.90499 0.0
N465 N 0.59498 0.58444 0.98019 0.0
H466 H 0.41059 0.40826 0.98118 0.0
H467 H 0.46526 0.49135 0.99349 0.0
H468 H 0.64275 0.63387 0.98066 0.0
H469 H 0.57643 0.56172 0.9956 0.0
H470 H 0.52941 0.43549 0.8908 0.0
H471 H 0.45668 0.36804 0.90538 0.0
H472 H 0.57754 0.54668 0.88667 0.0
H473 H 0.6395 0.6248 0.90009 0.0
C474 C 0.01751 0.56863 0.29459 0.0
C475 C 0.97281 0.58144 0.28011 0.0
C476 C 0.93805 0.46711 0.26203 0.0
C477 C 0.97693 0.45112 0.27804 0.0
N478 N 0.03237 0.47821 0.31377 0.0
N479 N 0.88028 0.53619 0.25244 0.0
C480 C 0.01033 0.4993 0.29559 0.0
C481 C 0.92903 0.52805 0.26482 0.0
N482 N 0.0687 0.62279 0.307 0.0
N483 N 0.91374 0.42755 0.24333 0.0
H484 H 0.87468 0.5817 0.25304 0.0
H485 H 0.84133 0.49514 0.24287 0.0
H486 H 0.92049 0.38401 0.23977 0.0
H487 H 0.89321 0.44254 0.23013 0.0
H488 H 0.107 0.61717 0.31605 0.0
H489 H 0.07807 0.67517 0.30658 0.0
H490 H 0.05107 0.50963 0.32778 0.0
H491 H 0.02349 0.42617 0.31598 0.0
C492 C 0.02262 0.04866 0.07226 0.0
C493 C 0.05099 0.09428 0.09067 0.0
C494 C 0.09172 0.01338 0.10562 0.0
C495 C 0.05411 0.96333 0.08882 0.0
N496 N 0.96794 0.92683 0.05919 0.0
N497 N 0.10032 0.11073 0.12735 0.0
C498 C 0.01466 0.97886 0.07308 0.0
C499 C 0.08275 0.07445 0.10798 0.0
N500 N 1.00665 0.07279 0.05351 0.0
N501 N 0.13473 1.00202 0.11974 0.0
H502 H 0.09306 0.1542 0.13052 0.0
H503 H 0.11518 0.09298 0.14125 0.0
H504 H 0.13932 0.95588 0.11959 0.0
H505 H 0.17009 0.04097 0.13058 0.0
H506 H 0.99229 0.04357 0.03903 0.0
H507 H 0.01627 0.12516 0.05156 0.0
H508 H 0.93331 0.93415 0.04883 0.0
H509 H 0.9579 0.87416 0.05966 0.0
C510 C 0.97055 0.02595 0.44429 0.0
C511 C 0.92559 0.99886 0.42563 0.0
C512 C 0.02087 0.98656 0.40707 0.0
C513 C 0.06809 0.02141 0.4249 0.0
N514 N 0.09234 0.08707 0.45851 0.0
N515 N 0.91116 0.96137 0.38796 0.0
C516 C 0.04432 0.04532 0.44285 0.0
C517 C 0.95141 0.98093 0.40664 0.0
N518 N 0.9416 0.02947 0.46382 0.0
N519 N 0.04214 0.95811 0.39069 0.0
H520 H 0.85983 0.9556 0.38708 0.0
H521 H 0.93065 0.95587 0.37292 0.0
H522 H 0.09391 0.9648 0.38985 0.0
H523 H 1.00739 0.92467 0.37863 0.0
H524 H 0.97003 0.04149 0.47847 0.0
H525 H 0.88675 0.0119 0.46576 0.0
H526 H 0.07933 0.11185 0.47088 0.0
H527 H 0.14696 0.10242 0.45792 0.0
C528 C 0.02668 0.98944 0.77363 0.0
C529 C 0.05804 0.03527 0.7551 0.0
C530 C 0.96237 0.94416 0.73182 0.0
C531 C 0.93325 0.8977 0.75019 0.0
N532 N 0.94527 0.86922 0.78751 0.0
N533 N 0.06582 0.04843 0.71579 0.0
C534 C 0.96799 0.91831 0.77075 0.0
C535 C 0.02867 0.0105 0.73394 0.0
N536 N 0.05093 0.01481 0.79415 0.0
N537 N 0.92563 0.92579 0.71248 0.0
H538 H 0.11529 0.0961 0.71658 0.0
H539 H 0.05112 0.02926 0.69993 0.0
H540 H 0.87856 0.87652 0.71018 0.0
H541 H 0.9393 0.961 0.69924 0.0
H542 H 0.02463 0.98758 0.8084 0.0
H543 H 0.09427 0.06591 0.79707 0.0
H544 H 0.9726 0.87814 0.80228 0.0
H545 H 0.90261 0.81662 0.78592 0.0
C546 C 0.97301 1.00255 0.63105 0.0
C547 C 0.92748 0.97409 0.6126 0.0
C548 C 1.00616 0.92929 0.59881 0.0
C549 C 0.05685 0.96744 0.6155 0.0
N550 N 0.09431 0.05426 0.64484 0.0
N551 N 0.90835 0.9202 0.57668 0.0
C552 C 0.04207 0.00818 0.63083 0.0
C553 C 0.94561 0.93938 0.59595 0.0
N554 N 0.94946 0.02145 0.64925 0.0
N555 N 0.01659 0.88497 0.5852 0.0
H556 H 0.86498 0.9278 0.57326 0.0
H557 H 0.9249 0.90316 0.56308 0.0
H558 H 0.06233 0.87948 0.58568 0.0
H559 H 0.97712 0.84929 0.57452 0.0
H560 H 0.97831 0.03629 0.66385 0.0
H561 H 0.89761 0.01414 0.6507 0.0
H562 H 0.08806 0.09028 0.65468 0.0
H563 H 0.14635 0.06211 0.6451 0.0
C564 C 0.02627 0.96417 0.92416 0.0
C565 C 0.97356 0.94192 0.94116 0.0
C566 C 0.0507 0.055 0.96033 0.0
C567 C 0.10627 0.07375 0.94455 0.0
N568 N 0.15019 0.04203 0.91259 0.0
N569 N 0.94591 0.95838 0.97823 0.0
C570 C 0.09525 0.02665 0.92695 0.0
C571 C 0.98854 0.98518 0.96004 0.0
N572 N 1.00942 0.92813 0.90476 0.0
N573 N 0.05618 0.1041 0.97543 0.0
H574 H 0.90201 0.90624 0.97921 0.0
H575 H 0.95897 0.98494 0.99317 0.0
H576 H 0.10025 0.15594 0.97626 0.0
H577 H 0.01384 0.09557 0.98577 0.0
H578 H 0.04198 0.94713 0.89088 0.0
H579 H 0.96004 0.88249 0.90167 0.0
H580 H 0.14849 0.00528 0.90122 0.0
H581 H 0.19974 0.08965 0.91289 0.0
C582 C 0.01466 1.00142 0.29731 0.0
C583 C 1.00292 0.96438 0.27721 0.0
C584 C 0.01474 0.06954 0.25732 0.0
C585 C 0.01803 0.10328 0.27751 0.0
N586 N 0.01768 0.10115 0.31689 0.0
N587 N 0.98632 0.95971 0.23818 0.0
C588 C 0.01778 0.06949 0.29759 0.0
C589 C 1.00173 0.99766 0.25722 0.0
N590 N 0.02427 0.97205 0.31604 0.0
N591 N 0.02614 0.10741 0.23825 0.0
H592 H 0.97725 0.90724 0.23747 0.0
H593 H 0.97708 0.97778 0.22336 0.0
H594 H 0.03732 0.16066 0.23787 0.0
H595 H 0.03129 0.08897 0.22304 0.0
H596 H 0.04086 0.99931 0.33081 0.0
H597 H 0.02009 0.92147 0.31654 0.0
H598 H 1.00948 0.07602 0.33207 0.0
H599 H 0.02177 0.1516 0.3177 0.0
loop_
_geom_bond_atom_site_label_1
_geom_bond_atom_site_label_2
_geom_bond_distance
_geom_bond_site_symmetry_2
_ccdc_geom_bond_type
C0 O2 1.247 . S
C0 O4 1.258 1_455 S
C1 O8 1.247 . S
C1 O9 1.258 . S
O2 C0 1.247 . S
O2 Zn3 2.028 . S
Zn3 O2 2.028 . S
Zn3 O7 2.035 . S
Zn3 O9 2.035 . S
Zn3 O10 2.028 . S
O4 C0 1.258 1_655 S
O4 Zn5 2.035 . S
Zn5 O4 2.035 . S
Zn5 O6 2.028 . S
Zn5 O8 2.028 1_655 S
Zn5 O11 2.035 . S
O6 Zn5 2.028 . S
O6 C12 1.247 1_655 S
O7 Zn3 2.035 . S
O7 C12 1.258 . S
O8 C1 1.247 . S
O8 Zn5 2.028 1_455 S
O9 C1 1.258 . S
O9 Zn3 2.035 . S
O10 Zn3 2.028 . S
O10 C13 1.247 . S
O11 Zn5 2.035 . S
O11 C13 1.258 1_655 S
C12 O6 1.247 1_455 S
C12 O7 1.258 . S
C13 O10 1.247 . S
C13 O11 1.258 1_455 S
C14 O16 1.247 . S
C14 O18 1.258 . S
C15 O22 1.247 1_545 S
C15 O23 1.258 . S
O16 C14 1.247 . S
O16 Zn17 2.028 . S
Zn17 O16 2.028 . S
Zn17 O21 2.035 . S
Zn17 O23 2.035 . S
Zn17 O24 2.028 . S
O18 C14 1.258 . S
O18 Zn19 2.035 1_545 S
Zn19 O18 2.035 1_565 S
Zn19 O20 2.028 . S
Zn19 O22 2.028 . S
Zn19 O25 2.035 . S
O20 Zn19 2.028 . S
O20 C26 1.247 1_565 S
O21 Zn17 2.035 . S
O21 C26 1.258 . S
O22 C15 1.247 1_565 S
O22 Zn19 2.028 . S
O23 C15 1.258 . S
O23 Zn17 2.035 . S
O24 Zn17 2.028 . S
O24 C27 1.247 . S
O25 Zn19 2.035 . S
O25 C27 1.258 1_565 S
C26 O20 1.247 1_545 S
C26 O21 1.258 . S
C27 O24 1.247 . S
C27 O25 1.258 1_545 S
C28 O30 1.247 . S
C28 O32 1.258 . S
C29 O36 1.247 . S
C29 O37 1.258 . S
O30 C28 1.247 . S
O30 Zn31 2.028 . S
Zn31 O30 2.028 . S
Zn31 O35 2.035 . S
Zn31 O37 2.035 . S
Zn31 O38 2.028 . S
O32 C28 1.258 . S
O32 Zn33 2.035 . S
Zn33 O32 2.035 . S
Zn33 O34 2.028 . S
Zn33 O36 2.028 . S
Zn33 O39 2.035 . S
O34 Zn33 2.028 . S
O34 C40 1.247 . S
O35 Zn31 2.035 . S
O35 C40 1.258 . S
O36 C29 1.247 . S
O36 Zn33 2.028 . S
O37 C29 1.258 . S
O37 Zn31 2.035 . S
O38 Zn31 2.028 . S
O38 C41 1.247 . S
O39 Zn33 2.035 . S
O39 C41 1.258 . S
C40 O34 1.247 . S
C40 O35 1.258 . S
C41 O38 1.247 . S
C41 O39 1.258 . S
C42 O44 1.247 1_655 S
C42 O46 1.258 . S
C43 O50 1.247 . S
C43 O51 1.258 1_655 S
O44 C42 1.247 1_455 S
O44 Zn45 2.028 . S
Zn45 O44 2.028 . S
Zn45 O49 2.035 1_455 S
Zn45 O51 2.035 . S
Zn45 O52 2.028 . S
O46 C42 1.258 . S
O46 Zn47 2.035 . S
Zn47 O46 2.035 . S
Zn47 O48 2.028 . S
Zn47 O50 2.028 . S
Zn47 O53 2.035 . S
O48 Zn47 2.028 . S
O48 C54 1.247 . S
O49 Zn45 2.035 1_655 S
O49 C54 1.258 . S
O50 C43 1.247 . S
O50 Zn47 2.028 . S
O51 C43 1.258 1_455 S
O51 Zn45 2.035 . S
O52 Zn45 2.028 . S
O52 C55 1.247 1_455 S
O53 Zn47 2.035 . S
O53 C55 1.258 . S
C54 O48 1.247 . S
C54 O49 1.258 . S
C55 O52 1.247 1_655 S
C55 O53 1.258 . S
C56 O58 1.247 1_565 S
C56 O60 1.258 . S
C57 O64 1.247 . S
C57 O65 1.258 1_565 S
O58 C56 1.247 1_545 S
O58 Zn59 2.028 . S
Zn59 O58 2.028 . S
Zn59 O63 2.035 . S
Zn59 O65 2.035 . S
Zn59 O66 2.028 1_545 S
O60 C56 1.258 . S
O60 Zn61 2.035 . S
Zn61 O60 2.035 . S
Zn61 O62 2.028 . S
Zn61 O64 2.028 . S
Zn61 O67 2.035 . S
O62 Zn61 2.028 . S
O62 C68 1.247 . S
O63 Zn59 2.035 . S
O63 C68 1.258 1_545 S
O64 C57 1.247 . S
O64 Zn61 2.028 . S
O65 C57 1.258 1_545 S
O65 Zn59 2.035 . S
O66 Zn59 2.028 1_565 S
O66 C69 1.247 . S
O67 Zn61 2.035 . S
O67 C69 1.258 . S
C68 O62 1.247 . S
C68 O63 1.258 1_565 S
C69 O66 1.247 . S
C69 O67 1.258 . S
C70 O72 1.247 . S
C70 O74 1.258 . S
C71 O78 1.247 . S
C71 O79 1.258 . S
O72 C70 1.247 . S
O72 Zn73 2.028 . S
Zn73 O72 2.028 . S
Zn73 O77 2.035 . S
Zn73 O79 2.035 . S
Zn73 O80 2.028 . S
O74 C70 1.258 . S
O74 Zn75 2.035 . S
Zn75 O74 2.035 . S
Zn75 O76 2.028 . S
Zn75 O78 2.028 . S
Zn75 O81 2.035 . S
O76 Zn75 2.028 . S
O76 C82 1.247 . S
O77 Zn73 2.035 . S
O77 C82 1.258 . S
O78 C71 1.247 . S
O78 Zn75 2.028 . S
O79 C71 1.258 . S
O79 Zn73 2.035 . S
O80 Zn73 2.028 . S
O80 C83 1.247 . S
O81 Zn75 2.035 . S
O81 C83 1.258 . S
C82 O76 1.247 . S
C82 O77 1.258 . S
C83 O80 1.247 . S
C83 O81 1.258 . S
C84 O86 1.247 1_565 S
C84 O88 1.258 . S
C85 O92 1.247 . S
C85 O93 1.258 1_565 S
O86 C84 1.247 1_545 S
O86 Zn87 2.028 . S
Zn87 O86 2.028 . S
Zn87 O91 2.035 1_545 S
Zn87 O93 2.035 . S
Zn87 O94 2.028 . S
O88 C84 1.258 . S
O88 Zn89 2.035 . S
Zn89 O88 2.035 . S
Zn89 O90 2.028 . S
Zn89 O92 2.028 . S
Zn89 O95 2.035 . S
O90 Zn89 2.028 . S
O90 C96 1.247 . S
O91 Zn87 2.035 1_565 S
O91 C96 1.258 . S
O92 C85 1.247 . S
O92 Zn89 2.028 . S
O93 C85 1.258 1_545 S
O93 Zn87 2.035 . S
O94 Zn87 2.028 . S
O94 C97 1.247 1_545 S
O95 Zn89 2.035 . S
O95 C97 1.258 . S
C96 O90 1.247 . S
C96 O91 1.258 . S
C97 O94 1.247 1_565 S
C97 O95 1.258 . S
C98 O100 1.247 . S
C98 O102 1.258 . S
C99 O106 1.247 . S
C99 O107 1.258 . S
O100 C98 1.247 . S
O100 Zn101 2.028 . S
Zn101 O100 2.028 . S
Zn101 O105 2.035 . S
Zn101 O107 2.035 . S
Zn101 O108 2.028 . S
O102 C98 1.258 . S
O102 Zn103 2.035 . S
Zn103 O102 2.035 . S
Zn103 O104 2.028 . S
Zn103 O106 2.028 . S
Zn103 O109 2.035 . S
O104 Zn103 2.028 . S
O104 C110 1.247 . S
O105 Zn101 2.035 . S
O105 C110 1.258 . S
O106 C99 1.247 . S
O106 Zn103 2.028 . S
O107 C99 1.258 . S
O107 Zn101 2.035 . S
O108 Zn101 2.028 . S
O108 C111 1.247 . S
O109 Zn103 2.035 . S
O109 C111 1.258 . S
C110 O104 1.247 . S
C110 O105 1.258 . S
C111 O108 1.247 . S
C111 O109 1.258 . S
C112 O114 1.247 . S
C112 O116 1.258 . S
C113 O120 1.247 1_455 S
C113 O121 1.258 . S
O114 C112 1.247 . S
O114 Zn115 2.028 . S
Zn115 O114 2.028 . S
Zn115 O119 2.035 . S
Zn115 O121 2.035 . S
Zn115 O122 2.028 . S
O116 C112 1.258 . S
O116 Zn117 2.035 1_455 S
Zn117 O116 2.035 1_655 S
Zn117 O118 2.028 . S
Zn117 O120 2.028 . S
Zn117 O123 2.035 . S
O118 Zn117 2.028 . S
O118 C124 1.247 1_655 S
O119 Zn115 2.035 . S
O119 C124 1.258 . S
O120 C113 1.247 1_655 S
O120 Zn117 2.028 . S
O121 C113 1.258 . S
O121 Zn115 2.035 . S
O122 Zn115 2.028 . S
O122 C125 1.247 . S
O123 Zn117 2.035 . S
O123 C125 1.258 1_655 S
C124 O118 1.247 1_455 S
C124 O119 1.258 . S
C125 O122 1.247 . S
C125 O123 1.258 1_455 S
C126 O128 1.247 . S
C126 O130 1.258 . S
C127 O134 1.247 1_545 S
C127 O135 1.258 . S
O128 C126 1.247 . S
O128 Zn129 2.028 . S
Zn129 O128 2.028 . S
Zn129 O133 2.035 . S
Zn129 O135 2.035 . S
Zn129 O136 2.028 . S
O130 C126 1.258 . S
O130 Zn131 2.035 1_545 S
Zn131 O130 2.035 1_565 S
Zn131 O132 2.028 . S
Zn131 O134 2.028 . S
Zn131 O137 2.035 . S
O132 Zn131 2.028 . S
O132 C138 1.247 1_565 S
O133 Zn129 2.035 . S
O133 C138 1.258 . S
O134 C127 1.247 1_565 S
O134 Zn131 2.028 . S
O135 C127 1.258 . S
O135 Zn129 2.035 . S
O136 Zn129 2.028 . S
O136 C139 1.247 . S
O137 Zn131 2.035 . S
O137 C139 1.258 1_565 S
C138 O132 1.247 1_545 S
C138 O133 1.258 . S
C139 O136 1.247 . S
C139 O137 1.258 1_545 S
C140 O142 1.247 . S
C140 O144 1.258 . S
C141 O148 1.247 . S
C141 O149 1.258 . S
O142 C140 1.247 . S
O142 Zn143 2.028 . S
Zn143 O142 2.028 . S
Zn143 O147 2.035 . S
Zn143 O149 2.035 . S
Zn143 O150 2.028 . S
O144 C140 1.258 . S
O144 Zn145 2.035 . S
Zn145 O144 2.035 . S
Zn145 O146 2.028 . S
Zn145 O148 2.028 . S
Zn145 O151 2.035 . S
O146 Zn145 2.028 . S
O146 C152 1.247 . S
O147 Zn143 2.035 . S
O147 C152 1.258 . S
O148 C141 1.247 . S
O148 Zn145 2.028 . S
O149 C141 1.258 . S
O149 Zn143 2.035 . S
O150 Zn143 2.028 . S
O150 C153 1.247 . S
O151 Zn145 2.035 . S
O151 C153 1.258 . S
C152 O146 1.247 . S
C152 O147 1.258 . S
C153 O150 1.247 . S
C153 O151 1.258 . S
C154 O156 1.247 . S
C154 O158 1.258 1_655 S
C155 O162 1.247 . S
C155 O163 1.258 . S
O156 C154 1.247 . S
O156 Zn157 2.028 . S
Zn157 O156 2.028 . S
Zn157 O161 2.035 . S
Zn157 O163 2.035 . S
Zn157 O164 2.028 . S
O158 C154 1.258 1_455 S
O158 Zn159 2.035 . S
Zn159 O158 2.035 . S
Zn159 O160 2.028 . S
Zn159 O162 2.028 1_455 S
Zn159 O165 2.035 . S
O160 Zn159 2.028 . S
O160 C166 1.247 1_455 S
O161 Zn157 2.035 . S
O161 C166 1.258 . S
O162 C155 1.247 . S
O162 Zn159 2.028 1_655 S
O163 C155 1.258 . S
O163 Zn157 2.035 . S
O164 Zn157 2.028 . S
O164 C167 1.247 . S
O165 Zn159 2.035 . S
O165 C167 1.258 1_455 S
C166 O160 1.247 1_655 S
C166 O161 1.258 . S
C167 O164 1.247 . S
C167 O165 1.258 1_655 S
C168 C169 1.363 . S
C168 C174 1.379 . S
C168 N176 1.356 . S
C169 C168 1.363 . S
C169 C175 1.363 1_655 S
C170 C171 1.363 . S
C170 C175 1.379 . S
C170 N177 1.356 . S
C171 C170 1.363 . S
C171 C174 1.363 1_455 S
N172 C174 1.356 . S
N172 H184 0.984 . S
N172 H185 0.985 . S
N173 C175 1.356 . S
N173 H178 0.984 . S
N173 H179 0.985 . S
C174 C168 1.379 . S
C174 C171 1.363 1_655 S
C174 N172 1.356 . S
C175 C169 1.363 1_455 S
C175 C170 1.379 . S
C175 N173 1.356 . S
N176 C168 1.356 . S
N176 H182 0.984 . S
N176 H183 0.984 . S
N177 C170 1.356 . S
N177 H180 0.984 . S
N177 H181 0.985 . S
H178 N173 0.984 . S
H179 N173 0.985 . S
H180 N177 0.984 . S
H181 N177 0.985 . S
H182 N176 0.984 . S
H183 N176 0.984 . S
H184 N172 0.984 . S
H185 N172 0.985 . S
C186 C187 1.363 1_565 S
C186 C192 1.379 . S
C186 N194 1.356 . S
C187 C186 1.363 1_545 S
C187 C193 1.363 . S
C188 C189 1.363 1_545 S
C188 C193 1.379 . S
C188 N195 1.356 . S
C189 C188 1.363 1_565 S
C189 C192 1.363 . S
N190 C192 1.356 . S
N190 H202 0.984 . S
N190 H203 0.985 . S
N191 C193 1.356 . S
N191 H196 0.984 . S
N191 H197 0.985 . S
C192 C186 1.379 . S
C192 C189 1.363 . S
C192 N190 1.356 . S
C193 C187 1.363 . S
C193 C188 1.379 . S
C193 N191 1.356 . S
N194 C186 1.356 . S
N194 H200 0.984 . S
N194 H201 0.984 . S
N195 C188 1.356 . S
N195 H198 0.984 . S
N195 H199 0.985 . S
H196 N191 0.984 . S
H197 N191 0.985 . S
H198 N195 0.984 . S
H199 N195 0.985 . S
H200 N194 0.984 . S
H201 N194 0.984 . S
H202 N190 0.984 . S
H203 N190 0.985 . S
C204 C205 1.363 . S
C204 C210 1.379 . S
C204 N212 1.356 . S
C205 C204 1.363 . S
C205 C211 1.363 . S
C206 C207 1.363 . S
C206 C211 1.379 . S
C206 N213 1.356 . S
C207 C206 1.363 . S
C207 C210 1.363 . S
N208 C210 1.356 . S
N208 H220 0.984 . S
N208 H221 0.985 . S
N209 C211 1.356 . S
N209 H214 0.984 . S
N209 H215 0.985 . S
C210 C204 1.379 . S
C210 C207 1.363 . S
C210 N208 1.356 . S
C211 C205 1.363 . S
C211 C206 1.379 . S
C211 N209 1.356 . S
N212 C204 1.356 . S
N212 H218 0.984 . S
N212 H219 0.984 . S
N213 C206 1.356 . S
N213 H216 0.984 . S
N213 H217 0.985 . S
H214 N209 0.984 . S
H215 N209 0.985 . S
H216 N213 0.984 . S
H217 N213 0.985 . S
H218 N212 0.984 . S
H219 N212 0.984 . S
H220 N208 0.984 . S
H221 N208 0.985 . S
C222 C223 1.363 . S
C222 C228 1.379 . S
C222 N230 1.356 . S
C223 C222 1.363 . S
C223 C229 1.363 1_655 S
C224 C225 1.363 . S
C224 C229 1.379 . S
C224 N231 1.356 . S
C225 C224 1.363 . S
C225 C228 1.363 1_455 S
N226 C228 1.356 . S
N226 H238 0.984 . S
N226 H239 0.985 . S
N227 C229 1.356 . S
N227 H232 0.984 . S
N227 H233 0.985 . S
C228 C222 1.379 . S
C228 C225 1.363 1_655 S
C228 N226 1.356 . S
C229 C223 1.363 1_455 S
C229 C224 1.379 . S
C229 N227 1.356 . S
N230 C222 1.356 . S
N230 H236 0.984 . S
N230 H237 0.984 . S
N231 C224 1.356 . S
N231 H234 0.984 . S
N231 H235 0.985 . S
H232 N227 0.984 . S
H233 N227 0.985 . S
H234 N231 0.984 . S
H235 N231 0.985 . S
H236 N230 0.984 . S
H237 N230 0.984 . S
H238 N226 0.984 . S
H239 N226 0.985 . S
C240 C241 1.363 . S
C240 C246 1.379 . S
C240 N248 1.356 . S
C241 C240 1.363 . S
C241 C247 1.363 1_545 S
C242 C243 1.363 . S
C242 C247 1.379 . S
C242 N249 1.356 . S
C243 C242 1.363 . S
C243 C246 1.363 1_565 S
N244 C246 1.356 . S
N244 H256 0.984 . S
N244 H257 0.985 . S
N245 C247 1.356 . S
N245 H250 0.984 . S
N245 H251 0.985 . S
C246 C240 1.379 . S
C246 C243 1.363 1_545 S
C246 N244 1.356 . S
C247 C241 1.363 1_565 S
C247 C242 1.379 . S
C247 N245 1.356 . S
N248 C240 1.356 . S
N248 H254 0.984 . S
N248 H255 0.984 . S
N249 C242 1.356 . S
N249 H252 0.984 . S
N249 H253 0.985 . S
H250 N245 0.984 . S
H251 N245 0.985 . S
H252 N249 0.984 . S
H253 N249 0.985 . S
H254 N248 0.984 . S
H255 N248 0.984 . S
H256 N244 0.984 . S
H257 N244 0.985 . S
C258 C259 1.363 . S
C258 C264 1.379 . S
C258 N266 1.356 . S
C259 C258 1.363 . S
C259 C265 1.363 . S
C260 C261 1.363 . S
C260 C265 1.379 . S
C260 N267 1.356 . S
C261 C260 1.363 . S
C261 C264 1.363 . S
N262 C264 1.356 . S
N262 H274 0.984 . S
N262 H275 0.985 . S
N263 C265 1.356 . S
N263 H268 0.984 . S
N263 H269 0.985 . S
C264 C258 1.379 . S
C264 C261 1.363 . S
C264 N262 1.356 . S
C265 C259 1.363 . S
C265 C260 1.379 . S
C265 N263 1.356 . S
N266 C258 1.356 . S
N266 H272 0.984 . S
N266 H273 0.984 . S
N267 C260 1.356 . S
N267 H270 0.984 . S
N267 H271 0.985 . S
H268 N263 0.984 . S
H269 N263 0.985 . S
H270 N267 0.984 . S
H271 N267 0.985 . S
H272 N266 0.984 . S
H273 N266 0.984 . S
H274 N262 0.984 . S
H275 N262 0.985 . S
C276 C277 1.363 . S
C276 C282 1.379 1_554 S
C276 N284 1.356 . S
C277 C276 1.363 . S
C277 C283 1.363 . S
C278 C279 1.363 . S
C278 C283 1.379 1_556 S
C278 N285 1.356 . S
C279 C278 1.363 . S
C279 C282 1.363 . S
N280 C282 1.356 . S
N280 H292 0.984 . S
N280 H293 0.985 . S
N281 C283 1.356 . S
N281 H286 0.984 . S
N281 H287 0.985 . S
C282 C276 1.379 1_556 S
C282 C279 1.363 . S
C282 N280 1.356 . S
C283 C277 1.363 . S
C283 C278 1.379 1_554 S
C283 N281 1.356 . S
N284 C276 1.356 . S
N284 H290 0.984 . S
N284 H291 0.984 . S
N285 C278 1.356 . S
N285 H288 0.984 . S
N285 H289 0.985 . S
H286 N281 0.984 . S
H287 N281 0.985 . S
H288 N285 0.984 . S
H289 N285 0.985 . S
H290 N284 0.984 . S
H291 N284 0.984 . S
H292 N280 0.984 . S
H293 N280 0.985 . S
C294 C295 1.363 . S
C294 C300 1.379 . S
C294 N302 1.356 1_545 S
C295 C294 1.363 . S
C295 C301 1.363 . S
C296 C297 1.363 . S
C296 C301 1.379 . S
C296 N303 1.356 . S
C297 C296 1.363 . S
C297 C300 1.363 . S
N298 C300 1.356 . S
N298 H310 0.984 . S
N298 H311 0.985 . S
N299 C301 1.356 . S
N299 H304 0.984 . S
N299 H305 0.985 . S
C300 C294 1.379 . S
C300 C297 1.363 . S
C300 N298 1.356 . S
C301 C295 1.363 . S
C301 C296 1.379 . S
C301 N299 1.356 . S
N302 C294 1.356 1_565 S
N302 H308 0.984 . S
N302 H309 0.984 . S
N303 C296 1.356 . S
N303 H306 0.984 . S
N303 H307 0.985 . S
H304 N299 0.984 . S
H305 N299 0.985 . S
H306 N303 0.984 . S
H307 N303 0.985 . S
H308 N302 0.984 . S
H309 N302 0.984 . S
H310 N298 0.984 . S
H311 N298 0.985 . S
C312 C313 1.363 . S
C312 C318 1.379 . S
C312 N320 1.356 . S
C313 C312 1.363 . S
C313 C319 1.363 . S
C314 C315 1.363 . S
C314 C319 1.379 . S
C314 N321 1.356 . S
C315 C314 1.363 . S
C315 C318 1.363 . S
N316 C318 1.356 . S
N316 H328 0.984 1_565 S
N316 H329 0.985 . S
N317 C319 1.356 . S
N317 H322 0.984 . S
N317 H323 0.985 . S
C318 C312 1.379 . S
C318 C315 1.363 . S
C318 N316 1.356 . S
C319 C313 1.363 . S
C319 C314 1.379 . S
C319 N317 1.356 . S
N320 C312 1.356 . S
N320 H326 0.984 . S
N320 H327 0.984 . S
N321 C314 1.356 . S
N321 H324 0.984 . S
N321 H325 0.985 . S
H322 N317 0.984 . S
H323 N317 0.985 . S
H324 N321 0.984 . S
H325 N321 0.985 . S
H326 N320 0.984 . S
H327 N320 0.984 . S
H328 N316 0.984 1_545 S
H329 N316 0.985 . S
C330 C331 1.363 . S
C330 C336 1.379 1_554 S
C330 N338 1.356 . S
C331 C330 1.363 . S
C331 C337 1.363 . S
C332 C333 1.363 . S
C332 C337 1.379 1_556 S
C332 N339 1.356 . S
C333 C332 1.363 . S
C333 C336 1.363 . S
N334 C336 1.356 . S
N334 H346 0.984 . S
N334 H347 0.985 . S
N335 C337 1.356 . S
N335 H340 0.984 . S
N335 H341 0.985 . S
C336 C330 1.379 1_556 S
C336 C333 1.363 . S
C336 N334 1.356 . S
C337 C331 1.363 . S
C337 C332 1.379 1_554 S
C337 N335 1.356 . S
N338 C330 1.356 . S
N338 H344 0.984 . S
N338 H345 0.984 . S
N339 C332 1.356 . S
N339 H342 0.984 . S
N339 H343 0.985 . S
H340 N335 0.984 . S
H341 N335 0.985 . S
H342 N339 0.984 . S
H343 N339 0.985 . S
H344 N338 0.984 . S
H345 N338 0.984 . S
H346 N334 0.984 . S
H347 N334 0.985 . S
C348 C349 1.363 . S
C348 C354 1.379 . S
C348 N356 1.356 . S
C349 C348 1.363 . S
C349 C355 1.363 . S
C350 C351 1.363 . S
C350 C355 1.379 . S
C350 N357 1.356 . S
C351 C350 1.363 . S
C351 C354 1.363 . S
N352 C354 1.356 . S
N352 H364 0.984 1_565 S
N352 H365 0.985 . S
N353 C355 1.356 . S
N353 H358 0.984 1_455 S
N353 H359 0.985 1_455 S
C354 C348 1.379 . S
C354 C351 1.363 . S
C354 N352 1.356 . S
C355 C349 1.363 . S
C355 C350 1.379 . S
C355 N353 1.356 . S
N356 C348 1.356 . S
N356 H362 0.984 . S
N356 H363 0.984 . S
N357 C350 1.356 . S
N357 H360 0.984 . S
N357 H361 0.985 . S
H358 N353 0.984 1_655 S
H359 N353 0.985 1_655 S
H360 N357 0.984 . S
H361 N357 0.985 . S
H362 N356 0.984 . S
H363 N356 0.984 . S
H364 N352 0.984 1_545 S
H365 N352 0.985 . S
C366 C367 1.363 . S
C366 C372 1.379 . S
C366 N374 1.356 . S
C367 C366 1.363 . S
C367 C373 1.363 . S
C368 C369 1.363 . S
C368 C373 1.379 . S
C368 N375 1.356 . S
C369 C368 1.363 . S
C369 C372 1.363 . S
N370 C372 1.356 . S
N370 H382 0.984 . S
N370 H383 0.985 . S
N371 C373 1.356 . S
N371 H376 0.984 . S
N371 H377 0.985 . S
C372 C366 1.379 . S
C372 C369 1.363 . S
C372 N370 1.356 . S
C373 C367 1.363 . S
C373 C368 1.379 . S
C373 N371 1.356 . S
N374 C366 1.356 . S
N374 H380 0.984 1_545 S
N374 H381 0.984 . S
N375 C368 1.356 . S
N375 H378 0.984 . S
N375 H379 0.985 . S
H376 N371 0.984 . S
H377 N371 0.985 . S
H378 N375 0.984 . S
H379 N375 0.985 . S
H380 N374 0.984 1_565 S
H381 N374 0.984 . S
H382 N370 0.984 . S
H383 N370 0.985 . S
C384 C385 1.363 1_455 S
C384 C390 1.379 . S
C384 N392 1.356 . S
C385 C384 1.363 1_655 S
C385 C391 1.363 . S
C386 C387 1.363 1_655 S
C386 C391 1.379 . S
C386 N393 1.356 . S
C387 C386 1.363 1_455 S
C387 C390 1.363 . S
N388 C390 1.356 . S
N388 H400 0.984 . S
N388 H401 0.985 . S
N389 C391 1.356 . S
N389 H394 0.984 . S
N389 H395 0.985 . S
C390 C384 1.379 . S
C390 C387 1.363 . S
C390 N388 1.356 . S
C391 C385 1.363 . S
C391 C386 1.379 . S
C391 N389 1.356 . S
N392 C384 1.356 . S
N392 H398 0.984 . S
N392 H399 0.984 . S
N393 C386 1.356 . S
N393 H396 0.984 . S
N393 H397 0.985 . S
H394 N389 0.984 . S
H395 N389 0.985 . S
H396 N393 0.984 . S
H397 N393 0.985 . S
H398 N392 0.984 . S
H399 N392 0.984 . S
H400 N388 0.984 . S
H401 N388 0.985 . S
C402 C403 1.363 . S
C402 C408 1.379 . S
C402 N410 1.356 . S
C403 C402 1.363 . S
C403 C409 1.363 1_545 S
C404 C405 1.363 . S
C404 C409 1.379 . S
C404 N411 1.356 . S
C405 C404 1.363 . S
C405 C408 1.363 1_565 S
N406 C408 1.356 . S
N406 H418 0.984 . S
N406 H419 0.985 1_545 S
N407 C409 1.356 . S
N407 H412 0.984 . S
N407 H413 0.985 . S
C408 C402 1.379 . S
C408 C405 1.363 1_545 S
C408 N406 1.356 . S
C409 C403 1.363 1_565 S
C409 C404 1.379 . S
C409 N407 1.356 . S
N410 C402 1.356 . S
N410 H416 0.984 . S
N410 H417 0.984 . S
N411 C404 1.356 . S
N411 H414 0.984 . S
N411 H415 0.985 . S
H412 N407 0.984 . S
H413 N407 0.985 . S
H414 N411 0.984 . S
H415 N411 0.985 . S
H416 N410 0.984 . S
H417 N410 0.984 . S
H418 N406 0.984 . S
H419 N406 0.985 1_565 S
C420 C421 1.363 . S
C420 C426 1.379 . S
C420 N428 1.356 . S
C421 C420 1.363 . S
C421 C427 1.363 . S
C422 C423 1.363 . S
C422 C427 1.379 . S
C422 N429 1.356 . S
C423 C422 1.363 . S
C423 C426 1.363 . S
N424 C426 1.356 . S
N424 H436 0.984 . S
N424 H437 0.985 . S
N425 C427 1.356 . S
N425 H430 0.984 . S
N425 H431 0.985 . S
C426 C420 1.379 . S
C426 C423 1.363 . S
C426 N424 1.356 . S
C427 C421 1.363 . S
C427 C422 1.379 . S
C427 N425 1.356 . S
N428 C420 1.356 . S
N428 H434 0.984 . S
N428 H435 0.984 . S
N429 C422 1.356 . S
N429 H432 0.984 . S
N429 H433 0.985 . S
H430 N425 0.984 . S
H431 N425 0.985 . S
H432 N429 0.984 . S
H433 N429 0.985 . S
H434 N428 0.984 . S
H435 N428 0.984 . S
H436 N424 0.984 . S
H437 N424 0.985 . S
C438 C439 1.363 . S
C438 C444 1.379 . S
C438 N446 1.356 . S
C439 C438 1.363 . S
C439 C445 1.363 1_545 S
C440 C441 1.363 . S
C440 C445 1.379 . S
C440 N447 1.356 . S
C441 C440 1.363 . S
C441 C444 1.363 1_565 S
N442 C444 1.356 . S
N442 H454 0.984 . S
N442 H455 0.983 . S
N443 C445 1.356 . S
N443 H448 0.983 . S
N443 H449 0.985 . S
C444 C438 1.379 . S
C444 C441 1.363 1_545 S
C444 N442 1.356 . S
C445 C439 1.363 1_565 S
C445 C440 1.379 . S
C445 N443 1.356 . S
N446 C438 1.356 . S
N446 H452 0.984 . S
N446 H453 0.984 . S
N447 C440 1.356 . S
N447 H450 0.984 . S
N447 H451 0.985 . S
H448 N443 0.983 . S
H449 N443 0.985 . S
H450 N447 0.984 . S
H451 N447 0.985 . S
H452 N446 0.984 . S
H453 N446 0.984 . S
H454 N442 0.984 . S
H455 N442 0.983 . S
C456 C457 1.363 . S
C456 C462 1.379 . S
C456 N464 1.356 . S
C457 C456 1.363 . S
C457 C463 1.363 . S
C458 C459 1.363 . S
C458 C463 1.379 . S
C458 N465 1.356 . S
C459 C458 1.363 . S
C459 C462 1.363 . S
N460 C462 1.356 . S
N460 H472 0.984 . S
N460 H473 0.985 . S
N461 C463 1.356 . S
N461 H466 0.984 . S
N461 H467 0.985 . S
C462 C456 1.379 . S
C462 C459 1.363 . S
C462 N460 1.356 . S
C463 C457 1.363 . S
C463 C458 1.379 . S
C463 N461 1.356 . S
N464 C456 1.356 . S
N464 H470 0.984 . S
N464 H471 0.984 . S
N465 C458 1.356 . S
N465 H468 0.984 . S
N465 H469 0.985 . S
H466 N461 0.984 . S
H467 N461 0.985 . S
H468 N465 0.984 . S
H469 N465 0.985 . S
H470 N464 0.984 . S
H471 N464 0.984 . S
H472 N460 0.984 . S
H473 N460 0.985 . S
C474 C475 1.363 . S
C474 C480 1.379 . S
C474 N482 1.356 . S
C475 C474 1.363 . S
C475 C481 1.363 1_455 S
C476 C477 1.363 . S
C476 C481 1.379 . S
C476 N483 1.356 . S
C477 C476 1.363 . S
C477 C480 1.363 1_655 S
N478 C480 1.356 . S
N478 H490 0.984 . S
N478 H491 0.985 1_455 S
N479 C481 1.356 . S
N479 H484 0.985 . S
N479 H485 0.985 . S
C480 C474 1.379 . S
C480 C477 1.363 1_455 S
C480 N478 1.356 . S
C481 C475 1.363 1_655 S
C481 C476 1.379 . S
C481 N479 1.356 . S
N482 C474 1.356 . S
N482 H488 0.984 . S
N482 H489 0.984 . S
N483 C476 1.356 . S
N483 H486 0.984 . S
N483 H487 0.985 . S
H484 N479 0.985 . S
H485 N479 0.985 . S
H486 N483 0.984 . S
H487 N483 0.985 . S
H488 N482 0.984 . S
H489 N482 0.984 . S
H490 N478 0.984 . S
H491 N478 0.985 1_655 S
C492 C493 1.363 1_655 S
C492 C498 1.379 1_545 S
C492 N500 1.356 . S
C493 C492 1.363 1_455 S
C493 C499 1.363 . S
C494 C495 1.363 1_455 S
C494 C499 1.379 1_565 S
C494 N501 1.356 . S
C495 C494 1.363 1_655 S
C495 C498 1.363 . S
N496 C498 1.356 . S
N496 H508 0.984 . S
N496 H509 0.985 . S
N497 C499 1.356 . S
N497 H502 0.984 . S
N497 H503 0.985 . S
C498 C492 1.379 1_565 S
C498 C495 1.363 . S
C498 N496 1.356 . S
C499 C493 1.363 . S
C499 C494 1.379 1_545 S
C499 N497 1.356 . S
N500 C492 1.356 . S
N500 H506 0.984 . S
N500 H507 0.984 1_655 S
N501 C494 1.356 . S
N501 H504 0.984 1_455 S
N501 H505 0.985 . S
H502 N497 0.984 . S
H503 N497 0.985 . S
H504 N501 0.984 1_655 S
H505 N501 0.985 . S
H506 N500 0.984 . S
H507 N500 0.984 1_455 S
H508 N496 0.984 . S
H509 N496 0.985 . S
C510 C511 1.363 1_455 S
C510 C516 1.379 . S
C510 N518 1.356 1_455 S
C511 C510 1.363 1_655 S
C511 C517 1.363 1_545 S
C512 C513 1.363 1_655 S
C512 C517 1.379 . S
C512 N519 1.356 1_655 S
C513 C512 1.363 1_455 S
C513 C516 1.363 1_565 S
N514 C516 1.356 . S
N514 H526 0.984 . S
N514 H527 0.980 1_545 S
N515 C517 1.356 . S
N515 H520 0.982 1_565 S
N515 H521 0.985 . S
C516 C510 1.379 . S
C516 C513 1.363 1_545 S
C516 N514 1.356 . S
C517 C511 1.363 1_565 S
C517 C512 1.379 . S
C517 N515 1.356 . S
N518 C510 1.356 1_655 S
N518 H524 0.984 1_655 S
N518 H525 0.984 . S
N519 C512 1.356 1_455 S
N519 H522 0.984 . S
N519 H523 0.985 1_455 S
H520 N515 0.982 1_545 S
H521 N515 0.985 . S
H522 N519 0.984 . S
H523 N519 0.985 1_655 S
H524 N518 0.984 1_455 S
H525 N518 0.984 . S
H526 N514 0.984 . S
H527 N514 0.980 1_565 S
C528 C529 1.363 1_565 S
C528 C534 1.379 1_455 S
C528 N536 1.356 1_565 S
C529 C528 1.363 1_545 S
C529 C535 1.363 . S
C530 C531 1.363 1_545 S
C530 C535 1.379 1_655 S
C530 N537 1.356 1_545 S
C531 C530 1.363 1_565 S
C531 C534 1.363 . S
N532 C534 1.356 . S
N532 H544 0.984 . S
N532 H545 0.985 . S
N533 C535 1.356 . S
N533 H538 0.984 . S
N533 H539 0.985 . S
C534 C528 1.379 1_655 S
C534 C531 1.363 . S
C534 N532 1.356 . S
C535 C529 1.363 . S
C535 C530 1.379 1_455 S
C535 N533 1.356 . S
N536 C528 1.356 1_545 S
N536 H542 0.984 1_545 S
N536 H543 0.984 . S
N537 C530 1.356 1_565 S
N537 H540 0.984 . S
N537 H541 0.985 1_565 S
H538 N533 0.984 . S
H539 N533 0.985 . S
H540 N537 0.984 . S
H541 N537 0.985 1_545 S
H542 N536 0.984 1_565 S
H543 N536 0.984 . S
H544 N532 0.984 . S
H545 N532 0.985 . S
C546 C547 1.363 1_545 S
C546 C552 1.379 1_655 S
C546 N554 1.356 . S
C547 C546 1.363 1_565 S
C547 C553 1.363 . S
C548 C549 1.363 1_565 S
C548 C553 1.379 1_455 S
C548 N555 1.356 . S
C549 C548 1.363 1_545 S
C549 C552 1.363 . S
N550 C552 1.356 . S
N550 H562 0.984 . S
N550 H563 0.985 . S
N551 C553 1.356 . S
N551 H556 0.984 . S
N551 H557 0.985 . S
C552 C546 1.379 1_455 S
C552 C549 1.363 . S
C552 N550 1.356 . S
C553 C547 1.363 . S
C553 C548 1.379 1_655 S
C553 N551 1.356 . S
N554 C546 1.356 . S
N554 H560 0.984 . S
N554 H561 0.984 1_545 S
N555 C548 1.356 . S
N555 H558 0.984 1_565 S
N555 H559 0.985 . S
H556 N551 0.984 . S
H557 N551 0.985 . S
H558 N555 0.984 1_545 S
H559 N555 0.985 . S
H560 N554 0.984 . S
H561 N554 0.984 1_565 S
H562 N550 0.984 . S
H563 N550 0.985 . S
C564 C565 1.363 1_455 S
C564 C570 1.379 1_565 S
C564 N572 1.356 1_455 S
C565 C564 1.363 1_655 S
C565 C571 1.363 . S
C566 C567 1.363 1_655 S
C566 C571 1.379 1_545 S
C566 N573 1.356 1_655 S
C567 C566 1.363 1_455 S
C567 C570 1.363 . S
N568 C570 1.356 . S
N568 H580 0.984 . S
N568 H581 0.985 . S
N569 C571 1.356 . S
N569 H574 0.984 . S
N569 H575 0.985 . S
C570 C564 1.379 1_545 S
C570 C567 1.363 . S
C570 N568 1.356 . S
C571 C565 1.363 . S
C571 C566 1.379 1_565 S
C571 N569 1.356 . S
N572 C564 1.356 1_655 S
N572 H578 0.984 1_655 S
N572 H579 0.984 . S
N573 C566 1.356 1_455 S
N573 H576 0.984 . S
N573 H577 0.985 1_455 S
H574 N569 0.984 . S
H575 N569 0.985 . S
H576 N573 0.984 . S
H577 N573 0.985 1_655 S
H578 N572 0.984 1_455 S
H579 N572 0.984 . S
H580 N568 0.984 . S
H581 N568 0.985 . S
C582 C583 1.363 1_655 S
C582 C588 1.379 . S
C582 N590 1.356 . S
C583 C582 1.363 1_455 S
C583 C589 1.363 1_565 S
C584 C585 1.363 1_455 S
C584 C589 1.379 . S
C584 N591 1.356 . S
C585 C584 1.363 1_655 S
C585 C588 1.363 1_545 S
N586 C588 1.356 1_545 S
N586 H598 0.984 1_545 S
N586 H599 0.985 . S
N587 C589 1.356 1_565 S
N587 H592 0.984 . S
N587 H593 0.985 1_565 S
C588 C582 1.379 . S
C588 C585 1.363 1_565 S
C588 N586 1.356 1_565 S
C589 C583 1.363 1_545 S
C589 C584 1.379 . S
C589 N587 1.356 1_545 S
N590 C582 1.356 . S
N590 H596 0.984 . S
N590 H597 0.983 1_655 S
N591 C584 1.356 . S
N591 H594 0.980 1_455 S
N591 H595 0.985 . S
H592 N587 0.984 . S
H593 N587 0.985 1_545 S
H594 N591 0.980 1_655 S
H595 N591 0.985 . S
H596 N590 0.984 . S
H597 N590 0.983 1_455 S
H598 N586 0.984 1_565 S
H599 N586 0.985 . S
C169 C154 1.560 . S
C171 C0 1.560 . S
C187 C15 1.561 . S
C189 C97 1.561 . S
C205 C28 1.560 . S
C207 C99 1.561 . S
C223 C55 1.561 . S
C225 C113 1.561 . S
C241 C127 1.561 . S
C243 C68 1.560 . S
C259 C71 1.561 . S
C261 C140 1.560 . S
C277 C1 1.571 . S
C279 C141 1.571 . S
C295 C14 1.570 . S
C297 C155 1.571 . S
C313 C29 1.571 . S
C315 C96 1.570 . S
C331 C54 1.570 . S
C333 C98 1.570 . S
C349 C112 1.570 . S
C351 C69 1.571 . S
C367 C126 1.570 . S
C369 C70 1.570 . S
C385 C42 1.595 . S
C387 C13 1.597 . S
C403 C26 1.595 . S
C405 C57 1.597 . S
C421 C82 1.595 . S
C423 C41 1.597 . S
C439 C138 1.595 . S
C441 C84 1.595 . S
C457 C153 1.597 . S
C459 C110 1.595 . S
C475 C124 1.595 . S
C477 C167 1.597 . S
C493 C12 1.568 . S
C495 C43 1.570 . S
C511 C27 1.570 . S
C513 C56 1.569 . S
C529 C83 1.570 . S
C531 C40 1.569 . S
C547 C85 1.570 . S
C549 C139 1.570 . S
C565 C111 1.570 . S
C567 C152 1.569 . S
C583 C125 1.570 . S
C585 C166 1.568 . S
