# Generated by pormake.
# Topology vbc, (5)-cn, num edge types: 1
# Building blocks:
#     Node 0, Type 0, BuildingBlock: XOMCOT_clean_sbu_1, # of connection points: 5
#     Node 1, Type 0, BuildingBlock: XOMCOT_clean_sbu_1, # of connection points: 5
#     Node 2, Type 0, BuildingBlock: XOMCOT_clean_sbu_1, # of connection points: 5
#     Node 3, Type 0, BuildingBlock: XOMCOT_clean_sbu_1, # of connection points: 5
#     Node 4, Type 0, BuildingBlock: XOMCOT_clean_sbu_1, # of connection points: 5
#     Node 5, Type 0, BuildingBlock: XOMCOT_clean_sbu_1, # of connection points: 5
#     Node 6, Type 0, BuildingBlock: XOMCOT_clean_sbu_1, # of connection points: 5
#     Node 7, Type 0, BuildingBlock: XOMCOT_clean_sbu_1, # of connection points: 5
#     Node 8, Type 0, BuildingBlock: XOMCOT_clean_sbu_1, # of connection points: 5
#     Node 9, Type 0, BuildingBlock: XOMCOT_clean_sbu_1, # of connection points: 5
#     Node 10, Type 0, BuildingBlock: XOMCOT_clean_sbu_1, # of connection points: 5
#     Node 11, Type 0, BuildingBlock: XOMCOT_clean_sbu_1, # of connection points: 5
#     Node 12, Type 0, BuildingBlock: XOMCOT_clean_sbu_1, # of connection points: 5
#     Node 13, Type 0, BuildingBlock: XOMCOT_clean_sbu_1, # of connection points: 5
#     Node 14, Type 0, BuildingBlock: XOMCOT_clean_sbu_1, # of connection points: 5
#     Node 15, Type 0, BuildingBlock: XOMCOT_clean_sbu_1, # of connection points: 5
#     Node 16, Type 0, BuildingBlock: XOMCOT_clean_sbu_1, # of connection points: 5
#     Node 17, Type 0, BuildingBlock: XOMCOT_clean_sbu_1, # of connection points: 5
#     Node 18, Type 0, BuildingBlock: XOMCOT_clean_sbu_1, # of connection points: 5
#     Node 19, Type 0, BuildingBlock: XOMCOT_clean_sbu_1, # of connection points: 5
#     Node 20, Type 0, BuildingBlock: XOMCOT_clean_sbu_1, # of connection points: 5
#     Node 21, Type 0, BuildingBlock: XOMCOT_clean_sbu_1, # of connection points: 5
#     Node 22, Type 0, BuildingBlock: XOMCOT_clean_sbu_1, # of connection points: 5
#     Node 23, Type 0, BuildingBlock: XOMCOT_clean_sbu_1, # of connection points: 5
#     Node 24, Type 0, BuildingBlock: XOMCOT_clean_sbu_1, # of connection points: 5
#     Node 25, Type 0, BuildingBlock: XOMCOT_clean_sbu_1, # of connection points: 5
#     Node 26, Type 0, BuildingBlock: XOMCOT_clean_sbu_1, # of connection points: 5
#     Node 27, Type 0, BuildingBlock: XOMCOT_clean_sbu_1, # of connection points: 5
#     Node 28, Type 0, BuildingBlock: XOMCOT_clean_sbu_1, # of connection points: 5
#     Node 29, Type 0, BuildingBlock: XOMCOT_clean_sbu_1, # of connection points: 5
#     Node 30, Type 0, BuildingBlock: XOMCOT_clean_sbu_1, # of connection points: 5
#     Node 31, Type 0, BuildingBlock: XOMCOT_clean_sbu_1, # of connection points: 5
#     Edge 32, Type (0, 0), BuildingBlock: AJUNOK_clean_linker_0, # of connection points: 2
#     Edge 33, Type (0, 0), BuildingBlock: AJUNOK_clean_linker_0, # of connection points: 2
#     Edge 34, Type (0, 0), BuildingBlock: AJUNOK_clean_linker_0, # of connection points: 2
#     Edge 35, Type (0, 0), BuildingBlock: AJUNOK_clean_linker_0, # of connection points: 2
#     Edge 36, Type (0, 0), BuildingBlock: AJUNOK_clean_linker_0, # of connection points: 2
#     Edge 37, Type (0, 0), BuildingBlock: AJUNOK_clean_linker_0, # of connection points: 2
#     Edge 38, Type (0, 0), BuildingBlock: AJUNOK_clean_linker_0, # of connection points: 2
#     Edge 39, Type (0, 0), BuildingBlock: AJUNOK_clean_linker_0, # of connection points: 2
#     Edge 40, Type (0, 0), BuildingBlock: AJUNOK_clean_linker_0, # of connection points: 2
#     Edge 41, Type (0, 0), BuildingBlock: AJUNOK_clean_linker_0, # of connection points: 2
#     Edge 42, Type (0, 0), BuildingBlock: AJUNOK_clean_linker_0, # of connection points: 2
#     Edge 43, Type (0, 0), BuildingBlock: AJUNOK_clean_linker_0, # of connection points: 2
#     Edge 44, Type (0, 0), BuildingBlock: AJUNOK_clean_linker_0, # of connection points: 2
#     Edge 45, Type (0, 0), BuildingBlock: AJUNOK_clean_linker_0, # of connection points: 2
#     Edge 46, Type (0, 0), BuildingBlock: AJUNOK_clean_linker_0, # of connection points: 2
#     Edge 47, Type (0, 0), BuildingBlock: AJUNOK_clean_linker_0, # of connection points: 2
#     Edge 48, Type (0, 0), BuildingBlock: AJUNOK_clean_linker_0, # of connection points: 2
#     Edge 49, Type (0, 0), BuildingBlock: AJUNOK_clean_linker_0, # of connection points: 2
#     Edge 50, Type (0, 0), BuildingBlock: AJUNOK_clean_linker_0, # of connection points: 2
#     Edge 51, Type (0, 0), BuildingBlock: AJUNOK_clean_linker_0, # of connection points: 2
#     Edge 52, Type (0, 0), BuildingBlock: AJUNOK_clean_linker_0, # of connection points: 2
#     Edge 53, Type (0, 0), BuildingBlock: AJUNOK_clean_linker_0, # of connection points: 2
#     Edge 54, Type (0, 0), BuildingBlock: AJUNOK_clean_linker_0, # of connection points: 2
#     Edge 55, Type (0, 0), BuildingBlock: AJUNOK_clean_linker_0, # of connection points: 2
#     Edge 56, Type (0, 0), BuildingBlock: AJUNOK_clean_linker_0, # of connection points: 2
#     Edge 57, Type (0, 0), BuildingBlock: AJUNOK_clean_linker_0, # of connection points: 2
#     Edge 58, Type (0, 0), BuildingBlock: AJUNOK_clean_linker_0, # of connection points: 2
#     Edge 59, Type (0, 0), BuildingBlock: AJUNOK_clean_linker_0, # of connection points: 2
#     Edge 60, Type (0, 0), BuildingBlock: AJUNOK_clean_linker_0, # of connection points: 2
#     Edge 61, Type (0, 0), BuildingBlock: AJUNOK_clean_linker_0, # of connection points: 2
#     Edge 62, Type (0, 0), BuildingBlock: AJUNOK_clean_linker_0, # of connection points: 2
#     Edge 63, Type (0, 0), BuildingBlock: AJUNOK_clean_linker_0, # of connection points: 2
#     Edge 64, Type (0, 0), BuildingBlock: AJUNOK_clean_linker_0, # of connection points: 2
#     Edge 65, Type (0, 0), BuildingBlock: AJUNOK_clean_linker_0, # of connection points: 2
#     Edge 66, Type (0, 0), BuildingBlock: AJUNOK_clean_linker_0, # of connection points: 2
#     Edge 67, Type (0, 0), BuildingBlock: AJUNOK_clean_linker_0, # of connection points: 2
#     Edge 68, Type (0, 0), BuildingBlock: AJUNOK_clean_linker_0, # of connection points: 2
#     Edge 69, Type (0, 0), BuildingBlock: AJUNOK_clean_linker_0, # of connection points: 2
#     Edge 70, Type (0, 0), BuildingBlock: AJUNOK_clean_linker_0, # of connection points: 2
#     Edge 71, Type (0, 0), BuildingBlock: AJUNOK_clean_linker_0, # of connection points: 2
#     Edge 72, Type (0, 0), BuildingBlock: AJUNOK_clean_linker_0, # of connection points: 2
#     Edge 73, Type (0, 0), BuildingBlock: AJUNOK_clean_linker_0, # of connection points: 2
#     Edge 74, Type (0, 0), BuildingBlock: AJUNOK_clean_linker_0, # of connection points: 2
#     Edge 75, Type (0, 0), BuildingBlock: AJUNOK_clean_linker_0, # of connection points: 2
#     Edge 76, Type (0, 0), BuildingBlock: AJUNOK_clean_linker_0, # of connection points: 2
#     Edge 77, Type (0, 0), BuildingBlock: AJUNOK_clean_linker_0, # of connection points: 2
#     Edge 78, Type (0, 0), BuildingBlock: AJUNOK_clean_linker_0, # of connection points: 2
#     Edge 79, Type (0, 0), BuildingBlock: AJUNOK_clean_linker_0, # of connection points: 2
#     Edge 80, Type (0, 0), BuildingBlock: AJUNOK_clean_linker_0, # of connection points: 2
#     Edge 81, Type (0, 0), BuildingBlock: AJUNOK_clean_linker_0, # of connection points: 2
#     Edge 82, Type (0, 0), BuildingBlock: AJUNOK_clean_linker_0, # of connection points: 2
#     Edge 83, Type (0, 0), BuildingBlock: AJUNOK_clean_linker_0, # of connection points: 2
#     Edge 84, Type (0, 0), BuildingBlock: AJUNOK_clean_linker_0, # of connection points: 2
#     Edge 85, Type (0, 0), BuildingBlock: AJUNOK_clean_linker_0, # of connection points: 2
#     Edge 86, Type (0, 0), BuildingBlock: AJUNOK_clean_linker_0, # of connection points: 2
#     Edge 87, Type (0, 0), BuildingBlock: AJUNOK_clean_linker_0, # of connection points: 2
#     Edge 88, Type (0, 0), BuildingBlock: AJUNOK_clean_linker_0, # of connection points: 2
#     Edge 89, Type (0, 0), BuildingBlock: AJUNOK_clean_linker_0, # of connection points: 2
#     Edge 90, Type (0, 0), BuildingBlock: AJUNOK_clean_linker_0, # of connection points: 2
#     Edge 91, Type (0, 0), BuildingBlock: AJUNOK_clean_linker_0, # of connection points: 2
#     Edge 92, Type (0, 0), BuildingBlock: AJUNOK_clean_linker_0, # of connection points: 2
#     Edge 93, Type (0, 0), BuildingBlock: AJUNOK_clean_linker_0, # of connection points: 2
#     Edge 94, Type (0, 0), BuildingBlock: AJUNOK_clean_linker_0, # of connection points: 2
#     Edge 95, Type (0, 0), BuildingBlock: AJUNOK_clean_linker_0, # of connection points: 2
#     Edge 96, Type (0, 0), BuildingBlock: AJUNOK_clean_linker_0, # of connection points: 2
#     Edge 97, Type (0, 0), BuildingBlock: AJUNOK_clean_linker_0, # of connection points: 2
#     Edge 98, Type (0, 0), BuildingBlock: AJUNOK_clean_linker_0, # of connection points: 2
#     Edge 99, Type (0, 0), BuildingBlock: AJUNOK_clean_linker_0, # of connection points: 2
#     Edge 100, Type (0, 0), BuildingBlock: AJUNOK_clean_linker_0, # of connection points: 2
#     Edge 101, Type (0, 0), BuildingBlock: AJUNOK_clean_linker_0, # of connection points: 2
#     Edge 102, Type (0, 0), BuildingBlock: AJUNOK_clean_linker_0, # of connection points: 2
#     Edge 103, Type (0, 0), BuildingBlock: AJUNOK_clean_linker_0, # of connection points: 2
#     Edge 104, Type (0, 0), BuildingBlock: AJUNOK_clean_linker_0, # of connection points: 2
#     Edge 105, Type (0, 0), BuildingBlock: AJUNOK_clean_linker_0, # of connection points: 2
#     Edge 106, Type (0, 0), BuildingBlock: AJUNOK_clean_linker_0, # of connection points: 2
#     Edge 107, Type (0, 0), BuildingBlock: AJUNOK_clean_linker_0, # of connection points: 2
#     Edge 108, Type (0, 0), BuildingBlock: AJUNOK_clean_linker_0, # of connection points: 2
#     Edge 109, Type (0, 0), BuildingBlock: AJUNOK_clean_linker_0, # of connection points: 2
#     Edge 110, Type (0, 0), BuildingBlock: AJUNOK_clean_linker_0, # of connection points: 2
#     Edge 111, Type (0, 0), BuildingBlock: AJUNOK_clean_linker_0, # of connection points: 2
# Relax obj value: 0.137
# Max RMSD: 0.125
# Mean RMSD: 0.125
data_MOF--net-vbc--node1-XOMCOT_clean_sbu_1--edge1-AJUNOK_clean_linker_0
_symmetry_space_group_name_H-M    P1
_symmetry_Int_Tables_number       1
_symmetry_cell_setting            triclinic
loop_
_symmetry_equiv_pos_as_xyz
'x, y, z'
_cell_length_a     30.581712
_cell_length_b     75.101851
_cell_length_c     32.105355
_cell_angle_alpha  90.006742
_cell_angle_beta   90.021238
_cell_angle_gamma 89.985631
loop_
_atom_site_label
_atom_site_type_symbol
_atom_site_fract_x
_atom_site_fract_y
_atom_site_fract_z
_atom_type_partial_charge
C0 C 0.13286 0.04997 0.50753 0.0
C1 C 0.09844 0.04464 0.53239 0.0
N2 N 0.0846 0.02869 0.51847 0.0
N3 N 0.14011 0.03732 0.47851 0.0
C4 C 0.11035 0.02457 0.48608 0.0
H5 H 0.15198 0.062 0.51092 0.0
Co6 Co 0.18391 0.03523 0.43987 0.0
C7 C 0.12725 0.02615 0.3614 0.0
O8 O 0.15075 0.03833 0.34239 0.0
N9 N 0.22913 0.03222 0.4025 0.0
C10 C 0.28011 0.01719 0.36759 0.0
C11 C 0.23567 0.01978 0.37266 0.0
C12 C 0.2695 0.03666 0.4152 0.0
N13 N 0.30098 0.02799 0.39445 0.0
O14 O 0.21104 0.01443 0.47384 0.0
H15 H 0.21051 0.01142 0.35946 0.0
H16 H 0.27564 0.04422 0.44331 0.0
O17 O 0.13878 0.02178 0.39939 0.0
C18 C 0.23358 0.02063 0.50543 0.0
O19 O 0.22973 0.03774 0.51306 0.0
N20 N 0.167 0.05776 0.41564 0.0
C21 C 0.14921 0.09393 0.39857 0.0
C22 C 0.11522 0.08131 0.40087 0.0
C23 C 0.12477 0.06329 0.40947 0.0
C24 C 0.1999 0.07007 0.41387 0.0
C25 C 0.19192 0.08793 0.40469 0.0
H26 H 0.09804 0.05401 0.41332 0.0
H27 H 0.23266 0.06664 0.42246 0.0
H28 H 0.10873 0.01208 0.46933 0.0
H29 H 0.0849 0.05179 0.55867 0.0
H30 H 0.29561 1.00711 0.34851 0.0
H31 H 0.08148 0.08543 0.39731 0.0
H32 H 0.21903 0.09722 0.40523 0.0
C33 C 0.1467 0.21405 0.50204 0.0
C34 C 0.18251 0.21834 0.52613 0.0
N35 N 0.19582 0.23481 0.51535 0.0
N36 N 0.13807 0.22775 0.4762 0.0
C37 C 0.16812 0.24022 0.48535 0.0
H38 H 0.12782 0.20189 0.50359 0.0
Co39 Co 0.0933 0.23061 0.43849 0.0
C40 C 0.14823 0.24022 0.35943 0.0
O41 O 0.12448 0.22809 0.3405 0.0
N42 N 0.04714 0.23433 0.40223 0.0
C43 C 0.99597 0.24883 0.36622 0.0
C44 C 0.04045 0.24642 0.37164 0.0
C45 C 1.00677 0.23 0.41521 0.0
N46 N 0.97526 0.23826 0.39365 0.0
O47 O 0.06812 0.25124 0.47388 0.0
H48 H 0.06555 0.25455 0.35757 0.0
H49 H 1.00057 0.22246 0.44334 0.0
O50 O 0.13782 0.24423 0.39791 0.0
C51 C 0.04647 0.24485 0.50574 0.0
O52 O 0.04977 0.22765 0.51231 0.0
N53 N 0.10855 0.20815 0.41275 0.0
C54 C 0.12394 0.17155 0.39811 0.0
C55 C 0.15869 0.1839 0.39866 0.0
C56 C 0.15031 0.20214 0.40606 0.0
C57 C 0.07485 0.1962 0.41131 0.0
C58 C 0.08162 0.1782 0.40315 0.0
H59 H 0.17765 0.21117 0.40931 0.0
H60 H 0.0423 0.20002 0.41958 0.0
H61 H 0.16945 0.25314 0.47046 0.0
H62 H 0.19676 0.21021 0.55045 0.0
H63 H 0.98026 0.25846 0.34607 0.0
H64 H 0.19221 0.17942 0.39593 0.0
H65 H 0.05363 0.16937 0.40296 0.0
C66 C 0.12881 0.21523 0.84834 0.0
C67 C 0.09433 0.22049 0.82351 0.0
N68 N 0.08312 0.23721 0.83441 0.0
N69 N 0.13838 0.22852 0.87507 0.0
C70 C 0.11018 0.24168 0.86577 0.0
H71 H 0.14616 0.2027 0.84672 0.0
Co72 Co 0.18296 0.23056 0.91338 0.0
C73 C 0.12794 0.24015 0.9923 0.0
O74 O 0.15094 0.22768 1.01085 0.0
N75 N 0.22911 0.23353 0.95012 0.0
C76 C 0.2801 0.24845 0.98531 0.0
C77 C 0.23573 0.24565 0.98065 0.0
C78 C 0.26951 0.22939 0.93671 0.0
N79 N 0.30095 0.23822 0.95722 0.0
O80 O 0.20986 0.25106 0.87869 0.0
H81 H 0.21059 0.25369 0.9949 0.0
H82 H 0.27553 0.22176 0.90867 0.0
O83 O 0.13892 0.24441 0.9541 0.0
C84 C 0.23102 0.24456 0.84664 0.0
O85 O 0.22661 0.22742 0.8397 0.0
N86 N 0.1657 0.20828 0.93852 0.0
C87 C 0.14654 0.17211 0.95322 0.0
C88 C 0.11289 0.18481 0.95007 0.0
C89 C 0.12315 0.20287 0.94312 0.0
C90 C 0.19841 0.19594 0.94222 0.0
C91 C 0.18966 0.17804 0.95035 0.0
H92 H 0.09676 0.21226 0.9386 0.0
H93 H 0.23175 0.19938 0.93583 0.0
H94 H 0.1097 0.25436 0.88174 0.0
H95 H 0.07936 0.21282 0.79878 0.0
H96 H 0.29547 0.25826 1.00521 0.0
H97 H 0.07897 0.18071 0.95144 0.0
H98 H 0.21658 0.16866 0.95125 0.0
C99 C 0.15453 0.05076 0.84363 0.0
C100 C 0.19093 0.046 0.82095 0.0
N101 N 0.20242 0.02937 0.83228 0.0
N102 N 0.14374 0.03718 0.8691 0.0
C103 C 0.17314 0.02432 0.86116 0.0
H104 H 0.1368 0.06319 0.84143 0.0
Co105 Co 0.09796 0.03512 0.90568 0.0
C106 C 0.15138 0.02555 0.98676 0.0
O107 O 0.12738 0.03758 1.00541 0.0
N108 N 0.04963 0.03278 0.94296 0.0
C109 C 0.99281 0.04162 0.98159 0.0
C110 C 0.03739 0.04287 0.97604 0.0
C111 C 1.01216 0.02461 0.93157 0.0
N112 N 0.97716 0.03047 0.95256 0.0
O113 O 0.07406 0.01416 0.87001 0.0
H114 H 0.05765 0.05263 0.99143 0.0
H115 H 1.00856 0.01596 0.9052 0.0
O116 O 0.14133 0.02159 0.94817 0.0
C117 C 0.05325 0.02083 0.83784 0.0
O118 O 0.05646 0.03813 0.8329 0.0
N119 N 0.1127 0.05779 0.92839 0.0
C120 C 0.12386 0.09457 0.94251 0.0
C121 C 0.15826 0.0824 0.94975 0.0
C122 C 0.15217 0.06406 0.94209 0.0
C123 C 0.07997 0.06956 0.91948 0.0
C124 C 0.08426 0.08771 0.92753 0.0
H125 H 0.1797 0.05512 0.94506 0.0
H126 H 0.05006 0.0648 0.90534 0.0
H127 H 0.17298 0.01143 0.87624 0.0
H128 H 0.20692 0.05392 0.79729 0.0
H129 H 0.97302 0.05 1.00152 0.0
H130 H 0.19023 0.08704 0.95929 0.0
H131 H 0.05673 0.09635 0.92105 0.0
C132 C 0.89577 0.96512 0.59113 0.0
C133 C 0.93189 0.96932 0.56732 0.0
N134 N 0.94852 0.9847 0.58194 0.0
N135 N 0.88996 0.97795 0.62001 0.0
C136 C 0.92229 0.98973 0.61332 0.0
H137 H 0.87475 0.95365 0.58733 0.0
Co138 Co 0.84617 0.98064 0.65872 0.0
C139 C 0.90386 0.99034 0.73629 0.0
O140 O 0.88153 0.97794 0.75576 0.0
N141 N 0.80097 0.98412 0.69608 0.0
C142 C 0.751 0.9994 0.73169 0.0
C143 C 0.79524 0.99647 0.72624 0.0
C144 C 0.76026 0.97994 0.68374 0.0
N145 N 0.72938 0.989 0.70448 0.0
O146 O 0.8193 1.00118 0.62353 0.0
H147 H 0.82088 1.0045 0.73974 0.0
H148 H 0.75349 0.97209 0.65622 0.0
O149 O 0.89138 0.99456 0.69846 0.0
C150 C 0.7959 0.99457 0.59298 0.0
O151 O 0.79876 0.97729 0.58731 0.0
N152 N 0.86302 0.95837 0.6842 0.0
C153 C 0.8816 0.92215 0.69988 0.0
C154 C 0.91536 0.93486 0.69729 0.0
C155 C 0.90543 0.95286 0.68924 0.0
C156 C 0.83014 0.94609 0.6876 0.0
C157 C 0.83858 0.92818 0.69612 0.0
H158 H 0.93201 0.96215 0.68469 0.0
H159 H 0.79695 0.9496 0.68069 0.0
H160 H 0.92572 1.00215 0.63008 0.0
H161 H 0.94479 0.96181 0.54129 0.0
H162 H 0.73622 0.00935 0.75162 0.0
H163 H 0.94924 0.93082 0.69995 0.0
H164 H 0.81151 0.91888 0.69682 0.0
C165 C 0.88677 0.80261 0.59985 0.0
C166 C 0.85271 0.79791 0.57386 0.0
N167 N 0.84095 0.78109 0.58316 0.0
N168 N 0.89523 0.78885 0.62565 0.0
C169 C 0.86697 0.77602 0.6147 0.0
H170 H 0.90456 0.81505 0.59965 0.0
Co171 Co 0.93824 0.78549 0.66457 0.0
C172 C 0.88019 0.77565 0.74157 0.0
O173 O 0.90342 0.78768 0.7614 0.0
N174 N 0.98286 0.78123 0.70206 0.0
C175 C 0.03239 0.76579 0.73798 0.0
C176 C 0.98819 0.76883 0.73223 0.0
C177 C 0.02367 0.7852 0.68984 0.0
N178 N 0.05425 0.77618 0.71095 0.0
O179 O 0.96403 0.76496 0.62845 0.0
H180 H 0.9623 0.76092 0.74565 0.0
H181 H 0.03072 0.79304 0.66236 0.0
O182 O 0.89186 0.77176 0.70332 0.0
C183 C 0.98703 0.77151 0.59757 0.0
O184 O 0.98486 0.78884 0.59234 0.0
N185 N 0.92261 0.80782 0.69086 0.0
C186 C 0.90721 0.84454 0.7027 0.0
C187 C 0.87225 0.83236 0.70102 0.0
C188 C 0.88064 0.81403 0.695 0.0
C189 C 0.95653 0.81956 0.69495 0.0
C190 C 0.94963 0.83767 0.70176 0.0
H191 H 0.85331 0.80511 0.69036 0.0
H192 H 0.98961 0.81552 0.68968 0.0
H193 H 0.86575 0.7631 0.62954 0.0
H194 H 0.83841 0.806 0.5495 0.0
H195 H 0.047 0.75584 0.75802 0.0
H196 H 0.83878 0.83706 0.70164 0.0
H197 H 0.9777 0.84642 0.7038 0.0
C198 C 0.90037 0.80183 0.25489 0.0
C199 C 0.93632 0.79685 0.27792 0.0
N200 N 0.94774 0.78027 0.26615 0.0
N201 N 0.88986 0.78843 0.22877 0.0
C202 C 0.9189 0.77545 0.23666 0.0
H203 H 0.88281 0.81429 0.25723 0.0
Co204 Co 0.84489 0.78697 0.1914 0.0
C205 C 0.89608 0.77631 0.10986 0.0
O206 O 0.8716 0.78808 0.09075 0.0
N207 N 0.79738 0.78533 0.15327 0.0
C208 C 0.74092 0.79491 0.11556 0.0
C209 C 0.78505 0.79656 0.12243 0.0
C210 C 0.76063 0.77601 0.16147 0.0
N211 N 0.7254 0.78217 0.14105 0.0
O212 O 0.81901 0.76616 0.22623 0.0
H213 H 0.80509 0.80694 0.1091 0.0
H214 H 0.75809 0.76576 0.18464 0.0
O215 O 0.88756 0.7731 0.14916 0.0
C216 C 0.79696 0.77264 0.25783 0.0
O217 O 0.7998 0.78991 0.26361 0.0
N218 N 0.86213 0.80938 0.16932 0.0
C219 C 0.87874 0.84568 0.15649 0.0
C220 C 0.91106 0.83285 0.14804 0.0
C221 C 0.9022 0.81466 0.15494 0.0
C222 C 0.83153 0.82191 0.17953 0.0
C223 C 0.83859 0.83997 0.17222 0.0
H224 H 0.92817 0.80506 0.15096 0.0
H225 H 0.80134 0.81779 0.19422 0.0
H226 H 0.91885 0.76266 0.22111 0.0
H227 H 0.95212 0.80459 0.30206 0.0
H228 H 0.72146 0.80399 0.09714 0.0
H229 H 0.94318 0.83689 0.13748 0.0
H230 H 0.81351 0.84951 0.18064 0.0
C231 C 0.87582 0.96774 0.25588 0.0
C232 C 0.83968 0.97277 0.27861 0.0
N233 N 0.82739 0.98908 0.2656 0.0
N234 N 0.88588 0.98092 0.22903 0.0
C235 C 0.85619 0.99376 0.23598 0.0
H236 H 0.89391 0.95544 0.25901 0.0
Co237 Co 0.93136 0.98266 0.19218 0.0
C238 C 0.87763 0.99179 0.11114 0.0
O239 O 0.90129 0.97951 0.09299 0.0
N240 N 0.97945 0.98466 0.15452 0.0
C241 C 0.03623 0.97542 0.11634 0.0
C242 C 0.99161 0.9743 0.12185 0.0
C243 C 0.01696 0.99286 0.16555 0.0
N244 N 0.05194 0.98676 0.14493 0.0
O245 O 0.95575 1.0038 0.22702 0.0
H246 H 0.97124 0.96447 0.10684 0.0
H247 H 0.02059 1.00169 0.19152 0.0
O248 O 0.88795 0.99603 0.14949 0.0
C249 C 0.97605 0.99752 0.25992 0.0
O250 O 0.97222 0.98033 0.26654 0.0
N251 N 0.91603 0.95994 0.17039 0.0
C252 C 0.90333 0.92308 0.15911 0.0
C253 C 0.86914 0.93534 0.15179 0.0
C254 C 0.87605 0.95373 0.15795 0.0
C255 C 0.94864 0.94811 0.17923 0.0
C256 C 0.94361 0.92992 0.17244 0.0
H257 H 0.84872 0.96278 0.15508 0.0
H258 H 0.97899 0.95286 0.19254 0.0
H259 H 0.85672 1.00659 0.22065 0.0
H260 H 0.8238 0.96513 0.30287 0.0
H261 H 0.05596 0.96685 0.09681 0.0
H262 H 0.83674 0.93077 0.14352 0.0
H263 H 0.97104 0.92122 0.17883 0.0
C264 C 0.12585 0.5493 1.01472 0.0
C265 C 0.08997 0.54441 1.03803 0.0
N266 N 0.07439 0.52907 1.0222 0.0
N267 N 0.13258 0.53691 0.98497 0.0
C268 C 0.10097 0.52474 0.99053 0.0
H269 H 0.14617 0.56091 1.01953 0.0
Co270 Co 0.17672 0.53556 0.94664 0.0
C271 C 0.12173 0.52543 0.86663 0.0
O272 O 0.14373 0.53791 0.84725 0.0
N273 N 0.22325 0.53403 0.90743 0.0
C274 C 0.27846 0.54386 0.86839 0.0
C275 C 0.23426 0.54507 0.87577 0.0
C276 C 0.26072 0.52518 0.91549 0.0
N277 N 0.29518 0.53157 0.8944 0.0
O278 O 0.20365 0.51462 0.98072 0.0
H279 H 0.21333 0.55515 0.86242 0.0
H280 H 0.2645 0.51524 0.93919 0.0
O281 O 0.13316 0.52172 0.90502 0.0
C282 C 0.22676 0.52096 1.01185 0.0
O283 O 0.2243 0.53822 1.01795 0.0
N284 N 0.15901 0.55813 0.92537 0.0
C285 C 0.14312 0.59451 0.91131 0.0
C286 C 0.11012 0.58173 0.90463 0.0
C287 C 0.11854 0.56356 0.91238 0.0
C288 C 0.1903 0.57058 0.93412 0.0
C289 C 0.18361 0.58864 0.92612 0.0
H290 H 0.09215 0.55408 0.90963 0.0
H291 H 0.22093 0.56641 0.9479 0.0
H292 H 0.0984 0.51252 0.97282 0.0
H293 H 0.0766 0.55141 0.06461 0.0
H294 H 0.29721 0.55296 0.84935 0.0
H295 H 0.07786 0.58579 0.89445 0.0
H296 H 0.20939 0.59805 0.93323 0.0
C297 C 0.13947 0.71477 1.00134 0.0
C298 C 0.17361 0.71958 1.02711 0.0
N299 N 0.18593 0.73622 1.01678 0.0
N300 N 0.13154 0.72826 0.97461 0.0
C301 C 0.16015 0.74107 0.98488 0.0
H302 H 0.1212 0.70245 1.00236 0.0
Co303 Co 0.08828 0.73137 0.9357 0.0
C304 C 0.14605 0.74063 0.85824 0.0
O305 O 0.12292 0.72837 0.83912 0.0
N306 N 0.04335 0.73546 0.89856 0.0
C307 C 0.99337 0.75082 0.86309 0.0
C308 C 0.03765 0.74773 0.86819 0.0
C309 C 1.00272 0.7316 0.91155 0.0
N310 N 0.97188 0.74057 0.89069 0.0
O311 O 0.06276 0.75205 0.97125 0.0
H312 H 0.06342 0.7555 0.85414 0.0
H313 H 0.99611 0.72373 0.93911 0.0
O314 O 0.13437 0.7449 0.89627 0.0
C315 C 0.04099 0.74588 1.00332 0.0
O316 O 0.0435 0.72867 1.01008 0.0
N317 N 0.10396 0.7089 0.90965 0.0
C318 C 0.11893 0.67202 0.90013 0.0
C319 C 0.15408 0.68402 0.90389 0.0
C320 C 0.14592 0.70244 0.90825 0.0
C321 C 0.0701 0.69738 0.90253 0.0
C322 C 0.07692 0.6792 0.89671 0.0
H323 H 0.17319 0.71126 0.91411 0.0
H324 H 0.03677 0.70163 0.9043 0.0
H325 H 0.16172 0.75386 0.96941 0.0
H326 H 0.18751 0.71171 0.05206 0.0
H327 H 0.97847 0.76068 0.84297 0.0
H328 H 0.18733 0.67916 0.90612 0.0
H329 H 0.04881 0.67066 0.89201 0.0
C330 C 0.128 0.71427 0.34628 0.0
C331 C 0.09346 0.71952 0.3216 0.0
N332 N 0.08341 0.73644 0.33166 0.0
N333 N 0.13867 0.72781 0.37198 0.0
C334 C 0.11098 0.74105 0.36242 0.0
H335 H 0.14484 0.70161 0.34498 0.0
Co336 Co 0.18401 0.72996 0.40891 0.0
C337 C 0.12935 0.73901 0.48978 0.0
O338 O 0.15211 0.72641 0.50784 0.0
N339 N 0.232 0.73238 0.44646 0.0
C340 C 0.28878 0.72377 0.48545 0.0
C341 C 0.24414 0.72254 0.47999 0.0
C342 C 0.26953 0.74033 0.43463 0.0
N343 N 0.3045 0.73461 0.45583 0.0
O344 O 0.20759 0.75115 0.37355 0.0
H345 H 0.2238 0.7129 0.49565 0.0
H346 H 0.27313 0.74864 0.40779 0.0
O347 O 0.14019 0.74331 0.45155 0.0
C348 C 0.22727 0.74513 0.34002 0.0
O349 O 0.22292 0.72804 0.33236 0.0
N350 N 0.16975 0.70718 0.431 0.0
C351 C 0.15849 0.67015 0.43901 0.0
C352 C 0.1239 0.68201 0.44767 0.0
C353 C 0.13 0.70054 0.4429 0.0
C354 C 0.2032 0.69573 0.42226 0.0
C355 C 0.19886 0.67743 0.42756 0.0
H356 H 0.10223 0.70933 0.44614 0.0
H357 H 0.2335 0.70084 0.40963 0.0
H358 H 0.11141 0.75392 0.37756 0.0
H359 H 0.07779 0.71175 0.29743 0.0
H360 H 0.30852 0.71556 0.50583 0.0
H361 H 0.09185 0.67699 0.45584 0.0
H362 H 0.22678 0.66899 0.42119 0.0
C363 C 0.15259 0.54765 0.34174 0.0
C364 C 0.18758 0.54185 0.31842 0.0
N365 N 0.19729 0.52515 0.33059 0.0
N366 N 0.1413 0.53467 0.36869 0.0
C367 C 0.16887 0.52116 0.36104 0.0
H368 H 0.1365 0.56043 0.33932 0.0
Co369 Co 0.09745 0.53405 0.4072 0.0
C370 C 0.15113 0.52382 0.4876 0.0
O371 O 0.12816 0.53603 0.50692 0.0
N372 N 0.05112 0.53327 0.44665 0.0
C373 C 0.99615 0.5443 0.48421 0.0
C374 C 0.04045 0.54494 0.47719 0.0
C375 C 1.01326 0.52466 0.43901 0.0
N376 N 0.97899 0.53177 0.45911 0.0
O377 O 0.06944 0.5131 0.37406 0.0
H378 H 0.06178 0.55505 0.48982 0.0
H379 H 1.00916 0.5144 0.41607 0.0
O380 O 0.14067 0.52024 0.44893 0.0
C381 C 0.04759 0.51946 0.34218 0.0
O382 O 0.0512 0.53665 0.33555 0.0
N383 N 0.11642 0.55654 0.42753 0.0
C384 C 0.13404 0.59282 0.43924 0.0
C385 C 0.16618 0.5799 0.44766 0.0
C386 C 0.15683 0.56173 0.44121 0.0
C387 C 0.08603 0.56914 0.41722 0.0
C388 C 0.09363 0.58721 0.42392 0.0
H389 H 0.18263 0.55204 0.44512 0.0
H390 H 0.05551 0.56507 0.40308 0.0
H391 H 0.16842 0.5087 0.37794 0.0
H392 H 0.20436 0.54922 0.29426 0.0
H393 H 0.97777 0.55393 0.50214 0.0
H394 H 0.19853 0.58388 0.45774 0.0
H395 H 0.06873 0.59681 0.41543 0.0
C396 C 0.88978 0.46392 0.09678 0.0
C397 C 0.92456 0.46869 0.07178 0.0
N398 N 0.93928 0.4846 0.08507 0.0
N399 N 0.88324 0.47688 0.1252 0.0
C400 C 0.91368 0.48927 0.11712 0.0
H401 H 0.86999 0.45204 0.09395 0.0
Co402 Co 0.83988 0.4797 0.16381 0.0
C403 C 0.89692 0.48958 0.24158 0.0
O404 O 0.87347 0.47758 0.26126 0.0
N405 N 0.79503 0.48337 0.20102 0.0
C406 C 0.7441 0.49914 0.23409 0.0
C407 C 0.78853 0.49629 0.2297 0.0
C408 C 0.75474 0.47887 0.18834 0.0
N409 N 0.72328 0.488 0.20796 0.0
O410 O 0.81326 0.50025 0.12837 0.0
H411 H 0.81378 0.50477 0.24234 0.0
H412 H 0.74877 0.47091 0.16081 0.0
O413 O 0.88539 0.49353 0.20333 0.0
C414 C 0.79093 0.49393 0.09677 0.0
O415 O 0.79365 0.47671 0.09026 0.0
N416 N 0.8565 0.45742 0.18951 0.0
C417 C 0.87467 0.42123 0.2061 0.0
C418 C 0.90858 0.43386 0.20325 0.0
C419 C 0.89883 0.45188 0.19497 0.0
C420 C 0.82357 0.44515 0.19251 0.0
C421 C 0.83178 0.42727 0.20136 0.0
H422 H 0.9255 0.46113 0.19045 0.0
H423 H 0.79054 0.4486 0.18496 0.0
H424 H 0.91599 0.50188 0.13327 0.0
H425 H 0.93778 0.4612 1.04587 0.0
H426 H 0.72863 0.50959 0.25207 0.0
H427 H 0.9424 0.42974 0.20592 0.0
H428 H 0.80464 0.418 0.20149 0.0
C429 C 0.87894 0.30061 0.09889 0.0
C430 C 0.84417 0.29559 0.07416 0.0
N431 N 0.83289 0.27881 0.08451 0.0
N432 N 0.88862 0.28711 0.125 0.0
C433 C 0.86018 0.27408 0.11547 0.0
H434 H 0.89639 0.31312 0.09763 0.0
Co435 Co 0.93319 0.28467 0.16307 0.0
C436 C 0.87782 0.27519 0.24195 0.0
O437 O 0.90108 0.28749 0.2608 0.0
N438 N 0.97916 0.28132 0.1998 0.0
C439 C 0.02973 0.26661 0.23608 0.0
C440 C 0.9854 0.26933 0.23071 0.0
C441 C 0.01971 0.28538 0.18676 0.0
N442 N 0.05086 0.27678 0.2081 0.0
O443 O 0.95914 0.26396 0.12832 0.0
H444 H 0.96008 0.26138 0.24493 0.0
H445 H 0.02619 0.29281 0.15854 0.0
O446 O 0.88867 0.27106 0.20365 0.0
C447 C 0.98072 0.27028 0.09634 0.0
O448 O 0.97706 0.28745 0.08939 0.0
N449 N 0.91722 0.30715 0.1881 0.0
C450 C 0.90122 0.34367 0.20316 0.0
C451 C 0.86671 0.33122 0.20263 0.0
C452 C 0.87537 0.31302 0.19492 0.0
C453 C 0.95069 0.3192 0.1892 0.0
C454 C 0.94363 0.33718 0.19752 0.0
H455 H 0.8482 0.30391 0.19177 0.0
H456 H 0.98325 0.31543 0.18069 0.0
H457 H 0.85966 0.2613 0.13101 0.0
H458 H 0.82903 0.30346 0.04986 0.0
H459 H 0.04495 0.25695 0.2565 0.0
H460 H 0.83313 0.33557 0.20573 0.0
H461 H 0.97144 0.34611 0.19755 0.0
C462 C 0.89613 0.30053 0.75311 0.0
C463 C 0.93168 0.2961 0.77744 0.0
N464 N 0.94522 0.2797 0.76618 0.0
N465 N 0.88795 0.28701 0.72657 0.0
C466 C 0.91794 0.27449 0.73564 0.0
H467 H 0.87713 0.31265 0.75493 0.0
Co468 Co 0.8435 0.28423 0.68831 0.0
C469 C 0.89924 0.27475 0.61001 0.0
O470 O 0.87588 0.28706 0.5913 0.0
N471 N 0.79751 0.28047 0.65168 0.0
C472 C 0.74712 0.26536 0.61612 0.0
C473 C 0.79142 0.26832 0.62112 0.0
C474 C 0.7569 0.28442 0.66482 0.0
N475 N 0.7258 0.27551 0.64405 0.0
O476 O 0.8176 0.26387 0.72403 0.0
H477 H 0.81694 0.26048 0.60682 0.0
H478 H 0.75047 0.29226 0.69244 0.0
O479 O 0.88825 0.27048 0.6482 0.0
C480 C 0.79516 0.27077 0.75482 0.0
O481 O 0.79885 0.28805 0.76006 0.0
N482 N 0.85959 0.30654 0.66214 0.0
C483 C 0.87565 0.3432 0.6507 0.0
C484 C 0.91046 0.331 0.65376 0.0
C485 C 0.90173 0.31268 0.65923 0.0
C486 C 0.82593 0.31827 0.6562 0.0
C487 C 0.83323 0.33634 0.64938 0.0
H488 H 0.92884 0.30371 0.6645 0.0
H489 H 0.79256 0.31427 0.65975 0.0
H490 H 0.9195 0.26167 0.72035 0.0
H491 H 0.94557 0.30405 0.80224 0.0
H492 H 0.73212 0.25561 0.5958 0.0
H493 H 0.94396 0.33565 0.65455 0.0
H494 H 0.80529 0.34506 0.64561 0.0
C495 C 0.87929 0.46359 0.7593 0.0
C496 C 0.84265 0.4675 0.78253 0.0
N497 N 0.82611 0.48293 0.7682 0.0
N498 N 0.88554 0.47669 0.73116 0.0
C499 C 0.85284 0.48829 0.73753 0.0
H500 H 0.90055 0.45219 0.76318 0.0
Co501 Co 0.9306 0.47949 0.69421 0.0
C502 C 0.87533 0.48977 0.61418 0.0
O503 O 0.89782 0.47753 0.59449 0.0
N504 N 0.97838 0.48241 0.65673 0.0
C505 C 0.03481 0.47393 0.6172 0.0
C506 C 0.99016 0.47288 0.62263 0.0
C507 C 0.01614 0.49014 0.66887 0.0
N508 N 0.05093 0.48441 0.64738 0.0
O509 O 0.95413 0.50032 0.73091 0.0
H510 H 0.96947 0.46355 0.60633 0.0
H511 H 0.01991 0.49846 0.69578 0.0
O512 O 0.88659 0.49337 0.65272 0.0
C513 C 0.97549 0.49374 0.76287 0.0
O514 O 0.97399 0.47636 0.76707 0.0
N515 N 0.91572 0.4571 0.67021 0.0
C516 C 0.90103 0.42066 0.65603 0.0
C517 C 0.86722 0.43319 0.65073 0.0
C518 C 0.87508 0.45137 0.65845 0.0
C519 C 0.94825 0.44492 0.6767 0.0
C520 C 0.94207 0.42683 0.66862 0.0
H521 H 0.84799 0.4606 0.65732 0.0
H522 H 0.97913 0.44923 0.68971 0.0
H523 H 0.84967 0.50085 0.72129 0.0
H524 H 0.82952 0.45982 0.80817 0.0
H525 H 0.05424 0.46586 0.59628 0.0
H526 H 0.83464 0.42889 0.64216 0.0
H527 H 0.96856 0.41759 0.67458 0.0
C528 C 0.62797 0.05183 1.00384 0.0
C529 C 0.5934 0.04632 1.02813 0.0
N530 N 0.58341 0.0295 1.01715 0.0
N531 N 0.63874 0.03854 0.97751 0.0
C532 C 0.61114 0.02518 0.98633 0.0
H533 H 0.64452 0.06453 1.0056 0.0
Co534 Co 0.68326 0.03699 0.93978 0.0
C535 C 0.6306 0.02653 0.85883 0.0
O536 O 0.65455 0.03839 0.83945 0.0
N537 N 0.73029 0.03519 0.9012 0.0
C538 C 0.78648 0.04492 0.86343 0.0
C539 C 0.74228 0.04638 0.87016 0.0
C540 C 0.76724 0.02604 0.90954 0.0
N541 N 0.80235 0.03234 0.88919 0.0
O542 O 0.70915 0.01613 0.97448 0.0
H543 H 0.72202 0.05669 0.85684 0.0
H544 H 0.77001 0.01588 0.93288 0.0
O545 O 0.63988 0.02327 0.89795 0.0
C546 C 0.73109 0.02263 1.00616 0.0
O547 O 0.72803 0.03989 1.01203 0.0
N548 N 0.66658 0.05951 0.91812 0.0
C549 C 0.65336 0.09622 0.90557 0.0
C550 C 0.6201 0.08375 0.89648 0.0
C551 C 0.62721 0.06541 0.90337 0.0
C552 C 0.69808 0.07153 0.92884 0.0
C553 C 0.69284 0.08967 0.92157 0.0
H554 H 0.60051 0.05618 0.89892 0.0
H555 H 0.72787 0.06692 0.9435 0.0
H556 H 0.61149 0.0125 0.97037 0.0
H557 H 0.57746 0.0539 0.05247 0.0
H558 H 0.80569 0.0541 0.84505 0.0
H559 H 0.58822 0.08813 0.88605 0.0
H560 H 0.71954 0.09853 0.92934 0.0
C561 C 0.64497 0.21605 1.00343 0.0
C562 C 0.68043 0.22048 1.02782 0.0
N563 N 0.69398 0.23686 1.01654 0.0
N564 N 0.63683 0.22955 0.97686 0.0
C565 C 0.66678 0.24208 0.98593 0.0
H566 H 0.62606 0.2039 1.00516 0.0
Co567 Co 0.59253 0.23194 0.93838 0.0
C568 C 0.64785 0.24098 0.85981 0.0
O569 O 0.62363 0.22882 0.84157 0.0
N570 N 0.54661 0.23515 0.90155 0.0
C571 C 0.49551 0.24985 0.86598 0.0
C572 C 0.53995 0.24733 0.87117 0.0
C573 C 0.50622 0.23074 0.91444 0.0
N574 N 0.47472 0.23936 0.89356 0.0
O575 O 0.56614 0.25252 0.97306 0.0
H576 H 0.56506 0.25551 0.85728 0.0
H577 H 0.5001 0.22296 0.94223 0.0
O578 O 0.63706 0.24563 0.89781 0.0
C579 C 0.5445 0.2461 1.00488 0.0
O580 O 0.54811 0.22891 1.01161 0.0
N581 N 0.60948 0.20964 0.91302 0.0
C582 C 0.62877 0.17361 0.89709 0.0
C583 C 0.6624 0.18625 0.90104 0.0
C584 C 0.65208 0.20424 0.90862 0.0
C585 C 0.57678 0.19735 0.9085 0.0
C586 C 0.58562 0.17951 0.89971 0.0
H587 H 0.67846 0.21358 0.91371 0.0
H588 H 0.54338 0.20075 0.91463 0.0
H589 H 0.6685 0.25487 0.97047 0.0
H590 H 0.69436 0.21251 0.05258 0.0
H591 H 0.47997 0.25959 0.846 0.0
H592 H 0.69633 0.18215 0.89988 0.0
H593 H 0.55874 0.17013 0.89815 0.0
C594 C 0.6274 0.21487 0.34769 0.0
C595 C 0.59278 0.22014 0.32304 0.0
N596 N 0.58228 0.237 0.33339 0.0
N597 N 0.63777 0.22831 0.37373 0.0
C598 C 0.60987 0.24155 0.36427 0.0
H599 H 0.6443 0.20223 0.34638 0.0
Co600 Co 0.6827 0.23036 0.41154 0.0
C601 C 0.62896 0.23978 0.49127 0.0
O602 O 0.65296 0.2276 0.50972 0.0
N603 N 0.72902 0.23328 0.44793 0.0
C604 C 0.78068 0.24804 0.48261 0.0
C605 C 0.73618 0.24562 0.47787 0.0
C606 C 0.76921 0.22872 0.43479 0.0
N607 N 0.80104 0.23726 0.45538 0.0
O608 O 0.70892 0.25112 0.3773 0.0
H609 H 0.71141 0.25405 0.49148 0.0
H610 H 0.77497 0.22118 0.40659 0.0
O611 O 0.63896 0.24396 0.4528 0.0
C612 C 0.73026 0.24489 0.34509 0.0
O613 O 0.72618 0.22778 0.33759 0.0
N614 N 0.66618 0.20791 0.43621 0.0
C615 C 0.64846 0.1718 0.45385 0.0
C616 C 0.61469 0.18456 0.45329 0.0
C617 C 0.6242 0.20255 0.44434 0.0
C618 C 0.69884 0.19547 0.43623 0.0
C619 C 0.69094 0.17763 0.44563 0.0
H620 H 0.59751 0.21193 0.44173 0.0
H621 H 0.73114 0.19883 0.42601 0.0
H622 H 0.60997 0.25433 0.3798 0.0
H623 H 0.57724 0.21238 0.29879 0.0
H624 H 0.79658 0.25799 0.50177 0.0
H625 H 0.5811 0.18058 0.45845 0.0
H626 H 0.71775 0.16823 0.44368 0.0
C627 C 0.64194 0.05268 0.34787 0.0
C628 C 0.67701 0.04856 0.32265 0.0
N629 N 0.69098 0.03212 0.333 0.0
N630 N 0.6346 0.03891 0.37389 0.0
C631 C 0.66468 0.02662 0.36392 0.0
H632 H 0.62284 0.06481 0.34715 0.0
Co633 Co 0.59118 0.03544 0.41233 0.0
C634 C 0.64848 0.0259 0.48986 0.0
O635 O 0.62435 0.03777 0.50919 0.0
N636 N 0.54618 0.03116 0.4492 0.0
C637 C 0.49569 0.01588 0.48417 0.0
C638 C 0.5401 0.01861 0.47884 0.0
C639 C 0.50568 0.03548 0.43671 0.0
N640 N 0.47453 0.02674 0.45766 0.0
O641 O 0.56589 0.01489 0.37624 0.0
H642 H 0.56561 0.01042 0.4921 0.0
H643 H 0.49921 0.04336 0.40915 0.0
O644 O 0.6372 0.02171 0.45168 0.0
C645 C 0.54349 0.02117 0.34463 0.0
O646 O 0.54613 0.03839 0.33806 0.0
N647 N 0.60647 0.05778 0.43885 0.0
C648 C 0.62212 0.09428 0.45449 0.0
C649 C 0.65694 0.08203 0.45173 0.0
C650 C 0.64843 0.06385 0.44392 0.0
C651 C 0.57267 0.06959 0.44279 0.0
C652 C 0.57965 0.08756 0.45136 0.0
H653 H 0.67573 0.05494 0.43902 0.0
H654 H 0.53969 0.06574 0.43632 0.0
H655 H 0.66641 0.01359 0.37825 0.0
H656 H 0.6912 0.05698 0.29888 0.0
H657 H 0.48038 1.00585 0.50351 0.0
H658 H 0.69051 0.08656 0.45301 0.0
H659 H 0.5516 0.09633 0.4534 0.0
C660 C 0.39861 0.9647 0.09333 0.0
C661 C 0.43408 0.96947 0.06943 0.0
N662 N 0.44658 0.98592 0.08118 0.0
N663 N 0.3895 0.97809 0.11996 0.0
C664 C 0.4189 0.99085 0.11156 0.0
H665 H 0.3803 0.95241 0.09113 0.0
Co666 Co 0.34524 0.97995 0.15795 0.0
C667 C 0.39864 0.98959 0.23868 0.0
O668 O 0.37435 0.97751 0.25681 0.0
N669 N 0.29835 0.98203 0.19677 0.0
C670 C 0.24192 0.97268 0.23481 0.0
C671 C 0.28602 0.97095 0.22791 0.0
C672 C 0.26167 0.9914 0.18853 0.0
N673 N 0.22642 0.98532 0.20902 0.0
O674 O 0.31982 1.0009 0.12324 0.0
H675 H 0.30584 0.96047 0.24112 0.0
H676 H 0.2591 1.00152 0.16507 0.0
O677 O 0.38931 0.99348 0.19987 0.0
C678 C 0.29725 0.99437 0.092 0.0
O679 O 0.29941 0.97704 0.08678 0.0
N680 N 0.3614 0.95732 0.17949 0.0
C681 C 0.37499 0.92049 0.18974 0.0
C682 C 0.40869 0.93285 0.19802 0.0
C683 C 0.40135 0.95125 0.19236 0.0
C684 C 0.32932 0.94541 0.16969 0.0
C685 C 0.33475 0.92721 0.17601 0.0
H686 H 0.42836 0.96041 0.1959 0.0
H687 H 0.29903 0.95012 0.15619 0.0
H688 H 0.41987 1.00359 0.1273 0.0
H689 H 0.44874 0.96171 1.0447 0.0
H690 H 0.2224 0.96363 0.25322 0.0
H691 H 0.44108 0.92837 0.20667 0.0
H692 H 0.30764 0.91844 0.16897 0.0
C693 C 0.37392 0.79961 0.09224 0.0
C694 C 0.33748 0.79497 0.0695 0.0
N695 N 0.32514 0.77851 0.0814 0.0
N696 N 0.3839 0.78613 0.1183 0.0
C697 C 0.354 0.77344 0.11066 0.0
H698 H 0.3922 0.81189 0.08974 0.0
Co699 Co 0.42938 0.78415 0.15524 0.0
C700 C 0.37639 0.77449 0.23631 0.0
O701 O 0.40137 0.7862 0.25487 0.0
N702 N 0.47764 0.78195 0.19279 0.0
C703 C 0.5344 0.79089 0.23144 0.0
C704 C 0.48989 0.7922 0.22561 0.0
C705 C 0.51513 0.77367 0.18179 0.0
N706 N 0.5501 0.77957 0.20281 0.0
O707 O 0.45371 0.76325 0.11971 0.0
H708 H 0.46969 0.80207 0.24069 0.0
H709 H 0.51876 0.76488 0.15566 0.0
O710 O 0.38579 0.7706 0.19753 0.0
C711 C 0.4747 0.76998 0.08774 0.0
O712 O 0.47174 0.78731 0.08312 0.0
N713 N 0.41375 0.80666 0.178 0.0
C714 C 0.39893 0.84305 0.19159 0.0
C715 C 0.36537 0.83054 0.19793 0.0
C716 C 0.37336 0.81233 0.19071 0.0
C717 C 0.44575 0.81889 0.16995 0.0
C718 C 0.43953 0.83698 0.17773 0.0
H719 H 0.34653 0.80302 0.19295 0.0
H720 H 0.4763 0.81457 0.15627 0.0
H721 H 0.35343 0.76066 0.12626 0.0
H722 H 0.32199 0.80286 1.04545 0.0
H723 H 0.55417 0.79934 0.25124 0.0
H724 H 0.33297 0.83488 0.20699 0.0
H725 H 0.46562 0.84629 0.17085 0.0
C726 C 0.39517 0.79979 0.75731 0.0
C727 C 0.42959 0.79441 0.78211 0.0
N728 N 0.44352 0.77851 0.76793 0.0
N729 N 0.388 0.78724 0.72806 0.0
C730 C 0.41782 0.77448 0.73543 0.0
H731 H 0.37594 0.81178 0.76093 0.0
Co732 Co 0.34405 0.78519 0.68957 0.0
C733 C 0.40005 0.77614 0.61094 0.0
O734 O 0.37623 0.78841 0.59264 0.0
N735 N 0.29863 0.78222 0.65235 0.0
C736 C 0.24803 0.76661 0.61837 0.0
C737 C 0.29232 0.76968 0.62272 0.0
C738 C 0.2582 0.78639 0.66545 0.0
N739 N 0.227 0.77713 0.64573 0.0
O740 O 0.31685 0.76447 0.72391 0.0
H741 H 0.31767 0.76149 0.60926 0.0
H742 H 0.25201 0.79414 0.69326 0.0
O743 O 0.38885 0.77156 0.64886 0.0
C744 C 0.29473 0.7708 0.75563 0.0
O745 O 0.29822 0.78798 0.76253 0.0
N746 N 0.36115 0.80767 0.66518 0.0
C747 C 0.37949 0.84384 0.64836 0.0
C748 C 0.4133 0.83114 0.6509 0.0
C749 C 0.40348 0.81314 0.65938 0.0
C750 C 0.32835 0.82003 0.66296 0.0
C751 C 0.33662 0.8379 0.65399 0.0
H752 H 0.43009 0.80381 0.66342 0.0
H753 H 0.29541 0.81659 0.67097 0.0
H754 H 0.4195 0.76204 0.71848 0.0
H755 H 0.44305 0.80147 0.80856 0.0
H756 H 0.2329 0.7564 0.59942 0.0
H757 H 0.44711 0.83518 0.64761 0.0
H758 H 0.3096 0.84722 0.65424 0.0
C759 C 0.38461 0.96426 0.75078 0.0
C760 C 0.35044 0.9693 0.77624 0.0
N761 N 0.33958 0.98618 0.76658 0.0
N762 N 0.39411 0.97788 0.72492 0.0
C763 C 0.3663 0.99097 0.73532 0.0
H764 H 0.40183 0.95168 0.75144 0.0
Co765 Co 0.43806 0.9806 0.68665 0.0
C766 C 0.38207 0.98966 0.60786 0.0
O767 O 0.4063 0.9775 0.58965 0.0
N768 N 0.48364 0.9842 0.64982 0.0
C769 C 0.53388 0.99944 0.61443 0.0
C770 C 0.48961 0.99646 0.61948 0.0
C771 C 0.52424 0.98022 0.66285 0.0
N772 N 0.5552 0.98914 0.64204 0.0
O773 O 0.46358 1.00147 0.72155 0.0
H774 H 0.46406 1.00442 0.60559 0.0
H775 H 0.53082 0.97264 0.69086 0.0
O776 O 0.39265 0.99406 0.64609 0.0
C777 C 0.48516 0.99538 0.75383 0.0
O778 O 0.4822 0.97821 0.761 0.0
N779 N 0.42253 0.95802 0.66161 0.0
C780 C 0.40665 0.9214 0.6476 0.0
C781 C 0.37204 0.93381 0.64835 0.0
C782 C 0.38064 0.95204 0.65549 0.0
C783 C 0.45615 0.94604 0.65997 0.0
C784 C 0.44911 0.928 0.65224 0.0
H785 H 0.3534 0.96111 0.65891 0.0
H786 H 0.48887 0.94991 0.66763 0.0
H787 H 0.36591 1.00387 0.72032 0.0
H788 H 0.33548 0.96138 0.80055 0.0
H789 H 0.5489 0.00936 0.59459 0.0
H790 H 0.33845 0.92939 0.64596 0.0
H791 H 0.477 0.9191 0.6519 0.0
C792 C 0.62863 0.55056 0.50551 0.0
C793 C 0.59195 0.54581 0.5278 0.0
N794 N 0.57887 0.5297 0.51419 0.0
N795 N 0.63818 0.53738 0.47846 0.0
C796 C 0.60772 0.52483 0.48483 0.0
H797 H 0.64743 0.56266 0.50908 0.0
Co798 Co 0.68369 0.5352 0.44195 0.0
C799 C 0.62962 0.52588 0.36075 0.0
O800 O 0.65255 0.53845 0.34288 0.0
N801 N 0.73182 0.53279 0.40467 0.0
C802 C 0.78846 0.54171 0.36597 0.0
C803 C 0.74381 0.5427 0.37122 0.0
C804 C 0.7695 0.52495 0.41658 0.0
N805 N 0.80436 0.53091 0.3956 0.0
O806 O 0.70745 0.51417 0.47784 0.0
H807 H 0.72333 0.55229 0.35551 0.0
H808 H 0.77323 0.51646 0.44321 0.0
O809 O 0.64013 0.5217 0.39913 0.0
C810 C 0.72804 0.52073 0.51031 0.0
O811 O 0.72523 0.53805 0.5153 0.0
N812 N 0.66912 0.55791 0.41951 0.0
C813 C 0.65707 0.59487 0.40918 0.0
C814 C 0.62251 0.58277 0.40208 0.0
C815 C 0.62911 0.56432 0.40771 0.0
C816 C 0.70221 0.56958 0.42787 0.0
C817 C 0.69747 0.58781 0.4215 0.0
H818 H 0.60151 0.55539 0.40515 0.0
H819 H 0.73261 0.5647 0.44078 0.0
H820 H 0.60769 0.51204 0.46933 0.0
H821 H 0.5763 0.55346 0.55218 0.0
H822 H 0.80802 0.55006 0.34578 0.0
H823 H 0.59004 0.5875 0.39451 0.0
H824 H 0.72522 0.59637 0.42763 0.0
C825 C 0.65368 0.71722 0.5094 0.0
C826 C 0.68974 0.72225 0.53219 0.0
N827 N 0.70186 0.73859 0.51933 0.0
N828 N 0.64374 0.73034 0.48234 0.0
C829 C 0.67324 0.74324 0.48947 0.0
H830 H 0.63579 0.70487 0.51239 0.0
Co831 Co 0.59913 0.73125 0.44436 0.0
C832 C 0.6517 0.74117 0.36331 0.0
O833 O 0.62782 0.72902 0.34488 0.0
N834 N 0.55193 0.73227 0.40561 0.0
C835 C 0.49639 0.72174 0.36797 0.0
C836 C 0.54067 0.72081 0.37484 0.0
C837 C 0.51429 0.741 0.41374 0.0
N838 N 0.4797 0.73424 0.39343 0.0
O839 O 0.572 0.75216 0.47792 0.0
H840 H 0.56156 0.71063 0.36182 0.0
H841 H 0.51062 0.75115 0.43696 0.0
O842 O 0.64198 0.74505 0.40201 0.0
C843 C 0.54989 0.74574 0.50956 0.0
O844 O 0.55374 0.72856 0.51624 0.0
N845 N 0.61731 0.7087 0.4235 0.0
C846 C 0.63379 0.67239 0.4104 0.0
C847 C 0.66636 0.68519 0.40259 0.0
C848 C 0.65757 0.70337 0.40969 0.0
C849 C 0.58662 0.69618 0.43353 0.0
C850 C 0.5936 0.67812 0.42602 0.0
H851 H 0.68361 0.71296 0.40598 0.0
H852 H 0.55627 0.70031 0.44789 0.0
H853 H 0.67391 0.7558 0.47292 0.0
H854 H 0.70529 0.71467 0.55674 0.0
H855 H 0.47769 0.71232 0.34974 0.0
H856 H 0.69852 0.68113 0.39216 0.0
H857 H 0.56833 0.66861 0.43401 0.0
C858 C 0.63264 0.71485 0.83969 0.0
C859 C 0.59653 0.71909 0.81585 0.0
N860 N 0.57947 0.7343 0.83097 0.0
N861 N 0.63798 0.72751 0.8691 0.0
C862 C 0.60544 0.73922 0.86264 0.0
H863 H 0.65398 0.70351 0.83554 0.0
Co864 Co 0.68152 0.73021 0.9081 0.0
C865 C 0.6231 0.73933 0.98532 0.0
O866 O 0.64504 0.72668 1.00434 0.0
N867 N 0.72646 0.73381 0.94555 0.0
C868 C 0.77604 0.74954 0.98056 0.0
C869 C 0.73189 0.74619 0.9757 0.0
C870 C 0.76719 0.73002 0.93266 0.0
N871 N 0.79782 0.73934 0.95306 0.0
O872 O 0.70804 0.75095 0.8734 0.0
H873 H 0.70597 0.75396 0.98952 0.0
H874 H 0.77395 0.72218 0.9051 0.0
O875 O 0.63598 0.74386 0.94784 0.0
C876 C 0.73087 0.74481 0.84196 0.0
O877 O 0.72836 0.72761 0.83494 0.0
N878 N 0.66494 0.70774 0.9334 0.0
C879 C 0.64794 0.67119 0.94761 0.0
C880 C 0.61353 0.68349 0.9424 0.0
C881 C 0.6227 0.70169 0.93563 0.0
C882 C 0.69832 0.69592 0.93984 0.0
C883 C 0.69058 0.67793 0.9478 0.0
H884 H 0.59581 0.71066 0.92941 0.0
H885 H 0.73178 0.69982 0.93622 0.0
H886 H 0.60171 0.75154 0.87975 0.0
H887 H 0.58398 0.71173 0.78945 0.0
H888 H 0.79058 0.75962 1.00029 0.0
H889 H 0.57992 0.67904 0.94108 0.0
H890 H 0.71838 0.66918 0.95211 0.0
C891 C 0.64524 0.54887 0.84485 0.0
C892 C 0.67978 0.54345 0.8204 0.0
N893 N 0.69265 0.52733 0.834 0.0
N894 N 0.63692 0.53609 0.87329 0.0
C895 C 0.6663 0.52319 0.86594 0.0
H896 H 0.6265 0.56099 0.84132 0.0
Co897 Co 0.59153 0.5344 0.90997 0.0
C898 C 0.64424 0.52432 0.99174 0.0
O899 O 0.62078 0.53643 1.01082 0.0
N900 N 0.54329 0.53254 0.9472 0.0
C901 C 0.4866 0.54203 0.9851 0.0
C902 C 0.53131 0.54289 0.97991 0.0
C903 C 0.50555 0.52467 0.93561 0.0
N904 N 0.47066 0.53091 0.95612 0.0
O905 O 0.5672 0.51318 0.87489 0.0
H906 H 0.55203 0.5525 0.99528 0.0
H907 H 0.50188 0.51585 0.90961 0.0
O908 O 0.6345 0.52081 0.95281 0.0
C909 C 0.5472 0.51915 0.84149 0.0
O910 O 0.55028 0.53633 0.83447 0.0
N911 N 0.60732 0.55704 0.93218 0.0
C912 C 0.62185 0.59358 0.94566 0.0
C913 C 0.65516 0.58099 0.95298 0.0
C914 C 0.64736 0.56273 0.94574 0.0
C915 C 0.57562 0.56927 0.9231 0.0
C916 C 0.58171 0.58741 0.93061 0.0
H917 H 0.67401 0.55339 0.94901 0.0
H918 H 0.54538 0.56491 0.90888 0.0
H919 H 0.66698 0.51058 0.88225 0.0
H920 H 0.69388 0.5506 0.79439 0.0
H921 H 0.46706 0.55058 1.00487 0.0
H922 H 0.68722 0.58527 0.96322 0.0
H923 H 0.55577 0.59664 0.92274 0.0
C924 C 0.39869 0.46311 0.59171 0.0
C925 C 0.43321 0.46829 0.56696 0.0
N926 N 0.44523 0.48478 0.57881 0.0
N927 N 0.38971 0.47632 0.61885 0.0
C928 C 0.41841 0.4893 0.61018 0.0
H929 H 0.38092 0.45069 0.5897 0.0
Co930 Co 0.34568 0.47821 0.65699 0.0
C931 C 0.4008 0.48804 0.7372 0.0
O932 O 0.37761 0.47594 0.75662 0.0
N933 N 0.2991 0.48031 0.69595 0.0
C934 C 0.24355 0.47071 0.7348 0.0
C935 C 0.2878 0.4695 0.72794 0.0
C936 C 0.26161 0.48899 0.68694 0.0
N937 N 0.22697 0.48275 0.70807 0.0
O938 O 0.32048 0.49935 0.62265 0.0
H939 H 0.30847 0.45942 0.74163 0.0
H940 H 0.25813 0.49865 0.66258 0.0
O941 O 0.39028 0.49162 0.6985 0.0
C942 C 0.29855 0.49305 0.59074 0.0
O943 O 0.30054 0.47575 0.58499 0.0
N944 N 0.36144 0.4555 0.67833 0.0
C945 C 0.37314 0.41862 0.6892 0.0
C946 C 0.40716 0.43072 0.69819 0.0
C947 C 0.40088 0.44916 0.69191 0.0
C948 C 0.32883 0.44381 0.66855 0.0
C949 C 0.3333 0.4256 0.67524 0.0
H950 H 0.4282 0.45813 0.69592 0.0
H951 H 0.29879 0.44874 0.65495 0.0
H952 H 0.41867 0.5021 0.62565 0.0
H953 H 0.44826 0.46057 0.54237 0.0
H954 H 0.22482 0.46168 0.75401 0.0
H955 H 0.43887 0.42593 0.70817 0.0
H956 H 0.30573 0.41702 0.66856 0.0
C957 C 0.3803 0.29858 0.59847 0.0
C958 C 0.34579 0.2935 0.57348 0.0
N959 N 0.33431 0.27678 0.58405 0.0
N960 N 0.38957 0.28517 0.62498 0.0
C961 C 0.3612 0.27212 0.61538 0.0
H962 H 0.39782 0.31108 0.59715 0.0
Co963 Co 0.43398 0.28294 0.6634 0.0
C964 C 0.37936 0.27338 0.7423 0.0
O965 O 0.40319 0.28557 0.76089 0.0
N966 N 0.47997 0.2798 0.70017 0.0
C967 C 0.53103 0.26452 0.73442 0.0
C968 C 0.48664 0.26726 0.72976 0.0
C969 C 0.52036 0.28423 0.68727 0.0
N970 N 0.55182 0.27522 0.70731 0.0
O971 O 0.46063 0.26247 0.62851 0.0
H972 H 0.46155 0.25893 0.74314 0.0
H973 H 0.52644 0.29218 0.65975 0.0
O974 O 0.38975 0.26916 0.70392 0.0
C975 C 0.48206 0.26906 0.59676 0.0
O976 O 0.47828 0.28628 0.59059 0.0
N977 N 0.41672 0.30515 0.68884 0.0
C978 C 0.39668 0.3413 0.70198 0.0
C979 C 0.36332 0.32847 0.69931 0.0
C980 C 0.37402 0.31042 0.69312 0.0
C981 C 0.44918 0.31758 0.69293 0.0
C982 C 0.43996 0.33549 0.70034 0.0
H983 H 0.34786 0.30094 0.68854 0.0
H984 H 0.48269 0.3142 0.68722 0.0
H985 H 0.36046 0.25939 0.63111 0.0
H986 H 0.33097 0.3013 0.54887 0.0
H987 H 0.54649 0.25443 0.75348 0.0
H988 H 0.3293 0.33247 0.70001 0.0
H989 H 0.46662 0.34499 0.70132 0.0
C990 C 0.39681 0.30104 0.25226 0.0
C991 C 0.43252 0.29648 0.27622 0.0
N992 N 0.44504 0.2799 0.26539 0.0
N993 N 0.38746 0.28741 0.22644 0.0
C994 C 0.41699 0.2747 0.23548 0.0
H995 H 0.37853 0.31335 0.25383 0.0
Co996 Co 0.34263 0.28495 0.18865 0.0
C997 C 0.39689 0.27542 0.10922 0.0
O998 O 0.37284 0.2875 0.09049 0.0
N999 N 0.2964 0.28167 0.15224 0.0
C1000 C 0.24548 0.26669 0.11712 0.0
C1001 C 0.28983 0.26945 0.12192 0.0
C1002 C 0.256 0.28587 0.16548 0.0
N1003 N 0.22462 0.27703 0.14494 0.0
O1004 O 0.31688 0.26422 0.22343 0.0
H1005 H 0.31497 0.26133 0.10791 0.0
H1006 H 0.24987 0.29346 0.19355 0.0
O1007 O 0.3868 0.27134 0.14774 0.0
C1008 C 0.29538 0.27045 0.25556 0.0
O1009 O 0.29899 0.2876 0.26279 0.0
N1010 N 0.35864 0.30734 0.16344 0.0
C1011 C 0.37593 0.34351 0.14604 0.0
C1012 C 0.40988 0.33084 0.14683 0.0
C1013 C 0.40059 0.31283 0.15566 0.0
C1014 C 0.3257 0.31966 0.1629 0.0
C1015 C 0.33342 0.33754 0.15368 0.0
H1016 H 0.42743 0.30353 0.15858 0.0
H1017 H 0.29329 0.31616 0.17261 0.0
H1018 H 0.41774 0.26179 0.22051 0.0
H1019 H 0.44726 0.3045 0.30045 0.0
H1020 H 0.2301 0.25685 0.0973 0.0
H1021 H 0.44347 0.33491 0.14202 0.0
H1022 H 0.30643 0.34686 0.15536 0.0
C1023 C 0.38534 0.46192 0.25268 0.0
C1024 C 0.35058 0.46593 0.27839 0.0
N1025 N 0.33712 0.48255 0.26916 0.0
N1026 N 0.39279 0.47594 0.22741 0.0
C1027 C 0.36335 0.48829 0.23847 0.0
H1028 H 0.4042 0.44973 0.2526 0.0
Co1029 Co 0.43519 0.47969 0.18833 0.0
C1030 C 0.37679 0.48967 0.11185 0.0
O1031 O 0.40117 0.47808 0.09192 0.0
N1032 N 0.47926 0.48418 0.15081 0.0
C1033 C 0.52947 0.49984 0.11647 0.0
C1034 C 0.4851 0.49706 0.12191 0.0
C1035 C 0.51981 0.47974 0.16279 0.0
N1036 N 0.55084 0.48871 0.14221 0.0
O1037 O 0.46119 0.50011 0.22467 0.0
H1038 H 0.45951 0.50545 0.10952 0.0
H1039 H 0.52635 0.47173 0.19013 0.0
O1040 O 0.38822 0.49359 0.15016 0.0
C1041 C 0.48396 0.49386 0.25609 0.0
O1042 O 0.48139 0.47664 0.26278 0.0
N1043 N 0.41937 0.45748 0.16144 0.0
C1044 C 0.40298 0.42104 0.14574 0.0
C1045 C 0.36839 0.43337 0.14889 0.0
C1046 C 0.37726 0.45152 0.15673 0.0
C1047 C 0.45295 0.4456 0.15701 0.0
C1048 C 0.44559 0.42765 0.14844 0.0
H1049 H 0.35015 0.46048 0.16206 0.0
H1050 H 0.48607 0.44937 0.16309 0.0
H1051 H 0.36132 0.50135 0.22434 0.0
H1052 H 0.33702 0.45751 0.3025 0.0
H1053 H 0.5446 0.51016 0.09784 0.0
H1054 H 0.33474 0.42892 0.14794 0.0
H1055 H 0.47347 0.4188 0.14609 0.0
C1056 C 0.11121 0.12186 0.42219 0.0
C1057 C 0.14076 0.11353 0.39491 0.0
C1058 C 0.10648 0.14048 0.42303 0.0
C1059 C 0.13076 0.15172 0.39634 0.0
H1060 H 0.09262 0.11396 0.44418 0.0
H1061 H 0.08407 0.14612 0.44556 0.0
S1062 S 0.21032 0.13646 0.31672 0.0
N1063 N 0.19346 0.1179 0.33917 0.0
N1064 N 0.18399 0.15283 0.34025 0.0
C1065 C 0.15986 0.14353 0.3683 0.0
C1066 C 0.16488 0.12451 0.36763 0.0
C1067 C 0.11018 0.12606 0.91783 0.0
C1068 C 0.1292 0.11441 0.94733 0.0
C1069 C 0.11405 0.14466 0.92123 0.0
C1070 C 0.13767 0.15254 0.95393 0.0
H1071 H 0.09285 0.1208 0.89111 0.0
H1072 H 0.09982 0.15293 0.89711 0.0
S1073 S 0.19184 0.12856 1.0408 0.0
N1074 N 0.1706 0.11254 1.01191 0.0
N1075 N 0.17926 0.14743 1.01721 0.0
C1076 C 0.15654 0.1412 0.98389 0.0
C1077 C 0.15208 0.12221 0.98082 0.0
C1078 C 0.87183 0.87283 0.7298 0.0
C1079 C 0.90059 0.86435 0.7019 0.0
C1080 C 0.86679 0.89152 0.72986 0.0
C1081 C 0.89037 0.90252 0.7021 0.0
H1082 H 0.85342 0.865 0.75203 0.0
H1083 H 0.84414 0.89743 0.7518 0.0
S1084 S 0.96616 0.88679 0.61974 0.0
N1085 N 0.95044 0.86841 0.64362 0.0
N1086 N 0.94121 0.90327 0.64409 0.0
C1087 C 0.91867 0.89415 0.67369 0.0
C1088 C 0.92364 0.87519 0.67345 0.0
C1089 C 0.91689 0.89202 0.18646 0.0
C1090 C 0.89712 0.90322 0.15644 0.0
C1091 C 0.91246 0.87342 0.185 0.0
C1092 C 0.88758 0.86513 0.15383 0.0
H1093 H 0.93534 0.89766 0.21205 0.0
H1094 H 0.9275 0.86547 0.20927 0.0
S1095 S 0.82969 0.88769 0.06726 0.0
N1096 N 0.85276 0.90413 0.09347 0.0
N1097 N 0.84295 0.86921 0.09215 0.0
C1098 C 0.86753 0.87595 0.12367 0.0
C1099 C 0.87256 0.89495 0.12466 0.0
C1100 C 0.15819 0.64341 0.88054 0.0
C1101 C 0.12479 0.65216 0.90278 0.0
C1102 C 0.16331 0.62475 0.8826 0.0
C1103 C 0.13503 0.61406 0.90667 0.0
H1104 H 0.18037 0.65101 0.86117 0.0
H1105 H 0.18969 0.61862 0.86524 0.0
S1106 S 0.04555 0.63037 0.97447 0.0
N1107 N 0.06537 0.64856 0.95263 0.0
N1108 N 0.07441 0.61371 0.95528 0.0
C1109 C 0.10195 0.62262 0.9294 0.0
C1110 C 0.09702 0.64157 0.9278 0.0
C1111 C 0.126 0.62296 0.47285 0.0
C1112 C 0.14348 0.61223 0.44097 0.0
C1113 C 0.13068 0.64166 0.4721 0.0
C1114 C 0.15257 0.65031 0.43916 0.0
H1115 H 0.10825 0.61687 0.49831 0.0
H1116 H 0.11726 0.64937 0.49757 0.0
S1117 S 0.19967 0.62804 0.34584 0.0
N1118 N 0.18106 0.6115 0.37465 0.0
N1119 N 0.1887 0.64641 0.3721 0.0
C1120 C 0.16918 0.63958 0.40662 0.0
C1121 C 0.1649 0.62063 0.4078 0.0
C1122 C 0.91254 0.39355 0.18069 0.0
C1123 C 0.88334 0.4016 0.20877 0.0
C1124 C 0.9176 0.37496 0.17907 0.0
C1125 C 0.894 0.36346 0.2057 0.0
H1126 H 0.93062 0.40165 0.15872 0.0
H1127 H 0.93975 0.36953 0.15601 0.0
S1128 S 0.81559 0.3779 0.28715 0.0
N1129 N 0.83173 0.39668 0.26518 0.0
N1130 N 0.84177 0.36179 0.26255 0.0
C1131 C 0.86523 0.37137 0.23448 0.0
C1132 C 0.85989 0.39036 0.23599 0.0
C1133 C 0.91965 0.39009 0.62817 0.0
C1134 C 0.893 0.40108 0.6532 0.0
C1135 C 0.91429 0.37143 0.62752 0.0
C1136 C 0.88232 0.363 0.6522 0.0
H1137 H 0.94482 0.396 0.60887 0.0
H1138 H 0.93503 0.36357 0.60728 0.0
S1139 S 0.80826 0.38565 0.72736 0.0
N1140 N 0.83587 0.40204 0.70549 0.0
N1141 N 0.82647 0.36721 0.70539 0.0
C1142 C 0.85643 0.37389 0.6783 0.0
C1143 C 0.86155 0.39282 0.6785 0.0
C1144 C 0.66429 0.12752 0.93228 0.0
C1145 C 0.64701 0.11601 0.90156 0.0
C1146 C 0.66008 0.1461 0.92942 0.0
C1147 C 0.63774 0.15409 0.89609 0.0
H1148 H 0.68063 0.12215 0.95945 0.0
H1149 H 0.67308 0.15426 0.95435 0.0
S1150 S 0.5877 0.13053 0.80645 0.0
N1151 N 0.60825 0.1144 0.83545 0.0
N1152 N 0.59876 0.14928 0.83121 0.0
C1153 C 0.62032 0.14291 0.86507 0.0
C1154 C 0.62521 0.12393 0.86757 0.0
C1155 C 0.60841 0.14407 0.43211 0.0
C1156 C 0.63973 0.15224 0.45785 0.0
C1157 C 0.60326 0.12547 0.43134 0.0
C1158 C 0.62892 0.1141 0.45654 0.0
H1159 H 0.58874 0.15207 0.41119 0.0
H1160 H 0.57949 0.11994 0.40995 0.0
S1161 S 0.71317 0.12893 0.53217 0.0
N1162 N 0.69541 0.14759 0.5108 0.0
N1163 N 0.68522 0.1127 0.50985 0.0
C1164 C 0.6597 0.12214 0.48317 0.0
C1165 C 0.66512 0.14113 0.48377 0.0
C1166 C 0.36668 0.87096 0.16258 0.0
C1167 C 0.39088 0.86255 0.19405 0.0
C1168 C 0.36243 0.88956 0.16133 0.0
C1169 C 0.3816 0.90065 0.19192 0.0
H1170 H 0.35195 0.8631 0.13799 0.0
H1171 H 0.34446 0.89529 0.13553 0.0
S1172 S 0.44736 0.88479 0.28191 0.0
N1173 N 0.43447 0.8664 0.2565 0.0
N1174 N 0.42487 0.90134 0.25558 0.0
C1175 C 0.40563 0.89226 0.2239 0.0
C1176 C 0.41055 0.87326 0.22467 0.0
C1177 C 0.41831 0.87165 0.6718 0.0
C1178 C 0.38831 0.86343 0.64473 0.0
C1179 C 0.42363 0.89025 0.67247 0.0
C1180 C 0.39948 0.90159 0.64587 0.0
H1181 H 0.43683 0.86369 0.69373 0.0
H1182 H 0.44638 0.89582 0.6948 0.0
S1183 S 0.31909 0.88664 0.56663 0.0
N1184 N 0.33551 0.86802 0.58913 0.0
N1185 N 0.34599 0.90289 0.58999 0.0
C1186 C 0.36998 0.8935 0.61802 0.0
C1187 C 0.36438 0.87451 0.61748 0.0
C1188 C 0.67188 0.62569 0.43753 0.0
C1189 C 0.65118 0.61477 0.40748 0.0
C1190 C 0.66774 0.64432 0.43699 0.0
C1191 C 0.64223 0.65293 0.40678 0.0
H1192 H 0.69084 0.6198 0.46246 0.0
H1193 H 0.68352 0.65202 0.46126 0.0
S1194 S 0.58188 0.63122 0.32052 0.0
N1195 N 0.6053 0.61451 0.34549 0.0
N1196 N 0.59605 0.64946 0.34593 0.0
C1197 C 0.62126 0.64239 0.3766 0.0
C1198 C 0.62599 0.62338 0.37664 0.0
C1199 C 0.66942 0.63986 0.92731 0.0
C1200 C 0.6408 0.65134 0.94915 0.0
C1201 C 0.6641 0.62125 0.92774 0.0
C1202 C 0.62953 0.6132 0.94952 0.0
H1203 H 0.69586 0.64528 0.90882 0.0
H1204 H 0.68644 0.61315 0.90967 0.0
S1205 S 0.54679 0.63669 1.01381 0.0
N1206 N 0.57777 0.65285 0.99519 0.0
N1207 N 0.56704 0.61799 0.99481 0.0
C1208 C 0.60085 0.62438 0.97182 0.0
C1209 C 0.60657 0.64336 0.97184 0.0
C1210 C 0.39969 0.39105 0.72717 0.0
C1211 C 0.37898 0.39881 0.69236 0.0
C1212 C 0.40412 0.37242 0.73092 0.0
C1213 C 0.38743 0.36079 0.70033 0.0
H1214 H 0.41235 0.39943 0.75184 0.0
H1215 H 0.42092 0.36706 0.75784 0.0
S1216 S 0.33484 0.37409 0.60112 0.0
N1217 N 0.34515 0.39311 0.62493 0.0
N1218 N 0.3521 0.35835 0.63299 0.0
C1219 C 0.36713 0.36832 0.6653 0.0
C1220 C 0.36327 0.38722 0.66106 0.0
C1221 C 0.41604 0.37121 0.16803 0.0
C1222 C 0.38455 0.36311 0.14235 0.0
C1223 C 0.42143 0.3898 0.16883 0.0
C1224 C 0.39583 0.40124 0.14374 0.0
H1225 H 0.43574 0.36317 0.18883 0.0
H1226 H 0.44539 0.39528 0.19012 0.0
S1227 S 0.31111 0.38663 0.06837 0.0
N1228 N 0.32873 0.36792 0.08958 0.0
N1229 N 0.3393 0.40279 0.09069 0.0
C1230 C 0.36481 0.39327 0.11724 0.0
C1231 C 0.35917 0.37429 0.11657 0.0
C1232 C 0.36679 0.01126 0.41577 0.0
C1233 C 0.34569 0.02755 0.40768 0.0
C1234 C 0.40817 0.0109 0.43475 0.0
C1235 C 0.42951 0.02681 0.4456 0.0
H1236 H 0.35083 0.99882 0.4082 0.0
H1237 H 0.4241 0.99821 0.43989 0.0
S1238 S 0.38814 0.07269 0.43048 0.0
N1239 N 0.34921 0.05978 0.41156 0.0
N1240 N 0.42672 0.05907 0.44724 0.0
C1241 C 0.4086 0.04306 0.43767 0.0
C1242 C 0.36684 0.04344 0.41854 0.0
C1243 C 0.86664 0.25388 0.43323 0.0
C1244 C 0.84569 0.23763 0.44203 0.0
C1245 C 0.90842 0.25414 0.41511 0.0
C1246 C 0.9302 0.23817 0.40559 0.0
H1247 H 0.85027 0.26637 0.43961 0.0
H1248 H 0.92429 0.26681 0.40961 0.0
S1249 S 0.88912 0.19238 0.42253 0.0
N1250 N 0.84958 0.20538 0.4399 0.0
N1251 N 0.92793 0.20589 0.40583 0.0
C1252 C 0.90939 0.22195 0.41411 0.0
C1253 C 0.86719 0.22168 0.43239 0.0
C1254 C 0.40887 0.22351 0.91541 0.0
C1255 C 0.42987 0.23967 0.90643 0.0
C1256 C 0.36726 0.22322 0.93327 0.0
C1257 C 0.34551 0.23908 0.94353 0.0
H1258 H 0.42507 0.211 0.90879 0.0
H1259 H 0.35177 0.21049 0.93911 0.0
S1260 S 0.38653 0.28494 0.9265 0.0
N1261 N 0.42618 0.27197 0.90914 0.0
N1262 N 0.34754 0.27143 0.94295 0.0
C1263 C 0.36612 0.25538 0.93487 0.0
C1264 C 0.40839 0.25567 0.9161 0.0
C1265 C 0.89808 0.02665 0.9619 0.0
C1266 C 0.93357 0.03046 0.93606 0.0
C1267 C 0.85548 0.02678 0.94609 0.0
C1268 C 0.84683 0.03059 0.90365 0.0
H1269 H 0.90336 0.0237 0.99455 0.0
H1270 H 0.82924 0.02447 0.96794 0.0
S1271 S 0.92912 0.04256 0.82393 0.0
N1272 N 0.95771 0.03943 0.8669 0.0
N1273 N 0.87791 0.03833 0.83651 0.0
C1274 C 0.88237 0.03431 0.87754 0.0
C1275 C 0.92563 0.03458 0.89387 0.0
C1276 C 0.62194 0.97375 0.66283 0.0
C1277 C 0.59997 0.98979 0.65491 0.0
C1278 C 0.66353 0.97368 0.68064 0.0
C1279 C 0.68447 0.98963 0.69171 0.0
H1280 H 0.60649 0.96117 0.65541 0.0
H1281 H 0.67975 0.96103 0.68562 0.0
S1282 S 0.63981 0.0352 0.67892 0.0
N1283 N 0.60113 0.02203 0.66046 0.0
N1284 N 0.68003 0.02196 0.69385 0.0
C1285 C 0.66268 1.00582 0.68442 0.0
C1286 C 0.62028 1.00588 0.66585 0.0
C1287 C 0.16109 0.79209 0.6702 0.0
C1288 C 0.18272 0.77621 0.66003 0.0
C1289 C 0.12006 0.79186 0.68901 0.0
C1290 C 0.09923 0.77573 0.69869 0.0
H1291 H 0.17629 0.80481 0.66358 0.0
H1292 H 0.10393 0.8044 0.69547 0.0
S1293 S 0.14281 0.73041 0.67998 0.0
N1294 N 0.18127 0.74385 0.66222 0.0
N1295 N 0.1032 0.74342 0.69728 0.0
C1296 C 0.12065 0.75969 0.68932 0.0
C1297 C 0.16257 0.75992 0.66984 0.0
C1298 C 0.62918 0.77589 0.21278 0.0
C1299 C 0.5938 0.77948 0.18657 0.0
C1300 C 0.67195 0.77622 0.19739 0.0
C1301 C 0.68087 0.78006 0.15504 0.0
H1302 H 0.62368 0.77301 0.24543 0.0
H1303 H 0.69808 0.77409 0.21948 0.0
S1304 S 0.59899 0.79133 0.07433 0.0
N1305 N 0.57006 0.78812 0.11704 0.0
N1306 N 0.65022 0.78745 0.0875 0.0
C1307 C 0.64546 0.78348 0.12853 0.0
C1308 C 0.60202 0.78352 0.14439 0.0
C1309 C 0.17362 0.99039 0.15164 0.0
C1310 C 0.18204 0.98706 0.19434 0.0
C1311 C 0.1311 0.99035 0.13565 0.0
C1312 C 0.09547 0.98686 0.16158 0.0
H1313 H 0.2 0.99243 0.1298 0.0
H1314 H 0.12597 0.99293 0.10281 0.0
S1315 S 0.09934 0.97624 0.27461 0.0
N1316 N 0.15065 0.98024 0.26189 0.0
N1317 N 0.07098 0.9788 0.23128 0.0
C1318 C 0.1032 0.98326 0.20409 0.0
C1319 C 0.14638 0.98371 0.22056 0.0
C1320 C 0.34879 0.52788 0.95154 0.0
C1321 C 0.33977 0.53036 0.90867 0.0
C1322 C 0.39157 0.528 0.96685 0.0
C1323 C 0.42688 0.53072 0.94002 0.0
H1324 H 0.32268 0.52636 0.97393 0.0
H1325 H 0.39715 0.52604 0.99986 0.0
S1326 S 0.42124 0.53904 0.82594 0.0
N1327 N 0.36999 0.53575 0.83999 0.0
N1328 N 0.45034 0.53717 0.86902 0.0
C1329 C 0.4185 0.53353 0.89726 0.0
C1330 C 0.37498 0.53307 0.88157 0.0
C1331 C 0.86434 0.72447 0.92958 0.0
C1332 C 0.84253 0.7403 0.93993 0.0
C1333 C 0.90584 0.72478 0.91168 0.0
C1334 C 0.92691 0.74095 0.90299 0.0
H1335 H 0.84889 0.71172 0.93527 0.0
H1336 H 0.92201 0.71228 0.90493 0.0
S1337 S 0.88379 0.78618 0.92372 0.0
N1338 N 0.84466 0.77267 0.93983 0.0
N1339 N 0.92344 0.77324 0.90623 0.0
C1340 C 0.90552 0.75695 0.91286 0.0
C1341 C 0.86319 0.75663 0.93154 0.0
C1342 C 0.38354 0.73835 0.46604 0.0
C1343 C 0.34826 0.73479 0.43968 0.0
C1344 C 0.42624 0.73861 0.45049 0.0
C1345 C 0.43516 0.73546 0.40783 0.0
H1346 H 0.37801 0.74085 0.49885 0.0
H1347 H 0.45239 0.74075 0.47256 0.0
S1348 S 0.35374 0.72453 0.32649 0.0
N1349 N 0.32479 0.72684 0.36951 0.0
N1350 N 0.40481 0.72864 0.33989 0.0
C1351 C 0.39993 0.73197 0.38121 0.0
C1352 C 0.35657 0.73132 0.39719 0.0
C1353 C 0.88349 0.52783 0.38579 0.0
C1354 C 0.84797 0.53109 0.412 0.0
C1355 C 0.92605 0.52783 0.40157 0.0
C1356 C 0.93459 0.53086 0.44433 0.0
H1357 H 0.87823 0.52532 0.35294 0.0
H1358 H 0.95243 0.52596 0.37965 0.0
S1359 S 0.85257 0.54187 0.52494 0.0
N1360 N 0.82387 0.53922 0.48184 0.0
N1361 N 0.90382 0.5379 0.51195 0.0
C1362 C 0.8992 0.53435 0.47069 0.0
C1363 C 0.85592 0.53476 0.45447 0.0
C1364 C 0.65833 0.5046 0.18391 0.0
C1365 C 0.67882 0.48839 0.19407 0.0
C1366 C 0.61725 0.50476 0.16433 0.0
C1367 C 0.59579 0.48874 0.15462 0.0
H1368 H 0.67455 0.51712 0.19027 0.0
H1369 H 0.60167 0.5174 0.15782 0.0
S1370 S 0.63629 0.44302 0.17416 0.0
N1371 N 0.67485 0.45613 0.19297 0.0
N1372 N 0.59836 0.45645 0.15541 0.0
C1373 C 0.61638 0.47257 0.16415 0.0
C1374 C 0.65762 0.4724 0.18424 0.0
C1375 C 0.11706 0.29228 0.18617 0.0
C1376 C 0.09571 0.27623 0.19543 0.0
C1377 C 0.15861 0.29235 0.16829 0.0
C1378 C 0.18 0.27637 0.15837 0.0
H1379 H 0.10113 0.30487 0.19255 0.0
H1380 H 0.1744 0.30499 0.16222 0.0
S1381 S 0.13789 0.23073 0.17612 0.0
N1382 N 0.09853 0.24391 0.19322 0.0
N1383 N 0.17724 0.24402 0.15951 0.0
C1384 C 0.15903 0.26017 0.1673 0.0
C1385 C 0.11675 0.2601 0.18604 0.0
C1386 C 0.61842 0.2907 0.6862 0.0
C1387 C 0.59641 0.27464 0.69376 0.0
C1388 C 0.66004 0.29082 0.66841 0.0
C1389 C 0.6809 0.2749 0.65688 0.0
H1390 H 0.60307 0.30326 0.69405 0.0
H1391 H 0.67634 0.30347 0.6638 0.0
S1392 S 0.63606 0.22931 0.66841 0.0
N1393 N 0.5975 0.24242 0.6873 0.0
N1394 N 0.67627 0.2426 0.65376 0.0
C1395 C 0.65901 0.25871 0.66367 0.0
C1396 C 0.61665 0.25859 0.68231 0.0
C1397 C 0.13006 0.48724 0.63633 0.0
C1398 C 0.09487 0.48427 0.66317 0.0
C1399 C 0.17297 0.48705 0.65137 0.0
C1400 C 0.18227 0.4841 0.69403 0.0
H1401 H 0.1243 0.48962 0.6035 0.0
H1402 H 0.19892 0.48866 0.62889 0.0
S1403 S 0.1013 0.47403 0.77632 0.0
N1404 N 0.07193 0.47659 0.73362 0.0
N1405 N 0.15237 0.47771 0.76237 0.0
C1406 C 0.14717 0.48105 0.72109 0.0
C1407 C 0.10355 0.48079 0.70559 0.0
C1408 C 0.98719 0.99859 0.52329 0.0
C1409 C 0.98453 0.99476 0.56598 0.0
C1410 C 0.0199 0.00988 0.50801 0.0
C1411 C 0.0507 0.01763 0.53501 0.0
H1412 H 0.96317 0.99323 0.50191 0.0
H1413 H 0.02086 0.01282 0.47501 0.0
S1414 S 0.06163 0.00938 0.6481 0.0
N1415 N 0.01771 0.99801 0.63428 0.0
N1416 N 0.0794 0.01923 0.60534 0.0
C1417 C 0.04924 0.01339 0.57745 0.0
C1418 C 0.01606 1.00191 0.59299 0.0
C1419 C 0.26013 0.27385 0.55507 0.0
C1420 C 0.30028 0.26607 0.56602 0.0
C1421 C 0.22607 0.26352 0.53879 0.0
C1422 C 0.231 0.24506 0.53286 0.0
H1423 H 0.2548 0.28795 0.55987 0.0
H1424 H 0.1954 0.26998 0.53131 0.0
S1425 S 0.33131 0.21867 0.5524 0.0
N1426 N 0.34422 0.23908 0.56699 0.0
N1427 N 0.28001 0.21967 0.5365 0.0
C1428 C 0.27125 0.23718 0.54295 0.0
C1429 C 0.30596 0.2477 0.55946 0.0
C1430 C 0.97517 0.25085 0.78902 0.0
C1431 C 0.98019 0.26934 0.78372 0.0
C1432 C 1.00909 0.2404 0.80519 0.0
C1433 C 0.0492 0.24808 0.81662 0.0
H1434 H 0.94455 0.24446 0.7811 0.0
H1435 H 1.00367 0.22628 0.80947 0.0
S1436 S 0.08041 0.29555 0.80479 0.0
N1437 N 0.02921 0.29468 0.78857 0.0
N1438 N 0.09319 0.27504 0.81875 0.0
C1439 C 0.05496 0.26649 0.81072 0.0
C1440 C 0.02037 0.27713 0.79436 0.0
C1441 C 0.23119 1.00039 0.80929 0.0
C1442 C 0.23753 0.0187 0.8163 0.0
C1443 C 0.26503 0.9897 0.79393 0.0
C1444 C 0.30621 0.99701 0.78507 0.0
H1445 H 0.19959 0.99437 0.81501 0.0
H1446 H 0.25869 0.97575 0.78791 0.0
S1447 S 0.34096 0.0437 0.8029 0.0
N1448 N 0.28889 0.04335 0.81648 0.0
N1449 N 0.3527 0.02324 0.78769 0.0
C1450 C 0.31335 0.01517 0.79311 0.0
C1451 C 0.2789 0.02605 0.80866 0.0
C1452 C 0.76653 0.77812 0.55505 0.0
C1453 C 0.80732 0.77053 0.56433 0.0
C1454 C 0.73215 0.76759 0.54018 0.0
C1455 C 0.73757 0.74917 0.53424 0.0
H1456 H 0.76087 0.79216 0.56053 0.0
H1457 H 0.70082 0.7738 0.53416 0.0
S1458 S 0.83975 0.72341 0.54858 0.0
N1459 N 0.85255 0.7439 0.56273 0.0
N1460 N 0.78766 0.72409 0.5351 0.0
C1461 C 0.77859 0.74155 0.54206 0.0
C1462 C 0.81359 0.75225 0.55698 0.0
C1463 C 0.97551 0.75119 0.2891 0.0
C1464 C 0.98242 0.76947 0.28222 0.0
C1465 C 1.00897 0.74036 0.30454 0.0
C1466 C 0.05031 0.74748 0.31354 0.0
H1467 H 0.94377 0.74533 0.28319 0.0
H1468 H 1.00224 0.72643 0.31043 0.0
S1469 S 0.08644 0.794 0.29588 0.0
N1470 N 0.03437 0.7939 0.28223 0.0
N1471 N 0.09759 0.77349 0.31106 0.0
C1472 C 0.05802 0.76561 0.30559 0.0
C1473 C 0.02393 0.77664 0.29001 0.0
C1474 C 0.75226 0.01132 0.34131 0.0
C1475 C 0.72611 0.022 0.3153 0.0
C1476 C 0.78501 1.00044 0.32483 0.0
C1477 C 0.79279 0.99992 0.28179 0.0
H1478 H 0.74738 0.01145 0.37471 0.0
H1479 H 0.80484 0.99259 0.34589 0.0
S1480 S 0.73138 0.0243 0.20011 0.0
N1481 N 0.70876 0.03075 0.24432 0.0
N1482 N 0.77063 0.01026 0.2132 0.0
C1483 C 0.76676 0.01042 0.25536 0.0
C1484 C 0.73335 0.02151 0.27216 0.0
C1485 C 0.03679 0.51446 0.08035 0.0
C1486 C 0.03931 0.51841 1.03772 0.0
C1487 C 1.0044 0.50304 0.09548 0.0
C1488 C 0.97378 0.49525 0.06839 0.0
H1489 H 0.06047 0.51998 0.10185 0.0
H1490 H 1.00327 0.50017 0.12852 0.0
S1491 S 0.96296 0.50345 0.95529 0.0
N1492 N 1.00655 0.51501 0.96926 0.0
N1493 N 0.94536 0.49349 0.99798 0.0
C1494 C 0.97533 0.49943 1.02593 0.0
C1495 C 1.00824 0.51106 1.01052 0.0
C1496 C 0.29476 0.74963 0.05976 0.0
C1497 C 0.2895 0.76807 0.06579 0.0
C1498 C 0.26037 0.73916 1.04474 0.0
C1499 C 0.21973 0.74681 1.03525 0.0
H1500 H 0.32595 0.74335 0.06596 0.0
H1501 H 0.26587 0.7251 1.03941 0.0
S1502 S 0.18771 0.79399 0.05046 0.0
N1503 N 0.23965 0.79323 0.06442 0.0
N1504 N 0.17483 0.77352 1.03623 0.0
C1505 C 0.21364 0.76511 1.04235 0.0
C1506 C 0.24863 0.77576 0.05755 0.0
C1507 C 0.30788 0.51102 0.294 0.0
C1508 C 0.3024 0.49264 0.28751 0.0
C1509 C 0.27329 0.52159 0.3079 0.0
C1510 C 0.23217 0.51409 0.31592 0.0
H1511 H 0.33915 0.51728 0.28803 0.0
H1512 H 0.27878 0.53568 0.31275 0.0
S1513 S 0.20045 0.46681 0.30206 0.0
N1514 N 0.25267 0.46746 0.28905 0.0
N1515 N 0.1873 0.48736 0.3154 0.0
C1516 C 0.22627 0.49571 0.30986 0.0
C1517 C 0.26155 0.48495 0.29567 0.0
C1518 C 0.75852 0.2759 0.05588 0.0
C1519 C 0.79872 0.26811 0.06666 0.0
C1520 C 0.72434 0.26558 1.03977 0.0
C1521 C 0.7292 0.24712 1.03392 0.0
H1522 H 0.75324 0.29001 0.06065 0.0
H1523 H 0.69365 0.27203 1.03233 0.0
S1524 S 0.82947 0.22066 0.05313 0.0
N1525 N 0.84256 0.24109 0.0675 0.0
N1526 N 0.77808 0.22169 1.03751 0.0
C1527 C 0.76945 0.23922 1.04388 0.0
C1528 C 0.8043 0.24973 0.06015 0.0
C1529 C 0.7559 0.50773 0.84352 0.0
C1530 C 0.72563 0.51603 0.81694 0.0
C1531 C 0.78797 0.49634 0.82761 0.0
C1532 C 0.79044 0.49296 0.7847 0.0
H1533 H 0.75511 0.51037 0.87667 0.0
H1534 H 0.81176 0.49058 0.84865 0.0
S1535 S 0.71442 0.50917 0.70334 0.0
N1536 N 0.69704 0.51867 0.7467 0.0
N1537 N 0.75767 0.49724 0.71654 0.0
C1538 C 0.75935 0.50065 0.75807 0.0
C1539 C 0.7268 0.51223 0.77426 0.0
C1540 C 0.47496 0.01491 0.05854 0.0
C1541 C 0.48123 0.99654 0.06447 0.0
C1542 C 0.50872 0.02568 1.04357 0.0
C1543 C 0.54977 0.0184 1.03408 0.0
H1544 H 0.44354 0.02094 0.06512 0.0
H1545 H 0.50252 0.03972 1.03865 0.0
S1546 S 0.58394 0.97139 1.04811 0.0
N1547 N 0.53202 0.97172 0.06222 0.0
N1548 N 0.59587 0.99199 1.03427 0.0
C1549 C 0.5567 1.0001 1.04059 0.0
C1550 C 0.52227 0.98914 0.0557 0.0
C1551 C 0.47422 0.25101 0.28885 0.0
C1552 C 0.47992 0.26941 0.2827 0.0
C1553 C 0.50796 0.24045 0.30498 0.0
C1554 C 0.54856 0.24794 0.31553 0.0
H1555 H 0.4432 0.24477 0.28166 0.0
H1556 H 0.50203 0.2264 0.30997 0.0
S1557 S 0.58157 0.29507 0.3011 0.0
N1558 N 0.53008 0.29443 0.28566 0.0
N1559 N 0.59371 0.27459 0.3158 0.0
C1560 C 0.555 0.26625 0.3087 0.0
C1561 C 0.5206 0.277 0.29237 0.0
C1562 C 0.50808 0.75964 0.75728 0.0
C1563 C 0.47737 0.76739 0.78436 0.0
C1564 C 0.54077 0.74831 0.77246 0.0
C1565 C 0.54344 0.74439 0.81511 0.0
H1566 H 0.50706 0.76259 0.72427 0.0
H1567 H 0.56477 0.74297 0.75105 0.0
S1568 S 0.46641 0.75892 0.89736 0.0
N1569 N 0.44869 0.76889 0.85469 0.0
N1570 N 0.51026 0.74753 0.88343 0.0
C1571 C 0.51193 0.75152 0.84219 0.0
C1572 C 0.47881 0.76307 0.82676 0.0
C1573 C 0.50467 0.50629 0.58854 0.0
C1574 C 0.47887 0.49584 0.56177 0.0
C1575 C 0.53666 0.51771 0.57277 0.0
C1576 C 0.54384 0.51899 0.52974 0.0
H1577 H 0.50039 0.50541 0.62194 0.0
H1578 H 0.55663 0.52526 0.59433 0.0
S1579 S 0.48211 0.49581 0.44643 0.0
N1580 N 0.46052 0.48836 0.49024 0.0
N1581 N 0.52094 0.50987 0.46043 0.0
C1582 C 0.51769 0.5089 0.50258 0.0
C1583 C 0.48514 0.49726 0.51865 0.0
C1584 C 0.31532 0.01094 0.59667 0.0
C1585 C 0.34225 0.99687 0.58272 0.0
C1586 C 0.27962 0.01763 0.57236 0.0
C1587 C 0.26754 0.01064 0.53257 0.0
H1588 H 0.32226 0.01714 0.6264 0.0
H1589 H 0.26152 0.0288 0.58491 0.0
S1590 S 0.32546 0.97326 0.4811 0.0
N1591 N 0.35227 0.97585 0.52534 0.0
N1592 N 0.28624 0.98837 0.48129 0.0
C1593 C 0.29335 0.99631 0.51868 0.0
C1594 C 0.33003 0.98954 0.54312 0.0
C1595 C 0.94563 0.27255 0.54289 0.0
C1596 C 0.93868 0.26726 0.58517 0.0
C1597 C 0.98166 0.26653 0.51818 0.0
C1598 C 0.01361 0.25477 0.53397 0.0
H1599 H 0.92239 0.28138 0.52804 0.0
H1600 H 0.9833 0.27055 0.48582 0.0
S1601 S 0.01372 0.23722 0.64283 0.0
N1602 N 0.9695 0.24984 0.64142 0.0
N1603 N 0.03591 0.23848 0.59599 0.0
C1604 C 1.0076 0.24962 0.57638 0.0
C1605 C 0.97093 0.25581 0.60154 0.0
C1606 C 0.33322 0.27142 0.8096 0.0
C1607 C 0.33975 0.26615 0.76724 0.0
C1608 C 0.29693 0.26568 0.83432 0.0
C1609 C 0.26434 0.25424 0.81848 0.0
H1610 H 0.35697 0.28001 0.82449 0.0
H1611 H 0.29548 0.26969 0.86667 0.0
S1612 S 0.26291 0.23696 0.70938 0.0
N1613 N 0.30782 0.24915 0.71084 0.0
N1614 N 0.24095 0.2383 0.7563 0.0
C1615 C 0.26994 0.24912 0.77599 0.0
C1616 C 0.30685 0.25503 0.75082 0.0
C1617 C 0.99509 0.99634 0.82149 0.0
C1618 C 0.0198 0.0113 0.80906 0.0
C1619 C 0.95882 0.98989 0.79763 0.0
C1620 C 0.94442 0.99783 0.75951 0.0
H1621 H 1.00263 0.98991 0.8508 0.0
H1622 H 0.94135 0.97851 0.80989 0.0
S1623 S 0.99728 0.03736 0.71204 0.0
N1624 N 0.02665 0.03368 0.75435 0.0
N1625 N 0.95955 0.02165 0.71099 0.0
C1626 C 0.96948 0.01248 0.74619 0.0
C1627 C 1.00647 0.0191 0.77037 0.0
C1628 C 0.74504 0.99559 0.52888 0.0
C1629 C 0.76219 1.00433 0.56496 0.0
C1630 C 0.71003 1.00254 0.50413 0.0
C1631 C 0.68897 0.01873 0.51389 0.0
H1632 H 0.7584 0.98283 0.51971 0.0
H1633 H 0.69863 0.99485 0.47776 0.0
S1634 S 0.72243 0.04812 0.60257 0.0
N1635 N 0.75572 0.0309 0.60697 0.0
N1636 N 0.69115 0.044 0.56174 0.0
C1637 C 0.70671 0.02793 0.54917 0.0
C1638 C 0.74263 0.02084 0.57414 0.0
C1639 C 0.0698 0.76304 0.50625 0.0
C1640 C 0.09013 0.7466 0.5151 0.0
C1641 C 0.03598 0.77027 0.53209 0.0
C1642 C 0.01938 0.76157 0.56847 0.0
H1643 H 0.08084 0.77071 0.47971 0.0
H1644 H 0.02312 0.78319 0.52353 0.0
S1645 S 0.0578 0.71736 0.60449 0.0
N1646 N 0.08793 0.72125 0.5628 0.0
N1647 N 0.02566 0.73486 0.60996 0.0
C1648 C 0.03824 0.74486 0.57685 0.0
C1649 C 0.07291 0.73748 0.55078 0.0
C1650 C 0.74911 0.771 0.32392 0.0
C1651 C 0.76403 0.76276 0.28636 0.0
C1652 C 0.71443 0.76406 0.34911 0.0
C1653 C 0.69142 0.74844 0.33827 0.0
H1654 H 0.76402 0.78336 0.33393 0.0
H1655 H 0.70489 0.77133 0.37679 0.0
S1656 S 0.71774 0.7208 0.2444 0.0
N1657 N 0.75301 0.73738 0.24133 0.0
N1658 N 0.68877 0.72442 0.28696 0.0
C1659 C 0.70678 0.73979 0.30124 0.0
C1660 C 0.74249 0.74681 0.27597 0.0
C1661 C 0.0397 0.01993 0.27289 0.0
C1662 C 1.00962 1.00723 0.28806 0.0
C1663 C 0.0767 0.02565 0.29675 0.0
C1664 C 0.08645 0.01921 0.33763 0.0
H1665 H 0.0359 0.025 0.24155 0.0
H1666 H 0.09845 0.03518 0.28229 0.0
S1667 S 0.01655 0.98679 0.39401 0.0
N1668 N 0.99168 0.98913 0.34864 0.0
N1669 N 0.05982 0.99992 0.39242 0.0
C1670 C 0.05575 1.00702 0.35373 0.0
C1671 C 0.01813 1.00111 0.32943 0.0
C1672 C 0.27669 0.51907 0.07657 0.0
C1673 C 0.26084 0.51101 1.03912 0.0
C1674 C 0.3125 0.51219 0.10046 0.0
C1675 C 0.33579 0.4968 0.08836 0.0
H1676 H 0.26166 0.53127 0.08747 0.0
H1677 H 0.32268 0.51934 0.1281 0.0
S1678 S 0.3075 0.46966 0.99424 0.0
N1679 N 0.27147 0.48601 0.99281 0.0
N1680 N 0.3377 0.47317 1.03609 0.0
C1681 C 0.31953 0.48831 0.05148 0.0
C1682 C 0.28271 0.49528 1.02751 0.0
C1683 C 0.9406 0.77355 1.04163 0.0
C1684 C 0.9352 0.76879 0.08448 0.0
C1685 C 0.9761 0.76745 1.01631 0.0
C1686 C 1.00904 0.75611 1.03193 0.0
H1687 H 0.91651 0.78201 1.02681 0.0
H1688 H 0.97654 0.77106 0.98366 0.0
S1689 S 0.01338 0.74 0.14191 0.0
N1690 N 0.96865 0.75233 0.14098 0.0
N1691 N 0.03396 0.74077 0.09435 0.0
C1692 C 1.0046 0.75149 0.07485 0.0
C1693 C 0.96852 0.75779 0.10068 0.0
C1694 C 0.27206 0.74778 0.27221 0.0
C1695 C 0.26065 0.755 0.31198 0.0
C1696 C 0.30802 0.75404 0.24762 0.0
C1697 C 0.33585 0.76786 0.26125 0.0
H1698 H 0.25348 0.73665 0.26011 0.0
H1699 H 0.31462 0.7476 0.2181 0.0
S1700 S 0.31984 0.79251 0.36165 0.0
N1701 N 0.27991 0.77775 0.36195 0.0
N1702 N 0.34668 0.78928 0.31769 0.0
C1703 C 0.32389 0.7756 0.30049 0.0
C1704 C 0.28688 0.76934 0.32511 0.0
C1705 C 0.98452 0.4967 0.32977 0.0
C1706 C 0.01386 0.50964 0.3144 0.0
C1707 C 0.94771 0.49063 0.30608 0.0
C1708 C 0.93752 0.49689 0.26513 0.0
H1709 H 0.98871 0.49174 0.36117 0.0
H1710 H 0.92651 0.48094 0.32071 0.0
S1711 S 1.00577 0.52968 0.2081 0.0
N1712 N 0.03073 0.52774 0.25353 0.0
N1713 N 0.96312 0.51623 0.20999 0.0
C1714 C 0.96752 0.50933 0.24885 0.0
C1715 C 1.00484 0.51563 0.27302 0.0
C1716 C 0.72635 0.5158 0.08401 0.0
C1717 C 0.75831 0.50399 0.06838 0.0
C1718 C 0.69048 0.52191 0.05911 0.0
C1719 C 0.68365 0.51671 1.01671 0.0
H1720 H 0.72786 0.51979 0.11639 0.0
H1721 H 0.66727 0.53075 0.07394 0.0
S1722 S 0.75861 0.48647 0.95948 0.0
N1723 N 0.7806 0.48768 1.00641 0.0
N1724 N 0.71458 0.49921 0.96065 0.0
C1725 C 0.7159 0.5052 1.00052 0.0
C1726 C 0.75239 0.4989 1.02589 0.0
C1727 C 0.08159 0.24247 0.05947 0.0
C1728 C 0.08864 0.24774 1.01718 0.0
C1729 C 0.04554 0.24855 0.08411 0.0
C1730 C 0.0137 0.26035 0.06825 0.0
H1731 H 0.10474 0.23362 0.07436 0.0
H1732 H 0.04375 0.24451 0.11644 0.0
S1733 S 0.01387 0.27781 0.9593 0.0
N1734 N 0.05802 0.26516 0.96084 0.0
N1735 N 0.99161 0.27661 1.00611 0.0
C1736 C 0.01983 0.26547 1.02582 0.0
C1737 C 0.0565 0.25922 1.00075 0.0
C1738 C 0.71014 0.26379 0.84453 0.0
C1739 C 0.68808 0.24781 0.83506 0.0
C1740 C 0.74524 0.27036 0.81944 0.0
C1741 C 0.76141 0.2614 0.78328 0.0
H1742 H 0.69953 0.27161 0.871 0.0
H1743 H 0.75947 0.283 0.82838 0.0
S1744 S 0.71866 0.21803 0.74615 0.0
N1745 N 0.68815 0.22248 0.78729 0.0
N1746 N 0.7529 0.2349 0.74138 0.0
C1747 C 0.7408 0.2451 0.77433 0.0
C1748 C 0.70481 0.23839 0.79966 0.0
C1749 C 0.03185 0.51878 0.78032 0.0
C1750 C 1.00785 0.50356 0.79225 0.0
C1751 C 0.06741 0.52553 0.80473 0.0
C1752 C 0.08174 0.51765 0.84296 0.0
H1753 H 0.02439 0.52518 0.75095 0.0
H1754 H 0.0844 0.53709 0.79278 0.0
S1755 S 0.03048 0.47752 0.88927 0.0
N1756 N 1.00154 0.481 0.8466 0.0
N1757 N 0.06725 0.49359 0.89102 0.0
C1758 C 0.05731 0.50274 0.85579 0.0
C1759 C 0.02108 0.49581 0.83102 0.0
C1760 C 0.81369 0.01422 0.0975 0.0
C1761 C 0.83765 0.9989 0.08615 0.0
C1762 C 0.77862 0.02098 0.07249 0.0
C1763 C 0.76423 0.01282 1.03462 0.0
H1764 H 0.82271 0.02139 0.12547 0.0
H1765 H 0.76297 0.03313 0.08287 0.0
S1766 S 0.8129 0.97155 0.99139 0.0
N1767 N 0.84167 0.97521 1.03407 0.0
N1768 N 0.77666 0.9878 0.98884 0.0
C1769 C 0.78665 0.99713 1.02379 0.0
C1770 C 0.82276 0.99031 1.04885 0.0
C1771 C 0.44291 0.27331 1.04189 0.0
C1772 C 0.43644 0.26813 0.0843 0.0
C1773 C 0.47906 0.26744 1.01715 0.0
C1774 C 0.51155 0.25596 1.03304 0.0
H1775 H 0.41921 0.28191 1.02697 0.0
H1776 H 0.48043 0.27136 0.98473 0.0
S1777 S 0.51311 0.23889 0.14229 0.0
N1778 N 0.46834 0.25119 0.14082 0.0
N1779 N 0.53494 0.24009 0.0953 0.0
C1780 C 0.50603 0.25095 0.07559 0.0
C1781 C 0.46927 0.25699 0.10078 0.0
C1782 C 0.83151 0.27262 0.30905 0.0
C1783 C 0.83843 0.26758 0.2666 0.0
C1784 C 0.79543 0.26648 0.33353 0.0
C1785 C 0.7634 0.25487 0.31731 0.0
H1786 H 0.85481 0.28132 0.32421 0.0
H1787 H 0.79376 0.27031 0.36602 0.0
S1788 S 0.7632 0.23803 0.20781 0.0
N1789 N 0.80753 0.25056 0.20972 0.0
N1790 N 0.74099 0.23902 0.25468 0.0
C1791 C 0.76939 0.24998 0.27472 0.0
C1792 C 0.80612 0.25627 0.24982 0.0
C1793 C 0.49939 0.01808 0.27649 0.0
C1794 C 0.51084 0.01103 0.31639 0.0
C1795 C 0.46456 0.01121 0.25128 0.0
C1796 C 0.43791 0.99692 0.26444 0.0
H1797 H 0.51726 0.02944 0.26459 0.0
H1798 H 0.45798 0.01747 0.22156 0.0
S1799 S 0.45337 0.97313 0.36606 0.0
N1800 N 0.49193 0.98849 0.3669 0.0
N1801 N 0.42753 0.97564 0.32128 0.0
C1802 C 0.44958 0.98954 0.30416 0.0
C1803 C 0.48538 0.99648 0.32946 0.0
C1804 C 0.24921 0.99588 1.02602 0.0
C1805 C 0.26436 1.00423 0.06337 0.0
C1806 C 0.21436 1.00274 1.00089 0.0
C1807 C 0.1914 0.01839 1.01159 0.0
H1808 H 0.26404 0.98348 1.01617 0.0
H1809 H 0.20462 0.99538 0.97341 0.0
S1810 S 0.21835 0.04634 0.10481 0.0
N1811 N 0.25363 0.02976 0.10801 0.0
N1812 N 0.18911 0.04259 0.06246 0.0
C1813 C 0.20704 0.02717 1.04837 0.0
C1814 C 0.2429 0.02022 0.07358 0.0
C1815 C 0.56838 0.73886 1.04679 0.0
C1816 C 0.58281 0.74688 1.00879 0.0
C1817 C 0.53233 0.74536 0.07086 0.0
C1818 C 0.5079 0.76045 0.05875 0.0
H1819 H 0.58565 0.72737 0.0588 0.0
H1820 H 0.52475 0.73887 0.10008 0.0
S1821 S 0.53056 0.78675 0.96214 0.0
N1822 N 0.56799 0.77092 0.96074 0.0
N1823 N 0.50127 0.78303 1.00446 0.0
C1824 C 0.52124 0.76833 1.02018 0.0
C1825 C 0.55802 0.76167 0.9958 0.0
C1826 C 0.23068 0.74859 0.76787 0.0
C1827 C 0.26145 0.76088 0.78358 0.0
C1828 C 0.19436 0.74247 0.79213 0.0
C1829 C 0.18595 0.74813 0.83394 0.0
H1830 H 0.23357 0.74416 0.73592 0.0
H1831 H 0.17209 0.73323 0.77732 0.0
S1832 S 0.25784 0.77943 0.89156 0.0
N1833 N 0.28124 0.77793 0.8453 0.0
N1834 N 0.21439 0.76639 0.88984 0.0
C1835 C 0.21714 0.76005 0.85033 0.0
C1836 C 0.25406 0.76636 0.82562 0.0
C1837 C 0.54892 0.01759 0.76656 0.0
C1838 C 0.51736 1.00564 0.78221 0.0
C1839 C 0.58451 0.02393 0.79147 0.0
C1840 C 0.59134 0.01883 0.83393 0.0
H1841 H 0.54729 0.02154 0.73417 0.0
H1842 H 0.6075 0.03286 0.77665 0.0
S1843 S 0.51688 0.98854 0.8915 0.0
N1844 N 0.49512 0.98947 0.84442 0.0
N1845 N 0.56059 1.00144 0.89024 0.0
C1846 C 0.55932 1.00726 0.85023 0.0
C1847 C 0.52316 1.00072 0.82482 0.0
C1848 C 0.82175 0.48968 0.5517 0.0
C1849 C 0.83513 0.49738 0.59045 0.0
C1850 C 0.786 0.49622 0.52723 0.0
C1851 C 0.7608 0.51105 0.53959 0.0
H1852 H 0.83963 0.47842 0.53937 0.0
H1853 H 0.77931 0.48998 0.49751 0.0
S1854 S 0.78039 0.53646 0.63815 0.0
N1855 N 0.81832 0.52082 0.63952 0.0
N1856 N 0.75227 0.53305 0.59494 0.0
C1857 C 0.77309 0.51862 0.57885 0.0
C1858 C 0.80951 0.5119 0.60371 0.0
C1859 C 0.5009 0.74747 0.5748 0.0
C1860 C 0.51556 0.75546 0.53687 0.0
C1861 C 0.46501 0.7541 0.59889 0.0
C1862 C 0.44044 0.7691 0.58649 0.0
H1863 H 0.51705 0.73557 0.58601 0.0
H1864 H 0.45594 0.7471 0.62707 0.0
S1865 S 0.46499 0.79578 0.49071 0.0
N1866 N 0.50231 0.77991 0.48959 0.0
N1867 N 0.43573 0.79223 0.53312 0.0
C1868 C 0.45537 0.77749 0.54899 0.0
C1869 C 0.49233 0.77081 0.52485 0.0
C1870 C 0.79529 0.76693 0.83125 0.0
C1871 C 0.76416 0.75501 0.81463 0.0
C1872 C 0.83181 0.77318 0.80748 0.0
C1873 C 0.8401 0.76802 0.76531 0.0
H1874 H 0.79257 0.77091 0.86356 0.0
H1875 H 0.85436 0.78209 0.823 0.0
S1876 S 0.76755 0.73771 0.70555 0.0
N1877 N 0.74409 0.73875 0.75185 0.0
N1878 N 0.8113 0.75056 0.70817 0.0
C1879 C 0.80862 0.75645 0.74806 0.0
C1880 C 0.77149 0.75 0.77228 0.0
C1881 C 0.44959 0.48964 0.80301 0.0
C1882 C 0.44055 0.49566 0.7616 0.0
C1883 C 0.48537 0.496 0.82767 0.0
C1884 C 0.5149 0.50897 0.81285 0.0
H1885 H 0.4282 0.47992 0.81729 0.0
H1886 H 0.4886 0.49121 0.85931 0.0
S1887 S 0.50937 0.52871 0.70608 0.0
N1888 N 0.46717 0.515 0.70694 0.0
N1889 N 0.53308 0.52698 0.75216 0.0
C1890 C 0.50707 0.51475 0.77107 0.0
C1891 C 0.47068 0.50818 0.74595 0.0
C1892 C 0.23717 0.51636 0.57691 0.0
C1893 C 0.26602 0.5031 0.5622 0.0
C1894 C 0.20102 0.52262 0.55264 0.0
C1895 C 0.19109 0.51628 0.5117 0.0
H1896 H 0.24117 0.52142 0.60825 0.0
H1897 H 0.18012 0.53255 0.56681 0.0
S1898 S 0.25841 0.48266 0.45629 0.0
N1899 N 0.28281 0.48458 0.502 0.0
N1900 N 0.21647 0.49651 0.4573 0.0
C1901 C 0.22069 0.50354 0.49605 0.0
C1902 C 0.25731 0.49701 0.52085 0.0
C1903 C 0.54591 0.24703 0.58298 0.0
C1904 C 0.51485 0.25937 0.56805 0.0
C1905 C 0.58186 0.24111 0.55805 0.0
C1906 C 0.58948 0.24704 0.51635 0.0
H1907 H 0.54353 0.24242 0.61484 0.0
H1908 H 0.60445 0.23181 0.57223 0.0
S1909 S 0.51645 0.27854 0.46068 0.0
N1910 N 0.49381 0.27675 0.50722 0.0
N1911 N 0.56003 0.26555 0.46137 0.0
C1912 C 0.55795 0.25898 0.50072 0.0
C1913 C 0.52142 0.2651 0.52611 0.0
C1914 C 0.19433 0.24271 0.29213 0.0
C1915 C 0.18765 0.24774 0.33462 0.0
C1916 C 0.23034 0.24881 0.26749 0.0
C1917 C 0.2625 0.26041 0.28354 0.0
H1918 H 0.1709 0.23403 0.27707 0.0
H1919 H 0.23186 0.24496 0.23502 0.0
S1920 S 0.26341 0.2772 0.39306 0.0
N1921 N 0.21901 0.26471 0.39137 0.0
N1922 N 0.28533 0.27622 0.34607 0.0
C1923 C 0.25676 0.26529 0.32617 0.0
C1924 C 0.22014 0.25901 0.35126 0.0
C1925 C 0.56393 0.50399 0.3487 0.0
C1926 C 0.59039 0.5183 0.33521 0.0
C1927 C 0.52886 0.49706 0.32386 0.0
C1928 C 0.51694 0.50403 0.28399 0.0
H1929 H 0.57079 0.49781 0.37845 0.0
H1930 H 0.51114 0.48572 0.33604 0.0
S1931 S 0.57377 0.54188 0.23345 0.0
N1932 N 0.60008 0.53946 0.278 0.0
N1933 N 0.53527 0.52649 0.23313 0.0
C1934 C 0.54223 0.51858 0.27057 0.0
C1935 C 0.57827 0.52559 0.29549 0.0
loop_
_geom_bond_atom_site_label_1
_geom_bond_atom_site_label_2
_geom_bond_distance
_geom_bond_site_symmetry_2
_ccdc_geom_bond_type
C0 C1 1.351 . S
C0 N3 1.368 . S
C0 H5 0.931 . S
C1 C0 1.351 . S
C1 N2 1.373 . S
C1 H29 0.930 . S
N2 C1 1.373 . S
N2 C4 1.340 . S
N3 C0 1.368 . S
N3 C4 1.321 . S
N3 Co6 2.135 . S
C4 N2 1.340 . S
C4 N3 1.321 . S
C4 H28 0.930 . S
H5 C0 0.931 . S
Co6 N3 2.135 . S
Co6 N9 2.121 . S
Co6 O14 2.055 . S
Co6 O17 2.039 . S
Co6 N20 2.140 . S
C7 O8 1.227 . S
C7 O17 1.265 . S
O8 C7 1.227 . S
N9 Co6 2.121 . S
N9 C11 1.375 . S
N9 C12 1.313 . S
C10 C11 1.338 . S
C10 N13 1.377 . S
C10 H30 0.930 . S
C11 N9 1.375 . S
C11 C10 1.338 . S
C11 H15 0.931 . S
C12 N9 1.313 . S
C12 N13 1.344 . S
C12 H16 0.930 . S
N13 C10 1.377 . S
N13 C12 1.344 . S
O14 Co6 2.055 . S
O14 C18 1.253 . S
H15 C11 0.931 . S
H16 C12 0.930 . S
O17 Co6 2.039 . S
O17 C7 1.265 . S
C18 O14 1.253 . S
C18 O19 1.227 . S
O19 C18 1.227 . S
N20 Co6 2.140 . S
N20 C23 1.346 . S
N20 C24 1.345 . S
C21 C22 1.387 . S
C21 C25 1.391 . S
C22 C21 1.387 . S
C22 C23 1.369 . S
C22 H31 0.929 . S
C23 N20 1.346 . S
C23 C22 1.369 . S
C23 H26 0.928 . S
C24 N20 1.345 . S
C24 C25 1.371 . S
C24 H27 0.931 . S
C25 C21 1.391 . S
C25 C24 1.371 . S
C25 H32 0.930 . S
H26 C23 0.928 . S
H27 C24 0.931 . S
H28 C4 0.930 . S
H29 C1 0.930 . S
H30 C10 0.930 . S
H31 C22 0.929 . S
H32 C25 0.930 . S
C33 C34 1.351 . S
C33 N36 1.368 . S
C33 H38 0.931 . S
C34 C33 1.351 . S
C34 N35 1.373 . S
C34 H62 0.930 . S
N35 C34 1.373 . S
N35 C37 1.340 . S
N36 C33 1.368 . S
N36 C37 1.321 . S
N36 Co39 2.135 . S
C37 N35 1.340 . S
C37 N36 1.321 . S
C37 H61 0.930 . S
H38 C33 0.931 . S
Co39 N36 2.135 . S
Co39 N42 2.121 . S
Co39 O47 2.055 . S
Co39 O50 2.039 . S
Co39 N53 2.140 . S
C40 O41 1.227 . S
C40 O50 1.265 . S
O41 C40 1.227 . S
N42 Co39 2.121 . S
N42 C44 1.375 . S
N42 C45 1.313 1_455 S
C43 C44 1.338 1_655 S
C43 N46 1.377 . S
C43 H63 0.930 . S
C44 N42 1.375 . S
C44 C43 1.338 1_455 S
C44 H48 0.931 . S
C45 N42 1.313 1_655 S
C45 N46 1.344 . S
C45 H49 0.930 . S
N46 C43 1.377 . S
N46 C45 1.344 . S
O47 Co39 2.055 . S
O47 C51 1.253 . S
H48 C44 0.931 . S
H49 C45 0.930 . S
O50 Co39 2.039 . S
O50 C40 1.265 . S
C51 O47 1.253 . S
C51 O52 1.227 . S
O52 C51 1.227 . S
N53 Co39 2.140 . S
N53 C56 1.346 . S
N53 C57 1.345 . S
C54 C55 1.387 . S
C54 C58 1.391 . S
C55 C54 1.387 . S
C55 C56 1.369 . S
C55 H64 0.929 . S
C56 N53 1.346 . S
C56 C55 1.369 . S
C56 H59 0.928 . S
C57 N53 1.345 . S
C57 C58 1.371 . S
C57 H60 0.931 . S
C58 C54 1.391 . S
C58 C57 1.371 . S
C58 H65 0.930 . S
H59 C56 0.928 . S
H60 C57 0.931 . S
H61 C37 0.930 . S
H62 C34 0.930 . S
H63 C43 0.930 . S
H64 C55 0.929 . S
H65 C58 0.930 . S
C66 C67 1.351 . S
C66 N69 1.368 . S
C66 H71 0.931 . S
C67 C66 1.351 . S
C67 N68 1.373 . S
C67 H95 0.930 . S
N68 C67 1.373 . S
N68 C70 1.340 . S
N69 C66 1.368 . S
N69 C70 1.321 . S
N69 Co72 2.135 . S
C70 N68 1.340 . S
C70 N69 1.321 . S
C70 H94 0.930 . S
H71 C66 0.931 . S
Co72 N69 2.135 . S
Co72 N75 2.121 . S
Co72 O80 2.055 . S
Co72 O83 2.039 . S
Co72 N86 2.140 . S
C73 O74 1.227 . S
C73 O83 1.265 . S
O74 C73 1.227 . S
N75 Co72 2.121 . S
N75 C77 1.375 . S
N75 C78 1.313 . S
C76 C77 1.338 . S
C76 N79 1.377 . S
C76 H96 0.930 . S
C77 N75 1.375 . S
C77 C76 1.338 . S
C77 H81 0.931 . S
C78 N75 1.313 . S
C78 N79 1.344 . S
C78 H82 0.930 . S
N79 C76 1.377 . S
N79 C78 1.344 . S
O80 Co72 2.055 . S
O80 C84 1.253 . S
H81 C77 0.931 . S
H82 C78 0.930 . S
O83 Co72 2.039 . S
O83 C73 1.265 . S
C84 O80 1.253 . S
C84 O85 1.227 . S
O85 C84 1.227 . S
N86 Co72 2.140 . S
N86 C89 1.346 . S
N86 C90 1.345 . S
C87 C88 1.387 . S
C87 C91 1.391 . S
C88 C87 1.387 . S
C88 C89 1.369 . S
C88 H97 0.929 . S
C89 N86 1.346 . S
C89 C88 1.369 . S
C89 H92 0.928 . S
C90 N86 1.345 . S
C90 C91 1.371 . S
C90 H93 0.931 . S
C91 C87 1.391 . S
C91 C90 1.371 . S
C91 H98 0.930 . S
H92 C89 0.928 . S
H93 C90 0.931 . S
H94 C70 0.930 . S
H95 C67 0.930 . S
H96 C76 0.930 . S
H97 C88 0.929 . S
H98 C91 0.930 . S
C99 C100 1.351 . S
C99 N102 1.368 . S
C99 H104 0.931 . S
C100 C99 1.351 . S
C100 N101 1.373 . S
C100 H128 0.930 . S
N101 C100 1.373 . S
N101 C103 1.340 . S
N102 C99 1.368 . S
N102 C103 1.321 . S
N102 Co105 2.135 . S
C103 N101 1.340 . S
C103 N102 1.321 . S
C103 H127 0.930 . S
H104 C99 0.931 . S
Co105 N102 2.135 . S
Co105 N108 2.121 . S
Co105 O113 2.055 . S
Co105 O116 2.039 . S
Co105 N119 2.140 . S
C106 O107 1.227 . S
C106 O116 1.265 . S
O107 C106 1.227 . S
N108 Co105 2.121 . S
N108 C110 1.375 . S
N108 C111 1.313 1_455 S
C109 C110 1.338 1_655 S
C109 N112 1.377 . S
C109 H129 0.930 . S
C110 N108 1.375 . S
C110 C109 1.338 1_455 S
C110 H114 0.931 . S
C111 N108 1.313 1_655 S
C111 N112 1.344 . S
C111 H115 0.930 . S
N112 C109 1.377 . S
N112 C111 1.344 . S
O113 Co105 2.055 . S
O113 C117 1.253 . S
H114 C110 0.931 . S
H115 C111 0.930 . S
O116 Co105 2.039 . S
O116 C106 1.265 . S
C117 O113 1.253 . S
C117 O118 1.227 . S
O118 C117 1.227 . S
N119 Co105 2.140 . S
N119 C122 1.346 . S
N119 C123 1.345 . S
C120 C121 1.387 . S
C120 C124 1.391 . S
C121 C120 1.387 . S
C121 C122 1.369 . S
C121 H130 0.929 . S
C122 N119 1.346 . S
C122 C121 1.369 . S
C122 H125 0.928 . S
C123 N119 1.345 . S
C123 C124 1.371 . S
C123 H126 0.931 . S
C124 C120 1.391 . S
C124 C123 1.371 . S
C124 H131 0.930 . S
H125 C122 0.928 . S
H126 C123 0.931 . S
H127 C103 0.930 . S
H128 C100 0.930 . S
H129 C109 0.930 . S
H130 C121 0.929 . S
H131 C124 0.930 . S
C132 C133 1.351 . S
C132 N135 1.368 . S
C132 H137 0.931 . S
C133 C132 1.351 . S
C133 N134 1.373 . S
C133 H161 0.930 . S
N134 C133 1.373 . S
N134 C136 1.340 . S
N135 C132 1.368 . S
N135 C136 1.321 . S
N135 Co138 2.135 . S
C136 N134 1.340 . S
C136 N135 1.321 . S
C136 H160 0.930 . S
H137 C132 0.931 . S
Co138 N135 2.135 . S
Co138 N141 2.121 . S
Co138 O146 2.055 . S
Co138 O149 2.039 . S
Co138 N152 2.140 . S
C139 O140 1.227 . S
C139 O149 1.265 . S
O140 C139 1.227 . S
N141 Co138 2.121 . S
N141 C143 1.375 . S
N141 C144 1.313 . S
C142 C143 1.338 . S
C142 N145 1.377 . S
C142 H162 0.930 . S
C143 N141 1.375 . S
C143 C142 1.338 . S
C143 H147 0.931 . S
C144 N141 1.313 . S
C144 N145 1.344 . S
C144 H148 0.930 . S
N145 C142 1.377 . S
N145 C144 1.344 . S
O146 Co138 2.055 . S
O146 C150 1.253 . S
H147 C143 0.931 . S
H148 C144 0.930 . S
O149 Co138 2.039 . S
O149 C139 1.265 . S
C150 O146 1.253 . S
C150 O151 1.227 . S
O151 C150 1.227 . S
N152 Co138 2.140 . S
N152 C155 1.346 . S
N152 C156 1.345 . S
C153 C154 1.387 . S
C153 C157 1.391 . S
C154 C153 1.387 . S
C154 C155 1.369 . S
C154 H163 0.929 . S
C155 N152 1.346 . S
C155 C154 1.369 . S
C155 H158 0.928 . S
C156 N152 1.345 . S
C156 C157 1.371 . S
C156 H159 0.931 . S
C157 C153 1.391 . S
C157 C156 1.371 . S
C157 H164 0.930 . S
H158 C155 0.928 . S
H159 C156 0.931 . S
H160 C136 0.930 . S
H161 C133 0.930 . S
H162 C142 0.930 . S
H163 C154 0.929 . S
H164 C157 0.930 . S
C165 C166 1.351 . S
C165 N168 1.368 . S
C165 H170 0.931 . S
C166 C165 1.351 . S
C166 N167 1.373 . S
C166 H194 0.930 . S
N167 C166 1.373 . S
N167 C169 1.340 . S
N168 C165 1.368 . S
N168 C169 1.321 . S
N168 Co171 2.135 . S
C169 N167 1.340 . S
C169 N168 1.321 . S
C169 H193 0.930 . S
H170 C165 0.931 . S
Co171 N168 2.135 . S
Co171 N174 2.121 . S
Co171 O179 2.055 . S
Co171 O182 2.039 . S
Co171 N185 2.140 . S
C172 O173 1.227 . S
C172 O182 1.265 . S
O173 C172 1.227 . S
N174 Co171 2.121 . S
N174 C176 1.375 . S
N174 C177 1.313 1_655 S
C175 C176 1.338 1_455 S
C175 N178 1.377 . S
C175 H195 0.930 . S
C176 N174 1.375 . S
C176 C175 1.338 1_655 S
C176 H180 0.931 . S
C177 N174 1.313 1_455 S
C177 N178 1.344 . S
C177 H181 0.930 . S
N178 C175 1.377 . S
N178 C177 1.344 . S
O179 Co171 2.055 . S
O179 C183 1.253 . S
H180 C176 0.931 . S
H181 C177 0.930 . S
O182 Co171 2.039 . S
O182 C172 1.265 . S
C183 O179 1.253 . S
C183 O184 1.227 . S
O184 C183 1.227 . S
N185 Co171 2.140 . S
N185 C188 1.346 . S
N185 C189 1.345 . S
C186 C187 1.387 . S
C186 C190 1.391 . S
C187 C186 1.387 . S
C187 C188 1.369 . S
C187 H196 0.929 . S
C188 N185 1.346 . S
C188 C187 1.369 . S
C188 H191 0.928 . S
C189 N185 1.345 . S
C189 C190 1.371 . S
C189 H192 0.931 . S
C190 C186 1.391 . S
C190 C189 1.371 . S
C190 H197 0.930 . S
H191 C188 0.928 . S
H192 C189 0.931 . S
H193 C169 0.930 . S
H194 C166 0.930 . S
H195 C175 0.930 . S
H196 C187 0.929 . S
H197 C190 0.930 . S
C198 C199 1.351 . S
C198 N201 1.368 . S
C198 H203 0.931 . S
C199 C198 1.351 . S
C199 N200 1.373 . S
C199 H227 0.930 . S
N200 C199 1.373 . S
N200 C202 1.340 . S
N201 C198 1.368 . S
N201 C202 1.321 . S
N201 Co204 2.135 . S
C202 N200 1.340 . S
C202 N201 1.321 . S
C202 H226 0.930 . S
H203 C198 0.931 . S
Co204 N201 2.135 . S
Co204 N207 2.121 . S
Co204 O212 2.055 . S
Co204 O215 2.039 . S
Co204 N218 2.140 . S
C205 O206 1.227 . S
C205 O215 1.265 . S
O206 C205 1.227 . S
N207 Co204 2.121 . S
N207 C209 1.375 . S
N207 C210 1.313 . S
C208 C209 1.338 . S
C208 N211 1.377 . S
C208 H228 0.930 . S
C209 N207 1.375 . S
C209 C208 1.338 . S
C209 H213 0.931 . S
C210 N207 1.313 . S
C210 N211 1.344 . S
C210 H214 0.930 . S
N211 C208 1.377 . S
N211 C210 1.344 . S
O212 Co204 2.055 . S
O212 C216 1.253 . S
H213 C209 0.931 . S
H214 C210 0.930 . S
O215 Co204 2.039 . S
O215 C205 1.265 . S
C216 O212 1.253 . S
C216 O217 1.227 . S
O217 C216 1.227 . S
N218 Co204 2.140 . S
N218 C221 1.346 . S
N218 C222 1.345 . S
C219 C220 1.387 . S
C219 C223 1.391 . S
C220 C219 1.387 . S
C220 C221 1.369 . S
C220 H229 0.929 . S
C221 N218 1.346 . S
C221 C220 1.369 . S
C221 H224 0.928 . S
C222 N218 1.345 . S
C222 C223 1.371 . S
C222 H225 0.931 . S
C223 C219 1.391 . S
C223 C222 1.371 . S
C223 H230 0.930 . S
H224 C221 0.928 . S
H225 C222 0.931 . S
H226 C202 0.930 . S
H227 C199 0.930 . S
H228 C208 0.930 . S
H229 C220 0.929 . S
H230 C223 0.930 . S
C231 C232 1.351 . S
C231 N234 1.368 . S
C231 H236 0.931 . S
C232 C231 1.351 . S
C232 N233 1.373 . S
C232 H260 0.930 . S
N233 C232 1.373 . S
N233 C235 1.340 . S
N234 C231 1.368 . S
N234 C235 1.321 . S
N234 Co237 2.135 . S
C235 N233 1.340 . S
C235 N234 1.321 . S
C235 H259 0.930 . S
H236 C231 0.931 . S
Co237 N234 2.135 . S
Co237 N240 2.121 . S
Co237 O245 2.055 . S
Co237 O248 2.039 . S
Co237 N251 2.140 . S
C238 O239 1.227 . S
C238 O248 1.265 . S
O239 C238 1.227 . S
N240 Co237 2.121 . S
N240 C242 1.375 . S
N240 C243 1.313 1_655 S
C241 C242 1.338 1_455 S
C241 N244 1.377 . S
C241 H261 0.930 . S
C242 N240 1.375 . S
C242 C241 1.338 1_655 S
C242 H246 0.931 . S
C243 N240 1.313 1_455 S
C243 N244 1.344 . S
C243 H247 0.930 . S
N244 C241 1.377 . S
N244 C243 1.344 . S
O245 Co237 2.055 . S
O245 C249 1.253 . S
H246 C242 0.931 . S
H247 C243 0.930 . S
O248 Co237 2.039 . S
O248 C238 1.265 . S
C249 O245 1.253 . S
C249 O250 1.227 . S
O250 C249 1.227 . S
N251 Co237 2.140 . S
N251 C254 1.346 . S
N251 C255 1.345 . S
C252 C253 1.387 . S
C252 C256 1.391 . S
C253 C252 1.387 . S
C253 C254 1.369 . S
C253 H262 0.929 . S
C254 N251 1.346 . S
C254 C253 1.369 . S
C254 H257 0.928 . S
C255 N251 1.345 . S
C255 C256 1.371 . S
C255 H258 0.931 . S
C256 C252 1.391 . S
C256 C255 1.371 . S
C256 H263 0.930 . S
H257 C254 0.928 . S
H258 C255 0.931 . S
H259 C235 0.930 . S
H260 C232 0.930 . S
H261 C241 0.930 . S
H262 C253 0.929 . S
H263 C256 0.930 . S
C264 C265 1.351 . S
C264 N267 1.368 1_554 S
C264 H269 0.931 . S
C265 C264 1.351 . S
C265 N266 1.366 1_554 S
C265 H293 0.930 . S
N266 C265 1.366 1_556 S
N266 C268 1.348 . S
N267 C264 1.368 1_556 S
N267 C268 1.321 . S
N267 Co270 2.135 . S
C268 N266 1.348 . S
C268 N267 1.321 . S
C268 H292 0.930 . S
H269 C264 0.931 . S
Co270 N267 2.135 . S
Co270 N273 2.121 . S
Co270 O278 2.055 . S
Co270 O281 2.039 . S
Co270 N284 2.140 . S
C271 O272 1.227 . S
C271 O281 1.265 . S
O272 C271 1.227 . S
N273 Co270 2.121 . S
N273 C275 1.375 . S
N273 C276 1.313 . S
C274 C275 1.338 . S
C274 N277 1.377 . S
C274 H294 0.930 . S
C275 N273 1.375 . S
C275 C274 1.338 . S
C275 H279 0.931 . S
C276 N273 1.313 . S
C276 N277 1.344 . S
C276 H280 0.930 . S
N277 C274 1.377 . S
N277 C276 1.344 . S
O278 Co270 2.055 . S
O278 C282 1.253 . S
H279 C275 0.931 . S
H280 C276 0.930 . S
O281 Co270 2.039 . S
O281 C271 1.265 . S
C282 O278 1.253 . S
C282 O283 1.227 . S
O283 C282 1.227 . S
N284 Co270 2.140 . S
N284 C287 1.346 . S
N284 C288 1.345 . S
C285 C286 1.387 . S
C285 C289 1.391 . S
C286 C285 1.387 . S
C286 C287 1.369 . S
C286 H295 0.929 . S
C287 N284 1.346 . S
C287 C286 1.369 . S
C287 H290 0.928 . S
C288 N284 1.345 . S
C288 C289 1.371 . S
C288 H291 0.931 . S
C289 C285 1.391 . S
C289 C288 1.371 . S
C289 H296 0.930 . S
H290 C287 0.928 . S
H291 C288 0.931 . S
H292 C268 0.930 . S
H293 C265 0.930 . S
H294 C274 0.930 . S
H295 C286 0.929 . S
H296 C289 0.930 . S
C297 C298 1.351 . S
C297 N300 1.368 1_554 S
C297 H302 0.931 . S
C298 C297 1.351 . S
C298 N299 1.366 1_554 S
C298 H326 0.930 . S
N299 C298 1.366 1_556 S
N299 C301 1.348 . S
N300 C297 1.368 1_556 S
N300 C301 1.321 . S
N300 Co303 2.135 . S
C301 N299 1.348 . S
C301 N300 1.321 . S
C301 H325 0.930 . S
H302 C297 0.931 . S
Co303 N300 2.135 . S
Co303 N306 2.121 . S
Co303 O311 2.055 . S
Co303 O314 2.039 . S
Co303 N317 2.140 . S
C304 O305 1.227 . S
C304 O314 1.265 . S
O305 C304 1.227 . S
N306 Co303 2.121 . S
N306 C308 1.375 . S
N306 C309 1.313 1_455 S
C307 C308 1.338 1_655 S
C307 N310 1.377 . S
C307 H327 0.930 . S
C308 N306 1.375 . S
C308 C307 1.338 1_455 S
C308 H312 0.931 . S
C309 N306 1.313 1_655 S
C309 N310 1.344 . S
C309 H313 0.930 . S
N310 C307 1.377 . S
N310 C309 1.344 . S
O311 Co303 2.055 . S
O311 C315 1.253 . S
H312 C308 0.931 . S
H313 C309 0.930 . S
O314 Co303 2.039 . S
O314 C304 1.265 . S
C315 O311 1.253 . S
C315 O316 1.227 . S
O316 C315 1.227 . S
N317 Co303 2.140 . S
N317 C320 1.346 . S
N317 C321 1.345 . S
C318 C319 1.387 . S
C318 C322 1.391 . S
C319 C318 1.387 . S
C319 C320 1.369 . S
C319 H328 0.929 . S
C320 N317 1.346 . S
C320 C319 1.369 . S
C320 H323 0.928 . S
C321 N317 1.345 . S
C321 C322 1.371 . S
C321 H324 0.931 . S
C322 C318 1.391 . S
C322 C321 1.371 . S
C322 H329 0.930 . S
H323 C320 0.928 . S
H324 C321 0.931 . S
H325 C301 0.930 . S
H326 C298 0.930 . S
H327 C307 0.930 . S
H328 C319 0.929 . S
H329 C322 0.930 . S
C330 C331 1.351 . S
C330 N333 1.368 . S
C330 H335 0.931 . S
C331 C330 1.351 . S
C331 N332 1.373 . S
C331 H359 0.930 . S
N332 C331 1.373 . S
N332 C334 1.340 . S
N333 C330 1.368 . S
N333 C334 1.321 . S
N333 Co336 2.135 . S
C334 N332 1.340 . S
C334 N333 1.321 . S
C334 H358 0.930 . S
H335 C330 0.931 . S
Co336 N333 2.135 . S
Co336 N339 2.121 . S
Co336 O344 2.055 . S
Co336 O347 2.039 . S
Co336 N350 2.140 . S
C337 O338 1.227 . S
C337 O347 1.265 . S
O338 C337 1.227 . S
N339 Co336 2.121 . S
N339 C341 1.375 . S
N339 C342 1.313 . S
C340 C341 1.338 . S
C340 N343 1.377 . S
C340 H360 0.930 . S
C341 N339 1.375 . S
C341 C340 1.338 . S
C341 H345 0.931 . S
C342 N339 1.313 . S
C342 N343 1.344 . S
C342 H346 0.930 . S
N343 C340 1.377 . S
N343 C342 1.344 . S
O344 Co336 2.055 . S
O344 C348 1.253 . S
H345 C341 0.931 . S
H346 C342 0.930 . S
O347 Co336 2.039 . S
O347 C337 1.265 . S
C348 O344 1.253 . S
C348 O349 1.227 . S
O349 C348 1.227 . S
N350 Co336 2.140 . S
N350 C353 1.346 . S
N350 C354 1.345 . S
C351 C352 1.387 . S
C351 C355 1.391 . S
C352 C351 1.387 . S
C352 C353 1.369 . S
C352 H361 0.929 . S
C353 N350 1.346 . S
C353 C352 1.369 . S
C353 H356 0.928 . S
C354 N350 1.345 . S
C354 C355 1.371 . S
C354 H357 0.931 . S
C355 C351 1.391 . S
C355 C354 1.371 . S
C355 H362 0.930 . S
H356 C353 0.928 . S
H357 C354 0.931 . S
H358 C334 0.930 . S
H359 C331 0.930 . S
H360 C340 0.930 . S
H361 C352 0.929 . S
H362 C355 0.930 . S
C363 C364 1.351 . S
C363 N366 1.368 . S
C363 H368 0.931 . S
C364 C363 1.351 . S
C364 N365 1.373 . S
C364 H392 0.930 . S
N365 C364 1.373 . S
N365 C367 1.340 . S
N366 C363 1.368 . S
N366 C367 1.321 . S
N366 Co369 2.135 . S
C367 N365 1.340 . S
C367 N366 1.321 . S
C367 H391 0.930 . S
H368 C363 0.931 . S
Co369 N366 2.135 . S
Co369 N372 2.121 . S
Co369 O377 2.055 . S
Co369 O380 2.039 . S
Co369 N383 2.140 . S
C370 O371 1.227 . S
C370 O380 1.265 . S
O371 C370 1.227 . S
N372 Co369 2.121 . S
N372 C374 1.375 . S
N372 C375 1.313 1_455 S
C373 C374 1.338 1_655 S
C373 N376 1.377 . S
C373 H393 0.930 . S
C374 N372 1.375 . S
C374 C373 1.338 1_455 S
C374 H378 0.931 . S
C375 N372 1.313 1_655 S
C375 N376 1.344 . S
C375 H379 0.930 . S
N376 C373 1.377 . S
N376 C375 1.344 . S
O377 Co369 2.055 . S
O377 C381 1.253 . S
H378 C374 0.931 . S
H379 C375 0.930 . S
O380 Co369 2.039 . S
O380 C370 1.265 . S
C381 O377 1.253 . S
C381 O382 1.227 . S
O382 C381 1.227 . S
N383 Co369 2.140 . S
N383 C386 1.346 . S
N383 C387 1.345 . S
C384 C385 1.387 . S
C384 C388 1.391 . S
C385 C384 1.387 . S
C385 C386 1.369 . S
C385 H394 0.929 . S
C386 N383 1.346 . S
C386 C385 1.369 . S
C386 H389 0.928 . S
C387 N383 1.345 . S
C387 C388 1.371 . S
C387 H390 0.931 . S
C388 C384 1.391 . S
C388 C387 1.371 . S
C388 H395 0.930 . S
H389 C386 0.928 . S
H390 C387 0.931 . S
H391 C367 0.930 . S
H392 C364 0.930 . S
H393 C373 0.930 . S
H394 C385 0.929 . S
H395 C388 0.930 . S
C396 C397 1.351 . S
C396 N399 1.368 1_556 S
C396 H401 0.931 . S
C397 C396 1.351 . S
C397 N398 1.366 1_556 S
C397 H425 0.930 . S
N398 C397 1.366 1_554 S
N398 C400 1.348 . S
N399 C396 1.368 1_554 S
N399 C400 1.321 . S
N399 Co402 2.135 . S
C400 N398 1.348 . S
C400 N399 1.321 . S
C400 H424 0.930 . S
H401 C396 0.931 . S
Co402 N399 2.135 . S
Co402 N405 2.121 . S
Co402 O410 2.055 . S
Co402 O413 2.039 . S
Co402 N416 2.140 . S
C403 O404 1.227 . S
C403 O413 1.265 . S
O404 C403 1.227 . S
N405 Co402 2.121 . S
N405 C407 1.375 . S
N405 C408 1.313 . S
C406 C407 1.338 . S
C406 N409 1.377 . S
C406 H426 0.930 . S
C407 N405 1.375 . S
C407 C406 1.338 . S
C407 H411 0.931 . S
C408 N405 1.313 . S
C408 N409 1.344 . S
C408 H412 0.930 . S
N409 C406 1.377 . S
N409 C408 1.344 . S
O410 Co402 2.055 . S
O410 C414 1.253 . S
H411 C407 0.931 . S
H412 C408 0.930 . S
O413 Co402 2.039 . S
O413 C403 1.265 . S
C414 O410 1.253 . S
C414 O415 1.227 . S
O415 C414 1.227 . S
N416 Co402 2.140 . S
N416 C419 1.346 . S
N416 C420 1.345 . S
C417 C418 1.387 . S
C417 C421 1.391 . S
C418 C417 1.387 . S
C418 C419 1.369 . S
C418 H427 0.929 . S
C419 N416 1.346 . S
C419 C418 1.369 . S
C419 H422 0.928 . S
C420 N416 1.345 . S
C420 C421 1.371 . S
C420 H423 0.931 . S
C421 C417 1.391 . S
C421 C420 1.371 . S
C421 H428 0.930 . S
H422 C419 0.928 . S
H423 C420 0.931 . S
H424 C400 0.930 . S
H425 C397 0.930 . S
H426 C406 0.930 . S
H427 C418 0.929 . S
H428 C421 0.930 . S
C429 C430 1.351 . S
C429 N432 1.368 1_556 S
C429 H434 0.931 . S
C430 C429 1.351 . S
C430 N431 1.366 1_556 S
C430 H458 0.930 . S
N431 C430 1.366 1_554 S
N431 C433 1.348 . S
N432 C429 1.368 1_554 S
N432 C433 1.321 . S
N432 Co435 2.135 . S
C433 N431 1.348 . S
C433 N432 1.321 . S
C433 H457 0.930 . S
H434 C429 0.931 . S
Co435 N432 2.135 . S
Co435 N438 2.121 . S
Co435 O443 2.055 . S
Co435 O446 2.039 . S
Co435 N449 2.140 . S
C436 O437 1.227 . S
C436 O446 1.265 . S
O437 C436 1.227 . S
N438 Co435 2.121 . S
N438 C440 1.375 . S
N438 C441 1.313 1_655 S
C439 C440 1.338 1_455 S
C439 N442 1.377 . S
C439 H459 0.930 . S
C440 N438 1.375 . S
C440 C439 1.338 1_655 S
C440 H444 0.931 . S
C441 N438 1.313 1_455 S
C441 N442 1.344 . S
C441 H445 0.930 . S
N442 C439 1.377 . S
N442 C441 1.344 . S
O443 Co435 2.055 . S
O443 C447 1.253 . S
H444 C440 0.931 . S
H445 C441 0.930 . S
O446 Co435 2.039 . S
O446 C436 1.265 . S
C447 O443 1.253 . S
C447 O448 1.227 . S
O448 C447 1.227 . S
N449 Co435 2.140 . S
N449 C452 1.346 . S
N449 C453 1.345 . S
C450 C451 1.387 . S
C450 C454 1.391 . S
C451 C450 1.387 . S
C451 C452 1.369 . S
C451 H460 0.929 . S
C452 N449 1.346 . S
C452 C451 1.369 . S
C452 H455 0.928 . S
C453 N449 1.345 . S
C453 C454 1.371 . S
C453 H456 0.931 . S
C454 C450 1.391 . S
C454 C453 1.371 . S
C454 H461 0.930 . S
H455 C452 0.928 . S
H456 C453 0.931 . S
H457 C433 0.930 . S
H458 C430 0.930 . S
H459 C439 0.930 . S
H460 C451 0.929 . S
H461 C454 0.930 . S
C462 C463 1.351 . S
C462 N465 1.368 . S
C462 H467 0.931 . S
C463 C462 1.351 . S
C463 N464 1.373 . S
C463 H491 0.930 . S
N464 C463 1.373 . S
N464 C466 1.340 . S
N465 C462 1.368 . S
N465 C466 1.321 . S
N465 Co468 2.135 . S
C466 N464 1.340 . S
C466 N465 1.321 . S
C466 H490 0.930 . S
H467 C462 0.931 . S
Co468 N465 2.135 . S
Co468 N471 2.121 . S
Co468 O476 2.055 . S
Co468 O479 2.039 . S
Co468 N482 2.140 . S
C469 O470 1.227 . S
C469 O479 1.265 . S
O470 C469 1.227 . S
N471 Co468 2.121 . S
N471 C473 1.375 . S
N471 C474 1.313 . S
C472 C473 1.338 . S
C472 N475 1.377 . S
C472 H492 0.930 . S
C473 N471 1.375 . S
C473 C472 1.338 . S
C473 H477 0.931 . S
C474 N471 1.313 . S
C474 N475 1.344 . S
C474 H478 0.930 . S
N475 C472 1.377 . S
N475 C474 1.344 . S
O476 Co468 2.055 . S
O476 C480 1.253 . S
H477 C473 0.931 . S
H478 C474 0.930 . S
O479 Co468 2.039 . S
O479 C469 1.265 . S
C480 O476 1.253 . S
C480 O481 1.227 . S
O481 C480 1.227 . S
N482 Co468 2.140 . S
N482 C485 1.346 . S
N482 C486 1.345 . S
C483 C484 1.387 . S
C483 C487 1.391 . S
C484 C483 1.387 . S
C484 C485 1.369 . S
C484 H493 0.929 . S
C485 N482 1.346 . S
C485 C484 1.369 . S
C485 H488 0.928 . S
C486 N482 1.345 . S
C486 C487 1.371 . S
C486 H489 0.931 . S
C487 C483 1.391 . S
C487 C486 1.371 . S
C487 H494 0.930 . S
H488 C485 0.928 . S
H489 C486 0.931 . S
H490 C466 0.930 . S
H491 C463 0.930 . S
H492 C472 0.930 . S
H493 C484 0.929 . S
H494 C487 0.930 . S
C495 C496 1.351 . S
C495 N498 1.368 . S
C495 H500 0.931 . S
C496 C495 1.351 . S
C496 N497 1.373 . S
C496 H524 0.930 . S
N497 C496 1.373 . S
N497 C499 1.340 . S
N498 C495 1.368 . S
N498 C499 1.321 . S
N498 Co501 2.135 . S
C499 N497 1.340 . S
C499 N498 1.321 . S
C499 H523 0.930 . S
H500 C495 0.931 . S
Co501 N498 2.135 . S
Co501 N504 2.121 . S
Co501 O509 2.055 . S
Co501 O512 2.039 . S
Co501 N515 2.140 . S
C502 O503 1.227 . S
C502 O512 1.265 . S
O503 C502 1.227 . S
N504 Co501 2.121 . S
N504 C506 1.375 . S
N504 C507 1.313 1_655 S
C505 C506 1.338 1_455 S
C505 N508 1.377 . S
C505 H525 0.930 . S
C506 N504 1.375 . S
C506 C505 1.338 1_655 S
C506 H510 0.931 . S
C507 N504 1.313 1_455 S
C507 N508 1.344 . S
C507 H511 0.930 . S
N508 C505 1.377 . S
N508 C507 1.344 . S
O509 Co501 2.055 . S
O509 C513 1.253 . S
H510 C506 0.931 . S
H511 C507 0.930 . S
O512 Co501 2.039 . S
O512 C502 1.265 . S
C513 O509 1.253 . S
C513 O514 1.227 . S
O514 C513 1.227 . S
N515 Co501 2.140 . S
N515 C518 1.346 . S
N515 C519 1.345 . S
C516 C517 1.387 . S
C516 C520 1.391 . S
C517 C516 1.387 . S
C517 C518 1.369 . S
C517 H526 0.929 . S
C518 N515 1.346 . S
C518 C517 1.369 . S
C518 H521 0.928 . S
C519 N515 1.345 . S
C519 C520 1.371 . S
C519 H522 0.931 . S
C520 C516 1.391 . S
C520 C519 1.371 . S
C520 H527 0.930 . S
H521 C518 0.928 . S
H522 C519 0.931 . S
H523 C499 0.930 . S
H524 C496 0.930 . S
H525 C505 0.930 . S
H526 C517 0.929 . S
H527 C520 0.930 . S
C528 C529 1.351 . S
C528 N531 1.368 1_554 S
C528 H533 0.931 . S
C529 C528 1.351 . S
C529 N530 1.366 1_554 S
C529 H557 0.930 . S
N530 C529 1.366 1_556 S
N530 C532 1.348 . S
N531 C528 1.368 1_556 S
N531 C532 1.321 . S
N531 Co534 2.135 . S
C532 N530 1.348 . S
C532 N531 1.321 . S
C532 H556 0.930 . S
H533 C528 0.931 . S
Co534 N531 2.135 . S
Co534 N537 2.121 . S
Co534 O542 2.055 . S
Co534 O545 2.039 . S
Co534 N548 2.140 . S
C535 O536 1.227 . S
C535 O545 1.265 . S
O536 C535 1.227 . S
N537 Co534 2.121 . S
N537 C539 1.375 . S
N537 C540 1.313 . S
C538 C539 1.338 . S
C538 N541 1.377 . S
C538 H558 0.930 . S
C539 N537 1.375 . S
C539 C538 1.338 . S
C539 H543 0.931 . S
C540 N537 1.313 . S
C540 N541 1.344 . S
C540 H544 0.930 . S
N541 C538 1.377 . S
N541 C540 1.344 . S
O542 Co534 2.055 . S
O542 C546 1.253 . S
H543 C539 0.931 . S
H544 C540 0.930 . S
O545 Co534 2.039 . S
O545 C535 1.265 . S
C546 O542 1.253 . S
C546 O547 1.227 . S
O547 C546 1.227 . S
N548 Co534 2.140 . S
N548 C551 1.346 . S
N548 C552 1.345 . S
C549 C550 1.387 . S
C549 C553 1.391 . S
C550 C549 1.387 . S
C550 C551 1.369 . S
C550 H559 0.929 . S
C551 N548 1.346 . S
C551 C550 1.369 . S
C551 H554 0.928 . S
C552 N548 1.345 . S
C552 C553 1.371 . S
C552 H555 0.931 . S
C553 C549 1.391 . S
C553 C552 1.371 . S
C553 H560 0.930 . S
H554 C551 0.928 . S
H555 C552 0.931 . S
H556 C532 0.930 . S
H557 C529 0.930 . S
H558 C538 0.930 . S
H559 C550 0.929 . S
H560 C553 0.930 . S
C561 C562 1.351 . S
C561 N564 1.368 1_554 S
C561 H566 0.931 . S
C562 C561 1.351 . S
C562 N563 1.366 1_554 S
C562 H590 0.930 . S
N563 C562 1.366 1_556 S
N563 C565 1.348 . S
N564 C561 1.368 1_556 S
N564 C565 1.321 . S
N564 Co567 2.135 . S
C565 N563 1.348 . S
C565 N564 1.321 . S
C565 H589 0.930 . S
H566 C561 0.931 . S
Co567 N564 2.135 . S
Co567 N570 2.121 . S
Co567 O575 2.055 . S
Co567 O578 2.039 . S
Co567 N581 2.140 . S
C568 O569 1.227 . S
C568 O578 1.265 . S
O569 C568 1.227 . S
N570 Co567 2.121 . S
N570 C572 1.375 . S
N570 C573 1.313 . S
C571 C572 1.338 . S
C571 N574 1.377 . S
C571 H591 0.930 . S
C572 N570 1.375 . S
C572 C571 1.338 . S
C572 H576 0.931 . S
C573 N570 1.313 . S
C573 N574 1.344 . S
C573 H577 0.930 . S
N574 C571 1.377 . S
N574 C573 1.344 . S
O575 Co567 2.055 . S
O575 C579 1.253 . S
H576 C572 0.931 . S
H577 C573 0.930 . S
O578 Co567 2.039 . S
O578 C568 1.265 . S
C579 O575 1.253 . S
C579 O580 1.227 . S
O580 C579 1.227 . S
N581 Co567 2.140 . S
N581 C584 1.346 . S
N581 C585 1.345 . S
C582 C583 1.387 . S
C582 C586 1.391 . S
C583 C582 1.387 . S
C583 C584 1.369 . S
C583 H592 0.929 . S
C584 N581 1.346 . S
C584 C583 1.369 . S
C584 H587 0.928 . S
C585 N581 1.345 . S
C585 C586 1.371 . S
C585 H588 0.931 . S
C586 C582 1.391 . S
C586 C585 1.371 . S
C586 H593 0.930 . S
H587 C584 0.928 . S
H588 C585 0.931 . S
H589 C565 0.930 . S
H590 C562 0.930 . S
H591 C571 0.930 . S
H592 C583 0.929 . S
H593 C586 0.930 . S
C594 C595 1.351 . S
C594 N597 1.368 . S
C594 H599 0.931 . S
C595 C594 1.351 . S
C595 N596 1.373 . S
C595 H623 0.930 . S
N596 C595 1.373 . S
N596 C598 1.340 . S
N597 C594 1.368 . S
N597 C598 1.321 . S
N597 Co600 2.135 . S
C598 N596 1.340 . S
C598 N597 1.321 . S
C598 H622 0.930 . S
H599 C594 0.931 . S
Co600 N597 2.135 . S
Co600 N603 2.121 . S
Co600 O608 2.055 . S
Co600 O611 2.039 . S
Co600 N614 2.140 . S
C601 O602 1.227 . S
C601 O611 1.265 . S
O602 C601 1.227 . S
N603 Co600 2.121 . S
N603 C605 1.375 . S
N603 C606 1.313 . S
C604 C605 1.338 . S
C604 N607 1.377 . S
C604 H624 0.930 . S
C605 N603 1.375 . S
C605 C604 1.338 . S
C605 H609 0.931 . S
C606 N603 1.313 . S
C606 N607 1.344 . S
C606 H610 0.930 . S
N607 C604 1.377 . S
N607 C606 1.344 . S
O608 Co600 2.055 . S
O608 C612 1.253 . S
H609 C605 0.931 . S
H610 C606 0.930 . S
O611 Co600 2.039 . S
O611 C601 1.265 . S
C612 O608 1.253 . S
C612 O613 1.227 . S
O613 C612 1.227 . S
N614 Co600 2.140 . S
N614 C617 1.346 . S
N614 C618 1.345 . S
C615 C616 1.387 . S
C615 C619 1.391 . S
C616 C615 1.387 . S
C616 C617 1.369 . S
C616 H625 0.929 . S
C617 N614 1.346 . S
C617 C616 1.369 . S
C617 H620 0.928 . S
C618 N614 1.345 . S
C618 C619 1.371 . S
C618 H621 0.931 . S
C619 C615 1.391 . S
C619 C618 1.371 . S
C619 H626 0.930 . S
H620 C617 0.928 . S
H621 C618 0.931 . S
H622 C598 0.930 . S
H623 C595 0.930 . S
H624 C604 0.930 . S
H625 C616 0.929 . S
H626 C619 0.930 . S
C627 C628 1.351 . S
C627 N630 1.368 . S
C627 H632 0.931 . S
C628 C627 1.351 . S
C628 N629 1.373 . S
C628 H656 0.930 . S
N629 C628 1.373 . S
N629 C631 1.340 . S
N630 C627 1.368 . S
N630 C631 1.321 . S
N630 Co633 2.135 . S
C631 N629 1.340 . S
C631 N630 1.321 . S
C631 H655 0.930 . S
H632 C627 0.931 . S
Co633 N630 2.135 . S
Co633 N636 2.121 . S
Co633 O641 2.055 . S
Co633 O644 2.039 . S
Co633 N647 2.140 . S
C634 O635 1.227 . S
C634 O644 1.265 . S
O635 C634 1.227 . S
N636 Co633 2.121 . S
N636 C638 1.375 . S
N636 C639 1.313 . S
C637 C638 1.338 . S
C637 N640 1.377 . S
C637 H657 0.930 . S
C638 N636 1.375 . S
C638 C637 1.338 . S
C638 H642 0.931 . S
C639 N636 1.313 . S
C639 N640 1.344 . S
C639 H643 0.930 . S
N640 C637 1.377 . S
N640 C639 1.344 . S
O641 Co633 2.055 . S
O641 C645 1.253 . S
H642 C638 0.931 . S
H643 C639 0.930 . S
O644 Co633 2.039 . S
O644 C634 1.265 . S
C645 O641 1.253 . S
C645 O646 1.227 . S
O646 C645 1.227 . S
N647 Co633 2.140 . S
N647 C650 1.346 . S
N647 C651 1.345 . S
C648 C649 1.387 . S
C648 C652 1.391 . S
C649 C648 1.387 . S
C649 C650 1.369 . S
C649 H658 0.929 . S
C650 N647 1.346 . S
C650 C649 1.369 . S
C650 H653 0.928 . S
C651 N647 1.345 . S
C651 C652 1.371 . S
C651 H654 0.931 . S
C652 C648 1.391 . S
C652 C651 1.371 . S
C652 H659 0.930 . S
H653 C650 0.928 . S
H654 C651 0.931 . S
H655 C631 0.930 . S
H656 C628 0.930 . S
H657 C637 0.930 . S
H658 C649 0.929 . S
H659 C652 0.930 . S
C660 C661 1.351 . S
C660 N663 1.368 1_556 S
C660 H665 0.931 . S
C661 C660 1.351 . S
C661 N662 1.366 1_556 S
C661 H689 0.930 . S
N662 C661 1.366 1_554 S
N662 C664 1.348 . S
N663 C660 1.368 1_554 S
N663 C664 1.321 . S
N663 Co666 2.135 . S
C664 N662 1.348 . S
C664 N663 1.321 . S
C664 H688 0.930 . S
H665 C660 0.931 . S
Co666 N663 2.135 . S
Co666 N669 2.121 . S
Co666 O674 2.055 . S
Co666 O677 2.039 . S
Co666 N680 2.140 . S
C667 O668 1.227 . S
C667 O677 1.265 . S
O668 C667 1.227 . S
N669 Co666 2.121 . S
N669 C671 1.375 . S
N669 C672 1.313 . S
C670 C671 1.338 . S
C670 N673 1.377 . S
C670 H690 0.930 . S
C671 N669 1.375 . S
C671 C670 1.338 . S
C671 H675 0.931 . S
C672 N669 1.313 . S
C672 N673 1.344 . S
C672 H676 0.930 . S
N673 C670 1.377 . S
N673 C672 1.344 . S
O674 Co666 2.055 . S
O674 C678 1.253 . S
H675 C671 0.931 . S
H676 C672 0.930 . S
O677 Co666 2.039 . S
O677 C667 1.265 . S
C678 O674 1.253 . S
C678 O679 1.227 . S
O679 C678 1.227 . S
N680 Co666 2.140 . S
N680 C683 1.346 . S
N680 C684 1.345 . S
C681 C682 1.387 . S
C681 C685 1.391 . S
C682 C681 1.387 . S
C682 C683 1.369 . S
C682 H691 0.929 . S
C683 N680 1.346 . S
C683 C682 1.369 . S
C683 H686 0.928 . S
C684 N680 1.345 . S
C684 C685 1.371 . S
C684 H687 0.931 . S
C685 C681 1.391 . S
C685 C684 1.371 . S
C685 H692 0.930 . S
H686 C683 0.928 . S
H687 C684 0.931 . S
H688 C664 0.930 . S
H689 C661 0.930 . S
H690 C670 0.930 . S
H691 C682 0.929 . S
H692 C685 0.930 . S
C693 C694 1.351 . S
C693 N696 1.368 1_556 S
C693 H698 0.931 . S
C694 C693 1.351 . S
C694 N695 1.366 1_556 S
C694 H722 0.930 . S
N695 C694 1.366 1_554 S
N695 C697 1.348 . S
N696 C693 1.368 1_554 S
N696 C697 1.321 . S
N696 Co699 2.135 . S
C697 N695 1.348 . S
C697 N696 1.321 . S
C697 H721 0.930 . S
H698 C693 0.931 . S
Co699 N696 2.135 . S
Co699 N702 2.121 . S
Co699 O707 2.055 . S
Co699 O710 2.039 . S
Co699 N713 2.140 . S
C700 O701 1.227 . S
C700 O710 1.265 . S
O701 C700 1.227 . S
N702 Co699 2.121 . S
N702 C704 1.375 . S
N702 C705 1.313 . S
C703 C704 1.338 . S
C703 N706 1.377 . S
C703 H723 0.930 . S
C704 N702 1.375 . S
C704 C703 1.338 . S
C704 H708 0.931 . S
C705 N702 1.313 . S
C705 N706 1.344 . S
C705 H709 0.930 . S
N706 C703 1.377 . S
N706 C705 1.344 . S
O707 Co699 2.055 . S
O707 C711 1.253 . S
H708 C704 0.931 . S
H709 C705 0.930 . S
O710 Co699 2.039 . S
O710 C700 1.265 . S
C711 O707 1.253 . S
C711 O712 1.227 . S
O712 C711 1.227 . S
N713 Co699 2.140 . S
N713 C716 1.346 . S
N713 C717 1.345 . S
C714 C715 1.387 . S
C714 C718 1.391 . S
C715 C714 1.387 . S
C715 C716 1.369 . S
C715 H724 0.929 . S
C716 N713 1.346 . S
C716 C715 1.369 . S
C716 H719 0.928 . S
C717 N713 1.345 . S
C717 C718 1.371 . S
C717 H720 0.931 . S
C718 C714 1.391 . S
C718 C717 1.371 . S
C718 H725 0.930 . S
H719 C716 0.928 . S
H720 C717 0.931 . S
H721 C697 0.930 . S
H722 C694 0.930 . S
H723 C703 0.930 . S
H724 C715 0.929 . S
H725 C718 0.930 . S
C726 C727 1.351 . S
C726 N729 1.368 . S
C726 H731 0.931 . S
C727 C726 1.351 . S
C727 N728 1.373 . S
C727 H755 0.930 . S
N728 C727 1.373 . S
N728 C730 1.340 . S
N729 C726 1.368 . S
N729 C730 1.321 . S
N729 Co732 2.135 . S
C730 N728 1.340 . S
C730 N729 1.321 . S
C730 H754 0.930 . S
H731 C726 0.931 . S
Co732 N729 2.135 . S
Co732 N735 2.121 . S
Co732 O740 2.055 . S
Co732 O743 2.039 . S
Co732 N746 2.140 . S
C733 O734 1.227 . S
C733 O743 1.265 . S
O734 C733 1.227 . S
N735 Co732 2.121 . S
N735 C737 1.375 . S
N735 C738 1.313 . S
C736 C737 1.338 . S
C736 N739 1.377 . S
C736 H756 0.930 . S
C737 N735 1.375 . S
C737 C736 1.338 . S
C737 H741 0.931 . S
C738 N735 1.313 . S
C738 N739 1.344 . S
C738 H742 0.930 . S
N739 C736 1.377 . S
N739 C738 1.344 . S
O740 Co732 2.055 . S
O740 C744 1.253 . S
H741 C737 0.931 . S
H742 C738 0.930 . S
O743 Co732 2.039 . S
O743 C733 1.265 . S
C744 O740 1.253 . S
C744 O745 1.227 . S
O745 C744 1.227 . S
N746 Co732 2.140 . S
N746 C749 1.346 . S
N746 C750 1.345 . S
C747 C748 1.387 . S
C747 C751 1.391 . S
C748 C747 1.387 . S
C748 C749 1.369 . S
C748 H757 0.929 . S
C749 N746 1.346 . S
C749 C748 1.369 . S
C749 H752 0.928 . S
C750 N746 1.345 . S
C750 C751 1.371 . S
C750 H753 0.931 . S
C751 C747 1.391 . S
C751 C750 1.371 . S
C751 H758 0.930 . S
H752 C749 0.928 . S
H753 C750 0.931 . S
H754 C730 0.930 . S
H755 C727 0.930 . S
H756 C736 0.930 . S
H757 C748 0.929 . S
H758 C751 0.930 . S
C759 C760 1.351 . S
C759 N762 1.368 . S
C759 H764 0.931 . S
C760 C759 1.351 . S
C760 N761 1.373 . S
C760 H788 0.930 . S
N761 C760 1.373 . S
N761 C763 1.340 . S
N762 C759 1.368 . S
N762 C763 1.321 . S
N762 Co765 2.135 . S
C763 N761 1.340 . S
C763 N762 1.321 . S
C763 H787 0.930 . S
H764 C759 0.931 . S
Co765 N762 2.135 . S
Co765 N768 2.121 . S
Co765 O773 2.055 . S
Co765 O776 2.039 . S
Co765 N779 2.140 . S
C766 O767 1.227 . S
C766 O776 1.265 . S
O767 C766 1.227 . S
N768 Co765 2.121 . S
N768 C770 1.375 . S
N768 C771 1.313 . S
C769 C770 1.338 . S
C769 N772 1.377 . S
C769 H789 0.930 . S
C770 N768 1.375 . S
C770 C769 1.338 . S
C770 H774 0.931 . S
C771 N768 1.313 . S
C771 N772 1.344 . S
C771 H775 0.930 . S
N772 C769 1.377 . S
N772 C771 1.344 . S
O773 Co765 2.055 . S
O773 C777 1.253 . S
H774 C770 0.931 . S
H775 C771 0.930 . S
O776 Co765 2.039 . S
O776 C766 1.265 . S
C777 O773 1.253 . S
C777 O778 1.227 . S
O778 C777 1.227 . S
N779 Co765 2.140 . S
N779 C782 1.346 . S
N779 C783 1.345 . S
C780 C781 1.387 . S
C780 C784 1.391 . S
C781 C780 1.387 . S
C781 C782 1.369 . S
C781 H790 0.929 . S
C782 N779 1.346 . S
C782 C781 1.369 . S
C782 H785 0.928 . S
C783 N779 1.345 . S
C783 C784 1.371 . S
C783 H786 0.931 . S
C784 C780 1.391 . S
C784 C783 1.371 . S
C784 H791 0.930 . S
H785 C782 0.928 . S
H786 C783 0.931 . S
H787 C763 0.930 . S
H788 C760 0.930 . S
H789 C769 0.930 . S
H790 C781 0.929 . S
H791 C784 0.930 . S
C792 C793 1.351 . S
C792 N795 1.368 . S
C792 H797 0.931 . S
C793 C792 1.351 . S
C793 N794 1.373 . S
C793 H821 0.930 . S
N794 C793 1.373 . S
N794 C796 1.340 . S
N795 C792 1.368 . S
N795 C796 1.321 . S
N795 Co798 2.135 . S
C796 N794 1.340 . S
C796 N795 1.321 . S
C796 H820 0.930 . S
H797 C792 0.931 . S
Co798 N795 2.135 . S
Co798 N801 2.121 . S
Co798 O806 2.055 . S
Co798 O809 2.039 . S
Co798 N812 2.140 . S
C799 O800 1.227 . S
C799 O809 1.265 . S
O800 C799 1.227 . S
N801 Co798 2.121 . S
N801 C803 1.375 . S
N801 C804 1.313 . S
C802 C803 1.338 . S
C802 N805 1.377 . S
C802 H822 0.930 . S
C803 N801 1.375 . S
C803 C802 1.338 . S
C803 H807 0.931 . S
C804 N801 1.313 . S
C804 N805 1.344 . S
C804 H808 0.930 . S
N805 C802 1.377 . S
N805 C804 1.344 . S
O806 Co798 2.055 . S
O806 C810 1.253 . S
H807 C803 0.931 . S
H808 C804 0.930 . S
O809 Co798 2.039 . S
O809 C799 1.265 . S
C810 O806 1.253 . S
C810 O811 1.227 . S
O811 C810 1.227 . S
N812 Co798 2.140 . S
N812 C815 1.346 . S
N812 C816 1.345 . S
C813 C814 1.387 . S
C813 C817 1.391 . S
C814 C813 1.387 . S
C814 C815 1.369 . S
C814 H823 0.929 . S
C815 N812 1.346 . S
C815 C814 1.369 . S
C815 H818 0.928 . S
C816 N812 1.345 . S
C816 C817 1.371 . S
C816 H819 0.931 . S
C817 C813 1.391 . S
C817 C816 1.371 . S
C817 H824 0.930 . S
H818 C815 0.928 . S
H819 C816 0.931 . S
H820 C796 0.930 . S
H821 C793 0.930 . S
H822 C802 0.930 . S
H823 C814 0.929 . S
H824 C817 0.930 . S
C825 C826 1.351 . S
C825 N828 1.368 . S
C825 H830 0.931 . S
C826 C825 1.351 . S
C826 N827 1.373 . S
C826 H854 0.930 . S
N827 C826 1.373 . S
N827 C829 1.340 . S
N828 C825 1.368 . S
N828 C829 1.321 . S
N828 Co831 2.135 . S
C829 N827 1.340 . S
C829 N828 1.321 . S
C829 H853 0.930 . S
H830 C825 0.931 . S
Co831 N828 2.135 . S
Co831 N834 2.121 . S
Co831 O839 2.055 . S
Co831 O842 2.039 . S
Co831 N845 2.140 . S
C832 O833 1.227 . S
C832 O842 1.265 . S
O833 C832 1.227 . S
N834 Co831 2.121 . S
N834 C836 1.375 . S
N834 C837 1.313 . S
C835 C836 1.338 . S
C835 N838 1.377 . S
C835 H855 0.930 . S
C836 N834 1.375 . S
C836 C835 1.338 . S
C836 H840 0.931 . S
C837 N834 1.313 . S
C837 N838 1.344 . S
C837 H841 0.930 . S
N838 C835 1.377 . S
N838 C837 1.344 . S
O839 Co831 2.055 . S
O839 C843 1.253 . S
H840 C836 0.931 . S
H841 C837 0.930 . S
O842 Co831 2.039 . S
O842 C832 1.265 . S
C843 O839 1.253 . S
C843 O844 1.227 . S
O844 C843 1.227 . S
N845 Co831 2.140 . S
N845 C848 1.346 . S
N845 C849 1.345 . S
C846 C847 1.387 . S
C846 C850 1.391 . S
C847 C846 1.387 . S
C847 C848 1.369 . S
C847 H856 0.929 . S
C848 N845 1.346 . S
C848 C847 1.369 . S
C848 H851 0.928 . S
C849 N845 1.345 . S
C849 C850 1.371 . S
C849 H852 0.931 . S
C850 C846 1.391 . S
C850 C849 1.371 . S
C850 H857 0.930 . S
H851 C848 0.928 . S
H852 C849 0.931 . S
H853 C829 0.930 . S
H854 C826 0.930 . S
H855 C835 0.930 . S
H856 C847 0.929 . S
H857 C850 0.930 . S
C858 C859 1.351 . S
C858 N861 1.368 . S
C858 H863 0.931 . S
C859 C858 1.351 . S
C859 N860 1.373 . S
C859 H887 0.930 . S
N860 C859 1.373 . S
N860 C862 1.340 . S
N861 C858 1.368 . S
N861 C862 1.321 . S
N861 Co864 2.135 . S
C862 N860 1.340 . S
C862 N861 1.321 . S
C862 H886 0.930 . S
H863 C858 0.931 . S
Co864 N861 2.135 . S
Co864 N867 2.121 . S
Co864 O872 2.055 . S
Co864 O875 2.039 . S
Co864 N878 2.140 . S
C865 O866 1.227 . S
C865 O875 1.265 . S
O866 C865 1.227 . S
N867 Co864 2.121 . S
N867 C869 1.375 . S
N867 C870 1.313 . S
C868 C869 1.338 . S
C868 N871 1.377 . S
C868 H888 0.930 . S
C869 N867 1.375 . S
C869 C868 1.338 . S
C869 H873 0.931 . S
C870 N867 1.313 . S
C870 N871 1.344 . S
C870 H874 0.930 . S
N871 C868 1.377 . S
N871 C870 1.344 . S
O872 Co864 2.055 . S
O872 C876 1.253 . S
H873 C869 0.931 . S
H874 C870 0.930 . S
O875 Co864 2.039 . S
O875 C865 1.265 . S
C876 O872 1.253 . S
C876 O877 1.227 . S
O877 C876 1.227 . S
N878 Co864 2.140 . S
N878 C881 1.346 . S
N878 C882 1.345 . S
C879 C880 1.387 . S
C879 C883 1.391 . S
C880 C879 1.387 . S
C880 C881 1.369 . S
C880 H889 0.929 . S
C881 N878 1.346 . S
C881 C880 1.369 . S
C881 H884 0.928 . S
C882 N878 1.345 . S
C882 C883 1.371 . S
C882 H885 0.931 . S
C883 C879 1.391 . S
C883 C882 1.371 . S
C883 H890 0.930 . S
H884 C881 0.928 . S
H885 C882 0.931 . S
H886 C862 0.930 . S
H887 C859 0.930 . S
H888 C868 0.930 . S
H889 C880 0.929 . S
H890 C883 0.930 . S
C891 C892 1.351 . S
C891 N894 1.368 . S
C891 H896 0.931 . S
C892 C891 1.351 . S
C892 N893 1.373 . S
C892 H920 0.930 . S
N893 C892 1.373 . S
N893 C895 1.340 . S
N894 C891 1.368 . S
N894 C895 1.321 . S
N894 Co897 2.135 . S
C895 N893 1.340 . S
C895 N894 1.321 . S
C895 H919 0.930 . S
H896 C891 0.931 . S
Co897 N894 2.135 . S
Co897 N900 2.121 . S
Co897 O905 2.055 . S
Co897 O908 2.039 . S
Co897 N911 2.140 . S
C898 O899 1.227 . S
C898 O908 1.265 . S
O899 C898 1.227 . S
N900 Co897 2.121 . S
N900 C902 1.375 . S
N900 C903 1.313 . S
C901 C902 1.338 . S
C901 N904 1.377 . S
C901 H921 0.930 . S
C902 N900 1.375 . S
C902 C901 1.338 . S
C902 H906 0.931 . S
C903 N900 1.313 . S
C903 N904 1.344 . S
C903 H907 0.930 . S
N904 C901 1.377 . S
N904 C903 1.344 . S
O905 Co897 2.055 . S
O905 C909 1.253 . S
H906 C902 0.931 . S
H907 C903 0.930 . S
O908 Co897 2.039 . S
O908 C898 1.265 . S
C909 O905 1.253 . S
C909 O910 1.227 . S
O910 C909 1.227 . S
N911 Co897 2.140 . S
N911 C914 1.346 . S
N911 C915 1.345 . S
C912 C913 1.387 . S
C912 C916 1.391 . S
C913 C912 1.387 . S
C913 C914 1.369 . S
C913 H922 0.929 . S
C914 N911 1.346 . S
C914 C913 1.369 . S
C914 H917 0.928 . S
C915 N911 1.345 . S
C915 C916 1.371 . S
C915 H918 0.931 . S
C916 C912 1.391 . S
C916 C915 1.371 . S
C916 H923 0.930 . S
H917 C914 0.928 . S
H918 C915 0.931 . S
H919 C895 0.930 . S
H920 C892 0.930 . S
H921 C901 0.930 . S
H922 C913 0.929 . S
H923 C916 0.930 . S
C924 C925 1.351 . S
C924 N927 1.368 . S
C924 H929 0.931 . S
C925 C924 1.351 . S
C925 N926 1.373 . S
C925 H953 0.930 . S
N926 C925 1.373 . S
N926 C928 1.340 . S
N927 C924 1.368 . S
N927 C928 1.321 . S
N927 Co930 2.135 . S
C928 N926 1.340 . S
C928 N927 1.321 . S
C928 H952 0.930 . S
H929 C924 0.931 . S
Co930 N927 2.135 . S
Co930 N933 2.121 . S
Co930 O938 2.055 . S
Co930 O941 2.039 . S
Co930 N944 2.140 . S
C931 O932 1.227 . S
C931 O941 1.265 . S
O932 C931 1.227 . S
N933 Co930 2.121 . S
N933 C935 1.375 . S
N933 C936 1.313 . S
C934 C935 1.338 . S
C934 N937 1.377 . S
C934 H954 0.930 . S
C935 N933 1.375 . S
C935 C934 1.338 . S
C935 H939 0.931 . S
C936 N933 1.313 . S
C936 N937 1.344 . S
C936 H940 0.930 . S
N937 C934 1.377 . S
N937 C936 1.344 . S
O938 Co930 2.055 . S
O938 C942 1.253 . S
H939 C935 0.931 . S
H940 C936 0.930 . S
O941 Co930 2.039 . S
O941 C931 1.265 . S
C942 O938 1.253 . S
C942 O943 1.227 . S
O943 C942 1.227 . S
N944 Co930 2.140 . S
N944 C947 1.346 . S
N944 C948 1.345 . S
C945 C946 1.387 . S
C945 C949 1.391 . S
C946 C945 1.387 . S
C946 C947 1.369 . S
C946 H955 0.929 . S
C947 N944 1.346 . S
C947 C946 1.369 . S
C947 H950 0.928 . S
C948 N944 1.345 . S
C948 C949 1.371 . S
C948 H951 0.931 . S
C949 C945 1.391 . S
C949 C948 1.371 . S
C949 H956 0.930 . S
H950 C947 0.928 . S
H951 C948 0.931 . S
H952 C928 0.930 . S
H953 C925 0.930 . S
H954 C934 0.930 . S
H955 C946 0.929 . S
H956 C949 0.930 . S
C957 C958 1.351 . S
C957 N960 1.368 . S
C957 H962 0.931 . S
C958 C957 1.351 . S
C958 N959 1.373 . S
C958 H986 0.930 . S
N959 C958 1.373 . S
N959 C961 1.340 . S
N960 C957 1.368 . S
N960 C961 1.321 . S
N960 Co963 2.135 . S
C961 N959 1.340 . S
C961 N960 1.321 . S
C961 H985 0.930 . S
H962 C957 0.931 . S
Co963 N960 2.135 . S
Co963 N966 2.121 . S
Co963 O971 2.055 . S
Co963 O974 2.039 . S
Co963 N977 2.140 . S
C964 O965 1.227 . S
C964 O974 1.265 . S
O965 C964 1.227 . S
N966 Co963 2.121 . S
N966 C968 1.375 . S
N966 C969 1.313 . S
C967 C968 1.338 . S
C967 N970 1.377 . S
C967 H987 0.930 . S
C968 N966 1.375 . S
C968 C967 1.338 . S
C968 H972 0.931 . S
C969 N966 1.313 . S
C969 N970 1.344 . S
C969 H973 0.930 . S
N970 C967 1.377 . S
N970 C969 1.344 . S
O971 Co963 2.055 . S
O971 C975 1.253 . S
H972 C968 0.931 . S
H973 C969 0.930 . S
O974 Co963 2.039 . S
O974 C964 1.265 . S
C975 O971 1.253 . S
C975 O976 1.227 . S
O976 C975 1.227 . S
N977 Co963 2.140 . S
N977 C980 1.346 . S
N977 C981 1.345 . S
C978 C979 1.387 . S
C978 C982 1.391 . S
C979 C978 1.387 . S
C979 C980 1.369 . S
C979 H988 0.929 . S
C980 N977 1.346 . S
C980 C979 1.369 . S
C980 H983 0.928 . S
C981 N977 1.345 . S
C981 C982 1.371 . S
C981 H984 0.931 . S
C982 C978 1.391 . S
C982 C981 1.371 . S
C982 H989 0.930 . S
H983 C980 0.928 . S
H984 C981 0.931 . S
H985 C961 0.930 . S
H986 C958 0.930 . S
H987 C967 0.930 . S
H988 C979 0.929 . S
H989 C982 0.930 . S
C990 C991 1.351 . S
C990 N993 1.368 . S
C990 H995 0.931 . S
C991 C990 1.351 . S
C991 N992 1.373 . S
C991 H1019 0.930 . S
N992 C991 1.373 . S
N992 C994 1.340 . S
N993 C990 1.368 . S
N993 C994 1.321 . S
N993 Co996 2.135 . S
C994 N992 1.340 . S
C994 N993 1.321 . S
C994 H1018 0.930 . S
H995 C990 0.931 . S
Co996 N993 2.135 . S
Co996 N999 2.121 . S
Co996 O1004 2.055 . S
Co996 O1007 2.039 . S
Co996 N1010 2.140 . S
C997 O998 1.227 . S
C997 O1007 1.265 . S
O998 C997 1.227 . S
N999 Co996 2.121 . S
N999 C1001 1.375 . S
N999 C1002 1.313 . S
C1000 C1001 1.338 . S
C1000 N1003 1.377 . S
C1000 H1020 0.930 . S
C1001 N999 1.375 . S
C1001 C1000 1.338 . S
C1001 H1005 0.931 . S
C1002 N999 1.313 . S
C1002 N1003 1.344 . S
C1002 H1006 0.930 . S
N1003 C1000 1.377 . S
N1003 C1002 1.344 . S
O1004 Co996 2.055 . S
O1004 C1008 1.253 . S
H1005 C1001 0.931 . S
H1006 C1002 0.930 . S
O1007 Co996 2.039 . S
O1007 C997 1.265 . S
C1008 O1004 1.253 . S
C1008 O1009 1.227 . S
O1009 C1008 1.227 . S
N1010 Co996 2.140 . S
N1010 C1013 1.346 . S
N1010 C1014 1.345 . S
C1011 C1012 1.387 . S
C1011 C1015 1.391 . S
C1012 C1011 1.387 . S
C1012 C1013 1.369 . S
C1012 H1021 0.929 . S
C1013 N1010 1.346 . S
C1013 C1012 1.369 . S
C1013 H1016 0.928 . S
C1014 N1010 1.345 . S
C1014 C1015 1.371 . S
C1014 H1017 0.931 . S
C1015 C1011 1.391 . S
C1015 C1014 1.371 . S
C1015 H1022 0.930 . S
H1016 C1013 0.928 . S
H1017 C1014 0.931 . S
H1018 C994 0.930 . S
H1019 C991 0.930 . S
H1020 C1000 0.930 . S
H1021 C1012 0.929 . S
H1022 C1015 0.930 . S
C1023 C1024 1.351 . S
C1023 N1026 1.368 . S
C1023 H1028 0.931 . S
C1024 C1023 1.351 . S
C1024 N1025 1.373 . S
C1024 H1052 0.930 . S
N1025 C1024 1.373 . S
N1025 C1027 1.340 . S
N1026 C1023 1.368 . S
N1026 C1027 1.321 . S
N1026 Co1029 2.135 . S
C1027 N1025 1.340 . S
C1027 N1026 1.321 . S
C1027 H1051 0.930 . S
H1028 C1023 0.931 . S
Co1029 N1026 2.135 . S
Co1029 N1032 2.121 . S
Co1029 O1037 2.055 . S
Co1029 O1040 2.039 . S
Co1029 N1043 2.140 . S
C1030 O1031 1.227 . S
C1030 O1040 1.265 . S
O1031 C1030 1.227 . S
N1032 Co1029 2.121 . S
N1032 C1034 1.375 . S
N1032 C1035 1.313 . S
C1033 C1034 1.338 . S
C1033 N1036 1.377 . S
C1033 H1053 0.930 . S
C1034 N1032 1.375 . S
C1034 C1033 1.338 . S
C1034 H1038 0.931 . S
C1035 N1032 1.313 . S
C1035 N1036 1.344 . S
C1035 H1039 0.930 . S
N1036 C1033 1.377 . S
N1036 C1035 1.344 . S
O1037 Co1029 2.055 . S
O1037 C1041 1.253 . S
H1038 C1034 0.931 . S
H1039 C1035 0.930 . S
O1040 Co1029 2.039 . S
O1040 C1030 1.265 . S
C1041 O1037 1.253 . S
C1041 O1042 1.227 . S
O1042 C1041 1.227 . S
N1043 Co1029 2.140 . S
N1043 C1046 1.346 . S
N1043 C1047 1.345 . S
C1044 C1045 1.387 . S
C1044 C1048 1.391 . S
C1045 C1044 1.387 . S
C1045 C1046 1.369 . S
C1045 H1054 0.929 . S
C1046 N1043 1.346 . S
C1046 C1045 1.369 . S
C1046 H1049 0.928 . S
C1047 N1043 1.345 . S
C1047 C1048 1.371 . S
C1047 H1050 0.931 . S
C1048 C1044 1.391 . S
C1048 C1047 1.371 . S
C1048 H1055 0.930 . S
H1049 C1046 0.928 . S
H1050 C1047 0.931 . S
H1051 C1027 0.930 . S
H1052 C1024 0.930 . S
H1053 C1033 0.930 . S
H1054 C1045 0.929 . S
H1055 C1048 0.930 . S
C1056 C1057 1.369 . S
C1056 C1058 1.419 . S
C1056 H1060 0.930 . S
C1057 C1056 1.369 . S
C1057 C1066 1.429 . S
C1058 C1056 1.419 . S
C1058 C1059 1.363 . S
C1058 H1061 0.929 . S
C1059 C1058 1.363 . S
C1059 C1065 1.428 . S
H1060 C1056 0.930 . S
H1061 C1058 0.929 . S
S1062 N1063 1.613 . S
S1062 N1064 1.610 . S
N1063 S1062 1.613 . S
N1063 C1066 1.350 . S
N1064 S1062 1.610 . S
N1064 C1065 1.351 . S
C1065 C1059 1.428 . S
C1065 N1064 1.351 . S
C1065 C1066 1.434 . S
C1066 C1057 1.429 . S
C1066 N1063 1.350 . S
C1066 C1065 1.434 . S
C1067 C1068 1.369 . S
C1067 C1069 1.419 . S
C1067 H1071 0.930 . S
C1068 C1067 1.369 . S
C1068 C1077 1.429 . S
C1069 C1067 1.419 . S
C1069 C1070 1.363 . S
C1069 H1072 0.929 . S
C1070 C1069 1.363 . S
C1070 C1076 1.428 . S
H1071 C1067 0.930 . S
H1072 C1069 0.929 . S
S1073 N1074 1.613 . S
S1073 N1075 1.610 . S
N1074 S1073 1.613 . S
N1074 C1077 1.350 . S
N1075 S1073 1.610 . S
N1075 C1076 1.351 . S
C1076 C1070 1.428 . S
C1076 N1075 1.351 . S
C1076 C1077 1.434 . S
C1077 C1068 1.429 . S
C1077 N1074 1.350 . S
C1077 C1076 1.434 . S
C1078 C1079 1.369 . S
C1078 C1080 1.419 . S
C1078 H1082 0.930 . S
C1079 C1078 1.369 . S
C1079 C1088 1.429 . S
C1080 C1078 1.419 . S
C1080 C1081 1.363 . S
C1080 H1083 0.929 . S
C1081 C1080 1.363 . S
C1081 C1087 1.428 . S
H1082 C1078 0.930 . S
H1083 C1080 0.929 . S
S1084 N1085 1.613 . S
S1084 N1086 1.610 . S
N1085 S1084 1.613 . S
N1085 C1088 1.350 . S
N1086 S1084 1.610 . S
N1086 C1087 1.351 . S
C1087 C1081 1.428 . S
C1087 N1086 1.351 . S
C1087 C1088 1.434 . S
C1088 C1079 1.429 . S
C1088 N1085 1.350 . S
C1088 C1087 1.434 . S
C1089 C1090 1.369 . S
C1089 C1091 1.419 . S
C1089 H1093 0.930 . S
C1090 C1089 1.369 . S
C1090 C1099 1.429 . S
C1091 C1089 1.419 . S
C1091 C1092 1.363 . S
C1091 H1094 0.929 . S
C1092 C1091 1.363 . S
C1092 C1098 1.428 . S
H1093 C1089 0.930 . S
H1094 C1091 0.929 . S
S1095 N1096 1.613 . S
S1095 N1097 1.610 . S
N1096 S1095 1.613 . S
N1096 C1099 1.350 . S
N1097 S1095 1.610 . S
N1097 C1098 1.351 . S
C1098 C1092 1.428 . S
C1098 N1097 1.351 . S
C1098 C1099 1.434 . S
C1099 C1090 1.429 . S
C1099 N1096 1.350 . S
C1099 C1098 1.434 . S
C1100 C1101 1.369 . S
C1100 C1102 1.419 . S
C1100 H1104 0.930 . S
C1101 C1100 1.369 . S
C1101 C1110 1.429 . S
C1102 C1100 1.419 . S
C1102 C1103 1.363 . S
C1102 H1105 0.929 . S
C1103 C1102 1.363 . S
C1103 C1109 1.428 . S
H1104 C1100 0.930 . S
H1105 C1102 0.929 . S
S1106 N1107 1.613 . S
S1106 N1108 1.610 . S
N1107 S1106 1.613 . S
N1107 C1110 1.350 . S
N1108 S1106 1.610 . S
N1108 C1109 1.351 . S
C1109 C1103 1.428 . S
C1109 N1108 1.351 . S
C1109 C1110 1.434 . S
C1110 C1101 1.429 . S
C1110 N1107 1.350 . S
C1110 C1109 1.434 . S
C1111 C1112 1.369 . S
C1111 C1113 1.419 . S
C1111 H1115 0.930 . S
C1112 C1111 1.369 . S
C1112 C1121 1.429 . S
C1113 C1111 1.419 . S
C1113 C1114 1.363 . S
C1113 H1116 0.929 . S
C1114 C1113 1.363 . S
C1114 C1120 1.428 . S
H1115 C1111 0.930 . S
H1116 C1113 0.929 . S
S1117 N1118 1.613 . S
S1117 N1119 1.610 . S
N1118 S1117 1.613 . S
N1118 C1121 1.350 . S
N1119 S1117 1.610 . S
N1119 C1120 1.351 . S
C1120 C1114 1.428 . S
C1120 N1119 1.351 . S
C1120 C1121 1.434 . S
C1121 C1112 1.429 . S
C1121 N1118 1.350 . S
C1121 C1120 1.434 . S
C1122 C1123 1.369 . S
C1122 C1124 1.419 . S
C1122 H1126 0.930 . S
C1123 C1122 1.369 . S
C1123 C1132 1.429 . S
C1124 C1122 1.419 . S
C1124 C1125 1.363 . S
C1124 H1127 0.929 . S
C1125 C1124 1.363 . S
C1125 C1131 1.428 . S
H1126 C1122 0.930 . S
H1127 C1124 0.929 . S
S1128 N1129 1.613 . S
S1128 N1130 1.610 . S
N1129 S1128 1.613 . S
N1129 C1132 1.350 . S
N1130 S1128 1.610 . S
N1130 C1131 1.351 . S
C1131 C1125 1.428 . S
C1131 N1130 1.351 . S
C1131 C1132 1.434 . S
C1132 C1123 1.429 . S
C1132 N1129 1.350 . S
C1132 C1131 1.434 . S
C1133 C1134 1.369 . S
C1133 C1135 1.419 . S
C1133 H1137 0.930 . S
C1134 C1133 1.369 . S
C1134 C1143 1.429 . S
C1135 C1133 1.419 . S
C1135 C1136 1.363 . S
C1135 H1138 0.929 . S
C1136 C1135 1.363 . S
C1136 C1142 1.428 . S
H1137 C1133 0.930 . S
H1138 C1135 0.929 . S
S1139 N1140 1.613 . S
S1139 N1141 1.610 . S
N1140 S1139 1.613 . S
N1140 C1143 1.350 . S
N1141 S1139 1.610 . S
N1141 C1142 1.351 . S
C1142 C1136 1.428 . S
C1142 N1141 1.351 . S
C1142 C1143 1.434 . S
C1143 C1134 1.429 . S
C1143 N1140 1.350 . S
C1143 C1142 1.434 . S
C1144 C1145 1.369 . S
C1144 C1146 1.419 . S
C1144 H1148 0.927 1_556 S
C1145 C1144 1.369 . S
C1145 C1154 1.429 . S
C1146 C1144 1.419 . S
C1146 C1147 1.363 . S
C1146 H1149 0.930 . S
C1147 C1146 1.363 . S
C1147 C1153 1.428 . S
H1148 C1144 0.927 1_554 S
H1149 C1146 0.930 . S
S1150 N1151 1.613 . S
S1150 N1152 1.610 . S
N1151 S1150 1.613 . S
N1151 C1154 1.350 . S
N1152 S1150 1.610 . S
N1152 C1153 1.351 . S
C1153 C1147 1.428 . S
C1153 N1152 1.351 . S
C1153 C1154 1.434 . S
C1154 C1145 1.429 . S
C1154 N1151 1.350 . S
C1154 C1153 1.434 . S
C1155 C1156 1.369 . S
C1155 C1157 1.419 . S
C1155 H1159 0.930 . S
C1156 C1155 1.369 . S
C1156 C1165 1.429 . S
C1157 C1155 1.419 . S
C1157 C1158 1.363 . S
C1157 H1160 0.929 . S
C1158 C1157 1.363 . S
C1158 C1164 1.428 . S
H1159 C1155 0.930 . S
H1160 C1157 0.929 . S
S1161 N1162 1.613 . S
S1161 N1163 1.610 . S
N1162 S1161 1.613 . S
N1162 C1165 1.350 . S
N1163 S1161 1.610 . S
N1163 C1164 1.351 . S
C1164 C1158 1.428 . S
C1164 N1163 1.351 . S
C1164 C1165 1.434 . S
C1165 C1156 1.429 . S
C1165 N1162 1.350 . S
C1165 C1164 1.434 . S
C1166 C1167 1.369 . S
C1166 C1168 1.419 . S
C1166 H1170 0.930 . S
C1167 C1166 1.369 . S
C1167 C1176 1.429 . S
C1168 C1166 1.419 . S
C1168 C1169 1.363 . S
C1168 H1171 0.929 . S
C1169 C1168 1.363 . S
C1169 C1175 1.428 . S
H1170 C1166 0.930 . S
H1171 C1168 0.929 . S
S1172 N1173 1.613 . S
S1172 N1174 1.610 . S
N1173 S1172 1.613 . S
N1173 C1176 1.350 . S
N1174 S1172 1.610 . S
N1174 C1175 1.351 . S
C1175 C1169 1.428 . S
C1175 N1174 1.351 . S
C1175 C1176 1.434 . S
C1176 C1167 1.429 . S
C1176 N1173 1.350 . S
C1176 C1175 1.434 . S
C1177 C1178 1.369 . S
C1177 C1179 1.419 . S
C1177 H1181 0.930 . S
C1178 C1177 1.369 . S
C1178 C1187 1.429 . S
C1179 C1177 1.419 . S
C1179 C1180 1.363 . S
C1179 H1182 0.929 . S
C1180 C1179 1.363 . S
C1180 C1186 1.428 . S
H1181 C1177 0.930 . S
H1182 C1179 0.929 . S
S1183 N1184 1.613 . S
S1183 N1185 1.610 . S
N1184 S1183 1.613 . S
N1184 C1187 1.350 . S
N1185 S1183 1.610 . S
N1185 C1186 1.351 . S
C1186 C1180 1.428 . S
C1186 N1185 1.351 . S
C1186 C1187 1.434 . S
C1187 C1178 1.429 . S
C1187 N1184 1.350 . S
C1187 C1186 1.434 . S
C1188 C1189 1.369 . S
C1188 C1190 1.419 . S
C1188 H1192 0.930 . S
C1189 C1188 1.369 . S
C1189 C1198 1.429 . S
C1190 C1188 1.419 . S
C1190 C1191 1.363 . S
C1190 H1193 0.929 . S
C1191 C1190 1.363 . S
C1191 C1197 1.428 . S
H1192 C1188 0.930 . S
H1193 C1190 0.929 . S
S1194 N1195 1.613 . S
S1194 N1196 1.610 . S
N1195 S1194 1.613 . S
N1195 C1198 1.350 . S
N1196 S1194 1.610 . S
N1196 C1197 1.351 . S
C1197 C1191 1.428 . S
C1197 N1196 1.351 . S
C1197 C1198 1.434 . S
C1198 C1189 1.429 . S
C1198 N1195 1.350 . S
C1198 C1197 1.434 . S
C1199 C1200 1.369 . S
C1199 C1201 1.419 . S
C1199 H1203 0.930 . S
C1200 C1199 1.369 . S
C1200 C1209 1.429 . S
C1201 C1199 1.419 . S
C1201 C1202 1.363 . S
C1201 H1204 0.929 . S
C1202 C1201 1.363 . S
C1202 C1208 1.428 . S
H1203 C1199 0.930 . S
H1204 C1201 0.929 . S
S1205 N1206 1.613 . S
S1205 N1207 1.610 . S
N1206 S1205 1.613 . S
N1206 C1209 1.350 . S
N1207 S1205 1.610 . S
N1207 C1208 1.351 . S
C1208 C1202 1.428 . S
C1208 N1207 1.351 . S
C1208 C1209 1.434 . S
C1209 C1200 1.429 . S
C1209 N1206 1.350 . S
C1209 C1208 1.434 . S
C1210 C1211 1.369 . S
C1210 C1212 1.419 . S
C1210 H1214 0.930 . S
C1211 C1210 1.369 . S
C1211 C1220 1.429 . S
C1212 C1210 1.419 . S
C1212 C1213 1.363 . S
C1212 H1215 0.929 . S
C1213 C1212 1.363 . S
C1213 C1219 1.428 . S
H1214 C1210 0.930 . S
H1215 C1212 0.929 . S
S1216 N1217 1.613 . S
S1216 N1218 1.610 . S
N1217 S1216 1.613 . S
N1217 C1220 1.350 . S
N1218 S1216 1.610 . S
N1218 C1219 1.351 . S
C1219 C1213 1.428 . S
C1219 N1218 1.351 . S
C1219 C1220 1.434 . S
C1220 C1211 1.429 . S
C1220 N1217 1.350 . S
C1220 C1219 1.434 . S
C1221 C1222 1.369 . S
C1221 C1223 1.419 . S
C1221 H1225 0.930 . S
C1222 C1221 1.369 . S
C1222 C1231 1.429 . S
C1223 C1221 1.419 . S
C1223 C1224 1.363 . S
C1223 H1226 0.929 . S
C1224 C1223 1.363 . S
C1224 C1230 1.428 . S
H1225 C1221 0.930 . S
H1226 C1223 0.929 . S
S1227 N1228 1.613 . S
S1227 N1229 1.610 . S
N1228 S1227 1.613 . S
N1228 C1231 1.350 . S
N1229 S1227 1.610 . S
N1229 C1230 1.351 . S
C1230 C1224 1.428 . S
C1230 N1229 1.351 . S
C1230 C1231 1.434 . S
C1231 C1222 1.429 . S
C1231 N1228 1.350 . S
C1231 C1230 1.434 . S
C1232 C1233 1.369 . S
C1232 C1234 1.419 . S
C1232 H1236 0.930 . S
C1233 C1232 1.369 . S
C1233 C1242 1.429 . S
C1234 C1232 1.419 . S
C1234 C1235 1.363 . S
C1234 H1237 0.929 . S
C1235 C1234 1.363 . S
C1235 C1241 1.428 . S
H1236 C1232 0.930 . S
H1237 C1234 0.929 . S
S1238 N1239 1.613 . S
S1238 N1240 1.610 . S
N1239 S1238 1.613 . S
N1239 C1242 1.350 . S
N1240 S1238 1.610 . S
N1240 C1241 1.351 . S
C1241 C1235 1.428 . S
C1241 N1240 1.351 . S
C1241 C1242 1.434 . S
C1242 C1233 1.429 . S
C1242 N1239 1.350 . S
C1242 C1241 1.434 . S
C1243 C1244 1.369 . S
C1243 C1245 1.419 . S
C1243 H1247 0.930 . S
C1244 C1243 1.369 . S
C1244 C1253 1.429 . S
C1245 C1243 1.419 . S
C1245 C1246 1.363 . S
C1245 H1248 0.929 . S
C1246 C1245 1.363 . S
C1246 C1252 1.428 . S
H1247 C1243 0.930 . S
H1248 C1245 0.929 . S
S1249 N1250 1.613 . S
S1249 N1251 1.610 . S
N1250 S1249 1.613 . S
N1250 C1253 1.350 . S
N1251 S1249 1.610 . S
N1251 C1252 1.351 . S
C1252 C1246 1.428 . S
C1252 N1251 1.351 . S
C1252 C1253 1.434 . S
C1253 C1244 1.429 . S
C1253 N1250 1.350 . S
C1253 C1252 1.434 . S
C1254 C1255 1.369 . S
C1254 C1256 1.419 . S
C1254 H1258 0.930 . S
C1255 C1254 1.369 . S
C1255 C1264 1.429 . S
C1256 C1254 1.419 . S
C1256 C1257 1.363 . S
C1256 H1259 0.929 . S
C1257 C1256 1.363 . S
C1257 C1263 1.428 . S
H1258 C1254 0.930 . S
H1259 C1256 0.929 . S
S1260 N1261 1.613 . S
S1260 N1262 1.610 . S
N1261 S1260 1.613 . S
N1261 C1264 1.350 . S
N1262 S1260 1.610 . S
N1262 C1263 1.351 . S
C1263 C1257 1.428 . S
C1263 N1262 1.351 . S
C1263 C1264 1.434 . S
C1264 C1255 1.429 . S
C1264 N1261 1.350 . S
C1264 C1263 1.434 . S
C1265 C1266 1.369 . S
C1265 C1267 1.419 . S
C1265 H1269 0.930 . S
C1266 C1265 1.369 . S
C1266 C1275 1.429 . S
C1267 C1265 1.419 . S
C1267 C1268 1.363 . S
C1267 H1270 0.929 . S
C1268 C1267 1.363 . S
C1268 C1274 1.428 . S
H1269 C1265 0.930 . S
H1270 C1267 0.929 . S
S1271 N1272 1.613 . S
S1271 N1273 1.610 . S
N1272 S1271 1.613 . S
N1272 C1275 1.350 . S
N1273 S1271 1.610 . S
N1273 C1274 1.351 . S
C1274 C1268 1.428 . S
C1274 N1273 1.351 . S
C1274 C1275 1.434 . S
C1275 C1266 1.429 . S
C1275 N1272 1.350 . S
C1275 C1274 1.434 . S
C1276 C1277 1.369 . S
C1276 C1278 1.419 . S
C1276 H1280 0.930 . S
C1277 C1276 1.369 . S
C1277 C1286 1.429 . S
C1278 C1276 1.419 . S
C1278 C1279 1.363 . S
C1278 H1281 0.929 . S
C1279 C1278 1.363 . S
C1279 C1285 1.428 . S
H1280 C1276 0.930 . S
H1281 C1278 0.929 . S
S1282 N1283 1.613 1_545 S
S1282 N1284 1.610 1_545 S
N1283 S1282 1.613 1_565 S
N1283 C1286 1.350 . S
N1284 S1282 1.610 1_565 S
N1284 C1285 1.351 . S
C1285 C1279 1.428 . S
C1285 N1284 1.351 . S
C1285 C1286 1.434 . S
C1286 C1277 1.429 . S
C1286 N1283 1.350 . S
C1286 C1285 1.434 . S
C1287 C1288 1.369 . S
C1287 C1289 1.419 . S
C1287 H1291 0.930 . S
C1288 C1287 1.369 . S
C1288 C1297 1.429 . S
C1289 C1287 1.419 . S
C1289 C1290 1.363 . S
C1289 H1292 0.929 . S
C1290 C1289 1.363 . S
C1290 C1296 1.428 . S
H1291 C1287 0.930 . S
H1292 C1289 0.929 . S
S1293 N1294 1.613 . S
S1293 N1295 1.610 . S
N1294 S1293 1.613 . S
N1294 C1297 1.350 . S
N1295 S1293 1.610 . S
N1295 C1296 1.351 . S
C1296 C1290 1.428 . S
C1296 N1295 1.351 . S
C1296 C1297 1.434 . S
C1297 C1288 1.429 . S
C1297 N1294 1.350 . S
C1297 C1296 1.434 . S
C1298 C1299 1.369 . S
C1298 C1300 1.419 . S
C1298 H1302 0.930 . S
C1299 C1298 1.369 . S
C1299 C1308 1.429 . S
C1300 C1298 1.419 . S
C1300 C1301 1.363 . S
C1300 H1303 0.929 . S
C1301 C1300 1.363 . S
C1301 C1307 1.428 . S
H1302 C1298 0.930 . S
H1303 C1300 0.929 . S
S1304 N1305 1.613 . S
S1304 N1306 1.610 . S
N1305 S1304 1.613 . S
N1305 C1308 1.350 . S
N1306 S1304 1.610 . S
N1306 C1307 1.351 . S
C1307 C1301 1.428 . S
C1307 N1306 1.351 . S
C1307 C1308 1.434 . S
C1308 C1299 1.429 . S
C1308 N1305 1.350 . S
C1308 C1307 1.434 . S
C1309 C1310 1.369 . S
C1309 C1311 1.419 . S
C1309 H1313 0.930 . S
C1310 C1309 1.369 . S
C1310 C1319 1.429 . S
C1311 C1309 1.419 . S
C1311 C1312 1.363 . S
C1311 H1314 0.929 . S
C1312 C1311 1.363 . S
C1312 C1318 1.428 . S
H1313 C1309 0.930 . S
H1314 C1311 0.929 . S
S1315 N1316 1.613 . S
S1315 N1317 1.610 . S
N1316 S1315 1.613 . S
N1316 C1319 1.350 . S
N1317 S1315 1.610 . S
N1317 C1318 1.351 . S
C1318 C1312 1.428 . S
C1318 N1317 1.351 . S
C1318 C1319 1.434 . S
C1319 C1310 1.429 . S
C1319 N1316 1.350 . S
C1319 C1318 1.434 . S
C1320 C1321 1.369 . S
C1320 C1322 1.419 . S
C1320 H1324 0.930 . S
C1321 C1320 1.369 . S
C1321 C1330 1.429 . S
C1322 C1320 1.419 . S
C1322 C1323 1.363 . S
C1322 H1325 0.929 . S
C1323 C1322 1.363 . S
C1323 C1329 1.428 . S
H1324 C1320 0.930 . S
H1325 C1322 0.929 . S
S1326 N1327 1.613 . S
S1326 N1328 1.610 . S
N1327 S1326 1.613 . S
N1327 C1330 1.350 . S
N1328 S1326 1.610 . S
N1328 C1329 1.351 . S
C1329 C1323 1.428 . S
C1329 N1328 1.351 . S
C1329 C1330 1.434 . S
C1330 C1321 1.429 . S
C1330 N1327 1.350 . S
C1330 C1329 1.434 . S
C1331 C1332 1.369 . S
C1331 C1333 1.419 . S
C1331 H1335 0.930 . S
C1332 C1331 1.369 . S
C1332 C1341 1.429 . S
C1333 C1331 1.419 . S
C1333 C1334 1.363 . S
C1333 H1336 0.929 . S
C1334 C1333 1.363 . S
C1334 C1340 1.428 . S
H1335 C1331 0.930 . S
H1336 C1333 0.929 . S
S1337 N1338 1.613 . S
S1337 N1339 1.610 . S
N1338 S1337 1.613 . S
N1338 C1341 1.350 . S
N1339 S1337 1.610 . S
N1339 C1340 1.351 . S
C1340 C1334 1.428 . S
C1340 N1339 1.351 . S
C1340 C1341 1.434 . S
C1341 C1332 1.429 . S
C1341 N1338 1.350 . S
C1341 C1340 1.434 . S
C1342 C1343 1.369 . S
C1342 C1344 1.419 . S
C1342 H1346 0.930 . S
C1343 C1342 1.369 . S
C1343 C1352 1.429 . S
C1344 C1342 1.419 . S
C1344 C1345 1.363 . S
C1344 H1347 0.929 . S
C1345 C1344 1.363 . S
C1345 C1351 1.428 . S
H1346 C1342 0.930 . S
H1347 C1344 0.929 . S
S1348 N1349 1.613 . S
S1348 N1350 1.610 . S
N1349 S1348 1.613 . S
N1349 C1352 1.350 . S
N1350 S1348 1.610 . S
N1350 C1351 1.351 . S
C1351 C1345 1.428 . S
C1351 N1350 1.351 . S
C1351 C1352 1.434 . S
C1352 C1343 1.429 . S
C1352 N1349 1.350 . S
C1352 C1351 1.434 . S
C1353 C1354 1.369 . S
C1353 C1355 1.419 . S
C1353 H1357 0.930 . S
C1354 C1353 1.369 . S
C1354 C1363 1.429 . S
C1355 C1353 1.419 . S
C1355 C1356 1.363 . S
C1355 H1358 0.929 . S
C1356 C1355 1.363 . S
C1356 C1362 1.428 . S
H1357 C1353 0.930 . S
H1358 C1355 0.929 . S
S1359 N1360 1.613 . S
S1359 N1361 1.610 . S
N1360 S1359 1.613 . S
N1360 C1363 1.350 . S
N1361 S1359 1.610 . S
N1361 C1362 1.351 . S
C1362 C1356 1.428 . S
C1362 N1361 1.351 . S
C1362 C1363 1.434 . S
C1363 C1354 1.429 . S
C1363 N1360 1.350 . S
C1363 C1362 1.434 . S
C1364 C1365 1.369 . S
C1364 C1366 1.419 . S
C1364 H1368 0.930 . S
C1365 C1364 1.369 . S
C1365 C1374 1.429 . S
C1366 C1364 1.419 . S
C1366 C1367 1.363 . S
C1366 H1369 0.929 . S
C1367 C1366 1.363 . S
C1367 C1373 1.428 . S
H1368 C1364 0.930 . S
H1369 C1366 0.929 . S
S1370 N1371 1.613 . S
S1370 N1372 1.610 . S
N1371 S1370 1.613 . S
N1371 C1374 1.350 . S
N1372 S1370 1.610 . S
N1372 C1373 1.351 . S
C1373 C1367 1.428 . S
C1373 N1372 1.351 . S
C1373 C1374 1.434 . S
C1374 C1365 1.429 . S
C1374 N1371 1.350 . S
C1374 C1373 1.434 . S
C1375 C1376 1.369 . S
C1375 C1377 1.419 . S
C1375 H1379 0.930 . S
C1376 C1375 1.369 . S
C1376 C1385 1.429 . S
C1377 C1375 1.419 . S
C1377 C1378 1.363 . S
C1377 H1380 0.929 . S
C1378 C1377 1.363 . S
C1378 C1384 1.428 . S
H1379 C1375 0.930 . S
H1380 C1377 0.929 . S
S1381 N1382 1.613 . S
S1381 N1383 1.610 . S
N1382 S1381 1.613 . S
N1382 C1385 1.350 . S
N1383 S1381 1.610 . S
N1383 C1384 1.351 . S
C1384 C1378 1.428 . S
C1384 N1383 1.351 . S
C1384 C1385 1.434 . S
C1385 C1376 1.429 . S
C1385 N1382 1.350 . S
C1385 C1384 1.434 . S
C1386 C1387 1.369 . S
C1386 C1388 1.419 . S
C1386 H1390 0.930 . S
C1387 C1386 1.369 . S
C1387 C1396 1.429 . S
C1388 C1386 1.419 . S
C1388 C1389 1.363 . S
C1388 H1391 0.929 . S
C1389 C1388 1.363 . S
C1389 C1395 1.428 . S
H1390 C1386 0.930 . S
H1391 C1388 0.929 . S
S1392 N1393 1.613 . S
S1392 N1394 1.610 . S
N1393 S1392 1.613 . S
N1393 C1396 1.350 . S
N1394 S1392 1.610 . S
N1394 C1395 1.351 . S
C1395 C1389 1.428 . S
C1395 N1394 1.351 . S
C1395 C1396 1.434 . S
C1396 C1387 1.429 . S
C1396 N1393 1.350 . S
C1396 C1395 1.434 . S
C1397 C1398 1.369 . S
C1397 C1399 1.419 . S
C1397 H1401 0.930 . S
C1398 C1397 1.369 . S
C1398 C1407 1.429 . S
C1399 C1397 1.419 . S
C1399 C1400 1.363 . S
C1399 H1402 0.929 . S
C1400 C1399 1.363 . S
C1400 C1406 1.428 . S
H1401 C1397 0.930 . S
H1402 C1399 0.929 . S
S1403 N1404 1.613 . S
S1403 N1405 1.610 . S
N1404 S1403 1.613 . S
N1404 C1407 1.350 . S
N1405 S1403 1.610 . S
N1405 C1406 1.351 . S
C1406 C1400 1.428 . S
C1406 N1405 1.351 . S
C1406 C1407 1.434 . S
C1407 C1398 1.429 . S
C1407 N1404 1.350 . S
C1407 C1406 1.434 . S
C1408 C1409 1.369 . S
C1408 C1410 1.419 1_665 S
C1408 H1412 0.930 . S
C1409 C1408 1.369 . S
C1409 C1418 1.429 . S
C1410 C1408 1.419 1_445 S
C1410 C1411 1.363 . S
C1410 H1413 0.929 . S
C1411 C1410 1.363 . S
C1411 C1417 1.428 . S
H1412 C1408 0.930 . S
H1413 C1410 0.929 . S
S1414 N1415 1.613 1_545 S
S1414 N1416 1.610 1_655 S
N1415 S1414 1.613 1_565 S
N1415 C1418 1.350 . S
N1416 S1414 1.610 1_455 S
N1416 C1417 1.351 . S
C1417 C1411 1.428 . S
C1417 N1416 1.351 . S
C1417 C1418 1.434 1_445 S
C1418 C1409 1.429 . S
C1418 N1415 1.350 . S
C1418 C1417 1.434 1_665 S
C1419 C1420 1.369 . S
C1419 C1421 1.419 . S
C1419 H1423 0.930 . S
C1420 C1419 1.369 . S
C1420 C1429 1.429 . S
C1421 C1419 1.419 . S
C1421 C1422 1.363 . S
C1421 H1424 0.929 . S
C1422 C1421 1.363 . S
C1422 C1428 1.428 . S
H1423 C1419 0.930 . S
H1424 C1421 0.929 . S
S1425 N1426 1.613 . S
S1425 N1427 1.610 . S
N1426 S1425 1.613 . S
N1426 C1429 1.350 . S
N1427 S1425 1.610 . S
N1427 C1428 1.351 . S
C1428 C1422 1.428 . S
C1428 N1427 1.351 . S
C1428 C1429 1.434 . S
C1429 C1420 1.429 . S
C1429 N1426 1.350 . S
C1429 C1428 1.434 . S
C1430 C1431 1.369 . S
C1430 C1432 1.419 . S
C1430 H1434 0.930 . S
C1431 C1430 1.369 . S
C1431 C1440 1.429 1_655 S
C1432 C1430 1.419 . S
C1432 C1433 1.363 1_655 S
C1432 H1435 0.929 . S
C1433 C1432 1.363 1_455 S
C1433 C1439 1.428 . S
H1434 C1430 0.930 . S
H1435 C1432 0.929 . S
S1436 N1437 1.613 . S
S1436 N1438 1.610 . S
N1437 S1436 1.613 . S
N1437 C1440 1.350 . S
N1438 S1436 1.610 . S
N1438 C1439 1.351 . S
C1439 C1433 1.428 . S
C1439 N1438 1.351 . S
C1439 C1440 1.434 . S
C1440 C1431 1.429 1_455 S
C1440 N1437 1.350 . S
C1440 C1439 1.434 . S
C1441 C1442 1.369 1_565 S
C1441 C1443 1.419 . S
C1441 H1445 0.930 . S
C1442 C1441 1.369 1_545 S
C1442 C1451 1.429 . S
C1443 C1441 1.419 . S
C1443 C1444 1.363 . S
C1443 H1446 0.929 . S
C1444 C1443 1.363 . S
C1444 C1450 1.428 1_565 S
H1445 C1441 0.930 . S
H1446 C1443 0.929 . S
S1447 N1448 1.613 . S
S1447 N1449 1.610 . S
N1448 S1447 1.613 . S
N1448 C1451 1.350 . S
N1449 S1447 1.610 . S
N1449 C1450 1.351 . S
C1450 C1444 1.428 1_545 S
C1450 N1449 1.351 . S
C1450 C1451 1.434 . S
C1451 C1442 1.429 . S
C1451 N1448 1.350 . S
C1451 C1450 1.434 . S
C1452 C1453 1.369 . S
C1452 C1454 1.419 . S
C1452 H1456 0.930 . S
C1453 C1452 1.369 . S
C1453 C1462 1.429 . S
C1454 C1452 1.419 . S
C1454 C1455 1.363 . S
C1454 H1457 0.929 . S
C1455 C1454 1.363 . S
C1455 C1461 1.428 . S
H1456 C1452 0.930 . S
H1457 C1454 0.929 . S
S1458 N1459 1.613 . S
S1458 N1460 1.610 . S
N1459 S1458 1.613 . S
N1459 C1462 1.350 . S
N1460 S1458 1.610 . S
N1460 C1461 1.351 . S
C1461 C1455 1.428 . S
C1461 N1460 1.351 . S
C1461 C1462 1.434 . S
C1462 C1453 1.429 . S
C1462 N1459 1.350 . S
C1462 C1461 1.434 . S
C1463 C1464 1.369 . S
C1463 C1465 1.401 1_655 S
C1463 H1467 0.930 . S
C1464 C1463 1.369 . S
C1464 C1473 1.429 1_655 S
C1465 C1463 1.401 1_455 S
C1465 C1466 1.381 . S
C1465 H1468 0.929 1_455 S
C1466 C1465 1.381 . S
C1466 C1472 1.428 . S
H1467 C1463 0.930 . S
H1468 C1465 0.929 1_655 S
S1469 N1470 1.613 . S
S1469 N1471 1.610 . S
N1470 S1469 1.613 . S
N1470 C1473 1.350 . S
N1471 S1469 1.610 . S
N1471 C1472 1.351 . S
C1472 C1466 1.428 . S
C1472 N1471 1.351 . S
C1472 C1473 1.434 . S
C1473 C1464 1.429 1_455 S
C1473 N1470 1.350 . S
C1473 C1472 1.434 . S
C1474 C1475 1.369 . S
C1474 C1476 1.386 1_545 S
C1474 H1478 0.930 . S
C1475 C1474 1.369 . S
C1475 C1484 1.432 1_545 S
C1476 C1474 1.386 1_565 S
C1476 C1477 1.397 . S
C1476 H1479 0.929 . S
C1477 C1476 1.397 . S
C1477 C1483 1.428 . S
H1478 C1474 0.930 . S
H1479 C1476 0.929 . S
S1480 N1481 1.613 . S
S1480 N1482 1.610 . S
N1481 S1480 1.613 . S
N1481 C1484 1.349 . S
N1482 S1480 1.610 . S
N1482 C1483 1.351 . S
C1483 C1477 1.428 . S
C1483 N1482 1.351 . S
C1483 C1484 1.431 . S
C1484 C1475 1.432 1_565 S
C1484 N1481 1.349 . S
C1484 C1483 1.431 . S
C1485 C1486 1.370 1_554 S
C1485 C1487 1.419 . S
C1485 H1489 0.930 . S
C1486 C1485 1.370 1_556 S
C1486 C1495 1.428 1_455 S
C1487 C1485 1.419 . S
C1487 C1488 1.364 1_454 S
C1487 H1490 0.929 . S
C1488 C1487 1.364 1_656 S
C1488 C1494 1.427 . S
H1489 C1485 0.930 . S
H1490 C1487 0.929 . S
S1491 N1492 1.613 . S
S1491 N1493 1.610 . S
N1492 S1491 1.613 . S
N1492 C1495 1.350 . S
N1493 S1491 1.610 . S
N1493 C1494 1.351 . S
C1494 C1488 1.427 . S
C1494 N1493 1.351 . S
C1494 C1495 1.434 . S
C1495 C1486 1.428 1_655 S
C1495 N1492 1.350 . S
C1495 C1494 1.434 . S
C1496 C1497 1.362 1_554 S
C1496 C1498 1.419 . S
C1496 H1500 0.930 . S
C1497 C1496 1.362 1_556 S
C1497 C1506 1.435 . S
C1498 C1496 1.419 . S
C1498 C1499 1.356 1_554 S
C1498 H1501 0.929 . S
C1499 C1498 1.356 1_556 S
C1499 C1505 1.436 . S
H1500 C1496 0.930 . S
H1501 C1498 0.929 . S
S1502 N1503 1.613 . S
S1502 N1504 1.610 . S
N1503 S1502 1.613 . S
N1503 C1506 1.350 . S
N1504 S1502 1.610 . S
N1504 C1505 1.351 . S
C1505 C1499 1.436 . S
C1505 N1504 1.351 . S
C1505 C1506 1.434 . S
C1506 C1497 1.435 . S
C1506 N1503 1.350 . S
C1506 C1505 1.434 . S
C1507 C1508 1.369 . S
C1507 C1509 1.419 . S
C1507 H1511 0.930 . S
C1508 C1507 1.369 . S
C1508 C1517 1.429 . S
C1509 C1507 1.419 . S
C1509 C1510 1.363 . S
C1509 H1512 0.929 . S
C1510 C1509 1.363 . S
C1510 C1516 1.428 . S
H1511 C1507 0.930 . S
H1512 C1509 0.929 . S
S1513 N1514 1.613 . S
S1513 N1515 1.610 . S
N1514 S1513 1.613 . S
N1514 C1517 1.350 . S
N1515 S1513 1.610 . S
N1515 C1516 1.351 . S
C1516 C1510 1.428 . S
C1516 N1515 1.351 . S
C1516 C1517 1.434 . S
C1517 C1508 1.429 . S
C1517 N1514 1.350 . S
C1517 C1516 1.434 . S
C1518 C1519 1.365 1_554 S
C1518 C1520 1.419 . S
C1518 H1522 0.930 . S
C1519 C1518 1.365 1_556 S
C1519 C1528 1.433 . S
C1520 C1518 1.419 . S
C1520 C1521 1.360 1_554 S
C1520 H1523 0.929 . S
C1521 C1520 1.360 1_556 S
C1521 C1527 1.432 . S
H1522 C1518 0.930 . S
H1523 C1520 0.929 . S
S1524 N1525 1.613 . S
S1524 N1526 1.610 . S
N1525 S1524 1.613 . S
N1525 C1528 1.350 . S
N1526 S1524 1.610 . S
N1526 C1527 1.351 . S
C1527 C1521 1.432 . S
C1527 N1526 1.351 . S
C1527 C1528 1.434 . S
C1528 C1519 1.433 . S
C1528 N1525 1.350 . S
C1528 C1527 1.434 . S
C1529 C1530 1.369 . S
C1529 C1531 1.419 . S
C1529 H1533 0.930 . S
C1530 C1529 1.369 . S
C1530 C1539 1.429 . S
C1531 C1529 1.419 . S
C1531 C1532 1.363 . S
C1531 H1534 0.929 . S
C1532 C1531 1.363 . S
C1532 C1538 1.428 . S
H1533 C1529 0.930 . S
H1534 C1531 0.929 . S
S1535 N1536 1.613 . S
S1535 N1537 1.610 . S
N1536 S1535 1.613 . S
N1536 C1539 1.350 . S
N1537 S1535 1.610 . S
N1537 C1538 1.351 . S
C1538 C1532 1.428 . S
C1538 N1537 1.351 . S
C1538 C1539 1.434 . S
C1539 C1530 1.429 . S
C1539 N1536 1.350 . S
C1539 C1538 1.434 . S
C1540 C1541 1.363 1_554 S
C1540 C1542 1.419 1_565 S
C1540 H1544 0.930 . S
C1541 C1540 1.363 1_556 S
C1541 C1550 1.435 . S
C1542 C1540 1.419 1_545 S
C1542 C1543 1.356 1_554 S
C1542 H1545 0.929 . S
C1543 C1542 1.356 1_556 S
C1543 C1549 1.436 . S
H1544 C1540 0.930 . S
H1545 C1542 0.929 . S
S1546 N1547 1.613 . S
S1546 N1548 1.610 1_565 S
N1547 S1546 1.613 . S
N1547 C1550 1.350 . S
N1548 S1546 1.610 1_545 S
N1548 C1549 1.351 . S
C1549 C1543 1.436 . S
C1549 N1548 1.351 . S
C1549 C1550 1.434 1_545 S
C1550 C1541 1.435 . S
C1550 N1547 1.350 . S
C1550 C1549 1.434 1_565 S
C1551 C1552 1.369 . S
C1551 C1553 1.419 . S
C1551 H1555 0.930 . S
C1552 C1551 1.369 . S
C1552 C1561 1.429 . S
C1553 C1551 1.419 . S
C1553 C1554 1.363 . S
C1553 H1556 0.929 . S
C1554 C1553 1.363 . S
C1554 C1560 1.428 . S
H1555 C1551 0.930 . S
H1556 C1553 0.929 . S
S1557 N1558 1.613 . S
S1557 N1559 1.610 . S
N1558 S1557 1.613 . S
N1558 C1561 1.350 . S
N1559 S1557 1.610 . S
N1559 C1560 1.351 . S
C1560 C1554 1.428 . S
C1560 N1559 1.351 . S
C1560 C1561 1.434 . S
C1561 C1552 1.429 . S
C1561 N1558 1.350 . S
C1561 C1560 1.434 . S
C1562 C1563 1.369 . S
C1562 C1564 1.419 . S
C1562 H1566 0.930 . S
C1563 C1562 1.369 . S
C1563 C1572 1.429 . S
C1564 C1562 1.419 . S
C1564 C1565 1.363 . S
C1564 H1567 0.929 . S
C1565 C1564 1.363 . S
C1565 C1571 1.428 . S
H1566 C1562 0.930 . S
H1567 C1564 0.929 . S
S1568 N1569 1.613 . S
S1568 N1570 1.610 . S
N1569 S1568 1.613 . S
N1569 C1572 1.350 . S
N1570 S1568 1.610 . S
N1570 C1571 1.351 . S
C1571 C1565 1.428 . S
C1571 N1570 1.351 . S
C1571 C1572 1.434 . S
C1572 C1563 1.429 . S
C1572 N1569 1.350 . S
C1572 C1571 1.434 . S
C1573 C1574 1.369 . S
C1573 C1575 1.419 . S
C1573 H1577 0.930 . S
C1574 C1573 1.369 . S
C1574 C1583 1.429 . S
C1575 C1573 1.419 . S
C1575 C1576 1.363 . S
C1575 H1578 0.929 . S
C1576 C1575 1.363 . S
C1576 C1582 1.428 . S
H1577 C1573 0.930 . S
H1578 C1575 0.929 . S
S1579 N1580 1.613 . S
S1579 N1581 1.610 . S
N1580 S1579 1.613 . S
N1580 C1583 1.350 . S
N1581 S1579 1.610 . S
N1581 C1582 1.351 . S
C1582 C1576 1.428 . S
C1582 N1581 1.351 . S
C1582 C1583 1.434 . S
C1583 C1574 1.429 . S
C1583 N1580 1.350 . S
C1583 C1582 1.434 . S
C1584 C1585 1.369 1_545 S
C1584 C1586 1.419 . S
C1584 H1588 0.930 . S
C1585 C1584 1.369 1_565 S
C1585 C1594 1.429 . S
C1586 C1584 1.419 . S
C1586 C1587 1.363 . S
C1586 H1589 0.929 . S
C1587 C1586 1.363 . S
C1587 C1593 1.428 1_545 S
H1588 C1584 0.930 . S
H1589 C1586 0.929 . S
S1590 N1591 1.613 . S
S1590 N1592 1.610 . S
N1591 S1590 1.613 . S
N1591 C1594 1.350 . S
N1592 S1590 1.610 . S
N1592 C1593 1.351 . S
C1593 C1587 1.428 1_565 S
C1593 N1592 1.351 . S
C1593 C1594 1.434 . S
C1594 C1585 1.429 . S
C1594 N1591 1.350 . S
C1594 C1593 1.434 . S
C1595 C1596 1.369 . S
C1595 C1597 1.419 . S
C1595 H1599 0.930 . S
C1596 C1595 1.369 . S
C1596 C1605 1.429 . S
C1597 C1595 1.419 . S
C1597 C1598 1.363 . S
C1597 H1600 0.929 1_655 S
C1598 C1597 1.363 . S
C1598 C1604 1.428 . S
H1599 C1595 0.930 . S
H1600 C1597 0.929 1_455 S
S1601 N1602 1.613 . S
S1601 N1603 1.610 . S
N1602 S1601 1.613 . S
N1602 C1605 1.350 . S
N1603 S1601 1.610 . S
N1603 C1604 1.351 . S
C1604 C1598 1.428 . S
C1604 N1603 1.351 . S
C1604 C1605 1.434 . S
C1605 C1596 1.429 . S
C1605 N1602 1.350 . S
C1605 C1604 1.434 . S
C1606 C1607 1.369 . S
C1606 C1608 1.419 . S
C1606 H1610 0.930 . S
C1607 C1606 1.369 . S
C1607 C1616 1.429 . S
C1608 C1606 1.419 . S
C1608 C1609 1.363 . S
C1608 H1611 0.929 . S
C1609 C1608 1.363 . S
C1609 C1615 1.428 . S
H1610 C1606 0.930 . S
H1611 C1608 0.929 . S
S1612 N1613 1.613 . S
S1612 N1614 1.610 . S
N1613 S1612 1.613 . S
N1613 C1616 1.350 . S
N1614 S1612 1.610 . S
N1614 C1615 1.351 . S
C1615 C1609 1.428 . S
C1615 N1614 1.351 . S
C1615 C1616 1.434 . S
C1616 C1607 1.429 . S
C1616 N1613 1.350 . S
C1616 C1615 1.434 . S
C1617 C1618 1.369 1_565 S
C1617 C1619 1.419 . S
C1617 H1621 0.930 . S
C1618 C1617 1.369 1_545 S
C1618 C1627 1.429 . S
C1619 C1617 1.419 . S
C1619 C1620 1.363 . S
C1619 H1622 0.929 . S
C1620 C1619 1.363 . S
C1620 C1626 1.428 1_565 S
H1621 C1617 0.930 . S
H1622 C1619 0.929 . S
S1623 N1624 1.613 . S
S1623 N1625 1.610 . S
N1624 S1623 1.613 . S
N1624 C1627 1.350 . S
N1625 S1623 1.610 . S
N1625 C1626 1.351 . S
C1626 C1620 1.428 1_545 S
C1626 N1625 1.351 . S
C1626 C1627 1.434 . S
C1627 C1618 1.429 . S
C1627 N1624 1.350 . S
C1627 C1626 1.434 . S
C1628 C1629 1.369 . S
C1628 C1630 1.419 . S
C1628 H1632 0.930 . S
C1629 C1628 1.369 . S
C1629 C1638 1.429 1_565 S
C1630 C1628 1.419 . S
C1630 C1631 1.363 1_565 S
C1630 H1633 0.929 . S
C1631 C1630 1.363 1_545 S
C1631 C1637 1.428 . S
H1632 C1628 0.930 . S
H1633 C1630 0.929 . S
S1634 N1635 1.613 . S
S1634 N1636 1.610 . S
N1635 S1634 1.613 . S
N1635 C1638 1.350 . S
N1636 S1634 1.610 . S
N1636 C1637 1.351 . S
C1637 C1631 1.428 . S
C1637 N1636 1.351 . S
C1637 C1638 1.434 . S
C1638 C1629 1.429 1_545 S
C1638 N1635 1.350 . S
C1638 C1637 1.434 . S
C1639 C1640 1.369 . S
C1639 C1641 1.419 . S
C1639 H1643 0.930 . S
C1640 C1639 1.369 . S
C1640 C1649 1.429 . S
C1641 C1639 1.419 . S
C1641 C1642 1.363 . S
C1641 H1644 0.929 . S
C1642 C1641 1.363 . S
C1642 C1648 1.428 . S
H1643 C1639 0.930 . S
H1644 C1641 0.929 . S
S1645 N1646 1.613 . S
S1645 N1647 1.610 . S
N1646 S1645 1.613 . S
N1646 C1649 1.350 . S
N1647 S1645 1.610 . S
N1647 C1648 1.351 . S
C1648 C1642 1.428 . S
C1648 N1647 1.351 . S
C1648 C1649 1.434 . S
C1649 C1640 1.429 . S
C1649 N1646 1.350 . S
C1649 C1648 1.434 . S
C1650 C1651 1.369 . S
C1650 C1652 1.419 . S
C1650 H1654 0.930 . S
C1651 C1650 1.369 . S
C1651 C1660 1.429 . S
C1652 C1650 1.419 . S
C1652 C1653 1.363 . S
C1652 H1655 0.929 . S
C1653 C1652 1.363 . S
C1653 C1659 1.428 . S
H1654 C1650 0.930 . S
H1655 C1652 0.929 . S
S1656 N1657 1.613 . S
S1656 N1658 1.610 . S
N1657 S1656 1.613 . S
N1657 C1660 1.350 . S
N1658 S1656 1.610 . S
N1658 C1659 1.351 . S
C1659 C1653 1.428 . S
C1659 N1658 1.351 . S
C1659 C1660 1.434 . S
C1660 C1651 1.429 . S
C1660 N1657 1.350 . S
C1660 C1659 1.434 . S
C1661 C1662 1.369 1_545 S
C1661 C1663 1.419 . S
C1661 H1665 0.930 . S
C1662 C1661 1.369 1_565 S
C1662 C1671 1.429 . S
C1663 C1661 1.419 . S
C1663 C1664 1.363 . S
C1663 H1666 0.929 . S
C1664 C1663 1.363 . S
C1664 C1670 1.428 1_545 S
H1665 C1661 0.930 . S
H1666 C1663 0.929 . S
S1667 N1668 1.613 . S
S1667 N1669 1.610 . S
N1668 S1667 1.613 . S
N1668 C1671 1.350 . S
N1669 S1667 1.610 . S
N1669 C1670 1.351 . S
C1670 C1664 1.428 1_565 S
C1670 N1669 1.351 . S
C1670 C1671 1.434 . S
C1671 C1662 1.429 . S
C1671 N1668 1.350 . S
C1671 C1670 1.434 . S
C1672 C1673 1.369 . S
C1672 C1674 1.419 . S
C1672 H1676 0.930 . S
C1673 C1672 1.369 . S
C1673 C1682 1.429 . S
C1674 C1672 1.419 . S
C1674 C1675 1.363 . S
C1674 H1677 0.929 . S
C1675 C1674 1.363 . S
C1675 C1681 1.428 . S
H1676 C1672 0.930 . S
H1677 C1674 0.929 . S
S1678 N1679 1.613 . S
S1678 N1680 1.610 . S
N1679 S1678 1.613 . S
N1679 C1682 1.350 . S
N1680 S1678 1.610 . S
N1680 C1681 1.351 . S
C1681 C1675 1.428 . S
C1681 N1680 1.351 . S
C1681 C1682 1.434 . S
C1682 C1673 1.429 . S
C1682 N1679 1.350 . S
C1682 C1681 1.434 . S
C1683 C1684 1.369 . S
C1683 C1685 1.419 . S
C1683 H1687 0.930 . S
C1684 C1683 1.369 . S
C1684 C1693 1.429 . S
C1685 C1683 1.419 . S
C1685 C1686 1.363 . S
C1685 H1688 0.929 . S
C1686 C1685 1.363 . S
C1686 C1692 1.428 . S
H1687 C1683 0.930 . S
H1688 C1685 0.929 . S
S1689 N1690 1.613 . S
S1689 N1691 1.610 . S
N1690 S1689 1.613 . S
N1690 C1693 1.350 . S
N1691 S1689 1.610 . S
N1691 C1692 1.351 . S
C1692 C1686 1.428 . S
C1692 N1691 1.351 . S
C1692 C1693 1.434 . S
C1693 C1684 1.429 . S
C1693 N1690 1.350 . S
C1693 C1692 1.434 . S
C1694 C1695 1.369 . S
C1694 C1696 1.419 . S
C1694 H1698 0.930 . S
C1695 C1694 1.369 . S
C1695 C1704 1.429 . S
C1696 C1694 1.419 . S
C1696 C1697 1.363 . S
C1696 H1699 0.929 . S
C1697 C1696 1.363 . S
C1697 C1703 1.428 . S
H1698 C1694 0.930 . S
H1699 C1696 0.929 . S
S1700 N1701 1.613 . S
S1700 N1702 1.610 . S
N1701 S1700 1.613 . S
N1701 C1704 1.350 . S
N1702 S1700 1.610 . S
N1702 C1703 1.351 . S
C1703 C1697 1.428 . S
C1703 N1702 1.351 . S
C1703 C1704 1.434 . S
C1704 C1695 1.429 . S
C1704 N1701 1.350 . S
C1704 C1703 1.434 . S
C1705 C1706 1.369 . S
C1705 C1707 1.419 . S
C1705 H1709 0.930 . S
C1706 C1705 1.369 . S
C1706 C1715 1.429 . S
C1707 C1705 1.419 . S
C1707 C1708 1.363 . S
C1707 H1710 0.929 . S
C1708 C1707 1.363 . S
C1708 C1714 1.428 . S
H1709 C1705 0.930 . S
H1710 C1707 0.929 . S
S1711 N1712 1.613 . S
S1711 N1713 1.610 . S
N1712 S1711 1.613 . S
N1712 C1715 1.350 . S
N1713 S1711 1.610 . S
N1713 C1714 1.351 . S
C1714 C1708 1.428 . S
C1714 N1713 1.351 . S
C1714 C1715 1.434 . S
C1715 C1706 1.429 . S
C1715 N1712 1.350 . S
C1715 C1714 1.434 . S
C1716 C1717 1.369 . S
C1716 C1718 1.419 . S
C1716 H1720 0.930 . S
C1717 C1716 1.369 . S
C1717 C1726 1.429 . S
C1718 C1716 1.419 . S
C1718 C1719 1.363 . S
C1718 H1721 0.929 . S
C1719 C1718 1.363 . S
C1719 C1725 1.428 . S
H1720 C1716 0.930 . S
H1721 C1718 0.929 . S
S1722 N1723 1.613 . S
S1722 N1724 1.610 . S
N1723 S1722 1.613 . S
N1723 C1726 1.350 . S
N1724 S1722 1.610 . S
N1724 C1725 1.351 . S
C1725 C1719 1.428 . S
C1725 N1724 1.351 . S
C1725 C1726 1.434 . S
C1726 C1717 1.429 . S
C1726 N1723 1.350 . S
C1726 C1725 1.434 . S
C1727 C1728 1.369 . S
C1727 C1729 1.419 . S
C1727 H1731 0.930 . S
C1728 C1727 1.369 . S
C1728 C1737 1.429 . S
C1729 C1727 1.419 . S
C1729 C1730 1.363 . S
C1729 H1732 0.929 1_556 S
C1730 C1729 1.363 . S
C1730 C1736 1.428 . S
H1731 C1727 0.930 . S
H1732 C1729 0.929 1_554 S
S1733 N1734 1.613 1_655 S
S1733 N1735 1.610 . S
N1734 S1733 1.613 1_455 S
N1734 C1737 1.350 . S
N1735 S1733 1.610 . S
N1735 C1736 1.351 1_655 S
C1736 C1730 1.428 . S
C1736 N1735 1.351 1_455 S
C1736 C1737 1.434 . S
C1737 C1728 1.429 . S
C1737 N1734 1.350 . S
C1737 C1736 1.434 . S
C1738 C1739 1.369 . S
C1738 C1740 1.419 . S
C1738 H1742 0.930 . S
C1739 C1738 1.369 . S
C1739 C1748 1.429 . S
C1740 C1738 1.419 . S
C1740 C1741 1.363 . S
C1740 H1743 0.929 . S
C1741 C1740 1.363 . S
C1741 C1747 1.428 . S
H1742 C1738 0.930 . S
H1743 C1740 0.929 . S
S1744 N1745 1.613 . S
S1744 N1746 1.610 . S
N1745 S1744 1.613 . S
N1745 C1748 1.350 . S
N1746 S1744 1.610 . S
N1746 C1747 1.351 . S
C1747 C1741 1.428 . S
C1747 N1746 1.351 . S
C1747 C1748 1.434 . S
C1748 C1739 1.429 . S
C1748 N1745 1.350 . S
C1748 C1747 1.434 . S
C1749 C1750 1.369 . S
C1749 C1751 1.419 . S
C1749 H1753 0.930 . S
C1750 C1749 1.369 . S
C1750 C1759 1.429 . S
C1751 C1749 1.419 . S
C1751 C1752 1.363 . S
C1751 H1754 0.929 . S
C1752 C1751 1.363 . S
C1752 C1758 1.428 . S
H1753 C1749 0.930 . S
H1754 C1751 0.929 . S
S1755 N1756 1.613 . S
S1755 N1757 1.610 1_655 S
N1756 S1755 1.613 . S
N1756 C1759 1.350 1_655 S
N1757 S1755 1.610 1_455 S
N1757 C1758 1.351 . S
C1758 C1752 1.428 . S
C1758 N1757 1.351 . S
C1758 C1759 1.434 . S
C1759 C1750 1.429 . S
C1759 N1756 1.350 1_455 S
C1759 C1758 1.434 . S
C1760 C1761 1.369 1_545 S
C1760 C1762 1.419 . S
C1760 H1764 0.930 . S
C1761 C1760 1.369 1_565 S
C1761 C1770 1.429 . S
C1762 C1760 1.419 . S
C1762 C1763 1.363 . S
C1762 H1765 0.929 . S
C1763 C1762 1.363 . S
C1763 C1769 1.428 1_545 S
H1764 C1760 0.930 . S
H1765 C1762 0.929 . S
S1766 N1767 1.613 . S
S1766 N1768 1.610 . S
N1767 S1766 1.613 . S
N1767 C1770 1.350 . S
N1768 S1766 1.610 . S
N1768 C1769 1.351 . S
C1769 C1763 1.428 1_565 S
C1769 N1768 1.351 . S
C1769 C1770 1.434 . S
C1770 C1761 1.429 . S
C1770 N1767 1.350 . S
C1770 C1769 1.434 . S
C1771 C1772 1.369 . S
C1771 C1773 1.419 . S
C1771 H1775 0.930 . S
C1772 C1771 1.369 . S
C1772 C1781 1.429 . S
C1773 C1771 1.419 . S
C1773 C1774 1.363 . S
C1773 H1776 0.929 1_554 S
C1774 C1773 1.363 . S
C1774 C1780 1.428 . S
H1775 C1771 0.930 . S
H1776 C1773 0.929 1_556 S
S1777 N1778 1.613 . S
S1777 N1779 1.610 . S
N1778 S1777 1.613 . S
N1778 C1781 1.350 . S
N1779 S1777 1.610 . S
N1779 C1780 1.351 . S
C1780 C1774 1.428 . S
C1780 N1779 1.351 . S
C1780 C1781 1.434 . S
C1781 C1772 1.429 . S
C1781 N1778 1.350 . S
C1781 C1780 1.434 . S
C1782 C1783 1.369 . S
C1782 C1784 1.419 . S
C1782 H1786 0.930 . S
C1783 C1782 1.369 . S
C1783 C1792 1.429 . S
C1784 C1782 1.419 . S
C1784 C1785 1.363 . S
C1784 H1787 0.929 . S
C1785 C1784 1.363 . S
C1785 C1791 1.428 . S
H1786 C1782 0.930 . S
H1787 C1784 0.929 . S
S1788 N1789 1.613 . S
S1788 N1790 1.610 . S
N1789 S1788 1.613 . S
N1789 C1792 1.350 . S
N1790 S1788 1.610 . S
N1790 C1791 1.351 . S
C1791 C1785 1.428 . S
C1791 N1790 1.351 . S
C1791 C1792 1.434 . S
C1792 C1783 1.429 . S
C1792 N1789 1.350 . S
C1792 C1791 1.434 . S
C1793 C1794 1.369 . S
C1793 C1795 1.419 . S
C1793 H1797 0.930 . S
C1794 C1793 1.369 . S
C1794 C1803 1.429 1_545 S
C1795 C1793 1.419 . S
C1795 C1796 1.363 1_545 S
C1795 H1798 0.929 . S
C1796 C1795 1.363 1_565 S
C1796 C1802 1.428 . S
H1797 C1793 0.930 . S
H1798 C1795 0.929 . S
S1799 N1800 1.613 . S
S1799 N1801 1.610 . S
N1800 S1799 1.613 . S
N1800 C1803 1.350 . S
N1801 S1799 1.610 . S
N1801 C1802 1.351 . S
C1802 C1796 1.428 . S
C1802 N1801 1.351 . S
C1802 C1803 1.434 . S
C1803 C1794 1.429 1_565 S
C1803 N1800 1.350 . S
C1803 C1802 1.434 . S
C1804 C1805 1.369 . S
C1804 C1806 1.419 . S
C1804 H1808 0.930 . S
C1805 C1804 1.369 . S
C1805 C1814 1.429 1_565 S
C1806 C1804 1.419 . S
C1806 C1807 1.363 1_565 S
C1806 H1809 0.929 . S
C1807 C1806 1.363 1_545 S
C1807 C1813 1.428 . S
H1808 C1804 0.930 . S
H1809 C1806 0.929 . S
S1810 N1811 1.613 . S
S1810 N1812 1.610 . S
N1811 S1810 1.613 . S
N1811 C1814 1.350 . S
N1812 S1810 1.610 . S
N1812 C1813 1.351 . S
C1813 C1807 1.428 . S
C1813 N1812 1.351 . S
C1813 C1814 1.434 . S
C1814 C1805 1.429 1_545 S
C1814 N1811 1.350 . S
C1814 C1813 1.434 . S
C1815 C1816 1.369 . S
C1815 C1817 1.419 . S
C1815 H1819 0.930 . S
C1816 C1815 1.369 . S
C1816 C1825 1.429 . S
C1817 C1815 1.419 . S
C1817 C1818 1.363 . S
C1817 H1820 0.929 . S
C1818 C1817 1.363 . S
C1818 C1824 1.428 . S
H1819 C1815 0.930 . S
H1820 C1817 0.929 . S
S1821 N1822 1.613 . S
S1821 N1823 1.610 . S
N1822 S1821 1.613 . S
N1822 C1825 1.350 . S
N1823 S1821 1.610 . S
N1823 C1824 1.351 . S
C1824 C1818 1.428 . S
C1824 N1823 1.351 . S
C1824 C1825 1.434 . S
C1825 C1816 1.429 . S
C1825 N1822 1.350 . S
C1825 C1824 1.434 . S
C1826 C1827 1.369 . S
C1826 C1828 1.419 . S
C1826 H1830 0.930 . S
C1827 C1826 1.369 . S
C1827 C1836 1.429 . S
C1828 C1826 1.419 . S
C1828 C1829 1.363 . S
C1828 H1831 0.929 . S
C1829 C1828 1.363 . S
C1829 C1835 1.428 . S
H1830 C1826 0.930 . S
H1831 C1828 0.929 . S
S1832 N1833 1.613 . S
S1832 N1834 1.610 . S
N1833 S1832 1.613 . S
N1833 C1836 1.350 . S
N1834 S1832 1.610 . S
N1834 C1835 1.351 . S
C1835 C1829 1.428 . S
C1835 N1834 1.351 . S
C1835 C1836 1.434 . S
C1836 C1827 1.429 . S
C1836 N1833 1.350 . S
C1836 C1835 1.434 . S
C1837 C1838 1.369 . S
C1837 C1839 1.419 . S
C1837 H1841 0.930 . S
C1838 C1837 1.369 . S
C1838 C1847 1.429 1_565 S
C1839 C1837 1.419 . S
C1839 C1840 1.363 1_565 S
C1839 H1842 0.929 . S
C1840 C1839 1.363 1_545 S
C1840 C1846 1.428 . S
H1841 C1837 0.930 . S
H1842 C1839 0.929 . S
S1843 N1844 1.613 . S
S1843 N1845 1.610 . S
N1844 S1843 1.613 . S
N1844 C1847 1.350 . S
N1845 S1843 1.610 . S
N1845 C1846 1.351 . S
C1846 C1840 1.428 . S
C1846 N1845 1.351 . S
C1846 C1847 1.434 . S
C1847 C1838 1.429 1_545 S
C1847 N1844 1.350 . S
C1847 C1846 1.434 . S
C1848 C1849 1.369 . S
C1848 C1850 1.419 . S
C1848 H1852 0.930 . S
C1849 C1848 1.369 . S
C1849 C1858 1.429 . S
C1850 C1848 1.419 . S
C1850 C1851 1.363 . S
C1850 H1853 0.929 . S
C1851 C1850 1.363 . S
C1851 C1857 1.428 . S
H1852 C1848 0.930 . S
H1853 C1850 0.929 . S
S1854 N1855 1.613 . S
S1854 N1856 1.610 . S
N1855 S1854 1.613 . S
N1855 C1858 1.350 . S
N1856 S1854 1.610 . S
N1856 C1857 1.351 . S
C1857 C1851 1.428 . S
C1857 N1856 1.351 . S
C1857 C1858 1.434 . S
C1858 C1849 1.429 . S
C1858 N1855 1.350 . S
C1858 C1857 1.434 . S
C1859 C1860 1.369 . S
C1859 C1861 1.419 . S
C1859 H1863 0.930 . S
C1860 C1859 1.369 . S
C1860 C1869 1.429 . S
C1861 C1859 1.419 . S
C1861 C1862 1.363 . S
C1861 H1864 0.929 . S
C1862 C1861 1.363 . S
C1862 C1868 1.428 . S
H1863 C1859 0.930 . S
H1864 C1861 0.929 . S
S1865 N1866 1.613 . S
S1865 N1867 1.610 . S
N1866 S1865 1.613 . S
N1866 C1869 1.350 . S
N1867 S1865 1.610 . S
N1867 C1868 1.351 . S
C1868 C1862 1.428 . S
C1868 N1867 1.351 . S
C1868 C1869 1.434 . S
C1869 C1860 1.429 . S
C1869 N1866 1.350 . S
C1869 C1868 1.434 . S
C1870 C1871 1.369 . S
C1870 C1872 1.419 . S
C1870 H1874 0.930 . S
C1871 C1870 1.369 . S
C1871 C1880 1.429 . S
C1872 C1870 1.419 . S
C1872 C1873 1.363 . S
C1872 H1875 0.929 . S
C1873 C1872 1.363 . S
C1873 C1879 1.428 . S
H1874 C1870 0.930 . S
H1875 C1872 0.929 . S
S1876 N1877 1.613 . S
S1876 N1878 1.610 . S
N1877 S1876 1.613 . S
N1877 C1880 1.350 . S
N1878 S1876 1.610 . S
N1878 C1879 1.351 . S
C1879 C1873 1.428 . S
C1879 N1878 1.351 . S
C1879 C1880 1.434 . S
C1880 C1871 1.429 . S
C1880 N1877 1.350 . S
C1880 C1879 1.434 . S
C1881 C1882 1.369 . S
C1881 C1883 1.419 . S
C1881 H1885 0.930 . S
C1882 C1881 1.369 . S
C1882 C1891 1.429 . S
C1883 C1881 1.419 . S
C1883 C1884 1.363 . S
C1883 H1886 0.929 . S
C1884 C1883 1.363 . S
C1884 C1890 1.428 . S
H1885 C1881 0.930 . S
H1886 C1883 0.929 . S
S1887 N1888 1.613 . S
S1887 N1889 1.610 . S
N1888 S1887 1.613 . S
N1888 C1891 1.350 . S
N1889 S1887 1.610 . S
N1889 C1890 1.351 . S
C1890 C1884 1.428 . S
C1890 N1889 1.351 . S
C1890 C1891 1.434 . S
C1891 C1882 1.429 . S
C1891 N1888 1.350 . S
C1891 C1890 1.434 . S
C1892 C1893 1.369 . S
C1892 C1894 1.419 . S
C1892 H1896 0.930 . S
C1893 C1892 1.369 . S
C1893 C1902 1.429 . S
C1894 C1892 1.419 . S
C1894 C1895 1.363 . S
C1894 H1897 0.929 . S
C1895 C1894 1.363 . S
C1895 C1901 1.428 . S
H1896 C1892 0.930 . S
H1897 C1894 0.929 . S
S1898 N1899 1.613 . S
S1898 N1900 1.610 . S
N1899 S1898 1.613 . S
N1899 C1902 1.350 . S
N1900 S1898 1.610 . S
N1900 C1901 1.351 . S
C1901 C1895 1.428 . S
C1901 N1900 1.351 . S
C1901 C1902 1.434 . S
C1902 C1893 1.429 . S
C1902 N1899 1.350 . S
C1902 C1901 1.434 . S
C1903 C1904 1.369 . S
C1903 C1905 1.419 . S
C1903 H1907 0.930 . S
C1904 C1903 1.369 . S
C1904 C1913 1.429 . S
C1905 C1903 1.419 . S
C1905 C1906 1.363 . S
C1905 H1908 0.929 . S
C1906 C1905 1.363 . S
C1906 C1912 1.428 . S
H1907 C1903 0.930 . S
H1908 C1905 0.929 . S
S1909 N1910 1.613 . S
S1909 N1911 1.610 . S
N1910 S1909 1.613 . S
N1910 C1913 1.350 . S
N1911 S1909 1.610 . S
N1911 C1912 1.351 . S
C1912 C1906 1.428 . S
C1912 N1911 1.351 . S
C1912 C1913 1.434 . S
C1913 C1904 1.429 . S
C1913 N1910 1.350 . S
C1913 C1912 1.434 . S
C1914 C1915 1.369 . S
C1914 C1916 1.419 . S
C1914 H1918 0.930 . S
C1915 C1914 1.369 . S
C1915 C1924 1.429 . S
C1916 C1914 1.419 . S
C1916 C1917 1.363 . S
C1916 H1919 0.929 . S
C1917 C1916 1.363 . S
C1917 C1923 1.428 . S
H1918 C1914 0.930 . S
H1919 C1916 0.929 . S
S1920 N1921 1.613 . S
S1920 N1922 1.610 . S
N1921 S1920 1.613 . S
N1921 C1924 1.350 . S
N1922 S1920 1.610 . S
N1922 C1923 1.351 . S
C1923 C1917 1.428 . S
C1923 N1922 1.351 . S
C1923 C1924 1.434 . S
C1924 C1915 1.429 . S
C1924 N1921 1.350 . S
C1924 C1923 1.434 . S
C1925 C1926 1.369 . S
C1925 C1927 1.419 . S
C1925 H1929 0.930 . S
C1926 C1925 1.369 . S
C1926 C1935 1.429 . S
C1927 C1925 1.419 . S
C1927 C1928 1.363 . S
C1927 H1930 0.929 . S
C1928 C1927 1.363 . S
C1928 C1934 1.428 . S
H1929 C1925 0.930 . S
H1930 C1927 0.929 . S
S1931 N1932 1.613 . S
S1931 N1933 1.610 . S
N1932 S1931 1.613 . S
N1932 C1935 1.350 . S
N1933 S1931 1.610 . S
N1933 C1934 1.351 . S
C1934 C1928 1.428 . S
C1934 N1933 1.351 . S
C1934 C1935 1.434 . S
C1935 C1926 1.429 . S
C1935 N1932 1.350 . S
C1935 C1934 1.434 . S
C1057 C21 1.530 . S
C1059 C54 1.529 . S
C1068 C120 1.529 . S
C1070 C87 1.530 . S
C1079 C186 1.531 . S
C1081 C153 1.529 . S
C1090 C252 1.529 . S
C1092 C219 1.530 . S
C1101 C318 1.531 . S
C1103 C285 1.529 . S
C1112 C384 1.530 . S
C1114 C351 1.531 . S
C1123 C417 1.530 . S
C1125 C450 1.529 . S
C1134 C516 1.530 . S
C1136 C483 1.530 . S
C1145 C549 1.530 . S
C1147 C582 1.529 . S
C1156 C615 1.530 . S
C1158 C648 1.529 . S
C1167 C714 1.530 . S
C1169 C681 1.529 . S
C1178 C747 1.530 . S
C1180 C780 1.529 . S
C1189 C813 1.529 . S
C1191 C846 1.530 . S
C1200 C879 1.529 . S
C1202 C912 1.530 . S
C1211 C945 1.531 . S
C1213 C978 1.529 . S
C1222 C1011 1.530 . S
C1224 C1044 1.529 . S
C1233 N13 0.959 . S
C1235 N640 0.959 . S
C1244 N607 0.959 . S
C1246 N46 0.959 . S
C1255 N574 0.959 . S
C1257 N79 0.957 . S
C1266 N112 0.959 . S
C1268 N541 0.957 . S
C1277 N772 0.956 . S
C1279 N145 0.958 . S
C1288 N739 0.957 . S
C1290 N178 0.957 . S
C1299 N706 0.959 . S
C1301 N211 0.957 . S
C1310 N673 0.958 . S
C1312 N244 0.959 . S
C1321 N277 0.956 . S
C1323 N904 0.958 . S
C1332 N871 0.956 . S
C1334 N310 0.958 . S
C1343 N343 0.960 . S
C1345 N838 0.958 . S
C1354 N805 0.960 . S
C1356 N376 0.957 . S
C1365 N409 0.960 . S
C1367 N1036 0.959 . S
C1376 N442 0.957 . S
C1378 N1003 0.957 . S
C1387 N970 0.958 . S
C1389 N475 0.957 . S
C1398 N508 0.959 . S
C1400 N937 0.957 . S
C1409 N134 0.948 . S
C1411 N2 0.955 . S
C1420 N959 0.947 . S
C1422 N35 0.956 . S
C1431 N464 0.960 . S
C1433 N68 0.946 . S
C1442 N101 0.960 . S
C1444 N761 0.946 . S
C1453 N167 0.944 . S
C1455 N827 0.958 . S
C1464 N200 0.959 . S
C1466 N332 0.946 . S
C1475 N629 0.946 . S
C1477 N233 0.956 . S
C1486 N266 0.960 . S
C1488 N398 0.946 1_556 S
C1497 N695 0.957 1_556 S
C1499 N299 0.948 . S
C1508 N1025 0.959 . S
C1510 N365 0.947 . S
C1519 N431 0.947 1_556 S
C1521 N563 0.956 . S
C1530 N893 0.945 . S
C1532 N497 0.957 . S
C1541 N662 0.957 1_556 S
C1543 N530 0.948 . S
C1552 N992 0.959 . S
C1554 N596 0.946 . S
C1563 N728 0.947 . S
C1565 N860 0.956 . S
C1574 N926 0.950 . S
C1576 N794 0.954 . S
C1585 C766 1.989 . S
C1587 C18 2.047 . S
C1596 C469 1.991 . S
C1598 C51 2.045 1_655 S
C1607 C964 1.991 . S
C1609 C84 2.045 . S
C1618 C117 2.045 1_655 S
C1620 C139 1.990 . S
C1629 C150 2.048 . S
C1631 C634 1.985 . S
C1640 C337 1.987 . S
C1642 C183 2.047 1_455 S
C1651 C216 2.048 . S
C1653 C832 1.985 . S
C1662 C249 2.047 1_455 S
C1664 C7 1.986 . S
C1673 C282 2.048 1_554 S
C1675 C1030 1.985 . S
C1684 C205 1.986 . S
C1686 C315 2.047 1_654 S
C1695 C348 2.048 . S
C1697 C700 1.987 . S
C1706 C381 2.045 1_655 S
C1708 C403 1.989 . S
C1717 C414 2.045 1_556 S
C1719 C898 1.990 . S
C1728 C73 1.986 . S
C1730 C447 2.047 1_456 S
C1739 C568 1.989 . S
C1741 C480 2.046 . S
C1750 C513 2.048 1_455 S
C1752 C271 1.985 . S
C1761 C238 1.987 . S
C1763 C546 2.047 1_554 S
C1772 C997 1.985 . S
C1774 C579 2.047 1_554 S
C1783 C436 1.991 . S
C1785 C612 2.045 . S
C1794 C645 2.048 . S
C1796 C667 1.985 . S
C1805 C678 2.048 1_556 S
C1807 C106 1.985 . S
C1816 C865 1.989 . S
C1818 C711 2.046 1_556 S
C1827 C744 2.046 . S
C1829 C304 1.988 . S
C1838 C777 2.048 . S
C1840 C535 1.985 . S
C1849 C502 1.988 . S
C1851 C810 2.046 . S
C1860 C843 2.048 . S
C1862 C733 1.985 . S
C1871 C876 2.045 . S
C1873 C172 1.990 . S
C1882 C931 1.985 . S
C1884 C909 2.047 . S
C1893 C942 2.045 . S
C1895 C370 1.990 . S
C1904 C975 2.045 . S
C1906 C601 1.989 . S
C1915 C40 1.990 . S
C1917 C1008 2.046 . S
C1926 C799 1.989 . S
C1928 C1041 2.046 . S
