# Generated by pormake.
# Topology uoy, (4)-cn, num edge types: 1
# Building blocks:
#     Node 0, Type 0, BuildingBlock: NAHDIM_clean_sbu_0, # of connection points: 4
#     Node 1, Type 0, BuildingBlock: NAHDIM_clean_sbu_0, # of connection points: 4
#     Node 2, Type 0, BuildingBlock: NAHDIM_clean_sbu_0, # of connection points: 4
#     Node 3, Type 0, BuildingBlock: NAHDIM_clean_sbu_0, # of connection points: 4
#     Node 4, Type 0, BuildingBlock: NAHDIM_clean_sbu_0, # of connection points: 4
#     Node 5, Type 0, BuildingBlock: NAHDIM_clean_sbu_0, # of connection points: 4
#     Node 6, Type 0, BuildingBlock: NAHDIM_clean_sbu_0, # of connection points: 4
#     Node 7, Type 0, BuildingBlock: NAHDIM_clean_sbu_0, # of connection points: 4
#     Node 8, Type 0, BuildingBlock: NAHDIM_clean_sbu_0, # of connection points: 4
#     Node 9, Type 0, BuildingBlock: NAHDIM_clean_sbu_0, # of connection points: 4
#     Node 10, Type 0, BuildingBlock: NAHDIM_clean_sbu_0, # of connection points: 4
#     Node 11, Type 0, BuildingBlock: NAHDIM_clean_sbu_0, # of connection points: 4
#     Node 12, Type 0, BuildingBlock: NAHDIM_clean_sbu_0, # of connection points: 4
#     Node 13, Type 0, BuildingBlock: NAHDIM_clean_sbu_0, # of connection points: 4
#     Node 14, Type 0, BuildingBlock: NAHDIM_clean_sbu_0, # of connection points: 4
#     Node 15, Type 0, BuildingBlock: NAHDIM_clean_sbu_0, # of connection points: 4
#     Edge 16, Type (0, 0), BuildingBlock: EYOCIG_clean_linker_4, # of connection points: 2
#     Edge 17, Type (0, 0), BuildingBlock: EYOCIG_clean_linker_4, # of connection points: 2
#     Edge 18, Type (0, 0), BuildingBlock: EYOCIG_clean_linker_4, # of connection points: 2
#     Edge 19, Type (0, 0), BuildingBlock: EYOCIG_clean_linker_4, # of connection points: 2
#     Edge 20, Type (0, 0), BuildingBlock: EYOCIG_clean_linker_4, # of connection points: 2
#     Edge 21, Type (0, 0), BuildingBlock: EYOCIG_clean_linker_4, # of connection points: 2
#     Edge 22, Type (0, 0), BuildingBlock: EYOCIG_clean_linker_4, # of connection points: 2
#     Edge 23, Type (0, 0), BuildingBlock: EYOCIG_clean_linker_4, # of connection points: 2
#     Edge 24, Type (0, 0), BuildingBlock: EYOCIG_clean_linker_4, # of connection points: 2
#     Edge 25, Type (0, 0), BuildingBlock: EYOCIG_clean_linker_4, # of connection points: 2
#     Edge 26, Type (0, 0), BuildingBlock: EYOCIG_clean_linker_4, # of connection points: 2
#     Edge 27, Type (0, 0), BuildingBlock: EYOCIG_clean_linker_4, # of connection points: 2
#     Edge 28, Type (0, 0), BuildingBlock: EYOCIG_clean_linker_4, # of connection points: 2
#     Edge 29, Type (0, 0), BuildingBlock: EYOCIG_clean_linker_4, # of connection points: 2
#     Edge 30, Type (0, 0), BuildingBlock: EYOCIG_clean_linker_4, # of connection points: 2
#     Edge 31, Type (0, 0), BuildingBlock: EYOCIG_clean_linker_4, # of connection points: 2
#     Edge 32, Type (0, 0), BuildingBlock: EYOCIG_clean_linker_4, # of connection points: 2
#     Edge 33, Type (0, 0), BuildingBlock: EYOCIG_clean_linker_4, # of connection points: 2
#     Edge 34, Type (0, 0), BuildingBlock: EYOCIG_clean_linker_4, # of connection points: 2
#     Edge 35, Type (0, 0), BuildingBlock: EYOCIG_clean_linker_4, # of connection points: 2
#     Edge 36, Type (0, 0), BuildingBlock: EYOCIG_clean_linker_4, # of connection points: 2
#     Edge 37, Type (0, 0), BuildingBlock: EYOCIG_clean_linker_4, # of connection points: 2
#     Edge 38, Type (0, 0), BuildingBlock: EYOCIG_clean_linker_4, # of connection points: 2
#     Edge 39, Type (0, 0), BuildingBlock: EYOCIG_clean_linker_4, # of connection points: 2
#     Edge 40, Type (0, 0), BuildingBlock: EYOCIG_clean_linker_4, # of connection points: 2
#     Edge 41, Type (0, 0), BuildingBlock: EYOCIG_clean_linker_4, # of connection points: 2
#     Edge 42, Type (0, 0), BuildingBlock: EYOCIG_clean_linker_4, # of connection points: 2
#     Edge 43, Type (0, 0), BuildingBlock: EYOCIG_clean_linker_4, # of connection points: 2
#     Edge 44, Type (0, 0), BuildingBlock: EYOCIG_clean_linker_4, # of connection points: 2
#     Edge 45, Type (0, 0), BuildingBlock: EYOCIG_clean_linker_4, # of connection points: 2
#     Edge 46, Type (0, 0), BuildingBlock: EYOCIG_clean_linker_4, # of connection points: 2
#     Edge 47, Type (0, 0), BuildingBlock: EYOCIG_clean_linker_4, # of connection points: 2
# Relax obj value: 0.104
# Max RMSD: 0.146
# Mean RMSD: 0.146
data_MOF--net-uoy--node1-NAHDIM_clean_sbu_0--edge1-EYOCIG_clean_linker_4
_symmetry_space_group_name_H-M    P1
_symmetry_Int_Tables_number       1
_symmetry_cell_setting            triclinic
loop_
_symmetry_equiv_pos_as_xyz
'x, y, z'
_cell_length_a     22.851022
_cell_length_b     22.845418
_cell_length_c     81.096918
_cell_angle_alpha  89.961785
_cell_angle_beta   90.020356
_cell_angle_gamma 89.977585
loop_
_atom_site_label
_atom_site_type_symbol
_atom_site_fract_x
_atom_site_fract_y
_atom_site_fract_z
_atom_type_partial_charge
C0 C 0.11717 0.06061 0.17335 0.0
O1 O 0.11617 0.11733 0.17586 0.0
O2 O 0.2437 0.11879 0.19608 0.0
Zn3 Zn 0.23949 0.08284 0.17342 0.0
O4 O 0.23835 0.14583 0.15593 0.0
C5 C 0.36049 0.05845 0.17373 0.0
O6 O 0.36118 0.11367 0.17816 0.0
O7 O 0.16586 0.03437 0.17176 0.0
C8 C 0.26246 0.13788 0.14201 0.0
O9 O 0.28864 0.08812 0.13874 0.0
C10 C 0.23791 0.17307 0.19896 0.0
O11 O 0.22706 0.20972 0.18689 0.0
O12 O 0.31203 0.03339 0.17072 0.0
C13 C 0.91779 0.61813 0.42359 0.0
O14 O 0.86107 0.61726 0.42608 0.0
O15 O 0.85997 0.74503 0.44639 0.0
Zn16 Zn 0.8959 0.74056 0.42373 0.0
O17 O 0.83315 0.74004 0.40623 0.0
C18 C 0.91947 0.86152 0.42317 0.0
O19 O 0.86354 0.86224 0.42682 0.0
O20 O 0.94414 0.66677 0.42205 0.0
C21 C 0.84441 0.75783 0.39175 0.0
O22 O 0.89711 0.77644 0.38806 0.0
C23 C 0.80578 0.73877 0.44932 0.0
O24 O 0.76921 0.72728 0.43728 0.0
O25 O 0.94538 0.81295 0.42096 0.0
C26 C 0.36212 0.41793 0.67364 0.0
O27 O 0.36315 0.36119 0.67613 0.0
O28 O 0.2356 0.35966 0.69644 0.0
Zn29 Zn 0.23977 0.39572 0.67379 0.0
O30 O 0.24066 0.33289 0.65629 0.0
C31 C 0.11873 0.41967 0.67388 0.0
O32 O 0.11815 0.36416 0.67804 0.0
O33 O 0.31341 0.44418 0.6721 0.0
C34 C 0.21847 0.34209 0.64217 0.0
O35 O 0.19464 0.39293 0.63876 0.0
C36 C 0.24204 0.30546 0.69937 0.0
O37 O 0.25361 0.26894 0.68733 0.0
O38 O 0.16716 0.44511 0.67111 0.0
C39 C 0.56144 0.86113 0.92349 0.0
O40 O 0.61816 0.86215 0.92598 0.0
O41 O 0.61987 0.73447 0.94624 0.0
Zn42 Zn 0.58376 0.73875 0.9236 0.0
O43 O 0.64656 0.73977 0.90611 0.0
C44 C 0.5601 0.61764 0.9235 0.0
O45 O 0.61574 0.617 0.9275 0.0
O46 O 0.53524 0.81241 0.92193 0.0
C47 C 0.63691 0.71879 0.89188 0.0
O48 O 0.58563 0.69622 0.88835 0.0
C49 C 0.67399 0.74143 0.94915 0.0
O50 O 0.71033 0.75358 0.93711 0.0
O51 O 0.53448 0.66613 0.9209 0.0
C52 C 0.11786 0.41827 0.05207 0.0
O53 O 0.11709 0.3615 0.04966 0.0
O54 O 0.24455 0.36 0.02933 0.0
Zn55 Zn 0.24027 0.39657 0.05191 0.0
O56 O 0.24015 0.33436 0.06957 0.0
C57 C 0.36115 0.42017 0.05231 0.0
O58 O 0.36179 0.36412 0.04881 0.0
O59 O 0.16644 0.44475 0.05355 0.0
C60 C 0.25772 0.34632 0.08403 0.0
O61 O 0.27574 0.39936 0.08757 0.0
C62 C 0.23856 0.30568 0.02654 0.0
O63 O 0.22747 0.26936 0.03868 0.0
O64 O 0.31263 0.4462 0.05449 0.0
C65 C 0.56036 0.61742 0.30229 0.0
O66 O 0.61706 0.61646 0.29976 0.0
O67 O 0.61835 0.74414 0.27953 0.0
Zn68 Zn 0.58244 0.7398 0.3022 0.0
O69 O 0.64532 0.73895 0.31968 0.0
C70 C 0.55857 0.86084 0.30242 0.0
O71 O 0.61425 0.86156 0.29848 0.0
O72 O 0.5341 0.66609 0.30388 0.0
C73 C 0.6354 0.75943 0.33396 0.0
O74 O 0.58383 0.78127 0.33751 0.0
C75 C 0.6726 0.73821 0.27663 0.0
O76 O 0.70923 0.72718 0.28869 0.0
O77 O 0.53299 0.81229 0.30493 0.0
C78 C 0.36149 0.06172 0.55224 0.0
O79 O 0.36231 0.11848 0.54979 0.0
O80 O 0.23478 0.11988 0.52944 0.0
Zn81 Zn 0.23911 0.08354 0.55207 0.0
O82 O 0.2394 0.14592 0.56966 0.0
C83 C 0.11823 0.06008 0.55248 0.0
O84 O 0.11766 0.1161 0.54891 0.0
O85 O 0.31289 0.0353 0.55375 0.0
C86 C 0.22176 0.13413 0.58412 0.0
O87 O 0.20354 0.08118 0.58771 0.0
C88 C 0.24067 0.17417 0.52657 0.0
O89 O 0.2517 0.21067 0.53866 0.0
O90 O 0.16672 0.03402 0.5547 0.0
C91 C 0.91805 0.86172 0.80216 0.0
O92 O 0.86129 0.86261 0.79973 0.0
O93 O 0.86003 0.73497 0.77934 0.0
Zn94 Zn 0.89628 0.73932 0.80196 0.0
O95 O 0.83379 0.73964 0.81952 0.0
C96 C 0.91983 0.6184 0.80249 0.0
O97 O 0.86383 0.61776 0.79893 0.0
O98 O 0.94447 0.81308 0.80364 0.0
C99 C 0.84548 0.72212 0.83401 0.0
O100 O 0.89842 0.70401 0.83765 0.0
C101 C 0.80583 0.74155 0.77646 0.0
O102 O 0.76948 0.75332 0.78852 0.0
O103 O 0.94583 0.66692 0.80466 0.0
C104 C 0.61793 0.56075 0.6735 0.0
O105 O 0.61693 0.6175 0.67595 0.0
O106 O 0.74444 0.61923 0.69622 0.0
Zn107 Zn 0.74032 0.58288 0.6736 0.0
O108 O 0.7396 0.64551 0.65602 0.0
C109 C 0.86132 0.55868 0.67385 0.0
O110 O 0.86196 0.61416 0.67801 0.0
O111 O 0.66662 0.53448 0.67196 0.0
C112 C 0.7623 0.63636 0.64197 0.0
O113 O 0.78653 0.58565 0.63867 0.0
C114 C 0.73779 0.67344 0.69906 0.0
O115 O 0.72606 0.70977 0.68698 0.0
O116 O 0.81286 0.53334 0.67103 0.0
C117 C 0.41846 0.11699 0.92346 0.0
O118 O 0.36173 0.11601 0.92592 0.0
O119 O 0.36038 0.24373 0.94624 0.0
Zn120 Zn 0.39633 0.23944 0.92358 0.0
O121 O 0.33334 0.23847 0.90611 0.0
C122 C 0.42074 0.36048 0.92375 0.0
O123 O 0.36542 0.3613 0.92808 0.0
O124 O 0.44471 0.16569 0.92192 0.0
C125 C 0.34168 0.26183 0.8921 0.0
O126 O 0.39184 0.28705 0.88873 0.0
C127 C 0.30622 0.23717 0.94915 0.0
O128 O 0.26973 0.22543 0.93711 0.0
O129 O 0.44583 0.31194 0.92086 0.0
C130 C 0.86127 0.918 0.17346 0.0
O131 O 0.86213 0.86128 0.17598 0.0
O132 O 0.73471 0.85991 0.19625 0.0
Zn133 Zn 0.73891 0.89615 0.17361 0.0
O134 O 0.73922 0.83367 0.15605 0.0
C135 C 0.61796 0.91961 0.17322 0.0
O136 O 0.61743 0.8636 0.1768 0.0
O137 O 0.81265 0.9444 0.1719 0.0
C138 C 0.72121 0.84522 0.1416 0.0
O139 O 0.70257 0.89802 0.13799 0.0
C140 C 0.74 0.80555 0.19911 0.0
O141 O 0.75028 0.76891 0.187 0.0
O142 O 0.66642 0.94564 0.17098 0.0
C143 C 0.0605 0.36215 0.42347 0.0
O144 O 0.1172 0.36303 0.426 0.0
O145 O 0.11854 0.23527 0.44619 0.0
Zn146 Zn 0.08246 0.23973 0.42354 0.0
O147 O 0.14517 0.24039 0.40603 0.0
C148 C 0.05861 0.11876 0.42322 0.0
O149 O 0.1144 0.11798 0.42705 0.0
O150 O 0.03419 0.31352 0.42188 0.0
C151 C 0.13467 0.22075 0.39169 0.0
O152 O 0.08267 0.20002 0.38811 0.0
C153 C 0.17271 0.24185 0.4491 0.0
O154 O 0.20915 0.25366 0.43706 0.0
O155 O 0.03292 0.16735 0.42081 0.0
C156 C 0.61753 0.9192 0.55235 0.0
O157 O 0.61669 0.86246 0.54987 0.0
O158 O 0.74413 0.86106 0.52961 0.0
Zn159 Zn 0.73993 0.89733 0.55224 0.0
O160 O 0.7396 0.83477 0.56983 0.0
C161 C 0.86079 0.9214 0.55225 0.0
O162 O 0.8615 0.86573 0.5483 0.0
O163 O 0.66614 0.94557 0.5539 0.0
C164 C 0.76055 0.84501 0.58403 0.0
O165 O 0.78246 0.89667 0.58745 0.0
C166 C 0.73838 0.80675 0.52677 0.0
O167 O 0.72758 0.77023 0.53888 0.0
O168 O 0.81229 0.94697 0.55484 0.0
C169 C 0.0607 0.1176 0.80228 0.0
O170 O 0.11746 0.11675 0.79988 0.0
O171 O 0.119 0.24436 0.77957 0.0
Zn172 Zn 0.08244 0.24001 0.80215 0.0
O173 O 0.1447 0.23975 0.81979 0.0
C174 C 0.05873 0.36092 0.80256 0.0
O175 O 0.11474 0.3616 0.79901 0.0
O176 O 0.03427 0.16622 0.80379 0.0
C177 C 0.13298 0.25768 0.83423 0.0
O178 O 0.08012 0.27617 0.83779 0.0
C179 C 0.17328 0.2381 0.77678 0.0
O180 O 0.20953 0.22671 0.78891 0.0
O181 O 0.03279 0.31237 0.80475 0.0
C182 C 0.86183 0.56081 0.05214 0.0
O183 O 0.86276 0.61753 0.04961 0.0
O184 O 0.73525 0.61921 0.02946 0.0
Zn185 Zn 0.73951 0.58302 0.0521 0.0
O186 O 0.74045 0.64578 0.06961 0.0
C187 C 0.61854 0.55899 0.05199 0.0
O188 O 0.61788 0.61446 0.0478 0.0
O189 O 0.81318 0.53456 0.05375 0.0
C190 C 0.7181 0.6367 0.08371 0.0
O191 O 0.69407 0.58597 0.08711 0.0
C192 C 0.74192 0.67339 0.02658 0.0
O193 O 0.75374 0.70975 0.03864 0.0
O194 O 0.667 0.53359 0.05478 0.0
C195 C 0.41759 0.36157 0.30219 0.0
O196 O 0.36086 0.36251 0.29971 0.0
O197 O 0.35972 0.23484 0.27936 0.0
Zn198 Zn 0.39565 0.23918 0.30203 0.0
O199 O 0.33286 0.23984 0.31951 0.0
C200 C 0.41933 0.11815 0.30244 0.0
O201 O 0.3635 0.11746 0.29866 0.0
O202 O 0.44393 0.3129 0.30372 0.0
C203 C 0.34358 0.22085 0.33391 0.0
O204 O 0.39581 0.2008 0.33755 0.0
C205 C 0.30543 0.24051 0.27646 0.0
O206 O 0.26878 0.25128 0.28853 0.0
O207 O 0.4451 0.16669 0.30478 0.0
C208 C 0.25889 0.26453 0.10703 0.0
C209 C 0.25829 0.30175 0.0965 0.0
C210 C 0.25986 0.22086 0.11935 0.0
C211 C 0.26083 0.18322 0.12977 0.0
C212 C 0.76199 0.75797 0.36893 0.0
C213 C 0.79947 0.75782 0.3794 0.0
C214 C 0.71818 0.7583 0.35666 0.0
C215 C 0.68057 0.75869 0.34624 0.0
C216 C 0.22101 0.21595 0.60709 0.0
C217 C 0.22144 0.17875 0.59656 0.0
C218 C 0.22032 0.2595 0.61943 0.0
C219 C 0.21965 0.29698 0.62988 0.0
C220 C 0.76335 0.72131 0.85689 0.0
C221 C 0.80071 0.72175 0.8464 0.0
C222 C 0.71962 0.72059 0.86917 0.0
C223 C 0.68203 0.7199 0.87959 0.0
C224 C 0.76054 0.76264 0.60688 0.0
C225 C 0.76041 0.80005 0.59639 0.0
C226 C 0.76091 0.71895 0.61919 0.0
C227 C 0.76139 0.68145 0.62965 0.0
C228 C 0.25867 0.25956 0.86946 0.0
C229 C 0.29634 0.26041 0.87986 0.0
C230 C 0.21495 0.25869 0.85717 0.0
C231 C 0.17766 0.25815 0.84666 0.0
C232 C 0.71992 0.71942 0.10642 0.0
C233 C 0.71925 0.68186 0.09599 0.0
C234 C 0.72056 0.76313 0.11871 0.0
C235 C 0.72094 0.80047 0.1292 0.0
C236 C 0.21723 0.22128 0.36893 0.0
C237 C 0.1797 0.22114 0.37937 0.0
C238 C 0.26102 0.2213 0.35667 0.0
C239 C 0.29855 0.2212 0.34623 0.0
C240 C 0.25575 0.2091 0.22944 0.0
C241 C 0.24727 0.19445 0.21537 0.0
C242 C 0.2694 0.22272 0.24597 0.0
C243 C 0.28406 0.23117 0.26004 0.0
C244 C 0.76976 0.75672 0.47979 0.0
C245 C 0.7844 0.74817 0.46573 0.0
C246 C 0.75614 0.77044 0.49632 0.0
C247 C 0.7477 0.7852 0.51038 0.0
C248 C 0.22397 0.26934 0.72984 0.0
C249 C 0.23259 0.28399 0.71577 0.0
C250 C 0.21006 0.25576 0.74635 0.0
C251 C 0.1951 0.24733 0.7604 0.0
C252 C 0.7241 0.70984 -0.00388 0.0
C253 C 0.73261 0.69504 0.01018 0.0
C254 C 0.71037 0.72359 0.9796 0.0
C255 C 0.69561 0.73213 0.96554 0.0
C256 C 0.25638 0.269 -0.00388 0.0
C257 C 0.24789 0.2839 0.01017 0.0
C258 C 0.27005 0.25516 0.97961 0.0
C259 C 0.28474 0.24657 0.96555 0.0
C260 C 0.7086 0.75589 0.24613 0.0
C261 C 0.69395 0.74748 0.26021 0.0
C262 C 0.72221 0.76946 0.2296 0.0
C263 C 0.73065 0.78411 0.21552 0.0
C264 C 0.20898 0.22407 0.47958 0.0
C265 C 0.19424 0.23256 0.46551 0.0
C266 C 0.22272 0.21042 0.4961 0.0
C267 C 0.23126 0.19571 0.51017 0.0
C268 C 0.75563 0.70994 0.7295 0.0
C269 C 0.7471 0.69513 0.71545 0.0
C270 C 0.76938 0.72369 0.74601 0.0
C271 C 0.78419 0.73222 0.76007 0.0
C272 C 0.01671 0.00347 0.17243 0.0
C273 C 0.06316 0.02851 0.1728 0.0
C274 C 0.96185 0.97492 0.17246 0.0
C275 C 0.91537 0.94995 0.17287 0.0
C276 C 0.00342 0.46271 0.42256 0.0
C277 C 0.02847 0.41623 0.42293 0.0
C278 C 0.97481 0.51756 0.42258 0.0
C279 C 0.94977 0.56403 0.42299 0.0
C280 C 0.46259 0.47506 0.67263 0.0
C281 C 0.41613 0.45002 0.67304 0.0
C282 C 0.51744 0.50362 0.6726 0.0
C283 C 0.56391 0.52866 0.67296 0.0
C284 C 0.47562 0.01648 0.92251 0.0
C285 C 0.45055 0.06295 0.92289 0.0
C286 C 0.50422 0.96161 0.92252 0.0
C287 C 0.5293 0.91515 0.92291 0.0
C288 C 0.01721 0.47515 0.05303 0.0
C289 C 0.06372 0.45018 0.05264 0.0
C290 C 0.96234 0.50369 0.05305 0.0
C291 C 0.91587 0.52873 0.05269 0.0
C292 C 0.50324 0.51693 0.30323 0.0
C293 C 0.5283 0.56338 0.30285 0.0
C294 C 0.47463 0.4621 0.3032 0.0
C295 C 0.44959 0.41564 0.30279 0.0
C296 C 0.51696 0.97621 0.55326 0.0
C297 C 0.56344 0.95119 0.55289 0.0
C298 C 0.46209 0.00477 0.55324 0.0
C299 C 0.4156 0.02977 0.55283 0.0
C300 C 0.00369 0.01706 0.80318 0.0
C301 C 0.02874 0.06351 0.80282 0.0
C302 C 0.97507 0.96224 0.80315 0.0
C303 C 0.95002 0.9158 0.80274 0.0
C304 C 0.51684 0.97527 0.17189 0.0
C305 C 0.56376 0.95121 0.1724 0.0
C306 C 0.46139 0.00255 0.17199 0.0
C307 C 0.41453 0.02669 0.17266 0.0
C308 C 0.9753 0.96249 0.42165 0.0
C309 C 0.95114 0.91564 0.42224 0.0
C310 C 0.00268 0.01787 0.42165 0.0
C311 C 0.02687 0.0647 0.42226 0.0
C312 C 0.01772 0.47548 0.67235 0.0
C313 C 0.06461 0.45136 0.67293 0.0
C314 C 0.96228 0.50278 0.67235 0.0
C315 C 0.9154 0.52693 0.67292 0.0
C316 C 0.47685 0.46127 0.92208 0.0
C317 C 0.4526 0.41447 0.92272 0.0
C318 C 0.50426 0.51665 0.92203 0.0
C319 C 0.52842 0.56351 0.92259 0.0
C320 C 0.5176 0.50318 0.05361 0.0
C321 C 0.56446 0.5273 0.05299 0.0
C322 C 0.46218 0.4759 0.05367 0.0
C323 C 0.4153 0.4518 0.05315 0.0
C324 C 0.47521 0.01716 0.30398 0.0
C325 C 0.45103 0.06403 0.30338 0.0
C326 C 0.50261 0.96177 0.30398 0.0
C327 C 0.52681 0.91492 0.30338 0.0
C328 C 0.96172 0.97722 0.55382 0.0
C329 C 0.91487 0.9531 0.55321 0.0
C330 C 0.01715 0.00447 0.55387 0.0
C331 C 0.06406 0.02852 0.55333 0.0
C332 C 0.97558 0.51735 0.80399 0.0
C333 C 0.95146 0.56423 0.8034 0.0
C334 C 0.00291 0.46193 0.80401 0.0
C335 C 0.02706 0.41506 0.80344 0.0
loop_
_geom_bond_atom_site_label_1
_geom_bond_atom_site_label_2
_geom_bond_distance
_geom_bond_site_symmetry_2
_ccdc_geom_bond_type
C0 O1 1.160 . S
C0 O7 1.185 . S
O1 C0 1.160 . S
O2 Zn3 1.899 . S
O2 C10 1.284 . S
Zn3 O2 1.899 . S
Zn3 O4 2.032 . S
Zn3 O7 2.086 . S
Zn3 O12 1.977 . S
O4 Zn3 2.032 . S
O4 C8 1.278 . S
C5 O6 1.203 . S
C5 O12 1.267 . S
O6 C5 1.203 . S
O7 C0 1.185 . S
O7 Zn3 2.086 . S
C8 O4 1.278 . S
C8 O9 1.211 . S
O9 C8 1.211 . S
C10 O2 1.284 . S
C10 O11 1.273 . S
O11 C10 1.273 . S
O12 Zn3 1.977 . S
O12 C5 1.267 . S
C13 O14 1.160 . S
C13 O20 1.185 . S
O14 C13 1.160 . S
O15 Zn16 1.899 . S
O15 C23 1.284 . S
Zn16 O15 1.899 . S
Zn16 O17 2.032 . S
Zn16 O20 2.086 . S
Zn16 O25 1.977 . S
O17 Zn16 2.032 . S
O17 C21 1.278 . S
C18 O19 1.203 . S
C18 O25 1.267 . S
O19 C18 1.203 . S
O20 C13 1.185 . S
O20 Zn16 2.086 . S
C21 O17 1.278 . S
C21 O22 1.211 . S
O22 C21 1.211 . S
C23 O15 1.284 . S
C23 O24 1.273 . S
O24 C23 1.273 . S
O25 Zn16 1.977 . S
O25 C18 1.267 . S
C26 O27 1.160 . S
C26 O33 1.185 . S
O27 C26 1.160 . S
O28 Zn29 1.899 . S
O28 C36 1.284 . S
Zn29 O28 1.899 . S
Zn29 O30 2.032 . S
Zn29 O33 2.086 . S
Zn29 O38 1.977 . S
O30 Zn29 2.032 . S
O30 C34 1.278 . S
C31 O32 1.203 . S
C31 O38 1.267 . S
O32 C31 1.203 . S
O33 C26 1.185 . S
O33 Zn29 2.086 . S
C34 O30 1.278 . S
C34 O35 1.211 . S
O35 C34 1.211 . S
C36 O28 1.284 . S
C36 O37 1.273 . S
O37 C36 1.273 . S
O38 Zn29 1.977 . S
O38 C31 1.267 . S
C39 O40 1.160 . S
C39 O46 1.185 . S
O40 C39 1.160 . S
O41 Zn42 1.899 . S
O41 C49 1.284 . S
Zn42 O41 1.899 . S
Zn42 O43 2.032 . S
Zn42 O46 2.086 . S
Zn42 O51 1.977 . S
O43 Zn42 2.032 . S
O43 C47 1.278 . S
C44 O45 1.203 . S
C44 O51 1.267 . S
O45 C44 1.203 . S
O46 C39 1.185 . S
O46 Zn42 2.086 . S
C47 O43 1.278 . S
C47 O48 1.211 . S
O48 C47 1.211 . S
C49 O41 1.284 . S
C49 O50 1.273 . S
O50 C49 1.273 . S
O51 Zn42 1.977 . S
O51 C44 1.267 . S
C52 O53 1.160 . S
C52 O59 1.185 . S
O53 C52 1.160 . S
O54 Zn55 1.899 . S
O54 C62 1.284 . S
Zn55 O54 1.899 . S
Zn55 O56 2.032 . S
Zn55 O59 2.086 . S
Zn55 O64 1.977 . S
O56 Zn55 2.032 . S
O56 C60 1.278 . S
C57 O58 1.203 . S
C57 O64 1.267 . S
O58 C57 1.203 . S
O59 C52 1.185 . S
O59 Zn55 2.086 . S
C60 O56 1.278 . S
C60 O61 1.211 . S
O61 C60 1.211 . S
C62 O54 1.284 . S
C62 O63 1.273 . S
O63 C62 1.273 . S
O64 Zn55 1.977 . S
O64 C57 1.267 . S
C65 O66 1.160 . S
C65 O72 1.185 . S
O66 C65 1.160 . S
O67 Zn68 1.899 . S
O67 C75 1.284 . S
Zn68 O67 1.899 . S
Zn68 O69 2.032 . S
Zn68 O72 2.086 . S
Zn68 O77 1.977 . S
O69 Zn68 2.032 . S
O69 C73 1.278 . S
C70 O71 1.203 . S
C70 O77 1.267 . S
O71 C70 1.203 . S
O72 C65 1.185 . S
O72 Zn68 2.086 . S
C73 O69 1.278 . S
C73 O74 1.211 . S
O74 C73 1.211 . S
C75 O67 1.284 . S
C75 O76 1.273 . S
O76 C75 1.273 . S
O77 Zn68 1.977 . S
O77 C70 1.267 . S
C78 O79 1.160 . S
C78 O85 1.185 . S
O79 C78 1.160 . S
O80 Zn81 1.899 . S
O80 C88 1.284 . S
Zn81 O80 1.899 . S
Zn81 O82 2.032 . S
Zn81 O85 2.086 . S
Zn81 O90 1.977 . S
O82 Zn81 2.032 . S
O82 C86 1.278 . S
C83 O84 1.203 . S
C83 O90 1.267 . S
O84 C83 1.203 . S
O85 C78 1.185 . S
O85 Zn81 2.086 . S
C86 O82 1.278 . S
C86 O87 1.211 . S
O87 C86 1.211 . S
C88 O80 1.284 . S
C88 O89 1.273 . S
O89 C88 1.273 . S
O90 Zn81 1.977 . S
O90 C83 1.267 . S
C91 O92 1.160 . S
C91 O98 1.185 . S
O92 C91 1.160 . S
O93 Zn94 1.899 . S
O93 C101 1.284 . S
Zn94 O93 1.899 . S
Zn94 O95 2.032 . S
Zn94 O98 2.086 . S
Zn94 O103 1.977 . S
O95 Zn94 2.032 . S
O95 C99 1.278 . S
C96 O97 1.203 . S
C96 O103 1.267 . S
O97 C96 1.203 . S
O98 C91 1.185 . S
O98 Zn94 2.086 . S
C99 O95 1.278 . S
C99 O100 1.211 . S
O100 C99 1.211 . S
C101 O93 1.284 . S
C101 O102 1.273 . S
O102 C101 1.273 . S
O103 Zn94 1.977 . S
O103 C96 1.267 . S
C104 O105 1.160 . S
C104 O111 1.185 . S
O105 C104 1.160 . S
O106 Zn107 1.899 . S
O106 C114 1.284 . S
Zn107 O106 1.899 . S
Zn107 O108 2.032 . S
Zn107 O111 2.086 . S
Zn107 O116 1.977 . S
O108 Zn107 2.032 . S
O108 C112 1.278 . S
C109 O110 1.203 . S
C109 O116 1.267 . S
O110 C109 1.203 . S
O111 C104 1.185 . S
O111 Zn107 2.086 . S
C112 O108 1.278 . S
C112 O113 1.211 . S
O113 C112 1.211 . S
C114 O106 1.284 . S
C114 O115 1.273 . S
O115 C114 1.273 . S
O116 Zn107 1.977 . S
O116 C109 1.267 . S
C117 O118 1.160 . S
C117 O124 1.185 . S
O118 C117 1.160 . S
O119 Zn120 1.899 . S
O119 C127 1.284 . S
Zn120 O119 1.899 . S
Zn120 O121 2.032 . S
Zn120 O124 2.086 . S
Zn120 O129 1.977 . S
O121 Zn120 2.032 . S
O121 C125 1.278 . S
C122 O123 1.203 . S
C122 O129 1.267 . S
O123 C122 1.203 . S
O124 C117 1.185 . S
O124 Zn120 2.086 . S
C125 O121 1.278 . S
C125 O126 1.211 . S
O126 C125 1.211 . S
C127 O119 1.284 . S
C127 O128 1.273 . S
O128 C127 1.273 . S
O129 Zn120 1.977 . S
O129 C122 1.267 . S
C130 O131 1.160 . S
C130 O137 1.185 . S
O131 C130 1.160 . S
O132 Zn133 1.899 . S
O132 C140 1.284 . S
Zn133 O132 1.899 . S
Zn133 O134 2.032 . S
Zn133 O137 2.086 . S
Zn133 O142 1.977 . S
O134 Zn133 2.032 . S
O134 C138 1.278 . S
C135 O136 1.203 . S
C135 O142 1.267 . S
O136 C135 1.203 . S
O137 C130 1.185 . S
O137 Zn133 2.086 . S
C138 O134 1.278 . S
C138 O139 1.211 . S
O139 C138 1.211 . S
C140 O132 1.284 . S
C140 O141 1.273 . S
O141 C140 1.273 . S
O142 Zn133 1.977 . S
O142 C135 1.267 . S
C143 O144 1.160 . S
C143 O150 1.185 . S
O144 C143 1.160 . S
O145 Zn146 1.899 . S
O145 C153 1.284 . S
Zn146 O145 1.899 . S
Zn146 O147 2.032 . S
Zn146 O150 2.086 . S
Zn146 O155 1.977 . S
O147 Zn146 2.032 . S
O147 C151 1.278 . S
C148 O149 1.203 . S
C148 O155 1.267 . S
O149 C148 1.203 . S
O150 C143 1.185 . S
O150 Zn146 2.086 . S
C151 O147 1.278 . S
C151 O152 1.211 . S
O152 C151 1.211 . S
C153 O145 1.284 . S
C153 O154 1.273 . S
O154 C153 1.273 . S
O155 Zn146 1.977 . S
O155 C148 1.267 . S
C156 O157 1.160 . S
C156 O163 1.185 . S
O157 C156 1.160 . S
O158 Zn159 1.899 . S
O158 C166 1.284 . S
Zn159 O158 1.899 . S
Zn159 O160 2.032 . S
Zn159 O163 2.086 . S
Zn159 O168 1.977 . S
O160 Zn159 2.032 . S
O160 C164 1.278 . S
C161 O162 1.203 . S
C161 O168 1.267 . S
O162 C161 1.203 . S
O163 C156 1.185 . S
O163 Zn159 2.086 . S
C164 O160 1.278 . S
C164 O165 1.211 . S
O165 C164 1.211 . S
C166 O158 1.284 . S
C166 O167 1.273 . S
O167 C166 1.273 . S
O168 Zn159 1.977 . S
O168 C161 1.267 . S
C169 O170 1.160 . S
C169 O176 1.185 . S
O170 C169 1.160 . S
O171 Zn172 1.899 . S
O171 C179 1.284 . S
Zn172 O171 1.899 . S
Zn172 O173 2.032 . S
Zn172 O176 2.086 . S
Zn172 O181 1.977 . S
O173 Zn172 2.032 . S
O173 C177 1.278 . S
C174 O175 1.203 . S
C174 O181 1.267 . S
O175 C174 1.203 . S
O176 C169 1.185 . S
O176 Zn172 2.086 . S
C177 O173 1.278 . S
C177 O178 1.211 . S
O178 C177 1.211 . S
C179 O171 1.284 . S
C179 O180 1.273 . S
O180 C179 1.273 . S
O181 Zn172 1.977 . S
O181 C174 1.267 . S
C182 O183 1.160 . S
C182 O189 1.185 . S
O183 C182 1.160 . S
O184 Zn185 1.899 . S
O184 C192 1.284 . S
Zn185 O184 1.899 . S
Zn185 O186 2.032 . S
Zn185 O189 2.086 . S
Zn185 O194 1.977 . S
O186 Zn185 2.032 . S
O186 C190 1.278 . S
C187 O188 1.203 . S
C187 O194 1.267 . S
O188 C187 1.203 . S
O189 C182 1.185 . S
O189 Zn185 2.086 . S
C190 O186 1.278 . S
C190 O191 1.211 . S
O191 C190 1.211 . S
C192 O184 1.284 . S
C192 O193 1.273 . S
O193 C192 1.273 . S
O194 Zn185 1.977 . S
O194 C187 1.267 . S
C195 O196 1.160 . S
C195 O202 1.185 . S
O196 C195 1.160 . S
O197 Zn198 1.899 . S
O197 C205 1.284 . S
Zn198 O197 1.899 . S
Zn198 O199 2.032 . S
Zn198 O202 2.086 . S
Zn198 O207 1.977 . S
O199 Zn198 2.032 . S
O199 C203 1.278 . S
C200 O201 1.203 . S
C200 O207 1.267 . S
O201 C200 1.203 . S
O202 C195 1.185 . S
O202 Zn198 2.086 . S
C203 O199 1.278 . S
C203 O204 1.211 . S
O204 C203 1.211 . S
C205 O197 1.284 . S
C205 O206 1.273 . S
O206 C205 1.273 . S
O207 Zn198 1.977 . S
O207 C200 1.267 . S
C208 C209 1.170 . S
C208 C210 1.380 . S
C209 C208 1.170 . S
C210 C208 1.380 . S
C210 C211 1.170 . S
C211 C210 1.170 . S
C212 C213 1.170 . S
C212 C214 1.380 . S
C213 C212 1.170 . S
C214 C212 1.380 . S
C214 C215 1.170 . S
C215 C214 1.170 . S
C216 C217 1.170 . S
C216 C218 1.380 . S
C217 C216 1.170 . S
C218 C216 1.380 . S
C218 C219 1.170 . S
C219 C218 1.170 . S
C220 C221 1.170 . S
C220 C222 1.380 . S
C221 C220 1.170 . S
C222 C220 1.380 . S
C222 C223 1.170 . S
C223 C222 1.170 . S
C224 C225 1.170 . S
C224 C226 1.380 . S
C225 C224 1.170 . S
C226 C224 1.380 . S
C226 C227 1.170 . S
C227 C226 1.170 . S
C228 C229 1.170 . S
C228 C230 1.380 . S
C229 C228 1.170 . S
C230 C228 1.380 . S
C230 C231 1.170 . S
C231 C230 1.170 . S
C232 C233 1.170 . S
C232 C234 1.380 . S
C233 C232 1.170 . S
C234 C232 1.380 . S
C234 C235 1.170 . S
C235 C234 1.170 . S
C236 C237 1.170 . S
C236 C238 1.380 . S
C237 C236 1.170 . S
C238 C236 1.380 . S
C238 C239 1.170 . S
C239 C238 1.170 . S
C240 C241 1.170 . S
C240 C242 1.380 . S
C241 C240 1.170 . S
C242 C240 1.380 . S
C242 C243 1.170 . S
C243 C242 1.170 . S
C244 C245 1.170 . S
C244 C246 1.380 . S
C245 C244 1.170 . S
C246 C244 1.380 . S
C246 C247 1.170 . S
C247 C246 1.170 . S
C248 C249 1.170 . S
C248 C250 1.380 . S
C249 C248 1.170 . S
C250 C248 1.380 . S
C250 C251 1.170 . S
C251 C250 1.170 . S
C252 C253 1.170 . S
C252 C254 1.380 1_554 S
C253 C252 1.170 . S
C254 C252 1.380 1_556 S
C254 C255 1.170 . S
C255 C254 1.170 . S
C256 C257 1.170 . S
C256 C258 1.380 1_554 S
C257 C256 1.170 . S
C258 C256 1.380 1_556 S
C258 C259 1.170 . S
C259 C258 1.170 . S
C260 C261 1.170 . S
C260 C262 1.380 . S
C261 C260 1.170 . S
C262 C260 1.380 . S
C262 C263 1.170 . S
C263 C262 1.170 . S
C264 C265 1.170 . S
C264 C266 1.380 . S
C265 C264 1.170 . S
C266 C264 1.380 . S
C266 C267 1.170 . S
C267 C266 1.170 . S
C268 C269 1.170 . S
C268 C270 1.380 . S
C269 C268 1.170 . S
C270 C268 1.380 . S
C270 C271 1.170 . S
C271 C270 1.170 . S
C272 C273 1.170 . S
C272 C274 1.380 1_445 S
C273 C272 1.170 . S
C274 C272 1.380 1_665 S
C274 C275 1.170 . S
C275 C274 1.170 . S
C276 C277 1.170 . S
C276 C278 1.380 1_455 S
C277 C276 1.170 . S
C278 C276 1.380 1_655 S
C278 C279 1.170 . S
C279 C278 1.170 . S
C280 C281 1.170 . S
C280 C282 1.380 . S
C281 C280 1.170 . S
C282 C280 1.380 . S
C282 C283 1.170 . S
C283 C282 1.170 . S
C284 C285 1.170 . S
C284 C286 1.380 1_545 S
C285 C284 1.170 . S
C286 C284 1.380 1_565 S
C286 C287 1.170 . S
C287 C286 1.170 . S
C288 C289 1.170 . S
C288 C290 1.380 1_455 S
C289 C288 1.170 . S
C290 C288 1.380 1_655 S
C290 C291 1.170 . S
C291 C290 1.170 . S
C292 C293 1.170 . S
C292 C294 1.380 . S
C293 C292 1.170 . S
C294 C292 1.380 . S
C294 C295 1.170 . S
C295 C294 1.170 . S
C296 C297 1.170 . S
C296 C298 1.380 1_565 S
C297 C296 1.170 . S
C298 C296 1.380 1_545 S
C298 C299 1.170 . S
C299 C298 1.170 . S
C300 C301 1.170 . S
C300 C302 1.380 1_445 S
C301 C300 1.170 . S
C302 C300 1.380 1_665 S
C302 C303 1.170 . S
C303 C302 1.170 . S
C304 C305 1.170 . S
C304 C306 1.380 1_565 S
C305 C304 1.170 . S
C306 C304 1.380 1_545 S
C306 C307 1.170 . S
C307 C306 1.170 . S
C308 C309 1.170 . S
C308 C310 1.380 1_665 S
C309 C308 1.170 . S
C310 C308 1.380 1_445 S
C310 C311 1.170 . S
C311 C310 1.170 . S
C312 C313 1.170 . S
C312 C314 1.380 1_455 S
C313 C312 1.170 . S
C314 C312 1.380 1_655 S
C314 C315 1.170 . S
C315 C314 1.170 . S
C316 C317 1.170 . S
C316 C318 1.380 . S
C317 C316 1.170 . S
C318 C316 1.380 . S
C318 C319 1.170 . S
C319 C318 1.170 . S
C320 C321 1.170 . S
C320 C322 1.380 . S
C321 C320 1.170 . S
C322 C320 1.380 . S
C322 C323 1.170 . S
C323 C322 1.170 . S
C324 C325 1.170 . S
C324 C326 1.380 1_545 S
C325 C324 1.170 . S
C326 C324 1.380 1_565 S
C326 C327 1.170 . S
C327 C326 1.170 . S
C328 C329 1.170 . S
C328 C330 1.380 1_665 S
C329 C328 1.170 . S
C330 C328 1.380 1_445 S
C330 C331 1.170 . S
C331 C330 1.170 . S
C332 C333 1.170 . S
C332 C334 1.380 1_655 S
C333 C332 1.170 . S
C334 C332 1.380 1_455 S
C334 C335 1.170 . S
C335 C334 1.170 . S
C209 C60 1.118 . S
C211 C8 1.149 . S
C213 C21 1.148 . S
C215 C73 1.172 . S
C217 C86 1.131 . S
C219 C34 1.164 . S
C221 C99 1.141 . S
C223 C47 1.170 . S
C225 C164 1.117 . S
C227 C112 1.120 . S
C229 C125 1.161 . S
C231 C177 1.127 . S
C233 C190 1.166 . S
C235 C138 1.133 . S
C237 C151 1.149 . S
C239 C203 1.172 . S
C241 C10 1.312 . S
C243 C205 1.315 . S
C245 C23 1.312 . S
C247 C166 1.311 . S
C249 C36 1.314 . S
C251 C179 1.317 . S
C253 C192 1.313 . S
C255 C49 1.315 . S
C257 C62 1.317 . S
C259 C127 1.314 . S
C261 C75 1.312 . S
C263 C140 1.311 . S
C265 C153 1.311 . S
C267 C88 1.312 . S
C269 C114 1.315 . S
C271 C101 1.317 . S
C273 C0 1.488 . S
C275 C130 1.484 . S
C277 C143 1.455 . S
C279 C13 1.458 . S
C281 C26 1.472 . S
C283 C104 1.480 . S
C285 C117 1.477 . S
C287 C39 1.483 . S
C289 C52 1.456 . S
C291 C182 1.455 . S
C293 C65 1.489 . S
C295 C195 1.485 . S
C297 C156 1.476 . S
C299 C78 1.468 . S
C301 C169 1.485 . S
C303 C91 1.489 . S
C305 C135 1.422 . S
C307 C5 1.460 . S
C309 C18 1.438 . S
C311 C148 1.448 . S
C313 C31 1.446 . S
C315 C109 1.440 . S
C317 C122 1.452 . S
C319 C44 1.419 . S
C321 C187 1.415 . S
C323 C57 1.458 . S
C325 C200 1.416 . S
C327 C70 1.455 . S
C329 C161 1.461 . S
C331 C83 1.420 . S
C333 C96 1.433 . S
C335 C174 1.435 . S
