# Generated by pormake.
# Topology zga, (5)-cn, num edge types: 1
# Building blocks:
#     Node 0, Type 0, BuildingBlock: XOMCOT_clean_sbu_1, # of connection points: 5
#     Node 1, Type 0, BuildingBlock: XOMCOT_clean_sbu_1, # of connection points: 5
#     Node 2, Type 0, BuildingBlock: XOMCOT_clean_sbu_1, # of connection points: 5
#     Node 3, Type 0, BuildingBlock: XOMCOT_clean_sbu_1, # of connection points: 5
#     Node 4, Type 0, BuildingBlock: XOMCOT_clean_sbu_1, # of connection points: 5
#     Node 5, Type 0, BuildingBlock: XOMCOT_clean_sbu_1, # of connection points: 5
#     Node 6, Type 0, BuildingBlock: XOMCOT_clean_sbu_1, # of connection points: 5
#     Node 7, Type 0, BuildingBlock: XOMCOT_clean_sbu_1, # of connection points: 5
#     Node 8, Type 0, BuildingBlock: XOMCOT_clean_sbu_1, # of connection points: 5
#     Node 9, Type 0, BuildingBlock: XOMCOT_clean_sbu_1, # of connection points: 5
#     Node 10, Type 0, BuildingBlock: XOMCOT_clean_sbu_1, # of connection points: 5
#     Node 11, Type 0, BuildingBlock: XOMCOT_clean_sbu_1, # of connection points: 5
#     Node 12, Type 0, BuildingBlock: XOMCOT_clean_sbu_1, # of connection points: 5
#     Node 13, Type 0, BuildingBlock: XOMCOT_clean_sbu_1, # of connection points: 5
#     Node 14, Type 0, BuildingBlock: XOMCOT_clean_sbu_1, # of connection points: 5
#     Node 15, Type 0, BuildingBlock: XOMCOT_clean_sbu_1, # of connection points: 5
#     Edge 16, Type (0, 0), BuildingBlock: XIVTED_clean_linker_0, # of connection points: 2
#     Edge 17, Type (0, 0), BuildingBlock: XIVTED_clean_linker_0, # of connection points: 2
#     Edge 18, Type (0, 0), BuildingBlock: XIVTED_clean_linker_0, # of connection points: 2
#     Edge 19, Type (0, 0), BuildingBlock: XIVTED_clean_linker_0, # of connection points: 2
#     Edge 20, Type (0, 0), BuildingBlock: XIVTED_clean_linker_0, # of connection points: 2
#     Edge 21, Type (0, 0), BuildingBlock: XIVTED_clean_linker_0, # of connection points: 2
#     Edge 22, Type (0, 0), BuildingBlock: XIVTED_clean_linker_0, # of connection points: 2
#     Edge 23, Type (0, 0), BuildingBlock: XIVTED_clean_linker_0, # of connection points: 2
#     Edge 24, Type (0, 0), BuildingBlock: XIVTED_clean_linker_0, # of connection points: 2
#     Edge 25, Type (0, 0), BuildingBlock: XIVTED_clean_linker_0, # of connection points: 2
#     Edge 26, Type (0, 0), BuildingBlock: XIVTED_clean_linker_0, # of connection points: 2
#     Edge 27, Type (0, 0), BuildingBlock: XIVTED_clean_linker_0, # of connection points: 2
#     Edge 28, Type (0, 0), BuildingBlock: XIVTED_clean_linker_0, # of connection points: 2
#     Edge 29, Type (0, 0), BuildingBlock: XIVTED_clean_linker_0, # of connection points: 2
#     Edge 30, Type (0, 0), BuildingBlock: XIVTED_clean_linker_0, # of connection points: 2
#     Edge 31, Type (0, 0), BuildingBlock: XIVTED_clean_linker_0, # of connection points: 2
#     Edge 32, Type (0, 0), BuildingBlock: XIVTED_clean_linker_0, # of connection points: 2
#     Edge 33, Type (0, 0), BuildingBlock: XIVTED_clean_linker_0, # of connection points: 2
#     Edge 34, Type (0, 0), BuildingBlock: XIVTED_clean_linker_0, # of connection points: 2
#     Edge 35, Type (0, 0), BuildingBlock: XIVTED_clean_linker_0, # of connection points: 2
#     Edge 36, Type (0, 0), BuildingBlock: XIVTED_clean_linker_0, # of connection points: 2
#     Edge 37, Type (0, 0), BuildingBlock: XIVTED_clean_linker_0, # of connection points: 2
#     Edge 38, Type (0, 0), BuildingBlock: XIVTED_clean_linker_0, # of connection points: 2
#     Edge 39, Type (0, 0), BuildingBlock: XIVTED_clean_linker_0, # of connection points: 2
#     Edge 40, Type (0, 0), BuildingBlock: XIVTED_clean_linker_0, # of connection points: 2
#     Edge 41, Type (0, 0), BuildingBlock: XIVTED_clean_linker_0, # of connection points: 2
#     Edge 42, Type (0, 0), BuildingBlock: XIVTED_clean_linker_0, # of connection points: 2
#     Edge 43, Type (0, 0), BuildingBlock: XIVTED_clean_linker_0, # of connection points: 2
#     Edge 44, Type (0, 0), BuildingBlock: XIVTED_clean_linker_0, # of connection points: 2
#     Edge 45, Type (0, 0), BuildingBlock: XIVTED_clean_linker_0, # of connection points: 2
#     Edge 46, Type (0, 0), BuildingBlock: XIVTED_clean_linker_0, # of connection points: 2
#     Edge 47, Type (0, 0), BuildingBlock: XIVTED_clean_linker_0, # of connection points: 2
#     Edge 48, Type (0, 0), BuildingBlock: XIVTED_clean_linker_0, # of connection points: 2
#     Edge 49, Type (0, 0), BuildingBlock: XIVTED_clean_linker_0, # of connection points: 2
#     Edge 50, Type (0, 0), BuildingBlock: XIVTED_clean_linker_0, # of connection points: 2
#     Edge 51, Type (0, 0), BuildingBlock: XIVTED_clean_linker_0, # of connection points: 2
#     Edge 52, Type (0, 0), BuildingBlock: XIVTED_clean_linker_0, # of connection points: 2
#     Edge 53, Type (0, 0), BuildingBlock: XIVTED_clean_linker_0, # of connection points: 2
#     Edge 54, Type (0, 0), BuildingBlock: XIVTED_clean_linker_0, # of connection points: 2
#     Edge 55, Type (0, 0), BuildingBlock: XIVTED_clean_linker_0, # of connection points: 2
# Relax obj value: 0.046
# Max RMSD: 0.092
# Mean RMSD: 0.092
data_MOF--net-zga--node1-XOMCOT_clean_sbu_1--edge1-XIVTED_clean_linker_0
_symmetry_space_group_name_H-M    P1
_symmetry_Int_Tables_number       1
_symmetry_cell_setting            triclinic
loop_
_symmetry_equiv_pos_as_xyz
'x, y, z'
_cell_length_a     50.588173
_cell_length_b     103.86586
_cell_length_c     17.679856
_cell_angle_alpha  89.9868
_cell_angle_beta   90.024808
_cell_angle_gamma 94.494131
loop_
_atom_site_label
_atom_site_type_symbol
_atom_site_fract_x
_atom_site_fract_y
_atom_site_fract_z
_atom_type_partial_charge
C0 C 0.18144 0.54908 0.06356 0.0
C1 C 0.18443 0.55028 0.98646 0.0
N2 N 0.16762 0.54132 0.95289 0.0
N3 N 0.16272 0.53947 0.07872 0.0
C4 C 0.15485 0.53485 0.01016 0.0
H5 H 0.19175 0.55507 0.10594 0.0
Co6 Co 0.14983 0.5351 0.17523 0.0
C7 C 0.09369 0.52591 0.14719 0.0
O8 O 0.08707 0.53343 0.20274 0.0
N9 N 0.13747 0.53031 0.27389 0.0
C10 C 0.12253 0.51718 0.36695 0.0
C11 C 0.12485 0.51868 0.29015 0.0
C12 C 0.14351 0.53545 0.34295 0.0
N13 N 0.13446 0.52771 0.4005 0.0
O14 O 0.16998 0.52029 0.17559 0.0
H15 H 0.11897 0.51132 0.24893 0.0
H16 H 0.15615 0.54415 0.35179 0.0
O17 O 0.11823 0.52551 0.12982 0.0
C18 C 0.19202 0.52482 0.20414 0.0
O19 O 0.19447 0.53709 0.22292 0.0
N20 N 0.13386 0.55078 0.17681 0.0
C21 C 0.13266 0.57721 0.15135 0.0
C22 C 0.11642 0.56835 0.10892 0.0
C23 C 0.11762 0.55507 0.12177 0.0
C24 C 0.14868 0.55943 0.2203 0.0
C25 C 0.14792 0.57262 0.20983 0.0
H26 H 0.1079 0.5484 0.08189 0.0
H27 H 0.16409 0.55622 0.25588 0.0
H28 H 0.13936 0.52719 1.00211 0.0
H29 H 0.19784 0.55725 0.95749 0.0
H30 H 0.11356 0.50872 0.39551 0.0
H31 H 0.10484 0.57157 0.06202 0.0
H32 H 0.161 0.57915 0.24312 0.0
C33 C 0.113 0.70041 0.05013 0.0
C34 C 0.11035 0.69936 0.97289 0.0
N35 N 0.12681 0.7086 0.94058 0.0
N36 N 0.13116 0.71022 0.06651 0.0
C37 C 0.13903 0.7151 0.99861 0.0
H38 H 0.10281 0.69422 0.09175 0.0
Co39 Co 0.14353 0.71463 0.16328 0.0
C40 C 0.19987 0.72379 0.13881 0.0
O41 O 0.20595 0.71638 0.19551 0.0
N42 N 0.15543 0.71946 0.26186 0.0
C43 C 0.16955 0.7327 0.3552 0.0
C44 C 0.16705 0.73129 0.27838 0.0
C45 C 0.15027 0.71405 0.33063 0.0
N46 N 0.15881 0.72186 0.38831 0.0
O47 O 0.12352 0.72952 0.16229 0.0
H48 H 0.17223 0.73877 0.23725 0.0
H49 H 0.13877 0.705 0.33927 0.0
O50 O 0.1755 0.72412 0.11923 0.0
C51 C 0.10106 0.72499 0.18804 0.0
O52 O 0.09804 0.71264 0.2049 0.0
N53 N 0.15927 0.69891 0.16629 0.0
C54 C 0.16082 0.67244 0.14327 0.0
C55 C 0.17766 0.68123 0.10208 0.0
C56 C 0.17625 0.69453 0.11353 0.0
C57 C 0.14371 0.69035 0.20833 0.0
C58 C 0.1446 0.67714 0.19907 0.0
H59 H 0.18656 0.70114 0.07441 0.0
H60 H 0.12781 0.69365 0.24173 0.0
H61 H 0.1541 0.72298 0.99158 0.0
H62 H 0.09742 0.6923 0.94295 0.0
H63 H 0.17786 0.74126 0.38413 0.0
H64 H 0.18997 0.67791 0.05712 0.0
H65 H 0.131 0.67067 0.23115 0.0
C66 C 0.85843 0.45089 0.96236 0.0
C67 C 0.85596 0.44978 0.03962 0.0
N68 N 0.87467 0.45794 0.07216 0.0
N69 N 0.87857 0.45971 0.94611 0.0
C70 C 0.88801 0.46386 0.01401 0.0
H71 H 0.8465 0.4455 0.92061 0.0
Co72 Co 0.89041 0.46425 0.84943 0.0
C73 C 0.9464 0.47426 0.8711 0.0
O74 O 0.95273 0.46724 0.81294 0.0
N75 N 0.90182 0.46917 0.75085 0.0
C76 C 0.91353 0.48254 0.65597 0.0
C77 C 0.91081 0.48139 0.73292 0.0
C78 C 0.89889 0.46316 0.68305 0.0
N79 N 0.90586 0.47107 0.62443 0.0
O80 O 0.86982 0.47895 0.85152 0.0
H81 H 0.91393 0.48919 0.7732 0.0
H82 H 0.89085 0.45334 0.67572 0.0
O83 O 0.92212 0.47402 0.89215 0.0
C84 C 0.84769 0.47456 0.82302 0.0
O85 O 0.84513 0.46236 0.80252 0.0
N86 N 0.9067 0.44874 0.84549 0.0
C87 C 0.91382 0.42243 0.85201 0.0
C88 C 0.92923 0.43119 0.89756 0.0
C89 C 0.92523 0.44442 0.89379 0.0
C90 C 0.89109 0.44018 0.80374 0.0
C91 C 0.89483 0.42713 0.80416 0.0
H92 H 0.9355 0.45092 0.93356 0.0
H93 H 0.874 0.44332 0.77464 0.0
H94 H 0.90478 0.47086 0.02079 0.0
H95 H 0.84141 0.44346 0.0692 0.0
H96 H 0.91917 0.49138 0.62562 0.0
H97 H 0.94337 0.4278 0.93747 0.0
H98 H 0.8815 0.42062 0.7714 0.0
C99 C 0.93104 0.30027 0.96902 0.0
C100 C 0.93373 0.30128 0.0462 0.0
N101 N 0.91847 0.29157 0.07851 0.0
N102 N 0.91408 0.29001 0.95249 0.0
C103 C 0.90689 0.28484 0.02023 0.0
H104 H 0.94048 0.30676 0.92755 0.0
Co105 Co 0.90302 0.28502 0.85555 0.0
C106 C 0.84676 0.27551 0.8749 0.0
O107 O 0.84132 0.28242 0.8154 0.0
N108 N 0.89242 0.27961 0.75678 0.0
C109 C 0.87984 0.26591 0.66393 0.0
C110 C 0.88232 0.26747 0.74079 0.0
C111 C 0.8966 0.2851 0.68781 0.0
N112 N 0.88898 0.27701 0.63063 0.0
O113 O 0.92336 0.2703 0.86152 0.0
H114 H 0.87807 0.25996 0.78245 0.0
H115 H 0.90588 0.29464 0.67843 0.0
O116 O 0.87081 0.27558 0.89804 0.0
C117 C 0.94622 0.2748 0.83857 0.0
O118 O 0.94958 0.28715 0.8219 0.0
N119 N 0.88687 0.30055 0.84747 0.0
C120 C 0.88006 0.32692 0.84995 0.0
C121 C 0.8647 0.31841 0.89705 0.0
C122 C 0.86852 0.30516 0.89528 0.0
C123 C 0.90237 0.30888 0.80388 0.0
C124 C 0.89875 0.32194 0.80227 0.0
H125 H 0.85837 0.29888 0.93644 0.0
H126 H 0.91954 0.3056 0.77593 0.0
H127 H 0.89346 0.27629 0.02662 0.0
H128 H 0.9455 0.30881 0.07599 0.0
H129 H 0.8732 0.25708 0.63478 0.0
H130 H 0.85078 0.32202 0.93682 0.0
H131 H 0.91208 0.32827 0.76843 0.0
C132 C 0.17892 0.05074 0.54771 0.0
C133 C 0.18103 0.052 0.47046 0.0
N134 N 0.16589 0.04227 0.43809 0.0
N135 N 0.16238 0.0403 0.5641 0.0
C136 C 0.15495 0.03527 0.49617 0.0
H137 H 0.18852 0.05714 0.58937 0.0
Co138 Co 0.15177 0.03503 0.6611 0.0
C139 C 0.0956 0.02528 0.64197 0.0
O140 O 0.09009 0.03203 0.70201 0.0
N141 N 0.14159 0.02931 0.75982 0.0
C142 C 0.12934 0.01531 0.85132 0.0
C143 C 0.13166 0.01711 0.77465 0.0
C144 C 0.14583 0.03459 0.82937 0.0
N145 N 0.13838 0.02632 0.88595 0.0
O146 O 0.17251 0.02047 0.6533 0.0
H147 H 0.12721 0.00975 0.73225 0.0
H148 H 0.15567 0.04399 0.83944 0.0
O149 O 0.11963 0.0255 0.61862 0.0
C150 C 0.19529 0.02507 0.6763 0.0
O151 O 0.19827 0.03737 0.69432 0.0
N152 N 0.13522 0.05042 0.67092 0.0
C153 C 0.12813 0.07676 0.66974 0.0
C154 C 0.11286 0.06829 0.62221 0.0
C155 C 0.11681 0.05505 0.62338 0.0
C156 C 0.15055 0.05871 0.71522 0.0
C157 C 0.14677 0.07176 0.71751 0.0
H158 H 0.10677 0.04882 0.58178 0.0
H159 H 0.1678 0.05546 0.74289 0.0
H160 H 0.14125 0.02682 0.48929 0.0
H161 H 0.19285 0.0595 0.44056 0.0
H162 H 0.12207 0.00645 0.87911 0.0
H163 H 0.09897 0.07193 0.5824 0.0
H164 H 0.16004 0.07806 0.75168 0.0
C165 C 0.11259 0.19905 0.54906 0.0
C166 C 0.11003 0.19818 0.47176 0.0
N167 N 0.12538 0.20794 0.44024 0.0
N168 N 0.12954 0.20929 0.56632 0.0
C169 C 0.1368 0.21458 0.499 0.0
H170 H 0.10316 0.19247 0.59007 0.0
Co171 Co 0.14099 0.2141 0.66307 0.0
C172 C 0.1972 0.22376 0.64064 0.0
O173 O 0.20344 0.21681 0.69918 0.0
N174 N 0.15201 0.21932 0.76159 0.0
C175 C 0.16491 0.23275 0.85543 0.0
C176 C 0.16271 0.23133 0.7784 0.0
C177 C 0.14715 0.2138 0.83012 0.0
N178 N 0.15494 0.22172 0.88788 0.0
O179 O 0.1206 0.22882 0.65892 0.0
H180 H 0.16743 0.23887 0.73728 0.0
H181 H 0.13713 0.20439 0.83871 0.0
O182 O 0.1729 0.22364 0.61981 0.0
C183 C 0.09783 0.22429 0.68234 0.0
O184 O 0.09452 0.21191 0.69826 0.0
N185 N 0.15722 0.19856 0.66953 0.0
C186 C 0.16404 0.17219 0.6658 0.0
C187 C 0.17935 0.18077 0.61894 0.0
C188 C 0.17551 0.19402 0.62131 0.0
C189 C 0.14176 0.19018 0.71283 0.0
C190 C 0.14537 0.17711 0.71382 0.0
H191 H 0.18561 0.20035 0.58031 0.0
H192 H 0.12457 0.1934 0.7409 0.0
H193 H 0.15026 0.22312 0.49318 0.0
H194 H 0.0984 0.19068 0.44133 0.0
H195 H 0.17183 0.24147 0.8852 0.0
H196 H 0.19322 0.17721 0.57885 0.0
H197 H 0.13203 0.17075 0.74739 0.0
C198 C 0.86362 0.94876 0.46316 0.0
C199 C 0.86155 0.9475 0.5404 0.0
N200 N 0.87663 0.95726 0.57271 0.0
N201 N 0.88008 0.95923 0.44669 0.0
C202 C 0.88749 0.96428 0.51458 0.0
H203 H 0.85405 0.94234 0.42155 0.0
Co204 Co 0.89059 0.96452 0.34964 0.0
C205 C 0.94683 0.97423 0.36838 0.0
O206 O 0.95228 0.96753 0.30808 0.0
N207 N 0.90068 0.97026 0.25095 0.0
C208 C 0.91288 0.98428 0.15949 0.0
C209 C 0.91058 0.98247 0.23616 0.0
C210 C 0.89645 0.96499 0.1814 0.0
N211 N 0.90387 0.97327 0.12484 0.0
O212 O 0.87001 0.97913 0.35783 0.0
H213 H 0.91503 0.98982 0.2786 0.0
H214 H 0.88667 0.95557 0.17133 0.0
O215 O 0.92282 0.97398 0.39196 0.0
C216 C 0.84706 0.97462 0.33574 0.0
O217 O 0.84371 0.96228 0.3187 0.0
N218 N 0.907 0.9491 0.33932 0.0
C219 C 0.91425 0.92278 0.33873 0.0
C220 C 0.92964 0.9312 0.38627 0.0
C221 C 0.9256 0.94443 0.38604 0.0
C222 C 0.8915 0.94087 0.29517 0.0
C223 C 0.89534 0.92783 0.29202 0.0
H224 H 0.93579 0.95062 0.42759 0.0
H225 H 0.87417 0.94416 0.26811 0.0
H226 H 0.90112 0.97275 0.5214 0.0
H227 H 0.84979 0.93998 0.57036 0.0
H228 H 0.92013 0.99315 0.13172 0.0
H229 H 0.94374 0.92753 0.42532 0.0
H230 H 0.88199 0.92156 0.2579 0.0
C231 C 0.93162 0.80096 0.46126 0.0
C232 C 0.93383 0.80222 0.53849 0.0
N233 N 0.91859 0.79253 0.57099 0.0
N234 N 0.91492 0.79057 0.44498 0.0
C235 C 0.90751 0.78556 0.51298 0.0
H236 H 0.94124 0.80734 0.41952 0.0
Co237 Co 0.9041 0.78535 0.34803 0.0
C238 C 0.8479 0.7756 0.36851 0.0
O239 O 0.8421 0.78236 0.30872 0.0
N240 N 0.89369 0.77968 0.24937 0.0
C241 C 0.88114 0.76577 0.1577 0.0
C242 C 0.88344 0.76754 0.2344 0.0
C243 C 0.89817 0.78494 0.17987 0.0
N244 N 0.89054 0.77673 0.12317 0.0
O245 O 0.92479 0.77076 0.35528 0.0
H246 H 0.87881 0.76019 0.27671 0.0
H247 H 0.90833 0.79428 0.16995 0.0
O248 O 0.87204 0.77582 0.39098 0.0
C249 C 0.94756 0.77532 0.33201 0.0
O250 O 0.95059 0.78763 0.31413 0.0
N251 N 0.88759 0.80076 0.33862 0.0
C252 C 0.88057 0.82712 0.33988 0.0
C253 C 0.86527 0.81863 0.38729 0.0
C254 C 0.8692 0.80539 0.38616 0.0
C255 C 0.90293 0.80904 0.29436 0.0
C256 C 0.89922 0.8221 0.29218 0.0
H257 H 0.85915 0.79916 0.42774 0.0
H258 H 0.92014 0.80578 0.26665 0.0
H259 H 0.89369 0.77716 0.51998 0.0
H260 H 0.94577 0.80969 0.5683 0.0
H261 H 0.87368 0.75695 0.12982 0.0
H262 H 0.85137 0.82227 0.42703 0.0
H263 H 0.91254 0.82839 0.25812 0.0
C264 C 0.67992 0.55066 0.56052 0.0
C265 C 0.68274 0.55169 0.48335 0.0
N266 N 0.66685 0.54225 0.45063 0.0
N267 N 0.66226 0.54065 0.57664 0.0
C268 C 0.65481 0.53565 0.50868 0.0
H269 H 0.68964 0.557 0.60228 0.0
Co270 Co 0.65046 0.53591 0.6733 0.0
C271 C 0.59436 0.52626 0.64985 0.0
O272 O 0.5881 0.53336 0.70771 0.0
N273 N 0.6391 0.53075 0.77202 0.0
C274 C 0.62568 0.51734 0.86549 0.0
C275 C 0.62827 0.51875 0.78856 0.0
C276 C 0.64368 0.53625 0.84081 0.0
N277 N 0.63554 0.52835 0.89836 0.0
O278 O 0.67096 0.52122 0.67014 0.0
H279 H 0.6237 0.51121 0.74735 0.0
H280 H 0.65376 0.54564 0.8498 0.0
O281 O 0.61869 0.52629 0.62948 0.0
C282 C 0.69331 0.52572 0.69678 0.0
O283 O 0.69604 0.538 0.71548 0.0
N284 N 0.63411 0.55143 0.67851 0.0
C285 C 0.62735 0.57779 0.67212 0.0
C286 C 0.61252 0.56914 0.62458 0.0
C287 C 0.6163 0.55589 0.62841 0.0
C288 C 0.64909 0.55989 0.72262 0.0
C289 C 0.64545 0.57295 0.72231 0.0
H290 H 0.60662 0.54949 0.587 0.0
H291 H 0.66601 0.55674 0.75231 0.0
H292 H 0.64077 0.52734 0.50189 0.0
H293 H 0.69498 0.55908 0.45383 0.0
H294 H 0.61856 0.50861 0.89499 0.0
H295 H 0.59911 0.57263 0.58292 0.0
H296 H 0.65842 0.57938 0.75662 0.0
C297 C 0.61457 0.7004 0.55913 0.0
C298 C 0.61169 0.69937 0.48195 0.0
N299 N 0.62807 0.7086 0.44907 0.0
N300 N 0.63275 0.7102 0.57508 0.0
C301 C 0.64045 0.71508 0.50703 0.0
H302 H 0.60453 0.69421 0.60102 0.0
Co303 Co 0.6448 0.71483 0.67165 0.0
C304 C 0.70097 0.72425 0.64795 0.0
O305 O 0.70704 0.71706 0.70562 0.0
N306 N 0.65642 0.71989 0.77045 0.0
C307 C 0.67016 0.7332 0.86411 0.0
C308 C 0.66751 0.73183 0.78716 0.0
C309 C 0.65174 0.71437 0.83919 0.0
N310 N 0.66007 0.72221 0.89683 0.0
O311 O 0.62435 0.72957 0.66911 0.0
H312 H 0.67219 0.73938 0.74607 0.0
H313 H 0.64144 0.70504 0.84807 0.0
O314 O 0.67665 0.7244 0.62763 0.0
C315 C 0.60244 0.72509 0.69861 0.0
O316 O 0.60025 0.71289 0.71924 0.0
N317 N 0.66096 0.69924 0.67621 0.0
C318 C 0.66716 0.67283 0.66886 0.0
C319 C 0.68205 0.68146 0.62135 0.0
C320 C 0.67854 0.69474 0.62563 0.0
C321 C 0.64596 0.69081 0.72039 0.0
C322 C 0.64931 0.67772 0.71956 0.0
H323 H 0.68823 0.70113 0.58422 0.0
H324 H 0.6292 0.694 0.75055 0.0
H325 H 0.65492 0.72321 0.5001 0.0
H326 H 0.59906 0.69212 0.45256 0.0
H327 H 0.67747 0.74188 0.89374 0.0
H328 H 0.69528 0.67794 0.57932 0.0
H329 H 0.63627 0.67133 0.75386 0.0
C330 C 0.35938 0.45037 0.46777 0.0
C331 C 0.35653 0.44926 0.54489 0.0
N332 N 0.37346 0.45823 0.57805 0.0
N333 N 0.37805 0.45995 0.45205 0.0
C334 C 0.38612 0.46464 0.52026 0.0
H335 H 0.34904 0.44431 0.42577 0.0
Co336 Co 0.3905 0.4643 0.35536 0.0
C337 C 0.44649 0.47402 0.37964 0.0
O338 O 0.45292 0.46668 0.32304 0.0
N339 N 0.40245 0.46903 0.25663 0.0
C340 C 0.41617 0.48213 0.16208 0.0
C341 C 0.41323 0.48098 0.239 0.0
C342 C 0.39825 0.46325 0.18843 0.0
N343 N 0.40657 0.47098 0.13023 0.0
O344 O 0.37006 0.47903 0.35536 0.0
H345 H 0.41746 0.48869 0.27938 0.0
H346 H 0.38827 0.45381 0.18035 0.0
O347 O 0.4221 0.47408 0.39928 0.0
C348 C 0.34797 0.47448 0.32726 0.0
O349 O 0.34554 0.46221 0.30837 0.0
N350 N 0.4067 0.44872 0.35357 0.0
C351 C 0.40945 0.42233 0.37716 0.0
C352 C 0.42608 0.43131 0.41775 0.0
C353 C 0.42405 0.44457 0.40605 0.0
C354 C 0.39124 0.43998 0.3124 0.0
C355 C 0.39275 0.42682 0.32185 0.0
H356 H 0.43429 0.4513 0.44459 0.0
H357 H 0.37512 0.44311 0.27912 0.0
H358 H 0.40114 0.47252 0.52744 0.0
H359 H 0.34362 0.4421 0.57402 0.0
H360 H 0.42324 0.49078 0.13176 0.0
H361 H 0.43877 0.42815 0.46232 0.0
H362 H 0.37934 0.4202 0.29008 0.0
C363 C 0.43214 0.29891 0.45186 0.0
C364 C 0.43512 0.29992 0.52903 0.0
N365 N 0.41858 0.29077 0.56181 0.0
N366 N 0.41369 0.28921 0.43595 0.0
C367 C 0.40598 0.28435 0.50407 0.0
H368 H 0.44224 0.30508 0.40997 0.0
Co369 Co 0.40075 0.28499 0.33944 0.0
C370 C 0.34466 0.27565 0.36688 0.0
O371 O 0.33803 0.28325 0.31166 0.0
N372 N 0.38836 0.28037 0.24084 0.0
C373 C 0.37363 0.26738 0.14691 0.0
C374 C 0.37594 0.26872 0.2238 0.0
C375 C 0.39429 0.28568 0.17221 0.0
N376 N 0.38536 0.27803 0.11418 0.0
O377 O 0.42096 0.2702 0.33798 0.0
H378 H 0.37022 0.26126 0.26452 0.0
H379 H 0.40679 0.29444 0.16397 0.0
O380 O 0.36921 0.27528 0.38441 0.0
C381 C 0.44312 0.2748 0.31059 0.0
O382 O 0.44579 0.28715 0.29355 0.0
N383 N 0.38467 0.30065 0.33896 0.0
C384 C 0.38271 0.32703 0.36532 0.0
C385 C 0.36672 0.318 0.40743 0.0
C386 C 0.3683 0.30477 0.39414 0.0
C387 C 0.39934 0.30943 0.296 0.0
C388 C 0.39817 0.32259 0.30682 0.0
H389 H 0.35871 0.298 0.4337 0.0
H390 H 0.41487 0.30636 0.26042 0.0
H391 H 0.3907 0.27658 0.51151 0.0
H392 H 0.44829 0.30693 0.55862 0.0
H393 H 0.36483 0.25895 0.11768 0.0
H394 H 0.35499 0.32108 0.45434 0.0
H395 H 0.41103 0.32923 0.27357 0.0
C396 C 0.68006 0.0505 0.05194 0.0
C397 C 0.68278 0.0515 0.97476 0.0
N398 N 0.66744 0.04182 0.94241 0.0
N399 N 0.66301 0.04027 0.06845 0.0
C400 C 0.6558 0.03511 1.00068 0.0
H401 H 0.68952 0.05698 0.09343 0.0
Co402 Co 0.65176 0.03532 0.16534 0.0
C403 C 0.59548 0.02584 0.14433 0.0
O404 O 0.58974 0.03276 0.20349 0.0
N405 N 0.64094 0.02995 0.26401 0.0
C406 C 0.62803 0.01633 0.35694 0.0
C407 C 0.63053 0.01786 0.28006 0.0
C408 C 0.64531 0.03541 0.33297 0.0
N409 N 0.63749 0.02738 0.3902 0.0
O410 O 0.67205 0.02057 0.15996 0.0
H411 H 0.6261 0.01037 0.23845 0.0
H412 H 0.65488 0.0449 0.3423 0.0
O413 O 0.61964 0.0259 0.12228 0.0
C414 C 0.69488 0.02506 0.1832 0.0
O415 O 0.69824 0.03741 0.19978 0.0
N416 N 0.63568 0.05088 0.17297 0.0
C417 C 0.62923 0.07728 0.17017 0.0
C418 C 0.61377 0.0688 0.12311 0.0
C419 C 0.61742 0.05553 0.12501 0.0
C420 C 0.65124 0.05916 0.21663 0.0
C421 C 0.64781 0.07225 0.21805 0.0
H422 H 0.60723 0.04927 0.08381 0.0
H423 H 0.66835 0.05584 0.2447 0.0
H424 H 0.64229 0.02659 0.99423 0.0
H425 H 0.6946 0.05902 0.94499 0.0
H426 H 0.62118 0.00753 0.38612 0.0
H427 H 0.59993 0.07244 0.08317 0.0
H428 H 0.66125 0.07853 0.25182 0.0
C429 C 0.61437 0.19869 0.04876 0.0
C430 C 0.61233 0.19742 0.97151 0.0
N431 N 0.62745 0.20718 0.93923 0.0
N432 N 0.63085 0.20915 0.06524 0.0
C433 C 0.6383 0.21419 0.99737 0.0
H434 H 0.60475 0.1923 0.09037 0.0
Co435 Co 0.64124 0.21448 0.16228 0.0
C436 C 0.69743 0.22424 0.1444 0.0
O437 O 0.70276 0.21751 0.20477 0.0
N438 N 0.65121 0.22026 0.26104 0.0
C439 C 0.66324 0.23432 0.35244 0.0
C440 C 0.66092 0.2325 0.27578 0.0
C441 C 0.6471 0.21498 0.33062 0.0
N442 N 0.65442 0.22328 0.38714 0.0
O443 O 0.62053 0.22903 0.15354 0.0
H444 H 0.66526 0.23986 0.23329 0.0
H445 H 0.6375 0.20553 0.34075 0.0
O446 O 0.67348 0.22398 0.12032 0.0
C447 C 0.59772 0.22447 0.17648 0.0
O448 O 0.59476 0.2122 0.19525 0.0
N449 N 0.65777 0.19909 0.17291 0.0
C450 C 0.66497 0.17277 0.17276 0.0
C451 C 0.68034 0.18122 0.12534 0.0
C452 C 0.67633 0.19445 0.12598 0.0
C453 C 0.64234 0.19083 0.21704 0.0
C454 C 0.64616 0.17779 0.21984 0.0
H455 H 0.68647 0.20066 0.08446 0.0
H456 H 0.62501 0.19409 0.24422 0.0
H457 H 0.65194 0.22267 0.99059 0.0
H458 H 0.60056 0.18991 0.94152 0.0
H459 H 0.67037 0.24321 0.38017 0.0
H460 H 0.69435 0.17756 0.08602 0.0
H461 H 0.63283 0.1715 0.25389 0.0
C462 C 0.3615 0.95058 0.95725 0.0
C463 C 0.35883 0.94952 0.03447 0.0
N464 N 0.37523 0.95877 0.06686 0.0
N465 N 0.37963 0.9604 0.94096 0.0
C466 C 0.38745 0.96529 0.00888 0.0
H467 H 0.35136 0.94437 0.91558 0.0
Co468 Co 0.392 0.96481 0.84424 0.0
C469 C 0.44822 0.97411 0.86848 0.0
O470 O 0.45428 0.96669 0.81182 0.0
N471 N 0.40386 0.96963 0.74563 0.0
C472 C 0.41779 0.9829 0.65223 0.0
C473 C 0.41533 0.98149 0.72904 0.0
C474 C 0.39874 0.9642 0.67688 0.0
N475 N 0.40716 0.97204 0.61916 0.0
O476 O 0.37181 0.97962 0.84486 0.0
H477 H 0.42042 0.98899 0.77012 0.0
H478 H 0.38731 0.95514 0.66829 0.0
O479 O 0.42388 0.9744 0.88828 0.0
C480 C 0.34942 0.97504 0.81883 0.0
O481 O 0.34658 0.96269 0.80191 0.0
N482 N 0.40797 0.94914 0.84166 0.0
C483 C 0.40985 0.92272 0.86594 0.0
C484 C 0.42648 0.93161 0.90707 0.0
C485 C 0.42491 0.94488 0.89495 0.0
C486 C 0.39264 0.94049 0.79961 0.0
C487 C 0.39371 0.9273 0.80948 0.0
H488 H 0.43505 0.95156 0.93402 0.0
H489 H 0.37676 0.94369 0.76571 0.0
H490 H 0.40249 0.97317 0.01598 0.0
H491 H 0.34592 0.94244 0.06436 0.0
H492 H 0.426 0.99148 0.62327 0.0
H493 H 0.43874 0.92839 0.95249 0.0
H494 H 0.3803 0.92074 0.77729 0.0
C495 C 0.43539 0.79826 0.94883 0.0
C496 C 0.43839 0.79937 0.02594 0.0
N497 N 0.42033 0.79098 0.05947 0.0
N498 N 0.41552 0.78924 0.93349 0.0
C499 C 0.40688 0.7849 1.00191 0.0
H500 H 0.44641 0.80397 0.90657 0.0
Co501 Co 0.40237 0.78535 0.83692 0.0
C502 C 0.3462 0.77612 0.8627 0.0
O503 O 0.33991 0.78381 0.80759 0.0
N504 N 0.38969 0.78108 0.73808 0.0
C505 C 0.37487 0.76842 0.64271 0.0
C506 C 0.378 0.76934 0.71966 0.0
C507 C 0.39429 0.78693 0.67023 0.0
N508 N 0.3853 0.77947 0.61156 0.0
O509 O 0.42232 0.77044 0.83398 0.0
H510 H 0.37335 0.76157 0.75939 0.0
H511 H 0.40513 0.79619 0.66273 0.0
O512 O 0.37064 0.77565 0.88112 0.0
C513 C 0.44393 0.77484 0.80248 0.0
O514 O 0.4462 0.78708 0.7827 0.0
N515 N 0.38675 0.8011 0.83809 0.0
C516 C 0.38515 0.82744 0.86586 0.0
C517 C 0.36853 0.81843 0.90614 0.0
C518 C 0.36999 0.80519 0.89233 0.0
C519 C 0.40217 0.80989 0.79718 0.0
C520 C 0.40126 0.82304 0.80883 0.0
H521 H 0.35981 0.79838 0.93057 0.0
H522 H 0.41787 0.80677 0.76227 0.0
H523 H 0.39079 0.77754 0.00943 0.0
H524 H 0.45218 0.80618 0.05478 0.0
H525 H 0.36717 0.75994 0.61183 0.0
H526 H 0.35631 0.8215 0.95199 0.0
H527 H 0.41466 0.82969 0.77728 0.0
H528 H 0.34549 0.50092 0.33902 0.0
H529 H 0.19445 0.49836 0.19254 0.0
H530 H 0.29857 0.46573 0.28206 0.0
H531 H 0.24132 0.53353 0.25025 0.0
H532 H 0.23261 0.48612 0.2243 0.0
H533 H 0.30727 0.51315 0.3077 0.0
C534 C 0.32719 0.49578 0.32037 0.0
C535 C 0.32529 0.48231 0.31295 0.0
C536 C 0.23448 0.49653 0.22984 0.0
C537 C 0.28164 0.49614 0.27668 0.0
C538 C 0.21272 0.50349 0.21146 0.0
C539 C 0.21463 0.51696 0.21891 0.0
C540 C 0.25821 0.50312 0.25566 0.0
C541 C 0.23881 0.52314 0.24394 0.0
C542 C 0.3054 0.50273 0.30224 0.0
C543 C 0.30108 0.47612 0.28829 0.0
N544 N 0.25956 0.51619 0.26145 0.0
N545 N 0.2803 0.48306 0.27098 0.0
H546 H 0.10115 0.75157 0.19911 0.0
H547 H 0.94753 0.74877 0.32143 0.0
H548 H 0.04996 0.7164 0.21391 0.0
H549 H 0.99893 0.78391 0.31026 0.0
H550 H 0.98516 0.73659 0.28406 0.0
H551 H 0.06368 0.76376 0.23799 0.0
C552 C 0.08203 0.74645 0.20974 0.0
C553 C 0.07872 0.73297 0.2036 0.0
C554 C 0.98817 0.74697 0.29019 0.0
C555 C 0.03597 0.74672 0.24881 0.0
C556 C 0.96674 0.75388 0.31207 0.0
C557 C 0.97006 0.76735 0.31863 0.0
C558 C 1.01299 0.7536 0.27494 0.0
C559 C 0.99538 0.77353 0.30527 0.0
C560 C 0.06069 0.75336 0.23244 0.0
C561 C 0.05352 0.72679 0.21852 0.0
N562 N 1.01578 0.76663 0.28382 0.0
N563 N 0.03321 0.73368 0.24057 0.0
H564 H 0.29299 0.77478 0.83334 0.0
H565 H 0.25308 0.7251 0.16855 0.0
H566 H 0.35005 0.75965 0.98429 0.0
H567 H 0.19619 0.74008 0.01642 0.0
H568 H 0.28865 0.73765 0.10212 0.0
H569 H 0.25751 0.76218 0.89962 0.0
C570 C 0.29813 0.7688 0.88047 0.0
C571 C 0.32469 0.7683 0.9031 0.0
C572 C 0.26841 0.73821 0.08316 0.0
C573 C 0.2838 0.75376 0.97973 0.0
C574 C 0.248 0.73103 0.12113 0.0
C575 C 0.22147 0.73151 0.0982 0.0
C576 C 0.26243 0.74598 0.02147 0.0
C577 C 0.21628 0.7394 0.03625 0.0
C578 C 0.27776 0.76159 0.91836 0.0
C579 C 0.32994 0.76034 0.96467 0.0
N580 N 0.23655 0.74631 1.00012 0.0
N581 N 0.3097 0.7534 1.00079 0.0
H582 H 0.94191 0.48989 0.99579 0.0
H583 H 0.09851 0.50976 0.02484 0.0
H584 H 0.99967 0.47633 0.84134 0.0
H585 H 0.04032 0.52424 0.17448 0.0
H586 H 0.06271 0.49722 0.9577 0.0
H587 H 0.97776 0.50236 0.06288 0.0
C588 C 0.96208 0.48953 0.97588 0.0
C589 C 0.96769 0.48203 0.91267 0.0
C590 C 0.05779 0.50315 1.00527 0.0
C591 C 1.00895 0.4963 0.98941 0.0
C592 C 0.07826 0.51031 0.04368 0.0
C593 C 0.0725 0.51809 0.10551 0.0
C594 C 0.03133 0.50375 0.02884 0.0
C595 C 0.0458 0.5184 0.12718 0.0
C596 C 0.98258 0.49666 0.01425 0.0
C597 C 0.9943 0.48196 0.88968 0.0
N598 N 0.0263 0.51136 0.08904 0.0
N599 N 1.01386 0.48895 0.92793 0.0
H600 H 0.84616 0.50109 0.8319 0.0
H601 H 0.69473 0.49918 0.68943 0.0
H602 H 0.79779 0.46603 0.78154 0.0
H603 H 0.7433 0.53428 0.73754 0.0
H604 H 0.73249 0.48675 0.72235 0.0
H605 H 0.80837 0.51353 0.79936 0.0
C606 C 0.82762 0.49602 0.81457 0.0
C607 C 0.8252 0.48253 0.80918 0.0
C608 C 0.73483 0.49719 0.72549 0.0
C609 C 0.78206 0.4966 0.77138 0.0
C610 C 0.71331 0.50426 0.70635 0.0
C611 C 0.7158 0.51776 0.71093 0.0
C612 C 0.75891 0.5037 0.74922 0.0
C613 C 0.74035 0.52387 0.73355 0.0
C614 C 0.80609 0.5031 0.79564 0.0
C615 C 0.80069 0.47644 0.78609 0.0
N616 N 0.76085 0.51681 0.75195 0.0
N617 N 0.78017 0.4835 0.76795 0.0
H618 H 0.09892 0.25074 0.70094 0.0
H619 H 0.9451 0.24834 0.82042 0.0
H620 H 0.04622 0.21598 0.70187 0.0
H621 H 0.99793 0.28304 0.82088 0.0
H622 H 0.98222 0.23612 0.77926 0.0
H623 H 0.06187 0.26293 0.7429 0.0
C624 C 0.07954 0.24572 0.70898 0.0
C625 C 0.07568 0.23235 0.6982 0.0
C626 C 0.98566 0.24641 0.7888 0.0
C627 C 0.03341 0.24609 0.74714 0.0
C628 C 0.96453 0.25333 0.8129 0.0
C629 C 0.96841 0.26671 0.82374 0.0
C630 C 1.01074 0.25294 0.77566 0.0
C631 C 0.99397 0.27275 0.81256 0.0
C632 C 0.05844 0.25263 0.73353 0.0
C633 C 0.05017 0.22628 0.71008 0.0
N634 N 1.01407 0.26585 0.78888 0.0
N635 N 0.0301 0.23317 0.73411 0.0
H636 H 0.74994 0.22665 0.18309 0.0
H637 H 0.79423 0.27316 0.83663 0.0
H638 H 0.6954 0.23916 0.01553 0.0
H639 H 0.84887 0.26051 1.00349 0.0
H640 H 0.758 0.26083 0.90136 0.0
H641 H 0.7862 0.23897 0.1184 0.0
C642 C 0.74552 0.23199 0.13264 0.0
C643 C 0.71944 0.23184 0.10485 0.0
C644 C 0.77788 0.26073 0.92393 0.0
C645 C 0.76121 0.24605 0.03012 0.0
C646 C 0.79868 0.26778 0.88694 0.0
C647 C 0.82478 0.2679 0.9145 0.0
C648 C 0.78303 0.25368 0.9893 0.0
C649 C 0.82915 0.26071 0.98003 0.0
C650 C 0.76633 0.23904 0.09567 0.0
C651 C 0.71511 0.23898 0.03914 0.0
N652 N 0.80851 0.25391 0.01514 0.0
N653 N 0.73576 0.24578 1.00409 0.0
H654 H 0.34917 0.0016 0.80858 0.0
H655 H 0.19549 0.99852 0.68637 0.0
H656 H 0.29845 0.96631 0.79187 0.0
H657 H 0.24665 0.03373 0.69756 0.0
H658 H 0.23329 0.98639 0.72315 0.0
H659 H 0.31155 0.01371 0.76988 0.0
C660 C 0.33013 0.99644 0.79754 0.0
C661 C 0.32699 0.98295 0.80313 0.0
C662 C 0.23621 0.99678 0.71715 0.0
C663 C 0.28407 0.99661 0.75815 0.0
C664 C 0.21469 0.00366 0.69561 0.0
C665 C 0.21789 0.01713 0.68925 0.0
C666 C 0.261 0.00345 0.73228 0.0
C667 C 0.24318 0.02335 0.70243 0.0
C668 C 0.30871 0.00331 0.77495 0.0
C669 C 0.30188 0.9767 0.78771 0.0
N670 N 0.26367 0.01649 0.72358 0.0
N671 N 0.28148 0.98356 0.76581 0.0
H672 H 0.19288 0.23928 0.51532 0.0
H673 H 0.34943 0.25942 0.48897 0.0
H674 H 0.25044 0.22583 0.67096 0.0
H675 H 0.29135 0.27386 0.3386 0.0
H676 H 0.31361 0.24676 0.5553 0.0
H677 H 0.2288 0.25175 0.44862 0.0
C678 C 0.21302 0.23894 0.53556 0.0
C679 C 0.21855 0.23148 0.59903 0.0
C680 C 0.30873 0.2527 0.50773 0.0
C681 C 0.2599 0.24576 0.52275 0.0
C682 C 0.3292 0.25993 0.4698 0.0
C683 C 0.32348 0.26775 0.40802 0.0
C684 C 0.28229 0.25326 0.48374 0.0
C685 C 0.29681 0.268 0.38589 0.0
C686 C 0.23357 0.24607 0.49742 0.0
C687 C 0.24514 0.23143 0.62242 0.0
N688 N 0.2773 0.26089 0.42358 0.0
N689 N 0.26474 0.23844 0.5844 0.0
H690 H 0.99944 0.97665 0.33087 0.0
H691 H 0.04299 0.02285 0.67942 0.0
H692 H 0.94452 0.98907 0.49745 0.0
H693 H 0.09796 0.01039 0.51307 0.0
H694 H 1.00689 0.01057 0.61372 0.0
H695 H 0.03556 0.98891 0.39662 0.0
C696 C 0.9949 0.98196 0.38133 0.0
C697 C 0.96876 0.9818 0.40852 0.0
C698 C 0.02682 0.0105 0.59148 0.0
C699 C 1.01037 0.99594 0.48449 0.0
C700 C 0.04754 0.01752 0.62902 0.0
C701 C 0.07369 0.01768 0.60188 0.0
C702 C 0.0321 0.00352 0.52595 0.0
C703 C 0.07819 0.01057 0.53621 0.0
C704 C 1.01564 0.98897 0.4189 0.0
C705 C 0.96428 0.9889 0.47427 0.0
N706 N 0.05763 0.00379 0.50056 0.0
N707 N 0.98485 0.99566 0.50994 0.0
H708 H 0.69378 0.99861 0.20225 0.0
H709 H 0.84807 0.00106 0.31722 0.0
H710 H 0.74661 0.03332 0.20034 0.0
H711 H 0.79525 0.96635 0.32014 0.0
H712 H 0.8108 0.01324 0.2768 0.0
H713 H 0.73098 0.98643 0.24342 0.0
C714 C 0.71322 0.00362 0.20947 0.0
C715 C 0.71708 0.01698 0.19818 0.0
C716 C 0.80739 0.00296 0.28673 0.0
C717 C 0.7595 0.00325 0.24625 0.0
C718 C 0.82861 0.99605 0.31045 0.0
C719 C 0.82478 0.98269 0.32173 0.0
C720 C 0.78226 0.99642 0.27443 0.0
C721 C 0.79918 0.97664 0.31146 0.0
C722 C 0.7344 0.99671 0.23359 0.0
C723 C 0.74266 0.02303 0.209 0.0
N724 N 0.77898 0.98352 0.28813 0.0
N725 N 0.7628 0.01615 0.23265 0.0
H726 H 0.75396 0.72626 0.68081 0.0
H727 H 0.79497 0.77344 0.33448 0.0
H728 H 0.69754 0.73972 0.52168 0.0
H729 H 0.85108 0.76045 0.49604 0.0
H730 H 0.75925 0.76113 0.40168 0.0
H731 H 0.78958 0.73863 0.61368 0.0
C732 C 0.74898 0.73182 0.6317 0.0
C733 C 0.72257 0.73192 0.60703 0.0
C734 C 0.77935 0.76095 0.42254 0.0
C735 C 0.76362 0.74618 0.52942 0.0
C736 C 0.79985 0.76799 0.38412 0.0
C737 C 0.8262 0.76801 0.40948 0.0
C738 C 0.78507 0.75381 0.4871 0.0
C739 C 0.83113 0.76074 0.47427 0.0
C740 C 0.76944 0.7389 0.59334 0.0
C741 C 0.71754 0.73934 0.54293 0.0
N742 N 0.81079 0.75395 0.51075 0.0
N743 N 0.73785 0.74616 0.50639 0.0
H744 H 0.44969 0.74926 0.83838 0.0
H745 H 0.59679 0.75071 0.66312 0.0
H746 H 0.48988 0.78266 0.73119 0.0
H747 H 0.55576 0.71705 0.76527 0.0
H748 H 0.55774 0.76273 0.68801 0.0
H749 H 0.48857 0.73719 0.81222 0.0
C750 C 0.46659 0.75403 0.80936 0.0
C751 C 0.4665 0.76697 0.78718 0.0
C752 C 0.55737 0.7527 0.70486 0.0
C753 C 0.51094 0.75332 0.75713 0.0
C754 C 0.57966 0.74586 0.69064 0.0
C755 C 0.57959 0.73287 0.71196 0.0
C756 C 0.53497 0.74647 0.74071 0.0
C757 C 0.5568 0.72705 0.74758 0.0
C758 C 0.48878 0.74717 0.79444 0.0
C759 C 0.48899 0.7727 0.74967 0.0
N760 N 0.53551 0.73388 0.76079 0.0
N761 N 0.51022 0.76586 0.73597 0.0
H762 H 0.59854 0.51068 0.52474 0.0
H763 H 0.44216 0.48982 0.50381 0.0
H764 H 0.54124 0.52405 0.68128 0.0
H765 H 0.49961 0.47625 0.34844 0.0
H766 H 0.47811 0.50252 0.56934 0.0
H767 H 0.56255 0.49807 0.459 0.0
C768 C 0.57844 0.51097 0.54537 0.0
C769 C 0.573 0.51846 0.60879 0.0
C770 C 0.48283 0.49676 0.52085 0.0
C771 C 0.53159 0.50402 0.53367 0.0
C772 C 0.46228 0.48951 0.48337 0.0
C773 C 0.46778 0.48193 0.4204 0.0
C774 C 0.50913 0.49646 0.49524 0.0
C775 C 0.49432 0.48192 0.39668 0.0
C776 C 0.55786 0.50376 0.50778 0.0
C777 C 0.54648 0.51844 0.63273 0.0
N778 N 0.51392 0.48905 0.43398 0.0
N779 N 0.52684 0.51136 0.59529 0.0
H780 H 0.44397 0.24821 0.30696 0.0
H781 H 0.59713 0.25106 0.18037 0.0
H782 H 0.49353 0.28359 0.27624 0.0
H783 H 0.54654 0.21578 0.20083 0.0
H784 H 0.55917 0.26329 0.21407 0.0
H785 H 0.48166 0.23602 0.2701 0.0
C786 C 0.46276 0.25339 0.29307 0.0
C787 C 0.46556 0.26691 0.29443 0.0
C788 C 0.55641 0.25286 0.21078 0.0
C789 C 0.50858 0.25314 0.25171 0.0
C790 C 0.57804 0.24591 0.19107 0.0
C791 C 0.57505 0.2324 0.18816 0.0
C792 C 0.53174 0.24621 0.22761 0.0
C793 C 0.54986 0.22619 0.20303 0.0
C794 C 0.48423 0.24646 0.2716 0.0
C795 C 0.49035 0.27316 0.27551 0.0
N796 N 0.52928 0.23313 0.22238 0.0
N797 N 0.51082 0.26625 0.25489 0.0
H798 H 0.50121 0.97591 0.83592 0.0
H799 H 0.54254 0.0239 0.17809 0.0
H800 H 0.44486 0.99001 0.99284 0.0
H801 H 0.59851 0.01048 0.01771 0.0
H802 H 0.50673 0.01154 0.11156 0.0
H803 H 0.53689 0.98841 0.90197 0.0
C804 C 0.49626 0.98164 0.88432 0.0
C805 C 0.46985 0.98187 0.90873 0.0
C806 C 0.52681 0.01128 0.09081 0.0
C807 C 0.51097 0.9963 0.98509 0.0
C808 C 0.54737 0.01835 0.12884 0.0
C809 C 0.57372 0.01825 0.10364 0.0
C810 C 0.53247 0.00399 0.02682 0.0
C811 C 0.57858 0.01085 0.03936 0.0
C812 C 0.51675 0.9888 0.92206 0.0
C813 C 0.46485 0.98952 0.97186 0.0
N814 N 0.55818 0.00403 1.00328 0.0
N815 N 0.4852 0.9964 1.00783 0.0
H816 H 0.13302 0.50933 0.51108 0.0
H817 H 0.17508 0.55934 0.84171 0.0
H818 H 0.14669 0.55043 0.47466 0.0
H819 H 0.14974 0.51925 0.88049 0.0
H820 H 0.1671 0.55613 0.70644 0.0
H821 H 0.14084 0.51271 0.64548 0.0
C822 C 0.13745 0.5191 0.53102 0.0
C823 C 0.13906 0.52962 0.48068 0.0
C824 C 0.16327 0.54804 0.74455 0.0
C825 C 0.14854 0.53352 0.63578 0.0
C826 C 0.16801 0.54984 0.82183 0.0
C827 C 0.16314 0.53954 0.87277 0.0
C828 C 0.15373 0.53583 0.71766 0.0
C829 C 0.15353 0.52749 0.8436 0.0
C830 C 0.14208 0.521 0.60815 0.0
C831 C 0.14549 0.542 0.51073 0.0
N832 N 0.14922 0.52597 0.76808 0.0
N833 N 0.15001 0.5436 0.58619 0.0
H834 H 0.14305 0.73111 0.87071 0.0
H835 H 0.14983 0.69878 0.46081 0.0
H836 H 0.12151 0.69075 0.82817 0.0
H837 H 0.15823 0.73994 0.49995 0.0
H838 H 0.14187 0.69541 0.59594 0.0
H839 H 0.15155 0.7343 0.7357 0.0
C840 C 0.14019 0.72291 0.83304 0.0
C841 C 0.1315 0.71065 0.86088 0.0
C842 C 0.14548 0.70518 0.57479 0.0
C843 C 0.14111 0.71423 0.70602 0.0
C844 C 0.14993 0.70712 0.49747 0.0
C845 C 0.15471 0.71967 0.46834 0.0
C846 C 0.14592 0.71586 0.62362 0.0
C847 C 0.15502 0.73007 0.51932 0.0
C848 C 0.14491 0.72474 0.75586 0.0
C849 C 0.12783 0.7004 0.80916 0.0
N850 N 0.1507 0.72793 0.59424 0.0
N851 N 0.13272 0.70241 0.73431 0.0
H852 H 0.87338 0.45207 0.55813 0.0
H853 H 0.90222 0.47838 0.14042 0.0
H854 H 0.93072 0.48391 0.50719 0.0
H855 H 0.85918 0.44168 0.18773 0.0
H856 H 0.9113 0.48105 0.27486 0.0
H857 H 0.86672 0.44848 0.42324 0.0
C858 C 0.88485 0.45824 0.51895 0.0
C859 C 0.90266 0.46836 0.54468 0.0
C860 C 0.89993 0.47239 0.25572 0.0
C861 C 0.8946 0.46441 0.38939 0.0
C862 C 0.89478 0.47082 0.17864 0.0
C863 C 0.87989 0.45975 0.15195 0.0
C864 C 0.88998 0.4629 0.30695 0.0
C865 C 0.87042 0.45044 0.20521 0.0
C866 C 0.88086 0.45621 0.44164 0.0
C867 C 0.91649 0.47614 0.49038 0.0
N868 N 0.87558 0.45225 0.28007 0.0
N869 N 0.91207 0.47404 0.41542 0.0
H870 H 0.95131 0.29976 0.19359 0.0
H871 H 0.85898 0.26624 0.51658 0.0
H872 H 0.87672 0.27807 0.14729 0.0
H873 H 0.92713 0.29274 0.5617 0.0
H874 H 0.86614 0.26955 0.38082 0.0
H875 H 0.94374 0.29642 0.32844 0.0
C876 C 0.93328 0.29434 0.21153 0.0
C877 C 0.9146 0.28925 0.15846 0.0
C878 C 0.87947 0.27468 0.42046 0.0
C879 C 0.90594 0.28525 0.31357 0.0
C880 C 0.87545 0.27275 0.49792 0.0
C881 C 0.89243 0.27924 0.55064 0.0
C882 C 0.90077 0.28309 0.39543 0.0
C883 C 0.91331 0.28768 0.52329 0.0
C884 C 0.92901 0.2924 0.28877 0.0
C885 C 0.89184 0.28208 0.18565 0.0
N886 N 0.91694 0.28931 0.44765 0.0
N887 N 0.88816 0.2803 0.26124 0.0
H888 H 0.16848 0.06023 0.32618 0.0
H889 H 0.14077 0.00818 0.99688 0.0
H890 H 0.15322 0.01938 0.36733 0.0
H891 H 0.14329 0.04938 0.96022 0.0
H892 H 0.1467 0.01205 0.13185 0.0
H893 H 0.16132 0.05638 0.19121 0.0
C894 C 0.16377 0.05043 0.30683 0.0
C895 C 0.16155 0.0401 0.35829 0.0
C896 C 0.1459 0.02024 0.09427 0.0
C897 C 0.15309 0.03563 0.20355 0.0
C898 C 0.14236 0.01805 0.01691 0.0
C899 C 0.14152 0.02846 0.96638 0.0
C900 C 0.14878 0.03295 0.12175 0.0
C901 C 0.14419 0.04103 0.99641 0.0
C902 C 0.15949 0.04825 0.22974 0.0
C903 C 0.15492 0.02764 0.32991 0.0
N904 N 0.14776 0.04291 0.07196 0.0
N905 N 0.15103 0.02575 0.25447 0.0
H906 H 0.16782 0.22128 0.37416 0.0
H907 H 0.11551 0.20637 0.95391 0.0
H908 H 0.09318 0.19997 0.32331 0.0
H909 H 0.18463 0.23196 1.00404 0.0
H910 H 0.10833 0.20302 0.08911 0.0
H911 H 0.17519 0.22473 0.23918 0.0
C912 C 0.15284 0.21741 0.33492 0.0
C913 C 0.12978 0.21032 0.36062 0.0
C914 C 0.1251 0.20936 0.07062 0.0
C915 C 0.1384 0.21407 0.20539 0.0
C916 C 0.12935 0.21119 0.99329 0.0
C917 C 0.15079 0.21942 0.96753 0.0
C918 C 0.14247 0.21576 0.12278 0.0
C919 C 0.16774 0.22562 0.02146 0.0
C920 C 0.15717 0.21932 0.25763 0.0
C921 C 0.11139 0.20535 0.30644 0.0
N922 N 0.16325 0.22364 0.09652 0.0
N923 N 0.11612 0.2073 0.23153 0.0
H924 H 0.90137 0.9914 0.01395 0.0
H925 H 0.87421 0.93931 0.68463 0.0
H926 H 0.89917 0.95021 0.05058 0.0
H927 H 0.8891 0.98018 0.64343 0.0
H928 H 0.88131 0.94318 0.81959 0.0
H929 H 0.89552 0.98753 0.87894 0.0
C930 C 0.89987 0.98154 0.9939 0.0
C931 C 0.90077 0.97112 0.04442 0.0
C932 C 0.88307 0.9513 0.78106 0.0
C933 C 0.89361 0.96663 0.88904 0.0
C934 C 0.87883 0.94911 0.70396 0.0
C935 C 0.88096 0.95944 0.6525 0.0
C936 C 0.88935 0.96394 0.80723 0.0
C937 C 0.88748 0.97191 0.68086 0.0
C938 C 0.89637 0.97934 0.91652 0.0
C939 C 0.89821 0.95855 0.01439 0.0
N940 N 0.89133 0.97382 0.7563 0.0
N941 N 0.89469 0.95667 0.93883 0.0
H942 H 0.89247 0.75857 0.01226 0.0
H943 H 0.92167 0.81049 0.68289 0.0
H944 H 0.89629 0.79978 0.04892 0.0
H945 H 0.90548 0.76969 0.64191 0.0
H946 H 0.91446 0.80669 0.81787 0.0
H947 H 0.89862 0.7624 0.87734 0.0
C948 C 0.89439 0.76843 0.99225 0.0
C949 C 0.89384 0.77886 0.04277 0.0
C950 C 0.91244 0.79856 0.77938 0.0
C951 C 0.90135 0.78331 0.88743 0.0
C952 C 0.91675 0.80072 0.70227 0.0
C953 C 0.91427 0.79039 0.65084 0.0
C954 C 0.90575 0.78597 0.80562 0.0
C955 C 0.90738 0.77795 0.67928 0.0
C956 C 0.89806 0.77061 0.91491 0.0
C957 C 0.89695 0.79143 0.01275 0.0
N958 N 0.90346 0.77609 0.75473 0.0
N959 N 0.90062 0.79329 0.93722 0.0
H960 H 0.60505 0.51813 0.01286 0.0
H961 H 0.69984 0.55018 0.33525 0.0
H962 H 0.67473 0.54356 0.96682 0.0
H963 H 0.62424 0.52944 0.38179 0.0
H964 H 0.69182 0.54709 0.20032 0.0
H965 H 0.61262 0.52135 0.14847 0.0
C966 C 0.62194 0.52438 0.03128 0.0
C967 C 0.63924 0.53059 0.97831 0.0
C968 C 0.67698 0.54322 0.24009 0.0
C969 C 0.64806 0.53434 0.13349 0.0
C970 C 0.6815 0.54502 0.31738 0.0
C971 C 0.66269 0.54011 0.37057 0.0
C972 C 0.65351 0.5364 0.21535 0.0
C973 C 0.63951 0.53328 0.34341 0.0
C974 C 0.6262 0.52627 0.10869 0.0
C975 C 0.66066 0.53871 1.00541 0.0
N976 N 0.63559 0.53164 0.26781 0.0
N977 N 0.66452 0.5403 0.08104 0.0
H978 H 0.69085 0.73216 0.01151 0.0
H979 H 0.59482 0.70098 0.33355 0.0
H980 H 0.62041 0.70728 0.96503 0.0
H981 H 0.67125 0.7209 0.38025 0.0
H982 H 0.60301 0.70397 0.1986 0.0
H983 H 0.68314 0.72896 0.14709 0.0
C984 C 0.67377 0.72603 0.02984 0.0
C985 C 0.6563 0.71997 0.97676 0.0
C986 C 0.61799 0.70768 0.23842 0.0
C987 C 0.6473 0.71626 0.13189 0.0
C988 C 0.61337 0.70594 0.31572 0.0
C989 C 0.63236 0.71066 0.36898 0.0
C990 C 0.64175 0.71425 0.21374 0.0
C991 C 0.65583 0.71722 0.34184 0.0
C992 C 0.66942 0.72416 0.10722 0.0
C993 C 0.63461 0.71201 1.00372 0.0
N994 N 0.65984 0.71881 0.26625 0.0
N995 N 0.63067 0.71043 0.07933 0.0
H996 H 0.43746 0.4808 0.01567 0.0
H997 H 0.34032 0.45059 0.69376 0.0
H998 H 0.36715 0.45585 0.06227 0.0
H999 H 0.41723 0.46999 0.64693 0.0
H1000 H 0.349 0.45315 0.82871 0.0
H1001 H 0.42961 0.47768 0.88013 0.0
C1002 C 0.4204 0.47465 0.99734 0.0
C1003 C 0.40296 0.46858 0.05043 0.0
C1004 C 0.36399 0.45683 0.78885 0.0
C1005 C 0.39378 0.46497 0.89534 0.0
C1006 C 0.35908 0.45534 0.71152 0.0
C1007 C 0.37805 0.46004 0.6582 0.0
C1008 C 0.388 0.46315 0.8135 0.0
C1009 C 0.40181 0.46633 0.68534 0.0
C1010 C 0.41597 0.47283 0.91999 0.0
C1011 C 0.3813 0.46059 0.02352 0.0
N1012 N 0.40608 0.4677 0.76096 0.0
N1013 N 0.37725 0.45908 0.9479 0.0
H1014 H 0.39657 0.30099 0.0419 0.0
H1015 H 0.40153 0.2684 0.63213 0.0
H1016 H 0.38495 0.2599 1.0026 0.0
H1017 H 0.42497 0.3086 0.67419 0.0
H1018 H 0.39302 0.26535 0.76721 0.0
H1019 H 0.4051 0.30421 0.90689 0.0
C1020 C 0.39589 0.29263 1.00524 0.0
C1021 C 0.39 0.28014 0.03428 0.0
C1022 C 0.40009 0.27484 0.74694 0.0
C1023 C 0.39945 0.28379 0.87912 0.0
C1024 C 0.40482 0.2766 0.6697 0.0
C1025 C 0.41402 0.28877 0.64165 0.0
C1026 C 0.40441 0.28534 0.79669 0.0
C1027 C 0.41824 0.29901 0.6933 0.0
C1028 C 0.40067 0.29449 0.92798 0.0
C1029 C 0.389 0.26972 0.9833 0.0
N1030 N 0.41332 0.29707 0.76822 0.0
N1031 N 0.39366 0.27179 0.90845 0.0
H1032 H 0.60734 0.01676 0.50437 0.0
H1033 H 0.70028 0.04997 0.82726 0.0
H1034 H 0.67598 0.04293 0.45908 0.0
H1035 H 0.62554 0.02842 0.87363 0.0
H1036 H 0.69262 0.04666 0.6924 0.0
H1037 H 0.61462 0.02004 0.6401 0.0
C1038 C 0.62395 0.02319 0.52298 0.0
C1039 C 0.64103 0.02959 0.47021 0.0
C1040 C 0.67788 0.04266 0.73209 0.0
C1041 C 0.6495 0.03341 0.62543 0.0
C1042 C 0.6822 0.04459 0.80934 0.0
C1043 C 0.66351 0.03952 0.86244 0.0
C1044 C 0.65474 0.03556 0.7073 0.0
C1045 C 0.64069 0.0324 0.83526 0.0
C1046 C 0.62803 0.0251 0.60043 0.0
C1047 C 0.66208 0.03793 0.49752 0.0
N1048 N 0.63695 0.03064 0.75966 0.0
N1049 N 0.66577 0.03955 0.57316 0.0
H1050 H 0.62508 0.18924 0.82729 0.0
H1051 H 0.65176 0.24139 0.49805 0.0
H1052 H 0.63985 0.2301 0.86859 0.0
H1053 H 0.65007 0.20022 0.46143 0.0
H1054 H 0.646 0.23749 0.63306 0.0
H1055 H 0.63215 0.19313 0.69233 0.0
C1056 C 0.62966 0.19904 0.80798 0.0
C1057 C 0.63178 0.20937 0.85946 0.0
C1058 C 0.64695 0.22931 0.59547 0.0
C1059 C 0.64012 0.21389 0.70475 0.0
C1060 C 0.65039 0.23152 0.5181 0.0
C1061 C 0.65141 0.22112 0.46758 0.0
C1062 C 0.64435 0.2166 0.62295 0.0
C1063 C 0.64902 0.20855 0.49761 0.0
C1064 C 0.63389 0.20125 0.73089 0.0
C1065 C 0.63825 0.22185 0.83114 0.0
N1066 N 0.64554 0.20665 0.57317 0.0
N1067 N 0.64208 0.22376 0.7557 0.0
H1068 H 0.39834 0.94895 0.54668 0.0
H1069 H 0.39132 0.9813 0.13678 0.0
H1070 H 0.40638 0.99012 0.50752 0.0
H1071 H 0.36999 0.94091 0.17924 0.0
H1072 H 0.39979 0.98448 0.27182 0.0
H1073 H 0.39037 0.94558 0.41154 0.0
C1074 C 0.39835 0.95729 0.51002 0.0
C1075 C 0.40304 0.96984 0.53914 0.0
C1076 C 0.3932 0.97492 0.25163 0.0
C1077 C 0.39424 0.96603 0.38387 0.0
C1078 C 0.3885 0.97309 0.17444 0.0
C1079 C 0.37988 0.96082 0.14657 0.0
C1080 C 0.38945 0.9644 0.30146 0.0
C1081 C 0.37626 0.95056 0.19828 0.0
C1082 C 0.3939 0.95535 0.4327 0.0
C1083 C 0.40325 0.98025 0.48816 0.0
N1084 N 0.38113 0.95257 0.27315 0.0
N1085 N 0.39892 0.9781 0.41325 0.0
H1086 H 0.45406 0.79786 0.17541 0.0
H1087 H 0.35347 0.77061 0.49675 0.0
H1088 H 0.37521 0.78071 0.12836 0.0
H1089 H 0.42616 0.79371 0.54417 0.0
H1090 H 0.36174 0.77355 0.36131 0.0
H1091 H 0.4449 0.79576 0.3104 0.0
C1092 C 0.43478 0.7937 0.19311 0.0
C1093 C 0.41541 0.78947 0.13969 0.0
C1094 C 0.37582 0.77804 0.40131 0.0
C1095 C 0.40491 0.78691 0.29503 0.0
C1096 C 0.37114 0.77633 0.47859 0.0
C1097 C 0.38914 0.78191 0.53187 0.0
C1098 C 0.39882 0.78531 0.37687 0.0
C1099 C 0.4116 0.78935 0.50521 0.0
C1100 C 0.4296 0.79247 0.27046 0.0
C1101 C 0.39095 0.78396 0.1668 0.0
N1102 N 0.41588 0.79076 0.42961 0.0
N1103 N 0.38644 0.78283 0.24241 0.0
H1104 H 0.17966 0.59112 0.12798 0.0
H1105 H 0.11449 0.65844 0.11278 0.0
H1106 H 0.09526 0.59454 0.12493 0.0
H1107 H 0.19874 0.65506 0.12769 0.0
H1108 H 0.10741 0.6351 0.09686 0.0
H1109 H 0.18716 0.61434 0.10789 0.0
C1110 C 0.16268 0.5968 0.12275 0.0
C1111 C 0.13678 0.59099 0.12986 0.0
C1112 C 0.12748 0.63943 0.10291 0.0
C1113 C 0.14525 0.61758 0.10648 0.0
C1114 C 0.13154 0.65274 0.1122 0.0
C1115 C 0.15722 0.6586 0.12317 0.0
C1116 C 0.14925 0.63188 0.10491 0.0
C1117 C 0.17864 0.65087 0.12005 0.0
C1118 C 0.16699 0.61004 0.11098 0.0
C1119 C 0.11551 0.59869 0.12051 0.0
N1120 N 0.17415 0.63784 0.11224 0.0
N1121 N 0.12022 0.61166 0.1103 0.0
H1122 H 0.90918 0.40757 0.98029 0.0
H1123 H 0.87558 0.34383 0.73472 0.0
H1124 H 0.91813 0.4052 0.73833 0.0
H1125 H 0.88559 0.34213 0.97658 0.0
H1126 H 0.88615 0.36712 0.7389 0.0
H1127 H 0.89871 0.38403 0.98444 0.0
C1128 C 0.9097 0.40204 0.92846 0.0
C1129 C 0.91449 0.40828 0.85881 0.0
C1130 C 0.88584 0.36171 0.79132 0.0
C1131 C 0.90164 0.38164 0.86272 0.0
C1132 C 0.87948 0.34846 0.78897 0.0
C1133 C 0.87976 0.3411 0.85534 0.0
C1134 C 0.89261 0.36772 0.8606 0.0
C1135 C 0.88496 0.34752 0.92426 0.0
C1136 C 0.90337 0.38867 0.93069 0.0
C1137 C 0.91444 0.40074 0.79308 0.0
N1138 N 0.89144 0.3605 0.92514 0.0
N1139 N 0.9078 0.38786 0.79656 0.0
H1140 H 0.12383 0.09374 0.78483 0.0
H1141 H 0.15911 0.15722 0.53806 0.0
H1142 H 0.13382 0.09194 0.54302 0.0
H1143 H 0.16757 0.155 0.78028 0.0
H1144 H 0.14799 0.13374 0.53454 0.0
H1145 H 0.13482 0.117 0.7804 0.0
C1146 C 0.1278 0.09834 0.73053 0.0
C1147 C 0.12796 0.09096 0.66425 0.0
C1148 C 0.15267 0.13839 0.58822 0.0
C1149 C 0.1413 0.11753 0.65872 0.0
C1150 C 0.15938 0.15173 0.59012 0.0
C1151 C 0.16422 0.158 0.65962 0.0
C1152 C 0.15063 0.13142 0.65639 0.0
C1153 C 0.16383 0.15052 0.72562 0.0
C1154 C 0.13441 0.11158 0.72804 0.0
C1155 C 0.13327 0.09734 0.59527 0.0
N1156 N 0.15684 0.13766 0.72246 0.0
N1157 N 0.13999 0.1103 0.59427 0.0
H1158 H 0.91823 0.90607 0.2221 0.0
H1159 H 0.88455 0.84219 0.46737 0.0
H1160 H 0.90946 0.90733 0.46445 0.0
H1161 H 0.87799 0.84428 0.22458 0.0
H1162 H 0.89512 0.86569 0.4711 0.0
H1163 H 0.90797 0.88275 0.22527 0.0
C1164 C 0.91467 0.90135 0.27621 0.0
C1165 C 0.91467 0.90859 0.34305 0.0
C1166 C 0.89101 0.86101 0.4172 0.0
C1167 C 0.90217 0.88193 0.3472 0.0
C1168 C 0.88462 0.84765 0.41515 0.0
C1169 C 0.88043 0.84133 0.34551 0.0
C1170 C 0.89337 0.86798 0.34907 0.0
C1171 C 0.88124 0.84879 0.27937 0.0
C1172 C 0.9085 0.88807 0.27801 0.0
C1173 C 0.90989 0.90204 0.41176 0.0
N1174 N 0.88786 0.86168 0.28273 0.0
N1175 N 0.90357 0.88905 0.41209 0.0
H1176 H 0.66025 0.65825 0.53984 0.0
H1177 H 0.6213 0.59509 0.78425 0.0
H1178 H 0.67151 0.65524 0.78076 0.0
H1179 H 0.63513 0.59257 0.54433 0.0
H1180 H 0.63315 0.61828 0.77881 0.0
H1181 H 0.64794 0.63486 0.53493 0.0
C1182 C 0.66089 0.6526 0.59122 0.0
C1183 C 0.66683 0.65864 0.6609 0.0
C1184 C 0.63337 0.61271 0.72706 0.0
C1185 C 0.65184 0.63219 0.65615 0.0
C1186 C 0.62626 0.59952 0.73006 0.0
C1187 C 0.62732 0.59196 0.66472 0.0
C1188 C 0.64164 0.61843 0.6582 0.0
C1189 C 0.63389 0.59813 0.59582 0.0
C1190 C 0.65351 0.63932 0.58855 0.0
C1191 C 0.6669 0.65095 0.72603 0.0
N1192 N 0.64109 0.61105 0.59435 0.0
N1193 N 0.65917 0.63818 0.7222 0.0
H1194 H 0.44869 0.40567 0.39401 0.0
H1195 H 0.34437 0.3436 0.39711 0.0
H1196 H 0.36393 0.40751 0.40578 0.0
H1197 H 0.42913 0.34175 0.38397 0.0
H1198 H 0.35135 0.36695 0.41917 0.0
H1199 H 0.44237 0.38213 0.40944 0.0
C1200 C 0.42883 0.40112 0.40091 0.0
C1201 C 0.40678 0.40844 0.39692 0.0
C1202 C 0.36843 0.3614 0.41203 0.0
C1203 C 0.3993 0.38167 0.41406 0.0
C1204 C 0.3644 0.3481 0.39967 0.0
C1205 C 0.38615 0.34083 0.38686 0.0
C1206 C 0.39437 0.36742 0.41177 0.0
C1207 C 0.41176 0.34709 0.39134 0.0
C1208 C 0.42517 0.38771 0.4094 0.0
C1209 C 0.38142 0.40213 0.40659 0.0
N1210 N 0.41516 0.36002 0.40261 0.0
N1211 N 0.37834 0.38911 0.41383 0.0
H1212 H 0.66918 0.1559 0.28851 0.0
H1213 H 0.63384 0.0923 0.04251 0.0
H1214 H 0.65957 0.15749 0.04649 0.0
H1215 H 0.62646 0.09447 0.28504 0.0
H1216 H 0.64499 0.11577 0.03885 0.0
H1217 H 0.65838 0.13262 0.28466 0.0
C1218 C 0.66534 0.15125 0.2343 0.0
C1219 C 0.66524 0.15857 0.16777 0.0
C1220 C 0.64056 0.11111 0.09266 0.0
C1221 C 0.6521 0.13198 0.16289 0.0
C1222 C 0.63384 0.09778 0.09465 0.0
C1223 C 0.62927 0.09149 0.16424 0.0
C1224 C 0.64288 0.11808 0.1608 0.0
C1225 C 0.62999 0.09896 0.2303 0.0
C1226 C 0.65884 0.138 0.23213 0.0
C1227 C 0.66008 0.15213 0.09892 0.0
N1228 N 0.63696 0.11182 0.22702 0.0
N1229 N 0.65345 0.13916 0.09824 0.0
H1230 H 0.4313 0.8417 0.89526 0.0
H1231 H 0.36356 0.9084 0.89293 0.0
H1232 H 0.34674 0.84443 0.88626 0.0
H1233 H 0.44816 0.90568 0.88716 0.0
H1234 H 0.35708 0.88511 0.91146 0.0
H1235 H 0.4377 0.86502 0.91354 0.0
C1236 C 0.41404 0.84725 0.89764 0.0
C1237 C 0.38846 0.84122 0.8876 0.0
C1238 C 0.37709 0.88957 0.90679 0.0
C1239 C 0.39565 0.86791 0.90862 0.0
C1240 C 0.38081 0.90286 0.89591 0.0
C1241 C 0.40644 0.90889 0.88675 0.0
C1242 C 0.39915 0.88221 0.90831 0.0
C1243 C 0.42809 0.90136 0.89323 0.0
C1244 C 0.41772 0.86054 0.90829 0.0
C1245 C 0.36677 0.84875 0.89311 0.0
N1246 N 0.42395 0.88835 0.90261 0.0
N1247 N 0.37088 0.86177 0.90222 0.0
loop_
_geom_bond_atom_site_label_1
_geom_bond_atom_site_label_2
_geom_bond_distance
_geom_bond_site_symmetry_2
_ccdc_geom_bond_type
C0 C1 1.351 . S
C0 N3 1.368 1_556 S
C0 H5 0.931 1_556 S
C1 C0 1.351 . S
C1 N2 1.373 . S
C1 H29 0.930 . S
N2 C1 1.373 . S
N2 C4 1.340 . S
N3 C0 1.368 1_554 S
N3 C4 1.321 1_554 S
N3 Co6 2.135 . S
C4 N2 1.340 . S
C4 N3 1.321 1_556 S
C4 H28 0.930 . S
H5 C0 0.931 1_554 S
Co6 N3 2.135 . S
Co6 N9 2.121 . S
Co6 O14 2.055 . S
Co6 O17 2.039 . S
Co6 N20 2.140 . S
C7 O8 1.227 . S
C7 O17 1.265 . S
O8 C7 1.227 . S
N9 Co6 2.121 . S
N9 C11 1.375 . S
N9 C12 1.313 . S
C10 C11 1.338 . S
C10 N13 1.377 . S
C10 H30 0.930 . S
C11 N9 1.375 . S
C11 C10 1.338 . S
C11 H15 0.931 . S
C12 N9 1.313 . S
C12 N13 1.344 . S
C12 H16 0.930 . S
N13 C10 1.377 . S
N13 C12 1.344 . S
O14 Co6 2.055 . S
O14 C18 1.253 . S
H15 C11 0.931 . S
H16 C12 0.930 . S
O17 Co6 2.039 . S
O17 C7 1.265 . S
C18 O14 1.253 . S
C18 O19 1.227 . S
O19 C18 1.227 . S
N20 Co6 2.140 . S
N20 C23 1.346 . S
N20 C24 1.345 . S
C21 C22 1.387 . S
C21 C25 1.391 . S
C22 C21 1.387 . S
C22 C23 1.369 . S
C22 H31 0.929 . S
C23 N20 1.346 . S
C23 C22 1.369 . S
C23 H26 0.928 . S
C24 N20 1.345 . S
C24 C25 1.371 . S
C24 H27 0.931 . S
C25 C21 1.391 . S
C25 C24 1.371 . S
C25 H32 0.930 . S
H26 C23 0.928 . S
H27 C24 0.931 . S
H28 C4 0.930 . S
H29 C1 0.930 . S
H30 C10 0.930 . S
H31 C22 0.929 . S
H32 C25 0.930 . S
C33 C34 1.351 . S
C33 N36 1.368 1_556 S
C33 H38 0.931 1_556 S
C34 C33 1.351 . S
C34 N35 1.373 . S
C34 H62 0.930 . S
N35 C34 1.373 . S
N35 C37 1.340 . S
N36 C33 1.368 1_554 S
N36 C37 1.321 1_554 S
N36 Co39 2.135 . S
C37 N35 1.340 . S
C37 N36 1.321 1_556 S
C37 H61 0.930 . S
H38 C33 0.931 1_554 S
Co39 N36 2.135 . S
Co39 N42 2.121 . S
Co39 O47 2.055 . S
Co39 O50 2.039 . S
Co39 N53 2.140 . S
C40 O41 1.227 . S
C40 O50 1.265 . S
O41 C40 1.227 . S
N42 Co39 2.121 . S
N42 C44 1.375 . S
N42 C45 1.313 . S
C43 C44 1.338 . S
C43 N46 1.377 . S
C43 H63 0.930 . S
C44 N42 1.375 . S
C44 C43 1.338 . S
C44 H48 0.931 . S
C45 N42 1.313 . S
C45 N46 1.344 . S
C45 H49 0.930 . S
N46 C43 1.377 . S
N46 C45 1.344 . S
O47 Co39 2.055 . S
O47 C51 1.253 . S
H48 C44 0.931 . S
H49 C45 0.930 . S
O50 Co39 2.039 . S
O50 C40 1.265 . S
C51 O47 1.253 . S
C51 O52 1.227 . S
O52 C51 1.227 . S
N53 Co39 2.140 . S
N53 C56 1.346 . S
N53 C57 1.345 . S
C54 C55 1.387 . S
C54 C58 1.391 . S
C55 C54 1.387 . S
C55 C56 1.369 . S
C55 H64 0.929 . S
C56 N53 1.346 . S
C56 C55 1.369 . S
C56 H59 0.928 . S
C57 N53 1.345 . S
C57 C58 1.371 . S
C57 H60 0.931 . S
C58 C54 1.391 . S
C58 C57 1.371 . S
C58 H65 0.930 . S
H59 C56 0.928 . S
H60 C57 0.931 . S
H61 C37 0.930 . S
H62 C34 0.930 . S
H63 C43 0.930 . S
H64 C55 0.929 . S
H65 C58 0.930 . S
C66 C67 1.351 . S
C66 N69 1.368 1_554 S
C66 H71 0.931 1_554 S
C67 C66 1.351 . S
C67 N68 1.373 . S
C67 H95 0.930 . S
N68 C67 1.373 . S
N68 C70 1.340 . S
N69 C66 1.368 1_556 S
N69 C70 1.321 1_556 S
N69 Co72 2.135 . S
C70 N68 1.340 . S
C70 N69 1.321 1_554 S
C70 H94 0.930 . S
H71 C66 0.931 1_556 S
Co72 N69 2.135 . S
Co72 N75 2.121 . S
Co72 O80 2.055 . S
Co72 O83 2.039 . S
Co72 N86 2.140 . S
C73 O74 1.227 . S
C73 O83 1.265 . S
O74 C73 1.227 . S
N75 Co72 2.121 . S
N75 C77 1.375 . S
N75 C78 1.313 . S
C76 C77 1.338 . S
C76 N79 1.377 . S
C76 H96 0.930 . S
C77 N75 1.375 . S
C77 C76 1.338 . S
C77 H81 0.931 . S
C78 N75 1.313 . S
C78 N79 1.344 . S
C78 H82 0.930 . S
N79 C76 1.377 . S
N79 C78 1.344 . S
O80 Co72 2.055 . S
O80 C84 1.253 . S
H81 C77 0.931 . S
H82 C78 0.930 . S
O83 Co72 2.039 . S
O83 C73 1.265 . S
C84 O80 1.253 . S
C84 O85 1.227 . S
O85 C84 1.227 . S
N86 Co72 2.140 . S
N86 C89 1.346 . S
N86 C90 1.345 . S
C87 C88 1.387 . S
C87 C91 1.391 . S
C88 C87 1.387 . S
C88 C89 1.369 . S
C88 H97 0.929 . S
C89 N86 1.346 . S
C89 C88 1.369 . S
C89 H92 0.928 . S
C90 N86 1.345 . S
C90 C91 1.371 . S
C90 H93 0.931 . S
C91 C87 1.391 . S
C91 C90 1.371 . S
C91 H98 0.930 . S
H92 C89 0.928 . S
H93 C90 0.931 . S
H94 C70 0.930 . S
H95 C67 0.930 . S
H96 C76 0.930 . S
H97 C88 0.929 . S
H98 C91 0.930 . S
C99 C100 1.351 . S
C99 N102 1.368 1_554 S
C99 H104 0.931 1_554 S
C100 C99 1.351 . S
C100 N101 1.373 . S
C100 H128 0.930 . S
N101 C100 1.373 . S
N101 C103 1.340 . S
N102 C99 1.368 1_556 S
N102 C103 1.321 1_556 S
N102 Co105 2.135 . S
C103 N101 1.340 . S
C103 N102 1.321 1_554 S
C103 H127 0.930 . S
H104 C99 0.931 1_556 S
Co105 N102 2.135 . S
Co105 N108 2.121 . S
Co105 O113 2.055 . S
Co105 O116 2.039 . S
Co105 N119 2.140 . S
C106 O107 1.227 . S
C106 O116 1.265 . S
O107 C106 1.227 . S
N108 Co105 2.121 . S
N108 C110 1.375 . S
N108 C111 1.313 . S
C109 C110 1.338 . S
C109 N112 1.377 . S
C109 H129 0.930 . S
C110 N108 1.375 . S
C110 C109 1.338 . S
C110 H114 0.931 . S
C111 N108 1.313 . S
C111 N112 1.344 . S
C111 H115 0.930 . S
N112 C109 1.377 . S
N112 C111 1.344 . S
O113 Co105 2.055 . S
O113 C117 1.253 . S
H114 C110 0.931 . S
H115 C111 0.930 . S
O116 Co105 2.039 . S
O116 C106 1.265 . S
C117 O113 1.253 . S
C117 O118 1.227 . S
O118 C117 1.227 . S
N119 Co105 2.140 . S
N119 C122 1.346 . S
N119 C123 1.345 . S
C120 C121 1.387 . S
C120 C124 1.391 . S
C121 C120 1.387 . S
C121 C122 1.369 . S
C121 H130 0.929 . S
C122 N119 1.346 . S
C122 C121 1.369 . S
C122 H125 0.928 . S
C123 N119 1.345 . S
C123 C124 1.371 . S
C123 H126 0.931 . S
C124 C120 1.391 . S
C124 C123 1.371 . S
C124 H131 0.930 . S
H125 C122 0.928 . S
H126 C123 0.931 . S
H127 C103 0.930 . S
H128 C100 0.930 . S
H129 C109 0.930 . S
H130 C121 0.929 . S
H131 C124 0.930 . S
C132 C133 1.351 . S
C132 N135 1.368 . S
C132 H137 0.931 . S
C133 C132 1.351 . S
C133 N134 1.373 . S
C133 H161 0.930 . S
N134 C133 1.373 . S
N134 C136 1.340 . S
N135 C132 1.368 . S
N135 C136 1.321 . S
N135 Co138 2.135 . S
C136 N134 1.340 . S
C136 N135 1.321 . S
C136 H160 0.930 . S
H137 C132 0.931 . S
Co138 N135 2.135 . S
Co138 N141 2.121 . S
Co138 O146 2.055 . S
Co138 O149 2.039 . S
Co138 N152 2.140 . S
C139 O140 1.227 . S
C139 O149 1.265 . S
O140 C139 1.227 . S
N141 Co138 2.121 . S
N141 C143 1.375 . S
N141 C144 1.313 . S
C142 C143 1.338 . S
C142 N145 1.377 . S
C142 H162 0.930 . S
C143 N141 1.375 . S
C143 C142 1.338 . S
C143 H147 0.931 . S
C144 N141 1.313 . S
C144 N145 1.344 . S
C144 H148 0.930 . S
N145 C142 1.377 . S
N145 C144 1.344 . S
O146 Co138 2.055 . S
O146 C150 1.253 . S
H147 C143 0.931 . S
H148 C144 0.930 . S
O149 Co138 2.039 . S
O149 C139 1.265 . S
C150 O146 1.253 . S
C150 O151 1.227 . S
O151 C150 1.227 . S
N152 Co138 2.140 . S
N152 C155 1.346 . S
N152 C156 1.345 . S
C153 C154 1.387 . S
C153 C157 1.391 . S
C154 C153 1.387 . S
C154 C155 1.369 . S
C154 H163 0.929 . S
C155 N152 1.346 . S
C155 C154 1.369 . S
C155 H158 0.928 . S
C156 N152 1.345 . S
C156 C157 1.371 . S
C156 H159 0.931 . S
C157 C153 1.391 . S
C157 C156 1.371 . S
C157 H164 0.930 . S
H158 C155 0.928 . S
H159 C156 0.931 . S
H160 C136 0.930 . S
H161 C133 0.930 . S
H162 C142 0.930 . S
H163 C154 0.929 . S
H164 C157 0.930 . S
C165 C166 1.351 . S
C165 N168 1.368 . S
C165 H170 0.931 . S
C166 C165 1.351 . S
C166 N167 1.373 . S
C166 H194 0.930 . S
N167 C166 1.373 . S
N167 C169 1.340 . S
N168 C165 1.368 . S
N168 C169 1.321 . S
N168 Co171 2.135 . S
C169 N167 1.340 . S
C169 N168 1.321 . S
C169 H193 0.930 . S
H170 C165 0.931 . S
Co171 N168 2.135 . S
Co171 N174 2.121 . S
Co171 O179 2.055 . S
Co171 O182 2.039 . S
Co171 N185 2.140 . S
C172 O173 1.227 . S
C172 O182 1.265 . S
O173 C172 1.227 . S
N174 Co171 2.121 . S
N174 C176 1.375 . S
N174 C177 1.313 . S
C175 C176 1.338 . S
C175 N178 1.377 . S
C175 H195 0.930 . S
C176 N174 1.375 . S
C176 C175 1.338 . S
C176 H180 0.931 . S
C177 N174 1.313 . S
C177 N178 1.344 . S
C177 H181 0.930 . S
N178 C175 1.377 . S
N178 C177 1.344 . S
O179 Co171 2.055 . S
O179 C183 1.253 . S
H180 C176 0.931 . S
H181 C177 0.930 . S
O182 Co171 2.039 . S
O182 C172 1.265 . S
C183 O179 1.253 . S
C183 O184 1.227 . S
O184 C183 1.227 . S
N185 Co171 2.140 . S
N185 C188 1.346 . S
N185 C189 1.345 . S
C186 C187 1.387 . S
C186 C190 1.391 . S
C187 C186 1.387 . S
C187 C188 1.369 . S
C187 H196 0.929 . S
C188 N185 1.346 . S
C188 C187 1.369 . S
C188 H191 0.928 . S
C189 N185 1.345 . S
C189 C190 1.371 . S
C189 H192 0.931 . S
C190 C186 1.391 . S
C190 C189 1.371 . S
C190 H197 0.930 . S
H191 C188 0.928 . S
H192 C189 0.931 . S
H193 C169 0.930 . S
H194 C166 0.930 . S
H195 C175 0.930 . S
H196 C187 0.929 . S
H197 C190 0.930 . S
C198 C199 1.351 . S
C198 N201 1.368 . S
C198 H203 0.931 . S
C199 C198 1.351 . S
C199 N200 1.373 . S
C199 H227 0.930 . S
N200 C199 1.373 . S
N200 C202 1.340 . S
N201 C198 1.368 . S
N201 C202 1.321 . S
N201 Co204 2.135 . S
C202 N200 1.340 . S
C202 N201 1.321 . S
C202 H226 0.930 . S
H203 C198 0.931 . S
Co204 N201 2.135 . S
Co204 N207 2.121 . S
Co204 O212 2.055 . S
Co204 O215 2.039 . S
Co204 N218 2.140 . S
C205 O206 1.227 . S
C205 O215 1.265 . S
O206 C205 1.227 . S
N207 Co204 2.121 . S
N207 C209 1.375 . S
N207 C210 1.313 . S
C208 C209 1.338 . S
C208 N211 1.377 . S
C208 H228 0.930 . S
C209 N207 1.375 . S
C209 C208 1.338 . S
C209 H213 0.931 . S
C210 N207 1.313 . S
C210 N211 1.344 . S
C210 H214 0.930 . S
N211 C208 1.377 . S
N211 C210 1.344 . S
O212 Co204 2.055 . S
O212 C216 1.253 . S
H213 C209 0.931 . S
H214 C210 0.930 . S
O215 Co204 2.039 . S
O215 C205 1.265 . S
C216 O212 1.253 . S
C216 O217 1.227 . S
O217 C216 1.227 . S
N218 Co204 2.140 . S
N218 C221 1.346 . S
N218 C222 1.345 . S
C219 C220 1.387 . S
C219 C223 1.391 . S
C220 C219 1.387 . S
C220 C221 1.369 . S
C220 H229 0.929 . S
C221 N218 1.346 . S
C221 C220 1.369 . S
C221 H224 0.928 . S
C222 N218 1.345 . S
C222 C223 1.371 . S
C222 H225 0.931 . S
C223 C219 1.391 . S
C223 C222 1.371 . S
C223 H230 0.930 . S
H224 C221 0.928 . S
H225 C222 0.931 . S
H226 C202 0.930 . S
H227 C199 0.930 . S
H228 C208 0.930 . S
H229 C220 0.929 . S
H230 C223 0.930 . S
C231 C232 1.351 . S
C231 N234 1.368 . S
C231 H236 0.931 . S
C232 C231 1.351 . S
C232 N233 1.373 . S
C232 H260 0.930 . S
N233 C232 1.373 . S
N233 C235 1.340 . S
N234 C231 1.368 . S
N234 C235 1.321 . S
N234 Co237 2.135 . S
C235 N233 1.340 . S
C235 N234 1.321 . S
C235 H259 0.930 . S
H236 C231 0.931 . S
Co237 N234 2.135 . S
Co237 N240 2.121 . S
Co237 O245 2.055 . S
Co237 O248 2.039 . S
Co237 N251 2.140 . S
C238 O239 1.227 . S
C238 O248 1.265 . S
O239 C238 1.227 . S
N240 Co237 2.121 . S
N240 C242 1.375 . S
N240 C243 1.313 . S
C241 C242 1.338 . S
C241 N244 1.377 . S
C241 H261 0.930 . S
C242 N240 1.375 . S
C242 C241 1.338 . S
C242 H246 0.931 . S
C243 N240 1.313 . S
C243 N244 1.344 . S
C243 H247 0.930 . S
N244 C241 1.377 . S
N244 C243 1.344 . S
O245 Co237 2.055 . S
O245 C249 1.253 . S
H246 C242 0.931 . S
H247 C243 0.930 . S
O248 Co237 2.039 . S
O248 C238 1.265 . S
C249 O245 1.253 . S
C249 O250 1.227 . S
O250 C249 1.227 . S
N251 Co237 2.140 . S
N251 C254 1.346 . S
N251 C255 1.345 . S
C252 C253 1.387 . S
C252 C256 1.391 . S
C253 C252 1.387 . S
C253 C254 1.369 . S
C253 H262 0.929 . S
C254 N251 1.346 . S
C254 C253 1.369 . S
C254 H257 0.928 . S
C255 N251 1.345 . S
C255 C256 1.371 . S
C255 H258 0.931 . S
C256 C252 1.391 . S
C256 C255 1.371 . S
C256 H263 0.930 . S
H257 C254 0.928 . S
H258 C255 0.931 . S
H259 C235 0.930 . S
H260 C232 0.930 . S
H261 C241 0.930 . S
H262 C253 0.929 . S
H263 C256 0.930 . S
C264 C265 1.351 . S
C264 N267 1.368 . S
C264 H269 0.931 . S
C265 C264 1.351 . S
C265 N266 1.373 . S
C265 H293 0.930 . S
N266 C265 1.373 . S
N266 C268 1.340 . S
N267 C264 1.368 . S
N267 C268 1.321 . S
N267 Co270 2.135 . S
C268 N266 1.340 . S
C268 N267 1.321 . S
C268 H292 0.930 . S
H269 C264 0.931 . S
Co270 N267 2.135 . S
Co270 N273 2.121 . S
Co270 O278 2.055 . S
Co270 O281 2.039 . S
Co270 N284 2.140 . S
C271 O272 1.227 . S
C271 O281 1.265 . S
O272 C271 1.227 . S
N273 Co270 2.121 . S
N273 C275 1.375 . S
N273 C276 1.313 . S
C274 C275 1.338 . S
C274 N277 1.377 . S
C274 H294 0.930 . S
C275 N273 1.375 . S
C275 C274 1.338 . S
C275 H279 0.931 . S
C276 N273 1.313 . S
C276 N277 1.344 . S
C276 H280 0.930 . S
N277 C274 1.377 . S
N277 C276 1.344 . S
O278 Co270 2.055 . S
O278 C282 1.253 . S
H279 C275 0.931 . S
H280 C276 0.930 . S
O281 Co270 2.039 . S
O281 C271 1.265 . S
C282 O278 1.253 . S
C282 O283 1.227 . S
O283 C282 1.227 . S
N284 Co270 2.140 . S
N284 C287 1.346 . S
N284 C288 1.345 . S
C285 C286 1.387 . S
C285 C289 1.391 . S
C286 C285 1.387 . S
C286 C287 1.369 . S
C286 H295 0.929 . S
C287 N284 1.346 . S
C287 C286 1.369 . S
C287 H290 0.928 . S
C288 N284 1.345 . S
C288 C289 1.371 . S
C288 H291 0.931 . S
C289 C285 1.391 . S
C289 C288 1.371 . S
C289 H296 0.930 . S
H290 C287 0.928 . S
H291 C288 0.931 . S
H292 C268 0.930 . S
H293 C265 0.930 . S
H294 C274 0.930 . S
H295 C286 0.929 . S
H296 C289 0.930 . S
C297 C298 1.351 . S
C297 N300 1.368 . S
C297 H302 0.931 . S
C298 C297 1.351 . S
C298 N299 1.373 . S
C298 H326 0.930 . S
N299 C298 1.373 . S
N299 C301 1.340 . S
N300 C297 1.368 . S
N300 C301 1.321 . S
N300 Co303 2.135 . S
C301 N299 1.340 . S
C301 N300 1.321 . S
C301 H325 0.930 . S
H302 C297 0.931 . S
Co303 N300 2.135 . S
Co303 N306 2.121 . S
Co303 O311 2.055 . S
Co303 O314 2.039 . S
Co303 N317 2.140 . S
C304 O305 1.227 . S
C304 O314 1.265 . S
O305 C304 1.227 . S
N306 Co303 2.121 . S
N306 C308 1.375 . S
N306 C309 1.313 . S
C307 C308 1.338 . S
C307 N310 1.377 . S
C307 H327 0.930 . S
C308 N306 1.375 . S
C308 C307 1.338 . S
C308 H312 0.931 . S
C309 N306 1.313 . S
C309 N310 1.344 . S
C309 H313 0.930 . S
N310 C307 1.377 . S
N310 C309 1.344 . S
O311 Co303 2.055 . S
O311 C315 1.253 . S
H312 C308 0.931 . S
H313 C309 0.930 . S
O314 Co303 2.039 . S
O314 C304 1.265 . S
C315 O311 1.253 . S
C315 O316 1.227 . S
O316 C315 1.227 . S
N317 Co303 2.140 . S
N317 C320 1.346 . S
N317 C321 1.345 . S
C318 C319 1.387 . S
C318 C322 1.391 . S
C319 C318 1.387 . S
C319 C320 1.369 . S
C319 H328 0.929 . S
C320 N317 1.346 . S
C320 C319 1.369 . S
C320 H323 0.928 . S
C321 N317 1.345 . S
C321 C322 1.371 . S
C321 H324 0.931 . S
C322 C318 1.391 . S
C322 C321 1.371 . S
C322 H329 0.930 . S
H323 C320 0.928 . S
H324 C321 0.931 . S
H325 C301 0.930 . S
H326 C298 0.930 . S
H327 C307 0.930 . S
H328 C319 0.929 . S
H329 C322 0.930 . S
C330 C331 1.351 . S
C330 N333 1.368 . S
C330 H335 0.931 . S
C331 C330 1.351 . S
C331 N332 1.373 . S
C331 H359 0.930 . S
N332 C331 1.373 . S
N332 C334 1.340 . S
N333 C330 1.368 . S
N333 C334 1.321 . S
N333 Co336 2.135 . S
C334 N332 1.340 . S
C334 N333 1.321 . S
C334 H358 0.930 . S
H335 C330 0.931 . S
Co336 N333 2.135 . S
Co336 N339 2.121 . S
Co336 O344 2.055 . S
Co336 O347 2.039 . S
Co336 N350 2.140 . S
C337 O338 1.227 . S
C337 O347 1.265 . S
O338 C337 1.227 . S
N339 Co336 2.121 . S
N339 C341 1.375 . S
N339 C342 1.313 . S
C340 C341 1.338 . S
C340 N343 1.377 . S
C340 H360 0.930 . S
C341 N339 1.375 . S
C341 C340 1.338 . S
C341 H345 0.931 . S
C342 N339 1.313 . S
C342 N343 1.344 . S
C342 H346 0.930 . S
N343 C340 1.377 . S
N343 C342 1.344 . S
O344 Co336 2.055 . S
O344 C348 1.253 . S
H345 C341 0.931 . S
H346 C342 0.930 . S
O347 Co336 2.039 . S
O347 C337 1.265 . S
C348 O344 1.253 . S
C348 O349 1.227 . S
O349 C348 1.227 . S
N350 Co336 2.140 . S
N350 C353 1.346 . S
N350 C354 1.345 . S
C351 C352 1.387 . S
C351 C355 1.391 . S
C352 C351 1.387 . S
C352 C353 1.369 . S
C352 H361 0.929 . S
C353 N350 1.346 . S
C353 C352 1.369 . S
C353 H356 0.928 . S
C354 N350 1.345 . S
C354 C355 1.371 . S
C354 H357 0.931 . S
C355 C351 1.391 . S
C355 C354 1.371 . S
C355 H362 0.930 . S
H356 C353 0.928 . S
H357 C354 0.931 . S
H358 C334 0.930 . S
H359 C331 0.930 . S
H360 C340 0.930 . S
H361 C352 0.929 . S
H362 C355 0.930 . S
C363 C364 1.351 . S
C363 N366 1.368 . S
C363 H368 0.931 . S
C364 C363 1.351 . S
C364 N365 1.373 . S
C364 H392 0.930 . S
N365 C364 1.373 . S
N365 C367 1.340 . S
N366 C363 1.368 . S
N366 C367 1.321 . S
N366 Co369 2.135 . S
C367 N365 1.340 . S
C367 N366 1.321 . S
C367 H391 0.930 . S
H368 C363 0.931 . S
Co369 N366 2.135 . S
Co369 N372 2.121 . S
Co369 O377 2.055 . S
Co369 O380 2.039 . S
Co369 N383 2.140 . S
C370 O371 1.227 . S
C370 O380 1.265 . S
O371 C370 1.227 . S
N372 Co369 2.121 . S
N372 C374 1.375 . S
N372 C375 1.313 . S
C373 C374 1.338 . S
C373 N376 1.377 . S
C373 H393 0.930 . S
C374 N372 1.375 . S
C374 C373 1.338 . S
C374 H378 0.931 . S
C375 N372 1.313 . S
C375 N376 1.344 . S
C375 H379 0.930 . S
N376 C373 1.377 . S
N376 C375 1.344 . S
O377 Co369 2.055 . S
O377 C381 1.253 . S
H378 C374 0.931 . S
H379 C375 0.930 . S
O380 Co369 2.039 . S
O380 C370 1.265 . S
C381 O377 1.253 . S
C381 O382 1.227 . S
O382 C381 1.227 . S
N383 Co369 2.140 . S
N383 C386 1.346 . S
N383 C387 1.345 . S
C384 C385 1.387 . S
C384 C388 1.391 . S
C385 C384 1.387 . S
C385 C386 1.369 . S
C385 H394 0.929 . S
C386 N383 1.346 . S
C386 C385 1.369 . S
C386 H389 0.928 . S
C387 N383 1.345 . S
C387 C388 1.371 . S
C387 H390 0.931 . S
C388 C384 1.391 . S
C388 C387 1.371 . S
C388 H395 0.930 . S
H389 C386 0.928 . S
H390 C387 0.931 . S
H391 C367 0.930 . S
H392 C364 0.930 . S
H393 C373 0.930 . S
H394 C385 0.929 . S
H395 C388 0.930 . S
C396 C397 1.351 . S
C396 N399 1.368 1_556 S
C396 H401 0.931 1_556 S
C397 C396 1.351 . S
C397 N398 1.373 . S
C397 H425 0.930 . S
N398 C397 1.373 . S
N398 C400 1.340 . S
N399 C396 1.368 1_554 S
N399 C400 1.321 1_554 S
N399 Co402 2.135 . S
C400 N398 1.340 . S
C400 N399 1.321 1_556 S
C400 H424 0.930 . S
H401 C396 0.931 1_554 S
Co402 N399 2.135 . S
Co402 N405 2.121 . S
Co402 O410 2.055 . S
Co402 O413 2.039 . S
Co402 N416 2.140 . S
C403 O404 1.227 . S
C403 O413 1.265 . S
O404 C403 1.227 . S
N405 Co402 2.121 . S
N405 C407 1.375 . S
N405 C408 1.313 . S
C406 C407 1.338 . S
C406 N409 1.377 . S
C406 H426 0.930 . S
C407 N405 1.375 . S
C407 C406 1.338 . S
C407 H411 0.931 . S
C408 N405 1.313 . S
C408 N409 1.344 . S
C408 H412 0.930 . S
N409 C406 1.377 . S
N409 C408 1.344 . S
O410 Co402 2.055 . S
O410 C414 1.253 . S
H411 C407 0.931 . S
H412 C408 0.930 . S
O413 Co402 2.039 . S
O413 C403 1.265 . S
C414 O410 1.253 . S
C414 O415 1.227 . S
O415 C414 1.227 . S
N416 Co402 2.140 . S
N416 C419 1.346 . S
N416 C420 1.345 . S
C417 C418 1.387 . S
C417 C421 1.391 . S
C418 C417 1.387 . S
C418 C419 1.369 . S
C418 H427 0.929 . S
C419 N416 1.346 . S
C419 C418 1.369 . S
C419 H422 0.928 . S
C420 N416 1.345 . S
C420 C421 1.371 . S
C420 H423 0.931 . S
C421 C417 1.391 . S
C421 C420 1.371 . S
C421 H428 0.930 . S
H422 C419 0.928 . S
H423 C420 0.931 . S
H424 C400 0.930 . S
H425 C397 0.930 . S
H426 C406 0.930 . S
H427 C418 0.929 . S
H428 C421 0.930 . S
C429 C430 1.351 . S
C429 N432 1.368 1_556 S
C429 H434 0.931 1_556 S
C430 C429 1.351 . S
C430 N431 1.373 . S
C430 H458 0.930 . S
N431 C430 1.373 . S
N431 C433 1.340 . S
N432 C429 1.368 1_554 S
N432 C433 1.321 1_554 S
N432 Co435 2.135 . S
C433 N431 1.340 . S
C433 N432 1.321 1_556 S
C433 H457 0.930 . S
H434 C429 0.931 1_554 S
Co435 N432 2.135 . S
Co435 N438 2.121 . S
Co435 O443 2.055 . S
Co435 O446 2.039 . S
Co435 N449 2.140 . S
C436 O437 1.227 . S
C436 O446 1.265 . S
O437 C436 1.227 . S
N438 Co435 2.121 . S
N438 C440 1.375 . S
N438 C441 1.313 . S
C439 C440 1.338 . S
C439 N442 1.377 . S
C439 H459 0.930 . S
C440 N438 1.375 . S
C440 C439 1.338 . S
C440 H444 0.931 . S
C441 N438 1.313 . S
C441 N442 1.344 . S
C441 H445 0.930 . S
N442 C439 1.377 . S
N442 C441 1.344 . S
O443 Co435 2.055 . S
O443 C447 1.253 . S
H444 C440 0.931 . S
H445 C441 0.930 . S
O446 Co435 2.039 . S
O446 C436 1.265 . S
C447 O443 1.253 . S
C447 O448 1.227 . S
O448 C447 1.227 . S
N449 Co435 2.140 . S
N449 C452 1.346 . S
N449 C453 1.345 . S
C450 C451 1.387 . S
C450 C454 1.391 . S
C451 C450 1.387 . S
C451 C452 1.369 . S
C451 H460 0.929 . S
C452 N449 1.346 . S
C452 C451 1.369 . S
C452 H455 0.928 . S
C453 N449 1.345 . S
C453 C454 1.371 . S
C453 H456 0.931 . S
C454 C450 1.391 . S
C454 C453 1.371 . S
C454 H461 0.930 . S
H455 C452 0.928 . S
H456 C453 0.931 . S
H457 C433 0.930 . S
H458 C430 0.930 . S
H459 C439 0.930 . S
H460 C451 0.929 . S
H461 C454 0.930 . S
C462 C463 1.351 . S
C462 N465 1.368 1_554 S
C462 H467 0.931 1_554 S
C463 C462 1.351 . S
C463 N464 1.373 . S
C463 H491 0.930 . S
N464 C463 1.373 . S
N464 C466 1.340 . S
N465 C462 1.368 1_556 S
N465 C466 1.321 1_556 S
N465 Co468 2.135 . S
C466 N464 1.340 . S
C466 N465 1.321 1_554 S
C466 H490 0.930 . S
H467 C462 0.931 1_556 S
Co468 N465 2.135 . S
Co468 N471 2.121 . S
Co468 O476 2.055 . S
Co468 O479 2.039 . S
Co468 N482 2.140 . S
C469 O470 1.227 . S
C469 O479 1.265 . S
O470 C469 1.227 . S
N471 Co468 2.121 . S
N471 C473 1.375 . S
N471 C474 1.313 . S
C472 C473 1.338 . S
C472 N475 1.377 . S
C472 H492 0.930 . S
C473 N471 1.375 . S
C473 C472 1.338 . S
C473 H477 0.931 . S
C474 N471 1.313 . S
C474 N475 1.344 . S
C474 H478 0.930 . S
N475 C472 1.377 . S
N475 C474 1.344 . S
O476 Co468 2.055 . S
O476 C480 1.253 . S
H477 C473 0.931 . S
H478 C474 0.930 . S
O479 Co468 2.039 . S
O479 C469 1.265 . S
C480 O476 1.253 . S
C480 O481 1.227 . S
O481 C480 1.227 . S
N482 Co468 2.140 . S
N482 C485 1.346 . S
N482 C486 1.345 . S
C483 C484 1.387 . S
C483 C487 1.391 . S
C484 C483 1.387 . S
C484 C485 1.369 . S
C484 H493 0.929 . S
C485 N482 1.346 . S
C485 C484 1.369 . S
C485 H488 0.928 . S
C486 N482 1.345 . S
C486 C487 1.371 . S
C486 H489 0.931 . S
C487 C483 1.391 . S
C487 C486 1.371 . S
C487 H494 0.930 . S
H488 C485 0.928 . S
H489 C486 0.931 . S
H490 C466 0.930 . S
H491 C463 0.930 . S
H492 C472 0.930 . S
H493 C484 0.929 . S
H494 C487 0.930 . S
C495 C496 1.351 . S
C495 N498 1.368 1_554 S
C495 H500 0.931 1_554 S
C496 C495 1.351 . S
C496 N497 1.373 . S
C496 H524 0.930 . S
N497 C496 1.373 . S
N497 C499 1.340 . S
N498 C495 1.368 1_556 S
N498 C499 1.321 1_556 S
N498 Co501 2.135 . S
C499 N497 1.340 . S
C499 N498 1.321 1_554 S
C499 H523 0.930 . S
H500 C495 0.931 1_556 S
Co501 N498 2.135 . S
Co501 N504 2.121 . S
Co501 O509 2.055 . S
Co501 O512 2.039 . S
Co501 N515 2.140 . S
C502 O503 1.227 . S
C502 O512 1.265 . S
O503 C502 1.227 . S
N504 Co501 2.121 . S
N504 C506 1.375 . S
N504 C507 1.313 . S
C505 C506 1.338 . S
C505 N508 1.377 . S
C505 H525 0.930 . S
C506 N504 1.375 . S
C506 C505 1.338 . S
C506 H510 0.931 . S
C507 N504 1.313 . S
C507 N508 1.344 . S
C507 H511 0.930 . S
N508 C505 1.377 . S
N508 C507 1.344 . S
O509 Co501 2.055 . S
O509 C513 1.253 . S
H510 C506 0.931 . S
H511 C507 0.930 . S
O512 Co501 2.039 . S
O512 C502 1.265 . S
C513 O509 1.253 . S
C513 O514 1.227 . S
O514 C513 1.227 . S
N515 Co501 2.140 . S
N515 C518 1.346 . S
N515 C519 1.345 . S
C516 C517 1.387 . S
C516 C520 1.391 . S
C517 C516 1.387 . S
C517 C518 1.369 . S
C517 H526 0.929 . S
C518 N515 1.346 . S
C518 C517 1.369 . S
C518 H521 0.928 . S
C519 N515 1.345 . S
C519 C520 1.371 . S
C519 H522 0.931 . S
C520 C516 1.391 . S
C520 C519 1.371 . S
C520 H527 0.930 . S
H521 C518 0.928 . S
H522 C519 0.931 . S
H523 C499 0.930 . S
H524 C496 0.930 . S
H525 C505 0.930 . S
H526 C517 0.929 . S
H527 C520 0.930 . S
H528 C534 0.930 . S
H529 C538 0.930 . S
H530 C543 0.929 . S
H531 C541 0.929 . S
H532 C536 0.929 . S
H533 C542 0.929 . S
C534 H528 0.930 . S
C534 C535 1.367 . S
C534 C542 1.378 . S
C535 C534 1.367 . S
C535 C543 1.433 . S
C536 H532 0.929 . S
C536 C538 1.378 . S
C536 C540 1.350 . S
C537 C540 1.463 . S
C537 C542 1.350 . S
C537 N545 1.427 . S
C538 H529 0.930 . S
C538 C536 1.378 . S
C538 C539 1.367 . S
C539 C538 1.367 . S
C539 C541 1.433 . S
C540 C536 1.350 . S
C540 C537 1.463 . S
C540 N544 1.427 . S
C541 H531 0.929 . S
C541 C539 1.433 . S
C541 N544 1.384 . S
C542 H533 0.929 . S
C542 C534 1.378 . S
C542 C537 1.350 . S
C543 H530 0.929 . S
C543 C535 1.433 . S
C543 N545 1.384 . S
N544 C540 1.427 . S
N544 C541 1.384 . S
N545 C537 1.427 . S
N545 C543 1.384 . S
H546 C552 0.930 . S
H547 C556 0.930 . S
H548 C561 0.929 . S
H549 C559 0.929 . S
H550 C554 0.929 . S
H551 C560 0.929 . S
C552 H546 0.930 . S
C552 C553 1.367 . S
C552 C560 1.378 . S
C553 C552 1.367 . S
C553 C561 1.433 . S
C554 H550 0.929 . S
C554 C556 1.378 . S
C554 C558 1.350 . S
C555 C558 1.463 1_455 S
C555 C560 1.350 . S
C555 N563 1.427 . S
C556 H547 0.930 . S
C556 C554 1.378 . S
C556 C557 1.367 . S
C557 C556 1.367 . S
C557 C559 1.433 . S
C558 C554 1.350 . S
C558 C555 1.463 1_655 S
C558 N562 1.427 . S
C559 H549 0.929 . S
C559 C557 1.433 . S
C559 N562 1.384 . S
C560 H551 0.929 . S
C560 C552 1.378 . S
C560 C555 1.350 . S
C561 H548 0.929 . S
C561 C553 1.433 . S
C561 N563 1.384 . S
N562 C558 1.427 . S
N562 C559 1.384 . S
N563 C555 1.427 . S
N563 C561 1.384 . S
H564 C570 0.930 . S
H565 C574 0.930 . S
H566 C579 0.929 . S
H567 C577 0.929 . S
H568 C572 0.929 . S
H569 C578 0.929 . S
C570 H564 0.930 . S
C570 C571 1.367 . S
C570 C578 1.378 . S
C571 C570 1.367 . S
C571 C579 1.433 1_556 S
C572 H568 0.929 . S
C572 C574 1.378 . S
C572 C576 1.350 . S
C573 C576 1.463 1_556 S
C573 C578 1.350 . S
C573 N581 1.427 1_556 S
C574 H565 0.930 . S
C574 C572 1.378 . S
C574 C575 1.367 . S
C575 C574 1.367 . S
C575 C577 1.433 1_554 S
C576 C572 1.350 . S
C576 C573 1.463 1_554 S
C576 N580 1.427 1_554 S
C577 H567 0.929 . S
C577 C575 1.433 1_556 S
C577 N580 1.384 . S
C578 H569 0.929 . S
C578 C570 1.378 . S
C578 C573 1.350 . S
C579 H566 0.929 . S
C579 C571 1.433 1_554 S
C579 N581 1.384 . S
N580 C576 1.427 1_556 S
N580 C577 1.384 . S
N581 C573 1.427 1_554 S
N581 C579 1.384 . S
H582 C588 0.930 . S
H583 C592 0.930 . S
H584 C597 0.929 1_554 S
H585 C595 0.929 1_556 S
H586 C590 0.929 . S
H587 C596 0.929 . S
C588 H582 0.930 . S
C588 C589 1.367 . S
C588 C596 1.378 . S
C589 C588 1.367 . S
C589 C597 1.433 . S
C590 H586 0.929 . S
C590 C592 1.378 . S
C590 C594 1.350 . S
C591 C594 1.463 1_656 S
C591 C596 1.350 . S
C591 N599 1.427 1_556 S
C592 H583 0.930 . S
C592 C590 1.378 . S
C592 C593 1.367 . S
C593 C592 1.367 . S
C593 C595 1.433 . S
C594 C590 1.350 . S
C594 C591 1.463 1_454 S
C594 N598 1.427 1_554 S
C595 H585 0.929 1_554 S
C595 C593 1.433 . S
C595 N598 1.384 1_554 S
C596 H587 0.929 . S
C596 C588 1.378 . S
C596 C591 1.350 . S
C597 H584 0.929 1_556 S
C597 C589 1.433 . S
C597 N599 1.384 1_556 S
N598 C594 1.427 1_556 S
N598 C595 1.384 1_556 S
N599 C591 1.427 1_554 S
N599 C597 1.384 1_554 S
H600 C606 0.930 . S
H601 C610 0.930 . S
H602 C615 0.929 . S
H603 C613 0.929 . S
H604 C608 0.929 . S
H605 C614 0.929 . S
C606 H600 0.930 . S
C606 C607 1.367 . S
C606 C614 1.378 . S
C607 C606 1.367 . S
C607 C615 1.433 . S
C608 H604 0.929 . S
C608 C610 1.378 . S
C608 C612 1.350 . S
C609 C612 1.463 . S
C609 C614 1.350 . S
C609 N617 1.427 . S
C610 H601 0.930 . S
C610 C608 1.378 . S
C610 C611 1.367 . S
C611 C610 1.367 . S
C611 C613 1.433 . S
C612 C608 1.350 . S
C612 C609 1.463 . S
C612 N616 1.427 . S
C613 H603 0.929 . S
C613 C611 1.433 . S
C613 N616 1.384 . S
C614 H605 0.929 . S
C614 C606 1.378 . S
C614 C609 1.350 . S
C615 H602 0.929 . S
C615 C607 1.433 . S
C615 N617 1.384 . S
N616 C612 1.427 . S
N616 C613 1.384 . S
N617 C609 1.427 . S
N617 C615 1.384 . S
H618 C624 0.930 . S
H619 C628 0.930 . S
H620 C633 0.929 . S
H621 C631 0.929 . S
H622 C626 0.929 . S
H623 C632 0.929 . S
C624 H618 0.930 . S
C624 C625 1.367 . S
C624 C632 1.378 . S
C625 C624 1.367 . S
C625 C633 1.433 . S
C626 H622 0.929 . S
C626 C628 1.378 . S
C626 C630 1.350 . S
C627 C630 1.463 1_455 S
C627 C632 1.350 . S
C627 N635 1.427 . S
C628 H619 0.930 . S
C628 C626 1.378 . S
C628 C629 1.367 . S
C629 C628 1.367 . S
C629 C631 1.433 . S
C630 C626 1.350 . S
C630 C627 1.463 1_655 S
C630 N634 1.427 . S
C631 H621 0.929 . S
C631 C629 1.433 . S
C631 N634 1.384 . S
C632 H623 0.929 . S
C632 C624 1.378 . S
C632 C627 1.350 . S
C633 H620 0.929 . S
C633 C625 1.433 . S
C633 N635 1.384 . S
N634 C630 1.427 . S
N634 C631 1.384 . S
N635 C627 1.427 . S
N635 C633 1.384 . S
H636 C642 0.930 . S
H637 C646 0.930 . S
H638 C651 0.929 . S
H639 C649 0.929 . S
H640 C644 0.929 . S
H641 C650 0.929 . S
C642 H636 0.930 . S
C642 C643 1.367 1_556 S
C642 C650 1.378 . S
C643 C642 1.367 1_554 S
C643 C651 1.433 . S
C644 H640 0.929 . S
C644 C646 1.378 . S
C644 C648 1.350 1_554 S
C645 C648 1.463 1_554 S
C645 C650 1.350 1_554 S
C645 N653 1.427 . S
C646 H637 0.930 . S
C646 C644 1.378 . S
C646 C647 1.367 1_554 S
C647 C646 1.367 1_556 S
C647 C649 1.433 . S
C648 C644 1.350 1_556 S
C648 C645 1.463 1_556 S
C648 N652 1.427 . S
C649 H639 0.929 . S
C649 C647 1.433 . S
C649 N652 1.384 . S
C650 H641 0.929 . S
C650 C642 1.378 . S
C650 C645 1.350 1_556 S
C651 H638 0.929 . S
C651 C643 1.433 . S
C651 N653 1.384 . S
N652 C648 1.427 . S
N652 C649 1.384 . S
N653 C645 1.427 . S
N653 C651 1.384 . S
H654 C660 0.930 1_545 S
H655 C664 0.930 1_565 S
H656 C669 0.929 . S
H657 C667 0.929 . S
H658 C662 0.929 . S
H659 C668 0.929 . S
C660 H654 0.930 1_565 S
C660 C661 1.367 . S
C660 C668 1.378 1_565 S
C661 C660 1.367 . S
C661 C669 1.433 . S
C662 H658 0.929 . S
C662 C664 1.378 1_565 S
C662 C666 1.350 1_565 S
C663 C666 1.463 1_565 S
C663 C668 1.350 1_565 S
C663 N671 1.427 . S
C664 H655 0.930 1_545 S
C664 C662 1.378 1_545 S
C664 C665 1.367 . S
C665 C664 1.367 . S
C665 C667 1.433 . S
C666 C662 1.350 1_545 S
C666 C663 1.463 1_545 S
C666 N670 1.427 . S
C667 H657 0.929 . S
C667 C665 1.433 . S
C667 N670 1.384 . S
C668 H659 0.929 . S
C668 C660 1.378 1_545 S
C668 C663 1.350 1_545 S
C669 H656 0.929 . S
C669 C661 1.433 . S
C669 N671 1.384 . S
N670 C666 1.427 . S
N670 C667 1.384 . S
N671 C663 1.427 . S
N671 C669 1.384 . S
H672 C678 0.930 . S
H673 C682 0.930 . S
H674 C687 0.929 . S
H675 C685 0.929 . S
H676 C680 0.929 . S
H677 C686 0.929 . S
C678 H672 0.930 . S
C678 C679 1.367 . S
C678 C686 1.378 . S
C679 C678 1.367 . S
C679 C687 1.433 . S
C680 H676 0.929 . S
C680 C682 1.378 . S
C680 C684 1.350 . S
C681 C684 1.463 . S
C681 C686 1.350 . S
C681 N689 1.427 . S
C682 H673 0.930 . S
C682 C680 1.378 . S
C682 C683 1.367 . S
C683 C682 1.367 . S
C683 C685 1.433 . S
C684 C680 1.350 . S
C684 C681 1.463 . S
C684 N688 1.427 . S
C685 H675 0.929 . S
C685 C683 1.433 . S
C685 N688 1.384 . S
C686 H677 0.929 . S
C686 C678 1.378 . S
C686 C681 1.350 . S
C687 H674 0.929 . S
C687 C679 1.433 . S
C687 N689 1.384 . S
N688 C684 1.427 . S
N688 C685 1.384 . S
N689 C681 1.427 . S
N689 C687 1.384 . S
H690 C696 0.930 . S
H691 C700 0.930 . S
H692 C705 0.929 . S
H693 C703 0.929 . S
H694 C698 0.929 1_655 S
H695 C704 0.929 1_455 S
C696 H690 0.930 . S
C696 C697 1.367 . S
C696 C704 1.378 . S
C697 C696 1.367 . S
C697 C705 1.433 . S
C698 H694 0.929 1_455 S
C698 C700 1.378 . S
C698 C702 1.350 . S
C699 C702 1.463 1_665 S
C699 C704 1.350 . S
C699 N707 1.427 1_565 S
C700 H691 0.930 . S
C700 C698 1.378 . S
C700 C701 1.367 . S
C701 C700 1.367 . S
C701 C703 1.433 . S
C702 C698 1.350 . S
C702 C699 1.463 1_445 S
C702 N706 1.427 1_545 S
C703 H693 0.929 . S
C703 C701 1.433 . S
C703 N706 1.384 1_545 S
C704 H695 0.929 1_655 S
C704 C696 1.378 . S
C704 C699 1.350 . S
C705 H692 0.929 . S
C705 C697 1.433 . S
C705 N707 1.384 1_565 S
N706 C702 1.427 1_565 S
N706 C703 1.384 1_565 S
N707 C699 1.427 1_545 S
N707 C705 1.384 1_545 S
H708 C714 0.930 . S
H709 C718 0.930 . S
H710 C723 0.929 . S
H711 C721 0.929 . S
H712 C716 0.929 . S
H713 C722 0.929 . S
C714 H708 0.930 . S
C714 C715 1.367 . S
C714 C722 1.378 1_545 S
C715 C714 1.367 . S
C715 C723 1.433 . S
C716 H712 0.929 . S
C716 C718 1.378 1_545 S
C716 C720 1.350 1_545 S
C717 C720 1.463 1_545 S
C717 C722 1.350 1_545 S
C717 N725 1.427 . S
C718 H709 0.930 . S
C718 C716 1.378 1_565 S
C718 C719 1.367 . S
C719 C718 1.367 . S
C719 C721 1.433 . S
C720 C716 1.350 1_565 S
C720 C717 1.463 1_565 S
C720 N724 1.427 . S
C721 H711 0.929 . S
C721 C719 1.433 . S
C721 N724 1.384 . S
C722 H713 0.929 . S
C722 C714 1.378 1_565 S
C722 C717 1.350 1_565 S
C723 H710 0.929 . S
C723 C715 1.433 . S
C723 N725 1.384 . S
N724 C720 1.427 . S
N724 C721 1.384 . S
N725 C717 1.427 . S
N725 C723 1.384 . S
H726 C732 0.930 . S
H727 C736 0.930 . S
H728 C741 0.929 . S
H729 C739 0.929 . S
H730 C734 0.929 . S
H731 C740 0.929 . S
C732 H726 0.930 . S
C732 C733 1.367 . S
C732 C740 1.378 . S
C733 C732 1.367 . S
C733 C741 1.433 . S
C734 H730 0.929 . S
C734 C736 1.378 . S
C734 C738 1.350 . S
C735 C738 1.463 . S
C735 C740 1.350 . S
C735 N743 1.427 . S
C736 H727 0.930 . S
C736 C734 1.378 . S
C736 C737 1.367 . S
C737 C736 1.367 . S
C737 C739 1.433 . S
C738 C734 1.350 . S
C738 C735 1.463 . S
C738 N742 1.427 . S
C739 H729 0.929 . S
C739 C737 1.433 . S
C739 N742 1.384 . S
C740 H731 0.929 . S
C740 C732 1.378 . S
C740 C735 1.350 . S
C741 H728 0.929 . S
C741 C733 1.433 . S
C741 N743 1.384 . S
N742 C738 1.427 . S
N742 C739 1.384 . S
N743 C735 1.427 . S
N743 C741 1.384 . S
H744 C750 0.930 . S
H745 C754 0.930 . S
H746 C759 0.929 . S
H747 C757 0.929 . S
H748 C752 0.929 . S
H749 C758 0.929 . S
C750 H744 0.930 . S
C750 C751 1.367 . S
C750 C758 1.378 . S
C751 C750 1.367 . S
C751 C759 1.433 . S
C752 H748 0.929 . S
C752 C754 1.378 . S
C752 C756 1.350 . S
C753 C756 1.463 . S
C753 C758 1.350 . S
C753 N761 1.427 . S
C754 H745 0.930 . S
C754 C752 1.378 . S
C754 C755 1.367 . S
C755 C754 1.367 . S
C755 C757 1.433 . S
C756 C752 1.350 . S
C756 C753 1.463 . S
C756 N760 1.427 . S
C757 H747 0.929 . S
C757 C755 1.433 . S
C757 N760 1.384 . S
C758 H749 0.929 . S
C758 C750 1.378 . S
C758 C753 1.350 . S
C759 H746 0.929 . S
C759 C751 1.433 . S
C759 N761 1.384 . S
N760 C756 1.427 . S
N760 C757 1.384 . S
N761 C753 1.427 . S
N761 C759 1.384 . S
H762 C768 0.930 . S
H763 C772 0.930 . S
H764 C777 0.929 . S
H765 C775 0.929 . S
H766 C770 0.929 . S
H767 C776 0.929 . S
C768 H762 0.930 . S
C768 C769 1.367 . S
C768 C776 1.378 . S
C769 C768 1.367 . S
C769 C777 1.433 . S
C770 H766 0.929 . S
C770 C772 1.378 . S
C770 C774 1.350 . S
C771 C774 1.463 . S
C771 C776 1.350 . S
C771 N779 1.427 . S
C772 H763 0.930 . S
C772 C770 1.378 . S
C772 C773 1.367 . S
C773 C772 1.367 . S
C773 C775 1.433 . S
C774 C770 1.350 . S
C774 C771 1.463 . S
C774 N778 1.427 . S
C775 H765 0.929 . S
C775 C773 1.433 . S
C775 N778 1.384 . S
C776 H767 0.929 . S
C776 C768 1.378 . S
C776 C771 1.350 . S
C777 H764 0.929 . S
C777 C769 1.433 . S
C777 N779 1.384 . S
N778 C774 1.427 . S
N778 C775 1.384 . S
N779 C771 1.427 . S
N779 C777 1.384 . S
H780 C786 0.930 . S
H781 C790 0.930 . S
H782 C795 0.929 . S
H783 C793 0.929 . S
H784 C788 0.929 . S
H785 C794 0.929 . S
C786 H780 0.930 . S
C786 C787 1.367 . S
C786 C794 1.378 . S
C787 C786 1.367 . S
C787 C795 1.433 . S
C788 H784 0.929 . S
C788 C790 1.378 . S
C788 C792 1.350 . S
C789 C792 1.463 . S
C789 C794 1.350 . S
C789 N797 1.427 . S
C790 H781 0.930 . S
C790 C788 1.378 . S
C790 C791 1.367 . S
C791 C790 1.367 . S
C791 C793 1.433 . S
C792 C788 1.350 . S
C792 C789 1.463 . S
C792 N796 1.427 . S
C793 H783 0.929 . S
C793 C791 1.433 . S
C793 N796 1.384 . S
C794 H785 0.929 . S
C794 C786 1.378 . S
C794 C789 1.350 . S
C795 H782 0.929 . S
C795 C787 1.433 . S
C795 N797 1.384 . S
N796 C792 1.427 . S
N796 C793 1.384 . S
N797 C789 1.427 . S
N797 C795 1.384 . S
H798 C804 0.930 . S
H799 C808 0.930 . S
H800 C813 0.929 1_545 S
H801 C811 0.929 1_565 S
H802 C806 0.929 . S
H803 C812 0.929 . S
C804 H798 0.930 . S
C804 C805 1.367 . S
C804 C812 1.378 . S
C805 C804 1.367 . S
C805 C813 1.433 . S
C806 H802 0.929 . S
C806 C808 1.378 . S
C806 C810 1.350 . S
C807 C810 1.463 1_566 S
C807 C812 1.350 . S
C807 N815 1.427 1_565 S
C808 H799 0.930 . S
C808 C806 1.378 . S
C808 C809 1.367 . S
C809 C808 1.367 . S
C809 C811 1.433 . S
C810 C806 1.350 . S
C810 C807 1.463 1_544 S
C810 N814 1.427 1_545 S
C811 H801 0.929 1_545 S
C811 C809 1.433 . S
C811 N814 1.384 1_545 S
C812 H803 0.929 . S
C812 C804 1.378 . S
C812 C807 1.350 . S
C813 H800 0.929 1_565 S
C813 C805 1.433 . S
C813 N815 1.384 1_565 S
N814 C810 1.427 1_565 S
N814 C811 1.384 1_565 S
N815 C807 1.427 1_545 S
N815 C813 1.384 1_545 S
H816 C822 0.930 . S
H817 C826 0.930 . S
H818 C831 0.929 . S
H819 C829 0.929 . S
H820 C824 0.929 . S
H821 C830 0.929 . S
C822 H816 0.930 . S
C822 C823 1.367 . S
C822 C830 1.378 . S
C823 C822 1.367 . S
C823 C831 1.433 . S
C824 H820 0.929 . S
C824 C826 1.378 . S
C824 C828 1.350 . S
C825 C828 1.463 . S
C825 C830 1.350 . S
C825 N833 1.427 . S
C826 H817 0.930 . S
C826 C824 1.378 . S
C826 C827 1.367 . S
C827 C826 1.367 . S
C827 C829 1.433 . S
C828 C824 1.350 . S
C828 C825 1.463 . S
C828 N832 1.427 . S
C829 H819 0.929 . S
C829 C827 1.433 . S
C829 N832 1.384 . S
C830 H821 0.929 . S
C830 C822 1.378 . S
C830 C825 1.350 . S
C831 H818 0.929 . S
C831 C823 1.433 . S
C831 N833 1.384 . S
N832 C828 1.427 . S
N832 C829 1.384 . S
N833 C825 1.427 . S
N833 C831 1.384 . S
H834 C840 0.930 . S
H835 C844 0.930 . S
H836 C849 0.929 . S
H837 C847 0.929 . S
H838 C842 0.929 . S
H839 C848 0.929 . S
C840 H834 0.930 . S
C840 C841 1.367 . S
C840 C848 1.378 . S
C841 C840 1.367 . S
C841 C849 1.433 . S
C842 H838 0.929 . S
C842 C844 1.378 . S
C842 C846 1.350 . S
C843 C846 1.463 . S
C843 C848 1.350 . S
C843 N851 1.427 . S
C844 H835 0.930 . S
C844 C842 1.378 . S
C844 C845 1.367 . S
C845 C844 1.367 . S
C845 C847 1.433 . S
C846 C842 1.350 . S
C846 C843 1.463 . S
C846 N850 1.427 . S
C847 H837 0.929 . S
C847 C845 1.433 . S
C847 N850 1.384 . S
C848 H839 0.929 . S
C848 C840 1.378 . S
C848 C843 1.350 . S
C849 H836 0.929 . S
C849 C841 1.433 . S
C849 N851 1.384 . S
N850 C846 1.427 . S
N850 C847 1.384 . S
N851 C843 1.427 . S
N851 C849 1.384 . S
H852 C858 0.930 . S
H853 C862 0.930 . S
H854 C867 0.929 . S
H855 C865 0.929 . S
H856 C860 0.929 . S
H857 C866 0.929 . S
C858 H852 0.930 . S
C858 C859 1.367 . S
C858 C866 1.378 . S
C859 C858 1.367 . S
C859 C867 1.433 . S
C860 H856 0.929 . S
C860 C862 1.378 . S
C860 C864 1.350 . S
C861 C864 1.463 . S
C861 C866 1.350 . S
C861 N869 1.427 . S
C862 H853 0.930 . S
C862 C860 1.378 . S
C862 C863 1.367 . S
C863 C862 1.367 . S
C863 C865 1.433 . S
C864 C860 1.350 . S
C864 C861 1.463 . S
C864 N868 1.427 . S
C865 H855 0.929 . S
C865 C863 1.433 . S
C865 N868 1.384 . S
C866 H857 0.929 . S
C866 C858 1.378 . S
C866 C861 1.350 . S
C867 H854 0.929 . S
C867 C859 1.433 . S
C867 N869 1.384 . S
N868 C864 1.427 . S
N868 C865 1.384 . S
N869 C861 1.427 . S
N869 C867 1.384 . S
H870 C876 0.930 . S
H871 C880 0.930 . S
H872 C885 0.929 . S
H873 C883 0.929 . S
H874 C878 0.929 . S
H875 C884 0.929 . S
C876 H870 0.930 . S
C876 C877 1.367 . S
C876 C884 1.378 . S
C877 C876 1.367 . S
C877 C885 1.433 . S
C878 H874 0.929 . S
C878 C880 1.378 . S
C878 C882 1.350 . S
C879 C882 1.463 . S
C879 C884 1.350 . S
C879 N887 1.427 . S
C880 H871 0.930 . S
C880 C878 1.378 . S
C880 C881 1.367 . S
C881 C880 1.367 . S
C881 C883 1.433 . S
C882 C878 1.350 . S
C882 C879 1.463 . S
C882 N886 1.427 . S
C883 H873 0.929 . S
C883 C881 1.433 . S
C883 N886 1.384 . S
C884 H875 0.929 . S
C884 C876 1.378 . S
C884 C879 1.350 . S
C885 H872 0.929 . S
C885 C877 1.433 . S
C885 N887 1.384 . S
N886 C882 1.427 . S
N886 C883 1.384 . S
N887 C879 1.427 . S
N887 C885 1.384 . S
H888 C894 0.930 . S
H889 C898 0.930 . S
H890 C903 0.929 . S
H891 C901 0.929 . S
H892 C896 0.929 . S
H893 C902 0.929 . S
C894 H888 0.930 . S
C894 C895 1.367 . S
C894 C902 1.378 . S
C895 C894 1.367 . S
C895 C903 1.433 . S
C896 H892 0.929 . S
C896 C898 1.378 1_554 S
C896 C900 1.350 . S
C897 C900 1.463 . S
C897 C902 1.350 . S
C897 N905 1.427 . S
C898 H889 0.930 . S
C898 C896 1.378 1_556 S
C898 C899 1.367 . S
C899 C898 1.367 . S
C899 C901 1.433 . S
C900 C896 1.350 . S
C900 C897 1.463 . S
C900 N904 1.427 . S
C901 H891 0.929 . S
C901 C899 1.433 . S
C901 N904 1.384 1_556 S
C902 H893 0.929 . S
C902 C894 1.378 . S
C902 C897 1.350 . S
C903 H890 0.929 . S
C903 C895 1.433 . S
C903 N905 1.384 . S
N904 C900 1.427 . S
N904 C901 1.384 1_554 S
N905 C897 1.427 . S
N905 C903 1.384 . S
H906 C912 0.930 . S
H907 C916 0.930 . S
H908 C921 0.929 . S
H909 C919 0.929 . S
H910 C914 0.929 . S
H911 C920 0.929 . S
C912 H906 0.930 . S
C912 C913 1.367 . S
C912 C920 1.378 . S
C913 C912 1.367 . S
C913 C921 1.433 . S
C914 H910 0.929 . S
C914 C916 1.378 1_554 S
C914 C918 1.350 . S
C915 C918 1.463 . S
C915 C920 1.350 . S
C915 N923 1.427 . S
C916 H907 0.930 . S
C916 C914 1.378 1_556 S
C916 C917 1.367 . S
C917 C916 1.367 . S
C917 C919 1.433 . S
C918 C914 1.350 . S
C918 C915 1.463 . S
C918 N922 1.427 . S
C919 H909 0.929 . S
C919 C917 1.433 . S
C919 N922 1.384 1_556 S
C920 H911 0.929 . S
C920 C912 1.378 . S
C920 C915 1.350 . S
C921 H908 0.929 . S
C921 C913 1.433 . S
C921 N923 1.384 . S
N922 C918 1.427 . S
N922 C919 1.384 1_554 S
N923 C915 1.427 . S
N923 C921 1.384 . S
H924 C930 0.930 . S
H925 C934 0.930 . S
H926 C939 0.929 . S
H927 C937 0.929 . S
H928 C932 0.929 . S
H929 C938 0.929 . S
C930 H924 0.930 . S
C930 C931 1.367 . S
C930 C938 1.378 1_554 S
C931 C930 1.367 . S
C931 C939 1.433 . S
C932 H928 0.929 . S
C932 C934 1.378 . S
C932 C936 1.350 . S
C933 C936 1.463 . S
C933 C938 1.350 . S
C933 N941 1.427 . S
C934 H925 0.930 . S
C934 C932 1.378 . S
C934 C935 1.367 . S
C935 C934 1.367 . S
C935 C937 1.433 . S
C936 C932 1.350 . S
C936 C933 1.463 . S
C936 N940 1.427 . S
C937 H927 0.929 . S
C937 C935 1.433 . S
C937 N940 1.384 . S
C938 H929 0.929 . S
C938 C930 1.378 1_556 S
C938 C933 1.350 . S
C939 H926 0.929 . S
C939 C931 1.433 . S
C939 N941 1.384 1_554 S
N940 C936 1.427 . S
N940 C937 1.384 . S
N941 C933 1.427 . S
N941 C939 1.384 1_556 S
H942 C948 0.930 . S
H943 C952 0.930 . S
H944 C957 0.929 . S
H945 C955 0.929 . S
H946 C950 0.929 . S
H947 C956 0.929 . S
C948 H942 0.930 . S
C948 C949 1.367 . S
C948 C956 1.378 1_554 S
C949 C948 1.367 . S
C949 C957 1.433 . S
C950 H946 0.929 . S
C950 C952 1.378 . S
C950 C954 1.350 . S
C951 C954 1.463 . S
C951 C956 1.350 . S
C951 N959 1.427 . S
C952 H943 0.930 . S
C952 C950 1.378 . S
C952 C953 1.367 . S
C953 C952 1.367 . S
C953 C955 1.433 . S
C954 C950 1.350 . S
C954 C951 1.463 . S
C954 N958 1.427 . S
C955 H945 0.929 . S
C955 C953 1.433 . S
C955 N958 1.384 . S
C956 H947 0.929 . S
C956 C948 1.378 1_556 S
C956 C951 1.350 . S
C957 H944 0.929 . S
C957 C949 1.433 . S
C957 N959 1.384 1_554 S
N958 C954 1.427 . S
N958 C955 1.384 . S
N959 C951 1.427 . S
N959 C957 1.384 1_556 S
H960 C966 0.930 . S
H961 C970 0.930 . S
H962 C975 0.929 . S
H963 C973 0.929 . S
H964 C968 0.929 . S
H965 C974 0.929 . S
C966 H960 0.930 . S
C966 C967 1.367 . S
C966 C974 1.378 1_556 S
C967 C966 1.367 . S
C967 C975 1.433 . S
C968 H964 0.929 . S
C968 C970 1.378 . S
C968 C972 1.350 . S
C969 C972 1.463 . S
C969 C974 1.350 . S
C969 N977 1.427 . S
C970 H961 0.930 . S
C970 C968 1.378 . S
C970 C971 1.367 . S
C971 C970 1.367 . S
C971 C973 1.433 . S
C972 C968 1.350 . S
C972 C969 1.463 . S
C972 N976 1.427 . S
C973 H963 0.929 . S
C973 C971 1.433 . S
C973 N976 1.384 . S
C974 H965 0.929 . S
C974 C966 1.378 1_554 S
C974 C969 1.350 . S
C975 H962 0.929 . S
C975 C967 1.433 . S
C975 N977 1.384 1_556 S
N976 C972 1.427 . S
N976 C973 1.384 . S
N977 C969 1.427 . S
N977 C975 1.384 1_554 S
H978 C984 0.930 . S
H979 C988 0.930 . S
H980 C993 0.929 . S
H981 C991 0.929 . S
H982 C986 0.929 . S
H983 C992 0.929 . S
C984 H978 0.930 . S
C984 C985 1.367 . S
C984 C992 1.378 1_556 S
C985 C984 1.367 . S
C985 C993 1.433 . S
C986 H982 0.929 . S
C986 C988 1.378 . S
C986 C990 1.350 . S
C987 C990 1.463 . S
C987 C992 1.350 . S
C987 N995 1.427 . S
C988 H979 0.930 . S
C988 C986 1.378 . S
C988 C989 1.367 . S
C989 C988 1.367 . S
C989 C991 1.433 . S
C990 C986 1.350 . S
C990 C987 1.463 . S
C990 N994 1.427 . S
C991 H981 0.929 . S
C991 C989 1.433 . S
C991 N994 1.384 . S
C992 H983 0.929 . S
C992 C984 1.378 1_554 S
C992 C987 1.350 . S
C993 H980 0.929 . S
C993 C985 1.433 . S
C993 N995 1.384 1_556 S
N994 C990 1.427 . S
N994 C991 1.384 . S
N995 C987 1.427 . S
N995 C993 1.384 1_554 S
H996 C1002 0.930 . S
H997 C1006 0.930 . S
H998 C1011 0.929 . S
H999 C1009 0.929 . S
H1000 C1004 0.929 . S
H1001 C1010 0.929 . S
C1002 H996 0.930 . S
C1002 C1003 1.367 . S
C1002 C1010 1.378 1_554 S
C1003 C1002 1.367 . S
C1003 C1011 1.433 . S
C1004 H1000 0.929 . S
C1004 C1006 1.378 . S
C1004 C1008 1.350 . S
C1005 C1008 1.463 . S
C1005 C1010 1.350 . S
C1005 N1013 1.427 . S
C1006 H997 0.930 . S
C1006 C1004 1.378 . S
C1006 C1007 1.367 . S
C1007 C1006 1.367 . S
C1007 C1009 1.433 . S
C1008 C1004 1.350 . S
C1008 C1005 1.463 . S
C1008 N1012 1.427 . S
C1009 H999 0.929 . S
C1009 C1007 1.433 . S
C1009 N1012 1.384 . S
C1010 H1001 0.929 . S
C1010 C1002 1.378 1_556 S
C1010 C1005 1.350 . S
C1011 H998 0.929 . S
C1011 C1003 1.433 . S
C1011 N1013 1.384 1_554 S
N1012 C1008 1.427 . S
N1012 C1009 1.384 . S
N1013 C1005 1.427 . S
N1013 C1011 1.384 1_556 S
H1014 C1020 0.930 . S
H1015 C1024 0.930 . S
H1016 C1029 0.929 . S
H1017 C1027 0.929 . S
H1018 C1022 0.929 . S
H1019 C1028 0.929 . S
C1020 H1014 0.930 . S
C1020 C1021 1.367 . S
C1020 C1028 1.378 1_554 S
C1021 C1020 1.367 . S
C1021 C1029 1.433 . S
C1022 H1018 0.929 . S
C1022 C1024 1.378 . S
C1022 C1026 1.350 . S
C1023 C1026 1.463 . S
C1023 C1028 1.350 . S
C1023 N1031 1.427 . S
C1024 H1015 0.930 . S
C1024 C1022 1.378 . S
C1024 C1025 1.367 . S
C1025 C1024 1.367 . S
C1025 C1027 1.433 . S
C1026 C1022 1.350 . S
C1026 C1023 1.463 . S
C1026 N1030 1.427 . S
C1027 H1017 0.929 . S
C1027 C1025 1.433 . S
C1027 N1030 1.384 . S
C1028 H1019 0.929 . S
C1028 C1020 1.378 1_556 S
C1028 C1023 1.350 . S
C1029 H1016 0.929 . S
C1029 C1021 1.433 . S
C1029 N1031 1.384 1_554 S
N1030 C1026 1.427 . S
N1030 C1027 1.384 . S
N1031 C1023 1.427 . S
N1031 C1029 1.384 1_556 S
H1032 C1038 0.930 . S
H1033 C1042 0.930 . S
H1034 C1047 0.929 . S
H1035 C1045 0.929 . S
H1036 C1040 0.929 . S
H1037 C1046 0.929 . S
C1038 H1032 0.930 . S
C1038 C1039 1.367 . S
C1038 C1046 1.378 . S
C1039 C1038 1.367 . S
C1039 C1047 1.433 . S
C1040 H1036 0.929 . S
C1040 C1042 1.378 . S
C1040 C1044 1.350 . S
C1041 C1044 1.463 . S
C1041 C1046 1.350 . S
C1041 N1049 1.427 . S
C1042 H1033 0.930 . S
C1042 C1040 1.378 . S
C1042 C1043 1.367 . S
C1043 C1042 1.367 . S
C1043 C1045 1.433 . S
C1044 C1040 1.350 . S
C1044 C1041 1.463 . S
C1044 N1048 1.427 . S
C1045 H1035 0.929 . S
C1045 C1043 1.433 . S
C1045 N1048 1.384 . S
C1046 H1037 0.929 . S
C1046 C1038 1.378 . S
C1046 C1041 1.350 . S
C1047 H1034 0.929 . S
C1047 C1039 1.433 . S
C1047 N1049 1.384 . S
N1048 C1044 1.427 . S
N1048 C1045 1.384 . S
N1049 C1041 1.427 . S
N1049 C1047 1.384 . S
H1050 C1056 0.930 . S
H1051 C1060 0.930 . S
H1052 C1065 0.929 . S
H1053 C1063 0.929 . S
H1054 C1058 0.929 . S
H1055 C1064 0.929 . S
C1056 H1050 0.930 . S
C1056 C1057 1.367 . S
C1056 C1064 1.378 . S
C1057 C1056 1.367 . S
C1057 C1065 1.433 . S
C1058 H1054 0.929 . S
C1058 C1060 1.378 . S
C1058 C1062 1.350 . S
C1059 C1062 1.463 . S
C1059 C1064 1.350 . S
C1059 N1067 1.427 . S
C1060 H1051 0.930 . S
C1060 C1058 1.378 . S
C1060 C1061 1.367 . S
C1061 C1060 1.367 . S
C1061 C1063 1.433 . S
C1062 C1058 1.350 . S
C1062 C1059 1.463 . S
C1062 N1066 1.427 . S
C1063 H1053 0.929 . S
C1063 C1061 1.433 . S
C1063 N1066 1.384 . S
C1064 H1055 0.929 . S
C1064 C1056 1.378 . S
C1064 C1059 1.350 . S
C1065 H1052 0.929 . S
C1065 C1057 1.433 . S
C1065 N1067 1.384 . S
N1066 C1062 1.427 . S
N1066 C1063 1.384 . S
N1067 C1059 1.427 . S
N1067 C1065 1.384 . S
H1068 C1074 0.930 . S
H1069 C1078 0.930 . S
H1070 C1083 0.929 . S
H1071 C1081 0.929 . S
H1072 C1076 0.929 . S
H1073 C1082 0.929 . S
C1074 H1068 0.930 . S
C1074 C1075 1.367 . S
C1074 C1082 1.378 . S
C1075 C1074 1.367 . S
C1075 C1083 1.433 . S
C1076 H1072 0.929 . S
C1076 C1078 1.378 . S
C1076 C1080 1.350 . S
C1077 C1080 1.463 . S
C1077 C1082 1.350 . S
C1077 N1085 1.427 . S
C1078 H1069 0.930 . S
C1078 C1076 1.378 . S
C1078 C1079 1.367 . S
C1079 C1078 1.367 . S
C1079 C1081 1.433 . S
C1080 C1076 1.350 . S
C1080 C1077 1.463 . S
C1080 N1084 1.427 . S
C1081 H1071 0.929 . S
C1081 C1079 1.433 . S
C1081 N1084 1.384 . S
C1082 H1073 0.929 . S
C1082 C1074 1.378 . S
C1082 C1077 1.350 . S
C1083 H1070 0.929 . S
C1083 C1075 1.433 . S
C1083 N1085 1.384 . S
N1084 C1080 1.427 . S
N1084 C1081 1.384 . S
N1085 C1077 1.427 . S
N1085 C1083 1.384 . S
H1086 C1092 0.930 . S
H1087 C1096 0.930 . S
H1088 C1101 0.929 . S
H1089 C1099 0.929 . S
H1090 C1094 0.929 . S
H1091 C1100 0.929 . S
C1092 H1086 0.930 . S
C1092 C1093 1.367 . S
C1092 C1100 1.378 . S
C1093 C1092 1.367 . S
C1093 C1101 1.433 . S
C1094 H1090 0.929 . S
C1094 C1096 1.378 . S
C1094 C1098 1.350 . S
C1095 C1098 1.463 . S
C1095 C1100 1.350 . S
C1095 N1103 1.427 . S
C1096 H1087 0.930 . S
C1096 C1094 1.378 . S
C1096 C1097 1.367 . S
C1097 C1096 1.367 . S
C1097 C1099 1.433 . S
C1098 C1094 1.350 . S
C1098 C1095 1.463 . S
C1098 N1102 1.427 . S
C1099 H1089 0.929 . S
C1099 C1097 1.433 . S
C1099 N1102 1.384 . S
C1100 H1091 0.929 . S
C1100 C1092 1.378 . S
C1100 C1095 1.350 . S
C1101 H1088 0.929 . S
C1101 C1093 1.433 . S
C1101 N1103 1.384 . S
N1102 C1098 1.427 . S
N1102 C1099 1.384 . S
N1103 C1095 1.427 . S
N1103 C1101 1.384 . S
H1104 C1110 0.930 . S
H1105 C1114 0.930 . S
H1106 C1119 0.929 . S
H1107 C1117 0.929 . S
H1108 C1112 0.929 . S
H1109 C1118 0.929 . S
C1110 H1104 0.930 . S
C1110 C1111 1.367 . S
C1110 C1118 1.378 . S
C1111 C1110 1.367 . S
C1111 C1119 1.433 . S
C1112 H1108 0.929 . S
C1112 C1114 1.378 . S
C1112 C1116 1.350 . S
C1113 C1116 1.463 . S
C1113 C1118 1.350 . S
C1113 N1121 1.427 . S
C1114 H1105 0.930 . S
C1114 C1112 1.378 . S
C1114 C1115 1.367 . S
C1115 C1114 1.367 . S
C1115 C1117 1.433 . S
C1116 C1112 1.350 . S
C1116 C1113 1.463 . S
C1116 N1120 1.427 . S
C1117 H1107 0.929 . S
C1117 C1115 1.433 . S
C1117 N1120 1.384 . S
C1118 H1109 0.929 . S
C1118 C1110 1.378 . S
C1118 C1113 1.350 . S
C1119 H1106 0.929 . S
C1119 C1111 1.433 . S
C1119 N1121 1.384 . S
N1120 C1116 1.427 . S
N1120 C1117 1.384 . S
N1121 C1113 1.427 . S
N1121 C1119 1.384 . S
H1122 C1128 0.930 1_554 S
H1123 C1132 0.930 . S
H1124 C1137 0.929 . S
H1125 C1135 0.929 1_554 S
H1126 C1130 0.929 . S
H1127 C1136 0.929 1_554 S
C1128 H1122 0.930 1_556 S
C1128 C1129 1.367 . S
C1128 C1136 1.378 . S
C1129 C1128 1.367 . S
C1129 C1137 1.433 . S
C1130 H1126 0.929 . S
C1130 C1132 1.378 . S
C1130 C1134 1.350 . S
C1131 C1134 1.463 . S
C1131 C1136 1.350 . S
C1131 N1139 1.427 . S
C1132 H1123 0.930 . S
C1132 C1130 1.378 . S
C1132 C1133 1.367 . S
C1133 C1132 1.367 . S
C1133 C1135 1.433 . S
C1134 C1130 1.350 . S
C1134 C1131 1.463 . S
C1134 N1138 1.427 . S
C1135 H1125 0.929 1_556 S
C1135 C1133 1.433 . S
C1135 N1138 1.384 . S
C1136 H1127 0.929 1_556 S
C1136 C1128 1.378 . S
C1136 C1131 1.350 . S
C1137 H1124 0.929 . S
C1137 C1129 1.433 . S
C1137 N1139 1.384 . S
N1138 C1134 1.427 . S
N1138 C1135 1.384 . S
N1139 C1131 1.427 . S
N1139 C1137 1.384 . S
H1140 C1146 0.930 . S
H1141 C1150 0.930 . S
H1142 C1155 0.929 . S
H1143 C1153 0.929 . S
H1144 C1148 0.929 . S
H1145 C1154 0.929 . S
C1146 H1140 0.930 . S
C1146 C1147 1.367 . S
C1146 C1154 1.378 . S
C1147 C1146 1.367 . S
C1147 C1155 1.433 . S
C1148 H1144 0.929 . S
C1148 C1150 1.378 . S
C1148 C1152 1.350 . S
C1149 C1152 1.463 . S
C1149 C1154 1.350 . S
C1149 N1157 1.427 . S
C1150 H1141 0.930 . S
C1150 C1148 1.378 . S
C1150 C1151 1.367 . S
C1151 C1150 1.367 . S
C1151 C1153 1.433 . S
C1152 C1148 1.350 . S
C1152 C1149 1.463 . S
C1152 N1156 1.427 . S
C1153 H1143 0.929 . S
C1153 C1151 1.433 . S
C1153 N1156 1.384 . S
C1154 H1145 0.929 . S
C1154 C1146 1.378 . S
C1154 C1149 1.350 . S
C1155 H1142 0.929 . S
C1155 C1147 1.433 . S
C1155 N1157 1.384 . S
N1156 C1152 1.427 . S
N1156 C1153 1.384 . S
N1157 C1149 1.427 . S
N1157 C1155 1.384 . S
H1158 C1164 0.930 . S
H1159 C1168 0.930 . S
H1160 C1173 0.929 . S
H1161 C1171 0.929 . S
H1162 C1166 0.929 . S
H1163 C1172 0.929 . S
C1164 H1158 0.930 . S
C1164 C1165 1.367 . S
C1164 C1172 1.378 . S
C1165 C1164 1.367 . S
C1165 C1173 1.433 . S
C1166 H1162 0.929 . S
C1166 C1168 1.378 . S
C1166 C1170 1.350 . S
C1167 C1170 1.463 . S
C1167 C1172 1.350 . S
C1167 N1175 1.427 . S
C1168 H1159 0.930 . S
C1168 C1166 1.378 . S
C1168 C1169 1.367 . S
C1169 C1168 1.367 . S
C1169 C1171 1.433 . S
C1170 C1166 1.350 . S
C1170 C1167 1.463 . S
C1170 N1174 1.427 . S
C1171 H1161 0.929 . S
C1171 C1169 1.433 . S
C1171 N1174 1.384 . S
C1172 H1163 0.929 . S
C1172 C1164 1.378 . S
C1172 C1167 1.350 . S
C1173 H1160 0.929 . S
C1173 C1165 1.433 . S
C1173 N1175 1.384 . S
N1174 C1170 1.427 . S
N1174 C1171 1.384 . S
N1175 C1167 1.427 . S
N1175 C1173 1.384 . S
H1176 C1182 0.930 . S
H1177 C1186 0.930 . S
H1178 C1191 0.929 . S
H1179 C1189 0.929 . S
H1180 C1184 0.929 . S
H1181 C1190 0.929 . S
C1182 H1176 0.930 . S
C1182 C1183 1.367 . S
C1182 C1190 1.378 . S
C1183 C1182 1.367 . S
C1183 C1191 1.433 . S
C1184 H1180 0.929 . S
C1184 C1186 1.378 . S
C1184 C1188 1.350 . S
C1185 C1188 1.463 . S
C1185 C1190 1.350 . S
C1185 N1193 1.427 . S
C1186 H1177 0.930 . S
C1186 C1184 1.378 . S
C1186 C1187 1.367 . S
C1187 C1186 1.367 . S
C1187 C1189 1.433 . S
C1188 C1184 1.350 . S
C1188 C1185 1.463 . S
C1188 N1192 1.427 . S
C1189 H1179 0.929 . S
C1189 C1187 1.433 . S
C1189 N1192 1.384 . S
C1190 H1181 0.929 . S
C1190 C1182 1.378 . S
C1190 C1185 1.350 . S
C1191 H1178 0.929 . S
C1191 C1183 1.433 . S
C1191 N1193 1.384 . S
N1192 C1188 1.427 . S
N1192 C1189 1.384 . S
N1193 C1185 1.427 . S
N1193 C1191 1.384 . S
H1194 C1200 0.930 . S
H1195 C1204 0.930 . S
H1196 C1209 0.929 . S
H1197 C1207 0.929 . S
H1198 C1202 0.929 . S
H1199 C1208 0.929 . S
C1200 H1194 0.930 . S
C1200 C1201 1.367 . S
C1200 C1208 1.378 . S
C1201 C1200 1.367 . S
C1201 C1209 1.433 . S
C1202 H1198 0.929 . S
C1202 C1204 1.378 . S
C1202 C1206 1.350 . S
C1203 C1206 1.463 . S
C1203 C1208 1.350 . S
C1203 N1211 1.427 . S
C1204 H1195 0.930 . S
C1204 C1202 1.378 . S
C1204 C1205 1.367 . S
C1205 C1204 1.367 . S
C1205 C1207 1.433 . S
C1206 C1202 1.350 . S
C1206 C1203 1.463 . S
C1206 N1210 1.427 . S
C1207 H1197 0.929 . S
C1207 C1205 1.433 . S
C1207 N1210 1.384 . S
C1208 H1199 0.929 . S
C1208 C1200 1.378 . S
C1208 C1203 1.350 . S
C1209 H1196 0.929 . S
C1209 C1201 1.433 . S
C1209 N1211 1.384 . S
N1210 C1206 1.427 . S
N1210 C1207 1.384 . S
N1211 C1203 1.427 . S
N1211 C1209 1.384 . S
H1212 C1218 0.930 . S
H1213 C1222 0.944 . S
H1214 C1227 0.928 . S
H1215 C1225 0.929 . S
H1216 C1220 0.929 . S
H1217 C1226 0.929 . S
C1218 H1212 0.930 . S
C1218 C1219 1.367 . S
C1218 C1226 1.378 . S
C1219 C1218 1.367 . S
C1219 C1227 1.433 . S
C1220 H1216 0.929 . S
C1220 C1222 1.378 . S
C1220 C1224 1.350 . S
C1221 C1224 1.463 . S
C1221 C1226 1.350 . S
C1221 N1229 1.427 . S
C1222 H1213 0.944 . S
C1222 C1220 1.378 . S
C1222 C1223 1.367 . S
C1223 C1222 1.367 . S
C1223 C1225 1.433 . S
C1224 C1220 1.350 . S
C1224 C1221 1.463 . S
C1224 N1228 1.427 . S
C1225 H1215 0.929 . S
C1225 C1223 1.433 . S
C1225 N1228 1.384 . S
C1226 H1217 0.929 . S
C1226 C1218 1.378 . S
C1226 C1221 1.350 . S
C1227 H1214 0.928 . S
C1227 C1219 1.433 . S
C1227 N1229 1.384 . S
N1228 C1224 1.427 . S
N1228 C1225 1.384 . S
N1229 C1221 1.427 . S
N1229 C1227 1.384 . S
H1230 C1236 0.930 . S
H1231 C1240 0.930 . S
H1232 C1245 0.929 . S
H1233 C1243 0.929 . S
H1234 C1238 0.929 . S
H1235 C1244 0.929 . S
C1236 H1230 0.930 . S
C1236 C1237 1.367 . S
C1236 C1244 1.378 . S
C1237 C1236 1.367 . S
C1237 C1245 1.433 . S
C1238 H1234 0.929 . S
C1238 C1240 1.378 . S
C1238 C1242 1.350 . S
C1239 C1242 1.463 . S
C1239 C1244 1.350 . S
C1239 N1247 1.427 . S
C1240 H1231 0.930 . S
C1240 C1238 1.378 . S
C1240 C1241 1.367 . S
C1241 C1240 1.367 . S
C1241 C1243 1.433 . S
C1242 C1238 1.350 . S
C1242 C1239 1.463 . S
C1242 N1246 1.427 . S
C1243 H1233 0.929 . S
C1243 C1241 1.433 . S
C1243 N1246 1.384 . S
C1244 H1235 0.929 . S
C1244 C1236 1.378 . S
C1244 C1239 1.350 . S
C1245 H1232 0.929 . S
C1245 C1237 1.433 . S
C1245 N1247 1.384 . S
N1246 C1242 1.427 . S
N1246 C1243 1.384 . S
N1247 C1239 1.427 . S
N1247 C1245 1.384 . S
C535 C348 1.519 . S
C539 C18 1.519 . S
C553 C51 1.516 . S
C557 C249 1.516 . S
C571 C502 1.504 . S
C575 C40 1.504 . S
C589 C73 1.504 . S
C593 C7 1.504 . S
C607 C84 1.519 . S
C611 C282 1.519 . S
C625 C183 1.515 . S
C629 C117 1.515 . S
C643 C436 1.497 . S
C647 C106 1.497 . S
C661 C480 1.518 . S
C665 C150 1.518 . S
C679 C172 1.505 . S
C683 C370 1.505 . S
C697 C205 1.502 . S
C701 C139 1.502 . S
C715 C414 1.516 . S
C719 C216 1.516 . S
C733 C304 1.498 . S
C737 C238 1.498 . S
C751 C513 1.521 . S
C755 C315 1.521 . S
C769 C271 1.505 . S
C773 C337 1.505 . S
C787 C381 1.518 . S
C791 C447 1.518 . S
C805 C469 1.500 . S
C809 C403 1.500 . S
C823 N13 1.334 . S
C827 N2 1.332 . S
C841 N35 1.332 . S
C845 N46 1.333 . S
C859 N79 1.337 . S
C863 N68 1.335 . S
C877 N101 1.329 . S
C881 N112 1.331 . S
C895 N134 1.332 . S
C899 N145 1.334 . S
C913 N167 1.336 . S
C917 N178 1.337 . S
C931 N211 1.335 . S
C935 N200 1.334 . S
C949 N244 1.334 . S
C953 N233 1.332 . S
C967 N277 1.331 . S
C971 N266 1.329 . S
C985 N310 1.331 . S
C989 N299 1.329 . S
C1003 N343 1.334 . S
C1007 N332 1.332 . S
C1021 N376 1.333 . S
C1025 N365 1.332 . S
C1039 N409 1.331 . S
C1043 N398 1.329 . S
C1057 N431 1.334 . S
C1061 N442 1.335 . S
C1075 N475 1.336 . S
C1079 N464 1.335 . S
C1093 N497 1.329 . S
C1097 N508 1.331 . S
C1111 C21 1.501 . S
C1115 C54 1.502 . S
C1129 C87 1.502 . S
C1133 C120 1.501 . S
C1147 C153 1.501 . S
C1151 C186 1.502 . S
C1165 C219 1.501 . S
C1169 C252 1.502 . S
C1183 C318 1.502 . S
C1187 C285 1.501 . S
C1201 C351 1.501 . S
C1205 C384 1.502 . S
C1219 C450 1.501 . S
C1223 C417 1.502 . S
C1237 C516 1.502 . S
C1241 C483 1.501 . S
