# Generated by pormake.
# Topology vby, (6)-cn, num edge types: 1
# Building blocks:
#     Node 0, Type 0, BuildingBlock: BETGAK_clean_sbu_0, # of connection points: 6
#     Node 1, Type 0, BuildingBlock: BETGAK_clean_sbu_0, # of connection points: 6
#     Node 2, Type 0, BuildingBlock: BETGAK_clean_sbu_0, # of connection points: 6
#     Node 3, Type 0, BuildingBlock: BETGAK_clean_sbu_0, # of connection points: 6
#     Node 4, Type 0, BuildingBlock: BETGAK_clean_sbu_0, # of connection points: 6
#     Node 5, Type 0, BuildingBlock: BETGAK_clean_sbu_0, # of connection points: 6
#     Node 6, Type 0, BuildingBlock: BETGAK_clean_sbu_0, # of connection points: 6
#     Node 7, Type 0, BuildingBlock: BETGAK_clean_sbu_0, # of connection points: 6
#     Edge 8, Type (0, 0), BuildingBlock: KIFKEQ_clean_linker_1, # of connection points: 2
#     Edge 9, Type (0, 0), BuildingBlock: KIFKEQ_clean_linker_1, # of connection points: 2
#     Edge 10, Type (0, 0), BuildingBlock: KIFKEQ_clean_linker_1, # of connection points: 2
#     Edge 11, Type (0, 0), BuildingBlock: KIFKEQ_clean_linker_1, # of connection points: 2
#     Edge 12, Type (0, 0), BuildingBlock: KIFKEQ_clean_linker_1, # of connection points: 2
#     Edge 13, Type (0, 0), BuildingBlock: KIFKEQ_clean_linker_1, # of connection points: 2
#     Edge 14, Type (0, 0), BuildingBlock: KIFKEQ_clean_linker_1, # of connection points: 2
#     Edge 15, Type (0, 0), BuildingBlock: KIFKEQ_clean_linker_1, # of connection points: 2
#     Edge 16, Type (0, 0), BuildingBlock: KIFKEQ_clean_linker_1, # of connection points: 2
#     Edge 17, Type (0, 0), BuildingBlock: KIFKEQ_clean_linker_1, # of connection points: 2
#     Edge 18, Type (0, 0), BuildingBlock: KIFKEQ_clean_linker_1, # of connection points: 2
#     Edge 19, Type (0, 0), BuildingBlock: KIFKEQ_clean_linker_1, # of connection points: 2
#     Edge 20, Type (0, 0), BuildingBlock: KIFKEQ_clean_linker_1, # of connection points: 2
#     Edge 21, Type (0, 0), BuildingBlock: KIFKEQ_clean_linker_1, # of connection points: 2
#     Edge 22, Type (0, 0), BuildingBlock: KIFKEQ_clean_linker_1, # of connection points: 2
#     Edge 23, Type (0, 0), BuildingBlock: KIFKEQ_clean_linker_1, # of connection points: 2
#     Edge 24, Type (0, 0), BuildingBlock: KIFKEQ_clean_linker_1, # of connection points: 2
#     Edge 25, Type (0, 0), BuildingBlock: KIFKEQ_clean_linker_1, # of connection points: 2
#     Edge 26, Type (0, 0), BuildingBlock: KIFKEQ_clean_linker_1, # of connection points: 2
#     Edge 27, Type (0, 0), BuildingBlock: KIFKEQ_clean_linker_1, # of connection points: 2
#     Edge 28, Type (0, 0), BuildingBlock: KIFKEQ_clean_linker_1, # of connection points: 2
#     Edge 29, Type (0, 0), BuildingBlock: KIFKEQ_clean_linker_1, # of connection points: 2
#     Edge 30, Type (0, 0), BuildingBlock: KIFKEQ_clean_linker_1, # of connection points: 2
#     Edge 31, Type (0, 0), BuildingBlock: KIFKEQ_clean_linker_1, # of connection points: 2
# Relax obj value: 0.195
# Max RMSD: 0.212
# Mean RMSD: 0.212
data_MOF--net-vby--node1-BETGAK_clean_sbu_0--edge1-KIFKEQ_clean_linker_1
_symmetry_space_group_name_H-M    P1
_symmetry_Int_Tables_number       1
_symmetry_cell_setting            triclinic
loop_
_symmetry_equiv_pos_as_xyz
'x, y, z'
_cell_length_a     15.71306
_cell_length_b     104.05911
_cell_length_c     29.706599
_cell_angle_alpha  90.042738
_cell_angle_beta   85.210711
_cell_angle_gamma 90.054501
loop_
_atom_site_label
_atom_site_type_symbol
_atom_site_fract_x
_atom_site_fract_y
_atom_site_fract_z
_atom_type_partial_charge
La0 La 0.06425 0.41214 0.02878 0.0
La1 La 0.05673 0.384 0.03182 0.0
C2 C 0.05129 0.43618 0.02187 0.0
C3 C 1.04259 0.45043 0.021 0.0
C4 C 1.01852 0.45713 0.0612 0.0
C5 C 1.01723 0.47058 0.06213 0.0
C6 C 1.03974 0.47778 0.02285 0.0
C7 C 0.06167 0.47108 0.98225 0.0
C8 C 0.06348 0.45756 0.98139 0.0
C9 C 0.07779 0.40187 0.10987 0.0
C10 C 0.88536 0.39828 0.03269 0.0
C11 C 0.06636 0.36048 0.05358 0.0
C12 C 0.11688 0.34843 0.04878 0.0
C13 C 0.15066 0.34375 1.00658 0.0
C14 C 0.18785 0.33147 1.00284 0.0
C15 C 0.19191 0.32355 0.04117 0.0
C16 C 0.15996 0.32848 0.08344 0.0
C17 C 0.12307 0.34072 0.08711 0.0
C18 C 1.04271 0.39329 0.94927 0.0
C19 C 0.2396 0.39812 0.02152 0.0
O20 O 1.02102 0.42958 0.057 0.0
O21 O 0.08631 0.4291 0.98882 0.0
O22 O 0.12299 0.41133 0.093 0.0
O23 O 1.02677 0.39843 0.08154 0.0
O24 O 0.9316 0.40794 0.01496 0.0
O25 O 0.92313 0.38845 0.05081 0.0
O26 O 1.03011 0.36466 0.01839 0.0
O27 O 0.09521 0.36991 0.07723 0.0
O28 O 1.00746 0.3829 0.96576 0.0
O29 O 0.09136 0.39763 0.97773 0.0
O30 O 0.19589 0.38732 0.02959 0.0
O31 O 0.2006 0.40914 0.01546 0.0
H32 H 1.00226 0.45198 0.09242 0.0
H33 H 0.99868 0.47536 0.09383 0.0
H34 H 0.07985 0.47628 0.95138 0.0
H35 H 0.08273 0.45269 0.94994 0.0
H36 H 0.1466 0.34945 0.97634 0.0
H37 H 0.21281 0.32814 0.96981 0.0
H38 H 0.16044 0.32269 0.11368 0.0
H39 H 0.09654 0.34401 0.11995 0.0
La40 La 1.02875 0.66936 0.02679 0.0
La41 La 1.02034 0.64131 0.03138 0.0
C42 C 1.01775 0.69286 1.00473 0.0
C43 C 0.96799 0.70498 0.01233 0.0
C44 C 0.97452 0.71248 0.05136 0.0
C45 C 0.93869 0.72483 0.05492 0.0
C46 C 0.89556 0.73008 0.01949 0.0
C47 C 0.8868 0.72239 0.98108 0.0
C48 C 0.92276 0.71005 0.97751 0.0
C49 C 0.04755 0.66056 0.10916 0.0
C50 C 0.84532 0.6554 0.03921 0.0
C51 C 1.03373 0.61731 0.03955 0.0
C52 C 0.04349 0.60313 0.04329 0.0
C53 C 0.1018 0.59651 0.01319 0.0
C54 C 0.10432 0.58305 0.01266 0.0
C55 C 0.04805 0.57577 0.04197 0.0
C56 C 0.9914 0.58244 0.07308 0.0
C57 C 0.98929 0.59594 0.07377 0.0
C58 C 1.00462 0.65125 0.94976 0.0
C59 C 0.19951 0.655 0.02537 0.0
O60 O 0.06097 0.68864 0.0374 0.0
O61 O 0.98423 0.68341 0.98301 0.0
O62 O 0.08273 0.67078 0.0914 0.0
O63 O 0.99653 0.65599 0.08227 0.0
O64 O 0.88926 0.66616 0.03088 0.0
O65 O 0.88414 0.64436 0.04506 0.0
O66 O 0.07023 0.6238 1.0056 0.0
O67 O 0.99234 0.62447 0.07038 0.0
O68 O 0.96014 0.64182 0.96741 0.0
O69 O 0.05654 0.65473 0.9775 0.0
O70 O 0.15312 0.64559 0.04471 0.0
O71 O 0.16146 0.66461 1.00607 0.0
H72 H 1.00992 0.70902 0.07865 0.0
H73 H 0.94789 0.73045 0.08482 0.0
H74 H 0.85297 0.72596 0.95336 0.0
H75 H 0.91741 0.70461 0.94675 0.0
H76 H 0.14462 0.60174 0.98928 0.0
H77 H 0.15024 0.57835 0.98891 0.0
H78 H 0.94642 0.57725 0.09593 0.0
H79 H 0.94302 0.60073 0.09708 0.0
La80 La 0.05749 0.66853 0.53233 0.0
La81 La 0.06453 0.64044 0.5275 0.0
C82 C 0.06759 0.6919 0.55597 0.0
C83 C 0.11753 0.70401 0.55064 0.0
C84 C 0.14881 0.70876 0.50811 0.0
C85 C 0.18557 0.72107 0.50403 0.0
C86 C 0.19172 0.72895 0.54234 0.0
C87 C 0.16234 0.72395 0.5849 0.0
C88 C 0.12584 0.71168 0.58892 0.0
C89 C 0.04321 0.65986 0.44908 0.0
C90 C 0.2402 0.65445 0.52102 0.0
C91 C 0.05081 0.61644 0.51937 0.0
C92 C 1.04075 0.60225 0.51575 0.0
C93 C 0.98325 0.59565 0.54636 0.0
C94 C 0.98075 0.58219 0.54706 0.0
C95 C 1.03618 0.57489 0.51738 0.0
C96 C 0.09194 0.58154 0.48576 0.0
C97 C 0.09408 0.59504 0.48493 0.0
C98 C 0.07811 0.65037 0.60932 0.0
C99 C 0.88628 0.65427 0.53166 0.0
O100 O 1.02802 0.6879 0.52161 0.0
O101 O 0.09928 0.68237 0.57788 0.0
O102 O 1.00878 0.6702 0.46645 0.0
O103 O 0.0914 0.65515 0.4771 0.0
O104 O 0.19665 0.66523 0.52942 0.0
O105 O 0.20105 0.64344 0.51472 0.0
O106 O 1.01392 0.62297 0.55313 0.0
O107 O 0.09269 0.62357 0.48862 0.0
O108 O 0.12278 0.64092 0.59204 0.0
O109 O 1.02725 0.65388 0.58111 0.0
O110 O 0.93274 0.64481 0.51272 0.0
O111 O 0.92401 0.66389 0.55117 0.0
H112 H 0.14311 0.70309 0.47793 0.0
H113 H 0.20856 0.72446 0.47076 0.0
H114 H 0.16454 0.72971 0.61516 0.0
H115 H 0.1013 0.70832 0.62203 0.0
H116 H 0.94113 0.6009 0.57056 0.0
H117 H 0.93552 0.57751 0.57122 0.0
H118 H 0.13626 0.57633 0.46261 0.0
H119 H 0.13973 0.59982 0.46122 0.0
La120 La 1.02096 0.41126 0.5312 0.0
La121 La 1.02938 0.3832 0.52786 0.0
C122 C 1.03375 0.43532 0.53813 0.0
C123 C 1.0422 0.44958 0.53893 0.0
C124 C 0.06454 0.45628 0.49853 0.0
C125 C 0.06565 0.46973 0.49761 0.0
C126 C 0.04468 0.47692 0.53708 0.0
C127 C 1.02448 0.47023 0.57784 0.0
C128 C 1.02283 0.4567 0.5787 0.0
C129 C 1.00476 0.40102 0.45019 0.0
C130 C 0.20075 0.39759 0.52515 0.0
C131 C 1.01945 0.35958 0.50719 0.0
C132 C 0.9674 0.34764 0.51168 0.0
C133 C 0.93768 0.34257 0.55401 0.0
C134 C 0.90021 0.3303 0.5573 0.0
C135 C 0.89172 0.32277 0.51841 0.0
C136 C 0.91912 0.3281 0.47606 0.0
C137 C 0.95646 0.34034 0.47282 0.0
C138 C 0.04957 0.39252 0.60944 0.0
C139 C 0.84609 0.39714 0.53984 0.0
O140 O 0.06313 0.42873 0.50278 0.0
O141 O 0.99974 0.42822 0.57139 0.0
O142 O 0.9597 0.41041 0.46769 0.0
O143 O 0.05697 0.39763 0.47792 0.0
O144 O 0.15474 0.40723 0.54319 0.0
O145 O 0.16255 0.38771 0.50744 0.0
O146 O 0.05308 0.3639 0.54301 0.0
O147 O 0.99388 0.36893 0.48215 0.0
O148 O 0.08641 0.38239 0.5918 0.0
O149 O 0.99728 0.39676 0.58268 0.0
O150 O 0.88995 0.38639 0.53134 0.0
O151 O 0.88502 0.40819 0.54577 0.0
H152 H 0.07959 0.45112 0.46718 0.0
H153 H 0.08287 0.4745 0.46576 0.0
H154 H 1.00752 0.47543 0.60886 0.0
H155 H 1.00494 0.45184 0.61031 0.0
H156 H 0.94539 0.34793 0.58468 0.0
H157 H 0.87873 0.32666 0.59045 0.0
H158 H 0.91496 0.32261 0.44535 0.0
H159 H 0.97983 0.34392 0.43982 0.0
La160 La 0.56476 0.9121 0.02765 0.0
La161 La 0.55776 0.88388 0.02975 0.0
C162 C 0.55129 0.93613 0.0206 0.0
C163 C 0.54151 0.95033 0.01758 0.0
C164 C 0.48531 0.95689 0.04897 0.0
C165 C 0.48257 0.97035 0.04977 0.0
C166 C 0.53644 0.97768 0.01941 0.0
C167 C 0.59106 0.97107 0.98715 0.0
C168 C 0.59344 0.95758 0.98623 0.0
C169 C 0.57781 0.90168 0.10853 0.0
C170 C 0.3864 0.89816 0.03044 0.0
C171 C 0.56691 0.86033 0.05109 0.0
C172 C 0.61647 0.84818 0.04655 0.0
C173 C 0.64952 0.84334 1.00443 0.0
C174 C 0.68479 0.83092 1.00095 0.0
C175 C 0.68705 0.82303 0.03943 0.0
C176 C 0.65666 0.82814 0.08163 0.0
C177 C 0.6219 0.84053 0.08508 0.0
C178 C 0.54395 0.8935 0.94758 0.0
C179 C 0.74037 0.89807 0.0205 0.0
O180 O 0.51537 0.92952 0.05444 0.0
O181 O 0.59224 0.92907 0.9893 0.0
O182 O 0.62207 0.91131 0.09224 0.0
O183 O 0.52742 0.89824 0.07988 0.0
O184 O 0.4327 0.90784 0.01286 0.0
O185 O 0.4241 0.88832 0.04855 0.0
O186 O 0.53119 0.86457 0.01581 0.0
O187 O 0.59587 0.86971 0.07495 0.0
O188 O 0.50971 0.88294 0.96321 0.0
O189 O 0.5922 0.89772 0.9764 0.0
O190 O 0.69682 0.88723 0.02778 0.0
O191 O 0.70131 0.90913 0.01508 0.0
H192 H 0.44429 0.95161 0.0736 0.0
H193 H 0.43828 0.975 0.07448 0.0
H194 H 0.6342 0.97631 0.96347 0.0
H195 H 0.63806 0.95283 0.9619 0.0
H196 H 0.64577 0.84898 0.97403 0.0
H197 H 0.70718 0.82732 0.96786 0.0
H198 H 0.65867 0.82248 0.11212 0.0
H199 H 0.59653 0.84398 0.11792 0.0
La200 La 0.52995 0.16948 0.02906 0.0
La201 La 0.5199 0.14138 0.03045 0.0
C202 C 0.52017 0.19327 1.01082 0.0
C203 C 0.4699 0.20535 0.01838 0.0
C204 C 0.477 0.21286 0.05734 0.0
C205 C 0.44208 0.22526 0.06079 0.0
C206 C 0.39929 0.23055 0.02535 0.0
C207 C 0.38935 0.22285 0.98713 0.0
C208 C 0.42457 0.21045 0.98361 0.0
C209 C 0.54611 0.15958 0.11032 0.0
C210 C 0.3461 0.15567 0.03957 0.0
C211 C 0.53095 0.11729 0.03686 0.0
C212 C 0.53832 0.10302 0.03782 0.0
C213 C 0.5579 0.09621 0.99736 0.0
C214 C 0.55897 0.08276 0.99684 0.0
C215 C 0.54069 0.07568 0.0368 0.0
C216 C 0.52308 0.08248 0.07757 0.0
C217 C 0.52152 0.096 0.07804 0.0
C218 C 0.50452 0.15208 0.9501 0.0
C219 C 0.70079 0.155 0.02458 0.0
O220 O 0.55858 0.18861 0.04454 0.0
O221 O 0.49037 0.18414 0.98617 0.0
O222 O 0.5842 0.16978 0.09418 0.0
O223 O 0.49514 0.15565 0.0824 0.0
O224 O 0.39074 0.16631 0.03032 0.0
O225 O 0.3842 0.14462 0.04642 0.0
O226 O 0.55488 0.12377 1.00039 0.0
O227 O 0.50303 0.12449 0.07117 0.0
O228 O 0.45867 0.14268 0.96708 0.0
O229 O 0.55709 0.15524 0.97806 0.0
O230 O 0.65501 0.14512 0.04105 0.0
O231 O 0.66271 0.16511 1.00848 0.0
H232 H 0.51215 0.20936 0.08467 0.0
H233 H 0.44991 0.2308 0.09106 0.0
H234 H 0.3576 0.2266 0.95895 0.0
H235 H 0.41921 0.20505 0.95279 0.0
H236 H 0.57109 0.10127 0.9657 0.0
H237 H 0.57421 0.0779 0.96494 0.0
H238 H 0.50822 0.07736 0.10897 0.0
H239 H 0.50587 0.10095 0.10973 0.0
La240 La 0.55395 0.16864 0.53053 0.0
La241 La 0.56271 0.14059 0.52884 0.0
C242 C 0.56446 0.19237 0.54965 0.0
C243 C 0.61357 0.20453 0.54097 0.0
C244 C 0.59944 0.21234 0.50364 0.0
C245 C 0.63418 0.22475 0.49965 0.0
C246 C 0.68379 0.22976 0.53293 0.0
C247 C 0.70047 0.22176 0.56942 0.0
C248 C 0.66548 0.20935 0.57348 0.0
C249 C 0.53797 0.15894 0.44896 0.0
C250 C 0.73757 0.15469 0.52017 0.0
C251 C 0.55013 0.11651 0.52234 0.0
C252 C 0.54169 0.10225 0.52128 0.0
C253 C 0.51832 0.09549 0.56141 0.0
C254 C 0.51697 0.08204 0.56202 0.0
C255 C 0.53866 0.0749 0.52248 0.0
C256 C 0.55995 0.08167 0.48197 0.0
C257 C 0.56186 0.09519 0.48144 0.0
C258 C 0.57791 0.15121 0.60947 0.0
C259 C 0.38314 0.15423 0.53402 0.0
O260 O 0.5219 0.18778 0.51728 0.0
O261 O 0.59788 0.1832 0.57261 0.0
O262 O 0.50054 0.16917 0.46526 0.0
O263 O 0.58841 0.15487 0.4769 0.0
O264 O 0.69353 0.16548 0.52776 0.0
O265 O 0.69877 0.14361 0.51478 0.0
O266 O 0.52119 0.12311 0.55777 0.0
O267 O 0.5837 0.1236 0.48897 0.0
O268 O 0.62296 0.14173 0.59263 0.0
O269 O 0.5259 0.15443 0.58138 0.0
O270 O 0.42928 0.14461 0.516 0.0
O271 O 0.42137 0.16407 0.55191 0.0
H272 H 0.55907 0.20906 0.47813 0.0
H273 H 0.62097 0.23051 0.4707 0.0
H274 H 0.73757 0.22528 0.59597 0.0
H275 H 0.67642 0.20371 0.60308 0.0
H276 H 0.50259 0.10059 0.59279 0.0
H277 H 0.49893 0.0772 0.59367 0.0
H278 H 0.57751 0.07651 0.45091 0.0
H279 H 0.58053 0.1001 0.45001 0.0
La280 La 0.51627 0.91128 0.52982 0.0
La281 La 0.5246 0.88324 0.52663 0.0
C282 C 0.52975 0.93531 0.53738 0.0
C283 C 0.53946 0.94951 0.54079 0.0
C284 C 0.59701 0.95611 0.51022 0.0
C285 C 0.59973 0.96957 0.50967 0.0
C286 C 0.54443 0.97687 0.53944 0.0
C287 C 0.48842 0.97021 0.57091 0.0
C288 C 0.48612 0.95671 0.57162 0.0
C289 C 0.50068 0.90107 0.4486 0.0
C290 C 0.6954 0.89763 0.52407 0.0
C291 C 0.51397 0.8596 0.50624 0.0
C292 C 0.46528 0.84741 0.51497 0.0
C293 C 0.47599 0.83994 0.5536 0.0
C294 C 0.44176 0.8275 0.55787 0.0
C295 C 0.39604 0.82213 0.52362 0.0
C296 C 0.38266 0.82979 0.48577 0.0
C297 C 0.41717 0.84223 0.48143 0.0
C298 C 0.54328 0.89251 0.60847 0.0
C299 C 0.34117 0.89718 0.53799 0.0
O300 O 0.56587 0.92875 0.50346 0.0
O301 O 0.48866 0.9282 0.56846 0.0
O302 O 0.45646 0.91058 0.46582 0.0
O303 O 0.55235 0.89763 0.47651 0.0
O304 O 0.64919 0.9071 0.54311 0.0
O305 O 0.65708 0.88795 0.5052 0.0
O306 O 0.55796 0.86407 0.53823 0.0
O307 O 0.47927 0.86885 0.48424 0.0
O308 O 0.57924 0.88227 0.5913 0.0
O309 O 0.49191 0.8968 0.58137 0.0
O310 O 0.38508 0.8864 0.53028 0.0
O311 O 0.38006 0.90825 0.54338 0.0
H312 H 0.63914 0.95087 0.48602 0.0
H313 H 0.64511 0.97426 0.48561 0.0
H314 H 0.44414 0.97541 0.59411 0.0
H315 H 0.44042 0.95193 0.59529 0.0
H316 H 0.51326 0.84352 0.58001 0.0
H317 H 0.4523 0.822 0.58784 0.0
H318 H 0.34861 0.82599 0.45847 0.0
H319 H 0.40896 0.84761 0.45089 0.0
H320 H 0.34659 0.37723 0.02323 0.0
H321 H 0.3485 0.41871 0.01878 0.0
H322 H 0.50161 0.37719 0.02472 0.0
H323 H 0.50251 0.41871 0.02192 0.0
H324 H 0.78833 0.41481 0.98665 0.0
H325 H 0.63446 0.41447 0.98173 0.0
H326 H 0.61347 0.38161 0.0709 0.0
H327 H 0.7679 0.38171 0.07442 0.0
C328 C 0.37995 0.38635 0.02261 0.0
C329 C 0.33466 0.39797 0.0207 0.0
C330 C 0.46909 0.38634 0.02385 0.0
C331 C 0.51547 0.39795 0.02357 0.0
C332 C 0.46987 0.40955 0.02141 0.0
C333 C 0.381 0.40956 0.01982 0.0
C334 C 0.75092 0.40752 1.0053 0.0
C335 C 0.79081 0.3983 0.03099 0.0
C336 C 0.66224 0.40735 1.00266 0.0
C337 C 0.61058 0.39802 0.02594 0.0
C338 C 0.65072 0.38883 0.05183 0.0
C339 C 0.73953 0.38894 0.05417 0.0
H340 H 0.29593 0.63897 0.07363 0.0
H341 H 0.31773 0.67124 0.98212 0.0
H342 H 0.44949 0.63944 0.07929 0.0
H343 H 0.47211 0.67145 0.98643 0.0
H344 H 0.73863 0.67628 0.03483 0.0
H345 H 0.58371 0.67631 0.03252 0.0
H346 H 0.58193 0.63484 0.0404 0.0
H347 H 0.7357 0.63487 0.04432 0.0
C348 C 0.33359 0.6461 0.05428 0.0
C349 C 0.2941 0.65504 0.0273 0.0
C350 C 0.42215 0.64634 0.05736 0.0
C351 C 0.47425 0.65547 0.03327 0.0
C352 C 0.43455 0.66439 1.00612 0.0
C353 C 0.34577 0.66421 1.00331 0.0
C354 C 0.70508 0.66717 0.03646 0.0
C355 C 0.75013 0.65558 0.03998 0.0
C356 C 0.61599 0.66717 0.03471 0.0
C357 C 0.56934 0.65557 0.03613 0.0
C358 C 0.61468 0.644 0.03998 0.0
C359 C 0.70348 0.64401 0.04203 0.0
H360 H 0.78923 0.63803 0.48426 0.0
H361 H 0.76874 0.67059 0.57466 0.0
H362 H 0.63529 0.63838 0.47948 0.0
H363 H 0.6143 0.67068 0.57122 0.0
H364 H 0.34728 0.67532 0.52405 0.0
H365 H 0.50233 0.67537 0.52535 0.0
H366 H 0.50333 0.63387 0.51956 0.0
H367 H 0.34922 0.63387 0.51666 0.0
C368 C 0.75182 0.6452 0.50349 0.0
C369 C 0.79171 0.65427 0.52989 0.0
C370 C 0.6631 0.64537 0.50093 0.0
C371 C 0.6114 0.65456 0.52498 0.0
C372 C 0.65156 0.66359 0.55155 0.0
C373 C 0.74039 0.66347 0.55385 0.0
C374 C 0.38065 0.66621 0.52273 0.0
C375 C 0.33532 0.6546 0.52007 0.0
C376 C 0.46981 0.66622 0.52387 0.0
C377 C 0.51624 0.65462 0.5227 0.0
C378 C 0.47064 0.64303 0.51976 0.0
C379 C 0.38172 0.64302 0.51831 0.0
H380 H 0.73889 0.37626 0.53651 0.0
H381 H 0.7372 0.41771 0.54366 0.0
H382 H 0.584 0.37626 0.53398 0.0
H383 H 0.58356 0.41776 0.53945 0.0
H384 H 0.29743 0.41392 0.57225 0.0
H385 H 0.45087 0.41344 0.5782 0.0
H386 H 0.47284 0.38088 0.48759 0.0
H387 H 0.31854 0.3811 0.48307 0.0
C388 C 0.70561 0.38538 0.53757 0.0
C389 C 0.75097 0.39698 0.54052 0.0
C390 C 0.61656 0.38539 0.5357 0.0
C391 C 0.57031 0.39701 0.53637 0.0
C392 C 0.61598 0.40859 0.53963 0.0
C393 C 0.70471 0.40856 0.54186 0.0
C394 C 0.33494 0.40667 0.55344 0.0
C395 C 0.2953 0.39757 0.52706 0.0
C396 C 0.42343 0.40642 0.5567 0.0
C397 C 0.4753 0.39713 0.53334 0.0
C398 C 0.43545 0.38806 0.50673 0.0
C399 C 0.34673 0.38825 0.50379 0.0
H400 H 0.84755 0.87718 0.02105 0.0
H401 H 0.84917 0.91868 0.01864 0.0
H402 H 1.00264 0.87713 0.02213 0.0
H403 H 1.0033 0.91866 0.02133 0.0
H404 H 0.28908 0.91484 0.98507 0.0
H405 H 0.13506 0.91453 0.98047 0.0
H406 H 0.11474 0.8814 0.06838 0.0
H407 H 0.26919 0.88147 0.07161 0.0
C408 C 0.88085 0.8863 0.02081 0.0
C409 C 0.83545 0.89793 0.01959 0.0
C410 C 0.97003 0.88629 0.0218 0.0
C411 C 1.01637 0.8979 0.02195 0.0
C412 C 0.97068 0.90951 0.02049 0.0
C413 C 0.88174 0.90952 0.01916 0.0
C414 C 0.25178 0.90749 1.00349 0.0
C415 C 0.29185 0.89819 0.02876 0.0
C416 C 0.16304 0.90734 1.00104 0.0
C417 C 0.11153 0.89794 0.02407 0.0
C418 C 0.15186 0.88867 0.04951 0.0
C419 C 0.2407 0.88877 0.05168 0.0
H420 H 0.24776 0.17314 0.9988 0.0
H421 H 0.2297 0.13879 0.08025 0.0
H422 H 0.09415 0.17278 0.99387 0.0
H423 H 0.07515 0.13879 0.07789 0.0
H424 H 0.80797 0.13443 0.032 0.0
H425 H 0.96237 0.13469 0.03558 0.0
H426 H 0.96052 0.17621 0.02808 0.0
H427 H 0.80745 0.17578 0.0217 0.0
C428 C 0.21065 0.16563 0.01645 0.0
C429 C 0.25125 0.156 0.03995 0.0
C430 C 0.12194 0.16544 0.01384 0.0
C431 C 0.07066 0.15574 0.03543 0.0
C432 C 0.11162 0.14627 0.05983 0.0
C433 C 0.2006 0.14633 0.06165 0.0
C434 C 0.84085 0.1436 0.03082 0.0
C435 C 0.79528 0.15507 0.02622 0.0
C436 C 0.9297 0.14378 0.03333 0.0
C437 C 0.97545 0.15548 0.03227 0.0
C438 C 0.92906 0.16695 0.02802 0.0
C439 C 0.84062 0.16673 0.02459 0.0
H440 H 0.26561 0.17072 0.57625 0.0
H441 H 0.28615 0.13791 0.48702 0.0
H442 H 0.11127 0.17096 0.57198 0.0
H443 H 0.13258 0.1384 0.48133 0.0
H444 H 0.84647 0.13413 0.51655 0.0
H445 H 1.00014 0.13409 0.52051 0.0
H446 H 0.99977 0.17559 0.52571 0.0
H447 H 0.84479 0.17559 0.5234 0.0
C448 C 0.23728 0.16358 0.55557 0.0
C449 C 0.28857 0.15425 0.53221 0.0
C450 C 0.14854 0.16378 0.55277 0.0
C451 C 0.10849 0.15471 0.52624 0.0
C452 C 0.1602 0.14542 0.50278 0.0
C453 C 0.24875 0.14516 0.50589 0.0
C454 C 0.87896 0.14328 0.51827 0.0
C455 C 0.83269 0.15487 0.51956 0.0
C456 C 0.96771 0.14326 0.52033 0.0
C457 C 1.01342 0.15483 0.5234 0.0
C458 C 0.96717 0.16645 0.5241 0.0
C459 C 0.87807 0.16647 0.52236 0.0
H460 H 0.79227 0.91378 0.57178 0.0
H461 H 0.81315 0.88125 0.48129 0.0
H462 H 0.94583 0.91329 0.57743 0.0
H463 H 0.96753 0.88101 0.4856 0.0
H464 H 0.23406 0.87629 0.53423 0.0
H465 H 0.07911 0.87627 0.53187 0.0
H466 H 0.07828 0.91776 0.53828 0.0
H467 H 0.23201 0.91772 0.54224 0.0
C468 C 0.82973 0.90659 0.55264 0.0
C469 C 0.78999 0.89758 0.52595 0.0
C470 C 0.91829 0.90634 0.55573 0.0
C471 C 0.97013 0.89713 0.53192 0.0
C472 C 0.93017 0.88814 0.50506 0.0
C473 C 0.8414 0.88833 0.50225 0.0
C474 C 0.20071 0.8854 0.53553 0.0
C475 C 0.246 0.897 0.53866 0.0
C476 C 0.11161 0.88541 0.53375 0.0
C477 C 0.06522 0.89702 0.53476 0.0
C478 C 0.11082 0.90859 0.53819 0.0
C479 C 0.1996 0.90858 0.54027 0.0
H480 H 0.07158 0.5605 0.96618 0.0
H481 H 1.02141 0.55814 0.11113 0.0
H482 H 0.07204 0.53718 0.96133 0.0
H483 H 1.01702 0.5348 0.106 0.0
H484 H 0.10108 0.49304 0.08815 0.0
H485 H 0.1034 0.51639 0.09251 0.0
H486 H 0.98459 0.51862 0.96673 0.0
H487 H 0.98384 0.49519 0.96208 0.0
C488 C 0.06085 0.55504 0.99714 0.0
C489 C 0.04705 0.56134 0.03913 0.0
C490 C 0.05979 0.54159 0.99425 0.0
C491 C 0.04447 0.53396 0.03322 0.0
C492 C 1.03022 0.54026 0.0752 0.0
C493 C 1.03161 0.55372 0.07812 0.0
C494 C 0.07489 0.4985 0.06152 0.0
C495 C 1.04192 0.49217 0.02483 0.0
C496 C 0.07602 0.51195 0.06408 0.0
C497 C 0.0438 0.51954 0.03014 0.0
C498 C 1.01119 0.51319 0.99327 0.0
C499 C 1.01057 0.49971 0.99058 0.0
H500 H 0.10313 0.4944 0.59705 0.0
H501 H 0.98038 0.49213 0.47264 0.0
H502 H 0.10229 0.51782 0.59231 0.0
H503 H 0.97801 0.51547 0.4682 0.0
H504 H 0.06021 0.55718 0.44827 0.0
H505 H 0.06453 0.53385 0.45358 0.0
H506 H 1.01496 0.53639 0.59853 0.0
H507 H 1.01539 0.55971 0.59345 0.0
C508 C 0.07517 0.49889 0.56891 0.0
C509 C 1.04232 0.49131 0.53512 0.0
C510 C 0.07451 0.51237 0.56617 0.0
C511 C 1.04038 0.51868 0.52972 0.0
C512 C 1.0066 0.51106 0.49627 0.0
C513 C 1.00775 0.49761 0.49888 0.0
C514 C 0.05118 0.5528 0.48137 0.0
C515 C 1.03723 0.56047 0.52036 0.0
C516 C 0.05254 0.53934 0.4844 0.0
C517 C 1.03978 0.53309 0.52652 0.0
C518 C 1.02601 0.54077 0.5655 0.0
C519 C 1.02495 0.55422 0.56249 0.0
H520 H 0.55602 0.99528 0.9499 0.0
H521 H 0.51862 0.99296 0.09538 0.0
H522 H 0.55915 1.01863 0.95476 0.0
H523 H 0.51705 1.0163 0.10009 0.0
H524 H 0.60344 0.05846 0.09618 0.0
H525 H 0.60343 0.03502 0.09212 0.0
H526 H 0.47143 0.03684 0.9704 0.0
H527 H 0.47283 0.06019 0.97417 0.0
C528 C 0.54841 0.99971 0.98298 0.0
C529 C 0.53688 0.9921 0.02219 0.0
C530 C 0.54906 1.01318 0.98577 0.0
C531 C 0.53799 1.01949 0.02785 0.0
C532 C 0.5267 1.01187 0.06706 0.0
C533 C 0.52631 0.99841 0.06429 0.0
C534 C 0.57393 0.05385 0.06873 0.0
C535 C 0.53866 0.06128 0.03537 0.0
C536 C 0.57376 0.04037 0.06638 0.0
C537 C 0.53779 0.03391 0.03075 0.0
C538 C 0.50149 0.04137 0.9978 0.0
C539 C 0.50209 0.05483 1.00002 0.0
H540 H 0.4812 0.05761 0.46161 0.0
H541 H 0.6011 0.05951 0.58695 0.0
H542 H 0.48152 0.03417 0.46565 0.0
H543 H 0.60304 0.03615 0.59069 0.0
H544 H 0.52013 0.99444 0.60897 0.0
H545 H 0.51644 1.01779 0.60429 0.0
H546 H 0.56798 1.01555 0.45937 0.0
H547 H 0.56676 0.99221 0.4638 0.0
C548 C 0.50843 0.05303 0.48981 0.0
C549 C 0.54062 0.06051 0.52406 0.0
C550 C 0.50881 0.03955 0.49215 0.0
C551 C 0.54201 0.03313 0.52864 0.0
C552 C 0.57515 0.04065 0.56255 0.0
C553 C 0.57425 0.0541 0.56035 0.0
C554 C 0.52969 0.99889 0.57599 0.0
C555 C 0.5439 0.9913 0.53682 0.0
C556 C 0.52873 1.01236 0.57333 0.0
C557 C 0.54224 1.0187 0.53142 0.0
C558 C 0.55634 1.0111 0.49225 0.0
C559 C 0.55695 0.99764 0.4949 0.0
H560 H 0.17448 0.30584 0.97345 0.0
H561 H 0.28699 0.31054 0.10022 0.0
H562 H 0.22589 0.28374 0.96864 0.0
H563 H 0.33437 0.2883 0.0966 0.0
H564 H 0.48043 0.25166 0.0571 0.0
H565 H 0.43338 0.27394 0.05944 0.0
H566 H 0.202 0.26289 1.00046 0.0
H567 H 0.2499 0.24057 0.99763 0.0
C568 C 0.21054 0.30222 1.00024 0.0
C569 C 0.22629 0.31009 0.03726 0.0
C570 C 0.23904 0.28943 0.99781 0.0
C571 C 0.28417 0.28409 0.03232 0.0
C572 C 0.30073 0.29202 0.06905 0.0
C573 C 0.27246 0.3048 0.07142 0.0
C574 C 0.41905 0.25393 0.04504 0.0
C575 C 0.3689 0.24422 0.0274 0.0
C576 C 0.39192 0.26677 0.04637 0.0
C577 C 0.31352 0.27034 0.03027 0.0
C578 C 0.26334 0.26062 0.01255 0.0
C579 C 0.29072 0.24777 1.01104 0.0
H580 H 0.82504 0.81321 0.98698 0.0
H581 H 0.61765 0.80179 0.08308 0.0
H582 H 0.87464 0.79097 0.98198 0.0
H583 H 0.66617 0.77961 0.07773 0.0
H584 H 0.82207 0.74321 0.09347 0.0
H585 H 0.77471 0.76547 0.09794 0.0
H586 H 0.84408 0.77003 0.95507 0.0
H587 H 0.89545 0.74795 0.95108 0.0
C588 C 0.78956 0.80595 1.00679 0.0
C589 C 0.71761 0.80938 0.0357 0.0
C590 C 0.81791 0.79315 1.00387 0.0
C591 C 0.77485 0.78337 0.02958 0.0
C592 C 0.70237 0.78683 0.0581 0.0
C593 C 0.67435 0.79961 0.06116 0.0
C594 C 0.82805 0.74896 0.06302 0.0
C595 C 0.86285 0.74366 0.02191 0.0
C596 C 0.79978 0.76175 0.06546 0.0
C597 C 0.80516 0.76968 0.02686 0.0
C598 C 0.83963 0.76435 0.9857 0.0
C599 C 0.86804 0.75156 0.98328 0.0
H600 H 0.16932 0.74671 0.47555 0.0
H601 H 0.29044 0.74199 0.59975 0.0
H602 H 0.21989 0.76885 0.47023 0.0
H603 H 0.33717 0.76428 0.59566 0.0
H604 H 0.48014 0.8011 0.55369 0.0
H605 H 0.43363 0.77878 0.55689 0.0
H606 H 0.19711 0.78964 0.50296 0.0
H607 H 0.24432 0.81199 0.4993 0.0
C608 C 0.2071 0.75034 0.50166 0.0
C609 C 0.22552 0.74244 0.53811 0.0
C610 C 0.23513 0.76315 0.49895 0.0
C611 C 0.28247 0.7685 0.53262 0.0
C612 C 0.30172 0.76055 0.56877 0.0
C613 C 0.27387 0.74775 0.57142 0.0
C614 C 0.41776 0.79878 0.54294 0.0
C615 C 0.36598 0.80844 0.52642 0.0
C616 C 0.39096 0.78592 0.54477 0.0
C617 C 0.31131 0.78228 0.53026 0.0
C618 C 0.25943 0.79196 0.51376 0.0
C619 C 0.28644 0.80483 0.51177 0.0
H620 H 0.78853 0.3103 0.46177 0.0
H621 H 0.91856 0.30444 0.58256 0.0
H622 H 0.74084 0.28803 0.46473 0.0
H623 H 0.86744 0.28232 0.58673 0.0
H624 H 0.83882 0.23947 0.5541 0.0
H625 H 0.88718 0.26178 0.55129 0.0
H626 H 0.64582 0.27341 0.50465 0.0
H627 H 0.598 0.25115 0.50711 0.0
C628 C 0.80686 0.3043 0.4891 0.0
C629 C 0.85783 0.30928 0.52184 0.0
C630 C 0.77854 0.29151 0.49111 0.0
C631 C 0.80012 0.28325 0.52597 0.0
C632 C 0.85029 0.28827 0.559 0.0
C633 C 0.87867 0.30107 0.55697 0.0
C634 C 0.79588 0.24679 0.54344 0.0
C635 C 0.71453 0.24342 0.53062 0.0
C636 C 0.82357 0.25963 0.54192 0.0
C637 C 0.77065 0.26951 0.5277 0.0
C638 C 0.68924 0.26611 0.51499 0.0
C639 C 0.6617 0.25329 0.51637 0.0
H640 H 0.19288 0.40681 0.17099 0.0
H641 H 0.94284 0.39055 0.16009 0.0
H642 H 0.17479 0.40437 0.25305 0.0
H643 H 0.92401 0.38825 0.24262 0.0
H644 H 0.88908 0.40623 0.38959 0.0
H645 H 0.90682 0.4042 0.30734 0.0
H646 H 0.15773 0.38806 0.3164 0.0
H647 H 0.1393 0.38995 0.39905 0.0
C648 C 0.13438 0.40256 0.18615 0.0
C649 C 0.06921 0.39892 0.15905 0.0
C650 C 0.12415 0.40111 0.23322 0.0
C651 C 0.04783 0.39616 0.25459 0.0
C652 C 0.98338 0.39218 0.22732 0.0
C653 C 0.99429 0.39343 0.18003 0.0
C654 C 0.94752 0.40206 0.37407 0.0
C655 C 1.01288 0.3983 0.40083 0.0
C656 C 0.95755 0.40084 0.3269 0.0
C657 C 1.03384 0.39601 0.30511 0.0
C658 C 0.0984 0.39191 0.33203 0.0
C659 C 0.08771 0.39292 0.37939 0.0
H660 H 0.94336 0.64475 0.16643 0.0
H661 H 0.16472 0.66943 0.16243 0.0
H662 H 0.94778 0.6426 0.24916 0.0
H663 H 0.16864 0.66736 0.24364 0.0
H664 H 0.05163 0.67848 0.38581 0.0
H665 H 0.05518 0.67644 0.30421 0.0
H666 H 0.05392 0.63513 0.31619 0.0
H667 H 0.05203 0.63721 0.39936 0.0
C668 C 0.99355 0.64952 0.18295 0.0
C669 C 0.05283 0.65743 0.15788 0.0
C670 C 0.9963 0.64826 0.23023 0.0
C671 C 0.05814 0.65493 0.25306 0.0
C672 C 0.11964 0.66222 0.22732 0.0
C673 C 0.11716 0.66342 0.18063 0.0
C674 C 0.05284 0.66892 0.37128 0.0
C675 C 0.05237 0.65801 0.39916 0.0
C676 C 0.05481 0.66776 0.32436 0.0
C677 C 0.05474 0.65563 0.30356 0.0
C678 C 0.05369 0.64461 0.33124 0.0
C679 C 0.05355 0.64579 0.37869 0.0
H680 H 0.88918 0.6459 0.88914 0.0
H681 H 0.13942 0.66225 0.89859 0.0
H682 H 0.90709 0.64785 0.80686 0.0
H683 H 0.15806 0.66404 0.81592 0.0
H684 H 0.94358 0.6617 0.6597 0.0
H685 H 0.92472 0.66392 0.74227 0.0
H686 H 0.17465 0.64757 0.75256 0.0
H687 H 0.19273 0.64519 0.67043 0.0
C688 C 0.94768 0.65006 0.8736 0.0
C689 C 1.01297 0.65388 0.90036 0.0
C690 C 0.9578 0.65123 0.82643 0.0
C691 C 1.03414 0.65605 0.80465 0.0
C692 C 0.09869 0.6602 0.83156 0.0
C693 C 0.08789 0.65924 0.87891 0.0
C694 C 0.99482 0.65874 0.67962 0.0
C695 C 0.0695 0.65321 0.65858 0.0
C696 C 0.9839 0.65995 0.72692 0.0
C697 C 0.04812 0.6559 0.75414 0.0
C698 C 0.1242 0.65089 0.73274 0.0
C699 C 0.13442 0.64947 0.68565 0.0
H700 H 0.17233 0.38511 0.66163 0.0
H701 H 0.9391 0.40712 0.66757 0.0
H702 H 0.1767 0.38719 0.74283 0.0
H703 H 0.94353 0.40922 0.75025 0.0
H704 H 1.03281 0.41577 0.90016 0.0
H705 H 1.03576 0.41776 0.81703 0.0
H706 H 0.07869 0.37692 0.8042 0.0
H707 H 0.07447 0.37497 0.88592 0.0
C708 C 0.12217 0.39053 0.6803 0.0
C709 C 0.05464 0.39577 0.65808 0.0
C710 C 0.12475 0.39171 0.72701 0.0
C711 C 0.05992 0.3982 0.75331 0.0
C712 C 0.99461 0.40416 0.73096 0.0
C713 C 0.99189 0.40294 0.68367 0.0
C714 C 0.04412 0.40731 0.87929 0.0
C715 C 0.05438 0.39524 0.89951 0.0
C716 C 0.04482 0.40841 0.83183 0.0
C717 C 0.05769 0.3975 0.80385 0.0
C718 C 0.06945 0.38555 0.82448 0.0
C719 C 0.06709 0.38442 0.87144 0.0
H720 H 0.44181 0.89045 0.15821 0.0
H721 H 0.69235 0.90642 0.17004 0.0
H722 H 0.42175 0.88817 0.24075 0.0
H723 H 0.67306 0.904 0.25208 0.0
H724 H 0.63486 0.88972 0.39808 0.0
H725 H 0.65412 0.8877 0.31549 0.0
H726 H 0.4047 0.90425 0.30529 0.0
H727 H 0.38616 0.90641 0.3875 0.0
C728 C 0.49312 0.89326 0.17836 0.0
C729 C 0.56853 0.89866 0.15765 0.0
C730 C 0.48151 0.89203 0.22564 0.0
C731 C 0.54574 0.89593 0.25315 0.0
C732 C 0.62257 0.90079 0.23205 0.0
C733 C 0.63349 0.90223 0.185 0.0
C734 C 0.58377 0.89275 0.37818 0.0
C735 C 0.50915 0.89829 0.39929 0.0
C736 C 0.59492 0.89166 0.33087 0.0
C737 C 0.53104 0.89585 0.30365 0.0
C738 C 0.4549 0.90083 0.32509 0.0
C739 C 0.44442 0.90212 0.37223 0.0
H740 H 0.67313 0.16374 0.16454 0.0
H741 H 0.42004 0.14761 0.16612 0.0
H742 H 0.67143 0.16076 0.24606 0.0
H743 H 0.4176 0.14476 0.24848 0.0
H744 H 0.41044 0.16302 0.39512 0.0
H745 H 0.41224 0.16038 0.31343 0.0
H746 H 0.66725 0.14483 0.31001 0.0
H747 H 0.66469 0.14735 0.39254 0.0
C748 C 0.61744 0.15936 0.18232 0.0
C749 C 0.5466 0.15596 0.15884 0.0
C750 C 0.61669 0.15759 0.22913 0.0
C751 C 0.54437 0.15255 0.25413 0.0
C752 C 0.47426 0.14873 0.23039 0.0
C753 C 0.4757 0.1503 0.18318 0.0
C754 C 0.4664 0.15881 0.37706 0.0
C755 C 0.53754 0.15544 0.40032 0.0
C756 C 0.46722 0.15723 0.33016 0.0
C757 C 0.53991 0.15243 0.30486 0.0
C758 C 0.6103 0.14863 0.32835 0.0
C759 C 0.60879 0.15 0.37565 0.0
H760 H 0.38814 0.14739 0.88942 0.0
H761 H 0.64105 0.16273 0.89901 0.0
H762 H 0.40628 0.14937 0.80722 0.0
H763 H 0.65983 0.16461 0.81635 0.0
H764 H 0.44352 0.16261 0.65993 0.0
H765 H 0.42508 0.16495 0.74245 0.0
H766 H 0.67514 0.14862 0.75264 0.0
H767 H 0.69292 0.14619 0.67057 0.0
C768 C 0.44729 0.15136 0.87394 0.0
C769 C 0.51322 0.15487 0.90076 0.0
C770 C 0.45757 0.15255 0.82676 0.0
C771 C 0.53465 0.1571 0.80496 0.0
C772 C 0.59985 0.16097 0.83194 0.0
C773 C 0.58897 0.15997 0.87932 0.0
C774 C 0.49491 0.1597 0.67981 0.0
C775 C 0.56955 0.15417 0.65872 0.0
C776 C 0.48422 0.16096 0.72711 0.0
C777 C 0.54855 0.15694 0.75437 0.0
C778 C 0.62458 0.15193 0.73288 0.0
C779 C 0.63463 0.15048 0.68578 0.0
H780 H 0.42661 0.90547 0.66812 0.0
H781 H 0.67372 0.88721 0.65831 0.0
H782 H 0.43315 0.90759 0.75054 0.0
H783 H 0.68111 0.8895 0.73926 0.0
H784 H 0.60366 0.87651 0.88412 0.0
H785 H 0.60595 0.87835 0.80237 0.0
H786 H 0.50833 0.91705 0.81638 0.0
H787 H 0.50657 0.91511 0.89932 0.0
C788 C 0.48292 0.90217 0.68336 0.0
C789 C 0.54911 0.896 0.65679 0.0
C790 C 0.48684 0.90339 0.73055 0.0
C791 C 0.55707 0.89849 0.75187 0.0
C792 C 0.62511 0.8931 0.72446 0.0
C793 C 0.62101 0.89183 0.67785 0.0
C794 C 0.58428 0.88551 0.86976 0.0
C795 C 0.55636 0.89573 0.89806 0.0
C796 C 0.58552 0.88659 0.82278 0.0
C797 C 0.55768 0.89788 0.80241 0.0
C798 C 0.53007 0.90821 0.83079 0.0
C799 C 0.53004 0.90717 0.8782 0.0
loop_
_geom_bond_atom_site_label_1
_geom_bond_atom_site_label_2
_geom_bond_distance
_geom_bond_site_symmetry_2
_ccdc_geom_bond_type
La0 C2 2.928 1_455 S
La0 O20 2.521 . S
La0 O21 2.622 1_454 S
La0 O22 2.554 . S
La0 O23 2.757 . S
La0 O24 2.470 1_455 S
La0 O29 2.482 1_554 S
La0 O31 2.503 . S
La1 C11 2.928 . S
La1 O23 2.482 . S
La1 O25 2.503 1_455 S
La1 O26 2.521 1_554 S
La1 O27 2.628 . S
La1 O28 2.554 1_554 S
La1 O29 2.757 1_554 S
La1 O30 2.470 1_554 S
C2 La0 2.928 1_655 S
C2 C3 1.503 . S
C2 O20 1.261 1_655 S
C2 O21 1.242 1_554 S
C3 C2 1.503 . S
C3 C4 1.394 . S
C3 C8 1.373 1_554 S
C4 C3 1.394 . S
C4 C5 1.380 . S
C4 H32 0.930 . S
C5 C4 1.380 . S
C5 C6 1.376 . S
C5 H33 0.930 . S
C6 C5 1.376 . S
C6 C7 1.370 1_554 S
C7 C6 1.370 1_556 S
C7 C8 1.396 . S
C7 H34 0.929 . S
C8 C3 1.373 1_556 S
C8 C7 1.396 . S
C8 H35 0.929 . S
C9 O22 1.240 . S
C9 O23 1.289 . S
C10 O24 1.258 . S
C10 O25 1.256 . S
C11 La1 2.928 . S
C11 C12 1.503 . S
C11 O26 1.261 1_554 S
C11 O27 1.243 . S
C12 C11 1.503 . S
C12 C13 1.394 1_554 S
C12 C17 1.373 . S
C13 C12 1.394 1_556 S
C13 C14 1.380 . S
C13 H36 0.930 . S
C14 C13 1.380 . S
C14 C15 1.376 1_556 S
C14 H37 0.930 . S
C15 C14 1.376 1_554 S
C15 C16 1.370 . S
C16 C15 1.370 . S
C16 C17 1.396 . S
C16 H38 0.929 . S
C17 C12 1.373 . S
C17 C16 1.396 . S
C17 H39 0.929 . S
C18 O28 1.240 . S
C18 O29 1.289 . S
C19 O30 1.258 1_554 S
C19 O31 1.256 . S
O20 La0 2.521 . S
O20 C2 1.261 1_455 S
O21 La0 2.622 1_656 S
O21 C2 1.242 1_556 S
O22 La0 2.554 . S
O22 C9 1.240 . S
O23 La0 2.757 . S
O23 La1 2.482 . S
O23 C9 1.289 . S
O24 La0 2.470 1_655 S
O24 C10 1.258 . S
O25 La1 2.503 1_655 S
O25 C10 1.256 . S
O26 La1 2.521 1_556 S
O26 C11 1.261 1_556 S
O27 La1 2.628 . S
O27 C11 1.243 . S
O28 La1 2.554 1_556 S
O28 C18 1.240 . S
O29 La0 2.482 1_556 S
O29 La1 2.757 1_556 S
O29 C18 1.289 . S
O30 La1 2.470 1_556 S
O30 C19 1.258 1_556 S
O31 La0 2.503 . S
O31 C19 1.256 . S
H32 C4 0.930 . S
H33 C5 0.930 . S
H34 C7 0.929 . S
H35 C8 0.929 . S
H36 C13 0.930 . S
H37 C14 0.930 . S
H38 C16 0.929 . S
H39 C17 0.929 . S
La40 C42 2.928 . S
La40 O60 2.521 . S
La40 O61 2.628 1_554 S
La40 O62 2.554 . S
La40 O63 2.757 . S
La40 O64 2.470 . S
La40 O69 2.482 1_554 S
La40 O71 2.503 1_655 S
La41 C51 2.928 1_655 S
La41 O63 2.482 . S
La41 O65 2.503 . S
La41 O66 2.521 1_554 S
La41 O67 2.622 1_655 S
La41 O68 2.554 1_554 S
La41 O69 2.757 1_554 S
La41 O70 2.470 1_654 S
C42 La40 2.928 . S
C42 C43 1.503 . S
C42 O60 1.261 . S
C42 O61 1.243 1_554 S
C43 C42 1.503 . S
C43 C44 1.394 . S
C43 C48 1.373 1_554 S
C44 C43 1.394 . S
C44 C45 1.380 . S
C44 H72 0.930 . S
C45 C44 1.380 . S
C45 C46 1.376 . S
C45 H73 0.930 . S
C46 C45 1.376 . S
C46 C47 1.370 1_554 S
C47 C46 1.370 1_556 S
C47 C48 1.396 . S
C47 H74 0.929 . S
C48 C43 1.373 1_556 S
C48 C47 1.396 . S
C48 H75 0.929 . S
C49 O62 1.240 . S
C49 O63 1.289 . S
C50 O64 1.258 . S
C50 O65 1.256 . S
C51 La41 2.928 1_455 S
C51 C52 1.503 . S
C51 O66 1.261 1_454 S
C51 O67 1.242 . S
C52 C51 1.503 . S
C52 C53 1.394 1_554 S
C52 C57 1.373 . S
C53 C52 1.394 1_556 S
C53 C54 1.380 . S
C53 H76 0.930 . S
C54 C53 1.380 . S
C54 C55 1.376 1_556 S
C54 H77 0.930 . S
C55 C54 1.376 1_554 S
C55 C56 1.370 . S
C56 C55 1.370 . S
C56 C57 1.396 . S
C56 H78 0.929 . S
C57 C52 1.373 . S
C57 C56 1.396 . S
C57 H79 0.929 . S
C58 O68 1.240 . S
C58 O69 1.289 . S
C59 O70 1.258 1_554 S
C59 O71 1.256 . S
O60 La40 2.521 . S
O60 C42 1.261 . S
O61 La40 2.628 1_556 S
O61 C42 1.243 1_556 S
O62 La40 2.554 . S
O62 C49 1.240 . S
O63 La40 2.757 . S
O63 La41 2.482 . S
O63 C49 1.289 . S
O64 La40 2.470 . S
O64 C50 1.258 . S
O65 La41 2.503 . S
O65 C50 1.256 . S
O66 La41 2.521 1_556 S
O66 C51 1.261 1_656 S
O67 La41 2.622 1_455 S
O67 C51 1.242 . S
O68 La41 2.554 1_556 S
O68 C58 1.240 . S
O69 La40 2.482 1_556 S
O69 La41 2.757 1_556 S
O69 C58 1.289 . S
O70 La41 2.470 1_456 S
O70 C59 1.258 1_556 S
O71 La40 2.503 1_455 S
O71 C59 1.256 . S
H72 C44 0.930 . S
H73 C45 0.930 . S
H74 C47 0.929 . S
H75 C48 0.929 . S
H76 C53 0.930 . S
H77 C54 0.930 . S
H78 C56 0.929 . S
H79 C57 0.929 . S
La80 C82 2.928 . S
La80 O100 2.521 . S
La80 O101 2.628 . S
La80 O102 2.554 . S
La80 O103 2.757 . S
La80 O104 2.470 . S
La80 O109 2.482 . S
La80 O111 2.503 1_455 S
La81 C91 2.928 1_455 S
La81 O103 2.482 . S
La81 O105 2.503 . S
La81 O106 2.521 . S
La81 O107 2.624 1_455 S
La81 O108 2.554 . S
La81 O109 2.757 . S
La81 O110 2.470 1_455 S
C82 La80 2.928 . S
C82 C83 1.503 . S
C82 O100 1.261 . S
C82 O101 1.243 . S
C83 C82 1.503 . S
C83 C84 1.394 . S
C83 C88 1.373 . S
C84 C83 1.394 . S
C84 C85 1.380 . S
C84 H112 0.930 . S
C85 C84 1.380 . S
C85 C86 1.376 . S
C85 H113 0.930 . S
C86 C85 1.376 . S
C86 C87 1.370 . S
C87 C86 1.370 . S
C87 C88 1.396 . S
C87 H114 0.929 . S
C88 C83 1.373 . S
C88 C87 1.396 . S
C88 H115 0.929 . S
C89 O102 1.240 . S
C89 O103 1.289 . S
C90 O104 1.258 . S
C90 O105 1.256 . S
C91 La81 2.928 1_655 S
C91 C92 1.503 . S
C91 O106 1.261 1_655 S
C91 O107 1.243 . S
C92 C91 1.503 . S
C92 C93 1.394 . S
C92 C97 1.373 . S
C93 C92 1.394 . S
C93 C94 1.380 . S
C93 H116 0.930 . S
C94 C93 1.380 . S
C94 C95 1.376 . S
C94 H117 0.930 . S
C95 C94 1.376 . S
C95 C96 1.370 . S
C96 C95 1.370 . S
C96 C97 1.396 . S
C96 H118 0.929 . S
C97 C92 1.373 . S
C97 C96 1.396 . S
C97 H119 0.929 . S
C98 O108 1.240 . S
C98 O109 1.289 . S
C99 O110 1.258 . S
C99 O111 1.256 . S
O100 La80 2.521 . S
O100 C82 1.261 . S
O101 La80 2.628 . S
O101 C82 1.243 . S
O102 La80 2.554 . S
O102 C89 1.240 . S
O103 La80 2.757 . S
O103 La81 2.482 . S
O103 C89 1.289 . S
O104 La80 2.470 . S
O104 C90 1.258 . S
O105 La81 2.503 . S
O105 C90 1.256 . S
O106 La81 2.521 . S
O106 C91 1.261 1_455 S
O107 La81 2.624 1_655 S
O107 C91 1.243 . S
O108 La81 2.554 . S
O108 C98 1.240 . S
O109 La80 2.482 . S
O109 La81 2.757 . S
O109 C98 1.289 . S
O110 La81 2.470 1_655 S
O110 C99 1.258 . S
O111 La80 2.503 1_655 S
O111 C99 1.256 . S
H112 C84 0.930 . S
H113 C85 0.930 . S
H114 C87 0.929 . S
H115 C88 0.929 . S
H116 C93 0.930 . S
H117 C94 0.930 . S
H118 C96 0.929 . S
H119 C97 0.929 . S
La120 C122 2.928 1_655 S
La120 O140 2.521 . S
La120 O141 2.625 1_655 S
La120 O142 2.554 . S
La120 O143 2.757 . S
La120 O144 2.470 1_655 S
La120 O149 2.482 . S
La120 O151 2.503 . S
La121 C131 2.928 . S
La121 O143 2.482 . S
La121 O145 2.503 1_655 S
La121 O146 2.521 . S
La121 O147 2.628 . S
La121 O148 2.554 . S
La121 O149 2.757 . S
La121 O150 2.470 . S
C122 La120 2.928 1_455 S
C122 C123 1.503 . S
C122 O140 1.261 1_455 S
C122 O141 1.243 . S
C123 C122 1.503 . S
C123 C124 1.394 . S
C123 C128 1.373 . S
C124 C123 1.394 . S
C124 C125 1.380 . S
C124 H152 0.930 . S
C125 C124 1.380 . S
C125 C126 1.376 . S
C125 H153 0.930 . S
C126 C125 1.376 . S
C126 C127 1.370 . S
C127 C126 1.370 . S
C127 C128 1.396 . S
C127 H154 0.929 . S
C128 C123 1.373 . S
C128 C127 1.396 . S
C128 H155 0.929 . S
C129 O142 1.240 . S
C129 O143 1.289 . S
C130 O144 1.258 . S
C130 O145 1.256 . S
C131 La121 2.928 . S
C131 C132 1.503 . S
C131 O146 1.261 . S
C131 O147 1.243 . S
C132 C131 1.503 . S
C132 C133 1.394 . S
C132 C137 1.373 . S
C133 C132 1.394 . S
C133 C134 1.380 . S
C133 H156 0.930 . S
C134 C133 1.380 . S
C134 C135 1.376 . S
C134 H157 0.930 . S
C135 C134 1.376 . S
C135 C136 1.370 . S
C136 C135 1.370 . S
C136 C137 1.396 . S
C136 H158 0.929 . S
C137 C132 1.373 . S
C137 C136 1.396 . S
C137 H159 0.929 . S
C138 O148 1.240 . S
C138 O149 1.289 . S
C139 O150 1.258 . S
C139 O151 1.256 . S
O140 La120 2.521 . S
O140 C122 1.261 1_655 S
O141 La120 2.625 1_455 S
O141 C122 1.243 . S
O142 La120 2.554 . S
O142 C129 1.240 . S
O143 La120 2.757 . S
O143 La121 2.482 . S
O143 C129 1.289 . S
O144 La120 2.470 1_455 S
O144 C130 1.258 . S
O145 La121 2.503 1_455 S
O145 C130 1.256 . S
O146 La121 2.521 . S
O146 C131 1.261 . S
O147 La121 2.628 . S
O147 C131 1.243 . S
O148 La121 2.554 . S
O148 C138 1.240 . S
O149 La120 2.482 . S
O149 La121 2.757 . S
O149 C138 1.289 . S
O150 La121 2.470 . S
O150 C139 1.258 . S
O151 La120 2.503 . S
O151 C139 1.256 . S
H152 C124 0.930 . S
H153 C125 0.930 . S
H154 C127 0.929 . S
H155 C128 0.929 . S
H156 C133 0.930 . S
H157 C134 0.930 . S
H158 C136 0.929 . S
H159 C137 0.929 . S
La160 C162 2.928 . S
La160 O180 2.521 . S
La160 O181 2.628 1_554 S
La160 O182 2.554 . S
La160 O183 2.757 . S
La160 O184 2.470 . S
La160 O189 2.482 1_554 S
La160 O191 2.503 . S
La161 C171 2.928 . S
La161 O183 2.482 . S
La161 O185 2.503 . S
La161 O186 2.521 1_554 S
La161 O187 2.628 . S
La161 O188 2.554 1_554 S
La161 O189 2.757 1_554 S
La161 O190 2.470 1_554 S
C162 La160 2.928 . S
C162 C163 1.503 . S
C162 O180 1.261 . S
C162 O181 1.243 1_554 S
C163 C162 1.503 . S
C163 C164 1.394 . S
C163 C168 1.373 1_554 S
C164 C163 1.394 . S
C164 C165 1.380 . S
C164 H192 0.930 . S
C165 C164 1.380 . S
C165 C166 1.376 . S
C165 H193 0.930 . S
C166 C165 1.376 . S
C166 C167 1.370 1_554 S
C167 C166 1.370 1_556 S
C167 C168 1.396 . S
C167 H194 0.929 . S
C168 C163 1.373 1_556 S
C168 C167 1.396 . S
C168 H195 0.929 . S
C169 O182 1.240 . S
C169 O183 1.289 . S
C170 O184 1.258 . S
C170 O185 1.256 . S
C171 La161 2.928 . S
C171 C172 1.503 . S
C171 O186 1.261 1_554 S
C171 O187 1.243 . S
C172 C171 1.503 . S
C172 C173 1.394 1_554 S
C172 C177 1.373 . S
C173 C172 1.394 1_556 S
C173 C174 1.380 . S
C173 H196 0.930 . S
C174 C173 1.380 . S
C174 C175 1.376 1_556 S
C174 H197 0.930 . S
C175 C174 1.376 1_554 S
C175 C176 1.370 . S
C176 C175 1.370 . S
C176 C177 1.396 . S
C176 H198 0.929 . S
C177 C172 1.373 . S
C177 C176 1.396 . S
C177 H199 0.929 . S
C178 O188 1.240 . S
C178 O189 1.289 . S
C179 O190 1.258 1_554 S
C179 O191 1.256 . S
O180 La160 2.521 . S
O180 C162 1.261 . S
O181 La160 2.628 1_556 S
O181 C162 1.243 1_556 S
O182 La160 2.554 . S
O182 C169 1.240 . S
O183 La160 2.757 . S
O183 La161 2.482 . S
O183 C169 1.289 . S
O184 La160 2.470 . S
O184 C170 1.258 . S
O185 La161 2.503 . S
O185 C170 1.256 . S
O186 La161 2.521 1_556 S
O186 C171 1.261 1_556 S
O187 La161 2.628 . S
O187 C171 1.243 . S
O188 La161 2.554 1_556 S
O188 C178 1.240 . S
O189 La160 2.482 1_556 S
O189 La161 2.757 1_556 S
O189 C178 1.289 . S
O190 La161 2.470 1_556 S
O190 C179 1.258 1_556 S
O191 La160 2.503 . S
O191 C179 1.256 . S
H192 C164 0.930 . S
H193 C165 0.930 . S
H194 C167 0.929 . S
H195 C168 0.929 . S
H196 C173 0.930 . S
H197 C174 0.930 . S
H198 C176 0.929 . S
H199 C177 0.929 . S
La200 C202 2.928 . S
La200 O220 2.521 . S
La200 O221 2.628 1_554 S
La200 O222 2.554 . S
La200 O223 2.757 . S
La200 O224 2.470 . S
La200 O229 2.482 1_554 S
La200 O231 2.503 . S
La201 C211 2.928 . S
La201 O223 2.482 . S
La201 O225 2.503 . S
La201 O226 2.521 1_554 S
La201 O227 2.628 . S
La201 O228 2.554 1_554 S
La201 O229 2.757 1_554 S
La201 O230 2.470 1_554 S
C202 La200 2.928 . S
C202 C203 1.503 . S
C202 O220 1.261 . S
C202 O221 1.243 1_554 S
C203 C202 1.503 . S
C203 C204 1.394 . S
C203 C208 1.373 1_554 S
C204 C203 1.394 . S
C204 C205 1.380 . S
C204 H232 0.930 . S
C205 C204 1.380 . S
C205 C206 1.376 . S
C205 H233 0.930 . S
C206 C205 1.376 . S
C206 C207 1.370 1_554 S
C207 C206 1.370 1_556 S
C207 C208 1.396 . S
C207 H234 0.929 . S
C208 C203 1.373 1_556 S
C208 C207 1.396 . S
C208 H235 0.929 . S
C209 O222 1.240 . S
C209 O223 1.289 . S
C210 O224 1.258 . S
C210 O225 1.256 . S
C211 La201 2.928 . S
C211 C212 1.503 . S
C211 O226 1.261 1_554 S
C211 O227 1.243 . S
C212 C211 1.503 . S
C212 C213 1.394 1_554 S
C212 C217 1.373 . S
C213 C212 1.394 1_556 S
C213 C214 1.380 . S
C213 H236 0.930 . S
C214 C213 1.380 . S
C214 C215 1.376 1_556 S
C214 H237 0.930 . S
C215 C214 1.376 1_554 S
C215 C216 1.370 . S
C216 C215 1.370 . S
C216 C217 1.396 . S
C216 H238 0.929 . S
C217 C212 1.373 . S
C217 C216 1.396 . S
C217 H239 0.929 . S
C218 O228 1.240 . S
C218 O229 1.289 . S
C219 O230 1.258 1_554 S
C219 O231 1.256 . S
O220 La200 2.521 . S
O220 C202 1.261 . S
O221 La200 2.628 1_556 S
O221 C202 1.243 1_556 S
O222 La200 2.554 . S
O222 C209 1.240 . S
O223 La200 2.757 . S
O223 La201 2.482 . S
O223 C209 1.289 . S
O224 La200 2.470 . S
O224 C210 1.258 . S
O225 La201 2.503 . S
O225 C210 1.256 . S
O226 La201 2.521 1_556 S
O226 C211 1.261 1_556 S
O227 La201 2.628 . S
O227 C211 1.243 . S
O228 La201 2.554 1_556 S
O228 C218 1.240 . S
O229 La200 2.482 1_556 S
O229 La201 2.757 1_556 S
O229 C218 1.289 . S
O230 La201 2.470 1_556 S
O230 C219 1.258 1_556 S
O231 La200 2.503 . S
O231 C219 1.256 . S
H232 C204 0.930 . S
H233 C205 0.930 . S
H234 C207 0.929 . S
H235 C208 0.929 . S
H236 C213 0.930 . S
H237 C214 0.930 . S
H238 C216 0.929 . S
H239 C217 0.929 . S
La240 C242 2.928 . S
La240 O260 2.521 . S
La240 O261 2.628 . S
La240 O262 2.554 . S
La240 O263 2.757 . S
La240 O264 2.470 . S
La240 O269 2.482 . S
La240 O271 2.503 . S
La241 C251 2.928 . S
La241 O263 2.482 . S
La241 O265 2.503 . S
La241 O266 2.521 . S
La241 O267 2.628 . S
La241 O268 2.554 . S
La241 O269 2.757 . S
La241 O270 2.470 . S
C242 La240 2.928 . S
C242 C243 1.503 . S
C242 O260 1.261 . S
C242 O261 1.243 . S
C243 C242 1.503 . S
C243 C244 1.394 . S
C243 C248 1.373 . S
C244 C243 1.394 . S
C244 C245 1.380 . S
C244 H272 0.930 . S
C245 C244 1.380 . S
C245 C246 1.376 . S
C245 H273 0.930 . S
C246 C245 1.376 . S
C246 C247 1.370 . S
C247 C246 1.370 . S
C247 C248 1.396 . S
C247 H274 0.929 . S
C248 C243 1.373 . S
C248 C247 1.396 . S
C248 H275 0.929 . S
C249 O262 1.240 . S
C249 O263 1.289 . S
C250 O264 1.258 . S
C250 O265 1.256 . S
C251 La241 2.928 . S
C251 C252 1.503 . S
C251 O266 1.261 . S
C251 O267 1.243 . S
C252 C251 1.503 . S
C252 C253 1.394 . S
C252 C257 1.373 . S
C253 C252 1.394 . S
C253 C254 1.380 . S
C253 H276 0.930 . S
C254 C253 1.380 . S
C254 C255 1.376 . S
C254 H277 0.930 . S
C255 C254 1.376 . S
C255 C256 1.370 . S
C256 C255 1.370 . S
C256 C257 1.396 . S
C256 H278 0.929 . S
C257 C252 1.373 . S
C257 C256 1.396 . S
C257 H279 0.929 . S
C258 O268 1.240 . S
C258 O269 1.289 . S
C259 O270 1.258 . S
C259 O271 1.256 . S
O260 La240 2.521 . S
O260 C242 1.261 . S
O261 La240 2.628 . S
O261 C242 1.243 . S
O262 La240 2.554 . S
O262 C249 1.240 . S
O263 La240 2.757 . S
O263 La241 2.482 . S
O263 C249 1.289 . S
O264 La240 2.470 . S
O264 C250 1.258 . S
O265 La241 2.503 . S
O265 C250 1.256 . S
O266 La241 2.521 . S
O266 C251 1.261 . S
O267 La241 2.628 . S
O267 C251 1.243 . S
O268 La241 2.554 . S
O268 C258 1.240 . S
O269 La240 2.482 . S
O269 La241 2.757 . S
O269 C258 1.289 . S
O270 La241 2.470 . S
O270 C259 1.258 . S
O271 La240 2.503 . S
O271 C259 1.256 . S
H272 C244 0.930 . S
H273 C245 0.930 . S
H274 C247 0.929 . S
H275 C248 0.929 . S
H276 C253 0.930 . S
H277 C254 0.930 . S
H278 C256 0.929 . S
H279 C257 0.929 . S
La280 C282 2.928 . S
La280 O300 2.521 . S
La280 O301 2.628 . S
La280 O302 2.554 . S
La280 O303 2.757 . S
La280 O304 2.470 . S
La280 O309 2.482 . S
La280 O311 2.503 . S
La281 C291 2.928 . S
La281 O303 2.482 . S
La281 O305 2.503 . S
La281 O306 2.521 . S
La281 O307 2.628 . S
La281 O308 2.554 . S
La281 O309 2.757 . S
La281 O310 2.470 . S
C282 La280 2.928 . S
C282 C283 1.503 . S
C282 O300 1.261 . S
C282 O301 1.243 . S
C283 C282 1.503 . S
C283 C284 1.394 . S
C283 C288 1.373 . S
C284 C283 1.394 . S
C284 C285 1.380 . S
C284 H312 0.930 . S
C285 C284 1.380 . S
C285 C286 1.376 . S
C285 H313 0.930 . S
C286 C285 1.376 . S
C286 C287 1.370 . S
C287 C286 1.370 . S
C287 C288 1.396 . S
C287 H314 0.929 . S
C288 C283 1.373 . S
C288 C287 1.396 . S
C288 H315 0.929 . S
C289 O302 1.240 . S
C289 O303 1.289 . S
C290 O304 1.258 . S
C290 O305 1.256 . S
C291 La281 2.928 . S
C291 C292 1.503 . S
C291 O306 1.261 . S
C291 O307 1.243 . S
C292 C291 1.503 . S
C292 C293 1.394 . S
C292 C297 1.373 . S
C293 C292 1.394 . S
C293 C294 1.380 . S
C293 H316 0.930 . S
C294 C293 1.380 . S
C294 C295 1.376 . S
C294 H317 0.930 . S
C295 C294 1.376 . S
C295 C296 1.370 . S
C296 C295 1.370 . S
C296 C297 1.396 . S
C296 H318 0.929 . S
C297 C292 1.373 . S
C297 C296 1.396 . S
C297 H319 0.929 . S
C298 O308 1.240 . S
C298 O309 1.289 . S
C299 O310 1.258 . S
C299 O311 1.256 . S
O300 La280 2.521 . S
O300 C282 1.261 . S
O301 La280 2.628 . S
O301 C282 1.243 . S
O302 La280 2.554 . S
O302 C289 1.240 . S
O303 La280 2.757 . S
O303 La281 2.482 . S
O303 C289 1.289 . S
O304 La280 2.470 . S
O304 C290 1.258 . S
O305 La281 2.503 . S
O305 C290 1.256 . S
O306 La281 2.521 . S
O306 C291 1.261 . S
O307 La281 2.628 . S
O307 C291 1.243 . S
O308 La281 2.554 . S
O308 C298 1.240 . S
O309 La280 2.482 . S
O309 La281 2.757 . S
O309 C298 1.289 . S
O310 La281 2.470 . S
O310 C299 1.258 . S
O311 La280 2.503 . S
O311 C299 1.256 . S
H312 C284 0.930 . S
H313 C285 0.930 . S
H314 C287 0.929 . S
H315 C288 0.929 . S
H316 C293 0.930 . S
H317 C294 0.930 . S
H318 C296 0.929 . S
H319 C297 0.929 . S
H320 C328 0.950 . S
H321 C333 0.950 1_556 S
H322 C330 0.950 . S
H323 C332 0.950 1_556 S
H324 C334 0.949 1_556 S
H325 C336 0.950 1_556 S
H326 C338 0.950 . S
H327 C339 0.950 . S
C328 H320 0.950 . S
C328 C329 1.386 . S
C328 C330 1.391 . S
C329 C328 1.386 . S
C329 C333 1.393 . S
C330 H322 0.950 . S
C330 C328 1.391 . S
C330 C331 1.400 . S
C331 C330 1.400 . S
C331 C332 1.398 . S
C331 C337 1.491 . S
C332 H323 0.950 1_554 S
C332 C331 1.398 . S
C332 C333 1.391 . S
C333 H321 0.950 1_554 S
C333 C329 1.393 . S
C333 C332 1.391 . S
C334 H324 0.949 1_554 S
C334 C335 1.386 . S
C334 C336 1.391 . S
C335 C334 1.386 . S
C335 C339 1.393 . S
C336 H325 0.950 1_554 S
C336 C334 1.391 . S
C336 C337 1.400 . S
C337 C331 1.491 . S
C337 C336 1.400 . S
C337 C338 1.398 . S
C338 H326 0.950 . S
C338 C337 1.398 . S
C338 C339 1.391 . S
C339 H327 0.950 . S
C339 C335 1.393 . S
C339 C338 1.391 . S
H340 C348 0.950 . S
H341 C353 0.950 1_556 S
H342 C350 0.950 . S
H343 C352 0.950 1_556 S
H344 C354 0.950 . S
H345 C356 0.950 . S
H346 C358 0.950 . S
H347 C359 0.950 . S
C348 H340 0.950 . S
C348 C349 1.386 . S
C348 C350 1.391 . S
C349 C348 1.386 . S
C349 C353 1.393 . S
C350 H342 0.950 . S
C350 C348 1.391 . S
C350 C351 1.400 . S
C351 C350 1.400 . S
C351 C352 1.398 . S
C351 C357 1.491 . S
C352 H343 0.950 1_554 S
C352 C351 1.398 . S
C352 C353 1.391 . S
C353 H341 0.950 1_554 S
C353 C349 1.393 . S
C353 C352 1.391 . S
C354 H344 0.950 . S
C354 C355 1.386 . S
C354 C356 1.391 . S
C355 C354 1.386 . S
C355 C359 1.393 . S
C356 H345 0.950 . S
C356 C354 1.391 . S
C356 C357 1.400 . S
C357 C351 1.491 . S
C357 C356 1.400 . S
C357 C358 1.398 . S
C358 H346 0.950 . S
C358 C357 1.398 . S
C358 C359 1.391 . S
C359 H347 0.950 . S
C359 C355 1.393 . S
C359 C358 1.391 . S
H360 C368 0.950 . S
H361 C373 0.950 . S
H362 C370 0.950 . S
H363 C372 0.950 . S
H364 C374 0.950 . S
H365 C376 0.950 . S
H366 C378 0.950 . S
H367 C379 0.950 . S
C368 H360 0.950 . S
C368 C369 1.386 . S
C368 C370 1.391 . S
C369 C368 1.386 . S
C369 C373 1.393 . S
C370 H362 0.950 . S
C370 C368 1.391 . S
C370 C371 1.400 . S
C371 C370 1.400 . S
C371 C372 1.398 . S
C371 C377 1.491 . S
C372 H363 0.950 . S
C372 C371 1.398 . S
C372 C373 1.391 . S
C373 H361 0.950 . S
C373 C369 1.393 . S
C373 C372 1.391 . S
C374 H364 0.950 . S
C374 C375 1.386 . S
C374 C376 1.391 . S
C375 C374 1.386 . S
C375 C379 1.393 . S
C376 H365 0.950 . S
C376 C374 1.391 . S
C376 C377 1.400 . S
C377 C371 1.491 . S
C377 C376 1.400 . S
C377 C378 1.398 . S
C378 H366 0.950 . S
C378 C377 1.398 . S
C378 C379 1.391 . S
C379 H367 0.950 . S
C379 C375 1.393 . S
C379 C378 1.391 . S
H380 C388 0.950 . S
H381 C393 0.950 . S
H382 C390 0.950 . S
H383 C392 0.950 . S
H384 C394 0.950 . S
H385 C396 0.950 . S
H386 C398 0.950 . S
H387 C399 0.950 . S
C388 H380 0.950 . S
C388 C389 1.386 . S
C388 C390 1.391 . S
C389 C388 1.386 . S
C389 C393 1.393 . S
C390 H382 0.950 . S
C390 C388 1.391 . S
C390 C391 1.400 . S
C391 C390 1.400 . S
C391 C392 1.398 . S
C391 C397 1.491 . S
C392 H383 0.950 . S
C392 C391 1.398 . S
C392 C393 1.391 . S
C393 H381 0.950 . S
C393 C389 1.393 . S
C393 C392 1.391 . S
C394 H384 0.950 . S
C394 C395 1.386 . S
C394 C396 1.391 . S
C395 C394 1.386 . S
C395 C399 1.393 . S
C396 H385 0.950 . S
C396 C394 1.391 . S
C396 C397 1.400 . S
C397 C391 1.491 . S
C397 C396 1.400 . S
C397 C398 1.398 . S
C398 H386 0.950 . S
C398 C397 1.398 . S
C398 C399 1.391 . S
C399 H387 0.950 . S
C399 C395 1.393 . S
C399 C398 1.391 . S
H400 C408 0.950 . S
H401 C413 0.950 . S
H402 C410 0.950 1_455 S
H403 C412 0.950 . S
H404 C414 0.950 . S
H405 C416 0.950 . S
H406 C418 0.950 . S
H407 C419 0.950 . S
C408 H400 0.950 . S
C408 C409 1.386 1_556 S
C408 C410 1.391 . S
C409 C408 1.386 1_554 S
C409 C413 1.393 . S
C410 H402 0.950 1_655 S
C410 C408 1.391 . S
C410 C411 1.400 1_656 S
C411 C410 1.400 1_454 S
C411 C412 1.398 1_455 S
C411 C417 1.491 . S
C412 H403 0.950 . S
C412 C411 1.398 1_655 S
C412 C413 1.391 . S
C413 H401 0.950 . S
C413 C409 1.393 . S
C413 C412 1.391 . S
C414 H404 0.950 . S
C414 C415 1.386 . S
C414 C416 1.391 . S
C415 C414 1.386 . S
C415 C419 1.393 1_554 S
C416 H405 0.950 . S
C416 C414 1.391 . S
C416 C417 1.400 . S
C417 C411 1.491 . S
C417 C416 1.400 . S
C417 C418 1.398 1_554 S
C418 H406 0.950 . S
C418 C417 1.398 1_556 S
C418 C419 1.391 . S
C419 H407 0.950 . S
C419 C415 1.393 1_556 S
C419 C418 1.391 . S
H420 C428 0.950 . S
H421 C433 0.950 . S
H422 C430 0.950 . S
H423 C432 0.950 1_655 S
H424 C434 0.950 . S
H425 C436 0.950 . S
H426 C438 0.950 . S
H427 C439 0.950 . S
C428 H420 0.950 . S
C428 C429 1.386 1_556 S
C428 C430 1.391 . S
C429 C428 1.386 1_554 S
C429 C433 1.393 . S
C430 H422 0.950 . S
C430 C428 1.391 . S
C430 C431 1.400 1_456 S
C431 C430 1.400 1_654 S
C431 C432 1.398 1_655 S
C431 C437 1.491 . S
C432 H423 0.950 1_455 S
C432 C431 1.398 1_455 S
C432 C433 1.391 . S
C433 H421 0.950 . S
C433 C429 1.393 . S
C433 C432 1.391 . S
C434 H424 0.950 . S
C434 C435 1.386 . S
C434 C436 1.391 . S
C435 C434 1.386 . S
C435 C439 1.393 1_554 S
C436 H425 0.950 . S
C436 C434 1.391 . S
C436 C437 1.400 . S
C437 C431 1.491 . S
C437 C436 1.400 . S
C437 C438 1.398 1_554 S
C438 H426 0.950 . S
C438 C437 1.398 1_556 S
C438 C439 1.391 . S
C439 H427 0.950 . S
C439 C435 1.393 1_556 S
C439 C438 1.391 . S
H440 C448 0.950 . S
H441 C453 0.950 . S
H442 C450 0.950 . S
H443 C452 0.950 . S
H444 C454 0.950 . S
H445 C456 0.950 1_455 S
H446 C458 0.957 . S
H447 C459 0.950 . S
C448 H440 0.950 . S
C448 C449 1.386 . S
C448 C450 1.391 . S
C449 C448 1.386 . S
C449 C453 1.393 . S
C450 H442 0.950 . S
C450 C448 1.391 . S
C450 C451 1.400 . S
C451 C450 1.400 . S
C451 C452 1.398 . S
C451 C457 1.491 . S
C452 H443 0.950 . S
C452 C451 1.398 . S
C452 C453 1.391 . S
C453 H441 0.950 . S
C453 C449 1.393 . S
C453 C452 1.391 . S
C454 H444 0.950 . S
C454 C455 1.386 . S
C454 C456 1.391 . S
C455 C454 1.386 . S
C455 C459 1.393 . S
C456 H445 0.950 1_655 S
C456 C454 1.391 . S
C456 C457 1.400 1_655 S
C457 C451 1.491 . S
C457 C456 1.400 1_455 S
C457 C458 1.398 1_455 S
C458 H446 0.957 . S
C458 C457 1.398 1_655 S
C458 C459 1.391 . S
C459 H447 0.950 . S
C459 C455 1.393 . S
C459 C458 1.391 . S
H460 C468 0.950 . S
H461 C473 0.950 . S
H462 C470 0.950 . S
H463 C472 0.950 . S
H464 C474 0.950 . S
H465 C476 0.950 1_655 S
H466 C478 0.950 . S
H467 C479 0.950 . S
C468 H460 0.950 . S
C468 C469 1.386 . S
C468 C470 1.391 . S
C469 C468 1.386 . S
C469 C473 1.393 . S
C470 H462 0.950 . S
C470 C468 1.391 . S
C470 C471 1.400 . S
C471 C470 1.400 . S
C471 C472 1.398 . S
C471 C477 1.491 . S
C472 H463 0.950 . S
C472 C471 1.398 . S
C472 C473 1.391 . S
C473 H461 0.950 . S
C473 C469 1.393 . S
C473 C472 1.391 . S
C474 H464 0.950 . S
C474 C475 1.386 . S
C474 C476 1.391 . S
C475 C474 1.386 . S
C475 C479 1.393 . S
C476 H465 0.950 1_455 S
C476 C474 1.391 . S
C476 C477 1.400 1_455 S
C477 C471 1.491 . S
C477 C476 1.400 1_655 S
C477 C478 1.398 1_655 S
C478 H466 0.950 . S
C478 C477 1.398 1_455 S
C478 C479 1.391 . S
C479 H467 0.950 . S
C479 C475 1.393 . S
C479 C478 1.391 . S
H480 C488 0.950 . S
H481 C493 0.950 . S
H482 C490 0.949 . S
H483 C492 0.950 . S
H484 C494 0.950 . S
H485 C496 0.951 1_455 S
H486 C498 0.950 . S
H487 C499 0.950 . S
C488 H480 0.950 . S
C488 C489 1.386 1_556 S
C488 C490 1.392 1_455 S
C489 C488 1.386 1_554 S
C489 C493 1.393 . S
C490 H482 0.949 . S
C490 C488 1.392 1_655 S
C490 C491 1.400 1_656 S
C491 C490 1.400 1_454 S
C491 C492 1.398 . S
C491 C497 1.491 1_455 S
C492 H483 0.950 . S
C492 C491 1.398 . S
C492 C493 1.391 . S
C493 H481 0.950 . S
C493 C489 1.393 . S
C493 C492 1.391 . S
C494 H484 0.950 . S
C494 C495 1.386 . S
C494 C496 1.391 . S
C495 C494 1.386 . S
C495 C499 1.393 1_554 S
C496 H485 0.951 1_655 S
C496 C494 1.391 . S
C496 C497 1.400 . S
C497 C491 1.491 1_655 S
C497 C496 1.400 . S
C497 C498 1.398 1_554 S
C498 H486 0.950 . S
C498 C497 1.398 1_556 S
C498 C499 1.391 . S
C499 H487 0.950 . S
C499 C495 1.393 1_556 S
C499 C498 1.391 . S
H500 C508 0.950 . S
H501 C513 0.950 1_655 S
H502 C510 0.950 . S
H503 C512 0.950 . S
H504 C514 0.950 . S
H505 C516 0.950 . S
H506 C518 0.950 . S
H507 C519 0.950 1_455 S
C508 H500 0.950 . S
C508 C509 1.386 . S
C508 C510 1.391 . S
C509 C508 1.386 . S
C509 C513 1.393 . S
C510 H502 0.950 . S
C510 C508 1.391 . S
C510 C511 1.400 . S
C511 C510 1.400 . S
C511 C512 1.398 1_455 S
C511 C517 1.491 1_455 S
C512 H503 0.950 . S
C512 C511 1.398 1_655 S
C512 C513 1.391 1_655 S
C513 H501 0.950 1_455 S
C513 C509 1.393 . S
C513 C512 1.391 1_455 S
C514 H504 0.950 . S
C514 C515 1.386 . S
C514 C516 1.391 . S
C515 C514 1.386 . S
C515 C519 1.393 . S
C516 H505 0.950 . S
C516 C514 1.391 . S
C516 C517 1.400 . S
C517 C511 1.491 1_655 S
C517 C516 1.400 . S
C517 C518 1.398 1_655 S
C518 H506 0.950 . S
C518 C517 1.398 1_455 S
C518 C519 1.391 1_455 S
C519 H507 0.950 1_655 S
C519 C515 1.393 . S
C519 C518 1.391 1_655 S
H520 C528 0.950 . S
H521 C533 0.950 . S
H522 C530 0.950 . S
H523 C532 0.950 . S
H524 C534 0.950 . S
H525 C536 0.950 . S
H526 C538 0.950 . S
H527 C539 0.950 . S
C528 H520 0.950 . S
C528 C529 1.386 1_556 S
C528 C530 1.391 . S
C529 C528 1.386 1_554 S
C529 C533 1.393 . S
C530 H522 0.950 . S
C530 C528 1.391 . S
C530 C531 1.400 1_556 S
C531 C530 1.400 1_554 S
C531 C532 1.398 . S
C531 C537 1.491 1_565 S
C532 H523 0.950 . S
C532 C531 1.398 . S
C532 C533 1.391 . S
C533 H521 0.950 . S
C533 C529 1.393 . S
C533 C532 1.391 . S
C534 H524 0.950 . S
C534 C535 1.386 . S
C534 C536 1.391 . S
C535 C534 1.386 . S
C535 C539 1.393 1_554 S
C536 H525 0.950 . S
C536 C534 1.391 . S
C536 C537 1.400 . S
C537 C531 1.491 1_545 S
C537 C536 1.400 . S
C537 C538 1.398 1_554 S
C538 H526 0.950 . S
C538 C537 1.398 1_556 S
C538 C539 1.391 . S
C539 H527 0.950 . S
C539 C535 1.393 1_556 S
C539 C538 1.391 . S
H540 C548 0.950 . S
H541 C553 0.950 . S
H542 C550 0.964 . S
H543 C552 0.950 . S
H544 C554 0.950 . S
H545 C556 0.964 . S
H546 C558 0.950 . S
H547 C559 0.950 . S
C548 H540 0.950 . S
C548 C549 1.386 . S
C548 C550 1.391 . S
C549 C548 1.386 . S
C549 C553 1.393 . S
C550 H542 0.964 . S
C550 C548 1.391 . S
C550 C551 1.400 . S
C551 C550 1.400 . S
C551 C552 1.398 . S
C551 C557 1.491 1_545 S
C552 H543 0.950 . S
C552 C551 1.398 . S
C552 C553 1.391 . S
C553 H541 0.950 . S
C553 C549 1.393 . S
C553 C552 1.391 . S
C554 H544 0.950 . S
C554 C555 1.386 . S
C554 C556 1.391 . S
C555 C554 1.386 . S
C555 C559 1.393 . S
C556 H545 0.964 . S
C556 C554 1.391 . S
C556 C557 1.400 . S
C557 C551 1.491 1_565 S
C557 C556 1.400 . S
C557 C558 1.398 . S
C558 H546 0.950 . S
C558 C557 1.398 . S
C558 C559 1.391 . S
C559 H547 0.950 . S
C559 C555 1.393 . S
C559 C558 1.391 . S
H560 C568 0.950 1_556 S
H561 C573 0.950 . S
H562 C570 0.954 . S
H563 C572 0.950 . S
H564 C574 0.950 . S
H565 C576 0.950 . S
H566 C578 0.950 . S
H567 C579 0.950 . S
C568 H560 0.950 1_554 S
C568 C569 1.386 . S
C568 C570 1.391 1_554 S
C569 C568 1.386 . S
C569 C573 1.393 . S
C570 H562 0.954 . S
C570 C568 1.391 1_556 S
C570 C571 1.397 1_556 S
C571 C570 1.397 1_554 S
C571 C572 1.398 . S
C571 C577 1.491 . S
C572 H563 0.950 . S
C572 C571 1.398 . S
C572 C573 1.391 . S
C573 H561 0.950 . S
C573 C569 1.393 . S
C573 C572 1.391 . S
C574 H564 0.950 . S
C574 C575 1.386 . S
C574 C576 1.391 . S
C575 C574 1.386 . S
C575 C579 1.393 1_554 S
C576 H565 0.950 . S
C576 C574 1.391 . S
C576 C577 1.400 . S
C577 C571 1.491 . S
C577 C576 1.400 . S
C577 C578 1.398 1_554 S
C578 H566 0.950 . S
C578 C577 1.398 1_556 S
C578 C579 1.391 . S
C579 H567 0.950 . S
C579 C575 1.393 1_556 S
C579 C578 1.391 . S
H580 C588 0.947 1_556 S
H581 C593 0.950 . S
H582 C590 0.950 1_556 S
H583 C592 0.950 . S
H584 C594 0.950 . S
H585 C596 0.950 . S
H586 C598 0.950 . S
H587 C599 0.950 . S
C588 H580 0.947 1_554 S
C588 C589 1.386 . S
C588 C590 1.391 . S
C589 C588 1.386 . S
C589 C593 1.393 . S
C590 H582 0.950 1_554 S
C590 C588 1.391 . S
C590 C591 1.400 . S
C591 C590 1.400 . S
C591 C592 1.398 . S
C591 C597 1.491 . S
C592 H583 0.950 . S
C592 C591 1.398 . S
C592 C593 1.391 . S
C593 H581 0.950 . S
C593 C589 1.393 . S
C593 C592 1.391 . S
C594 H584 0.950 . S
C594 C595 1.386 . S
C594 C596 1.391 . S
C595 C594 1.386 . S
C595 C599 1.393 1_554 S
C596 H585 0.950 . S
C596 C594 1.391 . S
C596 C597 1.400 . S
C597 C591 1.491 . S
C597 C596 1.400 . S
C597 C598 1.398 1_554 S
C598 H586 0.950 . S
C598 C597 1.398 1_556 S
C598 C599 1.391 . S
C599 H587 0.950 . S
C599 C595 1.393 1_556 S
C599 C598 1.391 . S
H600 C608 0.950 . S
H601 C613 0.950 . S
H602 C610 0.950 . S
H603 C612 0.950 . S
H604 C614 0.950 . S
H605 C616 0.950 . S
H606 C618 0.950 . S
H607 C619 0.950 . S
C608 H600 0.950 . S
C608 C609 1.386 . S
C608 C610 1.391 . S
C609 C608 1.386 . S
C609 C613 1.393 . S
C610 H602 0.950 . S
C610 C608 1.391 . S
C610 C611 1.400 . S
C611 C610 1.400 . S
C611 C612 1.398 . S
C611 C617 1.491 . S
C612 H603 0.950 . S
C612 C611 1.398 . S
C612 C613 1.391 . S
C613 H601 0.950 . S
C613 C609 1.393 . S
C613 C612 1.391 . S
C614 H604 0.950 . S
C614 C615 1.386 . S
C614 C616 1.391 . S
C615 C614 1.386 . S
C615 C619 1.393 . S
C616 H605 0.950 . S
C616 C614 1.391 . S
C616 C617 1.400 . S
C617 C611 1.491 . S
C617 C616 1.400 . S
C617 C618 1.398 . S
C618 H606 0.950 . S
C618 C617 1.398 . S
C618 C619 1.391 . S
C619 H607 0.950 . S
C619 C615 1.393 . S
C619 C618 1.391 . S
H620 C628 0.950 . S
H621 C633 0.950 . S
H622 C630 0.950 . S
H623 C632 0.950 . S
H624 C634 0.950 . S
H625 C636 0.950 . S
H626 C638 0.950 . S
H627 C639 0.950 . S
C628 H620 0.950 . S
C628 C629 1.386 . S
C628 C630 1.391 . S
C629 C628 1.386 . S
C629 C633 1.393 . S
C630 H622 0.950 . S
C630 C628 1.391 . S
C630 C631 1.400 . S
C631 C630 1.400 . S
C631 C632 1.398 . S
C631 C637 1.491 . S
C632 H623 0.950 . S
C632 C631 1.398 . S
C632 C633 1.391 . S
C633 H621 0.950 . S
C633 C629 1.393 . S
C633 C632 1.391 . S
C634 H624 0.950 . S
C634 C635 1.386 . S
C634 C636 1.391 . S
C635 C634 1.386 . S
C635 C639 1.393 . S
C636 H625 0.950 . S
C636 C634 1.391 . S
C636 C637 1.400 . S
C637 C631 1.491 . S
C637 C636 1.400 . S
C637 C638 1.398 . S
C638 H626 0.950 . S
C638 C637 1.398 . S
C638 C639 1.391 . S
C639 H627 0.950 . S
C639 C635 1.393 . S
C639 C638 1.391 . S
H640 C648 0.950 . S
H641 C653 0.950 . S
H642 C650 0.950 . S
H643 C652 0.950 . S
H644 C654 0.950 . S
H645 C656 0.950 . S
H646 C658 0.950 . S
H647 C659 0.950 . S
C648 H640 0.950 . S
C648 C649 1.386 . S
C648 C650 1.391 . S
C649 C648 1.386 . S
C649 C653 1.393 1_455 S
C650 H642 0.950 . S
C650 C648 1.391 . S
C650 C651 1.400 . S
C651 C650 1.400 . S
C651 C652 1.398 1_455 S
C651 C657 1.491 1_455 S
C652 H643 0.950 . S
C652 C651 1.398 1_655 S
C652 C653 1.391 . S
C653 H641 0.950 . S
C653 C649 1.393 1_655 S
C653 C652 1.391 . S
C654 H644 0.950 . S
C654 C655 1.386 . S
C654 C656 1.391 . S
C655 C654 1.386 . S
C655 C659 1.393 1_655 S
C656 H645 0.950 . S
C656 C654 1.391 . S
C656 C657 1.400 . S
C657 C651 1.491 1_655 S
C657 C656 1.400 . S
C657 C658 1.398 1_655 S
C658 H646 0.950 . S
C658 C657 1.398 1_455 S
C658 C659 1.391 . S
C659 H647 0.950 . S
C659 C655 1.393 1_455 S
C659 C658 1.391 . S
H660 C668 0.950 . S
H661 C673 0.950 . S
H662 C670 0.950 . S
H663 C672 0.950 . S
H664 C674 0.950 . S
H665 C676 0.950 . S
H666 C678 0.950 . S
H667 C679 0.950 . S
C668 H660 0.950 . S
C668 C669 1.386 . S
C668 C670 1.391 . S
C669 C668 1.386 . S
C669 C673 1.393 1_655 S
C670 H662 0.950 . S
C670 C668 1.391 . S
C670 C671 1.400 . S
C671 C670 1.400 . S
C671 C672 1.398 1_655 S
C671 C677 1.491 1_655 S
C672 H663 0.950 . S
C672 C671 1.398 1_455 S
C672 C673 1.391 . S
C673 H661 0.950 . S
C673 C669 1.393 1_455 S
C673 C672 1.391 . S
C674 H664 0.950 . S
C674 C675 1.386 . S
C674 C676 1.391 . S
C675 C674 1.386 . S
C675 C679 1.393 1_455 S
C676 H665 0.950 . S
C676 C674 1.391 . S
C676 C677 1.400 . S
C677 C671 1.491 1_455 S
C677 C676 1.400 . S
C677 C678 1.398 1_455 S
C678 H666 0.950 . S
C678 C677 1.398 1_655 S
C678 C679 1.391 . S
C679 H667 0.950 . S
C679 C675 1.393 1_655 S
C679 C678 1.391 . S
H680 C688 0.950 . S
H681 C693 0.950 . S
H682 C690 0.950 1_455 S
H683 C692 0.950 . S
H684 C694 0.950 . S
H685 C696 0.950 1_655 S
H686 C698 0.950 . S
H687 C699 0.950 . S
C688 H680 0.950 . S
C688 C689 1.386 . S
C688 C690 1.391 . S
C689 C688 1.386 . S
C689 C693 1.393 . S
C690 H682 0.950 1_655 S
C690 C688 1.391 . S
C690 C691 1.400 . S
C691 C690 1.400 . S
C691 C692 1.398 . S
C691 C697 1.491 1_655 S
C692 H683 0.950 . S
C692 C691 1.398 . S
C692 C693 1.391 . S
C693 H681 0.950 . S
C693 C689 1.393 . S
C693 C692 1.391 . S
C694 H684 0.950 . S
C694 C695 1.386 . S
C694 C696 1.391 . S
C695 C694 1.386 . S
C695 C699 1.393 . S
C696 H685 0.950 1_455 S
C696 C694 1.391 . S
C696 C697 1.400 . S
C697 C691 1.491 1_455 S
C697 C696 1.400 . S
C697 C698 1.398 . S
C698 H686 0.950 . S
C698 C697 1.398 . S
C698 C699 1.391 . S
C699 H687 0.950 . S
C699 C695 1.393 . S
C699 C698 1.391 . S
H700 C708 0.950 1_455 S
H701 C713 0.950 . S
H702 C710 0.950 . S
H703 C712 0.950 . S
H704 C714 0.950 1_655 S
H705 C716 0.950 . S
H706 C718 0.950 . S
H707 C719 0.950 . S
C708 H700 0.950 1_655 S
C708 C709 1.386 . S
C708 C710 1.391 1_655 S
C709 C708 1.386 . S
C709 C713 1.393 . S
C710 H702 0.950 . S
C710 C708 1.391 1_455 S
C710 C711 1.400 1_455 S
C711 C710 1.400 1_655 S
C711 C712 1.398 . S
C711 C717 1.491 1_655 S
C712 H703 0.950 . S
C712 C711 1.398 . S
C712 C713 1.391 . S
C713 H701 0.950 . S
C713 C709 1.393 . S
C713 C712 1.391 . S
C714 H704 0.950 1_455 S
C714 C715 1.386 . S
C714 C716 1.391 1_455 S
C715 C714 1.386 . S
C715 C719 1.393 . S
C716 H705 0.950 . S
C716 C714 1.391 1_655 S
C716 C717 1.400 1_655 S
C717 C711 1.491 1_455 S
C717 C716 1.400 1_455 S
C717 C718 1.398 . S
C718 H706 0.950 . S
C718 C717 1.398 . S
C718 C719 1.391 . S
C719 H707 0.950 . S
C719 C715 1.393 . S
C719 C718 1.391 . S
H720 C728 0.950 . S
H721 C733 0.950 . S
H722 C730 0.950 . S
H723 C732 0.950 . S
H724 C734 0.950 . S
H725 C736 0.950 . S
H726 C738 0.950 . S
H727 C739 0.950 . S
C728 H720 0.950 . S
C728 C729 1.386 . S
C728 C730 1.391 . S
C729 C728 1.386 . S
C729 C733 1.393 . S
C730 H722 0.950 . S
C730 C728 1.391 . S
C730 C731 1.400 . S
C731 C730 1.400 . S
C731 C732 1.398 . S
C731 C737 1.491 . S
C732 H723 0.950 . S
C732 C731 1.398 . S
C732 C733 1.391 . S
C733 H721 0.950 . S
C733 C729 1.393 . S
C733 C732 1.391 . S
C734 H724 0.950 . S
C734 C735 1.386 . S
C734 C736 1.391 . S
C735 C734 1.386 . S
C735 C739 1.393 . S
C736 H725 0.950 . S
C736 C734 1.391 . S
C736 C737 1.400 . S
C737 C731 1.491 . S
C737 C736 1.400 . S
C737 C738 1.398 . S
C738 H726 0.950 . S
C738 C737 1.398 . S
C738 C739 1.391 . S
C739 H727 0.950 . S
C739 C735 1.393 . S
C739 C738 1.391 . S
H740 C748 0.950 . S
H741 C753 0.950 . S
H742 C750 0.950 . S
H743 C752 0.950 . S
H744 C754 0.950 . S
H745 C756 0.950 . S
H746 C758 0.950 . S
H747 C759 0.950 . S
C748 H740 0.950 . S
C748 C749 1.386 . S
C748 C750 1.391 . S
C749 C748 1.386 . S
C749 C753 1.393 . S
C750 H742 0.950 . S
C750 C748 1.391 . S
C750 C751 1.400 . S
C751 C750 1.400 . S
C751 C752 1.398 . S
C751 C757 1.491 . S
C752 H743 0.950 . S
C752 C751 1.398 . S
C752 C753 1.391 . S
C753 H741 0.950 . S
C753 C749 1.393 . S
C753 C752 1.391 . S
C754 H744 0.950 . S
C754 C755 1.386 . S
C754 C756 1.391 . S
C755 C754 1.386 . S
C755 C759 1.393 . S
C756 H745 0.950 . S
C756 C754 1.391 . S
C756 C757 1.400 . S
C757 C751 1.491 . S
C757 C756 1.400 . S
C757 C758 1.398 . S
C758 H746 0.950 . S
C758 C757 1.398 . S
C758 C759 1.391 . S
C759 H747 0.950 . S
C759 C755 1.393 . S
C759 C758 1.391 . S
H760 C768 0.950 . S
H761 C773 0.950 . S
H762 C770 0.950 . S
H763 C772 0.950 . S
H764 C774 0.950 . S
H765 C776 0.950 . S
H766 C778 0.950 . S
H767 C779 0.950 . S
C768 H760 0.950 . S
C768 C769 1.386 . S
C768 C770 1.391 . S
C769 C768 1.386 . S
C769 C773 1.393 . S
C770 H762 0.950 . S
C770 C768 1.391 . S
C770 C771 1.400 . S
C771 C770 1.400 . S
C771 C772 1.398 . S
C771 C777 1.491 . S
C772 H763 0.950 . S
C772 C771 1.398 . S
C772 C773 1.391 . S
C773 H761 0.950 . S
C773 C769 1.393 . S
C773 C772 1.391 . S
C774 H764 0.950 . S
C774 C775 1.386 . S
C774 C776 1.391 . S
C775 C774 1.386 . S
C775 C779 1.393 . S
C776 H765 0.950 . S
C776 C774 1.391 . S
C776 C777 1.400 . S
C777 C771 1.491 . S
C777 C776 1.400 . S
C777 C778 1.398 . S
C778 H766 0.950 . S
C778 C777 1.398 . S
C778 C779 1.391 . S
C779 H767 0.950 . S
C779 C775 1.393 . S
C779 C778 1.391 . S
H780 C788 0.950 . S
H781 C793 0.950 . S
H782 C790 0.950 . S
H783 C792 0.950 . S
H784 C794 0.950 . S
H785 C796 0.950 . S
H786 C798 0.950 . S
H787 C799 0.950 . S
C788 H780 0.950 . S
C788 C789 1.386 . S
C788 C790 1.391 . S
C789 C788 1.386 . S
C789 C793 1.393 . S
C790 H782 0.950 . S
C790 C788 1.391 . S
C790 C791 1.400 . S
C791 C790 1.400 . S
C791 C792 1.398 . S
C791 C797 1.491 . S
C792 H783 0.950 . S
C792 C791 1.398 . S
C792 C793 1.391 . S
C793 H781 0.950 . S
C793 C789 1.393 . S
C793 C792 1.391 . S
C794 H784 0.950 . S
C794 C795 1.386 . S
C794 C796 1.391 . S
C795 C794 1.386 . S
C795 C799 1.393 . S
C796 H785 0.950 . S
C796 C794 1.391 . S
C796 C797 1.400 . S
C797 C791 1.491 . S
C797 C796 1.400 . S
C797 C798 1.398 . S
C798 H786 0.950 . S
C798 C797 1.398 . S
C798 C799 1.391 . S
C799 H787 0.950 . S
C799 C795 1.393 . S
C799 C798 1.391 . S
C329 C19 2.287 . S
C335 C10 2.287 . S
C349 C59 2.287 . S
C355 C50 2.287 . S
C369 C99 2.281 . S
C375 C90 2.281 . S
C389 C139 2.281 . S
C395 C130 2.281 . S
C409 C179 2.281 . S
C415 C170 2.281 . S
C429 C210 2.281 . S
C435 C219 2.281 . S
C449 C259 2.285 . S
C455 C250 2.285 . S
C469 C290 2.288 . S
C475 C299 2.288 . S
C489 C55 2.621 . S
C495 C6 2.621 . S
C509 C126 2.611 . S
C515 C95 2.611 . S
C529 C166 2.621 . S
C535 C215 2.621 . S
C549 C255 2.609 . S
C555 C286 2.608 . S
C569 C15 1.830 . S
C575 C206 1.830 . S
C589 C175 1.830 . S
C595 C46 1.830 . S
C609 C86 1.823 . S
C615 C295 1.823 . S
C629 C135 1.828 . S
C635 C246 1.828 . S
C649 C9 1.463 . S
C655 C129 1.481 . S
C669 C49 1.589 . S
C675 C89 1.571 . S
C689 C58 1.475 . S
C695 C98 1.477 . S
C709 C138 1.587 . S
C715 C18 1.573 . S
C729 C169 1.487 . S
C735 C289 1.462 . S
C749 C209 1.572 . S
C755 C249 1.596 . S
C769 C218 1.484 . S
C775 C258 1.465 . S
C789 C298 1.578 . S
C795 C178 1.598 . S
