# Generated by pormake.
# Topology utk, (3)-cn, num edge types: 1
# Building blocks:
#     Node 0, Type 0, BuildingBlock: OLANEW_clean_sbu_2, # of connection points: 3
#     Node 1, Type 0, BuildingBlock: OLANEW_clean_sbu_2, # of connection points: 3
#     Node 2, Type 0, BuildingBlock: OLANEW_clean_sbu_2, # of connection points: 3
#     Node 3, Type 0, BuildingBlock: OLANEW_clean_sbu_2, # of connection points: 3
#     Node 4, Type 0, BuildingBlock: OLANEW_clean_sbu_2, # of connection points: 3
#     Node 5, Type 0, BuildingBlock: OLANEW_clean_sbu_2, # of connection points: 3
#     Node 6, Type 0, BuildingBlock: OLANEW_clean_sbu_2, # of connection points: 3
#     Node 7, Type 0, BuildingBlock: OLANEW_clean_sbu_2, # of connection points: 3
#     Edge 8, Type (0, 0), BuildingBlock: MIFKUJ_clean_linker_0, # of connection points: 2
#     Edge 9, Type (0, 0), BuildingBlock: MIFKUJ_clean_linker_0, # of connection points: 2
#     Edge 10, Type (0, 0), BuildingBlock: MIFKUJ_clean_linker_0, # of connection points: 2
#     Edge 11, Type (0, 0), BuildingBlock: MIFKUJ_clean_linker_0, # of connection points: 2
#     Edge 12, Type (0, 0), BuildingBlock: MIFKUJ_clean_linker_0, # of connection points: 2
#     Edge 13, Type (0, 0), BuildingBlock: MIFKUJ_clean_linker_0, # of connection points: 2
#     Edge 14, Type (0, 0), BuildingBlock: MIFKUJ_clean_linker_0, # of connection points: 2
#     Edge 15, Type (0, 0), BuildingBlock: MIFKUJ_clean_linker_0, # of connection points: 2
#     Edge 16, Type (0, 0), BuildingBlock: MIFKUJ_clean_linker_0, # of connection points: 2
#     Edge 17, Type (0, 0), BuildingBlock: MIFKUJ_clean_linker_0, # of connection points: 2
#     Edge 18, Type (0, 0), BuildingBlock: MIFKUJ_clean_linker_0, # of connection points: 2
#     Edge 19, Type (0, 0), BuildingBlock: MIFKUJ_clean_linker_0, # of connection points: 2
# Relax obj value: 0.000
# Max RMSD: 0.051
# Mean RMSD: 0.051
data_MOF--net-utk--node1-OLANEW_clean_sbu_2--edge1-MIFKUJ_clean_linker_0
_symmetry_space_group_name_H-M    P1
_symmetry_Int_Tables_number       1
_symmetry_cell_setting            triclinic
loop_
_symmetry_equiv_pos_as_xyz
'x, y, z'
_cell_length_a     54.940271
_cell_length_b     54.9284
_cell_length_c     40.398773
_cell_angle_alpha  89.976233
_cell_angle_beta   89.99931
_cell_angle_gamma 89.995903
loop_
_atom_site_label
_atom_site_type_symbol
_atom_site_fract_x
_atom_site_fract_y
_atom_site_fract_z
_atom_type_partial_charge
O0 O 0.1175 0.35877 0.23825 0.0
Cd1 Cd 0.10968 0.31503 0.23425 0.0
O2 O 0.0816 0.3677 0.2174 0.0
Cd3 Cd 0.07205 0.33074 0.20243 0.0
O4 O 0.05729 0.30735 0.16365 0.0
C5 C 0.07101 0.3013 0.13969 0.0
O6 O 0.09409 0.30753 0.14066 0.0
C7 C 0.10161 0.37453 0.23018 0.0
C8 C 0.1363 0.28896 0.28122 0.0
O9 O 0.14412 0.29134 0.2515 0.0
O10 O 0.11589 0.29883 0.28868 0.0
O11 O 0.63454 0.12114 0.49912 0.0
Cd12 Cd 0.67759 0.10988 0.49743 0.0
O13 O 0.62454 0.09265 0.46338 0.0
Cd14 Cd 0.66139 0.08033 0.45202 0.0
O15 O 0.68628 0.06075 0.4194 0.0
C16 C 0.6975 0.07195 0.39648 0.0
O17 O 0.6955 0.09574 0.39457 0.0
C18 C 0.61836 0.10982 0.48273 0.0
C19 C 0.70504 0.1377 0.54148 0.0
O20 O 0.70359 0.14355 0.51082 0.0
O21 O 0.69359 0.11868 0.55125 0.0
O22 O 0.86886 0.64103 0.71316 0.0
Cd23 Cd 0.87488 0.68467 0.70442 0.0
O24 O 0.90589 0.63282 0.6957 0.0
Cd25 Cd 0.91511 0.66959 0.6794 0.0
O26 O 0.93352 0.6942 0.64511 0.0
C27 C 0.95665 0.69445 0.6455 0.0
O28 O 0.96807 0.68146 0.66798 0.0
C29 C 0.8857 0.62568 0.70765 0.0
C30 C 0.84666 0.71257 0.74748 0.0
O31 O 0.83915 0.70761 0.7182 0.0
O32 O 0.86749 0.70434 0.75636 0.0
O33 O 0.35069 0.86386 0.95138 0.0
Cd34 Cd 0.30777 0.86668 0.93571 0.0
O35 O 0.3489 0.89622 0.98332 0.0
Cd36 Cd 0.31441 0.90746 0.96132 0.0
O37 O 0.29983 0.92442 0.91664 0.0
C38 C 0.31291 0.92067 0.8912 0.0
O39 O 0.33216 0.90663 0.89415 0.0
C40 C 0.3607 0.87804 0.97222 0.0
C41 C 0.27911 0.84253 0.98236 0.0
O42 O 0.28683 0.83155 0.95641 0.0
O43 O 0.28468 0.86503 0.98602 0.0
O44 O 0.14283 0.6429 0.28745 0.0
Cd45 Cd 0.14315 0.68637 0.30051 0.0
O46 O 0.10541 0.64426 0.26821 0.0
Cd47 Cd 0.09856 0.68066 0.28782 0.0
O48 O 0.08286 0.70348 0.32659 0.0
C49 C 0.09259 0.70267 0.35511 0.0
O50 O 0.11251 0.68977 0.35913 0.0
C51 C 0.12492 0.63242 0.27349 0.0
C52 C 0.16264 0.71313 0.24812 0.0
O53 O 0.17617 0.70541 0.27174 0.0
O54 O 0.13982 0.70835 0.24941 0.0
O55 O 0.352 0.14298 0.55466 0.0
Cd56 Cd 0.3092 0.13813 0.57005 0.0
O57 O 0.35088 0.11062 0.52266 0.0
Cd58 Cd 0.31659 0.09798 0.54386 0.0
O59 O 0.30117 0.07613 0.58388 0.0
C60 C 0.31339 0.05708 0.59036 0.0
O61 O 0.33238 0.052 0.57181 0.0
C62 C 0.36228 0.12905 0.53374 0.0
C63 C 0.27902 0.16142 0.52439 0.0
O64 O 0.2852 0.17196 0.55142 0.0
O65 O 0.28694 0.13984 0.51908 0.0
O66 O 0.86228 0.35961 0.79481 0.0
Cd67 Cd 0.86604 0.3171 0.8121 0.0
O68 O 0.89959 0.36009 0.77505 0.0
Cd69 Cd 0.90951 0.3253 0.79747 0.0
O70 O 0.92712 0.30383 0.83616 0.0
C71 C 0.94977 0.29937 0.83396 0.0
O72 O 0.96149 0.30623 0.80718 0.0
C73 C 0.87924 0.37065 0.77948 0.0
C74 C 0.84077 0.28657 0.76897 0.0
O75 O 0.83095 0.29409 0.79587 0.0
O76 O 0.86259 0.29334 0.76259 0.0
O77 O 0.63335 0.87947 0.00957 0.0
Cd78 Cd 0.67686 0.88862 0.01234 0.0
O79 O 0.62436 0.90897 0.04429 0.0
Cd80 Cd 0.66168 0.91956 0.05608 0.0
O81 O 0.68784 0.93792 0.08817 0.0
C82 C 0.69268 0.92824 0.11597 0.0
O83 O 0.68335 0.9068 0.12289 0.0
C84 C 0.61756 0.89184 0.02526 0.0
C85 C 0.70384 0.85946 0.96939 0.0
O86 O 0.70132 0.85364 0.99993 0.0
O87 O 0.69362 0.87904 0.95919 0.0
H88 H 0.14256 0.39636 0.25556 0.0
H89 H 0.15045 0.44005 0.26127 0.0
H90 H 0.07949 0.45585 0.22092 0.0
H91 H 0.07156 0.41244 0.21477 0.0
H92 H 0.11382 0.48405 0.19307 0.0
H93 H 0.0906 0.46014 0.30369 0.0
H94 H 0.09358 0.43615 0.35514 0.0
H95 H 0.16682 0.4613 0.3696 0.0
H96 H 0.16437 0.4852 0.31796 0.0
H97 H 0.09019 0.60478 0.24298 0.0
H98 H 0.09072 0.56095 0.23346 0.0
H99 H 0.16268 0.55653 0.27573 0.0
H100 H 0.16222 0.60048 0.28577 0.0
H101 H 0.13301 0.52227 0.3012 0.0
H102 H 0.1546 0.54946 0.19299 0.0
H103 H 0.15108 0.57378 0.1419 0.0
H104 H 0.08076 0.5427 0.12284 0.0
H105 H 0.0837 0.51844 0.17408 0.0
C106 C 0.12861 0.40914 0.24799 0.0
C107 C 0.10641 0.40088 0.23474 0.0
C108 C 0.13314 0.4341 0.25134 0.0
C109 C 0.11551 0.4512 0.24165 0.0
C110 C 0.09338 0.44298 0.22844 0.0
C111 C 0.08885 0.41811 0.22509 0.0
C112 C 0.11995 0.47773 0.24503 0.0
C113 C 0.11783 0.49245 0.21676 0.0
C114 C 0.12591 0.48857 0.27574 0.0
C115 C 0.1274 0.47422 0.30677 0.0
C116 C 0.10741 0.46038 0.31769 0.0
C117 C 0.10899 0.44684 0.34692 0.0
C118 C 0.1304 0.44713 0.36557 0.0
C119 C 0.15026 0.46104 0.35509 0.0
C120 C 0.14878 0.4746 0.32586 0.0
C121 C 0.10626 0.59458 0.24997 0.0
C122 C 0.12616 0.60617 0.26517 0.0
C123 C 0.10657 0.5695 0.24437 0.0
C124 C 0.12682 0.55549 0.25363 0.0
C125 C 0.14688 0.56702 0.26835 0.0
C126 C 0.14661 0.59215 0.27395 0.0
C127 C 0.12642 0.52866 0.24934 0.0
C128 C 0.1293 0.51387 0.27742 0.0
C129 C 0.12113 0.51775 0.21845 0.0
C130 C 0.1193 0.53226 0.18753 0.0
C131 C 0.1383 0.54795 0.17804 0.0
C132 C 0.13643 0.5617 0.14902 0.0
C133 C 0.11569 0.55982 0.12917 0.0
C134 C 0.09681 0.54414 0.13826 0.0
C135 C 0.09858 0.53036 0.16726 0.0
H136 H 0.11427 0.57048 0.10671 0.0
H137 H 0.13159 0.43664 0.3882 0.0
H138 H 0.59794 0.14546 0.52152 0.0
H139 H 0.55462 0.15478 0.52814 0.0
H140 H 0.53654 0.09769 0.45908 0.0
H141 H 0.57961 0.08855 0.4519 0.0
H142 H 0.50955 0.1372 0.44753 0.0
H143 H 0.53204 0.08915 0.54289 0.0
H144 H 0.55583 0.07937 0.59294 0.0
H145 H 0.53347 0.14671 0.63753 0.0
H146 H 0.50979 0.15703 0.58753 0.0
H147 H 0.389 0.10374 0.48824 0.0
H148 H 0.43253 0.10708 0.47734 0.0
H149 H 0.43771 0.16632 0.54704 0.0
H150 H 0.39407 0.16297 0.55839 0.0
H151 H 0.47163 0.13187 0.55874 0.0
H152 H 0.4445 0.17695 0.46477 0.0
H153 H 0.42006 0.18519 0.41483 0.0
H154 H 0.45046 0.12219 0.36743 0.0
H155 H 0.47485 0.11336 0.41726 0.0
C156 C 0.58474 0.13496 0.50764 0.0
C157 C 0.59226 0.11617 0.48631 0.0
C158 C 0.55999 0.14028 0.51151 0.0
C159 C 0.54232 0.12678 0.49433 0.0
C160 C 0.54983 0.10838 0.47255 0.0
C161 C 0.57451 0.1031 0.4686 0.0
C162 C 0.51594 0.13121 0.4995 0.0
C163 C 0.50122 0.13591 0.47181 0.0
C164 C 0.50517 0.13016 0.5313 0.0
C165 C 0.5194 0.12399 0.56133 0.0
C166 C 0.53237 0.10196 0.56326 0.0
C167 C 0.5458 0.09631 0.59163 0.0
C168 C 0.54623 0.11245 0.61835 0.0
C169 C 0.53317 0.13425 0.61678 0.0
C170 C 0.51973 0.14001 0.58845 0.0
C171 C 0.39928 0.11773 0.50094 0.0
C172 C 0.38804 0.13303 0.52429 0.0
C173 C 0.42418 0.11968 0.49455 0.0
C174 C 0.43835 0.13705 0.51122 0.0
C175 C 0.42709 0.15281 0.53387 0.0
C176 C 0.40214 0.15092 0.54023 0.0
C177 C 0.46515 0.13744 0.50668 0.0
C178 C 0.47997 0.13359 0.5345 0.0
C179 C 0.47597 0.13912 0.47498 0.0
C180 C 0.46139 0.14441 0.44488 0.0
C181 C 0.44585 0.16475 0.4438 0.0
C182 C 0.43202 0.16954 0.41549 0.0
C183 C 0.43367 0.1542 0.388 0.0
C184 C 0.4492 0.13406 0.38874 0.0
C185 C 0.46305 0.12917 0.417 0.0
H186 H 0.42295 0.15794 0.3661 0.0
H187 H 0.55663 0.10804 0.6403 0.0
H188 H 0.84499 0.6032 0.73277 0.0
H189 H 0.83909 0.55959 0.74283 0.0
H190 H 0.91196 0.54534 0.70812 0.0
H191 H 0.91792 0.58861 0.69768 0.0
H192 H 0.87994 0.51366 0.68196 0.0
H193 H 0.89848 0.54593 0.79055 0.0
H194 H 0.89229 0.57283 0.83869 0.0
H195 H 0.82037 0.54386 0.85219 0.0
H196 H 0.82604 0.517 0.80384 0.0
H197 H 0.91196 0.39931 0.74675 0.0
H198 H 0.90781 0.44212 0.73202 0.0
H199 H 0.83502 0.44283 0.77206 0.0
H200 H 0.83915 0.39989 0.78744 0.0
H201 H 0.8607 0.48119 0.79353 0.0
H202 H 0.84412 0.44538 0.68858 0.0
H203 H 0.85072 0.41819 0.64087 0.0
H204 H 0.91876 0.45355 0.62028 0.0
H205 H 0.91274 0.48074 0.66815 0.0
C206 C 0.85976 0.59078 0.72733 0.0
C207 C 0.88194 0.59942 0.71446 0.0
C208 C 0.85638 0.56587 0.73316 0.0
C209 C 0.87514 0.54923 0.72636 0.0
C210 C 0.89721 0.55784 0.71343 0.0
C211 C 0.90061 0.58263 0.70762 0.0
C212 C 0.87206 0.5228 0.73267 0.0
C213 C 0.87588 0.50654 0.70639 0.0
C214 C 0.86599 0.51356 0.76431 0.0
C215 C 0.86258 0.52969 0.79335 0.0
C216 C 0.88127 0.54545 0.80362 0.0
C217 C 0.87787 0.56066 0.83097 0.0
C218 C 0.85592 0.56012 0.84842 0.0
C219 C 0.83735 0.54431 0.83861 0.0
C220 C 0.84065 0.52908 0.81124 0.0
C221 C 0.89495 0.40844 0.75218 0.0
C222 C 0.87589 0.39614 0.7683 0.0
C223 C 0.89257 0.43294 0.74358 0.0
C224 C 0.871 0.44563 0.75062 0.0
C225 C 0.8518 0.43336 0.76633 0.0
C226 C 0.85417 0.4088 0.775 0.0
C227 C 0.86917 0.472 0.74297 0.0
C228 C 0.8644 0.48828 0.76897 0.0
C229 C 0.87438 0.48127 0.71105 0.0
C230 C 0.87804 0.465 0.68212 0.0
C231 C 0.86058 0.44725 0.67403 0.0
C232 C 0.8642 0.43186 0.64693 0.0
C233 C 0.88516 0.43412 0.62759 0.0
C234 C 0.90253 0.45182 0.63528 0.0
C235 C 0.899 0.46725 0.66238 0.0
H236 H 0.88794 0.42218 0.60662 0.0
H237 H 0.85332 0.5719 0.8696 0.0
H238 H 0.59586 0.85653 0.98722 0.0
H239 H 0.55223 0.84904 0.98024 0.0
H240 H 0.53618 0.90818 0.047 0.0
H241 H 0.57956 0.91553 0.05454 0.0
H242 H 0.50756 0.87001 0.05969 0.0
H243 H 0.53233 0.91525 0.96292 0.0
H244 H 0.55672 0.92317 0.91281 0.0
H245 H 0.53206 0.85591 0.87031 0.0
H246 H 0.50776 0.84744 0.9204 0.0
H247 H 0.38748 0.90453 0.01651 0.0
H248 H 0.431 0.90124 0.02777 0.0
H249 H 0.43609 0.84047 0.96053 0.0
H250 H 0.39254 0.84375 0.94884 0.0
H251 H 0.47046 0.87422 0.94789 0.0
H252 H 0.44184 0.83156 0.04321 0.0
H253 H 0.41692 0.82486 0.09315 0.0
H254 H 0.44827 0.88823 0.13845 0.0
H255 H 0.47313 0.89552 0.08859 0.0
C256 C 0.58304 0.86789 0.0005 0.0
C257 C 0.59123 0.88671 0.02132 0.0
C258 C 0.55811 0.86362 0.99642 0.0
C259 C 0.54094 0.8782 0.01287 0.0
C260 C 0.54909 0.89667 0.0341 0.0
C261 C 0.57394 0.90091 0.03825 0.0
C262 C 0.51443 0.87473 0.00758 0.0
C263 C 0.49941 0.87108 0.03527 0.0
C264 C 0.50387 0.87551 0.97565 0.0
C265 C 0.51847 0.88057 0.94555 0.0
C266 C 0.53228 0.90205 0.943 0.0
C267 C 0.54605 0.90666 0.91459 0.0
C268 C 0.54601 0.89002 0.88844 0.0
C269 C 0.53212 0.86876 0.89062 0.0
C270 C 0.51834 0.86405 0.919 0.0
C271 C 0.39776 0.89025 0.00441 0.0
C272 C 0.38651 0.87445 0.98169 0.0
C273 C 0.42264 0.88833 0.01099 0.0
C274 C 0.43677 0.87051 0.99514 0.0
C275 C 0.42551 0.85434 0.97304 0.0
C276 C 0.4006 0.8562 0.96649 0.0
C277 C 0.46352 0.86987 5e-05 0.0
C278 C 0.4786 0.87278 0.97228 0.0
C279 C 0.47411 0.86854 0.03193 0.0
C280 C 0.45922 0.86418 0.06203 0.0
C281 C 0.44329 0.84418 0.06371 0.0
C282 C 0.42919 0.84026 0.09203 0.0
C283 C 0.43097 0.85614 0.11893 0.0
C284 C 0.4469 0.87595 0.11759 0.0
C285 C 0.46102 0.87996 0.08932 0.0
H286 H 0.42005 0.85307 0.14083 0.0
H287 H 0.55667 0.89362 0.86645 0.0
H288 H 0.13155 0.2908 0.34845 0.0
H289 H 0.15553 0.26875 0.38989 0.0
H290 H 0.19657 0.234 0.31218 0.0
H291 H 0.17302 0.25636 0.27053 0.0
H292 H 0.17773 0.20204 0.36535 0.0
H293 H 0.2237 0.27616 0.34809 0.0
H294 H 0.22867 0.32072 0.34509 0.0
H295 H 0.20589 0.32733 0.44636 0.0
H296 H 0.20043 0.28281 0.44981 0.0
H297 H 0.27316 0.15013 0.45911 0.0
H298 H 0.24835 0.17144 0.41817 0.0
H299 H 0.22415 0.22168 0.49347 0.0
H300 H 0.24989 0.20108 0.53415 0.0
H301 H 0.23336 0.24599 0.44141 0.0
H302 H 0.18726 0.17381 0.46121 0.0
H303 H 0.17954 0.12975 0.46635 0.0
H304 H 0.19855 0.11958 0.36419 0.0
H305 H 0.20671 0.16355 0.35855 0.0
C306 C 0.14566 0.27845 0.34017 0.0
C307 C 0.15046 0.27534 0.30625 0.0
C308 C 0.15934 0.26592 0.36386 0.0
C309 C 0.1778 0.24984 0.35401 0.0
C310 C 0.18236 0.24635 0.32019 0.0
C311 C 0.16898 0.2592 0.29649 0.0
C312 C 0.19252 0.23684 0.37908 0.0
C313 C 0.19015 0.21152 0.38177 0.0
C314 C 0.20802 0.24944 0.4011 0.0
C315 C 0.2114 0.27619 0.39909 0.0
C316 C 0.21953 0.28714 0.36962 0.0
C317 C 0.22248 0.31238 0.36786 0.0
C318 C 0.21753 0.32686 0.39549 0.0
C319 C 0.20968 0.3161 0.42497 0.0
C320 C 0.20667 0.29086 0.42685 0.0
C321 C 0.26248 0.16567 0.46695 0.0
C322 C 0.26341 0.1739 0.49986 0.0
C323 C 0.24817 0.17777 0.44356 0.0
C324 C 0.23397 0.19796 0.45277 0.0
C325 C 0.23489 0.20616 0.48569 0.0
C326 C 0.24957 0.19434 0.50896 0.0
C327 C 0.21872 0.21092 0.42792 0.0
C328 C 0.22094 0.23633 0.42518 0.0
C329 C 0.20271 0.19841 0.40627 0.0
C330 C 0.19783 0.17195 0.40956 0.0
C331 C 0.18998 0.16215 0.43991 0.0
C332 C 0.18549 0.1372 0.4429 0.0
C333 C 0.18861 0.12186 0.41564 0.0
C334 C 0.19617 0.13147 0.3853 0.0
C335 C 0.20071 0.15641 0.38218 0.0
H336 H 0.18512 0.10255 0.41801 0.0
H337 H 0.21983 0.3464 0.39408 0.0
H338 H 0.74039 0.17105 0.52711 0.0
H339 H 0.76403 0.19563 0.56624 0.0
H340 H 0.72535 0.16293 0.64777 0.0
H341 H 0.70198 0.13792 0.60891 0.0
H342 H 0.72888 0.21635 0.64804 0.0
H343 H 0.77851 0.14409 0.63761 0.0
H344 H 0.80131 0.1129 0.60655 0.0
H345 H 0.84747 0.16825 0.56539 0.0
H346 H 0.8247 0.19983 0.59585 0.0
H347 H 0.79922 0.26078 0.7811 0.0
H348 H 0.77665 0.23498 0.7426 0.0
H349 H 0.82854 0.25159 0.66559 0.0
H350 H 0.85174 0.27659 0.70444 0.0
H351 H 0.81802 0.20617 0.66212 0.0
H352 H 0.77016 0.27851 0.66982 0.0
H353 H 0.74739 0.31147 0.69734 0.0
H354 H 0.698 0.25915 0.73888 0.0
H355 H 0.72068 0.22582 0.71195 0.0
C356 C 0.73695 0.16907 0.55337 0.0
C357 C 0.71937 0.15254 0.56497 0.0
C358 C 0.75049 0.18306 0.57565 0.0
C359 C 0.74642 0.181 0.60981 0.0
C360 C 0.72871 0.16473 0.62146 0.0
C361 C 0.71547 0.15042 0.59925 0.0
C362 C 0.76053 0.19598 0.63341 0.0
C363 C 0.74832 0.21397 0.65153 0.0
C364 C 0.78598 0.19331 0.63697 0.0
C365 C 0.79973 0.17434 0.61873 0.0
C366 C 0.79337 0.14964 0.62169 0.0
C367 C 0.80632 0.13188 0.60425 0.0
C368 C 0.82578 0.1386 0.58393 0.0
C369 C 0.83237 0.16308 0.58109 0.0
C370 C 0.81946 0.18091 0.59846 0.0
C371 C 0.80582 0.25892 0.75597 0.0
C372 C 0.82719 0.27079 0.74575 0.0
C373 C 0.79283 0.24426 0.7339 0.0
C374 C 0.8006 0.24167 0.70094 0.0
C375 C 0.82212 0.25331 0.69084 0.0
C376 C 0.83535 0.26765 0.71306 0.0
C377 C 0.78641 0.2267 0.67708 0.0
C378 C 0.79859 0.20868 0.65878 0.0
C379 C 0.76096 0.22966 0.67289 0.0
C380 C 0.74727 0.24965 0.68914 0.0
C381 C 0.75456 0.27401 0.68504 0.0
C382 C 0.74165 0.29276 0.70049 0.0
C383 C 0.7213 0.2874 0.71992 0.0
C384 C 0.71379 0.26327 0.72386 0.0
C385 C 0.72665 0.24444 0.70849 0.0
H386 H 0.71133 0.30195 0.73186 0.0
H387 H 0.83579 0.12482 0.57046 0.0
H388 H 0.80716 0.74071 0.7324 0.0
H389 H 0.78286 0.76562 0.77029 0.0
H390 H 0.82784 0.74262 0.85199 0.0
H391 H 0.85246 0.71791 0.81423 0.0
H392 H 0.77614 0.74015 0.86375 0.0
H393 H 0.83726 0.7962 0.82403 0.0
H394 H 0.8607 0.81775 0.78099 0.0
H395 H 0.7948 0.84898 0.74271 0.0
H396 H 0.77092 0.82733 0.78527 0.0
H397 H 0.73628 0.82366 0.98537 0.0
H398 H 0.76034 0.79863 0.94761 0.0
H399 H 0.72719 0.83477 0.86409 0.0
H400 H 0.70387 0.86057 0.90182 0.0
H401 H 0.7728 0.83005 0.85247 0.0
H402 H 0.71108 0.77523 0.88984 0.0
H403 H 0.6859 0.7531 0.93046 0.0
H404 H 0.7498 0.71872 0.96997 0.0
H405 H 0.77541 0.74089 0.92986 0.0
C406 C 0.81187 0.74093 0.75843 0.0
C407 C 0.83176 0.7274 0.77034 0.0
C408 C 0.79801 0.75521 0.78 0.0
C409 C 0.80365 0.756 0.81385 0.0
C410 C 0.82324 0.74223 0.82591 0.0
C411 C 0.83732 0.72822 0.8043 0.0
C412 C 0.78915 0.77128 0.83668 0.0
C413 C 0.7756 0.75984 0.86163 0.0
C414 C 0.78794 0.79685 0.83313 0.0
C415 C 0.80228 0.80994 0.80761 0.0
C416 C 0.82774 0.80749 0.80625 0.0
C417 C 0.84111 0.81976 0.78198 0.0
C418 C 0.82924 0.83467 0.75907 0.0
C419 C 0.80397 0.8374 0.76044 0.0
C420 C 0.79051 0.82515 0.78465 0.0
C421 C 0.73409 0.82623 0.95895 0.0
C422 C 0.71814 0.84403 0.94655 0.0
C423 C 0.74776 0.81181 0.93736 0.0
C424 C 0.7453 0.81447 0.90291 0.0
C425 C 0.72942 0.83232 0.89053 0.0
C426 C 0.71605 0.84703 0.91212 0.0
C427 C 0.75961 0.79899 0.87981 0.0
C428 C 0.77319 0.81037 0.85471 0.0
C429 C 0.76053 0.7733 0.88292 0.0
C430 C 0.74518 0.7599 0.90705 0.0
C431 C 0.71978 0.76309 0.90735 0.0
C432 C 0.70543 0.75051 0.93026 0.0
C433 C 0.71625 0.73457 0.95284 0.0
C434 C 0.74145 0.7311 0.9525 0.0
C435 C 0.75589 0.74365 0.92966 0.0
H436 H 0.70511 0.72485 0.97055 0.0
H437 H 0.83962 0.84416 0.74031 0.0
H438 H 0.2613 0.79611 0.97935 0.0
H439 H 0.23868 0.77413 0.02204 0.0
H440 H 0.24251 0.837 0.08582 0.0
H441 H 0.2646 0.85928 0.04296 0.0
H442 H 0.25143 0.76051 0.08124 0.0
H443 H 0.19351 0.83916 0.13641 0.0
H444 H 0.17346 0.87695 0.11778 0.0
H445 H 0.16857 0.84852 0.01901 0.0
H446 H 0.18827 0.81045 0.03714 0.0
H447 H 0.20969 0.7282 0.24021 0.0
H448 H 0.22718 0.75002 0.1932 0.0
H449 H 0.15708 0.75057 0.14507 0.0
H450 H 0.13931 0.72914 0.19235 0.0
H451 H 0.17846 0.79342 0.13808 0.0
H452 H 0.20134 0.71058 0.12105 0.0
H453 H 0.21869 0.6706 0.13572 0.0
H454 H 0.28874 0.7035 0.15055 0.0
H455 H 0.27172 0.74375 0.1364 0.0
C456 C 0.25716 0.80533 0.00237 0.0
C457 C 0.2647 0.82946 0.00774 0.0
C458 C 0.24428 0.79271 0.02678 0.0
C459 C 0.23869 0.80395 0.05706 0.0
C460 C 0.24619 0.82807 0.06245 0.0
C461 C 0.25893 0.84076 0.03796 0.0
C462 C 0.2258 0.79017 0.08342 0.0
C463 C 0.23545 0.76771 0.0936 0.0
C464 C 0.20467 0.79929 0.09919 0.0
C465 C 0.19259 0.82204 0.0881 0.0
C466 C 0.18807 0.84094 0.11075 0.0
C467 C 0.17678 0.86242 0.10027 0.0
C468 C 0.16982 0.86517 0.06721 0.0
C469 C 0.17405 0.84641 0.04459 0.0
C470 C 0.18531 0.82489 0.05494 0.0
C471 C 0.19796 0.733 0.21966 0.0
C472 C 0.17313 0.72683 0.21996 0.0
C473 C 0.20802 0.74539 0.19274 0.0
C474 C 0.19352 0.75164 0.16539 0.0
C475 C 0.16862 0.7459 0.16587 0.0
C476 C 0.15852 0.73359 0.19288 0.0
C477 C 0.2044 0.76405 0.13627 0.0
C478 C 0.1944 0.78623 0.12563 0.0
C479 C 0.22486 0.75439 0.1195 0.0
C480 C 0.2352 0.73021 0.12794 0.0
C481 C 0.2204 0.70932 0.12768 0.0
C482 C 0.23018 0.6866 0.13586 0.0
C483 C 0.25479 0.68452 0.14414 0.0
C484 C 0.26968 0.70515 0.14417 0.0
C485 C 0.25998 0.72791 0.13603 0.0
H486 H 0.26233 0.66692 0.15046 0.0
H487 H 0.16109 0.88181 0.05915 0.0
H488 H 0.09472 0.28941 0.08243 0.0
H489 H 0.07638 0.27965 0.02896 0.0
H490 H 0.00502 0.28117 0.07338 0.0
H491 H 0.02319 0.29066 0.12707 0.0
H492 H 0.00869 0.24578 0.02479 0.0
H493 H 0.02655 0.33136 0.03822 0.0
H494 H 0.053 0.36663 0.04976 0.0
H495 H 0.09912 0.34698 0.96822 0.0
H496 H 0.0731 0.31137 0.9565 0.0
H497 H 0.93172 0.28729 0.89497 0.0
H498 H 0.95494 0.27812 0.94495 0.0
H499 H 0.02171 0.28116 0.8889 0.0
H500 H 0.99864 0.29068 0.83884 0.0
H501 H 0.02373 0.3102 0.94112 0.0
H502 H 0.00168 0.22747 0.92285 0.0
H503 H 0.97429 0.19294 0.91143 0.0
H504 H 0.9351 0.20739 0.00125 0.0
H505 H 0.96205 0.24224 0.013 0.0
C506 C 0.07516 0.28719 0.08102 0.0
C507 C 0.06038 0.29121 0.10892 0.0
C508 C 0.06471 0.28162 0.05041 0.0
C509 C 0.03932 0.28012 0.04712 0.0
C510 C 0.02465 0.28233 0.07538 0.0
C511 C 0.03508 0.28786 0.10603 0.0
C512 C 0.02794 0.27895 0.01388 0.0
C513 C 0.01185 0.25986 0.00647 0.0
C514 C 0.03246 0.29712 0.98981 0.0
C515 C 0.04806 0.31856 0.99674 0.0
C516 C 0.04245 0.33446 0.02293 0.0
C517 C 0.05733 0.35452 0.02948 0.0
C518 C 0.07777 0.359 0.00981 0.0
C519 C 0.08332 0.34346 0.98349 0.0
C520 C 0.06851 0.32334 0.97687 0.0
C521 C 0.95131 0.28555 0.8931 0.0
C522 C 0.96334 0.28998 0.86296 0.0
C523 C 0.96456 0.28015 0.92171 0.0
C524 C 0.99008 0.27888 0.92067 0.0
C525 C 0.00203 0.28207 0.89027 0.0
C526 C 0.9888 0.2875 0.86166 0.0
C527 C 0.00431 0.27702 0.95182 0.0
C528 C 0.02084 0.29575 0.95902 0.0
C529 C 6e-05 0.25857 0.97561 0.0
C530 C 0.9838 0.23761 0.96867 0.0
C531 C 0.98711 0.22342 0.94004 0.0
C532 C 0.97168 0.20376 0.93353 0.0
C533 C 0.95294 0.198 0.95556 0.0
C534 C 0.94962 0.21188 0.98419 0.0
C535 C 0.96499 0.23157 0.99081 0.0
H536 H 0.94102 0.18277 0.95048 0.0
H537 H 0.08927 0.37455 0.0149 0.0
H538 H 0.71958 0.08991 0.34083 0.0
H539 H 0.73136 0.06703 0.29147 0.0
H540 H 0.7125 0.99986 0.34048 0.0
H541 H 0.70106 0.02249 0.39006 0.0
H542 H 0.75175 0.99399 0.29881 0.0
H543 H 0.67057 0.02923 0.29494 0.0
H544 H 0.64118 0.06314 0.29721 0.0
H545 H 0.6776 0.09818 0.21608 0.0
H546 H 0.70741 0.06458 0.21364 0.0
H547 H 0.70059 0.91505 0.18026 0.0
H548 H 0.71398 0.94113 0.22545 0.0
H549 H 0.72624 0.99987 0.15648 0.0
H550 H 0.7123 0.97397 0.11108 0.0
H551 H 0.69782 0.01423 0.20422 0.0
H552 H 0.77389 0.97362 0.20086 0.0
H553 H 0.80225 0.93889 0.19851 0.0
H554 H 0.7756 0.9131 0.29208 0.0
H555 H 0.74681 0.94749 0.2948 0.0
C556 C 0.71846 0.07023 0.34141 0.0
C557 C 0.70894 0.05806 0.36918 0.0
C558 C 0.7252 0.05719 0.31315 0.0
C559 C 0.72237 0.03179 0.31211 0.0
C560 C 0.71477 0.01945 0.34071 0.0
C561 C 0.70809 0.03246 0.369 0.0
C562 C 0.72425 0.01838 0.28037 0.0
C563 C 0.74001 0.99834 0.27804 0.0
C564 C 0.70933 0.02446 0.25303 0.0
C565 C 0.69137 0.04458 0.25439 0.0
C566 C 0.6724 0.04426 0.27776 0.0
C567 C 0.65566 0.0634 0.27905 0.0
C568 C 0.65757 0.08284 0.25688 0.0
C569 C 0.67618 0.08314 0.23329 0.0
C570 C 0.693 0.06406 0.23194 0.0
C571 C 0.70663 0.93334 0.17453 0.0
C572 C 0.70507 0.94252 0.1421 0.0
C573 C 0.71449 0.94822 0.20044 0.0
C574 C 0.72123 0.97248 0.19441 0.0
C575 C 0.72111 0.98122 0.16173 0.0
C576 C 0.71314 0.96638 0.1358 0.0
C577 C 0.72508 0.98942 0.22259 0.0
C578 C 0.71017 0.01012 0.22442 0.0
C579 C 0.74075 0.98383 0.24938 0.0
C580 C 0.75808 0.96311 0.24793 0.0
C581 C 0.77394 0.96046 0.22084 0.0
C582 C 0.79012 0.94084 0.21946 0.0
C583 C 0.7907 0.92378 0.24511 0.0
C584 C 0.77513 0.92634 0.27223 0.0
C585 C 0.7589 0.94592 0.27373 0.0
H586 H 0.80324 0.90861 0.24399 0.0
H587 H 0.64458 0.09764 0.25791 0.0
H588 H 0.93874 0.7208 0.59322 0.0
H589 H 0.96102 0.73392 0.54391 0.0
H590 H 0.02778 0.70659 0.58611 0.0
H591 H 0.00581 0.69391 0.63566 0.0
H592 H 0.03609 0.74754 0.5506 0.0
H593 H 0.99308 0.67109 0.53535 0.0
H594 H 0.95664 0.64486 0.53448 0.0
H595 H 0.9237 0.69132 0.46162 0.0
H596 H 0.95987 0.71799 0.46239 0.0
H597 H 0.10718 0.70136 0.41967 0.0
H598 H 0.08321 0.71177 0.46837 0.0
H599 H 0.02492 0.7372 0.4057 0.0
H600 H 0.0487 0.7264 0.35666 0.0
H601 H 0.00872 0.70512 0.44881 0.0
H602 H 0.05656 0.77685 0.45642 0.0
H603 H 0.09397 0.80163 0.45704 0.0
H604 H 0.11891 0.76356 0.54346 0.0
H605 H 0.08181 0.73829 0.54311 0.0
C606 C 0.95824 0.71801 0.59229 0.0
C607 C 0.97044 0.70594 0.61815 0.0
C608 C 0.97094 0.72549 0.56406 0.0
C609 C 0.99598 0.72081 0.56108 0.0
C610 C 0.00845 0.71033 0.58783 0.0
C611 C 0.99582 0.70297 0.61611 0.0
C612 C 0.00877 0.72434 0.52909 0.0
C613 C 0.03017 0.73829 0.52829 0.0
C614 C 0.00069 0.71274 0.49979 0.0
C615 C 0.97902 0.69668 0.49923 0.0
C616 C 0.97799 0.6758 0.51933 0.0
C617 C 0.9574 0.66084 0.51883 0.0
C618 C 0.93783 0.66647 0.49809 0.0
C619 C 0.93885 0.68702 0.47773 0.0
C620 C 0.95938 0.70206 0.47818 0.0
C621 C 0.08946 0.70962 0.41616 0.0
C622 C 0.07976 0.71281 0.38425 0.0
C623 C 0.07582 0.71574 0.44411 0.0
C624 C 0.05229 0.7254 0.44074 0.0
C625 C 0.04304 0.72979 0.40889 0.0
C626 C 0.05668 0.72363 0.38088 0.0
C627 C 0.03642 0.72797 0.4703 0.0
C628 C 0.01442 0.71499 0.47074 0.0
C629 C 0.04408 0.74036 0.49921 0.0
C630 C 0.06642 0.75557 0.49962 0.0
C631 C 0.07009 0.77363 0.47543 0.0
C632 C 0.09123 0.78779 0.47576 0.0
C633 C 0.10882 0.78415 0.50025 0.0
C634 C 0.10527 0.76636 0.52451 0.0
C635 C 0.08416 0.75214 0.52429 0.0
H636 H 0.12517 0.79513 0.50046 0.0
H637 H 0.92191 0.65487 0.49773 0.0
H638 H 0.27579 0.95249 0.87638 0.0
H639 H 0.27069 0.97615 0.82529 0.0
H640 H 0.33432 0.94165 0.78399 0.0
H641 H 0.33956 0.91809 0.83456 0.0
H642 H 0.33611 0.99137 0.77984 0.0
H643 H 0.27892 0.92668 0.7568 0.0
H644 H 0.24305 0.90098 0.76794 0.0
H645 H 0.19712 0.96423 0.76727 0.0
H646 H 0.23281 0.99037 0.75657 0.0
H647 H 0.33818 0.01718 0.6118 0.0
H648 H 0.3327 0.99505 0.66352 0.0
H649 H 0.27162 0.0408 0.6884 0.0
H650 H 0.27698 0.06329 0.63634 0.0
H651 H 0.26495 0.99001 0.70418 0.0
H652 H 0.32149 0.05438 0.7235 0.0
H653 H 0.35723 0.0802 0.71209 0.0
H654 H 0.40414 0.01799 0.72071 0.0
H655 H 0.36863 0.99171 0.73166 0.0
C656 C 0.28852 0.94977 0.85625 0.0
C657 C 0.30816 0.9335 0.85961 0.0
C658 C 0.28555 0.96326 0.82709 0.0
C659 C 0.30217 0.96067 0.80091 0.0
C660 C 0.32136 0.944 0.80396 0.0
C661 C 0.32428 0.93049 0.8329 0.0
C662 C 0.3006 0.97612 0.77091 0.0
C663 C 0.32061 0.99092 0.7632 0.0
C664 C 0.28001 0.97619 0.74985 0.0
C665 C 0.25857 0.96051 0.75631 0.0
C666 C 0.26121 0.93514 0.75936 0.0
C667 C 0.24091 0.92048 0.76551 0.0
C668 C 0.21783 0.93097 0.76842 0.0
C669 C 0.21501 0.95614 0.76508 0.0
C670 C 0.23527 0.97088 0.75895 0.0
C671 C 0.32339 0.02246 0.62801 0.0
C672 C 0.30816 0.04219 0.62008 0.0
C673 C 0.32031 0.00977 0.6576 0.0
C674 C 0.30197 0.01651 0.67992 0.0
C675 C 0.28592 0.0354 0.67148 0.0
C676 C 0.28906 0.04824 0.64181 0.0
C677 C 0.30078 0.00459 0.71277 0.0
C678 C 0.28029 0.99062 0.72107 0.0
C679 C 0.3209 0.0053 0.73458 0.0
C680 C 0.34236 0.02104 0.72813 0.0
C681 C 0.33941 0.04616 0.72269 0.0
C682 C 0.35963 0.06089 0.71635 0.0
C683 C 0.38294 0.05073 0.7156 0.0
C684 C 0.38607 0.02583 0.72126 0.0
C685 C 0.3659 0.01101 0.72757 0.0
H686 H 0.39857 0.06216 0.7107 0.0
H687 H 0.20213 0.9196 0.77317 0.0
loop_
_geom_bond_atom_site_label_1
_geom_bond_atom_site_label_2
_geom_bond_distance
_geom_bond_site_symmetry_2
_ccdc_geom_bond_type
O0 Cd1 2.300 . S
O0 C7 1.275 . S
Cd1 O0 2.300 . S
Cd1 O9 2.381 . S
Cd1 O10 2.378 . S
O2 Cd3 2.385 . S
O2 C7 1.255 . S
Cd3 O2 2.385 . S
Cd3 O4 2.317 . S
O4 Cd3 2.317 . S
O4 C5 1.232 . S
C5 O4 1.232 . S
C5 O6 1.218 . S
O6 C5 1.218 . S
C7 O0 1.275 . S
C7 O2 1.255 . S
C8 O9 1.258 . S
C8 O10 1.256 . S
O9 Cd1 2.381 . S
O9 C8 1.258 . S
O10 Cd1 2.378 . S
O10 C8 1.256 . S
O11 Cd12 2.300 . S
O11 C18 1.275 . S
Cd12 O11 2.300 . S
Cd12 O20 2.381 . S
Cd12 O21 2.378 . S
O13 Cd14 2.385 . S
O13 C18 1.255 . S
Cd14 O13 2.385 . S
Cd14 O15 2.317 . S
O15 Cd14 2.317 . S
O15 C16 1.232 . S
C16 O15 1.232 . S
C16 O17 1.218 . S
O17 C16 1.218 . S
C18 O11 1.275 . S
C18 O13 1.255 . S
C19 O20 1.258 . S
C19 O21 1.256 . S
O20 Cd12 2.381 . S
O20 C19 1.258 . S
O21 Cd12 2.378 . S
O21 C19 1.256 . S
O22 Cd23 2.300 . S
O22 C29 1.275 . S
Cd23 O22 2.300 . S
Cd23 O31 2.381 . S
Cd23 O32 2.378 . S
O24 Cd25 2.385 . S
O24 C29 1.255 . S
Cd25 O24 2.385 . S
Cd25 O26 2.317 . S
O26 Cd25 2.317 . S
O26 C27 1.232 . S
C27 O26 1.232 . S
C27 O28 1.218 . S
O28 C27 1.218 . S
C29 O22 1.275 . S
C29 O24 1.255 . S
C30 O31 1.258 . S
C30 O32 1.256 . S
O31 Cd23 2.381 . S
O31 C30 1.258 . S
O32 Cd23 2.378 . S
O32 C30 1.256 . S
O33 Cd34 2.300 1_556 S
O33 C40 1.277 . S
Cd34 O33 2.300 1_554 S
Cd34 O42 2.381 . S
Cd34 O43 2.378 . S
O35 Cd36 2.385 . S
O35 C40 1.255 . S
Cd36 O35 2.385 . S
Cd36 O37 2.317 . S
O37 Cd36 2.317 . S
O37 C38 1.232 . S
C38 O37 1.232 . S
C38 O39 1.218 . S
O39 C38 1.218 . S
C40 O33 1.277 . S
C40 O35 1.255 . S
C41 O42 1.258 . S
C41 O43 1.256 . S
O42 Cd34 2.381 . S
O42 C41 1.258 . S
O43 Cd34 2.378 . S
O43 C41 1.256 . S
O44 Cd45 2.300 . S
O44 C51 1.275 . S
Cd45 O44 2.300 . S
Cd45 O53 2.381 . S
Cd45 O54 2.378 . S
O46 Cd47 2.385 . S
O46 C51 1.255 . S
Cd47 O46 2.385 . S
Cd47 O48 2.317 . S
O48 Cd47 2.317 . S
O48 C49 1.232 . S
C49 O48 1.232 . S
C49 O50 1.218 . S
O50 C49 1.218 . S
C51 O44 1.275 . S
C51 O46 1.255 . S
C52 O53 1.258 . S
C52 O54 1.256 . S
O53 Cd45 2.381 . S
O53 C52 1.258 . S
O54 Cd45 2.378 . S
O54 C52 1.256 . S
O55 Cd56 2.300 . S
O55 C62 1.275 . S
Cd56 O55 2.300 . S
Cd56 O64 2.381 . S
Cd56 O65 2.378 . S
O57 Cd58 2.385 . S
O57 C62 1.255 . S
Cd58 O57 2.385 . S
Cd58 O59 2.317 . S
O59 Cd58 2.317 . S
O59 C60 1.232 . S
C60 O59 1.232 . S
C60 O61 1.218 . S
O61 C60 1.218 . S
C62 O55 1.275 . S
C62 O57 1.255 . S
C63 O64 1.258 . S
C63 O65 1.256 . S
O64 Cd56 2.381 . S
O64 C63 1.258 . S
O65 Cd56 2.378 . S
O65 C63 1.256 . S
O66 Cd67 2.300 . S
O66 C73 1.275 . S
Cd67 O66 2.300 . S
Cd67 O75 2.381 . S
Cd67 O76 2.378 . S
O68 Cd69 2.385 . S
O68 C73 1.255 . S
Cd69 O68 2.385 . S
Cd69 O70 2.317 . S
O70 Cd69 2.317 . S
O70 C71 1.232 . S
C71 O70 1.232 . S
C71 O72 1.218 . S
O72 C71 1.218 . S
C73 O66 1.275 . S
C73 O68 1.255 . S
C74 O75 1.258 . S
C74 O76 1.256 . S
O75 Cd67 2.381 . S
O75 C74 1.258 . S
O76 Cd67 2.378 . S
O76 C74 1.256 . S
O77 Cd78 2.300 1_554 S
O77 C84 1.277 . S
Cd78 O77 2.300 1_556 S
Cd78 O86 2.381 . S
Cd78 O87 2.378 . S
O79 Cd80 2.385 . S
O79 C84 1.255 . S
Cd80 O79 2.385 . S
Cd80 O81 2.317 . S
O81 Cd80 2.317 . S
O81 C82 1.232 . S
C82 O81 1.232 . S
C82 O83 1.218 . S
O83 C82 1.218 . S
C84 O77 1.277 . S
C84 O79 1.255 . S
C85 O86 1.258 . S
C85 O87 1.256 . S
O86 Cd78 2.381 . S
O86 C85 1.258 . S
O87 Cd78 2.378 . S
O87 C85 1.256 . S
H88 C106 0.951 . S
H89 C108 0.951 . S
H90 C110 0.950 . S
H91 C111 0.950 . S
H92 C113 0.950 . S
H93 C116 0.950 . S
H94 C117 0.950 . S
H95 C119 0.950 . S
H96 C120 0.950 . S
H97 C121 0.951 . S
H98 C123 0.951 . S
H99 C125 0.950 . S
H100 C126 0.950 . S
H101 C128 0.950 . S
H102 C131 0.950 . S
H103 C132 0.950 . S
H104 C134 0.950 . S
H105 C135 0.950 . S
C106 H88 0.951 . S
C106 C107 1.366 . S
C106 C108 1.388 . S
C107 C106 1.366 . S
C107 C111 1.385 . S
C108 H89 0.951 . S
C108 C106 1.388 . S
C108 C109 1.366 . S
C109 C108 1.366 . S
C109 C110 1.414 . S
C109 C112 1.499 . S
C110 H90 0.950 . S
C110 C109 1.414 . S
C110 C111 1.374 . S
C111 H91 0.950 . S
C111 C107 1.385 . S
C111 C110 1.374 . S
C112 C109 1.499 . S
C112 C113 1.373 . S
C112 C114 1.389 . S
C113 H92 0.950 . S
C113 C112 1.373 . S
C113 C129 1.377 . S
C114 C112 1.389 . S
C114 C115 1.524 . S
C114 C128 1.377 . S
C115 C114 1.524 . S
C115 C116 1.397 . S
C115 C120 1.363 . S
C116 H93 0.950 . S
C116 C115 1.397 . S
C116 C117 1.334 . S
C117 H94 0.950 . S
C117 C116 1.334 . S
C117 C118 1.287 . S
C118 C117 1.287 . S
C118 C119 1.524 . S
C118 H137 0.913 . S
C119 H95 0.950 . S
C119 C118 1.524 . S
C119 C120 1.415 . S
C120 H96 0.950 . S
C120 C115 1.363 . S
C120 C119 1.415 . S
C121 H97 0.951 . S
C121 C122 1.366 . S
C121 C123 1.388 . S
C122 C121 1.366 . S
C122 C126 1.385 . S
C123 H98 0.951 . S
C123 C121 1.388 . S
C123 C124 1.366 . S
C124 C123 1.366 . S
C124 C125 1.414 . S
C124 C127 1.499 . S
C125 H99 0.950 . S
C125 C124 1.414 . S
C125 C126 1.374 . S
C126 H100 0.950 . S
C126 C122 1.385 . S
C126 C125 1.374 . S
C127 C124 1.499 . S
C127 C128 1.373 . S
C127 C129 1.389 . S
C128 H101 0.950 . S
C128 C114 1.377 . S
C128 C127 1.373 . S
C129 C113 1.377 . S
C129 C127 1.389 . S
C129 C130 1.524 . S
C130 C129 1.524 . S
C130 C131 1.397 . S
C130 C135 1.363 . S
C131 H102 0.950 . S
C131 C130 1.397 . S
C131 C132 1.334 . S
C132 H103 0.950 . S
C132 C131 1.334 . S
C132 C133 1.287 . S
C133 C132 1.287 . S
C133 C134 1.524 . S
C133 H136 0.999 . S
C134 H104 0.950 . S
C134 C133 1.524 . S
C134 C135 1.415 . S
C135 H105 0.950 . S
C135 C130 1.363 . S
C135 C134 1.415 . S
H136 C133 0.999 . S
H137 C118 0.913 . S
H138 C156 0.951 . S
H139 C158 0.951 . S
H140 C160 0.950 . S
H141 C161 0.950 . S
H142 C163 0.950 . S
H143 C166 0.950 . S
H144 C167 0.950 . S
H145 C169 0.950 . S
H146 C170 0.950 . S
H147 C171 0.951 . S
H148 C173 0.951 . S
H149 C175 0.950 . S
H150 C176 0.950 . S
H151 C178 0.950 . S
H152 C181 0.950 . S
H153 C182 0.950 . S
H154 C184 0.950 . S
H155 C185 0.950 . S
C156 H138 0.951 . S
C156 C157 1.366 . S
C156 C158 1.388 . S
C157 C156 1.366 . S
C157 C161 1.385 . S
C158 H139 0.951 . S
C158 C156 1.388 . S
C158 C159 1.366 . S
C159 C158 1.366 . S
C159 C160 1.414 . S
C159 C162 1.499 . S
C160 H140 0.950 . S
C160 C159 1.414 . S
C160 C161 1.374 . S
C161 H141 0.950 . S
C161 C157 1.385 . S
C161 C160 1.374 . S
C162 C159 1.499 . S
C162 C163 1.373 . S
C162 C164 1.389 . S
C163 H142 0.950 . S
C163 C162 1.373 . S
C163 C179 1.377 . S
C164 C162 1.389 . S
C164 C165 1.524 . S
C164 C178 1.377 . S
C165 C164 1.524 . S
C165 C166 1.397 . S
C165 C170 1.363 . S
C166 H143 0.950 . S
C166 C165 1.397 . S
C166 C167 1.334 . S
C167 H144 0.950 . S
C167 C166 1.334 . S
C167 C168 1.287 . S
C168 C167 1.287 . S
C168 C169 1.524 . S
C168 H187 0.913 . S
C169 H145 0.950 . S
C169 C168 1.524 . S
C169 C170 1.415 . S
C170 H146 0.950 . S
C170 C165 1.363 . S
C170 C169 1.415 . S
C171 H147 0.951 . S
C171 C172 1.366 . S
C171 C173 1.388 . S
C172 C171 1.366 . S
C172 C176 1.385 . S
C173 H148 0.951 . S
C173 C171 1.388 . S
C173 C174 1.366 . S
C174 C173 1.366 . S
C174 C175 1.414 . S
C174 C177 1.499 . S
C175 H149 0.950 . S
C175 C174 1.414 . S
C175 C176 1.374 . S
C176 H150 0.950 . S
C176 C172 1.385 . S
C176 C175 1.374 . S
C177 C174 1.499 . S
C177 C178 1.373 . S
C177 C179 1.389 . S
C178 H151 0.950 . S
C178 C164 1.377 . S
C178 C177 1.373 . S
C179 C163 1.377 . S
C179 C177 1.389 . S
C179 C180 1.524 . S
C180 C179 1.524 . S
C180 C181 1.397 . S
C180 C185 1.363 . S
C181 H152 0.950 . S
C181 C180 1.397 . S
C181 C182 1.334 . S
C182 H153 0.950 . S
C182 C181 1.334 . S
C182 C183 1.287 . S
C183 C182 1.287 . S
C183 C184 1.524 . S
C183 H186 0.999 . S
C184 H154 0.950 . S
C184 C183 1.524 . S
C184 C185 1.415 . S
C185 H155 0.950 . S
C185 C180 1.363 . S
C185 C184 1.415 . S
H186 C183 0.999 . S
H187 C168 0.913 . S
H188 C206 0.951 . S
H189 C208 0.951 . S
H190 C210 0.950 . S
H191 C211 0.950 . S
H192 C213 0.950 . S
H193 C216 0.950 . S
H194 C217 0.950 . S
H195 C219 0.950 . S
H196 C220 0.950 . S
H197 C221 0.951 . S
H198 C223 0.951 . S
H199 C225 0.950 . S
H200 C226 0.950 . S
H201 C228 0.950 . S
H202 C231 0.950 . S
H203 C232 0.950 . S
H204 C234 0.950 . S
H205 C235 0.950 . S
C206 H188 0.951 . S
C206 C207 1.366 . S
C206 C208 1.388 . S
C207 C206 1.366 . S
C207 C211 1.385 . S
C208 H189 0.951 . S
C208 C206 1.388 . S
C208 C209 1.366 . S
C209 C208 1.366 . S
C209 C210 1.414 . S
C209 C212 1.499 . S
C210 H190 0.950 . S
C210 C209 1.414 . S
C210 C211 1.374 . S
C211 H191 0.950 . S
C211 C207 1.385 . S
C211 C210 1.374 . S
C212 C209 1.499 . S
C212 C213 1.373 . S
C212 C214 1.389 . S
C213 H192 0.950 . S
C213 C212 1.373 . S
C213 C229 1.377 . S
C214 C212 1.389 . S
C214 C215 1.524 . S
C214 C228 1.377 . S
C215 C214 1.524 . S
C215 C216 1.397 . S
C215 C220 1.363 . S
C216 H193 0.950 . S
C216 C215 1.397 . S
C216 C217 1.334 . S
C217 H194 0.950 . S
C217 C216 1.334 . S
C217 C218 1.287 . S
C218 C217 1.287 . S
C218 C219 1.524 . S
C218 H237 0.913 . S
C219 H195 0.950 . S
C219 C218 1.524 . S
C219 C220 1.415 . S
C220 H196 0.950 . S
C220 C215 1.363 . S
C220 C219 1.415 . S
C221 H197 0.951 . S
C221 C222 1.366 . S
C221 C223 1.388 . S
C222 C221 1.366 . S
C222 C226 1.385 . S
C223 H198 0.951 . S
C223 C221 1.388 . S
C223 C224 1.366 . S
C224 C223 1.366 . S
C224 C225 1.414 . S
C224 C227 1.499 . S
C225 H199 0.950 . S
C225 C224 1.414 . S
C225 C226 1.374 . S
C226 H200 0.950 . S
C226 C222 1.385 . S
C226 C225 1.374 . S
C227 C224 1.499 . S
C227 C228 1.373 . S
C227 C229 1.389 . S
C228 H201 0.950 . S
C228 C214 1.377 . S
C228 C227 1.373 . S
C229 C213 1.377 . S
C229 C227 1.389 . S
C229 C230 1.524 . S
C230 C229 1.524 . S
C230 C231 1.397 . S
C230 C235 1.363 . S
C231 H202 0.950 . S
C231 C230 1.397 . S
C231 C232 1.334 . S
C232 H203 0.950 . S
C232 C231 1.334 . S
C232 C233 1.287 . S
C233 C232 1.287 . S
C233 C234 1.524 . S
C233 H236 0.999 . S
C234 H204 0.950 . S
C234 C233 1.524 . S
C234 C235 1.415 . S
C235 H205 0.950 . S
C235 C230 1.363 . S
C235 C234 1.415 . S
H236 C233 0.999 . S
H237 C218 0.913 . S
H238 C256 0.951 . S
H239 C258 0.951 . S
H240 C260 0.950 . S
H241 C261 0.950 . S
H242 C263 0.950 . S
H243 C266 0.950 . S
H244 C267 0.950 . S
H245 C269 0.950 . S
H246 C270 0.950 . S
H247 C271 0.951 . S
H248 C273 0.951 . S
H249 C275 0.950 . S
H250 C276 0.950 . S
H251 C278 0.950 . S
H252 C281 0.950 . S
H253 C282 0.950 . S
H254 C284 0.950 . S
H255 C285 0.950 . S
C256 H238 0.951 . S
C256 C257 1.366 1_556 S
C256 C258 1.388 . S
C257 C256 1.366 1_554 S
C257 C261 1.385 . S
C258 H239 0.951 . S
C258 C256 1.388 . S
C258 C259 1.366 1_556 S
C259 C258 1.366 1_554 S
C259 C260 1.414 . S
C259 C262 1.499 . S
C260 H240 0.950 . S
C260 C259 1.414 . S
C260 C261 1.374 . S
C261 H241 0.950 . S
C261 C257 1.385 . S
C261 C260 1.374 . S
C262 C259 1.499 . S
C262 C263 1.373 . S
C262 C264 1.389 1_554 S
C263 H242 0.950 . S
C263 C262 1.373 . S
C263 C279 1.377 . S
C264 C262 1.389 1_556 S
C264 C265 1.524 . S
C264 C278 1.377 . S
C265 C264 1.524 . S
C265 C266 1.397 . S
C265 C270 1.363 . S
C266 H243 0.950 . S
C266 C265 1.397 . S
C266 C267 1.334 . S
C267 H244 0.950 . S
C267 C266 1.334 . S
C267 C268 1.287 . S
C268 C267 1.287 . S
C268 C269 1.524 . S
C268 H287 0.913 . S
C269 H245 0.950 . S
C269 C268 1.524 . S
C269 C270 1.415 . S
C270 H246 0.950 . S
C270 C265 1.363 . S
C270 C269 1.415 . S
C271 H247 0.951 . S
C271 C272 1.366 1_554 S
C271 C273 1.388 . S
C272 C271 1.366 1_556 S
C272 C276 1.385 . S
C273 H248 0.951 . S
C273 C271 1.388 . S
C273 C274 1.366 1_554 S
C274 C273 1.366 1_556 S
C274 C275 1.414 . S
C274 C277 1.499 . S
C275 H249 0.950 . S
C275 C274 1.414 . S
C275 C276 1.374 . S
C276 H250 0.950 . S
C276 C272 1.385 . S
C276 C275 1.374 . S
C277 C274 1.499 . S
C277 C278 1.373 . S
C277 C279 1.389 1_556 S
C278 H251 0.950 . S
C278 C264 1.377 . S
C278 C277 1.373 . S
C279 C263 1.377 . S
C279 C277 1.389 1_554 S
C279 C280 1.524 . S
C280 C279 1.524 . S
C280 C281 1.397 . S
C280 C285 1.363 . S
C281 H252 0.950 . S
C281 C280 1.397 . S
C281 C282 1.334 . S
C282 H253 0.950 . S
C282 C281 1.334 . S
C282 C283 1.287 . S
C283 C282 1.287 . S
C283 C284 1.524 . S
C283 H286 0.999 . S
C284 H254 0.950 . S
C284 C283 1.524 . S
C284 C285 1.415 . S
C285 H255 0.950 . S
C285 C280 1.363 . S
C285 C284 1.415 . S
H286 C283 0.999 . S
H287 C268 0.913 . S
H288 C306 0.951 . S
H289 C308 0.951 . S
H290 C310 0.950 . S
H291 C311 0.950 . S
H292 C313 0.950 . S
H293 C316 0.950 . S
H294 C317 0.950 . S
H295 C319 0.950 . S
H296 C320 0.950 . S
H297 C321 0.951 . S
H298 C323 0.951 . S
H299 C325 0.950 . S
H300 C326 0.950 . S
H301 C328 0.950 . S
H302 C331 0.950 . S
H303 C332 0.950 . S
H304 C334 0.950 . S
H305 C335 0.950 . S
C306 H288 0.951 . S
C306 C307 1.366 . S
C306 C308 1.388 . S
C307 C306 1.366 . S
C307 C311 1.385 . S
C308 H289 0.951 . S
C308 C306 1.388 . S
C308 C309 1.366 . S
C309 C308 1.366 . S
C309 C310 1.414 . S
C309 C312 1.499 . S
C310 H290 0.950 . S
C310 C309 1.414 . S
C310 C311 1.374 . S
C311 H291 0.950 . S
C311 C307 1.385 . S
C311 C310 1.374 . S
C312 C309 1.499 . S
C312 C313 1.373 . S
C312 C314 1.389 . S
C313 H292 0.950 . S
C313 C312 1.373 . S
C313 C329 1.377 . S
C314 C312 1.389 . S
C314 C315 1.524 . S
C314 C328 1.377 . S
C315 C314 1.524 . S
C315 C316 1.397 . S
C315 C320 1.363 . S
C316 H293 0.950 . S
C316 C315 1.397 . S
C316 C317 1.334 . S
C317 H294 0.950 . S
C317 C316 1.334 . S
C317 C318 1.287 . S
C318 C317 1.287 . S
C318 C319 1.524 . S
C318 H337 0.913 . S
C319 H295 0.950 . S
C319 C318 1.524 . S
C319 C320 1.415 . S
C320 H296 0.950 . S
C320 C315 1.363 . S
C320 C319 1.415 . S
C321 H297 0.951 . S
C321 C322 1.366 . S
C321 C323 1.388 . S
C322 C321 1.366 . S
C322 C326 1.385 . S
C323 H298 0.951 . S
C323 C321 1.388 . S
C323 C324 1.366 . S
C324 C323 1.366 . S
C324 C325 1.414 . S
C324 C327 1.499 . S
C325 H299 0.950 . S
C325 C324 1.414 . S
C325 C326 1.374 . S
C326 H300 0.950 . S
C326 C322 1.385 . S
C326 C325 1.374 . S
C327 C324 1.499 . S
C327 C328 1.373 . S
C327 C329 1.389 . S
C328 H301 0.950 . S
C328 C314 1.377 . S
C328 C327 1.373 . S
C329 C313 1.377 . S
C329 C327 1.389 . S
C329 C330 1.524 . S
C330 C329 1.524 . S
C330 C331 1.397 . S
C330 C335 1.363 . S
C331 H302 0.950 . S
C331 C330 1.397 . S
C331 C332 1.334 . S
C332 H303 0.950 . S
C332 C331 1.334 . S
C332 C333 1.287 . S
C333 C332 1.287 . S
C333 C334 1.524 . S
C333 H336 0.999 . S
C334 H304 0.950 . S
C334 C333 1.524 . S
C334 C335 1.415 . S
C335 H305 0.950 . S
C335 C330 1.363 . S
C335 C334 1.415 . S
H336 C333 0.999 . S
H337 C318 0.913 . S
H338 C356 0.951 . S
H339 C358 0.951 . S
H340 C360 0.950 . S
H341 C361 0.950 . S
H342 C363 0.950 . S
H343 C366 0.950 . S
H344 C367 0.950 . S
H345 C369 0.950 . S
H346 C370 0.950 . S
H347 C371 0.951 . S
H348 C373 0.951 . S
H349 C375 0.950 . S
H350 C376 0.950 . S
H351 C378 0.950 . S
H352 C381 0.950 . S
H353 C382 0.950 . S
H354 C384 0.950 . S
H355 C385 0.950 . S
C356 H338 0.951 . S
C356 C357 1.366 . S
C356 C358 1.388 . S
C357 C356 1.366 . S
C357 C361 1.385 . S
C358 H339 0.951 . S
C358 C356 1.388 . S
C358 C359 1.366 . S
C359 C358 1.366 . S
C359 C360 1.414 . S
C359 C362 1.499 . S
C360 H340 0.950 . S
C360 C359 1.414 . S
C360 C361 1.374 . S
C361 H341 0.950 . S
C361 C357 1.385 . S
C361 C360 1.374 . S
C362 C359 1.499 . S
C362 C363 1.373 . S
C362 C364 1.389 . S
C363 H342 0.950 . S
C363 C362 1.373 . S
C363 C379 1.377 . S
C364 C362 1.389 . S
C364 C365 1.524 . S
C364 C378 1.377 . S
C365 C364 1.524 . S
C365 C366 1.397 . S
C365 C370 1.363 . S
C366 H343 0.950 . S
C366 C365 1.397 . S
C366 C367 1.334 . S
C367 H344 0.950 . S
C367 C366 1.334 . S
C367 C368 1.287 . S
C368 C367 1.287 . S
C368 C369 1.524 . S
C368 H387 0.913 . S
C369 H345 0.950 . S
C369 C368 1.524 . S
C369 C370 1.415 . S
C370 H346 0.950 . S
C370 C365 1.363 . S
C370 C369 1.415 . S
C371 H347 0.951 . S
C371 C372 1.366 . S
C371 C373 1.388 . S
C372 C371 1.366 . S
C372 C376 1.385 . S
C373 H348 0.951 . S
C373 C371 1.388 . S
C373 C374 1.366 . S
C374 C373 1.366 . S
C374 C375 1.414 . S
C374 C377 1.499 . S
C375 H349 0.950 . S
C375 C374 1.414 . S
C375 C376 1.374 . S
C376 H350 0.950 . S
C376 C372 1.385 . S
C376 C375 1.374 . S
C377 C374 1.499 . S
C377 C378 1.373 . S
C377 C379 1.389 . S
C378 H351 0.950 . S
C378 C364 1.377 . S
C378 C377 1.373 . S
C379 C363 1.377 . S
C379 C377 1.389 . S
C379 C380 1.524 . S
C380 C379 1.524 . S
C380 C381 1.397 . S
C380 C385 1.363 . S
C381 H352 0.950 . S
C381 C380 1.397 . S
C381 C382 1.334 . S
C382 H353 0.950 . S
C382 C381 1.334 . S
C382 C383 1.287 . S
C383 C382 1.287 . S
C383 C384 1.524 . S
C383 H386 0.999 . S
C384 H354 0.950 . S
C384 C383 1.524 . S
C384 C385 1.415 . S
C385 H355 0.950 . S
C385 C380 1.363 . S
C385 C384 1.415 . S
H386 C383 0.999 . S
H387 C368 0.913 . S
H388 C406 0.951 . S
H389 C408 0.951 . S
H390 C410 0.950 . S
H391 C411 0.950 . S
H392 C413 0.950 . S
H393 C416 0.950 . S
H394 C417 0.950 . S
H395 C419 0.950 . S
H396 C420 0.950 . S
H397 C421 0.951 . S
H398 C423 0.951 . S
H399 C425 0.950 . S
H400 C426 0.950 . S
H401 C428 0.950 . S
H402 C431 0.950 . S
H403 C432 0.950 . S
H404 C434 0.950 1_554 S
H405 C435 0.950 . S
C406 H388 0.951 . S
C406 C407 1.366 . S
C406 C408 1.388 . S
C407 C406 1.366 . S
C407 C411 1.385 . S
C408 H389 0.951 . S
C408 C406 1.388 . S
C408 C409 1.366 . S
C409 C408 1.366 . S
C409 C410 1.414 . S
C409 C412 1.499 . S
C410 H390 0.950 . S
C410 C409 1.414 . S
C410 C411 1.374 . S
C411 H391 0.950 . S
C411 C407 1.385 . S
C411 C410 1.374 . S
C412 C409 1.499 . S
C412 C413 1.373 . S
C412 C414 1.389 . S
C413 H392 0.950 . S
C413 C412 1.373 . S
C413 C429 1.377 . S
C414 C412 1.389 . S
C414 C415 1.524 . S
C414 C428 1.377 . S
C415 C414 1.524 . S
C415 C416 1.397 . S
C415 C420 1.363 . S
C416 H393 0.950 . S
C416 C415 1.397 . S
C416 C417 1.334 . S
C417 H394 0.950 . S
C417 C416 1.334 . S
C417 C418 1.287 . S
C418 C417 1.287 . S
C418 C419 1.524 . S
C418 H437 0.913 . S
C419 H395 0.950 . S
C419 C418 1.524 . S
C419 C420 1.415 . S
C420 H396 0.950 . S
C420 C415 1.363 . S
C420 C419 1.415 . S
C421 H397 0.951 . S
C421 C422 1.366 . S
C421 C423 1.388 . S
C422 C421 1.366 . S
C422 C426 1.385 . S
C423 H398 0.951 . S
C423 C421 1.388 . S
C423 C424 1.366 . S
C424 C423 1.366 . S
C424 C425 1.414 . S
C424 C427 1.499 . S
C425 H399 0.950 . S
C425 C424 1.414 . S
C425 C426 1.374 . S
C426 H400 0.950 . S
C426 C422 1.385 . S
C426 C425 1.374 . S
C427 C424 1.499 . S
C427 C428 1.373 . S
C427 C429 1.389 . S
C428 H401 0.950 . S
C428 C414 1.377 . S
C428 C427 1.373 . S
C429 C413 1.377 . S
C429 C427 1.389 . S
C429 C430 1.524 . S
C430 C429 1.524 . S
C430 C431 1.397 . S
C430 C435 1.363 . S
C431 H402 0.950 . S
C431 C430 1.397 . S
C431 C432 1.334 . S
C432 H403 0.950 . S
C432 C431 1.334 . S
C432 C433 1.287 . S
C433 C432 1.287 . S
C433 C434 1.524 . S
C433 H436 0.998 1_556 S
C434 H404 0.950 1_556 S
C434 C433 1.524 . S
C434 C435 1.415 . S
C435 H405 0.950 . S
C435 C430 1.363 . S
C435 C434 1.415 . S
H436 C433 0.998 1_554 S
H437 C418 0.913 . S
H438 C456 0.951 . S
H439 C458 0.951 . S
H440 C460 0.950 . S
H441 C461 0.950 . S
H442 C463 0.950 . S
H443 C466 0.950 . S
H444 C467 0.950 . S
H445 C469 0.950 . S
H446 C470 0.950 . S
H447 C471 0.951 . S
H448 C473 0.951 . S
H449 C475 0.950 . S
H450 C476 0.950 . S
H451 C478 0.950 . S
H452 C481 0.950 . S
H453 C482 0.950 . S
H454 C484 0.950 . S
H455 C485 0.950 . S
C456 H438 0.951 . S
C456 C457 1.366 . S
C456 C458 1.388 . S
C457 C456 1.366 . S
C457 C461 1.385 . S
C458 H439 0.951 . S
C458 C456 1.388 . S
C458 C459 1.366 . S
C459 C458 1.366 . S
C459 C460 1.414 . S
C459 C462 1.499 . S
C460 H440 0.950 . S
C460 C459 1.414 . S
C460 C461 1.374 . S
C461 H441 0.950 . S
C461 C457 1.385 . S
C461 C460 1.374 . S
C462 C459 1.499 . S
C462 C463 1.373 . S
C462 C464 1.389 . S
C463 H442 0.950 . S
C463 C462 1.373 . S
C463 C479 1.377 . S
C464 C462 1.389 . S
C464 C465 1.524 . S
C464 C478 1.377 . S
C465 C464 1.524 . S
C465 C466 1.397 . S
C465 C470 1.363 . S
C466 H443 0.950 . S
C466 C465 1.397 . S
C466 C467 1.334 . S
C467 H444 0.950 . S
C467 C466 1.334 . S
C467 C468 1.287 . S
C468 C467 1.287 . S
C468 C469 1.524 . S
C468 H487 0.913 . S
C469 H445 0.950 . S
C469 C468 1.524 . S
C469 C470 1.415 . S
C470 H446 0.950 . S
C470 C465 1.363 . S
C470 C469 1.415 . S
C471 H447 0.951 . S
C471 C472 1.366 . S
C471 C473 1.388 . S
C472 C471 1.366 . S
C472 C476 1.385 . S
C473 H448 0.951 . S
C473 C471 1.388 . S
C473 C474 1.366 . S
C474 C473 1.366 . S
C474 C475 1.414 . S
C474 C477 1.499 . S
C475 H449 0.950 . S
C475 C474 1.414 . S
C475 C476 1.374 . S
C476 H450 0.950 . S
C476 C472 1.385 . S
C476 C475 1.374 . S
C477 C474 1.499 . S
C477 C478 1.373 . S
C477 C479 1.389 . S
C478 H451 0.950 . S
C478 C464 1.377 . S
C478 C477 1.373 . S
C479 C463 1.377 . S
C479 C477 1.389 . S
C479 C480 1.524 . S
C480 C479 1.524 . S
C480 C481 1.397 . S
C480 C485 1.363 . S
C481 H452 0.950 . S
C481 C480 1.397 . S
C481 C482 1.334 . S
C482 H453 0.950 . S
C482 C481 1.334 . S
C482 C483 1.287 . S
C483 C482 1.287 . S
C483 C484 1.524 . S
C483 H486 0.999 . S
C484 H454 0.950 . S
C484 C483 1.524 . S
C484 C485 1.415 . S
C485 H455 0.950 . S
C485 C480 1.363 . S
C485 C484 1.415 . S
H486 C483 0.999 . S
H487 C468 0.913 . S
H488 C506 0.951 . S
H489 C508 0.951 . S
H490 C510 0.950 . S
H491 C511 0.950 . S
H492 C513 0.950 . S
H493 C516 0.950 . S
H494 C517 0.967 . S
H495 C519 0.950 . S
H496 C520 0.950 1_556 S
H497 C521 0.951 . S
H498 C523 0.951 . S
H499 C525 0.950 . S
H500 C526 0.950 . S
H501 C528 0.950 . S
H502 C531 0.950 . S
H503 C532 0.967 . S
H504 C534 0.950 . S
H505 C535 0.950 1_554 S
C506 H488 0.951 . S
C506 C507 1.366 . S
C506 C508 1.388 . S
C507 C506 1.366 . S
C507 C511 1.385 . S
C508 H489 0.951 . S
C508 C506 1.388 . S
C508 C509 1.366 . S
C509 C508 1.366 . S
C509 C510 1.414 . S
C509 C512 1.499 . S
C510 H490 0.950 . S
C510 C509 1.414 . S
C510 C511 1.374 . S
C511 H491 0.950 . S
C511 C507 1.385 . S
C511 C510 1.374 . S
C512 C509 1.499 . S
C512 C513 1.373 . S
C512 C514 1.389 . S
C513 H492 0.950 . S
C513 C512 1.373 . S
C513 C529 1.377 1_454 S
C514 C512 1.389 . S
C514 C515 1.524 . S
C514 C528 1.377 1_454 S
C515 C514 1.524 . S
C515 C516 1.397 1_455 S
C515 C520 1.363 . S
C516 H493 0.950 . S
C516 C515 1.397 1_655 S
C516 C517 1.337 . S
C517 H494 0.967 . S
C517 C516 1.337 . S
C517 C518 1.268 1_655 S
C518 C517 1.268 1_455 S
C518 C519 1.524 . S
C518 H537 0.913 . S
C519 H495 0.950 . S
C519 C518 1.524 . S
C519 C520 1.415 . S
C520 H496 0.950 1_554 S
C520 C515 1.363 . S
C520 C519 1.415 . S
C521 H497 0.951 . S
C521 C522 1.366 . S
C521 C523 1.388 . S
C522 C521 1.366 . S
C522 C526 1.385 . S
C523 H498 0.951 . S
C523 C521 1.388 . S
C523 C524 1.366 . S
C524 C523 1.366 . S
C524 C525 1.414 . S
C524 C527 1.499 . S
C525 H499 0.950 . S
C525 C524 1.414 . S
C525 C526 1.374 . S
C526 H500 0.950 . S
C526 C522 1.385 . S
C526 C525 1.374 . S
C527 C524 1.499 . S
C527 C528 1.373 . S
C527 C529 1.389 . S
C528 H501 0.950 . S
C528 C514 1.377 1_656 S
C528 C527 1.373 . S
C529 C513 1.377 1_656 S
C529 C527 1.389 . S
C529 C530 1.524 . S
C530 C529 1.524 . S
C530 C531 1.397 1_655 S
C530 C535 1.363 . S
C531 H502 0.950 . S
C531 C530 1.397 1_455 S
C531 C532 1.337 . S
C532 H503 0.967 . S
C532 C531 1.337 . S
C532 C533 1.268 1_455 S
C533 C532 1.268 1_655 S
C533 C534 1.524 . S
C533 H536 0.999 . S
C534 H504 0.950 . S
C534 C533 1.524 . S
C534 C535 1.415 . S
C535 H505 0.950 1_556 S
C535 C530 1.363 . S
C535 C534 1.415 . S
H536 C533 0.999 . S
H537 C518 0.913 . S
H538 C556 0.951 . S
H539 C558 0.951 . S
H540 C560 0.950 1_565 S
H541 C561 0.950 . S
H542 C563 0.950 . S
H543 C566 0.950 . S
H544 C567 0.950 . S
H545 C569 0.950 . S
H546 C570 0.950 . S
H547 C571 0.951 . S
H548 C573 0.951 . S
H549 C575 0.950 1_545 S
H550 C576 0.950 . S
H551 C578 0.950 . S
H552 C581 0.950 . S
H553 C582 0.950 . S
H554 C584 0.950 . S
H555 C585 0.950 . S
C556 H538 0.951 . S
C556 C557 1.366 . S
C556 C558 1.388 . S
C557 C556 1.366 . S
C557 C561 1.385 . S
C558 H539 0.951 . S
C558 C556 1.388 . S
C558 C559 1.366 . S
C559 C558 1.366 . S
C559 C560 1.414 . S
C559 C562 1.499 . S
C560 H540 0.950 1_545 S
C560 C559 1.414 . S
C560 C561 1.374 . S
C561 H541 0.950 . S
C561 C557 1.385 . S
C561 C560 1.374 . S
C562 C559 1.499 . S
C562 C563 1.373 1_545 S
C562 C564 1.389 . S
C563 H542 0.950 . S
C563 C562 1.373 1_565 S
C563 C579 1.377 . S
C564 C562 1.389 . S
C564 C565 1.524 . S
C564 C578 1.377 . S
C565 C564 1.524 . S
C565 C566 1.397 . S
C565 C570 1.363 . S
C566 H543 0.950 . S
C566 C565 1.397 . S
C566 C567 1.334 . S
C567 H544 0.950 . S
C567 C566 1.334 . S
C567 C568 1.287 . S
C568 C567 1.287 . S
C568 C569 1.524 . S
C568 H587 0.913 . S
C569 H545 0.950 . S
C569 C568 1.524 . S
C569 C570 1.415 . S
C570 H546 0.950 . S
C570 C565 1.363 . S
C570 C569 1.415 . S
C571 H547 0.951 . S
C571 C572 1.366 . S
C571 C573 1.388 . S
C572 C571 1.366 . S
C572 C576 1.385 . S
C573 H548 0.951 . S
C573 C571 1.388 . S
C573 C574 1.366 . S
C574 C573 1.366 . S
C574 C575 1.414 . S
C574 C577 1.499 . S
C575 H549 0.950 1_565 S
C575 C574 1.414 . S
C575 C576 1.374 . S
C576 H550 0.950 . S
C576 C572 1.385 . S
C576 C575 1.374 . S
C577 C574 1.499 . S
C577 C578 1.373 1_565 S
C577 C579 1.389 . S
C578 H551 0.950 . S
C578 C564 1.377 . S
C578 C577 1.373 1_545 S
C579 C563 1.377 . S
C579 C577 1.389 . S
C579 C580 1.524 . S
C580 C579 1.524 . S
C580 C581 1.397 . S
C580 C585 1.363 . S
C581 H552 0.950 . S
C581 C580 1.397 . S
C581 C582 1.334 . S
C582 H553 0.950 . S
C582 C581 1.334 . S
C582 C583 1.287 . S
C583 C582 1.287 . S
C583 C584 1.524 . S
C583 H586 0.999 . S
C584 H554 0.950 . S
C584 C583 1.524 . S
C584 C585 1.415 . S
C585 H555 0.950 . S
C585 C580 1.363 . S
C585 C584 1.415 . S
H586 C583 0.999 . S
H587 C568 0.913 . S
H588 C606 0.951 . S
H589 C608 0.951 . S
H590 C610 0.950 1_455 S
H591 C611 0.950 . S
H592 C613 0.950 . S
H593 C616 0.950 . S
H594 C617 0.950 . S
H595 C619 0.950 . S
H596 C620 0.950 . S
H597 C621 0.951 . S
H598 C623 0.951 . S
H599 C625 0.950 1_655 S
H600 C626 0.950 . S
H601 C628 0.950 . S
H602 C631 0.950 . S
H603 C632 0.950 . S
H604 C634 0.950 . S
H605 C635 0.950 . S
C606 H588 0.951 . S
C606 C607 1.366 . S
C606 C608 1.388 . S
C607 C606 1.366 . S
C607 C611 1.385 . S
C608 H589 0.951 . S
C608 C606 1.388 . S
C608 C609 1.366 . S
C609 C608 1.366 . S
C609 C610 1.414 . S
C609 C612 1.499 . S
C610 H590 0.950 1_655 S
C610 C609 1.414 . S
C610 C611 1.374 . S
C611 H591 0.950 . S
C611 C607 1.385 . S
C611 C610 1.374 . S
C612 C609 1.499 . S
C612 C613 1.373 1_655 S
C612 C614 1.389 . S
C613 H592 0.950 . S
C613 C612 1.373 1_455 S
C613 C629 1.377 . S
C614 C612 1.389 . S
C614 C615 1.524 . S
C614 C628 1.377 . S
C615 C614 1.524 . S
C615 C616 1.397 . S
C615 C620 1.363 . S
C616 H593 0.950 . S
C616 C615 1.397 . S
C616 C617 1.334 . S
C617 H594 0.950 . S
C617 C616 1.334 . S
C617 C618 1.287 . S
C618 C617 1.287 . S
C618 C619 1.524 . S
C618 H637 0.913 . S
C619 H595 0.950 . S
C619 C618 1.524 . S
C619 C620 1.415 . S
C620 H596 0.950 . S
C620 C615 1.363 . S
C620 C619 1.415 . S
C621 H597 0.951 . S
C621 C622 1.366 . S
C621 C623 1.388 . S
C622 C621 1.366 . S
C622 C626 1.385 . S
C623 H598 0.951 . S
C623 C621 1.388 . S
C623 C624 1.366 . S
C624 C623 1.366 . S
C624 C625 1.414 . S
C624 C627 1.499 . S
C625 H599 0.950 1_455 S
C625 C624 1.414 . S
C625 C626 1.374 . S
C626 H600 0.950 . S
C626 C622 1.385 . S
C626 C625 1.374 . S
C627 C624 1.499 . S
C627 C628 1.373 1_455 S
C627 C629 1.389 . S
C628 H601 0.950 . S
C628 C614 1.377 . S
C628 C627 1.373 1_655 S
C629 C613 1.377 . S
C629 C627 1.389 . S
C629 C630 1.524 . S
C630 C629 1.524 . S
C630 C631 1.397 . S
C630 C635 1.363 . S
C631 H602 0.950 . S
C631 C630 1.397 . S
C631 C632 1.334 . S
C632 H603 0.950 . S
C632 C631 1.334 . S
C632 C633 1.287 . S
C633 C632 1.287 . S
C633 C634 1.524 . S
C633 H636 0.999 . S
C634 H604 0.950 . S
C634 C633 1.524 . S
C634 C635 1.415 . S
C635 H605 0.950 . S
C635 C630 1.363 . S
C635 C634 1.415 . S
H636 C633 0.999 . S
H637 C618 0.913 . S
H638 C656 0.951 . S
H639 C658 0.951 . S
H640 C660 0.950 . S
H641 C661 0.950 . S
H642 C663 0.950 . S
H643 C666 0.950 . S
H644 C667 0.950 . S
H645 C669 0.950 . S
H646 C670 0.950 . S
H647 C671 0.951 . S
H648 C673 0.951 . S
H649 C675 0.950 . S
H650 C676 0.950 . S
H651 C678 0.950 . S
H652 C681 0.950 . S
H653 C682 0.950 . S
H654 C684 0.950 . S
H655 C685 0.950 . S
C656 H638 0.951 . S
C656 C657 1.366 . S
C656 C658 1.388 . S
C657 C656 1.366 . S
C657 C661 1.385 . S
C658 H639 0.951 . S
C658 C656 1.388 . S
C658 C659 1.366 . S
C659 C658 1.366 . S
C659 C660 1.414 . S
C659 C662 1.499 . S
C660 H640 0.950 . S
C660 C659 1.414 . S
C660 C661 1.374 . S
C661 H641 0.950 . S
C661 C657 1.385 . S
C661 C660 1.374 . S
C662 C659 1.499 . S
C662 C663 1.373 1_565 S
C662 C664 1.389 . S
C663 H642 0.950 . S
C663 C662 1.373 1_545 S
C663 C679 1.377 . S
C664 C662 1.389 . S
C664 C665 1.524 . S
C664 C678 1.377 . S
C665 C664 1.524 . S
C665 C666 1.397 . S
C665 C670 1.363 . S
C666 H643 0.950 . S
C666 C665 1.397 . S
C666 C667 1.334 . S
C667 H644 0.950 . S
C667 C666 1.334 . S
C667 C668 1.287 . S
C668 C667 1.287 . S
C668 C669 1.524 . S
C668 H687 0.913 . S
C669 H645 0.950 . S
C669 C668 1.524 . S
C669 C670 1.415 . S
C670 H646 0.950 . S
C670 C665 1.363 . S
C670 C669 1.415 . S
C671 H647 0.951 . S
C671 C672 1.366 . S
C671 C673 1.388 . S
C672 C671 1.366 . S
C672 C676 1.385 . S
C673 H648 0.951 . S
C673 C671 1.388 . S
C673 C674 1.366 . S
C674 C673 1.366 . S
C674 C675 1.414 . S
C674 C677 1.499 . S
C675 H649 0.950 . S
C675 C674 1.414 . S
C675 C676 1.374 . S
C676 H650 0.950 . S
C676 C672 1.385 . S
C676 C675 1.374 . S
C677 C674 1.499 . S
C677 C678 1.373 1_545 S
C677 C679 1.389 . S
C678 H651 0.950 . S
C678 C664 1.377 . S
C678 C677 1.373 1_565 S
C679 C663 1.377 . S
C679 C677 1.389 . S
C679 C680 1.524 . S
C680 C679 1.524 . S
C680 C681 1.397 . S
C680 C685 1.363 . S
C681 H652 0.950 . S
C681 C680 1.397 . S
C681 C682 1.334 . S
C682 H653 0.950 . S
C682 C681 1.334 . S
C682 C683 1.287 . S
C683 C682 1.287 . S
C683 C684 1.524 . S
C683 H686 0.999 . S
C684 H654 0.950 . S
C684 C683 1.524 . S
C684 C685 1.415 . S
C685 H655 0.950 . S
C685 C680 1.363 . S
C685 C684 1.415 . S
H686 C683 0.999 . S
H687 C668 0.913 . S
C107 C7 1.499 . S
C122 C51 1.499 . S
C157 C18 1.499 . S
C172 C62 1.499 . S
C207 C29 1.499 . S
C222 C73 1.499 . S
C257 C84 1.499 . S
C272 C40 1.499 . S
C307 C8 1.522 . S
C322 C63 1.522 . S
C357 C19 1.523 . S
C372 C74 1.523 . S
C407 C30 1.522 . S
C422 C85 1.522 . S
C457 C41 1.523 . S
C472 C52 1.523 . S
C507 C5 1.342 . S
C522 C71 1.342 . S
C557 C16 1.341 . S
C572 C82 1.341 . S
C607 C27 1.341 . S
C622 C49 1.341 . S
C657 C38 1.341 . S
C672 C60 1.341 . S
