# Generated by pormake.
# Topology svo, (7)-cn, num edge types: 1
# Building blocks:
#     Node 0, Type 0, BuildingBlock: NUHQUE_clean_sbu_2, # of connection points: 7
#     Node 1, Type 0, BuildingBlock: NUHQUE_clean_sbu_2, # of connection points: 7
#     Node 2, Type 0, BuildingBlock: NUHQUE_clean_sbu_2, # of connection points: 7
#     Node 3, Type 0, BuildingBlock: NUHQUE_clean_sbu_2, # of connection points: 7
#     Node 4, Type 0, BuildingBlock: NUHQUE_clean_sbu_2, # of connection points: 7
#     Node 5, Type 0, BuildingBlock: NUHQUE_clean_sbu_2, # of connection points: 7
#     Node 6, Type 0, BuildingBlock: NUHQUE_clean_sbu_2, # of connection points: 7
#     Node 7, Type 0, BuildingBlock: NUHQUE_clean_sbu_2, # of connection points: 7
#     Node 8, Type 0, BuildingBlock: NUHQUE_clean_sbu_2, # of connection points: 7
#     Node 9, Type 0, BuildingBlock: NUHQUE_clean_sbu_2, # of connection points: 7
#     Node 10, Type 0, BuildingBlock: NUHQUE_clean_sbu_2, # of connection points: 7
#     Node 11, Type 0, BuildingBlock: NUHQUE_clean_sbu_2, # of connection points: 7
#     Node 12, Type 0, BuildingBlock: NUHQUE_clean_sbu_2, # of connection points: 7
#     Node 13, Type 0, BuildingBlock: NUHQUE_clean_sbu_2, # of connection points: 7
#     Node 14, Type 0, BuildingBlock: NUHQUE_clean_sbu_2, # of connection points: 7
#     Node 15, Type 0, BuildingBlock: NUHQUE_clean_sbu_2, # of connection points: 7
#     Edge 16, Type (0, 0), BuildingBlock: OJICUG_clean_linker_0, # of connection points: 2
#     Edge 17, Type (0, 0), BuildingBlock: OJICUG_clean_linker_0, # of connection points: 2
#     Edge 18, Type (0, 0), BuildingBlock: OJICUG_clean_linker_0, # of connection points: 2
#     Edge 19, Type (0, 0), BuildingBlock: OJICUG_clean_linker_0, # of connection points: 2
#     Edge 20, Type (0, 0), BuildingBlock: OJICUG_clean_linker_0, # of connection points: 2
#     Edge 21, Type (0, 0), BuildingBlock: OJICUG_clean_linker_0, # of connection points: 2
#     Edge 22, Type (0, 0), BuildingBlock: OJICUG_clean_linker_0, # of connection points: 2
#     Edge 23, Type (0, 0), BuildingBlock: OJICUG_clean_linker_0, # of connection points: 2
#     Edge 24, Type (0, 0), BuildingBlock: OJICUG_clean_linker_0, # of connection points: 2
#     Edge 25, Type (0, 0), BuildingBlock: OJICUG_clean_linker_0, # of connection points: 2
#     Edge 26, Type (0, 0), BuildingBlock: OJICUG_clean_linker_0, # of connection points: 2
#     Edge 27, Type (0, 0), BuildingBlock: OJICUG_clean_linker_0, # of connection points: 2
#     Edge 28, Type (0, 0), BuildingBlock: OJICUG_clean_linker_0, # of connection points: 2
#     Edge 29, Type (0, 0), BuildingBlock: OJICUG_clean_linker_0, # of connection points: 2
#     Edge 30, Type (0, 0), BuildingBlock: OJICUG_clean_linker_0, # of connection points: 2
#     Edge 31, Type (0, 0), BuildingBlock: OJICUG_clean_linker_0, # of connection points: 2
#     Edge 32, Type (0, 0), BuildingBlock: OJICUG_clean_linker_0, # of connection points: 2
#     Edge 33, Type (0, 0), BuildingBlock: OJICUG_clean_linker_0, # of connection points: 2
#     Edge 34, Type (0, 0), BuildingBlock: OJICUG_clean_linker_0, # of connection points: 2
#     Edge 35, Type (0, 0), BuildingBlock: OJICUG_clean_linker_0, # of connection points: 2
#     Edge 36, Type (0, 0), BuildingBlock: OJICUG_clean_linker_0, # of connection points: 2
#     Edge 37, Type (0, 0), BuildingBlock: OJICUG_clean_linker_0, # of connection points: 2
#     Edge 38, Type (0, 0), BuildingBlock: OJICUG_clean_linker_0, # of connection points: 2
#     Edge 39, Type (0, 0), BuildingBlock: OJICUG_clean_linker_0, # of connection points: 2
#     Edge 40, Type (0, 0), BuildingBlock: OJICUG_clean_linker_0, # of connection points: 2
#     Edge 41, Type (0, 0), BuildingBlock: OJICUG_clean_linker_0, # of connection points: 2
#     Edge 42, Type (0, 0), BuildingBlock: OJICUG_clean_linker_0, # of connection points: 2
#     Edge 43, Type (0, 0), BuildingBlock: OJICUG_clean_linker_0, # of connection points: 2
#     Edge 44, Type (0, 0), BuildingBlock: OJICUG_clean_linker_0, # of connection points: 2
#     Edge 45, Type (0, 0), BuildingBlock: OJICUG_clean_linker_0, # of connection points: 2
#     Edge 46, Type (0, 0), BuildingBlock: OJICUG_clean_linker_0, # of connection points: 2
#     Edge 47, Type (0, 0), BuildingBlock: OJICUG_clean_linker_0, # of connection points: 2
#     Edge 48, Type (0, 0), BuildingBlock: OJICUG_clean_linker_0, # of connection points: 2
#     Edge 49, Type (0, 0), BuildingBlock: OJICUG_clean_linker_0, # of connection points: 2
#     Edge 50, Type (0, 0), BuildingBlock: OJICUG_clean_linker_0, # of connection points: 2
#     Edge 51, Type (0, 0), BuildingBlock: OJICUG_clean_linker_0, # of connection points: 2
#     Edge 52, Type (0, 0), BuildingBlock: OJICUG_clean_linker_0, # of connection points: 2
#     Edge 53, Type (0, 0), BuildingBlock: OJICUG_clean_linker_0, # of connection points: 2
#     Edge 54, Type (0, 0), BuildingBlock: OJICUG_clean_linker_0, # of connection points: 2
#     Edge 55, Type (0, 0), BuildingBlock: OJICUG_clean_linker_0, # of connection points: 2
#     Edge 56, Type (0, 0), BuildingBlock: OJICUG_clean_linker_0, # of connection points: 2
#     Edge 57, Type (0, 0), BuildingBlock: OJICUG_clean_linker_0, # of connection points: 2
#     Edge 58, Type (0, 0), BuildingBlock: OJICUG_clean_linker_0, # of connection points: 2
#     Edge 59, Type (0, 0), BuildingBlock: OJICUG_clean_linker_0, # of connection points: 2
#     Edge 60, Type (0, 0), BuildingBlock: OJICUG_clean_linker_0, # of connection points: 2
#     Edge 61, Type (0, 0), BuildingBlock: OJICUG_clean_linker_0, # of connection points: 2
#     Edge 62, Type (0, 0), BuildingBlock: OJICUG_clean_linker_0, # of connection points: 2
#     Edge 63, Type (0, 0), BuildingBlock: OJICUG_clean_linker_0, # of connection points: 2
#     Edge 64, Type (0, 0), BuildingBlock: OJICUG_clean_linker_0, # of connection points: 2
#     Edge 65, Type (0, 0), BuildingBlock: OJICUG_clean_linker_0, # of connection points: 2
#     Edge 66, Type (0, 0), BuildingBlock: OJICUG_clean_linker_0, # of connection points: 2
#     Edge 67, Type (0, 0), BuildingBlock: OJICUG_clean_linker_0, # of connection points: 2
#     Edge 68, Type (0, 0), BuildingBlock: OJICUG_clean_linker_0, # of connection points: 2
#     Edge 69, Type (0, 0), BuildingBlock: OJICUG_clean_linker_0, # of connection points: 2
#     Edge 70, Type (0, 0), BuildingBlock: OJICUG_clean_linker_0, # of connection points: 2
#     Edge 71, Type (0, 0), BuildingBlock: OJICUG_clean_linker_0, # of connection points: 2
# Relax obj value: 0.160
# Max RMSD: 0.273
# Mean RMSD: 0.273
data_MOF--net-svo--node1-NUHQUE_clean_sbu_2--edge1-OJICUG_clean_linker_0
_symmetry_space_group_name_H-M    P1
_symmetry_Int_Tables_number       1
_symmetry_cell_setting            triclinic
loop_
_symmetry_equiv_pos_as_xyz
'x, y, z'
_cell_length_a     30.201314
_cell_length_b     30.297458
_cell_length_c     40.054218
_cell_angle_alpha  90.293063
_cell_angle_beta   90.050708
_cell_angle_gamma 89.97239
loop_
_atom_site_label
_atom_site_type_symbol
_atom_site_fract_x
_atom_site_fract_y
_atom_site_fract_z
_atom_type_partial_charge
O0 O 0.26111 0.17153 0.13328 0.0
Tb1 Tb 0.27406 0.24077 0.1226 0.0
Eu2 Eu 0.20888 0.3798 0.11762 0.0
C3 C 0.28444 0.15066 0.15605 0.0
O4 O 0.31081 0.17359 0.1756 0.0
C5 C 0.25511 0.32189 0.1682 0.0
O6 O 0.21926 0.45353 0.11218 0.0
C7 C 0.12562 0.35935 0.12155 0.0
C8 C 0.25869 0.47211 0.11376 0.0
O9 O 0.29381 0.44697 0.1174 0.0
C10 C 0.22454 0.29621 0.07052 0.0
C11 C 0.08202 0.37771 0.12989 0.0
C12 C 0.04758 0.34836 0.13749 0.0
C13 C 1.00606 0.36451 0.14705 0.0
C14 C 0.99889 0.41011 0.14829 0.0
C15 C 0.03271 0.44004 0.14047 0.0
C16 C 0.0746 0.42356 0.13128 0.0
O17 O 0.23928 0.29571 0.14504 0.0
O18 O 0.24479 0.36375 0.1656 0.0
O19 O 0.34105 0.25359 0.14098 0.0
O20 O 0.32968 0.24706 0.08854 0.0
C21 C 0.3595 0.25356 0.11153 0.0
O22 O 0.24514 0.32965 0.0852 0.0
O23 O 0.23521 0.25533 0.07859 0.0
O24 O 0.15342 0.35527 0.14655 0.0
O25 O 0.14441 0.37289 0.0938 0.0
H26 H 0.05314 0.31302 0.13622 0.0
H27 H 0.96603 0.42227 0.15423 0.0
H28 H 0.10138 0.44611 0.12562 0.0
O29 O 0.81566 0.28889 0.12532 0.0
Tb30 Tb 0.74941 0.31153 0.11347 0.0
Eu31 Eu 0.644 0.21083 0.09455 0.0
C32 C 0.83334 0.29627 0.15479 0.0
O33 O 0.80805 0.31123 0.17895 0.0
C34 C 0.69203 0.24622 0.15484 0.0
O35 O 0.57259 0.22356 0.10669 0.0
C36 C 0.65798 0.13491 0.06679 0.0
C37 C 0.54599 0.23955 0.08381 0.0
O38 O 0.56169 0.24744 0.05384 0.0
C39 C 0.71214 0.26473 0.05189 0.0
C40 C 0.65153 0.08858 0.07702 0.0
C41 C 0.68851 0.06378 0.08713 0.0
C42 C 0.68281 0.02156 0.10011 0.0
C43 C 0.64056 1.00293 0.10154 0.0
C44 C 0.60304 0.02701 0.09196 0.0
C45 C 0.60883 0.06996 0.07942 0.0
O46 O 0.69176 0.27761 0.13246 0.0
O47 O 0.66878 0.21099 0.14758 0.0
O48 O 0.75355 0.37199 0.14307 0.0
O49 O 0.73878 0.37637 0.09113 0.0
C50 C 0.74537 0.39878 0.11854 0.0
O51 O 0.6754 0.26897 0.06915 0.0
O52 O 0.74812 0.28462 0.06293 0.0
O53 O 0.68853 0.1567 0.08345 0.0
O54 O 0.62231 0.1586 0.06079 0.0
H55 H 0.72149 0.07786 0.08616 0.0
H56 H 0.63712 0.96956 0.11083 0.0
H57 H 0.58007 0.08946 0.07288 0.0
O58 O 0.78335 0.84981 0.12773 0.0
Tb59 Tb 0.76536 0.78162 0.13515 0.0
Eu60 Eu 0.80195 0.67901 0.14907 0.0
C61 C 0.7771 0.8797 0.15103 0.0
O62 O 0.76635 0.86681 0.18122 0.0
C63 C 0.76067 0.74069 0.20393 0.0
O64 O 0.79146 0.60557 0.14629 0.0
C65 C 0.88408 0.69479 0.16513 0.0
C66 C 0.76203 0.58811 0.12593 0.0
O67 O 0.73828 0.61393 0.1067 0.0
C68 C 0.80379 0.72375 0.07854 0.0
C69 C 0.9293 0.68218 0.15425 0.0
C70 C 0.96312 0.71418 0.15267 0.0
C71 C 1.00665 0.70164 0.14442 0.0
C72 C 0.01636 0.65709 0.13835 0.0
C73 C 0.98361 0.62474 0.14116 0.0
C74 C 0.93994 0.63755 0.14836 0.0
O75 O 0.77866 0.77387 0.18799 0.0
O76 O 0.75415 0.70306 0.18825 0.0
O77 O 0.702 0.81261 0.12313 0.0
O78 O 0.70354 0.74317 0.12916 0.0
C79 C 0.67802 0.77703 0.12299 0.0
O80 O 0.78964 0.68828 0.09386 0.0
O81 O 0.80909 0.76082 0.09501 0.0
O82 O 0.86004 0.66332 0.17842 0.0
O83 O 0.86107 0.72091 0.14558 0.0
H84 H 0.95584 0.74841 0.15845 0.0
H85 H 0.05038 0.64727 0.1337 0.0
H86 H 0.91453 0.61244 0.15034 0.0
O87 O 0.20552 0.76937 0.12803 0.0
Tb88 Tb 0.27494 0.75047 0.13007 0.0
Eu89 Eu 0.3862 0.77641 0.13834 0.0
C90 C 0.1804 0.76952 0.15486 0.0
O91 O 0.19903 0.76418 0.18422 0.0
C92 C 0.32504 0.74295 0.19458 0.0
O93 O 0.46012 0.76216 0.13387 0.0
C94 C 0.37259 0.85812 0.15652 0.0
C95 C 0.48579 0.78677 0.11493 0.0
O96 O 0.4674 0.81804 0.09703 0.0
C97 C 0.33129 0.78639 0.07133 0.0
C98 C 0.37949 0.90338 0.14381 0.0
C99 C 0.34637 0.93577 0.14805 0.0
C100 C 0.35376 0.97928 0.1373 0.0
C101 C 0.39423 0.99027 0.12245 0.0
C102 C 0.42799 0.95892 0.11934 0.0
C103 C 0.42024 0.91542 0.1296 0.0
O104 O 0.29506 0.76752 0.18008 0.0
O105 O 0.36014 0.73012 0.17776 0.0
O106 O 0.23934 0.68822 0.12511 0.0
O107 O 0.30914 0.68743 0.11947 0.0
C108 C 0.27339 0.66314 0.11952 0.0
O109 O 0.36763 0.76867 0.08381 0.0
O110 O 0.29537 0.79209 0.08929 0.0
O111 O 0.40818 0.8355 0.16443 0.0
O112 O 0.34254 0.83405 0.14136 0.0
H113 H 0.31554 0.92746 0.16034 0.0
H114 H 0.40064 0.02431 0.11565 0.0
H115 H 0.44668 0.89143 0.12756 0.0
O116 O 0.25938 0.82448 0.34816 0.0
Tb117 Tb 0.27443 0.75644 0.36072 0.0
Eu118 Eu 0.20628 0.61987 0.36592 0.0
C119 C 0.28389 0.84548 0.32627 0.0
O120 O 0.3132 0.82306 0.30891 0.0
C121 C 0.25438 0.6751 0.31569 0.0
O122 O 0.21454 0.54617 0.37184 0.0
C123 C 0.12365 0.6433 0.36272 0.0
C124 C 0.25385 0.52727 0.37183 0.0
O125 O 0.28936 0.55211 0.36962 0.0
C126 C 0.2248 0.70202 0.41346 0.0
C127 C 0.07941 0.62559 0.35557 0.0
C128 C 0.04482 0.65519 0.34862 0.0
C129 C 1.00262 0.63922 0.34059 0.0
C130 C 0.99498 0.59367 0.34027 0.0
C131 C 0.02896 0.56361 0.34749 0.0
C132 C 0.07145 0.57985 0.35508 0.0
O133 O 0.23993 0.7008 0.33952 0.0
O134 O 0.24245 0.63372 0.3177 0.0
O135 O 0.34234 0.74363 0.34413 0.0
O136 O 0.32904 0.75343 0.39601 0.0
C137 C 0.35979 0.74598 0.37394 0.0
O138 O 0.24447 0.66788 0.39901 0.0
O139 O 0.23547 0.74259 0.40463 0.0
O140 O 0.15087 0.64549 0.33725 0.0
O141 O 0.14285 0.63017 0.39045 0.0
H142 H 0.05077 0.69048 0.34923 0.0
H143 H 0.96172 0.58172 0.33546 0.0
H144 H 0.09831 0.55714 0.36028 0.0
O145 O 0.19931 0.23012 0.3584 0.0
Tb146 Tb 0.26858 0.24924 0.356 0.0
Eu147 Eu 0.37871 0.22113 0.34869 0.0
C148 C 0.17345 0.23188 0.33199 0.0
O149 O 0.19135 0.23885 0.3026 0.0
C150 C 0.32041 0.25655 0.29202 0.0
O151 O 0.45323 0.22213 0.35686 0.0
C152 C 0.35783 0.14097 0.33102 0.0
C153 C 0.47788 0.25807 0.35695 0.0
O154 O 0.4589 0.29666 0.3527 0.0
C155 C 0.32399 0.21701 0.4162 0.0
C156 C 0.36668 0.09591 0.3429 0.0
C157 C 0.33569 0.06212 0.33696 0.0
C158 C 0.345 0.01878 0.347 0.0
C159 C 0.38525 0.00933 0.36286 0.0
C160 C 0.41692 0.04238 0.36788 0.0
C161 C 0.4072 0.08583 0.35839 0.0
O162 O 0.28994 0.23215 0.30618 0.0
O163 O 0.35551 0.26873 0.30921 0.0
O164 O 0.23324 0.3118 0.3589 0.0
O165 O 0.30265 0.312 0.36727 0.0
C166 C 0.26714 0.33655 0.36569 0.0
O167 O 0.36035 0.23332 0.40279 0.0
O168 O 0.28801 0.21012 0.39852 0.0
O169 O 0.39195 0.1625 0.31898 0.0
O170 O 0.33244 0.16563 0.34996 0.0
H171 H 0.30507 0.06925 0.32391 0.0
H172 H 0.39318 0.97541 0.36909 0.0
H173 H 0.4318 0.11146 0.36209 0.0
O174 O 0.77014 0.16137 0.36901 0.0
Tb175 Tb 0.75715 0.22973 0.35795 0.0
Eu176 Eu 0.79612 0.32898 0.3445 0.0
C177 C 0.76907 0.13077 0.34578 0.0
O178 O 0.76501 0.14253 0.31441 0.0
C179 C 0.75767 0.26846 0.28898 0.0
O180 O 0.78635 0.40234 0.34615 0.0
C181 C 0.87797 0.3107 0.32932 0.0
C182 C 0.75437 0.41964 0.36418 0.0
O183 O 0.72848 0.39373 0.38166 0.0
C184 C 0.7942 0.28646 0.41597 0.0
C185 C 0.92358 0.32255 0.33957 0.0
C186 C 0.95712 0.29019 0.3401 0.0
C187 C 1.0012 0.30227 0.34698 0.0
C188 C 0.01169 0.34672 0.3527 0.0
C189 C 0.97908 0.37938 0.35089 0.0
C190 C 0.93491 0.36701 0.34523 0.0
O191 O 0.77514 0.23576 0.30579 0.0
O192 O 0.74934 0.30572 0.30454 0.0
O193 O 0.68985 0.20392 0.36198 0.0
O194 O 0.69907 0.2733 0.36413 0.0
C195 C 0.66965 0.24167 0.36458 0.0
O196 O 0.78248 0.32211 0.39973 0.0
O197 O 0.79816 0.24855 0.40032 0.0
O198 O 0.85474 0.34223 0.31527 0.0
O199 O 0.85441 0.28615 0.34963 0.0
H200 H 0.94922 0.25608 0.3344 0.0
H201 H 0.04604 0.3562 0.35618 0.0
H202 H 0.90964 0.39238 0.34394 0.0
O203 O 0.81155 0.71611 0.36319 0.0
Tb204 Tb 0.74471 0.69538 0.37544 0.0
Eu205 Eu 0.64251 0.79673 0.39734 0.0
C206 C 0.82928 0.70707 0.334 0.0
O207 O 0.80392 0.69135 0.31014 0.0
C208 C 0.68856 0.76294 0.33636 0.0
O209 O 0.57226 0.78013 0.38357 0.0
C210 C 0.6498 0.87331 0.42549 0.0
C211 C 0.54481 0.76504 0.40621 0.0
O212 O 0.55901 0.75983 0.43696 0.0
C213 C 0.71205 0.74145 0.43993 0.0
C214 C 0.64264 0.91931 0.41466 0.0
C215 C 0.67931 0.94511 0.40557 0.0
C216 C 0.67301 0.9872 0.39252 0.0
C217 C 0.63035 1.00472 0.38993 0.0
C218 C 0.59311 0.97969 0.3986 0.0
C219 C 0.59957 0.93686 0.41121 0.0
O220 O 0.68764 0.73153 0.35863 0.0
O221 O 0.66722 0.79897 0.34437 0.0
O222 O 0.74609 0.63516 0.34551 0.0
O223 O 0.73241 0.63091 0.39765 0.0
C224 C 0.7376 0.60854 0.37007 0.0
O225 O 0.67299 0.73943 0.42524 0.0
O226 O 0.74604 0.72076 0.42625 0.0
O227 O 0.68333 0.85261 0.41144 0.0
O228 O 0.61448 0.84829 0.42883 0.0
H229 H 0.71263 0.93201 0.40753 0.0
H230 H 0.62646 0.03806 0.38066 0.0
H231 H 0.57111 0.91665 0.41714 0.0
O232 O 0.67296 0.78651 0.88806 0.0
Tb233 Tb 0.74377 0.79644 0.88273 0.0
Eu234 Eu 0.87379 0.7206 0.89474 0.0
C235 C 0.64682 0.76964 0.86504 0.0
O236 O 0.66379 0.75343 0.83744 0.0
C237 C 0.81695 0.75679 0.83661 0.0
O238 O 0.94846 0.72437 0.89679 0.0
C239 C 0.84438 0.64161 0.90557 0.0
C240 C 0.96991 0.76214 0.89892 0.0
O241 O 0.9473 0.79914 0.90067 0.0
C242 C 0.79936 0.76338 0.94039 0.0
C243 C 0.8582 0.59515 0.90428 0.0
C244 C 0.82583 0.56308 0.89791 0.0
C245 C 0.83771 0.51868 0.89497 0.0
C246 C 0.88211 0.50618 0.89831 0.0
C247 C 0.91524 0.53787 0.9039 0.0
C248 C 0.90293 0.58263 0.90708 0.0
O249 O 0.78702 0.74802 0.85947 0.0
O250 O 0.85774 0.74362 0.84255 0.0
O251 O 0.73919 0.85395 0.85026 0.0
O252 O 0.77266 0.85987 0.89694 0.0
C253 C 0.76014 0.88085 0.87024 0.0
O254 O 0.83142 0.77267 0.9193 0.0
O255 O 0.759 0.77648 0.93324 0.0
O256 O 0.84109 0.66141 0.87659 0.0
O257 O 0.86147 0.66669 0.92924 0.0
H258 H 0.79149 0.57271 0.89474 0.0
H259 H 0.891 0.47181 0.89462 0.0
H260 H 0.92799 0.60768 0.91116 0.0
O261 O 0.2609 0.68571 0.88075 0.0
Tb262 Tb 0.2482 0.75638 0.87689 0.0
Eu263 Eu 0.27577 0.86909 0.86783 0.0
C264 C 0.255 0.65894 0.85509 0.0
O265 O 0.24793 0.67607 0.82549 0.0
C266 C 0.24337 0.80578 0.81144 0.0
O267 O 0.26316 0.94174 0.87946 0.0
C268 C 0.35745 0.86219 0.8479 0.0
C269 C 0.22946 0.9648 0.86782 0.0
O270 O 0.19949 0.9449 0.84933 0.0
C271 C 0.29075 0.81203 0.93355 0.0
C272 C 0.40319 0.87401 0.85795 0.0
C273 C 0.43524 0.84051 0.86076 0.0
C274 C 0.4793 0.85122 0.86819 0.0
C275 C 0.49167 0.89551 0.87193 0.0
C276 C 0.46067 0.92961 0.86857 0.0
C277 C 0.41612 0.91848 0.86215 0.0
O278 O 0.26543 0.77453 0.82673 0.0
O279 O 0.23047 0.8414 0.8278 0.0
O280 O 0.18305 0.72645 0.88097 0.0
O281 O 0.18876 0.79532 0.88993 0.0
C282 C 0.16132 0.762 0.88856 0.0
O283 O 0.27119 0.84777 0.92187 0.0
O284 O 0.29379 0.77553 0.91588 0.0
O285 O 0.33096 0.89458 0.8392 0.0
O286 O 0.33734 0.83118 0.86497 0.0
H287 H 0.42607 0.80628 0.85682 0.0
H288 H 0.52634 0.90329 0.87578 0.0
H289 H 0.39169 0.94447 0.85984 0.0
O290 O 0.30682 0.25565 0.88187 0.0
Tb291 Tb 0.23562 0.24407 0.87992 0.0
Eu292 Eu 0.12872 0.29051 0.86565 0.0
C293 C 0.33175 0.25631 0.85491 0.0
O294 O 0.31288 0.25358 0.82543 0.0
C295 C 0.19265 0.2523 0.81199 0.0
O296 O 0.05375 0.28705 0.86804 0.0
C297 C 0.15177 0.3721 0.85409 0.0
C298 C 0.03124 0.24977 0.86885 0.0
O299 O 0.05278 0.21209 0.86872 0.0
C300 C 0.17582 0.28486 0.93619 0.0
C301 C 0.14501 0.41756 0.86717 0.0
C302 C 0.17981 0.44857 0.86544 0.0
C303 C 0.17303 0.49253 0.87582 0.0
C304 C 0.13119 0.50537 0.88736 0.0
C305 C 0.09554 0.47579 0.8876 0.0
C306 C 0.10297 0.4315 0.87836 0.0
O307 O 0.22382 0.26965 0.83061 0.0
O308 O 0.15316 0.24505 0.82461 0.0
O309 O 0.2622 0.17843 0.89053 0.0
O310 O 0.19515 0.18348 0.87558 0.0
C311 C 0.22663 0.15599 0.8838 0.0
O312 O 0.1392 0.27421 0.92015 0.0
O313 O 0.21496 0.28444 0.92187 0.0
O314 O 0.11727 0.35274 0.84043 0.0
O315 O 0.17597 0.34497 0.87195 0.0
H316 H 0.21174 0.43877 0.85552 0.0
H317 H 0.12582 0.53949 0.89462 0.0
H318 H 0.07554 0.40845 0.8782 0.0
O319 O 0.74013 0.33352 0.87322 0.0
Tb320 Tb 0.75113 0.26534 0.85946 0.0
Eu321 Eu 0.70917 0.16208 0.84604 0.0
C322 C 0.74556 0.36548 0.85163 0.0
O323 O 0.75037 0.35553 0.81988 0.0
C324 C 0.74538 0.22615 0.7901 0.0
O325 O 0.72086 0.08869 0.84605 0.0
C326 C 0.62507 0.17584 0.83582 0.0
C327 C 0.75406 0.0706 0.86224 0.0
O328 O 0.78144 0.09584 0.87922 0.0
C329 C 0.71643 0.20765 0.91671 0.0
C330 C 0.58079 0.16481 0.84955 0.0
C331 C 0.54832 0.19816 0.85232 0.0
C332 C 0.50494 0.18753 0.86218 0.0
C333 C 0.49392 0.14354 0.86847 0.0
C334 C 0.52505 0.10982 0.86463 0.0
C335 C 0.56885 0.12056 0.85609 0.0
O336 O 0.72978 0.25883 0.80818 0.0
O337 O 0.75162 0.1872 0.80371 0.0
O338 O 0.81762 0.29293 0.86147 0.0
O339 O 0.81047 0.22355 0.86634 0.0
C340 C 0.83889 0.25612 0.86549 0.0
O341 O 0.72742 0.17141 0.90054 0.0
O342 O 0.71023 0.24485 0.90091 0.0
O343 O 0.64755 0.14329 0.82224 0.0
O344 O 0.65017 0.20364 0.85261 0.0
H345 H 0.5564 0.23195 0.846 0.0
H346 H 0.45999 0.13514 0.87471 0.0
H347 H 0.59278 0.09424 0.85272 0.0
O348 O 0.68654 0.23648 0.62973 0.0
Tb349 Tb 0.7521 0.2137 0.61524 0.0
Eu350 Eu 0.87528 0.30488 0.60672 0.0
C351 C 0.66678 0.22045 0.65628 0.0
O352 O 0.69021 0.19697 0.67738 0.0
C353 C 0.82305 0.26151 0.66159 0.0
O354 O 0.94975 0.29739 0.61079 0.0
C355 C 0.85532 0.38647 0.59392 0.0
C356 C 0.97115 0.26277 0.5989 0.0
O357 O 0.94859 0.23074 0.58466 0.0
C358 C 0.80236 0.26262 0.5575 0.0
C359 C 0.87284 0.43051 0.60323 0.0
C360 C 0.84487 0.46156 0.61898 0.0
C361 C 0.86162 0.50267 0.62936 0.0
C362 C 0.90583 0.51327 0.62265 0.0
C363 C 0.93388 0.4832 0.60663 0.0
C364 C 0.91751 0.44154 0.59738 0.0
O365 O 0.81168 0.24461 0.63287 0.0
O366 O 0.85585 0.28955 0.66012 0.0
O367 O 0.76164 0.15041 0.64012 0.0
O368 O 0.74688 0.15122 0.5881 0.0
C369 C 0.75458 0.12606 0.61377 0.0
O370 O 0.83902 0.25389 0.57434 0.0
O371 O 0.76396 0.24566 0.5672 0.0
O372 O 0.83685 0.36395 0.61811 0.0
O373 O 0.87972 0.36181 0.57399 0.0
H374 H 0.8105 0.45344 0.62373 0.0
H375 H 0.91869 0.54521 0.63027 0.0
H376 H 0.93958 0.41795 0.5856 0.0
O377 O 0.76886 0.68696 0.64769 0.0
Tb378 Tb 0.78494 0.7539 0.63316 0.0
Eu379 Eu 0.7042 0.84471 0.6449 0.0
C380 C 0.79182 0.66647 0.67075 0.0
O381 O 0.81822 0.68982 0.69005 0.0
C382 C 0.76795 0.80119 0.70161 0.0
O383 O 0.73021 0.91439 0.64336 0.0
C384 C 0.61859 0.84608 0.64768 0.0
C385 C 0.72046 0.93883 0.61729 0.0
O386 O 0.6968 0.92135 0.59306 0.0
C387 C 0.72496 0.79099 0.57879 0.0
C388 C 0.57795 0.85636 0.62873 0.0
C389 C 0.54865 0.82181 0.62112 0.0
C390 C 0.50683 0.83068 0.60767 0.0
C391 C 0.49425 0.8745 0.60169 0.0
C392 C 0.52255 0.90952 0.60983 0.0
C393 C 0.56486 0.90028 0.6227 0.0
O394 O 0.79722 0.78979 0.67909 0.0
O395 O 0.72792 0.81454 0.69356 0.0
O396 O 0.84427 0.7181 0.61872 0.0
O397 O 0.8379 0.7851 0.60416 0.0
C398 C 0.86375 0.75059 0.60373 0.0
O399 O 0.72324 0.83107 0.59115 0.0
O400 O 0.73038 0.75715 0.59841 0.0
O401 O 0.64356 0.87923 0.6575 0.0
O402 O 0.64122 0.81084 0.63863 0.0
H403 H 0.55751 0.78807 0.62712 0.0
H404 H 0.46111 0.88159 0.59271 0.0
H405 H 0.58623 0.92738 0.63005 0.0
O406 O 0.31618 0.75952 0.59178 0.0
Tb407 Tb 0.24758 0.77168 0.60364 0.0
Eu408 Eu 0.14848 0.72433 0.62061 0.0
C409 C 0.3442 0.742 0.61296 0.0
O410 O 0.32961 0.72677 0.64155 0.0
C411 C 0.20874 0.76923 0.67278 0.0
O412 O 0.07444 0.7241 0.61593 0.0
C413 C 0.17489 0.64484 0.63492 0.0
C414 C 0.05336 0.75607 0.60053 0.0
O415 O 0.07574 0.79001 0.58921 0.0
C416 C 0.18967 0.72603 0.54901 0.0
C417 C 0.16718 0.59914 0.62293 0.0
C418 C 0.20202 0.56816 0.62303 0.0
C419 C 0.19425 0.52428 0.61297 0.0
C420 C 0.15153 0.51155 0.60328 0.0
C421 C 0.11586 0.54103 0.60512 0.0
C422 C 0.12423 0.58524 0.61402 0.0
O423 O 0.24056 0.75165 0.65492 0.0
O424 O 0.16939 0.77422 0.65943 0.0
O425 O 0.27743 0.83699 0.60201 0.0
O426 O 0.20749 0.83225 0.59757 0.0
C427 C 0.2411 0.85954 0.59885 0.0
O428 O 0.15376 0.73689 0.56545 0.0
O429 O 0.22903 0.72867 0.56266 0.0
O430 O 0.14113 0.66447 0.64946 0.0
O431 O 0.19738 0.67126 0.61526 0.0
H432 H 0.23474 0.57789 0.63144 0.0
H433 H 0.14567 0.4775 0.59607 0.0
H434 H 0.09697 0.60839 0.61577 0.0
O435 O 0.2678 0.32798 0.6071 0.0
Tb436 Tb 0.25131 0.25864 0.61352 0.0
Eu437 Eu 0.28424 0.146 0.6241 0.0
C438 C 0.26873 0.35554 0.6326 0.0
O439 O 0.26534 0.33965 0.66295 0.0
C440 C 0.24672 0.20932 0.67791 0.0
O441 O 0.27798 0.07199 0.61568 0.0
C442 C 0.36519 0.16194 0.6435 0.0
C443 C 0.24005 0.05102 0.61153 0.0
O444 O 0.20289 0.07356 0.61218 0.0
C445 C 0.28997 0.2003 0.55608 0.0
C446 C 0.41135 0.14853 0.63639 0.0
C447 C 0.44634 0.1777 0.64394 0.0
C448 C 0.49042 0.16344 0.64107 0.0
C449 C 0.49938 0.12028 0.63051 0.0
C450 C 0.46518 0.09076 0.62253 0.0
C451 C 0.42101 0.10538 0.62523 0.0
O452 O 0.27143 0.23843 0.66262 0.0
O453 O 0.23592 0.17252 0.66235 0.0
O454 O 0.18648 0.28959 0.61806 0.0
O455 O 0.18973 0.22404 0.59922 0.0
C456 C 0.16319 0.2566 0.60705 0.0
O457 O 0.27406 0.16413 0.56987 0.0
O458 O 0.29284 0.238 0.57234 0.0
O459 O 0.33966 0.13168 0.65675 0.0
O460 O 0.34462 0.18605 0.62118 0.0
H461 H 0.43933 0.21072 0.65305 0.0
H462 H 0.53356 0.10932 0.62979 0.0
H463 H 0.39408 0.08296 0.61949 0.0
C464 C 0.21263 0.33533 0.01681 0.0
C465 C 0.19978 0.30236 0.03921 0.0
H466 H 0.21458 0.35525 0.96563 0.0
C467 C 0.17002 0.26944 0.02849 0.0
H468 H 0.23551 0.36102 0.0244 0.0
C469 C 0.1574 0.26658 -0.00504 0.0
C470 C 0.17505 0.29623 0.97184 0.0
H471 H 0.15944 0.24379 0.04546 0.0
H472 H 0.13771 0.23873 0.98665 0.0
C473 C 0.20076 0.33194 0.98321 0.0
C474 C 0.75296 0.22899 0.00448 0.0
C475 C 0.71259 0.24072 0.01961 0.0
H476 H 0.78549 0.20733 0.95964 0.0
C477 C 0.67292 0.23333 0.00208 0.0
H478 H 0.78404 0.23406 0.01746 0.0
C479 C 0.67391 0.21837 0.96898 0.0
C480 C 0.71443 0.20932 0.95329 0.0
H481 H 0.64132 0.24201 0.01305 0.0
H482 H 0.64323 0.21645 0.955 0.0
C483 C 0.75383 0.21319 0.97159 0.0
C484 C 0.77659 0.71472 0.98715 0.0
C485 C 0.80786 0.7437 0.97331 0.0
H486 H 0.75183 0.68425 0.03162 0.0
C487 C 0.84217 0.76001 0.99346 0.0
H488 H 0.74975 0.70187 0.972 0.0
C489 C 0.84254 0.75104 0.0277 0.0
C490 C 0.80945 0.7245 0.04198 0.0
H491 H 0.86637 0.78272 0.98339 0.0
H492 H 0.86734 0.76669 0.04332 0.0
C493 C 0.7778 0.70459 0.02117 0.0
C494 C 0.33843 0.77874 0.97774 0.0
C495 C 0.3071 0.81079 0.96822 0.0
H496 H 0.37167 0.74649 0.01822 0.0
C497 C 0.28908 0.83882 0.99258 0.0
H498 H 0.35337 0.75708 0.95933 0.0
C499 C 0.29935 0.83244 0.02618 0.0
C500 C 0.32835 0.79847 0.03588 0.0
H501 H 0.26513 0.86392 0.98595 0.0
H502 H 0.28311 0.85295 0.04473 0.0
C503 C 0.34927 0.77286 0.01135 0.0
C504 C 0.17251 0.72894 0.45664 0.0
C505 C 0.20391 0.69742 0.44629 0.0
H506 H 0.14234 0.76218 0.49823 0.0
C507 C 0.2228 0.66911 0.46989 0.0
H508 H 0.15753 0.75106 0.43869 0.0
C509 C 0.21496 0.67623 0.50379 0.0
C510 C 0.18728 0.71089 0.51428 0.0
H511 H 0.24722 0.64473 0.46254 0.0
H512 H 0.233 0.65672 0.52189 0.0
C513 C 0.16384 0.73535 0.49056 0.0
C514 C 0.28388 0.17093 0.49791 0.0
C515 C 0.30367 0.19997 0.52079 0.0
H516 H 0.27501 0.1538 0.44646 0.0
C517 C 0.33455 0.23119 0.50928 0.0
H518 H 0.26012 0.14651 0.50611 0.0
C519 C 0.34371 0.23486 0.47524 0.0
C520 C 0.32144 0.20797 0.45219 0.0
H521 H 0.35072 0.25364 0.52653 0.0
H522 H 0.36618 0.26037 0.46686 0.0
C523 C 0.29235 0.17522 0.46383 0.0
C524 C 0.77202 0.30235 0.50799 0.0
C525 C 0.80545 0.27617 0.52222 0.0
H526 H 0.74319 0.32751 0.46286 0.0
C527 C 0.83812 0.25786 0.50143 0.0
H528 H 0.74634 0.31661 0.52355 0.0
C529 C 0.83547 0.26288 0.46679 0.0
C530 C 0.801 0.28752 0.45245 0.0
H531 H 0.86397 0.23717 0.51171 0.0
H532 H 0.85956 0.2463 0.45109 0.0
C533 C 0.77025 0.30863 0.47338 0.0
C534 C 0.68428 0.78549 0.48934 0.0
C535 C 0.71615 0.7574 0.47486 0.0
H536 H 0.66282 0.81961 0.5338 0.0
C537 C 0.75204 0.74324 0.49447 0.0
H538 H 0.65622 0.79677 0.47491 0.0
C539 C 0.75509 0.75529 0.52802 0.0
C540 C 0.72312 0.78284 0.54256 0.0
H541 H 0.7772 0.72158 0.48425 0.0
H542 H 0.78234 0.74264 0.54279 0.0
C543 C 0.68811 0.79868 0.52289 0.0
C544 C 0.32562 0.03638 0.17648 0.0
C545 C 0.32293 0.01575 0.14511 0.0
H546 H 0.31501 0.09573 0.2047 0.0
C547 C 0.30015 0.03694 0.11918 0.0
H548 H 0.34379 0.02092 0.19663 0.0
C549 C 0.28324 0.07959 0.12382 0.0
C550 C 0.28995 0.10208 0.15422 0.0
H551 H 0.29848 0.0219 0.09461 0.0
H552 H 0.26856 0.09627 0.10267 0.0
C553 C 0.30947 0.0793 0.18097 0.0
C554 C 0.94334 0.34037 0.18278 0.0
C555 C 0.96832 0.33486 0.15352 0.0
H556 H 0.88089 0.33096 0.20666 0.0
C557 C 0.952 0.30779 0.12784 0.0
H558 H 0.95558 0.36093 0.203 0.0
C559 C 0.909 0.29091 0.12971 0.0
C560 C 0.88196 0.30088 0.15734 0.0
H561 H 0.97077 0.30316 0.10504 0.0
H562 H 0.8958 0.27328 0.10832 0.0
C563 C 0.90058 0.3232 0.18481 0.0
C564 C 0.74428 0.95379 0.16191 0.0
C565 C 0.76723 0.92518 0.14032 0.0
H566 H 0.69908 0.00806 0.1654 0.0
C567 C 0.77142 0.93653 0.1064 0.0
H568 H 0.74086 0.94631 0.18819 0.0
C569 C 0.74755 0.97202 0.09346 0.0
C570 C 0.71983 0.99664 0.11441 0.0
H571 H 0.78948 0.91549 0.08921 0.0
H572 H 0.74731 0.9774 0.06673 0.0
C573 C 0.72042 0.98917 0.14893 0.0
C574 C 0.11316 0.75558 0.11973 0.0
C575 C 0.13173 0.76461 0.15126 0.0
H576 H 0.05785 0.72871 0.09286 0.0
C577 C 0.10446 0.76189 0.17966 0.0
H578 H 0.13306 0.75748 0.0973 0.0
C579 C 0.06098 0.74618 0.1769 0.0
C580 C 0.04425 0.73277 0.14577 0.0
H581 H 0.11763 0.76886 0.20429 0.0
H582 H 0.04195 0.7407 0.19942 0.0
C583 C 0.06995 0.73938 0.11707 0.0
C584 C 0.32369 0.96014 0.30691 0.0
C585 C 0.31646 0.98134 0.33763 0.0
H586 H 0.31833 0.89992 0.27898 0.0
C587 C 0.29096 0.96032 0.36208 0.0
H588 H 0.34391 0.97565 0.28795 0.0
C589 C 0.27592 0.91716 0.3569 0.0
C590 C 0.28724 0.89414 0.32752 0.0
H591 H 0.28574 0.97595 0.38614 0.0
H592 H 0.25909 0.90059 0.37715 0.0
C593 C 0.30932 0.91677 0.30191 0.0
C594 C 0.09691 0.24193 0.3087 0.0
C595 C 0.125 0.2375 0.33654 0.0
H596 H 0.03418 0.26504 0.29053 0.0
C597 C 0.10762 0.24564 0.36858 0.0
H598 H 0.10918 0.23572 0.28371 0.0
C599 C 0.06483 0.26257 0.37236 0.0
C600 C 0.03834 0.27074 0.34428 0.0
H601 H 0.1282 0.24249 0.3906 0.0
H602 H 0.05369 0.27251 0.39698 0.0
C603 C 0.05384 0.25832 0.31257 0.0
C604 C 0.71296 0.02098 0.34538 0.0
C605 C 0.7101 0.01332 0.3798 0.0
H606 H 0.73573 0.06419 0.30711 0.0
C607 C 0.73576 0.03833 0.40197 0.0
H608 H 0.69317 1.0018 0.32801 0.0
C609 C 0.75996 0.0742 0.39013 0.0
C610 C 0.75832 0.08541 0.35608 0.0
H611 H 0.7337 0.0328 0.42863 0.0
H612 H 0.77646 0.09545 0.40807 0.0
C613 C 0.7373 0.05667 0.33349 0.0
C614 C 0.94835 0.69529 0.36063 0.0
C615 C 0.96474 0.66893 0.33456 0.0
H616 H 0.89201 0.729 0.38074 0.0
C617 C 0.93946 0.66369 0.30538 0.0
H618 H 0.96731 0.69959 0.38339 0.0
C619 C 0.89651 0.68053 0.30372 0.0
C620 C 0.87794 0.70229 0.33145 0.0
H621 H 0.95166 0.64353 0.28493 0.0
H622 H 0.87671 0.67308 0.28184 0.0
C623 C 0.90516 0.71186 0.35911 0.0
C624 C 0.7873 0.95512 0.88834 0.0
C625 C 0.7628 0.92907 0.86588 0.0
H626 H 0.80417 0.02049 0.90459 0.0
C627 C 0.73771 0.94977 0.84096 0.0
H628 H 0.80689 0.93991 0.90781 0.0
C629 C 0.73557 0.9958 0.83941 0.0
C630 C 0.759 0.022 0.86248 0.0
H631 H 0.71843 0.93043 0.82337 0.0
H632 H 0.715 0.01082 0.82043 0.0
C633 C 0.78569 1.00121 0.8865 0.0
C634 C 0.043 0.80268 0.8998 0.0
C635 C 0.01911 0.76276 0.89792 0.0
H636 H 0.10699 0.83396 0.8985 0.0
C637 C 0.04273 0.72309 0.89419 0.0
H638 H 0.02585 0.83385 0.90273 0.0
C639 C 0.08884 0.72328 0.89175 0.0
C640 C 0.11268 0.76309 0.89307 0.0
H641 H 0.0256 0.69174 0.89269 0.0
H642 H 0.10582 0.69206 0.88844 0.0
C643 C 0.08942 0.80283 0.89744 0.0
C644 C 0.26121 0.08193 0.89347 0.0
C645 C 0.22492 0.10688 0.88218 0.0
H646 H 0.291 0.01805 0.89812 0.0
C647 C 0.18902 0.08455 0.86748 0.0
H648 H 0.28946 0.09809 0.90486 0.0
C649 C 0.19003 0.0384 0.86332 0.0
C650 C 0.22685 0.01348 0.87399 0.0
H651 H 0.16068 0.10283 0.85839 0.0
H652 H 0.16221 0.02234 0.85128 0.0
C653 C 0.2621 0.03591 0.88957 0.0
C654 C 0.95921 0.29109 0.86812 0.0
C655 C 0.98187 0.25059 0.86907 0.0
H656 H 0.89677 0.32427 0.86633 0.0
C657 C 0.9568 0.21131 0.86969 0.0
H658 H 0.9772 0.322 0.86768 0.0
C659 C 0.91024 0.21265 0.869 0.0
C660 C 0.88789 0.25328 0.86759 0.0
H661 H 0.97313 0.1795 0.87048 0.0
H662 H 0.8918 0.182 0.8692 0.0
C663 C 0.91295 0.29238 0.86735 0.0
C664 C 0.73526 0.05527 0.58528 0.0
C665 C 0.75026 0.07756 0.61391 0.0
H666 H 0.71412 0.99398 0.56393 0.0
C667 C 0.75806 0.05349 0.64323 0.0
H668 H 0.72895 0.07303 0.56236 0.0
C669 C 0.74977 0.00803 0.64414 0.0
C670 C 0.73315 0.98599 0.61583 0.0
H671 H 0.7696 0.06996 0.66567 0.0
H672 H 0.75513 0.99048 0.66729 0.0
C673 C 0.72664 0.00999 0.58625 0.0
C674 C 0.98249 0.71409 0.60277 0.0
C675 C 1.00474 0.75395 0.59681 0.0
H676 H 0.92021 0.68168 0.60854 0.0
C677 C 0.97995 0.79169 0.58858 0.0
H678 H 1.00065 0.68425 0.6086 0.0
C679 C 0.93359 0.7902 0.58857 0.0
C680 C 0.91152 0.75086 0.59647 0.0
H681 H 0.99625 0.8228 0.58359 0.0
H682 H 0.91512 0.82023 0.58398 0.0
C683 C 0.93638 0.71253 0.60245 0.0
C684 C 0.27952 0.97839 0.60546 0.0
C685 C 0.23954 1.00209 0.60678 0.0
H686 H 0.31109 0.91536 0.60163 0.0
C687 C 0.19947 0.97839 0.60402 0.0
H688 H 0.31103 0.99529 0.60738 0.0
C689 C 0.19952 0.93211 0.60066 0.0
C690 C 0.23963 0.90861 0.59993 0.0
H691 H 0.16801 0.99552 0.60488 0.0
H692 H 0.16825 0.91471 0.59919 0.0
C693 C 0.27954 0.93239 0.60208 0.0
C694 C 0.04374 0.2228 0.59004 0.0
C695 C 0.02035 0.26045 0.60105 0.0
H696 H 0.10731 0.1918 0.58332 0.0
C697 C 0.04455 0.29631 0.61393 0.0
H698 H 0.02618 0.19455 0.57998 0.0
C699 C 0.09078 0.29469 0.61568 0.0
C700 C 0.11415 0.25717 0.60472 0.0
H701 H 0.02784 0.32587 0.62256 0.0
H702 H 0.10826 0.32304 0.6257 0.0
C703 C 0.09019 0.22114 0.59192 0.0
C704 C 0.83223 0.59739 0.68585 0.0
C705 C 0.79921 0.61832 0.66694 0.0
H706 H 0.87756 0.5432 0.68879 0.0
C707 C 0.77985 0.59508 0.64007 0.0
H708 H 0.84747 0.614 0.70693 0.0
C709 C 0.79713 0.55436 0.62974 0.0
C710 C 0.83385 0.53633 0.6462 0.0
H711 H 0.75397 0.61 0.62517 0.0
H712 H 0.78453 0.53916 0.60711 0.0
C713 C 0.84948 0.55681 0.67549 0.0
C714 C 0.40587 0.77053 0.57808 0.0
C715 C 0.39169 0.75124 0.6081 0.0
H716 H 0.45455 0.81095 0.55433 0.0
C717 C 0.42115 0.74933 0.6352 0.0
H718 H 0.38424 0.77177 0.55651 0.0
C719 C 0.46162 0.77152 0.63375 0.0
C720 C 0.47295 0.79578 0.60521 0.0
H721 H 0.41134 0.73435 0.65855 0.0
H722 H 0.48188 0.7733 0.65606 0.0
C723 C 0.4461 0.79291 0.57673 0.0
C724 C 0.23733 0.46139 0.58932 0.0
C725 C 0.22771 0.48891 0.61668 0.0
H726 H 0.25888 0.39771 0.5728 0.0
C727 C 0.24017 0.47533 0.6488 0.0
H728 H 0.22766 0.47105 0.56434 0.0
C729 C 0.25742 0.43293 0.65383 0.0
C730 C 0.26261 0.40355 0.62677 0.0
H731 H 0.23254 0.49574 0.67034 0.0
H732 H 0.26342 0.4221 0.67916 0.0
C733 C 0.25489 0.41921 0.59427 0.0
C734 C 0.55229 0.18168 0.67952 0.0
C735 C 0.5286 0.19144 0.65031 0.0
H736 H 0.61468 0.18421 0.70478 0.0
C737 C 0.54818 0.21845 0.62614 0.0
H738 H 0.53796 0.16032 0.69825 0.0
C739 C 0.59231 0.23195 0.62966 0.0
C740 C 0.61764 0.21816 0.65727 0.0
H741 H 0.53072 0.22572 0.60317 0.0
H742 H 0.60753 0.24993 0.60938 0.0
C743 C 0.59636 0.19509 0.68307 0.0
C744 C 0.77013 0.41499 0.89802 0.0
C745 C 0.75897 0.40946 0.86411 0.0
H746 H 0.80455 0.45441 0.9343 0.0
C747 C 0.76767 0.44396 0.84172 0.0
H748 H 0.76388 0.38913 0.91598 0.0
C749 C 0.79035 0.48164 0.85252 0.0
C750 C 0.80485 0.48503 0.8857 0.0
H751 H 0.75936 0.44072 0.81551 0.0
H752 H 0.79924 0.50666 0.83449 0.0
C753 C 0.7934 0.45226 0.90862 0.0
C754 C 0.52942 0.79709 0.84033 0.0
C755 C 0.51445 0.81753 0.86975 0.0
H756 H 0.5837 0.76503 0.81571 0.0
C757 C 0.5397 0.81395 0.89899 0.0
H758 H 0.51054 0.79994 0.81743 0.0
C759 C 0.58136 0.79418 0.89809 0.0
C760 C 0.5987 0.77807 0.86782 0.0
H761 H 0.52871 0.82966 0.9219 0.0
H762 H 0.6013 0.79464 0.92059 0.0
C763 C 0.57136 0.77735 0.83936 0.0
C764 C 0.21806 0.54118 0.8389 0.0
C765 C 0.20668 0.52765 0.87124 0.0
H766 H 0.24271 0.59356 0.80831 0.0
C767 C 0.21872 0.55449 0.89849 0.0
H768 H 0.20857 0.52139 0.81746 0.0
C769 C 0.23833 0.59575 0.89336 0.0
C770 C 0.24563 0.61136 0.8608 0.0
H771 H 0.2099 0.54493 0.92365 0.0
H772 H 0.24449 0.61672 0.91484 0.0
C773 C 0.23724 0.58274 0.8337 0.0
C774 C 0.44314 0.22615 0.89102 0.0
C775 C 0.46823 0.21979 0.86189 0.0
H776 H 0.38027 0.24356 0.91178 0.0
C777 C 0.45081 0.23355 0.83118 0.0
H778 H 0.45577 0.2152 0.91492 0.0
C779 C 0.4072 0.24906 0.82918 0.0
C780 C 0.38046 0.25115 0.85792 0.0
H781 H 0.4693 0.22826 0.80833 0.0
H782 H 0.39352 0.25629 0.80481 0.0
C783 C 0.39973 0.242 0.8891 0.0
C784 C 0.30291 0.41128 0.37159 0.0
C785 C 0.26465 0.38514 0.36933 0.0
H786 H 0.32962 0.47686 0.37413 0.0
C787 C 0.22303 0.40594 0.36926 0.0
H788 H 0.33539 0.39611 0.37165 0.0
C789 C 0.21962 0.4519 0.37083 0.0
C790 C 0.25779 0.47834 0.37228 0.0
H791 H 0.1929 0.38665 0.36761 0.0
H792 H 0.18697 0.46669 0.37028 0.0
C793 C 0.29952 0.45749 0.37296 0.0
C794 C 0.54734 0.21297 0.36344 0.0
C795 C 0.52698 0.25457 0.36065 0.0
H796 H 0.60795 0.17652 0.367 0.0
C797 C 0.55419 0.29239 0.36066 0.0
H798 H 0.52766 0.18308 0.36359 0.0
C799 C 0.60053 0.28856 0.36277 0.0
C800 C 0.62068 0.24684 0.36484 0.0
H801 H 0.53974 0.32499 0.35861 0.0
H802 H 0.62059 0.31818 0.36215 0.0
C803 C 0.59349 0.20918 0.36544 0.0
C804 C 0.72237 0.53404 0.3936 0.0
C805 C 0.73901 0.56018 0.36767 0.0
H806 H 0.71363 0.46862 0.41255 0.0
C807 C 0.7594 0.53985 0.34014 0.0
H808 H 0.70657 0.5491 0.41509 0.0
C809 C 0.76431 0.49407 0.33901 0.0
C810 C 0.74804 0.46784 0.36505 0.0
H811 H 0.77268 0.55941 0.31991 0.0
H812 H 0.78087 0.47924 0.31775 0.0
C813 C 0.7264 0.48812 0.39212 0.0
C814 C 0.48383 0.75636 0.36408 0.0
C815 C 0.49794 0.75642 0.39758 0.0
H816 H 0.42882 0.75214 0.33023 0.0
C817 C 0.46651 0.74975 0.42288 0.0
H818 H 0.5073 0.76115 0.34399 0.0
C819 C 0.42172 0.74492 0.41497 0.0
C820 C 0.40752 0.74608 0.38161 0.0
H821 H 0.47627 0.74955 0.44891 0.0
H822 H 0.39806 0.74117 0.43508 0.0
C823 C 0.43899 0.75096 0.35615 0.0
C824 C 0.30877 0.58784 0.1152 0.0
C825 C 0.27069 0.61444 0.11591 0.0
H826 H 0.33499 0.52195 0.11401 0.0
C827 C 0.22893 0.59398 0.11461 0.0
H828 H 0.34136 0.60269 0.11625 0.0
C829 C 0.22518 0.54798 0.1132 0.0
C830 C 0.26312 0.5211 0.11327 0.0
H831 H 0.19891 0.61356 0.11509 0.0
H832 H 0.19239 0.53352 0.11267 0.0
C833 C 0.30503 0.54161 0.11399 0.0
C834 C 0.48304 0.24469 0.12435 0.0
C835 C 0.49861 0.24669 0.0913 0.0
H836 H 0.42655 0.24619 0.15676 0.0
C837 C 0.46825 0.25419 0.06536 0.0
H838 H 0.50569 0.23925 0.14491 0.0
C839 C 0.42305 0.25783 0.07216 0.0
C840 C 0.40745 0.25463 0.10506 0.0
H841 H 0.4792 0.25598 0.03965 0.0
H842 H 0.40022 0.26226 0.05157 0.0
C843 C 0.43783 0.24891 0.13119 0.0
C844 C 0.77149 0.51313 0.15066 0.0
C845 C 0.75621 0.53974 0.12444 0.0
H846 H 0.77913 0.44756 0.16954 0.0
C847 C 0.73593 0.51965 0.09665 0.0
H848 H 0.78705 0.52769 0.17246 0.0
C849 C 0.73198 0.47371 0.09479 0.0
C850 C 0.74745 0.44723 0.12097 0.0
H851 H 0.72395 0.53934 0.07603 0.0
H852 H 0.717 0.45891 0.07285 0.0
C853 C 0.76677 0.46732 0.14907 0.0
C854 C 0.56173 0.81688 0.10384 0.0
C855 C 0.53504 0.78217 0.11551 0.0
H856 H 0.62728 0.84235 0.0973 0.0
C857 C 0.55606 0.74434 0.12838 0.0
H858 H 0.5469 0.84663 0.09393 0.0
C859 C 0.60263 0.74159 0.12975 0.0
C860 C 0.62902 0.77697 0.11889 0.0
H861 H 0.53655 0.71699 0.13754 0.0
H862 H 0.61791 0.7124 0.14018 0.0
C863 C 0.60795 0.81446 0.10579 0.0
C864 C 0.32187 0.31515 0.2481 0.0
C865 C 0.31226 0.27173 0.2578 0.0
H866 H 0.31066 0.36576 0.21159 0.0
C867 C 0.28855 0.24408 0.23607 0.0
H868 H 0.33969 0.33716 0.26473 0.0
C869 C 0.27251 0.26009 0.20594 0.0
C870 C 0.27949 0.30419 0.197 0.0
H871 H 0.28068 0.21047 0.24306 0.0
H872 H 0.2522 0.23857 0.19063 0.0
C873 C 0.30509 0.3315 0.21792 0.0
C874 C 0.74301 0.22055 0.23883 0.0
C875 C 0.74434 0.26268 0.25368 0.0
H876 H 0.72521 0.18224 0.19561 0.0
C877 C 0.73102 0.29941 0.23487 0.0
H878 H 0.75294 0.1916 0.2527 0.0
C879 C 0.71578 0.29406 0.20217 0.0
C880 C 0.71336 0.25189 0.18767 0.0
H881 H 0.73174 0.33233 0.24553 0.0
H882 H 0.70451 0.32282 0.18864 0.0
C883 C 0.7272 0.21516 0.20619 0.0
C884 C 0.72666 0.79381 0.28611 0.0
C885 C 0.71059 0.75731 0.3038 0.0
H886 H 0.75598 0.81715 0.24082 0.0
C887 C 0.71204 0.71538 0.28883 0.0
H888 H 0.72543 0.82658 0.29702 0.0
C889 C 0.72889 0.70997 0.2566 0.0
C890 C 0.74485 0.74642 0.23869 0.0
H891 H 0.69898 0.68685 0.30167 0.0
H892 H 0.72897 0.67722 0.24563 0.0
C893 C 0.74407 0.78836 0.25395 0.0
C894 C 0.27345 0.73732 0.27913 0.0
C895 C 0.27954 0.69289 0.28745 0.0
H896 H 0.28386 0.78798 0.24321 0.0
C897 C 0.30549 0.66577 0.26668 0.0
H898 H 0.25278 0.75865 0.29431 0.0
C899 C 0.32378 0.68282 0.23727 0.0
C900 C 0.31531 0.72675 0.22822 0.0
H901 H 0.31033 0.63125 0.27257 0.0
H902 H 0.34197 0.66107 0.22068 0.0
C903 C 0.291 0.75404 0.24978 0.0
C904 C 0.82527 0.79 0.74595 0.0
C905 C 0.78058 0.79634 0.73722 0.0
H906 H 0.87178 0.77348 0.78416 0.0
C907 C 0.74834 0.79427 0.76244 0.0
H908 H 0.85111 0.79176 0.72727 0.0
C909 C 0.76036 0.78343 0.79519 0.0
C910 C 0.80474 0.77494 0.80351 0.0
H911 H 0.71364 0.799 0.75662 0.0
H912 H 0.73475 0.78015 0.81373 0.0
C913 C 0.8372 0.7796 0.77869 0.0
C914 C 0.19716 0.81766 0.76001 0.0
C915 C 0.23502 0.80021 0.77548 0.0
H916 H 0.15842 0.82077 0.71504 0.0
C917 C 0.26437 0.77413 0.75674 0.0
H918 H 0.17396 0.83769 0.77408 0.0
C919 C 0.25584 0.76485 0.72337 0.0
C920 C 0.21737 0.78089 0.70796 0.0
H921 H 0.29398 0.76047 0.76797 0.0
H922 H 0.27913 0.74426 0.70986 0.0
C923 C 0.18815 0.80769 0.72644 0.0
C924 C 0.23773 0.26525 0.7616 0.0
C925 C 0.20329 0.24195 0.77696 0.0
H926 H 0.27835 0.27298 0.71874 0.0
C927 C 0.18219 0.20763 0.75938 0.0
H928 H 0.25446 0.29204 0.77444 0.0
C929 C 0.19636 0.1962 0.72709 0.0
C930 C 0.23127 0.21946 0.71202 0.0
H931 H 0.15572 0.189 0.77087 0.0
H932 H 0.18002 0.16944 0.71396 0.0
C933 C 0.25143 0.25428 0.72957 0.0
C934 C 0.77523 0.2001 0.73496 0.0
C935 C 0.7617 0.23497 0.7559 0.0
H936 H 0.80591 0.18149 0.68872 0.0
C937 C 0.76653 0.27862 0.7446 0.0
H938 H 0.77223 0.16614 0.74297 0.0
C939 C 0.78579 0.28721 0.71358 0.0
C940 C 0.79959 0.25234 0.69295 0.0
H941 H 0.75669 0.30629 0.76011 0.0
H942 H 0.79027 0.32112 0.70581 0.0
C943 C 0.79394 0.20877 0.70373 0.0
C944 C 0.03762 0.51628 0.11593 0.0
C945 C 0.02287 0.48811 0.14138 0.0
H946 H 0.03606 0.58166 0.09552 0.0
C947 C 0.99569 0.50552 0.16675 0.0
H948 H 0.05822 0.50381 0.09587 0.0
C949 C 0.98234 0.54954 0.16614 0.0
C950 C 0.9963 0.57748 0.14041 0.0
H951 H 0.98451 0.48499 0.18714 0.0
H952 H 0.96163 0.56193 0.18619 0.0
C953 C 0.02458 0.56065 0.11553 0.0
C954 C 0.48058 0.99972 0.08198 0.0
C955 C 0.47309 0.97339 0.11019 0.0
H956 H 0.5278 0.03642 0.05344 0.0
C957 C 0.50838 0.96419 0.13178 0.0
H958 H 0.45368 0.00738 0.06506 0.0
C959 C 0.5502 0.9817 0.12579 0.0
C960 C 0.55815 0.00812 0.09759 0.0
H961 H 0.50322 0.94491 0.15415 0.0
H962 H 0.57597 0.97541 0.14396 0.0
C963 C 0.52285 0.01665 0.07557 0.0
C964 C 0.03494 0.488 0.37296 0.0
C965 C 0.01879 0.51565 0.34762 0.0
H966 H 0.0344 0.42308 0.39424 0.0
C967 C 0.99016 0.49782 0.32334 0.0
H968 H 0.05672 0.50083 0.39219 0.0
C969 C 0.97678 0.4539 0.32494 0.0
C970 C 0.99212 0.42649 0.35059 0.0
H971 H 0.97791 0.51792 0.30304 0.0
H972 H 0.95492 0.44116 0.30572 0.0
C973 C 0.02185 0.44371 0.37435 0.0
C974 C 0.54011 0.02448 0.36427 0.0
C975 C 0.5479 0.99759 0.39227 0.0
H976 H 0.49292 0.06038 0.3353 0.0
C977 C 0.51211 0.98757 0.41342 0.0
H978 H 0.56629 0.03196 0.34674 0.0
C979 C 0.46955 1.00324 0.40623 0.0
C980 C 0.4622 0.02989 0.37817 0.0
H981 H 0.51686 0.96749 0.43541 0.0
H982 H 0.44228 0.99423 0.42238 0.0
C983 C 0.49795 0.0408 0.35756 0.0
C984 C 0.03652 0.53321 0.8803 0.0
C985 C 0.05007 0.49275 0.89415 0.0
H986 H 0.98376 0.57911 0.8726 0.0
C987 C 0.01957 0.46858 0.91316 0.0
H988 H 0.05883 0.55233 0.86493 0.0
C989 C 0.9763 0.48415 0.91763 0.0
C990 C 0.96253 0.52411 0.90304 0.0
H991 H 0.02908 0.43757 0.92444 0.0
H992 H 0.95338 0.46457 0.93213 0.0
C993 C 0.9934 0.54874 0.88477 0.0
C994 C 0.47413 0.05022 0.84535 0.0
C995 C 0.50953 0.06351 0.86585 0.0
H996 H 0.43146 0.99789 0.82974 0.0
C997 C 0.52808 0.03311 0.88808 0.0
H998 H 0.45941 0.07313 0.82786 0.0
C999 C 0.51121 0.99011 0.8899 0.0
C1000 C 0.47603 0.97646 0.86902 0.0
H1001 H 0.555 0.04283 0.90442 0.0
H1002 H 0.52578 0.96761 0.90772 0.0
C1003 C 0.45774 0.00722 0.84676 0.0
C1004 C 0.05826 0.48248 0.61437 0.0
C1005 C 0.0697 0.52425 0.60158 0.0
H1006 H 1.00644 0.43655 0.62537 0.0
C1007 C 0.03617 0.55055 0.58759 0.0
H1008 H 0.08279 0.46159 0.62609 0.0
C1009 C 0.99216 0.53628 0.5878 0.0
C1010 C 0.98085 0.49524 0.60163 0.0
H1011 H 0.04375 0.58252 0.57707 0.0
H1012 H 0.96673 0.55779 0.57788 0.0
C1013 C 0.01441 0.46801 0.61411 0.0
C1014 C 0.46523 0.96561 0.6252 0.0
C1015 C 0.50549 0.9554 0.60932 0.0
H1016 H 0.42112 0.01611 0.64215 0.0
C1017 C 0.53008 0.98949 0.5948 0.0
H1018 H 0.44578 0.93993 0.63688 0.0
C1019 C 0.51541 0.03318 0.5971 0.0
C1020 C 0.47639 0.04386 0.61473 0.0
H1021 H 0.56094 0.98238 0.58208 0.0
H1022 H 0.53538 0.05877 0.58584 0.0
C1023 C 0.45093 0.00933 0.62802 0.0
loop_
_geom_bond_atom_site_label_1
_geom_bond_atom_site_label_2
_geom_bond_distance
_geom_bond_site_symmetry_2
_ccdc_geom_bond_type
O0 Tb1 2.292 . S
O0 C3 1.255 . S
Tb1 O0 2.292 . S
Tb1 O17 2.326 . S
Tb1 O19 2.500 . S
Tb1 O20 2.473 . S
Tb1 O23 2.324 . S
Eu2 O6 2.292 . S
Eu2 C7 2.852 . S
Eu2 O18 2.324 . S
Eu2 O22 2.326 . S
Eu2 O24 2.500 . S
Eu2 O25 2.473 . S
C3 O0 1.255 . S
C3 O4 1.247 . S
O4 C3 1.247 . S
C5 O17 1.242 . S
C5 O18 1.258 . S
O6 Eu2 2.292 . S
O6 C8 1.255 . S
C7 Eu2 2.852 . S
C7 C11 1.503 . S
C7 O24 1.273 . S
C7 O25 1.257 . S
C8 O6 1.255 . S
C8 O9 1.247 . S
O9 C8 1.247 . S
C10 O22 1.242 . S
C10 O23 1.258 . S
C11 C7 1.503 . S
C11 C12 1.379 . S
C11 C16 1.392 . S
C12 C11 1.379 . S
C12 C13 1.404 . S
C12 H26 0.929 . S
C13 C12 1.404 . S
C13 C14 1.389 1_455 S
C14 C13 1.389 1_655 S
C14 C15 1.399 1_655 S
C14 H27 0.931 . S
C15 C14 1.399 1_455 S
C15 C16 1.390 . S
C16 C11 1.392 . S
C16 C15 1.390 . S
C16 H28 0.929 . S
O17 Tb1 2.326 . S
O17 C5 1.242 . S
O18 Eu2 2.324 . S
O18 C5 1.258 . S
O19 Tb1 2.500 . S
O19 C21 1.273 . S
O20 Tb1 2.473 . S
O20 C21 1.257 . S
C21 O19 1.273 . S
C21 O20 1.257 . S
O22 Eu2 2.326 . S
O22 C10 1.242 . S
O23 Tb1 2.324 . S
O23 C10 1.258 . S
O24 Eu2 2.500 . S
O24 C7 1.273 . S
O25 Eu2 2.473 . S
O25 C7 1.257 . S
H26 C12 0.929 . S
H27 C14 0.931 . S
H28 C16 0.929 . S
O29 Tb30 2.292 . S
O29 C32 1.255 . S
Tb30 O29 2.292 . S
Tb30 O46 2.326 . S
Tb30 O48 2.500 . S
Tb30 O49 2.473 . S
Tb30 O52 2.324 . S
Eu31 O35 2.292 . S
Eu31 C36 2.852 . S
Eu31 O47 2.324 . S
Eu31 O51 2.326 . S
Eu31 O53 2.500 . S
Eu31 O54 2.473 . S
C32 O29 1.255 . S
C32 O33 1.247 . S
O33 C32 1.247 . S
C34 O46 1.242 . S
C34 O47 1.258 . S
O35 Eu31 2.292 . S
O35 C37 1.255 . S
C36 Eu31 2.852 . S
C36 C40 1.503 . S
C36 O53 1.273 . S
C36 O54 1.257 . S
C37 O35 1.255 . S
C37 O38 1.247 . S
O38 C37 1.247 . S
C39 O51 1.242 . S
C39 O52 1.258 . S
C40 C36 1.503 . S
C40 C41 1.379 . S
C40 C45 1.392 . S
C41 C40 1.379 . S
C41 C42 1.404 . S
C41 H55 0.929 . S
C42 C41 1.404 . S
C42 C43 1.389 1_545 S
C43 C42 1.389 1_565 S
C43 C44 1.399 1_565 S
C43 H56 0.931 . S
C44 C43 1.399 1_545 S
C44 C45 1.390 . S
C45 C40 1.392 . S
C45 C44 1.390 . S
C45 H57 0.929 . S
O46 Tb30 2.326 . S
O46 C34 1.242 . S
O47 Eu31 2.324 . S
O47 C34 1.258 . S
O48 Tb30 2.500 . S
O48 C50 1.273 . S
O49 Tb30 2.473 . S
O49 C50 1.257 . S
C50 O48 1.273 . S
C50 O49 1.257 . S
O51 Eu31 2.326 . S
O51 C39 1.242 . S
O52 Tb30 2.324 . S
O52 C39 1.258 . S
O53 Eu31 2.500 . S
O53 C36 1.273 . S
O54 Eu31 2.473 . S
O54 C36 1.257 . S
H55 C41 0.929 . S
H56 C43 0.931 . S
H57 C45 0.929 . S
O58 Tb59 2.292 . S
O58 C61 1.255 . S
Tb59 O58 2.292 . S
Tb59 O75 2.326 . S
Tb59 O77 2.500 . S
Tb59 O78 2.473 . S
Tb59 O81 2.324 . S
Eu60 O64 2.292 . S
Eu60 C65 2.852 . S
Eu60 O76 2.324 . S
Eu60 O80 2.326 . S
Eu60 O82 2.500 . S
Eu60 O83 2.473 . S
C61 O58 1.255 . S
C61 O62 1.247 . S
O62 C61 1.247 . S
C63 O75 1.242 . S
C63 O76 1.258 . S
O64 Eu60 2.292 . S
O64 C66 1.255 . S
C65 Eu60 2.852 . S
C65 C69 1.503 . S
C65 O82 1.273 . S
C65 O83 1.257 . S
C66 O64 1.255 . S
C66 O67 1.247 . S
O67 C66 1.247 . S
C68 O80 1.242 . S
C68 O81 1.258 . S
C69 C65 1.503 . S
C69 C70 1.379 . S
C69 C74 1.392 . S
C70 C69 1.379 . S
C70 C71 1.404 . S
C70 H84 0.929 . S
C71 C70 1.404 . S
C71 C72 1.389 1_655 S
C72 C71 1.389 1_455 S
C72 C73 1.399 1_455 S
C72 H85 0.931 . S
C73 C72 1.399 1_655 S
C73 C74 1.390 . S
C74 C69 1.392 . S
C74 C73 1.390 . S
C74 H86 0.929 . S
O75 Tb59 2.326 . S
O75 C63 1.242 . S
O76 Eu60 2.324 . S
O76 C63 1.258 . S
O77 Tb59 2.500 . S
O77 C79 1.273 . S
O78 Tb59 2.473 . S
O78 C79 1.257 . S
C79 O77 1.273 . S
C79 O78 1.257 . S
O80 Eu60 2.326 . S
O80 C68 1.242 . S
O81 Tb59 2.324 . S
O81 C68 1.258 . S
O82 Eu60 2.500 . S
O82 C65 1.273 . S
O83 Eu60 2.473 . S
O83 C65 1.257 . S
H84 C70 0.929 . S
H85 C72 0.931 . S
H86 C74 0.929 . S
O87 Tb88 2.292 . S
O87 C90 1.255 . S
Tb88 O87 2.292 . S
Tb88 O104 2.326 . S
Tb88 O106 2.500 . S
Tb88 O107 2.473 . S
Tb88 O110 2.324 . S
Eu89 O93 2.292 . S
Eu89 C94 2.852 . S
Eu89 O105 2.324 . S
Eu89 O109 2.326 . S
Eu89 O111 2.500 . S
Eu89 O112 2.473 . S
C90 O87 1.255 . S
C90 O91 1.247 . S
O91 C90 1.247 . S
C92 O104 1.242 . S
C92 O105 1.258 . S
O93 Eu89 2.292 . S
O93 C95 1.255 . S
C94 Eu89 2.852 . S
C94 C98 1.503 . S
C94 O111 1.273 . S
C94 O112 1.257 . S
C95 O93 1.255 . S
C95 O96 1.247 . S
O96 C95 1.247 . S
C97 O109 1.242 . S
C97 O110 1.258 . S
C98 C94 1.503 . S
C98 C99 1.379 . S
C98 C103 1.392 . S
C99 C98 1.379 . S
C99 C100 1.404 . S
C99 H113 0.929 . S
C100 C99 1.404 . S
C100 C101 1.389 1_565 S
C101 C100 1.389 1_545 S
C101 C102 1.399 1_545 S
C101 H114 0.931 . S
C102 C101 1.399 1_565 S
C102 C103 1.390 . S
C103 C98 1.392 . S
C103 C102 1.390 . S
C103 H115 0.929 . S
O104 Tb88 2.326 . S
O104 C92 1.242 . S
O105 Eu89 2.324 . S
O105 C92 1.258 . S
O106 Tb88 2.500 . S
O106 C108 1.273 . S
O107 Tb88 2.473 . S
O107 C108 1.257 . S
C108 O106 1.273 . S
C108 O107 1.257 . S
O109 Eu89 2.326 . S
O109 C97 1.242 . S
O110 Tb88 2.324 . S
O110 C97 1.258 . S
O111 Eu89 2.500 . S
O111 C94 1.273 . S
O112 Eu89 2.473 . S
O112 C94 1.257 . S
H113 C99 0.929 . S
H114 C101 0.931 . S
H115 C103 0.929 . S
O116 Tb117 2.292 . S
O116 C119 1.255 . S
Tb117 O116 2.292 . S
Tb117 O133 2.326 . S
Tb117 O135 2.500 . S
Tb117 O136 2.473 . S
Tb117 O139 2.324 . S
Eu118 O122 2.292 . S
Eu118 C123 2.852 . S
Eu118 O134 2.324 . S
Eu118 O138 2.326 . S
Eu118 O140 2.500 . S
Eu118 O141 2.473 . S
C119 O116 1.255 . S
C119 O120 1.247 . S
O120 C119 1.247 . S
C121 O133 1.242 . S
C121 O134 1.258 . S
O122 Eu118 2.292 . S
O122 C124 1.255 . S
C123 Eu118 2.852 . S
C123 C127 1.503 . S
C123 O140 1.273 . S
C123 O141 1.257 . S
C124 O122 1.255 . S
C124 O125 1.247 . S
O125 C124 1.247 . S
C126 O138 1.242 . S
C126 O139 1.258 . S
C127 C123 1.503 . S
C127 C128 1.379 . S
C127 C132 1.392 . S
C128 C127 1.379 . S
C128 C129 1.404 . S
C128 H142 0.929 . S
C129 C128 1.404 . S
C129 C130 1.389 1_455 S
C130 C129 1.389 1_655 S
C130 C131 1.399 1_655 S
C130 H143 0.931 . S
C131 C130 1.399 1_455 S
C131 C132 1.390 . S
C132 C127 1.392 . S
C132 C131 1.390 . S
C132 H144 0.929 . S
O133 Tb117 2.326 . S
O133 C121 1.242 . S
O134 Eu118 2.324 . S
O134 C121 1.258 . S
O135 Tb117 2.500 . S
O135 C137 1.273 . S
O136 Tb117 2.473 . S
O136 C137 1.257 . S
C137 O135 1.273 . S
C137 O136 1.257 . S
O138 Eu118 2.326 . S
O138 C126 1.242 . S
O139 Tb117 2.324 . S
O139 C126 1.258 . S
O140 Eu118 2.500 . S
O140 C123 1.273 . S
O141 Eu118 2.473 . S
O141 C123 1.257 . S
H142 C128 0.929 . S
H143 C130 0.931 . S
H144 C132 0.929 . S
O145 Tb146 2.292 . S
O145 C148 1.255 . S
Tb146 O145 2.292 . S
Tb146 O162 2.326 . S
Tb146 O164 2.500 . S
Tb146 O165 2.473 . S
Tb146 O168 2.324 . S
Eu147 O151 2.292 . S
Eu147 C152 2.852 . S
Eu147 O163 2.324 . S
Eu147 O167 2.326 . S
Eu147 O169 2.500 . S
Eu147 O170 2.473 . S
C148 O145 1.255 . S
C148 O149 1.247 . S
O149 C148 1.247 . S
C150 O162 1.242 . S
C150 O163 1.258 . S
O151 Eu147 2.292 . S
O151 C153 1.255 . S
C152 Eu147 2.852 . S
C152 C156 1.503 . S
C152 O169 1.273 . S
C152 O170 1.257 . S
C153 O151 1.255 . S
C153 O154 1.247 . S
O154 C153 1.247 . S
C155 O167 1.242 . S
C155 O168 1.258 . S
C156 C152 1.503 . S
C156 C157 1.379 . S
C156 C161 1.392 . S
C157 C156 1.379 . S
C157 C158 1.404 . S
C157 H171 0.929 . S
C158 C157 1.404 . S
C158 C159 1.389 1_545 S
C159 C158 1.389 1_565 S
C159 C160 1.399 1_565 S
C159 H172 0.931 . S
C160 C159 1.399 1_545 S
C160 C161 1.390 . S
C161 C156 1.392 . S
C161 C160 1.390 . S
C161 H173 0.929 . S
O162 Tb146 2.326 . S
O162 C150 1.242 . S
O163 Eu147 2.324 . S
O163 C150 1.258 . S
O164 Tb146 2.500 . S
O164 C166 1.273 . S
O165 Tb146 2.473 . S
O165 C166 1.257 . S
C166 O164 1.273 . S
C166 O165 1.257 . S
O167 Eu147 2.326 . S
O167 C155 1.242 . S
O168 Tb146 2.324 . S
O168 C155 1.258 . S
O169 Eu147 2.500 . S
O169 C152 1.273 . S
O170 Eu147 2.473 . S
O170 C152 1.257 . S
H171 C157 0.929 . S
H172 C159 0.931 . S
H173 C161 0.929 . S
O174 Tb175 2.292 . S
O174 C177 1.255 . S
Tb175 O174 2.292 . S
Tb175 O191 2.326 . S
Tb175 O193 2.500 . S
Tb175 O194 2.473 . S
Tb175 O197 2.324 . S
Eu176 O180 2.292 . S
Eu176 C181 2.852 . S
Eu176 O192 2.324 . S
Eu176 O196 2.326 . S
Eu176 O198 2.500 . S
Eu176 O199 2.473 . S
C177 O174 1.255 . S
C177 O178 1.247 . S
O178 C177 1.247 . S
C179 O191 1.242 . S
C179 O192 1.258 . S
O180 Eu176 2.292 . S
O180 C182 1.255 . S
C181 Eu176 2.852 . S
C181 C185 1.503 . S
C181 O198 1.273 . S
C181 O199 1.257 . S
C182 O180 1.255 . S
C182 O183 1.247 . S
O183 C182 1.247 . S
C184 O196 1.242 . S
C184 O197 1.258 . S
C185 C181 1.503 . S
C185 C186 1.379 . S
C185 C190 1.392 . S
C186 C185 1.379 . S
C186 C187 1.404 . S
C186 H200 0.929 . S
C187 C186 1.404 . S
C187 C188 1.389 1_655 S
C188 C187 1.389 1_455 S
C188 C189 1.399 1_455 S
C188 H201 0.931 . S
C189 C188 1.399 1_655 S
C189 C190 1.390 . S
C190 C185 1.392 . S
C190 C189 1.390 . S
C190 H202 0.929 . S
O191 Tb175 2.326 . S
O191 C179 1.242 . S
O192 Eu176 2.324 . S
O192 C179 1.258 . S
O193 Tb175 2.500 . S
O193 C195 1.273 . S
O194 Tb175 2.473 . S
O194 C195 1.257 . S
C195 O193 1.273 . S
C195 O194 1.257 . S
O196 Eu176 2.326 . S
O196 C184 1.242 . S
O197 Tb175 2.324 . S
O197 C184 1.258 . S
O198 Eu176 2.500 . S
O198 C181 1.273 . S
O199 Eu176 2.473 . S
O199 C181 1.257 . S
H200 C186 0.929 . S
H201 C188 0.931 . S
H202 C190 0.929 . S
O203 Tb204 2.292 . S
O203 C206 1.255 . S
Tb204 O203 2.292 . S
Tb204 O220 2.326 . S
Tb204 O222 2.500 . S
Tb204 O223 2.473 . S
Tb204 O226 2.324 . S
Eu205 O209 2.292 . S
Eu205 C210 2.852 . S
Eu205 O221 2.324 . S
Eu205 O225 2.326 . S
Eu205 O227 2.500 . S
Eu205 O228 2.473 . S
C206 O203 1.255 . S
C206 O207 1.247 . S
O207 C206 1.247 . S
C208 O220 1.242 . S
C208 O221 1.258 . S
O209 Eu205 2.292 . S
O209 C211 1.255 . S
C210 Eu205 2.852 . S
C210 C214 1.503 . S
C210 O227 1.273 . S
C210 O228 1.257 . S
C211 O209 1.255 . S
C211 O212 1.247 . S
O212 C211 1.247 . S
C213 O225 1.242 . S
C213 O226 1.258 . S
C214 C210 1.503 . S
C214 C215 1.379 . S
C214 C219 1.392 . S
C215 C214 1.379 . S
C215 C216 1.404 . S
C215 H229 0.929 . S
C216 C215 1.404 . S
C216 C217 1.389 1_565 S
C217 C216 1.389 1_545 S
C217 C218 1.399 1_545 S
C217 H230 0.931 . S
C218 C217 1.399 1_565 S
C218 C219 1.390 . S
C219 C214 1.392 . S
C219 C218 1.390 . S
C219 H231 0.929 . S
O220 Tb204 2.326 . S
O220 C208 1.242 . S
O221 Eu205 2.324 . S
O221 C208 1.258 . S
O222 Tb204 2.500 . S
O222 C224 1.273 . S
O223 Tb204 2.473 . S
O223 C224 1.257 . S
C224 O222 1.273 . S
C224 O223 1.257 . S
O225 Eu205 2.326 . S
O225 C213 1.242 . S
O226 Tb204 2.324 . S
O226 C213 1.258 . S
O227 Eu205 2.500 . S
O227 C210 1.273 . S
O228 Eu205 2.473 . S
O228 C210 1.257 . S
H229 C215 0.929 . S
H230 C217 0.931 . S
H231 C219 0.929 . S
O232 Tb233 2.292 . S
O232 C235 1.255 . S
Tb233 O232 2.292 . S
Tb233 O249 2.326 . S
Tb233 O251 2.500 . S
Tb233 O252 2.473 . S
Tb233 O255 2.324 . S
Eu234 O238 2.292 . S
Eu234 C239 2.852 . S
Eu234 O250 2.324 . S
Eu234 O254 2.326 . S
Eu234 O256 2.500 . S
Eu234 O257 2.473 . S
C235 O232 1.255 . S
C235 O236 1.247 . S
O236 C235 1.247 . S
C237 O249 1.242 . S
C237 O250 1.258 . S
O238 Eu234 2.292 . S
O238 C240 1.255 . S
C239 Eu234 2.852 . S
C239 C243 1.503 . S
C239 O256 1.273 . S
C239 O257 1.257 . S
C240 O238 1.255 . S
C240 O241 1.247 . S
O241 C240 1.247 . S
C242 O254 1.242 . S
C242 O255 1.258 . S
C243 C239 1.503 . S
C243 C244 1.379 . S
C243 C248 1.392 . S
C244 C243 1.379 . S
C244 C245 1.404 . S
C244 H258 0.929 . S
C245 C244 1.404 . S
C245 C246 1.389 . S
C246 C245 1.389 . S
C246 C247 1.399 . S
C246 H259 0.931 . S
C247 C246 1.399 . S
C247 C248 1.390 . S
C248 C243 1.392 . S
C248 C247 1.390 . S
C248 H260 0.929 . S
O249 Tb233 2.326 . S
O249 C237 1.242 . S
O250 Eu234 2.324 . S
O250 C237 1.258 . S
O251 Tb233 2.500 . S
O251 C253 1.273 . S
O252 Tb233 2.473 . S
O252 C253 1.257 . S
C253 O251 1.273 . S
C253 O252 1.257 . S
O254 Eu234 2.326 . S
O254 C242 1.242 . S
O255 Tb233 2.324 . S
O255 C242 1.258 . S
O256 Eu234 2.500 . S
O256 C239 1.273 . S
O257 Eu234 2.473 . S
O257 C239 1.257 . S
H258 C244 0.929 . S
H259 C246 0.931 . S
H260 C248 0.929 . S
O261 Tb262 2.292 . S
O261 C264 1.255 . S
Tb262 O261 2.292 . S
Tb262 O278 2.326 . S
Tb262 O280 2.500 . S
Tb262 O281 2.473 . S
Tb262 O284 2.324 . S
Eu263 O267 2.292 . S
Eu263 C268 2.852 . S
Eu263 O279 2.324 . S
Eu263 O283 2.326 . S
Eu263 O285 2.500 . S
Eu263 O286 2.473 . S
C264 O261 1.255 . S
C264 O265 1.247 . S
O265 C264 1.247 . S
C266 O278 1.242 . S
C266 O279 1.258 . S
O267 Eu263 2.292 . S
O267 C269 1.255 . S
C268 Eu263 2.852 . S
C268 C272 1.503 . S
C268 O285 1.273 . S
C268 O286 1.257 . S
C269 O267 1.255 . S
C269 O270 1.247 . S
O270 C269 1.247 . S
C271 O283 1.242 . S
C271 O284 1.258 . S
C272 C268 1.503 . S
C272 C273 1.379 . S
C272 C277 1.392 . S
C273 C272 1.379 . S
C273 C274 1.404 . S
C273 H287 0.929 . S
C274 C273 1.404 . S
C274 C275 1.389 . S
C275 C274 1.389 . S
C275 C276 1.399 . S
C275 H288 0.931 . S
C276 C275 1.399 . S
C276 C277 1.390 . S
C277 C272 1.392 . S
C277 C276 1.390 . S
C277 H289 0.929 . S
O278 Tb262 2.326 . S
O278 C266 1.242 . S
O279 Eu263 2.324 . S
O279 C266 1.258 . S
O280 Tb262 2.500 . S
O280 C282 1.273 . S
O281 Tb262 2.473 . S
O281 C282 1.257 . S
C282 O280 1.273 . S
C282 O281 1.257 . S
O283 Eu263 2.326 . S
O283 C271 1.242 . S
O284 Tb262 2.324 . S
O284 C271 1.258 . S
O285 Eu263 2.500 . S
O285 C268 1.273 . S
O286 Eu263 2.473 . S
O286 C268 1.257 . S
H287 C273 0.929 . S
H288 C275 0.931 . S
H289 C277 0.929 . S
O290 Tb291 2.292 . S
O290 C293 1.255 . S
Tb291 O290 2.292 . S
Tb291 O307 2.326 . S
Tb291 O309 2.500 . S
Tb291 O310 2.473 . S
Tb291 O313 2.324 . S
Eu292 O296 2.292 . S
Eu292 C297 2.852 . S
Eu292 O308 2.324 . S
Eu292 O312 2.326 . S
Eu292 O314 2.500 . S
Eu292 O315 2.473 . S
C293 O290 1.255 . S
C293 O294 1.247 . S
O294 C293 1.247 . S
C295 O307 1.242 . S
C295 O308 1.258 . S
O296 Eu292 2.292 . S
O296 C298 1.255 . S
C297 Eu292 2.852 . S
C297 C301 1.503 . S
C297 O314 1.273 . S
C297 O315 1.257 . S
C298 O296 1.255 . S
C298 O299 1.247 . S
O299 C298 1.247 . S
C300 O312 1.242 . S
C300 O313 1.258 . S
C301 C297 1.503 . S
C301 C302 1.379 . S
C301 C306 1.392 . S
C302 C301 1.379 . S
C302 C303 1.404 . S
C302 H316 0.929 . S
C303 C302 1.404 . S
C303 C304 1.389 . S
C304 C303 1.389 . S
C304 C305 1.399 . S
C304 H317 0.931 . S
C305 C304 1.399 . S
C305 C306 1.390 . S
C306 C301 1.392 . S
C306 C305 1.390 . S
C306 H318 0.929 . S
O307 Tb291 2.326 . S
O307 C295 1.242 . S
O308 Eu292 2.324 . S
O308 C295 1.258 . S
O309 Tb291 2.500 . S
O309 C311 1.273 . S
O310 Tb291 2.473 . S
O310 C311 1.257 . S
C311 O309 1.273 . S
C311 O310 1.257 . S
O312 Eu292 2.326 . S
O312 C300 1.242 . S
O313 Tb291 2.324 . S
O313 C300 1.258 . S
O314 Eu292 2.500 . S
O314 C297 1.273 . S
O315 Eu292 2.473 . S
O315 C297 1.257 . S
H316 C302 0.929 . S
H317 C304 0.931 . S
H318 C306 0.929 . S
O319 Tb320 2.292 . S
O319 C322 1.255 . S
Tb320 O319 2.292 . S
Tb320 O336 2.326 . S
Tb320 O338 2.500 . S
Tb320 O339 2.473 . S
Tb320 O342 2.324 . S
Eu321 O325 2.292 . S
Eu321 C326 2.852 . S
Eu321 O337 2.324 . S
Eu321 O341 2.326 . S
Eu321 O343 2.500 . S
Eu321 O344 2.473 . S
C322 O319 1.255 . S
C322 O323 1.247 . S
O323 C322 1.247 . S
C324 O336 1.242 . S
C324 O337 1.258 . S
O325 Eu321 2.292 . S
O325 C327 1.255 . S
C326 Eu321 2.852 . S
C326 C330 1.503 . S
C326 O343 1.273 . S
C326 O344 1.257 . S
C327 O325 1.255 . S
C327 O328 1.247 . S
O328 C327 1.247 . S
C329 O341 1.242 . S
C329 O342 1.258 . S
C330 C326 1.503 . S
C330 C331 1.379 . S
C330 C335 1.392 . S
C331 C330 1.379 . S
C331 C332 1.404 . S
C331 H345 0.929 . S
C332 C331 1.404 . S
C332 C333 1.389 . S
C333 C332 1.389 . S
C333 C334 1.399 . S
C333 H346 0.931 . S
C334 C333 1.399 . S
C334 C335 1.390 . S
C335 C330 1.392 . S
C335 C334 1.390 . S
C335 H347 0.929 . S
O336 Tb320 2.326 . S
O336 C324 1.242 . S
O337 Eu321 2.324 . S
O337 C324 1.258 . S
O338 Tb320 2.500 . S
O338 C340 1.273 . S
O339 Tb320 2.473 . S
O339 C340 1.257 . S
C340 O338 1.273 . S
C340 O339 1.257 . S
O341 Eu321 2.326 . S
O341 C329 1.242 . S
O342 Tb320 2.324 . S
O342 C329 1.258 . S
O343 Eu321 2.500 . S
O343 C326 1.273 . S
O344 Eu321 2.473 . S
O344 C326 1.257 . S
H345 C331 0.929 . S
H346 C333 0.931 . S
H347 C335 0.929 . S
O348 Tb349 2.292 . S
O348 C351 1.255 . S
Tb349 O348 2.292 . S
Tb349 O365 2.326 . S
Tb349 O367 2.500 . S
Tb349 O368 2.473 . S
Tb349 O371 2.324 . S
Eu350 O354 2.292 . S
Eu350 C355 2.852 . S
Eu350 O366 2.324 . S
Eu350 O370 2.326 . S
Eu350 O372 2.500 . S
Eu350 O373 2.473 . S
C351 O348 1.255 . S
C351 O352 1.247 . S
O352 C351 1.247 . S
C353 O365 1.242 . S
C353 O366 1.258 . S
O354 Eu350 2.292 . S
O354 C356 1.255 . S
C355 Eu350 2.852 . S
C355 C359 1.503 . S
C355 O372 1.273 . S
C355 O373 1.257 . S
C356 O354 1.255 . S
C356 O357 1.247 . S
O357 C356 1.247 . S
C358 O370 1.242 . S
C358 O371 1.258 . S
C359 C355 1.503 . S
C359 C360 1.379 . S
C359 C364 1.392 . S
C360 C359 1.379 . S
C360 C361 1.404 . S
C360 H374 0.929 . S
C361 C360 1.404 . S
C361 C362 1.389 . S
C362 C361 1.389 . S
C362 C363 1.399 . S
C362 H375 0.931 . S
C363 C362 1.399 . S
C363 C364 1.390 . S
C364 C359 1.392 . S
C364 C363 1.390 . S
C364 H376 0.929 . S
O365 Tb349 2.326 . S
O365 C353 1.242 . S
O366 Eu350 2.324 . S
O366 C353 1.258 . S
O367 Tb349 2.500 . S
O367 C369 1.273 . S
O368 Tb349 2.473 . S
O368 C369 1.257 . S
C369 O367 1.273 . S
C369 O368 1.257 . S
O370 Eu350 2.326 . S
O370 C358 1.242 . S
O371 Tb349 2.324 . S
O371 C358 1.258 . S
O372 Eu350 2.500 . S
O372 C355 1.273 . S
O373 Eu350 2.473 . S
O373 C355 1.257 . S
H374 C360 0.929 . S
H375 C362 0.931 . S
H376 C364 0.929 . S
O377 Tb378 2.292 . S
O377 C380 1.255 . S
Tb378 O377 2.292 . S
Tb378 O394 2.326 . S
Tb378 O396 2.500 . S
Tb378 O397 2.473 . S
Tb378 O400 2.324 . S
Eu379 O383 2.292 . S
Eu379 C384 2.852 . S
Eu379 O395 2.324 . S
Eu379 O399 2.326 . S
Eu379 O401 2.500 . S
Eu379 O402 2.473 . S
C380 O377 1.255 . S
C380 O381 1.247 . S
O381 C380 1.247 . S
C382 O394 1.242 . S
C382 O395 1.258 . S
O383 Eu379 2.292 . S
O383 C385 1.255 . S
C384 Eu379 2.852 . S
C384 C388 1.503 . S
C384 O401 1.273 . S
C384 O402 1.257 . S
C385 O383 1.255 . S
C385 O386 1.247 . S
O386 C385 1.247 . S
C387 O399 1.242 . S
C387 O400 1.258 . S
C388 C384 1.503 . S
C388 C389 1.379 . S
C388 C393 1.392 . S
C389 C388 1.379 . S
C389 C390 1.404 . S
C389 H403 0.929 . S
C390 C389 1.404 . S
C390 C391 1.389 . S
C391 C390 1.389 . S
C391 C392 1.399 . S
C391 H404 0.931 . S
C392 C391 1.399 . S
C392 C393 1.390 . S
C393 C388 1.392 . S
C393 C392 1.390 . S
C393 H405 0.929 . S
O394 Tb378 2.326 . S
O394 C382 1.242 . S
O395 Eu379 2.324 . S
O395 C382 1.258 . S
O396 Tb378 2.500 . S
O396 C398 1.273 . S
O397 Tb378 2.473 . S
O397 C398 1.257 . S
C398 O396 1.273 . S
C398 O397 1.257 . S
O399 Eu379 2.326 . S
O399 C387 1.242 . S
O400 Tb378 2.324 . S
O400 C387 1.258 . S
O401 Eu379 2.500 . S
O401 C384 1.273 . S
O402 Eu379 2.473 . S
O402 C384 1.257 . S
H403 C389 0.929 . S
H404 C391 0.931 . S
H405 C393 0.929 . S
O406 Tb407 2.292 . S
O406 C409 1.255 . S
Tb407 O406 2.292 . S
Tb407 O423 2.326 . S
Tb407 O425 2.500 . S
Tb407 O426 2.473 . S
Tb407 O429 2.324 . S
Eu408 O412 2.292 . S
Eu408 C413 2.852 . S
Eu408 O424 2.324 . S
Eu408 O428 2.326 . S
Eu408 O430 2.500 . S
Eu408 O431 2.473 . S
C409 O406 1.255 . S
C409 O410 1.247 . S
O410 C409 1.247 . S
C411 O423 1.242 . S
C411 O424 1.258 . S
O412 Eu408 2.292 . S
O412 C414 1.255 . S
C413 Eu408 2.852 . S
C413 C417 1.503 . S
C413 O430 1.273 . S
C413 O431 1.257 . S
C414 O412 1.255 . S
C414 O415 1.247 . S
O415 C414 1.247 . S
C416 O428 1.242 . S
C416 O429 1.258 . S
C417 C413 1.503 . S
C417 C418 1.379 . S
C417 C422 1.392 . S
C418 C417 1.379 . S
C418 C419 1.404 . S
C418 H432 0.929 . S
C419 C418 1.404 . S
C419 C420 1.389 . S
C420 C419 1.389 . S
C420 C421 1.399 . S
C420 H433 0.931 . S
C421 C420 1.399 . S
C421 C422 1.390 . S
C422 C417 1.392 . S
C422 C421 1.390 . S
C422 H434 0.929 . S
O423 Tb407 2.326 . S
O423 C411 1.242 . S
O424 Eu408 2.324 . S
O424 C411 1.258 . S
O425 Tb407 2.500 . S
O425 C427 1.273 . S
O426 Tb407 2.473 . S
O426 C427 1.257 . S
C427 O425 1.273 . S
C427 O426 1.257 . S
O428 Eu408 2.326 . S
O428 C416 1.242 . S
O429 Tb407 2.324 . S
O429 C416 1.258 . S
O430 Eu408 2.500 . S
O430 C413 1.273 . S
O431 Eu408 2.473 . S
O431 C413 1.257 . S
H432 C418 0.929 . S
H433 C420 0.931 . S
H434 C422 0.929 . S
O435 Tb436 2.292 . S
O435 C438 1.255 . S
Tb436 O435 2.292 . S
Tb436 O452 2.326 . S
Tb436 O454 2.500 . S
Tb436 O455 2.473 . S
Tb436 O458 2.324 . S
Eu437 O441 2.292 . S
Eu437 C442 2.852 . S
Eu437 O453 2.324 . S
Eu437 O457 2.326 . S
Eu437 O459 2.500 . S
Eu437 O460 2.473 . S
C438 O435 1.255 . S
C438 O439 1.247 . S
O439 C438 1.247 . S
C440 O452 1.242 . S
C440 O453 1.258 . S
O441 Eu437 2.292 . S
O441 C443 1.255 . S
C442 Eu437 2.852 . S
C442 C446 1.503 . S
C442 O459 1.273 . S
C442 O460 1.257 . S
C443 O441 1.255 . S
C443 O444 1.247 . S
O444 C443 1.247 . S
C445 O457 1.242 . S
C445 O458 1.258 . S
C446 C442 1.503 . S
C446 C447 1.379 . S
C446 C451 1.392 . S
C447 C446 1.379 . S
C447 C448 1.404 . S
C447 H461 0.929 . S
C448 C447 1.404 . S
C448 C449 1.389 . S
C449 C448 1.389 . S
C449 C450 1.399 . S
C449 H462 0.931 . S
C450 C449 1.399 . S
C450 C451 1.390 . S
C451 C446 1.392 . S
C451 C450 1.390 . S
C451 H463 0.929 . S
O452 Tb436 2.326 . S
O452 C440 1.242 . S
O453 Eu437 2.324 . S
O453 C440 1.258 . S
O454 Tb436 2.500 . S
O454 C456 1.273 . S
O455 Tb436 2.473 . S
O455 C456 1.257 . S
C456 O454 1.273 . S
C456 O455 1.257 . S
O457 Eu437 2.326 . S
O457 C445 1.242 . S
O458 Tb436 2.324 . S
O458 C445 1.258 . S
O459 Eu437 2.500 . S
O459 C442 1.273 . S
O460 Eu437 2.473 . S
O460 C442 1.257 . S
H461 C447 0.929 . S
H462 C449 0.931 . S
H463 C451 0.929 . S
C464 C465 1.387 . S
C464 H468 0.950 . S
C464 C473 1.390 1_554 S
C465 C464 1.387 . S
C465 C467 1.387 . S
H466 C473 0.950 . S
C467 C465 1.387 . S
C467 C469 1.390 1_554 S
C467 H471 0.950 . S
H468 C464 0.950 . S
C469 C467 1.390 1_556 S
C469 C470 1.387 . S
C469 H472 0.950 . S
C470 C469 1.387 . S
C470 C473 1.387 . S
H471 C467 0.950 . S
H472 C469 0.950 . S
C473 C464 1.390 1_556 S
C473 H466 0.950 . S
C473 C470 1.387 . S
C474 C475 1.387 . S
C474 H478 0.950 . S
C474 C483 1.390 1_554 S
C475 C474 1.387 . S
C475 C477 1.387 . S
H476 C483 0.950 . S
C477 C475 1.387 . S
C477 C479 1.390 1_554 S
C477 H481 0.950 . S
H478 C474 0.950 . S
C479 C477 1.390 1_556 S
C479 C480 1.387 . S
C479 H482 0.950 . S
C480 C479 1.387 . S
C480 C483 1.387 . S
H481 C477 0.950 . S
H482 C479 0.950 . S
C483 C474 1.390 1_556 S
C483 H476 0.950 . S
C483 C480 1.387 . S
C484 C485 1.387 . S
C484 H488 0.950 . S
C484 C493 1.390 1_556 S
C485 C484 1.387 . S
C485 C487 1.387 . S
H486 C493 0.950 . S
C487 C485 1.387 . S
C487 C489 1.390 1_556 S
C487 H491 0.950 . S
H488 C484 0.950 . S
C489 C487 1.390 1_554 S
C489 C490 1.387 . S
C489 H492 0.950 . S
C490 C489 1.387 . S
C490 C493 1.387 . S
H491 C487 0.950 . S
H492 C489 0.950 . S
C493 C484 1.390 1_554 S
C493 H486 0.950 . S
C493 C490 1.387 . S
C494 C495 1.387 . S
C494 H498 0.950 . S
C494 C503 1.390 1_556 S
C495 C494 1.387 . S
C495 C497 1.387 . S
H496 C503 0.950 . S
C497 C495 1.387 . S
C497 C499 1.390 1_556 S
C497 H501 0.950 . S
H498 C494 0.950 . S
C499 C497 1.390 1_554 S
C499 C500 1.387 . S
C499 H502 0.950 . S
C500 C499 1.387 . S
C500 C503 1.387 . S
H501 C497 0.950 . S
H502 C499 0.950 . S
C503 C494 1.390 1_554 S
C503 H496 0.950 . S
C503 C500 1.387 . S
C504 C505 1.387 . S
C504 H508 0.950 . S
C504 C513 1.390 . S
C505 C504 1.387 . S
C505 C507 1.387 . S
H506 C513 0.950 . S
C507 C505 1.387 . S
C507 C509 1.390 . S
C507 H511 0.950 . S
H508 C504 0.950 . S
C509 C507 1.390 . S
C509 C510 1.387 . S
C509 H512 0.950 . S
C510 C509 1.387 . S
C510 C513 1.387 . S
H511 C507 0.950 . S
H512 C509 0.950 . S
C513 C504 1.390 . S
C513 H506 0.950 . S
C513 C510 1.387 . S
C514 C515 1.387 . S
C514 H518 0.950 . S
C514 C523 1.390 . S
C515 C514 1.387 . S
C515 C517 1.387 . S
H516 C523 0.950 . S
C517 C515 1.387 . S
C517 C519 1.390 . S
C517 H521 0.950 . S
H518 C514 0.950 . S
C519 C517 1.390 . S
C519 C520 1.387 . S
C519 H522 0.950 . S
C520 C519 1.387 . S
C520 C523 1.387 . S
H521 C517 0.950 . S
H522 C519 0.950 . S
C523 C514 1.390 . S
C523 H516 0.950 . S
C523 C520 1.387 . S
C524 C525 1.387 . S
C524 H528 0.950 . S
C524 C533 1.390 . S
C525 C524 1.387 . S
C525 C527 1.387 . S
H526 C533 0.950 . S
C527 C525 1.387 . S
C527 C529 1.390 . S
C527 H531 0.950 . S
H528 C524 0.950 . S
C529 C527 1.390 . S
C529 C530 1.387 . S
C529 H532 0.950 . S
C530 C529 1.387 . S
C530 C533 1.387 . S
H531 C527 0.950 . S
H532 C529 0.950 . S
C533 C524 1.390 . S
C533 H526 0.950 . S
C533 C530 1.387 . S
C534 C535 1.387 . S
C534 H538 0.950 . S
C534 C543 1.390 . S
C535 C534 1.387 . S
C535 C537 1.387 . S
H536 C543 0.950 . S
C537 C535 1.387 . S
C537 C539 1.390 . S
C537 H541 0.950 . S
H538 C534 0.950 . S
C539 C537 1.390 . S
C539 C540 1.387 . S
C539 H542 0.950 . S
C540 C539 1.387 . S
C540 C543 1.387 . S
H541 C537 0.950 . S
H542 C539 0.950 . S
C543 C534 1.390 . S
C543 H536 0.950 . S
C543 C540 1.387 . S
C544 C545 1.387 . S
C544 H548 0.950 . S
C544 C553 1.390 . S
C545 C544 1.387 . S
C545 C547 1.387 . S
H546 C553 0.950 . S
C547 C545 1.387 . S
C547 C549 1.390 . S
C547 H551 0.950 . S
H548 C544 0.950 . S
C549 C547 1.390 . S
C549 C550 1.387 . S
C549 H552 0.950 . S
C550 C549 1.387 . S
C550 C553 1.387 . S
H551 C547 0.950 . S
H552 C549 0.950 . S
C553 C544 1.390 . S
C553 H546 0.950 . S
C553 C550 1.387 . S
C554 C555 1.387 . S
C554 H558 0.950 . S
C554 C563 1.390 . S
C555 C554 1.387 . S
C555 C557 1.387 . S
H556 C563 0.950 . S
C557 C555 1.387 . S
C557 C559 1.390 . S
C557 H561 0.950 . S
H558 C554 0.950 . S
C559 C557 1.390 . S
C559 C560 1.387 . S
C559 H562 0.950 . S
C560 C559 1.387 . S
C560 C563 1.387 . S
H561 C557 0.950 . S
H562 C559 0.950 . S
C563 C554 1.390 . S
C563 H556 0.950 . S
C563 C560 1.387 . S
C564 C565 1.387 . S
C564 H568 0.950 . S
C564 C573 1.390 . S
C565 C564 1.387 . S
C565 C567 1.387 . S
H566 C573 0.950 . S
C567 C565 1.387 . S
C567 C569 1.390 . S
C567 H571 0.950 . S
H568 C564 0.950 . S
C569 C567 1.390 . S
C569 C570 1.387 . S
C569 H572 0.950 . S
C570 C569 1.387 . S
C570 C573 1.387 . S
H571 C567 0.950 . S
H572 C569 0.950 . S
C573 C564 1.390 . S
C573 H566 0.950 . S
C573 C570 1.387 . S
C574 C575 1.387 . S
C574 H578 0.950 . S
C574 C583 1.390 . S
C575 C574 1.387 . S
C575 C577 1.387 . S
H576 C583 0.950 . S
C577 C575 1.387 . S
C577 C579 1.390 . S
C577 H581 0.950 . S
H578 C574 0.950 . S
C579 C577 1.390 . S
C579 C580 1.387 . S
C579 H582 0.950 . S
C580 C579 1.387 . S
C580 C583 1.387 . S
H581 C577 0.950 . S
H582 C579 0.950 . S
C583 C574 1.390 . S
C583 H576 0.950 . S
C583 C580 1.387 . S
C584 C585 1.387 . S
C584 H588 0.950 . S
C584 C593 1.390 . S
C585 C584 1.387 . S
C585 C587 1.387 . S
H586 C593 0.950 . S
C587 C585 1.387 . S
C587 C589 1.390 . S
C587 H591 0.950 . S
H588 C584 0.950 . S
C589 C587 1.390 . S
C589 C590 1.387 . S
C589 H592 0.950 . S
C590 C589 1.387 . S
C590 C593 1.387 . S
H591 C587 0.950 . S
H592 C589 0.950 . S
C593 C584 1.390 . S
C593 H586 0.950 . S
C593 C590 1.387 . S
C594 C595 1.387 . S
C594 H598 0.950 . S
C594 C603 1.390 . S
C595 C594 1.387 . S
C595 C597 1.387 . S
H596 C603 0.950 . S
C597 C595 1.387 . S
C597 C599 1.390 . S
C597 H601 0.950 . S
H598 C594 0.950 . S
C599 C597 1.390 . S
C599 C600 1.387 . S
C599 H602 0.950 . S
C600 C599 1.387 . S
C600 C603 1.387 . S
H601 C597 0.950 . S
H602 C599 0.950 . S
C603 C594 1.390 . S
C603 H596 0.950 . S
C603 C600 1.387 . S
C604 C605 1.387 . S
C604 H608 0.950 . S
C604 C613 1.390 . S
C605 C604 1.387 . S
C605 C607 1.387 . S
H606 C613 0.950 . S
C607 C605 1.387 . S
C607 C609 1.390 . S
C607 H611 0.950 . S
H608 C604 0.950 . S
C609 C607 1.390 . S
C609 C610 1.387 . S
C609 H612 0.950 . S
C610 C609 1.387 . S
C610 C613 1.387 . S
H611 C607 0.950 . S
H612 C609 0.950 . S
C613 C604 1.390 . S
C613 H606 0.950 . S
C613 C610 1.387 . S
C614 C615 1.387 . S
C614 H618 0.950 . S
C614 C623 1.390 . S
C615 C614 1.387 . S
C615 C617 1.387 . S
H616 C623 0.950 . S
C617 C615 1.387 . S
C617 C619 1.390 . S
C617 H621 0.950 . S
H618 C614 0.950 . S
C619 C617 1.390 . S
C619 C620 1.387 . S
C619 H622 0.950 . S
C620 C619 1.387 . S
C620 C623 1.387 . S
H621 C617 0.950 . S
H622 C619 0.950 . S
C623 C614 1.390 . S
C623 H616 0.950 . S
C623 C620 1.387 . S
C624 C625 1.387 . S
C624 H628 0.950 . S
C624 C633 1.390 . S
C625 C624 1.387 . S
C625 C627 1.387 . S
H626 C633 0.950 . S
C627 C625 1.387 . S
C627 C629 1.390 . S
C627 H631 0.950 . S
H628 C624 0.950 . S
C629 C627 1.390 . S
C629 C630 1.387 . S
C629 H632 0.950 . S
C630 C629 1.387 . S
C630 C633 1.387 . S
H631 C627 0.950 . S
H632 C629 0.950 . S
C633 C624 1.390 . S
C633 H626 0.950 . S
C633 C630 1.387 . S
C634 C635 1.387 . S
C634 H638 0.950 . S
C634 C643 1.390 . S
C635 C634 1.387 . S
C635 C637 1.387 . S
H636 C643 0.950 . S
C637 C635 1.387 . S
C637 C639 1.390 . S
C637 H641 0.950 . S
H638 C634 0.950 . S
C639 C637 1.390 . S
C639 C640 1.387 . S
C639 H642 0.950 . S
C640 C639 1.387 . S
C640 C643 1.387 . S
H641 C637 0.950 . S
H642 C639 0.950 . S
C643 C634 1.390 . S
C643 H636 0.950 . S
C643 C640 1.387 . S
C644 C645 1.387 . S
C644 H648 0.950 . S
C644 C653 1.390 . S
C645 C644 1.387 . S
C645 C647 1.387 . S
H646 C653 0.950 . S
C647 C645 1.387 . S
C647 C649 1.390 . S
C647 H651 0.950 . S
H648 C644 0.950 . S
C649 C647 1.390 . S
C649 C650 1.387 . S
C649 H652 0.950 . S
C650 C649 1.387 . S
C650 C653 1.387 . S
H651 C647 0.950 . S
H652 C649 0.950 . S
C653 C644 1.390 . S
C653 H646 0.950 . S
C653 C650 1.387 . S
C654 C655 1.387 . S
C654 H658 0.950 . S
C654 C663 1.390 . S
C655 C654 1.387 . S
C655 C657 1.387 . S
H656 C663 0.950 . S
C657 C655 1.387 . S
C657 C659 1.390 . S
C657 H661 0.950 . S
H658 C654 0.950 . S
C659 C657 1.390 . S
C659 C660 1.387 . S
C659 H662 0.950 . S
C660 C659 1.387 . S
C660 C663 1.387 . S
H661 C657 0.950 . S
H662 C659 0.950 . S
C663 C654 1.390 . S
C663 H656 0.950 . S
C663 C660 1.387 . S
C664 C665 1.387 . S
C664 H668 0.950 . S
C664 C673 1.390 . S
C665 C664 1.387 . S
C665 C667 1.387 . S
H666 C673 0.950 . S
C667 C665 1.387 . S
C667 C669 1.390 . S
C667 H671 0.950 . S
H668 C664 0.950 . S
C669 C667 1.390 . S
C669 C670 1.387 . S
C669 H672 0.950 . S
C670 C669 1.387 . S
C670 C673 1.387 . S
H671 C667 0.950 . S
H672 C669 0.950 . S
C673 C664 1.390 . S
C673 H666 0.950 . S
C673 C670 1.387 . S
C674 C675 1.387 . S
C674 H678 0.950 . S
C674 C683 1.390 . S
C675 C674 1.387 . S
C675 C677 1.387 . S
H676 C683 0.950 . S
C677 C675 1.387 . S
C677 C679 1.390 . S
C677 H681 0.950 . S
H678 C674 0.950 . S
C679 C677 1.390 . S
C679 C680 1.387 . S
C679 H682 0.950 . S
C680 C679 1.387 . S
C680 C683 1.387 . S
H681 C677 0.950 . S
H682 C679 0.950 . S
C683 C674 1.390 . S
C683 H676 0.950 . S
C683 C680 1.387 . S
C684 C685 1.387 . S
C684 H688 0.950 . S
C684 C693 1.390 . S
C685 C684 1.387 . S
C685 C687 1.387 . S
H686 C693 0.950 . S
C687 C685 1.387 . S
C687 C689 1.390 . S
C687 H691 0.950 . S
H688 C684 0.950 . S
C689 C687 1.390 . S
C689 C690 1.387 . S
C689 H692 0.950 . S
C690 C689 1.387 . S
C690 C693 1.387 . S
H691 C687 0.950 . S
H692 C689 0.950 . S
C693 C684 1.390 . S
C693 H686 0.950 . S
C693 C690 1.387 . S
C694 C695 1.387 . S
C694 H698 0.950 . S
C694 C703 1.390 . S
C695 C694 1.387 . S
C695 C697 1.387 . S
H696 C703 0.950 . S
C697 C695 1.387 . S
C697 C699 1.390 . S
C697 H701 0.950 . S
H698 C694 0.950 . S
C699 C697 1.390 . S
C699 C700 1.387 . S
C699 H702 0.950 . S
C700 C699 1.387 . S
C700 C703 1.387 . S
H701 C697 0.950 . S
H702 C699 0.950 . S
C703 C694 1.390 . S
C703 H696 0.950 . S
C703 C700 1.387 . S
C704 C705 1.387 . S
C704 H708 0.950 . S
C704 C713 1.390 . S
C705 C704 1.387 . S
C705 C707 1.387 . S
H706 C713 0.950 . S
C707 C705 1.387 . S
C707 C709 1.390 . S
C707 H711 0.950 . S
H708 C704 0.950 . S
C709 C707 1.390 . S
C709 C710 1.387 . S
C709 H712 0.950 . S
C710 C709 1.387 . S
C710 C713 1.387 . S
H711 C707 0.950 . S
H712 C709 0.950 . S
C713 C704 1.390 . S
C713 H706 0.950 . S
C713 C710 1.387 . S
C714 C715 1.387 . S
C714 H718 0.950 . S
C714 C723 1.390 . S
C715 C714 1.387 . S
C715 C717 1.387 . S
H716 C723 0.950 . S
C717 C715 1.387 . S
C717 C719 1.390 . S
C717 H721 0.950 . S
H718 C714 0.950 . S
C719 C717 1.390 . S
C719 C720 1.387 . S
C719 H722 0.950 . S
C720 C719 1.387 . S
C720 C723 1.387 . S
H721 C717 0.950 . S
H722 C719 0.950 . S
C723 C714 1.390 . S
C723 H716 0.950 . S
C723 C720 1.387 . S
C724 C725 1.387 . S
C724 H728 0.950 . S
C724 C733 1.390 . S
C725 C724 1.387 . S
C725 C727 1.387 . S
H726 C733 0.950 . S
C727 C725 1.387 . S
C727 C729 1.390 . S
C727 H731 0.950 . S
H728 C724 0.950 . S
C729 C727 1.390 . S
C729 C730 1.387 . S
C729 H732 0.950 . S
C730 C729 1.387 . S
C730 C733 1.387 . S
H731 C727 0.950 . S
H732 C729 0.950 . S
C733 C724 1.390 . S
C733 H726 0.950 . S
C733 C730 1.387 . S
C734 C735 1.387 . S
C734 H738 0.950 . S
C734 C743 1.390 . S
C735 C734 1.387 . S
C735 C737 1.387 . S
H736 C743 0.950 . S
C737 C735 1.387 . S
C737 C739 1.390 . S
C737 H741 0.950 . S
H738 C734 0.950 . S
C739 C737 1.390 . S
C739 C740 1.387 . S
C739 H742 0.950 . S
C740 C739 1.387 . S
C740 C743 1.387 . S
H741 C737 0.950 . S
H742 C739 0.950 . S
C743 C734 1.390 . S
C743 H736 0.950 . S
C743 C740 1.387 . S
C744 C745 1.387 . S
C744 H748 0.950 . S
C744 C753 1.390 . S
C745 C744 1.387 . S
C745 C747 1.387 . S
H746 C753 0.950 . S
C747 C745 1.387 . S
C747 C749 1.390 . S
C747 H751 0.950 . S
H748 C744 0.950 . S
C749 C747 1.390 . S
C749 C750 1.387 . S
C749 H752 0.950 . S
C750 C749 1.387 . S
C750 C753 1.387 . S
H751 C747 0.950 . S
H752 C749 0.950 . S
C753 C744 1.390 . S
C753 H746 0.950 . S
C753 C750 1.387 . S
C754 C755 1.387 . S
C754 H758 0.950 . S
C754 C763 1.390 . S
C755 C754 1.387 . S
C755 C757 1.387 . S
H756 C763 0.950 . S
C757 C755 1.387 . S
C757 C759 1.390 . S
C757 H761 0.950 . S
H758 C754 0.950 . S
C759 C757 1.390 . S
C759 C760 1.387 . S
C759 H762 0.950 . S
C760 C759 1.387 . S
C760 C763 1.387 . S
H761 C757 0.950 . S
H762 C759 0.950 . S
C763 C754 1.390 . S
C763 H756 0.950 . S
C763 C760 1.387 . S
C764 C765 1.387 . S
C764 H768 0.950 . S
C764 C773 1.390 . S
C765 C764 1.387 . S
C765 C767 1.387 . S
H766 C773 0.950 . S
C767 C765 1.387 . S
C767 C769 1.390 . S
C767 H771 0.950 . S
H768 C764 0.950 . S
C769 C767 1.390 . S
C769 C770 1.387 . S
C769 H772 0.950 . S
C770 C769 1.387 . S
C770 C773 1.387 . S
H771 C767 0.950 . S
H772 C769 0.950 . S
C773 C764 1.390 . S
C773 H766 0.950 . S
C773 C770 1.387 . S
C774 C775 1.387 . S
C774 H778 0.950 . S
C774 C783 1.390 . S
C775 C774 1.387 . S
C775 C777 1.387 . S
H776 C783 0.950 . S
C777 C775 1.387 . S
C777 C779 1.390 . S
C777 H781 0.950 . S
H778 C774 0.950 . S
C779 C777 1.390 . S
C779 C780 1.387 . S
C779 H782 0.950 . S
C780 C779 1.387 . S
C780 C783 1.387 . S
H781 C777 0.950 . S
H782 C779 0.950 . S
C783 C774 1.390 . S
C783 H776 0.950 . S
C783 C780 1.387 . S
C784 C785 1.387 . S
C784 H788 0.950 . S
C784 C793 1.390 . S
C785 C784 1.387 . S
C785 C787 1.387 . S
H786 C793 0.950 . S
C787 C785 1.387 . S
C787 C789 1.390 . S
C787 H791 0.950 . S
H788 C784 0.950 . S
C789 C787 1.390 . S
C789 C790 1.387 . S
C789 H792 0.950 . S
C790 C789 1.387 . S
C790 C793 1.387 . S
H791 C787 0.950 . S
H792 C789 0.950 . S
C793 C784 1.390 . S
C793 H786 0.950 . S
C793 C790 1.387 . S
C794 C795 1.387 . S
C794 H798 0.950 . S
C794 C803 1.390 . S
C795 C794 1.387 . S
C795 C797 1.387 . S
H796 C803 0.950 . S
C797 C795 1.387 . S
C797 C799 1.390 . S
C797 H801 0.950 . S
H798 C794 0.950 . S
C799 C797 1.390 . S
C799 C800 1.387 . S
C799 H802 0.950 . S
C800 C799 1.387 . S
C800 C803 1.387 . S
H801 C797 0.950 . S
H802 C799 0.950 . S
C803 C794 1.390 . S
C803 H796 0.950 . S
C803 C800 1.387 . S
C804 C805 1.387 . S
C804 H808 0.950 . S
C804 C813 1.390 . S
C805 C804 1.387 . S
C805 C807 1.387 . S
H806 C813 0.950 . S
C807 C805 1.387 . S
C807 C809 1.390 . S
C807 H811 0.950 . S
H808 C804 0.950 . S
C809 C807 1.390 . S
C809 C810 1.387 . S
C809 H812 0.950 . S
C810 C809 1.387 . S
C810 C813 1.387 . S
H811 C807 0.950 . S
H812 C809 0.950 . S
C813 C804 1.390 . S
C813 H806 0.950 . S
C813 C810 1.387 . S
C814 C815 1.387 . S
C814 H818 0.950 . S
C814 C823 1.390 . S
C815 C814 1.387 . S
C815 C817 1.387 . S
H816 C823 0.950 . S
C817 C815 1.387 . S
C817 C819 1.390 . S
C817 H821 0.950 . S
H818 C814 0.950 . S
C819 C817 1.390 . S
C819 C820 1.387 . S
C819 H822 0.950 . S
C820 C819 1.387 . S
C820 C823 1.387 . S
H821 C817 0.950 . S
H822 C819 0.950 . S
C823 C814 1.390 . S
C823 H816 0.950 . S
C823 C820 1.387 . S
C824 C825 1.387 . S
C824 H828 0.950 . S
C824 C833 1.390 . S
C825 C824 1.387 . S
C825 C827 1.387 . S
H826 C833 0.950 . S
C827 C825 1.387 . S
C827 C829 1.390 . S
C827 H831 0.950 . S
H828 C824 0.950 . S
C829 C827 1.390 . S
C829 C830 1.387 . S
C829 H832 0.950 . S
C830 C829 1.387 . S
C830 C833 1.387 . S
H831 C827 0.950 . S
H832 C829 0.950 . S
C833 C824 1.390 . S
C833 H826 0.950 . S
C833 C830 1.387 . S
C834 C835 1.387 . S
C834 H838 0.950 . S
C834 C843 1.390 . S
C835 C834 1.387 . S
C835 C837 1.387 . S
H836 C843 0.950 . S
C837 C835 1.387 . S
C837 C839 1.390 . S
C837 H841 0.950 . S
H838 C834 0.950 . S
C839 C837 1.390 . S
C839 C840 1.387 . S
C839 H842 0.950 . S
C840 C839 1.387 . S
C840 C843 1.387 . S
H841 C837 0.950 . S
H842 C839 0.950 . S
C843 C834 1.390 . S
C843 H836 0.950 . S
C843 C840 1.387 . S
C844 C845 1.387 . S
C844 H848 0.950 . S
C844 C853 1.390 . S
C845 C844 1.387 . S
C845 C847 1.387 . S
H846 C853 0.950 . S
C847 C845 1.387 . S
C847 C849 1.390 . S
C847 H851 0.950 . S
H848 C844 0.950 . S
C849 C847 1.390 . S
C849 C850 1.387 . S
C849 H852 0.950 . S
C850 C849 1.387 . S
C850 C853 1.387 . S
H851 C847 0.950 . S
H852 C849 0.950 . S
C853 C844 1.390 . S
C853 H846 0.950 . S
C853 C850 1.387 . S
C854 C855 1.387 . S
C854 H858 0.950 . S
C854 C863 1.390 . S
C855 C854 1.387 . S
C855 C857 1.387 . S
H856 C863 0.950 . S
C857 C855 1.387 . S
C857 C859 1.390 . S
C857 H861 0.950 . S
H858 C854 0.950 . S
C859 C857 1.390 . S
C859 C860 1.387 . S
C859 H862 0.950 . S
C860 C859 1.387 . S
C860 C863 1.387 . S
H861 C857 0.950 . S
H862 C859 0.950 . S
C863 C854 1.390 . S
C863 H856 0.950 . S
C863 C860 1.387 . S
C864 C865 1.387 . S
C864 H868 0.950 . S
C864 C873 1.390 . S
C865 C864 1.387 . S
C865 C867 1.387 . S
H866 C873 0.950 . S
C867 C865 1.387 . S
C867 C869 1.390 . S
C867 H871 0.950 . S
H868 C864 0.950 . S
C869 C867 1.390 . S
C869 C870 1.387 . S
C869 H872 0.950 . S
C870 C869 1.387 . S
C870 C873 1.387 . S
H871 C867 0.950 . S
H872 C869 0.950 . S
C873 C864 1.390 . S
C873 H866 0.950 . S
C873 C870 1.387 . S
C874 C875 1.387 . S
C874 H878 0.950 . S
C874 C883 1.390 . S
C875 C874 1.387 . S
C875 C877 1.387 . S
H876 C883 0.950 . S
C877 C875 1.387 . S
C877 C879 1.390 . S
C877 H881 0.950 . S
H878 C874 0.950 . S
C879 C877 1.390 . S
C879 C880 1.387 . S
C879 H882 0.950 . S
C880 C879 1.387 . S
C880 C883 1.387 . S
H881 C877 0.950 . S
H882 C879 0.950 . S
C883 C874 1.390 . S
C883 H876 0.950 . S
C883 C880 1.387 . S
C884 C885 1.387 . S
C884 H888 0.950 . S
C884 C893 1.390 . S
C885 C884 1.387 . S
C885 C887 1.387 . S
H886 C893 0.950 . S
C887 C885 1.387 . S
C887 C889 1.390 . S
C887 H891 0.950 . S
H888 C884 0.950 . S
C889 C887 1.390 . S
C889 C890 1.387 . S
C889 H892 0.950 . S
C890 C889 1.387 . S
C890 C893 1.387 . S
H891 C887 0.950 . S
H892 C889 0.950 . S
C893 C884 1.390 . S
C893 H886 0.950 . S
C893 C890 1.387 . S
C894 C895 1.387 . S
C894 H898 0.950 . S
C894 C903 1.390 . S
C895 C894 1.387 . S
C895 C897 1.387 . S
H896 C903 0.950 . S
C897 C895 1.387 . S
C897 C899 1.390 . S
C897 H901 0.950 . S
H898 C894 0.950 . S
C899 C897 1.390 . S
C899 C900 1.387 . S
C899 H902 0.950 . S
C900 C899 1.387 . S
C900 C903 1.387 . S
H901 C897 0.950 . S
H902 C899 0.950 . S
C903 C894 1.390 . S
C903 H896 0.950 . S
C903 C900 1.387 . S
C904 C905 1.387 . S
C904 H908 0.950 . S
C904 C913 1.390 . S
C905 C904 1.387 . S
C905 C907 1.387 . S
H906 C913 0.950 . S
C907 C905 1.387 . S
C907 C909 1.390 . S
C907 H911 0.950 . S
H908 C904 0.950 . S
C909 C907 1.390 . S
C909 C910 1.387 . S
C909 H912 0.950 . S
C910 C909 1.387 . S
C910 C913 1.387 . S
H911 C907 0.950 . S
H912 C909 0.950 . S
C913 C904 1.390 . S
C913 H906 0.950 . S
C913 C910 1.387 . S
C914 C915 1.387 . S
C914 H918 0.950 . S
C914 C923 1.390 . S
C915 C914 1.387 . S
C915 C917 1.387 . S
H916 C923 0.950 . S
C917 C915 1.387 . S
C917 C919 1.390 . S
C917 H921 0.950 . S
H918 C914 0.950 . S
C919 C917 1.390 . S
C919 C920 1.387 . S
C919 H922 0.950 . S
C920 C919 1.387 . S
C920 C923 1.387 . S
H921 C917 0.950 . S
H922 C919 0.950 . S
C923 C914 1.390 . S
C923 H916 0.950 . S
C923 C920 1.387 . S
C924 C925 1.387 . S
C924 H928 0.950 . S
C924 C933 1.390 . S
C925 C924 1.387 . S
C925 C927 1.387 . S
H926 C933 0.950 . S
C927 C925 1.387 . S
C927 C929 1.390 . S
C927 H931 0.950 . S
H928 C924 0.950 . S
C929 C927 1.390 . S
C929 C930 1.387 . S
C929 H932 0.950 . S
C930 C929 1.387 . S
C930 C933 1.387 . S
H931 C927 0.950 . S
H932 C929 0.950 . S
C933 C924 1.390 . S
C933 H926 0.950 . S
C933 C930 1.387 . S
C934 C935 1.387 . S
C934 H938 0.950 . S
C934 C943 1.390 . S
C935 C934 1.387 . S
C935 C937 1.387 . S
H936 C943 0.950 . S
C937 C935 1.387 . S
C937 C939 1.390 . S
C937 H941 0.950 . S
H938 C934 0.950 . S
C939 C937 1.390 . S
C939 C940 1.387 . S
C939 H942 0.950 . S
C940 C939 1.387 . S
C940 C943 1.387 . S
H941 C937 0.950 . S
H942 C939 0.950 . S
C943 C934 1.390 . S
C943 H936 0.950 . S
C943 C940 1.387 . S
C944 C945 1.388 . S
C944 H948 0.950 . S
C944 C953 1.390 1_655 S
C945 C944 1.388 . S
C945 C947 1.388 . S
H946 C953 0.950 . S
C947 C945 1.388 . S
C947 C949 1.390 1_655 S
C947 H951 0.950 . S
H948 C944 0.950 . S
C949 C947 1.390 1_455 S
C949 C950 1.388 . S
C949 H952 0.950 . S
C950 C949 1.388 . S
C950 C953 1.388 . S
H951 C947 0.950 . S
H952 C949 0.950 . S
C953 C944 1.390 1_455 S
C953 H946 0.950 . S
C953 C950 1.388 . S
C954 C955 1.388 . S
C954 H958 0.950 . S
C954 C963 1.390 1_545 S
C955 C954 1.388 . S
C955 C957 1.388 . S
H956 C963 0.950 . S
C957 C955 1.388 . S
C957 C959 1.390 1_545 S
C957 H961 0.950 . S
H958 C954 0.950 . S
C959 C957 1.390 1_565 S
C959 C960 1.388 . S
C959 H962 0.950 . S
C960 C959 1.388 . S
C960 C963 1.388 . S
H961 C957 0.950 . S
H962 C959 0.950 . S
C963 C954 1.390 1_565 S
C963 H956 0.950 . S
C963 C960 1.388 . S
C964 C965 1.387 1_455 S
C964 H968 0.950 . S
C964 C973 1.390 . S
C965 C964 1.387 1_655 S
C965 C967 1.387 . S
H966 C973 0.950 . S
C967 C965 1.387 . S
C967 C969 1.390 . S
C967 H971 0.950 . S
H968 C964 0.950 . S
C969 C967 1.390 . S
C969 C970 1.387 1_655 S
C969 H972 0.950 . S
C970 C969 1.387 1_455 S
C970 C973 1.387 . S
H971 C967 0.950 . S
H972 C969 0.950 . S
C973 C964 1.390 . S
C973 H966 0.950 . S
C973 C970 1.387 . S
C974 C975 1.388 . S
C974 H978 0.950 . S
C974 C983 1.389 1_545 S
C975 C974 1.388 . S
C975 C977 1.388 . S
H976 C983 0.950 . S
C977 C975 1.388 . S
C977 C979 1.389 1_545 S
C977 H981 0.950 . S
H978 C974 0.950 . S
C979 C977 1.389 1_565 S
C979 C980 1.388 . S
C979 H982 0.950 . S
C980 C979 1.388 . S
C980 C983 1.388 . S
H981 C977 0.950 . S
H982 C979 0.950 . S
C983 C974 1.389 1_565 S
C983 H976 0.950 . S
C983 C980 1.388 . S
C984 C985 1.387 . S
C984 H988 0.950 . S
C984 C993 1.390 1_455 S
C985 C984 1.387 . S
C985 C987 1.387 . S
H986 C993 0.950 . S
C987 C985 1.387 . S
C987 C989 1.390 1_455 S
C987 H991 0.950 . S
H988 C984 0.950 . S
C989 C987 1.390 1_655 S
C989 C990 1.387 . S
C989 H992 0.950 . S
C990 C989 1.387 . S
C990 C993 1.387 . S
H991 C987 0.950 . S
H992 C989 0.950 . S
C993 C984 1.390 1_655 S
C993 H986 0.950 . S
C993 C990 1.387 . S
C994 C995 1.387 . S
C994 H998 0.950 . S
C994 C1003 1.390 1_545 S
C995 C994 1.387 . S
C995 C997 1.387 . S
H996 C1003 0.950 . S
C997 C995 1.387 . S
C997 C999 1.390 1_545 S
C997 H1001 0.950 . S
H998 C994 0.950 . S
C999 C997 1.390 1_565 S
C999 C1000 1.387 . S
C999 H1002 0.950 . S
C1000 C999 1.387 . S
C1000 C1003 1.387 . S
H1001 C997 0.950 . S
H1002 C999 0.950 . S
C1003 C994 1.390 1_565 S
C1003 H996 0.950 . S
C1003 C1000 1.387 . S
C1004 C1005 1.387 . S
C1004 H1008 0.950 . S
C1004 C1013 1.390 1_455 S
C1005 C1004 1.387 . S
C1005 C1007 1.387 . S
H1006 C1013 0.950 . S
C1007 C1005 1.387 . S
C1007 C1009 1.390 1_455 S
C1007 H1011 0.950 . S
H1008 C1004 0.950 . S
C1009 C1007 1.390 1_655 S
C1009 C1010 1.387 . S
C1009 H1012 0.950 . S
C1010 C1009 1.387 . S
C1010 C1013 1.387 . S
H1011 C1007 0.950 . S
H1012 C1009 0.950 . S
C1013 C1004 1.390 1_655 S
C1013 H1006 0.950 . S
C1013 C1010 1.387 . S
C1014 C1015 1.387 . S
C1014 H1018 0.950 . S
C1014 C1023 1.390 1_565 S
C1015 C1014 1.387 . S
C1015 C1017 1.387 . S
H1016 C1023 0.950 . S
C1017 C1015 1.387 . S
C1017 C1019 1.390 1_565 S
C1017 H1021 0.950 . S
H1018 C1014 0.950 . S
C1019 C1017 1.390 1_545 S
C1019 C1020 1.387 . S
C1019 H1022 0.950 . S
C1020 C1019 1.387 . S
C1020 C1023 1.387 . S
H1021 C1017 0.950 . S
H1022 C1019 0.950 . S
C1023 C1014 1.390 1_545 S
C1023 H1016 0.950 . S
C1023 C1020 1.387 . S
C465 C10 1.771 . S
C470 C300 1.769 . S
C475 C39 1.767 . S
C480 C329 1.769 . S
C485 C242 1.767 . S
C490 C68 1.768 . S
C495 C271 1.770 . S
C500 C97 1.770 . S
C505 C126 1.767 . S
C510 C416 1.769 . S
C515 C445 1.769 . S
C520 C155 1.767 . S
C525 C358 1.769 . S
C530 C184 1.771 . S
C535 C213 1.771 . S
C540 C387 1.769 . S
C545 C100 1.950 1_545 S
C550 C3 1.995 . S
C555 C13 1.950 1_655 S
C560 C32 1.994 . S
C565 C61 1.994 . S
C570 C42 1.950 1_565 S
C575 C90 1.996 . S
C580 C71 1.947 1_455 S
C585 C158 1.950 1_565 S
C590 C119 1.995 . S
C595 C148 1.995 . S
C600 C187 1.950 1_455 S
C605 C216 1.948 1_545 S
C610 C177 1.994 . S
C615 C129 1.947 1_655 S
C620 C206 1.995 . S
C625 C253 1.566 . S
C630 C327 1.549 1_565 S
C635 C240 1.548 1_455 S
C640 C282 1.565 . S
C645 C311 1.567 . S
C650 C269 1.550 1_545 S
C655 C298 1.551 1_655 S
C660 C340 1.568 . S
C665 C369 1.566 . S
C670 C385 1.549 1_545 S
C675 C414 1.551 1_655 S
C680 C398 1.568 . S
C685 C443 1.550 1_565 S
C690 C427 1.567 . S
C695 C356 1.548 1_455 S
C700 C456 1.566 . S
C705 C380 1.994 . S
C710 C361 1.950 . S
C715 C409 1.996 . S
C720 C390 1.947 . S
C725 C419 1.947 . S
C730 C438 1.996 . S
C735 C448 1.950 . S
C740 C351 1.994 . S
C745 C322 1.996 . S
C750 C245 1.947 . S
C755 C274 1.950 . S
C760 C235 1.994 . S
C765 C303 1.950 . S
C770 C264 1.995 . S
C775 C332 1.947 . S
C780 C293 1.996 . S
C785 C166 1.566 . S
C790 C124 1.548 . S
C795 C153 1.551 . S
C800 C195 1.568 . S
C805 C224 1.566 . S
C810 C182 1.549 . S
C815 C211 1.551 . S
C820 C137 1.568 . S
C825 C108 1.566 . S
C830 C8 1.549 . S
C835 C37 1.551 . S
C840 C21 1.568 . S
C845 C66 1.551 . S
C850 C50 1.568 . S
C855 C95 1.549 . S
C860 C79 1.566 . S
C865 C150 1.511 . S
C870 C5 1.512 . S
C875 C179 1.509 . S
C880 C34 1.509 . S
C885 C208 1.510 . S
C890 C63 1.511 . S
C895 C121 1.509 . S
C900 C92 1.509 . S
C905 C382 1.512 . S
C910 C237 1.511 . S
C915 C266 1.512 . S
C920 C411 1.512 . S
C925 C295 1.509 . S
C930 C440 1.510 . S
C935 C324 1.510 . S
C940 C353 1.512 . S
C945 C15 1.931 1_655 S
C950 C73 1.931 1_455 S
C955 C102 1.931 1_545 S
C960 C44 1.931 1_565 S
C965 C131 1.931 1_655 S
C970 C189 1.933 1_455 S
C975 C218 1.933 1_545 S
C980 C160 1.933 1_565 S
C985 C305 1.933 . S
C990 C247 1.933 . S
C995 C334 1.933 . S
C1000 C276 1.933 . S
C1005 C421 1.933 . S
C1010 C363 1.931 . S
C1015 C392 1.933 . S
C1020 C450 1.933 . S
