# Generated by pormake.
# Topology oof, (8)-cn, num edge types: 1
# Building blocks:
#     Node 0, Type 0, BuildingBlock: VETTIZ_charged_sbu_0, # of connection points: 8
#     Node 1, Type 0, BuildingBlock: VETTIZ_charged_sbu_0, # of connection points: 8
#     Node 2, Type 0, BuildingBlock: VETTIZ_charged_sbu_0, # of connection points: 8
#     Node 3, Type 0, BuildingBlock: VETTIZ_charged_sbu_0, # of connection points: 8
#     Edge 4, Type (0, 0), BuildingBlock: ZUJKAS_clean_linker_0, # of connection points: 2
#     Edge 5, Type (0, 0), BuildingBlock: ZUJKAS_clean_linker_0, # of connection points: 2
#     Edge 6, Type (0, 0), BuildingBlock: ZUJKAS_clean_linker_0, # of connection points: 2
#     Edge 7, Type (0, 0), BuildingBlock: ZUJKAS_clean_linker_0, # of connection points: 2
#     Edge 8, Type (0, 0), BuildingBlock: ZUJKAS_clean_linker_0, # of connection points: 2
#     Edge 9, Type (0, 0), BuildingBlock: ZUJKAS_clean_linker_0, # of connection points: 2
#     Edge 10, Type (0, 0), BuildingBlock: ZUJKAS_clean_linker_0, # of connection points: 2
#     Edge 11, Type (0, 0), BuildingBlock: ZUJKAS_clean_linker_0, # of connection points: 2
#     Edge 12, Type (0, 0), BuildingBlock: ZUJKAS_clean_linker_0, # of connection points: 2
#     Edge 13, Type (0, 0), BuildingBlock: ZUJKAS_clean_linker_0, # of connection points: 2
#     Edge 14, Type (0, 0), BuildingBlock: ZUJKAS_clean_linker_0, # of connection points: 2
#     Edge 15, Type (0, 0), BuildingBlock: ZUJKAS_clean_linker_0, # of connection points: 2
#     Edge 16, Type (0, 0), BuildingBlock: ZUJKAS_clean_linker_0, # of connection points: 2
#     Edge 17, Type (0, 0), BuildingBlock: ZUJKAS_clean_linker_0, # of connection points: 2
#     Edge 18, Type (0, 0), BuildingBlock: ZUJKAS_clean_linker_0, # of connection points: 2
#     Edge 19, Type (0, 0), BuildingBlock: ZUJKAS_clean_linker_0, # of connection points: 2
# Relax obj value: 0.130
# Max RMSD: 0.230
# Mean RMSD: 0.230
data_MOF--net-oof--node1-VETTIZ_charged_sbu_0--edge1-ZUJKAS_clean_linker_0
_symmetry_space_group_name_H-M    P1
_symmetry_Int_Tables_number       1
_symmetry_cell_setting            triclinic
loop_
_symmetry_equiv_pos_as_xyz
'x, y, z'
_cell_length_a     21.119364
_cell_length_b     69.285197
_cell_length_c     20.882909
_cell_angle_alpha  89.699411
_cell_angle_beta   98.627772
_cell_angle_gamma 89.719224
loop_
_atom_site_label
_atom_site_type_symbol
_atom_site_fract_x
_atom_site_fract_y
_atom_site_fract_z
_atom_type_partial_charge
Fe0 Fe 0.06685 0.14308 0.31722 0.0
O1 O 0.01581 0.16232 0.25901 0.0
Fe2 Fe 0.06678 0.10332 0.21496 0.0
Fe3 Fe 0.96654 0.18306 0.29334 0.0
O4 O 0.02217 0.12403 0.25468 0.0
O5 O 0.01767 0.12403 0.24878 0.0
O6 O 0.00969 0.16216 0.25409 0.0
Fe7 Fe 0.96513 0.14312 0.19108 0.0
C8 C 0.98058 0.15463 0.40826 0.0
O9 O 0.10836 0.16659 0.37305 0.0
O10 O 0.05739 0.19327 0.32098 0.0
O11 O 0.03639 0.14628 0.13513 0.0
O12 O 0.06046 0.1154 0.12287 0.0
O13 O 0.15643 0.11491 0.23897 0.0
O14 O 0.14223 0.14553 0.26537 0.0
O15 O 0.95276 0.19315 0.19942 0.0
O16 O 0.91651 0.16645 0.139 0.0
C17 C 0.17712 0.13199 0.24869 0.0
O18 O 0.92755 0.11963 0.1315 0.0
O19 O 0.97619 0.0933 0.18638 0.0
O20 O 0.99557 0.14081 0.37362 0.0
O21 O 0.97556 0.17183 0.38645 0.0
C22 C 0.10407 0.18505 0.35919 0.0
C23 C 0.92443 0.18501 0.14711 0.0
C24 C 0.85626 0.15364 0.26189 0.0
O25 O 0.87725 0.17075 0.27213 0.0
O26 O 0.89032 0.14011 0.24338 0.0
C27 C 0.05475 0.1327 0.10144 0.0
O28 O 0.07759 0.09294 0.30773 0.0
O29 O 0.11014 0.11936 0.37167 0.0
C30 C 0.9344 0.10103 0.1419 0.0
C31 C 0.09943 0.10092 0.36249 0.0
Fe32 Fe 0.94997 0.93117 0.79974 0.0
O33 O 0.99417 0.91034 0.76014 0.0
Fe34 Fe 0.05032 0.89105 0.82385 0.0
Fe35 Fe 0.94903 0.89145 0.69732 0.0
O36 O 0.99867 0.91032 0.76609 0.0
O37 O 1.00543 0.87219 0.76043 0.0
O38 O 0.9993 0.87204 0.7555 0.0
Fe39 Fe 0.04816 0.85119 0.72128 0.0
C40 C 0.83862 0.90288 0.76498 0.0
O41 O 0.94019 0.94162 0.70712 0.0
O42 O 0.9067 0.91532 0.64295 0.0
O43 O 0.13786 0.8632 0.74332 0.0
O44 O 0.12561 0.89387 0.77199 0.0
O45 O 0.08832 0.91438 0.88391 0.0
O46 O 0.04084 0.94088 0.8291 0.0
O47 O 0.02057 0.89353 0.64114 0.0
O48 O 0.03997 0.86248 0.62827 0.0
C49 C 0.08205 0.93301 0.87381 0.0
O50 O 0.061 0.84101 0.81503 0.0
O51 O 0.09794 0.86754 0.87591 0.0
O52 O 0.85991 0.9199 0.77478 0.0
O53 O 0.87338 0.8892 0.74898 0.0
C54 C 0.91818 0.93372 0.65226 0.0
C55 C 0.03525 0.87968 0.60646 0.0
C56 C 0.91072 0.8496 0.65479 0.0
O57 O 0.90693 0.86808 0.64115 0.0
O58 O 0.95708 0.84125 0.69305 0.0
C59 C 0.15952 0.88021 0.75398 0.0
O60 O 0.9786 0.88808 0.87936 0.0
O61 O 0.95522 0.91901 0.89165 0.0
C62 C 0.08946 0.84901 0.86753 0.0
C63 C 0.96045 0.9017 0.91304 0.0
Fe64 Fe 0.56502 0.64282 0.31729 0.0
O65 O 0.51398 0.66211 0.25927 0.0
Fe66 Fe 0.56516 0.60318 0.21459 0.0
Fe67 Fe 0.46456 0.68279 0.29379 0.0
O68 O 0.52042 0.62382 0.25451 0.0
O69 O 0.5159 0.62383 0.2486 0.0
O70 O 0.50783 0.66195 0.25439 0.0
Fe71 Fe 0.46348 0.64298 0.19103 0.0
C72 C 0.47887 0.65428 0.40846 0.0
O73 O 0.60649 0.66631 0.37334 0.0
O74 O 0.55536 0.693 0.32149 0.0
O75 O 0.53501 0.64622 0.13547 0.0
O76 O 0.559 0.61537 0.12267 0.0
O77 O 0.65486 0.61475 0.23892 0.0
O78 O 0.64046 0.64535 0.26554 0.0
O79 O 0.45085 0.69297 0.20005 0.0
O80 O 0.415 0.66636 0.13903 0.0
C81 C 0.67546 0.63185 0.24874 0.0
O82 O 0.42606 0.61957 0.13108 0.0
O83 O 0.47459 0.59318 0.18568 0.0
O84 O 0.49363 0.6405 0.37357 0.0
O85 O 0.47373 0.67149 0.38678 0.0
C86 C 0.60214 0.68477 0.35955 0.0
C87 C 0.42286 0.68491 0.14746 0.0
C88 C 0.35432 0.65335 0.26181 0.0
O89 O 0.37526 0.67044 0.27247 0.0
O90 O 0.38845 0.63988 0.243 0.0
C91 C 0.55342 0.63271 0.10156 0.0
O92 O 0.57574 0.59267 0.30721 0.0
O93 O 0.6082 0.61903 0.37151 0.0
C94 C 0.43282 0.60096 0.14129 0.0
C95 C 0.5974 0.6006 0.36211 0.0
Fe96 Fe 0.44966 0.43097 0.80099 0.0
O97 O 0.4943 0.41027 0.76126 0.0
Fe98 Fe 0.55128 0.39112 0.82465 0.0
Fe99 Fe 0.44964 0.39128 0.69854 0.0
O100 O 0.49882 0.41027 0.76712 0.0
O101 O 0.50676 0.37213 0.76142 0.0
O102 O 0.50061 0.37197 0.75654 0.0
Fe103 Fe 0.54993 0.35129 0.72192 0.0
C104 C 0.33922 0.40234 0.76691 0.0
O105 O 0.43927 0.44143 0.70828 0.0
O106 O 0.40656 0.41505 0.64422 0.0
O107 O 0.63928 0.36359 0.74325 0.0
O108 O 0.62617 0.39418 0.77246 0.0
O109 O 0.58883 0.41454 0.88449 0.0
O110 O 0.54029 0.44093 0.8299 0.0
O111 O 0.52101 0.39359 0.64231 0.0
O112 O 0.54082 0.3626 0.62887 0.0
C113 C 0.58204 0.43315 0.87429 0.0
O114 O 0.56372 0.3411 0.81572 0.0
O115 O 0.59975 0.36774 0.87658 0.0
O116 O 0.35991 0.41943 0.77659 0.0
O117 O 0.37419 0.3888 0.75031 0.0
C118 C 0.41763 0.43347 0.65342 0.0
C119 C 0.53575 0.37983 0.60734 0.0
C120 C 0.41232 0.34935 0.65622 0.0
O121 O 0.40808 0.36781 0.64248 0.0
O122 O 0.45907 0.34108 0.69423 0.0
C123 C 0.66028 0.38069 0.75378 0.0
O124 O 0.47993 0.38794 0.88048 0.0
O125 O 0.45567 0.41879 0.89297 0.0
C126 C 0.59178 0.34918 0.86823 0.0
C127 C 0.46145 0.40148 0.91425 0.0
H128 H 0.0139 0.16484 0.02938 0.0
H129 H 1.00112 0.1684 0.91175 0.0
H130 H 0.08787 0.11244 0.89698 0.0
H131 H 0.09914 0.10847 0.01453 0.0
H132 H 0.08108 0.16877 0.82292 0.0
H133 H 0.92032 0.10564 0.77963 0.0
H134 H 0.94382 0.11559 0.85924 0.0
H135 H 0.99703 0.09965 0.82476 0.0
C136 C 0.03112 0.15336 1.00134 0.0
C137 C 0.05716 0.13628 0.0316 0.0
C138 C 0.0235 0.1554 0.9339 0.0
C139 C 0.04188 0.14047 0.89523 0.0
C140 C 0.07145 0.12391 0.92555 0.0
H141 H 0.04736 0.12724 0.48481 0.0
H142 H 0.05722 0.12351 0.60228 0.0
C143 C 0.07857 0.12176 0.99294 0.0
C144 C 0.02899 0.14213 0.82329 0.0
H145 H 0.95479 0.1198 0.68674 0.0
C146 C 0.05315 0.15812 0.79324 0.0
C147 C 0.99209 0.1283 0.78441 0.0
C148 C 0.96125 0.11144 0.81362 0.0
C149 C 0.04269 0.1604 0.72551 0.0
C150 C 0.00676 0.14641 0.6868 0.0
C151 C 0.98235 0.13049 0.71665 0.0
C152 C 0.99581 0.14781 0.61502 0.0
C153 C 0.07126 0.17753 0.69559 0.0
C154 C 0.95673 0.16241 0.58297 0.0
C155 C 0.94963 0.16423 0.51538 0.0
C156 C 0.9813 0.1514 0.47867 0.0
C157 C 0.01969 0.13667 0.5111 0.0
C158 C 0.02634 0.13476 0.57845 0.0
H159 H 0.10665 0.18521 0.73113 0.0
H160 H 0.09511 0.17292 0.65422 0.0
H161 H 0.03248 0.18785 0.6767 0.0
H162 H 0.93247 0.17257 0.61035 0.0
H163 H 0.92031 0.17587 0.49193 0.0
H164 H 0.97012 0.90747 0.53022 0.0
H165 H 0.95991 0.91118 0.41274 0.0
H166 H 0.08119 0.86135 0.40386 0.0
H167 H 0.09368 0.85805 0.52228 0.0
H168 H 0.06128 0.91435 0.32772 0.0
H169 H 0.90656 0.84955 0.28357 0.0
H170 H 0.91934 0.86172 0.36068 0.0
H171 H 0.98093 0.84653 0.33739 0.0
C172 C 0.99698 0.89784 0.50376 0.0
C173 C 0.03448 0.88289 0.53599 0.0
C174 C 0.99012 0.89975 0.43638 0.0
C175 C 0.01952 0.8865 0.39956 0.0
C176 C 0.05775 0.87167 0.43141 0.0
H177 H 1.00003 0.86943 0.98502 0.0
H178 H 0.01272 0.86586 0.10265 0.0
C179 C 0.06507 0.86985 0.49903 0.0
C180 C 0.00834 0.88792 0.32776 0.0
H181 H 0.93286 0.86579 0.19167 0.0
C182 C 0.03324 0.90375 0.29785 0.0
C183 C 0.97177 0.87406 0.28906 0.0
C184 C 0.94258 0.85704 0.31899 0.0
C185 C 0.02341 0.90596 0.23009 0.0
C186 C 0.98592 0.89224 0.19123 0.0
C187 C 0.96125 0.87636 0.22133 0.0
C188 C 0.97299 0.89392 0.11927 0.0
C189 C 0.05478 0.92271 0.20084 0.0
C190 C 0.94401 0.91057 0.08898 0.0
C191 C 0.93693 0.91272 0.02158 0.0
C192 C 0.95781 0.89813 0.98287 0.0
C193 C 0.98323 0.88097 0.0131 0.0
C194 C 0.99079 0.87892 0.08054 0.0
H195 H 0.09596 0.92839 0.23477 0.0
H196 H 0.072 0.91848 0.15517 0.0
H197 H 0.01942 0.93461 0.18975 0.0
H198 H 0.92804 0.92211 0.11758 0.0
H199 H 0.91685 0.92608 1.00004 0.0
H200 H 0.51709 0.66553 0.03126 0.0
H201 H 0.50578 0.6697 0.91374 0.0
H202 H 0.58241 0.61257 0.89558 0.0
H203 H 0.59379 0.60814 0.01316 0.0
H204 H 0.63069 0.64496 0.8176 0.0
H205 H 0.36548 0.63816 0.7895 0.0
H206 H 0.40237 0.65475 0.84971 0.0
H207 H 0.41755 0.62936 0.86032 0.0
C208 C 0.53266 0.65394 1.00259 0.0
C209 C 0.55626 0.63645 0.03189 0.0
C210 C 0.52568 0.65632 0.93531 0.0
C211 C 0.54243 0.64135 0.89602 0.0
C212 C 0.56892 0.62426 0.92513 0.0
H213 H 0.54387 0.62628 0.48376 0.0
H214 H 0.55539 0.62247 0.60103 0.0
C215 C 0.57556 0.62179 0.99239 0.0
C216 C 0.53032 0.64326 0.82444 0.0
H217 H 0.41037 0.6448 0.69498 0.0
C218 C 0.58261 0.64491 0.79065 0.0
C219 C 0.46747 0.64329 0.78964 0.0
C220 C 0.40978 0.64118 0.8238 0.0
C221 C 0.57372 0.64684 0.72283 0.0
C222 C 0.51081 0.64651 0.6877 0.0
C223 C 0.45851 0.64498 0.72175 0.0
C224 C 0.49842 0.64768 0.61569 0.0
C225 C 0.63185 0.64968 0.68975 0.0
C226 C 0.45954 0.66244 0.5842 0.0
C227 C 0.45087 0.66416 0.51653 0.0
C228 C 0.48052 0.65106 0.47902 0.0
C229 C 0.51803 0.63604 0.51072 0.0
C230 C 0.52614 0.6342 0.57813 0.0
H231 H 0.6729 0.65545 0.72364 0.0
H232 H 0.64678 0.63556 0.6719 0.0
H233 H 0.62137 0.65972 0.64782 0.0
H234 H 0.43735 0.67297 0.61209 0.0
H235 H 0.42216 0.67601 0.49366 0.0
H236 H 0.50271 0.36937 0.98605 0.0
H237 H 0.51398 0.36551 0.10327 0.0
H238 H 0.42632 0.42132 0.11866 0.0
H239 H 0.41677 0.42561 1.0013 0.0
H240 H 0.5329 0.41815 0.20284 0.0
H241 H 0.38984 0.35226 0.22278 0.0
H242 H 0.45108 0.34858 0.17318 0.0
H243 H 0.38701 0.36546 0.14772 0.0
C244 C 0.48445 0.38068 0.01404 0.0
C245 C 0.45844 0.39778 0.98393 0.0
C246 C 0.4908 0.3784 0.08133 0.0
C247 C 0.4702 0.39298 0.12005 0.0
C248 C 0.44242 0.40982 0.08993 0.0
H249 H 0.46849 0.4073 0.53171 0.0
H250 H 0.45826 0.41137 0.41445 0.0
C251 C 0.43662 0.4122 0.02267 0.0
C252 C 0.4816 0.39126 0.19207 0.0
H253 H 0.45832 0.36195 0.31867 0.0
C254 C 0.51612 0.40592 0.22808 0.0
C255 C 0.45992 0.37529 0.22531 0.0
C256 C 0.41936 0.35961 0.19029 0.0
C257 C 0.53022 0.4049 0.29599 0.0
C258 C 0.5093 0.38882 0.32892 0.0
C259 C 0.47491 0.37416 0.29317 0.0
C260 C 0.52035 0.38732 0.4007 0.0
C261 C 0.5681 0.42093 0.33207 0.0
C262 C 0.55869 0.37245 0.43211 0.0
C263 C 0.56592 0.37042 0.49966 0.0
C264 C 0.53465 0.38318 0.53693 0.0
C265 C 0.49619 0.39799 0.50506 0.0
C266 C 0.48945 0.40012 0.43779 0.0
H267 H 0.59249 0.43004 0.29937 0.0
H268 H 0.5352 0.4303 0.35497 0.0
H269 H 0.60458 0.41497 0.3711 0.0
H270 H 0.58245 0.36229 0.40426 0.0
H271 H 0.595 0.35866 0.52263 0.0
H272 H 0.78193 0.12255 0.21743 0.0
H273 H 0.66606 0.11908 0.21527 0.0
H274 H 0.66015 0.17326 0.31482 0.0
H275 H 0.77511 0.17697 0.31678 0.0
H276 H 0.58998 0.11874 0.31645 0.0
H277 H 0.52895 0.18122 0.15076 0.0
H278 H 0.6075 0.1702 0.16351 0.0
H279 H 0.58431 0.18664 0.22226 0.0
C280 C 0.75609 0.13364 0.23942 0.0
C281 C 0.78782 0.15014 0.26663 0.0
C282 C 0.68986 0.13166 0.23795 0.0
C283 C 0.65434 0.14615 0.2635 0.0
C284 C 0.68635 0.16216 0.2933 0.0
H285 H 0.25032 0.16329 0.29331 0.0
H286 H 0.36629 0.16699 0.29664 0.0
C287 C 0.75225 0.16418 0.29466 0.0
C288 C 0.58373 0.14469 0.25876 0.0
H289 H 0.44356 0.16739 0.19701 0.0
C290 C 0.55792 0.1293 0.29007 0.0
C291 C 0.54204 0.15857 0.22454 0.0
C292 C 0.56691 0.175 0.18783 0.0
C293 C 0.49153 0.12758 0.28901 0.0
C294 C 0.44982 0.14143 0.25463 0.0
C295 C 0.47563 0.15684 0.22344 0.0
C296 C 0.37919 0.13984 0.24931 0.0
C297 C 0.4667 0.11116 0.32583 0.0
C298 C 0.34782 0.1237 0.21964 0.0
C299 C 0.28191 0.12154 0.21768 0.0
C300 C 0.24568 0.13557 0.2449 0.0
C301 C 0.27674 0.1522 0.27197 0.0
C302 C 0.343 0.15431 0.27409 0.0
H303 H 0.50455 0.1051 0.36335 0.0
H304 H 0.4257 0.11592 0.34963 0.0
H305 H 0.44996 0.09942 0.29158 0.0
H306 H 0.37453 0.11262 0.19866 0.0
H307 H 0.25953 0.10867 0.19566 0.0
H308 H 0.76781 0.87008 0.73277 0.0
H309 H 0.65196 0.86612 0.72986 0.0
H310 H 0.63799 0.92403 0.80104 0.0
H311 H 0.75281 0.9282 0.804 0.0
H312 H 0.57425 0.87042 0.83143 0.0
H313 H 0.50828 0.92343 0.63195 0.0
H314 H 0.58759 0.91308 0.65063 0.0
H315 H 0.56337 0.93235 0.69907 0.0
C316 C 0.74017 0.88192 0.74824 0.0
C317 C 0.76972 0.89952 0.76808 0.0
C318 C 0.67398 0.87965 0.74641 0.0
C319 C 0.63629 0.89493 0.76398 0.0
C320 C 0.66597 0.91221 0.78591 0.0
H321 H 0.23127 0.91288 0.78578 0.0
H322 H 0.34709 0.91659 0.7879 0.0
C323 C 0.73183 0.9145 0.78785 0.0
C324 C 0.56584 0.89299 0.75945 0.0
H325 H 0.42387 0.91213 0.68544 0.0
C326 C 0.54132 0.87943 0.79925 0.0
C327 C 0.52305 0.90486 0.71759 0.0
C328 C 0.5467 0.91914 0.67191 0.0
C329 C 0.47506 0.87768 0.79921 0.0
C330 C 0.43227 0.88958 0.75747 0.0
C331 C 0.4568 0.90311 0.71759 0.0
C332 C 0.36182 0.88777 0.75334 0.0
C333 C 0.45139 0.86337 0.84483 0.0
C334 C 0.33161 0.87057 0.7314 0.0
C335 C 0.26574 0.86843 0.72986 0.0
C336 C 0.22835 0.88347 0.7501 0.0
C337 C 0.25847 0.90099 0.76995 0.0
C338 C 0.32465 0.90312 0.77134 0.0
H339 H 0.48989 0.85897 0.88454 0.0
H340 H 0.41077 0.86948 0.86645 0.0
H341 H 0.43427 0.85023 0.81751 0.0
H342 H 0.35918 0.8587 0.71597 0.0
H343 H 0.24439 0.85478 0.71374 0.0
H344 H 0.74822 0.6633 0.29255 0.0
H345 H 0.86369 0.66749 0.29345 0.0
H346 H 0.87296 0.61272 0.19816 0.0
H347 H 0.75828 0.60847 0.1964 0.0
H348 H 0.96121 0.64211 0.35381 0.0
H349 H 0.96874 0.64891 0.09024 0.0
H350 H 0.89595 0.65213 0.1247 0.0
H351 H 0.92531 0.62827 0.11205 0.0
C352 C 0.77466 0.6523 0.27084 0.0
C353 C 0.74387 0.63555 0.24439 0.0
C354 C 0.84066 0.65468 0.27165 0.0
C355 C 0.87677 0.6405 0.24529 0.0
C356 C 0.84591 0.62399 0.21777 0.0
H357 H 0.28042 0.62214 0.21773 0.0
H358 H 0.16497 0.61823 0.21739 0.0
C359 C 0.78026 0.62155 0.21719 0.0
C360 C 0.94727 0.6423 0.24955 0.0
H361 H 0.06843 0.64372 0.15809 0.0
C362 C 0.98468 0.64262 0.31106 0.0
C363 C 0.97777 0.64278 0.1937 0.0
C364 C 0.93994 0.64318 0.1264 0.0
C365 C 0.05189 0.64306 0.31822 0.0
C366 C 0.08241 0.64351 0.26236 0.0
C367 C 0.04497 0.64322 0.20086 0.0
C368 C 0.15298 0.64512 0.26656 0.0
C369 C 0.08969 0.64263 0.38554 0.0
C370 C 0.18449 0.66147 0.29453 0.0
C371 C 0.25019 0.66374 0.29487 0.0
C372 C 0.28597 0.64974 0.2669 0.0
C373 C 0.25451 0.63314 0.24005 0.0
C374 C 0.1885 0.63092 0.23955 0.0
H375 H 0.06085 0.6369 0.42165 0.0
H376 H 0.13366 0.63367 0.38724 0.0
H377 H 0.10433 0.65753 0.39996 0.0
H378 H 0.15792 0.67276 0.31462 0.0
H379 H 0.27264 0.67672 0.31595 0.0
H380 H 0.73371 0.41221 0.79564 0.0
H381 H 0.84913 0.41615 0.79588 0.0
H382 H 0.8572 0.36093 0.70318 0.0
H383 H 0.74253 0.35695 0.70185 0.0
H384 H 0.94595 0.39135 0.85731 0.0
H385 H 0.95402 0.39581 0.59338 0.0
H386 H 0.88096 0.39919 0.62721 0.0
H387 H 0.91116 0.37528 0.61689 0.0
C388 C 0.75983 0.40106 0.77429 0.0
C389 C 0.72866 0.38427 0.74869 0.0
C390 C 0.82583 0.4033 0.77473 0.0
C391 C 0.86164 0.38892 0.74893 0.0
C392 C 0.83042 0.37237 0.72226 0.0
H393 H 0.26683 0.3706 0.72528 0.0
H394 H 0.15137 0.36642 0.72439 0.0
C395 C 0.76473 0.37008 0.72194 0.0
C396 C 0.9322 0.39059 0.75309 0.0
H397 H 0.05364 0.39112 0.66186 0.0
C398 C 0.9695 0.39145 0.81459 0.0
C399 C 0.96286 0.39052 0.69731 0.0
C400 C 0.92523 0.39032 0.62992 0.0
C401 C 0.0367 0.39196 0.82185 0.0
C402 C 0.06734 0.39191 0.76606 0.0
C403 C 0.03007 0.39102 0.70457 0.0
C404 C 0.13784 0.39375 0.77028 0.0
C405 C 0.07436 0.39218 0.88922 0.0
C406 C 0.16844 0.41046 0.79648 0.0
C407 C 0.2341 0.41289 0.7971 0.0
C408 C 0.27075 0.39869 0.77118 0.0
C409 C 0.2402 0.38176 0.74598 0.0
C410 C 0.1742 0.37938 0.74518 0.0
H411 H 0.0456 0.38672 0.92581 0.0
H412 H 0.11863 0.38331 0.89193 0.0
H413 H 0.08847 0.40723 0.90215 0.0
H414 H 0.14121 0.42188 0.81505 0.0
H415 H 0.25586 0.42611 0.81689 0.0
H416 H 0.36454 0.3468 0.52727 0.0
H417 H 0.30748 0.31887 0.4743 0.0
H418 H 0.2989 0.29324 0.6615 0.0
H419 H 0.35503 0.32093 0.71398 0.0
H420 H 0.3614 0.28164 0.49104 0.0
H421 H 0.12027 0.28271 0.56528 0.0
H422 H 0.17075 0.30377 0.56971 0.0
H423 H 0.18387 0.2855 0.63186 0.0
C424 C 0.34794 0.33555 0.55684 0.0
C425 C 0.36361 0.33599 0.62454 0.0
C426 C 0.31603 0.31955 0.5267 0.0
C427 C 0.29866 0.30402 0.56404 0.0
C428 C 0.31072 0.30515 0.63174 0.0
H429 H 0.15131 0.18764 0.48826 0.0
H430 H 0.20802 0.21561 0.5414 0.0
C431 C 0.34288 0.32097 0.66167 0.0
C432 C 0.27527 0.28565 0.53323 0.0
H433 H 0.15432 0.25283 0.52479 0.0
C434 C 0.31581 0.27542 0.4978 0.0
C435 C 0.21635 0.27742 0.54312 0.0
C436 C 0.17001 0.28799 0.57907 0.0
C437 C 0.29938 0.25705 0.47272 0.0
C438 C 0.24044 0.24883 0.48258 0.0
C439 C 0.19991 0.25905 0.51803 0.0
C440 C 0.21707 0.23046 0.45173 0.0
C441 C 0.34575 0.24648 0.43682 0.0
C442 C 0.20522 0.22933 0.38402 0.0
C443 C 0.17328 0.21348 0.354 0.0
C444 C 0.15255 0.19845 0.39104 0.0
C445 C 0.16794 0.1989 0.45876 0.0
C446 C 0.19964 0.21493 0.489 0.0
H447 H 0.3955 0.25174 0.45073 0.0
H448 H 0.34494 0.23069 0.4461 0.0
H449 H 0.332 0.249 0.38403 0.0
H450 H 0.21707 0.24125 0.35431 0.0
H451 H 0.16132 0.21352 0.30167 0.0
H452 H 0.53812 0.31763 0.91363 0.0
H453 H 0.59545 0.28956 0.96521 0.0
H454 H 0.77335 0.32069 0.97907 0.0
H455 H 0.71557 0.34901 0.92855 0.0
H456 H 0.68405 0.27108 0.90439 0.0
H457 H 0.79363 0.29228 0.15205 0.0
H458 H 0.72892 0.30579 0.10572 0.0
H459 H 0.80964 0.3087 0.08972 0.0
C460 C 0.58909 0.31874 0.93032 0.0
C461 C 0.62245 0.3355 0.91772 0.0
C462 C 0.62187 0.30265 0.9592 0.0
C463 C 0.68871 0.30296 0.97579 0.0
C464 C 0.72165 0.32019 0.96764 0.0
H465 H 0.97724 0.21663 0.10107 0.0
H466 H 0.91915 0.24462 0.04985 0.0
C467 C 0.68861 0.33643 0.93916 0.0
C468 C 0.72402 0.28466 0.99394 0.0
H469 H 0.83043 0.26293 0.1117 0.0
C470 C 0.7158 0.26925 0.94993 0.0
C471 C 0.76566 0.28233 0.05307 0.0
C472 C 0.77468 0.29808 0.10318 0.0
C473 C 0.74876 0.25167 0.96306 0.0
C474 C 0.79049 0.24935 0.02214 0.0
C475 C 0.79864 0.26475 0.06618 0.0
C476 C 0.82612 0.2311 0.0401 0.0
C477 C 0.7397 0.23591 0.91301 0.0
C478 C 0.79353 0.21382 0.04858 0.0
C479 C 0.82699 0.19763 0.07685 0.0
C480 C 0.89324 0.19865 0.09774 0.0
C481 C 0.92622 0.21545 0.08478 0.0
C482 C 0.893 0.2315 0.05613 0.0
H483 H 0.72027 0.24166 0.8642 0.0
H484 H 0.78556 0.22829 0.91014 0.0
H485 H 0.70515 0.22521 0.92681 0.0
H486 H 0.74181 0.21326 0.03756 0.0
H487 H 0.80033 0.18501 0.08775 0.0
H488 H 0.65041 0.68723 0.48854 0.0
H489 H 0.70613 0.71537 0.54164 0.0
H490 H 0.71379 0.74123 0.35461 0.0
H491 H 0.65912 0.71329 0.30192 0.0
H492 H 0.82421 0.74766 0.44419 0.0
H493 H 0.60126 0.7658 0.54342 0.0
H494 H 0.6351 0.74241 0.56543 0.0
H495 H 0.60374 0.7476 0.48231 0.0
C496 C 0.66623 0.69863 0.45903 0.0
C497 C 0.65056 0.6982 0.39133 0.0
C498 C 0.69711 0.71478 0.48925 0.0
C499 C 0.7126 0.73057 0.45195 0.0
C500 C 0.70182 0.7293 0.38428 0.0
H501 H 0.86345 0.8473 0.52552 0.0
H502 H 0.80763 0.81928 0.47174 0.0
C503 C 0.67082 0.71331 0.35426 0.0
C504 C 0.73516 0.74908 0.4823 0.0
H505 H 0.6884 0.78699 0.56851 0.0
C506 C 0.79465 0.75626 0.47148 0.0
C507 C 0.69594 0.76037 0.51703 0.0
C508 C 0.63019 0.7538 0.52744 0.0
C509 C 0.81669 0.77428 0.49569 0.0
C510 C 0.7775 0.78557 0.53047 0.0
C511 C 0.71797 0.77839 0.54121 0.0
C512 C 0.80014 0.80404 0.56111 0.0
C513 C 0.88247 0.78084 0.48533 0.0
C514 C 0.81033 0.80526 0.6288 0.0
C515 C 0.84132 0.82119 0.6592 0.0
C516 C 0.8622 0.83629 0.62251 0.0
C517 C 0.84713 0.83592 0.55475 0.0
C518 C 0.81622 0.81982 0.52414 0.0
H519 H 0.9114 0.76883 0.46941 0.0
H520 H 0.87763 0.79221 0.44729 0.0
H521 H 0.90891 0.78704 0.53045 0.0
H522 H 0.79789 0.79333 0.65823 0.0
H523 H 0.85256 0.82117 0.71158 0.0
H524 H 0.47441 0.7175 0.10665 0.0
H525 H 0.41516 0.74536 0.05619 0.0
H526 H 0.2414 0.712 0.03012 0.0
H527 H 0.30085 0.68398 0.08157 0.0
H528 H 0.33448 0.75399 0.94045 0.0
H529 H 0.20483 0.75562 0.15331 0.0
H530 H 0.27406 0.74045 0.15056 0.0
H531 H 0.19735 0.73363 0.10762 0.0
C532 C 0.42398 0.71591 0.08806 0.0
C533 C 0.39208 0.69864 0.0981 0.0
C534 C 0.39012 0.73186 0.05958 0.0
C535 C 0.32363 0.73091 0.04108 0.0
C536 C 0.29256 0.71313 0.04535 0.0
H537 H 0.03795 0.81638 0.90822 0.0
H538 H 0.09726 0.78848 0.95828 0.0
C539 C 0.32666 0.69705 0.0737 0.0
C540 C 0.28698 0.74897 0.02314 0.0
H541 H 0.17798 0.77981 0.07378 0.0
C542 C 0.30019 0.75964 0.96948 0.0
C543 C 0.24292 0.75642 0.06173 0.0
C544 C 0.22915 0.74607 0.12187 0.0
C545 C 0.26953 0.77738 0.95249 0.0
C546 C 0.22545 0.78484 0.99108 0.0
C547 C 0.21225 0.77416 0.04473 0.0
C548 C 0.18883 0.8029 0.9732 0.0
C549 C 0.28332 0.78774 0.89237 0.0
C550 C 0.21993 0.82067 0.96894 0.0
C551 C 0.1858 0.83678 0.94083 0.0
C552 C 0.12032 0.83522 0.91666 0.0
C553 C 0.08842 0.81795 0.92665 0.0
C554 C 0.12232 0.80197 0.95489 0.0
H555 H 0.30759 0.77819 0.8609 0.0
H556 H 0.23844 0.79338 0.86371 0.0
H557 H 0.3152 0.80016 0.90665 0.0
H558 H 0.27112 0.82179 0.98404 0.0
H559 H 0.21163 0.84984 0.93298 0.0
H560 H 0.86688 0.06856 0.15611 0.0
H561 H 0.89374 0.03848 0.10593 0.0
H562 H 0.9825 0.07076 0.96668 0.0
H563 H 0.95581 0.10091 0.01721 0.0
H564 H 0.88946 0.01948 0.98579 0.0
H565 H 0.13459 0.04453 0.08308 0.0
H566 H 0.06346 0.05647 0.10149 0.0
H567 H 0.08951 0.0603 0.02438 0.0
C568 C 0.88815 0.06931 0.11206 0.0
C569 C 0.91015 0.08707 0.09127 0.0
C570 C 0.90467 0.05204 0.0841 0.0
C571 C 0.94264 0.05235 0.03445 0.0
C572 C 0.95479 0.07018 1.00629 0.0
H573 H 0.14974 0.96555 0.86096 0.0
H574 H 0.12264 0.99547 0.91195 0.0
C575 C 0.93807 0.08747 0.03425 0.0
C576 C 0.97688 0.03446 0.01956 0.0
H577 H 0.12649 1.01419 0.03182 0.0
C578 C 0.94123 0.01832 0.99578 0.0
C579 C 0.04457 0.03286 0.03358 0.0
C580 C 0.08545 0.04937 0.06258 0.0
C581 C 0.97137 1.0008 0.98404 0.0
C582 C 0.03907 0.99921 0.998 0.0
C583 C 0.07471 1.01534 0.02186 0.0
C584 C 0.07337 0.98136 0.98271 0.0
C585 C 0.93047 0.9843 0.95496 0.0
C586 C 0.06114 0.96345 0.01026 0.0
C587 C 0.07798 0.94625 0.98181 0.0
C588 C 0.10612 0.94683 0.92493 0.0
C589 C 0.12826 0.96466 0.90487 0.0
C590 C 0.1116 0.98183 0.93328 0.0
H591 H 0.88132 0.98915 0.93455 0.0
H592 H 0.95242 0.97723 0.91596 0.0
H593 H 0.92646 0.97335 0.99309 0.0
H594 H 0.03331 0.96274 0.04975 0.0
H595 H 0.06021 0.93275 0.99839 0.0
H596 H 0.18336 0.07185 0.40063 0.0
H597 H 0.15426 0.04222 0.45392 0.0
H598 H 0.98049 0.06961 0.49301 0.0
H599 H 0.00885 0.09885 0.43906 0.0
H600 H 0.03553 0.04259 0.59102 0.0
H601 H 0.00711 1.01291 0.34143 0.0
H602 H 0.08547 0.02184 0.3722 0.0
H603 H 0.01876 0.03829 0.35791 0.0
C604 C 0.14103 0.07187 0.42422 0.0
C605 C 0.09966 0.08792 0.41811 0.0
C606 C 0.12381 0.05486 0.45353 0.0
C607 C 0.06463 0.05365 0.47624 0.0
C608 C 0.02649 0.07027 0.47606 0.0
H609 H 0.8347 0.96288 0.61371 0.0
H610 H 0.86441 0.99248 0.56063 0.0
C611 C 0.0436 0.08722 0.44668 0.0
C612 C 0.03818 0.03473 0.49199 0.0
H613 H 0.98345 0.99199 0.42413 0.0
C614 C 0.02418 0.03151 0.55466 0.0
C615 C 0.02264 0.02042 0.44401 0.0
C616 C 0.03366 0.02351 0.37492 0.0
C617 C 0.99635 1.01416 0.57113 0.0
C618 C 0.98079 0.99985 0.52315 0.0
C619 C 0.99483 1.00307 0.46049 0.0
C620 C 0.95414 0.98096 0.53886 0.0
C621 C 0.98526 1.01108 0.6402 0.0
C622 C 0.9922 0.96432 0.53933 0.0
C623 C 0.97476 0.94739 0.56861 0.0
C624 C 0.91843 0.94673 0.59676 0.0
C625 C 0.87721 0.96282 0.59041 0.0
C626 C 0.89477 0.97981 0.56123 0.0
H627 H 0.01179 0.02167 0.67371 0.0
H628 H 0.93344 1.01275 0.64287 0.0
H629 H 1.00013 0.99629 0.65722 0.0
H630 H 0.03833 0.96494 0.52266 0.0
H631 H 0.00939 0.93573 0.57642 0.0
H632 H 0.36532 0.56845 0.15508 0.0
H633 H 0.39254 0.53845 0.10464 0.0
H634 H 0.48117 0.57097 0.96586 0.0
H635 H 0.45406 0.60104 0.0166 0.0
H636 H 0.38881 0.51956 0.98437 0.0
H637 H 0.63343 0.54489 0.08242 0.0
H638 H 0.56205 0.55672 0.1007 0.0
H639 H 0.58825 0.56063 0.0237 0.0
C640 C 0.38662 0.56926 0.11105 0.0
C641 C 0.40853 0.58707 0.0905 0.0
C642 C 0.40335 0.55205 0.08295 0.0
C643 C 0.44142 0.55245 0.03339 0.0
C644 C 0.45339 0.57032 1.0054 0.0
H645 H 0.64975 0.46565 0.86075 0.0
H646 H 0.62245 0.49565 0.91114 0.0
C647 C 0.43644 0.58756 0.03349 0.0
C648 C 0.47597 0.53463 0.01846 0.0
H649 H 0.62589 0.51455 0.03115 0.0
C650 C 0.4406 0.51846 0.9945 0.0
C651 C 0.54367 0.53312 0.03267 0.0
C652 C 0.58425 0.54967 0.06183 0.0
C653 C 0.47103 0.50099 0.98283 0.0
C654 C 0.53873 0.49948 0.99705 0.0
C655 C 0.5741 0.51565 0.021 0.0
C656 C 0.57328 0.48165 0.98217 0.0
C657 C 0.43043 0.48444 0.95363 0.0
C658 C 0.56116 0.46379 0.01007 0.0
C659 C 0.57813 0.44654 0.982 0.0
C660 C 0.60627 0.44703 0.92512 0.0
C661 C 0.6283 0.46484 0.90469 0.0
C662 C 0.61152 0.48205 0.93275 0.0
H663 H 0.3813 0.48924 0.93294 0.0
H664 H 0.45269 0.47738 0.91483 0.0
H665 H 0.42631 0.4735 0.99177 0.0
H666 H 0.53326 0.46314 0.04951 0.0
H667 H 0.56035 0.43307 0.99879 0.0
H668 H 0.33488 0.46271 0.61376 0.0
H669 H 0.36442 0.49193 0.55862 0.0
H670 H 0.53892 0.4641 0.52353 0.0
H671 H 0.5099 0.4353 0.57897 0.0
H672 H 0.47294 0.51076 0.61348 0.0
H673 H 0.49105 0.49462 0.3572 0.0
H674 H 0.44603 0.4797 0.40519 0.0
H675 H 0.53167 0.47722 0.41293 0.0
C676 C 0.37736 0.46246 0.59039 0.0
C677 C 0.41854 0.44638 0.59774 0.0
C678 C 0.39474 0.47924 0.55981 0.0
C679 C 0.45369 0.48017 0.53641 0.0
C680 C 0.49239 0.46359 0.53932 0.0
H681 H 0.68132 0.5716 0.40145 0.0
H682 H 0.65286 0.54215 0.45617 0.0
C683 C 0.47509 0.44689 0.56996 0.0
C684 C 0.47977 0.49905 0.5193 0.0
H685 H 0.5448 0.52285 0.40158 0.0
C686 C 0.48807 0.51348 0.56688 0.0
C687 C 0.50063 0.50245 0.45904 0.0
C688 C 0.49141 0.48774 0.40544 0.0
C689 C 0.51718 0.53114 0.55605 0.0
C690 C 0.53784 0.53457 0.49572 0.0
C691 C 0.52971 0.52012 0.44819 0.0
C692 C 0.56314 0.55355 0.47845 0.0
C693 C 0.52649 0.54583 0.60969 0.0
C694 C 0.52374 0.56998 0.47563 0.0
C695 C 0.5404 0.58679 0.44521 0.0
C696 C 0.59701 0.58758 0.41761 0.0
C697 C 0.63881 0.57164 0.42476 0.0
C698 C 0.62204 0.55473 0.45507 0.0
H699 H 0.52727 0.53892 0.65794 0.0
H700 H 0.57169 0.55395 0.60969 0.0
H701 H 0.48603 0.55628 0.60251 0.0
H702 H 0.47722 0.56926 0.49138 0.0
H703 H 0.50507 0.59824 0.43623 0.0
loop_
_geom_bond_atom_site_label_1
_geom_bond_atom_site_label_2
_geom_bond_distance
_geom_bond_site_symmetry_2
_ccdc_geom_bond_type
Fe0 O1 1.886 . S
Fe0 O4 1.715 . S
Fe0 O9 2.077 . S
Fe0 O14 1.935 . S
Fe0 O20 2.077 . S
Fe0 O29 1.935 . S
O1 Fe0 1.886 . S
O1 Fe3 1.715 1_455 S
Fe2 O4 1.886 . S
Fe2 O5 1.715 1_455 S
Fe2 O12 1.935 . S
Fe2 O13 2.077 . S
Fe2 O19 1.935 1_455 S
Fe2 O28 2.077 . S
Fe3 O1 1.715 1_655 S
Fe3 O6 1.886 . S
Fe3 O10 1.935 1_655 S
Fe3 O15 2.077 . S
Fe3 O21 1.935 . S
Fe3 O25 2.077 . S
O4 Fe0 1.715 . S
O4 Fe2 1.886 . S
O5 Fe2 1.715 1_655 S
O5 Fe7 1.886 . S
O6 Fe3 1.886 . S
O6 Fe7 1.715 . S
Fe7 O5 1.886 . S
Fe7 O6 1.715 . S
Fe7 O11 2.077 . S
Fe7 O16 1.935 . S
Fe7 O18 2.077 . S
Fe7 O26 1.935 . S
C8 O20 1.381 1_655 S
C8 O21 1.421 . S
O9 Fe0 2.077 . S
O9 C22 1.381 . S
O10 Fe3 1.935 1_455 S
O10 C22 1.421 . S
O11 Fe7 2.077 . S
O11 C27 1.381 1_655 S
O12 Fe2 1.935 . S
O12 C27 1.421 . S
O13 Fe2 2.077 . S
O13 C17 1.381 . S
O14 Fe0 1.935 . S
O14 C17 1.421 . S
O15 Fe3 2.077 . S
O15 C23 1.381 . S
O16 Fe7 1.935 . S
O16 C23 1.421 . S
C17 O13 1.381 . S
C17 O14 1.421 . S
O18 Fe7 2.077 . S
O18 C30 1.381 . S
O19 Fe2 1.935 1_655 S
O19 C30 1.421 . S
O20 Fe0 2.077 . S
O20 C8 1.381 1_455 S
O21 Fe3 1.935 . S
O21 C8 1.421 . S
C22 O9 1.381 . S
C22 O10 1.421 . S
C23 O15 1.381 . S
C23 O16 1.421 . S
C24 O25 1.381 . S
C24 O26 1.421 . S
O25 Fe3 2.077 . S
O25 C24 1.381 . S
O26 Fe7 1.935 . S
O26 C24 1.421 . S
C27 O11 1.381 1_455 S
C27 O12 1.421 . S
O28 Fe2 2.077 . S
O28 C31 1.381 . S
O29 Fe0 1.935 . S
O29 C31 1.421 . S
C30 O18 1.381 . S
C30 O19 1.421 . S
C31 O28 1.381 . S
C31 O29 1.421 . S
Fe32 O33 1.886 . S
Fe32 O36 1.715 1_655 S
Fe32 O41 2.077 . S
Fe32 O46 1.935 1_655 S
Fe32 O52 2.077 . S
Fe32 O61 1.935 . S
O33 Fe32 1.886 . S
O33 Fe35 1.715 . S
Fe34 O36 1.886 . S
Fe34 O37 1.715 . S
Fe34 O44 1.935 . S
Fe34 O45 2.077 . S
Fe34 O51 1.935 . S
Fe34 O60 2.077 . S
Fe35 O33 1.715 . S
Fe35 O38 1.886 . S
Fe35 O42 1.935 . S
Fe35 O47 2.077 . S
Fe35 O53 1.935 . S
Fe35 O57 2.077 . S
O36 Fe32 1.715 1_455 S
O36 Fe34 1.886 . S
O37 Fe34 1.715 . S
O37 Fe39 1.886 . S
O38 Fe35 1.886 . S
O38 Fe39 1.715 1_655 S
Fe39 O37 1.886 . S
Fe39 O38 1.715 1_455 S
Fe39 O43 2.077 . S
Fe39 O48 1.935 . S
Fe39 O50 2.077 . S
Fe39 O58 1.935 1_455 S
C40 O52 1.381 . S
C40 O53 1.421 . S
O41 Fe32 2.077 . S
O41 C54 1.381 . S
O42 Fe35 1.935 . S
O42 C54 1.421 . S
O43 Fe39 2.077 . S
O43 C59 1.381 . S
O44 Fe34 1.935 . S
O44 C59 1.421 . S
O45 Fe34 2.077 . S
O45 C49 1.381 . S
O46 Fe32 1.935 1_455 S
O46 C49 1.421 . S
O47 Fe35 2.077 . S
O47 C55 1.381 1_655 S
O48 Fe39 1.935 . S
O48 C55 1.421 . S
C49 O45 1.381 . S
C49 O46 1.421 . S
O50 Fe39 2.077 . S
O50 C62 1.381 . S
O51 Fe34 1.935 . S
O51 C62 1.421 . S
O52 Fe32 2.077 . S
O52 C40 1.381 . S
O53 Fe35 1.935 . S
O53 C40 1.421 . S
C54 O41 1.381 . S
C54 O42 1.421 . S
C55 O47 1.381 1_455 S
C55 O48 1.421 . S
C56 O57 1.381 . S
C56 O58 1.421 . S
O57 Fe35 2.077 . S
O57 C56 1.381 . S
O58 Fe39 1.935 1_655 S
O58 C56 1.421 . S
C59 O43 1.381 . S
C59 O44 1.421 . S
O60 Fe34 2.077 . S
O60 C63 1.381 1_455 S
O61 Fe32 1.935 . S
O61 C63 1.421 . S
C62 O50 1.381 . S
C62 O51 1.421 . S
C63 O60 1.381 1_655 S
C63 O61 1.421 . S
Fe64 O65 1.886 . S
Fe64 O68 1.715 . S
Fe64 O73 2.077 . S
Fe64 O78 1.935 . S
Fe64 O84 2.077 . S
Fe64 O93 1.935 . S
O65 Fe64 1.886 . S
O65 Fe67 1.715 . S
Fe66 O68 1.886 . S
Fe66 O69 1.715 . S
Fe66 O76 1.935 . S
Fe66 O77 2.077 . S
Fe66 O83 1.935 . S
Fe66 O92 2.077 . S
Fe67 O65 1.715 . S
Fe67 O70 1.886 . S
Fe67 O74 1.935 . S
Fe67 O79 2.077 . S
Fe67 O85 1.935 . S
Fe67 O89 2.077 . S
O68 Fe64 1.715 . S
O68 Fe66 1.886 . S
O69 Fe66 1.715 . S
O69 Fe71 1.886 . S
O70 Fe67 1.886 . S
O70 Fe71 1.715 . S
Fe71 O69 1.886 . S
Fe71 O70 1.715 . S
Fe71 O75 2.077 . S
Fe71 O80 1.935 . S
Fe71 O82 2.077 . S
Fe71 O90 1.935 . S
C72 O84 1.381 . S
C72 O85 1.421 . S
O73 Fe64 2.077 . S
O73 C86 1.381 . S
O74 Fe67 1.935 . S
O74 C86 1.421 . S
O75 Fe71 2.077 . S
O75 C91 1.381 . S
O76 Fe66 1.935 . S
O76 C91 1.421 . S
O77 Fe66 2.077 . S
O77 C81 1.381 . S
O78 Fe64 1.935 . S
O78 C81 1.421 . S
O79 Fe67 2.077 . S
O79 C87 1.381 . S
O80 Fe71 1.935 . S
O80 C87 1.421 . S
C81 O77 1.381 . S
C81 O78 1.421 . S
O82 Fe71 2.077 . S
O82 C94 1.381 . S
O83 Fe66 1.935 . S
O83 C94 1.421 . S
O84 Fe64 2.077 . S
O84 C72 1.381 . S
O85 Fe67 1.935 . S
O85 C72 1.421 . S
C86 O73 1.381 . S
C86 O74 1.421 . S
C87 O79 1.381 . S
C87 O80 1.421 . S
C88 O89 1.381 . S
C88 O90 1.421 . S
O89 Fe67 2.077 . S
O89 C88 1.381 . S
O90 Fe71 1.935 . S
O90 C88 1.421 . S
C91 O75 1.381 . S
C91 O76 1.421 . S
O92 Fe66 2.077 . S
O92 C95 1.381 . S
O93 Fe64 1.935 . S
O93 C95 1.421 . S
C94 O82 1.381 . S
C94 O83 1.421 . S
C95 O92 1.381 . S
C95 O93 1.421 . S
Fe96 O97 1.886 . S
Fe96 O100 1.715 . S
Fe96 O105 2.077 . S
Fe96 O110 1.935 . S
Fe96 O116 2.077 . S
Fe96 O125 1.935 . S
O97 Fe96 1.886 . S
O97 Fe99 1.715 . S
Fe98 O100 1.886 . S
Fe98 O101 1.715 . S
Fe98 O108 1.935 . S
Fe98 O109 2.077 . S
Fe98 O115 1.935 . S
Fe98 O124 2.077 . S
Fe99 O97 1.715 . S
Fe99 O102 1.886 . S
Fe99 O106 1.935 . S
Fe99 O111 2.077 . S
Fe99 O117 1.935 . S
Fe99 O121 2.077 . S
O100 Fe96 1.715 . S
O100 Fe98 1.886 . S
O101 Fe98 1.715 . S
O101 Fe103 1.886 . S
O102 Fe99 1.886 . S
O102 Fe103 1.715 . S
Fe103 O101 1.886 . S
Fe103 O102 1.715 . S
Fe103 O107 2.077 . S
Fe103 O112 1.935 . S
Fe103 O114 2.077 . S
Fe103 O122 1.935 . S
C104 O116 1.381 . S
C104 O117 1.421 . S
O105 Fe96 2.077 . S
O105 C118 1.381 . S
O106 Fe99 1.935 . S
O106 C118 1.421 . S
O107 Fe103 2.077 . S
O107 C123 1.381 . S
O108 Fe98 1.935 . S
O108 C123 1.421 . S
O109 Fe98 2.077 . S
O109 C113 1.381 . S
O110 Fe96 1.935 . S
O110 C113 1.421 . S
O111 Fe99 2.077 . S
O111 C119 1.381 . S
O112 Fe103 1.935 . S
O112 C119 1.421 . S
C113 O109 1.381 . S
C113 O110 1.421 . S
O114 Fe103 2.077 . S
O114 C126 1.381 . S
O115 Fe98 1.935 . S
O115 C126 1.421 . S
O116 Fe96 2.077 . S
O116 C104 1.381 . S
O117 Fe99 1.935 . S
O117 C104 1.421 . S
C118 O105 1.381 . S
C118 O106 1.421 . S
C119 O111 1.381 . S
C119 O112 1.421 . S
C120 O121 1.381 . S
C120 O122 1.421 . S
O121 Fe99 2.077 . S
O121 C120 1.381 . S
O122 Fe103 1.935 . S
O122 C120 1.421 . S
C123 O107 1.381 . S
C123 O108 1.421 . S
O124 Fe98 2.077 . S
O124 C127 1.381 . S
O125 Fe96 1.935 . S
O125 C127 1.421 . S
C126 O114 1.381 . S
C126 O115 1.421 . S
C127 O124 1.381 . S
C127 O125 1.421 . S
H128 C136 0.929 1_554 S
H129 C138 0.930 . S
H130 C140 0.930 . S
H131 C143 0.929 1_554 S
H132 C146 0.931 1_455 S
H133 C148 0.960 . S
H134 C148 0.960 1_655 S
H135 C148 0.960 . S
C136 H128 0.929 1_556 S
C136 C137 1.377 1_656 S
C136 C138 1.384 . S
C137 C136 1.377 1_454 S
C137 C143 1.390 1_554 S
C138 H129 0.930 . S
C138 C136 1.384 . S
C138 C139 1.372 1_655 S
C139 C138 1.372 1_455 S
C139 C140 1.400 . S
C139 C144 1.490 . S
C140 H130 0.930 . S
C140 C139 1.400 . S
C140 C143 1.386 . S
H141 C157 0.930 . S
H142 C158 0.931 . S
C143 H131 0.929 1_556 S
C143 C137 1.390 1_556 S
C143 C140 1.386 . S
C144 C139 1.490 . S
C144 C146 1.394 1_455 S
C144 C147 1.403 . S
H145 C151 0.930 . S
C146 H132 0.931 1_655 S
C146 C144 1.394 1_655 S
C146 C149 1.403 . S
C147 C144 1.403 . S
C147 C148 1.524 . S
C147 C151 1.400 1_455 S
C148 H133 0.960 . S
C148 H134 0.960 1_455 S
C148 H135 0.960 . S
C148 C147 1.524 . S
C149 C146 1.403 . S
C149 C150 1.392 . S
C149 C153 1.495 . S
C150 C149 1.392 . S
C150 C151 1.385 . S
C150 C152 1.478 . S
C151 H145 0.930 . S
C151 C147 1.400 1_655 S
C151 C150 1.385 . S
C152 C150 1.478 . S
C152 C154 1.381 . S
C152 C158 1.383 1_655 S
C153 C149 1.495 . S
C153 H159 0.959 . S
C153 H160 0.961 1_655 S
C153 H161 0.960 . S
C154 C152 1.381 . S
C154 C155 1.394 . S
C154 H162 0.930 . S
C155 C154 1.394 . S
C155 C156 1.383 . S
C155 H163 0.929 . S
C156 C155 1.383 . S
C156 C157 1.377 1_655 S
C157 H141 0.930 . S
C157 C156 1.377 1_455 S
C157 C158 1.379 . S
C158 H142 0.931 . S
C158 C152 1.383 1_455 S
C158 C157 1.379 . S
H159 C153 0.959 . S
H160 C153 0.961 1_455 S
H161 C153 0.960 . S
H162 C154 0.930 . S
H163 C155 0.929 . S
H164 C172 0.929 . S
H165 C174 0.930 . S
H166 C176 0.930 . S
H167 C179 0.929 . S
H168 C182 0.930 . S
H169 C184 0.960 . S
H170 C184 0.960 . S
H171 C184 0.960 . S
C172 H164 0.929 . S
C172 C173 1.377 1_655 S
C172 C174 1.384 . S
C173 C172 1.377 1_455 S
C173 C179 1.390 . S
C174 H165 0.930 . S
C174 C172 1.384 . S
C174 C175 1.372 1_655 S
C175 C174 1.372 1_455 S
C175 C176 1.400 . S
C175 C180 1.490 . S
C176 H166 0.930 . S
C176 C175 1.400 . S
C176 C179 1.386 . S
H177 C193 0.930 1_556 S
H178 C194 0.931 . S
C179 H167 0.929 . S
C179 C173 1.390 . S
C179 C176 1.386 . S
C180 C175 1.490 . S
C180 C182 1.395 1_455 S
C180 C183 1.403 . S
H181 C187 0.930 . S
C182 H168 0.930 . S
C182 C180 1.395 1_655 S
C182 C185 1.403 . S
C183 C180 1.403 . S
C183 C184 1.524 . S
C183 C187 1.400 . S
C184 H169 0.960 . S
C184 H170 0.960 . S
C184 H171 0.960 . S
C184 C183 1.524 . S
C185 C182 1.403 . S
C185 C186 1.392 . S
C185 C189 1.495 . S
C186 C185 1.392 . S
C186 C187 1.385 1_655 S
C186 C188 1.478 . S
C187 H181 0.930 . S
C187 C183 1.400 . S
C187 C186 1.385 1_455 S
C188 C186 1.478 . S
C188 C190 1.381 . S
C188 C194 1.383 1_655 S
C189 C185 1.495 . S
C189 H195 0.959 . S
C189 H196 0.961 . S
C189 H197 0.960 . S
C190 C188 1.381 . S
C190 C191 1.394 . S
C190 H198 0.930 . S
C191 C190 1.394 . S
C191 C192 1.383 1_554 S
C191 H199 0.929 1_554 S
C192 C191 1.383 1_556 S
C192 C193 1.377 1_656 S
C193 H177 0.930 1_554 S
C193 C192 1.377 1_454 S
C193 C194 1.379 . S
C194 H178 0.931 . S
C194 C188 1.383 1_455 S
C194 C193 1.379 . S
H195 C189 0.959 . S
H196 C189 0.961 . S
H197 C189 0.960 . S
H198 C190 0.930 . S
H199 C191 0.929 1_556 S
H200 C208 0.929 1_554 S
H201 C210 0.930 . S
H202 C212 0.930 . S
H203 C215 0.929 1_554 S
H204 C218 0.930 . S
H205 C220 0.960 . S
H206 C220 0.960 . S
H207 C220 0.960 . S
C208 H200 0.929 1_556 S
C208 C209 1.377 1_556 S
C208 C210 1.384 . S
C209 C208 1.377 1_554 S
C209 C215 1.390 1_554 S
C210 H201 0.930 . S
C210 C208 1.384 . S
C210 C211 1.372 . S
C211 C210 1.372 . S
C211 C212 1.400 . S
C211 C216 1.490 . S
C212 H202 0.930 . S
C212 C211 1.400 . S
C212 C215 1.386 . S
H213 C229 0.930 . S
H214 C230 0.931 . S
C215 H203 0.929 1_556 S
C215 C209 1.390 1_556 S
C215 C212 1.386 . S
C216 C211 1.490 . S
C216 C218 1.395 . S
C216 C219 1.403 . S
H217 C223 0.930 . S
C218 H204 0.930 . S
C218 C216 1.395 . S
C218 C221 1.403 . S
C219 C216 1.403 . S
C219 C220 1.524 . S
C219 C223 1.400 . S
C220 H205 0.960 . S
C220 H206 0.960 . S
C220 H207 0.960 . S
C220 C219 1.524 . S
C221 C218 1.403 . S
C221 C222 1.392 . S
C221 C225 1.495 . S
C222 C221 1.392 . S
C222 C223 1.385 . S
C222 C224 1.478 . S
C223 H217 0.930 . S
C223 C219 1.400 . S
C223 C222 1.385 . S
C224 C222 1.478 . S
C224 C226 1.381 . S
C224 C230 1.383 . S
C225 C221 1.495 . S
C225 H231 0.959 . S
C225 H232 0.961 . S
C225 H233 0.960 . S
C226 C224 1.381 . S
C226 C227 1.394 . S
C226 H234 0.930 . S
C227 C226 1.394 . S
C227 C228 1.383 . S
C227 H235 0.929 . S
C228 C227 1.383 . S
C228 C229 1.377 . S
C229 H213 0.930 . S
C229 C228 1.377 . S
C229 C230 1.379 . S
C230 H214 0.931 . S
C230 C224 1.383 . S
C230 C229 1.379 . S
H231 C225 0.959 . S
H232 C225 0.961 . S
H233 C225 0.960 . S
H234 C226 0.930 . S
H235 C227 0.929 . S
H236 C244 0.929 1_556 S
H237 C246 0.930 . S
H238 C248 0.930 . S
H239 C251 0.929 1_556 S
H240 C254 0.930 . S
H241 C256 0.960 . S
H242 C256 0.960 . S
H243 C256 0.960 . S
C244 H236 0.929 1_554 S
C244 C245 1.377 1_554 S
C244 C246 1.384 . S
C245 C244 1.377 1_556 S
C245 C251 1.390 1_556 S
C246 H237 0.930 . S
C246 C244 1.384 . S
C246 C247 1.372 . S
C247 C246 1.372 . S
C247 C248 1.400 . S
C247 C252 1.490 . S
C248 H238 0.930 . S
C248 C247 1.400 . S
C248 C251 1.386 . S
H249 C265 0.930 . S
H250 C266 0.931 . S
C251 H239 0.929 1_554 S
C251 C245 1.390 1_554 S
C251 C248 1.386 . S
C252 C247 1.490 . S
C252 C254 1.395 . S
C252 C255 1.403 . S
H253 C259 0.930 . S
C254 H240 0.930 . S
C254 C252 1.395 . S
C254 C257 1.403 . S
C255 C252 1.403 . S
C255 C256 1.524 . S
C255 C259 1.400 . S
C256 H241 0.960 . S
C256 H242 0.960 . S
C256 H243 0.960 . S
C256 C255 1.524 . S
C257 C254 1.403 . S
C257 C258 1.392 . S
C257 C261 1.495 . S
C258 C257 1.392 . S
C258 C259 1.385 . S
C258 C260 1.478 . S
C259 H253 0.930 . S
C259 C255 1.400 . S
C259 C258 1.385 . S
C260 C258 1.478 . S
C260 C262 1.381 . S
C260 C266 1.383 . S
C261 C257 1.495 . S
C261 H267 0.959 . S
C261 H268 0.961 . S
C261 H269 0.960 . S
C262 C260 1.381 . S
C262 C263 1.394 . S
C262 H270 0.930 . S
C263 C262 1.394 . S
C263 C264 1.383 . S
C263 H271 0.929 . S
C264 C263 1.383 . S
C264 C265 1.377 . S
C265 H249 0.930 . S
C265 C264 1.377 . S
C265 C266 1.379 . S
C266 H250 0.931 . S
C266 C260 1.383 . S
C266 C265 1.379 . S
H267 C261 0.959 . S
H268 C261 0.961 . S
H269 C261 0.960 . S
H270 C262 0.930 . S
H271 C263 0.929 . S
H272 C280 0.929 . S
H273 C282 0.930 . S
H274 C284 0.930 . S
H275 C287 0.929 . S
H276 C290 0.930 . S
H277 C292 0.960 . S
H278 C292 0.960 . S
H279 C292 0.960 . S
C280 H272 0.929 . S
C280 C281 1.377 . S
C280 C282 1.384 . S
C281 C280 1.377 . S
C281 C287 1.390 . S
C282 H273 0.930 . S
C282 C280 1.384 . S
C282 C283 1.372 . S
C283 C282 1.372 . S
C283 C284 1.400 . S
C283 C288 1.490 . S
C284 H274 0.930 . S
C284 C283 1.400 . S
C284 C287 1.386 . S
H285 C301 0.930 . S
H286 C302 0.931 . S
C287 H275 0.929 . S
C287 C281 1.390 . S
C287 C284 1.386 . S
C288 C283 1.490 . S
C288 C290 1.395 . S
C288 C291 1.403 . S
H289 C295 0.930 . S
C290 H276 0.930 . S
C290 C288 1.395 . S
C290 C293 1.403 . S
C291 C288 1.403 . S
C291 C292 1.524 . S
C291 C295 1.400 . S
C292 H277 0.960 . S
C292 H278 0.960 . S
C292 H279 0.960 . S
C292 C291 1.524 . S
C293 C290 1.403 . S
C293 C294 1.392 . S
C293 C297 1.495 . S
C294 C293 1.392 . S
C294 C295 1.385 . S
C294 C296 1.478 . S
C295 H289 0.930 . S
C295 C291 1.400 . S
C295 C294 1.385 . S
C296 C294 1.478 . S
C296 C298 1.381 . S
C296 C302 1.383 . S
C297 C293 1.495 . S
C297 H303 0.959 . S
C297 H304 0.961 . S
C297 H305 0.960 . S
C298 C296 1.381 . S
C298 C299 1.394 . S
C298 H306 0.930 . S
C299 C298 1.394 . S
C299 C300 1.383 . S
C299 H307 0.929 . S
C300 C299 1.383 . S
C300 C301 1.377 . S
C301 H285 0.930 . S
C301 C300 1.377 . S
C301 C302 1.379 . S
C302 H286 0.931 . S
C302 C296 1.383 . S
C302 C301 1.379 . S
H303 C297 0.959 . S
H304 C297 0.961 . S
H305 C297 0.960 . S
H306 C298 0.930 . S
H307 C299 0.929 . S
H308 C316 0.929 . S
H309 C318 0.930 . S
H310 C320 0.930 . S
H311 C323 0.929 . S
H312 C326 0.930 . S
H313 C328 0.960 . S
H314 C328 0.960 . S
H315 C328 0.960 . S
C316 H308 0.929 . S
C316 C317 1.377 . S
C316 C318 1.384 . S
C317 C316 1.377 . S
C317 C323 1.390 . S
C318 H309 0.930 . S
C318 C316 1.384 . S
C318 C319 1.372 . S
C319 C318 1.372 . S
C319 C320 1.400 . S
C319 C324 1.490 . S
C320 H310 0.930 . S
C320 C319 1.400 . S
C320 C323 1.386 . S
H321 C337 0.930 . S
H322 C338 0.931 . S
C323 H311 0.929 . S
C323 C317 1.390 . S
C323 C320 1.386 . S
C324 C319 1.490 . S
C324 C326 1.395 . S
C324 C327 1.403 . S
H325 C331 0.930 . S
C326 H312 0.930 . S
C326 C324 1.395 . S
C326 C329 1.403 . S
C327 C324 1.403 . S
C327 C328 1.524 . S
C327 C331 1.400 . S
C328 H313 0.960 . S
C328 H314 0.960 . S
C328 H315 0.960 . S
C328 C327 1.524 . S
C329 C326 1.403 . S
C329 C330 1.392 . S
C329 C333 1.495 . S
C330 C329 1.392 . S
C330 C331 1.385 . S
C330 C332 1.478 . S
C331 H325 0.930 . S
C331 C327 1.400 . S
C331 C330 1.385 . S
C332 C330 1.478 . S
C332 C334 1.381 . S
C332 C338 1.383 . S
C333 C329 1.495 . S
C333 H339 0.959 . S
C333 H340 0.961 . S
C333 H341 0.960 . S
C334 C332 1.381 . S
C334 C335 1.394 . S
C334 H342 0.930 . S
C335 C334 1.394 . S
C335 C336 1.383 . S
C335 H343 0.929 . S
C336 C335 1.383 . S
C336 C337 1.377 . S
C337 H321 0.930 . S
C337 C336 1.377 . S
C337 C338 1.379 . S
C338 H322 0.931 . S
C338 C332 1.383 . S
C338 C337 1.379 . S
H339 C333 0.959 . S
H340 C333 0.961 . S
H341 C333 0.960 . S
H342 C334 0.930 . S
H343 C335 0.929 . S
H344 C352 0.929 . S
H345 C354 0.930 . S
H346 C356 0.930 . S
H347 C359 0.929 . S
H348 C362 0.930 . S
H349 C364 0.960 . S
H350 C364 0.960 . S
H351 C364 0.960 . S
C352 H344 0.929 . S
C352 C353 1.377 . S
C352 C354 1.384 . S
C353 C352 1.377 . S
C353 C359 1.390 . S
C354 H345 0.930 . S
C354 C352 1.384 . S
C354 C355 1.372 . S
C355 C354 1.372 . S
C355 C356 1.400 . S
C355 C360 1.490 . S
C356 H346 0.930 . S
C356 C355 1.400 . S
C356 C359 1.386 . S
H357 C373 0.930 . S
H358 C374 0.931 . S
C359 H347 0.929 . S
C359 C353 1.390 . S
C359 C356 1.386 . S
C360 C355 1.490 . S
C360 C362 1.395 . S
C360 C363 1.403 . S
H361 C367 0.930 . S
C362 H348 0.930 . S
C362 C360 1.395 . S
C362 C365 1.403 1_655 S
C363 C360 1.403 . S
C363 C364 1.524 . S
C363 C367 1.400 1_655 S
C364 H349 0.960 . S
C364 H350 0.960 . S
C364 H351 0.960 . S
C364 C363 1.524 . S
C365 C362 1.403 1_455 S
C365 C366 1.392 . S
C365 C369 1.495 . S
C366 C365 1.392 . S
C366 C367 1.385 . S
C366 C368 1.478 . S
C367 H361 0.930 . S
C367 C363 1.400 1_455 S
C367 C366 1.385 . S
C368 C366 1.478 . S
C368 C370 1.381 . S
C368 C374 1.383 . S
C369 C365 1.495 . S
C369 H375 0.959 . S
C369 H376 0.961 . S
C369 H377 0.960 . S
C370 C368 1.381 . S
C370 C371 1.394 . S
C370 H378 0.930 . S
C371 C370 1.394 . S
C371 C372 1.383 . S
C371 H379 0.929 . S
C372 C371 1.383 . S
C372 C373 1.377 . S
C373 H357 0.930 . S
C373 C372 1.377 . S
C373 C374 1.379 . S
C374 H358 0.931 . S
C374 C368 1.383 . S
C374 C373 1.379 . S
H375 C369 0.959 . S
H376 C369 0.961 . S
H377 C369 0.960 . S
H378 C370 0.930 . S
H379 C371 0.929 . S
H380 C388 0.929 . S
H381 C390 0.930 . S
H382 C392 0.930 . S
H383 C395 0.929 . S
H384 C398 0.930 . S
H385 C400 0.960 . S
H386 C400 0.960 . S
H387 C400 0.960 . S
C388 H380 0.929 . S
C388 C389 1.377 . S
C388 C390 1.384 . S
C389 C388 1.377 . S
C389 C395 1.390 . S
C390 H381 0.930 . S
C390 C388 1.384 . S
C390 C391 1.372 . S
C391 C390 1.372 . S
C391 C392 1.400 . S
C391 C396 1.490 . S
C392 H382 0.930 . S
C392 C391 1.400 . S
C392 C395 1.386 . S
H393 C409 0.930 . S
H394 C410 0.931 . S
C395 H383 0.929 . S
C395 C389 1.390 . S
C395 C392 1.386 . S
C396 C391 1.490 . S
C396 C398 1.395 . S
C396 C399 1.403 . S
H397 C403 0.930 . S
C398 H384 0.930 . S
C398 C396 1.395 . S
C398 C401 1.403 1_655 S
C399 C396 1.403 . S
C399 C400 1.524 . S
C399 C403 1.400 1_655 S
C400 H385 0.960 . S
C400 H386 0.960 . S
C400 H387 0.960 . S
C400 C399 1.524 . S
C401 C398 1.403 1_455 S
C401 C402 1.392 . S
C401 C405 1.495 . S
C402 C401 1.392 . S
C402 C403 1.385 . S
C402 C404 1.478 . S
C403 H397 0.930 . S
C403 C399 1.400 1_455 S
C403 C402 1.385 . S
C404 C402 1.478 . S
C404 C406 1.381 . S
C404 C410 1.383 . S
C405 C401 1.495 . S
C405 H411 0.959 . S
C405 H412 0.961 . S
C405 H413 0.960 . S
C406 C404 1.381 . S
C406 C407 1.394 . S
C406 H414 0.930 . S
C407 C406 1.394 . S
C407 C408 1.383 . S
C407 H415 0.929 . S
C408 C407 1.383 . S
C408 C409 1.377 . S
C409 H393 0.930 . S
C409 C408 1.377 . S
C409 C410 1.379 . S
C410 H394 0.931 . S
C410 C404 1.383 . S
C410 C409 1.379 . S
H411 C405 0.959 . S
H412 C405 0.961 . S
H413 C405 0.960 . S
H414 C406 0.930 . S
H415 C407 0.929 . S
H416 C424 0.929 . S
H417 C426 0.930 . S
H418 C428 0.930 . S
H419 C431 0.929 . S
H420 C434 0.930 . S
H421 C436 0.960 . S
H422 C436 0.960 . S
H423 C436 0.960 . S
C424 H416 0.929 . S
C424 C425 1.377 . S
C424 C426 1.384 . S
C425 C424 1.377 . S
C425 C431 1.390 . S
C426 H417 0.930 . S
C426 C424 1.384 . S
C426 C427 1.372 . S
C427 C426 1.372 . S
C427 C428 1.400 . S
C427 C432 1.490 . S
C428 H418 0.930 . S
C428 C427 1.400 . S
C428 C431 1.386 . S
H429 C445 0.930 . S
H430 C446 0.931 . S
C431 H419 0.929 . S
C431 C425 1.390 . S
C431 C428 1.386 . S
C432 C427 1.490 . S
C432 C434 1.395 . S
C432 C435 1.403 . S
H433 C439 0.930 . S
C434 H420 0.930 . S
C434 C432 1.395 . S
C434 C437 1.403 . S
C435 C432 1.403 . S
C435 C436 1.524 . S
C435 C439 1.400 . S
C436 H421 0.960 . S
C436 H422 0.960 . S
C436 H423 0.960 . S
C436 C435 1.524 . S
C437 C434 1.403 . S
C437 C438 1.392 . S
C437 C441 1.495 . S
C438 C437 1.392 . S
C438 C439 1.385 . S
C438 C440 1.478 . S
C439 H433 0.930 . S
C439 C435 1.400 . S
C439 C438 1.385 . S
C440 C438 1.478 . S
C440 C442 1.381 . S
C440 C446 1.383 . S
C441 C437 1.495 . S
C441 H447 0.959 . S
C441 H448 0.961 . S
C441 H449 0.960 . S
C442 C440 1.381 . S
C442 C443 1.394 . S
C442 H450 0.930 . S
C443 C442 1.394 . S
C443 C444 1.383 . S
C443 H451 0.929 . S
C444 C443 1.383 . S
C444 C445 1.377 . S
C445 H429 0.930 . S
C445 C444 1.377 . S
C445 C446 1.379 . S
C446 H430 0.931 . S
C446 C440 1.383 . S
C446 C445 1.379 . S
H447 C441 0.959 . S
H448 C441 0.961 . S
H449 C441 0.960 . S
H450 C442 0.930 . S
H451 C443 0.929 . S
H452 C460 0.929 . S
H453 C462 0.930 . S
H454 C464 0.930 . S
H455 C467 0.929 . S
H456 C470 0.930 . S
H457 C472 0.960 . S
H458 C472 0.960 . S
H459 C472 0.960 1_556 S
C460 H452 0.929 . S
C460 C461 1.377 . S
C460 C462 1.384 . S
C461 C460 1.377 . S
C461 C467 1.390 . S
C462 H453 0.930 . S
C462 C460 1.384 . S
C462 C463 1.372 . S
C463 C462 1.372 . S
C463 C464 1.400 . S
C463 C468 1.490 . S
C464 H454 0.930 . S
C464 C463 1.400 . S
C464 C467 1.386 . S
H465 C481 0.930 . S
H466 C482 0.931 . S
C467 H455 0.929 . S
C467 C461 1.390 . S
C467 C464 1.386 . S
C468 C463 1.490 . S
C468 C470 1.395 . S
C468 C471 1.403 1_556 S
H469 C475 0.930 . S
C470 H456 0.930 . S
C470 C468 1.395 . S
C470 C473 1.403 . S
C471 C468 1.403 1_554 S
C471 C472 1.524 . S
C471 C475 1.400 . S
C472 H457 0.960 . S
C472 H458 0.960 . S
C472 H459 0.960 1_554 S
C472 C471 1.524 . S
C473 C470 1.403 . S
C473 C474 1.392 1_556 S
C473 C477 1.495 . S
C474 C473 1.392 1_554 S
C474 C475 1.385 . S
C474 C476 1.478 . S
C475 H469 0.930 . S
C475 C471 1.400 . S
C475 C474 1.385 . S
C476 C474 1.478 . S
C476 C478 1.381 . S
C476 C482 1.383 . S
C477 C473 1.495 . S
C477 H483 0.959 . S
C477 H484 0.961 . S
C477 H485 0.960 1_556 S
C478 C476 1.381 . S
C478 C479 1.394 . S
C478 H486 0.930 . S
C479 C478 1.394 . S
C479 C480 1.383 . S
C479 H487 0.929 . S
C480 C479 1.383 . S
C480 C481 1.377 . S
C481 H465 0.930 . S
C481 C480 1.377 . S
C481 C482 1.379 . S
C482 H466 0.931 . S
C482 C476 1.383 . S
C482 C481 1.379 . S
H483 C477 0.959 . S
H484 C477 0.961 . S
H485 C477 0.960 1_554 S
H486 C478 0.930 . S
H487 C479 0.929 . S
H488 C496 0.929 . S
H489 C498 0.930 . S
H490 C500 0.930 . S
H491 C503 0.929 . S
H492 C506 0.930 . S
H493 C508 0.960 . S
H494 C508 0.960 . S
H495 C508 0.960 . S
C496 H488 0.929 . S
C496 C497 1.377 . S
C496 C498 1.384 . S
C497 C496 1.377 . S
C497 C503 1.390 . S
C498 H489 0.930 . S
C498 C496 1.384 . S
C498 C499 1.372 . S
C499 C498 1.372 . S
C499 C500 1.400 . S
C499 C504 1.490 . S
C500 H490 0.930 . S
C500 C499 1.400 . S
C500 C503 1.386 . S
H501 C517 0.930 . S
H502 C518 0.931 . S
C503 H491 0.929 . S
C503 C497 1.390 . S
C503 C500 1.386 . S
C504 C499 1.490 . S
C504 C506 1.395 . S
C504 C507 1.403 . S
H505 C511 0.930 . S
C506 H492 0.930 . S
C506 C504 1.395 . S
C506 C509 1.403 . S
C507 C504 1.403 . S
C507 C508 1.524 . S
C507 C511 1.400 . S
C508 H493 0.960 . S
C508 H494 0.960 . S
C508 H495 0.960 . S
C508 C507 1.524 . S
C509 C506 1.403 . S
C509 C510 1.392 . S
C509 C513 1.495 . S
C510 C509 1.392 . S
C510 C511 1.385 . S
C510 C512 1.478 . S
C511 H505 0.930 . S
C511 C507 1.400 . S
C511 C510 1.385 . S
C512 C510 1.478 . S
C512 C514 1.381 . S
C512 C518 1.383 . S
C513 C509 1.495 . S
C513 H519 0.959 . S
C513 H520 0.961 . S
C513 H521 0.960 . S
C514 C512 1.381 . S
C514 C515 1.394 . S
C514 H522 0.930 . S
C515 C514 1.394 . S
C515 C516 1.383 . S
C515 H523 0.929 . S
C516 C515 1.383 . S
C516 C517 1.377 . S
C517 H501 0.930 . S
C517 C516 1.377 . S
C517 C518 1.379 . S
C518 H502 0.931 . S
C518 C512 1.383 . S
C518 C517 1.379 . S
H519 C513 0.959 . S
H520 C513 0.961 . S
H521 C513 0.960 . S
H522 C514 0.930 . S
H523 C515 0.929 . S
H524 C532 0.929 . S
H525 C534 0.930 . S
H526 C536 0.930 . S
H527 C539 0.929 . S
H528 C542 0.930 . S
H529 C544 0.960 . S
H530 C544 0.960 . S
H531 C544 0.960 . S
C532 H524 0.929 . S
C532 C533 1.377 . S
C532 C534 1.384 . S
C533 C532 1.377 . S
C533 C539 1.390 . S
C534 H525 0.930 . S
C534 C532 1.384 . S
C534 C535 1.372 . S
C535 C534 1.372 . S
C535 C536 1.400 . S
C535 C540 1.490 . S
C536 H526 0.930 . S
C536 C535 1.400 . S
C536 C539 1.386 . S
H537 C553 0.930 . S
H538 C554 0.931 . S
C539 H527 0.929 . S
C539 C533 1.390 . S
C539 C536 1.386 . S
C540 C535 1.490 . S
C540 C542 1.395 1_554 S
C540 C543 1.403 . S
H541 C547 0.930 . S
C542 H528 0.930 . S
C542 C540 1.395 1_556 S
C542 C545 1.403 . S
C543 C540 1.403 . S
C543 C544 1.524 . S
C543 C547 1.400 . S
C544 H529 0.960 . S
C544 H530 0.960 . S
C544 H531 0.960 . S
C544 C543 1.524 . S
C545 C542 1.403 . S
C545 C546 1.392 . S
C545 C549 1.495 . S
C546 C545 1.392 . S
C546 C547 1.385 1_556 S
C546 C548 1.478 . S
C547 H541 0.930 . S
C547 C543 1.400 . S
C547 C546 1.385 1_554 S
C548 C546 1.478 . S
C548 C550 1.381 . S
C548 C554 1.383 . S
C549 C545 1.495 . S
C549 H555 0.959 . S
C549 H556 0.961 . S
C549 H557 0.960 . S
C550 C548 1.381 . S
C550 C551 1.394 . S
C550 H558 0.930 . S
C551 C550 1.394 . S
C551 C552 1.383 . S
C551 H559 0.929 . S
C552 C551 1.383 . S
C552 C553 1.377 . S
C553 H537 0.930 . S
C553 C552 1.377 . S
C553 C554 1.379 . S
C554 H538 0.931 . S
C554 C548 1.383 . S
C554 C553 1.379 . S
H555 C549 0.959 . S
H556 C549 0.961 . S
H557 C549 0.960 . S
H558 C550 0.930 . S
H559 C551 0.929 . S
H560 C568 0.929 . S
H561 C570 0.930 . S
H562 C572 0.930 1_455 S
H563 C575 0.929 . S
H564 C578 0.930 . S
H565 C580 0.960 . S
H566 C580 0.960 . S
H567 C580 0.960 . S
C568 H560 0.929 . S
C568 C569 1.377 . S
C568 C570 1.384 . S
C569 C568 1.377 . S
C569 C575 1.390 . S
C570 H561 0.930 . S
C570 C568 1.384 . S
C570 C571 1.372 . S
C571 C570 1.372 . S
C571 C572 1.400 . S
C571 C576 1.490 . S
C572 H562 0.930 1_655 S
C572 C571 1.400 . S
C572 C575 1.386 . S
H573 C589 0.930 . S
H574 C590 0.931 . S
C575 H563 0.929 . S
C575 C569 1.390 . S
C575 C572 1.386 . S
C576 C571 1.490 . S
C576 C578 1.395 1_554 S
C576 C579 1.403 1_655 S
H577 C583 0.930 . S
C578 H564 0.930 . S
C578 C576 1.395 1_556 S
C578 C581 1.403 1_545 S
C579 C576 1.403 1_455 S
C579 C580 1.524 . S
C579 C583 1.400 1_545 S
C580 H565 0.960 . S
C580 H566 0.960 . S
C580 H567 0.960 . S
C580 C579 1.524 . S
C581 C578 1.403 1_565 S
C581 C582 1.392 1_655 S
C581 C585 1.495 . S
C582 C581 1.392 1_455 S
C582 C583 1.385 1_556 S
C582 C584 1.478 . S
C583 H577 0.930 . S
C583 C579 1.400 1_565 S
C583 C582 1.385 1_554 S
C584 C582 1.478 . S
C584 C586 1.381 . S
C584 C590 1.383 . S
C585 C581 1.495 . S
C585 H591 0.959 . S
C585 H592 0.961 . S
C585 H593 0.960 . S
C586 C584 1.381 . S
C586 C587 1.394 . S
C586 H594 0.930 1_455 S
C587 C586 1.394 . S
C587 C588 1.383 . S
C587 H595 0.929 . S
C588 C587 1.383 . S
C588 C589 1.377 . S
C589 H573 0.930 . S
C589 C588 1.377 . S
C589 C590 1.379 . S
C590 H574 0.931 . S
C590 C584 1.383 . S
C590 C589 1.379 . S
H591 C585 0.959 . S
H592 C585 0.961 . S
H593 C585 0.960 . S
H594 C586 0.930 1_655 S
H595 C587 0.929 . S
H596 C604 0.929 . S
H597 C606 0.930 . S
H598 C608 0.930 . S
H599 C611 0.929 1_655 S
H600 C614 0.930 . S
H601 C616 0.960 . S
H602 C616 0.960 1_455 S
H603 C616 0.960 1_545 S
C604 H596 0.929 . S
C604 C605 1.377 . S
C604 C606 1.384 . S
C605 C604 1.377 . S
C605 C611 1.390 . S
C606 H597 0.930 . S
C606 C604 1.384 . S
C606 C607 1.372 . S
C607 C606 1.372 . S
C607 C608 1.400 1_455 S
C607 C612 1.490 . S
C608 H598 0.930 . S
C608 C607 1.400 1_655 S
C608 C611 1.386 1_655 S
H609 C625 0.930 . S
H610 C626 0.931 . S
C611 H599 0.929 1_455 S
C611 C605 1.390 . S
C611 C608 1.386 1_455 S
C612 C607 1.490 . S
C612 C614 1.395 . S
C612 C615 1.401 1_445 S
H613 C619 0.930 . S
C614 H600 0.930 . S
C614 C612 1.395 . S
C614 C617 1.403 . S
C615 C612 1.401 1_665 S
C615 C616 1.524 . S
C615 C619 1.401 . S
C616 H601 0.960 . S
C616 H602 0.960 1_655 S
C616 H603 0.960 1_565 S
C616 C615 1.524 . S
C617 C614 1.403 . S
C617 C618 1.392 1_445 S
C617 C621 1.495 . S
C618 C617 1.392 1_665 S
C618 C619 1.385 . S
C618 C620 1.478 . S
C619 H613 0.930 . S
C619 C615 1.401 . S
C619 C618 1.385 . S
C620 C618 1.478 . S
C620 C622 1.381 1_655 S
C620 C626 1.383 . S
C621 C617 1.495 . S
C621 H627 0.959 . S
C621 H628 0.961 1_455 S
C621 H629 0.960 1_545 S
C622 C620 1.381 1_455 S
C622 C623 1.394 1_455 S
C622 H630 0.930 . S
C623 C622 1.394 1_655 S
C623 C624 1.383 . S
C623 H631 0.929 1_655 S
C624 C623 1.383 . S
C624 C625 1.377 . S
C625 H609 0.930 . S
C625 C624 1.377 . S
C625 C626 1.379 . S
C626 H610 0.931 . S
C626 C620 1.383 . S
C626 C625 1.379 . S
H627 C621 0.959 . S
H628 C621 0.961 1_655 S
H629 C621 0.960 1_565 S
H630 C622 0.930 . S
H631 C623 0.929 1_455 S
H632 C640 0.929 . S
H633 C642 0.930 . S
H634 C644 0.930 1_556 S
H635 C647 0.929 . S
H636 C650 0.930 . S
H637 C652 0.960 . S
H638 C652 0.960 1_554 S
H639 C652 0.960 . S
C640 H632 0.929 . S
C640 C641 1.377 . S
C640 C642 1.384 . S
C641 C640 1.377 . S
C641 C647 1.390 . S
C642 H633 0.930 . S
C642 C640 1.384 . S
C642 C643 1.372 . S
C643 C642 1.372 . S
C643 C644 1.400 . S
C643 C648 1.490 . S
C644 H634 0.930 1_554 S
C644 C643 1.400 . S
C644 C647 1.386 . S
H645 C661 0.930 . S
H646 C662 0.931 . S
C647 H635 0.929 . S
C647 C641 1.390 . S
C647 C644 1.386 . S
C648 C643 1.490 . S
C648 C650 1.395 . S
C648 C651 1.403 1_554 S
H649 C655 0.930 . S
C650 H636 0.930 . S
C650 C648 1.395 . S
C650 C653 1.403 . S
C651 C648 1.403 1_556 S
C651 C652 1.524 . S
C651 C655 1.400 . S
C652 H637 0.960 . S
C652 H638 0.960 1_556 S
C652 H639 0.960 . S
C652 C651 1.524 . S
C653 C650 1.403 . S
C653 C654 1.392 1_554 S
C653 C657 1.495 . S
C654 C653 1.392 1_556 S
C654 C655 1.385 . S
C654 C656 1.478 . S
C655 H649 0.930 . S
C655 C651 1.400 . S
C655 C654 1.385 . S
C656 C654 1.478 . S
C656 C658 1.381 . S
C656 C662 1.383 . S
C657 C653 1.495 . S
C657 H663 0.959 . S
C657 H664 0.961 1_554 S
C657 H665 0.960 . S
C658 C656 1.381 . S
C658 C659 1.394 . S
C658 H666 0.930 1_556 S
C659 C658 1.394 . S
C659 C660 1.383 . S
C659 H667 0.929 . S
C660 C659 1.383 . S
C660 C661 1.377 . S
C661 H645 0.930 . S
C661 C660 1.377 . S
C661 C662 1.379 . S
C662 H646 0.931 . S
C662 C656 1.383 . S
C662 C661 1.379 . S
H663 C657 0.959 . S
H664 C657 0.961 1_556 S
H665 C657 0.960 . S
H666 C658 0.930 1_554 S
H667 C659 0.929 . S
H668 C676 0.929 . S
H669 C678 0.930 . S
H670 C680 0.930 . S
H671 C683 0.929 . S
H672 C686 0.930 . S
H673 C688 0.960 . S
H674 C688 0.960 . S
H675 C688 0.960 . S
C676 H668 0.929 . S
C676 C677 1.377 . S
C676 C678 1.384 . S
C677 C676 1.377 . S
C677 C683 1.390 . S
C678 H669 0.930 . S
C678 C676 1.384 . S
C678 C679 1.372 . S
C679 C678 1.372 . S
C679 C680 1.400 . S
C679 C684 1.490 . S
C680 H670 0.930 . S
C680 C679 1.400 . S
C680 C683 1.386 . S
H681 C697 0.930 . S
H682 C698 0.931 . S
C683 H671 0.929 . S
C683 C677 1.390 . S
C683 C680 1.386 . S
C684 C679 1.490 . S
C684 C686 1.395 . S
C684 C687 1.403 . S
H685 C691 0.930 . S
C686 H672 0.930 . S
C686 C684 1.395 . S
C686 C689 1.403 . S
C687 C684 1.403 . S
C687 C688 1.524 . S
C687 C691 1.400 . S
C688 H673 0.960 . S
C688 H674 0.960 . S
C688 H675 0.960 . S
C688 C687 1.524 . S
C689 C686 1.403 . S
C689 C690 1.392 . S
C689 C693 1.495 . S
C690 C689 1.392 . S
C690 C691 1.385 . S
C690 C692 1.478 . S
C691 H685 0.930 . S
C691 C687 1.400 . S
C691 C690 1.385 . S
C692 C690 1.478 . S
C692 C694 1.381 . S
C692 C698 1.383 . S
C693 C689 1.495 . S
C693 H699 0.959 . S
C693 H700 0.961 . S
C693 H701 0.960 . S
C694 C692 1.381 . S
C694 C695 1.394 . S
C694 H702 0.930 . S
C695 C694 1.394 . S
C695 C696 1.383 . S
C695 H703 0.929 . S
C696 C695 1.383 . S
C696 C697 1.377 . S
C697 H681 0.930 . S
C697 C696 1.377 . S
C697 C698 1.379 . S
C698 H682 0.931 . S
C698 C692 1.383 . S
C698 C697 1.379 . S
H699 C693 0.959 . S
H700 C693 0.961 . S
H701 C693 0.960 . S
H702 C694 0.930 . S
H703 C695 0.929 . S
C137 C27 1.186 . S
C156 C8 1.161 . S
C173 C55 1.186 . S
C192 C63 1.170 . S
C209 C91 1.196 . S
C228 C72 1.163 . S
C245 C127 1.195 . S
C264 C119 1.229 . S
C281 C24 1.172 . S
C300 C17 1.148 . S
C317 C40 1.181 . S
C336 C59 1.160 . S
C353 C81 1.183 . S
C372 C88 1.202 . S
C389 C123 1.184 . S
C408 C104 1.189 . S
C425 C120 1.652 . S
C444 C22 1.664 . S
C461 C126 1.629 . S
C480 C23 1.603 . S
C497 C86 1.648 . S
C516 C56 1.633 . S
C533 C87 1.632 . S
C552 C62 1.613 . S
C569 C30 1.569 . S
C588 C49 1.535 . S
C605 C31 1.707 . S
C624 C54 1.704 . S
C641 C94 1.561 . S
C660 C113 1.519 . S
C677 C118 1.703 . S
C696 C95 1.692 . S
