# Generated by pormake.
# Topology upc, (4)-cn, num edge types: 1
# Building blocks:
#     Node 0, Type 0, BuildingBlock: QUQFOY_clean_sbu_3, # of connection points: 4
#     Node 1, Type 0, BuildingBlock: QUQFOY_clean_sbu_3, # of connection points: 4
#     Node 2, Type 0, BuildingBlock: QUQFOY_clean_sbu_3, # of connection points: 4
#     Node 3, Type 0, BuildingBlock: QUQFOY_clean_sbu_3, # of connection points: 4
#     Node 4, Type 0, BuildingBlock: QUQFOY_clean_sbu_3, # of connection points: 4
#     Node 5, Type 0, BuildingBlock: QUQFOY_clean_sbu_3, # of connection points: 4
#     Node 6, Type 0, BuildingBlock: QUQFOY_clean_sbu_3, # of connection points: 4
#     Node 7, Type 0, BuildingBlock: QUQFOY_clean_sbu_3, # of connection points: 4
#     Node 8, Type 0, BuildingBlock: QUQFOY_clean_sbu_3, # of connection points: 4
#     Node 9, Type 0, BuildingBlock: QUQFOY_clean_sbu_3, # of connection points: 4
#     Node 10, Type 0, BuildingBlock: QUQFOY_clean_sbu_3, # of connection points: 4
#     Node 11, Type 0, BuildingBlock: QUQFOY_clean_sbu_3, # of connection points: 4
#     Node 12, Type 0, BuildingBlock: QUQFOY_clean_sbu_3, # of connection points: 4
#     Node 13, Type 0, BuildingBlock: QUQFOY_clean_sbu_3, # of connection points: 4
#     Node 14, Type 0, BuildingBlock: QUQFOY_clean_sbu_3, # of connection points: 4
#     Node 15, Type 0, BuildingBlock: QUQFOY_clean_sbu_3, # of connection points: 4
#     Edge 16, Type (0, 0), None
#     Edge 17, Type (0, 0), None
#     Edge 18, Type (0, 0), None
#     Edge 19, Type (0, 0), None
#     Edge 20, Type (0, 0), None
#     Edge 21, Type (0, 0), None
#     Edge 22, Type (0, 0), None
#     Edge 23, Type (0, 0), None
#     Edge 24, Type (0, 0), None
#     Edge 25, Type (0, 0), None
#     Edge 26, Type (0, 0), None
#     Edge 27, Type (0, 0), None
#     Edge 28, Type (0, 0), None
#     Edge 29, Type (0, 0), None
#     Edge 30, Type (0, 0), None
#     Edge 31, Type (0, 0), None
#     Edge 32, Type (0, 0), None
#     Edge 33, Type (0, 0), None
#     Edge 34, Type (0, 0), None
#     Edge 35, Type (0, 0), None
#     Edge 36, Type (0, 0), None
#     Edge 37, Type (0, 0), None
#     Edge 38, Type (0, 0), None
#     Edge 39, Type (0, 0), None
#     Edge 40, Type (0, 0), None
#     Edge 41, Type (0, 0), None
#     Edge 42, Type (0, 0), None
#     Edge 43, Type (0, 0), None
#     Edge 44, Type (0, 0), None
#     Edge 45, Type (0, 0), None
#     Edge 46, Type (0, 0), None
#     Edge 47, Type (0, 0), None
# Relax obj value: 0.233
# Max RMSD: 0.292
# Mean RMSD: 0.292
data_MOF--net-upc--node1-QUQFOY_clean_sbu_3--edge1-none
_symmetry_space_group_name_H-M    P1
_symmetry_Int_Tables_number       1
_symmetry_cell_setting            triclinic
loop_
_symmetry_equiv_pos_as_xyz
'x, y, z'
_cell_length_a     15.260487
_cell_length_b     15.467495
_cell_length_c     22.427014
_cell_angle_alpha  88.745339
_cell_angle_beta   90.374003
_cell_angle_gamma 90.818366
loop_
_atom_site_label
_atom_site_type_symbol
_atom_site_fract_x
_atom_site_fract_y
_atom_site_fract_z
_atom_type_partial_charge
C0 C 0.20221 0.66841 0.05006 0.0
O1 O 0.24456 0.5985 0.05429 0.0
Cd2 Cd 0.12407 0.52338 0.10436 0.0
O3 O 0.12302 0.66664 0.0665 0.0
Cd4 Cd 0.06675 0.51533 0.09985 0.0
C5 C 0.02744 0.64336 0.19406 0.0
O6 O 0.15596 0.42314 0.17639 0.0
O7 O 0.01705 0.39954 0.16308 0.0
O8 O 0.11852 0.44752 0.00889 0.0
C9 C 0.0864 0.38299 0.19254 0.0
O10 O 0.10529 0.62335 0.18271 0.0
C11 C 0.04155 0.4331 -0.01062 0.0
O12 O 0.96715 0.61055 0.16191 0.0
O13 O 0.97717 0.45874 0.02009 0.0
C14 C 0.82283 0.24808 0.12164 0.0
O15 O 0.8718 0.2531 0.16758 0.0
Cd16 Cd 0.94443 0.13706 0.22048 0.0
O17 O 0.81974 0.18077 0.09032 0.0
Cd18 Cd 0.89887 0.04557 0.08699 0.0
C19 C 0.76281 -0.00205 0.20582 0.0
O20 O 0.02377 0.07009 0.14859 0.0
O21 O 0.00602 0.94106 0.118 0.0
O22 O 0.96012 0.09425 -0.00585 0.0
C23 C 0.04059 0.99074 0.15588 0.0
O24 O 0.81828 0.04135 0.23628 0.0
C25 C 0.94186 0.02331 -0.03095 0.0
O26 O 0.77211 0.9899 0.1494 0.0
O27 O 0.89348 0.96796 -0.00334 0.0
C28 C 0.24761 0.75139 0.04027 0.0
O29 O 0.20611 0.82136 0.03214 0.0
Cd30 Cd 0.33285 0.90665 0.06299 0.0
O31 O 0.32875 0.75631 0.05182 0.0
Cd32 Cd 0.40163 0.90492 0.0618 0.0
C33 C 0.39613 0.80005 0.17708 0.0
O34 O 0.32099 0.03651 0.10701 0.0
O35 O 0.46229 0.02547 0.11247 0.0
O36 O 0.38921 0.9468 -0.04264 0.0
C37 C 0.39408 0.06717 0.12529 0.0
O38 O 0.32729 0.83737 0.15981 0.0
C39 C 0.47157 0.9464 0.94916 0.0
O40 O 0.46351 0.80858 0.14427 0.0
O41 O 0.52047 0.92033 -0.008 0.0
C42 C 0.7559 0.31328 0.11335 0.0
O43 O 0.68038 0.29398 0.0939 0.0
Cd44 Cd 0.61713 0.42231 0.13926 0.0
O45 O 0.7656 0.38557 0.13728 0.0
Cd46 Cd 0.62178 0.46799 0.13738 0.0
C47 C 0.74106 0.50875 0.23573 0.0
O48 O 0.49518 0.37595 0.18681 0.0
O49 O 0.52466 0.50534 0.21701 0.0
O50 O 0.56663 0.44143 0.03577 0.0
C51 C 0.47802 0.43684 0.22144 0.0
O52 O 0.69449 0.44063 0.23555 0.0
C53 C 0.55123 0.52032 0.02373 0.0
O54 O 0.73649 0.55825 0.1899 0.0
O55 O 0.5746 0.57585 0.06204 0.0
C56 C 0.1657 0.74636 0.39268 0.0
O57 O 0.19035 0.82487 0.38833 0.0
Cd58 Cd 0.06638 0.85975 0.32557 0.0
O59 O 0.08954 0.72743 0.37412 0.0
Cd60 Cd 0.01293 0.85575 0.32413 0.0
C61 C 0.0165 0.70958 0.23946 0.0
O62 O 0.1022 0.95513 0.25156 0.0
O63 O 0.96768 0.91586 0.23198 0.0
O64 O 0.04397 0.9616 0.40103 0.0
C65 C 0.0372 0.95572 0.21593 0.0
O66 O 0.08566 0.74784 0.25583 0.0
C67 C 0.9651 0.96952 0.4169 0.0
O68 O 0.94508 0.73148 0.26367 0.0
O69 O 0.90667 0.92316 0.39109 0.0
C70 C 0.67642 0.22529 0.31022 0.0
O71 O 0.60962 0.23007 0.34307 0.0
Cd72 Cd 0.5383 0.11227 0.28232 0.0
O73 O 0.67012 0.17821 0.26538 0.0
Cd74 Cd 0.52558 0.08925 0.26864 0.0
C75 C 0.67623 0.98521 0.23417 0.0
O76 O 0.46884 0.16344 0.18561 0.0
O77 O 0.37728 0.0751 0.22522 0.0
O78 O 0.46251 0.11792 0.37086 0.0
C79 C 0.40006 0.11771 0.179 0.0
O80 O 0.66856 0.01378 0.28605 0.0
C81 C 0.46322 0.0381 0.38609 0.0
O82 O 0.60741 0.98785 0.20281 0.0
O83 O 0.49419 0.98467 0.34948 0.0
C84 C 0.23069 0.67877 0.39177 0.0
O85 O 0.20457 0.60078 0.39187 0.0
Cd86 Cd 0.25013 0.58281 0.28966 0.0
O87 O 0.29906 0.69765 0.36252 0.0
Cd88 Cd 0.39969 0.59042 0.32597 0.0
C89 C 0.38666 0.73532 0.22565 0.0
O90 O 0.34612 0.48336 0.24966 0.0
O91 O 0.43497 0.43977 0.31763 0.0
O92 O 0.39111 0.55303 0.42776 0.0
C93 C 0.40808 0.434 0.26461 0.0
O94 O 0.3083 0.71202 0.23846 0.0
C95 C 0.47306 0.56092 0.43742 0.0
O96 O 0.45143 0.69601 0.24945 0.0
O97 O 0.52236 0.58813 0.39479 0.0
C98 C 0.76043 0.26827 0.32211 0.0
O99 O 0.82548 0.25138 0.29075 0.0
Cd100 Cd 0.91598 0.36028 0.33703 0.0
O101 O 0.77279 0.32297 0.36226 0.0
Cd102 Cd 0.93504 0.38868 0.33804 0.0
C103 C 0.81294 0.51121 0.27925 0.0
O104 O 0.00945 0.30339 0.26337 0.0
O105 O 0.08179 0.41315 0.29227 0.0
O106 O 0.00369 0.35965 0.43553 0.0
C107 C 0.07296 0.35477 0.25398 0.0
O108 O 0.7983 0.47707 0.32962 0.0
C109 C 0.00847 0.43985 0.44692 0.0
O110 O 0.88872 0.49879 0.26021 0.0
O111 O 0.9754 0.49353 0.40956 0.0
C112 C 0.84072 0.21643 0.83486 0.0
O113 O 0.82499 0.29222 0.85116 0.0
Cd114 Cd 0.95575 0.35264 0.80409 0.0
O115 O 0.91282 0.20484 0.80913 0.0
Cd116 Cd -0.00089 0.35015 0.8102 0.0
C117 C 0.04304 0.25534 0.69993 0.0
O118 O 0.91262 0.47603 0.75848 0.0
O119 O 0.05354 0.48143 0.76002 0.0
O120 O 0.95065 0.38622 0.9106 0.0
C121 C 0.98217 0.51661 0.74403 0.0
O122 O 0.96797 0.2864 0.70731 0.0
C123 C 0.02761 0.39506 0.93117 0.0
O124 O 0.09737 0.26209 0.74284 0.0
O125 O 0.09135 0.37626 0.89759 0.0
C126 C 0.20128 0.79603 0.86099 0.0
O127 O 0.12661 0.75931 0.85634 0.0
Cd128 Cd 0.06703 0.88693 0.80567 0.0
O129 O 0.20756 0.87532 0.84574 0.0
Cd130 Cd 0.06644 0.95291 0.80882 0.0
C131 C 0.20352 0.96559 0.7128 0.0
O132 O 0.95084 0.88161 0.74009 0.0
O133 O 0.95742 0.02091 0.75002 0.0
O134 O 0.98207 0.92319 0.89704 0.0
C135 C 0.92134 0.95603 0.72573 0.0
O136 O 0.17461 0.89167 0.72821 0.0
C137 C 0.98408 0.00107 0.91379 0.0
O138 O 0.17431 0.03049 0.73979 0.0
O139 O 0.03033 0.056 0.88407 0.0
C140 C 0.76989 0.1525 0.8324 0.0
O141 O 0.78095 0.07675 0.81329 0.0
Cd142 Cd 0.6234 0.0615 0.79353 0.0
O143 O 0.69233 0.17854 0.83767 0.0
Cd144 Cd 0.58218 0.07268 0.79418 0.0
C145 C 0.55268 0.22702 0.72161 0.0
O146 O 0.57459 0.94092 0.73571 0.0
O147 O 0.6486 0.03819 0.69069 0.0
O148 O 0.59189 0.9868 0.88774 0.0
C149 C 0.60596 0.96795 0.68695 0.0
O150 O 0.62588 0.19183 0.72873 0.0
C151 C 0.50929 0.98389 0.89479 0.0
O152 O 0.48748 0.19225 0.74818 0.0
O153 O 0.46139 0.0219 0.85581 0.0
C154 C 0.2814 0.74589 0.87108 0.0
O155 O 0.35609 0.78291 0.87131 0.0
Cd156 Cd 0.43016 0.64959 0.84971 0.0
O157 O 0.27902 0.66414 0.86778 0.0
Cd158 Cd 0.42902 0.58745 0.85536 0.0
C159 C 0.30903 0.542 0.75771 0.0
O160 O 0.53527 0.66616 0.77941 0.0
O161 O 0.53722 0.52783 0.79239 0.0
O162 O 0.49907 0.62374 0.95168 0.0
C163 C 0.56304 0.59369 0.76245 0.0
O164 O 0.33838 0.61771 0.76466 0.0
C165 C 0.50679 0.54502 -0.032 0.0
O166 O 0.3293 0.48496 0.79684 0.0
O167 O 0.47395 0.48779 0.93425 0.0
C168 C 0.7963 0.2612 0.55356 0.0
O169 O 0.77662 0.19421 0.52485 0.0
Cd170 Cd 0.90544 0.1184 0.57251 0.0
O171 O 0.86052 0.25573 0.5885 0.0
Cd172 Cd 0.92582 0.0988 0.582 0.0
C173 C 0.05669 0.20554 0.64563 0.0
O174 O 0.84115 0.04488 0.66217 0.0
O175 O 0.92311 0.95045 0.62434 0.0
O176 O 0.8698 0.02903 0.48891 0.0
C177 C 0.87886 0.97282 0.6687 0.0
O178 O 0.01829 0.23486 0.59973 0.0
C179 C 0.94661 0.02334 0.46776 0.0
O180 O 0.05361 0.12436 0.65097 0.0
O181 O 0.00974 0.05928 0.49589 0.0
C182 C 0.27689 0.77551 0.53862 0.0
O183 O 0.35736 0.76229 0.52973 0.0
Cd184 Cd 0.39805 0.90276 0.56686 0.0
O185 O 0.25505 0.8507 0.553 0.0
Cd186 Cd 0.38859 0.95467 0.56213 0.0
C187 C 0.27035 0.96893 0.66605 0.0
O188 O 0.5229 0.88501 0.61807 0.0
O189 O 0.50499 0.02313 0.61853 0.0
O190 O 0.43731 0.9301 0.46045 0.0
C191 C 0.54971 0.95825 0.63515 0.0
O192 O 0.31153 0.90029 0.65729 0.0
C193 C 0.43259 0.00919 0.44463 0.0
O194 O 0.28107 0.03086 0.62858 0.0
O195 O 0.40316 0.06202 0.48204 0.0
C196 C 0.73925 0.33573 0.5572 0.0
O197 O 0.77099 0.41062 0.56612 0.0
Cd198 Cd 0.6342 0.46105 0.60545 0.0
O199 O 0.65819 0.32358 0.56604 0.0
Cd200 Cd 0.57238 0.45549 0.60128 0.0
C201 C 0.55204 0.30722 0.6857 0.0
O202 O 0.64967 0.55743 0.67907 0.0
O203 O 0.5087 0.54762 0.67271 0.0
O204 O 0.59027 0.53428 0.50574 0.0
C205 C 0.57552 0.57767 0.69957 0.0
O206 O 0.62454 0.34655 0.68006 0.0
C207 C 0.50865 0.53067 0.49433 0.0
O208 O 0.48875 0.33272 0.6532 0.0
O209 O 0.45871 0.49309 0.53229 0.0
C210 C 0.21671 0.7031 0.54932 0.0
O211 O 0.13468 0.71329 0.55387 0.0
Cd212 Cd 0.11652 0.57128 0.60458 0.0
O213 O 0.24751 0.63173 0.5671 0.0
Cd214 Cd 0.12306 0.53881 0.60736 0.0
C215 C 0.2466 0.53129 0.70819 0.0
O216 O 0.97436 0.53529 0.64477 0.0
O217 O 0.04964 0.62755 0.69102 0.0
O218 O 0.05979 0.55221 0.50717 0.0
C219 C 0.98511 0.57512 0.69253 0.0
O220 O 0.21592 0.60002 0.68614 0.0
C221 C 0.05099 0.47125 0.5006 0.0
O222 O 0.22357 0.46075 0.68391 0.0
O223 O 0.07975 0.42057 0.54181 0.0
loop_
_geom_bond_atom_site_label_1
_geom_bond_atom_site_label_2
_geom_bond_distance
_geom_bond_site_symmetry_2
_ccdc_geom_bond_type
C0 O1 1.306 . S
C0 O3 1.160 . S
O1 C0 1.306 . S
O1 Cd2 2.228 . S
Cd2 O1 2.228 . S
Cd2 O6 2.273 . S
Cd2 O10 2.277 . S
O3 C0 1.160 . S
O3 Cd4 2.203 . S
Cd4 O3 2.203 . S
Cd4 O6 2.411 . S
Cd4 O7 2.333 1_455 S
Cd4 O8 2.352 . S
Cd4 O12 2.277 1_455 S
Cd4 O13 2.356 1_455 S
C5 O10 1.209 1_655 S
C5 O12 1.226 . S
O6 Cd2 2.273 . S
O6 Cd4 2.411 . S
O6 C9 1.320 1_455 S
O7 Cd4 2.333 1_655 S
O7 C9 1.214 . S
O8 Cd4 2.352 . S
O8 C11 1.258 1_455 S
C9 O6 1.320 1_655 S
C9 O7 1.214 . S
O10 Cd2 2.277 . S
O10 C5 1.209 1_455 S
C11 O8 1.258 1_655 S
C11 O13 1.282 . S
O12 Cd4 2.277 1_655 S
O12 C5 1.226 . S
O13 Cd4 2.356 1_655 S
O13 C11 1.282 . S
C14 O15 1.306 . S
C14 O17 1.160 . S
O15 C14 1.306 . S
O15 Cd16 2.228 . S
Cd16 O15 2.228 . S
Cd16 O20 2.273 . S
Cd16 O24 2.277 . S
O17 C14 1.160 . S
O17 Cd18 2.203 . S
Cd18 O17 2.203 . S
Cd18 O20 2.411 . S
Cd18 O21 2.333 1_545 S
Cd18 O22 2.352 . S
Cd18 O26 2.277 1_545 S
Cd18 O27 2.356 1_545 S
C19 O24 1.209 1_565 S
C19 O26 1.226 . S
O20 Cd16 2.273 . S
O20 Cd18 2.411 . S
O20 C23 1.320 1_545 S
O21 Cd18 2.333 1_565 S
O21 C23 1.214 . S
O22 Cd18 2.352 . S
O22 C25 1.258 1_545 S
C23 O20 1.320 1_565 S
C23 O21 1.214 . S
O24 Cd16 2.277 . S
O24 C19 1.209 1_545 S
C25 O22 1.258 1_565 S
C25 O27 1.282 . S
O26 Cd18 2.277 1_565 S
O26 C19 1.226 . S
O27 Cd18 2.356 1_565 S
O27 C25 1.282 . S
C28 O29 1.306 . S
C28 O31 1.160 . S
O29 C28 1.306 . S
O29 Cd30 2.228 . S
Cd30 O29 2.228 . S
Cd30 O34 2.273 . S
Cd30 O38 2.277 . S
O31 C28 1.160 . S
O31 Cd32 2.203 . S
Cd32 O31 2.203 . S
Cd32 O34 2.411 . S
Cd32 O35 2.333 . S
Cd32 O36 2.352 . S
Cd32 O40 2.277 . S
Cd32 O41 2.356 . S
C33 O38 1.209 . S
C33 O40 1.226 . S
O34 Cd30 2.273 . S
O34 Cd32 2.411 . S
O34 C37 1.320 . S
O35 Cd32 2.333 . S
O35 C37 1.214 . S
O36 Cd32 2.352 . S
O36 C39 1.258 . S
C37 O34 1.320 . S
C37 O35 1.214 . S
O38 Cd30 2.277 . S
O38 C33 1.209 . S
C39 O36 1.258 . S
C39 O41 1.282 . S
O40 Cd32 2.277 . S
O40 C33 1.226 . S
O41 Cd32 2.356 . S
O41 C39 1.282 . S
C42 O43 1.306 . S
C42 O45 1.160 . S
O43 C42 1.306 . S
O43 Cd44 2.228 . S
Cd44 O43 2.228 . S
Cd44 O48 2.273 . S
Cd44 O52 2.277 . S
O45 C42 1.160 . S
O45 Cd46 2.203 . S
Cd46 O45 2.203 . S
Cd46 O48 2.411 . S
Cd46 O49 2.333 . S
Cd46 O50 2.352 . S
Cd46 O54 2.277 . S
Cd46 O55 2.356 . S
C47 O52 1.209 . S
C47 O54 1.226 . S
O48 Cd44 2.273 . S
O48 Cd46 2.411 . S
O48 C51 1.320 . S
O49 Cd46 2.333 . S
O49 C51 1.214 . S
O50 Cd46 2.352 . S
O50 C53 1.258 . S
C51 O48 1.320 . S
C51 O49 1.214 . S
O52 Cd44 2.277 . S
O52 C47 1.209 . S
C53 O50 1.258 . S
C53 O55 1.282 . S
O54 Cd46 2.277 . S
O54 C47 1.226 . S
O55 Cd46 2.356 . S
O55 C53 1.282 . S
C56 O57 1.306 . S
C56 O59 1.160 . S
O57 C56 1.306 . S
O57 Cd58 2.228 . S
Cd58 O57 2.228 . S
Cd58 O62 2.273 . S
Cd58 O66 2.277 . S
O59 C56 1.160 . S
O59 Cd60 2.203 . S
Cd60 O59 2.203 . S
Cd60 O62 2.411 . S
Cd60 O63 2.333 1_455 S
Cd60 O64 2.352 . S
Cd60 O68 2.277 1_455 S
Cd60 O69 2.356 1_455 S
C61 O66 1.209 1_655 S
C61 O68 1.226 . S
O62 Cd58 2.273 . S
O62 Cd60 2.411 . S
O62 C65 1.320 1_455 S
O63 Cd60 2.333 1_655 S
O63 C65 1.214 . S
O64 Cd60 2.352 . S
O64 C67 1.258 1_455 S
C65 O62 1.320 1_655 S
C65 O63 1.214 . S
O66 Cd58 2.277 . S
O66 C61 1.209 1_455 S
C67 O64 1.258 1_655 S
C67 O69 1.282 . S
O68 Cd60 2.277 1_655 S
O68 C61 1.226 . S
O69 Cd60 2.356 1_655 S
O69 C67 1.282 . S
C70 O71 1.306 . S
C70 O73 1.160 . S
O71 C70 1.306 . S
O71 Cd72 2.228 . S
Cd72 O71 2.228 . S
Cd72 O76 2.273 . S
Cd72 O80 2.277 . S
O73 C70 1.160 . S
O73 Cd74 2.203 . S
Cd74 O73 2.203 . S
Cd74 O76 2.411 . S
Cd74 O77 2.333 1_545 S
Cd74 O78 2.352 . S
Cd74 O82 2.277 1_545 S
Cd74 O83 2.356 1_545 S
C75 O80 1.209 1_565 S
C75 O82 1.226 . S
O76 Cd72 2.273 . S
O76 Cd74 2.411 . S
O76 C79 1.320 1_545 S
O77 Cd74 2.333 1_565 S
O77 C79 1.214 . S
O78 Cd74 2.352 . S
O78 C81 1.258 1_545 S
C79 O76 1.320 1_565 S
C79 O77 1.214 . S
O80 Cd72 2.277 . S
O80 C75 1.209 1_545 S
C81 O78 1.258 1_565 S
C81 O83 1.282 . S
O82 Cd74 2.277 1_565 S
O82 C75 1.226 . S
O83 Cd74 2.356 1_565 S
O83 C81 1.282 . S
C84 O85 1.306 . S
C84 O87 1.160 . S
O85 C84 1.306 . S
O85 Cd86 2.228 . S
Cd86 O85 2.228 . S
Cd86 O90 2.273 . S
Cd86 O94 2.277 . S
O87 C84 1.160 . S
O87 Cd88 2.203 . S
Cd88 O87 2.203 . S
Cd88 O90 2.411 . S
Cd88 O91 2.333 . S
Cd88 O92 2.352 . S
Cd88 O96 2.277 . S
Cd88 O97 2.356 . S
C89 O94 1.209 . S
C89 O96 1.226 . S
O90 Cd86 2.273 . S
O90 Cd88 2.411 . S
O90 C93 1.320 . S
O91 Cd88 2.333 . S
O91 C93 1.214 . S
O92 Cd88 2.352 . S
O92 C95 1.258 . S
C93 O90 1.320 . S
C93 O91 1.214 . S
O94 Cd86 2.277 . S
O94 C89 1.209 . S
C95 O92 1.258 . S
C95 O97 1.282 . S
O96 Cd88 2.277 . S
O96 C89 1.226 . S
O97 Cd88 2.356 . S
O97 C95 1.282 . S
C98 O99 1.306 . S
C98 O101 1.160 . S
O99 C98 1.306 . S
O99 Cd100 2.228 . S
Cd100 O99 2.228 . S
Cd100 O104 2.273 . S
Cd100 O108 2.277 . S
O101 C98 1.160 . S
O101 Cd102 2.203 . S
Cd102 O101 2.203 . S
Cd102 O104 2.411 . S
Cd102 O105 2.333 . S
Cd102 O106 2.352 . S
Cd102 O110 2.277 . S
Cd102 O111 2.356 . S
C103 O108 1.209 . S
C103 O110 1.226 . S
O104 Cd100 2.273 . S
O104 Cd102 2.411 . S
O104 C107 1.320 . S
O105 Cd102 2.333 . S
O105 C107 1.214 . S
O106 Cd102 2.352 . S
O106 C109 1.258 . S
C107 O104 1.320 . S
C107 O105 1.214 . S
O108 Cd100 2.277 . S
O108 C103 1.209 . S
C109 O106 1.258 . S
C109 O111 1.282 . S
O110 Cd102 2.277 . S
O110 C103 1.226 . S
O111 Cd102 2.356 . S
O111 C109 1.282 . S
C112 O113 1.306 . S
C112 O115 1.160 . S
O113 C112 1.306 . S
O113 Cd114 2.228 . S
Cd114 O113 2.228 . S
Cd114 O118 2.273 . S
Cd114 O122 2.277 . S
O115 C112 1.160 . S
O115 Cd116 2.203 . S
Cd116 O115 2.203 . S
Cd116 O118 2.411 . S
Cd116 O119 2.333 1_655 S
Cd116 O120 2.352 . S
Cd116 O124 2.277 1_655 S
Cd116 O125 2.356 1_655 S
C117 O122 1.209 1_455 S
C117 O124 1.226 . S
O118 Cd114 2.273 . S
O118 Cd116 2.411 . S
O118 C121 1.320 1_655 S
O119 Cd116 2.333 1_455 S
O119 C121 1.214 . S
O120 Cd116 2.352 . S
O120 C123 1.258 1_655 S
C121 O118 1.320 1_455 S
C121 O119 1.214 . S
O122 Cd114 2.277 . S
O122 C117 1.209 1_655 S
C123 O120 1.258 1_455 S
C123 O125 1.282 . S
O124 Cd116 2.277 1_455 S
O124 C117 1.226 . S
O125 Cd116 2.356 1_455 S
O125 C123 1.282 . S
C126 O127 1.306 . S
C126 O129 1.160 . S
O127 C126 1.306 . S
O127 Cd128 2.228 . S
Cd128 O127 2.228 . S
Cd128 O132 2.273 . S
Cd128 O136 2.277 . S
O129 C126 1.160 . S
O129 Cd130 2.203 . S
Cd130 O129 2.203 . S
Cd130 O132 2.411 . S
Cd130 O133 2.333 1_565 S
Cd130 O134 2.352 . S
Cd130 O138 2.277 1_565 S
Cd130 O139 2.356 1_565 S
C131 O136 1.209 1_545 S
C131 O138 1.226 . S
O132 Cd128 2.273 . S
O132 Cd130 2.411 . S
O132 C135 1.320 1_565 S
O133 Cd130 2.333 1_545 S
O133 C135 1.214 . S
O134 Cd130 2.352 . S
O134 C137 1.258 1_565 S
C135 O132 1.320 1_545 S
C135 O133 1.214 . S
O136 Cd128 2.277 . S
O136 C131 1.209 1_565 S
C137 O134 1.258 1_545 S
C137 O139 1.282 . S
O138 Cd130 2.277 1_545 S
O138 C131 1.226 . S
O139 Cd130 2.356 1_545 S
O139 C137 1.282 . S
C140 O141 1.306 . S
C140 O143 1.160 . S
O141 C140 1.306 . S
O141 Cd142 2.228 . S
Cd142 O141 2.228 . S
Cd142 O146 2.273 . S
Cd142 O150 2.277 . S
O143 C140 1.160 . S
O143 Cd144 2.203 . S
Cd144 O143 2.203 . S
Cd144 O146 2.411 . S
Cd144 O147 2.333 . S
Cd144 O148 2.352 . S
Cd144 O152 2.277 . S
Cd144 O153 2.356 . S
C145 O150 1.209 . S
C145 O152 1.226 . S
O146 Cd142 2.273 . S
O146 Cd144 2.411 . S
O146 C149 1.320 . S
O147 Cd144 2.333 . S
O147 C149 1.214 . S
O148 Cd144 2.352 . S
O148 C151 1.258 . S
C149 O146 1.320 . S
C149 O147 1.214 . S
O150 Cd142 2.277 . S
O150 C145 1.209 . S
C151 O148 1.258 . S
C151 O153 1.282 . S
O152 Cd144 2.277 . S
O152 C145 1.226 . S
O153 Cd144 2.356 . S
O153 C151 1.282 . S
C154 O155 1.306 . S
C154 O157 1.160 . S
O155 C154 1.306 . S
O155 Cd156 2.228 . S
Cd156 O155 2.228 . S
Cd156 O160 2.273 . S
Cd156 O164 2.277 . S
O157 C154 1.160 . S
O157 Cd158 2.203 . S
Cd158 O157 2.203 . S
Cd158 O160 2.411 . S
Cd158 O161 2.333 . S
Cd158 O162 2.352 . S
Cd158 O166 2.277 . S
Cd158 O167 2.356 . S
C159 O164 1.209 . S
C159 O166 1.226 . S
O160 Cd156 2.273 . S
O160 Cd158 2.411 . S
O160 C163 1.320 . S
O161 Cd158 2.333 . S
O161 C163 1.214 . S
O162 Cd158 2.352 . S
O162 C165 1.258 . S
C163 O160 1.320 . S
C163 O161 1.214 . S
O164 Cd156 2.277 . S
O164 C159 1.209 . S
C165 O162 1.258 . S
C165 O167 1.282 . S
O166 Cd158 2.277 . S
O166 C159 1.226 . S
O167 Cd158 2.356 . S
O167 C165 1.282 . S
C168 O169 1.306 . S
C168 O171 1.160 . S
O169 C168 1.306 . S
O169 Cd170 2.228 . S
Cd170 O169 2.228 . S
Cd170 O174 2.273 . S
Cd170 O178 2.277 . S
O171 C168 1.160 . S
O171 Cd172 2.203 . S
Cd172 O171 2.203 . S
Cd172 O174 2.411 . S
Cd172 O175 2.333 1_655 S
Cd172 O176 2.352 . S
Cd172 O180 2.277 1_655 S
Cd172 O181 2.356 1_655 S
C173 O178 1.209 1_455 S
C173 O180 1.226 . S
O174 Cd170 2.273 . S
O174 Cd172 2.411 . S
O174 C177 1.320 1_655 S
O175 Cd172 2.333 1_455 S
O175 C177 1.214 . S
O176 Cd172 2.352 . S
O176 C179 1.258 1_655 S
C177 O174 1.320 1_455 S
C177 O175 1.214 . S
O178 Cd170 2.277 . S
O178 C173 1.209 1_655 S
C179 O176 1.258 1_455 S
C179 O181 1.282 . S
O180 Cd172 2.277 1_455 S
O180 C173 1.226 . S
O181 Cd172 2.356 1_455 S
O181 C179 1.282 . S
C182 O183 1.306 . S
C182 O185 1.160 . S
O183 C182 1.306 . S
O183 Cd184 2.228 . S
Cd184 O183 2.228 . S
Cd184 O188 2.273 . S
Cd184 O192 2.277 . S
O185 C182 1.160 . S
O185 Cd186 2.203 . S
Cd186 O185 2.203 . S
Cd186 O188 2.411 . S
Cd186 O189 2.333 1_565 S
Cd186 O190 2.352 . S
Cd186 O194 2.277 1_565 S
Cd186 O195 2.356 1_565 S
C187 O192 1.209 1_545 S
C187 O194 1.226 . S
O188 Cd184 2.273 . S
O188 Cd186 2.411 . S
O188 C191 1.320 1_565 S
O189 Cd186 2.333 1_545 S
O189 C191 1.214 . S
O190 Cd186 2.352 . S
O190 C193 1.258 1_565 S
C191 O188 1.320 1_545 S
C191 O189 1.214 . S
O192 Cd184 2.277 . S
O192 C187 1.209 1_565 S
C193 O190 1.258 1_545 S
C193 O195 1.282 . S
O194 Cd186 2.277 1_545 S
O194 C187 1.226 . S
O195 Cd186 2.356 1_545 S
O195 C193 1.282 . S
C196 O197 1.306 . S
C196 O199 1.160 . S
O197 C196 1.306 . S
O197 Cd198 2.228 . S
Cd198 O197 2.228 . S
Cd198 O202 2.273 . S
Cd198 O206 2.277 . S
O199 C196 1.160 . S
O199 Cd200 2.203 . S
Cd200 O199 2.203 . S
Cd200 O202 2.411 . S
Cd200 O203 2.333 . S
Cd200 O204 2.352 . S
Cd200 O208 2.277 . S
Cd200 O209 2.356 . S
C201 O206 1.209 . S
C201 O208 1.226 . S
O202 Cd198 2.273 . S
O202 Cd200 2.411 . S
O202 C205 1.320 . S
O203 Cd200 2.333 . S
O203 C205 1.214 . S
O204 Cd200 2.352 . S
O204 C207 1.258 . S
C205 O202 1.320 . S
C205 O203 1.214 . S
O206 Cd198 2.277 . S
O206 C201 1.209 . S
C207 O204 1.258 . S
C207 O209 1.282 . S
O208 Cd200 2.277 . S
O208 C201 1.226 . S
O209 Cd200 2.356 . S
O209 C207 1.282 . S
C210 O211 1.306 . S
C210 O213 1.160 . S
O211 C210 1.306 . S
O211 Cd212 2.228 . S
Cd212 O211 2.228 . S
Cd212 O216 2.273 . S
Cd212 O220 2.277 . S
O213 C210 1.160 . S
O213 Cd214 2.203 . S
Cd214 O213 2.203 . S
Cd214 O216 2.411 . S
Cd214 O217 2.333 . S
Cd214 O218 2.352 . S
Cd214 O222 2.277 . S
Cd214 O223 2.356 . S
C215 O220 1.209 . S
C215 O222 1.226 . S
O216 Cd212 2.273 . S
O216 Cd214 2.411 . S
O216 C219 1.320 . S
O217 Cd214 2.333 . S
O217 C219 1.214 . S
O218 Cd214 2.352 . S
O218 C221 1.258 . S
C219 O216 1.320 . S
C219 O217 1.214 . S
O220 Cd212 2.277 . S
O220 C215 1.209 . S
C221 O218 1.258 . S
C221 O223 1.282 . S
O222 Cd214 2.277 . S
O222 C215 1.226 . S
O223 Cd214 2.356 . S
O223 C221 1.282 . S
C0 C28 1.883 . S
C14 C42 1.883 . S
C56 C84 1.883 . S
C98 C70 1.883 . S
C112 C140 1.883 . S
C154 C126 1.883 . S
C196 C168 1.883 . S
C210 C182 1.883 . S
C107 C9 1.622 . S
C23 C65 1.622 . S
C79 C37 1.622 . S
C51 C93 1.622 . S
C219 C121 1.622 . S
C135 C177 1.622 . S
C149 C191 1.622 . S
C205 C163 1.622 . S
C5 C61 2.565 . S
C19 C75 2.565 . S
C89 C33 2.565 . S
C47 C103 2.565 . S
C173 C117 2.565 . S
C187 C131 2.565 . S
C145 C201 2.565 . S
C159 C215 2.565 . S
C11 C123 2.594 1_654 S
C137 C25 2.594 1_446 S
C39 C151 2.594 1_564 S
C165 C53 2.594 1_556 S
C67 C179 2.594 1_665 S
C81 C193 2.594 1_565 S
C207 C95 2.594 . S
C109 C221 2.594 1_655 S
