# Generated by pormake.
# Topology ull, (4)-cn, num edge types: 1
# Building blocks:
#     Node 0, Type 0, BuildingBlock: NAHDIM_clean_sbu_0, # of connection points: 4
#     Node 1, Type 0, BuildingBlock: NAHDIM_clean_sbu_0, # of connection points: 4
#     Node 2, Type 0, BuildingBlock: NAHDIM_clean_sbu_0, # of connection points: 4
#     Node 3, Type 0, BuildingBlock: NAHDIM_clean_sbu_0, # of connection points: 4
#     Node 4, Type 0, BuildingBlock: NAHDIM_clean_sbu_0, # of connection points: 4
#     Node 5, Type 0, BuildingBlock: NAHDIM_clean_sbu_0, # of connection points: 4
#     Node 6, Type 0, BuildingBlock: NAHDIM_clean_sbu_0, # of connection points: 4
#     Node 7, Type 0, BuildingBlock: NAHDIM_clean_sbu_0, # of connection points: 4
#     Node 8, Type 0, BuildingBlock: NAHDIM_clean_sbu_0, # of connection points: 4
#     Node 9, Type 0, BuildingBlock: NAHDIM_clean_sbu_0, # of connection points: 4
#     Node 10, Type 0, BuildingBlock: NAHDIM_clean_sbu_0, # of connection points: 4
#     Node 11, Type 0, BuildingBlock: NAHDIM_clean_sbu_0, # of connection points: 4
#     Node 12, Type 0, BuildingBlock: NAHDIM_clean_sbu_0, # of connection points: 4
#     Node 13, Type 0, BuildingBlock: NAHDIM_clean_sbu_0, # of connection points: 4
#     Node 14, Type 0, BuildingBlock: NAHDIM_clean_sbu_0, # of connection points: 4
#     Node 15, Type 0, BuildingBlock: NAHDIM_clean_sbu_0, # of connection points: 4
#     Node 16, Type 0, BuildingBlock: NAHDIM_clean_sbu_0, # of connection points: 4
#     Node 17, Type 0, BuildingBlock: NAHDIM_clean_sbu_0, # of connection points: 4
#     Node 18, Type 0, BuildingBlock: NAHDIM_clean_sbu_0, # of connection points: 4
#     Node 19, Type 0, BuildingBlock: NAHDIM_clean_sbu_0, # of connection points: 4
#     Node 20, Type 0, BuildingBlock: NAHDIM_clean_sbu_0, # of connection points: 4
#     Node 21, Type 0, BuildingBlock: NAHDIM_clean_sbu_0, # of connection points: 4
#     Node 22, Type 0, BuildingBlock: NAHDIM_clean_sbu_0, # of connection points: 4
#     Node 23, Type 0, BuildingBlock: NAHDIM_clean_sbu_0, # of connection points: 4
#     Node 24, Type 0, BuildingBlock: NAHDIM_clean_sbu_0, # of connection points: 4
#     Node 25, Type 0, BuildingBlock: NAHDIM_clean_sbu_0, # of connection points: 4
#     Node 26, Type 0, BuildingBlock: NAHDIM_clean_sbu_0, # of connection points: 4
#     Node 27, Type 0, BuildingBlock: NAHDIM_clean_sbu_0, # of connection points: 4
#     Node 28, Type 0, BuildingBlock: NAHDIM_clean_sbu_0, # of connection points: 4
#     Node 29, Type 0, BuildingBlock: NAHDIM_clean_sbu_0, # of connection points: 4
#     Node 30, Type 0, BuildingBlock: NAHDIM_clean_sbu_0, # of connection points: 4
#     Node 31, Type 0, BuildingBlock: NAHDIM_clean_sbu_0, # of connection points: 4
#     Node 32, Type 0, BuildingBlock: NAHDIM_clean_sbu_0, # of connection points: 4
#     Node 33, Type 0, BuildingBlock: NAHDIM_clean_sbu_0, # of connection points: 4
#     Node 34, Type 0, BuildingBlock: NAHDIM_clean_sbu_0, # of connection points: 4
#     Node 35, Type 0, BuildingBlock: NAHDIM_clean_sbu_0, # of connection points: 4
#     Node 36, Type 0, BuildingBlock: NAHDIM_clean_sbu_0, # of connection points: 4
#     Node 37, Type 0, BuildingBlock: NAHDIM_clean_sbu_0, # of connection points: 4
#     Node 38, Type 0, BuildingBlock: NAHDIM_clean_sbu_0, # of connection points: 4
#     Node 39, Type 0, BuildingBlock: NAHDIM_clean_sbu_0, # of connection points: 4
#     Node 40, Type 0, BuildingBlock: NAHDIM_clean_sbu_0, # of connection points: 4
#     Node 41, Type 0, BuildingBlock: NAHDIM_clean_sbu_0, # of connection points: 4
#     Node 42, Type 0, BuildingBlock: NAHDIM_clean_sbu_0, # of connection points: 4
#     Node 43, Type 0, BuildingBlock: NAHDIM_clean_sbu_0, # of connection points: 4
#     Node 44, Type 0, BuildingBlock: NAHDIM_clean_sbu_0, # of connection points: 4
#     Node 45, Type 0, BuildingBlock: NAHDIM_clean_sbu_0, # of connection points: 4
#     Node 46, Type 0, BuildingBlock: NAHDIM_clean_sbu_0, # of connection points: 4
#     Node 47, Type 0, BuildingBlock: NAHDIM_clean_sbu_0, # of connection points: 4
#     Edge 48, Type (0, 0), BuildingBlock: ZUJKAS_clean_linker_0, # of connection points: 2
#     Edge 49, Type (0, 0), BuildingBlock: ZUJKAS_clean_linker_0, # of connection points: 2
#     Edge 50, Type (0, 0), BuildingBlock: ZUJKAS_clean_linker_0, # of connection points: 2
#     Edge 51, Type (0, 0), BuildingBlock: ZUJKAS_clean_linker_0, # of connection points: 2
#     Edge 52, Type (0, 0), BuildingBlock: ZUJKAS_clean_linker_0, # of connection points: 2
#     Edge 53, Type (0, 0), BuildingBlock: ZUJKAS_clean_linker_0, # of connection points: 2
#     Edge 54, Type (0, 0), BuildingBlock: ZUJKAS_clean_linker_0, # of connection points: 2
#     Edge 55, Type (0, 0), BuildingBlock: ZUJKAS_clean_linker_0, # of connection points: 2
#     Edge 56, Type (0, 0), BuildingBlock: ZUJKAS_clean_linker_0, # of connection points: 2
#     Edge 57, Type (0, 0), BuildingBlock: ZUJKAS_clean_linker_0, # of connection points: 2
#     Edge 58, Type (0, 0), BuildingBlock: ZUJKAS_clean_linker_0, # of connection points: 2
#     Edge 59, Type (0, 0), BuildingBlock: ZUJKAS_clean_linker_0, # of connection points: 2
#     Edge 60, Type (0, 0), BuildingBlock: ZUJKAS_clean_linker_0, # of connection points: 2
#     Edge 61, Type (0, 0), BuildingBlock: ZUJKAS_clean_linker_0, # of connection points: 2
#     Edge 62, Type (0, 0), BuildingBlock: ZUJKAS_clean_linker_0, # of connection points: 2
#     Edge 63, Type (0, 0), BuildingBlock: ZUJKAS_clean_linker_0, # of connection points: 2
#     Edge 64, Type (0, 0), BuildingBlock: ZUJKAS_clean_linker_0, # of connection points: 2
#     Edge 65, Type (0, 0), BuildingBlock: ZUJKAS_clean_linker_0, # of connection points: 2
#     Edge 66, Type (0, 0), BuildingBlock: ZUJKAS_clean_linker_0, # of connection points: 2
#     Edge 67, Type (0, 0), BuildingBlock: ZUJKAS_clean_linker_0, # of connection points: 2
#     Edge 68, Type (0, 0), BuildingBlock: ZUJKAS_clean_linker_0, # of connection points: 2
#     Edge 69, Type (0, 0), BuildingBlock: ZUJKAS_clean_linker_0, # of connection points: 2
#     Edge 70, Type (0, 0), BuildingBlock: ZUJKAS_clean_linker_0, # of connection points: 2
#     Edge 71, Type (0, 0), BuildingBlock: ZUJKAS_clean_linker_0, # of connection points: 2
#     Edge 72, Type (0, 0), BuildingBlock: ZUJKAS_clean_linker_0, # of connection points: 2
#     Edge 73, Type (0, 0), BuildingBlock: ZUJKAS_clean_linker_0, # of connection points: 2
#     Edge 74, Type (0, 0), BuildingBlock: ZUJKAS_clean_linker_0, # of connection points: 2
#     Edge 75, Type (0, 0), BuildingBlock: ZUJKAS_clean_linker_0, # of connection points: 2
#     Edge 76, Type (0, 0), BuildingBlock: ZUJKAS_clean_linker_0, # of connection points: 2
#     Edge 77, Type (0, 0), BuildingBlock: ZUJKAS_clean_linker_0, # of connection points: 2
#     Edge 78, Type (0, 0), BuildingBlock: ZUJKAS_clean_linker_0, # of connection points: 2
#     Edge 79, Type (0, 0), BuildingBlock: ZUJKAS_clean_linker_0, # of connection points: 2
#     Edge 80, Type (0, 0), BuildingBlock: ZUJKAS_clean_linker_0, # of connection points: 2
#     Edge 81, Type (0, 0), BuildingBlock: ZUJKAS_clean_linker_0, # of connection points: 2
#     Edge 82, Type (0, 0), BuildingBlock: ZUJKAS_clean_linker_0, # of connection points: 2
#     Edge 83, Type (0, 0), BuildingBlock: ZUJKAS_clean_linker_0, # of connection points: 2
#     Edge 84, Type (0, 0), BuildingBlock: ZUJKAS_clean_linker_0, # of connection points: 2
#     Edge 85, Type (0, 0), BuildingBlock: ZUJKAS_clean_linker_0, # of connection points: 2
#     Edge 86, Type (0, 0), BuildingBlock: ZUJKAS_clean_linker_0, # of connection points: 2
#     Edge 87, Type (0, 0), BuildingBlock: ZUJKAS_clean_linker_0, # of connection points: 2
#     Edge 88, Type (0, 0), BuildingBlock: ZUJKAS_clean_linker_0, # of connection points: 2
#     Edge 89, Type (0, 0), BuildingBlock: ZUJKAS_clean_linker_0, # of connection points: 2
#     Edge 90, Type (0, 0), BuildingBlock: ZUJKAS_clean_linker_0, # of connection points: 2
#     Edge 91, Type (0, 0), BuildingBlock: ZUJKAS_clean_linker_0, # of connection points: 2
#     Edge 92, Type (0, 0), BuildingBlock: ZUJKAS_clean_linker_0, # of connection points: 2
#     Edge 93, Type (0, 0), BuildingBlock: ZUJKAS_clean_linker_0, # of connection points: 2
#     Edge 94, Type (0, 0), BuildingBlock: ZUJKAS_clean_linker_0, # of connection points: 2
#     Edge 95, Type (0, 0), BuildingBlock: ZUJKAS_clean_linker_0, # of connection points: 2
#     Edge 96, Type (0, 0), BuildingBlock: ZUJKAS_clean_linker_0, # of connection points: 2
#     Edge 97, Type (0, 0), BuildingBlock: ZUJKAS_clean_linker_0, # of connection points: 2
#     Edge 98, Type (0, 0), BuildingBlock: ZUJKAS_clean_linker_0, # of connection points: 2
#     Edge 99, Type (0, 0), BuildingBlock: ZUJKAS_clean_linker_0, # of connection points: 2
#     Edge 100, Type (0, 0), BuildingBlock: ZUJKAS_clean_linker_0, # of connection points: 2
#     Edge 101, Type (0, 0), BuildingBlock: ZUJKAS_clean_linker_0, # of connection points: 2
#     Edge 102, Type (0, 0), BuildingBlock: ZUJKAS_clean_linker_0, # of connection points: 2
#     Edge 103, Type (0, 0), BuildingBlock: ZUJKAS_clean_linker_0, # of connection points: 2
#     Edge 104, Type (0, 0), BuildingBlock: ZUJKAS_clean_linker_0, # of connection points: 2
#     Edge 105, Type (0, 0), BuildingBlock: ZUJKAS_clean_linker_0, # of connection points: 2
#     Edge 106, Type (0, 0), BuildingBlock: ZUJKAS_clean_linker_0, # of connection points: 2
#     Edge 107, Type (0, 0), BuildingBlock: ZUJKAS_clean_linker_0, # of connection points: 2
#     Edge 108, Type (0, 0), BuildingBlock: ZUJKAS_clean_linker_0, # of connection points: 2
#     Edge 109, Type (0, 0), BuildingBlock: ZUJKAS_clean_linker_0, # of connection points: 2
#     Edge 110, Type (0, 0), BuildingBlock: ZUJKAS_clean_linker_0, # of connection points: 2
#     Edge 111, Type (0, 0), BuildingBlock: ZUJKAS_clean_linker_0, # of connection points: 2
#     Edge 112, Type (0, 0), BuildingBlock: ZUJKAS_clean_linker_0, # of connection points: 2
#     Edge 113, Type (0, 0), BuildingBlock: ZUJKAS_clean_linker_0, # of connection points: 2
#     Edge 114, Type (0, 0), BuildingBlock: ZUJKAS_clean_linker_0, # of connection points: 2
#     Edge 115, Type (0, 0), BuildingBlock: ZUJKAS_clean_linker_0, # of connection points: 2
#     Edge 116, Type (0, 0), BuildingBlock: ZUJKAS_clean_linker_0, # of connection points: 2
#     Edge 117, Type (0, 0), BuildingBlock: ZUJKAS_clean_linker_0, # of connection points: 2
#     Edge 118, Type (0, 0), BuildingBlock: ZUJKAS_clean_linker_0, # of connection points: 2
#     Edge 119, Type (0, 0), BuildingBlock: ZUJKAS_clean_linker_0, # of connection points: 2
#     Edge 120, Type (0, 0), BuildingBlock: ZUJKAS_clean_linker_0, # of connection points: 2
#     Edge 121, Type (0, 0), BuildingBlock: ZUJKAS_clean_linker_0, # of connection points: 2
#     Edge 122, Type (0, 0), BuildingBlock: ZUJKAS_clean_linker_0, # of connection points: 2
#     Edge 123, Type (0, 0), BuildingBlock: ZUJKAS_clean_linker_0, # of connection points: 2
#     Edge 124, Type (0, 0), BuildingBlock: ZUJKAS_clean_linker_0, # of connection points: 2
#     Edge 125, Type (0, 0), BuildingBlock: ZUJKAS_clean_linker_0, # of connection points: 2
#     Edge 126, Type (0, 0), BuildingBlock: ZUJKAS_clean_linker_0, # of connection points: 2
#     Edge 127, Type (0, 0), BuildingBlock: ZUJKAS_clean_linker_0, # of connection points: 2
#     Edge 128, Type (0, 0), BuildingBlock: ZUJKAS_clean_linker_0, # of connection points: 2
#     Edge 129, Type (0, 0), BuildingBlock: ZUJKAS_clean_linker_0, # of connection points: 2
#     Edge 130, Type (0, 0), BuildingBlock: ZUJKAS_clean_linker_0, # of connection points: 2
#     Edge 131, Type (0, 0), BuildingBlock: ZUJKAS_clean_linker_0, # of connection points: 2
#     Edge 132, Type (0, 0), BuildingBlock: ZUJKAS_clean_linker_0, # of connection points: 2
#     Edge 133, Type (0, 0), BuildingBlock: ZUJKAS_clean_linker_0, # of connection points: 2
#     Edge 134, Type (0, 0), BuildingBlock: ZUJKAS_clean_linker_0, # of connection points: 2
#     Edge 135, Type (0, 0), BuildingBlock: ZUJKAS_clean_linker_0, # of connection points: 2
#     Edge 136, Type (0, 0), BuildingBlock: ZUJKAS_clean_linker_0, # of connection points: 2
#     Edge 137, Type (0, 0), BuildingBlock: ZUJKAS_clean_linker_0, # of connection points: 2
#     Edge 138, Type (0, 0), BuildingBlock: ZUJKAS_clean_linker_0, # of connection points: 2
#     Edge 139, Type (0, 0), BuildingBlock: ZUJKAS_clean_linker_0, # of connection points: 2
#     Edge 140, Type (0, 0), BuildingBlock: ZUJKAS_clean_linker_0, # of connection points: 2
#     Edge 141, Type (0, 0), BuildingBlock: ZUJKAS_clean_linker_0, # of connection points: 2
#     Edge 142, Type (0, 0), BuildingBlock: ZUJKAS_clean_linker_0, # of connection points: 2
#     Edge 143, Type (0, 0), BuildingBlock: ZUJKAS_clean_linker_0, # of connection points: 2
# Relax obj value: 0.161
# Max RMSD: 0.219
# Mean RMSD: 0.213
data_MOF--net-ull--node1-NAHDIM_clean_sbu_0--edge1-ZUJKAS_clean_linker_0
_symmetry_space_group_name_H-M    P1
_symmetry_Int_Tables_number       1
_symmetry_cell_setting            triclinic
loop_
_symmetry_equiv_pos_as_xyz
'x, y, z'
_cell_length_a     76.533732
_cell_length_b     77.921325
_cell_length_c     77.92131
_cell_angle_alpha  90.009886
_cell_angle_beta   90.004342
_cell_angle_gamma 89.986361
loop_
_atom_site_label
_atom_site_type_symbol
_atom_site_fract_x
_atom_site_fract_y
_atom_site_fract_z
_atom_type_partial_charge
C0 C 0.02671 0.34603 0.14768 0.0
O1 O 0.01442 0.35737 0.14451 0.0
O2 O 0.00734 0.3607 0.18945 0.0
Zn3 Zn 0.0039 0.33915 0.17563 0.0
O4 O 0.98256 0.34053 0.16069 0.0
C5 C 0.99767 0.32119 0.2073 0.0
O6 O 0.99505 0.33687 0.21292 0.0
O7 O 0.02507 0.3362 0.16059 0.0
C8 C 0.96718 0.34142 0.16675 0.0
O9 O 0.96497 0.34193 0.18346 0.0
C10 C 0.00256 0.37576 0.1853 0.0
O11 O 0.99418 0.3782 0.17079 0.0
O12 O 0.00162 0.31889 0.19162 0.0
C13 C 0.60142 0.00249 0.20189 0.0
O14 O 0.61449 0.99393 0.20868 0.0
O15 O 0.62578 0.02365 0.15576 0.0
Zn16 Zn 0.6242 0.00387 0.17225 0.0
O17 O 0.64514 0.00401 0.188 0.0
C18 C 0.63727 0.97733 0.15094 0.0
O19 O 0.65108 0.9873 0.1518 0.0
O20 O 0.60242 0.00726 0.18633 0.0
C21 C 0.65931 0.01175 0.1844 0.0
O22 O 0.66064 0.02 0.16976 0.0
C23 C 0.62347 0.03883 0.16129 0.0
O24 O 0.62028 0.04119 0.1777 0.0
O25 O 0.62351 0.98169 0.15896 0.0
C26 C 0.96265 0.64306 0.1585 0.0
O27 O 0.95929 0.63444 0.1726 0.0
O28 O 0.993 0.6255 0.18765 0.0
Zn29 Zn 0.99757 0.64629 0.17304 0.0
O30 O 0.01968 0.64395 0.15935 0.0
C31 C 0.00361 0.66587 0.20377 0.0
O32 O 0.00716 0.6506 0.21001 0.0
O33 O 0.97781 0.64932 0.15625 0.0
C34 C 0.03488 0.64598 0.1656 0.0
O35 O 0.03663 0.649 0.18209 0.0
C36 C 0.99304 0.61015 0.18218 0.0
O37 O 0.99694 0.60715 0.16603 0.0
O38 O -0.00084 0.66725 0.18811 0.0
C39 C 0.39483 0.99664 0.20339 0.0
O40 O 0.3789 0.99687 0.20962 0.0
O41 O 0.37482 0.98519 0.15512 0.0
Zn42 Zn 0.37638 0.00453 0.17213 0.0
O43 O 0.35425 0.00507 0.18604 0.0
C44 C 0.38629 0.0273 0.14485 0.0
O45 O 0.39355 0.01323 0.13889 0.0
O46 O 0.39717 0.0001 0.1876 0.0
C47 C 0.33916 0.00704 0.17954 0.0
O48 O 0.33762 0.00905 0.16287 0.0
C49 C 0.36958 0.97037 0.15956 0.0
O50 O 0.36494 0.96771 0.17557 0.0
O51 O 0.37864 0.02685 0.15932 0.0
C52 C 0.02546 0.63532 0.85487 0.0
O53 O 0.01067 0.62852 0.86007 0.0
O54 O 0.00577 0.62024 0.80965 0.0
Zn55 Zn 0.005 0.64133 0.8246 0.0
O56 O 0.98335 0.64177 0.83917 0.0
C57 C 0.01279 0.66183 0.79498 0.0
O58 O 0.02148 0.64797 0.79055 0.0
O59 O 0.02629 0.6418 0.83992 0.0
C60 C 0.96833 0.64508 0.83308 0.0
O61 O 0.96663 0.64774 0.81651 0.0
C62 C 0.00837 0.60516 0.81531 0.0
O63 O 0.00984 0.60273 0.83193 0.0
O64 O 0.0049 0.66214 0.80932 0.0
C65 C 0.39353 0.00138 0.79161 0.0
O66 O 0.37992 0.9937 0.7848 0.0
O67 O 0.3718 0.02145 0.83917 0.0
Zn68 Zn 0.37228 0.00167 0.82264 0.0
O69 O 0.35031 0.00199 0.80831 0.0
C70 C 0.36085 0.97735 0.84671 0.0
O71 O 0.34799 0.98853 0.84705 0.0
O72 O 0.39334 0.00509 0.80749 0.0
C73 C 0.34335 0.98828 0.80271 0.0
O74 O 0.35056 0.97343 0.80642 0.0
C75 C 0.36597 0.03615 0.83503 0.0
O76 O 0.35966 0.03851 0.81952 0.0
O77 O 0.37358 0.97994 0.83656 0.0
C78 C 0.97125 0.35638 0.85026 0.0
O79 O 0.985 0.36567 0.85423 0.0
O80 O 0.98908 0.37088 0.8057 0.0
Zn81 Zn 0.99185 0.34982 0.82033 0.0
O82 O 0.01365 0.35048 0.8347 0.0
C83 C -0.00096 0.32986 0.79017 0.0
O84 O 0.00562 0.34451 0.78492 0.0
O85 O 0.9711 0.34826 0.83612 0.0
C86 C 0.02906 0.35199 0.82884 0.0
O87 O 0.03142 0.35372 0.81223 0.0
C88 C 0.99391 0.38597 0.80965 0.0
O89 O 0.00191 0.38863 0.82433 0.0
O90 O 0.99238 0.32896 0.80508 0.0
C91 C 0.61317 0.98327 0.79341 0.0
O92 O 0.62829 0.97531 0.79262 0.0
O93 O 0.63248 0.97815 0.83531 0.0
Zn94 Zn 0.63207 -0.00126 0.81972 0.0
O95 O 0.65392 -0.0005 0.80509 0.0
C96 C 0.63913 0.02098 0.84773 0.0
O97 O 0.64994 0.00835 0.85119 0.0
O98 O 0.61125 0.99525 0.80432 0.0
C99 C 0.66618 0.01042 0.80649 0.0
O100 O 0.66514 0.02244 0.81826 0.0
C101 C 0.6459 0.96931 0.83904 0.0
O102 O 0.66114 0.97359 0.83257 0.0
O103 O 0.62967 0.02003 0.83434 0.0
C104 C 0.20046 0.02018 0.37445 0.0
O105 O 0.18381 0.02417 0.37536 0.0
O106 O 0.17541 0.03408 0.33997 0.0
Zn107 Zn 0.19105 0.01332 0.33956 0.0
O108 O 0.20619 0.01373 0.31845 0.0
C109 C 0.16129 0.99238 0.34722 0.0
O110 O 0.15586 0.00681 0.35411 0.0
O111 O 0.20658 0.01457 0.36035 0.0
C112 C 0.20244 0.00575 0.30471 0.0
O113 O 0.18793 0.99677 0.30393 0.0
C114 C 0.16812 0.04069 0.32691 0.0
O115 O 0.17103 0.03407 0.31166 0.0
O116 O 0.17629 0.99189 0.34024 0.0
C117 C 0.95762 0.15146 0.35794 0.0
O118 O 0.95301 0.16701 0.35327 0.0
O119 O 0.98958 0.18262 0.38076 0.0
Zn120 Zn 0.99234 0.16647 0.36083 0.0
O121 O 0.01555 0.15443 0.36161 0.0
C122 C 0.98203 0.19379 0.33791 0.0
O123 O 0.97319 0.19897 0.3514 0.0
O124 O 0.97349 0.14845 0.36164 0.0
C125 C 0.02898 0.16054 0.35422 0.0
O126 O 0.02793 0.17557 0.34665 0.0
C127 C 0.98522 0.17755 0.39565 0.0
O128 O 0.98316 0.16104 0.39845 0.0
O129 O 0.99087 0.18001 0.33883 0.0
C130 C 0.78516 0.96994 0.35609 0.0
O131 O 0.78534 0.96232 0.34104 0.0
O132 O 0.82864 0.96711 0.33757 0.0
Zn133 Zn 0.81234 0.98724 0.33946 0.0
O134 O 0.79842 0.98974 0.31767 0.0
C135 C 0.83945 0.00855 0.35385 0.0
O136 O 0.84389 0.99417 0.36149 0.0
O137 O 0.79585 0.98211 0.35884 0.0
C138 C 0.7938 0.00438 0.31211 0.0
O139 O 0.79867 0.01821 0.32049 0.0
C140 C 0.84257 0.96741 0.32871 0.0
O141 O 0.84646 0.98127 0.31991 0.0
O142 O 0.82616 0.00872 0.34407 0.0
C143 C 0.03834 0.85437 0.35671 0.0
O144 O 0.03097 0.85196 0.37175 0.0
O145 O 0.01661 0.81479 0.36692 0.0
Zn146 Zn 0.01212 0.83026 0.34674 0.0
O147 O 0.99035 0.8444 0.34961 0.0
C148 C 0.02238 0.80542 0.32188 0.0
O149 O 0.03666 0.80562 0.33125 0.0
O150 O 0.03251 0.84626 0.34378 0.0
C151 C 0.97549 0.83897 0.34477 0.0
O152 O 0.97415 0.82336 0.33855 0.0
C153 C 0.01057 0.81647 0.38202 0.0
O154 O 5e-05 0.82932 0.38552 0.0
O155 O 0.00986 0.81536 0.32585 0.0
C156 C 0.21011 0.98324 0.63071 0.0
O157 O 0.21876 0.99042 0.64337 0.0
O158 O 0.16284 0.9665 0.65653 0.0
Zn159 Zn 0.18048 0.98537 0.65408 0.0
O160 O 0.19682 0.98496 0.67433 0.0
C161 C 0.15672 0.00964 0.64022 0.0
O162 O 0.15494 0.99722 0.62895 0.0
O163 O 0.19382 0.98054 0.63236 0.0
C164 C 0.20268 -0.00146 0.68128 0.0
O165 O 0.19773 0.01354 0.67532 0.0
C166 C 0.16773 0.95092 0.65645 0.0
O167 O 0.1845 0.94742 0.65548 0.0
O168 O 0.16755 0.00776 0.65243 0.0
C169 C 0.02614 0.14106 0.63351 0.0
O170 O 0.01478 0.13992 0.62092 0.0
O171 O 0.00639 0.183 0.62228 0.0
Zn172 Zn 0.003 0.16796 0.64301 0.0
O173 O 0.9815 0.15321 0.64141 0.0
C174 C 0.99453 0.19783 0.66272 0.0
O175 O 0.98805 0.20268 0.64788 0.0
O176 O 0.02389 0.15241 0.64501 0.0
C177 C 0.96609 0.15883 0.63909 0.0
O178 O 0.96358 0.17537 0.63705 0.0
C179 C 0.0012 0.18024 0.60703 0.0
O180 O 0.99219 0.16631 0.60359 0.0
O181 O 0.00159 0.18311 0.66393 0.0
C182 C 0.78572 0.01005 0.62574 0.0
O183 O 0.77867 0.01204 0.64098 0.0
O184 O 0.83294 0.01841 0.64804 0.0
Zn185 Zn 0.81533 -0.00069 0.64594 0.0
O186 O 0.7997 -0.00159 0.66679 0.0
C187 C 0.84029 0.97394 0.65453 0.0
O188 O 0.8434 0.98524 0.66666 0.0
O189 O 0.80113 0.00407 0.62463 0.0
C190 C 0.80304 0.00622 0.68073 0.0
O191 O 0.81755 0.01512 0.68207 0.0
C192 C 0.82836 0.03402 0.64656 0.0
O193 O 0.81178 0.03769 0.6442 0.0
O194 O 0.82828 0.977 0.64368 0.0
C195 C 0.95896 0.83219 0.63903 0.0
O196 O 0.95586 0.81851 0.62967 0.0
O197 O 0.99035 0.80327 0.62171 0.0
Zn198 Zn 0.99406 0.81786 0.64268 0.0
O199 O 0.01586 0.832 0.64072 0.0
C200 C 0.98741 0.7887 0.66425 0.0
O201 O 0.97701 0.7845 0.6515 0.0
O202 O 0.97394 0.83419 0.64578 0.0
C203 C 0.03104 0.8259 0.64319 0.0
O204 O 0.03283 0.80944 0.64639 0.0
C205 C 0.98973 0.80917 0.60652 0.0
O206 O 0.99231 0.82564 0.60397 0.0
O207 O 0.99599 0.80263 0.66341 0.0
C208 C 0.3972 0.19709 0.00593 0.0
O209 O 0.40021 0.18095 0.0098 0.0
O210 O 0.36547 0.16516 0.01249 0.0
Zn211 Zn 0.36396 0.18364 0.99455 0.0
O212 O 0.34079 0.19564 0.99641 0.0
C213 C 0.37691 0.16016 0.9695 0.0
O214 O 0.38656 0.15547 0.98263 0.0
O215 O 0.38285 0.20111 -0.00123 0.0
C216 C 0.327 0.19017 0.98917 0.0
O217 O 0.32765 0.17596 0.98011 0.0
C218 C 0.36257 0.16797 0.02829 0.0
O219 O 0.35799 0.18345 0.03323 0.0
O220 O 0.36636 0.17263 0.97129 0.0
C221 C 0.38621 0.79508 0.98298 0.0
O222 O 0.37207 0.79696 0.9736 0.0
O223 O 0.36835 0.83756 0.97982 0.0
Zn224 Zn 0.36837 0.82122 -0.00022 0.0
O225 O 0.34586 0.80779 4e-05 0.0
C226 C 0.35775 0.84006 0.0296 0.0
O227 O 0.34222 0.8358 0.02383 0.0
O228 O 0.38816 0.80457 0.9961 0.0
C229 C 0.34486 0.7943 0.00915 0.0
O230 O 0.35837 0.7898 0.01854 0.0
C231 C 0.35495 0.8463 0.97576 0.0
O232 O 0.34059 0.84463 0.98483 0.0
O233 O 0.37123 0.83485 0.0216 0.0
C234 C 0.2062 0.37055 0.98739 0.0
O235 O 0.21473 0.35792 0.99477 0.0
O236 O 0.15947 0.34404 0.97078 0.0
Zn237 Zn 0.17654 0.34742 0.99003 0.0
O238 O 0.19302 0.32732 0.99066 0.0
C239 C 0.16651 0.3421 0.02594 0.0
O240 O 0.18046 0.33233 0.02677 0.0
O241 O 0.18988 0.36903 0.98479 0.0
C242 C 0.1877 0.31191 0.99175 0.0
O243 O 0.17084 0.30889 0.99286 0.0
C244 C 0.16471 0.34439 0.95531 0.0
O245 O 0.18146 0.3464 0.95218 0.0
O246 O 0.16288 0.34975 0.01198 0.0
C247 C 0.6078 0.205 0.97916 0.0
O248 O 0.62293 0.20472 0.97119 0.0
O249 O 0.6271 0.16208 0.9787 0.0
Zn250 Zn 0.6258 0.17969 0.99757 0.0
O251 O 0.64789 0.19373 -0.00133 0.0
C252 C 0.62805 0.17144 0.03414 0.0
O253 O 0.6371 0.18572 0.03531 0.0
O254 O 0.60558 0.19521 0.99202 0.0
C255 C 0.66272 0.18747 0.00248 0.0
O256 O 0.66399 0.17103 0.00601 0.0
C257 C 0.63815 0.16198 0.96653 0.0
O258 O 0.65014 0.17401 0.9658 0.0
O259 O 0.62184 0.16697 0.01969 0.0
C260 C 0.78943 0.63273 0.97849 0.0
O261 O 0.78284 0.64819 0.97671 0.0
O262 O 0.83548 0.65612 0.97261 0.0
Zn263 Zn 0.81824 0.65219 0.99172 0.0
O264 O 0.80208 0.67244 0.99446 0.0
C265 C 0.84436 0.65875 0.01648 0.0
O266 O 0.8478 0.67087 0.00525 0.0
O267 O 0.8044 0.63105 0.98538 0.0
C268 C 0.80586 0.68768 0.98999 0.0
O269 O 0.8213 0.6909 0.98339 0.0
C270 C 0.83074 0.6581 0.95711 0.0
O271 O 0.81399 0.65836 0.95341 0.0
O272 O 0.83168 0.64861 0.01363 0.0
C273 C 0.60937 0.78985 0.00123 0.0
O274 O 0.62404 0.78228 0.99683 0.0
O275 O 0.63065 0.83727 0.01961 0.0
Zn276 Zn 0.63049 0.82079 -0.00029 0.0
O277 O 0.65207 0.80586 8e-05 0.0
C278 C 0.63666 0.84944 0.97784 0.0
O279 O 0.64375 0.85514 0.99209 0.0
O280 O 0.60897 0.80612 0.00244 0.0
C281 C 0.66728 0.81154 0.99683 0.0
O282 O 0.66933 0.82787 0.99323 0.0
C283 C 0.6397 0.83563 0.03318 0.0
O284 O 0.64986 0.82215 0.03498 0.0
O285 O 0.62976 0.83459 0.97771 0.0
C286 C 0.18901 0.60969 0.02143 0.0
O287 O 0.17261 0.61191 0.02585 0.0
O288 O 0.16762 0.64897 0.02579 0.0
Zn289 Zn 0.1847 0.6436 0.00695 0.0
O290 O 0.20301 0.66206 0.00614 0.0
C291 C 0.15701 0.63416 0.98463 0.0
O292 O 0.15149 0.62727 -0.00098 0.0
O293 O 0.19668 0.62127 0.01274 0.0
C294 C 0.20043 0.67694 -2e-05 0.0
O295 O 0.18509 0.6807 0.99341 0.0
C296 C 0.17261 0.65059 0.04126 0.0
O297 O 0.18936 0.64952 0.04482 0.0
O298 O 0.1716 0.64197 0.98454 0.0
C299 C 0.78818 0.36714 0.00885 0.0
O300 O 0.78006 0.35538 -0.00022 0.0
O301 O 0.83411 0.33921 0.02677 0.0
Zn302 Zn 0.81717 0.34312 0.00744 0.0
O303 O 0.80014 0.32351 0.00583 0.0
C304 C 0.84426 0.33631 0.98342 0.0
O305 O 0.84873 0.32558 0.99566 0.0
O306 O 0.80409 0.36483 0.01291 0.0
C307 C 0.80405 0.30814 0.00972 0.0
O308 O 0.81998 0.3046 0.01492 0.0
C309 C 0.82919 0.33973 0.04233 0.0
O310 O 0.8126 0.34234 0.0458 0.0
O311 O 0.83065 0.34547 0.98535 0.0
C312 C 0.52046 0.86685 0.64547 0.0
O313 O 0.5111 0.88091 0.6469 0.0
O314 O 0.50097 0.87917 0.68422 0.0
Zn315 Zn 0.4969 0.85707 0.67153 0.0
O316 O 0.4746 0.85738 0.65797 0.0
C317 C 0.50856 0.83577 0.6993 0.0
O318 O 0.52143 0.84693 0.69954 0.0
O319 O 0.51682 0.8541 0.655 0.0
C320 C 0.46005 0.85256 0.66417 0.0
O321 O 0.45921 0.84803 0.68039 0.0
C322 C 0.49445 0.88272 0.69879 0.0
O323 O 0.48343 0.87193 0.70589 0.0
O324 O 0.4965 0.83743 0.68823 0.0
C325 C 0.08888 0.50681 0.68712 0.0
O326 O 0.08691 0.51239 0.67132 0.0
O327 O 0.12251 0.51751 0.65844 0.0
Zn328 Zn 0.12356 0.49784 0.67515 0.0
O329 O 0.14543 0.49899 0.68952 0.0
C330 C 0.13468 0.47451 0.64982 0.0
O331 O 0.14582 0.48714 0.64758 0.0
O332 O 0.1031 0.4995 0.69131 0.0
C333 C 0.15959 0.50632 0.68517 0.0
O334 O 0.1607 0.51376 0.67008 0.0
C335 C 0.12361 0.53316 0.66289 0.0
O336 O 0.12598 0.537 0.67914 0.0
O337 O 0.12325 0.47584 0.66158 0.0
C338 C 0.45695 0.14707 0.66495 0.0
O339 O 0.45406 0.14152 0.68062 0.0
O340 O 0.4916 0.12644 0.68894 0.0
Zn341 Zn 0.49328 0.14872 0.67596 0.0
O342 O 0.51454 0.14973 0.66095 0.0
C343 C 0.50193 0.1666 0.70689 0.0
O344 O 0.50982 0.152 0.71025 0.0
O345 O 0.4724 0.15106 0.66052 0.0
C346 C 0.52893 0.14207 0.66361 0.0
O347 O 0.53072 0.13241 0.67732 0.0
C348 C 0.48646 0.1126 0.68194 0.0
O349 O 0.48299 0.1125 0.66543 0.0
O350 O 0.49386 0.1683 0.69274 0.0
C351 C 0.88912 0.48719 0.70688 0.0
O352 O 0.87359 0.48034 0.709 0.0
O353 O 0.87041 0.47904 0.66259 0.0
Zn354 Zn 0.87117 0.49982 0.678 0.0
O355 O 0.84919 0.50168 0.69216 0.0
C356 C 0.86614 0.5207 0.64859 0.0
O357 O 0.85748 0.5069 0.64397 0.0
O358 O 0.89169 0.49693 0.69404 0.0
C359 C 0.83376 0.50024 0.68631 0.0
O360 O 0.83142 0.49753 0.66983 0.0
C361 C 0.86213 0.46524 0.66564 0.0
O362 O 0.85321 0.46376 0.67996 0.0
O363 O 0.87361 0.52095 0.66317 0.0
C364 C 0.53258 0.13864 0.34225 0.0
O365 O 0.53498 0.12676 0.33052 0.0
O366 O 0.50231 0.11798 0.3159 0.0
Zn367 Zn 0.4978 0.14074 0.32735 0.0
O368 O 0.47615 0.13986 0.34186 0.0
C369 C 0.50847 0.16325 0.30023 0.0
O370 O 0.5233 0.15503 0.3024 0.0
O371 O 0.51796 0.14635 0.34304 0.0
C372 C 0.46085 0.14235 0.33602 0.0
O373 O 0.45872 0.14507 0.31951 0.0
C374 C 0.49766 0.11475 0.30058 0.0
O375 O 0.48864 0.12627 0.29202 0.0
O376 O 0.49548 0.15934 0.30959 0.0
C377 C 0.88526 0.51566 0.29253 0.0
O378 O 0.87037 0.52399 0.29349 0.0
O379 O 0.86681 0.51739 0.33636 0.0
Zn380 Zn 0.86816 0.49819 0.31905 0.0
O381 O 0.8458 0.49692 0.30553 0.0
C382 C 0.88111 0.47553 0.34512 0.0
O383 O 0.88943 0.48949 0.34987 0.0
O384 O 0.88788 0.50314 0.30266 0.0
C385 C 0.83252 0.48853 0.31054 0.0
O386 O 0.83317 0.48026 0.32522 0.0
C387 C 0.85581 0.52958 0.33553 0.0
O388 O 0.84453 0.52996 0.32284 0.0
O389 O 0.87166 0.47596 0.33172 0.0
C390 C 0.46572 0.85944 0.34712 0.0
O391 O 0.4764 0.87265 0.34722 0.0
O392 O 0.48333 0.87449 0.30798 0.0
Zn393 Zn 0.48772 0.85169 0.31939 0.0
O394 O 0.5099 0.85178 0.33333 0.0
C395 C 0.49447 0.83552 0.28676 0.0
O396 O 0.5001 0.85096 0.2829 0.0
O397 O 0.46784 0.84785 0.33583 0.0
C398 C 0.52475 0.84713 0.32769 0.0
O399 O 0.52634 0.84256 0.31154 0.0
C400 C 0.49468 0.88519 0.30273 0.0
O401 O 0.51137 0.88171 0.30452 0.0
O402 O 0.48841 0.83272 0.30169 0.0
C403 C 0.10486 0.4784 0.29059 0.0
O404 O 0.11957 0.46975 0.2916 0.0
O405 O 0.12038 0.47482 0.33526 0.0
Zn406 Zn 0.12163 0.49416 0.31823 0.0
O407 O 0.14459 0.49317 0.30559 0.0
C408 C 0.11017 0.51774 0.34428 0.0
O409 O 0.10135 0.50423 0.34944 0.0
O410 O 0.10224 0.49061 0.30111 0.0
C411 C 0.15725 0.50343 0.30806 0.0
O412 O 0.15583 0.51547 0.31978 0.0
C413 C 0.13253 0.47177 0.34593 0.0
O414 O 0.14662 0.4814 0.34578 0.0
O415 O 0.11938 0.51667 0.33075 0.0
C416 C 0.70415 0.52529 0.85979 0.0
O417 O 0.70243 0.53413 0.84553 0.0
O418 O 0.66066 0.52584 0.84265 0.0
Zn419 Zn 0.6786 0.50699 0.8422 0.0
O420 O 0.69197 0.50705 0.81998 0.0
C421 C 0.65501 0.4809 0.83339 0.0
O422 O 0.65304 0.49156 0.82046 0.0
O423 O 0.69516 0.51171 0.86166 0.0
C424 C 0.70363 0.4957 0.81762 0.0
O425 O 0.70631 0.48413 0.8296 0.0
C426 C 0.65802 0.53658 0.83067 0.0
O427 O 0.66727 0.53556 0.81651 0.0
O428 O 0.66606 0.48454 0.84502 0.0
C429 C 0.46866 0.64729 0.85522 0.0
O430 O 0.48328 0.6425 0.86263 0.0
O431 O 0.48802 0.69116 0.87109 0.0
Zn432 Zn 0.48913 0.67731 0.8493 0.0
O433 O 0.51063 0.66255 0.84748 0.0
C434 C 0.50143 0.7047 0.82879 0.0
O435 O 0.51341 0.70459 0.84087 0.0
O436 O 0.46788 0.66202 0.84823 0.0
C437 C 0.5248 0.66416 0.85581 0.0
O438 O 0.52638 0.67658 0.86711 0.0
C439 C 0.48897 0.68516 0.88623 0.0
O440 O 0.49188 0.6687 0.88845 0.0
O441 O 0.48911 0.6938 0.82947 0.0
C442 C 0.30397 0.48027 0.87836 0.0
O443 O 0.32062 0.4765 0.87675 0.0
O444 O 0.3265 0.47655 0.83961 0.0
Zn445 Zn 0.30944 0.49539 0.84502 0.0
O446 O 0.29214 0.49755 0.82575 0.0
C447 C 0.33746 0.51708 0.85559 0.0
O448 O 0.34315 0.50239 0.86169 0.0
O449 O 0.29647 0.48886 0.8666 0.0
C450 C 0.29653 0.50286 0.81095 0.0
O451 O 0.31286 0.50722 0.80812 0.0
C452 C 0.32153 0.46112 0.83763 0.0
O453 O 0.30476 0.45756 0.8383 0.0
O454 O 0.32276 0.51752 0.84801 0.0
C455 C 0.53082 0.34495 0.85592 0.0
O456 O 0.53284 0.33312 0.86776 0.0
O457 O 0.50021 0.3184 0.87544 0.0
Zn458 Zn 0.49627 0.3299 0.85268 0.0
O459 O 0.47421 0.34385 0.8526 0.0
C460 C 0.50835 0.30255 0.83123 0.0
O461 O 0.52271 0.305 0.84014 0.0
O462 O 0.51644 0.34582 0.84778 0.0
C463 C 0.45934 0.33755 0.84897 0.0
O464 O 0.45802 0.32105 0.84576 0.0
C465 C 0.49308 0.30423 0.87944 0.0
O466 O 0.48174 0.29729 0.86887 0.0
O467 O 0.49509 0.31188 0.83427 0.0
C468 C 0.68699 0.47338 0.11825 0.0
O469 O 0.66992 0.47166 0.11821 0.0
O470 O 0.66287 0.4656 0.15612 0.0
Zn471 Zn 0.68093 0.48412 0.15314 0.0
O472 O 0.6977 0.4838 0.17299 0.0
C473 C 0.65524 0.50978 0.16022 0.0
O474 O 0.6489 0.4973 0.16968 0.0
O475 O 0.69449 0.47912 0.13163 0.0
C476 C 0.6928 0.48271 0.18853 0.0
O477 O 0.67605 0.48176 0.19204 0.0
C478 C 0.6671 0.44986 0.15525 0.0
O479 O 0.68357 0.44576 0.15283 0.0
O480 O 0.66914 0.5072 0.15168 0.0
C481 C 0.54562 0.65718 0.14422 0.0
O482 O 0.54914 0.67101 0.13522 0.0
O483 O 0.51518 0.68125 0.12041 0.0
Zn484 Zn 0.5102 0.67035 0.14328 0.0
O485 O 0.48841 0.65599 0.14219 0.0
C486 C 0.51642 0.70238 0.16096 0.0
O487 O 0.5275 0.70483 0.14831 0.0
O488 O 0.53005 0.65456 0.14926 0.0
C489 C 0.47381 0.66083 0.14828 0.0
O490 O 0.47244 0.67623 0.15502 0.0
C491 C 0.50596 0.69322 0.11405 0.0
O492 O 0.49203 0.69851 0.12237 0.0
O493 O 0.50772 0.6885 0.16152 0.0
C494 C 0.28736 0.50529 0.13319 0.0
O495 O 0.27898 0.49896 0.14647 0.0
O496 O 0.33266 0.52691 0.15794 0.0
Zn497 Zn 0.31702 0.50627 0.15658 0.0
O498 O 0.30036 0.50674 0.17661 0.0
C499 C 0.32645 0.4704 0.15127 0.0
O500 O 0.31027 0.46884 0.14587 0.0
O501 O 0.30356 0.50863 0.13453 0.0
C502 C 0.29952 0.49532 0.18822 0.0
O503 O 0.31018 0.48212 0.18762 0.0
C504 C 0.34705 0.52698 0.16607 0.0
O505 O 0.35196 0.51311 0.17436 0.0
O506 O 0.33185 0.48495 0.15639 0.0
C507 C 0.45236 0.33382 0.1499 0.0
O508 O 0.44908 0.31819 0.14444 0.0
O509 O 0.48495 0.30924 0.12768 0.0
Zn510 Zn 0.48827 0.32194 0.14991 0.0
O511 O 0.51021 0.33608 0.14941 0.0
C512 C 0.49495 0.28978 0.16665 0.0
O513 O 0.49971 0.28545 0.15104 0.0
O514 O 0.46802 0.33804 0.15333 0.0
C515 C 0.52538 0.32977 0.14742 0.0
O516 O 0.52712 0.31315 0.14523 0.0
C517 C 0.48036 0.31663 0.11387 0.0
O518 O 0.47829 0.33337 0.11377 0.0
O519 O 0.48948 0.30494 0.16941 0.0
C520 C 0.89947 0.69101 0.50277 0.0
O521 O 0.90298 0.67477 0.50574 0.0
O522 O 0.86747 0.66161 0.51676 0.0
Zn523 Zn 0.86504 0.67754 0.49654 0.0
O524 O 0.84198 0.6899 0.49759 0.0
C525 C 0.85298 0.65471 0.47095 0.0
O526 O 0.83918 0.65543 0.48095 0.0
O527 O 0.88419 0.69515 0.4979 0.0
C528 C 0.83765 0.69982 0.48537 0.0
O529 O 0.84836 0.70168 0.47232 0.0
C530 C 0.85447 0.65586 0.5251 0.0
O531 O 0.83861 0.66046 0.52055 0.0
O532 O 0.86635 0.66357 0.47484 0.0
C533 C 0.90262 0.30956 0.48899 0.0
O534 O 0.90431 0.32507 0.48261 0.0
O535 O 0.87044 0.34062 0.482 0.0
Zn536 Zn 0.86919 0.32267 0.50051 0.0
O537 O 0.84673 0.30937 0.49848 0.0
C538 C 0.85678 0.34295 0.52811 0.0
O539 O 0.84282 0.34275 0.5183 0.0
O540 O 0.88903 0.30591 0.49764 0.0
C541 C 0.84139 0.30044 0.51107 0.0
O542 O 0.85047 0.3004 0.52537 0.0
C543 C 0.8643 0.33841 0.46701 0.0
O544 O 0.85649 0.32387 0.46326 0.0
O545 O 0.87028 0.33474 0.52332 0.0
C546 C 0.67787 0.87695 0.47102 0.0
O547 O 0.66173 0.87451 0.4658 0.0
O548 O 0.65503 0.83838 0.46955 0.0
Zn549 Zn 0.67248 0.84424 0.48792 0.0
O550 O 0.6907 0.82577 0.48957 0.0
C551 C 0.65099 0.86025 0.51358 0.0
O552 O 0.65117 0.87288 0.50243 0.0
O553 O 0.68482 0.86609 0.48111 0.0
C554 C 0.68733 0.80981 0.48971 0.0
O555 O 0.67099 0.8047 0.48907 0.0
C556 C 0.65981 0.83526 0.45425 0.0
O557 O 0.67657 0.83507 0.45059 0.0
O558 O 0.65966 0.84672 0.51036 0.0
C559 C 0.10953 0.704 0.48296 0.0
O560 O 0.12564 0.70518 0.47726 0.0
O561 O 0.12159 0.65495 0.47835 0.0
Zn562 Zn 0.12348 0.67295 0.4968 0.0
O563 O 0.1475 0.6835 0.49636 0.0
C564 C 0.11017 0.64861 0.52133 0.0
O565 O 0.10205 0.64265 0.50772 0.0
O566 O 0.10531 0.69119 0.49216 0.0
C567 C 0.15225 0.69318 0.50862 0.0
O568 O 0.1415 0.6957 0.52152 0.0
C569 C 0.12801 0.65701 0.46345 0.0
O570 O 0.13649 0.67124 0.45993 0.0
O571 O 0.11973 0.66185 0.51986 0.0
C572 C 0.30884 0.11317 0.48624 0.0
O573 O 0.32586 0.11407 0.48423 0.0
O574 O 0.3312 0.15171 0.47898 0.0
Zn575 Zn 0.31349 0.14797 0.49768 0.0
O576 O 0.29614 0.16728 0.49734 0.0
C577 C 0.34075 0.14046 0.5217 0.0
O578 O 0.34811 0.13419 0.50781 0.0
O579 O 0.30076 0.12597 0.49251 0.0
C580 C 0.30094 0.18288 0.49705 0.0
O581 O 0.3177 0.18651 0.49729 0.0
C582 C 0.32624 0.15248 0.46344 0.0
O583 O 0.30947 0.15146 0.45995 0.0
O584 O 0.32557 0.14696 0.52062 0.0
C585 C 0.10829 0.28858 0.51285 0.0
O586 O 0.12308 0.28818 0.52141 0.0
O587 O 0.1266 0.33218 0.51905 0.0
Zn588 Zn 0.12645 0.31632 0.49872 0.0
O589 O 0.14877 0.30263 0.49859 0.0
C590 C 0.11385 0.3428 0.47634 0.0
O591 O 0.10325 0.34559 0.48932 0.0
O592 O 0.10619 0.30004 0.50144 0.0
C593 C 0.1619 0.30596 0.48918 0.0
O594 O 0.16131 0.31915 0.4787 0.0
C595 C 0.13765 0.3443 0.52003 0.0
O596 O 0.14912 0.34623 0.50764 0.0
O597 O 0.12462 0.33043 0.47719 0.0
C598 C 0.70625 0.13077 0.52019 0.0
O599 O 0.70596 0.14477 0.52959 0.0
O600 O 0.66361 0.14976 0.52344 0.0
Zn601 Zn 0.68083 0.15047 0.50395 0.0
O602 O 0.69562 0.17181 0.50529 0.0
C603 C 0.65601 0.16068 0.47896 0.0
O604 O 0.65355 0.17276 0.49047 0.0
O605 O 0.69639 0.12993 0.5071 0.0
C606 C 0.70179 0.17923 0.4921 0.0
O607 O 0.69799 0.17319 0.4768 0.0
C608 C 0.6598 0.16237 0.53308 0.0
O609 O 0.66713 0.17736 0.5303 0.0
O610 O 0.6676 0.14933 0.48169 0.0
C611 C 0.30743 0.87462 0.52105 0.0
O612 O 0.32356 0.87209 0.52623 0.0
O613 O 0.32985 0.83605 0.52378 0.0
Zn614 Zn 0.31258 0.84146 0.50512 0.0
O615 O 0.29462 0.82272 0.50365 0.0
C616 C 0.33743 0.85483 0.4812 0.0
O617 O 0.34023 0.86547 0.49398 0.0
O618 O 0.30023 0.86354 0.51137 0.0
C619 C 0.29871 0.80694 0.50283 0.0
O620 O 0.3153 0.80258 0.50272 0.0
C621 C 0.32491 0.83335 0.53911 0.0
O622 O 0.30812 0.83322 0.5426 0.0
O623 O 0.32565 0.84345 0.48275 0.0
H624 H 0.10806 0.45462 0.26527 0.0
H625 H 0.08552 0.44419 0.2459 0.0
H626 H 0.04854 0.47976 0.2678 0.0
H627 H 0.07116 0.49024 0.28755 0.0
H628 H 0.03592 0.44682 0.26627 0.0
H629 H 0.06334 0.46465 0.2033 0.0
H630 H 0.07937 0.4538 0.21608 0.0
H631 H 0.07085 0.47419 0.22311 0.0
C632 C 0.09522 0.46042 0.26587 0.0
C633 C 0.0914 0.47325 0.27798 0.0
C634 C 0.08237 0.45454 0.25465 0.0
C635 C 0.06544 0.46141 0.25518 0.0
C636 C 0.06159 0.47442 0.26707 0.0
H637 H -0.00097 0.41017 0.17852 0.0
H638 H 0.01019 0.43416 0.19573 0.0
C639 C 0.07451 0.48038 0.27833 0.0
C640 C 0.0516 0.4537 0.24435 0.0
H641 H 0.04427 0.4396 0.20355 0.0
C642 C 0.03748 0.4456 0.25249 0.0
C643 C 0.05338 0.4524 0.22633 0.0
C644 C 0.06747 0.4619 0.21669 0.0
C645 C 0.02602 0.43497 0.24328 0.0
C646 C 0.02901 0.43217 0.22558 0.0
C647 C 0.04215 0.44151 0.21718 0.0
C648 C 0.02029 0.41808 0.21609 0.0
C649 C 0.01122 0.42638 0.25272 0.0
C650 C 0.02225 0.40113 0.22183 0.0
C651 C 0.01595 0.38747 0.21208 0.0
C652 C 0.00768 0.39045 0.19625 0.0
C653 C 0.00531 0.40746 0.19067 0.0
C654 C 0.01167 0.42117 0.20048 0.0
H655 H 0.00676 0.43435 0.26371 0.0
H656 H -7e-05 0.42391 0.24412 0.0
H657 H 0.01583 0.41393 0.25796 0.0
H658 H 0.02926 0.39839 0.2336 0.0
H659 H 0.01801 0.37454 0.21676 0.0
H660 H 0.59722 -0.0019 0.23649 0.0
H661 H 0.57574 0.01213 0.25502 0.0
H662 H 0.55174 0.03545 0.21071 0.0
H663 H 0.57301 0.0214 0.19208 0.0
H664 H 0.57361 0.04759 0.25669 0.0
H665 H 0.50934 0.02012 0.23887 0.0
H666 H 0.52978 0.00966 0.2338 0.0
H667 H 0.522 0.02711 0.22077 0.0
C668 C 0.58713 0.0059 0.23063 0.0
C669 C 0.58691 0.00872 0.21281 0.0
C670 C 0.57486 0.01389 0.24125 0.0
C671 C 0.56205 0.0247 0.23423 0.0
C672 C 0.56128 0.02689 0.21638 0.0
H673 H 0.49539 0.10664 0.26649 0.0
H674 H 0.50987 0.08293 0.25163 0.0
C675 C 0.57356 0.01894 0.20575 0.0
C676 C 0.55103 0.03543 0.24559 0.0
H677 H 0.50884 0.04679 0.25425 0.0
C678 C 0.55944 0.04723 0.25638 0.0
C679 C 0.53256 0.03502 0.24502 0.0
C680 C 0.52286 0.02218 0.23411 0.0
C681 C 0.54993 0.05912 0.26613 0.0
C682 C 0.53145 0.05893 0.26535 0.0
C683 C 0.52299 0.04687 0.25485 0.0
C684 C 0.52085 0.07182 0.27467 0.0
C685 C 0.55979 0.07228 0.27655 0.0
C686 C 0.52172 0.07306 0.29262 0.0
C687 C 0.51359 0.08667 0.30114 0.0
C688 C 0.50428 0.09917 0.29187 0.0
C689 C 0.50252 0.09728 0.274 0.0
C690 C 0.51076 0.08372 0.26548 0.0
H691 H 0.57372 0.07318 0.27262 0.0
H692 H 0.55374 0.08517 0.27526 0.0
H693 H 0.55942 0.06858 0.29029 0.0
H694 H 0.52914 0.06379 0.29998 0.0
H695 H 0.51503 0.08765 0.31493 0.0
H696 H 0.98246 0.61274 0.21548 0.0
H697 H 0.96899 0.59065 0.2331 0.0
H698 H 0.976 0.55372 0.19243 0.0
H699 H 0.98922 0.57599 0.17442 0.0
H700 H 0.94324 0.55369 0.20377 0.0
H701 H 0.98686 0.55039 0.25994 0.0
H702 H 0.98074 0.57221 0.25588 0.0
H703 H 0.99334 0.56061 0.24014 0.0
C704 C 0.98143 0.59986 0.21033 0.0
C705 C 0.98686 0.59615 0.19349 0.0
C706 C 0.97386 0.58717 0.22053 0.0
C707 C 0.97176 0.57043 0.21423 0.0
C708 C 0.97764 0.56652 0.19761 0.0
H709 H 0.91769 0.50156 0.28683 0.0
H710 H 0.93992 0.51141 0.26637 0.0
C711 C 0.98518 0.57926 0.18733 0.0
C712 C 0.96162 0.55775 0.22435 0.0
H713 H 0.95645 0.54246 0.26508 0.0
C714 C 0.94636 0.55091 0.21707 0.0
C715 C 0.9658 0.55378 0.2416 0.0
C716 C 0.9827 0.55949 0.24975 0.0
C717 C 0.93451 0.54138 0.22694 0.0
C718 C 0.93782 0.53897 0.24463 0.0
C719 C 0.95374 0.54459 0.25158 0.0
C720 C 0.92424 0.53228 0.25642 0.0
C721 C 0.91831 0.53439 0.2184 0.0
C722 C 0.90819 0.54087 0.25775 0.0
C723 C 0.89553 0.5353 0.26934 0.0
C724 C 0.89871 0.5211 0.28002 0.0
C725 C 0.91483 0.51251 0.27874 0.0
C726 C 0.92753 0.51811 0.26707 0.0
H727 H 0.92063 0.53187 0.20455 0.0
H728 H 0.91386 0.52232 0.22459 0.0
H729 H 0.90767 0.54402 0.21936 0.0
H730 H 0.90555 0.55213 0.25001 0.0
H731 H 0.88332 0.5423 0.27005 0.0
H732 H 0.46187 0.89864 0.30197 0.0
H733 H 0.45148 0.92303 0.2852 0.0
H734 H 0.50357 0.93158 0.26601 0.0
H735 H 0.51423 0.90709 0.28291 0.0
H736 H 0.46604 0.96013 0.28414 0.0
H737 H 0.46901 0.92252 0.22326 0.0
H738 H 0.46783 0.91192 0.24383 0.0
H739 H 0.48752 0.92267 0.23756 0.0
C740 C 0.47119 0.90576 0.29431 0.0
C741 C 0.48886 0.90085 0.29366 0.0
C742 C 0.46523 0.91974 0.28481 0.0
C743 C 0.47676 0.92899 0.27436 0.0
C744 C 0.49451 0.92452 0.274 0.0
H745 H 0.42951 0.99374 0.19476 0.0
H746 H 0.4529 0.98093 0.21203 0.0
C747 C 0.50055 0.91056 0.28367 0.0
C748 C 0.46967 0.94257 0.26312 0.0
H749 H 0.45376 0.94856 0.2227 0.0
C750 C 0.46365 0.95782 0.27061 0.0
C751 C 0.46676 0.93954 0.24548 0.0
C752 C 0.47304 0.92329 0.23693 0.0
C753 C 0.45399 0.96979 0.26106 0.0
C754 C 0.44982 0.96609 0.24375 0.0
C755 C 0.45687 0.95136 0.23599 0.0
C756 C 0.43649 0.97602 0.23411 0.0
C757 C 0.448 0.98606 0.26975 0.0
C758 C 0.41955 0.9776 0.24081 0.0
C759 C 0.40624 0.98496 0.23105 0.0
C760 C 0.4095 0.99066 0.21424 0.0
C761 C 0.42658 0.98947 0.20767 0.0
C762 C 0.43995 0.98217 0.21752 0.0
H763 H 0.45742 0.99008 0.27983 0.0
H764 H 0.44642 0.99672 0.26043 0.0
H765 H 0.43526 0.98371 0.27612 0.0
H766 H 0.41639 0.97249 0.25336 0.0
H767 H 0.39323 0.98558 0.2365 0.0
H768 H 0.08777 0.49561 0.72036 0.0
H769 H 0.06929 0.50655 0.74348 0.0
H770 H 0.04301 0.53983 0.70754 0.0
H771 H 0.06108 0.52865 0.68431 0.0
H772 H 0.07032 0.53904 0.7536 0.0
H773 H 0.00224 0.52364 0.73571 0.0
H774 H 0.02077 0.51337 0.72569 0.0
H775 H 0.01356 0.53419 0.71856 0.0
C776 C 0.07777 0.50496 0.7173 0.0
C777 C 0.07597 0.51134 0.70051 0.0
C778 C 0.0672 0.51118 0.73053 0.0
C779 C 0.05464 0.5239 0.72725 0.0
C780 C 0.05229 0.52972 0.71035 0.0
H781 H 0.00609 0.60592 0.78032 0.0
H782 H 0.01556 0.58378 0.76016 0.0
C783 C 0.06275 0.5234 0.69708 0.0
C784 C 0.04575 0.53273 0.74169 0.0
H785 H 0.00606 0.54709 0.75575 0.0
C786 C 0.05624 0.54049 0.75427 0.0
C787 C 0.02738 0.53468 0.74251 0.0
C788 C 0.01534 0.52587 0.72998 0.0
C789 C 0.04897 0.55082 0.76715 0.0
C790 C 0.03069 0.55331 0.76756 0.0
C791 C 0.02009 0.54514 0.75535 0.0
C792 C 0.02265 0.56547 0.77981 0.0
C793 C 0.06098 0.55966 0.77972 0.0
C794 C 0.02301 0.56226 0.79752 0.0
C795 C 0.01763 0.5749 0.80912 0.0
C796 C 0.01183 0.59096 0.80315 0.0
C797 C 0.01061 0.59375 0.78535 0.0
C798 C 0.01594 0.58109 0.77379 0.0
H799 H 0.07494 0.55858 0.77593 0.0
H800 H 0.05758 0.57347 0.78084 0.0
H801 H 0.05943 0.55374 0.79258 0.0
H802 H 0.02801 0.55019 0.80238 0.0
H803 H 0.01864 0.57231 0.82273 0.0
H804 H 0.42332 0.01805 0.8015 0.0
H805 H 0.44395 0.03332 0.78306 0.0
H806 H 0.41616 0.01578 0.73824 0.0
H807 H 0.39555 0.00027 0.75655 0.0
H808 H 0.45418 0.01668 0.73489 0.0
H809 H 0.42544 0.0775 0.75946 0.0
H810 H 0.4336 0.06308 0.77556 0.0
H811 H 0.41516 0.05693 0.7627 0.0
C812 C 0.42176 0.01718 0.78771 0.0
C813 C 0.40762 0.00816 0.7805 0.0
C814 C 0.43355 0.02594 0.77721 0.0
C815 C 0.43136 0.02591 0.75934 0.0
C816 C 0.41801 0.016 0.75203 0.0
H817 H 0.46893 0.08346 0.67256 0.0
H818 H 0.458 0.06088 0.69149 0.0
C819 C 0.40622 0.00717 0.76252 0.0
C820 C 0.44187 0.03752 0.74842 0.0
H821 H 0.44858 0.07992 0.73982 0.0
C822 C 0.45306 0.03051 0.73598 0.0
C823 C 0.44027 0.05554 0.74985 0.0
C824 C 0.42788 0.06378 0.7625 0.0
C825 C 0.46284 0.04112 0.72499 0.0
C826 C 0.46108 0.05915 0.72634 0.0
C827 C 0.45 0.0661 0.7389 0.0
C828 C 0.4699 0.07123 0.71447 0.0
C829 C 0.47505 0.03296 0.71218 0.0
C830 C 0.48027 0.08454 0.72107 0.0
C831 C 0.48636 0.09758 0.71033 0.0
C832 C 0.48215 0.09758 0.69276 0.0
C833 C 0.47246 0.0838 0.68602 0.0
C834 C 0.4663 0.0708 0.69681 0.0
H835 H 0.47885 0.01979 0.71617 0.0
H836 H 0.46835 0.03201 0.69958 0.0
H837 H 0.48706 0.04077 0.71047 0.0
H838 H 0.48315 0.08515 0.73467 0.0
H839 H 0.49385 0.10796 0.71592 0.0
H840 H 0.88721 0.46663 0.735 0.0
H841 H 0.91102 0.45668 0.75306 0.0
H842 H 0.94755 0.4871 0.72388 0.0
H843 H 0.92363 0.49694 0.70534 0.0
H844 H 0.95886 0.45479 0.72758 0.0
H845 H 0.93861 0.47844 0.79108 0.0
H846 H 0.92077 0.46729 0.78123 0.0
H847 H 0.92918 0.48658 0.77145 0.0
C848 C 0.90025 0.47144 0.73251 0.0
C849 C 0.90352 0.48257 0.71869 0.0
C850 C 0.91385 0.46586 0.743 0.0
C851 C 0.93103 0.47142 0.74008 0.0
C852 C 0.93435 0.4828 0.72648 0.0
H853 H -0.00047 0.4204 0.81493 0.0
H854 H 0.98887 0.44427 0.79728 0.0
C855 C 0.92069 0.4884 0.71591 0.0
C856 C 0.94549 0.4638 0.75021 0.0
H857 H 0.95563 0.45179 0.79109 0.0
C858 C 0.95845 0.4545 0.74149 0.0
C859 C 0.94532 0.46376 0.76837 0.0
C860 C 0.93282 0.47474 0.77854 0.0
C861 C 0.97012 0.44385 0.7504 0.0
C862 C 0.96848 0.44216 0.76841 0.0
C863 C 0.95668 0.45277 0.77724 0.0
C864 C 0.97703 0.42802 0.77799 0.0
C865 C 0.98369 0.43405 0.74034 0.0
C866 C 0.97397 0.41098 0.773 0.0
C867 C 0.98005 0.39739 0.78297 0.0
C868 C 0.98913 0.4005 0.79834 0.0
C869 C 0.99258 0.41757 0.80316 0.0
C870 C 0.98651 0.43122 0.79309 0.0
H871 H 0.9879 0.44144 0.72886 0.0
H872 H 0.99536 0.43111 0.74827 0.0
H873 H 0.97794 0.42181 0.73574 0.0
H874 H 0.96625 0.40814 0.7617 0.0
H875 H 0.97711 0.38442 0.77888 0.0
H876 H 0.61413 0.95945 0.76794 0.0
H877 H 0.58952 0.94663 0.7528 0.0
H878 H 0.55389 0.97961 0.7802 0.0
H879 H 0.5786 0.99271 0.79545 0.0
H880 H 0.56176 0.92962 0.7707 0.0
H881 H 0.53818 0.98264 0.7287 0.0
H882 H 0.56001 0.98234 0.73755 0.0
H883 H 0.54175 0.98732 0.75107 0.0
C884 C 0.6011 0.96418 0.77063 0.0
C885 C 0.59832 0.97704 0.78297 0.0
C886 C 0.58705 0.95683 0.76195 0.0
C887 C 0.56992 0.9622 0.76537 0.0
C888 C 0.56705 0.97543 0.77725 0.0
H889 H 0.48655 0.89225 0.73179 0.0
H890 H 0.50166 0.91379 0.74924 0.0
C891 C 0.58117 0.98286 0.78597 0.0
C892 C 0.55521 0.95289 0.75732 0.0
H893 H 0.52366 0.95606 0.72651 0.0
C894 C 0.55325 0.93542 0.7612 0.0
C895 C 0.54423 0.96056 0.74493 0.0
C896 C 0.5461 0.97923 0.74016 0.0
C897 C 0.54104 0.9252 0.75254 0.0
C898 C 0.53027 0.93276 0.73986 0.0
C899 C 0.53183 0.95038 0.73636 0.0
C900 C 0.51886 0.92209 0.72883 0.0
C901 C 0.54046 0.90621 0.75638 0.0
C902 C 0.52291 0.92029 0.71138 0.0
C903 C 0.51427 0.90811 0.70137 0.0
C904 C 0.5014 0.89747 0.70864 0.0
C905 C 0.49652 0.90012 0.72584 0.0
C906 C 0.50516 0.91238 0.73585 0.0
H907 H 0.5518 0.90197 0.7642 0.0
H908 H 0.52837 0.90324 0.76366 0.0
H909 H 0.54025 0.89863 0.74431 0.0
H910 H 0.53341 0.9277 0.7057 0.0
H911 H 0.51826 0.90652 0.68812 0.0
H912 H 0.19268 0.03767 0.40383 0.0
H913 H 0.2131 0.04796 0.42559 0.0
H914 H 0.25539 0.02201 0.39979 0.0
H915 H 0.23511 0.012 0.37767 0.0
H916 H 0.23654 0.03278 0.4483 0.0
H917 H 0.27092 0.07194 0.39908 0.0
H918 H 0.25032 0.06153 0.39487 0.0
H919 H 0.27026 0.04933 0.39472 0.0
C920 C 0.20628 0.03397 0.40286 0.0
C921 C 0.21233 0.02426 0.38886 0.0
C922 C 0.21793 0.03983 0.41535 0.0
C923 C 0.2358 0.03604 0.41409 0.0
C924 C 0.2417 0.0254 0.40077 0.0
H925 H 0.3217 0.08574 0.46837 0.0
H926 H 0.30495 0.06402 0.45282 0.0
C927 C 0.23008 0.01965 0.38818 0.0
C928 C 0.2483 0.04433 0.426 0.0
H929 H 0.28141 0.07363 0.42731 0.0
C930 C 0.24646 0.0416 0.44373 0.0
C931 C 0.26119 0.05589 0.41998 0.0
C932 C 0.26326 0.06001 0.40115 0.0
C933 C 0.25703 0.05031 0.45561 0.0
C934 C 0.26962 0.06213 0.44958 0.0
C935 C 0.27181 0.06445 0.43186 0.0
C936 C 0.27975 0.07331 0.46126 0.0
C937 C 0.25459 0.04689 0.47451 0.0
C938 C 0.27111 0.08556 0.47138 0.0
C939 C 0.28062 0.09803 0.48023 0.0
C940 C 0.29895 0.09854 0.47904 0.0
C941 C 0.3076 0.08574 0.46955 0.0
C942 C 0.29806 0.0733 0.46066 0.0
H943 H 0.24835 0.03423 0.47679 0.0
H944 H 0.26727 0.0473 0.48142 0.0
H945 H 0.24596 0.05693 0.48003 0.0
H946 H 0.25697 0.08601 0.47174 0.0
H947 H 0.27356 0.1077 0.48742 0.0
H948 H 0.90408 0.27671 0.50131 0.0
H949 H 0.92231 0.25319 0.49076 0.0
H950 H 0.94704 0.28771 0.45495 0.0
H951 H 0.92923 0.31133 0.4657 0.0
H952 H 0.9208 0.24129 0.4587 0.0
H953 H 0.98874 0.26133 0.47203 0.0
H954 H 0.97017 0.27147 0.48211 0.0
H955 H 0.97681 0.27765 0.46081 0.0
C956 C 0.91367 0.27937 0.49145 0.0
C957 C 0.91516 0.29588 0.4843 0.0
C958 C 0.92409 0.26592 0.48544 0.0
C959 C 0.9362 0.26871 0.4722 0.0
C960 C 0.93813 0.28531 0.46547 0.0
H961 H 0.98692 0.2125 0.39342 0.0
H962 H 0.97642 0.23347 0.4143 0.0
C963 C 0.92782 0.2988 0.47155 0.0
C964 C 0.94521 0.25399 0.46399 0.0
H965 H 0.98498 0.23989 0.44993 0.0
C966 C 0.93487 0.24081 0.45708 0.0
C967 C 0.96356 0.2534 0.46184 0.0
C968 C 0.97547 0.26664 0.46975 0.0
C969 C 0.94226 0.22752 0.44736 0.0
C970 C 0.96053 0.22729 0.44467 0.0
C971 C 0.97097 0.24014 0.45202 0.0
C972 C 0.96874 0.21454 0.43314 0.0
C973 C 0.93036 0.2143 0.43935 0.0
C974 C 0.96833 0.19697 0.43705 0.0
C975 C 0.97427 0.1849 0.4251 0.0
C976 C 0.98075 0.19025 0.40908 0.0
C977 C 0.98192 0.20793 0.40559 0.0
C978 C 0.97598 0.21995 0.41753 0.0
H979 H 0.91639 0.21811 0.44008 0.0
H980 H 0.93384 0.2122 0.42567 0.0
H981 H 0.93191 0.20191 0.4462 0.0
H982 H 0.963 0.19257 0.44915 0.0
H983 H 0.97332 0.1714 0.42824 0.0
H984 H 0.71158 0.88565 0.47887 0.0
H985 H 0.73036 0.90587 0.46355 0.0
H986 H 0.68739 0.91931 0.43034 0.0
H987 H 0.66846 0.89943 0.44576 0.0
H988 H 0.73853 0.90212 0.43027 0.0
H989 H 0.70846 0.96598 0.4397 0.0
H990 H 0.70309 0.94775 0.45301 0.0
H991 H 0.6929 0.95041 0.43235 0.0
C992 C 0.70601 0.89319 0.46855 0.0
C993 C 0.68854 0.89085 0.46347 0.0
C994 C 0.71677 0.90475 0.45982 0.0
C995 C 0.71024 0.91423 0.44591 0.0
C996 C 0.69262 0.91245 0.44128 0.0
H997 H 0.76109 0.9443 0.35383 0.0
H998 H 0.74352 0.93208 0.37691 0.0
C999 C 0.68183 0.90095 0.45004 0.0
C1000 C 0.72228 0.92425 0.43489 0.0
H1001 H 0.72771 0.96309 0.41529 0.0
C1002 C 0.73631 0.91553 0.42723 0.0
C1003 C 0.71949 0.94178 0.43102 0.0
C1004 C 0.70527 0.95207 0.4396 0.0
C1005 C 0.74713 0.92364 0.41521 0.0
C1006 C 0.74364 0.94082 0.41052 0.0
C1007 C 0.73017 0.94983 0.41876 0.0
C1008 C 0.75338 0.94923 0.39647 0.0
C1009 C 0.76206 0.91365 0.40744 0.0
C1010 C 0.76428 0.96332 0.39975 0.0
C1011 C 0.77436 0.9704 0.38654 0.0
C1012 C 0.77359 0.96351 0.36986 0.0
C1013 C 0.76212 0.94982 0.36655 0.0
C1014 C 0.7521 0.94278 0.37972 0.0
H1015 H 0.76585 0.90255 0.41558 0.0
H1016 H 0.75801 0.90863 0.39472 0.0
H1017 H 0.77369 0.92197 0.40555 0.0
H1018 H 0.76534 0.96852 0.4126 0.0
H1019 H 0.78302 0.98099 0.38948 0.0
H1020 H 0.03074 0.78791 0.37826 0.0
H1021 H 0.04185 0.76906 0.40064 0.0
H1022 H 0.01464 0.79867 0.43901 0.0
H1023 H 0.00351 0.81789 0.41657 0.0
H1024 H 0.04919 0.793 0.44715 0.0
H1025 H 0.01799 0.73186 0.42867 0.0
H1026 H 0.02864 0.74167 0.41067 0.0
H1027 H 0.01046 0.75237 0.42076 0.0
C1028 C 0.02692 0.79036 0.39142 0.0
C1029 C 0.01623 0.80443 0.39562 0.0
C1030 C 0.03317 0.77945 0.4042 0.0
C1031 C 0.02881 0.78227 0.42145 0.0
C1032 C 0.01801 0.79619 0.42574 0.0
H1033 H 0.07428 0.70402 0.48955 0.0
H1034 H 0.05239 0.72413 0.4784 0.0
C1035 C 0.01167 0.80714 0.41291 0.0
C1036 C 0.03681 0.77139 0.43492 0.0
H1037 H 0.04505 0.72951 0.44476 0.0
C1038 C 0.048 0.77913 0.4469 0.0
C1039 C 0.03498 0.75332 0.43485 0.0
C1040 C 0.02221 0.74434 0.42316 0.0
C1041 C 0.05845 0.76921 0.45788 0.0
C1042 C 0.0579 0.7511 0.45657 0.0
C1043 C 0.04568 0.74339 0.44558 0.0
C1044 C 0.07111 0.74001 0.46497 0.0
C1045 C 0.07034 0.77822 0.47041 0.0
C1046 C 0.08887 0.74228 0.46113 0.0
C1047 C 0.10135 0.73087 0.46744 0.0
C1048 C 0.09633 0.71682 0.47761 0.0
C1049 C 0.07857 0.71474 0.48177 0.0
C1050 C 0.06605 0.7262 0.47542 0.0
H1051 H 0.0649 0.79087 0.47422 0.0
H1052 H 0.07248 0.77039 0.48214 0.0
H1053 H 0.08318 0.78054 0.46422 0.0
H1054 H 0.09305 0.75257 0.45273 0.0
H1055 H 0.1149 0.73284 0.46394 0.0
H1056 H 0.24539 0.98266 0.62503 0.0
H1057 H 0.26088 0.96774 0.60203 0.0
H1058 H 0.21169 0.9532 0.57927 0.0
H1059 H 0.19607 0.96785 0.60236 0.0
H1060 H 0.23326 0.92592 0.5851 0.0
H1061 H 0.26971 0.97727 0.55142 0.0
H1062 H 0.27297 0.97745 0.57423 0.0
H1063 H 0.2516 0.98172 0.56561 0.0
C1064 C 0.23785 0.97658 0.61495 0.0
C1065 C 0.21949 0.97635 0.61559 0.0
C1066 C 0.24674 0.96816 0.60174 0.0
C1067 C 0.23744 0.95952 0.58883 0.0
C1068 C 0.21911 0.95986 0.58906 0.0
H1069 H 0.27328 0.88289 0.51444 0.0
H1070 H 0.25559 0.90479 0.52878 0.0
C1071 C 0.21021 0.96823 0.60228 0.0
C1072 C 0.24676 0.94851 0.57632 0.0
H1073 H 0.27923 0.94838 0.54625 0.0
C1074 C 0.24312 0.93086 0.57641 0.0
C1075 C 0.25968 0.955 0.56508 0.0
C1076 C 0.26363 0.97392 0.56393 0.0
C1077 C 0.25249 0.91941 0.56604 0.0
C1078 C 0.26566 0.92583 0.55504 0.0
C1079 C 0.26908 0.94353 0.55467 0.0
C1080 C 0.2767 0.91416 0.5447 0.0
C1081 C 0.24874 0.90044 0.5675 0.0
C1082 C 0.29457 0.91272 0.54838 0.0
C1083 C 0.30473 0.9003 0.54016 0.0
C1084 C 0.29718 0.88911 0.52809 0.0
C1085 C 0.27946 0.8912 0.52378 0.0
C1086 C 0.26932 0.90366 0.53199 0.0
H1087 H 0.24089 0.89736 0.57909 0.0
H1088 H 0.24125 0.89619 0.55607 0.0
H1089 H 0.26108 0.89294 0.56799 0.0
H1090 H 0.30052 0.92075 0.55811 0.0
H1091 H 0.31836 0.89911 0.54371 0.0
H1092 H 0.01748 0.2111 0.61055 0.0
H1093 H 0.02938 0.22924 0.58802 0.0
H1094 H 0.00938 0.19462 0.54955 0.0
H1095 H 0.99754 0.1761 0.5722 0.0
H1096 H 0.04374 0.20162 0.5449 0.0
H1097 H 0.0084 0.26257 0.55411 0.0
H1098 H 0.01702 0.25511 0.57416 0.0
H1099 H 0.00075 0.24256 0.56309 0.0
C1100 C 0.01534 0.20742 0.59731 0.0
C1101 C 0.00662 0.19209 0.59318 0.0
C1102 C 0.02202 0.21794 0.58441 0.0
C1103 C 0.02001 0.21347 0.56708 0.0
C1104 C 0.01091 0.1984 0.56285 0.0
H1105 H 0.07457 0.28785 0.50069 0.0
H1106 H 0.05102 0.2684 0.50962 0.0
C1107 C 0.00416 0.18784 0.5758 0.0
C1108 C 0.02921 0.22361 0.55377 0.0
H1109 H 0.03786 0.26497 0.54222 0.0
C1110 C 0.04215 0.21543 0.54397 0.0
C1111 C 0.02693 0.24156 0.55224 0.0
C1112 C 0.01237 0.25091 0.56134 0.0
C1113 C 0.05388 0.22492 0.53391 0.0
C1114 C 0.05281 0.24304 0.53394 0.0
C1115 C 0.03888 0.25109 0.54245 0.0
C1116 C 0.06716 0.25386 0.52718 0.0
C1117 C 0.06772 0.21547 0.52388 0.0
C1118 C 0.08396 0.25218 0.53416 0.0
C1119 C 0.09735 0.26323 0.52917 0.0
C1120 C 0.0942 0.27631 0.51715 0.0
C1121 C 0.07741 0.27786 0.50994 0.0
C1122 C 0.06396 0.26677 0.51501 0.0
H1123 H 0.06313 0.20248 0.52011 0.0
H1124 H 0.07151 0.22263 0.51213 0.0
H1125 H 0.07948 0.21383 0.53204 0.0
H1126 H 0.08663 0.24261 0.5439 0.0
H1127 H 0.11009 0.26168 0.53501 0.0
H1128 H 0.75449 0.02684 0.62441 0.0
H1129 H 0.74191 0.04194 0.60004 0.0
H1130 H 0.78405 0.02424 0.5678 0.0
H1131 H 0.79704 0.00937 0.59236 0.0
H1132 H 0.78031 0.05791 0.56542 0.0
H1133 H 0.71524 0.02867 0.55785 0.0
H1134 H 0.7185 0.03491 0.57974 0.0
H1135 H 0.73229 0.01865 0.57036 0.0
C1136 C 0.76094 0.02584 0.61208 0.0
C1137 C 0.77683 0.01697 0.61036 0.0
C1138 C 0.75362 0.03438 0.59808 0.0
C1139 C 0.76188 0.03402 0.582 0.0
C1140 C 0.77739 0.02459 0.58006 0.0
H1141 H 0.70726 0.09846 0.50609 0.0
H1142 H 0.72275 0.07327 0.51732 0.0
C1143 C 0.78479 0.0161 0.59411 0.0
C1144 C 0.7554 0.04523 0.56799 0.0
H1145 H 0.71783 0.05851 0.54854 0.0
C1146 C 0.76674 0.05777 0.56141 0.0
C1147 C 0.73781 0.04488 0.56243 0.0
C1148 C 0.72534 0.0309 0.56784 0.0
C1149 C 0.7606 0.0708 0.55056 0.0
C1150 C 0.74261 0.0715 0.54651 0.0
C1151 C 0.73158 0.05815 0.55189 0.0
C1152 C 0.73464 0.08688 0.53853 0.0
C1153 C 0.77338 0.08398 0.54397 0.0
C1154 C 0.7362 0.10284 0.54672 0.0
C1155 C 0.72743 0.11717 0.54037 0.0
C1156 C 0.71674 0.11583 0.52577 0.0
C1157 C 0.71544 0.09991 0.51734 0.0
C1158 C 0.72426 0.08552 0.52373 0.0
H1159 H 0.7867 0.07843 0.54272 0.0
H1160 H 0.76929 0.08916 0.53132 0.0
H1161 H 0.77416 0.09477 0.55325 0.0
H1162 H 0.74375 0.10411 0.55841 0.0
H1163 H 0.72868 0.1292 0.54722 0.0
H1164 H 0.8962 0.72572 0.49858 0.0
H1165 H 0.91498 0.74805 0.51059 0.0
H1166 H 0.94979 0.70928 0.5304 0.0
H1167 H 0.93129 0.68689 0.51819 0.0
H1168 H 0.92 0.75096 0.54476 0.0
H1169 H 0.9842 0.74468 0.51268 0.0
H1170 H 0.96449 0.73528 0.50405 0.0
H1171 H 0.97636 0.7246 0.52089 0.0
C1172 C 0.90807 0.72194 0.50514 0.0
C1173 C 0.91217 0.70451 0.50755 0.0
C1174 C 0.9188 0.73473 0.51198 0.0
C1175 C 0.93387 0.73036 0.52127 0.0
C1176 C 0.93845 0.713 0.52296 0.0
H1177 H 0.98232 0.77495 0.60806 0.0
H1178 H 0.97 0.75696 0.58544 0.0
C1179 C 0.92776 0.70019 0.51607 0.0
C1180 C 0.94338 0.74366 0.53117 0.0
H1181 H 0.98407 0.75947 0.53994 0.0
C1182 C 0.93395 0.75304 0.54346 0.0
C1183 C 0.96158 0.74637 0.52948 0.0
C1184 C 0.97222 0.73731 0.51593 0.0
C1185 C 0.94235 0.76448 0.5546 0.0
C1186 C 0.96063 0.76652 0.55348 0.0
C1187 C 0.97004 0.75773 0.54078 0.0
C1188 C 0.97011 0.77696 0.56623 0.0
C1189 C 0.93175 0.77396 0.56789 0.0
C1190 C 0.97453 0.79405 0.56271 0.0
C1191 C 0.98154 0.80445 0.57565 0.0
C1192 C 0.9842 0.79785 0.59226 0.0
C1193 C 0.9804 0.78048 0.59545 0.0
C1194 C 0.97339 0.77015 0.58255 0.0
H1195 H 0.91747 0.77273 0.56562 0.0
H1196 H 0.93476 0.76874 0.5808 0.0
H1197 H 0.93527 0.78779 0.56793 0.0
H1198 H 0.972 0.79949 0.55016 0.0
H1199 H 0.98436 0.81776 0.57277 0.0
H1200 H 0.4657 0.32762 0.08372 0.0
H1201 H 0.45473 0.30978 0.06018 0.0
H1202 H 0.4729 0.26437 0.08626 0.0
H1203 H 0.484 0.28201 0.10977 0.0
H1204 H 0.47879 0.26515 0.04907 0.0
H1205 H 0.41034 0.27984 0.06855 0.0
H1206 H 0.42445 0.29784 0.0645 0.0
H1207 H 0.42874 0.28401 0.08242 0.0
C1208 C 0.46758 0.31386 0.08434 0.0
C1209 C 0.47554 0.30622 0.09871 0.0
C1210 C 0.46127 0.3037 0.0709 0.0
C1211 C 0.46284 0.28578 0.07163 0.0
C1212 C 0.47155 0.27819 0.08551 0.0
H1213 H 0.42612 0.19345 0.02618 0.0
H1214 H 0.4435 0.21622 0.03921 0.0
C1215 C 0.47782 0.2883 0.09895 0.0
C1216 C 0.45428 0.27473 0.05868 0.0
H1217 H 0.41423 0.26041 0.04596 0.0
C1218 C 0.46467 0.26421 0.04822 0.0
C1219 C 0.43588 0.2736 0.05762 0.0
C1220 C 0.42412 0.28431 0.06892 0.0
C1221 C 0.4571 0.25234 0.03687 0.0
C1222 C 0.43869 0.25072 0.03631 0.0
C1223 C 0.42833 0.26168 0.04637 0.0
C1224 C 0.4298 0.23695 0.0265 0.0
C1225 C 0.46889 0.24162 0.02565 0.0
C1226 C 0.41625 0.241 0.01505 0.0
C1227 C 0.40611 0.22799 0.00775 0.0
C1228 C 0.40931 0.21069 0.01182 0.0
C1229 C 0.42335 0.20664 0.02272 0.0
C1230 C 0.43342 0.21966 0.03008 0.0
H1231 H 0.4815 0.24823 0.0232 0.0
H1232 H 0.47182 0.22935 0.03228 0.0
H1233 H 0.46261 0.23865 0.01315 0.0
H1234 H 0.41318 0.25427 0.01218 0.0
H1235 H 0.39542 0.23155 -0.00064 0.0
H1236 H 0.38475 0.7727 0.95626 0.0
H1237 H 0.40698 0.75243 0.94697 0.0
H1238 H 0.44032 0.76807 0.98876 0.0
H1239 H 0.41804 0.78875 -0.00187 0.0
H1240 H 0.45761 0.76693 0.95771 0.0
H1241 H 0.42121 0.70665 0.96752 0.0
H1242 H 0.40838 0.72168 0.9555 0.0
H1243 H 0.41459 0.72667 0.97725 0.0
C1244 C 0.39672 0.77178 0.96361 0.0
C1245 C 0.3996 0.78233 0.97796 0.0
C1246 C 0.40938 0.76006 0.95835 0.0
C1247 C 0.42515 0.75848 0.96738 0.0
C1248 C 0.42814 0.76897 0.98173 0.0
H1249 H 0.48698 0.67635 0.92028 0.0
H1250 H 0.47576 0.69401 0.94384 0.0
C1251 C 0.41541 0.78076 0.98706 0.0
C1252 C 0.43877 0.74663 0.96088 0.0
H1253 H 0.44362 0.70601 0.94539 0.0
C1254 C 0.45476 0.7535 0.95537 0.0
C1255 C 0.43528 0.72901 0.95824 0.0
C1256 C 0.419 0.72054 0.96513 0.0
C1257 C 0.46664 0.74355 0.9459 0.0
C1258 C 0.46219 0.72646 0.94155 0.0
C1259 C 0.44695 0.71919 0.94844 0.0
C1260 C 0.47179 0.71665 0.92823 0.0
C1261 C 0.48359 0.75164 0.94022 0.0
C1262 C 0.47354 0.72357 0.91168 0.0
C1263 C 0.47999 0.71357 0.89826 0.0
C1264 C 0.4846 0.69632 0.90101 0.0
C1265 C 0.48352 0.68958 0.91772 0.0
C1266 C 0.47712 0.69966 0.93121 0.0
H1267 H 0.48811 0.76131 0.94971 0.0
H1268 H 0.49402 0.74189 0.93845 0.0
H1269 H 0.48149 0.7584 0.92786 0.0
H1270 H 0.46908 0.73646 0.90891 0.0
H1271 H 0.48062 0.71918 0.88555 0.0
H1272 H 0.31537 0.4586 0.90355 0.0
H1273 H 0.29767 0.44363 0.92493 0.0
H1274 H 0.25172 0.4702 0.90706 0.0
H1275 H 0.26924 0.48505 0.88541 0.0
H1276 H 0.27523 0.45474 0.95165 0.0
H1277 H 0.23958 0.41929 0.90055 0.0
H1278 H 0.25924 0.43132 0.89632 0.0
H1279 H 0.23872 0.44225 0.89881 0.0
C1280 C 0.30153 0.46142 0.90426 0.0
C1281 C 0.29367 0.47286 0.89262 0.0
C1282 C 0.29145 0.45287 0.91652 0.0
C1283 C 0.27336 0.4556 0.91736 0.0
C1284 C 0.26562 0.46769 0.90639 0.0
H1285 H 0.19251 0.39839 0.97082 0.0
H1286 H 0.20844 0.42099 0.95576 0.0
C1287 C 0.27567 0.4762 0.89407 0.0
C1288 C 0.26252 0.44501 0.92899 0.0
H1289 H 0.23095 0.4141 0.92906 0.0
C1290 C 0.26548 0.4459 0.94676 0.0
C1291 C 0.24989 0.43344 0.92252 0.0
C1292 C 0.24672 0.43134 0.90351 0.0
C1293 C 0.25605 0.43555 0.95825 0.0
C1294 C 0.24357 0.42386 0.95174 0.0
C1295 C 0.24047 0.42316 0.93401 0.0
C1296 C 0.23404 0.41162 0.96287 0.0
C1297 C 0.25945 0.43727 0.97724 0.0
C1298 C 0.24317 0.39899 0.97208 0.0
C1299 C 0.2341 0.38604 0.98073 0.0
C1300 C 0.21574 0.38542 0.98018 0.0
C1301 C 0.20664 0.39847 0.97147 0.0
C1302 C 0.21572 0.41141 0.96286 0.0
H1303 H 0.26546 0.44985 0.98041 0.0
H1304 H 0.24719 0.43583 0.98472 0.0
H1305 H 0.26864 0.42704 0.98134 0.0
H1306 H 0.25732 0.39871 0.97196 0.0
H1307 H 0.24151 0.37617 0.98726 0.0
H1308 H 0.57411 0.2073 0.99114 0.0
H1309 H 0.54979 0.22323 0.97814 0.0
H1310 H 0.58446 0.2424 0.93898 0.0
H1311 H 0.60871 0.22659 0.95172 0.0
H1312 H 0.54645 0.25992 0.96986 0.0
H1313 H 0.54419 0.21757 0.91274 0.0
H1314 H 0.55498 0.21147 0.93243 0.0
H1315 H 0.56567 0.22555 0.91747 0.0
C1316 C 0.57656 0.215 0.97982 0.0
C1317 C 0.59331 0.21555 0.97236 0.0
C1318 C 0.56267 0.22408 0.97245 0.0
C1319 C 0.56533 0.23372 0.95748 0.0
C1320 C 0.58212 0.23478 0.95039 0.0
H1321 H 0.51846 0.31384 0.90213 0.0
H1322 H 0.53246 0.29605 0.92382 0.0
C1323 C 0.59597 0.22577 0.95773 0.0
C1324 C 0.55061 0.24246 0.94883 0.0
H1325 H 0.52989 0.24472 0.9102 0.0
C1326 C 0.54258 0.25648 0.95692 0.0
C1327 C 0.54536 0.23769 0.93212 0.0
C1328 C 0.55286 0.22214 0.92322 0.0
C1329 C 0.53016 0.26654 0.94824 0.0
C1330 C 0.52594 0.26255 0.931 0.0
C1331 C 0.5332 0.24787 0.92337 0.0
C1332 C 0.51546 0.27418 0.92002 0.0
C1333 C 0.52192 0.28148 0.9575 0.0
C1334 C 0.50118 0.26785 0.91064 0.0
C1335 C 0.49324 0.27795 0.89803 0.0
C1336 C 0.49953 0.29453 0.8945 0.0
C1337 C 0.51326 0.30114 0.90452 0.0
C1338 C 0.52121 0.29102 0.91707 0.0
H1339 H 0.52153 0.27921 0.97157 0.0
H1340 H 0.52986 0.29317 0.95522 0.0
H1341 H 0.50842 0.28392 0.95287 0.0
H1342 H 0.4966 0.25484 0.91264 0.0
H1343 H 0.48267 0.2725 0.89057 0.0
H1344 H 0.70943 0.51146 0.89183 0.0
H1345 H 0.7258 0.52425 0.91569 0.0
H1346 H 0.73961 0.56719 0.88352 0.0
H1347 H 0.7237 0.55444 0.85966 0.0
H1348 H 0.76723 0.55555 0.90326 0.0
H1349 H 0.70741 0.56556 0.9427 0.0
H1350 H 0.71191 0.54389 0.93615 0.0
H1351 H 0.70641 0.55973 0.92032 0.0
C1352 C 0.7161 0.52355 0.88981 0.0
C1353 C 0.71513 0.53201 0.87389 0.0
C1354 C 0.72535 0.53087 0.90348 0.0
C1355 C 0.73367 0.5468 0.90144 0.0
C1356 C 0.73325 0.55491 0.88538 0.0
H1357 H 0.75871 0.63273 0.96083 0.0
H1358 H 0.74586 0.60916 0.94464 0.0
C1359 C 0.72409 0.54761 0.87176 0.0
C1360 C 0.7423 0.55559 0.91601 0.0
H1361 H 0.73363 0.57692 0.95332 0.0
C1362 C 0.75999 0.56001 0.91437 0.0
C1363 C 0.73273 0.56146 0.93039 0.0
C1364 C 0.71353 0.55757 0.93254 0.0
C1365 C 0.76819 0.57084 0.9263 0.0
C1366 C 0.75849 0.57709 0.94044 0.0
C1367 C 0.74103 0.57201 0.94251 0.0
C1368 C 0.76553 0.59058 0.95192 0.0
C1369 C 0.78682 0.57633 0.92305 0.0
C1370 C 0.7806 0.58783 0.96182 0.0
C1371 C 0.78809 0.60137 0.97104 0.0
C1372 C 0.78054 0.61784 0.97059 0.0
C1373 C 0.76493 0.62026 0.96139 0.0
C1374 C 0.75752 0.60677 0.95215 0.0
H1375 H 0.7913 0.57288 0.90993 0.0
H1376 H 0.78825 0.59041 0.92475 0.0
H1377 H 0.79556 0.56989 0.93241 0.0
H1378 H 0.78678 0.57533 0.96208 0.0
H1379 H 0.80004 0.59906 0.97811 0.0
H1380 H 0.53409 0.68529 0.09402 0.0
H1381 H 0.54618 0.70208 0.07038 0.0
H1382 H 0.5039 0.73835 0.07501 0.0
H1383 H 0.49171 0.7217 0.09884 0.0
H1384 H 0.53159 0.71414 0.03802 0.0
H1385 H 0.54914 0.76669 0.08336 0.0
H1386 H 0.54314 0.74552 0.09066 0.0
H1387 H 0.52665 0.76004 0.08307 0.0
C1388 C 0.52722 0.69673 0.08991 0.0
C1389 C 0.51204 0.70228 0.09846 0.0
C1390 C 0.53412 0.70627 0.07635 0.0
C1391 C 0.52604 0.72153 0.07112 0.0
C1392 C 0.51042 0.72669 0.07903 0.0
H1393 H 0.57685 0.80128 0.01038 0.0
H1394 H 0.55369 0.78483 0.02437 0.0
C1395 C 0.50347 0.71714 0.09261 0.0
C1396 C 0.53481 0.73261 0.05833 0.0
H1397 H 0.55802 0.76979 0.05481 0.0
C1398 C 0.53721 0.72642 0.04158 0.0
C1399 C 0.54207 0.7486 0.06306 0.0
C1400 C 0.54028 0.75564 0.08103 0.0
C1401 C 0.54701 0.73569 0.02948 0.0
C1402 C 0.5549 0.75135 0.03444 0.0
C1403 C 0.55193 0.75781 0.05101 0.0
C1404 C 0.5675 0.76061 0.02332 0.0
C1405 C 0.54889 0.72857 0.01158 0.0
C1406 C 0.58282 0.75241 0.01776 0.0
C1407 C 0.59604 0.76175 0.00967 0.0
C1408 C 0.59431 0.77955 0.00723 0.0
C1409 C 0.57863 0.7876 0.01213 0.0
C1410 C 0.56537 0.77822 0.02012 0.0
H1411 H 0.53758 0.72032 0.00814 0.0
H1412 H 0.55004 0.73899 0.00192 0.0
H1413 H 0.56083 0.72052 0.01093 0.0
H1414 H 0.58497 0.73894 0.02046 0.0
H1415 H 0.60796 0.75516 0.00612 0.0
H1416 H 0.17781 0.58536 0.04415 0.0
H1417 H 0.19553 0.56379 0.05882 0.0
H1418 H 0.24053 0.57911 0.02926 0.0
H1419 H 0.223 0.60098 0.01472 0.0
H1420 H 0.21672 0.53591 0.04807 0.0
H1421 H 0.2553 0.58785 0.07912 0.0
H1422 H 0.2352 0.59198 0.06777 0.0
H1423 H 0.2551 0.58834 0.05608 0.0
C1424 C 0.19142 0.58401 0.04059 0.0
C1425 C 0.19907 0.59507 0.02845 0.0
C1426 C 0.20151 0.57164 0.04896 0.0
C1427 C 0.21939 0.57009 0.04534 0.0
C1428 C 0.22681 0.58035 0.03246 0.0
H1429 H 0.30082 0.5186 0.10356 0.0
H1430 H 0.2847 0.53185 0.07997 0.0
C1431 C 0.21676 0.5928 0.02414 0.0
C1432 C 0.23045 0.55871 0.05598 0.0
H1433 H 0.26325 0.55948 0.08561 0.0
C1434 C 0.22698 0.54101 0.05621 0.0
C1435 C 0.24374 0.56544 0.06665 0.0
C1436 C 0.24751 0.58445 0.06757 0.0
C1437 C 0.2365 0.52985 0.06686 0.0
C1438 C 0.24962 0.53665 0.07768 0.0
C1439 C 0.25326 0.55429 0.0772 0.0
C1440 C 0.25917 0.52605 0.09037 0.0
C1441 C 0.23249 0.51091 0.0664 0.0
C1442 C 0.25014 0.51807 0.10386 0.0
C1443 C 0.25932 0.51045 0.11738 0.0
C1444 C 0.27768 0.51086 0.11771 0.0
C1445 C 0.28667 0.51814 0.10375 0.0
C1446 C 0.27749 0.5257 0.09024 0.0
H1447 H 0.22604 0.50718 0.05418 0.0
H1448 H 0.24455 0.50315 0.06801 0.0
H1449 H 0.22345 0.50774 0.07708 0.0
H1450 H 0.23601 0.51849 0.1044 0.0
H1451 H 0.252 0.50499 0.12794 0.0
H1452 H 0.67571 0.45507 0.09041 0.0
H1453 H 0.69376 0.44056 0.06892 0.0
H1454 H 0.74015 0.46196 0.09191 0.0
H1455 H 0.72227 0.47627 0.11362 0.0
H1456 H 0.71933 0.45167 0.04472 0.0
H1457 H 0.74743 0.40984 0.09548 0.0
H1458 H 0.72847 0.42312 0.09907 0.0
H1459 H 0.74996 0.43243 0.09927 0.0
C1460 C 0.68973 0.45688 0.09077 0.0
C1461 C 0.69758 0.46662 0.10388 0.0
C1462 C 0.70002 0.4486 0.07847 0.0
C1463 C 0.71828 0.44995 0.07905 0.0
C1464 C 0.72608 0.46051 0.09146 0.0
H1465 H 0.801 0.39321 0.02864 0.0
H1466 H 0.78434 0.41523 0.0438 0.0
C1467 C 0.71583 0.46871 0.10382 0.0
C1468 C 0.72921 0.43937 0.06748 0.0
H1469 H 0.75883 0.40665 0.06758 0.0
C1470 C 0.728 0.44184 0.04967 0.0
C1471 C 0.74041 0.42649 0.07403 0.0
C1472 C 0.74158 0.42265 0.09299 0.0
C1473 C 0.73793 0.43188 0.03822 0.0
C1474 C 0.74911 0.41902 0.0448 0.0
C1475 C 0.75034 0.41663 0.06259 0.0
C1476 C 0.7593 0.40738 0.03358 0.0
C1477 C 0.73652 0.4353 0.01922 0.0
C1478 C 0.75076 0.39585 0.02259 0.0
C1479 C 0.76025 0.38322 0.01388 0.0
C1480 C 0.77843 0.38184 0.01614 0.0
C1481 C 0.78701 0.39388 0.02663 0.0
C1482 C 0.77752 0.40648 0.03531 0.0
H1483 H 0.73117 0.44829 0.01658 0.0
H1484 H 0.74946 0.43409 0.01288 0.0
H1485 H 0.72758 0.42573 0.01338 0.0
H1486 H 0.73667 0.3961 0.02134 0.0
H1487 H 0.75324 0.37414 0.00593 0.0
H1488 H 0.96232 0.22207 0.33058 0.0
H1489 H 0.96474 0.24091 0.30561 0.0
H1490 H 0.00544 0.20873 0.2849 0.0
H1491 H 0.00314 0.18976 0.30985 0.0
H1492 H 0.01361 0.2447 0.2873 0.0
H1493 H 0.95024 0.23286 0.25469 0.0
H1494 H 0.94861 0.23706 0.27732 0.0
H1495 H 0.95956 0.21803 0.26999 0.0
C1496 C 0.97166 0.21887 0.32063 0.0
C1497 C 0.98256 0.20444 0.32221 0.0
C1498 C 0.97294 0.2296 0.30633 0.0
C1499 C 0.98513 0.22608 0.29336 0.0
C1500 C 0.99587 0.21156 0.29475 0.0
H1501 H 0.99772 0.2869 0.19941 0.0
H1502 H 0.99529 0.26268 0.2194 0.0
C1503 C 0.99452 0.20075 0.309 0.0
C1504 C 0.98755 0.23832 0.27906 0.0
H1505 H 0.96628 0.25758 0.2457 0.0
C1506 C 0.00335 0.24738 0.27808 0.0
C1507 C 0.97417 0.24167 0.26701 0.0
C1508 C 0.95723 0.2318 0.26714 0.0
C1509 C 0.00587 0.26024 0.26573 0.0
C1510 C 0.99221 0.26411 0.25418 0.0
C1511 C 0.97667 0.2546 0.2547 0.0
C1512 C 0.99356 0.27861 0.24206 0.0
C1513 C 0.02301 0.26979 0.26526 0.0
C1514 C 0.99318 0.29549 0.24825 0.0
C1515 C 0.99444 0.3093 0.23692 0.0
C1516 C 0.99618 0.30647 0.21918 0.0
C1517 C 0.99648 0.2895 0.21301 0.0
C1518 C 0.99506 0.27567 0.22437 0.0
H1519 H 0.03337 0.263 0.27258 0.0
H1520 H 0.02747 0.27156 0.25182 0.0
H1521 H 0.0212 0.2827 0.27102 0.0
H1522 H 0.99187 0.29797 0.26187 0.0
H1523 H 0.99417 0.3222 0.2421 0.0
H1524 H 0.77879 0.97829 0.29383 0.0
H1525 H 0.75773 0.98069 0.2704 0.0
H1526 H 0.76119 0.03588 0.27285 0.0
H1527 H 0.78208 0.03363 0.2965 0.0
H1528 H 0.72745 0.02427 0.2732 0.0
H1529 H 0.76424 0.99356 0.22017 0.0
H1530 H 0.76305 0.98052 0.23912 0.0
H1531 H 0.77461 0.00061 0.23976 0.0
C1532 C 0.77525 0.99094 0.28926 0.0
C1533 C 0.7821 0.00577 0.29706 0.0
C1534 C 0.76329 0.99228 0.27579 0.0
C1535 C 0.75808 0.00846 0.26974 0.0
C1536 C 0.76511 0.02327 0.27729 0.0
H1537 H 0.69172 0.02599 0.1803 0.0
H1538 H 0.71596 0.02589 0.2008 0.0
C1539 C 0.77704 0.02195 0.2908 0.0
C1540 C 0.74437 0.00991 0.2564 0.0
H1541 H 0.73357 0.99752 0.21572 0.0
C1542 C 0.72885 0.01855 0.26058 0.0
C1543 C 0.7463 0.0026 0.23989 0.0
C1544 C 0.76302 0.99394 0.23437 0.0
C1545 C 0.71499 0.01964 0.24886 0.0
C1546 C 0.71661 0.01165 0.23265 0.0
C1547 C 0.73232 0.00346 0.22825 0.0
C1548 C 0.70203 0.0115 0.22019 0.0
C1549 C 0.69875 0.0294 0.25391 0.0
C1550 C 0.68629 0.00322 0.22424 0.0
C1551 C 0.67243 0.00325 0.21259 0.0
C1552 C 0.67409 0.0115 0.19663 0.0
C1553 C 0.68999 0.01957 0.19251 0.0
C1554 C 0.70386 0.01951 0.20418 0.0
H1555 H 0.7013 0.03841 0.26468 0.0
H1556 H 0.69348 0.0368 0.24287 0.0
H1557 H 0.68858 0.02018 0.25813 0.0
H1558 H 0.68475 0.9967 0.23643 0.0
H1559 H 0.6604 0.99683 0.21614 0.0
H1560 H 0.01168 0.66707 0.23788 0.0
H1561 H 0.01385 0.69243 0.25619 0.0
H1562 H 0.00063 0.72479 0.21322 0.0
H1563 H -0.00146 0.69947 0.1947 0.0
H1564 H 0.0298 0.73623 0.23264 0.0
H1565 H 0.97264 0.72162 0.27392 0.0
H1566 H 0.98802 0.70429 0.27215 0.0
H1567 H 0.97621 0.71128 0.25347 0.0
C1568 C 0.00918 0.67956 0.2323 0.0
C1569 C 0.00486 0.68124 0.21484 0.0
C1570 C 0.01035 0.69403 0.24281 0.0
C1571 C 0.00715 0.71042 0.23609 0.0
C1572 C 0.00304 0.71221 0.21865 0.0
H1573 H 0.99402 0.80067 0.30103 0.0
H1574 H 0.99027 0.77889 0.27872 0.0
C1575 C 0.00183 0.69773 0.20811 0.0
C1576 C 0.00848 0.72571 0.24727 0.0
H1577 H 0.99178 0.74367 0.28368 0.0
C1578 C 0.02141 0.73797 0.24373 0.0
C1579 C 0.99734 0.72802 0.26156 0.0
C1580 C 0.98265 0.7157 0.26546 0.0
C1581 C 0.02391 0.75221 0.25448 0.0
C1582 C 0.01331 0.75407 0.26923 0.0
C1583 C -1e-05 0.74212 0.27243 0.0
C1584 C 0.01609 0.76802 0.28183 0.0
C1585 C 0.03783 0.76514 0.24996 0.0
C1586 C 0.03186 0.76911 0.29094 0.0
C1587 C 0.03406 0.78153 0.30369 0.0
C1588 C 0.02046 0.79302 0.30763 0.0
C1589 C 0.00476 0.79204 0.2983 0.0
C1590 C 0.00258 0.7796 0.28556 0.0
H1591 H 0.0413 0.76455 0.23613 0.0
H1592 H 0.03352 0.77839 0.25309 0.0
H1593 H 0.0498 0.76234 0.25749 0.0
H1594 H 0.04233 0.76007 0.2885 0.0
H1595 H 0.04629 0.78189 0.31068 0.0
H1596 H 0.19958 0.98882 0.274 0.0
H1597 H 0.22042 0.98898 0.25013 0.0
H1598 H 0.25352 0.02392 0.27814 0.0
H1599 H 0.23279 0.02397 0.30196 0.0
H1600 H 0.24833 0.03256 0.24273 0.0
H1601 H 0.26862 0.96462 0.25237 0.0
H1602 H 0.24558 0.96843 0.24993 0.0
H1603 H 0.25678 0.97655 0.26847 0.0
C1604 C 0.21126 0.99658 0.27506 0.0
C1605 C 0.21459 0.00628 0.28994 0.0
C1606 C 0.22317 0.99661 0.26143 0.0
C1607 C 0.23857 0.00631 0.26249 0.0
C1608 C 0.2417 0.01632 0.27712 0.0
H1609 H 0.33809 0.00146 0.21408 0.0
H1610 H 0.31249 0.00125 0.23274 0.0
C1611 C 0.22986 0.01628 0.29073 0.0
C1612 C 0.25175 0.00578 0.24861 0.0
H1613 H 0.28221 0.97979 0.22993 0.0
C1614 C 0.25565 0.02101 0.23978 0.0
C1615 C 0.26132 0.99069 0.24496 0.0
C1616 C 0.25803 0.97414 0.25448 0.0
C1617 C 0.2691 0.02161 0.22755 0.0
C1618 C 0.27877 0.00656 0.22402 0.0
C1619 C 0.27466 0.99127 0.23263 0.0
C1620 C 0.29406 0.00669 0.21241 0.0
C1621 C 0.27334 0.03847 0.21898 0.0
C1622 C 0.29212 0.0097 0.19476 0.0
C1623 C 0.30677 0.00982 0.184 0.0
C1624 C 0.32356 0.00691 0.19076 0.0
C1625 C 0.32537 0.0038 0.20845 0.0
C1626 C 0.31075 0.00363 0.21914 0.0
H1627 H 0.26665 0.04945 0.22527 0.0
H1628 H 0.28765 0.04082 0.21915 0.0
H1629 H 0.26909 0.03798 0.20538 0.0
H1630 H 0.27929 0.01186 0.1893 0.0
H1631 H 0.30493 0.0122 0.17043 0.0
H1632 H 0.0246 0.66362 0.76196 0.0
H1633 H 0.0208 0.68715 0.74162 0.0
H1634 H 0.99419 0.71676 0.78042 0.0
H1635 H 0.99757 0.69309 0.80077 0.0
H1636 H 0.97661 0.7168 0.7504 0.0
H1637 H 0.04605 0.73254 0.73841 0.0
H1638 H 0.04139 0.71028 0.73476 0.0
H1639 H 0.0392 0.71908 0.75601 0.0
C1640 C 0.01809 0.67519 0.76624 0.0
C1641 C 0.01142 0.67649 0.783 0.0
C1642 C 0.01603 0.68869 0.75462 0.0
C1643 C 0.00748 0.70383 0.75959 0.0
C1644 C 0.00092 0.70523 0.77635 0.0
H1645 H 0.00598 0.7945 0.69369 0.0
H1646 H 0.01007 0.77492 0.71789 0.0
C1647 C 0.00288 0.69169 0.78796 0.0
C1648 C 0.00452 0.71777 0.74699 0.0
H1649 H 0.02535 0.74364 0.71817 0.0
C1650 C 0.98727 0.7228 0.74348 0.0
C1651 C 0.01846 0.72578 0.73815 0.0
C1652 C 0.03732 0.72178 0.74214 0.0
C1653 C 0.98354 0.7352 0.73095 0.0
C1654 C 0.99742 0.74247 0.72141 0.0
C1655 C 0.01471 0.73789 0.72534 0.0
C1656 C 0.99431 0.75457 0.70707 0.0
C1657 C 0.96478 0.74045 0.72813 0.0
C1658 C 0.98417 0.74958 0.69291 0.0
C1659 C 0.98171 0.76077 0.67911 0.0
C1660 C 0.98954 0.77709 0.67912 0.0
C1661 C -0.00025 0.78203 0.69329 0.0
C1662 C 0.00211 0.77086 0.70713 0.0
H1663 H 0.95666 0.73791 0.73968 0.0
H1664 H 0.96376 0.75428 0.72485 0.0
H1665 H 0.95925 0.73288 0.71736 0.0
H1666 H 0.97839 0.73691 0.69238 0.0
H1667 H 0.97389 0.75651 0.66834 0.0
H1668 H 0.21667 0.96955 0.69549 0.0
H1669 H 0.2392 0.96771 0.71765 0.0
H1670 H 0.24099 0.02293 0.72068 0.0
H1671 H 0.21832 0.02494 0.69863 0.0
H1672 H 0.27295 0.98156 0.71534 0.0
H1673 H 0.23695 0.00821 0.7712 0.0
H1674 H 0.22604 0.00074 0.75205 0.0
H1675 H 0.23644 0.02141 0.75231 0.0
C1676 C 0.22171 0.98132 0.70098 0.0
C1677 C 0.21569 0.9974 0.6953 0.0
C1678 C 0.23459 0.98023 0.71363 0.0
C1679 C 0.24159 0.99517 0.72094 0.0
C1680 C 0.2355 0.01124 0.71544 0.0
H1681 H 0.32621 0.01692 0.79133 0.0
H1682 H 0.30129 0.0182 0.77171 0.0
C1683 C 0.22263 0.01236 0.70276 0.0
C1684 C 0.25598 0.99393 0.73358 0.0
H1685 H 0.2675 0.00401 0.77469 0.0
C1686 C 0.27174 0.98635 0.72836 0.0
C1687 C 0.25434 0.00028 0.7505 0.0
C1688 C 0.23749 0.00799 0.75695 0.0
C1689 C 0.28606 0.98524 0.73953 0.0
C1690 C 0.28445 0.99159 0.75646 0.0
C1691 C 0.26867 -0.00086 0.7617 0.0
C1692 C 0.29909 0.99067 0.76884 0.0
C1693 C 0.30295 0.97768 0.73296 0.0
C1694 C 0.30587 0.97475 0.77397 0.0
C1695 C 0.32013 0.97396 0.78514 0.0
C1696 C 0.32779 0.98909 0.79147 0.0
C1697 C 0.32066 0.00502 0.78664 0.0
C1698 C 0.30641 0.00579 0.77545 0.0
H1699 H 0.30338 0.97739 0.71871 0.0
H1700 H 0.31436 0.98508 0.73772 0.0
H1701 H 0.3042 0.96429 0.73766 0.0
H1702 H 0.30017 0.96293 0.76927 0.0
H1703 H 0.32521 0.96149 0.7887 0.0
H1704 H 0.00813 0.19261 0.69484 0.0
H1705 H 0.00831 0.21278 0.71896 0.0
H1706 H 0.98066 0.24992 0.68822 0.0
H1707 H 0.98024 0.22988 0.66416 0.0
H1708 H 0.02326 0.2454 0.71958 0.0
H1709 H 0.95218 0.24875 0.7327 0.0
H1710 H 0.96187 0.23191 0.71991 0.0
H1711 H 0.95755 0.25261 0.71061 0.0
C1712 C 0.00194 0.20502 0.69326 0.0
C1713 C 0.99413 0.20963 0.67758 0.0
C1714 C 0.00208 0.21651 0.70705 0.0
C1715 C 0.99428 0.23273 0.70544 0.0
C1716 C 0.98642 0.23733 0.68984 0.0
H1717 H 0.01233 0.32763 0.75773 0.0
H1718 H 0.01173 0.3029 0.73848 0.0
C1719 C 0.9863 0.22588 0.67606 0.0
C1720 C 0.99512 0.24525 0.7197 0.0
H1721 H 0.96981 0.27097 0.74498 0.0
C1722 C 0.01159 0.25086 0.72529 0.0
C1723 C 0.97987 0.25217 0.72727 0.0
C1724 C 0.96187 0.24594 0.72245 0.0
C1725 C 0.01321 0.26375 0.73776 0.0
C1726 C -0.00205 0.27135 0.74461 0.0
C1727 C 0.98149 0.26524 0.73956 0.0
C1728 C -0.00125 0.28611 0.75655 0.0
C1729 C 0.03123 0.26915 0.74345 0.0
C1730 C 0.99134 0.28496 0.77298 0.0
C1731 C 0.99157 0.29911 0.784 0.0
C1732 C -0.00089 0.31471 0.77872 0.0
C1733 C 0.0065 0.3158 0.76224 0.0
C1734 C 0.00627 0.30164 0.75125 0.0
H1735 H 0.04107 0.25898 0.74087 0.0
H1736 H 0.03518 0.2808 0.73624 0.0
H1737 H 0.03144 0.27224 0.75736 0.0
H1738 H 0.98537 0.2731 0.77725 0.0
H1739 H 0.98573 0.29786 0.7966 0.0
H1740 H 0.80437 0.02405 0.71097 0.0
H1741 H 0.78261 0.02424 0.73402 0.0
H1742 H 0.75117 0.98801 0.70582 0.0
H1743 H 0.77279 0.98769 0.68275 0.0
H1744 H 0.74634 0.03329 0.73005 0.0
H1745 H 0.75509 0.96695 0.75461 0.0
H1746 H 0.77136 0.97766 0.74168 0.0
H1747 H 0.7523 0.96856 0.73177 0.0
C1748 C 0.7929 0.01601 0.70973 0.0
C1749 C 0.79033 0.00583 0.69503 0.0
C1750 C 0.78049 0.01615 0.7229 0.0
C1751 C 0.76542 0.00599 0.72169 0.0
C1752 C 0.76287 0.99572 0.70712 0.0
H1753 H 0.67071 0.98945 0.77872 0.0
H1754 H 0.69536 0.98891 0.75881 0.0
C1755 C 0.77521 0.99563 0.69391 0.0
C1756 C 0.7519 0.00672 0.73523 0.0
H1757 H 0.73016 0.9822 0.76455 0.0
C1758 C 0.74288 0.02219 0.73773 0.0
C1759 C 0.74744 0.99218 0.74513 0.0
C1760 C 0.75713 0.97541 0.74332 0.0
C1761 C 0.72907 0.02337 0.74953 0.0
C1762 C 0.72447 0.00876 0.75934 0.0
C1763 C 0.73371 0.99337 0.75701 0.0
C1764 C 0.70976 0.00903 0.7717 0.0
C1765 C 0.71914 0.04005 0.75091 0.0
C1766 C 0.7098 0.02036 0.7857 0.0
C1767 C 0.69566 0.0208 0.79705 0.0
C1768 C 0.68132 0.00976 0.7947 0.0
C1769 C 0.68152 -0.00184 0.78088 0.0
C1770 C 0.69561 0.99781 0.76949 0.0
H1771 H 0.72133 0.0484 0.73955 0.0
H1772 H 0.7049 0.0377 0.75224 0.0
H1773 H 0.72366 0.04713 0.76244 0.0
H1774 H 0.72078 0.02886 0.78787 0.0
H1775 H 0.69599 0.02977 0.80766 0.0
H1776 H 0.22285 0.31378 0.9862 0.0
H1777 H 0.24386 0.29019 0.98559 0.0
H1778 H 0.20258 0.25413 0.99632 0.0
H1779 H 0.18134 0.2777 0.99695 0.0
H1780 H 0.23414 0.25074 0.01714 0.0
H1781 H 0.24762 0.25293 0.94718 0.0
H1782 H 0.24895 0.27336 0.95781 0.0
H1783 H 0.22834 0.26239 0.95666 0.0
C1784 C 0.21819 0.30084 0.98841 0.0
C1785 C 0.2004 0.2976 0.99156 0.0
C1786 C 0.23021 0.28738 0.98797 0.0
C1787 C 0.2247 0.27044 0.99068 0.0
C1788 C 0.20703 0.26713 0.99408 0.0
H1789 H 0.29607 0.18437 0.97242 0.0
H1790 H 0.26956 0.20198 0.97342 0.0
C1791 C 0.19494 0.2806 0.99442 0.0
C1792 C 0.23759 0.25631 0.99029 0.0
H1793 H 0.26764 0.23696 0.96438 0.0
C1794 C 0.24134 0.24755 0.00558 0.0
C1795 C 0.24675 0.25206 0.97513 0.0
C1796 C 0.24265 0.26055 0.9582 0.0
C1797 C 0.25465 0.23516 0.00627 0.0
C1798 C 0.26448 0.23162 0.99132 0.0
C1799 C 0.26016 0.2398 0.97585 0.0
C1800 C 0.27998 0.22026 0.99164 0.0
C1801 C 0.25819 0.22611 0.02302 0.0
C1802 C 0.2946 0.22477 0.00151 0.0
C1803 C 0.30975 0.21481 0.00092 0.0
C1804 C 0.3106 0.20017 0.99039 0.0
C1805 C 0.29583 0.19555 0.98069 0.0
C1806 C 0.28068 0.20558 0.98123 0.0
H1807 H 0.24666 0.22655 0.03167 0.0
H1808 H 0.26186 0.21249 0.02083 0.0
H1809 H 0.26922 0.23255 0.02965 0.0
H1810 H 0.29444 0.23624 0.00936 0.0
H1811 H 0.32089 0.21875 0.00854 0.0
H1812 H 0.23248 0.6739 0.01505 0.0
H1813 H 0.25581 0.69521 0.01611 0.0
H1814 H 0.22411 0.73042 0.98688 0.0
H1815 H 0.20047 0.70925 0.98602 0.0
H1816 H 0.27362 0.7099 0.98925 0.0
H1817 H 0.23935 0.75981 0.0275 0.0
H1818 H 0.23128 0.73812 0.02563 0.0
H1819 H 0.22806 0.75315 0.00842 0.0
C1820 C 0.2304 0.6862 0.00889 0.0
C1821 C 0.21457 0.6899 0.00049 0.0
C1822 C 0.24377 0.69836 0.00951 0.0
C1823 C 0.24161 0.71448 0.00179 0.0
C1824 C 0.2259 0.71819 0.99325 0.0
H1825 H 0.31438 0.8002 0.99169 0.0
H1826 H 0.289 0.78116 0.98949 0.0
C1827 C 0.21245 0.70604 0.99268 0.0
C1828 C 0.25608 0.7271 0.00232 0.0
H1829 H 0.26739 0.76697 0.01683 0.0
C1830 C 0.27226 0.72237 0.99528 0.0
C1831 C 0.25424 0.74339 0.01016 0.0
C1832 C 0.23735 0.74892 0.0185 0.0
C1833 C 0.28667 0.73346 0.99589 0.0
C1834 C 0.28489 0.74963 0.00393 0.0
C1835 C 0.26866 0.75453 0.01069 0.0
C1836 C 0.29992 0.76142 0.00578 0.0
C1837 C 0.30366 0.72786 0.98782 0.0
C1838 C 0.31427 0.75673 0.01595 0.0
C1839 C 0.32874 0.76756 0.01728 0.0
C1840 C 0.32912 0.7833 0.00845 0.0
C1841 C 0.31453 0.78813 -0.00142 0.0
C1842 C 0.30002 0.7773 0.99732 0.0
H1843 H 0.30175 0.71706 0.97869 0.0
H1844 H 0.30996 0.73868 0.98092 0.0
H1845 H 0.31273 0.72348 -0.00196 0.0
H1846 H 0.3143 0.74463 0.0228 0.0
H1847 H 0.33972 0.76348 0.02504 0.0
H1848 H 0.7699 0.31148 0.00012 0.0
H1849 H 0.74763 0.28908 -0.00127 0.0
H1850 H 0.78547 0.2515 0.01514 0.0
H1851 H 0.80787 0.27389 0.01678 0.0
H1852 H 0.74766 0.25883 0.979 0.0
H1853 H 0.74479 0.24475 0.04894 0.0
H1854 H 0.75506 0.26382 0.0405 0.0
H1855 H 0.7661 0.24351 0.03934 0.0
C1856 C 0.77352 0.29846 0.00347 0.0
C1857 C 0.79065 0.29448 0.00864 0.0
C1858 C 0.76076 0.28568 0.00265 0.0
C1859 C 0.76485 0.26869 0.00704 0.0
C1860 C 0.78198 0.2646 0.012 0.0
H1861 H 0.6963 0.17874 0.01108 0.0
H1862 H 0.72202 0.19749 0.01151 0.0
C1863 C 0.79477 0.2774 0.01284 0.0
C1864 C 0.75113 0.25532 0.0062 0.0
H1865 H 0.72701 0.2279 0.03083 0.0
C1866 C 0.74317 0.25202 0.99032 0.0
C1867 C 0.74539 0.24641 0.02098 0.0
C1868 C 0.75315 0.24984 0.03845 0.0
C1869 C 0.7295 0.24013 0.98883 0.0
C1870 C 0.72345 0.23156 0.00367 0.0
C1871 C 0.73169 0.23452 0.01948 0.0
C1872 C 0.70801 0.22012 0.0032 0.0
C1873 C 0.72166 0.23683 0.97137 0.0
C1874 C 0.69161 0.22672 -0.00138 0.0
C1875 C 0.67693 0.2161 -0.00163 0.0
C1876 C 0.67835 0.19865 0.0028 0.0
C1877 C 0.69478 0.1921 0.00754 0.0
C1878 C 0.70948 0.20278 0.00781 0.0
H1879 H 0.73077 0.24053 0.9609 0.0
H1880 H 0.71815 0.22309 0.9698 0.0
H1881 H 0.70959 0.24458 0.96994 0.0
H1882 H 0.69013 0.24016 0.99536 0.0
H1883 H 0.66447 0.22159 0.99474 0.0
H1884 H 0.80942 0.72173 0.98194 0.0
H1885 H 0.78727 0.7443 0.98436 0.0
H1886 H 0.75039 0.70738 0.00402 0.0
H1887 H 0.77241 0.68484 0.00188 0.0
H1888 H 0.75489 0.74569 0.96831 0.0
H1889 H 0.74707 0.74614 0.03902 0.0
H1890 H 0.76538 0.73599 0.02849 0.0
H1891 H 0.74464 0.72519 0.02975 0.0
C1892 C 0.79664 0.71844 0.98691 0.0
C1893 C 0.79271 0.70149 0.99179 0.0
C1894 C 0.78401 0.73135 0.98827 0.0
C1895 C 0.76729 0.72756 0.99464 0.0
C1896 C 0.76333 0.71066 -0.00054 0.0
H1897 H 0.66769 0.77737 0.0048 0.0
H1898 H 0.6927 0.75784 0.00423 0.0
C1899 C 0.77592 0.69777 -0.00188 0.0
C1900 C 0.75369 0.74105 0.99552 0.0
H1901 H 0.72503 0.76061 0.02282 0.0
C1902 C 0.74849 0.74911 0.98024 0.0
C1903 C 0.74538 0.74547 0.01112 0.0
C1904 C 0.751 0.73787 0.02806 0.0
C1905 C 0.73475 0.76105 0.98006 0.0
C1906 C 0.72619 0.76516 0.9956 0.0
C1907 C 0.7316 0.75735 0.01092 0.0
C1908 C 0.71123 0.77718 0.99615 0.0
C1909 C 0.72911 0.76874 0.96317 0.0
C1910 C 0.71345 0.79456 0.99202 0.0
C1911 C 0.69919 0.80577 0.99234 0.0
C1912 C 0.68247 0.79978 0.99685 0.0
C1913 C 0.68037 0.78239 0.00122 0.0
C1914 C 0.69464 0.77121 0.00092 0.0
H1915 H 0.73457 0.76161 0.95204 0.0
H1916 H 0.71464 0.76887 0.9621 0.0
H1917 H 0.73377 0.7822 0.96242 0.0
H1918 H 0.72622 0.79945 0.98856 0.0
H1919 H 0.70127 0.8191 0.98898 0.0
H1920 H 0.47846 0.70901 0.80218 0.0
H1921 H 0.47984 0.73045 0.77923 0.0
H1922 H 0.52734 0.75083 0.80091 0.0
H1923 H 0.5262 0.7294 0.82375 0.0
H1924 H 0.4801 0.76646 0.78286 0.0
H1925 H 0.54008 0.74313 0.75028 0.0
H1926 H 0.52797 0.73016 0.76537 0.0
H1927 H 0.54256 0.74658 0.77294 0.0
C1928 C 0.48926 0.71799 0.802 0.0
C1929 C 0.50226 0.71746 0.81476 0.0
C1930 C 0.49001 0.73022 0.7889 0.0
C1931 C 0.50383 0.74204 0.78825 0.0
C1932 C 0.51677 0.74159 0.80099 0.0
H1933 H 0.53166 0.82912 0.72525 0.0
H1934 H 0.53005 0.80622 0.74666 0.0
C1935 C 0.51602 0.72939 0.81409 0.0
C1936 C 0.5044 0.75525 0.77462 0.0
H1937 H 0.52936 0.77044 0.74165 0.0
C1938 C 0.49079 0.76728 0.77375 0.0
C1939 C 0.5184 0.75626 0.76282 0.0
C1940 C 0.53302 0.74326 0.76274 0.0
C1941 C 0.49101 0.7806 0.76163 0.0
C1942 C 0.50507 0.78168 0.7499 0.0
C1943 C 0.51862 0.76957 0.75069 0.0
C1944 C 0.50604 0.79539 0.73679 0.0
C1945 C 0.47645 0.79366 0.7618 0.0
C1946 C 0.4932 0.79671 0.72401 0.0
C1947 C 0.49406 0.80978 0.71178 0.0
C1948 C 0.50785 0.82171 0.71204 0.0
C1949 C 0.52085 0.82017 0.7247 0.0
C1950 C 0.51996 0.80709 0.73694 0.0
H1951 H 0.46913 0.7935 0.77411 0.0
H1952 H 0.48161 0.8068 0.75963 0.0
H1953 H 0.4671 0.79068 0.75132 0.0
H1954 H 0.48254 0.78759 0.72347 0.0
H1955 H 0.48389 0.81055 0.70214 0.0
H1956 H 0.26221 0.49339 0.81236 0.0
H1957 H 0.24041 0.49517 0.78957 0.0
H1958 H 0.27888 0.51702 0.75555 0.0
H1959 H 0.30092 0.51504 0.77824 0.0
H1960 H 0.22867 0.52421 0.77237 0.0
H1961 H 0.2587 0.47755 0.72712 0.0
H1962 H 0.26536 0.47921 0.74928 0.0
H1963 H 0.27272 0.49476 0.73387 0.0
C1964 C 0.26609 0.49852 0.80002 0.0
C1965 C 0.28334 0.50401 0.7971 0.0
C1966 C 0.2536 0.49954 0.78701 0.0
C1967 C 0.25808 0.50602 0.77081 0.0
C1968 C 0.27523 0.51166 0.76786 0.0
H1969 H 0.19238 0.5194 0.67967 0.0
H1970 H 0.2168 0.52038 0.70002 0.0
C1971 C 0.28778 0.51061 0.78087 0.0
C1972 C 0.24459 0.50718 0.75722 0.0
H1973 H 0.2332 0.49185 0.7177 0.0
C1974 C 0.22968 0.51717 0.7604 0.0
C1975 C 0.246 0.49803 0.74159 0.0
C1976 C 0.26147 0.48666 0.73774 0.0
C1977 C 0.21604 0.51814 0.74843 0.0
C1978 C 0.21726 0.5087 0.73298 0.0
C1979 C 0.23235 0.49906 0.72958 0.0
C1980 C 0.20262 0.50804 0.72061 0.0
C1981 C 0.20041 0.52928 0.75238 0.0
C1982 C 0.1867 0.50054 0.72541 0.0
C1983 C 0.17279 0.4999 0.71385 0.0
C1984 C 0.17453 0.50675 0.69724 0.0
C1985 C 0.19059 0.51408 0.69239 0.0
C1986 C 0.20455 0.51464 0.70397 0.0
H1987 H 0.20342 0.53898 0.76241 0.0
H1988 H 0.19576 0.53601 0.74068 0.0
H1989 H 0.18961 0.52108 0.75719 0.0
H1990 H 0.18507 0.49512 0.73811 0.0
H1991 H 0.16064 0.49411 0.71799 0.0
H1992 H 0.53494 0.28198 0.82002 0.0
H1993 H 0.53349 0.25933 0.79833 0.0
H1994 H 0.47866 0.26961 0.79088 0.0
H1995 H 0.47992 0.29228 0.8126 0.0
H1996 H 0.48778 0.23398 0.79553 0.0
H1997 H 0.52788 0.26626 0.74557 0.0
H1998 H 0.53747 0.26544 0.76663 0.0
H1999 H 0.51796 0.27777 0.76318 0.0
C2000 C 0.52258 0.27948 0.81374 0.0
C2001 C 0.50756 0.28897 0.81799 0.0
C2002 C 0.52181 0.26659 0.8013 0.0
C2003 C 0.50602 0.26297 0.7929 0.0
C2004 C 0.49098 0.27231 0.79719 0.0
H2005 H 0.48918 0.19918 0.703 0.0
H2006 H 0.48979 0.22256 0.72399 0.0
C2007 C 0.49174 0.28526 0.80957 0.0
C2008 C 0.50511 0.24915 0.77993 0.0
H2009 H 0.52034 0.23716 0.74054 0.0
C2010 C 0.49485 0.23466 0.78348 0.0
C2011 C 0.51423 0.25022 0.76419 0.0
C2012 C 0.52491 0.2658 0.75952 0.0
C2013 C 0.49372 0.22102 0.77178 0.0
C2014 C 0.5032 0.22189 0.75624 0.0
C2015 C 0.5132 0.23652 0.75255 0.0
C2016 C 0.50287 0.20773 0.74362 0.0
C2017 C 0.48227 0.20584 0.77604 0.0
C2018 C 0.51021 0.19175 0.74769 0.0
C2019 C 0.50995 0.17839 0.73574 0.0
C2020 C 0.50233 0.1808 0.71949 0.0
C2021 C 0.49509 0.19689 0.71542 0.0
C2022 C 0.49544 0.21026 0.72737 0.0
H2023 H 0.47298 0.20878 0.78659 0.0
H2024 H 0.47474 0.20166 0.76459 0.0
H2025 H 0.49062 0.19495 0.78018 0.0
H2026 H 0.51622 0.18965 0.7601 0.0
H2027 H 0.51567 0.16618 0.73926 0.0
H2028 H 0.79897 0.49724 0.67847 0.0
H2029 H 0.77421 0.49787 0.6984 0.0
H2030 H 0.80969 0.50508 0.74079 0.0
H2031 H 0.83441 0.50469 0.72105 0.0
H2032 H 0.76762 0.47605 0.72582 0.0
H2033 H 0.7739 0.54323 0.74818 0.0
H2034 H 0.78482 0.53536 0.7292 0.0
H2035 H 0.79391 0.53137 0.75012 0.0
C2036 C 0.80149 0.4991 0.69202 0.0
C2037 C 0.81866 0.501 0.69816 0.0
C2038 C 0.78733 0.49944 0.70337 0.0
C2039 C 0.79011 0.50181 0.72102 0.0
C2040 C 0.80723 0.50364 0.72717 0.0
H2041 H 0.73047 0.47411 0.80939 0.0
H2042 H 0.7497 0.4756 0.78445 0.0
C2043 C 0.82136 0.50331 0.71586 0.0
C2044 C 0.77525 0.50162 0.73319 0.0
H2045 H 0.75638 0.52457 0.76555 0.0
C2046 C 0.765 0.48673 0.73437 0.0
C2047 C 0.77168 0.51567 0.74414 0.0
C2048 C 0.78154 0.53238 0.74275 0.0
C2049 C 0.75178 0.48523 0.74677 0.0
C2050 C 0.74898 0.49886 0.75844 0.0
C2051 C 0.75868 0.51405 0.75672 0.0
C2052 C 0.73662 0.4974 0.77299 0.0
C2053 C 0.74101 0.46903 0.7473 0.0
C2054 C 0.72305 0.50936 0.775 0.0
C2055 C 0.71211 0.50863 0.78934 0.0
C2056 C 0.71462 0.49599 0.802 0.0
C2057 C 0.72812 0.48395 0.79985 0.0
C2058 C 0.73906 0.4847 0.78553 0.0
H2059 H 0.74097 0.46241 0.73466 0.0
H2060 H 0.74671 0.46009 0.75687 0.0
H2061 H 0.7273 0.47178 0.75107 0.0
H2062 H 0.72103 0.51933 0.76552 0.0
H2063 H 0.70184 0.51812 0.79062 0.0
H2064 H 0.47946 0.18202 0.29188 0.0
H2065 H 0.4768 0.20395 0.26958 0.0
H2066 H 0.53093 0.19671 0.25604 0.0
H2067 H 0.5338 0.17488 0.27841 0.0
H2068 H 0.52079 0.23148 0.25931 0.0
H2069 H 0.47548 0.19467 0.21748 0.0
H2070 H 0.46852 0.19688 0.2394 0.0
H2071 H 0.48787 0.18476 0.23453 0.0
C2072 C 0.49081 0.18507 0.28416 0.0
C2073 C 0.50683 0.17665 0.28687 0.0
C2074 C 0.48923 0.19755 0.27137 0.0
C2075 C 0.5036 0.20177 0.26103 0.0
C2076 C 0.51967 0.19357 0.26386 0.0
H2077 H 0.50584 0.25647 0.16474 0.0
H2078 H 0.50793 0.23561 0.18805 0.0
C2079 C 0.52126 0.18108 0.27662 0.0
C2080 C 0.50196 0.21482 0.24733 0.0
H2081 H 0.48117 0.22347 0.20955 0.0
C2082 C 0.51213 0.22977 0.24843 0.0
C2083 C 0.49079 0.21241 0.23308 0.0
C2084 C 0.48014 0.19626 0.23089 0.0
C2085 C 0.51132 0.24246 0.23568 0.0
C2086 C 0.49988 0.24021 0.2216 0.0
C2087 C 0.48981 0.22521 0.22045 0.0
C2088 C 0.49857 0.25301 0.20763 0.0
C2089 C 0.52298 0.25801 0.23718 0.0
C2090 C 0.49245 0.26967 0.21091 0.0
C2091 C 0.49125 0.28166 0.19761 0.0
C2092 C 0.49608 0.27715 0.18079 0.0
C2093 C 0.50205 0.26039 0.17755 0.0
C2094 C 0.50324 0.24843 0.19084 0.0
H2095 H 0.53376 0.25593 0.2465 0.0
H2096 H 0.52872 0.26139 0.22453 0.0
H2097 H 0.51512 0.2691 0.24167 0.0
H2098 H 0.48849 0.27336 0.22374 0.0
H2099 H 0.48651 0.29443 0.20052 0.0
H2100 H 0.80306 0.46916 0.31545 0.0
H2101 H 0.77733 0.46748 0.29679 0.0
H2102 H 0.80038 0.5046 0.26259 0.0
H2103 H 0.82609 0.50642 0.2811 0.0
H2104 H 0.7637 0.51028 0.2717 0.0
H2105 H 0.77804 0.44427 0.24813 0.0
H2106 H 0.77789 0.44744 0.27101 0.0
H2107 H 0.79444 0.45754 0.25822 0.0
C2108 C 0.80263 0.477 0.30399 0.0
C2109 C 0.81667 0.48784 0.2997 0.0
C2110 C 0.78796 0.47598 0.29334 0.0
C2111 C 0.78708 0.4858 0.27828 0.0
C2112 C 0.80087 0.4969 0.27416 0.0
H2113 H 0.7283 0.48142 0.18539 0.0
H2114 H 0.75004 0.48176 0.20834 0.0
C2115 C 0.81556 0.49787 0.28473 0.0
C2116 C 0.77197 0.48439 0.26655 0.0
H2117 H 0.75282 0.45777 0.23729 0.0
C2118 C 0.76118 0.49877 0.26428 0.0
C2119 C 0.7689 0.46938 0.25683 0.0
C2120 C 0.78045 0.45377 0.2585 0.0
C2121 C 0.74745 0.49859 0.25234 0.0
C2122 C 0.74447 0.48362 0.24253 0.0
C2123 C 0.75512 0.46917 0.24495 0.0
C2124 C 0.73108 0.48309 0.22887 0.0
C2125 C 0.73659 0.51456 0.24986 0.0
C2126 C 0.71323 0.48356 0.23288 0.0
C2127 C 0.70072 0.48331 0.21978 0.0
C2128 C 0.70592 0.48265 0.20248 0.0
C2129 C 0.72385 0.48202 0.19857 0.0
C2130 C 0.7363 0.48217 0.21165 0.0
H2131 H 0.74229 0.52584 0.25655 0.0
H2132 H 0.73532 0.5176 0.23599 0.0
H2133 H 0.72327 0.51234 0.25502 0.0
H2134 H 0.70898 0.4841 0.24613 0.0
H2135 H 0.68702 0.48377 0.22322 0.0
H2136 H 0.49671 0.70031 0.19018 0.0
H2137 H 0.49211 0.72267 0.21179 0.0
H2138 H 0.52548 0.75697 0.18335 0.0
H2139 H 0.53021 0.73473 0.16167 0.0
H2140 H 0.51921 0.74078 0.23149 0.0
H2141 H 0.47861 0.78382 0.19089 0.0
H2142 H 0.4818 0.76138 0.18597 0.0
H2143 H 0.49878 0.77663 0.18147 0.0
C2144 C 0.50307 0.71261 0.1885 0.0
C2145 C 0.5138 0.71576 0.17418 0.0
C2146 C 0.50043 0.72534 0.20087 0.0
C2147 C 0.5083 0.74148 0.19903 0.0
C2148 C 0.51911 0.74464 0.18485 0.0
H2149 H 0.50966 0.83673 0.2551 0.0
H2150 H 0.5127 0.81341 0.23438 0.0
C2151 C 0.52185 0.73189 0.17253 0.0
C2152 C 0.50541 0.75497 0.21207 0.0
H2153 H 0.48753 0.79465 0.21789 0.0
C2154 C 0.5122 0.75253 0.2286 0.0
C2155 C 0.49629 0.77024 0.20816 0.0
C2156 C 0.48831 0.77321 0.19071 0.0
C2157 C 0.51052 0.76523 0.24128 0.0
C2158 C 0.50143 0.78056 0.23737 0.0
C2159 C 0.49448 0.78288 0.22085 0.0
C2160 C 0.49939 0.79459 0.25006 0.0
C2161 C 0.51896 0.76233 0.25854 0.0
C2162 C 0.49069 0.7918 0.26567 0.0
C2163 C 0.48901 0.80509 0.27761 0.0
C2164 C 0.49585 0.82146 0.27406 0.0
C2165 C 0.50426 0.82428 0.25827 0.0
C2166 C 0.50601 0.81097 0.24639 0.0
H2167 H 0.52912 0.75216 0.25798 0.0
H2168 H 0.52505 0.77431 0.26342 0.0
H2169 H 0.50886 0.7582 0.26787 0.0
H2170 H 0.48513 0.77936 0.26859 0.0
H2171 H 0.48234 0.80255 0.28961 0.0
H2172 H 0.27706 0.5219 0.19419 0.0
H2173 H 0.25438 0.52378 0.21615 0.0
H2174 H 0.26873 0.47364 0.2349 0.0
H2175 H 0.29172 0.47177 0.21317 0.0
H2176 H 0.22631 0.50279 0.21987 0.0
H2177 H 0.26671 0.5016 0.27896 0.0
H2178 H 0.27588 0.50548 0.25797 0.0
H2179 H 0.27088 0.48396 0.26471 0.0
C2180 C 0.27552 0.51132 0.20308 0.0
C2181 C 0.28622 0.49669 0.20194 0.0
C2182 C 0.26255 0.51242 0.21562 0.0
C2183 C 0.26002 0.49895 0.2273 0.0
C2184 C 0.27071 0.48435 0.22627 0.0
H2185 H 0.16468 0.4793 0.28369 0.0
H2186 H 0.18998 0.47821 0.26464 0.0
C2187 C 0.28377 0.48326 0.21376 0.0
C2188 C 0.24551 0.49982 0.23987 0.0
H2189 H 0.23598 0.49821 0.28267 0.0
C2190 C 0.22844 0.50186 0.23361 0.0
C2191 C 0.24833 0.49881 0.25779 0.0
C2192 C 0.26645 0.49751 0.2653 0.0
C2193 C 0.21408 0.50265 0.24475 0.0
C2194 C 0.21683 0.501 0.26262 0.0
C2195 C 0.23392 0.49928 0.26894 0.0
C2196 C 0.20208 0.5011 0.27491 0.0
C2197 C 0.19611 0.5055 0.23728 0.0
C2198 C 0.20083 0.51399 0.28743 0.0
C2199 C 0.18642 0.51459 0.29846 0.0
C2200 C 0.17305 0.50228 0.29716 0.0
C2201 C 0.17465 0.48908 0.28493 0.0
C2202 C 0.18906 0.48847 0.27397 0.0
H2203 H 0.19678 0.51105 0.22415 0.0
H2204 H 0.1892 0.49302 0.23641 0.0
H2205 H 0.18826 0.51421 0.24552 0.0
H2206 H 0.21081 0.5238 0.28842 0.0
H2207 H 0.18562 0.52488 0.30778 0.0
H2208 H 0.8255 0.72334 0.46228 0.0
H2209 H 0.79863 0.74022 0.46402 0.0
H2210 H 0.78516 0.71493 0.51143 0.0
H2211 H 0.81215 0.69816 0.50996 0.0
H2212 H 0.76373 0.72989 0.46554 0.0
H2213 H 0.78324 0.76593 0.52405 0.0
H2214 H 0.79856 0.75344 0.51164 0.0
H2215 H 0.78375 0.74298 0.52616 0.0
C2216 C 0.81683 0.72134 0.47308 0.0
C2217 C 0.82104 0.70952 0.48606 0.0
C2218 C 0.80146 0.73097 0.47403 0.0
C2219 C 0.79005 0.72899 0.48797 0.0
C2220 C 0.79397 0.71688 0.50073 0.0
H2221 H 0.68517 0.77469 0.4909 0.0
H2222 H 0.70937 0.75409 0.49105 0.0
C2223 C 0.80937 0.70727 0.49982 0.0
C2224 C 0.77418 0.73981 0.48919 0.0
H2225 H 0.75489 0.77111 0.51329 0.0
C2226 C 0.76172 0.73886 0.47601 0.0
C2227 C 0.77174 0.7516 0.50279 0.0
C2228 C 0.78508 0.75372 0.5169 0.0
C2229 C 0.74691 0.7495 0.47598 0.0
C2230 C 0.74441 0.76119 0.48965 0.0
C2231 C 0.75679 0.76202 0.50291 0.0
C2232 C 0.72962 0.77345 0.48993 0.0
C2233 C 0.73441 0.74855 0.46104 0.0
C2234 C 0.73299 0.79113 0.48969 0.0
C2235 C 0.71925 0.8029 0.48975 0.0
C2236 C 0.70181 0.79722 0.49008 0.0
C2237 C 0.69845 0.77948 0.49054 0.0
C2238 C 0.71225 0.76769 0.49053 0.0
H2239 H 0.74021 0.74175 0.44988 0.0
H2240 H 0.72251 0.74145 0.46502 0.0
H2241 H 0.73037 0.76159 0.45689 0.0
H2242 H 0.74631 0.79584 0.48927 0.0
H2243 H 0.72233 0.81646 0.48941 0.0
H2244 H 0.71524 0.1922 0.52188 0.0
H2245 H 0.73738 0.21459 0.52501 0.0
H2246 H 0.73878 0.22117 0.4701 0.0
H2247 H 0.7166 0.19877 0.46678 0.0
H2248 H 0.77158 0.21264 0.50894 0.0
H2249 H 0.7343 0.27091 0.48995 0.0
H2250 H 0.72374 0.2514 0.49698 0.0
H2251 H 0.73272 0.25277 0.47575 0.0
C2252 C 0.72008 0.19853 0.51046 0.0
C2253 C 0.71418 0.19367 0.49406 0.0
C2254 C 0.73274 0.21131 0.51229 0.0
C2255 C 0.73957 0.2196 0.4978 0.0
C2256 C 0.73346 0.21507 0.48144 0.0
H2257 H 0.82215 0.29419 0.48211 0.0
H2258 H 0.79722 0.27476 0.47909 0.0
C2259 C 0.72086 0.20222 0.47958 0.0
C2260 C 0.75396 0.2321 0.49977 0.0
H2261 H 0.7647 0.27428 0.49447 0.0
C2262 C 0.77009 0.22614 0.50586 0.0
C2263 C 0.75194 0.24963 0.49558 0.0
C2264 C 0.73472 0.25667 0.48931 0.0
C2265 C 0.7844 0.23722 0.5077 0.0
C2266 C 0.78235 0.25484 0.50373 0.0
C2267 C 0.76621 0.26079 0.49756 0.0
C2268 C 0.79689 0.26722 0.50581 0.0
C2269 C 0.80169 0.22986 0.51343 0.0
C2270 C 0.80469 0.26972 0.52192 0.0
C2271 C 0.819 0.2807 0.52367 0.0
C2272 C 0.82564 0.28956 0.50937 0.0
C2273 C 0.81739 0.28751 0.49337 0.0
C2274 C 0.80314 0.27643 0.49161 0.0
H2275 H 0.80233 0.21577 0.5113 0.0
H2276 H 0.81274 0.23599 0.50653 0.0
H2277 H 0.80338 0.23223 0.52737 0.0
H2278 H 0.79979 0.26305 0.53312 0.0
H2279 H 0.82493 0.28213 0.53621 0.0
H2280 H 0.30265 0.77205 0.50052 0.0
H2281 H 0.27955 0.75029 0.49987 0.0
H2282 H 0.24053 0.79004 0.50369 0.0
H2283 H 0.26341 0.81183 0.50411 0.0
H2284 H 0.25412 0.74344 0.52437 0.0
H2285 H 0.22373 0.76207 0.4626 0.0
H2286 H 0.2451 0.76947 0.46904 0.0
H2287 H 0.22576 0.77973 0.47725 0.0
C2288 C 0.28914 0.77616 0.50111 0.0
C2289 C 0.28487 0.79368 0.50227 0.0
C2290 C 0.27598 0.76371 0.50075 0.0
C2291 C 0.25834 0.76858 0.50144 0.0
C2292 C 0.25405 0.78603 0.50274 0.0
H2293 H 0.16603 0.71503 0.53246 0.0
H2294 H 0.19305 0.73155 0.53039 0.0
C2295 C 0.26717 0.79847 0.50308 0.0
C2296 C 0.24434 0.75546 0.5014 0.0
H2297 H 0.20677 0.74383 0.48087 0.0
C2298 C 0.24386 0.74338 0.51476 0.0
C2299 C 0.23113 0.75523 0.4887 0.0
C2300 C 0.23151 0.76721 0.47349 0.0
C2301 C 0.2301 0.73155 0.51616 0.0
C2302 C 0.21636 0.73203 0.50403 0.0
C2303 C 0.21723 0.74361 0.49027 0.0
C2304 C 0.20058 0.72114 0.50572 0.0
C2305 C 0.23038 0.71869 0.53062 0.0
C2306 C 0.19571 0.70999 0.49242 0.0
C2307 C 0.18018 0.7006 0.49351 0.0
C2308 C 0.16919 0.70231 0.50788 0.0
C2309 C 0.17422 0.71336 0.52126 0.0
C2310 C 0.18974 0.72273 0.52015 0.0
H2311 H 0.24387 0.71655 0.53546 0.0
H2312 H 0.22239 0.72364 0.54143 0.0
H2313 H 0.22484 0.70618 0.5265 0.0
H2314 H 0.20385 0.70867 0.48112 0.0
H2315 H 0.17667 0.69223 0.48296 0.0
H2316 H 0.19154 0.30794 0.46953 0.0
H2317 H 0.21696 0.28882 0.47036 0.0
H2318 H 0.19302 0.2597 0.5111 0.0
H2319 H 0.16766 0.27871 0.51047 0.0
H2320 H 0.22919 0.26821 0.51643 0.0
H2321 H 0.21643 0.23839 0.45273 0.0
H2322 H 0.21732 0.26145 0.45325 0.0
H2323 H 0.20001 0.25044 0.4642 0.0
C2324 C 0.1917 0.29749 0.47869 0.0
C2325 C 0.17753 0.29479 0.48986 0.0
C2326 C 0.2062 0.28656 0.47909 0.0
C2327 C 0.20674 0.27278 0.49067 0.0
C2328 C 0.1928 0.27026 0.50205 0.0
H2329 H 0.26552 0.17947 0.49453 0.0
H2330 H 0.24369 0.20227 0.49285 0.0
C2331 C 0.1783 0.28112 0.50163 0.0
C2332 C 0.2217 0.26075 0.49087 0.0
H2333 H 0.24147 0.22907 0.46766 0.0
C2334 C 0.23199 0.25973 0.50574 0.0
C2335 C 0.22515 0.24963 0.47693 0.0
C2336 C 0.21411 0.24986 0.46089 0.0
C2337 C 0.24559 0.24772 0.50711 0.0
C2338 C 0.24901 0.23658 0.49319 0.0
C2339 C 0.23884 0.23773 0.47826 0.0
C2340 C 0.26245 0.22298 0.49423 0.0
C2341 C 0.25582 0.24663 0.52363 0.0
C2342 C 0.28025 0.22711 0.49545 0.0
C2343 C 0.2928 0.21409 0.49641 0.0
C2344 C 0.28774 0.19674 0.49614 0.0
C2345 C 0.26988 0.19269 0.49483 0.0
C2346 C 0.25737 0.2057 0.49382 0.0
H2347 H 0.24945 0.25389 0.53419 0.0
H2348 H 0.25739 0.23306 0.52769 0.0
H2349 H 0.26905 0.25208 0.52159 0.0
H2350 H 0.28442 0.24039 0.49555 0.0
H2351 H 0.30645 0.21763 0.49734 0.0
H2352 H 0.03339 0.36456 0.11871 0.0
H2353 H 0.05925 0.36322 0.10041 0.0
H2354 H 0.08149 0.32439 0.13325 0.0
H2355 H 0.0555 0.32544 0.15155 0.0
H2356 H 0.09409 0.36945 0.10926 0.0
H2357 H 0.08487 0.30275 0.08545 0.0
H2358 H 0.06772 0.31452 0.09615 0.0
H2359 H 0.08519 0.30515 0.10838 0.0
C2360 C 0.04373 0.35566 0.12203 0.0
C2361 C 0.04234 0.34504 0.13655 0.0
C2362 C 0.05852 0.35495 0.11157 0.0
C2363 C 0.07218 0.34357 0.11537 0.0
C2364 C 0.07094 0.33304 0.12992 0.0
H2365 H 0.16761 0.32418 0.05619 0.0
H2366 H 0.1462 0.32492 0.07957 0.0
C2367 C 0.05611 0.33371 0.1404 0.0
C2368 C 0.08777 0.34301 0.10412 0.0
H2369 H 0.11012 0.31738 0.07617 0.0
C2370 C 0.09765 0.35805 0.10208 0.0
C2371 C 0.09243 0.32808 0.09485 0.0
C2372 C 0.08195 0.31172 0.09615 0.0
C2373 C 0.11194 0.35863 0.09082 0.0
C2374 C 0.11628 0.34386 0.08119 0.0
C2375 C 0.10675 0.32867 0.08361 0.0
C2376 C 0.12987 0.34421 0.06769 0.0
C2377 C 0.12223 0.37507 0.08928 0.0
C2378 C 0.12773 0.3548 0.05329 0.0
C2379 C 0.13986 0.35439 0.03993 0.0
C2380 C 0.15436 0.34332 0.04067 0.0
C2381 C 0.15662 0.3329 0.05525 0.0
C2382 C 0.14441 0.33327 0.0686 0.0
H2383 H 0.12056 0.38334 0.10078 0.0
H2384 H 0.13637 0.3724 0.08748 0.0
H2385 H 0.11752 0.38236 0.07795 0.0
H2386 H 0.11642 0.36309 0.05219 0.0
H2387 H 0.13769 0.36255 0.02888 0.0
H2388 H 0.61776 0.07268 0.16875 0.0
H2389 H 0.61843 0.09702 0.14891 0.0
H2390 H 0.63129 0.06287 0.10724 0.0
H2391 H 0.63079 0.03846 0.12695 0.0
H2392 H 0.65217 0.09319 0.10909 0.0
H2393 H 0.58094 0.10718 0.11185 0.0
H2394 H 0.592 0.106 0.13218 0.0
H2395 H 0.59009 0.0871 0.11913 0.0
C2396 C 0.62074 0.07033 0.15536 0.0
C2397 C 0.62414 0.05362 0.14941 0.0
C2398 C 0.62103 0.08425 0.14405 0.0
C2399 C 0.62469 0.08168 0.1266 0.0
C2400 C 0.62837 0.06508 0.12067 0.0
H2401 H 0.60893 0.14195 0.03624 0.0
H2402 H 0.60815 0.12141 0.0599 0.0
C2403 C 0.62804 0.05115 0.13195 0.0
C2404 C 0.62477 0.09627 0.11446 0.0
H2405 H 0.59833 0.12587 0.09522 0.0
C2406 C 0.64044 0.10042 0.10611 0.0
C2407 C 0.60939 0.10555 0.11056 0.0
C2408 C 0.59209 0.10121 0.11877 0.0
C2409 C 0.64113 0.11355 0.09381 0.0
C2410 C 0.62576 0.12285 0.08993 0.0
C2411 C 0.61011 0.11879 0.09838 0.0
C2412 C 0.62544 0.13603 0.07628 0.0
C2413 C 0.65814 0.11701 0.08464 0.0
C2414 C 0.63511 0.15124 0.07785 0.0
C2415 C 0.63558 0.16305 0.06434 0.0
C2416 C 0.62638 0.15981 0.04905 0.0
C2417 C 0.61624 0.14481 0.0478 0.0
C2418 C 0.61574 0.13306 0.06131 0.0
H2419 H 0.66786 0.10664 0.08681 0.0
H2420 H 0.65595 0.11837 0.07062 0.0
H2421 H 0.66379 0.12922 0.08943 0.0
H2422 H 0.64248 0.15384 0.08943 0.0
H2423 H 0.64347 0.17451 0.06574 0.0
H2424 H 0.96461 0.66206 0.12912 0.0
H2425 H 0.94292 0.6642 0.10625 0.0
H2426 H 0.90883 0.62998 0.13401 0.0
H2427 H 0.93034 0.62802 0.15717 0.0
H2428 H 0.93038 0.63796 0.08628 0.0
H2429 H 0.87608 0.66929 0.12178 0.0
H2430 H 0.89809 0.66837 0.13007 0.0
H2431 H 0.88409 0.6499 0.13143 0.0
C2432 C 0.95244 0.6551 0.13046 0.0
C2433 C 0.94919 0.64489 0.14499 0.0
C2434 C 0.94006 0.65633 0.11736 0.0
C2435 C 0.92418 0.64742 0.11852 0.0
C2436 C 0.92084 0.63726 0.13303 0.0
H2437 H 0.83979 0.63662 0.04349 0.0
H2438 H 0.8588 0.63311 0.06861 0.0
C2439 C 0.9332 0.63608 0.1462 0.0
C2440 C 0.91156 0.64819 0.10412 0.0
H2441 H 0.87006 0.66024 0.09334 0.0
C2442 C 0.9172 0.64284 0.08783 0.0
C2443 C 0.89434 0.65448 0.10621 0.0
C2444 C 0.88779 0.66098 0.12327 0.0
C2445 C 0.90611 0.6437 0.07354 0.0
C2446 C 0.88901 0.6502 0.07558 0.0
C2447 C 0.88321 0.65523 0.09189 0.0
C2448 C 0.87727 0.65256 0.06071 0.0
C2449 C 0.91275 0.63762 0.05634 0.0
C2450 C 0.88129 0.66483 0.04818 0.0
C2451 C 0.87049 0.66692 0.0339 0.0
C2452 C 0.85545 0.65675 0.0319 0.0
C2453 C 0.85132 0.64461 0.04463 0.0
C2454 C 0.86212 0.6426 0.05898 0.0
H2455 H 0.92459 0.62947 0.05765 0.0
H2456 H 0.90252 0.63021 0.04946 0.0
H2457 H 0.91618 0.64891 0.04836 0.0
H2458 H 0.89284 0.67278 0.04943 0.0
H2459 H 0.87403 0.67643 0.02438 0.0
H2460 H 0.33159 0.85284 0.04973 0.0
H2461 H 0.33406 0.87399 0.07275 0.0
H2462 H 0.38994 0.87547 0.06584 0.0
H2463 H 0.38766 0.85409 0.04292 0.0
H2464 H 0.37963 0.87483 0.10039 0.0
H2465 H 0.34399 0.92487 0.06368 0.0
H2466 H 0.3322 0.90508 0.06602 0.0
H2467 H 0.35215 0.9055 0.05384 0.0
C2468 C 0.34443 0.85757 0.05315 0.0
C2469 C 0.35942 0.85189 0.04437 0.0
C2470 C 0.3458 0.86972 0.06626 0.0
C2471 C 0.36214 0.87652 0.07075 0.0
C2472 C 0.37719 0.87044 0.06247 0.0
H2473 H 0.38035 0.97116 0.12613 0.0
H2474 H 0.37914 0.94795 0.10509 0.0
C2475 C 0.37586 0.85824 0.04937 0.0
C2476 C 0.36347 0.89025 0.08384 0.0
H2477 H 0.35042 0.93117 0.09277 0.0
C2478 C 0.37328 0.88717 0.09874 0.0
C2479 C 0.35538 0.9064 0.0815 0.0
C2480 C 0.34547 0.91078 0.06533 0.0
C2481 C 0.37499 0.89977 0.11153 0.0
C2482 C 0.36643 0.91573 0.10943 0.0
C2483 C 0.35683 0.91886 0.09442 0.0
C2484 C 0.36752 0.92954 0.12247 0.0
C2485 C 0.38622 0.89599 0.12699 0.0
C2486 C 0.36125 0.92693 0.13919 0.0
C2487 C 0.36198 0.94017 0.15129 0.0
C2488 C 0.36884 0.9563 0.14682 0.0
C2489 C 0.37499 0.95889 0.13001 0.0
C2490 C 0.37431 0.94564 0.11796 0.0
H2491 H 0.39543 0.88524 0.12453 0.0
H2492 H 0.39386 0.90748 0.13086 0.0
H2493 H 0.37772 0.89227 0.1379 0.0
H2494 H 0.35559 0.91473 0.14283 0.0
H2495 H 0.35704 0.93779 0.16409 0.0
H2496 H 0.02807 0.62124 0.8868 0.0
H2497 H 0.05339 0.62123 0.90586 0.0
H2498 H 0.0832 0.64902 0.86802 0.0
H2499 H 0.05783 0.6492 0.84881 0.0
H2500 H 0.08772 0.60772 0.89889 0.0
H2501 H 0.0881 0.67787 0.91269 0.0
H2502 H 0.06929 0.66712 0.90372 0.0
H2503 H 0.08793 0.67157 0.89048 0.0
C2504 C 0.03998 0.62739 0.8825 0.0
C2505 C 0.0409 0.63529 0.86631 0.0
C2506 C 0.05445 0.62734 0.8934 0.0
C2507 C 0.07008 0.63526 0.8884 0.0
C2508 C 0.07115 0.64304 0.8722 0.0
H2509 H 0.16297 0.64917 0.95329 0.0
H2510 H 0.14369 0.64885 0.92814 0.0
C2511 C 0.05667 0.64307 0.86123 0.0
C2512 C 0.08518 0.6352 0.90025 0.0
H2513 H 0.10935 0.66101 0.92651 0.0
C2514 C 0.09257 0.61938 0.90483 0.0
C2515 C 0.09153 0.65046 0.90785 0.0
C2516 C 0.08379 0.66775 0.90358 0.0
C2517 C 0.1059 0.61834 0.91714 0.0
C2518 C 0.11172 0.63351 0.9253 0.0
C2519 C 0.10483 0.64941 0.92023 0.0
C2520 C 0.1239 0.63302 0.94007 0.0
C2521 C 0.11353 0.601 0.92138 0.0
C2522 C 0.11908 0.62433 0.9551 0.0
C2523 C 0.13001 0.62449 0.96943 0.0
C2524 C 0.14594 0.63345 0.96907 0.0
C2525 C 0.15081 0.64209 0.95396 0.0
C2526 C 0.13982 0.64194 0.93959 0.0
H2527 H 0.11184 0.59182 0.91059 0.0
H2528 H 0.12766 0.60198 0.92447 0.0
H2529 H 0.10667 0.59565 0.93273 0.0
H2530 H 0.10668 0.61769 0.95588 0.0
H2531 H 0.12581 0.61777 0.98088 0.0
H2532 H 0.38137 0.03627 0.86664 0.0
H2533 H 0.38318 0.06009 0.88696 0.0
H2534 H 0.35449 0.09236 0.85196 0.0
H2535 H 0.35261 0.06858 0.83142 0.0
H2536 H 0.39778 0.09501 0.87936 0.0
H2537 H 0.32796 0.09442 0.8997 0.0
H2538 H 0.33828 0.07596 0.89 0.0
H2539 H 0.33264 0.09415 0.87705 0.0
C2540 C 0.37538 0.0484 0.86324 0.0
C2541 C 0.3668 0.05052 0.84742 0.0
C2542 C 0.37648 0.062 0.87486 0.0
C2543 C 0.36889 0.07789 0.87096 0.0
C2544 C 0.3603 0.08011 0.85521 0.0
H2545 H 0.35826 0.16589 0.94001 0.0
H2546 H 0.35716 0.14772 0.91439 0.0
C2547 C 0.35928 0.06653 0.84351 0.0
C2548 C 0.37012 0.09211 0.88344 0.0
H2549 H 0.34642 0.11453 0.91297 0.0
C2550 C 0.38655 0.0994 0.88664 0.0
C2551 C 0.35541 0.09784 0.89275 0.0
C2552 C 0.33754 0.09019 0.88986 0.0
C2553 C 0.38872 0.11215 0.89918 0.0
C2554 C 0.37413 0.1174 0.90903 0.0
C2555 C 0.35759 0.11047 0.90542 0.0
C2556 C 0.37589 0.12919 0.92386 0.0
C2557 C 0.40661 0.11989 0.90171 0.0
C2558 C 0.3868 0.12481 0.93765 0.0
C2559 C 0.38753 0.13518 0.95224 0.0
C2560 C 0.37718 0.15005 0.95342 0.0
C2561 C 0.36642 0.15455 0.93949 0.0
C2562 C 0.36576 0.14417 0.92485 0.0
H2563 H 0.41462 0.11889 0.88986 0.0
H2564 H 0.40573 0.1336 0.9055 0.0
H2565 H 0.41352 0.11279 0.91202 0.0
H2566 H 0.39439 0.11308 0.93736 0.0
H2567 H 0.39586 0.13128 0.96277 0.0
H2568 H 0.83755 0.35496 0.95432 0.0
H2569 H 0.85638 0.35818 0.9291 0.0
H2570 H 0.89499 0.32547 0.9527 0.0
H2571 H 0.87615 0.32184 0.97765 0.0
H2572 H 0.88853 0.37182 0.92687 0.0
H2573 H 0.89116 0.30413 0.90581 0.0
H2574 H 0.87551 0.31169 0.9214 0.0
H2575 H 0.89745 0.30636 0.92786 0.0
C2576 C 0.84998 0.34833 0.95405 0.0
C2577 C 0.85531 0.33806 0.96795 0.0
C2578 C 0.86072 0.35019 0.93964 0.0
C2579 C 0.87695 0.34181 0.93887 0.0
C2580 C 0.88232 0.33166 0.95278 0.0
H2581 H 0.96951 0.36831 0.88315 0.0
H2582 H 0.94534 0.36542 0.90336 0.0
C2583 C 0.87157 0.3297 0.96711 0.0
C2584 C 0.88872 0.34432 0.92398 0.0
H2585 H 0.91374 0.32262 0.89493 0.0
C2586 C 0.89387 0.36108 0.91973 0.0
C2587 C 0.89544 0.33034 0.91445 0.0
C2588 C 0.88945 0.31214 0.91749 0.0
C2589 C 0.90616 0.36418 0.90673 0.0
C2590 C 0.91381 0.3501 0.89804 0.0
C2591 C 0.90807 0.3334 0.90176 0.0
C2592 C 0.92823 0.35232 0.88552 0.0
C2593 C 0.91078 0.38251 0.90243 0.0
C2594 C 0.92686 0.34548 0.86891 0.0
C2595 C 0.94079 0.34687 0.85739 0.0
C2596 C 0.95635 0.35514 0.86228 0.0
C2597 C 0.95766 0.362 0.87892 0.0
C2598 C 0.94378 0.36048 0.89046 0.0
H2599 H 0.89999 0.39142 0.90585 0.0
H2600 H 0.92246 0.38637 0.90992 0.0
H2601 H 0.91377 0.38402 0.88857 0.0
H2602 H 0.91502 0.33902 0.86487 0.0
H2603 H 0.93937 0.34144 0.84466 0.0
H2604 H 0.65144 0.88101 0.97425 0.0
H2605 H 0.65161 0.89932 0.9489 0.0
H2606 H 0.62258 0.86111 0.9208 0.0
H2607 H 0.62251 0.84246 0.94618 0.0
H2608 H 0.65106 0.87533 0.90238 0.0
H2609 H 0.60913 0.92587 0.93085 0.0
H2610 H 0.62767 0.92058 0.94393 0.0
H2611 H 0.61108 0.90469 0.94004 0.0
C2612 C 0.64505 0.87645 0.96271 0.0
C2613 C 0.63683 0.86032 0.96228 0.0
C2614 C 0.64511 0.88698 0.94825 0.0
C2615 C 0.63685 0.88168 0.9331 0.0
C2616 C 0.62893 0.86545 0.93244 0.0
H2617 H 0.61595 0.95502 0.85152 0.0
H2618 H 0.61322 0.93218 0.87278 0.0
C2619 C 0.62887 0.85485 0.94695 0.0
C2620 C 0.63663 0.89319 0.918 0.0
H2621 H 0.62457 0.93338 0.90534 0.0
C2622 C 0.64513 0.88797 0.90292 0.0
C2623 C 0.62865 0.90955 0.91869 0.0
C2624 C 0.61846 0.91547 0.93418 0.0
C2625 C 0.64641 0.89896 0.88869 0.0
C2626 C 0.63924 0.91567 0.88973 0.0
C2627 C 0.63022 0.92063 0.90461 0.0
C2628 C 0.64107 0.92839 0.87571 0.0
C2629 C 0.65534 0.89254 0.87266 0.0
C2630 C 0.65765 0.93381 0.87024 0.0
C2631 C 0.65927 0.94683 0.85799 0.0
C2632 C 0.64432 0.95481 0.85119 0.0
C2633 C 0.62774 0.94919 0.85655 0.0
C2634 C 0.62614 0.93612 0.86869 0.0
H2635 H 0.65534 0.8783 0.87205 0.0
H2636 H 0.64891 0.89763 0.86094 0.0
H2637 H 0.66914 0.8969 0.87269 0.0
H2638 H 0.66936 0.92832 0.87578 0.0
H2639 H 0.67223 0.95093 0.85419 0.0
H2640 H 0.15785 0.05566 0.35693 0.0
H2641 H 0.13567 0.07782 0.36091 0.0
H2642 H 0.12802 0.0805 0.30615 0.0
H2643 H 0.15005 0.05808 0.30201 0.0
H2644 H 0.13299 0.11144 0.34853 0.0
H2645 H 0.07902 0.07005 0.32474 0.0
H2646 H 0.10032 0.06165 0.33002 0.0
H2647 H 0.09692 0.07272 0.31007 0.0
C2648 C 0.15153 0.061 0.3457 0.0
C2649 C 0.15559 0.05497 0.32914 0.0
C2650 C 0.13888 0.07369 0.34801 0.0
C2651 C 0.13004 0.0806 0.33385 0.0
C2652 C 0.13449 0.07509 0.31726 0.0
H2653 H 0.05891 0.1682 0.33657 0.0
H2654 H 0.08422 0.14958 0.33194 0.0
C2655 C 0.14712 0.06233 0.31492 0.0
C2656 C 0.11578 0.09313 0.33661 0.0
H2657 H 0.0718 0.0986 0.33195 0.0
C2658 C 0.11961 0.1087 0.34486 0.0
C2659 C 0.09832 0.08935 0.33202 0.0
C2660 C 0.09329 0.07249 0.32386 0.0
C2661 C 0.10641 0.12064 0.34864 0.0
C2662 C 0.089 0.11695 0.34382 0.0
C2663 C 0.08519 0.1014 0.33555 0.0
C2664 C 0.07437 0.12879 0.34759 0.0
C2665 C 0.11111 0.13686 0.35814 0.0
C2666 C 0.06043 0.12324 0.35787 0.0
C2667 C 0.04592 0.13378 0.36046 0.0
C2668 C 0.04504 0.15007 0.35274 0.0
C2669 C 0.05921 0.15576 0.34276 0.0
C2670 C 0.07373 0.14517 0.34015 0.0
H2671 H 0.12409 0.13588 0.36443 0.0
H2672 H 0.11157 0.14771 0.34892 0.0
H2673 H 0.10115 0.13991 0.36805 0.0
H2674 H 0.06067 0.11061 0.36369 0.0
H2675 H 0.03524 0.129 0.36823 0.0
H2676 H 0.92346 0.1525 0.3476 0.0
H2677 H 0.90211 0.12909 0.34825 0.0
H2678 H 0.94079 0.09551 0.3704 0.0
H2679 H 0.96222 0.11877 0.36984 0.0
H2680 H 0.9064 0.09597 0.33174 0.0
H2681 H 0.89735 0.09073 0.40231 0.0
H2682 H 0.90635 0.10963 0.39219 0.0
H2683 H 0.91965 0.09086 0.39506 0.0
C2684 C 0.9274 0.14017 0.35272 0.0
C2685 C 0.94454 0.1375 0.35868 0.0
C2686 C 0.9152 0.12683 0.35307 0.0
C2687 C 0.91985 0.11068 0.35956 0.0
C2688 C 0.93689 0.10798 0.36559 0.0
H2689 H 0.8711 0.01138 0.36986 0.0
H2690 H 0.89 0.03665 0.37124 0.0
C2691 C 0.94913 0.12126 0.36516 0.0
C2692 C 0.90714 0.09639 0.35934 0.0
H2693 H 0.88484 0.0687 0.38524 0.0
C2694 C 0.90155 0.09007 0.34341 0.0
C2695 C 0.90098 0.08872 0.37461 0.0
C2696 C 0.90625 0.09538 0.39204 0.0
C2697 C 0.89026 0.07592 0.34233 0.0
C2698 C 0.88409 0.0682 0.35762 0.0
C2699 C 0.88958 0.07465 0.37355 0.0
C2700 C 0.87223 0.05318 0.35732 0.0
C2701 C 0.88553 0.06904 0.32482 0.0
C2702 C 0.85582 0.05421 0.34937 0.0
C2703 C 0.84504 0.03977 0.34845 0.0
C2704 C 0.8504 0.02408 0.35567 0.0
C2705 C 0.8666 0.02325 0.36414 0.0
C2706 C 0.87741 0.03768 0.36495 0.0
H2707 H 0.89488 0.07339 0.31482 0.0
H2708 H 0.88523 0.05479 0.32483 0.0
H2709 H 0.87235 0.07376 0.32122 0.0
H2710 H 0.85139 0.06616 0.34377 0.0
H2711 H 0.83257 0.04088 0.34197 0.0
H2712 H 0.8748 0.96473 0.3137 0.0
H2713 H 0.89564 0.94107 0.31638 0.0
H2714 H 0.85891 0.91323 0.34778 0.0
H2715 H 0.83809 0.93688 0.34539 0.0
H2716 H 0.89184 0.91464 0.36193 0.0
H2717 H 0.89516 0.89367 0.294 0.0
H2718 H 0.89916 0.91619 0.29687 0.0
H2719 H 0.87804 0.90747 0.30201 0.0
C2720 C 0.87107 0.9535 0.32103 0.0
C2721 C 0.85478 0.95269 0.32932 0.0
C2722 C 0.88297 0.93995 0.32247 0.0
C2723 C 0.87872 0.92531 0.3321 0.0
C2724 C 0.86241 0.92439 0.34023 0.0
H2725 H 0.94234 0.83227 0.33339 0.0
H2726 H 0.91785 0.85238 0.33139 0.0
C2727 C 0.85053 0.93792 0.33883 0.0
C2728 C 0.89166 0.91137 0.33448 0.0
H2729 H 0.91717 0.88275 0.31276 0.0
C2730 C 0.89728 0.90757 0.3512 0.0
C2731 C 0.89855 0.90201 0.32048 0.0
C2732 C 0.89231 0.90489 0.30234 0.0
C2733 C 0.91002 0.89498 0.35426 0.0
C2734 C 0.91751 0.88619 0.34019 0.0
C2735 C 0.9115 0.88962 0.32352 0.0
C2736 C 0.93196 0.87375 0.34242 0.0
C2737 C 0.91529 0.89118 0.37252 0.0
C2738 C 0.94798 0.87912 0.34932 0.0
C2739 C 0.96198 0.86768 0.35053 0.0
C2740 C 0.96025 0.85067 0.34472 0.0
C2741 C 0.9441 0.84527 0.33802 0.0
C2742 C 0.9301 0.85674 0.33682 0.0
H2743 H 0.90504 0.89521 0.38178 0.0
H2744 H 0.91793 0.87728 0.37434 0.0
H2745 H 0.92741 0.89837 0.37561 0.0
H2746 H 0.94981 0.89229 0.35341 0.0
H2747 H 0.97425 0.87229 0.35568 0.0
H2748 H 0.16852 0.96024 0.33474 0.0
H2749 H 0.14912 0.93521 0.33448 0.0
H2750 H 0.109 0.96484 0.35962 0.0
H2751 H 0.12816 0.98989 0.35987 0.0
H2752 H 0.13278 0.9185 0.36293 0.0
H2753 H 0.08445 0.94477 0.31681 0.0
H2754 H 0.10606 0.95372 0.31938 0.0
H2755 H 0.08911 0.95879 0.33453 0.0
C2756 C 0.15555 0.96144 0.34019 0.0
C2757 C 0.14985 0.97708 0.34726 0.0
C2758 C 0.14452 0.94713 0.34003 0.0
C2759 C 0.12757 0.94829 0.34679 0.0
C2760 C 0.12193 0.9638 0.35405 0.0
H2761 H 0.05391 0.87341 0.38185 0.0
H2762 H 0.07685 0.89494 0.37853 0.0
C2763 C 0.13294 0.97807 0.35426 0.0
C2764 C 0.11579 0.93326 0.34658 0.0
H2765 H 0.07588 0.91982 0.33242 0.0
C2766 C 0.12041 0.91869 0.35614 0.0
C2767 C 0.09979 0.93348 0.3375 0.0
C2768 C 0.09459 0.94846 0.32633 0.0
C2769 C 0.1091 0.90457 0.3574 0.0
C2770 C 0.09271 0.90517 0.34905 0.0
C2771 C 0.0884 0.91946 0.33894 0.0
C2772 C 0.07953 0.89143 0.35111 0.0
C2773 C 0.11477 0.88915 0.3677 0.0
C2774 C 0.07324 0.88251 0.33674 0.0
C2775 C 0.06005 0.87024 0.33857 0.0
C2776 C 0.05281 0.86681 0.35481 0.0
C2777 C 0.05924 0.87571 0.36918 0.0
C2778 C 0.07244 0.88794 0.36734 0.0
H2779 H 0.12921 0.88862 0.36912 0.0
H2780 H 0.10899 0.88994 0.38074 0.0
H2781 H 0.11023 0.87705 0.36163 0.0
H2782 H 0.07848 0.88513 0.32409 0.0
H2783 H 0.05538 0.86363 0.32724 0.0
H2784 H 0.06546 0.8175 0.64822 0.0
H2785 H 0.09023 0.83725 0.65127 0.0
H2786 H 0.05585 0.88027 0.6429 0.0
H2787 H 0.03109 0.86077 0.63981 0.0
H2788 H 0.10228 0.86412 0.62695 0.0
H2789 H 0.08065 0.88951 0.6901 0.0
H2790 H 0.07287 0.86938 0.68148 0.0
H2791 H 0.06419 0.88931 0.67364 0.0
C2792 C 0.06319 0.83115 0.64694 0.0
C2793 C 0.04629 0.83756 0.64388 0.0
C2794 C 0.07734 0.84239 0.64869 0.0
C2795 C 0.07475 0.86017 0.64757 0.0
C2796 C 0.05802 0.86657 0.64406 0.0
H2797 H 0.13219 0.95396 0.65535 0.0
H2798 H 0.11065 0.93092 0.65361 0.0
C2799 C 0.04391 0.85539 0.64223 0.0
C2800 C 0.08945 0.87218 0.65015 0.0
H2801 H 0.10364 0.9045 0.67619 0.0
C2802 C 0.10274 0.87285 0.63778 0.0
C2803 C 0.08991 0.8835 0.66431 0.0
C2804 C 0.07624 0.88286 0.67825 0.0
C2805 C 0.11618 0.88508 0.63885 0.0
C2806 C 0.11645 0.89664 0.65287 0.0
C2807 C 0.10337 0.89565 0.66545 0.0
C2808 C 0.1297 0.91041 0.65433 0.0
C2809 C 0.12952 0.88596 0.62463 0.0
C2810 C 0.14755 0.9065 0.65563 0.0
C2811 C 0.15994 0.91966 0.65656 0.0
C2812 C 0.15465 0.93695 0.65636 0.0
C2813 C 0.13672 0.94079 0.65551 0.0
C2814 C 0.12438 0.92764 0.65451 0.0
H2815 H 0.12511 0.879 0.61296 0.0
H2816 H 0.13234 0.89949 0.6211 0.0
H2817 H 0.14188 0.87997 0.62906 0.0
H2818 H 0.15191 0.89328 0.65591 0.0
H2819 H 0.17364 0.91628 0.65732 0.0
H2820 H 0.15591 0.03699 0.66231 0.0
H2821 H 0.13589 0.0615 0.66168 0.0
H2822 H 0.11188 0.04152 0.61577 0.0
H2823 H 0.13191 0.0171 0.61616 0.0
H2824 H 0.11888 0.07739 0.61489 0.0
H2825 H 0.08362 0.05784 0.67419 0.0
H2826 H 0.10692 0.05989 0.67616 0.0
H2827 H 0.0979 0.04344 0.66267 0.0
C2828 C 0.14643 0.03785 0.65203 0.0
C2829 C 0.14541 0.02503 0.63935 0.0
C2830 C 0.13495 0.05182 0.65174 0.0
C2831 C 0.12225 0.05315 0.63883 0.0
C2832 C 0.12156 0.04066 0.62588 0.0
H2833 H 0.03449 0.11564 0.61085 0.0
H2834 H 0.05891 0.09555 0.6124 0.0
C2835 C 0.133 0.02671 0.62615 0.0
C2836 C 0.10942 0.06736 0.63889 0.0
H2837 H 0.07464 0.08358 0.66102 0.0
C2838 C 0.10924 0.07881 0.62499 0.0
C2839 C 0.09691 0.06917 0.65214 0.0
C2840 C 0.09617 0.05688 0.66709 0.0
C2841 C 0.0968 0.092 0.62394 0.0
C2842 C 0.08403 0.09355 0.63697 0.0
C2843 C 0.08446 0.08235 0.65106 0.0
C2844 C 0.0696 0.10615 0.63583 0.0
C2845 C 0.09749 0.1042 0.60892 0.0
C2846 C 0.06728 0.11853 0.6487 0.0
C2847 C 0.05324 0.13 0.64792 0.0
C2848 C 0.0412 0.12916 0.6343 0.0
C2849 C 0.04356 0.11669 0.62146 0.0
C2850 C 0.05759 0.10526 0.62226 0.0
H2851 H 0.11068 0.1045 0.60298 0.0
H2852 H 0.08806 0.0999 0.59898 0.0
H2853 H 0.09388 0.11743 0.61288 0.0
H2854 H 0.07635 0.11932 0.65935 0.0
H2855 H 0.05177 0.13943 0.65803 0.0
H2856 H 0.93124 0.16633 0.63582 0.0
H2857 H 0.90658 0.14636 0.63787 0.0
H2858 H 0.94242 0.1043 0.64527 0.0
H2859 H 0.96707 0.12407 0.64339 0.0
H2860 H 0.89926 0.11678 0.61773 0.0
H2861 H 0.90885 0.10035 0.68636 0.0
H2862 H 0.91894 0.11881 0.67646 0.0
H2863 H 0.9281 0.09777 0.67345 0.0
C2864 C 0.93387 0.15283 0.63787 0.0
C2865 C 0.95112 0.14681 0.63956 0.0
C2866 C 0.91978 0.14146 0.63905 0.0
C2867 C 0.9227 0.12393 0.64204 0.0
C2868 C 0.93989 0.11784 0.64333 0.0
H2869 H 0.86368 0.03069 0.65062 0.0
H2870 H 0.88572 0.05337 0.64966 0.0
C2871 C 0.95396 0.12916 0.64215 0.0
C2872 C 0.90784 0.11188 0.64357 0.0
H2873 H 0.88919 0.08266 0.67058 0.0
C2874 C 0.89691 0.10943 0.62932 0.0
C2875 C 0.90485 0.10235 0.65873 0.0
C2876 C 0.91569 0.10503 0.67469 0.0
C2877 C 0.88343 0.09722 0.62962 0.0
C2878 C 0.88068 0.08744 0.64468 0.0
C2879 C 0.89139 0.09014 0.65904 0.0
C2880 C 0.86714 0.0739 0.64562 0.0
C2881 C 0.87266 0.09444 0.61364 0.0
C2882 C 0.84937 0.078 0.64397 0.0
C2883 C 0.83672 0.06506 0.64449 0.0
C2884 C 0.84164 0.04782 0.64676 0.0
C2885 C 0.85944 0.04383 0.64879 0.0
C2886 C 0.87206 0.05677 0.64826 0.0
H2887 H 0.87893 0.10014 0.60212 0.0
H2888 H 0.87053 0.08054 0.61129 0.0
H2889 H 0.85969 0.10059 0.61532 0.0
H2890 H 0.84528 0.0912 0.64226 0.0
H2891 H 0.82311 0.06858 0.64298 0.0
H2892 H 0.92728 0.83456 0.62281 0.0
H2893 H 0.90596 0.85792 0.62497 0.0
H2894 H 0.93868 0.88338 0.66214 0.0
H2895 H 0.96016 0.86035 0.65985 0.0
H2896 H 0.88735 0.87078 0.65277 0.0
H2897 H 0.93153 0.92037 0.62597 0.0
H2898 H 0.93626 0.89772 0.6246 0.0
H2899 H 0.94068 0.90935 0.64408 0.0
C2900 C 0.92992 0.84511 0.63147 0.0
C2901 C 0.9455 0.84568 0.64102 0.0
C2902 C 0.91772 0.85844 0.63268 0.0
C2903 C 0.92092 0.87253 0.64344 0.0
C2904 C 0.93617 0.87283 0.65343 0.0
H2905 H 0.86873 0.96532 0.6738 0.0
H2906 H 0.88732 0.93998 0.67085 0.0
C2907 C 0.94839 0.8596 0.65217 0.0
C2908 C 0.9084 0.88701 0.64424 0.0
H2909 H 0.90534 0.93041 0.6391 0.0
C2910 C 0.89121 0.8838 0.64964 0.0
C2911 C 0.91348 0.90396 0.64004 0.0
C2912 C 0.93144 0.90807 0.63318 0.0
C2913 C 0.87911 0.89723 0.65152 0.0
C2914 C 0.88436 0.9142 0.64777 0.0
C2915 C 0.90143 0.91736 0.64208 0.0
C2916 C 0.87247 0.92899 0.64996 0.0
C2917 C 0.86096 0.89329 0.65794 0.0
C2918 C 0.858 0.93115 0.63914 0.0
C2919 C 0.84737 0.94567 0.64072 0.0
C2920 C 0.85107 0.95824 0.65317 0.0
C2921 C 0.86549 0.95588 0.6641 0.0
C2922 C 0.87614 0.94143 0.66244 0.0
H2923 H 0.85991 0.88003 0.66309 0.0
H2924 H 0.85711 0.9025 0.66814 0.0
H2925 H 0.85153 0.89464 0.64721 0.0
H2926 H 0.85512 0.92178 0.62927 0.0
H2927 H 0.83637 0.94712 0.63209 0.0
H2928 H 0.39803 0.0313 0.11199 0.0
H2929 H 0.39455 0.05638 0.09345 0.0
H2930 H 0.36921 0.08368 0.13464 0.0
H2931 H 0.37262 0.05867 0.15334 0.0
H2932 H 0.36072 0.07152 0.0856 0.0
H2933 H 0.40686 0.11774 0.11578 0.0
H2934 H 0.40843 0.09484 0.11908 0.0
H2935 H 0.39185 0.10699 0.12993 0.0
C2936 C 0.39192 0.0427 0.11721 0.0
C2937 C 0.38558 0.04297 0.13415 0.0
C2938 C 0.38992 0.057 0.10658 0.0
C2939 C 0.38174 0.07188 0.11273 0.0
C2940 C 0.37577 0.07238 0.12974 0.0
H2941 H 0.35546 0.16871 0.06275 0.0
H2942 H 0.35938 0.14544 0.08355 0.0
C2943 C 0.37768 0.05805 0.14037 0.0
C2944 C 0.37847 0.08643 0.10098 0.0
H2945 H 0.38942 0.12813 0.093 0.0
C2946 C 0.367 0.0839 0.08718 0.0
C2947 C 0.38656 0.10257 0.10324 0.0
C2948 C 0.39922 0.10577 0.11773 0.0
C2949 C 0.36335 0.09714 0.07553 0.0
C2950 C 0.37175 0.11319 0.07752 0.0
C2951 C 0.38304 0.11579 0.09149 0.0
C2952 C 0.36934 0.12727 0.06496 0.0
C2953 C 0.35032 0.09387 0.06136 0.0
C2954 C 0.37386 0.12482 0.04768 0.0
C2955 C 0.37153 0.13801 0.03578 0.0
C2956 C 0.36484 0.154 0.04096 0.0
C2957 C 0.36058 0.15652 0.05834 0.0
C2958 C 0.36284 0.14326 0.07024 0.0
H2959 H 0.34138 0.08312 0.0646 0.0
H2960 H 0.34236 0.10548 0.05868 0.0
H2961 H 0.35743 0.09033 0.04946 0.0
H2962 H 0.37929 0.11272 0.04341 0.0
H2963 H 0.37512 0.13569 0.02253 0.0
H2964 H 0.33483 0.96783 0.86863 0.0
H2965 H 0.33485 0.94394 0.88891 0.0
H2966 H 0.38613 0.92898 0.87154 0.0
H2967 H 0.38631 0.95299 0.85121 0.0
H2968 H 0.33912 0.90789 0.88249 0.0
H2969 H 0.39137 0.93481 0.92424 0.0
H2970 H 0.37979 0.94766 0.90867 0.0
H2971 H 0.39652 0.93304 0.9018 0.0
C2972 C 0.34612 0.95946 0.86907 0.0
C2973 C 0.36063 0.96238 0.85839 0.0
C2974 C 0.34608 0.9458 0.88065 0.0
C2975 C 0.36057 0.93486 0.88185 0.0
C2976 C 0.37493 0.93746 0.87097 0.0
H2977 H 0.38236 0.85212 0.954 0.0
H2978 H 0.38375 0.87256 0.93024 0.0
C2979 C 0.37497 0.95113 0.85932 0.0
C2980 C 0.36061 0.92088 0.8947 0.0
H2981 H 0.38006 0.90774 0.93186 0.0
C2982 C 0.34809 0.9078 0.89327 0.0
C2983 C 0.37236 0.92083 0.9087 0.0
C2984 C 0.38571 0.93487 0.91111 0.0
C2985 C 0.34702 0.89462 0.9055 0.0
C2986 C 0.35853 0.89476 0.9197 0.0
C2987 C 0.37124 0.90769 0.92096 0.0
C2988 C 0.35736 0.8819 0.93365 0.0
C2989 C 0.33368 0.88057 0.90301 0.0
C2990 C 0.34209 0.88047 0.94353 0.0
C2991 C 0.34123 0.86878 0.9571 0.0
C2992 C 0.35569 0.85841 0.96114 0.0
C2993 C 0.37098 0.8599 0.95122 0.0
C2994 C 0.37181 0.87157 0.93764 0.0
H2995 H 0.32951 0.87957 0.88939 0.0
H2996 H 0.33892 0.86795 0.90718 0.0
H2997 H 0.32194 0.8835 0.91083 0.0
H2998 H 0.33092 0.8886 0.94091 0.0
H2999 H 0.3293 0.86803 0.96454 0.0
H3000 H 0.06394 0.35358 0.82089 0.0
H3001 H 0.08872 0.35089 0.84065 0.0
H3002 H 0.05308 0.34577 0.88319 0.0
H3003 H 0.02831 0.34829 0.86365 0.0
H3004 H 0.09705 0.37143 0.8697 0.0
H3005 H 0.08516 0.30363 0.88786 0.0
H3006 H 0.07529 0.31342 0.86922 0.0
H3007 H 0.06632 0.31716 0.89023 0.0
C3008 C 0.06138 0.35187 0.83445 0.0
C3009 C 0.04415 0.35103 0.84067 0.0
C3010 C 0.07555 0.35033 0.8457 0.0
C3011 C 0.07269 0.34781 0.86331 0.0
C3012 C 0.05554 0.34732 0.86959 0.0
H3013 H 0.12924 0.3411 0.95754 0.0
H3014 H 0.10807 0.34145 0.93408 0.0
C3015 C 0.0414 0.34887 0.85839 0.0
C3016 C 0.08758 0.34604 0.87529 0.0
H3017 H 0.10501 0.31935 0.90551 0.0
C3018 C 0.09897 0.35998 0.87739 0.0
C3019 C 0.09001 0.33106 0.88525 0.0
C3020 C 0.07865 0.31539 0.88295 0.0
C3021 C 0.1123 0.35963 0.88977 0.0
C3022 C 0.11441 0.34481 0.90007 0.0
C3023 C 0.10331 0.3307 0.89762 0.0
C3024 C 0.12747 0.34403 0.91405 0.0
C3025 C 0.12355 0.37534 0.89221 0.0
C3026 C 0.14541 0.34504 0.91051 0.0
C3027 C 0.15757 0.34487 0.9239 0.0
C3028 C 0.15197 0.34361 0.94105 0.0
C3029 C 0.134 0.34215 0.94449 0.0
C3030 C 0.12187 0.34233 0.9311 0.0
H3031 H 0.11788 0.38682 0.88583 0.0
H3032 H 0.12531 0.37821 0.90606 0.0
H3033 H 0.13664 0.37296 0.88657 0.0
H3034 H 0.15 0.34603 0.8974 0.0
H3035 H 0.17133 0.34591 0.92081 0.0
H3036 H 0.66241 0.15453 0.94179 0.0
H3037 H 0.66135 0.13137 0.92061 0.0
H3038 H 0.61101 0.11574 0.94 0.0
H3039 H 0.61218 0.13852 0.96148 0.0
H3040 H 0.63228 0.08893 0.93631 0.0
H3041 H 0.63353 0.12776 0.87677 0.0
H3042 H 0.65157 0.13231 0.89075 0.0
H3043 H 0.62965 0.13709 0.89762 0.0
C3044 C 0.65106 0.14623 0.94147 0.0
C3045 C 0.63738 0.14836 0.95332 0.0
C3046 C 0.65041 0.13308 0.92926 0.0
C3047 C 0.63595 0.12201 0.92852 0.0
C3048 C 0.62225 0.12418 0.94029 0.0
H3049 H 0.61606 0.0479 0.84658 0.0
H3050 H 0.61455 0.07245 0.86621 0.0
C3051 C 0.62296 0.13721 0.95257 0.0
C3052 C 0.63548 0.10757 0.91613 0.0
H3053 H 0.63848 0.09764 0.87354 0.0
C3054 C 0.63351 0.09086 0.92257 0.0
C3055 C 0.63682 0.1101 0.89819 0.0
C3056 C 0.63783 0.1278 0.89039 0.0
C3057 C 0.63325 0.07658 0.91162 0.0
C3058 C 0.63547 0.07904 0.89377 0.0
C3059 C 0.63699 0.09577 0.88726 0.0
C3060 C 0.63653 0.06437 0.88171 0.0
C3061 C 0.63038 0.05902 0.9193 0.0
C3062 C 0.64956 0.05189 0.88374 0.0
C3063 C 0.65037 0.03783 0.87267 0.0
C3064 C 0.6383 0.03609 0.85918 0.0
C3065 C 0.62551 0.04885 0.85689 0.0
C3066 C 0.62464 0.06288 0.86806 0.0
H3067 H 0.62373 0.05982 0.93195 0.0
H3068 H 0.62244 0.05079 0.91066 0.0
H3069 H 0.64322 0.05271 0.92132 0.0
H3070 H 0.65915 0.05302 0.89391 0.0
H3071 H 0.66052 0.02835 0.87469 0.0
H3072 H 0.93421 0.65155 0.82454 0.0
H3073 H 0.90948 0.65558 0.84414 0.0
H3074 H 0.94339 0.64661 0.8874 0.0
H3075 H 0.96813 0.64262 0.86803 0.0
H3076 H 0.89636 0.63197 0.86978 0.0
H3077 H 0.91951 0.69332 0.89794 0.0
H3078 H 0.92783 0.68494 0.87792 0.0
H3079 H 0.93546 0.6764 0.898 0.0
C3080 C 0.9364 0.65042 0.83822 0.0
C3081 C 0.95316 0.64685 0.84473 0.0
C3082 C 0.92227 0.65274 0.84938 0.0
C3083 C 0.92471 0.65167 0.86719 0.0
C3084 C 0.94133 0.6478 0.87369 0.0
H3085 H 0.86621 0.65607 0.96041 0.0
H3086 H 0.88798 0.65536 0.93753 0.0
C3087 C 0.95543 0.64542 0.86258 0.0
C3088 C 0.90989 0.65431 0.87908 0.0
H3089 H 0.89607 0.67934 0.91236 0.0
C3090 C 0.89614 0.64243 0.87897 0.0
C3091 C 0.90972 0.66798 0.891 0.0
C3092 C 0.92383 0.6815 0.89118 0.0
C3093 C 0.88253 0.64342 0.89102 0.0
C3094 C 0.88257 0.65688 0.90323 0.0
C3095 C 0.8961 0.66903 0.90301 0.0
C3096 C 0.86921 0.65806 0.91694 0.0
C3097 C 0.86866 0.62966 0.89105 0.0
C3098 C 0.85146 0.66018 0.91295 0.0
C3099 C 0.83894 0.66053 0.92602 0.0
C3100 C 0.84399 0.65888 0.9433 0.0
C3101 C 0.86185 0.6573 0.94724 0.0
C3102 C 0.87433 0.65691 0.93418 0.0
H3103 H 0.87268 0.61824 0.88347 0.0
H3104 H 0.86563 0.62549 0.90434 0.0
H3105 H 0.85651 0.63486 0.88527 0.0
H3106 H 0.84729 0.66146 0.89974 0.0
H3107 H 0.8253 0.66188 0.92256 0.0
H3108 H 0.61051 0.95485 0.14442 0.0
H3109 H 0.61122 0.92956 0.12578 0.0
H3110 H 0.66568 0.93885 0.115 0.0
H3111 H 0.66505 0.96423 0.13334 0.0
H3112 H 0.64627 0.93354 0.08594 0.0
H3113 H 0.63326 0.88245 0.13388 0.0
H3114 H 0.61741 0.89945 0.13387 0.0
H3115 H 0.63962 0.90394 0.1399 0.0
C3116 C 0.62268 0.95143 0.13819 0.0
C3117 C 0.63772 0.96156 0.14036 0.0
C3118 C 0.62309 0.93691 0.12764 0.0
C3119 C 0.63857 0.93221 0.1192 0.0
C3120 C 0.65362 0.94222 0.12146 0.0
H3121 H 0.65941 0.83802 0.06247 0.0
H3122 H 0.65924 0.86131 0.08361 0.0
C3123 C 0.65322 0.95673 0.13196 0.0
C3124 C 0.6389 0.91745 0.10721 0.0
H3125 H 0.63225 0.8742 0.10446 0.0
C3126 C 0.64327 0.92055 0.09 0.0
C3127 C 0.63519 0.9005 0.1126 0.0
C3128 C 0.63127 0.8963 0.1311 0.0
C3129 C 0.64376 0.90721 0.07795 0.0
C3130 C 0.63944 0.89036 0.08319 0.0
C3131 C 0.63539 0.88717 0.10046 0.0
C3132 C 0.63902 0.87592 0.07084 0.0
C3133 C 0.64913 0.91125 0.05975 0.0
C3134 C 0.62745 0.87628 0.05689 0.0
C3135 C 0.62757 0.86309 0.04478 0.0
C3136 C 0.63915 0.84917 0.04648 0.0
C3137 C 0.65037 0.84858 0.06076 0.0
C3138 C 0.65028 0.86185 0.07286 0.0
H3139 H 0.65648 0.92352 0.05896 0.0
H3140 H 0.65737 0.90084 0.05432 0.0
H3141 H 0.63727 0.91251 0.05166 0.0
H3142 H 0.61839 0.88685 0.05531 0.0
H3143 H 0.61863 0.86388 0.03403 0.0
H3144 H 0.06933 0.65021 0.17431 0.0
H3145 H 0.09438 0.65244 0.15481 0.0
H3146 H 0.06025 0.64472 0.11148 0.0
H3147 H 0.0352 0.64249 0.13074 0.0
H3148 H 0.10628 0.62781 0.12901 0.0
H3149 H 0.08652 0.69045 0.10118 0.0
H3150 H 0.07791 0.68252 0.12125 0.0
H3151 H 0.06964 0.67443 0.10124 0.0
C3152 C 0.06717 0.64892 0.16064 0.0
C3153 C 0.05025 0.64628 0.15407 0.0
C3154 C 0.08148 0.65021 0.14954 0.0
C3155 C 0.07907 0.64903 0.13174 0.0
C3156 C 0.0623 0.64597 0.12519 0.0
H3157 H 0.13706 0.65048 0.03828 0.0
H3158 H 0.11551 0.65088 0.06136 0.0
C3159 C 0.04802 0.64461 0.13623 0.0
C3160 C 0.09402 0.65091 0.11987 0.0
H3161 H 0.1091 0.67528 0.08665 0.0
C3162 C 0.10706 0.63828 0.11987 0.0
C3163 C 0.09493 0.66461 0.10802 0.0
C3164 C 0.0816 0.67888 0.10795 0.0
C3165 C 0.12065 0.63856 0.10776 0.0
C3166 C 0.12132 0.65205 0.0956 0.0
C3167 C 0.10852 0.66495 0.09596 0.0
C3168 C 0.13459 0.65251 0.08179 0.0
C3169 C 0.13371 0.62405 0.1076 0.0
C3170 C 0.15247 0.65366 0.08561 0.0
C3171 C 0.16487 0.65338 0.07243 0.0
C3172 C 0.15956 0.65208 0.05519 0.0
C3173 C 0.14161 0.65146 0.05141 0.0
C3174 C 0.12926 0.65169 0.06459 0.0
H3175 H 0.12912 0.61287 0.1152 0.0
H3176 H 0.13637 0.61974 0.09427 0.0
H3177 H 0.14619 0.62857 0.11326 0.0
H3178 H 0.15684 0.65467 0.09879 0.0
H3179 H 0.17859 0.65398 0.07576 0.0
H3180 H 0.93243 0.34307 0.17513 0.0
H3181 H 0.90739 0.34153 0.15556 0.0
H3182 H 0.94247 0.33766 0.11244 0.0
H3183 H 0.9675 0.33909 0.13179 0.0
H3184 H 0.89926 0.36352 0.12716 0.0
H3185 H 0.9095 0.29601 0.10685 0.0
H3186 H 0.9196 0.30499 0.12579 0.0
H3187 H 0.92856 0.30932 0.10491 0.0
C3188 C 0.93481 0.34189 0.16148 0.0
C3189 C 0.95196 0.3411 0.15503 0.0
C3190 C 0.9205 0.34101 0.15034 0.0
C3191 C 0.92312 0.33918 0.13262 0.0
C3192 C 0.94019 0.33871 0.12612 0.0
H3193 H 0.86448 0.33541 0.03932 0.0
H3194 H 0.88616 0.33488 0.0623 0.0
C3195 C 0.95448 0.33964 0.13721 0.0
C3196 C 0.90806 0.33808 0.12076 0.0
H3197 H 0.88946 0.31252 0.09025 0.0
C3198 C 0.89695 0.35231 0.11922 0.0
C3199 C 0.90513 0.32342 0.11047 0.0
C3200 C 0.91622 0.30749 0.11215 0.0
C3201 C 0.88338 0.35255 0.10708 0.0
C3202 C 0.88072 0.33803 0.09649 0.0
C3203 C 0.89157 0.32364 0.09836 0.0
C3204 C 0.86732 0.33783 0.08279 0.0
C3205 C 0.87248 0.36859 0.10523 0.0
C3206 C 0.8495 0.33934 0.08673 0.0
C3207 C 0.83703 0.3397 0.0736 0.0
C3208 C 0.8422 0.33844 0.05632 0.0
C3209 C 0.86005 0.33647 0.05248 0.0
C3210 C 0.87247 0.33615 0.0656 0.0
H3211 H 0.87864 0.37981 0.11161 0.0
H3212 H 0.87037 0.37173 0.09148 0.0
H3213 H 0.85952 0.36644 0.11123 0.0
H3214 H 0.84523 0.34031 0.09994 0.0
H3215 H 0.82339 0.34112 0.077 0.0
H3216 H 0.63075 0.88719 0.52391 0.0
H3217 H 0.61016 0.88797 0.54785 0.0
H3218 H 0.62444 0.83623 0.56158 0.0
H3219 H 0.64527 0.83538 0.53778 0.0
H3220 H 0.58177 0.86581 0.55148 0.0
H3221 H 0.62617 0.86153 0.60774 0.0
H3222 H 0.63379 0.86725 0.58657 0.0
H3223 H 0.62934 0.84521 0.59174 0.0
C3224 C 0.62971 0.87604 0.53214 0.0
C3225 C 0.63964 0.86121 0.52892 0.0
C3226 C 0.61792 0.87652 0.54581 0.0
C3227 C 0.6159 0.86222 0.55657 0.0
C3228 C 0.62604 0.84751 0.55362 0.0
H3229 H 0.54223 0.83969 0.63885 0.0
H3230 H 0.56551 0.83817 0.61731 0.0
C3231 C 0.63787 0.84703 0.53996 0.0
C3232 C 0.60229 0.86235 0.57006 0.0
H3233 H 0.59576 0.85937 0.61332 0.0
C3234 C 0.58483 0.86447 0.565 0.0
C3235 C 0.60634 0.86044 0.58767 0.0
C3236 C 0.62493 0.85862 0.59383 0.0
C3237 C 0.57126 0.86467 0.57708 0.0
C3238 C 0.57531 0.86301 0.5947 0.0
C3239 C 0.59274 0.86067 0.59978 0.0
C3240 C 0.5616 0.86406 0.60804 0.0
C3241 C 0.55267 0.86644 0.57084 0.0
C3242 C 0.55193 0.8792 0.61012 0.0
C3243 C 0.53864 0.88011 0.62234 0.0
C3244 C 0.53483 0.86589 0.63281 0.0
C3245 C 0.54479 0.85083 0.63094 0.0
C3246 C 0.55811 0.84995 0.61868 0.0
H3247 H 0.55142 0.86306 0.55704 0.0
H3248 H 0.54372 0.85813 0.57838 0.0
H3249 H 0.54838 0.87995 0.57245 0.0
H3250 H 0.55466 0.89034 0.60223 0.0
H3251 H 0.53132 0.89195 0.62353 0.0
H3252 H 0.11437 0.52949 0.62927 0.0
H3253 H 0.11109 0.55201 0.60769 0.0
H3254 H 0.12535 0.59024 0.64513 0.0
H3255 H 0.12859 0.56777 0.66697 0.0
H3256 H 0.08809 0.58473 0.61219 0.0
H3257 H 0.15928 0.59497 0.60088 0.0
H3258 H 0.15093 0.5749 0.60908 0.0
H3259 H 0.15134 0.59349 0.62261 0.0
C3260 C 0.11684 0.54268 0.63296 0.0
C3261 C 0.12179 0.54684 0.64984 0.0
C3262 C 0.1149 0.55551 0.62061 0.0
C3263 C 0.11803 0.5727 0.62486 0.0
C3264 C 0.12295 0.57698 0.64166 0.0
H3265 H 0.12415 0.65805 0.55227 0.0
H3266 H 0.12465 0.64133 0.57886 0.0
C3267 C 0.12478 0.56415 0.65409 0.0
C3268 C 0.11616 0.58606 0.61156 0.0
H3269 H 0.13972 0.61052 0.58363 0.0
C3270 C 0.09934 0.59052 0.60601 0.0
C3271 C 0.13088 0.59362 0.6037 0.0
C3272 C 0.14919 0.58905 0.60924 0.0
C3273 C 0.09684 0.6022 0.59252 0.0
C3274 C 0.1116 0.6092 0.5841 0.0
C3275 C 0.12842 0.60512 0.59006 0.0
C3276 C 0.10998 0.61997 0.56849 0.0
C3277 C 0.07843 0.60694 0.58747 0.0
C3278 C 0.10154 0.61354 0.55385 0.0
C3279 C 0.10112 0.62309 0.53869 0.0
C3280 C 0.10938 0.63918 0.5378 0.0
C3281 C 0.11766 0.64571 0.55254 0.0
C3282 C 0.11797 0.63617 0.56774 0.0
H3283 H 0.06924 0.60531 0.59839 0.0
H3284 H 0.07765 0.62041 0.58289 0.0
H3285 H 0.07402 0.59835 0.57697 0.0
H3286 H 0.09569 0.60089 0.55397 0.0
H3287 H 0.09475 0.61763 0.52755 0.0
H3288 H 0.33017 0.15383 0.55255 0.0
H3289 H 0.3469 0.15513 0.57932 0.0
H3290 H 0.38983 0.12899 0.55479 0.0
H3291 H 0.37322 0.12746 0.52809 0.0
H3292 H 0.38143 0.1164 0.58797 0.0
H3293 H 0.38913 0.18742 0.58673 0.0
H3294 H 0.36712 0.17946 0.58534 0.0
H3295 H 0.38219 0.17533 0.56818 0.0
C3296 C 0.34315 0.1483 0.55287 0.0
C3297 C 0.35041 0.14064 0.53815 0.0
C3298 C 0.3527 0.14912 0.56815 0.0
C3299 C 0.36967 0.14235 0.56894 0.0
C3300 C 0.37677 0.13433 0.55441 0.0
H3301 H 0.45867 0.15868 0.63196 0.0
H3302 H 0.43581 0.15778 0.61016 0.0
C3303 C 0.36725 0.13351 0.53915 0.0
C3304 C 0.38028 0.1438 0.58474 0.0
H3305 H 0.40192 0.17268 0.60992 0.0
C3306 C 0.38579 0.12869 0.59291 0.0
C3307 C 0.38603 0.15988 0.59099 0.0
C3308 C 0.38096 0.17648 0.58233 0.0
C3309 C 0.39719 0.12921 0.607 0.0
C3310 C 0.40304 0.14528 0.61317 0.0
C3311 C 0.39726 0.1604 0.60521 0.0
C3312 C 0.41634 0.14659 0.62688 0.0
C3313 C 0.40346 0.11255 0.61473 0.0
C3314 C 0.41284 0.14088 0.64361 0.0
C3315 C 0.42592 0.14135 0.65615 0.0
C3316 C 0.44269 0.14758 0.65214 0.0
C3317 C 0.44594 0.15373 0.63548 0.0
C3318 C 0.43288 0.15327 0.623 0.0
H3319 H 0.40024 0.10133 0.60651 0.0
H3320 H 0.41782 0.11287 0.61676 0.0
H3321 H 0.39714 0.11067 0.6274 0.0
H3322 H 0.40006 0.13591 0.64691 0.0
H3323 H 0.42298 0.13659 0.66888 0.0
H3324 H 0.82951 0.36008 0.54282 0.0
H3325 H 0.83035 0.37919 0.56766 0.0
H3326 H 0.88539 0.36909 0.57385 0.0
H3327 H 0.88464 0.34967 0.54916 0.0
H3328 H 0.86694 0.36967 0.60498 0.0
H3329 H 0.85235 0.42698 0.56513 0.0
H3330 H 0.83651 0.41009 0.56324 0.0
H3331 H 0.85851 0.40661 0.55593 0.0
C3332 C 0.84179 0.36183 0.54951 0.0
C3333 C 0.85706 0.3535 0.5439 0.0
C3334 C 0.84224 0.37281 0.56366 0.0
C3335 C 0.85799 0.3758 0.57237 0.0
C3336 C 0.87312 0.36701 0.56723 0.0
H3337 H 0.88118 0.46345 0.6361 0.0
H3338 H 0.88063 0.44091 0.61438 0.0
C3339 C 0.87267 0.35595 0.55311 0.0
C3340 C 0.85881 0.38854 0.58644 0.0
H3341 H 0.85269 0.43102 0.59523 0.0
C3342 C 0.86385 0.3831 0.60289 0.0
C3343 C 0.85501 0.40608 0.58358 0.0
C3344 C 0.85045 0.41286 0.56599 0.0
C3345 C 0.865 0.39473 0.61662 0.0
C3346 C 0.86072 0.41217 0.61384 0.0
C3347 C 0.85583 0.41761 0.59736 0.0
C3348 C 0.86165 0.4252 0.62767 0.0
C3349 C 0.87113 0.38831 0.63387 0.0
C3350 C 0.85116 0.42384 0.64238 0.0
C3351 C 0.8515 0.4367 0.65491 0.0
C3352 C 0.86221 0.45122 0.65283 0.0
C3353 C 0.87277 0.45246 0.63811 0.0
C3354 C 0.87247 0.43958 0.62567 0.0
H3355 H 0.87813 0.37586 0.63277 0.0
H3356 H 0.87993 0.39777 0.64011 0.0
H3357 H 0.85964 0.38636 0.64233 0.0
H3358 H 0.84243 0.41303 0.64401 0.0
H3359 H 0.84315 0.43541 0.66605 0.0
H3360 H 0.56385 0.12214 0.34645 0.0
H3361 H 0.5857 0.12711 0.36882 0.0
H3362 H 0.55462 0.16861 0.38906 0.0
H3363 H 0.53255 0.16356 0.36696 0.0
H3364 H 0.60537 0.15603 0.37728 0.0
H3365 H 0.56121 0.1375 0.43067 0.0
H3366 H 0.55609 0.13319 0.40848 0.0
H3367 H 0.55273 0.15428 0.41726 0.0
C3368 C 0.56167 0.13236 0.35562 0.0
C3369 C 0.54636 0.14234 0.35504 0.0
C3370 C 0.57419 0.13519 0.36838 0.0
C3371 C 0.57161 0.148 0.38077 0.0
C3372 C 0.55666 0.15839 0.37985 0.0
H3373 H 0.62854 0.1815 0.47075 0.0
H3374 H 0.60892 0.17906 0.44612 0.0
C3375 C 0.5441 0.15553 0.36716 0.0
C3376 C 0.58442 0.15033 0.39482 0.0
H3377 H 0.58862 0.14932 0.43842 0.0
C3378 C 0.60175 0.15452 0.39065 0.0
C3379 C 0.57964 0.14827 0.41224 0.0
C3380 C 0.56145 0.1429 0.41747 0.0
C3381 C 0.61437 0.15702 0.40349 0.0
C3382 C 0.60953 0.15509 0.42089 0.0
C3383 C 0.59223 0.15088 0.42505 0.0
C3384 C 0.62221 0.1572 0.43506 0.0
C3385 C 0.6327 0.162 0.3984 0.0
C3386 C 0.63618 0.14569 0.43696 0.0
C3387 C 0.6474 0.147 0.45106 0.0
C3388 C 0.64479 0.15982 0.46351 0.0
C3389 C 0.63093 0.17149 0.46139 0.0
C3390 C 0.6197 0.17012 0.44733 0.0
H3391 H 0.6333 0.16676 0.38497 0.0
H3392 H 0.6379 0.17208 0.40709 0.0
H3393 H 0.64133 0.1506 0.39943 0.0
H3394 H 0.63815 0.13545 0.42777 0.0
H3395 H 0.65793 0.1378 0.45233 0.0
H3396 H 0.87754 0.53265 0.36322 0.0
H3397 H 0.87703 0.55478 0.38544 0.0
H3398 H 0.83336 0.57921 0.3604 0.0
H3399 H 0.83388 0.55723 0.33796 0.0
H3400 H 0.85978 0.60221 0.3709 0.0
H3401 H 0.84006 0.55824 0.42353 0.0
H3402 H 0.85918 0.55152 0.41197 0.0
H3403 H 0.83845 0.55239 0.40117 0.0
C3404 C 0.86781 0.54272 0.36242 0.0
C3405 C 0.85567 0.54312 0.34887 0.0
C3406 C 0.8675 0.55531 0.37517 0.0
C3407 C 0.855 0.56846 0.37469 0.0
C3408 C 0.84307 0.5691 0.36103 0.0
H3409 H 0.82626 0.63476 0.45918 0.0
H3410 H 0.8267 0.61473 0.43509 0.0
C3411 C 0.84336 0.55651 0.34825 0.0
C3412 C 0.85435 0.58154 0.38845 0.0
H3413 H 0.84824 0.58648 0.43155 0.0
C3414 C 0.85722 0.59881 0.38417 0.0
C3415 C 0.85079 0.57706 0.40569 0.0
C3416 C 0.84678 0.55883 0.4109 0.0
C3417 C 0.85688 0.61172 0.39674 0.0
C3418 C 0.85383 0.60716 0.41405 0.0
C3419 C 0.85072 0.58992 0.41828 0.0
C3420 C 0.85348 0.62005 0.42802 0.0
C3421 C 0.8595 0.63014 0.39137 0.0
C3422 C 0.86842 0.6297 0.43202 0.0
C3423 C 0.86822 0.64122 0.44579 0.0
C3424 C 0.8531 0.64317 0.45586 0.0
C3425 C 0.83813 0.63357 0.4517 0.0
C3426 C 0.83834 0.6221 0.43794 0.0
H3427 H 0.85728 0.63192 0.37739 0.0
H3428 H 0.85057 0.63881 0.39852 0.0
H3429 H 0.87313 0.63403 0.39426 0.0
H3430 H 0.88035 0.62807 0.42472 0.0
H3431 H 0.87999 0.64837 0.44871 0.0
H3432 H 0.3627 0.87831 0.47362 0.0
H3433 H 0.38291 0.87805 0.44939 0.0
H3434 H 0.35857 0.83205 0.43004 0.0
H3435 H 0.33805 0.83233 0.45415 0.0
H3436 H 0.40644 0.8519 0.44212 0.0
H3437 H 0.36119 0.86258 0.38733 0.0
H3438 H 0.35501 0.86682 0.40929 0.0
H3439 H 0.35542 0.84518 0.40135 0.0
C3440 C 0.36148 0.86824 0.46412 0.0
C3441 C 0.34876 0.85533 0.46582 0.0
C3442 C 0.37306 0.86811 0.45029 0.0
C3443 C 0.37214 0.85513 0.43785 0.0
C3444 C 0.35929 0.84237 0.43932 0.0
H3445 H 0.44086 0.83427 0.3504 0.0
H3446 H 0.41794 0.83224 0.37232 0.0
C3447 C 0.34764 0.84251 0.45316 0.0
C3448 C 0.38536 0.85447 0.42399 0.0
H3449 H 0.39076 0.8567 0.38053 0.0
C3450 C 0.40301 0.85296 0.42866 0.0
C3451 C 0.38082 0.85569 0.40643 0.0
C3452 C 0.3621 0.8578 0.40073 0.0
C3453 C 0.41627 0.85277 0.41626 0.0
C3454 C 0.41177 0.85438 0.39874 0.0
C3455 C 0.39412 0.85549 0.394 0.0
C3456 C 0.42533 0.8557 0.38526 0.0
C3457 C 0.43499 0.85078 0.422 0.0
C3458 C 0.43683 0.8697 0.38517 0.0
C3459 C 0.44988 0.87091 0.37273 0.0
C3460 C 0.45164 0.85816 0.36007 0.0
C3461 C 0.43989 0.84426 0.36002 0.0
C3462 C 0.42679 0.84309 0.37249 0.0
H3463 H 0.43587 0.84519 0.43509 0.0
H3464 H 0.44242 0.84249 0.41299 0.0
H3465 H 0.44133 0.86358 0.42228 0.0
H3466 H 0.43571 0.87971 0.39475 0.0
H3467 H 0.45862 0.88183 0.37309 0.0
H3468 H 0.10423 0.45094 0.35075 0.0
H3469 H 0.10049 0.42858 0.37242 0.0
H3470 H 0.15245 0.43843 0.39143 0.0
H3471 H 0.15623 0.46105 0.36997 0.0
H3472 H 0.11942 0.39887 0.37813 0.0
H3473 H 0.12242 0.44218 0.43461 0.0
H3474 H 0.11971 0.45006 0.41299 0.0
H3475 H 0.14096 0.44381 0.42059 0.0
C3476 C 0.11488 0.44838 0.35954 0.0
C3477 C 0.1305 0.45787 0.35871 0.0
C3478 C 0.11272 0.43557 0.3719 0.0
C3479 C 0.12609 0.43203 0.38369 0.0
C3480 C 0.14183 0.44121 0.38268 0.0
H3481 H 0.13644 0.34264 0.44914 0.0
H3482 H 0.13865 0.36382 0.42613 0.0
C3483 C 0.144 0.45407 0.37035 0.0
C3484 C 0.12353 0.41868 0.39698 0.0
H3485 H 0.12261 0.41226 0.44029 0.0
C3486 C 0.12006 0.40178 0.39173 0.0
C3487 C 0.12411 0.42258 0.4147 0.0
C3488 C 0.12683 0.44067 0.42111 0.0
C3489 C 0.11746 0.3886 0.40374 0.0
C3490 C 0.11864 0.39241 0.42146 0.0
C3491 C 0.12183 0.40935 0.4267 0.0
C3492 C 0.1167 0.37902 0.43483 0.0
C3493 C 0.11319 0.37081 0.39737 0.0
C3494 C 0.10376 0.38065 0.44748 0.0
C3495 C 0.10254 0.36863 0.46074 0.0
C3496 C 0.1143 0.3548 0.46163 0.0
C3497 C 0.1271 0.35307 0.44878 0.0
C3498 C 0.12833 0.36512 0.43555 0.0
H3499 H 0.10799 0.37105 0.38406 0.0
H3500 H 0.12527 0.36293 0.39735 0.0
H3501 H 0.10346 0.36445 0.40581 0.0
H3502 H 0.09469 0.39133 0.44719 0.0
H3503 H 0.09256 0.37036 0.47044 0.0
H3504 H 0.63868 0.54353 0.85927 0.0
H3505 H 0.61667 0.56588 0.86298 0.0
H3506 H 0.62504 0.58276 0.81093 0.0
H3507 H 0.64738 0.56055 0.80714 0.0
H3508 H 0.62328 0.60969 0.83445 0.0
H3509 H 0.56756 0.56492 0.84265 0.0
H3510 H 0.58529 0.56095 0.8572 0.0
H3511 H 0.58851 0.55808 0.83451 0.0
C3512 C 0.63584 0.55195 0.84857 0.0
C3513 C 0.6447 0.55018 0.83285 0.0
C3514 C 0.62319 0.56468 0.85071 0.0
C3515 C 0.61902 0.57577 0.83714 0.0
C3516 C 0.62802 0.57424 0.82152 0.0
H3517 H 0.52626 0.63883 0.8317 0.0
H3518 H 0.54974 0.61825 0.82681 0.0
C3519 C 0.64075 0.56153 0.81938 0.0
C3520 C 0.60531 0.589 0.83934 0.0
H3521 H 0.56217 0.59427 0.84904 0.0
C3522 C 0.60989 0.60635 0.83757 0.0
C3523 C 0.58783 0.58456 0.8432 0.0
C3524 C 0.58192 0.56612 0.84434 0.0
C3525 C 0.59748 0.61943 0.83985 0.0
C3526 C 0.58014 0.615 0.84429 0.0
C3527 C 0.57553 0.59764 0.84581 0.0
C3528 C 0.56637 0.6281 0.84699 0.0
C3529 C 0.60296 0.63784 0.83717 0.0
C3530 C 0.56791 0.64046 0.86002 0.0
C3531 C 0.5545 0.65235 0.86282 0.0
C3532 C 0.53926 0.65194 0.85274 0.0
C3533 C 0.5378 0.63952 0.83972 0.0
C3534 C 0.55121 0.62772 0.83689 0.0
H3535 H 0.6152 0.63876 0.82955 0.0
H3536 H 0.59257 0.64524 0.83053 0.0
H3537 H 0.60537 0.64391 0.84984 0.0
H3538 H 0.57934 0.64073 0.8682 0.0
H3539 H 0.55598 0.66169 0.87301 0.0
H3540 H 0.46633 0.61543 0.86948 0.0
H3541 H 0.44123 0.59613 0.86951 0.0
H3542 H 0.41114 0.63346 0.84133 0.0
H3543 H 0.43632 0.6529 0.84107 0.0
H3544 H 0.40723 0.60234 0.88292 0.0
H3545 H 0.40631 0.58902 0.81271 0.0
H3546 H 0.42496 0.59846 0.8233 0.0
H3547 H 0.40594 0.61123 0.81897 0.0
C3548 C 0.45441 0.61956 0.86323 0.0
C3549 C 0.45336 0.63568 0.85519 0.0
C3550 C 0.44007 0.60852 0.8633 0.0
C3551 C 0.42441 0.61331 0.85528 0.0
C3552 C 0.42321 0.62944 0.84736 0.0
H3553 H 0.33135 0.54885 0.84165 0.0
H3554 H 0.35074 0.57389 0.84232 0.0
C3555 C 0.43758 0.64054 0.84729 0.0
C3556 C 0.40942 0.60131 0.85539 0.0
H3557 H 0.385 0.57528 0.82958 0.0
C3558 C 0.40226 0.59651 0.87125 0.0
C3559 C 0.40293 0.59383 0.84013 0.0
C3560 C 0.41046 0.59825 0.82279 0.0
C3561 C 0.389 0.58414 0.87231 0.0
C3562 C 0.38297 0.57617 0.85712 0.0
C3563 C 0.38967 0.58142 0.8412 0.0
C3564 C 0.37071 0.56149 0.85756 0.0
C3565 C 0.38162 0.57963 0.88969 0.0
C3566 C 0.37558 0.54624 0.86584 0.0
C3567 C 0.36459 0.53196 0.86548 0.0
C3568 C 0.34854 0.5326 0.85673 0.0
C3569 C 0.3436 0.54796 0.84856 0.0
C3570 C 0.35465 0.56226 0.8489 0.0
H3571 H 0.38357 0.59022 0.89905 0.0
H3572 H 0.36745 0.5767 0.88887 0.0
H3573 H 0.38845 0.56811 0.8947 0.0
H3574 H 0.38808 0.54525 0.87228 0.0
H3575 H 0.36883 0.52032 0.87184 0.0
H3576 H 0.31565 0.42666 0.83366 0.0
H3577 H 0.33741 0.40361 0.83352 0.0
H3578 H 0.3786 0.44098 0.8389 0.0
H3579 H 0.35706 0.46407 0.83874 0.0
H3580 H 0.38603 0.41574 0.81481 0.0
H3581 H 0.36336 0.38715 0.87633 0.0
H3582 H 0.34699 0.38907 0.85992 0.0
H3583 H 0.35637 0.40808 0.86917 0.0
C3584 C 0.32935 0.42997 0.83471 0.0
C3585 C 0.33461 0.44719 0.83632 0.0
C3586 C 0.34174 0.41678 0.83474 0.0
C3587 C 0.35957 0.42058 0.83652 0.0
C3588 C 0.36489 0.43777 0.8376 0.0
H3589 H 0.45853 0.37246 0.85175 0.0
H3590 H 0.43348 0.39145 0.84778 0.0
C3591 C 0.35254 0.45096 0.83751 0.0
C3592 C 0.37281 0.40676 0.8375 0.0
H3593 H 0.38695 0.37349 0.86246 0.0
C3594 C 0.38618 0.40644 0.82517 0.0
C3595 C 0.37294 0.39463 0.85102 0.0
C3596 C 0.35925 0.39475 0.86497 0.0
C3597 C 0.39983 0.39447 0.82615 0.0
C3598 C 0.40019 0.38266 0.83991 0.0
C3599 C 0.38657 0.3826 0.85194 0.0
C3600 C 0.41517 0.37097 0.84256 0.0
C3601 C 0.41382 0.3946 0.81251 0.0
C3602 C 0.41302 0.35314 0.84138 0.0
C3603 C 0.42733 0.3422 0.84365 0.0
C3604 C 0.44397 0.34895 0.84732 0.0
C3605 C 0.44592 0.36683 0.84889 0.0
C3606 C 0.43165 0.37772 0.84653 0.0
H3607 H 0.40941 0.40132 0.80071 0.0
H3608 H 0.4255 0.4014 0.8175 0.0
H3609 H 0.41778 0.38132 0.80908 0.0
H3610 H 0.40032 0.34772 0.83846 0.0
H3611 H 0.42538 0.32849 0.84242 0.0
H3612 H 0.53162 0.36984 0.8312 0.0
H3613 H 0.55427 0.39145 0.82652 0.0
H3614 H 0.58409 0.37062 0.86862 0.0
H3615 H 0.56168 0.34875 0.87319 0.0
H3616 H 0.56484 0.41601 0.84937 0.0
H3617 H 0.62091 0.37461 0.83126 0.0
H3618 H 0.59868 0.36686 0.83157 0.0
H3619 H 0.61084 0.36879 0.85123 0.0
C3620 C 0.54308 0.36974 0.83936 0.0
C3621 C 0.54486 0.35756 0.85256 0.0
C3622 C 0.556 0.38209 0.83666 0.0
C3623 C 0.57097 0.38249 0.84707 0.0
C3624 C 0.57284 0.3703 0.86018 0.0
H3625 H 0.65565 0.45604 0.85828 0.0
H3626 H 0.63557 0.43173 0.86145 0.0
C3627 C 0.55995 0.35788 0.86285 0.0
C3628 C 0.58405 0.39632 0.84482 0.0
H3629 H 0.62721 0.40404 0.83669 0.0
C3630 C 0.57845 0.41339 0.84649 0.0
C3631 C 0.60182 0.39285 0.84116 0.0
C3632 C 0.60843 0.3748 0.83854 0.0
C3633 C 0.59017 0.4271 0.84477 0.0
C3634 C 0.60791 0.42364 0.8411 0.0
C3635 C 0.61357 0.40659 0.83953 0.0
C3636 C 0.62066 0.43766 0.83863 0.0
C3637 C 0.58356 0.4452 0.84713 0.0
C3638 C 0.61909 0.44874 0.82455 0.0
C3639 C 0.63052 0.46258 0.82267 0.0
C3640 C 0.64372 0.46557 0.83487 0.0
C3641 C 0.64556 0.45413 0.84871 0.0
C3642 C 0.63415 0.44024 0.85054 0.0
H3643 H 0.5706 0.4455 0.85354 0.0
H3644 H 0.59292 0.4529 0.85484 0.0
H3645 H 0.58223 0.45141 0.83438 0.0
H3646 H 0.60889 0.44679 0.81511 0.0
H3647 H 0.62878 0.47108 0.81181 0.0
H3648 H 0.52603 0.36449 0.15215 0.0
H3649 H 0.55159 0.38313 0.15401 0.0
H3650 H 0.5854 0.33949 0.14657 0.0
H3651 H 0.55985 0.32067 0.14452 0.0
H3652 H 0.57939 0.38079 0.17786 0.0
H3653 H 0.60248 0.3744 0.11046 0.0
H3654 H 0.58076 0.36821 0.11704 0.0
H3655 H 0.59907 0.35462 0.12185 0.0
C3656 C 0.53889 0.35883 0.15081 0.0
C3657 C 0.5409 0.34108 0.14813 0.0
C3658 C 0.55348 0.36951 0.1519 0.0
C3659 C 0.57035 0.36271 0.15026 0.0
C3660 C 0.57246 0.34502 0.14759 0.0
H3661 H 0.67131 0.41516 0.15159 0.0
H3662 H 0.6485 0.39313 0.15155 0.0
C3663 C 0.55785 0.33429 0.1465 0.0
C3664 C 0.58568 0.37419 0.15175 0.0
H3665 H 0.61982 0.39105 0.12917 0.0
C3666 C 0.58827 0.38302 0.16724 0.0
C3667 C 0.59726 0.37697 0.13788 0.0
C3668 C 0.59476 0.36818 0.1208 0.0
C3669 C 0.6021 0.39466 0.16922 0.0
C3670 C 0.61343 0.39775 0.15523 0.0
C3671 C 0.61109 0.38864 0.13986 0.0
C3672 C 0.6273 0.41096 0.15601 0.0
C3673 C 0.60452 0.40348 0.1863 0.0
C3674 C 0.6229 0.42827 0.15843 0.0
C3675 C 0.63587 0.44087 0.15847 0.0
C3676 C 0.65349 0.4364 0.15597 0.0
C3677 C 0.65787 0.41903 0.15361 0.0
C3678 C 0.64487 0.40642 0.15356 0.0
H3679 H 0.59813 0.39624 0.19686 0.0
H3680 H 0.61859 0.40504 0.18939 0.0
H3681 H 0.59848 0.41641 0.18574 0.0
H3682 H 0.60938 0.43207 0.16 0.0
H3683 H 0.63204 0.45413 0.16024 0.0
H3684 H 0.6649 0.53858 0.14238 0.0
H3685 H 0.6494 0.56604 0.14091 0.0
H3686 H 0.60943 0.54615 0.17446 0.0
H3687 H 0.6249 0.51883 0.17623 0.0
H3688 H 0.61604 0.57178 0.12891 0.0
H3689 H 0.6211 0.59187 0.1969 0.0
H3690 H 0.63444 0.575 0.18789 0.0
H3691 H 0.61236 0.57064 0.1945 0.0
C3692 C 0.65289 0.5401 0.14956 0.0
C3693 C 0.64616 0.52653 0.15946 0.0
C3694 C 0.64406 0.5558 0.14871 0.0
C3695 C 0.62844 0.55823 0.15783 0.0
C3696 C 0.62169 0.5447 0.16768 0.0
H3697 H 0.54268 0.62764 0.16287 0.0
H3698 H 0.56446 0.60497 0.16624 0.0
C3699 C 0.6305 0.52903 0.16856 0.0
C3700 C 0.61859 0.57451 0.15629 0.0
H3701 H 0.59952 0.60635 0.17989 0.0
C3702 C 0.61264 0.57951 0.14001 0.0
C3703 C 0.61421 0.58455 0.1708 0.0
C3704 C 0.62101 0.58035 0.18849 0.0
C3705 C 0.60174 0.59384 0.13794 0.0
C3706 C 0.59688 0.60352 0.15253 0.0
C3707 C 0.60325 0.59884 0.16874 0.0
C3708 C 0.58432 0.6179 0.15132 0.0
C3709 C 0.59489 0.59808 0.12027 0.0
C3710 C 0.58845 0.63283 0.14212 0.0
C3711 C 0.57602 0.64584 0.14016 0.0
C3712 C 0.55927 0.6441 0.14738 0.0
C3713 C 0.55542 0.62935 0.15706 0.0
C3714 C 0.56785 0.61639 0.15904 0.0
H3715 H 0.59727 0.58754 0.11096 0.0
H3716 H 0.58064 0.60075 0.12074 0.0
H3717 H 0.60153 0.60978 0.11545 0.0
H3718 H 0.60121 0.63431 0.13629 0.0
H3719 H 0.57944 0.65708 0.13271 0.0
H3720 H 0.47283 0.62788 0.13637 0.0
H3721 H 0.44911 0.60717 0.13925 0.0
H3722 H 0.4175 0.64533 0.16462 0.0
H3723 H 0.44131 0.66616 0.162 0.0
H3724 H 0.4185 0.6142 0.1819 0.0
H3725 H 0.40298 0.60432 0.11315 0.0
H3726 H 0.42574 0.60149 0.11792 0.0
H3727 H 0.41582 0.62225 0.12068 0.0
C3728 C 0.46078 0.63196 0.14241 0.0
C3729 C 0.45896 0.64869 0.14894 0.0
C3730 C 0.4472 0.62011 0.14396 0.0
C3731 C 0.43147 0.62479 0.15194 0.0
C3732 C 0.42951 0.64151 0.15833 0.0
H3733 H 0.34027 0.55782 0.15074 0.0
H3734 H 0.35973 0.58256 0.14838 0.0
C3735 C 0.44312 0.6534 0.15679 0.0
C3736 C 0.41748 0.6119 0.15437 0.0
H3737 H 0.39175 0.58344 0.13273 0.0
C3738 C 0.41251 0.60758 0.17116 0.0
C3739 C 0.40954 0.60345 0.14033 0.0
C3740 C 0.41365 0.60822 0.122 0.0
C3741 C 0.40021 0.59459 0.1743 0.0
C3742 C 0.39295 0.58554 0.16028 0.0
C3743 C 0.39749 0.59027 0.14348 0.0
C3744 C 0.38085 0.57091 0.16269 0.0
C3745 C 0.39507 0.59073 0.19259 0.0
C3746 C 0.38629 0.55614 0.17153 0.0
C3747 C 0.37518 0.54198 0.17295 0.0
C3748 C 0.35849 0.54227 0.16541 0.0
C3749 C 0.35304 0.55716 0.1567 0.0
C3750 C 0.36414 0.57131 0.15532 0.0
H3751 H 0.39777 0.60178 0.2012 0.0
H3752 H 0.38099 0.58743 0.19352 0.0
H3753 H 0.40278 0.57962 0.19728 0.0
H3754 H 0.39928 0.55543 0.177 0.0
H3755 H 0.37981 0.53069 0.17966 0.0
H3756 H 0.45493 0.36705 0.16076 0.0
H3757 H 0.432 0.38884 0.16119 0.0
H3758 H 0.39502 0.35194 0.14168 0.0
H3759 H 0.41785 0.32993 0.14137 0.0
H3760 H 0.41302 0.40026 0.13262 0.0
H3761 H 0.36916 0.37333 0.18272 0.0
H3762 H 0.39147 0.36627 0.18003 0.0
H3763 H 0.37479 0.35891 0.16558 0.0
C3764 C 0.44189 0.36349 0.15671 0.0
C3765 C 0.43822 0.34673 0.15104 0.0
C3766 C 0.42881 0.37597 0.15695 0.0
C3767 C 0.41179 0.37196 0.15163 0.0
C3768 C 0.408 0.35522 0.14613 0.0
H3769 H 0.3195 0.43739 0.14117 0.0
H3770 H 0.33978 0.41304 0.14063 0.0
C3771 C 0.42109 0.34269 0.14589 0.0
C3772 C 0.39832 0.38559 0.15105 0.0
H3773 H 0.35929 0.39817 0.16818 0.0
C3774 C 0.40127 0.39981 0.14039 0.0
C3775 C 0.38296 0.38488 0.16111 0.0
C3776 C 0.37939 0.37011 0.17313 0.0
C3777 C 0.3893 0.41341 0.13957 0.0
C3778 C 0.37412 0.41288 0.14991 0.0
C3779 C 0.37097 0.39851 0.16031 0.0
C3780 C 0.36173 0.42746 0.15053 0.0
C3781 C 0.39293 0.42817 0.12755 0.0
C3782 C 0.36731 0.4435 0.15656 0.0
C3783 C 0.35581 0.4574 0.15688 0.0
C3784 C 0.33845 0.4555 0.15125 0.0
C3785 C 0.3328 0.4393 0.14552 0.0
C3786 C 0.34434 0.42538 0.14522 0.0
H3787 H 0.40235 0.42452 0.11733 0.0
H3788 H 0.38071 0.43279 0.12142 0.0
H3789 H 0.39868 0.43895 0.13493 0.0
H3790 H 0.38059 0.44528 0.16102 0.0
H3791 H 0.36057 0.46965 0.16148 0.0
H3792 H 0.85196 0.52341 0.61665 0.0
H3793 H 0.85282 0.54799 0.59733 0.0
H3794 H 0.88285 0.57648 0.63448 0.0
H3795 H 0.88193 0.55188 0.65412 0.0
H3796 H 0.85455 0.59495 0.62032 0.0
H3797 H 0.89499 0.56489 0.56957 0.0
H3798 H 0.87643 0.55212 0.57551 0.0
H3799 H 0.89338 0.55617 0.59099 0.0
C3800 C 0.85883 0.53485 0.62074 0.0
C3801 C 0.86695 0.53565 0.63691 0.0
C3802 C 0.85938 0.54886 0.60962 0.0
C3803 C 0.86814 0.56393 0.61437 0.0
C3804 C 0.87613 0.56489 0.63055 0.0
H3805 H 0.88553 0.64449 0.53824 0.0
H3806 H 0.88995 0.62365 0.5613 0.0
C3807 C 0.87561 0.55083 0.64172 0.0
C3808 C 0.8684 0.57876 0.60252 0.0
H3809 H 0.87928 0.59025 0.56165 0.0
C3810 C 0.86014 0.59403 0.60756 0.0
C3811 C 0.87593 0.5776 0.58598 0.0
C3812 C 0.88584 0.56187 0.58022 0.0
C3813 C 0.85852 0.60792 0.59619 0.0
C3814 C 0.86511 0.60635 0.5793 0.0
C3815 C 0.87406 0.59136 0.57454 0.0
C3816 C 0.86239 0.61981 0.56614 0.0
C3817 C 0.84973 0.62412 0.60236 0.0
C3818 C 0.84542 0.6245 0.56118 0.0
C3819 C 0.84283 0.63642 0.54802 0.0
C3820 C 0.85719 0.64375 0.53948 0.0
C3821 C 0.87418 0.63908 0.54455 0.0
C3822 C 0.87675 0.62719 0.55773 0.0
H3823 H 0.85026 0.62523 0.61657 0.0
H3824 H 0.85589 0.63568 0.59664 0.0
H3825 H 0.83578 0.62387 0.59851 0.0
H3826 H 0.83415 0.61865 0.56722 0.0
H3827 H 0.82958 0.63966 0.54437 0.0
H3828 H 0.89829 0.47112 0.37555 0.0
H3829 H 0.89629 0.44668 0.39512 0.0
H3830 H 0.86189 0.42085 0.35972 0.0
H3831 H 0.8639 0.44516 0.33998 0.0
H3832 H 0.86461 0.4348 0.40967 0.0
H3833 H 0.89802 0.38363 0.37234 0.0
H3834 H 0.9006 0.40616 0.36752 0.0
H3835 H 0.88116 0.39502 0.36103 0.0
C3836 C 0.8905 0.46015 0.37179 0.0
C3837 C 0.88125 0.4601 0.3562 0.0
C3838 C 0.88935 0.44621 0.38301 0.0
C3839 C 0.87907 0.43192 0.37879 0.0
C3840 C 0.87014 0.43163 0.36308 0.0
H3841 H 0.85056 0.3392 0.43456 0.0
H3842 H 0.85368 0.36198 0.41311 0.0
C3843 C 0.87125 0.44558 0.35185 0.0
C3844 C 0.87675 0.41787 0.39138 0.0
H3845 H 0.88363 0.37508 0.39788 0.0
C3846 C 0.86883 0.42175 0.40714 0.0
C3847 C 0.88212 0.40086 0.38793 0.0
C3848 C 0.89108 0.39612 0.37135 0.0
C3849 C 0.86599 0.40902 0.41955 0.0
C3850 C 0.87159 0.39203 0.41623 0.0
C3851 C 0.87937 0.38812 0.40039 0.0
C3852 C 0.86975 0.37823 0.42918 0.0
C3853 C 0.85672 0.41382 0.43596 0.0
C3854 C 0.87795 0.37972 0.44521 0.0
C3855 C 0.87611 0.36681 0.4575 0.0
C3856 C 0.86619 0.35204 0.45392 0.0
C3857 C 0.85824 0.35044 0.43773 0.0
C3858 C 0.86003 0.36342 0.42546 0.0
H3859 H 0.84895 0.42578 0.43444 0.0
H3860 H 0.84787 0.40339 0.44027 0.0
H3861 H 0.86655 0.4161 0.44618 0.0
H3862 H 0.88586 0.39085 0.4482 0.0
H3863 H 0.88256 0.36839 0.46978 0.0
H3864 H 0.52499 0.85283 0.36228 0.0
H3865 H 0.54942 0.84918 0.38214 0.0
H3866 H 0.58285 0.83451 0.3401 0.0
H3867 H 0.55848 0.83815 0.32004 0.0
H3868 H 0.56942 0.81748 0.38661 0.0
H3869 H 0.61004 0.87316 0.36624 0.0
H3870 H 0.58699 0.87174 0.36149 0.0
H3871 H 0.60235 0.85902 0.34962 0.0
C3872 C 0.53756 0.84896 0.3572 0.0
C3873 C 0.53979 0.8458 0.33956 0.0
C3874 C 0.55148 0.84684 0.36858 0.0
C3875 C 0.56791 0.84168 0.36255 0.0
C3876 C 0.57029 0.83869 0.34495 0.0
H3877 H 0.66538 0.82973 0.41997 0.0
H3878 H 0.64351 0.8293 0.39703 0.0
C3879 C 0.55634 0.84073 0.33353 0.0
C3880 C 0.58237 0.83899 0.37484 0.0
H3881 H 0.62134 0.85556 0.38815 0.0
C3882 C 0.58083 0.82574 0.38693 0.0
C3883 C 0.59725 0.84971 0.37507 0.0
C3884 C 0.59933 0.8643 0.36251 0.0
C3885 C 0.59373 0.82303 0.39942 0.0
C3886 C 0.60836 0.83411 0.40004 0.0
C3887 C 0.61011 0.84708 0.38765 0.0
C3888 C 0.62147 0.83312 0.41399 0.0
C3889 C 0.59162 0.80826 0.41177 0.0
C3890 C 0.61632 0.83539 0.43112 0.0
C3891 C 0.62874 0.83557 0.44424 0.0
C3892 C 0.6466 0.83366 0.44047 0.0
C3893 C 0.65172 0.83118 0.42331 0.0
C3894 C 0.63926 0.83097 0.41018 0.0
H3895 H 0.58311 0.79806 0.40634 0.0
H3896 H 0.60445 0.80252 0.41515 0.0
H3897 H 0.58539 0.81299 0.42373 0.0
H3898 H 0.60271 0.83748 0.43432 0.0
H3899 H 0.62434 0.83762 0.4573 0.0
H3900 H 0.14121 0.65656 0.43079 0.0
H3901 H 0.13722 0.63432 0.40893 0.0
H3902 H 0.10585 0.6049 0.44423 0.0
H3903 H 0.10966 0.62704 0.46612 0.0
H3904 H 0.14647 0.59898 0.41159 0.0
H3905 H 0.07536 0.60772 0.40056 0.0
H3906 H 0.0887 0.62372 0.41103 0.0
H3907 H 0.08142 0.60515 0.42268 0.0
C3908 C 0.1334 0.64539 0.43389 0.0
C3909 C 0.12571 0.6436 0.45018 0.0
C3910 C 0.13114 0.63271 0.42138 0.0
C3911 C 0.12102 0.61812 0.4249 0.0
C3912 C 0.11342 0.61623 0.44116 0.0
H3913 H 0.09416 0.52323 0.37515 0.0
H3914 H 0.09682 0.54834 0.39376 0.0
C3915 C 0.11571 0.62886 0.45369 0.0
C3916 C 0.11892 0.60452 0.4118 0.0
H3917 H 0.08837 0.58276 0.38844 0.0
C3918 C 0.13381 0.59551 0.40638 0.0
C3919 C 0.10237 0.60005 0.4051 0.0
C3920 C 0.08605 0.60975 0.41 0.0
C3921 C 0.13251 0.58175 0.39483 0.0
C3922 C 0.11591 0.57714 0.38827 0.0
C3923 C 0.10106 0.58633 0.39349 0.0
C3924 C 0.11363 0.56242 0.37645 0.0
C3925 C 0.14883 0.57188 0.39024 0.0
C3926 C 0.12186 0.5622 0.36035 0.0
C3927 C 0.12042 0.54784 0.3497 0.0
C3928 C 0.1106 0.53349 0.3549 0.0
C3929 C 0.10186 0.53403 0.37077 0.0
C3930 C 0.10336 0.54837 0.38142 0.0
H3931 H 0.15961 0.57437 0.39946 0.0
H3932 H 0.14622 0.55787 0.38992 0.0
H3933 H 0.15333 0.57587 0.37731 0.0
H3934 H 0.12954 0.57307 0.35611 0.0
H3935 H 0.12722 0.54789 0.33751 0.0
H3936 H 0.46145 0.13937 0.37092 0.0
H3937 H 0.43697 0.1421 0.39081 0.0
H3938 H 0.40184 0.15025 0.34833 0.0
H3939 H 0.4263 0.14748 0.3282 0.0
H3940 H 0.41414 0.17174 0.39349 0.0
H3941 H 0.37871 0.11141 0.37751 0.0
H3942 H 0.40142 0.11465 0.37212 0.0
H3943 H 0.38467 0.12508 0.35985 0.0
C3944 C 0.44851 0.14162 0.36574 0.0
C3945 C 0.44583 0.14319 0.34795 0.0
C3946 C 0.43455 0.14321 0.37715 0.0
C3947 C 0.41763 0.14626 0.37101 0.0
C3948 C 0.41481 0.14768 0.35328 0.0
H3949 H 0.32011 0.15437 0.42889 0.0
H3950 H 0.34173 0.1544 0.40574 0.0
C3951 C 0.4288 0.14615 0.34182 0.0
C3952 C 0.4031 0.14845 0.38333 0.0
H3953 H 0.36605 0.12936 0.39842 0.0
C3954 C 0.40357 0.16253 0.39454 0.0
C3955 C 0.38931 0.13647 0.38453 0.0
C3956 C 0.38844 0.12096 0.37297 0.0
C3957 C 0.39066 0.16487 0.4071 0.0
C3958 C 0.37715 0.15258 0.40869 0.0
C3959 C 0.37644 0.13873 0.39718 0.0
C3960 C 0.3641 0.15342 0.4227 0.0
C3961 C 0.39155 0.18053 0.41846 0.0
C3962 C 0.36951 0.1528 0.4399 0.0
C3963 C 0.35722 0.15285 0.45314 0.0
C3964 C 0.33925 0.15335 0.44943 0.0
C3965 C 0.33385 0.15402 0.43218 0.0
C3966 C 0.34618 0.15401 0.41894 0.0
H3967 H 0.39913 0.19103 0.41232 0.0
H3968 H 0.37828 0.1854 0.42156 0.0
H3969 H 0.39819 0.17711 0.43064 0.0
H3970 H 0.38326 0.15193 0.44308 0.0
H3971 H 0.36182 0.15218 0.46627 0.0
H3972 H 0.11249 0.44686 0.64939 0.0
H3973 H 0.11293 0.42252 0.62944 0.0
H3974 H 0.15807 0.44392 0.60419 0.0
H3975 H 0.15788 0.46808 0.62407 0.0
H3976 H 0.10995 0.42412 0.59366 0.0
H3977 H 0.17274 0.39419 0.61262 0.0
H3978 H 0.16156 0.40964 0.62595 0.0
H3979 H 0.17459 0.4167 0.60808 0.0
C3980 C 0.12261 0.44628 0.6397 0.0
C3981 C 0.13517 0.45939 0.63834 0.0
C3982 C 0.12283 0.43239 0.62832 0.0
C3983 C 0.1357 0.4313 0.61552 0.0
C3984 C 0.14827 0.44432 0.61421 0.0
H3985 H 0.15923 0.37163 0.52592 0.0
H3986 H 0.15808 0.39194 0.54983 0.0
C3987 C 0.14805 0.45819 0.62553 0.0
C3988 C 0.13549 0.41711 0.60288 0.0
H3989 H 0.16073 0.38533 0.5857 0.0
C3990 C 0.12094 0.41547 0.59205 0.0
C3991 C 0.14988 0.4059 0.60081 0.0
C3992 C 0.16551 0.40655 0.61259 0.0
C3993 C 0.12066 0.40334 0.57874 0.0
C3994 C 0.13523 0.39241 0.57642 0.0
C3995 C 0.14962 0.39379 0.58749 0.0
C3996 C 0.13602 0.37981 0.56222 0.0
C3997 C 0.10508 0.40273 0.56688 0.0
C3998 C 0.12413 0.36613 0.56144 0.0
C3999 C 0.12473 0.35451 0.54779 0.0
C4000 C 0.13729 0.35633 0.53472 0.0
C4001 C 0.14936 0.36989 0.53573 0.0
C4002 C 0.14875 0.38149 0.54939 0.0
H4003 H 0.0968 0.41438 0.56808 0.0
H4004 H 0.10932 0.40144 0.55331 0.0
H4005 H 0.09694 0.39141 0.57012 0.0
H4006 H 0.1144 0.36445 0.57138 0.0
H4007 H 0.1153 0.34416 0.54745 0.0
H4008 H 0.64657 0.18685 0.55474 0.0
H4009 H 0.62552 0.18273 0.57803 0.0
H4010 H 0.62397 0.12847 0.5672 0.0
H4011 H 0.6447 0.13248 0.54375 0.0
H4012 H 0.59153 0.14222 0.57045 0.0
H4013 H 0.63312 0.16186 0.62535 0.0
H4014 H 0.63185 0.17768 0.60865 0.0
H4015 H 0.64195 0.15728 0.60435 0.0
C4016 C 0.64182 0.17403 0.55737 0.0
C4017 C 0.64732 0.16 0.54738 0.0
C4018 C 0.62989 0.17168 0.57077 0.0
C4019 C 0.62341 0.15525 0.57452 0.0
C4020 C 0.62889 0.14124 0.56458 0.0
H4021 H 0.56109 0.12644 0.66402 0.0
H4022 H 0.58438 0.12907 0.64256 0.0
C4023 C 0.64073 0.14358 0.55116 0.0
C4024 C 0.61025 0.15271 0.58823 0.0
H4025 H 0.60269 0.15839 0.63106 0.0
C4026 C 0.59401 0.14567 0.58372 0.0
C4027 C 0.6136 0.15699 0.60558 0.0
C4028 C 0.63113 0.16371 0.61134 0.0
C4029 C 0.58088 0.14315 0.596 0.0
C4030 C 0.58396 0.14812 0.6132 0.0
C4031 C 0.60033 0.15476 0.61783 0.0
C4032 C 0.57015 0.14685 0.62643 0.0
C4033 C 0.56386 0.13507 0.59047 0.0
C4034 C 0.55463 0.15621 0.62461 0.0
C4035 C 0.54133 0.15471 0.63675 0.0
C4036 C 0.54335 0.1439 0.65108 0.0
C4037 C 0.5591 0.13482 0.6531 0.0
C4038 C 0.57242 0.13632 0.64088 0.0
H4039 H 0.56535 0.12776 0.57832 0.0
H4040 H 0.55875 0.12629 0.60051 0.0
H4041 H 0.55403 0.14531 0.58828 0.0
H4042 H 0.55277 0.16468 0.61373 0.0
H4043 H 0.52944 0.16201 0.63485 0.0
H4044 H 0.45854 0.85785 0.62957 0.0
H4045 H 0.43379 0.85279 0.61045 0.0
H4046 H 0.40213 0.83764 0.65362 0.0
H4047 H 0.42687 0.84266 0.67296 0.0
H4048 H 0.41511 0.81954 0.60784 0.0
H4049 H 0.37274 0.87464 0.62652 0.0
H4050 H 0.39601 0.87453 0.63046 0.0
H4051 H 0.3818 0.86163 0.64342 0.0
C4052 C 0.44628 0.85359 0.63507 0.0
C4053 C 0.44468 0.85065 0.65281 0.0
C4054 C 0.43218 0.85067 0.6241 0.0
C4055 C 0.41617 0.84492 0.63066 0.0
C4056 C 0.41437 0.84223 0.64837 0.0
H4057 H 0.31901 0.82882 0.57349 0.0
H4058 H 0.34062 0.82945 0.59667 0.0
C4059 C 0.42852 0.84508 0.65938 0.0
C4060 C 0.40163 0.84119 0.61876 0.0
H4061 H 0.36222 0.85625 0.60493 0.0
C4062 C 0.40347 0.82748 0.60724 0.0
C4063 C 0.38645 0.85149 0.6182 0.0
C4064 C 0.38404 0.86648 0.63021 0.0
C4065 C 0.39062 0.82394 0.59492 0.0
C4066 C 0.37575 0.83467 0.59385 0.0
C4067 C 0.37365 0.84806 0.60575 0.0
C4068 C 0.3628 0.83296 0.57982 0.0
C4069 C 0.39309 0.80873 0.58317 0.0
C4070 C 0.36812 0.8347 0.56268 0.0
C4071 C 0.35585 0.83427 0.54943 0.0
C4072 C 0.33797 0.83229 0.55307 0.0
C4073 C 0.33268 0.83032 0.57025 0.0
C4074 C 0.345 0.83071 0.58351 0.0
H4075 H 0.4017 0.79889 0.58909 0.0
H4076 H 0.38039 0.80267 0.57989 0.0
H4077 H 0.39939 0.81307 0.57111 0.0
H4078 H 0.38173 0.83687 0.55956 0.0
H4079 H 0.36037 0.83594 0.53636 0.0
loop_
_geom_bond_atom_site_label_1
_geom_bond_atom_site_label_2
_geom_bond_distance
_geom_bond_site_symmetry_2
_ccdc_geom_bond_type
C0 O1 1.160 . S
C0 O7 1.185 . S
O1 C0 1.160 . S
O2 Zn3 1.899 . S
O2 C10 1.284 . S
Zn3 O2 1.899 . S
Zn3 O4 2.032 . S
Zn3 O7 2.086 . S
Zn3 O12 1.977 . S
O4 Zn3 2.032 . S
O4 C8 1.278 1_455 S
C5 O6 1.203 . S
C5 O12 1.267 . S
O6 C5 1.203 . S
O7 C0 1.185 . S
O7 Zn3 2.086 . S
C8 O4 1.278 1_655 S
C8 O9 1.211 . S
O9 C8 1.211 . S
C10 O2 1.284 . S
C10 O11 1.273 . S
O11 C10 1.273 . S
O12 Zn3 1.977 . S
O12 C5 1.267 . S
C13 O14 1.160 . S
C13 O20 1.185 . S
O14 C13 1.160 . S
O15 Zn16 1.899 . S
O15 C23 1.284 . S
Zn16 O15 1.899 . S
Zn16 O17 2.032 . S
Zn16 O20 2.086 . S
Zn16 O25 1.977 1_545 S
O17 Zn16 2.032 . S
O17 C21 1.278 . S
C18 O19 1.203 . S
C18 O25 1.267 . S
O19 C18 1.203 . S
O20 C13 1.185 . S
O20 Zn16 2.086 . S
C21 O17 1.278 . S
C21 O22 1.211 . S
O22 C21 1.211 . S
C23 O15 1.284 . S
C23 O24 1.273 . S
O24 C23 1.273 . S
O25 Zn16 1.977 1_565 S
O25 C18 1.267 . S
C26 O27 1.160 . S
C26 O33 1.185 . S
O27 C26 1.160 . S
O28 Zn29 1.899 . S
O28 C36 1.284 . S
Zn29 O28 1.899 . S
Zn29 O30 2.032 . S
Zn29 O33 2.086 . S
Zn29 O38 1.977 . S
O30 Zn29 2.032 . S
O30 C34 1.278 1_655 S
C31 O32 1.203 . S
C31 O38 1.267 . S
O32 C31 1.203 . S
O33 C26 1.185 . S
O33 Zn29 2.086 . S
C34 O30 1.278 1_455 S
C34 O35 1.211 . S
O35 C34 1.211 . S
C36 O28 1.284 . S
C36 O37 1.273 . S
O37 C36 1.273 . S
O38 Zn29 1.977 . S
O38 C31 1.267 . S
C39 O40 1.160 . S
C39 O46 1.185 . S
O40 C39 1.160 . S
O41 Zn42 1.899 . S
O41 C49 1.284 . S
Zn42 O41 1.899 . S
Zn42 O43 2.032 . S
Zn42 O46 2.086 . S
Zn42 O51 1.977 1_565 S
O43 Zn42 2.032 . S
O43 C47 1.278 . S
C44 O45 1.203 . S
C44 O51 1.267 . S
O45 C44 1.203 . S
O46 C39 1.185 . S
O46 Zn42 2.086 . S
C47 O43 1.278 . S
C47 O48 1.211 . S
O48 C47 1.211 . S
C49 O41 1.284 . S
C49 O50 1.273 . S
O50 C49 1.273 . S
O51 Zn42 1.977 1_545 S
O51 C44 1.267 . S
C52 O53 1.160 . S
C52 O59 1.185 . S
O53 C52 1.160 . S
O54 Zn55 1.899 . S
O54 C62 1.284 . S
Zn55 O54 1.899 . S
Zn55 O56 2.032 . S
Zn55 O59 2.086 . S
Zn55 O64 1.977 . S
O56 Zn55 2.032 . S
O56 C60 1.278 1_455 S
C57 O58 1.203 . S
C57 O64 1.267 . S
O58 C57 1.203 . S
O59 C52 1.185 . S
O59 Zn55 2.086 . S
C60 O56 1.278 1_655 S
C60 O61 1.211 . S
O61 C60 1.211 . S
C62 O54 1.284 . S
C62 O63 1.273 . S
O63 C62 1.273 . S
O64 Zn55 1.977 . S
O64 C57 1.267 . S
C65 O66 1.160 . S
C65 O72 1.185 . S
O66 C65 1.160 . S
O67 Zn68 1.899 . S
O67 C75 1.284 . S
Zn68 O67 1.899 . S
Zn68 O69 2.032 . S
Zn68 O72 2.086 . S
Zn68 O77 1.977 1_545 S
O69 Zn68 2.032 . S
O69 C73 1.278 . S
C70 O71 1.203 . S
C70 O77 1.267 . S
O71 C70 1.203 . S
O72 C65 1.185 . S
O72 Zn68 2.086 . S
C73 O69 1.278 . S
C73 O74 1.211 . S
O74 C73 1.211 . S
C75 O67 1.284 . S
C75 O76 1.273 . S
O76 C75 1.273 . S
O77 Zn68 1.977 1_565 S
O77 C70 1.267 . S
C78 O79 1.160 . S
C78 O85 1.185 . S
O79 C78 1.160 . S
O80 Zn81 1.899 . S
O80 C88 1.284 . S
Zn81 O80 1.899 . S
Zn81 O82 2.032 . S
Zn81 O85 2.086 . S
Zn81 O90 1.977 . S
O82 Zn81 2.032 . S
O82 C86 1.278 1_655 S
C83 O84 1.203 . S
C83 O90 1.267 . S
O84 C83 1.203 . S
O85 C78 1.185 . S
O85 Zn81 2.086 . S
C86 O82 1.278 1_455 S
C86 O87 1.211 . S
O87 C86 1.211 . S
C88 O80 1.284 . S
C88 O89 1.273 . S
O89 C88 1.273 . S
O90 Zn81 1.977 . S
O90 C83 1.267 . S
C91 O92 1.160 . S
C91 O98 1.185 . S
O92 C91 1.160 . S
O93 Zn94 1.899 . S
O93 C101 1.284 . S
Zn94 O93 1.899 . S
Zn94 O95 2.032 . S
Zn94 O98 2.086 . S
Zn94 O103 1.977 1_565 S
O95 Zn94 2.032 . S
O95 C99 1.278 . S
C96 O97 1.203 . S
C96 O103 1.267 . S
O97 C96 1.203 . S
O98 C91 1.185 . S
O98 Zn94 2.086 . S
C99 O95 1.278 . S
C99 O100 1.211 . S
O100 C99 1.211 . S
C101 O93 1.284 . S
C101 O102 1.273 . S
O102 C101 1.273 . S
O103 Zn94 1.977 1_545 S
O103 C96 1.267 . S
C104 O105 1.160 . S
C104 O111 1.185 . S
O105 C104 1.160 . S
O106 Zn107 1.899 . S
O106 C114 1.284 . S
Zn107 O106 1.899 . S
Zn107 O108 2.032 . S
Zn107 O111 2.086 . S
Zn107 O116 1.977 . S
O108 Zn107 2.032 . S
O108 C112 1.278 . S
C109 O110 1.178 1_565 S
C109 O116 1.242 1_565 S
O110 C109 1.178 1_545 S
O111 C104 1.185 . S
O111 Zn107 2.086 . S
C112 O108 1.278 . S
C112 O113 1.211 . S
O113 C112 1.211 . S
C114 O106 1.284 . S
C114 O115 1.273 . S
O115 C114 1.273 . S
O116 Zn107 1.977 . S
O116 C109 1.242 1_545 S
C117 O118 1.160 . S
C117 O124 1.185 . S
O118 C117 1.160 . S
O119 Zn120 1.899 . S
O119 C127 1.284 . S
Zn120 O119 1.899 . S
Zn120 O121 2.032 . S
Zn120 O124 2.086 . S
Zn120 O129 1.977 . S
O121 Zn120 2.032 . S
O121 C125 1.278 1_655 S
C122 O123 1.203 . S
C122 O129 1.267 . S
O123 C122 1.203 . S
O124 C117 1.185 . S
O124 Zn120 2.086 . S
C125 O121 1.278 1_455 S
C125 O126 1.211 . S
O126 C125 1.211 . S
C127 O119 1.284 . S
C127 O128 1.273 . S
O128 C127 1.273 . S
O129 Zn120 1.977 . S
O129 C122 1.267 . S
C130 O131 1.160 . S
C130 O137 1.185 . S
O131 C130 1.160 . S
O132 Zn133 1.899 . S
O132 C140 1.284 . S
Zn133 O132 1.899 . S
Zn133 O134 2.032 . S
Zn133 O137 2.086 . S
Zn133 O142 1.977 . S
O134 Zn133 2.032 . S
O134 C138 1.278 . S
C135 O136 1.178 1_545 S
C135 O142 1.242 1_545 S
O136 C135 1.178 1_565 S
O137 C130 1.185 . S
O137 Zn133 2.086 . S
C138 O134 1.278 . S
C138 O139 1.211 . S
O139 C138 1.211 . S
C140 O132 1.284 . S
C140 O141 1.273 . S
O141 C140 1.273 . S
O142 Zn133 1.977 . S
O142 C135 1.242 1_565 S
C143 O144 1.160 . S
C143 O150 1.185 . S
O144 C143 1.160 . S
O145 Zn146 1.899 . S
O145 C153 1.284 . S
Zn146 O145 1.899 . S
Zn146 O147 2.032 . S
Zn146 O150 2.086 . S
Zn146 O155 1.977 . S
O147 Zn146 2.032 . S
O147 C151 1.278 1_455 S
C148 O149 1.203 . S
C148 O155 1.267 . S
O149 C148 1.203 . S
O150 C143 1.185 . S
O150 Zn146 2.086 . S
C151 O147 1.278 1_655 S
C151 O152 1.211 . S
O152 C151 1.211 . S
C153 O145 1.284 . S
C153 O154 1.273 . S
O154 C153 1.273 . S
O155 Zn146 1.977 . S
O155 C148 1.267 . S
C156 O157 1.160 . S
C156 O163 1.185 . S
O157 C156 1.160 . S
O158 Zn159 1.899 . S
O158 C166 1.284 . S
Zn159 O158 1.899 . S
Zn159 O160 2.032 . S
Zn159 O163 2.086 . S
Zn159 O168 1.977 . S
O160 Zn159 2.032 . S
O160 C164 1.278 . S
C161 O162 1.178 1_545 S
C161 O168 1.242 1_545 S
O162 C161 1.178 1_565 S
O163 C156 1.185 . S
O163 Zn159 2.086 . S
C164 O160 1.278 . S
C164 O165 1.211 . S
O165 C164 1.211 . S
C166 O158 1.284 . S
C166 O167 1.273 . S
O167 C166 1.273 . S
O168 Zn159 1.977 . S
O168 C161 1.242 1_565 S
C169 O170 1.160 . S
C169 O176 1.185 . S
O170 C169 1.160 . S
O171 Zn172 1.899 . S
O171 C179 1.284 . S
Zn172 O171 1.899 . S
Zn172 O173 2.032 . S
Zn172 O176 2.086 . S
Zn172 O181 1.977 . S
O173 Zn172 2.032 . S
O173 C177 1.278 1_455 S
C174 O175 1.203 . S
C174 O181 1.267 . S
O175 C174 1.203 . S
O176 C169 1.185 . S
O176 Zn172 2.086 . S
C177 O173 1.278 1_655 S
C177 O178 1.211 . S
O178 C177 1.211 . S
C179 O171 1.284 . S
C179 O180 1.273 . S
O180 C179 1.273 . S
O181 Zn172 1.977 . S
O181 C174 1.267 . S
C182 O183 1.160 . S
C182 O189 1.185 . S
O183 C182 1.160 . S
O184 Zn185 1.899 . S
O184 C192 1.284 . S
Zn185 O184 1.899 . S
Zn185 O186 2.032 . S
Zn185 O189 2.086 . S
Zn185 O194 1.977 . S
O186 Zn185 2.032 . S
O186 C190 1.278 . S
C187 O188 1.178 1_565 S
C187 O194 1.242 1_565 S
O188 C187 1.178 1_545 S
O189 C182 1.185 . S
O189 Zn185 2.086 . S
C190 O186 1.278 . S
C190 O191 1.211 . S
O191 C190 1.211 . S
C192 O184 1.284 . S
C192 O193 1.273 . S
O193 C192 1.273 . S
O194 Zn185 1.977 . S
O194 C187 1.242 1_545 S
C195 O196 1.160 . S
C195 O202 1.185 . S
O196 C195 1.160 . S
O197 Zn198 1.899 . S
O197 C205 1.284 . S
Zn198 O197 1.899 . S
Zn198 O199 2.032 . S
Zn198 O202 2.086 . S
Zn198 O207 1.977 . S
O199 Zn198 2.032 . S
O199 C203 1.278 1_655 S
C200 O201 1.203 . S
C200 O207 1.267 . S
O201 C200 1.203 . S
O202 C195 1.185 . S
O202 Zn198 2.086 . S
C203 O199 1.278 1_455 S
C203 O204 1.211 . S
O204 C203 1.211 . S
C205 O197 1.284 . S
C205 O206 1.273 . S
O206 C205 1.273 . S
O207 Zn198 1.977 . S
O207 C200 1.267 . S
C208 O209 1.160 . S
C208 O215 1.185 . S
O209 C208 1.160 . S
O210 Zn211 1.899 . S
O210 C218 1.284 . S
Zn211 O210 1.899 . S
Zn211 O212 2.032 . S
Zn211 O215 2.086 . S
Zn211 O220 1.977 1_554 S
O212 Zn211 2.032 . S
O212 C216 1.278 . S
C213 O214 1.203 . S
C213 O220 1.267 . S
O214 C213 1.203 . S
O215 C208 1.185 . S
O215 Zn211 2.086 . S
C216 O212 1.278 . S
C216 O217 1.211 . S
O217 C216 1.211 . S
C218 O210 1.284 . S
C218 O219 1.273 . S
O219 C218 1.273 . S
O220 Zn211 1.977 1_556 S
O220 C213 1.267 . S
C221 O222 1.160 . S
C221 O228 1.185 . S
O222 C221 1.160 . S
O223 Zn224 1.899 . S
O223 C231 1.284 . S
Zn224 O223 1.899 . S
Zn224 O225 2.032 . S
Zn224 O228 2.086 . S
Zn224 O233 1.977 1_556 S
O225 Zn224 2.032 . S
O225 C229 1.278 . S
C226 O227 1.203 . S
C226 O233 1.267 . S
O227 C226 1.203 . S
O228 C221 1.185 . S
O228 Zn224 2.086 . S
C229 O225 1.278 . S
C229 O230 1.211 . S
O230 C229 1.211 . S
C231 O223 1.284 . S
C231 O232 1.273 . S
O232 C231 1.273 . S
O233 Zn224 1.977 1_554 S
O233 C226 1.267 . S
C234 O235 1.160 . S
C234 O241 1.185 . S
O235 C234 1.160 . S
O236 Zn237 1.899 . S
O236 C244 1.284 . S
Zn237 O236 1.899 . S
Zn237 O238 2.032 . S
Zn237 O241 2.086 . S
Zn237 O246 1.977 . S
O238 Zn237 2.032 . S
O238 C242 1.278 . S
C239 O240 1.178 1_554 S
C239 O246 1.242 1_554 S
O240 C239 1.178 1_556 S
O241 C234 1.185 . S
O241 Zn237 2.086 . S
C242 O238 1.278 . S
C242 O243 1.211 . S
O243 C242 1.211 . S
C244 O236 1.284 . S
C244 O245 1.273 . S
O245 C244 1.273 . S
O246 Zn237 1.977 . S
O246 C239 1.242 1_556 S
C247 O248 1.160 . S
C247 O254 1.185 . S
O248 C247 1.160 . S
O249 Zn250 1.899 . S
O249 C257 1.284 . S
Zn250 O249 1.899 . S
Zn250 O251 2.032 . S
Zn250 O254 2.086 . S
Zn250 O259 1.977 1_556 S
O251 Zn250 2.032 . S
O251 C255 1.278 . S
C252 O253 1.203 . S
C252 O259 1.267 . S
O253 C252 1.203 . S
O254 C247 1.185 . S
O254 Zn250 2.086 . S
C255 O251 1.278 . S
C255 O256 1.211 . S
O256 C255 1.211 . S
C257 O249 1.284 . S
C257 O258 1.273 . S
O258 C257 1.273 . S
O259 Zn250 1.977 1_554 S
O259 C252 1.267 . S
C260 O261 1.160 . S
C260 O267 1.185 . S
O261 C260 1.160 . S
O262 Zn263 1.899 . S
O262 C270 1.284 . S
Zn263 O262 1.899 . S
Zn263 O264 2.032 . S
Zn263 O267 2.086 . S
Zn263 O272 1.977 . S
O264 Zn263 2.032 . S
O264 C268 1.278 . S
C265 O266 1.178 1_554 S
C265 O272 1.242 1_554 S
O266 C265 1.178 1_556 S
O267 C260 1.185 . S
O267 Zn263 2.086 . S
C268 O264 1.278 . S
C268 O269 1.211 . S
O269 C268 1.211 . S
C270 O262 1.284 . S
C270 O271 1.273 . S
O271 C270 1.273 . S
O272 Zn263 1.977 . S
O272 C265 1.242 1_556 S
C273 O274 1.160 . S
C273 O280 1.185 . S
O274 C273 1.160 . S
O275 Zn276 1.899 . S
O275 C283 1.284 . S
Zn276 O275 1.899 . S
Zn276 O277 2.032 . S
Zn276 O280 2.086 . S
Zn276 O285 1.977 1_554 S
O277 Zn276 2.032 . S
O277 C281 1.278 . S
C278 O279 1.203 . S
C278 O285 1.267 . S
O279 C278 1.203 . S
O280 C273 1.185 . S
O280 Zn276 2.086 . S
C281 O277 1.278 . S
C281 O282 1.211 . S
O282 C281 1.211 . S
C283 O275 1.284 . S
C283 O284 1.273 . S
O284 C283 1.273 . S
O285 Zn276 1.977 1_556 S
O285 C278 1.267 . S
C286 O287 1.160 . S
C286 O293 1.185 . S
O287 C286 1.160 . S
O288 Zn289 1.899 . S
O288 C296 1.284 . S
Zn289 O288 1.899 . S
Zn289 O290 2.032 . S
Zn289 O293 2.086 . S
Zn289 O298 1.977 . S
O290 Zn289 2.032 . S
O290 C294 1.278 . S
C291 O292 1.178 1_556 S
C291 O298 1.242 1_556 S
O292 C291 1.178 1_554 S
O293 C286 1.185 . S
O293 Zn289 2.086 . S
C294 O290 1.278 . S
C294 O295 1.211 . S
O295 C294 1.211 . S
C296 O288 1.284 . S
C296 O297 1.273 . S
O297 C296 1.273 . S
O298 Zn289 1.977 . S
O298 C291 1.242 1_554 S
C299 O300 1.160 . S
C299 O306 1.185 . S
O300 C299 1.160 . S
O301 Zn302 1.899 . S
O301 C309 1.284 . S
Zn302 O301 1.899 . S
Zn302 O303 2.032 . S
Zn302 O306 2.086 . S
Zn302 O311 1.977 . S
O303 Zn302 2.032 . S
O303 C307 1.278 . S
C304 O305 1.178 1_556 S
C304 O311 1.242 1_556 S
O305 C304 1.178 1_554 S
O306 C299 1.185 . S
O306 Zn302 2.086 . S
C307 O303 1.278 . S
C307 O308 1.211 . S
O308 C307 1.211 . S
C309 O301 1.284 . S
C309 O310 1.273 . S
O310 C309 1.273 . S
O311 Zn302 1.977 . S
O311 C304 1.242 1_554 S
C312 O313 1.160 . S
C312 O319 1.185 . S
O313 C312 1.160 . S
O314 Zn315 1.899 . S
O314 C322 1.284 . S
Zn315 O314 1.899 . S
Zn315 O316 2.032 . S
Zn315 O319 2.086 . S
Zn315 O324 1.977 . S
O316 Zn315 2.032 . S
O316 C320 1.278 . S
C317 O318 1.203 . S
C317 O324 1.267 . S
O318 C317 1.203 . S
O319 C312 1.185 . S
O319 Zn315 2.086 . S
C320 O316 1.278 . S
C320 O321 1.211 . S
O321 C320 1.211 . S
C322 O314 1.284 . S
C322 O323 1.273 . S
O323 C322 1.273 . S
O324 Zn315 1.977 . S
O324 C317 1.267 . S
C325 O326 1.160 . S
C325 O332 1.185 . S
O326 C325 1.160 . S
O327 Zn328 1.899 . S
O327 C335 1.284 . S
Zn328 O327 1.899 . S
Zn328 O329 2.032 . S
Zn328 O332 2.086 . S
Zn328 O337 1.977 . S
O329 Zn328 2.032 . S
O329 C333 1.278 . S
C330 O331 1.203 . S
C330 O337 1.267 . S
O331 C330 1.203 . S
O332 C325 1.185 . S
O332 Zn328 2.086 . S
C333 O329 1.278 . S
C333 O334 1.211 . S
O334 C333 1.211 . S
C335 O327 1.284 . S
C335 O336 1.273 . S
O336 C335 1.273 . S
O337 Zn328 1.977 . S
O337 C330 1.267 . S
C338 O339 1.160 . S
C338 O345 1.185 . S
O339 C338 1.160 . S
O340 Zn341 1.899 . S
O340 C348 1.284 . S
Zn341 O340 1.899 . S
Zn341 O342 2.032 . S
Zn341 O345 2.086 . S
Zn341 O350 1.977 . S
O342 Zn341 2.032 . S
O342 C346 1.278 . S
C343 O344 1.203 . S
C343 O350 1.267 . S
O344 C343 1.203 . S
O345 C338 1.185 . S
O345 Zn341 2.086 . S
C346 O342 1.278 . S
C346 O347 1.211 . S
O347 C346 1.211 . S
C348 O340 1.284 . S
C348 O349 1.273 . S
O349 C348 1.273 . S
O350 Zn341 1.977 . S
O350 C343 1.267 . S
C351 O352 1.160 . S
C351 O358 1.185 . S
O352 C351 1.160 . S
O353 Zn354 1.899 . S
O353 C361 1.284 . S
Zn354 O353 1.899 . S
Zn354 O355 2.032 . S
Zn354 O358 2.086 . S
Zn354 O363 1.977 . S
O355 Zn354 2.032 . S
O355 C359 1.278 . S
C356 O357 1.203 . S
C356 O363 1.267 . S
O357 C356 1.203 . S
O358 C351 1.185 . S
O358 Zn354 2.086 . S
C359 O355 1.278 . S
C359 O360 1.211 . S
O360 C359 1.211 . S
C361 O353 1.284 . S
C361 O362 1.273 . S
O362 C361 1.273 . S
O363 Zn354 1.977 . S
O363 C356 1.267 . S
C364 O365 1.160 . S
C364 O371 1.185 . S
O365 C364 1.160 . S
O366 Zn367 1.899 . S
O366 C374 1.284 . S
Zn367 O366 1.899 . S
Zn367 O368 2.032 . S
Zn367 O371 2.086 . S
Zn367 O376 1.977 . S
O368 Zn367 2.032 . S
O368 C372 1.278 . S
C369 O370 1.203 . S
C369 O376 1.267 . S
O370 C369 1.203 . S
O371 C364 1.185 . S
O371 Zn367 2.086 . S
C372 O368 1.278 . S
C372 O373 1.211 . S
O373 C372 1.211 . S
C374 O366 1.284 . S
C374 O375 1.273 . S
O375 C374 1.273 . S
O376 Zn367 1.977 . S
O376 C369 1.267 . S
C377 O378 1.160 . S
C377 O384 1.185 . S
O378 C377 1.160 . S
O379 Zn380 1.899 . S
O379 C387 1.284 . S
Zn380 O379 1.899 . S
Zn380 O381 2.032 . S
Zn380 O384 2.086 . S
Zn380 O389 1.977 . S
O381 Zn380 2.032 . S
O381 C385 1.278 . S
C382 O383 1.203 . S
C382 O389 1.267 . S
O383 C382 1.203 . S
O384 C377 1.185 . S
O384 Zn380 2.086 . S
C385 O381 1.278 . S
C385 O386 1.211 . S
O386 C385 1.211 . S
C387 O379 1.284 . S
C387 O388 1.273 . S
O388 C387 1.273 . S
O389 Zn380 1.977 . S
O389 C382 1.267 . S
C390 O391 1.160 . S
C390 O397 1.185 . S
O391 C390 1.160 . S
O392 Zn393 1.899 . S
O392 C400 1.284 . S
Zn393 O392 1.899 . S
Zn393 O394 2.032 . S
Zn393 O397 2.086 . S
Zn393 O402 1.977 . S
O394 Zn393 2.032 . S
O394 C398 1.278 . S
C395 O396 1.203 . S
C395 O402 1.267 . S
O396 C395 1.203 . S
O397 C390 1.185 . S
O397 Zn393 2.086 . S
C398 O394 1.278 . S
C398 O399 1.211 . S
O399 C398 1.211 . S
C400 O392 1.284 . S
C400 O401 1.273 . S
O401 C400 1.273 . S
O402 Zn393 1.977 . S
O402 C395 1.267 . S
C403 O404 1.160 . S
C403 O410 1.185 . S
O404 C403 1.160 . S
O405 Zn406 1.899 . S
O405 C413 1.284 . S
Zn406 O405 1.899 . S
Zn406 O407 2.032 . S
Zn406 O410 2.086 . S
Zn406 O415 1.977 . S
O407 Zn406 2.032 . S
O407 C411 1.278 . S
C408 O409 1.203 . S
C408 O415 1.267 . S
O409 C408 1.203 . S
O410 C403 1.185 . S
O410 Zn406 2.086 . S
C411 O407 1.278 . S
C411 O412 1.211 . S
O412 C411 1.211 . S
C413 O405 1.284 . S
C413 O414 1.273 . S
O414 C413 1.273 . S
O415 Zn406 1.977 . S
O415 C408 1.267 . S
C416 O417 1.160 . S
C416 O423 1.185 . S
O417 C416 1.160 . S
O418 Zn419 1.899 . S
O418 C426 1.284 . S
Zn419 O418 1.899 . S
Zn419 O420 2.032 . S
Zn419 O423 2.086 . S
Zn419 O428 1.977 . S
O420 Zn419 2.032 . S
O420 C424 1.278 . S
C421 O422 1.203 . S
C421 O428 1.267 . S
O422 C421 1.203 . S
O423 C416 1.185 . S
O423 Zn419 2.086 . S
C424 O420 1.278 . S
C424 O425 1.211 . S
O425 C424 1.211 . S
C426 O418 1.284 . S
C426 O427 1.273 . S
O427 C426 1.273 . S
O428 Zn419 1.977 . S
O428 C421 1.267 . S
C429 O430 1.160 . S
C429 O436 1.185 . S
O430 C429 1.160 . S
O431 Zn432 1.899 . S
O431 C439 1.284 . S
Zn432 O431 1.899 . S
Zn432 O433 2.032 . S
Zn432 O436 2.086 . S
Zn432 O441 1.977 . S
O433 Zn432 2.032 . S
O433 C437 1.278 . S
C434 O435 1.203 . S
C434 O441 1.267 . S
O435 C434 1.203 . S
O436 C429 1.185 . S
O436 Zn432 2.086 . S
C437 O433 1.278 . S
C437 O438 1.211 . S
O438 C437 1.211 . S
C439 O431 1.284 . S
C439 O440 1.273 . S
O440 C439 1.273 . S
O441 Zn432 1.977 . S
O441 C434 1.267 . S
C442 O443 1.160 . S
C442 O449 1.185 . S
O443 C442 1.160 . S
O444 Zn445 1.899 . S
O444 C452 1.284 . S
Zn445 O444 1.899 . S
Zn445 O446 2.032 . S
Zn445 O449 2.086 . S
Zn445 O454 1.977 . S
O446 Zn445 2.032 . S
O446 C450 1.278 . S
C447 O448 1.203 . S
C447 O454 1.267 . S
O448 C447 1.203 . S
O449 C442 1.185 . S
O449 Zn445 2.086 . S
C450 O446 1.278 . S
C450 O451 1.211 . S
O451 C450 1.211 . S
C452 O444 1.284 . S
C452 O453 1.273 . S
O453 C452 1.273 . S
O454 Zn445 1.977 . S
O454 C447 1.267 . S
C455 O456 1.160 . S
C455 O462 1.185 . S
O456 C455 1.160 . S
O457 Zn458 1.899 . S
O457 C465 1.284 . S
Zn458 O457 1.899 . S
Zn458 O459 2.032 . S
Zn458 O462 2.086 . S
Zn458 O467 1.977 . S
O459 Zn458 2.032 . S
O459 C463 1.278 . S
C460 O461 1.203 . S
C460 O467 1.267 . S
O461 C460 1.203 . S
O462 C455 1.185 . S
O462 Zn458 2.086 . S
C463 O459 1.278 . S
C463 O464 1.211 . S
O464 C463 1.211 . S
C465 O457 1.284 . S
C465 O466 1.273 . S
O466 C465 1.273 . S
O467 Zn458 1.977 . S
O467 C460 1.267 . S
C468 O469 1.160 . S
C468 O475 1.185 . S
O469 C468 1.160 . S
O470 Zn471 1.899 . S
O470 C478 1.284 . S
Zn471 O470 1.899 . S
Zn471 O472 2.032 . S
Zn471 O475 2.086 . S
Zn471 O480 1.977 . S
O472 Zn471 2.032 . S
O472 C476 1.278 . S
C473 O474 1.203 . S
C473 O480 1.267 . S
O474 C473 1.203 . S
O475 C468 1.185 . S
O475 Zn471 2.086 . S
C476 O472 1.278 . S
C476 O477 1.211 . S
O477 C476 1.211 . S
C478 O470 1.284 . S
C478 O479 1.273 . S
O479 C478 1.273 . S
O480 Zn471 1.977 . S
O480 C473 1.267 . S
C481 O482 1.160 . S
C481 O488 1.185 . S
O482 C481 1.160 . S
O483 Zn484 1.899 . S
O483 C491 1.284 . S
Zn484 O483 1.899 . S
Zn484 O485 2.032 . S
Zn484 O488 2.086 . S
Zn484 O493 1.977 . S
O485 Zn484 2.032 . S
O485 C489 1.278 . S
C486 O487 1.203 . S
C486 O493 1.267 . S
O487 C486 1.203 . S
O488 C481 1.185 . S
O488 Zn484 2.086 . S
C489 O485 1.278 . S
C489 O490 1.211 . S
O490 C489 1.211 . S
C491 O483 1.284 . S
C491 O492 1.273 . S
O492 C491 1.273 . S
O493 Zn484 1.977 . S
O493 C486 1.267 . S
C494 O495 1.160 . S
C494 O501 1.185 . S
O495 C494 1.160 . S
O496 Zn497 1.899 . S
O496 C504 1.284 . S
Zn497 O496 1.899 . S
Zn497 O498 2.032 . S
Zn497 O501 2.086 . S
Zn497 O506 1.977 . S
O498 Zn497 2.032 . S
O498 C502 1.278 . S
C499 O500 1.203 . S
C499 O506 1.267 . S
O500 C499 1.203 . S
O501 C494 1.185 . S
O501 Zn497 2.086 . S
C502 O498 1.278 . S
C502 O503 1.211 . S
O503 C502 1.211 . S
C504 O496 1.284 . S
C504 O505 1.273 . S
O505 C504 1.273 . S
O506 Zn497 1.977 . S
O506 C499 1.267 . S
C507 O508 1.160 . S
C507 O514 1.185 . S
O508 C507 1.160 . S
O509 Zn510 1.899 . S
O509 C517 1.284 . S
Zn510 O509 1.899 . S
Zn510 O511 2.032 . S
Zn510 O514 2.086 . S
Zn510 O519 1.977 . S
O511 Zn510 2.032 . S
O511 C515 1.278 . S
C512 O513 1.203 . S
C512 O519 1.267 . S
O513 C512 1.203 . S
O514 C507 1.185 . S
O514 Zn510 2.086 . S
C515 O511 1.278 . S
C515 O516 1.211 . S
O516 C515 1.211 . S
C517 O509 1.284 . S
C517 O518 1.273 . S
O518 C517 1.273 . S
O519 Zn510 1.977 . S
O519 C512 1.267 . S
C520 O521 1.160 . S
C520 O527 1.185 . S
O521 C520 1.160 . S
O522 Zn523 1.899 . S
O522 C530 1.284 . S
Zn523 O522 1.899 . S
Zn523 O524 2.032 . S
Zn523 O527 2.086 . S
Zn523 O532 1.977 . S
O524 Zn523 2.032 . S
O524 C528 1.278 . S
C525 O526 1.203 . S
C525 O532 1.267 . S
O526 C525 1.203 . S
O527 C520 1.185 . S
O527 Zn523 2.086 . S
C528 O524 1.278 . S
C528 O529 1.211 . S
O529 C528 1.211 . S
C530 O522 1.284 . S
C530 O531 1.273 . S
O531 C530 1.273 . S
O532 Zn523 1.977 . S
O532 C525 1.267 . S
C533 O534 1.160 . S
C533 O540 1.185 . S
O534 C533 1.160 . S
O535 Zn536 1.899 . S
O535 C543 1.284 . S
Zn536 O535 1.899 . S
Zn536 O537 2.032 . S
Zn536 O540 2.086 . S
Zn536 O545 1.977 . S
O537 Zn536 2.032 . S
O537 C541 1.278 . S
C538 O539 1.203 . S
C538 O545 1.267 . S
O539 C538 1.203 . S
O540 C533 1.185 . S
O540 Zn536 2.086 . S
C541 O537 1.278 . S
C541 O542 1.211 . S
O542 C541 1.211 . S
C543 O535 1.284 . S
C543 O544 1.273 . S
O544 C543 1.273 . S
O545 Zn536 1.977 . S
O545 C538 1.267 . S
C546 O547 1.160 . S
C546 O553 1.185 . S
O547 C546 1.160 . S
O548 Zn549 1.899 . S
O548 C556 1.284 . S
Zn549 O548 1.899 . S
Zn549 O550 2.032 . S
Zn549 O553 2.086 . S
Zn549 O558 1.977 . S
O550 Zn549 2.032 . S
O550 C554 1.278 . S
C551 O552 1.203 . S
C551 O558 1.267 . S
O552 C551 1.203 . S
O553 C546 1.185 . S
O553 Zn549 2.086 . S
C554 O550 1.278 . S
C554 O555 1.211 . S
O555 C554 1.211 . S
C556 O548 1.284 . S
C556 O557 1.273 . S
O557 C556 1.273 . S
O558 Zn549 1.977 . S
O558 C551 1.267 . S
C559 O560 1.160 . S
C559 O566 1.185 . S
O560 C559 1.160 . S
O561 Zn562 1.899 . S
O561 C569 1.284 . S
Zn562 O561 1.899 . S
Zn562 O563 2.032 . S
Zn562 O566 2.086 . S
Zn562 O571 1.977 . S
O563 Zn562 2.032 . S
O563 C567 1.278 . S
C564 O565 1.203 . S
C564 O571 1.267 . S
O565 C564 1.203 . S
O566 C559 1.185 . S
O566 Zn562 2.086 . S
C567 O563 1.278 . S
C567 O568 1.211 . S
O568 C567 1.211 . S
C569 O561 1.284 . S
C569 O570 1.273 . S
O570 C569 1.273 . S
O571 Zn562 1.977 . S
O571 C564 1.267 . S
C572 O573 1.160 . S
C572 O579 1.185 . S
O573 C572 1.160 . S
O574 Zn575 1.899 . S
O574 C582 1.284 . S
Zn575 O574 1.899 . S
Zn575 O576 2.032 . S
Zn575 O579 2.086 . S
Zn575 O584 1.977 . S
O576 Zn575 2.032 . S
O576 C580 1.278 . S
C577 O578 1.203 . S
C577 O584 1.267 . S
O578 C577 1.203 . S
O579 C572 1.185 . S
O579 Zn575 2.086 . S
C580 O576 1.278 . S
C580 O581 1.211 . S
O581 C580 1.211 . S
C582 O574 1.284 . S
C582 O583 1.273 . S
O583 C582 1.273 . S
O584 Zn575 1.977 . S
O584 C577 1.267 . S
C585 O586 1.160 . S
C585 O592 1.185 . S
O586 C585 1.160 . S
O587 Zn588 1.899 . S
O587 C595 1.284 . S
Zn588 O587 1.899 . S
Zn588 O589 2.032 . S
Zn588 O592 2.086 . S
Zn588 O597 1.977 . S
O589 Zn588 2.032 . S
O589 C593 1.278 . S
C590 O591 1.203 . S
C590 O597 1.267 . S
O591 C590 1.203 . S
O592 C585 1.185 . S
O592 Zn588 2.086 . S
C593 O589 1.278 . S
C593 O594 1.211 . S
O594 C593 1.211 . S
C595 O587 1.284 . S
C595 O596 1.273 . S
O596 C595 1.273 . S
O597 Zn588 1.977 . S
O597 C590 1.267 . S
C598 O599 1.160 . S
C598 O605 1.185 . S
O599 C598 1.160 . S
O600 Zn601 1.899 . S
O600 C608 1.284 . S
Zn601 O600 1.899 . S
Zn601 O602 2.032 . S
Zn601 O605 2.086 . S
Zn601 O610 1.977 . S
O602 Zn601 2.032 . S
O602 C606 1.278 . S
C603 O604 1.203 . S
C603 O610 1.267 . S
O604 C603 1.203 . S
O605 C598 1.185 . S
O605 Zn601 2.086 . S
C606 O602 1.278 . S
C606 O607 1.211 . S
O607 C606 1.211 . S
C608 O600 1.284 . S
C608 O609 1.273 . S
O609 C608 1.273 . S
O610 Zn601 1.977 . S
O610 C603 1.267 . S
C611 O612 1.160 . S
C611 O618 1.185 . S
O612 C611 1.160 . S
O613 Zn614 1.899 . S
O613 C621 1.284 . S
Zn614 O613 1.899 . S
Zn614 O615 2.032 . S
Zn614 O618 2.086 . S
Zn614 O623 1.977 . S
O615 Zn614 2.032 . S
O615 C619 1.278 . S
C616 O617 1.203 . S
C616 O623 1.267 . S
O617 C616 1.203 . S
O618 C611 1.185 . S
O618 Zn614 2.086 . S
C619 O615 1.278 . S
C619 O620 1.211 . S
O620 C619 1.211 . S
C621 O613 1.284 . S
C621 O622 1.273 . S
O622 C621 1.273 . S
O623 Zn614 1.977 . S
O623 C616 1.267 . S
H624 C632 0.929 . S
H625 C634 0.930 . S
H626 C636 0.930 . S
H627 C639 0.929 . S
H628 C642 0.930 . S
H629 C644 0.960 . S
H630 C644 0.960 . S
H631 C644 0.960 . S
C632 H624 0.929 . S
C632 C633 1.377 . S
C632 C634 1.384 . S
C633 C632 1.377 . S
C633 C639 1.390 . S
C634 H625 0.930 . S
C634 C632 1.384 . S
C634 C635 1.372 . S
C635 C634 1.372 . S
C635 C636 1.400 . S
C635 C640 1.490 . S
C636 H626 0.930 . S
C636 C635 1.400 . S
C636 C639 1.386 . S
H637 C653 0.930 . S
H638 C654 0.931 . S
C639 H627 0.929 . S
C639 C633 1.390 . S
C639 C636 1.386 . S
C640 C635 1.490 . S
C640 C642 1.395 . S
C640 C643 1.403 . S
H641 C647 0.930 . S
C642 H628 0.930 . S
C642 C640 1.395 . S
C642 C645 1.403 . S
C643 C640 1.403 . S
C643 C644 1.524 . S
C643 C647 1.400 . S
C644 H629 0.960 . S
C644 H630 0.960 . S
C644 H631 0.960 . S
C644 C643 1.524 . S
C645 C642 1.403 . S
C645 C646 1.392 . S
C645 C649 1.495 . S
C646 C645 1.392 . S
C646 C647 1.385 . S
C646 C648 1.478 . S
C647 H641 0.930 . S
C647 C643 1.400 . S
C647 C646 1.385 . S
C648 C646 1.478 . S
C648 C650 1.381 . S
C648 C654 1.383 . S
C649 C645 1.495 . S
C649 H655 0.959 . S
C649 H656 0.961 . S
C649 H657 0.960 . S
C650 C648 1.381 . S
C650 C651 1.394 . S
C650 H658 0.930 . S
C651 C650 1.394 . S
C651 C652 1.383 . S
C651 H659 0.929 . S
C652 C651 1.383 . S
C652 C653 1.377 . S
C653 H637 0.930 . S
C653 C652 1.377 . S
C653 C654 1.379 . S
C654 H638 0.931 . S
C654 C648 1.383 . S
C654 C653 1.379 . S
H655 C649 0.959 . S
H656 C649 0.961 . S
H657 C649 0.960 . S
H658 C650 0.930 . S
H659 C651 0.929 . S
H660 C668 0.929 . S
H661 C670 0.930 . S
H662 C672 0.930 . S
H663 C675 0.929 . S
H664 C678 0.930 . S
H665 C680 0.960 . S
H666 C680 0.960 . S
H667 C680 0.960 . S
C668 H660 0.929 . S
C668 C669 1.377 . S
C668 C670 1.384 . S
C669 C668 1.377 . S
C669 C675 1.390 . S
C670 H661 0.930 . S
C670 C668 1.384 . S
C670 C671 1.372 . S
C671 C670 1.372 . S
C671 C672 1.400 . S
C671 C676 1.490 . S
C672 H662 0.930 . S
C672 C671 1.400 . S
C672 C675 1.386 . S
H673 C689 0.930 . S
H674 C690 0.931 . S
C675 H663 0.929 . S
C675 C669 1.390 . S
C675 C672 1.386 . S
C676 C671 1.490 . S
C676 C678 1.395 . S
C676 C679 1.403 . S
H677 C683 0.930 . S
C678 H664 0.930 . S
C678 C676 1.395 . S
C678 C681 1.403 . S
C679 C676 1.403 . S
C679 C680 1.524 . S
C679 C683 1.400 . S
C680 H665 0.960 . S
C680 H666 0.960 . S
C680 H667 0.960 . S
C680 C679 1.524 . S
C681 C678 1.403 . S
C681 C682 1.392 . S
C681 C685 1.495 . S
C682 C681 1.392 . S
C682 C683 1.385 . S
C682 C684 1.478 . S
C683 H677 0.930 . S
C683 C679 1.400 . S
C683 C682 1.385 . S
C684 C682 1.478 . S
C684 C686 1.381 . S
C684 C690 1.383 . S
C685 C681 1.495 . S
C685 H691 0.959 . S
C685 H692 0.961 . S
C685 H693 0.960 . S
C686 C684 1.381 . S
C686 C687 1.394 . S
C686 H694 0.930 . S
C687 C686 1.394 . S
C687 C688 1.383 . S
C687 H695 0.929 . S
C688 C687 1.383 . S
C688 C689 1.377 . S
C689 H673 0.930 . S
C689 C688 1.377 . S
C689 C690 1.379 . S
C690 H674 0.931 . S
C690 C684 1.383 . S
C690 C689 1.379 . S
H691 C685 0.959 . S
H692 C685 0.961 . S
H693 C685 0.960 . S
H694 C686 0.930 . S
H695 C687 0.929 . S
H696 C704 0.929 . S
H697 C706 0.930 . S
H698 C708 0.930 . S
H699 C711 0.929 . S
H700 C714 0.930 . S
H701 C716 0.960 . S
H702 C716 0.960 . S
H703 C716 0.960 . S
C704 H696 0.929 . S
C704 C705 1.377 . S
C704 C706 1.384 . S
C705 C704 1.377 . S
C705 C711 1.390 . S
C706 H697 0.930 . S
C706 C704 1.384 . S
C706 C707 1.372 . S
C707 C706 1.372 . S
C707 C708 1.400 . S
C707 C712 1.490 . S
C708 H698 0.930 . S
C708 C707 1.400 . S
C708 C711 1.386 . S
H709 C725 0.930 . S
H710 C726 0.931 . S
C711 H699 0.929 . S
C711 C705 1.390 . S
C711 C708 1.386 . S
C712 C707 1.490 . S
C712 C714 1.395 . S
C712 C715 1.403 . S
H713 C719 0.930 . S
C714 H700 0.930 . S
C714 C712 1.395 . S
C714 C717 1.403 . S
C715 C712 1.403 . S
C715 C716 1.524 . S
C715 C719 1.400 . S
C716 H701 0.960 . S
C716 H702 0.960 . S
C716 H703 0.960 . S
C716 C715 1.524 . S
C717 C714 1.403 . S
C717 C718 1.392 . S
C717 C721 1.495 . S
C718 C717 1.392 . S
C718 C719 1.385 . S
C718 C720 1.478 . S
C719 H713 0.930 . S
C719 C715 1.400 . S
C719 C718 1.385 . S
C720 C718 1.478 . S
C720 C722 1.381 . S
C720 C726 1.383 . S
C721 C717 1.495 . S
C721 H727 0.959 . S
C721 H728 0.961 . S
C721 H729 0.960 . S
C722 C720 1.381 . S
C722 C723 1.394 . S
C722 H730 0.930 . S
C723 C722 1.394 . S
C723 C724 1.383 . S
C723 H731 0.929 . S
C724 C723 1.383 . S
C724 C725 1.377 . S
C725 H709 0.930 . S
C725 C724 1.377 . S
C725 C726 1.379 . S
C726 H710 0.931 . S
C726 C720 1.383 . S
C726 C725 1.379 . S
H727 C721 0.959 . S
H728 C721 0.961 . S
H729 C721 0.960 . S
H730 C722 0.930 . S
H731 C723 0.929 . S
H732 C740 0.929 . S
H733 C742 0.930 . S
H734 C744 0.930 . S
H735 C747 0.929 . S
H736 C750 0.930 . S
H737 C752 0.960 . S
H738 C752 0.960 . S
H739 C752 0.960 . S
C740 H732 0.929 . S
C740 C741 1.377 . S
C740 C742 1.384 . S
C741 C740 1.377 . S
C741 C747 1.390 . S
C742 H733 0.930 . S
C742 C740 1.384 . S
C742 C743 1.372 . S
C743 C742 1.372 . S
C743 C744 1.400 . S
C743 C748 1.490 . S
C744 H734 0.930 . S
C744 C743 1.400 . S
C744 C747 1.386 . S
H745 C761 0.930 . S
H746 C762 0.931 . S
C747 H735 0.929 . S
C747 C741 1.390 . S
C747 C744 1.386 . S
C748 C743 1.490 . S
C748 C750 1.395 . S
C748 C751 1.403 . S
H749 C755 0.930 . S
C750 H736 0.930 . S
C750 C748 1.395 . S
C750 C753 1.403 . S
C751 C748 1.403 . S
C751 C752 1.524 . S
C751 C755 1.400 . S
C752 H737 0.960 . S
C752 H738 0.960 . S
C752 H739 0.960 . S
C752 C751 1.524 . S
C753 C750 1.403 . S
C753 C754 1.392 . S
C753 C757 1.495 . S
C754 C753 1.392 . S
C754 C755 1.385 . S
C754 C756 1.478 . S
C755 H749 0.930 . S
C755 C751 1.400 . S
C755 C754 1.385 . S
C756 C754 1.478 . S
C756 C758 1.381 . S
C756 C762 1.383 . S
C757 C753 1.495 . S
C757 H763 0.959 . S
C757 H764 0.961 . S
C757 H765 0.960 . S
C758 C756 1.381 . S
C758 C759 1.394 . S
C758 H766 0.930 . S
C759 C758 1.394 . S
C759 C760 1.383 . S
C759 H767 0.929 . S
C760 C759 1.383 . S
C760 C761 1.377 . S
C761 H745 0.930 . S
C761 C760 1.377 . S
C761 C762 1.379 . S
C762 H746 0.931 . S
C762 C756 1.383 . S
C762 C761 1.379 . S
H763 C757 0.959 . S
H764 C757 0.961 . S
H765 C757 0.960 . S
H766 C758 0.930 . S
H767 C759 0.929 . S
H768 C776 0.929 . S
H769 C778 0.930 . S
H770 C780 0.930 . S
H771 C783 0.929 . S
H772 C786 0.930 . S
H773 C788 0.960 . S
H774 C788 0.960 . S
H775 C788 0.960 . S
C776 H768 0.929 . S
C776 C777 1.377 . S
C776 C778 1.384 . S
C777 C776 1.377 . S
C777 C783 1.390 . S
C778 H769 0.930 . S
C778 C776 1.384 . S
C778 C779 1.372 . S
C779 C778 1.372 . S
C779 C780 1.400 . S
C779 C784 1.490 . S
C780 H770 0.930 . S
C780 C779 1.400 . S
C780 C783 1.386 . S
H781 C797 0.930 . S
H782 C798 0.931 . S
C783 H771 0.929 . S
C783 C777 1.390 . S
C783 C780 1.386 . S
C784 C779 1.490 . S
C784 C786 1.395 . S
C784 C787 1.403 . S
H785 C791 0.930 . S
C786 H772 0.930 . S
C786 C784 1.395 . S
C786 C789 1.403 . S
C787 C784 1.403 . S
C787 C788 1.524 . S
C787 C791 1.400 . S
C788 H773 0.960 . S
C788 H774 0.960 . S
C788 H775 0.960 . S
C788 C787 1.524 . S
C789 C786 1.403 . S
C789 C790 1.392 . S
C789 C793 1.495 . S
C790 C789 1.392 . S
C790 C791 1.385 . S
C790 C792 1.478 . S
C791 H785 0.930 . S
C791 C787 1.400 . S
C791 C790 1.385 . S
C792 C790 1.478 . S
C792 C794 1.381 . S
C792 C798 1.383 . S
C793 C789 1.495 . S
C793 H799 0.959 . S
C793 H800 0.961 . S
C793 H801 0.960 . S
C794 C792 1.381 . S
C794 C795 1.394 . S
C794 H802 0.930 . S
C795 C794 1.394 . S
C795 C796 1.383 . S
C795 H803 0.929 . S
C796 C795 1.383 . S
C796 C797 1.377 . S
C797 H781 0.930 . S
C797 C796 1.377 . S
C797 C798 1.379 . S
C798 H782 0.931 . S
C798 C792 1.383 . S
C798 C797 1.379 . S
H799 C793 0.959 . S
H800 C793 0.961 . S
H801 C793 0.960 . S
H802 C794 0.930 . S
H803 C795 0.929 . S
H804 C812 0.929 . S
H805 C814 0.930 . S
H806 C816 0.930 . S
H807 C819 0.929 . S
H808 C822 0.930 . S
H809 C824 0.960 . S
H810 C824 0.960 . S
H811 C824 0.960 . S
C812 H804 0.929 . S
C812 C813 1.377 . S
C812 C814 1.384 . S
C813 C812 1.377 . S
C813 C819 1.390 . S
C814 H805 0.930 . S
C814 C812 1.384 . S
C814 C815 1.372 . S
C815 C814 1.372 . S
C815 C816 1.400 . S
C815 C820 1.490 . S
C816 H806 0.930 . S
C816 C815 1.400 . S
C816 C819 1.386 . S
H817 C833 0.930 . S
H818 C834 0.931 . S
C819 H807 0.929 . S
C819 C813 1.390 . S
C819 C816 1.386 . S
C820 C815 1.490 . S
C820 C822 1.395 . S
C820 C823 1.403 . S
H821 C827 0.930 . S
C822 H808 0.930 . S
C822 C820 1.395 . S
C822 C825 1.403 . S
C823 C820 1.403 . S
C823 C824 1.524 . S
C823 C827 1.400 . S
C824 H809 0.960 . S
C824 H810 0.960 . S
C824 H811 0.960 . S
C824 C823 1.524 . S
C825 C822 1.403 . S
C825 C826 1.392 . S
C825 C829 1.495 . S
C826 C825 1.392 . S
C826 C827 1.385 . S
C826 C828 1.478 . S
C827 H821 0.930 . S
C827 C823 1.400 . S
C827 C826 1.385 . S
C828 C826 1.478 . S
C828 C830 1.381 . S
C828 C834 1.383 . S
C829 C825 1.495 . S
C829 H835 0.959 . S
C829 H836 0.961 . S
C829 H837 0.960 . S
C830 C828 1.381 . S
C830 C831 1.394 . S
C830 H838 0.930 . S
C831 C830 1.394 . S
C831 C832 1.383 . S
C831 H839 0.929 . S
C832 C831 1.383 . S
C832 C833 1.377 . S
C833 H817 0.930 . S
C833 C832 1.377 . S
C833 C834 1.379 . S
C834 H818 0.931 . S
C834 C828 1.383 . S
C834 C833 1.379 . S
H835 C829 0.959 . S
H836 C829 0.961 . S
H837 C829 0.960 . S
H838 C830 0.930 . S
H839 C831 0.929 . S
H840 C848 0.929 . S
H841 C850 0.930 . S
H842 C852 0.930 . S
H843 C855 0.929 . S
H844 C858 0.930 . S
H845 C860 0.960 . S
H846 C860 0.960 . S
H847 C860 0.960 . S
C848 H840 0.929 . S
C848 C849 1.377 . S
C848 C850 1.384 . S
C849 C848 1.377 . S
C849 C855 1.390 . S
C850 H841 0.930 . S
C850 C848 1.384 . S
C850 C851 1.372 . S
C851 C850 1.372 . S
C851 C852 1.400 . S
C851 C856 1.490 . S
C852 H842 0.930 . S
C852 C851 1.400 . S
C852 C855 1.386 . S
H853 C869 0.930 . S
H854 C870 0.931 . S
C855 H843 0.929 . S
C855 C849 1.390 . S
C855 C852 1.386 . S
C856 C851 1.490 . S
C856 C858 1.395 . S
C856 C859 1.403 . S
H857 C863 0.930 . S
C858 H844 0.930 . S
C858 C856 1.395 . S
C858 C861 1.403 . S
C859 C856 1.403 . S
C859 C860 1.524 . S
C859 C863 1.400 . S
C860 H845 0.960 . S
C860 H846 0.960 . S
C860 H847 0.960 . S
C860 C859 1.524 . S
C861 C858 1.403 . S
C861 C862 1.392 . S
C861 C865 1.495 . S
C862 C861 1.392 . S
C862 C863 1.385 . S
C862 C864 1.478 . S
C863 H857 0.930 . S
C863 C859 1.400 . S
C863 C862 1.385 . S
C864 C862 1.478 . S
C864 C866 1.381 . S
C864 C870 1.383 . S
C865 C861 1.495 . S
C865 H871 0.959 . S
C865 H872 0.961 . S
C865 H873 0.960 . S
C866 C864 1.381 . S
C866 C867 1.394 . S
C866 H874 0.930 . S
C867 C866 1.394 . S
C867 C868 1.383 . S
C867 H875 0.929 . S
C868 C867 1.383 . S
C868 C869 1.377 . S
C869 H853 0.930 . S
C869 C868 1.377 . S
C869 C870 1.379 . S
C870 H854 0.931 . S
C870 C864 1.383 . S
C870 C869 1.379 . S
H871 C865 0.959 . S
H872 C865 0.961 . S
H873 C865 0.960 . S
H874 C866 0.930 . S
H875 C867 0.929 . S
H876 C884 0.929 . S
H877 C886 0.930 . S
H878 C888 0.930 . S
H879 C891 0.929 . S
H880 C894 0.930 . S
H881 C896 0.960 . S
H882 C896 0.960 . S
H883 C896 0.960 . S
C884 H876 0.929 . S
C884 C885 1.377 . S
C884 C886 1.384 . S
C885 C884 1.377 . S
C885 C891 1.390 . S
C886 H877 0.930 . S
C886 C884 1.384 . S
C886 C887 1.372 . S
C887 C886 1.372 . S
C887 C888 1.400 . S
C887 C892 1.490 . S
C888 H878 0.930 . S
C888 C887 1.400 . S
C888 C891 1.386 . S
H889 C905 0.930 . S
H890 C906 0.931 . S
C891 H879 0.929 . S
C891 C885 1.390 . S
C891 C888 1.386 . S
C892 C887 1.490 . S
C892 C894 1.395 . S
C892 C895 1.403 . S
H893 C899 0.930 . S
C894 H880 0.930 . S
C894 C892 1.395 . S
C894 C897 1.403 . S
C895 C892 1.403 . S
C895 C896 1.524 . S
C895 C899 1.400 . S
C896 H881 0.960 . S
C896 H882 0.960 . S
C896 H883 0.960 . S
C896 C895 1.524 . S
C897 C894 1.403 . S
C897 C898 1.392 . S
C897 C901 1.495 . S
C898 C897 1.392 . S
C898 C899 1.385 . S
C898 C900 1.478 . S
C899 H893 0.930 . S
C899 C895 1.400 . S
C899 C898 1.385 . S
C900 C898 1.478 . S
C900 C902 1.381 . S
C900 C906 1.383 . S
C901 C897 1.495 . S
C901 H907 0.959 . S
C901 H908 0.961 . S
C901 H909 0.960 . S
C902 C900 1.381 . S
C902 C903 1.394 . S
C902 H910 0.930 . S
C903 C902 1.394 . S
C903 C904 1.383 . S
C903 H911 0.929 . S
C904 C903 1.383 . S
C904 C905 1.377 . S
C905 H889 0.930 . S
C905 C904 1.377 . S
C905 C906 1.379 . S
C906 H890 0.931 . S
C906 C900 1.383 . S
C906 C905 1.379 . S
H907 C901 0.959 . S
H908 C901 0.961 . S
H909 C901 0.960 . S
H910 C902 0.930 . S
H911 C903 0.929 . S
H912 C920 0.929 . S
H913 C922 0.930 . S
H914 C924 0.930 . S
H915 C927 0.929 . S
H916 C930 0.930 . S
H917 C932 0.960 . S
H918 C932 0.960 . S
H919 C932 0.960 . S
C920 H912 0.929 . S
C920 C921 1.377 . S
C920 C922 1.384 . S
C921 C920 1.377 . S
C921 C927 1.390 . S
C922 H913 0.930 . S
C922 C920 1.384 . S
C922 C923 1.372 . S
C923 C922 1.372 . S
C923 C924 1.400 . S
C923 C928 1.490 . S
C924 H914 0.930 . S
C924 C923 1.400 . S
C924 C927 1.386 . S
H925 C941 0.930 . S
H926 C942 0.931 . S
C927 H915 0.929 . S
C927 C921 1.390 . S
C927 C924 1.386 . S
C928 C923 1.490 . S
C928 C930 1.395 . S
C928 C931 1.403 . S
H929 C935 0.930 . S
C930 H916 0.930 . S
C930 C928 1.395 . S
C930 C933 1.403 . S
C931 C928 1.403 . S
C931 C932 1.524 . S
C931 C935 1.400 . S
C932 H917 0.960 . S
C932 H918 0.960 . S
C932 H919 0.960 . S
C932 C931 1.524 . S
C933 C930 1.403 . S
C933 C934 1.392 . S
C933 C937 1.495 . S
C934 C933 1.392 . S
C934 C935 1.385 . S
C934 C936 1.478 . S
C935 H929 0.930 . S
C935 C931 1.400 . S
C935 C934 1.385 . S
C936 C934 1.478 . S
C936 C938 1.381 . S
C936 C942 1.383 . S
C937 C933 1.495 . S
C937 H943 0.959 . S
C937 H944 0.961 . S
C937 H945 0.960 . S
C938 C936 1.381 . S
C938 C939 1.394 . S
C938 H946 0.930 . S
C939 C938 1.394 . S
C939 C940 1.383 . S
C939 H947 0.929 . S
C940 C939 1.383 . S
C940 C941 1.377 . S
C941 H925 0.930 . S
C941 C940 1.377 . S
C941 C942 1.379 . S
C942 H926 0.931 . S
C942 C936 1.383 . S
C942 C941 1.379 . S
H943 C937 0.959 . S
H944 C937 0.961 . S
H945 C937 0.960 . S
H946 C938 0.930 . S
H947 C939 0.929 . S
H948 C956 0.929 . S
H949 C958 0.930 . S
H950 C960 0.930 . S
H951 C963 0.929 . S
H952 C966 0.930 . S
H953 C968 0.960 . S
H954 C968 0.960 . S
H955 C968 0.960 . S
C956 H948 0.929 . S
C956 C957 1.377 . S
C956 C958 1.384 . S
C957 C956 1.377 . S
C957 C963 1.390 . S
C958 H949 0.930 . S
C958 C956 1.384 . S
C958 C959 1.372 . S
C959 C958 1.372 . S
C959 C960 1.400 . S
C959 C964 1.490 . S
C960 H950 0.930 . S
C960 C959 1.400 . S
C960 C963 1.386 . S
H961 C977 0.930 . S
H962 C978 0.931 . S
C963 H951 0.929 . S
C963 C957 1.390 . S
C963 C960 1.386 . S
C964 C959 1.490 . S
C964 C966 1.395 . S
C964 C967 1.403 . S
H965 C971 0.930 . S
C966 H952 0.930 . S
C966 C964 1.395 . S
C966 C969 1.403 . S
C967 C964 1.403 . S
C967 C968 1.524 . S
C967 C971 1.400 . S
C968 H953 0.960 . S
C968 H954 0.960 . S
C968 H955 0.960 . S
C968 C967 1.524 . S
C969 C966 1.403 . S
C969 C970 1.392 . S
C969 C973 1.495 . S
C970 C969 1.392 . S
C970 C971 1.385 . S
C970 C972 1.478 . S
C971 H965 0.930 . S
C971 C967 1.400 . S
C971 C970 1.385 . S
C972 C970 1.478 . S
C972 C974 1.381 . S
C972 C978 1.383 . S
C973 C969 1.495 . S
C973 H979 0.959 . S
C973 H980 0.961 . S
C973 H981 0.960 . S
C974 C972 1.381 . S
C974 C975 1.394 . S
C974 H982 0.930 . S
C975 C974 1.394 . S
C975 C976 1.383 . S
C975 H983 0.929 . S
C976 C975 1.383 . S
C976 C977 1.377 . S
C977 H961 0.930 . S
C977 C976 1.377 . S
C977 C978 1.379 . S
C978 H962 0.931 . S
C978 C972 1.383 . S
C978 C977 1.379 . S
H979 C973 0.959 . S
H980 C973 0.961 . S
H981 C973 0.960 . S
H982 C974 0.930 . S
H983 C975 0.929 . S
H984 C992 0.929 . S
H985 C994 0.930 . S
H986 C996 0.930 . S
H987 C999 0.929 . S
H988 C1002 0.930 . S
H989 C1004 0.960 . S
H990 C1004 0.960 . S
H991 C1004 0.960 . S
C992 H984 0.929 . S
C992 C993 1.377 . S
C992 C994 1.384 . S
C993 C992 1.377 . S
C993 C999 1.390 . S
C994 H985 0.930 . S
C994 C992 1.384 . S
C994 C995 1.372 . S
C995 C994 1.372 . S
C995 C996 1.400 . S
C995 C1000 1.490 . S
C996 H986 0.930 . S
C996 C995 1.400 . S
C996 C999 1.386 . S
H997 C1013 0.930 . S
H998 C1014 0.931 . S
C999 H987 0.929 . S
C999 C993 1.390 . S
C999 C996 1.386 . S
C1000 C995 1.490 . S
C1000 C1002 1.395 . S
C1000 C1003 1.403 . S
H1001 C1007 0.930 . S
C1002 H988 0.930 . S
C1002 C1000 1.395 . S
C1002 C1005 1.403 . S
C1003 C1000 1.403 . S
C1003 C1004 1.524 . S
C1003 C1007 1.400 . S
C1004 H989 0.960 . S
C1004 H990 0.960 . S
C1004 H991 0.960 . S
C1004 C1003 1.524 . S
C1005 C1002 1.403 . S
C1005 C1006 1.392 . S
C1005 C1009 1.495 . S
C1006 C1005 1.392 . S
C1006 C1007 1.385 . S
C1006 C1008 1.478 . S
C1007 H1001 0.930 . S
C1007 C1003 1.400 . S
C1007 C1006 1.385 . S
C1008 C1006 1.478 . S
C1008 C1010 1.381 . S
C1008 C1014 1.383 . S
C1009 C1005 1.495 . S
C1009 H1015 0.959 . S
C1009 H1016 0.961 . S
C1009 H1017 0.960 . S
C1010 C1008 1.381 . S
C1010 C1011 1.394 . S
C1010 H1018 0.930 . S
C1011 C1010 1.394 . S
C1011 C1012 1.383 . S
C1011 H1019 0.929 . S
C1012 C1011 1.383 . S
C1012 C1013 1.377 . S
C1013 H997 0.930 . S
C1013 C1012 1.377 . S
C1013 C1014 1.379 . S
C1014 H998 0.931 . S
C1014 C1008 1.383 . S
C1014 C1013 1.379 . S
H1015 C1009 0.959 . S
H1016 C1009 0.961 . S
H1017 C1009 0.960 . S
H1018 C1010 0.930 . S
H1019 C1011 0.929 . S
H1020 C1028 0.929 . S
H1021 C1030 0.930 . S
H1022 C1032 0.930 . S
H1023 C1035 0.929 . S
H1024 C1038 0.930 . S
H1025 C1040 0.960 . S
H1026 C1040 0.960 . S
H1027 C1040 0.960 . S
C1028 H1020 0.929 . S
C1028 C1029 1.377 . S
C1028 C1030 1.384 . S
C1029 C1028 1.377 . S
C1029 C1035 1.390 . S
C1030 H1021 0.930 . S
C1030 C1028 1.384 . S
C1030 C1031 1.372 . S
C1031 C1030 1.372 . S
C1031 C1032 1.400 . S
C1031 C1036 1.490 . S
C1032 H1022 0.930 . S
C1032 C1031 1.400 . S
C1032 C1035 1.386 . S
H1033 C1049 0.930 . S
H1034 C1050 0.931 . S
C1035 H1023 0.929 . S
C1035 C1029 1.390 . S
C1035 C1032 1.386 . S
C1036 C1031 1.490 . S
C1036 C1038 1.395 . S
C1036 C1039 1.403 . S
H1037 C1043 0.930 . S
C1038 H1024 0.930 . S
C1038 C1036 1.395 . S
C1038 C1041 1.403 . S
C1039 C1036 1.403 . S
C1039 C1040 1.524 . S
C1039 C1043 1.400 . S
C1040 H1025 0.960 . S
C1040 H1026 0.960 . S
C1040 H1027 0.960 . S
C1040 C1039 1.524 . S
C1041 C1038 1.403 . S
C1041 C1042 1.392 . S
C1041 C1045 1.495 . S
C1042 C1041 1.392 . S
C1042 C1043 1.385 . S
C1042 C1044 1.478 . S
C1043 H1037 0.930 . S
C1043 C1039 1.400 . S
C1043 C1042 1.385 . S
C1044 C1042 1.478 . S
C1044 C1046 1.381 . S
C1044 C1050 1.383 . S
C1045 C1041 1.495 . S
C1045 H1051 0.959 . S
C1045 H1052 0.961 . S
C1045 H1053 0.960 . S
C1046 C1044 1.381 . S
C1046 C1047 1.394 . S
C1046 H1054 0.930 . S
C1047 C1046 1.394 . S
C1047 C1048 1.383 . S
C1047 H1055 0.929 . S
C1048 C1047 1.383 . S
C1048 C1049 1.377 . S
C1049 H1033 0.930 . S
C1049 C1048 1.377 . S
C1049 C1050 1.379 . S
C1050 H1034 0.931 . S
C1050 C1044 1.383 . S
C1050 C1049 1.379 . S
H1051 C1045 0.959 . S
H1052 C1045 0.961 . S
H1053 C1045 0.960 . S
H1054 C1046 0.930 . S
H1055 C1047 0.929 . S
H1056 C1064 0.929 . S
H1057 C1066 0.930 . S
H1058 C1068 0.930 . S
H1059 C1071 0.929 . S
H1060 C1074 0.930 . S
H1061 C1076 0.960 . S
H1062 C1076 0.960 . S
H1063 C1076 0.960 . S
C1064 H1056 0.929 . S
C1064 C1065 1.377 . S
C1064 C1066 1.384 . S
C1065 C1064 1.377 . S
C1065 C1071 1.390 . S
C1066 H1057 0.930 . S
C1066 C1064 1.384 . S
C1066 C1067 1.372 . S
C1067 C1066 1.372 . S
C1067 C1068 1.400 . S
C1067 C1072 1.490 . S
C1068 H1058 0.930 . S
C1068 C1067 1.400 . S
C1068 C1071 1.386 . S
H1069 C1085 0.930 . S
H1070 C1086 0.931 . S
C1071 H1059 0.929 . S
C1071 C1065 1.390 . S
C1071 C1068 1.386 . S
C1072 C1067 1.490 . S
C1072 C1074 1.395 . S
C1072 C1075 1.403 . S
H1073 C1079 0.930 . S
C1074 H1060 0.930 . S
C1074 C1072 1.395 . S
C1074 C1077 1.403 . S
C1075 C1072 1.403 . S
C1075 C1076 1.524 . S
C1075 C1079 1.400 . S
C1076 H1061 0.960 . S
C1076 H1062 0.960 . S
C1076 H1063 0.960 . S
C1076 C1075 1.524 . S
C1077 C1074 1.403 . S
C1077 C1078 1.392 . S
C1077 C1081 1.495 . S
C1078 C1077 1.392 . S
C1078 C1079 1.385 . S
C1078 C1080 1.478 . S
C1079 H1073 0.930 . S
C1079 C1075 1.400 . S
C1079 C1078 1.385 . S
C1080 C1078 1.478 . S
C1080 C1082 1.381 . S
C1080 C1086 1.383 . S
C1081 C1077 1.495 . S
C1081 H1087 0.959 . S
C1081 H1088 0.961 . S
C1081 H1089 0.960 . S
C1082 C1080 1.381 . S
C1082 C1083 1.394 . S
C1082 H1090 0.930 . S
C1083 C1082 1.394 . S
C1083 C1084 1.383 . S
C1083 H1091 0.929 . S
C1084 C1083 1.383 . S
C1084 C1085 1.377 . S
C1085 H1069 0.930 . S
C1085 C1084 1.377 . S
C1085 C1086 1.379 . S
C1086 H1070 0.931 . S
C1086 C1080 1.383 . S
C1086 C1085 1.379 . S
H1087 C1081 0.959 . S
H1088 C1081 0.961 . S
H1089 C1081 0.960 . S
H1090 C1082 0.930 . S
H1091 C1083 0.929 . S
H1092 C1100 0.929 . S
H1093 C1102 0.930 . S
H1094 C1104 0.930 . S
H1095 C1107 0.929 . S
H1096 C1110 0.930 . S
H1097 C1112 0.960 . S
H1098 C1112 0.960 . S
H1099 C1112 0.960 . S
C1100 H1092 0.929 . S
C1100 C1101 1.377 . S
C1100 C1102 1.384 . S
C1101 C1100 1.377 . S
C1101 C1107 1.390 . S
C1102 H1093 0.930 . S
C1102 C1100 1.384 . S
C1102 C1103 1.372 . S
C1103 C1102 1.372 . S
C1103 C1104 1.400 . S
C1103 C1108 1.490 . S
C1104 H1094 0.930 . S
C1104 C1103 1.400 . S
C1104 C1107 1.386 . S
H1105 C1121 0.930 . S
H1106 C1122 0.931 . S
C1107 H1095 0.929 . S
C1107 C1101 1.390 . S
C1107 C1104 1.386 . S
C1108 C1103 1.490 . S
C1108 C1110 1.395 . S
C1108 C1111 1.403 . S
H1109 C1115 0.930 . S
C1110 H1096 0.930 . S
C1110 C1108 1.395 . S
C1110 C1113 1.403 . S
C1111 C1108 1.403 . S
C1111 C1112 1.524 . S
C1111 C1115 1.400 . S
C1112 H1097 0.960 . S
C1112 H1098 0.960 . S
C1112 H1099 0.960 . S
C1112 C1111 1.524 . S
C1113 C1110 1.403 . S
C1113 C1114 1.392 . S
C1113 C1117 1.495 . S
C1114 C1113 1.392 . S
C1114 C1115 1.385 . S
C1114 C1116 1.478 . S
C1115 H1109 0.930 . S
C1115 C1111 1.400 . S
C1115 C1114 1.385 . S
C1116 C1114 1.478 . S
C1116 C1118 1.381 . S
C1116 C1122 1.383 . S
C1117 C1113 1.495 . S
C1117 H1123 0.959 . S
C1117 H1124 0.961 . S
C1117 H1125 0.960 . S
C1118 C1116 1.381 . S
C1118 C1119 1.394 . S
C1118 H1126 0.930 . S
C1119 C1118 1.394 . S
C1119 C1120 1.383 . S
C1119 H1127 0.929 . S
C1120 C1119 1.383 . S
C1120 C1121 1.377 . S
C1121 H1105 0.930 . S
C1121 C1120 1.377 . S
C1121 C1122 1.379 . S
C1122 H1106 0.931 . S
C1122 C1116 1.383 . S
C1122 C1121 1.379 . S
H1123 C1117 0.959 . S
H1124 C1117 0.961 . S
H1125 C1117 0.960 . S
H1126 C1118 0.930 . S
H1127 C1119 0.929 . S
H1128 C1136 0.929 . S
H1129 C1138 0.930 . S
H1130 C1140 0.930 . S
H1131 C1143 0.929 . S
H1132 C1146 0.930 . S
H1133 C1148 0.960 . S
H1134 C1148 0.960 . S
H1135 C1148 0.960 . S
C1136 H1128 0.929 . S
C1136 C1137 1.377 . S
C1136 C1138 1.384 . S
C1137 C1136 1.377 . S
C1137 C1143 1.390 . S
C1138 H1129 0.930 . S
C1138 C1136 1.384 . S
C1138 C1139 1.372 . S
C1139 C1138 1.372 . S
C1139 C1140 1.400 . S
C1139 C1144 1.490 . S
C1140 H1130 0.930 . S
C1140 C1139 1.400 . S
C1140 C1143 1.386 . S
H1141 C1157 0.930 . S
H1142 C1158 0.931 . S
C1143 H1131 0.929 . S
C1143 C1137 1.390 . S
C1143 C1140 1.386 . S
C1144 C1139 1.490 . S
C1144 C1146 1.395 . S
C1144 C1147 1.403 . S
H1145 C1151 0.930 . S
C1146 H1132 0.930 . S
C1146 C1144 1.395 . S
C1146 C1149 1.403 . S
C1147 C1144 1.403 . S
C1147 C1148 1.524 . S
C1147 C1151 1.400 . S
C1148 H1133 0.960 . S
C1148 H1134 0.960 . S
C1148 H1135 0.960 . S
C1148 C1147 1.524 . S
C1149 C1146 1.403 . S
C1149 C1150 1.392 . S
C1149 C1153 1.495 . S
C1150 C1149 1.392 . S
C1150 C1151 1.385 . S
C1150 C1152 1.478 . S
C1151 H1145 0.930 . S
C1151 C1147 1.400 . S
C1151 C1150 1.385 . S
C1152 C1150 1.478 . S
C1152 C1154 1.381 . S
C1152 C1158 1.383 . S
C1153 C1149 1.495 . S
C1153 H1159 0.959 . S
C1153 H1160 0.961 . S
C1153 H1161 0.960 . S
C1154 C1152 1.381 . S
C1154 C1155 1.394 . S
C1154 H1162 0.930 . S
C1155 C1154 1.394 . S
C1155 C1156 1.383 . S
C1155 H1163 0.929 . S
C1156 C1155 1.383 . S
C1156 C1157 1.377 . S
C1157 H1141 0.930 . S
C1157 C1156 1.377 . S
C1157 C1158 1.379 . S
C1158 H1142 0.931 . S
C1158 C1152 1.383 . S
C1158 C1157 1.379 . S
H1159 C1153 0.959 . S
H1160 C1153 0.961 . S
H1161 C1153 0.960 . S
H1162 C1154 0.930 . S
H1163 C1155 0.929 . S
H1164 C1172 0.929 . S
H1165 C1174 0.930 . S
H1166 C1176 0.930 . S
H1167 C1179 0.929 . S
H1168 C1182 0.930 . S
H1169 C1184 0.960 . S
H1170 C1184 0.960 . S
H1171 C1184 0.960 . S
C1172 H1164 0.929 . S
C1172 C1173 1.377 . S
C1172 C1174 1.384 . S
C1173 C1172 1.377 . S
C1173 C1179 1.390 . S
C1174 H1165 0.930 . S
C1174 C1172 1.384 . S
C1174 C1175 1.372 . S
C1175 C1174 1.372 . S
C1175 C1176 1.400 . S
C1175 C1180 1.490 . S
C1176 H1166 0.930 . S
C1176 C1175 1.400 . S
C1176 C1179 1.386 . S
H1177 C1193 0.930 . S
H1178 C1194 0.931 . S
C1179 H1167 0.929 . S
C1179 C1173 1.390 . S
C1179 C1176 1.386 . S
C1180 C1175 1.490 . S
C1180 C1182 1.395 . S
C1180 C1183 1.403 . S
H1181 C1187 0.930 . S
C1182 H1168 0.930 . S
C1182 C1180 1.395 . S
C1182 C1185 1.403 . S
C1183 C1180 1.403 . S
C1183 C1184 1.524 . S
C1183 C1187 1.400 . S
C1184 H1169 0.960 . S
C1184 H1170 0.960 . S
C1184 H1171 0.960 . S
C1184 C1183 1.524 . S
C1185 C1182 1.403 . S
C1185 C1186 1.392 . S
C1185 C1189 1.495 . S
C1186 C1185 1.392 . S
C1186 C1187 1.385 . S
C1186 C1188 1.478 . S
C1187 H1181 0.930 . S
C1187 C1183 1.400 . S
C1187 C1186 1.385 . S
C1188 C1186 1.478 . S
C1188 C1190 1.381 . S
C1188 C1194 1.383 . S
C1189 C1185 1.495 . S
C1189 H1195 0.959 . S
C1189 H1196 0.961 . S
C1189 H1197 0.960 . S
C1190 C1188 1.381 . S
C1190 C1191 1.394 . S
C1190 H1198 0.930 . S
C1191 C1190 1.394 . S
C1191 C1192 1.383 . S
C1191 H1199 0.929 . S
C1192 C1191 1.383 . S
C1192 C1193 1.377 . S
C1193 H1177 0.930 . S
C1193 C1192 1.377 . S
C1193 C1194 1.379 . S
C1194 H1178 0.931 . S
C1194 C1188 1.383 . S
C1194 C1193 1.379 . S
H1195 C1189 0.959 . S
H1196 C1189 0.961 . S
H1197 C1189 0.960 . S
H1198 C1190 0.930 . S
H1199 C1191 0.929 . S
H1200 C1208 0.929 . S
H1201 C1210 0.930 . S
H1202 C1212 0.930 . S
H1203 C1215 0.929 . S
H1204 C1218 0.930 . S
H1205 C1220 0.960 . S
H1206 C1220 0.960 . S
H1207 C1220 0.960 . S
C1208 H1200 0.929 . S
C1208 C1209 1.377 . S
C1208 C1210 1.384 . S
C1209 C1208 1.377 . S
C1209 C1215 1.390 . S
C1210 H1201 0.930 . S
C1210 C1208 1.384 . S
C1210 C1211 1.372 . S
C1211 C1210 1.372 . S
C1211 C1212 1.400 . S
C1211 C1216 1.490 . S
C1212 H1202 0.930 . S
C1212 C1211 1.400 . S
C1212 C1215 1.386 . S
H1213 C1229 0.930 . S
H1214 C1230 0.931 . S
C1215 H1203 0.929 . S
C1215 C1209 1.390 . S
C1215 C1212 1.386 . S
C1216 C1211 1.490 . S
C1216 C1218 1.395 . S
C1216 C1219 1.403 . S
H1217 C1223 0.930 . S
C1218 H1204 0.930 . S
C1218 C1216 1.395 . S
C1218 C1221 1.403 . S
C1219 C1216 1.403 . S
C1219 C1220 1.524 . S
C1219 C1223 1.400 . S
C1220 H1205 0.960 . S
C1220 H1206 0.960 . S
C1220 H1207 0.960 . S
C1220 C1219 1.524 . S
C1221 C1218 1.403 . S
C1221 C1222 1.392 . S
C1221 C1225 1.495 . S
C1222 C1221 1.392 . S
C1222 C1223 1.385 . S
C1222 C1224 1.478 . S
C1223 H1217 0.930 . S
C1223 C1219 1.400 . S
C1223 C1222 1.385 . S
C1224 C1222 1.478 . S
C1224 C1226 1.381 . S
C1224 C1230 1.383 . S
C1225 C1221 1.495 . S
C1225 H1231 0.959 . S
C1225 H1232 0.961 . S
C1225 H1233 0.960 . S
C1226 C1224 1.381 . S
C1226 C1227 1.394 . S
C1226 H1234 0.930 . S
C1227 C1226 1.394 . S
C1227 C1228 1.383 . S
C1227 H1235 0.929 . S
C1228 C1227 1.383 . S
C1228 C1229 1.377 . S
C1229 H1213 0.930 . S
C1229 C1228 1.377 . S
C1229 C1230 1.379 . S
C1230 H1214 0.931 . S
C1230 C1224 1.383 . S
C1230 C1229 1.379 . S
H1231 C1225 0.959 . S
H1232 C1225 0.961 . S
H1233 C1225 0.960 . S
H1234 C1226 0.930 . S
H1235 C1227 0.929 . S
H1236 C1244 0.929 . S
H1237 C1246 0.930 . S
H1238 C1248 0.930 . S
H1239 C1251 0.929 . S
H1240 C1254 0.930 . S
H1241 C1256 0.960 . S
H1242 C1256 0.960 . S
H1243 C1256 0.960 . S
C1244 H1236 0.929 . S
C1244 C1245 1.377 . S
C1244 C1246 1.384 . S
C1245 C1244 1.377 . S
C1245 C1251 1.390 . S
C1246 H1237 0.930 . S
C1246 C1244 1.384 . S
C1246 C1247 1.372 . S
C1247 C1246 1.372 . S
C1247 C1248 1.400 . S
C1247 C1252 1.490 . S
C1248 H1238 0.930 . S
C1248 C1247 1.400 . S
C1248 C1251 1.386 . S
H1249 C1265 0.930 . S
H1250 C1266 0.931 . S
C1251 H1239 0.929 . S
C1251 C1245 1.390 . S
C1251 C1248 1.386 . S
C1252 C1247 1.490 . S
C1252 C1254 1.395 . S
C1252 C1255 1.403 . S
H1253 C1259 0.930 . S
C1254 H1240 0.930 . S
C1254 C1252 1.395 . S
C1254 C1257 1.403 . S
C1255 C1252 1.403 . S
C1255 C1256 1.524 . S
C1255 C1259 1.400 . S
C1256 H1241 0.960 . S
C1256 H1242 0.960 . S
C1256 H1243 0.960 . S
C1256 C1255 1.524 . S
C1257 C1254 1.403 . S
C1257 C1258 1.392 . S
C1257 C1261 1.495 . S
C1258 C1257 1.392 . S
C1258 C1259 1.385 . S
C1258 C1260 1.478 . S
C1259 H1253 0.930 . S
C1259 C1255 1.400 . S
C1259 C1258 1.385 . S
C1260 C1258 1.478 . S
C1260 C1262 1.381 . S
C1260 C1266 1.383 . S
C1261 C1257 1.495 . S
C1261 H1267 0.959 . S
C1261 H1268 0.961 . S
C1261 H1269 0.960 . S
C1262 C1260 1.381 . S
C1262 C1263 1.394 . S
C1262 H1270 0.930 . S
C1263 C1262 1.394 . S
C1263 C1264 1.383 . S
C1263 H1271 0.929 . S
C1264 C1263 1.383 . S
C1264 C1265 1.377 . S
C1265 H1249 0.930 . S
C1265 C1264 1.377 . S
C1265 C1266 1.379 . S
C1266 H1250 0.931 . S
C1266 C1260 1.383 . S
C1266 C1265 1.379 . S
H1267 C1261 0.959 . S
H1268 C1261 0.961 . S
H1269 C1261 0.960 . S
H1270 C1262 0.930 . S
H1271 C1263 0.929 . S
H1272 C1280 0.929 . S
H1273 C1282 0.930 . S
H1274 C1284 0.930 . S
H1275 C1287 0.929 . S
H1276 C1290 0.930 . S
H1277 C1292 0.960 . S
H1278 C1292 0.960 . S
H1279 C1292 0.960 . S
C1280 H1272 0.929 . S
C1280 C1281 1.377 . S
C1280 C1282 1.384 . S
C1281 C1280 1.377 . S
C1281 C1287 1.390 . S
C1282 H1273 0.930 . S
C1282 C1280 1.384 . S
C1282 C1283 1.372 . S
C1283 C1282 1.372 . S
C1283 C1284 1.400 . S
C1283 C1288 1.490 . S
C1284 H1274 0.930 . S
C1284 C1283 1.400 . S
C1284 C1287 1.386 . S
H1285 C1301 0.930 . S
H1286 C1302 0.931 . S
C1287 H1275 0.929 . S
C1287 C1281 1.390 . S
C1287 C1284 1.386 . S
C1288 C1283 1.490 . S
C1288 C1290 1.395 . S
C1288 C1291 1.403 . S
H1289 C1295 0.930 . S
C1290 H1276 0.930 . S
C1290 C1288 1.395 . S
C1290 C1293 1.403 . S
C1291 C1288 1.403 . S
C1291 C1292 1.524 . S
C1291 C1295 1.400 . S
C1292 H1277 0.960 . S
C1292 H1278 0.960 . S
C1292 H1279 0.960 . S
C1292 C1291 1.524 . S
C1293 C1290 1.403 . S
C1293 C1294 1.392 . S
C1293 C1297 1.495 . S
C1294 C1293 1.392 . S
C1294 C1295 1.385 . S
C1294 C1296 1.478 . S
C1295 H1289 0.930 . S
C1295 C1291 1.400 . S
C1295 C1294 1.385 . S
C1296 C1294 1.478 . S
C1296 C1298 1.381 . S
C1296 C1302 1.383 . S
C1297 C1293 1.495 . S
C1297 H1303 0.959 . S
C1297 H1304 0.961 . S
C1297 H1305 0.960 . S
C1298 C1296 1.381 . S
C1298 C1299 1.394 . S
C1298 H1306 0.930 . S
C1299 C1298 1.394 . S
C1299 C1300 1.383 . S
C1299 H1307 0.929 . S
C1300 C1299 1.383 . S
C1300 C1301 1.377 . S
C1301 H1285 0.930 . S
C1301 C1300 1.377 . S
C1301 C1302 1.379 . S
C1302 H1286 0.931 . S
C1302 C1296 1.383 . S
C1302 C1301 1.379 . S
H1303 C1297 0.959 . S
H1304 C1297 0.961 . S
H1305 C1297 0.960 . S
H1306 C1298 0.930 . S
H1307 C1299 0.929 . S
H1308 C1316 0.929 . S
H1309 C1318 0.930 . S
H1310 C1320 0.930 . S
H1311 C1323 0.929 . S
H1312 C1326 0.930 . S
H1313 C1328 0.960 . S
H1314 C1328 0.960 . S
H1315 C1328 0.960 . S
C1316 H1308 0.929 . S
C1316 C1317 1.377 . S
C1316 C1318 1.384 . S
C1317 C1316 1.377 . S
C1317 C1323 1.390 . S
C1318 H1309 0.930 . S
C1318 C1316 1.384 . S
C1318 C1319 1.372 . S
C1319 C1318 1.372 . S
C1319 C1320 1.400 . S
C1319 C1324 1.490 . S
C1320 H1310 0.930 . S
C1320 C1319 1.400 . S
C1320 C1323 1.386 . S
H1321 C1337 0.930 . S
H1322 C1338 0.931 . S
C1323 H1311 0.929 . S
C1323 C1317 1.390 . S
C1323 C1320 1.386 . S
C1324 C1319 1.490 . S
C1324 C1326 1.395 . S
C1324 C1327 1.403 . S
H1325 C1331 0.930 . S
C1326 H1312 0.930 . S
C1326 C1324 1.395 . S
C1326 C1329 1.403 . S
C1327 C1324 1.403 . S
C1327 C1328 1.524 . S
C1327 C1331 1.400 . S
C1328 H1313 0.960 . S
C1328 H1314 0.960 . S
C1328 H1315 0.960 . S
C1328 C1327 1.524 . S
C1329 C1326 1.403 . S
C1329 C1330 1.392 . S
C1329 C1333 1.495 . S
C1330 C1329 1.392 . S
C1330 C1331 1.385 . S
C1330 C1332 1.478 . S
C1331 H1325 0.930 . S
C1331 C1327 1.400 . S
C1331 C1330 1.385 . S
C1332 C1330 1.478 . S
C1332 C1334 1.381 . S
C1332 C1338 1.383 . S
C1333 C1329 1.495 . S
C1333 H1339 0.959 . S
C1333 H1340 0.961 . S
C1333 H1341 0.960 . S
C1334 C1332 1.381 . S
C1334 C1335 1.394 . S
C1334 H1342 0.930 . S
C1335 C1334 1.394 . S
C1335 C1336 1.383 . S
C1335 H1343 0.929 . S
C1336 C1335 1.383 . S
C1336 C1337 1.377 . S
C1337 H1321 0.930 . S
C1337 C1336 1.377 . S
C1337 C1338 1.379 . S
C1338 H1322 0.931 . S
C1338 C1332 1.383 . S
C1338 C1337 1.379 . S
H1339 C1333 0.959 . S
H1340 C1333 0.961 . S
H1341 C1333 0.960 . S
H1342 C1334 0.930 . S
H1343 C1335 0.929 . S
H1344 C1352 0.929 . S
H1345 C1354 0.930 . S
H1346 C1356 0.930 . S
H1347 C1359 0.929 . S
H1348 C1362 0.930 . S
H1349 C1364 0.960 . S
H1350 C1364 0.960 . S
H1351 C1364 0.960 . S
C1352 H1344 0.929 . S
C1352 C1353 1.377 . S
C1352 C1354 1.384 . S
C1353 C1352 1.377 . S
C1353 C1359 1.390 . S
C1354 H1345 0.930 . S
C1354 C1352 1.384 . S
C1354 C1355 1.372 . S
C1355 C1354 1.372 . S
C1355 C1356 1.400 . S
C1355 C1360 1.490 . S
C1356 H1346 0.930 . S
C1356 C1355 1.400 . S
C1356 C1359 1.386 . S
H1357 C1373 0.930 . S
H1358 C1374 0.931 . S
C1359 H1347 0.929 . S
C1359 C1353 1.390 . S
C1359 C1356 1.386 . S
C1360 C1355 1.490 . S
C1360 C1362 1.395 . S
C1360 C1363 1.403 . S
H1361 C1367 0.930 . S
C1362 H1348 0.930 . S
C1362 C1360 1.395 . S
C1362 C1365 1.403 . S
C1363 C1360 1.403 . S
C1363 C1364 1.524 . S
C1363 C1367 1.400 . S
C1364 H1349 0.960 . S
C1364 H1350 0.960 . S
C1364 H1351 0.960 . S
C1364 C1363 1.524 . S
C1365 C1362 1.403 . S
C1365 C1366 1.392 . S
C1365 C1369 1.495 . S
C1366 C1365 1.392 . S
C1366 C1367 1.385 . S
C1366 C1368 1.478 . S
C1367 H1361 0.930 . S
C1367 C1363 1.400 . S
C1367 C1366 1.385 . S
C1368 C1366 1.478 . S
C1368 C1370 1.381 . S
C1368 C1374 1.383 . S
C1369 C1365 1.495 . S
C1369 H1375 0.959 . S
C1369 H1376 0.961 . S
C1369 H1377 0.960 . S
C1370 C1368 1.381 . S
C1370 C1371 1.394 . S
C1370 H1378 0.930 . S
C1371 C1370 1.394 . S
C1371 C1372 1.383 . S
C1371 H1379 0.929 . S
C1372 C1371 1.383 . S
C1372 C1373 1.377 . S
C1373 H1357 0.930 . S
C1373 C1372 1.377 . S
C1373 C1374 1.379 . S
C1374 H1358 0.931 . S
C1374 C1368 1.383 . S
C1374 C1373 1.379 . S
H1375 C1369 0.959 . S
H1376 C1369 0.961 . S
H1377 C1369 0.960 . S
H1378 C1370 0.930 . S
H1379 C1371 0.929 . S
H1380 C1388 0.929 . S
H1381 C1390 0.930 . S
H1382 C1392 0.930 . S
H1383 C1395 0.929 . S
H1384 C1398 0.930 . S
H1385 C1400 0.960 . S
H1386 C1400 0.960 . S
H1387 C1400 0.960 . S
C1388 H1380 0.929 . S
C1388 C1389 1.377 . S
C1388 C1390 1.384 . S
C1389 C1388 1.377 . S
C1389 C1395 1.390 . S
C1390 H1381 0.930 . S
C1390 C1388 1.384 . S
C1390 C1391 1.372 . S
C1391 C1390 1.372 . S
C1391 C1392 1.400 . S
C1391 C1396 1.490 . S
C1392 H1382 0.930 . S
C1392 C1391 1.400 . S
C1392 C1395 1.386 . S
H1393 C1409 0.930 . S
H1394 C1410 0.931 . S
C1395 H1383 0.929 . S
C1395 C1389 1.390 . S
C1395 C1392 1.386 . S
C1396 C1391 1.490 . S
C1396 C1398 1.395 . S
C1396 C1399 1.403 . S
H1397 C1403 0.930 . S
C1398 H1384 0.930 . S
C1398 C1396 1.395 . S
C1398 C1401 1.403 . S
C1399 C1396 1.403 . S
C1399 C1400 1.524 . S
C1399 C1403 1.400 . S
C1400 H1385 0.960 . S
C1400 H1386 0.960 . S
C1400 H1387 0.960 . S
C1400 C1399 1.524 . S
C1401 C1398 1.403 . S
C1401 C1402 1.392 . S
C1401 C1405 1.495 . S
C1402 C1401 1.392 . S
C1402 C1403 1.385 . S
C1402 C1404 1.478 . S
C1403 H1397 0.930 . S
C1403 C1399 1.400 . S
C1403 C1402 1.385 . S
C1404 C1402 1.478 . S
C1404 C1406 1.381 . S
C1404 C1410 1.383 . S
C1405 C1401 1.495 . S
C1405 H1411 0.959 . S
C1405 H1412 0.961 . S
C1405 H1413 0.960 . S
C1406 C1404 1.381 . S
C1406 C1407 1.394 . S
C1406 H1414 0.930 . S
C1407 C1406 1.394 . S
C1407 C1408 1.383 . S
C1407 H1415 0.929 . S
C1408 C1407 1.383 . S
C1408 C1409 1.377 . S
C1409 H1393 0.930 . S
C1409 C1408 1.377 . S
C1409 C1410 1.379 . S
C1410 H1394 0.931 . S
C1410 C1404 1.383 . S
C1410 C1409 1.379 . S
H1411 C1405 0.959 . S
H1412 C1405 0.961 . S
H1413 C1405 0.960 . S
H1414 C1406 0.930 . S
H1415 C1407 0.929 . S
H1416 C1424 0.929 . S
H1417 C1426 0.930 . S
H1418 C1428 0.930 . S
H1419 C1431 0.929 . S
H1420 C1434 0.930 . S
H1421 C1436 0.960 . S
H1422 C1436 0.960 . S
H1423 C1436 0.960 . S
C1424 H1416 0.929 . S
C1424 C1425 1.377 . S
C1424 C1426 1.384 . S
C1425 C1424 1.377 . S
C1425 C1431 1.390 . S
C1426 H1417 0.930 . S
C1426 C1424 1.384 . S
C1426 C1427 1.372 . S
C1427 C1426 1.372 . S
C1427 C1428 1.400 . S
C1427 C1432 1.490 . S
C1428 H1418 0.930 . S
C1428 C1427 1.400 . S
C1428 C1431 1.386 . S
H1429 C1445 0.930 . S
H1430 C1446 0.931 . S
C1431 H1419 0.929 . S
C1431 C1425 1.390 . S
C1431 C1428 1.386 . S
C1432 C1427 1.490 . S
C1432 C1434 1.395 . S
C1432 C1435 1.403 . S
H1433 C1439 0.930 . S
C1434 H1420 0.930 . S
C1434 C1432 1.395 . S
C1434 C1437 1.403 . S
C1435 C1432 1.403 . S
C1435 C1436 1.524 . S
C1435 C1439 1.400 . S
C1436 H1421 0.960 . S
C1436 H1422 0.960 . S
C1436 H1423 0.960 . S
C1436 C1435 1.524 . S
C1437 C1434 1.403 . S
C1437 C1438 1.392 . S
C1437 C1441 1.495 . S
C1438 C1437 1.392 . S
C1438 C1439 1.385 . S
C1438 C1440 1.478 . S
C1439 H1433 0.930 . S
C1439 C1435 1.400 . S
C1439 C1438 1.385 . S
C1440 C1438 1.478 . S
C1440 C1442 1.381 . S
C1440 C1446 1.383 . S
C1441 C1437 1.495 . S
C1441 H1447 0.959 . S
C1441 H1448 0.961 . S
C1441 H1449 0.960 . S
C1442 C1440 1.381 . S
C1442 C1443 1.394 . S
C1442 H1450 0.930 . S
C1443 C1442 1.394 . S
C1443 C1444 1.383 . S
C1443 H1451 0.929 . S
C1444 C1443 1.383 . S
C1444 C1445 1.377 . S
C1445 H1429 0.930 . S
C1445 C1444 1.377 . S
C1445 C1446 1.379 . S
C1446 H1430 0.931 . S
C1446 C1440 1.383 . S
C1446 C1445 1.379 . S
H1447 C1441 0.959 . S
H1448 C1441 0.961 . S
H1449 C1441 0.960 . S
H1450 C1442 0.930 . S
H1451 C1443 0.929 . S
H1452 C1460 0.929 . S
H1453 C1462 0.930 . S
H1454 C1464 0.930 . S
H1455 C1467 0.929 . S
H1456 C1470 0.930 . S
H1457 C1472 0.960 . S
H1458 C1472 0.960 . S
H1459 C1472 0.960 . S
C1460 H1452 0.929 . S
C1460 C1461 1.377 . S
C1460 C1462 1.384 . S
C1461 C1460 1.377 . S
C1461 C1467 1.390 . S
C1462 H1453 0.930 . S
C1462 C1460 1.384 . S
C1462 C1463 1.372 . S
C1463 C1462 1.372 . S
C1463 C1464 1.400 . S
C1463 C1468 1.490 . S
C1464 H1454 0.930 . S
C1464 C1463 1.400 . S
C1464 C1467 1.386 . S
H1465 C1481 0.930 . S
H1466 C1482 0.931 . S
C1467 H1455 0.929 . S
C1467 C1461 1.390 . S
C1467 C1464 1.386 . S
C1468 C1463 1.490 . S
C1468 C1470 1.395 . S
C1468 C1471 1.403 . S
H1469 C1475 0.930 . S
C1470 H1456 0.930 . S
C1470 C1468 1.395 . S
C1470 C1473 1.403 . S
C1471 C1468 1.403 . S
C1471 C1472 1.524 . S
C1471 C1475 1.400 . S
C1472 H1457 0.960 . S
C1472 H1458 0.960 . S
C1472 H1459 0.960 . S
C1472 C1471 1.524 . S
C1473 C1470 1.403 . S
C1473 C1474 1.392 . S
C1473 C1477 1.495 . S
C1474 C1473 1.392 . S
C1474 C1475 1.385 . S
C1474 C1476 1.478 . S
C1475 H1469 0.930 . S
C1475 C1471 1.400 . S
C1475 C1474 1.385 . S
C1476 C1474 1.478 . S
C1476 C1478 1.381 . S
C1476 C1482 1.383 . S
C1477 C1473 1.495 . S
C1477 H1483 0.959 . S
C1477 H1484 0.961 . S
C1477 H1485 0.960 . S
C1478 C1476 1.381 . S
C1478 C1479 1.394 . S
C1478 H1486 0.930 . S
C1479 C1478 1.394 . S
C1479 C1480 1.383 . S
C1479 H1487 0.929 . S
C1480 C1479 1.383 . S
C1480 C1481 1.377 . S
C1481 H1465 0.930 . S
C1481 C1480 1.377 . S
C1481 C1482 1.379 . S
C1482 H1466 0.931 . S
C1482 C1476 1.383 . S
C1482 C1481 1.379 . S
H1483 C1477 0.959 . S
H1484 C1477 0.961 . S
H1485 C1477 0.960 . S
H1486 C1478 0.930 . S
H1487 C1479 0.929 . S
H1488 C1496 0.929 . S
H1489 C1498 0.930 . S
H1490 C1500 0.930 . S
H1491 C1503 0.929 1_455 S
H1492 C1506 0.930 . S
H1493 C1508 0.960 . S
H1494 C1508 0.960 . S
H1495 C1508 0.960 1_455 S
C1496 H1488 0.929 . S
C1496 C1497 1.377 . S
C1496 C1498 1.384 . S
C1497 C1496 1.377 . S
C1497 C1503 1.390 . S
C1498 H1489 0.930 . S
C1498 C1496 1.384 . S
C1498 C1499 1.372 . S
C1499 C1498 1.372 . S
C1499 C1500 1.400 1_655 S
C1499 C1504 1.490 . S
C1500 H1490 0.930 . S
C1500 C1499 1.400 1_455 S
C1500 C1503 1.386 1_455 S
H1501 C1517 0.930 . S
H1502 C1518 0.931 . S
C1503 H1491 0.929 1_655 S
C1503 C1497 1.390 . S
C1503 C1500 1.386 1_655 S
C1504 C1499 1.490 . S
C1504 C1506 1.395 . S
C1504 C1507 1.403 . S
H1505 C1511 0.930 . S
C1506 H1492 0.930 . S
C1506 C1504 1.395 . S
C1506 C1509 1.403 1_655 S
C1507 C1504 1.403 . S
C1507 C1508 1.524 . S
C1507 C1511 1.400 1_655 S
C1508 H1493 0.960 . S
C1508 H1494 0.960 . S
C1508 H1495 0.960 1_655 S
C1508 C1507 1.524 . S
C1509 C1506 1.403 1_455 S
C1509 C1510 1.392 . S
C1509 C1513 1.495 . S
C1510 C1509 1.392 . S
C1510 C1511 1.385 . S
C1510 C1512 1.478 . S
C1511 H1505 0.930 . S
C1511 C1507 1.400 1_455 S
C1511 C1510 1.385 . S
C1512 C1510 1.478 . S
C1512 C1514 1.381 1_455 S
C1512 C1518 1.383 . S
C1513 C1509 1.495 . S
C1513 H1519 0.959 . S
C1513 H1520 0.961 . S
C1513 H1521 0.960 1_455 S
C1514 C1512 1.381 1_655 S
C1514 C1515 1.386 1_655 S
C1514 H1522 0.930 . S
C1515 C1514 1.386 1_455 S
C1515 C1516 1.419 . S
C1515 H1523 0.903 1_455 S
C1516 C1515 1.419 . S
C1516 C1517 1.377 . S
C1517 H1501 0.930 . S
C1517 C1516 1.377 . S
C1517 C1518 1.379 . S
C1518 H1502 0.931 . S
C1518 C1512 1.383 . S
C1518 C1517 1.379 . S
H1519 C1513 0.959 . S
H1520 C1513 0.961 . S
H1521 C1513 0.960 1_655 S
H1522 C1514 0.930 . S
H1523 C1515 0.903 1_655 S
H1524 C1532 0.929 . S
H1525 C1534 0.930 . S
H1526 C1536 0.944 . S
H1527 C1539 0.929 . S
H1528 C1542 0.923 1_545 S
H1529 C1544 0.960 . S
H1530 C1544 0.960 . S
H1531 C1544 0.960 . S
C1532 H1524 0.929 . S
C1532 C1533 1.377 . S
C1532 C1534 1.384 . S
C1533 C1532 1.377 . S
C1533 C1539 1.390 . S
C1534 H1525 0.930 . S
C1534 C1532 1.384 . S
C1534 C1535 1.372 . S
C1535 C1534 1.372 . S
C1535 C1536 1.400 . S
C1535 C1540 1.490 . S
C1536 H1526 0.944 . S
C1536 C1535 1.400 . S
C1536 C1539 1.386 . S
H1537 C1553 0.930 . S
H1538 C1554 0.931 . S
C1539 H1527 0.929 . S
C1539 C1533 1.390 . S
C1539 C1536 1.386 . S
C1540 C1535 1.490 . S
C1540 C1542 1.416 . S
C1540 C1543 1.403 . S
H1541 C1547 0.930 . S
C1542 H1528 0.923 1_565 S
C1542 C1540 1.416 . S
C1542 C1545 1.390 1_565 S
C1543 C1540 1.403 . S
C1543 C1544 1.524 . S
C1543 C1547 1.400 . S
C1544 H1529 0.960 . S
C1544 H1530 0.960 . S
C1544 H1531 0.960 . S
C1544 C1543 1.524 . S
C1545 C1542 1.390 1_545 S
C1545 C1546 1.392 . S
C1545 C1549 1.495 . S
C1546 C1545 1.392 . S
C1546 C1547 1.385 1_545 S
C1546 C1548 1.478 . S
C1547 H1541 0.930 . S
C1547 C1543 1.400 . S
C1547 C1546 1.385 1_565 S
C1548 C1546 1.478 . S
C1548 C1550 1.352 1_545 S
C1548 C1554 1.383 . S
C1549 C1545 1.495 . S
C1549 H1555 0.959 . S
C1549 H1556 0.961 . S
C1549 H1557 0.960 . S
C1550 C1548 1.352 1_565 S
C1550 C1551 1.380 1_565 S
C1550 H1558 0.978 . S
C1551 C1550 1.380 1_545 S
C1551 C1552 1.383 . S
C1551 H1559 0.929 1_545 S
C1552 C1551 1.383 . S
C1552 C1553 1.377 . S
C1553 H1537 0.930 . S
C1553 C1552 1.377 . S
C1553 C1554 1.379 . S
C1554 H1538 0.931 . S
C1554 C1548 1.383 . S
C1554 C1553 1.379 . S
H1555 C1549 0.959 . S
H1556 C1549 0.961 . S
H1557 C1549 0.960 . S
H1558 C1550 0.978 . S
H1559 C1551 0.929 1_565 S
H1560 C1568 0.929 . S
H1561 C1570 0.930 . S
H1562 C1572 0.930 . S
H1563 C1575 0.929 . S
H1564 C1578 0.930 . S
H1565 C1580 0.960 . S
H1566 C1580 0.960 . S
H1567 C1580 0.960 . S
C1568 H1560 0.929 . S
C1568 C1569 1.377 1_455 S
C1568 C1570 1.384 . S
C1569 C1568 1.377 1_655 S
C1569 C1575 1.390 . S
C1570 H1561 0.930 . S
C1570 C1568 1.384 . S
C1570 C1571 1.372 1_455 S
C1571 C1570 1.372 1_655 S
C1571 C1572 1.400 . S
C1571 C1576 1.490 . S
C1572 H1562 0.930 . S
C1572 C1571 1.400 . S
C1572 C1575 1.386 . S
H1573 C1589 0.931 1_655 S
H1574 C1590 0.931 . S
C1575 H1563 0.929 . S
C1575 C1569 1.390 . S
C1575 C1572 1.386 . S
C1576 C1571 1.490 . S
C1576 C1578 1.395 1_655 S
C1576 C1579 1.403 . S
H1577 C1583 0.930 . S
C1578 H1564 0.930 . S
C1578 C1576 1.395 1_455 S
C1578 C1581 1.403 . S
C1579 C1576 1.403 . S
C1579 C1580 1.524 . S
C1579 C1583 1.400 . S
C1580 H1565 0.960 . S
C1580 H1566 0.960 . S
C1580 H1567 0.960 . S
C1580 C1579 1.524 . S
C1581 C1578 1.403 . S
C1581 C1582 1.392 . S
C1581 C1585 1.495 . S
C1582 C1581 1.392 . S
C1582 C1583 1.385 1_455 S
C1582 C1584 1.478 . S
C1583 H1577 0.930 . S
C1583 C1579 1.400 . S
C1583 C1582 1.385 1_655 S
C1584 C1582 1.478 . S
C1584 C1586 1.381 . S
C1584 C1590 1.383 1_455 S
C1585 C1581 1.495 . S
C1585 H1591 0.959 . S
C1585 H1592 0.961 . S
C1585 H1593 0.960 . S
C1586 C1584 1.381 . S
C1586 C1587 1.394 . S
C1586 H1594 0.930 . S
C1587 C1586 1.394 . S
C1587 C1588 1.383 . S
C1587 H1595 0.929 . S
C1588 C1587 1.383 . S
C1588 C1589 1.375 . S
C1589 H1573 0.931 1_455 S
C1589 C1588 1.375 . S
C1589 C1590 1.380 1_455 S
C1590 H1574 0.931 . S
C1590 C1584 1.383 1_655 S
C1590 C1589 1.380 1_655 S
H1591 C1585 0.959 . S
H1592 C1585 0.961 . S
H1593 C1585 0.960 . S
H1594 C1586 0.930 . S
H1595 C1587 0.929 . S
H1596 C1604 0.929 . S
H1597 C1606 0.930 . S
H1598 C1608 0.930 . S
H1599 C1611 0.929 . S
H1600 C1614 0.930 . S
H1601 C1616 0.960 . S
H1602 C1616 0.960 . S
H1603 C1616 0.960 . S
C1604 H1596 0.929 . S
C1604 C1605 1.377 . S
C1604 C1606 1.384 . S
C1605 C1604 1.377 . S
C1605 C1611 1.390 . S
C1606 H1597 0.930 . S
C1606 C1604 1.384 . S
C1606 C1607 1.372 . S
C1607 C1606 1.372 . S
C1607 C1608 1.400 . S
C1607 C1612 1.490 . S
C1608 H1598 0.930 . S
C1608 C1607 1.400 . S
C1608 C1611 1.386 . S
H1609 C1625 0.930 . S
H1610 C1626 0.931 1_545 S
C1611 H1599 0.929 . S
C1611 C1605 1.390 . S
C1611 C1608 1.386 . S
C1612 C1607 1.490 . S
C1612 C1614 1.395 . S
C1612 C1615 1.403 1_545 S
H1613 C1619 0.930 . S
C1614 H1600 0.930 . S
C1614 C1612 1.395 . S
C1614 C1617 1.403 . S
C1615 C1612 1.403 1_565 S
C1615 C1616 1.524 . S
C1615 C1619 1.400 . S
C1616 H1601 0.960 . S
C1616 H1602 0.960 . S
C1616 H1603 0.960 . S
C1616 C1615 1.524 . S
C1617 C1614 1.403 . S
C1617 C1618 1.392 . S
C1617 C1621 1.495 . S
C1618 C1617 1.392 . S
C1618 C1619 1.385 1_545 S
C1618 C1620 1.478 1_545 S
C1619 H1613 0.930 . S
C1619 C1615 1.400 . S
C1619 C1618 1.385 1_565 S
C1620 C1618 1.478 1_565 S
C1620 C1622 1.381 . S
C1620 C1626 1.383 . S
C1621 C1617 1.495 . S
C1621 H1627 0.959 . S
C1621 H1628 0.961 . S
C1621 H1629 0.960 . S
C1622 C1620 1.381 . S
C1622 C1623 1.394 . S
C1622 H1630 0.930 . S
C1623 C1622 1.394 . S
C1623 C1624 1.383 . S
C1623 H1631 0.929 . S
C1624 C1623 1.383 . S
C1624 C1625 1.377 . S
C1625 H1609 0.930 . S
C1625 C1624 1.377 . S
C1625 C1626 1.379 . S
C1626 H1610 0.931 1_565 S
C1626 C1620 1.383 . S
C1626 C1625 1.379 . S
H1627 C1621 0.959 . S
H1628 C1621 0.961 . S
H1629 C1621 0.960 . S
H1630 C1622 0.930 . S
H1631 C1623 0.929 . S
H1632 C1640 0.929 . S
H1633 C1642 0.930 . S
H1634 C1644 0.930 . S
H1635 C1647 0.929 . S
H1636 C1650 0.930 . S
H1637 C1652 0.960 . S
H1638 C1652 0.960 . S
H1639 C1652 0.960 . S
C1640 H1632 0.929 . S
C1640 C1641 1.377 . S
C1640 C1642 1.384 . S
C1641 C1640 1.377 . S
C1641 C1647 1.390 . S
C1642 H1633 0.930 . S
C1642 C1640 1.384 . S
C1642 C1643 1.372 . S
C1643 C1642 1.372 . S
C1643 C1644 1.400 . S
C1643 C1648 1.490 . S
C1644 H1634 0.930 . S
C1644 C1643 1.400 . S
C1644 C1647 1.386 . S
H1645 C1661 0.930 . S
H1646 C1662 0.931 . S
C1647 H1635 0.929 . S
C1647 C1641 1.390 . S
C1647 C1644 1.386 . S
C1648 C1643 1.490 . S
C1648 C1650 1.395 1_455 S
C1648 C1651 1.403 . S
H1649 C1655 0.930 . S
C1650 H1636 0.930 . S
C1650 C1648 1.395 1_655 S
C1650 C1653 1.403 . S
C1651 C1648 1.403 . S
C1651 C1652 1.524 . S
C1651 C1655 1.400 . S
C1652 H1637 0.960 . S
C1652 H1638 0.960 . S
C1652 H1639 0.960 . S
C1652 C1651 1.524 . S
C1653 C1650 1.403 . S
C1653 C1654 1.392 . S
C1653 C1657 1.495 . S
C1654 C1653 1.392 . S
C1654 C1655 1.385 1_655 S
C1654 C1656 1.478 . S
C1655 H1649 0.930 . S
C1655 C1651 1.400 . S
C1655 C1654 1.385 1_455 S
C1656 C1654 1.478 . S
C1656 C1658 1.381 . S
C1656 C1662 1.383 . S
C1657 C1653 1.495 . S
C1657 H1663 0.959 . S
C1657 H1664 0.961 . S
C1657 H1665 0.960 . S
C1658 C1656 1.381 . S
C1658 C1659 1.394 . S
C1658 H1666 0.930 . S
C1659 C1658 1.394 . S
C1659 C1660 1.383 . S
C1659 H1667 0.929 . S
C1660 C1659 1.383 . S
C1660 C1661 1.377 . S
C1661 H1645 0.930 . S
C1661 C1660 1.377 . S
C1661 C1662 1.379 . S
C1662 H1646 0.931 . S
C1662 C1656 1.383 . S
C1662 C1661 1.379 . S
H1663 C1657 0.959 . S
H1664 C1657 0.961 . S
H1665 C1657 0.960 . S
H1666 C1658 0.930 . S
H1667 C1659 0.929 . S
H1668 C1676 0.929 . S
H1669 C1678 0.930 . S
H1670 C1680 0.930 1_545 S
H1671 C1683 0.929 1_545 S
H1672 C1686 0.930 . S
H1673 C1688 0.960 . S
H1674 C1688 0.960 1_565 S
H1675 C1688 0.960 . S
C1676 H1668 0.929 . S
C1676 C1677 1.377 . S
C1676 C1678 1.384 . S
C1677 C1676 1.377 . S
C1677 C1683 1.390 . S
C1678 H1669 0.930 . S
C1678 C1676 1.384 . S
C1678 C1679 1.372 . S
C1679 C1678 1.372 . S
C1679 C1680 1.400 . S
C1679 C1684 1.490 . S
C1680 H1670 0.930 1_565 S
C1680 C1679 1.400 . S
C1680 C1683 1.386 . S
H1681 C1697 0.930 . S
H1682 C1698 0.931 . S
C1683 H1671 0.929 1_565 S
C1683 C1677 1.390 . S
C1683 C1680 1.386 . S
C1684 C1679 1.490 . S
C1684 C1686 1.395 . S
C1684 C1687 1.400 1_565 S
H1685 C1691 0.930 . S
C1686 H1672 0.930 . S
C1686 C1684 1.395 . S
C1686 C1689 1.403 . S
C1687 C1684 1.400 1_545 S
C1687 C1688 1.525 . S
C1687 C1691 1.401 . S
C1688 H1673 0.960 . S
C1688 H1674 0.960 1_545 S
C1688 H1675 0.960 . S
C1688 C1687 1.525 . S
C1689 C1686 1.403 . S
C1689 C1690 1.392 . S
C1689 C1693 1.495 . S
C1690 C1689 1.392 . S
C1690 C1691 1.385 1_565 S
C1690 C1692 1.478 1_565 S
C1691 H1685 0.930 . S
C1691 C1687 1.401 . S
C1691 C1690 1.385 1_545 S
C1692 C1690 1.478 1_545 S
C1692 C1694 1.381 1_545 S
C1692 C1698 1.383 . S
C1693 C1689 1.495 . S
C1693 H1699 0.959 . S
C1693 H1700 0.961 . S
C1693 H1701 0.960 . S
C1694 C1692 1.381 1_565 S
C1694 C1695 1.394 . S
C1694 H1702 0.930 . S
C1695 C1694 1.394 . S
C1695 C1696 1.383 1_565 S
C1695 H1703 0.929 . S
C1696 C1695 1.383 1_545 S
C1696 C1697 1.377 . S
C1697 H1681 0.930 . S
C1697 C1696 1.377 . S
C1697 C1698 1.379 . S
C1698 H1682 0.931 . S
C1698 C1692 1.383 . S
C1698 C1697 1.379 . S
H1699 C1693 0.959 . S
H1700 C1693 0.961 . S
H1701 C1693 0.960 . S
H1702 C1694 0.930 . S
H1703 C1695 0.929 . S
H1704 C1712 0.929 . S
H1705 C1714 0.930 . S
H1706 C1716 0.930 . S
H1707 C1719 0.929 . S
H1708 C1722 0.930 . S
H1709 C1724 0.960 . S
H1710 C1724 0.960 . S
H1711 C1724 0.960 . S
C1712 H1704 0.929 . S
C1712 C1713 1.377 . S
C1712 C1714 1.384 . S
C1713 C1712 1.377 . S
C1713 C1719 1.390 . S
C1714 H1705 0.930 . S
C1714 C1712 1.384 . S
C1714 C1715 1.372 . S
C1715 C1714 1.372 . S
C1715 C1716 1.400 . S
C1715 C1720 1.490 . S
C1716 H1706 0.930 . S
C1716 C1715 1.400 . S
C1716 C1719 1.386 . S
H1717 C1733 0.930 . S
H1718 C1734 0.953 . S
C1719 H1707 0.929 . S
C1719 C1713 1.390 . S
C1719 C1716 1.386 . S
C1720 C1715 1.490 . S
C1720 C1722 1.395 . S
C1720 C1723 1.403 1_455 S
H1721 C1727 0.930 . S
C1722 H1708 0.930 . S
C1722 C1720 1.395 . S
C1722 C1725 1.403 . S
C1723 C1720 1.403 1_655 S
C1723 C1724 1.524 . S
C1723 C1727 1.400 . S
C1724 H1709 0.960 . S
C1724 H1710 0.960 . S
C1724 H1711 0.960 . S
C1724 C1723 1.524 . S
C1725 C1722 1.403 . S
C1725 C1726 1.392 1_455 S
C1725 C1729 1.495 . S
C1726 C1725 1.392 1_655 S
C1726 C1727 1.385 . S
C1726 C1728 1.478 . S
C1727 H1721 0.930 . S
C1727 C1723 1.400 . S
C1727 C1726 1.385 . S
C1728 C1726 1.478 . S
C1728 C1730 1.381 . S
C1728 C1734 1.383 . S
C1729 C1725 1.495 . S
C1729 H1735 0.959 . S
C1729 H1736 0.961 . S
C1729 H1737 0.960 . S
C1730 C1728 1.381 . S
C1730 C1731 1.394 . S
C1730 H1738 0.930 . S
C1731 C1730 1.394 . S
C1731 C1732 1.383 . S
C1731 H1739 0.929 . S
C1732 C1731 1.383 . S
C1732 C1733 1.377 . S
C1733 H1717 0.930 . S
C1733 C1732 1.377 . S
C1733 C1734 1.379 . S
C1734 H1718 0.953 . S
C1734 C1728 1.383 . S
C1734 C1733 1.379 . S
H1735 C1729 0.959 . S
H1736 C1729 0.961 . S
H1737 C1729 0.960 . S
H1738 C1730 0.930 . S
H1739 C1731 0.929 . S
H1740 C1748 0.929 . S
H1741 C1750 0.930 . S
H1742 C1752 0.930 . S
H1743 C1755 0.929 . S
H1744 C1758 0.930 . S
H1745 C1760 0.960 . S
H1746 C1760 0.960 . S
H1747 C1760 0.960 . S
C1748 H1740 0.929 . S
C1748 C1749 1.377 . S
C1748 C1750 1.384 . S
C1749 C1748 1.377 . S
C1749 C1755 1.390 . S
C1750 H1741 0.930 . S
C1750 C1748 1.384 . S
C1750 C1751 1.372 . S
C1751 C1750 1.372 . S
C1751 C1752 1.400 . S
C1751 C1756 1.490 . S
C1752 H1742 0.930 . S
C1752 C1751 1.400 . S
C1752 C1755 1.386 . S
H1753 C1769 0.930 . S
H1754 C1770 0.931 . S
C1755 H1743 0.929 . S
C1755 C1749 1.390 . S
C1755 C1752 1.386 . S
C1756 C1751 1.490 . S
C1756 C1758 1.395 . S
C1756 C1759 1.403 1_545 S
H1757 C1763 0.930 . S
C1758 H1744 0.930 . S
C1758 C1756 1.395 . S
C1758 C1761 1.403 . S
C1759 C1756 1.403 1_565 S
C1759 C1760 1.524 . S
C1759 C1763 1.400 . S
C1760 H1745 0.960 . S
C1760 H1746 0.960 . S
C1760 H1747 0.960 . S
C1760 C1759 1.524 . S
C1761 C1758 1.403 . S
C1761 C1762 1.392 . S
C1761 C1765 1.495 . S
C1762 C1761 1.392 . S
C1762 C1763 1.385 1_545 S
C1762 C1764 1.478 1_545 S
C1763 H1757 0.930 . S
C1763 C1759 1.400 . S
C1763 C1762 1.385 1_565 S
C1764 C1762 1.478 1_565 S
C1764 C1766 1.381 . S
C1764 C1770 1.383 . S
C1765 C1761 1.495 . S
C1765 H1771 0.959 . S
C1765 H1772 0.961 . S
C1765 H1773 0.960 . S
C1766 C1764 1.381 . S
C1766 C1767 1.394 . S
C1766 H1774 0.930 . S
C1767 C1766 1.394 . S
C1767 C1768 1.383 . S
C1767 H1775 0.929 . S
C1768 C1767 1.383 . S
C1768 C1769 1.377 . S
C1769 H1753 0.930 . S
C1769 C1768 1.377 . S
C1769 C1770 1.379 . S
C1770 H1754 0.931 . S
C1770 C1764 1.383 . S
C1770 C1769 1.379 . S
H1771 C1765 0.959 . S
H1772 C1765 0.961 . S
H1773 C1765 0.960 . S
H1774 C1766 0.930 . S
H1775 C1767 0.929 . S
H1776 C1784 0.929 . S
H1777 C1786 0.930 . S
H1778 C1788 0.930 . S
H1779 C1791 0.929 . S
H1780 C1794 0.930 . S
H1781 C1796 0.960 . S
H1782 C1796 0.960 . S
H1783 C1796 0.960 . S
C1784 H1776 0.929 . S
C1784 C1785 1.377 . S
C1784 C1786 1.384 . S
C1785 C1784 1.377 . S
C1785 C1791 1.390 . S
C1786 H1777 0.930 . S
C1786 C1784 1.384 . S
C1786 C1787 1.372 . S
C1787 C1786 1.372 . S
C1787 C1788 1.400 . S
C1787 C1792 1.490 . S
C1788 H1778 0.930 . S
C1788 C1787 1.400 . S
C1788 C1791 1.386 . S
H1789 C1805 0.930 . S
H1790 C1806 0.931 . S
C1791 H1779 0.929 . S
C1791 C1785 1.390 . S
C1791 C1788 1.386 . S
C1792 C1787 1.490 . S
C1792 C1794 1.395 1_556 S
C1792 C1795 1.403 . S
H1793 C1799 0.930 . S
C1794 H1780 0.930 . S
C1794 C1792 1.395 1_554 S
C1794 C1797 1.403 . S
C1795 C1792 1.403 . S
C1795 C1796 1.524 . S
C1795 C1799 1.400 . S
C1796 H1781 0.960 . S
C1796 H1782 0.960 . S
C1796 H1783 0.960 . S
C1796 C1795 1.524 . S
C1797 C1794 1.403 . S
C1797 C1798 1.392 . S
C1797 C1801 1.495 . S
C1798 C1797 1.392 . S
C1798 C1799 1.385 1_554 S
C1798 C1800 1.478 . S
C1799 H1793 0.930 . S
C1799 C1795 1.400 . S
C1799 C1798 1.385 1_556 S
C1800 C1798 1.478 . S
C1800 C1802 1.381 . S
C1800 C1806 1.383 . S
C1801 C1797 1.495 . S
C1801 H1807 0.959 . S
C1801 H1808 0.961 . S
C1801 H1809 0.960 . S
C1802 C1800 1.381 . S
C1802 C1803 1.394 . S
C1802 H1810 0.930 . S
C1803 C1802 1.394 . S
C1803 C1804 1.383 . S
C1803 H1811 0.929 . S
C1804 C1803 1.383 . S
C1804 C1805 1.377 . S
C1805 H1789 0.930 . S
C1805 C1804 1.377 . S
C1805 C1806 1.379 . S
C1806 H1790 0.931 . S
C1806 C1800 1.383 . S
C1806 C1805 1.379 . S
H1807 C1801 0.959 . S
H1808 C1801 0.961 . S
H1809 C1801 0.960 . S
H1810 C1802 0.930 . S
H1811 C1803 0.929 . S
H1812 C1820 0.929 . S
H1813 C1822 0.930 . S
H1814 C1824 0.930 1_556 S
H1815 C1827 0.929 1_556 S
H1816 C1830 0.930 . S
H1817 C1832 0.960 . S
H1818 C1832 0.960 1_554 S
H1819 C1832 0.960 . S
C1820 H1812 0.929 . S
C1820 C1821 1.377 . S
C1820 C1822 1.384 . S
C1821 C1820 1.377 . S
C1821 C1827 1.390 . S
C1822 H1813 0.930 . S
C1822 C1820 1.384 . S
C1822 C1823 1.372 . S
C1823 C1822 1.372 . S
C1823 C1824 1.400 . S
C1823 C1828 1.490 . S
C1824 H1814 0.930 1_554 S
C1824 C1823 1.400 . S
C1824 C1827 1.386 . S
H1825 C1841 0.930 . S
H1826 C1842 0.931 . S
C1827 H1815 0.929 1_554 S
C1827 C1821 1.390 . S
C1827 C1824 1.386 . S
C1828 C1823 1.490 . S
C1828 C1830 1.395 . S
C1828 C1831 1.405 1_554 S
H1829 C1835 0.930 . S
C1830 H1816 0.930 . S
C1830 C1828 1.395 . S
C1830 C1833 1.403 . S
C1831 C1828 1.405 1_556 S
C1831 C1832 1.523 . S
C1831 C1835 1.399 . S
C1832 H1817 0.960 . S
C1832 H1818 0.960 1_556 S
C1832 H1819 0.960 . S
C1832 C1831 1.523 . S
C1833 C1830 1.403 . S
C1833 C1834 1.392 . S
C1833 C1837 1.495 . S
C1834 C1833 1.392 . S
C1834 C1835 1.385 1_554 S
C1834 C1836 1.478 1_554 S
C1835 H1829 0.930 . S
C1835 C1831 1.399 . S
C1835 C1834 1.385 1_556 S
C1836 C1834 1.478 1_556 S
C1836 C1838 1.381 1_556 S
C1836 C1842 1.383 . S
C1837 C1833 1.495 . S
C1837 H1843 0.959 . S
C1837 H1844 0.961 . S
C1837 H1845 0.960 . S
C1838 C1836 1.381 1_554 S
C1838 C1839 1.394 . S
C1838 H1846 0.930 . S
C1839 C1838 1.394 . S
C1839 C1840 1.383 1_554 S
C1839 H1847 0.929 . S
C1840 C1839 1.383 1_556 S
C1840 C1841 1.377 . S
C1841 H1825 0.930 . S
C1841 C1840 1.377 . S
C1841 C1842 1.379 . S
C1842 H1826 0.931 . S
C1842 C1836 1.383 . S
C1842 C1841 1.379 . S
H1843 C1837 0.959 . S
H1844 C1837 0.961 . S
H1845 C1837 0.960 . S
H1846 C1838 0.930 . S
H1847 C1839 0.929 . S
H1848 C1856 0.929 . S
H1849 C1858 0.930 . S
H1850 C1860 0.930 1_556 S
H1851 C1863 0.929 . S
H1852 C1866 0.930 . S
H1853 C1868 0.960 . S
H1854 C1868 0.960 . S
H1855 C1868 0.960 . S
C1856 H1848 0.929 . S
C1856 C1857 1.377 . S
C1856 C1858 1.384 . S
C1857 C1856 1.377 . S
C1857 C1863 1.390 . S
C1858 H1849 0.930 . S
C1858 C1856 1.384 . S
C1858 C1859 1.372 . S
C1859 C1858 1.372 . S
C1859 C1860 1.400 . S
C1859 C1864 1.490 . S
C1860 H1850 0.930 1_554 S
C1860 C1859 1.400 . S
C1860 C1863 1.386 . S
H1861 C1877 0.930 . S
H1862 C1878 0.931 . S
C1863 H1851 0.929 . S
C1863 C1857 1.390 . S
C1863 C1860 1.386 . S
C1864 C1859 1.490 . S
C1864 C1866 1.395 . S
C1864 C1867 1.403 . S
H1865 C1871 0.930 . S
C1866 H1852 0.930 . S
C1866 C1864 1.395 . S
C1866 C1869 1.403 1_554 S
C1867 C1864 1.403 . S
C1867 C1868 1.524 . S
C1867 C1871 1.400 . S
C1868 H1853 0.960 . S
C1868 H1854 0.960 . S
C1868 H1855 0.960 . S
C1868 C1867 1.524 . S
C1869 C1866 1.403 1_556 S
C1869 C1870 1.392 . S
C1869 C1873 1.495 . S
C1870 C1869 1.392 . S
C1870 C1871 1.385 1_556 S
C1870 C1872 1.478 . S
C1871 H1865 0.930 . S
C1871 C1867 1.400 . S
C1871 C1870 1.385 1_554 S
C1872 C1870 1.478 . S
C1872 C1874 1.381 1_556 S
C1872 C1878 1.383 . S
C1873 C1869 1.495 . S
C1873 H1879 0.959 . S
C1873 H1880 0.961 . S
C1873 H1881 0.960 . S
C1874 C1872 1.381 1_554 S
C1874 C1875 1.394 1_554 S
C1874 H1882 0.930 . S
C1875 C1874 1.394 1_556 S
C1875 C1876 1.383 . S
C1875 H1883 0.929 1_556 S
C1876 C1875 1.383 . S
C1876 C1877 1.377 . S
C1877 H1861 0.930 . S
C1877 C1876 1.377 . S
C1877 C1878 1.379 . S
C1878 H1862 0.931 . S
C1878 C1872 1.383 . S
C1878 C1877 1.379 . S
H1879 C1873 0.959 . S
H1880 C1873 0.961 . S
H1881 C1873 0.960 . S
H1882 C1874 0.930 . S
H1883 C1875 0.929 1_554 S
H1884 C1892 0.929 . S
H1885 C1894 0.930 . S
H1886 C1896 0.930 . S
H1887 C1899 0.929 . S
H1888 C1902 0.930 . S
H1889 C1904 0.960 . S
H1890 C1904 0.960 . S
H1891 C1904 0.960 . S
C1892 H1884 0.929 . S
C1892 C1893 1.377 . S
C1892 C1894 1.384 . S
C1893 C1892 1.377 . S
C1893 C1899 1.390 . S
C1894 H1885 0.930 . S
C1894 C1892 1.384 . S
C1894 C1895 1.372 . S
C1895 C1894 1.372 . S
C1895 C1896 1.400 . S
C1895 C1900 1.490 . S
C1896 H1886 0.930 . S
C1896 C1895 1.400 . S
C1896 C1899 1.386 . S
H1897 C1913 0.930 . S
H1898 C1914 0.931 . S
C1899 H1887 0.929 . S
C1899 C1893 1.390 . S
C1899 C1896 1.386 . S
C1900 C1895 1.490 . S
C1900 C1902 1.395 . S
C1900 C1903 1.403 1_556 S
H1901 C1907 0.930 . S
C1902 H1888 0.930 . S
C1902 C1900 1.395 . S
C1902 C1905 1.403 . S
C1903 C1900 1.403 1_554 S
C1903 C1904 1.524 . S
C1903 C1907 1.400 . S
C1904 H1889 0.960 . S
C1904 H1890 0.960 . S
C1904 H1891 0.960 . S
C1904 C1903 1.524 . S
C1905 C1902 1.403 . S
C1905 C1906 1.392 . S
C1905 C1909 1.495 . S
C1906 C1905 1.392 . S
C1906 C1907 1.385 1_556 S
C1906 C1908 1.478 1_556 S
C1907 H1901 0.930 . S
C1907 C1903 1.400 . S
C1907 C1906 1.385 1_554 S
C1908 C1906 1.478 1_554 S
C1908 C1910 1.381 . S
C1908 C1914 1.383 1_554 S
C1909 C1905 1.495 . S
C1909 H1915 0.959 . S
C1909 H1916 0.961 . S
C1909 H1917 0.960 . S
C1910 C1908 1.381 . S
C1910 C1911 1.394 . S
C1910 H1918 0.930 . S
C1911 C1910 1.394 . S
C1911 C1912 1.383 . S
C1911 H1919 0.929 . S
C1912 C1911 1.383 . S
C1912 C1913 1.377 . S
C1913 H1897 0.930 . S
C1913 C1912 1.377 . S
C1913 C1914 1.379 1_554 S
C1914 H1898 0.931 . S
C1914 C1908 1.383 1_556 S
C1914 C1913 1.379 1_556 S
H1915 C1909 0.959 . S
H1916 C1909 0.961 . S
H1917 C1909 0.960 . S
H1918 C1910 0.930 . S
H1919 C1911 0.929 . S
H1920 C1928 0.929 . S
H1921 C1930 0.930 . S
H1922 C1932 0.930 . S
H1923 C1935 0.929 . S
H1924 C1938 0.930 . S
H1925 C1940 0.960 . S
H1926 C1940 0.960 . S
H1927 C1940 0.960 . S
C1928 H1920 0.929 . S
C1928 C1929 1.377 . S
C1928 C1930 1.384 . S
C1929 C1928 1.377 . S
C1929 C1935 1.390 . S
C1930 H1921 0.930 . S
C1930 C1928 1.384 . S
C1930 C1931 1.372 . S
C1931 C1930 1.372 . S
C1931 C1932 1.400 . S
C1931 C1936 1.490 . S
C1932 H1922 0.930 . S
C1932 C1931 1.400 . S
C1932 C1935 1.386 . S
H1933 C1949 0.930 . S
H1934 C1950 0.931 . S
C1935 H1923 0.929 . S
C1935 C1929 1.390 . S
C1935 C1932 1.386 . S
C1936 C1931 1.490 . S
C1936 C1938 1.395 . S
C1936 C1939 1.403 . S
H1937 C1943 0.930 . S
C1938 H1924 0.930 . S
C1938 C1936 1.395 . S
C1938 C1941 1.403 . S
C1939 C1936 1.403 . S
C1939 C1940 1.524 . S
C1939 C1943 1.400 . S
C1940 H1925 0.960 . S
C1940 H1926 0.960 . S
C1940 H1927 0.960 . S
C1940 C1939 1.524 . S
C1941 C1938 1.403 . S
C1941 C1942 1.392 . S
C1941 C1945 1.495 . S
C1942 C1941 1.392 . S
C1942 C1943 1.385 . S
C1942 C1944 1.478 . S
C1943 H1937 0.930 . S
C1943 C1939 1.400 . S
C1943 C1942 1.385 . S
C1944 C1942 1.478 . S
C1944 C1946 1.381 . S
C1944 C1950 1.383 . S
C1945 C1941 1.495 . S
C1945 H1951 0.959 . S
C1945 H1952 0.961 . S
C1945 H1953 0.960 . S
C1946 C1944 1.381 . S
C1946 C1947 1.394 . S
C1946 H1954 0.930 . S
C1947 C1946 1.394 . S
C1947 C1948 1.383 . S
C1947 H1955 0.929 . S
C1948 C1947 1.383 . S
C1948 C1949 1.377 . S
C1949 H1933 0.930 . S
C1949 C1948 1.377 . S
C1949 C1950 1.379 . S
C1950 H1934 0.931 . S
C1950 C1944 1.383 . S
C1950 C1949 1.379 . S
H1951 C1945 0.959 . S
H1952 C1945 0.961 . S
H1953 C1945 0.960 . S
H1954 C1946 0.930 . S
H1955 C1947 0.929 . S
H1956 C1964 0.929 . S
H1957 C1966 0.930 . S
H1958 C1968 0.930 . S
H1959 C1971 0.929 . S
H1960 C1974 0.930 . S
H1961 C1976 0.960 . S
H1962 C1976 0.960 . S
H1963 C1976 0.960 . S
C1964 H1956 0.929 . S
C1964 C1965 1.377 . S
C1964 C1966 1.384 . S
C1965 C1964 1.377 . S
C1965 C1971 1.390 . S
C1966 H1957 0.930 . S
C1966 C1964 1.384 . S
C1966 C1967 1.372 . S
C1967 C1966 1.372 . S
C1967 C1968 1.400 . S
C1967 C1972 1.490 . S
C1968 H1958 0.930 . S
C1968 C1967 1.400 . S
C1968 C1971 1.386 . S
H1969 C1985 0.930 . S
H1970 C1986 0.931 . S
C1971 H1959 0.929 . S
C1971 C1965 1.390 . S
C1971 C1968 1.386 . S
C1972 C1967 1.490 . S
C1972 C1974 1.395 . S
C1972 C1975 1.403 . S
H1973 C1979 0.930 . S
C1974 H1960 0.930 . S
C1974 C1972 1.395 . S
C1974 C1977 1.403 . S
C1975 C1972 1.403 . S
C1975 C1976 1.524 . S
C1975 C1979 1.400 . S
C1976 H1961 0.960 . S
C1976 H1962 0.960 . S
C1976 H1963 0.960 . S
C1976 C1975 1.524 . S
C1977 C1974 1.403 . S
C1977 C1978 1.392 . S
C1977 C1981 1.495 . S
C1978 C1977 1.392 . S
C1978 C1979 1.385 . S
C1978 C1980 1.478 . S
C1979 H1973 0.930 . S
C1979 C1975 1.400 . S
C1979 C1978 1.385 . S
C1980 C1978 1.478 . S
C1980 C1982 1.381 . S
C1980 C1986 1.383 . S
C1981 C1977 1.495 . S
C1981 H1987 0.959 . S
C1981 H1988 0.961 . S
C1981 H1989 0.960 . S
C1982 C1980 1.381 . S
C1982 C1983 1.394 . S
C1982 H1990 0.930 . S
C1983 C1982 1.394 . S
C1983 C1984 1.383 . S
C1983 H1991 0.929 . S
C1984 C1983 1.383 . S
C1984 C1985 1.377 . S
C1985 H1969 0.930 . S
C1985 C1984 1.377 . S
C1985 C1986 1.379 . S
C1986 H1970 0.931 . S
C1986 C1980 1.383 . S
C1986 C1985 1.379 . S
H1987 C1981 0.959 . S
H1988 C1981 0.961 . S
H1989 C1981 0.960 . S
H1990 C1982 0.930 . S
H1991 C1983 0.929 . S
H1992 C2000 0.929 . S
H1993 C2002 0.930 . S
H1994 C2004 0.930 . S
H1995 C2007 0.929 . S
H1996 C2010 0.930 . S
H1997 C2012 0.960 . S
H1998 C2012 0.960 . S
H1999 C2012 0.960 . S
C2000 H1992 0.929 . S
C2000 C2001 1.377 . S
C2000 C2002 1.384 . S
C2001 C2000 1.377 . S
C2001 C2007 1.390 . S
C2002 H1993 0.930 . S
C2002 C2000 1.384 . S
C2002 C2003 1.372 . S
C2003 C2002 1.372 . S
C2003 C2004 1.400 . S
C2003 C2008 1.490 . S
C2004 H1994 0.930 . S
C2004 C2003 1.400 . S
C2004 C2007 1.386 . S
H2005 C2021 0.930 . S
H2006 C2022 0.931 . S
C2007 H1995 0.929 . S
C2007 C2001 1.390 . S
C2007 C2004 1.386 . S
C2008 C2003 1.490 . S
C2008 C2010 1.395 . S
C2008 C2011 1.403 . S
H2009 C2015 0.930 . S
C2010 H1996 0.930 . S
C2010 C2008 1.395 . S
C2010 C2013 1.403 . S
C2011 C2008 1.403 . S
C2011 C2012 1.524 . S
C2011 C2015 1.400 . S
C2012 H1997 0.960 . S
C2012 H1998 0.960 . S
C2012 H1999 0.960 . S
C2012 C2011 1.524 . S
C2013 C2010 1.403 . S
C2013 C2014 1.392 . S
C2013 C2017 1.495 . S
C2014 C2013 1.392 . S
C2014 C2015 1.385 . S
C2014 C2016 1.478 . S
C2015 H2009 0.930 . S
C2015 C2011 1.400 . S
C2015 C2014 1.385 . S
C2016 C2014 1.478 . S
C2016 C2018 1.381 . S
C2016 C2022 1.383 . S
C2017 C2013 1.495 . S
C2017 H2023 0.959 . S
C2017 H2024 0.961 . S
C2017 H2025 0.960 . S
C2018 C2016 1.381 . S
C2018 C2019 1.394 . S
C2018 H2026 0.930 . S
C2019 C2018 1.394 . S
C2019 C2020 1.383 . S
C2019 H2027 0.929 . S
C2020 C2019 1.383 . S
C2020 C2021 1.377 . S
C2021 H2005 0.930 . S
C2021 C2020 1.377 . S
C2021 C2022 1.379 . S
C2022 H2006 0.931 . S
C2022 C2016 1.383 . S
C2022 C2021 1.379 . S
H2023 C2017 0.959 . S
H2024 C2017 0.961 . S
H2025 C2017 0.960 . S
H2026 C2018 0.930 . S
H2027 C2019 0.929 . S
H2028 C2036 0.929 . S
H2029 C2038 0.930 . S
H2030 C2040 0.930 . S
H2031 C2043 0.929 . S
H2032 C2046 0.930 . S
H2033 C2048 0.960 . S
H2034 C2048 0.960 . S
H2035 C2048 0.960 . S
C2036 H2028 0.929 . S
C2036 C2037 1.377 . S
C2036 C2038 1.384 . S
C2037 C2036 1.377 . S
C2037 C2043 1.390 . S
C2038 H2029 0.930 . S
C2038 C2036 1.384 . S
C2038 C2039 1.372 . S
C2039 C2038 1.372 . S
C2039 C2040 1.400 . S
C2039 C2044 1.490 . S
C2040 H2030 0.930 . S
C2040 C2039 1.400 . S
C2040 C2043 1.386 . S
H2041 C2057 0.930 . S
H2042 C2058 0.931 . S
C2043 H2031 0.929 . S
C2043 C2037 1.390 . S
C2043 C2040 1.386 . S
C2044 C2039 1.490 . S
C2044 C2046 1.395 . S
C2044 C2047 1.403 . S
H2045 C2051 0.930 . S
C2046 H2032 0.930 . S
C2046 C2044 1.395 . S
C2046 C2049 1.403 . S
C2047 C2044 1.403 . S
C2047 C2048 1.524 . S
C2047 C2051 1.400 . S
C2048 H2033 0.960 . S
C2048 H2034 0.960 . S
C2048 H2035 0.960 . S
C2048 C2047 1.524 . S
C2049 C2046 1.403 . S
C2049 C2050 1.392 . S
C2049 C2053 1.495 . S
C2050 C2049 1.392 . S
C2050 C2051 1.385 . S
C2050 C2052 1.478 . S
C2051 H2045 0.930 . S
C2051 C2047 1.400 . S
C2051 C2050 1.385 . S
C2052 C2050 1.478 . S
C2052 C2054 1.381 . S
C2052 C2058 1.383 . S
C2053 C2049 1.495 . S
C2053 H2059 0.959 . S
C2053 H2060 0.961 . S
C2053 H2061 0.960 . S
C2054 C2052 1.381 . S
C2054 C2055 1.394 . S
C2054 H2062 0.930 . S
C2055 C2054 1.394 . S
C2055 C2056 1.383 . S
C2055 H2063 0.929 . S
C2056 C2055 1.383 . S
C2056 C2057 1.377 . S
C2057 H2041 0.930 . S
C2057 C2056 1.377 . S
C2057 C2058 1.379 . S
C2058 H2042 0.931 . S
C2058 C2052 1.383 . S
C2058 C2057 1.379 . S
H2059 C2053 0.959 . S
H2060 C2053 0.961 . S
H2061 C2053 0.960 . S
H2062 C2054 0.930 . S
H2063 C2055 0.929 . S
H2064 C2072 0.929 . S
H2065 C2074 0.930 . S
H2066 C2076 0.930 . S
H2067 C2079 0.929 . S
H2068 C2082 0.930 . S
H2069 C2084 0.960 . S
H2070 C2084 0.960 . S
H2071 C2084 0.960 . S
C2072 H2064 0.929 . S
C2072 C2073 1.377 . S
C2072 C2074 1.384 . S
C2073 C2072 1.377 . S
C2073 C2079 1.390 . S
C2074 H2065 0.930 . S
C2074 C2072 1.384 . S
C2074 C2075 1.372 . S
C2075 C2074 1.372 . S
C2075 C2076 1.400 . S
C2075 C2080 1.490 . S
C2076 H2066 0.930 . S
C2076 C2075 1.400 . S
C2076 C2079 1.386 . S
H2077 C2093 0.930 . S
H2078 C2094 0.931 . S
C2079 H2067 0.929 . S
C2079 C2073 1.390 . S
C2079 C2076 1.386 . S
C2080 C2075 1.490 . S
C2080 C2082 1.395 . S
C2080 C2083 1.403 . S
H2081 C2087 0.930 . S
C2082 H2068 0.930 . S
C2082 C2080 1.395 . S
C2082 C2085 1.403 . S
C2083 C2080 1.403 . S
C2083 C2084 1.524 . S
C2083 C2087 1.400 . S
C2084 H2069 0.960 . S
C2084 H2070 0.960 . S
C2084 H2071 0.960 . S
C2084 C2083 1.524 . S
C2085 C2082 1.403 . S
C2085 C2086 1.392 . S
C2085 C2089 1.495 . S
C2086 C2085 1.392 . S
C2086 C2087 1.385 . S
C2086 C2088 1.478 . S
C2087 H2081 0.930 . S
C2087 C2083 1.400 . S
C2087 C2086 1.385 . S
C2088 C2086 1.478 . S
C2088 C2090 1.381 . S
C2088 C2094 1.383 . S
C2089 C2085 1.495 . S
C2089 H2095 0.959 . S
C2089 H2096 0.961 . S
C2089 H2097 0.960 . S
C2090 C2088 1.381 . S
C2090 C2091 1.394 . S
C2090 H2098 0.930 . S
C2091 C2090 1.394 . S
C2091 C2092 1.383 . S
C2091 H2099 0.929 . S
C2092 C2091 1.383 . S
C2092 C2093 1.377 . S
C2093 H2077 0.930 . S
C2093 C2092 1.377 . S
C2093 C2094 1.379 . S
C2094 H2078 0.931 . S
C2094 C2088 1.383 . S
C2094 C2093 1.379 . S
H2095 C2089 0.959 . S
H2096 C2089 0.961 . S
H2097 C2089 0.960 . S
H2098 C2090 0.930 . S
H2099 C2091 0.929 . S
H2100 C2108 0.929 . S
H2101 C2110 0.930 . S
H2102 C2112 0.930 . S
H2103 C2115 0.929 . S
H2104 C2118 0.930 . S
H2105 C2120 0.960 . S
H2106 C2120 0.960 . S
H2107 C2120 0.960 . S
C2108 H2100 0.929 . S
C2108 C2109 1.377 . S
C2108 C2110 1.384 . S
C2109 C2108 1.377 . S
C2109 C2115 1.390 . S
C2110 H2101 0.930 . S
C2110 C2108 1.384 . S
C2110 C2111 1.372 . S
C2111 C2110 1.372 . S
C2111 C2112 1.400 . S
C2111 C2116 1.490 . S
C2112 H2102 0.930 . S
C2112 C2111 1.400 . S
C2112 C2115 1.386 . S
H2113 C2129 0.930 . S
H2114 C2130 0.931 . S
C2115 H2103 0.929 . S
C2115 C2109 1.390 . S
C2115 C2112 1.386 . S
C2116 C2111 1.490 . S
C2116 C2118 1.395 . S
C2116 C2119 1.403 . S
H2117 C2123 0.930 . S
C2118 H2104 0.930 . S
C2118 C2116 1.395 . S
C2118 C2121 1.403 . S
C2119 C2116 1.403 . S
C2119 C2120 1.524 . S
C2119 C2123 1.400 . S
C2120 H2105 0.960 . S
C2120 H2106 0.960 . S
C2120 H2107 0.960 . S
C2120 C2119 1.524 . S
C2121 C2118 1.403 . S
C2121 C2122 1.392 . S
C2121 C2125 1.495 . S
C2122 C2121 1.392 . S
C2122 C2123 1.385 . S
C2122 C2124 1.478 . S
C2123 H2117 0.930 . S
C2123 C2119 1.400 . S
C2123 C2122 1.385 . S
C2124 C2122 1.478 . S
C2124 C2126 1.381 . S
C2124 C2130 1.383 . S
C2125 C2121 1.495 . S
C2125 H2131 0.959 . S
C2125 H2132 0.961 . S
C2125 H2133 0.960 . S
C2126 C2124 1.381 . S
C2126 C2127 1.394 . S
C2126 H2134 0.930 . S
C2127 C2126 1.394 . S
C2127 C2128 1.383 . S
C2127 H2135 0.929 . S
C2128 C2127 1.383 . S
C2128 C2129 1.377 . S
C2129 H2113 0.930 . S
C2129 C2128 1.377 . S
C2129 C2130 1.379 . S
C2130 H2114 0.931 . S
C2130 C2124 1.383 . S
C2130 C2129 1.379 . S
H2131 C2125 0.959 . S
H2132 C2125 0.961 . S
H2133 C2125 0.960 . S
H2134 C2126 0.930 . S
H2135 C2127 0.929 . S
H2136 C2144 0.929 . S
H2137 C2146 0.930 . S
H2138 C2148 0.930 . S
H2139 C2151 0.929 . S
H2140 C2154 0.930 . S
H2141 C2156 0.960 . S
H2142 C2156 0.960 . S
H2143 C2156 0.960 . S
C2144 H2136 0.929 . S
C2144 C2145 1.377 . S
C2144 C2146 1.384 . S
C2145 C2144 1.377 . S
C2145 C2151 1.390 . S
C2146 H2137 0.930 . S
C2146 C2144 1.384 . S
C2146 C2147 1.372 . S
C2147 C2146 1.372 . S
C2147 C2148 1.400 . S
C2147 C2152 1.490 . S
C2148 H2138 0.930 . S
C2148 C2147 1.400 . S
C2148 C2151 1.386 . S
H2149 C2165 0.930 . S
H2150 C2166 0.931 . S
C2151 H2139 0.929 . S
C2151 C2145 1.390 . S
C2151 C2148 1.386 . S
C2152 C2147 1.490 . S
C2152 C2154 1.395 . S
C2152 C2155 1.403 . S
H2153 C2159 0.930 . S
C2154 H2140 0.930 . S
C2154 C2152 1.395 . S
C2154 C2157 1.403 . S
C2155 C2152 1.403 . S
C2155 C2156 1.524 . S
C2155 C2159 1.400 . S
C2156 H2141 0.960 . S
C2156 H2142 0.960 . S
C2156 H2143 0.960 . S
C2156 C2155 1.524 . S
C2157 C2154 1.403 . S
C2157 C2158 1.392 . S
C2157 C2161 1.495 . S
C2158 C2157 1.392 . S
C2158 C2159 1.385 . S
C2158 C2160 1.478 . S
C2159 H2153 0.930 . S
C2159 C2155 1.400 . S
C2159 C2158 1.385 . S
C2160 C2158 1.478 . S
C2160 C2162 1.381 . S
C2160 C2166 1.383 . S
C2161 C2157 1.495 . S
C2161 H2167 0.959 . S
C2161 H2168 0.961 . S
C2161 H2169 0.960 . S
C2162 C2160 1.381 . S
C2162 C2163 1.394 . S
C2162 H2170 0.930 . S
C2163 C2162 1.394 . S
C2163 C2164 1.383 . S
C2163 H2171 0.929 . S
C2164 C2163 1.383 . S
C2164 C2165 1.377 . S
C2165 H2149 0.930 . S
C2165 C2164 1.377 . S
C2165 C2166 1.379 . S
C2166 H2150 0.931 . S
C2166 C2160 1.383 . S
C2166 C2165 1.379 . S
H2167 C2161 0.959 . S
H2168 C2161 0.961 . S
H2169 C2161 0.960 . S
H2170 C2162 0.930 . S
H2171 C2163 0.929 . S
H2172 C2180 0.929 . S
H2173 C2182 0.930 . S
H2174 C2184 0.930 . S
H2175 C2187 0.929 . S
H2176 C2190 0.930 . S
H2177 C2192 0.960 . S
H2178 C2192 0.960 . S
H2179 C2192 0.960 . S
C2180 H2172 0.929 . S
C2180 C2181 1.377 . S
C2180 C2182 1.384 . S
C2181 C2180 1.377 . S
C2181 C2187 1.390 . S
C2182 H2173 0.930 . S
C2182 C2180 1.384 . S
C2182 C2183 1.372 . S
C2183 C2182 1.372 . S
C2183 C2184 1.400 . S
C2183 C2188 1.490 . S
C2184 H2174 0.930 . S
C2184 C2183 1.400 . S
C2184 C2187 1.386 . S
H2185 C2201 0.930 . S
H2186 C2202 0.931 . S
C2187 H2175 0.929 . S
C2187 C2181 1.390 . S
C2187 C2184 1.386 . S
C2188 C2183 1.490 . S
C2188 C2190 1.395 . S
C2188 C2191 1.403 . S
H2189 C2195 0.930 . S
C2190 H2176 0.930 . S
C2190 C2188 1.395 . S
C2190 C2193 1.403 . S
C2191 C2188 1.403 . S
C2191 C2192 1.524 . S
C2191 C2195 1.400 . S
C2192 H2177 0.960 . S
C2192 H2178 0.960 . S
C2192 H2179 0.960 . S
C2192 C2191 1.524 . S
C2193 C2190 1.403 . S
C2193 C2194 1.392 . S
C2193 C2197 1.495 . S
C2194 C2193 1.392 . S
C2194 C2195 1.385 . S
C2194 C2196 1.478 . S
C2195 H2189 0.930 . S
C2195 C2191 1.400 . S
C2195 C2194 1.385 . S
C2196 C2194 1.478 . S
C2196 C2198 1.381 . S
C2196 C2202 1.383 . S
C2197 C2193 1.495 . S
C2197 H2203 0.959 . S
C2197 H2204 0.961 . S
C2197 H2205 0.960 . S
C2198 C2196 1.381 . S
C2198 C2199 1.394 . S
C2198 H2206 0.930 . S
C2199 C2198 1.394 . S
C2199 C2200 1.383 . S
C2199 H2207 0.929 . S
C2200 C2199 1.383 . S
C2200 C2201 1.377 . S
C2201 H2185 0.930 . S
C2201 C2200 1.377 . S
C2201 C2202 1.379 . S
C2202 H2186 0.931 . S
C2202 C2196 1.383 . S
C2202 C2201 1.379 . S
H2203 C2197 0.959 . S
H2204 C2197 0.961 . S
H2205 C2197 0.960 . S
H2206 C2198 0.930 . S
H2207 C2199 0.929 . S
H2208 C2216 0.929 . S
H2209 C2218 0.930 . S
H2210 C2220 0.930 . S
H2211 C2223 0.929 . S
H2212 C2226 0.930 . S
H2213 C2228 0.960 . S
H2214 C2228 0.960 . S
H2215 C2228 0.960 . S
C2216 H2208 0.929 . S
C2216 C2217 1.377 . S
C2216 C2218 1.384 . S
C2217 C2216 1.377 . S
C2217 C2223 1.390 . S
C2218 H2209 0.930 . S
C2218 C2216 1.384 . S
C2218 C2219 1.372 . S
C2219 C2218 1.372 . S
C2219 C2220 1.400 . S
C2219 C2224 1.490 . S
C2220 H2210 0.930 . S
C2220 C2219 1.400 . S
C2220 C2223 1.386 . S
H2221 C2237 0.930 . S
H2222 C2238 0.931 . S
C2223 H2211 0.929 . S
C2223 C2217 1.390 . S
C2223 C2220 1.386 . S
C2224 C2219 1.490 . S
C2224 C2226 1.395 . S
C2224 C2227 1.403 . S
H2225 C2231 0.930 . S
C2226 H2212 0.930 . S
C2226 C2224 1.395 . S
C2226 C2229 1.403 . S
C2227 C2224 1.403 . S
C2227 C2228 1.524 . S
C2227 C2231 1.400 . S
C2228 H2213 0.960 . S
C2228 H2214 0.960 . S
C2228 H2215 0.960 . S
C2228 C2227 1.524 . S
C2229 C2226 1.403 . S
C2229 C2230 1.392 . S
C2229 C2233 1.495 . S
C2230 C2229 1.392 . S
C2230 C2231 1.385 . S
C2230 C2232 1.478 . S
C2231 H2225 0.930 . S
C2231 C2227 1.400 . S
C2231 C2230 1.385 . S
C2232 C2230 1.478 . S
C2232 C2234 1.381 . S
C2232 C2238 1.383 . S
C2233 C2229 1.495 . S
C2233 H2239 0.959 . S
C2233 H2240 0.961 . S
C2233 H2241 0.960 . S
C2234 C2232 1.381 . S
C2234 C2235 1.394 . S
C2234 H2242 0.930 . S
C2235 C2234 1.394 . S
C2235 C2236 1.383 . S
C2235 H2243 0.929 . S
C2236 C2235 1.383 . S
C2236 C2237 1.377 . S
C2237 H2221 0.930 . S
C2237 C2236 1.377 . S
C2237 C2238 1.379 . S
C2238 H2222 0.931 . S
C2238 C2232 1.383 . S
C2238 C2237 1.379 . S
H2239 C2233 0.959 . S
H2240 C2233 0.961 . S
H2241 C2233 0.960 . S
H2242 C2234 0.930 . S
H2243 C2235 0.929 . S
H2244 C2252 0.929 . S
H2245 C2254 0.930 . S
H2246 C2256 0.930 . S
H2247 C2259 0.929 . S
H2248 C2262 0.930 . S
H2249 C2264 0.960 . S
H2250 C2264 0.960 . S
H2251 C2264 0.960 . S
C2252 H2244 0.929 . S
C2252 C2253 1.377 . S
C2252 C2254 1.384 . S
C2253 C2252 1.377 . S
C2253 C2259 1.390 . S
C2254 H2245 0.930 . S
C2254 C2252 1.384 . S
C2254 C2255 1.372 . S
C2255 C2254 1.372 . S
C2255 C2256 1.400 . S
C2255 C2260 1.490 . S
C2256 H2246 0.930 . S
C2256 C2255 1.400 . S
C2256 C2259 1.386 . S
H2257 C2273 0.930 . S
H2258 C2274 0.931 . S
C2259 H2247 0.929 . S
C2259 C2253 1.390 . S
C2259 C2256 1.386 . S
C2260 C2255 1.490 . S
C2260 C2262 1.395 . S
C2260 C2263 1.403 . S
H2261 C2267 0.930 . S
C2262 H2248 0.930 . S
C2262 C2260 1.395 . S
C2262 C2265 1.403 . S
C2263 C2260 1.403 . S
C2263 C2264 1.524 . S
C2263 C2267 1.400 . S
C2264 H2249 0.960 . S
C2264 H2250 0.960 . S
C2264 H2251 0.960 . S
C2264 C2263 1.524 . S
C2265 C2262 1.403 . S
C2265 C2266 1.392 . S
C2265 C2269 1.495 . S
C2266 C2265 1.392 . S
C2266 C2267 1.385 . S
C2266 C2268 1.478 . S
C2267 H2261 0.930 . S
C2267 C2263 1.400 . S
C2267 C2266 1.385 . S
C2268 C2266 1.478 . S
C2268 C2270 1.381 . S
C2268 C2274 1.383 . S
C2269 C2265 1.495 . S
C2269 H2275 0.959 . S
C2269 H2276 0.961 . S
C2269 H2277 0.960 . S
C2270 C2268 1.381 . S
C2270 C2271 1.394 . S
C2270 H2278 0.930 . S
C2271 C2270 1.394 . S
C2271 C2272 1.383 . S
C2271 H2279 0.929 . S
C2272 C2271 1.383 . S
C2272 C2273 1.377 . S
C2273 H2257 0.930 . S
C2273 C2272 1.377 . S
C2273 C2274 1.379 . S
C2274 H2258 0.931 . S
C2274 C2268 1.383 . S
C2274 C2273 1.379 . S
H2275 C2269 0.959 . S
H2276 C2269 0.961 . S
H2277 C2269 0.960 . S
H2278 C2270 0.930 . S
H2279 C2271 0.929 . S
H2280 C2288 0.929 . S
H2281 C2290 0.930 . S
H2282 C2292 0.930 . S
H2283 C2295 0.929 . S
H2284 C2298 0.930 . S
H2285 C2300 0.960 . S
H2286 C2300 0.960 . S
H2287 C2300 0.960 . S
C2288 H2280 0.929 . S
C2288 C2289 1.377 . S
C2288 C2290 1.384 . S
C2289 C2288 1.377 . S
C2289 C2295 1.390 . S
C2290 H2281 0.930 . S
C2290 C2288 1.384 . S
C2290 C2291 1.372 . S
C2291 C2290 1.372 . S
C2291 C2292 1.400 . S
C2291 C2296 1.490 . S
C2292 H2282 0.930 . S
C2292 C2291 1.400 . S
C2292 C2295 1.386 . S
H2293 C2309 0.930 . S
H2294 C2310 0.931 . S
C2295 H2283 0.929 . S
C2295 C2289 1.390 . S
C2295 C2292 1.386 . S
C2296 C2291 1.490 . S
C2296 C2298 1.395 . S
C2296 C2299 1.403 . S
H2297 C2303 0.930 . S
C2298 H2284 0.930 . S
C2298 C2296 1.395 . S
C2298 C2301 1.403 . S
C2299 C2296 1.403 . S
C2299 C2300 1.524 . S
C2299 C2303 1.400 . S
C2300 H2285 0.960 . S
C2300 H2286 0.960 . S
C2300 H2287 0.960 . S
C2300 C2299 1.524 . S
C2301 C2298 1.403 . S
C2301 C2302 1.392 . S
C2301 C2305 1.495 . S
C2302 C2301 1.392 . S
C2302 C2303 1.385 . S
C2302 C2304 1.478 . S
C2303 H2297 0.930 . S
C2303 C2299 1.400 . S
C2303 C2302 1.385 . S
C2304 C2302 1.478 . S
C2304 C2306 1.381 . S
C2304 C2310 1.383 . S
C2305 C2301 1.495 . S
C2305 H2311 0.959 . S
C2305 H2312 0.961 . S
C2305 H2313 0.960 . S
C2306 C2304 1.381 . S
C2306 C2307 1.394 . S
C2306 H2314 0.930 . S
C2307 C2306 1.394 . S
C2307 C2308 1.383 . S
C2307 H2315 0.929 . S
C2308 C2307 1.383 . S
C2308 C2309 1.377 . S
C2309 H2293 0.930 . S
C2309 C2308 1.377 . S
C2309 C2310 1.379 . S
C2310 H2294 0.931 . S
C2310 C2304 1.383 . S
C2310 C2309 1.379 . S
H2311 C2305 0.959 . S
H2312 C2305 0.961 . S
H2313 C2305 0.960 . S
H2314 C2306 0.930 . S
H2315 C2307 0.929 . S
H2316 C2324 0.929 . S
H2317 C2326 0.930 . S
H2318 C2328 0.930 . S
H2319 C2331 0.929 . S
H2320 C2334 0.930 . S
H2321 C2336 0.960 . S
H2322 C2336 0.960 . S
H2323 C2336 0.960 . S
C2324 H2316 0.929 . S
C2324 C2325 1.377 . S
C2324 C2326 1.384 . S
C2325 C2324 1.377 . S
C2325 C2331 1.390 . S
C2326 H2317 0.930 . S
C2326 C2324 1.384 . S
C2326 C2327 1.372 . S
C2327 C2326 1.372 . S
C2327 C2328 1.400 . S
C2327 C2332 1.490 . S
C2328 H2318 0.930 . S
C2328 C2327 1.400 . S
C2328 C2331 1.386 . S
H2329 C2345 0.930 . S
H2330 C2346 0.931 . S
C2331 H2319 0.929 . S
C2331 C2325 1.390 . S
C2331 C2328 1.386 . S
C2332 C2327 1.490 . S
C2332 C2334 1.395 . S
C2332 C2335 1.403 . S
H2333 C2339 0.930 . S
C2334 H2320 0.930 . S
C2334 C2332 1.395 . S
C2334 C2337 1.403 . S
C2335 C2332 1.403 . S
C2335 C2336 1.524 . S
C2335 C2339 1.400 . S
C2336 H2321 0.960 . S
C2336 H2322 0.960 . S
C2336 H2323 0.960 . S
C2336 C2335 1.524 . S
C2337 C2334 1.403 . S
C2337 C2338 1.392 . S
C2337 C2341 1.495 . S
C2338 C2337 1.392 . S
C2338 C2339 1.385 . S
C2338 C2340 1.478 . S
C2339 H2333 0.930 . S
C2339 C2335 1.400 . S
C2339 C2338 1.385 . S
C2340 C2338 1.478 . S
C2340 C2342 1.381 . S
C2340 C2346 1.383 . S
C2341 C2337 1.495 . S
C2341 H2347 0.959 . S
C2341 H2348 0.961 . S
C2341 H2349 0.960 . S
C2342 C2340 1.381 . S
C2342 C2343 1.394 . S
C2342 H2350 0.930 . S
C2343 C2342 1.394 . S
C2343 C2344 1.383 . S
C2343 H2351 0.929 . S
C2344 C2343 1.383 . S
C2344 C2345 1.377 . S
C2345 H2329 0.930 . S
C2345 C2344 1.377 . S
C2345 C2346 1.379 . S
C2346 H2330 0.931 . S
C2346 C2340 1.383 . S
C2346 C2345 1.379 . S
H2347 C2341 0.959 . S
H2348 C2341 0.961 . S
H2349 C2341 0.960 . S
H2350 C2342 0.930 . S
H2351 C2343 0.929 . S
H2352 C2360 0.929 . S
H2353 C2362 0.930 . S
H2354 C2364 0.930 . S
H2355 C2367 0.929 . S
H2356 C2370 0.930 . S
H2357 C2372 0.960 . S
H2358 C2372 0.960 . S
H2359 C2372 0.960 . S
C2360 H2352 0.929 . S
C2360 C2361 1.377 . S
C2360 C2362 1.384 . S
C2361 C2360 1.377 . S
C2361 C2367 1.390 . S
C2362 H2353 0.930 . S
C2362 C2360 1.384 . S
C2362 C2363 1.372 . S
C2363 C2362 1.372 . S
C2363 C2364 1.400 . S
C2363 C2368 1.490 . S
C2364 H2354 0.930 . S
C2364 C2363 1.400 . S
C2364 C2367 1.386 . S
H2365 C2381 0.930 . S
H2366 C2382 0.931 . S
C2367 H2355 0.929 . S
C2367 C2361 1.390 . S
C2367 C2364 1.386 . S
C2368 C2363 1.490 . S
C2368 C2370 1.395 . S
C2368 C2371 1.403 . S
H2369 C2375 0.930 . S
C2370 H2356 0.930 . S
C2370 C2368 1.395 . S
C2370 C2373 1.403 . S
C2371 C2368 1.403 . S
C2371 C2372 1.524 . S
C2371 C2375 1.400 . S
C2372 H2357 0.960 . S
C2372 H2358 0.960 . S
C2372 H2359 0.960 . S
C2372 C2371 1.524 . S
C2373 C2370 1.403 . S
C2373 C2374 1.392 . S
C2373 C2377 1.495 . S
C2374 C2373 1.392 . S
C2374 C2375 1.385 . S
C2374 C2376 1.478 . S
C2375 H2369 0.930 . S
C2375 C2371 1.400 . S
C2375 C2374 1.385 . S
C2376 C2374 1.478 . S
C2376 C2378 1.381 . S
C2376 C2382 1.383 . S
C2377 C2373 1.495 . S
C2377 H2383 0.959 . S
C2377 H2384 0.961 . S
C2377 H2385 0.960 . S
C2378 C2376 1.381 . S
C2378 C2379 1.394 . S
C2378 H2386 0.930 . S
C2379 C2378 1.394 . S
C2379 C2380 1.383 . S
C2379 H2387 0.929 . S
C2380 C2379 1.383 . S
C2380 C2381 1.377 . S
C2381 H2365 0.930 . S
C2381 C2380 1.377 . S
C2381 C2382 1.379 . S
C2382 H2366 0.931 . S
C2382 C2376 1.383 . S
C2382 C2381 1.379 . S
H2383 C2377 0.959 . S
H2384 C2377 0.961 . S
H2385 C2377 0.960 . S
H2386 C2378 0.930 . S
H2387 C2379 0.929 . S
H2388 C2396 0.929 . S
H2389 C2398 0.930 . S
H2390 C2400 0.930 . S
H2391 C2403 0.929 . S
H2392 C2406 0.930 . S
H2393 C2408 0.960 . S
H2394 C2408 0.960 . S
H2395 C2408 0.960 . S
C2396 H2388 0.929 . S
C2396 C2397 1.377 . S
C2396 C2398 1.384 . S
C2397 C2396 1.377 . S
C2397 C2403 1.390 . S
C2398 H2389 0.930 . S
C2398 C2396 1.384 . S
C2398 C2399 1.372 . S
C2399 C2398 1.372 . S
C2399 C2400 1.400 . S
C2399 C2404 1.490 . S
C2400 H2390 0.930 . S
C2400 C2399 1.400 . S
C2400 C2403 1.386 . S
H2401 C2417 0.930 . S
H2402 C2418 0.931 . S
C2403 H2391 0.929 . S
C2403 C2397 1.390 . S
C2403 C2400 1.386 . S
C2404 C2399 1.490 . S
C2404 C2406 1.395 . S
C2404 C2407 1.403 . S
H2405 C2411 0.930 . S
C2406 H2392 0.930 . S
C2406 C2404 1.395 . S
C2406 C2409 1.403 . S
C2407 C2404 1.403 . S
C2407 C2408 1.524 . S
C2407 C2411 1.400 . S
C2408 H2393 0.960 . S
C2408 H2394 0.960 . S
C2408 H2395 0.960 . S
C2408 C2407 1.524 . S
C2409 C2406 1.403 . S
C2409 C2410 1.392 . S
C2409 C2413 1.495 . S
C2410 C2409 1.392 . S
C2410 C2411 1.385 . S
C2410 C2412 1.478 . S
C2411 H2405 0.930 . S
C2411 C2407 1.400 . S
C2411 C2410 1.385 . S
C2412 C2410 1.478 . S
C2412 C2414 1.381 . S
C2412 C2418 1.383 . S
C2413 C2409 1.495 . S
C2413 H2419 0.959 . S
C2413 H2420 0.961 . S
C2413 H2421 0.960 . S
C2414 C2412 1.381 . S
C2414 C2415 1.394 . S
C2414 H2422 0.930 . S
C2415 C2414 1.394 . S
C2415 C2416 1.383 . S
C2415 H2423 0.929 . S
C2416 C2415 1.383 . S
C2416 C2417 1.377 . S
C2417 H2401 0.930 . S
C2417 C2416 1.377 . S
C2417 C2418 1.379 . S
C2418 H2402 0.931 . S
C2418 C2412 1.383 . S
C2418 C2417 1.379 . S
H2419 C2413 0.959 . S
H2420 C2413 0.961 . S
H2421 C2413 0.960 . S
H2422 C2414 0.930 . S
H2423 C2415 0.929 . S
H2424 C2432 0.929 . S
H2425 C2434 0.930 . S
H2426 C2436 0.930 . S
H2427 C2439 0.929 . S
H2428 C2442 0.930 . S
H2429 C2444 0.960 . S
H2430 C2444 0.960 . S
H2431 C2444 0.960 . S
C2432 H2424 0.929 . S
C2432 C2433 1.377 . S
C2432 C2434 1.384 . S
C2433 C2432 1.377 . S
C2433 C2439 1.390 . S
C2434 H2425 0.930 . S
C2434 C2432 1.384 . S
C2434 C2435 1.372 . S
C2435 C2434 1.372 . S
C2435 C2436 1.400 . S
C2435 C2440 1.490 . S
C2436 H2426 0.930 . S
C2436 C2435 1.400 . S
C2436 C2439 1.386 . S
H2437 C2453 0.930 . S
H2438 C2454 0.931 . S
C2439 H2427 0.929 . S
C2439 C2433 1.390 . S
C2439 C2436 1.386 . S
C2440 C2435 1.490 . S
C2440 C2442 1.395 . S
C2440 C2443 1.403 . S
H2441 C2447 0.930 . S
C2442 H2428 0.930 . S
C2442 C2440 1.395 . S
C2442 C2445 1.403 . S
C2443 C2440 1.403 . S
C2443 C2444 1.524 . S
C2443 C2447 1.400 . S
C2444 H2429 0.960 . S
C2444 H2430 0.960 . S
C2444 H2431 0.960 . S
C2444 C2443 1.524 . S
C2445 C2442 1.403 . S
C2445 C2446 1.392 . S
C2445 C2449 1.495 . S
C2446 C2445 1.392 . S
C2446 C2447 1.385 . S
C2446 C2448 1.478 . S
C2447 H2441 0.930 . S
C2447 C2443 1.400 . S
C2447 C2446 1.385 . S
C2448 C2446 1.478 . S
C2448 C2450 1.381 . S
C2448 C2454 1.383 . S
C2449 C2445 1.495 . S
C2449 H2455 0.959 . S
C2449 H2456 0.961 . S
C2449 H2457 0.960 . S
C2450 C2448 1.381 . S
C2450 C2451 1.394 . S
C2450 H2458 0.930 . S
C2451 C2450 1.394 . S
C2451 C2452 1.383 . S
C2451 H2459 0.929 . S
C2452 C2451 1.383 . S
C2452 C2453 1.377 . S
C2453 H2437 0.930 . S
C2453 C2452 1.377 . S
C2453 C2454 1.379 . S
C2454 H2438 0.931 . S
C2454 C2448 1.383 . S
C2454 C2453 1.379 . S
H2455 C2449 0.959 . S
H2456 C2449 0.961 . S
H2457 C2449 0.960 . S
H2458 C2450 0.930 . S
H2459 C2451 0.929 . S
H2460 C2468 0.929 . S
H2461 C2470 0.930 . S
H2462 C2472 0.930 . S
H2463 C2475 0.929 . S
H2464 C2478 0.930 . S
H2465 C2480 0.960 . S
H2466 C2480 0.960 . S
H2467 C2480 0.960 . S
C2468 H2460 0.929 . S
C2468 C2469 1.377 . S
C2468 C2470 1.384 . S
C2469 C2468 1.377 . S
C2469 C2475 1.390 . S
C2470 H2461 0.930 . S
C2470 C2468 1.384 . S
C2470 C2471 1.372 . S
C2471 C2470 1.372 . S
C2471 C2472 1.400 . S
C2471 C2476 1.490 . S
C2472 H2462 0.930 . S
C2472 C2471 1.400 . S
C2472 C2475 1.386 . S
H2473 C2489 0.930 . S
H2474 C2490 0.931 . S
C2475 H2463 0.929 . S
C2475 C2469 1.390 . S
C2475 C2472 1.386 . S
C2476 C2471 1.490 . S
C2476 C2478 1.395 . S
C2476 C2479 1.403 . S
H2477 C2483 0.930 . S
C2478 H2464 0.930 . S
C2478 C2476 1.395 . S
C2478 C2481 1.403 . S
C2479 C2476 1.403 . S
C2479 C2480 1.524 . S
C2479 C2483 1.400 . S
C2480 H2465 0.960 . S
C2480 H2466 0.960 . S
C2480 H2467 0.960 . S
C2480 C2479 1.524 . S
C2481 C2478 1.403 . S
C2481 C2482 1.392 . S
C2481 C2485 1.495 . S
C2482 C2481 1.392 . S
C2482 C2483 1.385 . S
C2482 C2484 1.478 . S
C2483 H2477 0.930 . S
C2483 C2479 1.400 . S
C2483 C2482 1.385 . S
C2484 C2482 1.478 . S
C2484 C2486 1.381 . S
C2484 C2490 1.383 . S
C2485 C2481 1.495 . S
C2485 H2491 0.959 . S
C2485 H2492 0.961 . S
C2485 H2493 0.960 . S
C2486 C2484 1.381 . S
C2486 C2487 1.394 . S
C2486 H2494 0.930 . S
C2487 C2486 1.394 . S
C2487 C2488 1.383 . S
C2487 H2495 0.929 . S
C2488 C2487 1.383 . S
C2488 C2489 1.377 . S
C2489 H2473 0.930 . S
C2489 C2488 1.377 . S
C2489 C2490 1.379 . S
C2490 H2474 0.931 . S
C2490 C2484 1.383 . S
C2490 C2489 1.379 . S
H2491 C2485 0.959 . S
H2492 C2485 0.961 . S
H2493 C2485 0.960 . S
H2494 C2486 0.930 . S
H2495 C2487 0.929 . S
H2496 C2504 0.929 . S
H2497 C2506 0.930 . S
H2498 C2508 0.930 . S
H2499 C2511 0.929 . S
H2500 C2514 0.930 . S
H2501 C2516 0.960 . S
H2502 C2516 0.960 . S
H2503 C2516 0.960 . S
C2504 H2496 0.929 . S
C2504 C2505 1.377 . S
C2504 C2506 1.384 . S
C2505 C2504 1.377 . S
C2505 C2511 1.390 . S
C2506 H2497 0.930 . S
C2506 C2504 1.384 . S
C2506 C2507 1.372 . S
C2507 C2506 1.372 . S
C2507 C2508 1.400 . S
C2507 C2512 1.490 . S
C2508 H2498 0.930 . S
C2508 C2507 1.400 . S
C2508 C2511 1.386 . S
H2509 C2525 0.930 . S
H2510 C2526 0.931 . S
C2511 H2499 0.929 . S
C2511 C2505 1.390 . S
C2511 C2508 1.386 . S
C2512 C2507 1.490 . S
C2512 C2514 1.395 . S
C2512 C2515 1.403 . S
H2513 C2519 0.930 . S
C2514 H2500 0.930 . S
C2514 C2512 1.395 . S
C2514 C2517 1.403 . S
C2515 C2512 1.403 . S
C2515 C2516 1.524 . S
C2515 C2519 1.400 . S
C2516 H2501 0.960 . S
C2516 H2502 0.960 . S
C2516 H2503 0.960 . S
C2516 C2515 1.524 . S
C2517 C2514 1.403 . S
C2517 C2518 1.392 . S
C2517 C2521 1.495 . S
C2518 C2517 1.392 . S
C2518 C2519 1.385 . S
C2518 C2520 1.478 . S
C2519 H2513 0.930 . S
C2519 C2515 1.400 . S
C2519 C2518 1.385 . S
C2520 C2518 1.478 . S
C2520 C2522 1.381 . S
C2520 C2526 1.383 . S
C2521 C2517 1.495 . S
C2521 H2527 0.959 . S
C2521 H2528 0.961 . S
C2521 H2529 0.960 . S
C2522 C2520 1.381 . S
C2522 C2523 1.394 . S
C2522 H2530 0.930 . S
C2523 C2522 1.394 . S
C2523 C2524 1.383 . S
C2523 H2531 0.950 . S
C2524 C2523 1.383 . S
C2524 C2525 1.377 . S
C2525 H2509 0.930 . S
C2525 C2524 1.377 . S
C2525 C2526 1.379 . S
C2526 H2510 0.931 . S
C2526 C2520 1.383 . S
C2526 C2525 1.379 . S
H2527 C2521 0.959 . S
H2528 C2521 0.961 . S
H2529 C2521 0.960 . S
H2530 C2522 0.930 . S
H2531 C2523 0.950 . S
H2532 C2540 0.929 . S
H2533 C2542 0.930 . S
H2534 C2544 0.930 . S
H2535 C2547 0.929 . S
H2536 C2550 0.930 . S
H2537 C2552 0.960 . S
H2538 C2552 0.960 . S
H2539 C2552 0.960 . S
C2540 H2532 0.929 . S
C2540 C2541 1.377 . S
C2540 C2542 1.384 . S
C2541 C2540 1.377 . S
C2541 C2547 1.390 . S
C2542 H2533 0.930 . S
C2542 C2540 1.384 . S
C2542 C2543 1.372 . S
C2543 C2542 1.372 . S
C2543 C2544 1.400 . S
C2543 C2548 1.490 . S
C2544 H2534 0.930 . S
C2544 C2543 1.400 . S
C2544 C2547 1.386 . S
H2545 C2561 0.930 . S
H2546 C2562 0.931 . S
C2547 H2535 0.929 . S
C2547 C2541 1.390 . S
C2547 C2544 1.386 . S
C2548 C2543 1.490 . S
C2548 C2550 1.395 . S
C2548 C2551 1.403 . S
H2549 C2555 0.930 . S
C2550 H2536 0.930 . S
C2550 C2548 1.395 . S
C2550 C2553 1.403 . S
C2551 C2548 1.403 . S
C2551 C2552 1.524 . S
C2551 C2555 1.400 . S
C2552 H2537 0.960 . S
C2552 H2538 0.960 . S
C2552 H2539 0.960 . S
C2552 C2551 1.524 . S
C2553 C2550 1.403 . S
C2553 C2554 1.392 . S
C2553 C2557 1.495 . S
C2554 C2553 1.392 . S
C2554 C2555 1.385 . S
C2554 C2556 1.478 . S
C2555 H2549 0.930 . S
C2555 C2551 1.400 . S
C2555 C2554 1.385 . S
C2556 C2554 1.478 . S
C2556 C2558 1.381 . S
C2556 C2562 1.383 . S
C2557 C2553 1.495 . S
C2557 H2563 0.959 . S
C2557 H2564 0.961 . S
C2557 H2565 0.960 . S
C2558 C2556 1.381 . S
C2558 C2559 1.394 . S
C2558 H2566 0.930 . S
C2559 C2558 1.394 . S
C2559 C2560 1.383 . S
C2559 H2567 0.929 . S
C2560 C2559 1.383 . S
C2560 C2561 1.377 . S
C2561 H2545 0.930 . S
C2561 C2560 1.377 . S
C2561 C2562 1.379 . S
C2562 H2546 0.931 . S
C2562 C2556 1.383 . S
C2562 C2561 1.379 . S
H2563 C2557 0.959 . S
H2564 C2557 0.961 . S
H2565 C2557 0.960 . S
H2566 C2558 0.930 . S
H2567 C2559 0.929 . S
H2568 C2576 0.929 . S
H2569 C2578 0.930 . S
H2570 C2580 0.930 . S
H2571 C2583 0.931 . S
H2572 C2586 0.930 . S
H2573 C2588 0.960 . S
H2574 C2588 0.960 . S
H2575 C2588 0.960 . S
C2576 H2568 0.929 . S
C2576 C2577 1.377 . S
C2576 C2578 1.384 . S
C2577 C2576 1.377 . S
C2577 C2583 1.390 . S
C2578 H2569 0.930 . S
C2578 C2576 1.384 . S
C2578 C2579 1.372 . S
C2579 C2578 1.372 . S
C2579 C2580 1.400 . S
C2579 C2584 1.490 . S
C2580 H2570 0.930 . S
C2580 C2579 1.400 . S
C2580 C2583 1.386 . S
H2581 C2597 0.930 . S
H2582 C2598 0.931 . S
C2583 H2571 0.931 . S
C2583 C2577 1.390 . S
C2583 C2580 1.386 . S
C2584 C2579 1.490 . S
C2584 C2586 1.395 . S
C2584 C2587 1.403 . S
H2585 C2591 0.930 . S
C2586 H2572 0.930 . S
C2586 C2584 1.395 . S
C2586 C2589 1.403 . S
C2587 C2584 1.403 . S
C2587 C2588 1.524 . S
C2587 C2591 1.400 . S
C2588 H2573 0.960 . S
C2588 H2574 0.960 . S
C2588 H2575 0.960 . S
C2588 C2587 1.524 . S
C2589 C2586 1.403 . S
C2589 C2590 1.392 . S
C2589 C2593 1.495 . S
C2590 C2589 1.392 . S
C2590 C2591 1.385 . S
C2590 C2592 1.478 . S
C2591 H2585 0.930 . S
C2591 C2587 1.400 . S
C2591 C2590 1.385 . S
C2592 C2590 1.478 . S
C2592 C2594 1.381 . S
C2592 C2598 1.383 . S
C2593 C2589 1.495 . S
C2593 H2599 0.959 . S
C2593 H2600 0.961 . S
C2593 H2601 0.960 . S
C2594 C2592 1.381 . S
C2594 C2595 1.394 . S
C2594 H2602 0.930 . S
C2595 C2594 1.394 . S
C2595 C2596 1.383 . S
C2595 H2603 0.929 . S
C2596 C2595 1.383 . S
C2596 C2597 1.377 . S
C2597 H2581 0.930 . S
C2597 C2596 1.377 . S
C2597 C2598 1.379 . S
C2598 H2582 0.931 . S
C2598 C2592 1.383 . S
C2598 C2597 1.379 . S
H2599 C2593 0.959 . S
H2600 C2593 0.961 . S
H2601 C2593 0.960 . S
H2602 C2594 0.930 . S
H2603 C2595 0.929 . S
H2604 C2612 0.929 . S
H2605 C2614 0.930 . S
H2606 C2616 0.930 . S
H2607 C2619 0.929 . S
H2608 C2622 0.930 . S
H2609 C2624 0.960 . S
H2610 C2624 0.960 . S
H2611 C2624 0.960 . S
C2612 H2604 0.929 . S
C2612 C2613 1.377 . S
C2612 C2614 1.384 . S
C2613 C2612 1.377 . S
C2613 C2619 1.390 . S
C2614 H2605 0.930 . S
C2614 C2612 1.384 . S
C2614 C2615 1.372 . S
C2615 C2614 1.372 . S
C2615 C2616 1.400 . S
C2615 C2620 1.490 . S
C2616 H2606 0.930 . S
C2616 C2615 1.400 . S
C2616 C2619 1.386 . S
H2617 C2633 0.930 . S
H2618 C2634 0.931 . S
C2619 H2607 0.929 . S
C2619 C2613 1.390 . S
C2619 C2616 1.386 . S
C2620 C2615 1.490 . S
C2620 C2622 1.395 . S
C2620 C2623 1.403 . S
H2621 C2627 0.930 . S
C2622 H2608 0.930 . S
C2622 C2620 1.395 . S
C2622 C2625 1.403 . S
C2623 C2620 1.403 . S
C2623 C2624 1.524 . S
C2623 C2627 1.400 . S
C2624 H2609 0.960 . S
C2624 H2610 0.960 . S
C2624 H2611 0.960 . S
C2624 C2623 1.524 . S
C2625 C2622 1.403 . S
C2625 C2626 1.392 . S
C2625 C2629 1.495 . S
C2626 C2625 1.392 . S
C2626 C2627 1.385 . S
C2626 C2628 1.478 . S
C2627 H2621 0.930 . S
C2627 C2623 1.400 . S
C2627 C2626 1.385 . S
C2628 C2626 1.478 . S
C2628 C2630 1.381 . S
C2628 C2634 1.383 . S
C2629 C2625 1.495 . S
C2629 H2635 0.959 . S
C2629 H2636 0.961 . S
C2629 H2637 0.960 . S
C2630 C2628 1.381 . S
C2630 C2631 1.394 . S
C2630 H2638 0.930 . S
C2631 C2630 1.394 . S
C2631 C2632 1.383 . S
C2631 H2639 0.929 . S
C2632 C2631 1.383 . S
C2632 C2633 1.377 . S
C2633 H2617 0.930 . S
C2633 C2632 1.377 . S
C2633 C2634 1.379 . S
C2634 H2618 0.931 . S
C2634 C2628 1.383 . S
C2634 C2633 1.379 . S
H2635 C2629 0.959 . S
H2636 C2629 0.961 . S
H2637 C2629 0.960 . S
H2638 C2630 0.930 . S
H2639 C2631 0.929 . S
H2640 C2648 0.929 . S
H2641 C2650 0.930 . S
H2642 C2652 0.930 . S
H2643 C2655 0.929 . S
H2644 C2658 0.930 . S
H2645 C2660 0.960 . S
H2646 C2660 0.960 . S
H2647 C2660 0.960 . S
C2648 H2640 0.929 . S
C2648 C2649 1.377 . S
C2648 C2650 1.384 . S
C2649 C2648 1.377 . S
C2649 C2655 1.390 . S
C2650 H2641 0.930 . S
C2650 C2648 1.384 . S
C2650 C2651 1.372 . S
C2651 C2650 1.372 . S
C2651 C2652 1.400 . S
C2651 C2656 1.490 . S
C2652 H2642 0.930 . S
C2652 C2651 1.400 . S
C2652 C2655 1.386 . S
H2653 C2669 0.930 . S
H2654 C2670 0.931 . S
C2655 H2643 0.929 . S
C2655 C2649 1.390 . S
C2655 C2652 1.386 . S
C2656 C2651 1.490 . S
C2656 C2658 1.395 . S
C2656 C2659 1.403 . S
H2657 C2663 0.930 . S
C2658 H2644 0.930 . S
C2658 C2656 1.395 . S
C2658 C2661 1.403 . S
C2659 C2656 1.403 . S
C2659 C2660 1.524 . S
C2659 C2663 1.400 . S
C2660 H2645 0.960 . S
C2660 H2646 0.960 . S
C2660 H2647 0.960 . S
C2660 C2659 1.524 . S
C2661 C2658 1.403 . S
C2661 C2662 1.392 . S
C2661 C2665 1.495 . S
C2662 C2661 1.392 . S
C2662 C2663 1.385 . S
C2662 C2664 1.478 . S
C2663 H2657 0.930 . S
C2663 C2659 1.400 . S
C2663 C2662 1.385 . S
C2664 C2662 1.478 . S
C2664 C2666 1.381 . S
C2664 C2670 1.383 . S
C2665 C2661 1.495 . S
C2665 H2671 0.959 . S
C2665 H2672 0.961 . S
C2665 H2673 0.960 . S
C2666 C2664 1.381 . S
C2666 C2667 1.394 . S
C2666 H2674 0.930 . S
C2667 C2666 1.394 . S
C2667 C2668 1.383 . S
C2667 H2675 0.929 . S
C2668 C2667 1.383 . S
C2668 C2669 1.377 . S
C2669 H2653 0.930 . S
C2669 C2668 1.377 . S
C2669 C2670 1.379 . S
C2670 H2654 0.931 . S
C2670 C2664 1.383 . S
C2670 C2669 1.379 . S
H2671 C2665 0.959 . S
H2672 C2665 0.961 . S
H2673 C2665 0.960 . S
H2674 C2666 0.930 . S
H2675 C2667 0.929 . S
H2676 C2684 0.929 . S
H2677 C2686 0.930 . S
H2678 C2688 0.930 . S
H2679 C2691 0.929 . S
H2680 C2694 0.930 . S
H2681 C2696 0.960 . S
H2682 C2696 0.960 . S
H2683 C2696 0.960 . S
C2684 H2676 0.929 . S
C2684 C2685 1.377 . S
C2684 C2686 1.384 . S
C2685 C2684 1.377 . S
C2685 C2691 1.390 . S
C2686 H2677 0.930 . S
C2686 C2684 1.384 . S
C2686 C2687 1.372 . S
C2687 C2686 1.372 . S
C2687 C2688 1.400 . S
C2687 C2692 1.490 . S
C2688 H2678 0.930 . S
C2688 C2687 1.400 . S
C2688 C2691 1.386 . S
H2689 C2705 0.930 . S
H2690 C2706 0.931 . S
C2691 H2679 0.929 . S
C2691 C2685 1.390 . S
C2691 C2688 1.386 . S
C2692 C2687 1.490 . S
C2692 C2694 1.395 . S
C2692 C2695 1.403 . S
H2693 C2699 0.930 . S
C2694 H2680 0.930 . S
C2694 C2692 1.395 . S
C2694 C2697 1.403 . S
C2695 C2692 1.403 . S
C2695 C2696 1.524 . S
C2695 C2699 1.400 . S
C2696 H2681 0.960 . S
C2696 H2682 0.960 . S
C2696 H2683 0.960 . S
C2696 C2695 1.524 . S
C2697 C2694 1.403 . S
C2697 C2698 1.392 . S
C2697 C2701 1.495 . S
C2698 C2697 1.392 . S
C2698 C2699 1.385 . S
C2698 C2700 1.478 . S
C2699 H2693 0.930 . S
C2699 C2695 1.400 . S
C2699 C2698 1.385 . S
C2700 C2698 1.478 . S
C2700 C2702 1.381 . S
C2700 C2706 1.383 . S
C2701 C2697 1.495 . S
C2701 H2707 0.959 . S
C2701 H2708 0.961 . S
C2701 H2709 0.960 . S
C2702 C2700 1.381 . S
C2702 C2703 1.394 . S
C2702 H2710 0.930 . S
C2703 C2702 1.394 . S
C2703 C2704 1.383 . S
C2703 H2711 0.929 . S
C2704 C2703 1.383 . S
C2704 C2705 1.377 . S
C2705 H2689 0.930 . S
C2705 C2704 1.377 . S
C2705 C2706 1.379 . S
C2706 H2690 0.931 . S
C2706 C2700 1.383 . S
C2706 C2705 1.379 . S
H2707 C2701 0.959 . S
H2708 C2701 0.961 . S
H2709 C2701 0.960 . S
H2710 C2702 0.930 . S
H2711 C2703 0.929 . S
H2712 C2720 0.929 . S
H2713 C2722 0.930 . S
H2714 C2724 0.930 . S
H2715 C2727 0.929 . S
H2716 C2730 0.930 . S
H2717 C2732 0.960 . S
H2718 C2732 0.960 . S
H2719 C2732 0.960 . S
C2720 H2712 0.929 . S
C2720 C2721 1.377 . S
C2720 C2722 1.384 . S
C2721 C2720 1.377 . S
C2721 C2727 1.390 . S
C2722 H2713 0.930 . S
C2722 C2720 1.384 . S
C2722 C2723 1.372 . S
C2723 C2722 1.372 . S
C2723 C2724 1.400 . S
C2723 C2728 1.490 . S
C2724 H2714 0.930 . S
C2724 C2723 1.400 . S
C2724 C2727 1.386 . S
H2725 C2741 0.930 . S
H2726 C2742 0.931 . S
C2727 H2715 0.929 . S
C2727 C2721 1.390 . S
C2727 C2724 1.386 . S
C2728 C2723 1.490 . S
C2728 C2730 1.395 . S
C2728 C2731 1.403 . S
H2729 C2735 0.930 . S
C2730 H2716 0.930 . S
C2730 C2728 1.395 . S
C2730 C2733 1.403 . S
C2731 C2728 1.403 . S
C2731 C2732 1.524 . S
C2731 C2735 1.400 . S
C2732 H2717 0.960 . S
C2732 H2718 0.960 . S
C2732 H2719 0.960 . S
C2732 C2731 1.524 . S
C2733 C2730 1.403 . S
C2733 C2734 1.392 . S
C2733 C2737 1.495 . S
C2734 C2733 1.392 . S
C2734 C2735 1.385 . S
C2734 C2736 1.478 . S
C2735 H2729 0.930 . S
C2735 C2731 1.400 . S
C2735 C2734 1.385 . S
C2736 C2734 1.478 . S
C2736 C2738 1.381 . S
C2736 C2742 1.383 . S
C2737 C2733 1.495 . S
C2737 H2743 0.959 . S
C2737 H2744 0.961 . S
C2737 H2745 0.960 . S
C2738 C2736 1.381 . S
C2738 C2739 1.394 . S
C2738 H2746 0.930 . S
C2739 C2738 1.394 . S
C2739 C2740 1.383 . S
C2739 H2747 0.929 . S
C2740 C2739 1.383 . S
C2740 C2741 1.377 . S
C2741 H2725 0.930 . S
C2741 C2740 1.377 . S
C2741 C2742 1.379 . S
C2742 H2726 0.931 . S
C2742 C2736 1.383 . S
C2742 C2741 1.379 . S
H2743 C2737 0.959 . S
H2744 C2737 0.961 . S
H2745 C2737 0.960 . S
H2746 C2738 0.930 . S
H2747 C2739 0.929 . S
H2748 C2756 0.929 . S
H2749 C2758 0.930 . S
H2750 C2760 0.930 . S
H2751 C2763 0.929 . S
H2752 C2766 0.930 . S
H2753 C2768 0.960 . S
H2754 C2768 0.960 . S
H2755 C2768 0.960 . S
C2756 H2748 0.929 . S
C2756 C2757 1.377 . S
C2756 C2758 1.384 . S
C2757 C2756 1.377 . S
C2757 C2763 1.390 . S
C2758 H2749 0.930 . S
C2758 C2756 1.384 . S
C2758 C2759 1.372 . S
C2759 C2758 1.372 . S
C2759 C2760 1.400 . S
C2759 C2764 1.490 . S
C2760 H2750 0.930 . S
C2760 C2759 1.400 . S
C2760 C2763 1.386 . S
H2761 C2777 0.930 . S
H2762 C2778 0.931 . S
C2763 H2751 0.929 . S
C2763 C2757 1.390 . S
C2763 C2760 1.386 . S
C2764 C2759 1.490 . S
C2764 C2766 1.395 . S
C2764 C2767 1.403 . S
H2765 C2771 0.930 . S
C2766 H2752 0.930 . S
C2766 C2764 1.395 . S
C2766 C2769 1.403 . S
C2767 C2764 1.403 . S
C2767 C2768 1.524 . S
C2767 C2771 1.400 . S
C2768 H2753 0.960 . S
C2768 H2754 0.960 . S
C2768 H2755 0.960 . S
C2768 C2767 1.524 . S
C2769 C2766 1.403 . S
C2769 C2770 1.392 . S
C2769 C2773 1.495 . S
C2770 C2769 1.392 . S
C2770 C2771 1.385 . S
C2770 C2772 1.478 . S
C2771 H2765 0.930 . S
C2771 C2767 1.400 . S
C2771 C2770 1.385 . S
C2772 C2770 1.478 . S
C2772 C2774 1.381 . S
C2772 C2778 1.383 . S
C2773 C2769 1.495 . S
C2773 H2779 0.959 . S
C2773 H2780 0.961 . S
C2773 H2781 0.960 . S
C2774 C2772 1.381 . S
C2774 C2775 1.394 . S
C2774 H2782 0.930 . S
C2775 C2774 1.394 . S
C2775 C2776 1.383 . S
C2775 H2783 0.929 . S
C2776 C2775 1.383 . S
C2776 C2777 1.377 . S
C2777 H2761 0.930 . S
C2777 C2776 1.377 . S
C2777 C2778 1.379 . S
C2778 H2762 0.931 . S
C2778 C2772 1.383 . S
C2778 C2777 1.379 . S
H2779 C2773 0.959 . S
H2780 C2773 0.961 . S
H2781 C2773 0.960 . S
H2782 C2774 0.930 . S
H2783 C2775 0.929 . S
H2784 C2792 0.929 . S
H2785 C2794 0.930 . S
H2786 C2796 0.930 . S
H2787 C2799 0.929 . S
H2788 C2802 0.930 . S
H2789 C2804 0.960 . S
H2790 C2804 0.960 . S
H2791 C2804 0.960 . S
C2792 H2784 0.929 . S
C2792 C2793 1.377 . S
C2792 C2794 1.384 . S
C2793 C2792 1.377 . S
C2793 C2799 1.390 . S
C2794 H2785 0.930 . S
C2794 C2792 1.384 . S
C2794 C2795 1.372 . S
C2795 C2794 1.372 . S
C2795 C2796 1.400 . S
C2795 C2800 1.490 . S
C2796 H2786 0.930 . S
C2796 C2795 1.400 . S
C2796 C2799 1.386 . S
H2797 C2813 0.930 . S
H2798 C2814 0.931 . S
C2799 H2787 0.929 . S
C2799 C2793 1.390 . S
C2799 C2796 1.386 . S
C2800 C2795 1.490 . S
C2800 C2802 1.395 . S
C2800 C2803 1.403 . S
H2801 C2807 0.930 . S
C2802 H2788 0.930 . S
C2802 C2800 1.395 . S
C2802 C2805 1.403 . S
C2803 C2800 1.403 . S
C2803 C2804 1.524 . S
C2803 C2807 1.400 . S
C2804 H2789 0.960 . S
C2804 H2790 0.960 . S
C2804 H2791 0.960 . S
C2804 C2803 1.524 . S
C2805 C2802 1.403 . S
C2805 C2806 1.392 . S
C2805 C2809 1.495 . S
C2806 C2805 1.392 . S
C2806 C2807 1.385 . S
C2806 C2808 1.478 . S
C2807 H2801 0.930 . S
C2807 C2803 1.400 . S
C2807 C2806 1.385 . S
C2808 C2806 1.478 . S
C2808 C2810 1.381 . S
C2808 C2814 1.383 . S
C2809 C2805 1.495 . S
C2809 H2815 0.959 . S
C2809 H2816 0.961 . S
C2809 H2817 0.960 . S
C2810 C2808 1.381 . S
C2810 C2811 1.394 . S
C2810 H2818 0.930 . S
C2811 C2810 1.394 . S
C2811 C2812 1.383 . S
C2811 H2819 0.929 . S
C2812 C2811 1.383 . S
C2812 C2813 1.377 . S
C2813 H2797 0.930 . S
C2813 C2812 1.377 . S
C2813 C2814 1.379 . S
C2814 H2798 0.931 . S
C2814 C2808 1.383 . S
C2814 C2813 1.379 . S
H2815 C2809 0.959 . S
H2816 C2809 0.961 . S
H2817 C2809 0.960 . S
H2818 C2810 0.930 . S
H2819 C2811 0.929 . S
H2820 C2828 0.929 . S
H2821 C2830 0.930 . S
H2822 C2832 0.930 . S
H2823 C2835 0.929 . S
H2824 C2838 0.930 . S
H2825 C2840 0.960 . S
H2826 C2840 0.960 . S
H2827 C2840 0.960 . S
C2828 H2820 0.929 . S
C2828 C2829 1.377 . S
C2828 C2830 1.384 . S
C2829 C2828 1.377 . S
C2829 C2835 1.390 . S
C2830 H2821 0.930 . S
C2830 C2828 1.384 . S
C2830 C2831 1.372 . S
C2831 C2830 1.372 . S
C2831 C2832 1.400 . S
C2831 C2836 1.490 . S
C2832 H2822 0.930 . S
C2832 C2831 1.400 . S
C2832 C2835 1.386 . S
H2833 C2849 0.930 . S
H2834 C2850 0.931 . S
C2835 H2823 0.929 . S
C2835 C2829 1.390 . S
C2835 C2832 1.386 . S
C2836 C2831 1.490 . S
C2836 C2838 1.395 . S
C2836 C2839 1.403 . S
H2837 C2843 0.930 . S
C2838 H2824 0.930 . S
C2838 C2836 1.395 . S
C2838 C2841 1.403 . S
C2839 C2836 1.403 . S
C2839 C2840 1.524 . S
C2839 C2843 1.400 . S
C2840 H2825 0.960 . S
C2840 H2826 0.960 . S
C2840 H2827 0.960 . S
C2840 C2839 1.524 . S
C2841 C2838 1.403 . S
C2841 C2842 1.392 . S
C2841 C2845 1.495 . S
C2842 C2841 1.392 . S
C2842 C2843 1.385 . S
C2842 C2844 1.478 . S
C2843 H2837 0.930 . S
C2843 C2839 1.400 . S
C2843 C2842 1.385 . S
C2844 C2842 1.478 . S
C2844 C2846 1.381 . S
C2844 C2850 1.383 . S
C2845 C2841 1.495 . S
C2845 H2851 0.959 . S
C2845 H2852 0.961 . S
C2845 H2853 0.960 . S
C2846 C2844 1.381 . S
C2846 C2847 1.394 . S
C2846 H2854 0.930 . S
C2847 C2846 1.394 . S
C2847 C2848 1.383 . S
C2847 H2855 0.929 . S
C2848 C2847 1.383 . S
C2848 C2849 1.377 . S
C2849 H2833 0.930 . S
C2849 C2848 1.377 . S
C2849 C2850 1.379 . S
C2850 H2834 0.931 . S
C2850 C2844 1.383 . S
C2850 C2849 1.379 . S
H2851 C2845 0.959 . S
H2852 C2845 0.961 . S
H2853 C2845 0.960 . S
H2854 C2846 0.930 . S
H2855 C2847 0.929 . S
H2856 C2864 0.929 . S
H2857 C2866 0.930 . S
H2858 C2868 0.930 . S
H2859 C2871 0.929 . S
H2860 C2874 0.930 . S
H2861 C2876 0.960 . S
H2862 C2876 0.960 . S
H2863 C2876 0.960 . S
C2864 H2856 0.929 . S
C2864 C2865 1.377 . S
C2864 C2866 1.384 . S
C2865 C2864 1.377 . S
C2865 C2871 1.390 . S
C2866 H2857 0.930 . S
C2866 C2864 1.384 . S
C2866 C2867 1.372 . S
C2867 C2866 1.372 . S
C2867 C2868 1.400 . S
C2867 C2872 1.490 . S
C2868 H2858 0.930 . S
C2868 C2867 1.400 . S
C2868 C2871 1.386 . S
H2869 C2885 0.930 . S
H2870 C2886 0.931 . S
C2871 H2859 0.929 . S
C2871 C2865 1.390 . S
C2871 C2868 1.386 . S
C2872 C2867 1.490 . S
C2872 C2874 1.395 . S
C2872 C2875 1.403 . S
H2873 C2879 0.930 . S
C2874 H2860 0.930 . S
C2874 C2872 1.395 . S
C2874 C2877 1.403 . S
C2875 C2872 1.403 . S
C2875 C2876 1.524 . S
C2875 C2879 1.400 . S
C2876 H2861 0.960 . S
C2876 H2862 0.960 . S
C2876 H2863 0.960 . S
C2876 C2875 1.524 . S
C2877 C2874 1.403 . S
C2877 C2878 1.392 . S
C2877 C2881 1.495 . S
C2878 C2877 1.392 . S
C2878 C2879 1.385 . S
C2878 C2880 1.478 . S
C2879 H2873 0.930 . S
C2879 C2875 1.400 . S
C2879 C2878 1.385 . S
C2880 C2878 1.478 . S
C2880 C2882 1.381 . S
C2880 C2886 1.383 . S
C2881 C2877 1.495 . S
C2881 H2887 0.959 . S
C2881 H2888 0.961 . S
C2881 H2889 0.960 . S
C2882 C2880 1.381 . S
C2882 C2883 1.394 . S
C2882 H2890 0.930 . S
C2883 C2882 1.394 . S
C2883 C2884 1.383 . S
C2883 H2891 0.929 . S
C2884 C2883 1.383 . S
C2884 C2885 1.377 . S
C2885 H2869 0.930 . S
C2885 C2884 1.377 . S
C2885 C2886 1.379 . S
C2886 H2870 0.931 . S
C2886 C2880 1.383 . S
C2886 C2885 1.379 . S
H2887 C2881 0.959 . S
H2888 C2881 0.961 . S
H2889 C2881 0.960 . S
H2890 C2882 0.930 . S
H2891 C2883 0.929 . S
H2892 C2900 0.929 . S
H2893 C2902 0.930 . S
H2894 C2904 0.930 . S
H2895 C2907 0.929 . S
H2896 C2910 0.930 . S
H2897 C2912 0.960 . S
H2898 C2912 0.960 . S
H2899 C2912 0.960 . S
C2900 H2892 0.929 . S
C2900 C2901 1.377 . S
C2900 C2902 1.384 . S
C2901 C2900 1.377 . S
C2901 C2907 1.390 . S
C2902 H2893 0.930 . S
C2902 C2900 1.384 . S
C2902 C2903 1.372 . S
C2903 C2902 1.372 . S
C2903 C2904 1.400 . S
C2903 C2908 1.490 . S
C2904 H2894 0.930 . S
C2904 C2903 1.400 . S
C2904 C2907 1.386 . S
H2905 C2921 0.930 . S
H2906 C2922 0.931 . S
C2907 H2895 0.929 . S
C2907 C2901 1.390 . S
C2907 C2904 1.386 . S
C2908 C2903 1.490 . S
C2908 C2910 1.395 . S
C2908 C2911 1.403 . S
H2909 C2915 0.930 . S
C2910 H2896 0.930 . S
C2910 C2908 1.395 . S
C2910 C2913 1.403 . S
C2911 C2908 1.403 . S
C2911 C2912 1.524 . S
C2911 C2915 1.400 . S
C2912 H2897 0.960 . S
C2912 H2898 0.960 . S
C2912 H2899 0.960 . S
C2912 C2911 1.524 . S
C2913 C2910 1.403 . S
C2913 C2914 1.392 . S
C2913 C2917 1.495 . S
C2914 C2913 1.392 . S
C2914 C2915 1.385 . S
C2914 C2916 1.478 . S
C2915 H2909 0.930 . S
C2915 C2911 1.400 . S
C2915 C2914 1.385 . S
C2916 C2914 1.478 . S
C2916 C2918 1.381 . S
C2916 C2922 1.383 . S
C2917 C2913 1.495 . S
C2917 H2923 0.959 . S
C2917 H2924 0.961 . S
C2917 H2925 0.960 . S
C2918 C2916 1.381 . S
C2918 C2919 1.394 . S
C2918 H2926 0.930 . S
C2919 C2918 1.394 . S
C2919 C2920 1.383 . S
C2919 H2927 0.929 . S
C2920 C2919 1.383 . S
C2920 C2921 1.377 . S
C2921 H2905 0.930 . S
C2921 C2920 1.377 . S
C2921 C2922 1.379 . S
C2922 H2906 0.931 . S
C2922 C2916 1.383 . S
C2922 C2921 1.379 . S
H2923 C2917 0.959 . S
H2924 C2917 0.961 . S
H2925 C2917 0.960 . S
H2926 C2918 0.930 . S
H2927 C2919 0.929 . S
H2928 C2936 0.929 . S
H2929 C2938 0.930 . S
H2930 C2940 0.930 . S
H2931 C2943 0.929 . S
H2932 C2946 0.930 . S
H2933 C2948 0.960 . S
H2934 C2948 0.960 . S
H2935 C2948 0.960 . S
C2936 H2928 0.929 . S
C2936 C2937 1.377 . S
C2936 C2938 1.384 . S
C2937 C2936 1.377 . S
C2937 C2943 1.390 . S
C2938 H2929 0.930 . S
C2938 C2936 1.384 . S
C2938 C2939 1.372 . S
C2939 C2938 1.372 . S
C2939 C2940 1.400 . S
C2939 C2944 1.490 . S
C2940 H2930 0.930 . S
C2940 C2939 1.400 . S
C2940 C2943 1.386 . S
H2941 C2957 0.930 . S
H2942 C2958 0.931 . S
C2943 H2931 0.929 . S
C2943 C2937 1.390 . S
C2943 C2940 1.386 . S
C2944 C2939 1.490 . S
C2944 C2946 1.395 . S
C2944 C2947 1.403 . S
H2945 C2951 0.930 . S
C2946 H2932 0.930 . S
C2946 C2944 1.395 . S
C2946 C2949 1.403 . S
C2947 C2944 1.403 . S
C2947 C2948 1.524 . S
C2947 C2951 1.400 . S
C2948 H2933 0.960 . S
C2948 H2934 0.960 . S
C2948 H2935 0.960 . S
C2948 C2947 1.524 . S
C2949 C2946 1.403 . S
C2949 C2950 1.392 . S
C2949 C2953 1.495 . S
C2950 C2949 1.392 . S
C2950 C2951 1.385 . S
C2950 C2952 1.478 . S
C2951 H2945 0.930 . S
C2951 C2947 1.400 . S
C2951 C2950 1.385 . S
C2952 C2950 1.478 . S
C2952 C2954 1.381 . S
C2952 C2958 1.383 . S
C2953 C2949 1.495 . S
C2953 H2959 0.959 . S
C2953 H2960 0.961 . S
C2953 H2961 0.960 . S
C2954 C2952 1.381 . S
C2954 C2955 1.394 . S
C2954 H2962 0.930 . S
C2955 C2954 1.394 . S
C2955 C2956 1.383 . S
C2955 H2963 0.929 . S
C2956 C2955 1.383 . S
C2956 C2957 1.377 . S
C2957 H2941 0.930 . S
C2957 C2956 1.377 . S
C2957 C2958 1.379 . S
C2958 H2942 0.931 . S
C2958 C2952 1.383 . S
C2958 C2957 1.379 . S
H2959 C2953 0.959 . S
H2960 C2953 0.961 . S
H2961 C2953 0.960 . S
H2962 C2954 0.930 . S
H2963 C2955 0.929 . S
H2964 C2972 0.929 . S
H2965 C2974 0.930 . S
H2966 C2976 0.930 . S
H2967 C2979 0.929 . S
H2968 C2982 0.930 . S
H2969 C2984 0.960 . S
H2970 C2984 0.960 . S
H2971 C2984 0.960 . S
C2972 H2964 0.929 . S
C2972 C2973 1.377 . S
C2972 C2974 1.384 . S
C2973 C2972 1.377 . S
C2973 C2979 1.390 . S
C2974 H2965 0.930 . S
C2974 C2972 1.384 . S
C2974 C2975 1.372 . S
C2975 C2974 1.372 . S
C2975 C2976 1.400 . S
C2975 C2980 1.490 . S
C2976 H2966 0.930 . S
C2976 C2975 1.400 . S
C2976 C2979 1.386 . S
H2977 C2993 0.930 . S
H2978 C2994 0.931 . S
C2979 H2967 0.929 . S
C2979 C2973 1.390 . S
C2979 C2976 1.386 . S
C2980 C2975 1.490 . S
C2980 C2982 1.395 . S
C2980 C2983 1.403 . S
H2981 C2987 0.930 . S
C2982 H2968 0.930 . S
C2982 C2980 1.395 . S
C2982 C2985 1.403 . S
C2983 C2980 1.403 . S
C2983 C2984 1.524 . S
C2983 C2987 1.400 . S
C2984 H2969 0.960 . S
C2984 H2970 0.960 . S
C2984 H2971 0.960 . S
C2984 C2983 1.524 . S
C2985 C2982 1.403 . S
C2985 C2986 1.392 . S
C2985 C2989 1.495 . S
C2986 C2985 1.392 . S
C2986 C2987 1.385 . S
C2986 C2988 1.478 . S
C2987 H2981 0.930 . S
C2987 C2983 1.400 . S
C2987 C2986 1.385 . S
C2988 C2986 1.478 . S
C2988 C2990 1.381 . S
C2988 C2994 1.383 . S
C2989 C2985 1.495 . S
C2989 H2995 0.959 . S
C2989 H2996 0.961 . S
C2989 H2997 0.960 . S
C2990 C2988 1.381 . S
C2990 C2991 1.394 . S
C2990 H2998 0.930 . S
C2991 C2990 1.394 . S
C2991 C2992 1.383 . S
C2991 H2999 0.929 . S
C2992 C2991 1.383 . S
C2992 C2993 1.377 . S
C2993 H2977 0.930 . S
C2993 C2992 1.377 . S
C2993 C2994 1.379 . S
C2994 H2978 0.931 . S
C2994 C2988 1.383 . S
C2994 C2993 1.379 . S
H2995 C2989 0.959 . S
H2996 C2989 0.961 . S
H2997 C2989 0.960 . S
H2998 C2990 0.930 . S
H2999 C2991 0.929 . S
H3000 C3008 0.929 . S
H3001 C3010 0.930 . S
H3002 C3012 0.930 . S
H3003 C3015 0.929 . S
H3004 C3018 0.930 . S
H3005 C3020 0.960 . S
H3006 C3020 0.960 . S
H3007 C3020 0.960 . S
C3008 H3000 0.929 . S
C3008 C3009 1.377 . S
C3008 C3010 1.384 . S
C3009 C3008 1.377 . S
C3009 C3015 1.390 . S
C3010 H3001 0.930 . S
C3010 C3008 1.384 . S
C3010 C3011 1.372 . S
C3011 C3010 1.372 . S
C3011 C3012 1.400 . S
C3011 C3016 1.490 . S
C3012 H3002 0.930 . S
C3012 C3011 1.400 . S
C3012 C3015 1.386 . S
H3013 C3029 0.930 . S
H3014 C3030 0.931 . S
C3015 H3003 0.929 . S
C3015 C3009 1.390 . S
C3015 C3012 1.386 . S
C3016 C3011 1.490 . S
C3016 C3018 1.395 . S
C3016 C3019 1.403 . S
H3017 C3023 0.930 . S
C3018 H3004 0.930 . S
C3018 C3016 1.395 . S
C3018 C3021 1.403 . S
C3019 C3016 1.403 . S
C3019 C3020 1.524 . S
C3019 C3023 1.400 . S
C3020 H3005 0.960 . S
C3020 H3006 0.960 . S
C3020 H3007 0.960 . S
C3020 C3019 1.524 . S
C3021 C3018 1.403 . S
C3021 C3022 1.392 . S
C3021 C3025 1.495 . S
C3022 C3021 1.392 . S
C3022 C3023 1.385 . S
C3022 C3024 1.478 . S
C3023 H3017 0.930 . S
C3023 C3019 1.400 . S
C3023 C3022 1.385 . S
C3024 C3022 1.478 . S
C3024 C3026 1.381 . S
C3024 C3030 1.383 . S
C3025 C3021 1.495 . S
C3025 H3031 0.959 . S
C3025 H3032 0.961 . S
C3025 H3033 0.960 . S
C3026 C3024 1.381 . S
C3026 C3027 1.394 . S
C3026 H3034 0.930 . S
C3027 C3026 1.394 . S
C3027 C3028 1.383 . S
C3027 H3035 0.929 . S
C3028 C3027 1.383 . S
C3028 C3029 1.377 . S
C3029 H3013 0.930 . S
C3029 C3028 1.377 . S
C3029 C3030 1.379 . S
C3030 H3014 0.931 . S
C3030 C3024 1.383 . S
C3030 C3029 1.379 . S
H3031 C3025 0.959 . S
H3032 C3025 0.961 . S
H3033 C3025 0.960 . S
H3034 C3026 0.930 . S
H3035 C3027 0.929 . S
H3036 C3044 0.929 . S
H3037 C3046 0.930 . S
H3038 C3048 0.930 . S
H3039 C3051 0.929 . S
H3040 C3054 0.930 . S
H3041 C3056 0.960 . S
H3042 C3056 0.960 . S
H3043 C3056 0.960 . S
C3044 H3036 0.929 . S
C3044 C3045 1.377 . S
C3044 C3046 1.384 . S
C3045 C3044 1.377 . S
C3045 C3051 1.390 . S
C3046 H3037 0.930 . S
C3046 C3044 1.384 . S
C3046 C3047 1.372 . S
C3047 C3046 1.372 . S
C3047 C3048 1.400 . S
C3047 C3052 1.490 . S
C3048 H3038 0.930 . S
C3048 C3047 1.400 . S
C3048 C3051 1.386 . S
H3049 C3065 0.930 . S
H3050 C3066 0.931 . S
C3051 H3039 0.929 . S
C3051 C3045 1.390 . S
C3051 C3048 1.386 . S
C3052 C3047 1.490 . S
C3052 C3054 1.395 . S
C3052 C3055 1.403 . S
H3053 C3059 0.930 . S
C3054 H3040 0.930 . S
C3054 C3052 1.395 . S
C3054 C3057 1.403 . S
C3055 C3052 1.403 . S
C3055 C3056 1.524 . S
C3055 C3059 1.400 . S
C3056 H3041 0.960 . S
C3056 H3042 0.960 . S
C3056 H3043 0.960 . S
C3056 C3055 1.524 . S
C3057 C3054 1.403 . S
C3057 C3058 1.392 . S
C3057 C3061 1.495 . S
C3058 C3057 1.392 . S
C3058 C3059 1.385 . S
C3058 C3060 1.478 . S
C3059 H3053 0.930 . S
C3059 C3055 1.400 . S
C3059 C3058 1.385 . S
C3060 C3058 1.478 . S
C3060 C3062 1.381 . S
C3060 C3066 1.383 . S
C3061 C3057 1.495 . S
C3061 H3067 0.959 . S
C3061 H3068 0.961 . S
C3061 H3069 0.960 . S
C3062 C3060 1.381 . S
C3062 C3063 1.394 . S
C3062 H3070 0.930 . S
C3063 C3062 1.394 . S
C3063 C3064 1.383 . S
C3063 H3071 0.929 . S
C3064 C3063 1.383 . S
C3064 C3065 1.377 . S
C3065 H3049 0.930 . S
C3065 C3064 1.377 . S
C3065 C3066 1.379 . S
C3066 H3050 0.931 . S
C3066 C3060 1.383 . S
C3066 C3065 1.379 . S
H3067 C3061 0.959 . S
H3068 C3061 0.961 . S
H3069 C3061 0.960 . S
H3070 C3062 0.930 . S
H3071 C3063 0.929 . S
H3072 C3080 0.929 . S
H3073 C3082 0.930 . S
H3074 C3084 0.930 . S
H3075 C3087 0.929 . S
H3076 C3090 0.930 . S
H3077 C3092 0.960 . S
H3078 C3092 0.960 . S
H3079 C3092 0.960 . S
C3080 H3072 0.929 . S
C3080 C3081 1.377 . S
C3080 C3082 1.384 . S
C3081 C3080 1.377 . S
C3081 C3087 1.390 . S
C3082 H3073 0.930 . S
C3082 C3080 1.384 . S
C3082 C3083 1.372 . S
C3083 C3082 1.372 . S
C3083 C3084 1.400 . S
C3083 C3088 1.490 . S
C3084 H3074 0.930 . S
C3084 C3083 1.400 . S
C3084 C3087 1.386 . S
H3085 C3101 0.930 . S
H3086 C3102 0.931 . S
C3087 H3075 0.929 . S
C3087 C3081 1.390 . S
C3087 C3084 1.386 . S
C3088 C3083 1.490 . S
C3088 C3090 1.395 . S
C3088 C3091 1.403 . S
H3089 C3095 0.930 . S
C3090 H3076 0.930 . S
C3090 C3088 1.395 . S
C3090 C3093 1.403 . S
C3091 C3088 1.403 . S
C3091 C3092 1.524 . S
C3091 C3095 1.400 . S
C3092 H3077 0.960 . S
C3092 H3078 0.960 . S
C3092 H3079 0.960 . S
C3092 C3091 1.524 . S
C3093 C3090 1.403 . S
C3093 C3094 1.392 . S
C3093 C3097 1.495 . S
C3094 C3093 1.392 . S
C3094 C3095 1.385 . S
C3094 C3096 1.478 . S
C3095 H3089 0.930 . S
C3095 C3091 1.400 . S
C3095 C3094 1.385 . S
C3096 C3094 1.478 . S
C3096 C3098 1.381 . S
C3096 C3102 1.383 . S
C3097 C3093 1.495 . S
C3097 H3103 0.959 . S
C3097 H3104 0.961 . S
C3097 H3105 0.960 . S
C3098 C3096 1.381 . S
C3098 C3099 1.394 . S
C3098 H3106 0.930 . S
C3099 C3098 1.394 . S
C3099 C3100 1.383 . S
C3099 H3107 0.929 . S
C3100 C3099 1.383 . S
C3100 C3101 1.377 . S
C3101 H3085 0.930 . S
C3101 C3100 1.377 . S
C3101 C3102 1.379 . S
C3102 H3086 0.931 . S
C3102 C3096 1.383 . S
C3102 C3101 1.379 . S
H3103 C3097 0.959 . S
H3104 C3097 0.961 . S
H3105 C3097 0.960 . S
H3106 C3098 0.930 . S
H3107 C3099 0.929 . S
H3108 C3116 0.929 . S
H3109 C3118 0.930 . S
H3110 C3120 0.930 . S
H3111 C3123 0.929 . S
H3112 C3126 0.930 . S
H3113 C3128 0.960 . S
H3114 C3128 0.960 . S
H3115 C3128 0.960 . S
C3116 H3108 0.929 . S
C3116 C3117 1.377 . S
C3116 C3118 1.384 . S
C3117 C3116 1.377 . S
C3117 C3123 1.390 . S
C3118 H3109 0.930 . S
C3118 C3116 1.384 . S
C3118 C3119 1.372 . S
C3119 C3118 1.372 . S
C3119 C3120 1.400 . S
C3119 C3124 1.490 . S
C3120 H3110 0.930 . S
C3120 C3119 1.400 . S
C3120 C3123 1.386 . S
H3121 C3137 0.930 . S
H3122 C3138 0.931 . S
C3123 H3111 0.929 . S
C3123 C3117 1.390 . S
C3123 C3120 1.386 . S
C3124 C3119 1.490 . S
C3124 C3126 1.395 . S
C3124 C3127 1.403 . S
H3125 C3131 0.930 . S
C3126 H3112 0.930 . S
C3126 C3124 1.395 . S
C3126 C3129 1.403 . S
C3127 C3124 1.403 . S
C3127 C3128 1.524 . S
C3127 C3131 1.400 . S
C3128 H3113 0.960 . S
C3128 H3114 0.960 . S
C3128 H3115 0.960 . S
C3128 C3127 1.524 . S
C3129 C3126 1.403 . S
C3129 C3130 1.392 . S
C3129 C3133 1.495 . S
C3130 C3129 1.392 . S
C3130 C3131 1.385 . S
C3130 C3132 1.478 . S
C3131 H3125 0.930 . S
C3131 C3127 1.400 . S
C3131 C3130 1.385 . S
C3132 C3130 1.478 . S
C3132 C3134 1.381 . S
C3132 C3138 1.383 . S
C3133 C3129 1.495 . S
C3133 H3139 0.959 . S
C3133 H3140 0.961 . S
C3133 H3141 0.960 . S
C3134 C3132 1.381 . S
C3134 C3135 1.394 . S
C3134 H3142 0.930 . S
C3135 C3134 1.394 . S
C3135 C3136 1.383 . S
C3135 H3143 0.929 . S
C3136 C3135 1.383 . S
C3136 C3137 1.377 . S
C3137 H3121 0.930 . S
C3137 C3136 1.377 . S
C3137 C3138 1.379 . S
C3138 H3122 0.931 . S
C3138 C3132 1.383 . S
C3138 C3137 1.379 . S
H3139 C3133 0.959 . S
H3140 C3133 0.961 . S
H3141 C3133 0.960 . S
H3142 C3134 0.930 . S
H3143 C3135 0.929 . S
H3144 C3152 0.929 . S
H3145 C3154 0.930 . S
H3146 C3156 0.930 . S
H3147 C3159 0.929 . S
H3148 C3162 0.930 . S
H3149 C3164 0.960 . S
H3150 C3164 0.960 . S
H3151 C3164 0.960 . S
C3152 H3144 0.929 . S
C3152 C3153 1.377 . S
C3152 C3154 1.384 . S
C3153 C3152 1.377 . S
C3153 C3159 1.390 . S
C3154 H3145 0.930 . S
C3154 C3152 1.384 . S
C3154 C3155 1.372 . S
C3155 C3154 1.372 . S
C3155 C3156 1.400 . S
C3155 C3160 1.490 . S
C3156 H3146 0.930 . S
C3156 C3155 1.400 . S
C3156 C3159 1.386 . S
H3157 C3173 0.930 . S
H3158 C3174 0.931 . S
C3159 H3147 0.929 . S
C3159 C3153 1.390 . S
C3159 C3156 1.386 . S
C3160 C3155 1.490 . S
C3160 C3162 1.395 . S
C3160 C3163 1.403 . S
H3161 C3167 0.930 . S
C3162 H3148 0.930 . S
C3162 C3160 1.395 . S
C3162 C3165 1.403 . S
C3163 C3160 1.403 . S
C3163 C3164 1.524 . S
C3163 C3167 1.400 . S
C3164 H3149 0.960 . S
C3164 H3150 0.960 . S
C3164 H3151 0.960 . S
C3164 C3163 1.524 . S
C3165 C3162 1.403 . S
C3165 C3166 1.392 . S
C3165 C3169 1.495 . S
C3166 C3165 1.392 . S
C3166 C3167 1.385 . S
C3166 C3168 1.478 . S
C3167 H3161 0.930 . S
C3167 C3163 1.400 . S
C3167 C3166 1.385 . S
C3168 C3166 1.478 . S
C3168 C3170 1.381 . S
C3168 C3174 1.383 . S
C3169 C3165 1.495 . S
C3169 H3175 0.959 . S
C3169 H3176 0.961 . S
C3169 H3177 0.960 . S
C3170 C3168 1.381 . S
C3170 C3171 1.394 . S
C3170 H3178 0.930 . S
C3171 C3170 1.394 . S
C3171 C3172 1.383 . S
C3171 H3179 0.929 . S
C3172 C3171 1.383 . S
C3172 C3173 1.377 . S
C3173 H3157 0.930 . S
C3173 C3172 1.377 . S
C3173 C3174 1.379 . S
C3174 H3158 0.931 . S
C3174 C3168 1.383 . S
C3174 C3173 1.379 . S
H3175 C3169 0.959 . S
H3176 C3169 0.961 . S
H3177 C3169 0.960 . S
H3178 C3170 0.930 . S
H3179 C3171 0.929 . S
H3180 C3188 0.929 . S
H3181 C3190 0.930 . S
H3182 C3192 0.930 . S
H3183 C3195 0.929 . S
H3184 C3198 0.930 . S
H3185 C3200 0.960 . S
H3186 C3200 0.960 . S
H3187 C3200 0.960 . S
C3188 H3180 0.929 . S
C3188 C3189 1.377 . S
C3188 C3190 1.384 . S
C3189 C3188 1.377 . S
C3189 C3195 1.390 . S
C3190 H3181 0.930 . S
C3190 C3188 1.384 . S
C3190 C3191 1.372 . S
C3191 C3190 1.372 . S
C3191 C3192 1.400 . S
C3191 C3196 1.490 . S
C3192 H3182 0.930 . S
C3192 C3191 1.400 . S
C3192 C3195 1.386 . S
H3193 C3209 0.930 . S
H3194 C3210 0.931 . S
C3195 H3183 0.929 . S
C3195 C3189 1.390 . S
C3195 C3192 1.386 . S
C3196 C3191 1.490 . S
C3196 C3198 1.395 . S
C3196 C3199 1.403 . S
H3197 C3203 0.930 . S
C3198 H3184 0.930 . S
C3198 C3196 1.395 . S
C3198 C3201 1.403 . S
C3199 C3196 1.403 . S
C3199 C3200 1.524 . S
C3199 C3203 1.400 . S
C3200 H3185 0.960 . S
C3200 H3186 0.960 . S
C3200 H3187 0.960 . S
C3200 C3199 1.524 . S
C3201 C3198 1.403 . S
C3201 C3202 1.392 . S
C3201 C3205 1.495 . S
C3202 C3201 1.392 . S
C3202 C3203 1.385 . S
C3202 C3204 1.478 . S
C3203 H3197 0.930 . S
C3203 C3199 1.400 . S
C3203 C3202 1.385 . S
C3204 C3202 1.478 . S
C3204 C3206 1.381 . S
C3204 C3210 1.383 . S
C3205 C3201 1.495 . S
C3205 H3211 0.959 . S
C3205 H3212 0.961 . S
C3205 H3213 0.960 . S
C3206 C3204 1.381 . S
C3206 C3207 1.394 . S
C3206 H3214 0.930 . S
C3207 C3206 1.394 . S
C3207 C3208 1.383 . S
C3207 H3215 0.929 . S
C3208 C3207 1.383 . S
C3208 C3209 1.377 . S
C3209 H3193 0.930 . S
C3209 C3208 1.377 . S
C3209 C3210 1.379 . S
C3210 H3194 0.931 . S
C3210 C3204 1.383 . S
C3210 C3209 1.379 . S
H3211 C3205 0.959 . S
H3212 C3205 0.961 . S
H3213 C3205 0.960 . S
H3214 C3206 0.930 . S
H3215 C3207 0.929 . S
H3216 C3224 0.929 . S
H3217 C3226 0.930 . S
H3218 C3228 0.930 . S
H3219 C3231 0.929 . S
H3220 C3234 0.930 . S
H3221 C3236 0.960 . S
H3222 C3236 0.960 . S
H3223 C3236 0.960 . S
C3224 H3216 0.929 . S
C3224 C3225 1.377 . S
C3224 C3226 1.384 . S
C3225 C3224 1.377 . S
C3225 C3231 1.390 . S
C3226 H3217 0.930 . S
C3226 C3224 1.384 . S
C3226 C3227 1.372 . S
C3227 C3226 1.372 . S
C3227 C3228 1.400 . S
C3227 C3232 1.490 . S
C3228 H3218 0.930 . S
C3228 C3227 1.400 . S
C3228 C3231 1.386 . S
H3229 C3245 0.930 . S
H3230 C3246 0.931 . S
C3231 H3219 0.929 . S
C3231 C3225 1.390 . S
C3231 C3228 1.386 . S
C3232 C3227 1.490 . S
C3232 C3234 1.395 . S
C3232 C3235 1.403 . S
H3233 C3239 0.930 . S
C3234 H3220 0.930 . S
C3234 C3232 1.395 . S
C3234 C3237 1.403 . S
C3235 C3232 1.403 . S
C3235 C3236 1.524 . S
C3235 C3239 1.400 . S
C3236 H3221 0.960 . S
C3236 H3222 0.960 . S
C3236 H3223 0.960 . S
C3236 C3235 1.524 . S
C3237 C3234 1.403 . S
C3237 C3238 1.392 . S
C3237 C3241 1.495 . S
C3238 C3237 1.392 . S
C3238 C3239 1.385 . S
C3238 C3240 1.478 . S
C3239 H3233 0.930 . S
C3239 C3235 1.400 . S
C3239 C3238 1.385 . S
C3240 C3238 1.478 . S
C3240 C3242 1.381 . S
C3240 C3246 1.383 . S
C3241 C3237 1.495 . S
C3241 H3247 0.959 . S
C3241 H3248 0.961 . S
C3241 H3249 0.960 . S
C3242 C3240 1.381 . S
C3242 C3243 1.394 . S
C3242 H3250 0.930 . S
C3243 C3242 1.394 . S
C3243 C3244 1.383 . S
C3243 H3251 0.929 . S
C3244 C3243 1.383 . S
C3244 C3245 1.377 . S
C3245 H3229 0.930 . S
C3245 C3244 1.377 . S
C3245 C3246 1.379 . S
C3246 H3230 0.931 . S
C3246 C3240 1.383 . S
C3246 C3245 1.379 . S
H3247 C3241 0.959 . S
H3248 C3241 0.961 . S
H3249 C3241 0.960 . S
H3250 C3242 0.930 . S
H3251 C3243 0.929 . S
H3252 C3260 0.929 . S
H3253 C3262 0.930 . S
H3254 C3264 0.930 . S
H3255 C3267 0.929 . S
H3256 C3270 0.930 . S
H3257 C3272 0.960 . S
H3258 C3272 0.960 . S
H3259 C3272 0.960 . S
C3260 H3252 0.929 . S
C3260 C3261 1.377 . S
C3260 C3262 1.384 . S
C3261 C3260 1.377 . S
C3261 C3267 1.390 . S
C3262 H3253 0.930 . S
C3262 C3260 1.384 . S
C3262 C3263 1.372 . S
C3263 C3262 1.372 . S
C3263 C3264 1.400 . S
C3263 C3268 1.490 . S
C3264 H3254 0.930 . S
C3264 C3263 1.400 . S
C3264 C3267 1.386 . S
H3265 C3281 0.930 . S
H3266 C3282 0.931 . S
C3267 H3255 0.929 . S
C3267 C3261 1.390 . S
C3267 C3264 1.386 . S
C3268 C3263 1.490 . S
C3268 C3270 1.395 . S
C3268 C3271 1.403 . S
H3269 C3275 0.930 . S
C3270 H3256 0.930 . S
C3270 C3268 1.395 . S
C3270 C3273 1.403 . S
C3271 C3268 1.403 . S
C3271 C3272 1.524 . S
C3271 C3275 1.400 . S
C3272 H3257 0.960 . S
C3272 H3258 0.960 . S
C3272 H3259 0.960 . S
C3272 C3271 1.524 . S
C3273 C3270 1.403 . S
C3273 C3274 1.392 . S
C3273 C3277 1.495 . S
C3274 C3273 1.392 . S
C3274 C3275 1.385 . S
C3274 C3276 1.478 . S
C3275 H3269 0.930 . S
C3275 C3271 1.400 . S
C3275 C3274 1.385 . S
C3276 C3274 1.478 . S
C3276 C3278 1.381 . S
C3276 C3282 1.383 . S
C3277 C3273 1.495 . S
C3277 H3283 0.959 . S
C3277 H3284 0.961 . S
C3277 H3285 0.960 . S
C3278 C3276 1.381 . S
C3278 C3279 1.394 . S
C3278 H3286 0.930 . S
C3279 C3278 1.394 . S
C3279 C3280 1.383 . S
C3279 H3287 0.929 . S
C3280 C3279 1.383 . S
C3280 C3281 1.377 . S
C3281 H3265 0.930 . S
C3281 C3280 1.377 . S
C3281 C3282 1.379 . S
C3282 H3266 0.931 . S
C3282 C3276 1.383 . S
C3282 C3281 1.379 . S
H3283 C3277 0.959 . S
H3284 C3277 0.961 . S
H3285 C3277 0.960 . S
H3286 C3278 0.930 . S
H3287 C3279 0.929 . S
H3288 C3296 0.929 . S
H3289 C3298 0.930 . S
H3290 C3300 0.930 . S
H3291 C3303 0.929 . S
H3292 C3306 0.930 . S
H3293 C3308 0.960 . S
H3294 C3308 0.960 . S
H3295 C3308 0.960 . S
C3296 H3288 0.929 . S
C3296 C3297 1.377 . S
C3296 C3298 1.384 . S
C3297 C3296 1.377 . S
C3297 C3303 1.390 . S
C3298 H3289 0.930 . S
C3298 C3296 1.384 . S
C3298 C3299 1.372 . S
C3299 C3298 1.372 . S
C3299 C3300 1.400 . S
C3299 C3304 1.490 . S
C3300 H3290 0.930 . S
C3300 C3299 1.400 . S
C3300 C3303 1.386 . S
H3301 C3317 0.930 . S
H3302 C3318 0.931 . S
C3303 H3291 0.929 . S
C3303 C3297 1.390 . S
C3303 C3300 1.386 . S
C3304 C3299 1.490 . S
C3304 C3306 1.395 . S
C3304 C3307 1.403 . S
H3305 C3311 0.930 . S
C3306 H3292 0.930 . S
C3306 C3304 1.395 . S
C3306 C3309 1.403 . S
C3307 C3304 1.403 . S
C3307 C3308 1.524 . S
C3307 C3311 1.400 . S
C3308 H3293 0.960 . S
C3308 H3294 0.960 . S
C3308 H3295 0.960 . S
C3308 C3307 1.524 . S
C3309 C3306 1.403 . S
C3309 C3310 1.392 . S
C3309 C3313 1.495 . S
C3310 C3309 1.392 . S
C3310 C3311 1.385 . S
C3310 C3312 1.478 . S
C3311 H3305 0.930 . S
C3311 C3307 1.400 . S
C3311 C3310 1.385 . S
C3312 C3310 1.478 . S
C3312 C3314 1.381 . S
C3312 C3318 1.383 . S
C3313 C3309 1.495 . S
C3313 H3319 0.959 . S
C3313 H3320 0.961 . S
C3313 H3321 0.960 . S
C3314 C3312 1.381 . S
C3314 C3315 1.394 . S
C3314 H3322 0.930 . S
C3315 C3314 1.394 . S
C3315 C3316 1.383 . S
C3315 H3323 0.929 . S
C3316 C3315 1.383 . S
C3316 C3317 1.377 . S
C3317 H3301 0.930 . S
C3317 C3316 1.377 . S
C3317 C3318 1.379 . S
C3318 H3302 0.931 . S
C3318 C3312 1.383 . S
C3318 C3317 1.379 . S
H3319 C3313 0.959 . S
H3320 C3313 0.961 . S
H3321 C3313 0.960 . S
H3322 C3314 0.930 . S
H3323 C3315 0.929 . S
H3324 C3332 0.929 . S
H3325 C3334 0.930 . S
H3326 C3336 0.930 . S
H3327 C3339 0.929 . S
H3328 C3342 0.930 . S
H3329 C3344 0.960 . S
H3330 C3344 0.960 . S
H3331 C3344 0.960 . S
C3332 H3324 0.929 . S
C3332 C3333 1.377 . S
C3332 C3334 1.384 . S
C3333 C3332 1.377 . S
C3333 C3339 1.390 . S
C3334 H3325 0.930 . S
C3334 C3332 1.384 . S
C3334 C3335 1.372 . S
C3335 C3334 1.372 . S
C3335 C3336 1.400 . S
C3335 C3340 1.490 . S
C3336 H3326 0.930 . S
C3336 C3335 1.400 . S
C3336 C3339 1.386 . S
H3337 C3353 0.930 . S
H3338 C3354 0.931 . S
C3339 H3327 0.929 . S
C3339 C3333 1.390 . S
C3339 C3336 1.386 . S
C3340 C3335 1.490 . S
C3340 C3342 1.395 . S
C3340 C3343 1.403 . S
H3341 C3347 0.930 . S
C3342 H3328 0.930 . S
C3342 C3340 1.395 . S
C3342 C3345 1.403 . S
C3343 C3340 1.403 . S
C3343 C3344 1.524 . S
C3343 C3347 1.400 . S
C3344 H3329 0.960 . S
C3344 H3330 0.960 . S
C3344 H3331 0.960 . S
C3344 C3343 1.524 . S
C3345 C3342 1.403 . S
C3345 C3346 1.392 . S
C3345 C3349 1.495 . S
C3346 C3345 1.392 . S
C3346 C3347 1.385 . S
C3346 C3348 1.478 . S
C3347 H3341 0.930 . S
C3347 C3343 1.400 . S
C3347 C3346 1.385 . S
C3348 C3346 1.478 . S
C3348 C3350 1.381 . S
C3348 C3354 1.383 . S
C3349 C3345 1.495 . S
C3349 H3355 0.959 . S
C3349 H3356 0.961 . S
C3349 H3357 0.960 . S
C3350 C3348 1.381 . S
C3350 C3351 1.394 . S
C3350 H3358 0.930 . S
C3351 C3350 1.394 . S
C3351 C3352 1.383 . S
C3351 H3359 0.929 . S
C3352 C3351 1.383 . S
C3352 C3353 1.377 . S
C3353 H3337 0.930 . S
C3353 C3352 1.377 . S
C3353 C3354 1.379 . S
C3354 H3338 0.931 . S
C3354 C3348 1.383 . S
C3354 C3353 1.379 . S
H3355 C3349 0.959 . S
H3356 C3349 0.961 . S
H3357 C3349 0.960 . S
H3358 C3350 0.930 . S
H3359 C3351 0.929 . S
H3360 C3368 0.929 . S
H3361 C3370 0.930 . S
H3362 C3372 0.930 . S
H3363 C3375 0.929 . S
H3364 C3378 0.930 . S
H3365 C3380 0.960 . S
H3366 C3380 0.960 . S
H3367 C3380 0.960 . S
C3368 H3360 0.929 . S
C3368 C3369 1.377 . S
C3368 C3370 1.384 . S
C3369 C3368 1.377 . S
C3369 C3375 1.390 . S
C3370 H3361 0.930 . S
C3370 C3368 1.384 . S
C3370 C3371 1.372 . S
C3371 C3370 1.372 . S
C3371 C3372 1.400 . S
C3371 C3376 1.490 . S
C3372 H3362 0.930 . S
C3372 C3371 1.400 . S
C3372 C3375 1.386 . S
H3373 C3389 0.930 . S
H3374 C3390 0.931 . S
C3375 H3363 0.929 . S
C3375 C3369 1.390 . S
C3375 C3372 1.386 . S
C3376 C3371 1.490 . S
C3376 C3378 1.395 . S
C3376 C3379 1.403 . S
H3377 C3383 0.930 . S
C3378 H3364 0.930 . S
C3378 C3376 1.395 . S
C3378 C3381 1.403 . S
C3379 C3376 1.403 . S
C3379 C3380 1.524 . S
C3379 C3383 1.400 . S
C3380 H3365 0.960 . S
C3380 H3366 0.960 . S
C3380 H3367 0.960 . S
C3380 C3379 1.524 . S
C3381 C3378 1.403 . S
C3381 C3382 1.392 . S
C3381 C3385 1.495 . S
C3382 C3381 1.392 . S
C3382 C3383 1.385 . S
C3382 C3384 1.478 . S
C3383 H3377 0.930 . S
C3383 C3379 1.400 . S
C3383 C3382 1.385 . S
C3384 C3382 1.478 . S
C3384 C3386 1.381 . S
C3384 C3390 1.383 . S
C3385 C3381 1.495 . S
C3385 H3391 0.959 . S
C3385 H3392 0.961 . S
C3385 H3393 0.960 . S
C3386 C3384 1.381 . S
C3386 C3387 1.394 . S
C3386 H3394 0.930 . S
C3387 C3386 1.394 . S
C3387 C3388 1.383 . S
C3387 H3395 0.929 . S
C3388 C3387 1.383 . S
C3388 C3389 1.377 . S
C3389 H3373 0.930 . S
C3389 C3388 1.377 . S
C3389 C3390 1.379 . S
C3390 H3374 0.931 . S
C3390 C3384 1.383 . S
C3390 C3389 1.379 . S
H3391 C3385 0.959 . S
H3392 C3385 0.961 . S
H3393 C3385 0.960 . S
H3394 C3386 0.930 . S
H3395 C3387 0.929 . S
H3396 C3404 0.929 . S
H3397 C3406 0.930 . S
H3398 C3408 0.930 . S
H3399 C3411 0.929 . S
H3400 C3414 0.930 . S
H3401 C3416 0.960 . S
H3402 C3416 0.960 . S
H3403 C3416 0.960 . S
C3404 H3396 0.929 . S
C3404 C3405 1.377 . S
C3404 C3406 1.384 . S
C3405 C3404 1.377 . S
C3405 C3411 1.390 . S
C3406 H3397 0.930 . S
C3406 C3404 1.384 . S
C3406 C3407 1.372 . S
C3407 C3406 1.372 . S
C3407 C3408 1.400 . S
C3407 C3412 1.490 . S
C3408 H3398 0.930 . S
C3408 C3407 1.400 . S
C3408 C3411 1.386 . S
H3409 C3425 0.930 . S
H3410 C3426 0.931 . S
C3411 H3399 0.929 . S
C3411 C3405 1.390 . S
C3411 C3408 1.386 . S
C3412 C3407 1.490 . S
C3412 C3414 1.395 . S
C3412 C3415 1.403 . S
H3413 C3419 0.930 . S
C3414 H3400 0.930 . S
C3414 C3412 1.395 . S
C3414 C3417 1.403 . S
C3415 C3412 1.403 . S
C3415 C3416 1.524 . S
C3415 C3419 1.400 . S
C3416 H3401 0.960 . S
C3416 H3402 0.960 . S
C3416 H3403 0.960 . S
C3416 C3415 1.524 . S
C3417 C3414 1.403 . S
C3417 C3418 1.392 . S
C3417 C3421 1.495 . S
C3418 C3417 1.392 . S
C3418 C3419 1.385 . S
C3418 C3420 1.478 . S
C3419 H3413 0.930 . S
C3419 C3415 1.400 . S
C3419 C3418 1.385 . S
C3420 C3418 1.478 . S
C3420 C3422 1.381 . S
C3420 C3426 1.383 . S
C3421 C3417 1.495 . S
C3421 H3427 0.959 . S
C3421 H3428 0.961 . S
C3421 H3429 0.960 . S
C3422 C3420 1.381 . S
C3422 C3423 1.394 . S
C3422 H3430 0.930 . S
C3423 C3422 1.394 . S
C3423 C3424 1.383 . S
C3423 H3431 0.929 . S
C3424 C3423 1.383 . S
C3424 C3425 1.377 . S
C3425 H3409 0.930 . S
C3425 C3424 1.377 . S
C3425 C3426 1.379 . S
C3426 H3410 0.931 . S
C3426 C3420 1.383 . S
C3426 C3425 1.379 . S
H3427 C3421 0.959 . S
H3428 C3421 0.961 . S
H3429 C3421 0.960 . S
H3430 C3422 0.930 . S
H3431 C3423 0.929 . S
H3432 C3440 0.929 . S
H3433 C3442 0.930 . S
H3434 C3444 0.930 . S
H3435 C3447 0.929 . S
H3436 C3450 0.930 . S
H3437 C3452 0.960 . S
H3438 C3452 0.960 . S
H3439 C3452 0.960 . S
C3440 H3432 0.929 . S
C3440 C3441 1.377 . S
C3440 C3442 1.384 . S
C3441 C3440 1.377 . S
C3441 C3447 1.390 . S
C3442 H3433 0.930 . S
C3442 C3440 1.384 . S
C3442 C3443 1.372 . S
C3443 C3442 1.372 . S
C3443 C3444 1.400 . S
C3443 C3448 1.490 . S
C3444 H3434 0.930 . S
C3444 C3443 1.400 . S
C3444 C3447 1.386 . S
H3445 C3461 0.930 . S
H3446 C3462 0.931 . S
C3447 H3435 0.929 . S
C3447 C3441 1.390 . S
C3447 C3444 1.386 . S
C3448 C3443 1.490 . S
C3448 C3450 1.395 . S
C3448 C3451 1.403 . S
H3449 C3455 0.930 . S
C3450 H3436 0.930 . S
C3450 C3448 1.395 . S
C3450 C3453 1.403 . S
C3451 C3448 1.403 . S
C3451 C3452 1.524 . S
C3451 C3455 1.400 . S
C3452 H3437 0.960 . S
C3452 H3438 0.960 . S
C3452 H3439 0.960 . S
C3452 C3451 1.524 . S
C3453 C3450 1.403 . S
C3453 C3454 1.392 . S
C3453 C3457 1.495 . S
C3454 C3453 1.392 . S
C3454 C3455 1.385 . S
C3454 C3456 1.478 . S
C3455 H3449 0.930 . S
C3455 C3451 1.400 . S
C3455 C3454 1.385 . S
C3456 C3454 1.478 . S
C3456 C3458 1.381 . S
C3456 C3462 1.383 . S
C3457 C3453 1.495 . S
C3457 H3463 0.959 . S
C3457 H3464 0.961 . S
C3457 H3465 0.960 . S
C3458 C3456 1.381 . S
C3458 C3459 1.394 . S
C3458 H3466 0.930 . S
C3459 C3458 1.394 . S
C3459 C3460 1.383 . S
C3459 H3467 0.929 . S
C3460 C3459 1.383 . S
C3460 C3461 1.377 . S
C3461 H3445 0.930 . S
C3461 C3460 1.377 . S
C3461 C3462 1.379 . S
C3462 H3446 0.931 . S
C3462 C3456 1.383 . S
C3462 C3461 1.379 . S
H3463 C3457 0.959 . S
H3464 C3457 0.961 . S
H3465 C3457 0.960 . S
H3466 C3458 0.930 . S
H3467 C3459 0.929 . S
H3468 C3476 0.929 . S
H3469 C3478 0.930 . S
H3470 C3480 0.930 . S
H3471 C3483 0.929 . S
H3472 C3486 0.930 . S
H3473 C3488 0.960 . S
H3474 C3488 0.960 . S
H3475 C3488 0.960 . S
C3476 H3468 0.929 . S
C3476 C3477 1.377 . S
C3476 C3478 1.384 . S
C3477 C3476 1.377 . S
C3477 C3483 1.390 . S
C3478 H3469 0.930 . S
C3478 C3476 1.384 . S
C3478 C3479 1.372 . S
C3479 C3478 1.372 . S
C3479 C3480 1.400 . S
C3479 C3484 1.490 . S
C3480 H3470 0.930 . S
C3480 C3479 1.400 . S
C3480 C3483 1.386 . S
H3481 C3497 0.930 . S
H3482 C3498 0.931 . S
C3483 H3471 0.929 . S
C3483 C3477 1.390 . S
C3483 C3480 1.386 . S
C3484 C3479 1.490 . S
C3484 C3486 1.395 . S
C3484 C3487 1.403 . S
H3485 C3491 0.930 . S
C3486 H3472 0.930 . S
C3486 C3484 1.395 . S
C3486 C3489 1.403 . S
C3487 C3484 1.403 . S
C3487 C3488 1.524 . S
C3487 C3491 1.400 . S
C3488 H3473 0.960 . S
C3488 H3474 0.960 . S
C3488 H3475 0.960 . S
C3488 C3487 1.524 . S
C3489 C3486 1.403 . S
C3489 C3490 1.392 . S
C3489 C3493 1.495 . S
C3490 C3489 1.392 . S
C3490 C3491 1.385 . S
C3490 C3492 1.478 . S
C3491 H3485 0.930 . S
C3491 C3487 1.400 . S
C3491 C3490 1.385 . S
C3492 C3490 1.478 . S
C3492 C3494 1.381 . S
C3492 C3498 1.383 . S
C3493 C3489 1.495 . S
C3493 H3499 0.959 . S
C3493 H3500 0.961 . S
C3493 H3501 0.960 . S
C3494 C3492 1.381 . S
C3494 C3495 1.394 . S
C3494 H3502 0.930 . S
C3495 C3494 1.394 . S
C3495 C3496 1.383 . S
C3495 H3503 0.929 . S
C3496 C3495 1.383 . S
C3496 C3497 1.377 . S
C3497 H3481 0.930 . S
C3497 C3496 1.377 . S
C3497 C3498 1.379 . S
C3498 H3482 0.931 . S
C3498 C3492 1.383 . S
C3498 C3497 1.379 . S
H3499 C3493 0.959 . S
H3500 C3493 0.961 . S
H3501 C3493 0.960 . S
H3502 C3494 0.930 . S
H3503 C3495 0.929 . S
H3504 C3512 0.929 . S
H3505 C3514 0.930 . S
H3506 C3516 0.930 . S
H3507 C3519 0.929 . S
H3508 C3522 0.930 . S
H3509 C3524 0.960 . S
H3510 C3524 0.960 . S
H3511 C3524 0.960 . S
C3512 H3504 0.929 . S
C3512 C3513 1.377 . S
C3512 C3514 1.384 . S
C3513 C3512 1.377 . S
C3513 C3519 1.390 . S
C3514 H3505 0.930 . S
C3514 C3512 1.384 . S
C3514 C3515 1.372 . S
C3515 C3514 1.372 . S
C3515 C3516 1.400 . S
C3515 C3520 1.490 . S
C3516 H3506 0.930 . S
C3516 C3515 1.400 . S
C3516 C3519 1.386 . S
H3517 C3533 0.930 . S
H3518 C3534 0.931 . S
C3519 H3507 0.929 . S
C3519 C3513 1.390 . S
C3519 C3516 1.386 . S
C3520 C3515 1.490 . S
C3520 C3522 1.395 . S
C3520 C3523 1.403 . S
H3521 C3527 0.930 . S
C3522 H3508 0.930 . S
C3522 C3520 1.395 . S
C3522 C3525 1.403 . S
C3523 C3520 1.403 . S
C3523 C3524 1.524 . S
C3523 C3527 1.400 . S
C3524 H3509 0.960 . S
C3524 H3510 0.960 . S
C3524 H3511 0.960 . S
C3524 C3523 1.524 . S
C3525 C3522 1.403 . S
C3525 C3526 1.392 . S
C3525 C3529 1.495 . S
C3526 C3525 1.392 . S
C3526 C3527 1.385 . S
C3526 C3528 1.478 . S
C3527 H3521 0.930 . S
C3527 C3523 1.400 . S
C3527 C3526 1.385 . S
C3528 C3526 1.478 . S
C3528 C3530 1.381 . S
C3528 C3534 1.383 . S
C3529 C3525 1.495 . S
C3529 H3535 0.959 . S
C3529 H3536 0.961 . S
C3529 H3537 0.960 . S
C3530 C3528 1.381 . S
C3530 C3531 1.394 . S
C3530 H3538 0.930 . S
C3531 C3530 1.394 . S
C3531 C3532 1.383 . S
C3531 H3539 0.929 . S
C3532 C3531 1.383 . S
C3532 C3533 1.377 . S
C3533 H3517 0.930 . S
C3533 C3532 1.377 . S
C3533 C3534 1.379 . S
C3534 H3518 0.931 . S
C3534 C3528 1.383 . S
C3534 C3533 1.379 . S
H3535 C3529 0.959 . S
H3536 C3529 0.961 . S
H3537 C3529 0.960 . S
H3538 C3530 0.930 . S
H3539 C3531 0.929 . S
H3540 C3548 0.929 . S
H3541 C3550 0.930 . S
H3542 C3552 0.930 . S
H3543 C3555 0.929 . S
H3544 C3558 0.930 . S
H3545 C3560 0.960 . S
H3546 C3560 0.960 . S
H3547 C3560 0.960 . S
C3548 H3540 0.929 . S
C3548 C3549 1.377 . S
C3548 C3550 1.384 . S
C3549 C3548 1.377 . S
C3549 C3555 1.390 . S
C3550 H3541 0.930 . S
C3550 C3548 1.384 . S
C3550 C3551 1.372 . S
C3551 C3550 1.372 . S
C3551 C3552 1.400 . S
C3551 C3556 1.490 . S
C3552 H3542 0.930 . S
C3552 C3551 1.400 . S
C3552 C3555 1.386 . S
H3553 C3569 0.930 . S
H3554 C3570 0.931 . S
C3555 H3543 0.929 . S
C3555 C3549 1.390 . S
C3555 C3552 1.386 . S
C3556 C3551 1.490 . S
C3556 C3558 1.395 . S
C3556 C3559 1.403 . S
H3557 C3563 0.930 . S
C3558 H3544 0.930 . S
C3558 C3556 1.395 . S
C3558 C3561 1.403 . S
C3559 C3556 1.403 . S
C3559 C3560 1.524 . S
C3559 C3563 1.400 . S
C3560 H3545 0.960 . S
C3560 H3546 0.960 . S
C3560 H3547 0.960 . S
C3560 C3559 1.524 . S
C3561 C3558 1.403 . S
C3561 C3562 1.392 . S
C3561 C3565 1.495 . S
C3562 C3561 1.392 . S
C3562 C3563 1.385 . S
C3562 C3564 1.478 . S
C3563 H3557 0.930 . S
C3563 C3559 1.400 . S
C3563 C3562 1.385 . S
C3564 C3562 1.478 . S
C3564 C3566 1.381 . S
C3564 C3570 1.383 . S
C3565 C3561 1.495 . S
C3565 H3571 0.959 . S
C3565 H3572 0.961 . S
C3565 H3573 0.960 . S
C3566 C3564 1.381 . S
C3566 C3567 1.394 . S
C3566 H3574 0.930 . S
C3567 C3566 1.394 . S
C3567 C3568 1.383 . S
C3567 H3575 0.929 . S
C3568 C3567 1.383 . S
C3568 C3569 1.377 . S
C3569 H3553 0.930 . S
C3569 C3568 1.377 . S
C3569 C3570 1.379 . S
C3570 H3554 0.931 . S
C3570 C3564 1.383 . S
C3570 C3569 1.379 . S
H3571 C3565 0.959 . S
H3572 C3565 0.961 . S
H3573 C3565 0.960 . S
H3574 C3566 0.930 . S
H3575 C3567 0.929 . S
H3576 C3584 0.929 . S
H3577 C3586 0.930 . S
H3578 C3588 0.930 . S
H3579 C3591 0.929 . S
H3580 C3594 0.930 . S
H3581 C3596 0.960 . S
H3582 C3596 0.960 . S
H3583 C3596 0.960 . S
C3584 H3576 0.929 . S
C3584 C3585 1.377 . S
C3584 C3586 1.384 . S
C3585 C3584 1.377 . S
C3585 C3591 1.390 . S
C3586 H3577 0.930 . S
C3586 C3584 1.384 . S
C3586 C3587 1.372 . S
C3587 C3586 1.372 . S
C3587 C3588 1.400 . S
C3587 C3592 1.490 . S
C3588 H3578 0.930 . S
C3588 C3587 1.400 . S
C3588 C3591 1.386 . S
H3589 C3605 0.930 . S
H3590 C3606 0.931 . S
C3591 H3579 0.929 . S
C3591 C3585 1.390 . S
C3591 C3588 1.386 . S
C3592 C3587 1.490 . S
C3592 C3594 1.395 . S
C3592 C3595 1.403 . S
H3593 C3599 0.930 . S
C3594 H3580 0.930 . S
C3594 C3592 1.395 . S
C3594 C3597 1.403 . S
C3595 C3592 1.403 . S
C3595 C3596 1.524 . S
C3595 C3599 1.400 . S
C3596 H3581 0.960 . S
C3596 H3582 0.960 . S
C3596 H3583 0.960 . S
C3596 C3595 1.524 . S
C3597 C3594 1.403 . S
C3597 C3598 1.392 . S
C3597 C3601 1.495 . S
C3598 C3597 1.392 . S
C3598 C3599 1.385 . S
C3598 C3600 1.478 . S
C3599 H3593 0.930 . S
C3599 C3595 1.400 . S
C3599 C3598 1.385 . S
C3600 C3598 1.478 . S
C3600 C3602 1.381 . S
C3600 C3606 1.383 . S
C3601 C3597 1.495 . S
C3601 H3607 0.959 . S
C3601 H3608 0.961 . S
C3601 H3609 0.960 . S
C3602 C3600 1.381 . S
C3602 C3603 1.394 . S
C3602 H3610 0.930 . S
C3603 C3602 1.394 . S
C3603 C3604 1.383 . S
C3603 H3611 0.929 . S
C3604 C3603 1.383 . S
C3604 C3605 1.377 . S
C3605 H3589 0.930 . S
C3605 C3604 1.377 . S
C3605 C3606 1.379 . S
C3606 H3590 0.931 . S
C3606 C3600 1.383 . S
C3606 C3605 1.379 . S
H3607 C3601 0.959 . S
H3608 C3601 0.961 . S
H3609 C3601 0.960 . S
H3610 C3602 0.930 . S
H3611 C3603 0.929 . S
H3612 C3620 0.929 . S
H3613 C3622 0.930 . S
H3614 C3624 0.930 . S
H3615 C3627 0.929 . S
H3616 C3630 0.930 . S
H3617 C3632 0.960 . S
H3618 C3632 0.960 . S
H3619 C3632 0.960 . S
C3620 H3612 0.929 . S
C3620 C3621 1.377 . S
C3620 C3622 1.384 . S
C3621 C3620 1.377 . S
C3621 C3627 1.390 . S
C3622 H3613 0.930 . S
C3622 C3620 1.384 . S
C3622 C3623 1.372 . S
C3623 C3622 1.372 . S
C3623 C3624 1.400 . S
C3623 C3628 1.490 . S
C3624 H3614 0.930 . S
C3624 C3623 1.400 . S
C3624 C3627 1.386 . S
H3625 C3641 0.930 . S
H3626 C3642 0.931 . S
C3627 H3615 0.929 . S
C3627 C3621 1.390 . S
C3627 C3624 1.386 . S
C3628 C3623 1.490 . S
C3628 C3630 1.395 . S
C3628 C3631 1.403 . S
H3629 C3635 0.930 . S
C3630 H3616 0.930 . S
C3630 C3628 1.395 . S
C3630 C3633 1.403 . S
C3631 C3628 1.403 . S
C3631 C3632 1.524 . S
C3631 C3635 1.400 . S
C3632 H3617 0.960 . S
C3632 H3618 0.960 . S
C3632 H3619 0.960 . S
C3632 C3631 1.524 . S
C3633 C3630 1.403 . S
C3633 C3634 1.392 . S
C3633 C3637 1.495 . S
C3634 C3633 1.392 . S
C3634 C3635 1.385 . S
C3634 C3636 1.478 . S
C3635 H3629 0.930 . S
C3635 C3631 1.400 . S
C3635 C3634 1.385 . S
C3636 C3634 1.478 . S
C3636 C3638 1.381 . S
C3636 C3642 1.383 . S
C3637 C3633 1.495 . S
C3637 H3643 0.959 . S
C3637 H3644 0.961 . S
C3637 H3645 0.960 . S
C3638 C3636 1.381 . S
C3638 C3639 1.394 . S
C3638 H3646 0.930 . S
C3639 C3638 1.394 . S
C3639 C3640 1.383 . S
C3639 H3647 0.929 . S
C3640 C3639 1.383 . S
C3640 C3641 1.377 . S
C3641 H3625 0.930 . S
C3641 C3640 1.377 . S
C3641 C3642 1.379 . S
C3642 H3626 0.931 . S
C3642 C3636 1.383 . S
C3642 C3641 1.379 . S
H3643 C3637 0.959 . S
H3644 C3637 0.961 . S
H3645 C3637 0.960 . S
H3646 C3638 0.930 . S
H3647 C3639 0.929 . S
H3648 C3656 0.929 . S
H3649 C3658 0.930 . S
H3650 C3660 0.930 . S
H3651 C3663 0.929 . S
H3652 C3666 0.930 . S
H3653 C3668 0.960 . S
H3654 C3668 0.960 . S
H3655 C3668 0.960 . S
C3656 H3648 0.929 . S
C3656 C3657 1.377 . S
C3656 C3658 1.384 . S
C3657 C3656 1.377 . S
C3657 C3663 1.390 . S
C3658 H3649 0.930 . S
C3658 C3656 1.384 . S
C3658 C3659 1.372 . S
C3659 C3658 1.372 . S
C3659 C3660 1.400 . S
C3659 C3664 1.490 . S
C3660 H3650 0.930 . S
C3660 C3659 1.400 . S
C3660 C3663 1.386 . S
H3661 C3677 0.930 . S
H3662 C3678 0.931 . S
C3663 H3651 0.929 . S
C3663 C3657 1.390 . S
C3663 C3660 1.386 . S
C3664 C3659 1.490 . S
C3664 C3666 1.395 . S
C3664 C3667 1.403 . S
H3665 C3671 0.930 . S
C3666 H3652 0.930 . S
C3666 C3664 1.395 . S
C3666 C3669 1.403 . S
C3667 C3664 1.403 . S
C3667 C3668 1.524 . S
C3667 C3671 1.400 . S
C3668 H3653 0.960 . S
C3668 H3654 0.960 . S
C3668 H3655 0.960 . S
C3668 C3667 1.524 . S
C3669 C3666 1.403 . S
C3669 C3670 1.392 . S
C3669 C3673 1.495 . S
C3670 C3669 1.392 . S
C3670 C3671 1.385 . S
C3670 C3672 1.478 . S
C3671 H3665 0.930 . S
C3671 C3667 1.400 . S
C3671 C3670 1.385 . S
C3672 C3670 1.478 . S
C3672 C3674 1.381 . S
C3672 C3678 1.383 . S
C3673 C3669 1.495 . S
C3673 H3679 0.959 . S
C3673 H3680 0.961 . S
C3673 H3681 0.960 . S
C3674 C3672 1.381 . S
C3674 C3675 1.394 . S
C3674 H3682 0.930 . S
C3675 C3674 1.394 . S
C3675 C3676 1.383 . S
C3675 H3683 0.929 . S
C3676 C3675 1.383 . S
C3676 C3677 1.377 . S
C3677 H3661 0.930 . S
C3677 C3676 1.377 . S
C3677 C3678 1.379 . S
C3678 H3662 0.931 . S
C3678 C3672 1.383 . S
C3678 C3677 1.379 . S
H3679 C3673 0.959 . S
H3680 C3673 0.961 . S
H3681 C3673 0.960 . S
H3682 C3674 0.930 . S
H3683 C3675 0.929 . S
H3684 C3692 0.929 . S
H3685 C3694 0.930 . S
H3686 C3696 0.930 . S
H3687 C3699 0.929 . S
H3688 C3702 0.930 . S
H3689 C3704 0.960 . S
H3690 C3704 0.960 . S
H3691 C3704 0.960 . S
C3692 H3684 0.929 . S
C3692 C3693 1.377 . S
C3692 C3694 1.384 . S
C3693 C3692 1.377 . S
C3693 C3699 1.390 . S
C3694 H3685 0.930 . S
C3694 C3692 1.384 . S
C3694 C3695 1.372 . S
C3695 C3694 1.372 . S
C3695 C3696 1.400 . S
C3695 C3700 1.490 . S
C3696 H3686 0.930 . S
C3696 C3695 1.400 . S
C3696 C3699 1.386 . S
H3697 C3713 0.930 . S
H3698 C3714 0.931 . S
C3699 H3687 0.929 . S
C3699 C3693 1.390 . S
C3699 C3696 1.386 . S
C3700 C3695 1.490 . S
C3700 C3702 1.395 . S
C3700 C3703 1.403 . S
H3701 C3707 0.930 . S
C3702 H3688 0.930 . S
C3702 C3700 1.395 . S
C3702 C3705 1.403 . S
C3703 C3700 1.403 . S
C3703 C3704 1.524 . S
C3703 C3707 1.400 . S
C3704 H3689 0.960 . S
C3704 H3690 0.960 . S
C3704 H3691 0.960 . S
C3704 C3703 1.524 . S
C3705 C3702 1.403 . S
C3705 C3706 1.392 . S
C3705 C3709 1.495 . S
C3706 C3705 1.392 . S
C3706 C3707 1.385 . S
C3706 C3708 1.478 . S
C3707 H3701 0.930 . S
C3707 C3703 1.400 . S
C3707 C3706 1.385 . S
C3708 C3706 1.478 . S
C3708 C3710 1.381 . S
C3708 C3714 1.383 . S
C3709 C3705 1.495 . S
C3709 H3715 0.959 . S
C3709 H3716 0.961 . S
C3709 H3717 0.960 . S
C3710 C3708 1.381 . S
C3710 C3711 1.394 . S
C3710 H3718 0.930 . S
C3711 C3710 1.394 . S
C3711 C3712 1.383 . S
C3711 H3719 0.929 . S
C3712 C3711 1.383 . S
C3712 C3713 1.377 . S
C3713 H3697 0.930 . S
C3713 C3712 1.377 . S
C3713 C3714 1.379 . S
C3714 H3698 0.931 . S
C3714 C3708 1.383 . S
C3714 C3713 1.379 . S
H3715 C3709 0.959 . S
H3716 C3709 0.961 . S
H3717 C3709 0.960 . S
H3718 C3710 0.930 . S
H3719 C3711 0.929 . S
H3720 C3728 0.929 . S
H3721 C3730 0.930 . S
H3722 C3732 0.930 . S
H3723 C3735 0.929 . S
H3724 C3738 0.930 . S
H3725 C3740 0.960 . S
H3726 C3740 0.960 . S
H3727 C3740 0.960 . S
C3728 H3720 0.929 . S
C3728 C3729 1.377 . S
C3728 C3730 1.384 . S
C3729 C3728 1.377 . S
C3729 C3735 1.390 . S
C3730 H3721 0.930 . S
C3730 C3728 1.384 . S
C3730 C3731 1.372 . S
C3731 C3730 1.372 . S
C3731 C3732 1.400 . S
C3731 C3736 1.490 . S
C3732 H3722 0.930 . S
C3732 C3731 1.400 . S
C3732 C3735 1.386 . S
H3733 C3749 0.930 . S
H3734 C3750 0.931 . S
C3735 H3723 0.929 . S
C3735 C3729 1.390 . S
C3735 C3732 1.386 . S
C3736 C3731 1.490 . S
C3736 C3738 1.395 . S
C3736 C3739 1.403 . S
H3737 C3743 0.930 . S
C3738 H3724 0.930 . S
C3738 C3736 1.395 . S
C3738 C3741 1.403 . S
C3739 C3736 1.403 . S
C3739 C3740 1.524 . S
C3739 C3743 1.400 . S
C3740 H3725 0.960 . S
C3740 H3726 0.960 . S
C3740 H3727 0.960 . S
C3740 C3739 1.524 . S
C3741 C3738 1.403 . S
C3741 C3742 1.392 . S
C3741 C3745 1.495 . S
C3742 C3741 1.392 . S
C3742 C3743 1.385 . S
C3742 C3744 1.478 . S
C3743 H3737 0.930 . S
C3743 C3739 1.400 . S
C3743 C3742 1.385 . S
C3744 C3742 1.478 . S
C3744 C3746 1.381 . S
C3744 C3750 1.383 . S
C3745 C3741 1.495 . S
C3745 H3751 0.959 . S
C3745 H3752 0.961 . S
C3745 H3753 0.960 . S
C3746 C3744 1.381 . S
C3746 C3747 1.394 . S
C3746 H3754 0.930 . S
C3747 C3746 1.394 . S
C3747 C3748 1.383 . S
C3747 H3755 0.929 . S
C3748 C3747 1.383 . S
C3748 C3749 1.377 . S
C3749 H3733 0.930 . S
C3749 C3748 1.377 . S
C3749 C3750 1.379 . S
C3750 H3734 0.931 . S
C3750 C3744 1.383 . S
C3750 C3749 1.379 . S
H3751 C3745 0.959 . S
H3752 C3745 0.961 . S
H3753 C3745 0.960 . S
H3754 C3746 0.930 . S
H3755 C3747 0.929 . S
H3756 C3764 0.929 . S
H3757 C3766 0.930 . S
H3758 C3768 0.930 . S
H3759 C3771 0.929 . S
H3760 C3774 0.930 . S
H3761 C3776 0.960 . S
H3762 C3776 0.960 . S
H3763 C3776 0.960 . S
C3764 H3756 0.929 . S
C3764 C3765 1.377 . S
C3764 C3766 1.384 . S
C3765 C3764 1.377 . S
C3765 C3771 1.390 . S
C3766 H3757 0.930 . S
C3766 C3764 1.384 . S
C3766 C3767 1.372 . S
C3767 C3766 1.372 . S
C3767 C3768 1.400 . S
C3767 C3772 1.490 . S
C3768 H3758 0.930 . S
C3768 C3767 1.400 . S
C3768 C3771 1.386 . S
H3769 C3785 0.930 . S
H3770 C3786 0.931 . S
C3771 H3759 0.929 . S
C3771 C3765 1.390 . S
C3771 C3768 1.386 . S
C3772 C3767 1.490 . S
C3772 C3774 1.395 . S
C3772 C3775 1.403 . S
H3773 C3779 0.930 . S
C3774 H3760 0.930 . S
C3774 C3772 1.395 . S
C3774 C3777 1.403 . S
C3775 C3772 1.403 . S
C3775 C3776 1.524 . S
C3775 C3779 1.400 . S
C3776 H3761 0.960 . S
C3776 H3762 0.960 . S
C3776 H3763 0.960 . S
C3776 C3775 1.524 . S
C3777 C3774 1.403 . S
C3777 C3778 1.392 . S
C3777 C3781 1.495 . S
C3778 C3777 1.392 . S
C3778 C3779 1.385 . S
C3778 C3780 1.478 . S
C3779 H3773 0.930 . S
C3779 C3775 1.400 . S
C3779 C3778 1.385 . S
C3780 C3778 1.478 . S
C3780 C3782 1.381 . S
C3780 C3786 1.383 . S
C3781 C3777 1.495 . S
C3781 H3787 0.959 . S
C3781 H3788 0.961 . S
C3781 H3789 0.960 . S
C3782 C3780 1.381 . S
C3782 C3783 1.394 . S
C3782 H3790 0.930 . S
C3783 C3782 1.394 . S
C3783 C3784 1.383 . S
C3783 H3791 0.929 . S
C3784 C3783 1.383 . S
C3784 C3785 1.377 . S
C3785 H3769 0.930 . S
C3785 C3784 1.377 . S
C3785 C3786 1.379 . S
C3786 H3770 0.931 . S
C3786 C3780 1.383 . S
C3786 C3785 1.379 . S
H3787 C3781 0.959 . S
H3788 C3781 0.961 . S
H3789 C3781 0.960 . S
H3790 C3782 0.930 . S
H3791 C3783 0.929 . S
H3792 C3800 0.929 . S
H3793 C3802 0.930 . S
H3794 C3804 0.930 . S
H3795 C3807 0.929 . S
H3796 C3810 0.930 . S
H3797 C3812 0.960 . S
H3798 C3812 0.960 . S
H3799 C3812 0.960 . S
C3800 H3792 0.929 . S
C3800 C3801 1.377 . S
C3800 C3802 1.384 . S
C3801 C3800 1.377 . S
C3801 C3807 1.390 . S
C3802 H3793 0.930 . S
C3802 C3800 1.384 . S
C3802 C3803 1.372 . S
C3803 C3802 1.372 . S
C3803 C3804 1.400 . S
C3803 C3808 1.490 . S
C3804 H3794 0.930 . S
C3804 C3803 1.400 . S
C3804 C3807 1.386 . S
H3805 C3821 0.930 . S
H3806 C3822 0.931 . S
C3807 H3795 0.929 . S
C3807 C3801 1.390 . S
C3807 C3804 1.386 . S
C3808 C3803 1.490 . S
C3808 C3810 1.395 . S
C3808 C3811 1.403 . S
H3809 C3815 0.930 . S
C3810 H3796 0.930 . S
C3810 C3808 1.395 . S
C3810 C3813 1.403 . S
C3811 C3808 1.403 . S
C3811 C3812 1.524 . S
C3811 C3815 1.400 . S
C3812 H3797 0.960 . S
C3812 H3798 0.960 . S
C3812 H3799 0.960 . S
C3812 C3811 1.524 . S
C3813 C3810 1.403 . S
C3813 C3814 1.392 . S
C3813 C3817 1.495 . S
C3814 C3813 1.392 . S
C3814 C3815 1.385 . S
C3814 C3816 1.478 . S
C3815 H3809 0.930 . S
C3815 C3811 1.400 . S
C3815 C3814 1.385 . S
C3816 C3814 1.478 . S
C3816 C3818 1.381 . S
C3816 C3822 1.383 . S
C3817 C3813 1.495 . S
C3817 H3823 0.959 . S
C3817 H3824 0.961 . S
C3817 H3825 0.960 . S
C3818 C3816 1.381 . S
C3818 C3819 1.394 . S
C3818 H3826 0.930 . S
C3819 C3818 1.394 . S
C3819 C3820 1.383 . S
C3819 H3827 0.929 . S
C3820 C3819 1.383 . S
C3820 C3821 1.377 . S
C3821 H3805 0.930 . S
C3821 C3820 1.377 . S
C3821 C3822 1.379 . S
C3822 H3806 0.931 . S
C3822 C3816 1.383 . S
C3822 C3821 1.379 . S
H3823 C3817 0.959 . S
H3824 C3817 0.961 . S
H3825 C3817 0.960 . S
H3826 C3818 0.930 . S
H3827 C3819 0.929 . S
H3828 C3836 0.929 . S
H3829 C3838 0.930 . S
H3830 C3840 0.930 . S
H3831 C3843 0.929 . S
H3832 C3846 0.930 . S
H3833 C3848 0.960 . S
H3834 C3848 0.960 . S
H3835 C3848 0.960 . S
C3836 H3828 0.929 . S
C3836 C3837 1.377 . S
C3836 C3838 1.384 . S
C3837 C3836 1.377 . S
C3837 C3843 1.390 . S
C3838 H3829 0.930 . S
C3838 C3836 1.384 . S
C3838 C3839 1.372 . S
C3839 C3838 1.372 . S
C3839 C3840 1.400 . S
C3839 C3844 1.490 . S
C3840 H3830 0.930 . S
C3840 C3839 1.400 . S
C3840 C3843 1.386 . S
H3841 C3857 0.930 . S
H3842 C3858 0.931 . S
C3843 H3831 0.929 . S
C3843 C3837 1.390 . S
C3843 C3840 1.386 . S
C3844 C3839 1.490 . S
C3844 C3846 1.395 . S
C3844 C3847 1.403 . S
H3845 C3851 0.930 . S
C3846 H3832 0.930 . S
C3846 C3844 1.395 . S
C3846 C3849 1.403 . S
C3847 C3844 1.403 . S
C3847 C3848 1.524 . S
C3847 C3851 1.400 . S
C3848 H3833 0.960 . S
C3848 H3834 0.960 . S
C3848 H3835 0.960 . S
C3848 C3847 1.524 . S
C3849 C3846 1.403 . S
C3849 C3850 1.392 . S
C3849 C3853 1.495 . S
C3850 C3849 1.392 . S
C3850 C3851 1.385 . S
C3850 C3852 1.478 . S
C3851 H3845 0.930 . S
C3851 C3847 1.400 . S
C3851 C3850 1.385 . S
C3852 C3850 1.478 . S
C3852 C3854 1.381 . S
C3852 C3858 1.383 . S
C3853 C3849 1.495 . S
C3853 H3859 0.959 . S
C3853 H3860 0.961 . S
C3853 H3861 0.960 . S
C3854 C3852 1.381 . S
C3854 C3855 1.394 . S
C3854 H3862 0.930 . S
C3855 C3854 1.394 . S
C3855 C3856 1.383 . S
C3855 H3863 0.929 . S
C3856 C3855 1.383 . S
C3856 C3857 1.377 . S
C3857 H3841 0.930 . S
C3857 C3856 1.377 . S
C3857 C3858 1.379 . S
C3858 H3842 0.931 . S
C3858 C3852 1.383 . S
C3858 C3857 1.379 . S
H3859 C3853 0.959 . S
H3860 C3853 0.961 . S
H3861 C3853 0.960 . S
H3862 C3854 0.930 . S
H3863 C3855 0.929 . S
H3864 C3872 0.929 . S
H3865 C3874 0.930 . S
H3866 C3876 0.930 . S
H3867 C3879 0.929 . S
H3868 C3882 0.930 . S
H3869 C3884 0.960 . S
H3870 C3884 0.960 . S
H3871 C3884 0.960 . S
C3872 H3864 0.929 . S
C3872 C3873 1.377 . S
C3872 C3874 1.384 . S
C3873 C3872 1.377 . S
C3873 C3879 1.390 . S
C3874 H3865 0.930 . S
C3874 C3872 1.384 . S
C3874 C3875 1.372 . S
C3875 C3874 1.372 . S
C3875 C3876 1.400 . S
C3875 C3880 1.490 . S
C3876 H3866 0.930 . S
C3876 C3875 1.400 . S
C3876 C3879 1.386 . S
H3877 C3893 0.930 . S
H3878 C3894 0.931 . S
C3879 H3867 0.929 . S
C3879 C3873 1.390 . S
C3879 C3876 1.386 . S
C3880 C3875 1.490 . S
C3880 C3882 1.395 . S
C3880 C3883 1.403 . S
H3881 C3887 0.930 . S
C3882 H3868 0.930 . S
C3882 C3880 1.395 . S
C3882 C3885 1.403 . S
C3883 C3880 1.403 . S
C3883 C3884 1.524 . S
C3883 C3887 1.400 . S
C3884 H3869 0.960 . S
C3884 H3870 0.960 . S
C3884 H3871 0.960 . S
C3884 C3883 1.524 . S
C3885 C3882 1.403 . S
C3885 C3886 1.392 . S
C3885 C3889 1.495 . S
C3886 C3885 1.392 . S
C3886 C3887 1.385 . S
C3886 C3888 1.478 . S
C3887 H3881 0.930 . S
C3887 C3883 1.400 . S
C3887 C3886 1.385 . S
C3888 C3886 1.478 . S
C3888 C3890 1.381 . S
C3888 C3894 1.383 . S
C3889 C3885 1.495 . S
C3889 H3895 0.959 . S
C3889 H3896 0.961 . S
C3889 H3897 0.960 . S
C3890 C3888 1.381 . S
C3890 C3891 1.394 . S
C3890 H3898 0.930 . S
C3891 C3890 1.394 . S
C3891 C3892 1.383 . S
C3891 H3899 0.929 . S
C3892 C3891 1.383 . S
C3892 C3893 1.377 . S
C3893 H3877 0.930 . S
C3893 C3892 1.377 . S
C3893 C3894 1.379 . S
C3894 H3878 0.931 . S
C3894 C3888 1.383 . S
C3894 C3893 1.379 . S
H3895 C3889 0.959 . S
H3896 C3889 0.961 . S
H3897 C3889 0.960 . S
H3898 C3890 0.930 . S
H3899 C3891 0.929 . S
H3900 C3908 0.929 . S
H3901 C3910 0.930 . S
H3902 C3912 0.930 . S
H3903 C3915 0.929 . S
H3904 C3918 0.930 . S
H3905 C3920 0.960 . S
H3906 C3920 0.960 . S
H3907 C3920 0.960 . S
C3908 H3900 0.929 . S
C3908 C3909 1.377 . S
C3908 C3910 1.384 . S
C3909 C3908 1.377 . S
C3909 C3915 1.390 . S
C3910 H3901 0.930 . S
C3910 C3908 1.384 . S
C3910 C3911 1.372 . S
C3911 C3910 1.372 . S
C3911 C3912 1.400 . S
C3911 C3916 1.490 . S
C3912 H3902 0.930 . S
C3912 C3911 1.400 . S
C3912 C3915 1.386 . S
H3913 C3929 0.930 . S
H3914 C3930 0.931 . S
C3915 H3903 0.929 . S
C3915 C3909 1.390 . S
C3915 C3912 1.386 . S
C3916 C3911 1.490 . S
C3916 C3918 1.395 . S
C3916 C3919 1.403 . S
H3917 C3923 0.930 . S
C3918 H3904 0.930 . S
C3918 C3916 1.395 . S
C3918 C3921 1.403 . S
C3919 C3916 1.403 . S
C3919 C3920 1.524 . S
C3919 C3923 1.400 . S
C3920 H3905 0.960 . S
C3920 H3906 0.960 . S
C3920 H3907 0.960 . S
C3920 C3919 1.524 . S
C3921 C3918 1.403 . S
C3921 C3922 1.392 . S
C3921 C3925 1.495 . S
C3922 C3921 1.392 . S
C3922 C3923 1.385 . S
C3922 C3924 1.478 . S
C3923 H3917 0.930 . S
C3923 C3919 1.400 . S
C3923 C3922 1.385 . S
C3924 C3922 1.478 . S
C3924 C3926 1.381 . S
C3924 C3930 1.383 . S
C3925 C3921 1.495 . S
C3925 H3931 0.959 . S
C3925 H3932 0.961 . S
C3925 H3933 0.960 . S
C3926 C3924 1.381 . S
C3926 C3927 1.394 . S
C3926 H3934 0.930 . S
C3927 C3926 1.394 . S
C3927 C3928 1.383 . S
C3927 H3935 0.929 . S
C3928 C3927 1.383 . S
C3928 C3929 1.377 . S
C3929 H3913 0.930 . S
C3929 C3928 1.377 . S
C3929 C3930 1.379 . S
C3930 H3914 0.931 . S
C3930 C3924 1.383 . S
C3930 C3929 1.379 . S
H3931 C3925 0.959 . S
H3932 C3925 0.961 . S
H3933 C3925 0.960 . S
H3934 C3926 0.930 . S
H3935 C3927 0.929 . S
H3936 C3944 0.929 . S
H3937 C3946 0.930 . S
H3938 C3948 0.930 . S
H3939 C3951 0.929 . S
H3940 C3954 0.930 . S
H3941 C3956 0.960 . S
H3942 C3956 0.960 . S
H3943 C3956 0.960 . S
C3944 H3936 0.929 . S
C3944 C3945 1.377 . S
C3944 C3946 1.384 . S
C3945 C3944 1.377 . S
C3945 C3951 1.390 . S
C3946 H3937 0.930 . S
C3946 C3944 1.384 . S
C3946 C3947 1.372 . S
C3947 C3946 1.372 . S
C3947 C3948 1.400 . S
C3947 C3952 1.490 . S
C3948 H3938 0.930 . S
C3948 C3947 1.400 . S
C3948 C3951 1.386 . S
H3949 C3965 0.930 . S
H3950 C3966 0.931 . S
C3951 H3939 0.929 . S
C3951 C3945 1.390 . S
C3951 C3948 1.386 . S
C3952 C3947 1.490 . S
C3952 C3954 1.395 . S
C3952 C3955 1.403 . S
H3953 C3959 0.930 . S
C3954 H3940 0.930 . S
C3954 C3952 1.395 . S
C3954 C3957 1.403 . S
C3955 C3952 1.403 . S
C3955 C3956 1.524 . S
C3955 C3959 1.400 . S
C3956 H3941 0.960 . S
C3956 H3942 0.960 . S
C3956 H3943 0.960 . S
C3956 C3955 1.524 . S
C3957 C3954 1.403 . S
C3957 C3958 1.392 . S
C3957 C3961 1.495 . S
C3958 C3957 1.392 . S
C3958 C3959 1.385 . S
C3958 C3960 1.478 . S
C3959 H3953 0.930 . S
C3959 C3955 1.400 . S
C3959 C3958 1.385 . S
C3960 C3958 1.478 . S
C3960 C3962 1.381 . S
C3960 C3966 1.383 . S
C3961 C3957 1.495 . S
C3961 H3967 0.959 . S
C3961 H3968 0.961 . S
C3961 H3969 0.960 . S
C3962 C3960 1.381 . S
C3962 C3963 1.394 . S
C3962 H3970 0.930 . S
C3963 C3962 1.394 . S
C3963 C3964 1.383 . S
C3963 H3971 0.929 . S
C3964 C3963 1.383 . S
C3964 C3965 1.377 . S
C3965 H3949 0.930 . S
C3965 C3964 1.377 . S
C3965 C3966 1.379 . S
C3966 H3950 0.931 . S
C3966 C3960 1.383 . S
C3966 C3965 1.379 . S
H3967 C3961 0.959 . S
H3968 C3961 0.961 . S
H3969 C3961 0.960 . S
H3970 C3962 0.930 . S
H3971 C3963 0.929 . S
H3972 C3980 0.929 . S
H3973 C3982 0.930 . S
H3974 C3984 0.930 . S
H3975 C3987 0.929 . S
H3976 C3990 0.930 . S
H3977 C3992 0.960 . S
H3978 C3992 0.960 . S
H3979 C3992 0.960 . S
C3980 H3972 0.929 . S
C3980 C3981 1.377 . S
C3980 C3982 1.384 . S
C3981 C3980 1.377 . S
C3981 C3987 1.390 . S
C3982 H3973 0.930 . S
C3982 C3980 1.384 . S
C3982 C3983 1.372 . S
C3983 C3982 1.372 . S
C3983 C3984 1.400 . S
C3983 C3988 1.490 . S
C3984 H3974 0.930 . S
C3984 C3983 1.400 . S
C3984 C3987 1.386 . S
H3985 C4001 0.930 . S
H3986 C4002 0.931 . S
C3987 H3975 0.929 . S
C3987 C3981 1.390 . S
C3987 C3984 1.386 . S
C3988 C3983 1.490 . S
C3988 C3990 1.395 . S
C3988 C3991 1.403 . S
H3989 C3995 0.930 . S
C3990 H3976 0.930 . S
C3990 C3988 1.395 . S
C3990 C3993 1.403 . S
C3991 C3988 1.403 . S
C3991 C3992 1.524 . S
C3991 C3995 1.400 . S
C3992 H3977 0.960 . S
C3992 H3978 0.960 . S
C3992 H3979 0.960 . S
C3992 C3991 1.524 . S
C3993 C3990 1.403 . S
C3993 C3994 1.392 . S
C3993 C3997 1.495 . S
C3994 C3993 1.392 . S
C3994 C3995 1.385 . S
C3994 C3996 1.478 . S
C3995 H3989 0.930 . S
C3995 C3991 1.400 . S
C3995 C3994 1.385 . S
C3996 C3994 1.478 . S
C3996 C3998 1.381 . S
C3996 C4002 1.383 . S
C3997 C3993 1.495 . S
C3997 H4003 0.959 . S
C3997 H4004 0.961 . S
C3997 H4005 0.960 . S
C3998 C3996 1.381 . S
C3998 C3999 1.394 . S
C3998 H4006 0.930 . S
C3999 C3998 1.394 . S
C3999 C4000 1.383 . S
C3999 H4007 0.929 . S
C4000 C3999 1.383 . S
C4000 C4001 1.377 . S
C4001 H3985 0.930 . S
C4001 C4000 1.377 . S
C4001 C4002 1.379 . S
C4002 H3986 0.931 . S
C4002 C3996 1.383 . S
C4002 C4001 1.379 . S
H4003 C3997 0.959 . S
H4004 C3997 0.961 . S
H4005 C3997 0.960 . S
H4006 C3998 0.930 . S
H4007 C3999 0.929 . S
H4008 C4016 0.929 . S
H4009 C4018 0.930 . S
H4010 C4020 0.930 . S
H4011 C4023 0.929 . S
H4012 C4026 0.930 . S
H4013 C4028 0.960 . S
H4014 C4028 0.960 . S
H4015 C4028 0.960 . S
C4016 H4008 0.929 . S
C4016 C4017 1.377 . S
C4016 C4018 1.384 . S
C4017 C4016 1.377 . S
C4017 C4023 1.390 . S
C4018 H4009 0.930 . S
C4018 C4016 1.384 . S
C4018 C4019 1.372 . S
C4019 C4018 1.372 . S
C4019 C4020 1.400 . S
C4019 C4024 1.490 . S
C4020 H4010 0.930 . S
C4020 C4019 1.400 . S
C4020 C4023 1.386 . S
H4021 C4037 0.930 . S
H4022 C4038 0.931 . S
C4023 H4011 0.929 . S
C4023 C4017 1.390 . S
C4023 C4020 1.386 . S
C4024 C4019 1.490 . S
C4024 C4026 1.395 . S
C4024 C4027 1.403 . S
H4025 C4031 0.930 . S
C4026 H4012 0.930 . S
C4026 C4024 1.395 . S
C4026 C4029 1.403 . S
C4027 C4024 1.403 . S
C4027 C4028 1.524 . S
C4027 C4031 1.400 . S
C4028 H4013 0.960 . S
C4028 H4014 0.960 . S
C4028 H4015 0.960 . S
C4028 C4027 1.524 . S
C4029 C4026 1.403 . S
C4029 C4030 1.392 . S
C4029 C4033 1.495 . S
C4030 C4029 1.392 . S
C4030 C4031 1.385 . S
C4030 C4032 1.478 . S
C4031 H4025 0.930 . S
C4031 C4027 1.400 . S
C4031 C4030 1.385 . S
C4032 C4030 1.478 . S
C4032 C4034 1.381 . S
C4032 C4038 1.383 . S
C4033 C4029 1.495 . S
C4033 H4039 0.959 . S
C4033 H4040 0.961 . S
C4033 H4041 0.960 . S
C4034 C4032 1.381 . S
C4034 C4035 1.394 . S
C4034 H4042 0.930 . S
C4035 C4034 1.394 . S
C4035 C4036 1.383 . S
C4035 H4043 0.929 . S
C4036 C4035 1.383 . S
C4036 C4037 1.377 . S
C4037 H4021 0.930 . S
C4037 C4036 1.377 . S
C4037 C4038 1.379 . S
C4038 H4022 0.931 . S
C4038 C4032 1.383 . S
C4038 C4037 1.379 . S
H4039 C4033 0.959 . S
H4040 C4033 0.961 . S
H4041 C4033 0.960 . S
H4042 C4034 0.930 . S
H4043 C4035 0.929 . S
H4044 C4052 0.929 . S
H4045 C4054 0.930 . S
H4046 C4056 0.930 . S
H4047 C4059 0.929 . S
H4048 C4062 0.930 . S
H4049 C4064 0.960 . S
H4050 C4064 0.960 . S
H4051 C4064 0.960 . S
C4052 H4044 0.929 . S
C4052 C4053 1.377 . S
C4052 C4054 1.384 . S
C4053 C4052 1.377 . S
C4053 C4059 1.390 . S
C4054 H4045 0.930 . S
C4054 C4052 1.384 . S
C4054 C4055 1.372 . S
C4055 C4054 1.372 . S
C4055 C4056 1.400 . S
C4055 C4060 1.490 . S
C4056 H4046 0.930 . S
C4056 C4055 1.400 . S
C4056 C4059 1.386 . S
H4057 C4073 0.930 . S
H4058 C4074 0.931 . S
C4059 H4047 0.929 . S
C4059 C4053 1.390 . S
C4059 C4056 1.386 . S
C4060 C4055 1.490 . S
C4060 C4062 1.395 . S
C4060 C4063 1.403 . S
H4061 C4067 0.930 . S
C4062 H4048 0.930 . S
C4062 C4060 1.395 . S
C4062 C4065 1.403 . S
C4063 C4060 1.403 . S
C4063 C4064 1.524 . S
C4063 C4067 1.400 . S
C4064 H4049 0.960 . S
C4064 H4050 0.960 . S
C4064 H4051 0.960 . S
C4064 C4063 1.524 . S
C4065 C4062 1.403 . S
C4065 C4066 1.392 . S
C4065 C4069 1.495 . S
C4066 C4065 1.392 . S
C4066 C4067 1.385 . S
C4066 C4068 1.478 . S
C4067 H4061 0.930 . S
C4067 C4063 1.400 . S
C4067 C4066 1.385 . S
C4068 C4066 1.478 . S
C4068 C4070 1.381 . S
C4068 C4074 1.383 . S
C4069 C4065 1.495 . S
C4069 H4075 0.959 . S
C4069 H4076 0.961 . S
C4069 H4077 0.960 . S
C4070 C4068 1.381 . S
C4070 C4071 1.394 . S
C4070 H4078 0.930 . S
C4071 C4070 1.394 . S
C4071 C4072 1.383 . S
C4071 H4079 0.929 . S
C4072 C4071 1.383 . S
C4072 C4073 1.377 . S
C4073 H4057 0.930 . S
C4073 C4072 1.377 . S
C4073 C4074 1.379 . S
C4074 H4058 0.931 . S
C4074 C4068 1.383 . S
C4074 C4073 1.379 . S
H4075 C4069 0.959 . S
H4076 C4069 0.961 . S
H4077 C4069 0.960 . S
H4078 C4070 0.930 . S
H4079 C4071 0.929 . S
C633 C403 1.192 . S
C652 C10 1.239 . S
C669 C13 1.202 . S
C688 C374 1.240 . S
C705 C36 1.242 . S
C724 C377 1.185 . S
C741 C400 1.243 . S
C760 C39 1.227 . S
C777 C325 1.202 . S
C796 C62 1.241 . S
C813 C65 1.189 . S
C832 C348 1.241 . S
C849 C351 1.189 . S
C868 C88 1.239 . S
C885 C91 1.200 . S
C904 C322 1.239 . S
C921 C104 0.856 . S
C940 C572 0.904 . S
C957 C533 1.194 . S
C976 C127 1.242 . S
C993 C546 0.870 . S
C1012 C130 0.832 . S
C1029 C153 1.242 . S
C1048 C559 1.201 . S
C1065 C156 0.872 . S
C1084 C611 0.837 . S
C1101 C179 1.242 . S
C1120 C585 1.171 . S
C1137 C182 0.863 . S
C1156 C598 0.883 . S
C1173 C520 1.203 . S
C1192 C205 1.240 . S
C1209 C517 1.243 . S
C1228 C208 1.192 . S
C1245 C221 1.198 . S
C1264 C439 1.238 . S
C1281 C442 0.856 . S
C1300 C234 0.907 . S
C1317 C247 1.190 . S
C1336 C465 1.241 . S
C1353 C416 0.870 . S
C1372 C260 0.833 . S
C1389 C491 1.243 . S
C1408 C273 1.226 . S
C1425 C286 0.856 . S
C1444 C494 0.908 . S
C1461 C468 0.857 . S
C1480 C299 0.906 . S
C1497 C122 1.025 . S
C1516 C5 0.988 . S
C1533 C138 1.243 . S
C1552 C21 1.252 . S
C1569 C31 1.014 . S
C1588 C148 1.053 . S
C1605 C112 1.233 . S
C1624 C47 1.213 . S
C1641 C57 1.019 . S
C1660 C200 1.012 . S
C1677 C164 1.241 . S
C1696 C73 1.227 . S
C1713 C174 1.023 . S
C1732 C83 1.026 . S
C1749 C190 1.234 . S
C1768 C99 1.211 . S
C1785 C242 1.243 . S
C1804 C216 1.260 . S
C1821 C294 1.241 . S
C1840 C229 1.227 . S
C1857 C307 1.244 . S
C1876 C255 1.249 . S
C1893 C268 1.232 . S
C1912 C281 1.218 . S
C1929 C434 1.027 . S
C1948 C317 0.999 . S
C1965 C450 1.244 . S
C1984 C333 1.250 . S
C2001 C460 1.021 . S
C2020 C343 1.002 . S
C2037 C359 1.235 . S
C2056 C424 1.230 . S
C2073 C369 1.018 . S
C2092 C512 1.044 . S
C2109 C385 1.235 . S
C2128 C476 1.228 . S
C2145 C486 1.021 . S
C2164 C395 1.033 . S
C2181 C502 1.243 . S
C2200 C411 1.239 . S
C2217 C528 1.236 . S
C2236 C554 1.240 . S
C2253 C606 1.243 . S
C2272 C541 1.242 . S
C2289 C619 1.235 . S
C2308 C567 1.253 . S
C2325 C593 1.234 . S
C2344 C580 1.223 . S
C2361 C0 1.055 . S
C2380 C239 1.134 . S
C2397 C23 1.313 . S
C2416 C252 1.205 . S
C2433 C26 1.060 . S
C2452 C265 1.068 . S
C2469 C226 1.225 . S
C2488 C49 1.309 . S
C2505 C52 1.060 . S
C2524 C291 1.122 . S
C2541 C75 1.313 . S
C2560 C213 1.267 . S
C2577 C304 1.090 . S
C2596 C78 1.016 . S
C2613 C278 1.228 . S
C2632 C101 1.312 . S
C2649 C114 1.192 . S
C2668 C125 1.134 . S
C2685 C117 1.047 . S
C2704 C135 1.086 . S
C2721 C140 1.194 . S
C2740 C151 1.175 . S
C2757 C109 1.083 . S
C2776 C143 1.028 . S
C2793 C203 1.138 . S
C2812 C166 1.189 . S
C2829 C161 1.085 . S
C2848 C169 1.022 . S
C2865 C177 1.139 . S
C2884 C192 1.190 . S
C2901 C195 1.049 . S
C2920 C187 1.114 . S
C2937 C44 1.238 . S
C2956 C218 1.313 . S
C2973 C70 1.225 . S
C2992 C231 1.310 . S
C3009 C86 1.138 . S
C3028 C244 1.190 . S
C3045 C257 1.313 . S
C3064 C96 1.190 . S
C3081 C60 1.137 . S
C3100 C270 1.187 . S
C3117 C18 1.241 . S
C3136 C283 1.311 . S
C3153 C34 1.138 . S
C3172 C296 1.190 . S
C3189 C8 1.138 . S
C3208 C309 1.189 . S
C3225 C551 1.043 . S
C3244 C312 1.077 . S
C3261 C335 1.314 . S
C3280 C564 1.252 . S
C3297 C577 1.043 . S
C3316 C338 1.038 . S
C3333 C538 1.225 . S
C3352 C361 1.309 . S
C3369 C364 1.047 . S
C3388 C603 1.038 . S
C3405 C387 1.313 . S
C3424 C525 1.256 . S
C3441 C616 1.044 . S
C3460 C390 1.070 . S
C3477 C413 1.313 . S
C3496 C590 1.270 . S
C3513 C426 1.192 . S
C3532 C437 1.134 . S
C3549 C429 1.061 . S
C3568 C447 1.062 . S
C3585 C452 1.193 . S
C3604 C463 1.130 . S
C3621 C455 1.059 . S
C3640 C421 1.003 . S
C3657 C515 1.151 . S
C3676 C478 1.195 . S
C3693 C473 1.039 . S
C3712 C481 1.023 . S
C3729 C489 1.146 . S
C3748 C504 1.195 . S
C3765 C507 1.057 . S
C3784 C499 0.996 . S
C3801 C356 1.230 . S
C3820 C530 1.312 . S
C3837 C382 1.235 . S
C3856 C543 1.313 . S
C3873 C398 1.152 . S
C3892 C556 1.194 . S
C3909 C569 1.313 . S
C3928 C408 1.190 . S
C3945 C372 1.150 . S
C3964 C582 1.191 . S
C3981 C330 1.240 . S
C4000 C595 1.310 . S
C4017 C608 1.194 . S
C4036 C346 1.161 . S
C4053 C320 1.151 . S
C4072 C621 1.192 . S
