# Generated by pormake.
# Topology hjm, (4)-cn, num edge types: 1
# Building blocks:
#     Node 0, Type 0, BuildingBlock: GALJAG_clean_sbu_0, # of connection points: 4
#     Node 1, Type 0, BuildingBlock: GALJAG_clean_sbu_0, # of connection points: 4
#     Node 2, Type 0, BuildingBlock: GALJAG_clean_sbu_0, # of connection points: 4
#     Node 3, Type 0, BuildingBlock: GALJAG_clean_sbu_0, # of connection points: 4
#     Node 4, Type 0, BuildingBlock: GALJAG_clean_sbu_0, # of connection points: 4
#     Node 5, Type 0, BuildingBlock: GALJAG_clean_sbu_0, # of connection points: 4
#     Node 6, Type 0, BuildingBlock: GALJAG_clean_sbu_0, # of connection points: 4
#     Node 7, Type 0, BuildingBlock: GALJAG_clean_sbu_0, # of connection points: 4
#     Edge 8, Type (0, 0), BuildingBlock: UKIBIB_clean_linker_0, # of connection points: 2
#     Edge 9, Type (0, 0), BuildingBlock: UKIBIB_clean_linker_0, # of connection points: 2
#     Edge 10, Type (0, 0), BuildingBlock: UKIBIB_clean_linker_0, # of connection points: 2
#     Edge 11, Type (0, 0), BuildingBlock: UKIBIB_clean_linker_0, # of connection points: 2
#     Edge 12, Type (0, 0), BuildingBlock: UKIBIB_clean_linker_0, # of connection points: 2
#     Edge 13, Type (0, 0), BuildingBlock: UKIBIB_clean_linker_0, # of connection points: 2
#     Edge 14, Type (0, 0), BuildingBlock: UKIBIB_clean_linker_0, # of connection points: 2
#     Edge 15, Type (0, 0), BuildingBlock: UKIBIB_clean_linker_0, # of connection points: 2
#     Edge 16, Type (0, 0), BuildingBlock: UKIBIB_clean_linker_0, # of connection points: 2
#     Edge 17, Type (0, 0), BuildingBlock: UKIBIB_clean_linker_0, # of connection points: 2
#     Edge 18, Type (0, 0), BuildingBlock: UKIBIB_clean_linker_0, # of connection points: 2
#     Edge 19, Type (0, 0), BuildingBlock: UKIBIB_clean_linker_0, # of connection points: 2
#     Edge 20, Type (0, 0), BuildingBlock: UKIBIB_clean_linker_0, # of connection points: 2
#     Edge 21, Type (0, 0), BuildingBlock: UKIBIB_clean_linker_0, # of connection points: 2
#     Edge 22, Type (0, 0), BuildingBlock: UKIBIB_clean_linker_0, # of connection points: 2
#     Edge 23, Type (0, 0), BuildingBlock: UKIBIB_clean_linker_0, # of connection points: 2
# Relax obj value: 0.069
# Max RMSD: 0.136
# Mean RMSD: 0.136
data_MOF--net-hjm--node1-GALJAG_clean_sbu_0--edge1-UKIBIB_clean_linker_0
_symmetry_space_group_name_H-M    P1
_symmetry_Int_Tables_number       1
_symmetry_cell_setting            triclinic
loop_
_symmetry_equiv_pos_as_xyz
'x, y, z'
_cell_length_a     34.538113
_cell_length_b     28.590026
_cell_length_c     34.731068
_cell_angle_alpha  89.923549
_cell_angle_beta   68.884999
_cell_angle_gamma 89.924369
loop_
_atom_site_label
_atom_site_type_symbol
_atom_site_fract_x
_atom_site_fract_y
_atom_site_fract_z
_atom_type_partial_charge
In0 In 0.18525 0.26209 0.31125 0.0
O1 O 0.14742 0.32695 0.32509 0.0
O2 O 0.16981 0.29946 0.37109 0.0
C3 C 0.19871 0.25318 0.23079 0.0
C4 C 0.13085 0.19487 0.35648 0.0
C5 C 0.26509 0.28152 0.29912 0.0
O6 O 0.1777 0.28627 0.25241 0.0
O7 O 0.21051 0.22256 0.25043 0.0
O8 O 0.24741 0.24343 0.31403 0.0
O9 O 0.24183 0.31183 0.29218 0.0
C10 C 0.14889 0.32985 0.3608 0.0
O11 O 0.16919 0.19516 0.35052 0.0
O12 O 0.11975 0.22708 0.33772 0.0
In13 In 0.81278 0.26218 0.1856 0.0
O14 O 0.85028 0.32732 0.17175 0.0
O15 O 0.82829 0.29956 0.1257 0.0
C16 C 0.79876 0.25302 0.26604 0.0
C17 C 0.86709 0.1947 0.14043 0.0
C18 C 0.7329 0.28153 0.19776 0.0
O19 O 0.8211 0.28534 0.24447 0.0
O20 O 0.78597 0.22332 0.24653 0.0
O21 O 0.75114 0.24399 0.18199 0.0
O22 O 0.75573 0.31159 0.20562 0.0
C23 C 0.84892 0.33014 0.136 0.0
O24 O 0.82907 0.19581 0.14513 0.0
O25 O 0.87764 0.22578 0.16055 0.0
In26 In 0.81289 0.73586 0.68605 0.0
O27 O 0.85099 0.6711 0.67162 0.0
O28 O 0.82766 0.69828 0.62627 0.0
C29 C 0.79916 0.74507 0.76621 0.0
C30 C 0.86716 0.80312 0.64042 0.0
C31 C 0.73267 0.71697 0.69896 0.0
O32 O 0.81793 0.71014 0.74575 0.0
O33 O 0.79047 0.77724 0.7457 0.0
O34 O 0.75121 0.75359 0.6813 0.0
O35 O 0.7551 0.68812 0.70888 0.0
C36 C 0.84894 0.66801 0.63617 0.0
O37 O 0.82873 0.80283 0.64674 0.0
O38 O 0.87844 0.77091 0.6591 0.0
In39 In 0.18572 0.737 0.81137 0.0
O40 O 0.16893 0.80293 0.85215 0.0
O41 O 0.1207 0.77271 0.8362 0.0
C42 C 0.26549 0.71678 0.79879 0.0
C43 C 0.14921 0.66862 0.86068 0.0
C44 C 0.19865 0.74532 0.73093 0.0
O45 O 0.24887 0.75555 0.81303 0.0
O46 O 0.24166 0.68709 0.79224 0.0
O47 O 0.17846 0.71187 0.75271 0.0
O48 O 0.20971 0.77663 0.75048 0.0
C49 C 0.13097 0.8038 0.85651 0.0
O50 O 0.14795 0.6719 0.82493 0.0
O51 O 0.16978 0.69909 0.87125 0.0
In52 In 0.68483 0.76286 0.31028 0.0
O53 O 0.64607 0.82682 0.32494 0.0
O54 O 0.67094 0.80115 0.36964 0.0
C55 C 0.69886 0.7534 0.23018 0.0
C56 C 0.63099 0.69498 0.35569 0.0
C57 C 0.76505 0.78131 0.29774 0.0
O58 O 0.68008 0.78842 0.25048 0.0
O59 O 0.70765 0.72141 0.25076 0.0
O60 O 0.74638 0.74439 0.31454 0.0
O61 O 0.74266 0.81085 0.28849 0.0
C62 C 0.64896 0.83075 0.35998 0.0
O63 O 0.66907 0.69724 0.35066 0.0
O64 O 0.61967 0.72597 0.33589 0.0
In65 In 0.31152 0.76064 0.18508 0.0
O66 O 0.34889 0.82492 0.17297 0.0
O67 O 0.32804 0.80018 0.12535 0.0
C68 C 0.29875 0.7526 0.26555 0.0
C69 C 0.36639 0.69373 0.14026 0.0
C70 C 0.23203 0.78087 0.19751 0.0
O71 O 0.31907 0.78586 0.2436 0.0
O72 O 0.2872 0.72144 0.2462 0.0
O73 O 0.24858 0.7418 0.18407 0.0
O74 O 0.25592 0.81101 0.20335 0.0
C75 C 0.34903 0.82942 0.13678 0.0
O76 O 0.32959 0.69743 0.1412 0.0
O77 O 0.37536 0.72216 0.1636 0.0
In78 In 0.31281 0.2356 0.68559 0.0
O79 O 0.3513 0.17148 0.6715 0.0
O80 O 0.32717 0.19728 0.62624 0.0
C81 C 0.29912 0.2448 0.7659 0.0
C82 C 0.36677 0.30344 0.64055 0.0
C83 C 0.23289 0.21659 0.69776 0.0
O84 O 0.32016 0.21162 0.74442 0.0
O85 O 0.28728 0.27532 0.74619 0.0
O86 O 0.25101 0.25426 0.68224 0.0
O87 O 0.25577 0.18638 0.70547 0.0
C88 C 0.34889 0.16764 0.63624 0.0
O89 O 0.32875 0.30122 0.64533 0.0
O90 O 0.37793 0.27244 0.66041 0.0
In91 In 0.686 0.23686 0.81106 0.0
O92 O 0.64899 0.1724 0.82331 0.0
O93 O 0.66978 0.19762 0.87083 0.0
C94 C 0.69959 0.24562 0.73061 0.0
C95 C 0.63141 0.30423 0.85594 0.0
C96 C 0.76556 0.21718 0.79882 0.0
O97 O 0.67715 0.21355 0.75244 0.0
O98 O 0.71296 0.27517 0.74981 0.0
O99 O 0.74791 0.2553 0.81374 0.0
O100 O 0.74238 0.18697 0.79174 0.0
C101 C 0.64882 0.16825 0.85953 0.0
O102 O 0.66827 0.30038 0.85478 0.0
O103 O 0.62227 0.27584 0.83269 0.0
C104 C 0.11538 0.11146 0.37812 0.0
C105 C 0.10223 0.15827 0.38234 0.0
C106 C 0.09113 0.07633 0.40394 0.0
C107 C 0.88246 0.88658 0.61847 0.0
C108 C 0.89566 0.83976 0.61432 0.0
C109 C 0.90669 0.92173 0.59263 0.0
H110 H 0.05267 0.20507 0.41765 0.0
H111 H 0.0104 0.14332 0.46368 0.0
H112 H 0.94526 0.79304 0.57894 0.0
H113 H 0.98745 0.85482 0.53288 0.0
C114 C 0.06357 0.1692 0.41313 0.0
C115 C 0.03947 0.13393 0.43961 0.0
C116 C 0.93431 0.82888 0.58346 0.0
C117 C 0.95837 0.86418 0.55695 0.0
C118 C 0.05317 0.08707 0.43532 0.0
C119 C 0.02906 0.04996 0.46295 0.0
C120 C 0.00999 0.01802 0.48524 0.0
C121 C 0.94465 0.91103 0.56124 0.0
C122 C 0.96877 0.94817 0.53362 0.0
C123 C 0.98785 0.98011 0.51134 0.0
H124 H 0.14482 0.10199 0.35468 0.0
H125 H 0.10246 0.04066 0.39965 0.0
H126 H 0.85303 0.89605 0.64192 0.0
H127 H 0.89534 0.9574 0.59692 0.0
C128 C 0.07298 0.82845 0.92222 0.0
C129 C 0.10159 0.83948 0.88261 0.0
C130 C 0.04908 0.8639 0.94845 0.0
C131 C 0.92483 0.16989 0.07446 0.0
C132 C 0.89624 0.15888 0.11411 0.0
C133 C 0.94871 0.13443 0.04819 0.0
H134 H 0.12646 0.89564 0.83919 0.0
H135 H 0.08429 0.95726 0.88445 0.0
H136 H 0.87133 0.10263 0.15743 0.0
H137 H 0.91347 0.04103 0.1121 0.0
C138 C 0.10474 0.88623 0.86948 0.0
C139 C 0.08066 0.92148 0.89546 0.0
C140 C 0.89303 0.11207 0.12714 0.0
C141 C 0.9171 0.07682 0.10113 0.0
C142 C 0.05298 0.91094 0.93545 0.0
C143 C 0.02941 0.94844 0.96296 0.0
C144 C 0.01016 0.98028 0.98526 0.0
C145 C 0.94481 0.08738 0.06115 0.0
C146 C 0.96842 0.04988 0.03364 0.0
C147 C 0.98769 0.01802 0.01136 0.0
H148 H 0.07006 0.79273 0.93339 0.0
H149 H 0.02805 0.85467 0.97911 0.0
H150 H 0.92781 0.20562 0.06333 0.0
H151 H 0.96976 0.14368 0.01753 0.0
C152 C 0.43868 0.33841 0.60082 0.0
C153 C 0.39492 0.34004 0.61367 0.0
C154 C 0.46344 0.37356 0.57461 0.0
C155 C 0.55917 0.65986 0.39567 0.0
C156 C 0.60294 0.65833 0.38274 0.0
C157 C 0.53448 0.62467 0.42189 0.0
H158 H 0.3437 0.3799 0.6085 0.0
H159 H 0.38642 0.44052 0.56385 0.0
H160 H 0.65424 0.61858 0.38788 0.0
H161 H 0.61162 0.55787 0.43256 0.0
C162 C 0.37708 0.3774 0.5995 0.0
C163 C 0.4016 0.41231 0.57378 0.0
C164 C 0.62085 0.62101 0.39691 0.0
C165 C 0.59639 0.58605 0.42265 0.0
C166 C 0.44498 0.41096 0.56094 0.0
C167 C 0.4697 0.44811 0.5339 0.0
C168 C 0.48833 0.48011 0.51144 0.0
C169 C 0.553 0.5873 0.43553 0.0
C170 C 0.52831 0.55012 0.46257 0.0
C171 C 0.50966 0.51812 0.48503 0.0
H172 H 0.45375 0.30994 0.6106 0.0
H173 H 0.49693 0.37152 0.56502 0.0
H174 H 0.54403 0.68827 0.38591 0.0
H175 H 0.50099 0.62666 0.43151 0.0
C176 C 0.41101 0.62138 0.12993 0.0
C177 C 0.39637 0.65924 0.11313 0.0
C178 C 0.43467 0.58545 0.10429 0.0
C179 C 0.58694 0.37677 0.86648 0.0
C180 C 0.60159 0.33885 0.8832 0.0
C181 C 0.5633 0.41269 0.89217 0.0
H182 H 0.39724 0.69062 0.0561 0.0
H183 H 0.43959 0.62866 0.01126 0.0
H184 H 0.60078 0.30744 0.94021 0.0
H185 H 0.55846 0.36939 0.98513 0.0
C186 C 0.40768 0.6616 0.06997 0.0
C187 C 0.43186 0.6261 0.04431 0.0
C188 C 0.59034 0.33649 0.92636 0.0
C189 C 0.56617 0.37198 0.95208 0.0
C190 C 0.44497 0.58715 0.06121 0.0
C191 C 0.46826 0.54896 0.03448 0.0
C192 C 0.48762 0.51751 0.01173 0.0
C193 C 0.55302 0.41095 0.93524 0.0
C194 C 0.52971 0.44912 0.96201 0.0
C195 C 0.51034 0.48057 0.98475 0.0
H196 H 0.40273 0.6186 0.16304 0.0
H197 H 0.44431 0.55592 0.11824 0.0
H198 H 0.59516 0.37958 0.83338 0.0
H199 H 0.55364 0.44223 0.87825 0.0
C200 C 0.91403 0.34512 0.0797 0.0
C201 C 0.87555 0.36161 0.10632 0.0
C202 C 0.94251 0.37645 0.05451 0.0
C203 C 0.08392 0.65323 0.91672 0.0
C204 C 0.12245 0.63687 0.89011 0.0
C205 C 0.05546 0.62184 0.94188 0.0
H206 H 0.83519 0.4213 0.12853 0.0
H207 H 0.88533 0.47683 0.08304 0.0
H208 H 0.16285 0.57718 0.86785 0.0
H209 H 0.11273 0.52154 0.91328 0.0
C210 C 0.86489 0.40877 0.10749 0.0
C211 C 0.89325 0.44003 0.08201 0.0
C212 C 0.13312 0.58968 0.88887 0.0
C213 C 0.10478 0.55834 0.91432 0.0
C214 C 0.93194 0.42369 0.05604 0.0
C215 C 0.96098 0.45568 0.03113 0.0
C216 C 0.98511 0.48311 0.01033 0.0
C217 C 0.06607 0.57461 0.94034 0.0
C218 C 0.03705 0.54259 0.96527 0.0
C219 C 0.01291 0.51517 0.98611 0.0
H220 H 0.92238 0.30851 0.07947 0.0
H221 H 0.97273 0.36406 0.03444 0.0
H222 H 0.07552 0.68983 0.91703 0.0
H223 H 0.02523 0.63418 0.96198 0.0
C224 C 0.13382 0.40811 0.3902 0.0
C225 C 0.12226 0.36139 0.39039 0.0
C226 C 0.10557 0.43972 0.41535 0.0
C227 C 0.86417 0.58995 0.60627 0.0
C228 C 0.87557 0.6367 0.60629 0.0
C229 C 0.89249 0.55855 0.58095 0.0
H230 H 0.07408 0.30931 0.41542 0.0
H231 H 0.02402 0.36542 0.46004 0.0
H232 H 0.92362 0.68898 0.58152 0.0
H233 H 0.97385 0.63318 0.53661 0.0
C234 C 0.08306 0.34559 0.41585 0.0
C235 C 0.05475 0.37724 0.44078 0.0
C236 C 0.91473 0.65269 0.58088 0.0
C237 C 0.94315 0.62122 0.55578 0.0
C238 C 0.06615 0.42409 0.44009 0.0
C239 C 0.03726 0.45623 0.46491 0.0
C240 C 0.01276 0.48318 0.4859 0.0
C241 C 0.93185 0.57434 0.55625 0.0
C242 C 0.96069 0.54216 0.53141 0.0
C243 C 0.98475 0.51468 0.51059 0.0
H244 H 0.16412 0.42009 0.37009 0.0
H245 H 0.11416 0.4762 0.41506 0.0
H246 H 0.83394 0.57777 0.62637 0.0
H247 H 0.88402 0.52204 0.5811 0.0
C248 C 0.58604 0.1211 0.87991 0.0
C249 C 0.62107 0.13577 0.88794 0.0
C250 C 0.55847 0.09035 0.90644 0.0
C251 C 0.41166 0.87696 0.11673 0.0
C252 C 0.37671 0.86219 0.10858 0.0
C253 C 0.43926 0.90776 0.09025 0.0
H254 H 0.65449 0.13256 0.93021 0.0
H255 H 0.60554 0.07687 0.97707 0.0
H256 H 0.3434 0.86552 0.06623 0.0
H257 H 0.39236 0.92129 0.0195 0.0
C258 C 0.62783 0.12076 0.92343 0.0
C259 C 0.6002 0.08945 0.94993 0.0
C260 C 0.37 0.87733 0.07309 0.0
C261 C 0.39765 0.90869 0.04665 0.0
C262 C 0.56597 0.07437 0.94096 0.0
C263 C 0.5383 0.04199 0.96681 0.0
C264 C 0.51356 0.01481 0.98698 0.0
C265 C 0.43185 0.92376 0.05569 0.0
C266 C 0.45956 0.95611 0.02984 0.0
C267 C 0.48431 0.98328 0.00965 0.0
H268 H 0.57975 0.13365 0.85328 0.0
H269 H 0.53156 0.07889 0.89989 0.0
H270 H 0.4179 0.86439 0.14338 0.0
H271 H 0.46614 0.91922 0.09685 0.0
C272 C 0.57997 0.8486 0.40808 0.0
C273 C 0.62175 0.86128 0.39011 0.0
C274 C 0.55186 0.88003 0.43345 0.0
C275 C 0.41797 0.14952 0.58841 0.0
C276 C 0.37617 0.13692 0.60639 0.0
C277 C 0.44602 0.11801 0.56306 0.0
H278 H 0.6684 0.91415 0.3837 0.0
H279 H 0.61843 0.97011 0.42901 0.0
H280 H 0.32943 0.08415 0.6129 0.0
H281 H 0.3793 0.02801 0.56771 0.0
C282 C 0.63603 0.90447 0.39803 0.0
C283 C 0.60783 0.93603 0.42337 0.0
C284 C 0.36183 0.09373 0.59857 0.0
C285 C 0.38997 0.06208 0.57329 0.0
C286 C 0.56597 0.92367 0.44054 0.0
C287 C 0.53733 0.9561 0.46523 0.0
C288 C 0.51321 0.98349 0.48604 0.0
C289 C 0.43184 0.07438 0.55605 0.0
C290 C 0.46051 0.04199 0.53134 0.0
C291 C 0.48498 0.01497 0.51044 0.0
H292 H 0.56912 0.81499 0.40162 0.0
H293 H 0.5193 0.8707 0.44688 0.0
H294 H 0.42888 0.18315 0.59477 0.0
H295 H 0.47859 0.12729 0.54956 0.0
C296 C 0.30307 0.78661 0.32995 0.0
C297 C 0.28818 0.75146 0.31063 0.0
C298 C 0.29353 0.78573 0.37256 0.0
C299 C 0.19478 0.71142 0.66637 0.0
C300 C 0.20952 0.74655 0.68582 0.0
C301 C 0.20442 0.71241 0.62377 0.0
H302 H 0.25004 0.6891 0.3209 0.0
H303 H 0.23347 0.68766 0.39587 0.0
H304 H 0.24767 0.8089 0.67578 0.0
H305 H 0.26444 0.81052 0.60076 0.0
C306 C 0.26256 0.71613 0.3349 0.0
C307 C 0.25296 0.71536 0.37763 0.0
C308 C 0.23522 0.78192 0.66168 0.0
C309 C 0.24493 0.78279 0.61892 0.0
C310 C 0.2687 0.74998 0.39648 0.0
C311 C 0.25978 0.74888 0.44027 0.0
C312 C 0.25287 0.74894 0.47685 0.0
C313 C 0.22924 0.74822 0.59996 0.0
C314 C 0.23821 0.7494 0.55617 0.0
C315 C 0.2451 0.74933 0.5196 0.0
H316 H 0.32235 0.81468 0.31213 0.0
H317 H 0.30572 0.81286 0.38678 0.0
H318 H 0.17548 0.68332 0.6841 0.0
H319 H 0.19227 0.68532 0.60947 0.0
C320 C 0.75479 0.72022 0.83698 0.0
C321 C 0.7876 0.74752 0.81094 0.0
C322 C 0.74531 0.72097 0.87969 0.0
C323 C 0.74321 0.778 0.15942 0.0
C324 C 0.71041 0.75074 0.18548 0.0
C325 C 0.75264 0.77722 0.11673 0.0
H326 H 0.83584 0.79687 0.80786 0.0
H327 H 0.81971 0.79768 0.88284 0.0
H328 H 0.66212 0.70139 0.18868 0.0
H329 H 0.6782 0.70048 0.11369 0.0
C330 C 0.8104 0.77585 0.82777 0.0
C331 C 0.80125 0.7762 0.87034 0.0
C332 C 0.68757 0.72237 0.16873 0.0
C333 C 0.69668 0.72198 0.12616 0.0
C334 C 0.76882 0.74866 0.89642 0.0
C335 C 0.76003 0.74861 0.94021 0.0
C336 C 0.753 0.74889 0.97682 0.0
C337 C 0.7291 0.74951 0.10005 0.0
C338 C 0.73786 0.74955 0.05627 0.0
C339 C 0.74487 0.74927 0.01967 0.0
H340 H 0.73673 0.69829 0.8243 0.0
H341 H 0.72004 0.69967 0.89954 0.0
H342 H 0.76126 0.79996 0.17208 0.0
H343 H 0.77789 0.79853 0.09686 0.0
C344 C 0.81936 0.25782 0.32713 0.0
C345 C 0.78824 0.2507 0.3108 0.0
C346 C 0.80981 0.25682 0.36972 0.0
C347 C 0.67865 0.24038 0.66962 0.0
C348 C 0.70987 0.24763 0.68584 0.0
C349 C 0.68809 0.2413 0.62702 0.0
H350 H 0.7225 0.2387 0.32542 0.0
H351 H 0.70549 0.23812 0.40073 0.0
H352 H 0.77564 0.25961 0.67097 0.0
H353 H 0.79242 0.26003 0.59571 0.0
C354 C 0.7471 0.24333 0.33754 0.0
C355 C 0.73739 0.24322 0.38033 0.0
C356 C 0.75096 0.25492 0.65895 0.0
C357 C 0.76055 0.25493 0.61619 0.0
C358 C 0.76883 0.24975 0.39647 0.0
C359 C 0.75939 0.24932 0.44038 0.0
C360 C 0.75265 0.24917 0.47694 0.0
C361 C 0.72903 0.24838 0.60016 0.0
C362 C 0.73839 0.24883 0.55625 0.0
C363 C 0.74515 0.249 0.51968 0.0
H364 H 0.85118 0.26366 0.30685 0.0
H365 H 0.83443 0.2618 0.38174 0.0
H366 H 0.64686 0.23457 0.68998 0.0
H367 H 0.66341 0.2363 0.61508 0.0
C368 C 0.24238 0.22363 0.16062 0.0
C369 C 0.20936 0.25145 0.1858 0.0
C370 C 0.25229 0.22293 0.11782 0.0
C371 C 0.25551 0.27455 0.83597 0.0
C372 C 0.28851 0.24669 0.81084 0.0
C373 C 0.24559 0.27528 0.87876 0.0
H374 H 0.16168 0.30101 0.18622 0.0
H375 H 0.17861 0.29897 0.11155 0.0
H376 H 0.33622 0.19717 0.81044 0.0
H377 H 0.31927 0.19926 0.88509 0.0
C378 C 0.187 0.27899 0.16753 0.0
C379 C 0.19665 0.27792 0.12495 0.0
C380 C 0.31089 0.2192 0.82911 0.0
C381 C 0.30123 0.22029 0.87168 0.0
C382 C 0.2292 0.24986 0.09999 0.0
C383 C 0.23848 0.24878 0.05616 0.0
C384 C 0.24522 0.24889 0.01963 0.0
C385 C 0.26867 0.24835 0.89661 0.0
C386 C 0.25938 0.24943 0.94043 0.0
C387 C 0.25265 0.24931 0.97696 0.0
H388 H 0.26066 0.20281 0.17391 0.0
H389 H 0.27778 0.20134 0.09875 0.0
H390 H 0.23723 0.29534 0.82265 0.0
H391 H 0.22009 0.29687 0.89782 0.0
C392 C 0.33495 0.24648 0.27652 0.0
C393 C 0.31039 0.28698 0.28677 0.0
C394 C 0.37761 0.24881 0.26703 0.0
C395 C 0.66685 0.33001 0.2195 0.0
C396 C 0.68756 0.28669 0.20927 0.0
C397 C 0.62372 0.33233 0.22901 0.0
H398 H 0.31145 0.36252 0.29277 0.0
H399 H 0.38719 0.36642 0.27658 0.0
H400 H 0.67918 0.21219 0.20375 0.0
H401 H 0.60472 0.21654 0.22026 0.0
C402 C 0.32963 0.33064 0.28551 0.0
C403 C 0.37269 0.33289 0.27633 0.0
C404 C 0.66432 0.24614 0.21041 0.0
C405 C 0.62166 0.24847 0.22006 0.0
C406 C 0.3966 0.29178 0.26753 0.0
C407 C 0.44052 0.29298 0.25943 0.0
C408 C 0.47732 0.29252 0.2525 0.0
C409 C 0.60121 0.29146 0.22893 0.0
C410 C 0.55721 0.29297 0.23749 0.0
C411 C 0.5204 0.29252 0.24446 0.0
H412 H 0.32102 0.21265 0.27609 0.0
H413 H 0.39567 0.21683 0.25984 0.0
H414 H 0.68386 0.36183 0.21948 0.0
H415 H 0.60804 0.36584 0.2361 0.0
C416 C 0.66329 0.68046 0.7401 0.0
C417 C 0.68779 0.71038 0.70838 0.0
C418 C 0.62007 0.67884 0.7502 0.0
C419 C 0.33722 0.73674 0.75399 0.0
C420 C 0.31038 0.70947 0.78613 0.0
C421 C 0.38003 0.73511 0.74487 0.0
H422 H 0.68664 0.76078 0.66226 0.0
H423 H 0.61182 0.7574 0.67957 0.0
H424 H 0.30648 0.6577 0.83288 0.0
H425 H 0.38202 0.6552 0.81712 0.0
C426 C 0.66854 0.73757 0.68679 0.0
C427 C 0.62578 0.73574 0.69667 0.0
C428 C 0.32683 0.67897 0.80798 0.0
C429 C 0.36974 0.67771 0.79911 0.0
C430 C 0.6013 0.7067 0.72847 0.0
C431 C 0.55705 0.70595 0.73824 0.0
C432 C 0.52024 0.70672 0.74508 0.0
C433 C 0.39638 0.70625 0.76788 0.0
C434 C 0.44034 0.70657 0.7598 0.0
C435 C 0.47717 0.707 0.75288 0.0
H436 H 0.67723 0.65945 0.75766 0.0
H437 H 0.60134 0.65628 0.77501 0.0
H438 H 0.32491 0.76006 0.73657 0.0
H439 H 0.40023 0.75712 0.72046 0.0
C440 C 0.16099 0.7529 0.23471 0.0
C441 C 0.18707 0.7877 0.21051 0.0
C442 C 0.11831 0.75499 0.24392 0.0
C443 C 0.83311 0.8245 0.26397 0.0
C444 C 0.81015 0.78705 0.28788 0.0
C445 C 0.8763 0.82664 0.25405 0.0
H446 H 0.18953 0.85353 0.17868 0.0
H447 H 0.11391 0.85677 0.19435 0.0
H448 H 0.81442 0.72291 0.31948 0.0
H449 H 0.88898 0.72699 0.30229 0.0
C450 C 0.16982 0.82617 0.19722 0.0
C451 C 0.1269 0.82792 0.20601 0.0
C452 C 0.83108 0.75229 0.30133 0.0
C453 C 0.87379 0.75446 0.29147 0.0
C454 C 0.10119 0.79194 0.22893 0.0
C455 C 0.05735 0.79222 0.23674 0.0
C456 C 0.02057 0.79178 0.24362 0.0
C457 C 0.8966 0.79149 0.2679 0.0
C458 C 0.94074 0.79282 0.25847 0.0
C459 C 0.97753 0.7921 0.25154 0.0
H460 H 0.17384 0.72355 0.24591 0.0
H461 H 0.09882 0.72721 0.26201 0.0
H462 H 0.81795 0.85161 0.25269 0.0
H463 H 0.8938 0.85545 0.23559 0.0
C464 C 0.16736 0.16777 0.71672 0.0
C465 C 0.18756 0.21146 0.70947 0.0
C466 C 0.12426 0.16552 0.7261 0.0
C467 C 0.83497 0.25227 0.77947 0.0
C468 C 0.81077 0.21157 0.78677 0.0
C469 C 0.87758 0.24971 0.77 0.0
H470 H 0.17841 0.28647 0.70936 0.0
H471 H 0.1039 0.28227 0.72573 0.0
H472 H 0.81239 0.13561 0.78751 0.0
H473 H 0.88815 0.13125 0.7712 0.0
C474 C 0.16388 0.25234 0.71363 0.0
C475 C 0.12123 0.25007 0.72321 0.0
C476 C 0.8303 0.16761 0.7826 0.0
C477 C 0.87335 0.1651 0.77334 0.0
C478 C 0.10129 0.20679 0.72895 0.0
C479 C 0.05736 0.20539 0.73734 0.0
C480 C 0.02057 0.20571 0.7443 0.0
C481 C 0.89688 0.20632 0.76747 0.0
C482 C 0.94076 0.20485 0.75927 0.0
C483 C 0.97753 0.20545 0.75234 0.0
H484 H 0.18476 0.13565 0.71429 0.0
H485 H 0.10898 0.13178 0.73075 0.0
H486 H 0.82086 0.28645 0.7813 0.0
H487 H 0.89535 0.28182 0.7651 0.0
loop_
_geom_bond_atom_site_label_1
_geom_bond_atom_site_label_2
_geom_bond_distance
_geom_bond_site_symmetry_2
_ccdc_geom_bond_type
In0 O1 2.294 . S
In0 O2 2.326 . S
In0 O6 2.266 . S
In0 O7 2.326 . S
In0 O8 2.266 . S
In0 O9 2.326 . S
In0 O11 2.294 . S
In0 O12 2.326 . S
O1 In0 2.294 . S
O1 C10 1.240 . S
O2 In0 2.326 . S
O2 C10 1.252 . S
C3 O6 1.252 . S
C3 O7 1.260 . S
C4 O11 1.240 . S
C4 O12 1.252 . S
C5 O8 1.252 . S
C5 O9 1.260 . S
O6 In0 2.266 . S
O6 C3 1.252 . S
O7 In0 2.326 . S
O7 C3 1.260 . S
O8 In0 2.266 . S
O8 C5 1.252 . S
O9 In0 2.326 . S
O9 C5 1.260 . S
C10 O1 1.240 . S
C10 O2 1.252 . S
O11 In0 2.294 . S
O11 C4 1.240 . S
O12 In0 2.326 . S
O12 C4 1.252 . S
In13 O14 2.294 . S
In13 O15 2.326 . S
In13 O19 2.266 . S
In13 O20 2.326 . S
In13 O21 2.266 . S
In13 O22 2.326 . S
In13 O24 2.294 . S
In13 O25 2.326 . S
O14 In13 2.294 . S
O14 C23 1.240 . S
O15 In13 2.326 . S
O15 C23 1.252 . S
C16 O19 1.252 . S
C16 O20 1.260 . S
C17 O24 1.240 . S
C17 O25 1.252 . S
C18 O21 1.252 . S
C18 O22 1.260 . S
O19 In13 2.266 . S
O19 C16 1.252 . S
O20 In13 2.326 . S
O20 C16 1.260 . S
O21 In13 2.266 . S
O21 C18 1.252 . S
O22 In13 2.326 . S
O22 C18 1.260 . S
C23 O14 1.240 . S
C23 O15 1.252 . S
O24 In13 2.294 . S
O24 C17 1.240 . S
O25 In13 2.326 . S
O25 C17 1.252 . S
In26 O27 2.294 . S
In26 O28 2.326 . S
In26 O32 2.266 . S
In26 O33 2.326 . S
In26 O34 2.266 . S
In26 O35 2.326 . S
In26 O37 2.294 . S
In26 O38 2.326 . S
O27 In26 2.294 . S
O27 C36 1.240 . S
O28 In26 2.326 . S
O28 C36 1.252 . S
C29 O32 1.252 . S
C29 O33 1.260 . S
C30 O37 1.240 . S
C30 O38 1.252 . S
C31 O34 1.252 . S
C31 O35 1.260 . S
O32 In26 2.266 . S
O32 C29 1.252 . S
O33 In26 2.326 . S
O33 C29 1.260 . S
O34 In26 2.266 . S
O34 C31 1.252 . S
O35 In26 2.326 . S
O35 C31 1.260 . S
C36 O27 1.240 . S
C36 O28 1.252 . S
O37 In26 2.294 . S
O37 C30 1.240 . S
O38 In26 2.326 . S
O38 C30 1.252 . S
In39 O40 2.294 . S
In39 O41 2.326 . S
In39 O45 2.266 . S
In39 O46 2.326 . S
In39 O47 2.266 . S
In39 O48 2.326 . S
In39 O50 2.294 . S
In39 O51 2.326 . S
O40 In39 2.294 . S
O40 C49 1.240 . S
O41 In39 2.326 . S
O41 C49 1.252 . S
C42 O45 1.252 . S
C42 O46 1.260 . S
C43 O50 1.240 . S
C43 O51 1.252 . S
C44 O47 1.252 . S
C44 O48 1.260 . S
O45 In39 2.266 . S
O45 C42 1.252 . S
O46 In39 2.326 . S
O46 C42 1.260 . S
O47 In39 2.266 . S
O47 C44 1.252 . S
O48 In39 2.326 . S
O48 C44 1.260 . S
C49 O40 1.240 . S
C49 O41 1.252 . S
O50 In39 2.294 . S
O50 C43 1.240 . S
O51 In39 2.326 . S
O51 C43 1.252 . S
In52 O53 2.294 . S
In52 O54 2.326 . S
In52 O58 2.266 . S
In52 O59 2.326 . S
In52 O60 2.266 . S
In52 O61 2.326 . S
In52 O63 2.294 . S
In52 O64 2.326 . S
O53 In52 2.294 . S
O53 C62 1.240 . S
O54 In52 2.326 . S
O54 C62 1.252 . S
C55 O58 1.252 . S
C55 O59 1.260 . S
C56 O63 1.240 . S
C56 O64 1.252 . S
C57 O60 1.252 . S
C57 O61 1.260 . S
O58 In52 2.266 . S
O58 C55 1.252 . S
O59 In52 2.326 . S
O59 C55 1.260 . S
O60 In52 2.266 . S
O60 C57 1.252 . S
O61 In52 2.326 . S
O61 C57 1.260 . S
C62 O53 1.240 . S
C62 O54 1.252 . S
O63 In52 2.294 . S
O63 C56 1.240 . S
O64 In52 2.326 . S
O64 C56 1.252 . S
In65 O66 2.294 . S
In65 O67 2.326 . S
In65 O71 2.266 . S
In65 O72 2.326 . S
In65 O73 2.266 . S
In65 O74 2.326 . S
In65 O76 2.294 . S
In65 O77 2.326 . S
O66 In65 2.294 . S
O66 C75 1.240 . S
O67 In65 2.326 . S
O67 C75 1.252 . S
C68 O71 1.252 . S
C68 O72 1.260 . S
C69 O76 1.240 . S
C69 O77 1.252 . S
C70 O73 1.252 . S
C70 O74 1.260 . S
O71 In65 2.266 . S
O71 C68 1.252 . S
O72 In65 2.326 . S
O72 C68 1.260 . S
O73 In65 2.266 . S
O73 C70 1.252 . S
O74 In65 2.326 . S
O74 C70 1.260 . S
C75 O66 1.240 . S
C75 O67 1.252 . S
O76 In65 2.294 . S
O76 C69 1.240 . S
O77 In65 2.326 . S
O77 C69 1.252 . S
In78 O79 2.294 . S
In78 O80 2.326 . S
In78 O84 2.266 . S
In78 O85 2.326 . S
In78 O86 2.266 . S
In78 O87 2.326 . S
In78 O89 2.294 . S
In78 O90 2.326 . S
O79 In78 2.294 . S
O79 C88 1.240 . S
O80 In78 2.326 . S
O80 C88 1.252 . S
C81 O84 1.252 . S
C81 O85 1.260 . S
C82 O89 1.240 . S
C82 O90 1.252 . S
C83 O86 1.252 . S
C83 O87 1.260 . S
O84 In78 2.266 . S
O84 C81 1.252 . S
O85 In78 2.326 . S
O85 C81 1.260 . S
O86 In78 2.266 . S
O86 C83 1.252 . S
O87 In78 2.326 . S
O87 C83 1.260 . S
C88 O79 1.240 . S
C88 O80 1.252 . S
O89 In78 2.294 . S
O89 C82 1.240 . S
O90 In78 2.326 . S
O90 C82 1.252 . S
In91 O92 2.294 . S
In91 O93 2.326 . S
In91 O97 2.266 . S
In91 O98 2.326 . S
In91 O99 2.266 . S
In91 O100 2.326 . S
In91 O102 2.294 . S
In91 O103 2.326 . S
O92 In91 2.294 . S
O92 C101 1.240 . S
O93 In91 2.326 . S
O93 C101 1.252 . S
C94 O97 1.252 . S
C94 O98 1.260 . S
C95 O102 1.240 . S
C95 O103 1.252 . S
C96 O99 1.252 . S
C96 O100 1.260 . S
O97 In91 2.266 . S
O97 C94 1.252 . S
O98 In91 2.326 . S
O98 C94 1.260 . S
O99 In91 2.266 . S
O99 C96 1.252 . S
O100 In91 2.326 . S
O100 C96 1.260 . S
C101 O92 1.240 . S
C101 O93 1.252 . S
O102 In91 2.294 . S
O102 C95 1.240 . S
O103 In91 2.326 . S
O103 C95 1.252 . S
C104 C105 1.332 . S
C104 C106 1.345 . S
C104 H124 0.932 . S
C105 C104 1.332 . S
C105 C114 1.332 . S
C106 C104 1.345 . S
C106 C118 1.334 . S
C106 H125 0.928 . S
C107 C108 1.332 . S
C107 C109 1.345 . S
C107 H126 0.932 . S
C108 C107 1.332 . S
C108 C116 1.332 . S
C109 C107 1.345 . S
C109 C121 1.334 . S
C109 H127 0.928 . S
H110 C114 0.932 . S
H111 C115 0.928 . S
H112 C116 0.932 . S
H113 C117 0.928 . S
C114 C105 1.332 . S
C114 H110 0.932 . S
C114 C115 1.345 . S
C115 H111 0.928 . S
C115 C114 1.345 . S
C115 C118 1.334 . S
C116 C108 1.332 . S
C116 H112 0.932 . S
C116 C117 1.345 . S
C117 H113 0.928 . S
C117 C116 1.345 . S
C117 C121 1.334 . S
C118 C106 1.334 . S
C118 C115 1.334 . S
C118 C119 1.487 . S
C119 C118 1.487 . S
C119 C120 1.185 . S
C120 C119 1.185 . S
C120 C123 1.482 1_445 S
C121 C109 1.334 . S
C121 C117 1.334 . S
C121 C122 1.487 . S
C122 C121 1.487 . S
C122 C123 1.185 . S
C123 C120 1.482 1_665 S
C123 C122 1.185 . S
H124 C104 0.932 . S
H125 C106 0.928 . S
H126 C107 0.932 . S
H127 C109 0.928 . S
C128 C129 1.332 . S
C128 C130 1.345 . S
C128 H148 0.932 . S
C129 C128 1.332 . S
C129 C138 1.332 . S
C130 C128 1.345 . S
C130 C142 1.334 . S
C130 H149 0.928 . S
C131 C132 1.332 . S
C131 C133 1.345 . S
C131 H150 0.932 . S
C132 C131 1.332 . S
C132 C140 1.332 . S
C133 C131 1.345 . S
C133 C145 1.334 . S
C133 H151 0.928 . S
H134 C138 0.932 . S
H135 C139 0.928 . S
H136 C140 0.932 . S
H137 C141 0.928 . S
C138 C129 1.332 . S
C138 H134 0.932 . S
C138 C139 1.345 . S
C139 H135 0.928 . S
C139 C138 1.345 . S
C139 C142 1.334 . S
C140 C132 1.332 . S
C140 H136 0.932 . S
C140 C141 1.345 . S
C141 H137 0.928 . S
C141 C140 1.345 . S
C141 C145 1.334 . S
C142 C130 1.334 . S
C142 C139 1.334 . S
C142 C143 1.487 . S
C143 C142 1.487 . S
C143 C144 1.185 . S
C144 C143 1.185 . S
C144 C147 1.482 1_466 S
C145 C133 1.334 . S
C145 C141 1.334 . S
C145 C146 1.487 . S
C146 C145 1.487 . S
C146 C147 1.185 . S
C147 C144 1.482 1_644 S
C147 C146 1.185 . S
H148 C128 0.932 . S
H149 C130 0.928 . S
H150 C131 0.932 . S
H151 C133 0.928 . S
C152 C153 1.332 . S
C152 C154 1.345 . S
C152 H172 0.932 . S
C153 C152 1.332 . S
C153 C162 1.332 . S
C154 C152 1.345 . S
C154 C166 1.334 . S
C154 H173 0.928 . S
C155 C156 1.332 . S
C155 C157 1.345 . S
C155 H174 0.932 . S
C156 C155 1.332 . S
C156 C164 1.332 . S
C157 C155 1.345 . S
C157 C169 1.334 . S
C157 H175 0.928 . S
H158 C162 0.932 . S
H159 C163 0.928 . S
H160 C164 0.932 . S
H161 C165 0.928 . S
C162 C153 1.332 . S
C162 H158 0.932 . S
C162 C163 1.345 . S
C163 H159 0.928 . S
C163 C162 1.345 . S
C163 C166 1.334 . S
C164 C156 1.332 . S
C164 H160 0.932 . S
C164 C165 1.345 . S
C165 H161 0.928 . S
C165 C164 1.345 . S
C165 C169 1.334 . S
C166 C154 1.334 . S
C166 C163 1.334 . S
C166 C167 1.487 . S
C167 C166 1.487 . S
C167 C168 1.185 . S
C168 C167 1.185 . S
C168 C171 1.482 . S
C169 C157 1.334 . S
C169 C165 1.334 . S
C169 C170 1.487 . S
C170 C169 1.487 . S
C170 C171 1.185 . S
C171 C168 1.482 . S
C171 C170 1.185 . S
H172 C152 0.932 . S
H173 C154 0.928 . S
H174 C155 0.932 . S
H175 C157 0.928 . S
C176 C177 1.332 . S
C176 C178 1.345 . S
C176 H196 0.932 . S
C177 C176 1.332 . S
C177 C186 1.332 . S
C178 C176 1.345 . S
C178 C190 1.334 . S
C178 H197 0.928 . S
C179 C180 1.332 . S
C179 C181 1.345 . S
C179 H198 0.932 . S
C180 C179 1.332 . S
C180 C188 1.332 . S
C181 C179 1.345 . S
C181 C193 1.334 . S
C181 H199 0.928 . S
H182 C186 0.932 . S
H183 C187 0.928 . S
H184 C188 0.932 . S
H185 C189 0.928 . S
C186 C177 1.332 . S
C186 H182 0.932 . S
C186 C187 1.345 . S
C187 H183 0.928 . S
C187 C186 1.345 . S
C187 C190 1.334 . S
C188 C180 1.332 . S
C188 H184 0.932 . S
C188 C189 1.345 . S
C189 H185 0.928 . S
C189 C188 1.345 . S
C189 C193 1.334 . S
C190 C178 1.334 . S
C190 C187 1.334 . S
C190 C191 1.487 . S
C191 C190 1.487 . S
C191 C192 1.185 . S
C192 C191 1.185 . S
C192 C195 1.482 1_554 S
C193 C181 1.334 . S
C193 C189 1.334 . S
C193 C194 1.487 . S
C194 C193 1.487 . S
C194 C195 1.185 . S
C195 C192 1.482 1_556 S
C195 C194 1.185 . S
H196 C176 0.932 . S
H197 C178 0.928 . S
H198 C179 0.932 . S
H199 C181 0.928 . S
C200 C201 1.332 . S
C200 C202 1.345 . S
C200 H220 0.932 . S
C201 C200 1.332 . S
C201 C210 1.332 . S
C202 C200 1.345 . S
C202 C214 1.334 . S
C202 H221 0.928 . S
C203 C204 1.332 . S
C203 C205 1.345 . S
C203 H222 0.932 . S
C204 C203 1.332 . S
C204 C212 1.332 . S
C205 C203 1.345 . S
C205 C217 1.334 . S
C205 H223 0.928 . S
H206 C210 0.932 . S
H207 C211 0.928 . S
H208 C212 0.932 . S
H209 C213 0.928 . S
C210 C201 1.332 . S
C210 H206 0.932 . S
C210 C211 1.345 . S
C211 H207 0.928 . S
C211 C210 1.345 . S
C211 C214 1.334 . S
C212 C204 1.332 . S
C212 H208 0.932 . S
C212 C213 1.345 . S
C213 H209 0.928 . S
C213 C212 1.345 . S
C213 C217 1.334 . S
C214 C202 1.334 . S
C214 C211 1.334 . S
C214 C215 1.487 . S
C215 C214 1.487 . S
C215 C216 1.185 . S
C216 C215 1.185 . S
C216 C219 1.482 1_654 S
C217 C205 1.334 . S
C217 C213 1.334 . S
C217 C218 1.487 . S
C218 C217 1.487 . S
C218 C219 1.185 . S
C219 C216 1.482 1_456 S
C219 C218 1.185 . S
H220 C200 0.932 . S
H221 C202 0.928 . S
H222 C203 0.932 . S
H223 C205 0.928 . S
C224 C225 1.332 . S
C224 C226 1.345 . S
C224 H244 0.932 . S
C225 C224 1.332 . S
C225 C234 1.332 . S
C226 C224 1.345 . S
C226 C238 1.334 . S
C226 H245 0.928 . S
C227 C228 1.332 . S
C227 C229 1.345 . S
C227 H246 0.932 . S
C228 C227 1.332 . S
C228 C236 1.332 . S
C229 C227 1.345 . S
C229 C241 1.334 . S
C229 H247 0.928 . S
H230 C234 0.932 . S
H231 C235 0.928 . S
H232 C236 0.932 . S
H233 C237 0.928 . S
C234 C225 1.332 . S
C234 H230 0.932 . S
C234 C235 1.345 . S
C235 H231 0.928 . S
C235 C234 1.345 . S
C235 C238 1.334 . S
C236 C228 1.332 . S
C236 H232 0.932 . S
C236 C237 1.345 . S
C237 H233 0.928 . S
C237 C236 1.345 . S
C237 C241 1.334 . S
C238 C226 1.334 . S
C238 C235 1.334 . S
C238 C239 1.487 . S
C239 C238 1.487 . S
C239 C240 1.185 . S
C240 C239 1.185 . S
C240 C243 1.482 1_455 S
C241 C229 1.334 . S
C241 C237 1.334 . S
C241 C242 1.487 . S
C242 C241 1.487 . S
C242 C243 1.185 . S
C243 C240 1.482 1_655 S
C243 C242 1.185 . S
H244 C224 0.932 . S
H245 C226 0.928 . S
H246 C227 0.932 . S
H247 C229 0.928 . S
C248 C249 1.332 . S
C248 C250 1.345 . S
C248 H268 0.932 . S
C249 C248 1.332 . S
C249 C258 1.332 . S
C250 C248 1.345 . S
C250 C262 1.334 . S
C250 H269 0.928 . S
C251 C252 1.332 . S
C251 C253 1.345 . S
C251 H270 0.932 . S
C252 C251 1.332 . S
C252 C260 1.332 . S
C253 C251 1.345 . S
C253 C265 1.334 . S
C253 H271 0.928 . S
H254 C258 0.932 . S
H255 C259 0.928 . S
H256 C260 0.932 . S
H257 C261 0.928 . S
C258 C249 1.332 . S
C258 H254 0.932 . S
C258 C259 1.345 . S
C259 H255 0.928 . S
C259 C258 1.345 . S
C259 C262 1.334 . S
C260 C252 1.332 . S
C260 H256 0.932 . S
C260 C261 1.345 . S
C261 H257 0.928 . S
C261 C260 1.345 . S
C261 C265 1.334 . S
C262 C250 1.334 . S
C262 C259 1.334 . S
C262 C263 1.487 . S
C263 C262 1.487 . S
C263 C264 1.185 . S
C264 C263 1.185 . S
C264 C267 1.482 1_546 S
C265 C253 1.334 . S
C265 C261 1.334 . S
C265 C266 1.487 . S
C266 C265 1.487 . S
C266 C267 1.185 . S
C267 C264 1.482 1_564 S
C267 C266 1.185 . S
H268 C248 0.932 . S
H269 C250 0.928 . S
H270 C251 0.932 . S
H271 C253 0.928 . S
C272 C273 1.332 . S
C272 C274 1.345 . S
C272 H292 0.932 . S
C273 C272 1.332 . S
C273 C282 1.332 . S
C274 C272 1.345 . S
C274 C286 1.334 . S
C274 H293 0.928 . S
C275 C276 1.332 . S
C275 C277 1.345 . S
C275 H294 0.932 . S
C276 C275 1.332 . S
C276 C284 1.332 . S
C277 C275 1.345 . S
C277 C289 1.334 . S
C277 H295 0.928 . S
H278 C282 0.932 . S
H279 C283 0.928 . S
H280 C284 0.932 . S
H281 C285 0.928 . S
C282 C273 1.332 . S
C282 H278 0.932 . S
C282 C283 1.345 . S
C283 H279 0.928 . S
C283 C282 1.345 . S
C283 C286 1.334 . S
C284 C276 1.332 . S
C284 H280 0.932 . S
C284 C285 1.345 . S
C285 H281 0.928 . S
C285 C284 1.345 . S
C285 C289 1.334 . S
C286 C274 1.334 . S
C286 C283 1.334 . S
C286 C287 1.487 . S
C287 C286 1.487 . S
C287 C288 1.185 . S
C288 C287 1.185 . S
C288 C291 1.482 1_565 S
C289 C277 1.334 . S
C289 C285 1.334 . S
C289 C290 1.487 . S
C290 C289 1.487 . S
C290 C291 1.185 . S
C291 C288 1.482 1_545 S
C291 C290 1.185 . S
H292 C272 0.932 . S
H293 C274 0.928 . S
H294 C275 0.932 . S
H295 C277 0.928 . S
C296 C297 1.332 . S
C296 C298 1.345 . S
C296 H316 0.932 . S
C297 C296 1.332 . S
C297 C306 1.332 . S
C298 C296 1.345 . S
C298 C310 1.334 . S
C298 H317 0.928 . S
C299 C300 1.332 . S
C299 C301 1.345 . S
C299 H318 0.932 . S
C300 C299 1.332 . S
C300 C308 1.332 . S
C301 C299 1.345 . S
C301 C313 1.334 . S
C301 H319 0.928 . S
H302 C306 0.932 . S
H303 C307 0.928 . S
H304 C308 0.932 . S
H305 C309 0.928 . S
C306 C297 1.332 . S
C306 H302 0.932 . S
C306 C307 1.345 . S
C307 H303 0.928 . S
C307 C306 1.345 . S
C307 C310 1.334 . S
C308 C300 1.332 . S
C308 H304 0.932 . S
C308 C309 1.345 . S
C309 H305 0.928 . S
C309 C308 1.345 . S
C309 C313 1.334 . S
C310 C298 1.334 . S
C310 C307 1.334 . S
C310 C311 1.487 . S
C311 C310 1.487 . S
C311 C312 1.185 . S
C312 C311 1.185 . S
C312 C315 1.482 . S
C313 C301 1.334 . S
C313 C309 1.334 . S
C313 C314 1.487 . S
C314 C313 1.487 . S
C314 C315 1.185 . S
C315 C312 1.482 . S
C315 C314 1.185 . S
H316 C296 0.932 . S
H317 C298 0.928 . S
H318 C299 0.932 . S
H319 C301 0.928 . S
C320 C321 1.332 . S
C320 C322 1.345 . S
C320 H340 0.932 . S
C321 C320 1.332 . S
C321 C330 1.332 . S
C322 C320 1.345 . S
C322 C334 1.334 . S
C322 H341 0.928 . S
C323 C324 1.332 . S
C323 C325 1.345 . S
C323 H342 0.932 . S
C324 C323 1.332 . S
C324 C332 1.332 . S
C325 C323 1.345 . S
C325 C337 1.334 . S
C325 H343 0.928 . S
H326 C330 0.932 . S
H327 C331 0.928 . S
H328 C332 0.932 . S
H329 C333 0.928 . S
C330 C321 1.332 . S
C330 H326 0.932 . S
C330 C331 1.345 . S
C331 H327 0.928 . S
C331 C330 1.345 . S
C331 C334 1.334 . S
C332 C324 1.332 . S
C332 H328 0.932 . S
C332 C333 1.345 . S
C333 H329 0.928 . S
C333 C332 1.345 . S
C333 C337 1.334 . S
C334 C322 1.334 . S
C334 C331 1.334 . S
C334 C335 1.487 . S
C335 C334 1.487 . S
C335 C336 1.185 . S
C336 C335 1.185 . S
C336 C339 1.482 1_556 S
C337 C325 1.334 . S
C337 C333 1.334 . S
C337 C338 1.487 . S
C338 C337 1.487 . S
C338 C339 1.185 . S
C339 C336 1.482 1_554 S
C339 C338 1.185 . S
H340 C320 0.932 . S
H341 C322 0.928 . S
H342 C323 0.932 . S
H343 C325 0.928 . S
C344 C345 1.332 . S
C344 C346 1.345 . S
C344 H364 0.932 . S
C345 C344 1.332 . S
C345 C354 1.332 . S
C346 C344 1.345 . S
C346 C358 1.334 . S
C346 H365 0.928 . S
C347 C348 1.332 . S
C347 C349 1.345 . S
C347 H366 0.932 . S
C348 C347 1.332 . S
C348 C356 1.332 . S
C349 C347 1.345 . S
C349 C361 1.334 . S
C349 H367 0.928 . S
H350 C354 0.932 . S
H351 C355 0.928 . S
H352 C356 0.932 . S
H353 C357 0.928 . S
C354 C345 1.332 . S
C354 H350 0.932 . S
C354 C355 1.345 . S
C355 H351 0.928 . S
C355 C354 1.345 . S
C355 C358 1.334 . S
C356 C348 1.332 . S
C356 H352 0.932 . S
C356 C357 1.345 . S
C357 H353 0.928 . S
C357 C356 1.345 . S
C357 C361 1.334 . S
C358 C346 1.334 . S
C358 C355 1.334 . S
C358 C359 1.487 . S
C359 C358 1.487 . S
C359 C360 1.185 . S
C360 C359 1.185 . S
C360 C363 1.482 . S
C361 C349 1.334 . S
C361 C357 1.334 . S
C361 C362 1.487 . S
C362 C361 1.487 . S
C362 C363 1.185 . S
C363 C360 1.482 . S
C363 C362 1.185 . S
H364 C344 0.932 . S
H365 C346 0.928 . S
H366 C347 0.932 . S
H367 C349 0.928 . S
C368 C369 1.332 . S
C368 C370 1.345 . S
C368 H388 0.932 . S
C369 C368 1.332 . S
C369 C378 1.332 . S
C370 C368 1.345 . S
C370 C382 1.334 . S
C370 H389 0.928 . S
C371 C372 1.332 . S
C371 C373 1.345 . S
C371 H390 0.932 . S
C372 C371 1.332 . S
C372 C380 1.332 . S
C373 C371 1.345 . S
C373 C385 1.334 . S
C373 H391 0.928 . S
H374 C378 0.932 . S
H375 C379 0.928 . S
H376 C380 0.932 . S
H377 C381 0.928 . S
C378 C369 1.332 . S
C378 H374 0.932 . S
C378 C379 1.345 . S
C379 H375 0.928 . S
C379 C378 1.345 . S
C379 C382 1.334 . S
C380 C372 1.332 . S
C380 H376 0.932 . S
C380 C381 1.345 . S
C381 H377 0.928 . S
C381 C380 1.345 . S
C381 C385 1.334 . S
C382 C370 1.334 . S
C382 C379 1.334 . S
C382 C383 1.487 . S
C383 C382 1.487 . S
C383 C384 1.185 . S
C384 C383 1.185 . S
C384 C387 1.482 1_554 S
C385 C373 1.334 . S
C385 C381 1.334 . S
C385 C386 1.487 . S
C386 C385 1.487 . S
C386 C387 1.185 . S
C387 C384 1.482 1_556 S
C387 C386 1.185 . S
H388 C368 0.932 . S
H389 C370 0.928 . S
H390 C371 0.932 . S
H391 C373 0.928 . S
C392 C393 1.332 . S
C392 C394 1.345 . S
C392 H412 0.932 . S
C393 C392 1.332 . S
C393 C402 1.332 . S
C394 C392 1.345 . S
C394 C406 1.334 . S
C394 H413 0.928 . S
C395 C396 1.332 . S
C395 C397 1.345 . S
C395 H414 0.932 . S
C396 C395 1.332 . S
C396 C404 1.332 . S
C397 C395 1.345 . S
C397 C409 1.334 . S
C397 H415 0.928 . S
H398 C402 0.932 . S
H399 C403 0.928 . S
H400 C404 0.932 . S
H401 C405 0.928 . S
C402 C393 1.332 . S
C402 H398 0.932 . S
C402 C403 1.345 . S
C403 H399 0.928 . S
C403 C402 1.345 . S
C403 C406 1.334 . S
C404 C396 1.332 . S
C404 H400 0.932 . S
C404 C405 1.345 . S
C405 H401 0.928 . S
C405 C404 1.345 . S
C405 C409 1.334 . S
C406 C394 1.334 . S
C406 C403 1.334 . S
C406 C407 1.487 . S
C407 C406 1.487 . S
C407 C408 1.185 . S
C408 C407 1.185 . S
C408 C411 1.482 . S
C409 C397 1.334 . S
C409 C405 1.334 . S
C409 C410 1.487 . S
C410 C409 1.487 . S
C410 C411 1.185 . S
C411 C408 1.482 . S
C411 C410 1.185 . S
H412 C392 0.932 . S
H413 C394 0.928 . S
H414 C395 0.932 . S
H415 C397 0.928 . S
C416 C417 1.332 . S
C416 C418 1.345 . S
C416 H436 0.932 . S
C417 C416 1.332 . S
C417 C426 1.332 . S
C418 C416 1.345 . S
C418 C430 1.334 . S
C418 H437 0.928 . S
C419 C420 1.332 . S
C419 C421 1.345 . S
C419 H438 0.932 . S
C420 C419 1.332 . S
C420 C428 1.332 . S
C421 C419 1.345 . S
C421 C433 1.334 . S
C421 H439 0.928 . S
H422 C426 0.932 . S
H423 C427 0.928 . S
H424 C428 0.932 . S
H425 C429 0.928 . S
C426 C417 1.332 . S
C426 H422 0.932 . S
C426 C427 1.345 . S
C427 H423 0.928 . S
C427 C426 1.345 . S
C427 C430 1.334 . S
C428 C420 1.332 . S
C428 H424 0.932 . S
C428 C429 1.345 . S
C429 H425 0.928 . S
C429 C428 1.345 . S
C429 C433 1.334 . S
C430 C418 1.334 . S
C430 C427 1.334 . S
C430 C431 1.487 . S
C431 C430 1.487 . S
C431 C432 1.185 . S
C432 C431 1.185 . S
C432 C435 1.482 . S
C433 C421 1.334 . S
C433 C429 1.334 . S
C433 C434 1.487 . S
C434 C433 1.487 . S
C434 C435 1.185 . S
C435 C432 1.482 . S
C435 C434 1.185 . S
H436 C416 0.932 . S
H437 C418 0.928 . S
H438 C419 0.932 . S
H439 C421 0.928 . S
C440 C441 1.332 . S
C440 C442 1.345 . S
C440 H460 0.932 . S
C441 C440 1.332 . S
C441 C450 1.332 . S
C442 C440 1.345 . S
C442 C454 1.334 . S
C442 H461 0.928 . S
C443 C444 1.332 . S
C443 C445 1.345 . S
C443 H462 0.932 . S
C444 C443 1.332 . S
C444 C452 1.332 . S
C445 C443 1.345 . S
C445 C457 1.334 . S
C445 H463 0.928 . S
H446 C450 0.932 . S
H447 C451 0.928 . S
H448 C452 0.932 . S
H449 C453 0.928 . S
C450 C441 1.332 . S
C450 H446 0.932 . S
C450 C451 1.345 . S
C451 H447 0.928 . S
C451 C450 1.345 . S
C451 C454 1.334 . S
C452 C444 1.332 . S
C452 H448 0.932 . S
C452 C453 1.345 . S
C453 H449 0.928 . S
C453 C452 1.345 . S
C453 C457 1.334 . S
C454 C442 1.334 . S
C454 C451 1.334 . S
C454 C455 1.487 . S
C455 C454 1.487 . S
C455 C456 1.185 . S
C456 C455 1.185 . S
C456 C459 1.482 1_455 S
C457 C445 1.334 . S
C457 C453 1.334 . S
C457 C458 1.487 . S
C458 C457 1.487 . S
C458 C459 1.185 . S
C459 C456 1.482 1_655 S
C459 C458 1.185 . S
H460 C440 0.932 . S
H461 C442 0.928 . S
H462 C443 0.932 . S
H463 C445 0.928 . S
C464 C465 1.332 . S
C464 C466 1.345 . S
C464 H484 0.932 . S
C465 C464 1.332 . S
C465 C474 1.332 . S
C466 C464 1.345 . S
C466 C478 1.334 . S
C466 H485 0.928 . S
C467 C468 1.332 . S
C467 C469 1.345 . S
C467 H486 0.932 . S
C468 C467 1.332 . S
C468 C476 1.332 . S
C469 C467 1.345 . S
C469 C481 1.334 . S
C469 H487 0.928 . S
H470 C474 0.932 . S
H471 C475 0.928 . S
H472 C476 0.932 . S
H473 C477 0.928 . S
C474 C465 1.332 . S
C474 H470 0.932 . S
C474 C475 1.345 . S
C475 H471 0.928 . S
C475 C474 1.345 . S
C475 C478 1.334 . S
C476 C468 1.332 . S
C476 H472 0.932 . S
C476 C477 1.345 . S
C477 H473 0.928 . S
C477 C476 1.345 . S
C477 C481 1.334 . S
C478 C466 1.334 . S
C478 C475 1.334 . S
C478 C479 1.487 . S
C479 C478 1.487 . S
C479 C480 1.185 . S
C480 C479 1.185 . S
C480 C483 1.482 1_455 S
C481 C469 1.334 . S
C481 C477 1.334 . S
C481 C482 1.487 . S
C482 C481 1.487 . S
C482 C483 1.185 . S
C483 C480 1.482 1_655 S
C483 C482 1.185 . S
H484 C464 0.932 . S
H485 C466 0.928 . S
H486 C467 0.932 . S
H487 C469 0.928 . S
C105 C4 1.950 . S
C108 C30 1.950 . S
C129 C49 1.950 . S
C132 C17 1.950 . S
C153 C82 1.950 . S
C156 C56 1.950 . S
C177 C69 1.950 . S
C180 C95 1.950 . S
C201 C23 1.125 . S
C204 C43 1.125 . S
C225 C10 1.125 . S
C228 C36 1.125 . S
C249 C101 1.125 . S
C252 C75 1.125 . S
C273 C62 1.125 . S
C276 C88 1.125 . S
C297 C68 1.527 . S
C300 C44 1.527 . S
C321 C29 1.527 . S
C324 C55 1.527 . S
C345 C16 1.527 . S
C348 C94 1.527 . S
C369 C3 1.527 . S
C372 C81 1.527 . S
C393 C5 1.553 . S
C396 C18 1.553 . S
C417 C31 1.553 . S
C420 C42 1.553 . S
C441 C70 1.553 . S
C444 C57 1.553 . S
C465 C83 1.553 . S
C468 C96 1.553 . S
