# Generated by pormake.
# Topology afw, (4)-cn, num edge types: 1
# Building blocks:
#     Node 0, Type 0, BuildingBlock: UXUYUI_clean_sbu_0, # of connection points: 4
#     Node 1, Type 0, BuildingBlock: UXUYUI_clean_sbu_0, # of connection points: 4
#     Node 2, Type 0, BuildingBlock: UXUYUI_clean_sbu_0, # of connection points: 4
#     Node 3, Type 0, BuildingBlock: UXUYUI_clean_sbu_0, # of connection points: 4
#     Node 4, Type 0, BuildingBlock: UXUYUI_clean_sbu_0, # of connection points: 4
#     Node 5, Type 0, BuildingBlock: UXUYUI_clean_sbu_0, # of connection points: 4
#     Node 6, Type 0, BuildingBlock: UXUYUI_clean_sbu_0, # of connection points: 4
#     Node 7, Type 0, BuildingBlock: UXUYUI_clean_sbu_0, # of connection points: 4
#     Node 8, Type 0, BuildingBlock: UXUYUI_clean_sbu_0, # of connection points: 4
#     Edge 9, Type (0, 0), BuildingBlock: XIVTED_clean_linker_0, # of connection points: 2
#     Edge 10, Type (0, 0), BuildingBlock: XIVTED_clean_linker_0, # of connection points: 2
#     Edge 11, Type (0, 0), BuildingBlock: XIVTED_clean_linker_0, # of connection points: 2
#     Edge 12, Type (0, 0), BuildingBlock: XIVTED_clean_linker_0, # of connection points: 2
#     Edge 13, Type (0, 0), BuildingBlock: XIVTED_clean_linker_0, # of connection points: 2
#     Edge 14, Type (0, 0), BuildingBlock: XIVTED_clean_linker_0, # of connection points: 2
#     Edge 15, Type (0, 0), BuildingBlock: XIVTED_clean_linker_0, # of connection points: 2
#     Edge 16, Type (0, 0), BuildingBlock: XIVTED_clean_linker_0, # of connection points: 2
#     Edge 17, Type (0, 0), BuildingBlock: XIVTED_clean_linker_0, # of connection points: 2
#     Edge 18, Type (0, 0), BuildingBlock: XIVTED_clean_linker_0, # of connection points: 2
#     Edge 19, Type (0, 0), BuildingBlock: XIVTED_clean_linker_0, # of connection points: 2
#     Edge 20, Type (0, 0), BuildingBlock: XIVTED_clean_linker_0, # of connection points: 2
#     Edge 21, Type (0, 0), BuildingBlock: XIVTED_clean_linker_0, # of connection points: 2
#     Edge 22, Type (0, 0), BuildingBlock: XIVTED_clean_linker_0, # of connection points: 2
#     Edge 23, Type (0, 0), BuildingBlock: XIVTED_clean_linker_0, # of connection points: 2
#     Edge 24, Type (0, 0), BuildingBlock: XIVTED_clean_linker_0, # of connection points: 2
#     Edge 25, Type (0, 0), BuildingBlock: XIVTED_clean_linker_0, # of connection points: 2
#     Edge 26, Type (0, 0), BuildingBlock: XIVTED_clean_linker_0, # of connection points: 2
# Relax obj value: 0.350
# Max RMSD: 0.270
# Mean RMSD: 0.270
data_MOF--net-afw--node1-UXUYUI_clean_sbu_0--edge1-XIVTED_clean_linker_0
_symmetry_space_group_name_H-M    P1
_symmetry_Int_Tables_number       1
_symmetry_cell_setting            triclinic
loop_
_symmetry_equiv_pos_as_xyz
'x, y, z'
_cell_length_a     57.576022
_cell_length_b     57.52177
_cell_length_c     53.957585
_cell_angle_alpha  89.990584
_cell_angle_beta   89.979462
_cell_angle_gamma 119.97601
loop_
_atom_site_label
_atom_site_type_symbol
_atom_site_fract_x
_atom_site_fract_y
_atom_site_fract_z
_atom_type_partial_charge
Li0 Li 0.00544 0.23876 0.02647 0.0
Li1 Li 0.98284 0.20004 0.00039 0.0
Li2 Li 0.03073 0.21849 0.00771 0.0
Li3 Li 0.01325 0.24055 0.98183 0.0
C4 C 0.98273 0.18007 0.04411 0.0
N5 N 0.94369 0.13282 0.06532 0.0
C6 C 0.96456 0.18043 0.0611 0.0
C7 C 0.98098 0.15565 0.03787 0.0
C8 C 0.94503 0.15634 0.07167 0.0
C9 C 0.96109 0.13198 0.04877 0.0
C10 C 0.95343 0.2244 0.00012 0.0
C11 C 0.91038 0.2056 0.97998 0.0
N12 N 0.89913 0.20671 0.00179 0.0
C13 C 0.94147 0.22547 0.02232 0.0
C14 C 0.93781 0.21454 0.97873 0.0
C15 C 0.91398 0.21641 0.02279 0.0
C16 C 0.00422 0.28187 0.04788 0.0
N17 N 0.00537 0.25944 0.05334 0.0
C18 C 0.00656 0.26809 0.09664 0.0
C19 C 0.0071 0.25257 0.07706 0.0
C20 C 0.00452 0.29101 0.09165 0.0
C21 C 0.00377 0.29806 0.06686 0.0
H22 H 0.00337 0.28698 0.02873 0.0
H23 H 0.00863 0.23491 0.08075 0.0
C24 C 0.95224 0.14921 0.97922 0.0
N25 N 0.95046 0.1663 0.99547 0.0
C26 C 0.93101 0.12307 0.97646 0.0
C27 C 0.90603 0.13255 0.00683 0.0
C28 C 0.92779 0.15856 0.00899 0.0
C29 C 0.90767 0.11427 0.99069 0.0
H30 H 0.97063 0.15545 0.96914 0.0
H31 H 0.92693 0.17211 0.02228 0.0
C32 C 0.06104 0.27162 0.024 0.0
N33 N 0.10272 0.30203 0.05611 0.0
C34 C 0.07994 0.29809 0.018 0.0
C35 C 0.06333 0.26058 0.04632 0.0
C36 C 0.10087 0.31315 0.03448 0.0
C37 C 0.08454 0.27629 0.06231 0.0
C38 C 0.01444 0.20644 0.95142 0.0
C39 C 0.03907 0.21191 0.94145 0.0
C40 C 0.99364 0.20269 0.9356 0.0
C41 C 0.04263 0.21403 0.91577 0.0
C42 C -0.00201 0.20499 0.91002 0.0
N43 N 0.02221 0.21061 0.90072 0.0
C44 C 0.05788 0.19282 0.02707 0.0
C45 C 0.08301 0.22895 -0.0005 0.0
C46 C 0.07904 0.18764 0.0289 0.0
N47 N 0.06004 0.21277 0.01208 0.0
C48 C 0.10471 0.22457 0.00084 0.0
C49 C 0.10269 0.20332 0.01531 0.0
H50 H 0.03959 0.18065 0.03727 0.0
H51 H 0.08425 0.24498 0.98805 0.0
C52 C 0.00381 0.26822 0.94342 0.0
N53 N 0.02225 0.26331 0.95418 0.0
C54 C 0.0109 0.28531 0.92301 0.0
C55 C 0.05579 0.29195 0.92537 0.0
C56 C 0.04787 0.27487 0.94579 0.0
C57 C 0.0372 0.2974 0.91373 0.0
H58 H 0.98368 0.25899 0.95078 0.0
H59 H 0.06206 0.27062 0.95493 0.0
O60 O 0.00175 0.20341 0.03329 0.0
O61 O 0.98038 0.23347 -0.00078 0.0
O62 O 0.04041 0.25675 0.00802 0.0
O63 O 0.01073 0.20492 0.97655 0.0
H64 H 0.9652 0.19901 0.06576 0.0
H65 H 0.99443 0.15488 0.02432 0.0
H66 H 0.93078 0.15632 0.08476 0.0
H67 H 0.95937 0.11293 0.04395 0.0
H68 H 0.89803 0.19778 0.96359 0.0
H69 H 0.95315 0.23295 0.03909 0.0
H70 H 0.94671 0.21365 0.96137 0.0
H71 H 0.90444 0.217 0.03986 0.0
H72 H 0.00692 0.26174 0.11546 0.0
H73 H 0.00267 0.31579 0.06216 0.0
H74 H 0.93346 0.10953 0.96422 0.0
H75 H 0.8884 0.12663 0.01814 0.0
H76 H 0.07841 0.3069 0.00077 0.0
H77 H 0.04891 0.24013 0.05129 0.0
H78 H 0.11565 0.33367 0.03008 0.0
H79 H 0.08655 0.26802 0.07965 0.0
H80 H 0.05531 0.21465 0.95339 0.0
H81 H 0.97441 0.19826 0.94302 0.0
H82 H 0.06165 0.21844 0.9078 0.0
H83 H 0.98213 0.20236 0.89757 0.0
H84 H 0.07647 0.17091 0.04013 0.0
H85 H 0.12272 0.23744 0.99041 0.0
H86 H -0.00394 0.28928 0.91483 0.0
H87 H 0.07615 0.3005 0.91862 0.0
Li88 Li 0.82722 0.80572 -0.00062 0.0
Li89 Li 0.78769 0.79181 0.0253 0.0
Li90 Li 0.78291 0.78603 0.97946 0.0
Li91 Li 0.80125 0.83012 -0.00068 0.0
C92 C 0.80058 0.74842 -0.00111 0.0
N93 N 0.80941 0.70623 0.98938 0.0
C94 C 0.80177 0.73305 0.01841 0.0
C95 C 0.80341 0.74199 0.97451 0.0
C96 C 0.8064 0.71191 0.01323 0.0
C97 C 0.80799 0.72068 0.97009 0.0
C98 C 0.82788 0.82957 0.05121 0.0
C99 C 0.81861 0.83916 0.09238 0.0
N100 N 0.83842 0.83524 0.10147 0.0
C101 C 0.84828 0.82582 0.06093 0.0
C102 C 0.81305 0.83649 0.06701 0.0
C103 C 0.85326 0.82873 0.08641 0.0
C104 C 0.88034 0.83289 0.98454 0.0
N105 N 0.86215 0.81047 -0.00324 0.0
C106 C 0.89517 0.79769 0.00417 0.0
C107 C 0.86903 0.79304 0.00673 0.0
C108 C 0.91422 0.82045 0.99118 0.0
C109 C 0.90653 0.83818 0.98133 0.0
H110 H 0.87446 0.84673 0.97732 0.0
H111 H 0.85441 0.77574 0.01694 0.0
C112 C 0.74652 0.77071 0.06111 0.0
N113 N 0.77161 0.77551 0.05577 0.0
C114 C 0.73429 0.75848 0.08346 0.0
C115 C 0.77407 0.75657 0.09431 0.0
C116 C 0.78537 0.76854 0.07169 0.0
C117 C 0.74819 0.75136 0.10037 0.0
H118 H 0.73595 0.77622 0.04796 0.0
H119 H 0.80514 0.77225 0.06678 0.0
C120 C 0.82559 0.8234 0.94716 0.0
N121 N 0.84498 0.83067 0.89922 0.0
C122 C 0.82461 0.84243 0.93174 0.0
C123 C 0.83674 0.80831 0.93825 0.0
C124 C 0.83441 0.84573 0.90755 0.0
C125 C 0.84636 0.81222 0.91396 0.0
C126 C 0.74883 0.80977 -0.00056 0.0
C127 C 0.73579 0.80691 0.97685 0.0
C128 C 0.7459 0.82448 0.01858 0.0
C129 C 0.72021 0.81908 0.9737 0.0
C130 C 0.73019 0.8364 0.01468 0.0
N131 N 0.71779 0.83348 0.99251 0.0
C132 C 0.7409 0.73819 0.96168 0.0
C133 C 0.76391 0.7702 0.93001 0.0
C134 C 0.72317 0.7199 0.9444 0.0
N135 N 0.76069 0.76277 0.95423 0.0
C136 C 0.7469 0.75244 0.91209 0.0
C137 C 0.72613 0.72703 0.91926 0.0
H138 H 0.73881 0.73295 0.98113 0.0
H139 H 0.77929 0.78999 0.92454 0.0
C140 C 0.81947 0.88277 0.01488 0.0
N141 N 0.8048 0.86474 -0.00299 0.0
C142 C 0.82373 0.90881 0.014 0.0
C143 C 0.79763 0.89738 0.9763 0.0
C144 C 0.79382 0.87145 0.97795 0.0
C145 C 0.81291 0.91649 0.99443 0.0
H146 H 0.82838 0.87711 0.02958 0.0
H147 H 0.78237 0.85678 0.96388 0.0
O148 O 0.79595 0.76912 0.0037 0.0
O149 O 0.82254 0.82654 0.02635 0.0
O150 O 0.81602 0.81996 0.97091 0.0
O151 O 0.76437 0.79822 0.0028 0.0
H152 H 0.7993 0.73748 0.03737 0.0
H153 H 0.80182 0.7531 0.95912 0.0
H154 H 0.80755 0.69999 0.02818 0.0
H155 H 0.81028 0.71556 0.95131 0.0
H156 H 0.80714 0.8443 0.10484 0.0
H157 H 0.86003 0.82058 0.04896 0.0
H158 H 0.79721 0.83948 0.05977 0.0
H159 H 0.86888 0.82575 0.09421 0.0
H160 H 0.9004 0.78365 0.01218 0.0
H161 H 0.92078 0.85631 0.97173 0.0
H162 H 0.7143 0.75478 0.08752 0.0
H163 H 0.78524 0.75094 0.1067 0.0
H164 H 0.81629 0.85447 0.93834 0.0
H165 H 0.8383 0.79397 0.95002 0.0
H166 H 0.83365 0.8603 0.89539 0.0
H167 H 0.85503 0.80065 0.90685 0.0
H168 H 0.73782 0.79557 0.96186 0.0
H169 H 0.75584 0.82686 0.03618 0.0
H170 H 0.7101 0.81714 0.95629 0.0
H171 H 0.72788 0.84799 0.02927 0.0
H172 H 0.7073 0.70049 0.95058 0.0
H173 H 0.74942 0.75886 0.89292 0.0
H174 H 0.83615 0.92303 0.02807 0.0
H175 H 0.78886 0.90244 0.96094 0.0
Li176 Li 0.22346 0.03828 -0.00373 0.0
Li177 Li 0.23959 0.01259 0.01752 0.0
Li178 Li 0.2394 0.01543 0.9721 0.0
Li179 Li 0.19693 0.9891 0.99359 0.0
C180 C 0.2765 0.0708 0.00155 0.0
N181 N 0.30892 0.1246 0.01258 0.0
C182 C 0.28444 0.07895 0.026 0.0
C183 C 0.2853 0.09002 0.98269 0.0
C184 C 0.30078 0.10624 0.0312 0.0
C185 C 0.30158 0.11711 0.98865 0.0
C186 C 0.19321 0.02299 0.03646 0.0
C187 C 0.19092 0.04804 0.07129 0.0
N188 N 0.16902 0.04741 0.06108 0.0
C189 C 0.17059 0.02248 0.02637 0.0
C190 C 0.20345 0.03581 0.05913 0.0
C191 C 0.15869 0.035 0.03907 0.0
C192 C 0.20478 0.07275 0.98091 0.0
N193 N 0.21972 0.06953 -0.00138 0.0
C194 C 0.2238 0.10722 0.02112 0.0
C195 C 0.2294 0.08639 0.01841 0.0
C196 C 0.208 0.11066 0.00332 0.0
C197 C 0.19878 0.09333 0.98282 0.0
H198 H 0.19652 0.05866 0.9658 0.0
H199 H 0.24046 0.08302 0.03271 0.0
C200 C 0.28417 0.0197 0.04488 0.0
N201 N 0.25729 0.00992 0.0457 0.0
C202 C 0.29819 0.02173 0.0666 0.0
C203 C 0.2562 0.00162 0.08907 0.0
C204 C 0.24307 0.00028 0.067 0.0
C205 C 0.28425 0.01335 0.08922 0.0
H206 H 0.29486 0.02729 0.0276 0.0
H207 H 0.22166 0.99251 0.06702 0.0
C208 C 0.20502 0.01975 0.94226 0.0
N209 N 0.20547 0.02734 0.89163 0.0
C210 C 0.1856 -0.00034 0.92722 0.0
C211 C 0.22433 0.0439 0.93159 0.0
C212 C 0.18624 0.00383 0.90165 0.0
C213 C 0.22433 0.0473 0.90596 0.0
C214 C 0.22246 0.95932 0.00377 0.0
C215 C 0.23318 0.94411 0.99422 0.0
C216 C 0.20613 0.95037 0.0248 0.0
C217 C 0.2274 0.92014 0.00595 0.0
C218 C 0.20082 0.92631 0.036 0.0
N219 N 0.21148 0.91181 0.02642 0.0
C220 C 0.28344 0.03492 0.93895 0.0
C221 C 0.24379 0.9955 0.9265 0.0
C222 C 0.29634 0.03483 0.91706 0.0
N223 N 0.25761 0.01553 0.94306 0.0
C224 C 0.25568 0.99493 0.90423 0.0
C225 C 0.28225 0.01478 0.89935 0.0
H226 H 0.29401 0.05037 0.95267 0.0
H227 H 0.22344 0.98007 0.93059 0.0
C228 C 0.14587 0.95313 0.01239 0.0
N229 N 0.16263 0.95791 0.99291 0.0
C230 C 0.11994 0.9312 0.01202 0.0
C231 C 0.12934 0.91878 0.97201 0.0
C232 C 0.15523 0.94093 0.97325 0.0
C233 C 0.1112 0.91398 0.99142 0.0
H234 H 0.15251 0.96655 0.02809 0.0
H235 H 0.16931 0.94485 0.95837 0.0
O236 O 0.26068 0.04413 -0.00395 0.0
O237 O 0.20552 0.01142 0.02398 0.0
O238 O 0.20503 0.01588 0.9673 0.0
O239 O 0.22797 0.98279 0.99241 0.0
H240 H 0.27761 0.0645 0.04092 0.0
H241 H 0.27975 0.08413 0.96363 0.0
H242 H 0.30687 0.11283 0.05006 0.0
H243 H 0.30845 0.13219 0.97424 0.0
H244 H 0.19871 0.05816 0.08878 0.0
H245 H 0.16259 0.01287 0.0087 0.0
H246 H 0.22111 0.03667 0.06707 0.0
H247 H 0.14132 0.03494 0.03139 0.0
H248 H 0.23125 0.1201 0.03724 0.0
H249 H 0.18598 0.09482 0.96897 0.0
H250 H 0.31982 0.03115 0.06586 0.0
H251 H 0.2446 0.99442 0.10598 0.0
H252 H 0.1702 0.98105 0.93516 0.0
H253 H 0.23923 0.05976 0.94299 0.0
H254 H 0.17144 0.98838 0.88978 0.0
H255 H 0.23932 0.06581 0.89745 0.0
H256 H 0.24583 0.95077 0.97791 0.0
H257 H 0.19762 0.96184 0.03242 0.0
H258 H 0.23557 0.90816 -0.00123 0.0
H259 H 0.18822 0.91916 0.05229 0.0
H260 H 0.31693 0.05033 0.91388 0.0
H261 H 0.24442 0.97886 0.89116 0.0
H262 H 0.10657 0.92841 0.02729 0.0
H263 H 0.12348 0.90575 0.95597 0.0
Li264 Li 0.65745 0.54127 0.33711 0.0
Li265 Li 0.68082 0.58148 0.36169 0.0
Li266 Li 0.68078 0.58459 0.31686 0.0
Li267 Li 0.70655 0.56803 0.33807 0.0
C268 C 0.62684 0.56452 0.32646 0.0
N269 N 0.58102 0.55175 0.29981 0.0
C270 C 0.60798 0.57071 0.33592 0.0
C271 C 0.62239 0.55182 0.30345 0.0
C272 C 0.58494 0.56409 0.32216 0.0
C273 C 0.59911 0.54553 0.29026 0.0
C274 C 0.68442 0.54578 0.39038 0.0
C275 C 0.70818 0.56442 0.42868 0.0
N276 N 0.68905 0.5427 0.44113 0.0
C277 C 0.66522 0.52347 0.40354 0.0
C278 C 0.70628 0.56624 0.40303 0.0
C279 C 0.66784 0.52235 0.42919 0.0
C280 C 0.62015 0.4902 0.31599 0.0
N281 N 0.62632 0.5065 0.33609 0.0
C282 C 0.58929 0.47223 0.3586 0.0
C283 C 0.61076 0.49843 0.35675 0.0
C284 C 0.58364 0.45429 0.33882 0.0
C285 C 0.59891 0.46383 0.31702 0.0
H286 H 0.63207 0.49734 0.29934 0.0
H287 H 0.61548 0.51221 0.37206 0.0
C288 C 0.69791 0.62336 0.39668 0.0
N289 N 0.67868 0.59783 0.39118 0.0
C290 C 0.69684 0.63502 0.41901 0.0
C291 C 0.65612 0.59388 0.42931 0.0
C292 C 0.65782 0.58315 0.40671 0.0
C293 C 0.67588 0.62008 0.43571 0.0
H294 H 0.71415 0.63456 0.38382 0.0
H295 H 0.64275 0.56296 0.40162 0.0
C296 C 0.68575 0.53162 0.29943 0.0
N297 N 0.69247 0.49033 0.28153 0.0
C298 C 0.68544 0.51251 0.31569 0.0
C299 C 0.68965 0.52979 0.2741 0.0
C300 C 0.68882 0.49177 0.30627 0.0
C301 C 0.69295 0.50874 0.26541 0.0
C302 C 0.73783 0.62009 0.33459 0.0
C303 C 0.74624 0.6271 0.31004 0.0
C304 C 0.7569 0.62867 0.35354 0.0
C305 C 0.77362 0.64242 0.30486 0.0
C306 C 0.7841 0.64393 0.34759 0.0
N307 N 0.79183 0.65042 0.32358 0.0
C308 C 0.6841 0.63029 0.29592 0.0
C309 C 0.67718 0.59657 0.26674 0.0
C310 C 0.68647 0.64778 0.27693 0.0
N311 N 0.68003 0.60549 0.29045 0.0
C312 C 0.67933 0.61336 0.24716 0.0
C313 C 0.68459 0.63953 0.25216 0.0
H314 H 0.6863 0.63671 0.31505 0.0
H315 H 0.67401 0.57673 0.26305 0.0
C316 C 0.74549 0.55593 0.35601 0.0
N317 N 0.73824 0.56546 0.33621 0.0
C318 C 0.76667 0.55084 0.35411 0.0
C319 C 0.77296 0.56592 0.31155 0.0
C320 C 0.75162 0.57075 0.3143 0.0
C321 C 0.7804 0.55536 0.33152 0.0
H322 H 0.73413 0.5511 0.37297 0.0
H323 H 0.74508 0.57778 0.29867 0.0
O324 O 0.64943 0.57087 0.33984 0.0
O325 O 0.68197 0.54745 0.36527 0.0
O326 O 0.68324 0.55259 0.30821 0.0
O327 O 0.71112 0.60474 0.34001 0.0
H328 H 0.61113 0.58051 0.35373 0.0
H329 H 0.63669 0.54679 0.29583 0.0
H330 H 0.57017 0.56877 0.32926 0.0
H331 H 0.59542 0.53569 0.27244 0.0
H332 H 0.72484 0.58028 0.43869 0.0
H333 H 0.64858 0.50707 0.39407 0.0
H334 H 0.72144 0.58351 0.39313 0.0
H335 H 0.65305 0.50525 0.43959 0.0
H336 H 0.57761 0.46593 0.37552 0.0
H337 H 0.59532 0.45077 0.3013 0.0
H338 H 0.71244 0.65527 0.42337 0.0
H339 H 0.63943 0.5819 0.44156 0.0
H340 H 0.68262 0.51358 0.33536 0.0
H341 H 0.69028 0.54456 0.26129 0.0
H342 H 0.68858 0.47685 0.31863 0.0
H343 H 0.69597 0.50708 0.24584 0.0
H344 H 0.73187 0.62046 0.29508 0.0
H345 H 0.75082 0.62361 0.37264 0.0
H346 H 0.7804 0.64784 0.28593 0.0
H347 H 0.79907 0.65061 0.36207 0.0
H348 H 0.69028 0.6677 0.28156 0.0
H349 H 0.6781 0.60634 0.22832 0.0
H350 H 0.77126 0.5421 0.36981 0.0
H351 H 0.78303 0.56973 0.29382 0.0
Li352 Li 0.48845 0.13838 0.33346 0.0
Li353 Li 0.44727 0.12217 0.35638 0.0
Li354 Li 0.44849 0.12577 0.31143 0.0
Li355 Li 0.46697 0.16621 0.33591 0.0
C356 C 0.46591 0.08486 0.3307 0.0
N357 N 0.48604 0.0502 0.32819 0.0
C358 C 0.46077 0.06646 0.34979 0.0
C359 C 0.48106 0.08541 0.31022 0.0
C360 C 0.47119 0.04916 0.3482 0.0
C361 C 0.49112 0.0678 0.30932 0.0
C362 C 0.49637 0.1536 0.38335 0.0
C363 C 0.52978 0.17562 0.41518 0.0
N364 N 0.52539 0.15132 0.42316 0.0
C365 C 0.49215 0.12888 0.39195 0.0
C366 C 0.51528 0.17719 0.39512 0.0
C367 C 0.50702 0.12812 0.41207 0.0
C368 C 0.54098 0.16107 0.31713 0.0
N369 N 0.52305 0.14152 0.33235 0.0
C370 C 0.55614 0.13047 0.34511 0.0
C371 C 0.53007 0.12621 0.3462 0.0
C372 C 0.57512 0.15069 0.32965 0.0
C373 C 0.56718 0.16596 0.31542 0.0
H374 H 0.53507 0.17325 0.3066 0.0
H375 H 0.51555 0.11073 0.35817 0.0
C376 C 0.40653 0.07586 0.37724 0.0
N377 N 0.42583 0.10124 0.38301 0.0
C378 C 0.39127 0.05802 0.39592 0.0
C379 C 0.41503 0.09332 0.42599 0.0
C380 C 0.42982 0.11051 0.40668 0.0
C381 C 0.39594 0.06649 0.42073 0.0
H382 H 0.40363 0.06928 0.35814 0.0
H383 H 0.44507 0.13097 0.41066 0.0
C384 C 0.48226 0.16277 0.28209 0.0
N385 N 0.47831 0.16867 0.23171 0.0
C386 C 0.47112 0.1779 0.27329 0.0
C387 C 0.49166 0.15087 0.26528 0.0
C388 C 0.46924 0.1806 0.24775 0.0
C389 C 0.4894 0.15402 0.23988 0.0
C390 C 0.41345 0.14295 0.34943 0.0
C391 C 0.38717 0.13483 0.34226 0.0
C392 C 0.42352 0.15724 0.37151 0.0
C393 C 0.37136 0.14118 0.3573 0.0
C394 C 0.40708 0.16319 0.38604 0.0
N395 N 0.38156 0.1551 0.3787 0.0
C396 C 0.42832 0.08824 0.27201 0.0
C397 C 0.41267 0.11931 0.2737 0.0
C398 C 0.41236 0.07577 0.25136 0.0
N399 N 0.42817 0.10957 0.28265 0.0
C400 C 0.39642 0.10749 0.25308 0.0
C401 C 0.39601 0.08529 0.24175 0.0
H402 H 0.44042 0.08059 0.27975 0.0
H403 H 0.41287 0.13621 0.28272 0.0
C404 C 0.49873 0.22017 0.34639 0.0
N405 N 0.47394 0.20197 0.33811 0.0
C406 C 0.50608 0.24711 0.34858 0.0
C407 C 0.4624 0.23625 0.33303 0.0
C408 C 0.4558 0.20938 0.33134 0.0
C409 C 0.48782 0.25545 0.34186 0.0
H410 H 0.51292 0.21374 0.35096 0.0
H411 H 0.43633 0.1945 0.32444 0.0
O412 O 0.45582 0.10195 0.33193 0.0
O413 O 0.48203 0.1548 0.36364 0.0
O414 O 0.48363 0.15932 0.30702 0.0
O415 O 0.42904 0.13674 0.33485 0.0
H416 H 0.44893 0.06552 0.36571 0.0
H417 H 0.48535 0.09956 0.29534 0.0
H418 H 0.46745 0.03491 0.36289 0.0
H419 H 0.50305 0.06818 0.29367 0.0
H420 H 0.5445 0.19373 0.42443 0.0
H421 H 0.47761 0.11046 0.38314 0.0
H422 H 0.51871 0.19652 0.38891 0.0
H423 H 0.50396 0.10909 0.41883 0.0
H424 H 0.56141 0.11815 0.35629 0.0
H425 H 0.58129 0.18216 0.30366 0.0
H426 H 0.37643 0.03764 0.39104 0.0
H427 H 0.41939 0.10062 0.44488 0.0
H428 H 0.46367 0.18717 0.28603 0.0
H429 H 0.50054 0.13929 0.27176 0.0
H430 H 0.46048 0.19209 0.24068 0.0
H431 H 0.49646 0.14481 0.22666 0.0
H432 H 0.37908 0.12373 0.32522 0.0
H433 H 0.44381 0.16377 0.37737 0.0
H434 H 0.35098 0.13502 0.35197 0.0
H435 H 0.41462 0.17424 0.40315 0.0
H436 H 0.41233 0.05847 0.2434 0.0
H437 H 0.38437 0.11567 0.24606 0.0
H438 H 0.52609 0.26137 0.35493 0.0
H439 H 0.4478 0.24193 0.32762 0.0
Li440 Li 0.89893 0.34768 0.35805 0.0
Li441 Li 0.88324 0.37322 0.3341 0.0
Li442 Li 0.8587 0.32276 0.3345 0.0
Li443 Li 0.90077 0.34801 0.31171 0.0
C444 C 0.86271 0.35103 0.38684 0.0
N445 N 0.85944 0.35726 0.43727 0.0
C446 C 0.86769 0.37568 0.3964 0.0
C447 C 0.85572 0.32944 0.4029 0.0
C448 C 0.866 0.37845 0.42196 0.0
C449 C 0.85429 0.33303 0.42834 0.0
C450 C 0.93991 0.40432 0.33152 0.0
C451 C 0.96533 0.442 0.30432 0.0
N452 N 0.98009 0.45677 0.32398 0.0
C453 C 0.95558 0.41977 0.3514 0.0
C454 C 0.94503 0.41543 0.30774 0.0
C455 C 0.9757 0.44629 0.34724 0.0
C456 C 0.92211 0.32725 0.39119 0.0
N457 N 0.91684 0.34751 0.38733 0.0
C458 C 0.93618 0.36723 0.42628 0.0
C459 C 0.92387 0.36748 0.40417 0.0
C460 C 0.94162 0.3464 0.43092 0.0
C461 C 0.93463 0.32631 0.413 0.0
H462 H 0.9166 0.31181 0.37734 0.0
H463 H 0.91979 0.38355 0.40047 0.0
C464 C 0.85527 0.39895 0.32131 0.0
N465 N 0.87833 0.40346 0.33239 0.0
C466 C 0.84974 0.41976 0.31851 0.0
C467 C 0.89138 0.44943 0.33941 0.0
C468 C 0.8962 0.428 0.34166 0.0
C469 C 0.86796 0.44544 0.32753 0.0
H470 H 0.84112 0.37909 0.31463 0.0
H471 H 0.91401 0.43094 0.35102 0.0
C472 C 0.87885 0.29027 0.33392 0.0
N473 N 0.85469 0.23502 0.33146 0.0
C474 C 0.88037 0.27791 0.31217 0.0
C475 C 0.86535 0.27456 0.35452 0.0
C476 C 0.86796 0.24994 0.31127 0.0
C477 C 0.85317 0.24666 0.35288 0.0
C478 C 0.86199 0.35265 0.28255 0.0
C479 C 0.84211 0.33218 0.26814 0.0
C480 C 0.87677 0.37851 0.27272 0.0
C481 C 0.83782 0.3378 0.24393 0.0
C482 C 0.87185 0.38335 0.24845 0.0
N483 N 0.85268 0.36304 0.23466 0.0
C484 C 0.80671 0.28885 0.35208 0.0
C485 C 0.81693 0.27366 0.31503 0.0
C486 C 0.78064 0.26712 0.35188 0.0
N487 N 0.82415 0.29177 0.33377 0.0
C488 C 0.79101 0.25156 0.3141 0.0
C489 C 0.77239 0.24826 0.33257 0.0
H490 H 0.81284 0.30376 0.36653 0.0
H491 H 0.83116 0.2766 0.30059 0.0
C492 C 0.94728 0.36167 0.28353 0.0
N493 N 0.92002 0.34801 0.28342 0.0
C494 C 0.96146 0.36193 0.26243 0.0
C495 C 0.91917 0.33361 0.24186 0.0
C496 C 0.90589 0.33381 0.26332 0.0
C497 C 0.94731 0.3479 0.2412 0.0
H498 H 0.95799 0.37236 0.29999 0.0
H499 H 0.88429 0.32224 0.26409 0.0
O500 O 0.86449 0.34802 0.36188 0.0
O501 O 0.92011 0.37831 0.33533 0.0
O502 O 0.89063 0.31762 0.33507 0.0
O503 O 0.86645 0.34742 0.30631 0.0
H504 H 0.87296 0.39255 0.38426 0.0
H505 H 0.85163 0.31019 0.39581 0.0
H506 H 0.86995 0.39746 0.42963 0.0
H507 H 0.84911 0.31655 0.44099 0.0
H508 H 0.96943 0.45084 0.28601 0.0
H509 H 0.95221 0.41147 0.36987 0.0
H510 H 0.93374 0.4036 0.292 0.0
H511 H 0.98784 0.45851 0.3625 0.0
H512 H 0.94177 0.38339 0.43943 0.0
H513 H 0.93852 0.30993 0.41593 0.0
H514 H 0.83111 0.41564 0.30981 0.0
H515 H 0.90585 0.46889 0.34674 0.0
H516 H 0.89093 0.28974 0.29613 0.0
H517 H 0.86413 0.28381 0.37154 0.0
H518 H 0.86885 0.24009 0.29452 0.0
H519 H 0.84249 0.23425 0.36862 0.0
H520 H 0.83022 0.31213 0.2755 0.0
H521 H 0.89158 0.39479 0.2838 0.0
H522 H 0.82264 0.32209 0.23253 0.0
H523 H 0.8832 0.40327 0.24063 0.0
H524 H 0.76682 0.26574 0.3662 0.0
H525 H 0.78554 0.23743 0.29895 0.0
H526 H 0.98317 0.37308 0.26266 0.0
H527 H 0.90753 0.32186 0.22614 0.0
Li528 Li 0.33842 0.90195 0.6866 0.0
Li529 Li 0.31269 0.86025 0.66295 0.0
Li530 Li 0.36281 0.88281 0.66508 0.0
Li531 Li 0.33985 0.90068 0.64046 0.0
C532 C 0.34099 0.86056 0.71531 0.0
N533 N 0.35128 0.84788 0.76193 0.0
C534 C 0.32042 0.83994 0.72905 0.0
C535 C 0.36686 0.87451 0.7252 0.0
C536 C 0.326 0.83391 0.75261 0.0
C537 C 0.37165 0.86786 0.74881 0.0
C538 C 0.28203 0.88202 0.66448 0.0
C539 C 0.23763 0.85795 0.64694 0.0
N540 N 0.22712 0.85898 0.66922 0.0
C541 C 0.27083 0.88298 0.68717 0.0
C542 C 0.26535 0.86956 0.64414 0.0
C543 C 0.24301 0.87117 0.6892 0.0
C544 C 0.34466 0.94826 0.70884 0.0
N545 N 0.33867 0.92269 0.71386 0.0
C546 C 0.33277 0.92838 0.75674 0.0
C547 C 0.33267 0.91251 0.7372 0.0
C548 C 0.33862 0.95476 0.75208 0.0
C549 C 0.34462 0.96474 0.7278 0.0
H550 H 0.34922 0.95571 0.69003 0.0
H551 H 0.32731 0.89198 0.74069 0.0
C552 C 0.27788 0.80951 0.6433 0.0
N553 N 0.28102 0.82608 0.66251 0.0
C554 C 0.2562 0.78341 0.6428 0.0
C555 C 0.24098 0.79198 0.68169 0.0
C556 C 0.263 0.818 0.6814 0.0
C557 C 0.23762 0.77417 0.66238 0.0
H558 H 0.29271 0.81623 0.62875 0.0
H559 H 0.26608 0.83154 0.69655 0.0
C560 C 0.39523 0.93971 0.67034 0.0
N561 N 0.44646 0.97934 0.68299 0.0
C562 C 0.41321 0.95589 0.65198 0.0
C563 C 0.40319 0.94406 0.69517 0.0
C564 C 0.43906 0.97571 0.65873 0.0
C565 C 0.42919 0.96409 0.70118 0.0
C566 C 0.34231 0.86468 0.6115 0.0
C567 C 0.36669 0.86846 0.60239 0.0
C568 C 0.32173 0.86004 0.59499 0.0
C569 C 0.37019 0.86788 0.57682 0.0
C570 C 0.32604 0.85967 0.56955 0.0
N571 N 0.34998 0.86358 0.56106 0.0
C572 C 0.38495 0.85155 0.67722 0.0
C573 C 0.41725 0.89359 0.66054 0.0
C574 C 0.4045 0.84446 0.68107 0.0
N575 N 0.39167 0.87593 0.6676 0.0
C576 C 0.4375 0.88718 0.6638 0.0
C577 C 0.4312 0.86247 0.67453 0.0
H578 H 0.36433 0.83767 0.68212 0.0
H579 H 0.42198 0.91256 0.65234 0.0
C580 C 0.32277 0.92602 0.60617 0.0
N581 N 0.3423 0.92005 0.61139 0.0
C582 C 0.32411 0.9399 0.5845 0.0
C583 C 0.36562 0.94116 0.57416 0.0
C584 C 0.36363 0.92758 0.59611 0.0
C585 C 0.34565 0.94741 0.56814 0.0
H586 H 0.30616 0.91999 0.61881 0.0
H587 H 0.37901 0.92282 0.6009 0.0
O588 O 0.33578 0.86669 0.69219 0.0
O589 O 0.30919 0.8932 0.66219 0.0
O590 O 0.36979 0.92032 0.66399 0.0
O591 O 0.33862 0.86546 0.63646 0.0
H592 H 0.30033 0.82875 0.72164 0.0
H593 H 0.38318 0.89004 0.71467 0.0
H594 H 0.31023 0.81808 0.76347 0.0
H595 H 0.39159 0.8785 0.75666 0.0
H596 H 0.22446 0.84809 0.6314 0.0
H597 H 0.28345 0.89256 0.70309 0.0
H598 H 0.27372 0.86867 0.62645 0.0
H599 H 0.23404 0.87165 0.70667 0.0
H600 H 0.32747 0.91981 0.77517 0.0
H601 H 0.34916 0.98499 0.72354 0.0
H602 H 0.25477 0.77024 0.62781 0.0
H603 H 0.22706 0.78571 0.69708 0.0
H604 H 0.40736 0.9531 0.63271 0.0
H605 H 0.38941 0.93234 0.70972 0.0
H606 H 0.45322 0.98822 0.64469 0.0
H607 H 0.43561 0.96759 0.72033 0.0
H608 H 0.38279 0.87197 0.61491 0.0
H609 H 0.30274 0.85708 0.60174 0.0
H610 H 0.389 0.87091 0.56949 0.0
H611 H 0.31037 0.85632 0.55655 0.0
H612 H 0.39873 0.82495 0.68884 0.0
H613 H 0.45786 0.90149 0.65836 0.0
H614 H 0.30834 0.94439 0.58043 0.0
H615 H 0.38278 0.94703 0.56218 0.0
Li616 Li 0.1256 0.452 0.68362 0.0
Li617 Li 0.16342 0.46827 0.65571 0.0
Li618 Li 0.13635 0.49057 0.65986 0.0
Li619 Li 0.11752 0.44798 0.63904 0.0
C620 C 0.16629 0.48824 0.70909 0.0
N621 N 0.17891 0.48963 0.75867 0.0
C622 C 0.18446 0.48025 0.71665 0.0
C623 C 0.15482 0.49729 0.72671 0.0
C624 C 0.19052 0.48102 0.74181 0.0
C625 C 0.16137 0.49773 0.7517 0.0
C626 C 0.13761 0.41345 0.6453 0.0
C627 C 0.15373 0.40355 0.60776 0.0
N628 N 0.14516 0.37826 0.61621 0.0
C629 C 0.12895 0.38738 0.65361 0.0
C630 C 0.1501 0.42165 0.62219 0.0
C631 C 0.13297 0.36988 0.63863 0.0
C632 C 0.09088 0.43271 0.7251 0.0
N633 N 0.11279 0.43414 0.71411 0.0
C634 C 0.11771 0.40929 0.74703 0.0
C635 C 0.12605 0.42254 0.72437 0.0
C636 C 0.09523 0.40761 0.75891 0.0
C637 C 0.08166 0.41941 0.74767 0.0
H638 H 0.08047 0.44173 0.71631 0.0
H639 H 0.14312 0.42362 0.7149 0.0
C640 C 0.21702 0.49831 0.64222 0.0
N641 N 0.19846 0.47396 0.65117 0.0
C642 C 0.24358 0.50461 0.63933 0.0
C643 C 0.2315 0.46064 0.65516 0.0
C644 C 0.2051 0.45517 0.65768 0.0
C645 C 0.25116 0.48571 0.64597 0.0
H646 H 0.21124 0.51307 0.6379 0.0
H647 H 0.19004 0.43615 0.66528 0.0
C648 C 0.08342 0.46893 0.66671 0.0
N649 N 0.04978 0.49014 0.67053 0.0
C650 C 0.06435 0.46381 0.64831 0.0
C651 C 0.08508 0.48453 0.68723 0.0
C652 C 0.0476 0.47479 0.65054 0.0
C653 C 0.06799 0.49516 0.68877 0.0
C654 C 0.14776 0.49571 0.60893 0.0
C655 C 0.12281 0.49166 0.60136 0.0
C656 C 0.17081 0.51375 0.59592 0.0
C657 C 0.12131 0.50585 0.581 0.0
C658 C 0.1685 0.52758 0.57565 0.0
N659 N 0.144 0.52339 0.56867 0.0
C660 C 0.15953 0.54359 0.67528 0.0
C661 C 0.12364 0.53195 0.64731 0.0
C662 C 0.16386 0.56958 0.67734 0.0
N663 N 0.13965 0.52533 0.66054 0.0
C664 C 0.12739 0.55786 0.6487 0.0
C665 C 0.14771 0.57703 0.66392 0.0
H666 H 0.17226 0.53804 0.68531 0.0
H667 H 0.10787 0.51717 0.63578 0.0
C668 C 0.06924 0.40642 0.62148 0.0
N669 N 0.09431 0.42518 0.61424 0.0
C670 C 0.05034 0.3901 0.60393 0.0
C671 C 0.08393 0.4119 0.572 0.0
C672 C 0.10218 0.42774 0.59019 0.0
C673 C 0.05744 0.39318 0.57875 0.0
H674 H 0.06378 0.40466 0.64086 0.0
H675 H 0.12241 0.44258 0.58504 0.0
O676 O 0.15966 0.48711 0.68458 0.0
O677 O 0.13366 0.43069 0.65979 0.0
O678 O 0.10002 0.45834 0.66484 0.0
O679 O 0.14968 0.48189 0.62874 0.0
H680 H 0.19356 0.47324 0.7033 0.0
H681 H 0.14097 0.50384 0.72118 0.0
H682 H 0.20439 0.4747 0.74794 0.0
H683 H 0.15251 0.50452 0.76555 0.0
H684 H 0.16337 0.40963 0.58985 0.0
H685 H 0.11924 0.38075 0.67146 0.0
H686 H 0.15699 0.44176 0.61546 0.0
H687 H 0.12638 0.34964 0.64483 0.0
H688 H 0.12841 0.40003 0.75493 0.0
H689 H 0.06427 0.41855 0.75633 0.0
H690 H 0.25819 0.52442 0.63277 0.0
H691 H 0.23651 0.44552 0.6605 0.0
H692 H 0.06248 0.45152 0.63244 0.0
H693 H 0.0996 0.48861 0.70168 0.0
H694 H 0.03286 0.47109 0.63637 0.0
H695 H 0.06923 0.50745 0.70445 0.0
H696 H 0.1048 0.47774 0.61112 0.0
H697 H 0.19028 0.51699 0.60132 0.0
H698 H 0.1021 0.50293 0.57502 0.0
H699 H 0.18618 0.54161 0.56543 0.0
H700 H 0.18014 0.5839 0.68887 0.0
H701 H 0.11446 0.5628 0.63811 0.0
H702 H 0.03026 0.37564 0.60996 0.0
H703 H 0.0902 0.41514 0.55278 0.0
Li704 Li 0.55603 0.7 0.67892 0.0
Li705 Li 0.57177 0.67323 0.70045 0.0
Li706 Li 0.57798 0.68101 0.65626 0.0
Li707 Li 0.53371 0.65142 0.67366 0.0
C708 C 0.61923 0.72258 0.67589 0.0
N709 N 0.67175 0.75029 0.65965 0.0
C710 C 0.63883 0.71896 0.68765 0.0
C711 C 0.62637 0.7404 0.65596 0.0
C712 C 0.66527 0.73315 0.67915 0.0
C713 C 0.65301 0.75417 0.64799 0.0
C714 C 0.53345 0.67029 0.72902 0.0
C715 C 0.52455 0.64599 0.76756 0.0
N716 N 0.52917 0.66841 0.7801 0.0
C717 C 0.53809 0.69309 0.7423 0.0
C718 C 0.52655 0.64652 0.74174 0.0
C719 C 0.53581 0.69172 0.76811 0.0
C720 C 0.52353 0.72152 0.68876 0.0
N721 N 0.54884 0.72863 0.68164 0.0
C722 C 0.56015 0.77444 0.67723 0.0
C723 C 0.56723 0.75449 0.67606 0.0
C724 C 0.5341 0.76759 0.68457 0.0
C725 C 0.51572 0.74077 0.69046 0.0
H726 H 0.50931 0.70073 0.69285 0.0
H727 H 0.58721 0.75954 0.67042 0.0
C728 C 0.59099 0.64871 0.73399 0.0
N729 N 0.58763 0.67017 0.72993 0.0
C730 C 0.6026 0.64677 0.75603 0.0
C731 C 0.60684 0.68896 0.76914 0.0
C732 C 0.59565 0.69032 0.74673 0.0
C733 C 0.61041 0.66698 0.77396 0.0
H734 H 0.58482 0.63323 0.72007 0.0
H735 H 0.59332 0.70745 0.74265 0.0
C736 C 0.53116 0.69086 0.63673 0.0
N737 N 0.50526 0.71615 0.61703 0.0
C738 C 0.50336 0.67921 0.63908 0.0
C739 C 0.54577 0.71532 0.62428 0.0
C740 C 0.49065 0.69232 0.62898 0.0
C741 C 0.53231 0.72781 0.61449 0.0
C742 C 0.55457 0.62077 0.66769 0.0
C743 C 0.5566 0.61417 0.64316 0.0
C744 C 0.54017 0.60034 0.68488 0.0
C745 C 0.54408 0.58718 0.63621 0.0
C746 C 0.52789 0.5736 0.67719 0.0
N747 N 0.53008 0.56763 0.65322 0.0
C748 C 0.62074 0.67901 0.63418 0.0
C749 C 0.59578 0.69015 0.6065 0.0
C750 C 0.63609 0.67801 0.61468 0.0
N751 N 0.60086 0.68465 0.62969 0.0
C752 C 0.61063 0.68934 0.58643 0.0
C753 C 0.63065 0.68256 0.59035 0.0
H754 H 0.62395 0.67427 0.65281 0.0
H755 H 0.57945 0.69397 0.60344 0.0
C756 C 0.48151 0.61129 0.68651 0.0
N757 N 0.49991 0.62046 0.66796 0.0
C758 C 0.45558 0.5903 0.68219 0.0
C759 C 0.46811 0.58825 0.63981 0.0
C760 C 0.49385 0.60935 0.64496 0.0
C761 C 0.44845 0.57877 0.65847 0.0
H762 H 0.48663 0.62096 0.70439 0.0
H763 H 0.50879 0.61743 0.63044 0.0
O764 O 0.59316 0.70857 0.6837 0.0
O765 O 0.536 0.67132 0.70375 0.0
O766 O 0.54409 0.67875 0.64711 0.0
O767 O 0.56627 0.64707 0.67478 0.0
H768 H 0.63366 0.70519 0.70304 0.0
H769 H 0.6114 0.7432 0.64646 0.0
H770 H 0.68062 0.73048 0.68801 0.0
H771 H 0.65878 0.76786 0.63246 0.0
H772 H 0.51941 0.62778 0.77763 0.0
H773 H 0.54379 0.71176 0.73287 0.0
H774 H 0.5232 0.62877 0.73182 0.0
H775 H 0.53947 0.70925 0.77862 0.0
H776 H 0.57485 0.79495 0.67257 0.0
H777 H 0.4953 0.7346 0.69577 0.0
H778 H 0.60532 0.62967 0.75912 0.0
H779 H 0.6132 0.70521 0.78234 0.0
H780 H 0.49175 0.66045 0.64885 0.0
H781 H 0.56733 0.7248 0.62258 0.0
H782 H 0.46917 0.6836 0.63076 0.0
H783 H 0.54339 0.74684 0.60499 0.0
H784 H 0.56746 0.62968 0.62954 0.0
H785 H 0.53825 0.60508 0.70389 0.0
H786 H 0.5454 0.58179 0.61727 0.0
H787 H 0.51656 0.55759 0.69026 0.0
H788 H 0.65145 0.67289 0.61851 0.0
H789 H 0.60545 0.69249 0.56792 0.0
H790 H 0.44095 0.5841 0.69697 0.0
H791 H 0.46349 0.57989 0.62129 0.0
H792 H 0.19112 0.1229 0.04628 0.0
H793 H 0.13271 0.20408 0.97562 0.0
H794 H 0.20427 0.14344 0.96862 0.0
H795 H 0.1215 0.18606 0.05388 0.0
H796 H 0.16415 0.18746 0.97407 0.0
H797 H 0.17095 0.15124 0.05076 0.0
C798 C 0.19025 0.13379 0.03026 0.0
C799 C 0.19915 0.13059 0.00697 0.0
C800 C 0.15506 0.1874 0.99165 0.0
C801 C 0.1756 0.16266 0.01187 0.0
C802 C 0.13721 0.19708 0.9926 0.0
C803 C 0.12419 0.19623 0.01488 0.0
C804 C 0.15984 0.17657 0.01308 0.0
C805 C 0.13061 0.18656 0.03619 0.0
C806 C 0.17854 0.14983 0.0328 0.0
C807 C 0.19719 0.14493 0.98681 0.0
N808 N 0.14776 0.17686 0.0347 0.0
N809 N 0.18539 0.16012 0.98968 0.0
H810 H 0.82603 0.94763 0.9526 0.0
H811 H 0.87962 0.08246 0.03002 0.0
H812 H 0.81457 0.94995 0.03143 0.0
H813 H 0.88781 0.08044 0.95063 0.0
H814 H 0.84986 0.03398 0.02991 0.0
H815 H 0.84264 0.99581 0.9505 0.0
C816 C 0.82651 0.95816 0.9694 0.0
C817 C 0.81926 0.94479 0.9923 0.0
C818 C 0.85786 0.04415 0.01245 0.0
C819 C 0.83873 7e-05 0.99009 0.0
C820 C 0.87472 0.07192 0.01247 0.0
C821 C 0.88649 0.08555 0.99032 0.0
C822 C 0.85286 0.02982 0.99015 0.0
C823 C 0.87964 0.07069 0.96821 0.0
C824 C 0.83617 0.98574 0.96821 0.0
C825 C 0.82054 0.95956 0.01348 0.0
N826 N 0.86355 0.0436 0.96873 0.0
N827 N 0.8304 0.98644 0.01191 0.0
H828 H 0.94626 0.83785 0.9501 0.0
H829 H 0.07895 0.87947 0.02769 0.0
H830 H 0.94627 0.81748 0.02705 0.0
H831 H 0.07844 0.90026 0.95091 0.0
H832 H 0.03032 0.85014 0.02594 0.0
H833 H 0.99436 0.85421 0.94817 0.0
C834 C 0.95639 0.83661 0.96653 0.0
C835 C 0.94238 0.82669 0.98887 0.0
C836 C 0.04089 0.86081 0.00937 0.0
C837 C -0.00258 0.84542 0.98686 0.0
C838 C 0.06863 0.87761 0.01038 0.0
C839 C 0.0827 0.89264 0.98952 0.0
C840 C 0.0271 0.85919 0.98739 0.0
C841 C 0.06842 0.88905 0.96744 0.0
C842 C 0.98382 0.84585 0.96541 0.0
C843 C 0.95633 0.82501 0.00947 0.0
N844 N 0.04136 0.87299 0.96706 0.0
N845 N 0.98318 0.83466 0.00807 0.0
H846 H 0.8476 0.45836 0.28744 0.0
H847 H 0.81908 0.56006 0.36423 0.0
H848 H 0.87404 0.48248 0.36269 0.0
H849 H 0.78665 0.52961 0.29163 0.0
H850 H 0.84622 0.53834 0.36117 0.0
H851 H 0.83208 0.49082 0.28592 0.0
C852 C 0.85029 0.47063 0.3036 0.0
C853 C 0.86173 0.46743 0.32536 0.0
C854 C 0.83344 0.53674 0.34577 0.0
C855 C 0.84407 0.50467 0.32375 0.0
C856 C 0.81789 0.54907 0.34753 0.0
C857 C 0.80029 0.54636 0.3283 0.0
C858 C 0.83129 0.52152 0.32466 0.0
C859 C 0.79998 0.53235 0.30689 0.0
C860 C 0.84153 0.48924 0.30269 0.0
C861 C 0.86531 0.48429 0.34554 0.0
N862 N 0.81498 0.52018 0.30578 0.0
N863 N 0.85619 0.50196 0.34436 0.0
H864 H 0.48016 0.28598 0.30735 0.0
H865 H 0.57432 0.42261 0.37963 0.0
H866 H 0.51405 0.2904 0.37969 0.0
H867 H 0.54778 0.41977 0.30429 0.0
H868 H 0.54574 0.37411 0.38243 0.0
H869 H 0.49838 0.33463 0.30837 0.0
C870 C 0.49107 0.29714 0.32361 0.0
C871 C 0.4959 0.28423 0.34335 0.0
C872 C 0.54594 0.38409 0.36534 0.0
C873 C 0.51693 0.33978 0.34455 0.0
C874 C 0.5621 0.41188 0.36379 0.0
C875 C 0.56366 0.42533 0.3416 0.0
C876 C 0.53126 0.36952 0.34453 0.0
C877 C 0.5476 0.41018 0.3216 0.0
C878 C 0.50158 0.3249 0.32412 0.0
C879 C 0.5103 0.29965 0.36388 0.0
N880 N 0.53225 0.38305 0.32346 0.0
N881 N 0.52046 0.32662 0.36387 0.0
H882 H 0.60622 0.15309 0.36907 0.0
H883 H 0.74099 0.22989 0.29102 0.0
H884 H 0.60874 0.16342 0.28969 0.0
H885 H 0.73882 0.21764 0.37013 0.0
H886 H 0.69276 0.19922 0.28931 0.0
H887 H 0.65447 0.17013 0.36898 0.0
C888 C 0.61683 0.15845 0.35155 0.0
C889 C 0.6035 0.15721 0.32939 0.0
C890 C 0.70286 0.20295 0.30701 0.0
C891 C 0.65882 0.17719 0.32921 0.0
C892 C 0.73049 0.22034 0.30798 0.0
C893 C 0.74395 0.22666 0.33082 0.0
C894 C 0.68853 0.19192 0.32905 0.0
C895 C 0.72915 0.21384 0.3522 0.0
C896 C 0.64443 0.16834 0.35153 0.0
C897 C 0.61833 0.16464 0.30728 0.0
N898 N 0.70219 0.19735 0.35084 0.0
N899 N 0.64524 0.17461 0.30779 0.0
H900 H 0.43922 0.84039 0.71599 0.0
H901 H 0.54217 0.80562 0.64976 0.0
H902 H 0.47032 0.86735 0.64238 0.0
H903 H 0.50615 0.77536 0.72128 0.0
H904 H 0.52224 0.83463 0.64932 0.0
H905 H 0.46965 0.82274 0.72079 0.0
C906 C 0.45263 0.84272 0.70089 0.0
C907 C 0.45199 0.85493 0.67861 0.0
C908 C 0.51899 0.82188 0.66524 0.0
C909 C 0.48685 0.83471 0.6839 0.0
C910 C 0.53047 0.80547 0.66555 0.0
C911 C 0.52546 0.78786 0.68544 0.0
C912 C 0.50249 0.82066 0.68499 0.0
C913 C 0.51006 0.7883 0.70537 0.0
C914 C 0.47006 0.83272 0.70365 0.0
C915 C 0.47016 0.85798 0.65983 0.0
N916 N 0.49894 0.80423 0.70454 0.0
N917 N 0.48664 0.84758 0.66276 0.0
H918 H 0.20645 0.74155 0.62456 0.0
H919 H 0.15882 0.60892 0.70486 0.0
H920 H 0.22127 0.74118 0.70294 0.0
H921 H 0.14921 0.60897 0.62555 0.0
H922 H 0.17412 0.65688 0.70564 0.0
H923 H 0.17791 0.69275 0.6258 0.0
C924 C 0.20345 0.73124 0.64209 0.0
C925 C 0.21661 0.74544 0.6636 0.0
C926 C 0.16837 0.64637 0.68809 0.0
C927 C 0.18397 0.68963 0.66515 0.0
C928 C 0.15973 0.61901 0.68763 0.0
C929 C 0.15317 0.60505 0.66505 0.0
C930 C 0.17066 0.65994 0.66579 0.0
C931 C 0.15411 0.61896 0.64336 0.0
C932 C 0.18709 0.70339 0.64279 0.0
C933 C 0.21152 0.73111 0.6859 0.0
N934 N 0.16309 0.64574 0.64422 0.0
N935 N 0.1959 0.70397 0.68602 0.0
H936 H 0.27983 0.47483 0.67995 0.0
H937 H 0.41973 0.57565 0.61693 0.0
H938 H 0.28765 0.51334 0.60932 0.0
H939 H 0.41231 0.53697 0.6874 0.0
H940 H 0.37158 0.54738 0.61075 0.0
H941 H 0.32807 0.49179 0.67998 0.0
C942 C 0.29161 0.48645 0.66422 0.0
C943 C 0.27973 0.49297 0.64474 0.0
C944 C 0.3805 0.54481 0.62744 0.0
C945 C 0.33505 0.51281 0.64485 0.0
C946 C 0.40808 0.56083 0.6309 0.0
C947 C 0.42007 0.55892 0.65287 0.0
C948 C 0.36472 0.52686 0.64614 0.0
C949 C 0.40383 0.53952 0.67042 0.0
C950 C 0.31921 0.49627 0.66433 0.0
C951 C 0.29606 0.50832 0.62498 0.0
N952 N 0.37694 0.52447 0.66681 0.0
N953 N 0.32292 0.51794 0.62566 0.0
H954 H 0.08469 0.34402 0.90607 0.0
H955 H 0.04377 0.37131 0.7722 0.0
H956 H 0.00806 0.29206 0.87178 0.0
H957 H 0.12508 0.41087 0.79946 0.0
H958 H 0.02874 0.34595 0.81096 0.0
H959 H 0.09834 0.37237 0.86919 0.0
C960 C 0.07075 0.33851 0.89076 0.0
C961 C 0.04526 0.31548 0.89195 0.0
C962 C 0.04986 0.36024 0.80848 0.0
C963 C 0.06064 0.34809 0.84986 0.0
C964 C 0.0584 0.37481 0.78646 0.0
C965 C 0.0857 0.39307 0.78265 0.0
C966 C 0.06875 0.36413 0.82683 0.0
C967 C 0.10389 0.3967 0.80158 0.0
C968 C 0.07852 0.35479 0.86978 0.0
C969 C 0.02781 0.30973 0.87178 0.0
N970 N 0.09508 0.38233 0.82287 0.0
N971 N 0.03586 0.32589 0.85152 0.0
H972 H 0.67154 0.70061 0.92218 0.0
H973 H 0.65315 0.65917 0.77925 0.0
H974 H 0.73656 0.71308 0.87395 0.0
H975 H 0.59769 0.67349 0.82109 0.0
H976 H 0.67915 0.66555 0.81717 0.0
H977 H 0.63985 0.6772 0.88848 0.0
C978 C 0.67905 0.69786 0.90466 0.0
C979 C 0.70666 0.70905 0.90063 0.0
C980 C 0.66103 0.66682 0.81809 0.0
C981 C 0.67072 0.68257 0.86216 0.0
C982 C 0.64616 0.66306 0.79655 0.0
C983 C 0.62355 0.6662 0.79714 0.0
C984 C 0.653 0.67353 0.84027 0.0
C985 C 0.6153 0.67135 0.81992 0.0
C986 C 0.66102 0.68467 0.88543 0.0
C987 C 0.71542 0.7051 0.87758 0.0
N988 N 0.63018 0.67509 0.84059 0.0
N989 N 0.6975 0.69238 0.85909 0.0
H990 H 0.36022 0.96288 0.79849 0.0
H991 H 0.26355 0.01022 0.85223 0.0
H992 H 0.31198 0.98283 0.75167 0.0
H993 H 0.33013 0.0163 0.89412 0.0
H994 H 0.28229 0.00218 0.81468 0.0
H995 H 0.35118 0.9843 0.83346 0.0
C996 C 0.348 0.9721 0.79557 0.0
C997 C 0.3366 0.97092 0.77232 0.0
C998 C 0.29306 0.00571 0.83199 0.0
C999 C 0.32597 0.99514 0.8121 0.0
C1000 C 0.28232 0.01017 0.85338 0.0
C1001 C 0.29526 0.01365 0.8762 0.0
C1002 C 0.31662 0.0042 0.83357 0.0
C1003 C 0.31961 0.01368 0.8768 0.0
C1004 C 0.34295 0.98441 0.81544 0.0
C1005 C 0.32115 0.98336 0.76933 0.0
N1006 N 0.32931 0.00854 0.85582 0.0
N1007 N 0.31591 0.99459 0.78912 0.0
H1008 H 0.34431 0.07391 0.23522 0.0
H1009 H 0.32958 0.01066 0.10015 0.0
H1010 H 0.40708 0.06578 0.1997 0.0
H1011 H 0.27302 0.03057 0.13237 0.0
H1012 H 0.35599 0.0256 0.13833 0.0
H1013 H 0.31567 0.05301 0.19932 0.0
C1014 C 0.35211 0.06783 0.2198 0.0
C1015 C 0.37822 0.07186 0.22034 0.0
C1016 C 0.33766 0.02644 0.13706 0.0
C1017 C 0.34541 0.04758 0.17928 0.0
C1018 C 0.32262 0.01799 0.11527 0.0
C1019 C 0.29906 0.0194 0.11299 0.0
C1020 C 0.32906 0.03637 0.15666 0.0
C1021 C 0.29079 0.02871 0.13333 0.0
C1022 C 0.33569 0.05573 0.19938 0.0
C1023 C 0.38703 0.06294 0.2001 0.0
N1024 N 0.30585 0.03696 0.15422 0.0
N1025 N 0.37069 0.05133 0.18031 0.0
H1026 H 0.97191 0.3129 0.09324 0.0
H1027 H 0.99101 0.34101 0.2382 0.0
H1028 H 0.02973 0.30386 0.13697 0.0
H1029 H 0.93578 0.35262 0.19302 0.0
H1030 H 0.01016 0.33362 0.2006 0.0
H1031 H 0.96325 0.33372 0.12855 0.0
C1032 C 0.98316 0.31571 0.11013 0.0
C1033 C 0.00139 0.30634 0.11219 0.0
C1034 C 0.99408 0.33811 0.1989 0.0
C1035 C 0.99105 0.32966 0.153 0.0
C1036 C 0.98324 0.34247 0.22034 0.0
C1037 C 0.96151 0.34701 0.2187 0.0
C1038 C 0.98302 0.33824 0.17573 0.0
C1039 C 0.95212 0.34856 0.19512 0.0
C1040 C 0.97806 0.32746 0.13039 0.0
C1041 C 0.01506 0.31023 0.13472 0.0
N1042 N 0.96274 0.3439 0.17458 0.0
N1043 N 0.00939 0.32134 0.15435 0.0
H1044 H 0.72431 0.69199 0.24984 0.0
H1045 H 0.69737 0.70938 0.1076 0.0
H1046 H 0.65845 0.63075 0.20762 0.0
H1047 H 0.7705 0.7623 0.14656 0.0
H1048 H 0.67857 0.6844 0.14611 0.0
H1049 H 0.73691 0.72199 0.21423 0.0
C1050 C 0.7122 0.685 0.23321 0.0
C1051 C 0.69039 0.65876 0.23163 0.0
C1052 C 0.69863 0.70162 0.14626 0.0
C1053 C 0.70501 0.69288 0.19065 0.0
C1054 C 0.7093 0.71595 0.12435 0.0
C1055 C 0.7356 0.73773 0.12391 0.0
C1056 C 0.71437 0.70927 0.16783 0.0
C1057 C 0.75029 0.74533 0.14606 0.0
C1058 C 0.71954 0.70208 0.21282 0.0
C1059 C 0.67566 0.65069 0.20948 0.0
N1060 N 0.73952 0.73103 0.1671 0.0
N1061 N 0.68335 0.66764 0.18977 0.0
H1062 H 0.00587 0.38337 0.57782 0.0
H1063 H 0.98311 0.33643 0.43658 0.0
H1064 H 0.06226 0.37073 0.53547 0.0
H1065 H 0.93105 0.3561 0.47792 0.0
H1066 H 0.00829 0.34109 0.47456 0.0
H1067 H 0.97423 0.36526 0.5436 0.0
C1068 C 0.01143 0.3763 0.56151 0.0
C1069 C 0.03689 0.37883 0.55942 0.0
C1070 C 0.99119 0.34411 0.47536 0.0
C1071 C 0.00091 0.35863 0.51987 0.0
C1072 C 0.97675 0.34133 0.45374 0.0
C1073 C 0.95523 0.34627 0.4541 0.0
C1074 C 0.98398 0.35183 0.49744 0.0
C1075 C 0.94789 0.35268 0.47677 0.0
C1076 C 0.9934 0.36615 0.54186 0.0
C1077 C 0.04305 0.36965 0.53766 0.0
N1078 N 0.96238 0.35549 0.49749 0.0
N1079 N 0.02529 0.3602 0.5186 0.0
H1080 H 0.66579 0.59652 0.48127 0.0
H1081 H 0.64924 0.71142 0.54716 0.0
H1082 H 0.68252 0.66991 0.44455 0.0
H1083 H 0.64078 0.64132 0.58472 0.0
H1084 H 0.66491 0.69862 0.51021 0.0
H1085 H 0.65982 0.61445 0.52021 0.0
C1086 C 0.66826 0.61647 0.48147 0.0
C1087 C 0.67434 0.63166 0.45968 0.0
C1088 C 0.65996 0.68626 0.52666 0.0
C1089 C 0.66758 0.65238 0.50413 0.0
C1090 C 0.65094 0.6935 0.5477 0.0
C1091 C 0.64356 0.67734 0.569 0.0
C1092 C 0.66135 0.66256 0.52689 0.0
C1093 C 0.64647 0.65453 0.56882 0.0
C1094 C 0.66501 0.62677 0.50372 0.0
C1095 C 0.67784 0.65759 0.46099 0.0
N1096 N 0.65486 0.64769 0.54802 0.0
N1097 N 0.67412 0.66704 0.48283 0.0
H1098 H 0.35753 0.93744 0.52186 0.0
H1099 H 0.37547 0.0732 0.46448 0.0
H1100 H 0.33861 0.99073 0.562 0.0
H1101 H 0.38704 0.01533 0.42346 0.0
H1102 H 0.35856 0.04197 0.49949 0.0
H1103 H 0.36501 0.96428 0.48458 0.0
C1104 C 0.35486 0.95478 0.52274 0.0
C1105 C 0.34775 0.9621 0.54503 0.0
C1106 C 0.3645 0.03601 0.4827 0.0
C1107 C 0.3563 0.99297 0.50252 0.0
C1108 C 0.37425 0.05386 0.46277 0.0
C1109 C 0.3828 0.04691 0.44107 0.0
C1110 C 0.36353 0.01117 0.48093 0.0
C1111 C 0.38045 0.02146 0.43971 0.0
C1112 C 0.359 0.97003 0.50145 0.0
C1113 C 0.34406 0.98443 0.54513 0.0
N1114 N 0.37128 0.00464 0.45945 0.0
N1115 N 0.34869 -0.0007 0.52422 0.0
loop_
_geom_bond_atom_site_label_1
_geom_bond_atom_site_label_2
_geom_bond_distance
_geom_bond_site_symmetry_2
_ccdc_geom_bond_type
Li0 N17 1.990 . S
Li0 O60 1.956 . S
Li0 O61 1.969 1_455 S
Li0 O62 1.961 . S
Li1 N25 1.994 . S
Li1 O60 1.954 1_656 S
Li1 O61 1.956 1_556 S
Li1 O63 1.972 1_655 S
Li2 N47 1.990 . S
Li2 O60 1.961 . S
Li2 O62 1.956 . S
Li2 O63 1.970 1_554 S
Li3 N53 1.990 . S
Li3 O61 1.962 1_456 S
Li3 O62 1.970 1_556 S
Li3 O63 1.956 . S
C4 C6 1.348 1_455 S
C4 C7 1.356 . S
C4 O60 1.325 . S
N5 C8 1.314 . S
N5 C9 1.279 1_655 S
C6 C4 1.348 1_655 S
C6 C8 1.353 . S
C6 H64 0.929 . S
C7 C4 1.356 . S
C7 C9 1.358 . S
C7 H65 0.930 . S
C8 N5 1.314 . S
C8 C6 1.353 . S
C8 H66 0.930 . S
C9 N5 1.279 1_455 S
C9 C7 1.358 . S
C9 H67 0.930 . S
C10 C13 1.348 1_556 S
C10 C14 1.356 . S
C10 O61 1.325 1_556 S
C11 N12 1.279 . S
C11 C14 1.358 . S
C11 H68 0.930 . S
N12 C11 1.279 . S
N12 C15 1.314 1_556 S
C13 C10 1.348 1_554 S
C13 C15 1.353 . S
C13 H69 0.929 . S
C14 C10 1.356 . S
C14 C11 1.358 . S
C14 H70 0.930 . S
C15 N12 1.314 1_554 S
C15 C13 1.353 . S
C15 H71 0.930 . S
C16 N17 1.314 . S
C16 C21 1.353 . S
C16 H22 0.930 . S
N17 Li0 1.990 . S
N17 C16 1.314 . S
N17 C19 1.279 1_455 S
C18 C19 1.358 . S
C18 C20 1.356 . S
C18 H72 0.930 . S
C19 N17 1.279 1_655 S
C19 C18 1.358 . S
C19 H23 0.930 . S
C20 C18 1.356 . S
C20 C21 1.348 1_655 S
C21 C16 1.353 . S
C21 C20 1.348 1_455 S
C21 H73 0.929 . S
H22 C16 0.930 . S
H23 C19 0.930 . S
C24 N25 1.314 . S
C24 C26 1.353 . S
C24 H30 0.930 . S
N25 Li1 1.994 . S
N25 C24 1.314 . S
N25 C28 1.279 . S
C26 C24 1.353 . S
C26 C29 1.348 . S
C26 H74 0.929 . S
C27 C28 1.358 . S
C27 C29 1.356 . S
C27 H75 0.930 . S
C28 N25 1.279 . S
C28 C27 1.358 . S
C28 H31 0.930 . S
C29 C26 1.348 . S
C29 C27 1.356 . S
H30 C24 0.930 . S
H31 C28 0.930 . S
C32 C34 1.348 1_554 S
C32 C35 1.356 . S
C32 O62 1.325 . S
N33 C36 1.314 . S
N33 C37 1.279 . S
C34 C32 1.348 1_556 S
C34 C36 1.353 1_556 S
C34 H76 0.929 . S
C35 C32 1.356 . S
C35 C37 1.358 . S
C35 H77 0.930 . S
C36 N33 1.314 . S
C36 C34 1.353 1_554 S
C36 H78 0.930 1_554 S
C37 N33 1.279 . S
C37 C35 1.358 . S
C37 H79 0.930 . S
C38 C39 1.348 . S
C38 C40 1.356 . S
C38 O63 1.325 . S
C39 C38 1.348 . S
C39 C41 1.353 . S
C39 H80 0.929 . S
C40 C38 1.356 . S
C40 C42 1.358 . S
C40 H81 0.930 1_455 S
C41 C39 1.353 . S
C41 N43 1.314 . S
C41 H82 0.930 . S
C42 C40 1.358 . S
C42 N43 1.279 . S
C42 H83 0.930 1_455 S
N43 C41 1.314 . S
N43 C42 1.279 . S
C44 C46 1.353 . S
C44 N47 1.314 . S
C44 H50 0.930 . S
C45 N47 1.279 . S
C45 C48 1.358 . S
C45 H51 0.930 . S
C46 C44 1.353 . S
C46 C49 1.348 . S
C46 H84 0.929 . S
N47 Li2 1.990 . S
N47 C44 1.314 . S
N47 C45 1.279 . S
C48 C45 1.358 . S
C48 C49 1.356 . S
C48 H85 0.930 . S
C49 C46 1.348 . S
C49 C48 1.356 . S
H50 C44 0.930 . S
H51 C45 0.930 . S
C52 N53 1.314 . S
C52 C54 1.353 . S
C52 H58 0.930 . S
N53 Li3 1.990 . S
N53 C52 1.314 . S
N53 C56 1.279 . S
C54 C52 1.353 . S
C54 C57 1.348 . S
C54 H86 0.929 . S
C55 C56 1.358 . S
C55 C57 1.356 . S
C55 H87 0.930 . S
C56 N53 1.279 . S
C56 C55 1.358 . S
C56 H59 0.930 . S
C57 C54 1.348 . S
C57 C55 1.356 . S
H58 C52 0.930 . S
H59 C56 0.930 . S
O60 Li0 1.956 . S
O60 Li1 1.954 1_454 S
O60 Li2 1.961 . S
O60 C4 1.325 . S
O61 Li0 1.969 1_655 S
O61 Li1 1.956 1_554 S
O61 Li3 1.962 1_654 S
O61 C10 1.325 1_554 S
O62 Li0 1.961 . S
O62 Li2 1.956 . S
O62 Li3 1.970 1_554 S
O62 C32 1.325 . S
O63 Li1 1.972 1_455 S
O63 Li2 1.970 1_556 S
O63 Li3 1.956 . S
O63 C38 1.325 . S
H64 C6 0.929 . S
H65 C7 0.930 . S
H66 C8 0.930 . S
H67 C9 0.930 . S
H68 C11 0.930 . S
H69 C13 0.929 . S
H70 C14 0.930 . S
H71 C15 0.930 . S
H72 C18 0.930 . S
H73 C21 0.929 . S
H74 C26 0.929 . S
H75 C27 0.930 . S
H76 C34 0.929 . S
H77 C35 0.930 . S
H78 C36 0.930 1_556 S
H79 C37 0.930 . S
H80 C39 0.929 . S
H81 C40 0.930 1_655 S
H82 C41 0.930 . S
H83 C42 0.930 1_655 S
H84 C46 0.929 . S
H85 C48 0.930 . S
H86 C54 0.929 . S
H87 C55 0.930 . S
Li88 N105 1.994 . S
Li88 O148 1.956 1_556 S
Li88 O149 1.954 1_556 S
Li88 O150 1.971 . S
Li89 N113 1.990 . S
Li89 O148 1.969 . S
Li89 O149 1.956 . S
Li89 O151 1.961 . S
Li90 N135 1.990 . S
Li90 O148 1.962 1_556 S
Li90 O150 1.956 . S
Li90 O151 1.970 1_556 S
Li91 N141 1.990 . S
Li91 O149 1.961 . S
Li91 O150 1.970 1_554 S
Li91 O151 1.956 . S
C92 C94 1.348 1_556 S
C92 C95 1.356 . S
C92 O148 1.325 1_556 S
N93 C96 1.314 1_556 S
N93 C97 1.279 . S
C94 C92 1.348 1_554 S
C94 C96 1.353 . S
C94 H152 0.929 . S
C95 C92 1.356 . S
C95 C97 1.358 . S
C95 H153 0.930 . S
C96 N93 1.314 1_554 S
C96 C94 1.353 . S
C96 H154 0.930 . S
C97 N93 1.279 . S
C97 C95 1.358 . S
C97 H155 0.930 . S
C98 C101 1.348 . S
C98 C102 1.356 . S
C98 O149 1.325 . S
C99 N100 1.279 . S
C99 C102 1.358 . S
C99 H156 0.930 . S
N100 C99 1.279 . S
N100 C103 1.314 . S
C101 C98 1.348 . S
C101 C103 1.353 . S
C101 H157 0.929 . S
C102 C98 1.356 . S
C102 C99 1.358 . S
C102 H158 0.930 . S
C103 N100 1.314 . S
C103 C101 1.353 . S
C103 H159 0.930 . S
C104 N105 1.314 . S
C104 C109 1.353 . S
C104 H110 0.930 . S
N105 Li88 1.994 . S
N105 C104 1.314 . S
N105 C107 1.279 . S
C106 C107 1.358 . S
C106 C108 1.356 . S
C106 H160 0.930 . S
C107 N105 1.279 . S
C107 C106 1.358 . S
C107 H111 0.930 . S
C108 C106 1.356 . S
C108 C109 1.348 . S
C109 C104 1.353 . S
C109 C108 1.348 . S
C109 H161 0.929 . S
H110 C104 0.930 . S
H111 C107 0.930 . S
C112 N113 1.314 . S
C112 C114 1.353 . S
C112 H118 0.930 . S
N113 Li89 1.990 . S
N113 C112 1.314 . S
N113 C116 1.279 . S
C114 C112 1.353 . S
C114 C117 1.348 . S
C114 H162 0.929 . S
C115 C116 1.358 . S
C115 C117 1.356 . S
C115 H163 0.930 . S
C116 N113 1.279 . S
C116 C115 1.358 . S
C116 H119 0.930 . S
C117 C114 1.348 . S
C117 C115 1.356 . S
H118 C112 0.930 . S
H119 C116 0.930 . S
C120 C122 1.348 . S
C120 C123 1.356 . S
C120 O150 1.325 . S
N121 C124 1.314 . S
N121 C125 1.279 . S
C122 C120 1.348 . S
C122 C124 1.353 . S
C122 H164 0.929 . S
C123 C120 1.356 . S
C123 C125 1.358 . S
C123 H165 0.930 . S
C124 N121 1.314 . S
C124 C122 1.353 . S
C124 H166 0.930 . S
C125 N121 1.279 . S
C125 C123 1.358 . S
C125 H167 0.930 . S
C126 C127 1.348 1_554 S
C126 C128 1.356 . S
C126 O151 1.325 . S
C127 C126 1.348 1_556 S
C127 C129 1.353 1_556 S
C127 H168 0.929 . S
C128 C126 1.356 . S
C128 C130 1.358 . S
C128 H169 0.930 . S
C129 C127 1.353 1_554 S
C129 N131 1.314 . S
C129 H170 0.930 1_554 S
C130 C128 1.358 . S
C130 N131 1.279 . S
C130 H171 0.930 . S
N131 C129 1.314 . S
N131 C130 1.279 . S
C132 C134 1.353 . S
C132 N135 1.314 . S
C132 H138 0.930 . S
C133 N135 1.279 . S
C133 C136 1.358 . S
C133 H139 0.930 . S
C134 C132 1.353 . S
C134 C137 1.348 . S
C134 H172 0.929 . S
N135 Li90 1.990 . S
N135 C132 1.314 . S
N135 C133 1.279 . S
C136 C133 1.358 . S
C136 C137 1.356 . S
C136 H173 0.930 . S
C137 C134 1.348 . S
C137 C136 1.356 . S
H138 C132 0.930 . S
H139 C133 0.930 . S
C140 N141 1.314 . S
C140 C142 1.353 . S
C140 H146 0.930 . S
N141 Li91 1.990 . S
N141 C140 1.314 . S
N141 C144 1.279 . S
C142 C140 1.353 . S
C142 C145 1.348 . S
C142 H174 0.929 . S
C143 C144 1.358 . S
C143 C145 1.356 . S
C143 H175 0.930 . S
C144 N141 1.279 . S
C144 C143 1.358 . S
C144 H147 0.930 . S
C145 C142 1.348 . S
C145 C143 1.356 . S
H146 C140 0.930 . S
H147 C144 0.930 . S
O148 Li88 1.956 1_554 S
O148 Li89 1.969 . S
O148 Li90 1.962 1_554 S
O148 C92 1.325 1_554 S
O149 Li88 1.954 1_554 S
O149 Li89 1.956 . S
O149 Li91 1.961 . S
O149 C98 1.325 . S
O150 Li88 1.971 . S
O150 Li90 1.956 . S
O150 Li91 1.970 1_556 S
O150 C120 1.325 . S
O151 Li89 1.961 . S
O151 Li90 1.970 1_554 S
O151 Li91 1.956 . S
O151 C126 1.325 . S
H152 C94 0.929 . S
H153 C95 0.930 . S
H154 C96 0.930 . S
H155 C97 0.930 . S
H156 C99 0.930 . S
H157 C101 0.929 . S
H158 C102 0.930 . S
H159 C103 0.930 . S
H160 C106 0.930 . S
H161 C109 0.929 . S
H162 C114 0.929 . S
H163 C115 0.930 . S
H164 C122 0.929 . S
H165 C123 0.930 . S
H166 C124 0.930 . S
H167 C125 0.930 . S
H168 C127 0.929 . S
H169 C128 0.930 . S
H170 C129 0.930 1_556 S
H171 C130 0.930 . S
H172 C134 0.929 . S
H173 C136 0.930 . S
H174 C142 0.929 . S
H175 C143 0.930 . S
Li176 N193 1.994 . S
Li176 O236 1.956 1_556 S
Li176 O237 1.954 1_556 S
Li176 O238 1.971 . S
Li177 N201 1.990 . S
Li177 O236 1.969 . S
Li177 O237 1.956 . S
Li177 O239 1.961 1_545 S
Li178 N223 1.990 . S
Li178 O236 1.962 1_556 S
Li178 O238 1.956 . S
Li178 O239 1.970 1_546 S
Li179 N229 1.990 . S
Li179 O237 1.961 1_565 S
Li179 O238 1.970 1_564 S
Li179 O239 1.956 . S
C180 C182 1.348 1_556 S
C180 C183 1.356 . S
C180 O236 1.325 1_556 S
N181 C184 1.314 1_556 S
N181 C185 1.279 . S
C182 C180 1.348 1_554 S
C182 C184 1.353 . S
C182 H240 0.929 . S
C183 C180 1.356 . S
C183 C185 1.358 . S
C183 H241 0.930 . S
C184 N181 1.314 1_554 S
C184 C182 1.353 . S
C184 H242 0.930 . S
C185 N181 1.279 . S
C185 C183 1.358 . S
C185 H243 0.930 . S
C186 C189 1.348 . S
C186 C190 1.356 . S
C186 O237 1.325 . S
C187 N188 1.279 . S
C187 C190 1.358 . S
C187 H244 0.930 1_545 S
N188 C187 1.279 . S
N188 C191 1.314 . S
C189 C186 1.348 . S
C189 C191 1.353 . S
C189 H245 0.929 . S
C190 C186 1.356 . S
C190 C187 1.358 . S
C190 H246 0.930 1_545 S
C191 N188 1.314 . S
C191 C189 1.353 . S
C191 H247 0.930 . S
C192 N193 1.314 . S
C192 C197 1.353 . S
C192 H198 0.930 . S
N193 Li176 1.994 . S
N193 C192 1.314 . S
N193 C195 1.279 . S
C194 C195 1.358 . S
C194 C196 1.356 . S
C194 H248 0.930 . S
C195 N193 1.279 . S
C195 C194 1.358 . S
C195 H199 0.930 . S
C196 C194 1.356 . S
C196 C197 1.348 . S
C197 C192 1.353 . S
C197 C196 1.348 . S
C197 H249 0.929 . S
H198 C192 0.930 . S
H199 C195 0.930 . S
C200 N201 1.314 . S
C200 C202 1.353 . S
C200 H206 0.930 . S
N201 Li177 1.990 . S
N201 C200 1.314 . S
N201 C204 1.279 . S
C202 C200 1.353 . S
C202 C205 1.348 . S
C202 H250 0.929 . S
C203 C204 1.358 . S
C203 C205 1.356 . S
C203 H251 0.930 . S
C204 N201 1.279 . S
C204 C203 1.358 . S
C204 H207 0.930 . S
C205 C202 1.348 . S
C205 C203 1.356 . S
H206 C200 0.930 . S
H207 C204 0.930 . S
C208 C210 1.348 1_545 S
C208 C211 1.356 . S
C208 O238 1.325 . S
N209 C212 1.314 . S
N209 C213 1.279 1_565 S
C210 C208 1.348 1_565 S
C210 C212 1.353 . S
C210 H252 0.929 . S
C211 C208 1.356 . S
C211 C213 1.358 . S
C211 H253 0.930 . S
C212 N209 1.314 . S
C212 C210 1.353 . S
C212 H254 0.930 . S
C213 N209 1.279 1_545 S
C213 C211 1.358 . S
C213 H255 0.930 . S
C214 C215 1.348 1_554 S
C214 C216 1.356 . S
C214 O239 1.325 . S
C215 C214 1.348 1_556 S
C215 C217 1.353 1_556 S
C215 H256 0.929 . S
C216 C214 1.356 . S
C216 C218 1.358 . S
C216 H257 0.930 . S
C217 C215 1.353 1_554 S
C217 N219 1.314 . S
C217 H258 0.930 1_554 S
C218 C216 1.358 . S
C218 N219 1.279 . S
C218 H259 0.930 . S
N219 C217 1.314 . S
N219 C218 1.279 . S
C220 C222 1.353 . S
C220 N223 1.314 . S
C220 H226 0.930 . S
C221 N223 1.279 1_565 S
C221 C224 1.358 . S
C221 H227 0.930 . S
C222 C220 1.353 . S
C222 C225 1.348 1_545 S
C222 H260 0.929 . S
N223 Li178 1.990 . S
N223 C220 1.314 . S
N223 C221 1.279 1_545 S
C224 C221 1.358 . S
C224 C225 1.356 . S
C224 H261 0.930 . S
C225 C222 1.348 1_565 S
C225 C224 1.356 . S
H226 C220 0.930 . S
H227 C221 0.930 . S
C228 N229 1.314 . S
C228 C230 1.353 . S
C228 H234 0.930 . S
N229 Li179 1.990 . S
N229 C228 1.314 . S
N229 C232 1.279 . S
C230 C228 1.353 . S
C230 C233 1.348 . S
C230 H262 0.929 . S
C231 C232 1.358 . S
C231 C233 1.356 . S
C231 H263 0.930 . S
C232 N229 1.279 . S
C232 C231 1.358 . S
C232 H235 0.930 . S
C233 C230 1.348 . S
C233 C231 1.356 . S
H234 C228 0.930 . S
H235 C232 0.930 . S
O236 Li176 1.956 1_554 S
O236 Li177 1.969 . S
O236 Li178 1.962 1_554 S
O236 C180 1.325 1_554 S
O237 Li176 1.954 1_554 S
O237 Li177 1.956 . S
O237 Li179 1.961 1_545 S
O237 C186 1.325 . S
O238 Li176 1.971 . S
O238 Li178 1.956 . S
O238 Li179 1.970 1_546 S
O238 C208 1.325 . S
O239 Li177 1.961 1_565 S
O239 Li178 1.970 1_564 S
O239 Li179 1.956 . S
O239 C214 1.325 . S
H240 C182 0.929 . S
H241 C183 0.930 . S
H242 C184 0.930 . S
H243 C185 0.930 . S
H244 C187 0.930 1_565 S
H245 C189 0.929 . S
H246 C190 0.930 1_565 S
H247 C191 0.930 . S
H248 C194 0.930 . S
H249 C197 0.929 . S
H250 C202 0.929 . S
H251 C203 0.930 . S
H252 C210 0.929 . S
H253 C211 0.930 . S
H254 C212 0.930 . S
H255 C213 0.930 . S
H256 C215 0.929 . S
H257 C216 0.930 . S
H258 C217 0.930 1_556 S
H259 C218 0.930 . S
H260 C222 0.929 . S
H261 C224 0.930 . S
H262 C230 0.929 . S
H263 C231 0.930 . S
Li264 N281 1.990 . S
Li264 O324 1.956 . S
Li264 O325 1.970 . S
Li264 O326 1.961 . S
Li265 N289 1.990 . S
Li265 O324 1.970 . S
Li265 O325 1.956 . S
Li265 O327 1.961 . S
Li266 N311 1.990 . S
Li266 O324 1.961 . S
Li266 O326 1.956 . S
Li266 O327 1.970 . S
Li267 N317 1.990 . S
Li267 O325 1.961 . S
Li267 O326 1.970 . S
Li267 O327 1.956 . S
C268 C270 1.348 . S
C268 C271 1.356 . S
C268 O324 1.325 . S
N269 C272 1.314 . S
N269 C273 1.279 . S
C270 C268 1.348 . S
C270 C272 1.353 . S
C270 H328 0.929 . S
C271 C268 1.356 . S
C271 C273 1.358 . S
C271 H329 0.930 . S
C272 N269 1.314 . S
C272 C270 1.353 . S
C272 H330 0.930 . S
C273 N269 1.279 . S
C273 C271 1.358 . S
C273 H331 0.930 . S
C274 C277 1.348 . S
C274 C278 1.356 . S
C274 O325 1.325 . S
C275 N276 1.279 . S
C275 C278 1.358 . S
C275 H332 0.930 . S
N276 C275 1.279 . S
N276 C279 1.314 . S
C277 C274 1.348 . S
C277 C279 1.353 . S
C277 H333 0.929 . S
C278 C274 1.356 . S
C278 C275 1.358 . S
C278 H334 0.930 . S
C279 N276 1.314 . S
C279 C277 1.353 . S
C279 H335 0.930 . S
C280 N281 1.314 . S
C280 C285 1.353 . S
C280 H286 0.930 . S
N281 Li264 1.990 . S
N281 C280 1.314 . S
N281 C283 1.279 . S
C282 C283 1.358 . S
C282 C284 1.356 . S
C282 H336 0.930 . S
C283 N281 1.279 . S
C283 C282 1.358 . S
C283 H287 0.930 . S
C284 C282 1.356 . S
C284 C285 1.348 . S
C285 C280 1.353 . S
C285 C284 1.348 . S
C285 H337 0.929 . S
H286 C280 0.930 . S
H287 C283 0.930 . S
C288 N289 1.314 . S
C288 C290 1.353 . S
C288 H294 0.930 . S
N289 Li265 1.990 . S
N289 C288 1.314 . S
N289 C292 1.279 . S
C290 C288 1.353 . S
C290 C293 1.348 . S
C290 H338 0.929 . S
C291 C292 1.358 . S
C291 C293 1.356 . S
C291 H339 0.930 . S
C292 N289 1.279 . S
C292 C291 1.358 . S
C292 H295 0.930 . S
C293 C290 1.348 . S
C293 C291 1.356 . S
H294 C288 0.930 . S
H295 C292 0.930 . S
C296 C298 1.348 . S
C296 C299 1.356 . S
C296 O326 1.325 . S
N297 C300 1.314 . S
N297 C301 1.279 . S
C298 C296 1.348 . S
C298 C300 1.353 . S
C298 H340 0.929 . S
C299 C296 1.356 . S
C299 C301 1.358 . S
C299 H341 0.930 . S
C300 N297 1.314 . S
C300 C298 1.353 . S
C300 H342 0.930 . S
C301 N297 1.279 . S
C301 C299 1.358 . S
C301 H343 0.930 . S
C302 C303 1.348 . S
C302 C304 1.356 . S
C302 O327 1.325 . S
C303 C302 1.348 . S
C303 C305 1.353 . S
C303 H344 0.929 . S
C304 C302 1.356 . S
C304 C306 1.358 . S
C304 H345 0.930 . S
C305 C303 1.353 . S
C305 N307 1.314 . S
C305 H346 0.930 . S
C306 C304 1.358 . S
C306 N307 1.279 . S
C306 H347 0.930 . S
N307 C305 1.314 . S
N307 C306 1.279 . S
C308 C310 1.353 . S
C308 N311 1.314 . S
C308 H314 0.930 . S
C309 N311 1.279 . S
C309 C312 1.358 . S
C309 H315 0.930 . S
C310 C308 1.353 . S
C310 C313 1.348 . S
C310 H348 0.929 . S
N311 Li266 1.990 . S
N311 C308 1.314 . S
N311 C309 1.279 . S
C312 C309 1.358 . S
C312 C313 1.356 . S
C312 H349 0.930 . S
C313 C310 1.348 . S
C313 C312 1.356 . S
H314 C308 0.930 . S
H315 C309 0.930 . S
C316 N317 1.314 . S
C316 C318 1.353 . S
C316 H322 0.930 . S
N317 Li267 1.990 . S
N317 C316 1.314 . S
N317 C320 1.279 . S
C318 C316 1.353 . S
C318 C321 1.348 . S
C318 H350 0.929 . S
C319 C320 1.358 . S
C319 C321 1.356 . S
C319 H351 0.930 . S
C320 N317 1.279 . S
C320 C319 1.358 . S
C320 H323 0.930 . S
C321 C318 1.348 . S
C321 C319 1.356 . S
H322 C316 0.930 . S
H323 C320 0.930 . S
O324 Li264 1.956 . S
O324 Li265 1.970 . S
O324 Li266 1.961 . S
O324 C268 1.325 . S
O325 Li264 1.970 . S
O325 Li265 1.956 . S
O325 Li267 1.961 . S
O325 C274 1.325 . S
O326 Li264 1.961 . S
O326 Li266 1.956 . S
O326 Li267 1.970 . S
O326 C296 1.325 . S
O327 Li265 1.961 . S
O327 Li266 1.970 . S
O327 Li267 1.956 . S
O327 C302 1.325 . S
H328 C270 0.929 . S
H329 C271 0.930 . S
H330 C272 0.930 . S
H331 C273 0.930 . S
H332 C275 0.930 . S
H333 C277 0.929 . S
H334 C278 0.930 . S
H335 C279 0.930 . S
H336 C282 0.930 . S
H337 C285 0.929 . S
H338 C290 0.929 . S
H339 C291 0.930 . S
H340 C298 0.929 . S
H341 C299 0.930 . S
H342 C300 0.930 . S
H343 C301 0.930 . S
H344 C303 0.929 . S
H345 C304 0.930 . S
H346 C305 0.930 . S
H347 C306 0.930 . S
H348 C310 0.929 . S
H349 C312 0.930 . S
H350 C318 0.929 . S
H351 C319 0.930 . S
Li352 N369 1.990 . S
Li352 O412 1.956 . S
Li352 O413 1.970 . S
Li352 O414 1.961 . S
Li353 N377 1.990 . S
Li353 O412 1.970 . S
Li353 O413 1.956 . S
Li353 O415 1.961 . S
Li354 N399 1.990 . S
Li354 O412 1.961 . S
Li354 O414 1.956 . S
Li354 O415 1.970 . S
Li355 N405 1.990 . S
Li355 O413 1.961 . S
Li355 O414 1.970 . S
Li355 O415 1.956 . S
C356 C358 1.348 . S
C356 C359 1.356 . S
C356 O412 1.325 . S
N357 C360 1.314 . S
N357 C361 1.279 . S
C358 C356 1.348 . S
C358 C360 1.353 . S
C358 H416 0.929 . S
C359 C356 1.356 . S
C359 C361 1.358 . S
C359 H417 0.930 . S
C360 N357 1.314 . S
C360 C358 1.353 . S
C360 H418 0.930 . S
C361 N357 1.279 . S
C361 C359 1.358 . S
C361 H419 0.930 . S
C362 C365 1.348 . S
C362 C366 1.356 . S
C362 O413 1.325 . S
C363 N364 1.279 . S
C363 C366 1.358 . S
C363 H420 0.930 . S
N364 C363 1.279 . S
N364 C367 1.314 . S
C365 C362 1.348 . S
C365 C367 1.353 . S
C365 H421 0.929 . S
C366 C362 1.356 . S
C366 C363 1.358 . S
C366 H422 0.930 . S
C367 N364 1.314 . S
C367 C365 1.353 . S
C367 H423 0.930 . S
C368 N369 1.314 . S
C368 C373 1.353 . S
C368 H374 0.930 . S
N369 Li352 1.990 . S
N369 C368 1.314 . S
N369 C371 1.279 . S
C370 C371 1.358 . S
C370 C372 1.356 . S
C370 H424 0.930 . S
C371 N369 1.279 . S
C371 C370 1.358 . S
C371 H375 0.930 . S
C372 C370 1.356 . S
C372 C373 1.348 . S
C373 C368 1.353 . S
C373 C372 1.348 . S
C373 H425 0.929 . S
H374 C368 0.930 . S
H375 C371 0.930 . S
C376 N377 1.314 . S
C376 C378 1.353 . S
C376 H382 0.930 . S
N377 Li353 1.990 . S
N377 C376 1.314 . S
N377 C380 1.279 . S
C378 C376 1.353 . S
C378 C381 1.348 . S
C378 H426 0.929 . S
C379 C380 1.358 . S
C379 C381 1.356 . S
C379 H427 0.930 . S
C380 N377 1.279 . S
C380 C379 1.358 . S
C380 H383 0.930 . S
C381 C378 1.348 . S
C381 C379 1.356 . S
H382 C376 0.930 . S
H383 C380 0.930 . S
C384 C386 1.348 . S
C384 C387 1.356 . S
C384 O414 1.325 . S
N385 C388 1.314 . S
N385 C389 1.279 . S
C386 C384 1.348 . S
C386 C388 1.353 . S
C386 H428 0.929 . S
C387 C384 1.356 . S
C387 C389 1.358 . S
C387 H429 0.930 . S
C388 N385 1.314 . S
C388 C386 1.353 . S
C388 H430 0.930 . S
C389 N385 1.279 . S
C389 C387 1.358 . S
C389 H431 0.930 . S
C390 C391 1.348 . S
C390 C392 1.356 . S
C390 O415 1.325 . S
C391 C390 1.348 . S
C391 C393 1.353 . S
C391 H432 0.929 . S
C392 C390 1.356 . S
C392 C394 1.358 . S
C392 H433 0.930 . S
C393 C391 1.353 . S
C393 N395 1.314 . S
C393 H434 0.930 . S
C394 C392 1.358 . S
C394 N395 1.279 . S
C394 H435 0.930 . S
N395 C393 1.314 . S
N395 C394 1.279 . S
C396 C398 1.353 . S
C396 N399 1.314 . S
C396 H402 0.930 . S
C397 N399 1.279 . S
C397 C400 1.358 . S
C397 H403 0.930 . S
C398 C396 1.353 . S
C398 C401 1.348 . S
C398 H436 0.929 . S
N399 Li354 1.990 . S
N399 C396 1.314 . S
N399 C397 1.279 . S
C400 C397 1.358 . S
C400 C401 1.356 . S
C400 H437 0.930 . S
C401 C398 1.348 . S
C401 C400 1.356 . S
H402 C396 0.930 . S
H403 C397 0.930 . S
C404 N405 1.314 . S
C404 C406 1.353 . S
C404 H410 0.930 . S
N405 Li355 1.990 . S
N405 C404 1.314 . S
N405 C408 1.279 . S
C406 C404 1.353 . S
C406 C409 1.348 . S
C406 H438 0.929 . S
C407 C408 1.358 . S
C407 C409 1.356 . S
C407 H439 0.930 . S
C408 N405 1.279 . S
C408 C407 1.358 . S
C408 H411 0.930 . S
C409 C406 1.348 . S
C409 C407 1.356 . S
H410 C404 0.930 . S
H411 C408 0.930 . S
O412 Li352 1.956 . S
O412 Li353 1.970 . S
O412 Li354 1.961 . S
O412 C356 1.325 . S
O413 Li352 1.970 . S
O413 Li353 1.956 . S
O413 Li355 1.961 . S
O413 C362 1.325 . S
O414 Li352 1.961 . S
O414 Li354 1.956 . S
O414 Li355 1.970 . S
O414 C384 1.325 . S
O415 Li353 1.961 . S
O415 Li354 1.970 . S
O415 Li355 1.956 . S
O415 C390 1.325 . S
H416 C358 0.929 . S
H417 C359 0.930 . S
H418 C360 0.930 . S
H419 C361 0.930 . S
H420 C363 0.930 . S
H421 C365 0.929 . S
H422 C366 0.930 . S
H423 C367 0.930 . S
H424 C370 0.930 . S
H425 C373 0.929 . S
H426 C378 0.929 . S
H427 C379 0.930 . S
H428 C386 0.929 . S
H429 C387 0.930 . S
H430 C388 0.930 . S
H431 C389 0.930 . S
H432 C391 0.929 . S
H433 C392 0.930 . S
H434 C393 0.930 . S
H435 C394 0.930 . S
H436 C398 0.929 . S
H437 C400 0.930 . S
H438 C406 0.929 . S
H439 C407 0.930 . S
Li440 N457 1.990 . S
Li440 O500 1.956 . S
Li440 O501 1.970 . S
Li440 O502 1.961 . S
Li441 N465 1.990 . S
Li441 O500 1.970 . S
Li441 O501 1.956 . S
Li441 O503 1.961 . S
Li442 N487 1.990 . S
Li442 O500 1.961 . S
Li442 O502 1.956 . S
Li442 O503 1.970 . S
Li443 N493 1.990 . S
Li443 O501 1.961 . S
Li443 O502 1.970 . S
Li443 O503 1.956 . S
C444 C446 1.348 . S
C444 C447 1.356 . S
C444 O500 1.325 . S
N445 C448 1.314 . S
N445 C449 1.279 . S
C446 C444 1.348 . S
C446 C448 1.353 . S
C446 H504 0.929 . S
C447 C444 1.356 . S
C447 C449 1.358 . S
C447 H505 0.930 . S
C448 N445 1.314 . S
C448 C446 1.353 . S
C448 H506 0.930 . S
C449 N445 1.279 . S
C449 C447 1.358 . S
C449 H507 0.930 . S
C450 C453 1.348 . S
C450 C454 1.356 . S
C450 O501 1.325 . S
C451 N452 1.279 . S
C451 C454 1.358 . S
C451 H508 0.930 . S
N452 C451 1.279 . S
N452 C455 1.314 . S
C453 C450 1.348 . S
C453 C455 1.353 . S
C453 H509 0.929 . S
C454 C450 1.356 . S
C454 C451 1.358 . S
C454 H510 0.930 . S
C455 N452 1.314 . S
C455 C453 1.353 . S
C455 H511 0.930 . S
C456 N457 1.314 . S
C456 C461 1.353 . S
C456 H462 0.930 . S
N457 Li440 1.990 . S
N457 C456 1.314 . S
N457 C459 1.279 . S
C458 C459 1.358 . S
C458 C460 1.356 . S
C458 H512 0.930 . S
C459 N457 1.279 . S
C459 C458 1.358 . S
C459 H463 0.930 . S
C460 C458 1.356 . S
C460 C461 1.348 . S
C461 C456 1.353 . S
C461 C460 1.348 . S
C461 H513 0.929 . S
H462 C456 0.930 . S
H463 C459 0.930 . S
C464 N465 1.314 . S
C464 C466 1.353 . S
C464 H470 0.930 . S
N465 Li441 1.990 . S
N465 C464 1.314 . S
N465 C468 1.279 . S
C466 C464 1.353 . S
C466 C469 1.348 . S
C466 H514 0.929 . S
C467 C468 1.358 . S
C467 C469 1.356 . S
C467 H515 0.930 . S
C468 N465 1.279 . S
C468 C467 1.358 . S
C468 H471 0.930 . S
C469 C466 1.348 . S
C469 C467 1.356 . S
H470 C464 0.930 . S
H471 C468 0.930 . S
C472 C474 1.348 . S
C472 C475 1.356 . S
C472 O502 1.325 . S
N473 C476 1.314 . S
N473 C477 1.279 . S
C474 C472 1.348 . S
C474 C476 1.353 . S
C474 H516 0.929 . S
C475 C472 1.356 . S
C475 C477 1.358 . S
C475 H517 0.930 . S
C476 N473 1.314 . S
C476 C474 1.353 . S
C476 H518 0.930 . S
C477 N473 1.279 . S
C477 C475 1.358 . S
C477 H519 0.930 . S
C478 C479 1.348 . S
C478 C480 1.356 . S
C478 O503 1.325 . S
C479 C478 1.348 . S
C479 C481 1.353 . S
C479 H520 0.929 . S
C480 C478 1.356 . S
C480 C482 1.358 . S
C480 H521 0.930 . S
C481 C479 1.353 . S
C481 N483 1.314 . S
C481 H522 0.930 . S
C482 C480 1.358 . S
C482 N483 1.279 . S
C482 H523 0.930 . S
N483 C481 1.314 . S
N483 C482 1.279 . S
C484 C486 1.353 . S
C484 N487 1.314 . S
C484 H490 0.930 . S
C485 N487 1.279 . S
C485 C488 1.358 . S
C485 H491 0.930 . S
C486 C484 1.353 . S
C486 C489 1.348 . S
C486 H524 0.929 . S
N487 Li442 1.990 . S
N487 C484 1.314 . S
N487 C485 1.279 . S
C488 C485 1.358 . S
C488 C489 1.356 . S
C488 H525 0.930 . S
C489 C486 1.348 . S
C489 C488 1.356 . S
H490 C484 0.930 . S
H491 C485 0.930 . S
C492 N493 1.314 . S
C492 C494 1.353 . S
C492 H498 0.930 . S
N493 Li443 1.990 . S
N493 C492 1.314 . S
N493 C496 1.279 . S
C494 C492 1.353 . S
C494 C497 1.348 . S
C494 H526 0.929 . S
C495 C496 1.358 . S
C495 C497 1.356 . S
C495 H527 0.930 . S
C496 N493 1.279 . S
C496 C495 1.358 . S
C496 H499 0.930 . S
C497 C494 1.348 . S
C497 C495 1.356 . S
H498 C492 0.930 . S
H499 C496 0.930 . S
O500 Li440 1.956 . S
O500 Li441 1.970 . S
O500 Li442 1.961 . S
O500 C444 1.325 . S
O501 Li440 1.970 . S
O501 Li441 1.956 . S
O501 Li443 1.961 . S
O501 C450 1.325 . S
O502 Li440 1.961 . S
O502 Li442 1.956 . S
O502 Li443 1.970 . S
O502 C472 1.325 . S
O503 Li441 1.961 . S
O503 Li442 1.970 . S
O503 Li443 1.956 . S
O503 C478 1.325 . S
H504 C446 0.929 . S
H505 C447 0.930 . S
H506 C448 0.930 . S
H507 C449 0.930 . S
H508 C451 0.930 . S
H509 C453 0.929 . S
H510 C454 0.930 . S
H511 C455 0.930 . S
H512 C458 0.930 . S
H513 C461 0.929 . S
H514 C466 0.929 . S
H515 C467 0.930 . S
H516 C474 0.929 . S
H517 C475 0.930 . S
H518 C476 0.930 . S
H519 C477 0.930 . S
H520 C479 0.929 . S
H521 C480 0.930 . S
H522 C481 0.930 . S
H523 C482 0.930 . S
H524 C486 0.929 . S
H525 C488 0.930 . S
H526 C494 0.929 . S
H527 C495 0.930 . S
Li528 N545 1.990 . S
Li528 O588 1.956 . S
Li528 O589 1.970 . S
Li528 O590 1.961 . S
Li529 N553 1.990 . S
Li529 O588 1.970 . S
Li529 O589 1.956 . S
Li529 O591 1.961 . S
Li530 N575 1.990 . S
Li530 O588 1.961 . S
Li530 O590 1.956 . S
Li530 O591 1.970 . S
Li531 N581 1.990 . S
Li531 O589 1.961 . S
Li531 O590 1.970 . S
Li531 O591 1.956 . S
C532 C534 1.348 . S
C532 C535 1.356 . S
C532 O588 1.325 . S
N533 C536 1.314 . S
N533 C537 1.279 . S
C534 C532 1.348 . S
C534 C536 1.353 . S
C534 H592 0.929 . S
C535 C532 1.356 . S
C535 C537 1.358 . S
C535 H593 0.930 . S
C536 N533 1.314 . S
C536 C534 1.353 . S
C536 H594 0.930 . S
C537 N533 1.279 . S
C537 C535 1.358 . S
C537 H595 0.930 . S
C538 C541 1.348 . S
C538 C542 1.356 . S
C538 O589 1.325 . S
C539 N540 1.279 . S
C539 C542 1.358 . S
C539 H596 0.930 . S
N540 C539 1.279 . S
N540 C543 1.314 . S
C541 C538 1.348 . S
C541 C543 1.353 . S
C541 H597 0.929 . S
C542 C538 1.356 . S
C542 C539 1.358 . S
C542 H598 0.930 . S
C543 N540 1.314 . S
C543 C541 1.353 . S
C543 H599 0.930 . S
C544 N545 1.314 . S
C544 C549 1.353 . S
C544 H550 0.930 . S
N545 Li528 1.990 . S
N545 C544 1.314 . S
N545 C547 1.279 . S
C546 C547 1.358 . S
C546 C548 1.356 . S
C546 H600 0.930 . S
C547 N545 1.279 . S
C547 C546 1.358 . S
C547 H551 0.930 . S
C548 C546 1.356 . S
C548 C549 1.348 . S
C549 C544 1.353 . S
C549 C548 1.348 . S
C549 H601 0.929 . S
H550 C544 0.930 . S
H551 C547 0.930 . S
C552 N553 1.314 . S
C552 C554 1.353 . S
C552 H558 0.930 . S
N553 Li529 1.990 . S
N553 C552 1.314 . S
N553 C556 1.279 . S
C554 C552 1.353 . S
C554 C557 1.348 . S
C554 H602 0.929 . S
C555 C556 1.358 . S
C555 C557 1.356 . S
C555 H603 0.930 . S
C556 N553 1.279 . S
C556 C555 1.358 . S
C556 H559 0.930 . S
C557 C554 1.348 . S
C557 C555 1.356 . S
H558 C552 0.930 . S
H559 C556 0.930 . S
C560 C562 1.348 . S
C560 C563 1.356 . S
C560 O590 1.325 . S
N561 C564 1.314 . S
N561 C565 1.279 . S
C562 C560 1.348 . S
C562 C564 1.353 . S
C562 H604 0.929 . S
C563 C560 1.356 . S
C563 C565 1.358 . S
C563 H605 0.930 . S
C564 N561 1.314 . S
C564 C562 1.353 . S
C564 H606 0.930 . S
C565 N561 1.279 . S
C565 C563 1.358 . S
C565 H607 0.930 . S
C566 C567 1.348 . S
C566 C568 1.356 . S
C566 O591 1.325 . S
C567 C566 1.348 . S
C567 C569 1.353 . S
C567 H608 0.929 . S
C568 C566 1.356 . S
C568 C570 1.358 . S
C568 H609 0.930 . S
C569 C567 1.353 . S
C569 N571 1.314 . S
C569 H610 0.930 . S
C570 C568 1.358 . S
C570 N571 1.279 . S
C570 H611 0.930 . S
N571 C569 1.314 . S
N571 C570 1.279 . S
C572 C574 1.353 . S
C572 N575 1.314 . S
C572 H578 0.930 . S
C573 N575 1.279 . S
C573 C576 1.358 . S
C573 H579 0.930 . S
C574 C572 1.353 . S
C574 C577 1.348 . S
C574 H612 0.929 . S
N575 Li530 1.990 . S
N575 C572 1.314 . S
N575 C573 1.279 . S
C576 C573 1.358 . S
C576 C577 1.356 . S
C576 H613 0.930 . S
C577 C574 1.348 . S
C577 C576 1.356 . S
H578 C572 0.930 . S
H579 C573 0.930 . S
C580 N581 1.314 . S
C580 C582 1.353 . S
C580 H586 0.930 . S
N581 Li531 1.990 . S
N581 C580 1.314 . S
N581 C584 1.279 . S
C582 C580 1.353 . S
C582 C585 1.348 . S
C582 H614 0.929 . S
C583 C584 1.358 . S
C583 C585 1.356 . S
C583 H615 0.930 . S
C584 N581 1.279 . S
C584 C583 1.358 . S
C584 H587 0.930 . S
C585 C582 1.348 . S
C585 C583 1.356 . S
H586 C580 0.930 . S
H587 C584 0.930 . S
O588 Li528 1.956 . S
O588 Li529 1.970 . S
O588 Li530 1.961 . S
O588 C532 1.325 . S
O589 Li528 1.970 . S
O589 Li529 1.956 . S
O589 Li531 1.961 . S
O589 C538 1.325 . S
O590 Li528 1.961 . S
O590 Li530 1.956 . S
O590 Li531 1.970 . S
O590 C560 1.325 . S
O591 Li529 1.961 . S
O591 Li530 1.970 . S
O591 Li531 1.956 . S
O591 C566 1.325 . S
H592 C534 0.929 . S
H593 C535 0.930 . S
H594 C536 0.930 . S
H595 C537 0.930 . S
H596 C539 0.930 . S
H597 C541 0.929 . S
H598 C542 0.930 . S
H599 C543 0.930 . S
H600 C546 0.930 . S
H601 C549 0.929 . S
H602 C554 0.929 . S
H603 C555 0.930 . S
H604 C562 0.929 . S
H605 C563 0.930 . S
H606 C564 0.930 . S
H607 C565 0.930 . S
H608 C567 0.929 . S
H609 C568 0.930 . S
H610 C569 0.930 . S
H611 C570 0.930 . S
H612 C574 0.929 . S
H613 C576 0.930 . S
H614 C582 0.929 . S
H615 C583 0.930 . S
Li616 N633 1.990 . S
Li616 O676 1.956 . S
Li616 O677 1.970 . S
Li616 O678 1.961 . S
Li617 N641 1.990 . S
Li617 O676 1.970 . S
Li617 O677 1.956 . S
Li617 O679 1.961 . S
Li618 N663 1.990 . S
Li618 O676 1.961 . S
Li618 O678 1.956 . S
Li618 O679 1.970 . S
Li619 N669 1.990 . S
Li619 O677 1.961 . S
Li619 O678 1.970 . S
Li619 O679 1.956 . S
C620 C622 1.348 . S
C620 C623 1.356 . S
C620 O676 1.325 . S
N621 C624 1.314 . S
N621 C625 1.279 . S
C622 C620 1.348 . S
C622 C624 1.353 . S
C622 H680 0.929 . S
C623 C620 1.356 . S
C623 C625 1.358 . S
C623 H681 0.930 . S
C624 N621 1.314 . S
C624 C622 1.353 . S
C624 H682 0.930 . S
C625 N621 1.279 . S
C625 C623 1.358 . S
C625 H683 0.930 . S
C626 C629 1.348 . S
C626 C630 1.356 . S
C626 O677 1.325 . S
C627 N628 1.279 . S
C627 C630 1.358 . S
C627 H684 0.930 . S
N628 C627 1.279 . S
N628 C631 1.314 . S
C629 C626 1.348 . S
C629 C631 1.353 . S
C629 H685 0.929 . S
C630 C626 1.356 . S
C630 C627 1.358 . S
C630 H686 0.930 . S
C631 N628 1.314 . S
C631 C629 1.353 . S
C631 H687 0.930 . S
C632 N633 1.314 . S
C632 C637 1.353 . S
C632 H638 0.930 . S
N633 Li616 1.990 . S
N633 C632 1.314 . S
N633 C635 1.279 . S
C634 C635 1.358 . S
C634 C636 1.356 . S
C634 H688 0.930 . S
C635 N633 1.279 . S
C635 C634 1.358 . S
C635 H639 0.930 . S
C636 C634 1.356 . S
C636 C637 1.348 . S
C637 C632 1.353 . S
C637 C636 1.348 . S
C637 H689 0.929 . S
H638 C632 0.930 . S
H639 C635 0.930 . S
C640 N641 1.314 . S
C640 C642 1.353 . S
C640 H646 0.930 . S
N641 Li617 1.990 . S
N641 C640 1.314 . S
N641 C644 1.279 . S
C642 C640 1.353 . S
C642 C645 1.348 . S
C642 H690 0.929 . S
C643 C644 1.358 . S
C643 C645 1.356 . S
C643 H691 0.930 . S
C644 N641 1.279 . S
C644 C643 1.358 . S
C644 H647 0.930 . S
C645 C642 1.348 . S
C645 C643 1.356 . S
H646 C640 0.930 . S
H647 C644 0.930 . S
C648 C650 1.348 . S
C648 C651 1.356 . S
C648 O678 1.325 . S
N649 C652 1.314 . S
N649 C653 1.279 . S
C650 C648 1.348 . S
C650 C652 1.353 . S
C650 H692 0.929 . S
C651 C648 1.356 . S
C651 C653 1.358 . S
C651 H693 0.930 . S
C652 N649 1.314 . S
C652 C650 1.353 . S
C652 H694 0.930 . S
C653 N649 1.279 . S
C653 C651 1.358 . S
C653 H695 0.930 . S
C654 C655 1.348 . S
C654 C656 1.356 . S
C654 O679 1.325 . S
C655 C654 1.348 . S
C655 C657 1.353 . S
C655 H696 0.929 . S
C656 C654 1.356 . S
C656 C658 1.358 . S
C656 H697 0.930 . S
C657 C655 1.353 . S
C657 N659 1.314 . S
C657 H698 0.930 . S
C658 C656 1.358 . S
C658 N659 1.279 . S
C658 H699 0.930 . S
N659 C657 1.314 . S
N659 C658 1.279 . S
C660 C662 1.353 . S
C660 N663 1.314 . S
C660 H666 0.930 . S
C661 N663 1.279 . S
C661 C664 1.358 . S
C661 H667 0.930 . S
C662 C660 1.353 . S
C662 C665 1.348 . S
C662 H700 0.929 . S
N663 Li618 1.990 . S
N663 C660 1.314 . S
N663 C661 1.279 . S
C664 C661 1.358 . S
C664 C665 1.356 . S
C664 H701 0.930 . S
C665 C662 1.348 . S
C665 C664 1.356 . S
H666 C660 0.930 . S
H667 C661 0.930 . S
C668 N669 1.314 . S
C668 C670 1.353 . S
C668 H674 0.930 . S
N669 Li619 1.990 . S
N669 C668 1.314 . S
N669 C672 1.279 . S
C670 C668 1.353 . S
C670 C673 1.348 . S
C670 H702 0.929 . S
C671 C672 1.358 . S
C671 C673 1.356 . S
C671 H703 0.930 . S
C672 N669 1.279 . S
C672 C671 1.358 . S
C672 H675 0.930 . S
C673 C670 1.348 . S
C673 C671 1.356 . S
H674 C668 0.930 . S
H675 C672 0.930 . S
O676 Li616 1.956 . S
O676 Li617 1.970 . S
O676 Li618 1.961 . S
O676 C620 1.325 . S
O677 Li616 1.970 . S
O677 Li617 1.956 . S
O677 Li619 1.961 . S
O677 C626 1.325 . S
O678 Li616 1.961 . S
O678 Li618 1.956 . S
O678 Li619 1.970 . S
O678 C648 1.325 . S
O679 Li617 1.961 . S
O679 Li618 1.970 . S
O679 Li619 1.956 . S
O679 C654 1.325 . S
H680 C622 0.929 . S
H681 C623 0.930 . S
H682 C624 0.930 . S
H683 C625 0.930 . S
H684 C627 0.930 . S
H685 C629 0.929 . S
H686 C630 0.930 . S
H687 C631 0.930 . S
H688 C634 0.930 . S
H689 C637 0.929 . S
H690 C642 0.929 . S
H691 C643 0.930 . S
H692 C650 0.929 . S
H693 C651 0.930 . S
H694 C652 0.930 . S
H695 C653 0.930 . S
H696 C655 0.929 . S
H697 C656 0.930 . S
H698 C657 0.930 . S
H699 C658 0.930 . S
H700 C662 0.929 . S
H701 C664 0.930 . S
H702 C670 0.929 . S
H703 C671 0.930 . S
Li704 N721 1.990 . S
Li704 O764 1.956 . S
Li704 O765 1.970 . S
Li704 O766 1.961 . S
Li705 N729 1.990 . S
Li705 O764 1.970 . S
Li705 O765 1.956 . S
Li705 O767 1.961 . S
Li706 N751 1.990 . S
Li706 O764 1.961 . S
Li706 O766 1.956 . S
Li706 O767 1.970 . S
Li707 N757 1.990 . S
Li707 O765 1.961 . S
Li707 O766 1.970 . S
Li707 O767 1.956 . S
C708 C710 1.348 . S
C708 C711 1.356 . S
C708 O764 1.325 . S
N709 C712 1.314 . S
N709 C713 1.279 . S
C710 C708 1.348 . S
C710 C712 1.353 . S
C710 H768 0.929 . S
C711 C708 1.356 . S
C711 C713 1.358 . S
C711 H769 0.930 . S
C712 N709 1.314 . S
C712 C710 1.353 . S
C712 H770 0.930 . S
C713 N709 1.279 . S
C713 C711 1.358 . S
C713 H771 0.930 . S
C714 C717 1.348 . S
C714 C718 1.356 . S
C714 O765 1.325 . S
C715 N716 1.279 . S
C715 C718 1.358 . S
C715 H772 0.930 . S
N716 C715 1.279 . S
N716 C719 1.314 . S
C717 C714 1.348 . S
C717 C719 1.353 . S
C717 H773 0.929 . S
C718 C714 1.356 . S
C718 C715 1.358 . S
C718 H774 0.930 . S
C719 N716 1.314 . S
C719 C717 1.353 . S
C719 H775 0.930 . S
C720 N721 1.314 . S
C720 C725 1.353 . S
C720 H726 0.930 . S
N721 Li704 1.990 . S
N721 C720 1.314 . S
N721 C723 1.279 . S
C722 C723 1.358 . S
C722 C724 1.356 . S
C722 H776 0.930 . S
C723 N721 1.279 . S
C723 C722 1.358 . S
C723 H727 0.930 . S
C724 C722 1.356 . S
C724 C725 1.348 . S
C725 C720 1.353 . S
C725 C724 1.348 . S
C725 H777 0.929 . S
H726 C720 0.930 . S
H727 C723 0.930 . S
C728 N729 1.314 . S
C728 C730 1.353 . S
C728 H734 0.930 . S
N729 Li705 1.990 . S
N729 C728 1.314 . S
N729 C732 1.279 . S
C730 C728 1.353 . S
C730 C733 1.348 . S
C730 H778 0.929 . S
C731 C732 1.358 . S
C731 C733 1.356 . S
C731 H779 0.930 . S
C732 N729 1.279 . S
C732 C731 1.358 . S
C732 H735 0.930 . S
C733 C730 1.348 . S
C733 C731 1.356 . S
H734 C728 0.930 . S
H735 C732 0.930 . S
C736 C738 1.348 . S
C736 C739 1.356 . S
C736 O766 1.325 . S
N737 C740 1.314 . S
N737 C741 1.279 . S
C738 C736 1.348 . S
C738 C740 1.353 . S
C738 H780 0.929 . S
C739 C736 1.356 . S
C739 C741 1.358 . S
C739 H781 0.930 . S
C740 N737 1.314 . S
C740 C738 1.353 . S
C740 H782 0.930 . S
C741 N737 1.279 . S
C741 C739 1.358 . S
C741 H783 0.930 . S
C742 C743 1.348 . S
C742 C744 1.356 . S
C742 O767 1.325 . S
C743 C742 1.348 . S
C743 C745 1.353 . S
C743 H784 0.929 . S
C744 C742 1.356 . S
C744 C746 1.358 . S
C744 H785 0.930 . S
C745 C743 1.353 . S
C745 N747 1.314 . S
C745 H786 0.930 . S
C746 C744 1.358 . S
C746 N747 1.279 . S
C746 H787 0.930 . S
N747 C745 1.314 . S
N747 C746 1.279 . S
C748 C750 1.353 . S
C748 N751 1.314 . S
C748 H754 0.930 . S
C749 N751 1.279 . S
C749 C752 1.358 . S
C749 H755 0.930 . S
C750 C748 1.353 . S
C750 C753 1.348 . S
C750 H788 0.929 . S
N751 Li706 1.990 . S
N751 C748 1.314 . S
N751 C749 1.279 . S
C752 C749 1.358 . S
C752 C753 1.356 . S
C752 H789 0.930 . S
C753 C750 1.348 . S
C753 C752 1.356 . S
H754 C748 0.930 . S
H755 C749 0.930 . S
C756 N757 1.314 . S
C756 C758 1.353 . S
C756 H762 0.930 . S
N757 Li707 1.990 . S
N757 C756 1.314 . S
N757 C760 1.279 . S
C758 C756 1.353 . S
C758 C761 1.348 . S
C758 H790 0.929 . S
C759 C760 1.358 . S
C759 C761 1.356 . S
C759 H791 0.930 . S
C760 N757 1.279 . S
C760 C759 1.358 . S
C760 H763 0.930 . S
C761 C758 1.348 . S
C761 C759 1.356 . S
H762 C756 0.930 . S
H763 C760 0.930 . S
O764 Li704 1.956 . S
O764 Li705 1.970 . S
O764 Li706 1.961 . S
O764 C708 1.325 . S
O765 Li704 1.970 . S
O765 Li705 1.956 . S
O765 Li707 1.961 . S
O765 C714 1.325 . S
O766 Li704 1.961 . S
O766 Li706 1.956 . S
O766 Li707 1.970 . S
O766 C736 1.325 . S
O767 Li705 1.961 . S
O767 Li706 1.970 . S
O767 Li707 1.956 . S
O767 C742 1.325 . S
H768 C710 0.929 . S
H769 C711 0.930 . S
H770 C712 0.930 . S
H771 C713 0.930 . S
H772 C715 0.930 . S
H773 C717 0.929 . S
H774 C718 0.930 . S
H775 C719 0.930 . S
H776 C722 0.930 . S
H777 C725 0.929 . S
H778 C730 0.929 . S
H779 C731 0.930 . S
H780 C738 0.929 . S
H781 C739 0.930 . S
H782 C740 0.930 . S
H783 C741 0.930 . S
H784 C743 0.929 . S
H785 C744 0.930 . S
H786 C745 0.930 . S
H787 C746 0.930 . S
H788 C750 0.929 . S
H789 C752 0.930 . S
H790 C758 0.929 . S
H791 C759 0.930 . S
H792 C798 0.930 . S
H793 C802 0.947 . S
H794 C807 0.929 . S
H795 C805 0.929 . S
H796 C800 0.929 . S
H797 C806 0.929 . S
C798 H792 0.930 . S
C798 C799 1.367 1_554 S
C798 C806 1.378 . S
C799 C798 1.367 1_556 S
C799 C807 1.433 . S
C800 H796 0.929 . S
C800 C802 1.385 . S
C800 C804 1.350 1_556 S
C801 C804 1.463 . S
C801 C806 1.350 . S
C801 N809 1.427 1_554 S
C802 H793 0.947 . S
C802 C800 1.385 . S
C802 C803 1.343 1_556 S
C803 C802 1.343 1_554 S
C803 C805 1.433 . S
C804 C800 1.350 1_554 S
C804 C801 1.463 . S
C804 N808 1.427 . S
C805 H795 0.929 . S
C805 C803 1.433 . S
C805 N808 1.384 . S
C806 H797 0.929 . S
C806 C798 1.378 . S
C806 C801 1.350 . S
C807 H794 0.929 . S
C807 C799 1.433 . S
C807 N809 1.384 . S
N808 C804 1.427 . S
N808 C805 1.384 . S
N809 C801 1.427 1_556 S
N809 C807 1.384 . S
H810 C816 0.954 . S
H811 C820 0.930 . S
H812 C825 0.929 . S
H813 C823 0.929 . S
H814 C818 0.929 . S
H815 C824 0.929 . S
C816 H810 0.954 . S
C816 C817 1.333 1_556 S
C816 C824 1.389 . S
C817 C816 1.333 1_554 S
C817 C825 1.433 . S
C818 H814 0.929 . S
C818 C820 1.378 . S
C818 C822 1.350 . S
C819 C822 1.463 . S
C819 C824 1.350 1_544 S
C819 N827 1.427 1_545 S
C820 H811 0.930 . S
C820 C818 1.378 . S
C820 C821 1.367 1_554 S
C821 C820 1.367 1_556 S
C821 C823 1.433 . S
C822 C818 1.350 . S
C822 C819 1.463 . S
C822 N826 1.427 1_554 S
C823 H813 0.929 . S
C823 C821 1.433 . S
C823 N826 1.384 . S
C824 H815 0.929 . S
C824 C816 1.389 . S
C824 C819 1.350 1_566 S
C825 H812 0.929 . S
C825 C817 1.433 . S
C825 N827 1.384 . S
N826 C822 1.427 1_556 S
N826 C823 1.384 . S
N827 C819 1.427 1_565 S
N827 C825 1.384 . S
H828 C834 0.930 . S
H829 C838 0.930 . S
H830 C843 0.929 . S
H831 C841 0.929 1_556 S
H832 C836 0.929 . S
H833 C842 0.929 1_455 S
C834 H828 0.930 . S
C834 C835 1.367 . S
C834 C842 1.378 . S
C835 C834 1.367 . S
C835 C843 1.433 1_556 S
C836 H832 0.929 . S
C836 C838 1.378 . S
C836 C840 1.350 . S
C837 C840 1.494 . S
C837 C842 1.325 1_454 S
C837 N845 1.424 1_455 S
C838 H829 0.930 . S
C838 C836 1.378 . S
C838 C839 1.367 . S
C839 C838 1.367 . S
C839 C841 1.433 . S
C840 C836 1.350 . S
C840 C837 1.494 . S
C840 N844 1.427 1_554 S
C841 H831 0.929 1_554 S
C841 C839 1.433 . S
C841 N844 1.384 1_554 S
C842 H833 0.929 1_655 S
C842 C834 1.378 . S
C842 C837 1.325 1_656 S
C843 H830 0.929 . S
C843 C835 1.433 1_554 S
C843 N845 1.384 . S
N844 C840 1.427 1_556 S
N844 C841 1.384 1_556 S
N845 C837 1.424 1_655 S
N845 C843 1.384 . S
H846 C852 0.930 . S
H847 C856 0.930 . S
H848 C861 0.929 . S
H849 C859 0.929 . S
H850 C854 0.929 . S
H851 C860 0.929 . S
C852 H846 0.930 . S
C852 C853 1.367 . S
C852 C860 1.378 . S
C853 C852 1.367 . S
C853 C861 1.433 . S
C854 H850 0.929 . S
C854 C856 1.378 . S
C854 C858 1.350 . S
C855 C858 1.463 . S
C855 C860 1.350 . S
C855 N863 1.427 . S
C856 H847 0.930 . S
C856 C854 1.378 . S
C856 C857 1.367 . S
C857 C856 1.367 . S
C857 C859 1.433 . S
C858 C854 1.350 . S
C858 C855 1.463 . S
C858 N862 1.427 . S
C859 H849 0.929 . S
C859 C857 1.433 . S
C859 N862 1.384 . S
C860 H851 0.929 . S
C860 C852 1.378 . S
C860 C855 1.350 . S
C861 H848 0.929 . S
C861 C853 1.433 . S
C861 N863 1.384 . S
N862 C858 1.427 . S
N862 C859 1.384 . S
N863 C855 1.427 . S
N863 C861 1.384 . S
H864 C870 0.930 . S
H865 C874 0.930 . S
H866 C879 0.929 . S
H867 C877 0.929 . S
H868 C872 0.929 . S
H869 C878 0.929 . S
C870 H864 0.930 . S
C870 C871 1.367 . S
C870 C878 1.378 . S
C871 C870 1.367 . S
C871 C879 1.433 . S
C872 H868 0.929 . S
C872 C874 1.378 . S
C872 C876 1.350 . S
C873 C876 1.463 . S
C873 C878 1.350 . S
C873 N881 1.427 . S
C874 H865 0.930 . S
C874 C872 1.378 . S
C874 C875 1.367 . S
C875 C874 1.367 . S
C875 C877 1.433 . S
C876 C872 1.350 . S
C876 C873 1.463 . S
C876 N880 1.427 . S
C877 H867 0.929 . S
C877 C875 1.433 . S
C877 N880 1.384 . S
C878 H869 0.929 . S
C878 C870 1.378 . S
C878 C873 1.350 . S
C879 H866 0.929 . S
C879 C871 1.433 . S
C879 N881 1.384 . S
N880 C876 1.427 . S
N880 C877 1.384 . S
N881 C873 1.427 . S
N881 C879 1.384 . S
H882 C888 0.930 . S
H883 C892 0.930 . S
H884 C897 0.929 . S
H885 C895 0.929 . S
H886 C890 0.929 . S
H887 C896 0.929 . S
C888 H882 0.930 . S
C888 C889 1.367 . S
C888 C896 1.378 . S
C889 C888 1.367 . S
C889 C897 1.433 . S
C890 H886 0.929 . S
C890 C892 1.378 . S
C890 C894 1.350 . S
C891 C894 1.463 . S
C891 C896 1.350 . S
C891 N899 1.427 . S
C892 H883 0.930 . S
C892 C890 1.378 . S
C892 C893 1.367 . S
C893 C892 1.367 . S
C893 C895 1.433 . S
C894 C890 1.350 . S
C894 C891 1.463 . S
C894 N898 1.427 . S
C895 H885 0.929 . S
C895 C893 1.433 . S
C895 N898 1.384 . S
C896 H887 0.929 . S
C896 C888 1.378 . S
C896 C891 1.350 . S
C897 H884 0.929 . S
C897 C889 1.433 . S
C897 N899 1.384 . S
N898 C894 1.427 . S
N898 C895 1.384 . S
N899 C891 1.427 . S
N899 C897 1.384 . S
H900 C906 0.930 . S
H901 C910 0.930 . S
H902 C915 0.929 . S
H903 C913 0.929 . S
H904 C908 0.929 . S
H905 C914 0.929 . S
C906 H900 0.930 . S
C906 C907 1.367 . S
C906 C914 1.378 . S
C907 C906 1.367 . S
C907 C915 1.433 . S
C908 H904 0.929 . S
C908 C910 1.378 . S
C908 C912 1.350 . S
C909 C912 1.463 . S
C909 C914 1.350 . S
C909 N917 1.427 . S
C910 H901 0.930 . S
C910 C908 1.378 . S
C910 C911 1.367 . S
C911 C910 1.367 . S
C911 C913 1.433 . S
C912 C908 1.350 . S
C912 C909 1.463 . S
C912 N916 1.427 . S
C913 H903 0.929 . S
C913 C911 1.433 . S
C913 N916 1.384 . S
C914 H905 0.929 . S
C914 C906 1.378 . S
C914 C909 1.350 . S
C915 H902 0.929 . S
C915 C907 1.433 . S
C915 N917 1.384 . S
N916 C912 1.427 . S
N916 C913 1.384 . S
N917 C909 1.427 . S
N917 C915 1.384 . S
H918 C924 0.930 . S
H919 C928 0.930 . S
H920 C933 0.929 . S
H921 C931 0.929 . S
H922 C926 0.929 . S
H923 C932 0.929 . S
C924 H918 0.930 . S
C924 C925 1.367 . S
C924 C932 1.378 . S
C925 C924 1.367 . S
C925 C933 1.433 . S
C926 H922 0.929 . S
C926 C928 1.378 . S
C926 C930 1.350 . S
C927 C930 1.463 . S
C927 C932 1.350 . S
C927 N935 1.427 . S
C928 H919 0.930 . S
C928 C926 1.378 . S
C928 C929 1.367 . S
C929 C928 1.367 . S
C929 C931 1.433 . S
C930 C926 1.350 . S
C930 C927 1.463 . S
C930 N934 1.427 . S
C931 H921 0.929 . S
C931 C929 1.433 . S
C931 N934 1.384 . S
C932 H923 0.929 . S
C932 C924 1.378 . S
C932 C927 1.350 . S
C933 H920 0.929 . S
C933 C925 1.433 . S
C933 N935 1.384 . S
N934 C930 1.427 . S
N934 C931 1.384 . S
N935 C927 1.427 . S
N935 C933 1.384 . S
H936 C942 0.930 . S
H937 C946 0.930 . S
H938 C951 0.929 . S
H939 C949 0.929 . S
H940 C944 0.929 . S
H941 C950 0.929 . S
C942 H936 0.930 . S
C942 C943 1.367 . S
C942 C950 1.378 . S
C943 C942 1.367 . S
C943 C951 1.433 . S
C944 H940 0.929 . S
C944 C946 1.378 . S
C944 C948 1.350 . S
C945 C948 1.463 . S
C945 C950 1.350 . S
C945 N953 1.427 . S
C946 H937 0.930 . S
C946 C944 1.378 . S
C946 C947 1.367 . S
C947 C946 1.367 . S
C947 C949 1.433 . S
C948 C944 1.350 . S
C948 C945 1.463 . S
C948 N952 1.427 . S
C949 H939 0.929 . S
C949 C947 1.433 . S
C949 N952 1.384 . S
C950 H941 0.929 . S
C950 C942 1.378 . S
C950 C945 1.350 . S
C951 H938 0.929 . S
C951 C943 1.433 . S
C951 N953 1.384 . S
N952 C948 1.427 . S
N952 C949 1.384 . S
N953 C945 1.427 . S
N953 C951 1.384 . S
H954 C960 0.930 . S
H955 C964 0.930 . S
H956 C969 0.929 . S
H957 C967 0.929 . S
H958 C962 0.929 . S
H959 C968 0.929 . S
C960 H954 0.930 . S
C960 C961 1.367 . S
C960 C968 1.378 . S
C961 C960 1.367 . S
C961 C969 1.433 . S
C962 H958 0.929 . S
C962 C964 1.378 . S
C962 C966 1.350 . S
C963 C966 1.463 . S
C963 C968 1.350 . S
C963 N971 1.427 . S
C964 H955 0.930 . S
C964 C962 1.378 . S
C964 C965 1.367 . S
C965 C964 1.367 . S
C965 C967 1.433 . S
C966 C962 1.350 . S
C966 C963 1.463 . S
C966 N970 1.427 . S
C967 H957 0.929 . S
C967 C965 1.433 . S
C967 N970 1.384 . S
C968 H959 0.929 . S
C968 C960 1.378 . S
C968 C963 1.350 . S
C969 H956 0.929 . S
C969 C961 1.433 . S
C969 N971 1.384 . S
N970 C966 1.427 . S
N970 C967 1.384 . S
N971 C963 1.427 . S
N971 C969 1.384 . S
H972 C978 0.930 . S
H973 C982 0.930 . S
H974 C987 0.929 . S
H975 C985 0.929 . S
H976 C980 0.929 . S
H977 C986 0.929 . S
C978 H972 0.930 . S
C978 C979 1.367 . S
C978 C986 1.378 . S
C979 C978 1.367 . S
C979 C987 1.433 . S
C980 H976 0.929 . S
C980 C982 1.378 . S
C980 C984 1.350 . S
C981 C984 1.463 . S
C981 C986 1.350 . S
C981 N989 1.427 . S
C982 H973 0.930 . S
C982 C980 1.378 . S
C982 C983 1.367 . S
C983 C982 1.367 . S
C983 C985 1.433 . S
C984 C980 1.350 . S
C984 C981 1.463 . S
C984 N988 1.427 . S
C985 H975 0.929 . S
C985 C983 1.433 . S
C985 N988 1.384 . S
C986 H977 0.929 . S
C986 C978 1.378 . S
C986 C981 1.350 . S
C987 H974 0.929 . S
C987 C979 1.433 . S
C987 N989 1.384 . S
N988 C984 1.427 . S
N988 C985 1.384 . S
N989 C981 1.427 . S
N989 C987 1.384 . S
H990 C996 0.930 . S
H991 C1000 0.930 . S
H992 C1005 0.929 . S
H993 C1003 0.929 . S
H994 C998 0.906 1_545 S
H995 C1004 0.929 . S
C996 H990 0.930 . S
C996 C997 1.367 . S
C996 C1004 1.378 . S
C997 C996 1.367 . S
C997 C1005 1.433 . S
C998 H994 0.906 1_565 S
C998 C1000 1.378 1_565 S
C998 C1002 1.350 . S
C999 C1002 1.463 . S
C999 C1004 1.350 . S
C999 N1007 1.427 . S
C1000 H991 0.930 . S
C1000 C998 1.378 1_545 S
C1000 C1001 1.367 1_545 S
C1001 C1000 1.367 1_565 S
C1001 C1003 1.433 . S
C1002 C998 1.350 . S
C1002 C999 1.463 . S
C1002 N1006 1.427 . S
C1003 H993 0.929 . S
C1003 C1001 1.433 . S
C1003 N1006 1.384 . S
C1004 H995 0.929 . S
C1004 C996 1.378 . S
C1004 C999 1.350 . S
C1005 H992 0.929 . S
C1005 C997 1.433 . S
C1005 N1007 1.384 . S
N1006 C1002 1.427 . S
N1006 C1003 1.384 . S
N1007 C999 1.427 . S
N1007 C1005 1.384 . S
H1008 C1014 0.930 . S
H1009 C1018 0.930 . S
H1010 C1023 0.929 . S
H1011 C1021 0.929 . S
H1012 C1016 0.929 . S
H1013 C1022 0.929 . S
C1014 H1008 0.930 . S
C1014 C1015 1.367 . S
C1014 C1022 1.378 . S
C1015 C1014 1.367 . S
C1015 C1023 1.433 . S
C1016 H1012 0.929 . S
C1016 C1018 1.378 . S
C1016 C1020 1.350 . S
C1017 C1020 1.463 . S
C1017 C1022 1.350 . S
C1017 N1025 1.427 . S
C1018 H1009 0.930 . S
C1018 C1016 1.378 . S
C1018 C1019 1.367 . S
C1019 C1018 1.367 . S
C1019 C1021 1.433 . S
C1020 C1016 1.350 . S
C1020 C1017 1.463 . S
C1020 N1024 1.427 . S
C1021 H1011 0.929 . S
C1021 C1019 1.433 . S
C1021 N1024 1.384 . S
C1022 H1013 0.929 . S
C1022 C1014 1.378 . S
C1022 C1017 1.350 . S
C1023 H1010 0.929 . S
C1023 C1015 1.433 . S
C1023 N1025 1.384 . S
N1024 C1020 1.427 . S
N1024 C1021 1.384 . S
N1025 C1017 1.427 . S
N1025 C1023 1.384 . S
H1026 C1032 0.930 . S
H1027 C1036 0.930 . S
H1028 C1041 0.929 . S
H1029 C1039 0.929 . S
H1030 C1034 0.929 . S
H1031 C1040 0.929 . S
C1032 H1026 0.930 . S
C1032 C1033 1.367 . S
C1032 C1040 1.378 . S
C1033 C1032 1.367 . S
C1033 C1041 1.433 . S
C1034 H1030 0.929 . S
C1034 C1036 1.378 . S
C1034 C1038 1.350 . S
C1035 C1038 1.463 . S
C1035 C1040 1.350 . S
C1035 N1043 1.427 . S
C1036 H1027 0.930 . S
C1036 C1034 1.378 . S
C1036 C1037 1.367 . S
C1037 C1036 1.367 . S
C1037 C1039 1.433 . S
C1038 C1034 1.350 . S
C1038 C1035 1.463 . S
C1038 N1042 1.427 . S
C1039 H1029 0.929 . S
C1039 C1037 1.433 . S
C1039 N1042 1.384 . S
C1040 H1031 0.929 . S
C1040 C1032 1.378 . S
C1040 C1035 1.350 . S
C1041 H1028 0.929 . S
C1041 C1033 1.433 . S
C1041 N1043 1.384 . S
N1042 C1038 1.427 . S
N1042 C1039 1.384 . S
N1043 C1035 1.427 . S
N1043 C1041 1.384 . S
H1044 C1050 0.930 . S
H1045 C1054 0.930 . S
H1046 C1059 0.929 . S
H1047 C1057 0.929 . S
H1048 C1052 0.929 . S
H1049 C1058 0.929 . S
C1050 H1044 0.930 . S
C1050 C1051 1.367 . S
C1050 C1058 1.378 . S
C1051 C1050 1.367 . S
C1051 C1059 1.433 . S
C1052 H1048 0.929 . S
C1052 C1054 1.378 . S
C1052 C1056 1.350 . S
C1053 C1056 1.463 . S
C1053 C1058 1.350 . S
C1053 N1061 1.427 . S
C1054 H1045 0.930 . S
C1054 C1052 1.378 . S
C1054 C1055 1.367 . S
C1055 C1054 1.367 . S
C1055 C1057 1.433 . S
C1056 C1052 1.350 . S
C1056 C1053 1.463 . S
C1056 N1060 1.427 . S
C1057 H1047 0.929 . S
C1057 C1055 1.433 . S
C1057 N1060 1.384 . S
C1058 H1049 0.929 . S
C1058 C1050 1.378 . S
C1058 C1053 1.350 . S
C1059 H1046 0.929 . S
C1059 C1051 1.433 . S
C1059 N1061 1.384 . S
N1060 C1056 1.427 . S
N1060 C1057 1.384 . S
N1061 C1053 1.427 . S
N1061 C1059 1.384 . S
H1062 C1068 0.930 . S
H1063 C1072 0.930 . S
H1064 C1077 0.929 . S
H1065 C1075 0.929 . S
H1066 C1070 0.929 . S
H1067 C1076 0.929 1_655 S
C1068 H1062 0.930 . S
C1068 C1069 1.367 . S
C1068 C1076 1.378 . S
C1069 C1068 1.367 . S
C1069 C1077 1.433 . S
C1070 H1066 0.929 . S
C1070 C1072 1.378 . S
C1070 C1074 1.350 . S
C1071 C1074 1.463 . S
C1071 C1076 1.350 . S
C1071 N1079 1.427 . S
C1072 H1063 0.930 . S
C1072 C1070 1.378 . S
C1072 C1073 1.367 1_455 S
C1073 C1072 1.367 1_655 S
C1073 C1075 1.433 . S
C1074 C1070 1.350 . S
C1074 C1071 1.463 . S
C1074 N1078 1.427 1_455 S
C1075 H1065 0.929 . S
C1075 C1073 1.433 . S
C1075 N1078 1.384 . S
C1076 H1067 0.929 1_455 S
C1076 C1068 1.378 . S
C1076 C1071 1.350 . S
C1077 H1064 0.929 . S
C1077 C1069 1.433 . S
C1077 N1079 1.384 . S
N1078 C1074 1.427 1_655 S
N1078 C1075 1.384 . S
N1079 C1071 1.427 . S
N1079 C1077 1.384 . S
H1080 C1086 0.930 . S
H1081 C1090 0.930 . S
H1082 C1095 0.929 . S
H1083 C1093 0.929 . S
H1084 C1088 0.929 . S
H1085 C1094 0.929 . S
C1086 H1080 0.930 . S
C1086 C1087 1.367 . S
C1086 C1094 1.378 . S
C1087 C1086 1.367 . S
C1087 C1095 1.433 . S
C1088 H1084 0.929 . S
C1088 C1090 1.378 . S
C1088 C1092 1.350 . S
C1089 C1092 1.463 . S
C1089 C1094 1.350 . S
C1089 N1097 1.427 . S
C1090 H1081 0.930 . S
C1090 C1088 1.378 . S
C1090 C1091 1.367 . S
C1091 C1090 1.367 . S
C1091 C1093 1.433 . S
C1092 C1088 1.350 . S
C1092 C1089 1.463 . S
C1092 N1096 1.427 . S
C1093 H1083 0.929 . S
C1093 C1091 1.433 . S
C1093 N1096 1.384 . S
C1094 H1085 0.929 . S
C1094 C1086 1.378 . S
C1094 C1089 1.350 . S
C1095 H1082 0.929 . S
C1095 C1087 1.433 . S
C1095 N1097 1.384 . S
N1096 C1092 1.427 . S
N1096 C1093 1.384 . S
N1097 C1089 1.427 . S
N1097 C1095 1.384 . S
H1098 C1104 0.930 . S
H1099 C1108 0.930 . S
H1100 C1113 0.929 . S
H1101 C1111 0.929 . S
H1102 C1106 0.929 . S
H1103 C1112 0.929 . S
C1104 H1098 0.930 . S
C1104 C1105 1.367 . S
C1104 C1112 1.378 . S
C1105 C1104 1.367 . S
C1105 C1113 1.433 1_565 S
C1106 H1102 0.929 . S
C1106 C1108 1.378 . S
C1106 C1110 1.350 . S
C1107 C1110 1.463 . S
C1107 C1112 1.350 1_545 S
C1107 N1115 1.427 . S
C1108 H1099 0.930 . S
C1108 C1106 1.378 . S
C1108 C1109 1.367 . S
C1109 C1108 1.367 . S
C1109 C1111 1.433 . S
C1110 C1106 1.350 . S
C1110 C1107 1.463 . S
C1110 N1114 1.427 . S
C1111 H1101 0.929 . S
C1111 C1109 1.433 . S
C1111 N1114 1.384 . S
C1112 H1103 0.929 . S
C1112 C1104 1.378 . S
C1112 C1107 1.350 1_565 S
C1113 H1100 0.929 . S
C1113 C1105 1.433 1_545 S
C1113 N1115 1.384 . S
N1114 C1110 1.427 . S
N1114 C1111 1.384 . S
N1115 C1107 1.427 . S
N1115 C1113 1.384 . S
C799 C196 1.020 . S
C803 C49 1.022 . S
C817 C145 1.021 . S
C821 C29 1.021 . S
C835 C108 1.031 . S
C839 C233 1.041 . S
C853 C469 1.037 . S
C857 C321 1.038 . S
C871 C409 1.026 . S
C875 C284 1.018 . S
C889 C372 1.021 . S
C893 C489 1.021 . S
C907 C577 1.030 . S
C911 C724 1.041 . S
C925 C557 1.030 . S
C929 C665 1.041 . S
C943 C645 1.024 . S
C947 C761 1.019 . S
C961 C57 1.210 . S
C965 C636 1.214 . S
C979 C137 1.213 . S
C983 C733 1.212 . S
C997 C548 1.209 . S
C1001 C225 1.211 . S
C1015 C401 1.209 . S
C1019 C205 1.214 . S
C1033 C20 1.213 . S
C1037 C497 1.211 . S
C1051 C313 1.211 . S
C1055 C117 1.213 . S
C1069 C673 1.212 . S
C1073 C460 1.212 . S
C1087 C293 1.209 . S
C1091 C753 1.212 . S
C1105 C585 1.211 . S
C1109 C381 1.210 . S
