# Generated by pormake.
# Topology und, (4)-cn, num edge types: 1
# Building blocks:
#     Node 0, Type 0, BuildingBlock: ICAMEG_clean_sbu_1, # of connection points: 4
#     Node 1, Type 0, BuildingBlock: ICAMEG_clean_sbu_1, # of connection points: 4
#     Node 2, Type 0, BuildingBlock: ICAMEG_clean_sbu_1, # of connection points: 4
#     Node 3, Type 0, BuildingBlock: ICAMEG_clean_sbu_1, # of connection points: 4
#     Node 4, Type 0, BuildingBlock: ICAMEG_clean_sbu_1, # of connection points: 4
#     Node 5, Type 0, BuildingBlock: ICAMEG_clean_sbu_1, # of connection points: 4
#     Node 6, Type 0, BuildingBlock: ICAMEG_clean_sbu_1, # of connection points: 4
#     Node 7, Type 0, BuildingBlock: ICAMEG_clean_sbu_1, # of connection points: 4
#     Node 8, Type 0, BuildingBlock: ICAMEG_clean_sbu_1, # of connection points: 4
#     Node 9, Type 0, BuildingBlock: ICAMEG_clean_sbu_1, # of connection points: 4
#     Node 10, Type 0, BuildingBlock: ICAMEG_clean_sbu_1, # of connection points: 4
#     Node 11, Type 0, BuildingBlock: ICAMEG_clean_sbu_1, # of connection points: 4
#     Node 12, Type 0, BuildingBlock: ICAMEG_clean_sbu_1, # of connection points: 4
#     Node 13, Type 0, BuildingBlock: ICAMEG_clean_sbu_1, # of connection points: 4
#     Node 14, Type 0, BuildingBlock: ICAMEG_clean_sbu_1, # of connection points: 4
#     Node 15, Type 0, BuildingBlock: ICAMEG_clean_sbu_1, # of connection points: 4
#     Edge 16, Type (0, 0), BuildingBlock: EZIPEK_clean_linker_0, # of connection points: 2
#     Edge 17, Type (0, 0), BuildingBlock: EZIPEK_clean_linker_0, # of connection points: 2
#     Edge 18, Type (0, 0), BuildingBlock: EZIPEK_clean_linker_0, # of connection points: 2
#     Edge 19, Type (0, 0), BuildingBlock: EZIPEK_clean_linker_0, # of connection points: 2
#     Edge 20, Type (0, 0), BuildingBlock: EZIPEK_clean_linker_0, # of connection points: 2
#     Edge 21, Type (0, 0), BuildingBlock: EZIPEK_clean_linker_0, # of connection points: 2
#     Edge 22, Type (0, 0), BuildingBlock: EZIPEK_clean_linker_0, # of connection points: 2
#     Edge 23, Type (0, 0), BuildingBlock: EZIPEK_clean_linker_0, # of connection points: 2
#     Edge 24, Type (0, 0), BuildingBlock: EZIPEK_clean_linker_0, # of connection points: 2
#     Edge 25, Type (0, 0), BuildingBlock: EZIPEK_clean_linker_0, # of connection points: 2
#     Edge 26, Type (0, 0), BuildingBlock: EZIPEK_clean_linker_0, # of connection points: 2
#     Edge 27, Type (0, 0), BuildingBlock: EZIPEK_clean_linker_0, # of connection points: 2
#     Edge 28, Type (0, 0), BuildingBlock: EZIPEK_clean_linker_0, # of connection points: 2
#     Edge 29, Type (0, 0), BuildingBlock: EZIPEK_clean_linker_0, # of connection points: 2
#     Edge 30, Type (0, 0), BuildingBlock: EZIPEK_clean_linker_0, # of connection points: 2
#     Edge 31, Type (0, 0), BuildingBlock: EZIPEK_clean_linker_0, # of connection points: 2
#     Edge 32, Type (0, 0), BuildingBlock: EZIPEK_clean_linker_0, # of connection points: 2
#     Edge 33, Type (0, 0), BuildingBlock: EZIPEK_clean_linker_0, # of connection points: 2
#     Edge 34, Type (0, 0), BuildingBlock: EZIPEK_clean_linker_0, # of connection points: 2
#     Edge 35, Type (0, 0), BuildingBlock: EZIPEK_clean_linker_0, # of connection points: 2
#     Edge 36, Type (0, 0), BuildingBlock: EZIPEK_clean_linker_0, # of connection points: 2
#     Edge 37, Type (0, 0), BuildingBlock: EZIPEK_clean_linker_0, # of connection points: 2
#     Edge 38, Type (0, 0), BuildingBlock: EZIPEK_clean_linker_0, # of connection points: 2
#     Edge 39, Type (0, 0), BuildingBlock: EZIPEK_clean_linker_0, # of connection points: 2
#     Edge 40, Type (0, 0), BuildingBlock: EZIPEK_clean_linker_0, # of connection points: 2
#     Edge 41, Type (0, 0), BuildingBlock: EZIPEK_clean_linker_0, # of connection points: 2
#     Edge 42, Type (0, 0), BuildingBlock: EZIPEK_clean_linker_0, # of connection points: 2
#     Edge 43, Type (0, 0), BuildingBlock: EZIPEK_clean_linker_0, # of connection points: 2
#     Edge 44, Type (0, 0), BuildingBlock: EZIPEK_clean_linker_0, # of connection points: 2
#     Edge 45, Type (0, 0), BuildingBlock: EZIPEK_clean_linker_0, # of connection points: 2
#     Edge 46, Type (0, 0), BuildingBlock: EZIPEK_clean_linker_0, # of connection points: 2
#     Edge 47, Type (0, 0), BuildingBlock: EZIPEK_clean_linker_0, # of connection points: 2
# Relax obj value: 0.026
# Max RMSD: 0.081
# Mean RMSD: 0.081
data_MOF--net-und--node1-ICAMEG_clean_sbu_1--edge1-EZIPEK_clean_linker_0
_symmetry_space_group_name_H-M    P1
_symmetry_Int_Tables_number       1
_symmetry_cell_setting            triclinic
loop_
_symmetry_equiv_pos_as_xyz
'x, y, z'
_cell_length_a     48.766874
_cell_length_b     48.759227
_cell_length_c     16.639613
_cell_angle_alpha  90.003432
_cell_angle_beta   90.070078
_cell_angle_gamma 90.252014
loop_
_atom_site_label
_atom_site_type_symbol
_atom_site_fract_x
_atom_site_fract_y
_atom_site_fract_z
_atom_type_partial_charge
Co0 Co 0.29571 0.33094 0.01323 0.0
Co1 Co 0.22638 0.33162 0.98381 0.0
O2 O 0.26146 0.3512 0.99608 0.0
C3 C 0.31271 0.37725 0.90231 0.0
O4 O 0.2904 0.37452 0.85899 0.0
C5 C 0.2127 0.38733 0.05799 0.0
O6 O 0.23864 0.3945 0.05678 0.0
O7 O 0.2327 0.31414 0.0915 0.0
O8 O 0.27591 0.30034 0.07006 0.0
H9 H 0.16551 0.24815 0.99861 0.0
H10 H 0.29206 0.38863 0.06852 0.0
O11 O 0.31735 0.36126 0.96105 0.0
H12 H 0.3161 0.33526 0.31 0.0
H13 H 0.39658 0.3225 0.07442 0.0
H14 H 0.31251 0.27268 0.99795 0.0
H15 H 0.3108 0.31243 0.17874 0.0
H16 H 0.35287 0.34702 0.059 0.0
O17 O 0.20535 0.36321 0.03582 0.0
H18 H 0.20893 0.27384 0.00756 0.0
H19 H 0.1687 0.34707 0.94029 0.0
H20 H 0.35567 0.24718 0.01343 0.0
H21 H 0.29702 0.41231 0.19873 0.0
H22 H 0.3982 0.27217 0.0519 0.0
H23 H 0.3091 0.38557 0.32071 0.0
O24 O 0.28935 0.31197 0.90795 0.0
H25 H 0.23256 0.40662 0.77493 0.0
H26 H 0.20633 0.31054 0.82625 0.0
H27 H 0.20088 0.32961 0.69043 0.0
H28 H 0.21394 0.37804 0.66386 0.0
H29 H 0.23759 0.38683 0.9096 0.0
H30 H 0.12468 0.3225 0.93134 0.0
H31 H 0.12284 0.27255 0.96024 0.0
O32 O 0.24531 0.29998 0.92903 0.0
C33 C 0.25368 0.29976 0.11042 0.0
C34 C 0.166 0.26992 0.98588 0.0
C35 C 0.1431 0.31162 0.94833 0.0
N36 N 0.19158 0.31198 0.97487 0.0
C37 C 0.19063 0.28455 0.99088 0.0
C38 C 0.16813 0.32553 0.95403 0.0
C39 C 0.14208 0.28361 0.96443 0.0
C40 C 0.29721 0.37685 0.12134 0.0
N41 N 0.30082 0.34916 0.11605 0.0
C42 C 0.30006 0.39038 0.1949 0.0
C43 C 0.30685 0.37536 0.2633 0.0
C44 C 0.31081 0.34715 0.25733 0.0
C45 C 0.30769 0.33433 0.18281 0.0
C46 C 0.3782 0.31136 0.05759 0.0
C47 C 0.33079 0.28362 0.01476 0.0
C48 C 0.35336 0.32516 0.04841 0.0
N49 N 0.32999 0.31126 0.02733 0.0
C50 C 0.35525 0.26911 0.02345 0.0
C51 C 0.3791 0.28314 0.04498 0.0
C52 C 0.26771 0.29829 0.88941 0.0
C53 C 0.22639 0.3856 0.78596 0.0
C54 C 0.21153 0.33182 0.81605 0.0
C55 C 0.20857 0.34244 0.7386 0.0
C56 C 0.21599 0.36956 0.72366 0.0
N57 N 0.22121 0.34782 0.87759 0.0
C58 C 0.22905 0.37427 0.86266 0.0
Co59 Co 0.94311 0.97854 0.23482 0.0
Co60 Co 0.94139 0.04774 0.25933 0.0
O61 O 0.92207 0.0126 0.24689 0.0
C62 C 0.89618 0.9609 0.34195 0.0
O63 O 0.89904 0.98275 0.38723 0.0
C64 C 0.88711 0.06123 0.17705 0.0
O65 O 0.87974 0.03534 0.17852 0.0
O66 O 0.96063 0.04039 0.15491 0.0
O67 O 0.97465 0.9981 0.18216 0.0
H68 H 0.02591 0.10696 0.24869 0.0
H69 H 0.88644 0.98093 0.17056 0.0
O70 O 0.91215 0.9568 0.28291 0.0
H71 H 0.94457 0.95837 0.9377 0.0
H72 H 0.95501 0.87813 0.17275 0.0
H73 H 1.00021 0.96208 0.27266 0.0
H74 H 0.96485 0.9637 0.07248 0.0
H75 H 0.92941 0.92147 0.1824 0.0
O76 O 0.91098 0.06852 0.20138 0.0
H77 H 0.99961 0.06387 0.23954 0.0
H78 H 0.92633 0.10604 0.29721 0.0
H79 H 0.02672 0.91931 0.26282 0.0
H80 H 0.86523 0.97555 0.03684 0.0
H81 H 1.0041 0.8769 0.21251 0.0
H82 H 0.89438 0.96426 0.91916 0.0
O83 O 0.9602 0.98559 0.34232 0.0
H84 H 0.86345 0.04154 0.45827 0.0
H85 H 0.9597 0.06934 0.41827 0.0
H86 H 0.93861 0.07486 0.55131 0.0
H87 H 0.89006 0.06107 0.57216 0.0
H88 H 0.88526 0.03632 0.32652 0.0
H89 H 0.95167 0.14967 0.30585 0.0
H90 H 1.00194 0.15034 0.28195 0.0
O91 O 0.97167 0.02961 0.32072 0.0
C92 C 0.97694 0.02034 0.1423 0.0
C93 C 1.00402 0.10695 0.25945 0.0
C94 C 0.96237 0.13091 0.29131 0.0
N95 N 0.96136 0.08228 0.26816 0.0
C96 C 0.98901 0.08255 0.25464 0.0
C97 C 0.94803 0.10612 0.28589 0.0
C98 C 0.99056 0.13127 0.27799 0.0
C99 C 0.89925 0.97597 0.11971 0.0
N100 N 0.92688 0.97287 0.12937 0.0
C101 C 0.88712 0.97295 0.04411 0.0
C102 C 0.90349 0.96664 0.97811 0.0
C103 C 0.93165 0.96334 0.98844 0.0
C104 C 0.94304 0.96652 0.06493 0.0
C105 C 0.96517 0.89652 0.19412 0.0
C106 C 0.99034 0.94387 0.2495 0.0
C107 C 0.95078 0.92115 0.19966 0.0
N108 N 0.9635 0.94453 0.22613 0.0
C109 C 1.00541 0.91963 0.24458 0.0
C110 C 0.9927 0.89584 0.21649 0.0
C111 C 0.97369 1.00735 0.36059 0.0
C112 C 0.88448 0.04809 0.44966 0.0
C113 C 0.93837 0.06384 0.42585 0.0
C114 C 0.92661 0.0668 0.50182 0.0
C115 C 0.89943 0.05898 0.51355 0.0
N116 N 0.92343 0.05373 0.36262 0.0
C117 C 0.89696 0.04536 0.37458 0.0
Co118 Co 0.22821 0.69477 0.51834 0.0
Co119 Co 0.29755 0.69371 0.48974 0.0
O120 O 0.26272 0.67427 0.50882 0.0
C121 C 0.2129 0.63875 0.4482 0.0
O122 O 0.23858 0.63095 0.45117 0.0
C123 C 0.3134 0.64766 0.60337 0.0
O124 O 0.29051 0.64987 0.644 0.0
O125 O 0.29178 0.7139 0.59342 0.0
O126 O 0.24811 0.72652 0.57096 0.0
H127 H 0.35943 0.77649 0.47884 0.0
H128 H 0.23727 0.64009 0.5976 0.0
O129 O 0.20626 0.66321 0.46847 0.0
H130 H 0.20158 0.7003 0.81028 0.0
H131 H 0.12682 0.70746 0.56695 0.0
H132 H 0.21304 0.75261 0.48707 0.0
H133 H 0.2084 0.71794 0.67333 0.0
H134 H 0.16991 0.6815 0.56207 0.0
O135 O 0.31858 0.66374 0.54512 0.0
H136 H 0.31566 0.75187 0.49685 0.0
H137 H 0.35434 0.6761 0.44652 0.0
H138 H 0.17056 0.7796 0.49204 0.0
H139 H 0.23092 0.62173 0.73358 0.0
H140 H 0.12694 0.757 0.53219 0.0
H141 H 0.21278 0.65181 0.84137 0.0
O142 O 0.23505 0.71086 0.40933 0.0
H143 H 0.29643 0.61023 0.31252 0.0
H144 H 0.3126 0.71006 0.32218 0.0
H145 H 0.31677 0.68567 0.19312 0.0
H146 H 0.30861 0.63538 0.18763 0.0
H147 H 0.29248 0.63547 0.44037 0.0
H148 H 0.39862 0.69973 0.42856 0.0
H149 H 0.40141 0.75032 0.44451 0.0
O150 O 0.27859 0.72398 0.42967 0.0
C151 C 0.27043 0.72791 0.61137 0.0
C152 C 0.35852 0.75443 0.47191 0.0
C153 C 0.3805 0.71137 0.44376 0.0
N154 N 0.33231 0.71263 0.47354 0.0
C155 C 0.33373 0.74042 0.48222 0.0
C156 C 0.35534 0.69809 0.45444 0.0
C157 C 0.38205 0.73974 0.45265 0.0
C158 C 0.22902 0.65332 0.64315 0.0
N159 N 0.22223 0.67982 0.62577 0.0
C160 C 0.22558 0.64279 0.72058 0.0
C161 C 0.21544 0.65967 0.78104 0.0
C162 C 0.20906 0.68682 0.76357 0.0
C163 C 0.21281 0.69664 0.68549 0.0
C164 C 0.14568 0.71756 0.5493 0.0
C165 C 0.1943 0.74266 0.5049 0.0
C166 C 0.17017 0.70286 0.54595 0.0
N167 N 0.19416 0.71545 0.52433 0.0
C168 C 0.17022 0.75804 0.50747 0.0
C169 C 0.14576 0.74535 0.52989 0.0
C170 C 0.25631 0.72475 0.38952 0.0
C171 C 0.30001 0.63215 0.31409 0.0
C172 C 0.30897 0.68819 0.32039 0.0
C173 C 0.31144 0.67447 0.24709 0.0
C174 C 0.30684 0.64627 0.24405 0.0
N175 N 0.30205 0.67423 0.38878 0.0
C176 C 0.29777 0.64655 0.38633 0.0
Co177 Co 0.57587 0.04711 0.73729 0.0
Co178 Co 0.57928 0.97766 0.76457 0.0
O179 O 0.59766 0.01337 0.74894 0.0
C180 C 0.63084 0.06484 0.80915 0.0
O181 O 0.63976 0.03956 0.80642 0.0
C182 C 0.63425 0.96504 0.68463 0.0
O183 O 0.64094 0.99109 0.68481 0.0
O184 O 0.56047 0.98344 0.65872 0.0
O185 O 0.54521 0.02594 0.68427 0.0
H186 H 0.49729 0.91464 0.76168 0.0
H187 H 0.63127 0.04091 0.66003 0.0
O188 O 0.60622 0.07043 0.788 0.0
H189 H 0.57004 0.07266 0.44439 0.0
H190 H 0.55927 0.1478 0.68602 0.0
H191 H 0.51735 0.06 0.76641 0.0
H192 H 0.55241 0.06575 0.58123 0.0
H193 H 0.58692 0.10581 0.69276 0.0
O194 O 0.61064 0.95726 0.70972 0.0
H195 H 0.52168 0.95872 0.74924 0.0
H196 H 0.5969 0.92052 0.80694 0.0
H197 H 0.48869 0.10134 0.75959 0.0
H198 H 0.64956 0.04683 0.5239 0.0
H199 H 0.50965 0.14575 0.71916 0.0
H200 H 0.61896 0.06311 0.41464 0.0
O201 O 0.55968 0.03951 0.84528 0.0
H202 H 0.65637 0.98649 0.96633 0.0
H203 H 0.56037 0.958 0.92475 0.0
H204 H 0.58075 0.95442 0.05946 0.0
H205 H 0.62912 0.96877 0.08127 0.0
H206 H 0.63535 0.98921 0.83262 0.0
H207 H 0.57366 0.87589 0.81946 0.0
H208 H 0.52338 0.87268 0.79703 0.0
O209 O 0.54783 0.99571 0.82194 0.0
C210 C 0.54549 1.00419 0.64146 0.0
C211 C 0.51922 0.91571 0.77135 0.0
C212 C 0.56206 0.89398 0.80363 0.0
N213 N 0.56074 0.94238 0.77632 0.0
C214 C 0.53311 0.9407 0.76416 0.0
C215 C 0.5752 0.91935 0.79585 0.0
C216 C 0.53386 0.89219 0.79116 0.0
C217 C 0.61772 0.04787 0.61358 0.0
N218 N 0.59092 0.05356 0.63015 0.0
C219 C 0.62825 0.05129 0.53618 0.0
C220 C 0.6111 0.06044 0.47494 0.0
C221 C 0.58371 0.06591 0.49166 0.0
C222 C 0.57389 0.06212 0.56971 0.0
C223 C 0.54987 0.12859 0.70378 0.0
C224 C 0.5266 0.07909 0.74848 0.0
C225 C 0.56553 0.10471 0.70818 0.0
N226 N 0.55385 0.08028 0.72993 0.0
C227 C 0.51027 0.10252 0.74485 0.0
C228 C 0.52205 0.12742 0.72228 0.0
C229 C 0.54643 0.01767 0.86355 0.0
C230 C 0.63533 0.97996 0.95755 0.0
C231 C 0.58161 0.96378 0.93287 0.0
C232 C 0.59298 0.96187 0.00972 0.0
C233 C 0.62006 0.97001 0.02198 0.0
N234 N 0.59679 0.97324 0.86939 0.0
C235 C 0.62325 0.98154 0.88154 0.0
Co236 Co 0.72446 0.69297 0.99484 0.0
Co237 Co 0.79434 0.69461 0.00258 0.0
O238 O 0.75976 0.67362 -0.00072 0.0
C239 C 0.71252 0.64653 0.11012 0.0
O240 O 0.7354 0.65101 0.14938 0.0
C241 C 0.80813 0.63958 0.92499 0.0
O242 O 0.78265 0.63129 0.93272 0.0
O243 O 0.78348 0.71236 0.89873 0.0
O244 O 0.74083 0.72436 0.93338 0.0
H245 H 0.84927 0.78131 0.96946 0.0
H246 H 0.72875 0.6364 0.93161 0.0
O247 O 0.7057 0.66155 0.05108 0.0
H248 H 0.69313 0.69109 0.70595 0.0
H249 H 0.62197 0.70051 0.96289 0.0
H250 H 0.70729 0.74993 0.03044 0.0
H251 H 0.70225 0.71261 0.83728 0.0
H252 H 0.66636 0.67653 0.9619 0.0
O253 O 0.81494 0.66419 0.94377 0.0
H254 H 0.80732 0.75308 0.97247 0.0
H255 H 0.85416 0.68255 0.02909 0.0
H256 H 0.66342 0.77481 0.03115 0.0
H257 H 0.71982 0.61388 0.80144 0.0
H258 H 0.62031 0.75005 0.99716 0.0
H259 H 0.70191 0.64135 0.68726 0.0
O260 O 0.73433 0.71129 0.0991 0.0
H261 H 0.79624 0.61935 0.21133 0.0
H262 H 0.81963 0.71572 0.15377 0.0
H263 H 0.82976 0.69662 0.2871 0.0
H264 H 0.81819 0.64803 0.31679 0.0
H265 H 0.78651 0.63915 0.079 0.0
H266 H 0.89666 0.70984 0.02558 0.0
H267 H 0.89441 0.75971 0.99611 0.0
O268 O 0.77661 0.72499 0.06424 0.0
C269 C 0.76173 0.72661 0.88779 0.0
C270 C 0.85053 0.75961 0.98267 0.0
C271 C 0.87711 0.71951 0.01395 0.0
N272 N 0.82811 0.71609 0.00161 0.0
C273 C 0.82679 0.7435 0.98475 0.0
C274 C 0.85293 0.70406 0.01547 0.0
C275 C 0.87584 0.74748 0.99749 0.0
C276 C 0.7208 0.64834 0.88254 0.0
N277 N 0.71596 0.67567 0.89244 0.0
C278 C 0.71583 0.63555 0.80882 0.0
C279 C 0.7058 0.65097 0.7448 0.0
C280 C 0.70085 0.67887 0.75525 0.0
C281 C 0.7061 0.69094 0.82985 0.0
C282 C 0.64063 0.71156 0.9773 0.0
C283 C 0.68873 0.73913 0.01442 0.0
C284 C 0.66585 0.6981 0.9769 0.0
N285 N 0.68954 0.71198 0.9944 0.0
C286 C 0.66389 0.75327 0.01545 0.0
C287 C 0.63971 0.73936 0.99654 0.0
C288 C 0.75582 0.72608 0.11045 0.0
C289 C 0.80183 0.64042 0.19873 0.0
C290 C 0.81512 0.69435 0.16499 0.0
C291 C 0.82068 0.68373 0.24119 0.0
C292 C 0.8141 0.65652 0.25791 0.0
N293 N 0.80371 0.67827 0.10619 0.0
C294 C 0.79652 0.65177 0.12325 0.0
Co295 Co 0.07758 0.04804 0.75354 0.0
Co296 Co 0.08016 0.97846 0.74467 0.0
O297 O 0.0991 0.01402 0.75147 0.0
C298 C 0.1249 0.0616 0.64497 0.0
O299 O 0.12176 0.03813 0.6076 0.0
C300 C 0.13226 0.96814 0.84164 0.0
O301 O 0.1372 0.99444 0.84996 0.0
O302 O 0.06026 0.9881 0.84578 0.0
O303 O 0.04583 0.02953 0.80968 0.0
H304 H 0.99684 0.9176 0.7587 0.0
H305 H 0.1335 0.04847 0.82355 0.0
O306 O 0.1088 0.0685 0.70144 0.0
H307 H 0.07273 0.07788 0.04328 0.0
H308 H 0.06378 0.14973 0.78793 0.0
H309 H 0.02052 0.0623 0.70852 0.0
H310 H 0.05396 0.06756 0.90914 0.0
H311 H 0.09016 0.10672 0.79078 0.0
O312 O 0.11037 0.95967 0.80743 0.0
H313 H 0.02193 0.96156 0.76124 0.0
H314 H 0.09713 0.92004 0.72165 0.0
H315 H 0.99328 0.10472 0.70569 0.0
H316 H 0.15335 0.05907 0.95638 0.0
H317 H 0.0149 0.14889 0.74575 0.0
H318 H 0.12282 0.07376 0.06763 0.0
O319 O 0.06171 0.03773 0.64675 0.0
H320 H 0.16164 0.97609 0.55962 0.0
H321 H 0.06331 0.95427 0.58694 0.0
H322 H 0.08683 0.94426 0.45948 0.0
H323 H 0.13643 0.955 0.44524 0.0
H324 H 0.13701 0.98624 0.68523 0.0
H325 H 0.07287 0.87561 0.71972 0.0
H326 H 0.02234 0.87419 0.73798 0.0
O327 O 0.04986 0.9946 0.67843 0.0
C328 C 0.0437 1.0082 0.85398 0.0
C329 C 0.01886 0.91795 0.75051 0.0
C330 C 0.06153 0.89438 0.72884 0.0
N331 N 0.06098 0.94345 0.74144 0.0
C332 C 0.03318 0.94281 0.75161 0.0
C333 C 0.07518 0.91962 0.73039 0.0
C334 C 0.03318 0.8936 0.739 0.0
C335 C 0.12019 0.05503 0.87136 0.0
N336 N 0.09265 0.05722 0.85844 0.0
C337 C 0.1315 0.06094 0.94659 0.0
C338 C 0.11436 0.06915 0.00898 0.0
C339 C 0.08626 0.07144 0.99539 0.0
C340 C 0.07572 0.0654 0.91932 0.0
C341 C 0.05406 0.13059 0.77094 0.0
C342 C 0.02996 0.08132 0.72712 0.0
C343 C 0.06889 0.10615 0.77245 0.0
N344 N 0.05668 0.08185 0.75179 0.0
C345 C 0.01449 0.10534 0.7249 0.0
C346 C 0.02664 0.13011 0.74724 0.0
C347 C 0.04824 0.01562 0.63318 0.0
C348 C 0.14012 0.97093 0.56539 0.0
C349 C 0.08496 0.95878 0.58171 0.0
C350 C 0.09815 0.95313 0.50916 0.0
C351 C 0.12595 0.95918 0.50119 0.0
N352 N 0.09908 0.96997 0.64492 0.0
C353 C 0.12621 0.97631 0.63694 0.0
Co354 Co 0.79658 0.3293 0.48269 0.0
Co355 Co 0.72724 0.33248 0.51116 0.0
O356 O 0.76291 0.35074 0.49672 0.0
C357 C 0.81428 0.37564 0.59196 0.0
O358 O 0.79189 0.37323 0.635 0.0
C359 C 0.71532 0.38595 0.42235 0.0
O360 O 0.74145 0.39155 0.41361 0.0
O361 O 0.73289 0.3132 0.40611 0.0
O362 O 0.77599 0.29879 0.42728 0.0
H363 H 0.66292 0.25148 0.51009 0.0
H364 H 0.79547 0.38666 0.42316 0.0
O365 O 0.81879 0.35946 0.53359 0.0
H366 H 0.81818 0.33028 0.18661 0.0
H367 H 0.89733 0.31758 0.42586 0.0
H368 H 0.81177 0.27075 0.50347 0.0
H369 H 0.81127 0.3088 0.31911 0.0
H370 H 0.85426 0.34339 0.43782 0.0
O371 O 0.70742 0.36357 0.45495 0.0
H372 H 0.70752 0.27497 0.49741 0.0
H373 H 0.67055 0.35138 0.55058 0.0
H374 H 0.85425 0.24398 0.49149 0.0
H375 H 0.80228 0.40903 0.29174 0.0
H376 H 0.89754 0.26745 0.45246 0.0
H377 H 0.81364 0.38077 0.1722 0.0
O378 O 0.7895 0.31147 0.58925 0.0
H379 H 0.73332 0.41213 0.70299 0.0
H380 H 0.70757 0.31482 0.67308 0.0
H381 H 0.70218 0.33732 0.80455 0.0
H382 H 0.7149 0.38642 0.82015 0.0
H383 H 0.73885 0.38851 0.57328 0.0
H384 H 0.62545 0.32887 0.56323 0.0
H385 H 0.6214 0.27853 0.54323 0.0
O386 O 0.74495 0.30114 0.57022 0.0
C387 C 0.75357 0.29839 0.38752 0.0
C388 C 0.66439 0.27344 0.51887 0.0
C389 C 0.64337 0.31686 0.54856 0.0
N390 N 0.69178 0.31447 0.52275 0.0
C391 C 0.68966 0.28681 0.51168 0.0
C392 C 0.66898 0.32951 0.54084 0.0
C393 C 0.64111 0.28862 0.53742 0.0
C394 C 0.80036 0.37422 0.37144 0.0
N395 N 0.80263 0.34643 0.37875 0.0
C396 C 0.80423 0.38701 0.29717 0.0
C397 C 0.81062 0.37114 0.23014 0.0
C398 C 0.81319 0.34283 0.23818 0.0
C399 C 0.80913 0.33076 0.31337 0.0
C400 C 0.87862 0.3071 0.44291 0.0
C401 C 0.83036 0.28103 0.48629 0.0
C402 C 0.85412 0.32163 0.45009 0.0
N403 N 0.83034 0.30855 0.47141 0.0
C404 C 0.85444 0.26581 0.47964 0.0
C405 C 0.87872 0.27898 0.4578 0.0
C406 C 0.76744 0.29877 0.60902 0.0
C407 C 0.72725 0.39086 0.69672 0.0
C408 C 0.71286 0.33628 0.6789 0.0
C409 C 0.70983 0.34888 0.75372 0.0
C410 C 0.71701 0.37641 0.76246 0.0
N411 N 0.72251 0.35071 0.61423 0.0
C412 C 0.72998 0.37753 0.62288 0.0
Co413 Co 0.4442 0.97747 0.26472 0.0
Co414 Co 0.44375 0.04724 0.24029 0.0
O415 O 0.42382 0.01218 0.25368 0.0
C416 C 0.38851 0.96154 0.1926 0.0
O417 O 0.38016 0.98703 0.19495 0.0
C418 C 0.38939 0.06192 0.32062 0.0
O419 O 0.38142 0.03624 0.31892 0.0
O420 O 0.46229 0.04 0.34558 0.0
O421 O 0.47579 0.99706 0.31825 0.0
H422 H 0.52849 0.10647 0.24768 0.0
H423 H 0.38922 0.98623 0.3418 0.0
O424 O 0.413 0.95543 0.21363 0.0
H425 H 0.44861 0.95101 0.55719 0.0
H426 H 0.45589 0.87599 0.31488 0.0
H427 H 0.50205 0.96168 0.23557 0.0
H428 H 0.46665 0.95728 0.42054 0.0
H429 H 0.43037 0.9193 0.30858 0.0
O430 O 0.41339 0.06868 0.29641 0.0
H431 H 0.50214 0.06344 0.25716 0.0
H432 H 0.42874 0.10551 0.20213 0.0
H433 H 0.52868 0.91901 0.24191 0.0
H434 H 0.37061 0.98114 0.47791 0.0
H435 H 0.50555 0.87562 0.28182 0.0
H436 H 0.40026 0.96307 0.587 0.0
O437 O 0.46082 0.98485 0.15689 0.0
H438 H 0.36618 0.04355 0.03889 0.0
H439 H 0.4632 0.06804 0.08176 0.0
H440 H 0.44247 0.07496 0.94862 0.0
H441 H 0.39359 0.06264 0.92617 0.0
H442 H 0.38748 0.03774 0.17136 0.0
H443 H 0.454 0.14912 0.19273 0.0
H444 H 0.50435 0.14985 0.21525 0.0
O445 O 0.47435 0.02815 0.18172 0.0
C446 C 0.47655 0.01867 0.36157 0.0
C447 C 0.50655 0.10647 0.23785 0.0
C448 C 0.46476 0.13039 0.20718 0.0
N449 N 0.46387 0.08174 0.23086 0.0
C450 C 0.49154 0.08207 0.24325 0.0
C451 C 0.45048 0.10558 0.21316 0.0
C452 C 0.493 0.13078 0.21971 0.0
C453 C 0.40238 0.97858 0.38829 0.0
N454 N 0.42883 0.97148 0.37168 0.0
C455 C 0.39166 0.97559 0.46562 0.0
C456 C 0.40828 0.96543 0.52676 0.0
C457 C 0.43534 0.95855 0.50999 0.0
C458 C 0.44537 0.96196 0.43204 0.0
C459 C 0.46623 0.89474 0.2973 0.0
C460 C 0.4919 0.94308 0.25315 0.0
C461 C 0.45178 0.91937 0.29312 0.0
N462 N 0.46464 0.94324 0.27161 0.0
C463 C 0.50706 0.91887 0.25657 0.0
C464 C 0.49408 0.89454 0.27886 0.0
C465 C 0.47494 1.00627 0.13952 0.0
C466 C 0.38743 0.04927 0.04804 0.0
C467 C 0.44173 0.06321 0.0735 0.0
C468 C 0.43016 0.067 0.99751 0.0
C469 C 0.4028 0.05998 0.98486 0.0
N470 N 0.42639 0.05325 0.13599 0.0
C471 C 0.39967 0.04593 0.12333 0.0
Co472 Co 0.79747 0.83058 0.50612 0.0
Co473 Co 0.72742 0.83438 0.4916 0.0
O474 O 0.76361 0.85228 0.49895 0.0
C475 C 0.81244 0.87741 0.39482 0.0
O476 O 0.7884 0.87657 0.3595 0.0
C477 C 0.71816 0.8869 0.58757 0.0
O478 O 0.74453 0.89171 0.59431 0.0
O479 O 0.73562 0.81405 0.59346 0.0
O480 O 0.77867 0.80076 0.56759 0.0
H481 H 0.66283 0.75406 0.51222 0.0
H482 H 0.79884 0.88839 0.56221 0.0
O483 O 0.81863 0.86007 0.44886 0.0
H484 H 0.82526 0.83317 0.79792 0.0
H485 H 0.89898 0.81691 0.54515 0.0
H486 H 0.81111 0.77215 0.47764 0.0
H487 H 0.81538 0.81092 0.66813 0.0
H488 H 0.85622 0.84362 0.54135 0.0
O489 O 0.7093 0.86509 0.55375 0.0
H490 H 0.70772 0.7774 0.51685 0.0
H491 H 0.67018 0.85336 0.45993 0.0
H492 H 0.85332 0.74458 0.48177 0.0
H493 H 0.80896 0.91151 0.69064 0.0
H494 H 0.8977 0.76697 0.51571 0.0
H495 H 0.82213 0.88385 0.80984 0.0
O496 O 0.78745 0.81195 0.40288 0.0
H497 H 0.72829 0.91594 0.30621 0.0
H498 H 0.70448 0.81799 0.33196 0.0
H499 H 0.69637 0.84161 0.20336 0.0
H500 H 0.70804 0.89105 0.18996 0.0
H501 H 0.73676 0.89113 0.43268 0.0
H502 H 0.6248 0.83094 0.45579 0.0
H503 H 0.62092 0.78089 0.4815 0.0
O504 O 0.74284 0.80359 0.42642 0.0
C505 C 0.75653 0.79897 0.60774 0.0
C506 C 0.66427 0.77584 0.50028 0.0
C507 C 0.64292 0.81899 0.46879 0.0
N508 N 0.69172 0.81658 0.48707 0.0
C509 C 0.68969 0.78912 0.50229 0.0
C510 C 0.66869 0.83157 0.47133 0.0
C511 C 0.64076 0.79091 0.48321 0.0
C512 C 0.80476 0.87621 0.61355 0.0
N513 N 0.80637 0.84832 0.60752 0.0
C514 C 0.8104 0.88942 0.68623 0.0
C515 C 0.81776 0.87388 0.7531 0.0
C516 C 0.81951 0.84546 0.74646 0.0
C517 C 0.81376 0.83297 0.67279 0.0
C518 C 0.87976 0.80688 0.5307 0.0
C519 C 0.83024 0.78197 0.49344 0.0
C520 C 0.85545 0.8219 0.52838 0.0
N521 N 0.83105 0.80936 0.51057 0.0
C522 C 0.85413 0.76629 0.49525 0.0
C523 C 0.87902 0.77887 0.51416 0.0
C524 C 0.76483 0.7996 0.38676 0.0
C525 C 0.72269 0.89451 0.31158 0.0
C526 C 0.70951 0.83954 0.32695 0.0
C527 C 0.70489 0.85279 0.25381 0.0
C528 C 0.71144 0.88051 0.24632 0.0
N529 N 0.72018 0.85351 0.39119 0.0
C530 C 0.72706 0.88053 0.38367 0.0
Co531 Co 0.44145 0.47844 0.73689 0.0
Co532 Co 0.44278 0.54742 0.77224 0.0
O533 O 0.42216 0.51314 0.75598 0.0
C534 C 0.39465 0.46224 0.84695 0.0
O535 O 0.39648 0.48527 0.88738 0.0
C536 C 0.39605 0.56435 0.66398 0.0
O537 O 0.39827 0.54174 0.6218 0.0
O538 O 0.46086 0.54209 0.66536 0.0
O539 O 0.47222 0.4978 0.67992 0.0
H540 H 0.52695 0.60739 0.7679 0.0
H541 H 0.38363 0.48437 0.68467 0.0
O542 O 0.41107 0.45716 0.78965 0.0
H543 H 0.4349 0.46083 0.43906 0.0
H544 H 0.44688 0.37778 0.6701 0.0
H545 H 0.49936 0.46016 0.74708 0.0
H546 H 0.45864 0.46448 0.56946 0.0
H547 H 0.42359 0.42199 0.6892 0.0
O548 O 0.41228 0.56917 0.72222 0.0
H549 H 0.50096 0.56426 0.75277 0.0
H550 H 0.42757 0.60435 0.82126 0.0
H551 H 0.52364 0.41646 0.72797 0.0
H552 H 0.35899 0.48056 0.55562 0.0
H553 H 0.4973 0.37478 0.68926 0.0
H554 H 0.38468 0.46883 0.43153 0.0
O555 O 0.46108 0.48329 0.84202 0.0
H556 H 0.36275 0.54778 0.96219 0.0
H557 H 0.46258 0.56168 0.93716 0.0
H558 H 0.44068 0.56656 0.06976 0.0
H559 H 0.39038 0.55963 0.08292 0.0
H560 H 0.38555 0.54283 0.83078 0.0
H561 H 0.45264 0.64801 0.83636 0.0
H562 H 0.50273 0.64974 0.80992 0.0
O563 O 0.47368 0.52738 0.82654 0.0
C564 C 0.47413 0.52076 0.64356 0.0
C565 C 0.50514 0.6069 0.77975 0.0
C566 C 0.46344 0.6297 0.81807 0.0
N567 N 0.46283 0.58163 0.78625 0.0
C568 C 0.49034 0.58248 0.77139 0.0
C569 C 0.44933 0.60489 0.80913 0.0
C570 C 0.49154 0.63065 0.80326 0.0
C571 C 0.3949 0.47895 0.63113 0.0
N572 N 0.42253 0.4746 0.63474 0.0
C573 C 0.38086 0.47693 0.55815 0.0
C574 C 0.39529 0.47039 0.48854 0.0
C575 C 0.42345 0.46589 0.49271 0.0
C576 C 0.4368 0.46806 0.56674 0.0
C577 C 0.45859 0.39577 0.68714 0.0
C578 C 0.48784 0.44223 0.73038 0.0
C579 C 0.4455 0.4209 0.69844 0.0
N580 N 0.46014 0.44377 0.71984 0.0
C581 C 0.50165 0.41748 0.71954 0.0
C582 C 0.48687 0.39411 0.69784 0.0
C583 C 0.47512 0.5044 0.86308 0.0
C584 C 0.38467 0.55092 0.95721 0.0
C585 C 0.4407 0.55857 0.94235 0.0
C586 C 0.42839 0.56145 0.0176 0.0
C587 C 0.40019 0.55754 0.02493 0.0
N588 N 0.42536 0.55196 0.87623 0.0
C589 C 0.39768 0.54822 0.88291 0.0
Co590 Co 0.72364 0.19649 0.0065 0.0
Co591 Co 0.79342 0.19415 0.99046 0.0
O592 O 0.7578 0.17535 -0.00061 0.0
C593 C 0.70982 0.14983 0.89513 0.0
O594 O 0.73332 0.15301 0.85823 0.0
C595 C 0.80422 0.14109 0.08248 0.0
O596 O 0.77797 0.13615 0.09138 0.0
O597 O 0.78538 0.21316 0.09439 0.0
O598 O 0.74283 0.22746 0.06452 0.0
H599 H 0.85626 0.27614 0.0038 0.0
H600 H 0.72466 0.13987 0.07131 0.0
O601 O 0.70298 0.16567 0.95239 0.0
H602 H 0.69502 0.19769 0.29747 0.0
H603 H 0.62177 0.20769 0.04388 0.0
H604 H 0.70857 0.2548 0.98067 0.0
H605 H 0.70474 0.2181 0.16506 0.0
H606 H 0.66519 0.18209 0.04036 0.0
O607 O 0.81262 0.16317 0.04915 0.0
H608 H 0.81189 0.25188 0.00892 0.0
H609 H 0.85109 0.17627 0.95967 0.0
H610 H 0.66575 0.28134 0.98409 0.0
H611 H 0.71505 0.1184 0.20251 0.0
H612 H 0.62185 0.25773 0.01593 0.0
H613 H 0.70018 0.14746 0.31699 0.0
O614 O 0.73279 0.21376 0.90058 0.0
H615 H 0.79356 0.11423 0.799 0.0
H616 H 0.8155 0.21237 0.83167 0.0
H617 H 0.82405 0.18995 0.70153 0.0
H618 H 0.81324 0.14044 0.68458 0.0
H619 H 0.78481 0.1378 0.92735 0.0
H620 H 0.89597 0.19957 0.95464 0.0
H621 H 0.89878 0.2499 0.97649 0.0
O622 O 0.77641 0.22534 0.92861 0.0
C623 C 0.76423 0.22783 0.10901 0.0
C624 C 0.85532 0.2542 0.99419 0.0
C625 C 0.8776 0.21124 0.96673 0.0
N626 N 0.82874 0.21274 0.98487 0.0
C627 C 0.83019 0.24039 0.99703 0.0
C628 C 0.8521 0.19814 0.97008 0.0
C629 C 0.87916 0.23947 0.97892 0.0
C630 C 0.71814 0.15251 0.12058 0.0
N631 N 0.71545 0.18012 0.11035 0.0
C632 C 0.71273 0.14031 0.19486 0.0
C633 C 0.70439 0.15662 0.25903 0.0
C634 C 0.70148 0.18478 0.24811 0.0
C635 C 0.70711 0.19623 0.17296 0.0
C636 C 0.64076 0.21822 0.02989 0.0
C637 C 0.68969 0.24445 0.99466 0.0
C638 C 0.66543 0.20381 0.02747 0.0
N639 N 0.68955 0.21699 0.01032 0.0
C640 C 0.66543 0.25955 0.99647 0.0
C641 C 0.64081 0.24629 0.01427 0.0
C642 C 0.75495 0.22689 0.88472 0.0
C643 C 0.79873 0.13571 0.80589 0.0
C644 C 0.81093 0.19077 0.82518 0.0
C645 C 0.81578 0.17819 0.75117 0.0
C646 C 0.80969 0.15044 0.74167 0.0
N647 N 0.80047 0.1761 0.88831 0.0
C648 C 0.79416 0.14902 0.87896 0.0
Co649 Co 0.08034 0.54904 0.25214 0.0
Co650 Co 0.08082 0.47894 0.24603 0.0
O651 O 0.10076 0.51422 0.24905 0.0
C652 C 0.12934 0.55809 0.36118 0.0
O653 O 0.12961 0.5322 0.38225 0.0
C654 C 0.13218 0.47035 0.14537 0.0
O655 O 0.13558 0.49677 0.13455 0.0
O656 O 0.06214 0.49138 0.14529 0.0
O657 O 0.04961 0.5333 0.18598 0.0
H658 H 0.99704 0.42022 0.2046 0.0
H659 H 0.13747 0.54929 0.19179 0.0
O660 O 0.11081 0.56734 0.31472 0.0
H661 H 0.08226 0.58759 0.97101 0.0
H662 H 0.06953 0.65177 0.24405 0.0
H663 H 0.02243 0.56325 0.28535 0.0
H664 H 0.06046 0.57383 0.09829 0.0
H665 H 0.09506 0.60836 0.23469 0.0
O666 O 0.11128 0.46107 0.1826 0.0
H667 H 0.02297 0.46361 0.21363 0.0
H668 H 0.09621 0.41987 0.26289 0.0
H669 H 0.99605 0.60614 0.29444 0.0
H670 H 0.16032 0.56325 0.06613 0.0
H671 H 0.01963 0.65084 0.27369 0.0
H672 H 0.13258 0.58242 0.95427 0.0
O673 O 0.06208 0.53628 0.35313 0.0
H674 H 0.16101 0.46725 0.43317 0.0
H675 H 0.06154 0.45307 0.39901 0.0
H676 H 0.08362 0.43956 0.52608 0.0
H677 H 0.13376 0.44646 0.54374 0.0
H678 H 0.13782 0.48109 0.308 0.0
H679 H 0.07113 0.37598 0.25352 0.0
H680 H 0.02114 0.37597 0.22462 0.0
O681 O 0.05014 0.49403 0.31274 0.0
C682 C 0.04774 0.51314 0.1374 0.0
C683 C 0.01879 0.41996 0.21765 0.0
C684 C 0.06037 0.39513 0.24496 0.0
N685 N 0.06099 0.44436 0.23987 0.0
C686 C 0.03356 0.44449 0.2232 0.0
C687 C 0.07448 0.42007 0.25004 0.0
C688 C 0.03233 0.39514 0.22877 0.0
C689 C 0.1254 0.55794 0.14398 0.0
N690 N 0.09776 0.56078 0.1528 0.0
C691 C 0.13839 0.56568 0.07269 0.0
C692 C 0.12281 0.5764 0.00995 0.0
C693 C 0.09459 0.57929 0.01929 0.0
C694 C 0.08235 0.57137 0.09153 0.0
C695 C 0.05901 0.63242 0.25292 0.0
C696 C 0.03278 0.58257 0.27549 0.0
C697 C 0.07336 0.60776 0.24783 0.0
N698 N 0.06016 0.58322 0.25841 0.0
C699 C 0.01776 0.60681 0.28106 0.0
C700 C 0.03101 0.63188 0.26953 0.0
C701 C 0.04813 0.51413 0.36138 0.0
C702 C 0.13919 0.46393 0.42605 0.0
C703 C 0.08337 0.45622 0.40608 0.0
C704 C 0.09576 0.44846 0.47824 0.0
C705 C 0.12388 0.45233 0.4881 0.0
N706 N 0.09854 0.46752 0.34527 0.0
C707 C 0.12605 0.47149 0.35484 0.0
Co708 Co 0.22463 0.19778 0.48756 0.0
Co709 Co 0.29439 0.19501 0.50697 0.0
O710 O 0.25871 0.17632 0.49447 0.0
C711 C 0.20842 0.14212 0.55844 0.0
O712 O 0.23378 0.13352 0.55322 0.0
C713 C 0.30659 0.14126 0.41887 0.0
O714 O 0.28054 0.13492 0.41331 0.0
O715 O 0.28702 0.21425 0.40286 0.0
O716 O 0.24473 0.22901 0.43342 0.0
H717 H 0.35733 0.27701 0.49987 0.0
H718 H 0.23009 0.1428 0.40716 0.0
O719 O 0.20235 0.16682 0.53922 0.0
H720 H 0.19556 0.20496 0.19772 0.0
H721 H 0.1231 0.21283 0.44749 0.0
H722 H 0.21099 0.25592 0.52093 0.0
H723 H 0.20394 0.2219 0.33471 0.0
H724 H 0.16563 0.18596 0.44849 0.0
O725 O 0.31425 0.16416 0.44906 0.0
H726 H 0.313 0.25277 0.49108 0.0
H727 H 0.35179 0.17706 0.54189 0.0
H728 H 0.16914 0.28387 0.51995 0.0
H729 H 0.22264 0.12516 0.27076 0.0
H730 H 0.12464 0.26229 0.48302 0.0
H731 H 0.20496 0.15624 0.16465 0.0
O732 O 0.23357 0.21359 0.59567 0.0
H733 H 0.2913 0.11563 0.70049 0.0
H734 H 0.31571 0.21312 0.66694 0.0
H735 H 0.32249 0.19102 0.7984 0.0
H736 H 0.31033 0.14185 0.81598 0.0
H737 H 0.28483 0.13883 0.57046 0.0
H738 H 0.39663 0.20033 0.55058 0.0
H739 H 0.39963 0.2507 0.5298 0.0
O740 O 0.27689 0.22603 0.56787 0.0
C741 C 0.26596 0.22912 0.38837 0.0
C742 C 0.35631 0.25505 0.50899 0.0
C743 C 0.37836 0.21202 0.53731 0.0
N744 N 0.32966 0.21359 0.51556 0.0
C745 C 0.33121 0.24126 0.50403 0.0
C746 C 0.35289 0.19894 0.53184 0.0
C747 C 0.38003 0.24028 0.52574 0.0
C748 C 0.22261 0.15656 0.36198 0.0
N749 N 0.21696 0.18322 0.38043 0.0
C750 C 0.21828 0.1464 0.28448 0.0
C751 C 0.20833 0.16382 0.22501 0.0
C752 C 0.20294 0.19109 0.24361 0.0
C753 C 0.20759 0.20052 0.32173 0.0
C754 C 0.14234 0.2225 0.46377 0.0
C755 C 0.19191 0.24644 0.50458 0.0
C756 C 0.16654 0.20728 0.46491 0.0
N757 N 0.19101 0.21929 0.48478 0.0
C758 C 0.16816 0.26235 0.50422 0.0
C759 C 0.14321 0.25024 0.4836 0.0
C760 C 0.25556 0.22693 0.61224 0.0
C761 C 0.297 0.13697 0.69347 0.0
C762 C 0.31069 0.19162 0.6735 0.0
C763 C 0.3145 0.17925 0.74837 0.0
C764 C 0.30762 0.1517 0.75823 0.0
N765 N 0.30057 0.17695 0.60981 0.0
C766 C 0.29355 0.15008 0.61954 0.0
Co767 Co 0.57559 0.54788 0.26468 0.0
Co768 Co 0.57677 0.47805 0.24654 0.0
O769 O 0.59639 0.51335 0.25728 0.0
C770 C 0.63152 0.56333 0.19457 0.0
O771 O 0.63991 0.53794 0.20062 0.0
C772 C 0.63177 0.46454 0.32517 0.0
O773 O 0.63949 0.49026 0.32144 0.0
O774 O 0.55879 0.48607 0.35207 0.0
O775 O 0.54435 0.52838 0.32028 0.0
H776 H 0.49272 0.41809 0.26241 0.0
H777 H 0.63022 0.53969 0.3456 0.0
O778 O 0.60675 0.56961 0.21215 0.0
H779 H 0.57071 0.58003 0.55222 0.0
H780 H 0.56218 0.64992 0.29989 0.0
H781 H 0.51735 0.56204 0.23565 0.0
H782 H 0.55282 0.57069 0.41685 0.0
H783 H 0.58854 0.6071 0.29922 0.0
O784 O 0.60767 0.45736 0.30269 0.0
H785 H 0.51873 0.4614 0.26828 0.0
H786 H 0.59208 0.4197 0.21066 0.0
H787 H 0.48991 0.60425 0.23645 0.0
H788 H 0.6486 0.54763 0.48079 0.0
H789 H 0.51236 0.64873 0.26876 0.0
H790 H 0.61895 0.56844 0.58533 0.0
O791 O 0.55922 0.53902 0.15714 0.0
H792 H 0.65282 0.48201 0.04078 0.0
H793 H 0.55667 0.45578 0.09018 0.0
H794 H 0.57642 0.44898 0.95591 0.0
H795 H 0.62486 0.46218 0.93014 0.0
H796 H 0.63248 0.48778 0.17437 0.0
H797 H 0.56716 0.37581 0.20492 0.0
H798 H 0.517 0.37476 0.23052 0.0
O799 O 0.54566 0.49629 0.18783 0.0
C800 C 0.54432 0.50741 0.36644 0.0
C801 C 0.51458 0.41824 0.25116 0.0
C802 C 0.55633 0.39452 0.21908 0.0
N803 N 0.55694 0.44331 0.2402 0.0
C804 C 0.52939 0.44279 0.25444 0.0
C805 C 0.57043 0.41949 0.22295 0.0
C806 C 0.5282 0.39395 0.23334 0.0
C807 C 0.61701 0.54843 0.39008 0.0
N808 N 0.59069 0.55548 0.37132 0.0
C809 C 0.62763 0.55307 0.46693 0.0
C810 C 0.61101 0.56477 0.5255 0.0
C811 C 0.58401 0.5714 0.50685 0.0
C812 C 0.57408 0.56627 0.42951 0.0
C813 C 0.55214 0.63069 0.2856 0.0
C814 C 0.52722 0.58113 0.24992 0.0
C815 C 0.56707 0.60631 0.28463 0.0
N816 N 0.55458 0.58183 0.26732 0.0
C817 C 0.5116 0.60507 0.25022 0.0
C818 C 0.5242 0.63001 0.26824 0.0
C819 C 0.54535 0.51724 0.1418 0.0
C820 C 0.63177 0.47592 0.05137 0.0
C821 C 0.57797 0.46098 0.08053 0.0
C822 C 0.58898 0.45727 0.00387 0.0
C823 C 0.61609 0.46479 0.98936 0.0
N824 N 0.59359 0.47147 0.14182 0.0
C825 C 0.62007 0.47924 0.12732 0.0
Co826 Co 0.29521 0.83021 0.99345 0.0
Co827 Co 0.22547 0.82932 0.01117 0.0
O828 O 0.26021 0.84974 0.00299 0.0
C829 C 0.30919 0.87639 0.10773 0.0
O830 O 0.28747 0.87088 0.15111 0.0
C831 C 0.21159 0.8845 0.93437 0.0
O832 O 0.23724 0.89243 0.93977 0.0
O833 O 0.23429 0.81154 0.90565 0.0
O834 O 0.27715 0.79849 0.93594 0.0
H835 H 0.16777 0.74374 0.99272 0.0
H836 H 0.28956 0.88641 0.92795 0.0
O837 O 0.31489 0.86202 0.0462 0.0
H838 H 0.32307 0.83083 0.70175 0.0
H839 H 0.39732 0.82364 0.9515 0.0
H840 H 0.31303 0.77263 0.01785 0.0
H841 H 0.31527 0.80989 0.83455 0.0
H842 H 0.35283 0.84725 0.95704 0.0
O843 O 0.20459 0.86007 0.95447 0.0
H844 H 0.21046 0.77078 0.99046 0.0
H845 H 0.16628 0.84333 0.0405 0.0
H846 H 0.35698 0.74804 0.01235 0.0
H847 H 0.29687 0.90835 0.79613 0.0
H848 H 0.39963 0.77363 0.97893 0.0
H849 H 0.31378 0.88042 0.6817 0.0
O850 O 0.28721 0.81226 0.09954 0.0
H851 H 0.22675 0.90531 0.2178 0.0
H852 H 0.20142 0.80909 0.16502 0.0
H853 H 0.19167 0.82919 0.29728 0.0
H854 H 0.20427 0.8777 0.3246 0.0
H855 H 0.23568 0.88464 0.08619 0.0
H856 H 0.123 0.81736 0.04255 0.0
H857 H 0.1235 0.76707 0.01893 0.0
O858 O 0.24418 0.79854 0.07109 0.0
C859 C 0.25594 0.79762 0.89081 0.0
C860 C 0.16724 0.76564 0.0031 0.0
C861 C 0.14214 0.80694 0.03087 0.0
N862 N 0.19112 0.80868 0.01502 0.0
C863 C 0.19145 0.78105 0.00188 0.0
C864 C 0.16678 0.82164 0.0291 0.0
C865 C 0.14243 0.77874 0.01772 0.0
C866 C 0.29693 0.87427 0.87868 0.0
N867 N 0.30197 0.84703 0.8893 0.0
C868 C 0.30105 0.88673 0.80406 0.0
C869 C 0.31053 0.87106 0.73991 0.0
C870 C 0.31579 0.84326 0.75115 0.0
C871 C 0.31131 0.83152 0.82659 0.0
C872 C 0.3789 0.81226 0.96618 0.0
C873 C 0.33136 0.78382 0.00317 0.0
C874 C 0.35361 0.82554 0.96979 0.0
N875 N 0.33018 0.81128 0.9878 0.0
C876 C 0.35626 0.76983 0.00018 0.0
C877 C 0.38018 0.7842 0.98151 0.0
C878 C 0.2658 0.79778 0.11471 0.0
C879 C 0.2207 0.88429 0.20623 0.0
C880 C 0.20629 0.83045 0.17513 0.0
C881 C 0.20094 0.84164 0.25073 0.0
C882 C 0.20812 0.8688 0.26614 0.0
N883 N 0.21785 0.846 0.11547 0.0
C884 C 0.22561 0.87243 0.13121 0.0
Co885 Co 0.94291 0.47569 0.76199 0.0
Co886 Co 0.94015 0.54562 0.73593 0.0
O887 O 0.92188 0.50975 0.74826 0.0
C888 C 0.89711 0.45977 0.64814 0.0
O889 O 0.89829 0.48353 0.61138 0.0
C890 C 0.88841 0.55675 0.83326 0.0
O891 O 0.88459 0.53061 0.84797 0.0
O892 O 0.96056 0.53923 0.83901 0.0
O893 O 0.9722 0.49504 0.82415 0.0
H894 H 0.02089 0.60998 0.74705 0.0
H895 H 0.88439 0.47552 0.81147 0.0
O896 O 0.91388 0.45403 0.70415 0.0
H897 H 0.93635 0.45305 0.05696 0.0
H898 H 0.95431 0.37476 0.81722 0.0
H899 H 1.00131 0.46052 0.74069 0.0
H900 H 0.96033 0.4607 0.92873 0.0
H901 H 0.92845 0.41785 0.80449 0.0
O902 O 0.90954 0.56505 0.79498 0.0
H903 H 0.99725 0.5654 0.75866 0.0
H904 H 0.92159 0.6023 0.69506 0.0
H905 H 0.02805 0.41799 0.75381 0.0
H906 H 0.85955 0.46743 0.93819 0.0
H907 H 1.00452 0.37467 0.79231 0.0
H908 H 0.88556 0.45627 0.0623 0.0
O909 O 0.96293 0.48361 0.65939 0.0
H910 H 0.85808 0.54327 0.55242 0.0
H911 H 0.95671 0.56479 0.57236 0.0
H912 H 0.93295 0.57082 0.4429 0.0
H913 H 0.88319 0.56027 0.43237 0.0
H914 H 0.88297 0.53686 0.67988 0.0
H915 H 0.94432 0.6474 0.68386 0.0
H916 H 0.99437 0.65143 0.70941 0.0
O917 O 0.97081 0.52879 0.67341 0.0
C918 C 0.9746 0.51814 0.85924 0.0
C919 C 0.99911 0.60846 0.73514 0.0
C920 C 0.95613 0.62946 0.69985 0.0
N921 N 0.9582 0.58106 0.72595 0.0
C922 C 0.98566 0.5832 0.7411 0.0
C923 C 0.94338 0.60386 0.70638 0.0
C924 C 0.98421 0.63171 0.71418 0.0
C925 C 0.89586 0.47038 0.86491 0.0
N926 N 0.9238 0.4687 0.86245 0.0
C927 C 0.88168 0.46594 0.93664 0.0
C928 C 0.89629 0.45972 0.00627 0.0
C929 C 0.92478 0.45794 0.00333 0.0
C930 C 0.93826 0.46246 0.93051 0.0
C931 C 0.96483 0.39354 0.80089 0.0
C932 C 0.991 0.44189 0.75858 0.0
C933 C 0.9503 0.41803 0.79355 0.0
N934 N 0.96346 0.44187 0.77334 0.0
C935 C 1.00622 0.4178 0.76543 0.0
C936 C 0.993 0.3935 0.78689 0.0
C937 C 0.97515 0.50587 0.63886 0.0
C938 C 0.87968 0.5483 0.55641 0.0
C939 C 0.93505 0.56018 0.5685 0.0
C940 C 0.92171 0.56365 0.49491 0.0
C941 C 0.8938 0.55773 0.48905 0.0
N942 N 0.92099 0.5512 0.63465 0.0
C943 C 0.89375 0.54505 0.62891 0.0
C944 C 0.25473 0.29287 0.26001 0.0
C945 C 0.25336 0.28131 0.18201 0.0
C946 C 0.26316 0.23549 0.23831 0.0
C947 C 0.2651 0.24727 0.3161 0.0
N948 N 0.26972 0.28762 0.39777 0.0
N949 N 0.25154 0.24139 0.09754 0.0
C950 C 0.26248 0.27608 0.32615 0.0
C951 C 0.25655 0.25253 0.17135 0.0
N952 N 0.24853 0.31994 0.27107 0.0
N953 N 0.26802 0.20807 0.22839 0.0
H954 H 0.24567 0.25334 0.04895 0.0
H955 H 0.25086 0.22051 0.0852 0.0
H956 H 0.27162 0.1947 0.27605 0.0
H957 H 0.26993 0.19846 0.17293 0.0
H958 H 0.24605 0.3289 0.32734 0.0
H959 H 0.24382 0.3332 0.22398 0.0
H960 H 0.27099 0.30864 0.408 0.0
H961 H 0.27775 0.27598 0.44432 0.0
C962 C 0.98325 1.0029 0.50909 0.0
C963 C 0.99318 1.00756 0.42995 0.0
C964 C 0.03949 0.01623 0.4843 0.0
C965 C 0.02912 0.01381 0.56345 0.0
N966 N 0.99074 1.00706 0.65264 0.0
N967 N 0.03016 0.02256 0.34317 0.0
C968 C 1.00093 1.00749 0.57616 0.0
C969 C 0.0211 0.01542 0.41797 0.0
N970 N 0.95674 0.99452 0.52052 0.0
N971 N 0.06719 0.01771 0.47195 0.0
H972 H 0.01827 0.02064 0.29172 0.0
H973 H 0.04893 0.03219 0.3327 0.0
H974 H 0.08145 0.01802 0.51859 0.0
H975 H 0.07628 0.01593 0.4156 0.0
H976 H 0.94925 0.98703 0.5748 0.0
H977 H 0.94223 0.99376 0.47473 0.0
H978 H 0.96996 1.00624 0.66653 0.0
H979 H 1.00304 1.00938 0.70321 0.0
C980 C 0.26808 0.73407 0.76145 0.0
C981 C 0.27016 0.746 0.68396 0.0
C982 C 0.25956 0.79143 0.74097 0.0
C983 C 0.25744 0.77953 0.81849 0.0
N984 N 0.25447 0.73913 0.90068 0.0
N985 N 0.27513 0.78655 0.60363 0.0
C986 C 0.2606 0.75073 0.82829 0.0
C987 C 0.26761 0.77483 0.67465 0.0
N988 N 0.27371 0.70684 0.77132 0.0
N989 N 0.25362 0.81858 0.73042 0.0
H990 H 0.28332 0.77497 0.55725 0.0
H991 H 0.27647 0.80759 0.59384 0.0
H992 H 0.24884 0.83175 0.77766 0.0
H993 H 0.25157 0.8278 0.67435 0.0
H994 H 0.27566 0.69727 0.82688 0.0
H995 H 0.27832 0.69387 0.72362 0.0
H996 H 0.25348 0.71813 0.91136 0.0
H997 H 0.24764 0.75072 0.94886 0.0
C998 C 0.48175 1.00741 0.98986 0.0
C999 C 0.49331 1.00659 0.06806 0.0
C1000 C 0.53887 0.01774 0.01264 0.0
C1001 C 0.52765 0.01724 0.93409 0.0
N1002 N 0.48882 0.01186 0.84625 0.0
N1003 N 0.53325 1.00602 0.1529 0.0
C1004 C 0.49918 0.01201 0.92241 0.0
C1005 C 0.52197 1.01059 0.0791 0.0
N1006 N 0.45395 1.00497 0.98053 0.0
N1007 N 0.56573 0.02505 0.02388 0.0
H1008 H 0.52147 1.00006 0.20177 0.0
H1009 H 0.55423 1.00547 0.16427 0.0
H1010 H 0.57926 0.02897 0.97681 0.0
H1011 H 0.57433 0.02904 0.07996 0.0
H1012 H 0.4436 1.00823 0.92674 0.0
H1013 H 0.44061 1.00098 0.02804 0.0
H1014 H 0.46942 1.00469 0.83068 0.0
H1015 H 0.50022 0.01878 0.79759 0.0
C1016 C 0.26291 0.79029 0.26448 0.0
C1017 C 0.26512 0.7791 0.18602 0.0
C1018 C 0.25588 0.73288 0.24027 0.0
C1019 C 0.25564 0.74377 0.31923 0.0
N1020 N 0.25966 0.78253 0.40796 0.0
N1021 N 0.26883 0.7394 0.10116 0.0
C1022 C 0.25946 0.77241 0.33154 0.0
C1023 C 0.2628 0.75029 0.17447 0.0
N1024 N 0.26295 0.81811 0.27458 0.0
N1025 N 0.24961 0.70584 0.22803 0.0
H1026 H 0.27509 0.75156 0.05336 0.0
H1027 H 0.27044 0.71847 0.08981 0.0
H1028 H 0.24556 0.69216 0.27472 0.0
H1029 H 0.24642 0.69729 0.17144 0.0
H1030 H 0.25831 0.82791 0.32836 0.0
H1031 H 0.26583 0.83177 0.22733 0.0
H1032 H 0.26616 0.8022 0.42329 0.0
H1033 H 0.25399 0.77062 0.45701 0.0
C1034 C 0.48258 0.01579 0.51106 0.0
C1035 C 0.49461 0.01776 0.43386 0.0
C1036 C 0.53986 1.00643 0.49133 0.0
C1037 C 0.52771 1.00429 0.56842 0.0
N1038 N 0.48691 0.99967 0.64779 0.0
N1039 N 0.53513 0.02055 0.35234 0.0
C1040 C 0.49891 1.00727 0.57728 0.0
C1041 C 0.52338 0.01427 0.42439 0.0
N1042 N 0.45554 0.02226 0.52141 0.0
N1043 N 0.56713 1.00075 0.48202 0.0
H1044 H 0.52366 0.02805 0.30472 0.0
H1045 H 0.55612 0.02109 0.34164 0.0
H1046 H 0.5801 0.99609 0.52985 0.0
H1047 H 0.5768 0.99893 0.42663 0.0
H1048 H 0.44636 0.02447 0.57746 0.0
H1049 H 0.44248 0.02737 0.47419 0.0
H1050 H 0.46583 0.99857 0.65701 0.0
H1051 H 0.49825 0.99116 0.69415 0.0
C1052 C 0.26056 0.27406 0.67273 0.0
C1053 C 0.25688 0.24534 0.68377 0.0
C1054 C 0.26432 0.25098 0.82885 0.0
C1055 C 0.26749 0.27974 0.81802 0.0
N1056 N 0.27254 0.31845 0.72937 0.0
N1057 N 0.25197 0.20661 0.77255 0.0
C1058 C 0.26682 0.29119 0.73973 0.0
C1059 C 0.25773 0.23386 0.76203 0.0
N1060 N 0.25632 0.28514 0.59847 0.0
N1061 N 0.26954 0.23989 0.90251 0.0
H1062 H 0.24831 0.19315 0.72502 0.0
H1063 H 0.24912 0.19743 0.82836 0.0
H1064 H 0.27592 0.25186 0.95066 0.0
H1065 H 0.27032 0.21897 0.91442 0.0
H1066 H 0.25566 0.30604 0.58626 0.0
H1067 H 0.25104 0.27318 0.54924 0.0
H1068 H 0.27559 0.32773 0.67382 0.0
H1069 H 0.27594 0.33185 0.77703 0.0
C1070 C 1.00509 0.03164 0.93152 0.0
C1071 C 0.02346 1.00907 0.92321 0.0
C1072 C 0.01594 0.99818 0.06515 0.0
C1073 C 0.9973 0.02045 0.07343 0.0
N1074 N 0.98547 0.0651 0.02123 0.0
N1075 N 0.03433 0.96415 0.97588 0.0
C1076 C 0.99503 0.03918 0.00863 0.0
C1077 C 0.02554 0.99037 0.98814 0.0
N1078 N 0.99497 0.04436 0.86492 0.0
N1079 N 0.02643 0.98571 0.13165 0.0
H1080 H 0.03708 0.95588 0.91886 0.0
H1081 H 0.03412 0.94929 0.02094 0.0
H1082 H 0.02292 0.99318 0.1891 0.0
H1083 H 0.04181 0.97095 0.12908 0.0
H1084 H 0.97983 0.05936 0.86714 0.0
H1085 H 0.99827 0.03675 0.80754 0.0
H1086 H 0.98561 0.08016 0.97679 0.0
H1087 H 0.98198 0.07302 0.07834 0.0
C1088 C 0.75043 0.77291 0.82358 0.0
C1089 C 0.75949 0.74516 0.81607 0.0
C1090 C 0.76475 0.75206 0.6702 0.0
C1091 C 0.75659 0.78001 0.67846 0.0
N1092 N 0.74957 0.81856 0.76692 0.0
N1093 N 0.76709 0.70656 0.72828 0.0
C1094 C 0.75133 0.79077 0.75605 0.0
C1095 C 0.76468 0.73433 0.73833 0.0
N1096 N 0.73981 0.78231 0.89418 0.0
N1097 N 0.7736 0.74244 0.5977 0.0
H1098 H 0.76591 0.6925 0.77532 0.0
H1099 H 0.76715 0.69692 0.67246 0.0
H1100 H 0.77276 0.75375 0.54512 0.0
H1101 H 0.78386 0.72393 0.59045 0.0
H1102 H 0.72936 0.80082 0.89924 0.0
H1103 H 0.73868 0.77081 0.94613 0.0
H1104 H 0.74971 0.82787 0.82327 0.0
H1105 H 0.75117 0.8328 0.72045 0.0
C1106 C 0.75471 0.25126 0.32575 0.0
C1107 C 0.75275 0.28013 0.31561 0.0
C1108 C 0.76146 0.27485 0.17122 0.0
C1109 C 0.76346 0.24598 0.18121 0.0
N1110 N 0.76568 0.20671 0.26893 0.0
N1111 N 0.74932 0.31913 0.22735 0.0
C1112 C 0.76121 0.23419 0.2589 0.0
C1113 C 0.75452 0.29181 0.23779 0.0
N1114 N 0.74844 0.2401 0.39866 0.0
N1115 N 0.7684 0.2862 0.0991 0.0
H1116 H 0.74519 0.33244 0.27477 0.0
H1117 H 0.74713 0.32839 0.17139 0.0
H1118 H 0.77545 0.27436 0.05167 0.0
H1119 H 0.77016 0.30717 0.08868 0.0
H1120 H 0.7468 0.21919 0.40997 0.0
H1121 H 0.7421 0.25211 0.44663 0.0
H1122 H 0.7675 0.1972 0.3246 0.0
H1123 H 0.76926 0.19332 0.22133 0.0
C1124 C 0.7578 0.23396 0.73494 0.0
C1125 C 0.75647 0.24536 0.81333 0.0
C1126 C 0.76616 0.29132 0.75834 0.0
C1127 C 0.76702 0.28006 0.67987 0.0
N1128 N 0.76783 0.24064 0.59334 0.0
N1129 N 0.75419 0.28512 0.8984 0.0
C1130 C 0.76375 0.25134 0.66816 0.0
C1131 C 0.75951 0.27411 0.8247 0.0
N1132 N 0.75302 0.20654 0.72442 0.0
N1133 N 0.77204 0.31851 0.76953 0.0
H1134 H 0.74819 0.27308 0.94678 0.0
H1135 H 0.75306 0.30603 0.91021 0.0
H1136 H 0.77595 0.33193 0.72224 0.0
H1137 H 0.77492 0.32755 0.82555 0.0
H1138 H 0.75083 0.19701 0.6689 0.0
H1139 H 0.74986 0.19308 0.77205 0.0
H1140 H 0.76824 0.21983 0.57989 0.0
H1141 H 0.77297 0.25287 0.54454 0.0
C1142 C 0.75357 0.73484 0.25947 0.0
C1143 C 0.75771 0.74513 0.18081 0.0
C1144 C 0.76954 0.79047 0.23812 0.0
C1145 C 0.76297 0.78063 0.31619 0.0
N1146 N 0.74308 0.74444 0.3978 0.0
N1147 N 0.76807 0.78363 0.09429 0.0
C1148 C 0.75318 0.7532 0.32575 0.0
C1149 C 0.76553 0.77314 0.17 0.0
N1150 N 0.75194 0.70716 0.27209 0.0
N1151 N 0.77921 0.81664 0.22847 0.0
H1152 H 0.76725 0.77162 0.04305 0.0
H1153 H 0.76951 0.80446 0.08138 0.0
H1154 H 0.7788 0.83138 0.27366 0.0
H1155 H 0.78862 0.82366 0.17623 0.0
H1156 H 0.75225 0.69827 0.32901 0.0
H1157 H 0.75359 0.69283 0.22604 0.0
H1158 H 0.73242 0.72603 0.40482 0.0
H1159 H 0.74312 0.75637 0.44925 0.0
C1160 C 0.53897 0.51428 0.99185 0.0
C1161 C 0.5272 0.51561 0.06965 0.0
C1162 C 0.48174 0.5044 0.0128 0.0
C1163 C 0.49343 0.50361 0.93494 0.0
N1164 N 0.53357 0.50105 0.85227 0.0
N1165 N 0.48698 0.51663 0.15304 0.0
C1166 C 0.52218 0.50693 0.925 0.0
C1167 C 0.49848 0.51162 0.07984 0.0
N1168 N 0.56617 0.52032 0.98169 0.0
N1169 N 0.45465 0.49788 0.02273 0.0
H1170 H 0.4986 0.52306 0.20182 0.0
H1171 H 0.46601 0.51706 0.16413 0.0
H1172 H 0.44162 0.49329 0.97494 0.0
H1173 H 0.44532 0.49504 0.0783 0.0
H1174 H 0.57543 0.52289 0.92591 0.0
H1175 H 0.57946 0.52448 0.02928 0.0
H1176 H 0.55454 0.50035 0.84119 0.0
H1177 H 0.52179 0.49392 0.80461 0.0
C1178 C 1.00187 0.50158 0.42276 0.0
C1179 C 0.02954 0.51068 0.43232 0.0
C1180 C 0.02157 0.51669 0.57681 0.0
C1181 C 0.99434 0.50616 0.56858 0.0
N1182 N 0.95919 0.48661 0.48325 0.0
N1183 N 0.06753 0.51844 0.5225 0.0
C1184 C 0.98482 0.49777 0.49155 0.0
C1185 C 0.03987 0.51589 0.51045 0.0
N1186 N 0.99124 0.49781 0.3476 0.0
N1187 N 0.03012 0.52804 0.64753 0.0
H1188 H 0.08189 0.51667 0.47647 0.0
H1189 H 0.07648 0.51909 0.57935 0.0
H1190 H 0.0182 0.52844 0.69894 0.0
H1191 H 0.04829 0.5392 0.65323 0.0
H1192 H 0.9704 0.49561 0.33552 0.0
H1193 H 1.003 0.49837 0.29592 0.0
H1194 H 0.95274 0.476 0.43228 0.0
H1195 H 0.94447 0.4868 0.52838 0.0
C1196 C 0.03972 0.51184 0.98819 0.0
C1197 C 0.0291 0.51623 0.06627 0.0
C1198 C 0.98379 0.52678 0.00674 0.0
C1199 C 0.99382 0.5193 0.92959 0.0
N1200 N 0.03083 0.5004 0.84993 0.0
N1201 N 0.99049 0.52766 0.15077 0.0
C1202 C 0.02159 0.51056 0.92132 0.0
C1203 C 1.00109 0.52405 0.07564 0.0
N1204 N 0.06748 0.51052 0.97679 0.0
N1205 N 0.95746 0.53597 0.01496 0.0
H1206 H 1.00244 0.52837 0.20214 0.0
H1207 H 0.96962 0.52882 0.16325 0.0
H1208 H 0.94271 0.53465 0.96986 0.0
H1209 H 0.95028 0.54599 0.06594 0.0
H1210 H 0.07661 0.51068 0.92023 0.0
H1211 H 0.0817 0.51245 0.02333 0.0
H1212 H 0.04944 0.49019 0.84387 0.0
H1213 H 0.0192 0.50015 0.79787 0.0
C1214 C 0.52132 0.51667 0.58405 0.0
C1215 C 0.49283 0.52155 0.57285 0.0
C1216 C 0.49773 0.51245 0.42887 0.0
C1217 C 0.5264 0.50872 0.43894 0.0
N1218 N 0.56616 0.50814 0.52513 0.0
N1219 N 0.4548 0.529 0.48317 0.0
C1220 C 0.53838 0.51084 0.51654 0.0
C1221 C 0.48138 0.52114 0.49467 0.0
N1222 N 0.53196 0.51806 0.6598 0.0
N1223 N 0.48581 0.50583 0.35725 0.0
H1224 H 0.44197 0.5348 0.53006 0.0
H1225 H 0.44609 0.53203 0.42673 0.0
H1226 H 0.49708 0.49775 0.3101 0.0
H1227 H 0.46473 0.50525 0.34748 0.0
H1228 H 0.55158 0.51182 0.67577 0.0
H1229 H 0.5206 0.52554 0.70781 0.0
H1230 H 0.57683 0.51167 0.57824 0.0
H1231 H 0.57919 0.50339 0.47759 0.0
C1232 C 0.14816 0.43247 0.0541 0.0
C1233 C 0.15358 0.45058 0.11883 0.0
C1234 C 0.1955 0.4248 0.15 0.0
C1235 C 0.19167 0.40844 0.08017 0.0
N1236 N 0.16781 0.40287 0.95363 0.0
N1237 N 0.18598 0.46791 0.21647 0.0
C1238 C 0.16883 0.41381 0.029 0.0
C1239 C 0.1784 0.44802 0.16298 0.0
N1240 N 0.12341 0.43327 0.01557 0.0
N1241 N 0.21468 0.41755 0.20599 0.0
H1242 H 0.1746 0.48565 0.22562 0.0
H1243 H 0.20502 0.46825 0.24494 0.0
H1244 H 0.22676 0.40005 0.20071 0.0
H1245 H 0.21649 0.42718 0.26166 0.0
H1246 H 0.11719 0.41838 0.97439 0.0
H1247 H 0.10838 0.44777 0.02859 0.0
H1248 H 0.15305 0.4082 0.91114 0.0
H1249 H 0.18353 0.39109 0.93017 0.0
C1250 C 0.82611 0.92748 0.38171 0.0
C1251 C 0.83297 0.89923 0.37557 0.0
C1252 C 0.88153 0.91189 0.36184 0.0
C1253 C 0.87436 0.94008 0.35839 0.0
N1254 N 0.83875 0.97421 0.34802 0.0
N1255 N 0.86662 0.86498 0.34176 0.0
C1256 C 0.84633 0.94779 0.3636 0.0
C1257 C 0.86053 0.89158 0.36027 0.0
N1258 N 0.80079 0.93511 0.40861 0.0
N1259 N 0.90838 0.90445 0.37007 0.0
H1260 H 0.8517 0.84966 0.33705 0.0
H1261 H 0.88596 0.85877 0.32258 0.0
H1262 H 0.92432 0.91867 0.37537 0.0
H1263 H 0.91452 0.88432 0.38057 0.0
H1264 H 0.79583 0.95533 0.42235 0.0
H1265 H 0.78557 0.9211 0.42473 0.0
H1266 H 0.81834 0.98021 0.34272 0.0
H1267 H 0.85269 0.98959 0.33262 0.0
C1268 C 0.36182 0.63363 0.63382 0.0
C1269 C 0.3339 0.62604 0.62308 0.0
C1270 C 0.34634 0.57768 0.64373 0.0
C1271 C 0.37457 0.58509 0.6451 0.0
N1272 N 0.4093 0.61977 0.624 0.0
N1273 N 0.30046 0.59006 0.60149 0.0
C1274 C 0.38234 0.613 0.63521 0.0
C1275 C 0.32635 0.59783 0.62366 0.0
N1276 N 0.36872 0.66054 0.64559 0.0
N1277 N 0.33841 0.55176 0.66493 0.0
H1278 H 0.28534 0.60396 0.58457 0.0
H1279 H 0.29479 0.56966 0.59249 0.0
H1280 H 0.35222 0.53652 0.68165 0.0
H1281 H 0.31797 0.54614 0.67332 0.0
H1282 H 0.38839 0.66695 0.66158 0.0
H1283 H 0.35423 0.6762 0.6479 0.0
H1284 H 0.41584 0.63945 0.60858 0.0
H1285 H 0.42489 0.60521 0.62153 0.0
C1286 C 0.67205 0.13221 0.80586 0.0
C1287 C 0.69054 0.12775 0.87008 0.0
C1288 C 0.66732 0.08429 0.90102 0.0
C1289 C 0.65055 0.08724 0.83162 0.0
N1290 N 0.64309 0.11103 0.70586 0.0
N1291 N 0.71041 0.09627 0.9649 0.0
C1292 C 0.65444 0.11048 0.78078 0.0
C1293 C 0.68955 0.1028 0.91367 0.0
N1294 N 0.67123 0.15718 0.76866 0.0
N1295 N 0.66151 0.06442 0.95644 0.0
H1296 H 0.72785 0.10856 0.97109 0.0
H1297 H 0.71193 0.0773 0.99336 0.0
H1298 H 0.64473 0.05119 0.95128 0.0
H1299 H 0.67158 0.06302 0.01155 0.0
H1300 H 0.65603 0.1625 0.72751 0.0
H1301 H 0.68448 0.17327 0.78347 0.0
H1302 H 0.64741 0.12622 0.66365 0.0
H1303 H 0.632 0.09468 0.68237 0.0
C1304 C 0.17664 0.57826 0.34565 0.0
C1305 C 0.15145 0.57713 0.38814 0.0
C1306 C 0.16784 0.61396 0.47648 0.0
C1307 C 0.19124 0.61802 0.42648 0.0
N1308 N 0.21478 0.60674 0.3032 0.0
N1309 N 0.12137 0.59651 0.48765 0.0
C1310 C 0.19482 0.60084 0.35822 0.0
C1311 C 0.14646 0.59593 0.45123 0.0
N1312 N 0.18347 0.55757 0.29422 0.0
N1313 N 0.16681 0.62558 0.55096 0.0
H1314 H 0.10566 0.58269 0.47376 0.0
H1315 H 0.11562 0.61191 0.52756 0.0
H1316 H 0.18297 0.63688 0.57476 0.0
H1317 H 0.15149 0.62124 0.59269 0.0
H1318 H 0.20263 0.55611 0.26695 0.0
H1319 H 0.1711 0.54031 0.28578 0.0
H1320 H 0.21658 0.59645 0.2486 0.0
H1321 H 0.22766 0.6238 0.30791 0.0
C1322 C 0.66237 0.92205 0.71069 0.0
C1323 C 0.65533 0.94443 0.65965 0.0
C1324 C 0.69358 0.93202 0.57094 0.0
C1325 C 0.69789 0.90758 0.61566 0.0
N1326 N 0.68375 0.87746 0.72297 0.0
N1327 N 0.66108 0.967 0.53165 0.0
C1328 C 0.68127 0.9019 0.68348 0.0
C1329 C 0.67008 0.94837 0.58702 0.0
N1330 N 0.65279 0.92102 0.78761 0.0
N1331 N 0.71212 0.94007 0.51413 0.0
H1332 H 0.64334 0.97858 0.53955 0.0
H1333 H 0.66946 0.96878 0.47431 0.0
H1334 H 0.73016 0.92944 0.50299 0.0
H1335 H 0.71118 0.95893 0.48486 0.0
H1336 H 0.65938 0.90671 0.82981 0.0
H1337 H 0.64075 0.93637 0.81214 0.0
H1338 H 0.66992 0.87094 0.76677 0.0
H1339 H 0.69854 0.86289 0.70835 0.0
C1340 C 0.34498 0.44795 0.86451 0.0
C1341 C 0.37332 0.44125 0.86624 0.0
C1342 C 0.36128 0.39244 0.87778 0.0
C1343 C 0.33312 0.39935 0.88502 0.0
N1344 N 0.29886 0.43452 0.90225 0.0
N1345 N 0.40836 0.40759 0.89233 0.0
C1346 C 0.32511 0.42735 0.88301 0.0
C1347 C 0.38143 0.4136 0.87807 0.0
N1348 N 0.33686 0.47359 0.8417 0.0
N1349 N 0.36878 0.36569 0.86745 0.0
H1350 H 0.42363 0.42259 0.89587 0.0
H1351 H 0.41506 0.38816 0.90914 0.0
H1352 H 0.35461 0.34964 0.86372 0.0
H1353 H 0.38875 0.35975 0.85397 0.0
H1354 H 0.31644 0.47863 0.8309 0.0
H1355 H 0.35058 0.48916 0.82627 0.0
H1356 H 0.29275 0.45479 0.91005 0.0
H1357 H 0.28381 0.42027 0.91809 0.0
C1358 C 0.82817 0.09561 0.0643 0.0
C1359 C 0.82477 0.12032 0.10853 0.0
C1360 C 0.8605 0.10525 0.20231 0.0
C1361 C 0.8665 0.08237 0.152 0.0
N1362 N 0.85934 0.05943 0.02516 0.0
N1363 N 0.84056 0.15051 0.21384 0.0
C1364 C 0.85123 0.07858 0.08012 0.0
C1365 C 0.84205 0.12583 0.17517 0.0
N1366 N 0.80917 0.08796 0.00818 0.0
N1367 N 0.87057 0.10638 0.27873 0.0
H1368 H 0.8261 0.16545 0.19952 0.0
H1369 H 0.85491 0.15683 0.25653 0.0
H1370 H 0.8823 0.09082 0.30341 0.0
H1371 H 0.86465 0.12108 0.32064 0.0
H1372 H 0.80934 0.06893 0.9797 0.0
H1373 H 0.79155 0.09922 0.99652 0.0
H1374 H 0.85062 0.05768 0.96819 0.0
H1375 H 0.87671 0.0473 0.03291 0.0
C1376 C 0.85349 0.61485 0.9474 0.0
C1377 C 0.82948 0.61915 0.90004 0.0
C1378 C 0.84199 0.5791 0.81814 0.0
C1379 C 0.86758 0.57727 0.85883 0.0
N1380 N 0.89939 0.59623 0.95524 0.0
N1381 N 0.80422 0.60844 0.77922 0.0
C1382 C 0.87395 0.59623 0.92066 0.0
C1383 C 0.82468 0.6021 0.83221 0.0
N1384 N 0.85592 0.62672 0.02127 0.0
N1385 N 0.83384 0.5587 0.76705 0.0
H1386 H 0.79182 0.62568 0.78559 0.0
H1387 H 0.80152 0.59834 0.72457 0.0
H1388 H 0.84541 0.54117 0.75681 0.0
H1389 H 0.81432 0.55776 0.74168 0.0
H1390 H 0.87153 0.62205 0.06175 0.0
H1391 H 0.84066 0.63875 0.04603 0.0
H1392 H 0.90619 0.61174 0.99359 0.0
H1393 H 0.91439 0.58178 0.94152 0.0
C1394 C 0.16297 0.1179 0.53123 0.0
C1395 C 0.18643 0.12195 0.58122 0.0
C1396 C 0.17166 0.08261 0.6633 0.0
C1397 C 0.14667 0.0812 0.61986 0.0
N1398 N 0.11653 0.10035 0.51998 0.0
N1399 N 0.21009 0.11097 0.70463 0.0
C1400 C 0.14168 0.0998 0.55633 0.0
C1401 C 0.18994 0.10504 0.65008 0.0
N1402 N 0.16176 0.12965 0.45697 0.0
N1403 N 0.17836 0.06205 0.71538 0.0
H1404 H 0.22319 0.12782 0.69894 0.0
H1405 H 0.21193 0.1009 0.75958 0.0
H1406 H 0.16599 0.04475 0.72334 0.0
H1407 H 0.19739 0.06068 0.74354 0.0
H1408 H 0.1465 0.12516 0.41502 0.0
H1409 H 0.17762 0.14139 0.43364 0.0
H1410 H 0.11074 0.11565 0.47973 0.0
H1411 H 0.10073 0.08675 0.53468 0.0
C1412 C 0.69014 0.43071 0.44105 0.0
C1413 C 0.6943 0.40622 0.3963 0.0
C1414 C 0.65867 0.42069 0.3013 0.0
C1415 C 0.6522 0.44348 0.35136 0.0
N1416 N 0.65834 0.46659 0.4783 0.0
N1417 N 0.6797 0.37591 0.28983 0.0
C1418 C 0.66699 0.44746 0.42398 0.0
C1419 C 0.67748 0.40048 0.3288 0.0
N1420 N 0.70851 0.43838 0.49892 0.0
N1421 N 0.64861 0.41929 0.22487 0.0
H1422 H 0.69442 0.36127 0.30449 0.0
H1423 H 0.6657 0.36932 0.2465 0.0
H1424 H 0.63631 0.43443 0.20034 0.0
H1425 H 0.6549 0.40477 0.18293 0.0
H1426 H 0.70792 0.45732 0.5278 0.0
H1427 H 0.72601 0.42716 0.51221 0.0
H1428 H 0.66661 0.46848 0.53579 0.0
H1429 H 0.64097 0.47862 0.46928 0.0
C1430 C 0.36386 0.91659 0.22303 0.0
C1431 C 0.36838 0.93936 0.1708 0.0
C1432 C 0.33007 0.92319 0.08681 0.0
C1433 C 0.32847 0.89864 0.1323 0.0
N1434 N 0.34693 0.87004 0.23711 0.0
N1435 N 0.35853 0.9613 0.0439 0.0
C1436 C 0.34634 0.89473 0.19833 0.0
C1437 C 0.35224 0.9418 0.09999 0.0
N1438 N 0.37463 0.91658 0.29868 0.0
N1439 N 0.3097 0.92939 0.03362 0.0
H1440 H 0.37514 0.9747 0.04984 0.0
H1441 H 0.34903 0.96225 0.98786 0.0
H1442 H 0.29217 0.91723 0.02773 0.0
H1443 H 0.30856 0.94805 0.00337 0.0
H1444 H 0.36976 0.90186 0.3418 0.0
H1445 H 0.38586 0.93295 0.32141 0.0
H1446 H 0.36177 0.86508 0.27977 0.0
H1447 H 0.33401 0.85371 0.22202 0.0
C1448 C 0.82715 0.42559 0.61229 0.0
C1449 C 0.83494 0.39754 0.60915 0.0
C1450 C 0.88337 0.41143 0.61478 0.0
C1451 C 0.87553 0.43908 0.62812 0.0
N1452 N 0.83932 0.47141 0.65629 0.0
N1453 N 0.87045 0.3636 0.62506 0.0
C1454 C 0.84724 0.44594 0.63134 0.0
C1455 C 0.86308 0.39042 0.61533 0.0
N1456 N 0.80093 0.43307 0.59371 0.0
N1457 N 0.91016 0.40529 0.59904 0.0
H1458 H 0.8562 0.34766 0.62939 0.0
H1459 H 0.89046 0.35752 0.63761 0.0
H1460 H 0.9255 0.42021 0.59517 0.0
H1461 H 0.9166 0.38587 0.58127 0.0
H1462 H 0.79498 0.45345 0.58692 0.0
H1463 H 0.78574 0.41905 0.57722 0.0
H1464 H 0.81896 0.47642 0.66795 0.0
H1465 H 0.85315 0.48675 0.6729 0.0
C1466 C 0.33218 0.09667 0.43847 0.0
C1467 C 0.32776 0.12102 0.39316 0.0
C1468 C 0.3627 0.10597 0.2968 0.0
C1469 C 0.36941 0.08334 0.34727 0.0
N1470 N 0.36427 0.06102 0.47568 0.0
N1471 N 0.34178 0.15081 0.28486 0.0
C1472 C 0.35521 0.07983 0.42093 0.0
C1473 C 0.34418 0.12641 0.32464 0.0
N1474 N 0.31414 0.08909 0.49718 0.0
N1475 N 0.37219 0.10696 0.21976 0.0
H1476 H 0.32723 0.16557 0.29975 0.0
H1477 H 0.35549 0.15714 0.24053 0.0
H1478 H 0.38418 0.0916 0.19507 0.0
H1479 H 0.3657 0.12136 0.17768 0.0
H1480 H 0.31496 0.07022 0.52641 0.0
H1481 H 0.29663 0.1002 0.51076 0.0
H1482 H 0.35645 0.0595 0.53376 0.0
H1483 H 0.38158 0.04893 0.46626 0.0
C1484 C 0.65636 0.60827 0.22393 0.0
C1485 C 0.65197 0.58517 0.17282 0.0
C1486 C 0.69154 0.5998 0.09175 0.0
C1487 C 0.69323 0.62458 0.13604 0.0
N1488 N 0.67454 0.6544 0.23733 0.0
N1489 N 0.6628 0.56185 0.04889 0.0
C1490 C 0.67477 0.62944 0.19991 0.0
C1491 C 0.66889 0.58173 0.10407 0.0
N1492 N 0.64454 0.60926 0.29807 0.0
N1493 N 0.71212 0.59303 0.03995 0.0
H1494 H 0.64586 0.54884 0.05419 0.0
H1495 H 0.67288 0.56013 0.99396 0.0
H1496 H 0.72971 0.60508 0.03361 0.0
H1497 H 0.71323 0.57415 0.01085 0.0
H1498 H 0.64927 0.62416 0.34083 0.0
H1499 H 0.63237 0.59354 0.32028 0.0
H1500 H 0.65934 0.66016 0.27785 0.0
H1501 H 0.68833 0.67011 0.22337 0.0
C1502 C 0.19485 0.92125 0.83968 0.0
C1503 C 0.19043 0.9051 0.9095 0.0
C1504 C 0.14689 0.92945 0.93224 0.0
C1505 C 0.15298 0.94754 0.86795 0.0
N1506 N 0.18612 0.96411 0.77125 0.0
N1507 N 0.16532 0.8994 0.03371 0.0
C1508 C 0.17801 0.94455 0.82505 0.0
C1509 C 0.16716 0.91053 0.95871 0.0
N1510 N 0.21447 0.91375 0.78543 0.0
N1511 N 0.12192 0.93056 0.96931 0.0
H1512 H 0.18053 0.88712 0.05792 0.0
H1513 H 0.15034 0.90486 0.07525 0.0
H1514 H 0.10719 0.94533 0.95586 0.0
H1515 H 0.11519 0.91568 0.00976 0.0
H1516 H 0.21674 0.92312 0.72954 0.0
H1517 H 0.22652 0.89629 0.79238 0.0
H1518 H 0.20536 0.96421 0.74413 0.0
H1519 H 0.17497 0.98185 0.76021 0.0
loop_
_geom_bond_atom_site_label_1
_geom_bond_atom_site_label_2
_geom_bond_distance
_geom_bond_site_symmetry_2
_ccdc_geom_bond_type
Co0 O2 2.143 . S
Co0 O8 2.074 . S
Co0 O11 2.093 1_554 S
Co0 O24 2.097 1_554 S
Co0 N41 2.151 . S
Co0 N49 2.214 . S
Co1 O2 2.160 1_556 S
Co1 O7 2.058 1_556 S
Co1 O17 2.057 1_556 S
Co1 O32 2.037 . S
Co1 N36 2.145 . S
Co1 N57 2.257 . S
O2 Co0 2.143 . S
O2 Co1 2.160 1_554 S
C3 O4 1.278 . S
C3 O11 1.224 . S
O4 C3 1.278 . S
C5 O6 1.245 . S
C5 O17 1.232 . S
O6 C5 1.245 . S
O7 Co1 2.058 1_554 S
O7 C33 1.269 . S
O8 Co0 2.074 . S
O8 C33 1.257 . S
H9 C34 0.930 . S
H10 C40 0.930 . S
O11 Co0 2.093 1_556 S
O11 C3 1.224 . S
H12 C44 0.929 . S
H13 C46 0.930 . S
H14 C47 0.930 . S
H15 C45 0.929 . S
H16 C48 0.928 . S
O17 Co1 2.057 1_554 S
O17 C5 1.232 . S
H18 C37 0.929 . S
H19 C38 0.929 1_554 S
H20 C50 0.931 . S
H21 C42 0.929 . S
H22 C51 0.930 . S
H23 C43 0.931 . S
O24 Co0 2.097 1_556 S
O24 C52 1.214 . S
H25 C53 0.929 . S
H26 C54 0.929 . S
H27 C55 0.930 . S
H28 C56 0.929 . S
H29 C58 0.930 . S
H30 C35 0.930 . S
H31 C39 0.930 . S
O32 Co1 2.037 . S
O32 C52 1.234 . S
C33 O7 1.269 . S
C33 O8 1.257 . S
C34 H9 0.930 . S
C34 C37 1.388 . S
C34 C39 1.418 . S
C35 H30 0.930 . S
C35 C38 1.404 . S
C35 C39 1.353 . S
N36 Co1 2.145 . S
N36 C37 1.397 . S
N36 C38 1.334 . S
C37 H18 0.929 . S
C37 C34 1.388 . S
C37 N36 1.397 . S
C38 H19 0.929 1_556 S
C38 C35 1.404 . S
C38 N36 1.334 . S
C39 H31 0.930 . S
C39 C34 1.418 . S
C39 C35 1.353 . S
C40 H10 0.930 . S
C40 N41 1.330 . S
C40 C42 1.446 . S
N41 Co0 2.151 . S
N41 C40 1.330 . S
N41 C45 1.418 . S
C42 H21 0.929 . S
C42 C40 1.446 . S
C42 C43 1.332 . S
C43 H23 0.931 . S
C43 C42 1.332 . S
C43 C44 1.267 . S
C44 H12 0.929 . S
C44 C43 1.267 . S
C44 C45 1.251 . S
C45 H15 0.929 . S
C45 N41 1.418 . S
C45 C44 1.251 . S
C46 H13 0.930 . S
C46 C48 1.406 . S
C46 C51 1.261 . S
C47 H14 0.930 . S
C47 N49 1.325 1_556 S
C47 C50 1.357 . S
C48 H16 0.928 . S
C48 C46 1.406 . S
C48 N49 1.261 . S
N49 Co0 2.214 . S
N49 C47 1.325 1_554 S
N49 C48 1.261 . S
C50 H20 0.931 . S
C50 C47 1.357 . S
C50 C51 1.312 1_556 S
C51 H22 0.930 . S
C51 C46 1.261 . S
C51 C50 1.312 1_554 S
C52 O24 1.214 . S
C52 O32 1.234 . S
C53 H25 0.929 . S
C53 C56 1.391 . S
C53 C58 1.391 . S
C54 H26 0.929 . S
C54 C55 1.390 . S
C54 N57 1.391 . S
C55 H27 0.930 . S
C55 C54 1.390 . S
C55 C56 1.392 . S
C56 H28 0.929 . S
C56 C53 1.391 . S
C56 C55 1.392 . S
N57 Co1 2.257 . S
N57 C54 1.391 . S
N57 C58 1.388 . S
C58 H29 0.930 . S
C58 C53 1.391 . S
C58 N57 1.388 . S
Co59 O61 2.130 1_565 S
Co59 O67 2.074 . S
Co59 O70 2.093 . S
Co59 O83 2.097 . S
Co59 N100 2.151 . S
Co59 N108 2.214 . S
Co60 O61 2.173 . S
Co60 O66 2.058 . S
Co60 O76 2.057 . S
Co60 O91 2.037 . S
Co60 N95 2.145 . S
Co60 N116 2.257 . S
O61 Co59 2.130 1_545 S
O61 Co60 2.173 . S
C62 O63 1.278 . S
C62 O70 1.224 . S
O63 C62 1.278 . S
C64 O65 1.245 . S
C64 O76 1.232 . S
O65 C64 1.245 . S
O66 Co60 2.058 . S
O66 C92 1.269 . S
O67 Co59 2.074 . S
O67 C92 1.257 1_565 S
H68 C93 0.930 1_455 S
H69 C99 0.930 . S
O70 Co59 2.093 . S
O70 C62 1.224 . S
H71 C103 0.929 1_556 S
H72 C105 0.930 . S
H73 C106 0.930 . S
H74 C104 0.929 . S
H75 C107 0.928 . S
O76 Co60 2.057 . S
O76 C64 1.232 . S
H77 C96 0.929 . S
H78 C97 0.929 . S
H79 C109 0.951 . S
H80 C101 0.929 . S
H81 C110 0.930 1_455 S
H82 C102 0.931 1_556 S
O83 Co59 2.097 . S
O83 C111 1.214 . S
H84 C112 0.929 . S
H85 C113 0.929 . S
H86 C114 0.930 . S
H87 C115 0.929 . S
H88 C117 0.930 . S
H89 C94 0.930 . S
H90 C98 0.930 . S
O91 Co60 2.037 . S
O91 C111 1.234 1_545 S
C92 O66 1.269 . S
C92 O67 1.257 1_545 S
C93 H68 0.930 1_655 S
C93 C96 1.388 . S
C93 C98 1.418 . S
C94 H89 0.930 . S
C94 C97 1.404 . S
C94 C98 1.353 . S
N95 Co60 2.145 . S
N95 C96 1.397 . S
N95 C97 1.334 . S
C96 H77 0.929 . S
C96 C93 1.388 . S
C96 N95 1.397 . S
C97 H78 0.929 . S
C97 C94 1.404 . S
C97 N95 1.334 . S
C98 H90 0.930 . S
C98 C93 1.418 . S
C98 C94 1.353 . S
C99 H69 0.930 . S
C99 N100 1.330 . S
C99 C101 1.446 . S
N100 Co59 2.151 . S
N100 C99 1.330 . S
N100 C104 1.418 . S
C101 H80 0.929 . S
C101 C99 1.446 . S
C101 C102 1.332 . S
C102 H82 0.931 1_554 S
C102 C101 1.332 . S
C102 C103 1.267 . S
C103 H71 0.929 1_554 S
C103 C102 1.267 . S
C103 C104 1.251 . S
C104 H74 0.929 . S
C104 N100 1.418 . S
C104 C103 1.251 . S
C105 H72 0.930 . S
C105 C107 1.406 . S
C105 C110 1.261 . S
C106 H73 0.930 . S
C106 N108 1.325 . S
C106 C109 1.342 1_655 S
C107 H75 0.928 . S
C107 C105 1.406 . S
C107 N108 1.261 . S
N108 Co59 2.214 . S
N108 C106 1.325 . S
N108 C107 1.261 . S
C109 H79 0.951 . S
C109 C106 1.342 1_455 S
C109 C110 1.306 1_455 S
C110 H81 0.930 1_655 S
C110 C105 1.261 . S
C110 C109 1.306 1_655 S
C111 O83 1.214 . S
C111 O91 1.234 1_565 S
C112 H84 0.929 . S
C112 C115 1.391 . S
C112 C117 1.391 . S
C113 H85 0.929 . S
C113 C114 1.390 . S
C113 N116 1.391 . S
C114 H86 0.930 . S
C114 C113 1.390 . S
C114 C115 1.392 . S
C115 H87 0.929 . S
C115 C112 1.391 . S
C115 C114 1.392 . S
N116 Co60 2.257 . S
N116 C113 1.391 . S
N116 C117 1.388 . S
C117 H88 0.930 . S
C117 C112 1.391 . S
C117 N116 1.388 . S
Co118 O120 2.143 . S
Co118 O126 2.074 . S
Co118 O129 2.093 . S
Co118 O142 2.097 . S
Co118 N159 2.151 . S
Co118 N167 2.214 . S
Co119 O120 2.160 . S
Co119 O125 2.058 . S
Co119 O135 2.057 . S
Co119 O150 2.037 . S
Co119 N154 2.145 . S
Co119 N175 2.257 . S
O120 Co118 2.143 . S
O120 Co119 2.160 . S
C121 O122 1.278 . S
C121 O129 1.224 . S
O122 C121 1.278 . S
C123 O124 1.245 . S
C123 O135 1.232 . S
O124 C123 1.245 . S
O125 Co119 2.058 . S
O125 C151 1.269 . S
O126 Co118 2.074 . S
O126 C151 1.257 . S
H127 C152 0.930 . S
H128 C158 0.930 . S
O129 Co118 2.093 . S
O129 C121 1.224 . S
H130 C162 0.929 . S
H131 C164 0.930 . S
H132 C165 0.930 . S
H133 C163 0.929 . S
H134 C166 0.928 . S
O135 Co119 2.057 . S
O135 C123 1.232 . S
H136 C155 0.929 . S
H137 C156 0.929 . S
H138 C168 0.931 . S
H139 C160 0.929 . S
H140 C169 0.930 . S
H141 C161 0.931 . S
O142 Co118 2.097 . S
O142 C170 1.214 . S
H143 C171 0.929 . S
H144 C172 0.929 . S
H145 C173 0.930 . S
H146 C174 0.929 . S
H147 C176 0.930 . S
H148 C153 0.930 . S
H149 C157 0.930 . S
O150 Co119 2.037 . S
O150 C170 1.234 . S
C151 O125 1.269 . S
C151 O126 1.257 . S
C152 H127 0.930 . S
C152 C155 1.388 . S
C152 C157 1.418 . S
C153 H148 0.930 . S
C153 C156 1.404 . S
C153 C157 1.353 . S
N154 Co119 2.145 . S
N154 C155 1.397 . S
N154 C156 1.334 . S
C155 H136 0.929 . S
C155 C152 1.388 . S
C155 N154 1.397 . S
C156 H137 0.929 . S
C156 C153 1.404 . S
C156 N154 1.334 . S
C157 H149 0.930 . S
C157 C152 1.418 . S
C157 C153 1.353 . S
C158 H128 0.930 . S
C158 N159 1.330 . S
C158 C160 1.446 . S
N159 Co118 2.151 . S
N159 C158 1.330 . S
N159 C163 1.418 . S
C160 H139 0.929 . S
C160 C158 1.446 . S
C160 C161 1.332 . S
C161 H141 0.931 . S
C161 C160 1.332 . S
C161 C162 1.267 . S
C162 H130 0.929 . S
C162 C161 1.267 . S
C162 C163 1.251 . S
C163 H133 0.929 . S
C163 N159 1.418 . S
C163 C162 1.251 . S
C164 H131 0.930 . S
C164 C166 1.406 . S
C164 C169 1.261 . S
C165 H132 0.930 . S
C165 N167 1.325 . S
C165 C168 1.357 . S
C166 H134 0.928 . S
C166 C164 1.406 . S
C166 N167 1.261 . S
N167 Co118 2.214 . S
N167 C165 1.325 . S
N167 C166 1.261 . S
C168 H138 0.931 . S
C168 C165 1.357 . S
C168 C169 1.312 . S
C169 H140 0.930 . S
C169 C164 1.261 . S
C169 C168 1.312 . S
C170 O142 1.214 . S
C170 O150 1.234 . S
C171 H143 0.929 . S
C171 C174 1.391 . S
C171 C176 1.391 . S
C172 H144 0.929 . S
C172 C173 1.390 . S
C172 N175 1.391 . S
C173 H145 0.930 . S
C173 C172 1.390 . S
C173 C174 1.392 . S
C174 H146 0.929 . S
C174 C171 1.391 . S
C174 C173 1.392 . S
N175 Co119 2.257 . S
N175 C172 1.391 . S
N175 C176 1.388 . S
C176 H147 0.930 . S
C176 C171 1.391 . S
C176 N175 1.388 . S
Co177 O179 2.143 . S
Co177 O185 2.074 . S
Co177 O188 2.093 . S
Co177 O201 2.097 . S
Co177 N218 2.151 . S
Co177 N226 2.214 . S
Co178 O179 2.160 1_565 S
Co178 O184 2.058 . S
Co178 O194 2.057 . S
Co178 O209 2.037 . S
Co178 N213 2.145 . S
Co178 N234 2.257 . S
O179 Co177 2.143 . S
O179 Co178 2.160 1_545 S
C180 O181 1.278 . S
C180 O188 1.224 . S
O181 C180 1.278 . S
C182 O183 1.245 . S
C182 O194 1.232 . S
O183 C182 1.245 . S
O184 Co178 2.058 . S
O184 C210 1.269 . S
O185 Co177 2.074 . S
O185 C210 1.257 1_545 S
H186 C211 0.930 . S
H187 C217 0.930 . S
O188 Co177 2.093 . S
O188 C180 1.224 . S
H189 C221 0.929 . S
H190 C223 0.930 . S
H191 C224 0.930 . S
H192 C222 0.929 . S
H193 C225 0.928 . S
O194 Co178 2.057 . S
O194 C182 1.232 . S
H195 C214 0.929 . S
H196 C215 0.929 . S
H197 C227 0.931 . S
H198 C219 0.929 . S
H199 C228 0.930 . S
H200 C220 0.931 . S
O201 Co177 2.097 . S
O201 C229 1.214 . S
H202 C230 0.929 . S
H203 C231 0.929 . S
H204 C232 0.930 . S
H205 C233 0.929 . S
H206 C235 0.930 . S
H207 C212 0.930 . S
H208 C216 0.930 . S
O209 Co178 2.037 . S
O209 C229 1.234 1_565 S
C210 O184 1.269 . S
C210 O185 1.257 1_565 S
C211 H186 0.930 . S
C211 C214 1.388 . S
C211 C216 1.418 . S
C212 H207 0.930 . S
C212 C215 1.404 . S
C212 C216 1.353 . S
N213 Co178 2.145 . S
N213 C214 1.397 . S
N213 C215 1.334 . S
C214 H195 0.929 . S
C214 C211 1.388 . S
C214 N213 1.397 . S
C215 H196 0.929 . S
C215 C212 1.404 . S
C215 N213 1.334 . S
C216 H208 0.930 . S
C216 C211 1.418 . S
C216 C212 1.353 . S
C217 H187 0.930 . S
C217 N218 1.330 . S
C217 C219 1.446 . S
N218 Co177 2.151 . S
N218 C217 1.330 . S
N218 C222 1.418 . S
C219 H198 0.929 . S
C219 C217 1.446 . S
C219 C220 1.332 . S
C220 H200 0.931 . S
C220 C219 1.332 . S
C220 C221 1.267 . S
C221 H189 0.929 . S
C221 C220 1.267 . S
C221 C222 1.251 . S
C222 H192 0.929 . S
C222 N218 1.418 . S
C222 C221 1.251 . S
C223 H190 0.930 . S
C223 C225 1.406 . S
C223 C228 1.261 . S
C224 H191 0.930 . S
C224 N226 1.325 . S
C224 C227 1.357 . S
C225 H193 0.928 . S
C225 C223 1.406 . S
C225 N226 1.261 . S
N226 Co177 2.214 . S
N226 C224 1.325 . S
N226 C225 1.261 . S
C227 H197 0.931 . S
C227 C224 1.357 . S
C227 C228 1.312 . S
C228 H199 0.930 . S
C228 C223 1.261 . S
C228 C227 1.312 . S
C229 O201 1.214 . S
C229 O209 1.234 1_545 S
C230 H202 0.929 . S
C230 C233 1.391 1_556 S
C230 C235 1.391 . S
C231 H203 0.929 . S
C231 C232 1.390 1_556 S
C231 N234 1.391 . S
C232 H204 0.930 . S
C232 C231 1.390 1_554 S
C232 C233 1.392 . S
C233 H205 0.929 . S
C233 C230 1.391 1_554 S
C233 C232 1.392 . S
N234 Co178 2.257 . S
N234 C231 1.391 . S
N234 C235 1.388 . S
C235 H206 0.930 . S
C235 C230 1.391 . S
C235 N234 1.388 . S
Co236 O238 2.143 . S
Co236 O244 2.074 . S
Co236 O247 2.093 1_556 S
Co236 O260 2.097 1_556 S
Co236 N277 2.151 . S
Co236 N285 2.214 . S
Co237 O238 2.160 1_554 S
Co237 O243 2.058 1_554 S
Co237 O253 2.057 1_554 S
Co237 O268 2.037 . S
Co237 N272 2.145 . S
Co237 N293 2.257 . S
O238 Co236 2.143 . S
O238 Co237 2.160 1_556 S
C239 O240 1.278 . S
C239 O247 1.224 . S
O240 C239 1.278 . S
C241 O242 1.245 . S
C241 O253 1.232 . S
O242 C241 1.245 . S
O243 Co237 2.058 1_556 S
O243 C269 1.269 . S
O244 Co236 2.074 . S
O244 C269 1.257 . S
H245 C270 0.930 . S
H246 C276 0.930 . S
O247 Co236 2.093 1_554 S
O247 C239 1.224 . S
H248 C280 0.929 . S
H249 C282 0.930 . S
H250 C283 0.930 . S
H251 C281 0.929 . S
H252 C284 0.928 . S
O253 Co237 2.057 1_556 S
O253 C241 1.232 . S
H254 C273 0.929 . S
H255 C274 0.927 1_556 S
H256 C286 0.931 . S
H257 C278 0.929 . S
H258 C287 0.930 . S
H259 C279 0.931 . S
O260 Co236 2.097 1_554 S
O260 C288 1.214 . S
H261 C289 0.929 . S
H262 C290 0.929 . S
H263 C291 0.930 . S
H264 C292 0.929 . S
H265 C294 0.930 . S
H266 C271 0.930 . S
H267 C275 0.930 . S
O268 Co237 2.037 . S
O268 C288 1.234 . S
C269 O243 1.269 . S
C269 O244 1.257 . S
C270 H245 0.930 . S
C270 C273 1.388 . S
C270 C275 1.418 . S
C271 H266 0.930 . S
C271 C274 1.404 . S
C271 C275 1.353 . S
N272 Co237 2.145 . S
N272 C273 1.397 . S
N272 C274 1.334 . S
C273 H254 0.929 . S
C273 C270 1.388 . S
C273 N272 1.397 . S
C274 H255 0.927 1_554 S
C274 C271 1.404 . S
C274 N272 1.334 . S
C275 H267 0.930 . S
C275 C270 1.418 . S
C275 C271 1.353 . S
C276 H246 0.930 . S
C276 N277 1.330 . S
C276 C278 1.446 . S
N277 Co236 2.151 . S
N277 C276 1.330 . S
N277 C281 1.418 . S
C278 H257 0.929 . S
C278 C276 1.446 . S
C278 C279 1.332 . S
C279 H259 0.931 . S
C279 C278 1.332 . S
C279 C280 1.267 . S
C280 H248 0.929 . S
C280 C279 1.267 . S
C280 C281 1.251 . S
C281 H251 0.929 . S
C281 N277 1.418 . S
C281 C280 1.251 . S
C282 H249 0.930 . S
C282 C284 1.406 . S
C282 C287 1.261 . S
C283 H250 0.930 . S
C283 N285 1.325 1_554 S
C283 C286 1.357 . S
C284 H252 0.928 . S
C284 C282 1.406 . S
C284 N285 1.261 . S
N285 Co236 2.214 . S
N285 C283 1.325 1_556 S
N285 C284 1.261 . S
C286 H256 0.931 . S
C286 C283 1.357 . S
C286 C287 1.312 1_554 S
C287 H258 0.930 . S
C287 C282 1.261 . S
C287 C286 1.312 1_556 S
C288 O260 1.214 . S
C288 O268 1.234 . S
C289 H261 0.929 . S
C289 C292 1.391 . S
C289 C294 1.391 . S
C290 H262 0.929 . S
C290 C291 1.390 . S
C290 N293 1.391 . S
C291 H263 0.930 . S
C291 C290 1.390 . S
C291 C292 1.392 . S
C292 H264 0.929 . S
C292 C289 1.391 . S
C292 C291 1.392 . S
N293 Co237 2.257 . S
N293 C290 1.391 . S
N293 C294 1.388 . S
C294 H265 0.930 . S
C294 C289 1.391 . S
C294 N293 1.388 . S
Co295 O297 2.143 . S
Co295 O303 2.074 . S
Co295 O306 2.093 . S
Co295 O319 2.097 . S
Co295 N336 2.151 . S
Co295 N344 2.214 . S
Co296 O297 2.160 1_565 S
Co296 O302 2.058 . S
Co296 O312 2.057 . S
Co296 O327 2.037 . S
Co296 N331 2.145 . S
Co296 N352 2.257 . S
O297 Co295 2.143 . S
O297 Co296 2.160 1_545 S
C298 O299 1.278 . S
C298 O306 1.224 . S
O299 C298 1.278 . S
C300 O301 1.245 . S
C300 O312 1.232 . S
O301 C300 1.245 . S
O302 Co296 2.058 . S
O302 C328 1.269 . S
O303 Co295 2.074 . S
O303 C328 1.257 1_545 S
H304 C329 0.930 1_655 S
H305 C335 0.930 . S
O306 Co295 2.093 . S
O306 C298 1.224 . S
H307 C339 0.929 1_554 S
H308 C341 0.930 . S
H309 C342 0.930 . S
H310 C340 0.929 . S
H311 C343 0.928 . S
O312 Co296 2.057 . S
O312 C300 1.232 . S
H313 C332 0.929 . S
H314 C333 0.929 . S
H315 C345 0.951 . S
H316 C337 0.929 . S
H317 C346 0.930 1_655 S
H318 C338 0.931 1_554 S
O319 Co295 2.097 . S
O319 C347 1.214 . S
H320 C348 0.929 . S
H321 C349 0.929 . S
H322 C350 0.930 . S
H323 C351 0.929 . S
H324 C353 0.930 . S
H325 C330 0.930 . S
H326 C334 0.930 . S
O327 Co296 2.037 . S
O327 C347 1.234 1_565 S
C328 O302 1.269 . S
C328 O303 1.257 1_565 S
C329 H304 0.930 1_455 S
C329 C332 1.388 . S
C329 C334 1.418 . S
C330 H325 0.930 . S
C330 C333 1.404 . S
C330 C334 1.353 . S
N331 Co296 2.145 . S
N331 C332 1.397 . S
N331 C333 1.334 . S
C332 H313 0.929 . S
C332 C329 1.388 . S
C332 N331 1.397 . S
C333 H314 0.929 . S
C333 C330 1.404 . S
C333 N331 1.334 . S
C334 H326 0.930 . S
C334 C329 1.418 . S
C334 C330 1.353 . S
C335 H305 0.930 . S
C335 N336 1.330 . S
C335 C337 1.446 . S
N336 Co295 2.151 . S
N336 C335 1.330 . S
N336 C340 1.418 . S
C337 H316 0.929 . S
C337 C335 1.446 . S
C337 C338 1.332 . S
C338 H318 0.931 1_556 S
C338 C337 1.332 . S
C338 C339 1.267 . S
C339 H307 0.929 1_556 S
C339 C338 1.267 . S
C339 C340 1.251 . S
C340 H310 0.929 . S
C340 N336 1.418 . S
C340 C339 1.251 . S
C341 H308 0.930 . S
C341 C343 1.406 . S
C341 C346 1.261 . S
C342 H309 0.930 . S
C342 N344 1.325 . S
C342 C345 1.342 1_455 S
C343 H311 0.928 . S
C343 C341 1.406 . S
C343 N344 1.261 . S
N344 Co295 2.214 . S
N344 C342 1.325 . S
N344 C343 1.261 . S
C345 H315 0.951 . S
C345 C342 1.342 1_655 S
C345 C346 1.306 1_655 S
C346 H317 0.930 1_455 S
C346 C341 1.261 . S
C346 C345 1.306 1_455 S
C347 O319 1.214 . S
C347 O327 1.234 1_545 S
C348 H320 0.929 . S
C348 C351 1.391 . S
C348 C353 1.391 . S
C349 H321 0.929 . S
C349 C350 1.390 . S
C349 N352 1.391 . S
C350 H322 0.930 . S
C350 C349 1.390 . S
C350 C351 1.392 . S
C351 H323 0.929 . S
C351 C348 1.391 . S
C351 C350 1.392 . S
N352 Co296 2.257 . S
N352 C349 1.391 . S
N352 C353 1.388 . S
C353 H324 0.930 . S
C353 C348 1.391 . S
C353 N352 1.388 . S
Co354 O356 2.143 . S
Co354 O362 2.074 . S
Co354 O365 2.093 . S
Co354 O378 2.097 . S
Co354 N395 2.151 . S
Co354 N403 2.214 . S
Co355 O356 2.160 . S
Co355 O361 2.058 . S
Co355 O371 2.057 . S
Co355 O386 2.037 . S
Co355 N390 2.145 . S
Co355 N411 2.257 . S
O356 Co354 2.143 . S
O356 Co355 2.160 . S
C357 O358 1.278 . S
C357 O365 1.224 . S
O358 C357 1.278 . S
C359 O360 1.245 . S
C359 O371 1.232 . S
O360 C359 1.245 . S
O361 Co355 2.058 . S
O361 C387 1.269 . S
O362 Co354 2.074 . S
O362 C387 1.257 . S
H363 C388 0.930 . S
H364 C394 0.930 . S
O365 Co354 2.093 . S
O365 C357 1.224 . S
H366 C398 0.929 . S
H367 C400 0.930 . S
H368 C401 0.930 . S
H369 C399 0.929 . S
H370 C402 0.928 . S
O371 Co355 2.057 . S
O371 C359 1.232 . S
H372 C391 0.929 . S
H373 C392 0.929 . S
H374 C404 0.931 . S
H375 C396 0.929 . S
H376 C405 0.930 . S
H377 C397 0.931 . S
O378 Co354 2.097 . S
O378 C406 1.214 . S
H379 C407 0.929 . S
H380 C408 0.929 . S
H381 C409 0.930 . S
H382 C410 0.929 . S
H383 C412 0.930 . S
H384 C389 0.930 . S
H385 C393 0.930 . S
O386 Co355 2.037 . S
O386 C406 1.234 . S
C387 O361 1.269 . S
C387 O362 1.257 . S
C388 H363 0.930 . S
C388 C391 1.388 . S
C388 C393 1.418 . S
C389 H384 0.930 . S
C389 C392 1.404 . S
C389 C393 1.353 . S
N390 Co355 2.145 . S
N390 C391 1.397 . S
N390 C392 1.334 . S
C391 H372 0.929 . S
C391 C388 1.388 . S
C391 N390 1.397 . S
C392 H373 0.929 . S
C392 C389 1.404 . S
C392 N390 1.334 . S
C393 H385 0.930 . S
C393 C388 1.418 . S
C393 C389 1.353 . S
C394 H364 0.930 . S
C394 N395 1.330 . S
C394 C396 1.446 . S
N395 Co354 2.151 . S
N395 C394 1.330 . S
N395 C399 1.418 . S
C396 H375 0.929 . S
C396 C394 1.446 . S
C396 C397 1.332 . S
C397 H377 0.931 . S
C397 C396 1.332 . S
C397 C398 1.267 . S
C398 H366 0.929 . S
C398 C397 1.267 . S
C398 C399 1.251 . S
C399 H369 0.929 . S
C399 N395 1.418 . S
C399 C398 1.251 . S
C400 H367 0.930 . S
C400 C402 1.406 . S
C400 C405 1.261 . S
C401 H368 0.930 . S
C401 N403 1.325 . S
C401 C404 1.357 . S
C402 H370 0.928 . S
C402 C400 1.406 . S
C402 N403 1.261 . S
N403 Co354 2.214 . S
N403 C401 1.325 . S
N403 C402 1.261 . S
C404 H374 0.931 . S
C404 C401 1.357 . S
C404 C405 1.312 . S
C405 H376 0.930 . S
C405 C400 1.261 . S
C405 C404 1.312 . S
C406 O378 1.214 . S
C406 O386 1.234 . S
C407 H379 0.929 . S
C407 C410 1.391 . S
C407 C412 1.391 . S
C408 H380 0.929 . S
C408 C409 1.390 . S
C408 N411 1.391 . S
C409 H381 0.930 . S
C409 C408 1.390 . S
C409 C410 1.392 . S
C410 H382 0.929 . S
C410 C407 1.391 . S
C410 C409 1.392 . S
N411 Co355 2.257 . S
N411 C408 1.391 . S
N411 C412 1.388 . S
C412 H383 0.930 . S
C412 C407 1.391 . S
C412 N411 1.388 . S
Co413 O415 2.130 1_565 S
Co413 O421 2.074 . S
Co413 O424 2.093 . S
Co413 O437 2.097 . S
Co413 N454 2.151 . S
Co413 N462 2.214 . S
Co414 O415 2.173 . S
Co414 O420 2.058 . S
Co414 O430 2.057 . S
Co414 O445 2.037 . S
Co414 N449 2.145 . S
Co414 N470 2.257 . S
O415 Co413 2.130 1_545 S
O415 Co414 2.173 . S
C416 O417 1.278 . S
C416 O424 1.224 . S
O417 C416 1.278 . S
C418 O419 1.245 . S
C418 O430 1.232 . S
O419 C418 1.245 . S
O420 Co414 2.058 . S
O420 C446 1.269 . S
O421 Co413 2.074 . S
O421 C446 1.257 1_565 S
H422 C447 0.930 . S
H423 C453 0.930 . S
O424 Co413 2.093 . S
O424 C416 1.224 . S
H425 C457 0.929 . S
H426 C459 0.930 . S
H427 C460 0.930 . S
H428 C458 0.929 . S
H429 C461 0.928 . S
O430 Co414 2.057 . S
O430 C418 1.232 . S
H431 C450 0.929 . S
H432 C451 0.929 . S
H433 C463 0.931 . S
H434 C455 0.929 . S
H435 C464 0.930 . S
H436 C456 0.931 . S
O437 Co413 2.097 . S
O437 C465 1.214 . S
H438 C466 0.929 . S
H439 C467 0.929 . S
H440 C468 0.930 . S
H441 C469 0.929 . S
H442 C471 0.930 . S
H443 C448 0.930 . S
H444 C452 0.930 . S
O445 Co414 2.037 . S
O445 C465 1.234 1_545 S
C446 O420 1.269 . S
C446 O421 1.257 1_545 S
C447 H422 0.930 . S
C447 C450 1.388 . S
C447 C452 1.418 . S
C448 H443 0.930 . S
C448 C451 1.404 . S
C448 C452 1.353 . S
N449 Co414 2.145 . S
N449 C450 1.397 . S
N449 C451 1.334 . S
C450 H431 0.929 . S
C450 C447 1.388 . S
C450 N449 1.397 . S
C451 H432 0.929 . S
C451 C448 1.404 . S
C451 N449 1.334 . S
C452 H444 0.930 . S
C452 C447 1.418 . S
C452 C448 1.353 . S
C453 H423 0.930 . S
C453 N454 1.330 . S
C453 C455 1.446 . S
N454 Co413 2.151 . S
N454 C453 1.330 . S
N454 C458 1.418 . S
C455 H434 0.929 . S
C455 C453 1.446 . S
C455 C456 1.332 . S
C456 H436 0.931 . S
C456 C455 1.332 . S
C456 C457 1.267 . S
C457 H425 0.929 . S
C457 C456 1.267 . S
C457 C458 1.251 . S
C458 H428 0.929 . S
C458 N454 1.418 . S
C458 C457 1.251 . S
C459 H426 0.930 . S
C459 C461 1.406 . S
C459 C464 1.261 . S
C460 H427 0.930 . S
C460 N462 1.325 . S
C460 C463 1.357 . S
C461 H429 0.928 . S
C461 C459 1.406 . S
C461 N462 1.261 . S
N462 Co413 2.214 . S
N462 C460 1.325 . S
N462 C461 1.261 . S
C463 H433 0.931 . S
C463 C460 1.357 . S
C463 C464 1.312 . S
C464 H435 0.930 . S
C464 C459 1.261 . S
C464 C463 1.312 . S
C465 O437 1.214 . S
C465 O445 1.234 1_565 S
C466 H438 0.929 . S
C466 C469 1.391 1_554 S
C466 C471 1.391 . S
C467 H439 0.929 . S
C467 C468 1.390 1_554 S
C467 N470 1.391 . S
C468 H440 0.930 . S
C468 C467 1.390 1_556 S
C468 C469 1.392 . S
C469 H441 0.929 . S
C469 C466 1.391 1_556 S
C469 C468 1.392 . S
N470 Co414 2.257 . S
N470 C467 1.391 . S
N470 C471 1.388 . S
C471 H442 0.930 . S
C471 C466 1.391 . S
C471 N470 1.388 . S
Co472 O474 2.143 . S
Co472 O480 2.074 . S
Co472 O483 2.093 . S
Co472 O496 2.097 . S
Co472 N513 2.151 . S
Co472 N521 2.214 . S
Co473 O474 2.160 . S
Co473 O479 2.058 . S
Co473 O489 2.057 . S
Co473 O504 2.037 . S
Co473 N508 2.145 . S
Co473 N529 2.257 . S
O474 Co472 2.143 . S
O474 Co473 2.160 . S
C475 O476 1.278 . S
C475 O483 1.224 . S
O476 C475 1.278 . S
C477 O478 1.245 . S
C477 O489 1.232 . S
O478 C477 1.245 . S
O479 Co473 2.058 . S
O479 C505 1.269 . S
O480 Co472 2.074 . S
O480 C505 1.257 . S
H481 C506 0.930 . S
H482 C512 0.930 . S
O483 Co472 2.093 . S
O483 C475 1.224 . S
H484 C516 0.929 . S
H485 C518 0.930 . S
H486 C519 0.930 . S
H487 C517 0.929 . S
H488 C520 0.928 . S
O489 Co473 2.057 . S
O489 C477 1.232 . S
H490 C509 0.929 . S
H491 C510 0.929 . S
H492 C522 0.931 . S
H493 C514 0.929 . S
H494 C523 0.930 . S
H495 C515 0.931 . S
O496 Co472 2.097 . S
O496 C524 1.214 . S
H497 C525 0.929 . S
H498 C526 0.929 . S
H499 C527 0.930 . S
H500 C528 0.929 . S
H501 C530 0.930 . S
H502 C507 0.930 . S
H503 C511 0.930 . S
O504 Co473 2.037 . S
O504 C524 1.234 . S
C505 O479 1.269 . S
C505 O480 1.257 . S
C506 H481 0.930 . S
C506 C509 1.388 . S
C506 C511 1.418 . S
C507 H502 0.930 . S
C507 C510 1.404 . S
C507 C511 1.353 . S
N508 Co473 2.145 . S
N508 C509 1.397 . S
N508 C510 1.334 . S
C509 H490 0.929 . S
C509 C506 1.388 . S
C509 N508 1.397 . S
C510 H491 0.929 . S
C510 C507 1.404 . S
C510 N508 1.334 . S
C511 H503 0.930 . S
C511 C506 1.418 . S
C511 C507 1.353 . S
C512 H482 0.930 . S
C512 N513 1.330 . S
C512 C514 1.446 . S
N513 Co472 2.151 . S
N513 C512 1.330 . S
N513 C517 1.418 . S
C514 H493 0.929 . S
C514 C512 1.446 . S
C514 C515 1.332 . S
C515 H495 0.931 . S
C515 C514 1.332 . S
C515 C516 1.267 . S
C516 H484 0.929 . S
C516 C515 1.267 . S
C516 C517 1.251 . S
C517 H487 0.929 . S
C517 N513 1.418 . S
C517 C516 1.251 . S
C518 H485 0.930 . S
C518 C520 1.406 . S
C518 C523 1.261 . S
C519 H486 0.930 . S
C519 N521 1.325 . S
C519 C522 1.357 . S
C520 H488 0.928 . S
C520 C518 1.406 . S
C520 N521 1.261 . S
N521 Co472 2.214 . S
N521 C519 1.325 . S
N521 C520 1.261 . S
C522 H492 0.931 . S
C522 C519 1.357 . S
C522 C523 1.312 . S
C523 H494 0.930 . S
C523 C518 1.261 . S
C523 C522 1.312 . S
C524 O496 1.214 . S
C524 O504 1.234 . S
C525 H497 0.929 . S
C525 C528 1.391 . S
C525 C530 1.391 . S
C526 H498 0.929 . S
C526 C527 1.390 . S
C526 N529 1.391 . S
C527 H499 0.930 . S
C527 C526 1.390 . S
C527 C528 1.392 . S
C528 H500 0.929 . S
C528 C525 1.391 . S
C528 C527 1.392 . S
N529 Co473 2.257 . S
N529 C526 1.391 . S
N529 C530 1.388 . S
C530 H501 0.930 . S
C530 C525 1.391 . S
C530 N529 1.388 . S
Co531 O533 2.143 . S
Co531 O539 2.074 . S
Co531 O542 2.093 . S
Co531 O555 2.097 . S
Co531 N572 2.151 . S
Co531 N580 2.214 . S
Co532 O533 2.160 . S
Co532 O538 2.058 . S
Co532 O548 2.057 . S
Co532 O563 2.037 . S
Co532 N567 2.145 . S
Co532 N588 2.257 . S
O533 Co531 2.143 . S
O533 Co532 2.160 . S
C534 O535 1.278 . S
C534 O542 1.224 . S
O535 C534 1.278 . S
C536 O537 1.245 . S
C536 O548 1.232 . S
O537 C536 1.245 . S
O538 Co532 2.058 . S
O538 C564 1.269 . S
O539 Co531 2.074 . S
O539 C564 1.257 . S
H540 C565 0.930 . S
H541 C571 0.930 . S
O542 Co531 2.093 . S
O542 C534 1.224 . S
H543 C575 0.929 . S
H544 C577 0.930 . S
H545 C578 0.930 . S
H546 C576 0.929 . S
H547 C579 0.928 . S
O548 Co532 2.057 . S
O548 C536 1.232 . S
H549 C568 0.929 . S
H550 C569 0.929 . S
H551 C581 0.931 . S
H552 C573 0.929 . S
H553 C582 0.930 . S
H554 C574 0.931 . S
O555 Co531 2.097 . S
O555 C583 1.214 . S
H556 C584 0.929 . S
H557 C585 0.929 . S
H558 C586 0.930 . S
H559 C587 0.929 . S
H560 C589 0.930 . S
H561 C566 0.930 . S
H562 C570 0.930 . S
O563 Co532 2.037 . S
O563 C583 1.234 . S
C564 O538 1.269 . S
C564 O539 1.257 . S
C565 H540 0.930 . S
C565 C568 1.388 . S
C565 C570 1.418 . S
C566 H561 0.930 . S
C566 C569 1.404 . S
C566 C570 1.353 . S
N567 Co532 2.145 . S
N567 C568 1.397 . S
N567 C569 1.334 . S
C568 H549 0.929 . S
C568 C565 1.388 . S
C568 N567 1.397 . S
C569 H550 0.929 . S
C569 C566 1.404 . S
C569 N567 1.334 . S
C570 H562 0.930 . S
C570 C565 1.418 . S
C570 C566 1.353 . S
C571 H541 0.930 . S
C571 N572 1.330 . S
C571 C573 1.446 . S
N572 Co531 2.151 . S
N572 C571 1.330 . S
N572 C576 1.418 . S
C573 H552 0.929 . S
C573 C571 1.446 . S
C573 C574 1.332 . S
C574 H554 0.931 . S
C574 C573 1.332 . S
C574 C575 1.267 . S
C575 H543 0.929 . S
C575 C574 1.267 . S
C575 C576 1.251 . S
C576 H546 0.929 . S
C576 N572 1.418 . S
C576 C575 1.251 . S
C577 H544 0.930 . S
C577 C579 1.406 . S
C577 C582 1.261 . S
C578 H545 0.930 . S
C578 N580 1.325 . S
C578 C581 1.357 . S
C579 H547 0.928 . S
C579 C577 1.406 . S
C579 N580 1.261 . S
N580 Co531 2.214 . S
N580 C578 1.325 . S
N580 C579 1.261 . S
C581 H551 0.931 . S
C581 C578 1.357 . S
C581 C582 1.312 . S
C582 H553 0.930 . S
C582 C577 1.261 . S
C582 C581 1.312 . S
C583 O555 1.214 . S
C583 O563 1.234 . S
C584 H556 0.929 . S
C584 C587 1.391 1_556 S
C584 C589 1.391 . S
C585 H557 0.929 . S
C585 C586 1.390 1_556 S
C585 N588 1.391 . S
C586 H558 0.930 . S
C586 C585 1.390 1_554 S
C586 C587 1.392 . S
C587 H559 0.929 . S
C587 C584 1.391 1_554 S
C587 C586 1.392 . S
N588 Co532 2.257 . S
N588 C585 1.391 . S
N588 C589 1.388 . S
C589 H560 0.930 . S
C589 C584 1.391 . S
C589 N588 1.388 . S
Co590 O592 2.143 . S
Co590 O598 2.074 . S
Co590 O601 2.093 1_554 S
Co590 O614 2.097 1_554 S
Co590 N631 2.151 . S
Co590 N639 2.214 . S
Co591 O592 2.160 1_556 S
Co591 O597 2.058 1_556 S
Co591 O607 2.057 1_556 S
Co591 O622 2.037 . S
Co591 N626 2.145 . S
Co591 N647 2.257 . S
O592 Co590 2.143 . S
O592 Co591 2.160 1_554 S
C593 O594 1.278 . S
C593 O601 1.224 . S
O594 C593 1.278 . S
C595 O596 1.245 . S
C595 O607 1.232 . S
O596 C595 1.245 . S
O597 Co591 2.058 1_554 S
O597 C623 1.269 . S
O598 Co590 2.074 . S
O598 C623 1.257 . S
H599 C624 0.930 . S
H600 C630 0.930 . S
O601 Co590 2.093 1_556 S
O601 C593 1.224 . S
H602 C634 0.929 . S
H603 C636 0.930 . S
H604 C637 0.930 . S
H605 C635 0.929 . S
H606 C638 0.928 . S
O607 Co591 2.057 1_554 S
O607 C595 1.232 . S
H608 C627 0.929 . S
H609 C628 0.929 1_554 S
H610 C640 0.931 . S
H611 C632 0.929 . S
H612 C641 0.930 . S
H613 C633 0.931 . S
O614 Co590 2.097 1_556 S
O614 C642 1.214 . S
H615 C643 0.929 . S
H616 C644 0.929 . S
H617 C645 0.930 . S
H618 C646 0.929 . S
H619 C648 0.930 . S
H620 C625 0.930 . S
H621 C629 0.930 . S
O622 Co591 2.037 . S
O622 C642 1.234 . S
C623 O597 1.269 . S
C623 O598 1.257 . S
C624 H599 0.930 . S
C624 C627 1.388 . S
C624 C629 1.418 . S
C625 H620 0.930 . S
C625 C628 1.404 . S
C625 C629 1.353 . S
N626 Co591 2.145 . S
N626 C627 1.397 . S
N626 C628 1.334 . S
C627 H608 0.929 . S
C627 C624 1.388 . S
C627 N626 1.397 . S
C628 H609 0.929 1_556 S
C628 C625 1.404 . S
C628 N626 1.334 . S
C629 H621 0.930 . S
C629 C624 1.418 . S
C629 C625 1.353 . S
C630 H600 0.930 . S
C630 N631 1.330 . S
C630 C632 1.446 . S
N631 Co590 2.151 . S
N631 C630 1.330 . S
N631 C635 1.418 . S
C632 H611 0.929 . S
C632 C630 1.446 . S
C632 C633 1.332 . S
C633 H613 0.931 . S
C633 C632 1.332 . S
C633 C634 1.267 . S
C634 H602 0.929 . S
C634 C633 1.267 . S
C634 C635 1.251 . S
C635 H605 0.929 . S
C635 N631 1.418 . S
C635 C634 1.251 . S
C636 H603 0.930 . S
C636 C638 1.406 . S
C636 C641 1.261 . S
C637 H604 0.930 . S
C637 N639 1.325 1_556 S
C637 C640 1.357 . S
C638 H606 0.928 . S
C638 C636 1.406 . S
C638 N639 1.261 . S
N639 Co590 2.214 . S
N639 C637 1.325 1_554 S
N639 C638 1.261 . S
C640 H610 0.931 . S
C640 C637 1.357 . S
C640 C641 1.312 1_556 S
C641 H612 0.930 . S
C641 C636 1.261 . S
C641 C640 1.312 1_554 S
C642 O614 1.214 . S
C642 O622 1.234 . S
C643 H615 0.929 . S
C643 C646 1.391 . S
C643 C648 1.391 . S
C644 H616 0.929 . S
C644 C645 1.390 . S
C644 N647 1.391 . S
C645 H617 0.930 . S
C645 C644 1.390 . S
C645 C646 1.392 . S
C646 H618 0.929 . S
C646 C643 1.391 . S
C646 C645 1.392 . S
N647 Co591 2.257 . S
N647 C644 1.391 . S
N647 C648 1.388 . S
C648 H619 0.930 . S
C648 C643 1.391 . S
C648 N647 1.388 . S
Co649 O651 2.143 . S
Co649 O657 2.074 . S
Co649 O660 2.093 . S
Co649 O673 2.097 . S
Co649 N690 2.151 . S
Co649 N698 2.214 . S
Co650 O651 2.160 . S
Co650 O656 2.058 . S
Co650 O666 2.057 . S
Co650 O681 2.037 . S
Co650 N685 2.145 . S
Co650 N706 2.257 . S
O651 Co649 2.143 . S
O651 Co650 2.160 . S
C652 O653 1.278 . S
C652 O660 1.224 . S
O653 C652 1.278 . S
C654 O655 1.245 . S
C654 O666 1.232 . S
O655 C654 1.245 . S
O656 Co650 2.058 . S
O656 C682 1.269 . S
O657 Co649 2.074 . S
O657 C682 1.257 . S
H658 C683 0.930 1_655 S
H659 C689 0.930 . S
O660 Co649 2.093 . S
O660 C652 1.224 . S
H661 C693 0.929 1_556 S
H662 C695 0.930 . S
H663 C696 0.930 . S
H664 C694 0.929 . S
H665 C697 0.928 . S
O666 Co650 2.057 . S
O666 C654 1.232 . S
H667 C686 0.929 . S
H668 C687 0.929 . S
H669 C699 0.951 . S
H670 C691 0.929 . S
H671 C700 0.930 1_655 S
H672 C692 0.931 1_556 S
O673 Co649 2.097 . S
O673 C701 1.214 . S
H674 C702 0.929 . S
H675 C703 0.929 . S
H676 C704 0.930 . S
H677 C705 0.929 . S
H678 C707 0.930 . S
H679 C684 0.930 . S
H680 C688 0.930 . S
O681 Co650 2.037 . S
O681 C701 1.234 . S
C682 O656 1.269 . S
C682 O657 1.257 . S
C683 H658 0.930 1_455 S
C683 C686 1.388 . S
C683 C688 1.418 . S
C684 H679 0.930 . S
C684 C687 1.404 . S
C684 C688 1.353 . S
N685 Co650 2.145 . S
N685 C686 1.397 . S
N685 C687 1.334 . S
C686 H667 0.929 . S
C686 C683 1.388 . S
C686 N685 1.397 . S
C687 H668 0.929 . S
C687 C684 1.404 . S
C687 N685 1.334 . S
C688 H680 0.930 . S
C688 C683 1.418 . S
C688 C684 1.353 . S
C689 H659 0.930 . S
C689 N690 1.330 . S
C689 C691 1.446 . S
N690 Co649 2.151 . S
N690 C689 1.330 . S
N690 C694 1.418 . S
C691 H670 0.929 . S
C691 C689 1.446 . S
C691 C692 1.332 . S
C692 H672 0.931 1_554 S
C692 C691 1.332 . S
C692 C693 1.267 . S
C693 H661 0.929 1_554 S
C693 C692 1.267 . S
C693 C694 1.251 . S
C694 H664 0.929 . S
C694 N690 1.418 . S
C694 C693 1.251 . S
C695 H662 0.930 . S
C695 C697 1.406 . S
C695 C700 1.261 . S
C696 H663 0.930 . S
C696 N698 1.325 . S
C696 C699 1.342 1_455 S
C697 H665 0.928 . S
C697 C695 1.406 . S
C697 N698 1.261 . S
N698 Co649 2.214 . S
N698 C696 1.325 . S
N698 C697 1.261 . S
C699 H669 0.951 . S
C699 C696 1.342 1_655 S
C699 C700 1.306 1_655 S
C700 H671 0.930 1_455 S
C700 C695 1.261 . S
C700 C699 1.306 1_455 S
C701 O673 1.214 . S
C701 O681 1.234 . S
C702 H674 0.929 . S
C702 C705 1.391 . S
C702 C707 1.391 . S
C703 H675 0.929 . S
C703 C704 1.390 . S
C703 N706 1.391 . S
C704 H676 0.930 . S
C704 C703 1.390 . S
C704 C705 1.392 . S
C705 H677 0.929 . S
C705 C702 1.391 . S
C705 C704 1.392 . S
N706 Co650 2.257 . S
N706 C703 1.391 . S
N706 C707 1.388 . S
C707 H678 0.930 . S
C707 C702 1.391 . S
C707 N706 1.388 . S
Co708 O710 2.143 . S
Co708 O716 2.074 . S
Co708 O719 2.093 . S
Co708 O732 2.097 . S
Co708 N749 2.151 . S
Co708 N757 2.214 . S
Co709 O710 2.160 . S
Co709 O715 2.058 . S
Co709 O725 2.057 . S
Co709 O740 2.037 . S
Co709 N744 2.145 . S
Co709 N765 2.257 . S
O710 Co708 2.143 . S
O710 Co709 2.160 . S
C711 O712 1.278 . S
C711 O719 1.224 . S
O712 C711 1.278 . S
C713 O714 1.245 . S
C713 O725 1.232 . S
O714 C713 1.245 . S
O715 Co709 2.058 . S
O715 C741 1.269 . S
O716 Co708 2.074 . S
O716 C741 1.257 . S
H717 C742 0.930 . S
H718 C748 0.930 . S
O719 Co708 2.093 . S
O719 C711 1.224 . S
H720 C752 0.929 . S
H721 C754 0.930 . S
H722 C755 0.930 . S
H723 C753 0.929 . S
H724 C756 0.928 . S
O725 Co709 2.057 . S
O725 C713 1.232 . S
H726 C745 0.929 . S
H727 C746 0.929 . S
H728 C758 0.931 . S
H729 C750 0.929 . S
H730 C759 0.930 . S
H731 C751 0.931 . S
O732 Co708 2.097 . S
O732 C760 1.214 . S
H733 C761 0.929 . S
H734 C762 0.929 . S
H735 C763 0.930 . S
H736 C764 0.929 . S
H737 C766 0.930 . S
H738 C743 0.930 . S
H739 C747 0.930 . S
O740 Co709 2.037 . S
O740 C760 1.234 . S
C741 O715 1.269 . S
C741 O716 1.257 . S
C742 H717 0.930 . S
C742 C745 1.388 . S
C742 C747 1.418 . S
C743 H738 0.930 . S
C743 C746 1.404 . S
C743 C747 1.353 . S
N744 Co709 2.145 . S
N744 C745 1.397 . S
N744 C746 1.334 . S
C745 H726 0.929 . S
C745 C742 1.388 . S
C745 N744 1.397 . S
C746 H727 0.929 . S
C746 C743 1.404 . S
C746 N744 1.334 . S
C747 H739 0.930 . S
C747 C742 1.418 . S
C747 C743 1.353 . S
C748 H718 0.930 . S
C748 N749 1.330 . S
C748 C750 1.446 . S
N749 Co708 2.151 . S
N749 C748 1.330 . S
N749 C753 1.418 . S
C750 H729 0.929 . S
C750 C748 1.446 . S
C750 C751 1.332 . S
C751 H731 0.931 . S
C751 C750 1.332 . S
C751 C752 1.267 . S
C752 H720 0.929 . S
C752 C751 1.267 . S
C752 C753 1.251 . S
C753 H723 0.929 . S
C753 N749 1.418 . S
C753 C752 1.251 . S
C754 H721 0.930 . S
C754 C756 1.406 . S
C754 C759 1.261 . S
C755 H722 0.930 . S
C755 N757 1.325 . S
C755 C758 1.357 . S
C756 H724 0.928 . S
C756 C754 1.406 . S
C756 N757 1.261 . S
N757 Co708 2.214 . S
N757 C755 1.325 . S
N757 C756 1.261 . S
C758 H728 0.931 . S
C758 C755 1.357 . S
C758 C759 1.312 . S
C759 H730 0.930 . S
C759 C754 1.261 . S
C759 C758 1.312 . S
C760 O732 1.214 . S
C760 O740 1.234 . S
C761 H733 0.929 . S
C761 C764 1.391 . S
C761 C766 1.391 . S
C762 H734 0.929 . S
C762 C763 1.390 . S
C762 N765 1.391 . S
C763 H735 0.930 . S
C763 C762 1.390 . S
C763 C764 1.392 . S
C764 H736 0.929 . S
C764 C761 1.391 . S
C764 C763 1.392 . S
N765 Co709 2.257 . S
N765 C762 1.391 . S
N765 C766 1.388 . S
C766 H737 0.930 . S
C766 C761 1.391 . S
C766 N765 1.388 . S
Co767 O769 2.143 . S
Co767 O775 2.074 . S
Co767 O778 2.093 . S
Co767 O791 2.097 . S
Co767 N808 2.151 . S
Co767 N816 2.214 . S
Co768 O769 2.160 . S
Co768 O774 2.058 . S
Co768 O784 2.057 . S
Co768 O799 2.037 . S
Co768 N803 2.145 . S
Co768 N824 2.257 . S
O769 Co767 2.143 . S
O769 Co768 2.160 . S
C770 O771 1.278 . S
C770 O778 1.224 . S
O771 C770 1.278 . S
C772 O773 1.245 . S
C772 O784 1.232 . S
O773 C772 1.245 . S
O774 Co768 2.058 . S
O774 C800 1.269 . S
O775 Co767 2.074 . S
O775 C800 1.257 . S
H776 C801 0.930 . S
H777 C807 0.930 . S
O778 Co767 2.093 . S
O778 C770 1.224 . S
H779 C811 0.929 . S
H780 C813 0.930 . S
H781 C814 0.930 . S
H782 C812 0.929 . S
H783 C815 0.928 . S
O784 Co768 2.057 . S
O784 C772 1.232 . S
H785 C804 0.929 . S
H786 C805 0.929 . S
H787 C817 0.931 . S
H788 C809 0.929 . S
H789 C818 0.930 . S
H790 C810 0.931 . S
O791 Co767 2.097 . S
O791 C819 1.214 . S
H792 C820 0.929 . S
H793 C821 0.929 . S
H794 C822 0.930 . S
H795 C823 0.929 . S
H796 C825 0.930 . S
H797 C802 0.930 . S
H798 C806 0.930 . S
O799 Co768 2.037 . S
O799 C819 1.234 . S
C800 O774 1.269 . S
C800 O775 1.257 . S
C801 H776 0.930 . S
C801 C804 1.388 . S
C801 C806 1.418 . S
C802 H797 0.930 . S
C802 C805 1.404 . S
C802 C806 1.353 . S
N803 Co768 2.145 . S
N803 C804 1.397 . S
N803 C805 1.334 . S
C804 H785 0.929 . S
C804 C801 1.388 . S
C804 N803 1.397 . S
C805 H786 0.929 . S
C805 C802 1.404 . S
C805 N803 1.334 . S
C806 H798 0.930 . S
C806 C801 1.418 . S
C806 C802 1.353 . S
C807 H777 0.930 . S
C807 N808 1.330 . S
C807 C809 1.446 . S
N808 Co767 2.151 . S
N808 C807 1.330 . S
N808 C812 1.418 . S
C809 H788 0.929 . S
C809 C807 1.446 . S
C809 C810 1.332 . S
C810 H790 0.931 . S
C810 C809 1.332 . S
C810 C811 1.267 . S
C811 H779 0.929 . S
C811 C810 1.267 . S
C811 C812 1.251 . S
C812 H782 0.929 . S
C812 N808 1.418 . S
C812 C811 1.251 . S
C813 H780 0.930 . S
C813 C815 1.406 . S
C813 C818 1.261 . S
C814 H781 0.930 . S
C814 N816 1.325 . S
C814 C817 1.357 . S
C815 H783 0.928 . S
C815 C813 1.406 . S
C815 N816 1.261 . S
N816 Co767 2.214 . S
N816 C814 1.325 . S
N816 C815 1.261 . S
C817 H787 0.931 . S
C817 C814 1.357 . S
C817 C818 1.312 . S
C818 H789 0.930 . S
C818 C813 1.261 . S
C818 C817 1.312 . S
C819 O791 1.214 . S
C819 O799 1.234 . S
C820 H792 0.929 . S
C820 C823 1.391 1_554 S
C820 C825 1.391 . S
C821 H793 0.929 . S
C821 C822 1.390 1_554 S
C821 N824 1.391 . S
C822 H794 0.930 . S
C822 C821 1.390 1_556 S
C822 C823 1.392 . S
C823 H795 0.929 . S
C823 C820 1.391 1_556 S
C823 C822 1.392 . S
N824 Co768 2.257 . S
N824 C821 1.391 . S
N824 C825 1.388 . S
C825 H796 0.930 . S
C825 C820 1.391 . S
C825 N824 1.388 . S
Co826 O828 2.143 . S
Co826 O834 2.074 . S
Co826 O837 2.093 1_556 S
Co826 O850 2.097 1_556 S
Co826 N867 2.151 . S
Co826 N875 2.214 . S
Co827 O828 2.160 1_554 S
Co827 O833 2.058 1_554 S
Co827 O843 2.057 1_554 S
Co827 O858 2.037 . S
Co827 N862 2.145 . S
Co827 N883 2.257 . S
O828 Co826 2.143 . S
O828 Co827 2.160 1_556 S
C829 O830 1.278 . S
C829 O837 1.224 . S
O830 C829 1.278 . S
C831 O832 1.245 . S
C831 O843 1.232 . S
O832 C831 1.245 . S
O833 Co827 2.058 1_556 S
O833 C859 1.269 . S
O834 Co826 2.074 . S
O834 C859 1.257 . S
H835 C860 0.930 . S
H836 C866 0.930 . S
O837 Co826 2.093 1_554 S
O837 C829 1.224 . S
H838 C870 0.929 . S
H839 C872 0.930 . S
H840 C873 0.930 . S
H841 C871 0.929 . S
H842 C874 0.928 . S
O843 Co827 2.057 1_556 S
O843 C831 1.232 . S
H844 C863 0.929 . S
H845 C864 0.927 1_556 S
H846 C876 0.931 . S
H847 C868 0.929 . S
H848 C877 0.930 . S
H849 C869 0.931 . S
O850 Co826 2.097 1_554 S
O850 C878 1.214 . S
H851 C879 0.929 . S
H852 C880 0.929 . S
H853 C881 0.930 . S
H854 C882 0.929 . S
H855 C884 0.930 . S
H856 C861 0.930 . S
H857 C865 0.930 . S
O858 Co827 2.037 . S
O858 C878 1.234 . S
C859 O833 1.269 . S
C859 O834 1.257 . S
C860 H835 0.930 . S
C860 C863 1.388 . S
C860 C865 1.418 . S
C861 H856 0.930 . S
C861 C864 1.404 . S
C861 C865 1.353 . S
N862 Co827 2.145 . S
N862 C863 1.397 . S
N862 C864 1.334 . S
C863 H844 0.929 . S
C863 C860 1.388 . S
C863 N862 1.397 . S
C864 H845 0.927 1_554 S
C864 C861 1.404 . S
C864 N862 1.334 . S
C865 H857 0.930 . S
C865 C860 1.418 . S
C865 C861 1.353 . S
C866 H836 0.930 . S
C866 N867 1.330 . S
C866 C868 1.446 . S
N867 Co826 2.151 . S
N867 C866 1.330 . S
N867 C871 1.418 . S
C868 H847 0.929 . S
C868 C866 1.446 . S
C868 C869 1.332 . S
C869 H849 0.931 . S
C869 C868 1.332 . S
C869 C870 1.267 . S
C870 H838 0.929 . S
C870 C869 1.267 . S
C870 C871 1.251 . S
C871 H841 0.929 . S
C871 N867 1.418 . S
C871 C870 1.251 . S
C872 H839 0.930 . S
C872 C874 1.406 . S
C872 C877 1.261 . S
C873 H840 0.930 . S
C873 N875 1.325 1_554 S
C873 C876 1.357 . S
C874 H842 0.928 . S
C874 C872 1.406 . S
C874 N875 1.261 . S
N875 Co826 2.214 . S
N875 C873 1.325 1_556 S
N875 C874 1.261 . S
C876 H846 0.931 . S
C876 C873 1.357 . S
C876 C877 1.312 1_554 S
C877 H848 0.930 . S
C877 C872 1.261 . S
C877 C876 1.312 1_556 S
C878 O850 1.214 . S
C878 O858 1.234 . S
C879 H851 0.929 . S
C879 C882 1.391 . S
C879 C884 1.391 . S
C880 H852 0.929 . S
C880 C881 1.390 . S
C880 N883 1.391 . S
C881 H853 0.930 . S
C881 C880 1.390 . S
C881 C882 1.392 . S
C882 H854 0.929 . S
C882 C879 1.391 . S
C882 C881 1.392 . S
N883 Co827 2.257 . S
N883 C880 1.391 . S
N883 C884 1.388 . S
C884 H855 0.930 . S
C884 C879 1.391 . S
C884 N883 1.388 . S
Co885 O887 2.143 . S
Co885 O893 2.074 . S
Co885 O896 2.093 . S
Co885 O909 2.097 . S
Co885 N926 2.151 . S
Co885 N934 2.214 . S
Co886 O887 2.160 . S
Co886 O892 2.058 . S
Co886 O902 2.057 . S
Co886 O917 2.037 . S
Co886 N921 2.145 . S
Co886 N942 2.257 . S
O887 Co885 2.143 . S
O887 Co886 2.160 . S
C888 O889 1.278 . S
C888 O896 1.224 . S
O889 C888 1.278 . S
C890 O891 1.245 . S
C890 O902 1.232 . S
O891 C890 1.245 . S
O892 Co886 2.058 . S
O892 C918 1.269 . S
O893 Co885 2.074 . S
O893 C918 1.257 . S
H894 C919 0.930 1_455 S
H895 C925 0.930 . S
O896 Co885 2.093 . S
O896 C888 1.224 . S
H897 C929 0.929 1_554 S
H898 C931 0.930 . S
H899 C932 0.930 . S
H900 C930 0.929 . S
H901 C933 0.928 . S
O902 Co886 2.057 . S
O902 C890 1.232 . S
H903 C922 0.929 . S
H904 C923 0.929 . S
H905 C935 0.951 . S
H906 C927 0.929 . S
H907 C936 0.930 1_455 S
H908 C928 0.931 1_554 S
O909 Co885 2.097 . S
O909 C937 1.214 . S
H910 C938 0.929 . S
H911 C939 0.929 . S
H912 C940 0.930 . S
H913 C941 0.929 . S
H914 C943 0.930 . S
H915 C920 0.930 . S
H916 C924 0.930 . S
O917 Co886 2.037 . S
O917 C937 1.234 . S
C918 O892 1.269 . S
C918 O893 1.257 . S
C919 H894 0.930 1_655 S
C919 C922 1.388 . S
C919 C924 1.418 . S
C920 H915 0.930 . S
C920 C923 1.404 . S
C920 C924 1.353 . S
N921 Co886 2.145 . S
N921 C922 1.397 . S
N921 C923 1.334 . S
C922 H903 0.929 . S
C922 C919 1.388 . S
C922 N921 1.397 . S
C923 H904 0.929 . S
C923 C920 1.404 . S
C923 N921 1.334 . S
C924 H916 0.930 . S
C924 C919 1.418 . S
C924 C920 1.353 . S
C925 H895 0.930 . S
C925 N926 1.330 . S
C925 C927 1.446 . S
N926 Co885 2.151 . S
N926 C925 1.330 . S
N926 C930 1.418 . S
C927 H906 0.929 . S
C927 C925 1.446 . S
C927 C928 1.332 . S
C928 H908 0.931 1_556 S
C928 C927 1.332 . S
C928 C929 1.267 . S
C929 H897 0.929 1_556 S
C929 C928 1.267 . S
C929 C930 1.251 . S
C930 H900 0.929 . S
C930 N926 1.418 . S
C930 C929 1.251 . S
C931 H898 0.930 . S
C931 C933 1.406 . S
C931 C936 1.261 . S
C932 H899 0.930 . S
C932 N934 1.325 . S
C932 C935 1.342 1_655 S
C933 H901 0.928 . S
C933 C931 1.406 . S
C933 N934 1.261 . S
N934 Co885 2.214 . S
N934 C932 1.325 . S
N934 C933 1.261 . S
C935 H905 0.951 . S
C935 C932 1.342 1_455 S
C935 C936 1.306 1_455 S
C936 H907 0.930 1_655 S
C936 C931 1.261 . S
C936 C935 1.306 1_655 S
C937 O909 1.214 . S
C937 O917 1.234 . S
C938 H910 0.929 . S
C938 C941 1.391 . S
C938 C943 1.391 . S
C939 H911 0.929 . S
C939 C940 1.390 . S
C939 N942 1.391 . S
C940 H912 0.930 . S
C940 C939 1.390 . S
C940 C941 1.392 . S
C941 H913 0.929 . S
C941 C938 1.391 . S
C941 C940 1.392 . S
N942 Co886 2.257 . S
N942 C939 1.391 . S
N942 C943 1.388 . S
C943 H914 0.930 . S
C943 C938 1.391 . S
C943 N942 1.388 . S
C944 C945 1.363 . S
C944 C950 1.379 . S
C944 N952 1.356 . S
C945 C944 1.363 . S
C945 C951 1.363 . S
C946 C947 1.363 . S
C946 C951 1.379 . S
C946 N953 1.356 . S
C947 C946 1.363 . S
C947 C950 1.363 . S
N948 C950 1.356 . S
N948 H960 0.984 . S
N948 H961 0.985 . S
N949 C951 1.356 . S
N949 H954 0.984 . S
N949 H955 0.985 . S
C950 C944 1.379 . S
C950 C947 1.363 . S
C950 N948 1.356 . S
C951 C945 1.363 . S
C951 C946 1.379 . S
C951 N949 1.356 . S
N952 C944 1.356 . S
N952 H958 0.984 . S
N952 H959 0.984 . S
N953 C946 1.356 . S
N953 H956 0.984 . S
N953 H957 0.985 . S
H954 N949 0.984 . S
H955 N949 0.985 . S
H956 N953 0.984 . S
H957 N953 0.985 . S
H958 N952 0.984 . S
H959 N952 0.984 . S
H960 N948 0.984 . S
H961 N948 0.985 . S
C962 C963 1.377 . S
C962 C968 1.379 . S
C962 N970 1.356 . S
C963 C962 1.377 . S
C963 C969 1.347 1_665 S
C964 C965 1.363 . S
C964 C969 1.379 . S
C964 N971 1.356 . S
C965 C964 1.363 . S
C965 C968 1.363 1_445 S
N966 C968 1.352 1_455 S
N966 H978 0.965 1_455 S
N966 H979 1.009 . S
N967 C969 1.352 1_655 S
N967 H972 1.009 . S
N967 H973 0.965 1_655 S
C968 C962 1.379 . S
C968 C965 1.363 1_665 S
C968 N966 1.352 1_655 S
C969 C963 1.347 1_445 S
C969 C964 1.379 . S
C969 N967 1.352 1_455 S
N970 C962 1.356 . S
N970 H976 0.984 . S
N970 H977 0.984 . S
N971 C964 1.356 . S
N971 H974 0.984 . S
N971 H975 0.985 . S
H972 N967 1.009 . S
H973 N967 0.965 1_455 S
H974 N971 0.984 . S
H975 N971 0.985 . S
H976 N970 0.984 . S
H977 N970 0.984 . S
H978 N966 0.965 1_655 S
H979 N966 1.009 . S
C980 C981 1.363 . S
C980 C986 1.379 . S
C980 N988 1.356 . S
C981 C980 1.363 . S
C981 C987 1.363 . S
C982 C983 1.363 . S
C982 C987 1.379 . S
C982 N989 1.356 . S
C983 C982 1.363 . S
C983 C986 1.363 . S
N984 C986 1.356 . S
N984 H996 0.984 . S
N984 H997 0.985 . S
N985 C987 1.356 . S
N985 H990 0.984 . S
N985 H991 0.985 . S
C986 C980 1.379 . S
C986 C983 1.363 . S
C986 N984 1.356 . S
C987 C981 1.363 . S
C987 C982 1.379 . S
C987 N985 1.356 . S
N988 C980 1.356 . S
N988 H994 0.984 . S
N988 H995 0.984 . S
N989 C982 1.356 . S
N989 H992 0.984 . S
N989 H993 0.985 . S
H990 N985 0.984 . S
H991 N985 0.985 . S
H992 N989 0.984 . S
H993 N989 0.985 . S
H994 N988 0.984 . S
H995 N988 0.984 . S
H996 N984 0.984 . S
H997 N984 0.985 . S
C998 C999 1.347 1_545 S
C998 C1004 1.379 1_554 S
C998 N1006 1.356 . S
C999 C998 1.347 1_565 S
C999 C1005 1.377 . S
C1000 C1001 1.363 1_565 S
C1000 C1005 1.379 1_556 S
C1000 N1007 1.356 . S
C1001 C1000 1.363 1_545 S
C1001 C1004 1.363 . S
N1002 C1004 1.356 . S
N1002 H1014 0.984 . S
N1002 H1015 0.985 . S
N1003 C1005 1.356 . S
N1003 H1008 0.984 . S
N1003 H1009 0.985 . S
C1004 C998 1.379 1_556 S
C1004 C1001 1.363 . S
C1004 N1002 1.356 . S
C1005 C999 1.377 . S
C1005 C1000 1.379 1_554 S
C1005 N1003 1.356 . S
N1006 C998 1.356 . S
N1006 H1012 0.984 . S
N1006 H1013 0.984 . S
N1007 C1000 1.356 . S
N1007 H1010 0.984 . S
N1007 H1011 0.985 . S
H1008 N1003 0.984 . S
H1009 N1003 0.985 . S
H1010 N1007 0.984 . S
H1011 N1007 0.985 . S
H1012 N1006 0.984 . S
H1013 N1006 0.984 . S
H1014 N1002 0.984 . S
H1015 N1002 0.985 . S
C1016 C1017 1.363 . S
C1016 C1022 1.379 . S
C1016 N1024 1.356 . S
C1017 C1016 1.363 . S
C1017 C1023 1.363 . S
C1018 C1019 1.363 . S
C1018 C1023 1.379 . S
C1018 N1025 1.356 . S
C1019 C1018 1.363 . S
C1019 C1022 1.363 . S
N1020 C1022 1.356 . S
N1020 H1032 0.984 . S
N1020 H1033 0.985 . S
N1021 C1023 1.356 . S
N1021 H1026 0.984 . S
N1021 H1027 0.985 . S
C1022 C1016 1.379 . S
C1022 C1019 1.363 . S
C1022 N1020 1.356 . S
C1023 C1017 1.363 . S
C1023 C1018 1.379 . S
C1023 N1021 1.356 . S
N1024 C1016 1.356 . S
N1024 H1030 0.984 . S
N1024 H1031 0.984 . S
N1025 C1018 1.356 . S
N1025 H1028 0.984 . S
N1025 H1029 0.985 . S
H1026 N1021 0.984 . S
H1027 N1021 0.985 . S
H1028 N1025 0.984 . S
H1029 N1025 0.985 . S
H1030 N1024 0.984 . S
H1031 N1024 0.984 . S
H1032 N1020 0.984 . S
H1033 N1020 0.985 . S
C1034 C1035 1.363 1_565 S
C1034 C1040 1.379 . S
C1034 N1042 1.356 . S
C1035 C1034 1.363 1_545 S
C1035 C1041 1.363 . S
C1036 C1037 1.341 1_545 S
C1036 C1041 1.379 . S
C1036 N1043 1.356 . S
C1037 C1036 1.341 1_565 S
C1037 C1040 1.382 . S
N1038 C1040 1.356 . S
N1038 H1050 0.984 . S
N1038 H1051 0.985 . S
N1039 C1041 1.356 . S
N1039 H1044 0.984 . S
N1039 H1045 0.985 . S
C1040 C1034 1.379 . S
C1040 C1037 1.382 . S
C1040 N1038 1.356 . S
C1041 C1035 1.363 . S
C1041 C1036 1.379 . S
C1041 N1039 1.356 . S
N1042 C1034 1.356 . S
N1042 H1048 0.984 . S
N1042 H1049 0.984 . S
N1043 C1036 1.356 . S
N1043 H1046 0.984 . S
N1043 H1047 0.985 . S
H1044 N1039 0.984 . S
H1045 N1039 0.985 . S
H1046 N1043 0.984 . S
H1047 N1043 0.985 . S
H1048 N1042 0.984 . S
H1049 N1042 0.984 . S
H1050 N1038 0.984 . S
H1051 N1038 0.985 . S
C1052 C1053 1.363 . S
C1052 C1058 1.379 . S
C1052 N1060 1.356 . S
C1053 C1052 1.363 . S
C1053 C1059 1.363 . S
C1054 C1055 1.363 . S
C1054 C1059 1.379 . S
C1054 N1061 1.356 . S
C1055 C1054 1.363 . S
C1055 C1058 1.363 . S
N1056 C1058 1.356 . S
N1056 H1068 0.984 . S
N1056 H1069 0.985 . S
N1057 C1059 1.356 . S
N1057 H1062 0.984 . S
N1057 H1063 0.985 . S
C1058 C1052 1.379 . S
C1058 C1055 1.363 . S
C1058 N1056 1.356 . S
C1059 C1053 1.363 . S
C1059 C1054 1.379 . S
C1059 N1057 1.356 . S
N1060 C1052 1.356 . S
N1060 H1066 0.984 . S
N1060 H1067 0.984 . S
N1061 C1054 1.356 . S
N1061 H1064 0.984 . S
N1061 H1065 0.985 . S
H1062 N1057 0.984 . S
H1063 N1057 0.985 . S
H1064 N1061 0.984 . S
H1065 N1061 0.985 . S
H1066 N1060 0.984 . S
H1067 N1060 0.984 . S
H1068 N1056 0.984 . S
H1069 N1056 0.985 . S
C1070 C1071 1.341 1_545 S
C1070 C1076 1.379 1_456 S
C1070 N1078 1.356 . S
C1071 C1070 1.341 1_565 S
C1071 C1077 1.383 . S
C1072 C1073 1.363 1_565 S
C1072 C1077 1.379 1_654 S
C1072 N1079 1.356 . S
C1073 C1072 1.363 1_545 S
C1073 C1076 1.363 . S
N1074 C1076 1.356 . S
N1074 H1086 0.984 . S
N1074 H1087 0.985 . S
N1075 C1077 1.356 . S
N1075 H1080 0.984 . S
N1075 H1081 0.985 . S
C1076 C1070 1.379 1_654 S
C1076 C1073 1.363 . S
C1076 N1074 1.356 . S
C1077 C1071 1.383 . S
C1077 C1072 1.379 1_456 S
C1077 N1075 1.356 . S
N1078 C1070 1.356 . S
N1078 H1084 0.984 . S
N1078 H1085 0.984 . S
N1079 C1072 1.356 . S
N1079 H1082 0.984 . S
N1079 H1083 0.985 . S
H1080 N1075 0.984 . S
H1081 N1075 0.985 . S
H1082 N1079 0.984 . S
H1083 N1079 0.985 . S
H1084 N1078 0.984 . S
H1085 N1078 0.984 . S
H1086 N1074 0.984 . S
H1087 N1074 0.985 . S
C1088 C1089 1.363 . S
C1088 C1094 1.379 . S
C1088 N1096 1.356 . S
C1089 C1088 1.363 . S
C1089 C1095 1.363 . S
C1090 C1091 1.363 . S
C1090 C1095 1.379 . S
C1090 N1097 1.356 . S
C1091 C1090 1.363 . S
C1091 C1094 1.363 . S
N1092 C1094 1.356 . S
N1092 H1104 0.984 . S
N1092 H1105 0.985 . S
N1093 C1095 1.356 . S
N1093 H1098 0.984 . S
N1093 H1099 0.985 . S
C1094 C1088 1.379 . S
C1094 C1091 1.363 . S
C1094 N1092 1.356 . S
C1095 C1089 1.363 . S
C1095 C1090 1.379 . S
C1095 N1093 1.356 . S
N1096 C1088 1.356 . S
N1096 H1102 0.984 . S
N1096 H1103 0.984 . S
N1097 C1090 1.356 . S
N1097 H1100 0.984 . S
N1097 H1101 0.985 . S
H1098 N1093 0.984 . S
H1099 N1093 0.985 . S
H1100 N1097 0.984 . S
H1101 N1097 0.985 . S
H1102 N1096 0.984 . S
H1103 N1096 0.984 . S
H1104 N1092 0.984 . S
H1105 N1092 0.985 . S
C1106 C1107 1.363 . S
C1106 C1112 1.379 . S
C1106 N1114 1.356 . S
C1107 C1106 1.363 . S
C1107 C1113 1.363 . S
C1108 C1109 1.363 . S
C1108 C1113 1.379 . S
C1108 N1115 1.356 . S
C1109 C1108 1.363 . S
C1109 C1112 1.363 . S
N1110 C1112 1.356 . S
N1110 H1122 0.984 . S
N1110 H1123 0.985 . S
N1111 C1113 1.356 . S
N1111 H1116 0.984 . S
N1111 H1117 0.985 . S
C1112 C1106 1.379 . S
C1112 C1109 1.363 . S
C1112 N1110 1.356 . S
C1113 C1107 1.363 . S
C1113 C1108 1.379 . S
C1113 N1111 1.356 . S
N1114 C1106 1.356 . S
N1114 H1120 0.984 . S
N1114 H1121 0.984 . S
N1115 C1108 1.356 . S
N1115 H1118 0.984 . S
N1115 H1119 0.985 . S
H1116 N1111 0.984 . S
H1117 N1111 0.985 . S
H1118 N1115 0.984 . S
H1119 N1115 0.985 . S
H1120 N1114 0.984 . S
H1121 N1114 0.984 . S
H1122 N1110 0.984 . S
H1123 N1110 0.985 . S
C1124 C1125 1.363 . S
C1124 C1130 1.379 . S
C1124 N1132 1.356 . S
C1125 C1124 1.363 . S
C1125 C1131 1.363 . S
C1126 C1127 1.363 . S
C1126 C1131 1.379 . S
C1126 N1133 1.356 . S
C1127 C1126 1.363 . S
C1127 C1130 1.363 . S
N1128 C1130 1.356 . S
N1128 H1140 0.984 . S
N1128 H1141 0.985 . S
N1129 C1131 1.356 . S
N1129 H1134 0.984 . S
N1129 H1135 0.985 . S
C1130 C1124 1.379 . S
C1130 C1127 1.363 . S
C1130 N1128 1.356 . S
C1131 C1125 1.363 . S
C1131 C1126 1.379 . S
C1131 N1129 1.356 . S
N1132 C1124 1.356 . S
N1132 H1138 0.984 . S
N1132 H1139 0.984 . S
N1133 C1126 1.356 . S
N1133 H1136 0.984 . S
N1133 H1137 0.985 . S
H1134 N1129 0.984 . S
H1135 N1129 0.985 . S
H1136 N1133 0.984 . S
H1137 N1133 0.985 . S
H1138 N1132 0.984 . S
H1139 N1132 0.984 . S
H1140 N1128 0.984 . S
H1141 N1128 0.985 . S
C1142 C1143 1.363 . S
C1142 C1148 1.379 . S
C1142 N1150 1.356 . S
C1143 C1142 1.363 . S
C1143 C1149 1.363 . S
C1144 C1145 1.363 . S
C1144 C1149 1.379 . S
C1144 N1151 1.356 . S
C1145 C1144 1.363 . S
C1145 C1148 1.363 . S
N1146 C1148 1.356 . S
N1146 H1158 0.984 . S
N1146 H1159 0.985 . S
N1147 C1149 1.356 . S
N1147 H1152 0.984 . S
N1147 H1153 0.985 . S
C1148 C1142 1.379 . S
C1148 C1145 1.363 . S
C1148 N1146 1.356 . S
C1149 C1143 1.363 . S
C1149 C1144 1.379 . S
C1149 N1147 1.356 . S
N1150 C1142 1.356 . S
N1150 H1156 0.984 . S
N1150 H1157 0.984 . S
N1151 C1144 1.356 . S
N1151 H1154 0.984 . S
N1151 H1155 0.985 . S
H1152 N1147 0.984 . S
H1153 N1147 0.985 . S
H1154 N1151 0.984 . S
H1155 N1151 0.985 . S
H1156 N1150 0.984 . S
H1157 N1150 0.984 . S
H1158 N1146 0.984 . S
H1159 N1146 0.985 . S
C1160 C1161 1.363 . S
C1160 C1166 1.379 1_554 S
C1160 N1168 1.356 . S
C1161 C1160 1.363 . S
C1161 C1167 1.363 . S
C1162 C1163 1.363 . S
C1162 C1167 1.379 1_556 S
C1162 N1169 1.356 . S
C1163 C1162 1.363 . S
C1163 C1166 1.363 . S
N1164 C1166 1.356 . S
N1164 H1176 0.984 . S
N1164 H1177 0.985 . S
N1165 C1167 1.356 . S
N1165 H1170 0.984 . S
N1165 H1171 0.985 . S
C1166 C1160 1.379 1_556 S
C1166 C1163 1.363 . S
C1166 N1164 1.356 . S
C1167 C1161 1.363 . S
C1167 C1162 1.379 1_554 S
C1167 N1165 1.356 . S
N1168 C1160 1.356 . S
N1168 H1174 0.984 . S
N1168 H1175 0.984 . S
N1169 C1162 1.356 . S
N1169 H1172 0.984 . S
N1169 H1173 0.985 . S
H1170 N1165 0.984 . S
H1171 N1165 0.985 . S
H1172 N1169 0.984 . S
H1173 N1169 0.985 . S
H1174 N1168 0.984 . S
H1175 N1168 0.984 . S
H1176 N1164 0.984 . S
H1177 N1164 0.985 . S
C1178 C1179 1.363 1_655 S
C1178 C1184 1.379 . S
C1178 N1186 1.356 . S
C1179 C1178 1.363 1_455 S
C1179 C1185 1.363 . S
C1180 C1181 1.363 1_455 S
C1180 C1185 1.379 . S
C1180 N1187 1.356 . S
C1181 C1180 1.363 1_655 S
C1181 C1184 1.363 . S
N1182 C1184 1.356 . S
N1182 H1194 0.984 . S
N1182 H1195 0.985 . S
N1183 C1185 1.356 . S
N1183 H1188 0.984 . S
N1183 H1189 0.985 . S
C1184 C1178 1.379 . S
C1184 C1181 1.363 . S
C1184 N1182 1.356 . S
C1185 C1179 1.363 . S
C1185 C1180 1.379 . S
C1185 N1183 1.356 . S
N1186 C1178 1.356 . S
N1186 H1192 0.984 . S
N1186 H1193 0.984 1_655 S
N1187 C1180 1.356 . S
N1187 H1190 0.984 1_455 S
N1187 H1191 0.985 . S
H1188 N1183 0.984 . S
H1189 N1183 0.985 . S
H1190 N1187 0.984 1_655 S
H1191 N1187 0.985 . S
H1192 N1186 0.984 . S
H1193 N1186 0.984 1_455 S
H1194 N1182 0.984 . S
H1195 N1182 0.985 . S
C1196 C1197 1.363 . S
C1196 C1202 1.387 1_554 S
C1196 N1204 1.356 . S
C1197 C1196 1.363 . S
C1197 C1203 1.354 1_455 S
C1198 C1199 1.363 . S
C1198 C1203 1.388 1_556 S
C1198 N1205 1.356 . S
C1199 C1198 1.363 . S
C1199 C1202 1.354 1_655 S
N1200 C1202 1.354 1_655 S
N1200 H1212 0.984 1_655 S
N1200 H1213 0.985 . S
N1201 C1203 1.353 1_455 S
N1201 H1206 0.984 . S
N1201 H1207 0.985 1_455 S
C1202 C1196 1.387 1_556 S
C1202 C1199 1.354 1_455 S
C1202 N1200 1.354 1_455 S
C1203 C1197 1.354 1_655 S
C1203 C1198 1.388 1_554 S
C1203 N1201 1.353 1_655 S
N1204 C1196 1.356 . S
N1204 H1210 0.984 1_554 S
N1204 H1211 0.984 . S
N1205 C1198 1.356 . S
N1205 H1208 0.984 . S
N1205 H1209 0.985 1_556 S
H1206 N1201 0.984 . S
H1207 N1201 0.985 1_655 S
H1208 N1205 0.984 . S
H1209 N1205 0.985 1_554 S
H1210 N1204 0.984 1_556 S
H1211 N1204 0.984 . S
H1212 N1200 0.984 1_455 S
H1213 N1200 0.985 . S
C1214 C1215 1.363 . S
C1214 C1220 1.379 . S
C1214 N1222 1.356 . S
C1215 C1214 1.363 . S
C1215 C1221 1.363 . S
C1216 C1217 1.363 . S
C1216 C1221 1.379 . S
C1216 N1223 1.356 . S
C1217 C1216 1.363 . S
C1217 C1220 1.363 . S
N1218 C1220 1.356 . S
N1218 H1230 0.984 . S
N1218 H1231 0.985 . S
N1219 C1221 1.356 . S
N1219 H1224 0.984 . S
N1219 H1225 0.985 . S
C1220 C1214 1.379 . S
C1220 C1217 1.363 . S
C1220 N1218 1.356 . S
C1221 C1215 1.363 . S
C1221 C1216 1.379 . S
C1221 N1219 1.356 . S
N1222 C1214 1.356 . S
N1222 H1228 0.984 . S
N1222 H1229 0.984 . S
N1223 C1216 1.356 . S
N1223 H1226 0.984 . S
N1223 H1227 0.985 . S
H1224 N1219 0.984 . S
H1225 N1219 0.985 . S
H1226 N1223 0.984 . S
H1227 N1223 0.985 . S
H1228 N1222 0.984 . S
H1229 N1222 0.984 . S
H1230 N1218 0.984 . S
H1231 N1218 0.985 . S
C1232 C1233 1.363 . S
C1232 C1238 1.379 . S
C1232 N1240 1.356 . S
C1233 C1232 1.363 . S
C1233 C1239 1.363 . S
C1234 C1235 1.363 . S
C1234 C1239 1.379 . S
C1234 N1241 1.356 . S
C1235 C1234 1.363 . S
C1235 C1238 1.363 . S
N1236 C1238 1.356 . S
N1236 H1248 0.984 1_554 S
N1236 H1249 0.985 . S
N1237 C1239 1.356 . S
N1237 H1242 0.984 . S
N1237 H1243 0.985 . S
C1238 C1232 1.379 . S
C1238 C1235 1.363 . S
C1238 N1236 1.356 . S
C1239 C1233 1.363 . S
C1239 C1234 1.379 . S
C1239 N1237 1.356 . S
N1240 C1232 1.356 . S
N1240 H1246 0.984 1_554 S
N1240 H1247 0.984 . S
N1241 C1234 1.356 . S
N1241 H1244 0.984 . S
N1241 H1245 0.985 . S
H1242 N1237 0.984 . S
H1243 N1237 0.985 . S
H1244 N1241 0.984 . S
H1245 N1241 0.985 . S
H1246 N1240 0.984 1_556 S
H1247 N1240 0.984 . S
H1248 N1236 0.984 1_556 S
H1249 N1236 0.985 . S
C1250 C1251 1.363 . S
C1250 C1256 1.379 . S
C1250 N1258 1.356 . S
C1251 C1250 1.363 . S
C1251 C1257 1.363 . S
C1252 C1253 1.363 . S
C1252 C1257 1.379 . S
C1252 N1259 1.356 . S
C1253 C1252 1.363 . S
C1253 C1256 1.363 . S
N1254 C1256 1.356 . S
N1254 H1266 0.984 . S
N1254 H1267 0.985 . S
N1255 C1257 1.356 . S
N1255 H1260 0.984 . S
N1255 H1261 0.985 . S
C1256 C1250 1.379 . S
C1256 C1253 1.363 . S
C1256 N1254 1.356 . S
C1257 C1251 1.363 . S
C1257 C1252 1.379 . S
C1257 N1255 1.356 . S
N1258 C1250 1.356 . S
N1258 H1264 0.984 . S
N1258 H1265 0.984 . S
N1259 C1252 1.356 . S
N1259 H1262 0.984 . S
N1259 H1263 0.985 . S
H1260 N1255 0.984 . S
H1261 N1255 0.985 . S
H1262 N1259 0.984 . S
H1263 N1259 0.985 . S
H1264 N1258 0.984 . S
H1265 N1258 0.984 . S
H1266 N1254 0.984 . S
H1267 N1254 0.985 . S
C1268 C1269 1.363 . S
C1268 C1274 1.379 . S
C1268 N1276 1.356 . S
C1269 C1268 1.363 . S
C1269 C1275 1.363 . S
C1270 C1271 1.363 . S
C1270 C1275 1.379 . S
C1270 N1277 1.356 . S
C1271 C1270 1.363 . S
C1271 C1274 1.363 . S
N1272 C1274 1.356 . S
N1272 H1284 0.984 . S
N1272 H1285 0.985 . S
N1273 C1275 1.356 . S
N1273 H1278 0.984 . S
N1273 H1279 0.985 . S
C1274 C1268 1.379 . S
C1274 C1271 1.363 . S
C1274 N1272 1.356 . S
C1275 C1269 1.363 . S
C1275 C1270 1.379 . S
C1275 N1273 1.356 . S
N1276 C1268 1.356 . S
N1276 H1282 0.984 . S
N1276 H1283 0.984 . S
N1277 C1270 1.356 . S
N1277 H1280 0.984 . S
N1277 H1281 0.985 . S
H1278 N1273 0.984 . S
H1279 N1273 0.985 . S
H1280 N1277 0.984 . S
H1281 N1277 0.985 . S
H1282 N1276 0.984 . S
H1283 N1276 0.984 . S
H1284 N1272 0.984 . S
H1285 N1272 0.985 . S
C1286 C1287 1.363 . S
C1286 C1292 1.379 . S
C1286 N1294 1.356 . S
C1287 C1286 1.363 . S
C1287 C1293 1.363 . S
C1288 C1289 1.363 . S
C1288 C1293 1.379 . S
C1288 N1295 1.356 . S
C1289 C1288 1.363 . S
C1289 C1292 1.363 . S
N1290 C1292 1.356 . S
N1290 H1302 0.984 . S
N1290 H1303 0.985 . S
N1291 C1293 1.356 . S
N1291 H1296 0.984 . S
N1291 H1297 0.985 1_556 S
C1292 C1286 1.379 . S
C1292 C1289 1.363 . S
C1292 N1290 1.356 . S
C1293 C1287 1.363 . S
C1293 C1288 1.379 . S
C1293 N1291 1.356 . S
N1294 C1286 1.356 . S
N1294 H1300 0.984 . S
N1294 H1301 0.984 . S
N1295 C1288 1.356 . S
N1295 H1298 0.984 . S
N1295 H1299 0.985 1_556 S
H1296 N1291 0.984 . S
H1297 N1291 0.985 1_554 S
H1298 N1295 0.984 . S
H1299 N1295 0.985 1_554 S
H1300 N1294 0.984 . S
H1301 N1294 0.984 . S
H1302 N1290 0.984 . S
H1303 N1290 0.985 . S
C1304 C1305 1.363 . S
C1304 C1310 1.379 . S
C1304 N1312 1.356 . S
C1305 C1304 1.363 . S
C1305 C1311 1.363 . S
C1306 C1307 1.363 . S
C1306 C1311 1.379 . S
C1306 N1313 1.356 . S
C1307 C1306 1.363 . S
C1307 C1310 1.363 . S
N1308 C1310 1.356 . S
N1308 H1320 0.984 . S
N1308 H1321 0.985 . S
N1309 C1311 1.356 . S
N1309 H1314 0.984 . S
N1309 H1315 0.985 . S
C1310 C1304 1.379 . S
C1310 C1307 1.363 . S
C1310 N1308 1.356 . S
C1311 C1305 1.363 . S
C1311 C1306 1.379 . S
C1311 N1309 1.356 . S
N1312 C1304 1.356 . S
N1312 H1318 0.984 . S
N1312 H1319 0.984 . S
N1313 C1306 1.356 . S
N1313 H1316 0.984 . S
N1313 H1317 0.985 . S
H1314 N1309 0.984 . S
H1315 N1309 0.985 . S
H1316 N1313 0.984 . S
H1317 N1313 0.985 . S
H1318 N1312 0.984 . S
H1319 N1312 0.984 . S
H1320 N1308 0.984 . S
H1321 N1308 0.985 . S
C1322 C1323 1.363 . S
C1322 C1328 1.379 . S
C1322 N1330 1.356 . S
C1323 C1322 1.363 . S
C1323 C1329 1.363 . S
C1324 C1325 1.363 . S
C1324 C1329 1.379 . S
C1324 N1331 1.356 . S
C1325 C1324 1.363 . S
C1325 C1328 1.363 . S
N1326 C1328 1.356 . S
N1326 H1338 0.984 . S
N1326 H1339 0.985 . S
N1327 C1329 1.356 . S
N1327 H1332 0.984 . S
N1327 H1333 0.985 . S
C1328 C1322 1.379 . S
C1328 C1325 1.363 . S
C1328 N1326 1.356 . S
C1329 C1323 1.363 . S
C1329 C1324 1.379 . S
C1329 N1327 1.356 . S
N1330 C1322 1.356 . S
N1330 H1336 0.984 . S
N1330 H1337 0.984 . S
N1331 C1324 1.356 . S
N1331 H1334 0.984 . S
N1331 H1335 0.985 . S
H1332 N1327 0.984 . S
H1333 N1327 0.985 . S
H1334 N1331 0.984 . S
H1335 N1331 0.985 . S
H1336 N1330 0.984 . S
H1337 N1330 0.984 . S
H1338 N1326 0.984 . S
H1339 N1326 0.985 . S
C1340 C1341 1.363 . S
C1340 C1346 1.379 . S
C1340 N1348 1.356 . S
C1341 C1340 1.363 . S
C1341 C1347 1.363 . S
C1342 C1343 1.363 . S
C1342 C1347 1.379 . S
C1342 N1349 1.356 . S
C1343 C1342 1.363 . S
C1343 C1346 1.363 . S
N1344 C1346 1.356 . S
N1344 H1356 0.984 . S
N1344 H1357 0.985 . S
N1345 C1347 1.356 . S
N1345 H1350 0.984 . S
N1345 H1351 0.985 . S
C1346 C1340 1.379 . S
C1346 C1343 1.363 . S
C1346 N1344 1.356 . S
C1347 C1341 1.363 . S
C1347 C1342 1.379 . S
C1347 N1345 1.356 . S
N1348 C1340 1.356 . S
N1348 H1354 0.984 . S
N1348 H1355 0.984 . S
N1349 C1342 1.356 . S
N1349 H1352 0.984 . S
N1349 H1353 0.985 . S
H1350 N1345 0.984 . S
H1351 N1345 0.985 . S
H1352 N1349 0.984 . S
H1353 N1349 0.985 . S
H1354 N1348 0.984 . S
H1355 N1348 0.984 . S
H1356 N1344 0.984 . S
H1357 N1344 0.985 . S
C1358 C1359 1.363 . S
C1358 C1364 1.379 . S
C1358 N1366 1.356 . S
C1359 C1358 1.363 . S
C1359 C1365 1.363 . S
C1360 C1361 1.363 . S
C1360 C1365 1.379 . S
C1360 N1367 1.356 . S
C1361 C1360 1.363 . S
C1361 C1364 1.363 . S
N1362 C1364 1.356 . S
N1362 H1374 0.984 . S
N1362 H1375 0.985 . S
N1363 C1365 1.356 . S
N1363 H1368 0.984 . S
N1363 H1369 0.985 . S
C1364 C1358 1.379 . S
C1364 C1361 1.363 . S
C1364 N1362 1.356 . S
C1365 C1359 1.363 . S
C1365 C1360 1.379 . S
C1365 N1363 1.356 . S
N1366 C1358 1.356 . S
N1366 H1372 0.984 1_554 S
N1366 H1373 0.984 . S
N1367 C1360 1.356 . S
N1367 H1370 0.984 . S
N1367 H1371 0.985 . S
H1368 N1363 0.984 . S
H1369 N1363 0.985 . S
H1370 N1367 0.984 . S
H1371 N1367 0.985 . S
H1372 N1366 0.984 1_556 S
H1373 N1366 0.984 . S
H1374 N1362 0.984 . S
H1375 N1362 0.985 . S
C1376 C1377 1.363 . S
C1376 C1382 1.379 . S
C1376 N1384 1.356 1_556 S
C1377 C1376 1.363 . S
C1377 C1383 1.363 . S
C1378 C1379 1.363 . S
C1378 C1383 1.379 . S
C1378 N1385 1.356 . S
C1379 C1378 1.363 . S
C1379 C1382 1.363 . S
N1380 C1382 1.356 . S
N1380 H1392 0.984 1_556 S
N1380 H1393 0.985 . S
N1381 C1383 1.356 . S
N1381 H1386 0.984 . S
N1381 H1387 0.985 . S
C1382 C1376 1.379 . S
C1382 C1379 1.363 . S
C1382 N1380 1.356 . S
C1383 C1377 1.363 . S
C1383 C1378 1.379 . S
C1383 N1381 1.356 . S
N1384 C1376 1.356 1_554 S
N1384 H1390 0.984 . S
N1384 H1391 0.984 . S
N1385 C1378 1.356 . S
N1385 H1388 0.984 . S
N1385 H1389 0.985 . S
H1386 N1381 0.984 . S
H1387 N1381 0.985 . S
H1388 N1385 0.984 . S
H1389 N1385 0.985 . S
H1390 N1384 0.984 . S
H1391 N1384 0.984 . S
H1392 N1380 0.984 1_554 S
H1393 N1380 0.985 . S
C1394 C1395 1.363 . S
C1394 C1400 1.379 . S
C1394 N1402 1.356 . S
C1395 C1394 1.363 . S
C1395 C1401 1.363 . S
C1396 C1397 1.363 . S
C1396 C1401 1.379 . S
C1396 N1403 1.356 . S
C1397 C1396 1.363 . S
C1397 C1400 1.363 . S
N1398 C1400 1.356 . S
N1398 H1410 0.984 . S
N1398 H1411 0.985 . S
N1399 C1401 1.356 . S
N1399 H1404 0.984 . S
N1399 H1405 0.985 . S
C1400 C1394 1.379 . S
C1400 C1397 1.363 . S
C1400 N1398 1.356 . S
C1401 C1395 1.363 . S
C1401 C1396 1.379 . S
C1401 N1399 1.356 . S
N1402 C1394 1.356 . S
N1402 H1408 0.984 . S
N1402 H1409 0.984 . S
N1403 C1396 1.356 . S
N1403 H1406 0.984 . S
N1403 H1407 0.985 . S
H1404 N1399 0.984 . S
H1405 N1399 0.985 . S
H1406 N1403 0.984 . S
H1407 N1403 0.985 . S
H1408 N1402 0.984 . S
H1409 N1402 0.984 . S
H1410 N1398 0.984 . S
H1411 N1398 0.985 . S
C1412 C1413 1.363 . S
C1412 C1418 1.379 . S
C1412 N1420 1.356 . S
C1413 C1412 1.363 . S
C1413 C1419 1.363 . S
C1414 C1415 1.363 . S
C1414 C1419 1.379 . S
C1414 N1421 1.356 . S
C1415 C1414 1.363 . S
C1415 C1418 1.363 . S
N1416 C1418 1.356 . S
N1416 H1428 0.984 . S
N1416 H1429 0.985 . S
N1417 C1419 1.356 . S
N1417 H1422 0.984 . S
N1417 H1423 0.985 . S
C1418 C1412 1.379 . S
C1418 C1415 1.363 . S
C1418 N1416 1.356 . S
C1419 C1413 1.363 . S
C1419 C1414 1.379 . S
C1419 N1417 1.356 . S
N1420 C1412 1.356 . S
N1420 H1426 0.984 . S
N1420 H1427 0.984 . S
N1421 C1414 1.356 . S
N1421 H1424 0.984 . S
N1421 H1425 0.985 . S
H1422 N1417 0.984 . S
H1423 N1417 0.985 . S
H1424 N1421 0.984 . S
H1425 N1421 0.985 . S
H1426 N1420 0.984 . S
H1427 N1420 0.984 . S
H1428 N1416 0.984 . S
H1429 N1416 0.985 . S
C1430 C1431 1.363 . S
C1430 C1436 1.379 . S
C1430 N1438 1.356 . S
C1431 C1430 1.363 . S
C1431 C1437 1.363 . S
C1432 C1433 1.363 . S
C1432 C1437 1.379 . S
C1432 N1439 1.356 . S
C1433 C1432 1.363 . S
C1433 C1436 1.363 . S
N1434 C1436 1.356 . S
N1434 H1446 0.984 . S
N1434 H1447 0.985 . S
N1435 C1437 1.356 . S
N1435 H1440 0.984 . S
N1435 H1441 0.985 . S
C1436 C1430 1.379 . S
C1436 C1433 1.363 . S
C1436 N1434 1.356 . S
C1437 C1431 1.363 . S
C1437 C1432 1.379 . S
C1437 N1435 1.356 . S
N1438 C1430 1.356 . S
N1438 H1444 0.984 . S
N1438 H1445 0.984 . S
N1439 C1432 1.356 . S
N1439 H1442 0.984 . S
N1439 H1443 0.985 . S
H1440 N1435 0.984 . S
H1441 N1435 0.985 . S
H1442 N1439 0.984 . S
H1443 N1439 0.985 . S
H1444 N1438 0.984 . S
H1445 N1438 0.984 . S
H1446 N1434 0.984 . S
H1447 N1434 0.985 . S
C1448 C1449 1.363 . S
C1448 C1454 1.379 . S
C1448 N1456 1.356 . S
C1449 C1448 1.363 . S
C1449 C1455 1.363 . S
C1450 C1451 1.363 . S
C1450 C1455 1.379 . S
C1450 N1457 1.356 . S
C1451 C1450 1.363 . S
C1451 C1454 1.363 . S
N1452 C1454 1.356 . S
N1452 H1464 0.984 . S
N1452 H1465 0.985 . S
N1453 C1455 1.356 . S
N1453 H1458 0.984 . S
N1453 H1459 0.985 . S
C1454 C1448 1.379 . S
C1454 C1451 1.363 . S
C1454 N1452 1.356 . S
C1455 C1449 1.363 . S
C1455 C1450 1.379 . S
C1455 N1453 1.356 . S
N1456 C1448 1.356 . S
N1456 H1462 0.984 . S
N1456 H1463 0.984 . S
N1457 C1450 1.356 . S
N1457 H1460 0.984 . S
N1457 H1461 0.985 . S
H1458 N1453 0.984 . S
H1459 N1453 0.985 . S
H1460 N1457 0.984 . S
H1461 N1457 0.985 . S
H1462 N1456 0.984 . S
H1463 N1456 0.984 . S
H1464 N1452 0.984 . S
H1465 N1452 0.985 . S
C1466 C1467 1.363 . S
C1466 C1472 1.379 . S
C1466 N1474 1.356 . S
C1467 C1466 1.363 . S
C1467 C1473 1.363 . S
C1468 C1469 1.363 . S
C1468 C1473 1.379 . S
C1468 N1475 1.356 . S
C1469 C1468 1.363 . S
C1469 C1472 1.363 . S
N1470 C1472 1.356 . S
N1470 H1482 0.984 . S
N1470 H1483 0.985 . S
N1471 C1473 1.356 . S
N1471 H1476 0.984 . S
N1471 H1477 0.985 . S
C1472 C1466 1.379 . S
C1472 C1469 1.363 . S
C1472 N1470 1.356 . S
C1473 C1467 1.363 . S
C1473 C1468 1.379 . S
C1473 N1471 1.356 . S
N1474 C1466 1.356 . S
N1474 H1480 0.984 . S
N1474 H1481 0.984 . S
N1475 C1468 1.356 . S
N1475 H1478 0.984 . S
N1475 H1479 0.985 . S
H1476 N1471 0.984 . S
H1477 N1471 0.985 . S
H1478 N1475 0.984 . S
H1479 N1475 0.985 . S
H1480 N1474 0.984 . S
H1481 N1474 0.984 . S
H1482 N1470 0.984 . S
H1483 N1470 0.985 . S
C1484 C1485 1.363 . S
C1484 C1490 1.379 . S
C1484 N1492 1.356 . S
C1485 C1484 1.363 . S
C1485 C1491 1.363 . S
C1486 C1487 1.363 . S
C1486 C1491 1.379 . S
C1486 N1493 1.356 . S
C1487 C1486 1.363 . S
C1487 C1490 1.363 . S
N1488 C1490 1.356 . S
N1488 H1500 0.984 . S
N1488 H1501 0.985 . S
N1489 C1491 1.356 . S
N1489 H1494 0.984 . S
N1489 H1495 0.985 . S
C1490 C1484 1.379 . S
C1490 C1487 1.363 . S
C1490 N1488 1.356 . S
C1491 C1485 1.363 . S
C1491 C1486 1.379 . S
C1491 N1489 1.356 . S
N1492 C1484 1.356 . S
N1492 H1498 0.984 . S
N1492 H1499 0.984 . S
N1493 C1486 1.356 . S
N1493 H1496 0.984 . S
N1493 H1497 0.985 1_554 S
H1494 N1489 0.984 . S
H1495 N1489 0.985 . S
H1496 N1493 0.984 . S
H1497 N1493 0.985 1_556 S
H1498 N1492 0.984 . S
H1499 N1492 0.984 . S
H1500 N1488 0.984 . S
H1501 N1488 0.985 . S
C1502 C1503 1.363 . S
C1502 C1508 1.379 . S
C1502 N1510 1.356 . S
C1503 C1502 1.363 . S
C1503 C1509 1.363 . S
C1504 C1505 1.363 . S
C1504 C1509 1.379 . S
C1504 N1511 1.356 . S
C1505 C1504 1.363 . S
C1505 C1508 1.363 . S
N1506 C1508 1.356 . S
N1506 H1518 0.984 . S
N1506 H1519 0.985 . S
N1507 C1509 1.356 1_554 S
N1507 H1512 0.984 . S
N1507 H1513 0.985 . S
C1508 C1502 1.379 . S
C1508 C1505 1.363 . S
C1508 N1506 1.356 . S
C1509 C1503 1.363 . S
C1509 C1504 1.379 . S
C1509 N1507 1.356 1_556 S
N1510 C1502 1.356 . S
N1510 H1516 0.984 . S
N1510 H1517 0.984 . S
N1511 C1504 1.356 . S
N1511 H1514 0.984 . S
N1511 H1515 0.985 1_556 S
H1512 N1507 0.984 . S
H1513 N1507 0.985 . S
H1514 N1511 0.984 . S
H1515 N1511 0.985 1_554 S
H1516 N1510 0.984 . S
H1517 N1510 0.984 . S
H1518 N1506 0.984 . S
H1519 N1506 0.985 . S
C945 C33 1.650 . S
C947 C741 1.650 . S
C963 C111 1.641 . S
C965 C347 1.640 . S
C981 C151 1.650 . S
C983 C859 1.650 . S
C999 C465 1.641 . S
C1001 C229 1.640 . S
C1017 C878 1.640 . S
C1019 C170 1.640 . S
C1035 C446 1.650 . S
C1037 C210 1.651 . S
C1053 C760 1.640 . S
C1055 C52 1.640 . S
C1071 C328 1.651 . S
C1073 C92 1.650 . S
C1089 C269 1.650 . S
C1091 C505 1.650 . S
C1107 C387 1.650 . S
C1109 C623 1.650 . S
C1125 C642 1.640 . S
C1127 C406 1.640 . S
C1143 C288 1.640 . S
C1145 C524 1.640 . S
C1161 C819 1.640 . S
C1163 C583 1.640 . S
C1179 C701 1.639 . S
C1181 C937 1.639 . S
C1197 C682 1.650 . S
C1199 C918 1.650 . S
C1215 C564 1.650 . S
C1217 C800 1.650 . S
C1233 C654 1.515 . S
C1235 C5 1.515 . S
C1251 C475 1.514 . S
C1253 C62 1.514 . S
C1269 C123 1.514 . S
C1271 C536 1.514 . S
C1287 C593 1.514 . S
C1289 C180 1.514 . S
C1305 C652 1.514 . S
C1307 C121 1.514 . S
C1323 C182 1.514 . S
C1325 C477 1.514 . S
C1341 C534 1.514 . S
C1343 C3 1.514 . S
C1359 C595 1.514 . S
C1361 C64 1.514 . S
C1377 C241 1.515 . S
C1379 C890 1.515 . S
C1395 C711 1.514 . S
C1397 C298 1.514 . S
C1413 C359 1.514 . S
C1415 C772 1.514 . S
C1431 C416 1.514 . S
C1433 C829 1.514 . S
C1449 C357 1.514 . S
C1451 C888 1.514 . S
C1467 C713 1.515 . S
C1469 C418 1.515 . S
C1485 C770 1.514 . S
C1487 C239 1.514 . S
C1503 C831 1.514 . S
C1505 C300 1.514 . S
