# Generated by pormake.
# Topology kag, (6)-cn, num edge types: 1
# Building blocks:
#     Node 0, Type 0, BuildingBlock: INOVEN_clean_sbu_0, # of connection points: 6
#     Node 1, Type 0, BuildingBlock: INOVEN_clean_sbu_0, # of connection points: 6
#     Node 2, Type 0, BuildingBlock: INOVEN_clean_sbu_0, # of connection points: 6
#     Edge 3, Type (0, 0), BuildingBlock: TEMPAE_clean_linker_10, # of connection points: 2
#     Edge 4, Type (0, 0), BuildingBlock: TEMPAE_clean_linker_10, # of connection points: 2
#     Edge 5, Type (0, 0), BuildingBlock: TEMPAE_clean_linker_10, # of connection points: 2
#     Edge 6, Type (0, 0), BuildingBlock: TEMPAE_clean_linker_10, # of connection points: 2
#     Edge 7, Type (0, 0), BuildingBlock: TEMPAE_clean_linker_10, # of connection points: 2
#     Edge 8, Type (0, 0), BuildingBlock: TEMPAE_clean_linker_10, # of connection points: 2
#     Edge 9, Type (0, 0), BuildingBlock: TEMPAE_clean_linker_10, # of connection points: 2
#     Edge 10, Type (0, 0), BuildingBlock: TEMPAE_clean_linker_10, # of connection points: 2
#     Edge 11, Type (0, 0), BuildingBlock: TEMPAE_clean_linker_10, # of connection points: 2
# Relax obj value: 0.072
# Max RMSD: 0.199
# Mean RMSD: 0.105
data_MOF--net-kag--node1-INOVEN_clean_sbu_0--edge1-TEMPAE_clean_linker_10
_symmetry_space_group_name_H-M    P1
_symmetry_Int_Tables_number       1
_symmetry_cell_setting            triclinic
loop_
_symmetry_equiv_pos_as_xyz
'x, y, z'
_cell_length_a     32.198234
_cell_length_b     42.753461
_cell_length_c     14.901186
_cell_angle_alpha  96.973744
_cell_angle_beta   91.379575
_cell_angle_gamma 97.435245
loop_
_atom_site_label
_atom_site_type_symbol
_atom_site_fract_x
_atom_site_fract_y
_atom_site_fract_z
_atom_type_partial_charge
Gd0 Gd 1.04409 0.47481 0.99969 0.0
Gd1 Gd 0.05303 0.54352 0.00358 0.0
C2 C 0.95818 0.50932 0.99102 0.0
C3 C 1.02387 0.41696 0.03408 0.0
C4 C 0.988 0.39117 0.02097 0.0
C5 C 0.9884 0.36579 0.95176 0.0
C6 C 0.95464 0.39039 0.0803 0.0
C7 C 0.92351 0.33895 0.00261 0.0
C8 C 0.92273 0.36453 0.07117 0.0
C9 C 0.95645 0.34006 0.94241 0.0
C10 C 0.05175 0.49278 0.83228 0.0
C11 C 0.13898 0.50901 0.00963 0.0
C12 C 0.07231 0.60225 0.97598 0.0
C13 C 0.10771 0.62838 0.9881 0.0
C14 C 0.10641 0.65411 0.05568 0.0
C15 C 0.14123 0.62927 0.9292 0.0
C16 C 0.1703 0.68184 0.00299 0.0
C17 C 0.17225 0.65572 0.93672 0.0
C18 C 0.13742 0.68043 0.06337 0.0
C19 C 1.04439 0.5239 0.16883 0.0
O20 O 0.97498 0.48331 0.00325 0.0
O21 O 0.98254 0.5358 0.97968 0.0
O22 O 1.04306 0.42423 0.96162 0.0
O23 O 1.02028 0.44195 0.09212 0.0
O24 O 0.06745 0.46895 0.85911 0.0
O25 O 1.03033 0.50522 0.8938 0.0
O26 O 0.12214 0.5351 0.99854 0.0
O27 O 0.11473 0.48246 0.02067 0.0
O28 O 0.05504 0.59376 0.04928 0.0
O29 O 0.07501 0.57807 0.91447 0.0
O30 O 1.02596 0.54646 0.14192 0.0
O31 O 0.06751 0.51326 0.10832 0.0
H32 H 1.01395 0.36544 0.90581 0.0
H33 H 0.95349 0.40945 0.13478 0.0
H34 H 0.89761 0.36442 0.11823 0.0
H35 H 0.95834 0.3205 0.88983 0.0
H36 H 0.08086 0.65421 0.10168 0.0
H37 H 0.14302 0.60994 0.87587 0.0
H38 H 0.19693 0.65617 0.8886 0.0
H39 H 0.13532 0.69991 0.11609 0.0
Gd40 Gd 0.59549 0.01348 0.9854 0.0
Gd41 Gd 0.50424 1.0039 0.997 0.0
C42 C 0.5445 0.07547 0.01475 0.0
C43 C 0.67128 0.03356 0.94578 0.0
C44 C 0.69583 0.06522 0.94591 0.0
C45 C 0.73433 0.07243 0.99482 0.0
C46 C 0.6807 0.08879 0.90091 0.0
C47 C 0.74205 0.12646 0.95523 0.0
C48 C 0.70367 0.11906 0.90532 0.0
C49 C 0.75717 0.10273 0.99968 0.0
C50 C 0.57078 1.00555 0.15461 0.0
C51 C 0.5551 0.942 0.97271 0.0
C52 C 0.42731 0.98347 0.02719 0.0
C53 C 0.40396 0.95157 0.02965 0.0
C54 C 0.36549 0.94314 0.98114 0.0
C55 C 0.42053 0.92881 0.07559 0.0
C56 C 0.36063 0.88952 0.02299 0.0
C57 C 0.39895 0.8981 0.07259 0.0
C58 C 0.34405 0.91242 0.97767 0.0
C59 C 0.53088 0.01216 0.82945 0.0
O60 O 0.57836 0.06352 0.98556 0.0
O61 O 0.51137 0.05667 0.03594 0.0
O62 O 0.66141 0.02556 0.02517 0.0
O63 O 0.64049 0.02545 0.88512 0.0
O64 O 0.60303 0.99465 0.11825 0.0
O65 O 0.55409 0.0218 0.10156 0.0
O66 O 0.52134 0.95414 0.00143 0.0
O67 O 0.58822 0.96053 0.95033 0.0
O68 O 0.43979 0.98968 0.94777 0.0
O69 O 0.4558 0.99374 0.0917 0.0
O70 O 0.50079 0.02569 0.86703 0.0
O71 O 0.54549 0.9948 0.88193 0.0
H72 H 0.74649 0.05469 0.03044 0.0
H73 H 0.65102 0.08397 0.86277 0.0
H74 H 0.69151 0.13659 0.86902 0.0
H75 H 0.78635 0.10774 0.03964 0.0
H76 H 0.35223 0.96028 0.94504 0.0
H77 H 0.45042 0.93455 0.11277 0.0
H78 H 0.41263 0.8809 0.10761 0.0
H79 H 0.3143 0.90663 0.93997 0.0
Gd80 Gd 0.55637 0.54414 0.00541 0.0
Gd81 Gd 0.54211 0.47447 0.99924 0.0
C82 C 0.4591 0.50817 0.00755 0.0
C83 C 0.55789 0.60356 0.98483 0.0
C84 C 0.55963 0.63794 0.97494 0.0
C85 C 0.58722 0.66075 0.03084 0.0
C86 C 0.53249 0.6485 0.91324 0.0
C87 C 0.55947 0.70406 0.96615 0.0
C88 C 0.53238 0.68114 0.90892 0.0
C89 C 0.58722 0.6933 0.02637 0.0
C90 C 0.56032 0.52445 0.17226 0.0
C91 C 0.63805 0.50998 0.99759 0.0
C92 C 0.54122 0.41444 0.01168 0.0
C93 C 0.54096 0.37982 0.0164 0.0
C94 C 0.54862 0.35939 0.93905 0.0
C95 C 0.53297 0.36675 0.09743 0.0
C96 C 0.53995 0.31347 0.02316 0.0
C97 C 0.53247 0.334 0.10079 0.0
C98 C 0.54819 0.32674 0.94239 0.0
C99 C 0.53622 0.49598 0.8356 0.0
O100 O 0.48437 0.53365 0.98995 0.0
O101 O 0.47481 0.48225 0.02455 0.0
O102 O 0.57935 0.59375 0.0489 0.0
O103 O 0.536 0.58079 0.92988 0.0
O104 O 0.58355 0.54864 0.14769 0.0
O105 O 0.53417 0.51256 0.10886 0.0
O106 O 0.61321 0.48684 0.02899 0.0
O107 O 0.62131 0.53347 0.96665 0.0
O108 O 0.54654 0.42661 0.93592 0.0
O109 O 0.53637 0.43509 0.08168 0.0
O110 O 0.50988 0.47377 0.86233 0.0
O111 O 0.56431 0.50598 0.89649 0.0
H112 H 0.60867 0.65349 0.07897 0.0
H113 H 0.51067 0.63156 0.86956 0.0
H114 H 0.51026 0.68839 0.86228 0.0
H115 H 0.60912 0.71006 0.0703 0.0
H116 H 0.55511 0.36863 0.87557 0.0
H117 H 0.52686 0.38181 0.15823 0.0
H118 H 0.52558 0.32471 0.16401 0.0
H119 H 0.55484 0.31193 0.88159 0.0
C120 C 0.05369 0.47233 0.66832 0.0
C121 C 0.04912 0.49759 0.73528 0.0
C122 C 0.05201 0.47602 0.57587 0.0
C123 C 1.0473 0.5061 0.54925 0.0
C124 C 1.04309 0.53184 0.61672 0.0
C125 C 1.04315 0.52709 0.70883 0.0
C126 C 0.05494 0.44758 0.50663 0.0
C127 C 1.03932 0.56455 0.59175 0.0
C128 C 0.08372 0.51978 0.31301 0.0
C129 C 1.04552 0.51764 0.26425 0.0
C130 C 0.08476 0.51694 0.40628 0.0
C131 C 1.0467 0.51042 0.45085 0.0
C132 C 1.00809 0.50729 0.40065 0.0
C133 C 1.00798 0.51171 0.30855 0.0
C134 C 0.12655 0.52159 0.45754 0.0
C135 C 0.96687 0.49897 0.44393 0.0
H136 H 0.05796 0.44935 0.68818 0.0
H137 H 1.03959 0.54666 0.76018 0.0
H138 H 1.02757 0.44389 0.45801 0.0
H139 H 0.08346 0.45184 0.46728 0.0
H140 H 0.05607 0.42544 0.53817 0.0
H141 H 1.03834 0.58237 0.65223 0.0
H142 H 0.06628 0.57253 0.55127 0.0
H143 H 1.01045 0.56387 0.54907 0.0
H144 H 0.11274 0.52488 0.27892 0.0
H145 H 0.97845 0.51011 0.27061 0.0
H146 H 0.13166 0.49946 0.48557 0.0
H147 H 0.12684 0.54054 0.5156 0.0
H148 H 0.15308 0.52819 0.41422 0.0
H149 H 0.96715 0.47665 0.47488 0.0
H150 H 0.93979 0.49583 0.39455 0.0
H151 H 0.9622 0.51794 0.49898 0.0
C152 C 0.59979 0.01602 0.31403 0.0
C153 C 0.5649 1.00804 0.25358 0.0
C154 C 0.59539 0.01765 0.4082 0.0
C155 C 0.55529 0.00988 0.44299 0.0
C156 C 0.51998 1.00144 0.38187 0.0
C157 C 0.52514 1.00116 0.28804 0.0
C158 C 0.63369 0.02785 0.47049 0.0
C159 C 0.47685 0.99205 0.41543 0.0
C160 C 0.55157 0.98501 0.68129 0.0
C161 C 0.53966 0.01197 0.73207 0.0
C162 C 0.55622 0.98383 0.5871 0.0
C163 C 0.55034 0.01068 0.54314 0.0
C164 C 0.53973 0.03834 0.59512 0.0
C165 C 0.53377 0.03842 0.68844 0.0
C166 C 0.56639 0.95354 0.53426 0.0
C167 C 0.53466 0.06791 0.55218 0.0
H168 H 0.63061 0.02144 0.28754 0.0
H169 H 0.49826 0.99449 0.24152 0.0
H170 H 0.62842 0.04841 0.51994 0.0
H171 H 0.63949 1.00829 0.50968 0.0
H172 H 0.66222 0.03464 0.43306 0.0
H173 H 0.45291 0.98504 0.35919 0.0
H174 H 0.47741 0.97184 0.45551 0.0
H175 H 0.46717 0.01209 0.46092 0.0
H176 H 0.55575 0.9644 0.71467 0.0
H177 H 0.52476 0.05936 0.72769 0.0
H178 H 0.5964 0.95818 0.50018 0.0
H179 H 0.54169 0.94478 0.48059 0.0
H180 H 0.56892 0.93452 0.5779 0.0
H181 H 0.56328 0.07534 0.51593 0.0
H182 H 0.52878 0.08802 0.60274 0.0
H183 H 0.50813 0.06289 0.50144 0.0
C184 C 0.57842 0.50361 0.6991 0.0
C185 C 0.53947 0.50134 0.73948 0.0
C186 C 0.58147 0.50623 0.60607 0.0
C187 C 0.5449 0.50804 0.55289 0.0
C188 C 0.50562 0.50668 0.5944 0.0
C189 C 0.50328 0.5026 0.68665 0.0
C190 C 0.62376 0.50644 0.56436 0.0
C191 C 0.46611 0.50991 0.54167 0.0
C192 C 0.56234 0.54624 0.33595 0.0
C193 C 0.55522 0.51991 0.26883 0.0
C194 C 0.55797 0.54278 0.42807 0.0
C195 C 0.54791 0.51205 0.45451 0.0
C196 C 0.54116 0.4853 0.38687 0.0
C197 C 0.54403 0.48964 0.29475 0.0
C198 C 0.56384 0.5721 0.49707 0.0
C199 C 0.53179 0.45202 0.41189 0.0
H200 H 0.60638 0.50223 0.73968 0.0
H201 H 0.47316 0.50092 0.71801 0.0
H202 H 0.62219 0.48721 0.50669 0.0
H203 H 0.63274 0.52927 0.53719 0.0
H204 H 0.64873 0.50312 0.61374 0.0
H205 H 0.43845 0.5099 0.58482 0.0
H206 H 0.47028 0.53234 0.51049 0.0
H207 H 0.45954 0.49008 0.48586 0.0
H208 H 0.57064 0.56977 0.31623 0.0
H209 H 0.53872 0.46925 0.24318 0.0
H210 H 0.5912 0.57151 0.54316 0.0
H211 H 0.53593 0.57268 0.53921 0.0
H212 H 0.56887 0.59438 0.46509 0.0
H213 H 0.5571 0.44731 0.45831 0.0
H214 H 0.52888 0.43368 0.35166 0.0
H215 H 0.50219 0.44952 0.44842 0.0
C216 C 0.20384 0.48318 0.96936 0.0
C217 C 0.186 0.50947 0.00997 0.0
C218 C 0.24789 0.48335 0.96678 0.0
C219 C 0.27557 0.50985 0.00982 0.0
C220 C 0.25757 0.53622 0.05274 0.0
C221 C 0.2134 0.53603 0.05027 0.0
C222 C 0.26478 0.45518 0.91656 0.0
C223 C 0.28491 0.56469 0.10233 0.0
C224 C 0.38772 0.49392 0.07203 0.0
C225 C 0.4123 0.50885 0.00862 0.0
C226 C 0.34387 0.49491 0.07492 0.0
C227 C 0.323 0.50984 0.00998 0.0
C228 C 0.34769 0.52439 0.94458 0.0
C229 C 0.3918 0.52438 0.94609 0.0
C230 C 0.31994 0.48019 0.14855 0.0
C231 C 0.32748 0.53965 0.87173 0.0
H232 H 0.18322 0.46261 0.93716 0.0
H233 H 0.20022 0.55648 0.08219 0.0
H234 H 0.28925 0.46328 0.87016 0.0
H235 H 0.27962 0.44196 0.96534 0.0
H236 H 0.23981 0.43854 0.87653 0.0
H237 H 0.26646 0.58028 0.14589 0.0
H238 H 0.30948 0.55705 0.14514 0.0
H239 H 0.30092 0.57893 0.05275 0.0
H240 H 0.40303 0.48206 0.12124 0.0
H241 H 0.4102 0.53584 0.89634 0.0
H242 H 0.29947 0.45835 0.1189 0.0
H243 H 0.29944 0.49684 0.18128 0.0
H244 H 0.34114 0.47377 0.20129 0.0
H245 H 0.30003 0.5235 0.83926 0.0
H246 H 0.34967 0.54582 0.81866 0.0
H247 H 0.31598 0.56174 0.90212 0.0
C248 C 0.74569 0.18597 0.97333 0.0
C249 C 0.76621 0.15881 0.96132 0.0
C250 C 0.76826 0.21662 0.98005 0.0
C251 C 0.81245 0.22019 0.97523 0.0
C252 C 0.83333 0.19289 0.96307 0.0
C253 C 0.80997 0.16257 0.95597 0.0
C254 C 0.74486 0.24514 0.99288 0.0
C255 C 0.88043 0.19569 0.95766 0.0
C256 C 0.87436 0.2956 0.91207 0.0
C257 C 0.89155 0.31031 0.99647 0.0
C258 C 0.84721 0.26685 0.90452 0.0
C259 C 0.83718 0.25239 0.98322 0.0
C260 C 0.85321 0.26771 0.06896 0.0
C261 C 0.88016 0.29651 0.07456 0.0
C262 C 0.83039 0.25143 0.812 0.0
C263 C 0.84336 0.25301 0.15442 0.0
H264 H 0.71197 0.18329 0.97895 0.0
H265 H 0.82602 0.14173 0.94538 0.0
H266 H 0.75534 0.25995 0.0578 0.0
H267 H 0.75195 0.26019 0.93808 0.0
H268 H 0.71037 0.23828 0.99308 0.0
H269 H 0.89188 0.17213 0.94873 0.0
H270 H 0.89066 0.20864 0.90016 0.0
H271 H 0.89559 0.20964 0.02023 0.0
H272 H 0.88261 0.3064 0.85165 0.0
H273 H 0.89367 0.30758 0.13988 0.0
H274 H 0.79578 0.24567 0.81176 0.0
H275 H 0.84333 0.22873 0.79479 0.0
H276 H 0.83861 0.26686 0.75846 0.0
H277 H 0.80899 0.24693 0.15908 0.0
H278 H 0.85569 0.26904 0.21622 0.0
H279 H 0.85732 0.23055 0.15287 0.0
C280 C 0.51825 0.8865 0.97454 0.0
C281 C 0.55551 0.90695 0.96699 0.0
C282 C 0.51808 0.85344 0.97148 0.0
C283 C 0.55619 0.84031 0.96178 0.0
C284 C 0.59387 0.86078 0.95349 0.0
C285 C 0.59305 0.89375 0.95568 0.0
C286 C 0.47707 0.83263 0.97984 0.0
C287 C 0.63525 0.8479 0.94373 0.0
C288 C 0.56293 0.76005 0.04537 0.0
C289 C 0.55839 0.73898 0.96456 0.0
C290 C 0.56234 0.79292 0.04534 0.0
C291 C 0.55682 0.80531 0.96253 0.0
C292 C 0.55191 0.78423 0.88074 0.0
C293 C 0.55283 0.75144 0.88269 0.0
C294 C 0.56761 0.81443 0.13418 0.0
C295 C 0.54574 0.79635 0.791 0.0
H296 H 0.48899 0.89631 0.98268 0.0
H297 H 0.62203 0.90925 0.95007 0.0
H298 H 0.47265 0.81255 0.92434 0.0
H299 H 0.47754 0.82228 0.04456 0.0
H300 H 0.44974 0.84599 0.97806 0.0
H301 H 0.66163 0.86679 0.93637 0.0
H302 H 0.64216 0.83622 0.00391 0.0
H303 H 0.63354 0.82957 0.88383 0.0
H304 H 0.56645 0.7508 0.10927 0.0
H305 H 0.54975 0.73559 0.81969 0.0
H306 H 0.53958 0.82679 0.14515 0.0
H307 H 0.59497 0.83299 0.13254 0.0
H308 H 0.57222 0.80121 0.19261 0.0
H309 H 0.51763 0.80889 0.79196 0.0
H310 H 0.54186 0.77692 0.73354 0.0
H311 H 0.57302 0.81381 0.77907 0.0
C312 C 0.89338 0.53603 0.02525 0.0
C313 C 0.91114 0.5089 0.9906 0.0
C314 C 0.84935 0.53593 0.02815 0.0
C315 C 0.82157 0.50843 0.99206 0.0
C316 C 0.83943 0.48114 0.95528 0.0
C317 C 0.88362 0.48147 0.95685 0.0
C318 C 0.83255 0.56526 0.07142 0.0
C319 C 0.81181 0.45155 0.91304 0.0
C320 C 0.70628 0.49662 0.06343 0.0
C321 C 0.68485 0.50928 0.99583 0.0
C322 C 0.75039 0.49663 0.06383 0.0
C323 C 0.77414 0.50834 0.9928 0.0
C324 C 0.75237 0.52039 0.9231 0.0
C325 C 0.70852 0.52132 0.92647 0.0
C326 C 0.77169 0.48456 0.14154 0.0
C327 C 0.77537 0.53205 0.84398 0.0
H328 H 0.91406 0.55729 0.05252 0.0
H329 H 0.8967 0.46036 0.92956 0.0
H330 H 0.81467 0.57544 0.02016 0.0
H331 H 0.81059 0.55892 0.12465 0.0
H332 H 0.8579 0.58384 0.10227 0.0
H333 H 0.83023 0.43353 0.87949 0.0
H334 H 0.79313 0.44074 0.96565 0.0
H335 H 0.78939 0.45767 0.86229 0.0
H336 H 0.68862 0.48741 0.11774 0.0
H337 H 0.69251 0.5309 0.87328 0.0
H338 H 0.79746 0.50277 0.17228 0.0
H339 H 0.78589 0.46303 0.11655 0.0
H340 H 0.74962 0.47852 0.19492 0.0
H341 H 0.79789 0.55352 0.86764 0.0
H342 H 0.75373 0.53806 0.79141 0.0
H343 H 0.79373 0.51363 0.81264 0.0
C344 C 0.24391 0.70932 0.9949 0.0
C345 C 0.20112 0.71113 0.00663 0.0
C346 C 0.27292 0.73701 0.99713 0.0
C347 C 0.25875 0.76717 0.01148 0.0
C348 C 0.21565 0.76911 0.02348 0.0
C349 C 0.18742 0.74112 0.02063 0.0
C350 C 0.31864 0.73403 0.98392 0.0
C351 C 0.19924 0.8008 0.03865 0.0
C352 C 0.33213 0.84225 0.09783 0.0
C353 C 0.33762 0.85691 0.01893 0.0
C354 C 0.30774 0.81244 0.09588 0.0
C355 C 0.28862 0.79688 0.01297 0.0
C356 C 0.29549 0.811 0.93251 0.0
C357 C 0.31981 0.84088 0.93652 0.0
C358 C 0.30103 0.79823 0.18317 0.0
C359 C 0.27603 0.79502 0.84261 0.0
H360 H 0.25479 0.68625 0.9848 0.0
H361 H 0.15433 0.74275 0.02796 0.0
H362 H 0.32953 0.74562 0.92443 0.0
H363 H 0.3378 0.74649 0.04369 0.0
H364 H 0.3246 0.70885 0.97359 0.0
H365 H 0.16494 0.79821 0.04857 0.0
H366 H 0.21545 0.81549 0.09901 0.0
H367 H 0.20592 0.814 0.97981 0.0
H368 H 0.34565 0.85463 0.16176 0.0
H369 H 0.3246 0.85188 0.8751 0.0
H370 H 0.30828 0.7734 0.1753 0.0
H371 H 0.26761 0.79748 0.20045 0.0
H372 H 0.32069 0.81206 0.24048 0.0
H373 H 0.28341 0.77027 0.82985 0.0
H374 H 0.28708 0.80791 0.78543 0.0
H375 H 0.24142 0.79375 0.84394 0.0
C376 C 0.52188 0.25641 0.95261 0.0
C377 C 0.53926 0.27843 0.02589 0.0
C378 C 0.52209 0.22351 0.95268 0.0
C379 C 0.53991 0.21202 0.02808 0.0
C380 C 0.55699 0.23402 0.10282 0.0
C381 C 0.5565 0.26685 0.10082 0.0
C382 C 0.50369 0.20101 0.87135 0.0
C383 C 0.57632 0.22288 0.18454 0.0
C384 C 0.50929 0.12436 0.05623 0.0
C385 C 0.54368 0.11053 0.02102 0.0
C386 C 0.5079 0.15733 0.06016 0.0
C387 C 0.54152 0.17708 0.02748 0.0
C388 C 0.57638 0.16328 0.99224 0.0
C389 C 0.57715 0.13034 0.98996 0.0
C390 C 0.47022 0.17101 0.09865 0.0
C391 C 0.61291 0.18329 0.95645 0.0
H392 H 0.50782 0.26489 0.89495 0.0
H393 H 0.57048 0.28352 0.15739 0.0
H394 H 0.5282 0.18749 0.84109 0.0
H395 H 0.47848 0.18345 0.89226 0.0
H396 H 0.49053 0.21361 0.81858 0.0
H397 H 0.58654 0.24277 0.23885 0.0
H398 H 0.55353 0.20515 0.21231 0.0
H399 H 0.6039 0.21094 0.16455 0.0
H400 H 0.48329 0.10942 0.08065 0.0
H401 H 0.60394 0.12008 0.96268 0.0
H402 H 0.45433 0.18207 0.04613 0.0
H403 H 0.48031 0.19 0.15538 0.0
H404 H 0.4472 0.1527 0.1236 0.0
H405 H 0.6017 0.19792 0.90662 0.0
H406 H 0.63561 0.16861 0.92347 0.0
H407 H 0.62955 0.19986 0.01285 0.0
loop_
_geom_bond_atom_site_label_1
_geom_bond_atom_site_label_2
_geom_bond_distance
_geom_bond_site_symmetry_2
_ccdc_geom_bond_type
Gd0 C3 2.818 . S
Gd0 O20 2.377 . S
Gd0 O22 2.448 . S
Gd0 O23 2.506 1_556 S
Gd0 O24 2.435 . S
Gd0 O25 2.717 1_655 S
Gd0 O27 2.395 1_655 S
Gd0 O31 2.327 1_556 S
Gd1 C12 2.818 . S
Gd1 O21 2.395 1_455 S
Gd1 O25 2.327 1_554 S
Gd1 O26 2.377 . S
Gd1 O28 2.448 . S
Gd1 O29 2.506 1_554 S
Gd1 O30 2.435 . S
Gd1 O31 2.717 1_455 S
C2 O20 1.242 . S
C2 O21 1.239 1_556 S
C3 Gd0 2.818 . S
C3 C4 1.510 . S
C3 O22 1.249 . S
C3 O23 1.252 1_556 S
C4 C3 1.510 . S
C4 C5 1.404 . S
C4 C6 1.352 1_556 S
C5 C4 1.404 . S
C5 C9 1.389 . S
C5 H32 0.930 . S
C6 C4 1.352 1_554 S
C6 C8 1.374 . S
C6 H33 0.931 . S
C7 C8 1.355 1_556 S
C7 C9 1.368 . S
C8 C6 1.374 . S
C8 C7 1.355 1_554 S
C8 H34 0.931 . S
C9 C5 1.389 . S
C9 C7 1.368 . S
C9 H35 0.931 . S
C10 O24 1.256 1_455 S
C10 O25 1.257 . S
C11 O26 1.245 . S
C11 O27 1.238 1_554 S
C12 Gd1 2.818 . S
C12 C13 1.510 . S
C12 O28 1.249 . S
C12 O29 1.252 1_554 S
C13 C12 1.510 . S
C13 C14 1.404 . S
C13 C15 1.352 1_554 S
C14 C13 1.404 . S
C14 C18 1.389 . S
C14 H36 0.930 . S
C15 C13 1.352 1_556 S
C15 C17 1.374 . S
C15 H37 0.931 . S
C16 C17 1.350 1_554 S
C16 C18 1.375 . S
C17 C15 1.374 . S
C17 C16 1.350 1_556 S
C17 H38 0.931 . S
C18 C14 1.389 . S
C18 C16 1.375 . S
C18 H39 0.931 . S
C19 O30 1.256 . S
C19 O31 1.257 1_455 S
O20 Gd0 2.377 . S
O20 C2 1.242 . S
O21 Gd1 2.395 1_655 S
O21 C2 1.239 1_554 S
O22 Gd0 2.448 . S
O22 C3 1.249 . S
O23 Gd0 2.506 1_554 S
O23 C3 1.252 1_554 S
O24 Gd0 2.435 . S
O24 C10 1.256 1_655 S
O25 Gd0 2.717 1_455 S
O25 Gd1 2.327 1_556 S
O25 C10 1.257 . S
O26 Gd1 2.377 . S
O26 C11 1.245 . S
O27 Gd0 2.395 1_455 S
O27 C11 1.238 1_556 S
O28 Gd1 2.448 . S
O28 C12 1.249 . S
O29 Gd1 2.506 1_556 S
O29 C12 1.252 1_556 S
O30 Gd1 2.435 . S
O30 C19 1.256 . S
O31 Gd0 2.327 1_554 S
O31 Gd1 2.717 1_655 S
O31 C19 1.257 1_655 S
H32 C5 0.930 . S
H33 C6 0.931 . S
H34 C8 0.931 . S
H35 C9 0.931 . S
H36 C14 0.930 . S
H37 C15 0.931 . S
H38 C17 0.931 . S
H39 C18 0.931 . S
Gd40 C43 2.818 . S
Gd40 O60 2.377 . S
Gd40 O62 2.448 . S
Gd40 O63 2.506 1_554 S
Gd40 O64 2.435 . S
Gd40 O65 2.717 1_545 S
Gd40 O67 2.395 1_545 S
Gd40 O71 2.327 1_554 S
Gd41 C52 2.818 . S
Gd41 O61 2.395 1_565 S
Gd41 O65 2.327 1_556 S
Gd41 O66 2.377 . S
Gd41 O68 2.448 . S
Gd41 O69 2.506 1_556 S
Gd41 O70 2.435 . S
Gd41 O71 2.717 1_565 S
C42 O60 1.240 . S
C42 O61 1.240 1_554 S
C43 Gd40 2.818 . S
C43 C44 1.510 1_554 S
C43 O62 1.249 . S
C43 O63 1.252 1_554 S
C44 C43 1.510 1_556 S
C44 C45 1.404 1_556 S
C44 C46 1.352 . S
C45 C44 1.404 1_554 S
C45 C49 1.389 . S
C45 H72 0.930 . S
C46 C44 1.352 . S
C46 C48 1.374 . S
C46 H73 0.931 . S
C47 C48 1.359 . S
C47 C49 1.364 1_556 S
C48 C46 1.374 . S
C48 C47 1.359 . S
C48 H74 0.931 . S
C49 C45 1.389 . S
C49 C47 1.364 1_554 S
C49 H75 0.931 . S
C50 O64 1.256 . S
C50 O65 1.257 1_545 S
C51 O66 1.240 . S
C51 O67 1.240 1_556 S
C52 Gd41 2.818 . S
C52 C53 1.510 1_556 S
C52 O68 1.249 . S
C52 O69 1.252 1_556 S
C53 C52 1.510 1_554 S
C53 C54 1.404 1_554 S
C53 C55 1.352 . S
C54 C53 1.404 1_556 S
C54 C58 1.389 . S
C54 H76 0.930 . S
C55 C53 1.352 . S
C55 C57 1.374 . S
C55 H77 0.931 . S
C56 C57 1.359 . S
C56 C58 1.364 1_554 S
C57 C55 1.374 . S
C57 C56 1.359 . S
C57 H78 0.931 . S
C58 C54 1.389 . S
C58 C56 1.364 1_556 S
C58 H79 0.931 . S
C59 O70 1.256 . S
C59 O71 1.257 1_565 S
O60 Gd40 2.377 . S
O60 C42 1.240 . S
O61 Gd41 2.395 1_545 S
O61 C42 1.240 1_556 S
O62 Gd40 2.448 . S
O62 C43 1.249 . S
O63 Gd40 2.506 1_556 S
O63 C43 1.252 1_556 S
O64 Gd40 2.435 . S
O64 C50 1.256 . S
O65 Gd40 2.717 1_565 S
O65 Gd41 2.327 1_554 S
O65 C50 1.257 1_565 S
O66 Gd41 2.377 . S
O66 C51 1.240 . S
O67 Gd40 2.395 1_565 S
O67 C51 1.240 1_554 S
O68 Gd41 2.448 . S
O68 C52 1.249 . S
O69 Gd41 2.506 1_554 S
O69 C52 1.252 1_554 S
O70 Gd41 2.435 . S
O70 C59 1.256 . S
O71 Gd40 2.327 1_556 S
O71 Gd41 2.717 1_545 S
O71 C59 1.257 1_545 S
H72 C45 0.930 . S
H73 C46 0.931 . S
H74 C48 0.931 . S
H75 C49 0.931 . S
H76 C54 0.930 . S
H77 C55 0.931 . S
H78 C57 0.931 . S
H79 C58 0.931 . S
Gd80 C83 2.818 . S
Gd80 O100 2.377 . S
Gd80 O102 2.448 . S
Gd80 O103 2.506 1_554 S
Gd80 O104 2.435 . S
Gd80 O105 2.717 . S
Gd80 O107 2.395 . S
Gd80 O111 2.327 1_554 S
Gd81 C92 2.818 . S
Gd81 O101 2.395 . S
Gd81 O105 2.327 1_556 S
Gd81 O106 2.377 . S
Gd81 O108 2.448 . S
Gd81 O109 2.506 1_556 S
Gd81 O110 2.435 . S
Gd81 O111 2.717 . S
C82 O100 1.239 1_556 S
C82 O101 1.241 . S
C83 Gd80 2.818 . S
C83 C84 1.510 . S
C83 O102 1.249 . S
C83 O103 1.252 1_554 S
C84 C83 1.510 . S
C84 C85 1.404 . S
C84 C86 1.352 1_554 S
C85 C84 1.404 . S
C85 C89 1.389 . S
C85 H112 0.930 . S
C86 C84 1.352 1_556 S
C86 C88 1.374 . S
C86 H113 0.931 . S
C87 C88 1.359 . S
C87 C89 1.364 1_556 S
C88 C86 1.374 . S
C88 C87 1.359 . S
C88 H114 0.931 . S
C89 C85 1.389 . S
C89 C87 1.364 1_554 S
C89 H115 0.931 . S
C90 O104 1.256 . S
C90 O105 1.257 . S
C91 O106 1.240 1_554 S
C91 O107 1.240 . S
C92 Gd81 2.818 . S
C92 C93 1.510 . S
C92 O108 1.249 . S
C92 O109 1.252 1_556 S
C93 C92 1.510 . S
C93 C94 1.404 . S
C93 C95 1.352 1_556 S
C94 C93 1.404 . S
C94 C98 1.389 . S
C94 H116 0.930 . S
C95 C93 1.352 1_554 S
C95 C97 1.374 . S
C95 H117 0.931 . S
C96 C97 1.359 . S
C96 C98 1.364 1_554 S
C97 C95 1.374 . S
C97 C96 1.359 . S
C97 H118 0.931 . S
C98 C94 1.389 . S
C98 C96 1.364 1_556 S
C98 H119 0.931 . S
C99 O110 1.256 . S
C99 O111 1.257 . S
O100 Gd80 2.377 . S
O100 C82 1.239 1_554 S
O101 Gd81 2.395 . S
O101 C82 1.241 . S
O102 Gd80 2.448 . S
O102 C83 1.249 . S
O103 Gd80 2.506 1_556 S
O103 C83 1.252 1_556 S
O104 Gd80 2.435 . S
O104 C90 1.256 . S
O105 Gd80 2.717 . S
O105 Gd81 2.327 1_554 S
O105 C90 1.257 . S
O106 Gd81 2.377 . S
O106 C91 1.240 1_556 S
O107 Gd80 2.395 . S
O107 C91 1.240 . S
O108 Gd81 2.448 . S
O108 C92 1.249 . S
O109 Gd81 2.506 1_554 S
O109 C92 1.252 1_554 S
O110 Gd81 2.435 . S
O110 C99 1.256 . S
O111 Gd80 2.327 1_556 S
O111 Gd81 2.717 . S
O111 C99 1.257 . S
H112 C85 0.930 . S
H113 C86 0.931 . S
H114 C88 0.931 . S
H115 C89 0.931 . S
H116 C94 0.930 . S
H117 C95 0.931 . S
H118 C97 0.931 . S
H119 C98 0.931 . S
C120 C121 1.402 . S
C120 C122 1.394 . S
C120 H136 0.931 . S
C121 C120 1.402 . S
C121 C125 1.364 1_455 S
C122 C120 1.394 . S
C122 C123 1.369 1_455 S
C122 C126 1.531 . S
C123 C122 1.369 1_655 S
C123 C124 1.410 . S
C123 C131 1.503 . S
C124 C123 1.410 . S
C124 C125 1.392 . S
C124 C127 1.511 . S
C125 C121 1.364 1_655 S
C125 C124 1.392 . S
C125 H137 0.929 . S
C126 C122 1.531 . S
C126 H138 0.960 . S
C126 H139 0.962 . S
C126 H140 0.960 . S
C127 C124 1.511 . S
C127 H141 0.961 . S
C127 H142 0.961 . S
C127 H143 0.961 . S
C128 C129 1.370 1_455 S
C128 C130 1.363 . S
C128 H144 0.931 . S
C129 C128 1.370 1_655 S
C129 C133 1.408 . S
C130 C128 1.363 . S
C130 C131 1.370 1_455 S
C130 C134 1.524 . S
C131 C123 1.503 . S
C131 C130 1.370 1_655 S
C131 C132 1.403 . S
C132 C131 1.403 . S
C132 C133 1.404 . S
C132 C135 1.539 . S
C133 C129 1.408 . S
C133 C132 1.404 . S
C133 H145 0.930 . S
C134 C130 1.524 . S
C134 H146 0.956 . S
C134 H147 0.961 . S
C134 H148 0.961 . S
C135 C132 1.539 . S
C135 H149 0.958 . S
C135 H150 0.961 . S
C135 H151 0.960 . S
H136 C120 0.931 . S
H137 C125 0.929 . S
H138 C126 0.960 . S
H139 C126 0.962 . S
H140 C126 0.960 . S
H141 C127 0.961 . S
H142 C127 0.961 . S
H143 C127 0.961 . S
H144 C128 0.931 . S
H145 C133 0.930 . S
H146 C134 0.956 . S
H147 C134 0.961 . S
H148 C134 0.961 . S
H149 C135 0.958 . S
H150 C135 0.961 . S
H151 C135 0.960 . S
C152 C153 1.391 . S
C152 C154 1.394 . S
C152 H168 0.931 . S
C153 C152 1.391 . S
C153 C157 1.376 1_545 S
C154 C152 1.394 . S
C154 C155 1.369 . S
C154 C158 1.531 . S
C155 C154 1.369 . S
C155 C156 1.410 1_545 S
C155 C163 1.503 . S
C156 C155 1.410 1_565 S
C156 C157 1.392 . S
C156 C159 1.511 . S
C157 C153 1.376 1_565 S
C157 C156 1.392 . S
C157 H169 0.929 . S
C158 C154 1.531 . S
C158 H170 0.960 . S
C158 H171 0.962 . S
C158 H172 0.960 . S
C159 C156 1.511 . S
C159 H173 0.961 . S
C159 H174 0.961 . S
C159 H175 0.961 1_565 S
C160 C161 1.350 1_565 S
C160 C162 1.363 . S
C160 H176 0.931 . S
C161 C160 1.350 1_545 S
C161 C165 1.434 . S
C162 C160 1.363 . S
C162 C163 1.370 1_565 S
C162 C166 1.524 . S
C163 C155 1.503 . S
C163 C162 1.370 1_545 S
C163 C164 1.403 . S
C164 C163 1.403 . S
C164 C165 1.404 . S
C164 C167 1.539 . S
C165 C161 1.434 . S
C165 C164 1.404 . S
C165 H177 0.930 . S
C166 C162 1.524 . S
C166 H178 0.956 . S
C166 H179 0.961 . S
C166 H180 0.961 . S
C167 C164 1.539 . S
C167 H181 0.958 . S
C167 H182 0.961 . S
C167 H183 0.960 . S
H168 C152 0.931 . S
H169 C157 0.929 . S
H170 C158 0.960 . S
H171 C158 0.962 . S
H172 C158 0.960 . S
H173 C159 0.961 . S
H174 C159 0.961 . S
H175 C159 0.961 1_545 S
H176 C160 0.931 . S
H177 C165 0.930 . S
H178 C166 0.956 . S
H179 C166 0.961 . S
H180 C166 0.961 . S
H181 C167 0.958 . S
H182 C167 0.961 . S
H183 C167 0.960 . S
C184 C185 1.391 . S
C184 C186 1.394 . S
C184 H200 0.931 . S
C185 C184 1.391 . S
C185 C189 1.376 . S
C186 C184 1.394 . S
C186 C187 1.369 . S
C186 C190 1.531 . S
C187 C186 1.369 . S
C187 C188 1.410 . S
C187 C195 1.503 . S
C188 C187 1.410 . S
C188 C189 1.392 . S
C188 C191 1.511 . S
C189 C185 1.376 . S
C189 C188 1.392 . S
C189 H201 0.929 . S
C190 C186 1.531 . S
C190 H202 0.960 . S
C190 H203 0.962 . S
C190 H204 0.960 . S
C191 C188 1.511 . S
C191 H205 0.961 . S
C191 H206 0.961 . S
C191 H207 0.961 . S
C192 C193 1.370 . S
C192 C194 1.363 . S
C192 H208 0.931 . S
C193 C192 1.370 . S
C193 C197 1.408 . S
C194 C192 1.363 . S
C194 C195 1.370 . S
C194 C198 1.524 . S
C195 C187 1.503 . S
C195 C194 1.370 . S
C195 C196 1.403 . S
C196 C195 1.403 . S
C196 C197 1.404 . S
C196 C199 1.539 . S
C197 C193 1.408 . S
C197 C196 1.404 . S
C197 H209 0.930 . S
C198 C194 1.524 . S
C198 H210 0.956 . S
C198 H211 0.961 . S
C198 H212 0.961 . S
C199 C196 1.539 . S
C199 H213 0.958 . S
C199 H214 0.961 . S
C199 H215 0.960 . S
H200 C184 0.931 . S
H201 C189 0.929 . S
H202 C190 0.960 . S
H203 C190 0.962 . S
H204 C190 0.960 . S
H205 C191 0.961 . S
H206 C191 0.961 . S
H207 C191 0.961 . S
H208 C192 0.931 . S
H209 C197 0.930 . S
H210 C198 0.956 . S
H211 C198 0.961 . S
H212 C198 0.961 . S
H213 C199 0.958 . S
H214 C199 0.961 . S
H215 C199 0.960 . S
C216 C217 1.391 . S
C216 C218 1.394 . S
C216 H232 0.931 . S
C217 C216 1.391 . S
C217 C221 1.376 1_556 S
C218 C216 1.394 . S
C218 C219 1.369 . S
C218 C222 1.531 . S
C219 C218 1.369 . S
C219 C220 1.410 1_556 S
C219 C227 1.503 . S
C220 C219 1.410 1_554 S
C220 C221 1.392 . S
C220 C223 1.511 . S
C221 C217 1.376 1_554 S
C221 C220 1.392 . S
C221 H233 0.929 . S
C222 C218 1.531 . S
C222 H234 0.960 . S
C222 H235 0.962 . S
C222 H236 0.960 . S
C223 C220 1.511 . S
C223 H237 0.961 . S
C223 H238 0.961 . S
C223 H239 0.961 . S
C224 C225 1.370 1_554 S
C224 C226 1.363 . S
C224 H240 0.931 . S
C225 C224 1.370 1_556 S
C225 C229 1.408 . S
C226 C224 1.363 . S
C226 C227 1.370 1_554 S
C226 C230 1.524 . S
C227 C219 1.503 . S
C227 C226 1.370 1_556 S
C227 C228 1.403 . S
C228 C227 1.403 . S
C228 C229 1.404 . S
C228 C231 1.539 . S
C229 C225 1.408 . S
C229 C228 1.404 . S
C229 H241 0.930 . S
C230 C226 1.524 . S
C230 H242 0.956 . S
C230 H243 0.961 . S
C230 H244 0.961 . S
C231 C228 1.539 . S
C231 H245 0.958 . S
C231 H246 0.961 . S
C231 H247 0.960 . S
H232 C216 0.931 . S
H233 C221 0.929 . S
H234 C222 0.960 . S
H235 C222 0.962 . S
H236 C222 0.960 . S
H237 C223 0.961 . S
H238 C223 0.961 . S
H239 C223 0.961 . S
H240 C224 0.931 . S
H241 C229 0.930 . S
H242 C230 0.956 . S
H243 C230 0.961 . S
H244 C230 0.961 . S
H245 C231 0.958 . S
H246 C231 0.961 . S
H247 C231 0.960 . S
C248 C249 1.390 1_554 S
C248 C250 1.394 . S
C248 H264 0.931 . S
C249 C248 1.390 1_556 S
C249 C253 1.377 . S
C250 C248 1.394 . S
C250 C251 1.369 . S
C250 C254 1.531 . S
C251 C250 1.369 . S
C251 C252 1.410 1_554 S
C251 C259 1.503 . S
C252 C251 1.410 1_556 S
C252 C253 1.392 . S
C252 C255 1.511 . S
C253 C249 1.377 . S
C253 C252 1.392 . S
C253 H265 0.929 . S
C254 C250 1.531 . S
C254 H266 0.960 . S
C254 H267 0.962 1_554 S
C254 H268 0.960 . S
C255 C252 1.511 . S
C255 H269 0.961 . S
C255 H270 0.961 . S
C255 H271 0.961 1_556 S
C256 C257 1.364 1_556 S
C256 C258 1.363 . S
C256 H272 0.931 . S
C257 C256 1.364 1_554 S
C257 C261 1.416 . S
C258 C256 1.363 . S
C258 C259 1.370 1_556 S
C258 C262 1.524 . S
C259 C251 1.503 . S
C259 C258 1.370 1_554 S
C259 C260 1.403 . S
C260 C259 1.403 . S
C260 C261 1.404 . S
C260 C263 1.539 . S
C261 C257 1.416 . S
C261 C260 1.404 . S
C261 H273 0.930 . S
C262 C258 1.524 . S
C262 H274 0.956 . S
C262 H275 0.961 . S
C262 H276 0.961 . S
C263 C260 1.539 . S
C263 H277 0.958 . S
C263 H278 0.961 . S
C263 H279 0.960 . S
H264 C248 0.931 . S
H265 C253 0.929 . S
H266 C254 0.960 . S
H267 C254 0.962 1_556 S
H268 C254 0.960 . S
H269 C255 0.961 . S
H270 C255 0.961 . S
H271 C255 0.961 1_554 S
H272 C256 0.931 . S
H273 C261 0.930 . S
H274 C262 0.956 . S
H275 C262 0.961 . S
H276 C262 0.961 . S
H277 C263 0.958 . S
H278 C263 0.961 . S
H279 C263 0.960 . S
C280 C281 1.391 . S
C280 C282 1.394 . S
C280 H296 0.931 . S
C281 C280 1.391 . S
C281 C285 1.376 1_556 S
C282 C280 1.394 . S
C282 C283 1.369 . S
C282 C286 1.531 . S
C283 C282 1.369 . S
C283 C284 1.410 1_556 S
C283 C291 1.503 . S
C284 C283 1.410 1_554 S
C284 C285 1.392 . S
C284 C287 1.511 . S
C285 C281 1.376 1_554 S
C285 C284 1.392 . S
C285 H297 0.929 . S
C286 C282 1.531 . S
C286 H298 0.960 . S
C286 H299 0.962 . S
C286 H300 0.960 . S
C287 C284 1.511 . S
C287 H301 0.961 . S
C287 H302 0.961 . S
C287 H303 0.961 . S
C288 C289 1.370 1_554 S
C288 C290 1.363 . S
C288 H304 0.931 . S
C289 C288 1.370 1_556 S
C289 C293 1.408 . S
C290 C288 1.363 . S
C290 C291 1.370 1_554 S
C290 C294 1.524 . S
C291 C283 1.503 . S
C291 C290 1.370 1_556 S
C291 C292 1.403 . S
C292 C291 1.403 . S
C292 C293 1.404 . S
C292 C295 1.539 . S
C293 C289 1.408 . S
C293 C292 1.404 . S
C293 H305 0.930 . S
C294 C290 1.524 . S
C294 H306 0.956 . S
C294 H307 0.961 . S
C294 H308 0.961 . S
C295 C292 1.539 . S
C295 H309 0.958 . S
C295 H310 0.961 . S
C295 H311 0.960 . S
H296 C280 0.931 . S
H297 C285 0.929 . S
H298 C286 0.960 . S
H299 C286 0.962 . S
H300 C286 0.960 . S
H301 C287 0.961 . S
H302 C287 0.961 . S
H303 C287 0.961 . S
H304 C288 0.931 . S
H305 C293 0.930 . S
H306 C294 0.956 . S
H307 C294 0.961 . S
H308 C294 0.961 . S
H309 C295 0.958 . S
H310 C295 0.961 . S
H311 C295 0.960 . S
C312 C313 1.391 1_556 S
C312 C314 1.394 . S
C312 H328 0.931 . S
C313 C312 1.391 1_554 S
C313 C317 1.376 1_554 S
C314 C312 1.394 . S
C314 C315 1.369 . S
C314 C318 1.531 . S
C315 C314 1.369 . S
C315 C316 1.410 . S
C315 C323 1.503 . S
C316 C315 1.410 . S
C316 C317 1.392 . S
C316 C319 1.511 . S
C317 C313 1.376 1_556 S
C317 C316 1.392 . S
C317 H329 0.929 . S
C318 C314 1.531 . S
C318 H330 0.960 . S
C318 H331 0.962 1_556 S
C318 H332 0.960 . S
C319 C316 1.511 . S
C319 H333 0.961 1_556 S
C319 H334 0.961 1_556 S
C319 H335 0.961 . S
C320 C321 1.370 . S
C320 C322 1.363 . S
C320 H336 0.931 . S
C321 C320 1.370 . S
C321 C325 1.408 1_554 S
C322 C320 1.363 . S
C322 C323 1.370 1_554 S
C322 C326 1.524 . S
C323 C315 1.503 . S
C323 C322 1.370 1_556 S
C323 C324 1.403 . S
C324 C323 1.403 . S
C324 C325 1.404 . S
C324 C327 1.539 . S
C325 C321 1.408 1_556 S
C325 C324 1.404 . S
C325 H337 0.930 . S
C326 C322 1.524 . S
C326 H338 0.956 . S
C326 H339 0.961 . S
C326 H340 0.961 . S
C327 C324 1.539 . S
C327 H341 0.958 . S
C327 H342 0.961 . S
C327 H343 0.960 . S
H328 C312 0.931 . S
H329 C317 0.929 . S
H330 C318 0.960 . S
H331 C318 0.962 1_554 S
H332 C318 0.960 . S
H333 C319 0.961 1_554 S
H334 C319 0.961 1_554 S
H335 C319 0.961 . S
H336 C320 0.931 . S
H337 C325 0.930 . S
H338 C326 0.956 . S
H339 C326 0.961 . S
H340 C326 0.961 . S
H341 C327 0.958 . S
H342 C327 0.961 . S
H343 C327 0.960 . S
C344 C345 1.391 1_554 S
C344 C346 1.394 1_554 S
C344 H360 0.931 . S
C345 C344 1.391 1_556 S
C345 C349 1.376 . S
C346 C344 1.394 1_556 S
C346 C347 1.369 . S
C346 C350 1.531 1_556 S
C347 C346 1.369 . S
C347 C348 1.410 . S
C347 C355 1.503 . S
C348 C347 1.410 . S
C348 C349 1.392 . S
C348 C351 1.511 . S
C349 C345 1.376 . S
C349 C348 1.392 . S
C349 H361 0.929 . S
C350 C346 1.531 1_554 S
C350 H362 0.960 1_554 S
C350 H363 0.962 . S
C350 H364 0.960 1_554 S
C351 C348 1.511 . S
C351 H365 0.961 . S
C351 H366 0.961 . S
C351 H367 0.961 . S
C352 C353 1.370 . S
C352 C354 1.363 . S
C352 H368 0.931 . S
C353 C352 1.370 . S
C353 C357 1.408 1_554 S
C354 C352 1.363 . S
C354 C355 1.370 1_554 S
C354 C358 1.524 . S
C355 C347 1.503 . S
C355 C354 1.370 1_556 S
C355 C356 1.403 . S
C356 C355 1.403 . S
C356 C357 1.404 . S
C356 C359 1.539 . S
C357 C353 1.408 1_556 S
C357 C356 1.404 . S
C357 H369 0.930 . S
C358 C354 1.524 . S
C358 H370 0.956 . S
C358 H371 0.961 . S
C358 H372 0.961 . S
C359 C356 1.539 . S
C359 H373 0.958 . S
C359 H374 0.961 . S
C359 H375 0.960 . S
H360 C344 0.931 . S
H361 C349 0.929 . S
H362 C350 0.960 1_556 S
H363 C350 0.962 . S
H364 C350 0.960 1_556 S
H365 C351 0.961 . S
H366 C351 0.961 . S
H367 C351 0.961 . S
H368 C352 0.931 . S
H369 C357 0.930 . S
H370 C358 0.956 . S
H371 C358 0.961 . S
H372 C358 0.961 . S
H373 C359 0.958 . S
H374 C359 0.961 . S
H375 C359 0.960 . S
C376 C377 1.391 . S
C376 C378 1.394 . S
C376 H392 0.931 . S
C377 C376 1.391 . S
C377 C381 1.376 1_556 S
C378 C376 1.394 . S
C378 C379 1.369 . S
C378 C382 1.531 . S
C379 C378 1.369 . S
C379 C380 1.410 1_556 S
C379 C387 1.503 . S
C380 C379 1.410 1_554 S
C380 C381 1.392 . S
C380 C383 1.511 . S
C381 C377 1.376 1_554 S
C381 C380 1.392 . S
C381 H393 0.929 . S
C382 C378 1.531 . S
C382 H394 0.960 . S
C382 H395 0.962 . S
C382 H396 0.960 . S
C383 C380 1.511 . S
C383 H397 0.961 . S
C383 H398 0.961 . S
C383 H399 0.961 . S
C384 C385 1.370 . S
C384 C386 1.363 . S
C384 H400 0.931 . S
C385 C384 1.370 . S
C385 C389 1.408 1_554 S
C386 C384 1.363 . S
C386 C387 1.370 1_554 S
C386 C390 1.524 . S
C387 C379 1.503 . S
C387 C386 1.370 1_556 S
C387 C388 1.403 . S
C388 C387 1.403 . S
C388 C389 1.404 . S
C388 C391 1.539 . S
C389 C385 1.408 1_556 S
C389 C388 1.404 . S
C389 H401 0.930 . S
C390 C386 1.524 . S
C390 H402 0.956 . S
C390 H403 0.961 . S
C390 H404 0.961 . S
C391 C388 1.539 . S
C391 H405 0.958 . S
C391 H406 0.961 . S
C391 H407 0.960 . S
H392 C376 0.931 . S
H393 C381 0.929 . S
H394 C382 0.960 . S
H395 C382 0.962 . S
H396 C382 0.960 . S
H397 C383 0.961 . S
H398 C383 0.961 . S
H399 C383 0.961 . S
H400 C384 0.931 . S
H401 C389 0.930 . S
H402 C390 0.956 . S
H403 C390 0.961 . S
H404 C390 0.961 . S
H405 C391 0.958 . S
H406 C391 0.961 . S
H407 C391 0.960 . S
C121 C10 1.437 . S
C129 C19 1.467 1_655 S
C153 C50 1.453 . S
C161 C59 1.449 1_545 S
C185 C99 1.434 . S
C193 C90 1.472 . S
C217 C11 2.616 1_556 S
C225 C82 2.582 . S
C249 C47 0.900 . S
C257 C7 0.888 1_554 S
C281 C51 2.040 . S
C289 C87 1.973 . S
C313 C2 2.608 1_554 S
C321 C91 2.574 . S
C345 C16 0.891 1_556 S
C353 C56 0.896 . S
C377 C96 1.992 1_556 S
C385 C42 2.035 . S
