# Generated by pormake.
# Topology wni, (7)-cn, num edge types: 1
# Building blocks:
#     Node 0, Type 0, BuildingBlock: NUHQUE_clean_sbu_2, # of connection points: 7
#     Node 1, Type 0, BuildingBlock: NUHQUE_clean_sbu_2, # of connection points: 7
#     Node 2, Type 0, BuildingBlock: NUHQUE_clean_sbu_2, # of connection points: 7
#     Node 3, Type 0, BuildingBlock: NUHQUE_clean_sbu_2, # of connection points: 7
#     Node 4, Type 0, BuildingBlock: NUHQUE_clean_sbu_2, # of connection points: 7
#     Node 5, Type 0, BuildingBlock: NUHQUE_clean_sbu_2, # of connection points: 7
#     Edge 6, Type (0, 0), BuildingBlock: EZIPEK_clean_linker_0, # of connection points: 2
#     Edge 7, Type (0, 0), BuildingBlock: EZIPEK_clean_linker_0, # of connection points: 2
#     Edge 8, Type (0, 0), BuildingBlock: EZIPEK_clean_linker_0, # of connection points: 2
#     Edge 9, Type (0, 0), BuildingBlock: EZIPEK_clean_linker_0, # of connection points: 2
#     Edge 10, Type (0, 0), BuildingBlock: EZIPEK_clean_linker_0, # of connection points: 2
#     Edge 11, Type (0, 0), BuildingBlock: EZIPEK_clean_linker_0, # of connection points: 2
#     Edge 12, Type (0, 0), BuildingBlock: EZIPEK_clean_linker_0, # of connection points: 2
#     Edge 13, Type (0, 0), BuildingBlock: EZIPEK_clean_linker_0, # of connection points: 2
#     Edge 14, Type (0, 0), BuildingBlock: EZIPEK_clean_linker_0, # of connection points: 2
#     Edge 15, Type (0, 0), BuildingBlock: EZIPEK_clean_linker_0, # of connection points: 2
#     Edge 16, Type (0, 0), BuildingBlock: EZIPEK_clean_linker_0, # of connection points: 2
#     Edge 17, Type (0, 0), BuildingBlock: EZIPEK_clean_linker_0, # of connection points: 2
#     Edge 18, Type (0, 0), BuildingBlock: EZIPEK_clean_linker_0, # of connection points: 2
#     Edge 19, Type (0, 0), BuildingBlock: EZIPEK_clean_linker_0, # of connection points: 2
#     Edge 20, Type (0, 0), BuildingBlock: EZIPEK_clean_linker_0, # of connection points: 2
#     Edge 21, Type (0, 0), BuildingBlock: EZIPEK_clean_linker_0, # of connection points: 2
#     Edge 22, Type (0, 0), BuildingBlock: EZIPEK_clean_linker_0, # of connection points: 2
#     Edge 23, Type (0, 0), BuildingBlock: EZIPEK_clean_linker_0, # of connection points: 2
#     Edge 24, Type (0, 0), BuildingBlock: EZIPEK_clean_linker_0, # of connection points: 2
#     Edge 25, Type (0, 0), BuildingBlock: EZIPEK_clean_linker_0, # of connection points: 2
#     Edge 26, Type (0, 0), BuildingBlock: EZIPEK_clean_linker_0, # of connection points: 2
# Relax obj value: 0.291
# Max RMSD: 0.308
# Mean RMSD: 0.308
data_MOF--net-wni--node1-NUHQUE_clean_sbu_2--edge1-EZIPEK_clean_linker_0
_symmetry_space_group_name_H-M    P1
_symmetry_Int_Tables_number       1
_symmetry_cell_setting            triclinic
loop_
_symmetry_equiv_pos_as_xyz
'x, y, z'
_cell_length_a     27.271379
_cell_length_b     27.304008
_cell_length_c     23.483979
_cell_angle_alpha  89.79435
_cell_angle_beta   90.208385
_cell_angle_gamma 119.61177
loop_
_atom_site_label
_atom_site_type_symbol
_atom_site_fract_x
_atom_site_fract_y
_atom_site_fract_z
_atom_type_partial_charge
O0 O 0.35775 0.56634 0.02108 0.0
Tb1 Tb 0.32452 0.50344 0.08833 0.0
Eu2 Eu 0.19886 0.39844 0.14412 0.0
C3 C 0.36988 0.55481 0.97052 0.0
O4 O 0.3535 0.50232 0.95691 0.0
C5 C 0.28087 0.37549 0.06985 0.0
O6 O 0.12982 0.34882 0.20877 0.0
C7 C 0.15094 0.41383 0.05541 0.0
C8 C 0.13952 0.35 0.26392 0.0
O9 O 0.19179 0.37609 0.28261 0.0
C10 C 0.25585 0.5252 0.18032 0.0
C11 C 0.11256 0.43451 0.03826 0.0
C12 C 0.10246 0.43625 0.98016 0.0
C13 C 0.05971 0.44688 0.96129 0.0
C14 C 1.03051 0.46088 1.00116 0.0
C15 C 0.04348 0.46375 0.05927 0.0
C16 C 0.08307 0.44844 0.07801 0.0
O17 O 0.29153 0.42293 0.04443 0.0
O18 O 0.25179 0.35986 0.11773 0.0
O19 O 0.41568 0.54257 0.09639 0.0
O20 O 0.36432 0.49434 0.16598 0.0
C21 C 0.41589 0.5248 0.14758 0.0
O22 O 0.23988 0.47471 0.2008 0.0
O23 O 0.27805 0.53977 0.12915 0.0
O24 O 0.12874 0.36658 0.08457 0.0
O25 O 0.20137 0.45125 0.07302 0.0
H26 H 0.1254 0.42559 0.94953 0.0
H27 H 0.99732 0.4691 0.98712 0.0
H28 H 0.09001 0.44664 0.12299 0.0
O29 O 0.50229 0.82478 0.68933 0.0
Tb30 Tb 0.56551 0.84219 0.75404 0.0
Eu31 Eu 0.66717 0.81439 0.81075 0.0
C32 C 0.49492 0.7954 0.64293 0.0
O33 O 0.52614 0.77206 0.63287 0.0
C34 C 0.69286 0.9191 0.73245 0.0
O35 O 0.72134 0.8076 0.88128 0.0
C36 C 0.66227 0.7523 0.72497 0.0
C37 C 0.70078 0.76188 0.91343 0.0
O38 O 0.64854 0.7219 0.90511 0.0
C39 C 0.53561 0.74448 0.83914 0.0
C40 C 0.63875 0.69357 0.70617 0.0
C41 C 0.62821 0.6817 0.64801 0.0
C42 C 0.60287 0.62591 0.62684 0.0
C43 C 0.59514 0.58345 0.66637 0.0
C44 C 0.60477 0.59473 0.72475 0.0
C45 C 0.62698 0.64991 0.74458 0.0
O46 O 0.64453 0.88434 0.70779 0.0
O47 O 0.70706 0.90532 0.78136 0.0
O48 O 0.53148 0.89822 0.76662 0.0
O49 O 0.57906 0.88892 0.83386 0.0
C50 C 0.55049 0.91344 0.81786 0.0
O51 O 0.58639 0.77229 0.86182 0.0
O52 O 0.52439 0.75709 0.78843 0.0
O53 O 0.70256 0.77092 0.76343 0.0
O54 O 0.62622 0.77043 0.73243 0.0
H55 H 0.64191 0.71729 0.61962 0.0
H56 H 0.58288 0.54119 0.65334 0.0
H57 H 0.63621 0.65878 0.78944 0.0
O58 O 0.24715 0.70434 0.35481 0.0
Tb59 Tb 0.2221 0.74044 0.42303 0.0
Eu60 Eu 0.25303 0.86761 0.48431 0.0
C61 C 0.21422 0.68084 0.31063 0.0
O62 O 0.16867 0.6852 0.30396 0.0
C63 C 0.1465 0.79375 0.40778 0.0
O64 O 0.27003 0.93307 0.55296 0.0
C65 C 0.31377 0.91909 0.39595 0.0
C66 C 0.26681 0.92188 0.60801 0.0
O67 O 0.24777 0.86962 0.6248 0.0
C68 C 0.31978 0.80142 0.50997 0.0
C69 C 0.37251 0.95119 0.37651 0.0
C70 C 0.38303 0.95067 0.31831 0.0
C71 C 0.43838 0.97838 0.29605 0.0
C72 C 0.48218 1.01206 0.33449 0.0
C73 C 0.47222 1.01417 0.39283 0.0
C74 C 0.4172 0.98252 0.41403 0.0
O75 O 0.18135 0.78163 0.38088 0.0
O76 O 0.16082 0.81945 0.45773 0.0
O77 O 0.16253 0.65106 0.43285 0.0
O78 O 0.17925 0.70529 0.5041 0.0
C79 C 0.15094 0.65349 0.48588 0.0
O80 O 0.29437 0.82658 0.53376 0.0
O81 O 0.3064 0.77971 0.45864 0.0
O82 O 0.29656 0.94345 0.43275 0.0
O83 O 0.29428 0.86532 0.40602 0.0
H84 H 0.34664 0.92985 0.29085 0.0
H85 H 0.52452 0.03966 0.31999 0.0
H86 H 0.40902 0.98372 0.459 0.0
O87 O 0.57703 0.34519 1.00243 0.0
Tb88 Tb 0.51822 0.30974 0.93166 0.0
Eu89 Eu 0.4088 0.18106 0.88332 0.0
C90 C 0.56811 0.37294 0.04306 0.0
O91 O 0.51922 0.37134 0.04565 0.0
C92 C 0.39023 0.26912 0.95216 0.0
O93 O 0.35361 0.10889 0.82285 0.0
C94 C 0.42475 0.13735 0.97555 0.0
C95 C 0.36367 0.11006 0.76767 0.0
O96 O 0.40378 0.15634 0.74454 0.0
C97 C 0.53554 0.23506 0.84381 0.0
C98 C 0.4461 0.0992 0.99146 0.0
C99 C 0.44337 0.08214 0.04844 0.0
C100 C 0.46098 0.04333 0.06317 0.0
C101 C 0.48142 1.022 0.02121 0.0
C102 C 0.48424 0.03876 0.96459 0.0
C103 C 0.46682 0.07754 0.94969 0.0
O104 O 0.43877 0.28198 0.97669 0.0
O105 O 0.37313 0.23747 0.90599 0.0
O106 O 0.56805 0.39974 0.91452 0.0
O107 O 0.50437 0.34813 0.85523 0.0
C108 C 0.54391 0.39938 0.86682 0.0
O109 O 0.48419 0.21777 0.82484 0.0
O110 O 0.55127 0.25876 0.89426 0.0
O111 O 0.377 0.11448 0.94715 0.0
O112 O 0.46194 0.18677 0.95544 0.0
H113 H 0.42674 0.09804 0.08091 0.0
H114 H 0.49402 0.99122 0.0325 0.0
H115 H 0.46755 0.08915 0.90567 0.0
O116 O 0.72091 0.24132 0.66343 0.0
Tb117 Tb 0.75762 0.21862 0.59358 0.0
Eu118 Eu 0.87668 0.2344 0.53238 0.0
C119 C 0.69535 0.20571 0.70534 0.0
O120 O 0.69861 0.15936 0.70878 0.0
C121 C 0.79834 0.13162 0.61083 0.0
O122 O 0.94181 0.24221 0.46688 0.0
C123 C 0.9306 0.29538 0.61997 0.0
C124 C 0.94653 0.26515 0.41614 0.0
O125 O 0.90949 0.27968 0.39969 0.0
C126 C 0.82442 0.31172 0.50559 0.0
C127 C 0.96435 0.35374 0.63968 0.0
C128 C 0.96817 0.36361 0.69832 0.0
C129 C 1.00641 0.41687 0.72019 0.0
C130 C 1.03639 0.46177 0.6824 0.0
C131 C 1.02942 0.45335 0.62344 0.0
C132 C 0.99528 0.39871 0.60214 0.0
O133 O 0.78838 0.16843 0.63705 0.0
O134 O 0.82397 0.14377 0.56089 0.0
O135 O 0.66751 0.17159 0.57667 0.0
O136 O 0.72391 0.17171 0.514 0.0
C137 C 0.6712 0.15334 0.52693 0.0
O138 O 0.83796 0.27677 0.48121 0.0
O139 O 0.80573 0.30318 0.55822 0.0
O140 O 0.95368 0.27766 0.58228 0.0
O141 O 0.87683 0.2767 0.61105 0.0
H142 H 0.9443 0.3288 0.72731 0.0
H143 H 0.06573 0.50325 0.69878 0.0
H144 H 0.99357 0.39151 0.55688 0.0
O145 O 0.82631 0.49955 0.33433 0.0
Tb146 Tb 0.85182 0.55959 0.26476 0.0
Eu147 Eu 0.82899 0.66398 0.21159 0.0
C148 C 0.86026 0.50866 0.37777 0.0
O149 O 0.90621 0.55783 0.38308 0.0
C150 C 0.93496 0.68806 0.28509 0.0
O151 O 0.80684 0.70891 0.14283 0.0
C152 C 0.7682 0.65213 0.30114 0.0
C153 C 0.81886 0.70746 0.08871 0.0
O154 O 0.85065 0.68562 0.07486 0.0
C155 C 0.75848 0.53626 0.17689 0.0
C156 C 0.70892 0.63008 0.31708 0.0
C157 C 0.69459 0.6275 0.37481 0.0
C158 C 0.63824 0.60737 0.39055 0.0
C159 C 0.5962 0.58837 0.34878 0.0
C160 C 0.6102 0.59148 0.29117 0.0
C161 C 0.6667 0.61304 0.27529 0.0
O162 O 0.90023 0.63946 0.30941 0.0
O163 O 0.92065 0.70357 0.23731 0.0
O164 O 0.90104 0.51745 0.2526 0.0
O165 O 0.89756 0.56786 0.18517 0.0
C166 C 0.91744 0.53519 0.20118 0.0
O167 O 0.7919 0.58662 0.15592 0.0
O168 O 0.76734 0.52294 0.22827 0.0
O169 O 0.79106 0.6978 0.26938 0.0
O170 O 0.7824 0.61471 0.2855 0.0
H171 H 0.72716 0.64223 0.40727 0.0
H172 H 0.55273 0.57338 0.36098 0.0
H173 H 0.6777 0.61748 0.23075 0.0
C174 C 0.54633 0.61561 0.23635 0.0
C175 C 0.56534 0.57671 0.24799 0.0
C176 C 0.4869 0.50379 0.19276 0.0
C177 C 0.46767 0.54259 0.18151 0.0
N178 N 0.48344 0.63774 0.18308 0.0
N179 N 0.56147 0.48814 0.22977 0.0
C180 C 0.49887 0.59931 0.20026 0.0
C181 C 0.538 0.52206 0.22372 0.0
N182 N 0.57284 0.66767 0.26131 0.0
N183 N 0.45587 0.44941 0.17426 0.0
H184 H 0.59829 0.50004 0.25305 0.0
H185 H 0.5472 0.4501 0.20853 0.0
H186 H 0.42001 0.43568 0.1489 0.0
H187 H 0.46381 0.41718 0.1859 0.0
H188 H 0.5569 0.69531 0.26118 0.0
H189 H 0.61004 0.68261 0.28481 0.0
H190 H 0.50799 0.68094 0.18953 0.0
H191 H 0.44746 0.62716 0.15892 0.0
C192 C 0.57592 1.00063 0.87433 0.0
C193 C 0.53429 0.94709 0.85422 0.0
C194 C 0.45964 0.96094 0.89562 0.0
C195 C 0.50155 1.01141 0.92102 0.0
N196 N 0.59924 0.07898 0.9381 0.0
N197 N 0.43697 0.87291 0.84997 0.0
C198 C 0.55969 0.03135 0.91117 0.0
C199 C 0.47618 0.92652 0.86553 0.0
N200 N 0.63046 1.02291 0.85638 0.0
N201 N 0.40397 0.94601 0.90029 0.0
H202 H 0.44695 0.84611 0.82766 0.0
H203 H 0.39506 0.85298 0.86301 0.0
H204 H 0.39008 0.96939 0.92335 0.0
H205 H 0.37174 0.91315 0.87756 0.0
H206 H 0.6618 0.06413 0.8645 0.0
H207 H 0.64353 1.00141 0.82932 0.0
H208 H 0.64217 0.0922 0.93827 0.0
H209 H 0.58872 0.10403 0.96296 0.0
C210 C 0.05961 0.5716 0.51791 0.0
C211 C 0.11926 0.60299 0.52171 0.0
C212 C 0.1196 0.53028 0.58285 0.0
C213 C 0.05984 0.50229 0.58461 0.0
N214 N 0.97231 0.499 0.55926 0.0
N215 N 0.20674 0.61554 0.56074 0.0
C216 C 1.02952 0.52341 0.55327 0.0
C217 C 0.14946 0.58339 0.55525 0.0
N218 N 1.03181 0.58762 0.48019 0.0
N219 N 0.14761 0.50482 0.60558 0.0
H220 H 0.23068 0.6532 0.53868 0.0
H221 H 0.23024 0.60692 0.59003 0.0
H222 H 0.1269 0.46519 0.62485 0.0
H223 H 0.19071 0.52021 0.6007 0.0
H224 H 0.98915 0.56293 0.47051 0.0
H225 H 0.05226 0.62413 0.45553 0.0
H226 H 0.94859 0.51592 0.54226 0.0
H227 H 0.94864 0.46373 0.58475 0.0
C228 C 0.53268 0.51181 0.78046 0.0
C229 C 0.58996 0.54738 0.765 0.0
C230 C 0.61675 0.4851 0.8148 0.0
C231 C 0.55968 0.4504 0.83188 0.0
N232 N 0.46639 0.43809 0.84296 0.0
N233 N 0.68801 0.5742 0.77511 0.0
C234 C 0.51835 0.46565 0.81788 0.0
C235 C 0.63249 0.53606 0.78479 0.0
N236 N 0.49186 0.52202 0.75905 0.0
N237 N 0.65547 0.46803 0.82472 0.0
H238 H 0.70111 0.61076 0.7511 0.0
H239 H 0.72128 0.57198 0.79442 0.0
H240 H 0.64621 0.43141 0.84687 0.0
H241 H 0.6958 0.48774 0.80729 0.0
H242 H 0.44886 0.49383 0.76285 0.0
H243 H 0.50091 0.5575 0.73466 0.0
H244 H 0.43649 0.45111 0.83948 0.0
H245 H 0.45499 0.40525 0.87199 0.0
C246 C 0.55497 0.109 0.4173 0.0
C247 C 0.52063 0.05107 0.43069 0.0
C248 C 0.5842 0.06086 0.50956 0.0
C249 C 0.62172 0.11686 0.49147 0.0
N250 N 0.64702 0.19247 0.42409 0.0
N251 N 0.50224 0.97041 0.48493 0.0
C252 C 0.60847 0.14034 0.44395 0.0
C253 C 0.53516 0.02681 0.47629 0.0
N254 N 0.53511 0.13457 0.38113 0.0
N255 N 0.59565 0.04061 0.55822 0.0
H256 H 0.51032 0.94712 0.51497 0.0
H257 H 0.51032 0.94712 0.51497 0.0
H258 H 0.63324 0.06294 0.58097 0.0
H259 H 0.56703 1.00319 0.57808 0.0
H260 H 0.5558 0.17783 0.37375 0.0
H261 H 0.49486 0.11328 0.36316 0.0
H262 H 0.64196 0.20932 0.38612 0.0
H263 H 0.6864 0.21703 0.44296 0.0
C264 C 0.03833 0.53817 0.11714 0.0
C265 C 1.01335 0.48094 0.10013 0.0
C266 C 0.92727 0.45867 0.15286 0.0
C267 C 0.95026 0.51688 0.16559 0.0
N268 N 1.02609 0.61283 0.15866 0.0
N269 N 0.93394 0.38682 0.09822 0.0
C270 C 1.00539 0.5569 0.14732 0.0
C271 C 0.95788 0.44115 0.11734 0.0
N272 N 0.09391 0.57426 0.10522 0.0
N273 N 0.87618 0.41997 0.17493 0.0
H274 H 0.95616 0.37162 0.07504 0.0
H275 H 0.89139 0.35733 0.10258 0.0
H276 H 0.85019 0.43086 0.19749 0.0
H277 H 0.86044 0.37665 0.17363 0.0
H278 H 0.11676 0.61486 0.12151 0.0
H279 H 0.11883 0.56231 0.08204 0.0
H280 H 0.06313 0.64502 0.14129 0.0
H281 H 1.00464 0.62774 0.18346 0.0
C282 C 0.32738 0.31373 0.95069 0.0
C283 C 0.3527 0.28687 0.98119 0.0
C284 C 0.32685 0.31369 0.07141 0.0
C285 C 0.29928 0.33837 0.04091 0.0
N286 N 0.25696 0.34316 0.9521 0.0
N287 N 0.35831 0.24485 0.06977 0.0
C288 C 0.29437 0.33242 0.98069 0.0
C289 C 0.34657 0.2816 0.04133 0.0
N290 N 0.33712 0.32455 0.89379 0.0
N291 N 0.33757 0.32328 0.12835 0.0
H292 H 0.36999 0.21852 0.04887 0.0
H293 H 0.34985 0.2357 0.11294 0.0
H294 H 0.32604 0.34788 0.1524 0.0
H295 H 0.36313 0.31135 0.15064 0.0
H296 H 0.32475 0.34968 0.87139 0.0
H297 H 0.36209 0.31324 0.86996 0.0
H298 H 0.24831 0.33495 0.90882 0.0
H299 H 0.22966 0.35363 0.97292 0.0
C300 C 0.79078 0.07651 0.69976 0.0
C301 C 0.78136 0.07676 0.64021 0.0
C302 C 0.73337 0.97351 0.64182 0.0
C303 C 0.73108 0.97345 0.70235 0.0
N304 N 0.75326 0.0287 0.78902 0.0
N305 N 0.7343 1.0228 0.55595 0.0
C306 C 0.75919 0.02592 0.7316 0.0
C307 C 0.75064 0.02455 0.61131 0.0
N308 N 0.8306 0.12443 0.72594 0.0
N309 N 0.71997 0.92496 0.6133 0.0
H310 H 0.74304 0.05856 0.53236 0.0
H311 H 0.70684 0.98525 0.5354 0.0
H312 H 0.71054 0.88758 0.63432 0.0
H313 H 0.72513 0.92381 0.56945 0.0
H314 H 0.84251 0.12527 0.76831 0.0
H315 H 0.85634 0.16147 0.70356 0.0
H316 H 0.76782 0.06674 0.81054 0.0
H317 H 0.72933 0.99378 0.8146 0.0
C318 C 0.04148 0.75464 0.28703 0.0
C319 C 0.98883 0.72652 0.31583 0.0
C320 C 0.03924 0.74815 0.40756 0.0
C321 C 0.0917 0.77855 0.37889 0.0
N322 N 0.13986 0.82657 0.29291 0.0
N323 N 0.93911 0.71572 0.40401 0.0
C324 C 0.09175 0.78707 0.31911 0.0
C325 C 0.98825 0.72959 0.3763 0.0
N326 N 0.04468 0.74765 0.22986 0.0
N327 N 1.03725 0.73332 0.46346 0.0
H328 H 0.90169 0.70517 0.38237 0.0
H329 H 0.93735 0.72145 0.44767 0.0
H330 H 0.07297 0.74379 0.48793 0.0
H331 H 0.99966 0.70579 0.48396 0.0
H332 H 0.08293 0.76237 0.20861 0.0
H333 H 1.00982 0.72268 0.20448 0.0
H334 H 0.14101 0.83772 0.25023 0.0
H335 H 0.1767 0.85268 0.3155 0.0
C336 C 0.9984 0.2497 0.33544 0.0
C337 C 0.99823 0.28347 0.38113 0.0
C338 C 0.08902 0.36143 0.34857 0.0
C339 C 0.09142 0.32643 0.30514 0.0
N340 N 0.05328 0.2338 0.2641 0.0
N341 N 0.0483 0.36707 0.43828 0.0
C342 C 0.04737 0.26953 0.30044 0.0
C343 C 0.04526 0.33787 0.38999 0.0
N344 N 0.95133 0.19907 0.32484 0.0
N345 N 0.12634 0.41805 0.34831 0.0
H346 H 1.017 0.35126 0.4694 0.0
H347 H 0.08407 0.40441 0.45009 0.0
H348 H 0.15779 0.43778 0.31777 0.0
H349 H 0.12266 0.4465 0.37491 0.0
H350 H 0.9461 0.1754 0.28835 0.0
H351 H 0.91583 0.18234 0.35101 0.0
H352 H 1.02542 0.1906 0.26276 0.0
H353 H 0.0889 0.24641 0.23879 0.0
C354 C 0.76355 0.78974 1.00157 0.0
C355 C 0.73636 0.752 0.95562 0.0
C356 C 0.75925 0.68387 0.99966 0.0
C357 C 0.79084 0.72342 0.04294 0.0
N358 N 0.83159 0.81822 0.07889 0.0
N359 N 0.72147 0.66949 0.90396 0.0
C360 C 0.79544 0.77763 0.04213 0.0
C361 C 0.73822 0.70099 0.95263 0.0
N362 N 0.75685 0.83578 1.00819 0.0
N363 N 0.7465 0.62891 1.00472 0.0
H364 H 0.70809 0.68174 0.86766 0.0
H365 H 0.72689 0.63474 0.89737 0.0
H366 H 0.75883 0.61359 0.03939 0.0
H367 H 0.7185 0.5972 0.97758 0.0
H368 H 0.77024 0.86124 0.04425 0.0
H369 H 0.73375 0.84596 0.97983 0.0
H370 H 0.84125 0.86015 0.07644 0.0
H371 H 0.85597 0.81117 0.1086 0.0
C372 C 0.34698 1.01489 0.73571 0.0
C373 C 0.33305 0.05849 0.73149 0.0
C374 C 0.26937 1.00828 0.65125 0.0
C375 C 0.2889 0.96866 0.65096 0.0
N376 N 0.35564 0.94182 0.68632 0.0
N377 N 0.28451 0.0996 0.68213 0.0
C378 C 0.32993 0.97372 0.69171 0.0
C379 C 0.29532 0.05603 0.68821 0.0
N380 N 0.37673 1.01273 0.78166 0.0
N381 N 0.22437 0.99906 0.618 0.0
H382 H 0.29981 0.13338 0.71043 0.0
H383 H 0.26311 0.10385 0.64734 0.0
H384 H 0.20347 0.96406 0.59155 0.0
H385 H 0.20441 1.0231 0.6205 0.0
H386 H 0.38339 0.97894 0.78977 0.0
H387 H 0.39028 0.04204 0.81458 0.0
H388 H 0.3901 0.94799 0.71089 0.0
H389 H 0.34683 0.91324 0.65328 0.0
C390 C 0.39964 0.64614 0.91857 0.0
C391 C 0.41025 0.60178 0.93369 0.0
C392 C 0.49789 0.64715 0.8787 0.0
C393 C 0.49108 0.69474 0.86985 0.0
N394 N 0.43909 0.74326 0.88752 0.0
N395 N 0.47646 0.56695 0.93841 0.0
C396 C 0.44276 0.69524 0.89129 0.0
C397 C 0.46117 0.60392 0.91638 0.0
N398 N 0.34786 0.64068 0.92877 0.0
N399 N 0.53861 0.64247 0.84972 0.0
H400 H 0.45278 0.53645 0.96873 0.0
H401 H 0.5158 0.5705 0.93135 0.0
H402 H 0.56497 0.67291 0.82062 0.0
H403 H 0.54245 0.60637 0.85043 0.0
H404 H 0.33578 0.6691 0.91376 0.0
H405 H 0.31503 0.60493 0.94771 0.0
H406 H 0.40785 0.74827 0.90758 0.0
H407 H 0.47018 0.77994 0.86826 0.0
C408 C 0.35106 0.76781 0.59524 0.0
C409 C 0.36425 0.79623 0.54185 0.0
C410 C 0.46228 0.81529 0.54989 0.0
C411 C 0.44912 0.7881 0.6037 0.0
N412 N 0.37999 0.72741 0.67183 0.0
N413 N 0.42977 0.8407 0.46428 0.0
C414 C 0.39312 0.76117 0.62467 0.0
C415 C 0.41892 0.81739 0.51762 0.0
N416 N 0.29829 0.74707 0.61788 0.0
N417 N 0.51697 0.84201 0.53132 0.0
H418 H 0.40243 0.85043 0.44229 0.0
H419 H 0.46549 0.84952 0.44082 0.0
H420 H 0.54957 0.84088 0.5535 0.0
H421 H 0.53116 0.86739 0.49524 0.0
H422 H 0.28806 0.73296 0.65967 0.0
H423 H 0.26449 0.74563 0.59564 0.0
H424 H 0.33918 0.70196 0.68679 0.0
H425 H 0.40974 0.72077 0.69342 0.0
C426 C 0.28889 0.62138 0.22196 0.0
C427 C 0.24498 0.56503 0.2137 0.0
C428 C 0.18182 0.58389 0.27221 0.0
C429 C 0.22366 0.64168 0.27486 0.0
N430 N 0.31363 0.71755 0.24412 0.0
N431 N 0.14593 0.4958 0.22209 0.0
C432 C 0.27625 0.66108 0.24729 0.0
C433 C 0.19037 0.54715 0.23627 0.0
N434 N 0.34322 0.63636 0.20838 0.0
N435 N 0.13519 0.56308 0.30632 0.0
H436 H 0.14977 0.4669 0.19647 0.0
H437 H 0.10419 0.48384 0.23163 0.0
H438 H 0.12751 0.58772 0.33471 0.0
H439 H 0.1068 0.52017 0.31074 0.0
H440 H 0.3777 0.67527 0.21874 0.0
H441 H 0.35459 0.60789 0.19217 0.0
H442 H 0.35016 0.7345 0.21958 0.0
H443 H 0.30549 0.74788 0.26163 0.0
C444 C 0.63033 0.47178 0.07816 0.0
C445 C 0.61629 0.41424 0.07813 0.0
C446 C 0.70023 0.4385 0.13615 0.0
C447 C 0.70977 0.49433 0.1425 0.0
N448 N 0.67624 0.56061 0.12769 0.0
N449 N 0.6328 0.34107 0.11493 0.0
C450 C 0.6726 0.50997 0.11589 0.0
C451 C 0.6498 0.39705 0.1094 0.0
N452 N 0.60586 0.49107 0.03986 0.0
N453 N 0.74061 0.42564 0.15281 0.0
H454 H 0.59575 0.30947 0.09663 0.0
H455 H 0.65257 0.32587 0.14205 0.0
H456 H 0.77933 0.45542 0.16977 0.0
H457 H 0.7383 0.38718 0.14404 0.0
H458 H 0.61911 0.5337 0.03429 0.0
H459 H 0.57686 0.46564 0.00913 0.0
H460 H 0.64572 0.57082 0.11496 0.0
H461 H 0.70683 0.59054 0.15429 0.0
C462 C 0.59746 0.16999 0.74313 0.0
C463 C 0.65494 0.2129 0.74164 0.0
C464 C 0.632 0.27319 0.79986 0.0
C465 C 0.57634 0.22755 0.80784 0.0
N466 N 0.50954 0.1285 0.79426 0.0
N467 N 0.72899 0.30216 0.77616 0.0
C468 C 0.56002 0.17481 0.78153 0.0
C469 C 0.67284 0.26362 0.77224 0.0
N470 N 0.57749 0.12601 0.70563 0.0
N471 N 0.64513 0.3264 0.81566 0.0
H472 H 0.7602 0.29633 0.75704 0.0
H473 H 0.74484 0.33719 0.80275 0.0
H474 H 0.61556 0.33574 0.83286 0.0
H475 H 0.68336 0.36204 0.80576 0.0
H476 H 0.53471 0.09707 0.70087 0.0
H477 H 0.60246 0.12164 0.67484 0.0
H478 H 0.49928 0.08784 0.78215 0.0
H479 H 0.47994 0.12965 0.82107 0.0
C480 C 0.78987 0.37657 0.46966 0.0
C481 C 0.83396 0.36327 0.4746 0.0
C482 C 0.89434 0.4441 0.41397 0.0
C483 C 0.85224 0.46033 0.41336 0.0
N484 N 0.76396 0.44792 0.44868 0.0
N485 N 0.9324 0.39189 0.46176 0.0
C486 C 0.80113 0.42826 0.4436 0.0
C487 C 0.88742 0.39924 0.44977 0.0
N488 N 0.73655 0.33874 0.48727 0.0
N489 N 0.93959 0.46924 0.37804 0.0
H490 H 0.92938 0.3594 0.48743 0.0
H491 H 0.97373 0.42114 0.45074 0.0
H492 H 0.94616 0.50134 0.34972 0.0
H493 H 0.96787 0.45444 0.37221 0.0
H494 H 0.70154 0.34341 0.47891 0.0
H495 H 0.7261 0.30001 0.50565 0.0
H496 H 0.7288 0.42947 0.47516 0.0
H497 H 0.77107 0.48578 0.43046 0.0
C498 C 1.03096 0.38685 0.8124 0.0
C499 C 1.01819 0.42443 0.78243 0.0
C500 C 0.03917 0.48137 0.86866 0.0
C501 C 0.0431 0.43892 0.90015 0.0
N502 N 1.02242 0.3418 0.90285 0.0
N503 N 0.99527 0.49937 0.78785 0.0
C504 C 1.03256 0.38858 0.87237 0.0
C505 C 1.0177 0.46936 0.81226 0.0
N506 N 0.04452 0.35153 0.78415 0.0
N507 N 0.05813 0.53378 0.89109 0.0
H508 H 0.97601 0.48965 0.74788 0.0
H509 H 0.99021 0.52956 0.81009 0.0
H510 H 0.07761 0.54561 0.93083 0.0
H511 H 0.06013 0.56709 0.86741 0.0
H512 H 0.05799 0.3266 0.80531 0.0
H513 H 0.04926 0.35236 0.74007 0.0
H514 H 1.01072 0.30323 0.88348 0.0
H515 H 1.0189 0.33975 0.94712 0.0
C516 C 0.57845 0.56162 0.53909 0.0
C517 C 0.59161 0.61417 0.56335 0.0
C518 C 0.62053 0.65799 0.46947 0.0
C519 C 0.62251 0.60974 0.45026 0.0
N520 N 0.60025 0.51342 0.46596 0.0
N521 N 0.57882 0.69245 0.53793 0.0
C522 C 0.60038 0.56073 0.48475 0.0
C523 C 0.59931 0.65734 0.52468 0.0
N524 N 0.53679 0.51304 0.56228 0.0
N525 N 0.63958 0.70462 0.43561 0.0
H526 H 0.55597 0.68705 0.57529 0.0
H527 H 0.57827 0.72147 0.50937 0.0
H528 H 0.6544 0.70642 0.39432 0.0
H529 H 0.64423 0.74271 0.4502 0.0
H530 H 0.52189 0.47368 0.5434 0.0
H531 H 0.51174 0.51385 0.59542 0.0
H532 H 0.58898 0.47851 0.49212 0.0
H533 H 0.61525 0.51083 0.4259 0.0
C534 C 0.40546 0.97418 0.13984 0.0
C535 C 0.45633 1.02201 0.12197 0.0
C536 C 0.50254 1.01512 0.2084 0.0
C537 C 0.44892 0.97911 0.23235 0.0
N538 N 0.36543 0.89447 0.20411 0.0
N539 N 0.55536 0.08685 0.13835 0.0
C540 C 0.40411 0.94938 0.19341 0.0
C541 C 0.50568 0.04202 0.15584 0.0
N542 N 0.35848 0.95264 0.10613 0.0
N543 N 0.54913 1.01572 0.23044 0.0
H544 H 0.55951 0.10771 0.09982 0.0
H545 H 0.591 0.10565 0.16442 0.0
H546 H 0.54574 0.98826 0.26325 0.0
H547 H 0.58876 0.03722 0.21142 0.0
H548 H 0.31905 0.92132 0.12008 0.0
H549 H 0.35816 0.96865 0.06582 0.0
H550 H 0.33473 0.86864 0.17486 0.0
H551 H 0.36919 0.87341 0.23965 0.0
loop_
_geom_bond_atom_site_label_1
_geom_bond_atom_site_label_2
_geom_bond_distance
_geom_bond_site_symmetry_2
_ccdc_geom_bond_type
O0 Tb1 2.292 1_556 S
O0 C3 1.255 . S
Tb1 O0 2.292 1_554 S
Tb1 O17 2.326 . S
Tb1 O19 2.500 . S
Tb1 O20 2.473 . S
Tb1 O23 2.324 . S
Eu2 O6 2.292 . S
Eu2 C7 2.852 . S
Eu2 O18 2.324 . S
Eu2 O22 2.326 . S
Eu2 O24 2.500 . S
Eu2 O25 2.473 . S
C3 O0 1.255 . S
C3 O4 1.247 . S
O4 C3 1.247 . S
C5 O17 1.242 . S
C5 O18 1.258 . S
O6 Eu2 2.292 . S
O6 C8 1.255 . S
C7 Eu2 2.852 . S
C7 C11 1.503 . S
C7 O24 1.273 . S
C7 O25 1.257 . S
C8 O6 1.255 . S
C8 O9 1.247 . S
O9 C8 1.247 . S
C10 O22 1.242 . S
C10 O23 1.258 . S
C11 C7 1.503 . S
C11 C12 1.379 1_554 S
C11 C16 1.392 . S
C12 C11 1.379 1_556 S
C12 C13 1.404 . S
C12 H26 0.929 . S
C13 C12 1.404 . S
C13 C14 1.389 1_455 S
C14 C13 1.389 1_655 S
C14 C15 1.399 1_556 S
C14 H27 0.931 . S
C15 C14 1.399 1_554 S
C15 C16 1.390 1_655 S
C16 C11 1.392 . S
C16 C15 1.390 1_455 S
C16 H28 0.929 1_455 S
O17 Tb1 2.326 . S
O17 C5 1.242 . S
O18 Eu2 2.324 . S
O18 C5 1.258 . S
O19 Tb1 2.500 . S
O19 C21 1.273 . S
O20 Tb1 2.473 . S
O20 C21 1.257 . S
C21 O19 1.273 . S
C21 O20 1.257 . S
O22 Eu2 2.326 . S
O22 C10 1.242 . S
O23 Tb1 2.324 . S
O23 C10 1.258 . S
O24 Eu2 2.500 . S
O24 C7 1.273 . S
O25 Eu2 2.473 . S
O25 C7 1.257 . S
H26 C12 0.929 . S
H27 C14 0.931 . S
H28 C16 0.929 1_655 S
O29 Tb30 2.292 . S
O29 C32 1.255 . S
Tb30 O29 2.292 . S
Tb30 O46 2.326 . S
Tb30 O48 2.500 . S
Tb30 O49 2.473 . S
Tb30 O52 2.324 . S
Eu31 O35 2.292 . S
Eu31 C36 2.852 . S
Eu31 O47 2.324 . S
Eu31 O51 2.326 . S
Eu31 O53 2.500 . S
Eu31 O54 2.473 . S
C32 O29 1.255 . S
C32 O33 1.247 . S
O33 C32 1.247 . S
C34 O46 1.242 . S
C34 O47 1.258 . S
O35 Eu31 2.292 . S
O35 C37 1.255 . S
C36 Eu31 2.852 . S
C36 C40 1.503 . S
C36 O53 1.273 . S
C36 O54 1.257 . S
C37 O35 1.255 . S
C37 O38 1.247 . S
O38 C37 1.247 . S
C39 O51 1.242 . S
C39 O52 1.258 . S
C40 C36 1.503 . S
C40 C41 1.379 . S
C40 C45 1.392 . S
C41 C40 1.379 . S
C41 C42 1.404 . S
C41 H55 0.929 . S
C42 C41 1.404 . S
C42 C43 1.389 . S
C43 C42 1.389 . S
C43 C44 1.399 . S
C43 H56 0.931 . S
C44 C43 1.399 . S
C44 C45 1.390 . S
C45 C40 1.392 . S
C45 C44 1.390 . S
C45 H57 0.929 . S
O46 Tb30 2.326 . S
O46 C34 1.242 . S
O47 Eu31 2.324 . S
O47 C34 1.258 . S
O48 Tb30 2.500 . S
O48 C50 1.273 . S
O49 Tb30 2.473 . S
O49 C50 1.257 . S
C50 O48 1.273 . S
C50 O49 1.257 . S
O51 Eu31 2.326 . S
O51 C39 1.242 . S
O52 Tb30 2.324 . S
O52 C39 1.258 . S
O53 Eu31 2.500 . S
O53 C36 1.273 . S
O54 Eu31 2.473 . S
O54 C36 1.257 . S
H55 C41 0.929 . S
H56 C43 0.931 . S
H57 C45 0.929 . S
O58 Tb59 2.292 . S
O58 C61 1.255 . S
Tb59 O58 2.292 . S
Tb59 O75 2.326 . S
Tb59 O77 2.500 . S
Tb59 O78 2.473 . S
Tb59 O81 2.324 . S
Eu60 O64 2.292 . S
Eu60 C65 2.852 . S
Eu60 O76 2.324 . S
Eu60 O80 2.326 . S
Eu60 O82 2.500 . S
Eu60 O83 2.473 . S
C61 O58 1.255 . S
C61 O62 1.247 . S
O62 C61 1.247 . S
C63 O75 1.242 . S
C63 O76 1.258 . S
O64 Eu60 2.292 . S
O64 C66 1.255 . S
C65 Eu60 2.852 . S
C65 C69 1.503 . S
C65 O82 1.273 . S
C65 O83 1.257 . S
C66 O64 1.255 . S
C66 O67 1.247 . S
O67 C66 1.247 . S
C68 O80 1.242 . S
C68 O81 1.258 . S
C69 C65 1.503 . S
C69 C70 1.379 . S
C69 C74 1.392 . S
C70 C69 1.379 . S
C70 C71 1.404 . S
C70 H84 0.929 . S
C71 C70 1.404 . S
C71 C72 1.389 1_565 S
C72 C71 1.389 1_545 S
C72 C73 1.399 . S
C72 H85 0.931 . S
C73 C72 1.399 . S
C73 C74 1.390 1_545 S
C74 C69 1.392 . S
C74 C73 1.390 1_565 S
C74 H86 0.929 1_565 S
O75 Tb59 2.326 . S
O75 C63 1.242 . S
O76 Eu60 2.324 . S
O76 C63 1.258 . S
O77 Tb59 2.500 . S
O77 C79 1.273 . S
O78 Tb59 2.473 . S
O78 C79 1.257 . S
C79 O77 1.273 . S
C79 O78 1.257 . S
O80 Eu60 2.326 . S
O80 C68 1.242 . S
O81 Tb59 2.324 . S
O81 C68 1.258 . S
O82 Eu60 2.500 . S
O82 C65 1.273 . S
O83 Eu60 2.473 . S
O83 C65 1.257 . S
H84 C70 0.929 . S
H85 C72 0.931 . S
H86 C74 0.929 1_545 S
O87 Tb88 2.292 1_554 S
O87 C90 1.255 . S
Tb88 O87 2.292 1_556 S
Tb88 O104 2.326 . S
Tb88 O106 2.500 . S
Tb88 O107 2.473 . S
Tb88 O110 2.324 . S
Eu89 O93 2.292 . S
Eu89 C94 2.852 . S
Eu89 O105 2.324 . S
Eu89 O109 2.326 . S
Eu89 O111 2.500 . S
Eu89 O112 2.473 . S
C90 O87 1.255 . S
C90 O91 1.247 . S
O91 C90 1.247 . S
C92 O104 1.242 . S
C92 O105 1.258 . S
O93 Eu89 2.292 . S
O93 C95 1.255 . S
C94 Eu89 2.852 . S
C94 C98 1.503 . S
C94 O111 1.273 . S
C94 O112 1.257 . S
C95 O93 1.255 . S
C95 O96 1.247 . S
O96 C95 1.247 . S
C97 O109 1.242 . S
C97 O110 1.258 . S
C98 C94 1.503 . S
C98 C99 1.379 1_556 S
C98 C103 1.392 . S
C99 C98 1.379 1_554 S
C99 C100 1.404 . S
C99 H113 0.929 . S
C100 C99 1.404 . S
C100 C101 1.389 1_545 S
C101 C100 1.389 1_565 S
C101 C102 1.399 1_554 S
C101 H114 0.931 . S
C102 C101 1.399 1_556 S
C102 C103 1.390 1_565 S
C103 C98 1.392 . S
C103 C102 1.390 1_545 S
C103 H115 0.929 1_545 S
O104 Tb88 2.326 . S
O104 C92 1.242 . S
O105 Eu89 2.324 . S
O105 C92 1.258 . S
O106 Tb88 2.500 . S
O106 C108 1.273 . S
O107 Tb88 2.473 . S
O107 C108 1.257 . S
C108 O106 1.273 . S
C108 O107 1.257 . S
O109 Eu89 2.326 . S
O109 C97 1.242 . S
O110 Tb88 2.324 . S
O110 C97 1.258 . S
O111 Eu89 2.500 . S
O111 C94 1.273 . S
O112 Eu89 2.473 . S
O112 C94 1.257 . S
H113 C99 0.929 . S
H114 C101 0.931 . S
H115 C103 0.929 1_565 S
O116 Tb117 2.292 . S
O116 C119 1.255 . S
Tb117 O116 2.292 . S
Tb117 O133 2.326 . S
Tb117 O135 2.500 . S
Tb117 O136 2.473 . S
Tb117 O139 2.324 . S
Eu118 O122 2.292 . S
Eu118 C123 2.852 . S
Eu118 O134 2.324 . S
Eu118 O138 2.326 . S
Eu118 O140 2.500 . S
Eu118 O141 2.473 . S
C119 O116 1.255 . S
C119 O120 1.247 . S
O120 C119 1.247 . S
C121 O133 1.242 . S
C121 O134 1.258 . S
O122 Eu118 2.292 . S
O122 C124 1.255 . S
C123 Eu118 2.852 . S
C123 C127 1.503 . S
C123 O140 1.273 . S
C123 O141 1.257 . S
C124 O122 1.255 . S
C124 O125 1.247 . S
O125 C124 1.247 . S
C126 O138 1.242 . S
C126 O139 1.258 . S
C127 C123 1.503 . S
C127 C128 1.379 . S
C127 C132 1.392 . S
C128 C127 1.379 . S
C128 C129 1.404 . S
C128 H142 0.929 . S
C129 C128 1.404 . S
C129 C130 1.389 1_655 S
C130 C129 1.389 1_455 S
C130 C131 1.399 . S
C130 H143 0.931 . S
C131 C130 1.399 . S
C131 C132 1.390 1_455 S
C132 C127 1.392 . S
C132 C131 1.390 1_655 S
C132 H144 0.929 1_655 S
O133 Tb117 2.326 . S
O133 C121 1.242 . S
O134 Eu118 2.324 . S
O134 C121 1.258 . S
O135 Tb117 2.500 . S
O135 C137 1.273 . S
O136 Tb117 2.473 . S
O136 C137 1.257 . S
C137 O135 1.273 . S
C137 O136 1.257 . S
O138 Eu118 2.326 . S
O138 C126 1.242 . S
O139 Tb117 2.324 . S
O139 C126 1.258 . S
O140 Eu118 2.500 . S
O140 C123 1.273 . S
O141 Eu118 2.473 . S
O141 C123 1.257 . S
H142 C128 0.929 . S
H143 C130 0.931 . S
H144 C132 0.929 1_455 S
O145 Tb146 2.292 . S
O145 C148 1.255 . S
Tb146 O145 2.292 . S
Tb146 O162 2.326 . S
Tb146 O164 2.500 . S
Tb146 O165 2.473 . S
Tb146 O168 2.324 . S
Eu147 O151 2.292 . S
Eu147 C152 2.852 . S
Eu147 O163 2.324 . S
Eu147 O167 2.326 . S
Eu147 O169 2.500 . S
Eu147 O170 2.473 . S
C148 O145 1.255 . S
C148 O149 1.247 . S
O149 C148 1.247 . S
C150 O162 1.242 . S
C150 O163 1.258 . S
O151 Eu147 2.292 . S
O151 C153 1.255 . S
C152 Eu147 2.852 . S
C152 C156 1.503 . S
C152 O169 1.273 . S
C152 O170 1.257 . S
C153 O151 1.255 . S
C153 O154 1.247 . S
O154 C153 1.247 . S
C155 O167 1.242 . S
C155 O168 1.258 . S
C156 C152 1.503 . S
C156 C157 1.379 . S
C156 C161 1.392 . S
C157 C156 1.379 . S
C157 C158 1.404 . S
C157 H171 0.929 . S
C158 C157 1.404 . S
C158 C159 1.389 . S
C159 C158 1.389 . S
C159 C160 1.399 . S
C159 H172 0.931 . S
C160 C159 1.399 . S
C160 C161 1.390 . S
C161 C156 1.392 . S
C161 C160 1.390 . S
C161 H173 0.929 . S
O162 Tb146 2.326 . S
O162 C150 1.242 . S
O163 Eu147 2.324 . S
O163 C150 1.258 . S
O164 Tb146 2.500 . S
O164 C166 1.273 . S
O165 Tb146 2.473 . S
O165 C166 1.257 . S
C166 O164 1.273 . S
C166 O165 1.257 . S
O167 Eu147 2.326 . S
O167 C155 1.242 . S
O168 Tb146 2.324 . S
O168 C155 1.258 . S
O169 Eu147 2.500 . S
O169 C152 1.273 . S
O170 Eu147 2.473 . S
O170 C152 1.257 . S
H171 C157 0.929 . S
H172 C159 0.931 . S
H173 C161 0.929 . S
C174 C175 1.363 . S
C174 C180 1.379 . S
C174 N182 1.356 . S
C175 C174 1.363 . S
C175 C181 1.363 . S
C176 C177 1.363 . S
C176 C181 1.379 . S
C176 N183 1.356 . S
C177 C176 1.363 . S
C177 C180 1.363 . S
N178 C180 1.356 . S
N178 H190 0.984 . S
N178 H191 0.985 . S
N179 C181 1.356 . S
N179 H184 0.984 . S
N179 H185 0.985 . S
C180 C174 1.379 . S
C180 C177 1.363 . S
C180 N178 1.356 . S
C181 C175 1.363 . S
C181 C176 1.379 . S
C181 N179 1.356 . S
N182 C174 1.356 . S
N182 H188 0.984 . S
N182 H189 0.984 . S
N183 C176 1.356 . S
N183 H186 0.984 . S
N183 H187 0.985 . S
H184 N179 0.984 . S
H185 N179 0.985 . S
H186 N183 0.984 . S
H187 N183 0.985 . S
H188 N182 0.984 . S
H189 N182 0.984 . S
H190 N178 0.984 . S
H191 N178 0.985 . S
C192 C193 1.363 . S
C192 C198 1.379 . S
C192 N200 1.356 . S
C193 C192 1.363 . S
C193 C199 1.363 . S
C194 C195 1.363 . S
C194 C199 1.379 . S
C194 N201 1.356 . S
C195 C194 1.363 . S
C195 C198 1.363 . S
N196 C198 1.356 . S
N196 H208 0.984 1_556 S
N196 H209 0.985 1_556 S
N197 C199 1.356 . S
N197 H202 0.984 . S
N197 H203 0.985 . S
C198 C192 1.379 . S
C198 C195 1.363 . S
C198 N196 1.356 . S
C199 C193 1.363 . S
C199 C194 1.379 . S
C199 N197 1.356 . S
N200 C192 1.356 . S
N200 H206 0.984 . S
N200 H207 0.984 . S
N201 C194 1.356 . S
N201 H204 0.984 . S
N201 H205 0.985 . S
H202 N197 0.984 . S
H203 N197 0.985 . S
H204 N201 0.984 . S
H205 N201 0.985 . S
H206 N200 0.984 . S
H207 N200 0.984 . S
H208 N196 0.984 1_554 S
H209 N196 0.985 1_554 S
C210 C211 1.363 . S
C210 C216 1.379 . S
C210 N218 1.356 . S
C211 C210 1.363 . S
C211 C217 1.363 . S
C212 C213 1.363 . S
C212 C217 1.379 . S
C212 N219 1.356 . S
C213 C212 1.363 . S
C213 C216 1.363 . S
N214 C216 1.356 1_655 S
N214 H226 0.984 . S
N214 H227 0.985 . S
N215 C217 1.356 . S
N215 H220 0.984 . S
N215 H221 0.985 . S
C216 C210 1.379 . S
C216 C213 1.363 . S
C216 N214 1.356 1_455 S
C217 C211 1.363 . S
C217 C212 1.379 . S
C217 N215 1.356 . S
N218 C210 1.356 . S
N218 H224 0.984 1_455 S
N218 H225 0.984 . S
N219 C212 1.356 . S
N219 H222 0.984 . S
N219 H223 0.985 . S
H220 N215 0.984 . S
H221 N215 0.985 . S
H222 N219 0.984 . S
H223 N219 0.985 . S
H224 N218 0.984 1_655 S
H225 N218 0.984 . S
H226 N214 0.984 . S
H227 N214 0.985 . S
C228 C229 1.363 . S
C228 C234 1.379 . S
C228 N236 1.356 . S
C229 C228 1.363 . S
C229 C235 1.363 . S
C230 C231 1.363 . S
C230 C235 1.379 . S
C230 N237 1.356 . S
C231 C230 1.363 . S
C231 C234 1.363 . S
N232 C234 1.356 . S
N232 H244 0.984 . S
N232 H245 0.985 . S
N233 C235 1.356 . S
N233 H238 0.984 . S
N233 H239 0.985 . S
C234 C228 1.379 . S
C234 C231 1.363 . S
C234 N232 1.356 . S
C235 C229 1.363 . S
C235 C230 1.379 . S
C235 N233 1.356 . S
N236 C228 1.356 . S
N236 H242 0.984 . S
N236 H243 0.984 . S
N237 C230 1.356 . S
N237 H240 0.984 . S
N237 H241 0.985 . S
H238 N233 0.984 . S
H239 N233 0.985 . S
H240 N237 0.984 . S
H241 N237 0.985 . S
H242 N236 0.984 . S
H243 N236 0.984 . S
H244 N232 0.984 . S
H245 N232 0.985 . S
C246 C247 1.363 . S
C246 C252 1.379 . S
C246 N254 1.356 . S
C247 C246 1.363 . S
C247 C253 1.363 . S
C248 C249 1.363 . S
C248 C253 1.379 . S
C248 N255 1.356 . S
C249 C248 1.363 . S
C249 C252 1.363 . S
N250 C252 1.356 . S
N250 H262 0.984 . S
N250 H263 0.985 . S
N251 C253 1.356 . S
N251 H256 0.984 . S
N251 H257 0.985 1_545 S
C252 C246 1.379 . S
C252 C249 1.363 . S
C252 N250 1.356 . S
C253 C247 1.363 . S
C253 C248 1.379 . S
C253 N251 1.356 . S
N254 C246 1.356 . S
N254 H260 0.984 . S
N254 H261 0.984 . S
N255 C248 1.356 . S
N255 H258 0.984 . S
N255 H259 0.985 . S
H256 N251 0.984 . S
H257 N251 0.985 1_565 S
H258 N255 0.984 . S
H259 N255 0.985 . S
H260 N254 0.984 . S
H261 N254 0.984 . S
H262 N250 0.984 . S
H263 N250 0.985 . S
C264 C265 1.363 . S
C264 C270 1.379 . S
C264 N272 1.356 . S
C265 C264 1.363 . S
C265 C271 1.363 . S
C266 C267 1.363 . S
C266 C271 1.379 . S
C266 N273 1.356 . S
C267 C266 1.363 . S
C267 C270 1.363 . S
N268 C270 1.356 . S
N268 H280 0.984 . S
N268 H281 0.985 . S
N269 C271 1.356 . S
N269 H274 0.984 . S
N269 H275 0.985 . S
C270 C264 1.379 . S
C270 C267 1.363 . S
C270 N268 1.356 . S
C271 C265 1.363 . S
C271 C266 1.379 . S
C271 N269 1.356 . S
N272 C264 1.356 . S
N272 H278 0.984 1_554 S
N272 H279 0.984 1_554 S
N273 C266 1.356 . S
N273 H276 0.984 . S
N273 H277 0.985 . S
H274 N269 0.984 . S
H275 N269 0.985 . S
H276 N273 0.984 . S
H277 N273 0.985 . S
H278 N272 0.984 1_556 S
H279 N272 0.984 1_556 S
H280 N268 0.984 . S
H281 N268 0.985 . S
C282 C283 1.363 . S
C282 C288 1.379 . S
C282 N290 1.356 . S
C283 C282 1.363 . S
C283 C289 1.363 1_556 S
C284 C285 1.363 . S
C284 C289 1.379 . S
C284 N291 1.356 . S
C285 C284 1.363 . S
C285 C288 1.363 1_554 S
N286 C288 1.356 . S
N286 H298 0.984 . S
N286 H299 0.985 . S
N287 C289 1.356 . S
N287 H292 0.984 . S
N287 H293 0.985 . S
C288 C282 1.379 . S
C288 C285 1.363 1_556 S
C288 N286 1.356 . S
C289 C283 1.363 1_554 S
C289 C284 1.379 . S
C289 N287 1.356 . S
N290 C282 1.356 . S
N290 H296 0.984 . S
N290 H297 0.984 . S
N291 C284 1.356 . S
N291 H294 0.984 . S
N291 H295 0.985 . S
H292 N287 0.984 . S
H293 N287 0.985 . S
H294 N291 0.984 . S
H295 N291 0.985 . S
H296 N290 0.984 . S
H297 N290 0.984 . S
H298 N286 0.984 . S
H299 N286 0.985 . S
C300 C301 1.363 . S
C300 C306 1.379 1_545 S
C300 N308 1.356 . S
C301 C300 1.363 . S
C301 C307 1.363 . S
C302 C303 1.363 . S
C302 C307 1.379 1_565 S
C302 N309 1.356 . S
C303 C302 1.363 . S
C303 C306 1.363 . S
N304 C306 1.356 . S
N304 H316 0.984 . S
N304 H317 0.985 . S
N305 C307 1.356 . S
N305 H310 0.984 . S
N305 H311 0.985 . S
C306 C300 1.379 1_565 S
C306 C303 1.363 . S
C306 N304 1.356 . S
C307 C301 1.363 . S
C307 C302 1.379 1_545 S
C307 N305 1.356 . S
N308 C300 1.356 . S
N308 H314 0.984 . S
N308 H315 0.984 . S
N309 C302 1.356 . S
N309 H312 0.984 . S
N309 H313 0.985 . S
H310 N305 0.984 . S
H311 N305 0.985 . S
H312 N309 0.984 . S
H313 N309 0.985 . S
H314 N308 0.984 . S
H315 N308 0.984 . S
H316 N304 0.984 . S
H317 N304 0.985 . S
C318 C319 1.363 . S
C318 C324 1.379 1_655 S
C318 N326 1.356 . S
C319 C318 1.363 . S
C319 C325 1.363 . S
C320 C321 1.363 . S
C320 C325 1.379 1_455 S
C320 N327 1.356 . S
C321 C320 1.363 . S
C321 C324 1.363 . S
N322 C324 1.356 . S
N322 H334 0.984 . S
N322 H335 0.985 . S
N323 C325 1.356 . S
N323 H328 0.984 . S
N323 H329 0.985 . S
C324 C318 1.379 1_455 S
C324 C321 1.363 . S
C324 N322 1.356 . S
C325 C319 1.363 . S
C325 C320 1.379 1_655 S
C325 N323 1.356 . S
N326 C318 1.356 . S
N326 H332 0.984 . S
N326 H333 0.984 . S
N327 C320 1.356 . S
N327 H330 0.984 . S
N327 H331 0.985 . S
H328 N323 0.984 . S
H329 N323 0.985 . S
H330 N327 0.984 . S
H331 N327 0.985 . S
H332 N326 0.984 . S
H333 N326 0.984 . S
H334 N322 0.984 . S
H335 N322 0.985 . S
C336 C337 1.363 . S
C336 C342 1.379 1_655 S
C336 N344 1.356 . S
C337 C336 1.363 . S
C337 C343 1.363 . S
C338 C339 1.363 . S
C338 C343 1.379 1_455 S
C338 N345 1.356 . S
C339 C338 1.363 . S
C339 C342 1.363 . S
N340 C342 1.356 . S
N340 H352 0.984 . S
N340 H353 0.985 . S
N341 C343 1.356 . S
N341 H346 0.984 . S
N341 H347 0.985 . S
C342 C336 1.379 1_455 S
C342 C339 1.363 . S
C342 N340 1.356 . S
C343 C337 1.363 . S
C343 C338 1.379 1_655 S
C343 N341 1.356 . S
N344 C336 1.356 . S
N344 H350 0.984 . S
N344 H351 0.984 . S
N345 C338 1.356 . S
N345 H348 0.984 . S
N345 H349 0.985 . S
H346 N341 0.984 . S
H347 N341 0.985 . S
H348 N345 0.984 . S
H349 N345 0.985 . S
H350 N344 0.984 . S
H351 N344 0.984 . S
H352 N340 0.984 . S
H353 N340 0.985 . S
C354 C355 1.363 1_554 S
C354 C360 1.379 . S
C354 N362 1.356 . S
C355 C354 1.363 1_556 S
C355 C361 1.363 . S
C356 C357 1.363 1_556 S
C356 C361 1.379 . S
C356 N363 1.356 . S
C357 C356 1.363 1_554 S
C357 C360 1.363 . S
N358 C360 1.356 . S
N358 H370 0.984 . S
N358 H371 0.985 . S
N359 C361 1.356 . S
N359 H364 0.984 . S
N359 H365 0.985 . S
C360 C354 1.379 . S
C360 C357 1.363 . S
C360 N358 1.356 . S
C361 C355 1.363 . S
C361 C356 1.379 . S
C361 N359 1.356 . S
N362 C354 1.356 . S
N362 H368 0.984 . S
N362 H369 0.984 . S
N363 C356 1.356 . S
N363 H366 0.984 . S
N363 H367 0.985 . S
H364 N359 0.984 . S
H365 N359 0.985 . S
H366 N363 0.984 . S
H367 N363 0.985 . S
H368 N362 0.984 . S
H369 N362 0.984 . S
H370 N358 0.984 . S
H371 N358 0.985 . S
C372 C373 1.363 . S
C372 C378 1.379 1_545 S
C372 N380 1.356 . S
C373 C372 1.363 . S
C373 C379 1.363 . S
C374 C375 1.363 . S
C374 C379 1.379 1_565 S
C374 N381 1.356 . S
C375 C374 1.363 . S
C375 C378 1.363 . S
N376 C378 1.356 . S
N376 H388 0.984 . S
N376 H389 0.985 . S
N377 C379 1.356 . S
N377 H382 0.984 . S
N377 H383 0.985 . S
C378 C372 1.379 1_565 S
C378 C375 1.363 . S
C378 N376 1.356 . S
C379 C373 1.363 . S
C379 C374 1.379 1_545 S
C379 N377 1.356 . S
N380 C372 1.356 . S
N380 H386 0.984 . S
N380 H387 0.984 . S
N381 C374 1.356 . S
N381 H384 0.984 . S
N381 H385 0.985 . S
H382 N377 0.984 . S
H383 N377 0.985 . S
H384 N381 0.984 . S
H385 N381 0.985 . S
H386 N380 0.984 . S
H387 N380 0.984 . S
H388 N376 0.984 . S
H389 N376 0.985 . S
C390 C391 1.363 . S
C390 C396 1.379 . S
C390 N398 1.356 . S
C391 C390 1.363 . S
C391 C397 1.363 . S
C392 C393 1.363 . S
C392 C397 1.379 . S
C392 N399 1.356 . S
C393 C392 1.363 . S
C393 C396 1.363 . S
N394 C396 1.356 . S
N394 H406 0.984 . S
N394 H407 0.985 . S
N395 C397 1.356 . S
N395 H400 0.984 . S
N395 H401 0.985 . S
C396 C390 1.379 . S
C396 C393 1.363 . S
C396 N394 1.356 . S
C397 C391 1.363 . S
C397 C392 1.379 . S
C397 N395 1.356 . S
N398 C390 1.356 . S
N398 H404 0.984 . S
N398 H405 0.984 . S
N399 C392 1.356 . S
N399 H402 0.984 . S
N399 H403 0.985 . S
H400 N395 0.984 . S
H401 N395 0.985 . S
H402 N399 0.984 . S
H403 N399 0.985 . S
H404 N398 0.984 . S
H405 N398 0.984 . S
H406 N394 0.984 . S
H407 N394 0.985 . S
C408 C409 1.363 . S
C408 C414 1.379 . S
C408 N416 1.356 . S
C409 C408 1.363 . S
C409 C415 1.363 . S
C410 C411 1.363 . S
C410 C415 1.379 . S
C410 N417 1.356 . S
C411 C410 1.363 . S
C411 C414 1.363 . S
N412 C414 1.356 . S
N412 H424 0.984 . S
N412 H425 0.985 . S
N413 C415 1.356 . S
N413 H418 0.984 . S
N413 H419 0.985 . S
C414 C408 1.379 . S
C414 C411 1.363 . S
C414 N412 1.356 . S
C415 C409 1.363 . S
C415 C410 1.379 . S
C415 N413 1.356 . S
N416 C408 1.356 . S
N416 H422 0.984 . S
N416 H423 0.984 . S
N417 C410 1.356 . S
N417 H420 0.984 . S
N417 H421 0.985 . S
H418 N413 0.984 . S
H419 N413 0.985 . S
H420 N417 0.984 . S
H421 N417 0.985 . S
H422 N416 0.984 . S
H423 N416 0.984 . S
H424 N412 0.984 . S
H425 N412 0.985 . S
C426 C427 1.363 . S
C426 C432 1.379 . S
C426 N434 1.356 . S
C427 C426 1.363 . S
C427 C433 1.363 . S
C428 C429 1.363 . S
C428 C433 1.379 . S
C428 N435 1.356 . S
C429 C428 1.363 . S
C429 C432 1.363 . S
N430 C432 1.356 . S
N430 H442 0.984 . S
N430 H443 0.985 . S
N431 C433 1.356 . S
N431 H436 0.984 . S
N431 H437 0.985 . S
C432 C426 1.379 . S
C432 C429 1.363 . S
C432 N430 1.356 . S
C433 C427 1.363 . S
C433 C428 1.379 . S
C433 N431 1.356 . S
N434 C426 1.356 . S
N434 H440 0.984 . S
N434 H441 0.984 . S
N435 C428 1.356 . S
N435 H438 0.984 . S
N435 H439 0.985 . S
H436 N431 0.984 . S
H437 N431 0.985 . S
H438 N435 0.984 . S
H439 N435 0.985 . S
H440 N434 0.984 . S
H441 N434 0.984 . S
H442 N430 0.984 . S
H443 N430 0.985 . S
C444 C445 1.363 . S
C444 C450 1.379 . S
C444 N452 1.356 . S
C445 C444 1.363 . S
C445 C451 1.363 . S
C446 C447 1.363 . S
C446 C451 1.379 . S
C446 N453 1.356 . S
C447 C446 1.363 . S
C447 C450 1.363 . S
N448 C450 1.356 . S
N448 H460 0.984 . S
N448 H461 0.985 . S
N449 C451 1.356 . S
N449 H454 0.984 . S
N449 H455 0.984 1_554 S
C450 C444 1.379 . S
C450 C447 1.363 . S
C450 N448 1.356 . S
C451 C445 1.363 . S
C451 C446 1.379 . S
C451 N449 1.356 . S
N452 C444 1.356 . S
N452 H458 0.984 . S
N452 H459 0.984 . S
N453 C446 1.356 . S
N453 H456 0.984 . S
N453 H457 0.985 . S
H454 N449 0.984 . S
H455 N449 0.984 1_556 S
H456 N453 0.984 . S
H457 N453 0.985 . S
H458 N452 0.984 . S
H459 N452 0.984 . S
H460 N448 0.984 . S
H461 N448 0.985 . S
C462 C463 1.363 . S
C462 C468 1.379 . S
C462 N470 1.356 . S
C463 C462 1.363 . S
C463 C469 1.363 . S
C464 C465 1.363 . S
C464 C469 1.379 . S
C464 N471 1.356 . S
C465 C464 1.363 . S
C465 C468 1.363 . S
N466 C468 1.356 . S
N466 H478 0.984 . S
N466 H479 0.985 . S
N467 C469 1.356 . S
N467 H472 0.984 . S
N467 H473 0.985 . S
C468 C462 1.379 . S
C468 C465 1.363 . S
C468 N466 1.356 . S
C469 C463 1.363 . S
C469 C464 1.379 . S
C469 N467 1.356 . S
N470 C462 1.356 . S
N470 H476 0.984 . S
N470 H477 0.984 . S
N471 C464 1.356 . S
N471 H474 0.984 . S
N471 H475 0.985 . S
H472 N467 0.984 . S
H473 N467 0.985 . S
H474 N471 0.984 . S
H475 N471 0.985 . S
H476 N470 0.984 . S
H477 N470 0.984 . S
H478 N466 0.984 . S
H479 N466 0.985 . S
C480 C481 1.363 . S
C480 C486 1.379 . S
C480 N488 1.356 . S
C481 C480 1.363 . S
C481 C487 1.363 . S
C482 C483 1.363 . S
C482 C487 1.379 . S
C482 N489 1.356 . S
C483 C482 1.363 . S
C483 C486 1.363 . S
N484 C486 1.356 . S
N484 H496 0.984 . S
N484 H497 0.985 . S
N485 C487 1.356 . S
N485 H490 0.984 . S
N485 H491 0.985 . S
C486 C480 1.379 . S
C486 C483 1.363 . S
C486 N484 1.356 . S
C487 C481 1.363 . S
C487 C482 1.379 . S
C487 N485 1.356 . S
N488 C480 1.356 . S
N488 H494 0.984 . S
N488 H495 0.984 . S
N489 C482 1.356 . S
N489 H492 0.984 . S
N489 H493 0.985 . S
H490 N485 0.984 . S
H491 N485 0.985 . S
H492 N489 0.984 . S
H493 N489 0.985 . S
H494 N488 0.984 . S
H495 N488 0.984 . S
H496 N484 0.984 . S
H497 N484 0.985 . S
C498 C499 1.363 1_455 S
C498 C504 1.379 . S
C498 N506 1.356 . S
C499 C498 1.363 1_655 S
C499 C505 1.363 . S
C500 C501 1.363 1_655 S
C500 C505 1.379 . S
C500 N507 1.356 . S
C501 C500 1.363 1_455 S
C501 C504 1.363 . S
N502 C504 1.356 . S
N502 H514 0.984 . S
N502 H515 0.985 . S
N503 C505 1.356 . S
N503 H508 0.984 . S
N503 H509 0.985 . S
C504 C498 1.379 . S
C504 C501 1.363 . S
C504 N502 1.356 . S
C505 C499 1.363 . S
C505 C500 1.379 . S
C505 N503 1.356 . S
N506 C498 1.356 . S
N506 H512 0.984 . S
N506 H513 0.984 1_455 S
N507 C500 1.356 . S
N507 H510 0.984 1_655 S
N507 H511 0.985 . S
H508 N503 0.984 . S
H509 N503 0.985 . S
H510 N507 0.984 1_455 S
H511 N507 0.985 . S
H512 N506 0.984 . S
H513 N506 0.984 1_655 S
H514 N502 0.984 . S
H515 N502 0.985 . S
C516 C517 1.363 . S
C516 C522 1.379 . S
C516 N524 1.356 . S
C517 C516 1.363 . S
C517 C523 1.363 . S
C518 C519 1.363 . S
C518 C523 1.379 . S
C518 N525 1.356 . S
C519 C518 1.363 . S
C519 C522 1.363 . S
N520 C522 1.356 . S
N520 H532 0.984 . S
N520 H533 0.985 . S
N521 C523 1.356 . S
N521 H526 0.984 . S
N521 H527 0.985 . S
C522 C516 1.379 . S
C522 C519 1.363 . S
C522 N520 1.356 . S
C523 C517 1.363 . S
C523 C518 1.379 . S
C523 N521 1.356 . S
N524 C516 1.356 . S
N524 H530 0.984 . S
N524 H531 0.984 . S
N525 C518 1.356 . S
N525 H528 0.984 . S
N525 H529 0.985 . S
H526 N521 0.984 . S
H527 N521 0.985 . S
H528 N525 0.984 . S
H529 N525 0.985 . S
H530 N524 0.984 . S
H531 N524 0.984 . S
H532 N520 0.984 . S
H533 N520 0.985 . S
C534 C535 1.363 1_565 S
C534 C540 1.379 . S
C534 N542 1.356 . S
C535 C534 1.363 1_545 S
C535 C541 1.363 . S
C536 C537 1.363 1_545 S
C536 C541 1.379 . S
C536 N543 1.356 . S
C537 C536 1.363 1_565 S
C537 C540 1.363 . S
N538 C540 1.356 . S
N538 H550 0.984 . S
N538 H551 0.985 . S
N539 C541 1.356 . S
N539 H544 0.984 . S
N539 H545 0.985 . S
C540 C534 1.379 . S
C540 C537 1.363 . S
C540 N538 1.356 . S
C541 C535 1.363 . S
C541 C536 1.379 . S
C541 N539 1.356 . S
N542 C534 1.356 . S
N542 H548 0.984 . S
N542 H549 0.984 . S
N543 C536 1.356 . S
N543 H546 0.984 . S
N543 H547 0.985 . S
H544 N539 0.984 . S
H545 N539 0.985 . S
H546 N543 0.984 . S
H547 N543 0.985 . S
H548 N542 0.984 . S
H549 N542 0.984 . S
H550 N538 0.984 . S
H551 N538 0.985 . S
C175 C160 1.679 . S
C177 C21 1.658 . S
C193 C50 1.658 . S
C195 C102 1.679 . S
C211 C79 1.658 . S
C213 C131 1.679 . S
C229 C44 1.679 . S
C231 C108 1.658 . S
C247 C73 1.679 . S
C249 C137 1.658 . S
C265 C15 1.679 . S
C267 C166 1.658 . S
C283 C92 2.450 . S
C285 C5 2.450 . S
C301 C121 2.450 . S
C303 C34 2.450 . S
C319 C150 2.450 . S
C321 C63 2.450 . S
C337 C124 2.312 . S
C339 C8 2.312 . S
C355 C37 2.312 . S
C357 C153 2.312 . S
C373 C95 2.312 . S
C375 C66 2.312 . S
C391 C3 1.452 . S
C393 C39 1.585 . S
C409 C68 1.585 . S
C411 C32 1.453 . S
C427 C10 1.585 . S
C429 C61 1.453 . S
C445 C90 1.452 . S
C447 C155 1.585 . S
C463 C119 1.452 . S
C465 C97 1.585 . S
C481 C126 1.585 . S
C483 C148 1.453 . S
C499 C129 1.493 . S
C501 C13 1.493 . S
C517 C42 1.493 . S
C519 C158 1.493 . S
C535 C100 1.493 . S
C537 C71 1.493 . S
