# Generated by pormake.
# Topology vmc, (5)-cn, num edge types: 1
# Building blocks:
#     Node 0, Type 0, BuildingBlock: BEQFEK_clean_sbu_0, # of connection points: 5
#     Node 1, Type 0, BuildingBlock: BEQFEK_clean_sbu_0, # of connection points: 5
#     Node 2, Type 0, BuildingBlock: BEQFEK_clean_sbu_0, # of connection points: 5
#     Node 3, Type 0, BuildingBlock: BEQFEK_clean_sbu_0, # of connection points: 5
#     Node 4, Type 0, BuildingBlock: BEQFEK_clean_sbu_0, # of connection points: 5
#     Node 5, Type 0, BuildingBlock: BEQFEK_clean_sbu_0, # of connection points: 5
#     Node 6, Type 0, BuildingBlock: BEQFEK_clean_sbu_0, # of connection points: 5
#     Node 7, Type 0, BuildingBlock: BEQFEK_clean_sbu_0, # of connection points: 5
#     Edge 8, Type (0, 0), BuildingBlock: TEMPAE_clean_linker_10, # of connection points: 2
#     Edge 9, Type (0, 0), BuildingBlock: TEMPAE_clean_linker_10, # of connection points: 2
#     Edge 10, Type (0, 0), BuildingBlock: TEMPAE_clean_linker_10, # of connection points: 2
#     Edge 11, Type (0, 0), BuildingBlock: TEMPAE_clean_linker_10, # of connection points: 2
#     Edge 12, Type (0, 0), BuildingBlock: TEMPAE_clean_linker_10, # of connection points: 2
#     Edge 13, Type (0, 0), BuildingBlock: TEMPAE_clean_linker_10, # of connection points: 2
#     Edge 14, Type (0, 0), BuildingBlock: TEMPAE_clean_linker_10, # of connection points: 2
#     Edge 15, Type (0, 0), BuildingBlock: TEMPAE_clean_linker_10, # of connection points: 2
#     Edge 16, Type (0, 0), BuildingBlock: TEMPAE_clean_linker_10, # of connection points: 2
#     Edge 17, Type (0, 0), BuildingBlock: TEMPAE_clean_linker_10, # of connection points: 2
#     Edge 18, Type (0, 0), BuildingBlock: TEMPAE_clean_linker_10, # of connection points: 2
#     Edge 19, Type (0, 0), BuildingBlock: TEMPAE_clean_linker_10, # of connection points: 2
#     Edge 20, Type (0, 0), BuildingBlock: TEMPAE_clean_linker_10, # of connection points: 2
#     Edge 21, Type (0, 0), BuildingBlock: TEMPAE_clean_linker_10, # of connection points: 2
#     Edge 22, Type (0, 0), BuildingBlock: TEMPAE_clean_linker_10, # of connection points: 2
#     Edge 23, Type (0, 0), BuildingBlock: TEMPAE_clean_linker_10, # of connection points: 2
#     Edge 24, Type (0, 0), BuildingBlock: TEMPAE_clean_linker_10, # of connection points: 2
#     Edge 25, Type (0, 0), BuildingBlock: TEMPAE_clean_linker_10, # of connection points: 2
#     Edge 26, Type (0, 0), BuildingBlock: TEMPAE_clean_linker_10, # of connection points: 2
#     Edge 27, Type (0, 0), BuildingBlock: TEMPAE_clean_linker_10, # of connection points: 2
# Relax obj value: 0.504
# Max RMSD: 0.272
# Mean RMSD: 0.272
data_MOF--net-vmc--node1-BEQFEK_clean_sbu_0--edge1-TEMPAE_clean_linker_10
_symmetry_space_group_name_H-M    P1
_symmetry_Int_Tables_number       1
_symmetry_cell_setting            triclinic
loop_
_symmetry_equiv_pos_as_xyz
'x, y, z'
_cell_length_a     49.548063
_cell_length_b     48.400073
_cell_length_c     27.697386
_cell_angle_alpha  90.036434
_cell_angle_beta   105.21706
_cell_angle_gamma 90.190982
loop_
_atom_site_label
_atom_site_type_symbol
_atom_site_fract_x
_atom_site_fract_y
_atom_site_fract_z
_atom_type_partial_charge
Co0 Co 0.39609 0.45533 0.12806 0.0
Co1 Co 0.35111 0.40779 0.11793 0.0
C2 C 0.41066 0.39797 0.17069 0.0
O3 O 0.41537 0.42306 0.16262 0.0
O4 O 0.38637 0.38736 0.15433 0.0
C5 C 0.45132 0.47512 0.13267 0.0
O6 O 0.45926 0.45505 0.16509 0.0
C7 C 0.3204 0.3557 0.08489 0.0
C8 C 0.2773 0.36708 0.08497 0.0
C9 C 0.29314 0.34544 0.07436 0.0
N10 N 0.32048 0.382 0.10088 0.0
N11 N 0.29466 0.38857 0.10113 0.0
C12 C 0.34564 0.34181 0.07612 0.0
H13 H 0.3612 0.35742 0.07136 0.0
H14 H 0.33972 0.32833 0.04254 0.0
H15 H 0.35548 0.32889 0.10907 0.0
C16 C 0.37267 0.45753 0.02015 0.0
N17 N 0.37344 0.44597 0.06453 0.0
N18 N 0.35525 0.42555 0.0582 0.0
C19 C 0.34247 0.42335 0.00865 0.0
C20 C 0.3535 0.44337 0.983 0.0
C21 C 0.38843 0.48319 0.01389 0.0
H22 H 0.38851 0.49794 0.04457 0.0
H23 H 0.41032 0.47762 0.01528 0.0
H24 H 0.37897 0.49361 0.97777 0.0
O25 O 0.37359 0.47059 0.16963 0.0
O26 O 0.34198 0.43694 0.16458 0.0
H27 H 0.30273 0.40452 0.00368 0.0
H28 H 0.31269 0.40485 0.94524 0.0
C29 C 0.32043 0.40244 0.98638 0.0
H30 H 0.32921 0.38142 0.99467 0.0
H31 H 0.28879 0.40793 0.11144 0.0
O32 O 0.42547 0.48096 0.11768 0.0
C33 C 0.35243 0.4604 0.18134 0.0
Co34 Co 0.61782 0.45719 0.3851 0.0
Co35 Co 0.66122 0.40936 0.3924 0.0
C36 C 0.60221 0.40059 0.33809 0.0
O37 O 0.59827 0.42587 0.34605 0.0
O38 O 0.62588 0.38926 0.35611 0.0
C39 C 0.5628 0.47643 0.3827 0.0
O40 O 0.55445 0.45514 0.35308 0.0
C41 C 0.69089 0.35728 0.42403 0.0
C42 C 0.73442 0.3684 0.42586 0.0
C43 C 0.71799 0.34696 0.43563 0.0
N44 N 0.69138 0.38351 0.40826 0.0
N45 N 0.71743 0.38994 0.409 0.0
C46 C 0.66535 0.34364 0.43242 0.0
H47 H 0.65023 0.3594 0.438 0.0
H48 H 0.67095 0.32974 0.46538 0.0
H49 H 0.65514 0.33115 0.39895 0.0
C50 C 0.6405 0.45731 0.49331 0.0
N51 N 0.63918 0.44616 0.44835 0.0
N52 N 0.65756 0.42613 0.45324 0.0
C53 C 0.67114 0.42383 0.50238 0.0
C54 C 0.66042 0.44336 0.52926 0.0
C55 C 0.62512 0.48288 0.5009 0.0
H56 H 0.6254 0.49808 0.47112 0.0
H57 H 0.6031 0.47734 0.4988 0.0
H58 H 0.63456 0.49277 0.53761 0.0
O59 O 0.64245 0.47449 0.34951 0.0
O60 O 0.67068 0.43895 0.34707 0.0
H61 H 0.7112 0.40676 0.50468 0.0
H62 H 0.70245 0.40608 0.56417 0.0
C63 C 0.69408 0.4037 0.52311 0.0
H64 H 0.68592 0.38239 0.51496 0.0
H65 H 0.72372 0.4093 0.39934 0.0
O66 O 0.58866 0.48264 0.39575 0.0
C67 C 0.66257 0.46375 0.33554 0.0
Co68 Co 0.62209 0.54324 0.8978 0.0
Co69 Co 0.65787 0.59654 0.8938 0.0
C70 C 0.59714 0.59664 0.84689 0.0
O71 O 0.59734 0.57144 0.85959 0.0
O72 O 0.61937 0.61123 0.85947 0.0
C73 C 0.57067 0.51506 0.89903 0.0
O74 O 0.55971 0.52562 0.85462 0.0
C75 C 0.68456 0.65153 0.92115 0.0
C76 C 0.72563 0.64524 0.90571 0.0
C77 C 0.71012 0.66437 0.92414 0.0
N78 N 0.68518 0.62584 0.90256 0.0
N79 N 0.70977 0.62237 0.89318 0.0
C80 C 0.6594 0.66403 0.93287 0.0
H81 H 0.64088 0.65041 0.92019 0.0
H82 H 0.6633 0.66734 0.97367 0.0
H83 H 0.6551 0.68454 0.91457 0.0
C84 C 0.65052 0.54628 0.00281 0.0
N85 N 0.6454 0.55712 0.95679 0.0
N86 N 0.65957 0.58025 0.9581 0.0
C87 C 0.67375 0.58513 0.00643 0.0
C88 C 0.66792 0.56388 0.03605 0.0
C89 C 0.64126 0.51809 0.01443 0.0
H90 H 0.64059 0.50376 0.98289 0.0
H91 H 0.62016 0.5194 0.0208 0.0
H92 H 0.65568 0.50957 0.04881 0.0
O93 O 0.64504 0.52824 0.85719 0.0
O94 O 0.66779 0.5671 0.84814 0.0
H95 H 0.70725 0.61174 1.00005 0.0
H96 H 0.70499 0.60645 0.06357 0.0
C97 C 0.69274 0.60919 0.02413 0.0
H98 H 0.68003 0.62815 0.02159 0.0
H99 H 0.71593 0.60416 0.87898 0.0
O100 O 0.59684 0.5169 0.91851 0.0
C101 C 0.66224 0.54143 0.83866 0.0
Co102 Co 0.3908 0.55252 0.60759 0.0
Co103 Co 0.34608 0.59713 0.61301 0.0
C104 C 0.40772 0.60872 0.64974 0.0
O105 O 0.41293 0.58453 0.63734 0.0
O106 O 0.38268 0.61709 0.64345 0.0
C107 C 0.44378 0.52744 0.61035 0.0
O108 O 0.4534 0.53995 0.65352 0.0
C109 C 0.31488 0.64766 0.57772 0.0
C110 C 0.27827 0.64423 0.60877 0.0
C111 C 0.29041 0.66104 0.57967 0.0
N112 N 0.31687 0.62398 0.60383 0.0
N113 N 0.29492 0.62206 0.62234 0.0
C114 C 0.33694 0.6578 0.55395 0.0
H115 H 0.35709 0.64724 0.57008 0.0
H116 H 0.33056 0.65324 0.5133 0.0
H117 H 0.33969 0.68049 0.55885 0.0
C118 C 0.35881 0.54989 0.50353 0.0
N119 N 0.36411 0.56203 0.54864 0.0
N120 N 0.34419 0.57976 0.54948 0.0
C121 C 0.32499 0.57883 0.50436 0.0
C122 C 0.33384 0.55987 0.47394 0.0
C123 C 0.37668 0.52786 0.48993 0.0
H124 H 0.39826 0.53579 0.49593 0.0
H125 H 0.36915 0.5215 0.4503 0.0
H126 H 0.3771 0.50959 0.51427 0.0
O127 O 0.37189 0.53543 0.65475 0.0
O128 O 0.34121 0.56793 0.66186 0.0
H129 H 0.2886 0.59264 0.52551 0.0
H130 H 0.28229 0.58309 0.46015 0.0
C131 C 0.29728 0.59303 0.49247 0.0
H132 H 0.30006 0.61487 0.48275 0.0
H133 H 0.29131 0.60563 0.64424 0.0
O134 O 0.41778 0.52785 0.58899 0.0
C135 C 0.3526 0.54432 0.67344 0.0
Co136 Co 0.88387 0.96287 0.10491 0.0
Co137 Co 0.84519 0.91185 0.11054 0.0
C138 C 0.90599 0.90913 0.15784 0.0
O139 O 0.90727 0.93411 0.1446 0.0
O140 O 0.883 0.89568 0.14539 0.0
C141 C 0.93612 0.98975 0.10455 0.0
O142 O 0.94701 0.97417 0.14355 0.0
C143 C 0.81693 0.85773 0.08546 0.0
C144 C 0.77446 0.86727 0.09193 0.0
C145 C 0.79021 0.84651 0.07822 0.0
N146 N 0.81671 0.88387 0.10212 0.0
N147 N 0.79135 0.88925 0.10657 0.0
C148 C 0.84151 0.84507 0.07207 0.0
H149 H 0.85625 0.86136 0.0666 0.0
H150 H 0.83457 0.83237 0.03763 0.0
H151 H 0.85268 0.83147 0.10309 0.0
C152 C 0.85712 0.9576 0.99865 0.0
N153 N 0.86095 0.94836 0.0456 0.0
N154 N 0.84454 0.92696 0.04587 0.0
C155 C 0.82963 0.92198 0.99804 0.0
C156 C 0.8376 0.94105 0.96679 0.0
C157 C 0.87034 0.98328 0.98494 0.0
H158 H 0.87002 0.99985 0.01243 0.0
H159 H 0.89233 0.97871 0.9855 0.0
H160 H 0.85928 0.99089 0.94718 0.0
O161 O 0.86058 0.9794 0.14408 0.0
O162 O 0.83606 0.94217 0.15476 0.0
H163 H 0.79296 0.90093 0.00587 0.0
H164 H 0.79637 0.90201 0.94243 0.0
C165 C 0.80792 0.8999 0.98239 0.0
H166 H 0.81819 0.87943 0.98783 0.0
H167 H 0.78526 0.90834 0.11766 0.0
O168 O 0.90974 0.98983 0.08637 0.0
C169 C 0.84268 0.96769 0.16295 0.0
Co170 Co 0.11005 0.94996 0.38693 0.0
Co171 Co 0.15571 0.90549 0.38835 0.0
C172 C 0.09475 0.89224 0.35036 0.0
O173 O 0.08917 0.91661 0.36108 0.0
O174 O 0.11994 0.88418 0.35729 0.0
C175 C 0.05616 0.9736 0.37659 0.0
O176 O 0.04943 0.9624 0.33185 0.0
C177 C 0.18632 0.85435 0.42011 0.0
C178 C 0.22793 0.86326 0.40865 0.0
C179 C 0.21275 0.8431 0.42577 0.0
N180 N 0.18596 0.87979 0.40052 0.0
N181 N 0.21084 0.88495 0.39343 0.0
C182 C 0.16245 0.84245 0.43711 0.0
H183 H 0.1488 0.85919 0.44449 0.0
H184 H 0.17022 0.82986 0.4714 0.0
H185 H 0.14976 0.829 0.40713 0.0
C186 C 0.14143 0.95622 0.4915 0.0
N187 N 0.137 0.94328 0.44717 0.0
N188 N 0.15556 0.92355 0.45022 0.0
C189 C 0.17222 0.92312 0.49769 0.0
C190 C 0.16353 0.94376 0.52513 0.0
C191 C 0.12564 0.98104 0.50119 0.0
H192 H 0.106 0.97414 0.50936 0.0
H193 H 0.13778 0.99302 0.53392 0.0
H194 H 0.12059 0.99471 0.46796 0.0
O195 O 0.12755 0.96518 0.33674 0.0
O196 O 0.16148 0.9345 0.3393 0.0
H197 H 0.21069 0.90582 0.49074 0.0
H198 H 0.20854 0.9097 0.55469 0.0
C199 C 0.19667 0.90436 0.51593 0.0
H200 H 0.18913 0.88274 0.51518 0.0
H201 H 0.21633 0.90349 0.37922 0.0
O202 O 0.08149 0.97366 0.40217 0.0
C203 C 0.14846 0.9567 0.32218 0.0
Co204 Co 0.10902 0.05183 0.88272 0.0
Co205 Co 0.15439 0.09832 0.88854 0.0
C206 C 0.09261 0.10972 0.85079 0.0
O207 O 0.08742 0.08476 0.8587 0.0
O208 O 0.11767 0.11869 0.8593 0.0
C209 C 0.05599 0.02715 0.87211 0.0
O210 O 0.04874 0.04337 0.833 0.0
C211 C 0.18633 0.14896 0.92868 0.0
C212 C 0.22429 0.14415 0.90195 0.0
C213 C 0.21165 0.16171 0.92896 0.0
N214 N 0.18437 0.12502 0.90306 0.0
N215 N 0.2072 0.1223 0.88734 0.0
C216 C 0.1636 0.15997 0.94971 0.0
H217 H 0.14348 0.14939 0.93275 0.0
H218 H 0.16902 0.15623 0.9906 0.0
H219 H 0.1613 0.18259 0.94333 0.0
C220 C 0.13778 0.04624 0.98827 0.0
N221 N 0.13449 0.05934 0.94443 0.0
N222 N 0.1544 0.07792 0.94829 0.0
C223 C 0.17176 0.07636 0.99507 0.0
C224 C 0.16174 0.05609 0.02165 0.0
C225 C 0.11783 0.02499 0.99825 0.0
H226 H 0.09623 0.03323 0.98668 0.0
H227 H 0.12244 0.01945 0.03841 0.0
H228 H 0.11882 0.00614 0.97598 0.0
O229 O 0.12856 0.03879 0.83344 0.0
O230 O 0.16104 0.07141 0.83714 0.0
H231 H 0.20973 0.09245 0.98266 0.0
H232 H 0.21227 0.08272 0.04694 0.0
C233 C 0.19861 0.09204 0.01256 0.0
H234 H 0.19396 0.11362 0.02096 0.0
H235 H 0.21104 0.10558 0.8663 0.0
O236 O 0.08173 0.02448 0.89406 0.0
C237 C 0.14911 0.04876 0.81946 0.0
Co238 Co 0.87823 0.04198 0.60707 0.0
Co239 Co 0.8421 0.09434 0.61097 0.0
C240 C 0.90181 0.09476 0.66356 0.0
O241 O 0.90166 0.06957 0.65095 0.0
O242 O 0.87998 0.10946 0.64819 0.0
C243 C 0.9221 0.03274 0.57053 0.0
O244 O 0.91876 0.05966 0.56995 0.0
C245 C 0.81626 0.14945 0.58665 0.0
C246 C 0.7739 0.14211 0.59601 0.0
C247 C 0.79046 0.16195 0.58171 0.0
N248 N 0.8148 0.12325 0.60227 0.0
N249 N 0.78946 0.11913 0.60812 0.0
C250 C 0.84219 0.16268 0.57896 0.0
H251 H 0.86113 0.15188 0.60067 0.0
H252 H 0.84194 0.16171 0.53891 0.0
H253 H 0.84322 0.18477 0.59014 0.0
C254 C 0.85211 0.04639 0.50087 0.0
N255 N 0.8562 0.05651 0.54733 0.0
N256 N 0.84176 0.07935 0.54621 0.0
C257 C 0.82842 0.08475 0.49766 0.0
C258 C 0.83517 0.06419 0.46767 0.0
C259 C 0.86195 0.01868 0.48831 0.0
H260 H 0.86424 0.00422 0.52013 0.0
H261 H 0.8823 0.02111 0.47916 0.0
H262 H 0.84692 0.00968 0.45496 0.0
O263 O 0.85383 0.02512 0.64323 0.0
O264 O 0.83135 0.06378 0.65372 0.0
H265 H 0.79461 0.11072 0.50417 0.0
H266 H 0.79693 0.10556 0.44064 0.0
C267 C 0.80914 0.10847 0.48009 0.0
H268 H 0.82159 0.12769 0.48255 0.0
H269 H 0.7826 0.10042 0.61948 0.0
O270 O 0.90593 0.01768 0.58839 0.0
C271 C 0.83634 0.03791 0.6615 0.0
C272 C 0.34047 0.4988 0.70452 0.0
C273 C 0.34474 0.52731 0.71181 0.0
C274 C 0.33656 0.48175 0.74319 0.0
C275 C 0.33832 0.49336 0.79086 0.0
C276 C 0.3416 0.52235 0.79772 0.0
C277 C 0.34424 0.53905 0.75773 0.0
C278 C 0.33188 0.45119 0.73367 0.0
C279 C 0.34437 0.53551 0.84825 0.0
C280 C 0.32091 0.45725 0.90105 0.0
C281 C 0.34763 0.44934 0.92883 0.0
C282 C 0.31703 0.46977 0.85382 0.0
C283 C 0.34058 0.47514 0.83512 0.0
C284 C 0.36725 0.46541 0.86177 0.0
C285 C 0.37028 0.45215 0.90778 0.0
C286 C 0.28809 0.47878 0.82558 0.0
C287 C 0.39308 0.47105 0.84398 0.0
H288 H 0.34065 0.48979 0.66875 0.0
H289 H 0.34776 0.56108 0.76336 0.0
H290 H 0.35134 0.43982 0.75143 0.0
H291 H 0.31528 0.44347 0.75049 0.0
H292 H 0.32588 0.44629 0.69304 0.0
H293 H 0.34557 0.55841 0.84681 0.0
H294 H 0.32636 0.52971 0.8629 0.0
H295 H 0.36357 0.52781 0.87525 0.0
H296 H 0.30339 0.45522 0.91744 0.0
H297 H 0.39092 0.44586 0.92933 0.0
H298 H 0.28437 0.47459 0.78496 0.0
H299 H 0.28599 0.50136 0.8303 0.0
H300 H 0.27166 0.46817 0.83941 0.0
H301 H 0.3901 0.4635 0.80514 0.0
H302 H 0.41204 0.46112 0.86814 0.0
H303 H 0.39684 0.49367 0.8438 0.0
C304 C 0.69516 0.45923 0.60747 0.0
C305 C 0.66821 0.44989 0.58329 0.0
C306 C 0.70048 0.47225 0.65453 0.0
C307 C 0.67812 0.47654 0.6768 0.0
C308 C 0.65135 0.46541 0.65376 0.0
C309 C 0.64689 0.45185 0.60769 0.0
C310 C 0.72952 0.48289 0.67873 0.0
C311 C 0.62676 0.46968 0.67568 0.0
C312 C 0.68103 0.49895 0.80876 0.0
C313 C 0.67348 0.52683 0.80142 0.0
C314 C 0.68564 0.48285 0.76955 0.0
C315 C 0.68149 0.49468 0.72147 0.0
C316 C 0.67582 0.52335 0.71487 0.0
C317 C 0.67228 0.53921 0.75527 0.0
C318 C 0.69281 0.45269 0.77868 0.0
C319 C 0.67081 0.53672 0.66407 0.0
H320 H 0.7116 0.4579 0.58834 0.0
H321 H 0.62607 0.44456 0.58877 0.0
H322 H 0.73033 0.50546 0.67233 0.0
H323 H 0.73512 0.47945 0.71976 0.0
H324 H 0.74543 0.47282 0.66291 0.0
H325 H 0.60757 0.45895 0.65381 0.0
H326 H 0.63178 0.46205 0.71475 0.0
H327 H 0.62219 0.49209 0.67658 0.0
H328 H 0.68216 0.48943 0.84467 0.0
H329 H 0.66624 0.56072 0.74954 0.0
H330 H 0.70864 0.44632 0.75904 0.0
H331 H 0.6738 0.43994 0.76375 0.0
H332 H 0.70093 0.44814 0.81921 0.0
H333 H 0.68789 0.53154 0.64662 0.0
H334 H 0.66925 0.55957 0.6661 0.0
H335 H 0.65103 0.52864 0.63913 0.0
C336 C 0.67598 0.46906 0.25562 0.0
C337 C 0.67479 0.48011 0.30166 0.0
C338 C 0.68064 0.48628 0.21775 0.0
C339 C 0.68509 0.515 0.227 0.0
C340 C 0.6868 0.52562 0.27531 0.0
C341 C 0.681 0.50814 0.31179 0.0
C342 C 0.67806 0.47415 0.16648 0.0
C343 C 0.69266 0.55581 0.28738 0.0
C344 C 0.70177 0.55251 0.11767 0.0
C345 C 0.6749 0.56047 0.09083 0.0
C346 C 0.70608 0.53975 0.16477 0.0
C347 C 0.68279 0.53418 0.18408 0.0
C348 C 0.65606 0.54433 0.15864 0.0
C349 C 0.65261 0.55776 0.11276 0.0
C350 C 0.73508 0.53033 0.19177 0.0
C351 C 0.63046 0.53857 0.1771 0.0
H352 H 0.67093 0.44743 0.24775 0.0
H353 H 0.68022 0.51663 0.34765 0.0
H354 H 0.65872 0.48199 0.14004 0.0
H355 H 0.69596 0.48063 0.15209 0.0
H356 H 0.6771 0.45121 0.16661 0.0
H357 H 0.69933 0.55951 0.3284 0.0
H358 H 0.70915 0.56364 0.2704 0.0
H359 H 0.67344 0.56797 0.27159 0.0
H360 H 0.71894 0.55434 0.10034 0.0
H361 H 0.63179 0.56376 0.09152 0.0
H362 H 0.73723 0.50802 0.18447 0.0
H363 H 0.73897 0.53312 0.2328 0.0
H364 H 0.75136 0.54176 0.17881 0.0
H365 H 0.62625 0.516 0.17571 0.0
H366 H 0.61154 0.54916 0.15424 0.0
H367 H 0.63399 0.54528 0.21653 0.0
C368 C 0.31358 0.48015 0.21376 0.0
C369 C 0.3421 0.47518 0.21954 0.0
C370 C 0.30457 0.49567 0.24975 0.0
C371 C 0.32452 0.50549 0.29301 0.0
C372 C 0.35329 0.49987 0.29911 0.0
C373 C 0.36167 0.48517 0.26204 0.0
C374 C 0.27387 0.50195 0.24118 0.0
C375 C 0.37537 0.50858 0.34551 0.0
C376 C 0.3208 0.56392 0.38127 0.0
C377 C 0.31954 0.54899 0.42383 0.0
C378 C 0.31868 0.55029 0.33552 0.0
C379 C 0.31598 0.52108 0.3331 0.0
C380 C 0.31121 0.50657 0.3745 0.0
C381 C 0.31264 0.52084 0.41923 0.0
C382 C 0.32295 0.56669 0.29183 0.0
C383 C 0.30853 0.4755 0.37419 0.0
H384 H 0.29849 0.4726 0.18056 0.0
H385 H 0.38371 0.481 0.26672 0.0
H386 H 0.26624 0.49431 0.27298 0.0
H387 H 0.2707 0.52465 0.23926 0.0
H388 H 0.26098 0.49252 0.20606 0.0
H389 H 0.39693 0.50496 0.34213 0.0
H390 H 0.37333 0.53078 0.35376 0.0
H391 H 0.37255 0.4965 0.37786 0.0
H392 H 0.32622 0.58569 0.38491 0.0
H393 H 0.31181 0.50934 0.45241 0.0
H394 H 0.30936 0.55875 0.25603 0.0
H395 H 0.345 0.56463 0.29024 0.0
H396 H 0.31852 0.58898 0.29541 0.0
H397 H 0.29537 0.4679 0.33782 0.0
H398 H 0.29945 0.46807 0.40452 0.0
H399 H 0.3296 0.46623 0.37993 0.0
C400 C 0.8017 0.95445 0.8889 0.0
C401 C 0.82847 0.94452 0.912 0.0
C402 C 0.79609 0.96689 0.84137 0.0
C403 C 0.81805 0.97006 0.8177 0.0
C404 C 0.84438 0.95778 0.83926 0.0
C405 C 0.84906 0.94476 0.88579 0.0
C406 C 0.76741 0.97859 0.81861 0.0
C407 C 0.86859 0.96091 0.81596 0.0
C408 C 0.81548 0.99537 0.68749 0.0
C409 C 0.82445 0.02279 0.69732 0.0
C410 C 0.81018 0.97859 0.72535 0.0
C411 C 0.81528 0.98918 0.77457 0.0
C412 C 0.82252 0.01745 0.78376 0.0
C413 C 0.82656 0.03406 0.74468 0.0
C414 C 0.80119 0.949 0.71346 0.0
C415 C 0.82878 0.0295 0.83586 0.0
H416 H 0.78585 0.95443 0.90945 0.0
H417 H 0.8698 0.93715 0.90407 0.0
H418 H 0.76758 1.00108 0.82644 0.0
H419 H 0.76128 0.9758 0.77738 0.0
H420 H 0.75137 0.96874 0.83451 0.0
H421 H 0.88711 0.94871 0.83595 0.0
H422 H 0.8624 0.95425 0.77627 0.0
H423 H 0.87482 0.98299 0.81675 0.0
H424 H 0.8137 0.98671 0.65065 0.0
H425 H 0.83376 0.0552 0.75232 0.0
H426 H 0.78565 0.94262 0.73378 0.0
H427 H 0.81958 0.93524 0.7256 0.0
H428 H 0.79201 0.94587 0.67269 0.0
H429 H 0.81173 0.02457 0.85359 0.0
H430 H 0.83158 0.05229 0.83593 0.0
H431 H 0.84828 0.0202 0.85937 0.0
C432 C 0.18103 0.01574 0.79295 0.0
C433 C 0.15834 0.0339 0.78032 0.0
C434 C 0.18766 0.99881 0.75633 0.0
C435 C 0.17121 1.00031 0.70612 0.0
C436 C 0.14879 0.01939 0.69322 0.0
C437 C 0.14251 0.03579 0.73062 0.0
C438 C 0.21149 0.97861 0.77165 0.0
C439 C 0.13087 0.02193 0.6401 0.0
C440 C 0.1915 0.97453 0.59126 0.0
C441 C 0.17373 0.95163 0.57826 0.0
C442 C 0.19292 0.98937 0.63553 0.0
C443 C 0.17603 0.98107 0.66711 0.0
C444 C 0.16019 0.95632 0.65633 0.0
C445 C 0.15914 0.94197 0.61179 0.0
C446 C 0.2102 0.01548 0.64562 0.0
C447 C 0.14203 0.94656 0.68902 0.0
H448 H 0.19297 0.01412 0.83171 0.0
H449 H 0.12482 0.04975 0.72123 0.0
H450 H 0.20312 0.9572 0.76748 0.0
H451 H 0.22573 0.9806 0.74689 0.0
H452 H 0.22377 0.98168 0.81106 0.0
H453 H 0.11501 0.03853 0.63597 0.0
H454 H 0.1442 0.02638 0.61448 0.0
H455 H 0.11988 1.0021 0.62791 0.0
H456 H 0.20228 0.9823 0.56464 0.0
H457 H 0.14495 0.92458 0.60107 0.0
H458 H 0.22127 0.01728 0.68588 0.0
H459 H 0.1962 0.03361 0.63563 0.0
H460 H 0.22583 0.01633 0.62331 0.0
H461 H 0.15354 0.94779 0.72913 0.0
H462 H 0.13465 0.92498 0.68015 0.0
H463 H 0.12346 0.96014 0.68327 0.0
C464 C 0.17869 0.01597 0.07632 0.0
C465 C 0.17411 0.04451 0.07194 0.0
C466 C 0.18031 1.00231 0.12156 0.0
C467 C 0.17815 0.01778 0.16378 0.0
C468 C 0.17737 0.04706 0.1611 0.0
C469 C 0.17502 0.06015 0.1148 0.0
C470 C 0.1807 0.97112 0.1221 0.0
C471 C 0.17618 0.06438 0.20576 0.0
C472 C 0.13584 0.98392 0.24359 0.0
C473 C 0.15668 0.97254 0.28269 0.0
C474 C 0.14268 0.99877 0.205 0.0
C475 C 0.17117 0.00323 0.2064 0.0
C476 C 0.19239 0.99246 0.24666 0.0
C477 C 0.18487 0.97671 0.28392 0.0
C478 C 0.1193 0.00901 0.16199 0.0
C479 C 0.22291 0.99756 0.25032 0.0
H480 H 0.17809 0.00397 0.04296 0.0
H481 H 0.17155 0.08225 0.11135 0.0
H482 H 0.19535 0.96322 0.15667 0.0
H483 H 0.1595 0.9633 0.12135 0.0
H484 H 0.18673 0.96248 0.08925 0.0
H485 H 0.18191 0.08625 0.20112 0.0
H486 H 0.15461 0.06392 0.21038 0.0
H487 H 0.19039 0.05605 0.24051 0.0
H488 H 0.11404 0.98055 0.24247 0.0
H489 H 0.20099 0.96814 0.31452 0.0
H490 H 0.1213 0.99978 0.1264 0.0
H491 H 0.1207 0.03176 0.15849 0.0
H492 H 0.09828 0.00375 0.1666 0.0
H493 H 0.22885 0.98707 0.21904 0.0
H494 H 0.23671 0.98995 0.28616 0.0
H495 H 0.22677 0.01999 0.24696 0.0
C496 C 0.80255 0.05302 0.3845 0.0
C497 C 0.82908 0.06131 0.4128 0.0
C498 C 0.79912 0.04075 0.3371 0.0
C499 C 0.82293 0.03602 0.31889 0.0
C500 C 0.84933 0.04643 0.34592 0.0
C501 C 0.85192 0.05935 0.39211 0.0
C502 C 0.77046 0.03094 0.30854 0.0
C503 C 0.87545 0.04148 0.32871 0.0
C504 C 0.83043 0.97212 0.24432 0.0
C505 C 0.83152 0.98381 0.19867 0.0
C506 C 0.82588 0.98873 0.28306 0.0
C507 C 0.82142 0.01751 0.27521 0.0
C508 C 0.8199 0.02885 0.2275 0.0
C509 C 0.82555 0.01196 0.19008 0.0
C510 C 0.82829 0.97586 0.33367 0.0
C511 C 0.81414 0.05915 0.21696 0.0
H512 H 0.78497 0.0542 0.40087 0.0
H513 H 0.87247 0.06557 0.41447 0.0
H514 H 0.767 0.03459 0.26781 0.0
H515 H 0.76865 0.0084 0.31418 0.0
H516 H 0.75371 0.04145 0.32148 0.0
H517 H 0.89401 0.05232 0.35258 0.0
H518 H 0.87999 0.01901 0.32974 0.0
H519 H 0.8724 0.04847 0.28955 0.0
H520 H 0.83525 0.9504 0.25109 0.0
H521 H 0.82617 0.02097 0.15455 0.0
H522 H 0.8101 0.98158 0.34781 0.0
H523 H 0.84735 0.98385 0.36087 0.0
H524 H 0.82961 0.95297 0.3326 0.0
H525 H 0.79718 0.06633 0.23325 0.0
H526 H 0.80816 0.06355 0.17617 0.0
H527 H 0.83318 0.07136 0.23454 0.0
C528 C 0.49547 0.47101 0.10624 0.0
C529 C 0.47058 0.48529 0.10383 0.0
C530 C 0.51149 0.4767 0.0726 0.0
C531 C 0.50268 0.49757 0.03621 0.0
C532 C 0.4784 0.51312 0.03521 0.0
C533 C 0.46255 0.50672 0.06897 0.0
C534 C 0.53726 0.45963 0.07473 0.0
C535 C 0.46874 0.53596 0.99761 0.0
C536 C 0.55864 0.52473 0.97839 0.0
C537 C 0.55272 0.51036 0.93286 0.0
C538 C 0.54209 0.5213 0.0118 0.0
C539 C 0.51905 0.50296 0.99934 0.0
C540 C 0.51253 0.48883 0.95277 0.0
C541 C 0.52935 0.49298 0.91964 0.0
C542 C 0.54943 0.53717 0.06055 0.0
C543 C 0.48822 0.4689 0.93853 0.0
H544 H 0.50179 0.45441 0.13286 0.0
H545 H 0.4434 0.51795 0.06705 0.0
H546 H 0.53473 0.44842 0.03883 0.0
H547 H 0.55586 0.47323 0.07983 0.0
H548 H 0.54142 0.44431 0.10559 0.0
H549 H 0.45055 0.54733 0.00403 0.0
H550 H 0.48603 0.55086 0.99923 0.0
H551 H 0.4627 0.52718 0.95926 0.0
H552 H 0.57604 0.53915 0.98749 0.0
H553 H 0.52463 0.48226 0.88399 0.0
H554 H 0.55507 0.52259 0.09248 0.0
H555 H 0.53106 0.54913 0.06451 0.0
H556 H 0.56724 0.55163 0.06334 0.0
H557 H 0.49137 0.45179 0.96608 0.0
H558 H 0.48566 0.45996 0.90063 0.0
H559 H 0.46854 0.47947 0.93949 0.0
C560 C 0.55351 0.50927 0.44609 0.0
C561 C 0.54393 0.48835 0.41057 0.0
C562 C 0.53799 0.51704 0.4795 0.0
C563 C 0.51217 0.50376 0.47689 0.0
C564 C 0.50165 0.48373 0.43938 0.0
C565 C 0.51765 0.4763 0.40657 0.0
C566 C 0.54965 0.53877 0.51865 0.0
C567 C 0.47397 0.46941 0.43503 0.0
C568 C 0.48355 0.50193 0.59144 0.0
C569 C 0.4627 0.52199 0.57878 0.0
C570 C 0.50026 0.49601 0.55884 0.0
C571 C 0.49601 0.51082 0.51326 0.0
C572 C 0.47562 0.53184 0.50156 0.0
C573 C 0.45928 0.53721 0.53463 0.0
C574 C 0.52193 0.47349 0.57245 0.0
C575 C 0.47069 0.54831 0.45373 0.0
H576 H 0.57366 0.51889 0.44907 0.0
H577 H 0.51001 0.4602 0.37912 0.0
H578 H 0.53415 0.55548 0.51684 0.0
H579 H 0.55387 0.52947 0.55648 0.0
H580 H 0.56938 0.54804 0.51409 0.0
H581 H 0.46846 0.45479 0.40296 0.0
H582 H 0.47478 0.45779 0.46991 0.0
H583 H 0.45701 0.48488 0.4304 0.0
H584 H 0.48623 0.49046 0.62598 0.0
H585 H 0.44372 0.55343 0.52598 0.0
H586 H 0.5428 0.4817 0.57208 0.0
H587 H 0.51675 0.45668 0.54421 0.0
H588 H 0.52324 0.46457 0.60995 0.0
H589 H 0.4905 0.55802 0.45076 0.0
H590 H 0.45482 0.56477 0.45142 0.0
H591 H 0.46345 0.53438 0.42103 0.0
C592 C 0.03316 0.04587 0.93379 0.0
C593 C 0.03645 0.02381 0.90316 0.0
C594 C 0.01694 0.04296 0.96795 0.0
C595 C 0.00342 0.01747 0.97083 0.0
C596 C 0.00613 0.99533 0.9388 0.0
C597 C 0.02296 0.99869 0.90553 0.0
C598 C 0.01497 0.06687 0.00191 0.0
C599 C 0.99157 0.96801 0.94025 0.0
C600 C 0.9831 0.99633 0.08842 0.0
C601 C 0.95424 1.00147 0.07475 0.0
C602 C 0.99963 1.00253 0.05571 0.0
C603 C 0.98688 0.01372 0.00797 0.0
C604 C 0.9581 0.02039 0.99511 0.0
C605 C 0.94225 0.01464 0.02905 0.0
C606 C 0.03049 0.99595 0.07136 0.0
C607 C 0.94372 0.03226 0.94449 0.0
H608 H 0.044 0.0652 0.93193 0.0
H609 H 0.02582 0.98171 0.88183 0.0
H610 H 0.99276 0.07212 0.99833 0.0
H611 H 0.02431 0.06092 0.04145 0.0
H612 H 0.02593 0.08561 0.99354 0.0
H613 H 0.99472 0.9534 0.91128 0.0
H614 H 0.9996 0.95834 0.97756 0.0
H615 H 0.9688 0.97131 0.93453 0.0
H616 H 0.99265 0.98644 0.12386 0.0
H617 H 0.92014 0.01935 0.01869 0.0
H618 H 0.04294 0.01411 0.06536 0.0
H619 H 0.03499 0.97885 0.04797 0.0
H620 H 0.03764 0.98973 0.11128 0.0
H621 H 0.95471 0.05119 0.93727 0.0
H622 H 0.92147 0.03741 0.94117 0.0
H623 H 0.94453 0.0171 0.91483 0.0
C624 C 0.93819 0.99385 0.52534 0.0
C625 C 0.94146 0.02095 0.54385 0.0
C626 C 0.95476 0.98401 0.49496 0.0
C627 C 0.97505 1.00169 0.48348 0.0
C628 C 0.97864 0.02889 0.50279 0.0
C629 C 0.9618 0.03816 0.53271 0.0
C630 C 0.9505 0.95487 0.47493 0.0
C631 C 1.00037 0.04822 0.49204 0.0
C632 C 0.03993 0.97461 0.45371 0.0
C633 C 0.03438 0.97979 0.40227 0.0
C634 C 0.02017 0.98033 0.48007 0.0
C635 C 0.99409 0.99152 0.45428 0.0
C636 C 0.98773 0.99564 0.40181 0.0
C637 C 0.00801 0.9895 0.3762 0.0
C638 C 0.02767 0.97534 0.53589 0.0
C639 C 0.96002 0.00754 0.37323 0.0
H640 H 0.92222 0.98064 0.53342 0.0
H641 H 0.96446 0.05911 0.54711 0.0
H642 H 0.94522 0.95514 0.43345 0.0
H643 H 0.97015 0.94296 0.48809 0.0
H644 H 0.93356 0.94391 0.48675 0.0
H645 H 0.99982 0.06904 0.50865 0.0
H646 H 0.02157 0.03946 0.50726 0.0
H647 H 0.99707 0.05052 0.45105 0.0
H648 H 0.05977 0.9658 0.47349 0.0
H649 H 0.00354 0.99296 0.33621 0.0
H650 H 0.01113 0.96295 0.54611 0.0
H651 H 0.02911 0.99539 0.55589 0.0
H652 H 0.04795 0.96444 0.54944 0.0
H653 H 0.9425 0.99626 0.38246 0.0
H654 H 0.95719 0.00671 0.33211 0.0
H655 H 0.9587 0.02942 0.38437 0.0
C656 C 0.25468 0.31651 0.02148 0.0
C657 C 0.2818 0.31818 0.05344 0.0
C658 C 0.2431 0.29109 0.00158 0.0
C659 C 0.25891 0.2666 0.01414 0.0
C660 C 0.2862 0.26806 0.04681 0.0
C661 C 0.29725 0.2938 0.06624 0.0
C662 C 0.21395 0.29048 0.96693 0.0
C663 C 0.30368 0.24241 0.06142 0.0
C664 C 0.21965 0.19786 0.99689 0.0
C665 C 0.22331 0.18864 0.95101 0.0
C666 C 0.23115 0.22313 0.01794 0.0
C667 C 0.24692 0.2395 0.99274 0.0
C668 C 0.25096 0.23013 0.94672 0.0
C669 C 0.23923 0.20481 0.92658 0.0
C670 C 0.22653 0.23225 0.06729 0.0
C671 C 0.2676 0.24693 0.9186 0.0
H672 H 0.24253 0.33522 0.01155 0.0
H673 H 0.31777 0.29466 0.09228 0.0
H674 H 0.21451 0.28191 0.93005 0.0
H675 H 0.20034 0.27673 0.9824 0.0
H676 H 0.20432 0.31133 0.9611 0.0
H677 H 0.32456 0.24705 0.08693 0.0
H678 H 0.29268 0.22758 0.08022 0.0
H679 H 0.30667 0.23203 0.02749 0.0
H680 H 0.20837 0.1851 0.01708 0.0
H681 H 0.2423 0.19776 0.89125 0.0
H682 H 0.21586 0.25256 0.06287 0.0
H683 H 0.24695 0.23495 0.09535 0.0
H684 H 0.21373 0.21721 0.08209 0.0
H685 H 0.25779 0.26748 0.90912 0.0
H686 H 0.26903 0.23665 0.88348 0.0
H687 H 0.28908 0.2505 0.94254 0.0
C688 C 0.71334 0.29552 0.44186 0.0
C689 C 0.72845 0.31988 0.4576 0.0
C690 C 0.72343 0.26982 0.46233 0.0
C691 C 0.74926 0.26849 0.49944 0.0
C692 C 0.76463 0.29305 0.51531 0.0
C693 C 0.75414 0.31841 0.49393 0.0
C694 C 0.7066 0.24406 0.44391 0.0
C695 C 0.79216 0.29253 0.55495 0.0
C696 C 0.76321 0.20509 0.58339 0.0
C697 C 0.78099 0.1897 0.5619 0.0
C698 C 0.75299 0.23092 0.56384 0.0
C699 C 0.76035 0.24137 0.52124 0.0
C700 C 0.77815 0.22579 0.4992 0.0
C701 C 0.78823 0.20013 0.51978 0.0
C702 C 0.73422 0.24698 0.58861 0.0
C703 C 0.78619 0.23601 0.45335 0.0
H704 H 0.69388 0.29643 0.41278 0.0
H705 H 0.76591 0.33722 0.50615 0.0
H706 H 0.71916 0.22958 0.42765 0.0
H707 H 0.70139 0.23328 0.47565 0.0
H708 H 0.68684 0.24863 0.41513 0.0
H709 H 0.80132 0.3135 0.56372 0.0
H710 H 0.78921 0.28322 0.58982 0.0
H711 H 0.80736 0.27945 0.54235 0.0
H712 H 0.7574 0.19694 0.61573 0.0
H713 H 0.80108 0.18788 0.50185 0.0
H714 H 0.71356 0.25029 0.56166 0.0
H715 H 0.74339 0.26767 0.60011 0.0
H716 H 0.73095 0.23625 0.62207 0.0
H717 H 0.76715 0.23874 0.42206 0.0
H718 H 0.80051 0.22159 0.44114 0.0
H719 H 0.79657 0.25649 0.46099 0.0
C720 C 0.79455 0.79535 0.06527 0.0
C721 C 0.7789 0.81973 0.05511 0.0
C722 C 0.78345 0.77001 0.04387 0.0
C723 C 0.75605 0.76904 0.01146 0.0
C724 C 0.74019 0.79362 1.00113 0.0
C725 C 0.75172 0.81858 0.02331 0.0
C726 C 0.80092 0.74422 0.05634 0.0
C727 C 0.711 0.79358 0.96657 0.0
C728 C 0.73625 0.70832 0.92129 0.0
C729 C 0.72051 0.69175 0.94535 0.0
C730 C 0.74775 0.7336 0.94214 0.0
C731 C 0.74382 0.74232 0.98865 0.0
C732 C 0.72809 0.72553 0.01328 0.0
C733 C 0.71667 0.70044 0.99136 0.0
C734 C 0.76419 0.75095 0.91447 0.0
C735 C 0.7237 0.73386 0.0632 0.0
H736 H 0.81525 0.79592 0.09083 0.0
H737 H 0.7395 0.83735 0.01524 0.0
H738 H 0.79002 0.72886 0.07433 0.0
H739 H 0.80369 0.73464 0.02157 0.0
H740 H 0.82189 0.74846 0.08185 0.0
H741 H 0.70157 0.81452 0.96176 0.0
H742 H 0.71141 0.78551 0.92927 0.0
H743 H 0.69729 0.77966 0.98149 0.0
H744 H 0.73951 0.70149 0.88596 0.0
H745 H 0.70563 0.68719 0.01126 0.0
H746 H 0.78589 0.75387 0.93794 0.0
H747 H 0.75467 0.77175 0.90691 0.0
H748 H 0.76501 0.74145 0.87837 0.0
H749 H 0.74421 0.73598 0.09124 0.0
H750 H 0.71077 0.71863 0.07729 0.0
H751 H 0.7133 0.75429 0.06008 0.0
C752 C 0.20708 0.79234 0.43955 0.0
C753 C 0.2238 0.8162 0.44799 0.0
C754 C 0.21752 0.76689 0.46068 0.0
C755 C 0.24543 0.76521 0.49067 0.0
C756 C 0.26251 0.78917 0.49879 0.0
C757 C 0.25152 0.81433 0.47715 0.0
C758 C 0.19873 0.74176 0.4507 0.0
C759 C 0.29236 0.78824 0.53049 0.0
C760 C 0.26529 0.70548 0.58229 0.0
C761 C 0.27903 0.68768 0.55669 0.0
C762 C 0.25427 0.73078 0.5613 0.0
C763 C 0.25684 0.73835 0.51331 0.0
C764 C 0.27032 0.72025 0.48696 0.0
C765 C 0.28111 0.69508 0.50885 0.0
C766 C 0.24 0.74948 0.59055 0.0
C767 C 0.27325 0.72743 0.43552 0.0
H768 H 0.18597 0.7934 0.41567 0.0
H769 H 0.26457 0.8327 0.48362 0.0
H770 H 0.20806 0.72559 0.43175 0.0
H771 H 0.19676 0.73291 0.48657 0.0
H772 H 0.17747 0.74658 0.42699 0.0
H773 H 0.30286 0.80872 0.53328 0.0
H774 H 0.2929 0.78107 0.56877 0.0
H775 H 0.30451 0.77322 0.51446 0.0
H776 H 0.26345 0.69975 0.61913 0.0
H777 H 0.29062 0.68098 0.48791 0.0
H778 H 0.21816 0.75345 0.56874 0.0
H779 H 0.25091 0.76973 0.59706 0.0
H780 H 0.23963 0.74053 0.6273 0.0
H781 H 0.25228 0.73032 0.40935 0.0
H782 H 0.28449 0.71121 0.42016 0.0
H783 H 0.28477 0.74724 0.43694 0.0
C784 C 0.56312 0.39749 0.26231 0.0
C785 C 0.578 0.38528 0.3071 0.0
C786 C 0.53539 0.39 0.23955 0.0
C787 C 0.52201 0.36979 0.26229 0.0
C788 C 0.53801 0.35509 0.3044 0.0
C789 C 0.56594 0.36315 0.32667 0.0
C790 C 0.51954 0.40625 0.19461 0.0
C791 C 0.52501 0.33265 0.32869 0.0
C792 C 0.4485 0.39456 0.24804 0.0
C793 C 0.43444 0.38255 0.20232 0.0
C794 C 0.47643 0.38812 0.27121 0.0
C795 C 0.49073 0.36898 0.24815 0.0
C796 C 0.47551 0.35418 0.20528 0.0
C797 C 0.44747 0.36138 0.18238 0.0
C798 C 0.49149 0.40455 0.31682 0.0
C799 C 0.48954 0.33281 0.18065 0.0
H800 H 0.57251 0.41462 0.24725 0.0
H801 H 0.57738 0.35377 0.36155 0.0
H802 H 0.50693 0.39237 0.16538 0.0
H803 H 0.50498 0.42063 0.20614 0.0
H804 H 0.5338 0.41852 0.17799 0.0
H805 H 0.54112 0.3182 0.3501 0.0
H806 H 0.51435 0.34211 0.35517 0.0
H807 H 0.50917 0.32079 0.30044 0.0
H808 H 0.4384 0.41104 0.26329 0.0
H809 H 0.43672 0.35222 0.14676 0.0
H810 H 0.5057 0.41975 0.3061 0.0
H811 H 0.50443 0.39084 0.34577 0.0
H812 H 0.47675 0.416 0.33355 0.0
H813 H 0.50015 0.34321 0.15496 0.0
H814 H 0.47406 0.31796 0.15833 0.0
H815 H 0.50559 0.32125 0.20882 0.0
C816 C 0.45295 0.63127 0.65267 0.0
C817 C 0.43194 0.6254 0.67655 0.0
C818 C 0.48065 0.63604 0.68051 0.0
C819 C 0.48755 0.63383 0.73333 0.0
C820 C 0.46571 0.63145 0.75754 0.0
C821 C 0.43803 0.62736 0.72871 0.0
C822 C 0.503 0.63954 0.65305 0.0
C823 C 0.47197 0.6291 0.81368 0.0
C824 C 0.55033 0.58889 0.78877 0.0
C825 C 0.57028 0.60774 0.81557 0.0
C826 C 0.5237 0.59734 0.76194 0.0
C827 C 0.51658 0.62568 0.76081 0.0
C828 C 0.53692 0.64519 0.78597 0.0
C829 C 0.56362 0.63596 0.81333 0.0
C830 C 0.50308 0.57563 0.73524 0.0
C831 C 0.53034 0.6756 0.78508 0.0
H832 H 0.44826 0.62956 0.61226 0.0
H833 H 0.42185 0.62244 0.7472 0.0
H834 H 0.51979 0.65366 0.67365 0.0
H835 H 0.51261 0.61917 0.6498 0.0
H836 H 0.49417 0.64772 0.6147 0.0
H837 H 0.45306 0.63289 0.82713 0.0
H838 H 0.47963 0.60794 0.82514 0.0
H839 H 0.48859 0.64389 0.83229 0.0
H840 H 0.55546 0.56715 0.78894 0.0
H841 H 0.57894 0.65068 0.83379 0.0
H842 H 0.49695 0.57978 0.69444 0.0
H843 H 0.48382 0.57631 0.74853 0.0
H844 H 0.51174 0.55439 0.74118 0.0
H845 H 0.5184 0.68218 0.74713 0.0
H846 H 0.54962 0.68837 0.79701 0.0
H847 H 0.51715 0.67976 0.811 0.0
C848 C 0.06378 0.87442 0.27158 0.0
C849 C 0.0707 0.8752 0.32391 0.0
C850 C 0.03581 0.87106 0.24364 0.0
C851 C 0.01447 0.86821 0.26887 0.0
C852 C 0.02212 0.86469 0.32148 0.0
C853 C 0.05013 0.86873 0.3485 0.0
C854 C 0.02879 0.87473 0.18765 0.0
C855 C 1.0003 0.86055 0.34991 0.0
C856 C 0.95238 0.9149 0.21811 0.0
C857 C 0.93214 0.89691 0.18958 0.0
C858 C 0.97876 0.90554 0.24446 0.0
C859 C 0.98536 0.87715 0.2432 0.0
C860 C 0.96457 0.85844 0.21661 0.0
C861 C 0.93811 0.86857 0.18984 0.0
C862 C 0.99984 0.92643 0.27261 0.0
C863 C 0.97047 0.82797 0.215 0.0
H864 H 0.07959 0.87985 0.25252 0.0
H865 H 0.0554 0.86959 0.38904 0.0
H866 H 0.01191 0.8603 0.16862 0.0
H867 H 0.02118 0.8961 0.1781 0.0
H868 H 0.04733 0.87134 0.17292 0.0
H869 H 0.00951 0.85135 0.38732 0.0
H870 H 0.99115 0.88084 0.35542 0.0
H871 H 0.98309 0.84703 0.32878 0.0
H872 H 0.94774 0.93672 0.2193 0.0
H873 H 0.92254 0.85452 0.168 0.0
H874 H 0.01872 0.92621 0.25819 0.0
H875 H 0.00646 0.92103 0.3129 0.0
H876 H 0.99142 0.9478 0.26921 0.0
H877 H 0.98263 0.82416 0.18727 0.0
H878 H 0.95085 0.81566 0.20376 0.0
H879 H 0.98313 0.82052 0.25187 0.0
C880 C 0.06064 0.13045 0.77584 0.0
C881 C 0.06812 0.12692 0.8278 0.0
C882 C 0.03243 0.13395 0.74935 0.0
C883 C 0.01142 0.13398 0.77568 0.0
C884 C 0.01954 0.13456 0.82868 0.0
C885 C 0.04779 0.13062 0.8541 0.0
C886 C 0.02491 0.13342 0.69295 0.0
C887 C 0.99812 0.13532 0.85859 0.0
C888 C 0.9343 0.13463 0.70041 0.0
C889 C 0.92858 0.10617 0.69528 0.0
C890 C 0.96097 0.14436 0.72739 0.0
C891 C 0.9823 0.12517 0.7492 0.0
C892 C 0.97615 0.09655 0.74523 0.0
C893 C 0.94957 0.08753 0.71877 0.0
C894 C 0.96646 0.17504 0.73152 0.0
C895 C 0.9978 0.07514 0.76845 0.0
H896 H 0.07625 0.12712 0.75537 0.0
H897 H 0.05349 0.12755 0.8943 0.0
H898 H 0.01797 0.11226 0.67969 0.0
H899 H 0.00742 0.14773 0.67702 0.0
H900 H 0.04304 0.13907 0.67837 0.0
H901 H 0.00743 0.14297 0.89722 0.0
H902 H 0.98016 0.14863 0.84033 0.0
H903 H 0.99003 0.11412 0.86121 0.0
H904 H 0.91825 0.14921 0.68245 0.0
H905 H 0.94539 0.0655 0.71591 0.0
H906 H 0.97945 0.18104 0.70612 0.0
H907 H 0.97826 0.18075 0.77012 0.0
H908 H 0.94675 0.18711 0.7211 0.0
H909 H 0.0166 0.07762 0.75418 0.0
H910 H 0.98989 0.05366 0.76053 0.0
H911 H 0.00437 0.07801 0.80961 0.0
loop_
_geom_bond_atom_site_label_1
_geom_bond_atom_site_label_2
_geom_bond_distance
_geom_bond_site_symmetry_2
_ccdc_geom_bond_type
Co0 O3 1.970 . S
Co0 N17 1.989 1_554 S
Co0 O25 1.967 . S
Co0 O32 1.920 . S
Co1 O4 1.966 . S
Co1 N10 2.022 . S
Co1 N18 1.993 1_554 S
Co1 O26 1.941 . S
C2 O3 1.258 . S
C2 O4 1.263 . S
O3 Co0 1.970 . S
O3 C2 1.258 . S
O4 Co1 1.966 . S
O4 C2 1.263 . S
C5 O6 1.235 . S
C5 O32 1.289 . S
O6 C5 1.235 . S
C7 C9 1.400 . S
C7 N10 1.351 . S
C7 C12 1.501 . S
C8 C9 1.387 . S
C8 N11 1.341 . S
C9 C7 1.400 . S
C9 C8 1.387 . S
N10 Co1 2.022 . S
N10 C7 1.351 . S
N10 N11 1.365 . S
N11 C8 1.341 . S
N11 N10 1.365 . S
N11 H31 0.862 . S
C12 C7 1.501 . S
C12 H13 0.961 . S
C12 H14 0.961 . S
C12 H15 0.960 . S
H13 C12 0.961 . S
H14 C12 0.961 . S
H15 C12 0.960 . S
C16 N17 1.342 . S
C16 C20 1.401 . S
C16 C21 1.499 . S
N17 Co0 1.989 1_556 S
N17 C16 1.342 . S
N17 N18 1.388 . S
N18 Co1 1.993 1_556 S
N18 N17 1.388 . S
N18 C19 1.346 . S
C19 N18 1.346 . S
C19 C20 1.396 . S
C19 C29 1.510 . S
C20 C16 1.401 . S
C20 C19 1.396 . S
C21 C16 1.499 . S
C21 H22 0.959 . S
C21 H23 0.960 . S
C21 H24 0.961 . S
H22 C21 0.959 . S
H23 C21 0.960 . S
H24 C21 0.961 . S
O25 Co0 1.967 . S
O25 C33 1.258 . S
O26 Co1 1.941 . S
O26 C33 1.266 . S
H27 C29 0.959 . S
H28 C29 0.961 . S
C29 C19 1.510 . S
C29 H27 0.959 . S
C29 H28 0.961 . S
C29 H30 0.960 . S
H30 C29 0.960 . S
H31 N11 0.862 . S
O32 Co0 1.920 . S
O32 C5 1.289 . S
C33 O25 1.258 . S
C33 O26 1.266 . S
Co34 O37 1.970 . S
Co34 N51 1.989 . S
Co34 O59 1.967 . S
Co34 O66 1.920 . S
Co35 O38 1.966 . S
Co35 N44 2.022 . S
Co35 N52 1.993 . S
Co35 O60 1.941 . S
C36 O37 1.258 . S
C36 O38 1.263 . S
O37 Co34 1.970 . S
O37 C36 1.258 . S
O38 Co35 1.966 . S
O38 C36 1.263 . S
C39 O40 1.235 . S
C39 O66 1.289 . S
O40 C39 1.235 . S
C41 C43 1.400 . S
C41 N44 1.351 . S
C41 C46 1.501 . S
C42 C43 1.387 . S
C42 N45 1.341 . S
C43 C41 1.400 . S
C43 C42 1.387 . S
N44 Co35 2.022 . S
N44 C41 1.351 . S
N44 N45 1.365 . S
N45 C42 1.341 . S
N45 N44 1.365 . S
N45 H65 0.862 . S
C46 C41 1.501 . S
C46 H47 0.961 . S
C46 H48 0.961 . S
C46 H49 0.960 . S
H47 C46 0.961 . S
H48 C46 0.961 . S
H49 C46 0.960 . S
C50 N51 1.342 . S
C50 C54 1.401 . S
C50 C55 1.499 . S
N51 Co34 1.989 . S
N51 C50 1.342 . S
N51 N52 1.388 . S
N52 Co35 1.993 . S
N52 N51 1.388 . S
N52 C53 1.346 . S
C53 N52 1.346 . S
C53 C54 1.396 . S
C53 C63 1.510 . S
C54 C50 1.401 . S
C54 C53 1.396 . S
C55 C50 1.499 . S
C55 H56 0.959 . S
C55 H57 0.960 . S
C55 H58 0.961 . S
H56 C55 0.959 . S
H57 C55 0.960 . S
H58 C55 0.961 . S
O59 Co34 1.967 . S
O59 C67 1.258 . S
O60 Co35 1.941 . S
O60 C67 1.266 . S
H61 C63 0.959 . S
H62 C63 0.961 . S
C63 C53 1.510 . S
C63 H61 0.959 . S
C63 H62 0.961 . S
C63 H64 0.960 . S
H64 C63 0.960 . S
H65 N45 0.862 . S
O66 Co34 1.920 . S
O66 C39 1.289 . S
C67 O59 1.258 . S
C67 O60 1.266 . S
Co68 O71 1.970 . S
Co68 N85 1.989 1_556 S
Co68 O93 1.967 . S
Co68 O100 1.920 . S
Co69 O72 1.966 . S
Co69 N78 2.022 . S
Co69 N86 1.993 1_556 S
Co69 O94 1.941 . S
C70 O71 1.258 . S
C70 O72 1.263 . S
O71 Co68 1.970 . S
O71 C70 1.258 . S
O72 Co69 1.966 . S
O72 C70 1.263 . S
C73 O74 1.235 . S
C73 O100 1.289 . S
O74 C73 1.235 . S
C75 C77 1.400 . S
C75 N78 1.351 . S
C75 C80 1.501 . S
C76 C77 1.387 . S
C76 N79 1.341 . S
C77 C75 1.400 . S
C77 C76 1.387 . S
N78 Co69 2.022 . S
N78 C75 1.351 . S
N78 N79 1.365 . S
N79 C76 1.341 . S
N79 N78 1.365 . S
N79 H99 0.862 . S
C80 C75 1.501 . S
C80 H81 0.961 . S
C80 H82 0.961 . S
C80 H83 0.960 . S
H81 C80 0.961 . S
H82 C80 0.961 . S
H83 C80 0.960 . S
C84 N85 1.342 . S
C84 C88 1.401 . S
C84 C89 1.499 . S
N85 Co68 1.989 1_554 S
N85 C84 1.342 . S
N85 N86 1.388 . S
N86 Co69 1.993 1_554 S
N86 N85 1.388 . S
N86 C87 1.346 . S
C87 N86 1.346 . S
C87 C88 1.396 . S
C87 C97 1.510 . S
C88 C84 1.401 . S
C88 C87 1.396 . S
C89 C84 1.499 . S
C89 H90 0.959 . S
C89 H91 0.960 . S
C89 H92 0.961 . S
H90 C89 0.959 . S
H91 C89 0.960 . S
H92 C89 0.961 . S
O93 Co68 1.967 . S
O93 C101 1.258 . S
O94 Co69 1.941 . S
O94 C101 1.266 . S
H95 C97 0.959 . S
H96 C97 0.961 . S
C97 C87 1.510 . S
C97 H95 0.959 . S
C97 H96 0.961 . S
C97 H98 0.960 . S
H98 C97 0.960 . S
H99 N79 0.862 . S
O100 Co68 1.920 . S
O100 C73 1.289 . S
C101 O93 1.258 . S
C101 O94 1.266 . S
Co102 O105 1.970 . S
Co102 N119 1.989 . S
Co102 O127 1.967 . S
Co102 O134 1.920 . S
Co103 O106 1.966 . S
Co103 N112 2.022 . S
Co103 N120 1.993 . S
Co103 O128 1.941 . S
C104 O105 1.258 . S
C104 O106 1.263 . S
O105 Co102 1.970 . S
O105 C104 1.258 . S
O106 Co103 1.966 . S
O106 C104 1.263 . S
C107 O108 1.235 . S
C107 O134 1.289 . S
O108 C107 1.235 . S
C109 C111 1.400 . S
C109 N112 1.351 . S
C109 C114 1.501 . S
C110 C111 1.387 . S
C110 N113 1.341 . S
C111 C109 1.400 . S
C111 C110 1.387 . S
N112 Co103 2.022 . S
N112 C109 1.351 . S
N112 N113 1.365 . S
N113 C110 1.341 . S
N113 N112 1.365 . S
N113 H133 0.862 . S
C114 C109 1.501 . S
C114 H115 0.961 . S
C114 H116 0.961 . S
C114 H117 0.960 . S
H115 C114 0.961 . S
H116 C114 0.961 . S
H117 C114 0.960 . S
C118 N119 1.342 . S
C118 C122 1.401 . S
C118 C123 1.499 . S
N119 Co102 1.989 . S
N119 C118 1.342 . S
N119 N120 1.388 . S
N120 Co103 1.993 . S
N120 N119 1.388 . S
N120 C121 1.346 . S
C121 N120 1.346 . S
C121 C122 1.396 . S
C121 C131 1.510 . S
C122 C118 1.401 . S
C122 C121 1.396 . S
C123 C118 1.499 . S
C123 H124 0.959 . S
C123 H125 0.960 . S
C123 H126 0.961 . S
H124 C123 0.959 . S
H125 C123 0.960 . S
H126 C123 0.961 . S
O127 Co102 1.967 . S
O127 C135 1.258 . S
O128 Co103 1.941 . S
O128 C135 1.266 . S
H129 C131 0.959 . S
H130 C131 0.961 . S
C131 C121 1.510 . S
C131 H129 0.959 . S
C131 H130 0.961 . S
C131 H132 0.960 . S
H132 C131 0.960 . S
H133 N113 0.862 . S
O134 Co102 1.920 . S
O134 C107 1.289 . S
C135 O127 1.258 . S
C135 O128 1.266 . S
Co136 O139 1.970 . S
Co136 N153 1.989 1_554 S
Co136 O161 1.967 . S
Co136 O168 1.920 . S
Co137 O140 1.966 . S
Co137 N146 2.022 . S
Co137 N154 1.993 1_554 S
Co137 O162 1.941 . S
C138 O139 1.258 . S
C138 O140 1.263 . S
O139 Co136 1.970 . S
O139 C138 1.258 . S
O140 Co137 1.966 . S
O140 C138 1.263 . S
C141 O142 1.235 . S
C141 O168 1.289 . S
O142 C141 1.235 . S
C143 C145 1.400 . S
C143 N146 1.351 . S
C143 C148 1.501 . S
C144 C145 1.387 . S
C144 N147 1.341 . S
C145 C143 1.400 . S
C145 C144 1.387 . S
N146 Co137 2.022 . S
N146 C143 1.351 . S
N146 N147 1.365 . S
N147 C144 1.341 . S
N147 N146 1.365 . S
N147 H167 0.862 . S
C148 C143 1.501 . S
C148 H149 0.961 . S
C148 H150 0.961 . S
C148 H151 0.960 . S
H149 C148 0.961 . S
H150 C148 0.961 . S
H151 C148 0.960 . S
C152 N153 1.342 . S
C152 C156 1.401 . S
C152 C157 1.499 . S
N153 Co136 1.989 1_556 S
N153 C152 1.342 . S
N153 N154 1.388 . S
N154 Co137 1.993 1_556 S
N154 N153 1.388 . S
N154 C155 1.346 . S
C155 N154 1.346 . S
C155 C156 1.396 . S
C155 C165 1.510 . S
C156 C152 1.401 . S
C156 C155 1.396 . S
C157 C152 1.499 . S
C157 H158 0.959 . S
C157 H159 0.960 . S
C157 H160 0.961 . S
H158 C157 0.959 . S
H159 C157 0.960 . S
H160 C157 0.961 . S
O161 Co136 1.967 . S
O161 C169 1.258 . S
O162 Co137 1.941 . S
O162 C169 1.266 . S
H163 C165 0.959 . S
H164 C165 0.961 . S
C165 C155 1.510 . S
C165 H163 0.959 . S
C165 H164 0.961 . S
C165 H166 0.960 . S
H166 C165 0.960 . S
H167 N147 0.862 . S
O168 Co136 1.920 . S
O168 C141 1.289 . S
C169 O161 1.258 . S
C169 O162 1.266 . S
Co170 O173 1.970 . S
Co170 N187 1.989 . S
Co170 O195 1.967 . S
Co170 O202 1.920 . S
Co171 O174 1.966 . S
Co171 N180 2.022 . S
Co171 N188 1.993 . S
Co171 O196 1.941 . S
C172 O173 1.258 . S
C172 O174 1.263 . S
O173 Co170 1.970 . S
O173 C172 1.258 . S
O174 Co171 1.966 . S
O174 C172 1.263 . S
C175 O176 1.235 . S
C175 O202 1.289 . S
O176 C175 1.235 . S
C177 C179 1.400 . S
C177 N180 1.351 . S
C177 C182 1.501 . S
C178 C179 1.387 . S
C178 N181 1.341 . S
C179 C177 1.400 . S
C179 C178 1.387 . S
N180 Co171 2.022 . S
N180 C177 1.351 . S
N180 N181 1.365 . S
N181 C178 1.341 . S
N181 N180 1.365 . S
N181 H201 0.862 . S
C182 C177 1.501 . S
C182 H183 0.961 . S
C182 H184 0.961 . S
C182 H185 0.960 . S
H183 C182 0.961 . S
H184 C182 0.961 . S
H185 C182 0.960 . S
C186 N187 1.342 . S
C186 C190 1.401 . S
C186 C191 1.499 . S
N187 Co170 1.989 . S
N187 C186 1.342 . S
N187 N188 1.388 . S
N188 Co171 1.993 . S
N188 N187 1.388 . S
N188 C189 1.346 . S
C189 N188 1.346 . S
C189 C190 1.396 . S
C189 C199 1.510 . S
C190 C186 1.401 . S
C190 C189 1.396 . S
C191 C186 1.499 . S
C191 H192 0.959 . S
C191 H193 0.960 . S
C191 H194 0.961 . S
H192 C191 0.959 . S
H193 C191 0.960 . S
H194 C191 0.961 . S
O195 Co170 1.967 . S
O195 C203 1.258 . S
O196 Co171 1.941 . S
O196 C203 1.266 . S
H197 C199 0.959 . S
H198 C199 0.961 . S
C199 C189 1.510 . S
C199 H197 0.959 . S
C199 H198 0.961 . S
C199 H200 0.960 . S
H200 C199 0.960 . S
H201 N181 0.862 . S
O202 Co170 1.920 . S
O202 C175 1.289 . S
C203 O195 1.258 . S
C203 O196 1.266 . S
Co204 O207 1.970 . S
Co204 N221 1.989 1_556 S
Co204 O229 1.967 . S
Co204 O236 1.920 . S
Co205 O208 1.966 . S
Co205 N214 2.022 . S
Co205 N222 1.993 1_556 S
Co205 O230 1.941 . S
C206 O207 1.258 . S
C206 O208 1.263 . S
O207 Co204 1.970 . S
O207 C206 1.258 . S
O208 Co205 1.966 . S
O208 C206 1.263 . S
C209 O210 1.235 . S
C209 O236 1.289 . S
O210 C209 1.235 . S
C211 C213 1.400 . S
C211 N214 1.351 . S
C211 C216 1.501 . S
C212 C213 1.387 . S
C212 N215 1.341 . S
C213 C211 1.400 . S
C213 C212 1.387 . S
N214 Co205 2.022 . S
N214 C211 1.351 . S
N214 N215 1.365 . S
N215 C212 1.341 . S
N215 N214 1.365 . S
N215 H235 0.862 . S
C216 C211 1.501 . S
C216 H217 0.961 . S
C216 H218 0.961 . S
C216 H219 0.960 . S
H217 C216 0.961 . S
H218 C216 0.961 . S
H219 C216 0.960 . S
C220 N221 1.342 . S
C220 C224 1.401 . S
C220 C225 1.499 . S
N221 Co204 1.989 1_554 S
N221 C220 1.342 . S
N221 N222 1.388 . S
N222 Co205 1.993 1_554 S
N222 N221 1.388 . S
N222 C223 1.346 . S
C223 N222 1.346 . S
C223 C224 1.396 . S
C223 C233 1.510 . S
C224 C220 1.401 . S
C224 C223 1.396 . S
C225 C220 1.499 . S
C225 H226 0.959 . S
C225 H227 0.960 . S
C225 H228 0.961 . S
H226 C225 0.959 . S
H227 C225 0.960 . S
H228 C225 0.961 . S
O229 Co204 1.967 . S
O229 C237 1.258 . S
O230 Co205 1.941 . S
O230 C237 1.266 . S
H231 C233 0.959 . S
H232 C233 0.961 . S
C233 C223 1.510 . S
C233 H231 0.959 . S
C233 H232 0.961 . S
C233 H234 0.960 . S
H234 C233 0.960 . S
H235 N215 0.862 . S
O236 Co204 1.920 . S
O236 C209 1.289 . S
C237 O229 1.258 . S
C237 O230 1.266 . S
Co238 O241 1.970 . S
Co238 N255 1.989 . S
Co238 O263 1.967 . S
Co238 O270 1.920 . S
Co239 O242 1.966 . S
Co239 N248 2.022 . S
Co239 N256 1.993 . S
Co239 O264 1.941 . S
C240 O241 1.258 . S
C240 O242 1.263 . S
O241 Co238 1.970 . S
O241 C240 1.258 . S
O242 Co239 1.966 . S
O242 C240 1.263 . S
C243 O244 1.235 . S
C243 O270 1.289 . S
O244 C243 1.235 . S
C245 C247 1.400 . S
C245 N248 1.351 . S
C245 C250 1.501 . S
C246 C247 1.387 . S
C246 N249 1.341 . S
C247 C245 1.400 . S
C247 C246 1.387 . S
N248 Co239 2.022 . S
N248 C245 1.351 . S
N248 N249 1.365 . S
N249 C246 1.341 . S
N249 N248 1.365 . S
N249 H269 0.862 . S
C250 C245 1.501 . S
C250 H251 0.961 . S
C250 H252 0.961 . S
C250 H253 0.960 . S
H251 C250 0.961 . S
H252 C250 0.961 . S
H253 C250 0.960 . S
C254 N255 1.342 . S
C254 C258 1.401 . S
C254 C259 1.499 . S
N255 Co238 1.989 . S
N255 C254 1.342 . S
N255 N256 1.388 . S
N256 Co239 1.993 . S
N256 N255 1.388 . S
N256 C257 1.346 . S
C257 N256 1.346 . S
C257 C258 1.396 . S
C257 C267 1.510 . S
C258 C254 1.401 . S
C258 C257 1.396 . S
C259 C254 1.499 . S
C259 H260 0.959 . S
C259 H261 0.960 . S
C259 H262 0.961 . S
H260 C259 0.959 . S
H261 C259 0.960 . S
H262 C259 0.961 . S
O263 Co238 1.967 . S
O263 C271 1.258 . S
O264 Co239 1.941 . S
O264 C271 1.266 . S
H265 C267 0.959 . S
H266 C267 0.961 . S
C267 C257 1.510 . S
C267 H265 0.959 . S
C267 H266 0.961 . S
C267 H268 0.960 . S
H268 C267 0.960 . S
H269 N249 0.862 . S
O270 Co238 1.920 . S
O270 C243 1.289 . S
C271 O263 1.258 . S
C271 O264 1.266 . S
C272 C273 1.391 . S
C272 C274 1.394 . S
C272 H288 0.931 . S
C273 C272 1.391 . S
C273 C277 1.376 . S
C274 C272 1.394 . S
C274 C275 1.369 . S
C274 C278 1.531 . S
C275 C274 1.369 . S
C275 C276 1.410 . S
C275 C283 1.503 . S
C276 C275 1.410 . S
C276 C277 1.392 . S
C276 C279 1.511 . S
C277 C273 1.376 . S
C277 C276 1.392 . S
C277 H289 0.929 . S
C278 C274 1.531 . S
C278 H290 0.960 . S
C278 H291 0.962 . S
C278 H292 0.960 . S
C279 C276 1.511 . S
C279 H293 0.961 . S
C279 H294 0.961 . S
C279 H295 0.961 . S
C280 C281 1.370 . S
C280 C282 1.363 . S
C280 H296 0.931 . S
C281 C280 1.370 . S
C281 C285 1.408 . S
C282 C280 1.363 . S
C282 C283 1.370 . S
C282 C286 1.524 . S
C283 C275 1.503 . S
C283 C282 1.370 . S
C283 C284 1.403 . S
C284 C283 1.403 . S
C284 C285 1.404 . S
C284 C287 1.539 . S
C285 C281 1.408 . S
C285 C284 1.404 . S
C285 H297 0.930 . S
C286 C282 1.524 . S
C286 H298 0.956 . S
C286 H299 0.961 . S
C286 H300 0.961 . S
C287 C284 1.539 . S
C287 H301 0.958 . S
C287 H302 0.961 . S
C287 H303 0.960 . S
H288 C272 0.931 . S
H289 C277 0.929 . S
H290 C278 0.960 . S
H291 C278 0.962 . S
H292 C278 0.960 . S
H293 C279 0.961 . S
H294 C279 0.961 . S
H295 C279 0.961 . S
H296 C280 0.931 . S
H297 C285 0.930 . S
H298 C286 0.956 . S
H299 C286 0.961 . S
H300 C286 0.961 . S
H301 C287 0.958 . S
H302 C287 0.961 . S
H303 C287 0.960 . S
C304 C305 1.391 . S
C304 C306 1.394 . S
C304 H320 0.931 . S
C305 C304 1.391 . S
C305 C309 1.376 . S
C306 C304 1.394 . S
C306 C307 1.369 . S
C306 C310 1.531 . S
C307 C306 1.369 . S
C307 C308 1.410 . S
C307 C315 1.503 . S
C308 C307 1.410 . S
C308 C309 1.392 . S
C308 C311 1.511 . S
C309 C305 1.376 . S
C309 C308 1.392 . S
C309 H321 0.929 . S
C310 C306 1.531 . S
C310 H322 0.960 . S
C310 H323 0.962 . S
C310 H324 0.960 . S
C311 C308 1.511 . S
C311 H325 0.961 . S
C311 H326 0.961 . S
C311 H327 0.961 . S
C312 C313 1.370 . S
C312 C314 1.363 . S
C312 H328 0.931 . S
C313 C312 1.370 . S
C313 C317 1.408 . S
C314 C312 1.363 . S
C314 C315 1.370 . S
C314 C318 1.524 . S
C315 C307 1.503 . S
C315 C314 1.370 . S
C315 C316 1.403 . S
C316 C315 1.403 . S
C316 C317 1.404 . S
C316 C319 1.539 . S
C317 C313 1.408 . S
C317 C316 1.404 . S
C317 H329 0.930 . S
C318 C314 1.524 . S
C318 H330 0.956 . S
C318 H331 0.961 . S
C318 H332 0.961 . S
C319 C316 1.539 . S
C319 H333 0.958 . S
C319 H334 0.961 . S
C319 H335 0.960 . S
H320 C304 0.931 . S
H321 C309 0.929 . S
H322 C310 0.960 . S
H323 C310 0.962 . S
H324 C310 0.960 . S
H325 C311 0.961 . S
H326 C311 0.961 . S
H327 C311 0.961 . S
H328 C312 0.931 . S
H329 C317 0.930 . S
H330 C318 0.956 . S
H331 C318 0.961 . S
H332 C318 0.961 . S
H333 C319 0.958 . S
H334 C319 0.961 . S
H335 C319 0.960 . S
C336 C337 1.391 . S
C336 C338 1.394 . S
C336 H352 0.931 . S
C337 C336 1.391 . S
C337 C341 1.376 . S
C338 C336 1.394 . S
C338 C339 1.369 . S
C338 C342 1.531 . S
C339 C338 1.369 . S
C339 C340 1.410 . S
C339 C347 1.503 . S
C340 C339 1.410 . S
C340 C341 1.392 . S
C340 C343 1.511 . S
C341 C337 1.376 . S
C341 C340 1.392 . S
C341 H353 0.929 . S
C342 C338 1.531 . S
C342 H354 0.960 . S
C342 H355 0.962 . S
C342 H356 0.960 . S
C343 C340 1.511 . S
C343 H357 0.961 . S
C343 H358 0.961 . S
C343 H359 0.961 . S
C344 C345 1.370 . S
C344 C346 1.363 . S
C344 H360 0.931 . S
C345 C344 1.370 . S
C345 C349 1.408 . S
C346 C344 1.363 . S
C346 C347 1.370 . S
C346 C350 1.524 . S
C347 C339 1.503 . S
C347 C346 1.370 . S
C347 C348 1.403 . S
C348 C347 1.403 . S
C348 C349 1.404 . S
C348 C351 1.539 . S
C349 C345 1.408 . S
C349 C348 1.404 . S
C349 H361 0.930 . S
C350 C346 1.524 . S
C350 H362 0.956 . S
C350 H363 0.961 . S
C350 H364 0.961 . S
C351 C348 1.539 . S
C351 H365 0.958 . S
C351 H366 0.961 . S
C351 H367 0.960 . S
H352 C336 0.931 . S
H353 C341 0.929 . S
H354 C342 0.960 . S
H355 C342 0.962 . S
H356 C342 0.960 . S
H357 C343 0.961 . S
H358 C343 0.961 . S
H359 C343 0.961 . S
H360 C344 0.931 . S
H361 C349 0.930 . S
H362 C350 0.956 . S
H363 C350 0.961 . S
H364 C350 0.961 . S
H365 C351 0.958 . S
H366 C351 0.961 . S
H367 C351 0.960 . S
C368 C369 1.391 . S
C368 C370 1.394 . S
C368 H384 0.931 . S
C369 C368 1.391 . S
C369 C373 1.376 . S
C370 C368 1.394 . S
C370 C371 1.369 . S
C370 C374 1.531 . S
C371 C370 1.369 . S
C371 C372 1.410 . S
C371 C379 1.503 . S
C372 C371 1.410 . S
C372 C373 1.392 . S
C372 C375 1.511 . S
C373 C369 1.376 . S
C373 C372 1.392 . S
C373 H385 0.929 . S
C374 C370 1.531 . S
C374 H386 0.960 . S
C374 H387 0.962 . S
C374 H388 0.960 . S
C375 C372 1.511 . S
C375 H389 0.961 . S
C375 H390 0.961 . S
C375 H391 0.961 . S
C376 C377 1.370 . S
C376 C378 1.363 . S
C376 H392 0.931 . S
C377 C376 1.370 . S
C377 C381 1.408 . S
C378 C376 1.363 . S
C378 C379 1.370 . S
C378 C382 1.524 . S
C379 C371 1.503 . S
C379 C378 1.370 . S
C379 C380 1.403 . S
C380 C379 1.403 . S
C380 C381 1.404 . S
C380 C383 1.539 . S
C381 C377 1.408 . S
C381 C380 1.404 . S
C381 H393 0.930 . S
C382 C378 1.524 . S
C382 H394 0.956 . S
C382 H395 0.961 . S
C382 H396 0.961 . S
C383 C380 1.539 . S
C383 H397 0.958 . S
C383 H398 0.961 . S
C383 H399 0.960 . S
H384 C368 0.931 . S
H385 C373 0.929 . S
H386 C374 0.960 . S
H387 C374 0.962 . S
H388 C374 0.960 . S
H389 C375 0.961 . S
H390 C375 0.961 . S
H391 C375 0.961 . S
H392 C376 0.931 . S
H393 C381 0.930 . S
H394 C382 0.956 . S
H395 C382 0.961 . S
H396 C382 0.961 . S
H397 C383 0.958 . S
H398 C383 0.961 . S
H399 C383 0.960 . S
C400 C401 1.391 . S
C400 C402 1.394 . S
C400 H416 0.931 . S
C401 C400 1.391 . S
C401 C405 1.376 . S
C402 C400 1.394 . S
C402 C403 1.369 . S
C402 C406 1.531 1_565 S
C403 C402 1.369 . S
C403 C404 1.410 . S
C403 C411 1.503 . S
C404 C403 1.410 . S
C404 C405 1.392 . S
C404 C407 1.511 . S
C405 C401 1.376 . S
C405 C404 1.392 . S
C405 H417 0.929 . S
C406 C402 1.531 1_545 S
C406 H418 0.960 . S
C406 H419 0.962 . S
C406 H420 0.960 . S
C407 C404 1.511 . S
C407 H421 0.961 . S
C407 H422 0.961 . S
C407 H423 0.961 . S
C408 C409 1.370 . S
C408 C410 1.363 1_545 S
C408 H424 0.931 1_545 S
C409 C408 1.370 . S
C409 C413 1.408 . S
C410 C408 1.363 1_565 S
C410 C411 1.370 . S
C410 C414 1.524 . S
C411 C403 1.503 . S
C411 C410 1.370 . S
C411 C412 1.403 1_565 S
C412 C411 1.403 1_545 S
C412 C413 1.404 . S
C412 C415 1.539 . S
C413 C409 1.408 . S
C413 C412 1.404 . S
C413 H425 0.930 . S
C414 C410 1.524 . S
C414 H426 0.956 . S
C414 H427 0.961 . S
C414 H428 0.961 . S
C415 C412 1.539 . S
C415 H429 0.958 . S
C415 H430 0.961 . S
C415 H431 0.960 . S
H416 C400 0.931 . S
H417 C405 0.929 . S
H418 C406 0.960 . S
H419 C406 0.962 . S
H420 C406 0.960 . S
H421 C407 0.961 . S
H422 C407 0.961 . S
H423 C407 0.961 . S
H424 C408 0.931 1_565 S
H425 C413 0.930 . S
H426 C414 0.956 . S
H427 C414 0.961 . S
H428 C414 0.961 . S
H429 C415 0.958 . S
H430 C415 0.961 . S
H431 C415 0.960 . S
C432 C433 1.391 . S
C432 C434 1.394 1_545 S
C432 H448 0.931 . S
C433 C432 1.391 . S
C433 C437 1.376 . S
C434 C432 1.394 1_565 S
C434 C435 1.369 . S
C434 C438 1.531 . S
C435 C434 1.369 . S
C435 C436 1.410 1_565 S
C435 C443 1.503 . S
C436 C435 1.410 1_545 S
C436 C437 1.392 . S
C436 C439 1.511 . S
C437 C433 1.376 . S
C437 C436 1.392 . S
C437 H449 0.929 . S
C438 C434 1.531 . S
C438 H450 0.960 . S
C438 H451 0.962 . S
C438 H452 0.960 . S
C439 C436 1.511 . S
C439 H453 0.961 . S
C439 H454 0.961 . S
C439 H455 0.961 1_545 S
C440 C441 1.370 . S
C440 C442 1.363 . S
C440 H456 0.931 . S
C441 C440 1.370 . S
C441 C445 1.408 . S
C442 C440 1.363 . S
C442 C443 1.370 . S
C442 C446 1.524 1_565 S
C443 C435 1.503 . S
C443 C442 1.370 . S
C443 C444 1.403 . S
C444 C443 1.403 . S
C444 C445 1.404 . S
C444 C447 1.539 . S
C445 C441 1.408 . S
C445 C444 1.404 . S
C445 H457 0.930 . S
C446 C442 1.524 1_545 S
C446 H458 0.956 . S
C446 H459 0.961 . S
C446 H460 0.961 . S
C447 C444 1.539 . S
C447 H461 0.958 . S
C447 H462 0.961 . S
C447 H463 0.960 . S
H448 C432 0.931 . S
H449 C437 0.929 . S
H450 C438 0.960 . S
H451 C438 0.962 . S
H452 C438 0.960 . S
H453 C439 0.961 . S
H454 C439 0.961 . S
H455 C439 0.961 1_565 S
H456 C440 0.931 . S
H457 C445 0.930 . S
H458 C446 0.956 . S
H459 C446 0.961 . S
H460 C446 0.961 . S
H461 C447 0.958 . S
H462 C447 0.961 . S
H463 C447 0.960 . S
C464 C465 1.391 . S
C464 C466 1.394 . S
C464 H480 0.931 . S
C465 C464 1.391 . S
C465 C469 1.376 . S
C466 C464 1.394 . S
C466 C467 1.369 . S
C466 C470 1.531 1_545 S
C467 C466 1.369 . S
C467 C468 1.410 . S
C467 C475 1.503 . S
C468 C467 1.410 . S
C468 C469 1.392 . S
C468 C471 1.511 . S
C469 C465 1.376 . S
C469 C468 1.392 . S
C469 H481 0.929 . S
C470 C466 1.531 1_565 S
C470 H482 0.960 . S
C470 H483 0.962 . S
C470 H484 0.960 . S
C471 C468 1.511 . S
C471 H485 0.961 . S
C471 H486 0.961 . S
C471 H487 0.961 . S
C472 C473 1.370 . S
C472 C474 1.363 1_565 S
C472 H488 0.931 . S
C473 C472 1.370 . S
C473 C477 1.408 . S
C474 C472 1.363 1_545 S
C474 C475 1.370 . S
C474 C478 1.524 . S
C475 C467 1.503 . S
C475 C474 1.370 . S
C475 C476 1.403 1_545 S
C476 C475 1.403 1_565 S
C476 C477 1.404 . S
C476 C479 1.539 . S
C477 C473 1.408 . S
C477 C476 1.404 . S
C477 H489 0.930 . S
C478 C474 1.524 . S
C478 H490 0.956 . S
C478 H491 0.961 . S
C478 H492 0.961 . S
C479 C476 1.539 . S
C479 H493 0.958 . S
C479 H494 0.961 . S
C479 H495 0.960 . S
H480 C464 0.931 . S
H481 C469 0.929 . S
H482 C470 0.960 . S
H483 C470 0.962 . S
H484 C470 0.960 . S
H485 C471 0.961 . S
H486 C471 0.961 . S
H487 C471 0.961 . S
H488 C472 0.931 . S
H489 C477 0.930 . S
H490 C478 0.956 . S
H491 C478 0.961 . S
H492 C478 0.961 . S
H493 C479 0.958 . S
H494 C479 0.961 . S
H495 C479 0.960 . S
C496 C497 1.391 . S
C496 C498 1.394 . S
C496 H512 0.931 . S
C497 C496 1.391 . S
C497 C501 1.376 . S
C498 C496 1.394 . S
C498 C499 1.369 . S
C498 C502 1.531 . S
C499 C498 1.369 . S
C499 C500 1.410 . S
C499 C507 1.503 . S
C500 C499 1.410 . S
C500 C501 1.392 . S
C500 C503 1.511 . S
C501 C497 1.376 . S
C501 C500 1.392 . S
C501 H513 0.929 . S
C502 C498 1.531 . S
C502 H514 0.960 . S
C502 H515 0.962 1_545 S
C502 H516 0.960 . S
C503 C500 1.511 . S
C503 H517 0.961 . S
C503 H518 0.961 . S
C503 H519 0.961 . S
C504 C505 1.370 . S
C504 C506 1.363 . S
C504 H520 0.931 . S
C505 C504 1.370 . S
C505 C509 1.408 1_565 S
C506 C504 1.363 . S
C506 C507 1.370 1_565 S
C506 C510 1.524 . S
C507 C499 1.503 . S
C507 C506 1.370 1_545 S
C507 C508 1.403 . S
C508 C507 1.403 . S
C508 C509 1.404 . S
C508 C511 1.539 . S
C509 C505 1.408 1_545 S
C509 C508 1.404 . S
C509 H521 0.930 . S
C510 C506 1.524 . S
C510 H522 0.956 . S
C510 H523 0.961 . S
C510 H524 0.961 . S
C511 C508 1.539 . S
C511 H525 0.958 . S
C511 H526 0.961 . S
C511 H527 0.960 . S
H512 C496 0.931 . S
H513 C501 0.929 . S
H514 C502 0.960 . S
H515 C502 0.962 1_565 S
H516 C502 0.960 . S
H517 C503 0.961 . S
H518 C503 0.961 . S
H519 C503 0.961 . S
H520 C504 0.931 . S
H521 C509 0.930 . S
H522 C510 0.956 . S
H523 C510 0.961 . S
H524 C510 0.961 . S
H525 C511 0.958 . S
H526 C511 0.961 . S
H527 C511 0.960 . S
C528 C529 1.391 . S
C528 C530 1.394 . S
C528 H544 0.931 . S
C529 C528 1.391 . S
C529 C533 1.376 1_554 S
C530 C528 1.394 . S
C530 C531 1.369 . S
C530 C534 1.531 . S
C531 C530 1.369 . S
C531 C532 1.410 1_554 S
C531 C539 1.503 1_554 S
C532 C531 1.410 1_556 S
C532 C533 1.392 . S
C532 C535 1.511 . S
C533 C529 1.376 1_556 S
C533 C532 1.392 . S
C533 H545 0.929 . S
C534 C530 1.531 . S
C534 H546 0.960 . S
C534 H547 0.962 . S
C534 H548 0.960 . S
C535 C532 1.511 . S
C535 H549 0.961 . S
C535 H550 0.961 . S
C535 H551 0.961 . S
C536 C537 1.370 . S
C536 C538 1.363 1_556 S
C536 H552 0.931 . S
C537 C536 1.370 . S
C537 C541 1.408 . S
C538 C536 1.363 1_554 S
C538 C539 1.370 1_554 S
C538 C542 1.524 . S
C539 C531 1.503 1_556 S
C539 C538 1.370 1_556 S
C539 C540 1.403 . S
C540 C539 1.403 . S
C540 C541 1.404 . S
C540 C543 1.539 . S
C541 C537 1.408 . S
C541 C540 1.404 . S
C541 H553 0.930 . S
C542 C538 1.524 . S
C542 H554 0.956 . S
C542 H555 0.961 . S
C542 H556 0.961 . S
C543 C540 1.539 . S
C543 H557 0.958 . S
C543 H558 0.961 . S
C543 H559 0.960 . S
H544 C528 0.931 . S
H545 C533 0.929 . S
H546 C534 0.960 . S
H547 C534 0.962 . S
H548 C534 0.960 . S
H549 C535 0.961 . S
H550 C535 0.961 . S
H551 C535 0.961 . S
H552 C536 0.931 . S
H553 C541 0.930 . S
H554 C542 0.956 . S
H555 C542 0.961 . S
H556 C542 0.961 . S
H557 C543 0.958 . S
H558 C543 0.961 . S
H559 C543 0.960 . S
C560 C561 1.391 . S
C560 C562 1.394 . S
C560 H576 0.931 . S
C561 C560 1.391 . S
C561 C565 1.376 . S
C562 C560 1.394 . S
C562 C563 1.369 . S
C562 C566 1.531 . S
C563 C562 1.369 . S
C563 C564 1.410 . S
C563 C571 1.503 . S
C564 C563 1.410 . S
C564 C565 1.392 . S
C564 C567 1.511 . S
C565 C561 1.376 . S
C565 C564 1.392 . S
C565 H577 0.929 . S
C566 C562 1.531 . S
C566 H578 0.960 . S
C566 H579 0.962 . S
C566 H580 0.960 . S
C567 C564 1.511 . S
C567 H581 0.961 . S
C567 H582 0.961 . S
C567 H583 0.961 . S
C568 C569 1.370 . S
C568 C570 1.363 . S
C568 H584 0.931 . S
C569 C568 1.370 . S
C569 C573 1.408 . S
C570 C568 1.363 . S
C570 C571 1.370 . S
C570 C574 1.524 . S
C571 C563 1.503 . S
C571 C570 1.370 . S
C571 C572 1.403 . S
C572 C571 1.403 . S
C572 C573 1.404 . S
C572 C575 1.539 . S
C573 C569 1.408 . S
C573 C572 1.404 . S
C573 H585 0.930 . S
C574 C570 1.524 . S
C574 H586 0.956 . S
C574 H587 0.961 . S
C574 H588 0.961 . S
C575 C572 1.539 . S
C575 H589 0.958 . S
C575 H590 0.961 . S
C575 H591 0.960 . S
H576 C560 0.931 . S
H577 C565 0.929 . S
H578 C566 0.960 . S
H579 C566 0.962 . S
H580 C566 0.960 . S
H581 C567 0.961 . S
H582 C567 0.961 . S
H583 C567 0.961 . S
H584 C568 0.931 . S
H585 C573 0.930 . S
H586 C574 0.956 . S
H587 C574 0.961 . S
H588 C574 0.961 . S
H589 C575 0.958 . S
H590 C575 0.961 . S
H591 C575 0.960 . S
C592 C593 1.397 . S
C592 C594 1.390 1_556 S
C592 H608 0.928 1_556 S
C593 C592 1.397 . S
C593 C597 1.376 1_545 S
C594 C592 1.390 1_554 S
C594 C595 1.369 1_554 S
C594 C598 1.531 . S
C595 C594 1.369 1_556 S
C595 C596 1.410 1_545 S
C595 C603 1.503 1_456 S
C596 C595 1.410 1_565 S
C596 C597 1.392 . S
C596 C599 1.511 1_455 S
C597 C593 1.376 1_565 S
C597 C596 1.392 . S
C597 H609 0.929 . S
C598 C594 1.531 . S
C598 H610 0.960 . S
C598 H611 0.962 . S
C598 H612 0.960 . S
C599 C596 1.511 1_655 S
C599 H613 0.961 1_655 S
C599 H614 0.961 . S
C599 H615 0.961 . S
C600 C601 1.370 . S
C600 C602 1.363 . S
C600 H616 0.931 . S
C601 C600 1.370 . S
C601 C605 1.408 1_564 S
C602 C600 1.363 . S
C602 C603 1.370 1_565 S
C602 C606 1.524 1_655 S
C603 C595 1.503 1_654 S
C603 C602 1.370 1_545 S
C603 C604 1.403 1_554 S
C604 C603 1.403 1_556 S
C604 C605 1.404 . S
C604 C607 1.539 . S
C605 C601 1.408 1_546 S
C605 C604 1.404 . S
C605 H617 0.930 . S
C606 C602 1.524 1_455 S
C606 H618 0.956 . S
C606 H619 0.961 . S
C606 H620 0.961 . S
C607 C604 1.539 . S
C607 H621 0.958 . S
C607 H622 0.961 . S
C607 H623 0.960 . S
H608 C592 0.928 1_554 S
H609 C597 0.929 . S
H610 C598 0.960 . S
H611 C598 0.962 . S
H612 C598 0.960 . S
H613 C599 0.961 1_455 S
H614 C599 0.961 . S
H615 C599 0.961 . S
H616 C600 0.931 . S
H617 C605 0.930 . S
H618 C606 0.956 . S
H619 C606 0.961 . S
H620 C606 0.961 . S
H621 C607 0.958 . S
H622 C607 0.961 . S
H623 C607 0.960 . S
C624 C625 1.382 1_565 S
C624 C626 1.394 . S
C624 H640 0.939 . S
C625 C624 1.382 1_545 S
C625 C629 1.376 . S
C626 C624 1.394 . S
C626 C627 1.369 1_565 S
C626 C630 1.531 . S
C627 C626 1.369 1_545 S
C627 C628 1.410 . S
C627 C635 1.503 1_655 S
C628 C627 1.410 . S
C628 C629 1.392 . S
C628 C631 1.511 1_655 S
C629 C625 1.376 . S
C629 C628 1.392 . S
C629 H641 0.929 . S
C630 C626 1.531 . S
C630 H642 0.960 . S
C630 H643 0.962 . S
C630 H644 0.960 . S
C631 C628 1.511 1_455 S
C631 H645 0.961 . S
C631 H646 0.961 . S
C631 H647 0.961 . S
C632 C633 1.370 . S
C632 C634 1.363 . S
C632 H648 0.931 . S
C633 C632 1.370 . S
C633 C637 1.408 1_565 S
C634 C632 1.363 . S
C634 C635 1.370 1_565 S
C634 C638 1.524 . S
C635 C627 1.503 1_455 S
C635 C634 1.370 1_545 S
C635 C636 1.403 . S
C636 C635 1.403 . S
C636 C637 1.404 . S
C636 C639 1.539 . S
C637 C633 1.408 1_545 S
C637 C636 1.404 . S
C637 H649 0.930 . S
C638 C634 1.524 . S
C638 H650 0.956 1_455 S
C638 H651 0.961 . S
C638 H652 0.961 . S
C639 C636 1.539 . S
C639 H653 0.958 1_455 S
C639 H654 0.961 . S
C639 H655 0.960 1_455 S
H640 C624 0.939 . S
H641 C629 0.929 . S
H642 C630 0.960 . S
H643 C630 0.962 . S
H644 C630 0.960 . S
H645 C631 0.961 . S
H646 C631 0.961 . S
H647 C631 0.961 . S
H648 C632 0.931 . S
H649 C637 0.930 . S
H650 C638 0.956 1_655 S
H651 C638 0.961 . S
H652 C638 0.961 . S
H653 C639 0.958 1_655 S
H654 C639 0.961 . S
H655 C639 0.960 1_655 S
C656 C657 1.391 1_556 S
C656 C658 1.394 . S
C656 H672 0.931 . S
C657 C656 1.391 1_554 S
C657 C661 1.376 . S
C658 C656 1.394 . S
C658 C659 1.370 . S
C658 C662 1.531 . S
C659 C658 1.370 . S
C659 C660 1.408 1_556 S
C659 C667 1.503 . S
C660 C659 1.408 1_554 S
C660 C661 1.392 . S
C660 C663 1.511 . S
C661 C657 1.376 . S
C661 C660 1.392 . S
C661 H673 0.929 . S
C662 C658 1.531 . S
C662 H674 0.960 . S
C662 H675 0.962 . S
C662 H676 0.960 . S
C663 C660 1.511 . S
C663 H677 0.961 . S
C663 H678 0.961 . S
C663 H679 0.961 . S
C664 C665 1.370 . S
C664 C666 1.363 1_556 S
C664 H680 0.931 1_556 S
C665 C664 1.370 . S
C665 C669 1.408 . S
C666 C664 1.363 1_554 S
C666 C667 1.370 1_554 S
C666 C670 1.524 . S
C667 C659 1.503 . S
C667 C666 1.370 1_556 S
C667 C668 1.403 . S
C668 C667 1.403 . S
C668 C669 1.404 . S
C668 C671 1.539 . S
C669 C665 1.408 . S
C669 C668 1.404 . S
C669 H681 0.930 . S
C670 C666 1.524 . S
C670 H682 0.956 1_554 S
C670 H683 0.961 . S
C670 H684 0.961 . S
C671 C668 1.539 . S
C671 H685 0.958 . S
C671 H686 0.961 . S
C671 H687 0.960 . S
H672 C656 0.931 . S
H673 C661 0.929 . S
H674 C662 0.960 . S
H675 C662 0.962 . S
H676 C662 0.960 . S
H677 C663 0.961 . S
H678 C663 0.961 . S
H679 C663 0.961 . S
H680 C664 0.931 1_554 S
H681 C669 0.930 . S
H682 C670 0.956 1_556 S
H683 C670 0.961 . S
H684 C670 0.961 . S
H685 C671 0.958 . S
H686 C671 0.961 . S
H687 C671 0.960 . S
C688 C689 1.391 . S
C688 C690 1.394 . S
C688 H704 0.931 . S
C689 C688 1.391 . S
C689 C693 1.376 . S
C690 C688 1.394 . S
C690 C691 1.369 . S
C690 C694 1.531 . S
C691 C690 1.369 . S
C691 C692 1.410 . S
C691 C699 1.503 . S
C692 C691 1.410 . S
C692 C693 1.392 . S
C692 C695 1.511 . S
C693 C689 1.376 . S
C693 C692 1.392 . S
C693 H705 0.929 . S
C694 C690 1.531 . S
C694 H706 0.960 . S
C694 H707 0.962 . S
C694 H708 0.960 . S
C695 C692 1.511 . S
C695 H709 0.961 . S
C695 H710 0.961 . S
C695 H711 0.961 . S
C696 C697 1.370 . S
C696 C698 1.363 . S
C696 H712 0.931 . S
C697 C696 1.370 . S
C697 C701 1.408 . S
C698 C696 1.363 . S
C698 C699 1.370 . S
C698 C702 1.524 . S
C699 C691 1.503 . S
C699 C698 1.370 . S
C699 C700 1.403 . S
C700 C699 1.403 . S
C700 C701 1.404 . S
C700 C703 1.539 . S
C701 C697 1.408 . S
C701 C700 1.404 . S
C701 H713 0.930 . S
C702 C698 1.524 . S
C702 H714 0.956 . S
C702 H715 0.961 . S
C702 H716 0.961 . S
C703 C700 1.539 . S
C703 H717 0.958 . S
C703 H718 0.961 . S
C703 H719 0.960 . S
H704 C688 0.931 . S
H705 C693 0.929 . S
H706 C694 0.960 . S
H707 C694 0.962 . S
H708 C694 0.960 . S
H709 C695 0.961 . S
H710 C695 0.961 . S
H711 C695 0.961 . S
H712 C696 0.931 . S
H713 C701 0.930 . S
H714 C702 0.956 . S
H715 C702 0.961 . S
H716 C702 0.961 . S
H717 C703 0.958 . S
H718 C703 0.961 . S
H719 C703 0.960 . S
C720 C721 1.391 . S
C720 C722 1.394 . S
C720 H736 0.931 . S
C721 C720 1.391 . S
C721 C725 1.376 . S
C722 C720 1.394 . S
C722 C723 1.369 . S
C722 C726 1.531 . S
C723 C722 1.369 . S
C723 C724 1.412 . S
C723 C731 1.503 . S
C724 C723 1.412 . S
C724 C725 1.391 . S
C724 C727 1.510 1_554 S
C725 C721 1.376 . S
C725 C724 1.391 . S
C725 H737 0.929 1_554 S
C726 C722 1.531 . S
C726 H738 0.960 . S
C726 H739 0.962 . S
C726 H740 0.960 . S
C727 C724 1.510 1_556 S
C727 H741 0.961 . S
C727 H742 0.961 . S
C727 H743 0.961 1_556 S
C728 C729 1.370 . S
C728 C730 1.363 . S
C728 H744 0.931 . S
C729 C728 1.370 . S
C729 C733 1.408 1_556 S
C730 C728 1.363 . S
C730 C731 1.370 1_556 S
C730 C734 1.524 . S
C731 C723 1.503 . S
C731 C730 1.370 1_554 S
C731 C732 1.403 . S
C732 C731 1.403 . S
C732 C733 1.404 . S
C732 C735 1.539 . S
C733 C729 1.408 1_554 S
C733 C732 1.404 . S
C733 H745 0.930 . S
C734 C730 1.524 . S
C734 H746 0.956 . S
C734 H747 0.961 . S
C734 H748 0.961 . S
C735 C732 1.539 . S
C735 H749 0.958 . S
C735 H750 0.961 . S
C735 H751 0.960 . S
H736 C720 0.931 . S
H737 C725 0.929 1_556 S
H738 C726 0.960 . S
H739 C726 0.962 . S
H740 C726 0.960 . S
H741 C727 0.961 . S
H742 C727 0.961 . S
H743 C727 0.961 1_554 S
H744 C728 0.931 . S
H745 C733 0.930 . S
H746 C734 0.956 . S
H747 C734 0.961 . S
H748 C734 0.961 . S
H749 C735 0.958 . S
H750 C735 0.961 . S
H751 C735 0.960 . S
C752 C753 1.391 . S
C752 C754 1.394 . S
C752 H768 0.931 . S
C753 C752 1.391 . S
C753 C757 1.376 . S
C754 C752 1.394 . S
C754 C755 1.369 . S
C754 C758 1.531 . S
C755 C754 1.369 . S
C755 C756 1.410 . S
C755 C763 1.503 . S
C756 C755 1.410 . S
C756 C757 1.392 . S
C756 C759 1.511 . S
C757 C753 1.376 . S
C757 C756 1.392 . S
C757 H769 0.929 . S
C758 C754 1.531 . S
C758 H770 0.960 . S
C758 H771 0.962 . S
C758 H772 0.960 . S
C759 C756 1.511 . S
C759 H773 0.961 . S
C759 H774 0.961 . S
C759 H775 0.961 . S
C760 C761 1.370 . S
C760 C762 1.363 . S
C760 H776 0.931 . S
C761 C760 1.370 . S
C761 C765 1.408 . S
C762 C760 1.363 . S
C762 C763 1.370 . S
C762 C766 1.524 . S
C763 C755 1.503 . S
C763 C762 1.370 . S
C763 C764 1.403 . S
C764 C763 1.403 . S
C764 C765 1.404 . S
C764 C767 1.539 . S
C765 C761 1.408 . S
C765 C764 1.404 . S
C765 H777 0.930 . S
C766 C762 1.524 . S
C766 H778 0.956 . S
C766 H779 0.961 . S
C766 H780 0.961 . S
C767 C764 1.539 . S
C767 H781 0.958 . S
C767 H782 0.961 . S
C767 H783 0.960 . S
H768 C752 0.931 . S
H769 C757 0.929 . S
H770 C758 0.960 . S
H771 C758 0.962 . S
H772 C758 0.960 . S
H773 C759 0.961 . S
H774 C759 0.961 . S
H775 C759 0.961 . S
H776 C760 0.931 . S
H777 C765 0.930 . S
H778 C766 0.956 . S
H779 C766 0.961 . S
H780 C766 0.961 . S
H781 C767 0.958 . S
H782 C767 0.961 . S
H783 C767 0.960 . S
C784 C785 1.391 . S
C784 C786 1.394 . S
C784 H800 0.931 . S
C785 C784 1.391 . S
C785 C789 1.376 . S
C786 C784 1.394 . S
C786 C787 1.369 . S
C786 C790 1.531 . S
C787 C786 1.369 . S
C787 C788 1.410 . S
C787 C795 1.503 . S
C788 C787 1.410 . S
C788 C789 1.392 . S
C788 C791 1.511 . S
C789 C785 1.376 . S
C789 C788 1.392 . S
C789 H801 0.929 . S
C790 C786 1.531 . S
C790 H802 0.960 . S
C790 H803 0.962 . S
C790 H804 0.960 . S
C791 C788 1.511 . S
C791 H805 0.961 . S
C791 H806 0.961 . S
C791 H807 0.961 . S
C792 C793 1.370 . S
C792 C794 1.363 . S
C792 H808 0.931 . S
C793 C792 1.370 . S
C793 C797 1.408 . S
C794 C792 1.363 . S
C794 C795 1.370 . S
C794 C798 1.524 . S
C795 C787 1.503 . S
C795 C794 1.370 . S
C795 C796 1.403 . S
C796 C795 1.403 . S
C796 C797 1.404 . S
C796 C799 1.539 . S
C797 C793 1.408 . S
C797 C796 1.404 . S
C797 H809 0.930 . S
C798 C794 1.524 . S
C798 H810 0.956 . S
C798 H811 0.961 . S
C798 H812 0.961 . S
C799 C796 1.539 . S
C799 H813 0.958 . S
C799 H814 0.961 . S
C799 H815 0.960 . S
H800 C784 0.931 . S
H801 C789 0.929 . S
H802 C790 0.960 . S
H803 C790 0.962 . S
H804 C790 0.960 . S
H805 C791 0.961 . S
H806 C791 0.961 . S
H807 C791 0.961 . S
H808 C792 0.931 . S
H809 C797 0.930 . S
H810 C798 0.956 . S
H811 C798 0.961 . S
H812 C798 0.961 . S
H813 C799 0.958 . S
H814 C799 0.961 . S
H815 C799 0.960 . S
C816 C817 1.391 . S
C816 C818 1.394 . S
C816 H832 0.931 . S
C817 C816 1.391 . S
C817 C821 1.376 . S
C818 C816 1.394 . S
C818 C819 1.369 . S
C818 C822 1.531 . S
C819 C818 1.369 . S
C819 C820 1.410 . S
C819 C827 1.503 . S
C820 C819 1.410 . S
C820 C821 1.392 . S
C820 C823 1.511 . S
C821 C817 1.376 . S
C821 C820 1.392 . S
C821 H833 0.929 . S
C822 C818 1.531 . S
C822 H834 0.960 . S
C822 H835 0.962 . S
C822 H836 0.960 . S
C823 C820 1.511 . S
C823 H837 0.961 . S
C823 H838 0.961 . S
C823 H839 0.961 . S
C824 C825 1.370 . S
C824 C826 1.363 . S
C824 H840 0.931 . S
C825 C824 1.370 . S
C825 C829 1.408 . S
C826 C824 1.363 . S
C826 C827 1.370 . S
C826 C830 1.524 . S
C827 C819 1.503 . S
C827 C826 1.370 . S
C827 C828 1.403 . S
C828 C827 1.403 . S
C828 C829 1.404 . S
C828 C831 1.539 . S
C829 C825 1.408 . S
C829 C828 1.404 . S
C829 H841 0.930 . S
C830 C826 1.524 . S
C830 H842 0.956 . S
C830 H843 0.961 . S
C830 H844 0.961 . S
C831 C828 1.539 . S
C831 H845 0.958 . S
C831 H846 0.961 . S
C831 H847 0.960 . S
H832 C816 0.931 . S
H833 C821 0.929 . S
H834 C822 0.960 . S
H835 C822 0.962 . S
H836 C822 0.960 . S
H837 C823 0.961 . S
H838 C823 0.961 . S
H839 C823 0.961 . S
H840 C824 0.931 . S
H841 C829 0.930 . S
H842 C830 0.956 . S
H843 C830 0.961 . S
H844 C830 0.961 . S
H845 C831 0.958 . S
H846 C831 0.961 . S
H847 C831 0.960 . S
C848 C849 1.391 . S
C848 C850 1.394 . S
C848 H864 0.931 . S
C849 C848 1.391 . S
C849 C853 1.376 . S
C850 C848 1.394 . S
C850 C851 1.369 . S
C850 C854 1.531 . S
C851 C850 1.369 . S
C851 C852 1.410 . S
C851 C859 1.503 1_455 S
C852 C851 1.410 . S
C852 C853 1.392 . S
C852 C855 1.511 1_455 S
C853 C849 1.376 . S
C853 C852 1.392 . S
C853 H865 0.929 . S
C854 C850 1.531 . S
C854 H866 0.960 . S
C854 H867 0.962 . S
C854 H868 0.960 . S
C855 C852 1.511 1_655 S
C855 H869 0.961 . S
C855 H870 0.961 . S
C855 H871 0.961 . S
C856 C857 1.370 . S
C856 C858 1.363 . S
C856 H872 0.931 . S
C857 C856 1.370 . S
C857 C861 1.408 . S
C858 C856 1.363 . S
C858 C859 1.370 . S
C858 C862 1.524 . S
C859 C851 1.503 1_655 S
C859 C858 1.370 . S
C859 C860 1.403 . S
C860 C859 1.403 . S
C860 C861 1.404 . S
C860 C863 1.539 . S
C861 C857 1.408 . S
C861 C860 1.404 . S
C861 H873 0.930 . S
C862 C858 1.524 . S
C862 H874 0.956 . S
C862 H875 0.961 . S
C862 H876 0.961 . S
C863 C860 1.539 . S
C863 H877 0.958 1_655 S
C863 H878 0.961 . S
C863 H879 0.960 1_655 S
H864 C848 0.931 . S
H865 C853 0.929 . S
H866 C854 0.960 . S
H867 C854 0.962 . S
H868 C854 0.960 . S
H869 C855 0.961 . S
H870 C855 0.961 . S
H871 C855 0.961 . S
H872 C856 0.931 . S
H873 C861 0.930 . S
H874 C862 0.956 . S
H875 C862 0.961 . S
H876 C862 0.961 . S
H877 C863 0.958 1_455 S
H878 C863 0.961 . S
H879 C863 0.960 1_455 S
C880 C881 1.391 . S
C880 C882 1.394 . S
C880 H896 0.931 . S
C881 C880 1.391 . S
C881 C885 1.376 . S
C882 C880 1.394 . S
C882 C883 1.369 . S
C882 C886 1.531 . S
C883 C882 1.369 . S
C883 C884 1.410 . S
C883 C891 1.503 1_455 S
C884 C883 1.410 . S
C884 C885 1.392 . S
C884 C887 1.511 1_455 S
C885 C881 1.376 . S
C885 C884 1.392 . S
C885 H897 0.929 . S
C886 C882 1.531 . S
C886 H898 0.960 . S
C886 H899 0.962 . S
C886 H900 0.960 . S
C887 C884 1.511 1_655 S
C887 H901 0.961 . S
C887 H902 0.961 . S
C887 H903 0.961 . S
C888 C889 1.370 . S
C888 C890 1.363 . S
C888 H904 0.931 . S
C889 C888 1.370 . S
C889 C893 1.408 . S
C890 C888 1.363 . S
C890 C891 1.370 . S
C890 C894 1.524 . S
C891 C883 1.503 1_655 S
C891 C890 1.370 . S
C891 C892 1.403 . S
C892 C891 1.403 . S
C892 C893 1.404 . S
C892 C895 1.539 . S
C893 C889 1.408 . S
C893 C892 1.404 . S
C893 H905 0.930 . S
C894 C890 1.524 . S
C894 H906 0.956 1_655 S
C894 H907 0.961 . S
C894 H908 0.961 . S
C895 C892 1.539 . S
C895 H909 0.958 . S
C895 H910 0.961 . S
C895 H911 0.960 . S
H896 C880 0.931 . S
H897 C885 0.929 . S
H898 C886 0.960 . S
H899 C886 0.962 . S
H900 C886 0.960 . S
H901 C887 0.961 . S
H902 C887 0.961 . S
H903 C887 0.961 . S
H904 C888 0.931 . S
H905 C893 0.930 . S
H906 C894 0.956 1_455 S
H907 C894 0.961 . S
H908 C894 0.961 . S
H909 C895 0.958 . S
H910 C895 0.961 . S
H911 C895 0.960 . S
C273 C135 1.489 . S
C281 C20 1.414 . S
C305 C54 1.392 . S
C313 C101 1.485 . S
C337 C67 1.471 . S
C345 C88 1.400 . S
C369 C33 1.476 . S
C377 C122 1.405 . S
C401 C156 1.373 . S
C409 C271 1.483 . S
C433 C237 1.487 . S
C441 C190 1.413 . S
C465 C224 1.433 . S
C473 C203 1.493 . S
C497 C258 1.439 . S
C505 C169 1.494 . S
C529 C5 0.487 . S
C537 C73 0.651 . S
C561 C39 0.699 . S
C569 C107 0.572 . S
C593 C209 0.551 . S
C601 C141 0.624 . S
C625 C243 0.486 . S
C633 C175 0.653 . S
C657 C9 1.349 . S
C665 C213 1.314 . S
C689 C43 1.296 . S
C697 C247 1.337 . S
C721 C145 1.308 . S
C729 C77 1.333 . S
C753 C179 1.298 . S
C761 C111 1.337 . S
C785 C36 1.914 . S
C793 C2 1.903 . S
C817 C104 1.913 . S
C825 C70 1.899 . S
C849 C172 1.913 . S
C857 C138 1.902 . S
C881 C206 1.861 . S
C889 C240 1.883 . S
