# Generated by pormake.
# Topology usf, (4)-cn, num edge types: 1
# Building blocks:
#     Node 0, Type 0, BuildingBlock: KOZSID_clean_sbu_0, # of connection points: 4
#     Node 1, Type 0, BuildingBlock: KOZSID_clean_sbu_0, # of connection points: 4
#     Node 2, Type 0, BuildingBlock: KOZSID_clean_sbu_0, # of connection points: 4
#     Node 3, Type 0, BuildingBlock: KOZSID_clean_sbu_0, # of connection points: 4
#     Node 4, Type 0, BuildingBlock: KOZSID_clean_sbu_0, # of connection points: 4
#     Node 5, Type 0, BuildingBlock: KOZSID_clean_sbu_0, # of connection points: 4
#     Node 6, Type 0, BuildingBlock: KOZSID_clean_sbu_0, # of connection points: 4
#     Node 7, Type 0, BuildingBlock: KOZSID_clean_sbu_0, # of connection points: 4
#     Node 8, Type 0, BuildingBlock: KOZSID_clean_sbu_0, # of connection points: 4
#     Node 9, Type 0, BuildingBlock: KOZSID_clean_sbu_0, # of connection points: 4
#     Node 10, Type 0, BuildingBlock: KOZSID_clean_sbu_0, # of connection points: 4
#     Node 11, Type 0, BuildingBlock: KOZSID_clean_sbu_0, # of connection points: 4
#     Node 12, Type 0, BuildingBlock: KOZSID_clean_sbu_0, # of connection points: 4
#     Node 13, Type 0, BuildingBlock: KOZSID_clean_sbu_0, # of connection points: 4
#     Node 14, Type 0, BuildingBlock: KOZSID_clean_sbu_0, # of connection points: 4
#     Node 15, Type 0, BuildingBlock: KOZSID_clean_sbu_0, # of connection points: 4
#     Node 16, Type 0, BuildingBlock: KOZSID_clean_sbu_0, # of connection points: 4
#     Node 17, Type 0, BuildingBlock: KOZSID_clean_sbu_0, # of connection points: 4
#     Edge 18, Type (0, 0), BuildingBlock: CIFDUS_clean_linker_0, # of connection points: 2
#     Edge 19, Type (0, 0), BuildingBlock: CIFDUS_clean_linker_0, # of connection points: 2
#     Edge 20, Type (0, 0), BuildingBlock: CIFDUS_clean_linker_0, # of connection points: 2
#     Edge 21, Type (0, 0), BuildingBlock: CIFDUS_clean_linker_0, # of connection points: 2
#     Edge 22, Type (0, 0), BuildingBlock: CIFDUS_clean_linker_0, # of connection points: 2
#     Edge 23, Type (0, 0), BuildingBlock: CIFDUS_clean_linker_0, # of connection points: 2
#     Edge 24, Type (0, 0), BuildingBlock: CIFDUS_clean_linker_0, # of connection points: 2
#     Edge 25, Type (0, 0), BuildingBlock: CIFDUS_clean_linker_0, # of connection points: 2
#     Edge 26, Type (0, 0), BuildingBlock: CIFDUS_clean_linker_0, # of connection points: 2
#     Edge 27, Type (0, 0), BuildingBlock: CIFDUS_clean_linker_0, # of connection points: 2
#     Edge 28, Type (0, 0), BuildingBlock: CIFDUS_clean_linker_0, # of connection points: 2
#     Edge 29, Type (0, 0), BuildingBlock: CIFDUS_clean_linker_0, # of connection points: 2
#     Edge 30, Type (0, 0), BuildingBlock: CIFDUS_clean_linker_0, # of connection points: 2
#     Edge 31, Type (0, 0), BuildingBlock: CIFDUS_clean_linker_0, # of connection points: 2
#     Edge 32, Type (0, 0), BuildingBlock: CIFDUS_clean_linker_0, # of connection points: 2
#     Edge 33, Type (0, 0), BuildingBlock: CIFDUS_clean_linker_0, # of connection points: 2
#     Edge 34, Type (0, 0), BuildingBlock: CIFDUS_clean_linker_0, # of connection points: 2
#     Edge 35, Type (0, 0), BuildingBlock: CIFDUS_clean_linker_0, # of connection points: 2
#     Edge 36, Type (0, 0), BuildingBlock: CIFDUS_clean_linker_0, # of connection points: 2
#     Edge 37, Type (0, 0), BuildingBlock: CIFDUS_clean_linker_0, # of connection points: 2
#     Edge 38, Type (0, 0), BuildingBlock: CIFDUS_clean_linker_0, # of connection points: 2
#     Edge 39, Type (0, 0), BuildingBlock: CIFDUS_clean_linker_0, # of connection points: 2
#     Edge 40, Type (0, 0), BuildingBlock: CIFDUS_clean_linker_0, # of connection points: 2
#     Edge 41, Type (0, 0), BuildingBlock: CIFDUS_clean_linker_0, # of connection points: 2
#     Edge 42, Type (0, 0), BuildingBlock: CIFDUS_clean_linker_0, # of connection points: 2
#     Edge 43, Type (0, 0), BuildingBlock: CIFDUS_clean_linker_0, # of connection points: 2
#     Edge 44, Type (0, 0), BuildingBlock: CIFDUS_clean_linker_0, # of connection points: 2
#     Edge 45, Type (0, 0), BuildingBlock: CIFDUS_clean_linker_0, # of connection points: 2
#     Edge 46, Type (0, 0), BuildingBlock: CIFDUS_clean_linker_0, # of connection points: 2
#     Edge 47, Type (0, 0), BuildingBlock: CIFDUS_clean_linker_0, # of connection points: 2
#     Edge 48, Type (0, 0), BuildingBlock: CIFDUS_clean_linker_0, # of connection points: 2
#     Edge 49, Type (0, 0), BuildingBlock: CIFDUS_clean_linker_0, # of connection points: 2
#     Edge 50, Type (0, 0), BuildingBlock: CIFDUS_clean_linker_0, # of connection points: 2
#     Edge 51, Type (0, 0), BuildingBlock: CIFDUS_clean_linker_0, # of connection points: 2
#     Edge 52, Type (0, 0), BuildingBlock: CIFDUS_clean_linker_0, # of connection points: 2
#     Edge 53, Type (0, 0), BuildingBlock: CIFDUS_clean_linker_0, # of connection points: 2
# Relax obj value: 0.017
# Max RMSD: 0.055
# Mean RMSD: 0.027
data_MOF--net-usf--node1-KOZSID_clean_sbu_0--edge1-CIFDUS_clean_linker_0
_symmetry_space_group_name_H-M    P1
_symmetry_Int_Tables_number       1
_symmetry_cell_setting            triclinic
loop_
_symmetry_equiv_pos_as_xyz
'x, y, z'
_cell_length_a     54.922431
_cell_length_b     55.101513
_cell_length_c     30.612326
_cell_angle_alpha  90.12826
_cell_angle_beta   89.462684
_cell_angle_gamma 115.98342
loop_
_atom_site_label
_atom_site_type_symbol
_atom_site_fract_x
_atom_site_fract_y
_atom_site_fract_z
_atom_type_partial_charge
C0 C 0.00948 0.48544 0.12697 0.0
C1 C 0.98796 0.46347 0.14573 0.0
C2 C 0.97101 0.44976 0.11264 0.0
C3 C 0.98287 0.46403 0.07551 0.0
N4 N 0.00652 0.48602 0.08271 0.0
Co5 Co 0.02904 0.51294 0.03689 0.0
N6 N 1.00266 0.49398 0.98891 0.0
C7 C 0.97832 0.4725 0.99419 0.0
C8 C 0.96445 0.46344 0.95598 0.0
C9 C 0.98109 0.47983 0.92415 0.0
C10 C 1.00444 0.4979 0.94469 0.0
N11 N 0.05198 0.53926 0.99053 0.0
C12 C 0.04988 0.53854 0.94591 0.0
C13 C 0.07205 0.55955 0.92665 0.0
C14 C 0.0887 0.57386 0.95973 0.0
C15 C 0.07603 0.56079 0.99735 0.0
N16 N 0.05503 0.53238 0.08521 0.0
C17 C 0.07818 0.55535 0.0805 0.0
C18 C 0.09147 0.56508 0.11898 0.0
C19 C 0.07567 0.54756 0.15043 0.0
C20 C 0.05341 0.52804 0.12941 0.0
N21 N 0.0486 0.49057 0.02384 0.0
C22 C 0.07638 0.46099 0.99263 0.0
C23 C 0.09049 0.48763 1.00708 0.0
C24 C 0.07637 0.50184 0.02261 0.0
C25 C 0.04808 0.44902 0.99649 0.0
C26 C 0.03475 0.46395 1.01228 0.0
N27 N 0.00956 0.53552 0.05015 0.0
C28 C 0.01132 0.57918 0.06807 0.0
C29 C 0.98451 0.56732 0.0834 0.0
C30 C 0.96999 0.53929 0.07899 0.0
C31 C 0.98269 0.524 0.06207 0.0
C32 C 0.02327 0.56313 0.05167 0.0
H33 H 0.97045 0.5028 0.06008 0.0
H34 H 0.04384 0.57358 0.04132 0.0
H35 H 0.08836 0.52218 0.03236 0.0
H36 H 0.01317 0.45373 0.01395 0.0
C37 C 0.97069 0.45928 0.03446 0.0
C38 C 0.03139 0.50584 0.15308 0.0
C39 C 0.02802 0.51771 0.92032 0.0
C40 C 0.08682 0.56727 0.03938 0.0
H41 H 0.98427 0.45831 0.18001 0.0
H42 H 0.95168 0.43216 0.11559 0.0
H43 H 0.94502 0.44622 0.95154 0.0
H44 H 0.97681 0.47819 0.88955 0.0
H45 H 0.07624 0.56375 0.89219 0.0
H46 H 0.10821 0.5912 0.95661 0.0
H47 H 0.11033 0.58296 0.12368 0.0
H48 H 0.08001 0.54912 0.185 0.0
H49 H 0.11238 0.49794 1.00499 0.0
H50 H 0.03613 0.4282 0.98703 0.0
H51 H 0.02331 0.60086 0.06903 0.0
H52 H 0.94913 0.5289 0.08994 0.0
C53 C 0.56956 0.5308 0.92801 0.0
C54 C 0.59013 0.52685 0.90739 0.0
C55 C 0.60611 0.52454 0.93965 0.0
C56 C 0.59443 0.52705 0.97818 0.0
N57 N 0.57207 0.53083 0.97245 0.0
Co58 Co 0.54939 0.53516 0.02075 0.0
N59 N 0.57751 0.54148 0.06643 0.0
C60 C 0.60035 0.5385 0.06002 0.0
C61 C 0.6175 0.54665 0.09492 0.0
C62 C 0.60443 0.55462 0.12593 0.0
C63 C 0.57944 0.55007 0.10888 0.0
N64 N 0.52631 0.53898 0.06905 0.0
C65 C 0.53105 0.54429 0.11276 0.0
C66 C 0.50694 0.53911 0.13477 0.0
C67 C 0.48694 0.53114 0.10442 0.0
C68 C 0.49944 0.53114 0.06563 0.0
N69 N 0.52153 0.52916 0.97488 0.0
C70 C 0.49552 0.52367 0.98283 0.0
C71 C 0.48098 0.52165 0.94572 0.0
C72 C 0.49886 0.52593 0.91192 0.0
C73 C 0.52338 0.53 0.93029 0.0
N74 N 0.53328 0.49576 0.0327 0.0
C75 C 0.50613 0.43964 0.05137 0.0
C76 C 0.51024 0.4494 1.00809 0.0
C77 C 0.52377 0.47733 0.99953 0.0
C78 C 0.51679 0.45884 0.08472 0.0
C79 C 0.53033 0.48641 0.07478 0.0
N80 N 0.56534 0.57437 1.00858 0.0
C81 C 0.55977 0.61437 0.9905 0.0
C82 C 0.58757 0.62896 0.98101 0.0
C83 C 0.604 0.61566 0.98724 0.0
C84 C 0.59259 0.58862 1.00098 0.0
C85 C 0.54916 0.58731 1.00434 0.0
H86 H 0.6059 0.57913 1.00415 0.0
H87 H 0.5277 0.57671 1.01061 0.0
H88 H 0.52621 0.48397 0.96597 0.0
H89 H 0.53789 0.50006 0.10173 0.0
C90 C 0.60631 0.53074 0.01931 0.0
C91 C 0.54722 0.53272 0.90411 0.0
C92 C 0.5571 0.5511 0.13554 0.0
C93 C 0.48657 0.52409 0.02537 0.0
H94 H 0.59331 0.5258 0.87263 0.0
H95 H 0.62466 0.52241 0.93541 0.0
H96 H 0.63745 0.54735 0.09722 0.0
H97 H 0.61245 0.56256 0.15769 0.0
H98 H 0.50341 0.53945 0.16945 0.0
H99 H 0.46561 0.5252 0.11021 0.0
H100 H 0.4601 0.51837 0.94352 0.0
H101 H 0.49425 0.52595 0.87766 0.0
H102 H 0.50306 0.43563 0.98079 0.0
H103 H 0.51412 0.45284 0.11873 0.0
H104 H 0.54617 0.62371 0.9871 0.0
H105 H 0.6255 0.62572 0.98011 0.0
C106 C 0.51529 0.04571 0.08157 0.0
C107 C 0.51451 0.07034 0.08731 0.0
C108 C 0.52395 0.08444 0.04939 0.0
C109 C 0.52995 0.06766 0.02292 0.0
N110 N 0.52465 0.04357 0.04139 0.0
Co111 Co 0.53154 0.01368 0.01537 0.0
N112 N 0.54486 0.03421 0.9594 0.0
C113 C 0.54616 0.05864 0.9493 0.0
C114 C 0.55538 0.06715 0.90775 0.0
C115 C 0.55988 0.04675 0.88997 0.0
C116 C 0.55318 0.02697 0.92197 0.0
N117 N 0.53955 0.98433 0.9901 0.0
C118 C 0.54906 0.98225 0.95005 0.0
C119 C 0.55234 0.95879 0.94579 0.0
C120 C 0.54436 0.94538 0.98462 0.0
C121 C 0.5368 0.96143 1.01018 0.0
N122 N 0.51702 0.99262 0.07055 0.0
C123 C 0.51414 0.96746 0.07948 0.0
C124 C 0.5028 0.95794 0.11962 0.0
C125 C 0.49816 0.97824 0.13747 0.0
C126 C 0.50704 0.99907 0.10702 0.0
N127 N 0.49399 0.99639 0.99088 0.0
C128 C 0.44048 0.97191 0.95642 0.0
C129 C 0.45313 0.95635 0.97179 0.0
C130 C 0.47949 0.96883 0.98879 0.0
C131 C 0.45541 1.00006 0.95892 0.0
C132 C 0.48179 0.01171 0.97568 0.0
N133 N 0.56918 0.03092 0.03974 0.0
C134 C 0.6049 0.0282 0.08275 0.0
C135 C 0.62368 0.05428 0.07025 0.0
C136 C 0.61411 0.0686 0.04303 0.0
C137 C 0.58713 0.05683 0.02875 0.0
C138 C 0.57823 0.01702 0.06717 0.0
H139 H 0.58141 0.0691 1.00841 0.0
H140 H 0.56533 0.99698 0.07768 0.0
H141 H 0.48778 0.9557 0.99993 0.0
H142 H 0.49193 0.03323 0.97607 0.0
C143 C 0.53946 0.07347 0.98003 0.0
C144 C 0.50727 0.0252 0.11547 0.0
C145 C 0.55385 1.00118 0.91449 0.0
C146 C 0.52432 0.95424 0.05107 0.0
H147 H 0.5078 0.07734 0.11599 0.0
H148 H 0.52606 0.10447 0.04192 0.0
H149 H 0.5584 0.0859 0.89222 0.0
H150 H 0.56702 0.04633 0.85703 0.0
H151 H 0.5592 0.95187 0.91719 0.0
H152 H 0.54331 0.92583 0.99273 0.0
H153 H 0.49904 0.93883 0.1346 0.0
H154 H 0.48978 0.97795 0.1697 0.0
H155 H 0.44298 0.93453 0.97022 0.0
H156 H 0.44678 0.01334 0.94841 0.0
H157 H 0.61059 0.01623 0.10472 0.0
H158 H 0.62745 0.08874 0.03177 0.0
C159 C 0.57959 0.01374 0.4883 0.0
C160 C 0.60699 0.03123 0.48523 0.0
C161 C 0.61013 0.05533 0.50212 0.0
C162 C 0.58459 0.0514 0.51417 0.0
N163 N 0.56522 0.02618 0.50613 0.0
Co164 Co 0.52512 0.0127 0.51627 0.0
N165 N 0.52988 0.04833 0.54121 0.0
C166 C 0.55361 0.07055 0.54673 0.0
C167 C 0.55081 0.09173 0.56577 0.0
C168 C 0.52368 0.08251 0.57314 0.0
C169 C 0.51138 0.05615 0.5579 0.0
N170 N 0.485 0.99932 0.52578 0.0
C171 C 0.47065 0.01182 0.54332 0.0
C172 C 0.44301 0.99513 0.54311 0.0
C173 C 0.43975 0.97117 0.52544 0.0
C174 C 0.46544 0.97457 0.51563 0.0
N175 N 0.52036 0.97693 0.49206 0.0
C176 C 0.4967 0.95441 0.48808 0.0
C177 C 0.49964 0.93256 0.47234 0.0
C178 C 0.52679 0.9416 0.46562 0.0
C179 C 0.53896 0.9687 0.47722 0.0
N180 N 0.5285 1.00042 0.57558 0.0
C181 C 0.53088 0.98518 0.66235 0.0
C182 C 0.51059 0.96815 0.63453 0.0
C183 C 0.50981 0.97609 0.59157 0.0
C184 C 0.55068 0.00937 0.64542 0.0
C185 C 0.54919 0.01645 0.60225 0.0
N186 N 0.52175 0.02499 0.45688 0.0
C187 C 0.50207 0.01493 0.3851 0.0
C188 C 0.52041 0.0403 0.36977 0.0
C189 C 0.53848 0.05842 0.39934 0.0
C190 C 0.53871 0.05044 0.44248 0.0
C191 C 0.503 0.00782 0.42842 0.0
H192 H 0.55321 0.06503 0.46319 0.0
H193 H 0.48885 0.98803 0.43772 0.0
H194 H 0.49358 0.96245 0.57231 0.0
H195 H 0.56462 0.03532 0.59159 0.0
C196 C 0.57818 0.07095 0.53333 0.0
C197 C 0.56822 0.98569 0.47312 0.0
C198 C 0.48213 0.03925 0.56095 0.0
C199 C 0.47196 0.95453 0.49883 0.0
H200 H 0.62311 0.02715 0.47183 0.0
H201 H 0.62882 0.07362 0.50502 0.0
H202 H 0.56664 0.11149 0.57356 0.0
H203 H 0.51407 0.09388 0.58831 0.0
H204 H 0.42686 0.99974 0.55486 0.0
H205 H 0.42091 0.95326 0.52083 0.0
H206 H 0.48389 0.91244 0.46642 0.0
H207 H 0.53648 0.92951 0.4535 0.0
H208 H 0.49503 0.94901 0.64606 0.0
H209 H 0.56668 0.02343 0.66581 0.0
H210 H 0.48782 1.00004 0.36335 0.0
H211 H 0.55278 0.07848 0.38907 0.0
C212 C 0.04802 0.50351 0.44562 0.0
C213 C 0.06987 0.5013 0.4261 0.0
C214 C 0.08652 0.50134 0.45897 0.0
C215 C 0.07417 0.50377 0.49672 0.0
N216 N 0.05033 0.50477 0.49018 0.0
Co217 Co 0.0279 0.5117 0.53678 0.0
N218 N 0.05434 0.51552 0.58453 0.0
C219 C 0.07765 0.51315 0.5793 0.0
C220 C 0.09142 0.51561 0.61744 0.0
C221 C 0.07579 0.51937 0.64922 0.0
C222 C 0.05315 0.51886 0.62873 0.0
N223 N 1.00566 0.51917 0.58308 0.0
C224 C 0.0089 0.52247 0.62731 0.0
C225 C 0.98739 0.52548 0.64658 0.0
C226 C 0.97014 0.5241 0.61386 0.0
C227 C 0.9818 0.52018 0.57645 0.0
N228 N 1.00127 0.50754 0.48927 0.0
C229 C 0.97712 0.50817 0.49484 0.0
C230 C 0.96322 0.50535 0.45674 0.0
C231 C 0.97967 0.5033 0.42468 0.0
C232 C 1.00295 0.50527 0.44498 0.0
N233 N 0.00826 0.47194 0.55062 0.0
C234 C 0.98157 0.41753 0.5811 0.0
C235 C 0.96773 0.43348 0.57674 0.0
C236 C 0.98114 0.46007 0.56102 0.0
C237 C 0.0088 0.42897 0.56787 0.0
C238 C 0.02166 0.45597 0.55313 0.0
N239 N 0.04744 0.55128 0.52283 0.0
C240 C 0.04579 0.59243 0.49824 0.0
C241 C 0.0737 0.60501 0.48927 0.0
C242 C 0.08841 0.59054 0.50016 0.0
C243 C 0.07505 0.56407 0.51696 0.0
C244 C 0.03328 0.566 0.51484 0.0
H245 H 0.08739 0.55404 0.52389 0.0
H246 H 0.01192 0.55764 0.51996 0.0
H247 H 0.9691 0.47073 0.55836 0.0
H248 H 0.04262 0.46362 0.54484 0.0
C249 C 0.08558 0.50773 0.53832 0.0
C250 C 0.02637 0.50578 0.42034 0.0
C251 C 0.03112 0.52157 0.65294 0.0
C252 C 0.96954 0.51453 0.53541 0.0
H253 H 0.07398 0.50068 0.39162 0.0
H254 H 0.10596 0.5009 0.4556 0.0
H255 H 0.11038 0.51437 0.62175 0.0
H256 H 0.08044 0.52193 0.68367 0.0
H257 H 0.98396 0.52756 0.68094 0.0
H258 H 0.95079 0.52474 0.61722 0.0
H259 H 0.94389 0.50583 0.45254 0.0
H260 H 0.97533 0.50131 0.3901 0.0
H261 H 0.94649 0.42548 0.58562 0.0
H262 H 0.02046 0.41748 0.57038 0.0
H263 H 0.03337 0.6028 0.49207 0.0
H264 H 0.11005 0.59915 0.49435 0.0
C265 C 0.54812 0.56074 0.61141 0.0
C266 C 0.54198 0.58027 0.63053 0.0
C267 C 0.54184 0.59698 0.59769 0.0
C268 C 0.54747 0.58659 0.56027 0.0
N269 N 0.55091 0.5641 0.5671 0.0
Co270 Co 0.55869 0.5427 0.52028 0.0
N271 N 0.56221 0.5693 0.47285 0.0
C272 C 0.56232 0.59356 0.47959 0.0
C273 C 0.56837 0.60934 0.44286 0.0
C274 C 0.57201 0.59411 0.41049 0.0
C275 C 0.56713 0.56934 0.42888 0.0
N276 N 0.56455 0.52035 0.47291 0.0
C277 C 0.56382 0.52215 0.42834 0.0
C278 C 0.56119 0.49828 0.40888 0.0
C279 C 0.56199 0.48181 0.4414 0.0
C280 C 0.56396 0.49582 0.47915 0.0
N281 N 0.55694 0.51696 0.56827 0.0
C282 C 0.56107 0.49473 0.56277 0.0
C283 C 0.56195 0.48234 0.60105 0.0
C284 C 0.55869 0.49784 0.63326 0.0
C285 C 0.55561 0.51877 0.61278 0.0
N286 N 0.51879 0.5224 0.50922 0.0
C287 C 0.46423 0.49323 0.4808 0.0
C288 C 0.47866 0.47996 0.49831 0.0
C289 C 0.50554 0.49475 0.51236 0.0
C290 C 0.47736 0.52155 0.48026 0.0
C291 C 0.50419 0.53554 0.49462 0.0
N292 N 0.59869 0.56305 0.53101 0.0
C293 C 0.64396 0.56531 0.53221 0.0
C294 C 0.65495 0.59135 0.55013 0.0
C295 C 0.63722 0.60296 0.55776 0.0
C296 C 0.60964 0.58883 0.54759 0.0
C297 C 0.61604 0.55155 0.52339 0.0
H298 H 0.59764 0.59936 0.55355 0.0
H299 H 0.6089 0.53154 0.5106 0.0
H300 H 0.51544 0.48331 0.5247 0.0
H301 H 0.51294 0.55707 0.49275 0.0
C302 C 0.55425 0.5998 0.51987 0.0
C303 C 0.55235 0.54031 0.63712 0.0
C304 C 0.56613 0.54611 0.40308 0.0
C305 C 0.56348 0.48579 0.52108 0.0
H306 H 0.53882 0.58274 0.66487 0.0
H307 H 0.5393 0.61529 0.60104 0.0
H308 H 0.56955 0.62939 0.43978 0.0
H309 H 0.57742 0.60065 0.37706 0.0
H310 H 0.55829 0.49274 0.37481 0.0
H311 H 0.56018 0.46153 0.43804 0.0
H312 H 0.56502 0.46436 0.60509 0.0
H313 H 0.55907 0.49428 0.66789 0.0
H314 H 0.46967 0.45814 0.49985 0.0
H315 H 0.46705 0.53306 0.46848 0.0
H316 H 0.65679 0.55535 0.52568 0.0
H317 H 0.64469 0.62322 0.57082 0.0
C318 C 0.69441 0.84561 0.44976 0.0
C319 C 0.67166 0.82604 0.47022 0.0
C320 C 0.65418 0.81182 0.43795 0.0
C321 C 0.66701 0.82353 0.39962 0.0
N322 N 0.69191 0.84403 0.40522 0.0
Co323 Co 0.71538 0.86848 0.35742 0.0
N324 N 0.6891 0.84829 0.30994 0.0
C325 C 0.6655 0.82595 0.31585 0.0
C326 C 0.65199 0.81546 0.27781 0.0
C327 C 0.66819 0.83173 0.24542 0.0
C328 C 0.69088 0.8513 0.26549 0.0
N329 N 0.73822 0.89386 0.31012 0.0
C330 C 0.73527 0.89339 0.26573 0.0
C331 C 0.75681 0.91488 0.24603 0.0
C332 C 0.77379 0.92929 0.27866 0.0
C333 C 0.7619 0.91591 0.31646 0.0
N334 N 0.74239 0.88775 0.40444 0.0
C335 C 0.76709 0.90847 0.39797 0.0
C336 C 0.78152 0.91785 0.43563 0.0
C337 C 0.7649 0.9024 0.46832 0.0
C338 C 0.74102 0.88458 0.44879 0.0
N339 N 0.73356 0.84442 0.34669 0.0
C340 C 0.75629 0.80944 0.31885 0.0
C341 C 0.77174 0.83751 0.31915 0.0
C342 C 0.76013 0.85448 0.33323 0.0
C343 C 0.7298 0.79932 0.33539 0.0
C344 C 0.71902 0.8169 0.34912 0.0
N345 N 0.69688 0.89225 0.36815 0.0
C346 C 0.69724 0.93292 0.3996 0.0
C347 C 0.66905 0.92248 0.39636 0.0
C348 C 0.65531 0.89732 0.37645 0.0
C349 C 0.66942 0.88268 0.36286 0.0
C350 C 0.71069 0.91784 0.38469 0.0
H351 H 0.65741 0.86332 0.34924 0.0
H352 H 0.73223 0.92708 0.38778 0.0
H353 H 0.77284 0.87569 0.33185 0.0
H354 H 0.69859 0.80768 0.3606 0.0
C355 C 0.65622 0.81598 0.35782 0.0
C356 C 0.71729 0.86597 0.47417 0.0
C357 C 0.71347 0.87221 0.24063 0.0
C358 C 0.77439 0.92105 0.35721 0.0
H359 H 0.66777 0.82271 0.50492 0.0
H360 H 0.6342 0.79528 0.44201 0.0
H361 H 0.63265 0.79805 0.27404 0.0
H362 H 0.66378 0.82939 0.21087 0.0
H363 H 0.76056 0.91924 0.21155 0.0
H364 H 0.79324 0.94666 0.275 0.0
H365 H 0.80128 0.93473 0.43914 0.0
H366 H 0.76951 0.90458 0.50281 0.0
H367 H 0.79242 0.8465 0.30704 0.0
H368 H 0.71714 0.77777 0.33729 0.0
H369 H 0.7089 0.95262 0.41388 0.0
H370 H 0.6335 0.88836 0.373 0.0
C371 C 0.22492 0.86029 0.4429 0.0
C372 C 0.2496 0.86583 0.46227 0.0
C373 C 0.26619 0.86408 0.43027 0.0
C374 C 0.25113 0.85833 0.393 0.0
N375 N 0.22624 0.85719 0.39882 0.0
Co376 Co 0.19897 0.85131 0.35165 0.0
N377 N 0.22275 0.84714 0.30456 0.0
C378 C 0.2481 0.84956 0.31053 0.0
C379 C 0.26185 0.85086 0.27249 0.0
C380 C 0.24441 0.84929 0.24009 0.0
C381 C 0.22033 0.84616 0.25999 0.0
N382 N 0.17146 0.84493 0.30456 0.0
C383 C 0.17189 0.83991 0.26087 0.0
C384 C 0.14678 0.83345 0.24236 0.0
C385 C 0.13081 0.83647 0.2742 0.0
C386 C 0.14659 0.84373 0.3107 0.0
N387 N 0.1753 0.85579 0.39875 0.0
C388 C 0.15069 0.85515 0.39236 0.0
C389 C 0.13694 0.85429 0.43023 0.0
C390 C 0.15351 0.8541 0.46292 0.0
C391 C 0.1771 0.85566 0.44338 0.0
N392 N 0.21571 0.89126 0.33859 0.0
C393 C 0.24019 0.94643 0.31054 0.0
C394 C 0.21191 0.93151 0.31398 0.0
C395 C 0.20024 0.90435 0.32814 0.0
C396 C 0.25575 0.93322 0.32298 0.0
C397 C 0.24334 0.9062 0.33684 0.0
N398 N 0.18244 0.81157 0.36481 0.0
C399 C 0.14352 0.77043 0.38751 0.0
C400 C 0.15973 0.75721 0.39591 0.0
C401 C 0.1875 0.77154 0.38633 0.0
C402 C 0.19827 0.7983 0.37071 0.0
C403 C 0.15509 0.79716 0.37205 0.0
H404 H 0.21959 0.80811 0.36441 0.0
H405 H 0.14149 0.80595 0.36734 0.0
H406 H 0.17863 0.89421 0.32981 0.0
H407 H 0.25678 0.89783 0.34505 0.0
C408 C 0.25986 0.85436 0.35183 0.0
C409 C 0.20039 0.85624 0.46828 0.0
C410 C 0.19585 0.84251 0.23517 0.0
C411 C 0.13863 0.84937 0.35134 0.0
H412 H 0.25498 0.8701 0.49626 0.0
H413 H 0.28674 0.86654 0.43381 0.0
H414 H 0.28272 0.85427 0.26872 0.0
H415 H 0.24963 0.85139 0.20577 0.0
H416 H 0.14048 0.82737 0.20917 0.0
H417 H 0.11012 0.83365 0.27112 0.0
H418 H 0.11631 0.85171 0.43364 0.0
H419 H 0.1477 0.85143 0.49695 0.0
H420 H 0.19868 0.94068 0.30579 0.0
H421 H 0.27764 0.94334 0.32081 0.0
H422 H 0.12196 0.7606 0.39429 0.0
H423 H 0.20104 0.76224 0.39102 0.0
C424 C 0.20809 0.36635 0.45494 0.0
C425 C 0.20731 0.38901 0.47356 0.0
C426 C 0.20866 0.40587 0.44005 0.0
C427 C 0.21056 0.39288 0.4029 0.0
N428 N 0.21008 0.36853 0.41041 0.0
Co429 Co 0.21633 0.34535 0.36492 0.0
N430 N 0.21858 0.37028 0.31527 0.0
C431 C 0.21477 0.3928 0.3193 0.0
C432 C 0.21178 0.4032 0.28028 0.0
C433 C 0.21341 0.38615 0.24925 0.0
C434 C 0.21812 0.36649 0.27089 0.0
N435 N 0.22419 0.32301 0.32012 0.0
C436 C 0.22811 0.32607 0.27599 0.0
C437 C 0.23659 0.30754 0.25922 0.0
C438 C 0.23602 0.29114 0.29298 0.0
C439 C 0.22812 0.30098 0.32874 0.0
N440 N 0.21242 0.31945 0.41378 0.0
C441 C 0.21311 0.29538 0.40912 0.0
C442 C 0.20913 0.28131 0.44747 0.0
C443 C 0.20587 0.29741 0.47868 0.0
C444 C 0.2084 0.32071 0.45769 0.0
N445 N 0.1765 0.32529 0.35328 0.0
C446 C 0.1216 0.29992 0.32537 0.0
C447 C 0.13785 0.28612 0.32485 0.0
C448 C 0.16495 0.299 0.339 0.0
C449 C 0.13312 0.32612 0.34255 0.0
C450 C 0.16015 0.33822 0.35614 0.0
N451 N 0.25621 0.36571 0.37667 0.0
C452 C 0.29754 0.36687 0.40671 0.0
C453 C 0.31068 0.39517 0.40557 0.0
C454 C 0.29629 0.40827 0.38726 0.0
C455 C 0.26948 0.39333 0.37296 0.0
C456 C 0.27076 0.35275 0.3922 0.0
H457 H 0.25967 0.40467 0.35991 0.0
H458 H 0.2621 0.33129 0.39471 0.0
H459 H 0.1764 0.28752 0.33717 0.0
H460 H 0.16748 0.35837 0.36804 0.0
C461 C 0.21199 0.4025 0.36034 0.0
C462 C 0.20748 0.34365 0.48115 0.0
C463 C 0.22176 0.34445 0.24818 0.0
C464 C 0.22139 0.28847 0.36964 0.0
H465 H 0.20628 0.3932 0.50788 0.0
H466 H 0.20856 0.42542 0.44252 0.0
H467 H 0.20755 0.4204 0.2751 0.0
H468 H 0.2103 0.38776 0.21484 0.0
H469 H 0.24173 0.30538 0.22571 0.0
H470 H 0.24 0.27358 0.29132 0.0
H471 H 0.20962 0.26208 0.45245 0.0
H472 H 0.2026 0.29273 0.51317 0.0
H473 H 0.13008 0.26576 0.31222 0.0
H474 H 0.1214 0.33756 0.34524 0.0
H475 H 0.30779 0.35544 0.41908 0.0
H476 H 0.30527 0.43008 0.3852 0.0
C477 C 0.19786 0.31821 0.95667 0.0
C478 C 0.17462 0.29966 0.97767 0.0
C479 C 0.15762 0.28394 0.94609 0.0
C480 C 0.17083 0.294 0.90739 0.0
N481 N 0.19551 0.31502 0.91217 0.0
Co482 Co 0.21758 0.33966 0.86344 0.0
N483 N 0.19032 0.31926 0.81725 0.0
C484 C 0.16751 0.29626 0.82394 0.0
C485 C 0.15391 0.28488 0.78634 0.0
C486 C 0.16923 0.3013 0.75338 0.0
C487 C 0.19131 0.32205 0.77276 0.0
N488 N 0.23905 0.36534 0.81565 0.0
C489 C 0.23482 0.36502 0.77174 0.0
C490 C 0.25471 0.38758 0.75143 0.0
C491 C 0.27252 0.40211 0.78308 0.0
C492 C 0.26243 0.38792 0.821 0.0
N493 N 0.24548 0.35925 0.90884 0.0
C494 C 0.27018 0.3797 0.90098 0.0
C495 C 0.28625 0.38774 0.93716 0.0
C496 C 0.27063 0.3719 0.97039 0.0
C497 C 0.24544 0.35553 0.95291 0.0
N498 N 0.23618 0.31623 0.85037 0.0
C499 C 0.26031 0.28321 0.8189 0.0
C500 C 0.27462 0.31138 0.81937 0.0
C501 C 0.26243 0.32727 0.83528 0.0
C502 C 0.23417 0.27185 0.83708 0.0
C503 C 0.22262 0.28857 0.85259 0.0
N504 N 0.19888 0.36283 0.8764 0.0
C505 C 0.20018 0.40454 0.9046 0.0
C506 C 0.17184 0.39322 0.90727 0.0
C507 C 0.15739 0.36682 0.89189 0.0
C508 C 0.17115 0.35223 0.87649 0.0
C509 C 0.21315 0.38919 0.88907 0.0
H510 H 0.15885 0.33211 0.86595 0.0
H511 H 0.23479 0.39888 0.88851 0.0
H512 H 0.27454 0.34853 0.83401 0.0
H513 H 0.20245 0.27865 0.86524 0.0
C514 C 0.15946 0.28601 0.86607 0.0
C515 C 0.22152 0.33874 0.98003 0.0
C516 C 0.21322 0.34327 0.74739 0.0
C517 C 0.27634 0.39291 0.86055 0.0
H518 H 0.16953 0.29808 1.01199 0.0
H519 H 0.13733 0.26803 0.95071 0.0
H520 H 0.13531 0.26653 0.78319 0.0
H521 H 0.16483 0.29796 0.71893 0.0
H522 H 0.25663 0.39259 0.71701 0.0
H523 H 0.29127 0.42021 0.7786 0.0
H524 H 0.30653 0.40391 0.93948 0.0
H525 H 0.27683 0.37311 1.00408 0.0
H526 H 0.29523 0.32128 0.807 0.0
H527 H 0.22222 0.25016 0.83791 0.0
H528 H 0.21244 0.42514 0.91482 0.0
H529 H 0.13547 0.35694 0.89311 0.0
C530 C 0.74247 0.88298 0.95047 0.0
C531 C 0.76507 0.88393 0.97173 0.0
C532 C 0.78178 0.88169 0.94032 0.0
C533 C 0.76869 0.87969 0.90162 0.0
N534 N 0.74474 0.88091 0.9062 0.0
Co535 Co 0.71908 0.8777 0.85744 0.0
N536 N 0.74221 0.87107 0.81177 0.0
C537 C 0.76613 0.87033 0.81908 0.0
C538 C 0.7783 0.8667 0.78201 0.0
C539 C 0.76127 0.86515 0.74881 0.0
C540 C 0.73939 0.86775 0.76748 0.0
N541 N 0.69342 0.87447 0.80868 0.0
C542 C 0.69493 0.87088 0.76464 0.0
C543 C 0.67241 0.87018 0.74343 0.0
C544 C 0.65647 0.87395 0.7746 0.0
C545 C 0.66993 0.87659 0.81309 0.0
N546 N 0.69586 0.88409 0.90316 0.0
C547 C 0.67219 0.88528 0.89572 0.0
C548 C 0.6594 0.88772 0.93292 0.0
C549 C 0.67566 0.88779 0.96637 0.0
C550 C 0.69778 0.88563 0.94772 0.0
N551 N 0.73899 0.91766 0.84558 0.0
C552 C 0.76685 0.97267 0.81878 0.0
C553 C 0.73905 0.96089 0.82824 0.0
C554 C 0.72561 0.93356 0.84121 0.0
C555 C 0.78055 0.95675 0.82502 0.0
C556 C 0.76652 0.92984 0.83891 0.0
N557 N 0.69933 0.83795 0.86944 0.0
C558 C 0.65829 0.79831 0.8904 0.0
C559 C 0.67294 0.78349 0.8993 0.0
C560 C 0.70081 0.79612 0.89025 0.0
C561 C 0.71339 0.82291 0.8755 0.0
C562 C 0.67173 0.82518 0.8754 0.0
H563 H 0.73469 0.83123 0.87016 0.0
H564 H 0.65947 0.83546 0.86985 0.0
H565 H 0.70429 0.9256 0.84661 0.0
H566 H 0.77846 0.91921 0.8432 0.0
C567 C 0.77731 0.87459 0.86094 0.0
C568 C 0.71941 0.88401 0.97403 0.0
C569 C 0.71704 0.86789 0.74128 0.0
C570 C 0.66136 0.88163 0.85376 0.0
H571 H 0.76894 0.88566 1.00646 0.0
H572 H 0.8009 0.88087 0.94525 0.0
H573 H 0.79763 0.86596 0.77929 0.0
H574 H 0.76491 0.86295 0.71457 0.0
H575 H 0.66795 0.86733 0.70893 0.0
H576 H 0.63741 0.87489 0.7697 0.0
H577 H 0.63998 0.88828 0.93554 0.0
H578 H 0.6712 0.88851 1.00069 0.0
H579 H 0.7275 0.97236 0.824 0.0
H580 H 0.80216 0.96501 0.81884 0.0
H581 H 0.63666 0.78962 0.89638 0.0
H582 H 0.71313 0.78548 0.89494 0.0
C583 C 0.18499 0.87418 0.94458 0.0
C584 C 0.18796 0.89812 0.96419 0.0
C585 C 0.18842 0.91513 0.93169 0.0
C586 C 0.18664 0.9013 0.8938 0.0
N587 N 0.18505 0.87634 0.90001 0.0
Co588 Co 0.18774 0.85222 0.85255 0.0
N589 N 0.19409 0.87977 0.8054 0.0
C590 C 0.19663 0.90503 0.81162 0.0
C591 C 0.20418 0.9208 0.77491 0.0
C592 C 0.20597 0.90444 0.74286 0.0
C593 C 0.19846 0.87915 0.76155 0.0
N594 N 0.18987 0.8279 0.8048 0.0
C595 C 0.19009 0.83031 0.76018 0.0
C596 C 0.18623 0.80624 0.74017 0.0
C597 C 0.1846 0.78863 0.77255 0.0
C598 C 0.18678 0.8024 0.81066 0.0
N599 N 0.18223 0.82495 0.90011 0.0
C600 C 0.18081 0.80006 0.89404 0.0
C601 C 0.17549 0.78499 0.93144 0.0
C602 C 0.17414 0.80145 0.96374 0.0
C603 C 0.17941 0.82609 0.94442 0.0
N604 N 0.14749 0.83673 0.8428 0.0
C605 C 0.09112 0.81345 0.82271 0.0
C606 C 0.10389 0.79758 0.83556 0.0
C607 C 0.13157 0.80939 0.84518 0.0
C608 C 0.10721 0.84145 0.82053 0.0
C609 C 0.13501 0.85258 0.83109 0.0
N610 N 0.22785 0.8676 0.86227 0.0
C611 C 0.26805 0.86134 0.87816 0.0
C612 C 0.28346 0.88902 0.88584 0.0
C613 C 0.27063 0.90577 0.87979 0.0
C614 C 0.24321 0.89481 0.86826 0.0
C615 C 0.24068 0.85121 0.86606 0.0
H616 H 0.23481 0.90881 0.86539 0.0
H617 H 0.23012 0.82997 0.86061 0.0
H618 H 0.13956 0.79571 0.85397 0.0
H619 H 0.14606 0.87408 0.82935 0.0
C620 C 0.19203 0.91333 0.8526 0.0
C621 C 0.18241 0.85014 0.96972 0.0
C622 C 0.19359 0.85481 0.73565 0.0
C623 C 0.18302 0.79094 0.85228 0.0
H624 H 0.1908 0.90358 0.99829 0.0
H625 H 0.19179 0.93592 0.93518 0.0
H626 H 0.20795 0.94172 0.77179 0.0
H627 H 0.21164 0.91044 0.70926 0.0
H628 H 0.18371 0.80117 0.70593 0.0
H629 H 0.18082 0.76774 0.76878 0.0
H630 H 0.17257 0.76434 0.93477 0.0
H631 H 0.16969 0.7957 0.99766 0.0
H632 H 0.09265 0.77582 0.83744 0.0
H633 H 0.09835 0.85478 0.81133 0.0
H634 H 0.27705 0.84745 0.88151 0.0
H635 H 0.28142 0.9273 0.88543 0.0
C636 C 0.35165 0.19416 0.73968 0.0
C637 C 0.36718 0.21972 0.75656 0.0
C638 C 0.39358 0.2243 0.75265 0.0
C639 C 0.39277 0.20136 0.73399 0.0
N640 N 0.36743 0.18231 0.72553 0.0
Co641 Co 0.35734 0.14541 0.7004 0.0
N642 N 0.3964 0.15241 0.69479 0.0
C643 C 0.41831 0.17512 0.70656 0.0
C644 C 0.44253 0.17446 0.69791 0.0
C645 C 0.43579 0.14999 0.6789 0.0
C646 C 0.40771 0.1371 0.67696 0.0
N647 N 0.34735 0.10849 0.67547 0.0
C648 C 0.36329 0.09722 0.65964 0.0
C649 C 0.34794 0.07128 0.64428 0.0
C650 C 0.32141 0.066 0.65026 0.0
C651 C 0.32201 0.08892 0.66884 0.0
N652 N 0.3183 0.1386 0.70566 0.0
C653 C 0.29641 0.11576 0.69421 0.0
C654 C 0.27225 0.11688 0.70126 0.0
C655 C 0.27903 0.14187 0.71847 0.0
C656 C 0.30707 0.1546 0.72123 0.0
N657 N 0.35908 0.1598 0.64064 0.0
C658 C 0.36301 0.17746 0.55359 0.0
C659 C 0.34057 0.15448 0.56815 0.0
C660 C 0.33907 0.14607 0.61131 0.0
C661 C 0.38296 0.19217 0.58386 0.0
C662 C 0.38055 0.18309 0.62702 0.0
N663 N 0.35534 0.13086 0.76033 0.0
C664 C 0.32875 0.101 0.81838 0.0
C665 C 0.34863 0.11535 0.8487 0.0
C666 C 0.37276 0.13627 0.83366 0.0
C667 C 0.37566 0.14366 0.78967 0.0
C668 C 0.33272 0.10875 0.77453 0.0
H669 H 0.39409 0.1604 0.78063 0.0
H670 H 0.31675 0.09705 0.75317 0.0
H671 H 0.32167 0.12815 0.6199 0.0
H672 H 0.39648 0.19494 0.64858 0.0
C673 C 0.41546 0.19704 0.72451 0.0
C674 C 0.32199 0.18186 0.73898 0.0
C675 C 0.3929 0.11061 0.65691 0.0
C676 C 0.29924 0.09339 0.6777 0.0
H677 H 0.36022 0.23357 0.77079 0.0
H678 H 0.41127 0.24214 0.76267 0.0
H679 H 0.46269 0.19011 0.70405 0.0
H680 H 0.44995 0.14257 0.66725 0.0
H681 H 0.35519 0.05778 0.62951 0.0
H682 H 0.30377 0.04787 0.64106 0.0
H683 H 0.25208 0.10131 0.69489 0.0
H684 H 0.26489 0.14978 0.72806 0.0
H685 H 0.32424 0.14278 0.54621 0.0
H686 H 0.40076 0.21014 0.57408 0.0
H687 H 0.30988 0.08441 0.82867 0.0
H688 H 0.38872 0.14803 0.85616 0.0
C689 C 0.88263 0.24767 0.65824 0.0
C690 C 0.86715 0.26002 0.64265 0.0
C691 C 0.84075 0.24095 0.64346 0.0
C692 C 0.84148 0.21802 0.65926 0.0
N693 N 0.86663 0.22138 0.66895 0.0
Co694 Co 0.87604 0.19232 0.6904 0.0
N695 N 0.83755 0.16783 0.70604 0.0
C696 C 0.81579 0.17073 0.69209 0.0
C697 C 0.79164 0.15045 0.70585 0.0
C698 C 0.79846 0.13339 0.72959 0.0
C699 C 0.82657 0.14429 0.72919 0.0
N700 N 0.88543 0.16319 0.71166 0.0
C701 C 0.8706 0.14022 0.73484 0.0
C702 C 0.88577 0.12616 0.74316 0.0
C703 C 0.91043 0.14016 0.72328 0.0
C704 C 0.90918 0.16213 0.70442 0.0
N705 N 0.91449 0.21682 0.67456 0.0
C706 C 0.93481 0.20944 0.67154 0.0
C707 C 0.95936 0.23048 0.66155 0.0
C708 C 0.95423 0.25252 0.65736 0.0
C709 C 0.92663 0.24364 0.66446 0.0
N710 N 0.88173 0.20787 0.74869 0.0
C711 C 0.88845 0.22635 0.83464 0.0
C712 C 0.90828 0.22087 0.81389 0.0
C713 C 0.90448 0.21157 0.77108 0.0
C714 C 0.86566 0.22345 0.81095 0.0
C715 C 0.86279 0.21437 0.76784 0.0
N716 N 0.8704 0.17663 0.63203 0.0
C717 C 0.87751 0.1822 0.55455 0.0
C718 C 0.86275 0.15436 0.54856 0.0
C719 C 0.85181 0.13781 0.58496 0.0
C720 C 0.8561 0.14932 0.62647 0.0
C721 C 0.88095 0.19293 0.59644 0.0
H722 H 0.84776 0.13602 0.65393 0.0
H723 H 0.89208 0.21445 0.59987 0.0
H724 H 0.91965 0.20663 0.75669 0.0
H725 H 0.84493 0.21195 0.75043 0.0
C726 C 0.81892 0.19399 0.66972 0.0
C727 C 0.91251 0.26079 0.65759 0.0
C728 C 0.84162 0.12989 0.74639 0.0
C729 C 0.9309 0.18375 0.68476 0.0
H730 H 0.87417 0.2805 0.63085 0.0
H731 H 0.82311 0.2436 0.63414 0.0
H732 H 0.77145 0.14839 0.69961 0.0
H733 H 0.78425 0.11461 0.74429 0.0
H734 H 0.87965 0.10755 0.76132 0.0
H735 H 0.92749 0.13527 0.72357 0.0
H736 H 0.97885 0.23006 0.6591 0.0
H737 H 0.96918 0.27277 0.64962 0.0
H738 H 0.92598 0.2224 0.83128 0.0
H739 H 0.84992 0.22757 0.82593 0.0
H740 H 0.88587 0.19569 0.52694 0.0
H741 H 0.84023 0.11618 0.58139 0.0
C742 C 0.82623 0.66837 0.63489 0.0
C743 C 0.81865 0.64208 0.62073 0.0
C744 C 0.84018 0.63652 0.6275 0.0
C745 C 0.85959 0.65943 0.64579 0.0
N746 N 0.852 0.67958 0.65064 0.0
Co747 Co 0.87338 0.71523 0.68068 0.0
N748 N 0.90376 0.7056 0.69531 0.0
C749 C 0.90505 0.6823 0.68503 0.0
C750 C 0.92879 0.68176 0.69689 0.0
C751 C 0.94382 0.70631 0.71541 0.0
C752 C 0.92828 0.72051 0.71406 0.0
N753 N 0.89456 0.75065 0.71111 0.0
C754 C 0.91979 0.7613 0.72881 0.0
C755 C 0.92668 0.78676 0.74607 0.0
C756 C 0.90548 0.79272 0.73813 0.0
C757 C 0.88678 0.7706 0.71681 0.0
N758 N 0.84316 0.72489 0.66573 0.0
C759 C 0.84245 0.74869 0.67408 0.0
C760 C 0.81922 0.74964 0.66027 0.0
C761 C 0.80394 0.72482 0.64268 0.0
C762 C 0.81862 0.70991 0.64716 0.0
N763 N 0.85452 0.69902 0.73613 0.0
C764 C 0.82659 0.6753 0.81387 0.0
C765 C 0.82967 0.70074 0.8007 0.0
C766 C 0.84348 0.71206 0.76192 0.0
C767 C 0.83706 0.66165 0.78677 0.0
C768 C 0.85115 0.67393 0.74877 0.0
N769 N 0.89214 0.73155 0.62508 0.0
C770 C 0.90959 0.76881 0.57386 0.0
C771 C 0.91749 0.75394 0.54488 0.0
C772 C 0.91336 0.72805 0.55757 0.0
C773 C 0.90096 0.71746 0.59748 0.0
C774 C 0.89694 0.75727 0.61334 0.0
H775 H 0.89828 0.69761 0.60478 0.0
H776 H 0.89096 0.7695 0.63341 0.0
H777 H 0.84518 0.73149 0.75376 0.0
H778 H 0.85925 0.66275 0.73036 0.0
C779 C 0.88421 0.66181 0.66221 0.0
C780 C 0.80783 0.68131 0.63474 0.0
C781 C 0.93828 0.74853 0.72908 0.0
C782 C 0.86281 0.76882 0.6984 0.0
H783 H 0.79932 0.6279 0.60812 0.0
H784 H 0.84114 0.61758 0.62152 0.0
H785 H 0.93478 0.66569 0.69157 0.0
H786 H 0.9642 0.71315 0.72751 0.0
H787 H 0.94537 0.7999 0.76198 0.0
H788 H 0.90421 0.81132 0.7458 0.0
H789 H 0.81366 0.76612 0.66383 0.0
H790 H 0.78394 0.71822 0.62902 0.0
H791 H 0.82233 0.71235 0.82088 0.0
H792 H 0.83492 0.64173 0.7952 0.0
H793 H 0.91254 0.78905 0.56577 0.0
H794 H 0.9185 0.71532 0.53607 0.0
C795 C 0.90355 0.66773 0.15087 0.0
C796 C 0.92131 0.67651 0.11541 0.0
C797 C 0.91728 0.69664 0.09558 0.0
C798 C 0.89739 0.69911 0.11984 0.0
N799 N 0.88886 0.68209 0.15428 0.0
Co800 Co 0.85871 0.67795 0.19481 0.0
N801 N 0.8593 0.71272 0.17513 0.0
C802 C 0.87125 0.72642 0.13856 0.0
C803 C 0.86852 0.74987 0.13374 0.0
C804 C 0.85389 0.75102 0.16955 0.0
C805 C 0.84854 0.72814 0.19429 0.0
N806 N 0.82803 0.67369 0.23418 0.0
C807 C 0.81936 0.69213 0.24757 0.0
C808 C 0.79742 0.68052 0.27601 0.0
C809 C 0.79205 0.65389 0.28012 0.0
C810 C 0.81101 0.6507 0.2543 0.0
N811 N 0.8587 0.64369 0.21599 0.0
C812 C 0.83886 0.62446 0.23975 0.0
C813 C 0.84411 0.60294 0.24951 0.0
C814 C 0.86854 0.60864 0.22993 0.0
C815 C 0.87681 0.63336 0.20898 0.0
N816 N 0.88459 0.6976 0.23997 0.0
C817 C 0.91972 0.72668 0.306 0.0
C818 C 0.89774 0.7019 0.315 0.0
C819 C 0.88031 0.68779 0.28165 0.0
C820 C 0.92435 0.73654 0.26331 0.0
C821 C 0.90667 0.7214 0.23048 0.0
N822 N 0.83292 0.65817 0.14867 0.0
C823 C 0.82177 0.62584 0.09054 0.0
C824 C 0.8119 0.64081 0.06573 0.0
C825 C 0.80765 0.66127 0.08703 0.0
C826 C 0.81741 0.66887 0.1294 0.0
C827 C 0.83319 0.63547 0.1309 0.0
H828 H 0.81448 0.68506 0.14462 0.0
H829 H 0.84404 0.62547 0.14517 0.0
H830 H 0.86303 0.66924 0.2899 0.0
H831 H 0.9105 0.7293 0.1977 0.0
C832 C 0.88805 0.71871 0.11352 0.0
C833 C 0.89928 0.64383 0.17705 0.0
C834 C 0.83119 0.72053 0.23349 0.0
C835 C 0.8168 0.6284 0.25516 0.0
H836 H 0.93523 0.6687 0.10418 0.0
H837 H 0.92772 0.70819 0.06702 0.0
H838 H 0.87692 0.76481 0.10806 0.0
H839 H 0.84762 0.76673 0.17645 0.0
H840 H 0.78667 0.69028 0.29267 0.0
H841 H 0.77707 0.63903 0.30136 0.0
H842 H 0.83168 0.58522 0.26859 0.0
H843 H 0.87858 0.59556 0.2295 0.0
H844 H 0.89342 0.69404 0.34806 0.0
H845 H 0.94106 0.75588 0.25563 0.0
H846 H 0.82357 0.6085 0.07706 0.0
H847 H 0.79911 0.67296 0.07027 0.0
C848 C 0.40106 0.1976 0.27709 0.0
C849 C 0.42416 0.20328 0.30133 0.0
C850 C 0.4449 0.20853 0.27167 0.0
C851 C 0.43325 0.2057 0.23124 0.0
N852 N 0.40663 0.19891 0.23402 0.0
Co853 Co 0.38194 0.19302 0.18487 0.0
N854 N 0.406 0.18498 0.14559 0.0
C855 C 0.43304 0.19519 0.15 0.0
C856 C 0.44566 0.19224 0.11292 0.0
C857 C 0.42517 0.17935 0.08368 0.0
C858 C 0.40091 0.17398 0.10531 0.0
N859 N 0.35737 0.18749 0.13552 0.0
C860 C 0.35691 0.17584 0.09643 0.0
C861 C 0.34185 0.18281 0.06695 0.0
C862 C 0.33101 0.19737 0.08972 0.0
C863 C 0.34098 0.19965 0.1312 0.0
N864 N 0.35834 0.20164 0.22423 0.0
C865 C 0.34028 0.21064 0.2123 0.0
C866 C 0.32685 0.21468 0.24768 0.0
C867 C 0.33742 0.20787 0.28376 0.0
C868 C 0.35674 0.20011 0.26818 0.0
N869 N 0.40175 0.23171 0.16872 0.0
C870 C 0.43123 0.28681 0.14554 0.0
C871 C 0.42253 0.26648 0.11372 0.0
C872 C 0.40802 0.23929 0.12588 0.0
C873 C 0.42444 0.27879 0.18932 0.0
C874 C 0.40969 0.25134 0.20014 0.0
N875 N 0.36208 0.1545 0.20107 0.0
C876 C 0.31993 0.11575 0.21906 0.0
C877 C 0.33377 0.10079 0.23227 0.0
C878 C 0.3622 0.11331 0.22785 0.0
C879 C 0.37586 0.13994 0.21222 0.0
C880 C 0.33437 0.14238 0.20362 0.0
H881 H 0.39769 0.14902 0.20996 0.0
H882 H 0.3231 0.15347 0.19471 0.0
H883 H 0.40213 0.22438 0.10035 0.0
H884 H 0.40484 0.24598 0.23408 0.0
C885 C 0.44516 0.2051 0.19063 0.0
C886 C 0.37461 0.19301 0.29503 0.0
C887 C 0.3736 0.16151 0.08601 0.0
C888 C 0.33375 0.21064 0.16792 0.0
H889 H 0.42587 0.20386 0.33654 0.0
H890 H 0.46569 0.21298 0.27882 0.0
H891 H 0.46714 0.19884 0.10755 0.0
H892 H 0.42805 0.17534 0.04991 0.0
H893 H 0.33972 0.17895 0.03222 0.0
H894 H 0.31769 0.20549 0.07732 0.0
H895 H 0.31067 0.22085 0.24731 0.0
H896 H 0.33174 0.20869 0.31748 0.0
H897 H 0.42744 0.27141 0.07955 0.0
H898 H 0.43032 0.29364 0.21521 0.0
H899 H 0.2981 0.10732 0.2219 0.0
H900 H 0.374 0.10266 0.23655 0.0
C901 C 0.8834 0.22218 0.12469 0.0
C902 C 0.88377 0.24733 0.1195 0.0
C903 C 0.87864 0.25484 0.15974 0.0
C904 C 0.87538 0.23386 0.1869 0.0
N905 N 0.87874 0.21367 0.16669 0.0
Co906 Co 0.8737 0.17833 0.1925 0.0
N907 N 0.86283 0.18782 0.25024 0.0
C908 C 0.86132 0.21095 0.26106 0.0
C909 C 0.85407 0.21187 0.30374 0.0
C910 C 0.85129 0.18812 0.32151 0.0
C911 C 0.857 0.17404 0.2884 0.0
N912 N 0.86803 0.14272 0.21788 0.0
C913 C 0.86185 0.13345 0.25932 0.0
C914 C 0.86021 0.10775 0.26387 0.0
C915 C 0.86598 0.10062 0.22375 0.0
C916 C 0.87074 0.1223 0.19723 0.0
N917 N 0.88508 0.1691 0.135 0.0
C918 C 0.88827 0.14674 0.12489 0.0
C919 C 0.8957 0.146 0.08221 0.0
C920 C 0.89682 0.169 0.06378 0.0
C921 C 0.88989 0.18239 0.09647 0.0
N922 N 0.91246 0.19484 0.21214 0.0
C923 C 0.96674 0.21718 0.24337 0.0
C924 C 0.95451 0.19137 0.22476 0.0
C925 C 0.92779 0.18078 0.20947 0.0
C926 C 0.95121 0.23167 0.24542 0.0
C927 C 0.92446 0.22026 0.22994 0.0
N928 N 0.83499 0.16177 0.1731 0.0
C929 C 0.79723 0.12676 0.13483 0.0
C930 C 0.77995 0.13861 0.14547 0.0
C931 C 0.79104 0.16232 0.17043 0.0
C932 C 0.81822 0.17351 0.18336 0.0
C933 C 0.82428 0.13845 0.14894 0.0
H934 H 0.82522 0.19175 0.20166 0.0
H935 H 0.83623 0.12834 0.13961 0.0
H936 H 0.91991 0.16104 0.19582 0.0
H937 H 0.9138 0.23233 0.23322 0.0
C938 C 0.86733 0.23166 0.23063 0.0
C939 C 0.88566 0.20625 0.08849 0.0
C940 C 0.8591 0.14893 0.29575 0.0
C941 C 0.88071 0.12535 0.15445 0.0
H942 H 0.88663 0.25865 0.08949 0.0
H943 H 0.8765 0.27294 0.16789 0.0
H944 H 0.85171 0.22812 0.32021 0.0
H945 H 0.84641 0.18221 0.35535 0.0
H946 H 0.85605 0.09582 0.29346 0.0
H947 H 0.86763 0.08229 0.21535 0.0
H948 H 0.89856 0.12998 0.06588 0.0
H949 H 0.9011 0.17475 0.02976 0.0
H950 H 0.96556 0.17931 0.22159 0.0
H951 H 0.9594 0.2516 0.25986 0.0
H952 H 0.79017 0.1087 0.11505 0.0
H953 H 0.7788 0.17232 0.18056 0.0
H954 H 0.02995 0.47249 0.35438 0.0
H955 H 0.02673 0.54842 0.37427 0.0
H956 H 0.02807 0.55548 0.29508 0.0
H957 H 0.02951 0.53983 0.21889 0.0
H958 H 0.03486 0.46491 0.19926 0.0
H959 H 0.03366 0.45794 0.27843 0.0
C960 C 0.02989 0.49076 0.34144 0.0
C961 C 0.02838 0.50997 0.37087 0.0
C962 C 0.03101 0.49488 0.29537 0.0
C963 C 0.02789 0.53326 0.35288 0.0
C964 C 0.02869 0.53733 0.30737 0.0
C965 C 0.0306 0.52207 0.23196 0.0
C966 C 0.03205 0.5028 0.20259 0.0
C967 C 0.03017 0.51828 0.27808 0.0
C968 C 0.03349 0.47997 0.22062 0.0
C969 C 0.03282 0.47598 0.26612 0.0
H970 H 0.54172 0.56567 0.34068 0.0
H971 H 0.59773 0.53028 0.34992 0.0
H972 H 0.59685 0.52491 0.2708 0.0
H973 H 0.57846 0.5286 0.19835 0.0
H974 H 0.54018 0.582 0.18766 0.0
H975 H 0.53598 0.5823 0.26725 0.0
C976 C 0.55453 0.55755 0.3258 0.0
C977 C 0.56857 0.54699 0.35283 0.0
C978 C 0.55686 0.55761 0.27936 0.0
C979 C 0.58509 0.53689 0.33127 0.0
C980 C 0.58502 0.53422 0.28553 0.0
C981 C 0.57023 0.5414 0.2128 0.0
C982 C 0.55888 0.5546 0.18555 0.0
C983 C 0.5707 0.54423 0.25907 0.0
C984 C 0.54805 0.57054 0.20676 0.0
C985 C 0.54585 0.57098 0.25265 0.0
H986 H 0.54798 0.05265 0.16986 0.0
H987 H 0.46101 0.01333 0.16199 0.0
H988 H 0.45724 0.01843 0.24112 0.0
H989 H 0.47904 0.02873 0.31289 0.0
H990 H 0.5663 0.06524 0.32042 0.0
H991 H 0.56977 0.06752 0.24101 0.0
C992 C 0.52829 0.04584 0.18563 0.0
C993 C 0.50478 0.03258 0.16103 0.0
C994 C 0.52642 0.04827 0.23089 0.0
C995 C 0.47924 0.0236 0.18097 0.0
C996 C 0.47716 0.0264 0.22599 0.0
C997 C 0.4988 0.03744 0.2971 0.0
C998 C 0.52234 0.04645 0.32247 0.0
C999 C 0.50063 0.03785 0.25142 0.0
C1000 C 0.54785 0.05828 0.30168 0.0
C1001 C 0.54987 0.05934 0.25624 0.0
H1002 H 0.02995 0.48619 0.71842 0.0
H1003 H 0.0347 0.56556 0.69958 0.0
H1004 H 0.03434 0.57174 0.77887 0.0
H1005 H 0.03151 0.55422 0.85478 0.0
H1006 H 0.02833 0.47546 0.87368 0.0
H1007 H 0.02916 0.46947 0.79441 0.0
C1008 C 0.03107 0.50491 0.73168 0.0
C1009 C 0.03213 0.5253 0.7025 0.0
C1010 C 0.03106 0.50844 0.77785 0.0
C1011 C 0.03363 0.5494 0.72079 0.0
C1012 C 0.03344 0.55296 0.76636 0.0
C1013 C 0.03134 0.53587 0.84159 0.0
C1014 C 0.02999 0.51536 0.87078 0.0
C1015 C 0.03202 0.5326 0.79542 0.0
C1016 C 0.02938 0.49162 0.85248 0.0
C1017 C 0.02986 0.48817 0.80691 0.0
H1018 H 0.52171 0.50375 0.70134 0.0
H1019 H 0.58891 0.58218 0.68535 0.0
H1020 H 0.59355 0.5871 0.76488 0.0
H1021 H 0.57836 0.56917 0.84032 0.0
H1022 H 0.51271 0.48971 0.85571 0.0
H1023 H 0.50793 0.48503 0.77629 0.0
C1024 C 0.53753 0.52184 0.71521 0.0
C1025 C 0.55496 0.54257 0.68679 0.0
C1026 C 0.54038 0.52437 0.76143 0.0
C1027 C 0.57511 0.56592 0.70595 0.0
C1028 C 0.57783 0.56872 0.75166 0.0
C1029 C 0.56305 0.55083 0.82625 0.0
C1030 C 0.54555 0.53003 0.85448 0.0
C1031 C 0.56058 0.54811 0.77994 0.0
C1032 C 0.52612 0.50627 0.83521 0.0
C1033 C 0.52341 0.50355 0.78957 0.0
H1034 H 0.51044 0.97611 0.86433 0.0
H1035 H 0.59732 0.00782 0.86406 0.0
H1036 H 0.59756 1.00159 0.78463 0.0
H1037 H 0.57329 0.99294 0.71505 0.0
H1038 H 0.48648 0.96467 0.71586 0.0
H1039 H 0.48572 0.96281 0.79535 0.0
C1040 C 0.52925 0.98092 0.84672 0.0
C1041 C 0.55381 0.99232 0.86911 0.0
C1042 C 0.52918 0.97803 0.80134 0.0
C1043 C 0.57827 0.99887 0.84681 0.0
C1044 C 0.57836 0.99547 0.80162 0.0
C1045 C 0.55419 0.98612 0.73267 0.0
C1046 C 0.53005 0.9793 0.70963 0.0
C1047 C 0.554 0.986 0.77842 0.0
C1048 C 0.50535 0.96989 0.73276 0.0
C1049 C 0.50491 0.96907 0.77826 0.0
H1050 H 0.71812 0.90203 0.67398 0.0
H1051 H 0.71344 0.82307 0.69722 0.0
H1052 H 0.71272 0.81508 0.6183 0.0
H1053 H 0.7142 0.83077 0.54143 0.0
H1054 H 0.71807 0.90943 0.51831 0.0
H1055 H 0.71826 0.91719 0.59722 0.0
C1056 C 0.71683 0.88303 0.66175 0.0
C1057 C 0.71599 0.86324 0.692 0.0
C1058 C 0.71628 0.87848 0.61584 0.0
C1059 C 0.71431 0.83876 0.67511 0.0
C1060 C 0.71385 0.83416 0.62977 0.0
C1061 C 0.71483 0.8495 0.55368 0.0
C1062 C 0.716 0.86945 0.52347 0.0
C1063 C 0.71491 0.85386 0.59962 0.0
C1064 C 0.71711 0.8937 0.54041 0.0
C1065 C 0.71725 0.89816 0.58573 0.0
H1066 H 0.21663 0.8357 0.66951 0.0
H1067 H 0.16458 0.8752 0.68779 0.0
H1068 H 0.16543 0.88292 0.60924 0.0
H1069 H 0.1828 0.88008 0.53502 0.0
H1070 H 0.2168 0.82354 0.51525 0.0
H1071 H 0.22127 0.82075 0.59417 0.0
C1072 C 0.20431 0.84487 0.65671 0.0
C1073 C 0.19108 0.85537 0.68588 0.0
C1074 C 0.20206 0.8465 0.61068 0.0
C1075 C 0.17596 0.86778 0.66713 0.0
C1076 C 0.17618 0.87202 0.62186 0.0
C1077 C 0.18984 0.86591 0.54738 0.0
C1078 C 0.19963 0.85226 0.5179 0.0
C1079 C 0.18935 0.86164 0.59318 0.0
C1080 C 0.20981 0.83508 0.53625 0.0
C1081 C 0.21214 0.8332 0.58171 0.0
H1082 H 0.24188 0.34094 0.5444 0.0
H1083 H 0.16586 0.345 0.52973 0.0
H1084 H 0.16064 0.34526 0.60933 0.0
H1085 H 0.17799 0.34498 0.68422 0.0
H1086 H 0.25307 0.33896 0.69873 0.0
H1087 H 0.25829 0.33878 0.61916 0.0
C1088 C 0.22412 0.34177 0.55865 0.0
C1089 C 0.20441 0.34322 0.53068 0.0
C1090 C 0.22106 0.34156 0.60487 0.0
C1091 C 0.18151 0.34419 0.5501 0.0
C1092 C 0.17848 0.34426 0.59581 0.0
C1093 C 0.19535 0.34335 0.66995 0.0
C1094 C 0.21509 0.34191 0.69787 0.0
C1095 C 0.19813 0.34303 0.6237 0.0
C1096 C 0.23757 0.34011 0.67839 0.0
C1097 C 0.24057 0.34001 0.63271 0.0
H1098 H 0.71493 0.90937 0.17804 0.0
H1099 H 0.71516 0.83166 0.19066 0.0
H1100 H 0.71687 0.82807 0.11096 0.0
H1101 H 0.71815 0.84695 0.03641 0.0
H1102 H 0.72034 0.92572 0.02417 0.0
H1103 H 0.71816 0.92905 0.10381 0.0
C1104 C 0.71557 0.89173 0.16338 0.0
C1105 C 0.71493 0.8708 0.1909 0.0
C1106 C 0.71701 0.88998 0.11706 0.0
C1107 C 0.71552 0.84804 0.17076 0.0
C1108 C 0.71657 0.84601 0.12496 0.0
C1109 C 0.71826 0.86489 0.0512 0.0
C1110 C 0.7191 0.88595 0.02378 0.0
C1111 C 0.71731 0.86683 0.09758 0.0
C1112 C 0.71938 0.90906 0.044 0.0
C1113 C 0.71817 0.91099 0.08976 0.0
H1114 H 0.20901 0.83133 0.02842 0.0
H1115 H 0.15258 0.86645 0.02592 0.0
H1116 H 0.15562 0.87169 0.10513 0.0
H1117 H 0.17507 0.86689 0.17586 0.0
H1118 H 0.21314 0.81307 0.17973 0.0
H1119 H 0.21662 0.81438 0.10012 0.0
C1120 C 0.19672 0.83952 0.04491 0.0
C1121 C 0.18175 0.84989 0.01985 0.0
C1122 C 0.19565 0.83932 0.09134 0.0
C1123 C 0.16582 0.85994 0.04317 0.0
C1124 C 0.16715 0.86255 0.08889 0.0
C1125 C 0.18352 0.85475 0.15971 0.0
C1126 C 0.19514 0.84104 0.18507 0.0
C1127 C 0.18222 0.85249 0.11346 0.0
C1128 C 0.20565 0.82539 0.16213 0.0
C1129 C 0.20719 0.82567 0.1162 0.0
H1130 H 0.20546 0.30189 0.05039 0.0
H1131 H 0.23864 0.38725 0.02303 0.0
H1132 H 0.24489 0.39691 0.10108 0.0
H1133 H 0.24235 0.38101 0.17789 0.0
H1134 H 0.19323 0.29649 0.20501 0.0
H1135 H 0.19153 0.2866 0.12704 0.0
C1136 C 0.21283 0.32264 0.061 0.0
C1137 C 0.22174 0.34371 0.02948 0.0
C1138 C 0.21384 0.3282 0.10658 0.0
C1139 C 0.23225 0.37041 0.04555 0.0
C1140 C 0.23566 0.37603 0.09055 0.0
C1141 C 0.23011 0.36051 0.1672 0.0
C1142 C 0.21825 0.3396 0.19868 0.0
C1143 C 0.22665 0.35509 0.12158 0.0
C1144 C 0.20342 0.31313 0.18255 0.0
C1145 C 0.20218 0.30739 0.13758 0.0
H1146 H 0.3248 0.13424 0.04058 0.0
H1147 H 0.40023 0.13024 0.05941 0.0
H1148 H 0.3978 0.11203 0.98643 0.0
H1149 H 0.38025 0.10899 0.91113 0.0
H1150 H 0.30462 0.11349 0.89241 0.0
H1151 H 0.30151 0.12071 0.97058 0.0
C1152 C 0.34161 0.13108 0.02796 0.0
C1153 C 0.36595 0.13979 0.05141 0.0
C1154 C 0.3399 0.12057 0.98572 0.0
C1155 C 0.38387 0.12887 0.03873 0.0
C1156 C 0.38211 0.11761 0.99729 0.0
C1157 C 0.36279 0.11088 0.92444 0.0
C1158 C 0.34308 0.11146 0.89614 0.0
C1159 C 0.36143 0.1157 0.96916 0.0
C1160 C 0.32014 0.11318 0.91366 0.0
C1161 C 0.31844 0.1175 0.95831 0.0
H1162 H 0.8491 0.20226 0.89499 0.0
H1163 H 0.9322 0.26149 0.88042 0.0
H1164 H 0.93786 0.26285 0.95971 0.0
H1165 H 0.92074 0.24252 0.032 0.0
H1166 H 0.83841 0.18179 0.04557 0.0
H1167 H 0.83056 0.1858 0.9678 0.0
C1168 C 0.86818 0.21607 0.90928 0.0
C1169 C 0.89025 0.23164 0.88211 0.0
C1170 C 0.87145 0.21617 0.95459 0.0
C1171 C 0.91502 0.24915 0.90089 0.0
C1172 C 0.91828 0.24988 0.9461 0.0
C1173 C 0.90101 0.2307 0.01778 0.0
C1174 C 0.88012 0.21194 0.04365 0.0
C1175 C 0.89692 0.23276 0.97309 0.0
C1176 C 0.85461 0.19638 0.02564 0.0
C1177 C 0.8502 0.19862 0.98139 0.0
H1178 H 0.78027 0.6516 1.00624 0.0
H1179 H 0.84492 0.62691 0.01468 0.0
H1180 H 0.85168 0.63148 0.93709 0.0
H1181 H 0.84524 0.64948 0.86903 0.0
H1182 H 0.78359 0.67763 0.85784 0.0
H1183 H 0.7706 0.66575 0.93446 0.0
C1184 C 0.79571 0.64703 0.99118 0.0
C1185 C 0.81188 0.63887 0.01714 0.0
C1186 C 0.80068 0.65102 0.94599 0.0
C1187 C 0.83145 0.63256 0.99636 0.0
C1188 C 0.8358 0.63561 0.9516 0.0
C1189 C 0.82836 0.65229 0.8827 0.0
C1190 C 0.81553 0.66455 0.85776 0.0
C1191 C 0.82128 0.64575 0.92647 0.0
C1192 C 0.79412 0.66858 0.8766 0.0
C1193 C 0.78662 0.66171 0.92033 0.0
H1194 H 0.38319 0.22704 0.36299 0.0
H1195 H 0.35358 0.14301 0.32961 0.0
H1196 H 0.34701 0.13062 0.4072 0.0
H1197 H 0.35157 0.14402 0.48396 0.0
H1198 H 0.38126 0.22815 0.51815 0.0
H1199 H 0.38643 0.2404 0.44067 0.0
C1200 C 0.37496 0.20606 0.37306 0.0
C1201 C 0.36849 0.18581 0.34139 0.0
C1202 C 0.37162 0.19924 0.41755 0.0
C1203 C 0.35833 0.1587 0.35398 0.0
C1204 C 0.35472 0.15171 0.39812 0.0
C1205 C 0.35877 0.16502 0.47452 0.0
C1206 C 0.36589 0.18513 0.50676 0.0
C1207 C 0.36152 0.17183 0.43014 0.0
C1208 C 0.37586 0.21231 0.49395 0.0
C1209 C 0.37866 0.2193 0.4497 0.0
H1210 H 0.82227 0.1216 0.35809 0.0
H1211 H 0.90795 0.16431 0.33248 0.0
H1212 H 0.91723 0.16591 0.41077 0.0
H1213 H 0.90024 0.16236 0.4859 0.0
H1214 H 0.81438 0.12186 0.51194 0.0
H1215 H 0.80565 0.11159 0.43418 0.0
C1216 C 0.84292 0.13035 0.36992 0.0
C1217 C 0.86447 0.1429 0.34043 0.0
C1218 C 0.84793 0.13194 0.41486 0.0
C1219 C 0.89123 0.1545 0.35523 0.0
C1220 C 0.89646 0.15562 0.39981 0.0
C1221 C 0.8797 0.15081 0.47447 0.0
C1222 C 0.85793 0.14323 0.50402 0.0
C1223 C 0.8749 0.14555 0.42989 0.0
C1224 C 0.83138 0.12792 0.48944 0.0
C1225 C 0.8264 0.12222 0.44506 0.0
H1226 H 0.95534 0.74667 0.49547 0.0
H1227 H 0.8993 0.78232 0.49185 0.0
H1228 H 0.90279 0.78495 0.41272 0.0
H1229 H 0.91097 0.76512 0.34588 0.0
H1230 H 0.96026 0.72232 0.35006 0.0
H1231 H 0.97053 0.73454 0.42693 0.0
C1232 C 0.94428 0.75546 0.47737 0.0
C1233 C 0.92638 0.76339 0.49954 0.0
C1234 C 0.94492 0.75523 0.43163 0.0
C1235 C 0.91306 0.7758 0.47582 0.0
C1236 C 0.91479 0.77705 0.43035 0.0
C1237 C 0.92504 0.75972 0.36327 0.0
C1238 C 0.93495 0.74299 0.34299 0.0
C1239 C 0.92912 0.76512 0.40799 0.0
C1240 C 0.95271 0.73546 0.3654 0.0
C1241 C 0.95822 0.74212 0.4094 0.0
H1242 H 0.12493 0.46188 0.01629 0.0
H1243 H 0.06076 0.42689 0.92229 0.0
H1244 H 0.08437 0.40325 0.88771 0.0
H1245 H 0.12359 0.39291 0.88308 0.0
H1246 H 0.18759 0.42753 0.97752 0.0
H1247 H 0.16415 0.45143 1.01175 0.0
C1248 C 0.11615 0.44924 0.98806 0.0
C1249 C 0.09091 0.44619 0.97225 0.0
C1250 C 0.12999 0.43577 0.96794 0.0
C1251 C 0.07984 0.42936 0.93587 0.0
C1252 C 0.09347 0.41595 0.91574 0.0
C1253 C 0.13239 0.40549 0.91136 0.0
C1254 C 0.15753 0.40836 0.92734 0.0
C1255 C 0.11857 0.41899 0.93145 0.0
C1256 C 0.1686 0.4252 0.96373 0.0
C1257 C 0.15505 0.43875 0.9837 0.0
H1258 H 0.62213 0.74185 0.88408 0.0
H1259 H 0.69406 0.76215 0.96066 0.0
H1260 H 0.67435 0.71706 0.99233 0.0
H1261 H 0.63687 0.67148 0.99872 0.0
H1262 H 0.56471 0.65074 0.92272 0.0
H1263 H 0.58398 0.69622 0.89177 0.0
C1264 C 0.63346 0.73655 0.90795 0.0
C1265 C 0.65986 0.75564 0.91924 0.0
C1266 C 0.62185 0.71033 0.9266 0.0
C1267 C 0.67406 0.74798 0.95023 0.0
C1268 C 0.66268 0.72212 0.96877 0.0
C1269 C 0.62533 0.67676 0.97519 0.0
C1270 C 0.59922 0.65737 0.96332 0.0
C1271 C 0.63667 0.70303 0.95707 0.0
C1272 C 0.58462 0.66509 0.93321 0.0
C1273 C 0.59576 0.69116 0.91512 0.0
H1274 H 0.32715 0.93599 0.86094 0.0
H1275 H 0.30468 0.86754 0.94703 0.0
H1276 H 0.35065 0.88658 0.97594 0.0
H1277 H 0.39701 0.92355 0.97898 0.0
H1278 H 0.41981 0.99106 0.89035 0.0
H1279 H 0.37409 0.97185 0.86147 0.0
C1280 C 0.33225 0.92522 0.88609 0.0
C1281 C 0.3122 0.90026 0.90167 0.0
C1282 C 0.35889 0.93631 0.90266 0.0
C1283 C 0.31955 0.88656 0.9339 0.0
C1284 C 0.34589 0.89757 0.95074 0.0
C1285 C 0.39225 0.93401 0.95295 0.0
C1286 C 0.41227 0.95913 0.93762 0.0
C1287 C 0.36576 0.92253 0.93558 0.0
C1288 C 0.40506 0.97218 0.90404 0.0
C1289 C 0.3788 0.96104 0.88702 0.0
H1290 H 0.46647 0.07724 0.53292 0.0
H1291 H 0.45759 0.02365 0.64036 0.0
H1292 H 0.42823 0.03988 0.679 0.0
H1293 H 0.40576 0.07031 0.68291 0.0
H1294 H 0.41505 0.1242 0.57576 0.0
H1295 H 0.44332 0.10702 0.53621 0.0
C1296 C 0.45804 0.0692 0.56479 0.0
C1297 C 0.46419 0.04937 0.58395 0.0
C1298 C 0.44116 0.07866 0.58674 0.0
C1299 C 0.45312 0.03895 0.62514 0.0
C1300 C 0.43634 0.04822 0.64716 0.0
C1301 C 0.41378 0.07798 0.65069 0.0
C1302 C 0.4082 0.09827 0.63195 0.0
C1303 C 0.43025 0.06814 0.62838 0.0
C1304 C 0.41894 0.1084 0.59049 0.0
C1305 C 0.43517 0.09866 0.56802 0.0
H1306 H 0.91646 0.30902 0.68972 0.0
H1307 H 0.94118 0.27528 0.58067 0.0
H1308 H 0.96567 0.32028 0.54847 0.0
H1309 H 0.97984 0.36969 0.55056 0.0
H1310 H 0.9521 0.40288 0.65683 0.0
H1311 H 0.92915 0.35815 0.69039 0.0
C1312 C 0.92732 0.3116 0.659 0.0
C1313 C 0.92753 0.28878 0.63829 0.0
C1314 C 0.94081 0.33761 0.63993 0.0
C1315 C 0.94124 0.29248 0.59796 0.0
C1316 C 0.95514 0.31825 0.57935 0.0
C1317 C 0.96888 0.36713 0.58116 0.0
C1318 C 0.96784 0.3898 0.60109 0.0
C1319 C 0.95515 0.34105 0.6 0.0
C1320 C 0.95317 0.3859 0.64053 0.0
C1321 C 0.94006 0.36026 0.65987 0.0
H1322 H 0.78379 0.6541 0.55928 0.0
H1323 H 0.7648 0.67279 0.68815 0.0
H1324 H 0.71631 0.64749 0.67357 0.0
H1325 H 0.67896 0.61947 0.62432 0.0
H1326 H 0.698 0.59782 0.49752 0.0
H1327 H 0.74644 0.62407 0.5114 0.0
C1328 C 0.76902 0.65236 0.58433 0.0
C1329 C 0.77805 0.6653 0.62493 0.0
C1330 C 0.74104 0.63703 0.57612 0.0
C1331 C 0.75851 0.66313 0.65667 0.0
C1332 C 0.73074 0.64856 0.64837 0.0
C1333 C 0.69371 0.62051 0.5997 0.0
C1334 C 0.68466 0.60665 0.55978 0.0
C1335 C 0.7217 0.63536 0.60823 0.0
C1336 C 0.70422 0.60804 0.52859 0.0
C1337 C 0.732 0.62321 0.53645 0.0
H1338 H 0.95095 0.64927 0.18508 0.0
H1339 H 0.87358 0.5982 0.12926 0.0
H1340 H 0.8927 0.56994 0.09546 0.0
H1341 H 0.93187 0.56074 0.07949 0.0
H1342 H 0.0093 0.61145 0.13655 0.0
H1343 H 0.98994 0.63896 0.17121 0.0
C1344 C 0.93832 0.63174 0.16594 0.0
C1345 C 0.91086 0.62556 0.16007 0.0
C1346 C 0.94956 0.61572 0.14622 0.0
C1347 C 0.89469 0.60306 0.13468 0.0
C1348 C 0.90566 0.58702 0.11515 0.0
C1349 C 0.94452 0.57759 0.09987 0.0
C1350 C 0.9722 0.58395 0.10481 0.0
C1351 C 0.93315 0.59325 0.12039 0.0
C1352 C 0.98814 0.60624 0.13108 0.0
C1353 C 0.97701 0.62193 0.15138 0.0
H1354 H 0.42549 0.31472 0.07482 0.0
H1355 H 0.47492 0.32487 0.18845 0.0
H1356 H 0.50251 0.3721 0.16904 0.0
H1357 H 0.51311 0.41064 0.1197 0.0
H1358 H 0.46268 0.40116 1.00742 0.0
H1359 H 0.43589 0.35366 0.02565 0.0
C1360 C 0.44239 0.32718 0.09526 0.0
C1361 C 0.44788 0.31597 0.1333 0.0
C1362 C 0.45833 0.35457 0.08389 0.0
C1363 C 0.46978 0.33278 0.15944 0.0
C1364 C 0.48577 0.35987 0.14815 0.0
C1365 C 0.49611 0.39842 0.09928 0.0
C1366 C 0.49023 0.40999 0.06198 0.0
C1367 C 0.48023 0.37104 0.11051 0.0
C1368 C 0.4683 0.39315 0.03582 0.0
C1369 C 0.45267 0.36586 0.04649 0.0
H1370 H 0.74424 0.08499 0.1324 0.0
H1371 H 0.7495 0.16539 0.12376 0.0
H1372 H 0.70231 0.14675 0.102 0.0
H1373 H 0.65912 0.10777 0.08548 0.0
H1374 H 0.65499 0.02764 0.08755 0.0
H1375 H 0.70172 0.04613 0.11173 0.0
C1376 C 0.73532 0.09859 0.12528 0.0
C1377 C 0.75087 0.12676 0.13049 0.0
C1378 C 0.70802 0.08775 0.11168 0.0
C1379 C 0.73831 0.14368 0.1214 0.0
C1380 C 0.71118 0.13301 0.10846 0.0
C1381 C 0.66836 0.09421 0.09055 0.0
C1382 C 0.65286 0.06608 0.08479 0.0
C1383 C 0.69576 0.10507 0.10355 0.0
C1384 C 0.66567 0.04921 0.09254 0.0
C1385 C 0.69271 0.05984 0.10605 0.0
H1386 H 0.61049 0.97902 0.50871 0.0
H1387 H 0.56576 0.96762 0.38953 0.0
H1388 H 0.5928 0.94727 0.35499 0.0
H1389 H 0.62866 0.93171 0.35919 0.0
H1390 H 0.67509 0.94538 0.47714 0.0
H1391 H 0.64843 0.9662 0.51125 0.0
C1392 C 0.6069 0.97229 0.47505 0.0
C1393 C 0.58602 0.97465 0.45178 0.0
C1394 C 0.62293 0.96106 0.45512 0.0
C1395 C 0.58157 0.96584 0.40818 0.0
C1396 C 0.59706 0.95424 0.38843 0.0
C1397 C 0.63298 0.93932 0.39232 0.0
C1398 C 0.65386 0.93689 0.41555 0.0
C1399 C 0.61768 0.95155 0.41165 0.0
C1400 C 0.65935 0.94717 0.45832 0.0
C1401 C 0.64397 0.95895 0.47797 0.0
H1402 H 0.12481 0.64702 0.50192 0.0
H1403 H 0.05238 0.62499 0.42591 0.0
H1404 H 0.07217 0.66912 0.39086 0.0
H1405 H 0.10994 0.71433 0.38108 0.0
H1406 H 0.18261 0.73672 0.45645 0.0
H1407 H 0.16318 0.69223 0.49095 0.0
C1408 C 0.11337 0.6517 0.47747 0.0
C1409 C 0.08679 0.63239 0.46738 0.0
C1410 C 0.12505 0.67736 0.45677 0.0
C1411 C 0.0725 0.63933 0.43555 0.0
C1412 C 0.08394 0.66465 0.41502 0.0
C1413 C 0.12157 0.70966 0.40524 0.0
C1414 C 0.1479 0.72926 0.41581 0.0
C1415 C 0.11014 0.68393 0.42546 0.0
C1416 C 0.16255 0.72223 0.44683 0.0
C1417 C 0.15132 0.69671 0.46699 0.0
H1418 H 0.35268 0.44298 0.37693 0.0
H1419 H 0.33199 0.38259 0.47815 0.0
H1420 H 0.37685 0.40678 0.50956 0.0
H1421 H 0.42221 0.44553 0.50953 0.0
H1422 H 0.44285 0.50605 0.40856 0.0
H1423 H 0.39798 0.48185 0.37709 0.0
C1424 C 0.3578 0.43513 0.40605 0.0
C1425 C 0.3386 0.41062 0.42459 0.0
C1426 C 0.38384 0.44939 0.42451 0.0
C1427 C 0.34618 0.40094 0.46223 0.0
C1428 C 0.37192 0.41495 0.4806 0.0
C1429 C 0.41706 0.45341 0.48047 0.0
C1430 C 0.43625 0.47792 0.46193 0.0
C1431 C 0.39101 0.4392 0.46206 0.0
C1432 C 0.42866 0.48767 0.4244 0.0
C1433 C 0.40291 0.47366 0.40601 0.0
H1434 H 0.7812 0.71922 0.226 0.0
H1435 H 0.85961 0.7654 0.28236 0.0
H1436 H 0.84398 0.79735 0.3134 0.0
H1437 H 0.80744 0.81173 0.32545 0.0
H1438 H 0.72908 0.76497 0.26819 0.0
H1439 H 0.74503 0.7337 0.23735 0.0
C1440 C 0.79474 0.73621 0.24536 0.0
C1441 C 0.82138 0.73978 0.2525 0.0
C1442 C 0.78554 0.75438 0.26317 0.0
C1443 C 0.83894 0.76214 0.27686 0.0
C1444 C 0.82998 0.78038 0.29455 0.0
C1445 C 0.79389 0.7948 0.30603 0.0
C1446 C 0.7669 0.79074 0.29974 0.0
C1447 C 0.80326 0.77669 0.28806 0.0
C1448 C 0.74972 0.76847 0.27455 0.0
C1449 C 0.75889 0.75058 0.25653 0.0
H1450 H 0.28372 0.05969 0.21053 0.0
H1451 H 0.35013 0.07862 0.29945 0.0
H1452 H 0.32732 0.03366 0.3314 0.0
H1453 H 0.2886 0.98866 0.33476 0.0
H1454 H 0.22213 0.96917 0.24583 0.0
H1455 H 0.2444 0.01455 0.21474 0.0
C1456 C 0.29319 0.05414 0.23712 0.0
C1457 C 0.319 0.07286 0.25192 0.0
C1458 C 0.27976 0.02798 0.25587 0.0
C1459 C 0.33072 0.0648 0.28635 0.0
C1460 C 0.31752 0.039 0.30505 0.0
C1461 C 0.27894 0.99411 0.30835 0.0
C1462 C 0.25348 0.97502 0.29293 0.0
C1463 C 0.29209 0.02033 0.29 0.0
C1464 C 0.24138 0.98317 0.25915 0.0
C1465 C 0.25429 0.00921 0.24095 0.0
H1466 H 0.0819 0.24704 0.32919 0.0
H1467 H 0.0973 0.32565 0.27896 0.0
H1468 H 0.05151 0.30754 0.2504 0.0
H1469 H 0.00675 0.26943 0.23881 0.0
H1470 H 0.99108 0.19062 0.28812 0.0
H1471 H 0.03703 0.2086 0.31671 0.0
C1472 C 0.07538 0.26022 0.31173 0.0
C1473 C 0.09333 0.28791 0.30698 0.0
C1474 C 0.04875 0.24958 0.29483 0.0
C1475 C 0.08407 0.30447 0.28429 0.0
C1476 C 0.05779 0.29406 0.26753 0.0
C1477 C 0.01323 0.25616 0.25609 0.0
C1478 C 0.99515 0.22856 0.26099 0.0
C1479 C 0.03985 0.26668 0.27272 0.0
C1480 C 1.00441 0.21181 0.28307 0.0
C1481 C 0.03077 0.22214 0.29976 0.0
H1482 H 0.32086 0.22779 0.70848 0.0
H1483 H 0.29025 0.16939 0.81248 0.0
H1484 H 0.26773 0.19479 0.84603 0.0
H1485 H 0.25806 0.23473 0.84703 0.0
H1486 H 0.28961 0.29336 0.74295 0.0
H1487 H 0.31056 0.26712 0.70872 0.0
C1488 C 0.30913 0.22064 0.73839 0.0
C1489 C 0.30715 0.19676 0.75799 0.0
C1490 C 0.29659 0.23558 0.75775 0.0
C1491 C 0.29194 0.18767 0.79675 0.0
C1492 C 0.27916 0.20225 0.81597 0.0
C1493 C 0.26933 0.24167 0.81669 0.0
C1494 C 0.27237 0.26625 0.798 0.0
C1495 C 0.28149 0.22639 0.79697 0.0
C1496 C 0.28728 0.27488 0.75872 0.0
C1497 C 0.29918 0.25976 0.73885 0.0
H1498 H 0.83592 0.08127 0.71385 0.0
H1499 H 0.81209 0.11597 0.82259 0.0
H1500 H 0.78582 0.07079 0.85388 0.0
H1501 H 0.76992 0.02088 0.85073 0.0
H1502 H 0.79679 0.9872 0.74402 0.0
H1503 H 0.82158 0.03211 0.71198 0.0
C1504 C 0.82526 0.07896 0.74471 0.0
C1505 C 0.82629 0.1021 0.76612 0.0
C1506 C 0.81063 0.05292 0.76291 0.0
C1507 C 0.81184 0.09859 0.80562 0.0
C1508 C 0.79678 0.07271 0.82348 0.0
C1509 C 0.78114 0.02343 0.8204 0.0
C1510 C 0.7814 1.00056 0.79981 0.0
C1511 C 0.79602 0.04964 0.80249 0.0
C1512 C 0.7963 1.00434 0.7607 0.0
C1513 C 0.81049 0.03008 0.74228 0.0
H1514 H 0.06439 0.82422 0.75476 0.0
H1515 H 0.0503 0.77297 0.86771 0.0
H1516 H 1.00243 0.74894 0.84959 0.0
H1517 H 0.96418 0.74122 0.80052 0.0
H1518 H 0.9778 0.79168 0.68711 0.0
H1519 H 0.02566 0.81723 0.70655 0.0
C1520 C 0.0508 0.80801 0.77569 0.0
C1521 C 0.06129 0.80044 0.81251 0.0
C1522 C 0.02299 0.79394 0.76484 0.0
C1523 C 0.04315 0.77912 0.83887 0.0
C1524 C 0.01561 0.76534 0.8286 0.0
C1525 C 0.97768 0.75783 0.78015 0.0
C1526 C 0.96745 0.76443 0.74224 0.0
C1527 C 1.00529 0.77232 0.79143 0.0
C1528 C 0.98516 0.78616 0.71636 0.0
C1529 C 0.01256 0.80075 0.72748 0.0
loop_
_geom_bond_atom_site_label_1
_geom_bond_atom_site_label_2
_geom_bond_distance
_geom_bond_site_symmetry_2
_ccdc_geom_bond_type
C0 C1 1.443 . S
C0 N4 1.376 . S
C0 C38 1.380 1_655 S
C1 C0 1.443 . S
C1 C2 1.340 . S
C1 H41 0.951 . S
C2 C1 1.340 . S
C2 C3 1.439 . S
C2 H42 0.950 . S
C3 C2 1.439 . S
C3 N4 1.374 . S
C3 C37 1.395 . S
N4 C0 1.376 . S
N4 C3 1.374 . S
N4 Co5 2.005 1_655 S
Co5 N4 2.005 1_455 S
Co5 N6 1.991 1_454 S
Co5 N11 2.011 1_554 S
Co5 N16 1.998 . S
Co5 N21 2.288 1_554 S
Co5 N27 2.277 1_455 S
N6 Co5 1.991 1_656 S
N6 C7 1.376 . S
N6 C10 1.383 . S
C7 N6 1.376 . S
C7 C8 1.446 . S
C7 C37 1.391 1_556 S
C8 C7 1.446 . S
C8 C9 1.339 . S
C8 H43 0.949 . S
C9 C8 1.339 . S
C9 C10 1.439 . S
C9 H44 0.950 . S
C10 N6 1.383 . S
C10 C9 1.439 . S
C10 C39 1.393 1_655 S
N11 Co5 2.011 1_556 S
N11 C12 1.376 . S
N11 C15 1.374 . S
C12 N11 1.376 . S
C12 C13 1.443 . S
C12 C39 1.387 . S
C13 C12 1.443 . S
C13 C14 1.340 . S
C13 H45 0.951 . S
C14 C13 1.340 . S
C14 C15 1.439 . S
C14 H46 0.950 . S
C15 N11 1.374 . S
C15 C14 1.439 . S
C15 C40 1.395 1_556 S
N16 Co5 1.998 . S
N16 C17 1.376 . S
N16 C20 1.383 . S
C17 N16 1.376 . S
C17 C18 1.446 . S
C17 C40 1.391 . S
C18 C17 1.446 . S
C18 C19 1.339 . S
C18 H47 0.949 . S
C19 C18 1.339 . S
C19 C20 1.439 . S
C19 H48 0.950 . S
C20 N16 1.383 . S
C20 C19 1.439 . S
C20 C38 1.401 . S
N21 Co5 2.288 1_556 S
N21 C24 1.332 . S
N21 C26 1.332 . S
C22 C23 1.386 . S
C22 C25 1.388 . S
C23 C22 1.386 . S
C23 C24 1.382 . S
C23 H49 0.950 . S
C24 N21 1.332 . S
C24 C23 1.382 . S
C24 H35 0.952 1_556 S
C25 C22 1.388 . S
C25 C26 1.382 . S
C25 H50 0.950 . S
C26 N21 1.332 . S
C26 C25 1.382 . S
C26 H36 0.948 1_455 S
N27 Co5 2.277 1_655 S
N27 C31 1.332 . S
N27 C32 1.332 . S
C28 C29 1.388 . S
C28 C32 1.382 . S
C28 H51 0.950 . S
C29 C28 1.388 . S
C29 C30 1.386 . S
C30 C29 1.386 . S
C30 C31 1.382 . S
C30 H52 0.950 . S
C31 N27 1.332 . S
C31 C30 1.382 . S
C31 H33 0.952 . S
C32 N27 1.332 . S
C32 C28 1.382 . S
C32 H34 0.948 1_655 S
H33 C31 0.952 . S
H34 C32 0.948 1_455 S
H35 C24 0.952 1_554 S
H36 C26 0.948 1_655 S
C37 C3 1.395 . S
C37 C7 1.391 1_554 S
C38 C0 1.380 1_455 S
C38 C20 1.401 . S
C39 C10 1.393 1_455 S
C39 C12 1.387 . S
C40 C15 1.395 1_554 S
C40 C17 1.391 . S
H41 C1 0.951 . S
H42 C2 0.950 . S
H43 C8 0.949 . S
H44 C9 0.950 . S
H45 C13 0.951 . S
H46 C14 0.950 . S
H47 C18 0.949 . S
H48 C19 0.950 . S
H49 C23 0.950 . S
H50 C25 0.950 . S
H51 C28 0.950 . S
H52 C30 0.950 . S
C53 C54 1.443 . S
C53 N57 1.376 . S
C53 C91 1.389 . S
C54 C53 1.443 . S
C54 C55 1.340 . S
C54 H94 0.951 . S
C55 C54 1.340 . S
C55 C56 1.439 . S
C55 H95 0.950 . S
C56 C55 1.439 . S
C56 N57 1.374 . S
C56 C90 1.395 1_556 S
N57 C53 1.376 . S
N57 C56 1.374 . S
N57 Co58 2.008 1_556 S
Co58 N57 2.008 1_554 S
Co58 N59 1.995 . S
Co58 N64 2.008 . S
Co58 N69 1.995 1_554 S
Co58 N74 2.282 . S
Co58 N80 2.282 1_554 S
N59 Co58 1.995 . S
N59 C60 1.376 . S
N59 C63 1.383 . S
C60 N59 1.376 . S
C60 C61 1.446 . S
C60 C90 1.391 . S
C61 C60 1.446 . S
C61 C62 1.339 . S
C61 H96 0.949 . S
C62 C61 1.339 . S
C62 C63 1.439 . S
C62 H97 0.950 . S
C63 N59 1.383 . S
C63 C62 1.439 . S
C63 C92 1.392 . S
N64 Co58 2.008 . S
N64 C65 1.376 . S
N64 C68 1.374 . S
C65 N64 1.376 . S
C65 C66 1.443 . S
C65 C92 1.389 . S
C66 C65 1.443 . S
C66 C67 1.340 . S
C66 H98 0.951 . S
C67 C66 1.340 . S
C67 C68 1.439 . S
C67 H99 0.950 . S
C68 N64 1.374 . S
C68 C67 1.439 . S
C68 C93 1.395 . S
N69 Co58 1.995 1_556 S
N69 C70 1.376 . S
N69 C73 1.383 . S
C70 N69 1.376 . S
C70 C71 1.446 . S
C70 C93 1.391 1_556 S
C71 C70 1.446 . S
C71 C72 1.339 . S
C71 H100 0.949 . S
C72 C71 1.339 . S
C72 C73 1.439 . S
C72 H101 0.950 . S
C73 N69 1.383 . S
C73 C72 1.439 . S
C73 C91 1.392 . S
N74 Co58 2.282 . S
N74 C77 1.332 . S
N74 C79 1.332 . S
C75 C76 1.386 . S
C75 C78 1.388 . S
C76 C75 1.386 . S
C76 C77 1.382 . S
C76 H102 0.950 . S
C77 N74 1.332 . S
C77 C76 1.382 . S
C77 H88 0.952 . S
C78 C75 1.388 . S
C78 C79 1.382 . S
C78 H103 0.950 . S
C79 N74 1.332 . S
C79 C78 1.382 . S
C79 H89 0.948 . S
N80 Co58 2.282 1_556 S
N80 C84 1.332 . S
N80 C85 1.332 . S
C81 C82 1.388 . S
C81 C85 1.382 . S
C81 H104 0.950 . S
C82 C81 1.388 . S
C82 C83 1.386 . S
C83 C82 1.386 . S
C83 C84 1.382 . S
C83 H105 0.950 . S
C84 N80 1.332 . S
C84 C83 1.382 . S
C84 H86 0.952 1_556 S
C85 N80 1.332 . S
C85 C81 1.382 . S
C85 H87 0.948 . S
H86 C84 0.952 1_554 S
H87 C85 0.948 . S
H88 C77 0.952 . S
H89 C79 0.948 . S
C90 C56 1.395 1_554 S
C90 C60 1.391 . S
C91 C53 1.389 . S
C91 C73 1.392 . S
C92 C63 1.392 . S
C92 C65 1.389 . S
C93 C68 1.395 . S
C93 C70 1.391 1_554 S
H94 C54 0.951 . S
H95 C55 0.950 . S
H96 C61 0.949 . S
H97 C62 0.950 . S
H98 C66 0.951 . S
H99 C67 0.950 . S
H100 C71 0.949 . S
H101 C72 0.950 . S
H102 C76 0.950 . S
H103 C78 0.950 . S
H104 C81 0.950 . S
H105 C83 0.950 . S
C106 C107 1.443 . S
C106 N110 1.376 . S
C106 C144 1.389 . S
C107 C106 1.443 . S
C107 C108 1.340 . S
C107 H147 0.951 . S
C108 C107 1.340 . S
C108 C109 1.439 . S
C108 H148 0.950 . S
C109 C108 1.439 . S
C109 N110 1.374 . S
C109 C143 1.395 . S
N110 C106 1.376 . S
N110 C109 1.374 . S
N110 Co111 2.008 . S
Co111 N110 2.008 . S
Co111 N112 1.995 1_554 S
Co111 N117 2.008 1_544 S
Co111 N122 1.995 1_545 S
Co111 N127 2.282 1_544 S
Co111 N133 2.282 . S
N112 Co111 1.995 1_556 S
N112 C113 1.376 . S
N112 C116 1.383 . S
C113 N112 1.376 . S
C113 C114 1.446 . S
C113 C143 1.391 1_556 S
C114 C113 1.446 . S
C114 C115 1.339 . S
C114 H149 0.949 . S
C115 C114 1.339 . S
C115 C116 1.439 . S
C115 H150 0.950 . S
C116 N112 1.383 . S
C116 C115 1.439 . S
C116 C145 1.392 . S
N117 Co111 2.008 1_566 S
N117 C118 1.376 . S
N117 C121 1.374 . S
C118 N117 1.376 . S
C118 C119 1.443 . S
C118 C145 1.389 1_565 S
C119 C118 1.443 . S
C119 C120 1.340 . S
C119 H151 0.951 . S
C120 C119 1.340 . S
C120 C121 1.439 . S
C120 H152 0.950 . S
C121 N117 1.374 . S
C121 C120 1.439 . S
C121 C146 1.395 1_556 S
N122 Co111 1.995 1_565 S
N122 C123 1.376 . S
N122 C126 1.383 . S
C123 N122 1.376 . S
C123 C124 1.446 . S
C123 C146 1.391 . S
C124 C123 1.446 . S
C124 C125 1.339 . S
C124 H153 0.949 . S
C125 C124 1.339 . S
C125 C126 1.439 . S
C125 H154 0.950 . S
C126 N122 1.383 . S
C126 C125 1.439 . S
C126 C144 1.392 1_565 S
N127 Co111 2.282 1_566 S
N127 C130 1.332 . S
N127 C132 1.332 1_565 S
C128 C129 1.386 . S
C128 C131 1.388 . S
C129 C128 1.386 . S
C129 C130 1.382 . S
C129 H155 0.950 . S
C130 N127 1.332 . S
C130 C129 1.382 . S
C130 H141 0.952 1_556 S
C131 C128 1.388 . S
C131 C132 1.382 1_565 S
C131 H156 0.950 1_565 S
C132 N127 1.332 1_545 S
C132 C131 1.382 1_545 S
C132 H142 0.948 . S
N133 Co111 2.282 . S
N133 C137 1.332 . S
N133 C138 1.332 . S
C134 C135 1.388 . S
C134 C138 1.382 . S
C134 H157 0.950 . S
C135 C134 1.388 . S
C135 C136 1.386 . S
C136 C135 1.386 . S
C136 C137 1.382 . S
C136 H158 0.950 . S
C137 N133 1.332 . S
C137 C136 1.382 . S
C137 H139 0.952 . S
C138 N133 1.332 . S
C138 C134 1.382 . S
C138 H140 0.948 . S
H139 C137 0.952 . S
H140 C138 0.948 . S
H141 C130 0.952 1_554 S
H142 C132 0.948 . S
C143 C109 1.395 . S
C143 C113 1.391 1_554 S
C144 C106 1.389 . S
C144 C126 1.392 1_545 S
C145 C116 1.392 . S
C145 C118 1.389 1_545 S
C146 C121 1.395 1_554 S
C146 C123 1.391 . S
H147 C107 0.951 . S
H148 C108 0.950 . S
H149 C114 0.949 . S
H150 C115 0.950 . S
H151 C119 0.951 . S
H152 C120 0.950 . S
H153 C124 0.949 . S
H154 C125 0.950 . S
H155 C129 0.950 . S
H156 C131 0.950 1_545 S
H157 C134 0.950 . S
H158 C136 0.950 . S
C159 C160 1.443 . S
C159 N163 1.376 . S
C159 C197 1.389 1_545 S
C160 C159 1.443 . S
C160 C161 1.340 . S
C160 H200 0.951 . S
C161 C160 1.340 . S
C161 C162 1.439 . S
C161 H201 0.950 . S
C162 C161 1.439 . S
C162 N163 1.374 . S
C162 C196 1.395 . S
N163 C159 1.376 . S
N163 C162 1.374 . S
N163 Co164 2.008 . S
Co164 N163 2.008 . S
Co164 N165 1.995 . S
Co164 N170 2.008 . S
Co164 N175 1.995 1_545 S
Co164 N180 2.282 . S
Co164 N186 2.282 . S
N165 Co164 1.995 . S
N165 C166 1.376 . S
N165 C169 1.383 . S
C166 N165 1.376 . S
C166 C167 1.446 . S
C166 C196 1.391 . S
C167 C166 1.446 . S
C167 C168 1.339 . S
C167 H202 0.949 . S
C168 C167 1.339 . S
C168 C169 1.439 . S
C168 H203 0.950 . S
C169 N165 1.383 . S
C169 C168 1.439 . S
C169 C198 1.392 . S
N170 Co164 2.008 . S
N170 C171 1.376 . S
N170 C174 1.374 1_545 S
C171 N170 1.376 . S
C171 C172 1.443 . S
C171 C198 1.389 . S
C172 C171 1.443 . S
C172 C173 1.340 1_545 S
C172 H204 0.951 . S
C173 C172 1.340 1_565 S
C173 C174 1.439 . S
C173 H205 0.950 . S
C174 N170 1.374 1_565 S
C174 C173 1.439 . S
C174 C199 1.395 . S
N175 Co164 1.995 1_565 S
N175 C176 1.376 . S
N175 C179 1.383 . S
C176 N175 1.376 . S
C176 C177 1.446 . S
C176 C199 1.391 . S
C177 C176 1.446 . S
C177 C178 1.339 . S
C177 H206 0.949 . S
C178 C177 1.339 . S
C178 C179 1.439 . S
C178 H207 0.950 . S
C179 N175 1.383 . S
C179 C178 1.439 . S
C179 C197 1.392 . S
N180 Co164 2.282 . S
N180 C183 1.332 1_545 S
N180 C185 1.332 . S
C181 C182 1.386 1_545 S
C181 C184 1.388 . S
C182 C181 1.386 1_565 S
C182 C183 1.382 . S
C182 H208 0.950 . S
C183 N180 1.332 1_565 S
C183 C182 1.382 . S
C183 H194 0.952 . S
C184 C181 1.388 . S
C184 C185 1.382 . S
C184 H209 0.950 . S
C185 N180 1.332 . S
C185 C184 1.382 . S
C185 H195 0.948 . S
N186 Co164 2.282 . S
N186 C190 1.332 . S
N186 C191 1.332 1_545 S
C187 C188 1.388 1_565 S
C187 C191 1.382 . S
C187 H210 0.950 . S
C188 C187 1.388 1_545 S
C188 C189 1.386 . S
C189 C188 1.386 . S
C189 C190 1.382 . S
C189 H211 0.950 . S
C190 N186 1.332 . S
C190 C189 1.382 . S
C190 H192 0.952 . S
C191 N186 1.332 1_565 S
C191 C187 1.382 . S
C191 H193 0.948 . S
H192 C190 0.952 . S
H193 C191 0.948 . S
H194 C183 0.952 . S
H195 C185 0.948 . S
C196 C162 1.395 . S
C196 C166 1.391 . S
C197 C159 1.389 1_565 S
C197 C179 1.392 . S
C198 C169 1.392 . S
C198 C171 1.389 . S
C199 C174 1.395 . S
C199 C176 1.391 . S
H200 C160 0.951 . S
H201 C161 0.950 . S
H202 C167 0.949 . S
H203 C168 0.950 . S
H204 C172 0.951 . S
H205 C173 0.950 . S
H206 C177 0.949 . S
H207 C178 0.950 . S
H208 C182 0.950 . S
H209 C184 0.950 . S
H210 C187 0.950 . S
H211 C189 0.950 . S
C212 C213 1.443 . S
C212 N216 1.376 . S
C212 C250 1.386 1_455 S
C213 C212 1.443 . S
C213 C214 1.340 . S
C213 H253 0.951 . S
C214 C213 1.340 . S
C214 C215 1.439 . S
C214 H254 0.950 . S
C215 C214 1.439 . S
C215 N216 1.374 . S
C215 C249 1.395 . S
N216 C212 1.376 . S
N216 C215 1.374 . S
N216 Co217 2.008 . S
Co217 N216 2.008 . S
Co217 N218 1.995 . S
Co217 N223 2.008 1_455 S
Co217 N228 1.995 1_455 S
Co217 N233 2.282 1_455 S
Co217 N239 2.282 . S
N218 Co217 1.995 . S
N218 C219 1.376 . S
N218 C222 1.383 . S
C219 N218 1.376 . S
C219 C220 1.446 . S
C219 C249 1.391 . S
C220 C219 1.446 . S
C220 C221 1.339 . S
C220 H255 0.949 . S
C221 C220 1.339 . S
C221 C222 1.439 . S
C221 H256 0.950 . S
C222 N218 1.383 . S
C222 C221 1.439 . S
C222 C251 1.404 . S
N223 Co217 2.008 1_655 S
N223 C224 1.376 . S
N223 C227 1.374 . S
C224 N223 1.376 . S
C224 C225 1.443 . S
C224 C251 1.376 1_655 S
C225 C224 1.443 . S
C225 C226 1.340 . S
C225 H257 0.951 . S
C226 C225 1.340 . S
C226 C227 1.439 . S
C226 H258 0.950 . S
C227 N223 1.374 . S
C227 C226 1.439 . S
C227 C252 1.395 . S
N228 Co217 1.995 1_655 S
N228 C229 1.376 . S
N228 C232 1.383 . S
C229 N228 1.376 . S
C229 C230 1.446 . S
C229 C252 1.391 . S
C230 C229 1.446 . S
C230 C231 1.339 . S
C230 H259 0.949 . S
C231 C230 1.339 . S
C231 C232 1.439 . S
C231 H260 0.950 . S
C232 N228 1.383 . S
C232 C231 1.439 . S
C232 C250 1.394 . S
N233 Co217 2.282 1_655 S
N233 C236 1.332 . S
N233 C238 1.332 . S
C234 C235 1.386 . S
C234 C237 1.388 . S
C235 C234 1.386 . S
C235 C236 1.382 . S
C235 H261 0.950 . S
C236 N233 1.332 . S
C236 C235 1.382 . S
C236 H247 0.952 . S
C237 C234 1.388 . S
C237 C238 1.382 . S
C237 H262 0.950 . S
C238 N233 1.332 . S
C238 C237 1.382 . S
C238 H248 0.948 1_655 S
N239 Co217 2.282 . S
N239 C243 1.332 . S
N239 C244 1.332 . S
C240 C241 1.388 . S
C240 C244 1.382 . S
C240 H263 0.950 . S
C241 C240 1.388 . S
C241 C242 1.386 . S
C242 C241 1.386 . S
C242 C243 1.382 . S
C242 H264 0.950 . S
C243 N239 1.332 . S
C243 C242 1.382 . S
C243 H245 0.952 . S
C244 N239 1.332 . S
C244 C240 1.382 . S
C244 H246 0.948 1_455 S
H245 C243 0.952 . S
H246 C244 0.948 1_655 S
H247 C236 0.952 . S
H248 C238 0.948 1_455 S
C249 C215 1.395 . S
C249 C219 1.391 . S
C250 C212 1.386 1_655 S
C250 C232 1.394 . S
C251 C222 1.404 . S
C251 C224 1.376 1_455 S
C252 C227 1.395 . S
C252 C229 1.391 . S
H253 C213 0.951 . S
H254 C214 0.950 . S
H255 C220 0.949 . S
H256 C221 0.950 . S
H257 C225 0.951 . S
H258 C226 0.950 . S
H259 C230 0.949 . S
H260 C231 0.950 . S
H261 C235 0.950 . S
H262 C237 0.950 . S
H263 C240 0.950 . S
H264 C242 0.950 . S
C265 C266 1.443 . S
C265 N269 1.376 . S
C265 C303 1.389 . S
C266 C265 1.443 . S
C266 C267 1.340 . S
C266 H306 0.951 . S
C267 C266 1.340 . S
C267 C268 1.439 . S
C267 H307 0.950 . S
C268 C267 1.439 . S
C268 N269 1.374 . S
C268 C302 1.395 . S
N269 C265 1.376 . S
N269 C268 1.374 . S
N269 Co270 2.008 . S
Co270 N269 2.008 . S
Co270 N271 1.995 . S
Co270 N276 2.008 . S
Co270 N281 1.995 . S
Co270 N286 2.282 . S
Co270 N292 2.282 . S
N271 Co270 1.995 . S
N271 C272 1.376 . S
N271 C275 1.383 . S
C272 N271 1.376 . S
C272 C273 1.446 . S
C272 C302 1.391 . S
C273 C272 1.446 . S
C273 C274 1.339 . S
C273 H308 0.949 . S
C274 C273 1.339 . S
C274 C275 1.439 . S
C274 H309 0.950 . S
C275 N271 1.383 . S
C275 C274 1.439 . S
C275 C304 1.392 . S
N276 Co270 2.008 . S
N276 C277 1.376 . S
N276 C280 1.374 . S
C277 N276 1.376 . S
C277 C278 1.443 . S
C277 C304 1.389 . S
C278 C277 1.443 . S
C278 C279 1.340 . S
C278 H310 0.951 . S
C279 C278 1.340 . S
C279 C280 1.439 . S
C279 H311 0.950 . S
C280 N276 1.374 . S
C280 C279 1.439 . S
C280 C305 1.395 . S
N281 Co270 1.995 . S
N281 C282 1.376 . S
N281 C285 1.383 . S
C282 N281 1.376 . S
C282 C283 1.446 . S
C282 C305 1.391 . S
C283 C282 1.446 . S
C283 C284 1.339 . S
C283 H312 0.949 . S
C284 C283 1.339 . S
C284 C285 1.439 . S
C284 H313 0.950 . S
C285 N281 1.383 . S
C285 C284 1.439 . S
C285 C303 1.392 . S
N286 Co270 2.282 . S
N286 C289 1.332 . S
N286 C291 1.332 . S
C287 C288 1.386 . S
C287 C290 1.388 . S
C288 C287 1.386 . S
C288 C289 1.382 . S
C288 H314 0.950 . S
C289 N286 1.332 . S
C289 C288 1.382 . S
C289 H300 0.952 . S
C290 C287 1.388 . S
C290 C291 1.382 . S
C290 H315 0.950 . S
C291 N286 1.332 . S
C291 C290 1.382 . S
C291 H301 0.948 . S
N292 Co270 2.282 . S
N292 C296 1.332 . S
N292 C297 1.332 . S
C293 C294 1.388 . S
C293 C297 1.382 . S
C293 H316 0.950 . S
C294 C293 1.388 . S
C294 C295 1.386 . S
C295 C294 1.386 . S
C295 C296 1.382 . S
C295 H317 0.950 . S
C296 N292 1.332 . S
C296 C295 1.382 . S
C296 H298 0.952 . S
C297 N292 1.332 . S
C297 C293 1.382 . S
C297 H299 0.948 . S
H298 C296 0.952 . S
H299 C297 0.948 . S
H300 C289 0.952 . S
H301 C291 0.948 . S
C302 C268 1.395 . S
C302 C272 1.391 . S
C303 C265 1.389 . S
C303 C285 1.392 . S
C304 C275 1.392 . S
C304 C277 1.389 . S
C305 C280 1.395 . S
C305 C282 1.391 . S
H306 C266 0.951 . S
H307 C267 0.950 . S
H308 C273 0.949 . S
H309 C274 0.950 . S
H310 C278 0.951 . S
H311 C279 0.950 . S
H312 C283 0.949 . S
H313 C284 0.950 . S
H314 C288 0.950 . S
H315 C290 0.950 . S
H316 C293 0.950 . S
H317 C295 0.950 . S
C318 C319 1.443 . S
C318 N322 1.376 . S
C318 C356 1.389 . S
C319 C318 1.443 . S
C319 C320 1.340 . S
C319 H359 0.951 . S
C320 C319 1.340 . S
C320 C321 1.439 . S
C320 H360 0.950 . S
C321 C320 1.439 . S
C321 N322 1.374 . S
C321 C355 1.395 . S
N322 C318 1.376 . S
N322 C321 1.374 . S
N322 Co323 2.008 . S
Co323 N322 2.008 . S
Co323 N324 1.995 . S
Co323 N329 2.008 . S
Co323 N334 1.995 . S
Co323 N339 2.282 . S
Co323 N345 2.282 . S
N324 Co323 1.995 . S
N324 C325 1.376 . S
N324 C328 1.383 . S
C325 N324 1.376 . S
C325 C326 1.446 . S
C325 C355 1.391 . S
C326 C325 1.446 . S
C326 C327 1.339 . S
C326 H361 0.949 . S
C327 C326 1.339 . S
C327 C328 1.439 . S
C327 H362 0.950 . S
C328 N324 1.383 . S
C328 C327 1.439 . S
C328 C357 1.392 . S
N329 Co323 2.008 . S
N329 C330 1.376 . S
N329 C333 1.374 . S
C330 N329 1.376 . S
C330 C331 1.443 . S
C330 C357 1.389 . S
C331 C330 1.443 . S
C331 C332 1.340 . S
C331 H363 0.951 . S
C332 C331 1.340 . S
C332 C333 1.439 . S
C332 H364 0.950 . S
C333 N329 1.374 . S
C333 C332 1.439 . S
C333 C358 1.395 . S
N334 Co323 1.995 . S
N334 C335 1.376 . S
N334 C338 1.383 . S
C335 N334 1.376 . S
C335 C336 1.446 . S
C335 C358 1.391 . S
C336 C335 1.446 . S
C336 C337 1.339 . S
C336 H365 0.949 . S
C337 C336 1.339 . S
C337 C338 1.439 . S
C337 H366 0.950 . S
C338 N334 1.383 . S
C338 C337 1.439 . S
C338 C356 1.392 . S
N339 Co323 2.282 . S
N339 C342 1.332 . S
N339 C344 1.332 . S
C340 C341 1.386 . S
C340 C343 1.388 . S
C341 C340 1.386 . S
C341 C342 1.382 . S
C341 H367 0.950 . S
C342 N339 1.332 . S
C342 C341 1.382 . S
C342 H353 0.952 . S
C343 C340 1.388 . S
C343 C344 1.382 . S
C343 H368 0.950 . S
C344 N339 1.332 . S
C344 C343 1.382 . S
C344 H354 0.948 . S
N345 Co323 2.282 . S
N345 C349 1.332 . S
N345 C350 1.332 . S
C346 C347 1.388 . S
C346 C350 1.382 . S
C346 H369 0.950 . S
C347 C346 1.388 . S
C347 C348 1.386 . S
C348 C347 1.386 . S
C348 C349 1.382 . S
C348 H370 0.950 . S
C349 N345 1.332 . S
C349 C348 1.382 . S
C349 H351 0.952 . S
C350 N345 1.332 . S
C350 C346 1.382 . S
C350 H352 0.948 . S
H351 C349 0.952 . S
H352 C350 0.948 . S
H353 C342 0.952 . S
H354 C344 0.948 . S
C355 C321 1.395 . S
C355 C325 1.391 . S
C356 C318 1.389 . S
C356 C338 1.392 . S
C357 C328 1.392 . S
C357 C330 1.389 . S
C358 C333 1.395 . S
C358 C335 1.391 . S
H359 C319 0.951 . S
H360 C320 0.950 . S
H361 C326 0.949 . S
H362 C327 0.950 . S
H363 C331 0.951 . S
H364 C332 0.950 . S
H365 C336 0.949 . S
H366 C337 0.950 . S
H367 C341 0.950 . S
H368 C343 0.950 . S
H369 C346 0.950 . S
H370 C348 0.950 . S
C371 C372 1.443 . S
C371 N375 1.376 . S
C371 C409 1.389 . S
C372 C371 1.443 . S
C372 C373 1.340 . S
C372 H412 0.951 . S
C373 C372 1.340 . S
C373 C374 1.439 . S
C373 H413 0.950 . S
C374 C373 1.439 . S
C374 N375 1.374 . S
C374 C408 1.395 . S
N375 C371 1.376 . S
N375 C374 1.374 . S
N375 Co376 2.008 . S
Co376 N375 2.008 . S
Co376 N377 1.995 . S
Co376 N382 2.008 . S
Co376 N387 1.995 . S
Co376 N392 2.282 . S
Co376 N398 2.282 . S
N377 Co376 1.995 . S
N377 C378 1.376 . S
N377 C381 1.383 . S
C378 N377 1.376 . S
C378 C379 1.446 . S
C378 C408 1.391 . S
C379 C378 1.446 . S
C379 C380 1.339 . S
C379 H414 0.949 . S
C380 C379 1.339 . S
C380 C381 1.439 . S
C380 H415 0.950 . S
C381 N377 1.383 . S
C381 C380 1.439 . S
C381 C410 1.392 . S
N382 Co376 2.008 . S
N382 C383 1.376 . S
N382 C386 1.374 . S
C383 N382 1.376 . S
C383 C384 1.443 . S
C383 C410 1.389 . S
C384 C383 1.443 . S
C384 C385 1.340 . S
C384 H416 0.951 . S
C385 C384 1.340 . S
C385 C386 1.439 . S
C385 H417 0.950 . S
C386 N382 1.374 . S
C386 C385 1.439 . S
C386 C411 1.395 . S
N387 Co376 1.995 . S
N387 C388 1.376 . S
N387 C391 1.383 . S
C388 N387 1.376 . S
C388 C389 1.446 . S
C388 C411 1.391 . S
C389 C388 1.446 . S
C389 C390 1.339 . S
C389 H418 0.949 . S
C390 C389 1.339 . S
C390 C391 1.439 . S
C390 H419 0.950 . S
C391 N387 1.383 . S
C391 C390 1.439 . S
C391 C409 1.392 . S
N392 Co376 2.282 . S
N392 C395 1.332 . S
N392 C397 1.332 . S
C393 C394 1.386 . S
C393 C396 1.388 . S
C394 C393 1.386 . S
C394 C395 1.382 . S
C394 H420 0.950 . S
C395 N392 1.332 . S
C395 C394 1.382 . S
C395 H406 0.952 . S
C396 C393 1.388 . S
C396 C397 1.382 . S
C396 H421 0.950 . S
C397 N392 1.332 . S
C397 C396 1.382 . S
C397 H407 0.948 . S
N398 Co376 2.282 . S
N398 C402 1.332 . S
N398 C403 1.332 . S
C399 C400 1.388 . S
C399 C403 1.382 . S
C399 H422 0.950 . S
C400 C399 1.388 . S
C400 C401 1.386 . S
C401 C400 1.386 . S
C401 C402 1.382 . S
C401 H423 0.950 . S
C402 N398 1.332 . S
C402 C401 1.382 . S
C402 H404 0.952 . S
C403 N398 1.332 . S
C403 C399 1.382 . S
C403 H405 0.948 . S
H404 C402 0.952 . S
H405 C403 0.948 . S
H406 C395 0.952 . S
H407 C397 0.948 . S
C408 C374 1.395 . S
C408 C378 1.391 . S
C409 C371 1.389 . S
C409 C391 1.392 . S
C410 C381 1.392 . S
C410 C383 1.389 . S
C411 C386 1.395 . S
C411 C388 1.391 . S
H412 C372 0.951 . S
H413 C373 0.950 . S
H414 C379 0.949 . S
H415 C380 0.950 . S
H416 C384 0.951 . S
H417 C385 0.950 . S
H418 C389 0.949 . S
H419 C390 0.950 . S
H420 C394 0.950 . S
H421 C396 0.950 . S
H422 C399 0.950 . S
H423 C401 0.950 . S
C424 C425 1.443 . S
C424 N428 1.376 . S
C424 C462 1.389 . S
C425 C424 1.443 . S
C425 C426 1.340 . S
C425 H465 0.951 . S
C426 C425 1.340 . S
C426 C427 1.439 . S
C426 H466 0.950 . S
C427 C426 1.439 . S
C427 N428 1.374 . S
C427 C461 1.395 . S
N428 C424 1.376 . S
N428 C427 1.374 . S
N428 Co429 2.008 . S
Co429 N428 2.008 . S
Co429 N430 1.995 . S
Co429 N435 2.008 . S
Co429 N440 1.995 . S
Co429 N445 2.282 . S
Co429 N451 2.282 . S
N430 Co429 1.995 . S
N430 C431 1.376 . S
N430 C434 1.383 . S
C431 N430 1.376 . S
C431 C432 1.446 . S
C431 C461 1.391 . S
C432 C431 1.446 . S
C432 C433 1.339 . S
C432 H467 0.949 . S
C433 C432 1.339 . S
C433 C434 1.439 . S
C433 H468 0.950 . S
C434 N430 1.383 . S
C434 C433 1.439 . S
C434 C463 1.392 . S
N435 Co429 2.008 . S
N435 C436 1.376 . S
N435 C439 1.374 . S
C436 N435 1.376 . S
C436 C437 1.443 . S
C436 C463 1.389 . S
C437 C436 1.443 . S
C437 C438 1.340 . S
C437 H469 0.951 . S
C438 C437 1.340 . S
C438 C439 1.439 . S
C438 H470 0.950 . S
C439 N435 1.374 . S
C439 C438 1.439 . S
C439 C464 1.395 . S
N440 Co429 1.995 . S
N440 C441 1.376 . S
N440 C444 1.383 . S
C441 N440 1.376 . S
C441 C442 1.446 . S
C441 C464 1.391 . S
C442 C441 1.446 . S
C442 C443 1.339 . S
C442 H471 0.949 . S
C443 C442 1.339 . S
C443 C444 1.439 . S
C443 H472 0.950 . S
C444 N440 1.383 . S
C444 C443 1.439 . S
C444 C462 1.392 . S
N445 Co429 2.282 . S
N445 C448 1.332 . S
N445 C450 1.332 . S
C446 C447 1.386 . S
C446 C449 1.388 . S
C447 C446 1.386 . S
C447 C448 1.382 . S
C447 H473 0.950 . S
C448 N445 1.332 . S
C448 C447 1.382 . S
C448 H459 0.952 . S
C449 C446 1.388 . S
C449 C450 1.382 . S
C449 H474 0.950 . S
C450 N445 1.332 . S
C450 C449 1.382 . S
C450 H460 0.948 . S
N451 Co429 2.282 . S
N451 C455 1.332 . S
N451 C456 1.332 . S
C452 C453 1.388 . S
C452 C456 1.382 . S
C452 H475 0.950 . S
C453 C452 1.388 . S
C453 C454 1.386 . S
C454 C453 1.386 . S
C454 C455 1.382 . S
C454 H476 0.950 . S
C455 N451 1.332 . S
C455 C454 1.382 . S
C455 H457 0.952 . S
C456 N451 1.332 . S
C456 C452 1.382 . S
C456 H458 0.948 . S
H457 C455 0.952 . S
H458 C456 0.948 . S
H459 C448 0.952 . S
H460 C450 0.948 . S
C461 C427 1.395 . S
C461 C431 1.391 . S
C462 C424 1.389 . S
C462 C444 1.392 . S
C463 C434 1.392 . S
C463 C436 1.389 . S
C464 C439 1.395 . S
C464 C441 1.391 . S
H465 C425 0.951 . S
H466 C426 0.950 . S
H467 C432 0.949 . S
H468 C433 0.950 . S
H469 C437 0.951 . S
H470 C438 0.950 . S
H471 C442 0.949 . S
H472 C443 0.950 . S
H473 C447 0.950 . S
H474 C449 0.950 . S
H475 C452 0.950 . S
H476 C454 0.950 . S
C477 C478 1.443 . S
C477 N481 1.376 . S
C477 C515 1.389 . S
C478 C477 1.443 . S
C478 C479 1.340 . S
C478 H518 0.951 . S
C479 C478 1.340 . S
C479 C480 1.439 . S
C479 H519 0.950 . S
C480 C479 1.439 . S
C480 N481 1.374 . S
C480 C514 1.395 . S
N481 C477 1.376 . S
N481 C480 1.374 . S
N481 Co482 2.008 . S
Co482 N481 2.008 . S
Co482 N483 1.995 . S
Co482 N488 2.008 . S
Co482 N493 1.995 . S
Co482 N498 2.282 . S
Co482 N504 2.282 . S
N483 Co482 1.995 . S
N483 C484 1.376 . S
N483 C487 1.383 . S
C484 N483 1.376 . S
C484 C485 1.446 . S
C484 C514 1.391 . S
C485 C484 1.446 . S
C485 C486 1.339 . S
C485 H520 0.949 . S
C486 C485 1.339 . S
C486 C487 1.439 . S
C486 H521 0.950 . S
C487 N483 1.383 . S
C487 C486 1.439 . S
C487 C516 1.392 . S
N488 Co482 2.008 . S
N488 C489 1.376 . S
N488 C492 1.374 . S
C489 N488 1.376 . S
C489 C490 1.443 . S
C489 C516 1.389 . S
C490 C489 1.443 . S
C490 C491 1.340 . S
C490 H522 0.951 . S
C491 C490 1.340 . S
C491 C492 1.439 . S
C491 H523 0.950 . S
C492 N488 1.374 . S
C492 C491 1.439 . S
C492 C517 1.395 . S
N493 Co482 1.995 . S
N493 C494 1.376 . S
N493 C497 1.383 . S
C494 N493 1.376 . S
C494 C495 1.446 . S
C494 C517 1.391 . S
C495 C494 1.446 . S
C495 C496 1.339 . S
C495 H524 0.949 . S
C496 C495 1.339 . S
C496 C497 1.439 . S
C496 H525 0.950 . S
C497 N493 1.383 . S
C497 C496 1.439 . S
C497 C515 1.392 . S
N498 Co482 2.282 . S
N498 C501 1.332 . S
N498 C503 1.332 . S
C499 C500 1.386 . S
C499 C502 1.388 . S
C500 C499 1.386 . S
C500 C501 1.382 . S
C500 H526 0.950 . S
C501 N498 1.332 . S
C501 C500 1.382 . S
C501 H512 0.952 . S
C502 C499 1.388 . S
C502 C503 1.382 . S
C502 H527 0.950 . S
C503 N498 1.332 . S
C503 C502 1.382 . S
C503 H513 0.948 . S
N504 Co482 2.282 . S
N504 C508 1.332 . S
N504 C509 1.332 . S
C505 C506 1.388 . S
C505 C509 1.382 . S
C505 H528 0.950 . S
C506 C505 1.388 . S
C506 C507 1.386 . S
C507 C506 1.386 . S
C507 C508 1.382 . S
C507 H529 0.950 . S
C508 N504 1.332 . S
C508 C507 1.382 . S
C508 H510 0.952 . S
C509 N504 1.332 . S
C509 C505 1.382 . S
C509 H511 0.948 . S
H510 C508 0.952 . S
H511 C509 0.948 . S
H512 C501 0.952 . S
H513 C503 0.948 . S
C514 C480 1.395 . S
C514 C484 1.391 . S
C515 C477 1.389 . S
C515 C497 1.392 . S
C516 C487 1.392 . S
C516 C489 1.389 . S
C517 C492 1.395 . S
C517 C494 1.391 . S
H518 C478 0.951 . S
H519 C479 0.950 . S
H520 C485 0.949 . S
H521 C486 0.950 . S
H522 C490 0.951 . S
H523 C491 0.950 . S
H524 C495 0.949 . S
H525 C496 0.950 . S
H526 C500 0.950 . S
H527 C502 0.950 . S
H528 C505 0.950 . S
H529 C507 0.950 . S
C530 C531 1.443 . S
C530 N534 1.376 . S
C530 C568 1.389 . S
C531 C530 1.443 . S
C531 C532 1.340 . S
C531 H571 0.951 . S
C532 C531 1.340 . S
C532 C533 1.439 . S
C532 H572 0.950 . S
C533 C532 1.439 . S
C533 N534 1.374 . S
C533 C567 1.395 . S
N534 C530 1.376 . S
N534 C533 1.374 . S
N534 Co535 2.008 . S
Co535 N534 2.008 . S
Co535 N536 1.995 . S
Co535 N541 2.008 . S
Co535 N546 1.995 . S
Co535 N551 2.282 . S
Co535 N557 2.282 . S
N536 Co535 1.995 . S
N536 C537 1.376 . S
N536 C540 1.383 . S
C537 N536 1.376 . S
C537 C538 1.446 . S
C537 C567 1.391 . S
C538 C537 1.446 . S
C538 C539 1.339 . S
C538 H573 0.949 . S
C539 C538 1.339 . S
C539 C540 1.439 . S
C539 H574 0.950 . S
C540 N536 1.383 . S
C540 C539 1.439 . S
C540 C569 1.392 . S
N541 Co535 2.008 . S
N541 C542 1.376 . S
N541 C545 1.374 . S
C542 N541 1.376 . S
C542 C543 1.443 . S
C542 C569 1.389 . S
C543 C542 1.443 . S
C543 C544 1.340 . S
C543 H575 0.951 . S
C544 C543 1.340 . S
C544 C545 1.439 . S
C544 H576 0.950 . S
C545 N541 1.374 . S
C545 C544 1.439 . S
C545 C570 1.395 . S
N546 Co535 1.995 . S
N546 C547 1.376 . S
N546 C550 1.383 . S
C547 N546 1.376 . S
C547 C548 1.446 . S
C547 C570 1.391 . S
C548 C547 1.446 . S
C548 C549 1.339 . S
C548 H577 0.949 . S
C549 C548 1.339 . S
C549 C550 1.439 . S
C549 H578 0.950 . S
C550 N546 1.383 . S
C550 C549 1.439 . S
C550 C568 1.392 . S
N551 Co535 2.282 . S
N551 C554 1.332 . S
N551 C556 1.332 . S
C552 C553 1.386 . S
C552 C555 1.388 . S
C553 C552 1.386 . S
C553 C554 1.382 . S
C553 H579 0.950 . S
C554 N551 1.332 . S
C554 C553 1.382 . S
C554 H565 0.952 . S
C555 C552 1.388 . S
C555 C556 1.382 . S
C555 H580 0.950 . S
C556 N551 1.332 . S
C556 C555 1.382 . S
C556 H566 0.948 . S
N557 Co535 2.282 . S
N557 C561 1.332 . S
N557 C562 1.332 . S
C558 C559 1.388 . S
C558 C562 1.382 . S
C558 H581 0.950 . S
C559 C558 1.388 . S
C559 C560 1.386 . S
C560 C559 1.386 . S
C560 C561 1.382 . S
C560 H582 0.950 . S
C561 N557 1.332 . S
C561 C560 1.382 . S
C561 H563 0.952 . S
C562 N557 1.332 . S
C562 C558 1.382 . S
C562 H564 0.948 . S
H563 C561 0.952 . S
H564 C562 0.948 . S
H565 C554 0.952 . S
H566 C556 0.948 . S
C567 C533 1.395 . S
C567 C537 1.391 . S
C568 C530 1.389 . S
C568 C550 1.392 . S
C569 C540 1.392 . S
C569 C542 1.389 . S
C570 C545 1.395 . S
C570 C547 1.391 . S
H571 C531 0.951 . S
H572 C532 0.950 . S
H573 C538 0.949 . S
H574 C539 0.950 . S
H575 C543 0.951 . S
H576 C544 0.950 . S
H577 C548 0.949 . S
H578 C549 0.950 . S
H579 C553 0.950 . S
H580 C555 0.950 . S
H581 C558 0.950 . S
H582 C560 0.950 . S
C583 C584 1.443 . S
C583 N587 1.376 . S
C583 C621 1.389 . S
C584 C583 1.443 . S
C584 C585 1.340 . S
C584 H624 0.951 . S
C585 C584 1.340 . S
C585 C586 1.439 . S
C585 H625 0.950 . S
C586 C585 1.439 . S
C586 N587 1.374 . S
C586 C620 1.395 . S
N587 C583 1.376 . S
N587 C586 1.374 . S
N587 Co588 2.008 . S
Co588 N587 2.008 . S
Co588 N589 1.995 . S
Co588 N594 2.008 . S
Co588 N599 1.995 . S
Co588 N604 2.282 . S
Co588 N610 2.282 . S
N589 Co588 1.995 . S
N589 C590 1.376 . S
N589 C593 1.383 . S
C590 N589 1.376 . S
C590 C591 1.446 . S
C590 C620 1.391 . S
C591 C590 1.446 . S
C591 C592 1.339 . S
C591 H626 0.949 . S
C592 C591 1.339 . S
C592 C593 1.439 . S
C592 H627 0.950 . S
C593 N589 1.383 . S
C593 C592 1.439 . S
C593 C622 1.392 . S
N594 Co588 2.008 . S
N594 C595 1.376 . S
N594 C598 1.374 . S
C595 N594 1.376 . S
C595 C596 1.443 . S
C595 C622 1.389 . S
C596 C595 1.443 . S
C596 C597 1.340 . S
C596 H628 0.951 . S
C597 C596 1.340 . S
C597 C598 1.439 . S
C597 H629 0.950 . S
C598 N594 1.374 . S
C598 C597 1.439 . S
C598 C623 1.395 . S
N599 Co588 1.995 . S
N599 C600 1.376 . S
N599 C603 1.383 . S
C600 N599 1.376 . S
C600 C601 1.446 . S
C600 C623 1.391 . S
C601 C600 1.446 . S
C601 C602 1.339 . S
C601 H630 0.949 . S
C602 C601 1.339 . S
C602 C603 1.439 . S
C602 H631 0.950 . S
C603 N599 1.383 . S
C603 C602 1.439 . S
C603 C621 1.392 . S
N604 Co588 2.282 . S
N604 C607 1.332 . S
N604 C609 1.332 . S
C605 C606 1.386 . S
C605 C608 1.388 . S
C606 C605 1.386 . S
C606 C607 1.382 . S
C606 H632 0.950 . S
C607 N604 1.332 . S
C607 C606 1.382 . S
C607 H618 0.952 . S
C608 C605 1.388 . S
C608 C609 1.382 . S
C608 H633 0.950 . S
C609 N604 1.332 . S
C609 C608 1.382 . S
C609 H619 0.948 . S
N610 Co588 2.282 . S
N610 C614 1.332 . S
N610 C615 1.332 . S
C611 C612 1.388 . S
C611 C615 1.382 . S
C611 H634 0.950 . S
C612 C611 1.388 . S
C612 C613 1.386 . S
C613 C612 1.386 . S
C613 C614 1.382 . S
C613 H635 0.950 . S
C614 N610 1.332 . S
C614 C613 1.382 . S
C614 H616 0.952 . S
C615 N610 1.332 . S
C615 C611 1.382 . S
C615 H617 0.948 . S
H616 C614 0.952 . S
H617 C615 0.948 . S
H618 C607 0.952 . S
H619 C609 0.948 . S
C620 C586 1.395 . S
C620 C590 1.391 . S
C621 C583 1.389 . S
C621 C603 1.392 . S
C622 C593 1.392 . S
C622 C595 1.389 . S
C623 C598 1.395 . S
C623 C600 1.391 . S
H624 C584 0.951 . S
H625 C585 0.950 . S
H626 C591 0.949 . S
H627 C592 0.950 . S
H628 C596 0.951 . S
H629 C597 0.950 . S
H630 C601 0.949 . S
H631 C602 0.950 . S
H632 C606 0.950 . S
H633 C608 0.950 . S
H634 C611 0.950 . S
H635 C613 0.950 . S
C636 C637 1.443 . S
C636 N640 1.376 . S
C636 C674 1.389 . S
C637 C636 1.443 . S
C637 C638 1.340 . S
C637 H677 0.951 . S
C638 C637 1.340 . S
C638 C639 1.439 . S
C638 H678 0.950 . S
C639 C638 1.439 . S
C639 N640 1.374 . S
C639 C673 1.395 . S
N640 C636 1.376 . S
N640 C639 1.374 . S
N640 Co641 2.008 . S
Co641 N640 2.008 . S
Co641 N642 1.995 . S
Co641 N647 2.008 . S
Co641 N652 1.995 . S
Co641 N657 2.282 . S
Co641 N663 2.282 . S
N642 Co641 1.995 . S
N642 C643 1.376 . S
N642 C646 1.383 . S
C643 N642 1.376 . S
C643 C644 1.446 . S
C643 C673 1.391 . S
C644 C643 1.446 . S
C644 C645 1.339 . S
C644 H679 0.949 . S
C645 C644 1.339 . S
C645 C646 1.439 . S
C645 H680 0.950 . S
C646 N642 1.383 . S
C646 C645 1.439 . S
C646 C675 1.392 . S
N647 Co641 2.008 . S
N647 C648 1.376 . S
N647 C651 1.374 . S
C648 N647 1.376 . S
C648 C649 1.443 . S
C648 C675 1.389 . S
C649 C648 1.443 . S
C649 C650 1.340 . S
C649 H681 0.951 . S
C650 C649 1.340 . S
C650 C651 1.439 . S
C650 H682 0.950 . S
C651 N647 1.374 . S
C651 C650 1.439 . S
C651 C676 1.395 . S
N652 Co641 1.995 . S
N652 C653 1.376 . S
N652 C656 1.383 . S
C653 N652 1.376 . S
C653 C654 1.446 . S
C653 C676 1.391 . S
C654 C653 1.446 . S
C654 C655 1.339 . S
C654 H683 0.949 . S
C655 C654 1.339 . S
C655 C656 1.439 . S
C655 H684 0.950 . S
C656 N652 1.383 . S
C656 C655 1.439 . S
C656 C674 1.392 . S
N657 Co641 2.282 . S
N657 C660 1.332 . S
N657 C662 1.332 . S
C658 C659 1.386 . S
C658 C661 1.388 . S
C659 C658 1.386 . S
C659 C660 1.382 . S
C659 H685 0.950 . S
C660 N657 1.332 . S
C660 C659 1.382 . S
C660 H671 0.952 . S
C661 C658 1.388 . S
C661 C662 1.382 . S
C661 H686 0.950 . S
C662 N657 1.332 . S
C662 C661 1.382 . S
C662 H672 0.948 . S
N663 Co641 2.282 . S
N663 C667 1.332 . S
N663 C668 1.332 . S
C664 C665 1.388 . S
C664 C668 1.382 . S
C664 H687 0.950 . S
C665 C664 1.388 . S
C665 C666 1.386 . S
C666 C665 1.386 . S
C666 C667 1.382 . S
C666 H688 0.950 . S
C667 N663 1.332 . S
C667 C666 1.382 . S
C667 H669 0.952 . S
C668 N663 1.332 . S
C668 C664 1.382 . S
C668 H670 0.948 . S
H669 C667 0.952 . S
H670 C668 0.948 . S
H671 C660 0.952 . S
H672 C662 0.948 . S
C673 C639 1.395 . S
C673 C643 1.391 . S
C674 C636 1.389 . S
C674 C656 1.392 . S
C675 C646 1.392 . S
C675 C648 1.389 . S
C676 C651 1.395 . S
C676 C653 1.391 . S
H677 C637 0.951 . S
H678 C638 0.950 . S
H679 C644 0.949 . S
H680 C645 0.950 . S
H681 C649 0.951 . S
H682 C650 0.950 . S
H683 C654 0.949 . S
H684 C655 0.950 . S
H685 C659 0.950 . S
H686 C661 0.950 . S
H687 C664 0.950 . S
H688 C666 0.950 . S
C689 C690 1.443 . S
C689 N693 1.376 . S
C689 C727 1.389 . S
C690 C689 1.443 . S
C690 C691 1.340 . S
C690 H730 0.951 . S
C691 C690 1.340 . S
C691 C692 1.439 . S
C691 H731 0.950 . S
C692 C691 1.439 . S
C692 N693 1.374 . S
C692 C726 1.395 . S
N693 C689 1.376 . S
N693 C692 1.374 . S
N693 Co694 2.008 . S
Co694 N693 2.008 . S
Co694 N695 1.995 . S
Co694 N700 2.008 . S
Co694 N705 1.995 . S
Co694 N710 2.282 . S
Co694 N716 2.282 . S
N695 Co694 1.995 . S
N695 C696 1.376 . S
N695 C699 1.383 . S
C696 N695 1.376 . S
C696 C697 1.446 . S
C696 C726 1.391 . S
C697 C696 1.446 . S
C697 C698 1.339 . S
C697 H732 0.949 . S
C698 C697 1.339 . S
C698 C699 1.439 . S
C698 H733 0.950 . S
C699 N695 1.383 . S
C699 C698 1.439 . S
C699 C728 1.392 . S
N700 Co694 2.008 . S
N700 C701 1.376 . S
N700 C704 1.374 . S
C701 N700 1.376 . S
C701 C702 1.443 . S
C701 C728 1.389 . S
C702 C701 1.443 . S
C702 C703 1.340 . S
C702 H734 0.951 . S
C703 C702 1.340 . S
C703 C704 1.439 . S
C703 H735 0.950 . S
C704 N700 1.374 . S
C704 C703 1.439 . S
C704 C729 1.395 . S
N705 Co694 1.995 . S
N705 C706 1.376 . S
N705 C709 1.383 . S
C706 N705 1.376 . S
C706 C707 1.446 . S
C706 C729 1.391 . S
C707 C706 1.446 . S
C707 C708 1.339 . S
C707 H736 0.949 . S
C708 C707 1.339 . S
C708 C709 1.439 . S
C708 H737 0.950 . S
C709 N705 1.383 . S
C709 C708 1.439 . S
C709 C727 1.392 . S
N710 Co694 2.282 . S
N710 C713 1.332 . S
N710 C715 1.332 . S
C711 C712 1.386 . S
C711 C714 1.388 . S
C712 C711 1.386 . S
C712 C713 1.382 . S
C712 H738 0.950 . S
C713 N710 1.332 . S
C713 C712 1.382 . S
C713 H724 0.952 . S
C714 C711 1.388 . S
C714 C715 1.382 . S
C714 H739 0.950 . S
C715 N710 1.332 . S
C715 C714 1.382 . S
C715 H725 0.948 . S
N716 Co694 2.282 . S
N716 C720 1.332 . S
N716 C721 1.332 . S
C717 C718 1.388 . S
C717 C721 1.382 . S
C717 H740 0.950 . S
C718 C717 1.388 . S
C718 C719 1.386 . S
C719 C718 1.386 . S
C719 C720 1.382 . S
C719 H741 0.950 . S
C720 N716 1.332 . S
C720 C719 1.382 . S
C720 H722 0.952 . S
C721 N716 1.332 . S
C721 C717 1.382 . S
C721 H723 0.948 . S
H722 C720 0.952 . S
H723 C721 0.948 . S
H724 C713 0.952 . S
H725 C715 0.948 . S
C726 C692 1.395 . S
C726 C696 1.391 . S
C727 C689 1.389 . S
C727 C709 1.392 . S
C728 C699 1.392 . S
C728 C701 1.389 . S
C729 C704 1.395 . S
C729 C706 1.391 . S
H730 C690 0.951 . S
H731 C691 0.950 . S
H732 C697 0.949 . S
H733 C698 0.950 . S
H734 C702 0.951 . S
H735 C703 0.950 . S
H736 C707 0.949 . S
H737 C708 0.950 . S
H738 C712 0.950 . S
H739 C714 0.950 . S
H740 C717 0.950 . S
H741 C719 0.950 . S
C742 C743 1.443 . S
C742 N746 1.376 . S
C742 C780 1.389 . S
C743 C742 1.443 . S
C743 C744 1.340 . S
C743 H783 0.951 . S
C744 C743 1.340 . S
C744 C745 1.439 . S
C744 H784 0.950 . S
C745 C744 1.439 . S
C745 N746 1.374 . S
C745 C779 1.395 . S
N746 C742 1.376 . S
N746 C745 1.374 . S
N746 Co747 2.008 . S
Co747 N746 2.008 . S
Co747 N748 1.995 . S
Co747 N753 2.008 . S
Co747 N758 1.995 . S
Co747 N763 2.282 . S
Co747 N769 2.282 . S
N748 Co747 1.995 . S
N748 C749 1.376 . S
N748 C752 1.383 . S
C749 N748 1.376 . S
C749 C750 1.446 . S
C749 C779 1.391 . S
C750 C749 1.446 . S
C750 C751 1.339 . S
C750 H785 0.949 . S
C751 C750 1.339 . S
C751 C752 1.439 . S
C751 H786 0.950 . S
C752 N748 1.383 . S
C752 C751 1.439 . S
C752 C781 1.392 . S
N753 Co747 2.008 . S
N753 C754 1.376 . S
N753 C757 1.374 . S
C754 N753 1.376 . S
C754 C755 1.443 . S
C754 C781 1.389 . S
C755 C754 1.443 . S
C755 C756 1.340 . S
C755 H787 0.951 . S
C756 C755 1.340 . S
C756 C757 1.439 . S
C756 H788 0.950 . S
C757 N753 1.374 . S
C757 C756 1.439 . S
C757 C782 1.395 . S
N758 Co747 1.995 . S
N758 C759 1.376 . S
N758 C762 1.383 . S
C759 N758 1.376 . S
C759 C760 1.446 . S
C759 C782 1.391 . S
C760 C759 1.446 . S
C760 C761 1.339 . S
C760 H789 0.949 . S
C761 C760 1.339 . S
C761 C762 1.439 . S
C761 H790 0.950 . S
C762 N758 1.383 . S
C762 C761 1.439 . S
C762 C780 1.392 . S
N763 Co747 2.282 . S
N763 C766 1.332 . S
N763 C768 1.332 . S
C764 C765 1.386 . S
C764 C767 1.388 . S
C765 C764 1.386 . S
C765 C766 1.382 . S
C765 H791 0.950 . S
C766 N763 1.332 . S
C766 C765 1.382 . S
C766 H777 0.952 . S
C767 C764 1.388 . S
C767 C768 1.382 . S
C767 H792 0.950 . S
C768 N763 1.332 . S
C768 C767 1.382 . S
C768 H778 0.948 . S
N769 Co747 2.282 . S
N769 C773 1.332 . S
N769 C774 1.332 . S
C770 C771 1.388 . S
C770 C774 1.382 . S
C770 H793 0.950 . S
C771 C770 1.388 . S
C771 C772 1.386 . S
C772 C771 1.386 . S
C772 C773 1.382 . S
C772 H794 0.950 . S
C773 N769 1.332 . S
C773 C772 1.382 . S
C773 H775 0.952 . S
C774 N769 1.332 . S
C774 C770 1.382 . S
C774 H776 0.948 . S
H775 C773 0.952 . S
H776 C774 0.948 . S
H777 C766 0.952 . S
H778 C768 0.948 . S
C779 C745 1.395 . S
C779 C749 1.391 . S
C780 C742 1.389 . S
C780 C762 1.392 . S
C781 C752 1.392 . S
C781 C754 1.389 . S
C782 C757 1.395 . S
C782 C759 1.391 . S
H783 C743 0.951 . S
H784 C744 0.950 . S
H785 C750 0.949 . S
H786 C751 0.950 . S
H787 C755 0.951 . S
H788 C756 0.950 . S
H789 C760 0.949 . S
H790 C761 0.950 . S
H791 C765 0.950 . S
H792 C767 0.950 . S
H793 C770 0.950 . S
H794 C772 0.950 . S
C795 C796 1.443 . S
C795 N799 1.376 . S
C795 C833 1.389 . S
C796 C795 1.443 . S
C796 C797 1.340 . S
C796 H836 0.951 . S
C797 C796 1.340 . S
C797 C798 1.439 . S
C797 H837 0.950 . S
C798 C797 1.439 . S
C798 N799 1.374 . S
C798 C832 1.395 . S
N799 C795 1.376 . S
N799 C798 1.374 . S
N799 Co800 2.008 . S
Co800 N799 2.008 . S
Co800 N801 1.995 . S
Co800 N806 2.008 . S
Co800 N811 1.995 . S
Co800 N816 2.282 . S
Co800 N822 2.282 . S
N801 Co800 1.995 . S
N801 C802 1.376 . S
N801 C805 1.383 . S
C802 N801 1.376 . S
C802 C803 1.446 . S
C802 C832 1.391 . S
C803 C802 1.446 . S
C803 C804 1.339 . S
C803 H838 0.949 . S
C804 C803 1.339 . S
C804 C805 1.439 . S
C804 H839 0.950 . S
C805 N801 1.383 . S
C805 C804 1.439 . S
C805 C834 1.392 . S
N806 Co800 2.008 . S
N806 C807 1.376 . S
N806 C810 1.374 . S
C807 N806 1.376 . S
C807 C808 1.443 . S
C807 C834 1.389 . S
C808 C807 1.443 . S
C808 C809 1.340 . S
C808 H840 0.951 . S
C809 C808 1.340 . S
C809 C810 1.439 . S
C809 H841 0.950 . S
C810 N806 1.374 . S
C810 C809 1.439 . S
C810 C835 1.395 . S
N811 Co800 1.995 . S
N811 C812 1.376 . S
N811 C815 1.383 . S
C812 N811 1.376 . S
C812 C813 1.446 . S
C812 C835 1.391 . S
C813 C812 1.446 . S
C813 C814 1.339 . S
C813 H842 0.949 . S
C814 C813 1.339 . S
C814 C815 1.439 . S
C814 H843 0.950 . S
C815 N811 1.383 . S
C815 C814 1.439 . S
C815 C833 1.392 . S
N816 Co800 2.282 . S
N816 C819 1.332 . S
N816 C821 1.332 . S
C817 C818 1.386 . S
C817 C820 1.388 . S
C818 C817 1.386 . S
C818 C819 1.382 . S
C818 H844 0.950 . S
C819 N816 1.332 . S
C819 C818 1.382 . S
C819 H830 0.952 . S
C820 C817 1.388 . S
C820 C821 1.382 . S
C820 H845 0.950 . S
C821 N816 1.332 . S
C821 C820 1.382 . S
C821 H831 0.948 . S
N822 Co800 2.282 . S
N822 C826 1.332 . S
N822 C827 1.332 . S
C823 C824 1.388 . S
C823 C827 1.382 . S
C823 H846 0.950 . S
C824 C823 1.388 . S
C824 C825 1.386 . S
C825 C824 1.386 . S
C825 C826 1.382 . S
C825 H847 0.950 . S
C826 N822 1.332 . S
C826 C825 1.382 . S
C826 H828 0.952 . S
C827 N822 1.332 . S
C827 C823 1.382 . S
C827 H829 0.948 . S
H828 C826 0.952 . S
H829 C827 0.948 . S
H830 C819 0.952 . S
H831 C821 0.948 . S
C832 C798 1.395 . S
C832 C802 1.391 . S
C833 C795 1.389 . S
C833 C815 1.392 . S
C834 C805 1.392 . S
C834 C807 1.389 . S
C835 C810 1.395 . S
C835 C812 1.391 . S
H836 C796 0.951 . S
H837 C797 0.950 . S
H838 C803 0.949 . S
H839 C804 0.950 . S
H840 C808 0.951 . S
H841 C809 0.950 . S
H842 C813 0.949 . S
H843 C814 0.950 . S
H844 C818 0.950 . S
H845 C820 0.950 . S
H846 C823 0.950 . S
H847 C825 0.950 . S
C848 C849 1.443 . S
C848 N852 1.376 . S
C848 C886 1.389 . S
C849 C848 1.443 . S
C849 C850 1.340 . S
C849 H889 0.951 . S
C850 C849 1.340 . S
C850 C851 1.439 . S
C850 H890 0.950 . S
C851 C850 1.439 . S
C851 N852 1.374 . S
C851 C885 1.395 . S
N852 C848 1.376 . S
N852 C851 1.374 . S
N852 Co853 2.008 . S
Co853 N852 2.008 . S
Co853 N854 1.995 . S
Co853 N859 2.008 . S
Co853 N864 1.995 . S
Co853 N869 2.282 . S
Co853 N875 2.282 . S
N854 Co853 1.995 . S
N854 C855 1.376 . S
N854 C858 1.383 . S
C855 N854 1.376 . S
C855 C856 1.446 . S
C855 C885 1.391 . S
C856 C855 1.446 . S
C856 C857 1.339 . S
C856 H891 0.949 . S
C857 C856 1.339 . S
C857 C858 1.439 . S
C857 H892 0.950 . S
C858 N854 1.383 . S
C858 C857 1.439 . S
C858 C887 1.392 . S
N859 Co853 2.008 . S
N859 C860 1.376 . S
N859 C863 1.374 . S
C860 N859 1.376 . S
C860 C861 1.443 . S
C860 C887 1.389 . S
C861 C860 1.443 . S
C861 C862 1.340 . S
C861 H893 0.951 . S
C862 C861 1.340 . S
C862 C863 1.439 . S
C862 H894 0.950 . S
C863 N859 1.374 . S
C863 C862 1.439 . S
C863 C888 1.395 . S
N864 Co853 1.995 . S
N864 C865 1.376 . S
N864 C868 1.383 . S
C865 N864 1.376 . S
C865 C866 1.446 . S
C865 C888 1.391 . S
C866 C865 1.446 . S
C866 C867 1.339 . S
C866 H895 0.949 . S
C867 C866 1.339 . S
C867 C868 1.439 . S
C867 H896 0.950 . S
C868 N864 1.383 . S
C868 C867 1.439 . S
C868 C886 1.392 . S
N869 Co853 2.282 . S
N869 C872 1.332 . S
N869 C874 1.332 . S
C870 C871 1.386 . S
C870 C873 1.388 . S
C871 C870 1.386 . S
C871 C872 1.382 . S
C871 H897 0.950 . S
C872 N869 1.332 . S
C872 C871 1.382 . S
C872 H883 0.952 . S
C873 C870 1.388 . S
C873 C874 1.382 . S
C873 H898 0.950 . S
C874 N869 1.332 . S
C874 C873 1.382 . S
C874 H884 0.948 . S
N875 Co853 2.282 . S
N875 C879 1.332 . S
N875 C880 1.332 . S
C876 C877 1.388 . S
C876 C880 1.382 . S
C876 H899 0.950 . S
C877 C876 1.388 . S
C877 C878 1.386 . S
C878 C877 1.386 . S
C878 C879 1.382 . S
C878 H900 0.950 . S
C879 N875 1.332 . S
C879 C878 1.382 . S
C879 H881 0.952 . S
C880 N875 1.332 . S
C880 C876 1.382 . S
C880 H882 0.948 . S
H881 C879 0.952 . S
H882 C880 0.948 . S
H883 C872 0.952 . S
H884 C874 0.948 . S
C885 C851 1.395 . S
C885 C855 1.391 . S
C886 C848 1.389 . S
C886 C868 1.392 . S
C887 C858 1.392 . S
C887 C860 1.389 . S
C888 C863 1.395 . S
C888 C865 1.391 . S
H889 C849 0.951 . S
H890 C850 0.950 . S
H891 C856 0.949 . S
H892 C857 0.950 . S
H893 C861 0.951 . S
H894 C862 0.950 . S
H895 C866 0.949 . S
H896 C867 0.950 . S
H897 C871 0.950 . S
H898 C873 0.950 . S
H899 C876 0.950 . S
H900 C878 0.950 . S
C901 C902 1.443 . S
C901 N905 1.376 . S
C901 C939 1.389 . S
C902 C901 1.443 . S
C902 C903 1.340 . S
C902 H942 0.951 . S
C903 C902 1.340 . S
C903 C904 1.439 . S
C903 H943 0.950 . S
C904 C903 1.439 . S
C904 N905 1.374 . S
C904 C938 1.395 . S
N905 C901 1.376 . S
N905 C904 1.374 . S
N905 Co906 2.008 . S
Co906 N905 2.008 . S
Co906 N907 1.995 . S
Co906 N912 2.008 . S
Co906 N917 1.995 . S
Co906 N922 2.282 . S
Co906 N928 2.282 . S
N907 Co906 1.995 . S
N907 C908 1.376 . S
N907 C911 1.383 . S
C908 N907 1.376 . S
C908 C909 1.446 . S
C908 C938 1.391 . S
C909 C908 1.446 . S
C909 C910 1.339 . S
C909 H944 0.949 . S
C910 C909 1.339 . S
C910 C911 1.439 . S
C910 H945 0.950 . S
C911 N907 1.383 . S
C911 C910 1.439 . S
C911 C940 1.392 . S
N912 Co906 2.008 . S
N912 C913 1.376 . S
N912 C916 1.374 . S
C913 N912 1.376 . S
C913 C914 1.443 . S
C913 C940 1.389 . S
C914 C913 1.443 . S
C914 C915 1.340 . S
C914 H946 0.951 . S
C915 C914 1.340 . S
C915 C916 1.439 . S
C915 H947 0.950 . S
C916 N912 1.374 . S
C916 C915 1.439 . S
C916 C941 1.395 . S
N917 Co906 1.995 . S
N917 C918 1.376 . S
N917 C921 1.383 . S
C918 N917 1.376 . S
C918 C919 1.446 . S
C918 C941 1.391 . S
C919 C918 1.446 . S
C919 C920 1.339 . S
C919 H948 0.949 . S
C920 C919 1.339 . S
C920 C921 1.439 . S
C920 H949 0.950 . S
C921 N917 1.383 . S
C921 C920 1.439 . S
C921 C939 1.392 . S
N922 Co906 2.282 . S
N922 C925 1.332 . S
N922 C927 1.332 . S
C923 C924 1.386 . S
C923 C926 1.388 . S
C924 C923 1.386 . S
C924 C925 1.382 . S
C924 H950 0.950 . S
C925 N922 1.332 . S
C925 C924 1.382 . S
C925 H936 0.952 . S
C926 C923 1.388 . S
C926 C927 1.382 . S
C926 H951 0.950 . S
C927 N922 1.332 . S
C927 C926 1.382 . S
C927 H937 0.948 . S
N928 Co906 2.282 . S
N928 C932 1.332 . S
N928 C933 1.332 . S
C929 C930 1.388 . S
C929 C933 1.382 . S
C929 H952 0.950 . S
C930 C929 1.388 . S
C930 C931 1.386 . S
C931 C930 1.386 . S
C931 C932 1.382 . S
C931 H953 0.950 . S
C932 N928 1.332 . S
C932 C931 1.382 . S
C932 H934 0.952 . S
C933 N928 1.332 . S
C933 C929 1.382 . S
C933 H935 0.948 . S
H934 C932 0.952 . S
H935 C933 0.948 . S
H936 C925 0.952 . S
H937 C927 0.948 . S
C938 C904 1.395 . S
C938 C908 1.391 . S
C939 C901 1.389 . S
C939 C921 1.392 . S
C940 C911 1.392 . S
C940 C913 1.389 . S
C941 C916 1.395 . S
C941 C918 1.391 . S
H942 C902 0.951 . S
H943 C903 0.950 . S
H944 C909 0.949 . S
H945 C910 0.950 . S
H946 C914 0.951 . S
H947 C915 0.950 . S
H948 C919 0.949 . S
H949 C920 0.950 . S
H950 C924 0.950 . S
H951 C926 0.950 . S
H952 C929 0.950 . S
H953 C931 0.950 . S
H954 C960 0.930 . S
H955 C963 0.930 . S
H956 C964 0.930 . S
H957 C965 0.930 . S
H958 C968 0.930 . S
H959 C969 0.930 . S
C960 H954 0.930 . S
C960 C961 1.355 1_655 S
C960 C962 1.415 . S
C961 C960 1.355 1_455 S
C961 C963 1.419 . S
C962 C960 1.415 . S
C962 C967 1.425 1_655 S
C962 C969 1.409 . S
C963 H955 0.930 . S
C963 C961 1.419 . S
C963 C964 1.362 . S
C964 H956 0.930 . S
C964 C963 1.362 . S
C964 C967 1.409 . S
C965 H957 0.930 . S
C965 C966 1.355 1_455 S
C965 C967 1.415 . S
C966 C965 1.355 1_655 S
C966 C968 1.419 . S
C967 C962 1.425 1_455 S
C967 C964 1.409 . S
C967 C965 1.415 . S
C968 H958 0.930 . S
C968 C966 1.419 . S
C968 C969 1.362 . S
C969 H959 0.930 . S
C969 C962 1.409 . S
C969 C968 1.362 . S
H970 C976 0.930 . S
H971 C979 0.930 . S
H972 C980 0.930 . S
H973 C981 0.930 . S
H974 C984 0.930 . S
H975 C985 0.930 . S
C976 H970 0.930 . S
C976 C977 1.355 . S
C976 C978 1.415 . S
C977 C976 1.355 . S
C977 C979 1.419 . S
C978 C976 1.415 . S
C978 C983 1.425 . S
C978 C985 1.409 . S
C979 H971 0.930 . S
C979 C977 1.419 . S
C979 C980 1.362 . S
C980 H972 0.930 . S
C980 C979 1.362 . S
C980 C983 1.409 . S
C981 H973 0.930 . S
C981 C982 1.355 . S
C981 C983 1.415 . S
C982 C981 1.355 . S
C982 C984 1.419 . S
C983 C978 1.425 . S
C983 C980 1.409 . S
C983 C981 1.415 . S
C984 H974 0.930 . S
C984 C982 1.419 . S
C984 C985 1.362 . S
C985 H975 0.930 . S
C985 C978 1.409 . S
C985 C984 1.362 . S
H986 C992 0.930 . S
H987 C995 0.930 . S
H988 C996 0.930 . S
H989 C997 0.930 . S
H990 C1000 0.930 . S
H991 C1001 0.930 . S
C992 H986 0.930 . S
C992 C993 1.355 1_565 S
C992 C994 1.415 1_565 S
C993 C992 1.355 1_545 S
C993 C995 1.419 . S
C994 C992 1.415 1_545 S
C994 C999 1.425 . S
C994 C1001 1.409 1_545 S
C995 H987 0.930 . S
C995 C993 1.419 . S
C995 C996 1.362 . S
C996 H988 0.930 . S
C996 C995 1.362 . S
C996 C999 1.409 . S
C997 H989 0.930 . S
C997 C998 1.355 . S
C997 C999 1.415 . S
C998 C997 1.355 . S
C998 C1000 1.419 1_545 S
C999 C994 1.425 . S
C999 C996 1.409 . S
C999 C997 1.415 . S
C1000 H990 0.930 . S
C1000 C998 1.419 1_565 S
C1000 C1001 1.362 . S
C1001 H991 0.930 . S
C1001 C994 1.409 1_565 S
C1001 C1000 1.362 . S
H1002 C1008 0.930 . S
H1003 C1011 0.930 . S
H1004 C1012 0.930 . S
H1005 C1013 0.930 . S
H1006 C1016 0.930 . S
H1007 C1017 0.930 . S
C1008 H1002 0.930 . S
C1008 C1009 1.355 1_455 S
C1008 C1010 1.415 . S
C1009 C1008 1.355 1_655 S
C1009 C1011 1.419 . S
C1010 C1008 1.415 . S
C1010 C1015 1.425 1_455 S
C1010 C1017 1.409 . S
C1011 H1003 0.930 . S
C1011 C1009 1.419 . S
C1011 C1012 1.362 . S
C1012 H1004 0.930 . S
C1012 C1011 1.362 . S
C1012 C1015 1.409 . S
C1013 H1005 0.930 . S
C1013 C1014 1.355 1_655 S
C1013 C1015 1.415 . S
C1014 C1013 1.355 1_455 S
C1014 C1016 1.419 . S
C1015 C1010 1.425 1_655 S
C1015 C1012 1.409 . S
C1015 C1013 1.415 . S
C1016 H1006 0.930 . S
C1016 C1014 1.419 . S
C1016 C1017 1.362 . S
C1017 H1007 0.930 . S
C1017 C1010 1.409 . S
C1017 C1016 1.362 . S
H1018 C1024 0.930 . S
H1019 C1027 0.930 . S
H1020 C1028 0.930 . S
H1021 C1029 0.930 . S
H1022 C1032 0.930 . S
H1023 C1033 0.930 . S
C1024 H1018 0.930 . S
C1024 C1025 1.355 . S
C1024 C1026 1.415 . S
C1025 C1024 1.355 . S
C1025 C1027 1.419 . S
C1026 C1024 1.415 . S
C1026 C1031 1.425 . S
C1026 C1033 1.409 . S
C1027 H1019 0.930 . S
C1027 C1025 1.419 . S
C1027 C1028 1.362 . S
C1028 H1020 0.930 . S
C1028 C1027 1.362 . S
C1028 C1031 1.409 . S
C1029 H1021 0.930 . S
C1029 C1030 1.355 . S
C1029 C1031 1.415 . S
C1030 C1029 1.355 . S
C1030 C1032 1.419 . S
C1031 C1026 1.425 . S
C1031 C1028 1.409 . S
C1031 C1029 1.415 . S
C1032 H1022 0.930 . S
C1032 C1030 1.419 . S
C1032 C1033 1.362 . S
C1033 H1023 0.930 . S
C1033 C1026 1.409 . S
C1033 C1032 1.362 . S
H1034 C1040 0.930 . S
H1035 C1043 0.930 . S
H1036 C1044 0.930 . S
H1037 C1045 0.930 . S
H1038 C1048 0.930 . S
H1039 C1049 0.930 . S
C1040 H1034 0.930 . S
C1040 C1041 1.355 1_565 S
C1040 C1042 1.415 1_565 S
C1041 C1040 1.355 1_545 S
C1041 C1043 1.419 . S
C1042 C1040 1.415 1_545 S
C1042 C1047 1.425 . S
C1042 C1049 1.409 1_545 S
C1043 H1035 0.930 . S
C1043 C1041 1.419 . S
C1043 C1044 1.362 . S
C1044 H1036 0.930 . S
C1044 C1043 1.362 . S
C1044 C1047 1.409 . S
C1045 H1037 0.930 . S
C1045 C1046 1.355 . S
C1045 C1047 1.415 . S
C1046 C1045 1.355 . S
C1046 C1048 1.419 1_545 S
C1047 C1042 1.425 . S
C1047 C1044 1.409 . S
C1047 C1045 1.415 . S
C1048 H1038 0.930 . S
C1048 C1046 1.419 1_565 S
C1048 C1049 1.362 . S
C1049 H1039 0.930 . S
C1049 C1042 1.409 1_565 S
C1049 C1048 1.362 . S
H1050 C1056 0.930 . S
H1051 C1059 0.930 . S
H1052 C1060 0.930 . S
H1053 C1061 0.930 . S
H1054 C1064 0.930 . S
H1055 C1065 0.930 . S
C1056 H1050 0.930 . S
C1056 C1057 1.355 . S
C1056 C1058 1.415 . S
C1057 C1056 1.355 . S
C1057 C1059 1.419 . S
C1058 C1056 1.415 . S
C1058 C1063 1.425 . S
C1058 C1065 1.409 . S
C1059 H1051 0.930 . S
C1059 C1057 1.419 . S
C1059 C1060 1.362 . S
C1060 H1052 0.930 . S
C1060 C1059 1.362 . S
C1060 C1063 1.409 . S
C1061 H1053 0.930 . S
C1061 C1062 1.355 . S
C1061 C1063 1.415 . S
C1062 C1061 1.355 . S
C1062 C1064 1.419 . S
C1063 C1058 1.425 . S
C1063 C1060 1.409 . S
C1063 C1061 1.415 . S
C1064 H1054 0.930 . S
C1064 C1062 1.419 . S
C1064 C1065 1.362 . S
C1065 H1055 0.930 . S
C1065 C1058 1.409 . S
C1065 C1064 1.362 . S
H1066 C1072 0.930 . S
H1067 C1075 0.930 . S
H1068 C1076 0.930 . S
H1069 C1077 0.930 . S
H1070 C1080 0.930 . S
H1071 C1081 0.930 . S
C1072 H1066 0.930 . S
C1072 C1073 1.355 . S
C1072 C1074 1.415 . S
C1073 C1072 1.355 . S
C1073 C1075 1.419 . S
C1074 C1072 1.415 . S
C1074 C1079 1.425 . S
C1074 C1081 1.409 . S
C1075 H1067 0.930 . S
C1075 C1073 1.419 . S
C1075 C1076 1.362 . S
C1076 H1068 0.930 . S
C1076 C1075 1.362 . S
C1076 C1079 1.409 . S
C1077 H1069 0.930 . S
C1077 C1078 1.355 . S
C1077 C1079 1.415 . S
C1078 C1077 1.355 . S
C1078 C1080 1.419 . S
C1079 C1074 1.425 . S
C1079 C1076 1.409 . S
C1079 C1077 1.415 . S
C1080 H1070 0.930 . S
C1080 C1078 1.419 . S
C1080 C1081 1.362 . S
C1081 H1071 0.930 . S
C1081 C1074 1.409 . S
C1081 C1080 1.362 . S
H1082 C1088 0.930 . S
H1083 C1091 0.930 . S
H1084 C1092 0.930 . S
H1085 C1093 0.930 . S
H1086 C1096 0.930 . S
H1087 C1097 0.930 . S
C1088 H1082 0.930 . S
C1088 C1089 1.355 . S
C1088 C1090 1.415 . S
C1089 C1088 1.355 . S
C1089 C1091 1.419 . S
C1090 C1088 1.415 . S
C1090 C1095 1.425 . S
C1090 C1097 1.409 . S
C1091 H1083 0.930 . S
C1091 C1089 1.419 . S
C1091 C1092 1.362 . S
C1092 H1084 0.930 . S
C1092 C1091 1.362 . S
C1092 C1095 1.409 . S
C1093 H1085 0.930 . S
C1093 C1094 1.355 . S
C1093 C1095 1.415 . S
C1094 C1093 1.355 . S
C1094 C1096 1.419 . S
C1095 C1090 1.425 . S
C1095 C1092 1.409 . S
C1095 C1093 1.415 . S
C1096 H1086 0.930 . S
C1096 C1094 1.419 . S
C1096 C1097 1.362 . S
C1097 H1087 0.930 . S
C1097 C1090 1.409 . S
C1097 C1096 1.362 . S
H1098 C1104 0.930 . S
H1099 C1107 0.930 . S
H1100 C1108 0.930 . S
H1101 C1109 0.930 . S
H1102 C1112 0.930 . S
H1103 C1113 0.930 . S
C1104 H1098 0.930 . S
C1104 C1105 1.355 . S
C1104 C1106 1.415 . S
C1105 C1104 1.355 . S
C1105 C1107 1.419 . S
C1106 C1104 1.415 . S
C1106 C1111 1.425 . S
C1106 C1113 1.409 . S
C1107 H1099 0.930 . S
C1107 C1105 1.419 . S
C1107 C1108 1.362 . S
C1108 H1100 0.930 . S
C1108 C1107 1.362 . S
C1108 C1111 1.409 . S
C1109 H1101 0.930 . S
C1109 C1110 1.355 . S
C1109 C1111 1.415 . S
C1110 C1109 1.355 . S
C1110 C1112 1.419 . S
C1111 C1106 1.425 . S
C1111 C1108 1.409 . S
C1111 C1109 1.415 . S
C1112 H1102 0.930 . S
C1112 C1110 1.419 . S
C1112 C1113 1.362 . S
C1113 H1103 0.930 . S
C1113 C1106 1.409 . S
C1113 C1112 1.362 . S
H1114 C1120 0.930 . S
H1115 C1123 0.930 . S
H1116 C1124 0.930 . S
H1117 C1125 0.930 . S
H1118 C1128 0.930 . S
H1119 C1129 0.930 . S
C1120 H1114 0.930 . S
C1120 C1121 1.355 . S
C1120 C1122 1.415 . S
C1121 C1120 1.355 . S
C1121 C1123 1.419 . S
C1122 C1120 1.415 . S
C1122 C1127 1.425 . S
C1122 C1129 1.409 . S
C1123 H1115 0.930 . S
C1123 C1121 1.419 . S
C1123 C1124 1.362 . S
C1124 H1116 0.930 . S
C1124 C1123 1.362 . S
C1124 C1127 1.409 . S
C1125 H1117 0.930 . S
C1125 C1126 1.355 . S
C1125 C1127 1.415 . S
C1126 C1125 1.355 . S
C1126 C1128 1.419 . S
C1127 C1122 1.425 . S
C1127 C1124 1.409 . S
C1127 C1125 1.415 . S
C1128 H1118 0.930 . S
C1128 C1126 1.419 . S
C1128 C1129 1.362 . S
C1129 H1119 0.930 . S
C1129 C1122 1.409 . S
C1129 C1128 1.362 . S
H1130 C1136 0.930 . S
H1131 C1139 0.930 . S
H1132 C1140 0.930 . S
H1133 C1141 0.930 . S
H1134 C1144 0.930 . S
H1135 C1145 0.930 . S
C1136 H1130 0.930 . S
C1136 C1137 1.355 . S
C1136 C1138 1.415 . S
C1137 C1136 1.355 . S
C1137 C1139 1.419 . S
C1138 C1136 1.415 . S
C1138 C1143 1.425 . S
C1138 C1145 1.409 . S
C1139 H1131 0.930 . S
C1139 C1137 1.419 . S
C1139 C1140 1.362 . S
C1140 H1132 0.930 . S
C1140 C1139 1.362 . S
C1140 C1143 1.409 . S
C1141 H1133 0.930 . S
C1141 C1142 1.355 . S
C1141 C1143 1.415 . S
C1142 C1141 1.355 . S
C1142 C1144 1.419 . S
C1143 C1138 1.425 . S
C1143 C1140 1.409 . S
C1143 C1141 1.415 . S
C1144 H1134 0.930 . S
C1144 C1142 1.419 . S
C1144 C1145 1.362 . S
C1145 H1135 0.930 . S
C1145 C1138 1.409 . S
C1145 C1144 1.362 . S
H1146 C1152 0.930 . S
H1147 C1155 0.930 . S
H1148 C1156 0.930 . S
H1149 C1157 0.930 . S
H1150 C1160 0.930 . S
H1151 C1161 0.930 . S
C1152 H1146 0.930 . S
C1152 C1153 1.355 . S
C1152 C1154 1.415 1_554 S
C1153 C1152 1.355 . S
C1153 C1155 1.419 . S
C1154 C1152 1.415 1_556 S
C1154 C1159 1.425 . S
C1154 C1161 1.409 . S
C1155 H1147 0.930 . S
C1155 C1153 1.419 . S
C1155 C1156 1.362 1_554 S
C1156 H1148 0.930 . S
C1156 C1155 1.362 1_556 S
C1156 C1159 1.409 . S
C1157 H1149 0.930 . S
C1157 C1158 1.355 . S
C1157 C1159 1.415 . S
C1158 C1157 1.355 . S
C1158 C1160 1.419 . S
C1159 C1154 1.425 . S
C1159 C1156 1.409 . S
C1159 C1157 1.415 . S
C1160 H1150 0.930 . S
C1160 C1158 1.419 . S
C1160 C1161 1.362 . S
C1161 H1151 0.930 . S
C1161 C1154 1.409 . S
C1161 C1160 1.362 . S
H1162 C1168 0.930 . S
H1163 C1171 0.930 . S
H1164 C1172 0.930 . S
H1165 C1173 0.930 . S
H1166 C1176 0.930 . S
H1167 C1177 0.930 . S
C1168 H1162 0.930 . S
C1168 C1169 1.355 . S
C1168 C1170 1.415 . S
C1169 C1168 1.355 . S
C1169 C1171 1.419 . S
C1170 C1168 1.415 . S
C1170 C1175 1.425 . S
C1170 C1177 1.409 . S
C1171 H1163 0.930 . S
C1171 C1169 1.419 . S
C1171 C1172 1.362 . S
C1172 H1164 0.930 . S
C1172 C1171 1.362 . S
C1172 C1175 1.409 . S
C1173 H1165 0.930 . S
C1173 C1174 1.355 . S
C1173 C1175 1.415 1_554 S
C1174 C1173 1.355 . S
C1174 C1176 1.419 . S
C1175 C1170 1.425 . S
C1175 C1172 1.409 . S
C1175 C1173 1.415 1_556 S
C1176 H1166 0.930 . S
C1176 C1174 1.419 . S
C1176 C1177 1.362 1_554 S
C1177 H1167 0.930 . S
C1177 C1170 1.409 . S
C1177 C1176 1.362 1_556 S
H1178 C1184 0.930 . S
H1179 C1187 0.930 1_554 S
H1180 C1188 0.930 . S
H1181 C1189 0.930 . S
H1182 C1192 0.930 . S
H1183 C1193 0.930 . S
C1184 H1178 0.930 . S
C1184 C1185 1.355 1_556 S
C1184 C1186 1.415 . S
C1185 C1184 1.355 1_554 S
C1185 C1187 1.419 1_554 S
C1186 C1184 1.415 . S
C1186 C1191 1.425 . S
C1186 C1193 1.409 . S
C1187 H1179 0.930 1_556 S
C1187 C1185 1.419 1_556 S
C1187 C1188 1.362 . S
C1188 H1180 0.930 . S
C1188 C1187 1.362 . S
C1188 C1191 1.409 . S
C1189 H1181 0.930 . S
C1189 C1190 1.355 . S
C1189 C1191 1.415 . S
C1190 C1189 1.355 . S
C1190 C1192 1.419 . S
C1191 C1186 1.425 . S
C1191 C1188 1.409 . S
C1191 C1189 1.415 . S
C1192 H1182 0.930 . S
C1192 C1190 1.419 . S
C1192 C1193 1.362 . S
C1193 H1183 0.930 . S
C1193 C1186 1.409 . S
C1193 C1192 1.362 . S
H1194 C1200 0.930 . S
H1195 C1203 0.930 . S
H1196 C1204 0.930 . S
H1197 C1205 0.930 . S
H1198 C1208 0.930 . S
H1199 C1209 0.930 . S
C1200 H1194 0.930 . S
C1200 C1201 1.355 . S
C1200 C1202 1.415 . S
C1201 C1200 1.355 . S
C1201 C1203 1.419 . S
C1202 C1200 1.415 . S
C1202 C1207 1.425 . S
C1202 C1209 1.409 . S
C1203 H1195 0.930 . S
C1203 C1201 1.419 . S
C1203 C1204 1.362 . S
C1204 H1196 0.930 . S
C1204 C1203 1.362 . S
C1204 C1207 1.409 . S
C1205 H1197 0.930 . S
C1205 C1206 1.355 . S
C1205 C1207 1.415 . S
C1206 C1205 1.355 . S
C1206 C1208 1.419 . S
C1207 C1202 1.425 . S
C1207 C1204 1.409 . S
C1207 C1205 1.415 . S
C1208 H1198 0.930 . S
C1208 C1206 1.419 . S
C1208 C1209 1.362 . S
C1209 H1199 0.930 . S
C1209 C1202 1.409 . S
C1209 C1208 1.362 . S
H1210 C1216 0.930 . S
H1211 C1219 0.930 . S
H1212 C1220 0.930 . S
H1213 C1221 0.930 . S
H1214 C1224 0.930 . S
H1215 C1225 0.930 . S
C1216 H1210 0.930 . S
C1216 C1217 1.355 . S
C1216 C1218 1.415 . S
C1217 C1216 1.355 . S
C1217 C1219 1.419 . S
C1218 C1216 1.415 . S
C1218 C1223 1.425 . S
C1218 C1225 1.409 . S
C1219 H1211 0.930 . S
C1219 C1217 1.419 . S
C1219 C1220 1.362 . S
C1220 H1212 0.930 . S
C1220 C1219 1.362 . S
C1220 C1223 1.409 . S
C1221 H1213 0.930 . S
C1221 C1222 1.355 . S
C1221 C1223 1.415 . S
C1222 C1221 1.355 . S
C1222 C1224 1.419 . S
C1223 C1218 1.425 . S
C1223 C1220 1.409 . S
C1223 C1221 1.415 . S
C1224 H1214 0.930 . S
C1224 C1222 1.419 . S
C1224 C1225 1.362 . S
C1225 H1215 0.930 . S
C1225 C1218 1.409 . S
C1225 C1224 1.362 . S
H1226 C1232 0.930 . S
H1227 C1235 0.930 . S
H1228 C1236 0.930 . S
H1229 C1237 0.930 . S
H1230 C1240 0.930 . S
H1231 C1241 0.930 . S
C1232 H1226 0.930 . S
C1232 C1233 1.355 . S
C1232 C1234 1.415 . S
C1233 C1232 1.355 . S
C1233 C1235 1.419 . S
C1234 C1232 1.415 . S
C1234 C1239 1.425 . S
C1234 C1241 1.409 . S
C1235 H1227 0.930 . S
C1235 C1233 1.419 . S
C1235 C1236 1.362 . S
C1236 H1228 0.930 . S
C1236 C1235 1.362 . S
C1236 C1239 1.409 . S
C1237 H1229 0.930 . S
C1237 C1238 1.355 . S
C1237 C1239 1.415 . S
C1238 C1237 1.355 . S
C1238 C1240 1.419 . S
C1239 C1234 1.425 . S
C1239 C1236 1.409 . S
C1239 C1237 1.415 . S
C1240 H1230 0.930 . S
C1240 C1238 1.419 . S
C1240 C1241 1.362 . S
C1241 H1231 0.930 . S
C1241 C1234 1.409 . S
C1241 C1240 1.362 . S
H1242 C1248 0.930 . S
H1243 C1251 0.930 . S
H1244 C1252 0.930 . S
H1245 C1253 0.930 . S
H1246 C1256 0.930 . S
H1247 C1257 0.930 . S
C1248 H1242 0.930 . S
C1248 C1249 1.355 . S
C1248 C1250 1.415 . S
C1249 C1248 1.355 . S
C1249 C1251 1.419 . S
C1250 C1248 1.415 . S
C1250 C1255 1.425 . S
C1250 C1257 1.409 . S
C1251 H1243 0.930 . S
C1251 C1249 1.419 . S
C1251 C1252 1.362 . S
C1252 H1244 0.930 . S
C1252 C1251 1.362 . S
C1252 C1255 1.409 . S
C1253 H1245 0.930 . S
C1253 C1254 1.355 . S
C1253 C1255 1.415 . S
C1254 C1253 1.355 . S
C1254 C1256 1.419 . S
C1255 C1250 1.425 . S
C1255 C1252 1.409 . S
C1255 C1253 1.415 . S
C1256 H1246 0.930 . S
C1256 C1254 1.419 . S
C1256 C1257 1.362 . S
C1257 H1247 0.930 . S
C1257 C1250 1.409 . S
C1257 C1256 1.362 . S
H1258 C1264 0.930 . S
H1259 C1267 0.930 . S
H1260 C1268 0.930 . S
H1261 C1269 0.930 . S
H1262 C1272 0.930 . S
H1263 C1273 0.930 . S
C1264 H1258 0.930 . S
C1264 C1265 1.355 . S
C1264 C1266 1.415 . S
C1265 C1264 1.355 . S
C1265 C1267 1.419 . S
C1266 C1264 1.415 . S
C1266 C1271 1.425 . S
C1266 C1273 1.409 . S
C1267 H1259 0.930 . S
C1267 C1265 1.419 . S
C1267 C1268 1.362 . S
C1268 H1260 0.930 . S
C1268 C1267 1.362 . S
C1268 C1271 1.409 . S
C1269 H1261 0.930 . S
C1269 C1270 1.355 . S
C1269 C1271 1.415 . S
C1270 C1269 1.355 . S
C1270 C1272 1.419 . S
C1271 C1266 1.425 . S
C1271 C1268 1.409 . S
C1271 C1269 1.415 . S
C1272 H1262 0.930 . S
C1272 C1270 1.419 . S
C1272 C1273 1.362 . S
C1273 H1263 0.930 . S
C1273 C1266 1.409 . S
C1273 C1272 1.362 . S
H1274 C1280 0.930 . S
H1275 C1283 0.930 . S
H1276 C1284 0.930 . S
H1277 C1285 0.930 . S
H1278 C1288 0.930 . S
H1279 C1289 0.930 . S
C1280 H1274 0.930 . S
C1280 C1281 1.355 . S
C1280 C1282 1.415 . S
C1281 C1280 1.355 . S
C1281 C1283 1.419 . S
C1282 C1280 1.415 . S
C1282 C1287 1.425 . S
C1282 C1289 1.409 . S
C1283 H1275 0.930 . S
C1283 C1281 1.419 . S
C1283 C1284 1.362 . S
C1284 H1276 0.930 . S
C1284 C1283 1.362 . S
C1284 C1287 1.409 . S
C1285 H1277 0.930 . S
C1285 C1286 1.355 . S
C1285 C1287 1.415 . S
C1286 C1285 1.355 . S
C1286 C1288 1.419 . S
C1287 C1282 1.425 . S
C1287 C1284 1.409 . S
C1287 C1285 1.415 . S
C1288 H1278 0.930 . S
C1288 C1286 1.419 . S
C1288 C1289 1.362 . S
C1289 H1279 0.930 . S
C1289 C1282 1.409 . S
C1289 C1288 1.362 . S
H1290 C1296 0.930 . S
H1291 C1299 0.930 . S
H1292 C1300 0.930 . S
H1293 C1301 0.930 . S
H1294 C1304 0.930 . S
H1295 C1305 0.930 . S
C1296 H1290 0.930 . S
C1296 C1297 1.355 . S
C1296 C1298 1.415 . S
C1297 C1296 1.355 . S
C1297 C1299 1.419 . S
C1298 C1296 1.415 . S
C1298 C1303 1.425 . S
C1298 C1305 1.409 . S
C1299 H1291 0.930 . S
C1299 C1297 1.419 . S
C1299 C1300 1.362 . S
C1300 H1292 0.930 . S
C1300 C1299 1.362 . S
C1300 C1303 1.409 . S
C1301 H1293 0.930 . S
C1301 C1302 1.355 . S
C1301 C1303 1.415 . S
C1302 C1301 1.355 . S
C1302 C1304 1.419 . S
C1303 C1298 1.425 . S
C1303 C1300 1.409 . S
C1303 C1301 1.415 . S
C1304 H1294 0.930 . S
C1304 C1302 1.419 . S
C1304 C1305 1.362 . S
C1305 H1295 0.930 . S
C1305 C1298 1.409 . S
C1305 C1304 1.362 . S
H1306 C1312 0.930 . S
H1307 C1315 0.930 . S
H1308 C1316 0.930 . S
H1309 C1317 0.930 . S
H1310 C1320 0.930 . S
H1311 C1321 0.930 . S
C1312 H1306 0.930 . S
C1312 C1313 1.355 . S
C1312 C1314 1.415 . S
C1313 C1312 1.355 . S
C1313 C1315 1.419 . S
C1314 C1312 1.415 . S
C1314 C1319 1.425 . S
C1314 C1321 1.409 . S
C1315 H1307 0.930 . S
C1315 C1313 1.419 . S
C1315 C1316 1.362 . S
C1316 H1308 0.930 . S
C1316 C1315 1.362 . S
C1316 C1319 1.409 . S
C1317 H1309 0.930 . S
C1317 C1318 1.355 . S
C1317 C1319 1.415 . S
C1318 C1317 1.355 . S
C1318 C1320 1.419 . S
C1319 C1314 1.425 . S
C1319 C1316 1.409 . S
C1319 C1317 1.415 . S
C1320 H1310 0.930 . S
C1320 C1318 1.419 . S
C1320 C1321 1.362 . S
C1321 H1311 0.930 . S
C1321 C1314 1.409 . S
C1321 C1320 1.362 . S
H1322 C1328 0.930 . S
H1323 C1331 0.930 . S
H1324 C1332 0.930 . S
H1325 C1333 0.930 . S
H1326 C1336 0.930 . S
H1327 C1337 0.930 . S
C1328 H1322 0.930 . S
C1328 C1329 1.355 . S
C1328 C1330 1.415 . S
C1329 C1328 1.355 . S
C1329 C1331 1.419 . S
C1330 C1328 1.415 . S
C1330 C1335 1.425 . S
C1330 C1337 1.409 . S
C1331 H1323 0.930 . S
C1331 C1329 1.419 . S
C1331 C1332 1.362 . S
C1332 H1324 0.930 . S
C1332 C1331 1.362 . S
C1332 C1335 1.409 . S
C1333 H1325 0.930 . S
C1333 C1334 1.355 . S
C1333 C1335 1.415 . S
C1334 C1333 1.355 . S
C1334 C1336 1.419 . S
C1335 C1330 1.425 . S
C1335 C1332 1.409 . S
C1335 C1333 1.415 . S
C1336 H1326 0.930 . S
C1336 C1334 1.419 . S
C1336 C1337 1.362 . S
C1337 H1327 0.930 . S
C1337 C1330 1.409 . S
C1337 C1336 1.362 . S
H1338 C1344 0.930 . S
H1339 C1347 0.930 . S
H1340 C1348 0.930 . S
H1341 C1349 0.930 . S
H1342 C1352 0.930 . S
H1343 C1353 0.930 . S
C1344 H1338 0.930 . S
C1344 C1345 1.355 . S
C1344 C1346 1.415 . S
C1345 C1344 1.355 . S
C1345 C1347 1.419 . S
C1346 C1344 1.415 . S
C1346 C1351 1.425 . S
C1346 C1353 1.409 . S
C1347 H1339 0.930 . S
C1347 C1345 1.419 . S
C1347 C1348 1.362 . S
C1348 H1340 0.930 . S
C1348 C1347 1.362 . S
C1348 C1351 1.409 . S
C1349 H1341 0.930 . S
C1349 C1350 1.355 . S
C1349 C1351 1.415 . S
C1350 C1349 1.355 . S
C1350 C1352 1.419 . S
C1351 C1346 1.425 . S
C1351 C1348 1.409 . S
C1351 C1349 1.415 . S
C1352 H1342 0.930 . S
C1352 C1350 1.419 . S
C1352 C1353 1.362 . S
C1353 H1343 0.930 . S
C1353 C1346 1.409 . S
C1353 C1352 1.362 . S
H1354 C1360 0.930 . S
H1355 C1363 0.930 . S
H1356 C1364 0.930 . S
H1357 C1365 0.930 . S
H1358 C1368 0.930 . S
H1359 C1369 0.930 . S
C1360 H1354 0.930 . S
C1360 C1361 1.355 . S
C1360 C1362 1.415 . S
C1361 C1360 1.355 . S
C1361 C1363 1.419 . S
C1362 C1360 1.415 . S
C1362 C1367 1.425 . S
C1362 C1369 1.409 . S
C1363 H1355 0.930 . S
C1363 C1361 1.419 . S
C1363 C1364 1.362 . S
C1364 H1356 0.930 . S
C1364 C1363 1.362 . S
C1364 C1367 1.409 . S
C1365 H1357 0.930 . S
C1365 C1366 1.355 . S
C1365 C1367 1.415 . S
C1366 C1365 1.355 . S
C1366 C1368 1.419 . S
C1367 C1362 1.425 . S
C1367 C1364 1.409 . S
C1367 C1365 1.415 . S
C1368 H1358 0.930 . S
C1368 C1366 1.419 . S
C1368 C1369 1.362 . S
C1369 H1359 0.930 . S
C1369 C1362 1.409 . S
C1369 C1368 1.362 . S
H1370 C1376 0.930 . S
H1371 C1379 0.930 . S
H1372 C1380 0.930 . S
H1373 C1381 0.930 . S
H1374 C1384 0.930 . S
H1375 C1385 0.930 . S
C1376 H1370 0.930 . S
C1376 C1377 1.355 . S
C1376 C1378 1.415 . S
C1377 C1376 1.355 . S
C1377 C1379 1.419 . S
C1378 C1376 1.415 . S
C1378 C1383 1.425 . S
C1378 C1385 1.409 . S
C1379 H1371 0.930 . S
C1379 C1377 1.419 . S
C1379 C1380 1.362 . S
C1380 H1372 0.930 . S
C1380 C1379 1.362 . S
C1380 C1383 1.409 . S
C1381 H1373 0.930 . S
C1381 C1382 1.355 . S
C1381 C1383 1.415 . S
C1382 C1381 1.355 . S
C1382 C1384 1.419 . S
C1383 C1378 1.425 . S
C1383 C1380 1.409 . S
C1383 C1381 1.415 . S
C1384 H1374 0.930 . S
C1384 C1382 1.419 . S
C1384 C1385 1.362 . S
C1385 H1375 0.930 . S
C1385 C1378 1.409 . S
C1385 C1384 1.362 . S
H1386 C1392 0.930 . S
H1387 C1395 0.930 . S
H1388 C1396 0.930 . S
H1389 C1397 0.930 . S
H1390 C1400 0.930 . S
H1391 C1401 0.930 . S
C1392 H1386 0.930 . S
C1392 C1393 1.355 . S
C1392 C1394 1.415 . S
C1393 C1392 1.355 . S
C1393 C1395 1.419 . S
C1394 C1392 1.415 . S
C1394 C1399 1.425 . S
C1394 C1401 1.409 . S
C1395 H1387 0.930 . S
C1395 C1393 1.419 . S
C1395 C1396 1.362 . S
C1396 H1388 0.930 . S
C1396 C1395 1.362 . S
C1396 C1399 1.409 . S
C1397 H1389 0.930 . S
C1397 C1398 1.355 . S
C1397 C1399 1.415 . S
C1398 C1397 1.355 . S
C1398 C1400 1.419 . S
C1399 C1394 1.425 . S
C1399 C1396 1.409 . S
C1399 C1397 1.415 . S
C1400 H1390 0.930 . S
C1400 C1398 1.419 . S
C1400 C1401 1.362 . S
C1401 H1391 0.930 . S
C1401 C1394 1.409 . S
C1401 C1400 1.362 . S
H1402 C1408 0.930 . S
H1403 C1411 0.930 . S
H1404 C1412 0.930 . S
H1405 C1413 0.930 . S
H1406 C1416 0.930 . S
H1407 C1417 0.930 . S
C1408 H1402 0.930 . S
C1408 C1409 1.355 . S
C1408 C1410 1.415 . S
C1409 C1408 1.355 . S
C1409 C1411 1.419 . S
C1410 C1408 1.415 . S
C1410 C1415 1.425 . S
C1410 C1417 1.409 . S
C1411 H1403 0.930 . S
C1411 C1409 1.419 . S
C1411 C1412 1.362 . S
C1412 H1404 0.930 . S
C1412 C1411 1.362 . S
C1412 C1415 1.409 . S
C1413 H1405 0.930 . S
C1413 C1414 1.355 . S
C1413 C1415 1.415 . S
C1414 C1413 1.355 . S
C1414 C1416 1.419 . S
C1415 C1410 1.425 . S
C1415 C1412 1.409 . S
C1415 C1413 1.415 . S
C1416 H1406 0.930 . S
C1416 C1414 1.419 . S
C1416 C1417 1.362 . S
C1417 H1407 0.930 . S
C1417 C1410 1.409 . S
C1417 C1416 1.362 . S
H1418 C1424 0.930 . S
H1419 C1427 0.930 . S
H1420 C1428 0.930 . S
H1421 C1429 0.930 . S
H1422 C1432 0.930 . S
H1423 C1433 0.930 . S
C1424 H1418 0.930 . S
C1424 C1425 1.355 . S
C1424 C1426 1.415 . S
C1425 C1424 1.355 . S
C1425 C1427 1.419 . S
C1426 C1424 1.415 . S
C1426 C1431 1.425 . S
C1426 C1433 1.409 . S
C1427 H1419 0.930 . S
C1427 C1425 1.419 . S
C1427 C1428 1.362 . S
C1428 H1420 0.930 . S
C1428 C1427 1.362 . S
C1428 C1431 1.409 . S
C1429 H1421 0.930 . S
C1429 C1430 1.355 . S
C1429 C1431 1.415 . S
C1430 C1429 1.355 . S
C1430 C1432 1.419 . S
C1431 C1426 1.425 . S
C1431 C1428 1.409 . S
C1431 C1429 1.415 . S
C1432 H1422 0.930 . S
C1432 C1430 1.419 . S
C1432 C1433 1.362 . S
C1433 H1423 0.930 . S
C1433 C1426 1.409 . S
C1433 C1432 1.362 . S
H1434 C1440 0.930 . S
H1435 C1443 0.930 . S
H1436 C1444 0.930 . S
H1437 C1445 0.930 . S
H1438 C1448 0.930 . S
H1439 C1449 0.930 . S
C1440 H1434 0.930 . S
C1440 C1441 1.355 . S
C1440 C1442 1.415 . S
C1441 C1440 1.355 . S
C1441 C1443 1.419 . S
C1442 C1440 1.415 . S
C1442 C1447 1.425 . S
C1442 C1449 1.409 . S
C1443 H1435 0.930 . S
C1443 C1441 1.419 . S
C1443 C1444 1.362 . S
C1444 H1436 0.930 . S
C1444 C1443 1.362 . S
C1444 C1447 1.409 . S
C1445 H1437 0.930 . S
C1445 C1446 1.355 . S
C1445 C1447 1.415 . S
C1446 C1445 1.355 . S
C1446 C1448 1.419 . S
C1447 C1442 1.425 . S
C1447 C1444 1.409 . S
C1447 C1445 1.415 . S
C1448 H1438 0.930 . S
C1448 C1446 1.419 . S
C1448 C1449 1.362 . S
C1449 H1439 0.930 . S
C1449 C1442 1.409 . S
C1449 C1448 1.362 . S
H1450 C1456 0.930 . S
H1451 C1459 0.930 . S
H1452 C1460 0.930 . S
H1453 C1461 0.930 . S
H1454 C1464 0.930 . S
H1455 C1465 0.930 1_545 S
C1456 H1450 0.930 . S
C1456 C1457 1.355 . S
C1456 C1458 1.415 . S
C1457 C1456 1.355 . S
C1457 C1459 1.419 . S
C1458 C1456 1.415 . S
C1458 C1463 1.425 . S
C1458 C1465 1.409 1_545 S
C1459 H1451 0.930 . S
C1459 C1457 1.419 . S
C1459 C1460 1.362 . S
C1460 H1452 0.930 . S
C1460 C1459 1.362 . S
C1460 C1463 1.409 . S
C1461 H1453 0.930 . S
C1461 C1462 1.355 . S
C1461 C1463 1.415 1_565 S
C1462 C1461 1.355 . S
C1462 C1464 1.419 . S
C1463 C1458 1.425 . S
C1463 C1460 1.409 . S
C1463 C1461 1.415 1_545 S
C1464 H1454 0.930 . S
C1464 C1462 1.419 . S
C1464 C1465 1.362 . S
C1465 H1455 0.930 1_565 S
C1465 C1458 1.409 1_565 S
C1465 C1464 1.362 . S
H1466 C1472 0.930 . S
H1467 C1475 0.930 . S
H1468 C1476 0.930 . S
H1469 C1477 0.930 . S
H1470 C1480 0.930 . S
H1471 C1481 0.930 . S
C1472 H1466 0.930 . S
C1472 C1473 1.355 . S
C1472 C1474 1.415 . S
C1473 C1472 1.355 . S
C1473 C1475 1.419 . S
C1474 C1472 1.415 . S
C1474 C1479 1.425 . S
C1474 C1481 1.409 . S
C1475 H1467 0.930 . S
C1475 C1473 1.419 . S
C1475 C1476 1.362 . S
C1476 H1468 0.930 . S
C1476 C1475 1.362 . S
C1476 C1479 1.409 . S
C1477 H1469 0.930 . S
C1477 C1478 1.355 1_455 S
C1477 C1479 1.415 . S
C1478 C1477 1.355 1_655 S
C1478 C1480 1.419 . S
C1479 C1474 1.425 . S
C1479 C1476 1.409 . S
C1479 C1477 1.415 . S
C1480 H1470 0.930 . S
C1480 C1478 1.419 . S
C1480 C1481 1.362 1_655 S
C1481 H1471 0.930 . S
C1481 C1474 1.409 . S
C1481 C1480 1.362 1_455 S
H1482 C1488 0.930 . S
H1483 C1491 0.930 . S
H1484 C1492 0.930 . S
H1485 C1493 0.930 . S
H1486 C1496 0.930 . S
H1487 C1497 0.930 . S
C1488 H1482 0.930 . S
C1488 C1489 1.355 . S
C1488 C1490 1.415 . S
C1489 C1488 1.355 . S
C1489 C1491 1.419 . S
C1490 C1488 1.415 . S
C1490 C1495 1.425 . S
C1490 C1497 1.409 . S
C1491 H1483 0.930 . S
C1491 C1489 1.419 . S
C1491 C1492 1.362 . S
C1492 H1484 0.930 . S
C1492 C1491 1.362 . S
C1492 C1495 1.409 . S
C1493 H1485 0.930 . S
C1493 C1494 1.355 . S
C1493 C1495 1.415 . S
C1494 C1493 1.355 . S
C1494 C1496 1.419 . S
C1495 C1490 1.425 . S
C1495 C1492 1.409 . S
C1495 C1493 1.415 . S
C1496 H1486 0.930 . S
C1496 C1494 1.419 . S
C1496 C1497 1.362 . S
C1497 H1487 0.930 . S
C1497 C1490 1.409 . S
C1497 C1496 1.362 . S
H1498 C1504 0.930 . S
H1499 C1507 0.930 . S
H1500 C1508 0.930 . S
H1501 C1509 0.930 . S
H1502 C1512 0.930 1_565 S
H1503 C1513 0.930 . S
C1504 H1498 0.930 . S
C1504 C1505 1.355 . S
C1504 C1506 1.415 . S
C1505 C1504 1.355 . S
C1505 C1507 1.419 . S
C1506 C1504 1.415 . S
C1506 C1511 1.425 . S
C1506 C1513 1.409 . S
C1507 H1499 0.930 . S
C1507 C1505 1.419 . S
C1507 C1508 1.362 . S
C1508 H1500 0.930 . S
C1508 C1507 1.362 . S
C1508 C1511 1.409 . S
C1509 H1501 0.930 . S
C1509 C1510 1.355 1_545 S
C1509 C1511 1.415 . S
C1510 C1509 1.355 1_565 S
C1510 C1512 1.419 1_565 S
C1511 C1506 1.425 . S
C1511 C1508 1.409 . S
C1511 C1509 1.415 . S
C1512 H1502 0.930 1_545 S
C1512 C1510 1.419 1_545 S
C1512 C1513 1.362 . S
C1513 H1503 0.930 . S
C1513 C1506 1.409 . S
C1513 C1512 1.362 . S
H1514 C1520 0.930 . S
H1515 C1523 0.930 . S
H1516 C1524 0.930 . S
H1517 C1525 0.930 . S
H1518 C1528 0.930 . S
H1519 C1529 0.930 . S
C1520 H1514 0.930 . S
C1520 C1521 1.355 . S
C1520 C1522 1.415 . S
C1521 C1520 1.355 . S
C1521 C1523 1.419 . S
C1522 C1520 1.415 . S
C1522 C1527 1.430 1_455 S
C1522 C1529 1.409 1_455 S
C1523 H1515 0.930 . S
C1523 C1521 1.419 . S
C1523 C1524 1.362 . S
C1524 H1516 0.930 . S
C1524 C1523 1.362 . S
C1524 C1527 1.370 1_455 S
C1525 H1517 0.930 . S
C1525 C1526 1.355 . S
C1525 C1527 1.451 . S
C1526 C1525 1.355 . S
C1526 C1528 1.419 . S
C1527 C1522 1.430 1_655 S
C1527 C1524 1.370 1_655 S
C1527 C1525 1.451 . S
C1528 H1518 0.930 . S
C1528 C1526 1.419 . S
C1528 C1529 1.362 . S
C1529 H1519 0.930 . S
C1529 C1522 1.409 1_655 S
C1529 C1528 1.362 . S
C961 C250 1.974 1_455 S
C966 C38 1.972 1_655 S
C977 C304 1.971 . S
C982 C92 1.970 . S
C993 C144 1.144 . S
C998 C188 1.150 . S
C1009 C251 1.937 1_655 S
C1014 C39 1.941 . S
C1025 C303 1.940 . S
C1030 C91 1.935 . S
C1041 C145 1.105 . S
C1046 C181 1.111 . S
C1057 C569 1.929 . S
C1062 C356 1.934 . S
C1073 C622 1.930 . S
C1078 C409 1.932 . S
C1089 C462 1.927 . S
C1094 C516 1.933 . S
C1105 C357 1.984 . S
C1110 C568 1.979 1_554 S
C1121 C621 1.981 1_554 S
C1126 C410 1.983 . S
C1137 C515 1.985 1_554 S
C1142 C463 1.981 . S
C1153 C887 1.134 . S
C1158 C665 1.138 . S
C1169 C711 1.140 . S
C1174 C939 1.145 . S
C1185 C824 0.346 . S
C1190 C764 0.329 . S
C1201 C886 1.126 . S
C1206 C658 1.119 . S
C1217 C940 1.122 . S
C1222 C718 1.117 . S
C1233 C771 0.307 . S
C1238 C817 0.291 . S
C1249 C22 1.530 . S
C1254 C506 1.537 . S
C1265 C559 1.500 . S
C1270 C82 1.497 . S
C1281 C612 1.500 . S
C1286 C128 1.499 . S
C1297 C198 1.521 . S
C1302 C675 1.521 . S
C1313 C727 1.517 . S
C1318 C234 1.517 . S
C1329 C780 1.504 . S
C1334 C294 1.505 . S
C1345 C833 1.546 . S
C1350 C29 1.537 . S
C1361 C870 1.515 . S
C1366 C75 1.512 . S
C1377 C930 1.498 . S
C1382 C135 1.493 . S
C1393 C197 1.538 . S
C1398 C347 1.538 . S
C1409 C241 1.509 . S
C1414 C400 1.506 . S
C1425 C453 1.513 . S
C1430 C287 1.511 . S
C1441 C834 1.512 . S
C1446 C340 1.502 . S
C1457 C877 1.536 . S
C1462 C393 1.537 . S
C1473 C446 1.500 . S
C1478 C923 1.506 . S
C1489 C674 1.499 . S
C1494 C499 1.495 . S
C1505 C728 1.502 . S
C1510 C552 1.499 . S
C1521 C605 1.512 . S
C1526 C781 1.511 . S
