# Generated by pormake.
# Topology wnh, (7)-cn, num edge types: 1
# Building blocks:
#     Node 0, Type 0, BuildingBlock: OLANEW_clean_sbu_0, # of connection points: 7
#     Node 1, Type 0, BuildingBlock: OLANEW_clean_sbu_0, # of connection points: 7
#     Node 2, Type 0, BuildingBlock: OLANEW_clean_sbu_0, # of connection points: 7
#     Node 3, Type 0, BuildingBlock: OLANEW_clean_sbu_0, # of connection points: 7
#     Node 4, Type 0, BuildingBlock: OLANEW_clean_sbu_0, # of connection points: 7
#     Node 5, Type 0, BuildingBlock: OLANEW_clean_sbu_0, # of connection points: 7
#     Node 6, Type 0, BuildingBlock: OLANEW_clean_sbu_0, # of connection points: 7
#     Node 7, Type 0, BuildingBlock: OLANEW_clean_sbu_0, # of connection points: 7
#     Node 8, Type 0, BuildingBlock: OLANEW_clean_sbu_0, # of connection points: 7
#     Node 9, Type 0, BuildingBlock: OLANEW_clean_sbu_0, # of connection points: 7
#     Node 10, Type 0, BuildingBlock: OLANEW_clean_sbu_0, # of connection points: 7
#     Node 11, Type 0, BuildingBlock: OLANEW_clean_sbu_0, # of connection points: 7
#     Node 12, Type 0, BuildingBlock: OLANEW_clean_sbu_0, # of connection points: 7
#     Node 13, Type 0, BuildingBlock: OLANEW_clean_sbu_0, # of connection points: 7
#     Node 14, Type 0, BuildingBlock: OLANEW_clean_sbu_0, # of connection points: 7
#     Node 15, Type 0, BuildingBlock: OLANEW_clean_sbu_0, # of connection points: 7
#     Node 16, Type 0, BuildingBlock: OLANEW_clean_sbu_0, # of connection points: 7
#     Node 17, Type 0, BuildingBlock: OLANEW_clean_sbu_0, # of connection points: 7
#     Node 18, Type 0, BuildingBlock: OLANEW_clean_sbu_0, # of connection points: 7
#     Node 19, Type 0, BuildingBlock: OLANEW_clean_sbu_0, # of connection points: 7
#     Node 20, Type 0, BuildingBlock: OLANEW_clean_sbu_0, # of connection points: 7
#     Node 21, Type 0, BuildingBlock: OLANEW_clean_sbu_0, # of connection points: 7
#     Node 22, Type 0, BuildingBlock: OLANEW_clean_sbu_0, # of connection points: 7
#     Node 23, Type 0, BuildingBlock: OLANEW_clean_sbu_0, # of connection points: 7
#     Node 24, Type 0, BuildingBlock: OLANEW_clean_sbu_0, # of connection points: 7
#     Node 25, Type 0, BuildingBlock: OLANEW_clean_sbu_0, # of connection points: 7
#     Node 26, Type 0, BuildingBlock: OLANEW_clean_sbu_0, # of connection points: 7
#     Node 27, Type 0, BuildingBlock: OLANEW_clean_sbu_0, # of connection points: 7
#     Node 28, Type 0, BuildingBlock: OLANEW_clean_sbu_0, # of connection points: 7
#     Node 29, Type 0, BuildingBlock: OLANEW_clean_sbu_0, # of connection points: 7
#     Node 30, Type 0, BuildingBlock: OLANEW_clean_sbu_0, # of connection points: 7
#     Node 31, Type 0, BuildingBlock: OLANEW_clean_sbu_0, # of connection points: 7
#     Node 32, Type 0, BuildingBlock: OLANEW_clean_sbu_0, # of connection points: 7
#     Node 33, Type 0, BuildingBlock: OLANEW_clean_sbu_0, # of connection points: 7
#     Node 34, Type 0, BuildingBlock: OLANEW_clean_sbu_0, # of connection points: 7
#     Node 35, Type 0, BuildingBlock: OLANEW_clean_sbu_0, # of connection points: 7
#     Edge 36, Type (0, 0), BuildingBlock: UVAHIK_clean_linker_0, # of connection points: 2
#     Edge 37, Type (0, 0), BuildingBlock: UVAHIK_clean_linker_0, # of connection points: 2
#     Edge 38, Type (0, 0), BuildingBlock: UVAHIK_clean_linker_0, # of connection points: 2
#     Edge 39, Type (0, 0), BuildingBlock: UVAHIK_clean_linker_0, # of connection points: 2
#     Edge 40, Type (0, 0), BuildingBlock: UVAHIK_clean_linker_0, # of connection points: 2
#     Edge 41, Type (0, 0), BuildingBlock: UVAHIK_clean_linker_0, # of connection points: 2
#     Edge 42, Type (0, 0), BuildingBlock: UVAHIK_clean_linker_0, # of connection points: 2
#     Edge 43, Type (0, 0), BuildingBlock: UVAHIK_clean_linker_0, # of connection points: 2
#     Edge 44, Type (0, 0), BuildingBlock: UVAHIK_clean_linker_0, # of connection points: 2
#     Edge 45, Type (0, 0), BuildingBlock: UVAHIK_clean_linker_0, # of connection points: 2
#     Edge 46, Type (0, 0), BuildingBlock: UVAHIK_clean_linker_0, # of connection points: 2
#     Edge 47, Type (0, 0), BuildingBlock: UVAHIK_clean_linker_0, # of connection points: 2
#     Edge 48, Type (0, 0), BuildingBlock: UVAHIK_clean_linker_0, # of connection points: 2
#     Edge 49, Type (0, 0), BuildingBlock: UVAHIK_clean_linker_0, # of connection points: 2
#     Edge 50, Type (0, 0), BuildingBlock: UVAHIK_clean_linker_0, # of connection points: 2
#     Edge 51, Type (0, 0), BuildingBlock: UVAHIK_clean_linker_0, # of connection points: 2
#     Edge 52, Type (0, 0), BuildingBlock: UVAHIK_clean_linker_0, # of connection points: 2
#     Edge 53, Type (0, 0), BuildingBlock: UVAHIK_clean_linker_0, # of connection points: 2
#     Edge 54, Type (0, 0), BuildingBlock: UVAHIK_clean_linker_0, # of connection points: 2
#     Edge 55, Type (0, 0), BuildingBlock: UVAHIK_clean_linker_0, # of connection points: 2
#     Edge 56, Type (0, 0), BuildingBlock: UVAHIK_clean_linker_0, # of connection points: 2
#     Edge 57, Type (0, 0), BuildingBlock: UVAHIK_clean_linker_0, # of connection points: 2
#     Edge 58, Type (0, 0), BuildingBlock: UVAHIK_clean_linker_0, # of connection points: 2
#     Edge 59, Type (0, 0), BuildingBlock: UVAHIK_clean_linker_0, # of connection points: 2
#     Edge 60, Type (0, 0), BuildingBlock: UVAHIK_clean_linker_0, # of connection points: 2
#     Edge 61, Type (0, 0), BuildingBlock: UVAHIK_clean_linker_0, # of connection points: 2
#     Edge 62, Type (0, 0), BuildingBlock: UVAHIK_clean_linker_0, # of connection points: 2
#     Edge 63, Type (0, 0), BuildingBlock: UVAHIK_clean_linker_0, # of connection points: 2
#     Edge 64, Type (0, 0), BuildingBlock: UVAHIK_clean_linker_0, # of connection points: 2
#     Edge 65, Type (0, 0), BuildingBlock: UVAHIK_clean_linker_0, # of connection points: 2
#     Edge 66, Type (0, 0), BuildingBlock: UVAHIK_clean_linker_0, # of connection points: 2
#     Edge 67, Type (0, 0), BuildingBlock: UVAHIK_clean_linker_0, # of connection points: 2
#     Edge 68, Type (0, 0), BuildingBlock: UVAHIK_clean_linker_0, # of connection points: 2
#     Edge 69, Type (0, 0), BuildingBlock: UVAHIK_clean_linker_0, # of connection points: 2
#     Edge 70, Type (0, 0), BuildingBlock: UVAHIK_clean_linker_0, # of connection points: 2
#     Edge 71, Type (0, 0), BuildingBlock: UVAHIK_clean_linker_0, # of connection points: 2
#     Edge 72, Type (0, 0), BuildingBlock: UVAHIK_clean_linker_0, # of connection points: 2
#     Edge 73, Type (0, 0), BuildingBlock: UVAHIK_clean_linker_0, # of connection points: 2
#     Edge 74, Type (0, 0), BuildingBlock: UVAHIK_clean_linker_0, # of connection points: 2
#     Edge 75, Type (0, 0), BuildingBlock: UVAHIK_clean_linker_0, # of connection points: 2
#     Edge 76, Type (0, 0), BuildingBlock: UVAHIK_clean_linker_0, # of connection points: 2
#     Edge 77, Type (0, 0), BuildingBlock: UVAHIK_clean_linker_0, # of connection points: 2
#     Edge 78, Type (0, 0), BuildingBlock: UVAHIK_clean_linker_0, # of connection points: 2
#     Edge 79, Type (0, 0), BuildingBlock: UVAHIK_clean_linker_0, # of connection points: 2
#     Edge 80, Type (0, 0), BuildingBlock: UVAHIK_clean_linker_0, # of connection points: 2
#     Edge 81, Type (0, 0), BuildingBlock: UVAHIK_clean_linker_0, # of connection points: 2
#     Edge 82, Type (0, 0), BuildingBlock: UVAHIK_clean_linker_0, # of connection points: 2
#     Edge 83, Type (0, 0), BuildingBlock: UVAHIK_clean_linker_0, # of connection points: 2
#     Edge 84, Type (0, 0), BuildingBlock: UVAHIK_clean_linker_0, # of connection points: 2
#     Edge 85, Type (0, 0), BuildingBlock: UVAHIK_clean_linker_0, # of connection points: 2
#     Edge 86, Type (0, 0), BuildingBlock: UVAHIK_clean_linker_0, # of connection points: 2
#     Edge 87, Type (0, 0), BuildingBlock: UVAHIK_clean_linker_0, # of connection points: 2
#     Edge 88, Type (0, 0), BuildingBlock: UVAHIK_clean_linker_0, # of connection points: 2
#     Edge 89, Type (0, 0), BuildingBlock: UVAHIK_clean_linker_0, # of connection points: 2
#     Edge 90, Type (0, 0), BuildingBlock: UVAHIK_clean_linker_0, # of connection points: 2
#     Edge 91, Type (0, 0), BuildingBlock: UVAHIK_clean_linker_0, # of connection points: 2
#     Edge 92, Type (0, 0), BuildingBlock: UVAHIK_clean_linker_0, # of connection points: 2
#     Edge 93, Type (0, 0), BuildingBlock: UVAHIK_clean_linker_0, # of connection points: 2
#     Edge 94, Type (0, 0), BuildingBlock: UVAHIK_clean_linker_0, # of connection points: 2
#     Edge 95, Type (0, 0), BuildingBlock: UVAHIK_clean_linker_0, # of connection points: 2
#     Edge 96, Type (0, 0), BuildingBlock: UVAHIK_clean_linker_0, # of connection points: 2
#     Edge 97, Type (0, 0), BuildingBlock: UVAHIK_clean_linker_0, # of connection points: 2
#     Edge 98, Type (0, 0), BuildingBlock: UVAHIK_clean_linker_0, # of connection points: 2
#     Edge 99, Type (0, 0), BuildingBlock: UVAHIK_clean_linker_0, # of connection points: 2
#     Edge 100, Type (0, 0), BuildingBlock: UVAHIK_clean_linker_0, # of connection points: 2
#     Edge 101, Type (0, 0), BuildingBlock: UVAHIK_clean_linker_0, # of connection points: 2
#     Edge 102, Type (0, 0), BuildingBlock: UVAHIK_clean_linker_0, # of connection points: 2
#     Edge 103, Type (0, 0), BuildingBlock: UVAHIK_clean_linker_0, # of connection points: 2
#     Edge 104, Type (0, 0), BuildingBlock: UVAHIK_clean_linker_0, # of connection points: 2
#     Edge 105, Type (0, 0), BuildingBlock: UVAHIK_clean_linker_0, # of connection points: 2
#     Edge 106, Type (0, 0), BuildingBlock: UVAHIK_clean_linker_0, # of connection points: 2
#     Edge 107, Type (0, 0), BuildingBlock: UVAHIK_clean_linker_0, # of connection points: 2
#     Edge 108, Type (0, 0), BuildingBlock: UVAHIK_clean_linker_0, # of connection points: 2
#     Edge 109, Type (0, 0), BuildingBlock: UVAHIK_clean_linker_0, # of connection points: 2
#     Edge 110, Type (0, 0), BuildingBlock: UVAHIK_clean_linker_0, # of connection points: 2
#     Edge 111, Type (0, 0), BuildingBlock: UVAHIK_clean_linker_0, # of connection points: 2
#     Edge 112, Type (0, 0), BuildingBlock: UVAHIK_clean_linker_0, # of connection points: 2
#     Edge 113, Type (0, 0), BuildingBlock: UVAHIK_clean_linker_0, # of connection points: 2
#     Edge 114, Type (0, 0), BuildingBlock: UVAHIK_clean_linker_0, # of connection points: 2
#     Edge 115, Type (0, 0), BuildingBlock: UVAHIK_clean_linker_0, # of connection points: 2
#     Edge 116, Type (0, 0), BuildingBlock: UVAHIK_clean_linker_0, # of connection points: 2
#     Edge 117, Type (0, 0), BuildingBlock: UVAHIK_clean_linker_0, # of connection points: 2
#     Edge 118, Type (0, 0), BuildingBlock: UVAHIK_clean_linker_0, # of connection points: 2
#     Edge 119, Type (0, 0), BuildingBlock: UVAHIK_clean_linker_0, # of connection points: 2
#     Edge 120, Type (0, 0), BuildingBlock: UVAHIK_clean_linker_0, # of connection points: 2
#     Edge 121, Type (0, 0), BuildingBlock: UVAHIK_clean_linker_0, # of connection points: 2
#     Edge 122, Type (0, 0), BuildingBlock: UVAHIK_clean_linker_0, # of connection points: 2
#     Edge 123, Type (0, 0), BuildingBlock: UVAHIK_clean_linker_0, # of connection points: 2
#     Edge 124, Type (0, 0), BuildingBlock: UVAHIK_clean_linker_0, # of connection points: 2
#     Edge 125, Type (0, 0), BuildingBlock: UVAHIK_clean_linker_0, # of connection points: 2
#     Edge 126, Type (0, 0), BuildingBlock: UVAHIK_clean_linker_0, # of connection points: 2
#     Edge 127, Type (0, 0), BuildingBlock: UVAHIK_clean_linker_0, # of connection points: 2
#     Edge 128, Type (0, 0), BuildingBlock: UVAHIK_clean_linker_0, # of connection points: 2
#     Edge 129, Type (0, 0), BuildingBlock: UVAHIK_clean_linker_0, # of connection points: 2
#     Edge 130, Type (0, 0), BuildingBlock: UVAHIK_clean_linker_0, # of connection points: 2
#     Edge 131, Type (0, 0), BuildingBlock: UVAHIK_clean_linker_0, # of connection points: 2
#     Edge 132, Type (0, 0), BuildingBlock: UVAHIK_clean_linker_0, # of connection points: 2
#     Edge 133, Type (0, 0), BuildingBlock: UVAHIK_clean_linker_0, # of connection points: 2
#     Edge 134, Type (0, 0), BuildingBlock: UVAHIK_clean_linker_0, # of connection points: 2
#     Edge 135, Type (0, 0), BuildingBlock: UVAHIK_clean_linker_0, # of connection points: 2
#     Edge 136, Type (0, 0), BuildingBlock: UVAHIK_clean_linker_0, # of connection points: 2
#     Edge 137, Type (0, 0), BuildingBlock: UVAHIK_clean_linker_0, # of connection points: 2
#     Edge 138, Type (0, 0), BuildingBlock: UVAHIK_clean_linker_0, # of connection points: 2
#     Edge 139, Type (0, 0), BuildingBlock: UVAHIK_clean_linker_0, # of connection points: 2
#     Edge 140, Type (0, 0), BuildingBlock: UVAHIK_clean_linker_0, # of connection points: 2
#     Edge 141, Type (0, 0), BuildingBlock: UVAHIK_clean_linker_0, # of connection points: 2
#     Edge 142, Type (0, 0), BuildingBlock: UVAHIK_clean_linker_0, # of connection points: 2
#     Edge 143, Type (0, 0), BuildingBlock: UVAHIK_clean_linker_0, # of connection points: 2
#     Edge 144, Type (0, 0), BuildingBlock: UVAHIK_clean_linker_0, # of connection points: 2
#     Edge 145, Type (0, 0), BuildingBlock: UVAHIK_clean_linker_0, # of connection points: 2
#     Edge 146, Type (0, 0), BuildingBlock: UVAHIK_clean_linker_0, # of connection points: 2
#     Edge 147, Type (0, 0), BuildingBlock: UVAHIK_clean_linker_0, # of connection points: 2
#     Edge 148, Type (0, 0), BuildingBlock: UVAHIK_clean_linker_0, # of connection points: 2
#     Edge 149, Type (0, 0), BuildingBlock: UVAHIK_clean_linker_0, # of connection points: 2
#     Edge 150, Type (0, 0), BuildingBlock: UVAHIK_clean_linker_0, # of connection points: 2
#     Edge 151, Type (0, 0), BuildingBlock: UVAHIK_clean_linker_0, # of connection points: 2
#     Edge 152, Type (0, 0), BuildingBlock: UVAHIK_clean_linker_0, # of connection points: 2
#     Edge 153, Type (0, 0), BuildingBlock: UVAHIK_clean_linker_0, # of connection points: 2
#     Edge 154, Type (0, 0), BuildingBlock: UVAHIK_clean_linker_0, # of connection points: 2
#     Edge 155, Type (0, 0), BuildingBlock: UVAHIK_clean_linker_0, # of connection points: 2
#     Edge 156, Type (0, 0), BuildingBlock: UVAHIK_clean_linker_0, # of connection points: 2
#     Edge 157, Type (0, 0), BuildingBlock: UVAHIK_clean_linker_0, # of connection points: 2
#     Edge 158, Type (0, 0), BuildingBlock: UVAHIK_clean_linker_0, # of connection points: 2
#     Edge 159, Type (0, 0), BuildingBlock: UVAHIK_clean_linker_0, # of connection points: 2
#     Edge 160, Type (0, 0), BuildingBlock: UVAHIK_clean_linker_0, # of connection points: 2
#     Edge 161, Type (0, 0), BuildingBlock: UVAHIK_clean_linker_0, # of connection points: 2
# Relax obj value: 0.123
# Max RMSD: 0.238
# Mean RMSD: 0.238
data_MOF--net-wnh--node1-OLANEW_clean_sbu_0--edge1-UVAHIK_clean_linker_0
_symmetry_space_group_name_H-M    P1
_symmetry_Int_Tables_number       1
_symmetry_cell_setting            triclinic
loop_
_symmetry_equiv_pos_as_xyz
'x, y, z'
_cell_length_a     103.87607
_cell_length_b     103.85909
_cell_length_c     56.57677
_cell_angle_alpha  89.993791
_cell_angle_beta   90.023836
_cell_angle_gamma 120.01534
loop_
_atom_site_label
_atom_site_type_symbol
_atom_site_fract_x
_atom_site_fract_y
_atom_site_fract_z
_atom_type_partial_charge
Cd0 Cd 0.23413 0.10614 1.00615 0.0
C1 C 0.26223 0.10688 0.98884 0.0
C2 C 0.19848 0.06552 0.12338 0.0
O3 O 0.18756 0.05191 0.12725 0.0
Cd4 Cd 0.27362 0.14488 0.98947 0.0
C5 C 0.19781 0.07863 0.13141 0.0
C6 C 0.20295 0.10651 0.14607 0.0
C7 C 0.21316 0.10494 0.13204 0.0
N8 N 0.20972 0.09132 0.12493 0.0
C9 C 0.18711 0.07927 0.14558 0.0
C10 C 0.18974 0.09345 0.15273 0.0
Co11 Co 0.22461 0.08975 0.11004 0.0
C12 C 0.22781 0.11648 0.12337 0.0
O13 O 0.23266 0.13077 0.12588 0.0
C14 C 0.24829 0.12058 0.09681 0.0
C15 C 0.24718 0.12542 0.07407 0.0
C16 C 0.26017 0.13447 0.06108 0.0
C17 C 0.274 0.13811 0.07056 0.0
C18 C 0.2751 0.13335 0.09311 0.0
C19 C 0.26218 0.12476 0.10632 0.0
C20 C 0.25995 0.13929 0.03682 0.0
C21 C 0.21222 0.05724 0.09816 0.0
C22 C 0.20076 0.04846 0.08234 0.0
C23 C 0.22375 0.05418 0.10176 0.0
C24 C 0.22398 0.04273 0.08921 0.0
C25 C 0.21254 0.03402 0.07343 0.0
C26 C 0.20055 0.03656 0.07031 0.0
N27 N 0.21128 0.06839 0.11181 0.0
N28 N 0.23536 0.11126 0.11046 0.0
N29 N 0.21784 0.08987 0.07763 0.0
C30 C 0.20393 0.08879 0.07121 0.0
C31 C 0.19342 0.0767 0.05791 0.0
C32 C 0.20062 0.09964 0.07867 0.0
C33 C 0.17935 0.07497 0.0532 0.0
H34 H 0.1962 0.06859 0.05143 0.0
C35 C 0.17591 0.08554 0.06205 0.0
C36 C 0.18647 0.0979 0.07494 0.0
C37 C 0.16815 0.06202 0.03942 0.0
H38 H 0.20914 0.10956 0.0871 0.0
H39 H 0.16502 0.08419 0.05884 0.0
C40 C 0.18274 0.10897 0.08443 0.0
O41 O 0.15476 0.0606 0.03455 0.0
O42 O 0.17095 0.05255 0.03239 0.0
O43 O 0.19173 0.11936 0.09652 0.0
O44 O 0.1694 0.10769 0.07967 0.0
H45 H 0.1473 0.05225 0.0256 0.0
H46 H 0.1668 0.11485 0.08551 0.0
N47 N 0.23989 0.08857 0.09585 0.0
C48 C 0.25044 0.08935 0.11023 0.0
C49 C 0.2628 0.08945 0.1002 0.0
C50 C 0.26365 0.08922 0.07526 0.0
C51 C 0.25228 0.08885 0.06098 0.0
C52 C 0.24018 0.08861 0.07228 0.0
N53 N 0.23389 0.08935 0.14005 0.0
C54 C 0.24698 0.08964 0.13541 0.0
O55 O 0.25506 0.08851 0.15231 0.0
C56 C 0.22739 0.08892 0.06162 0.0
O57 O 0.22132 0.11623 0.02602 0.0
O58 O 0.20876 0.10099 0.99745 0.0
C59 C 0.22675 0.08445 0.16277 0.0
C60 C 0.22951 0.09485 0.18091 0.0
C61 C 0.22361 0.08991 0.2037 0.0
C62 C 0.21489 0.07466 0.20807 0.0
C63 C 0.21266 0.06421 0.1907 0.0
C64 C 0.21879 0.06911 0.16813 0.0
O65 O 0.25008 0.09492 0.9926 0.0
O66 O 0.26216 0.11872 0.99284 0.0
O67 O 0.25212 0.12996 0.02125 0.0
O68 O 0.27052 0.15161 0.02954 0.0
O69 O 0.22466 0.08687 0.03804 0.0
C70 C 0.24442 0.12727 0.9506 0.0
O71 O 0.25541 0.13935 0.95844 0.0
O72 O 0.23738 0.11556 0.96351 0.0
C73 C 0.20954 0.10995 0.01364 0.0
H74 H 0.20513 0.11734 0.15193 0.0
H75 H 0.17726 0.06925 0.15131 0.0
H76 H 0.18168 0.09429 0.16375 0.0
H77 H 0.23636 0.1222 0.06672 0.0
H78 H 0.28399 0.14454 0.06017 0.0
H79 H 0.26282 0.12147 0.12426 0.0
H80 H 0.19171 0.05068 0.08007 0.0
H81 H 0.23225 0.06018 0.11482 0.0
H82 H 0.21277 0.02488 0.06465 0.0
H83 H 0.27153 0.08982 0.11113 0.0
H84 H 0.27314 0.08943 0.06701 0.0
H85 H 0.25305 0.08894 0.0419 0.0
H86 H 0.23653 0.10663 0.17745 0.0
H87 H 0.21061 0.07084 0.22575 0.0
H88 H 0.21767 0.06105 0.15496 0.0
Cd89 Cd 0.88833 0.12639 0.00802 0.0
C90 C 0.88462 0.15437 0.9975 0.0
C91 C 0.92982 0.1345 0.12467 0.0
O92 O 0.94376 0.13828 0.12855 0.0
Cd93 Cd 0.85093 0.12891 0.99646 0.0
C94 C 0.91741 0.12013 0.13244 0.0
C95 C 0.8904 0.09579 0.14666 0.0
C96 C 0.89098 0.10717 0.13266 0.0
N97 N 0.90426 0.11817 0.12576 0.0
C98 C 0.91775 0.10925 0.1466 0.0
C99 C 0.90402 0.0969 0.15352 0.0
Co100 Co 0.90439 0.13403 0.11111 0.0
C101 C 0.87868 0.10908 0.12399 0.0
O102 O 0.86466 0.09869 0.12619 0.0
C103 C 0.87291 0.12404 0.09692 0.0
C104 C 0.86826 0.11737 0.07447 0.0
C105 C 0.85796 0.11955 0.06139 0.0
C106 C 0.85274 0.12857 0.07066 0.0
C107 C 0.85772 0.13545 0.09248 0.0
C108 C 0.86762 0.13299 0.10574 0.0
C109 C 0.85356 0.11418 0.03706 0.0
C110 C 0.93633 0.15588 0.09879 0.0
C111 C 0.94531 0.15365 0.0828 0.0
C112 C 0.93806 0.17009 0.10109 0.0
C113 C 0.94808 0.18169 0.08661 0.0
C114 C 0.95673 0.17929 0.07022 0.0
C115 C 0.95568 0.1653 0.06871 0.0
N116 N 0.92594 0.14371 0.11315 0.0
N117 N 0.88295 0.12174 0.11115 0.0
N118 N 0.90507 0.12771 0.07863 0.0
C119 C 0.90675 0.1153 0.07183 0.0
C120 C 0.91913 0.11754 0.05867 0.0
C121 C 0.89603 0.10083 0.07825 0.0
C122 C 0.92129 0.10556 0.0531 0.0
H123 H 0.9271 0.12866 0.05287 0.0
C124 C 0.91075 0.09119 0.06071 0.0
C125 C 0.89806 0.08871 0.07331 0.0
C126 C 0.93461 0.10805 0.03964 0.0
H127 H 0.88594 0.09894 0.08669 0.0
H128 H 0.91238 0.08191 0.05669 0.0
C129 C 0.88694 0.0735 0.08127 0.0
O130 O 0.93652 0.09646 0.03415 0.0
O131 O 0.94395 0.1206 0.03348 0.0
O132 O 0.87618 0.07145 0.09297 0.0
O133 O 0.88862 0.06179 0.07557 0.0
H134 H 0.94513 0.09783 0.02543 0.0
H135 H 0.88146 0.05177 0.08044 0.0
N136 N 0.90411 0.14986 0.09714 0.0
C137 C 0.90278 0.15926 0.11162 0.0
C138 C 0.90251 0.17148 0.10176 0.0
C139 C 0.90304 0.17284 0.07685 0.0
C140 C 0.90399 0.16221 0.06245 0.0
C141 C 0.90449 0.15045 0.07361 0.0
N142 N 0.90382 0.14314 0.14125 0.0
C143 C 0.90263 0.15547 0.13673 0.0
O144 O 0.90311 0.16435 0.15372 0.0
C145 C 0.90534 0.13801 0.06283 0.0
O146 O 0.87983 0.1025 0.02395 0.0
O147 O 0.89652 0.10886 0.99629 0.0
C148 C 0.90888 0.14127 0.1641 0.0
C149 C 0.89852 0.1338 0.18236 0.0
C150 C 0.90351 0.13365 0.20545 0.0
C151 C 0.91877 0.14075 0.21008 0.0
C152 C 0.92915 0.14876 0.19254 0.0
C153 C 0.9242 0.14924 0.16963 0.0
O154 O 0.89479 0.15155 0.99175 0.0
O155 O 0.87515 0.1458 0.01241 0.0
O156 O 0.86343 0.11727 0.02154 0.0
O157 O 0.841 0.11166 0.02961 0.0
O158 O 0.90763 0.1377 0.03931 0.0
C159 C 0.86998 0.12039 0.95239 0.0
O160 O 0.85923 0.12156 0.96097 0.0
O161 O 0.88099 0.12227 0.96517 0.0
C162 C 0.8876 0.09906 0.0109 0.0
H163 H 0.87989 0.08654 0.15239 0.0
H164 H 0.92818 0.11037 0.15251 0.0
H165 H 0.90394 0.08834 0.16455 0.0
H166 H 0.87256 0.1106 0.06737 0.0
H167 H 0.84515 0.13073 0.06051 0.0
H168 H 0.87105 0.13783 0.12318 0.0
H169 H 0.94441 0.14282 0.08167 0.0
H170 H 0.93203 0.17237 0.11439 0.0
H171 H 0.9647 0.18854 0.05963 0.0
H172 H 0.90184 0.17963 0.11281 0.0
H173 H 0.9027 0.18209 0.06873 0.0
H174 H 0.90431 0.16318 0.04339 0.0
H175 H 0.88672 0.12869 0.17877 0.0
H176 H 0.92259 0.14086 0.22799 0.0
H177 H 0.93219 0.15621 0.15641 0.0
Cd178 Cd 0.86712 0.75903 1.00613 0.0
C179 C 0.84089 0.72948 0.98985 0.0
C180 C 0.86025 0.79368 0.12375 0.0
O181 O 0.85685 0.80407 0.12807 0.0
Cd182 Cd 0.87042 0.72184 0.9893 0.0
C183 C 0.8744 0.7951 0.13151 0.0
C184 C 0.89803 0.79132 0.14589 0.0
C185 C 0.88657 0.78089 0.13157 0.0
N186 N 0.87595 0.78371 0.12455 0.0
C187 C 0.88538 0.80598 0.14598 0.0
C188 C 0.89739 0.80405 0.15296 0.0
Co189 Co 0.85979 0.76834 0.10976 0.0
C190 C 0.8841 0.76646 0.12295 0.0
O191 O 0.89402 0.76223 0.12543 0.0
C192 C 0.86847 0.74576 0.09629 0.0
C193 C 0.87487 0.74731 0.0738 0.0
C194 C 0.87218 0.73457 0.06109 0.0
C195 C 0.86291 0.72049 0.0707 0.0
C196 C 0.8563 0.71902 0.09268 0.0
C197 C 0.85929 0.73169 0.1056 0.0
C198 C 0.87737 0.73526 0.03681 0.0
C199 C 0.83879 0.77969 0.0976 0.0
C200 C 0.84127 0.79143 0.08252 0.0
C201 C 0.82433 0.7677 0.10029 0.0
C202 C 0.81261 0.76731 0.08758 0.0
C203 C 0.81514 0.77906 0.07262 0.0
C204 C 0.82949 0.7915 0.07053 0.0
N205 N 0.85084 0.78088 0.11168 0.0
N206 N 0.87137 0.75844 0.11009 0.0
N207 N 0.86642 0.77521 0.07735 0.0
C208 C 0.87914 0.78911 0.07071 0.0
C209 C 0.87736 0.79959 0.05771 0.0
C210 C 0.89344 0.7923 0.07712 0.0
C211 C 0.88969 0.8135 0.05211 0.0
H212 H 0.86634 0.79687 0.05204 0.0
C213 C 0.90391 0.81678 0.05968 0.0
C214 C 0.90589 0.80623 0.07225 0.0
C215 C 0.88774 0.82465 0.03855 0.0
H216 H 0.89492 0.78381 0.08551 0.0
H217 H 0.91346 0.82752 0.05563 0.0
C218 C 0.92095 0.80974 0.08012 0.0
O219 O 0.89969 0.83782 0.03266 0.0
O220 O 0.87532 0.822 0.03263 0.0
O221 O 0.9226 0.80069 0.09162 0.0
O222 O 0.93297 0.82294 0.07453 0.0
H223 H 0.89868 0.84525 0.02383 0.0
H224 H 0.94289 0.82539 0.07928 0.0
N225 N 0.84367 0.7526 0.09565 0.0
C226 C 0.8341 0.74193 0.11007 0.0
C227 C 0.82192 0.72945 0.10011 0.0
C228 C 0.82074 0.72858 0.07517 0.0
C229 C 0.83155 0.74008 0.06085 0.0
C230 C 0.84329 0.75232 0.07209 0.0
N231 N 0.85041 0.75884 0.13978 0.0
C232 C 0.83786 0.7455 0.1352 0.0
O233 O 0.82886 0.73721 0.15215 0.0
C234 C 0.85609 0.76536 0.06141 0.0
O235 O 0.89064 0.77397 0.02373 0.0
O236 O 0.88489 0.78502 0.99636 0.0
C237 C 0.85248 0.76585 0.16257 0.0
C238 C 0.86089 0.76377 0.1802 0.0
C239 C 0.86117 0.76881 0.20341 0.0
C240 C 0.85299 0.77578 0.20883 0.0
C241 C 0.84407 0.77732 0.19194 0.0
C242 C 0.84389 0.77245 0.16871 0.0
O243 O 0.84014 0.74113 0.99377 0.0
O244 O 0.85342 0.73066 0.99273 0.0
O245 O 0.87498 0.74255 0.02131 0.0
O246 O 0.88023 0.72545 0.02945 0.0
O247 O 0.8567 0.76794 0.03781 0.0
C248 C 0.87932 0.75047 0.95057 0.0
O249 O 0.88207 0.74056 0.95859 0.0
O250 O 0.87343 0.7564 0.9634 0.0
C251 C 0.89439 0.7855 0.01127 0.0
H252 H 0.90698 0.7896 0.15176 0.0
H253 H 0.88458 0.81543 0.1521 0.0
H254 H 0.90601 0.81224 0.16425 0.0
H255 H 0.88187 0.75827 0.0664 0.0
H256 H 0.86043 0.71058 0.06075 0.0
H257 H 0.85476 0.73067 0.1232 0.0
H258 H 0.85241 0.80083 0.0809 0.0
H259 H 0.82192 0.75897 0.11284 0.0
H260 H 0.80574 0.7787 0.06376 0.0
H261 H 0.81367 0.72066 0.11109 0.0
H262 H 0.81151 0.71899 0.06698 0.0
H263 H 0.83076 0.73933 0.04178 0.0
H264 H 0.86671 0.75784 0.17604 0.0
H265 H 0.85287 0.77925 0.2269 0.0
H266 H 0.83649 0.77302 0.1558 0.0
Cd267 Cd 0.10443 0.23342 0.51103 0.0
C268 C 0.10842 0.26287 0.52743 0.0
C269 C 0.06221 0.19928 0.39441 0.0
O270 O 0.0481 0.18954 0.39078 0.0
Cd271 Cd 0.14486 0.27059 0.52728 0.0
C272 C 0.07412 0.19668 0.38622 0.0
C273 C 0.10041 0.19836 0.37048 0.0
C274 C 0.10051 0.20933 0.38493 0.0
N275 N 0.08754 0.20751 0.39263 0.0
C276 C 0.07309 0.18531 0.37166 0.0
C277 C 0.08647 0.18616 0.364 0.0
Co278 Co 0.08828 0.22368 0.40734 0.0
C279 C 0.11325 0.22338 0.39309 0.0
O280 O 0.1271 0.2267 0.38972 0.0
C281 C 0.12039 0.24488 0.41894 0.0
C282 C 0.12463 0.24382 0.44215 0.0
C283 C 0.13568 0.25663 0.45369 0.0
C284 C 0.14231 0.27028 0.44184 0.0
C285 C 0.13758 0.27128 0.41925 0.0
C286 C 0.12685 0.25855 0.40765 0.0
C287 C 0.13881 0.25676 0.479 0.0
C288 C 0.05669 0.21459 0.42081 0.0
C289 C 0.04754 0.20328 0.4365 0.0
C290 C 0.05484 0.22697 0.41822 0.0
C291 C 0.04401 0.22798 0.43142 0.0
C292 C 0.0347 0.21649 0.44675 0.0
C293 C 0.03609 0.20373 0.44884 0.0
N294 N 0.06671 0.2125 0.406 0.0
N295 N 0.10962 0.23208 0.40641 0.0
N296 N 0.08767 0.21675 0.43991 0.0
C297 C 0.08549 0.20244 0.44662 0.0
C298 C 0.07329 0.19274 0.46052 0.0
C299 C 0.09547 0.19797 0.43905 0.0
C300 C 0.07054 0.17833 0.46567 0.0
H301 H 0.06588 0.19639 0.46716 0.0
C302 C 0.08023 0.17375 0.45673 0.0
C303 C 0.09272 0.1835 0.44329 0.0
C304 C 0.05745 0.16799 0.48007 0.0
H305 H 0.10555 0.20587 0.43024 0.0
H306 H 0.0781 0.16261 0.46032 0.0
C307 C 0.10294 0.17861 0.43386 0.0
O308 O 0.05508 0.15429 0.48538 0.0
O309 O 0.04873 0.17179 0.48719 0.0
O310 O 0.11341 0.1869 0.42126 0.0
O311 O 0.10077 0.16499 0.43921 0.0
H312 H 0.04662 0.14737 0.49473 0.0
H313 H 0.10736 0.16164 0.4334 0.0
N314 N 0.0894 0.24019 0.42127 0.0
C315 C 0.09106 0.25103 0.40672 0.0
C316 C 0.09214 0.2639 0.41653 0.0
C317 C 0.09184 0.26488 0.44145 0.0
C318 C 0.09035 0.25309 0.45591 0.0
C319 C 0.08915 0.24049 0.44482 0.0
N320 N 0.08891 0.23337 0.37721 0.0
C321 C 0.09073 0.24715 0.38161 0.0
O322 O 0.09059 0.2557 0.36457 0.0
C323 C 0.08774 0.22697 0.4557 0.0
O324 O 0.11361 0.21948 0.49233 0.0
O325 O 0.0976 0.20754 0.52034 0.0
C326 C 0.08409 0.2265 0.35428 0.0
C327 C 0.09464 0.22943 0.33634 0.0
C328 C 0.08989 0.22377 0.31341 0.0
C329 C 0.07469 0.21497 0.30872 0.0
C330 C 0.06405 0.21265 0.32583 0.0
C331 C 0.0688 0.21879 0.34848 0.0
O332 O 0.09557 0.25174 0.52401 0.0
O333 O 0.11904 0.2607 0.52321 0.0
O334 O 0.12833 0.24959 0.4934 0.0
O335 O 0.15115 0.2666 0.48749 0.0
O336 O 0.0852 0.22439 0.47924 0.0
C337 C 0.12535 0.24239 0.56682 0.0
O338 O 0.13793 0.25262 0.55907 0.0
O339 O 0.11366 0.23615 0.55371 0.0
C340 C 0.10654 0.20773 0.5046 0.0
H341 H 0.11065 0.19927 0.3641 0.0
H342 H 0.06242 0.17631 0.36594 0.0
H343 H 0.08602 0.17757 0.35263 0.0
H344 H 0.11932 0.23319 0.45107 0.0
H345 H 0.1504 0.28035 0.45079 0.0
H346 H 0.12343 0.25926 0.38981 0.0
H347 H 0.04894 0.19367 0.4381 0.0
H348 H 0.06126 0.23552 0.40545 0.0
H349 H 0.02599 0.2173 0.4559 0.0
H350 H 0.0932 0.27287 0.40545 0.0
H351 H 0.09275 0.27474 0.44953 0.0
H352 H 0.09021 0.25386 0.47496 0.0
H353 H 0.10638 0.23646 0.34004 0.0
H354 H 0.07108 0.21089 0.29089 0.0
H355 H 0.06066 0.2178 0.36137 0.0
Cd356 Cd 0.76023 0.86863 0.51008 0.0
C357 C 0.73146 0.84457 0.53024 0.0
C358 C 0.79382 0.85908 0.39517 0.0
O359 O 0.80296 0.85391 0.3921 0.0
Cd360 Cd 0.72399 0.87322 0.5263 0.0
C361 C 0.79745 0.87396 0.38702 0.0
C362 C 0.79793 0.89978 0.3716 0.0
C363 C 0.78622 0.88905 0.38518 0.0
N364 N 0.78697 0.87725 0.39264 0.0
C365 C 0.80951 0.88413 0.37336 0.0
C366 C 0.80973 0.89724 0.36583 0.0
Co367 Co 0.77016 0.86239 0.40684 0.0
C368 C 0.77242 0.88856 0.39261 0.0
O369 O 0.76995 0.89965 0.38901 0.0
C370 C 0.75009 0.87479 0.41713 0.0
C371 C 0.75056 0.87914 0.44076 0.0
C372 C 0.73764 0.87754 0.45159 0.0
C373 C 0.72443 0.87162 0.43863 0.0
C374 C 0.72395 0.86677 0.41554 0.0
C375 C 0.73683 0.86866 0.40465 0.0
C376 C 0.73696 0.87956 0.4771 0.0
C377 C 0.7763 0.83764 0.41911 0.0
C378 C 0.7861 0.83788 0.43635 0.0
C379 C 0.7633 0.82425 0.41405 0.0
C380 C 0.75984 0.81142 0.42681 0.0
C381 C 0.76955 0.81174 0.44419 0.0
C382 C 0.78299 0.82492 0.44869 0.0
N383 N 0.7802 0.85086 0.40581 0.0
N384 N 0.76299 0.87634 0.40561 0.0
N385 N 0.77705 0.86834 0.43942 0.0
C386 C 0.7911 0.88074 0.44639 0.0
C387 C 0.80149 0.87846 0.45869 0.0
C388 C 0.79457 0.89524 0.44073 0.0
C389 C 0.81556 0.89054 0.46445 0.0
H390 H 0.7986 0.86728 0.46363 0.0
C391 C 0.81911 0.90496 0.45756 0.0
C392 C 0.80868 0.90741 0.44557 0.0
C393 C 0.82662 0.88816 0.47741 0.0
H394 H 0.78619 0.89709 0.43287 0.0
H395 H 0.82997 0.91431 0.46164 0.0
C396 C 0.81252 0.92265 0.43819 0.0
O397 O 0.84007 0.89985 0.48293 0.0
O398 O 0.82365 0.87563 0.4832 0.0
O399 O 0.80364 0.92466 0.42688 0.0
O400 O 0.82584 0.93443 0.44401 0.0
H401 H 0.84744 0.89855 0.49138 0.0
H402 H 0.82851 0.94446 0.43956 0.0
N403 N 0.7531 0.84761 0.42048 0.0
C404 C 0.74211 0.83893 0.40577 0.0
C405 C 0.72897 0.82738 0.41537 0.0
C406 C 0.72794 0.82583 0.44026 0.0
C407 C 0.73993 0.8356 0.4549 0.0
C408 C 0.75279 0.84674 0.444 0.0
N409 N 0.76042 0.85385 0.3766 0.0
C410 C 0.74624 0.84249 0.38073 0.0
O411 O 0.73749 0.83421 0.36353 0.0
C412 C 0.76661 0.85832 0.45504 0.0
O413 O 0.77443 0.8925 0.4937 0.0
O414 O 0.78646 0.88651 0.51887 0.0
C415 C 0.76723 0.85567 0.35372 0.0
C416 C 0.76462 0.86357 0.33585 0.0
C417 C 0.76918 0.86339 0.31251 0.0
C418 C 0.77643 0.85548 0.3072 0.0
C419 C 0.77843 0.84698 0.32433 0.0
C420 C 0.77383 0.84706 0.34765 0.0
O421 O 0.74201 0.8421 0.5259 0.0
O422 O 0.73349 0.85695 0.52339 0.0
O423 O 0.74418 0.87612 0.49119 0.0
O424 O 0.72722 0.88213 0.48579 0.0
O425 O 0.76906 0.85817 0.47857 0.0
C426 C 0.75246 0.8826 0.56474 0.0
O427 O 0.74285 0.88567 0.55639 0.0
O428 O 0.75795 0.87612 0.55232 0.0
C429 C 0.78637 0.89617 0.50493 0.0
H430 H 0.79789 0.90961 0.36538 0.0
H431 H 0.81827 0.88193 0.36828 0.0
H432 H 0.81888 0.90527 0.35517 0.0
H433 H 0.76081 0.88352 0.45066 0.0
H434 H 0.71422 0.8697 0.44702 0.0
H435 H 0.73652 0.8651 0.38653 0.0
H436 H 0.79655 0.84804 0.4392 0.0
H437 H 0.75606 0.82355 0.39983 0.0
H438 H 0.76674 0.80157 0.45354 0.0
H439 H 0.71988 0.8198 0.40415 0.0
H440 H 0.71788 0.81705 0.44818 0.0
H441 H 0.73914 0.83448 0.47394 0.0
H442 H 0.75843 0.86914 0.3399 0.0
H443 H 0.77953 0.85501 0.28901 0.0
H444 H 0.7745 0.83976 0.36061 0.0
Cd445 Cd 0.12455 0.8883 0.50976 0.0
C446 C 0.15065 0.8853 0.52551 0.0
C447 C 0.13111 0.92939 0.39308 0.0
O448 O 0.13417 0.94315 0.38959 0.0
Cd449 Cd 0.1228 0.84817 0.52438 0.0
C450 C 0.11722 0.91656 0.38466 0.0
C451 C 0.09402 0.88906 0.36944 0.0
C452 C 0.10576 0.8902 0.38314 0.0
N453 N 0.11621 0.90366 0.39042 0.0
C454 C 0.10595 0.91634 0.37082 0.0
C455 C 0.09418 0.90236 0.36337 0.0
Co456 Co 0.13235 0.90464 0.40552 0.0
C457 C 0.10842 0.87833 0.39169 0.0
O458 O 0.09855 0.86415 0.38934 0.0
C459 C 0.12385 0.87358 0.41936 0.0
C460 C 0.11676 0.8686 0.44137 0.0
C461 C 0.11987 0.85931 0.45535 0.0
C462 C 0.13038 0.85559 0.4477 0.0
C463 C 0.13742 0.86056 0.42595 0.0
C464 C 0.13393 0.86938 0.41165 0.0
C465 C 0.11351 0.8542 0.47889 0.0
C466 C 0.15377 0.93701 0.41648 0.0
C467 C 0.1523 0.9462 0.43302 0.0
C468 C 0.16797 0.93946 0.41093 0.0
C469 C 0.18044 0.95057 0.42253 0.0
C470 C 0.1789 0.95958 0.43925 0.0
C471 C 0.1648 0.95775 0.44413 0.0
N472 N 0.14089 0.92606 0.40407 0.0
N473 N 0.1211 0.88315 0.40473 0.0
N474 N 0.12534 0.90455 0.43779 0.0
C475 C 0.11276 0.90613 0.44379 0.0
C476 C 0.11468 0.91857 0.4564 0.0
C477 C 0.09853 0.89556 0.43612 0.0
C478 C 0.10263 0.92093 0.46017 0.0
H479 H 0.12561 0.92649 0.46297 0.0
C480 C 0.08857 0.91061 0.4511 0.0
C481 C 0.08643 0.8979 0.43893 0.0
C482 C 0.10474 0.93426 0.47319 0.0
H483 H 0.09685 0.88542 0.42811 0.0
H484 H 0.07927 0.91244 0.45361 0.0
C485 C 0.07155 0.88702 0.42939 0.0
O486 O 0.09306 0.93633 0.47699 0.0
O487 O 0.11703 0.94345 0.48053 0.0
O488 O 0.06981 0.87615 0.4183 0.0
O489 O 0.05981 0.88901 0.43298 0.0
H490 H 0.09418 0.94494 0.48542 0.0
H491 H 0.05001 0.882 0.42706 0.0
N492 N 0.14849 0.90527 0.41997 0.0
C493 C 0.15836 0.90457 0.40574 0.0
C494 C 0.1707 0.90473 0.41596 0.0
C495 C 0.1717 0.905 0.44092 0.0
C496 C 0.16057 0.90524 0.45502 0.0
C497 C 0.14869 0.90533 0.44354 0.0
N498 N 0.14212 0.90497 0.37573 0.0
C499 C 0.15476 0.90441 0.3805 0.0
O500 O 0.16403 0.90553 0.36373 0.0
C501 C 0.13566 0.90524 0.45397 0.0
O502 O 0.1019 0.88159 0.49088 0.0
O503 O 0.10641 0.89568 0.52189 0.0
C504 C 0.13991 0.90979 0.35295 0.0
C505 C 0.13282 0.89935 0.33468 0.0
C506 C 0.13196 0.90423 0.31184 0.0
C507 C 0.13781 0.9194 0.30755 0.0
C508 C 0.14553 0.92994 0.32507 0.0
C509 C 0.14685 0.92513 0.34768 0.0
O510 O 0.1517 0.89793 0.52288 0.0
O511 O 0.1382 0.8743 0.52057 0.0
O512 O 0.11576 0.86357 0.49486 0.0
O513 O 0.11071 0.84143 0.48574 0.0
O514 O 0.13494 0.90734 0.47751 0.0
C515 C 0.11323 0.86658 0.5649 0.0
O516 O 0.11173 0.85437 0.55691 0.0
O517 O 0.11814 0.87834 0.55206 0.0
C518 C 0.09753 0.88803 0.50522 0.0
H519 H 0.08515 0.87837 0.3635 0.0
H520 H 0.1063 0.92654 0.36563 0.0
H521 H 0.08531 0.90184 0.35264 0.0
H522 H 0.10894 0.87188 0.44744 0.0
H523 H 0.13325 0.84893 0.45891 0.0
H524 H 0.1388 0.87282 0.39424 0.0
H525 H 0.14138 0.94464 0.4366 0.0
H526 H 0.16955 0.93328 0.39706 0.0
H527 H 0.18883 0.96846 0.44734 0.0
H528 H 0.17921 0.90456 0.40516 0.0
H529 H 0.18105 0.90498 0.44931 0.0
H530 H 0.16124 0.90528 0.47411 0.0
H531 H 0.12858 0.88764 0.33803 0.0
H532 H 0.13738 0.92311 0.28976 0.0
H533 H 0.15353 0.93328 0.36091 0.0
Cd534 Cd 0.75944 0.88881 0.00999 0.0
C535 C 0.73043 0.88413 0.02978 0.0
C536 C 0.79266 0.9306 0.89362 0.0
O537 O 0.80256 0.94464 0.8898 0.0
Cd538 Cd 0.7242 0.84791 0.02827 0.0
C539 C 0.79495 0.91847 0.88545 0.0
C540 C 0.79284 0.89188 0.87023 0.0
C541 C 0.78188 0.89206 0.88436 0.0
N542 N 0.78389 0.90515 0.89175 0.0
C543 C 0.80632 0.91923 0.8712 0.0
C544 C 0.80523 0.90571 0.86378 0.0
Co545 Co 0.76793 0.90478 0.9065 0.0
C546 C 0.7677 0.8795 0.89252 0.0
O547 O 0.76423 0.86557 0.88957 0.0
C548 C 0.74653 0.8729 0.91889 0.0
C549 C 0.74809 0.86852 0.94175 0.0
C550 C 0.73548 0.85769 0.95393 0.0
C551 C 0.72151 0.85146 0.94321 0.0
C552 C 0.72002 0.85634 0.921 0.0
C553 C 0.73255 0.86685 0.90871 0.0
C554 C 0.73607 0.85432 0.97892 0.0
C555 C 0.7774 0.9366 0.9194 0.0
C556 C 0.78874 0.94609 0.93482 0.0
C557 C 0.76498 0.93836 0.91645 0.0
C558 C 0.76386 0.94929 0.92918 0.0
C559 C 0.77534 0.95887 0.94429 0.0
C560 C 0.78818 0.95768 0.94652 0.0
N561 N 0.77949 0.92636 0.90516 0.0
N562 N 0.75912 0.88339 0.90563 0.0
N563 N 0.77491 0.90526 0.9389 0.0
C564 C 0.78896 0.9068 0.94558 0.0
C565 C 0.79922 0.91913 0.95869 0.0
C566 C 0.79247 0.8959 0.93919 0.0
C567 C 0.81321 0.92099 0.9645 0.0
H568 H 0.79626 0.92726 0.96434 0.0
C569 C 0.81681 0.91027 0.95697 0.0
C570 C 0.8065 0.89768 0.94425 0.0
C571 C 0.8241 0.93413 0.97827 0.0
H572 H 0.78417 0.88588 0.93071 0.0
H573 H 0.82761 0.91166 0.96117 0.0
C574 C 0.81034 0.88635 0.93643 0.0
O575 O 0.83736 0.93562 0.98433 0.0
O576 O 0.82116 0.94368 0.98422 0.0
O577 O 0.80151 0.87564 0.92473 0.0
O578 O 0.8236 0.88777 0.94229 0.0
H579 H 0.84463 0.94408 0.99331 0.0
H580 H 0.82626 0.88045 0.93757 0.0
N581 N 0.75164 0.90402 0.92057 0.0
C582 C 0.74078 0.90243 0.90614 0.0
C583 C 0.72805 0.90158 0.91609 0.0
C584 C 0.72719 0.90195 0.94102 0.0
C585 C 0.73896 0.90327 0.95536 0.0
C586 C 0.75143 0.90428 0.94412 0.0
N587 N 0.75826 0.90434 0.87648 0.0
C588 C 0.74455 0.90266 0.881 0.0
O589 O 0.73605 0.90302 0.86406 0.0
C590 C 0.76488 0.90541 0.9548 0.0
O591 O 0.77425 0.87986 0.99311 0.0
O592 O 0.78564 0.89742 0.01923 0.0
C593 C 0.76521 0.90956 0.85372 0.0
C594 C 0.76246 0.89932 0.83536 0.0
C595 C 0.76776 0.90445 0.81242 0.0
C596 C 0.77602 0.91973 0.80804 0.0
C597 C 0.77825 0.93002 0.82568 0.0
C598 C 0.77259 0.92493 0.84844 0.0
O599 O 0.74093 0.89697 0.02424 0.0
O600 O 0.73246 0.87351 0.0247 0.0
O601 O 0.74335 0.8647 0.99339 0.0
O602 O 0.72668 0.84179 0.98743 0.0
O603 O 0.76763 0.90789 0.97829 0.0
C604 C 0.7528 0.86826 0.06539 0.0
O605 O 0.74397 0.8553 0.05706 0.0
O606 O 0.75763 0.88012 0.05281 0.0
C607 C 0.78595 0.88801 1.005 0.0
H608 H 0.79179 0.88153 0.86409 0.0
H609 H 0.81551 0.92981 0.86558 0.0
H610 H 0.81382 0.90594 0.85267 0.0
H611 H 0.75895 0.87352 0.94995 0.0
H612 H 0.71163 0.84346 0.95267 0.0
H613 H 0.73147 0.87027 0.89106 0.0
H614 H 0.79847 0.94492 0.93664 0.0
H615 H 0.75647 0.93181 0.9037 0.0
H616 H 0.77449 0.96768 0.95305 0.0
H617 H 0.71908 0.90063 0.90509 0.0
H618 H 0.71743 0.90119 0.9492 0.0
H619 H 0.73827 0.90342 0.97443 0.0
H620 H 0.75573 0.8875 0.83874 0.0
H621 H 0.77986 0.92365 0.79022 0.0
H622 H 0.77349 0.93283 0.86172 0.0
Cd623 Cd 0.10308 0.87047 0.0092 0.0
C624 C 0.10976 0.84732 0.03115 0.0
C625 C 0.06201 0.86171 0.8916 0.0
O626 O 0.04803 0.85767 0.88741 0.0
Cd627 Cd 0.14484 0.88038 0.03003 0.0
C628 C 0.07429 0.87612 0.88371 0.0
C629 C 0.10114 0.90048 0.86906 0.0
C630 C 0.10071 0.88934 0.8835 0.0
N631 N 0.0875 0.87834 0.89064 0.0
C632 C 0.07379 0.88674 0.86912 0.0
C633 C 0.08744 0.89913 0.86201 0.0
Co634 Co 0.08757 0.86266 0.90563 0.0
C635 C 0.11311 0.88761 0.89217 0.0
O636 O 0.12709 0.89801 0.88958 0.0
C637 C 0.11928 0.87299 0.9192 0.0
C638 C 0.12352 0.87914 0.94197 0.0
C639 C 0.13428 0.8775 0.95463 0.0
C640 C 0.14059 0.86968 0.94452 0.0
C641 C 0.13588 0.86312 0.92238 0.0
C642 C 0.12542 0.86498 0.9096 0.0
C643 C 0.13771 0.88197 0.97943 0.0
C644 C 0.05561 0.84055 0.91786 0.0
C645 C 0.04627 0.84267 0.93322 0.0
C646 C 0.05369 0.82629 0.91518 0.0
C647 C 0.04271 0.8144 0.92809 0.0
C648 C 0.03332 0.81655 0.94324 0.0
C649 C 0.03474 0.8307 0.94537 0.0
N650 N 0.06604 0.85276 0.9036 0.0
N651 N 0.109 0.87511 0.90534 0.0
N652 N 0.08682 0.86914 0.93796 0.0
C653 C 0.0853 0.88169 0.9445 0.0
C654 C 0.07301 0.87967 0.95766 0.0
C655 C 0.09624 0.89609 0.93814 0.0
C656 C 0.07122 0.89184 0.9635 0.0
H657 H 0.06486 0.86859 0.96335 0.0
C658 C 0.08198 0.90616 0.95599 0.0
C659 C 0.09455 0.90839 0.94327 0.0
C660 C 0.05814 0.88964 0.97734 0.0
H661 H 0.10626 0.89779 0.9297 0.0
H662 H 0.08065 0.91559 0.96025 0.0
C663 C 0.10596 0.92356 0.9356 0.0
O664 O 0.05677 0.90146 0.98361 0.0
O665 O 0.04851 0.87714 0.98318 0.0
O666 O 0.11665 0.92542 0.9239 0.0
O667 O 0.10464 0.93544 0.94159 0.0
H668 H 0.04834 0.90028 0.99264 0.0
H669 H 0.11202 0.94543 0.93699 0.0
N670 N 0.08805 0.84703 0.91993 0.0
C671 C 0.08976 0.83777 0.90567 0.0
C672 C 0.09065 0.82595 0.9158 0.0
C673 C 0.09016 0.82476 0.94074 0.0
C674 C 0.0887 0.83519 0.9549 0.0
C675 C 0.08769 0.8466 0.94348 0.0
N676 N 0.08823 0.85343 0.87575 0.0
C677 C 0.0898 0.84135 0.88049 0.0
O678 O 0.08968 0.83256 0.86365 0.0
C679 C 0.08655 0.85896 0.95399 0.0
O680 O 0.11332 0.89427 0.9921 0.0
O681 O 0.09491 0.88859 0.01634 0.0
C682 C 0.08349 0.85534 0.85267 0.0
C683 C 0.09418 0.86299 0.83495 0.0
C684 C 0.08966 0.863 0.81153 0.0
C685 C 0.07454 0.85548 0.80596 0.0
C686 C 0.06379 0.84712 0.82288 0.0
C687 C 0.06827 0.84709 0.84634 0.0
O688 O 0.09697 0.8444 0.02403 0.0
O689 O 0.12011 0.86037 0.02752 0.0
O690 O 0.12739 0.87894 0.99395 0.0
O691 O 0.15049 0.88607 0.98792 0.0
O692 O 0.08402 0.85928 0.97745 0.0
C693 C 0.1223 0.88646 0.06337 0.0
O694 O 0.13496 0.89337 0.05307 0.0
O695 O 0.11045 0.87728 0.05215 0.0
C696 C 0.10497 0.89813 1.00266 0.0
H697 H 0.11159 0.90972 0.8631 0.0
H698 H 0.06331 0.8854 0.86301 0.0
H699 H 0.08741 0.90749 0.85064 0.0
H700 H 0.11851 0.88512 0.94967 0.0
H701 H 0.14859 0.86799 0.95436 0.0
H702 H 0.12215 0.86035 0.89199 0.0
H703 H 0.04766 0.85367 0.93486 0.0
H704 H 0.06019 0.82419 0.90255 0.0
H705 H 0.02453 0.807 0.95224 0.0
H706 H 0.09176 0.81797 0.90494 0.0
H707 H 0.09095 0.8158 0.94907 0.0
H708 H 0.08849 0.83439 0.97398 0.0
H709 H 0.10591 0.86829 0.8392 0.0
H710 H 0.07115 0.85521 0.78771 0.0
H711 H 0.0601 0.83999 0.85925 0.0
Cd712 Cd 0.1229 0.23126 0.01094 0.0
C713 C 0.15004 0.25938 0.02656 0.0
C714 C 0.13241 0.19795 0.89433 0.0
O715 O 0.13763 0.18889 0.89088 0.0
Cd716 Cd 0.12514 0.27182 0.02493 0.0
C717 C 0.11753 0.19435 0.88624 0.0
C718 C 0.09185 0.19408 0.87071 0.0
C719 C 0.10233 0.20545 0.8851 0.0
N720 N 0.11405 0.20456 0.89268 0.0
C721 C 0.10761 0.18262 0.87177 0.0
C722 C 0.09456 0.18249 0.86421 0.0
Co723 Co 0.12883 0.22124 0.90737 0.0
C724 C 0.1027 0.2191 0.89314 0.0
O725 O 0.09172 0.22169 0.88929 0.0
C726 C 0.11647 0.24141 0.91765 0.0
C727 C 0.11277 0.24144 0.94154 0.0
C728 C 0.11487 0.25466 0.95206 0.0
C729 C 0.12055 0.26761 0.93841 0.0
C730 C 0.12477 0.26758 0.91506 0.0
C731 C 0.12233 0.25441 0.90453 0.0
C732 C 0.11395 0.25609 0.97778 0.0
C733 C 0.15304 0.21452 0.92029 0.0
C734 C 0.15186 0.204 0.93687 0.0
C735 C 0.16668 0.22763 0.91731 0.0
C736 C 0.17879 0.23043 0.93157 0.0
C737 C 0.17749 0.21999 0.9484 0.0
C738 C 0.16406 0.20646 0.9507 0.0
N739 N 0.14045 0.21132 0.90581 0.0
N740 N 0.11479 0.22834 0.90655 0.0
N741 N 0.12285 0.21406 0.93989 0.0
C742 C 0.11097 0.19961 0.94659 0.0
C743 C 0.11385 0.18998 0.95994 0.0
C744 C 0.09638 0.19498 0.93959 0.0
C745 C 0.1024 0.17548 0.96519 0.0
H746 H 0.12504 0.19377 0.96612 0.0
C747 C 0.08794 0.17075 0.95685 0.0
C748 C 0.08484 0.18042 0.94393 0.0
C749 C 0.10552 0.16522 0.97907 0.0
H750 H 0.09394 0.20282 0.93119 0.0
H751 H 0.07909 0.15953 0.9605 0.0
C752 C 0.06958 0.17536 0.93504 0.0
O753 O 0.09441 0.1514 0.98436 0.0
O754 O 0.11815 0.16919 0.9858 0.0
O755 O 0.06711 0.18355 0.92268 0.0
O756 O 0.0583 0.16168 0.94061 0.0
H757 H 0.09619 0.14453 0.99338 0.0
H758 H 0.04826 0.15822 0.93514 0.0
N759 N 0.14355 0.23821 0.92137 0.0
C760 C 0.15241 0.24925 0.90688 0.0
C761 C 0.16405 0.26224 0.91673 0.0
C762 C 0.16549 0.2631 0.94163 0.0
C763 C 0.15555 0.25107 0.95603 0.0
C764 C 0.14435 0.23835 0.9449 0.0
N765 N 0.13746 0.23125 0.8773 0.0
C766 C 0.14894 0.24532 0.88176 0.0
O767 O 0.15737 0.25415 0.86475 0.0
C768 C 0.13275 0.22447 0.9557 0.0
O769 O 0.09961 0.21711 0.99265 0.0
O770 O 0.10364 0.20559 0.02134 0.0
C771 C 0.13578 0.22456 0.85432 0.0
C772 C 0.12738 0.22667 0.83674 0.0
C773 C 0.12738 0.222 0.81341 0.0
C774 C 0.1357 0.21524 0.80779 0.0
C775 C 0.14481 0.21385 0.82453 0.0
C776 C 0.1448 0.21845 0.84791 0.0
O777 O 0.15013 0.24724 0.02477 0.0
O778 O 0.13812 0.25883 0.02081 0.0
O779 O 0.11693 0.24843 0.99173 0.0
O780 O 0.11328 0.26701 0.98641 0.0
O781 O 0.13284 0.22191 0.97923 0.0
C782 C 0.11326 0.24376 0.06599 0.0
O783 O 0.11315 0.25527 0.05813 0.0
O784 O 0.11695 0.23598 0.05294 0.0
C785 C 0.0949 0.20556 1.00538 0.0
H786 H 0.08211 0.19425 0.86438 0.0
H787 H 0.10999 0.17409 0.86604 0.0
H788 H 0.08673 0.17362 0.8529 0.0
H789 H 0.10861 0.23137 0.95184 0.0
H790 H 0.12304 0.27807 0.94651 0.0
H791 H 0.12553 0.25435 0.8863 0.0
H792 H 0.14145 0.19365 0.93853 0.0
H793 H 0.16814 0.2355 0.90366 0.0
H794 H 0.18716 0.22221 0.95872 0.0
H795 H 0.17177 0.27136 0.90568 0.0
H796 H 0.17433 0.27304 0.94974 0.0
H797 H 0.15664 0.25171 0.97508 0.0
H798 H 0.12145 0.23247 0.84103 0.0
H799 H 0.13598 0.21203 0.78961 0.0
H800 H 0.1524 0.21813 0.86067 0.0
Cd801 Cd 0.89015 0.76191 0.50545 0.0
C802 C 0.89249 0.73318 0.49124 0.0
C803 C 0.92934 0.7956 0.62434 0.0
O804 O 0.94322 0.80559 0.62906 0.0
Cd805 Cd 0.85906 0.71972 0.4919 0.0
C806 C 0.91686 0.79769 0.63123 0.0
C807 C 0.88969 0.79536 0.64334 0.0
C808 C 0.89044 0.7845 0.62977 0.0
N809 N 0.90381 0.78656 0.62403 0.0
C810 C 0.91703 0.80898 0.64495 0.0
C811 C 0.90322 0.80777 0.65083 0.0
Co812 Co 0.90409 0.77085 0.60961 0.0
C813 C 0.87825 0.77028 0.62091 0.0
O814 O 0.86418 0.76643 0.62315 0.0
C815 C 0.87263 0.74841 0.59669 0.0
C816 C 0.8692 0.74833 0.57261 0.0
C817 C 0.85949 0.73478 0.56132 0.0
C818 C 0.85352 0.72155 0.57421 0.0
C819 C 0.85742 0.72169 0.59778 0.0
C820 C 0.86663 0.73515 0.60915 0.0
C821 C 0.8574 0.73364 0.53558 0.0
C822 C 0.93626 0.78035 0.60012 0.0
C823 C 0.94607 0.7914 0.5846 0.0
C824 C 0.93757 0.76771 0.60381 0.0
C825 C 0.94804 0.76582 0.5911 0.0
C826 C 0.95757 0.77673 0.57519 0.0
C827 C 0.95691 0.78983 0.57243 0.0
N828 N 0.92557 0.78253 0.61285 0.0
N829 N 0.88268 0.76184 0.60861 0.0
N830 N 0.90547 0.77818 0.57728 0.0
C831 C 0.90556 0.79152 0.57046 0.0
C832 C 0.9184 0.80347 0.56091 0.0
C833 C 0.89274 0.79262 0.57309 0.0
C834 C 0.91874 0.81677 0.5549 0.0
H835 H 0.92808 0.80234 0.55821 0.0
C836 C 0.90592 0.81788 0.55841 0.0
C837 C 0.89285 0.80584 0.56751 0.0
C838 C 0.93246 0.82953 0.54513 0.0
H839 H 0.88262 0.7831 0.57918 0.0
H840 H 0.90609 0.82811 0.55393 0.0
C841 C 0.87935 0.80709 0.57119 0.0
O842 O 0.93265 0.84222 0.53915 0.0
O843 O 0.94368 0.82866 0.54248 0.0
O844 O 0.868 0.7966 0.57917 0.0
O845 O 0.87951 0.81983 0.56573 0.0
H846 H 0.94148 0.85067 0.53278 0.0
H847 H 0.87081 0.82084 0.56783 0.0
N848 N 0.904 0.75485 0.59562 0.0
C849 C 0.90194 0.74379 0.60996 0.0
C850 C 0.90148 0.73122 0.60003 0.0
C851 C 0.90284 0.73081 0.57519 0.0
C852 C 0.90469 0.74281 0.56092 0.0
C853 C 0.90516 0.75505 0.57212 0.0
N854 N 0.90281 0.76085 0.63966 0.0
C855 C 0.90133 0.7472 0.63508 0.0
O856 O 0.90118 0.73849 0.65207 0.0
C857 C 0.90633 0.76853 0.56143 0.0
O858 O 0.87325 0.77003 0.5151 0.0
O859 O 0.89432 0.78738 0.50086 0.0
C860 C 0.90737 0.76748 0.6628 0.0
C861 C 0.89651 0.76446 0.68024 0.0
C862 C 0.90082 0.76894 0.70375 0.0
C863 C 0.91588 0.77647 0.70969 0.0
C864 C 0.92679 0.77872 0.69314 0.0
C865 C 0.92252 0.77432 0.66956 0.0
O866 O 0.89939 0.74665 0.48435 0.0
O867 O 0.8836 0.7301 0.5083 0.0
O868 O 0.86775 0.74237 0.522 0.0
O869 O 0.84674 0.72206 0.52643 0.0
O870 O 0.90896 0.77143 0.53798 0.0
C871 C 0.8742 0.74881 0.44899 0.0
O872 O 0.86497 0.73593 0.45706 0.0
O873 O 0.8841 0.75896 0.46222 0.0
C874 C 0.88148 0.78356 0.50926 0.0
H875 H 0.87911 0.79422 0.6483 0.0
H876 H 0.92737 0.81823 0.65127 0.0
H877 H 0.90299 0.81629 0.66152 0.0
H878 H 0.87423 0.75862 0.56269 0.0
H879 H 0.84659 0.71095 0.56553 0.0
H880 H 0.86937 0.73536 0.62769 0.0
H881 H 0.9455 0.80145 0.58244 0.0
H882 H 0.9309 0.75954 0.6169 0.0
H883 H 0.96588 0.77525 0.566 0.0
H884 H 0.90018 0.7221 0.61096 0.0
H885 H 0.90246 0.72121 0.56701 0.0
H886 H 0.90565 0.74248 0.54193 0.0
H887 H 0.88482 0.75806 0.67571 0.0
H888 H 0.91908 0.7796 0.72799 0.0
H889 H 0.93079 0.77533 0.65691 0.0
Cd890 Cd 0.2321 0.12811 0.50577 0.0
C891 C 0.2614 0.15802 0.49239 0.0
C892 C 0.19875 0.13379 0.62468 0.0
O893 O 0.18856 0.13746 0.62903 0.0
Cd894 Cd 0.27428 0.13663 0.49292 0.0
C895 C 0.19689 0.11935 0.63181 0.0
C896 C 0.1999 0.09504 0.64499 0.0
C897 C 0.21053 0.10656 0.631 0.0
N898 N 0.20808 0.11754 0.62459 0.0
C899 C 0.18583 0.10831 0.64596 0.0
C900 C 0.18737 0.09596 0.65234 0.0
Co901 Co 0.22368 0.13362 0.61009 0.0
C902 C 0.22478 0.10872 0.62204 0.0
O903 O 0.22876 0.09859 0.62427 0.0
C904 C 0.24593 0.12458 0.59622 0.0
C905 C 0.24509 0.11987 0.57263 0.0
C906 C 0.25823 0.12319 0.56043 0.0
C907 C 0.27194 0.13134 0.57188 0.0
C908 C 0.27267 0.13638 0.59488 0.0
C909 C 0.25965 0.13271 0.60718 0.0
C910 C 0.25853 0.12047 0.53499 0.0
C911 C 0.21358 0.15565 0.59963 0.0
C912 C 0.20255 0.15373 0.58351 0.0
C913 C 0.22599 0.16982 0.60283 0.0
C914 C 0.22769 0.18173 0.58908 0.0
C915 C 0.21684 0.17968 0.57251 0.0
C916 C 0.20397 0.16569 0.57008 0.0
N917 N 0.21176 0.14316 0.61311 0.0
N918 N 0.23293 0.12145 0.60927 0.0
N919 N 0.21649 0.12763 0.57758 0.0
C920 C 0.20257 0.11496 0.57084 0.0
C921 C 0.19191 0.11684 0.55857 0.0
C922 C 0.19944 0.10061 0.5768 0.0
C923 C 0.17786 0.10457 0.55347 0.0
H924 H 0.19458 0.12789 0.55316 0.0
C925 C 0.17461 0.09031 0.5608 0.0
C926 C 0.18534 0.08824 0.57259 0.0
C927 C 0.16649 0.10662 0.54082 0.0
H928 H 0.20806 0.09904 0.5844 0.0
H929 H 0.16375 0.08082 0.55726 0.0
C930 C 0.18183 0.07317 0.58049 0.0
O931 O 0.15308 0.09475 0.53571 0.0
O932 O 0.16916 0.11906 0.53499 0.0
O933 O 0.19098 0.0715 0.59162 0.0
O934 O 0.1685 0.06119 0.57534 0.0
H935 H 0.1455 0.09583 0.5275 0.0
H936 H 0.16604 0.05128 0.58016 0.0
N937 N 0.23963 0.14966 0.59622 0.0
C938 C 0.25048 0.15887 0.61072 0.0
C939 C 0.26294 0.17117 0.60094 0.0
C940 C 0.26355 0.17286 0.57608 0.0
C941 C 0.25181 0.16246 0.56165 0.0
C942 C 0.23963 0.15056 0.57271 0.0
N943 N 0.2335 0.14242 0.64023 0.0
C944 C 0.24699 0.15481 0.63579 0.0
O945 O 0.2555 0.16348 0.65288 0.0
C946 C 0.22628 0.13819 0.56185 0.0
O947 O 0.219 0.10375 0.52075 0.0
O948 O 0.20646 0.10894 0.49542 0.0
C949 C 0.22667 0.14022 0.66323 0.0
C950 C 0.22927 0.13203 0.68061 0.0
C951 C 0.22447 0.13163 0.704 0.0
C952 C 0.21714 0.13938 0.70986 0.0
C953 C 0.21527 0.1483 0.69336 0.0
C954 C 0.21993 0.14862 0.66992 0.0
O955 O 0.24789 0.15313 0.48665 0.0
O956 O 0.26385 0.15102 0.50834 0.0
O957 O 0.25053 0.12283 0.5208 0.0
O958 O 0.26968 0.12027 0.5263 0.0
O959 O 0.22347 0.13815 0.5384 0.0
C960 C 0.24571 0.12342 0.44992 0.0
O961 O 0.25847 0.12663 0.45793 0.0
O962 O 0.23588 0.12386 0.46307 0.0
C963 C 0.20705 0.0995 0.5092 0.0
H964 H 0.2013 0.08581 0.65036 0.0
H965 H 0.17653 0.1093 0.65229 0.0
H966 H 0.17902 0.08729 0.66336 0.0
H967 H 0.23441 0.11384 0.5639 0.0
H968 H 0.28221 0.13452 0.5625 0.0
H969 H 0.26012 0.13615 0.6254 0.0
H970 H 0.19268 0.14291 0.58171 0.0
H971 H 0.23416 0.17179 0.61624 0.0
H972 H 0.21821 0.18915 0.56246 0.0
H973 H 0.27186 0.17917 0.61201 0.0
H974 H 0.27309 0.18221 0.56802 0.0
H975 H 0.25229 0.16369 0.54263 0.0
H976 H 0.23552 0.12658 0.67614 0.0
H977 H 0.21384 0.13935 0.72808 0.0
H978 H 0.21916 0.15605 0.65731 0.0
Cd979 Cd 0.86735 0.10398 0.50789 0.0
C980 C 0.83785 0.10583 0.49566 0.0
C981 C 0.85892 0.06168 0.62367 0.0
O982 O 0.85365 0.04741 0.62747 0.0
Cd983 Cd 0.86219 0.13898 0.49642 0.0
C984 C 0.87393 0.07288 0.63113 0.0
C985 C 0.90003 0.09818 0.64561 0.0
C986 C 0.88937 0.09913 0.63179 0.0
N987 N 0.87744 0.08656 0.62464 0.0
C988 C 0.88402 0.071 0.64505 0.0
C989 C 0.89729 0.08387 0.65207 0.0
Co990 Co 0.86245 0.08856 0.6109 0.0
C991 C 0.88896 0.11244 0.62423 0.0
O992 O 0.90017 0.12597 0.62759 0.0
C993 C 0.87524 0.12126 0.6004 0.0
C994 C 0.87839 0.12453 0.57624 0.0
C995 C 0.87705 0.13617 0.5659 0.0
C996 C 0.87295 0.14457 0.5801 0.0
C997 C 0.86941 0.14089 0.60378 0.0
C998 C 0.87077 0.12945 0.61402 0.0
C999 C 0.87693 0.13793 0.54009 0.0
C1000 C 0.83867 0.05746 0.597 0.0
C1001 C 0.84045 0.04789 0.58169 0.0
C1002 C 0.82476 0.05648 0.59867 0.0
C1003 C 0.81285 0.04599 0.58511 0.0
C1004 C 0.81462 0.03616 0.57035 0.0
C1005 C 0.82842 0.03672 0.56914 0.0
N1006 N 0.85076 0.06696 0.61237 0.0
N1007 N 0.87664 0.1097 0.61154 0.0
N1008 N 0.8678 0.08729 0.57801 0.0
C1009 C 0.87987 0.08533 0.57021 0.0
C1010 C 0.87711 0.07287 0.55679 0.0
C1011 C 0.89456 0.09608 0.57542 0.0
C1012 C 0.88883 0.07063 0.54979 0.0
H1013 H 0.86581 0.06495 0.55177 0.0
C1014 C 0.90347 0.08122 0.55612 0.0
C1015 C 0.90645 0.09401 0.56891 0.0
C1016 C 0.8858 0.05722 0.53605 0.0
H1017 H 0.89679 0.10624 0.58399 0.0
H1018 H 0.91257 0.07956 0.55092 0.0
C1019 C 0.92197 0.10523 0.57533 0.0
O1020 O 0.89715 0.05529 0.52901 0.0
O1021 O 0.87303 0.04782 0.53108 0.0
O1022 O 0.92448 0.11607 0.58727 0.0
O1023 O 0.93342 0.10358 0.56794 0.0
H1024 H 0.89543 0.04663 0.52008 0.0
H1025 H 0.94362 0.11084 0.57172 0.0
N1026 N 0.84755 0.09091 0.59788 0.0
C1027 C 0.83921 0.09351 0.61291 0.0
C1028 C 0.82778 0.09546 0.60377 0.0
C1029 C 0.82586 0.0948 0.57895 0.0
C1030 C 0.83517 0.09215 0.56396 0.0
C1031 C 0.84632 0.09024 0.5744 0.0
N1032 N 0.85435 0.09005 0.64157 0.0
C1033 C 0.84308 0.09305 0.63779 0.0
O1034 O 0.83512 0.09381 0.65524 0.0
C1035 C 0.85754 0.0877 0.56289 0.0
O1036 O 0.89252 0.11692 0.51931 0.0
O1037 O 0.88577 0.0961 0.50078 0.0
C1038 C 0.85633 0.08523 0.66456 0.0
C1039 C 0.86358 0.0958 0.68265 0.0
C1040 C 0.86399 0.0911 0.70582 0.0
C1041 C 0.85759 0.07592 0.71063 0.0
C1042 C 0.84962 0.06526 0.69336 0.0
C1043 C 0.84856 0.06996 0.67051 0.0
O1044 O 0.84297 0.09764 0.48857 0.0
O1045 O 0.84483 0.11491 0.5121 0.0
O1046 O 0.87357 0.12708 0.5264 0.0
O1047 O 0.87738 0.14937 0.53127 0.0
O1048 O 0.85688 0.08484 0.53939 0.0
C1049 C 0.87299 0.12168 0.4524 0.0
O1050 O 0.871 0.1319 0.46111 0.0
O1051 O 0.87153 0.11078 0.465 0.0
C1052 C 0.89594 0.1076 0.51129 0.0
H1053 H 0.90994 0.10807 0.6516 0.0
H1054 H 0.88161 0.06007 0.65078 0.0
H1055 H 0.90525 0.08277 0.66297 0.0
H1056 H 0.88153 0.11791 0.56555 0.0
H1057 H 0.87102 0.15301 0.57233 0.0
H1058 H 0.86774 0.12645 0.63238 0.0
H1059 H 0.85121 0.04867 0.58063 0.0
H1060 H 0.82292 0.06334 0.61096 0.0
H1061 H 0.80503 0.02772 0.56094 0.0
H1062 H 0.82059 0.09738 0.61528 0.0
H1063 H 0.81714 0.09632 0.57137 0.0
H1064 H 0.83371 0.09163 0.54499 0.0
H1065 H 0.86829 0.10753 0.67886 0.0
H1066 H 0.85776 0.07234 0.72861 0.0
H1067 H 0.84137 0.0618 0.6577 0.0
Cd1068 Cd 0.89649 0.43695 0.34131 0.0
C1069 C 0.92475 0.43994 0.32228 0.0
C1070 C 0.86335 0.39337 0.45778 0.0
O1071 O 0.85495 0.37897 0.46116 0.0
Cd1072 Cd 0.93533 0.47647 0.32771 0.0
C1073 C 0.85873 0.40393 0.46561 0.0
C1074 C 0.85629 0.42826 0.48052 0.0
C1075 C 0.86821 0.43001 0.46666 0.0
N1076 N 0.86834 0.41786 0.45931 0.0
C1077 C 0.8465 0.40127 0.47953 0.0
C1078 C 0.84527 0.41365 0.48677 0.0
Co1079 Co 0.8856 0.42094 0.44513 0.0
C1080 C 0.88153 0.44382 0.45923 0.0
O1081 O 0.88319 0.45705 0.46313 0.0
C1082 C 0.90455 0.45386 0.43604 0.0
C1083 C 0.90507 0.45706 0.41183 0.0
C1084 C 0.91821 0.46853 0.40178 0.0
C1085 C 0.93057 0.47679 0.41624 0.0
C1086 C 0.93021 0.47319 0.4401 0.0
C1087 C 0.91706 0.462 0.45014 0.0
C1088 C 0.92023 0.47048 0.37602 0.0
C1089 C 0.88024 0.39068 0.4307 0.0
C1090 C 0.86943 0.38099 0.41472 0.0
C1091 C 0.89398 0.39124 0.43166 0.0
C1092 C 0.89698 0.38256 0.4162 0.0
C1093 C 0.88618 0.37303 0.40009 0.0
C1094 C 0.87213 0.37191 0.39967 0.0
N1095 N 0.87679 0.39943 0.44631 0.0
N1096 N 0.89153 0.44184 0.44634 0.0
N1097 N 0.8786 0.41949 0.41239 0.0
C1098 C 0.86422 0.41686 0.40517 0.0
C1099 C 0.8546 0.4041 0.39228 0.0
C1100 C 0.85973 0.42715 0.41082 0.0
C1101 C 0.84022 0.40112 0.38627 0.0
H1102 H 0.85834 0.39652 0.387 0.0
C1103 C 0.83567 0.41125 0.39306 0.0
C1104 C 0.84536 0.42431 0.40537 0.0
C1105 C 0.82989 0.38737 0.3732 0.0
H1106 H 0.86757 0.43754 0.41896 0.0
H1107 H 0.82457 0.409 0.3887 0.0
C1108 C 0.84049 0.43498 0.4125 0.0
O1109 O 0.81618 0.3847 0.3672 0.0
O1110 O 0.83369 0.37834 0.36784 0.0
O1111 O 0.84851 0.44573 0.42483 0.0
O1112 O 0.8272 0.43294 0.40528 0.0
H1113 H 0.80925 0.3758 0.35873 0.0
H1114 H 0.82389 0.43985 0.40952 0.0
N1115 N 0.90311 0.42438 0.43156 0.0
C1116 C 0.91442 0.42791 0.44632 0.0
C1117 C 0.92824 0.4315 0.43676 0.0
C1118 C 0.92948 0.43132 0.41187 0.0
C1119 C 0.91706 0.4276 0.39718 0.0
C1120 C 0.9036 0.42411 0.40802 0.0
N1121 N 0.89558 0.42285 0.47545 0.0
C1122 C 0.91012 0.42692 0.47133 0.0
O1123 O 0.91927 0.4284 0.48856 0.0
C1124 C 0.88943 0.4207 0.39685 0.0
O1125 O 0.88325 0.44756 0.35776 0.0
O1126 O 0.8707 0.43048 0.33144 0.0
C1127 C 0.88905 0.41777 0.49851 0.0
C1128 C 0.89147 0.42827 0.51629 0.0
C1129 C 0.88731 0.42363 0.53978 0.0
C1130 C 0.88066 0.40854 0.54537 0.0
C1131 C 0.87889 0.39803 0.52838 0.0
C1132 C 0.8831 0.40266 0.50488 0.0
O1133 O 0.91345 0.42715 0.32517 0.0
O1134 O 0.92368 0.45053 0.33079 0.0
O1135 O 0.91278 0.4597 0.3622 0.0
O1136 O 0.93086 0.48228 0.36732 0.0
O1137 O 0.88712 0.41781 0.37333 0.0
C1138 C 0.90765 0.45975 0.28685 0.0
O1139 O 0.91817 0.47187 0.29546 0.0
O1140 O 0.90071 0.44779 0.29925 0.0
C1141 C 0.87133 0.44019 0.34604 0.0
H1142 H 0.85563 0.43778 0.48667 0.0
H1143 H 0.8384 0.39012 0.48507 0.0
H1144 H 0.83598 0.41194 0.49766 0.0
H1145 H 0.89542 0.45047 0.40089 0.0
H1146 H 0.94093 0.48532 0.40859 0.0
H1147 H 0.91675 0.45896 0.46855 0.0
H1148 H 0.8587 0.38033 0.41437 0.0
H1149 H 0.90224 0.39807 0.44458 0.0
H1150 H 0.88862 0.36613 0.38875 0.0
H1151 H 0.93772 0.43434 0.44801 0.0
H1152 H 0.94005 0.43413 0.40397 0.0
H1153 H 0.91805 0.42767 0.37813 0.0
H1154 H 0.89716 0.44001 0.512 0.0
H1155 H 0.87775 0.40506 0.56363 0.0
H1156 H 0.88267 0.39475 0.49201 0.0
Cd1157 Cd 0.55738 0.4597 0.33829 0.0
C1158 C 0.56098 0.49029 0.32239 0.0
C1159 C 0.59754 0.46598 0.45497 0.0
O1160 O 0.61172 0.47088 0.45894 0.0
Cd1161 Cd 0.52693 0.47233 0.32668 0.0
C1162 C 0.58601 0.45102 0.4621 0.0
C1163 C 0.56023 0.42512 0.47575 0.0
C1164 C 0.55969 0.43614 0.46228 0.0
N1165 N 0.57246 0.44796 0.45558 0.0
C1166 C 0.58748 0.44056 0.47568 0.0
C1167 C 0.57437 0.4274 0.48229 0.0
Co1168 Co 0.57102 0.46329 0.44198 0.0
C1169 C 0.54662 0.43702 0.4547 0.0
O1170 O 0.53296 0.42601 0.45781 0.0
C1171 C 0.53836 0.45151 0.43146 0.0
C1172 C 0.53634 0.45051 0.40683 0.0
C1173 C 0.52525 0.45268 0.3965 0.0
C1174 C 0.51567 0.45485 0.41116 0.0
C1175 C 0.51786 0.4562 0.43563 0.0
C1176 C 0.52912 0.45433 0.44574 0.0
C1177 C 0.52512 0.45533 0.37089 0.0
C1178 C 0.60244 0.48695 0.42939 0.0
C1179 C 0.61208 0.48542 0.41385 0.0
C1180 C 0.60355 0.50087 0.43198 0.0
C1181 C 0.61414 0.51302 0.41898 0.0
C1182 C 0.62394 0.51148 0.40385 0.0
C1183 C 0.62328 0.49766 0.40173 0.0
N1184 N 0.59262 0.47452 0.44389 0.0
N1185 N 0.54971 0.44955 0.44228 0.0
N1186 N 0.57246 0.45802 0.40917 0.0
C1187 C 0.57358 0.44545 0.40143 0.0
C1188 C 0.58623 0.4475 0.38934 0.0
C1189 C 0.56187 0.43101 0.40551 0.0
C1190 C 0.58765 0.43524 0.38262 0.0
H1191 H 0.59492 0.45866 0.38516 0.0
C1192 C 0.57607 0.42081 0.38784 0.0
C1193 C 0.56309 0.41858 0.39923 0.0
C1194 C 0.60125 0.43747 0.37032 0.0
H1195 H 0.55168 0.42944 0.41311 0.0
H1196 H 0.57709 0.4113 0.38284 0.0
C1197 C 0.55083 0.4033 0.40446 0.0
O1198 O 0.6024 0.42562 0.36351 0.0
O1199 O 0.61149 0.45002 0.36633 0.0
O1200 O 0.53963 0.40139 0.41467 0.0
O1201 O 0.55194 0.39138 0.3979 0.0
H1202 H 0.61117 0.42682 0.35551 0.0
H1203 H 0.54402 0.38133 0.40095 0.0
N1204 N 0.56925 0.47853 0.429 0.0
C1205 C 0.56654 0.48679 0.444 0.0
C1206 C 0.56492 0.49842 0.43486 0.0
C1207 C 0.5662 0.50072 0.41012 0.0
C1208 C 0.56908 0.49152 0.39518 0.0
C1209 C 0.57049 0.48007 0.40558 0.0
N1210 N 0.56953 0.47133 0.4726 0.0
C1211 C 0.56667 0.4827 0.46888 0.0
O1212 O 0.56605 0.4907 0.48639 0.0
C1213 C 0.57286 0.46869 0.3941 0.0
O1214 O 0.54208 0.43423 0.34737 0.0
O1215 O 0.56371 0.43992 0.33296 0.0
C1216 C 0.57473 0.46947 0.4953 0.0
C1217 C 0.56442 0.4615 0.51334 0.0
C1218 C 0.56944 0.46088 0.53617 0.0
C1219 C 0.58471 0.46786 0.54066 0.0
C1220 C 0.59507 0.47654 0.52347 0.0
C1221 C 0.59003 0.47769 0.50095 0.0
O1222 O 0.56822 0.48395 0.31616 0.0
O1223 O 0.55218 0.4846 0.3396 0.0
O1224 O 0.53577 0.45715 0.35782 0.0
O1225 O 0.51544 0.45793 0.36196 0.0
O1226 O 0.57599 0.46935 0.37071 0.0
C1227 C 0.53917 0.45669 0.28285 0.0
O1228 O 0.53028 0.46078 0.29092 0.0
O1229 O 0.54904 0.45632 0.29597 0.0
C1230 C 0.55122 0.43006 0.3414 0.0
H1231 H 0.55016 0.41528 0.48141 0.0
H1232 H 0.59828 0.4426 0.48142 0.0
H1233 H 0.57515 0.41915 0.4929 0.0
H1234 H 0.54351 0.44831 0.39578 0.0
H1235 H 0.50709 0.45657 0.40344 0.0
H1236 H 0.53119 0.45569 0.46461 0.0
H1237 H 0.61123 0.47466 0.41216 0.0
H1238 H 0.59667 0.50251 0.44453 0.0
H1239 H 0.63242 0.52123 0.39483 0.0
H1240 H 0.5629 0.50556 0.44634 0.0
H1241 H 0.56504 0.50965 0.40255 0.0
H1242 H 0.57015 0.49331 0.3763 0.0
H1243 H 0.55261 0.45636 0.50981 0.0
H1244 H 0.58855 0.4676 0.55842 0.0
H1245 H 0.59793 0.48522 0.48812 0.0
Cd1246 Cd 0.53302 0.09294 0.33924 0.0
C1247 C 0.50848 0.06425 0.31754 0.0
C1248 C 0.52731 0.12789 0.45586 0.0
O1249 O 0.52416 0.13853 0.45941 0.0
Cd1250 Cd 0.53771 0.0569 0.32021 0.0
C1251 C 0.54137 0.12918 0.46386 0.0
C1252 C 0.56488 0.12522 0.4785 0.0
C1253 C 0.55317 0.1146 0.46478 0.0
N1254 N 0.5426 0.11747 0.4577 0.0
C1255 C 0.55261 0.14026 0.47773 0.0
C1256 C 0.56454 0.13823 0.48487 0.0
Co1257 Co 0.52639 0.10212 0.44304 0.0
C1258 C 0.55058 0.10008 0.45632 0.0
O1259 O 0.56047 0.0958 0.45879 0.0
C1260 C 0.5348 0.07931 0.42978 0.0
C1261 C 0.54091 0.08071 0.4071 0.0
C1262 C 0.53784 0.06788 0.39425 0.0
C1263 C 0.52848 0.05386 0.40395 0.0
C1264 C 0.52215 0.05253 0.42616 0.0
C1265 C 0.52555 0.06528 0.4392 0.0
C1266 C 0.54253 0.06848 0.36967 0.0
C1267 C 0.50516 0.1131 0.43125 0.0
C1268 C 0.50719 0.12403 0.41477 0.0
C1269 C 0.49088 0.10097 0.43493 0.0
C1270 C 0.47896 0.09935 0.42128 0.0
C1271 C 0.48112 0.11003 0.40436 0.0
C1272 C 0.49522 0.1227 0.40148 0.0
N1273 N 0.5176 0.1148 0.44477 0.0
N1274 N 0.53784 0.09208 0.44347 0.0
N1275 N 0.53297 0.10893 0.41054 0.0
C1276 C 0.54564 0.12291 0.40398 0.0
C1277 C 0.54383 0.13334 0.39086 0.0
C1278 C 0.55992 0.12636 0.41108 0.0
C1279 C 0.55607 0.14744 0.38588 0.0
H1280 H 0.53286 0.13047 0.3847 0.0
C1281 C 0.57021 0.15101 0.39436 0.0
C1282 C 0.57222 0.14055 0.40712 0.0
C1283 C 0.5541 0.15852 0.37217 0.0
H1284 H 0.56149 0.11792 0.4194 0.0
H1285 H 0.57966 0.16193 0.39095 0.0
C1286 C 0.58715 0.14443 0.41626 0.0
O1287 O 0.56596 0.17194 0.3671 0.0
O1288 O 0.54175 0.1556 0.36539 0.0
O1289 O 0.58873 0.13553 0.42829 0.0
O1290 O 0.5991 0.15779 0.41124 0.0
H1291 H 0.56494 0.17934 0.35818 0.0
H1292 H 0.60894 0.16048 0.41686 0.0
N1293 N 0.51021 0.0864 0.42904 0.0
C1294 C 0.50062 0.07581 0.44353 0.0
C1295 C 0.48826 0.06345 0.43365 0.0
C1296 C 0.48693 0.06264 0.40873 0.0
C1297 C 0.49775 0.07407 0.39432 0.0
C1298 C 0.50968 0.08618 0.40548 0.0
N1299 N 0.51702 0.09273 0.47318 0.0
C1300 C 0.50443 0.07941 0.46869 0.0
O1301 O 0.49539 0.07123 0.48568 0.0
C1302 C 0.52245 0.09922 0.39467 0.0
O1303 O 0.5562 0.10573 0.35833 0.0
O1304 O 0.5529 0.11858 0.33094 0.0
C1305 C 0.51924 0.09984 0.49594 0.0
C1306 C 0.52673 0.09693 0.51416 0.0
C1307 C 0.52773 0.10285 0.53696 0.0
C1308 C 0.52141 0.11177 0.54123 0.0
C1309 C 0.51326 0.11409 0.52383 0.0
C1310 C 0.51193 0.10787 0.50129 0.0
O1311 O 0.50639 0.07486 0.32343 0.0
O1312 O 0.52086 0.06581 0.32322 0.0
O1313 O 0.54018 0.07604 0.35469 0.0
O1314 O 0.54541 0.0588 0.36169 0.0
O1315 O 0.52283 0.10196 0.37112 0.0
C1316 C 0.54666 0.08625 0.28348 0.0
O1317 O 0.54985 0.07654 0.29097 0.0
O1318 O 0.54028 0.09154 0.2966 0.0
C1319 C 0.56141 0.11767 0.34642 0.0
H1320 H 0.57383 0.12351 0.48432 0.0
H1321 H 0.55209 0.14997 0.48322 0.0
H1322 H 0.57337 0.1466 0.49565 0.0
H1323 H 0.54794 0.09164 0.39964 0.0
H1324 H 0.52565 0.04392 0.39383 0.0
H1325 H 0.52121 0.06437 0.45692 0.0
H1326 H 0.51809 0.13374 0.41261 0.0
H1327 H 0.48881 0.09299 0.44869 0.0
H1328 H 0.47163 0.10874 0.39443 0.0
H1329 H 0.47997 0.05474 0.44468 0.0
H1330 H 0.47755 0.05315 0.4006 0.0
H1331 H 0.49683 0.07338 0.37525 0.0
H1332 H 0.53136 0.08979 0.51075 0.0
H1333 H 0.52188 0.11605 0.55891 0.0
H1334 H 0.50499 0.10901 0.48815 0.0
Cd1335 Cd 0.76977 0.56616 0.84191 0.0
C1336 C 0.77049 0.59651 0.85378 0.0
C1337 C 0.73062 0.53297 0.72428 0.0
O1338 O 0.71705 0.52206 0.72007 0.0
Cd1339 Cd 0.80468 0.60765 0.85467 0.0
C1340 C 0.74381 0.53232 0.71665 0.0
C1341 C 0.77186 0.53744 0.70307 0.0
C1342 C 0.77014 0.54762 0.71694 0.0
N1343 N 0.75644 0.5442 0.72347 0.0
C1344 C 0.74461 0.52167 0.70259 0.0
C1345 C 0.75887 0.52428 0.69598 0.0
Co1346 Co 0.75472 0.559 0.73833 0.0
C1347 C 0.78159 0.56219 0.72604 0.0
O1348 O 0.79588 0.56686 0.72443 0.0
C1349 C 0.78532 0.58198 0.75391 0.0
C1350 C 0.79012 0.57991 0.7762 0.0
C1351 C 0.79913 0.59234 0.79042 0.0
C1352 C 0.80279 0.60653 0.78259 0.0
C1353 C 0.79793 0.60851 0.76071 0.0
C1354 C 0.78936 0.59623 0.74626 0.0
C1355 C 0.80399 0.59122 0.81431 0.0
C1356 C 0.72209 0.54673 0.74896 0.0
C1357 C 0.71318 0.53539 0.76487 0.0
C1358 C 0.71908 0.55825 0.74481 0.0
C1359 C 0.70763 0.55867 0.757 0.0
C1360 C 0.69883 0.5474 0.77295 0.0
C1361 C 0.70127 0.53538 0.77658 0.0
N1362 N 0.73338 0.54573 0.73584 0.0
N1363 N 0.77624 0.56969 0.73879 0.0
N1364 N 0.75437 0.55193 0.77064 0.0
C1365 C 0.75372 0.53824 0.77722 0.0
C1366 C 0.74163 0.52746 0.79019 0.0
C1367 C 0.76528 0.53565 0.77109 0.0
C1368 C 0.74069 0.51387 0.79609 0.0
H1369 H 0.73299 0.52973 0.79571 0.0
C1370 C 0.75206 0.51118 0.78879 0.0
C1371 C 0.76442 0.52202 0.77625 0.0
C1372 C 0.72783 0.50246 0.80977 0.0
H1373 H 0.7751 0.54435 0.76275 0.0
H1374 H 0.75138 0.50069 0.79309 0.0
C1375 C 0.77646 0.51914 0.76873 0.0
O1376 O 0.72726 0.48964 0.81607 0.0
O1377 O 0.71768 0.50459 0.81544 0.0
O1378 O 0.78707 0.52849 0.75744 0.0
O1379 O 0.77579 0.50618 0.77438 0.0
H1380 H 0.71899 0.48206 0.82501 0.0
H1381 H 0.78358 0.50414 0.76985 0.0
N1382 N 0.75338 0.57417 0.75257 0.0
C1383 C 0.75404 0.5847 0.7383 0.0
C1384 C 0.75328 0.5966 0.74838 0.0
C1385 C 0.75252 0.59713 0.77331 0.0
C1386 C 0.75238 0.58584 0.78749 0.0
C1387 C 0.75288 0.57415 0.77611 0.0
N1388 N 0.75472 0.56855 0.70834 0.0
C1389 C 0.75481 0.58154 0.71312 0.0
O1390 O 0.75372 0.58968 0.69628 0.0
C1391 C 0.75314 0.56132 0.78662 0.0
O1392 O 0.78053 0.5526 0.82643 0.0
O1393 O 0.76244 0.54027 0.85131 0.0
C1394 C 0.74978 0.56154 0.68551 0.0
C1395 C 0.76016 0.56446 0.66725 0.0
C1396 C 0.75517 0.55895 0.64427 0.0
C1397 C 0.73991 0.55048 0.63979 0.0
C1398 C 0.72951 0.54808 0.65731 0.0
C1399 C 0.73444 0.5538 0.68009 0.0
O1400 O 0.76159 0.58306 0.8595 0.0
O1401 O 0.78021 0.59881 0.83832 0.0
O1402 O 0.79442 0.58362 0.82979 0.0
O1403 O 0.81618 0.60184 0.82193 0.0
O1404 O 0.75085 0.55839 0.81007 0.0
C1405 C 0.78699 0.57916 0.89803 0.0
O1406 O 0.79699 0.59164 0.88975 0.0
O1407 O 0.7766 0.56938 0.88496 0.0
C1408 C 0.77248 0.54065 0.83778 0.0
H1409 H 0.78276 0.5396 0.69767 0.0
H1410 H 0.73466 0.51184 0.69656 0.0
H1411 H 0.75984 0.51626 0.68506 0.0
H1412 H 0.78692 0.56884 0.78231 0.0
H1413 H 0.8093 0.61615 0.79375 0.0
H1414 H 0.78605 0.5977 0.72877 0.0
H1415 H 0.71531 0.52631 0.76751 0.0
H1416 H 0.72515 0.56662 0.7316 0.0
H1417 H 0.68969 0.54777 0.78145 0.0
H1418 H 0.75337 0.60522 0.73751 0.0
H1419 H 0.75209 0.60629 0.78161 0.0
H1420 H 0.75194 0.5863 0.80657 0.0
H1421 H 0.77194 0.57132 0.67077 0.0
H1422 H 0.73607 0.54648 0.622 0.0
H1423 H 0.7264 0.55257 0.69335 0.0
Cd1424 Cd 0.42668 0.20248 0.84153 0.0
C1425 C 0.3946 0.17299 0.85245 0.0
C1426 C 0.46006 0.19566 0.725 0.0
O1427 O 0.4706 0.1924 0.72134 0.0
Cd1428 Cd 0.38665 0.19845 0.85435 0.0
C1429 C 0.46151 0.20985 0.71731 0.0
C1430 C 0.45789 0.23369 0.70339 0.0
C1431 C 0.4472 0.22195 0.71698 0.0
N1432 N 0.4499 0.2112 0.72369 0.0
C1433 C 0.47264 0.22111 0.70355 0.0
C1434 C 0.47078 0.2332 0.69676 0.0
Co1435 Co 0.43447 0.195 0.73817 0.0
C1436 C 0.43276 0.21948 0.72561 0.0
O1437 O 0.42871 0.22958 0.72369 0.0
C1438 C 0.41229 0.20392 0.75278 0.0
C1439 C 0.41427 0.21052 0.77526 0.0
C1440 C 0.40176 0.20766 0.78884 0.0
C1441 C 0.38753 0.19797 0.78012 0.0
C1442 C 0.38564 0.1912 0.7582 0.0
C1443 C 0.39803 0.19438 0.74439 0.0
C1444 C 0.40277 0.21302 0.81315 0.0
C1445 C 0.44509 0.17347 0.74938 0.0
C1446 C 0.45581 0.17544 0.76618 0.0
C1447 C 0.43299 0.15921 0.74542 0.0
C1448 C 0.43118 0.14724 0.75914 0.0
C1449 C 0.44166 0.14935 0.77644 0.0
C1450 C 0.45429 0.16345 0.77961 0.0
N1451 N 0.44693 0.186 0.73601 0.0
N1452 N 0.42466 0.20667 0.73826 0.0
N1453 N 0.44139 0.20137 0.77066 0.0
C1454 C 0.45524 0.2141 0.77756 0.0
C1455 C 0.46568 0.2123 0.79067 0.0
C1456 C 0.45838 0.22844 0.77151 0.0
C1457 C 0.47949 0.22464 0.7967 0.0
H1458 H 0.463 0.20126 0.79617 0.0
C1459 C 0.48271 0.2389 0.78949 0.0
C1460 C 0.4722 0.24092 0.77686 0.0
C1461 C 0.49058 0.22265 0.81035 0.0
H1462 H 0.44994 0.22995 0.76306 0.0
H1463 H 0.49337 0.24847 0.79388 0.0
C1464 C 0.47564 0.25603 0.76939 0.0
O1465 O 0.50369 0.2346 0.81653 0.0
O1466 O 0.48795 0.21021 0.81608 0.0
O1467 O 0.46663 0.25771 0.75786 0.0
O1468 O 0.48875 0.26804 0.77537 0.0
H1469 H 0.51109 0.23356 0.82542 0.0
H1470 H 0.49116 0.27799 0.77087 0.0
N1471 N 0.41869 0.17882 0.75204 0.0
C1472 C 0.40813 0.16922 0.7375 0.0
C1473 C 0.39596 0.15666 0.74729 0.0
C1474 C 0.39521 0.15518 0.77219 0.0
C1475 C 0.40657 0.16603 0.78666 0.0
C1476 C 0.41855 0.17813 0.77557 0.0
N1477 N 0.42498 0.1858 0.70799 0.0
C1478 C 0.41168 0.17318 0.7124 0.0
O1479 O 0.40352 0.16418 0.69535 0.0
C1480 C 0.43163 0.19082 0.78641 0.0
O1481 O 0.44028 0.22696 0.82659 0.0
O1482 O 0.45268 0.22077 0.85064 0.0
C1483 C 0.43214 0.1879 0.68531 0.0
C1484 C 0.42939 0.19547 0.66706 0.0
C1485 C 0.43517 0.1962 0.64426 0.0
C1486 C 0.44383 0.1896 0.63999 0.0
C1487 C 0.44597 0.18137 0.65744 0.0
C1488 C 0.43986 0.18027 0.68 0.0
O1489 O 0.40801 0.17779 0.8588 0.0
O1490 O 0.39221 0.18044 0.83714 0.0
O1491 O 0.40999 0.21038 0.82847 0.0
O1492 O 0.39256 0.2152 0.82086 0.0
O1493 O 0.43437 0.19115 0.8099 0.0
C1494 C 0.41516 0.20767 0.89761 0.0
O1495 O 0.40302 0.20592 0.889 0.0
O1496 O 0.42458 0.2063 0.88482 0.0
C1497 C 0.45231 0.23062 0.83756 0.0
H1498 H 0.4563 0.24277 0.69785 0.0
H1499 H 0.48226 0.22048 0.69787 0.0
H1500 H 0.47918 0.24204 0.68606 0.0
H1501 H 0.42535 0.21774 0.78205 0.0
H1502 H 0.3778 0.19526 0.79075 0.0
H1503 H 0.39664 0.18963 0.72688 0.0
H1504 H 0.46551 0.18633 0.7685 0.0
H1505 H 0.42514 0.1572 0.73145 0.0
H1506 H 0.44024 0.13985 0.78646 0.0
H1507 H 0.38732 0.14833 0.73619 0.0
H1508 H 0.38584 0.14566 0.78025 0.0
H1509 H 0.40599 0.16496 0.80571 0.0
H1510 H 0.42239 0.20025 0.6704 0.0
H1511 H 0.44799 0.18988 0.62228 0.0
H1512 H 0.4408 0.17322 0.69315 0.0
Cd1513 Cd 0.79219 0.22471 0.8423 0.0
C1514 C 0.82203 0.22448 0.85528 0.0
C1515 C 0.80014 0.26543 0.72459 0.0
O1516 O 0.80597 0.27971 0.72011 0.0
Cd1517 Cd 0.80002 0.19101 0.85375 0.0
C1518 C 0.78477 0.25461 0.71807 0.0
C1519 C 0.75769 0.22978 0.7056 0.0
C1520 C 0.76827 0.22852 0.71915 0.0
N1521 N 0.78072 0.2409 0.72531 0.0
C1522 C 0.77479 0.25679 0.70438 0.0
C1523 C 0.76103 0.24417 0.69838 0.0
Co1524 Co 0.79541 0.2383 0.73873 0.0
C1525 C 0.76808 0.21498 0.72725 0.0
O1526 O 0.75646 0.20163 0.72452 0.0
C1527 C 0.7817 0.20561 0.7502 0.0
C1528 C 0.78007 0.20312 0.77474 0.0
C1529 C 0.78193 0.19175 0.78488 0.0
C1530 C 0.78501 0.1828 0.77013 0.0
C1531 C 0.78698 0.18563 0.74597 0.0
C1532 C 0.78505 0.19679 0.73594 0.0
C1533 C 0.78369 0.19083 0.81058 0.0
C1534 C 0.82071 0.26911 0.7502 0.0
C1535 C 0.82016 0.2794 0.76555 0.0
C1536 C 0.83393 0.26869 0.74821 0.0
C1537 C 0.84622 0.27808 0.76213 0.0
C1538 C 0.84554 0.28823 0.7776 0.0
C1539 C 0.83257 0.28924 0.77888 0.0
N1540 N 0.80796 0.25979 0.73589 0.0
N1541 N 0.78044 0.21737 0.73946 0.0
N1542 N 0.79094 0.24068 0.77163 0.0
C1543 C 0.7792 0.24311 0.77957 0.0
C1544 C 0.78249 0.25621 0.79152 0.0
C1545 C 0.76434 0.23225 0.77585 0.0
C1546 C 0.77106 0.25887 0.79862 0.0
H1547 H 0.79396 0.26429 0.79526 0.0
C1548 C 0.7562 0.24812 0.79379 0.0
C1549 C 0.75274 0.23475 0.78238 0.0
C1550 C 0.7746 0.2729 0.81088 0.0
H1551 H 0.76179 0.22169 0.76839 0.0
H1552 H 0.74732 0.25012 0.79902 0.0
C1553 C 0.73703 0.22343 0.77733 0.0
O1554 O 0.76354 0.27531 0.81788 0.0
O1555 O 0.78752 0.28239 0.81469 0.0
O1556 O 0.73409 0.2122 0.76615 0.0
O1557 O 0.72585 0.22542 0.78511 0.0
H1558 H 0.76559 0.28438 0.82587 0.0
H1559 H 0.71554 0.21811 0.78221 0.0
N1560 N 0.80996 0.23532 0.75153 0.0
C1561 C 0.81759 0.23182 0.73644 0.0
C1562 C 0.82895 0.22967 0.74536 0.0
C1563 C 0.83153 0.23108 0.77003 0.0
C1564 C 0.82292 0.23468 0.7851 0.0
C1565 C 0.8118 0.23672 0.7749 0.0
N1566 N 0.80255 0.2356 0.70798 0.0
C1567 C 0.81335 0.2319 0.71165 0.0
O1568 O 0.82078 0.2304 0.69407 0.0
C1569 C 0.80122 0.24017 0.78655 0.0
O1570 O 0.76696 0.21111 0.83145 0.0
O1571 O 0.77333 0.23208 0.84918 0.0
C1572 C 0.80106 0.24085 0.68505 0.0
C1573 C 0.79254 0.23048 0.66734 0.0
C1574 C 0.79297 0.23524 0.64392 0.0
C1575 C 0.80177 0.25029 0.63836 0.0
C1576 C 0.81092 0.26063 0.65525 0.0
C1577 C 0.8106 0.25589 0.67863 0.0
O1578 O 0.81671 0.23248 0.86241 0.0
O1579 O 0.8153 0.2156 0.83852 0.0
O1580 O 0.78686 0.2018 0.82391 0.0
O1581 O 0.7845 0.18003 0.81939 0.0
O1582 O 0.80231 0.24343 0.80995 0.0
C1583 C 0.78782 0.2069 0.89795 0.0
O1584 O 0.79062 0.19716 0.88942 0.0
O1585 O 0.78838 0.21734 0.88512 0.0
C1586 C 0.76328 0.22031 0.83906 0.0
H1587 H 0.74739 0.22005 0.70036 0.0
H1588 H 0.77762 0.26773 0.69808 0.0
H1589 H 0.75314 0.24549 0.68767 0.0
H1590 H 0.7778 0.21023 0.78584 0.0
H1591 H 0.78741 0.17461 0.77759 0.0
H1592 H 0.78708 0.19927 0.71723 0.0
H1593 H 0.81008 0.28001 0.76665 0.0
H1594 H 0.83493 0.26145 0.7356 0.0
H1595 H 0.85534 0.29569 0.78767 0.0
H1596 H 0.83565 0.22711 0.73376 0.0
H1597 H 0.84023 0.22948 0.77743 0.0
H1598 H 0.82494 0.23587 0.80393 0.0
H1599 H 0.78619 0.21875 0.6716 0.0
H1600 H 0.80223 0.25386 0.62018 0.0
H1601 H 0.81841 0.26364 0.69135 0.0
Cd1602 Cd 0.42452 0.2205 0.34138 0.0
C1603 C 0.39468 0.21731 0.35654 0.0
C1604 C 0.46045 0.26248 0.22479 0.0
O1605 O 0.47144 0.27612 0.22131 0.0
Cd1606 Cd 0.38624 0.17991 0.3562 0.0
C1607 C 0.4611 0.24941 0.21651 0.0
C1608 C 0.45593 0.22158 0.20139 0.0
C1609 C 0.44568 0.2231 0.21542 0.0
N1610 N 0.44915 0.23668 0.22277 0.0
C1611 C 0.47184 0.24882 0.20234 0.0
C1612 C 0.46919 0.23467 0.19497 0.0
Co1613 Co 0.43429 0.2382 0.23781 0.0
C1614 C 0.43102 0.21152 0.22401 0.0
O1615 O 0.42628 0.19725 0.22163 0.0
C1616 C 0.41098 0.20741 0.25162 0.0
C1617 C 0.41283 0.20197 0.27339 0.0
C1618 C 0.40034 0.19322 0.28755 0.0
C1619 C 0.38636 0.19059 0.28043 0.0
C1620 C 0.38445 0.19572 0.25868 0.0
C1621 C 0.39685 0.204 0.24418 0.0
C1622 C 0.40124 0.18721 0.3105 0.0
C1623 C 0.44653 0.27061 0.24988 0.0
C1624 C 0.45753 0.27897 0.26659 0.0
C1625 C 0.43533 0.27401 0.2453 0.0
C1626 C 0.43495 0.28541 0.25776 0.0
C1627 C 0.44592 0.2937 0.27446 0.0
C1628 C 0.45759 0.2908 0.27867 0.0
N1629 N 0.44764 0.25954 0.23635 0.0
N1630 N 0.42344 0.21669 0.23699 0.0
N1631 N 0.44098 0.23778 0.27022 0.0
C1632 C 0.4549 0.23888 0.27664 0.0
C1633 C 0.4652 0.25072 0.2906 0.0
C1634 C 0.45841 0.22826 0.26867 0.0
C1635 C 0.47927 0.25248 0.29543 0.0
H1636 H 0.46226 0.25861 0.29754 0.0
C1637 C 0.48293 0.24218 0.28603 0.0
C1638 C 0.47257 0.23005 0.27252 0.0
C1639 C 0.49022 0.26513 0.31 0.0
H1640 H 0.45003 0.21846 0.25982 0.0
H1641 H 0.49382 0.24356 0.28937 0.0
C1642 C 0.47649 0.21919 0.26265 0.0
O1643 O 0.50358 0.26653 0.31503 0.0
O1644 O 0.48723 0.27436 0.31755 0.0
O1645 O 0.4676 0.20889 0.25032 0.0
O1646 O 0.48988 0.22059 0.26732 0.0
H1647 H 0.51088 0.27469 0.32449 0.0
H1648 H 0.49261 0.21357 0.26123 0.0
N1649 N 0.41906 0.2394 0.25215 0.0
C1650 C 0.40876 0.2392 0.23783 0.0
C1651 C 0.39668 0.23961 0.24793 0.0
C1652 C 0.39578 0.23966 0.27288 0.0
C1653 C 0.40687 0.2394 0.28709 0.0
C1654 C 0.41873 0.23921 0.27572 0.0
N1655 N 0.42513 0.23893 0.20792 0.0
C1656 C 0.41221 0.23899 0.21263 0.0
O1657 O 0.40425 0.24038 0.1958 0.0
C1658 C 0.43135 0.23856 0.2863 0.0
O1659 O 0.43905 0.21236 0.32155 0.0
O1660 O 0.44997 0.22673 0.35186 0.0
C1661 C 0.43216 0.24354 0.18508 0.0
C1662 C 0.42928 0.23281 0.16745 0.0
C1663 C 0.43427 0.23732 0.14416 0.0
C1664 C 0.44203 0.25245 0.13863 0.0
C1665 C 0.4443 0.26321 0.15546 0.0
C1666 C 0.43952 0.25877 0.17882 0.0
O1667 O 0.4065 0.22967 0.35322 0.0
O1668 O 0.39568 0.20589 0.35315 0.0
O1669 O 0.40834 0.1959 0.32723 0.0
O1670 O 0.39112 0.17427 0.3163 0.0
O1671 O 0.43388 0.24016 0.30996 0.0
C1672 C 0.4145 0.19942 0.39672 0.0
O1673 O 0.404 0.18711 0.38857 0.0
O1674 O 0.42128 0.21125 0.38399 0.0
C1675 C 0.45028 0.21857 0.33516 0.0
H1676 H 0.45374 0.21078 0.19537 0.0
H1677 H 0.48174 0.25886 0.1968 0.0
H1678 H 0.47728 0.23387 0.18396 0.0
H1679 H 0.42379 0.20447 0.27908 0.0
H1680 H 0.37686 0.18441 0.29194 0.0
H1681 H 0.3956 0.20757 0.22677 0.0
H1682 H 0.46633 0.27646 0.2695 0.0
H1683 H 0.42722 0.26832 0.23157 0.0
H1684 H 0.44558 0.30282 0.28311 0.0
H1685 H 0.38819 0.23976 0.23704 0.0
H1686 H 0.38649 0.23983 0.28118 0.0
H1687 H 0.4061 0.23927 0.30616 0.0
H1688 H 0.42267 0.22109 0.17165 0.0
H1689 H 0.4454 0.25586 0.12047 0.0
H1690 H 0.44068 0.26699 0.19171 0.0
Cd1691 Cd 0.76968 0.20214 0.34106 0.0
C1692 C 0.7732 0.1727 0.35219 0.0
C1693 C 0.72817 0.19435 0.22542 0.0
O1694 O 0.71417 0.19045 0.22182 0.0
Cd1695 Cd 0.80571 0.19895 0.3548 0.0
C1696 C 0.74046 0.2088 0.21765 0.0
C1697 C 0.76732 0.23332 0.20332 0.0
C1698 C 0.7669 0.22192 0.21706 0.0
N1699 N 0.75369 0.21081 0.22398 0.0
C1700 C 0.73996 0.21969 0.20378 0.0
C1701 C 0.75361 0.23214 0.19679 0.0
Co1702 Co 0.75378 0.19501 0.23846 0.0
C1703 C 0.77931 0.22014 0.22556 0.0
O1704 O 0.7933 0.23055 0.22308 0.0
C1705 C 0.78543 0.20504 0.25172 0.0
C1706 C 0.7898 0.21075 0.27474 0.0
C1707 C 0.80026 0.2084 0.28702 0.0
C1708 C 0.80599 0.20021 0.27624 0.0
C1709 C 0.8012 0.19416 0.25384 0.0
C1710 C 0.79114 0.19682 0.24145 0.0
C1711 C 0.804 0.21235 0.31203 0.0
C1712 C 0.72193 0.17248 0.25003 0.0
C1713 C 0.71279 0.17403 0.26662 0.0
C1714 C 0.72043 0.15846 0.24636 0.0
C1715 C 0.7105 0.14635 0.26004 0.0
C1716 C 0.70169 0.14804 0.27701 0.0
C1717 C 0.70249 0.16186 0.27996 0.0
N1718 N 0.73223 0.18513 0.23643 0.0
N1719 N 0.77519 0.20752 0.23841 0.0
N1720 N 0.75294 0.20115 0.271 0.0
C1721 C 0.75109 0.21347 0.27782 0.0
C1722 C 0.73866 0.2111 0.29095 0.0
C1723 C 0.7616 0.22795 0.27111 0.0
C1724 C 0.73627 0.22297 0.29626 0.0
H1725 H 0.73081 0.19998 0.29688 0.0
C1726 C 0.74654 0.23732 0.28817 0.0
C1727 C 0.75922 0.2399 0.27544 0.0
C1728 C 0.72298 0.22039 0.30989 0.0
H1729 H 0.77177 0.22996 0.26281 0.0
H1730 H 0.74467 0.2465 0.29181 0.0
C1731 C 0.76991 0.25503 0.26659 0.0
O1732 O 0.72088 0.23189 0.31518 0.0
O1733 O 0.71385 0.20785 0.31642 0.0
O1734 O 0.78045 0.25707 0.2543 0.0
O1735 O 0.76808 0.26667 0.2721 0.0
H1736 H 0.71229 0.23046 0.32404 0.0
H1737 H 0.77497 0.27663 0.26664 0.0
N1738 N 0.75426 0.17926 0.25227 0.0
C1739 C 0.75585 0.17005 0.23769 0.0
C1740 C 0.75637 0.15794 0.24744 0.0
C1741 C 0.75571 0.15643 0.27234 0.0
C1742 C 0.75441 0.16682 0.28684 0.0
C1743 C 0.75373 0.17852 0.2758 0.0
N1744 N 0.75455 0.18611 0.20823 0.0
C1745 C 0.75598 0.17391 0.21259 0.0
O1746 O 0.75574 0.16521 0.1955 0.0
C1747 C 0.75258 0.19078 0.2867 0.0
O1748 O 0.78193 0.22612 0.32439 0.0
O1749 O 0.76429 0.22228 0.34917 0.0
C1750 C 0.74979 0.18827 0.18531 0.0
C1751 C 0.76034 0.1959 0.16736 0.0
C1752 C 0.75561 0.19686 0.1444 0.0
C1753 C 0.74041 0.19038 0.1397 0.0
C1754 C 0.72978 0.1821 0.15683 0.0
C1755 C 0.7345 0.18075 0.17951 0.0
O1756 O 0.76501 0.17788 0.35911 0.0
O1757 O 0.78293 0.17996 0.33669 0.0
O1758 O 0.7939 0.20944 0.327 0.0
O1759 O 0.81633 0.21452 0.32005 0.0
O1760 O 0.7501 0.19091 0.31022 0.0
C1761 C 0.78531 0.2073 0.39757 0.0
O1762 O 0.79594 0.2058 0.38936 0.0
O1763 O 0.7747 0.20595 0.38432 0.0
C1764 C 0.77453 0.23107 0.33502 0.0
H1765 H 0.77776 0.24266 0.19759 0.0
H1766 H 0.72947 0.21853 0.19813 0.0
H1767 H 0.75357 0.24071 0.18599 0.0
H1768 H 0.78509 0.21688 0.28288 0.0
H1769 H 0.81366 0.19785 0.28573 0.0
H1770 H 0.78781 0.19261 0.22363 0.0
H1771 H 0.71353 0.18474 0.2688 0.0
H1772 H 0.7266 0.15675 0.2326 0.0
H1773 H 0.69377 0.13839 0.28694 0.0
H1774 H 0.75728 0.14994 0.23633 0.0
H1775 H 0.75621 0.14724 0.28037 0.0
H1776 H 0.75399 0.16574 0.30589 0.0
H1777 H 0.77209 0.20067 0.17111 0.0
H1778 H 0.73676 0.19086 0.12189 0.0
H1779 H 0.72633 0.17365 0.19242 0.0
Cd1780 Cd 0.79198 0.56838 0.34134 0.0
C1781 C 0.82072 0.60071 0.35017 0.0
C1782 C 0.79819 0.53423 0.22511 0.0
O1783 O 0.80132 0.52359 0.22132 0.0
Cd1784 Cd 0.7948 0.60792 0.35368 0.0
C1785 C 0.78406 0.53293 0.21752 0.0
C1786 C 0.76038 0.53684 0.20373 0.0
C1787 C 0.77221 0.54748 0.21724 0.0
N1788 N 0.78287 0.54463 0.22392 0.0
C1789 C 0.7727 0.52184 0.20383 0.0
C1790 C 0.76069 0.52385 0.19712 0.0
Co1791 Co 0.7992 0.55999 0.23827 0.0
C1792 C 0.77485 0.56198 0.22588 0.0
O1793 O 0.76482 0.56612 0.22411 0.0
C1794 C 0.79049 0.5823 0.25324 0.0
C1795 C 0.7835 0.58016 0.27542 0.0
C1796 C 0.78623 0.59257 0.28918 0.0
C1797 C 0.79615 0.60688 0.28092 0.0
C1798 C 0.80328 0.60891 0.25928 0.0
C1799 C 0.80027 0.59661 0.24534 0.0
C1800 C 0.78027 0.59133 0.31313 0.0
C1801 C 0.82052 0.54901 0.24934 0.0
C1802 C 0.81858 0.53811 0.2658 0.0
C1803 C 0.83481 0.56106 0.24534 0.0
C1804 C 0.84683 0.56262 0.25864 0.0
C1805 C 0.84476 0.55195 0.27553 0.0
C1806 C 0.83065 0.53936 0.27872 0.0
N1807 N 0.80798 0.54732 0.23612 0.0
N1808 N 0.78772 0.57001 0.23842 0.0
N1809 N 0.79291 0.55321 0.27082 0.0
C1810 C 0.78025 0.53932 0.27777 0.0
C1811 C 0.78215 0.52896 0.29094 0.0
C1812 C 0.76588 0.53599 0.27147 0.0
C1813 C 0.76989 0.51507 0.29683 0.0
H1814 H 0.79321 0.53176 0.29654 0.0
C1815 C 0.75562 0.51164 0.2893 0.0
C1816 C 0.75351 0.52204 0.27655 0.0
C1817 C 0.77197 0.5041 0.31069 0.0
H1818 H 0.76428 0.54436 0.26299 0.0
H1819 H 0.74613 0.5009 0.29354 0.0
C1820 C 0.7384 0.51837 0.26868 0.0
O1821 O 0.76008 0.49094 0.31686 0.0
O1822 O 0.78442 0.50688 0.3166 0.0
O1823 O 0.73665 0.52729 0.25702 0.0
O1824 O 0.72646 0.50515 0.27445 0.0
H1825 H 0.76117 0.48363 0.3259 0.0
H1826 H 0.71651 0.5026 0.2697 0.0
N1827 N 0.81552 0.57572 0.25195 0.0
C1828 C 0.82508 0.58622 0.2373 0.0
C1829 C 0.83768 0.59843 0.24694 0.0
C1830 C 0.83922 0.59929 0.27184 0.0
C1831 C 0.82839 0.588 0.28643 0.0
C1832 C 0.81625 0.57598 0.27548 0.0
N1833 N 0.80833 0.56933 0.20798 0.0
C1834 C 0.82102 0.5826 0.21225 0.0
O1835 O 0.82998 0.59067 0.1951 0.0
C1836 C 0.80353 0.56301 0.28646 0.0
O1837 O 0.768 0.55464 0.32502 0.0
O1838 O 0.77368 0.54238 0.35024 0.0
C1839 C 0.80612 0.56206 0.18538 0.0
C1840 C 0.7983 0.56457 0.16725 0.0
C1841 C 0.79742 0.55866 0.14451 0.0
C1842 C 0.80416 0.55014 0.14016 0.0
C1843 C 0.81257 0.54817 0.1575 0.0
C1844 C 0.81379 0.55438 0.18001 0.0
O1845 O 0.8171 0.58764 0.35695 0.0
O1846 O 0.81223 0.60195 0.33548 0.0
O1847 O 0.78301 0.58439 0.32885 0.0
O1848 O 0.77766 0.60134 0.32042 0.0
O1849 O 0.80324 0.56042 0.30999 0.0
C1850 C 0.78669 0.57985 0.39751 0.0
O1851 O 0.78805 0.59186 0.38893 0.0
O1852 O 0.78818 0.57053 0.3846 0.0
C1853 C 0.76413 0.54266 0.3363 0.0
H1854 H 0.75136 0.53853 0.19824 0.0
H1855 H 0.77318 0.51214 0.19815 0.0
H1856 H 0.75176 0.51548 0.18648 0.0
H1857 H 0.77603 0.56904 0.28178 0.0
H1858 H 0.79866 0.61653 0.29162 0.0
H1859 H 0.80524 0.59813 0.22798 0.0
H1860 H 0.80766 0.52847 0.26819 0.0
H1861 H 0.8368 0.56903 0.23157 0.0
H1862 H 0.85432 0.55318 0.28517 0.0
H1863 H 0.84597 0.60703 0.23575 0.0
H1864 H 0.84877 0.60868 0.27979 0.0
H1865 H 0.8295 0.58868 0.30547 0.0
H1866 H 0.79336 0.57142 0.17068 0.0
H1867 H 0.80373 0.54584 0.1225 0.0
H1868 H 0.82092 0.55353 0.1931 0.0
Cd1869 Cd 0.55517 0.09612 0.83979 0.0
C1870 C 0.55548 0.06639 0.82739 0.0
C1871 C 0.59733 0.12903 0.95583 0.0
O1872 O 0.61164 0.13783 0.95964 0.0
Cd1873 Cd 0.52169 0.05438 0.82888 0.0
C1874 C 0.58631 0.13304 0.96352 0.0
C1875 C 0.56125 0.13407 0.97861 0.0
C1876 C 0.5601 0.12253 0.96436 0.0
N1877 N 0.57256 0.12308 0.9569 0.0
C1878 C 0.58839 0.14491 0.97786 0.0
C1879 C 0.57565 0.14544 0.98517 0.0
Co1880 Co 0.57027 0.10608 0.94277 0.0
C1881 C 0.54664 0.10895 0.95665 0.0
O1882 O 0.5332 0.10677 0.96036 0.0
C1883 C 0.53738 0.08635 0.93269 0.0
C1884 C 0.53463 0.08583 0.90827 0.0
C1885 C 0.52289 0.0729 0.89806 0.0
C1886 C 0.51369 0.06093 0.91271 0.0
C1887 C 0.51684 0.06119 0.93678 0.0
C1888 C 0.5285 0.07406 0.94679 0.0
C1889 C 0.52166 0.07044 0.87224 0.0
C1890 C 0.60117 0.11288 0.92888 0.0
C1891 C 0.6108 0.12414 0.91349 0.0
C1892 C 0.6019 0.09981 0.93052 0.0
C1893 C 0.61221 0.09816 0.91687 0.0
C1894 C 0.62209 0.10967 0.90202 0.0
C1895 C 0.62177 0.12304 0.90077 0.0
N1896 N 0.59183 0.11565 0.94426 0.0
N1897 N 0.54915 0.09936 0.94354 0.0
N1898 N 0.57173 0.11302 0.91003 0.0
C1899 C 0.57421 0.12734 0.9027 0.0
C1900 C 0.58672 0.13685 0.8892 0.0
C1901 C 0.56408 0.13191 0.90891 0.0
C1902 C 0.58963 0.1512 0.88319 0.0
H1903 H 0.5942 0.13307 0.88347 0.0
C1904 C 0.5797 0.15586 0.89063 0.0
C1905 C 0.56688 0.14628 0.90355 0.0
C1906 C 0.60312 0.1614 0.86946 0.0
H1907 H 0.55382 0.12415 0.91745 0.0
H1908 H 0.58192 0.16696 0.88631 0.0
C1909 C 0.55645 0.15129 0.91145 0.0
O1910 O 0.60572 0.17509 0.86344 0.0
O1911 O 0.612 0.15751 0.86357 0.0
O1912 O 0.54592 0.14335 0.9242 0.0
O1913 O 0.55849 0.16463 0.9045 0.0
H1914 H 0.61445 0.18192 0.85454 0.0
H1915 H 0.55175 0.16804 0.90927 0.0
N1916 N 0.56761 0.08881 0.92942 0.0
C1917 C 0.56463 0.07767 0.94424 0.0
C1918 C 0.56234 0.06423 0.93483 0.0
C1919 C 0.56329 0.0632 0.91002 0.0
C1920 C 0.56649 0.07546 0.89529 0.0
C1921 C 0.56851 0.08849 0.90595 0.0
N1922 N 0.5686 0.09626 0.97321 0.0
C1923 C 0.56517 0.08188 0.96921 0.0
O1924 O 0.56434 0.07303 0.98651 0.0
C1925 C 0.57137 0.10247 0.8947 0.0
O1926 O 0.54201 0.1075 0.85384 0.0
O1927 O 0.56128 0.12202 0.83227 0.0
C1928 C 0.57432 0.10317 0.99587 0.0
C1929 C 0.56441 0.10148 0.01421 0.0
C1930 C 0.56988 0.1069 0.03699 0.0
C1931 C 0.58519 0.1143 0.04116 0.0
C1932 C 0.5951 0.11541 0.02358 0.0
C1933 C 0.58961 0.10945 1.00109 0.0
O1934 O 0.56357 0.07969 0.82024 0.0
O1935 O 0.54642 0.0643 0.84382 0.0
O1936 O 0.53246 0.07834 0.85868 0.0
O1937 O 0.51082 0.05882 0.8635 0.0
O1938 O 0.57436 0.10486 0.87126 0.0
C1939 C 0.537 0.08226 0.78436 0.0
O1940 O 0.52742 0.06968 0.79298 0.0
O1941 O 0.54738 0.09227 0.79713 0.0
C1942 C 0.55026 0.12023 0.8448 0.0
H1943 H 0.55146 0.13417 0.98485 0.0
H1944 H 0.59937 0.15324 0.9837 0.0
H1945 H 0.5769 0.15443 0.9964 0.0
H1946 H 0.54173 0.09529 0.89731 0.0
H1947 H 0.50476 0.0508 0.9051 0.0
H1948 H 0.53125 0.07436 0.96535 0.0
H1949 H 0.61016 0.13419 0.91246 0.0
H1950 H 0.59495 0.09115 0.94283 0.0
H1951 H 0.63038 0.10832 0.89252 0.0
H1952 H 0.56006 0.05492 0.94616 0.0
H1953 H 0.56164 0.05297 0.90224 0.0
H1954 H 0.56737 0.07475 0.87637 0.0
H1955 H 0.55254 0.0955 0.01095 0.0
H1956 H 0.58937 0.11831 0.05883 0.0
H1957 H 0.59714 0.1094 0.98796 0.0
Cd1958 Cd 0.90093 0.46059 0.84117 0.0
C1959 C 0.93276 0.48974 0.83046 0.0
C1960 C 0.86626 0.46593 0.95774 0.0
O1961 O 0.85538 0.46865 0.9619 0.0
Cd1962 Cd 0.94126 0.46476 0.828 0.0
C1963 C 0.86551 0.45206 0.96539 0.0
C1964 C 0.87045 0.42903 0.97915 0.0
C1965 C 0.88073 0.44095 0.9654 0.0
N1966 N 0.87739 0.45127 0.95873 0.0
C1967 C 0.85476 0.44058 0.97932 0.0
C1968 C 0.85728 0.4289 0.98602 0.0
Co1969 Co 0.8923 0.46779 0.94403 0.0
C1970 C 0.8953 0.44401 0.95644 0.0
O1971 O 0.89991 0.43434 0.95823 0.0
C1972 C 0.91533 0.46008 0.92901 0.0
C1973 C 0.91346 0.45329 0.90672 0.0
C1974 C 0.92602 0.4565 0.89301 0.0
C1975 C 0.94019 0.46676 0.90137 0.0
C1976 C 0.94201 0.4735 0.92335 0.0
C1977 C 0.92953 0.46997 0.93723 0.0
C1978 C 0.92506 0.4505 0.86916 0.0
C1979 C 0.88006 0.48814 0.93295 0.0
C1980 C 0.86855 0.48563 0.91737 0.0
C1981 C 0.89171 0.50269 0.93659 0.0
C1982 C 0.89201 0.51448 0.92425 0.0
C1983 C 0.88052 0.51191 0.90869 0.0
C1984 C 0.86841 0.49744 0.90561 0.0
N1985 N 0.87909 0.47594 0.94632 0.0
N1986 N 0.90291 0.45687 0.94376 0.0
N1987 N 0.88541 0.4612 0.9116 0.0
C1988 C 0.87148 0.44845 0.90505 0.0
C1989 C 0.86093 0.45019 0.89216 0.0
C1990 C 0.86818 0.43419 0.91194 0.0
C1991 C 0.84683 0.43792 0.88735 0.0
H1992 H 0.8637 0.46116 0.88608 0.0
C1993 C 0.84342 0.42378 0.89558 0.0
C1994 C 0.85403 0.42182 0.908 0.0
C1995 C 0.83557 0.43986 0.87412 0.0
H1996 H 0.8767 0.43268 0.92012 0.0
H1997 H 0.83251 0.41429 0.89226 0.0
C1998 C 0.85032 0.40688 0.91685 0.0
O1999 O 0.82212 0.42797 0.86927 0.0
O2000 O 0.83837 0.45222 0.86756 0.0
O2001 O 0.85936 0.40532 0.92853 0.0
O2002 O 0.83694 0.39489 0.91201 0.0
H2003 H 0.81461 0.42899 0.8607 0.0
H2004 H 0.83435 0.38506 0.91747 0.0
N2005 N 0.90762 0.48431 0.93004 0.0
C2006 C 0.91821 0.49398 0.94447 0.0
C2007 C 0.93046 0.50641 0.93455 0.0
C2008 C 0.9312 0.50773 0.90963 0.0
C2009 C 0.91982 0.49681 0.89528 0.0
C2010 C 0.90781 0.4848 0.90649 0.0
N2011 N 0.90172 0.47723 0.97416 0.0
C2012 C 0.91483 0.49003 0.96961 0.0
O2013 O 0.92297 0.49913 0.98659 0.0
C2014 C 0.89495 0.47184 0.89576 0.0
O2015 O 0.88754 0.43681 0.85844 0.0
O2016 O 0.87574 0.44091 0.83022 0.0
C2017 C 0.89463 0.47498 0.99695 0.0
C2018 C 0.89791 0.46786 0.01532 0.0
C2019 C 0.89218 0.46707 0.03819 0.0
C2020 C 0.88299 0.47307 0.0424 0.0
C2021 C 0.88029 0.48086 0.02485 0.0
C2022 C 0.8864 0.4821 1.00224 0.0
O2023 O 0.91948 0.48573 0.82434 0.0
O2024 O 0.9345 0.48176 0.84552 0.0
O2025 O 0.9178 0.45268 0.85331 0.0
O2026 O 0.93539 0.44832 0.86204 0.0
O2027 O 0.89219 0.47133 0.87225 0.0
C2028 C 0.9126 0.45555 0.78496 0.0
O2029 O 0.92485 0.45723 0.79303 0.0
O2030 O 0.90332 0.45686 0.79821 0.0
C2031 C 0.87605 0.43198 0.84548 0.0
H2032 H 0.87254 0.42026 0.98462 0.0
H2033 H 0.84492 0.44074 0.98519 0.0
H2034 H 0.84918 0.41989 0.99683 0.0
H2035 H 0.90241 0.44557 0.90031 0.0
H2036 H 0.9499 0.46968 0.89059 0.0
H2037 H 0.93079 0.47455 0.95484 0.0
H2038 H 0.8594 0.47442 0.91509 0.0
H2039 H 0.90024 0.50507 0.94953 0.0
H2040 H 0.8808 0.52135 0.90008 0.0
H2041 H 0.93918 0.51474 0.94555 0.0
H2042 H 0.94062 0.51715 0.90146 0.0
H2043 H 0.92047 0.49769 0.87621 0.0
H2044 H 0.90529 0.46351 0.01201 0.0
H2045 H 0.87884 0.47269 0.06016 0.0
H2046 H 0.88506 0.48886 0.98902 0.0
Cd2047 Cd 0.53344 0.44037 0.83848 0.0
C2048 C 0.50936 0.44551 0.81738 0.0
C2049 C 0.52819 0.39966 0.95632 0.0
O2050 O 0.525 0.38591 0.96044 0.0
Cd2051 Cd 0.53929 0.48167 0.82049 0.0
C2052 C 0.54233 0.4125 0.96386 0.0
C2053 C 0.56591 0.44007 0.97792 0.0
C2054 C 0.55421 0.43888 0.96405 0.0
N2055 N 0.54363 0.42538 0.95716 0.0
C2056 C 0.55356 0.41275 0.97788 0.0
C2057 C 0.56553 0.42677 0.9847 0.0
Co2058 Co 0.52726 0.42439 0.94282 0.0
C2059 C 0.55147 0.45073 0.95575 0.0
O2060 O 0.56132 0.46492 0.95808 0.0
C2061 C 0.53553 0.45555 0.92942 0.0
C2062 C 0.54177 0.46033 0.90686 0.0
C2063 C 0.53878 0.47012 0.89401 0.0
C2064 C 0.52929 0.47468 0.90348 0.0
C2065 C 0.52284 0.46965 0.92563 0.0
C2066 C 0.52623 0.46029 0.93874 0.0
C2067 C 0.54376 0.47435 0.86963 0.0
C2068 C 0.50631 0.39196 0.93105 0.0
C2069 C 0.50863 0.38281 0.91552 0.0
C2070 C 0.49185 0.38932 0.93458 0.0
C2071 C 0.47996 0.37793 0.92226 0.0
C2072 C 0.48233 0.36881 0.90685 0.0
C2073 C 0.4967 0.37088 0.90391 0.0
N2074 N 0.51856 0.40292 0.94469 0.0
N2075 N 0.53861 0.44589 0.9432 0.0
N2076 N 0.53365 0.42422 0.91019 0.0
C2077 C 0.54657 0.42349 0.90317 0.0
C2078 C 0.54506 0.41133 0.89016 0.0
C2079 C 0.5608 0.43498 0.90913 0.0
C2080 C 0.55761 0.41026 0.88404 0.0
H2081 H 0.53407 0.40272 0.88486 0.0
C2082 C 0.57177 0.42159 0.89114 0.0
C2083 C 0.57348 0.43401 0.90372 0.0
C2084 C 0.55597 0.39733 0.87037 0.0
H2085 H 0.56204 0.44482 0.91759 0.0
H2086 H 0.5815 0.42081 0.88667 0.0
C2087 C 0.58848 0.446 0.91102 0.0
O2088 O 0.56813 0.39665 0.86386 0.0
O2089 O 0.54363 0.38721 0.8649 0.0
O2090 O 0.58991 0.45668 0.92231 0.0
O2091 O 0.60068 0.44521 0.90515 0.0
H2092 H 0.56733 0.38833 0.85493 0.0
H2093 H 0.61056 0.45297 0.90951 0.0
N2094 N 0.51092 0.42377 0.92913 0.0
C2095 C 0.5014 0.42474 0.94382 0.0
C2096 C 0.48904 0.42484 0.93419 0.0
C2097 C 0.48762 0.42444 0.90929 0.0
C2098 C 0.49837 0.42388 0.89466 0.0
C2099 C 0.51031 0.4236 0.90558 0.0
N2100 N 0.51804 0.42435 0.97312 0.0
C2101 C 0.50538 0.42499 0.96887 0.0
O2102 O 0.49648 0.4242 0.98603 0.0
C2103 C 0.52309 0.4235 0.89451 0.0
O2104 O 0.55761 0.45086 0.85439 0.0
O2105 O 0.55167 0.43244 0.83005 0.0
C2106 C 0.5204 0.41955 0.99587 0.0
C2107 C 0.52875 0.43017 0.0134 0.0
C2108 C 0.52924 0.42556 0.03663 0.0
C2109 C 0.52134 0.41043 0.04219 0.0
C2110 C 0.51229 0.39981 0.02554 0.0
C2111 C 0.51199 0.40435 1.00223 0.0
O2112 O 0.50691 0.4326 0.82279 0.0
O2113 O 0.52196 0.456 0.82298 0.0
O2114 O 0.54122 0.46448 0.85448 0.0
O2115 O 0.547 0.48708 0.86191 0.0
O2116 O 0.52343 0.42136 0.87088 0.0
C2117 C 0.54729 0.46095 0.78307 0.0
O2118 O 0.5511 0.4739 0.79114 0.0
O2119 O 0.54053 0.44912 0.79578 0.0
C2120 C 0.56139 0.44258 0.84344 0.0
H2121 H 0.57484 0.45078 0.98365 0.0
H2122 H 0.55298 0.40256 0.98377 0.0
H2123 H 0.57435 0.42731 0.99563 0.0
H2124 H 0.54885 0.45649 0.89942 0.0
H2125 H 0.5265 0.48178 0.89322 0.0
H2126 H 0.52188 0.45686 0.95645 0.0
H2127 H 0.51979 0.38468 0.91327 0.0
H2128 H 0.48959 0.39558 0.94748 0.0
H2129 H 0.47282 0.35969 0.89831 0.0
H2130 H 0.48083 0.42528 0.9454 0.0
H2131 H 0.47824 0.42464 0.90135 0.0
H2132 H 0.49741 0.42378 0.8756 0.0
H2133 H 0.53432 0.44191 0.00915 0.0
H2134 H 0.52142 0.40697 0.06028 0.0
H2135 H 0.50457 0.39627 0.98945 0.0
Cd2136 Cd 0.56452 0.77283 0.67391 0.0
C2137 C 0.5944 0.77802 0.65674 0.0
C2138 C 0.53235 0.73051 0.79131 0.0
O2139 O 0.52264 0.71642 0.79511 0.0
Cd2140 Cd 0.59995 0.81405 0.65662 0.0
C2141 C 0.52988 0.74251 0.79958 0.0
C2142 C 0.53172 0.76895 0.81498 0.0
C2143 C 0.54252 0.76893 0.80027 0.0
N2144 N 0.54061 0.75589 0.79277 0.0
C2145 C 0.51867 0.74161 0.81441 0.0
C2146 C 0.51961 0.75506 0.8219 0.0
Co2147 Co 0.55654 0.75652 0.77744 0.0
C2148 C 0.55643 0.78162 0.79152 0.0
O2149 O 0.5597 0.79549 0.79447 0.0
C2150 C 0.57736 0.78845 0.76442 0.0
C2151 C 0.57536 0.79304 0.74198 0.0
C2152 C 0.58776 0.80388 0.72939 0.0
C2153 C 0.60195 0.80988 0.73927 0.0
C2154 C 0.60387 0.8048 0.761 0.0
C2155 C 0.59157 0.7943 0.77375 0.0
C2156 C 0.58681 0.80758 0.70469 0.0
C2157 C 0.54745 0.72493 0.76439 0.0
C2158 C 0.53625 0.71587 0.74845 0.0
C2159 C 0.56016 0.72357 0.76631 0.0
C2160 C 0.56194 0.7138 0.75154 0.0
C2161 C 0.55087 0.70502 0.73525 0.0
C2162 C 0.53771 0.70571 0.7341 0.0
N2163 N 0.54537 0.73494 0.77922 0.0
N2164 N 0.56501 0.77789 0.77807 0.0
N2165 N 0.54912 0.75574 0.74516 0.0
C2166 C 0.53464 0.7533 0.73896 0.0
C2167 C 0.52491 0.74099 0.72526 0.0
C2168 C 0.53007 0.76318 0.74668 0.0
C2169 C 0.51042 0.73807 0.72035 0.0
H2170 H 0.52862 0.73365 0.71854 0.0
C2171 C 0.50576 0.74768 0.7294 0.0
C2172 C 0.5155 0.76025 0.7427 0.0
C2173 C 0.5001 0.72493 0.70603 0.0
H2174 H 0.53795 0.77333 0.75535 0.0
H2175 H 0.49455 0.74542 0.72599 0.0
C2176 C 0.51053 0.77038 0.75223 0.0
O2177 O 0.48632 0.72241 0.7009 0.0
O2178 O 0.50398 0.7163 0.69878 0.0
O2179 O 0.51883 0.78094 0.76468 0.0
O2180 O 0.49681 0.76803 0.74712 0.0
H2181 H 0.47942 0.71392 0.69159 0.0
H2182 H 0.4934 0.77456 0.753 0.0
N2183 N 0.57281 0.75755 0.76284 0.0
C2184 C 0.58376 0.75904 0.77697 0.0
C2185 C 0.59627 0.75959 0.76668 0.0
C2186 C 0.59686 0.75912 0.74173 0.0
C2187 C 0.58503 0.75793 0.72772 0.0
C2188 C 0.57276 0.75716 0.73929 0.0
N2189 N 0.56662 0.75728 0.80716 0.0
C2190 C 0.58026 0.75889 0.80222 0.0
O2191 O 0.58893 0.75859 0.81889 0.0
C2192 C 0.55915 0.75585 0.72895 0.0
O2193 O 0.54969 0.78064 0.69361 0.0
O2194 O 0.53861 0.76552 0.66417 0.0
C2195 C 0.55989 0.75201 0.83005 0.0
C2196 C 0.56175 0.76228 0.84791 0.0
C2197 C 0.55692 0.75729 0.8711 0.0
C2198 C 0.5503 0.74214 0.87627 0.0
C2199 C 0.54897 0.73189 0.85913 0.0
C2200 C 0.55375 0.73682 0.83595 0.0
O2201 O 0.58366 0.76507 0.66109 0.0
O2202 O 0.59188 0.78844 0.66083 0.0
O2203 O 0.57993 0.79735 0.68978 0.0
O2204 O 0.59605 0.8203 0.69662 0.0
O2205 O 0.55632 0.75347 0.70544 0.0
C2206 C 0.57201 0.79314 0.6178 0.0
O2207 O 0.58141 0.80609 0.62555 0.0
O2208 O 0.56662 0.78147 0.63097 0.0
C2209 C 0.53825 0.77383 0.68057 0.0
H2210 H 0.53268 0.77925 0.8212 0.0
H2211 H 0.50973 0.73098 0.82043 0.0
H2212 H 0.51115 0.75471 0.83347 0.0
H2213 H 0.56432 0.78819 0.73448 0.0
H2214 H 0.61166 0.81786 0.72944 0.0
H2215 H 0.59301 0.79072 0.79106 0.0
H2216 H 0.52618 0.71652 0.74762 0.0
H2217 H 0.56849 0.72969 0.77955 0.0
H2218 H 0.5523 0.69722 0.72448 0.0
H2219 H 0.60526 0.76039 0.77743 0.0
H2220 H 0.60646 0.75965 0.73328 0.0
H2221 H 0.58548 0.7576 0.70864 0.0
H2222 H 0.56739 0.77406 0.84395 0.0
H2223 H 0.54695 0.73839 0.89432 0.0
H2224 H 0.5534 0.72904 0.82288 0.0
Cd2225 Cd 0.22309 0.79356 0.67251 0.0
C2226 C 0.2213 0.81969 0.65368 0.0
C2227 C 0.26382 0.79999 0.78933 0.0
O2228 O 0.27776 0.80366 0.79291 0.0
Cd2229 Cd 0.18394 0.79273 0.65511 0.0
C2230 C 0.25141 0.78568 0.79725 0.0
C2231 C 0.22443 0.7616 0.81215 0.0
C2232 C 0.22501 0.77298 0.79816 0.0
N2233 N 0.23826 0.78385 0.7909 0.0
C2234 C 0.25177 0.77479 0.81137 0.0
C2235 C 0.23804 0.76256 0.81863 0.0
Co2236 Co 0.23845 0.7998 0.77642 0.0
C2237 C 0.21273 0.77506 0.78993 0.0
O2238 O 0.19869 0.76489 0.79277 0.0
C2239 C 0.2068 0.79031 0.76396 0.0
C2240 C 0.20255 0.78498 0.74075 0.0
C2241 C 0.19204 0.78738 0.72877 0.0
C2242 C 0.18596 0.79506 0.74013 0.0
C2243 C 0.19069 0.8008 0.76271 0.0
C2244 C 0.20091 0.79822 0.77474 0.0
C2245 C 0.18891 0.78424 0.70349 0.0
C2246 C 0.27041 0.82159 0.76402 0.0
C2247 C 0.27924 0.81934 0.74777 0.0
C2248 C 0.27284 0.83596 0.76767 0.0
C2249 C 0.28386 0.84788 0.75486 0.0
C2250 C 0.29275 0.84559 0.73878 0.0
C2251 C 0.29077 0.83127 0.73555 0.0
N2252 N 0.25996 0.8093 0.77809 0.0
N2253 N 0.21701 0.78767 0.77696 0.0
N2254 N 0.23888 0.79347 0.74385 0.0
C2255 C 0.2403 0.78091 0.73694 0.0
C2256 C 0.25246 0.78291 0.72339 0.0
C2257 C 0.22953 0.76653 0.74368 0.0
C2258 C 0.25438 0.77079 0.71782 0.0
H2259 H 0.26042 0.79394 0.71725 0.0
C2260 C 0.24385 0.75653 0.72589 0.0
C2261 C 0.23137 0.75429 0.73885 0.0
C2262 C 0.26741 0.773 0.70379 0.0
H2263 H 0.21955 0.76483 0.75227 0.0
H2264 H 0.24531 0.74714 0.72188 0.0
C2265 C 0.22021 0.73918 0.74715 0.0
O2266 O 0.269 0.76125 0.69806 0.0
O2267 O 0.27679 0.78546 0.69736 0.0
O2268 O 0.20963 0.73734 0.75915 0.0
O2269 O 0.22165 0.72733 0.74143 0.0
H2270 H 0.27741 0.76244 0.68895 0.0
H2271 H 0.21445 0.71738 0.7465 0.0
N2272 N 0.23826 0.81573 0.76265 0.0
C2273 C 0.23695 0.82509 0.77727 0.0
C2274 C 0.23638 0.83719 0.76755 0.0
C2275 C 0.2368 0.83857 0.74264 0.0
C2276 C 0.23786 0.82805 0.7281 0.0
C2277 C 0.23856 0.81635 0.73911 0.0
N2278 N 0.23816 0.80895 0.80661 0.0
C2279 C 0.23695 0.82129 0.80234 0.0
O2280 O 0.2374 0.83006 0.81946 0.0
C2281 C 0.23935 0.80391 0.72817 0.0
O2282 O 0.21375 0.76998 0.69014 0.0
O2283 O 0.231 0.77538 0.66377 0.0
C2284 C 0.24268 0.80654 0.82952 0.0
C2285 C 0.23196 0.79923 0.84731 0.0
C2286 C 0.23644 0.79814 0.87032 0.0
C2287 C 0.25153 0.80404 0.87529 0.0
C2288 C 0.2624 0.81204 0.85829 0.0
C2289 C 0.25794 0.8136 0.8355 0.0
O2290 O 0.23366 0.82048 0.65801 0.0
O2291 O 0.20992 0.80775 0.65945 0.0
O2292 O 0.19932 0.78698 0.68925 0.0
O2293 O 0.17686 0.78241 0.69478 0.0
O2294 O 0.24192 0.80382 0.70468 0.0
C2295 C 0.20181 0.78151 0.6169 0.0
O2296 O 0.18952 0.7799 0.62467 0.0
O2297 O 0.21359 0.78681 0.62981 0.0
C2298 C 0.22162 0.76601 0.67844 0.0
H2299 H 0.21393 0.75245 0.81816 0.0
H2300 H 0.2622 0.77583 0.81702 0.0
H2301 H 0.23796 0.754 0.82964 0.0
H2302 H 0.20743 0.77913 0.73214 0.0
H2303 H 0.17822 0.79743 0.73091 0.0
H2304 H 0.20427 0.80231 0.79262 0.0
H2305 H 0.27741 0.80822 0.74545 0.0
H2306 H 0.26667 0.8381 0.78092 0.0
H2307 H 0.30158 0.85515 0.72987 0.0
H2308 H 0.2356 0.84524 0.77869 0.0
H2309 H 0.23627 0.84775 0.73462 0.0
H2310 H 0.23804 0.82902 0.70904 0.0
H2311 H 0.2203 0.79496 0.84345 0.0
H2312 H 0.25492 0.80345 0.89323 0.0
H2313 H 0.26627 0.82053 0.82268 0.0
Cd2314 Cd 0.20041 0.42902 0.67041 0.0
C2315 C 0.1746 0.40124 0.65053 0.0
C2316 C 0.19278 0.46287 0.78658 0.0
O2317 O 0.18795 0.47227 0.78982 0.0
Cd2318 Cd 0.20058 0.39027 0.6532 0.0
C2319 C 0.20757 0.46614 0.79454 0.0
C2320 C 0.23305 0.46584 0.80963 0.0
C2321 C 0.22222 0.45443 0.79571 0.0
N2322 N 0.21061 0.45557 0.78839 0.0
C2323 C 0.21785 0.47793 0.80855 0.0
C2324 C 0.2308 0.47775 0.81591 0.0
Co2325 Co 0.1955 0.43901 0.77398 0.0
C2326 C 0.22145 0.44058 0.78771 0.0
O2327 O 0.2323 0.43775 0.79121 0.0
C2328 C 0.20718 0.41835 0.76317 0.0
C2329 C 0.21039 0.41822 0.73909 0.0
C2330 C 0.20804 0.40495 0.72837 0.0
C2331 C 0.20259 0.39204 0.74203 0.0
C2332 C 0.19894 0.39221 0.76568 0.0
C2333 C 0.20158 0.40541 0.77634 0.0
C2334 C 0.20884 0.40364 0.7026 0.0
C2335 C 0.17168 0.44626 0.76141 0.0
C2336 C 0.17301 0.45665 0.74447 0.0
C2337 C 0.15795 0.43327 0.76457 0.0
C2338 C 0.1459 0.43048 0.75016 0.0
C2339 C 0.14737 0.4408 0.73297 0.0
C2340 C 0.16091 0.45419 0.73043 0.0
N2341 N 0.18429 0.44935 0.77571 0.0
N2342 N 0.2092 0.4315 0.77448 0.0
N2343 N 0.20132 0.44609 0.74136 0.0
C2344 C 0.21346 0.46032 0.73441 0.0
C2345 C 0.2109 0.47019 0.7211 0.0
C2346 C 0.22801 0.46448 0.74097 0.0
C2347 C 0.22264 0.48447 0.71551 0.0
H2348 H 0.19974 0.46674 0.71518 0.0
C2349 C 0.23708 0.48875 0.7234 0.0
C2350 C 0.23986 0.47882 0.73625 0.0
C2351 C 0.21985 0.49499 0.70173 0.0
H2352 H 0.23018 0.45644 0.74931 0.0
H2353 H 0.24617 0.49979 0.71948 0.0
C2354 C 0.25511 0.48341 0.74469 0.0
O2355 O 0.23123 0.50862 0.69617 0.0
O2356 O 0.20725 0.49142 0.69534 0.0
O2357 O 0.25729 0.47513 0.7573 0.0
O2358 O 0.26668 0.49675 0.73844 0.0
H2359 H 0.22966 0.51566 0.68722 0.0
H2360 H 0.27671 0.4999 0.7436 0.0
N2361 N 0.18046 0.42215 0.76022 0.0
C2362 C 0.17179 0.41109 0.77483 0.0
C2363 C 0.16019 0.39802 0.76513 0.0
C2364 C 0.15855 0.39713 0.74026 0.0
C2365 C 0.16829 0.4092 0.72572 0.0
C2366 C 0.17951 0.42197 0.73671 0.0
N2367 N 0.18697 0.42911 0.80423 0.0
C2368 C 0.17547 0.41503 0.79991 0.0
O2369 O 0.16714 0.40623 0.81703 0.0
C2370 C 0.19111 0.4358 0.72574 0.0
O2371 O 0.22383 0.44083 0.68849 0.0
O2372 O 0.22072 0.45471 0.66287 0.0
C2373 C 0.18876 0.43585 0.82721 0.0
C2374 C 0.19617 0.4328 0.84539 0.0
C2375 C 0.1965 0.43801 0.86848 0.0
C2376 C 0.18988 0.4466 0.87312 0.0
C2377 C 0.18185 0.44909 0.85571 0.0
C2378 C 0.18093 0.44333 0.83291 0.0
O2379 O 0.17344 0.41261 0.65476 0.0
O2380 O 0.18638 0.40194 0.65758 0.0
O2381 O 0.20605 0.41151 0.68889 0.0
O2382 O 0.21003 0.39311 0.69351 0.0
O2383 O 0.19078 0.43843 0.7023 0.0
C2384 C 0.21186 0.41937 0.61459 0.0
O2385 O 0.21318 0.40843 0.62201 0.0
O2386 O 0.20703 0.4261 0.62788 0.0
C2387 C 0.22915 0.45317 0.67772 0.0
H2388 H 0.24274 0.46548 0.81573 0.0
H2389 H 0.21585 0.48675 0.81406 0.0
H2390 H 0.23891 0.48668 0.82685 0.0
H2391 H 0.21446 0.42829 0.72884 0.0
H2392 H 0.20003 0.38157 0.73387 0.0
H2393 H 0.19885 0.40556 0.7948 0.0
H2394 H 0.18351 0.46688 0.74261 0.0
H2395 H 0.15643 0.42546 0.77838 0.0
H2396 H 0.13776 0.43859 0.72249 0.0
H2397 H 0.15266 0.38885 0.77627 0.0
H2398 H 0.14972 0.38713 0.73226 0.0
H2399 H 0.16709 0.40851 0.70669 0.0
H2400 H 0.20103 0.42591 0.84175 0.0
H2401 H 0.19 0.45044 0.89102 0.0
H2402 H 0.17383 0.4443 0.81991 0.0
Cd2403 Cd 0.43638 0.89918 0.17611 0.0
C2404 C 0.43575 0.92584 0.19488 0.0
C2405 C 0.39461 0.86674 0.0593 0.0
O2406 O 0.38029 0.85809 0.05535 0.0
Cd2407 Cd 0.47301 0.94099 0.19055 0.0
C2408 C 0.40555 0.86264 0.05154 0.0
C2409 C 0.43048 0.86119 0.0369 0.0
C2410 C 0.43175 0.87293 0.05076 0.0
N2411 N 0.41935 0.87261 0.05791 0.0
C2412 C 0.40336 0.85058 0.03757 0.0
C2413 C 0.41604 0.84986 0.03046 0.0
Co2414 Co 0.42181 0.8896 0.07226 0.0
C2415 C 0.44529 0.88638 0.05864 0.0
O2416 O 0.45867 0.88838 0.0551 0.0
C2417 C 0.45473 0.90912 0.08238 0.0
C2418 C 0.45719 0.90984 0.10688 0.0
C2419 C 0.46875 0.92286 0.11717 0.0
C2420 C 0.47816 0.93471 0.10253 0.0
C2421 C 0.47543 0.93422 0.07825 0.0
C2422 C 0.46385 0.92128 0.06819 0.0
C2423 C 0.46975 0.9253 0.14297 0.0
C2424 C 0.391 0.88356 0.0853 0.0
C2425 C 0.38073 0.87262 0.10057 0.0
C2426 C 0.39143 0.89723 0.08369 0.0
C2427 C 0.38206 0.90003 0.09781 0.0
C2428 C 0.3719 0.88908 0.11312 0.0
C2429 C 0.37088 0.87508 0.11405 0.0
N2430 N 0.40023 0.88021 0.07063 0.0
N2431 N 0.44289 0.8961 0.07163 0.0
N2432 N 0.42014 0.8824 0.10484 0.0
C2433 C 0.41713 0.86784 0.11172 0.0
C2434 C 0.40416 0.85827 0.12419 0.0
C2435 C 0.42712 0.86305 0.10578 0.0
C2436 C 0.40076 0.84369 0.12967 0.0
H2437 H 0.39672 0.86219 0.12949 0.0
C2438 C 0.41061 0.83884 0.1226 0.0
C2439 C 0.42382 0.84844 0.11055 0.0
C2440 C 0.38685 0.83345 0.14244 0.0
H2441 H 0.43762 0.87079 0.09784 0.0
H2442 H 0.40801 0.82757 0.12648 0.0
C2443 C 0.43413 0.84322 0.10294 0.0
O2444 O 0.38377 0.81954 0.14794 0.0
O2445 O 0.37806 0.83752 0.14802 0.0
O2446 O 0.44497 0.85118 0.09076 0.0
O2447 O 0.43163 0.82965 0.10951 0.0
H2448 H 0.37476 0.81267 0.15623 0.0
H2449 H 0.43829 0.8261 0.10491 0.0
N2450 N 0.42468 0.90686 0.08595 0.0
C2451 C 0.42832 0.91827 0.07135 0.0
C2452 C 0.43152 0.93194 0.08107 0.0
C2453 C 0.43093 0.93295 0.10596 0.0
C2454 C 0.42718 0.92047 0.12048 0.0
C2455 C 0.42406 0.90715 0.10947 0.0
N2456 N 0.42376 0.89967 0.042 0.0
C2457 C 0.4277 0.91417 0.04627 0.0
O2458 O 0.42902 0.92331 0.02914 0.0
C2459 C 0.42078 0.89296 0.12043 0.0
O2460 O 0.44679 0.88603 0.15836 0.0
O2461 O 0.43034 0.87342 0.18538 0.0
C2462 C 0.41819 0.89302 0.01912 0.0
C2463 C 0.42821 0.89514 1.0007 0.0
C2464 C 0.42287 0.89001 0.97774 0.0
C2465 C 0.40757 0.88259 0.97342 0.0
C2466 C 0.39754 0.88104 0.9911 0.0
C2467 C 0.40289 0.88659 0.01383 0.0
O2468 O 0.42394 0.91333 0.19309 0.0
O2469 O 0.44717 0.92661 0.18591 0.0
O2470 O 0.45894 0.91711 0.1563 0.0
O2471 O 0.48059 0.93683 0.15199 0.0
O2472 O 0.41761 0.89039 0.14381 0.0
C2473 C 0.45895 0.91241 0.23085 0.0
O2474 O 0.46994 0.92457 0.22331 0.0
O2475 O 0.44765 0.90417 0.21773 0.0
C2476 C 0.43975 0.8741 0.17013 0.0
H2477 H 0.44022 0.86088 0.03094 0.0
H2478 H 0.39234 0.84222 0.03193 0.0
H2479 H 0.41469 0.8407 0.01956 0.0
H2480 H 0.45001 0.90043 0.11784 0.0
H2481 H 0.48701 0.94486 0.11022 0.0
H2482 H 0.46138 0.92084 0.04949 0.0
H2483 H 0.38013 0.86192 0.10146 0.0
H2484 H 0.39865 0.90557 0.07117 0.0
H2485 H 0.36443 0.89134 0.12331 0.0
H2486 H 0.43438 0.94148 0.06995 0.0
H2487 H 0.43344 0.94341 0.11398 0.0
H2488 H 0.42695 0.92129 0.13952 0.0
H2489 H 0.44006 0.90116 1.0041 0.0
H2490 H 0.40346 0.87883 0.95564 0.0
H2491 H 0.39525 0.88635 0.02703 0.0
Cd2492 Cd 0.09098 0.53364 0.17503 0.0
C2493 C 0.061 0.50887 0.19264 0.0
C2494 C 0.12651 0.52905 0.05817 0.0
O2495 O 0.13727 0.52605 0.05495 0.0
Cd2496 Cd 0.0551 0.53909 0.19223 0.0
C2497 C 0.12778 0.54315 0.05041 0.0
C2498 C 0.12388 0.56676 0.03623 0.0
C2499 C 0.11309 0.55483 0.04939 0.0
N2500 N 0.11594 0.54421 0.05628 0.0
C2501 C 0.13903 0.55461 0.03709 0.0
C2502 C 0.13701 0.56659 0.03018 0.0
Co2503 Co 0.1005 0.52781 0.07034 0.0
C2504 C 0.09845 0.55206 0.05747 0.0
O2505 O 0.09425 0.56204 0.05546 0.0
C2506 C 0.0779 0.53629 0.08433 0.0
C2507 C 0.07985 0.54298 0.10668 0.0
C2508 C 0.06737 0.53999 0.12035 0.0
C2509 C 0.05314 0.53002 0.11197 0.0
C2510 C 0.0512 0.52323 0.08999 0.0
C2511 C 0.06364 0.5266 0.07605 0.0
C2512 C 0.06856 0.54561 0.14444 0.0
C2513 C 0.11155 0.50669 0.08224 0.0
C2514 C 0.12221 0.50874 0.09924 0.0
C2515 C 0.09956 0.49238 0.07814 0.0
C2516 C 0.09779 0.48044 0.09189 0.0
C2517 C 0.10819 0.48262 0.10936 0.0
C2518 C 0.12072 0.49677 0.11272 0.0
N2519 N 0.11331 0.51917 0.06879 0.0
N2520 N 0.09033 0.53915 0.06987 0.0
N2521 N 0.10692 0.53413 0.10309 0.0
C2522 C 0.12065 0.5469 0.11032 0.0
C2523 C 0.131 0.54518 0.12384 0.0
C2524 C 0.12377 0.56122 0.10411 0.0
C2525 C 0.14469 0.55757 0.13016 0.0
H2526 H 0.12833 0.53416 0.12941 0.0
C2527 C 0.14791 0.57181 0.1228 0.0
C2528 C 0.13749 0.57374 0.10974 0.0
C2529 C 0.15568 0.55569 0.14432 0.0
H2530 H 0.11539 0.56266 0.0953 0.0
H2531 H 0.15848 0.58142 0.12743 0.0
C2532 C 0.14089 0.58883 0.10223 0.0
O2533 O 0.16864 0.5677 0.15086 0.0
O2534 O 0.15308 0.54328 0.15015 0.0
O2535 O 0.13194 0.59045 0.09041 0.0
O2536 O 0.15388 0.6009 0.1085 0.0
H2537 H 0.17596 0.56673 0.1601 0.0
H2538 H 0.15625 0.61084 0.10399 0.0
N2539 N 0.0847 0.51144 0.08378 0.0
C2540 C 0.07431 0.50192 0.06893 0.0
C2541 C 0.0619 0.48943 0.07837 0.0
C2542 C 0.0608 0.48789 0.10326 0.0
C2543 C 0.072 0.49864 0.11806 0.0
C2544 C 0.08419 0.51072 0.10733 0.0
N2545 N 0.09148 0.51865 0.03986 0.0
C2546 C 0.07816 0.50598 0.04392 0.0
O2547 O 0.0702 0.49706 0.02666 0.0
C2548 C 0.09703 0.52345 0.11859 0.0
O2549 O 0.10599 0.55759 0.15899 0.0
O2550 O 0.11696 0.55128 0.18569 0.0
C2551 C 0.09878 0.52104 0.01722 0.0
C2552 C 0.09562 0.52826 0.99884 0.0
C2553 C 0.10143 0.52914 0.976 0.0
C2554 C 0.11049 0.52297 0.97181 0.0
C2555 C 0.11307 0.51509 0.98935 0.0
C2556 C 0.10698 0.51389 0.01197 0.0
O2557 O 0.07182 0.50675 0.18853 0.0
O2558 O 0.06343 0.52174 0.18821 0.0
O2559 O 0.07552 0.54278 0.1599 0.0
O2560 O 0.05915 0.54903 0.15188 0.0
O2561 O 0.09954 0.52359 0.14218 0.0
C2562 C 0.0831 0.54587 0.23141 0.0
O2563 O 0.07326 0.54894 0.22411 0.0
O2564 O 0.08878 0.54003 0.21791 0.0
C2565 C 0.11744 0.56114 0.17157 0.0
H2566 H 0.12219 0.57577 0.03059 0.0
H2567 H 0.14886 0.55424 0.03187 0.0
H2568 H 0.1455 0.5756 0.01983 0.0
H2569 H 0.09092 0.55039 0.11334 0.0
H2570 H 0.04351 0.52724 0.1229 0.0
H2571 H 0.06232 0.52195 0.05849 0.0
H2572 H 0.13182 0.51967 0.10172 0.0
H2573 H 0.09177 0.49032 0.06404 0.0
H2574 H 0.1068 0.47314 0.11941 0.0
H2575 H 0.05334 0.4812 0.06704 0.0
H2576 H 0.05126 0.4784 0.11105 0.0
H2577 H 0.07109 0.49756 0.13709 0.0
H2578 H 0.08833 0.53271 1.00217 0.0
H2579 H 0.1147 0.52334 0.95409 0.0
H2580 H 0.10826 0.50708 0.02518 0.0
Cd2581 Cd 0.45795 0.55349 0.17578 0.0
C2582 C 0.48393 0.54681 0.19158 0.0
C2583 C 0.46426 0.59538 0.05929 0.0
O2584 O 0.46737 0.60911 0.05527 0.0
Cd2585 Cd 0.44871 0.51165 0.19347 0.0
C2586 C 0.4502 0.58251 0.05153 0.0
C2587 C 0.42676 0.55492 0.03722 0.0
C2588 C 0.43849 0.55614 0.05101 0.0
N2589 N 0.449 0.56964 0.05802 0.0
C2590 C 0.43893 0.58223 0.03757 0.0
C2591 C 0.42702 0.5682 0.03062 0.0
Co2592 Co 0.46534 0.5707 0.07254 0.0
C2593 C 0.44125 0.54431 0.0594 0.0
O2594 O 0.43136 0.53012 0.05729 0.0
C2595 C 0.45697 0.53967 0.08659 0.0
C2596 C 0.44995 0.53465 0.10864 0.0
C2597 C 0.45299 0.52524 0.12242 0.0
C2598 C 0.46329 0.52133 0.11452 0.0
C2599 C 0.47033 0.52638 0.09276 0.0
C2600 C 0.46695 0.53538 0.07869 0.0
C2601 C 0.44653 0.51997 0.14581 0.0
C2602 C 0.48611 0.6031 0.08469 0.0
C2603 C 0.48372 0.61227 0.10006 0.0
C2604 C 0.5006 0.60575 0.0814 0.0
C2605 C 0.51242 0.61713 0.09387 0.0
C2606 C 0.50997 0.62629 0.10908 0.0
C2607 C 0.49561 0.62427 0.11161 0.0
N2608 N 0.47392 0.59215 0.07091 0.0
N2609 N 0.45409 0.54918 0.07202 0.0
N2610 N 0.45874 0.5707 0.1051 0.0
C2611 C 0.44599 0.5718 0.11191 0.0
C2612 C 0.44774 0.58394 0.12524 0.0
C2613 C 0.4317 0.56077 0.10522 0.0
C2614 C 0.43539 0.58545 0.13096 0.0
H2615 H 0.45875 0.5922 0.13105 0.0
C2616 C 0.42121 0.57464 0.12302 0.0
C2617 C 0.41926 0.56225 0.11007 0.0
C2618 C 0.43726 0.59833 0.14507 0.0
H2619 H 0.43022 0.55088 0.09659 0.0
H2620 H 0.41165 0.5758 0.12712 0.0
C2621 C 0.40423 0.55082 0.10185 0.0
O2622 O 0.42527 0.5994 0.15125 0.0
O2623 O 0.44965 0.60804 0.15123 0.0
O2624 O 0.40261 0.54022 0.09013 0.0
O2625 O 0.39222 0.55202 0.10737 0.0
H2626 H 0.42623 0.60768 0.16047 0.0
H2627 H 0.38231 0.54461 0.10241 0.0
N2628 N 0.48165 0.57137 0.08638 0.0
C2629 C 0.49131 0.57059 0.07178 0.0
C2630 C 0.50376 0.57072 0.08152 0.0
C2631 C 0.50506 0.57101 0.10643 0.0
C2632 C 0.49412 0.57129 0.12096 0.0
C2633 C 0.48213 0.57142 0.10994 0.0
N2634 N 0.47472 0.57092 0.04232 0.0
C2635 C 0.48742 0.57039 0.04669 0.0
O2636 O 0.4965 0.57145 0.02962 0.0
C2637 C 0.46923 0.57134 0.12088 0.0
O2638 O 0.43456 0.54414 0.15785 0.0
O2639 O 0.44001 0.56158 0.18407 0.0
C2640 C 0.47267 0.57624 0.01982 0.0
C2641 C 0.46434 0.56606 1.00176 0.0
C2642 C 0.46406 0.57125 0.97884 0.0
C2643 C 0.47208 0.5865 0.97418 0.0
C2644 C 0.481 0.59665 0.99143 0.0
C2645 C 0.48125 0.59154 0.01432 0.0
O2646 O 0.48383 0.55869 0.18618 0.0
O2647 O 0.47174 0.5347 0.1922 0.0
O2648 O 0.44879 0.52903 0.16227 0.0
O2649 O 0.442 0.50665 0.15177 0.0
O2650 O 0.46865 0.57316 0.14454 0.0
C2651 C 0.4442 0.53472 0.23104 0.0
O2652 O 0.43848 0.5217 0.22203 0.0
O2653 O 0.45224 0.54656 0.21891 0.0
C2654 C 0.43066 0.55214 0.16942 0.0
H2655 H 0.41785 0.5442 0.03146 0.0
H2656 H 0.43942 0.59241 0.03186 0.0
H2657 H 0.41817 0.56763 0.01977 0.0
H2658 H 0.44217 0.53795 0.11484 0.0
H2659 H 0.46598 0.51444 0.12552 0.0
H2660 H 0.47178 0.53884 0.06126 0.0
H2661 H 0.47257 0.61046 0.10209 0.0
H2662 H 0.50295 0.59954 0.06856 0.0
H2663 H 0.51944 0.63544 0.11767 0.0
H2664 H 0.51212 0.5705 0.07038 0.0
H2665 H 0.51449 0.57095 0.11445 0.0
H2666 H 0.49501 0.57134 0.14002 0.0
H2667 H 0.45865 0.55423 1.00532 0.0
H2668 H 0.47228 0.59043 0.95632 0.0
H2669 H 0.48866 0.5993 0.02744 0.0
Cd2670 Cd 0.09471 0.55783 0.67395 0.0
C2671 C 0.06457 0.55807 0.6871 0.0
C2672 C 0.12896 0.60066 0.55757 0.0
O2673 O 0.13737 0.61496 0.5532 0.0
Cd2674 Cd 0.05262 0.52452 0.68395 0.0
C2675 C 0.13357 0.58992 0.55092 0.0
C2676 C 0.13588 0.56521 0.53797 0.0
C2677 C 0.12404 0.56384 0.55165 0.0
N2678 N 0.12399 0.57618 0.55813 0.0
C2679 C 0.14572 0.59221 0.53713 0.0
C2680 C 0.1469 0.57965 0.53092 0.0
Co2681 Co 0.10666 0.57348 0.57156 0.0
C2682 C 0.11063 0.55024 0.55942 0.0
O2683 O 0.1088 0.53689 0.55612 0.0
C2684 C 0.08722 0.54069 0.58135 0.0
C2685 C 0.08573 0.53784 0.60579 0.0
C2686 C 0.07218 0.5265 0.61504 0.0
C2687 C 0.06049 0.51798 0.59951 0.0
C2688 C 0.06177 0.52136 0.57543 0.0
C2689 C 0.07529 0.53239 0.56626 0.0
C2690 C 0.06891 0.52506 0.64061 0.0
C2691 C 0.11263 0.60425 0.58447 0.0
C2692 C 0.12392 0.61428 0.59946 0.0
C2693 C 0.09925 0.60441 0.58326 0.0
C2694 C 0.09731 0.61451 0.59701 0.0
C2695 C 0.10882 0.62476 0.61152 0.0
C2696 C 0.12248 0.62502 0.61227 0.0
N2697 N 0.11559 0.59497 0.56922 0.0
N2698 N 0.10062 0.55254 0.57169 0.0
N2699 N 0.1134 0.57551 0.60454 0.0
C2700 C 0.12763 0.57807 0.61248 0.0
C2701 C 0.13718 0.59096 0.62515 0.0
C2702 C 0.13203 0.5676 0.60781 0.0
C2703 C 0.15146 0.59393 0.63177 0.0
H2704 H 0.13348 0.59868 0.62977 0.0
C2705 C 0.15595 0.58359 0.62597 0.0
C2706 C 0.14629 0.57038 0.61396 0.0
C2707 C 0.16178 0.60788 0.6444 0.0
H2708 H 0.12421 0.55711 0.59993 0.0
H2709 H 0.16698 0.58583 0.63077 0.0
C2710 C 0.15112 0.55956 0.60774 0.0
O2711 O 0.17542 0.61056 0.65091 0.0
O2712 O 0.15804 0.61706 0.64891 0.0
O2713 O 0.1435 0.54906 0.59471 0.0
O2714 O 0.16397 0.56121 0.61649 0.0
H2715 H 0.18234 0.6196 0.65908 0.0
H2716 H 0.16724 0.55419 0.61285 0.0
N2717 N 0.08911 0.57045 0.5843 0.0
C2718 C 0.07797 0.56688 0.56916 0.0
C2719 C 0.06422 0.56396 0.57813 0.0
C2720 C 0.0629 0.56496 0.60286 0.0
C2721 C 0.07516 0.56879 0.61795 0.0
C2722 C 0.08851 0.57142 0.60773 0.0
N2723 N 0.09694 0.57106 0.5408 0.0
C2724 C 0.08241 0.56725 0.54437 0.0
O2725 O 0.07349 0.5657 0.52674 0.0
C2726 C 0.1025 0.57477 0.61947 0.0
O2727 O 0.10456 0.54322 0.66039 0.0
O2728 O 0.12021 0.56259 0.68084 0.0
C2729 C 0.10376 0.57624 0.51794 0.0
C2730 C 0.102 0.56583 0.50038 0.0
C2731 C 0.1065 0.57054 0.477 0.0
C2732 C 0.11285 0.58559 0.47136 0.0
C2733 C 0.11383 0.59594 0.48805 0.0
C2734 C 0.10926 0.59125 0.51139 0.0
O2735 O 0.07792 0.56547 0.69445 0.0
O2736 O 0.0621 0.5494 0.66989 0.0
O2737 O 0.07664 0.53552 0.65482 0.0
O2738 O 0.057 0.51421 0.64856 0.0
O2739 O 0.10446 0.57754 0.64303 0.0
C2740 C 0.08058 0.53944 0.72882 0.0
O2741 O 0.06802 0.53007 0.71984 0.0
O2742 O 0.09077 0.54992 0.71645 0.0
C2743 C 0.11757 0.55114 0.6687 0.0
H2744 H 0.13646 0.55553 0.5325 0.0
H2745 H 0.15379 0.60319 0.53091 0.0
H2746 H 0.15612 0.58106 0.52013 0.0
H2747 H 0.09491 0.54465 0.61744 0.0
H2748 H 0.04982 0.50952 0.60637 0.0
H2749 H 0.07631 0.53526 0.54766 0.0
H2750 H 0.13424 0.61411 0.60019 0.0
H2751 H 0.09053 0.59714 0.57127 0.0
H2752 H 0.10722 0.63285 0.62115 0.0
H2753 H 0.05488 0.56111 0.56654 0.0
H2754 H 0.05241 0.5628 0.61031 0.0
H2755 H 0.07421 0.56963 0.63683 0.0
H2756 H 0.09652 0.5541 0.5047 0.0
H2757 H 0.11601 0.58911 0.45317 0.0
H2758 H 0.10907 0.599 0.52397 0.0
Cd2759 Cd 0.43566 0.53668 0.67742 0.0
C2760 C 0.43358 0.50803 0.694 0.0
C2761 C 0.39406 0.5279 0.56175 0.0
O2762 O 0.37971 0.52245 0.55852 0.0
Cd2763 Cd 0.46927 0.5272 0.68913 0.0
C2764 C 0.40506 0.54293 0.55391 0.0
C2765 C 0.43003 0.56929 0.53923 0.0
C2766 C 0.4313 0.55858 0.55237 0.0
N2767 N 0.41889 0.54648 0.55949 0.0
C2768 C 0.40286 0.55306 0.54069 0.0
C2769 C 0.41557 0.56645 0.53353 0.0
Co2770 Co 0.42126 0.53182 0.57349 0.0
C2771 C 0.44482 0.55848 0.55987 0.0
O2772 O 0.45824 0.56984 0.55634 0.0
C2773 C 0.45411 0.5449 0.58333 0.0
C2774 C 0.4568 0.54689 0.60778 0.0
C2775 C 0.46792 0.54471 0.6181 0.0
C2776 C 0.47663 0.54124 0.60351 0.0
C2777 C 0.47355 0.53868 0.57935 0.0
C2778 C 0.46252 0.54089 0.56924 0.0
C2779 C 0.46871 0.54308 0.64392 0.0
C2780 C 0.39055 0.50685 0.58618 0.0
C2781 C 0.38062 0.50725 0.60247 0.0
C2782 C 0.39076 0.49359 0.58297 0.0
C2783 C 0.38146 0.48106 0.59651 0.0
C2784 C 0.37162 0.48157 0.61285 0.0
C2785 C 0.37084 0.49462 0.61543 0.0
N2786 N 0.3997 0.5198 0.57217 0.0
N2787 N 0.44237 0.54629 0.57267 0.0
N2788 N 0.41982 0.53731 0.60619 0.0
C2789 C 0.41698 0.54895 0.61327 0.0
C2790 C 0.40408 0.54566 0.62583 0.0
C2791 C 0.42701 0.56372 0.60723 0.0
C2792 C 0.40074 0.5569 0.63119 0.0
H2793 H 0.39661 0.53433 0.63127 0.0
C2794 C 0.4106 0.57156 0.62389 0.0
C2795 C 0.42376 0.57507 0.6118 0.0
C2796 C 0.38688 0.55333 0.64403 0.0
H2797 H 0.43749 0.56641 0.59928 0.0
H2798 H 0.40803 0.58026 0.62764 0.0
C2799 C 0.43406 0.59055 0.60392 0.0
O2800 O 0.38387 0.56423 0.64938 0.0
O2801 O 0.37809 0.54052 0.64982 0.0
O2802 O 0.44495 0.59336 0.59192 0.0
O2803 O 0.43151 0.60165 0.61002 0.0
H2804 H 0.3749 0.56216 0.6577 0.0
H2805 H 0.43815 0.61182 0.60524 0.0
N2806 N 0.42403 0.51728 0.58687 0.0
C2807 C 0.4274 0.50941 0.57206 0.0
C2808 C 0.43041 0.49875 0.58154 0.0
C2809 C 0.42986 0.49703 0.60641 0.0
C2810 C 0.42632 0.50584 0.62113 0.0
C2811 C 0.42345 0.51628 0.61038 0.0
N2812 N 0.42295 0.5237 0.54306 0.0
C2813 C 0.4267 0.51298 0.54706 0.0
O2814 O 0.4279 0.50519 0.52975 0.0
C2815 C 0.42036 0.52725 0.62159 0.0
O2816 O 0.44683 0.56083 0.66178 0.0
O2817 O 0.42927 0.55611 0.68713 0.0
C2818 C 0.41798 0.52546 0.52008 0.0
C2819 C 0.42843 0.53268 0.50187 0.0
C2820 C 0.4236 0.53318 0.47885 0.0
C2821 C 0.40842 0.52693 0.4743 0.0
C2822 C 0.39783 0.51897 0.49167 0.0
C2823 C 0.40266 0.51783 0.51441 0.0
O2824 O 0.42353 0.51135 0.69758 0.0
O2825 O 0.44368 0.5162 0.67971 0.0
O2826 O 0.45788 0.54071 0.65706 0.0
O2827 O 0.47896 0.54134 0.65288 0.0
O2828 O 0.41709 0.52648 0.64494 0.0
C2829 C 0.45715 0.54263 0.73197 0.0
O2830 O 0.46687 0.5395 0.72443 0.0
O2831 O 0.44669 0.5416 0.71861 0.0
C2832 C 0.43919 0.56526 0.67292 0.0
H2833 H 0.43977 0.57938 0.53336 0.0
H2834 H 0.39181 0.55065 0.5357 0.0
H2835 H 0.41422 0.57448 0.52324 0.0
H2836 H 0.45 0.54967 0.61871 0.0
H2837 H 0.48503 0.53923 0.6112 0.0
H2838 H 0.45977 0.5386 0.55065 0.0
H2839 H 0.38022 0.5174 0.60452 0.0
H2840 H 0.39772 0.49273 0.56966 0.0
H2841 H 0.36419 0.47159 0.62256 0.0
H2842 H 0.43307 0.49199 0.57026 0.0
H2843 H 0.43219 0.48891 0.61425 0.0
H2844 H 0.42601 0.50463 0.64014 0.0
H2845 H 0.44018 0.5373 0.50544 0.0
H2846 H 0.40476 0.52714 0.45639 0.0
H2847 H 0.39455 0.51069 0.5273 0.0
Cd2848 Cd 0.4586 0.90139 0.67512 0.0
C2849 C 0.48802 0.93438 0.68575 0.0
C2850 C 0.46386 0.8662 0.5596 0.0
O2851 O 0.46679 0.85541 0.55602 0.0
Cd2852 Cd 0.46162 0.94067 0.68841 0.0
C2853 C 0.44979 0.86505 0.55202 0.0
C2854 C 0.42629 0.86922 0.53817 0.0
C2855 C 0.43824 0.87987 0.55146 0.0
N2856 N 0.44881 0.8769 0.55818 0.0
C2857 C 0.4383 0.85394 0.53857 0.0
C2858 C 0.42637 0.85608 0.53182 0.0
Co2859 Co 0.46529 0.89223 0.57228 0.0
C2860 C 0.44112 0.89452 0.55976 0.0
O2861 O 0.43125 0.89886 0.55783 0.0
C2862 C 0.45713 0.91505 0.58652 0.0
C2863 C 0.45055 0.91333 0.60894 0.0
C2864 C 0.45363 0.92598 0.62229 0.0
C2865 C 0.46356 0.94011 0.61346 0.0
C2866 C 0.47028 0.94176 0.59153 0.0
C2867 C 0.46686 0.9292 0.57794 0.0
C2868 C 0.44818 0.92515 0.64647 0.0
C2869 C 0.48626 0.88088 0.58373 0.0
C2870 C 0.48417 0.86996 0.60027 0.0
C2871 C 0.50061 0.89283 0.57979 0.0
C2872 C 0.51255 0.89429 0.59323 0.0
C2873 C 0.51033 0.8836 0.6102 0.0
C2874 C 0.49614 0.87111 0.61332 0.0
N2875 N 0.47381 0.87931 0.5704 0.0
N2876 N 0.45405 0.9025 0.57218 0.0
N2877 N 0.45902 0.8857 0.60492 0.0
C2878 C 0.44612 0.87206 0.6121 0.0
C2879 C 0.44766 0.86148 0.62523 0.0
C2880 C 0.43187 0.86926 0.60615 0.0
C2881 C 0.43514 0.84786 0.63145 0.0
H2882 H 0.45865 0.8639 0.63057 0.0
C2883 C 0.42096 0.84494 0.62428 0.0
C2884 C 0.41922 0.8556 0.61161 0.0
C2885 C 0.43681 0.83664 0.64529 0.0
H2886 H 0.43058 0.87782 0.59765 0.0
H2887 H 0.41125 0.83442 0.6288 0.0
C2888 C 0.4042 0.8525 0.60425 0.0
O2889 O 0.42468 0.82378 0.65184 0.0
O2890 O 0.44917 0.83895 0.65088 0.0
O2891 O 0.40274 0.8617 0.59285 0.0
O2892 O 0.39202 0.83951 0.61019 0.0
H2893 H 0.42551 0.81632 0.66088 0.0
H2894 H 0.38213 0.83734 0.6058 0.0
N2895 N 0.48175 0.90792 0.58576 0.0
C2896 C 0.49132 0.91831 0.57097 0.0
C2897 C 0.50394 0.93056 0.58047 0.0
C2898 C 0.50553 0.93156 0.60535 0.0
C2899 C 0.49471 0.92037 0.62009 0.0
C2900 C 0.48253 0.90831 0.60928 0.0
N2901 N 0.47441 0.90133 0.54188 0.0
C2902 C 0.48719 0.91456 0.54596 0.0
O2903 O 0.49613 0.92249 0.5287 0.0
C2904 C 0.46976 0.89547 0.62043 0.0
O2905 O 0.43407 0.88927 0.66048 0.0
O2906 O 0.43957 0.87544 0.68247 0.0
C2907 C 0.47193 0.89399 0.51929 0.0
C2908 C 0.46442 0.89691 0.50113 0.0
C2909 C 0.46329 0.89088 0.47841 0.0
C2910 C 0.46942 0.88179 0.47416 0.0
C2911 C 0.47763 0.87949 0.49148 0.0
C2912 C 0.47913 0.88586 0.51394 0.0
O2913 O 0.483 0.92099 0.69251 0.0
O2914 O 0.48061 0.93681 0.67046 0.0
O2915 O 0.45074 0.91803 0.66206 0.0
O2916 O 0.44574 0.93526 0.65382 0.0
O2917 O 0.46952 0.89296 0.64398 0.0
C2918 C 0.45328 0.9118 0.73125 0.0
O2919 O 0.45479 0.92387 0.72271 0.0
O2920 O 0.45478 0.9025 0.71836 0.0
C2921 C 0.42998 0.87674 0.67009 0.0
H2922 H 0.41733 0.87102 0.53265 0.0
H2923 H 0.43861 0.84411 0.53309 0.0
H2924 H 0.41735 0.8477 0.52136 0.0
H2925 H 0.44313 0.90233 0.61582 0.0
H2926 H 0.4664 0.94992 0.62398 0.0
H2927 H 0.47149 0.93038 0.56039 0.0
H2928 H 0.4732 0.86038 0.60265 0.0
H2929 H 0.50272 0.9008 0.56597 0.0
H2930 H 0.51981 0.88475 0.61997 0.0
H2931 H 0.51223 0.93909 0.56918 0.0
H2932 H 0.5151 0.94099 0.6132 0.0
H2933 H 0.49583 0.92117 0.63913 0.0
H2934 H 0.46 0.90423 0.50447 0.0
H2935 H 0.46885 0.87747 0.45648 0.0
H2936 H 0.48615 0.88478 0.527 0.0
Cd2937 Cd 0.22075 0.42859 0.17195 0.0
C2938 C 0.21005 0.39223 0.15145 0.0
C2939 C 0.26542 0.46271 0.28713 0.0
O2940 O 0.27963 0.47221 0.29043 0.0
Cd2941 Cd 0.18188 0.40095 0.15514 0.0
C2942 C 0.25382 0.46569 0.29562 0.0
C2943 C 0.228 0.46467 0.31223 0.0
C2944 C 0.22748 0.4536 0.29752 0.0
N2945 N 0.24023 0.45512 0.28935 0.0
C2946 C 0.25528 0.47715 0.31041 0.0
C2947 C 0.24214 0.47664 0.3185 0.0
Co2948 Co 0.23894 0.43866 0.27474 0.0
C2949 C 0.21447 0.43958 0.28994 0.0
O2950 O 0.20075 0.43654 0.2938 0.0
C2951 C 0.20663 0.4179 0.26423 0.0
C2952 C 0.2024 0.41911 0.24116 0.0
C2953 C 0.19107 0.40649 0.22975 0.0
C2954 C 0.18412 0.39283 0.24144 0.0
C2955 C 0.18882 0.39163 0.26399 0.0
C2956 C 0.19988 0.40421 0.27552 0.0
C2957 C 0.18763 0.4068 0.20479 0.0
C2958 C 0.27018 0.44725 0.25989 0.0
C2959 C 0.27917 0.45854 0.24405 0.0
C2960 C 0.27187 0.43475 0.26198 0.0
C2961 C 0.28245 0.43364 0.24823 0.0
C2962 C 0.29165 0.44514 0.23282 0.0
C2963 C 0.29038 0.45799 0.23114 0.0
N2964 N 0.26053 0.44949 0.27535 0.0
N2965 N 0.21769 0.4306 0.27656 0.0
N2966 N 0.2392 0.44538 0.24211 0.0
C2967 C 0.24095 0.45948 0.23513 0.0
C2968 C 0.253 0.46926 0.22105 0.0
C2969 C 0.23058 0.46354 0.24225 0.0
C2970 C 0.25521 0.48339 0.21522 0.0
H2971 H 0.26067 0.46586 0.21474 0.0
C2972 C 0.24504 0.48755 0.22346 0.0
C2973 C 0.23268 0.47768 0.23704 0.0
C2974 C 0.26823 0.49388 0.20082 0.0
H2975 H 0.22069 0.45558 0.25142 0.0
H2976 H 0.24673 0.49846 0.21927 0.0
C2977 C 0.22201 0.48216 0.2458 0.0
O2978 O 0.27016 0.50736 0.19502 0.0
O2979 O 0.27729 0.49042 0.19418 0.0
O2980 O 0.21177 0.47391 0.25881 0.0
O2981 O 0.22351 0.49538 0.2394 0.0
H2982 H 0.27858 0.51438 0.1857 0.0
H2983 H 0.21661 0.49845 0.24476 0.0
N2984 N 0.2373 0.42191 0.26086 0.0
C2985 C 0.23554 0.41107 0.2755 0.0
C2986 C 0.23384 0.39792 0.26575 0.0
C2987 C 0.23372 0.39672 0.24083 0.0
C2988 C 0.23537 0.40854 0.22629 0.0
C2989 C 0.23717 0.4214 0.2373 0.0
N2990 N 0.23853 0.42912 0.3049 0.0
C2991 C 0.23632 0.41518 0.30058 0.0
O2992 O 0.23643 0.40663 0.31763 0.0
C2993 C 0.2387 0.43496 0.22632 0.0
O2994 O 0.20732 0.43953 0.18709 0.0
O2995 O 0.22647 0.45435 0.16549 0.0
C2996 C 0.24382 0.43612 0.32762 0.0
C2997 C 0.23361 0.43414 0.34565 0.0
C2998 C 0.23874 0.43963 0.36854 0.0
C2999 C 0.254 0.44717 0.3732 0.0
C3000 C 0.26421 0.44863 0.35592 0.0
C3001 C 0.25911 0.44291 0.33318 0.0
O3002 O 0.22051 0.40523 0.15733 0.0
O3003 O 0.19654 0.38905 0.1506 0.0
O3004 O 0.19783 0.41373 0.18998 0.0
O3005 O 0.17463 0.39892 0.19677 0.0
O3006 O 0.24075 0.43728 0.20262 0.0
C3007 C 0.20582 0.42685 0.11677 0.0
O3008 O 0.19316 0.42153 0.12682 0.0
O3009 O 0.21732 0.42897 0.12834 0.0
C3010 C 0.21548 0.45237 0.17826 0.0
H3011 H 0.21794 0.46397 0.31906 0.0
H3012 H 0.2661 0.48594 0.31602 0.0
H3013 H 0.24292 0.48528 0.33009 0.0
H3014 H 0.20786 0.42975 0.23223 0.0
H3015 H 0.17574 0.38294 0.23245 0.0
H3016 H 0.2033 0.40339 0.29331 0.0
H3017 H 0.27783 0.4682 0.2428 0.0
H3018 H 0.26552 0.42617 0.27477 0.0
H3019 H 0.30018 0.44423 0.22326 0.0
H3020 H 0.23262 0.38891 0.2769 0.0
H3021 H 0.23232 0.38664 0.23281 0.0
H3022 H 0.23514 0.40758 0.20722 0.0
H3023 H 0.22178 0.42797 0.34202 0.0
H3024 H 0.25793 0.45116 0.39098 0.0
H3025 H 0.26693 0.44336 0.32009 0.0
Cd3026 Cd 0.56426 0.79245 0.17286 0.0
C3027 C 0.59417 0.81969 0.16084 0.0
C3028 C 0.53155 0.80073 0.28945 0.0
O3029 O 0.52189 0.80519 0.29311 0.0
Cd3030 Cd 0.60434 0.79525 0.16121 0.0
C3031 C 0.52876 0.78606 0.29724 0.0
C3032 C 0.52989 0.76092 0.31174 0.0
C3033 C 0.5411 0.772 0.29787 0.0
N3034 N 0.53956 0.78344 0.29084 0.0
C3035 C 0.51716 0.77552 0.31124 0.0
C3036 C 0.51776 0.76275 0.31831 0.0
Co3037 Co 0.55585 0.79887 0.27644 0.0
C3038 C 0.55507 0.77319 0.28958 0.0
O3039 O 0.55807 0.76238 0.2922 0.0
C3040 C 0.57644 0.78747 0.26344 0.0
C3041 C 0.57482 0.78168 0.24041 0.0
C3042 C 0.58735 0.78322 0.22824 0.0
C3043 C 0.60128 0.79054 0.23927 0.0
C3044 C 0.60284 0.79682 0.26153 0.0
C3045 C 0.59042 0.79505 0.27378 0.0
C3046 C 0.587 0.77984 0.20292 0.0
C3047 C 0.54749 0.82206 0.26418 0.0
C3048 C 0.5367 0.82055 0.24786 0.0
C3049 C 0.56028 0.83597 0.26722 0.0
C3050 C 0.56253 0.848 0.2532 0.0
C3051 C 0.55186 0.84634 0.23655 0.0
C3052 C 0.53862 0.83264 0.23427 0.0
N3053 N 0.5449 0.80951 0.27829 0.0
N3054 N 0.56397 0.78568 0.27672 0.0
N3055 N 0.54884 0.79291 0.24389 0.0
C3056 C 0.53464 0.78073 0.23691 0.0
C3057 C 0.52467 0.7833 0.22391 0.0
C3058 C 0.53064 0.76614 0.24297 0.0
C3059 C 0.51045 0.77153 0.21812 0.0
H3060 H 0.52801 0.79451 0.21837 0.0
C3061 C 0.50637 0.75703 0.22537 0.0
C3062 C 0.51641 0.75422 0.23783 0.0
C3063 C 0.4998 0.77436 0.20478 0.0
H3064 H 0.53871 0.76401 0.25129 0.0
H3065 H 0.49539 0.7479 0.22119 0.0
C3066 C 0.51206 0.73887 0.24539 0.0
O3067 O 0.48622 0.76296 0.19907 0.0
O3068 O 0.50323 0.78701 0.1989 0.0
O3069 O 0.52063 0.73655 0.25698 0.0
O3070 O 0.4986 0.72735 0.23945 0.0
H3071 H 0.4791 0.76456 0.19042 0.0
H3072 H 0.49559 0.71726 0.24405 0.0
N3073 N 0.57246 0.81424 0.26271 0.0
C3074 C 0.58329 0.82334 0.27734 0.0
C3075 C 0.59595 0.83547 0.26769 0.0
C3076 C 0.5968 0.83709 0.24282 0.0
C3077 C 0.58506 0.82682 0.22825 0.0
C3078 C 0.57264 0.81513 0.23921 0.0
N3079 N 0.56562 0.80759 0.30668 0.0
C3080 C 0.57944 0.81954 0.30239 0.0
O3081 O 0.58796 0.82817 0.31951 0.0
C3082 C 0.55905 0.80317 0.22827 0.0
O3083 O 0.54859 0.76847 0.18825 0.0
O3084 O 0.53841 0.77507 0.16073 0.0
C3085 C 0.55868 0.80585 0.32944 0.0
C3086 C 0.56119 0.7981 0.34766 0.0
C3087 C 0.55588 0.79789 0.37063 0.0
C3088 C 0.54781 0.80508 0.37511 0.0
C3089 C 0.54582 0.81338 0.35761 0.0
C3090 C 0.55158 0.81407 0.3349 0.0
O3091 O 0.58162 0.81857 0.15681 0.0
O3092 O 0.59409 0.81011 0.17459 0.0
O3093 O 0.58011 0.78363 0.18869 0.0
O3094 O 0.59727 0.77805 0.19428 0.0
O3095 O 0.5564 0.80333 0.20485 0.0
C3096 C 0.57752 0.78635 0.11709 0.0
O3097 O 0.58947 0.78731 0.12513 0.0
O3098 O 0.5686 0.78826 0.13036 0.0
C3099 C 0.53742 0.76515 0.17518 0.0
H3100 H 0.53055 0.75135 0.31759 0.0
H3101 H 0.50817 0.77719 0.31695 0.0
H3102 H 0.50899 0.75444 0.32923 0.0
H3103 H 0.56401 0.77623 0.23201 0.0
H3104 H 0.61118 0.7924 0.22989 0.0
H3105 H 0.5916 0.79964 0.29138 0.0
H3106 H 0.52656 0.80994 0.24617 0.0
H3107 H 0.56829 0.8377 0.28076 0.0
H3108 H 0.55365 0.85592 0.22638 0.0
H3109 H 0.60485 0.8434 0.27887 0.0
H3110 H 0.60651 0.8463 0.23486 0.0
H3111 H 0.58569 0.82805 0.20923 0.0
H3112 H 0.56774 0.79283 0.34417 0.0
H3113 H 0.54391 0.80507 0.39293 0.0
H3114 H 0.5509 0.82128 0.32178 0.0
Cd3115 Cd 0.20013 0.77179 0.17189 0.0
C3116 C 0.17354 0.77217 0.15119 0.0
C3117 C 0.19309 0.73134 0.29067 0.0
O3118 O 0.18969 0.71759 0.29532 0.0
Cd3119 Cd 0.19842 0.81 0.15447 0.0
C3120 C 0.20716 0.74414 0.29855 0.0
C3121 C 0.23063 0.77169 0.31296 0.0
C3122 C 0.21924 0.77054 0.29835 0.0
N3123 N 0.20868 0.75704 0.29138 0.0
C3124 C 0.21808 0.74437 0.31331 0.0
C3125 C 0.23001 0.75837 0.32031 0.0
Co3126 Co 0.19262 0.75613 0.27605 0.0
C3127 C 0.2168 0.78243 0.28926 0.0
O3128 O 0.22657 0.79662 0.29193 0.0
C3129 C 0.20097 0.78734 0.26275 0.0
C3130 C 0.20651 0.79177 0.23972 0.0
C3131 C 0.20315 0.8014 0.22715 0.0
C3132 C 0.19401 0.80614 0.23747 0.0
C3133 C 0.18836 0.80154 0.26013 0.0
C3134 C 0.19211 0.79236 0.27291 0.0
C3135 C 0.20726 0.80531 0.20234 0.0
C3136 C 0.17151 0.72364 0.26466 0.0
C3137 C 0.17377 0.71408 0.24993 0.0
C3138 C 0.15712 0.72138 0.26733 0.0
C3139 C 0.14528 0.71002 0.25487 0.0
C3140 C 0.1476 0.70055 0.24019 0.0
C3141 C 0.16186 0.70222 0.23816 0.0
N3142 N 0.18369 0.73464 0.27837 0.0
N3143 N 0.20418 0.77762 0.27608 0.0
N3144 N 0.19946 0.75567 0.24389 0.0
C3145 C 0.21206 0.75412 0.23798 0.0
C3146 C 0.21014 0.74155 0.22579 0.0
C3147 C 0.22634 0.76497 0.24503 0.0
C3148 C 0.22227 0.73936 0.22175 0.0
H3149 H 0.19915 0.73342 0.2197 0.0
C3150 C 0.23642 0.75 0.23009 0.0
C3151 C 0.23855 0.76283 0.24186 0.0
C3152 C 0.22015 0.72587 0.20925 0.0
H3153 H 0.22796 0.77516 0.25276 0.0
H3154 H 0.24579 0.74831 0.22738 0.0
C3155 C 0.25348 0.77397 0.25087 0.0
O3156 O 0.23189 0.72394 0.20518 0.0
O3157 O 0.20777 0.7164 0.2026 0.0
O3158 O 0.25516 0.78478 0.26205 0.0
O3159 O 0.26534 0.77225 0.2467 0.0
H3160 H 0.23076 0.71522 0.19709 0.0
H3161 H 0.27518 0.77942 0.25229 0.0
N3162 N 0.17659 0.75563 0.26141 0.0
C3163 C 0.16704 0.75701 0.27545 0.0
C3164 C 0.1551 0.75756 0.26505 0.0
C3165 C 0.15411 0.75712 0.24009 0.0
C3166 C 0.16489 0.75612 0.22616 0.0
C3167 C 0.17641 0.75543 0.23783 0.0
N3168 N 0.18306 0.75645 0.30573 0.0
C3169 C 0.1706 0.75731 0.30073 0.0
O3170 O 0.16155 0.75682 0.3174 0.0
C3171 C 0.18923 0.75503 0.22759 0.0
O3172 O 0.22328 0.78082 0.1911 0.0
O3173 O 0.21972 0.76599 0.16151 0.0
C3174 C 0.18511 0.75181 0.3288 0.0
C3175 C 0.19305 0.76252 0.34642 0.0
C3176 C 0.19331 0.75799 0.36978 0.0
C3177 C 0.18571 0.74286 0.37534 0.0
C3178 C 0.17716 0.73214 0.35849 0.0
C3179 C 0.17692 0.73661 0.33513 0.0
O3180 O 0.17353 0.76013 0.15514 0.0
O3181 O 0.18483 0.78383 0.15813 0.0
O3182 O 0.20548 0.79544 0.18763 0.0
O3183 O 0.20859 0.81728 0.1941 0.0
O3184 O 0.18993 0.75274 0.20411 0.0
C3185 C 0.21188 0.79396 0.11696 0.0
O3186 O 0.2125 0.80586 0.12456 0.0
O3187 O 0.20718 0.78224 0.12985 0.0
C3188 C 0.22831 0.77452 0.17776 0.0
H3189 H 0.23952 0.7824 0.3188 0.0
H3190 H 0.2173 0.73416 0.31962 0.0
H3191 H 0.23858 0.75889 0.33181 0.0
H3192 H 0.2133 0.78774 0.23175 0.0
H3193 H 0.19084 0.81305 0.22752 0.0
H3194 H 0.1883 0.78919 0.29093 0.0
H3195 H 0.18483 0.71562 0.24837 0.0
H3196 H 0.15487 0.7279 0.27968 0.0
H3197 H 0.1381 0.6915 0.23149 0.0
H3198 H 0.14689 0.75839 0.27572 0.0
H3199 H 0.14507 0.75766 0.23155 0.0
H3200 H 0.16429 0.75604 0.20706 0.0
H3201 H 0.19841 0.77425 0.34215 0.0
H3202 H 0.18562 0.73944 0.39351 0.0
H3203 H 0.16977 0.72843 0.32225 0.0
C3204 C 0.27514 0.10451 0.95329 0.0
C3205 C 0.27536 0.10765 0.97744 0.0
C3206 C 0.28848 0.10917 0.94096 0.0
C3207 C 0.32888 0.13749 0.94581 0.0
H3208 H 0.33192 0.11809 0.88931 0.0
C3209 C 0.38367 0.16103 0.89183 0.0
C3210 C 0.38195 0.16249 0.86749 0.0
C3211 C 0.37117 0.15265 0.90621 0.0
C3212 C 0.33124 0.12363 0.90508 0.0
H3213 H 0.2895 0.11759 0.00788 0.0
H3214 H 0.31267 0.12485 0.98696 0.0
H3215 H 0.30919 0.10607 0.91287 0.0
H3216 H 0.36588 0.15588 0.83907 0.0
H3217 H 0.34422 0.14109 0.86396 0.0
H3218 H 0.35097 0.15501 0.93795 0.0
C3219 C 0.30235 0.11923 0.97715 0.0
C3220 C 0.31816 0.11678 0.91857 0.0
C3221 C 0.28905 0.11482 0.98931 0.0
C3222 C 0.36757 0.15492 0.85775 0.0
C3223 C 0.35515 0.1464 0.872 0.0
C3224 C 0.34201 0.14422 0.9325 0.0
C3225 C 0.30234 0.11699 0.95258 0.0
C3226 C 0.31668 0.12369 0.939 0.0
C3227 C 0.35675 0.14538 0.89648 0.0
C3228 C 0.34329 0.13749 0.91179 0.0
H3229 H 0.26474 0.09941 0.94361 0.0
H3230 H 0.28791 0.10737 0.92205 0.0
H3231 H 0.32818 0.14342 0.96103 0.0
H3232 H 0.39458 0.16684 0.89991 0.0
H3233 H 0.37277 0.15203 0.925 0.0
C3234 C 0.8404 0.21598 0.86008 0.0
C3235 C 0.83155 0.2211 0.87065 0.0
C3236 C 0.84776 0.21046 0.87378 0.0
C3237 C 0.85888 0.2076 0.93565 0.0
H3238 H 0.86039 0.17376 0.90988 0.0
C3239 C 0.8717 0.16896 0.99232 0.0
C3240 C 0.88104 0.16406 0.98288 0.0
C3241 C 0.86709 0.17711 0.97858 0.0
C3242 C 0.86025 0.18333 0.91721 0.0
H3243 H 0.82365 0.22462 0.90408 0.0
H3244 H 0.83626 0.21467 0.92819 0.0
H3245 H 0.84943 0.18559 0.88668 0.0
H3246 H 0.89294 0.164 0.95148 0.0
H3247 H 0.88471 0.17818 0.92723 0.0
H3248 H 0.86928 0.20491 0.96656 0.0
C3249 C 0.83782 0.21524 0.90922 0.0
C3250 C 0.85397 0.19018 0.90388 0.0
C3251 C 0.83059 0.22099 0.89543 0.0
C3252 C 0.88584 0.16771 0.95933 0.0
C3253 C 0.88103 0.17572 0.94541 0.0
C3254 C 0.86502 0.20064 0.94908 0.0
C3255 C 0.8463 0.20962 0.89854 0.0
C3256 C 0.85318 0.20244 0.91286 0.0
C3257 C 0.87153 0.18046 0.95488 0.0
C3258 C 0.86576 0.18839 0.94006 0.0
H3259 H 0.84136 0.21594 0.84101 0.0
H3260 H 0.85445 0.20665 0.86483 0.0
H3261 H 0.85871 0.21711 0.94312 0.0
H3262 H 0.86777 0.16632 0.01038 0.0
H3263 H 0.85965 0.1804 0.98638 0.0
C3264 C 0.77169 0.6071 0.89441 0.0
C3265 C 0.77323 0.60895 0.86975 0.0
C3266 C 0.77645 0.6195 0.90928 0.0
C3267 C 0.78534 0.65864 0.91131 0.0
H3268 H 0.814 0.66364 0.95944 0.0
C3269 C 0.82293 0.7155 0.95727 0.0
C3270 C 0.82868 0.71563 0.97975 0.0
C3271 C 0.81406 0.70198 0.94544 0.0
C3272 C 0.80575 0.66238 0.94655 0.0
H3273 H 0.78046 0.62507 0.84137 0.0
H3274 H 0.78825 0.64657 0.86722 0.0
H3275 H 0.80186 0.6408 0.93654 0.0
H3276 H 0.82921 0.7019 0.00802 0.0
H3277 H 0.81292 0.67837 0.98841 0.0
H3278 H 0.789 0.68007 0.92138 0.0
C3279 C 0.78348 0.63562 0.87508 0.0
C3280 C 0.79884 0.64923 0.9333 0.0
C3281 C 0.77904 0.62331 0.8603 0.0
C3282 C 0.82478 0.70205 0.99073 0.0
C3283 C 0.81565 0.68856 0.97923 0.0
C3284 C 0.79205 0.6717 0.92486 0.0
C3285 C 0.78252 0.63391 0.89976 0.0
C3286 C 0.78871 0.64728 0.91531 0.0
C3287 C 0.81057 0.68828 0.95602 0.0
C3288 C 0.80254 0.6739 0.94252 0.0
H3289 H 0.76745 0.59619 0.90222 0.0
H3290 H 0.77558 0.61785 0.92825 0.0
H3291 H 0.77751 0.65742 0.89762 0.0
H3292 H 0.82611 0.72586 0.94821 0.0
H3293 H 0.81063 0.70239 0.92753 0.0
C3294 C 0.1708 0.38469 0.61663 0.0
C3295 C 0.16448 0.3888 0.63495 0.0
C3296 C 0.16248 0.37129 0.60461 0.0
C3297 C 0.12499 0.33945 0.5921 0.0
H3298 H 0.14756 0.31927 0.58359 0.0
C3299 C 0.10166 0.27877 0.55295 0.0
C3300 C 0.11154 0.27733 0.53764 0.0
C3301 C 0.1062 0.29227 0.56502 0.0
C3302 C 0.14109 0.32476 0.58563 0.0
H3303 H 0.14426 0.38234 0.65454 0.0
H3304 H 0.12951 0.35854 0.63343 0.0
H3305 H 0.1588 0.34299 0.60389 0.0
H3306 H 0.13342 0.2892 0.52164 0.0
H3307 H 0.14111 0.31243 0.54205 0.0
H3308 H 0.10724 0.32096 0.57352 0.0
C3309 C 0.14094 0.36589 0.62822 0.0
C3310 C 0.14756 0.33842 0.59728 0.0
C3311 C 0.14933 0.37952 0.64023 0.0
C3312 C 0.12561 0.28983 0.5336 0.0
C3313 C 0.13007 0.30317 0.54543 0.0
C3314 C 0.11845 0.32564 0.58032 0.0
C3315 C 0.14761 0.3614 0.61082 0.0
C3316 C 0.1398 0.34618 0.60015 0.0
C3317 C 0.12067 0.30448 0.5619 0.0
C3318 C 0.1266 0.31834 0.57641 0.0
H3319 H 0.18243 0.39163 0.61216 0.0
H3320 H 0.1679 0.36843 0.59091 0.0
H3321 H 0.11867 0.34509 0.59413 0.0
H3322 H 0.09076 0.26933 0.55644 0.0
H3323 H 0.09867 0.29294 0.57753 0.0
C3324 C 0.711 0.84123 0.55677 0.0
C3325 C 0.71806 0.83472 0.54447 0.0
C3326 C 0.69749 0.8325 0.56819 0.0
C3327 C 0.6716 0.79587 0.59341 0.0
H3328 H 0.64384 0.81015 0.58454 0.0
C3329 C 0.61065 0.77033 0.63407 0.0
C3330 C 0.60861 0.78129 0.64524 0.0
C3331 C 0.62374 0.77438 0.62111 0.0
C3332 C 0.65142 0.80596 0.58713 0.0
H3333 H 0.71676 0.81383 0.53558 0.0
H3334 H 0.69275 0.79831 0.55581 0.0
H3335 H 0.66713 0.82164 0.56278 0.0
H3336 H 0.61915 0.80492 0.65282 0.0
H3337 H 0.6415 0.81182 0.63034 0.0
H3338 H 0.6557 0.78029 0.61827 0.0
C3339 C 0.69784 0.81029 0.55642 0.0
C3340 C 0.66481 0.81258 0.57473 0.0
C3341 C 0.71156 0.81915 0.54489 0.0
C3342 C 0.62016 0.79618 0.64412 0.0
C3343 C 0.63303 0.80018 0.6312 0.0
C3344 C 0.65803 0.78913 0.60585 0.0
C3345 C 0.69047 0.81692 0.56766 0.0
C3346 C 0.67534 0.80803 0.57831 0.0
C3347 C 0.63486 0.78943 0.61905 0.0
C3348 C 0.64805 0.79448 0.60338 0.0
H3349 H 0.71586 0.85319 0.55738 0.0
H3350 H 0.69242 0.83803 0.57728 0.0
H3351 H 0.67945 0.79207 0.59652 0.0
H3352 H 0.60199 0.75877 0.63466 0.0
H3353 H 0.62491 0.76586 0.61195 0.0
C3354 C 0.17075 0.89092 0.55575 0.0
C3355 C 0.16224 0.88278 0.53616 0.0
C3356 C 0.17941 0.88619 0.56819 0.0
C3357 C 0.18055 0.85139 0.578 0.0
H3358 H 0.21895 0.87668 0.60706 0.0
C3359 C 0.21349 0.82576 0.61601 0.0
C3360 C 0.21966 0.83037 0.63859 0.0
C3361 C 0.2084 0.83388 0.60331 0.0
C3362 C 0.20818 0.86948 0.59915 0.0
H3363 H 0.15692 0.8641 0.51321 0.0
H3364 H 0.17235 0.85633 0.53395 0.0
H3365 H 0.20659 0.88791 0.58517 0.0
H3366 H 0.22558 0.84712 0.66563 0.0
H3367 H 0.21667 0.8615 0.64332 0.0
H3368 H 0.18199 0.83301 0.59177 0.0
C3369 C 0.17201 0.86596 0.54047 0.0
C3370 C 0.20109 0.87592 0.58664 0.0
C3371 C 0.16328 0.87051 0.52837 0.0
C3372 C 0.2212 0.84359 0.64796 0.0
C3373 C 0.21603 0.85175 0.63523 0.0
C3374 C 0.18761 0.84501 0.59031 0.0
C3375 C 0.17975 0.87334 0.56109 0.0
C3376 C 0.18727 0.86691 0.57553 0.0
C3377 C 0.20913 0.84671 0.61305 0.0
C3378 C 0.20163 0.85392 0.60073 0.0
H3379 H 0.17001 0.90034 0.56226 0.0
H3380 H 0.18522 0.89216 0.58399 0.0
H3381 H 0.1697 0.84406 0.57045 0.0
H3382 H 0.21197 0.81547 0.6086 0.0
H3383 H 0.20341 0.82981 0.58613 0.0
C3384 C 0.70812 0.88709 0.03791 0.0
C3385 C 0.71728 0.88122 0.04394 0.0
C3386 C 0.6943 0.88187 0.04924 0.0
C3387 C 0.66667 0.84866 0.08324 0.0
H3388 H 0.64912 0.87269 0.10024 0.0
C3389 C 0.62096 0.82931 0.15228 0.0
C3390 C 0.60761 0.82886 0.14614 0.0
C3391 C 0.63356 0.83667 0.13811 0.0
C3392 C 0.65383 0.86584 0.09529 0.0
H3393 H 0.71974 0.86613 0.0674 0.0
H3394 H 0.69632 0.85766 0.08776 0.0
H3395 H 0.67308 0.88414 0.07932 0.0
H3396 H 0.59738 0.83661 0.12072 0.0
H3397 H 0.61983 0.84991 0.09589 0.0
H3398 H 0.64782 0.83054 0.09989 0.0
C3399 C 0.69928 0.86576 0.07374 0.0
C3400 C 0.66755 0.87237 0.08332 0.0
C3401 C 0.71283 0.87075 0.06226 0.0
C3402 C 0.60745 0.83666 0.12588 0.0
C3403 C 0.62027 0.84428 0.11171 0.0
C3404 C 0.65315 0.84223 0.09532 0.0
C3405 C 0.68953 0.8708 0.06688 0.0
C3406 C 0.67434 0.86392 0.07768 0.0
C3407 C 0.63335 0.84404 0.11748 0.0
C3408 C 0.64672 0.85078 0.10196 0.0
H3409 H 0.71125 0.89507 0.02365 0.0
H3410 H 0.68711 0.88602 0.04347 0.0
H3411 H 0.67121 0.84162 0.07852 0.0
H3412 H 0.62166 0.82372 0.16798 0.0
H3413 H 0.64353 0.8365 0.14324 0.0
C3414 C 0.14974 0.77218 0.14458 0.0
C3415 C 0.16286 0.77338 0.13546 0.0
C3416 C 0.1418 0.77747 0.13159 0.0
C3417 C 0.14937 0.80598 0.08622 0.0
H3418 H 0.10676 0.79031 0.08722 0.0
C3419 C 0.12556 0.84271 0.05887 0.0
C3420 C 0.11294 0.8368 0.04424 0.0
C3421 C 0.12999 0.83351 0.06974 0.0
C3422 C 0.11866 0.79476 0.0866 0.0
H3423 H 0.17778 0.78061 0.10551 0.0
H3424 H 0.16377 0.78933 0.0825 0.0
H3425 H 0.11721 0.77604 0.10526 0.0
H3426 H 0.09466 0.81642 0.03033 0.0
H3427 H 0.10259 0.80011 0.0492 0.0
H3428 H 0.15096 0.82459 0.06757 0.0
C3429 C 0.1596 0.78449 0.09972 0.0
C3430 C 0.12468 0.78665 0.09712 0.0
C3431 C 0.16752 0.77928 0.11273 0.0
C3432 C 0.10443 0.82128 0.04151 0.0
C3433 C 0.10898 0.81197 0.05234 0.0
C3434 C 0.14341 0.81404 0.0758 0.0
C3435 C 0.14693 0.7842 0.10931 0.0
C3436 C 0.14015 0.7922 0.09717 0.0
C3437 C 0.12206 0.81805 0.06613 0.0
C3438 C 0.128 0.80869 0.0761 0.0
H3439 H 0.14617 0.76805 0.16236 0.0
H3440 H 0.1322 0.77716 0.13967 0.0
H3441 H 0.16134 0.81081 0.08618 0.0
H3442 H 0.13223 0.8546 0.06175 0.0
H3443 H 0.13982 0.83859 0.08079 0.0
C3444 C 0.16769 0.27318 0.05989 0.0
C3445 C 0.1621 0.27314 0.03729 0.0
C3446 C 0.17661 0.28669 0.07181 0.0
C3447 C 0.18532 0.32645 0.0699 0.0
H3448 H 0.21271 0.33161 0.12043 0.0
C3449 C 0.21788 0.38222 0.11817 0.0
C3450 C 0.21317 0.38089 0.14175 0.0
C3451 C 0.21528 0.36959 0.10531 0.0
C3452 C 0.20517 0.33032 0.10622 0.0
H3453 H 0.16208 0.28703 0.00886 0.0
H3454 H 0.17843 0.31042 0.02852 0.0
H3455 H 0.20129 0.30863 0.09713 0.0
H3456 H 0.20295 0.36555 0.17082 0.0
H3457 H 0.19914 0.34359 0.14873 0.0
H3458 H 0.18945 0.34825 0.07878 0.0
C3459 C 0.17548 0.30022 0.03784 0.0
C3460 C 0.19848 0.31709 0.09297 0.0
C3461 C 0.16628 0.28678 0.02629 0.0
C3462 C 0.20704 0.36694 0.15285 0.0
C3463 C 0.20476 0.35436 0.14016 0.0
C3464 C 0.19226 0.33974 0.08272 0.0
C3465 C 0.18033 0.30045 0.0612 0.0
C3466 C 0.1883 0.31486 0.07469 0.0
C3467 C 0.20817 0.35545 0.11595 0.0
C3468 C 0.20214 0.34179 0.10116 0.0
H3469 H 0.16438 0.26279 0.06892 0.0
H3470 H 0.17993 0.28623 0.08978 0.0
H3471 H 0.17725 0.3252 0.05667 0.0
H3472 H 0.22222 0.39275 0.109 0.0
H3473 H 0.21797 0.37073 0.08665 0.0
C3474 C 0.83686 0.62817 0.35329 0.0
C3475 C 0.8312 0.61412 0.36386 0.0
C3476 C 0.84528 0.64118 0.3663 0.0
C3477 C 0.86645 0.65628 0.42234 0.0
H3478 H 0.85896 0.68866 0.40961 0.0
C3479 C 0.88494 0.70665 0.48488 0.0
C3480 C 0.88971 0.72078 0.4751 0.0
C3481 C 0.8796 0.69406 0.47051 0.0
C3482 C 0.86139 0.67985 0.41314 0.0
H3483 H 0.83027 0.60272 0.39642 0.0
H3484 H 0.8449 0.62554 0.41944 0.0
H3485 H 0.84589 0.66573 0.38699 0.0
H3486 H 0.89298 0.73282 0.44234 0.0
H3487 H 0.88364 0.71075 0.41701 0.0
H3488 H 0.88171 0.67038 0.44896 0.0
C3489 C 0.84298 0.62648 0.40087 0.0
C3490 C 0.85387 0.66663 0.40016 0.0
C3491 C 0.83459 0.61338 0.3877 0.0
C3492 C 0.88956 0.72213 0.4504 0.0
C3493 C 0.88403 0.70945 0.43594 0.0
C3494 C 0.87393 0.6695 0.43543 0.0
C3495 C 0.84821 0.64058 0.39042 0.0
C3496 C 0.85629 0.65464 0.40451 0.0
C3497 C 0.87873 0.69521 0.44588 0.0
C3498 C 0.87149 0.68146 0.43102 0.0
H3499 H 0.83454 0.62913 0.3349 0.0
H3500 H 0.84941 0.65176 0.3574 0.0
H3501 H 0.86877 0.64741 0.42605 0.0
H3502 H 0.88482 0.70524 0.50388 0.0
H3503 H 0.87548 0.68332 0.47885 0.0
C3504 C 0.36719 0.20546 0.35645 0.0
C3505 C 0.38083 0.2157 0.3667 0.0
C3506 C 0.35378 0.20133 0.36804 0.0
C3507 C 0.33703 0.20975 0.42079 0.0
H3508 H 0.30635 0.16857 0.41211 0.0
C3509 C 0.28804 0.17664 0.48574 0.0
C3510 C 0.2738 0.16747 0.47619 0.0
C3511 C 0.30047 0.18406 0.47106 0.0
C3512 C 0.31471 0.18015 0.4145 0.0
H3513 H 0.39123 0.22979 0.39703 0.0
H3514 H 0.36788 0.2222 0.41791 0.0
H3515 H 0.32926 0.17859 0.38956 0.0
H3516 H 0.26142 0.15891 0.44365 0.0
H3517 H 0.2833 0.1717 0.41782 0.0
H3518 H 0.32258 0.21086 0.44686 0.0
C3519 C 0.36738 0.21769 0.40048 0.0
C3520 C 0.32791 0.18599 0.40144 0.0
C3521 C 0.38082 0.22211 0.38852 0.0
C3522 C 0.2722 0.1661 0.4515 0.0
C3523 C 0.28474 0.17331 0.43676 0.0
C3524 C 0.3239 0.2038 0.43417 0.0
C3525 C 0.35363 0.20693 0.39067 0.0
C3526 C 0.33933 0.20091 0.40431 0.0
C3527 C 0.29905 0.18225 0.44642 0.0
C3528 C 0.31259 0.18892 0.43119 0.0
H3529 H 0.36692 0.2003 0.33967 0.0
H3530 H 0.34355 0.19342 0.35938 0.0
H3531 H 0.34534 0.22131 0.42339 0.0
H3532 H 0.28961 0.17776 0.50472 0.0
H3533 H 0.31132 0.19071 0.47908 0.0
C3534 C 0.78146 0.15409 0.35633 0.0
C3535 C 0.77544 0.16214 0.36692 0.0
C3536 C 0.7862 0.14605 0.37003 0.0
C3537 C 0.78504 0.131 0.4304 0.0
H3538 H 0.82197 0.13369 0.41006 0.0
C3539 C 0.82067 0.11587 0.49063 0.0
C3540 C 0.82795 0.10885 0.48056 0.0
C3541 C 0.81281 0.12066 0.47656 0.0
C3542 C 0.81153 0.13261 0.41582 0.0
H3543 H 0.76927 0.16772 0.40032 0.0
H3544 H 0.77771 0.15375 0.42448 0.0
H3545 H 0.811 0.14537 0.38659 0.0
H3546 H 0.83238 0.10108 0.4477 0.0
H3547 H 0.81857 0.10946 0.42296 0.0
H3548 H 0.78586 0.11852 0.46 0.0
C3549 C 0.77856 0.15347 0.40543 0.0
C3550 C 0.8052 0.13932 0.40234 0.0
C3551 C 0.77366 0.16145 0.39161 0.0
C3552 C 0.82679 0.10633 0.45604 0.0
C3553 C 0.81901 0.11127 0.44186 0.0
C3554 C 0.79143 0.12433 0.44397 0.0
C3555 C 0.78525 0.14596 0.39484 0.0
C3556 C 0.79184 0.13862 0.40937 0.0
C3557 C 0.81208 0.11869 0.45193 0.0
C3558 C 0.80479 0.12506 0.43688 0.0
H3559 H 0.78292 0.15436 0.33733 0.0
H3560 H 0.7909 0.14012 0.36112 0.0
H3561 H 0.77469 0.13006 0.43629 0.0
H3562 H 0.82138 0.11802 0.50946 0.0
H3563 H 0.80779 0.12646 0.48494 0.0
C3564 C 0.03497 0.50096 0.20405 0.0
C3565 C 0.04678 0.49798 0.20421 0.0
C3566 C 0.02207 0.49227 0.21703 0.0
C3567 C -0.00243 0.45694 0.24537 0.0
H3568 H 0.98767 0.48134 0.28469 0.0
C3569 C 0.94437 0.43424 0.30695 0.0
C3570 C 0.93767 0.44313 0.30704 0.0
C3571 C 0.95792 0.43902 0.29488 0.0
C3572 C 0.99017 0.47431 0.27374 0.0
H3573 H 0.05382 0.48286 0.21724 0.0
H3574 H 0.03086 0.46737 0.24011 0.0
H3575 H 0.01085 0.49282 0.26269 0.0
H3576 H 0.93925 0.46328 0.29302 0.0
H3577 H 0.96227 0.47133 0.27192 0.0
H3578 H 0.97646 0.43844 0.25597 0.0
C3579 C 0.03183 0.47662 0.22984 0.0
C3580 C 0.00352 0.48091 0.26122 0.0
C3581 C 0.04495 0.48546 0.21678 0.0
C3582 C 0.94427 0.45633 0.2938 0.0
C3583 C 0.95757 0.461 0.28174 0.0
C3584 C 0.98403 0.45027 0.25791 0.0
C3585 C 0.02045 0.48024 0.23058 0.0
C3586 C 0.00723 0.47243 0.24635 0.0
C3587 C 0.96489 0.45272 0.2827 0.0
C3588 C 0.97996 0.45899 0.27166 0.0
H3589 H 0.03581 0.51031 0.19426 0.0
H3590 H 0.01341 0.49519 0.21686 0.0
H3591 H 0.00016 0.45012 0.23406 0.0
H3592 H 0.93954 0.42402 0.31704 0.0
H3593 H 0.96322 0.43233 0.29588 0.0
C3594 C 0.55439 0.5099 0.31504 0.0
C3595 C 0.55818 0.49967 0.30578 0.0
C3596 C 0.54933 0.51725 0.30028 0.0
C3597 C 0.52856 0.51159 0.246 0.0
H3598 H 0.54127 0.55355 0.2506 0.0
C3599 C 0.50019 0.53586 0.18894 0.0
C3600 C 0.49734 0.54648 0.19918 0.0
C3601 C 0.50992 0.53203 0.19967 0.0
C3602 C 0.53745 0.54178 0.24922 0.0
H3603 H 0.55991 0.48933 0.27361 0.0
H3604 H 0.55063 0.50191 0.24774 0.0
H3605 H 0.55404 0.54335 0.2736 0.0
H3606 H 0.50254 0.56161 0.22853 0.0
H3607 H 0.5194 0.55478 0.24777 0.0
H3608 H 0.51149 0.50965 0.22282 0.0
C3609 C 0.55181 0.50438 0.26648 0.0
C3610 C 0.54486 0.53596 0.26232 0.0
C3611 C 0.55722 0.49726 0.28124 0.0
C3612 C 0.50491 0.55371 0.21992 0.0
C3613 C 0.5145 0.54967 0.23099 0.0
C3614 C 0.52101 0.51732 0.23323 0.0
C3615 C 0.54762 0.51431 0.27591 0.0
C3616 C 0.54049 0.52079 0.26086 0.0
C3617 C 0.51677 0.5384 0.22139 0.0
C3618 C 0.52531 0.53252 0.23459 0.0
H3619 H 0.55491 0.51188 0.33391 0.0
H3620 H 0.54607 0.5247 0.30813 0.0
H3621 H 0.52472 0.4998 0.24488 0.0
H3622 H 0.49428 0.52996 0.17313 0.0
H3623 H 0.51164 0.52365 0.19125 0.0
C3624 C 0.48273 0.04343 0.3064 0.0
C3625 C 0.49819 0.05132 0.30281 0.0
C3626 C 0.4738 0.02974 0.29481 0.0
C3627 C 0.4778 -0.00065 0.26766 0.0
H3628 H 0.4381 0.98487 0.24293 0.0
C3629 C 0.44426 0.93972 0.23273 0.0
C3630 C 0.43733 0.93786 0.21072 0.0
C3631 C 0.44946 0.95296 0.24545 0.0
C3632 C 0.44919 0.98877 0.24973 0.0
H3633 H 0.51623 0.05172 0.28299 0.0
H3634 H 0.50083 0.02845 0.26244 0.0
H3635 H 0.45165 0.00971 0.26089 0.0
H3636 H 0.43007 0.94823 0.18491 0.0
H3637 H 0.43902 0.97145 0.20722 0.0
H3638 H 0.47566 0.97879 0.25618 0.0
C3639 C 0.49553 0.03235 0.27474 0.0
C3640 C 0.45691 0.00297 0.26019 0.0
C3641 C 0.50438 0.04579 0.28641 0.0
C3642 C 0.43506 0.94926 0.20213 0.0
C3643 C 0.44026 0.96258 0.21489 0.0
C3644 C 0.47012 0.98525 0.25735 0.0
C3645 C 0.48021 0.02382 0.27936 0.0
C3646 C 0.47142 0.00852 0.26905 0.0
C3647 C 0.44799 0.9648 0.23636 0.0
C3648 C 0.45572 0.97973 0.24815 0.0
H3649 H 0.47769 0.0474 0.31905 0.0
H3650 H 0.46204 0.02349 0.29879 0.0
H3651 H 0.48883 0.00307 0.27461 0.0
H3652 H 0.44632 0.93118 0.2396 0.0
H3653 H 0.45511 0.95413 0.26208 0.0
C3654 C 0.50614 0.96142 0.69036 0.0
C3655 C 0.49867 0.94714 0.70047 0.0
C3656 C 0.51441 0.97403 0.70435 0.0
C3657 C 0.5162 0.98728 0.76512 0.0
H3658 H 0.55282 0.02158 0.74388 0.0
C3659 C 0.5466 0.03939 0.8235 0.0
C3660 C 0.55258 0.05339 0.81263 0.0
C3661 C 0.54167 0.02649 0.81006 0.0
C3662 C 0.54253 0.01217 0.74999 0.0
H3663 H 0.4944 0.93488 0.73326 0.0
H3664 H 0.50893 0.957 0.75785 0.0
H3665 H 0.54159 -0.00128 0.72053 0.0
H3666 H 0.55839 0.06487 0.77898 0.0
H3667 H 0.5496 0.04222 0.75526 0.0
H3668 H 0.51685 0.00073 0.79419 0.0
C3669 C 0.50833 0.9584 0.739 0.0
C3670 C 0.53611 -0.00098 0.73663 0.0
C3671 C 0.50014 0.94571 0.72489 0.0
C3672 C 0.55402 0.05426 0.78789 0.0
C3673 C 0.54894 0.04125 0.77433 0.0
C3674 C 0.52256 0.00042 0.77839 0.0
C3675 C 0.51535 0.97275 0.72893 0.0
C3676 C 0.52281 0.98641 0.74396 0.0
C3677 C 0.54241 0.02714 0.78524 0.0
C3678 C 0.53581 0.01309 0.77103 0.0
H3679 H 0.50518 0.96289 0.6716 0.0
H3680 H 0.5195 0.98486 0.69598 0.0
H3681 H 0.5058 0.97793 0.77107 0.0
H3682 H 0.54541 0.03837 0.84255 0.0
H3683 H 0.53709 0.01594 0.8192 0.0
C3684 C 0.94433 0.50252 0.79168 0.0
C3685 C 0.94575 0.49989 0.81566 0.0
C3686 C 0.95704 0.51062 0.77756 0.0
C3687 C -0.00196 0.53667 0.78054 0.0
H3688 H -0.00145 0.52003 0.71954 0.0
C3689 C 0.05268 0.55525 0.72725 0.0
C3690 C 0.05176 0.55503 0.70245 0.0
C3691 C 0.03975 0.54992 0.74109 0.0
C3692 C -0.00141 0.52503 0.73635 0.0
H3693 H 0.9616 0.50414 0.84374 0.0
H3694 H 0.98357 0.51825 0.81939 0.0
H3695 H 0.97584 0.50865 0.74291 0.0
H3696 H 0.03673 0.54975 0.67282 0.0
H3697 H 0.01445 0.54105 0.6967 0.0
H3698 H 0.02082 0.55302 0.77405 0.0
C3699 C 0.97274 0.51416 0.81137 0.0
C3700 C 0.9855 0.51846 0.74977 0.0
C3701 C 0.96011 0.50599 0.82534 0.0
C3702 C 0.03779 0.55001 0.6919 0.0
C3703 C 0.02497 0.54485 0.70563 0.0
C3704 C 0.01113 0.5433 0.76706 0.0
C3705 C 0.97143 0.5164 0.7872 0.0
C3706 C 0.98506 0.52411 0.77214 0.0
C3707 C 0.02565 0.54435 0.73042 0.0
C3708 C 0.01163 0.53754 0.74478 0.0
H3709 H 0.93344 0.49787 0.78364 0.0
H3710 H 0.95562 0.51223 0.75903 0.0
H3711 H -0.00193 0.54143 0.79759 0.0
H3712 H 0.06324 0.55884 0.73591 0.0
H3713 H 0.04075 0.54961 0.7601 0.0
C3714 C 0.4835 0.43933 0.80392 0.0
C3715 C 0.49902 0.44877 0.80385 0.0
C3716 C 0.47418 0.44384 0.79297 0.0
C3717 C 0.47464 0.47848 0.77505 0.0
H3718 H 0.44064 0.45318 0.73586 0.0
C3719 C 0.43832 0.50048 0.73384 0.0
C3720 C 0.43593 0.4979 0.70945 0.0
C3721 C 0.44376 0.49281 0.74721 0.0
C3722 C 0.45007 0.46037 0.74685 0.0
H3723 H 0.5169 0.46978 0.7907 0.0
H3724 H 0.50089 0.47741 0.77172 0.0
H3725 H 0.45481 0.4429 0.75474 0.0
H3726 H 0.43687 0.48508 0.68006 0.0
H3727 H 0.44581 0.47135 0.7034 0.0
H3728 H 0.47024 0.49603 0.7668 0.0
C3729 C 0.49578 0.4668 0.78077 0.0
C3730 C 0.45813 0.45444 0.75779 0.0
C3731 C 0.50499 0.46236 0.79164 0.0
C3732 C 0.4384 0.48708 0.69893 0.0
C3733 C 0.44353 0.47922 0.71232 0.0
C3734 C 0.46654 0.48435 0.76434 0.0
C3735 C 0.48025 0.45783 0.78178 0.0
C3736 C 0.47071 0.46352 0.77167 0.0
C3737 C 0.4467 0.48226 0.73651 0.0
C3738 C 0.45428 0.47546 0.7498 0.0
H3739 H 0.47857 0.42879 0.81314 0.0
H3740 H 0.46225 0.43662 0.79398 0.0
H3741 H 0.48414 0.48577 0.78586 0.0
H3742 H 0.43681 0.50899 0.74226 0.0
H3743 H 0.44605 0.49541 0.76582 0.0
C3744 C 0.17289 0.02201 0.06492 0.0
C3745 C 0.18718 0.02603 0.05654 0.0
C3746 C 0.16023 0.01083 0.05383 0.0
C3747 C 0.14646 0.98576 1.00154 0.0
H3748 H 0.12186 0.95638 0.04826 0.0
C3749 C 0.12059 0.92384 0.98751 0.0
C3750 C 0.10828 0.91368 1.00091 0.0
C3751 C 0.12588 0.93904 0.98921 0.0
C3752 C 0.12822 0.96454 0.03483 0.0
H3753 H 0.19926 0.02216 0.02882 0.0
H3754 H 0.17714 0.00218 0.00999 0.0
H3755 H 0.14007 0.98116 0.06091 0.0
H3756 H 0.09089 0.91133 0.02467 0.0
H3757 H 0.10013 0.93808 0.02761 0.0
H3758 H 0.13501 0.96878 0.97556 0.0
C3759 C 0.17575 0.00786 0.02497 0.0
C3760 C 0.13876 0.97881 0.04213 0.0
C3761 C 0.18844 0.01915 0.03599 0.0
C3762 C 0.10053 0.91893 0.01441 0.0
C3763 C 0.10584 0.93424 0.0161 0.0
C3764 C 0.13582 0.97147 0.99419 0.0
C3765 C 0.16153 0.00326 0.03426 0.0
C3766 C 0.14843 0.98938 0.02569 0.0
C3767 C 0.11899 0.94448 1.00437 0.0
C3768 C 0.12707 0.96049 0.0109 0.0
H3769 H 0.17141 0.02692 0.08083 0.0
H3770 H 0.14943 0.00766 0.06123 0.0
H3771 H 0.15357 0.99377 0.98843 0.0
H3772 H 0.12671 0.92016 0.97663 0.0
H3773 H 0.13606 0.94652 0.97999 0.0
C3774 C 0.07106 0.19391 0.98341 0.0
C3775 C 0.07928 0.19362 1.00294 0.0
C3776 C 0.05566 0.18519 0.98306 0.0
C3777 C 0.02226 0.15715 0.01575 0.0
H3778 H 0.00902 0.18543 1.00356 0.0
C3779 C 0.97381 0.1564 0.06442 0.0
C3780 C 0.96626 0.16309 0.05426 0.0
C3781 C 0.98503 0.15572 0.05201 0.0
C3782 C 0.01226 0.17713 1.0064 0.0
H3783 H 0.0779 0.18303 0.03656 0.0
H3784 H 0.05072 0.16816 0.0365 0.0
H3785 H 0.03384 0.19156 0.99259 0.0
H3786 H 0.96358 0.17317 0.02256 0.0
H3787 H 0.98303 0.1717 1.00047 0.0
H3788 H 0.00067 0.14295 0.03045 0.0
C3789 C 0.05628 0.1749 0.02116 0.0
C3790 C 0.02661 0.18069 1.00014 0.0
C3791 C 0.07184 0.18347 0.02128 0.0
C3792 C 0.96946 0.16822 0.03089 0.0
C3793 C 0.98058 0.16735 0.01831 0.0
C3794 C 0.00777 0.15351 0.02188 0.0
C3795 C 0.04804 0.1763 1.00257 0.0
C3796 C 0.03195 0.17097 1.00542 0.0
C3797 C 0.98888 0.16161 0.02906 0.0
C3798 C 0.00281 0.16373 0.01807 0.0
H3799 H 0.07646 0.20154 0.96889 0.0
H3800 H 0.04964 0.18623 0.96823 0.0
H3801 H 0.02604 0.14938 0.01979 0.0
H3802 H 0.9716 0.15242 0.08249 0.0
H3803 H 0.99128 0.15142 0.06106 0.0
C3804 C 0.79721 0.87345 0.98978 0.0
C3805 C 0.79844 0.88504 1.00418 0.0
C3806 C 0.80706 0.86815 0.99228 0.0
C3807 C 0.8276 0.86369 0.0403 0.0
H3808 H 0.83466 0.84092 0.99293 0.0
C3809 C 0.84142 0.81922 0.0682 0.0
C3810 C 0.83199 0.80518 0.05812 0.0
C3811 C 0.84258 0.83205 0.05831 0.0
C3812 C 0.83285 0.8473 1.00632 0.0
H3813 H 0.81191 0.9012 0.0308 0.0
H3814 H 0.82932 0.89193 0.03519 0.0
H3815 H 0.82848 0.85975 0.98058 0.0
H3816 H 0.81713 0.79377 0.02885 0.0
H3817 H 0.81882 0.8162 0.01191 0.0
H3818 H 0.83132 0.85087 0.06602 0.0
C3819 C 0.82051 0.88679 0.0222 0.0
C3820 C 0.82934 0.85809 0.99929 0.0
C3821 C 0.81059 0.89214 0.01966 0.0
C3822 C 0.82432 0.80438 0.03722 0.0
C3823 C 0.82546 0.81726 0.02733 0.0
C3824 C 0.83121 0.85301 0.0473 0.0
C3825 C 0.81841 0.87427 0.00932 0.0
C3826 C 0.82602 0.86594 0.01623 0.0
C3827 C 0.83428 0.83117 0.0382 0.0
C3828 C 0.8333 0.8443 0.03042 0.0
H3829 H 0.78807 0.86782 0.97745 0.0
H3830 H 0.80499 0.85846 0.98211 0.0
H3831 H 0.82492 0.86931 0.05388 0.0
H3832 H 0.84739 0.8203 0.08446 0.0
H3833 H 0.84957 0.84262 0.06695 0.0
C3834 C 0.02018 0.17605 0.45183 0.0
C3835 C 0.02478 0.19022 0.46145 0.0
C3836 C 0.00865 0.16332 0.46208 0.0
C3837 C 0.98344 0.14867 0.51394 0.0
H3838 H 0.95417 0.12537 0.46616 0.0
C3839 C 0.92156 0.12306 0.52671 0.0
C3840 C 0.91147 0.11091 0.51297 0.0
C3841 C 0.93674 0.12826 0.52532 0.0
C3842 C 0.96231 0.13137 0.47982 0.0
H3843 H 0.02127 0.20192 0.49021 0.0
H3844 H 0.00055 0.17963 0.50754 0.0
H3845 H 0.97899 0.1439 0.45423 0.0
H3846 H 0.90915 0.09363 0.48894 0.0
H3847 H 0.93592 0.10284 0.48631 0.0
H3848 H 0.96634 0.13658 0.53947 0.0
C3849 C 0.00617 0.17843 0.49231 0.0
C3850 C 0.97659 0.14209 0.47295 0.0
C3851 C 0.01788 0.19123 0.48217 0.0
C3852 C 0.91672 0.10317 0.49944 0.0
C3853 C 0.93202 0.10844 0.49795 0.0
C3854 C 0.96912 0.13787 0.52084 0.0
C3855 C 0.00118 0.16439 0.48195 0.0
C3856 C 0.98713 0.15127 0.48985 0.0
C3857 C 0.94221 0.12145 0.51007 0.0
C3858 C 0.95821 0.12958 0.50376 0.0
H3859 H 0.02498 0.17475 0.43567 0.0
H3860 H 0.00518 0.15266 0.45384 0.0
H3861 H 0.99143 0.1554 0.52737 0.0
H3862 H 0.91782 0.12907 0.53775 0.0
H3863 H 0.9442 0.13832 0.53484 0.0
C3864 C 0.79798 0.81346 0.46139 0.0
C3865 C 0.79463 0.82491 0.46386 0.0
C3866 C 0.81035 0.81442 0.47264 0.0
C3867 C 0.84502 0.83104 0.48102 0.0
H3868 H 0.84324 0.81429 0.54295 0.0
C3869 C 0.88406 0.80889 0.50437 0.0
C3870 C 0.87577 0.79399 0.51163 0.0
C3871 C 0.8777 0.81804 0.50493 0.0
C3872 C 0.84407 0.81927 0.52579 0.0
H3873 H 0.80111 0.84594 0.48114 0.0
H3874 H 0.82298 0.84757 0.50095 0.0
H3875 H 0.82411 0.82024 0.53122 0.0
H3876 H 0.8547 0.77727 0.52659 0.0
H3877 H 0.84366 0.7929 0.52707 0.0
H3878 H 0.86403 0.82876 0.47449 0.0
C3879 C 0.81598 0.83798 0.49009 0.0
C3880 C 0.8332 0.82276 0.51922 0.0
C3881 C 0.80356 0.83704 0.47874 0.0
C3882 C 0.86138 0.78866 0.52062 0.0
C3883 C 0.85508 0.79773 0.52123 0.0
C3884 C 0.85586 0.82753 0.48753 0.0
C3885 C 0.81958 0.82679 0.48662 0.0
C3886 C 0.83322 0.82793 0.49636 0.0
C3887 C 0.863 0.81242 0.51289 0.0
C3888 C 0.85494 0.82072 0.50942 0.0
H3889 H 0.79149 0.8041 0.44981 0.0
H3890 H 0.813 0.80567 0.46988 0.0
H3891 H 0.84513 0.83498 0.46324 0.0
H3892 H 0.89526 0.81335 0.49766 0.0
H3893 H 0.8841 0.82935 0.49851 0.0
C3894 C 0.1847 0.07708 0.49226 0.0
C3895 C 0.1953 0.08376 0.51035 0.0
C3896 C 0.17635 0.06152 0.49056 0.0
C3897 C 0.15924 0.02614 0.49778 0.0
H3898 H 0.19098 0.01695 0.49103 0.0
C3899 C 0.17197 0.97485 0.479 0.0
C3900 C 0.16329 0.96877 0.45865 0.0
C3901 C 0.17227 0.98691 0.49038 0.0
C3902 C 0.18192 0.01916 0.49344 0.0
H3903 H 0.2042 0.07957 0.5423 0.0
H3904 H 0.18952 0.05272 0.53953 0.0
H3905 H 0.19693 0.04192 0.50154 0.0
H3906 H 0.14729 0.96989 0.43523 0.0
H3907 H 0.14798 0.991 0.4549 0.0
H3908 H 0.14422 0.00322 0.48925 0.0
C3909 C 0.1878 0.05938 0.52653 0.0
C3910 C 0.18535 0.0335 0.49928 0.0
C3911 C 0.19621 0.07476 0.52803 0.0
C3912 C 0.15406 0.97427 0.45096 0.0
C3913 C 0.15441 0.98637 0.46228 0.0
C3914 C 0.15574 0.0116 0.49205 0.0
C3915 C 0.1785 0.05265 0.50706 0.0
C3916 C 0.1741 0.03714 0.50148 0.0
C3917 C 0.16401 0.99321 0.48147 0.0
C3918 C 0.1671 0.00802 0.48977 0.0
H3919 H 0.18378 0.08376 0.4784 0.0
H3920 H 0.16927 0.05651 0.4753 0.0
H3921 H 0.15043 0.02878 0.49937 0.0
H3922 H 0.17892 0.97061 0.48564 0.0
H3923 H 0.17953 0.99176 0.50549 0.0
C3924 C 0.80107 0.97635 0.97913 0.0
C3925 C 0.80178 0.96951 0.95814 0.0
C3926 C 0.81391 0.9885 0.98836 0.0
C3927 C 0.84824 0.01936 0.96662 0.0
H3928 H 0.85905 0.02789 0.03268 0.0
C3929 C 0.8902 0.07837 0.99301 0.0
C3930 C 0.88461 0.08359 0.01086 0.0
C3931 C 0.88424 0.06306 0.98976 0.0
C3932 C 0.85621 0.02565 0.01414 0.0
H3933 H 0.81663 0.96987 0.93072 0.0
H3934 H 0.83884 0.99076 0.94699 0.0
H3935 H 0.8393 0.00308 0.02101 0.0
H3936 H 0.8697 0.07705 0.04097 0.0
H3937 H 0.85928 0.05069 0.03521 0.0
H3938 H 0.86423 0.04198 0.95966 0.0
C3939 C 0.82841 0.98676 0.9563 0.0
C3940 C 0.84491 0.01148 1.00752 0.0
C3941 C 0.81567 0.97469 0.94712 0.0
C3942 C 0.87414 0.07338 0.02685 0.0
C3943 C 0.86822 0.05817 0.02365 0.0
C3944 C 0.85937 0.03352 0.97322 0.0
C3945 C 0.82761 0.99404 0.97661 0.0
C3946 C 0.84062 0.00833 0.98375 0.0
C3947 C 0.87259 0.0528 1.0043 0.0
C3948 C 0.86323 0.03699 0.99713 0.0
H3949 H 0.79056 0.97252 0.98809 0.0
H3950 H 0.81299 0.99401 1.00399 0.0
H3951 H 0.84502 0.0173 0.94818 0.0
H3952 H 0.89838 0.086 0.98056 0.0
H3953 H 0.8881 0.05927 0.97499 0.0
C3954 C 0.92019 0.79667 0.02655 0.0
C3955 C 0.90984 0.798 0.01229 0.0
C3956 C 0.93534 0.80663 0.02426 0.0
C3957 C 0.96029 0.82771 0.97667 0.0
H3958 H 0.99018 0.83455 0.02384 0.0
C3959 C 0.01852 0.84212 0.94815 0.0
C3960 C 0.02338 0.83282 0.95797 0.0
C3961 C 0.00684 0.84309 0.95833 0.0
C3962 C 0.98197 0.8328 0.01051 0.0
H3963 H 0.90711 0.81173 0.98622 0.0
H3964 H 0.93376 0.82933 0.98222 0.0
H3965 H 0.96512 0.82811 0.03635 0.0
H3966 H 0.02028 0.81793 0.98702 0.0
H3967 H -0.0006 0.81919 1.00437 0.0
H3968 H 0.97682 0.83169 0.95083 0.0
C3969 C 0.9301 0.82036 0.99491 0.0
C3970 C 0.96765 0.82915 0.01763 0.0
C3971 C 0.91485 0.81032 0.99721 0.0
C3972 C 0.01667 0.82502 0.97884 0.0
C3973 C 0.00486 0.82592 0.98898 0.0
C3974 C 0.97459 0.83144 0.96958 0.0
C3975 C 0.94053 0.81818 1.0076 0.0
C3976 C 0.95647 0.82593 1.00074 0.0
C3977 C -0.00044 0.83465 0.97841 0.0
C3978 C 0.98541 0.83346 0.98638 0.0
H3979 H 0.91669 0.78739 0.03857 0.0
H3980 H 0.94297 0.8045 0.03426 0.0
H3981 H 0.95197 0.82509 0.96313 0.0
H3982 H 0.02325 0.84816 0.9319 0.0
H3983 H 0.0031 0.85002 0.94992 0.0
C3984 C 0.20007 0.12439 0.03501 0.0
C3985 C 0.19829 0.11455 0.0166 0.0
C3986 C 0.19163 0.13138 0.03563 0.0
C3987 C 0.16128 0.13463 1.00642 0.0
H3988 H 0.18943 0.17677 0.01309 0.0
C3989 C 0.15651 0.17979 0.95643 0.0
C3990 C 0.16308 0.19429 0.96561 0.0
C3991 C 0.15693 0.16851 0.96911 0.0
C3992 C 0.18122 0.16507 0.01181 0.0
H3993 H 0.18549 0.10347 0.98532 0.0
H3994 H 0.17106 0.11623 0.9858 0.0
H3995 H 0.19682 0.15894 0.02379 0.0
H3996 H 0.1742 0.20812 0.99596 0.0
H3997 H 0.17485 0.18832 0.01839 0.0
H3998 H 0.14588 0.14099 0.99339 0.0
C3999 C 0.17878 0.11825 1.0001 0.0
C4000 C 0.18549 0.15477 0.01792 0.0
C4001 C 0.1871 0.11101 0.99972 0.0
C4002 C 0.16931 0.1971 0.98833 0.0
C4003 C 0.16963 0.18576 1.00114 0.0
C4004 C 0.15695 0.14499 1.00037 0.0
C4005 C 0.18148 0.12902 0.01749 0.0
C4006 C 0.17575 0.13946 0.01465 0.0
C4007 C 0.1639 0.17146 0.9913 0.0
C4008 C 0.16708 0.16035 1.00225 0.0
H4009 H 0.20849 0.12726 0.04848 0.0
H4010 H 0.1937 0.13931 0.0496 0.0
H4011 H 0.15348 0.12289 1.00399 0.0
H4012 H 0.15174 0.17731 0.93884 0.0
H4013 H 0.15263 0.15775 0.96077 0.0
C4014 C 0.0752 0.88756 0.52325 0.0
C4015 C 0.08197 0.88469 0.50405 0.0
C4016 C 0.05966 0.88066 0.52446 0.0
C4017 C 0.02539 0.86432 0.52151 0.0
H4018 H 0.01198 0.82274 0.5093 0.0
C4019 C 0.97191 0.80063 0.53569 0.0
C4020 C 0.96834 0.8025 0.55882 0.0
C4021 C 0.98349 0.81257 0.5237 0.0
C4022 C 0.01527 0.83429 0.51221 0.0
H4023 H 0.07788 0.87353 0.47016 0.0
H4024 H 0.05117 0.86246 0.47157 0.0
H4025 H 0.0366 0.84143 0.4974 0.0
H4026 H 0.9736 0.81823 0.58745 0.0
H4027 H 0.99418 0.83881 0.56712 0.0
H4028 H 0.00402 0.85695 0.53703 0.0
C4029 C 0.05771 0.86961 0.486 0.0
C4030 C 0.02949 0.84507 0.5054 0.0
C4031 C 0.07308 0.87614 0.48508 0.0
C4032 C 0.97613 0.81656 0.56951 0.0
C4033 C 0.98784 0.8284 0.55774 0.0
C4034 C 0.011 0.85347 0.52816 0.0
C4035 C 0.05079 0.87097 0.50635 0.0
C4036 C 0.03487 0.86017 0.51048 0.0
C4037 C 0.99191 0.82647 0.53489 0.0
C4038 C 0.00595 0.83828 0.5242 0.0
H4039 H 0.08177 0.89406 0.53817 0.0
H4040 H 0.05462 0.88189 0.54042 0.0
H4041 H 0.02923 0.87589 0.5255 0.0
H4042 H 0.96587 0.78992 0.52701 0.0
H4043 H 0.98612 0.81077 0.50592 0.0
C4044 C 0.11925 0.19652 0.48298 0.0
C4045 C 0.11025 0.19583 0.50202 0.0
C4046 C 0.1259 0.18777 0.48271 0.0
C4047 C 0.13033 0.15896 0.51478 0.0
H4048 H 0.17214 0.18736 0.50522 0.0
C4049 C 0.17702 0.15686 0.56477 0.0
C4050 C 0.19143 0.16375 0.55525 0.0
C4051 C 0.16535 0.15648 0.55205 0.0
C4052 C 0.16054 0.17904 0.50732 0.0
H4053 H 0.10014 0.18451 0.5348 0.0
H4054 H 0.11241 0.1696 0.53496 0.0
H4055 H 0.15379 0.19385 0.49382 0.0
H4056 H 0.20476 0.17448 0.52431 0.0
H4057 H 0.18426 0.17353 0.50166 0.0
H4058 H 0.13732 0.14437 0.52921 0.0
C4059 C 0.11399 0.17667 0.5199 0.0
C4060 C 0.14993 0.1828 0.5008 0.0
C4061 C 0.10703 0.18527 0.5199 0.0
C4062 C 0.19379 0.16937 0.53216 0.0
C4063 C 0.18204 0.1688 0.51926 0.0
C4064 C 0.141 0.15512 0.52118 0.0
C4065 C 0.12411 0.17845 0.50187 0.0
C4066 C 0.13475 0.17302 0.5051 0.0
C4067 C 0.16781 0.16288 0.52943 0.0
C4068 C 0.15627 0.16535 0.51827 0.0
H4069 H 0.12188 0.20446 0.46879 0.0
H4070 H 0.13332 0.1891 0.46828 0.0
H4071 H 0.1187 0.15115 0.51808 0.0
H4072 H 0.17492 0.15248 0.58261 0.0
H4073 H 0.15465 0.15202 0.56065 0.0
C4074 C 0.83897 0.01971 0.56796 0.0
C4075 C 0.83013 0.02487 0.55731 0.0
C4076 C 0.84003 0.00801 0.55812 0.0
C4077 C 0.83117 0.98366 0.50557 0.0
H4078 H 0.82376 0.95369 0.55285 0.0
C4079 C 0.79716 0.92177 0.48906 0.0
C4080 C 0.79871 0.91168 0.50366 0.0
C4081 C 0.80678 0.93699 0.49126 0.0
C4082 C 0.82631 0.96203 0.53937 0.0
H4083 H 0.81589 0.022 0.52739 0.0
H4084 H 0.8172 0.00095 0.51068 0.0
H4085 H 0.82905 0.97812 0.56521 0.0
H4086 H 0.81256 0.90951 0.53016 0.0
H4087 H 0.82953 0.93633 0.53408 0.0
H4088 H 0.82769 0.96716 0.47969 0.0
C4089 C 0.8236 0.00631 0.52641 0.0
C4090 C 0.82927 0.97608 0.54648 0.0
C4091 C 0.82266 0.0182 0.53617 0.0
C4092 C 0.81099 0.91705 0.5189 0.0
C4093 C 0.82067 0.93239 0.52116 0.0
C4094 C 0.82826 0.96956 0.49842 0.0
C4095 C 0.83205 0.00089 0.53763 0.0
C4096 C 0.83123 0.98689 0.52969 0.0
C4097 C 0.81817 0.94253 0.50821 0.0
C4098 C 0.8252 0.9584 0.51526 0.0
H4099 H 0.84468 0.02429 0.58451 0.0
H4100 H 0.84675 0.00421 0.56705 0.0
H4101 H 0.83291 0.99186 0.49225 0.0
H4102 H 0.78794 0.918 0.47682 0.0
H4103 H 0.80443 0.9444 0.48102 0.0
C4104 C 0.8456 0.35203 0.39519 0.0
C4105 C 0.8598 0.36055 0.38515 0.0
C4106 C 0.8341 0.3406 0.38244 0.0
C4107 C 0.82947 0.31429 0.33635 0.0
H4108 H 0.78759 0.2999 0.34753 0.0
C4109 C 0.78829 0.25493 0.31335 0.0
C4110 C 0.7789 0.24685 0.33217 0.0
C4111 C 0.79516 0.27036 0.31275 0.0
C4112 C 0.79923 0.30382 0.34413 0.0
H4113 H 0.87287 0.36437 0.3534 0.0
H4114 H 0.85268 0.34426 0.33092 0.0
H4115 H 0.80608 0.32525 0.35908 0.0
H4116 H 0.76836 0.24845 0.36418 0.0
H4117 H 0.781 0.27562 0.36386 0.0
H4118 H 0.82291 0.29283 0.32261 0.0
C4119 C 0.85053 0.34635 0.34883 0.0
C4120 C 0.80982 0.31832 0.35072 0.0
C4121 C 0.8621 0.3578 0.36169 0.0
C4122 C 0.77558 0.25442 0.34948 0.0
C4123 C 0.78276 0.26998 0.34918 0.0
C4124 C 0.81895 0.29989 0.32976 0.0
C4125 C 0.83651 0.33738 0.35931 0.0
C4126 C 0.8251 0.3235 0.34771 0.0
C4127 C 0.79319 0.27812 0.33138 0.0
C4128 C 0.80374 0.29428 0.3343 0.0
H4129 H 0.84352 0.35375 0.41336 0.0
H4130 H 0.82358 0.33376 0.39126 0.0
H4131 H 0.84112 0.31778 0.33408 0.0
H4132 H 0.79087 0.24936 0.29951 0.0
H4133 H 0.80276 0.27625 0.29841 0.0
C4134 C 0.73844 0.53229 0.32095 0.0
C4135 C 0.74858 0.53041 0.33488 0.0
C4136 C 0.72325 0.52246 0.32281 0.0
C4137 C 0.69804 0.50088 0.36956 0.0
H4138 H 0.6684 0.4954 0.32276 0.0
C4139 C 0.64014 0.48697 0.39885 0.0
C4140 C 0.63503 0.49612 0.38921 0.0
C4141 C 0.65184 0.48616 0.38846 0.0
C4142 C 0.67654 0.4968 0.33599 0.0
H4143 H 0.7509 0.51585 0.35976 0.0
H4144 H 0.72414 0.4985 0.36308 0.0
H4145 H 0.69333 0.5015 0.31 0.0
H4146 H 0.63795 0.51111 0.36041 0.0
H4147 H 0.659 0.51024 0.34281 0.0
H4148 H 0.68166 0.49696 0.39558 0.0
C4149 C 0.72801 0.50778 0.35098 0.0
C4150 C 0.69078 0.50022 0.32871 0.0
C4151 C 0.74332 0.51769 0.3491 0.0
C4152 C 0.64171 0.50411 0.36845 0.0
C4153 C 0.65361 0.50342 0.35816 0.0
C4154 C 0.68385 0.49741 0.37679 0.0
C4155 C 0.7178 0.5105 0.33871 0.0
C4156 C 0.70186 0.50292 0.3455 0.0
C4157 C 0.65902 0.4947 0.36843 0.0
C4158 C 0.67311 0.49587 0.36016 0.0
H4159 H 0.74215 0.54187 0.3095 0.0
H4160 H 0.71578 0.52499 0.31315 0.0
H4161 H 0.70631 0.50311 0.38302 0.0
H4162 H 0.63553 0.48084 0.41506 0.0
H4163 H 0.65563 0.47921 0.39665 0.0
C4164 C 0.46125 0.20526 0.31449 0.0
C4165 C 0.46205 0.21461 0.33306 0.0
C4166 C 0.47004 0.19864 0.31462 0.0
C4167 C 0.49959 0.19537 0.34646 0.0
H4168 H 0.47196 0.15326 0.33787 0.0
C4169 C 0.50401 0.14963 0.39582 0.0
C4170 C 0.49715 0.13518 0.38646 0.0
C4171 C 0.50393 0.16114 0.38324 0.0
C4172 C 0.48007 0.16496 0.33971 0.0
H4173 H 0.47353 0.22523 0.36552 0.0
H4174 H 0.48853 0.21307 0.36635 0.0
H4175 H 0.46464 0.17104 0.32666 0.0
H4176 H 0.48614 0.12164 0.35582 0.0
H4177 H 0.48636 0.14185 0.33337 0.0
H4178 H 0.51483 0.18906 0.36039 0.0
C4179 C 0.48133 0.21118 0.35133 0.0
C4180 C 0.47582 0.17523 0.33331 0.0
C4181 C 0.47267 0.21808 0.35096 0.0
C4182 C 0.49123 0.13265 0.36355 0.0
C4183 C 0.49136 0.14422 0.35078 0.0
C4184 C 0.50392 0.18504 0.35275 0.0
C4185 C 0.47953 0.20084 0.33371 0.0
C4186 C 0.48534 0.19051 0.33718 0.0
C4187 C 0.4971 0.15845 0.36092 0.0
C4188 C 0.494 0.16967 0.35012 0.0
H4189 H 0.45322 0.20236 0.30036 0.0
H4190 H 0.46866 0.19101 0.3005 0.0
H4191 H 0.50721 0.20709 0.34944 0.0
H4192 H 0.50862 0.15186 0.41351 0.0
H4193 H 0.50832 0.17185 0.39179 0.0
C4194 C 0.68635 0.50777 0.78247 0.0
C4195 C 0.6906 0.52218 0.79054 0.0
C4196 C 0.67488 0.4953 0.79351 0.0
C4197 C 0.64919 0.48238 0.84513 0.0
H4198 H 0.61995 0.45823 0.79788 0.0
C4199 C 0.58734 0.45841 0.85755 0.0
C4200 C 0.57697 0.44592 0.84468 0.0
C4201 C 0.60248 0.46343 0.85587 0.0
C4202 C 0.62805 0.46447 0.81146 0.0
H4203 H 0.68692 0.53467 0.81777 0.0
H4204 H 0.66649 0.51291 0.83654 0.0
H4205 H 0.64512 0.47571 0.78579 0.0
H4206 H 0.57425 0.42807 0.82162 0.0
H4207 H 0.60093 0.43686 0.81869 0.0
H4208 H 0.63178 0.47158 0.87066 0.0
C4209 C 0.67216 0.51125 0.82182 0.0
C4210 C 0.64254 0.47459 0.80449 0.0
C4211 C 0.68372 0.52375 0.81084 0.0
C4212 C 0.582 0.43785 0.83149 0.0
C4213 C 0.59726 0.44289 0.82983 0.0
C4214 C 0.63467 0.47218 0.85214 0.0
C4215 C 0.66728 0.49692 0.81275 0.0
C4216 C 0.65309 0.48411 0.82109 0.0
C4217 C 0.60769 0.45608 0.84128 0.0
C4218 C 0.62376 0.46363 0.83521 0.0
H4219 H 0.69129 0.50608 0.76678 0.0
H4220 H 0.6715 0.4844 0.7863 0.0
H4221 H 0.65716 0.48938 0.85837 0.0
H4222 H 0.58384 0.46482 0.86812 0.0
H4223 H 0.61011 0.47368 0.86479 0.0
C4224 C 0.48117 0.17259 0.78654 0.0
C4225 C 0.46655 0.16544 0.79521 0.0
C4226 C 0.49258 0.17283 0.79982 0.0
C4227 C 0.49629 0.14923 0.84371 0.0
H4228 H 0.53837 0.17708 0.83526 0.0
C4229 C 0.5368 0.13044 0.86681 0.0
C4230 C 0.54622 0.13184 0.848 0.0
C4231 C 0.53014 0.13917 0.8677 0.0
C4232 C 0.52666 0.16927 0.83791 0.0
H4233 H 0.45256 0.15418 0.82532 0.0
H4234 H 0.47261 0.15487 0.84896 0.0
H4235 H 0.52011 0.18437 0.82422 0.0
H4236 H 0.55716 0.14435 0.81647 0.0
H4237 H 0.54491 0.15929 0.81736 0.0
H4238 H 0.5026 0.1339 0.85635 0.0
C4239 C 0.47519 0.15992 0.83158 0.0
C4240 C 0.51621 0.17341 0.83159 0.0
C4241 C 0.46371 0.15949 0.81811 0.0
C4242 C 0.54989 0.14304 0.83112 0.0
C4243 C 0.54294 0.15164 0.83174 0.0
C4244 C 0.50668 0.14515 0.85014 0.0
C4245 C 0.48963 0.16602 0.82216 0.0
C4246 C 0.50087 0.16321 0.83361 0.0
C4247 C 0.53242 0.14922 0.84943 0.0
C4248 C 0.52196 0.15492 0.8466 0.0
H4249 H 0.48364 0.17723 0.76886 0.0
H4250 H 0.50347 0.17746 0.79181 0.0
H4251 H 0.48463 0.14093 0.84513 0.0
H4252 H 0.53402 0.12208 0.88038 0.0
H4253 H 0.52243 0.13735 0.88193 0.0
C4254 C 0.85459 0.40905 0.82797 0.0
C4255 C 0.8646 0.41609 0.84664 0.0
C4256 C 0.84646 0.39348 0.82672 0.0
C4257 C 0.82914 0.35934 0.82966 0.0
H4258 H 0.85729 0.34574 0.84052 0.0
C4259 C 0.83785 0.30494 0.81529 0.0
C4260 C 0.83221 0.3013 0.79223 0.0
C4261 C 0.83815 0.31693 0.82706 0.0
C4262 C 0.84907 0.34913 0.83796 0.0
H4263 H 0.87279 0.41248 0.87984 0.0
H4264 H 0.85817 0.3856 0.87824 0.0
H4265 H 0.8636 0.37055 0.8523 0.0
H4266 H 0.82219 0.30711 0.76354 0.0
H4267 H 0.82308 0.32815 0.78366 0.0
H4268 H 0.81482 0.3379 0.8145 0.0
C4269 C 0.85693 0.39196 0.86414 0.0
C4270 C 0.85272 0.36344 0.84471 0.0
C4271 C 0.86523 0.40739 0.86513 0.0
C4272 C 0.82647 0.30956 0.78144 0.0
C4273 C 0.82688 0.32158 0.79306 0.0
C4274 C 0.82543 0.3449 0.82299 0.0
C4275 C 0.84815 0.38482 0.84428 0.0
C4276 C 0.84297 0.36886 0.84014 0.0
C4277 C 0.833 0.32562 0.81584 0.0
C4278 C 0.83556 0.3398 0.82647 0.0
H4279 H 0.8539 0.41548 0.81346 0.0
H4280 H 0.83979 0.38831 0.81114 0.0
H4281 H 0.82136 0.36316 0.82611 0.0
H4282 H 0.84213 0.2986 0.82412 0.0
H4283 H 0.84272 0.31959 0.84476 0.0
C4284 C 0.5556 0.40865 0.33412 0.0
C4285 C 0.54689 0.41424 0.34363 0.0
C4286 C 0.55027 0.3933 0.33405 0.0
C4287 C 0.51937 0.35689 0.35608 0.0
H4288 H 0.51866 0.34439 0.29137 0.0
C4289 C 0.46872 0.30805 0.31345 0.0
C4290 C 0.47052 0.3009 0.29369 0.0
C4291 C 0.48111 0.31928 0.32514 0.0
C4292 C 0.51899 0.34749 0.30973 0.0
H4293 H 0.52642 0.40833 0.36237 0.0
H4294 H 0.5171 0.38187 0.3618 0.0
H4295 H 0.53613 0.36972 0.30262 0.0
H4296 H 0.48697 0.2993 0.27199 0.0
H4297 H 0.50835 0.31825 0.29302 0.0
H4298 H 0.50153 0.33479 0.36273 0.0
C4299 C 0.52804 0.38915 0.3545 0.0
C4300 C 0.52909 0.36209 0.31619 0.0
C4301 C 0.53331 0.40437 0.3545 0.0
C4302 C 0.48501 0.30442 0.28718 0.0
C4303 C 0.49736 0.31547 0.29908 0.0
C4304 C 0.50926 0.34224 0.34961 0.0
C4305 C 0.53621 0.38338 0.34361 0.0
C4306 C 0.52886 0.36716 0.3391 0.0
C4307 C 0.49558 0.32351 0.31748 0.0
C4308 C 0.50847 0.33759 0.32605 0.0
H4309 H 0.56622 0.41604 0.32595 0.0
H4310 H 0.55686 0.38916 0.32571 0.0
H4311 H 0.51914 0.36044 0.374 0.0
H4312 H 0.45774 0.30538 0.31936 0.0
H4313 H 0.47929 0.32527 0.33921 0.0
C4314 C 0.68825 0.15699 0.31781 0.0
C4315 C 0.69172 0.16332 0.29517 0.0
C4316 C 0.67676 0.15689 0.3308 0.0
C4317 C 0.64894 0.16996 0.33051 0.0
H4318 H 0.62301 0.13019 0.3543 0.0
C4319 C 0.58472 0.1401 0.3319 0.0
C4320 C 0.57728 0.12898 0.34898 0.0
C4321 C 0.6003 0.14837 0.33174 0.0
C4322 C 0.63018 0.14149 0.34832 0.0
H4323 H 0.68651 0.17521 0.26882 0.0
H4324 H 0.66625 0.1746 0.29099 0.0
H4325 H 0.64807 0.13737 0.34297 0.0
H4326 H 0.58018 0.11892 0.38068 0.0
H4327 H 0.60705 0.13366 0.38091 0.0
H4328 H 0.63045 0.1736 0.33466 0.0
C4329 C 0.67253 0.17004 0.29913 0.0
C4330 C 0.64466 0.14565 0.34184 0.0
C4331 C 0.68411 0.1703 0.28631 0.0
C4332 C 0.58557 0.12728 0.36708 0.0
C4333 C 0.60101 0.13568 0.36717 0.0
C4334 C 0.63433 0.16574 0.33691 0.0
C4335 C 0.66837 0.16288 0.32118 0.0
C4336 C 0.65411 0.15977 0.33221 0.0
C4337 C 0.60858 0.14571 0.34879 0.0
C4338 C 0.62469 0.15132 0.34534 0.0
H4339 H 0.69416 0.1518 0.3252 0.0
H4340 H 0.67406 0.15158 0.34798 0.0
H4341 H 0.65601 0.18102 0.32348 0.0
H4342 H 0.57862 0.14164 0.31772 0.0
H4343 H 0.60582 0.15601 0.31727 0.0
C4344 C 0.84944 0.44138 0.32972 0.0
C4345 C 0.85969 0.44432 0.348 0.0
C4346 C 0.84125 0.44876 0.32915 0.0
C4347 C 0.84816 0.48512 0.34702 0.0
H4348 H 0.80943 0.47286 0.32002 0.0
C4349 C 0.83492 0.52933 0.31635 0.0
C4350 C 0.82873 0.52685 0.29364 0.0
C4351 C 0.83454 0.51763 0.32911 0.0
C4352 C 0.82028 0.47645 0.32761 0.0
H4353 H 0.86814 0.45586 0.38135 0.0
H4354 H 0.85363 0.46826 0.38065 0.0
H4355 H 0.81595 0.45403 0.33113 0.0
H4356 H 0.81664 0.51016 0.26686 0.0
H4357 H 0.81648 0.48994 0.28853 0.0
H4358 H 0.85306 0.50742 0.34217 0.0
C4359 C 0.8522 0.46067 0.36642 0.0
C4360 C 0.82397 0.46567 0.334 0.0
C4361 C 0.86047 0.45351 0.36682 0.0
C4362 C 0.82145 0.51236 0.28442 0.0
C4363 C 0.82127 0.50072 0.29697 0.0
C4364 C 0.84456 0.49585 0.34045 0.0
C4365 C 0.84317 0.45906 0.34694 0.0
C4366 C 0.83808 0.46994 0.34329 0.0
C4367 C 0.82824 0.5033 0.31915 0.0
C4368 C 0.83074 0.4917 0.33005 0.0
H4369 H 0.84864 0.43436 0.31497 0.0
H4370 H 0.83438 0.44733 0.31386 0.0
H4371 H 0.85924 0.48883 0.35372 0.0
H4372 H 0.84036 0.54038 0.32399 0.0
H4373 H 0.8397 0.51994 0.34639 0.0
C4374 C 0.63884 0.15061 0.89869 0.0
C4375 C 0.63364 0.13645 0.8886 0.0
C4376 C 0.65059 0.16322 0.88859 0.0
C4377 C 0.67562 0.17767 0.83641 0.0
H4378 H 0.70489 0.20117 0.88407 0.0
C4379 C 0.73773 0.20425 0.82375 0.0
C4380 C 0.74763 0.21661 0.83731 0.0
C4381 C 0.72249 0.19872 0.8251 0.0
C4382 C 0.69674 0.1951 0.87045 0.0
H4383 H 0.63654 0.12468 0.8593 0.0
H4384 H 0.65775 0.14672 0.84234 0.0
H4385 H 0.6802 0.18246 0.89611 0.0
H4386 H 0.74951 0.23387 0.86096 0.0
H4387 H 0.72262 0.22406 0.86355 0.0
H4388 H 0.69267 0.18988 0.81082 0.0
C4389 C 0.65235 0.14803 0.85778 0.0
C4390 C 0.68253 0.18426 0.87737 0.0
C4391 C 0.64035 0.13535 0.86772 0.0
C4392 C 0.74209 0.22419 0.8506 0.0
C4393 C 0.72673 0.21858 0.85206 0.0
C4394 C 0.68991 0.18856 0.82945 0.0
C4395 C 0.65781 0.16205 0.86848 0.0
C4396 C 0.67196 0.17506 0.86051 0.0
C4397 C 0.71677 0.20538 0.84013 0.0
C4398 C 0.70079 0.19696 0.84649 0.0
H4399 H 0.63426 0.15201 0.91504 0.0
H4400 H 0.65437 0.17387 0.8971 0.0
H4401 H 0.66763 0.17095 0.82299 0.0
H4402 H 0.74169 0.19835 0.8129 0.0
H4403 H 0.71519 0.18852 0.81574 0.0
C4404 C 0.76841 0.51577 0.85099 0.0
C4405 C 0.77597 0.52852 0.83685 0.0
C4406 C 0.77379 0.50585 0.85311 0.0
C4407 C 0.80334 0.49809 0.83093 0.0
H4408 H 0.8084 0.49354 0.89768 0.0
C4409 C 0.85617 0.50287 0.87164 0.0
C4410 C 0.85498 0.49477 0.89222 0.0
C4411 C 0.84344 0.50158 0.86093 0.0
C4412 C 0.80686 0.49434 0.87891 0.0
H4413 H 0.79418 0.54011 0.81206 0.0
H4414 H 0.80361 0.52321 0.81607 0.0
H4415 H 0.79021 0.50019 0.88523 0.0
H4416 H 0.83933 0.47837 0.91694 0.0
H4417 H 0.81729 0.4759 0.89794 0.0
H4418 H 0.82085 0.49322 0.82493 0.0
C4419 C 0.79352 0.52064 0.82547 0.0
C4420 C 0.79633 0.49811 0.87173 0.0
C4421 C 0.78819 0.53049 0.82337 0.0
C4422 C 0.84073 0.48471 0.901 0.0
C4423 C 0.82805 0.48337 0.89024 0.0
C4424 C 0.81396 0.4944 0.83815 0.0
C4425 C 0.7868 0.50856 0.84113 0.0
C4426 C 0.79489 0.50067 0.84775 0.0
C4427 C 0.82928 0.49216 0.8706 0.0
C4428 C 0.81621 0.49306 0.8623 0.0
H4429 H 0.75885 0.51387 0.86135 0.0
H4430 H 0.76821 0.49649 0.86504 0.0
H4431 H 0.8023 0.49972 0.81227 0.0
H4432 H 0.86695 0.51052 0.86421 0.0
H4433 H 0.84477 0.50859 0.84589 0.0
C4434 C 0.49105 0.35284 0.87045 0.0
C4435 C 0.49909 0.35978 0.89106 0.0
C4436 C 0.49205 0.3411 0.86025 0.0
C4437 C 0.49817 0.31121 0.87936 0.0
H4438 H 0.49405 0.30141 0.81267 0.0
C4439 C 0.47702 0.25132 0.85158 0.0
C4440 C 0.46456 0.2462 0.83678 0.0
C4441 C 0.48692 0.2666 0.85396 0.0
C4442 C 0.49531 0.30403 0.83136 0.0
H4443 H 0.51501 0.36021 0.91649 0.0
H4444 H 0.51693 0.34006 0.89843 0.0
H4445 H 0.50059 0.32652 0.82508 0.0
H4446 H 0.45354 0.25292 0.81104 0.0
H4447 H 0.47044 0.27925 0.81544 0.0
H4448 H 0.49192 0.28861 0.8859 0.0
C4449 C 0.50977 0.34359 0.89027 0.0
C4450 C 0.49902 0.31838 0.83843 0.0
C4451 C 0.50875 0.35526 0.90048 0.0
C4452 C 0.46292 0.2565 0.82288 0.0
C4453 C 0.47276 0.27168 0.82521 0.0
C4454 C 0.49436 0.29687 0.87233 0.0
C4455 C 0.50109 0.33608 0.87051 0.0
C4456 C 0.49996 0.32194 0.86255 0.0
C4457 C 0.48449 0.27696 0.84155 0.0
C4458 C 0.49228 0.29293 0.84829 0.0
H4459 H 0.48368 0.35619 0.86259 0.0
H4460 H 0.48513 0.33545 0.84511 0.0
H4461 H 0.49865 0.31354 0.89811 0.0
H4462 H 0.47867 0.24361 0.86229 0.0
H4463 H 0.49602 0.27033 0.86641 0.0
C4464 C 0.52679 0.69154 0.69657 0.0
C4465 C 0.52491 0.69492 0.71985 0.0
C4466 C 0.51485 0.68016 0.6843 0.0
C4467 C 0.47398 0.65251 0.68836 0.0
H4468 H 0.4865 0.62645 0.66064 0.0
C4469 C 0.44007 0.58833 0.6885 0.0
C4470 C 0.443 0.5809 0.67044 0.0
C4471 C 0.44709 0.60389 0.68833 0.0
C4472 C 0.48271 0.63367 0.66774 0.0
H4473 H 0.50897 0.6896 0.7482 0.0
H4474 H 0.48836 0.66953 0.72725 0.0
H4475 H 0.50494 0.65151 0.671 0.0
H4476 H 0.45409 0.58363 0.63678 0.0
H4477 H 0.46567 0.61047 0.63601 0.0
H4478 H 0.45169 0.63404 0.68638 0.0
C4479 C 0.49885 0.67582 0.71807 0.0
C4480 C 0.49336 0.64815 0.67366 0.0
C4481 C 0.51072 0.68729 0.73019 0.0
C4482 C 0.45175 0.58907 0.65112 0.0
C4483 C 0.45846 0.60447 0.6507 0.0
C4484 C 0.46327 0.6379 0.68256 0.0
C4485 C 0.50087 0.67178 0.69526 0.0
C4486 C 0.48921 0.65762 0.68471 0.0
C4487 C 0.45695 0.61211 0.66996 0.0
C4488 C 0.46759 0.62823 0.67274 0.0
H4489 H 0.53757 0.69747 0.68809 0.0
H4490 H 0.5167 0.67753 0.66655 0.0
H4491 H 0.4704 0.65962 0.69652 0.0
H4492 H 0.43337 0.58227 0.70361 0.0
H4493 H 0.44574 0.60948 0.70348 0.0
C4494 C 0.30835 0.83732 0.70121 0.0
C4495 C 0.30148 0.82884 0.72151 0.0
C4496 C 0.31971 0.83618 0.68993 0.0
C4497 C 0.3487 0.82787 0.7064 0.0
H4498 H 0.35977 0.83682 0.64051 0.0
C4499 C 0.40904 0.85116 0.67995 0.0
C4500 C 0.41433 0.86479 0.66819 0.0
C4501 C 0.39376 0.841 0.68083 0.0
C4502 C 0.35676 0.83414 0.65892 0.0
H4503 H 0.3008 0.81191 0.74505 0.0
H4504 H 0.31995 0.80951 0.7248 0.0
H4505 H 0.33449 0.82957 0.6529 0.0
H4506 H 0.40795 0.87788 0.64632 0.0
H4507 H 0.38158 0.86054 0.64837 0.0
H4508 H 0.37108 0.83334 0.71284 0.0
C4509 C 0.31678 0.81725 0.71787 0.0
C4510 C 0.34232 0.83005 0.66601 0.0
C4511 C 0.30562 0.81853 0.72932 0.0
C4512 C 0.40423 0.86757 0.65586 0.0
C4513 C 0.38905 0.85749 0.65675 0.0
C4514 C 0.36309 0.83197 0.69935 0.0
C4515 C 0.32437 0.82646 0.69864 0.0
C4516 C 0.33835 0.82752 0.69 0.0
C4517 C 0.38357 0.84436 0.67 0.0
C4518 C 0.3675 0.83586 0.67575 0.0
H4519 H 0.30526 0.84515 0.69444 0.0
H4520 H 0.3254 0.84352 0.67523 0.0
H4521 H 0.3461 0.82614 0.72507 0.0
H4522 H 0.41661 0.84864 0.68931 0.0
H4523 H 0.38986 0.83087 0.69095 0.0
C4524 C 0.16908 0.48089 0.72347 0.0
C4525 C 0.16219 0.46623 0.7149 0.0
C4526 C 0.16906 0.49214 0.71012 0.0
C4527 C 0.14506 0.49555 0.66712 0.0
H4528 H 0.17336 0.53766 0.67413 0.0
C4529 C 0.1263 0.53654 0.64625 0.0
C4530 C 0.12858 0.54637 0.6649 0.0
C4531 C 0.13463 0.52947 0.64471 0.0
C4532 C 0.1654 0.52594 0.6719 0.0
H4533 H 0.1509 0.45205 0.68494 0.0
H4534 H 0.1509 0.4718 0.66138 0.0
H4535 H 0.18069 0.51935 0.68456 0.0
H4536 H 0.14222 0.55759 0.69538 0.0
H4537 H 0.15652 0.54471 0.69333 0.0
H4538 H 0.12954 0.50191 0.65568 0.0
C4539 C 0.1561 0.47452 0.67864 0.0
C4540 C 0.16958 0.51546 0.67783 0.0
C4541 C 0.15603 0.46321 0.69212 0.0
C4542 C 0.14022 0.54999 0.6809 0.0
C4543 C 0.14845 0.54268 0.6796 0.0
C4544 C 0.14092 0.50597 0.66114 0.0
C4545 C 0.16215 0.489 0.68787 0.0
C4546 C 0.15924 0.50014 0.67639 0.0
C4547 C 0.14522 0.53181 0.6621 0.0
C4548 C 0.15085 0.52126 0.66423 0.0
H4549 H 0.17381 0.48356 0.74107 0.0
H4550 H 0.17361 0.50306 0.718 0.0
H4551 H 0.1367 0.48389 0.66615 0.0
H4552 H 0.11764 0.53383 0.63327 0.0
H4553 H 0.13219 0.52151 0.63062 0.0
C4554 C 0.25144 0.77618 0.16082 0.0
C4555 C 0.24415 0.77883 0.17948 0.0
C4556 C 0.26701 0.7837 0.16 0.0
C4557 C 0.3011 0.80079 0.1636 0.0
H4558 H 0.31411 0.84233 0.1754 0.0
C4559 C 0.35503 0.86434 0.15027 0.0
C4560 C 0.35878 0.86253 0.12718 0.0
C4561 C 0.34305 0.85251 0.16184 0.0
C4562 C 0.31089 0.83079 0.17259 0.0
H4563 H 0.24737 0.79016 0.21304 0.0
H4564 H 0.27426 0.80255 0.21216 0.0
H4565 H 0.28937 0.82347 0.18687 0.0
H4566 H 0.35311 0.84693 0.09818 0.0
H4567 H 0.33211 0.82655 0.11797 0.0
H4568 H 0.32262 0.80833 0.14852 0.0
C4569 C 0.26808 0.79512 0.19778 0.0
C4570 C 0.29662 0.81991 0.17916 0.0
C4571 C 0.25263 0.78788 0.19837 0.0
C4572 C 0.3506 0.8486 0.11612 0.0
C4573 C 0.33859 0.83686 0.12755 0.0
C4574 C 0.31549 0.81173 0.15713 0.0
C4575 C 0.27545 0.79383 0.17794 0.0
C4576 C 0.2914 0.80482 0.17421 0.0
C4577 C 0.33448 0.83873 0.15039 0.0
C4578 C 0.32038 0.8269 0.16091 0.0
H4579 H 0.24519 0.76928 0.14599 0.0
H4580 H 0.27237 0.78248 0.14442 0.0
H4581 H 0.29744 0.78925 0.15978 0.0
H4582 H 0.3613 0.8749 0.15929 0.0
H4583 H 0.34032 0.85426 0.17958 0.0
C4584 C 0.20187 0.46237 0.20051 0.0
C4585 C 0.21139 0.46391 0.18177 0.0
C4586 C 0.19532 0.47121 0.20162 0.0
C4587 C 0.19244 0.50185 0.17231 0.0
H4588 H 0.15028 0.47387 0.17889 0.0
C4589 C 0.14757 0.50593 0.1202 0.0
C4590 C 0.13288 0.49881 0.12861 0.0
C4591 C 0.15885 0.50604 0.13368 0.0
C4592 C 0.16199 0.48207 0.17765 0.0
H4593 H 0.22264 0.47679 0.15067 0.0
H4594 H 0.2106 0.49188 0.15192 0.0
H4595 H 0.16797 0.46651 0.19035 0.0
H4596 H 0.11867 0.48751 0.15848 0.0
H4597 H 0.13848 0.48801 0.18248 0.0
H4598 H 0.18622 0.51719 0.15851 0.0
C4599 C 0.20845 0.48405 0.16608 0.0
C4600 C 0.17221 0.47781 0.18423 0.0
C4601 C 0.21527 0.47534 0.16524 0.0
C4602 C 0.12987 0.49281 0.15147 0.0
C4603 C 0.14122 0.49311 0.16514 0.0
C4604 C 0.18215 0.50618 0.16582 0.0
C4605 C 0.19782 0.48152 0.18365 0.0
C4606 C 0.18753 0.48743 0.1809 0.0
C4607 C 0.15571 0.49912 0.15597 0.0
C4608 C 0.16677 0.49611 0.16759 0.0
H4609 H 0.19896 0.45385 0.21384 0.0
H4610 H 0.18754 0.4693 0.21578 0.0
H4611 H 0.20419 0.50958 0.16983 0.0
H4612 H 0.15017 0.51062 0.10257 0.0
H4613 H 0.16979 0.51062 0.12586 0.0
C4614 C 0.52509 0.73944 0.191 0.0
C4615 C 0.52489 0.74971 0.17505 0.0
C4616 C 0.51565 0.72425 0.18789 0.0
C4617 C 0.49899 0.69929 0.13787 0.0
H4618 H 0.48905 0.66925 0.18621 0.0
C4619 C 0.48403 0.64031 0.11275 0.0
C4620 C 0.49322 0.63564 0.12349 0.0
C4621 C 0.48309 0.65227 0.12188 0.0
C4622 C 0.49168 0.67752 0.17256 0.0
H4623 H 0.51353 0.75221 0.14482 0.0
H4624 H 0.49679 0.72549 0.13943 0.0
H4625 H 0.49441 0.6942 0.19751 0.0
H4626 H 0.50792 0.63927 0.15308 0.0
H4627 H 0.50645 0.66045 0.16892 0.0
H4628 H 0.49664 0.68278 0.11304 0.0
C4629 C 0.50452 0.72924 0.15411 0.0
C4630 C 0.49475 0.69179 0.17898 0.0
C4631 C 0.51403 0.74454 0.15725 0.0
C4632 C 0.50087 0.64272 0.1443 0.0
C4633 C 0.49989 0.65471 0.15351 0.0
C4634 C 0.49573 0.68502 0.13148 0.0
C4635 C 0.50579 0.71891 0.16867 0.0
C4636 C 0.499 0.70301 0.16177 0.0
C4637 C 0.49134 0.65985 0.14192 0.0
C4638 C 0.49251 0.67414 0.1488 0.0
H4639 H 0.53324 0.74306 0.20507 0.0
H4640 H 0.51706 0.71674 0.19946 0.0
H4641 H 0.50249 0.70764 0.12414 0.0
H4642 H 0.47812 0.63526 0.09652 0.0
H4643 H 0.47637 0.65597 0.1127 0.0
C4644 C 0.13478 0.64349 0.64549 0.0
C4645 C 0.13581 0.63723 0.62405 0.0
C4646 C 0.14744 0.65556 0.6554 0.0
C4647 C 0.18308 0.68664 0.63583 0.0
H4648 H 0.19075 0.69464 0.7028 0.0
C4649 C 0.2249 0.74492 0.66435 0.0
C4650 C 0.21828 0.75046 0.67985 0.0
C4651 C 0.21893 0.72955 0.66194 0.0
C4652 C 0.18883 0.6925 0.68402 0.0
H4653 H 0.1511 0.63878 0.5964 0.0
H4654 H 0.17294 0.65909 0.61413 0.0
H4655 H 0.17112 0.67012 0.68964 0.0
H4656 H 0.20151 0.74442 0.70712 0.0
H4657 H 0.19106 0.71792 0.70265 0.0
H4658 H 0.20007 0.70905 0.63002 0.0
C4659 C 0.1624 0.65487 0.62318 0.0
C4660 C 0.17755 0.67851 0.67653 0.0
C4661 C 0.14983 0.64303 0.61318 0.0
C4662 C 0.20671 0.74049 0.69468 0.0
C4663 C 0.20079 0.72523 0.6923 0.0
C4664 C 0.19428 0.70055 0.64328 0.0
C4665 C 0.16132 0.66155 0.64404 0.0
C4666 C 0.17431 0.67559 0.65235 0.0
C4667 C 0.20626 0.71956 0.67495 0.0
C4668 C 0.19699 0.70382 0.66747 0.0
H4669 H 0.12421 0.63921 0.65443 0.0
H4670 H 0.14623 0.66056 0.67143 0.0
H4671 H 0.18075 0.68488 0.61708 0.0
H4672 H 0.23398 0.75235 0.65296 0.0
H4673 H 0.22359 0.72549 0.64875 0.0
C4674 C 0.25276 0.46231 0.69974 0.0
C4675 C 0.24501 0.46425 0.68098 0.0
C4676 C 0.26821 0.47018 0.70036 0.0
C4677 C 0.30247 0.49905 0.67067 0.0
H4678 H 0.31421 0.46915 0.67707 0.0
C4679 C 0.35119 0.5015 0.62036 0.0
C4680 C 0.35904 0.49489 0.62972 0.0
C4681 C 0.33946 0.50114 0.6328 0.0
C4682 C 0.31133 0.47781 0.67584 0.0
H4683 H 0.24729 0.47691 0.64929 0.0
H4684 H 0.27451 0.49043 0.6499 0.0
H4685 H 0.28939 0.4632 0.68825 0.0
H4686 H 0.3612 0.4833 0.65993 0.0
H4687 H 0.34058 0.48266 0.6819 0.0
H4688 H 0.32439 0.51348 0.65735 0.0
C4689 C 0.26857 0.48297 0.66437 0.0
C4690 C 0.29703 0.47439 0.68223 0.0
C4691 C 0.25299 0.4752 0.66393 0.0
C4692 C 0.3552 0.4883 0.65218 0.0
C4693 C 0.34345 0.48799 0.66474 0.0
C4694 C 0.31688 0.50253 0.6644 0.0
C4695 C 0.27629 0.47994 0.68197 0.0
C4696 C 0.29227 0.48479 0.67903 0.0
C4697 C 0.33525 0.49414 0.65494 0.0
C4698 C 0.32128 0.49174 0.6661 0.0
H4699 H 0.24691 0.45411 0.71339 0.0
H4700 H 0.27383 0.46791 0.71449 0.0
H4701 H 0.29916 0.50734 0.6683 0.0
H4702 H 0.35371 0.50646 0.60291 0.0
H4703 H 0.33322 0.50568 0.62442 0.0
C4704 C 0.5266 0.78626 0.70186 0.0
C4705 C 0.5262 0.77737 0.68284 0.0
C4706 C 0.51786 0.79292 0.70172 0.0
C4707 C 0.48944 0.79748 0.66879 0.0
H4708 H 0.51788 0.8393 0.67825 0.0
C4709 C 0.487 0.84412 0.61893 0.0
C4710 C 0.49407 0.85857 0.62831 0.0
C4711 C 0.48672 0.83247 0.63159 0.0
C4712 C 0.50954 0.8277 0.67616 0.0
H4713 H 0.51537 0.76746 0.64964 0.0
H4714 H 0.50043 0.77969 0.64885 0.0
H4715 H 0.52427 0.82091 0.68997 0.0
H4716 H 0.50519 0.87201 0.65897 0.0
H4717 H 0.5043 0.85154 0.68161 0.0
H4718 H 0.47489 0.80447 0.65421 0.0
C4719 C 0.50729 0.78119 0.66418 0.0
C4720 C 0.51326 0.81708 0.68286 0.0
C4721 C 0.5159 0.77424 0.66456 0.0
C4722 C 0.49992 0.86099 0.65125 0.0
C4723 C 0.49941 0.84927 0.66412 0.0
C4724 C 0.48563 0.80816 0.66227 0.0
C4725 C 0.50882 0.79122 0.6822 0.0
C4726 C 0.50346 0.80189 0.67864 0.0
C4727 C 0.49336 0.83499 0.65404 0.0
C4728 C 0.49587 0.82344 0.66515 0.0
H4729 H 0.53439 0.78887 0.71629 0.0
H4730 H 0.51901 0.8003 0.71611 0.0
H4731 H 0.48163 0.78584 0.66553 0.0
H4732 H 0.48245 0.84198 0.6012 0.0
H4733 H 0.48213 0.82173 0.62306 0.0
C4734 C 0.30628 0.48568 0.22781 0.0
C4735 C 0.30161 0.47147 0.21831 0.0
C4736 C 0.3178 0.49836 0.21742 0.0
C4737 C 0.34325 0.51265 0.16568 0.0
H4738 H 0.37237 0.53581 0.21371 0.0
C4739 C 0.40502 0.53703 0.15384 0.0
C4740 C 0.41524 0.54914 0.16754 0.0
C4741 C 0.3899 0.53213 0.15508 0.0
C4742 C 0.36429 0.52986 0.19996 0.0
H4743 H 0.30494 0.45968 0.1895 0.0
H4744 H 0.32569 0.48184 0.17205 0.0
H4745 H 0.34737 0.51771 0.22538 0.0
H4746 H 0.41782 0.56653 0.19153 0.0
H4747 H 0.39116 0.55791 0.19376 0.0
H4748 H 0.36059 0.52436 0.14035 0.0
C4749 C 0.32013 0.48313 0.18727 0.0
C4750 C 0.34989 0.51938 0.20668 0.0
C4751 C 0.3084 0.47039 0.19751 0.0
C4752 C 0.41016 0.55704 0.18103 0.0
C4753 C 0.39492 0.55211 0.18228 0.0
C4754 C 0.35769 0.52322 0.15892 0.0
C4755 C 0.32522 0.4972 0.19756 0.0
C4756 C 0.33939 0.51022 0.18972 0.0
C4757 C 0.3846 0.5392 0.1701 0.0
C4758 C 0.36855 0.53143 0.17611 0.0
H4759 H 0.30158 0.48708 0.24402 0.0
H4760 H 0.32133 0.50905 0.2256 0.0
H4761 H 0.3353 0.50596 0.15218 0.0
H4762 H 0.40859 0.53079 0.14301 0.0
H4763 H 0.38233 0.5221 0.1456 0.0
C4764 C 0.51176 0.82437 0.22909 0.0
C4765 C 0.52618 0.83118 0.21958 0.0
C4766 C 0.50016 0.8242 0.21651 0.0
C4767 C 0.49522 0.84698 0.17238 0.0
H4768 H 0.45344 0.81852 0.1825 0.0
C4769 C 0.453 0.86351 0.14838 0.0
C4770 C 0.44391 0.86251 0.16748 0.0
C4771 C 0.46007 0.85514 0.14806 0.0
C4772 C 0.46506 0.8265 0.17939 0.0
H4773 H 0.53958 0.84219 0.18882 0.0
H4774 H 0.51919 0.84173 0.16647 0.0
H4775 H 0.47228 0.81198 0.19332 0.0
H4776 H 0.43402 0.85101 0.20023 0.0
H4777 H 0.44687 0.83665 0.20015 0.0
H4778 H 0.4882 0.86169 0.15932 0.0
C4779 C 0.51693 0.83681 0.18393 0.0
C4780 C 0.47585 0.82279 0.18561 0.0
C4781 C 0.52861 0.83711 0.19668 0.0
C4782 C 0.44098 0.852 0.1853 0.0
C4783 C 0.44829 0.84373 0.18517 0.0
C4784 C 0.48449 0.85061 0.16602 0.0
C4785 C 0.50268 0.8308 0.19404 0.0
C4786 C 0.49109 0.83322 0.18296 0.0
C4787 C 0.45849 0.84583 0.16711 0.0
C4788 C 0.46932 0.84062 0.17012 0.0
H4789 H 0.50958 0.81981 0.24682 0.0
H4790 H 0.48945 0.8197 0.22508 0.0
H4791 H 0.5068 0.85541 0.17046 0.0
H4792 H 0.45535 0.87139 0.13419 0.0
H4793 H 0.46757 0.85672 0.13362 0.0
C4794 C 0.17328 0.68597 0.23626 0.0
C4795 C 0.1641 0.69082 0.22598 0.0
C4796 C 0.17415 0.67409 0.22659 0.0
C4797 C 0.16423 0.64899 0.17475 0.0
H4798 H 0.15551 0.61888 0.2224 0.0
C4799 C 0.12862 0.58717 0.15729 0.0
C4800 C 0.12977 0.57672 0.17158 0.0
C4801 C 0.13831 0.60233 0.16029 0.0
C4802 C 0.1584 0.62723 0.20881 0.0
H4803 H 0.1494 0.68758 0.19656 0.0
H4804 H 0.15062 0.6665 0.17995 0.0
H4805 H 0.16219 0.64384 0.23446 0.0
H4806 H 0.14285 0.57392 0.19876 0.0
H4807 H 0.15997 0.60061 0.20404 0.0
H4808 H 0.15983 0.63214 0.14907 0.0
C4809 C 0.15727 0.67204 0.1954 0.0
C4810 C 0.16217 0.64158 0.21576 0.0
C4811 C 0.1564 0.68397 0.20508 0.0
C4812 C 0.14162 0.58172 0.18764 0.0
C4813 C 0.15137 0.59699 0.1907 0.0
C4814 C 0.16056 0.63463 0.16778 0.0
C4815 C 0.16582 0.6667 0.20647 0.0
C4816 C 0.16457 0.65246 0.19882 0.0
C4817 C 0.14939 0.60747 0.17775 0.0
C4818 C 0.15698 0.62341 0.18474 0.0
H4819 H 0.17927 0.69086 0.25251 0.0
H4820 H 0.18094 0.67031 0.23538 0.0
H4821 H 0.16627 0.65724 0.16132 0.0
H4822 H 0.11968 0.58371 0.14458 0.0
H4823 H 0.13631 0.60998 0.15008 0.0
C4824 C 0.14511 0.95209 0.30917 0.0
C4825 C 0.15336 0.9458 0.31802 0.0
C4826 C 0.1521 0.96543 0.29646 0.0
C4827 C 0.18455 0.98672 0.25815 0.0
H4828 H 0.17312 0.01691 0.26192 0.0
C4829 C 0.21361 0.04187 0.20428 0.0
C4830 C 0.20511 0.0484 0.19788 0.0
C4831 C 0.20732 0.02881 0.21782 0.0
C4832 C 0.17628 0.00847 0.26029 0.0
H4833 H 0.17539 0.94869 0.32129 0.0
H4834 H 0.18774 0.97217 0.29921 0.0
H4835 H 0.16288 0.99643 0.29003 0.0
H4836 H 0.1833 0.04615 0.19944 0.0
H4837 H 0.17203 0.02299 0.22199 0.0
H4838 H 0.19778 -0.00138 0.22818 0.0
C4839 C 0.17585 0.96677 0.30205 0.0
C4840 C 0.17047 0.99676 0.27659 0.0
C4841 C 0.16885 0.95348 0.31501 0.0
C4842 C 0.19 0.04118 0.2039 0.0
C4843 C 0.18366 0.02807 0.21721 0.0
C4844 C 0.1903 -0.00161 0.24172 0.0
C4845 C 0.16749 0.97268 0.29204 0.0
C4846 C 0.17447 0.98569 0.27569 0.0
C4847 C 0.19237 0.02202 0.22521 0.0
C4848 C 0.18617 0.00939 0.24245 0.0
H4849 H 0.13312 0.94621 0.31091 0.0
H4850 H 0.14529 0.96956 0.28889 0.0
H4851 H 0.18769 0.97825 0.25669 0.0
H4852 H 0.22539 0.04747 0.20033 0.0
H4853 H 0.21443 0.02461 0.22371 0.0
C4854 C 0.04208 0.19085 0.30782 0.0
C4855 C 0.04825 0.20496 0.31832 0.0
C4856 C 0.02895 0.18509 0.29468 0.0
C4857 C -0.00336 0.18979 0.27953 0.0
H4858 H -0.00207 0.17122 0.22076 0.0
C4859 C 0.95034 0.17184 0.20921 0.0
C4860 C 0.94493 0.15756 0.19972 0.0
C4861 C 0.96362 0.17868 0.22218 0.0
C4862 C -0.00268 0.17627 0.23715 0.0
H4863 H 0.04515 0.22379 0.32437 0.0
H4864 H 0.02207 0.21371 0.30145 0.0
H4865 H 0.01867 0.18024 0.2483 0.0
H4866 H 0.94916 0.13932 0.1958 0.0
H4867 H 0.97247 0.15125 0.21806 0.0
H4868 H 0.97522 0.18574 0.26834 0.0
C4869 C 0.02732 0.20702 0.30349 0.0
C4870 C 0.0092 0.1814 0.25305 0.0
C4871 C 0.04048 0.21278 0.31678 0.0
C4872 C 0.95334 0.1505 0.20244 0.0
C4873 C 0.96664 0.15734 0.21532 0.0
C4874 C 0.98472 0.18464 0.2636 0.0
C4875 C 0.0217 0.19334 0.29152 0.0
C4876 C 0.00898 0.18809 0.27459 0.0
C4877 C 0.97173 0.17132 0.22601 0.0
C4878 C 0.98484 0.17769 0.24226 0.0
H4879 H 0.0479 0.18464 0.30868 0.0
H4880 H 0.02476 0.17435 0.28628 0.0
H4881 H 0.99603 0.19479 0.29597 0.0
H4882 H 0.94384 0.17734 0.20777 0.0
H4883 H 0.96728 0.18952 0.22984 0.0
C4884 C 0.79817 0.84002 0.31939 0.0
C4885 C 0.78343 0.83666 0.31613 0.0
C4886 C 0.80382 0.83241 0.30642 0.0
C4887 C 0.79258 0.79954 0.26659 0.0
H4888 H 0.83265 0.82351 0.2425 0.0
C4889 C 0.82314 0.77404 0.21729 0.0
C4890 C 0.83389 0.78249 0.20022 0.0
C4891 C 0.81588 0.78009 0.22993 0.0
C4892 C 0.82136 0.81668 0.24875 0.0
H4893 H 0.76289 0.82251 0.29757 0.0
H4894 H 0.77259 0.8093 0.275 0.0
H4895 H 0.82255 0.83456 0.26928 0.0
H4896 H 0.84504 0.80364 0.18212 0.0
H4897 H 0.83197 0.8142 0.2037 0.0
H4898 H 0.79118 0.78183 0.24542 0.0
C4899 C 0.77985 0.81755 0.2877 0.0
C4900 C 0.81565 0.82296 0.26456 0.0
C4901 C 0.77423 0.8251 0.30067 0.0
C4902 C 0.83665 0.79686 0.195 0.0
C4903 C 0.82933 0.80295 0.20767 0.0
C4904 C 0.79824 0.79331 0.25065 0.0
C4905 C 0.79484 0.82137 0.28984 0.0
C4906 C 0.80118 0.81447 0.27379 0.0
C4907 C 0.81917 0.79479 0.22584 0.0
C4908 C 0.81275 0.80175 0.24156 0.0
H4909 H 0.80551 0.84905 0.33095 0.0
H4910 H 0.81534 0.83548 0.3089 0.0
H4911 H 0.78145 0.79257 0.27339 0.0
H4912 H 0.82099 0.763 0.22183 0.0
H4913 H 0.80831 0.77347 0.24387 0.0
C4914 C 0.84941 0.04326 0.71129 0.0
C4915 C 0.84148 0.04945 0.70084 0.0
C4916 C 0.84202 0.03009 0.7243 0.0
C4917 C 0.80493 -0.00223 0.73929 0.0
H4918 H 0.82487 -0.00123 0.79784 0.0
C4919 C 0.77651 0.95139 0.80952 0.0
C4920 C 0.78532 0.94583 0.81871 0.0
C4921 C 0.783 0.96469 0.7966 0.0
C4922 C 0.81917 -0.00177 0.78151 0.0
H4923 H 0.81956 0.04639 0.69479 0.0
H4924 H 0.80653 0.02324 0.71754 0.0
H4925 H 0.83662 0.01958 0.77048 0.0
H4926 H 0.80773 0.94982 0.82216 0.0
H4927 H 0.81919 0.97318 0.80005 0.0
H4928 H 0.78748 0.97636 0.75042 0.0
C4929 C 0.81847 0.02849 0.71552 0.0
C4930 C 0.82595 0.01016 0.76571 0.0
C4931 C 0.8259 0.04169 0.70235 0.0
C4932 C 0.80078 0.95412 0.81576 0.0
C4933 C 0.80729 0.96745 0.80296 0.0
C4934 C 0.79813 0.98581 0.75515 0.0
C4935 C 0.82651 0.02283 0.72742 0.0
C4936 C 0.81902 0.01005 0.74423 0.0
C4937 C 0.79844 0.97268 0.79257 0.0
C4938 C 0.80522 0.98583 0.7764 0.0
H4939 H 0.86144 0.04909 0.71047 0.0
H4940 H 0.84856 0.02587 0.73264 0.0
H4941 H 0.79929 0.99723 0.7229 0.0
H4942 H 0.76451 0.94499 0.8111 0.0
H4943 H 0.77586 0.96848 0.78915 0.0
C4944 C 0.04596 0.82666 0.79683 0.0
C4945 C 0.04838 0.83724 0.81435 0.0
C4946 C 0.03269 0.81973 0.78403 0.0
C4947 C 0.9937 0.81082 0.78253 0.0
H4948 H -0.00151 0.81057 0.71448 0.0
C4949 C 0.94397 0.7765 0.72136 0.0
C4950 C 0.94209 0.78402 0.70217 0.0
C4951 C 0.95729 0.78286 0.73403 0.0
C4952 C -0.00302 0.81062 0.73341 0.0
H4953 H 0.03853 0.84833 0.83306 0.0
H4954 H 0.01494 0.83586 0.81096 0.0
H4955 H 0.02042 0.82157 0.74014 0.0
H4956 H 0.95303 0.80366 0.68022 0.0
H4957 H 0.97671 0.81473 0.70213 0.0
H4958 H 0.97025 0.79972 0.77582 0.0
C4959 C 0.02343 0.833 0.8071 0.0
C4960 C 0.00952 0.8168 0.74815 0.0
C4961 C 0.03684 0.84005 0.81989 0.0
C4962 C 0.95423 0.79759 0.69481 0.0
C4963 C 0.96771 0.80395 0.70746 0.0
C4964 C 0.98115 0.80444 0.76783 0.0
C4965 C 0.02143 0.82315 0.78846 0.0
C4966 C 0.00803 0.8169 0.77291 0.0
C4967 C 0.96916 0.79687 0.72774 0.0
C4968 C 0.98263 0.80417 0.7431 0.0
H4969 H 0.05472 0.82433 0.79218 0.0
H4970 H 0.03139 0.81197 0.77018 0.0
H4971 H 0.99216 0.8107 0.80148 0.0
H4972 H 0.93482 0.76597 0.72733 0.0
H4973 H 0.95815 0.77697 0.74919 0.0
C4974 C 0.19624 0.15657 0.69572 0.0
C4975 C 0.21008 0.15836 0.70235 0.0
C4976 C 0.18999 0.16368 0.7086 0.0
C4977 C 0.19083 0.17765 0.7688 0.0
H4978 H 0.17093 0.19726 0.74155 0.0
C4979 C 0.15385 0.19546 0.82205 0.0
C4980 C 0.1554 0.20925 0.81584 0.0
C4981 C 0.16144 0.18969 0.80922 0.0
C4982 C 0.1765 0.19186 0.74944 0.0
H4983 H 0.22863 0.16968 0.72647 0.0
H4984 H 0.21786 0.18212 0.74865 0.0
H4985 H 0.18222 0.1868 0.71558 0.0
H4986 H 0.16668 0.22821 0.79251 0.0
H4987 H 0.17997 0.2183 0.77043 0.0
H4988 H 0.18506 0.18264 0.80266 0.0
C4989 C 0.21168 0.17508 0.7339 0.0
C4990 C 0.18285 0.18576 0.73453 0.0
C4991 C 0.21792 0.16809 0.72103 0.0
C4992 C 0.16532 0.21755 0.79765 0.0
C4993 C 0.17278 0.2118 0.78483 0.0
C4994 C 0.18431 0.18357 0.7837 0.0
C4995 C 0.19744 0.1726 0.72837 0.0
C4996 C 0.19024 0.17873 0.74403 0.0
C4997 C 0.17057 0.19759 0.7899 0.0
C4998 C 0.1772 0.19089 0.77422 0.0
H4999 H 0.18991 0.149 0.68158 0.0
H5000 H 0.179 0.16158 0.70387 0.0
H5001 H 0.19628 0.17212 0.77669 0.0
H5002 H 0.14612 0.18877 0.83578 0.0
H5003 H 0.15953 0.17872 0.81359 0.0
C5004 C 0.83125 0.27761 0.62816 0.0
C5005 C 0.82163 0.27588 0.6469 0.0
C5006 C 0.83876 0.29101 0.61582 0.0
C5007 C 0.85074 0.33092 0.61659 0.0
H5008 H 0.84719 0.32637 0.54836 0.0
C5009 C 0.88254 0.38091 0.55464 0.0
C5010 C 0.87421 0.38277 0.53675 0.0
C5011 C 0.87678 0.36755 0.56708 0.0
C5012 C 0.84824 0.32783 0.56735 0.0
H5013 H 0.81302 0.28708 0.6684 0.0
H5014 H 0.82648 0.31085 0.64703 0.0
H5015 H 0.83641 0.30434 0.5737 0.0
H5016 H 0.85366 0.37185 0.51693 0.0
H5017 H 0.84357 0.34816 0.53849 0.0
H5018 H 0.86256 0.35441 0.61024 0.0
C5019 C 0.82812 0.30173 0.64184 0.0
C5020 C 0.84219 0.31522 0.58189 0.0
C5021 C 0.8205 0.2882 0.65419 0.0
C5022 C 0.86036 0.37062 0.53045 0.0
C5023 C 0.85458 0.35714 0.5429 0.0
C5024 C 0.85696 0.34353 0.60204 0.0
C5025 C 0.83689 0.30308 0.62195 0.0
C5026 C 0.84338 0.31661 0.60668 0.0
C5027 C 0.86253 0.35565 0.56192 0.0
C5028 C 0.85581 0.34214 0.57723 0.0
H5029 H 0.83233 0.26827 0.62223 0.0
H5030 H 0.84568 0.29179 0.60095 0.0
H5031 H 0.85187 0.33237 0.63558 0.0
H5032 H 0.89325 0.39013 0.55983 0.0
H5033 H 0.88332 0.36668 0.58124 0.0
C5034 C 0.70716 0.54912 0.64388 0.0
C5035 C 0.71367 0.5406 0.65028 0.0
C5036 C 0.69384 0.5427 0.631 0.0
C5037 C 0.6619 0.50647 0.61151 0.0
H5038 H 0.66136 0.52888 0.55703 0.0
C5039 C 0.61802 0.47777 0.53923 0.0
C5040 C 0.61086 0.48528 0.53081 0.0
C5041 C 0.63107 0.48526 0.55255 0.0
C5042 C 0.66125 0.52252 0.57227 0.0
H5043 H 0.71131 0.51873 0.64895 0.0
H5044 H 0.68793 0.50738 0.62697 0.0
H5045 H 0.68197 0.54033 0.58512 0.0
H5046 H 0.61202 0.50662 0.52876 0.0
H5047 H 0.63491 0.51985 0.55207 0.0
H5048 H 0.64126 0.48867 0.59877 0.0
C5049 C 0.69294 0.51897 0.63198 0.0
C5050 C 0.67305 0.52911 0.58846 0.0
C5051 C 0.70629 0.52541 0.64468 0.0
C5052 C 0.61751 0.50066 0.53467 0.0
C5053 C 0.63056 0.50818 0.54817 0.0
C5054 C 0.65013 0.49991 0.59539 0.0
C5055 C 0.68677 0.52762 0.62432 0.0
C5056 C 0.67361 0.5211 0.60816 0.0
C5057 C 0.63718 0.50044 0.55807 0.0
C5058 C 0.64973 0.50774 0.57534 0.0
H5059 H 0.71285 0.56094 0.64757 0.0
H5060 H 0.68932 0.54966 0.62564 0.0
H5061 H 0.66182 0.50006 0.62666 0.0
H5062 H 0.61303 0.46588 0.53665 0.0
H5063 H 0.63605 0.47901 0.55931 0.0
C5064 C 0.46838 0.18065 0.64382 0.0
C5065 C 0.45334 0.17291 0.65039 0.0
C5066 C 0.47456 0.17352 0.63106 0.0
C5067 C 0.46351 0.14279 0.58879 0.0
H5068 H 0.50392 0.15102 0.59774 0.0
C5069 C 0.48983 0.11371 0.53515 0.0
C5070 C 0.5052 0.12187 0.53094 0.0
C5071 C 0.48288 0.11988 0.54855 0.0
C5072 C 0.49269 0.14878 0.59469 0.0
H5073 H 0.43303 0.15164 0.64936 0.0
H5074 H 0.44385 0.13902 0.62725 0.0
H5075 H 0.49327 0.16096 0.6256 0.0
H5076 H 0.52521 0.14305 0.5361 0.0
H5077 H 0.51308 0.15411 0.55847 0.0
H5078 H 0.463 0.13074 0.55769 0.0
C5079 C 0.45088 0.1506 0.63193 0.0
C5080 C 0.48655 0.15442 0.61083 0.0
C5081 C 0.44474 0.15773 0.64492 0.0
C5082 C 0.5133 0.13662 0.53892 0.0
C5083 C 0.50637 0.14282 0.5521 0.0
C5084 C 0.46969 0.13719 0.57255 0.0
C5085 C 0.46577 0.15853 0.62428 0.0
C5086 C 0.47192 0.1516 0.60802 0.0
C5087 C 0.49119 0.13435 0.55797 0.0
C5088 C 0.48443 0.14023 0.57514 0.0
H5089 H 0.47512 0.19245 0.64738 0.0
H5090 H 0.48601 0.18001 0.62531 0.0
H5091 H 0.45228 0.14058 0.58588 0.0
H5092 H 0.48341 0.1022 0.52961 0.0
H5093 H 0.4712 0.11298 0.55274 0.0
C5094 C 0.44142 0.28094 0.12964 0.0
C5095 C 0.44979 0.27858 0.14683 0.0
C5096 C 0.44763 0.29416 0.11673 0.0
C5097 C 0.47769 0.33309 0.11459 0.0
H5098 H 0.472 0.32809 0.04664 0.0
C5099 C 0.49272 0.38265 0.05343 0.0
C5100 C 0.50212 0.38451 0.03428 0.0
C5101 C 0.48571 0.36932 0.06603 0.0
C5102 C 0.47372 0.32965 0.06554 0.0
H5103 H 0.47098 0.28842 0.16482 0.0
H5104 H 0.48187 0.31192 0.14252 0.0
H5105 H 0.46128 0.30622 0.07246 0.0
H5106 H 0.51078 0.37356 0.0123 0.0
H5107 H 0.49808 0.34984 0.0341 0.0
H5108 H 0.48998 0.35652 0.1077 0.0
C5109 C 0.47047 0.30345 0.13903 0.0
C5110 C 0.46751 0.31716 0.08036 0.0
C5111 C 0.46424 0.29009 0.15191 0.0
C5112 C 0.50349 0.37235 0.02685 0.0
C5113 C 0.49631 0.35886 0.03944 0.0
C5114 C 0.48371 0.34559 0.0998 0.0
C5115 C 0.46238 0.3054 0.12073 0.0
C5116 C 0.46935 0.31874 0.10508 0.0
C5117 C 0.4878 0.35743 0.05971 0.0
C5118 C 0.48173 0.34402 0.07512 0.0
H5119 H 0.43026 0.27218 0.12533 0.0
H5120 H 0.441 0.29543 0.10313 0.0
H5121 H 0.4793 0.33469 0.13351 0.0
H5122 H 0.49143 0.39184 0.05946 0.0
H5123 H 0.47897 0.36846 0.08122 0.0
C5124 C 0.61951 0.13722 0.03428 0.0
C5125 C 0.61091 0.12187 0.03029 0.0
C5126 C 0.63286 0.14311 0.04691 0.0
C5127 C 0.65082 0.13211 0.09281 0.0
H5128 H 0.68473 0.171 0.08007 0.0
C5129 C 0.70641 0.15854 0.14655 0.0
C5130 C 0.71398 0.17405 0.14937 0.0
C5131 C 0.6933 0.1514 0.13308 0.0
C5132 C 0.67528 0.1602 0.08411 0.0
H5133 H 0.60956 0.10063 0.03578 0.0
H5134 H 0.63312 0.11091 0.05748 0.0
H5135 H 0.66412 0.16011 0.05224 0.0
H5136 H 0.71339 0.19415 0.14174 0.0
H5137 H 0.69033 0.18175 0.11905 0.0
H5138 H 0.66203 0.13228 0.1248 0.0
C5139 C 0.62954 0.11843 0.05096 0.0
C5140 C 0.66346 0.15392 0.06803 0.0
C5141 C 0.6162 0.11256 0.03819 0.0
C5142 C 0.70769 0.18216 0.13994 0.0
C5143 C 0.69462 0.17506 0.12663 0.0
C5144 C 0.66268 0.13841 0.10893 0.0
C5145 C 0.63783 0.13374 0.0561 0.0
C5146 C 0.65098 0.13986 0.07227 0.0
C5147 C 0.68757 0.15968 0.12217 0.0
C5148 C 0.67498 0.15264 0.10496 0.0
H5149 H 0.61544 0.14455 0.02885 0.0
H5150 H 0.63881 0.15492 0.05069 0.0
H5151 H 0.64132 0.12135 0.09686 0.0
H5152 H 0.7112 0.15209 0.15328 0.0
H5153 H 0.68821 0.13955 0.13002 0.0
C5154 C 0.836 0.54932 0.1441 0.0
C5155 C 0.82096 0.54074 0.15039 0.0
C5156 C 0.84288 0.54306 0.13073 0.0
C5157 C 0.8325 0.51198 0.08846 0.0
H5158 H 0.8741 0.5234 0.09281 0.0
C5159 C 0.85776 0.48062 0.04048 0.0
C5160 C 0.87235 0.48879 0.03183 0.0
C5161 C 0.85143 0.48768 0.05302 0.0
C5162 C 0.86251 0.52026 0.09113 0.0
H5163 H 0.80149 0.51884 0.14882 0.0
H5164 H 0.81358 0.50767 0.12655 0.0
H5165 H 0.86368 0.53357 0.12091 0.0
H5166 H 0.89163 0.51077 0.02881 0.0
H5167 H 0.88052 0.52324 0.05059 0.0
H5168 H 0.83128 0.49852 0.05892 0.0
C5169 C 0.82005 0.51932 0.13128 0.0
C5170 C 0.8565 0.52606 0.10733 0.0
C5171 C 0.81317 0.5256 0.14443 0.0
C5172 C 0.88025 0.50428 0.03492 0.0
C5173 C 0.87397 0.51135 0.04771 0.0
C5174 C 0.83847 0.50614 0.07239 0.0
C5175 C 0.83482 0.52809 0.1234 0.0
C5176 C 0.84137 0.52191 0.10635 0.0
C5177 C 0.85962 0.50306 0.05749 0.0
C5178 C 0.85353 0.51012 0.07357 0.0
H5179 H 0.84211 0.56111 0.14802 0.0
H5180 H 0.85422 0.55022 0.12493 0.0
H5181 H 0.82091 0.50881 0.08664 0.0
H5182 H 0.85157 0.46863 0.03868 0.0
H5183 H 0.84042 0.48091 0.06042 0.0
C5184 C 0.50295 0.61456 0.9682 0.0
C5185 C 0.49134 0.61206 0.98361 0.0
C5186 C 0.51039 0.62775 0.95524 0.0
C5187 C 0.50451 0.65792 0.9322 0.0
H5188 H 0.54546 0.67471 0.91209 0.0
C5189 C 0.52965 0.70489 0.86236 0.0
C5190 C 0.54407 0.71654 0.86712 0.0
C5191 C 0.52377 0.6915 0.87506 0.0
C5192 C 0.53403 0.67026 0.9176 0.0
H5193 H 0.47873 0.62153 0.99835 0.0
H5194 H 0.49216 0.64499 0.97644 0.0
H5195 H 0.53508 0.65434 0.94027 0.0
H5196 H 0.56387 0.72323 0.88796 0.0
H5197 H 0.55379 0.70012 0.91007 0.0
H5198 H 0.50366 0.67426 0.91026 0.0
C5199 C 0.49535 0.63663 0.97395 0.0
C5200 C 0.528 0.65842 0.93366 0.0
C5201 C 0.48783 0.62333 0.98686 0.0
C5202 C 0.55279 0.71429 0.88374 0.0
C5203 C 0.54695 0.70101 0.89644 0.0
C5204 C 0.51059 0.66987 0.91629 0.0
C5205 C 0.50642 0.63882 0.95735 0.0
C5206 C 0.51313 0.65203 0.9412 0.0
C5207 C 0.5322 0.68956 0.89285 0.0
C5208 C 0.52545 0.67623 0.90874 0.0
H5209 H 0.50563 0.60587 0.96506 0.0
H5210 H 0.51866 0.62882 0.94253 0.0
H5211 H 0.49295 0.65318 0.93715 0.0
H5212 H 0.52265 0.70646 0.84985 0.0
H5213 H 0.51247 0.68286 0.87144 0.0
C5214 C 0.37263 0.85915 0.98277 0.0
C5215 C 0.38176 0.87463 0.98427 0.0
C5216 C 0.35927 0.8529 0.97005 0.0
C5217 C 0.34214 0.86211 0.92026 0.0
H5218 H 0.30711 0.82497 0.93723 0.0
C5219 C 0.28647 0.83538 0.86685 0.0
C5220 C 0.27817 0.81978 0.8661 0.0
C5221 C 0.29962 0.84263 0.88022 0.0
C5222 C 0.31687 0.83526 0.93203 0.0
H5223 H 0.38403 0.89576 0.97431 0.0
H5224 H 0.36049 0.88493 0.95261 0.0
H5225 H 0.32792 0.83656 0.96466 0.0
H5226 H 0.27755 0.79956 0.87729 0.0
H5227 H 0.30063 0.81211 0.89987 0.0
H5228 H 0.33106 0.86074 0.88755 0.0
C5229 C 0.36365 0.87756 0.96104 0.0
C5230 C 0.32881 0.84194 0.94786 0.0
C5231 C 0.37699 0.88378 0.97381 0.0
C5232 C 0.28378 0.81161 0.87753 0.0
C5233 C 0.29688 0.81881 0.89077 0.0
C5234 C 0.33017 0.85542 0.9044 0.0
C5235 C 0.35483 0.86203 0.95834 0.0
C5236 C 0.34168 0.8554 0.94214 0.0
C5237 C 0.30468 0.83439 0.89308 0.0
C5238 C 0.31744 0.8418 0.90995 0.0
H5239 H 0.3763 0.8519 0.99019 0.0
H5240 H 0.3529 0.84093 0.96822 0.0
H5241 H 0.35194 0.87236 0.91504 0.0
H5242 H 0.28226 0.84193 0.85853 0.0
H5243 H 0.30531 0.85464 0.88159 0.0
C5244 C 0.13584 0.51523 0.97526 0.0
C5245 C 0.12091 0.50707 0.98228 0.0
C5246 C 0.14226 0.5085 0.96205 0.0
C5247 C 0.13653 0.47204 0.93976 0.0
H5248 H 0.16226 0.49675 0.88923 0.0
C5249 C 0.15817 0.44814 0.8673 0.0
C5250 C 0.17351 0.45656 0.86296 0.0
C5251 C 0.15096 0.45422 0.88026 0.0
C5252 C 0.15516 0.48971 0.9033 0.0
H5253 H 0.10107 0.48541 0.98169 0.0
H5254 H 0.11217 0.47356 0.95852 0.0
H5255 H 0.15192 0.50705 0.917 0.0
H5256 H 0.19326 0.47798 0.86794 0.0
H5257 H 0.18073 0.48876 0.88999 0.0
H5258 H 0.13975 0.45466 0.92579 0.0
C5259 C 0.11909 0.4851 0.96353 0.0
C5260 C 0.14929 0.49565 0.9194 0.0
C5261 C 0.11272 0.49184 0.97697 0.0
C5262 C 0.18136 0.47139 0.87066 0.0
C5263 C 0.17416 0.47751 0.88339 0.0
C5264 C 0.14236 0.46607 0.92354 0.0
C5265 C 0.13381 0.49348 0.95515 0.0
C5266 C 0.14001 0.48697 0.93805 0.0
C5267 C 0.15897 0.46887 0.88902 0.0
C5268 C 0.15186 0.47487 0.90522 0.0
H5269 H 0.14231 0.52705 0.97886 0.0
H5270 H 0.15372 0.51525 0.95649 0.0
H5271 H 0.12953 0.46502 0.95392 0.0
H5272 H 0.15195 0.43658 0.86196 0.0
H5273 H 0.13922 0.44731 0.88404 0.0
C5274 C 0.15673 0.71428 0.38443 0.0
C5275 C 0.16735 0.71675 0.36698 0.0
C5276 C 0.1499 0.70102 0.39725 0.0
C5277 C 0.14169 0.66224 0.39903 0.0
H5278 H 0.14173 0.66726 0.46708 0.0
C5279 C 0.10982 0.6123 0.4606 0.0
C5280 C 0.11796 0.61101 0.4794 0.0
C5281 C 0.11531 0.62558 0.44805 0.0
C5282 C 0.14168 0.6657 0.44814 0.0
H5283 H 0.17864 0.70708 0.34838 0.0
H5284 H 0.16638 0.68354 0.37054 0.0
H5285 H 0.15199 0.68908 0.4412 0.0
H5286 H 0.13774 0.62287 0.50084 0.0
H5287 H 0.1473 0.64646 0.47909 0.0
H5288 H 0.13132 0.63887 0.40596 0.0
C5289 C 0.16338 0.69193 0.37431 0.0
C5290 C 0.14744 0.67816 0.43329 0.0
C5291 C 0.17032 0.70532 0.3615 0.0
C5292 C 0.13121 0.62364 0.48656 0.0
C5293 C 0.13669 0.63706 0.47402 0.0
C5294 C 0.13575 0.64978 0.41386 0.0
C5295 C 0.15349 0.68988 0.39289 0.0
C5296 C 0.14747 0.67657 0.40855 0.0
C5297 C 0.12904 0.63797 0.45406 0.0
C5298 C 0.13562 0.65136 0.43857 0.0
H5299 H 0.15432 0.72298 0.38903 0.0
H5300 H 0.14211 0.69967 0.41108 0.0
H5301 H 0.14153 0.66065 0.38009 0.0
H5302 H 0.09954 0.60272 0.4548 0.0
H5303 H 0.109 0.62602 0.43312 0.0
C5304 C 0.37416 0.49524 0.48308 0.0
C5305 C 0.38199 0.51085 0.48428 0.0
C5306 C 0.36106 0.48777 0.46964 0.0
C5307 C 0.3438 0.495 0.4179 0.0
H5308 H 0.30911 0.45722 0.43334 0.0
C5309 C 0.28878 0.47067 0.36526 0.0
C5310 C 0.27993 0.45519 0.36321 0.0
C5311 C 0.30195 0.47696 0.37848 0.0
C5312 C 0.31882 0.46766 0.42855 0.0
H5313 H 0.38179 0.53079 0.47393 0.0
H5314 H 0.35881 0.51784 0.45118 0.0
H5315 H 0.3296 0.46896 0.46158 0.0
H5316 H 0.27792 0.43411 0.37275 0.0
H5317 H 0.30115 0.44504 0.39535 0.0
H5318 H 0.33311 0.49376 0.38493 0.0
C5319 C 0.36288 0.51133 0.46002 0.0
C5320 C 0.33054 0.47442 0.44484 0.0
C5321 C 0.37592 0.51875 0.47335 0.0
C5322 C 0.28478 0.4461 0.37366 0.0
C5323 C 0.29793 0.45238 0.38694 0.0
C5324 C 0.33213 0.48824 0.40163 0.0
C5325 C 0.35561 0.4958 0.45714 0.0
C5326 C 0.34311 0.48829 0.43985 0.0
C5327 C 0.30646 0.46788 0.39015 0.0
C5328 C 0.31939 0.47454 0.4068 0.0
H5329 H 0.37874 0.48892 0.49102 0.0
H5330 H 0.35576 0.47581 0.46783 0.0
H5331 H 0.35347 0.50548 0.41313 0.0
H5332 H 0.28503 0.47786 0.35789 0.0
H5333 H 0.30809 0.48892 0.38072 0.0
C5334 C 0.47767 0.85726 0.47522 0.0
C5335 C 0.48572 0.87175 0.48427 0.0
C5336 C 0.4848 0.85128 0.46198 0.0
C5337 C 0.52164 0.85667 0.4435 0.0
H5338 H 0.49944 0.83525 0.38782 0.0
C5339 C 0.54772 0.837 0.37176 0.0
C5340 C 0.5388 0.82215 0.36463 0.0
C5341 C 0.54157 0.84413 0.38472 0.0
C5342 C 0.50577 0.84112 0.40333 0.0
H5343 H 0.50759 0.89114 0.48761 0.0
H5344 H 0.52016 0.88074 0.46443 0.0
H5345 H 0.48843 0.84476 0.41577 0.0
H5346 H 0.51654 0.80321 0.36474 0.0
H5347 H 0.50567 0.81564 0.38688 0.0
H5348 H 0.539 0.85299 0.43091 0.0
C5349 C 0.50836 0.87387 0.46776 0.0
C5350 C 0.49942 0.84652 0.41949 0.0
C5351 C 0.5012 0.87982 0.48118 0.0
C5352 C 0.52353 0.81479 0.36958 0.0
C5353 C 0.51736 0.82191 0.38237 0.0
C5354 C 0.52802 0.85128 0.42726 0.0
C5355 C 0.50013 0.85974 0.4572 0.0
C5356 C 0.50717 0.8542 0.43997 0.0
C5357 C 0.52639 0.83652 0.39078 0.0
C5358 C 0.5201 0.84329 0.40708 0.0
H5359 H 0.4657 0.85088 0.47721 0.0
H5360 H 0.47815 0.84021 0.45471 0.0
H5361 H 0.52792 0.86246 0.45908 0.0
H5362 H 0.55959 0.84278 0.36858 0.0
H5363 H 0.54881 0.85544 0.39065 0.0
C5364 C 0.22952 0.11377 0.91426 0.0
C5365 C 0.24117 0.12657 0.92483 0.0
C5366 C 0.2277 0.11288 0.88958 0.0
C5367 C 0.24024 0.13666 0.83504 0.0
H5368 H 0.22681 0.09909 0.80289 0.0
C5369 C 0.24292 0.13485 0.73444 0.0
C5370 C 0.22899 0.12564 0.72402 0.0
C5371 C 0.24527 0.13319 0.75834 0.0
C5372 C 0.23061 0.10965 0.81168 0.0
H5373 H 0.26001 0.14848 0.91746 0.0
H5374 H 0.25718 0.14673 0.87515 0.0
H5375 H 0.22832 0.10011 0.84608 0.0
H5376 H 0.20702 0.1068 0.72973 0.0
H5377 H 0.21131 0.10344 0.77126 0.0
H5378 H 0.24281 0.14622 0.80066 0.0
C5379 C 0.2491 0.1375 0.88565 0.0
C5380 C 0.23134 0.11024 0.83645 0.0
C5381 C 0.25078 0.13847 0.91015 0.0
C5382 C 0.21798 0.11378 0.73722 0.0
C5383 C 0.22039 0.11198 0.76105 0.0
C5384 C 0.23976 0.1361 0.81037 0.0
C5385 C 0.23758 0.1247 0.8749 0.0
C5386 C 0.23621 0.12378 0.84852 0.0
C5387 C 0.23377 0.12218 0.77216 0.0
C5388 C 0.23498 0.12262 0.79838 0.0
H5389 H 0.22194 0.10437 0.92498 0.0
H5390 H 0.21855 0.10291 0.88207 0.0
H5391 H 0.24364 0.14723 0.8435 0.0
H5392 H 0.25144 0.14431 0.72482 0.0
H5393 H 0.25575 0.14113 0.76639 0.0
C5394 C 0.88193 0.11753 0.91538 0.0
C5395 C 0.87 0.1179 0.92648 0.0
C5396 C 0.88218 0.11613 0.89074 0.0
C5397 C 0.85766 0.10515 0.8375 0.0
H5398 H 0.89498 0.1271 0.80374 0.0
C5399 C 0.8589 0.10525 0.73607 0.0
C5400 C 0.86882 0.1012 0.72642 0.0
C5401 C 0.86019 0.10966 0.75974 0.0
C5402 C 0.88448 0.12089 0.81293 0.0
H5403 H 0.84888 0.11689 0.92013 0.0
H5404 H 0.84947 0.11475 0.87759 0.0
H5405 H 0.89461 0.129 0.84674 0.0
H5406 H 0.88831 0.09938 0.73335 0.0
H5407 H 0.89094 0.10758 0.77445 0.0
H5408 H 0.84754 0.09709 0.80371 0.0
C5409 C 0.85854 0.11528 0.8878 0.0
C5410 C 0.88426 0.12189 0.83762 0.0
C5411 C 0.85826 0.11661 0.91233 0.0
C5412 C 0.88076 0.10281 0.74024 0.0
C5413 C 0.88217 0.10739 0.76383 0.0
C5414 C 0.85787 0.10426 0.81285 0.0
C5415 C 0.87053 0.1151 0.87659 0.0
C5416 C 0.87085 0.11399 0.85027 0.0
C5417 C 0.8715 0.1102 0.77416 0.0
C5418 C 0.87128 0.11209 0.80025 0.0
H5419 H 0.89116 0.11848 0.92568 0.0
H5420 H 0.89149 0.1158 0.88282 0.0
H5421 H 0.84716 0.09867 0.84656 0.0
H5422 H 0.84938 0.10372 0.72593 0.0
H5423 H 0.8519 0.11192 0.7671 0.0
C5424 C 0.88824 0.77428 0.73649 0.0
C5425 C 0.89029 0.76383 0.72377 0.0
C5426 C 0.88423 0.77191 0.76041 0.0
C5427 C 0.89262 0.75602 0.81028 0.0
H5428 H 0.86412 0.76192 0.84589 0.0
C5429 C 0.88592 0.74557 0.91033 0.0
C5430 C 0.88153 0.75373 0.92479 0.0
C5431 C 0.88634 0.74704 0.8858 0.0
C5432 C 0.87233 0.7605 0.83629 0.0
H5433 H 0.8889 0.74237 0.72551 0.0
H5434 H 0.88191 0.7382 0.76727 0.0
H5435 H 0.86407 0.76287 0.80265 0.0
H5436 H 0.87458 0.77023 0.9245 0.0
H5437 H 0.87596 0.77331 0.88157 0.0
H5438 H 0.90146 0.75438 0.84342 0.0
C5439 C 0.88325 0.74814 0.75874 0.0
C5440 C 0.87217 0.76089 0.8115 0.0
C5441 C 0.887 0.7504 0.73476 0.0
C5442 C 0.87804 0.76379 0.91396 0.0
C5443 C 0.87866 0.76542 0.88927 0.0
C5444 C 0.89299 0.75593 0.83495 0.0
C5445 C 0.88252 0.75919 0.77205 0.0
C5446 C 0.88219 0.75845 0.79828 0.0
C5447 C 0.88265 0.75691 0.8748 0.0
C5448 C 0.88273 0.75796 0.84839 0.0
H5449 H 0.89113 0.78489 0.72856 0.0
H5450 H 0.88381 0.78063 0.77028 0.0
H5451 H 0.90074 0.7545 0.80054 0.0
H5452 H 0.88859 0.7376 0.91785 0.0
H5453 H 0.88916 0.74002 0.87548 0.0
C5454 C 0.13002 0.24027 0.78308 0.0
C5455 C 0.1212 0.22618 0.79323 0.0
C5456 C 0.12841 0.24261 0.75917 0.0
C5457 C 0.1057 0.2278 0.70522 0.0
H5458 H 0.14373 0.24144 0.6746 0.0
C5459 C 0.11119 0.22749 0.60275 0.0
C5460 C 0.12416 0.23916 0.59261 0.0
C5461 C 0.10994 0.22556 0.62739 0.0
C5462 C 0.13304 0.23789 0.68271 0.0
H5463 H 0.10306 0.20387 0.78706 0.0
H5464 H 0.09977 0.20812 0.74546 0.0
H5465 H 0.14221 0.24038 0.71739 0.0
H5466 H 0.14592 0.25801 0.60072 0.0
H5467 H 0.14354 0.25503 0.64297 0.0
H5468 H 0.09655 0.22562 0.67053 0.0
C5469 C 0.10796 0.21733 0.7559 0.0
C5470 C 0.13219 0.23726 0.70734 0.0
C5471 C 0.10972 0.21493 0.77976 0.0
C5472 C 0.13582 0.24873 0.60771 0.0
C5473 C 0.13448 0.24697 0.63217 0.0
C5474 C 0.10659 0.2287 0.68047 0.0
C5475 C 0.11784 0.23094 0.74509 0.0
C5476 C 0.11854 0.23226 0.7189 0.0
C5477 C 0.12155 0.23537 0.64248 0.0
C5478 C 0.1203 0.23381 0.66883 0.0
H5479 H 0.13918 0.249 0.79293 0.0
H5480 H 0.1361 0.25325 0.7513 0.0
H5481 H 0.09502 0.22381 0.71369 0.0
H5482 H 0.10197 0.21993 0.59168 0.0
H5483 H 0.09987 0.21636 0.63456 0.0
C5484 C 0.7651 0.88079 0.60179 0.0
C5485 C 0.75583 0.88515 0.59044 0.0
C5486 C 0.76665 0.88165 0.62649 0.0
C5487 C 0.75878 0.89819 0.67967 0.0
H5488 H 0.76195 0.86747 0.7137 0.0
C5489 C 0.7503 0.89222 0.7794 0.0
C5490 C 0.76311 0.89463 0.79154 0.0
C5491 C 0.74861 0.88864 0.75537 0.0
C5492 C 0.76104 0.87608 0.70435 0.0
H5493 H 0.74113 0.89408 0.59642 0.0
H5494 H 0.74343 0.89512 0.63883 0.0
H5495 H 0.76163 0.86726 0.6704 0.0
H5496 H 0.78367 0.89425 0.7887 0.0
H5497 H 0.78036 0.88724 0.74677 0.0
H5498 H 0.75771 0.9067 0.71362 0.0
C5499 C 0.74987 0.89139 0.6289 0.0
C5500 C 0.76101 0.87609 0.67955 0.0
C5501 C 0.74847 0.8907 0.60436 0.0
C5502 C 0.77351 0.89204 0.77984 0.0
C5503 C 0.77169 0.88819 0.75583 0.0
C5504 C 0.7585 0.89799 0.70433 0.0
C5505 C 0.75889 0.88679 0.64042 0.0
C5506 C 0.75978 0.88711 0.66684 0.0
C5507 C 0.75961 0.88723 0.74314 0.0
C5508 C 0.75953 0.8869 0.71693 0.0
H5509 H 0.7709 0.87641 0.59167 0.0
H5510 H 0.77389 0.87822 0.63463 0.0
H5511 H 0.75826 0.90713 0.67072 0.0
H5512 H 0.74234 0.89456 0.78791 0.0
H5513 H 0.73917 0.88791 0.74597 0.0
C5514 C 0.10182 0.88062 0.7783 0.0
C5515 C 0.10003 0.86833 0.79133 0.0
C5516 C 0.10595 0.88219 0.75445 0.0
C5517 C 0.0991 0.85774 0.7049 0.0
H5518 H 0.12617 0.89302 0.66958 0.0
C5519 C 0.10734 0.85497 0.60508 0.0
C5520 C 0.11073 0.8673 0.59064 0.0
C5521 C 0.10664 0.85586 0.62958 0.0
C5522 C 0.11837 0.88312 0.6791 0.0
H5523 H 0.10198 0.84855 0.79028 0.0
H5524 H 0.10926 0.8513 0.74866 0.0
H5525 H 0.12579 0.89395 0.71278 0.0
H5526 H 0.1156 0.89018 0.59091 0.0
H5527 H 0.11377 0.89157 0.63382 0.0
H5528 H 0.09111 0.84699 0.67164 0.0
C5529 C 0.10757 0.85977 0.75685 0.0
C5530 C 0.11828 0.88364 0.70387 0.0
C5531 C 0.10366 0.85833 0.78075 0.0
C5532 C 0.11294 0.88045 0.60144 0.0
C5533 C 0.11206 0.88129 0.62611 0.0
C5534 C 0.09899 0.85727 0.68023 0.0
C5535 C 0.10808 0.87133 0.7432 0.0
C5536 C 0.10876 0.8709 0.717 0.0
C5537 C 0.10907 0.86903 0.64055 0.0
C5538 C 0.10873 0.8699 0.66692 0.0
H5539 H 0.09867 0.88822 0.78593 0.0
H5540 H 0.10619 0.89117 0.74434 0.0
H5541 H 0.09135 0.84784 0.71452 0.0
H5542 H 0.10566 0.84465 0.59756 0.0
H5543 H 0.10462 0.84625 0.63993 0.0
C5544 C 0.76515 0.8832 0.10222 0.0
C5545 C 0.75597 0.86943 0.0912 0.0
C5546 C 0.76669 0.88416 0.12693 0.0
C5547 C 0.75897 0.86023 0.18075 0.0
H5548 H 0.76273 0.89463 0.21395 0.0
C5549 C 0.75127 0.85883 0.28051 0.0
C5550 C 0.76446 0.86891 0.29215 0.0
C5551 C 0.74935 0.86068 0.25654 0.0
C5552 C 0.76165 0.88496 0.20483 0.0
H5553 H 0.74128 0.84585 0.09778 0.0
H5554 H 0.74352 0.84759 0.14016 0.0
H5555 H 0.76204 0.89404 0.17065 0.0
H5556 H 0.78545 0.88935 0.28853 0.0
H5557 H 0.78176 0.89304 0.24675 0.0
H5558 H 0.75809 0.851 0.21494 0.0
C5559 C 0.74995 0.85765 0.13 0.0
C5560 C 0.76141 0.88465 0.18002 0.0
C5561 C 0.74859 0.85666 0.10546 0.0
C5562 C 0.77502 0.88167 0.28008 0.0
C5563 C 0.77297 0.88368 0.25615 0.0
C5564 C 0.75889 0.86043 0.20541 0.0
C5565 C 0.75898 0.87139 0.1412 0.0
C5566 C 0.75998 0.87222 0.16761 0.0
C5567 C 0.76049 0.87277 0.24391 0.0
C5568 C 0.76015 0.87274 0.2177 0.0
H5569 H 0.77096 0.89327 0.09183 0.0
H5570 H 0.77392 0.89492 0.1348 0.0
H5571 H 0.75833 0.85065 0.17205 0.0
H5572 H 0.74317 0.84871 0.28928 0.0
H5573 H 0.73962 0.85214 0.24749 0.0
C5574 C 0.13849 0.89363 0.27803 0.0
C5575 C 0.12738 0.89445 0.29091 0.0
C5576 C 0.13656 0.89017 0.25396 0.0
C5577 C 0.11099 0.87542 0.20387 0.0
H5578 H 0.14178 0.90923 0.16983 0.0
C5579 C 0.10836 0.88112 0.10198 0.0
C5580 C 0.12188 0.88773 0.08951 0.0
C5581 C 0.10823 0.88127 0.12678 0.0
C5582 C 0.13322 0.89952 0.17887 0.0
H5583 H 0.10521 0.89135 0.28934 0.0
H5584 H 0.10149 0.88452 0.24732 0.0
H5585 H 0.14282 0.90847 0.21265 0.0
H5586 H 0.14589 0.89961 0.09356 0.0
H5587 H 0.14568 0.89941 0.13622 0.0
H5588 H 0.1016 0.8662 0.1701 0.0
C5589 C 0.1117 0.88663 0.25585 0.0
C5590 C 0.13381 0.89914 0.20349 0.0
C5591 C 0.11375 0.89037 0.2799 0.0
C5592 C 0.13523 0.89458 0.10245 0.0
C5593 C 0.13511 0.89453 0.12712 0.0
C5594 C 0.11055 0.87563 0.17909 0.0
C5595 C 0.12339 0.88727 0.24244 0.0
C5596 C 0.12275 0.88709 0.21624 0.0
C5597 C 0.12162 0.88786 0.13973 0.0
C5598 C 0.1217 0.88769 0.1662 0.0
H5599 H 0.14923 0.89713 0.28601 0.0
H5600 H 0.14572 0.89069 0.244 0.0
H5601 H 0.10229 0.86603 0.21335 0.0
H5602 H 0.09786 0.87571 0.0926 0.0
H5603 H 0.09761 0.87622 0.13574 0.0
C5604 C 0.11178 0.22896 0.10246 0.0
C5605 C 0.11062 0.24057 0.09176 0.0
C5606 C 0.11089 0.22722 0.12714 0.0
C5607 C 0.09955 0.23967 0.18157 0.0
H5608 H 0.12431 0.22702 0.21373 0.0
C5609 C 0.10399 0.2423 0.28231 0.0
C5610 C 0.09993 0.22852 0.29274 0.0
C5611 C 0.10784 0.24474 0.25836 0.0
C5612 C 0.11736 0.23059 0.20495 0.0
H5613 H 0.10739 0.25932 0.0989 0.0
H5614 H 0.10628 0.25659 0.14129 0.0
H5615 H 0.12468 0.22841 0.17055 0.0
H5616 H 0.09774 0.20694 0.28699 0.0
H5617 H 0.10505 0.21138 0.24534 0.0
H5618 H 0.09244 0.24208 0.21594 0.0
C5619 C 0.10751 0.24853 0.13085 0.0
C5620 C 0.11744 0.23126 0.18017 0.0
C5621 C 0.10824 0.25016 0.10633 0.0
C5622 C 0.10118 0.21778 0.27946 0.0
C5623 C 0.10522 0.22028 0.25557 0.0
C5624 C 0.09965 0.23923 0.20624 0.0
C5625 C 0.10891 0.23711 0.14172 0.0
C5626 C 0.10854 0.23585 0.1681 0.0
C5627 C 0.10783 0.23349 0.24448 0.0
C5628 C 0.10857 0.23471 0.21825 0.0
H5629 H 0.11366 0.22138 0.09184 0.0
H5630 H 0.11179 0.21814 0.13476 0.0
H5631 H 0.09223 0.24287 0.17308 0.0
H5632 H 0.10276 0.25061 0.29203 0.0
H5633 H 0.10995 0.25509 0.25034 0.0
C5634 C 0.86048 0.75133 0.23404 0.0
C5635 C 0.8681 0.76546 0.22353 0.0
C5636 C 0.86333 0.74935 0.2576 0.0
C5637 C 0.87683 0.77169 0.3124 0.0
H5638 H 0.87239 0.73534 0.33914 0.0
C5639 C 0.88414 0.76512 0.41276 0.0
C5640 C 0.87408 0.75138 0.4231 0.0
C5641 C 0.88448 0.76702 0.38817 0.0
C5642 C 0.87355 0.74554 0.33197 0.0
H5643 H 0.88527 0.78833 0.22869 0.0
H5644 H 0.8908 0.78481 0.26935 0.0
H5645 H 0.87211 0.73796 0.29632 0.0
H5646 H 0.85634 0.72892 0.41544 0.0
H5647 H 0.85684 0.73232 0.37294 0.0
H5648 H 0.87809 0.77919 0.34803 0.0
C5649 C 0.88237 0.7753 0.25974 0.0
C5650 C 0.87341 0.74705 0.30737 0.0
C5651 C 0.87945 0.77727 0.23629 0.0
C5652 C 0.86426 0.73968 0.40823 0.0
C5653 C 0.86464 0.74157 0.38373 0.0
C5654 C 0.877 0.77019 0.33696 0.0
C5655 C 0.87386 0.76148 0.27108 0.0
C5656 C 0.87497 0.76012 0.29722 0.0
C5657 C 0.87482 0.75522 0.37332 0.0
C5658 C 0.87524 0.75706 0.3471 0.0
H5659 H 0.8514 0.74215 0.22478 0.0
H5660 H 0.85647 0.73858 0.26569 0.0
H5661 H 0.8777 0.78179 0.30535 0.0
H5662 H 0.8919 0.77435 0.42361 0.0
H5663 H 0.89254 0.77766 0.38076 0.0
C5664 C 0.25423 0.12111 0.40944 0.0
C5665 C 0.24292 0.12032 0.42415 0.0
C5666 C 0.25224 0.11932 0.38499 0.0
C5667 C 0.22354 0.10431 0.33815 0.0
H5668 H 0.25656 0.12997 0.29736 0.0
C5669 C 0.21626 0.10021 0.23741 0.0
C5670 C 0.22761 0.0999 0.22443 0.0
C5671 C 0.21856 0.10494 0.26097 0.0
C5672 C 0.24725 0.12264 0.30846 0.0
H5673 H 0.22047 0.11672 0.42443 0.0
H5674 H 0.217 0.11357 0.38163 0.0
H5675 H 0.25932 0.13294 0.34015 0.0
H5676 H 0.25047 0.10491 0.22545 0.0
H5677 H 0.2546 0.11323 0.26657 0.0
H5678 H 0.21155 0.09381 0.30659 0.0
C5679 C 0.22741 0.11553 0.38915 0.0
C5680 C 0.24884 0.12433 0.33304 0.0
C5681 C 0.22942 0.11737 0.41371 0.0
C5682 C 0.24166 0.10542 0.2349 0.0
C5683 C 0.24395 0.11006 0.25857 0.0
C5684 C 0.22197 0.1026 0.31359 0.0
C5685 C 0.23888 0.11666 0.37445 0.0
C5686 C 0.23702 0.11514 0.34823 0.0
C5687 C 0.23223 0.10928 0.27221 0.0
C5688 C 0.2338 0.11172 0.29836 0.0
H5689 H 0.26478 0.12333 0.41674 0.0
H5690 H 0.26121 0.11998 0.37433 0.0
H5691 H 0.21429 0.09688 0.34927 0.0
H5692 H 0.20526 0.09577 0.22984 0.0
H5693 H 0.20939 0.10452 0.27069 0.0
C5694 C 0.87761 0.13418 0.41291 0.0
C5695 C 0.87589 0.12209 0.42655 0.0
C5696 C 0.87926 0.13433 0.3884 0.0
C5697 C 0.87279 0.10957 0.33687 0.0
H5698 H 0.89838 0.14698 0.30525 0.0
C5699 C 0.89193 0.1158 0.23868 0.0
C5700 C 0.89352 0.12818 0.22615 0.0
C5701 C 0.88744 0.11364 0.26238 0.0
C5702 C 0.891 0.13647 0.31375 0.0
H5703 H 0.8748 0.10071 0.42485 0.0
H5704 H 0.87801 0.1011 0.38198 0.0
H5705 H 0.8966 0.14629 0.34811 0.0
H5706 H 0.8911 0.14766 0.22809 0.0
H5707 H 0.88306 0.14384 0.26941 0.0
H5708 H 0.86759 0.09975 0.30226 0.0
C5709 C 0.87782 0.11039 0.39031 0.0
C5710 C 0.88999 0.13605 0.33841 0.0
C5711 C 0.87613 0.11022 0.41496 0.0
C5712 C 0.88958 0.13781 0.2372 0.0
C5713 C 0.88525 0.13576 0.26097 0.0
C5714 C 0.87392 0.10997 0.31214 0.0
C5715 C 0.87932 0.12242 0.37668 0.0
C5716 C 0.88079 0.12263 0.35036 0.0
C5717 C 0.88472 0.12399 0.2741 0.0
C5718 C 0.88296 0.12345 0.30029 0.0
H5719 H 0.87744 0.14352 0.42109 0.0
H5720 H 0.88012 0.14368 0.3786 0.0
H5721 H 0.86545 0.09905 0.34536 0.0
H5722 H 0.8953 0.10847 0.23069 0.0
H5723 H 0.88722 0.10452 0.272 0.0
C5724 C 0.90997 0.47292 0.07109 0.0
C5725 C 0.89715 0.46229 0.05923 0.0
C5726 C 0.91191 0.47128 0.09517 0.0
C5727 C 0.89891 0.44585 0.14655 0.0
H5728 H 0.90547 0.48092 0.18088 0.0
C5729 C 0.89464 0.44623 0.24925 0.0
C5730 C 0.90479 0.45942 0.26096 0.0
C5731 C 0.89338 0.44587 0.22448 0.0
C5732 C 0.90388 0.47108 0.17172 0.0
H5733 H 0.87678 0.44122 0.06275 0.0
H5734 H 0.88046 0.43798 0.10465 0.0
H5735 H 0.9057 0.48117 0.13798 0.0
H5736 H 0.92144 0.48261 0.25549 0.0
H5737 H 0.91957 0.48188 0.21299 0.0
H5738 H 0.89738 0.43583 0.18032 0.0
C5739 C 0.889 0.4476 0.09538 0.0
C5740 C 0.904 0.47125 0.14702 0.0
C5741 C 0.88696 0.44935 0.07135 0.0
C5742 C 0.9134 0.47225 0.24728 0.0
C5743 C 0.91225 0.47185 0.22269 0.0
C5744 C 0.89902 0.44575 0.17136 0.0
C5745 C 0.90112 0.4589 0.10781 0.0
C5746 C 0.90157 0.45867 0.13412 0.0
C5747 C 0.9023 0.45867 0.21081 0.0
C5748 C 0.90156 0.4584 0.18434 0.0
H5749 H 0.91777 0.48318 0.0623 0.0
H5750 H 0.92142 0.48012 0.10422 0.0
H5751 H 0.89696 0.43597 0.13707 0.0
H5752 H 0.88788 0.43611 0.25914 0.0
H5753 H 0.88543 0.43555 0.21608 0.0
C5754 C 0.54723 0.43567 0.0699 0.0
C5755 C 0.53587 0.43591 0.0568 0.0
C5756 C 0.54968 0.44027 0.09353 0.0
C5757 C 0.5392 0.45828 0.14127 0.0
H5758 H 0.5441 0.4308 0.18154 0.0
C5759 C 0.52909 0.45557 0.24203 0.0
C5760 C 0.53891 0.45378 0.257 0.0
C5761 C 0.52959 0.45413 0.21751 0.0
C5762 C 0.54293 0.43871 0.1706 0.0
H5763 H 0.51871 0.44189 0.05768 0.0
H5764 H 0.52299 0.45005 0.09884 0.0
H5765 H 0.5445 0.42846 0.1388 0.0
H5766 H 0.55685 0.4488 0.25764 0.0
H5767 H 0.55774 0.4463 0.21485 0.0
H5768 H 0.53738 0.46835 0.17318 0.0
C5769 C 0.53019 0.44651 0.0909 0.0
C5770 C 0.54321 0.43741 0.146 0.0
C5771 C 0.52782 0.44198 0.06718 0.0
C5772 C 0.54907 0.4502 0.24674 0.0
C5773 C 0.54955 0.44873 0.22215 0.0
C5774 C 0.5389 0.45956 0.1659 0.0
C5775 C 0.5407 0.44507 0.10471 0.0
C5776 C 0.5413 0.44715 0.13094 0.0
C5777 C 0.53993 0.45085 0.20718 0.0
C5778 C 0.54067 0.44973 0.18092 0.0
H5779 H 0.55338 0.43076 0.06243 0.0
H5780 H 0.5581 0.43932 0.10339 0.0
H5781 H 0.53784 0.46607 0.13033 0.0
H5782 H 0.52111 0.45834 0.24918 0.0
H5783 H 0.52182 0.45557 0.20664 0.0
C5784 C 0.55981 0.1147 0.0704 0.0
C5785 C 0.56018 0.10324 0.05789 0.0
C5786 C 0.55547 0.11276 0.09415 0.0
C5787 C 0.54052 0.08465 0.14339 0.0
H5788 H 0.5653 0.11924 0.18205 0.0
C5789 C 0.55084 0.08054 0.2422 0.0
C5790 C 0.5487 0.08985 0.25784 0.0
C5791 C 0.55103 0.08257 0.21781 0.0
C5792 C 0.55818 0.10955 0.17147 0.0
H5793 H 0.55582 0.08063 0.05985 0.0
H5794 H 0.54852 0.07721 0.10124 0.0
H5795 H 0.56655 0.12146 0.13914 0.0
H5796 H 0.54553 0.10893 0.25991 0.0
H5797 H 0.54634 0.11277 0.21698 0.0
H5798 H 0.53282 0.07263 0.17596 0.0
C5799 C 0.55111 0.08759 0.09284 0.0
C5800 C 0.55879 0.1108 0.14681 0.0
C5801 C 0.5552 0.08948 0.06899 0.0
C5802 C 0.54724 0.10159 0.2484 0.0
C5803 C 0.54769 0.10378 0.22386 0.0
C5804 C 0.54011 0.08337 0.16803 0.0
C5805 C 0.55177 0.09943 0.10605 0.0
C5806 C 0.55006 0.09833 0.13236 0.0
C5807 C 0.54929 0.09409 0.20834 0.0
C5808 C 0.54905 0.09576 0.18231 0.0
H5809 H 0.56389 0.12551 0.06229 0.0
H5810 H 0.55575 0.122 0.10346 0.0
H5811 H 0.53343 0.07486 0.13303 0.0
H5812 H 0.5519 0.0713 0.24872 0.0
H5813 H 0.55248 0.07506 0.20629 0.0
C5814 C 0.79733 0.58815 0.93862 0.0
C5815 C 0.78696 0.57667 0.92395 0.0
C5816 C 0.79693 0.58637 0.96313 0.0
C5817 C 0.78322 0.55799 0.01026 0.0
H5818 H 0.78995 0.59106 0.05046 0.0
C5819 C 0.7797 0.55109 0.11089 0.0
C5820 C 0.79133 0.56253 0.12381 0.0
C5821 C 0.77725 0.5533 0.08731 0.0
C5822 C 0.78813 0.58174 0.03952 0.0
H5823 H 0.76815 0.55421 0.92378 0.0
H5824 H 0.76747 0.5511 0.96669 0.0
H5825 H 0.78991 0.5936 1.00758 0.0
H5826 H 0.80904 0.58545 0.12273 0.0
H5827 H 0.80481 0.58942 0.08154 0.0
H5828 H 0.78175 0.54622 0.04204 0.0
C5829 C 0.77596 0.56147 0.9591 0.0
C5830 C 0.78813 0.5832 0.01491 0.0
C5831 C 0.77632 0.56326 0.93449 0.0
C5832 C 0.79976 0.57658 0.1133 0.0
C5833 C 0.79739 0.57878 0.08961 0.0
C5834 C 0.78326 0.55654 0.03484 0.0
C5835 C 0.78618 0.57307 0.97374 0.0
C5836 C 0.78574 0.57136 0.99996 0.0
C5837 C 0.78652 0.56696 0.07602 0.0
C5838 C 0.78574 0.5684 0.04984 0.0
H5839 H 0.80571 0.59865 0.93124 0.0
H5840 H 0.80514 0.59544 0.97378 0.0
H5841 H 0.78159 0.54874 0.99932 0.0
H5842 H 0.77323 0.54009 0.11851 0.0
H5843 H 0.76855 0.54405 0.0776 0.0
C5844 C 0.40673 0.21099 0.93748 0.0
C5845 C 0.41753 0.21018 0.92355 0.0
C5846 C 0.40819 0.21239 0.96201 0.0
C5847 C 0.42769 0.20695 0.01286 0.0
H5848 H 0.41385 0.23052 0.0457 0.0
C5849 C 0.44069 0.22587 0.11099 0.0
C5850 C 0.42973 0.22692 0.12396 0.0
C5851 C 0.43821 0.22131 0.08732 0.0
C5852 C 0.41754 0.22369 0.03686 0.0
H5853 H 0.43853 0.21047 0.92474 0.0
H5854 H 0.44129 0.21329 0.96768 0.0
H5855 H 0.41259 0.22902 1.00283 0.0
H5856 H 0.40736 0.22335 0.12288 0.0
H5857 H 0.40288 0.21513 0.08165 0.0
H5858 H 0.43303 0.20203 0.04713 0.0
C5859 C 0.43151 0.21254 0.95955 0.0
C5860 C 0.41685 0.22284 0.01219 0.0
C5861 C 0.43 0.21107 0.93488 0.0
C5862 C 0.41584 0.22225 0.11344 0.0
C5863 C 0.4134 0.21784 0.08971 0.0
C5864 C 0.4285 0.20791 0.0376 0.0
C5865 C 0.42056 0.21314 0.97347 0.0
C5866 C 0.42183 0.2144 0.9998 0.0
C5867 C 0.4248 0.21795 0.07609 0.0
C5868 C 0.42336 0.21622 0.0499 0.0
H5869 H 0.39691 0.21029 0.92952 0.0
H5870 H 0.39939 0.21254 0.97203 0.0
H5871 H 0.43144 0.20018 1.00403 0.0
H5872 H 0.45161 0.2298 0.11855 0.0
H5873 H 0.44725 0.2216 0.07734 0.0
C5874 C 0.78232 0.21717 0.93471 0.0
C5875 C 0.78509 0.20661 0.92387 0.0
C5876 C 0.78065 0.21723 0.95934 0.0
C5877 C 0.77316 0.19339 0.01282 0.0
H5878 H 0.78933 0.2308 0.04657 0.0
C5879 C 0.7716 0.19417 0.11433 0.0
C5880 C 0.76576 0.20266 0.12382 0.0
C5881 C 0.77634 0.1961 0.09073 0.0
C5882 C 0.78472 0.22025 0.03741 0.0
H5883 H 0.78826 0.18779 0.93072 0.0
H5884 H 0.78562 0.18806 0.97321 0.0
H5885 H 0.79175 0.23085 1.00363 0.0
H5886 H 0.76117 0.22043 0.11672 0.0
H5887 H 0.76973 0.22409 0.0758 0.0
H5888 H 0.76609 0.1828 0.04651 0.0
C5889 C 0.78442 0.19615 0.9628 0.0
C5890 C 0.78603 0.22027 0.01273 0.0
C5891 C 0.78602 0.19605 0.93829 0.0
C5892 C 0.76592 0.21396 0.10994 0.0
C5893 C 0.77073 0.21596 0.08643 0.0
C5894 C 0.77194 0.19338 0.03745 0.0
C5895 C 0.78176 0.20675 0.97375 0.0
C5896 C 0.78025 0.20683 1.00006 0.0
C5897 C 0.77536 0.2066 0.0762 0.0
C5898 C 0.77767 0.2068 0.0501 0.0
H5899 H 0.78154 0.22548 0.92422 0.0
H5900 H 0.7784 0.22545 0.96704 0.0
H5901 H 0.76829 0.1828 1.00375 0.0
H5902 H 0.7713 0.18518 0.12449 0.0
H5903 H 0.78007 0.18886 0.08354 0.0
C5904 C 0.44164 0.21314 0.6097 0.0
C5905 C 0.43067 0.20155 0.62335 0.0
C5906 C 0.43904 0.21469 0.58587 0.0
C5907 C 0.41847 0.19043 0.53701 0.0
H5908 H 0.4312 0.22669 0.50133 0.0
C5909 C 0.40739 0.18852 0.43727 0.0
C5910 C 0.41745 0.20017 0.42258 0.0
C5911 C 0.40901 0.18947 0.46177 0.0
C5912 C 0.4278 0.21647 0.51094 0.0
H5913 H 0.40813 0.18302 0.62331 0.0
H5914 H 0.40348 0.18577 0.5817 0.0
H5915 H 0.43301 0.2277 0.54445 0.0
H5916 H 0.43733 0.2219 0.42242 0.0
H5917 H 0.44058 0.2233 0.46536 0.0
H5918 H 0.41387 0.17919 0.50387 0.0
C5919 C 0.41409 0.19368 0.5894 0.0
C5920 C 0.42871 0.21706 0.53569 0.0
C5921 C 0.41664 0.19226 0.61331 0.0
C5922 C 0.4294 0.21271 0.43316 0.0
C5923 C 0.43115 0.21357 0.45784 0.0
C5924 C 0.41778 0.18986 0.51235 0.0
C5925 C 0.42549 0.2045 0.57519 0.0
C5926 C 0.42394 0.20402 0.549 0.0
C5927 C 0.42089 0.20198 0.47252 0.0
C5928 C 0.42231 0.20284 0.49889 0.0
H5929 H 0.45266 0.2202 0.61693 0.0
H5930 H 0.44806 0.22307 0.57538 0.0
H5931 H 0.41508 0.18023 0.5467 0.0
H5932 H 0.3979 0.17875 0.42993 0.0
H5933 H 0.40063 0.18046 0.47229 0.0
C5934 C 0.7951 0.20837 0.43851 0.0
C5935 C 0.78479 0.20935 0.42353 0.0
C5936 C 0.7942 0.20928 0.46305 0.0
C5937 C 0.77922 0.22265 0.51007 0.0
H5938 H 0.78536 0.1957 0.5497 0.0
C5939 C 0.77496 0.22519 0.61074 0.0
C5940 C 0.78634 0.22496 0.62374 0.0
C5941 C 0.77253 0.22065 0.58708 0.0
C5942 C 0.7837 0.20338 0.53895 0.0
H5943 H 0.76558 0.21234 0.42282 0.0
H5944 H 0.76407 0.21405 0.46576 0.0
H5945 H 0.78619 0.19394 0.50679 0.0
H5946 H 0.80363 0.21917 0.62271 0.0
H5947 H 0.79949 0.21125 0.58149 0.0
H5948 H 0.77718 0.23241 0.54204 0.0
C5949 C 0.77287 0.21257 0.4584 0.0
C5950 C 0.78419 0.20237 0.51431 0.0
C5951 C 0.77371 0.21155 0.43378 0.0
C5952 C 0.79449 0.21903 0.61325 0.0
C5953 C 0.79218 0.21463 0.58949 0.0
C5954 C 0.77883 0.22372 0.53468 0.0
C5955 C 0.78302 0.21129 0.47334 0.0
C5956 C 0.78203 0.21205 0.49955 0.0
C5957 C 0.78161 0.21603 0.57578 0.0
C5958 C 0.7811 0.21413 0.54952 0.0
H5959 H 0.80381 0.20666 0.43136 0.0
H5960 H 0.80235 0.2085 0.47397 0.0
H5961 H 0.77774 0.23043 0.49927 0.0
H5962 H 0.76876 0.23002 0.61831 0.0
H5963 H 0.76404 0.22154 0.57731 0.0
C5964 C 0.76568 0.55176 0.61067 0.0
C5965 C 0.76515 0.56304 0.62353 0.0
C5966 C 0.77036 0.55404 0.58709 0.0
C5967 C 0.78739 0.58261 0.53921 0.0
H5968 H 0.76226 0.5491 0.49884 0.0
C5969 C 0.78478 0.58862 0.43804 0.0
C5970 C 0.78435 0.5774 0.42348 0.0
C5971 C 0.78336 0.58685 0.46256 0.0
C5972 C 0.76952 0.55851 0.50983 0.0
H5973 H 0.76967 0.58573 0.62223 0.0
H5974 H 0.77788 0.58982 0.58107 0.0
H5975 H 0.75932 0.54655 0.54153 0.0
H5976 H 0.78184 0.55538 0.42357 0.0
H5977 H 0.77929 0.55227 0.46649 0.0
H5978 H 0.79733 0.59466 0.50733 0.0
C5979 C 0.77495 0.57926 0.58919 0.0
C5980 C 0.76788 0.55705 0.53441 0.0
C5981 C 0.77037 0.577 0.61289 0.0
C5982 C 0.78222 0.56425 0.43418 0.0
C5983 C 0.78071 0.56245 0.4588 0.0
C5984 C 0.78898 0.58409 0.51459 0.0
C5985 C 0.77441 0.56759 0.57568 0.0
C5986 C 0.77678 0.56908 0.54949 0.0
C5987 C 0.7814 0.57379 0.47332 0.0
C5988 C 0.78002 0.57208 0.49957 0.0
H5989 H 0.76145 0.54082 0.61837 0.0
H5990 H 0.77013 0.54491 0.57749 0.0
H5991 H 0.79454 0.59208 0.55017 0.0
H5992 H 0.78639 0.59892 0.43054 0.0
H5993 H 0.78369 0.59571 0.4731 0.0
C5994 C 0.52475 0.08433 0.56759 0.0
C5995 C 0.53339 0.09858 0.55783 0.0
C5996 C 0.52657 0.08168 0.59132 0.0
C5997 C 0.55061 0.09772 0.64475 0.0
H5998 H 0.51306 0.07713 0.67816 0.0
C5999 C 0.5473 0.09782 0.74739 0.0
C6000 C 0.53667 0.08457 0.7584 0.0
C6001 C 0.54741 0.09937 0.72272 0.0
C6002 C 0.52368 0.08273 0.66917 0.0
H6003 H 0.55129 0.12092 0.56465 0.0
H6004 H 0.55474 0.11628 0.60581 0.0
H6005 H 0.51319 0.07901 0.63534 0.0
H6006 H 0.51775 0.06261 0.75181 0.0
H6007 H 0.5181 0.06523 0.70924 0.0
H6008 H 0.5611 0.10148 0.67866 0.0
C6009 C 0.54659 0.1071 0.59529 0.0
C6010 C 0.52375 0.08377 0.6445 0.0
C6011 C 0.5447 0.10976 0.57163 0.0
C6012 C 0.52607 0.07304 0.7441 0.0
C6013 C 0.52622 0.07457 0.71954 0.0
C6014 C 0.55055 0.09661 0.66946 0.0
C6015 C 0.5371 0.09322 0.60575 0.0
C6016 C 0.53721 0.0913 0.63192 0.0
C6017 C 0.53691 0.08772 0.70842 0.0
C6018 C 0.53707 0.08912 0.68206 0.0
H6019 H 0.51574 0.07561 0.55749 0.0
H6020 H 0.51922 0.07078 0.59869 0.0
H6021 H 0.56119 0.10354 0.63566 0.0
H6022 H 0.55565 0.10694 0.75778 0.0
H6023 H 0.5557 0.10976 0.71488 0.0
C6024 C 0.89641 0.45096 0.74913 0.0
C6025 C 0.90974 0.45309 0.75912 0.0
C6026 C 0.89419 0.44948 0.72462 0.0
C6027 C 0.91477 0.45799 0.66796 0.0
H6028 H 0.87678 0.42827 0.64237 0.0
C6029 C 0.90586 0.43965 0.56969 0.0
C6030 C 0.89163 0.43404 0.5599 0.0
C6031 C 0.90857 0.44438 0.59327 0.0
C6032 C 0.88738 0.43687 0.64912 0.0
H6033 H 0.93111 0.45512 0.75095 0.0
H6034 H 0.92718 0.45243 0.70846 0.0
H6035 H 0.8802 0.43098 0.68495 0.0
H6036 H 0.86936 0.42984 0.56635 0.0
H6037 H 0.87423 0.43891 0.60704 0.0
H6038 H 0.922 0.46384 0.63212 0.0
C6039 C 0.91851 0.45209 0.71952 0.0
C6040 C 0.88935 0.43835 0.67363 0.0
C6041 C 0.9207 0.45351 0.74398 0.0
C6042 C 0.8805 0.43441 0.57339 0.0
C6043 C 0.88324 0.4393 0.59686 0.0
C6044 C 0.91278 0.45657 0.64341 0.0
C6045 C 0.90528 0.45016 0.7095 0.0
C6046 C 0.90309 0.44887 0.68337 0.0
C6047 C 0.89709 0.44364 0.60749 0.0
C6048 C 0.89907 0.44594 0.63362 0.0
H6049 H 0.88773 0.45061 0.7602 0.0
H6050 H 0.8839 0.4481 0.71747 0.0
H6051 H 0.92545 0.46634 0.67487 0.0
H6052 H 0.91449 0.43905 0.55982 0.0
H6053 H 0.91934 0.44752 0.60076 0.0
C6054 C 0.55458 0.46469 0.56662 0.0
C6055 C 0.55952 0.45548 0.55695 0.0
C6056 C 0.55065 0.46346 0.59051 0.0
C6057 C 0.54207 0.44097 0.64488 0.0
H6058 H 0.5665 0.47909 0.67531 0.0
C6059 C 0.54768 0.44662 0.74721 0.0
C6060 C 0.54916 0.45967 0.75729 0.0
C6061 C 0.54834 0.44534 0.72259 0.0
C6062 C 0.55934 0.46837 0.66724 0.0
H6063 H 0.56317 0.43708 0.56395 0.0
H6064 H 0.5557 0.43449 0.6055 0.0
H6065 H 0.56625 0.47741 0.63254 0.0
H6066 H 0.55222 0.48148 0.74922 0.0
H6067 H 0.55277 0.47905 0.70692 0.0
H6068 H 0.53488 0.43195 0.67955 0.0
C6069 C 0.55492 0.44269 0.59472 0.0
C6070 C 0.55924 0.46744 0.64262 0.0
C6071 C 0.55906 0.44407 0.57091 0.0
C6072 C 0.55132 0.47135 0.74221 0.0
C6073 C 0.5517 0.46997 0.71775 0.0
C6074 C 0.54194 0.44195 0.66959 0.0
C6075 C 0.55143 0.45287 0.60503 0.0
C6076 C 0.55061 0.45375 0.63115 0.0
C6077 C 0.55025 0.45698 0.70748 0.0
C6078 C 0.55058 0.45569 0.68116 0.0
H6079 H 0.55517 0.47379 0.55636 0.0
H6080 H 0.54789 0.47138 0.59798 0.0
H6081 H 0.53537 0.43026 0.63647 0.0
H6082 H 0.54595 0.43739 0.75831 0.0
H6083 H 0.54739 0.43523 0.71546 0.0
C6084 C 0.5775 0.80379 0.57692 0.0
C6085 C 0.56894 0.79162 0.59194 0.0
C6086 C 0.57622 0.80221 0.55241 0.0
C6087 C 0.55169 0.78067 0.50421 0.0
H6088 H 0.58825 0.7963 0.46817 0.0
C6089 C 0.54951 0.77934 0.40276 0.0
C6090 C 0.5602 0.7923 0.39138 0.0
C6091 C 0.55132 0.77679 0.42652 0.0
C6092 C 0.57792 0.79198 0.47785 0.0
H6093 H 0.55188 0.76833 0.59267 0.0
H6094 H 0.54933 0.76572 0.54952 0.0
H6095 H 0.58921 0.79716 0.5112 0.0
H6096 H 0.58137 0.81249 0.39537 0.0
H6097 H 0.58452 0.80831 0.43673 0.0
H6098 H 0.54039 0.77621 0.47109 0.0
C6099 C 0.55717 0.77643 0.55701 0.0
C6100 C 0.57849 0.79242 0.50256 0.0
C6101 C 0.55862 0.77794 0.58168 0.0
C6102 C 0.57319 0.80219 0.40361 0.0
C6103 C 0.57491 0.79979 0.42745 0.0
C6104 C 0.55112 0.78043 0.47947 0.0
C6105 C 0.5662 0.78849 0.54215 0.0
C6106 C 0.5654 0.78694 0.51599 0.0
C6107 C 0.5637 0.78735 0.43954 0.0
C6108 C 0.56424 0.78624 0.46588 0.0
H6109 H 0.58561 0.81452 0.58402 0.0
H6110 H 0.58314 0.81176 0.54143 0.0
H6111 H 0.54145 0.77649 0.51411 0.0
H6112 H 0.53926 0.77174 0.39379 0.0
H6113 H 0.54262 0.76689 0.43495 0.0
C6114 C 0.18964 0.77342 0.57731 0.0
C6115 C 0.20253 0.77867 0.59125 0.0
C6116 C 0.19028 0.77254 0.55279 0.0
C6117 C 0.21669 0.78686 0.50196 0.0
H6118 H 0.18207 0.75699 0.46823 0.0
C6119 C 0.21209 0.77059 0.4015 0.0
C6120 C 0.19912 0.76833 0.39003 0.0
C6121 C 0.21441 0.77453 0.42548 0.0
C6122 C 0.19177 0.76549 0.47741 0.0
H6123 H 0.2262 0.78666 0.59006 0.0
H6124 H 0.22724 0.78453 0.5471 0.0
H6125 H 0.18235 0.75663 0.51113 0.0
H6126 H 0.17886 0.76917 0.3941 0.0
H6127 H 0.18286 0.77601 0.43592 0.0
H6128 H 0.22625 0.79517 0.46769 0.0
C6129 C 0.21665 0.78147 0.55522 0.0
C6130 C 0.19195 0.76534 0.50208 0.0
C6131 C 0.21604 0.78251 0.57993 0.0
C6132 C 0.18914 0.77126 0.40236 0.0
C6133 C 0.19131 0.77493 0.42638 0.0
C6134 C 0.21662 0.7868 0.47714 0.0
C6135 C 0.20379 0.77664 0.54126 0.0
C6136 C 0.20428 0.77618 0.51482 0.0
C6137 C 0.20362 0.77593 0.43841 0.0
C6138 C 0.20404 0.77627 0.46466 0.0
H6139 H 0.17901 0.77041 0.58522 0.0
H6140 H 0.18016 0.76908 0.54287 0.0
H6141 H 0.22634 0.79549 0.51101 0.0
H6142 H 0.2197 0.76796 0.39254 0.0
H6143 H 0.22395 0.77515 0.43437 0.0
C6144 C 0.21521 0.41282 0.57335 0.0
C6145 C 0.21418 0.42287 0.58889 0.0
C6146 C 0.21571 0.41491 0.54893 0.0
C6147 C 0.2254 0.44261 0.50245 0.0
H6148 H 0.19994 0.40845 0.46347 0.0
C6149 C 0.22862 0.44788 0.40132 0.0
C6150 C 0.22876 0.4362 0.38908 0.0
C6151 C 0.22394 0.44608 0.42489 0.0
C6152 C 0.20722 0.41809 0.474 0.0
H6153 H 0.21329 0.44326 0.59068 0.0
H6154 H 0.21459 0.44712 0.54773 0.0
H6155 H 0.19849 0.40617 0.50641 0.0
H6156 H 0.22357 0.41333 0.39137 0.0
H6157 H 0.21555 0.41011 0.43247 0.0
H6158 H 0.23468 0.45439 0.47027 0.0
C6159 C 0.21485 0.43754 0.5547 0.0
C6160 C 0.20635 0.41679 0.49865 0.0
C6161 C 0.21412 0.43534 0.57927 0.0
C6162 C 0.22317 0.42237 0.40026 0.0
C6163 C 0.21867 0.4206 0.42394 0.0
C6164 C 0.22642 0.44388 0.47778 0.0
C6165 C 0.21538 0.42718 0.53927 0.0
C6166 C 0.21556 0.42897 0.51315 0.0
C6167 C 0.21959 0.43263 0.43691 0.0
C6168 C 0.21746 0.43159 0.46316 0.0
H6169 H 0.2152 0.40303 0.57995 0.0
H6170 H 0.21635 0.40685 0.53754 0.0
H6171 H 0.23274 0.45215 0.51315 0.0
H6172 H 0.23315 0.45874 0.39317 0.0
H6173 H 0.22446 0.45549 0.43401 0.0
C6174 C 0.46769 0.90933 0.44707 0.0
C6175 C 0.45807 0.89551 0.45746 0.0
C6176 C 0.46629 0.91176 0.42309 0.0
C6177 C 0.44249 0.89725 0.36967 0.0
H6178 H 0.48012 0.91138 0.33742 0.0
C6179 C 0.44634 0.89679 0.26703 0.0
C6180 C 0.45873 0.90894 0.25647 0.0
C6181 C 0.44567 0.89478 0.29166 0.0
C6182 C 0.46953 0.90764 0.34603 0.0
H6183 H 0.43888 0.87379 0.45153 0.0
H6184 H 0.43605 0.87819 0.40986 0.0
H6185 H 0.47924 0.91018 0.38029 0.0
H6186 H 0.48024 0.92834 0.26382 0.0
H6187 H 0.47891 0.92509 0.30614 0.0
H6188 H 0.43279 0.8949 0.33538 0.0
C6189 C 0.44469 0.88715 0.42013 0.0
C6190 C 0.46904 0.90697 0.37071 0.0
C6191 C 0.4462 0.88466 0.44404 0.0
C6192 C 0.47053 0.91878 0.27113 0.0
C6193 C 0.46981 0.91686 0.29561 0.0
C6194 C 0.443 0.89811 0.3449 0.0
C6195 C 0.45516 0.90045 0.40911 0.0
C6196 C 0.45555 0.90181 0.38286 0.0
C6197 C 0.45734 0.90491 0.30633 0.0
C6198 C 0.45655 0.90337 0.3327 0.0
H6199 H 0.47713 0.91773 0.45687 0.0
H6200 H 0.47442 0.9222 0.41517 0.0
H6201 H 0.43192 0.89319 0.37852 0.0
H6202 H 0.43701 0.88901 0.25636 0.0
H6203 H 0.43597 0.88531 0.29916 0.0
C6204 C 0.0885 0.55493 0.44631 0.0
C6205 C 0.10249 0.5602 0.45685 0.0
C6206 C 0.08627 0.55063 0.42253 0.0
C6207 C 0.10871 0.55834 0.36764 0.0
H6208 H 0.07023 0.53199 0.33971 0.0
C6209 C 0.09869 0.54664 0.26629 0.0
C6210 C 0.08664 0.54766 0.2571 0.0
C6211 C 0.10105 0.54714 0.2908 0.0
C6212 C 0.08106 0.5394 0.34728 0.0
H6213 H 0.12476 0.56416 0.45148 0.0
H6214 H 0.12065 0.55564 0.41049 0.0
H6215 H 0.07304 0.53283 0.38255 0.0
H6216 H 0.06768 0.55006 0.26665 0.0
H6217 H 0.07173 0.55074 0.30903 0.0
H6218 H 0.11666 0.56474 0.33216 0.0
C6219 C 0.1115 0.55529 0.42019 0.0
C6220 C 0.08268 0.53993 0.37188 0.0
C6221 C 0.11379 0.55982 0.44387 0.0
C6222 C 0.07714 0.54934 0.27298 0.0
C6223 C 0.07935 0.54958 0.29735 0.0
C6224 C 0.10712 0.55761 0.34302 0.0
C6225 C 0.09795 0.55138 0.40881 0.0
C6226 C 0.09648 0.54959 0.3825 0.0
C6227 C 0.09124 0.54836 0.30657 0.0
C6228 C 0.09323 0.54833 0.33259 0.0
H6229 H 0.07976 0.55556 0.45576 0.0
H6230 H 0.07572 0.54787 0.41456 0.0
H6231 H 0.11945 0.56619 0.37497 0.0
H6232 H 0.1062 0.54531 0.2546 0.0
H6233 H 0.11031 0.54617 0.29744 0.0
C6234 C 0.43601 0.55019 0.44494 0.0
C6235 C 0.43347 0.53765 0.45804 0.0
C6236 C 0.43991 0.55141 0.42101 0.0
C6237 C 0.43105 0.52671 0.37138 0.0
H6238 H 0.4606 0.56076 0.33626 0.0
C6239 C 0.43786 0.52307 0.27119 0.0
C6240 C 0.44261 0.53578 0.25698 0.0
C6241 C 0.43756 0.524 0.29577 0.0
C6242 C 0.4521 0.55122 0.3457 0.0
H6243 H 0.43369 0.51695 0.45692 0.0
H6244 H 0.44047 0.51903 0.4151 0.0
H6245 H 0.46024 0.56173 0.37944 0.0
H6246 H 0.45049 0.55943 0.25767 0.0
H6247 H 0.44928 0.56096 0.30065 0.0
H6248 H 0.42234 0.51638 0.33808 0.0
C6249 C 0.43962 0.52799 0.42335 0.0
C6250 C 0.45202 0.55176 0.37047 0.0
C6251 C 0.43599 0.52691 0.44734 0.0
C6252 C 0.44675 0.54942 0.26807 0.0
C6253 C 0.44621 0.55031 0.29277 0.0
C6254 C 0.43093 0.52627 0.3467 0.0
C6255 C 0.441 0.53993 0.40973 0.0
C6256 C 0.44159 0.53944 0.38354 0.0
C6257 C 0.44173 0.53761 0.30701 0.0
C6258 C 0.44154 0.53845 0.33343 0.0
H6259 H 0.43373 0.55838 0.45267 0.0
H6260 H 0.44082 0.56069 0.4109 0.0
H6261 H 0.42264 0.51718 0.38098 0.0
H6262 H 0.4348 0.51239 0.26341 0.0
H6263 H 0.4344 0.51401 0.30592 0.0
C6264 C 0.08265 0.52572 0.94552 0.0
C6265 C 0.09693 0.53453 0.95508 0.0
C6266 C 0.07979 0.52747 0.92186 0.0
C6267 C 0.09538 0.55178 0.86857 0.0
H6268 H 0.07463 0.51441 0.83463 0.0
C6269 C 0.0959 0.54916 0.76609 0.0
C6270 C 0.08266 0.53877 0.75477 0.0
C6271 C 0.09729 0.549 0.79076 0.0
C6272 C 0.08028 0.52497 0.84379 0.0
H6273 H 0.11913 0.55259 0.94794 0.0
H6274 H 0.11415 0.55591 0.90693 0.0
H6275 H 0.07664 0.5143 0.87745 0.0
H6276 H 0.06055 0.51997 0.7608 0.0
H6277 H 0.0629 0.51985 0.80343 0.0
H6278 H 0.0991 0.56245 0.83486 0.0
C6279 C 0.10508 0.54769 0.91755 0.0
C6280 C 0.08139 0.52491 0.86845 0.0
C6281 C 0.10795 0.54588 0.94113 0.0
C6282 C 0.07096 0.52811 0.76876 0.0
C6283 C 0.07233 0.52799 0.79334 0.0
C6284 C 0.09423 0.55185 0.84389 0.0
C6285 C 0.09115 0.5381 0.9073 0.0
C6286 C 0.08901 0.5383 0.8812 0.0
C6287 C 0.08547 0.53848 0.80475 0.0
C6288 C 0.08672 0.53844 0.83111 0.0
H6289 H 0.07406 0.51668 0.95574 0.0
H6290 H 0.06886 0.52004 0.91466 0.0
H6291 H 0.10123 0.56231 0.87779 0.0
H6292 H 0.10514 0.55753 0.75595 0.0
H6293 H 0.10767 0.55712 0.79883 0.0
C6294 C 0.44593 0.54812 0.76749 0.0
C6295 C 0.45715 0.54594 0.75762 0.0
C6296 C 0.44506 0.54952 0.79203 0.0
C6297 C 0.45623 0.53967 0.84828 0.0
H6298 H 0.44827 0.56907 0.87603 0.0
C6299 C 0.46583 0.55553 0.94743 0.0
C6300 C 0.45765 0.56136 0.9581 0.0
C6301 C 0.46364 0.55139 0.92355 0.0
C6302 C 0.45019 0.56056 0.86866 0.0
H6303 H 0.47655 0.54408 0.76607 0.0
H6304 H 0.47506 0.54661 0.80855 0.0
H6305 H 0.44916 0.56729 0.8332 0.0
H6306 H 0.44012 0.56652 0.95277 0.0
H6307 H 0.4356 0.55848 0.91154 0.0
H6308 H 0.45725 0.53288 0.88362 0.0
C6309 C 0.46679 0.547 0.79737 0.0
C6310 C 0.45078 0.55961 0.84402 0.0
C6311 C 0.46771 0.54568 0.77291 0.0
C6312 C 0.44637 0.56178 0.94506 0.0
C6313 C 0.44405 0.55749 0.92126 0.0
C6314 C 0.45552 0.54052 0.87291 0.0
C6315 C 0.45532 0.54868 0.8073 0.0
C6316 C 0.45401 0.5493 0.83351 0.0
C6317 C 0.45314 0.55292 0.90984 0.0
C6318 C 0.45265 0.55109 0.88352 0.0
H6319 H 0.43758 0.54835 0.75633 0.0
H6320 H 0.43607 0.55078 0.79909 0.0
H6321 H 0.45848 0.5314 0.84077 0.0
H6322 H 0.47489 0.55551 0.95691 0.0
H6323 H 0.47098 0.54806 0.9155 0.0
C6324 C 0.45191 0.92079 0.77176 0.0
C6325 C 0.45093 0.90935 0.75717 0.0
C6326 C 0.45048 0.91904 0.79625 0.0
C6327 C 0.45218 0.89623 0.84563 0.0
H6328 H 0.43286 0.91409 0.88022 0.0
C6329 C 0.43195 0.88237 0.94277 0.0
C6330 C 0.4327 0.89383 0.95691 0.0
C6331 C 0.43665 0.88506 0.91921 0.0
C6332 C 0.43851 0.90924 0.87089 0.0
H6333 H 0.44746 0.88696 0.75713 0.0
H6334 H 0.44452 0.88371 0.79995 0.0
H6335 H 0.43476 0.91634 0.83745 0.0
H6336 H 0.43961 0.91723 0.95803 0.0
H6337 H 0.44806 0.92205 0.9169 0.0
H6338 H 0.45546 0.88874 0.87926 0.0
C6339 C 0.44674 0.8942 0.7924 0.0
C6340 C 0.43959 0.91051 0.84628 0.0
C6341 C 0.4483 0.89601 0.7678 0.0
C6342 C 0.43923 0.90828 0.94763 0.0
C6343 C 0.44381 0.91096 0.92398 0.0
C6344 C 0.45097 0.89485 0.87028 0.0
C6345 C 0.44788 0.90574 0.80699 0.0
C6346 C 0.44648 0.90406 0.83326 0.0
C6347 C 0.442 0.89924 0.90925 0.0
C6348 C 0.44416 0.90138 0.88321 0.0
H6349 H 0.45406 0.93129 0.76432 0.0
H6350 H 0.45173 0.9283 0.80679 0.0
H6351 H 0.45776 0.8913 0.83632 0.0
H6352 H 0.42663 0.87107 0.94942 0.0
H6353 H 0.43501 0.87577 0.90835 0.0
C6354 C 0.19067 0.4205 0.90165 0.0
C6355 C 0.20142 0.43296 0.88922 0.0
C6356 C 0.19271 0.41868 0.92559 0.0
C6357 C 0.21834 0.42986 0.97582 0.0
H6358 H 0.18621 0.42983 0.01066 0.0
C6359 C 0.22006 0.43616 0.0784 0.0
C6360 C 0.20647 0.42862 0.09062 0.0
C6361 C 0.22034 0.43672 0.05357 0.0
C6362 C 0.19517 0.42952 1.00141 0.0
H6363 H 0.22308 0.45273 0.89145 0.0
H6364 H 0.227 0.44916 0.9332 0.0
H6365 H 0.18535 0.42886 0.96783 0.0
H6366 H 0.18254 0.41545 0.08609 0.0
H6367 H 0.18303 0.41588 0.04349 0.0
H6368 H 0.22798 0.43006 0.0094 0.0
C6369 C 0.217 0.44086 0.92443 0.0
C6370 C 0.19467 0.42903 0.97675 0.0
C6371 C 0.21484 0.44283 0.90052 0.0
C6372 C 0.19323 0.42163 0.07741 0.0
C6373 C 0.19351 0.42194 0.05276 0.0
C6374 C 0.2187 0.43003 1.00064 0.0
C6375 C 0.20562 0.42919 0.93745 0.0
C6376 C 0.20621 0.42916 0.96368 0.0
C6377 C 0.20704 0.42955 0.04035 0.0
C6378 C 0.20707 0.42981 0.01384 0.0
H6379 H 0.18008 0.41298 0.89348 0.0
H6380 H 0.18378 0.40957 0.93522 0.0
H6381 H 0.22742 0.43005 0.96611 0.0
H6382 H 0.23048 0.44159 0.088 0.0
H6383 H 0.23099 0.44286 0.0448 0.0
C6384 C 0.5859 0.7851 0.07603 0.0
C6385 C 0.57473 0.78417 0.09121 0.0
C6386 C 0.58391 0.78411 0.05155 0.0
C6387 C 0.55538 0.77034 1.00499 0.0
H6388 H 0.5881 0.79754 0.965 0.0
C6389 C 0.54851 0.76691 0.90428 0.0
C6390 C 0.5603 0.76741 0.89142 0.0
C6391 C 0.5505 0.77157 0.92786 0.0
C6392 C 0.57887 0.78979 0.97585 0.0
H6393 H 0.55251 0.78116 0.09233 0.0
H6394 H 0.54896 0.77924 0.04942 0.0
H6395 H 0.59079 0.7996 0.00788 0.0
H6396 H 0.58354 0.77379 0.8926 0.0
H6397 H 0.5871 0.78191 0.93372 0.0
H6398 H 0.54361 0.76017 0.97315 0.0
C6399 C 0.5593 0.78078 0.05662 0.0
C6400 C 0.58042 0.79097 1.00047 0.0
C6401 C 0.56135 0.78191 0.0812 0.0
C6402 C 0.57439 0.77369 0.90197 0.0
C6403 C 0.57636 0.77822 0.92565 0.0
C6404 C 0.55387 0.76907 0.98039 0.0
C6405 C 0.57064 0.78205 0.0415 0.0
C6406 C 0.56873 0.78119 0.01534 0.0
C6407 C 0.56426 0.7766 0.93922 0.0
C6408 C 0.56561 0.77873 0.96544 0.0
H6409 H 0.59638 0.78687 0.083 0.0
H6410 H 0.59277 0.78488 0.04046 0.0
H6411 H 0.54624 0.7625 0.01592 0.0
H6412 H 0.53747 0.76184 0.89664 0.0
H6413 H 0.54101 0.7705 0.93752 0.0
C6414 C 0.21915 0.80605 0.07724 0.0
C6415 C 0.21502 0.79345 0.09144 0.0
C6416 C 0.22008 0.80532 0.05275 0.0
C6417 C 0.2075 0.77837 1.00281 0.0
H6418 H 0.23573 0.81338 0.96801 0.0
C6419 C 0.22383 0.7807 0.90362 0.0
C6420 C 0.22628 0.7933 0.8908 0.0
C6421 C 0.21971 0.77918 0.92746 0.0
C6422 C 0.22764 0.80357 0.97746 0.0
H6423 H 0.20918 0.77028 0.09081 0.0
H6424 H 0.21144 0.76916 0.04794 0.0
H6425 H 0.23592 0.8139 0.01091 0.0
H6426 H 0.22554 0.81373 0.89221 0.0
H6427 H 0.21829 0.81109 0.93386 0.0
H6428 H 0.19976 0.76792 0.96895 0.0
C6429 C 0.21354 0.77953 0.05582 0.0
C6430 C 0.22773 0.80385 1.00213 0.0
C6431 C 0.21243 0.78022 0.08046 0.0
C6432 C 0.22335 0.80373 0.90159 0.0
C6433 C 0.21946 0.80234 0.9255 0.0
C6434 C 0.2076 0.77802 0.97803 0.0
C6435 C 0.21716 0.79204 0.04158 0.0
C6436 C 0.21756 0.79132 0.01522 0.0
C6437 C 0.21827 0.79039 0.93892 0.0
C6438 C 0.21757 0.79068 0.96513 0.0
H6439 H 0.22117 0.81646 0.0849 0.0
H6440 H 0.22263 0.81514 0.04256 0.0
H6441 H 0.19936 0.76856 0.01216 0.0
H6442 H 0.2264 0.77273 0.8958 0.0
H6443 H 0.21894 0.7699 0.9374 0.0
C6444 C 0.35811 0.176 0.25322 0.0
C6445 C 0.3694 0.19081 0.24971 0.0
C6446 C 0.34561 0.16983 0.23888 0.0
C6447 C 0.32759 0.17644 0.18809 0.0
H6448 H 0.33106 0.14395 0.16077 0.0
C6449 C 0.30072 0.1537 0.10151 0.0
C6450 C 0.28974 0.13868 0.10395 0.0
C6451 C 0.31264 0.15997 0.11703 0.0
C6452 C 0.33004 0.15301 0.16824 0.0
H6453 H 0.37519 0.21146 0.23174 0.0
H6454 H 0.35371 0.20048 0.20584 0.0
H6455 H 0.34333 0.15487 0.19811 0.0
H6456 H 0.28388 0.11789 0.12149 0.0
H6457 H 0.30438 0.12902 0.14937 0.0
H6458 H 0.31432 0.17459 0.15816 0.0
C6459 C 0.35449 0.19367 0.21965 0.0
C6460 C 0.33679 0.15908 0.18972 0.0
C6461 C 0.3669 0.19991 0.23425 0.0
C6462 C 0.29198 0.12959 0.1198 0.0
C6463 C 0.30381 0.13592 0.13553 0.0
C6464 C 0.32081 0.17035 0.16661 0.0
C6465 C 0.34447 0.17833 0.22066 0.0
C6466 C 0.33559 0.17082 0.19977 0.0
C6467 C 0.3135 0.15134 0.13529 0.0
C6468 C 0.32206 0.15865 0.15653 0.0
H6469 H 0.35957 0.16866 0.26509 0.0
H6470 H 0.33774 0.15803 0.24022 0.0
H6471 H 0.32665 0.18555 0.19551 0.0
H6472 H 0.29938 0.16099 0.08933 0.0
H6473 H 0.32029 0.17185 0.11628 0.0
C6474 C 0.82238 0.1913 0.24102 0.0
C6475 C 0.80699 0.18539 0.24286 0.0
C6476 C 0.82792 0.18469 0.22596 0.0
C6477 C 0.81668 0.16644 0.17015 0.0
H6478 H 0.85204 0.163 0.17528 0.0
C6479 C 0.83655 0.13866 0.104 0.0
C6480 C 0.85195 0.14456 0.10224 0.0
C6481 C 0.831 0.14557 0.11843 0.0
C6482 C 0.84232 0.16422 0.1736 0.0
H6483 H 0.78531 0.16711 0.23343 0.0
H6484 H 0.795 0.1554 0.20708 0.0
H6485 H 0.84185 0.16799 0.21065 0.0
H6486 H 0.8736 0.16311 0.11094 0.0
H6487 H 0.86391 0.17528 0.13628 0.0
H6488 H 0.81712 0.16259 0.13311 0.0
C6489 C 0.80273 0.16528 0.2168 0.0
C6490 C 0.83642 0.16685 0.1938 0.0
C6491 C 0.79721 0.17194 0.23174 0.0
C6492 C 0.86171 0.15829 0.11261 0.0
C6493 C 0.85619 0.16523 0.12695 0.0
C6494 C 0.82257 0.1638 0.14996 0.0
C6495 C 0.81806 0.17214 0.21278 0.0
C6496 C 0.82356 0.16794 0.19217 0.0
C6497 C 0.84087 0.15837 0.13107 0.0
C6498 C 0.83543 0.16272 0.15159 0.0
H6499 H 0.83007 0.20167 0.24962 0.0
H6500 H 0.83981 0.19014 0.22306 0.0
H6501 H 0.80694 0.16763 0.16848 0.0
H6502 H 0.82886 0.12807 0.09599 0.0
H6503 H 0.81912 0.14012 0.12144 0.0
C6504 C 0.83414 0.70094 0.11523 0.0
C6505 C 0.84725 0.70433 0.10323 0.0
C6506 C 0.82789 0.68906 0.13085 0.0
C6507 C 0.83076 0.65798 0.15578 0.0
H6508 H 0.83038 0.67621 0.2156 0.0
C6509 C 0.82619 0.62748 0.23882 0.0
C6510 C 0.81279 0.6239 0.25002 0.0
C6511 C 0.83292 0.6397 0.22391 0.0
C6512 C 0.83055 0.67108 0.199 0.0
H6513 H 0.86306 0.69706 0.09533 0.0
H6514 H 0.85221 0.67634 0.12284 0.0
H6515 H 0.83298 0.68947 0.17872 0.0
H6516 H 0.79697 0.6312 0.25751 0.0
H6517 H 0.80863 0.65252 0.23121 0.0
H6518 H 0.8283 0.63959 0.17604 0.0
C6519 C 0.84672 0.68278 0.12022 0.0
C6520 C 0.83175 0.67848 0.17797 0.0
C6521 C 0.85295 0.69464 0.10455 0.0
C6522 C 0.80728 0.63375 0.24886 0.0
C6523 C 0.81398 0.64596 0.2339 0.0
C6524 C 0.82957 0.65059 0.17681 0.0
C6525 C 0.83481 0.68061 0.13459 0.0
C6526 C 0.83181 0.67194 0.15626 0.0
C6527 C 0.82617 0.6483 0.22009 0.0
C6528 C 0.82947 0.65712 0.19852 0.0
H6529 H 0.82943 0.70814 0.11397 0.0
H6530 H 0.81847 0.6873 0.1415 0.0
H6531 H 0.83086 0.65282 0.13919 0.0
H6532 H 0.83075 0.62017 0.24002 0.0
H6533 H 0.84252 0.64157 0.21369 0.0
C6534 C 0.19223 0.37274 0.28487 0.0
C6535 C 0.18261 0.37716 0.27536 0.0
C6536 C 0.1866 0.36007 0.29868 0.0
C6537 C 0.15716 0.34123 0.34 0.0
H6538 H 0.17106 0.31286 0.3426 0.0
C6539 C 0.13335 0.28971 0.39859 0.0
C6540 C 0.14334 0.2857 0.40791 0.0
C6541 C 0.13852 0.30222 0.3845 0.0
C6542 C 0.16733 0.32092 0.34221 0.0
H6543 H 0.15966 0.37153 0.27076 0.0
H6544 H 0.14968 0.34914 0.2953 0.0
H6545 H 0.1778 0.32971 0.30896 0.0
H6546 H 0.16649 0.29199 0.41206 0.0
H6547 H 0.17568 0.31411 0.38703 0.0
H6548 H 0.1467 0.33243 0.37328 0.0
C6549 C 0.16155 0.35556 0.29216 0.0
C6550 C 0.17099 0.33034 0.32292 0.0
C6551 C 0.1672 0.36824 0.27819 0.0
C6552 C 0.15866 0.29494 0.40475 0.0
C6553 C 0.16386 0.30746 0.39051 0.0
C6554 C 0.15348 0.33179 0.3593 0.0
C6555 C 0.1713 0.35176 0.30315 0.0
C6556 C 0.16597 0.34057 0.32179 0.0
C6557 C 0.15374 0.31077 0.37958 0.0
C6558 C 0.15862 0.32165 0.36052 0.0
H6559 H 0.20413 0.37944 0.28247 0.0
H6560 H 0.19431 0.35735 0.30712 0.0
H6561 H 0.15347 0.34932 0.33966 0.0
H6562 H 0.1215 0.28276 0.40126 0.0
H6563 H 0.13054 0.30459 0.37615 0.0
C6564 C 0.62677 0.79997 0.27581 0.0
C6565 C 0.61756 0.80598 0.27167 0.0
C6566 C 0.63964 0.80796 0.28912 0.0
C6567 C 0.65084 0.83322 0.33781 0.0
H6568 H 0.68911 0.83573 0.33037 0.0
C6569 C 0.70116 0.86533 0.3992 0.0
C6570 C 0.70984 0.8587 0.40314 0.0
C6571 C 0.68897 0.8585 0.38414 0.0
C6572 C 0.67837 0.83491 0.3327 0.0
H6573 H 0.61506 0.82533 0.27516 0.0
H6574 H 0.63762 0.83943 0.29845 0.0
H6575 H 0.67127 0.82622 0.29789 0.0
H6576 H 0.71206 0.83933 0.39711 0.0
H6577 H 0.69058 0.82719 0.37104 0.0
H6578 H 0.65784 0.8417 0.37273 0.0
C6579 C 0.63478 0.8285 0.29198 0.0
C6580 C 0.66831 0.82963 0.31413 0.0
C6581 C 0.62193 0.82049 0.27884 0.0
C6582 C 0.70559 0.84467 0.39374 0.0
C6583 C 0.69339 0.8378 0.37891 0.0
C6584 C 0.66089 0.83847 0.35639 0.0
C6585 C 0.64328 0.82197 0.29815 0.0
C6586 C 0.65449 0.82872 0.31665 0.0
C6587 C 0.68546 0.845 0.37319 0.0
C6588 C 0.67465 0.83923 0.35397 0.0
H6589 H 0.62353 0.78879 0.27011 0.0
H6590 H 0.6461 0.80276 0.29376 0.0
H6591 H 0.64005 0.83228 0.34022 0.0
H6592 H 0.70432 0.87614 0.40659 0.0
H6593 H 0.68292 0.86418 0.37993 0.0
C6594 C 0.18407 0.82233 0.2699 0.0
C6595 C 0.17938 0.80712 0.27119 0.0
C6596 C 0.17811 0.82839 0.28525 0.0
C6597 C 0.15131 0.8203 0.33315 0.0
H6598 H 0.18618 0.85048 0.36639 0.0
C6599 C 0.14286 0.84017 0.41912 0.0
C6600 C 0.14722 0.85529 0.41699 0.0
C6601 C 0.14936 0.83415 0.40483 0.0
C6602 C 0.17641 0.84202 0.3573 0.0
H6603 H 0.16334 0.78594 0.28649 0.0
H6604 H 0.15327 0.7966 0.31393 0.0
H6605 H 0.18914 0.84099 0.3286 0.0
H6606 H 0.16335 0.87638 0.4016 0.0
H6607 H 0.17433 0.86578 0.37596 0.0
H6608 H 0.13858 0.82134 0.36178 0.0
C6609 C 0.16147 0.80383 0.30115 0.0
C6610 C 0.17803 0.8368 0.33557 0.0
C6611 C 0.16736 0.79776 0.28569 0.0
C6612 C 0.15957 0.86464 0.40304 0.0
C6613 C 0.16598 0.8586 0.38861 0.0
C6614 C 0.14969 0.82551 0.35487 0.0
C6615 C 0.16759 0.81929 0.30208 0.0
C6616 C 0.16548 0.82594 0.32338 0.0
C6617 C 0.16006 0.84316 0.38816 0.0
C6618 C 0.16224 0.83638 0.36707 0.0
H6619 H 0.19326 0.82978 0.25868 0.0
H6620 H 0.18272 0.84034 0.28548 0.0
H6621 H 0.14154 0.81188 0.32401 0.0
H6622 H 0.13343 0.83269 0.42988 0.0
H6623 H 0.1449 0.82222 0.40499 0.0
C6624 C 0.62306 0.80041 0.77858 0.0
C6625 C 0.61873 0.81045 0.77063 0.0
C6626 C 0.63565 0.80541 0.79247 0.0
C6627 C 0.66775 0.83808 0.81793 0.0
H6628 H 0.65377 0.81547 0.8763 0.0
C6629 C 0.70119 0.86023 0.90089 0.0
C6630 C 0.70541 0.85041 0.91023 0.0
C6631 C 0.6891 0.85495 0.88581 0.0
C6632 C 0.65777 0.82181 0.86008 0.0
H6633 H 0.62474 0.8336 0.76812 0.0
H6634 H 0.64678 0.84244 0.79298 0.0
H6635 H 0.63821 0.80687 0.84105 0.0
H6636 H 0.69971 0.82739 0.91379 0.0
H6637 H 0.67851 0.81806 0.88693 0.0
H6638 H 0.68728 0.85305 0.83702 0.0
C6639 C 0.64052 0.83075 0.7884 0.0
C6640 C 0.64903 0.81684 0.83992 0.0
C6641 C 0.62793 0.82573 0.77437 0.0
C6642 C 0.69657 0.83508 0.90653 0.0
C6643 C 0.68448 0.82978 0.8913 0.0
C6644 C 0.6765 0.84304 0.83809 0.0
C6645 C 0.64389 0.82047 0.7986 0.0
C6646 C 0.65397 0.82497 0.81878 0.0
C6647 C 0.68126 0.83983 0.87988 0.0
C6648 C 0.6715 0.83497 0.85929 0.0
H6649 H 0.61621 0.78865 0.77528 0.0
H6650 H 0.6383 0.79739 0.79987 0.0
H6651 H 0.67168 0.84447 0.80175 0.0
H6652 H 0.70779 0.87206 0.90407 0.0
H6653 H 0.68651 0.86279 0.87751 0.0
C6654 C 0.13245 0.84043 0.90273 0.0
C6655 C 0.14205 0.85452 0.91214 0.0
C6656 C 0.13806 0.83362 0.88831 0.0
C6657 C 0.17164 0.83541 0.8648 0.0
H6658 H 0.15049 0.82736 0.80504 0.0
C6659 C 0.195 0.82339 0.78378 0.0
C6660 C 0.18502 0.80956 0.77393 0.0
C6661 C 0.18977 0.83047 0.7984 0.0
C6662 C 0.15644 0.82957 0.82164 0.0
H6663 H 0.16497 0.87196 0.91643 0.0
H6664 H 0.17487 0.8601 0.89075 0.0
H6665 H 0.14106 0.83403 0.83961 0.0
H6666 H 0.16188 0.79282 0.76923 0.0
H6667 H 0.15264 0.80506 0.79539 0.0
H6668 H 0.18698 0.83087 0.84687 0.0
C6669 C 0.16307 0.85429 0.8946 0.0
C6670 C 0.151 0.83319 0.84139 0.0
C6671 C 0.15745 0.86108 0.90914 0.0
C6672 C 0.16968 0.80349 0.77689 0.0
C6673 C 0.16444 0.81051 0.79168 0.0
C6674 C 0.17706 0.83175 0.84505 0.0
C6675 C 0.15328 0.84094 0.88314 0.0
C6676 C 0.15854 0.83605 0.86306 0.0
C6677 C 0.17455 0.82364 0.80341 0.0
C6678 C 0.16948 0.82882 0.82339 0.0
H6679 H 0.12057 0.83514 0.90536 0.0
H6680 H 0.13041 0.82315 0.87991 0.0
H6681 H 0.17758 0.83763 0.8814 0.0
H6682 H 0.20685 0.82831 0.78116 0.0
H6683 H 0.19768 0.84077 0.80696 0.0
C6684 C 0.14728 0.28477 0.89294 0.0
C6685 C 0.13361 0.2816 0.90264 0.0
C6686 C 0.15551 0.29761 0.87994 0.0
C6687 C 0.16164 0.31656 0.83721 0.0
H6688 H 0.16829 0.35582 0.85238 0.0
C6689 C 0.17751 0.37494 0.78975 0.0
C6690 C 0.19094 0.37838 0.77882 0.0
C6691 C 0.17044 0.36262 0.80426 0.0
C6692 C 0.16636 0.34484 0.84795 0.0
H6693 H 0.11807 0.28948 0.90804 0.0
H6694 H 0.13238 0.31202 0.88434 0.0
H6695 H 0.15689 0.33603 0.88177 0.0
H6696 H 0.2072 0.3715 0.77278 0.0
H6697 H 0.19485 0.34978 0.79881 0.0
H6698 H 0.17096 0.32531 0.80332 0.0
C6699 C 0.13676 0.30461 0.88708 0.0
C6700 C 0.15993 0.33363 0.86469 0.0
C6701 C 0.12856 0.29176 0.90037 0.0
C6702 C 0.19686 0.36896 0.78133 0.0
C6703 C 0.18982 0.35662 0.79604 0.0
C6704 C 0.16806 0.32777 0.82047 0.0
C6705 C 0.15005 0.30732 0.87627 0.0
C6706 C 0.15749 0.31943 0.85934 0.0
C6707 C 0.17682 0.35369 0.80808 0.0
C6708 C 0.17033 0.34191 0.82571 0.0
H6709 H 0.15145 0.27717 0.89502 0.0
H6710 H 0.16591 0.29971 0.87213 0.0
H6711 H 0.15959 0.30555 0.83264 0.0
H6712 H 0.17269 0.38199 0.78752 0.0
H6713 H 0.1602 0.36028 0.81298 0.0
C6714 C 0.81824 0.63414 0.75295 0.0
C6715 C 0.80305 0.62353 0.75184 0.0
C6716 C 0.82391 0.64674 0.73888 0.0
C6717 C 0.81588 0.65191 0.6804 0.0
H6718 H 0.84867 0.69221 0.6874 0.0
C6719 C 0.83686 0.69715 0.61031 0.0
C6720 C 0.85204 0.70775 0.61059 0.0
C6721 C 0.83133 0.68531 0.62598 0.0
C6722 C 0.83969 0.68086 0.68527 0.0
H6723 H 0.78157 0.6187 0.73848 0.0
H6724 H 0.79151 0.64076 0.71361 0.0
H6725 H 0.83666 0.6775 0.72261 0.0
H6726 H 0.87366 0.71348 0.62472 0.0
H6727 H 0.86393 0.69269 0.65232 0.0
H6728 H 0.81897 0.6552 0.64309 0.0
C6729 C 0.799 0.6392 0.72505 0.0
C6730 C 0.83271 0.67262 0.70532 0.0
C6731 C 0.79334 0.6266 0.73911 0.0
C6732 C 0.86186 0.70557 0.62475 0.0
C6733 C 0.85634 0.69371 0.64036 0.0
C6734 C 0.82287 0.66013 0.66037 0.0
C6735 C 0.8144 0.6487 0.72363 0.0
C6736 C 0.82072 0.65815 0.70294 0.0
C6737 C 0.84097 0.68406 0.64195 0.0
C6738 C 0.83477 0.67465 0.66273 0.0
H6739 H 0.82595 0.63201 0.76273 0.0
H6740 H 0.83586 0.65398 0.73798 0.0
H6741 H 0.80693 0.64054 0.67827 0.0
H6742 H 0.82915 0.69864 0.59933 0.0
H6743 H 0.81941 0.67795 0.62701 0.0
C6744 C 0.36733 0.16836 0.73727 0.0
C6745 C 0.3707 0.1816 0.74887 0.0
C6746 C 0.3548 0.16132 0.72308 0.0
C6747 C 0.32204 0.16215 0.70118 0.0
H6748 H 0.33926 0.16307 0.63976 0.0
C6749 C 0.28992 0.1578 0.61953 0.0
C6750 C 0.28703 0.14517 0.60648 0.0
C6751 C 0.30188 0.16413 0.63494 0.0
C6752 C 0.33438 0.1628 0.65681 0.0
H6753 H 0.36288 0.19686 0.75762 0.0
H6754 H 0.34103 0.18466 0.73249 0.0
H6755 H 0.35363 0.16618 0.67551 0.0
H6756 H 0.29509 0.13025 0.59677 0.0
H6757 H 0.31596 0.14118 0.62411 0.0
H6758 H 0.30279 0.1588 0.68246 0.0
C6759 C 0.34797 0.17967 0.73441 0.0
C6760 C 0.34243 0.16431 0.67719 0.0
C6761 C 0.36049 0.18668 0.74866 0.0
C6762 C 0.29713 0.13996 0.60687 0.0
C6763 C 0.30907 0.14625 0.62238 0.0
C6764 C 0.31397 0.1606 0.68079 0.0
C6765 C 0.34569 0.16759 0.72034 0.0
C6766 C 0.33628 0.16398 0.69946 0.0
C6767 C 0.31091 0.15775 0.63748 0.0
C6768 C 0.32013 0.16097 0.65852 0.0
H6769 H 0.37493 0.16414 0.73771 0.0
H6770 H 0.35299 0.15183 0.7126 0.0
H6771 H 0.31722 0.16199 0.71823 0.0
H6772 H 0.28238 0.16213 0.619 0.0
H6773 H 0.30338 0.17323 0.64618 0.0
C6774 C 0.86836 0.16043 0.62737 0.0
C6775 C 0.86112 0.14656 0.61628 0.0
C6776 C 0.86011 0.16502 0.64071 0.0
C6777 C 0.83807 0.17406 0.65813 0.0
H6778 H 0.80957 0.14433 0.70123 0.0
C6779 C 0.78735 0.16675 0.71964 0.0
C6780 C 0.79493 0.17993 0.73258 0.0
C6781 C 0.7954 0.16222 0.70568 0.0
C6782 C 0.8174 0.15263 0.6891 0.0
H6783 H 0.84003 0.12693 0.60859 0.0
H6784 H 0.82551 0.13492 0.63179 0.0
H6785 H 0.82418 0.1379 0.67506 0.0
H6786 H 0.81633 0.19841 0.74257 0.0
H6787 H 0.83048 0.19065 0.71784 0.0
H6788 H 0.83139 0.18884 0.67248 0.0
C6789 C 0.83745 0.14211 0.63075 0.0
C6790 C 0.82571 0.149 0.6742 0.0
C6791 C 0.84567 0.13756 0.61754 0.0
C6792 C 0.81046 0.18832 0.73225 0.0
C6793 C 0.81846 0.18391 0.71822 0.0
C6794 C 0.82981 0.17771 0.67313 0.0
C6795 C 0.84465 0.15569 0.64286 0.0
C6796 C 0.83604 0.15968 0.65858 0.0
C6797 C 0.81097 0.17098 0.70458 0.0
C6798 C 0.81945 0.167 0.68865 0.0
H6799 H 0.88033 0.16745 0.62623 0.0
H6800 H 0.86584 0.17554 0.64998 0.0
H6801 H 0.84589 0.18238 0.64603 0.0
H6802 H 0.77533 0.16021 0.72 0.0
H6803 H 0.7895 0.15218 0.69521 0.0
C6804 C 0.03607 0.51618 0.56974 0.0
C6805 C 0.04829 0.51538 0.56099 0.0
C6806 C 0.02341 0.5113 0.55608 0.0
C6807 C 0.01066 0.50578 0.49566 0.0
H6808 H 0.97185 0.48142 0.52428 0.0
C6809 C 0.95625 0.4789 0.44326 0.0
C6810 C 0.94415 0.47938 0.45332 0.0
C6811 C 0.96927 0.48378 0.45602 0.0
C6812 C 0.98262 0.48837 0.51621 0.0
H6813 H 0.05718 0.50923 0.53121 0.0
H6814 H 0.0347 0.50051 0.50699 0.0
H6815 H 0.99419 0.48804 0.54719 0.0
H6816 H 0.93597 0.48529 0.48426 0.0
H6817 H 0.95902 0.49404 0.50681 0.0
H6818 H -0.00094 0.50617 0.46471 0.0
C6819 C 0.03503 0.50489 0.52449 0.0
C6820 C 0.99535 0.49206 0.52921 0.0
C6821 C 0.04777 0.50979 0.53825 0.0
C6822 C 0.94524 0.48488 0.47627 0.0
C6823 C 0.95833 0.48981 0.48907 0.0
C6824 C -0.00209 0.50209 0.48265 0.0
C6825 C 0.02279 0.50561 0.53341 0.0
C6826 C 0.00943 0.50086 0.51906 0.0
C6827 C 0.97036 0.48916 0.47906 0.0
C6828 C 0.98383 0.49342 0.49291 0.0
H6829 H 0.03644 0.52091 0.58697 0.0
H6830 H 0.01423 0.51228 0.56306 0.0
H6831 H 0.02145 0.51277 0.48767 0.0
H6832 H 0.95548 0.47432 0.42576 0.0
H6833 H 0.97831 0.48291 0.44813 0.0
C6834 C 0.48444 0.53514 0.54229 0.0
C6835 C 0.47985 0.5311 0.56575 0.0
C6836 C 0.48835 0.52649 0.52861 0.0
C6837 C 0.49914 0.49796 0.53152 0.0
H6838 H 0.48014 0.48647 0.47003 0.0
C6839 C 0.50487 0.45628 0.47277 0.0
C6840 C 0.51 0.46187 0.45002 0.0
C6841 C 0.49919 0.4631 0.48726 0.0
C6842 C 0.48547 0.48959 0.48719 0.0
H6843 H 0.4759 0.51506 0.59348 0.0
H6844 H 0.48296 0.50015 0.5697 0.0
H6845 H 0.47612 0.50335 0.49487 0.0
H6846 H 0.51303 0.47875 0.42438 0.0
H6847 H 0.50299 0.49045 0.44948 0.0
H6848 H 0.50869 0.4844 0.52368 0.0
C6849 C 0.48371 0.51006 0.56199 0.0
C6850 C 0.4833 0.49931 0.50124 0.0
C6851 C 0.47975 0.51864 0.5756 0.0
C6852 C 0.50882 0.47396 0.44164 0.0
C6853 C 0.5031 0.48069 0.45601 0.0
C6854 C 0.50134 0.48825 0.51745 0.0
C6855 C 0.48771 0.51373 0.53828 0.0
C6856 C 0.49025 0.50368 0.52337 0.0
C6857 C 0.49856 0.47553 0.47908 0.0
C6858 C 0.49465 0.48415 0.49509 0.0
H6859 H 0.48462 0.54474 0.53441 0.0
H6860 H 0.49159 0.52958 0.51036 0.0
H6861 H 0.50463 0.50124 0.54854 0.0
H6862 H 0.50561 0.4469 0.47951 0.0
H6863 H 0.49564 0.45891 0.50502 0.0
C6864 C 0.47486 0.96692 0.58178 0.0
C6865 C 0.47983 0.95661 0.58174 0.0
C6866 C 0.48143 0.97912 0.56682 0.0
C6867 C 0.49475 0.98322 0.5083 0.0
H6868 H 0.50015 0.02286 0.51218 0.0
C6869 C 0.51787 0.0276 0.43681 0.0
C6870 C 0.51283 0.03785 0.43666 0.0
C6871 C 0.51149 0.01559 0.45217 0.0
C6872 C 0.49834 0.01167 0.51091 0.0
H6873 H 0.49686 0.95204 0.56938 0.0
H6874 H 0.50836 0.97341 0.54298 0.0
H6875 H 0.49827 0.00935 0.54848 0.0
H6876 H 0.4959 0.04254 0.44922 0.0
H6877 H 0.48474 0.02149 0.4763 0.0
H6878 H 0.49479 0.98551 0.47074 0.0
C6879 C 0.49926 0.9719 0.55422 0.0
C6880 C 0.49756 0.00412 0.53159 0.0
C6881 C 0.49268 0.95969 0.56916 0.0
C6882 C 0.50013 0.03492 0.44957 0.0
C6883 C 0.49375 0.02291 0.46491 0.0
C6884 C 0.49553 0.99076 0.48763 0.0
C6885 C 0.49295 0.981 0.55175 0.0
C6886 C 0.4958 0.98988 0.53037 0.0
C6887 C 0.5001 0.01384 0.46743 0.0
C6888 C 0.49731 0.005 0.48885 0.0
H6889 H 0.46498 0.96478 0.59145 0.0
H6890 H 0.47642 0.98606 0.56517 0.0
H6891 H 0.49293 0.97202 0.50702 0.0
H6892 H 0.52763 0.02963 0.42689 0.0
H6893 H 0.51653 0.00868 0.45386 0.0
C6894 C 0.50577 0.04705 0.97403 0.0
C6895 C 0.50984 0.04727 0.95034 0.0
C6896 C 0.50153 0.03442 0.98775 0.0
C6897 C 0.48984 0.99475 0.98514 0.0
H6898 H 0.51125 0.00269 0.0445 0.0
C6899 C 0.4874 0.94777 0.04092 0.0
C6900 C 0.48297 0.94796 0.06427 0.0
C6901 C 0.49239 0.96036 0.02678 0.0
C6902 C 0.50523 0.00037 0.02795 0.0
H6903 H 0.51228 0.03443 0.92215 0.0
H6904 H 0.50471 0.01242 0.94598 0.0
H6905 H 0.51416 0.02342 0.02026 0.0
H6906 H 0.48061 0.96145 0.09141 0.0
H6907 H 0.48948 0.98336 0.06689 0.0
H6908 H 0.48084 0.97169 0.9929 0.0
C6909 C 0.5046 0.02187 0.95388 0.0
C6910 C 0.50676 0.01216 0.01427 0.0
C6911 C 0.50888 0.03446 0.94024 0.0
C6912 C 0.48428 0.96109 0.07363 0.0
C6913 C 0.48932 0.97363 0.05959 0.0
C6914 C 0.48831 0.98295 0.99883 0.0
C6915 C 0.50132 0.02192 0.97787 0.0
C6916 C 0.49901 0.00942 0.99285 0.0
C6917 C 0.49301 0.97323 0.03591 0.0
C6918 C 0.49593 0.98569 0.02037 0.0
H6919 H 0.50635 0.05679 0.9821 0.0
H6920 H 0.49884 0.03457 1.00621 0.0
H6921 H 0.48374 0.99242 0.96867 0.0
H6922 H 0.48657 0.93778 0.03343 0.0
H6923 H 0.49533 0.95991 0.00854 0.0
C6924 C 0.96726 0.4779 0.93206 0.0
C6925 C 0.95693 0.48285 0.93317 0.0
C6926 C 0.97929 0.48378 0.94741 0.0
C6927 C -0.0019 0.51053 0.99555 0.0
H6928 H 0.9926 0.47539 0.02886 0.0
C6929 C 0.02564 0.51835 0.08229 0.0
C6930 C 0.0362 0.51373 0.08051 0.0
C6931 C 0.01327 0.5121 0.06764 0.0
C6932 C 0.99413 0.48523 0.01974 0.0
H6933 H 0.95232 0.49937 0.94788 0.0
H6934 H 0.97307 0.50933 0.97529 0.0
H6935 H 0.98049 0.47268 0.9908 0.0
H6936 H 0.04093 0.49737 0.0654 0.0
H6937 H 0.01961 0.48682 0.03912 0.0
H6938 H 0.01174 0.52308 0.02446 0.0
C6939 C 0.97192 0.50096 0.9627 0.0
C6940 C 0.98748 0.48376 0.99787 0.0
C6941 C 0.95996 0.49516 0.94722 0.0
C6942 C 0.03314 0.50137 0.06653 0.0
C6943 C 0.02083 0.4952 0.05173 0.0
C6944 C 0.00472 0.512 0.01743 0.0
C6945 C 0.98093 0.49448 0.96406 0.0
C6946 C 0.98948 0.49641 0.98561 0.0
C6947 C 0.01153 0.50137 0.05097 0.0
C6948 C 0.00277 0.49936 0.02966 0.0
H6949 H 0.96526 0.46848 0.92121 0.0
H6950 H 0.9864 0.47891 0.9479 0.0
H6951 H -0.00031 0.52039 0.98641 0.0
H6952 H 0.02764 0.52778 0.09311 0.0
H6953 H 0.00596 0.51674 0.06757 0.0
C6954 C 0.51828 0.49028 0.93545 0.0
C6955 C 0.51352 0.47504 0.93607 0.0
C6956 C 0.51211 0.49608 0.95088 0.0
C6957 C 0.48465 0.48708 0.99823 0.0
H6958 H 0.51913 0.51669 0.03291 0.0
C6959 C 0.47542 0.50584 0.085 0.0
C6960 C 0.48 0.52103 0.08351 0.0
C6961 C 0.48187 0.4999 0.0704 0.0
C6962 C 0.50946 0.50838 0.02342 0.0
H6963 H 0.49707 0.4536 0.95004 0.0
H6964 H 0.48661 0.46377 0.97761 0.0
H6965 H 0.52251 0.50787 0.99479 0.0
H6966 H 0.4964 0.54227 0.06893 0.0
H6967 H 0.50734 0.53186 0.04282 0.0
H6968 H 0.47159 0.48761 0.02681 0.0
C6969 C 0.49505 0.47124 0.96534 0.0
C6970 C 0.51133 0.50355 1.0015 0.0
C6971 C 0.50115 0.46544 0.94979 0.0
C6972 C 0.49247 0.53049 0.06988 0.0
C6973 C 0.49884 0.52454 0.05517 0.0
C6974 C 0.48278 0.4919 0.02015 0.0
C6975 C 0.50128 0.48669 0.96712 0.0
C6976 C 0.49892 0.49292 0.98874 0.0
C6977 C 0.49278 0.50909 0.05411 0.0
C6978 C 0.49518 0.50259 0.03285 0.0
H6979 H 0.52772 0.49791 0.92483 0.0
H6980 H 0.51679 0.50803 0.95173 0.0
H6981 H 0.47497 0.47882 0.98869 0.0
H6982 H 0.46589 0.49829 0.09552 0.0
H6983 H 0.47729 0.48796 0.0701 0.0
loop_
_geom_bond_atom_site_label_1
_geom_bond_atom_site_label_2
_geom_bond_distance
_geom_bond_site_symmetry_2
_ccdc_geom_bond_type
Cd0 O57 2.350 . S
Cd0 O58 2.278 . S
Cd0 O65 2.178 . S
Cd0 O67 2.263 . S
Cd0 O69 2.366 . S
Cd0 O72 2.329 1_554 S
C1 O65 1.276 1_556 S
C1 O66 1.230 1_556 S
C2 O3 1.246 . S
C2 C5 1.481 . S
C2 N27 1.329 . S
O3 C2 1.246 . S
Cd4 O66 2.250 . S
Cd4 O68 2.308 . S
Cd4 O71 2.352 1_554 S
C5 C2 1.481 . S
C5 N8 1.327 . S
C5 C9 1.407 . S
C6 C7 1.346 . S
C6 C10 1.390 . S
C6 H74 0.930 . S
C7 C6 1.346 . S
C7 N8 1.342 . S
C7 C12 1.516 . S
N8 C5 1.327 . S
N8 C7 1.342 . S
N8 Co11 1.864 . S
C9 C5 1.407 . S
C9 C10 1.364 . S
C9 H75 0.930 . S
C10 C6 1.390 . S
C10 C9 1.364 . S
C10 H76 0.931 . S
Co11 N8 1.864 . S
Co11 N27 1.955 . S
Co11 N28 1.958 . S
Co11 N29 1.953 . S
Co11 N47 1.869 . S
Co11 N53 1.974 . S
C12 C7 1.516 . S
C12 O13 1.238 . S
C12 N28 1.324 . S
O13 C12 1.238 . S
C14 C15 1.394 . S
C14 C19 1.395 . S
C14 N28 1.427 . S
C15 C14 1.394 . S
C15 C16 1.380 . S
C15 H77 0.929 . S
C16 C15 1.380 . S
C16 C17 1.384 . S
C16 C20 1.495 . S
C17 C16 1.384 . S
C17 C18 1.382 . S
C17 H78 0.930 . S
C18 C17 1.382 . S
C18 C19 1.398 . S
C19 C14 1.395 . S
C19 C18 1.398 . S
C19 H79 0.930 . S
C20 C16 1.495 . S
C20 O67 1.258 . S
C20 O68 1.274 . S
C21 C22 1.385 . S
C21 C23 1.381 . S
C21 N27 1.432 . S
C22 C21 1.385 . S
C22 C26 1.388 . S
C22 H80 0.929 . S
C23 C21 1.381 . S
C23 C24 1.371 . S
C23 H81 0.932 . S
C24 C23 1.371 . S
C24 C25 1.400 . S
C25 C24 1.400 . S
C25 C26 1.351 . S
C25 H82 0.930 . S
C26 C22 1.388 . S
C26 C25 1.351 . S
N27 C2 1.329 . S
N27 Co11 1.955 . S
N27 C21 1.432 . S
N28 Co11 1.958 . S
N28 C12 1.324 . S
N28 C14 1.427 . S
N29 Co11 1.953 . S
N29 C30 1.436 . S
N29 C56 1.316 . S
C30 N29 1.436 . S
C30 C31 1.421 . S
C30 C32 1.360 . S
C31 C30 1.421 . S
C31 C33 1.379 . S
C31 H34 0.929 . S
C32 C30 1.360 . S
C32 C36 1.393 . S
C32 H38 0.931 . S
C33 C31 1.379 . S
C33 C35 1.417 . S
C33 C37 1.505 . S
H34 C31 0.929 . S
C35 C33 1.417 . S
C35 C36 1.352 . S
C35 H39 0.929 . S
C36 C32 1.393 . S
C36 C35 1.352 . S
C36 C40 1.482 . S
C37 C33 1.505 . S
C37 O41 1.259 . S
C37 O42 1.229 . S
H38 C32 0.931 . S
H39 C35 0.929 . S
C40 C36 1.482 . S
C40 O43 1.207 . S
C40 O44 1.289 . S
O41 C37 1.259 . S
O41 H45 0.822 . S
O42 C37 1.229 . S
O43 C40 1.207 . S
O44 C40 1.289 . S
O44 H46 0.819 . S
H45 O41 0.822 . S
H46 O44 0.819 . S
N47 Co11 1.869 . S
N47 C48 1.330 . S
N47 C52 1.325 . S
C48 N47 1.330 . S
C48 C49 1.359 . S
C48 C54 1.504 . S
C49 C48 1.359 . S
C49 C50 1.366 . S
C49 H83 0.929 . S
C50 C49 1.366 . S
C50 C51 1.415 . S
C50 H84 0.932 . S
C51 C50 1.415 . S
C51 C52 1.366 . S
C51 H85 0.931 . S
C52 N47 1.325 . S
C52 C51 1.366 . S
C52 C56 1.516 . S
N53 Co11 1.974 . S
N53 C54 1.309 . S
N53 C59 1.423 . S
C54 C48 1.504 . S
C54 N53 1.309 . S
C54 O55 1.258 . S
O55 C54 1.258 . S
C56 N29 1.316 . S
C56 C52 1.516 . S
C56 O69 1.263 . S
O57 Cd0 2.350 . S
O57 C73 1.270 . S
O58 Cd0 2.278 . S
O58 C73 1.249 . S
C59 N53 1.423 . S
C59 C60 1.370 . S
C59 C64 1.403 . S
C60 C59 1.370 . S
C60 C61 1.389 . S
C60 H86 0.931 . S
C61 C60 1.389 . S
C61 C62 1.389 . S
C62 C61 1.389 . S
C62 C63 1.379 . S
C62 H87 0.929 . S
C63 C62 1.379 . S
C63 C64 1.405 . S
C64 C59 1.403 . S
C64 C63 1.405 . S
C64 H88 0.932 . S
O65 Cd0 2.178 . S
O65 C1 1.276 1_554 S
O66 C1 1.230 1_554 S
O66 Cd4 2.250 . S
O67 Cd0 2.263 . S
O67 C20 1.258 . S
O68 Cd4 2.308 . S
O68 C20 1.274 . S
O69 Cd0 2.366 . S
O69 C56 1.263 . S
C70 O71 1.235 . S
C70 O72 1.270 . S
O71 Cd4 2.352 1_556 S
O71 C70 1.235 . S
O72 Cd0 2.329 1_556 S
O72 C70 1.270 . S
C73 O57 1.270 . S
C73 O58 1.249 . S
H74 C6 0.930 . S
H75 C9 0.930 . S
H76 C10 0.931 . S
H77 C15 0.929 . S
H78 C17 0.930 . S
H79 C19 0.930 . S
H80 C22 0.929 . S
H81 C23 0.932 . S
H82 C25 0.930 . S
H83 C49 0.929 . S
H84 C50 0.932 . S
H85 C51 0.931 . S
H86 C60 0.931 . S
H87 C62 0.929 . S
H88 C64 0.932 . S
Cd89 O146 2.350 . S
Cd89 O147 2.278 . S
Cd89 O154 2.178 . S
Cd89 O156 2.263 . S
Cd89 O158 2.366 . S
Cd89 O161 2.329 1_554 S
C90 O154 1.276 1_556 S
C90 O155 1.230 1_556 S
C91 O92 1.246 . S
C91 C94 1.481 . S
C91 N116 1.329 . S
O92 C91 1.246 . S
Cd93 O155 2.250 . S
Cd93 O157 2.308 . S
Cd93 O160 2.352 1_554 S
C94 C91 1.481 . S
C94 N97 1.327 . S
C94 C98 1.407 . S
C95 C96 1.346 . S
C95 C99 1.390 . S
C95 H163 0.930 . S
C96 C95 1.346 . S
C96 N97 1.342 . S
C96 C101 1.516 . S
N97 C94 1.327 . S
N97 C96 1.342 . S
N97 Co100 1.864 . S
C98 C94 1.407 . S
C98 C99 1.364 . S
C98 H164 0.930 . S
C99 C95 1.390 . S
C99 C98 1.364 . S
C99 H165 0.931 . S
Co100 N97 1.864 . S
Co100 N116 1.955 . S
Co100 N117 1.958 . S
Co100 N118 1.953 . S
Co100 N136 1.869 . S
Co100 N142 1.974 . S
C101 C96 1.516 . S
C101 O102 1.238 . S
C101 N117 1.324 . S
O102 C101 1.238 . S
C103 C104 1.394 . S
C103 C108 1.395 . S
C103 N117 1.427 . S
C104 C103 1.394 . S
C104 C105 1.380 . S
C104 H166 0.929 . S
C105 C104 1.380 . S
C105 C106 1.384 . S
C105 C109 1.495 . S
C106 C105 1.384 . S
C106 C107 1.382 . S
C106 H167 0.930 . S
C107 C106 1.382 . S
C107 C108 1.398 . S
C108 C103 1.395 . S
C108 C107 1.398 . S
C108 H168 0.930 . S
C109 C105 1.495 . S
C109 O156 1.258 . S
C109 O157 1.274 . S
C110 C111 1.385 . S
C110 C112 1.381 . S
C110 N116 1.432 . S
C111 C110 1.385 . S
C111 C115 1.388 . S
C111 H169 0.929 . S
C112 C110 1.381 . S
C112 C113 1.371 . S
C112 H170 0.932 . S
C113 C112 1.371 . S
C113 C114 1.400 . S
C114 C113 1.400 . S
C114 C115 1.351 . S
C114 H171 0.930 . S
C115 C111 1.388 . S
C115 C114 1.351 . S
N116 C91 1.329 . S
N116 Co100 1.955 . S
N116 C110 1.432 . S
N117 Co100 1.958 . S
N117 C101 1.324 . S
N117 C103 1.427 . S
N118 Co100 1.953 . S
N118 C119 1.436 . S
N118 C145 1.316 . S
C119 N118 1.436 . S
C119 C120 1.421 . S
C119 C121 1.360 . S
C120 C119 1.421 . S
C120 C122 1.379 . S
C120 H123 0.929 . S
C121 C119 1.360 . S
C121 C125 1.393 . S
C121 H127 0.931 . S
C122 C120 1.379 . S
C122 C124 1.417 . S
C122 C126 1.505 . S
H123 C120 0.929 . S
C124 C122 1.417 . S
C124 C125 1.352 . S
C124 H128 0.929 . S
C125 C121 1.393 . S
C125 C124 1.352 . S
C125 C129 1.482 . S
C126 C122 1.505 . S
C126 O130 1.259 . S
C126 O131 1.229 . S
H127 C121 0.931 . S
H128 C124 0.929 . S
C129 C125 1.482 . S
C129 O132 1.207 . S
C129 O133 1.289 . S
O130 C126 1.259 . S
O130 H134 0.822 . S
O131 C126 1.229 . S
O132 C129 1.207 . S
O133 C129 1.289 . S
O133 H135 0.819 . S
H134 O130 0.822 . S
H135 O133 0.819 . S
N136 Co100 1.869 . S
N136 C137 1.330 . S
N136 C141 1.325 . S
C137 N136 1.330 . S
C137 C138 1.359 . S
C137 C143 1.504 . S
C138 C137 1.359 . S
C138 C139 1.366 . S
C138 H172 0.929 . S
C139 C138 1.366 . S
C139 C140 1.415 . S
C139 H173 0.932 . S
C140 C139 1.415 . S
C140 C141 1.366 . S
C140 H174 0.931 . S
C141 N136 1.325 . S
C141 C140 1.366 . S
C141 C145 1.516 . S
N142 Co100 1.974 . S
N142 C143 1.309 . S
N142 C148 1.423 . S
C143 C137 1.504 . S
C143 N142 1.309 . S
C143 O144 1.258 . S
O144 C143 1.258 . S
C145 N118 1.316 . S
C145 C141 1.516 . S
C145 O158 1.263 . S
O146 Cd89 2.350 . S
O146 C162 1.270 . S
O147 Cd89 2.278 . S
O147 C162 1.249 . S
C148 N142 1.423 . S
C148 C149 1.370 . S
C148 C153 1.403 . S
C149 C148 1.370 . S
C149 C150 1.389 . S
C149 H175 0.931 . S
C150 C149 1.389 . S
C150 C151 1.389 . S
C151 C150 1.389 . S
C151 C152 1.379 . S
C151 H176 0.929 . S
C152 C151 1.379 . S
C152 C153 1.405 . S
C153 C148 1.403 . S
C153 C152 1.405 . S
C153 H177 0.932 . S
O154 Cd89 2.178 . S
O154 C90 1.276 1_554 S
O155 C90 1.230 1_554 S
O155 Cd93 2.250 . S
O156 Cd89 2.263 . S
O156 C109 1.258 . S
O157 Cd93 2.308 . S
O157 C109 1.274 . S
O158 Cd89 2.366 . S
O158 C145 1.263 . S
C159 O160 1.235 . S
C159 O161 1.270 . S
O160 Cd93 2.352 1_556 S
O160 C159 1.235 . S
O161 Cd89 2.329 1_556 S
O161 C159 1.270 . S
C162 O146 1.270 . S
C162 O147 1.249 . S
H163 C95 0.930 . S
H164 C98 0.930 . S
H165 C99 0.931 . S
H166 C104 0.929 . S
H167 C106 0.930 . S
H168 C108 0.930 . S
H169 C111 0.929 . S
H170 C112 0.932 . S
H171 C114 0.930 . S
H172 C138 0.929 . S
H173 C139 0.932 . S
H174 C140 0.931 . S
H175 C149 0.931 . S
H176 C151 0.929 . S
H177 C153 0.932 . S
Cd178 O235 2.350 . S
Cd178 O236 2.278 . S
Cd178 O243 2.178 . S
Cd178 O245 2.263 . S
Cd178 O247 2.366 . S
Cd178 O250 2.329 1_554 S
C179 O243 1.276 1_556 S
C179 O244 1.230 1_556 S
C180 O181 1.246 . S
C180 C183 1.481 . S
C180 N205 1.329 . S
O181 C180 1.246 . S
Cd182 O244 2.250 . S
Cd182 O246 2.308 . S
Cd182 O249 2.352 1_554 S
C183 C180 1.481 . S
C183 N186 1.327 . S
C183 C187 1.407 . S
C184 C185 1.346 . S
C184 C188 1.390 . S
C184 H252 0.930 . S
C185 C184 1.346 . S
C185 N186 1.342 . S
C185 C190 1.516 . S
N186 C183 1.327 . S
N186 C185 1.342 . S
N186 Co189 1.864 . S
C187 C183 1.407 . S
C187 C188 1.364 . S
C187 H253 0.930 . S
C188 C184 1.390 . S
C188 C187 1.364 . S
C188 H254 0.931 . S
Co189 N186 1.864 . S
Co189 N205 1.955 . S
Co189 N206 1.958 . S
Co189 N207 1.953 . S
Co189 N225 1.869 . S
Co189 N231 1.974 . S
C190 C185 1.516 . S
C190 O191 1.238 . S
C190 N206 1.324 . S
O191 C190 1.238 . S
C192 C193 1.394 . S
C192 C197 1.395 . S
C192 N206 1.427 . S
C193 C192 1.394 . S
C193 C194 1.380 . S
C193 H255 0.929 . S
C194 C193 1.380 . S
C194 C195 1.384 . S
C194 C198 1.495 . S
C195 C194 1.384 . S
C195 C196 1.382 . S
C195 H256 0.930 . S
C196 C195 1.382 . S
C196 C197 1.398 . S
C197 C192 1.395 . S
C197 C196 1.398 . S
C197 H257 0.930 . S
C198 C194 1.495 . S
C198 O245 1.258 . S
C198 O246 1.274 . S
C199 C200 1.385 . S
C199 C201 1.381 . S
C199 N205 1.432 . S
C200 C199 1.385 . S
C200 C204 1.388 . S
C200 H258 0.929 . S
C201 C199 1.381 . S
C201 C202 1.371 . S
C201 H259 0.932 . S
C202 C201 1.371 . S
C202 C203 1.400 . S
C203 C202 1.400 . S
C203 C204 1.351 . S
C203 H260 0.930 . S
C204 C200 1.388 . S
C204 C203 1.351 . S
N205 C180 1.329 . S
N205 Co189 1.955 . S
N205 C199 1.432 . S
N206 Co189 1.958 . S
N206 C190 1.324 . S
N206 C192 1.427 . S
N207 Co189 1.953 . S
N207 C208 1.436 . S
N207 C234 1.316 . S
C208 N207 1.436 . S
C208 C209 1.421 . S
C208 C210 1.360 . S
C209 C208 1.421 . S
C209 C211 1.379 . S
C209 H212 0.929 . S
C210 C208 1.360 . S
C210 C214 1.393 . S
C210 H216 0.931 . S
C211 C209 1.379 . S
C211 C213 1.417 . S
C211 C215 1.505 . S
H212 C209 0.929 . S
C213 C211 1.417 . S
C213 C214 1.352 . S
C213 H217 0.929 . S
C214 C210 1.393 . S
C214 C213 1.352 . S
C214 C218 1.482 . S
C215 C211 1.505 . S
C215 O219 1.259 . S
C215 O220 1.229 . S
H216 C210 0.931 . S
H217 C213 0.929 . S
C218 C214 1.482 . S
C218 O221 1.207 . S
C218 O222 1.289 . S
O219 C215 1.259 . S
O219 H223 0.822 . S
O220 C215 1.229 . S
O221 C218 1.207 . S
O222 C218 1.289 . S
O222 H224 0.819 . S
H223 O219 0.822 . S
H224 O222 0.819 . S
N225 Co189 1.869 . S
N225 C226 1.330 . S
N225 C230 1.325 . S
C226 N225 1.330 . S
C226 C227 1.359 . S
C226 C232 1.504 . S
C227 C226 1.359 . S
C227 C228 1.366 . S
C227 H261 0.929 . S
C228 C227 1.366 . S
C228 C229 1.415 . S
C228 H262 0.932 . S
C229 C228 1.415 . S
C229 C230 1.366 . S
C229 H263 0.931 . S
C230 N225 1.325 . S
C230 C229 1.366 . S
C230 C234 1.516 . S
N231 Co189 1.974 . S
N231 C232 1.309 . S
N231 C237 1.423 . S
C232 C226 1.504 . S
C232 N231 1.309 . S
C232 O233 1.258 . S
O233 C232 1.258 . S
C234 N207 1.316 . S
C234 C230 1.516 . S
C234 O247 1.263 . S
O235 Cd178 2.350 . S
O235 C251 1.270 . S
O236 Cd178 2.278 . S
O236 C251 1.249 . S
C237 N231 1.423 . S
C237 C238 1.370 . S
C237 C242 1.403 . S
C238 C237 1.370 . S
C238 C239 1.389 . S
C238 H264 0.931 . S
C239 C238 1.389 . S
C239 C240 1.389 . S
C240 C239 1.389 . S
C240 C241 1.379 . S
C240 H265 0.929 . S
C241 C240 1.379 . S
C241 C242 1.405 . S
C242 C237 1.403 . S
C242 C241 1.405 . S
C242 H266 0.932 . S
O243 Cd178 2.178 . S
O243 C179 1.276 1_554 S
O244 C179 1.230 1_554 S
O244 Cd182 2.250 . S
O245 Cd178 2.263 . S
O245 C198 1.258 . S
O246 Cd182 2.308 . S
O246 C198 1.274 . S
O247 Cd178 2.366 . S
O247 C234 1.263 . S
C248 O249 1.235 . S
C248 O250 1.270 . S
O249 Cd182 2.352 1_556 S
O249 C248 1.235 . S
O250 Cd178 2.329 1_556 S
O250 C248 1.270 . S
C251 O235 1.270 . S
C251 O236 1.249 . S
H252 C184 0.930 . S
H253 C187 0.930 . S
H254 C188 0.931 . S
H255 C193 0.929 . S
H256 C195 0.930 . S
H257 C197 0.930 . S
H258 C200 0.929 . S
H259 C201 0.932 . S
H260 C203 0.930 . S
H261 C227 0.929 . S
H262 C228 0.932 . S
H263 C229 0.931 . S
H264 C238 0.931 . S
H265 C240 0.929 . S
H266 C242 0.932 . S
Cd267 O324 2.350 . S
Cd267 O325 2.277 . S
Cd267 O332 2.173 . S
Cd267 O334 2.263 . S
Cd267 O336 2.366 . S
Cd267 O339 2.329 . S
C268 O332 1.277 . S
C268 O333 1.230 . S
C269 O270 1.246 . S
C269 C272 1.481 . S
C269 N294 1.329 . S
O270 C269 1.246 . S
Cd271 O333 2.250 . S
Cd271 O335 2.308 . S
Cd271 O338 2.352 . S
C272 C269 1.481 . S
C272 N275 1.327 . S
C272 C276 1.407 . S
C273 C274 1.346 . S
C273 C277 1.390 . S
C273 H341 0.930 . S
C274 C273 1.346 . S
C274 N275 1.342 . S
C274 C279 1.516 . S
N275 C272 1.327 . S
N275 C274 1.342 . S
N275 Co278 1.864 . S
C276 C272 1.407 . S
C276 C277 1.364 . S
C276 H342 0.930 . S
C277 C273 1.390 . S
C277 C276 1.364 . S
C277 H343 0.931 . S
Co278 N275 1.864 . S
Co278 N294 1.955 . S
Co278 N295 1.958 . S
Co278 N296 1.953 . S
Co278 N314 1.869 . S
Co278 N320 1.974 . S
C279 C274 1.516 . S
C279 O280 1.238 . S
C279 N295 1.324 . S
O280 C279 1.238 . S
C281 C282 1.394 . S
C281 C286 1.395 . S
C281 N295 1.427 . S
C282 C281 1.394 . S
C282 C283 1.380 . S
C282 H344 0.929 . S
C283 C282 1.380 . S
C283 C284 1.384 . S
C283 C287 1.495 . S
C284 C283 1.384 . S
C284 C285 1.382 . S
C284 H345 0.930 . S
C285 C284 1.382 . S
C285 C286 1.398 . S
C286 C281 1.395 . S
C286 C285 1.398 . S
C286 H346 0.930 . S
C287 C283 1.495 . S
C287 O334 1.258 . S
C287 O335 1.274 . S
C288 C289 1.385 . S
C288 C290 1.381 . S
C288 N294 1.432 . S
C289 C288 1.385 . S
C289 C293 1.388 . S
C289 H347 0.929 . S
C290 C288 1.381 . S
C290 C291 1.371 . S
C290 H348 0.932 . S
C291 C290 1.371 . S
C291 C292 1.400 . S
C292 C291 1.400 . S
C292 C293 1.351 . S
C292 H349 0.930 . S
C293 C289 1.388 . S
C293 C292 1.351 . S
N294 C269 1.329 . S
N294 Co278 1.955 . S
N294 C288 1.432 . S
N295 Co278 1.958 . S
N295 C279 1.324 . S
N295 C281 1.427 . S
N296 Co278 1.953 . S
N296 C297 1.436 . S
N296 C323 1.316 . S
C297 N296 1.436 . S
C297 C298 1.421 . S
C297 C299 1.360 . S
C298 C297 1.421 . S
C298 C300 1.379 . S
C298 H301 0.929 . S
C299 C297 1.360 . S
C299 C303 1.393 . S
C299 H305 0.931 . S
C300 C298 1.379 . S
C300 C302 1.417 . S
C300 C304 1.505 . S
H301 C298 0.929 . S
C302 C300 1.417 . S
C302 C303 1.352 . S
C302 H306 0.929 . S
C303 C299 1.393 . S
C303 C302 1.352 . S
C303 C307 1.482 . S
C304 C300 1.505 . S
C304 O308 1.259 . S
C304 O309 1.229 . S
H305 C299 0.931 . S
H306 C302 0.929 . S
C307 C303 1.482 . S
C307 O310 1.207 . S
C307 O311 1.289 . S
O308 C304 1.259 . S
O308 H312 0.822 . S
O309 C304 1.229 . S
O310 C307 1.207 . S
O311 C307 1.289 . S
O311 H313 0.819 . S
H312 O308 0.822 . S
H313 O311 0.819 . S
N314 Co278 1.869 . S
N314 C315 1.330 . S
N314 C319 1.325 . S
C315 N314 1.330 . S
C315 C316 1.359 . S
C315 C321 1.504 . S
C316 C315 1.359 . S
C316 C317 1.366 . S
C316 H350 0.929 . S
C317 C316 1.366 . S
C317 C318 1.415 . S
C317 H351 0.932 . S
C318 C317 1.415 . S
C318 C319 1.366 . S
C318 H352 0.931 . S
C319 N314 1.325 . S
C319 C318 1.366 . S
C319 C323 1.516 . S
N320 Co278 1.974 . S
N320 C321 1.309 . S
N320 C326 1.423 . S
C321 C315 1.504 . S
C321 N320 1.309 . S
C321 O322 1.258 . S
O322 C321 1.258 . S
C323 N296 1.316 . S
C323 C319 1.516 . S
C323 O336 1.263 . S
O324 Cd267 2.350 . S
O324 C340 1.270 . S
O325 Cd267 2.277 . S
O325 C340 1.248 . S
C326 N320 1.423 . S
C326 C327 1.370 . S
C326 C331 1.403 . S
C327 C326 1.370 . S
C327 C328 1.389 . S
C327 H353 0.931 . S
C328 C327 1.389 . S
C328 C329 1.389 . S
C329 C328 1.389 . S
C329 C330 1.379 . S
C329 H354 0.929 . S
C330 C329 1.379 . S
C330 C331 1.405 . S
C331 C326 1.403 . S
C331 C330 1.405 . S
C331 H355 0.932 . S
O332 Cd267 2.173 . S
O332 C268 1.277 . S
O333 C268 1.230 . S
O333 Cd271 2.250 . S
O334 Cd267 2.263 . S
O334 C287 1.258 . S
O335 Cd271 2.308 . S
O335 C287 1.274 . S
O336 Cd267 2.366 . S
O336 C323 1.263 . S
C337 O338 1.235 . S
C337 O339 1.270 . S
O338 Cd271 2.352 . S
O338 C337 1.235 . S
O339 Cd267 2.329 . S
O339 C337 1.270 . S
C340 O324 1.270 . S
C340 O325 1.248 . S
H341 C273 0.930 . S
H342 C276 0.930 . S
H343 C277 0.931 . S
H344 C282 0.929 . S
H345 C284 0.930 . S
H346 C286 0.930 . S
H347 C289 0.929 . S
H348 C290 0.932 . S
H349 C292 0.930 . S
H350 C316 0.929 . S
H351 C317 0.932 . S
H352 C318 0.931 . S
H353 C327 0.931 . S
H354 C329 0.929 . S
H355 C331 0.932 . S
Cd356 O413 2.350 . S
Cd356 O414 2.277 . S
Cd356 O421 2.173 . S
Cd356 O423 2.263 . S
Cd356 O425 2.366 . S
Cd356 O428 2.329 . S
C357 O421 1.277 . S
C357 O422 1.230 . S
C358 O359 1.246 . S
C358 C361 1.481 . S
C358 N383 1.329 . S
O359 C358 1.246 . S
Cd360 O422 2.250 . S
Cd360 O424 2.308 . S
Cd360 O427 2.352 . S
C361 C358 1.481 . S
C361 N364 1.327 . S
C361 C365 1.407 . S
C362 C363 1.346 . S
C362 C366 1.390 . S
C362 H430 0.930 . S
C363 C362 1.346 . S
C363 N364 1.342 . S
C363 C368 1.516 . S
N364 C361 1.327 . S
N364 C363 1.342 . S
N364 Co367 1.864 . S
C365 C361 1.407 . S
C365 C366 1.364 . S
C365 H431 0.930 . S
C366 C362 1.390 . S
C366 C365 1.364 . S
C366 H432 0.931 . S
Co367 N364 1.864 . S
Co367 N383 1.955 . S
Co367 N384 1.958 . S
Co367 N385 1.953 . S
Co367 N403 1.869 . S
Co367 N409 1.974 . S
C368 C363 1.516 . S
C368 O369 1.238 . S
C368 N384 1.324 . S
O369 C368 1.238 . S
C370 C371 1.394 . S
C370 C375 1.395 . S
C370 N384 1.427 . S
C371 C370 1.394 . S
C371 C372 1.380 . S
C371 H433 0.929 . S
C372 C371 1.380 . S
C372 C373 1.384 . S
C372 C376 1.495 . S
C373 C372 1.384 . S
C373 C374 1.382 . S
C373 H434 0.930 . S
C374 C373 1.382 . S
C374 C375 1.398 . S
C375 C370 1.395 . S
C375 C374 1.398 . S
C375 H435 0.930 . S
C376 C372 1.495 . S
C376 O423 1.258 . S
C376 O424 1.274 . S
C377 C378 1.385 . S
C377 C379 1.381 . S
C377 N383 1.432 . S
C378 C377 1.385 . S
C378 C382 1.388 . S
C378 H436 0.929 . S
C379 C377 1.381 . S
C379 C380 1.371 . S
C379 H437 0.932 . S
C380 C379 1.371 . S
C380 C381 1.400 . S
C381 C380 1.400 . S
C381 C382 1.351 . S
C381 H438 0.930 . S
C382 C378 1.388 . S
C382 C381 1.351 . S
N383 C358 1.329 . S
N383 Co367 1.955 . S
N383 C377 1.432 . S
N384 Co367 1.958 . S
N384 C368 1.324 . S
N384 C370 1.427 . S
N385 Co367 1.953 . S
N385 C386 1.436 . S
N385 C412 1.316 . S
C386 N385 1.436 . S
C386 C387 1.421 . S
C386 C388 1.360 . S
C387 C386 1.421 . S
C387 C389 1.379 . S
C387 H390 0.929 . S
C388 C386 1.360 . S
C388 C392 1.393 . S
C388 H394 0.931 . S
C389 C387 1.379 . S
C389 C391 1.417 . S
C389 C393 1.505 . S
H390 C387 0.929 . S
C391 C389 1.417 . S
C391 C392 1.352 . S
C391 H395 0.929 . S
C392 C388 1.393 . S
C392 C391 1.352 . S
C392 C396 1.482 . S
C393 C389 1.505 . S
C393 O397 1.259 . S
C393 O398 1.229 . S
H394 C388 0.931 . S
H395 C391 0.929 . S
C396 C392 1.482 . S
C396 O399 1.207 . S
C396 O400 1.289 . S
O397 C393 1.259 . S
O397 H401 0.822 . S
O398 C393 1.229 . S
O399 C396 1.207 . S
O400 C396 1.289 . S
O400 H402 0.819 . S
H401 O397 0.822 . S
H402 O400 0.819 . S
N403 Co367 1.869 . S
N403 C404 1.330 . S
N403 C408 1.325 . S
C404 N403 1.330 . S
C404 C405 1.359 . S
C404 C410 1.504 . S
C405 C404 1.359 . S
C405 C406 1.366 . S
C405 H439 0.929 . S
C406 C405 1.366 . S
C406 C407 1.415 . S
C406 H440 0.932 . S
C407 C406 1.415 . S
C407 C408 1.366 . S
C407 H441 0.931 . S
C408 N403 1.325 . S
C408 C407 1.366 . S
C408 C412 1.516 . S
N409 Co367 1.974 . S
N409 C410 1.309 . S
N409 C415 1.423 . S
C410 C404 1.504 . S
C410 N409 1.309 . S
C410 O411 1.258 . S
O411 C410 1.258 . S
C412 N385 1.316 . S
C412 C408 1.516 . S
C412 O425 1.263 . S
O413 Cd356 2.350 . S
O413 C429 1.270 . S
O414 Cd356 2.277 . S
O414 C429 1.248 . S
C415 N409 1.423 . S
C415 C416 1.370 . S
C415 C420 1.403 . S
C416 C415 1.370 . S
C416 C417 1.389 . S
C416 H442 0.931 . S
C417 C416 1.389 . S
C417 C418 1.389 . S
C418 C417 1.389 . S
C418 C419 1.379 . S
C418 H443 0.929 . S
C419 C418 1.379 . S
C419 C420 1.405 . S
C420 C415 1.403 . S
C420 C419 1.405 . S
C420 H444 0.932 . S
O421 Cd356 2.173 . S
O421 C357 1.277 . S
O422 C357 1.230 . S
O422 Cd360 2.250 . S
O423 Cd356 2.263 . S
O423 C376 1.258 . S
O424 Cd360 2.308 . S
O424 C376 1.274 . S
O425 Cd356 2.366 . S
O425 C412 1.263 . S
C426 O427 1.235 . S
C426 O428 1.270 . S
O427 Cd360 2.352 . S
O427 C426 1.235 . S
O428 Cd356 2.329 . S
O428 C426 1.270 . S
C429 O413 1.270 . S
C429 O414 1.248 . S
H430 C362 0.930 . S
H431 C365 0.930 . S
H432 C366 0.931 . S
H433 C371 0.929 . S
H434 C373 0.930 . S
H435 C375 0.930 . S
H436 C378 0.929 . S
H437 C379 0.932 . S
H438 C381 0.930 . S
H439 C405 0.929 . S
H440 C406 0.932 . S
H441 C407 0.931 . S
H442 C416 0.931 . S
H443 C418 0.929 . S
H444 C420 0.932 . S
Cd445 O502 2.350 . S
Cd445 O503 2.277 . S
Cd445 O510 2.173 . S
Cd445 O512 2.263 . S
Cd445 O514 2.366 . S
Cd445 O517 2.329 . S
C446 O510 1.277 . S
C446 O511 1.230 . S
C447 O448 1.246 . S
C447 C450 1.481 . S
C447 N472 1.329 . S
O448 C447 1.246 . S
Cd449 O511 2.250 . S
Cd449 O513 2.308 . S
Cd449 O516 2.352 . S
C450 C447 1.481 . S
C450 N453 1.327 . S
C450 C454 1.407 . S
C451 C452 1.346 . S
C451 C455 1.390 . S
C451 H519 0.930 . S
C452 C451 1.346 . S
C452 N453 1.342 . S
C452 C457 1.516 . S
N453 C450 1.327 . S
N453 C452 1.342 . S
N453 Co456 1.864 . S
C454 C450 1.407 . S
C454 C455 1.364 . S
C454 H520 0.930 . S
C455 C451 1.390 . S
C455 C454 1.364 . S
C455 H521 0.931 . S
Co456 N453 1.864 . S
Co456 N472 1.955 . S
Co456 N473 1.958 . S
Co456 N474 1.953 . S
Co456 N492 1.869 . S
Co456 N498 1.974 . S
C457 C452 1.516 . S
C457 O458 1.238 . S
C457 N473 1.324 . S
O458 C457 1.238 . S
C459 C460 1.394 . S
C459 C464 1.395 . S
C459 N473 1.427 . S
C460 C459 1.394 . S
C460 C461 1.380 . S
C460 H522 0.929 . S
C461 C460 1.380 . S
C461 C462 1.384 . S
C461 C465 1.495 . S
C462 C461 1.384 . S
C462 C463 1.382 . S
C462 H523 0.930 . S
C463 C462 1.382 . S
C463 C464 1.398 . S
C464 C459 1.395 . S
C464 C463 1.398 . S
C464 H524 0.930 . S
C465 C461 1.495 . S
C465 O512 1.258 . S
C465 O513 1.274 . S
C466 C467 1.385 . S
C466 C468 1.381 . S
C466 N472 1.432 . S
C467 C466 1.385 . S
C467 C471 1.388 . S
C467 H525 0.929 . S
C468 C466 1.381 . S
C468 C469 1.371 . S
C468 H526 0.932 . S
C469 C468 1.371 . S
C469 C470 1.400 . S
C470 C469 1.400 . S
C470 C471 1.351 . S
C470 H527 0.930 . S
C471 C467 1.388 . S
C471 C470 1.351 . S
N472 C447 1.329 . S
N472 Co456 1.955 . S
N472 C466 1.432 . S
N473 Co456 1.958 . S
N473 C457 1.324 . S
N473 C459 1.427 . S
N474 Co456 1.953 . S
N474 C475 1.436 . S
N474 C501 1.316 . S
C475 N474 1.436 . S
C475 C476 1.421 . S
C475 C477 1.360 . S
C476 C475 1.421 . S
C476 C478 1.379 . S
C476 H479 0.929 . S
C477 C475 1.360 . S
C477 C481 1.393 . S
C477 H483 0.931 . S
C478 C476 1.379 . S
C478 C480 1.417 . S
C478 C482 1.505 . S
H479 C476 0.929 . S
C480 C478 1.417 . S
C480 C481 1.352 . S
C480 H484 0.929 . S
C481 C477 1.393 . S
C481 C480 1.352 . S
C481 C485 1.482 . S
C482 C478 1.505 . S
C482 O486 1.259 . S
C482 O487 1.229 . S
H483 C477 0.931 . S
H484 C480 0.929 . S
C485 C481 1.482 . S
C485 O488 1.207 . S
C485 O489 1.289 . S
O486 C482 1.259 . S
O486 H490 0.822 . S
O487 C482 1.229 . S
O488 C485 1.207 . S
O489 C485 1.289 . S
O489 H491 0.819 . S
H490 O486 0.822 . S
H491 O489 0.819 . S
N492 Co456 1.869 . S
N492 C493 1.330 . S
N492 C497 1.325 . S
C493 N492 1.330 . S
C493 C494 1.359 . S
C493 C499 1.504 . S
C494 C493 1.359 . S
C494 C495 1.366 . S
C494 H528 0.929 . S
C495 C494 1.366 . S
C495 C496 1.415 . S
C495 H529 0.932 . S
C496 C495 1.415 . S
C496 C497 1.366 . S
C496 H530 0.931 . S
C497 N492 1.325 . S
C497 C496 1.366 . S
C497 C501 1.516 . S
N498 Co456 1.974 . S
N498 C499 1.309 . S
N498 C504 1.423 . S
C499 C493 1.504 . S
C499 N498 1.309 . S
C499 O500 1.258 . S
O500 C499 1.258 . S
C501 N474 1.316 . S
C501 C497 1.516 . S
C501 O514 1.263 . S
O502 Cd445 2.350 . S
O502 C518 1.270 . S
O503 Cd445 2.277 . S
O503 C518 1.248 . S
C504 N498 1.423 . S
C504 C505 1.370 . S
C504 C509 1.403 . S
C505 C504 1.370 . S
C505 C506 1.389 . S
C505 H531 0.931 . S
C506 C505 1.389 . S
C506 C507 1.389 . S
C507 C506 1.389 . S
C507 C508 1.379 . S
C507 H532 0.929 . S
C508 C507 1.379 . S
C508 C509 1.405 . S
C509 C504 1.403 . S
C509 C508 1.405 . S
C509 H533 0.932 . S
O510 Cd445 2.173 . S
O510 C446 1.277 . S
O511 C446 1.230 . S
O511 Cd449 2.250 . S
O512 Cd445 2.263 . S
O512 C465 1.258 . S
O513 Cd449 2.308 . S
O513 C465 1.274 . S
O514 Cd445 2.366 . S
O514 C501 1.263 . S
C515 O516 1.235 . S
C515 O517 1.270 . S
O516 Cd449 2.352 . S
O516 C515 1.235 . S
O517 Cd445 2.329 . S
O517 C515 1.270 . S
C518 O502 1.270 . S
C518 O503 1.248 . S
H519 C451 0.930 . S
H520 C454 0.930 . S
H521 C455 0.931 . S
H522 C460 0.929 . S
H523 C462 0.930 . S
H524 C464 0.930 . S
H525 C467 0.929 . S
H526 C468 0.932 . S
H527 C470 0.930 . S
H528 C494 0.929 . S
H529 C495 0.932 . S
H530 C496 0.931 . S
H531 C505 0.931 . S
H532 C507 0.929 . S
H533 C509 0.932 . S
Cd534 O591 2.350 . S
Cd534 O592 2.278 . S
Cd534 O599 2.178 . S
Cd534 O601 2.263 . S
Cd534 O603 2.366 . S
Cd534 O606 2.329 1_556 S
C535 O599 1.276 1_554 S
C535 O600 1.230 1_554 S
C536 O537 1.246 . S
C536 C539 1.481 . S
C536 N561 1.329 . S
O537 C536 1.246 . S
Cd538 O600 2.250 . S
Cd538 O602 2.308 . S
Cd538 O605 2.352 1_556 S
C539 C536 1.481 . S
C539 N542 1.327 . S
C539 C543 1.407 . S
C540 C541 1.346 . S
C540 C544 1.390 . S
C540 H608 0.930 . S
C541 C540 1.346 . S
C541 N542 1.342 . S
C541 C546 1.516 . S
N542 C539 1.327 . S
N542 C541 1.342 . S
N542 Co545 1.864 . S
C543 C539 1.407 . S
C543 C544 1.364 . S
C543 H609 0.930 . S
C544 C540 1.390 . S
C544 C543 1.364 . S
C544 H610 0.931 . S
Co545 N542 1.864 . S
Co545 N561 1.955 . S
Co545 N562 1.958 . S
Co545 N563 1.953 . S
Co545 N581 1.869 . S
Co545 N587 1.974 . S
C546 C541 1.516 . S
C546 O547 1.238 . S
C546 N562 1.324 . S
O547 C546 1.238 . S
C548 C549 1.394 . S
C548 C553 1.395 . S
C548 N562 1.427 . S
C549 C548 1.394 . S
C549 C550 1.380 . S
C549 H611 0.929 . S
C550 C549 1.380 . S
C550 C551 1.384 . S
C550 C554 1.495 . S
C551 C550 1.384 . S
C551 C552 1.382 . S
C551 H612 0.930 . S
C552 C551 1.382 . S
C552 C553 1.398 . S
C553 C548 1.395 . S
C553 C552 1.398 . S
C553 H613 0.930 . S
C554 C550 1.495 . S
C554 O601 1.258 . S
C554 O602 1.274 . S
C555 C556 1.385 . S
C555 C557 1.381 . S
C555 N561 1.432 . S
C556 C555 1.385 . S
C556 C560 1.388 . S
C556 H614 0.929 . S
C557 C555 1.381 . S
C557 C558 1.371 . S
C557 H615 0.932 . S
C558 C557 1.371 . S
C558 C559 1.400 . S
C559 C558 1.400 . S
C559 C560 1.351 . S
C559 H616 0.930 . S
C560 C556 1.388 . S
C560 C559 1.351 . S
N561 C536 1.329 . S
N561 Co545 1.955 . S
N561 C555 1.432 . S
N562 Co545 1.958 . S
N562 C546 1.324 . S
N562 C548 1.427 . S
N563 Co545 1.953 . S
N563 C564 1.436 . S
N563 C590 1.316 . S
C564 N563 1.436 . S
C564 C565 1.421 . S
C564 C566 1.360 . S
C565 C564 1.421 . S
C565 C567 1.379 . S
C565 H568 0.929 . S
C566 C564 1.360 . S
C566 C570 1.393 . S
C566 H572 0.931 . S
C567 C565 1.379 . S
C567 C569 1.417 . S
C567 C571 1.505 . S
H568 C565 0.929 . S
C569 C567 1.417 . S
C569 C570 1.352 . S
C569 H573 0.929 . S
C570 C566 1.393 . S
C570 C569 1.352 . S
C570 C574 1.482 . S
C571 C567 1.505 . S
C571 O575 1.259 . S
C571 O576 1.229 . S
H572 C566 0.931 . S
H573 C569 0.929 . S
C574 C570 1.482 . S
C574 O577 1.207 . S
C574 O578 1.289 . S
O575 C571 1.259 . S
O575 H579 0.822 . S
O576 C571 1.229 . S
O577 C574 1.207 . S
O578 C574 1.289 . S
O578 H580 0.819 . S
H579 O575 0.822 . S
H580 O578 0.819 . S
N581 Co545 1.869 . S
N581 C582 1.330 . S
N581 C586 1.325 . S
C582 N581 1.330 . S
C582 C583 1.359 . S
C582 C588 1.504 . S
C583 C582 1.359 . S
C583 C584 1.366 . S
C583 H617 0.929 . S
C584 C583 1.366 . S
C584 C585 1.415 . S
C584 H618 0.932 . S
C585 C584 1.415 . S
C585 C586 1.366 . S
C585 H619 0.931 . S
C586 N581 1.325 . S
C586 C585 1.366 . S
C586 C590 1.516 . S
N587 Co545 1.974 . S
N587 C588 1.309 . S
N587 C593 1.423 . S
C588 C582 1.504 . S
C588 N587 1.309 . S
C588 O589 1.258 . S
O589 C588 1.258 . S
C590 N563 1.316 . S
C590 C586 1.516 . S
C590 O603 1.263 . S
O591 Cd534 2.350 . S
O591 C607 1.270 . S
O592 Cd534 2.278 . S
O592 C607 1.249 . S
C593 N587 1.423 . S
C593 C594 1.370 . S
C593 C598 1.403 . S
C594 C593 1.370 . S
C594 C595 1.389 . S
C594 H620 0.931 . S
C595 C594 1.389 . S
C595 C596 1.389 . S
C596 C595 1.389 . S
C596 C597 1.379 . S
C596 H621 0.929 . S
C597 C596 1.379 . S
C597 C598 1.405 . S
C598 C593 1.403 . S
C598 C597 1.405 . S
C598 H622 0.932 . S
O599 Cd534 2.178 . S
O599 C535 1.276 1_556 S
O600 C535 1.230 1_556 S
O600 Cd538 2.250 . S
O601 Cd534 2.263 . S
O601 C554 1.258 . S
O602 Cd538 2.308 . S
O602 C554 1.274 . S
O603 Cd534 2.366 . S
O603 C590 1.263 . S
C604 O605 1.235 . S
C604 O606 1.270 . S
O605 Cd538 2.352 1_554 S
O605 C604 1.235 . S
O606 Cd534 2.329 1_554 S
O606 C604 1.270 . S
C607 O591 1.270 . S
C607 O592 1.249 . S
H608 C540 0.930 . S
H609 C543 0.930 . S
H610 C544 0.931 . S
H611 C549 0.929 . S
H612 C551 0.930 . S
H613 C553 0.930 . S
H614 C556 0.929 . S
H615 C557 0.932 . S
H616 C559 0.930 . S
H617 C583 0.929 . S
H618 C584 0.932 . S
H619 C585 0.931 . S
H620 C594 0.931 . S
H621 C596 0.929 . S
H622 C598 0.932 . S
Cd623 O680 2.350 . S
Cd623 O681 2.278 . S
Cd623 O688 2.178 . S
Cd623 O690 2.263 . S
Cd623 O692 2.366 . S
Cd623 O695 2.329 1_556 S
C624 O688 1.276 1_554 S
C624 O689 1.230 1_554 S
C625 O626 1.246 . S
C625 C628 1.481 . S
C625 N650 1.329 . S
O626 C625 1.246 . S
Cd627 O689 2.250 . S
Cd627 O691 2.308 . S
Cd627 O694 2.352 1_556 S
C628 C625 1.481 . S
C628 N631 1.327 . S
C628 C632 1.407 . S
C629 C630 1.346 . S
C629 C633 1.390 . S
C629 H697 0.930 . S
C630 C629 1.346 . S
C630 N631 1.342 . S
C630 C635 1.516 . S
N631 C628 1.327 . S
N631 C630 1.342 . S
N631 Co634 1.864 . S
C632 C628 1.407 . S
C632 C633 1.364 . S
C632 H698 0.930 . S
C633 C629 1.390 . S
C633 C632 1.364 . S
C633 H699 0.931 . S
Co634 N631 1.864 . S
Co634 N650 1.955 . S
Co634 N651 1.958 . S
Co634 N652 1.953 . S
Co634 N670 1.869 . S
Co634 N676 1.974 . S
C635 C630 1.516 . S
C635 O636 1.238 . S
C635 N651 1.324 . S
O636 C635 1.238 . S
C637 C638 1.394 . S
C637 C642 1.395 . S
C637 N651 1.427 . S
C638 C637 1.394 . S
C638 C639 1.380 . S
C638 H700 0.929 . S
C639 C638 1.380 . S
C639 C640 1.384 . S
C639 C643 1.495 . S
C640 C639 1.384 . S
C640 C641 1.382 . S
C640 H701 0.930 . S
C641 C640 1.382 . S
C641 C642 1.398 . S
C642 C637 1.395 . S
C642 C641 1.398 . S
C642 H702 0.930 . S
C643 C639 1.495 . S
C643 O690 1.258 . S
C643 O691 1.274 . S
C644 C645 1.385 . S
C644 C646 1.381 . S
C644 N650 1.432 . S
C645 C644 1.385 . S
C645 C649 1.388 . S
C645 H703 0.929 . S
C646 C644 1.381 . S
C646 C647 1.371 . S
C646 H704 0.932 . S
C647 C646 1.371 . S
C647 C648 1.400 . S
C648 C647 1.400 . S
C648 C649 1.351 . S
C648 H705 0.930 . S
C649 C645 1.388 . S
C649 C648 1.351 . S
N650 C625 1.329 . S
N650 Co634 1.955 . S
N650 C644 1.432 . S
N651 Co634 1.958 . S
N651 C635 1.324 . S
N651 C637 1.427 . S
N652 Co634 1.953 . S
N652 C653 1.436 . S
N652 C679 1.316 . S
C653 N652 1.436 . S
C653 C654 1.421 . S
C653 C655 1.360 . S
C654 C653 1.421 . S
C654 C656 1.379 . S
C654 H657 0.929 . S
C655 C653 1.360 . S
C655 C659 1.393 . S
C655 H661 0.931 . S
C656 C654 1.379 . S
C656 C658 1.417 . S
C656 C660 1.505 . S
H657 C654 0.929 . S
C658 C656 1.417 . S
C658 C659 1.352 . S
C658 H662 0.929 . S
C659 C655 1.393 . S
C659 C658 1.352 . S
C659 C663 1.482 . S
C660 C656 1.505 . S
C660 O664 1.259 . S
C660 O665 1.229 . S
H661 C655 0.931 . S
H662 C658 0.929 . S
C663 C659 1.482 . S
C663 O666 1.207 . S
C663 O667 1.289 . S
O664 C660 1.259 . S
O664 H668 0.822 . S
O665 C660 1.229 . S
O666 C663 1.207 . S
O667 C663 1.289 . S
O667 H669 0.819 . S
H668 O664 0.822 . S
H669 O667 0.819 . S
N670 Co634 1.869 . S
N670 C671 1.330 . S
N670 C675 1.325 . S
C671 N670 1.330 . S
C671 C672 1.359 . S
C671 C677 1.504 . S
C672 C671 1.359 . S
C672 C673 1.366 . S
C672 H706 0.929 . S
C673 C672 1.366 . S
C673 C674 1.415 . S
C673 H707 0.932 . S
C674 C673 1.415 . S
C674 C675 1.366 . S
C674 H708 0.931 . S
C675 N670 1.325 . S
C675 C674 1.366 . S
C675 C679 1.516 . S
N676 Co634 1.974 . S
N676 C677 1.309 . S
N676 C682 1.423 . S
C677 C671 1.504 . S
C677 N676 1.309 . S
C677 O678 1.258 . S
O678 C677 1.258 . S
C679 N652 1.316 . S
C679 C675 1.516 . S
C679 O692 1.263 . S
O680 Cd623 2.350 . S
O680 C696 1.270 . S
O681 Cd623 2.278 . S
O681 C696 1.249 . S
C682 N676 1.423 . S
C682 C683 1.370 . S
C682 C687 1.403 . S
C683 C682 1.370 . S
C683 C684 1.389 . S
C683 H709 0.931 . S
C684 C683 1.389 . S
C684 C685 1.389 . S
C685 C684 1.389 . S
C685 C686 1.379 . S
C685 H710 0.929 . S
C686 C685 1.379 . S
C686 C687 1.405 . S
C687 C682 1.403 . S
C687 C686 1.405 . S
C687 H711 0.932 . S
O688 Cd623 2.178 . S
O688 C624 1.276 1_556 S
O689 C624 1.230 1_556 S
O689 Cd627 2.250 . S
O690 Cd623 2.263 . S
O690 C643 1.258 . S
O691 Cd627 2.308 . S
O691 C643 1.274 . S
O692 Cd623 2.366 . S
O692 C679 1.263 . S
C693 O694 1.235 . S
C693 O695 1.270 . S
O694 Cd627 2.352 1_554 S
O694 C693 1.235 . S
O695 Cd623 2.329 1_554 S
O695 C693 1.270 . S
C696 O680 1.270 . S
C696 O681 1.249 . S
H697 C629 0.930 . S
H698 C632 0.930 . S
H699 C633 0.931 . S
H700 C638 0.929 . S
H701 C640 0.930 . S
H702 C642 0.930 . S
H703 C645 0.929 . S
H704 C646 0.932 . S
H705 C648 0.930 . S
H706 C672 0.929 . S
H707 C673 0.932 . S
H708 C674 0.931 . S
H709 C683 0.931 . S
H710 C685 0.929 . S
H711 C687 0.932 . S
Cd712 O769 2.350 . S
Cd712 O770 2.278 . S
Cd712 O777 2.178 . S
Cd712 O779 2.263 . S
Cd712 O781 2.366 . S
Cd712 O784 2.329 1_556 S
C713 O777 1.276 1_554 S
C713 O778 1.230 1_554 S
C714 O715 1.246 . S
C714 C717 1.481 . S
C714 N739 1.329 . S
O715 C714 1.246 . S
Cd716 O778 2.250 . S
Cd716 O780 2.308 . S
Cd716 O783 2.352 1_556 S
C717 C714 1.481 . S
C717 N720 1.327 . S
C717 C721 1.407 . S
C718 C719 1.346 . S
C718 C722 1.390 . S
C718 H786 0.930 . S
C719 C718 1.346 . S
C719 N720 1.342 . S
C719 C724 1.516 . S
N720 C717 1.327 . S
N720 C719 1.342 . S
N720 Co723 1.864 . S
C721 C717 1.407 . S
C721 C722 1.364 . S
C721 H787 0.930 . S
C722 C718 1.390 . S
C722 C721 1.364 . S
C722 H788 0.931 . S
Co723 N720 1.864 . S
Co723 N739 1.955 . S
Co723 N740 1.958 . S
Co723 N741 1.953 . S
Co723 N759 1.869 . S
Co723 N765 1.974 . S
C724 C719 1.516 . S
C724 O725 1.238 . S
C724 N740 1.324 . S
O725 C724 1.238 . S
C726 C727 1.394 . S
C726 C731 1.395 . S
C726 N740 1.427 . S
C727 C726 1.394 . S
C727 C728 1.380 . S
C727 H789 0.929 . S
C728 C727 1.380 . S
C728 C729 1.384 . S
C728 C732 1.495 . S
C729 C728 1.384 . S
C729 C730 1.382 . S
C729 H790 0.930 . S
C730 C729 1.382 . S
C730 C731 1.398 . S
C731 C726 1.395 . S
C731 C730 1.398 . S
C731 H791 0.930 . S
C732 C728 1.495 . S
C732 O779 1.258 . S
C732 O780 1.274 . S
C733 C734 1.385 . S
C733 C735 1.381 . S
C733 N739 1.432 . S
C734 C733 1.385 . S
C734 C738 1.388 . S
C734 H792 0.929 . S
C735 C733 1.381 . S
C735 C736 1.371 . S
C735 H793 0.932 . S
C736 C735 1.371 . S
C736 C737 1.400 . S
C737 C736 1.400 . S
C737 C738 1.351 . S
C737 H794 0.930 . S
C738 C734 1.388 . S
C738 C737 1.351 . S
N739 C714 1.329 . S
N739 Co723 1.955 . S
N739 C733 1.432 . S
N740 Co723 1.958 . S
N740 C724 1.324 . S
N740 C726 1.427 . S
N741 Co723 1.953 . S
N741 C742 1.436 . S
N741 C768 1.316 . S
C742 N741 1.436 . S
C742 C743 1.421 . S
C742 C744 1.360 . S
C743 C742 1.421 . S
C743 C745 1.379 . S
C743 H746 0.929 . S
C744 C742 1.360 . S
C744 C748 1.393 . S
C744 H750 0.931 . S
C745 C743 1.379 . S
C745 C747 1.417 . S
C745 C749 1.505 . S
H746 C743 0.929 . S
C747 C745 1.417 . S
C747 C748 1.352 . S
C747 H751 0.929 . S
C748 C744 1.393 . S
C748 C747 1.352 . S
C748 C752 1.482 . S
C749 C745 1.505 . S
C749 O753 1.259 . S
C749 O754 1.229 . S
H750 C744 0.931 . S
H751 C747 0.929 . S
C752 C748 1.482 . S
C752 O755 1.207 . S
C752 O756 1.289 . S
O753 C749 1.259 . S
O753 H757 0.822 . S
O754 C749 1.229 . S
O755 C752 1.207 . S
O756 C752 1.289 . S
O756 H758 0.819 . S
H757 O753 0.822 . S
H758 O756 0.819 . S
N759 Co723 1.869 . S
N759 C760 1.330 . S
N759 C764 1.325 . S
C760 N759 1.330 . S
C760 C761 1.359 . S
C760 C766 1.504 . S
C761 C760 1.359 . S
C761 C762 1.366 . S
C761 H795 0.929 . S
C762 C761 1.366 . S
C762 C763 1.415 . S
C762 H796 0.932 . S
C763 C762 1.415 . S
C763 C764 1.366 . S
C763 H797 0.931 . S
C764 N759 1.325 . S
C764 C763 1.366 . S
C764 C768 1.516 . S
N765 Co723 1.974 . S
N765 C766 1.309 . S
N765 C771 1.423 . S
C766 C760 1.504 . S
C766 N765 1.309 . S
C766 O767 1.258 . S
O767 C766 1.258 . S
C768 N741 1.316 . S
C768 C764 1.516 . S
C768 O781 1.263 . S
O769 Cd712 2.350 . S
O769 C785 1.270 . S
O770 Cd712 2.278 . S
O770 C785 1.249 . S
C771 N765 1.423 . S
C771 C772 1.370 . S
C771 C776 1.403 . S
C772 C771 1.370 . S
C772 C773 1.389 . S
C772 H798 0.931 . S
C773 C772 1.389 . S
C773 C774 1.389 . S
C774 C773 1.389 . S
C774 C775 1.379 . S
C774 H799 0.929 . S
C775 C774 1.379 . S
C775 C776 1.405 . S
C776 C771 1.403 . S
C776 C775 1.405 . S
C776 H800 0.932 . S
O777 Cd712 2.178 . S
O777 C713 1.276 1_556 S
O778 C713 1.230 1_556 S
O778 Cd716 2.250 . S
O779 Cd712 2.263 . S
O779 C732 1.258 . S
O780 Cd716 2.308 . S
O780 C732 1.274 . S
O781 Cd712 2.366 . S
O781 C768 1.263 . S
C782 O783 1.235 . S
C782 O784 1.270 . S
O783 Cd716 2.352 1_554 S
O783 C782 1.235 . S
O784 Cd712 2.329 1_554 S
O784 C782 1.270 . S
C785 O769 1.270 . S
C785 O770 1.249 . S
H786 C718 0.930 . S
H787 C721 0.930 . S
H788 C722 0.931 . S
H789 C727 0.929 . S
H790 C729 0.930 . S
H791 C731 0.930 . S
H792 C734 0.929 . S
H793 C735 0.932 . S
H794 C737 0.930 . S
H795 C761 0.929 . S
H796 C762 0.932 . S
H797 C763 0.931 . S
H798 C772 0.931 . S
H799 C774 0.929 . S
H800 C776 0.932 . S
Cd801 O858 2.350 . S
Cd801 O859 2.277 . S
Cd801 O866 2.173 . S
Cd801 O868 2.263 . S
Cd801 O870 2.366 . S
Cd801 O873 2.329 . S
C802 O866 1.277 . S
C802 O867 1.230 . S
C803 O804 1.246 . S
C803 C806 1.481 . S
C803 N828 1.329 . S
O804 C803 1.246 . S
Cd805 O867 2.250 . S
Cd805 O869 2.308 . S
Cd805 O872 2.352 . S
C806 C803 1.481 . S
C806 N809 1.327 . S
C806 C810 1.407 . S
C807 C808 1.346 . S
C807 C811 1.390 . S
C807 H875 0.930 . S
C808 C807 1.346 . S
C808 N809 1.342 . S
C808 C813 1.516 . S
N809 C806 1.327 . S
N809 C808 1.342 . S
N809 Co812 1.864 . S
C810 C806 1.407 . S
C810 C811 1.364 . S
C810 H876 0.930 . S
C811 C807 1.390 . S
C811 C810 1.364 . S
C811 H877 0.931 . S
Co812 N809 1.864 . S
Co812 N828 1.955 . S
Co812 N829 1.958 . S
Co812 N830 1.953 . S
Co812 N848 1.869 . S
Co812 N854 1.974 . S
C813 C808 1.516 . S
C813 O814 1.238 . S
C813 N829 1.324 . S
O814 C813 1.238 . S
C815 C816 1.394 . S
C815 C820 1.395 . S
C815 N829 1.427 . S
C816 C815 1.394 . S
C816 C817 1.380 . S
C816 H878 0.929 . S
C817 C816 1.380 . S
C817 C818 1.384 . S
C817 C821 1.495 . S
C818 C817 1.384 . S
C818 C819 1.382 . S
C818 H879 0.930 . S
C819 C818 1.382 . S
C819 C820 1.398 . S
C820 C815 1.395 . S
C820 C819 1.398 . S
C820 H880 0.930 . S
C821 C817 1.495 . S
C821 O868 1.258 . S
C821 O869 1.274 . S
C822 C823 1.385 . S
C822 C824 1.381 . S
C822 N828 1.432 . S
C823 C822 1.385 . S
C823 C827 1.388 . S
C823 H881 0.929 . S
C824 C822 1.381 . S
C824 C825 1.371 . S
C824 H882 0.932 . S
C825 C824 1.371 . S
C825 C826 1.400 . S
C826 C825 1.400 . S
C826 C827 1.351 . S
C826 H883 0.930 . S
C827 C823 1.388 . S
C827 C826 1.351 . S
N828 C803 1.329 . S
N828 Co812 1.955 . S
N828 C822 1.432 . S
N829 Co812 1.958 . S
N829 C813 1.324 . S
N829 C815 1.427 . S
N830 Co812 1.953 . S
N830 C831 1.436 . S
N830 C857 1.316 . S
C831 N830 1.436 . S
C831 C832 1.421 . S
C831 C833 1.360 . S
C832 C831 1.421 . S
C832 C834 1.379 . S
C832 H835 0.929 . S
C833 C831 1.360 . S
C833 C837 1.393 . S
C833 H839 0.931 . S
C834 C832 1.379 . S
C834 C836 1.417 . S
C834 C838 1.505 . S
H835 C832 0.929 . S
C836 C834 1.417 . S
C836 C837 1.352 . S
C836 H840 0.929 . S
C837 C833 1.393 . S
C837 C836 1.352 . S
C837 C841 1.482 . S
C838 C834 1.505 . S
C838 O842 1.259 . S
C838 O843 1.229 . S
H839 C833 0.931 . S
H840 C836 0.929 . S
C841 C837 1.482 . S
C841 O844 1.207 . S
C841 O845 1.289 . S
O842 C838 1.259 . S
O842 H846 0.822 . S
O843 C838 1.229 . S
O844 C841 1.207 . S
O845 C841 1.289 . S
O845 H847 0.819 . S
H846 O842 0.822 . S
H847 O845 0.819 . S
N848 Co812 1.869 . S
N848 C849 1.330 . S
N848 C853 1.325 . S
C849 N848 1.330 . S
C849 C850 1.359 . S
C849 C855 1.504 . S
C850 C849 1.359 . S
C850 C851 1.366 . S
C850 H884 0.929 . S
C851 C850 1.366 . S
C851 C852 1.415 . S
C851 H885 0.932 . S
C852 C851 1.415 . S
C852 C853 1.366 . S
C852 H886 0.931 . S
C853 N848 1.325 . S
C853 C852 1.366 . S
C853 C857 1.516 . S
N854 Co812 1.974 . S
N854 C855 1.309 . S
N854 C860 1.423 . S
C855 C849 1.504 . S
C855 N854 1.309 . S
C855 O856 1.258 . S
O856 C855 1.258 . S
C857 N830 1.316 . S
C857 C853 1.516 . S
C857 O870 1.263 . S
O858 Cd801 2.350 . S
O858 C874 1.270 . S
O859 Cd801 2.277 . S
O859 C874 1.248 . S
C860 N854 1.423 . S
C860 C861 1.370 . S
C860 C865 1.403 . S
C861 C860 1.370 . S
C861 C862 1.389 . S
C861 H887 0.931 . S
C862 C861 1.389 . S
C862 C863 1.389 . S
C863 C862 1.389 . S
C863 C864 1.379 . S
C863 H888 0.929 . S
C864 C863 1.379 . S
C864 C865 1.405 . S
C865 C860 1.403 . S
C865 C864 1.405 . S
C865 H889 0.932 . S
O866 Cd801 2.173 . S
O866 C802 1.277 . S
O867 C802 1.230 . S
O867 Cd805 2.250 . S
O868 Cd801 2.263 . S
O868 C821 1.258 . S
O869 Cd805 2.308 . S
O869 C821 1.274 . S
O870 Cd801 2.366 . S
O870 C857 1.263 . S
C871 O872 1.235 . S
C871 O873 1.270 . S
O872 Cd805 2.352 . S
O872 C871 1.235 . S
O873 Cd801 2.329 . S
O873 C871 1.270 . S
C874 O858 1.270 . S
C874 O859 1.248 . S
H875 C807 0.930 . S
H876 C810 0.930 . S
H877 C811 0.931 . S
H878 C816 0.929 . S
H879 C818 0.930 . S
H880 C820 0.930 . S
H881 C823 0.929 . S
H882 C824 0.932 . S
H883 C826 0.930 . S
H884 C850 0.929 . S
H885 C851 0.932 . S
H886 C852 0.931 . S
H887 C861 0.931 . S
H888 C863 0.929 . S
H889 C865 0.932 . S
Cd890 O947 2.350 . S
Cd890 O948 2.277 . S
Cd890 O955 2.173 . S
Cd890 O957 2.263 . S
Cd890 O959 2.366 . S
Cd890 O962 2.329 . S
C891 O955 1.277 . S
C891 O956 1.230 . S
C892 O893 1.246 . S
C892 C895 1.481 . S
C892 N917 1.329 . S
O893 C892 1.246 . S
Cd894 O956 2.250 . S
Cd894 O958 2.308 . S
Cd894 O961 2.352 . S
C895 C892 1.481 . S
C895 N898 1.327 . S
C895 C899 1.407 . S
C896 C897 1.346 . S
C896 C900 1.390 . S
C896 H964 0.930 . S
C897 C896 1.346 . S
C897 N898 1.342 . S
C897 C902 1.516 . S
N898 C895 1.327 . S
N898 C897 1.342 . S
N898 Co901 1.864 . S
C899 C895 1.407 . S
C899 C900 1.364 . S
C899 H965 0.930 . S
C900 C896 1.390 . S
C900 C899 1.364 . S
C900 H966 0.931 . S
Co901 N898 1.864 . S
Co901 N917 1.955 . S
Co901 N918 1.958 . S
Co901 N919 1.953 . S
Co901 N937 1.869 . S
Co901 N943 1.974 . S
C902 C897 1.516 . S
C902 O903 1.238 . S
C902 N918 1.324 . S
O903 C902 1.238 . S
C904 C905 1.394 . S
C904 C909 1.395 . S
C904 N918 1.427 . S
C905 C904 1.394 . S
C905 C906 1.380 . S
C905 H967 0.929 . S
C906 C905 1.380 . S
C906 C907 1.384 . S
C906 C910 1.495 . S
C907 C906 1.384 . S
C907 C908 1.382 . S
C907 H968 0.930 . S
C908 C907 1.382 . S
C908 C909 1.398 . S
C909 C904 1.395 . S
C909 C908 1.398 . S
C909 H969 0.930 . S
C910 C906 1.495 . S
C910 O957 1.258 . S
C910 O958 1.274 . S
C911 C912 1.385 . S
C911 C913 1.381 . S
C911 N917 1.432 . S
C912 C911 1.385 . S
C912 C916 1.388 . S
C912 H970 0.929 . S
C913 C911 1.381 . S
C913 C914 1.371 . S
C913 H971 0.932 . S
C914 C913 1.371 . S
C914 C915 1.400 . S
C915 C914 1.400 . S
C915 C916 1.351 . S
C915 H972 0.930 . S
C916 C912 1.388 . S
C916 C915 1.351 . S
N917 C892 1.329 . S
N917 Co901 1.955 . S
N917 C911 1.432 . S
N918 Co901 1.958 . S
N918 C902 1.324 . S
N918 C904 1.427 . S
N919 Co901 1.953 . S
N919 C920 1.436 . S
N919 C946 1.316 . S
C920 N919 1.436 . S
C920 C921 1.421 . S
C920 C922 1.360 . S
C921 C920 1.421 . S
C921 C923 1.379 . S
C921 H924 0.929 . S
C922 C920 1.360 . S
C922 C926 1.393 . S
C922 H928 0.931 . S
C923 C921 1.379 . S
C923 C925 1.417 . S
C923 C927 1.505 . S
H924 C921 0.929 . S
C925 C923 1.417 . S
C925 C926 1.352 . S
C925 H929 0.929 . S
C926 C922 1.393 . S
C926 C925 1.352 . S
C926 C930 1.482 . S
C927 C923 1.505 . S
C927 O931 1.259 . S
C927 O932 1.229 . S
H928 C922 0.931 . S
H929 C925 0.929 . S
C930 C926 1.482 . S
C930 O933 1.207 . S
C930 O934 1.289 . S
O931 C927 1.259 . S
O931 H935 0.822 . S
O932 C927 1.229 . S
O933 C930 1.207 . S
O934 C930 1.289 . S
O934 H936 0.819 . S
H935 O931 0.822 . S
H936 O934 0.819 . S
N937 Co901 1.869 . S
N937 C938 1.330 . S
N937 C942 1.325 . S
C938 N937 1.330 . S
C938 C939 1.359 . S
C938 C944 1.504 . S
C939 C938 1.359 . S
C939 C940 1.366 . S
C939 H973 0.929 . S
C940 C939 1.366 . S
C940 C941 1.415 . S
C940 H974 0.932 . S
C941 C940 1.415 . S
C941 C942 1.366 . S
C941 H975 0.931 . S
C942 N937 1.325 . S
C942 C941 1.366 . S
C942 C946 1.516 . S
N943 Co901 1.974 . S
N943 C944 1.309 . S
N943 C949 1.423 . S
C944 C938 1.504 . S
C944 N943 1.309 . S
C944 O945 1.258 . S
O945 C944 1.258 . S
C946 N919 1.316 . S
C946 C942 1.516 . S
C946 O959 1.263 . S
O947 Cd890 2.350 . S
O947 C963 1.270 . S
O948 Cd890 2.277 . S
O948 C963 1.248 . S
C949 N943 1.423 . S
C949 C950 1.370 . S
C949 C954 1.403 . S
C950 C949 1.370 . S
C950 C951 1.389 . S
C950 H976 0.931 . S
C951 C950 1.389 . S
C951 C952 1.389 . S
C952 C951 1.389 . S
C952 C953 1.379 . S
C952 H977 0.929 . S
C953 C952 1.379 . S
C953 C954 1.405 . S
C954 C949 1.403 . S
C954 C953 1.405 . S
C954 H978 0.932 . S
O955 Cd890 2.173 . S
O955 C891 1.277 . S
O956 C891 1.230 . S
O956 Cd894 2.250 . S
O957 Cd890 2.263 . S
O957 C910 1.258 . S
O958 Cd894 2.308 . S
O958 C910 1.274 . S
O959 Cd890 2.366 . S
O959 C946 1.263 . S
C960 O961 1.235 . S
C960 O962 1.270 . S
O961 Cd894 2.352 . S
O961 C960 1.235 . S
O962 Cd890 2.329 . S
O962 C960 1.270 . S
C963 O947 1.270 . S
C963 O948 1.248 . S
H964 C896 0.930 . S
H965 C899 0.930 . S
H966 C900 0.931 . S
H967 C905 0.929 . S
H968 C907 0.930 . S
H969 C909 0.930 . S
H970 C912 0.929 . S
H971 C913 0.932 . S
H972 C915 0.930 . S
H973 C939 0.929 . S
H974 C940 0.932 . S
H975 C941 0.931 . S
H976 C950 0.931 . S
H977 C952 0.929 . S
H978 C954 0.932 . S
Cd979 O1036 2.350 . S
Cd979 O1037 2.277 . S
Cd979 O1044 2.173 . S
Cd979 O1046 2.263 . S
Cd979 O1048 2.366 . S
Cd979 O1051 2.329 . S
C980 O1044 1.277 . S
C980 O1045 1.230 . S
C981 O982 1.246 . S
C981 C984 1.481 . S
C981 N1006 1.329 . S
O982 C981 1.246 . S
Cd983 O1045 2.250 . S
Cd983 O1047 2.308 . S
Cd983 O1050 2.352 . S
C984 C981 1.481 . S
C984 N987 1.327 . S
C984 C988 1.407 . S
C985 C986 1.346 . S
C985 C989 1.390 . S
C985 H1053 0.930 . S
C986 C985 1.346 . S
C986 N987 1.342 . S
C986 C991 1.516 . S
N987 C984 1.327 . S
N987 C986 1.342 . S
N987 Co990 1.864 . S
C988 C984 1.407 . S
C988 C989 1.364 . S
C988 H1054 0.930 . S
C989 C985 1.390 . S
C989 C988 1.364 . S
C989 H1055 0.931 . S
Co990 N987 1.864 . S
Co990 N1006 1.955 . S
Co990 N1007 1.958 . S
Co990 N1008 1.953 . S
Co990 N1026 1.869 . S
Co990 N1032 1.974 . S
C991 C986 1.516 . S
C991 O992 1.238 . S
C991 N1007 1.324 . S
O992 C991 1.238 . S
C993 C994 1.394 . S
C993 C998 1.395 . S
C993 N1007 1.427 . S
C994 C993 1.394 . S
C994 C995 1.380 . S
C994 H1056 0.929 . S
C995 C994 1.380 . S
C995 C996 1.384 . S
C995 C999 1.495 . S
C996 C995 1.384 . S
C996 C997 1.382 . S
C996 H1057 0.930 . S
C997 C996 1.382 . S
C997 C998 1.398 . S
C998 C993 1.395 . S
C998 C997 1.398 . S
C998 H1058 0.930 . S
C999 C995 1.495 . S
C999 O1046 1.258 . S
C999 O1047 1.274 . S
C1000 C1001 1.385 . S
C1000 C1002 1.381 . S
C1000 N1006 1.432 . S
C1001 C1000 1.385 . S
C1001 C1005 1.388 . S
C1001 H1059 0.929 . S
C1002 C1000 1.381 . S
C1002 C1003 1.371 . S
C1002 H1060 0.932 . S
C1003 C1002 1.371 . S
C1003 C1004 1.400 . S
C1004 C1003 1.400 . S
C1004 C1005 1.351 . S
C1004 H1061 0.930 . S
C1005 C1001 1.388 . S
C1005 C1004 1.351 . S
N1006 C981 1.329 . S
N1006 Co990 1.955 . S
N1006 C1000 1.432 . S
N1007 Co990 1.958 . S
N1007 C991 1.324 . S
N1007 C993 1.427 . S
N1008 Co990 1.953 . S
N1008 C1009 1.436 . S
N1008 C1035 1.316 . S
C1009 N1008 1.436 . S
C1009 C1010 1.421 . S
C1009 C1011 1.360 . S
C1010 C1009 1.421 . S
C1010 C1012 1.379 . S
C1010 H1013 0.929 . S
C1011 C1009 1.360 . S
C1011 C1015 1.393 . S
C1011 H1017 0.931 . S
C1012 C1010 1.379 . S
C1012 C1014 1.417 . S
C1012 C1016 1.505 . S
H1013 C1010 0.929 . S
C1014 C1012 1.417 . S
C1014 C1015 1.352 . S
C1014 H1018 0.929 . S
C1015 C1011 1.393 . S
C1015 C1014 1.352 . S
C1015 C1019 1.482 . S
C1016 C1012 1.505 . S
C1016 O1020 1.259 . S
C1016 O1021 1.229 . S
H1017 C1011 0.931 . S
H1018 C1014 0.929 . S
C1019 C1015 1.482 . S
C1019 O1022 1.207 . S
C1019 O1023 1.289 . S
O1020 C1016 1.259 . S
O1020 H1024 0.822 . S
O1021 C1016 1.229 . S
O1022 C1019 1.207 . S
O1023 C1019 1.289 . S
O1023 H1025 0.819 . S
H1024 O1020 0.822 . S
H1025 O1023 0.819 . S
N1026 Co990 1.869 . S
N1026 C1027 1.330 . S
N1026 C1031 1.325 . S
C1027 N1026 1.330 . S
C1027 C1028 1.359 . S
C1027 C1033 1.504 . S
C1028 C1027 1.359 . S
C1028 C1029 1.366 . S
C1028 H1062 0.929 . S
C1029 C1028 1.366 . S
C1029 C1030 1.415 . S
C1029 H1063 0.932 . S
C1030 C1029 1.415 . S
C1030 C1031 1.366 . S
C1030 H1064 0.931 . S
C1031 N1026 1.325 . S
C1031 C1030 1.366 . S
C1031 C1035 1.516 . S
N1032 Co990 1.974 . S
N1032 C1033 1.309 . S
N1032 C1038 1.423 . S
C1033 C1027 1.504 . S
C1033 N1032 1.309 . S
C1033 O1034 1.258 . S
O1034 C1033 1.258 . S
C1035 N1008 1.316 . S
C1035 C1031 1.516 . S
C1035 O1048 1.263 . S
O1036 Cd979 2.350 . S
O1036 C1052 1.270 . S
O1037 Cd979 2.277 . S
O1037 C1052 1.248 . S
C1038 N1032 1.423 . S
C1038 C1039 1.370 . S
C1038 C1043 1.403 . S
C1039 C1038 1.370 . S
C1039 C1040 1.389 . S
C1039 H1065 0.931 . S
C1040 C1039 1.389 . S
C1040 C1041 1.389 . S
C1041 C1040 1.389 . S
C1041 C1042 1.379 . S
C1041 H1066 0.929 . S
C1042 C1041 1.379 . S
C1042 C1043 1.405 . S
C1043 C1038 1.403 . S
C1043 C1042 1.405 . S
C1043 H1067 0.932 . S
O1044 Cd979 2.173 . S
O1044 C980 1.277 . S
O1045 C980 1.230 . S
O1045 Cd983 2.250 . S
O1046 Cd979 2.263 . S
O1046 C999 1.258 . S
O1047 Cd983 2.308 . S
O1047 C999 1.274 . S
O1048 Cd979 2.366 . S
O1048 C1035 1.263 . S
C1049 O1050 1.235 . S
C1049 O1051 1.270 . S
O1050 Cd983 2.352 . S
O1050 C1049 1.235 . S
O1051 Cd979 2.329 . S
O1051 C1049 1.270 . S
C1052 O1036 1.270 . S
C1052 O1037 1.248 . S
H1053 C985 0.930 . S
H1054 C988 0.930 . S
H1055 C989 0.931 . S
H1056 C994 0.929 . S
H1057 C996 0.930 . S
H1058 C998 0.930 . S
H1059 C1001 0.929 . S
H1060 C1002 0.932 . S
H1061 C1004 0.930 . S
H1062 C1028 0.929 . S
H1063 C1029 0.932 . S
H1064 C1030 0.931 . S
H1065 C1039 0.931 . S
H1066 C1041 0.929 . S
H1067 C1043 0.932 . S
Cd1068 O1125 2.350 . S
Cd1068 O1126 2.277 . S
Cd1068 O1133 2.173 . S
Cd1068 O1135 2.263 . S
Cd1068 O1137 2.366 . S
Cd1068 O1140 2.329 . S
C1069 O1133 1.277 . S
C1069 O1134 1.230 . S
C1070 O1071 1.246 . S
C1070 C1073 1.481 . S
C1070 N1095 1.329 . S
O1071 C1070 1.246 . S
Cd1072 O1134 2.250 . S
Cd1072 O1136 2.308 . S
Cd1072 O1139 2.352 . S
C1073 C1070 1.481 . S
C1073 N1076 1.327 . S
C1073 C1077 1.407 . S
C1074 C1075 1.346 . S
C1074 C1078 1.390 . S
C1074 H1142 0.930 . S
C1075 C1074 1.346 . S
C1075 N1076 1.342 . S
C1075 C1080 1.516 . S
N1076 C1073 1.327 . S
N1076 C1075 1.342 . S
N1076 Co1079 1.864 . S
C1077 C1073 1.407 . S
C1077 C1078 1.364 . S
C1077 H1143 0.930 . S
C1078 C1074 1.390 . S
C1078 C1077 1.364 . S
C1078 H1144 0.931 . S
Co1079 N1076 1.864 . S
Co1079 N1095 1.955 . S
Co1079 N1096 1.958 . S
Co1079 N1097 1.953 . S
Co1079 N1115 1.869 . S
Co1079 N1121 1.974 . S
C1080 C1075 1.516 . S
C1080 O1081 1.238 . S
C1080 N1096 1.324 . S
O1081 C1080 1.238 . S
C1082 C1083 1.394 . S
C1082 C1087 1.395 . S
C1082 N1096 1.427 . S
C1083 C1082 1.394 . S
C1083 C1084 1.380 . S
C1083 H1145 0.929 . S
C1084 C1083 1.380 . S
C1084 C1085 1.384 . S
C1084 C1088 1.495 . S
C1085 C1084 1.384 . S
C1085 C1086 1.382 . S
C1085 H1146 0.930 . S
C1086 C1085 1.382 . S
C1086 C1087 1.398 . S
C1087 C1082 1.395 . S
C1087 C1086 1.398 . S
C1087 H1147 0.930 . S
C1088 C1084 1.495 . S
C1088 O1135 1.258 . S
C1088 O1136 1.274 . S
C1089 C1090 1.385 . S
C1089 C1091 1.381 . S
C1089 N1095 1.432 . S
C1090 C1089 1.385 . S
C1090 C1094 1.388 . S
C1090 H1148 0.929 . S
C1091 C1089 1.381 . S
C1091 C1092 1.371 . S
C1091 H1149 0.932 . S
C1092 C1091 1.371 . S
C1092 C1093 1.400 . S
C1093 C1092 1.400 . S
C1093 C1094 1.351 . S
C1093 H1150 0.930 . S
C1094 C1090 1.388 . S
C1094 C1093 1.351 . S
N1095 C1070 1.329 . S
N1095 Co1079 1.955 . S
N1095 C1089 1.432 . S
N1096 Co1079 1.958 . S
N1096 C1080 1.324 . S
N1096 C1082 1.427 . S
N1097 Co1079 1.953 . S
N1097 C1098 1.436 . S
N1097 C1124 1.316 . S
C1098 N1097 1.436 . S
C1098 C1099 1.421 . S
C1098 C1100 1.360 . S
C1099 C1098 1.421 . S
C1099 C1101 1.379 . S
C1099 H1102 0.929 . S
C1100 C1098 1.360 . S
C1100 C1104 1.393 . S
C1100 H1106 0.931 . S
C1101 C1099 1.379 . S
C1101 C1103 1.417 . S
C1101 C1105 1.505 . S
H1102 C1099 0.929 . S
C1103 C1101 1.417 . S
C1103 C1104 1.352 . S
C1103 H1107 0.929 . S
C1104 C1100 1.393 . S
C1104 C1103 1.352 . S
C1104 C1108 1.482 . S
C1105 C1101 1.505 . S
C1105 O1109 1.259 . S
C1105 O1110 1.229 . S
H1106 C1100 0.931 . S
H1107 C1103 0.929 . S
C1108 C1104 1.482 . S
C1108 O1111 1.207 . S
C1108 O1112 1.289 . S
O1109 C1105 1.259 . S
O1109 H1113 0.822 . S
O1110 C1105 1.229 . S
O1111 C1108 1.207 . S
O1112 C1108 1.289 . S
O1112 H1114 0.819 . S
H1113 O1109 0.822 . S
H1114 O1112 0.819 . S
N1115 Co1079 1.869 . S
N1115 C1116 1.330 . S
N1115 C1120 1.325 . S
C1116 N1115 1.330 . S
C1116 C1117 1.359 . S
C1116 C1122 1.504 . S
C1117 C1116 1.359 . S
C1117 C1118 1.366 . S
C1117 H1151 0.929 . S
C1118 C1117 1.366 . S
C1118 C1119 1.415 . S
C1118 H1152 0.932 . S
C1119 C1118 1.415 . S
C1119 C1120 1.366 . S
C1119 H1153 0.931 . S
C1120 N1115 1.325 . S
C1120 C1119 1.366 . S
C1120 C1124 1.516 . S
N1121 Co1079 1.974 . S
N1121 C1122 1.309 . S
N1121 C1127 1.423 . S
C1122 C1116 1.504 . S
C1122 N1121 1.309 . S
C1122 O1123 1.258 . S
O1123 C1122 1.258 . S
C1124 N1097 1.316 . S
C1124 C1120 1.516 . S
C1124 O1137 1.263 . S
O1125 Cd1068 2.350 . S
O1125 C1141 1.270 . S
O1126 Cd1068 2.277 . S
O1126 C1141 1.248 . S
C1127 N1121 1.423 . S
C1127 C1128 1.370 . S
C1127 C1132 1.403 . S
C1128 C1127 1.370 . S
C1128 C1129 1.389 . S
C1128 H1154 0.931 . S
C1129 C1128 1.389 . S
C1129 C1130 1.389 . S
C1130 C1129 1.389 . S
C1130 C1131 1.379 . S
C1130 H1155 0.929 . S
C1131 C1130 1.379 . S
C1131 C1132 1.405 . S
C1132 C1127 1.403 . S
C1132 C1131 1.405 . S
C1132 H1156 0.932 . S
O1133 Cd1068 2.173 . S
O1133 C1069 1.277 . S
O1134 C1069 1.230 . S
O1134 Cd1072 2.250 . S
O1135 Cd1068 2.263 . S
O1135 C1088 1.258 . S
O1136 Cd1072 2.308 . S
O1136 C1088 1.274 . S
O1137 Cd1068 2.366 . S
O1137 C1124 1.263 . S
C1138 O1139 1.235 . S
C1138 O1140 1.270 . S
O1139 Cd1072 2.352 . S
O1139 C1138 1.235 . S
O1140 Cd1068 2.329 . S
O1140 C1138 1.270 . S
C1141 O1125 1.270 . S
C1141 O1126 1.248 . S
H1142 C1074 0.930 . S
H1143 C1077 0.930 . S
H1144 C1078 0.931 . S
H1145 C1083 0.929 . S
H1146 C1085 0.930 . S
H1147 C1087 0.930 . S
H1148 C1090 0.929 . S
H1149 C1091 0.932 . S
H1150 C1093 0.930 . S
H1151 C1117 0.929 . S
H1152 C1118 0.932 . S
H1153 C1119 0.931 . S
H1154 C1128 0.931 . S
H1155 C1130 0.929 . S
H1156 C1132 0.932 . S
Cd1157 O1214 2.350 . S
Cd1157 O1215 2.277 . S
Cd1157 O1222 2.173 . S
Cd1157 O1224 2.263 . S
Cd1157 O1226 2.366 . S
Cd1157 O1229 2.329 . S
C1158 O1222 1.277 . S
C1158 O1223 1.230 . S
C1159 O1160 1.246 . S
C1159 C1162 1.481 . S
C1159 N1184 1.329 . S
O1160 C1159 1.246 . S
Cd1161 O1223 2.250 . S
Cd1161 O1225 2.308 . S
Cd1161 O1228 2.352 . S
C1162 C1159 1.481 . S
C1162 N1165 1.327 . S
C1162 C1166 1.407 . S
C1163 C1164 1.346 . S
C1163 C1167 1.390 . S
C1163 H1231 0.930 . S
C1164 C1163 1.346 . S
C1164 N1165 1.342 . S
C1164 C1169 1.516 . S
N1165 C1162 1.327 . S
N1165 C1164 1.342 . S
N1165 Co1168 1.864 . S
C1166 C1162 1.407 . S
C1166 C1167 1.364 . S
C1166 H1232 0.930 . S
C1167 C1163 1.390 . S
C1167 C1166 1.364 . S
C1167 H1233 0.931 . S
Co1168 N1165 1.864 . S
Co1168 N1184 1.955 . S
Co1168 N1185 1.958 . S
Co1168 N1186 1.953 . S
Co1168 N1204 1.869 . S
Co1168 N1210 1.974 . S
C1169 C1164 1.516 . S
C1169 O1170 1.238 . S
C1169 N1185 1.324 . S
O1170 C1169 1.238 . S
C1171 C1172 1.394 . S
C1171 C1176 1.395 . S
C1171 N1185 1.427 . S
C1172 C1171 1.394 . S
C1172 C1173 1.380 . S
C1172 H1234 0.929 . S
C1173 C1172 1.380 . S
C1173 C1174 1.384 . S
C1173 C1177 1.495 . S
C1174 C1173 1.384 . S
C1174 C1175 1.382 . S
C1174 H1235 0.930 . S
C1175 C1174 1.382 . S
C1175 C1176 1.398 . S
C1176 C1171 1.395 . S
C1176 C1175 1.398 . S
C1176 H1236 0.930 . S
C1177 C1173 1.495 . S
C1177 O1224 1.258 . S
C1177 O1225 1.274 . S
C1178 C1179 1.385 . S
C1178 C1180 1.381 . S
C1178 N1184 1.432 . S
C1179 C1178 1.385 . S
C1179 C1183 1.388 . S
C1179 H1237 0.929 . S
C1180 C1178 1.381 . S
C1180 C1181 1.371 . S
C1180 H1238 0.932 . S
C1181 C1180 1.371 . S
C1181 C1182 1.400 . S
C1182 C1181 1.400 . S
C1182 C1183 1.351 . S
C1182 H1239 0.930 . S
C1183 C1179 1.388 . S
C1183 C1182 1.351 . S
N1184 C1159 1.329 . S
N1184 Co1168 1.955 . S
N1184 C1178 1.432 . S
N1185 Co1168 1.958 . S
N1185 C1169 1.324 . S
N1185 C1171 1.427 . S
N1186 Co1168 1.953 . S
N1186 C1187 1.436 . S
N1186 C1213 1.316 . S
C1187 N1186 1.436 . S
C1187 C1188 1.421 . S
C1187 C1189 1.360 . S
C1188 C1187 1.421 . S
C1188 C1190 1.379 . S
C1188 H1191 0.929 . S
C1189 C1187 1.360 . S
C1189 C1193 1.393 . S
C1189 H1195 0.931 . S
C1190 C1188 1.379 . S
C1190 C1192 1.417 . S
C1190 C1194 1.505 . S
H1191 C1188 0.929 . S
C1192 C1190 1.417 . S
C1192 C1193 1.352 . S
C1192 H1196 0.929 . S
C1193 C1189 1.393 . S
C1193 C1192 1.352 . S
C1193 C1197 1.482 . S
C1194 C1190 1.505 . S
C1194 O1198 1.259 . S
C1194 O1199 1.229 . S
H1195 C1189 0.931 . S
H1196 C1192 0.929 . S
C1197 C1193 1.482 . S
C1197 O1200 1.207 . S
C1197 O1201 1.289 . S
O1198 C1194 1.259 . S
O1198 H1202 0.822 . S
O1199 C1194 1.229 . S
O1200 C1197 1.207 . S
O1201 C1197 1.289 . S
O1201 H1203 0.819 . S
H1202 O1198 0.822 . S
H1203 O1201 0.819 . S
N1204 Co1168 1.869 . S
N1204 C1205 1.330 . S
N1204 C1209 1.325 . S
C1205 N1204 1.330 . S
C1205 C1206 1.359 . S
C1205 C1211 1.504 . S
C1206 C1205 1.359 . S
C1206 C1207 1.366 . S
C1206 H1240 0.929 . S
C1207 C1206 1.366 . S
C1207 C1208 1.415 . S
C1207 H1241 0.932 . S
C1208 C1207 1.415 . S
C1208 C1209 1.366 . S
C1208 H1242 0.931 . S
C1209 N1204 1.325 . S
C1209 C1208 1.366 . S
C1209 C1213 1.516 . S
N1210 Co1168 1.974 . S
N1210 C1211 1.309 . S
N1210 C1216 1.423 . S
C1211 C1205 1.504 . S
C1211 N1210 1.309 . S
C1211 O1212 1.258 . S
O1212 C1211 1.258 . S
C1213 N1186 1.316 . S
C1213 C1209 1.516 . S
C1213 O1226 1.263 . S
O1214 Cd1157 2.350 . S
O1214 C1230 1.270 . S
O1215 Cd1157 2.277 . S
O1215 C1230 1.248 . S
C1216 N1210 1.423 . S
C1216 C1217 1.370 . S
C1216 C1221 1.403 . S
C1217 C1216 1.370 . S
C1217 C1218 1.389 . S
C1217 H1243 0.931 . S
C1218 C1217 1.389 . S
C1218 C1219 1.389 . S
C1219 C1218 1.389 . S
C1219 C1220 1.379 . S
C1219 H1244 0.929 . S
C1220 C1219 1.379 . S
C1220 C1221 1.405 . S
C1221 C1216 1.403 . S
C1221 C1220 1.405 . S
C1221 H1245 0.932 . S
O1222 Cd1157 2.173 . S
O1222 C1158 1.277 . S
O1223 C1158 1.230 . S
O1223 Cd1161 2.250 . S
O1224 Cd1157 2.263 . S
O1224 C1177 1.258 . S
O1225 Cd1161 2.308 . S
O1225 C1177 1.274 . S
O1226 Cd1157 2.366 . S
O1226 C1213 1.263 . S
C1227 O1228 1.235 . S
C1227 O1229 1.270 . S
O1228 Cd1161 2.352 . S
O1228 C1227 1.235 . S
O1229 Cd1157 2.329 . S
O1229 C1227 1.270 . S
C1230 O1214 1.270 . S
C1230 O1215 1.248 . S
H1231 C1163 0.930 . S
H1232 C1166 0.930 . S
H1233 C1167 0.931 . S
H1234 C1172 0.929 . S
H1235 C1174 0.930 . S
H1236 C1176 0.930 . S
H1237 C1179 0.929 . S
H1238 C1180 0.932 . S
H1239 C1182 0.930 . S
H1240 C1206 0.929 . S
H1241 C1207 0.932 . S
H1242 C1208 0.931 . S
H1243 C1217 0.931 . S
H1244 C1219 0.929 . S
H1245 C1221 0.932 . S
Cd1246 O1303 2.350 . S
Cd1246 O1304 2.277 . S
Cd1246 O1311 2.173 . S
Cd1246 O1313 2.263 . S
Cd1246 O1315 2.366 . S
Cd1246 O1318 2.329 . S
C1247 O1311 1.277 . S
C1247 O1312 1.230 . S
C1248 O1249 1.246 . S
C1248 C1251 1.481 . S
C1248 N1273 1.329 . S
O1249 C1248 1.246 . S
Cd1250 O1312 2.250 . S
Cd1250 O1314 2.308 . S
Cd1250 O1317 2.352 . S
C1251 C1248 1.481 . S
C1251 N1254 1.327 . S
C1251 C1255 1.407 . S
C1252 C1253 1.346 . S
C1252 C1256 1.390 . S
C1252 H1320 0.930 . S
C1253 C1252 1.346 . S
C1253 N1254 1.342 . S
C1253 C1258 1.516 . S
N1254 C1251 1.327 . S
N1254 C1253 1.342 . S
N1254 Co1257 1.864 . S
C1255 C1251 1.407 . S
C1255 C1256 1.364 . S
C1255 H1321 0.930 . S
C1256 C1252 1.390 . S
C1256 C1255 1.364 . S
C1256 H1322 0.931 . S
Co1257 N1254 1.864 . S
Co1257 N1273 1.955 . S
Co1257 N1274 1.958 . S
Co1257 N1275 1.953 . S
Co1257 N1293 1.869 . S
Co1257 N1299 1.974 . S
C1258 C1253 1.516 . S
C1258 O1259 1.238 . S
C1258 N1274 1.324 . S
O1259 C1258 1.238 . S
C1260 C1261 1.394 . S
C1260 C1265 1.395 . S
C1260 N1274 1.427 . S
C1261 C1260 1.394 . S
C1261 C1262 1.380 . S
C1261 H1323 0.929 . S
C1262 C1261 1.380 . S
C1262 C1263 1.384 . S
C1262 C1266 1.495 . S
C1263 C1262 1.384 . S
C1263 C1264 1.382 . S
C1263 H1324 0.930 . S
C1264 C1263 1.382 . S
C1264 C1265 1.398 . S
C1265 C1260 1.395 . S
C1265 C1264 1.398 . S
C1265 H1325 0.930 . S
C1266 C1262 1.495 . S
C1266 O1313 1.258 . S
C1266 O1314 1.274 . S
C1267 C1268 1.385 . S
C1267 C1269 1.381 . S
C1267 N1273 1.432 . S
C1268 C1267 1.385 . S
C1268 C1272 1.388 . S
C1268 H1326 0.929 . S
C1269 C1267 1.381 . S
C1269 C1270 1.371 . S
C1269 H1327 0.932 . S
C1270 C1269 1.371 . S
C1270 C1271 1.400 . S
C1271 C1270 1.400 . S
C1271 C1272 1.351 . S
C1271 H1328 0.930 . S
C1272 C1268 1.388 . S
C1272 C1271 1.351 . S
N1273 C1248 1.329 . S
N1273 Co1257 1.955 . S
N1273 C1267 1.432 . S
N1274 Co1257 1.958 . S
N1274 C1258 1.324 . S
N1274 C1260 1.427 . S
N1275 Co1257 1.953 . S
N1275 C1276 1.436 . S
N1275 C1302 1.316 . S
C1276 N1275 1.436 . S
C1276 C1277 1.421 . S
C1276 C1278 1.360 . S
C1277 C1276 1.421 . S
C1277 C1279 1.379 . S
C1277 H1280 0.929 . S
C1278 C1276 1.360 . S
C1278 C1282 1.393 . S
C1278 H1284 0.931 . S
C1279 C1277 1.379 . S
C1279 C1281 1.417 . S
C1279 C1283 1.505 . S
H1280 C1277 0.929 . S
C1281 C1279 1.417 . S
C1281 C1282 1.352 . S
C1281 H1285 0.929 . S
C1282 C1278 1.393 . S
C1282 C1281 1.352 . S
C1282 C1286 1.482 . S
C1283 C1279 1.505 . S
C1283 O1287 1.259 . S
C1283 O1288 1.229 . S
H1284 C1278 0.931 . S
H1285 C1281 0.929 . S
C1286 C1282 1.482 . S
C1286 O1289 1.207 . S
C1286 O1290 1.289 . S
O1287 C1283 1.259 . S
O1287 H1291 0.822 . S
O1288 C1283 1.229 . S
O1289 C1286 1.207 . S
O1290 C1286 1.289 . S
O1290 H1292 0.819 . S
H1291 O1287 0.822 . S
H1292 O1290 0.819 . S
N1293 Co1257 1.869 . S
N1293 C1294 1.330 . S
N1293 C1298 1.325 . S
C1294 N1293 1.330 . S
C1294 C1295 1.359 . S
C1294 C1300 1.504 . S
C1295 C1294 1.359 . S
C1295 C1296 1.366 . S
C1295 H1329 0.929 . S
C1296 C1295 1.366 . S
C1296 C1297 1.415 . S
C1296 H1330 0.932 . S
C1297 C1296 1.415 . S
C1297 C1298 1.366 . S
C1297 H1331 0.931 . S
C1298 N1293 1.325 . S
C1298 C1297 1.366 . S
C1298 C1302 1.516 . S
N1299 Co1257 1.974 . S
N1299 C1300 1.309 . S
N1299 C1305 1.423 . S
C1300 C1294 1.504 . S
C1300 N1299 1.309 . S
C1300 O1301 1.258 . S
O1301 C1300 1.258 . S
C1302 N1275 1.316 . S
C1302 C1298 1.516 . S
C1302 O1315 1.263 . S
O1303 Cd1246 2.350 . S
O1303 C1319 1.270 . S
O1304 Cd1246 2.277 . S
O1304 C1319 1.248 . S
C1305 N1299 1.423 . S
C1305 C1306 1.370 . S
C1305 C1310 1.403 . S
C1306 C1305 1.370 . S
C1306 C1307 1.389 . S
C1306 H1332 0.931 . S
C1307 C1306 1.389 . S
C1307 C1308 1.389 . S
C1308 C1307 1.389 . S
C1308 C1309 1.379 . S
C1308 H1333 0.929 . S
C1309 C1308 1.379 . S
C1309 C1310 1.405 . S
C1310 C1305 1.403 . S
C1310 C1309 1.405 . S
C1310 H1334 0.932 . S
O1311 Cd1246 2.173 . S
O1311 C1247 1.277 . S
O1312 C1247 1.230 . S
O1312 Cd1250 2.250 . S
O1313 Cd1246 2.263 . S
O1313 C1266 1.258 . S
O1314 Cd1250 2.308 . S
O1314 C1266 1.274 . S
O1315 Cd1246 2.366 . S
O1315 C1302 1.263 . S
C1316 O1317 1.235 . S
C1316 O1318 1.270 . S
O1317 Cd1250 2.352 . S
O1317 C1316 1.235 . S
O1318 Cd1246 2.329 . S
O1318 C1316 1.270 . S
C1319 O1303 1.270 . S
C1319 O1304 1.248 . S
H1320 C1252 0.930 . S
H1321 C1255 0.930 . S
H1322 C1256 0.931 . S
H1323 C1261 0.929 . S
H1324 C1263 0.930 . S
H1325 C1265 0.930 . S
H1326 C1268 0.929 . S
H1327 C1269 0.932 . S
H1328 C1271 0.930 . S
H1329 C1295 0.929 . S
H1330 C1296 0.932 . S
H1331 C1297 0.931 . S
H1332 C1306 0.931 . S
H1333 C1308 0.929 . S
H1334 C1310 0.932 . S
Cd1335 O1392 2.350 . S
Cd1335 O1393 2.277 . S
Cd1335 O1400 2.173 . S
Cd1335 O1402 2.263 . S
Cd1335 O1404 2.366 . S
Cd1335 O1407 2.329 . S
C1336 O1400 1.277 . S
C1336 O1401 1.230 . S
C1337 O1338 1.246 . S
C1337 C1340 1.481 . S
C1337 N1362 1.329 . S
O1338 C1337 1.246 . S
Cd1339 O1401 2.250 . S
Cd1339 O1403 2.308 . S
Cd1339 O1406 2.352 . S
C1340 C1337 1.481 . S
C1340 N1343 1.327 . S
C1340 C1344 1.407 . S
C1341 C1342 1.346 . S
C1341 C1345 1.390 . S
C1341 H1409 0.930 . S
C1342 C1341 1.346 . S
C1342 N1343 1.342 . S
C1342 C1347 1.516 . S
N1343 C1340 1.327 . S
N1343 C1342 1.342 . S
N1343 Co1346 1.864 . S
C1344 C1340 1.407 . S
C1344 C1345 1.364 . S
C1344 H1410 0.930 . S
C1345 C1341 1.390 . S
C1345 C1344 1.364 . S
C1345 H1411 0.931 . S
Co1346 N1343 1.864 . S
Co1346 N1362 1.955 . S
Co1346 N1363 1.958 . S
Co1346 N1364 1.953 . S
Co1346 N1382 1.869 . S
Co1346 N1388 1.974 . S
C1347 C1342 1.516 . S
C1347 O1348 1.238 . S
C1347 N1363 1.324 . S
O1348 C1347 1.238 . S
C1349 C1350 1.394 . S
C1349 C1354 1.395 . S
C1349 N1363 1.427 . S
C1350 C1349 1.394 . S
C1350 C1351 1.380 . S
C1350 H1412 0.929 . S
C1351 C1350 1.380 . S
C1351 C1352 1.384 . S
C1351 C1355 1.495 . S
C1352 C1351 1.384 . S
C1352 C1353 1.382 . S
C1352 H1413 0.930 . S
C1353 C1352 1.382 . S
C1353 C1354 1.398 . S
C1354 C1349 1.395 . S
C1354 C1353 1.398 . S
C1354 H1414 0.930 . S
C1355 C1351 1.495 . S
C1355 O1402 1.258 . S
C1355 O1403 1.274 . S
C1356 C1357 1.385 . S
C1356 C1358 1.381 . S
C1356 N1362 1.432 . S
C1357 C1356 1.385 . S
C1357 C1361 1.388 . S
C1357 H1415 0.929 . S
C1358 C1356 1.381 . S
C1358 C1359 1.371 . S
C1358 H1416 0.932 . S
C1359 C1358 1.371 . S
C1359 C1360 1.400 . S
C1360 C1359 1.400 . S
C1360 C1361 1.351 . S
C1360 H1417 0.930 . S
C1361 C1357 1.388 . S
C1361 C1360 1.351 . S
N1362 C1337 1.329 . S
N1362 Co1346 1.955 . S
N1362 C1356 1.432 . S
N1363 Co1346 1.958 . S
N1363 C1347 1.324 . S
N1363 C1349 1.427 . S
N1364 Co1346 1.953 . S
N1364 C1365 1.436 . S
N1364 C1391 1.316 . S
C1365 N1364 1.436 . S
C1365 C1366 1.421 . S
C1365 C1367 1.360 . S
C1366 C1365 1.421 . S
C1366 C1368 1.379 . S
C1366 H1369 0.929 . S
C1367 C1365 1.360 . S
C1367 C1371 1.393 . S
C1367 H1373 0.931 . S
C1368 C1366 1.379 . S
C1368 C1370 1.417 . S
C1368 C1372 1.505 . S
H1369 C1366 0.929 . S
C1370 C1368 1.417 . S
C1370 C1371 1.352 . S
C1370 H1374 0.929 . S
C1371 C1367 1.393 . S
C1371 C1370 1.352 . S
C1371 C1375 1.482 . S
C1372 C1368 1.505 . S
C1372 O1376 1.259 . S
C1372 O1377 1.229 . S
H1373 C1367 0.931 . S
H1374 C1370 0.929 . S
C1375 C1371 1.482 . S
C1375 O1378 1.207 . S
C1375 O1379 1.289 . S
O1376 C1372 1.259 . S
O1376 H1380 0.822 . S
O1377 C1372 1.229 . S
O1378 C1375 1.207 . S
O1379 C1375 1.289 . S
O1379 H1381 0.819 . S
H1380 O1376 0.822 . S
H1381 O1379 0.819 . S
N1382 Co1346 1.869 . S
N1382 C1383 1.330 . S
N1382 C1387 1.325 . S
C1383 N1382 1.330 . S
C1383 C1384 1.359 . S
C1383 C1389 1.504 . S
C1384 C1383 1.359 . S
C1384 C1385 1.366 . S
C1384 H1418 0.929 . S
C1385 C1384 1.366 . S
C1385 C1386 1.415 . S
C1385 H1419 0.932 . S
C1386 C1385 1.415 . S
C1386 C1387 1.366 . S
C1386 H1420 0.931 . S
C1387 N1382 1.325 . S
C1387 C1386 1.366 . S
C1387 C1391 1.516 . S
N1388 Co1346 1.974 . S
N1388 C1389 1.309 . S
N1388 C1394 1.423 . S
C1389 C1383 1.504 . S
C1389 N1388 1.309 . S
C1389 O1390 1.258 . S
O1390 C1389 1.258 . S
C1391 N1364 1.316 . S
C1391 C1387 1.516 . S
C1391 O1404 1.263 . S
O1392 Cd1335 2.350 . S
O1392 C1408 1.270 . S
O1393 Cd1335 2.277 . S
O1393 C1408 1.248 . S
C1394 N1388 1.423 . S
C1394 C1395 1.370 . S
C1394 C1399 1.403 . S
C1395 C1394 1.370 . S
C1395 C1396 1.389 . S
C1395 H1421 0.931 . S
C1396 C1395 1.389 . S
C1396 C1397 1.389 . S
C1397 C1396 1.389 . S
C1397 C1398 1.379 . S
C1397 H1422 0.929 . S
C1398 C1397 1.379 . S
C1398 C1399 1.405 . S
C1399 C1394 1.403 . S
C1399 C1398 1.405 . S
C1399 H1423 0.932 . S
O1400 Cd1335 2.173 . S
O1400 C1336 1.277 . S
O1401 C1336 1.230 . S
O1401 Cd1339 2.250 . S
O1402 Cd1335 2.263 . S
O1402 C1355 1.258 . S
O1403 Cd1339 2.308 . S
O1403 C1355 1.274 . S
O1404 Cd1335 2.366 . S
O1404 C1391 1.263 . S
C1405 O1406 1.235 . S
C1405 O1407 1.270 . S
O1406 Cd1339 2.352 . S
O1406 C1405 1.235 . S
O1407 Cd1335 2.329 . S
O1407 C1405 1.270 . S
C1408 O1392 1.270 . S
C1408 O1393 1.248 . S
H1409 C1341 0.930 . S
H1410 C1344 0.930 . S
H1411 C1345 0.931 . S
H1412 C1350 0.929 . S
H1413 C1352 0.930 . S
H1414 C1354 0.930 . S
H1415 C1357 0.929 . S
H1416 C1358 0.932 . S
H1417 C1360 0.930 . S
H1418 C1384 0.929 . S
H1419 C1385 0.932 . S
H1420 C1386 0.931 . S
H1421 C1395 0.931 . S
H1422 C1397 0.929 . S
H1423 C1399 0.932 . S
Cd1424 O1481 2.350 . S
Cd1424 O1482 2.277 . S
Cd1424 O1489 2.173 . S
Cd1424 O1491 2.263 . S
Cd1424 O1493 2.366 . S
Cd1424 O1496 2.329 . S
C1425 O1489 1.277 . S
C1425 O1490 1.230 . S
C1426 O1427 1.246 . S
C1426 C1429 1.481 . S
C1426 N1451 1.329 . S
O1427 C1426 1.246 . S
Cd1428 O1490 2.250 . S
Cd1428 O1492 2.308 . S
Cd1428 O1495 2.352 . S
C1429 C1426 1.481 . S
C1429 N1432 1.327 . S
C1429 C1433 1.407 . S
C1430 C1431 1.346 . S
C1430 C1434 1.390 . S
C1430 H1498 0.930 . S
C1431 C1430 1.346 . S
C1431 N1432 1.342 . S
C1431 C1436 1.516 . S
N1432 C1429 1.327 . S
N1432 C1431 1.342 . S
N1432 Co1435 1.864 . S
C1433 C1429 1.407 . S
C1433 C1434 1.364 . S
C1433 H1499 0.930 . S
C1434 C1430 1.390 . S
C1434 C1433 1.364 . S
C1434 H1500 0.931 . S
Co1435 N1432 1.864 . S
Co1435 N1451 1.955 . S
Co1435 N1452 1.958 . S
Co1435 N1453 1.953 . S
Co1435 N1471 1.869 . S
Co1435 N1477 1.974 . S
C1436 C1431 1.516 . S
C1436 O1437 1.238 . S
C1436 N1452 1.324 . S
O1437 C1436 1.238 . S
C1438 C1439 1.394 . S
C1438 C1443 1.395 . S
C1438 N1452 1.427 . S
C1439 C1438 1.394 . S
C1439 C1440 1.380 . S
C1439 H1501 0.929 . S
C1440 C1439 1.380 . S
C1440 C1441 1.384 . S
C1440 C1444 1.495 . S
C1441 C1440 1.384 . S
C1441 C1442 1.382 . S
C1441 H1502 0.930 . S
C1442 C1441 1.382 . S
C1442 C1443 1.398 . S
C1443 C1438 1.395 . S
C1443 C1442 1.398 . S
C1443 H1503 0.930 . S
C1444 C1440 1.495 . S
C1444 O1491 1.258 . S
C1444 O1492 1.274 . S
C1445 C1446 1.385 . S
C1445 C1447 1.381 . S
C1445 N1451 1.432 . S
C1446 C1445 1.385 . S
C1446 C1450 1.388 . S
C1446 H1504 0.929 . S
C1447 C1445 1.381 . S
C1447 C1448 1.371 . S
C1447 H1505 0.932 . S
C1448 C1447 1.371 . S
C1448 C1449 1.400 . S
C1449 C1448 1.400 . S
C1449 C1450 1.351 . S
C1449 H1506 0.930 . S
C1450 C1446 1.388 . S
C1450 C1449 1.351 . S
N1451 C1426 1.329 . S
N1451 Co1435 1.955 . S
N1451 C1445 1.432 . S
N1452 Co1435 1.958 . S
N1452 C1436 1.324 . S
N1452 C1438 1.427 . S
N1453 Co1435 1.953 . S
N1453 C1454 1.436 . S
N1453 C1480 1.316 . S
C1454 N1453 1.436 . S
C1454 C1455 1.421 . S
C1454 C1456 1.360 . S
C1455 C1454 1.421 . S
C1455 C1457 1.379 . S
C1455 H1458 0.929 . S
C1456 C1454 1.360 . S
C1456 C1460 1.393 . S
C1456 H1462 0.931 . S
C1457 C1455 1.379 . S
C1457 C1459 1.417 . S
C1457 C1461 1.505 . S
H1458 C1455 0.929 . S
C1459 C1457 1.417 . S
C1459 C1460 1.352 . S
C1459 H1463 0.929 . S
C1460 C1456 1.393 . S
C1460 C1459 1.352 . S
C1460 C1464 1.482 . S
C1461 C1457 1.505 . S
C1461 O1465 1.259 . S
C1461 O1466 1.229 . S
H1462 C1456 0.931 . S
H1463 C1459 0.929 . S
C1464 C1460 1.482 . S
C1464 O1467 1.207 . S
C1464 O1468 1.289 . S
O1465 C1461 1.259 . S
O1465 H1469 0.822 . S
O1466 C1461 1.229 . S
O1467 C1464 1.207 . S
O1468 C1464 1.289 . S
O1468 H1470 0.819 . S
H1469 O1465 0.822 . S
H1470 O1468 0.819 . S
N1471 Co1435 1.869 . S
N1471 C1472 1.330 . S
N1471 C1476 1.325 . S
C1472 N1471 1.330 . S
C1472 C1473 1.359 . S
C1472 C1478 1.504 . S
C1473 C1472 1.359 . S
C1473 C1474 1.366 . S
C1473 H1507 0.929 . S
C1474 C1473 1.366 . S
C1474 C1475 1.415 . S
C1474 H1508 0.932 . S
C1475 C1474 1.415 . S
C1475 C1476 1.366 . S
C1475 H1509 0.931 . S
C1476 N1471 1.325 . S
C1476 C1475 1.366 . S
C1476 C1480 1.516 . S
N1477 Co1435 1.974 . S
N1477 C1478 1.309 . S
N1477 C1483 1.423 . S
C1478 C1472 1.504 . S
C1478 N1477 1.309 . S
C1478 O1479 1.258 . S
O1479 C1478 1.258 . S
C1480 N1453 1.316 . S
C1480 C1476 1.516 . S
C1480 O1493 1.263 . S
O1481 Cd1424 2.350 . S
O1481 C1497 1.270 . S
O1482 Cd1424 2.277 . S
O1482 C1497 1.248 . S
C1483 N1477 1.423 . S
C1483 C1484 1.370 . S
C1483 C1488 1.403 . S
C1484 C1483 1.370 . S
C1484 C1485 1.389 . S
C1484 H1510 0.931 . S
C1485 C1484 1.389 . S
C1485 C1486 1.389 . S
C1486 C1485 1.389 . S
C1486 C1487 1.379 . S
C1486 H1511 0.929 . S
C1487 C1486 1.379 . S
C1487 C1488 1.405 . S
C1488 C1483 1.403 . S
C1488 C1487 1.405 . S
C1488 H1512 0.932 . S
O1489 Cd1424 2.173 . S
O1489 C1425 1.277 . S
O1490 C1425 1.230 . S
O1490 Cd1428 2.250 . S
O1491 Cd1424 2.263 . S
O1491 C1444 1.258 . S
O1492 Cd1428 2.308 . S
O1492 C1444 1.274 . S
O1493 Cd1424 2.366 . S
O1493 C1480 1.263 . S
C1494 O1495 1.235 . S
C1494 O1496 1.270 . S
O1495 Cd1428 2.352 . S
O1495 C1494 1.235 . S
O1496 Cd1424 2.329 . S
O1496 C1494 1.270 . S
C1497 O1481 1.270 . S
C1497 O1482 1.248 . S
H1498 C1430 0.930 . S
H1499 C1433 0.930 . S
H1500 C1434 0.931 . S
H1501 C1439 0.929 . S
H1502 C1441 0.930 . S
H1503 C1443 0.930 . S
H1504 C1446 0.929 . S
H1505 C1447 0.932 . S
H1506 C1449 0.930 . S
H1507 C1473 0.929 . S
H1508 C1474 0.932 . S
H1509 C1475 0.931 . S
H1510 C1484 0.931 . S
H1511 C1486 0.929 . S
H1512 C1488 0.932 . S
Cd1513 O1570 2.350 . S
Cd1513 O1571 2.277 . S
Cd1513 O1578 2.173 . S
Cd1513 O1580 2.263 . S
Cd1513 O1582 2.366 . S
Cd1513 O1585 2.329 . S
C1514 O1578 1.277 . S
C1514 O1579 1.230 . S
C1515 O1516 1.246 . S
C1515 C1518 1.481 . S
C1515 N1540 1.329 . S
O1516 C1515 1.246 . S
Cd1517 O1579 2.250 . S
Cd1517 O1581 2.308 . S
Cd1517 O1584 2.352 . S
C1518 C1515 1.481 . S
C1518 N1521 1.327 . S
C1518 C1522 1.407 . S
C1519 C1520 1.346 . S
C1519 C1523 1.390 . S
C1519 H1587 0.930 . S
C1520 C1519 1.346 . S
C1520 N1521 1.342 . S
C1520 C1525 1.516 . S
N1521 C1518 1.327 . S
N1521 C1520 1.342 . S
N1521 Co1524 1.864 . S
C1522 C1518 1.407 . S
C1522 C1523 1.364 . S
C1522 H1588 0.930 . S
C1523 C1519 1.390 . S
C1523 C1522 1.364 . S
C1523 H1589 0.931 . S
Co1524 N1521 1.864 . S
Co1524 N1540 1.955 . S
Co1524 N1541 1.958 . S
Co1524 N1542 1.953 . S
Co1524 N1560 1.869 . S
Co1524 N1566 1.974 . S
C1525 C1520 1.516 . S
C1525 O1526 1.238 . S
C1525 N1541 1.324 . S
O1526 C1525 1.238 . S
C1527 C1528 1.394 . S
C1527 C1532 1.395 . S
C1527 N1541 1.427 . S
C1528 C1527 1.394 . S
C1528 C1529 1.380 . S
C1528 H1590 0.929 . S
C1529 C1528 1.380 . S
C1529 C1530 1.384 . S
C1529 C1533 1.495 . S
C1530 C1529 1.384 . S
C1530 C1531 1.382 . S
C1530 H1591 0.930 . S
C1531 C1530 1.382 . S
C1531 C1532 1.398 . S
C1532 C1527 1.395 . S
C1532 C1531 1.398 . S
C1532 H1592 0.930 . S
C1533 C1529 1.495 . S
C1533 O1580 1.258 . S
C1533 O1581 1.274 . S
C1534 C1535 1.385 . S
C1534 C1536 1.381 . S
C1534 N1540 1.432 . S
C1535 C1534 1.385 . S
C1535 C1539 1.388 . S
C1535 H1593 0.929 . S
C1536 C1534 1.381 . S
C1536 C1537 1.371 . S
C1536 H1594 0.932 . S
C1537 C1536 1.371 . S
C1537 C1538 1.400 . S
C1538 C1537 1.400 . S
C1538 C1539 1.351 . S
C1538 H1595 0.930 . S
C1539 C1535 1.388 . S
C1539 C1538 1.351 . S
N1540 C1515 1.329 . S
N1540 Co1524 1.955 . S
N1540 C1534 1.432 . S
N1541 Co1524 1.958 . S
N1541 C1525 1.324 . S
N1541 C1527 1.427 . S
N1542 Co1524 1.953 . S
N1542 C1543 1.436 . S
N1542 C1569 1.316 . S
C1543 N1542 1.436 . S
C1543 C1544 1.421 . S
C1543 C1545 1.360 . S
C1544 C1543 1.421 . S
C1544 C1546 1.379 . S
C1544 H1547 0.929 . S
C1545 C1543 1.360 . S
C1545 C1549 1.393 . S
C1545 H1551 0.931 . S
C1546 C1544 1.379 . S
C1546 C1548 1.417 . S
C1546 C1550 1.505 . S
H1547 C1544 0.929 . S
C1548 C1546 1.417 . S
C1548 C1549 1.352 . S
C1548 H1552 0.929 . S
C1549 C1545 1.393 . S
C1549 C1548 1.352 . S
C1549 C1553 1.482 . S
C1550 C1546 1.505 . S
C1550 O1554 1.259 . S
C1550 O1555 1.229 . S
H1551 C1545 0.931 . S
H1552 C1548 0.929 . S
C1553 C1549 1.482 . S
C1553 O1556 1.207 . S
C1553 O1557 1.289 . S
O1554 C1550 1.259 . S
O1554 H1558 0.822 . S
O1555 C1550 1.229 . S
O1556 C1553 1.207 . S
O1557 C1553 1.289 . S
O1557 H1559 0.819 . S
H1558 O1554 0.822 . S
H1559 O1557 0.819 . S
N1560 Co1524 1.869 . S
N1560 C1561 1.330 . S
N1560 C1565 1.325 . S
C1561 N1560 1.330 . S
C1561 C1562 1.359 . S
C1561 C1567 1.504 . S
C1562 C1561 1.359 . S
C1562 C1563 1.366 . S
C1562 H1596 0.929 . S
C1563 C1562 1.366 . S
C1563 C1564 1.415 . S
C1563 H1597 0.932 . S
C1564 C1563 1.415 . S
C1564 C1565 1.366 . S
C1564 H1598 0.931 . S
C1565 N1560 1.325 . S
C1565 C1564 1.366 . S
C1565 C1569 1.516 . S
N1566 Co1524 1.974 . S
N1566 C1567 1.309 . S
N1566 C1572 1.423 . S
C1567 C1561 1.504 . S
C1567 N1566 1.309 . S
C1567 O1568 1.258 . S
O1568 C1567 1.258 . S
C1569 N1542 1.316 . S
C1569 C1565 1.516 . S
C1569 O1582 1.263 . S
O1570 Cd1513 2.350 . S
O1570 C1586 1.270 . S
O1571 Cd1513 2.277 . S
O1571 C1586 1.248 . S
C1572 N1566 1.423 . S
C1572 C1573 1.370 . S
C1572 C1577 1.403 . S
C1573 C1572 1.370 . S
C1573 C1574 1.389 . S
C1573 H1599 0.931 . S
C1574 C1573 1.389 . S
C1574 C1575 1.389 . S
C1575 C1574 1.389 . S
C1575 C1576 1.379 . S
C1575 H1600 0.929 . S
C1576 C1575 1.379 . S
C1576 C1577 1.405 . S
C1577 C1572 1.403 . S
C1577 C1576 1.405 . S
C1577 H1601 0.932 . S
O1578 Cd1513 2.173 . S
O1578 C1514 1.277 . S
O1579 C1514 1.230 . S
O1579 Cd1517 2.250 . S
O1580 Cd1513 2.263 . S
O1580 C1533 1.258 . S
O1581 Cd1517 2.308 . S
O1581 C1533 1.274 . S
O1582 Cd1513 2.366 . S
O1582 C1569 1.263 . S
C1583 O1584 1.235 . S
C1583 O1585 1.270 . S
O1584 Cd1517 2.352 . S
O1584 C1583 1.235 . S
O1585 Cd1513 2.329 . S
O1585 C1583 1.270 . S
C1586 O1570 1.270 . S
C1586 O1571 1.248 . S
H1587 C1519 0.930 . S
H1588 C1522 0.930 . S
H1589 C1523 0.931 . S
H1590 C1528 0.929 . S
H1591 C1530 0.930 . S
H1592 C1532 0.930 . S
H1593 C1535 0.929 . S
H1594 C1536 0.932 . S
H1595 C1538 0.930 . S
H1596 C1562 0.929 . S
H1597 C1563 0.932 . S
H1598 C1564 0.931 . S
H1599 C1573 0.931 . S
H1600 C1575 0.929 . S
H1601 C1577 0.932 . S
Cd1602 O1659 2.350 . S
Cd1602 O1660 2.277 . S
Cd1602 O1667 2.173 . S
Cd1602 O1669 2.263 . S
Cd1602 O1671 2.366 . S
Cd1602 O1674 2.329 . S
C1603 O1667 1.277 . S
C1603 O1668 1.230 . S
C1604 O1605 1.246 . S
C1604 C1607 1.481 . S
C1604 N1629 1.329 . S
O1605 C1604 1.246 . S
Cd1606 O1668 2.250 . S
Cd1606 O1670 2.308 . S
Cd1606 O1673 2.352 . S
C1607 C1604 1.481 . S
C1607 N1610 1.327 . S
C1607 C1611 1.407 . S
C1608 C1609 1.346 . S
C1608 C1612 1.390 . S
C1608 H1676 0.930 . S
C1609 C1608 1.346 . S
C1609 N1610 1.342 . S
C1609 C1614 1.516 . S
N1610 C1607 1.327 . S
N1610 C1609 1.342 . S
N1610 Co1613 1.864 . S
C1611 C1607 1.407 . S
C1611 C1612 1.364 . S
C1611 H1677 0.930 . S
C1612 C1608 1.390 . S
C1612 C1611 1.364 . S
C1612 H1678 0.931 . S
Co1613 N1610 1.864 . S
Co1613 N1629 1.955 . S
Co1613 N1630 1.958 . S
Co1613 N1631 1.953 . S
Co1613 N1649 1.869 . S
Co1613 N1655 1.974 . S
C1614 C1609 1.516 . S
C1614 O1615 1.238 . S
C1614 N1630 1.324 . S
O1615 C1614 1.238 . S
C1616 C1617 1.394 . S
C1616 C1621 1.395 . S
C1616 N1630 1.427 . S
C1617 C1616 1.394 . S
C1617 C1618 1.380 . S
C1617 H1679 0.929 . S
C1618 C1617 1.380 . S
C1618 C1619 1.384 . S
C1618 C1622 1.495 . S
C1619 C1618 1.384 . S
C1619 C1620 1.382 . S
C1619 H1680 0.930 . S
C1620 C1619 1.382 . S
C1620 C1621 1.398 . S
C1621 C1616 1.395 . S
C1621 C1620 1.398 . S
C1621 H1681 0.930 . S
C1622 C1618 1.495 . S
C1622 O1669 1.258 . S
C1622 O1670 1.274 . S
C1623 C1624 1.385 . S
C1623 C1625 1.381 . S
C1623 N1629 1.432 . S
C1624 C1623 1.385 . S
C1624 C1628 1.388 . S
C1624 H1682 0.929 . S
C1625 C1623 1.381 . S
C1625 C1626 1.371 . S
C1625 H1683 0.932 . S
C1626 C1625 1.371 . S
C1626 C1627 1.400 . S
C1627 C1626 1.400 . S
C1627 C1628 1.351 . S
C1627 H1684 0.930 . S
C1628 C1624 1.388 . S
C1628 C1627 1.351 . S
N1629 C1604 1.329 . S
N1629 Co1613 1.955 . S
N1629 C1623 1.432 . S
N1630 Co1613 1.958 . S
N1630 C1614 1.324 . S
N1630 C1616 1.427 . S
N1631 Co1613 1.953 . S
N1631 C1632 1.436 . S
N1631 C1658 1.316 . S
C1632 N1631 1.436 . S
C1632 C1633 1.421 . S
C1632 C1634 1.360 . S
C1633 C1632 1.421 . S
C1633 C1635 1.379 . S
C1633 H1636 0.929 . S
C1634 C1632 1.360 . S
C1634 C1638 1.393 . S
C1634 H1640 0.931 . S
C1635 C1633 1.379 . S
C1635 C1637 1.417 . S
C1635 C1639 1.505 . S
H1636 C1633 0.929 . S
C1637 C1635 1.417 . S
C1637 C1638 1.352 . S
C1637 H1641 0.929 . S
C1638 C1634 1.393 . S
C1638 C1637 1.352 . S
C1638 C1642 1.482 . S
C1639 C1635 1.505 . S
C1639 O1643 1.259 . S
C1639 O1644 1.229 . S
H1640 C1634 0.931 . S
H1641 C1637 0.929 . S
C1642 C1638 1.482 . S
C1642 O1645 1.207 . S
C1642 O1646 1.289 . S
O1643 C1639 1.259 . S
O1643 H1647 0.822 . S
O1644 C1639 1.229 . S
O1645 C1642 1.207 . S
O1646 C1642 1.289 . S
O1646 H1648 0.819 . S
H1647 O1643 0.822 . S
H1648 O1646 0.819 . S
N1649 Co1613 1.869 . S
N1649 C1650 1.330 . S
N1649 C1654 1.325 . S
C1650 N1649 1.330 . S
C1650 C1651 1.359 . S
C1650 C1656 1.504 . S
C1651 C1650 1.359 . S
C1651 C1652 1.366 . S
C1651 H1685 0.929 . S
C1652 C1651 1.366 . S
C1652 C1653 1.415 . S
C1652 H1686 0.932 . S
C1653 C1652 1.415 . S
C1653 C1654 1.366 . S
C1653 H1687 0.931 . S
C1654 N1649 1.325 . S
C1654 C1653 1.366 . S
C1654 C1658 1.516 . S
N1655 Co1613 1.974 . S
N1655 C1656 1.309 . S
N1655 C1661 1.423 . S
C1656 C1650 1.504 . S
C1656 N1655 1.309 . S
C1656 O1657 1.258 . S
O1657 C1656 1.258 . S
C1658 N1631 1.316 . S
C1658 C1654 1.516 . S
C1658 O1671 1.263 . S
O1659 Cd1602 2.350 . S
O1659 C1675 1.270 . S
O1660 Cd1602 2.277 . S
O1660 C1675 1.248 . S
C1661 N1655 1.423 . S
C1661 C1662 1.370 . S
C1661 C1666 1.403 . S
C1662 C1661 1.370 . S
C1662 C1663 1.389 . S
C1662 H1688 0.931 . S
C1663 C1662 1.389 . S
C1663 C1664 1.389 . S
C1664 C1663 1.389 . S
C1664 C1665 1.379 . S
C1664 H1689 0.929 . S
C1665 C1664 1.379 . S
C1665 C1666 1.405 . S
C1666 C1661 1.403 . S
C1666 C1665 1.405 . S
C1666 H1690 0.932 . S
O1667 Cd1602 2.173 . S
O1667 C1603 1.277 . S
O1668 C1603 1.230 . S
O1668 Cd1606 2.250 . S
O1669 Cd1602 2.263 . S
O1669 C1622 1.258 . S
O1670 Cd1606 2.308 . S
O1670 C1622 1.274 . S
O1671 Cd1602 2.366 . S
O1671 C1658 1.263 . S
C1672 O1673 1.235 . S
C1672 O1674 1.270 . S
O1673 Cd1606 2.352 . S
O1673 C1672 1.235 . S
O1674 Cd1602 2.329 . S
O1674 C1672 1.270 . S
C1675 O1659 1.270 . S
C1675 O1660 1.248 . S
H1676 C1608 0.930 . S
H1677 C1611 0.930 . S
H1678 C1612 0.931 . S
H1679 C1617 0.929 . S
H1680 C1619 0.930 . S
H1681 C1621 0.930 . S
H1682 C1624 0.929 . S
H1683 C1625 0.932 . S
H1684 C1627 0.930 . S
H1685 C1651 0.929 . S
H1686 C1652 0.932 . S
H1687 C1653 0.931 . S
H1688 C1662 0.931 . S
H1689 C1664 0.929 . S
H1690 C1666 0.932 . S
Cd1691 O1748 2.350 . S
Cd1691 O1749 2.277 . S
Cd1691 O1756 2.173 . S
Cd1691 O1758 2.263 . S
Cd1691 O1760 2.366 . S
Cd1691 O1763 2.329 . S
C1692 O1756 1.277 . S
C1692 O1757 1.230 . S
C1693 O1694 1.246 . S
C1693 C1696 1.481 . S
C1693 N1718 1.329 . S
O1694 C1693 1.246 . S
Cd1695 O1757 2.250 . S
Cd1695 O1759 2.308 . S
Cd1695 O1762 2.352 . S
C1696 C1693 1.481 . S
C1696 N1699 1.327 . S
C1696 C1700 1.407 . S
C1697 C1698 1.346 . S
C1697 C1701 1.390 . S
C1697 H1765 0.930 . S
C1698 C1697 1.346 . S
C1698 N1699 1.342 . S
C1698 C1703 1.516 . S
N1699 C1696 1.327 . S
N1699 C1698 1.342 . S
N1699 Co1702 1.864 . S
C1700 C1696 1.407 . S
C1700 C1701 1.364 . S
C1700 H1766 0.930 . S
C1701 C1697 1.390 . S
C1701 C1700 1.364 . S
C1701 H1767 0.931 . S
Co1702 N1699 1.864 . S
Co1702 N1718 1.955 . S
Co1702 N1719 1.958 . S
Co1702 N1720 1.953 . S
Co1702 N1738 1.869 . S
Co1702 N1744 1.974 . S
C1703 C1698 1.516 . S
C1703 O1704 1.238 . S
C1703 N1719 1.324 . S
O1704 C1703 1.238 . S
C1705 C1706 1.394 . S
C1705 C1710 1.395 . S
C1705 N1719 1.427 . S
C1706 C1705 1.394 . S
C1706 C1707 1.380 . S
C1706 H1768 0.929 . S
C1707 C1706 1.380 . S
C1707 C1708 1.384 . S
C1707 C1711 1.495 . S
C1708 C1707 1.384 . S
C1708 C1709 1.382 . S
C1708 H1769 0.930 . S
C1709 C1708 1.382 . S
C1709 C1710 1.398 . S
C1710 C1705 1.395 . S
C1710 C1709 1.398 . S
C1710 H1770 0.930 . S
C1711 C1707 1.495 . S
C1711 O1758 1.258 . S
C1711 O1759 1.274 . S
C1712 C1713 1.385 . S
C1712 C1714 1.381 . S
C1712 N1718 1.432 . S
C1713 C1712 1.385 . S
C1713 C1717 1.388 . S
C1713 H1771 0.929 . S
C1714 C1712 1.381 . S
C1714 C1715 1.371 . S
C1714 H1772 0.932 . S
C1715 C1714 1.371 . S
C1715 C1716 1.400 . S
C1716 C1715 1.400 . S
C1716 C1717 1.351 . S
C1716 H1773 0.930 . S
C1717 C1713 1.388 . S
C1717 C1716 1.351 . S
N1718 C1693 1.329 . S
N1718 Co1702 1.955 . S
N1718 C1712 1.432 . S
N1719 Co1702 1.958 . S
N1719 C1703 1.324 . S
N1719 C1705 1.427 . S
N1720 Co1702 1.953 . S
N1720 C1721 1.436 . S
N1720 C1747 1.316 . S
C1721 N1720 1.436 . S
C1721 C1722 1.421 . S
C1721 C1723 1.360 . S
C1722 C1721 1.421 . S
C1722 C1724 1.379 . S
C1722 H1725 0.929 . S
C1723 C1721 1.360 . S
C1723 C1727 1.393 . S
C1723 H1729 0.931 . S
C1724 C1722 1.379 . S
C1724 C1726 1.417 . S
C1724 C1728 1.505 . S
H1725 C1722 0.929 . S
C1726 C1724 1.417 . S
C1726 C1727 1.352 . S
C1726 H1730 0.929 . S
C1727 C1723 1.393 . S
C1727 C1726 1.352 . S
C1727 C1731 1.482 . S
C1728 C1724 1.505 . S
C1728 O1732 1.259 . S
C1728 O1733 1.229 . S
H1729 C1723 0.931 . S
H1730 C1726 0.929 . S
C1731 C1727 1.482 . S
C1731 O1734 1.207 . S
C1731 O1735 1.289 . S
O1732 C1728 1.259 . S
O1732 H1736 0.822 . S
O1733 C1728 1.229 . S
O1734 C1731 1.207 . S
O1735 C1731 1.289 . S
O1735 H1737 0.819 . S
H1736 O1732 0.822 . S
H1737 O1735 0.819 . S
N1738 Co1702 1.869 . S
N1738 C1739 1.330 . S
N1738 C1743 1.325 . S
C1739 N1738 1.330 . S
C1739 C1740 1.359 . S
C1739 C1745 1.504 . S
C1740 C1739 1.359 . S
C1740 C1741 1.366 . S
C1740 H1774 0.929 . S
C1741 C1740 1.366 . S
C1741 C1742 1.415 . S
C1741 H1775 0.932 . S
C1742 C1741 1.415 . S
C1742 C1743 1.366 . S
C1742 H1776 0.931 . S
C1743 N1738 1.325 . S
C1743 C1742 1.366 . S
C1743 C1747 1.516 . S
N1744 Co1702 1.974 . S
N1744 C1745 1.309 . S
N1744 C1750 1.423 . S
C1745 C1739 1.504 . S
C1745 N1744 1.309 . S
C1745 O1746 1.258 . S
O1746 C1745 1.258 . S
C1747 N1720 1.316 . S
C1747 C1743 1.516 . S
C1747 O1760 1.263 . S
O1748 Cd1691 2.350 . S
O1748 C1764 1.270 . S
O1749 Cd1691 2.277 . S
O1749 C1764 1.248 . S
C1750 N1744 1.423 . S
C1750 C1751 1.370 . S
C1750 C1755 1.403 . S
C1751 C1750 1.370 . S
C1751 C1752 1.389 . S
C1751 H1777 0.931 . S
C1752 C1751 1.389 . S
C1752 C1753 1.389 . S
C1753 C1752 1.389 . S
C1753 C1754 1.379 . S
C1753 H1778 0.929 . S
C1754 C1753 1.379 . S
C1754 C1755 1.405 . S
C1755 C1750 1.403 . S
C1755 C1754 1.405 . S
C1755 H1779 0.932 . S
O1756 Cd1691 2.173 . S
O1756 C1692 1.277 . S
O1757 C1692 1.230 . S
O1757 Cd1695 2.250 . S
O1758 Cd1691 2.263 . S
O1758 C1711 1.258 . S
O1759 Cd1695 2.308 . S
O1759 C1711 1.274 . S
O1760 Cd1691 2.366 . S
O1760 C1747 1.263 . S
C1761 O1762 1.235 . S
C1761 O1763 1.270 . S
O1762 Cd1695 2.352 . S
O1762 C1761 1.235 . S
O1763 Cd1691 2.329 . S
O1763 C1761 1.270 . S
C1764 O1748 1.270 . S
C1764 O1749 1.248 . S
H1765 C1697 0.930 . S
H1766 C1700 0.930 . S
H1767 C1701 0.931 . S
H1768 C1706 0.929 . S
H1769 C1708 0.930 . S
H1770 C1710 0.930 . S
H1771 C1713 0.929 . S
H1772 C1714 0.932 . S
H1773 C1716 0.930 . S
H1774 C1740 0.929 . S
H1775 C1741 0.932 . S
H1776 C1742 0.931 . S
H1777 C1751 0.931 . S
H1778 C1753 0.929 . S
H1779 C1755 0.932 . S
Cd1780 O1837 2.350 . S
Cd1780 O1838 2.277 . S
Cd1780 O1845 2.173 . S
Cd1780 O1847 2.263 . S
Cd1780 O1849 2.366 . S
Cd1780 O1852 2.329 . S
C1781 O1845 1.277 . S
C1781 O1846 1.230 . S
C1782 O1783 1.246 . S
C1782 C1785 1.481 . S
C1782 N1807 1.329 . S
O1783 C1782 1.246 . S
Cd1784 O1846 2.250 . S
Cd1784 O1848 2.308 . S
Cd1784 O1851 2.352 . S
C1785 C1782 1.481 . S
C1785 N1788 1.327 . S
C1785 C1789 1.407 . S
C1786 C1787 1.346 . S
C1786 C1790 1.390 . S
C1786 H1854 0.930 . S
C1787 C1786 1.346 . S
C1787 N1788 1.342 . S
C1787 C1792 1.516 . S
N1788 C1785 1.327 . S
N1788 C1787 1.342 . S
N1788 Co1791 1.864 . S
C1789 C1785 1.407 . S
C1789 C1790 1.364 . S
C1789 H1855 0.930 . S
C1790 C1786 1.390 . S
C1790 C1789 1.364 . S
C1790 H1856 0.931 . S
Co1791 N1788 1.864 . S
Co1791 N1807 1.955 . S
Co1791 N1808 1.958 . S
Co1791 N1809 1.953 . S
Co1791 N1827 1.869 . S
Co1791 N1833 1.974 . S
C1792 C1787 1.516 . S
C1792 O1793 1.238 . S
C1792 N1808 1.324 . S
O1793 C1792 1.238 . S
C1794 C1795 1.394 . S
C1794 C1799 1.395 . S
C1794 N1808 1.427 . S
C1795 C1794 1.394 . S
C1795 C1796 1.380 . S
C1795 H1857 0.929 . S
C1796 C1795 1.380 . S
C1796 C1797 1.384 . S
C1796 C1800 1.495 . S
C1797 C1796 1.384 . S
C1797 C1798 1.382 . S
C1797 H1858 0.930 . S
C1798 C1797 1.382 . S
C1798 C1799 1.398 . S
C1799 C1794 1.395 . S
C1799 C1798 1.398 . S
C1799 H1859 0.930 . S
C1800 C1796 1.495 . S
C1800 O1847 1.258 . S
C1800 O1848 1.274 . S
C1801 C1802 1.385 . S
C1801 C1803 1.381 . S
C1801 N1807 1.432 . S
C1802 C1801 1.385 . S
C1802 C1806 1.388 . S
C1802 H1860 0.929 . S
C1803 C1801 1.381 . S
C1803 C1804 1.371 . S
C1803 H1861 0.932 . S
C1804 C1803 1.371 . S
C1804 C1805 1.400 . S
C1805 C1804 1.400 . S
C1805 C1806 1.351 . S
C1805 H1862 0.930 . S
C1806 C1802 1.388 . S
C1806 C1805 1.351 . S
N1807 C1782 1.329 . S
N1807 Co1791 1.955 . S
N1807 C1801 1.432 . S
N1808 Co1791 1.958 . S
N1808 C1792 1.324 . S
N1808 C1794 1.427 . S
N1809 Co1791 1.953 . S
N1809 C1810 1.436 . S
N1809 C1836 1.316 . S
C1810 N1809 1.436 . S
C1810 C1811 1.421 . S
C1810 C1812 1.360 . S
C1811 C1810 1.421 . S
C1811 C1813 1.379 . S
C1811 H1814 0.929 . S
C1812 C1810 1.360 . S
C1812 C1816 1.393 . S
C1812 H1818 0.931 . S
C1813 C1811 1.379 . S
C1813 C1815 1.417 . S
C1813 C1817 1.505 . S
H1814 C1811 0.929 . S
C1815 C1813 1.417 . S
C1815 C1816 1.352 . S
C1815 H1819 0.929 . S
C1816 C1812 1.393 . S
C1816 C1815 1.352 . S
C1816 C1820 1.482 . S
C1817 C1813 1.505 . S
C1817 O1821 1.259 . S
C1817 O1822 1.229 . S
H1818 C1812 0.931 . S
H1819 C1815 0.929 . S
C1820 C1816 1.482 . S
C1820 O1823 1.207 . S
C1820 O1824 1.289 . S
O1821 C1817 1.259 . S
O1821 H1825 0.822 . S
O1822 C1817 1.229 . S
O1823 C1820 1.207 . S
O1824 C1820 1.289 . S
O1824 H1826 0.819 . S
H1825 O1821 0.822 . S
H1826 O1824 0.819 . S
N1827 Co1791 1.869 . S
N1827 C1828 1.330 . S
N1827 C1832 1.325 . S
C1828 N1827 1.330 . S
C1828 C1829 1.359 . S
C1828 C1834 1.504 . S
C1829 C1828 1.359 . S
C1829 C1830 1.366 . S
C1829 H1863 0.929 . S
C1830 C1829 1.366 . S
C1830 C1831 1.415 . S
C1830 H1864 0.932 . S
C1831 C1830 1.415 . S
C1831 C1832 1.366 . S
C1831 H1865 0.931 . S
C1832 N1827 1.325 . S
C1832 C1831 1.366 . S
C1832 C1836 1.516 . S
N1833 Co1791 1.974 . S
N1833 C1834 1.309 . S
N1833 C1839 1.423 . S
C1834 C1828 1.504 . S
C1834 N1833 1.309 . S
C1834 O1835 1.258 . S
O1835 C1834 1.258 . S
C1836 N1809 1.316 . S
C1836 C1832 1.516 . S
C1836 O1849 1.263 . S
O1837 Cd1780 2.350 . S
O1837 C1853 1.270 . S
O1838 Cd1780 2.277 . S
O1838 C1853 1.248 . S
C1839 N1833 1.423 . S
C1839 C1840 1.370 . S
C1839 C1844 1.403 . S
C1840 C1839 1.370 . S
C1840 C1841 1.389 . S
C1840 H1866 0.931 . S
C1841 C1840 1.389 . S
C1841 C1842 1.389 . S
C1842 C1841 1.389 . S
C1842 C1843 1.379 . S
C1842 H1867 0.929 . S
C1843 C1842 1.379 . S
C1843 C1844 1.405 . S
C1844 C1839 1.403 . S
C1844 C1843 1.405 . S
C1844 H1868 0.932 . S
O1845 Cd1780 2.173 . S
O1845 C1781 1.277 . S
O1846 C1781 1.230 . S
O1846 Cd1784 2.250 . S
O1847 Cd1780 2.263 . S
O1847 C1800 1.258 . S
O1848 Cd1784 2.308 . S
O1848 C1800 1.274 . S
O1849 Cd1780 2.366 . S
O1849 C1836 1.263 . S
C1850 O1851 1.235 . S
C1850 O1852 1.270 . S
O1851 Cd1784 2.352 . S
O1851 C1850 1.235 . S
O1852 Cd1780 2.329 . S
O1852 C1850 1.270 . S
C1853 O1837 1.270 . S
C1853 O1838 1.248 . S
H1854 C1786 0.930 . S
H1855 C1789 0.930 . S
H1856 C1790 0.931 . S
H1857 C1795 0.929 . S
H1858 C1797 0.930 . S
H1859 C1799 0.930 . S
H1860 C1802 0.929 . S
H1861 C1803 0.932 . S
H1862 C1805 0.930 . S
H1863 C1829 0.929 . S
H1864 C1830 0.932 . S
H1865 C1831 0.931 . S
H1866 C1840 0.931 . S
H1867 C1842 0.929 . S
H1868 C1844 0.932 . S
Cd1869 O1926 2.350 . S
Cd1869 O1927 2.277 . S
Cd1869 O1934 2.173 . S
Cd1869 O1936 2.263 . S
Cd1869 O1938 2.366 . S
Cd1869 O1941 2.329 . S
C1870 O1934 1.277 . S
C1870 O1935 1.230 . S
C1871 O1872 1.246 . S
C1871 C1874 1.481 . S
C1871 N1896 1.329 . S
O1872 C1871 1.246 . S
Cd1873 O1935 2.250 . S
Cd1873 O1937 2.308 . S
Cd1873 O1940 2.352 . S
C1874 C1871 1.481 . S
C1874 N1877 1.327 . S
C1874 C1878 1.407 . S
C1875 C1876 1.346 . S
C1875 C1879 1.390 . S
C1875 H1943 0.930 . S
C1876 C1875 1.346 . S
C1876 N1877 1.342 . S
C1876 C1881 1.516 . S
N1877 C1874 1.327 . S
N1877 C1876 1.342 . S
N1877 Co1880 1.864 . S
C1878 C1874 1.407 . S
C1878 C1879 1.364 . S
C1878 H1944 0.930 . S
C1879 C1875 1.390 . S
C1879 C1878 1.364 . S
C1879 H1945 0.931 . S
Co1880 N1877 1.864 . S
Co1880 N1896 1.955 . S
Co1880 N1897 1.958 . S
Co1880 N1898 1.953 . S
Co1880 N1916 1.869 . S
Co1880 N1922 1.974 . S
C1881 C1876 1.516 . S
C1881 O1882 1.238 . S
C1881 N1897 1.324 . S
O1882 C1881 1.238 . S
C1883 C1884 1.394 . S
C1883 C1888 1.395 . S
C1883 N1897 1.427 . S
C1884 C1883 1.394 . S
C1884 C1885 1.380 . S
C1884 H1946 0.929 . S
C1885 C1884 1.380 . S
C1885 C1886 1.384 . S
C1885 C1889 1.495 . S
C1886 C1885 1.384 . S
C1886 C1887 1.382 . S
C1886 H1947 0.930 . S
C1887 C1886 1.382 . S
C1887 C1888 1.398 . S
C1888 C1883 1.395 . S
C1888 C1887 1.398 . S
C1888 H1948 0.930 . S
C1889 C1885 1.495 . S
C1889 O1936 1.258 . S
C1889 O1937 1.274 . S
C1890 C1891 1.385 . S
C1890 C1892 1.381 . S
C1890 N1896 1.432 . S
C1891 C1890 1.385 . S
C1891 C1895 1.388 . S
C1891 H1949 0.929 . S
C1892 C1890 1.381 . S
C1892 C1893 1.371 . S
C1892 H1950 0.932 . S
C1893 C1892 1.371 . S
C1893 C1894 1.400 . S
C1894 C1893 1.400 . S
C1894 C1895 1.351 . S
C1894 H1951 0.930 . S
C1895 C1891 1.388 . S
C1895 C1894 1.351 . S
N1896 C1871 1.329 . S
N1896 Co1880 1.955 . S
N1896 C1890 1.432 . S
N1897 Co1880 1.958 . S
N1897 C1881 1.324 . S
N1897 C1883 1.427 . S
N1898 Co1880 1.953 . S
N1898 C1899 1.436 . S
N1898 C1925 1.316 . S
C1899 N1898 1.436 . S
C1899 C1900 1.421 . S
C1899 C1901 1.360 . S
C1900 C1899 1.421 . S
C1900 C1902 1.379 . S
C1900 H1903 0.929 . S
C1901 C1899 1.360 . S
C1901 C1905 1.393 . S
C1901 H1907 0.931 . S
C1902 C1900 1.379 . S
C1902 C1904 1.417 . S
C1902 C1906 1.505 . S
H1903 C1900 0.929 . S
C1904 C1902 1.417 . S
C1904 C1905 1.352 . S
C1904 H1908 0.929 . S
C1905 C1901 1.393 . S
C1905 C1904 1.352 . S
C1905 C1909 1.482 . S
C1906 C1902 1.505 . S
C1906 O1910 1.259 . S
C1906 O1911 1.229 . S
H1907 C1901 0.931 . S
H1908 C1904 0.929 . S
C1909 C1905 1.482 . S
C1909 O1912 1.207 . S
C1909 O1913 1.289 . S
O1910 C1906 1.259 . S
O1910 H1914 0.822 . S
O1911 C1906 1.229 . S
O1912 C1909 1.207 . S
O1913 C1909 1.289 . S
O1913 H1915 0.819 . S
H1914 O1910 0.822 . S
H1915 O1913 0.819 . S
N1916 Co1880 1.869 . S
N1916 C1917 1.330 . S
N1916 C1921 1.325 . S
C1917 N1916 1.330 . S
C1917 C1918 1.359 . S
C1917 C1923 1.504 . S
C1918 C1917 1.359 . S
C1918 C1919 1.366 . S
C1918 H1952 0.929 . S
C1919 C1918 1.366 . S
C1919 C1920 1.415 . S
C1919 H1953 0.932 . S
C1920 C1919 1.415 . S
C1920 C1921 1.366 . S
C1920 H1954 0.931 . S
C1921 N1916 1.325 . S
C1921 C1920 1.366 . S
C1921 C1925 1.516 . S
N1922 Co1880 1.974 . S
N1922 C1923 1.309 . S
N1922 C1928 1.423 . S
C1923 C1917 1.504 . S
C1923 N1922 1.309 . S
C1923 O1924 1.258 . S
O1924 C1923 1.258 . S
C1925 N1898 1.316 . S
C1925 C1921 1.516 . S
C1925 O1938 1.263 . S
O1926 Cd1869 2.350 . S
O1926 C1942 1.270 . S
O1927 Cd1869 2.277 . S
O1927 C1942 1.248 . S
C1928 N1922 1.423 . S
C1928 C1929 1.370 1_556 S
C1928 C1933 1.403 . S
C1929 C1928 1.370 1_554 S
C1929 C1930 1.389 . S
C1929 H1955 0.931 1_554 S
C1930 C1929 1.389 . S
C1930 C1931 1.389 . S
C1931 C1930 1.389 . S
C1931 C1932 1.379 . S
C1931 H1956 0.929 . S
C1932 C1931 1.379 . S
C1932 C1933 1.405 1_554 S
C1933 C1928 1.403 . S
C1933 C1932 1.405 1_556 S
C1933 H1957 0.932 . S
O1934 Cd1869 2.173 . S
O1934 C1870 1.277 . S
O1935 C1870 1.230 . S
O1935 Cd1873 2.250 . S
O1936 Cd1869 2.263 . S
O1936 C1889 1.258 . S
O1937 Cd1873 2.308 . S
O1937 C1889 1.274 . S
O1938 Cd1869 2.366 . S
O1938 C1925 1.263 . S
C1939 O1940 1.235 . S
C1939 O1941 1.270 . S
O1940 Cd1873 2.352 . S
O1940 C1939 1.235 . S
O1941 Cd1869 2.329 . S
O1941 C1939 1.270 . S
C1942 O1926 1.270 . S
C1942 O1927 1.248 . S
H1943 C1875 0.930 . S
H1944 C1878 0.930 . S
H1945 C1879 0.931 . S
H1946 C1884 0.929 . S
H1947 C1886 0.930 . S
H1948 C1888 0.930 . S
H1949 C1891 0.929 . S
H1950 C1892 0.932 . S
H1951 C1894 0.930 . S
H1952 C1918 0.929 . S
H1953 C1919 0.932 . S
H1954 C1920 0.931 . S
H1955 C1929 0.931 1_556 S
H1956 C1931 0.929 . S
H1957 C1933 0.932 . S
Cd1958 O2015 2.350 . S
Cd1958 O2016 2.277 . S
Cd1958 O2023 2.173 . S
Cd1958 O2025 2.263 . S
Cd1958 O2027 2.366 . S
Cd1958 O2030 2.329 . S
C1959 O2023 1.277 . S
C1959 O2024 1.230 . S
C1960 O1961 1.246 . S
C1960 C1963 1.481 . S
C1960 N1985 1.329 . S
O1961 C1960 1.246 . S
Cd1962 O2024 2.250 . S
Cd1962 O2026 2.308 . S
Cd1962 O2029 2.352 . S
C1963 C1960 1.481 . S
C1963 N1966 1.327 . S
C1963 C1967 1.407 . S
C1964 C1965 1.346 . S
C1964 C1968 1.390 . S
C1964 H2032 0.930 . S
C1965 C1964 1.346 . S
C1965 N1966 1.342 . S
C1965 C1970 1.516 . S
N1966 C1963 1.327 . S
N1966 C1965 1.342 . S
N1966 Co1969 1.864 . S
C1967 C1963 1.407 . S
C1967 C1968 1.364 . S
C1967 H2033 0.930 . S
C1968 C1964 1.390 . S
C1968 C1967 1.364 . S
C1968 H2034 0.931 . S
Co1969 N1966 1.864 . S
Co1969 N1985 1.955 . S
Co1969 N1986 1.958 . S
Co1969 N1987 1.953 . S
Co1969 N2005 1.869 . S
Co1969 N2011 1.974 . S
C1970 C1965 1.516 . S
C1970 O1971 1.238 . S
C1970 N1986 1.324 . S
O1971 C1970 1.238 . S
C1972 C1973 1.394 . S
C1972 C1977 1.395 . S
C1972 N1986 1.427 . S
C1973 C1972 1.394 . S
C1973 C1974 1.380 . S
C1973 H2035 0.929 . S
C1974 C1973 1.380 . S
C1974 C1975 1.384 . S
C1974 C1978 1.495 . S
C1975 C1974 1.384 . S
C1975 C1976 1.382 . S
C1975 H2036 0.930 . S
C1976 C1975 1.382 . S
C1976 C1977 1.398 . S
C1977 C1972 1.395 . S
C1977 C1976 1.398 . S
C1977 H2037 0.930 . S
C1978 C1974 1.495 . S
C1978 O2025 1.258 . S
C1978 O2026 1.274 . S
C1979 C1980 1.385 . S
C1979 C1981 1.381 . S
C1979 N1985 1.432 . S
C1980 C1979 1.385 . S
C1980 C1984 1.388 . S
C1980 H2038 0.929 . S
C1981 C1979 1.381 . S
C1981 C1982 1.371 . S
C1981 H2039 0.932 . S
C1982 C1981 1.371 . S
C1982 C1983 1.400 . S
C1983 C1982 1.400 . S
C1983 C1984 1.351 . S
C1983 H2040 0.930 . S
C1984 C1980 1.388 . S
C1984 C1983 1.351 . S
N1985 C1960 1.329 . S
N1985 Co1969 1.955 . S
N1985 C1979 1.432 . S
N1986 Co1969 1.958 . S
N1986 C1970 1.324 . S
N1986 C1972 1.427 . S
N1987 Co1969 1.953 . S
N1987 C1988 1.436 . S
N1987 C2014 1.316 . S
C1988 N1987 1.436 . S
C1988 C1989 1.421 . S
C1988 C1990 1.360 . S
C1989 C1988 1.421 . S
C1989 C1991 1.379 . S
C1989 H1992 0.929 . S
C1990 C1988 1.360 . S
C1990 C1994 1.393 . S
C1990 H1996 0.931 . S
C1991 C1989 1.379 . S
C1991 C1993 1.417 . S
C1991 C1995 1.505 . S
H1992 C1989 0.929 . S
C1993 C1991 1.417 . S
C1993 C1994 1.352 . S
C1993 H1997 0.929 . S
C1994 C1990 1.393 . S
C1994 C1993 1.352 . S
C1994 C1998 1.482 . S
C1995 C1991 1.505 . S
C1995 O1999 1.259 . S
C1995 O2000 1.229 . S
H1996 C1990 0.931 . S
H1997 C1993 0.929 . S
C1998 C1994 1.482 . S
C1998 O2001 1.207 . S
C1998 O2002 1.289 . S
O1999 C1995 1.259 . S
O1999 H2003 0.822 . S
O2000 C1995 1.229 . S
O2001 C1998 1.207 . S
O2002 C1998 1.289 . S
O2002 H2004 0.819 . S
H2003 O1999 0.822 . S
H2004 O2002 0.819 . S
N2005 Co1969 1.869 . S
N2005 C2006 1.330 . S
N2005 C2010 1.325 . S
C2006 N2005 1.330 . S
C2006 C2007 1.359 . S
C2006 C2012 1.504 . S
C2007 C2006 1.359 . S
C2007 C2008 1.366 . S
C2007 H2041 0.929 . S
C2008 C2007 1.366 . S
C2008 C2009 1.415 . S
C2008 H2042 0.932 . S
C2009 C2008 1.415 . S
C2009 C2010 1.366 . S
C2009 H2043 0.931 . S
C2010 N2005 1.325 . S
C2010 C2009 1.366 . S
C2010 C2014 1.516 . S
N2011 Co1969 1.974 . S
N2011 C2012 1.309 . S
N2011 C2017 1.423 . S
C2012 C2006 1.504 . S
C2012 N2011 1.309 . S
C2012 O2013 1.258 . S
O2013 C2012 1.258 . S
C2014 N1987 1.316 . S
C2014 C2010 1.516 . S
C2014 O2027 1.263 . S
O2015 Cd1958 2.350 . S
O2015 C2031 1.270 . S
O2016 Cd1958 2.277 . S
O2016 C2031 1.248 . S
C2017 N2011 1.423 . S
C2017 C2018 1.370 1_556 S
C2017 C2022 1.403 . S
C2018 C2017 1.370 1_554 S
C2018 C2019 1.389 . S
C2018 H2044 0.931 1_554 S
C2019 C2018 1.389 . S
C2019 C2020 1.389 . S
C2020 C2019 1.389 . S
C2020 C2021 1.379 . S
C2020 H2045 0.929 . S
C2021 C2020 1.379 . S
C2021 C2022 1.405 1_554 S
C2022 C2017 1.403 . S
C2022 C2021 1.405 1_556 S
C2022 H2046 0.932 . S
O2023 Cd1958 2.173 . S
O2023 C1959 1.277 . S
O2024 C1959 1.230 . S
O2024 Cd1962 2.250 . S
O2025 Cd1958 2.263 . S
O2025 C1978 1.258 . S
O2026 Cd1962 2.308 . S
O2026 C1978 1.274 . S
O2027 Cd1958 2.366 . S
O2027 C2014 1.263 . S
C2028 O2029 1.235 . S
C2028 O2030 1.270 . S
O2029 Cd1962 2.352 . S
O2029 C2028 1.235 . S
O2030 Cd1958 2.329 . S
O2030 C2028 1.270 . S
C2031 O2015 1.270 . S
C2031 O2016 1.248 . S
H2032 C1964 0.930 . S
H2033 C1967 0.930 . S
H2034 C1968 0.931 . S
H2035 C1973 0.929 . S
H2036 C1975 0.930 . S
H2037 C1977 0.930 . S
H2038 C1980 0.929 . S
H2039 C1981 0.932 . S
H2040 C1983 0.930 . S
H2041 C2007 0.929 . S
H2042 C2008 0.932 . S
H2043 C2009 0.931 . S
H2044 C2018 0.931 1_556 S
H2045 C2020 0.929 . S
H2046 C2022 0.932 . S
Cd2047 O2104 2.350 . S
Cd2047 O2105 2.277 . S
Cd2047 O2112 2.173 . S
Cd2047 O2114 2.263 . S
Cd2047 O2116 2.366 . S
Cd2047 O2119 2.329 . S
C2048 O2112 1.277 . S
C2048 O2113 1.230 . S
C2049 O2050 1.246 . S
C2049 C2052 1.481 . S
C2049 N2074 1.329 . S
O2050 C2049 1.246 . S
Cd2051 O2113 2.250 . S
Cd2051 O2115 2.308 . S
Cd2051 O2118 2.352 . S
C2052 C2049 1.481 . S
C2052 N2055 1.327 . S
C2052 C2056 1.407 . S
C2053 C2054 1.346 . S
C2053 C2057 1.390 . S
C2053 H2121 0.930 . S
C2054 C2053 1.346 . S
C2054 N2055 1.342 . S
C2054 C2059 1.516 . S
N2055 C2052 1.327 . S
N2055 C2054 1.342 . S
N2055 Co2058 1.864 . S
C2056 C2052 1.407 . S
C2056 C2057 1.364 . S
C2056 H2122 0.930 . S
C2057 C2053 1.390 . S
C2057 C2056 1.364 . S
C2057 H2123 0.931 . S
Co2058 N2055 1.864 . S
Co2058 N2074 1.955 . S
Co2058 N2075 1.958 . S
Co2058 N2076 1.953 . S
Co2058 N2094 1.869 . S
Co2058 N2100 1.974 . S
C2059 C2054 1.516 . S
C2059 O2060 1.238 . S
C2059 N2075 1.324 . S
O2060 C2059 1.238 . S
C2061 C2062 1.394 . S
C2061 C2066 1.395 . S
C2061 N2075 1.427 . S
C2062 C2061 1.394 . S
C2062 C2063 1.380 . S
C2062 H2124 0.929 . S
C2063 C2062 1.380 . S
C2063 C2064 1.384 . S
C2063 C2067 1.495 . S
C2064 C2063 1.384 . S
C2064 C2065 1.382 . S
C2064 H2125 0.930 . S
C2065 C2064 1.382 . S
C2065 C2066 1.398 . S
C2066 C2061 1.395 . S
C2066 C2065 1.398 . S
C2066 H2126 0.930 . S
C2067 C2063 1.495 . S
C2067 O2114 1.258 . S
C2067 O2115 1.274 . S
C2068 C2069 1.385 . S
C2068 C2070 1.381 . S
C2068 N2074 1.432 . S
C2069 C2068 1.385 . S
C2069 C2073 1.388 . S
C2069 H2127 0.929 . S
C2070 C2068 1.381 . S
C2070 C2071 1.371 . S
C2070 H2128 0.932 . S
C2071 C2070 1.371 . S
C2071 C2072 1.400 . S
C2072 C2071 1.400 . S
C2072 C2073 1.351 . S
C2072 H2129 0.930 . S
C2073 C2069 1.388 . S
C2073 C2072 1.351 . S
N2074 C2049 1.329 . S
N2074 Co2058 1.955 . S
N2074 C2068 1.432 . S
N2075 Co2058 1.958 . S
N2075 C2059 1.324 . S
N2075 C2061 1.427 . S
N2076 Co2058 1.953 . S
N2076 C2077 1.436 . S
N2076 C2103 1.316 . S
C2077 N2076 1.436 . S
C2077 C2078 1.421 . S
C2077 C2079 1.360 . S
C2078 C2077 1.421 . S
C2078 C2080 1.379 . S
C2078 H2081 0.929 . S
C2079 C2077 1.360 . S
C2079 C2083 1.393 . S
C2079 H2085 0.931 . S
C2080 C2078 1.379 . S
C2080 C2082 1.417 . S
C2080 C2084 1.505 . S
H2081 C2078 0.929 . S
C2082 C2080 1.417 . S
C2082 C2083 1.352 . S
C2082 H2086 0.929 . S
C2083 C2079 1.393 . S
C2083 C2082 1.352 . S
C2083 C2087 1.482 . S
C2084 C2080 1.505 . S
C2084 O2088 1.259 . S
C2084 O2089 1.229 . S
H2085 C2079 0.931 . S
H2086 C2082 0.929 . S
C2087 C2083 1.482 . S
C2087 O2090 1.207 . S
C2087 O2091 1.289 . S
O2088 C2084 1.259 . S
O2088 H2092 0.822 . S
O2089 C2084 1.229 . S
O2090 C2087 1.207 . S
O2091 C2087 1.289 . S
O2091 H2093 0.819 . S
H2092 O2088 0.822 . S
H2093 O2091 0.819 . S
N2094 Co2058 1.869 . S
N2094 C2095 1.330 . S
N2094 C2099 1.325 . S
C2095 N2094 1.330 . S
C2095 C2096 1.359 . S
C2095 C2101 1.504 . S
C2096 C2095 1.359 . S
C2096 C2097 1.366 . S
C2096 H2130 0.929 . S
C2097 C2096 1.366 . S
C2097 C2098 1.415 . S
C2097 H2131 0.932 . S
C2098 C2097 1.415 . S
C2098 C2099 1.366 . S
C2098 H2132 0.931 . S
C2099 N2094 1.325 . S
C2099 C2098 1.366 . S
C2099 C2103 1.516 . S
N2100 Co2058 1.974 . S
N2100 C2101 1.309 . S
N2100 C2106 1.423 . S
C2101 C2095 1.504 . S
C2101 N2100 1.309 . S
C2101 O2102 1.258 . S
O2102 C2101 1.258 . S
C2103 N2076 1.316 . S
C2103 C2099 1.516 . S
C2103 O2116 1.263 . S
O2104 Cd2047 2.350 . S
O2104 C2120 1.270 . S
O2105 Cd2047 2.277 . S
O2105 C2120 1.248 . S
C2106 N2100 1.423 . S
C2106 C2107 1.370 1_556 S
C2106 C2111 1.403 . S
C2107 C2106 1.370 1_554 S
C2107 C2108 1.389 . S
C2107 H2133 0.931 1_554 S
C2108 C2107 1.389 . S
C2108 C2109 1.389 . S
C2109 C2108 1.389 . S
C2109 C2110 1.379 . S
C2109 H2134 0.929 . S
C2110 C2109 1.379 . S
C2110 C2111 1.405 1_554 S
C2111 C2106 1.403 . S
C2111 C2110 1.405 1_556 S
C2111 H2135 0.932 . S
O2112 Cd2047 2.173 . S
O2112 C2048 1.277 . S
O2113 C2048 1.230 . S
O2113 Cd2051 2.250 . S
O2114 Cd2047 2.263 . S
O2114 C2067 1.258 . S
O2115 Cd2051 2.308 . S
O2115 C2067 1.274 . S
O2116 Cd2047 2.366 . S
O2116 C2103 1.263 . S
C2117 O2118 1.235 . S
C2117 O2119 1.270 . S
O2118 Cd2051 2.352 . S
O2118 C2117 1.235 . S
O2119 Cd2047 2.329 . S
O2119 C2117 1.270 . S
C2120 O2104 1.270 . S
C2120 O2105 1.248 . S
H2121 C2053 0.930 . S
H2122 C2056 0.930 . S
H2123 C2057 0.931 . S
H2124 C2062 0.929 . S
H2125 C2064 0.930 . S
H2126 C2066 0.930 . S
H2127 C2069 0.929 . S
H2128 C2070 0.932 . S
H2129 C2072 0.930 . S
H2130 C2096 0.929 . S
H2131 C2097 0.932 . S
H2132 C2098 0.931 . S
H2133 C2107 0.931 1_556 S
H2134 C2109 0.929 . S
H2135 C2111 0.932 . S
Cd2136 O2193 2.350 . S
Cd2136 O2194 2.277 . S
Cd2136 O2201 2.173 . S
Cd2136 O2203 2.263 . S
Cd2136 O2205 2.366 . S
Cd2136 O2208 2.329 . S
C2137 O2201 1.277 . S
C2137 O2202 1.230 . S
C2138 O2139 1.246 . S
C2138 C2141 1.481 . S
C2138 N2163 1.329 . S
O2139 C2138 1.246 . S
Cd2140 O2202 2.250 . S
Cd2140 O2204 2.308 . S
Cd2140 O2207 2.352 . S
C2141 C2138 1.481 . S
C2141 N2144 1.327 . S
C2141 C2145 1.407 . S
C2142 C2143 1.346 . S
C2142 C2146 1.390 . S
C2142 H2210 0.930 . S
C2143 C2142 1.346 . S
C2143 N2144 1.342 . S
C2143 C2148 1.516 . S
N2144 C2141 1.327 . S
N2144 C2143 1.342 . S
N2144 Co2147 1.864 . S
C2145 C2141 1.407 . S
C2145 C2146 1.364 . S
C2145 H2211 0.930 . S
C2146 C2142 1.390 . S
C2146 C2145 1.364 . S
C2146 H2212 0.931 . S
Co2147 N2144 1.864 . S
Co2147 N2163 1.955 . S
Co2147 N2164 1.958 . S
Co2147 N2165 1.953 . S
Co2147 N2183 1.869 . S
Co2147 N2189 1.974 . S
C2148 C2143 1.516 . S
C2148 O2149 1.238 . S
C2148 N2164 1.324 . S
O2149 C2148 1.238 . S
C2150 C2151 1.394 . S
C2150 C2155 1.395 . S
C2150 N2164 1.427 . S
C2151 C2150 1.394 . S
C2151 C2152 1.380 . S
C2151 H2213 0.929 . S
C2152 C2151 1.380 . S
C2152 C2153 1.384 . S
C2152 C2156 1.495 . S
C2153 C2152 1.384 . S
C2153 C2154 1.382 . S
C2153 H2214 0.930 . S
C2154 C2153 1.382 . S
C2154 C2155 1.398 . S
C2155 C2150 1.395 . S
C2155 C2154 1.398 . S
C2155 H2215 0.930 . S
C2156 C2152 1.495 . S
C2156 O2203 1.258 . S
C2156 O2204 1.274 . S
C2157 C2158 1.385 . S
C2157 C2159 1.381 . S
C2157 N2163 1.432 . S
C2158 C2157 1.385 . S
C2158 C2162 1.388 . S
C2158 H2216 0.929 . S
C2159 C2157 1.381 . S
C2159 C2160 1.371 . S
C2159 H2217 0.932 . S
C2160 C2159 1.371 . S
C2160 C2161 1.400 . S
C2161 C2160 1.400 . S
C2161 C2162 1.351 . S
C2161 H2218 0.930 . S
C2162 C2158 1.388 . S
C2162 C2161 1.351 . S
N2163 C2138 1.329 . S
N2163 Co2147 1.955 . S
N2163 C2157 1.432 . S
N2164 Co2147 1.958 . S
N2164 C2148 1.324 . S
N2164 C2150 1.427 . S
N2165 Co2147 1.953 . S
N2165 C2166 1.436 . S
N2165 C2192 1.316 . S
C2166 N2165 1.436 . S
C2166 C2167 1.421 . S
C2166 C2168 1.360 . S
C2167 C2166 1.421 . S
C2167 C2169 1.379 . S
C2167 H2170 0.929 . S
C2168 C2166 1.360 . S
C2168 C2172 1.393 . S
C2168 H2174 0.931 . S
C2169 C2167 1.379 . S
C2169 C2171 1.417 . S
C2169 C2173 1.505 . S
H2170 C2167 0.929 . S
C2171 C2169 1.417 . S
C2171 C2172 1.352 . S
C2171 H2175 0.929 . S
C2172 C2168 1.393 . S
C2172 C2171 1.352 . S
C2172 C2176 1.482 . S
C2173 C2169 1.505 . S
C2173 O2177 1.259 . S
C2173 O2178 1.229 . S
H2174 C2168 0.931 . S
H2175 C2171 0.929 . S
C2176 C2172 1.482 . S
C2176 O2179 1.207 . S
C2176 O2180 1.289 . S
O2177 C2173 1.259 . S
O2177 H2181 0.822 . S
O2178 C2173 1.229 . S
O2179 C2176 1.207 . S
O2180 C2176 1.289 . S
O2180 H2182 0.819 . S
H2181 O2177 0.822 . S
H2182 O2180 0.819 . S
N2183 Co2147 1.869 . S
N2183 C2184 1.330 . S
N2183 C2188 1.325 . S
C2184 N2183 1.330 . S
C2184 C2185 1.359 . S
C2184 C2190 1.504 . S
C2185 C2184 1.359 . S
C2185 C2186 1.366 . S
C2185 H2219 0.929 . S
C2186 C2185 1.366 . S
C2186 C2187 1.415 . S
C2186 H2220 0.932 . S
C2187 C2186 1.415 . S
C2187 C2188 1.366 . S
C2187 H2221 0.931 . S
C2188 N2183 1.325 . S
C2188 C2187 1.366 . S
C2188 C2192 1.516 . S
N2189 Co2147 1.974 . S
N2189 C2190 1.309 . S
N2189 C2195 1.423 . S
C2190 C2184 1.504 . S
C2190 N2189 1.309 . S
C2190 O2191 1.258 . S
O2191 C2190 1.258 . S
C2192 N2165 1.316 . S
C2192 C2188 1.516 . S
C2192 O2205 1.263 . S
O2193 Cd2136 2.350 . S
O2193 C2209 1.270 . S
O2194 Cd2136 2.277 . S
O2194 C2209 1.248 . S
C2195 N2189 1.423 . S
C2195 C2196 1.370 . S
C2195 C2200 1.403 . S
C2196 C2195 1.370 . S
C2196 C2197 1.389 . S
C2196 H2222 0.931 . S
C2197 C2196 1.389 . S
C2197 C2198 1.389 . S
C2198 C2197 1.389 . S
C2198 C2199 1.379 . S
C2198 H2223 0.929 . S
C2199 C2198 1.379 . S
C2199 C2200 1.405 . S
C2200 C2195 1.403 . S
C2200 C2199 1.405 . S
C2200 H2224 0.932 . S
O2201 Cd2136 2.173 . S
O2201 C2137 1.277 . S
O2202 C2137 1.230 . S
O2202 Cd2140 2.250 . S
O2203 Cd2136 2.263 . S
O2203 C2156 1.258 . S
O2204 Cd2140 2.308 . S
O2204 C2156 1.274 . S
O2205 Cd2136 2.366 . S
O2205 C2192 1.263 . S
C2206 O2207 1.235 . S
C2206 O2208 1.270 . S
O2207 Cd2140 2.352 . S
O2207 C2206 1.235 . S
O2208 Cd2136 2.329 . S
O2208 C2206 1.270 . S
C2209 O2193 1.270 . S
C2209 O2194 1.248 . S
H2210 C2142 0.930 . S
H2211 C2145 0.930 . S
H2212 C2146 0.931 . S
H2213 C2151 0.929 . S
H2214 C2153 0.930 . S
H2215 C2155 0.930 . S
H2216 C2158 0.929 . S
H2217 C2159 0.932 . S
H2218 C2161 0.930 . S
H2219 C2185 0.929 . S
H2220 C2186 0.932 . S
H2221 C2187 0.931 . S
H2222 C2196 0.931 . S
H2223 C2198 0.929 . S
H2224 C2200 0.932 . S
Cd2225 O2282 2.350 . S
Cd2225 O2283 2.277 . S
Cd2225 O2290 2.173 . S
Cd2225 O2292 2.263 . S
Cd2225 O2294 2.366 . S
Cd2225 O2297 2.329 . S
C2226 O2290 1.277 . S
C2226 O2291 1.230 . S
C2227 O2228 1.246 . S
C2227 C2230 1.481 . S
C2227 N2252 1.329 . S
O2228 C2227 1.246 . S
Cd2229 O2291 2.250 . S
Cd2229 O2293 2.308 . S
Cd2229 O2296 2.352 . S
C2230 C2227 1.481 . S
C2230 N2233 1.327 . S
C2230 C2234 1.407 . S
C2231 C2232 1.346 . S
C2231 C2235 1.390 . S
C2231 H2299 0.930 . S
C2232 C2231 1.346 . S
C2232 N2233 1.342 . S
C2232 C2237 1.516 . S
N2233 C2230 1.327 . S
N2233 C2232 1.342 . S
N2233 Co2236 1.864 . S
C2234 C2230 1.407 . S
C2234 C2235 1.364 . S
C2234 H2300 0.930 . S
C2235 C2231 1.390 . S
C2235 C2234 1.364 . S
C2235 H2301 0.931 . S
Co2236 N2233 1.864 . S
Co2236 N2252 1.955 . S
Co2236 N2253 1.958 . S
Co2236 N2254 1.953 . S
Co2236 N2272 1.869 . S
Co2236 N2278 1.974 . S
C2237 C2232 1.516 . S
C2237 O2238 1.238 . S
C2237 N2253 1.324 . S
O2238 C2237 1.238 . S
C2239 C2240 1.394 . S
C2239 C2244 1.395 . S
C2239 N2253 1.427 . S
C2240 C2239 1.394 . S
C2240 C2241 1.380 . S
C2240 H2302 0.929 . S
C2241 C2240 1.380 . S
C2241 C2242 1.384 . S
C2241 C2245 1.495 . S
C2242 C2241 1.384 . S
C2242 C2243 1.382 . S
C2242 H2303 0.930 . S
C2243 C2242 1.382 . S
C2243 C2244 1.398 . S
C2244 C2239 1.395 . S
C2244 C2243 1.398 . S
C2244 H2304 0.930 . S
C2245 C2241 1.495 . S
C2245 O2292 1.258 . S
C2245 O2293 1.274 . S
C2246 C2247 1.385 . S
C2246 C2248 1.381 . S
C2246 N2252 1.432 . S
C2247 C2246 1.385 . S
C2247 C2251 1.388 . S
C2247 H2305 0.929 . S
C2248 C2246 1.381 . S
C2248 C2249 1.371 . S
C2248 H2306 0.932 . S
C2249 C2248 1.371 . S
C2249 C2250 1.400 . S
C2250 C2249 1.400 . S
C2250 C2251 1.351 . S
C2250 H2307 0.930 . S
C2251 C2247 1.388 . S
C2251 C2250 1.351 . S
N2252 C2227 1.329 . S
N2252 Co2236 1.955 . S
N2252 C2246 1.432 . S
N2253 Co2236 1.958 . S
N2253 C2237 1.324 . S
N2253 C2239 1.427 . S
N2254 Co2236 1.953 . S
N2254 C2255 1.436 . S
N2254 C2281 1.316 . S
C2255 N2254 1.436 . S
C2255 C2256 1.421 . S
C2255 C2257 1.360 . S
C2256 C2255 1.421 . S
C2256 C2258 1.379 . S
C2256 H2259 0.929 . S
C2257 C2255 1.360 . S
C2257 C2261 1.393 . S
C2257 H2263 0.931 . S
C2258 C2256 1.379 . S
C2258 C2260 1.417 . S
C2258 C2262 1.505 . S
H2259 C2256 0.929 . S
C2260 C2258 1.417 . S
C2260 C2261 1.352 . S
C2260 H2264 0.929 . S
C2261 C2257 1.393 . S
C2261 C2260 1.352 . S
C2261 C2265 1.482 . S
C2262 C2258 1.505 . S
C2262 O2266 1.259 . S
C2262 O2267 1.229 . S
H2263 C2257 0.931 . S
H2264 C2260 0.929 . S
C2265 C2261 1.482 . S
C2265 O2268 1.207 . S
C2265 O2269 1.289 . S
O2266 C2262 1.259 . S
O2266 H2270 0.822 . S
O2267 C2262 1.229 . S
O2268 C2265 1.207 . S
O2269 C2265 1.289 . S
O2269 H2271 0.819 . S
H2270 O2266 0.822 . S
H2271 O2269 0.819 . S
N2272 Co2236 1.869 . S
N2272 C2273 1.330 . S
N2272 C2277 1.325 . S
C2273 N2272 1.330 . S
C2273 C2274 1.359 . S
C2273 C2279 1.504 . S
C2274 C2273 1.359 . S
C2274 C2275 1.366 . S
C2274 H2308 0.929 . S
C2275 C2274 1.366 . S
C2275 C2276 1.415 . S
C2275 H2309 0.932 . S
C2276 C2275 1.415 . S
C2276 C2277 1.366 . S
C2276 H2310 0.931 . S
C2277 N2272 1.325 . S
C2277 C2276 1.366 . S
C2277 C2281 1.516 . S
N2278 Co2236 1.974 . S
N2278 C2279 1.309 . S
N2278 C2284 1.423 . S
C2279 C2273 1.504 . S
C2279 N2278 1.309 . S
C2279 O2280 1.258 . S
O2280 C2279 1.258 . S
C2281 N2254 1.316 . S
C2281 C2277 1.516 . S
C2281 O2294 1.263 . S
O2282 Cd2225 2.350 . S
O2282 C2298 1.270 . S
O2283 Cd2225 2.277 . S
O2283 C2298 1.248 . S
C2284 N2278 1.423 . S
C2284 C2285 1.370 . S
C2284 C2289 1.403 . S
C2285 C2284 1.370 . S
C2285 C2286 1.389 . S
C2285 H2311 0.931 . S
C2286 C2285 1.389 . S
C2286 C2287 1.389 . S
C2287 C2286 1.389 . S
C2287 C2288 1.379 . S
C2287 H2312 0.929 . S
C2288 C2287 1.379 . S
C2288 C2289 1.405 . S
C2289 C2284 1.403 . S
C2289 C2288 1.405 . S
C2289 H2313 0.932 . S
O2290 Cd2225 2.173 . S
O2290 C2226 1.277 . S
O2291 C2226 1.230 . S
O2291 Cd2229 2.250 . S
O2292 Cd2225 2.263 . S
O2292 C2245 1.258 . S
O2293 Cd2229 2.308 . S
O2293 C2245 1.274 . S
O2294 Cd2225 2.366 . S
O2294 C2281 1.263 . S
C2295 O2296 1.235 . S
C2295 O2297 1.270 . S
O2296 Cd2229 2.352 . S
O2296 C2295 1.235 . S
O2297 Cd2225 2.329 . S
O2297 C2295 1.270 . S
C2298 O2282 1.270 . S
C2298 O2283 1.248 . S
H2299 C2231 0.930 . S
H2300 C2234 0.930 . S
H2301 C2235 0.931 . S
H2302 C2240 0.929 . S
H2303 C2242 0.930 . S
H2304 C2244 0.930 . S
H2305 C2247 0.929 . S
H2306 C2248 0.932 . S
H2307 C2250 0.930 . S
H2308 C2274 0.929 . S
H2309 C2275 0.932 . S
H2310 C2276 0.931 . S
H2311 C2285 0.931 . S
H2312 C2287 0.929 . S
H2313 C2289 0.932 . S
Cd2314 O2371 2.350 . S
Cd2314 O2372 2.277 . S
Cd2314 O2379 2.173 . S
Cd2314 O2381 2.263 . S
Cd2314 O2383 2.366 . S
Cd2314 O2386 2.329 . S
C2315 O2379 1.277 . S
C2315 O2380 1.230 . S
C2316 O2317 1.246 . S
C2316 C2319 1.481 . S
C2316 N2341 1.329 . S
O2317 C2316 1.246 . S
Cd2318 O2380 2.250 . S
Cd2318 O2382 2.308 . S
Cd2318 O2385 2.352 . S
C2319 C2316 1.481 . S
C2319 N2322 1.327 . S
C2319 C2323 1.407 . S
C2320 C2321 1.346 . S
C2320 C2324 1.390 . S
C2320 H2388 0.930 . S
C2321 C2320 1.346 . S
C2321 N2322 1.342 . S
C2321 C2326 1.516 . S
N2322 C2319 1.327 . S
N2322 C2321 1.342 . S
N2322 Co2325 1.864 . S
C2323 C2319 1.407 . S
C2323 C2324 1.364 . S
C2323 H2389 0.930 . S
C2324 C2320 1.390 . S
C2324 C2323 1.364 . S
C2324 H2390 0.931 . S
Co2325 N2322 1.864 . S
Co2325 N2341 1.955 . S
Co2325 N2342 1.958 . S
Co2325 N2343 1.953 . S
Co2325 N2361 1.869 . S
Co2325 N2367 1.974 . S
C2326 C2321 1.516 . S
C2326 O2327 1.238 . S
C2326 N2342 1.324 . S
O2327 C2326 1.238 . S
C2328 C2329 1.394 . S
C2328 C2333 1.395 . S
C2328 N2342 1.427 . S
C2329 C2328 1.394 . S
C2329 C2330 1.380 . S
C2329 H2391 0.929 . S
C2330 C2329 1.380 . S
C2330 C2331 1.384 . S
C2330 C2334 1.495 . S
C2331 C2330 1.384 . S
C2331 C2332 1.382 . S
C2331 H2392 0.930 . S
C2332 C2331 1.382 . S
C2332 C2333 1.398 . S
C2333 C2328 1.395 . S
C2333 C2332 1.398 . S
C2333 H2393 0.930 . S
C2334 C2330 1.495 . S
C2334 O2381 1.258 . S
C2334 O2382 1.274 . S
C2335 C2336 1.385 . S
C2335 C2337 1.381 . S
C2335 N2341 1.432 . S
C2336 C2335 1.385 . S
C2336 C2340 1.388 . S
C2336 H2394 0.929 . S
C2337 C2335 1.381 . S
C2337 C2338 1.371 . S
C2337 H2395 0.932 . S
C2338 C2337 1.371 . S
C2338 C2339 1.400 . S
C2339 C2338 1.400 . S
C2339 C2340 1.351 . S
C2339 H2396 0.930 . S
C2340 C2336 1.388 . S
C2340 C2339 1.351 . S
N2341 C2316 1.329 . S
N2341 Co2325 1.955 . S
N2341 C2335 1.432 . S
N2342 Co2325 1.958 . S
N2342 C2326 1.324 . S
N2342 C2328 1.427 . S
N2343 Co2325 1.953 . S
N2343 C2344 1.436 . S
N2343 C2370 1.316 . S
C2344 N2343 1.436 . S
C2344 C2345 1.421 . S
C2344 C2346 1.360 . S
C2345 C2344 1.421 . S
C2345 C2347 1.379 . S
C2345 H2348 0.929 . S
C2346 C2344 1.360 . S
C2346 C2350 1.393 . S
C2346 H2352 0.931 . S
C2347 C2345 1.379 . S
C2347 C2349 1.417 . S
C2347 C2351 1.505 . S
H2348 C2345 0.929 . S
C2349 C2347 1.417 . S
C2349 C2350 1.352 . S
C2349 H2353 0.929 . S
C2350 C2346 1.393 . S
C2350 C2349 1.352 . S
C2350 C2354 1.482 . S
C2351 C2347 1.505 . S
C2351 O2355 1.259 . S
C2351 O2356 1.229 . S
H2352 C2346 0.931 . S
H2353 C2349 0.929 . S
C2354 C2350 1.482 . S
C2354 O2357 1.207 . S
C2354 O2358 1.289 . S
O2355 C2351 1.259 . S
O2355 H2359 0.822 . S
O2356 C2351 1.229 . S
O2357 C2354 1.207 . S
O2358 C2354 1.289 . S
O2358 H2360 0.819 . S
H2359 O2355 0.822 . S
H2360 O2358 0.819 . S
N2361 Co2325 1.869 . S
N2361 C2362 1.330 . S
N2361 C2366 1.325 . S
C2362 N2361 1.330 . S
C2362 C2363 1.359 . S
C2362 C2368 1.504 . S
C2363 C2362 1.359 . S
C2363 C2364 1.366 . S
C2363 H2397 0.929 . S
C2364 C2363 1.366 . S
C2364 C2365 1.415 . S
C2364 H2398 0.932 . S
C2365 C2364 1.415 . S
C2365 C2366 1.366 . S
C2365 H2399 0.931 . S
C2366 N2361 1.325 . S
C2366 C2365 1.366 . S
C2366 C2370 1.516 . S
N2367 Co2325 1.974 . S
N2367 C2368 1.309 . S
N2367 C2373 1.423 . S
C2368 C2362 1.504 . S
C2368 N2367 1.309 . S
C2368 O2369 1.258 . S
O2369 C2368 1.258 . S
C2370 N2343 1.316 . S
C2370 C2366 1.516 . S
C2370 O2383 1.263 . S
O2371 Cd2314 2.350 . S
O2371 C2387 1.270 . S
O2372 Cd2314 2.277 . S
O2372 C2387 1.248 . S
C2373 N2367 1.423 . S
C2373 C2374 1.370 . S
C2373 C2378 1.403 . S
C2374 C2373 1.370 . S
C2374 C2375 1.389 . S
C2374 H2400 0.931 . S
C2375 C2374 1.389 . S
C2375 C2376 1.389 . S
C2376 C2375 1.389 . S
C2376 C2377 1.379 . S
C2376 H2401 0.929 . S
C2377 C2376 1.379 . S
C2377 C2378 1.405 . S
C2378 C2373 1.403 . S
C2378 C2377 1.405 . S
C2378 H2402 0.932 . S
O2379 Cd2314 2.173 . S
O2379 C2315 1.277 . S
O2380 C2315 1.230 . S
O2380 Cd2318 2.250 . S
O2381 Cd2314 2.263 . S
O2381 C2334 1.258 . S
O2382 Cd2318 2.308 . S
O2382 C2334 1.274 . S
O2383 Cd2314 2.366 . S
O2383 C2370 1.263 . S
C2384 O2385 1.235 . S
C2384 O2386 1.270 . S
O2385 Cd2318 2.352 . S
O2385 C2384 1.235 . S
O2386 Cd2314 2.329 . S
O2386 C2384 1.270 . S
C2387 O2371 1.270 . S
C2387 O2372 1.248 . S
H2388 C2320 0.930 . S
H2389 C2323 0.930 . S
H2390 C2324 0.931 . S
H2391 C2329 0.929 . S
H2392 C2331 0.930 . S
H2393 C2333 0.930 . S
H2394 C2336 0.929 . S
H2395 C2337 0.932 . S
H2396 C2339 0.930 . S
H2397 C2363 0.929 . S
H2398 C2364 0.932 . S
H2399 C2365 0.931 . S
H2400 C2374 0.931 . S
H2401 C2376 0.929 . S
H2402 C2378 0.932 . S
Cd2403 O2460 2.350 . S
Cd2403 O2461 2.277 . S
Cd2403 O2468 2.173 . S
Cd2403 O2470 2.263 . S
Cd2403 O2472 2.366 . S
Cd2403 O2475 2.329 . S
C2404 O2468 1.277 . S
C2404 O2469 1.230 . S
C2405 O2406 1.246 . S
C2405 C2408 1.481 . S
C2405 N2430 1.329 . S
O2406 C2405 1.246 . S
Cd2407 O2469 2.250 . S
Cd2407 O2471 2.308 . S
Cd2407 O2474 2.352 . S
C2408 C2405 1.481 . S
C2408 N2411 1.327 . S
C2408 C2412 1.407 . S
C2409 C2410 1.346 . S
C2409 C2413 1.390 . S
C2409 H2477 0.930 . S
C2410 C2409 1.346 . S
C2410 N2411 1.342 . S
C2410 C2415 1.516 . S
N2411 C2408 1.327 . S
N2411 C2410 1.342 . S
N2411 Co2414 1.864 . S
C2412 C2408 1.407 . S
C2412 C2413 1.364 . S
C2412 H2478 0.930 . S
C2413 C2409 1.390 . S
C2413 C2412 1.364 . S
C2413 H2479 0.931 . S
Co2414 N2411 1.864 . S
Co2414 N2430 1.955 . S
Co2414 N2431 1.958 . S
Co2414 N2432 1.953 . S
Co2414 N2450 1.869 . S
Co2414 N2456 1.974 . S
C2415 C2410 1.516 . S
C2415 O2416 1.238 . S
C2415 N2431 1.324 . S
O2416 C2415 1.238 . S
C2417 C2418 1.394 . S
C2417 C2422 1.395 . S
C2417 N2431 1.427 . S
C2418 C2417 1.394 . S
C2418 C2419 1.380 . S
C2418 H2480 0.929 . S
C2419 C2418 1.380 . S
C2419 C2420 1.384 . S
C2419 C2423 1.495 . S
C2420 C2419 1.384 . S
C2420 C2421 1.382 . S
C2420 H2481 0.930 . S
C2421 C2420 1.382 . S
C2421 C2422 1.398 . S
C2422 C2417 1.395 . S
C2422 C2421 1.398 . S
C2422 H2482 0.930 . S
C2423 C2419 1.495 . S
C2423 O2470 1.258 . S
C2423 O2471 1.274 . S
C2424 C2425 1.385 . S
C2424 C2426 1.381 . S
C2424 N2430 1.432 . S
C2425 C2424 1.385 . S
C2425 C2429 1.388 . S
C2425 H2483 0.929 . S
C2426 C2424 1.381 . S
C2426 C2427 1.371 . S
C2426 H2484 0.932 . S
C2427 C2426 1.371 . S
C2427 C2428 1.400 . S
C2428 C2427 1.400 . S
C2428 C2429 1.351 . S
C2428 H2485 0.930 . S
C2429 C2425 1.388 . S
C2429 C2428 1.351 . S
N2430 C2405 1.329 . S
N2430 Co2414 1.955 . S
N2430 C2424 1.432 . S
N2431 Co2414 1.958 . S
N2431 C2415 1.324 . S
N2431 C2417 1.427 . S
N2432 Co2414 1.953 . S
N2432 C2433 1.436 . S
N2432 C2459 1.316 . S
C2433 N2432 1.436 . S
C2433 C2434 1.421 . S
C2433 C2435 1.360 . S
C2434 C2433 1.421 . S
C2434 C2436 1.379 . S
C2434 H2437 0.929 . S
C2435 C2433 1.360 . S
C2435 C2439 1.393 . S
C2435 H2441 0.931 . S
C2436 C2434 1.379 . S
C2436 C2438 1.417 . S
C2436 C2440 1.505 . S
H2437 C2434 0.929 . S
C2438 C2436 1.417 . S
C2438 C2439 1.352 . S
C2438 H2442 0.929 . S
C2439 C2435 1.393 . S
C2439 C2438 1.352 . S
C2439 C2443 1.482 . S
C2440 C2436 1.505 . S
C2440 O2444 1.259 . S
C2440 O2445 1.229 . S
H2441 C2435 0.931 . S
H2442 C2438 0.929 . S
C2443 C2439 1.482 . S
C2443 O2446 1.207 . S
C2443 O2447 1.289 . S
O2444 C2440 1.259 . S
O2444 H2448 0.822 . S
O2445 C2440 1.229 . S
O2446 C2443 1.207 . S
O2447 C2443 1.289 . S
O2447 H2449 0.819 . S
H2448 O2444 0.822 . S
H2449 O2447 0.819 . S
N2450 Co2414 1.869 . S
N2450 C2451 1.330 . S
N2450 C2455 1.325 . S
C2451 N2450 1.330 . S
C2451 C2452 1.359 . S
C2451 C2457 1.504 . S
C2452 C2451 1.359 . S
C2452 C2453 1.366 . S
C2452 H2486 0.929 . S
C2453 C2452 1.366 . S
C2453 C2454 1.415 . S
C2453 H2487 0.932 . S
C2454 C2453 1.415 . S
C2454 C2455 1.366 . S
C2454 H2488 0.931 . S
C2455 N2450 1.325 . S
C2455 C2454 1.366 . S
C2455 C2459 1.516 . S
N2456 Co2414 1.974 . S
N2456 C2457 1.309 . S
N2456 C2462 1.423 . S
C2457 C2451 1.504 . S
C2457 N2456 1.309 . S
C2457 O2458 1.258 . S
O2458 C2457 1.258 . S
C2459 N2432 1.316 . S
C2459 C2455 1.516 . S
C2459 O2472 1.263 . S
O2460 Cd2403 2.350 . S
O2460 C2476 1.270 . S
O2461 Cd2403 2.277 . S
O2461 C2476 1.248 . S
C2462 N2456 1.423 . S
C2462 C2463 1.370 1_554 S
C2462 C2467 1.403 . S
C2463 C2462 1.370 1_556 S
C2463 C2464 1.389 . S
C2463 H2489 0.931 1_556 S
C2464 C2463 1.389 . S
C2464 C2465 1.389 . S
C2465 C2464 1.389 . S
C2465 C2466 1.379 . S
C2465 H2490 0.929 . S
C2466 C2465 1.379 . S
C2466 C2467 1.405 1_556 S
C2467 C2462 1.403 . S
C2467 C2466 1.405 1_554 S
C2467 H2491 0.932 . S
O2468 Cd2403 2.173 . S
O2468 C2404 1.277 . S
O2469 C2404 1.230 . S
O2469 Cd2407 2.250 . S
O2470 Cd2403 2.263 . S
O2470 C2423 1.258 . S
O2471 Cd2407 2.308 . S
O2471 C2423 1.274 . S
O2472 Cd2403 2.366 . S
O2472 C2459 1.263 . S
C2473 O2474 1.235 . S
C2473 O2475 1.270 . S
O2474 Cd2407 2.352 . S
O2474 C2473 1.235 . S
O2475 Cd2403 2.329 . S
O2475 C2473 1.270 . S
C2476 O2460 1.270 . S
C2476 O2461 1.248 . S
H2477 C2409 0.930 . S
H2478 C2412 0.930 . S
H2479 C2413 0.931 . S
H2480 C2418 0.929 . S
H2481 C2420 0.930 . S
H2482 C2422 0.930 . S
H2483 C2425 0.929 . S
H2484 C2426 0.932 . S
H2485 C2428 0.930 . S
H2486 C2452 0.929 . S
H2487 C2453 0.932 . S
H2488 C2454 0.931 . S
H2489 C2463 0.931 1_554 S
H2490 C2465 0.929 . S
H2491 C2467 0.932 . S
Cd2492 O2549 2.350 . S
Cd2492 O2550 2.277 . S
Cd2492 O2557 2.173 . S
Cd2492 O2559 2.263 . S
Cd2492 O2561 2.366 . S
Cd2492 O2564 2.329 . S
C2493 O2557 1.277 . S
C2493 O2558 1.230 . S
C2494 O2495 1.246 . S
C2494 C2497 1.481 . S
C2494 N2519 1.329 . S
O2495 C2494 1.246 . S
Cd2496 O2558 2.250 . S
Cd2496 O2560 2.308 . S
Cd2496 O2563 2.352 . S
C2497 C2494 1.481 . S
C2497 N2500 1.327 . S
C2497 C2501 1.407 . S
C2498 C2499 1.346 . S
C2498 C2502 1.390 . S
C2498 H2566 0.930 . S
C2499 C2498 1.346 . S
C2499 N2500 1.342 . S
C2499 C2504 1.516 . S
N2500 C2497 1.327 . S
N2500 C2499 1.342 . S
N2500 Co2503 1.864 . S
C2501 C2497 1.407 . S
C2501 C2502 1.364 . S
C2501 H2567 0.930 . S
C2502 C2498 1.390 . S
C2502 C2501 1.364 . S
C2502 H2568 0.931 . S
Co2503 N2500 1.864 . S
Co2503 N2519 1.955 . S
Co2503 N2520 1.958 . S
Co2503 N2521 1.953 . S
Co2503 N2539 1.869 . S
Co2503 N2545 1.974 . S
C2504 C2499 1.516 . S
C2504 O2505 1.238 . S
C2504 N2520 1.324 . S
O2505 C2504 1.238 . S
C2506 C2507 1.394 . S
C2506 C2511 1.395 . S
C2506 N2520 1.427 . S
C2507 C2506 1.394 . S
C2507 C2508 1.380 . S
C2507 H2569 0.929 . S
C2508 C2507 1.380 . S
C2508 C2509 1.384 . S
C2508 C2512 1.495 . S
C2509 C2508 1.384 . S
C2509 C2510 1.382 . S
C2509 H2570 0.930 . S
C2510 C2509 1.382 . S
C2510 C2511 1.398 . S
C2511 C2506 1.395 . S
C2511 C2510 1.398 . S
C2511 H2571 0.930 . S
C2512 C2508 1.495 . S
C2512 O2559 1.258 . S
C2512 O2560 1.274 . S
C2513 C2514 1.385 . S
C2513 C2515 1.381 . S
C2513 N2519 1.432 . S
C2514 C2513 1.385 . S
C2514 C2518 1.388 . S
C2514 H2572 0.929 . S
C2515 C2513 1.381 . S
C2515 C2516 1.371 . S
C2515 H2573 0.932 . S
C2516 C2515 1.371 . S
C2516 C2517 1.400 . S
C2517 C2516 1.400 . S
C2517 C2518 1.351 . S
C2517 H2574 0.930 . S
C2518 C2514 1.388 . S
C2518 C2517 1.351 . S
N2519 C2494 1.329 . S
N2519 Co2503 1.955 . S
N2519 C2513 1.432 . S
N2520 Co2503 1.958 . S
N2520 C2504 1.324 . S
N2520 C2506 1.427 . S
N2521 Co2503 1.953 . S
N2521 C2522 1.436 . S
N2521 C2548 1.316 . S
C2522 N2521 1.436 . S
C2522 C2523 1.421 . S
C2522 C2524 1.360 . S
C2523 C2522 1.421 . S
C2523 C2525 1.379 . S
C2523 H2526 0.929 . S
C2524 C2522 1.360 . S
C2524 C2528 1.393 . S
C2524 H2530 0.931 . S
C2525 C2523 1.379 . S
C2525 C2527 1.417 . S
C2525 C2529 1.505 . S
H2526 C2523 0.929 . S
C2527 C2525 1.417 . S
C2527 C2528 1.352 . S
C2527 H2531 0.929 . S
C2528 C2524 1.393 . S
C2528 C2527 1.352 . S
C2528 C2532 1.482 . S
C2529 C2525 1.505 . S
C2529 O2533 1.259 . S
C2529 O2534 1.229 . S
H2530 C2524 0.931 . S
H2531 C2527 0.929 . S
C2532 C2528 1.482 . S
C2532 O2535 1.207 . S
C2532 O2536 1.289 . S
O2533 C2529 1.259 . S
O2533 H2537 0.822 . S
O2534 C2529 1.229 . S
O2535 C2532 1.207 . S
O2536 C2532 1.289 . S
O2536 H2538 0.819 . S
H2537 O2533 0.822 . S
H2538 O2536 0.819 . S
N2539 Co2503 1.869 . S
N2539 C2540 1.330 . S
N2539 C2544 1.325 . S
C2540 N2539 1.330 . S
C2540 C2541 1.359 . S
C2540 C2546 1.504 . S
C2541 C2540 1.359 . S
C2541 C2542 1.366 . S
C2541 H2575 0.929 . S
C2542 C2541 1.366 . S
C2542 C2543 1.415 . S
C2542 H2576 0.932 . S
C2543 C2542 1.415 . S
C2543 C2544 1.366 . S
C2543 H2577 0.931 . S
C2544 N2539 1.325 . S
C2544 C2543 1.366 . S
C2544 C2548 1.516 . S
N2545 Co2503 1.974 . S
N2545 C2546 1.309 . S
N2545 C2551 1.423 . S
C2546 C2540 1.504 . S
C2546 N2545 1.309 . S
C2546 O2547 1.258 . S
O2547 C2546 1.258 . S
C2548 N2521 1.316 . S
C2548 C2544 1.516 . S
C2548 O2561 1.263 . S
O2549 Cd2492 2.350 . S
O2549 C2565 1.270 . S
O2550 Cd2492 2.277 . S
O2550 C2565 1.248 . S
C2551 N2545 1.423 . S
C2551 C2552 1.370 1_554 S
C2551 C2556 1.403 . S
C2552 C2551 1.370 1_556 S
C2552 C2553 1.389 . S
C2552 H2578 0.931 1_556 S
C2553 C2552 1.389 . S
C2553 C2554 1.389 . S
C2554 C2553 1.389 . S
C2554 C2555 1.379 . S
C2554 H2579 0.929 . S
C2555 C2554 1.379 . S
C2555 C2556 1.405 1_556 S
C2556 C2551 1.403 . S
C2556 C2555 1.405 1_554 S
C2556 H2580 0.932 . S
O2557 Cd2492 2.173 . S
O2557 C2493 1.277 . S
O2558 C2493 1.230 . S
O2558 Cd2496 2.250 . S
O2559 Cd2492 2.263 . S
O2559 C2512 1.258 . S
O2560 Cd2496 2.308 . S
O2560 C2512 1.274 . S
O2561 Cd2492 2.366 . S
O2561 C2548 1.263 . S
C2562 O2563 1.235 . S
C2562 O2564 1.270 . S
O2563 Cd2496 2.352 . S
O2563 C2562 1.235 . S
O2564 Cd2492 2.329 . S
O2564 C2562 1.270 . S
C2565 O2549 1.270 . S
C2565 O2550 1.248 . S
H2566 C2498 0.930 . S
H2567 C2501 0.930 . S
H2568 C2502 0.931 . S
H2569 C2507 0.929 . S
H2570 C2509 0.930 . S
H2571 C2511 0.930 . S
H2572 C2514 0.929 . S
H2573 C2515 0.932 . S
H2574 C2517 0.930 . S
H2575 C2541 0.929 . S
H2576 C2542 0.932 . S
H2577 C2543 0.931 . S
H2578 C2552 0.931 1_554 S
H2579 C2554 0.929 . S
H2580 C2556 0.932 . S
Cd2581 O2638 2.350 . S
Cd2581 O2639 2.277 . S
Cd2581 O2646 2.173 . S
Cd2581 O2648 2.263 . S
Cd2581 O2650 2.366 . S
Cd2581 O2653 2.329 . S
C2582 O2646 1.277 . S
C2582 O2647 1.230 . S
C2583 O2584 1.246 . S
C2583 C2586 1.481 . S
C2583 N2608 1.329 . S
O2584 C2583 1.246 . S
Cd2585 O2647 2.250 . S
Cd2585 O2649 2.308 . S
Cd2585 O2652 2.352 . S
C2586 C2583 1.481 . S
C2586 N2589 1.327 . S
C2586 C2590 1.407 . S
C2587 C2588 1.346 . S
C2587 C2591 1.390 . S
C2587 H2655 0.930 . S
C2588 C2587 1.346 . S
C2588 N2589 1.342 . S
C2588 C2593 1.516 . S
N2589 C2586 1.327 . S
N2589 C2588 1.342 . S
N2589 Co2592 1.864 . S
C2590 C2586 1.407 . S
C2590 C2591 1.364 . S
C2590 H2656 0.930 . S
C2591 C2587 1.390 . S
C2591 C2590 1.364 . S
C2591 H2657 0.931 . S
Co2592 N2589 1.864 . S
Co2592 N2608 1.955 . S
Co2592 N2609 1.958 . S
Co2592 N2610 1.953 . S
Co2592 N2628 1.869 . S
Co2592 N2634 1.974 . S
C2593 C2588 1.516 . S
C2593 O2594 1.238 . S
C2593 N2609 1.324 . S
O2594 C2593 1.238 . S
C2595 C2596 1.394 . S
C2595 C2600 1.395 . S
C2595 N2609 1.427 . S
C2596 C2595 1.394 . S
C2596 C2597 1.380 . S
C2596 H2658 0.929 . S
C2597 C2596 1.380 . S
C2597 C2598 1.384 . S
C2597 C2601 1.495 . S
C2598 C2597 1.384 . S
C2598 C2599 1.382 . S
C2598 H2659 0.930 . S
C2599 C2598 1.382 . S
C2599 C2600 1.398 . S
C2600 C2595 1.395 . S
C2600 C2599 1.398 . S
C2600 H2660 0.930 . S
C2601 C2597 1.495 . S
C2601 O2648 1.258 . S
C2601 O2649 1.274 . S
C2602 C2603 1.385 . S
C2602 C2604 1.381 . S
C2602 N2608 1.432 . S
C2603 C2602 1.385 . S
C2603 C2607 1.388 . S
C2603 H2661 0.929 . S
C2604 C2602 1.381 . S
C2604 C2605 1.371 . S
C2604 H2662 0.932 . S
C2605 C2604 1.371 . S
C2605 C2606 1.400 . S
C2606 C2605 1.400 . S
C2606 C2607 1.351 . S
C2606 H2663 0.930 . S
C2607 C2603 1.388 . S
C2607 C2606 1.351 . S
N2608 C2583 1.329 . S
N2608 Co2592 1.955 . S
N2608 C2602 1.432 . S
N2609 Co2592 1.958 . S
N2609 C2593 1.324 . S
N2609 C2595 1.427 . S
N2610 Co2592 1.953 . S
N2610 C2611 1.436 . S
N2610 C2637 1.316 . S
C2611 N2610 1.436 . S
C2611 C2612 1.421 . S
C2611 C2613 1.360 . S
C2612 C2611 1.421 . S
C2612 C2614 1.379 . S
C2612 H2615 0.929 . S
C2613 C2611 1.360 . S
C2613 C2617 1.393 . S
C2613 H2619 0.931 . S
C2614 C2612 1.379 . S
C2614 C2616 1.417 . S
C2614 C2618 1.505 . S
H2615 C2612 0.929 . S
C2616 C2614 1.417 . S
C2616 C2617 1.352 . S
C2616 H2620 0.929 . S
C2617 C2613 1.393 . S
C2617 C2616 1.352 . S
C2617 C2621 1.482 . S
C2618 C2614 1.505 . S
C2618 O2622 1.259 . S
C2618 O2623 1.229 . S
H2619 C2613 0.931 . S
H2620 C2616 0.929 . S
C2621 C2617 1.482 . S
C2621 O2624 1.207 . S
C2621 O2625 1.289 . S
O2622 C2618 1.259 . S
O2622 H2626 0.822 . S
O2623 C2618 1.229 . S
O2624 C2621 1.207 . S
O2625 C2621 1.289 . S
O2625 H2627 0.819 . S
H2626 O2622 0.822 . S
H2627 O2625 0.819 . S
N2628 Co2592 1.869 . S
N2628 C2629 1.330 . S
N2628 C2633 1.325 . S
C2629 N2628 1.330 . S
C2629 C2630 1.359 . S
C2629 C2635 1.504 . S
C2630 C2629 1.359 . S
C2630 C2631 1.366 . S
C2630 H2664 0.929 . S
C2631 C2630 1.366 . S
C2631 C2632 1.415 . S
C2631 H2665 0.932 . S
C2632 C2631 1.415 . S
C2632 C2633 1.366 . S
C2632 H2666 0.931 . S
C2633 N2628 1.325 . S
C2633 C2632 1.366 . S
C2633 C2637 1.516 . S
N2634 Co2592 1.974 . S
N2634 C2635 1.309 . S
N2634 C2640 1.423 . S
C2635 C2629 1.504 . S
C2635 N2634 1.309 . S
C2635 O2636 1.258 . S
O2636 C2635 1.258 . S
C2637 N2610 1.316 . S
C2637 C2633 1.516 . S
C2637 O2650 1.263 . S
O2638 Cd2581 2.350 . S
O2638 C2654 1.270 . S
O2639 Cd2581 2.277 . S
O2639 C2654 1.248 . S
C2640 N2634 1.423 . S
C2640 C2641 1.370 1_554 S
C2640 C2645 1.403 . S
C2641 C2640 1.370 1_556 S
C2641 C2642 1.389 . S
C2641 H2667 0.931 1_556 S
C2642 C2641 1.389 . S
C2642 C2643 1.389 . S
C2643 C2642 1.389 . S
C2643 C2644 1.379 . S
C2643 H2668 0.929 . S
C2644 C2643 1.379 . S
C2644 C2645 1.405 1_556 S
C2645 C2640 1.403 . S
C2645 C2644 1.405 1_554 S
C2645 H2669 0.932 . S
O2646 Cd2581 2.173 . S
O2646 C2582 1.277 . S
O2647 C2582 1.230 . S
O2647 Cd2585 2.250 . S
O2648 Cd2581 2.263 . S
O2648 C2601 1.258 . S
O2649 Cd2585 2.308 . S
O2649 C2601 1.274 . S
O2650 Cd2581 2.366 . S
O2650 C2637 1.263 . S
C2651 O2652 1.235 . S
C2651 O2653 1.270 . S
O2652 Cd2585 2.352 . S
O2652 C2651 1.235 . S
O2653 Cd2581 2.329 . S
O2653 C2651 1.270 . S
C2654 O2638 1.270 . S
C2654 O2639 1.248 . S
H2655 C2587 0.930 . S
H2656 C2590 0.930 . S
H2657 C2591 0.931 . S
H2658 C2596 0.929 . S
H2659 C2598 0.930 . S
H2660 C2600 0.930 . S
H2661 C2603 0.929 . S
H2662 C2604 0.932 . S
H2663 C2606 0.930 . S
H2664 C2630 0.929 . S
H2665 C2631 0.932 . S
H2666 C2632 0.931 . S
H2667 C2641 0.931 1_554 S
H2668 C2643 0.929 . S
H2669 C2645 0.932 . S
Cd2670 O2727 2.350 . S
Cd2670 O2728 2.277 . S
Cd2670 O2735 2.173 . S
Cd2670 O2737 2.263 . S
Cd2670 O2739 2.366 . S
Cd2670 O2742 2.329 . S
C2671 O2735 1.277 . S
C2671 O2736 1.230 . S
C2672 O2673 1.246 . S
C2672 C2675 1.481 . S
C2672 N2697 1.329 . S
O2673 C2672 1.246 . S
Cd2674 O2736 2.250 . S
Cd2674 O2738 2.308 . S
Cd2674 O2741 2.352 . S
C2675 C2672 1.481 . S
C2675 N2678 1.327 . S
C2675 C2679 1.407 . S
C2676 C2677 1.346 . S
C2676 C2680 1.390 . S
C2676 H2744 0.930 . S
C2677 C2676 1.346 . S
C2677 N2678 1.342 . S
C2677 C2682 1.516 . S
N2678 C2675 1.327 . S
N2678 C2677 1.342 . S
N2678 Co2681 1.864 . S
C2679 C2675 1.407 . S
C2679 C2680 1.364 . S
C2679 H2745 0.930 . S
C2680 C2676 1.390 . S
C2680 C2679 1.364 . S
C2680 H2746 0.931 . S
Co2681 N2678 1.864 . S
Co2681 N2697 1.955 . S
Co2681 N2698 1.958 . S
Co2681 N2699 1.953 . S
Co2681 N2717 1.869 . S
Co2681 N2723 1.974 . S
C2682 C2677 1.516 . S
C2682 O2683 1.238 . S
C2682 N2698 1.324 . S
O2683 C2682 1.238 . S
C2684 C2685 1.394 . S
C2684 C2689 1.395 . S
C2684 N2698 1.427 . S
C2685 C2684 1.394 . S
C2685 C2686 1.380 . S
C2685 H2747 0.929 . S
C2686 C2685 1.380 . S
C2686 C2687 1.384 . S
C2686 C2690 1.495 . S
C2687 C2686 1.384 . S
C2687 C2688 1.382 . S
C2687 H2748 0.930 . S
C2688 C2687 1.382 . S
C2688 C2689 1.398 . S
C2689 C2684 1.395 . S
C2689 C2688 1.398 . S
C2689 H2749 0.930 . S
C2690 C2686 1.495 . S
C2690 O2737 1.258 . S
C2690 O2738 1.274 . S
C2691 C2692 1.385 . S
C2691 C2693 1.381 . S
C2691 N2697 1.432 . S
C2692 C2691 1.385 . S
C2692 C2696 1.388 . S
C2692 H2750 0.929 . S
C2693 C2691 1.381 . S
C2693 C2694 1.371 . S
C2693 H2751 0.932 . S
C2694 C2693 1.371 . S
C2694 C2695 1.400 . S
C2695 C2694 1.400 . S
C2695 C2696 1.351 . S
C2695 H2752 0.930 . S
C2696 C2692 1.388 . S
C2696 C2695 1.351 . S
N2697 C2672 1.329 . S
N2697 Co2681 1.955 . S
N2697 C2691 1.432 . S
N2698 Co2681 1.958 . S
N2698 C2682 1.324 . S
N2698 C2684 1.427 . S
N2699 Co2681 1.953 . S
N2699 C2700 1.436 . S
N2699 C2726 1.316 . S
C2700 N2699 1.436 . S
C2700 C2701 1.421 . S
C2700 C2702 1.360 . S
C2701 C2700 1.421 . S
C2701 C2703 1.379 . S
C2701 H2704 0.929 . S
C2702 C2700 1.360 . S
C2702 C2706 1.393 . S
C2702 H2708 0.931 . S
C2703 C2701 1.379 . S
C2703 C2705 1.417 . S
C2703 C2707 1.505 . S
H2704 C2701 0.929 . S
C2705 C2703 1.417 . S
C2705 C2706 1.352 . S
C2705 H2709 0.929 . S
C2706 C2702 1.393 . S
C2706 C2705 1.352 . S
C2706 C2710 1.482 . S
C2707 C2703 1.505 . S
C2707 O2711 1.259 . S
C2707 O2712 1.229 . S
H2708 C2702 0.931 . S
H2709 C2705 0.929 . S
C2710 C2706 1.482 . S
C2710 O2713 1.207 . S
C2710 O2714 1.289 . S
O2711 C2707 1.259 . S
O2711 H2715 0.822 . S
O2712 C2707 1.229 . S
O2713 C2710 1.207 . S
O2714 C2710 1.289 . S
O2714 H2716 0.819 . S
H2715 O2711 0.822 . S
H2716 O2714 0.819 . S
N2717 Co2681 1.869 . S
N2717 C2718 1.330 . S
N2717 C2722 1.325 . S
C2718 N2717 1.330 . S
C2718 C2719 1.359 . S
C2718 C2724 1.504 . S
C2719 C2718 1.359 . S
C2719 C2720 1.366 . S
C2719 H2753 0.929 . S
C2720 C2719 1.366 . S
C2720 C2721 1.415 . S
C2720 H2754 0.932 . S
C2721 C2720 1.415 . S
C2721 C2722 1.366 . S
C2721 H2755 0.931 . S
C2722 N2717 1.325 . S
C2722 C2721 1.366 . S
C2722 C2726 1.516 . S
N2723 Co2681 1.974 . S
N2723 C2724 1.309 . S
N2723 C2729 1.423 . S
C2724 C2718 1.504 . S
C2724 N2723 1.309 . S
C2724 O2725 1.258 . S
O2725 C2724 1.258 . S
C2726 N2699 1.316 . S
C2726 C2722 1.516 . S
C2726 O2739 1.263 . S
O2727 Cd2670 2.350 . S
O2727 C2743 1.270 . S
O2728 Cd2670 2.277 . S
O2728 C2743 1.248 . S
C2729 N2723 1.423 . S
C2729 C2730 1.370 . S
C2729 C2734 1.403 . S
C2730 C2729 1.370 . S
C2730 C2731 1.389 . S
C2730 H2756 0.931 . S
C2731 C2730 1.389 . S
C2731 C2732 1.389 . S
C2732 C2731 1.389 . S
C2732 C2733 1.379 . S
C2732 H2757 0.929 . S
C2733 C2732 1.379 . S
C2733 C2734 1.405 . S
C2734 C2729 1.403 . S
C2734 C2733 1.405 . S
C2734 H2758 0.932 . S
O2735 Cd2670 2.173 . S
O2735 C2671 1.277 . S
O2736 C2671 1.230 . S
O2736 Cd2674 2.250 . S
O2737 Cd2670 2.263 . S
O2737 C2690 1.258 . S
O2738 Cd2674 2.308 . S
O2738 C2690 1.274 . S
O2739 Cd2670 2.366 . S
O2739 C2726 1.263 . S
C2740 O2741 1.235 . S
C2740 O2742 1.270 . S
O2741 Cd2674 2.352 . S
O2741 C2740 1.235 . S
O2742 Cd2670 2.329 . S
O2742 C2740 1.270 . S
C2743 O2727 1.270 . S
C2743 O2728 1.248 . S
H2744 C2676 0.930 . S
H2745 C2679 0.930 . S
H2746 C2680 0.931 . S
H2747 C2685 0.929 . S
H2748 C2687 0.930 . S
H2749 C2689 0.930 . S
H2750 C2692 0.929 . S
H2751 C2693 0.932 . S
H2752 C2695 0.930 . S
H2753 C2719 0.929 . S
H2754 C2720 0.932 . S
H2755 C2721 0.931 . S
H2756 C2730 0.931 . S
H2757 C2732 0.929 . S
H2758 C2734 0.932 . S
Cd2759 O2816 2.350 . S
Cd2759 O2817 2.277 . S
Cd2759 O2824 2.173 . S
Cd2759 O2826 2.263 . S
Cd2759 O2828 2.366 . S
Cd2759 O2831 2.329 . S
C2760 O2824 1.277 . S
C2760 O2825 1.230 . S
C2761 O2762 1.246 . S
C2761 C2764 1.481 . S
C2761 N2786 1.329 . S
O2762 C2761 1.246 . S
Cd2763 O2825 2.250 . S
Cd2763 O2827 2.308 . S
Cd2763 O2830 2.352 . S
C2764 C2761 1.481 . S
C2764 N2767 1.327 . S
C2764 C2768 1.407 . S
C2765 C2766 1.346 . S
C2765 C2769 1.390 . S
C2765 H2833 0.930 . S
C2766 C2765 1.346 . S
C2766 N2767 1.342 . S
C2766 C2771 1.516 . S
N2767 C2764 1.327 . S
N2767 C2766 1.342 . S
N2767 Co2770 1.864 . S
C2768 C2764 1.407 . S
C2768 C2769 1.364 . S
C2768 H2834 0.930 . S
C2769 C2765 1.390 . S
C2769 C2768 1.364 . S
C2769 H2835 0.931 . S
Co2770 N2767 1.864 . S
Co2770 N2786 1.955 . S
Co2770 N2787 1.958 . S
Co2770 N2788 1.953 . S
Co2770 N2806 1.869 . S
Co2770 N2812 1.974 . S
C2771 C2766 1.516 . S
C2771 O2772 1.238 . S
C2771 N2787 1.324 . S
O2772 C2771 1.238 . S
C2773 C2774 1.394 . S
C2773 C2778 1.395 . S
C2773 N2787 1.427 . S
C2774 C2773 1.394 . S
C2774 C2775 1.380 . S
C2774 H2836 0.929 . S
C2775 C2774 1.380 . S
C2775 C2776 1.384 . S
C2775 C2779 1.495 . S
C2776 C2775 1.384 . S
C2776 C2777 1.382 . S
C2776 H2837 0.930 . S
C2777 C2776 1.382 . S
C2777 C2778 1.398 . S
C2778 C2773 1.395 . S
C2778 C2777 1.398 . S
C2778 H2838 0.930 . S
C2779 C2775 1.495 . S
C2779 O2826 1.258 . S
C2779 O2827 1.274 . S
C2780 C2781 1.385 . S
C2780 C2782 1.381 . S
C2780 N2786 1.432 . S
C2781 C2780 1.385 . S
C2781 C2785 1.388 . S
C2781 H2839 0.929 . S
C2782 C2780 1.381 . S
C2782 C2783 1.371 . S
C2782 H2840 0.932 . S
C2783 C2782 1.371 . S
C2783 C2784 1.400 . S
C2784 C2783 1.400 . S
C2784 C2785 1.351 . S
C2784 H2841 0.930 . S
C2785 C2781 1.388 . S
C2785 C2784 1.351 . S
N2786 C2761 1.329 . S
N2786 Co2770 1.955 . S
N2786 C2780 1.432 . S
N2787 Co2770 1.958 . S
N2787 C2771 1.324 . S
N2787 C2773 1.427 . S
N2788 Co2770 1.953 . S
N2788 C2789 1.436 . S
N2788 C2815 1.316 . S
C2789 N2788 1.436 . S
C2789 C2790 1.421 . S
C2789 C2791 1.360 . S
C2790 C2789 1.421 . S
C2790 C2792 1.379 . S
C2790 H2793 0.929 . S
C2791 C2789 1.360 . S
C2791 C2795 1.393 . S
C2791 H2797 0.931 . S
C2792 C2790 1.379 . S
C2792 C2794 1.417 . S
C2792 C2796 1.505 . S
H2793 C2790 0.929 . S
C2794 C2792 1.417 . S
C2794 C2795 1.352 . S
C2794 H2798 0.929 . S
C2795 C2791 1.393 . S
C2795 C2794 1.352 . S
C2795 C2799 1.482 . S
C2796 C2792 1.505 . S
C2796 O2800 1.259 . S
C2796 O2801 1.229 . S
H2797 C2791 0.931 . S
H2798 C2794 0.929 . S
C2799 C2795 1.482 . S
C2799 O2802 1.207 . S
C2799 O2803 1.289 . S
O2800 C2796 1.259 . S
O2800 H2804 0.822 . S
O2801 C2796 1.229 . S
O2802 C2799 1.207 . S
O2803 C2799 1.289 . S
O2803 H2805 0.819 . S
H2804 O2800 0.822 . S
H2805 O2803 0.819 . S
N2806 Co2770 1.869 . S
N2806 C2807 1.330 . S
N2806 C2811 1.325 . S
C2807 N2806 1.330 . S
C2807 C2808 1.359 . S
C2807 C2813 1.504 . S
C2808 C2807 1.359 . S
C2808 C2809 1.366 . S
C2808 H2842 0.929 . S
C2809 C2808 1.366 . S
C2809 C2810 1.415 . S
C2809 H2843 0.932 . S
C2810 C2809 1.415 . S
C2810 C2811 1.366 . S
C2810 H2844 0.931 . S
C2811 N2806 1.325 . S
C2811 C2810 1.366 . S
C2811 C2815 1.516 . S
N2812 Co2770 1.974 . S
N2812 C2813 1.309 . S
N2812 C2818 1.423 . S
C2813 C2807 1.504 . S
C2813 N2812 1.309 . S
C2813 O2814 1.258 . S
O2814 C2813 1.258 . S
C2815 N2788 1.316 . S
C2815 C2811 1.516 . S
C2815 O2828 1.263 . S
O2816 Cd2759 2.350 . S
O2816 C2832 1.270 . S
O2817 Cd2759 2.277 . S
O2817 C2832 1.248 . S
C2818 N2812 1.423 . S
C2818 C2819 1.370 . S
C2818 C2823 1.403 . S
C2819 C2818 1.370 . S
C2819 C2820 1.389 . S
C2819 H2845 0.931 . S
C2820 C2819 1.389 . S
C2820 C2821 1.389 . S
C2821 C2820 1.389 . S
C2821 C2822 1.379 . S
C2821 H2846 0.929 . S
C2822 C2821 1.379 . S
C2822 C2823 1.405 . S
C2823 C2818 1.403 . S
C2823 C2822 1.405 . S
C2823 H2847 0.932 . S
O2824 Cd2759 2.173 . S
O2824 C2760 1.277 . S
O2825 C2760 1.230 . S
O2825 Cd2763 2.250 . S
O2826 Cd2759 2.263 . S
O2826 C2779 1.258 . S
O2827 Cd2763 2.308 . S
O2827 C2779 1.274 . S
O2828 Cd2759 2.366 . S
O2828 C2815 1.263 . S
C2829 O2830 1.235 . S
C2829 O2831 1.270 . S
O2830 Cd2763 2.352 . S
O2830 C2829 1.235 . S
O2831 Cd2759 2.329 . S
O2831 C2829 1.270 . S
C2832 O2816 1.270 . S
C2832 O2817 1.248 . S
H2833 C2765 0.930 . S
H2834 C2768 0.930 . S
H2835 C2769 0.931 . S
H2836 C2774 0.929 . S
H2837 C2776 0.930 . S
H2838 C2778 0.930 . S
H2839 C2781 0.929 . S
H2840 C2782 0.932 . S
H2841 C2784 0.930 . S
H2842 C2808 0.929 . S
H2843 C2809 0.932 . S
H2844 C2810 0.931 . S
H2845 C2819 0.931 . S
H2846 C2821 0.929 . S
H2847 C2823 0.932 . S
Cd2848 O2905 2.350 . S
Cd2848 O2906 2.277 . S
Cd2848 O2913 2.173 . S
Cd2848 O2915 2.263 . S
Cd2848 O2917 2.366 . S
Cd2848 O2920 2.329 . S
C2849 O2913 1.277 . S
C2849 O2914 1.230 . S
C2850 O2851 1.246 . S
C2850 C2853 1.481 . S
C2850 N2875 1.329 . S
O2851 C2850 1.246 . S
Cd2852 O2914 2.250 . S
Cd2852 O2916 2.308 . S
Cd2852 O2919 2.352 . S
C2853 C2850 1.481 . S
C2853 N2856 1.327 . S
C2853 C2857 1.407 . S
C2854 C2855 1.346 . S
C2854 C2858 1.390 . S
C2854 H2922 0.930 . S
C2855 C2854 1.346 . S
C2855 N2856 1.342 . S
C2855 C2860 1.516 . S
N2856 C2853 1.327 . S
N2856 C2855 1.342 . S
N2856 Co2859 1.864 . S
C2857 C2853 1.407 . S
C2857 C2858 1.364 . S
C2857 H2923 0.930 . S
C2858 C2854 1.390 . S
C2858 C2857 1.364 . S
C2858 H2924 0.931 . S
Co2859 N2856 1.864 . S
Co2859 N2875 1.955 . S
Co2859 N2876 1.958 . S
Co2859 N2877 1.953 . S
Co2859 N2895 1.869 . S
Co2859 N2901 1.974 . S
C2860 C2855 1.516 . S
C2860 O2861 1.238 . S
C2860 N2876 1.324 . S
O2861 C2860 1.238 . S
C2862 C2863 1.394 . S
C2862 C2867 1.395 . S
C2862 N2876 1.427 . S
C2863 C2862 1.394 . S
C2863 C2864 1.380 . S
C2863 H2925 0.929 . S
C2864 C2863 1.380 . S
C2864 C2865 1.384 . S
C2864 C2868 1.495 . S
C2865 C2864 1.384 . S
C2865 C2866 1.382 . S
C2865 H2926 0.930 . S
C2866 C2865 1.382 . S
C2866 C2867 1.398 . S
C2867 C2862 1.395 . S
C2867 C2866 1.398 . S
C2867 H2927 0.930 . S
C2868 C2864 1.495 . S
C2868 O2915 1.258 . S
C2868 O2916 1.274 . S
C2869 C2870 1.385 . S
C2869 C2871 1.381 . S
C2869 N2875 1.432 . S
C2870 C2869 1.385 . S
C2870 C2874 1.388 . S
C2870 H2928 0.929 . S
C2871 C2869 1.381 . S
C2871 C2872 1.371 . S
C2871 H2929 0.932 . S
C2872 C2871 1.371 . S
C2872 C2873 1.400 . S
C2873 C2872 1.400 . S
C2873 C2874 1.351 . S
C2873 H2930 0.930 . S
C2874 C2870 1.388 . S
C2874 C2873 1.351 . S
N2875 C2850 1.329 . S
N2875 Co2859 1.955 . S
N2875 C2869 1.432 . S
N2876 Co2859 1.958 . S
N2876 C2860 1.324 . S
N2876 C2862 1.427 . S
N2877 Co2859 1.953 . S
N2877 C2878 1.436 . S
N2877 C2904 1.316 . S
C2878 N2877 1.436 . S
C2878 C2879 1.421 . S
C2878 C2880 1.360 . S
C2879 C2878 1.421 . S
C2879 C2881 1.379 . S
C2879 H2882 0.929 . S
C2880 C2878 1.360 . S
C2880 C2884 1.393 . S
C2880 H2886 0.931 . S
C2881 C2879 1.379 . S
C2881 C2883 1.417 . S
C2881 C2885 1.505 . S
H2882 C2879 0.929 . S
C2883 C2881 1.417 . S
C2883 C2884 1.352 . S
C2883 H2887 0.929 . S
C2884 C2880 1.393 . S
C2884 C2883 1.352 . S
C2884 C2888 1.482 . S
C2885 C2881 1.505 . S
C2885 O2889 1.259 . S
C2885 O2890 1.229 . S
H2886 C2880 0.931 . S
H2887 C2883 0.929 . S
C2888 C2884 1.482 . S
C2888 O2891 1.207 . S
C2888 O2892 1.289 . S
O2889 C2885 1.259 . S
O2889 H2893 0.822 . S
O2890 C2885 1.229 . S
O2891 C2888 1.207 . S
O2892 C2888 1.289 . S
O2892 H2894 0.819 . S
H2893 O2889 0.822 . S
H2894 O2892 0.819 . S
N2895 Co2859 1.869 . S
N2895 C2896 1.330 . S
N2895 C2900 1.325 . S
C2896 N2895 1.330 . S
C2896 C2897 1.359 . S
C2896 C2902 1.504 . S
C2897 C2896 1.359 . S
C2897 C2898 1.366 . S
C2897 H2931 0.929 . S
C2898 C2897 1.366 . S
C2898 C2899 1.415 . S
C2898 H2932 0.932 . S
C2899 C2898 1.415 . S
C2899 C2900 1.366 . S
C2899 H2933 0.931 . S
C2900 N2895 1.325 . S
C2900 C2899 1.366 . S
C2900 C2904 1.516 . S
N2901 Co2859 1.974 . S
N2901 C2902 1.309 . S
N2901 C2907 1.423 . S
C2902 C2896 1.504 . S
C2902 N2901 1.309 . S
C2902 O2903 1.258 . S
O2903 C2902 1.258 . S
C2904 N2877 1.316 . S
C2904 C2900 1.516 . S
C2904 O2917 1.263 . S
O2905 Cd2848 2.350 . S
O2905 C2921 1.270 . S
O2906 Cd2848 2.277 . S
O2906 C2921 1.248 . S
C2907 N2901 1.423 . S
C2907 C2908 1.370 . S
C2907 C2912 1.403 . S
C2908 C2907 1.370 . S
C2908 C2909 1.389 . S
C2908 H2934 0.931 . S
C2909 C2908 1.389 . S
C2909 C2910 1.389 . S
C2910 C2909 1.389 . S
C2910 C2911 1.379 . S
C2910 H2935 0.929 . S
C2911 C2910 1.379 . S
C2911 C2912 1.405 . S
C2912 C2907 1.403 . S
C2912 C2911 1.405 . S
C2912 H2936 0.932 . S
O2913 Cd2848 2.173 . S
O2913 C2849 1.277 . S
O2914 C2849 1.230 . S
O2914 Cd2852 2.250 . S
O2915 Cd2848 2.263 . S
O2915 C2868 1.258 . S
O2916 Cd2852 2.308 . S
O2916 C2868 1.274 . S
O2917 Cd2848 2.366 . S
O2917 C2904 1.263 . S
C2918 O2919 1.235 . S
C2918 O2920 1.270 . S
O2919 Cd2852 2.352 . S
O2919 C2918 1.235 . S
O2920 Cd2848 2.329 . S
O2920 C2918 1.270 . S
C2921 O2905 1.270 . S
C2921 O2906 1.248 . S
H2922 C2854 0.930 . S
H2923 C2857 0.930 . S
H2924 C2858 0.931 . S
H2925 C2863 0.929 . S
H2926 C2865 0.930 . S
H2927 C2867 0.930 . S
H2928 C2870 0.929 . S
H2929 C2871 0.932 . S
H2930 C2873 0.930 . S
H2931 C2897 0.929 . S
H2932 C2898 0.932 . S
H2933 C2899 0.931 . S
H2934 C2908 0.931 . S
H2935 C2910 0.929 . S
H2936 C2912 0.932 . S
Cd2937 O2994 2.350 . S
Cd2937 O2995 2.277 . S
Cd2937 O3002 2.173 . S
Cd2937 O3004 2.263 . S
Cd2937 O3006 2.366 . S
Cd2937 O3009 2.329 . S
C2938 O3002 1.277 . S
C2938 O3003 1.230 . S
C2939 O2940 1.246 . S
C2939 C2942 1.481 . S
C2939 N2964 1.329 . S
O2940 C2939 1.246 . S
Cd2941 O3003 2.250 . S
Cd2941 O3005 2.308 . S
Cd2941 O3008 2.352 . S
C2942 C2939 1.481 . S
C2942 N2945 1.327 . S
C2942 C2946 1.407 . S
C2943 C2944 1.346 . S
C2943 C2947 1.390 . S
C2943 H3011 0.930 . S
C2944 C2943 1.346 . S
C2944 N2945 1.342 . S
C2944 C2949 1.516 . S
N2945 C2942 1.327 . S
N2945 C2944 1.342 . S
N2945 Co2948 1.864 . S
C2946 C2942 1.407 . S
C2946 C2947 1.364 . S
C2946 H3012 0.930 . S
C2947 C2943 1.390 . S
C2947 C2946 1.364 . S
C2947 H3013 0.931 . S
Co2948 N2945 1.864 . S
Co2948 N2964 1.955 . S
Co2948 N2965 1.958 . S
Co2948 N2966 1.953 . S
Co2948 N2984 1.869 . S
Co2948 N2990 1.974 . S
C2949 C2944 1.516 . S
C2949 O2950 1.238 . S
C2949 N2965 1.324 . S
O2950 C2949 1.238 . S
C2951 C2952 1.394 . S
C2951 C2956 1.395 . S
C2951 N2965 1.427 . S
C2952 C2951 1.394 . S
C2952 C2953 1.380 . S
C2952 H3014 0.929 . S
C2953 C2952 1.380 . S
C2953 C2954 1.384 . S
C2953 C2957 1.495 . S
C2954 C2953 1.384 . S
C2954 C2955 1.382 . S
C2954 H3015 0.930 . S
C2955 C2954 1.382 . S
C2955 C2956 1.398 . S
C2956 C2951 1.395 . S
C2956 C2955 1.398 . S
C2956 H3016 0.930 . S
C2957 C2953 1.495 . S
C2957 O3004 1.258 . S
C2957 O3005 1.274 . S
C2958 C2959 1.385 . S
C2958 C2960 1.381 . S
C2958 N2964 1.432 . S
C2959 C2958 1.385 . S
C2959 C2963 1.388 . S
C2959 H3017 0.929 . S
C2960 C2958 1.381 . S
C2960 C2961 1.371 . S
C2960 H3018 0.932 . S
C2961 C2960 1.371 . S
C2961 C2962 1.400 . S
C2962 C2961 1.400 . S
C2962 C2963 1.351 . S
C2962 H3019 0.930 . S
C2963 C2959 1.388 . S
C2963 C2962 1.351 . S
N2964 C2939 1.329 . S
N2964 Co2948 1.955 . S
N2964 C2958 1.432 . S
N2965 Co2948 1.958 . S
N2965 C2949 1.324 . S
N2965 C2951 1.427 . S
N2966 Co2948 1.953 . S
N2966 C2967 1.436 . S
N2966 C2993 1.316 . S
C2967 N2966 1.436 . S
C2967 C2968 1.421 . S
C2967 C2969 1.360 . S
C2968 C2967 1.421 . S
C2968 C2970 1.379 . S
C2968 H2971 0.929 . S
C2969 C2967 1.360 . S
C2969 C2973 1.393 . S
C2969 H2975 0.931 . S
C2970 C2968 1.379 . S
C2970 C2972 1.417 . S
C2970 C2974 1.505 . S
H2971 C2968 0.929 . S
C2972 C2970 1.417 . S
C2972 C2973 1.352 . S
C2972 H2976 0.929 . S
C2973 C2969 1.393 . S
C2973 C2972 1.352 . S
C2973 C2977 1.482 . S
C2974 C2970 1.505 . S
C2974 O2978 1.259 . S
C2974 O2979 1.229 . S
H2975 C2969 0.931 . S
H2976 C2972 0.929 . S
C2977 C2973 1.482 . S
C2977 O2980 1.207 . S
C2977 O2981 1.289 . S
O2978 C2974 1.259 . S
O2978 H2982 0.822 . S
O2979 C2974 1.229 . S
O2980 C2977 1.207 . S
O2981 C2977 1.289 . S
O2981 H2983 0.819 . S
H2982 O2978 0.822 . S
H2983 O2981 0.819 . S
N2984 Co2948 1.869 . S
N2984 C2985 1.330 . S
N2984 C2989 1.325 . S
C2985 N2984 1.330 . S
C2985 C2986 1.359 . S
C2985 C2991 1.504 . S
C2986 C2985 1.359 . S
C2986 C2987 1.366 . S
C2986 H3020 0.929 . S
C2987 C2986 1.366 . S
C2987 C2988 1.415 . S
C2987 H3021 0.932 . S
C2988 C2987 1.415 . S
C2988 C2989 1.366 . S
C2988 H3022 0.931 . S
C2989 N2984 1.325 . S
C2989 C2988 1.366 . S
C2989 C2993 1.516 . S
N2990 Co2948 1.974 . S
N2990 C2991 1.309 . S
N2990 C2996 1.423 . S
C2991 C2985 1.504 . S
C2991 N2990 1.309 . S
C2991 O2992 1.258 . S
O2992 C2991 1.258 . S
C2993 N2966 1.316 . S
C2993 C2989 1.516 . S
C2993 O3006 1.263 . S
O2994 Cd2937 2.350 . S
O2994 C3010 1.270 . S
O2995 Cd2937 2.277 . S
O2995 C3010 1.248 . S
C2996 N2990 1.423 . S
C2996 C2997 1.370 . S
C2996 C3001 1.403 . S
C2997 C2996 1.370 . S
C2997 C2998 1.389 . S
C2997 H3023 0.931 . S
C2998 C2997 1.389 . S
C2998 C2999 1.389 . S
C2999 C2998 1.389 . S
C2999 C3000 1.379 . S
C2999 H3024 0.929 . S
C3000 C2999 1.379 . S
C3000 C3001 1.405 . S
C3001 C2996 1.403 . S
C3001 C3000 1.405 . S
C3001 H3025 0.932 . S
O3002 Cd2937 2.173 . S
O3002 C2938 1.277 . S
O3003 C2938 1.230 . S
O3003 Cd2941 2.250 . S
O3004 Cd2937 2.263 . S
O3004 C2957 1.258 . S
O3005 Cd2941 2.308 . S
O3005 C2957 1.274 . S
O3006 Cd2937 2.366 . S
O3006 C2993 1.263 . S
C3007 O3008 1.235 . S
C3007 O3009 1.270 . S
O3008 Cd2941 2.352 . S
O3008 C3007 1.235 . S
O3009 Cd2937 2.329 . S
O3009 C3007 1.270 . S
C3010 O2994 1.270 . S
C3010 O2995 1.248 . S
H3011 C2943 0.930 . S
H3012 C2946 0.930 . S
H3013 C2947 0.931 . S
H3014 C2952 0.929 . S
H3015 C2954 0.930 . S
H3016 C2956 0.930 . S
H3017 C2959 0.929 . S
H3018 C2960 0.932 . S
H3019 C2962 0.930 . S
H3020 C2986 0.929 . S
H3021 C2987 0.932 . S
H3022 C2988 0.931 . S
H3023 C2997 0.931 . S
H3024 C2999 0.929 . S
H3025 C3001 0.932 . S
Cd3026 O3083 2.350 . S
Cd3026 O3084 2.277 . S
Cd3026 O3091 2.173 . S
Cd3026 O3093 2.263 . S
Cd3026 O3095 2.366 . S
Cd3026 O3098 2.329 . S
C3027 O3091 1.277 . S
C3027 O3092 1.230 . S
C3028 O3029 1.246 . S
C3028 C3031 1.481 . S
C3028 N3053 1.329 . S
O3029 C3028 1.246 . S
Cd3030 O3092 2.250 . S
Cd3030 O3094 2.308 . S
Cd3030 O3097 2.352 . S
C3031 C3028 1.481 . S
C3031 N3034 1.327 . S
C3031 C3035 1.407 . S
C3032 C3033 1.346 . S
C3032 C3036 1.390 . S
C3032 H3100 0.930 . S
C3033 C3032 1.346 . S
C3033 N3034 1.342 . S
C3033 C3038 1.516 . S
N3034 C3031 1.327 . S
N3034 C3033 1.342 . S
N3034 Co3037 1.864 . S
C3035 C3031 1.407 . S
C3035 C3036 1.364 . S
C3035 H3101 0.930 . S
C3036 C3032 1.390 . S
C3036 C3035 1.364 . S
C3036 H3102 0.931 . S
Co3037 N3034 1.864 . S
Co3037 N3053 1.955 . S
Co3037 N3054 1.958 . S
Co3037 N3055 1.953 . S
Co3037 N3073 1.869 . S
Co3037 N3079 1.974 . S
C3038 C3033 1.516 . S
C3038 O3039 1.238 . S
C3038 N3054 1.324 . S
O3039 C3038 1.238 . S
C3040 C3041 1.394 . S
C3040 C3045 1.395 . S
C3040 N3054 1.427 . S
C3041 C3040 1.394 . S
C3041 C3042 1.380 . S
C3041 H3103 0.929 . S
C3042 C3041 1.380 . S
C3042 C3043 1.384 . S
C3042 C3046 1.495 . S
C3043 C3042 1.384 . S
C3043 C3044 1.382 . S
C3043 H3104 0.930 . S
C3044 C3043 1.382 . S
C3044 C3045 1.398 . S
C3045 C3040 1.395 . S
C3045 C3044 1.398 . S
C3045 H3105 0.930 . S
C3046 C3042 1.495 . S
C3046 O3093 1.258 . S
C3046 O3094 1.274 . S
C3047 C3048 1.385 . S
C3047 C3049 1.381 . S
C3047 N3053 1.432 . S
C3048 C3047 1.385 . S
C3048 C3052 1.388 . S
C3048 H3106 0.929 . S
C3049 C3047 1.381 . S
C3049 C3050 1.371 . S
C3049 H3107 0.932 . S
C3050 C3049 1.371 . S
C3050 C3051 1.400 . S
C3051 C3050 1.400 . S
C3051 C3052 1.351 . S
C3051 H3108 0.930 . S
C3052 C3048 1.388 . S
C3052 C3051 1.351 . S
N3053 C3028 1.329 . S
N3053 Co3037 1.955 . S
N3053 C3047 1.432 . S
N3054 Co3037 1.958 . S
N3054 C3038 1.324 . S
N3054 C3040 1.427 . S
N3055 Co3037 1.953 . S
N3055 C3056 1.436 . S
N3055 C3082 1.316 . S
C3056 N3055 1.436 . S
C3056 C3057 1.421 . S
C3056 C3058 1.360 . S
C3057 C3056 1.421 . S
C3057 C3059 1.379 . S
C3057 H3060 0.929 . S
C3058 C3056 1.360 . S
C3058 C3062 1.393 . S
C3058 H3064 0.931 . S
C3059 C3057 1.379 . S
C3059 C3061 1.417 . S
C3059 C3063 1.505 . S
H3060 C3057 0.929 . S
C3061 C3059 1.417 . S
C3061 C3062 1.352 . S
C3061 H3065 0.929 . S
C3062 C3058 1.393 . S
C3062 C3061 1.352 . S
C3062 C3066 1.482 . S
C3063 C3059 1.505 . S
C3063 O3067 1.259 . S
C3063 O3068 1.229 . S
H3064 C3058 0.931 . S
H3065 C3061 0.929 . S
C3066 C3062 1.482 . S
C3066 O3069 1.207 . S
C3066 O3070 1.289 . S
O3067 C3063 1.259 . S
O3067 H3071 0.822 . S
O3068 C3063 1.229 . S
O3069 C3066 1.207 . S
O3070 C3066 1.289 . S
O3070 H3072 0.819 . S
H3071 O3067 0.822 . S
H3072 O3070 0.819 . S
N3073 Co3037 1.869 . S
N3073 C3074 1.330 . S
N3073 C3078 1.325 . S
C3074 N3073 1.330 . S
C3074 C3075 1.359 . S
C3074 C3080 1.504 . S
C3075 C3074 1.359 . S
C3075 C3076 1.366 . S
C3075 H3109 0.929 . S
C3076 C3075 1.366 . S
C3076 C3077 1.415 . S
C3076 H3110 0.932 . S
C3077 C3076 1.415 . S
C3077 C3078 1.366 . S
C3077 H3111 0.931 . S
C3078 N3073 1.325 . S
C3078 C3077 1.366 . S
C3078 C3082 1.516 . S
N3079 Co3037 1.974 . S
N3079 C3080 1.309 . S
N3079 C3085 1.423 . S
C3080 C3074 1.504 . S
C3080 N3079 1.309 . S
C3080 O3081 1.258 . S
O3081 C3080 1.258 . S
C3082 N3055 1.316 . S
C3082 C3078 1.516 . S
C3082 O3095 1.263 . S
O3083 Cd3026 2.350 . S
O3083 C3099 1.270 . S
O3084 Cd3026 2.277 . S
O3084 C3099 1.248 . S
C3085 N3079 1.423 . S
C3085 C3086 1.370 . S
C3085 C3090 1.403 . S
C3086 C3085 1.370 . S
C3086 C3087 1.389 . S
C3086 H3112 0.931 . S
C3087 C3086 1.389 . S
C3087 C3088 1.389 . S
C3088 C3087 1.389 . S
C3088 C3089 1.379 . S
C3088 H3113 0.929 . S
C3089 C3088 1.379 . S
C3089 C3090 1.405 . S
C3090 C3085 1.403 . S
C3090 C3089 1.405 . S
C3090 H3114 0.932 . S
O3091 Cd3026 2.173 . S
O3091 C3027 1.277 . S
O3092 C3027 1.230 . S
O3092 Cd3030 2.250 . S
O3093 Cd3026 2.263 . S
O3093 C3046 1.258 . S
O3094 Cd3030 2.308 . S
O3094 C3046 1.274 . S
O3095 Cd3026 2.366 . S
O3095 C3082 1.263 . S
C3096 O3097 1.235 . S
C3096 O3098 1.270 . S
O3097 Cd3030 2.352 . S
O3097 C3096 1.235 . S
O3098 Cd3026 2.329 . S
O3098 C3096 1.270 . S
C3099 O3083 1.270 . S
C3099 O3084 1.248 . S
H3100 C3032 0.930 . S
H3101 C3035 0.930 . S
H3102 C3036 0.931 . S
H3103 C3041 0.929 . S
H3104 C3043 0.930 . S
H3105 C3045 0.930 . S
H3106 C3048 0.929 . S
H3107 C3049 0.932 . S
H3108 C3051 0.930 . S
H3109 C3075 0.929 . S
H3110 C3076 0.932 . S
H3111 C3077 0.931 . S
H3112 C3086 0.931 . S
H3113 C3088 0.929 . S
H3114 C3090 0.932 . S
Cd3115 O3172 2.350 . S
Cd3115 O3173 2.277 . S
Cd3115 O3180 2.173 . S
Cd3115 O3182 2.263 . S
Cd3115 O3184 2.366 . S
Cd3115 O3187 2.329 . S
C3116 O3180 1.277 . S
C3116 O3181 1.230 . S
C3117 O3118 1.246 . S
C3117 C3120 1.481 . S
C3117 N3142 1.329 . S
O3118 C3117 1.246 . S
Cd3119 O3181 2.250 . S
Cd3119 O3183 2.308 . S
Cd3119 O3186 2.352 . S
C3120 C3117 1.481 . S
C3120 N3123 1.327 . S
C3120 C3124 1.407 . S
C3121 C3122 1.346 . S
C3121 C3125 1.390 . S
C3121 H3189 0.930 . S
C3122 C3121 1.346 . S
C3122 N3123 1.342 . S
C3122 C3127 1.516 . S
N3123 C3120 1.327 . S
N3123 C3122 1.342 . S
N3123 Co3126 1.864 . S
C3124 C3120 1.407 . S
C3124 C3125 1.364 . S
C3124 H3190 0.930 . S
C3125 C3121 1.390 . S
C3125 C3124 1.364 . S
C3125 H3191 0.931 . S
Co3126 N3123 1.864 . S
Co3126 N3142 1.955 . S
Co3126 N3143 1.958 . S
Co3126 N3144 1.953 . S
Co3126 N3162 1.869 . S
Co3126 N3168 1.974 . S
C3127 C3122 1.516 . S
C3127 O3128 1.238 . S
C3127 N3143 1.324 . S
O3128 C3127 1.238 . S
C3129 C3130 1.394 . S
C3129 C3134 1.395 . S
C3129 N3143 1.427 . S
C3130 C3129 1.394 . S
C3130 C3131 1.380 . S
C3130 H3192 0.929 . S
C3131 C3130 1.380 . S
C3131 C3132 1.384 . S
C3131 C3135 1.495 . S
C3132 C3131 1.384 . S
C3132 C3133 1.382 . S
C3132 H3193 0.930 . S
C3133 C3132 1.382 . S
C3133 C3134 1.398 . S
C3134 C3129 1.395 . S
C3134 C3133 1.398 . S
C3134 H3194 0.930 . S
C3135 C3131 1.495 . S
C3135 O3182 1.258 . S
C3135 O3183 1.274 . S
C3136 C3137 1.385 . S
C3136 C3138 1.381 . S
C3136 N3142 1.432 . S
C3137 C3136 1.385 . S
C3137 C3141 1.388 . S
C3137 H3195 0.929 . S
C3138 C3136 1.381 . S
C3138 C3139 1.371 . S
C3138 H3196 0.932 . S
C3139 C3138 1.371 . S
C3139 C3140 1.400 . S
C3140 C3139 1.400 . S
C3140 C3141 1.351 . S
C3140 H3197 0.930 . S
C3141 C3137 1.388 . S
C3141 C3140 1.351 . S
N3142 C3117 1.329 . S
N3142 Co3126 1.955 . S
N3142 C3136 1.432 . S
N3143 Co3126 1.958 . S
N3143 C3127 1.324 . S
N3143 C3129 1.427 . S
N3144 Co3126 1.953 . S
N3144 C3145 1.436 . S
N3144 C3171 1.316 . S
C3145 N3144 1.436 . S
C3145 C3146 1.421 . S
C3145 C3147 1.360 . S
C3146 C3145 1.421 . S
C3146 C3148 1.379 . S
C3146 H3149 0.929 . S
C3147 C3145 1.360 . S
C3147 C3151 1.393 . S
C3147 H3153 0.931 . S
C3148 C3146 1.379 . S
C3148 C3150 1.417 . S
C3148 C3152 1.505 . S
H3149 C3146 0.929 . S
C3150 C3148 1.417 . S
C3150 C3151 1.352 . S
C3150 H3154 0.929 . S
C3151 C3147 1.393 . S
C3151 C3150 1.352 . S
C3151 C3155 1.482 . S
C3152 C3148 1.505 . S
C3152 O3156 1.259 . S
C3152 O3157 1.229 . S
H3153 C3147 0.931 . S
H3154 C3150 0.929 . S
C3155 C3151 1.482 . S
C3155 O3158 1.207 . S
C3155 O3159 1.289 . S
O3156 C3152 1.259 . S
O3156 H3160 0.822 . S
O3157 C3152 1.229 . S
O3158 C3155 1.207 . S
O3159 C3155 1.289 . S
O3159 H3161 0.819 . S
H3160 O3156 0.822 . S
H3161 O3159 0.819 . S
N3162 Co3126 1.869 . S
N3162 C3163 1.330 . S
N3162 C3167 1.325 . S
C3163 N3162 1.330 . S
C3163 C3164 1.359 . S
C3163 C3169 1.504 . S
C3164 C3163 1.359 . S
C3164 C3165 1.366 . S
C3164 H3198 0.929 . S
C3165 C3164 1.366 . S
C3165 C3166 1.415 . S
C3165 H3199 0.932 . S
C3166 C3165 1.415 . S
C3166 C3167 1.366 . S
C3166 H3200 0.931 . S
C3167 N3162 1.325 . S
C3167 C3166 1.366 . S
C3167 C3171 1.516 . S
N3168 Co3126 1.974 . S
N3168 C3169 1.309 . S
N3168 C3174 1.423 . S
C3169 C3163 1.504 . S
C3169 N3168 1.309 . S
C3169 O3170 1.258 . S
O3170 C3169 1.258 . S
C3171 N3144 1.316 . S
C3171 C3167 1.516 . S
C3171 O3184 1.263 . S
O3172 Cd3115 2.350 . S
O3172 C3188 1.270 . S
O3173 Cd3115 2.277 . S
O3173 C3188 1.248 . S
C3174 N3168 1.423 . S
C3174 C3175 1.370 . S
C3174 C3179 1.403 . S
C3175 C3174 1.370 . S
C3175 C3176 1.389 . S
C3175 H3201 0.931 . S
C3176 C3175 1.389 . S
C3176 C3177 1.389 . S
C3177 C3176 1.389 . S
C3177 C3178 1.379 . S
C3177 H3202 0.929 . S
C3178 C3177 1.379 . S
C3178 C3179 1.405 . S
C3179 C3174 1.403 . S
C3179 C3178 1.405 . S
C3179 H3203 0.932 . S
O3180 Cd3115 2.173 . S
O3180 C3116 1.277 . S
O3181 C3116 1.230 . S
O3181 Cd3119 2.250 . S
O3182 Cd3115 2.263 . S
O3182 C3135 1.258 . S
O3183 Cd3119 2.308 . S
O3183 C3135 1.274 . S
O3184 Cd3115 2.366 . S
O3184 C3171 1.263 . S
C3185 O3186 1.235 . S
C3185 O3187 1.270 . S
O3186 Cd3119 2.352 . S
O3186 C3185 1.235 . S
O3187 Cd3115 2.329 . S
O3187 C3185 1.270 . S
C3188 O3172 1.270 . S
C3188 O3173 1.248 . S
H3189 C3121 0.930 . S
H3190 C3124 0.930 . S
H3191 C3125 0.931 . S
H3192 C3130 0.929 . S
H3193 C3132 0.930 . S
H3194 C3134 0.930 . S
H3195 C3137 0.929 . S
H3196 C3138 0.932 . S
H3197 C3140 0.930 . S
H3198 C3164 0.929 . S
H3199 C3165 0.932 . S
H3200 C3166 0.931 . S
H3201 C3175 0.931 . S
H3202 C3177 0.929 . S
H3203 C3179 0.932 . S
C3204 C3205 1.349 . S
C3204 C3206 1.327 . S
C3204 H3229 0.950 . S
C3205 C3204 1.349 . S
C3205 C3221 1.349 . S
C3206 C3204 1.327 . S
C3206 C3225 1.429 . S
C3206 H3230 0.950 . S
C3207 C3224 1.574 . S
C3207 C3226 1.368 . S
C3207 H3231 0.949 . S
H3208 C3212 0.949 . S
C3209 C3210 1.349 . S
C3209 C3211 1.327 . S
C3209 H3232 0.950 . S
C3210 C3209 1.349 . S
C3210 C3222 1.349 . S
C3211 C3209 1.327 . S
C3211 C3227 1.429 . S
C3211 H3233 0.950 . S
C3212 H3208 0.949 . S
C3212 C3220 1.574 . S
C3212 C3228 1.368 . S
H3213 C3221 0.950 1_554 S
H3214 C3219 0.950 . S
H3215 C3220 0.949 . S
H3216 C3222 0.950 . S
H3217 C3223 0.950 . S
H3218 C3224 0.949 . S
C3219 H3214 0.950 . S
C3219 C3221 1.327 . S
C3219 C3225 1.429 . S
C3220 C3212 1.574 . S
C3220 H3215 0.949 . S
C3220 C3226 1.368 . S
C3221 C3205 1.349 . S
C3221 H3213 0.950 1_556 S
C3221 C3219 1.327 . S
C3222 C3210 1.349 . S
C3222 H3216 0.950 . S
C3222 C3223 1.327 . S
C3223 H3217 0.950 . S
C3223 C3222 1.327 . S
C3223 C3227 1.429 . S
C3224 C3207 1.574 . S
C3224 H3218 0.949 . S
C3224 C3228 1.368 . S
C3225 C3206 1.429 . S
C3225 C3219 1.429 . S
C3225 C3226 1.523 . S
C3226 C3207 1.368 . S
C3226 C3220 1.368 . S
C3226 C3225 1.523 . S
C3227 C3211 1.429 . S
C3227 C3223 1.429 . S
C3227 C3228 1.523 . S
C3228 C3212 1.368 . S
C3228 C3224 1.368 . S
C3228 C3227 1.523 . S
H3229 C3204 0.950 . S
H3230 C3206 0.950 . S
H3231 C3207 0.949 . S
H3232 C3209 0.950 . S
H3233 C3211 0.950 . S
C3234 C3235 1.349 . S
C3234 C3236 1.327 . S
C3234 H3259 0.950 . S
C3235 C3234 1.349 . S
C3235 C3251 1.349 . S
C3236 C3234 1.327 . S
C3236 C3255 1.429 . S
C3236 H3260 0.950 . S
C3237 C3254 1.574 . S
C3237 C3256 1.368 . S
C3237 H3261 0.949 . S
H3238 C3242 0.949 . S
C3239 C3240 1.349 . S
C3239 C3241 1.327 . S
C3239 H3262 0.950 1_556 S
C3240 C3239 1.349 . S
C3240 C3252 1.349 . S
C3241 C3239 1.327 . S
C3241 C3257 1.429 . S
C3241 H3263 0.950 . S
C3242 H3238 0.949 . S
C3242 C3250 1.574 . S
C3242 C3258 1.368 . S
H3243 C3251 0.950 . S
H3244 C3249 0.950 . S
H3245 C3250 0.949 . S
H3246 C3252 0.950 . S
H3247 C3253 0.950 . S
H3248 C3254 0.949 . S
C3249 H3244 0.950 . S
C3249 C3251 1.327 . S
C3249 C3255 1.429 . S
C3250 C3242 1.574 . S
C3250 H3245 0.949 . S
C3250 C3256 1.368 . S
C3251 C3235 1.349 . S
C3251 H3243 0.950 . S
C3251 C3249 1.327 . S
C3252 C3240 1.349 . S
C3252 H3246 0.950 . S
C3252 C3253 1.327 . S
C3253 H3247 0.950 . S
C3253 C3252 1.327 . S
C3253 C3257 1.429 . S
C3254 C3237 1.574 . S
C3254 H3248 0.949 . S
C3254 C3258 1.368 . S
C3255 C3236 1.429 . S
C3255 C3249 1.429 . S
C3255 C3256 1.523 . S
C3256 C3237 1.368 . S
C3256 C3250 1.368 . S
C3256 C3255 1.523 . S
C3257 C3241 1.429 . S
C3257 C3253 1.429 . S
C3257 C3258 1.523 . S
C3258 C3242 1.368 . S
C3258 C3254 1.368 . S
C3258 C3257 1.523 . S
H3259 C3234 0.950 . S
H3260 C3236 0.950 . S
H3261 C3237 0.949 . S
H3262 C3239 0.950 1_554 S
H3263 C3241 0.950 . S
C3264 C3265 1.349 . S
C3264 C3266 1.327 . S
C3264 H3289 0.950 . S
C3265 C3264 1.349 . S
C3265 C3281 1.349 . S
C3266 C3264 1.327 . S
C3266 C3285 1.429 . S
C3266 H3290 0.950 . S
C3267 C3284 1.574 . S
C3267 C3286 1.368 . S
C3267 H3291 0.949 . S
H3268 C3272 0.949 . S
C3269 C3270 1.349 . S
C3269 C3271 1.327 . S
C3269 H3292 0.950 . S
C3270 C3269 1.349 . S
C3270 C3282 1.349 . S
C3271 C3269 1.327 . S
C3271 C3287 1.429 . S
C3271 H3293 0.950 . S
C3272 H3268 0.949 . S
C3272 C3280 1.574 . S
C3272 C3288 1.368 . S
H3273 C3281 0.950 . S
H3274 C3279 0.950 . S
H3275 C3280 0.949 . S
H3276 C3282 0.950 1_554 S
H3277 C3283 0.950 . S
H3278 C3284 0.949 . S
C3279 H3274 0.950 . S
C3279 C3281 1.327 . S
C3279 C3285 1.429 . S
C3280 C3272 1.574 . S
C3280 H3275 0.949 . S
C3280 C3286 1.368 . S
C3281 C3265 1.349 . S
C3281 H3273 0.950 . S
C3281 C3279 1.327 . S
C3282 C3270 1.349 . S
C3282 H3276 0.950 1_556 S
C3282 C3283 1.327 . S
C3283 H3277 0.950 . S
C3283 C3282 1.327 . S
C3283 C3287 1.429 . S
C3284 C3267 1.574 . S
C3284 H3278 0.949 . S
C3284 C3288 1.368 . S
C3285 C3266 1.429 . S
C3285 C3279 1.429 . S
C3285 C3286 1.523 . S
C3286 C3267 1.368 . S
C3286 C3280 1.368 . S
C3286 C3285 1.523 . S
C3287 C3271 1.429 . S
C3287 C3283 1.429 . S
C3287 C3288 1.523 . S
C3288 C3272 1.368 . S
C3288 C3284 1.368 . S
C3288 C3287 1.523 . S
H3289 C3264 0.950 . S
H3290 C3266 0.950 . S
H3291 C3267 0.949 . S
H3292 C3269 0.950 . S
H3293 C3271 0.950 . S
C3294 C3295 1.349 . S
C3294 C3296 1.327 . S
C3294 H3319 0.950 . S
C3295 C3294 1.349 . S
C3295 C3311 1.349 . S
C3296 C3294 1.327 . S
C3296 C3315 1.429 . S
C3296 H3320 0.950 . S
C3297 C3314 1.574 . S
C3297 C3316 1.368 . S
C3297 H3321 0.949 . S
H3298 C3302 0.949 . S
C3299 C3300 1.349 . S
C3299 C3301 1.327 . S
C3299 H3322 0.950 . S
C3300 C3299 1.349 . S
C3300 C3312 1.349 . S
C3301 C3299 1.327 . S
C3301 C3317 1.429 . S
C3301 H3323 0.950 . S
C3302 H3298 0.949 . S
C3302 C3310 1.574 . S
C3302 C3318 1.368 . S
H3303 C3311 0.950 . S
H3304 C3309 0.950 . S
H3305 C3310 0.949 . S
H3306 C3312 0.950 . S
H3307 C3313 0.950 . S
H3308 C3314 0.949 . S
C3309 H3304 0.950 . S
C3309 C3311 1.327 . S
C3309 C3315 1.429 . S
C3310 C3302 1.574 . S
C3310 H3305 0.949 . S
C3310 C3316 1.368 . S
C3311 C3295 1.349 . S
C3311 H3303 0.950 . S
C3311 C3309 1.327 . S
C3312 C3300 1.349 . S
C3312 H3306 0.950 . S
C3312 C3313 1.327 . S
C3313 H3307 0.950 . S
C3313 C3312 1.327 . S
C3313 C3317 1.429 . S
C3314 C3297 1.574 . S
C3314 H3308 0.949 . S
C3314 C3318 1.368 . S
C3315 C3296 1.429 . S
C3315 C3309 1.429 . S
C3315 C3316 1.523 . S
C3316 C3297 1.368 . S
C3316 C3310 1.368 . S
C3316 C3315 1.523 . S
C3317 C3301 1.429 . S
C3317 C3313 1.429 . S
C3317 C3318 1.523 . S
C3318 C3302 1.368 . S
C3318 C3314 1.368 . S
C3318 C3317 1.523 . S
H3319 C3294 0.950 . S
H3320 C3296 0.950 . S
H3321 C3297 0.949 . S
H3322 C3299 0.950 . S
H3323 C3301 0.950 . S
C3324 C3325 1.349 . S
C3324 C3326 1.327 . S
C3324 H3349 0.950 . S
C3325 C3324 1.349 . S
C3325 C3341 1.349 . S
C3326 C3324 1.327 . S
C3326 C3345 1.429 . S
C3326 H3350 0.950 . S
C3327 C3344 1.574 . S
C3327 C3346 1.368 . S
C3327 H3351 0.949 . S
H3328 C3332 0.949 . S
C3329 C3330 1.349 . S
C3329 C3331 1.327 . S
C3329 H3352 0.950 . S
C3330 C3329 1.349 . S
C3330 C3342 1.349 . S
C3331 C3329 1.327 . S
C3331 C3347 1.429 . S
C3331 H3353 0.950 . S
C3332 H3328 0.949 . S
C3332 C3340 1.574 . S
C3332 C3348 1.368 . S
H3333 C3341 0.950 . S
H3334 C3339 0.950 . S
H3335 C3340 0.949 . S
H3336 C3342 0.950 . S
H3337 C3343 0.950 . S
H3338 C3344 0.949 . S
C3339 H3334 0.950 . S
C3339 C3341 1.327 . S
C3339 C3345 1.429 . S
C3340 C3332 1.574 . S
C3340 H3335 0.949 . S
C3340 C3346 1.368 . S
C3341 C3325 1.349 . S
C3341 H3333 0.950 . S
C3341 C3339 1.327 . S
C3342 C3330 1.349 . S
C3342 H3336 0.950 . S
C3342 C3343 1.327 . S
C3343 H3337 0.950 . S
C3343 C3342 1.327 . S
C3343 C3347 1.429 . S
C3344 C3327 1.574 . S
C3344 H3338 0.949 . S
C3344 C3348 1.368 . S
C3345 C3326 1.429 . S
C3345 C3339 1.429 . S
C3345 C3346 1.523 . S
C3346 C3327 1.368 . S
C3346 C3340 1.368 . S
C3346 C3345 1.523 . S
C3347 C3331 1.429 . S
C3347 C3343 1.429 . S
C3347 C3348 1.523 . S
C3348 C3332 1.368 . S
C3348 C3344 1.368 . S
C3348 C3347 1.523 . S
H3349 C3324 0.950 . S
H3350 C3326 0.950 . S
H3351 C3327 0.949 . S
H3352 C3329 0.950 . S
H3353 C3331 0.950 . S
C3354 C3355 1.349 . S
C3354 C3356 1.327 . S
C3354 H3379 0.950 . S
C3355 C3354 1.349 . S
C3355 C3371 1.349 . S
C3356 C3354 1.327 . S
C3356 C3375 1.429 . S
C3356 H3380 0.950 . S
C3357 C3374 1.574 . S
C3357 C3376 1.368 . S
C3357 H3381 0.949 . S
H3358 C3362 0.949 . S
C3359 C3360 1.349 . S
C3359 C3361 1.327 . S
C3359 H3382 0.950 . S
C3360 C3359 1.349 . S
C3360 C3372 1.349 . S
C3361 C3359 1.327 . S
C3361 C3377 1.429 . S
C3361 H3383 0.950 . S
C3362 H3358 0.949 . S
C3362 C3370 1.574 . S
C3362 C3378 1.368 . S
H3363 C3371 0.950 . S
H3364 C3369 0.950 . S
H3365 C3370 0.949 . S
H3366 C3372 0.950 . S
H3367 C3373 0.950 . S
H3368 C3374 0.949 . S
C3369 H3364 0.950 . S
C3369 C3371 1.327 . S
C3369 C3375 1.429 . S
C3370 C3362 1.574 . S
C3370 H3365 0.949 . S
C3370 C3376 1.368 . S
C3371 C3355 1.349 . S
C3371 H3363 0.950 . S
C3371 C3369 1.327 . S
C3372 C3360 1.349 . S
C3372 H3366 0.950 . S
C3372 C3373 1.327 . S
C3373 H3367 0.950 . S
C3373 C3372 1.327 . S
C3373 C3377 1.429 . S
C3374 C3357 1.574 . S
C3374 H3368 0.949 . S
C3374 C3378 1.368 . S
C3375 C3356 1.429 . S
C3375 C3369 1.429 . S
C3375 C3376 1.523 . S
C3376 C3357 1.368 . S
C3376 C3370 1.368 . S
C3376 C3375 1.523 . S
C3377 C3361 1.429 . S
C3377 C3373 1.429 . S
C3377 C3378 1.523 . S
C3378 C3362 1.368 . S
C3378 C3374 1.368 . S
C3378 C3377 1.523 . S
H3379 C3354 0.950 . S
H3380 C3356 0.950 . S
H3381 C3357 0.949 . S
H3382 C3359 0.950 . S
H3383 C3361 0.950 . S
C3384 C3385 1.349 . S
C3384 C3386 1.327 . S
C3384 H3409 0.950 . S
C3385 C3384 1.349 . S
C3385 C3401 1.349 . S
C3386 C3384 1.327 . S
C3386 C3405 1.429 . S
C3386 H3410 0.950 . S
C3387 C3404 1.574 . S
C3387 C3406 1.368 . S
C3387 H3411 0.949 . S
H3388 C3392 0.949 . S
C3389 C3390 1.349 . S
C3389 C3391 1.327 . S
C3389 H3412 0.950 . S
C3390 C3389 1.349 . S
C3390 C3402 1.349 . S
C3391 C3389 1.327 . S
C3391 C3407 1.429 . S
C3391 H3413 0.950 . S
C3392 H3388 0.949 . S
C3392 C3400 1.574 . S
C3392 C3408 1.368 . S
H3393 C3401 0.950 . S
H3394 C3399 0.950 . S
H3395 C3400 0.949 . S
H3396 C3402 0.950 . S
H3397 C3403 0.950 . S
H3398 C3404 0.949 . S
C3399 H3394 0.950 . S
C3399 C3401 1.327 . S
C3399 C3405 1.429 . S
C3400 C3392 1.574 . S
C3400 H3395 0.949 . S
C3400 C3406 1.368 . S
C3401 C3385 1.349 . S
C3401 H3393 0.950 . S
C3401 C3399 1.327 . S
C3402 C3390 1.349 . S
C3402 H3396 0.950 . S
C3402 C3403 1.327 . S
C3403 H3397 0.950 . S
C3403 C3402 1.327 . S
C3403 C3407 1.429 . S
C3404 C3387 1.574 . S
C3404 H3398 0.949 . S
C3404 C3408 1.368 . S
C3405 C3386 1.429 . S
C3405 C3399 1.429 . S
C3405 C3406 1.523 . S
C3406 C3387 1.368 . S
C3406 C3400 1.368 . S
C3406 C3405 1.523 . S
C3407 C3391 1.429 . S
C3407 C3403 1.429 . S
C3407 C3408 1.523 . S
C3408 C3392 1.368 . S
C3408 C3404 1.368 . S
C3408 C3407 1.523 . S
H3409 C3384 0.950 . S
H3410 C3386 0.950 . S
H3411 C3387 0.949 . S
H3412 C3389 0.950 . S
H3413 C3391 0.950 . S
C3414 C3415 1.349 . S
C3414 C3416 1.327 . S
C3414 H3439 0.950 . S
C3415 C3414 1.349 . S
C3415 C3431 1.349 . S
C3416 C3414 1.327 . S
C3416 C3435 1.429 . S
C3416 H3440 0.950 . S
C3417 C3434 1.574 . S
C3417 C3436 1.368 . S
C3417 H3441 0.949 . S
H3418 C3422 0.949 . S
C3419 C3420 1.349 . S
C3419 C3421 1.327 . S
C3419 H3442 0.950 . S
C3420 C3419 1.349 . S
C3420 C3432 1.349 . S
C3421 C3419 1.327 . S
C3421 C3437 1.429 . S
C3421 H3443 0.950 . S
C3422 H3418 0.949 . S
C3422 C3430 1.574 . S
C3422 C3438 1.368 . S
H3423 C3431 0.950 . S
H3424 C3429 0.950 . S
H3425 C3430 0.949 . S
H3426 C3432 0.950 . S
H3427 C3433 0.950 . S
H3428 C3434 0.949 . S
C3429 H3424 0.950 . S
C3429 C3431 1.327 . S
C3429 C3435 1.429 . S
C3430 C3422 1.574 . S
C3430 H3425 0.949 . S
C3430 C3436 1.368 . S
C3431 C3415 1.349 . S
C3431 H3423 0.950 . S
C3431 C3429 1.327 . S
C3432 C3420 1.349 . S
C3432 H3426 0.950 . S
C3432 C3433 1.327 . S
C3433 H3427 0.950 . S
C3433 C3432 1.327 . S
C3433 C3437 1.429 . S
C3434 C3417 1.574 . S
C3434 H3428 0.949 . S
C3434 C3438 1.368 . S
C3435 C3416 1.429 . S
C3435 C3429 1.429 . S
C3435 C3436 1.523 . S
C3436 C3417 1.368 . S
C3436 C3430 1.368 . S
C3436 C3435 1.523 . S
C3437 C3421 1.429 . S
C3437 C3433 1.429 . S
C3437 C3438 1.523 . S
C3438 C3422 1.368 . S
C3438 C3434 1.368 . S
C3438 C3437 1.523 . S
H3439 C3414 0.950 . S
H3440 C3416 0.950 . S
H3441 C3417 0.949 . S
H3442 C3419 0.950 . S
H3443 C3421 0.950 . S
C3444 C3445 1.349 . S
C3444 C3446 1.327 . S
C3444 H3469 0.950 . S
C3445 C3444 1.349 . S
C3445 C3461 1.349 . S
C3446 C3444 1.327 . S
C3446 C3465 1.429 . S
C3446 H3470 0.950 . S
C3447 C3464 1.574 . S
C3447 C3466 1.368 . S
C3447 H3471 0.949 . S
H3448 C3452 0.949 . S
C3449 C3450 1.349 . S
C3449 C3451 1.327 . S
C3449 H3472 0.950 . S
C3450 C3449 1.349 . S
C3450 C3462 1.349 . S
C3451 C3449 1.327 . S
C3451 C3467 1.429 . S
C3451 H3473 0.950 . S
C3452 H3448 0.949 . S
C3452 C3460 1.574 . S
C3452 C3468 1.368 . S
H3453 C3461 0.950 . S
H3454 C3459 0.950 . S
H3455 C3460 0.949 . S
H3456 C3462 0.950 . S
H3457 C3463 0.950 . S
H3458 C3464 0.949 . S
C3459 H3454 0.950 . S
C3459 C3461 1.327 . S
C3459 C3465 1.429 . S
C3460 C3452 1.574 . S
C3460 H3455 0.949 . S
C3460 C3466 1.368 . S
C3461 C3445 1.349 . S
C3461 H3453 0.950 . S
C3461 C3459 1.327 . S
C3462 C3450 1.349 . S
C3462 H3456 0.950 . S
C3462 C3463 1.327 . S
C3463 H3457 0.950 . S
C3463 C3462 1.327 . S
C3463 C3467 1.429 . S
C3464 C3447 1.574 . S
C3464 H3458 0.949 . S
C3464 C3468 1.368 . S
C3465 C3446 1.429 . S
C3465 C3459 1.429 . S
C3465 C3466 1.523 . S
C3466 C3447 1.368 . S
C3466 C3460 1.368 . S
C3466 C3465 1.523 . S
C3467 C3451 1.429 . S
C3467 C3463 1.429 . S
C3467 C3468 1.523 . S
C3468 C3452 1.368 . S
C3468 C3464 1.368 . S
C3468 C3467 1.523 . S
H3469 C3444 0.950 . S
H3470 C3446 0.950 . S
H3471 C3447 0.949 . S
H3472 C3449 0.950 . S
H3473 C3451 0.950 . S
C3474 C3475 1.349 . S
C3474 C3476 1.327 . S
C3474 H3499 0.950 . S
C3475 C3474 1.349 . S
C3475 C3491 1.349 . S
C3476 C3474 1.327 . S
C3476 C3495 1.429 . S
C3476 H3500 0.950 . S
C3477 C3494 1.574 . S
C3477 C3496 1.368 . S
C3477 H3501 0.949 . S
H3478 C3482 0.949 . S
C3479 C3480 1.349 . S
C3479 C3481 1.327 . S
C3479 H3502 0.950 . S
C3480 C3479 1.349 . S
C3480 C3492 1.349 . S
C3481 C3479 1.327 . S
C3481 C3497 1.429 . S
C3481 H3503 0.950 . S
C3482 H3478 0.949 . S
C3482 C3490 1.574 . S
C3482 C3498 1.368 . S
H3483 C3491 0.950 . S
H3484 C3489 0.950 . S
H3485 C3490 0.949 . S
H3486 C3492 0.950 . S
H3487 C3493 0.950 . S
H3488 C3494 0.949 . S
C3489 H3484 0.950 . S
C3489 C3491 1.327 . S
C3489 C3495 1.429 . S
C3490 C3482 1.574 . S
C3490 H3485 0.949 . S
C3490 C3496 1.368 . S
C3491 C3475 1.349 . S
C3491 H3483 0.950 . S
C3491 C3489 1.327 . S
C3492 C3480 1.349 . S
C3492 H3486 0.950 . S
C3492 C3493 1.327 . S
C3493 H3487 0.950 . S
C3493 C3492 1.327 . S
C3493 C3497 1.429 . S
C3494 C3477 1.574 . S
C3494 H3488 0.949 . S
C3494 C3498 1.368 . S
C3495 C3476 1.429 . S
C3495 C3489 1.429 . S
C3495 C3496 1.523 . S
C3496 C3477 1.368 . S
C3496 C3490 1.368 . S
C3496 C3495 1.523 . S
C3497 C3481 1.429 . S
C3497 C3493 1.429 . S
C3497 C3498 1.523 . S
C3498 C3482 1.368 . S
C3498 C3494 1.368 . S
C3498 C3497 1.523 . S
H3499 C3474 0.950 . S
H3500 C3476 0.950 . S
H3501 C3477 0.949 . S
H3502 C3479 0.950 . S
H3503 C3481 0.950 . S
C3504 C3505 1.349 . S
C3504 C3506 1.327 . S
C3504 H3529 0.950 . S
C3505 C3504 1.349 . S
C3505 C3521 1.349 . S
C3506 C3504 1.327 . S
C3506 C3525 1.429 . S
C3506 H3530 0.950 . S
C3507 C3524 1.574 . S
C3507 C3526 1.368 . S
C3507 H3531 0.949 . S
H3508 C3512 0.949 . S
C3509 C3510 1.349 . S
C3509 C3511 1.327 . S
C3509 H3532 0.950 . S
C3510 C3509 1.349 . S
C3510 C3522 1.349 . S
C3511 C3509 1.327 . S
C3511 C3527 1.429 . S
C3511 H3533 0.950 . S
C3512 H3508 0.949 . S
C3512 C3520 1.574 . S
C3512 C3528 1.368 . S
H3513 C3521 0.950 . S
H3514 C3519 0.950 . S
H3515 C3520 0.949 . S
H3516 C3522 0.950 . S
H3517 C3523 0.950 . S
H3518 C3524 0.949 . S
C3519 H3514 0.950 . S
C3519 C3521 1.327 . S
C3519 C3525 1.429 . S
C3520 C3512 1.574 . S
C3520 H3515 0.949 . S
C3520 C3526 1.368 . S
C3521 C3505 1.349 . S
C3521 H3513 0.950 . S
C3521 C3519 1.327 . S
C3522 C3510 1.349 . S
C3522 H3516 0.950 . S
C3522 C3523 1.327 . S
C3523 H3517 0.950 . S
C3523 C3522 1.327 . S
C3523 C3527 1.429 . S
C3524 C3507 1.574 . S
C3524 H3518 0.949 . S
C3524 C3528 1.368 . S
C3525 C3506 1.429 . S
C3525 C3519 1.429 . S
C3525 C3526 1.523 . S
C3526 C3507 1.368 . S
C3526 C3520 1.368 . S
C3526 C3525 1.523 . S
C3527 C3511 1.429 . S
C3527 C3523 1.429 . S
C3527 C3528 1.523 . S
C3528 C3512 1.368 . S
C3528 C3524 1.368 . S
C3528 C3527 1.523 . S
H3529 C3504 0.950 . S
H3530 C3506 0.950 . S
H3531 C3507 0.949 . S
H3532 C3509 0.950 . S
H3533 C3511 0.950 . S
C3534 C3535 1.349 . S
C3534 C3536 1.327 . S
C3534 H3559 0.950 . S
C3535 C3534 1.349 . S
C3535 C3551 1.349 . S
C3536 C3534 1.327 . S
C3536 C3555 1.429 . S
C3536 H3560 0.950 . S
C3537 C3554 1.574 . S
C3537 C3556 1.368 . S
C3537 H3561 0.949 . S
H3538 C3542 0.949 . S
C3539 C3540 1.349 . S
C3539 C3541 1.327 . S
C3539 H3562 0.950 . S
C3540 C3539 1.349 . S
C3540 C3552 1.349 . S
C3541 C3539 1.327 . S
C3541 C3557 1.429 . S
C3541 H3563 0.950 . S
C3542 H3538 0.949 . S
C3542 C3550 1.574 . S
C3542 C3558 1.368 . S
H3543 C3551 0.950 . S
H3544 C3549 0.950 . S
H3545 C3550 0.949 . S
H3546 C3552 0.950 . S
H3547 C3553 0.950 . S
H3548 C3554 0.949 . S
C3549 H3544 0.950 . S
C3549 C3551 1.327 . S
C3549 C3555 1.429 . S
C3550 C3542 1.574 . S
C3550 H3545 0.949 . S
C3550 C3556 1.368 . S
C3551 C3535 1.349 . S
C3551 H3543 0.950 . S
C3551 C3549 1.327 . S
C3552 C3540 1.349 . S
C3552 H3546 0.950 . S
C3552 C3553 1.327 . S
C3553 H3547 0.950 . S
C3553 C3552 1.327 . S
C3553 C3557 1.429 . S
C3554 C3537 1.574 . S
C3554 H3548 0.949 . S
C3554 C3558 1.368 . S
C3555 C3536 1.429 . S
C3555 C3549 1.429 . S
C3555 C3556 1.523 . S
C3556 C3537 1.368 . S
C3556 C3550 1.368 . S
C3556 C3555 1.523 . S
C3557 C3541 1.429 . S
C3557 C3553 1.429 . S
C3557 C3558 1.523 . S
C3558 C3542 1.368 . S
C3558 C3554 1.368 . S
C3558 C3557 1.523 . S
H3559 C3534 0.950 . S
H3560 C3536 0.950 . S
H3561 C3537 0.949 . S
H3562 C3539 0.950 . S
H3563 C3541 0.950 . S
C3564 C3565 1.349 . S
C3564 C3566 1.327 . S
C3564 H3589 0.950 . S
C3565 C3564 1.349 . S
C3565 C3581 1.349 . S
C3566 C3564 1.327 . S
C3566 C3585 1.429 . S
C3566 H3590 0.950 . S
C3567 C3584 1.574 1_455 S
C3567 C3586 1.368 . S
C3567 H3591 0.949 . S
H3568 C3572 0.949 . S
C3569 C3570 1.349 . S
C3569 C3571 1.327 . S
C3569 H3592 0.950 . S
C3570 C3569 1.349 . S
C3570 C3582 1.349 . S
C3571 C3569 1.327 . S
C3571 C3587 1.429 . S
C3571 H3593 0.950 . S
C3572 H3568 0.949 . S
C3572 C3580 1.574 1_655 S
C3572 C3588 1.368 . S
H3573 C3581 0.950 . S
H3574 C3579 0.950 . S
H3575 C3580 0.949 . S
H3576 C3582 0.950 . S
H3577 C3583 0.950 . S
H3578 C3584 0.949 . S
C3579 H3574 0.950 . S
C3579 C3581 1.327 . S
C3579 C3585 1.429 . S
C3580 C3572 1.574 1_455 S
C3580 H3575 0.949 . S
C3580 C3586 1.368 . S
C3581 C3565 1.349 . S
C3581 H3573 0.950 . S
C3581 C3579 1.327 . S
C3582 C3570 1.349 . S
C3582 H3576 0.950 . S
C3582 C3583 1.327 . S
C3583 H3577 0.950 . S
C3583 C3582 1.327 . S
C3583 C3587 1.429 . S
C3584 C3567 1.574 1_655 S
C3584 H3578 0.949 . S
C3584 C3588 1.368 . S
C3585 C3566 1.429 . S
C3585 C3579 1.429 . S
C3585 C3586 1.523 . S
C3586 C3567 1.368 . S
C3586 C3580 1.368 . S
C3586 C3585 1.523 . S
C3587 C3571 1.429 . S
C3587 C3583 1.429 . S
C3587 C3588 1.523 . S
C3588 C3572 1.368 . S
C3588 C3584 1.368 . S
C3588 C3587 1.523 . S
H3589 C3564 0.950 . S
H3590 C3566 0.950 . S
H3591 C3567 0.949 . S
H3592 C3569 0.950 . S
H3593 C3571 0.950 . S
C3594 C3595 1.349 . S
C3594 C3596 1.327 . S
C3594 H3619 0.950 . S
C3595 C3594 1.349 . S
C3595 C3611 1.349 . S
C3596 C3594 1.327 . S
C3596 C3615 1.429 . S
C3596 H3620 0.950 . S
C3597 C3614 1.574 . S
C3597 C3616 1.368 . S
C3597 H3621 0.949 . S
H3598 C3602 0.949 . S
C3599 C3600 1.349 . S
C3599 C3601 1.327 . S
C3599 H3622 0.950 . S
C3600 C3599 1.349 . S
C3600 C3612 1.349 . S
C3601 C3599 1.327 . S
C3601 C3617 1.429 . S
C3601 H3623 0.950 . S
C3602 H3598 0.949 . S
C3602 C3610 1.574 . S
C3602 C3618 1.368 . S
H3603 C3611 0.950 . S
H3604 C3609 0.950 . S
H3605 C3610 0.949 . S
H3606 C3612 0.950 . S
H3607 C3613 0.950 . S
H3608 C3614 0.949 . S
C3609 H3604 0.950 . S
C3609 C3611 1.327 . S
C3609 C3615 1.429 . S
C3610 C3602 1.574 . S
C3610 H3605 0.949 . S
C3610 C3616 1.368 . S
C3611 C3595 1.349 . S
C3611 H3603 0.950 . S
C3611 C3609 1.327 . S
C3612 C3600 1.349 . S
C3612 H3606 0.950 . S
C3612 C3613 1.327 . S
C3613 H3607 0.950 . S
C3613 C3612 1.327 . S
C3613 C3617 1.429 . S
C3614 C3597 1.574 . S
C3614 H3608 0.949 . S
C3614 C3618 1.368 . S
C3615 C3596 1.429 . S
C3615 C3609 1.429 . S
C3615 C3616 1.523 . S
C3616 C3597 1.368 . S
C3616 C3610 1.368 . S
C3616 C3615 1.523 . S
C3617 C3601 1.429 . S
C3617 C3613 1.429 . S
C3617 C3618 1.523 . S
C3618 C3602 1.368 . S
C3618 C3614 1.368 . S
C3618 C3617 1.523 . S
H3619 C3594 0.950 . S
H3620 C3596 0.950 . S
H3621 C3597 0.949 . S
H3622 C3599 0.950 . S
H3623 C3601 0.950 . S
C3624 C3625 1.349 . S
C3624 C3626 1.327 . S
C3624 H3649 0.950 . S
C3625 C3624 1.349 . S
C3625 C3641 1.349 . S
C3626 C3624 1.327 . S
C3626 C3645 1.429 . S
C3626 H3650 0.950 . S
C3627 C3644 1.574 1_545 S
C3627 C3646 1.368 . S
C3627 H3651 0.949 . S
H3628 C3632 0.949 . S
C3629 C3630 1.349 . S
C3629 C3631 1.327 . S
C3629 H3652 0.950 . S
C3630 C3629 1.349 . S
C3630 C3642 1.349 . S
C3631 C3629 1.327 . S
C3631 C3647 1.429 . S
C3631 H3653 0.950 . S
C3632 H3628 0.949 . S
C3632 C3640 1.574 1_565 S
C3632 C3648 1.368 . S
H3633 C3641 0.950 . S
H3634 C3639 0.950 . S
H3635 C3640 0.949 . S
H3636 C3642 0.950 . S
H3637 C3643 0.950 . S
H3638 C3644 0.949 . S
C3639 H3634 0.950 . S
C3639 C3641 1.327 . S
C3639 C3645 1.429 . S
C3640 C3632 1.574 1_545 S
C3640 H3635 0.949 . S
C3640 C3646 1.368 . S
C3641 C3625 1.349 . S
C3641 H3633 0.950 . S
C3641 C3639 1.327 . S
C3642 C3630 1.349 . S
C3642 H3636 0.950 . S
C3642 C3643 1.327 . S
C3643 H3637 0.950 . S
C3643 C3642 1.327 . S
C3643 C3647 1.429 . S
C3644 C3627 1.574 1_565 S
C3644 H3638 0.949 . S
C3644 C3648 1.368 . S
C3645 C3626 1.429 . S
C3645 C3639 1.429 . S
C3645 C3646 1.523 . S
C3646 C3627 1.368 . S
C3646 C3640 1.368 . S
C3646 C3645 1.523 . S
C3647 C3631 1.429 . S
C3647 C3643 1.429 . S
C3647 C3648 1.523 . S
C3648 C3632 1.368 . S
C3648 C3644 1.368 . S
C3648 C3647 1.523 . S
H3649 C3624 0.950 . S
H3650 C3626 0.950 . S
H3651 C3627 0.949 . S
H3652 C3629 0.950 . S
H3653 C3631 0.950 . S
C3654 C3655 1.349 . S
C3654 C3656 1.327 . S
C3654 H3679 0.950 . S
C3655 C3654 1.349 . S
C3655 C3671 1.349 . S
C3656 C3654 1.327 . S
C3656 C3675 1.429 . S
C3656 H3680 0.950 . S
C3657 C3674 1.574 . S
C3657 C3676 1.368 . S
C3657 H3681 0.949 . S
H3658 C3662 0.949 . S
C3659 C3660 1.349 . S
C3659 C3661 1.327 . S
C3659 H3682 0.950 . S
C3660 C3659 1.349 . S
C3660 C3672 1.349 . S
C3661 C3659 1.327 . S
C3661 C3677 1.429 . S
C3661 H3683 0.950 . S
C3662 H3658 0.949 . S
C3662 C3670 1.574 . S
C3662 C3678 1.368 . S
H3663 C3671 0.950 . S
H3664 C3669 0.950 . S
H3665 C3670 0.949 . S
H3666 C3672 0.950 . S
H3667 C3673 0.950 . S
H3668 C3674 0.949 . S
C3669 H3664 0.950 . S
C3669 C3671 1.327 . S
C3669 C3675 1.429 . S
C3670 C3662 1.574 . S
C3670 H3665 0.949 . S
C3670 C3676 1.368 1_545 S
C3671 C3655 1.349 . S
C3671 H3663 0.950 . S
C3671 C3669 1.327 . S
C3672 C3660 1.349 . S
C3672 H3666 0.950 . S
C3672 C3673 1.327 . S
C3673 H3667 0.950 . S
C3673 C3672 1.327 . S
C3673 C3677 1.429 . S
C3674 C3657 1.574 . S
C3674 H3668 0.949 . S
C3674 C3678 1.368 1_565 S
C3675 C3656 1.429 . S
C3675 C3669 1.429 . S
C3675 C3676 1.523 . S
C3676 C3657 1.368 . S
C3676 C3670 1.368 1_565 S
C3676 C3675 1.523 . S
C3677 C3661 1.429 . S
C3677 C3673 1.429 . S
C3677 C3678 1.523 . S
C3678 C3662 1.368 . S
C3678 C3674 1.368 1_545 S
C3678 C3677 1.523 . S
H3679 C3654 0.950 . S
H3680 C3656 0.950 . S
H3681 C3657 0.949 . S
H3682 C3659 0.950 . S
H3683 C3661 0.950 . S
C3684 C3685 1.349 . S
C3684 C3686 1.327 . S
C3684 H3709 0.950 . S
C3685 C3684 1.349 . S
C3685 C3701 1.349 . S
C3686 C3684 1.327 . S
C3686 C3705 1.429 . S
C3686 H3710 0.950 . S
C3687 C3704 1.574 . S
C3687 C3706 1.368 1_455 S
C3687 H3711 0.949 . S
H3688 C3692 0.949 . S
C3689 C3690 1.349 . S
C3689 C3691 1.327 . S
C3689 H3712 0.950 . S
C3690 C3689 1.349 . S
C3690 C3702 1.349 . S
C3691 C3689 1.327 . S
C3691 C3707 1.429 . S
C3691 H3713 0.950 . S
C3692 H3688 0.949 . S
C3692 C3700 1.574 . S
C3692 C3708 1.368 1_655 S
H3693 C3701 0.950 . S
H3694 C3699 0.950 . S
H3695 C3700 0.949 . S
H3696 C3702 0.950 . S
H3697 C3703 0.950 . S
H3698 C3704 0.949 . S
C3699 H3694 0.950 . S
C3699 C3701 1.327 . S
C3699 C3705 1.429 . S
C3700 C3692 1.574 . S
C3700 H3695 0.949 . S
C3700 C3706 1.368 . S
C3701 C3685 1.349 . S
C3701 H3693 0.950 . S
C3701 C3699 1.327 . S
C3702 C3690 1.349 . S
C3702 H3696 0.950 . S
C3702 C3703 1.327 . S
C3703 H3697 0.950 . S
C3703 C3702 1.327 . S
C3703 C3707 1.429 . S
C3704 C3687 1.574 . S
C3704 H3698 0.949 . S
C3704 C3708 1.368 . S
C3705 C3686 1.429 . S
C3705 C3699 1.429 . S
C3705 C3706 1.523 . S
C3706 C3687 1.368 1_655 S
C3706 C3700 1.368 . S
C3706 C3705 1.523 . S
C3707 C3691 1.429 . S
C3707 C3703 1.429 . S
C3707 C3708 1.523 . S
C3708 C3692 1.368 1_455 S
C3708 C3704 1.368 . S
C3708 C3707 1.523 . S
H3709 C3684 0.950 . S
H3710 C3686 0.950 . S
H3711 C3687 0.949 . S
H3712 C3689 0.950 . S
H3713 C3691 0.950 . S
C3714 C3715 1.349 . S
C3714 C3716 1.327 . S
C3714 H3739 0.950 . S
C3715 C3714 1.349 . S
C3715 C3731 1.349 . S
C3716 C3714 1.327 . S
C3716 C3735 1.429 . S
C3716 H3740 0.950 . S
C3717 C3734 1.574 . S
C3717 C3736 1.368 . S
C3717 H3741 0.949 . S
H3718 C3722 0.949 . S
C3719 C3720 1.349 . S
C3719 C3721 1.327 . S
C3719 H3742 0.950 . S
C3720 C3719 1.349 . S
C3720 C3732 1.349 . S
C3721 C3719 1.327 . S
C3721 C3737 1.429 . S
C3721 H3743 0.950 . S
C3722 H3718 0.949 . S
C3722 C3730 1.574 . S
C3722 C3738 1.368 . S
H3723 C3731 0.950 . S
H3724 C3729 0.950 . S
H3725 C3730 0.949 . S
H3726 C3732 0.950 . S
H3727 C3733 0.950 . S
H3728 C3734 0.949 . S
C3729 H3724 0.950 . S
C3729 C3731 1.327 . S
C3729 C3735 1.429 . S
C3730 C3722 1.574 . S
C3730 H3725 0.949 . S
C3730 C3736 1.368 . S
C3731 C3715 1.349 . S
C3731 H3723 0.950 . S
C3731 C3729 1.327 . S
C3732 C3720 1.349 . S
C3732 H3726 0.950 . S
C3732 C3733 1.327 . S
C3733 H3727 0.950 . S
C3733 C3732 1.327 . S
C3733 C3737 1.429 . S
C3734 C3717 1.574 . S
C3734 H3728 0.949 . S
C3734 C3738 1.368 . S
C3735 C3716 1.429 . S
C3735 C3729 1.429 . S
C3735 C3736 1.523 . S
C3736 C3717 1.368 . S
C3736 C3730 1.368 . S
C3736 C3735 1.523 . S
C3737 C3721 1.429 . S
C3737 C3733 1.429 . S
C3737 C3738 1.523 . S
C3738 C3722 1.368 . S
C3738 C3734 1.368 . S
C3738 C3737 1.523 . S
H3739 C3714 0.950 . S
H3740 C3716 0.950 . S
H3741 C3717 0.949 . S
H3742 C3719 0.950 . S
H3743 C3721 0.950 . S
C3744 C3745 1.349 . S
C3744 C3746 1.327 . S
C3744 H3769 0.950 . S
C3745 C3744 1.349 . S
C3745 C3761 1.349 . S
C3746 C3744 1.327 . S
C3746 C3765 1.429 . S
C3746 H3770 0.950 . S
C3747 C3764 1.574 . S
C3747 C3766 1.368 1_556 S
C3747 H3771 0.949 . S
H3748 C3752 0.949 . S
C3749 C3750 1.349 . S
C3749 C3751 1.327 . S
C3749 H3772 0.950 . S
C3750 C3749 1.349 . S
C3750 C3762 1.349 1_556 S
C3751 C3749 1.327 . S
C3751 C3767 1.431 1_556 S
C3751 H3773 0.950 . S
C3752 H3748 0.949 . S
C3752 C3760 1.574 . S
C3752 C3768 1.368 . S
H3753 C3761 0.950 . S
H3754 C3759 0.950 1_556 S
H3755 C3760 0.949 . S
H3756 C3762 0.950 . S
H3757 C3763 0.950 . S
H3758 C3764 0.949 . S
C3759 H3754 0.950 1_554 S
C3759 C3761 1.327 . S
C3759 C3765 1.429 . S
C3760 C3752 1.574 . S
C3760 H3755 0.949 . S
C3760 C3766 1.368 . S
C3761 C3745 1.349 . S
C3761 H3753 0.950 . S
C3761 C3759 1.327 . S
C3762 C3750 1.349 1_554 S
C3762 H3756 0.950 . S
C3762 C3763 1.327 . S
C3763 H3757 0.950 . S
C3763 C3762 1.327 . S
C3763 C3767 1.427 . S
C3764 C3747 1.574 . S
C3764 H3758 0.949 . S
C3764 C3768 1.368 1_556 S
C3765 C3746 1.429 . S
C3765 C3759 1.429 . S
C3765 C3766 1.523 1_545 S
C3766 C3747 1.368 1_554 S
C3766 C3760 1.368 . S
C3766 C3765 1.523 1_565 S
C3767 C3751 1.431 1_554 S
C3767 C3763 1.427 . S
C3767 C3768 1.522 . S
C3768 C3752 1.368 . S
C3768 C3764 1.368 1_554 S
C3768 C3767 1.522 . S
H3769 C3744 0.950 . S
H3770 C3746 0.950 . S
H3771 C3747 0.949 . S
H3772 C3749 0.950 . S
H3773 C3751 0.950 . S
C3774 C3775 1.349 . S
C3774 C3776 1.327 . S
C3774 H3799 0.950 . S
C3775 C3774 1.349 . S
C3775 C3791 1.349 1_556 S
C3776 C3774 1.327 . S
C3776 C3795 1.431 1_556 S
C3776 H3800 0.950 . S
C3777 C3794 1.574 . S
C3777 C3796 1.368 . S
C3777 H3801 0.949 . S
H3778 C3782 0.949 1_556 S
C3779 C3780 1.349 . S
C3779 C3781 1.327 . S
C3779 H3802 0.950 . S
C3780 C3779 1.349 . S
C3780 C3792 1.349 . S
C3781 C3779 1.327 . S
C3781 C3797 1.429 . S
C3781 H3803 0.950 . S
C3782 H3778 0.949 1_554 S
C3782 C3790 1.574 1_554 S
C3782 C3798 1.368 . S
H3783 C3791 0.950 . S
H3784 C3789 0.950 . S
H3785 C3790 0.949 . S
H3786 C3792 0.950 . S
H3787 C3793 0.950 . S
H3788 C3794 0.949 . S
C3789 H3784 0.950 . S
C3789 C3791 1.327 . S
C3789 C3795 1.427 . S
C3790 C3782 1.574 1_556 S
C3790 H3785 0.949 . S
C3790 C3796 1.368 1_556 S
C3791 C3775 1.349 1_554 S
C3791 H3783 0.950 . S
C3791 C3789 1.327 . S
C3792 C3780 1.349 . S
C3792 H3786 0.950 . S
C3792 C3793 1.327 . S
C3793 H3787 0.950 . S
C3793 C3792 1.327 . S
C3793 C3797 1.429 . S
C3794 C3777 1.574 . S
C3794 H3788 0.949 . S
C3794 C3798 1.368 . S
C3795 C3776 1.431 1_554 S
C3795 C3789 1.427 . S
C3795 C3796 1.522 . S
C3796 C3777 1.368 . S
C3796 C3790 1.368 1_554 S
C3796 C3795 1.522 . S
C3797 C3781 1.429 . S
C3797 C3793 1.429 . S
C3797 C3798 1.523 1_655 S
C3798 C3782 1.368 . S
C3798 C3794 1.368 . S
C3798 C3797 1.523 1_455 S
H3799 C3774 0.950 . S
H3800 C3776 0.950 . S
H3801 C3777 0.949 . S
H3802 C3779 0.950 . S
H3803 C3781 0.950 . S
C3804 C3805 1.349 . S
C3804 C3806 1.327 . S
C3804 H3829 0.950 . S
C3805 C3804 1.349 . S
C3805 C3821 1.349 1_556 S
C3806 C3804 1.327 . S
C3806 C3825 1.431 1_556 S
C3806 H3830 0.950 . S
C3807 C3824 1.574 . S
C3807 C3826 1.368 . S
C3807 H3831 0.949 . S
H3808 C3812 0.949 . S
C3809 C3810 1.349 . S
C3809 C3811 1.327 . S
C3809 H3832 0.950 . S
C3810 C3809 1.349 . S
C3810 C3822 1.349 . S
C3811 C3809 1.327 . S
C3811 C3827 1.429 . S
C3811 H3833 0.950 . S
C3812 H3808 0.949 . S
C3812 C3820 1.574 . S
C3812 C3828 1.368 1_556 S
H3813 C3821 0.950 . S
H3814 C3819 0.950 . S
H3815 C3820 0.949 . S
H3816 C3822 0.950 . S
H3817 C3823 0.950 1_556 S
H3818 C3824 0.949 . S
C3819 H3814 0.950 . S
C3819 C3821 1.327 . S
C3819 C3825 1.427 . S
C3820 C3812 1.574 . S
C3820 H3815 0.949 . S
C3820 C3826 1.368 1_556 S
C3821 C3805 1.349 1_554 S
C3821 H3813 0.950 . S
C3821 C3819 1.327 . S
C3822 C3810 1.349 . S
C3822 H3816 0.950 . S
C3822 C3823 1.327 . S
C3823 H3817 0.950 1_554 S
C3823 C3822 1.327 . S
C3823 C3827 1.429 . S
C3824 C3807 1.574 . S
C3824 H3818 0.949 . S
C3824 C3828 1.368 . S
C3825 C3806 1.431 1_554 S
C3825 C3819 1.427 . S
C3825 C3826 1.522 . S
C3826 C3807 1.368 . S
C3826 C3820 1.368 1_554 S
C3826 C3825 1.522 . S
C3827 C3811 1.429 . S
C3827 C3823 1.429 . S
C3827 C3828 1.523 . S
C3828 C3812 1.368 1_554 S
C3828 C3824 1.368 . S
C3828 C3827 1.523 . S
H3829 C3804 0.950 . S
H3830 C3806 0.950 . S
H3831 C3807 0.949 . S
H3832 C3809 0.950 . S
H3833 C3811 0.950 . S
C3834 C3835 1.349 . S
C3834 C3836 1.327 . S
C3834 H3859 0.950 . S
C3835 C3834 1.349 . S
C3835 C3851 1.349 . S
C3836 C3834 1.327 . S
C3836 C3855 1.429 . S
C3836 H3860 0.950 . S
C3837 C3854 1.574 . S
C3837 C3856 1.368 . S
C3837 H3861 0.949 . S
H3838 C3842 0.949 . S
C3839 C3840 1.349 . S
C3839 C3841 1.327 . S
C3839 H3862 0.950 . S
C3840 C3839 1.349 . S
C3840 C3852 1.349 . S
C3841 C3839 1.327 . S
C3841 C3857 1.429 . S
C3841 H3863 0.950 . S
C3842 H3838 0.949 . S
C3842 C3850 1.574 . S
C3842 C3858 1.368 . S
H3843 C3851 0.950 . S
H3844 C3849 0.950 . S
H3845 C3850 0.949 . S
H3846 C3852 0.950 . S
H3847 C3853 0.950 . S
H3848 C3854 0.949 . S
C3849 H3844 0.950 . S
C3849 C3851 1.327 . S
C3849 C3855 1.429 . S
C3850 C3842 1.574 . S
C3850 H3845 0.949 . S
C3850 C3856 1.368 . S
C3851 C3835 1.349 . S
C3851 H3843 0.950 . S
C3851 C3849 1.327 . S
C3852 C3840 1.349 . S
C3852 H3846 0.950 . S
C3852 C3853 1.327 . S
C3853 H3847 0.950 . S
C3853 C3852 1.327 . S
C3853 C3857 1.429 . S
C3854 C3837 1.574 . S
C3854 H3848 0.949 . S
C3854 C3858 1.368 . S
C3855 C3836 1.429 . S
C3855 C3849 1.429 . S
C3855 C3856 1.523 1_455 S
C3856 C3837 1.368 . S
C3856 C3850 1.368 . S
C3856 C3855 1.523 1_655 S
C3857 C3841 1.429 . S
C3857 C3853 1.429 . S
C3857 C3858 1.523 . S
C3858 C3842 1.368 . S
C3858 C3854 1.368 . S
C3858 C3857 1.523 . S
H3859 C3834 0.950 . S
H3860 C3836 0.950 . S
H3861 C3837 0.949 . S
H3862 C3839 0.950 . S
H3863 C3841 0.950 . S
C3864 C3865 1.349 . S
C3864 C3866 1.327 . S
C3864 H3889 0.950 . S
C3865 C3864 1.349 . S
C3865 C3881 1.349 . S
C3866 C3864 1.327 . S
C3866 C3885 1.429 . S
C3866 H3890 0.950 . S
C3867 C3884 1.574 . S
C3867 C3886 1.368 . S
C3867 H3891 0.949 . S
H3868 C3872 0.949 . S
C3869 C3870 1.349 . S
C3869 C3871 1.327 . S
C3869 H3892 0.950 . S
C3870 C3869 1.349 . S
C3870 C3882 1.349 . S
C3871 C3869 1.327 . S
C3871 C3887 1.429 . S
C3871 H3893 0.950 . S
C3872 H3868 0.949 . S
C3872 C3880 1.574 . S
C3872 C3888 1.368 . S
H3873 C3881 0.950 . S
H3874 C3879 0.950 . S
H3875 C3880 0.949 . S
H3876 C3882 0.950 . S
H3877 C3883 0.950 . S
H3878 C3884 0.949 . S
C3879 H3874 0.950 . S
C3879 C3881 1.327 . S
C3879 C3885 1.429 . S
C3880 C3872 1.574 . S
C3880 H3875 0.949 . S
C3880 C3886 1.368 . S
C3881 C3865 1.349 . S
C3881 H3873 0.950 . S
C3881 C3879 1.327 . S
C3882 C3870 1.349 . S
C3882 H3876 0.950 . S
C3882 C3883 1.327 . S
C3883 H3877 0.950 . S
C3883 C3882 1.327 . S
C3883 C3887 1.429 . S
C3884 C3867 1.574 . S
C3884 H3878 0.949 . S
C3884 C3888 1.368 . S
C3885 C3866 1.429 . S
C3885 C3879 1.429 . S
C3885 C3886 1.523 . S
C3886 C3867 1.368 . S
C3886 C3880 1.368 . S
C3886 C3885 1.523 . S
C3887 C3871 1.429 . S
C3887 C3883 1.429 . S
C3887 C3888 1.523 . S
C3888 C3872 1.368 . S
C3888 C3884 1.368 . S
C3888 C3887 1.523 . S
H3889 C3864 0.950 . S
H3890 C3866 0.950 . S
H3891 C3867 0.949 . S
H3892 C3869 0.950 . S
H3893 C3871 0.950 . S
C3894 C3895 1.349 . S
C3894 C3896 1.327 . S
C3894 H3919 0.950 . S
C3895 C3894 1.349 . S
C3895 C3911 1.349 . S
C3896 C3894 1.327 . S
C3896 C3915 1.429 . S
C3896 H3920 0.950 . S
C3897 C3914 1.574 . S
C3897 C3916 1.368 . S
C3897 H3921 0.949 . S
H3898 C3902 0.949 . S
C3899 C3900 1.349 . S
C3899 C3901 1.327 . S
C3899 H3922 0.950 . S
C3900 C3899 1.349 . S
C3900 C3912 1.349 . S
C3901 C3899 1.327 . S
C3901 C3917 1.429 . S
C3901 H3923 0.950 . S
C3902 H3898 0.949 . S
C3902 C3910 1.574 . S
C3902 C3918 1.368 . S
H3903 C3911 0.950 . S
H3904 C3909 0.950 . S
H3905 C3910 0.949 . S
H3906 C3912 0.950 . S
H3907 C3913 0.950 . S
H3908 C3914 0.949 . S
C3909 H3904 0.950 . S
C3909 C3911 1.327 . S
C3909 C3915 1.429 . S
C3910 C3902 1.574 . S
C3910 H3905 0.949 . S
C3910 C3916 1.368 . S
C3911 C3895 1.349 . S
C3911 H3903 0.950 . S
C3911 C3909 1.327 . S
C3912 C3900 1.349 . S
C3912 H3906 0.950 . S
C3912 C3913 1.327 . S
C3913 H3907 0.950 . S
C3913 C3912 1.327 . S
C3913 C3917 1.429 . S
C3914 C3897 1.574 . S
C3914 H3908 0.949 . S
C3914 C3918 1.368 . S
C3915 C3896 1.429 . S
C3915 C3909 1.429 . S
C3915 C3916 1.523 . S
C3916 C3897 1.368 . S
C3916 C3910 1.368 . S
C3916 C3915 1.523 . S
C3917 C3901 1.429 . S
C3917 C3913 1.429 . S
C3917 C3918 1.523 1_565 S
C3918 C3902 1.368 . S
C3918 C3914 1.368 . S
C3918 C3917 1.523 1_545 S
H3919 C3894 0.950 . S
H3920 C3896 0.950 . S
H3921 C3897 0.949 . S
H3922 C3899 0.950 . S
H3923 C3901 0.950 . S
C3924 C3925 1.349 . S
C3924 C3926 1.327 . S
C3924 H3949 0.950 . S
C3925 C3924 1.349 . S
C3925 C3941 1.349 . S
C3926 C3924 1.327 . S
C3926 C3945 1.429 . S
C3926 H3950 0.949 1_556 S
C3927 C3944 1.574 . S
C3927 C3946 1.368 . S
C3927 H3951 0.949 . S
H3928 C3932 0.949 . S
C3929 C3930 1.349 1_556 S
C3929 C3931 1.327 . S
C3929 H3952 0.950 . S
C3930 C3929 1.349 1_554 S
C3930 C3942 1.349 . S
C3931 C3929 1.327 . S
C3931 C3947 1.427 . S
C3931 H3953 0.950 . S
C3932 H3928 0.949 . S
C3932 C3940 1.580 . S
C3932 C3948 1.368 1_554 S
H3933 C3941 0.950 . S
H3934 C3939 0.950 . S
H3935 C3940 0.961 . S
H3936 C3942 0.950 . S
H3937 C3943 0.950 . S
H3938 C3944 0.949 . S
C3939 H3934 0.950 . S
C3939 C3941 1.327 . S
C3939 C3945 1.429 . S
C3940 C3932 1.580 . S
C3940 H3935 0.961 . S
C3940 C3946 1.350 1_554 S
C3941 C3925 1.349 . S
C3941 H3933 0.950 . S
C3941 C3939 1.327 . S
C3942 C3930 1.349 . S
C3942 H3936 0.950 . S
C3942 C3943 1.327 . S
C3943 H3937 0.950 . S
C3943 C3942 1.327 . S
C3943 C3947 1.431 1_554 S
C3944 C3927 1.574 . S
C3944 H3938 0.949 . S
C3944 C3948 1.368 . S
C3945 C3926 1.429 . S
C3945 C3939 1.429 . S
C3945 C3946 1.523 1_565 S
C3946 C3927 1.368 . S
C3946 C3940 1.350 1_556 S
C3946 C3945 1.523 1_545 S
C3947 C3931 1.427 . S
C3947 C3943 1.431 1_556 S
C3947 C3948 1.522 . S
C3948 C3932 1.368 1_556 S
C3948 C3944 1.368 . S
C3948 C3947 1.522 . S
H3949 C3924 0.950 . S
H3950 C3926 0.949 1_554 S
H3951 C3927 0.949 . S
H3952 C3929 0.950 . S
H3953 C3931 0.950 . S
C3954 C3955 1.349 . S
C3954 C3956 1.327 . S
C3954 H3979 0.950 . S
C3955 C3954 1.349 . S
C3955 C3971 1.349 1_554 S
C3956 C3954 1.327 . S
C3956 C3975 1.432 1_554 S
C3956 H3980 0.950 . S
C3957 C3974 1.574 . S
C3957 C3976 1.368 . S
C3957 H3981 0.949 . S
H3958 C3962 0.949 . S
C3959 C3960 1.349 . S
C3959 C3961 1.327 . S
C3959 H3982 0.950 . S
C3960 C3959 1.349 . S
C3960 C3972 1.349 . S
C3961 C3959 1.327 . S
C3961 C3977 1.429 . S
C3961 H3983 0.950 . S
C3962 H3958 0.949 . S
C3962 C3970 1.574 . S
C3962 C3978 1.368 1_554 S
H3963 C3971 0.950 . S
H3964 C3969 0.950 . S
H3965 C3970 0.949 . S
H3966 C3972 0.950 . S
H3967 C3973 0.950 1_554 S
H3968 C3974 0.949 . S
C3969 H3964 0.950 . S
C3969 C3971 1.327 . S
C3969 C3975 1.427 . S
C3970 C3962 1.574 . S
C3970 H3965 0.949 . S
C3970 C3976 1.368 1_554 S
C3971 C3955 1.349 1_556 S
C3971 H3963 0.950 . S
C3971 C3969 1.327 . S
C3972 C3960 1.349 . S
C3972 H3966 0.950 . S
C3972 C3973 1.327 . S
C3973 H3967 0.950 1_556 S
C3973 C3972 1.327 . S
C3973 C3977 1.429 . S
C3974 C3957 1.574 . S
C3974 H3968 0.949 . S
C3974 C3978 1.368 . S
C3975 C3956 1.432 1_556 S
C3975 C3969 1.427 . S
C3975 C3976 1.522 . S
C3976 C3957 1.368 . S
C3976 C3970 1.368 1_556 S
C3976 C3975 1.522 . S
C3977 C3961 1.429 . S
C3977 C3973 1.429 . S
C3977 C3978 1.523 1_455 S
C3978 C3962 1.368 1_556 S
C3978 C3974 1.368 . S
C3978 C3977 1.523 1_655 S
H3979 C3954 0.950 . S
H3980 C3956 0.950 . S
H3981 C3957 0.949 . S
H3982 C3959 0.950 . S
H3983 C3961 0.950 . S
C3984 C3985 1.349 . S
C3984 C3986 1.327 . S
C3984 H4009 0.950 . S
C3985 C3984 1.349 . S
C3985 C4001 1.349 . S
C3986 C3984 1.327 . S
C3986 C4005 1.430 1_554 S
C3986 H4010 0.950 . S
C3987 C4004 1.574 . S
C3987 C4006 1.368 . S
C3987 H4011 0.949 . S
H3988 C3992 0.949 . S
C3989 C3990 1.349 . S
C3989 C3991 1.327 . S
C3989 H4012 0.950 . S
C3990 C3989 1.349 . S
C3990 C4002 1.349 . S
C3991 C3989 1.327 . S
C3991 C4007 1.429 . S
C3991 H4013 0.950 . S
C3992 H3988 0.949 . S
C3992 C4000 1.574 . S
C3992 C4008 1.368 . S
H3993 C4001 0.950 . S
H3994 C3999 0.951 . S
H3995 C4000 0.960 . S
H3996 C4002 0.950 . S
H3997 C4003 0.950 . S
H3998 C4004 0.949 . S
C3999 H3994 0.951 . S
C3999 C4001 1.326 1_556 S
C3999 C4005 1.429 . S
C4000 C3992 1.574 . S
C4000 H3995 0.960 . S
C4000 C4006 1.368 . S
C4001 C3985 1.349 . S
C4001 H3993 0.950 . S
C4001 C3999 1.326 1_554 S
C4002 C3990 1.349 . S
C4002 H3996 0.950 . S
C4002 C4003 1.327 . S
C4003 H3997 0.950 . S
C4003 C4002 1.327 . S
C4003 C4007 1.429 . S
C4004 C3987 1.574 . S
C4004 H3998 0.949 . S
C4004 C4008 1.368 . S
C4005 C3986 1.430 1_556 S
C4005 C3999 1.429 . S
C4005 C4006 1.522 . S
C4006 C3987 1.368 . S
C4006 C4000 1.368 . S
C4006 C4005 1.522 . S
C4007 C3991 1.429 . S
C4007 C4003 1.429 . S
C4007 C4008 1.523 . S
C4008 C3992 1.368 . S
C4008 C4004 1.368 . S
C4008 C4007 1.523 . S
H4009 C3984 0.950 . S
H4010 C3986 0.950 . S
H4011 C3987 0.949 . S
H4012 C3989 0.950 . S
H4013 C3991 0.950 . S
C4014 C4015 1.349 . S
C4014 C4016 1.327 . S
C4014 H4039 0.950 . S
C4015 C4014 1.349 . S
C4015 C4031 1.349 . S
C4016 C4014 1.327 . S
C4016 C4035 1.429 . S
C4016 H4040 0.950 . S
C4017 C4034 1.574 . S
C4017 C4036 1.368 . S
C4017 H4041 0.949 . S
H4018 C4022 0.949 . S
C4019 C4020 1.349 . S
C4019 C4021 1.327 . S
C4019 H4042 0.950 . S
C4020 C4019 1.349 . S
C4020 C4032 1.349 . S
C4021 C4019 1.327 . S
C4021 C4037 1.429 . S
C4021 H4043 0.950 . S
C4022 H4018 0.949 . S
C4022 C4030 1.574 . S
C4022 C4038 1.368 . S
H4023 C4031 0.950 . S
H4024 C4029 0.950 . S
H4025 C4030 0.949 . S
H4026 C4032 0.950 . S
H4027 C4033 0.950 . S
H4028 C4034 0.949 . S
C4029 H4024 0.950 . S
C4029 C4031 1.327 . S
C4029 C4035 1.429 . S
C4030 C4022 1.574 . S
C4030 H4025 0.949 . S
C4030 C4036 1.368 . S
C4031 C4015 1.349 . S
C4031 H4023 0.950 . S
C4031 C4029 1.327 . S
C4032 C4020 1.349 . S
C4032 H4026 0.950 . S
C4032 C4033 1.327 . S
C4033 H4027 0.950 . S
C4033 C4032 1.327 . S
C4033 C4037 1.429 . S
C4034 C4017 1.574 . S
C4034 H4028 0.949 . S
C4034 C4038 1.368 . S
C4035 C4016 1.429 . S
C4035 C4029 1.429 . S
C4035 C4036 1.523 . S
C4036 C4017 1.368 . S
C4036 C4030 1.368 . S
C4036 C4035 1.523 . S
C4037 C4021 1.429 . S
C4037 C4033 1.429 . S
C4037 C4038 1.523 1_655 S
C4038 C4022 1.368 . S
C4038 C4034 1.368 . S
C4038 C4037 1.523 1_455 S
H4039 C4014 0.950 . S
H4040 C4016 0.950 . S
H4041 C4017 0.949 . S
H4042 C4019 0.950 . S
H4043 C4021 0.950 . S
C4044 C4045 1.349 . S
C4044 C4046 1.327 . S
C4044 H4069 0.950 . S
C4045 C4044 1.349 . S
C4045 C4061 1.349 . S
C4046 C4044 1.327 . S
C4046 C4065 1.429 . S
C4046 H4070 0.950 . S
C4047 C4064 1.574 . S
C4047 C4066 1.368 . S
C4047 H4071 0.949 . S
H4048 C4052 0.949 . S
C4049 C4050 1.349 . S
C4049 C4051 1.327 . S
C4049 H4072 0.950 . S
C4050 C4049 1.349 . S
C4050 C4062 1.349 . S
C4051 C4049 1.327 . S
C4051 C4067 1.429 . S
C4051 H4073 0.950 . S
C4052 H4048 0.949 . S
C4052 C4060 1.574 . S
C4052 C4068 1.368 . S
H4053 C4061 0.950 . S
H4054 C4059 0.950 . S
H4055 C4060 0.949 . S
H4056 C4062 0.950 . S
H4057 C4063 0.950 . S
H4058 C4064 0.949 . S
C4059 H4054 0.950 . S
C4059 C4061 1.327 . S
C4059 C4065 1.429 . S
C4060 C4052 1.574 . S
C4060 H4055 0.949 . S
C4060 C4066 1.368 . S
C4061 C4045 1.349 . S
C4061 H4053 0.950 . S
C4061 C4059 1.327 . S
C4062 C4050 1.349 . S
C4062 H4056 0.950 . S
C4062 C4063 1.327 . S
C4063 H4057 0.950 . S
C4063 C4062 1.327 . S
C4063 C4067 1.429 . S
C4064 C4047 1.574 . S
C4064 H4058 0.949 . S
C4064 C4068 1.368 . S
C4065 C4046 1.429 . S
C4065 C4059 1.429 . S
C4065 C4066 1.523 . S
C4066 C4047 1.368 . S
C4066 C4060 1.368 . S
C4066 C4065 1.523 . S
C4067 C4051 1.429 . S
C4067 C4063 1.429 . S
C4067 C4068 1.523 . S
C4068 C4052 1.368 . S
C4068 C4064 1.368 . S
C4068 C4067 1.523 . S
H4069 C4044 0.950 . S
H4070 C4046 0.950 . S
H4071 C4047 0.949 . S
H4072 C4049 0.950 . S
H4073 C4051 0.950 . S
C4074 C4075 1.349 . S
C4074 C4076 1.327 . S
C4074 H4099 0.950 . S
C4075 C4074 1.349 . S
C4075 C4091 1.349 . S
C4076 C4074 1.327 . S
C4076 C4095 1.429 . S
C4076 H4100 0.950 . S
C4077 C4094 1.574 . S
C4077 C4096 1.368 . S
C4077 H4101 0.949 . S
H4078 C4082 0.949 . S
C4079 C4080 1.349 . S
C4079 C4081 1.327 . S
C4079 H4102 0.950 . S
C4080 C4079 1.349 . S
C4080 C4092 1.349 . S
C4081 C4079 1.327 . S
C4081 C4097 1.429 . S
C4081 H4103 0.950 . S
C4082 H4078 0.949 . S
C4082 C4090 1.574 . S
C4082 C4098 1.368 . S
H4083 C4091 0.950 . S
H4084 C4089 0.950 . S
H4085 C4090 0.949 . S
H4086 C4092 0.950 . S
H4087 C4093 0.950 . S
H4088 C4094 0.949 . S
C4089 H4084 0.950 . S
C4089 C4091 1.327 . S
C4089 C4095 1.429 . S
C4090 C4082 1.574 . S
C4090 H4085 0.949 . S
C4090 C4096 1.368 . S
C4091 C4075 1.349 . S
C4091 H4083 0.950 . S
C4091 C4089 1.327 . S
C4092 C4080 1.349 . S
C4092 H4086 0.950 . S
C4092 C4093 1.327 . S
C4093 H4087 0.950 . S
C4093 C4092 1.327 . S
C4093 C4097 1.429 . S
C4094 C4077 1.574 . S
C4094 H4088 0.949 . S
C4094 C4098 1.368 . S
C4095 C4076 1.429 . S
C4095 C4089 1.429 . S
C4095 C4096 1.523 1_545 S
C4096 C4077 1.368 . S
C4096 C4090 1.368 . S
C4096 C4095 1.523 1_565 S
C4097 C4081 1.429 . S
C4097 C4093 1.429 . S
C4097 C4098 1.523 . S
C4098 C4082 1.368 . S
C4098 C4094 1.368 . S
C4098 C4097 1.523 . S
H4099 C4074 0.950 . S
H4100 C4076 0.950 . S
H4101 C4077 0.949 . S
H4102 C4079 0.950 . S
H4103 C4081 0.950 . S
C4104 C4105 1.349 . S
C4104 C4106 1.327 . S
C4104 H4129 0.950 . S
C4105 C4104 1.349 . S
C4105 C4121 1.349 . S
C4106 C4104 1.327 . S
C4106 C4125 1.429 . S
C4106 H4130 0.950 . S
C4107 C4124 1.574 . S
C4107 C4126 1.368 . S
C4107 H4131 0.949 . S
H4108 C4112 0.949 . S
C4109 C4110 1.349 . S
C4109 C4111 1.327 . S
C4109 H4132 0.950 . S
C4110 C4109 1.349 . S
C4110 C4122 1.349 . S
C4111 C4109 1.327 . S
C4111 C4127 1.429 . S
C4111 H4133 0.950 . S
C4112 H4108 0.949 . S
C4112 C4120 1.574 . S
C4112 C4128 1.368 . S
H4113 C4121 0.950 . S
H4114 C4119 0.950 . S
H4115 C4120 0.949 . S
H4116 C4122 0.950 . S
H4117 C4123 0.950 . S
H4118 C4124 0.949 . S
C4119 H4114 0.950 . S
C4119 C4121 1.327 . S
C4119 C4125 1.429 . S
C4120 C4112 1.574 . S
C4120 H4115 0.949 . S
C4120 C4126 1.368 . S
C4121 C4105 1.349 . S
C4121 H4113 0.950 . S
C4121 C4119 1.327 . S
C4122 C4110 1.349 . S
C4122 H4116 0.950 . S
C4122 C4123 1.327 . S
C4123 H4117 0.950 . S
C4123 C4122 1.327 . S
C4123 C4127 1.429 . S
C4124 C4107 1.574 . S
C4124 H4118 0.949 . S
C4124 C4128 1.368 . S
C4125 C4106 1.429 . S
C4125 C4119 1.429 . S
C4125 C4126 1.523 . S
C4126 C4107 1.368 . S
C4126 C4120 1.368 . S
C4126 C4125 1.523 . S
C4127 C4111 1.429 . S
C4127 C4123 1.429 . S
C4127 C4128 1.523 . S
C4128 C4112 1.368 . S
C4128 C4124 1.368 . S
C4128 C4127 1.523 . S
H4129 C4104 0.950 . S
H4130 C4106 0.950 . S
H4131 C4107 0.949 . S
H4132 C4109 0.950 . S
H4133 C4111 0.950 . S
C4134 C4135 1.349 . S
C4134 C4136 1.327 . S
C4134 H4159 0.950 . S
C4135 C4134 1.349 . S
C4135 C4151 1.349 . S
C4136 C4134 1.327 . S
C4136 C4155 1.429 . S
C4136 H4160 0.950 . S
C4137 C4154 1.574 . S
C4137 C4156 1.368 . S
C4137 H4161 0.949 . S
H4138 C4142 0.949 . S
C4139 C4140 1.349 . S
C4139 C4141 1.327 . S
C4139 H4162 0.950 . S
C4140 C4139 1.349 . S
C4140 C4152 1.349 . S
C4141 C4139 1.327 . S
C4141 C4157 1.429 . S
C4141 H4163 0.950 . S
C4142 H4138 0.949 . S
C4142 C4150 1.574 . S
C4142 C4158 1.368 . S
H4143 C4151 0.950 . S
H4144 C4149 0.950 . S
H4145 C4150 0.949 . S
H4146 C4152 0.950 . S
H4147 C4153 0.950 . S
H4148 C4154 0.949 . S
C4149 H4144 0.950 . S
C4149 C4151 1.327 . S
C4149 C4155 1.429 . S
C4150 C4142 1.574 . S
C4150 H4145 0.949 . S
C4150 C4156 1.368 . S
C4151 C4135 1.349 . S
C4151 H4143 0.950 . S
C4151 C4149 1.327 . S
C4152 C4140 1.349 . S
C4152 H4146 0.950 . S
C4152 C4153 1.327 . S
C4153 H4147 0.950 . S
C4153 C4152 1.327 . S
C4153 C4157 1.429 . S
C4154 C4137 1.574 . S
C4154 H4148 0.949 . S
C4154 C4158 1.368 . S
C4155 C4136 1.429 . S
C4155 C4149 1.429 . S
C4155 C4156 1.523 . S
C4156 C4137 1.368 . S
C4156 C4150 1.368 . S
C4156 C4155 1.523 . S
C4157 C4141 1.429 . S
C4157 C4153 1.429 . S
C4157 C4158 1.523 . S
C4158 C4142 1.368 . S
C4158 C4154 1.368 . S
C4158 C4157 1.523 . S
H4159 C4134 0.950 . S
H4160 C4136 0.950 . S
H4161 C4137 0.949 . S
H4162 C4139 0.950 . S
H4163 C4141 0.950 . S
C4164 C4165 1.349 . S
C4164 C4166 1.327 . S
C4164 H4189 0.950 . S
C4165 C4164 1.349 . S
C4165 C4181 1.349 . S
C4166 C4164 1.327 . S
C4166 C4185 1.429 . S
C4166 H4190 0.950 . S
C4167 C4184 1.574 . S
C4167 C4186 1.368 . S
C4167 H4191 0.949 . S
H4168 C4172 0.949 . S
C4169 C4170 1.349 . S
C4169 C4171 1.327 . S
C4169 H4192 0.950 . S
C4170 C4169 1.349 . S
C4170 C4182 1.349 . S
C4171 C4169 1.327 . S
C4171 C4187 1.429 . S
C4171 H4193 0.950 . S
C4172 H4168 0.949 . S
C4172 C4180 1.574 . S
C4172 C4188 1.368 . S
H4173 C4181 0.950 . S
H4174 C4179 0.950 . S
H4175 C4180 0.949 . S
H4176 C4182 0.950 . S
H4177 C4183 0.950 . S
H4178 C4184 0.949 . S
C4179 H4174 0.950 . S
C4179 C4181 1.327 . S
C4179 C4185 1.429 . S
C4180 C4172 1.574 . S
C4180 H4175 0.949 . S
C4180 C4186 1.368 . S
C4181 C4165 1.349 . S
C4181 H4173 0.950 . S
C4181 C4179 1.327 . S
C4182 C4170 1.349 . S
C4182 H4176 0.950 . S
C4182 C4183 1.327 . S
C4183 H4177 0.950 . S
C4183 C4182 1.327 . S
C4183 C4187 1.429 . S
C4184 C4167 1.574 . S
C4184 H4178 0.949 . S
C4184 C4188 1.368 . S
C4185 C4166 1.429 . S
C4185 C4179 1.429 . S
C4185 C4186 1.523 . S
C4186 C4167 1.368 . S
C4186 C4180 1.368 . S
C4186 C4185 1.523 . S
C4187 C4171 1.429 . S
C4187 C4183 1.429 . S
C4187 C4188 1.523 . S
C4188 C4172 1.368 . S
C4188 C4184 1.368 . S
C4188 C4187 1.523 . S
H4189 C4164 0.950 . S
H4190 C4166 0.950 . S
H4191 C4167 0.949 . S
H4192 C4169 0.950 . S
H4193 C4171 0.950 . S
C4194 C4195 1.349 . S
C4194 C4196 1.327 . S
C4194 H4219 0.950 . S
C4195 C4194 1.349 . S
C4195 C4211 1.349 . S
C4196 C4194 1.327 . S
C4196 C4215 1.429 . S
C4196 H4220 0.950 . S
C4197 C4214 1.574 . S
C4197 C4216 1.368 . S
C4197 H4221 0.949 . S
H4198 C4202 0.949 . S
C4199 C4200 1.349 . S
C4199 C4201 1.327 . S
C4199 H4222 0.950 . S
C4200 C4199 1.349 . S
C4200 C4212 1.349 . S
C4201 C4199 1.327 . S
C4201 C4217 1.429 . S
C4201 H4223 0.950 . S
C4202 H4198 0.949 . S
C4202 C4210 1.574 . S
C4202 C4218 1.368 . S
H4203 C4211 0.950 . S
H4204 C4209 0.950 . S
H4205 C4210 0.949 . S
H4206 C4212 0.950 . S
H4207 C4213 0.950 . S
H4208 C4214 0.949 . S
C4209 H4204 0.950 . S
C4209 C4211 1.327 . S
C4209 C4215 1.429 . S
C4210 C4202 1.574 . S
C4210 H4205 0.949 . S
C4210 C4216 1.368 . S
C4211 C4195 1.349 . S
C4211 H4203 0.950 . S
C4211 C4209 1.327 . S
C4212 C4200 1.349 . S
C4212 H4206 0.950 . S
C4212 C4213 1.327 . S
C4213 H4207 0.950 . S
C4213 C4212 1.327 . S
C4213 C4217 1.429 . S
C4214 C4197 1.574 . S
C4214 H4208 0.949 . S
C4214 C4218 1.368 . S
C4215 C4196 1.429 . S
C4215 C4209 1.429 . S
C4215 C4216 1.523 . S
C4216 C4197 1.368 . S
C4216 C4210 1.368 . S
C4216 C4215 1.523 . S
C4217 C4201 1.429 . S
C4217 C4213 1.429 . S
C4217 C4218 1.523 . S
C4218 C4202 1.368 . S
C4218 C4214 1.368 . S
C4218 C4217 1.523 . S
H4219 C4194 0.950 . S
H4220 C4196 0.950 . S
H4221 C4197 0.949 . S
H4222 C4199 0.950 . S
H4223 C4201 0.950 . S
C4224 C4225 1.349 . S
C4224 C4226 1.327 . S
C4224 H4249 0.950 . S
C4225 C4224 1.349 . S
C4225 C4241 1.349 . S
C4226 C4224 1.327 . S
C4226 C4245 1.429 . S
C4226 H4250 0.950 . S
C4227 C4244 1.574 . S
C4227 C4246 1.368 . S
C4227 H4251 0.949 . S
H4228 C4232 0.949 . S
C4229 C4230 1.349 . S
C4229 C4231 1.327 . S
C4229 H4252 0.950 . S
C4230 C4229 1.349 . S
C4230 C4242 1.349 . S
C4231 C4229 1.327 . S
C4231 C4247 1.429 . S
C4231 H4253 0.950 . S
C4232 H4228 0.949 . S
C4232 C4240 1.574 . S
C4232 C4248 1.368 . S
H4233 C4241 0.950 . S
H4234 C4239 0.950 . S
H4235 C4240 0.949 . S
H4236 C4242 0.950 . S
H4237 C4243 0.950 . S
H4238 C4244 0.949 . S
C4239 H4234 0.950 . S
C4239 C4241 1.327 . S
C4239 C4245 1.429 . S
C4240 C4232 1.574 . S
C4240 H4235 0.949 . S
C4240 C4246 1.368 . S
C4241 C4225 1.349 . S
C4241 H4233 0.950 . S
C4241 C4239 1.327 . S
C4242 C4230 1.349 . S
C4242 H4236 0.950 . S
C4242 C4243 1.327 . S
C4243 H4237 0.950 . S
C4243 C4242 1.327 . S
C4243 C4247 1.429 . S
C4244 C4227 1.574 . S
C4244 H4238 0.949 . S
C4244 C4248 1.368 . S
C4245 C4226 1.429 . S
C4245 C4239 1.429 . S
C4245 C4246 1.523 . S
C4246 C4227 1.368 . S
C4246 C4240 1.368 . S
C4246 C4245 1.523 . S
C4247 C4231 1.429 . S
C4247 C4243 1.429 . S
C4247 C4248 1.523 . S
C4248 C4232 1.368 . S
C4248 C4244 1.368 . S
C4248 C4247 1.523 . S
H4249 C4224 0.950 . S
H4250 C4226 0.950 . S
H4251 C4227 0.949 . S
H4252 C4229 0.950 . S
H4253 C4231 0.950 . S
C4254 C4255 1.349 . S
C4254 C4256 1.327 . S
C4254 H4279 0.950 . S
C4255 C4254 1.349 . S
C4255 C4271 1.349 . S
C4256 C4254 1.327 . S
C4256 C4275 1.429 . S
C4256 H4280 0.950 . S
C4257 C4274 1.574 . S
C4257 C4276 1.368 . S
C4257 H4281 0.949 . S
H4258 C4262 0.949 . S
C4259 C4260 1.349 . S
C4259 C4261 1.327 . S
C4259 H4282 0.950 . S
C4260 C4259 1.349 . S
C4260 C4272 1.349 . S
C4261 C4259 1.327 . S
C4261 C4277 1.429 . S
C4261 H4283 0.950 . S
C4262 H4258 0.949 . S
C4262 C4270 1.574 . S
C4262 C4278 1.368 . S
H4263 C4271 0.950 . S
H4264 C4269 0.950 . S
H4265 C4270 0.949 . S
H4266 C4272 0.950 . S
H4267 C4273 0.950 . S
H4268 C4274 0.949 . S
C4269 H4264 0.950 . S
C4269 C4271 1.327 . S
C4269 C4275 1.429 . S
C4270 C4262 1.574 . S
C4270 H4265 0.949 . S
C4270 C4276 1.368 . S
C4271 C4255 1.349 . S
C4271 H4263 0.950 . S
C4271 C4269 1.327 . S
C4272 C4260 1.349 . S
C4272 H4266 0.950 . S
C4272 C4273 1.327 . S
C4273 H4267 0.950 . S
C4273 C4272 1.327 . S
C4273 C4277 1.429 . S
C4274 C4257 1.574 . S
C4274 H4268 0.949 . S
C4274 C4278 1.368 . S
C4275 C4256 1.429 . S
C4275 C4269 1.429 . S
C4275 C4276 1.523 . S
C4276 C4257 1.368 . S
C4276 C4270 1.368 . S
C4276 C4275 1.523 . S
C4277 C4261 1.429 . S
C4277 C4273 1.429 . S
C4277 C4278 1.523 . S
C4278 C4262 1.368 . S
C4278 C4274 1.368 . S
C4278 C4277 1.523 . S
H4279 C4254 0.950 . S
H4280 C4256 0.950 . S
H4281 C4257 0.949 . S
H4282 C4259 0.950 . S
H4283 C4261 0.950 . S
C4284 C4285 1.349 . S
C4284 C4286 1.327 . S
C4284 H4309 0.950 . S
C4285 C4284 1.349 . S
C4285 C4301 1.349 . S
C4286 C4284 1.327 . S
C4286 C4305 1.429 . S
C4286 H4310 0.950 . S
C4287 C4304 1.574 . S
C4287 C4306 1.368 . S
C4287 H4311 0.949 . S
H4288 C4292 0.949 . S
C4289 C4290 1.349 . S
C4289 C4291 1.327 . S
C4289 H4312 0.950 . S
C4290 C4289 1.349 . S
C4290 C4302 1.349 . S
C4291 C4289 1.327 . S
C4291 C4307 1.429 . S
C4291 H4313 0.950 . S
C4292 H4288 0.949 . S
C4292 C4300 1.574 . S
C4292 C4308 1.368 . S
H4293 C4301 0.950 . S
H4294 C4299 0.950 . S
H4295 C4300 0.949 . S
H4296 C4302 0.950 . S
H4297 C4303 0.950 . S
H4298 C4304 0.949 . S
C4299 H4294 0.950 . S
C4299 C4301 1.327 . S
C4299 C4305 1.429 . S
C4300 C4292 1.574 . S
C4300 H4295 0.949 . S
C4300 C4306 1.368 . S
C4301 C4285 1.349 . S
C4301 H4293 0.950 . S
C4301 C4299 1.327 . S
C4302 C4290 1.349 . S
C4302 H4296 0.950 . S
C4302 C4303 1.327 . S
C4303 H4297 0.950 . S
C4303 C4302 1.327 . S
C4303 C4307 1.429 . S
C4304 C4287 1.574 . S
C4304 H4298 0.949 . S
C4304 C4308 1.368 . S
C4305 C4286 1.429 . S
C4305 C4299 1.429 . S
C4305 C4306 1.523 . S
C4306 C4287 1.368 . S
C4306 C4300 1.368 . S
C4306 C4305 1.523 . S
C4307 C4291 1.429 . S
C4307 C4303 1.429 . S
C4307 C4308 1.523 . S
C4308 C4292 1.368 . S
C4308 C4304 1.368 . S
C4308 C4307 1.523 . S
H4309 C4284 0.950 . S
H4310 C4286 0.950 . S
H4311 C4287 0.949 . S
H4312 C4289 0.950 . S
H4313 C4291 0.950 . S
C4314 C4315 1.349 . S
C4314 C4316 1.327 . S
C4314 H4339 0.950 . S
C4315 C4314 1.349 . S
C4315 C4331 1.349 . S
C4316 C4314 1.327 . S
C4316 C4335 1.429 . S
C4316 H4340 0.950 . S
C4317 C4334 1.574 . S
C4317 C4336 1.368 . S
C4317 H4341 0.949 . S
H4318 C4322 0.949 . S
C4319 C4320 1.349 . S
C4319 C4321 1.327 . S
C4319 H4342 0.950 . S
C4320 C4319 1.349 . S
C4320 C4332 1.349 . S
C4321 C4319 1.327 . S
C4321 C4337 1.429 . S
C4321 H4343 0.950 . S
C4322 H4318 0.949 . S
C4322 C4330 1.574 . S
C4322 C4338 1.368 . S
H4323 C4331 0.950 . S
H4324 C4329 0.950 . S
H4325 C4330 0.949 . S
H4326 C4332 0.950 . S
H4327 C4333 0.950 . S
H4328 C4334 0.949 . S
C4329 H4324 0.950 . S
C4329 C4331 1.327 . S
C4329 C4335 1.429 . S
C4330 C4322 1.574 . S
C4330 H4325 0.949 . S
C4330 C4336 1.368 . S
C4331 C4315 1.349 . S
C4331 H4323 0.950 . S
C4331 C4329 1.327 . S
C4332 C4320 1.349 . S
C4332 H4326 0.950 . S
C4332 C4333 1.327 . S
C4333 H4327 0.950 . S
C4333 C4332 1.327 . S
C4333 C4337 1.429 . S
C4334 C4317 1.574 . S
C4334 H4328 0.949 . S
C4334 C4338 1.368 . S
C4335 C4316 1.429 . S
C4335 C4329 1.429 . S
C4335 C4336 1.523 . S
C4336 C4317 1.368 . S
C4336 C4330 1.368 . S
C4336 C4335 1.523 . S
C4337 C4321 1.429 . S
C4337 C4333 1.429 . S
C4337 C4338 1.523 . S
C4338 C4322 1.368 . S
C4338 C4334 1.368 . S
C4338 C4337 1.523 . S
H4339 C4314 0.950 . S
H4340 C4316 0.950 . S
H4341 C4317 0.949 . S
H4342 C4319 0.950 . S
H4343 C4321 0.950 . S
C4344 C4345 1.349 . S
C4344 C4346 1.327 . S
C4344 H4369 0.950 . S
C4345 C4344 1.349 . S
C4345 C4361 1.349 . S
C4346 C4344 1.327 . S
C4346 C4365 1.429 . S
C4346 H4370 0.950 . S
C4347 C4364 1.574 . S
C4347 C4366 1.368 . S
C4347 H4371 0.949 . S
H4348 C4352 0.949 . S
C4349 C4350 1.349 . S
C4349 C4351 1.327 . S
C4349 H4372 0.950 . S
C4350 C4349 1.349 . S
C4350 C4362 1.349 . S
C4351 C4349 1.327 . S
C4351 C4367 1.429 . S
C4351 H4373 0.950 . S
C4352 H4348 0.949 . S
C4352 C4360 1.574 . S
C4352 C4368 1.368 . S
H4353 C4361 0.950 . S
H4354 C4359 0.950 . S
H4355 C4360 0.949 . S
H4356 C4362 0.950 . S
H4357 C4363 0.950 . S
H4358 C4364 0.949 . S
C4359 H4354 0.950 . S
C4359 C4361 1.327 . S
C4359 C4365 1.429 . S
C4360 C4352 1.574 . S
C4360 H4355 0.949 . S
C4360 C4366 1.368 . S
C4361 C4345 1.349 . S
C4361 H4353 0.950 . S
C4361 C4359 1.327 . S
C4362 C4350 1.349 . S
C4362 H4356 0.950 . S
C4362 C4363 1.327 . S
C4363 H4357 0.950 . S
C4363 C4362 1.327 . S
C4363 C4367 1.429 . S
C4364 C4347 1.574 . S
C4364 H4358 0.949 . S
C4364 C4368 1.368 . S
C4365 C4346 1.429 . S
C4365 C4359 1.429 . S
C4365 C4366 1.523 . S
C4366 C4347 1.368 . S
C4366 C4360 1.368 . S
C4366 C4365 1.523 . S
C4367 C4351 1.429 . S
C4367 C4363 1.429 . S
C4367 C4368 1.523 . S
C4368 C4352 1.368 . S
C4368 C4364 1.368 . S
C4368 C4367 1.523 . S
H4369 C4344 0.950 . S
H4370 C4346 0.950 . S
H4371 C4347 0.949 . S
H4372 C4349 0.950 . S
H4373 C4351 0.950 . S
C4374 C4375 1.349 . S
C4374 C4376 1.327 . S
C4374 H4399 0.950 . S
C4375 C4374 1.349 . S
C4375 C4391 1.349 . S
C4376 C4374 1.327 . S
C4376 C4395 1.429 . S
C4376 H4400 0.950 . S
C4377 C4394 1.574 . S
C4377 C4396 1.368 . S
C4377 H4401 0.949 . S
H4378 C4382 0.949 . S
C4379 C4380 1.349 . S
C4379 C4381 1.327 . S
C4379 H4402 0.950 . S
C4380 C4379 1.349 . S
C4380 C4392 1.349 . S
C4381 C4379 1.327 . S
C4381 C4397 1.429 . S
C4381 H4403 0.950 . S
C4382 H4378 0.949 . S
C4382 C4390 1.574 . S
C4382 C4398 1.368 . S
H4383 C4391 0.950 . S
H4384 C4389 0.950 . S
H4385 C4390 0.949 . S
H4386 C4392 0.950 . S
H4387 C4393 0.950 . S
H4388 C4394 0.949 . S
C4389 H4384 0.950 . S
C4389 C4391 1.327 . S
C4389 C4395 1.429 . S
C4390 C4382 1.574 . S
C4390 H4385 0.949 . S
C4390 C4396 1.368 . S
C4391 C4375 1.349 . S
C4391 H4383 0.950 . S
C4391 C4389 1.327 . S
C4392 C4380 1.349 . S
C4392 H4386 0.950 . S
C4392 C4393 1.327 . S
C4393 H4387 0.950 . S
C4393 C4392 1.327 . S
C4393 C4397 1.429 . S
C4394 C4377 1.574 . S
C4394 H4388 0.949 . S
C4394 C4398 1.368 . S
C4395 C4376 1.429 . S
C4395 C4389 1.429 . S
C4395 C4396 1.523 . S
C4396 C4377 1.368 . S
C4396 C4390 1.368 . S
C4396 C4395 1.523 . S
C4397 C4381 1.429 . S
C4397 C4393 1.429 . S
C4397 C4398 1.523 . S
C4398 C4382 1.368 . S
C4398 C4394 1.368 . S
C4398 C4397 1.523 . S
H4399 C4374 0.950 . S
H4400 C4376 0.950 . S
H4401 C4377 0.949 . S
H4402 C4379 0.950 . S
H4403 C4381 0.950 . S
C4404 C4405 1.349 . S
C4404 C4406 1.327 . S
C4404 H4429 0.950 . S
C4405 C4404 1.349 . S
C4405 C4421 1.349 . S
C4406 C4404 1.327 . S
C4406 C4425 1.429 . S
C4406 H4430 0.950 . S
C4407 C4424 1.574 . S
C4407 C4426 1.368 . S
C4407 H4431 0.949 . S
H4408 C4412 0.949 . S
C4409 C4410 1.349 . S
C4409 C4411 1.327 . S
C4409 H4432 0.950 . S
C4410 C4409 1.349 . S
C4410 C4422 1.349 . S
C4411 C4409 1.327 . S
C4411 C4427 1.429 . S
C4411 H4433 0.950 . S
C4412 H4408 0.949 . S
C4412 C4420 1.574 . S
C4412 C4428 1.368 . S
H4413 C4421 0.950 . S
H4414 C4419 0.950 . S
H4415 C4420 0.949 . S
H4416 C4422 0.950 . S
H4417 C4423 0.950 . S
H4418 C4424 0.949 . S
C4419 H4414 0.950 . S
C4419 C4421 1.327 . S
C4419 C4425 1.429 . S
C4420 C4412 1.574 . S
C4420 H4415 0.949 . S
C4420 C4426 1.368 . S
C4421 C4405 1.349 . S
C4421 H4413 0.950 . S
C4421 C4419 1.327 . S
C4422 C4410 1.349 . S
C4422 H4416 0.950 . S
C4422 C4423 1.327 . S
C4423 H4417 0.950 . S
C4423 C4422 1.327 . S
C4423 C4427 1.429 . S
C4424 C4407 1.574 . S
C4424 H4418 0.949 . S
C4424 C4428 1.368 . S
C4425 C4406 1.429 . S
C4425 C4419 1.429 . S
C4425 C4426 1.523 . S
C4426 C4407 1.368 . S
C4426 C4420 1.368 . S
C4426 C4425 1.523 . S
C4427 C4411 1.429 . S
C4427 C4423 1.429 . S
C4427 C4428 1.523 . S
C4428 C4412 1.368 . S
C4428 C4424 1.368 . S
C4428 C4427 1.523 . S
H4429 C4404 0.950 . S
H4430 C4406 0.950 . S
H4431 C4407 0.949 . S
H4432 C4409 0.950 . S
H4433 C4411 0.950 . S
C4434 C4435 1.349 . S
C4434 C4436 1.327 . S
C4434 H4459 0.950 . S
C4435 C4434 1.349 . S
C4435 C4451 1.349 . S
C4436 C4434 1.327 . S
C4436 C4455 1.429 . S
C4436 H4460 0.950 . S
C4437 C4454 1.574 . S
C4437 C4456 1.368 . S
C4437 H4461 0.949 . S
H4438 C4442 0.949 . S
C4439 C4440 1.349 . S
C4439 C4441 1.327 . S
C4439 H4462 0.950 . S
C4440 C4439 1.349 . S
C4440 C4452 1.349 . S
C4441 C4439 1.327 . S
C4441 C4457 1.429 . S
C4441 H4463 0.950 . S
C4442 H4438 0.949 . S
C4442 C4450 1.574 . S
C4442 C4458 1.368 . S
H4443 C4451 0.950 . S
H4444 C4449 0.950 . S
H4445 C4450 0.949 . S
H4446 C4452 0.950 . S
H4447 C4453 0.950 . S
H4448 C4454 0.949 . S
C4449 H4444 0.950 . S
C4449 C4451 1.327 . S
C4449 C4455 1.429 . S
C4450 C4442 1.574 . S
C4450 H4445 0.949 . S
C4450 C4456 1.368 . S
C4451 C4435 1.349 . S
C4451 H4443 0.950 . S
C4451 C4449 1.327 . S
C4452 C4440 1.349 . S
C4452 H4446 0.950 . S
C4452 C4453 1.327 . S
C4453 H4447 0.950 . S
C4453 C4452 1.327 . S
C4453 C4457 1.429 . S
C4454 C4437 1.574 . S
C4454 H4448 0.949 . S
C4454 C4458 1.368 . S
C4455 C4436 1.429 . S
C4455 C4449 1.429 . S
C4455 C4456 1.523 . S
C4456 C4437 1.368 . S
C4456 C4450 1.368 . S
C4456 C4455 1.523 . S
C4457 C4441 1.429 . S
C4457 C4453 1.429 . S
C4457 C4458 1.523 . S
C4458 C4442 1.368 . S
C4458 C4454 1.368 . S
C4458 C4457 1.523 . S
H4459 C4434 0.950 . S
H4460 C4436 0.950 . S
H4461 C4437 0.949 . S
H4462 C4439 0.950 . S
H4463 C4441 0.950 . S
C4464 C4465 1.349 . S
C4464 C4466 1.327 . S
C4464 H4489 0.950 . S
C4465 C4464 1.349 . S
C4465 C4481 1.349 . S
C4466 C4464 1.327 . S
C4466 C4485 1.429 . S
C4466 H4490 0.950 . S
C4467 C4484 1.574 . S
C4467 C4486 1.368 . S
C4467 H4491 0.949 . S
H4468 C4472 0.949 . S
C4469 C4470 1.349 . S
C4469 C4471 1.327 . S
C4469 H4492 0.950 . S
C4470 C4469 1.349 . S
C4470 C4482 1.349 . S
C4471 C4469 1.327 . S
C4471 C4487 1.429 . S
C4471 H4493 0.950 . S
C4472 H4468 0.949 . S
C4472 C4480 1.574 . S
C4472 C4488 1.368 . S
H4473 C4481 0.950 . S
H4474 C4479 0.950 . S
H4475 C4480 0.949 . S
H4476 C4482 0.950 . S
H4477 C4483 0.950 . S
H4478 C4484 0.949 . S
C4479 H4474 0.950 . S
C4479 C4481 1.327 . S
C4479 C4485 1.429 . S
C4480 C4472 1.574 . S
C4480 H4475 0.949 . S
C4480 C4486 1.368 . S
C4481 C4465 1.349 . S
C4481 H4473 0.950 . S
C4481 C4479 1.327 . S
C4482 C4470 1.349 . S
C4482 H4476 0.950 . S
C4482 C4483 1.327 . S
C4483 H4477 0.950 . S
C4483 C4482 1.327 . S
C4483 C4487 1.429 . S
C4484 C4467 1.574 . S
C4484 H4478 0.949 . S
C4484 C4488 1.368 . S
C4485 C4466 1.429 . S
C4485 C4479 1.429 . S
C4485 C4486 1.523 . S
C4486 C4467 1.368 . S
C4486 C4480 1.368 . S
C4486 C4485 1.523 . S
C4487 C4471 1.429 . S
C4487 C4483 1.429 . S
C4487 C4488 1.523 . S
C4488 C4472 1.368 . S
C4488 C4484 1.368 . S
C4488 C4487 1.523 . S
H4489 C4464 0.950 . S
H4490 C4466 0.950 . S
H4491 C4467 0.949 . S
H4492 C4469 0.950 . S
H4493 C4471 0.950 . S
C4494 C4495 1.349 . S
C4494 C4496 1.327 . S
C4494 H4519 0.950 . S
C4495 C4494 1.349 . S
C4495 C4511 1.349 . S
C4496 C4494 1.327 . S
C4496 C4515 1.429 . S
C4496 H4520 0.950 . S
C4497 C4514 1.574 . S
C4497 C4516 1.368 . S
C4497 H4521 0.949 . S
H4498 C4502 0.949 . S
C4499 C4500 1.349 . S
C4499 C4501 1.327 . S
C4499 H4522 0.950 . S
C4500 C4499 1.349 . S
C4500 C4512 1.349 . S
C4501 C4499 1.327 . S
C4501 C4517 1.429 . S
C4501 H4523 0.950 . S
C4502 H4498 0.949 . S
C4502 C4510 1.574 . S
C4502 C4518 1.368 . S
H4503 C4511 0.950 . S
H4504 C4509 0.950 . S
H4505 C4510 0.949 . S
H4506 C4512 0.950 . S
H4507 C4513 0.950 . S
H4508 C4514 0.949 . S
C4509 H4504 0.950 . S
C4509 C4511 1.327 . S
C4509 C4515 1.429 . S
C4510 C4502 1.574 . S
C4510 H4505 0.949 . S
C4510 C4516 1.368 . S
C4511 C4495 1.349 . S
C4511 H4503 0.950 . S
C4511 C4509 1.327 . S
C4512 C4500 1.349 . S
C4512 H4506 0.950 . S
C4512 C4513 1.327 . S
C4513 H4507 0.950 . S
C4513 C4512 1.327 . S
C4513 C4517 1.429 . S
C4514 C4497 1.574 . S
C4514 H4508 0.949 . S
C4514 C4518 1.368 . S
C4515 C4496 1.429 . S
C4515 C4509 1.429 . S
C4515 C4516 1.523 . S
C4516 C4497 1.368 . S
C4516 C4510 1.368 . S
C4516 C4515 1.523 . S
C4517 C4501 1.429 . S
C4517 C4513 1.429 . S
C4517 C4518 1.523 . S
C4518 C4502 1.368 . S
C4518 C4514 1.368 . S
C4518 C4517 1.523 . S
H4519 C4494 0.950 . S
H4520 C4496 0.950 . S
H4521 C4497 0.949 . S
H4522 C4499 0.950 . S
H4523 C4501 0.950 . S
C4524 C4525 1.349 . S
C4524 C4526 1.327 . S
C4524 H4549 0.950 . S
C4525 C4524 1.349 . S
C4525 C4541 1.349 . S
C4526 C4524 1.327 . S
C4526 C4545 1.429 . S
C4526 H4550 0.950 . S
C4527 C4544 1.574 . S
C4527 C4546 1.368 . S
C4527 H4551 0.949 . S
H4528 C4532 0.949 . S
C4529 C4530 1.349 . S
C4529 C4531 1.327 . S
C4529 H4552 0.950 . S
C4530 C4529 1.349 . S
C4530 C4542 1.349 . S
C4531 C4529 1.327 . S
C4531 C4547 1.429 . S
C4531 H4553 0.950 . S
C4532 H4528 0.949 . S
C4532 C4540 1.574 . S
C4532 C4548 1.368 . S
H4533 C4541 0.950 . S
H4534 C4539 0.950 . S
H4535 C4540 0.949 . S
H4536 C4542 0.950 . S
H4537 C4543 0.950 . S
H4538 C4544 0.949 . S
C4539 H4534 0.950 . S
C4539 C4541 1.327 . S
C4539 C4545 1.429 . S
C4540 C4532 1.574 . S
C4540 H4535 0.949 . S
C4540 C4546 1.368 . S
C4541 C4525 1.349 . S
C4541 H4533 0.950 . S
C4541 C4539 1.327 . S
C4542 C4530 1.349 . S
C4542 H4536 0.950 . S
C4542 C4543 1.327 . S
C4543 H4537 0.950 . S
C4543 C4542 1.327 . S
C4543 C4547 1.429 . S
C4544 C4527 1.574 . S
C4544 H4538 0.949 . S
C4544 C4548 1.368 . S
C4545 C4526 1.429 . S
C4545 C4539 1.429 . S
C4545 C4546 1.523 . S
C4546 C4527 1.368 . S
C4546 C4540 1.368 . S
C4546 C4545 1.523 . S
C4547 C4531 1.429 . S
C4547 C4543 1.429 . S
C4547 C4548 1.523 . S
C4548 C4532 1.368 . S
C4548 C4544 1.368 . S
C4548 C4547 1.523 . S
H4549 C4524 0.950 . S
H4550 C4526 0.950 . S
H4551 C4527 0.949 . S
H4552 C4529 0.950 . S
H4553 C4531 0.950 . S
C4554 C4555 1.349 . S
C4554 C4556 1.327 . S
C4554 H4579 0.950 . S
C4555 C4554 1.349 . S
C4555 C4571 1.349 . S
C4556 C4554 1.327 . S
C4556 C4575 1.429 . S
C4556 H4580 0.950 . S
C4557 C4574 1.574 . S
C4557 C4576 1.368 . S
C4557 H4581 0.949 . S
H4558 C4562 0.949 . S
C4559 C4560 1.349 . S
C4559 C4561 1.327 . S
C4559 H4582 0.950 . S
C4560 C4559 1.349 . S
C4560 C4572 1.349 . S
C4561 C4559 1.327 . S
C4561 C4577 1.429 . S
C4561 H4583 0.950 . S
C4562 H4558 0.949 . S
C4562 C4570 1.574 . S
C4562 C4578 1.368 . S
H4563 C4571 0.950 . S
H4564 C4569 0.950 . S
H4565 C4570 0.949 . S
H4566 C4572 0.950 . S
H4567 C4573 0.950 . S
H4568 C4574 0.949 . S
C4569 H4564 0.950 . S
C4569 C4571 1.327 . S
C4569 C4575 1.429 . S
C4570 C4562 1.574 . S
C4570 H4565 0.949 . S
C4570 C4576 1.368 . S
C4571 C4555 1.349 . S
C4571 H4563 0.950 . S
C4571 C4569 1.327 . S
C4572 C4560 1.349 . S
C4572 H4566 0.950 . S
C4572 C4573 1.327 . S
C4573 H4567 0.950 . S
C4573 C4572 1.327 . S
C4573 C4577 1.429 . S
C4574 C4557 1.574 . S
C4574 H4568 0.949 . S
C4574 C4578 1.368 . S
C4575 C4556 1.429 . S
C4575 C4569 1.429 . S
C4575 C4576 1.523 . S
C4576 C4557 1.368 . S
C4576 C4570 1.368 . S
C4576 C4575 1.523 . S
C4577 C4561 1.429 . S
C4577 C4573 1.429 . S
C4577 C4578 1.523 . S
C4578 C4562 1.368 . S
C4578 C4574 1.368 . S
C4578 C4577 1.523 . S
H4579 C4554 0.950 . S
H4580 C4556 0.950 . S
H4581 C4557 0.949 . S
H4582 C4559 0.950 . S
H4583 C4561 0.950 . S
C4584 C4585 1.349 . S
C4584 C4586 1.327 . S
C4584 H4609 0.950 . S
C4585 C4584 1.349 . S
C4585 C4601 1.349 . S
C4586 C4584 1.327 . S
C4586 C4605 1.429 . S
C4586 H4610 0.950 . S
C4587 C4604 1.574 . S
C4587 C4606 1.368 . S
C4587 H4611 0.949 . S
H4588 C4592 0.949 . S
C4589 C4590 1.349 . S
C4589 C4591 1.327 . S
C4589 H4612 0.950 . S
C4590 C4589 1.349 . S
C4590 C4602 1.349 . S
C4591 C4589 1.327 . S
C4591 C4607 1.429 . S
C4591 H4613 0.950 . S
C4592 H4588 0.949 . S
C4592 C4600 1.574 . S
C4592 C4608 1.368 . S
H4593 C4601 0.950 . S
H4594 C4599 0.950 . S
H4595 C4600 0.949 . S
H4596 C4602 0.950 . S
H4597 C4603 0.950 . S
H4598 C4604 0.949 . S
C4599 H4594 0.950 . S
C4599 C4601 1.327 . S
C4599 C4605 1.429 . S
C4600 C4592 1.574 . S
C4600 H4595 0.949 . S
C4600 C4606 1.368 . S
C4601 C4585 1.349 . S
C4601 H4593 0.950 . S
C4601 C4599 1.327 . S
C4602 C4590 1.349 . S
C4602 H4596 0.950 . S
C4602 C4603 1.327 . S
C4603 H4597 0.950 . S
C4603 C4602 1.327 . S
C4603 C4607 1.429 . S
C4604 C4587 1.574 . S
C4604 H4598 0.949 . S
C4604 C4608 1.368 . S
C4605 C4586 1.429 . S
C4605 C4599 1.429 . S
C4605 C4606 1.523 . S
C4606 C4587 1.368 . S
C4606 C4600 1.368 . S
C4606 C4605 1.523 . S
C4607 C4591 1.429 . S
C4607 C4603 1.429 . S
C4607 C4608 1.523 . S
C4608 C4592 1.368 . S
C4608 C4604 1.368 . S
C4608 C4607 1.523 . S
H4609 C4584 0.950 . S
H4610 C4586 0.950 . S
H4611 C4587 0.949 . S
H4612 C4589 0.950 . S
H4613 C4591 0.950 . S
C4614 C4615 1.349 . S
C4614 C4616 1.327 . S
C4614 H4639 0.950 . S
C4615 C4614 1.349 . S
C4615 C4631 1.349 . S
C4616 C4614 1.327 . S
C4616 C4635 1.429 . S
C4616 H4640 0.950 . S
C4617 C4634 1.574 . S
C4617 C4636 1.368 . S
C4617 H4641 0.949 . S
H4618 C4622 0.949 . S
C4619 C4620 1.349 . S
C4619 C4621 1.327 . S
C4619 H4642 0.950 . S
C4620 C4619 1.349 . S
C4620 C4632 1.349 . S
C4621 C4619 1.327 . S
C4621 C4637 1.429 . S
C4621 H4643 0.950 . S
C4622 H4618 0.949 . S
C4622 C4630 1.574 . S
C4622 C4638 1.368 . S
H4623 C4631 0.950 . S
H4624 C4629 0.950 . S
H4625 C4630 0.949 . S
H4626 C4632 0.950 . S
H4627 C4633 0.950 . S
H4628 C4634 0.949 . S
C4629 H4624 0.950 . S
C4629 C4631 1.327 . S
C4629 C4635 1.429 . S
C4630 C4622 1.574 . S
C4630 H4625 0.949 . S
C4630 C4636 1.368 . S
C4631 C4615 1.349 . S
C4631 H4623 0.950 . S
C4631 C4629 1.327 . S
C4632 C4620 1.349 . S
C4632 H4626 0.950 . S
C4632 C4633 1.327 . S
C4633 H4627 0.950 . S
C4633 C4632 1.327 . S
C4633 C4637 1.429 . S
C4634 C4617 1.574 . S
C4634 H4628 0.949 . S
C4634 C4638 1.368 . S
C4635 C4616 1.429 . S
C4635 C4629 1.429 . S
C4635 C4636 1.523 . S
C4636 C4617 1.368 . S
C4636 C4630 1.368 . S
C4636 C4635 1.523 . S
C4637 C4621 1.429 . S
C4637 C4633 1.429 . S
C4637 C4638 1.523 . S
C4638 C4622 1.368 . S
C4638 C4634 1.368 . S
C4638 C4637 1.523 . S
H4639 C4614 0.950 . S
H4640 C4616 0.950 . S
H4641 C4617 0.949 . S
H4642 C4619 0.950 . S
H4643 C4621 0.950 . S
C4644 C4645 1.349 . S
C4644 C4646 1.327 . S
C4644 H4669 0.950 . S
C4645 C4644 1.349 . S
C4645 C4661 1.349 . S
C4646 C4644 1.327 . S
C4646 C4665 1.429 . S
C4646 H4670 0.950 . S
C4647 C4664 1.574 . S
C4647 C4666 1.368 . S
C4647 H4671 0.949 . S
H4648 C4652 0.949 . S
C4649 C4650 1.349 . S
C4649 C4651 1.327 . S
C4649 H4672 0.950 . S
C4650 C4649 1.349 . S
C4650 C4662 1.349 . S
C4651 C4649 1.327 . S
C4651 C4667 1.429 . S
C4651 H4673 0.950 . S
C4652 H4648 0.949 . S
C4652 C4660 1.574 . S
C4652 C4668 1.368 . S
H4653 C4661 0.950 . S
H4654 C4659 0.950 . S
H4655 C4660 0.949 . S
H4656 C4662 0.950 . S
H4657 C4663 0.950 . S
H4658 C4664 0.949 . S
C4659 H4654 0.950 . S
C4659 C4661 1.327 . S
C4659 C4665 1.429 . S
C4660 C4652 1.574 . S
C4660 H4655 0.949 . S
C4660 C4666 1.368 . S
C4661 C4645 1.349 . S
C4661 H4653 0.950 . S
C4661 C4659 1.327 . S
C4662 C4650 1.349 . S
C4662 H4656 0.950 . S
C4662 C4663 1.327 . S
C4663 H4657 0.950 . S
C4663 C4662 1.327 . S
C4663 C4667 1.429 . S
C4664 C4647 1.574 . S
C4664 H4658 0.949 . S
C4664 C4668 1.368 . S
C4665 C4646 1.429 . S
C4665 C4659 1.429 . S
C4665 C4666 1.523 . S
C4666 C4647 1.368 . S
C4666 C4660 1.368 . S
C4666 C4665 1.523 . S
C4667 C4651 1.429 . S
C4667 C4663 1.429 . S
C4667 C4668 1.523 . S
C4668 C4652 1.368 . S
C4668 C4664 1.368 . S
C4668 C4667 1.523 . S
H4669 C4644 0.950 . S
H4670 C4646 0.950 . S
H4671 C4647 0.949 . S
H4672 C4649 0.950 . S
H4673 C4651 0.950 . S
C4674 C4675 1.349 . S
C4674 C4676 1.327 . S
C4674 H4699 0.950 . S
C4675 C4674 1.349 . S
C4675 C4691 1.349 . S
C4676 C4674 1.327 . S
C4676 C4695 1.429 . S
C4676 H4700 0.950 . S
C4677 C4694 1.574 . S
C4677 C4696 1.368 . S
C4677 H4701 0.949 . S
H4678 C4682 0.949 . S
C4679 C4680 1.349 . S
C4679 C4681 1.327 . S
C4679 H4702 0.950 . S
C4680 C4679 1.349 . S
C4680 C4692 1.349 . S
C4681 C4679 1.327 . S
C4681 C4697 1.429 . S
C4681 H4703 0.950 . S
C4682 H4678 0.949 . S
C4682 C4690 1.574 . S
C4682 C4698 1.368 . S
H4683 C4691 0.950 . S
H4684 C4689 0.950 . S
H4685 C4690 0.949 . S
H4686 C4692 0.950 . S
H4687 C4693 0.950 . S
H4688 C4694 0.949 . S
C4689 H4684 0.950 . S
C4689 C4691 1.327 . S
C4689 C4695 1.429 . S
C4690 C4682 1.574 . S
C4690 H4685 0.949 . S
C4690 C4696 1.368 . S
C4691 C4675 1.349 . S
C4691 H4683 0.950 . S
C4691 C4689 1.327 . S
C4692 C4680 1.349 . S
C4692 H4686 0.950 . S
C4692 C4693 1.327 . S
C4693 H4687 0.950 . S
C4693 C4692 1.327 . S
C4693 C4697 1.429 . S
C4694 C4677 1.574 . S
C4694 H4688 0.949 . S
C4694 C4698 1.368 . S
C4695 C4676 1.429 . S
C4695 C4689 1.429 . S
C4695 C4696 1.523 . S
C4696 C4677 1.368 . S
C4696 C4690 1.368 . S
C4696 C4695 1.523 . S
C4697 C4681 1.429 . S
C4697 C4693 1.429 . S
C4697 C4698 1.523 . S
C4698 C4682 1.368 . S
C4698 C4694 1.368 . S
C4698 C4697 1.523 . S
H4699 C4674 0.950 . S
H4700 C4676 0.950 . S
H4701 C4677 0.949 . S
H4702 C4679 0.950 . S
H4703 C4681 0.950 . S
C4704 C4705 1.349 . S
C4704 C4706 1.327 . S
C4704 H4729 0.950 . S
C4705 C4704 1.349 . S
C4705 C4721 1.349 . S
C4706 C4704 1.327 . S
C4706 C4725 1.429 . S
C4706 H4730 0.950 . S
C4707 C4724 1.574 . S
C4707 C4726 1.368 . S
C4707 H4731 0.949 . S
H4708 C4712 0.949 . S
C4709 C4710 1.349 . S
C4709 C4711 1.327 . S
C4709 H4732 0.950 . S
C4710 C4709 1.349 . S
C4710 C4722 1.349 . S
C4711 C4709 1.327 . S
C4711 C4727 1.429 . S
C4711 H4733 0.950 . S
C4712 H4708 0.949 . S
C4712 C4720 1.574 . S
C4712 C4728 1.368 . S
H4713 C4721 0.950 . S
H4714 C4719 0.950 . S
H4715 C4720 0.949 . S
H4716 C4722 0.950 . S
H4717 C4723 0.950 . S
H4718 C4724 0.949 . S
C4719 H4714 0.950 . S
C4719 C4721 1.327 . S
C4719 C4725 1.429 . S
C4720 C4712 1.574 . S
C4720 H4715 0.949 . S
C4720 C4726 1.368 . S
C4721 C4705 1.349 . S
C4721 H4713 0.950 . S
C4721 C4719 1.327 . S
C4722 C4710 1.349 . S
C4722 H4716 0.950 . S
C4722 C4723 1.327 . S
C4723 H4717 0.950 . S
C4723 C4722 1.327 . S
C4723 C4727 1.429 . S
C4724 C4707 1.574 . S
C4724 H4718 0.949 . S
C4724 C4728 1.368 . S
C4725 C4706 1.429 . S
C4725 C4719 1.429 . S
C4725 C4726 1.523 . S
C4726 C4707 1.368 . S
C4726 C4720 1.368 . S
C4726 C4725 1.523 . S
C4727 C4711 1.429 . S
C4727 C4723 1.429 . S
C4727 C4728 1.523 . S
C4728 C4712 1.368 . S
C4728 C4724 1.368 . S
C4728 C4727 1.523 . S
H4729 C4704 0.950 . S
H4730 C4706 0.950 . S
H4731 C4707 0.949 . S
H4732 C4709 0.950 . S
H4733 C4711 0.950 . S
C4734 C4735 1.349 . S
C4734 C4736 1.327 . S
C4734 H4759 0.950 . S
C4735 C4734 1.349 . S
C4735 C4751 1.349 . S
C4736 C4734 1.327 . S
C4736 C4755 1.429 . S
C4736 H4760 0.950 . S
C4737 C4754 1.574 . S
C4737 C4756 1.368 . S
C4737 H4761 0.949 . S
H4738 C4742 0.949 . S
C4739 C4740 1.349 . S
C4739 C4741 1.327 . S
C4739 H4762 0.950 . S
C4740 C4739 1.349 . S
C4740 C4752 1.349 . S
C4741 C4739 1.327 . S
C4741 C4757 1.429 . S
C4741 H4763 0.950 . S
C4742 H4738 0.949 . S
C4742 C4750 1.574 . S
C4742 C4758 1.368 . S
H4743 C4751 0.950 . S
H4744 C4749 0.950 . S
H4745 C4750 0.949 . S
H4746 C4752 0.950 . S
H4747 C4753 0.950 . S
H4748 C4754 0.949 . S
C4749 H4744 0.950 . S
C4749 C4751 1.327 . S
C4749 C4755 1.429 . S
C4750 C4742 1.574 . S
C4750 H4745 0.949 . S
C4750 C4756 1.368 . S
C4751 C4735 1.349 . S
C4751 H4743 0.950 . S
C4751 C4749 1.327 . S
C4752 C4740 1.349 . S
C4752 H4746 0.950 . S
C4752 C4753 1.327 . S
C4753 H4747 0.950 . S
C4753 C4752 1.327 . S
C4753 C4757 1.429 . S
C4754 C4737 1.574 . S
C4754 H4748 0.949 . S
C4754 C4758 1.368 . S
C4755 C4736 1.429 . S
C4755 C4749 1.429 . S
C4755 C4756 1.523 . S
C4756 C4737 1.368 . S
C4756 C4750 1.368 . S
C4756 C4755 1.523 . S
C4757 C4741 1.429 . S
C4757 C4753 1.429 . S
C4757 C4758 1.523 . S
C4758 C4742 1.368 . S
C4758 C4754 1.368 . S
C4758 C4757 1.523 . S
H4759 C4734 0.950 . S
H4760 C4736 0.950 . S
H4761 C4737 0.949 . S
H4762 C4739 0.950 . S
H4763 C4741 0.950 . S
C4764 C4765 1.349 . S
C4764 C4766 1.327 . S
C4764 H4789 0.950 . S
C4765 C4764 1.349 . S
C4765 C4781 1.349 . S
C4766 C4764 1.327 . S
C4766 C4785 1.429 . S
C4766 H4790 0.950 . S
C4767 C4784 1.574 . S
C4767 C4786 1.368 . S
C4767 H4791 0.949 . S
H4768 C4772 0.949 . S
C4769 C4770 1.349 . S
C4769 C4771 1.327 . S
C4769 H4792 0.950 . S
C4770 C4769 1.349 . S
C4770 C4782 1.349 . S
C4771 C4769 1.327 . S
C4771 C4787 1.429 . S
C4771 H4793 0.950 . S
C4772 H4768 0.949 . S
C4772 C4780 1.574 . S
C4772 C4788 1.368 . S
H4773 C4781 0.950 . S
H4774 C4779 0.950 . S
H4775 C4780 0.949 . S
H4776 C4782 0.950 . S
H4777 C4783 0.950 . S
H4778 C4784 0.949 . S
C4779 H4774 0.950 . S
C4779 C4781 1.327 . S
C4779 C4785 1.429 . S
C4780 C4772 1.574 . S
C4780 H4775 0.949 . S
C4780 C4786 1.368 . S
C4781 C4765 1.349 . S
C4781 H4773 0.950 . S
C4781 C4779 1.327 . S
C4782 C4770 1.349 . S
C4782 H4776 0.950 . S
C4782 C4783 1.327 . S
C4783 H4777 0.950 . S
C4783 C4782 1.327 . S
C4783 C4787 1.429 . S
C4784 C4767 1.574 . S
C4784 H4778 0.949 . S
C4784 C4788 1.368 . S
C4785 C4766 1.429 . S
C4785 C4779 1.429 . S
C4785 C4786 1.523 . S
C4786 C4767 1.368 . S
C4786 C4780 1.368 . S
C4786 C4785 1.523 . S
C4787 C4771 1.429 . S
C4787 C4783 1.429 . S
C4787 C4788 1.523 . S
C4788 C4772 1.368 . S
C4788 C4784 1.368 . S
C4788 C4787 1.523 . S
H4789 C4764 0.950 . S
H4790 C4766 0.950 . S
H4791 C4767 0.949 . S
H4792 C4769 0.950 . S
H4793 C4771 0.950 . S
C4794 C4795 1.349 . S
C4794 C4796 1.327 . S
C4794 H4819 0.950 . S
C4795 C4794 1.349 . S
C4795 C4811 1.349 . S
C4796 C4794 1.327 . S
C4796 C4815 1.429 . S
C4796 H4820 0.950 . S
C4797 C4814 1.574 . S
C4797 C4816 1.368 . S
C4797 H4821 0.949 . S
H4798 C4802 0.949 . S
C4799 C4800 1.349 . S
C4799 C4801 1.327 . S
C4799 H4822 0.950 . S
C4800 C4799 1.349 . S
C4800 C4812 1.349 . S
C4801 C4799 1.327 . S
C4801 C4817 1.429 . S
C4801 H4823 0.950 . S
C4802 H4798 0.949 . S
C4802 C4810 1.574 . S
C4802 C4818 1.368 . S
H4803 C4811 0.950 . S
H4804 C4809 0.950 . S
H4805 C4810 0.949 . S
H4806 C4812 0.950 . S
H4807 C4813 0.950 . S
H4808 C4814 0.949 . S
C4809 H4804 0.950 . S
C4809 C4811 1.327 . S
C4809 C4815 1.429 . S
C4810 C4802 1.574 . S
C4810 H4805 0.949 . S
C4810 C4816 1.368 . S
C4811 C4795 1.349 . S
C4811 H4803 0.950 . S
C4811 C4809 1.327 . S
C4812 C4800 1.349 . S
C4812 H4806 0.950 . S
C4812 C4813 1.327 . S
C4813 H4807 0.950 . S
C4813 C4812 1.327 . S
C4813 C4817 1.429 . S
C4814 C4797 1.574 . S
C4814 H4808 0.949 . S
C4814 C4818 1.368 . S
C4815 C4796 1.429 . S
C4815 C4809 1.429 . S
C4815 C4816 1.523 . S
C4816 C4797 1.368 . S
C4816 C4810 1.368 . S
C4816 C4815 1.523 . S
C4817 C4801 1.429 . S
C4817 C4813 1.429 . S
C4817 C4818 1.523 . S
C4818 C4802 1.368 . S
C4818 C4814 1.368 . S
C4818 C4817 1.523 . S
H4819 C4794 0.950 . S
H4820 C4796 0.950 . S
H4821 C4797 0.949 . S
H4822 C4799 0.950 . S
H4823 C4801 0.950 . S
C4824 C4825 1.349 . S
C4824 C4826 1.327 . S
C4824 H4849 0.950 . S
C4825 C4824 1.349 . S
C4825 C4841 1.349 . S
C4826 C4824 1.327 . S
C4826 C4845 1.429 . S
C4826 H4850 0.950 . S
C4827 C4844 1.574 1_565 S
C4827 C4846 1.368 . S
C4827 H4851 0.949 . S
H4828 C4832 0.949 . S
C4829 C4830 1.349 . S
C4829 C4831 1.327 . S
C4829 H4852 0.950 . S
C4830 C4829 1.349 . S
C4830 C4842 1.349 . S
C4831 C4829 1.327 . S
C4831 C4847 1.429 . S
C4831 H4853 0.950 . S
C4832 H4828 0.949 . S
C4832 C4840 1.574 1_545 S
C4832 C4848 1.368 . S
H4833 C4841 0.950 . S
H4834 C4839 0.950 . S
H4835 C4840 0.949 . S
H4836 C4842 0.950 . S
H4837 C4843 0.950 . S
H4838 C4844 0.949 . S
C4839 H4834 0.950 . S
C4839 C4841 1.327 . S
C4839 C4845 1.429 . S
C4840 C4832 1.574 1_565 S
C4840 H4835 0.949 . S
C4840 C4846 1.368 . S
C4841 C4825 1.349 . S
C4841 H4833 0.950 . S
C4841 C4839 1.327 . S
C4842 C4830 1.349 . S
C4842 H4836 0.950 . S
C4842 C4843 1.327 . S
C4843 H4837 0.950 . S
C4843 C4842 1.327 . S
C4843 C4847 1.429 . S
C4844 C4827 1.574 1_545 S
C4844 H4838 0.949 . S
C4844 C4848 1.368 . S
C4845 C4826 1.429 . S
C4845 C4839 1.429 . S
C4845 C4846 1.523 . S
C4846 C4827 1.368 . S
C4846 C4840 1.368 . S
C4846 C4845 1.523 . S
C4847 C4831 1.429 . S
C4847 C4843 1.429 . S
C4847 C4848 1.523 . S
C4848 C4832 1.368 . S
C4848 C4844 1.368 . S
C4848 C4847 1.523 . S
H4849 C4824 0.950 . S
H4850 C4826 0.950 . S
H4851 C4827 0.949 . S
H4852 C4829 0.950 . S
H4853 C4831 0.950 . S
C4854 C4855 1.349 . S
C4854 C4856 1.327 . S
C4854 H4879 0.950 . S
C4855 C4854 1.349 . S
C4855 C4871 1.349 . S
C4856 C4854 1.327 . S
C4856 C4875 1.429 . S
C4856 H4880 0.950 . S
C4857 C4874 1.574 . S
C4857 C4876 1.368 1_655 S
C4857 H4881 0.949 . S
H4858 C4862 0.949 . S
C4859 C4860 1.349 . S
C4859 C4861 1.327 . S
C4859 H4882 0.950 . S
C4860 C4859 1.349 . S
C4860 C4872 1.349 . S
C4861 C4859 1.327 . S
C4861 C4877 1.429 . S
C4861 H4883 0.950 . S
C4862 H4858 0.949 . S
C4862 C4870 1.574 . S
C4862 C4878 1.368 1_455 S
H4863 C4871 0.950 . S
H4864 C4869 0.950 . S
H4865 C4870 0.949 . S
H4866 C4872 0.950 . S
H4867 C4873 0.950 . S
H4868 C4874 0.949 . S
C4869 H4864 0.950 . S
C4869 C4871 1.327 . S
C4869 C4875 1.429 . S
C4870 C4862 1.574 . S
C4870 H4865 0.949 . S
C4870 C4876 1.368 . S
C4871 C4855 1.349 . S
C4871 H4863 0.950 . S
C4871 C4869 1.327 . S
C4872 C4860 1.349 . S
C4872 H4866 0.950 . S
C4872 C4873 1.327 . S
C4873 H4867 0.950 . S
C4873 C4872 1.327 . S
C4873 C4877 1.429 . S
C4874 C4857 1.574 . S
C4874 H4868 0.949 . S
C4874 C4878 1.368 . S
C4875 C4856 1.429 . S
C4875 C4869 1.429 . S
C4875 C4876 1.523 . S
C4876 C4857 1.368 1_455 S
C4876 C4870 1.368 . S
C4876 C4875 1.523 . S
C4877 C4861 1.429 . S
C4877 C4873 1.429 . S
C4877 C4878 1.523 . S
C4878 C4862 1.368 1_655 S
C4878 C4874 1.368 . S
C4878 C4877 1.523 . S
H4879 C4854 0.950 . S
H4880 C4856 0.950 . S
H4881 C4857 0.949 . S
H4882 C4859 0.950 . S
H4883 C4861 0.950 . S
C4884 C4885 1.349 . S
C4884 C4886 1.327 . S
C4884 H4909 0.950 . S
C4885 C4884 1.349 . S
C4885 C4901 1.349 . S
C4886 C4884 1.327 . S
C4886 C4905 1.429 . S
C4886 H4910 0.950 . S
C4887 C4904 1.574 . S
C4887 C4906 1.368 . S
C4887 H4911 0.949 . S
H4888 C4892 0.949 . S
C4889 C4890 1.349 . S
C4889 C4891 1.327 . S
C4889 H4912 0.950 . S
C4890 C4889 1.349 . S
C4890 C4902 1.349 . S
C4891 C4889 1.327 . S
C4891 C4907 1.429 . S
C4891 H4913 0.950 . S
C4892 H4888 0.949 . S
C4892 C4900 1.574 . S
C4892 C4908 1.368 . S
H4893 C4901 0.950 . S
H4894 C4899 0.950 . S
H4895 C4900 0.949 . S
H4896 C4902 0.950 . S
H4897 C4903 0.950 . S
H4898 C4904 0.949 . S
C4899 H4894 0.950 . S
C4899 C4901 1.327 . S
C4899 C4905 1.429 . S
C4900 C4892 1.574 . S
C4900 H4895 0.949 . S
C4900 C4906 1.368 . S
C4901 C4885 1.349 . S
C4901 H4893 0.950 . S
C4901 C4899 1.327 . S
C4902 C4890 1.349 . S
C4902 H4896 0.950 . S
C4902 C4903 1.327 . S
C4903 H4897 0.950 . S
C4903 C4902 1.327 . S
C4903 C4907 1.429 . S
C4904 C4887 1.574 . S
C4904 H4898 0.949 . S
C4904 C4908 1.368 . S
C4905 C4886 1.429 . S
C4905 C4899 1.429 . S
C4905 C4906 1.523 . S
C4906 C4887 1.368 . S
C4906 C4900 1.368 . S
C4906 C4905 1.523 . S
C4907 C4891 1.429 . S
C4907 C4903 1.429 . S
C4907 C4908 1.523 . S
C4908 C4892 1.368 . S
C4908 C4904 1.368 . S
C4908 C4907 1.523 . S
H4909 C4884 0.950 . S
H4910 C4886 0.950 . S
H4911 C4887 0.949 . S
H4912 C4889 0.950 . S
H4913 C4891 0.950 . S
C4914 C4915 1.349 . S
C4914 C4916 1.327 . S
C4914 H4939 0.950 . S
C4915 C4914 1.349 . S
C4915 C4931 1.349 . S
C4916 C4914 1.327 . S
C4916 C4935 1.429 . S
C4916 H4940 0.950 . S
C4917 C4934 1.569 . S
C4917 C4936 1.371 1_565 S
C4917 H4941 0.948 1_565 S
H4918 C4922 0.948 1_565 S
C4919 C4920 1.349 . S
C4919 C4921 1.327 . S
C4919 H4942 0.950 . S
C4920 C4919 1.349 . S
C4920 C4932 1.349 . S
C4921 C4919 1.327 . S
C4921 C4937 1.429 . S
C4921 H4943 0.950 . S
C4922 H4918 0.948 1_545 S
C4922 C4930 1.569 . S
C4922 C4938 1.371 1_545 S
H4923 C4931 0.950 . S
H4924 C4929 0.950 . S
H4925 C4930 0.949 . S
H4926 C4932 0.950 . S
H4927 C4933 0.950 . S
H4928 C4934 0.949 . S
C4929 H4924 0.950 . S
C4929 C4931 1.327 . S
C4929 C4935 1.429 . S
C4930 C4922 1.569 . S
C4930 H4925 0.949 . S
C4930 C4936 1.368 . S
C4931 C4915 1.349 . S
C4931 H4923 0.950 . S
C4931 C4929 1.327 . S
C4932 C4920 1.349 . S
C4932 H4926 0.950 . S
C4932 C4933 1.327 . S
C4933 H4927 0.950 . S
C4933 C4932 1.327 . S
C4933 C4937 1.429 . S
C4934 C4917 1.569 . S
C4934 H4928 0.949 . S
C4934 C4938 1.368 . S
C4935 C4916 1.429 . S
C4935 C4929 1.429 . S
C4935 C4936 1.523 . S
C4936 C4917 1.371 1_545 S
C4936 C4930 1.368 . S
C4936 C4935 1.523 . S
C4937 C4921 1.429 . S
C4937 C4933 1.429 . S
C4937 C4938 1.523 . S
C4938 C4922 1.371 1_565 S
C4938 C4934 1.368 . S
C4938 C4937 1.523 . S
H4939 C4914 0.950 . S
H4940 C4916 0.950 . S
H4941 C4917 0.948 1_545 S
H4942 C4919 0.950 . S
H4943 C4921 0.950 . S
C4944 C4945 1.349 . S
C4944 C4946 1.327 . S
C4944 H4969 0.950 . S
C4945 C4944 1.349 . S
C4945 C4961 1.349 . S
C4946 C4944 1.327 . S
C4946 C4965 1.429 . S
C4946 H4970 0.950 . S
C4947 C4964 1.574 . S
C4947 C4966 1.368 1_655 S
C4947 H4971 0.949 . S
H4948 C4952 0.949 . S
C4949 C4950 1.349 . S
C4949 C4951 1.327 . S
C4949 H4972 0.950 . S
C4950 C4949 1.349 . S
C4950 C4962 1.349 . S
C4951 C4949 1.327 . S
C4951 C4967 1.429 . S
C4951 H4973 0.950 . S
C4952 H4948 0.949 . S
C4952 C4960 1.574 . S
C4952 C4968 1.368 1_455 S
H4953 C4961 0.950 . S
H4954 C4959 0.950 . S
H4955 C4960 0.949 . S
H4956 C4962 0.950 . S
H4957 C4963 0.950 . S
H4958 C4964 0.949 . S
C4959 H4954 0.950 . S
C4959 C4961 1.327 . S
C4959 C4965 1.429 . S
C4960 C4952 1.574 . S
C4960 H4955 0.949 . S
C4960 C4966 1.368 . S
C4961 C4945 1.349 . S
C4961 H4953 0.950 . S
C4961 C4959 1.327 . S
C4962 C4950 1.349 . S
C4962 H4956 0.950 . S
C4962 C4963 1.327 . S
C4963 H4957 0.950 . S
C4963 C4962 1.327 . S
C4963 C4967 1.429 . S
C4964 C4947 1.574 . S
C4964 H4958 0.949 . S
C4964 C4968 1.368 . S
C4965 C4946 1.429 . S
C4965 C4959 1.429 . S
C4965 C4966 1.523 . S
C4966 C4947 1.368 1_455 S
C4966 C4960 1.368 . S
C4966 C4965 1.523 . S
C4967 C4951 1.429 . S
C4967 C4963 1.429 . S
C4967 C4968 1.523 . S
C4968 C4952 1.368 1_655 S
C4968 C4964 1.368 . S
C4968 C4967 1.523 . S
H4969 C4944 0.950 . S
H4970 C4946 0.950 . S
H4971 C4947 0.949 . S
H4972 C4949 0.950 . S
H4973 C4951 0.950 . S
C4974 C4975 1.349 . S
C4974 C4976 1.327 . S
C4974 H4999 0.950 . S
C4975 C4974 1.349 . S
C4975 C4991 1.349 . S
C4976 C4974 1.327 . S
C4976 C4995 1.429 . S
C4976 H5000 0.950 . S
C4977 C4994 1.574 . S
C4977 C4996 1.368 . S
C4977 H5001 0.949 . S
H4978 C4982 0.949 . S
C4979 C4980 1.349 . S
C4979 C4981 1.327 . S
C4979 H5002 0.950 . S
C4980 C4979 1.349 . S
C4980 C4992 1.349 . S
C4981 C4979 1.327 . S
C4981 C4997 1.429 . S
C4981 H5003 0.950 . S
C4982 H4978 0.949 . S
C4982 C4990 1.574 . S
C4982 C4998 1.368 . S
H4983 C4991 0.950 . S
H4984 C4989 0.950 . S
H4985 C4990 0.949 . S
H4986 C4992 0.950 . S
H4987 C4993 0.950 . S
H4988 C4994 0.949 . S
C4989 H4984 0.950 . S
C4989 C4991 1.327 . S
C4989 C4995 1.429 . S
C4990 C4982 1.574 . S
C4990 H4985 0.949 . S
C4990 C4996 1.368 . S
C4991 C4975 1.349 . S
C4991 H4983 0.950 . S
C4991 C4989 1.327 . S
C4992 C4980 1.349 . S
C4992 H4986 0.950 . S
C4992 C4993 1.327 . S
C4993 H4987 0.950 . S
C4993 C4992 1.327 . S
C4993 C4997 1.429 . S
C4994 C4977 1.574 . S
C4994 H4988 0.949 . S
C4994 C4998 1.368 . S
C4995 C4976 1.429 . S
C4995 C4989 1.429 . S
C4995 C4996 1.523 . S
C4996 C4977 1.368 . S
C4996 C4990 1.368 . S
C4996 C4995 1.523 . S
C4997 C4981 1.429 . S
C4997 C4993 1.429 . S
C4997 C4998 1.523 . S
C4998 C4982 1.368 . S
C4998 C4994 1.368 . S
C4998 C4997 1.523 . S
H4999 C4974 0.950 . S
H5000 C4976 0.950 . S
H5001 C4977 0.949 . S
H5002 C4979 0.950 . S
H5003 C4981 0.950 . S
C5004 C5005 1.349 . S
C5004 C5006 1.327 . S
C5004 H5029 0.950 . S
C5005 C5004 1.349 . S
C5005 C5021 1.349 . S
C5006 C5004 1.327 . S
C5006 C5025 1.429 . S
C5006 H5030 0.950 . S
C5007 C5024 1.574 . S
C5007 C5026 1.368 . S
C5007 H5031 0.949 . S
H5008 C5012 0.949 . S
C5009 C5010 1.349 . S
C5009 C5011 1.327 . S
C5009 H5032 0.950 . S
C5010 C5009 1.349 . S
C5010 C5022 1.349 . S
C5011 C5009 1.327 . S
C5011 C5027 1.429 . S
C5011 H5033 0.950 . S
C5012 H5008 0.949 . S
C5012 C5020 1.574 . S
C5012 C5028 1.368 . S
H5013 C5021 0.950 . S
H5014 C5019 0.950 . S
H5015 C5020 0.949 . S
H5016 C5022 0.950 . S
H5017 C5023 0.950 . S
H5018 C5024 0.949 . S
C5019 H5014 0.950 . S
C5019 C5021 1.327 . S
C5019 C5025 1.429 . S
C5020 C5012 1.574 . S
C5020 H5015 0.949 . S
C5020 C5026 1.368 . S
C5021 C5005 1.349 . S
C5021 H5013 0.950 . S
C5021 C5019 1.327 . S
C5022 C5010 1.349 . S
C5022 H5016 0.950 . S
C5022 C5023 1.327 . S
C5023 H5017 0.950 . S
C5023 C5022 1.327 . S
C5023 C5027 1.429 . S
C5024 C5007 1.574 . S
C5024 H5018 0.949 . S
C5024 C5028 1.368 . S
C5025 C5006 1.429 . S
C5025 C5019 1.429 . S
C5025 C5026 1.523 . S
C5026 C5007 1.368 . S
C5026 C5020 1.368 . S
C5026 C5025 1.523 . S
C5027 C5011 1.429 . S
C5027 C5023 1.429 . S
C5027 C5028 1.523 . S
C5028 C5012 1.368 . S
C5028 C5024 1.368 . S
C5028 C5027 1.523 . S
H5029 C5004 0.950 . S
H5030 C5006 0.950 . S
H5031 C5007 0.949 . S
H5032 C5009 0.950 . S
H5033 C5011 0.950 . S
C5034 C5035 1.349 . S
C5034 C5036 1.327 . S
C5034 H5059 0.950 . S
C5035 C5034 1.349 . S
C5035 C5051 1.349 . S
C5036 C5034 1.327 . S
C5036 C5055 1.429 . S
C5036 H5060 0.950 . S
C5037 C5054 1.574 . S
C5037 C5056 1.368 . S
C5037 H5061 0.949 . S
H5038 C5042 0.949 . S
C5039 C5040 1.349 . S
C5039 C5041 1.327 . S
C5039 H5062 0.950 . S
C5040 C5039 1.349 . S
C5040 C5052 1.349 . S
C5041 C5039 1.327 . S
C5041 C5057 1.429 . S
C5041 H5063 0.950 . S
C5042 H5038 0.949 . S
C5042 C5050 1.574 . S
C5042 C5058 1.368 . S
H5043 C5051 0.950 . S
H5044 C5049 0.950 . S
H5045 C5050 0.949 . S
H5046 C5052 0.950 . S
H5047 C5053 0.950 . S
H5048 C5054 0.949 . S
C5049 H5044 0.950 . S
C5049 C5051 1.327 . S
C5049 C5055 1.429 . S
C5050 C5042 1.574 . S
C5050 H5045 0.949 . S
C5050 C5056 1.368 . S
C5051 C5035 1.349 . S
C5051 H5043 0.950 . S
C5051 C5049 1.327 . S
C5052 C5040 1.349 . S
C5052 H5046 0.950 . S
C5052 C5053 1.327 . S
C5053 H5047 0.950 . S
C5053 C5052 1.327 . S
C5053 C5057 1.429 . S
C5054 C5037 1.574 . S
C5054 H5048 0.949 . S
C5054 C5058 1.368 . S
C5055 C5036 1.429 . S
C5055 C5049 1.429 . S
C5055 C5056 1.523 . S
C5056 C5037 1.368 . S
C5056 C5050 1.368 . S
C5056 C5055 1.523 . S
C5057 C5041 1.429 . S
C5057 C5053 1.429 . S
C5057 C5058 1.523 . S
C5058 C5042 1.368 . S
C5058 C5054 1.368 . S
C5058 C5057 1.523 . S
H5059 C5034 0.950 . S
H5060 C5036 0.950 . S
H5061 C5037 0.949 . S
H5062 C5039 0.950 . S
H5063 C5041 0.950 . S
C5064 C5065 1.349 . S
C5064 C5066 1.327 . S
C5064 H5089 0.950 . S
C5065 C5064 1.349 . S
C5065 C5081 1.349 . S
C5066 C5064 1.327 . S
C5066 C5085 1.429 . S
C5066 H5090 0.950 . S
C5067 C5084 1.574 . S
C5067 C5086 1.368 . S
C5067 H5091 0.949 . S
H5068 C5072 0.949 . S
C5069 C5070 1.349 . S
C5069 C5071 1.327 . S
C5069 H5092 0.950 . S
C5070 C5069 1.349 . S
C5070 C5082 1.349 . S
C5071 C5069 1.327 . S
C5071 C5087 1.429 . S
C5071 H5093 0.950 . S
C5072 H5068 0.949 . S
C5072 C5080 1.574 . S
C5072 C5088 1.368 . S
H5073 C5081 0.950 . S
H5074 C5079 0.950 . S
H5075 C5080 0.949 . S
H5076 C5082 0.950 . S
H5077 C5083 0.950 . S
H5078 C5084 0.949 . S
C5079 H5074 0.950 . S
C5079 C5081 1.327 . S
C5079 C5085 1.429 . S
C5080 C5072 1.574 . S
C5080 H5075 0.949 . S
C5080 C5086 1.368 . S
C5081 C5065 1.349 . S
C5081 H5073 0.950 . S
C5081 C5079 1.327 . S
C5082 C5070 1.349 . S
C5082 H5076 0.950 . S
C5082 C5083 1.327 . S
C5083 H5077 0.950 . S
C5083 C5082 1.327 . S
C5083 C5087 1.429 . S
C5084 C5067 1.574 . S
C5084 H5078 0.949 . S
C5084 C5088 1.368 . S
C5085 C5066 1.429 . S
C5085 C5079 1.429 . S
C5085 C5086 1.523 . S
C5086 C5067 1.368 . S
C5086 C5080 1.368 . S
C5086 C5085 1.523 . S
C5087 C5071 1.429 . S
C5087 C5083 1.429 . S
C5087 C5088 1.523 . S
C5088 C5072 1.368 . S
C5088 C5084 1.368 . S
C5088 C5087 1.523 . S
H5089 C5064 0.950 . S
H5090 C5066 0.950 . S
H5091 C5067 0.949 . S
H5092 C5069 0.950 . S
H5093 C5071 0.950 . S
C5094 C5095 1.349 . S
C5094 C5096 1.327 . S
C5094 H5119 0.950 . S
C5095 C5094 1.349 . S
C5095 C5111 1.349 . S
C5096 C5094 1.327 . S
C5096 C5115 1.429 . S
C5096 H5120 0.950 . S
C5097 C5114 1.574 . S
C5097 C5116 1.368 . S
C5097 H5121 0.949 . S
H5098 C5102 0.949 . S
C5099 C5100 1.349 . S
C5099 C5101 1.327 . S
C5099 H5122 0.950 . S
C5100 C5099 1.349 . S
C5100 C5112 1.349 . S
C5101 C5099 1.327 . S
C5101 C5117 1.429 . S
C5101 H5123 0.950 . S
C5102 H5098 0.949 . S
C5102 C5110 1.574 . S
C5102 C5118 1.368 . S
H5103 C5111 0.950 . S
H5104 C5109 0.950 . S
H5105 C5110 0.949 . S
H5106 C5112 0.950 1_556 S
H5107 C5113 0.950 . S
H5108 C5114 0.949 . S
C5109 H5104 0.950 . S
C5109 C5111 1.327 . S
C5109 C5115 1.429 . S
C5110 C5102 1.574 . S
C5110 H5105 0.949 . S
C5110 C5116 1.368 . S
C5111 C5095 1.349 . S
C5111 H5103 0.950 . S
C5111 C5109 1.327 . S
C5112 C5100 1.349 . S
C5112 H5106 0.950 1_554 S
C5112 C5113 1.327 . S
C5113 H5107 0.950 . S
C5113 C5112 1.327 . S
C5113 C5117 1.429 . S
C5114 C5097 1.574 . S
C5114 H5108 0.949 . S
C5114 C5118 1.368 . S
C5115 C5096 1.429 . S
C5115 C5109 1.429 . S
C5115 C5116 1.523 . S
C5116 C5097 1.368 . S
C5116 C5110 1.368 . S
C5116 C5115 1.523 . S
C5117 C5101 1.429 . S
C5117 C5113 1.429 . S
C5117 C5118 1.523 . S
C5118 C5102 1.368 . S
C5118 C5114 1.368 . S
C5118 C5117 1.523 . S
H5119 C5094 0.950 . S
H5120 C5096 0.950 . S
H5121 C5097 0.949 . S
H5122 C5099 0.950 . S
H5123 C5101 0.950 . S
C5124 C5125 1.349 . S
C5124 C5126 1.327 . S
C5124 H5149 0.950 . S
C5125 C5124 1.349 . S
C5125 C5141 1.349 . S
C5126 C5124 1.327 . S
C5126 C5145 1.429 . S
C5126 H5150 0.950 . S
C5127 C5144 1.574 . S
C5127 C5146 1.368 . S
C5127 H5151 0.949 . S
H5128 C5132 0.949 . S
C5129 C5130 1.349 . S
C5129 C5131 1.327 . S
C5129 H5152 0.950 . S
C5130 C5129 1.349 . S
C5130 C5142 1.349 . S
C5131 C5129 1.327 . S
C5131 C5147 1.429 . S
C5131 H5153 0.950 . S
C5132 H5128 0.949 . S
C5132 C5140 1.574 . S
C5132 C5148 1.368 . S
H5133 C5141 0.950 . S
H5134 C5139 0.950 . S
H5135 C5140 0.949 . S
H5136 C5142 0.950 . S
H5137 C5143 0.950 . S
H5138 C5144 0.949 . S
C5139 H5134 0.950 . S
C5139 C5141 1.327 . S
C5139 C5145 1.429 . S
C5140 C5132 1.574 . S
C5140 H5135 0.949 . S
C5140 C5146 1.368 . S
C5141 C5125 1.349 . S
C5141 H5133 0.950 . S
C5141 C5139 1.327 . S
C5142 C5130 1.349 . S
C5142 H5136 0.950 . S
C5142 C5143 1.327 . S
C5143 H5137 0.950 . S
C5143 C5142 1.327 . S
C5143 C5147 1.429 . S
C5144 C5127 1.574 . S
C5144 H5138 0.949 . S
C5144 C5148 1.368 . S
C5145 C5126 1.429 . S
C5145 C5139 1.429 . S
C5145 C5146 1.523 . S
C5146 C5127 1.368 . S
C5146 C5140 1.368 . S
C5146 C5145 1.523 . S
C5147 C5131 1.429 . S
C5147 C5143 1.429 . S
C5147 C5148 1.523 . S
C5148 C5132 1.368 . S
C5148 C5144 1.368 . S
C5148 C5147 1.523 . S
H5149 C5124 0.950 . S
H5150 C5126 0.950 . S
H5151 C5127 0.949 . S
H5152 C5129 0.950 . S
H5153 C5131 0.950 . S
C5154 C5155 1.349 . S
C5154 C5156 1.327 . S
C5154 H5179 0.950 . S
C5155 C5154 1.349 . S
C5155 C5171 1.349 . S
C5156 C5154 1.327 . S
C5156 C5175 1.429 . S
C5156 H5180 0.950 . S
C5157 C5174 1.574 . S
C5157 C5176 1.368 . S
C5157 H5181 0.949 . S
H5158 C5162 0.949 . S
C5159 C5160 1.349 . S
C5159 C5161 1.327 . S
C5159 H5182 0.950 . S
C5160 C5159 1.349 . S
C5160 C5172 1.349 . S
C5161 C5159 1.327 . S
C5161 C5177 1.429 . S
C5161 H5183 0.950 . S
C5162 H5158 0.949 . S
C5162 C5170 1.574 . S
C5162 C5178 1.368 . S
H5163 C5171 0.950 . S
H5164 C5169 0.950 . S
H5165 C5170 0.949 . S
H5166 C5172 0.950 . S
H5167 C5173 0.950 . S
H5168 C5174 0.949 . S
C5169 H5164 0.950 . S
C5169 C5171 1.327 . S
C5169 C5175 1.429 . S
C5170 C5162 1.574 . S
C5170 H5165 0.949 . S
C5170 C5176 1.368 . S
C5171 C5155 1.349 . S
C5171 H5163 0.950 . S
C5171 C5169 1.327 . S
C5172 C5160 1.349 . S
C5172 H5166 0.950 . S
C5172 C5173 1.327 . S
C5173 H5167 0.950 . S
C5173 C5172 1.327 . S
C5173 C5177 1.429 . S
C5174 C5157 1.574 . S
C5174 H5168 0.949 . S
C5174 C5178 1.368 . S
C5175 C5156 1.429 . S
C5175 C5169 1.429 . S
C5175 C5176 1.523 . S
C5176 C5157 1.368 . S
C5176 C5170 1.368 . S
C5176 C5175 1.523 . S
C5177 C5161 1.429 . S
C5177 C5173 1.429 . S
C5177 C5178 1.523 . S
C5178 C5162 1.368 . S
C5178 C5174 1.368 . S
C5178 C5177 1.523 . S
H5179 C5154 0.950 . S
H5180 C5156 0.950 . S
H5181 C5157 0.949 . S
H5182 C5159 0.950 . S
H5183 C5161 0.950 . S
C5184 C5185 1.349 . S
C5184 C5186 1.327 . S
C5184 H5209 0.950 . S
C5185 C5184 1.349 . S
C5185 C5201 1.349 . S
C5186 C5184 1.327 . S
C5186 C5205 1.429 . S
C5186 H5210 0.950 . S
C5187 C5204 1.574 . S
C5187 C5206 1.368 . S
C5187 H5211 0.949 . S
H5188 C5192 0.949 . S
C5189 C5190 1.349 . S
C5189 C5191 1.327 . S
C5189 H5212 0.950 . S
C5190 C5189 1.349 . S
C5190 C5202 1.349 . S
C5191 C5189 1.327 . S
C5191 C5207 1.429 . S
C5191 H5213 0.950 . S
C5192 H5188 0.949 . S
C5192 C5200 1.574 . S
C5192 C5208 1.368 . S
H5193 C5201 0.950 . S
H5194 C5199 0.950 . S
H5195 C5200 0.949 . S
H5196 C5202 0.950 . S
H5197 C5203 0.950 . S
H5198 C5204 0.949 . S
C5199 H5194 0.950 . S
C5199 C5201 1.327 . S
C5199 C5205 1.429 . S
C5200 C5192 1.574 . S
C5200 H5195 0.949 . S
C5200 C5206 1.368 . S
C5201 C5185 1.349 . S
C5201 H5193 0.950 . S
C5201 C5199 1.327 . S
C5202 C5190 1.349 . S
C5202 H5196 0.950 . S
C5202 C5203 1.327 . S
C5203 H5197 0.950 . S
C5203 C5202 1.327 . S
C5203 C5207 1.429 . S
C5204 C5187 1.574 . S
C5204 H5198 0.949 . S
C5204 C5208 1.368 . S
C5205 C5186 1.429 . S
C5205 C5199 1.429 . S
C5205 C5206 1.523 . S
C5206 C5187 1.368 . S
C5206 C5200 1.368 . S
C5206 C5205 1.523 . S
C5207 C5191 1.429 . S
C5207 C5203 1.429 . S
C5207 C5208 1.523 . S
C5208 C5192 1.368 . S
C5208 C5204 1.368 . S
C5208 C5207 1.523 . S
H5209 C5184 0.950 . S
H5210 C5186 0.950 . S
H5211 C5187 0.949 . S
H5212 C5189 0.950 . S
H5213 C5191 0.950 . S
C5214 C5215 1.349 . S
C5214 C5216 1.327 . S
C5214 H5239 0.950 . S
C5215 C5214 1.349 . S
C5215 C5231 1.349 . S
C5216 C5214 1.327 . S
C5216 C5235 1.429 . S
C5216 H5240 0.950 . S
C5217 C5234 1.574 . S
C5217 C5236 1.368 . S
C5217 H5241 0.949 . S
H5218 C5222 0.949 . S
C5219 C5220 1.349 . S
C5219 C5221 1.327 . S
C5219 H5242 0.950 . S
C5220 C5219 1.349 . S
C5220 C5232 1.349 . S
C5221 C5219 1.327 . S
C5221 C5237 1.429 . S
C5221 H5243 0.950 . S
C5222 H5218 0.949 . S
C5222 C5230 1.574 . S
C5222 C5238 1.368 . S
H5223 C5231 0.950 . S
H5224 C5229 0.950 . S
H5225 C5230 0.949 . S
H5226 C5232 0.950 . S
H5227 C5233 0.950 . S
H5228 C5234 0.949 . S
C5229 H5224 0.950 . S
C5229 C5231 1.327 . S
C5229 C5235 1.429 . S
C5230 C5222 1.574 . S
C5230 H5225 0.949 . S
C5230 C5236 1.368 . S
C5231 C5215 1.349 . S
C5231 H5223 0.950 . S
C5231 C5229 1.327 . S
C5232 C5220 1.349 . S
C5232 H5226 0.950 . S
C5232 C5233 1.327 . S
C5233 H5227 0.950 . S
C5233 C5232 1.327 . S
C5233 C5237 1.429 . S
C5234 C5217 1.574 . S
C5234 H5228 0.949 . S
C5234 C5238 1.368 . S
C5235 C5216 1.429 . S
C5235 C5229 1.429 . S
C5235 C5236 1.523 . S
C5236 C5217 1.368 . S
C5236 C5230 1.368 . S
C5236 C5235 1.523 . S
C5237 C5221 1.429 . S
C5237 C5233 1.429 . S
C5237 C5238 1.523 . S
C5238 C5222 1.368 . S
C5238 C5234 1.368 . S
C5238 C5237 1.523 . S
H5239 C5214 0.950 . S
H5240 C5216 0.950 . S
H5241 C5217 0.949 . S
H5242 C5219 0.950 . S
H5243 C5221 0.950 . S
C5244 C5245 1.349 . S
C5244 C5246 1.327 . S
C5244 H5269 0.950 . S
C5245 C5244 1.349 . S
C5245 C5261 1.349 . S
C5246 C5244 1.327 . S
C5246 C5265 1.429 . S
C5246 H5270 0.950 . S
C5247 C5264 1.574 . S
C5247 C5266 1.368 . S
C5247 H5271 0.949 . S
H5248 C5252 0.949 . S
C5249 C5250 1.349 . S
C5249 C5251 1.327 . S
C5249 H5272 0.950 . S
C5250 C5249 1.349 . S
C5250 C5262 1.349 . S
C5251 C5249 1.327 . S
C5251 C5267 1.429 . S
C5251 H5273 0.950 . S
C5252 H5248 0.949 . S
C5252 C5260 1.574 . S
C5252 C5268 1.368 . S
H5253 C5261 0.950 . S
H5254 C5259 0.950 . S
H5255 C5260 0.949 . S
H5256 C5262 0.950 . S
H5257 C5263 0.950 . S
H5258 C5264 0.949 . S
C5259 H5254 0.950 . S
C5259 C5261 1.327 . S
C5259 C5265 1.429 . S
C5260 C5252 1.574 . S
C5260 H5255 0.949 . S
C5260 C5266 1.368 . S
C5261 C5245 1.349 . S
C5261 H5253 0.950 . S
C5261 C5259 1.327 . S
C5262 C5250 1.349 . S
C5262 H5256 0.950 . S
C5262 C5263 1.327 . S
C5263 H5257 0.950 . S
C5263 C5262 1.327 . S
C5263 C5267 1.429 . S
C5264 C5247 1.574 . S
C5264 H5258 0.949 . S
C5264 C5268 1.368 . S
C5265 C5246 1.429 . S
C5265 C5259 1.429 . S
C5265 C5266 1.523 . S
C5266 C5247 1.368 . S
C5266 C5260 1.368 . S
C5266 C5265 1.523 . S
C5267 C5251 1.429 . S
C5267 C5263 1.429 . S
C5267 C5268 1.523 . S
C5268 C5252 1.368 . S
C5268 C5264 1.368 . S
C5268 C5267 1.523 . S
H5269 C5244 0.950 . S
H5270 C5246 0.950 . S
H5271 C5247 0.949 . S
H5272 C5249 0.950 . S
H5273 C5251 0.950 . S
C5274 C5275 1.349 . S
C5274 C5276 1.327 . S
C5274 H5299 0.950 . S
C5275 C5274 1.349 . S
C5275 C5291 1.349 . S
C5276 C5274 1.327 . S
C5276 C5295 1.429 . S
C5276 H5300 0.950 . S
C5277 C5294 1.574 . S
C5277 C5296 1.368 . S
C5277 H5301 0.949 . S
H5278 C5282 0.949 . S
C5279 C5280 1.349 . S
C5279 C5281 1.327 . S
C5279 H5302 0.950 . S
C5280 C5279 1.349 . S
C5280 C5292 1.349 . S
C5281 C5279 1.327 . S
C5281 C5297 1.429 . S
C5281 H5303 0.950 . S
C5282 H5278 0.949 . S
C5282 C5290 1.574 . S
C5282 C5298 1.368 . S
H5283 C5291 0.950 . S
H5284 C5289 0.950 . S
H5285 C5290 0.949 . S
H5286 C5292 0.950 . S
H5287 C5293 0.950 . S
H5288 C5294 0.949 . S
C5289 H5284 0.950 . S
C5289 C5291 1.327 . S
C5289 C5295 1.429 . S
C5290 C5282 1.574 . S
C5290 H5285 0.949 . S
C5290 C5296 1.368 . S
C5291 C5275 1.349 . S
C5291 H5283 0.950 . S
C5291 C5289 1.327 . S
C5292 C5280 1.349 . S
C5292 H5286 0.950 . S
C5292 C5293 1.327 . S
C5293 H5287 0.950 . S
C5293 C5292 1.327 . S
C5293 C5297 1.429 . S
C5294 C5277 1.574 . S
C5294 H5288 0.949 . S
C5294 C5298 1.368 . S
C5295 C5276 1.429 . S
C5295 C5289 1.429 . S
C5295 C5296 1.523 . S
C5296 C5277 1.368 . S
C5296 C5290 1.368 . S
C5296 C5295 1.523 . S
C5297 C5281 1.429 . S
C5297 C5293 1.429 . S
C5297 C5298 1.523 . S
C5298 C5282 1.368 . S
C5298 C5294 1.368 . S
C5298 C5297 1.523 . S
H5299 C5274 0.950 . S
H5300 C5276 0.950 . S
H5301 C5277 0.949 . S
H5302 C5279 0.950 . S
H5303 C5281 0.950 . S
C5304 C5305 1.349 . S
C5304 C5306 1.327 . S
C5304 H5329 0.950 . S
C5305 C5304 1.349 . S
C5305 C5321 1.349 . S
C5306 C5304 1.327 . S
C5306 C5325 1.429 . S
C5306 H5330 0.950 . S
C5307 C5324 1.574 . S
C5307 C5326 1.368 . S
C5307 H5331 0.949 . S
H5308 C5312 0.949 . S
C5309 C5310 1.349 . S
C5309 C5311 1.327 . S
C5309 H5332 0.950 . S
C5310 C5309 1.349 . S
C5310 C5322 1.349 . S
C5311 C5309 1.327 . S
C5311 C5327 1.429 . S
C5311 H5333 0.950 . S
C5312 H5308 0.949 . S
C5312 C5320 1.574 . S
C5312 C5328 1.368 . S
H5313 C5321 0.950 . S
H5314 C5319 0.950 . S
H5315 C5320 0.949 . S
H5316 C5322 0.950 . S
H5317 C5323 0.950 . S
H5318 C5324 0.949 . S
C5319 H5314 0.950 . S
C5319 C5321 1.327 . S
C5319 C5325 1.429 . S
C5320 C5312 1.574 . S
C5320 H5315 0.949 . S
C5320 C5326 1.368 . S
C5321 C5305 1.349 . S
C5321 H5313 0.950 . S
C5321 C5319 1.327 . S
C5322 C5310 1.349 . S
C5322 H5316 0.950 . S
C5322 C5323 1.327 . S
C5323 H5317 0.950 . S
C5323 C5322 1.327 . S
C5323 C5327 1.429 . S
C5324 C5307 1.574 . S
C5324 H5318 0.949 . S
C5324 C5328 1.368 . S
C5325 C5306 1.429 . S
C5325 C5319 1.429 . S
C5325 C5326 1.523 . S
C5326 C5307 1.368 . S
C5326 C5320 1.368 . S
C5326 C5325 1.523 . S
C5327 C5311 1.429 . S
C5327 C5323 1.429 . S
C5327 C5328 1.523 . S
C5328 C5312 1.368 . S
C5328 C5324 1.368 . S
C5328 C5327 1.523 . S
H5329 C5304 0.950 . S
H5330 C5306 0.950 . S
H5331 C5307 0.949 . S
H5332 C5309 0.950 . S
H5333 C5311 0.950 . S
C5334 C5335 1.349 . S
C5334 C5336 1.327 . S
C5334 H5359 0.950 . S
C5335 C5334 1.349 . S
C5335 C5351 1.349 . S
C5336 C5334 1.327 . S
C5336 C5355 1.429 . S
C5336 H5360 0.950 . S
C5337 C5354 1.574 . S
C5337 C5356 1.368 . S
C5337 H5361 0.949 . S
H5338 C5342 0.949 . S
C5339 C5340 1.349 . S
C5339 C5341 1.327 . S
C5339 H5362 0.950 . S
C5340 C5339 1.349 . S
C5340 C5352 1.349 . S
C5341 C5339 1.327 . S
C5341 C5357 1.429 . S
C5341 H5363 0.950 . S
C5342 H5338 0.949 . S
C5342 C5350 1.574 . S
C5342 C5358 1.368 . S
H5343 C5351 0.950 . S
H5344 C5349 0.950 . S
H5345 C5350 0.949 . S
H5346 C5352 0.950 . S
H5347 C5353 0.950 . S
H5348 C5354 0.949 . S
C5349 H5344 0.950 . S
C5349 C5351 1.327 . S
C5349 C5355 1.429 . S
C5350 C5342 1.574 . S
C5350 H5345 0.949 . S
C5350 C5356 1.368 . S
C5351 C5335 1.349 . S
C5351 H5343 0.950 . S
C5351 C5349 1.327 . S
C5352 C5340 1.349 . S
C5352 H5346 0.950 . S
C5352 C5353 1.327 . S
C5353 H5347 0.950 . S
C5353 C5352 1.327 . S
C5353 C5357 1.429 . S
C5354 C5337 1.574 . S
C5354 H5348 0.949 . S
C5354 C5358 1.368 . S
C5355 C5336 1.429 . S
C5355 C5349 1.429 . S
C5355 C5356 1.523 . S
C5356 C5337 1.368 . S
C5356 C5350 1.368 . S
C5356 C5355 1.523 . S
C5357 C5341 1.429 . S
C5357 C5353 1.429 . S
C5357 C5358 1.523 . S
C5358 C5342 1.368 . S
C5358 C5354 1.368 . S
C5358 C5357 1.523 . S
H5359 C5334 0.950 . S
H5360 C5336 0.950 . S
H5361 C5337 0.949 . S
H5362 C5339 0.950 . S
H5363 C5341 0.950 . S
C5364 C5365 1.349 . S
C5364 C5366 1.327 . S
C5364 H5389 0.950 . S
C5365 C5364 1.349 . S
C5365 C5381 1.349 . S
C5366 C5364 1.327 . S
C5366 C5385 1.429 . S
C5366 H5390 0.950 . S
C5367 C5384 1.574 . S
C5367 C5386 1.368 . S
C5367 H5391 0.949 . S
H5368 C5372 0.949 . S
C5369 C5370 1.349 . S
C5369 C5371 1.327 . S
C5369 H5392 0.950 . S
C5370 C5369 1.349 . S
C5370 C5382 1.349 . S
C5371 C5369 1.327 . S
C5371 C5387 1.429 . S
C5371 H5393 0.950 . S
C5372 H5368 0.949 . S
C5372 C5380 1.574 . S
C5372 C5388 1.368 . S
H5373 C5381 0.950 . S
H5374 C5379 0.950 . S
H5375 C5380 0.949 . S
H5376 C5382 0.950 . S
H5377 C5383 0.950 . S
H5378 C5384 0.949 . S
C5379 H5374 0.950 . S
C5379 C5381 1.327 . S
C5379 C5385 1.429 . S
C5380 C5372 1.574 . S
C5380 H5375 0.949 . S
C5380 C5386 1.368 . S
C5381 C5365 1.349 . S
C5381 H5373 0.950 . S
C5381 C5379 1.327 . S
C5382 C5370 1.349 . S
C5382 H5376 0.950 . S
C5382 C5383 1.327 . S
C5383 H5377 0.950 . S
C5383 C5382 1.327 . S
C5383 C5387 1.429 . S
C5384 C5367 1.574 . S
C5384 H5378 0.949 . S
C5384 C5388 1.368 . S
C5385 C5366 1.429 . S
C5385 C5379 1.429 . S
C5385 C5386 1.523 . S
C5386 C5367 1.368 . S
C5386 C5380 1.368 . S
C5386 C5385 1.523 . S
C5387 C5371 1.429 . S
C5387 C5383 1.429 . S
C5387 C5388 1.523 . S
C5388 C5372 1.368 . S
C5388 C5384 1.368 . S
C5388 C5387 1.523 . S
H5389 C5364 0.950 . S
H5390 C5366 0.950 . S
H5391 C5367 0.949 . S
H5392 C5369 0.950 . S
H5393 C5371 0.950 . S
C5394 C5395 1.349 . S
C5394 C5396 1.327 . S
C5394 H5419 0.950 . S
C5395 C5394 1.349 . S
C5395 C5411 1.349 . S
C5396 C5394 1.327 . S
C5396 C5415 1.429 . S
C5396 H5420 0.950 . S
C5397 C5414 1.574 . S
C5397 C5416 1.368 . S
C5397 H5421 0.949 . S
H5398 C5402 0.949 . S
C5399 C5400 1.349 . S
C5399 C5401 1.327 . S
C5399 H5422 0.950 . S
C5400 C5399 1.349 . S
C5400 C5412 1.349 . S
C5401 C5399 1.327 . S
C5401 C5417 1.429 . S
C5401 H5423 0.950 . S
C5402 H5398 0.949 . S
C5402 C5410 1.574 . S
C5402 C5418 1.368 . S
H5403 C5411 0.950 . S
H5404 C5409 0.950 . S
H5405 C5410 0.949 . S
H5406 C5412 0.950 . S
H5407 C5413 0.950 . S
H5408 C5414 0.949 . S
C5409 H5404 0.950 . S
C5409 C5411 1.327 . S
C5409 C5415 1.429 . S
C5410 C5402 1.574 . S
C5410 H5405 0.949 . S
C5410 C5416 1.368 . S
C5411 C5395 1.349 . S
C5411 H5403 0.950 . S
C5411 C5409 1.327 . S
C5412 C5400 1.349 . S
C5412 H5406 0.950 . S
C5412 C5413 1.327 . S
C5413 H5407 0.950 . S
C5413 C5412 1.327 . S
C5413 C5417 1.429 . S
C5414 C5397 1.574 . S
C5414 H5408 0.949 . S
C5414 C5418 1.368 . S
C5415 C5396 1.429 . S
C5415 C5409 1.429 . S
C5415 C5416 1.523 . S
C5416 C5397 1.368 . S
C5416 C5410 1.368 . S
C5416 C5415 1.523 . S
C5417 C5401 1.429 . S
C5417 C5413 1.429 . S
C5417 C5418 1.523 . S
C5418 C5402 1.368 . S
C5418 C5414 1.368 . S
C5418 C5417 1.523 . S
H5419 C5394 0.950 . S
H5420 C5396 0.950 . S
H5421 C5397 0.949 . S
H5422 C5399 0.950 . S
H5423 C5401 0.950 . S
C5424 C5425 1.349 . S
C5424 C5426 1.327 . S
C5424 H5449 0.950 . S
C5425 C5424 1.349 . S
C5425 C5441 1.349 . S
C5426 C5424 1.327 . S
C5426 C5445 1.429 . S
C5426 H5450 0.950 . S
C5427 C5444 1.574 . S
C5427 C5446 1.368 . S
C5427 H5451 0.949 . S
H5428 C5432 0.949 . S
C5429 C5430 1.349 . S
C5429 C5431 1.327 . S
C5429 H5452 0.950 . S
C5430 C5429 1.349 . S
C5430 C5442 1.349 . S
C5431 C5429 1.327 . S
C5431 C5447 1.429 . S
C5431 H5453 0.950 . S
C5432 H5428 0.949 . S
C5432 C5440 1.574 . S
C5432 C5448 1.368 . S
H5433 C5441 0.950 . S
H5434 C5439 0.950 . S
H5435 C5440 0.949 . S
H5436 C5442 0.950 . S
H5437 C5443 0.950 . S
H5438 C5444 0.949 . S
C5439 H5434 0.950 . S
C5439 C5441 1.327 . S
C5439 C5445 1.429 . S
C5440 C5432 1.574 . S
C5440 H5435 0.949 . S
C5440 C5446 1.368 . S
C5441 C5425 1.349 . S
C5441 H5433 0.950 . S
C5441 C5439 1.327 . S
C5442 C5430 1.349 . S
C5442 H5436 0.950 . S
C5442 C5443 1.327 . S
C5443 H5437 0.950 . S
C5443 C5442 1.327 . S
C5443 C5447 1.429 . S
C5444 C5427 1.574 . S
C5444 H5438 0.949 . S
C5444 C5448 1.368 . S
C5445 C5426 1.429 . S
C5445 C5439 1.429 . S
C5445 C5446 1.523 . S
C5446 C5427 1.368 . S
C5446 C5440 1.368 . S
C5446 C5445 1.523 . S
C5447 C5431 1.429 . S
C5447 C5443 1.429 . S
C5447 C5448 1.523 . S
C5448 C5432 1.368 . S
C5448 C5444 1.368 . S
C5448 C5447 1.523 . S
H5449 C5424 0.950 . S
H5450 C5426 0.950 . S
H5451 C5427 0.949 . S
H5452 C5429 0.950 . S
H5453 C5431 0.950 . S
C5454 C5455 1.349 . S
C5454 C5456 1.327 . S
C5454 H5479 0.950 . S
C5455 C5454 1.349 . S
C5455 C5471 1.349 . S
C5456 C5454 1.327 . S
C5456 C5475 1.429 . S
C5456 H5480 0.950 . S
C5457 C5474 1.574 . S
C5457 C5476 1.368 . S
C5457 H5481 0.949 . S
H5458 C5462 0.949 . S
C5459 C5460 1.349 . S
C5459 C5461 1.327 . S
C5459 H5482 0.950 . S
C5460 C5459 1.349 . S
C5460 C5472 1.349 . S
C5461 C5459 1.327 . S
C5461 C5477 1.429 . S
C5461 H5483 0.950 . S
C5462 H5458 0.949 . S
C5462 C5470 1.574 . S
C5462 C5478 1.368 . S
H5463 C5471 0.950 . S
H5464 C5469 0.950 . S
H5465 C5470 0.949 . S
H5466 C5472 0.950 . S
H5467 C5473 0.950 . S
H5468 C5474 0.949 . S
C5469 H5464 0.950 . S
C5469 C5471 1.327 . S
C5469 C5475 1.429 . S
C5470 C5462 1.574 . S
C5470 H5465 0.949 . S
C5470 C5476 1.368 . S
C5471 C5455 1.349 . S
C5471 H5463 0.950 . S
C5471 C5469 1.327 . S
C5472 C5460 1.349 . S
C5472 H5466 0.950 . S
C5472 C5473 1.327 . S
C5473 H5467 0.950 . S
C5473 C5472 1.327 . S
C5473 C5477 1.429 . S
C5474 C5457 1.574 . S
C5474 H5468 0.949 . S
C5474 C5478 1.368 . S
C5475 C5456 1.429 . S
C5475 C5469 1.429 . S
C5475 C5476 1.523 . S
C5476 C5457 1.368 . S
C5476 C5470 1.368 . S
C5476 C5475 1.523 . S
C5477 C5461 1.429 . S
C5477 C5473 1.429 . S
C5477 C5478 1.523 . S
C5478 C5462 1.368 . S
C5478 C5474 1.368 . S
C5478 C5477 1.523 . S
H5479 C5454 0.950 . S
H5480 C5456 0.950 . S
H5481 C5457 0.949 . S
H5482 C5459 0.950 . S
H5483 C5461 0.950 . S
C5484 C5485 1.349 . S
C5484 C5486 1.327 . S
C5484 H5509 0.950 . S
C5485 C5484 1.349 . S
C5485 C5501 1.349 . S
C5486 C5484 1.327 . S
C5486 C5505 1.429 . S
C5486 H5510 0.950 . S
C5487 C5504 1.574 . S
C5487 C5506 1.368 . S
C5487 H5511 0.949 . S
H5488 C5492 0.949 . S
C5489 C5490 1.349 . S
C5489 C5491 1.327 . S
C5489 H5512 0.950 . S
C5490 C5489 1.349 . S
C5490 C5502 1.349 . S
C5491 C5489 1.327 . S
C5491 C5507 1.429 . S
C5491 H5513 0.950 . S
C5492 H5488 0.949 . S
C5492 C5500 1.574 . S
C5492 C5508 1.368 . S
H5493 C5501 0.950 . S
H5494 C5499 0.950 . S
H5495 C5500 0.949 . S
H5496 C5502 0.950 . S
H5497 C5503 0.950 . S
H5498 C5504 0.949 . S
C5499 H5494 0.950 . S
C5499 C5501 1.327 . S
C5499 C5505 1.429 . S
C5500 C5492 1.574 . S
C5500 H5495 0.949 . S
C5500 C5506 1.368 . S
C5501 C5485 1.349 . S
C5501 H5493 0.950 . S
C5501 C5499 1.327 . S
C5502 C5490 1.349 . S
C5502 H5496 0.950 . S
C5502 C5503 1.327 . S
C5503 H5497 0.950 . S
C5503 C5502 1.327 . S
C5503 C5507 1.429 . S
C5504 C5487 1.574 . S
C5504 H5498 0.949 . S
C5504 C5508 1.368 . S
C5505 C5486 1.429 . S
C5505 C5499 1.429 . S
C5505 C5506 1.523 . S
C5506 C5487 1.368 . S
C5506 C5500 1.368 . S
C5506 C5505 1.523 . S
C5507 C5491 1.429 . S
C5507 C5503 1.429 . S
C5507 C5508 1.523 . S
C5508 C5492 1.368 . S
C5508 C5504 1.368 . S
C5508 C5507 1.523 . S
H5509 C5484 0.950 . S
H5510 C5486 0.950 . S
H5511 C5487 0.949 . S
H5512 C5489 0.950 . S
H5513 C5491 0.950 . S
C5514 C5515 1.349 . S
C5514 C5516 1.327 . S
C5514 H5539 0.950 . S
C5515 C5514 1.349 . S
C5515 C5531 1.349 . S
C5516 C5514 1.327 . S
C5516 C5535 1.429 . S
C5516 H5540 0.950 . S
C5517 C5534 1.574 . S
C5517 C5536 1.368 . S
C5517 H5541 0.949 . S
H5518 C5522 0.949 . S
C5519 C5520 1.349 . S
C5519 C5521 1.327 . S
C5519 H5542 0.950 . S
C5520 C5519 1.349 . S
C5520 C5532 1.349 . S
C5521 C5519 1.327 . S
C5521 C5537 1.429 . S
C5521 H5543 0.950 . S
C5522 H5518 0.949 . S
C5522 C5530 1.574 . S
C5522 C5538 1.368 . S
H5523 C5531 0.950 . S
H5524 C5529 0.950 . S
H5525 C5530 0.949 . S
H5526 C5532 0.950 . S
H5527 C5533 0.950 . S
H5528 C5534 0.949 . S
C5529 H5524 0.950 . S
C5529 C5531 1.327 . S
C5529 C5535 1.429 . S
C5530 C5522 1.574 . S
C5530 H5525 0.949 . S
C5530 C5536 1.368 . S
C5531 C5515 1.349 . S
C5531 H5523 0.950 . S
C5531 C5529 1.327 . S
C5532 C5520 1.349 . S
C5532 H5526 0.950 . S
C5532 C5533 1.327 . S
C5533 H5527 0.950 . S
C5533 C5532 1.327 . S
C5533 C5537 1.429 . S
C5534 C5517 1.574 . S
C5534 H5528 0.949 . S
C5534 C5538 1.368 . S
C5535 C5516 1.429 . S
C5535 C5529 1.429 . S
C5535 C5536 1.523 . S
C5536 C5517 1.368 . S
C5536 C5530 1.368 . S
C5536 C5535 1.523 . S
C5537 C5521 1.429 . S
C5537 C5533 1.429 . S
C5537 C5538 1.523 . S
C5538 C5522 1.368 . S
C5538 C5534 1.368 . S
C5538 C5537 1.523 . S
H5539 C5514 0.950 . S
H5540 C5516 0.950 . S
H5541 C5517 0.949 . S
H5542 C5519 0.950 . S
H5543 C5521 0.950 . S
C5544 C5545 1.349 . S
C5544 C5546 1.327 . S
C5544 H5569 0.950 . S
C5545 C5544 1.349 . S
C5545 C5561 1.349 . S
C5546 C5544 1.327 . S
C5546 C5565 1.429 . S
C5546 H5570 0.950 . S
C5547 C5564 1.574 . S
C5547 C5566 1.368 . S
C5547 H5571 0.949 . S
H5548 C5552 0.949 . S
C5549 C5550 1.349 . S
C5549 C5551 1.327 . S
C5549 H5572 0.950 . S
C5550 C5549 1.349 . S
C5550 C5562 1.349 . S
C5551 C5549 1.327 . S
C5551 C5567 1.429 . S
C5551 H5573 0.950 . S
C5552 H5548 0.949 . S
C5552 C5560 1.574 . S
C5552 C5568 1.368 . S
H5553 C5561 0.950 . S
H5554 C5559 0.950 . S
H5555 C5560 0.949 . S
H5556 C5562 0.950 . S
H5557 C5563 0.950 . S
H5558 C5564 0.949 . S
C5559 H5554 0.950 . S
C5559 C5561 1.327 . S
C5559 C5565 1.429 . S
C5560 C5552 1.574 . S
C5560 H5555 0.949 . S
C5560 C5566 1.368 . S
C5561 C5545 1.349 . S
C5561 H5553 0.950 . S
C5561 C5559 1.327 . S
C5562 C5550 1.349 . S
C5562 H5556 0.950 . S
C5562 C5563 1.327 . S
C5563 H5557 0.950 . S
C5563 C5562 1.327 . S
C5563 C5567 1.429 . S
C5564 C5547 1.574 . S
C5564 H5558 0.949 . S
C5564 C5568 1.368 . S
C5565 C5546 1.429 . S
C5565 C5559 1.429 . S
C5565 C5566 1.523 . S
C5566 C5547 1.368 . S
C5566 C5560 1.368 . S
C5566 C5565 1.523 . S
C5567 C5551 1.429 . S
C5567 C5563 1.429 . S
C5567 C5568 1.523 . S
C5568 C5552 1.368 . S
C5568 C5564 1.368 . S
C5568 C5567 1.523 . S
H5569 C5544 0.950 . S
H5570 C5546 0.950 . S
H5571 C5547 0.949 . S
H5572 C5549 0.950 . S
H5573 C5551 0.950 . S
C5574 C5575 1.349 . S
C5574 C5576 1.327 . S
C5574 H5599 0.950 . S
C5575 C5574 1.349 . S
C5575 C5591 1.349 . S
C5576 C5574 1.327 . S
C5576 C5595 1.429 . S
C5576 H5600 0.950 . S
C5577 C5594 1.574 . S
C5577 C5596 1.368 . S
C5577 H5601 0.949 . S
H5578 C5582 0.949 . S
C5579 C5580 1.349 . S
C5579 C5581 1.327 . S
C5579 H5602 0.950 . S
C5580 C5579 1.349 . S
C5580 C5592 1.349 . S
C5581 C5579 1.327 . S
C5581 C5597 1.429 . S
C5581 H5603 0.950 . S
C5582 H5578 0.949 . S
C5582 C5590 1.574 . S
C5582 C5598 1.368 . S
H5583 C5591 0.950 . S
H5584 C5589 0.950 . S
H5585 C5590 0.949 . S
H5586 C5592 0.950 . S
H5587 C5593 0.950 . S
H5588 C5594 0.949 . S
C5589 H5584 0.950 . S
C5589 C5591 1.327 . S
C5589 C5595 1.429 . S
C5590 C5582 1.574 . S
C5590 H5585 0.949 . S
C5590 C5596 1.368 . S
C5591 C5575 1.349 . S
C5591 H5583 0.950 . S
C5591 C5589 1.327 . S
C5592 C5580 1.349 . S
C5592 H5586 0.950 . S
C5592 C5593 1.327 . S
C5593 H5587 0.950 . S
C5593 C5592 1.327 . S
C5593 C5597 1.429 . S
C5594 C5577 1.574 . S
C5594 H5588 0.949 . S
C5594 C5598 1.368 . S
C5595 C5576 1.429 . S
C5595 C5589 1.429 . S
C5595 C5596 1.523 . S
C5596 C5577 1.368 . S
C5596 C5590 1.368 . S
C5596 C5595 1.523 . S
C5597 C5581 1.429 . S
C5597 C5593 1.429 . S
C5597 C5598 1.523 . S
C5598 C5582 1.368 . S
C5598 C5594 1.368 . S
C5598 C5597 1.523 . S
H5599 C5574 0.950 . S
H5600 C5576 0.950 . S
H5601 C5577 0.949 . S
H5602 C5579 0.950 . S
H5603 C5581 0.950 . S
C5604 C5605 1.349 . S
C5604 C5606 1.327 . S
C5604 H5629 0.950 . S
C5605 C5604 1.349 . S
C5605 C5621 1.349 . S
C5606 C5604 1.327 . S
C5606 C5625 1.429 . S
C5606 H5630 0.950 . S
C5607 C5624 1.574 . S
C5607 C5626 1.368 . S
C5607 H5631 0.949 . S
H5608 C5612 0.949 . S
C5609 C5610 1.349 . S
C5609 C5611 1.327 . S
C5609 H5632 0.950 . S
C5610 C5609 1.349 . S
C5610 C5622 1.349 . S
C5611 C5609 1.327 . S
C5611 C5627 1.429 . S
C5611 H5633 0.950 . S
C5612 H5608 0.949 . S
C5612 C5620 1.574 . S
C5612 C5628 1.368 . S
H5613 C5621 0.950 . S
H5614 C5619 0.950 . S
H5615 C5620 0.949 . S
H5616 C5622 0.950 . S
H5617 C5623 0.950 . S
H5618 C5624 0.949 . S
C5619 H5614 0.950 . S
C5619 C5621 1.327 . S
C5619 C5625 1.429 . S
C5620 C5612 1.574 . S
C5620 H5615 0.949 . S
C5620 C5626 1.368 . S
C5621 C5605 1.349 . S
C5621 H5613 0.950 . S
C5621 C5619 1.327 . S
C5622 C5610 1.349 . S
C5622 H5616 0.950 . S
C5622 C5623 1.327 . S
C5623 H5617 0.950 . S
C5623 C5622 1.327 . S
C5623 C5627 1.429 . S
C5624 C5607 1.574 . S
C5624 H5618 0.949 . S
C5624 C5628 1.368 . S
C5625 C5606 1.429 . S
C5625 C5619 1.429 . S
C5625 C5626 1.523 . S
C5626 C5607 1.368 . S
C5626 C5620 1.368 . S
C5626 C5625 1.523 . S
C5627 C5611 1.429 . S
C5627 C5623 1.429 . S
C5627 C5628 1.523 . S
C5628 C5612 1.368 . S
C5628 C5624 1.368 . S
C5628 C5627 1.523 . S
H5629 C5604 0.950 . S
H5630 C5606 0.950 . S
H5631 C5607 0.949 . S
H5632 C5609 0.950 . S
H5633 C5611 0.950 . S
C5634 C5635 1.349 . S
C5634 C5636 1.327 . S
C5634 H5659 0.950 . S
C5635 C5634 1.349 . S
C5635 C5651 1.349 . S
C5636 C5634 1.327 . S
C5636 C5655 1.429 . S
C5636 H5660 0.950 . S
C5637 C5654 1.574 . S
C5637 C5656 1.368 . S
C5637 H5661 0.949 . S
H5638 C5642 0.949 . S
C5639 C5640 1.349 . S
C5639 C5641 1.327 . S
C5639 H5662 0.950 . S
C5640 C5639 1.349 . S
C5640 C5652 1.349 . S
C5641 C5639 1.327 . S
C5641 C5657 1.429 . S
C5641 H5663 0.950 . S
C5642 H5638 0.949 . S
C5642 C5650 1.574 . S
C5642 C5658 1.368 . S
H5643 C5651 0.950 . S
H5644 C5649 0.950 . S
H5645 C5650 0.949 . S
H5646 C5652 0.950 . S
H5647 C5653 0.950 . S
H5648 C5654 0.949 . S
C5649 H5644 0.950 . S
C5649 C5651 1.327 . S
C5649 C5655 1.429 . S
C5650 C5642 1.574 . S
C5650 H5645 0.949 . S
C5650 C5656 1.368 . S
C5651 C5635 1.349 . S
C5651 H5643 0.950 . S
C5651 C5649 1.327 . S
C5652 C5640 1.349 . S
C5652 H5646 0.950 . S
C5652 C5653 1.327 . S
C5653 H5647 0.950 . S
C5653 C5652 1.327 . S
C5653 C5657 1.429 . S
C5654 C5637 1.574 . S
C5654 H5648 0.949 . S
C5654 C5658 1.368 . S
C5655 C5636 1.429 . S
C5655 C5649 1.429 . S
C5655 C5656 1.523 . S
C5656 C5637 1.368 . S
C5656 C5650 1.368 . S
C5656 C5655 1.523 . S
C5657 C5641 1.429 . S
C5657 C5653 1.429 . S
C5657 C5658 1.523 . S
C5658 C5642 1.368 . S
C5658 C5654 1.368 . S
C5658 C5657 1.523 . S
H5659 C5634 0.950 . S
H5660 C5636 0.950 . S
H5661 C5637 0.949 . S
H5662 C5639 0.950 . S
H5663 C5641 0.950 . S
C5664 C5665 1.349 . S
C5664 C5666 1.327 . S
C5664 H5689 0.950 . S
C5665 C5664 1.349 . S
C5665 C5681 1.349 . S
C5666 C5664 1.327 . S
C5666 C5685 1.429 . S
C5666 H5690 0.950 . S
C5667 C5684 1.574 . S
C5667 C5686 1.368 . S
C5667 H5691 0.949 . S
H5668 C5672 0.949 . S
C5669 C5670 1.349 . S
C5669 C5671 1.327 . S
C5669 H5692 0.950 . S
C5670 C5669 1.349 . S
C5670 C5682 1.349 . S
C5671 C5669 1.327 . S
C5671 C5687 1.429 . S
C5671 H5693 0.950 . S
C5672 H5668 0.949 . S
C5672 C5680 1.574 . S
C5672 C5688 1.368 . S
H5673 C5681 0.950 . S
H5674 C5679 0.950 . S
H5675 C5680 0.949 . S
H5676 C5682 0.950 . S
H5677 C5683 0.950 . S
H5678 C5684 0.949 . S
C5679 H5674 0.950 . S
C5679 C5681 1.327 . S
C5679 C5685 1.429 . S
C5680 C5672 1.574 . S
C5680 H5675 0.949 . S
C5680 C5686 1.368 . S
C5681 C5665 1.349 . S
C5681 H5673 0.950 . S
C5681 C5679 1.327 . S
C5682 C5670 1.349 . S
C5682 H5676 0.950 . S
C5682 C5683 1.327 . S
C5683 H5677 0.950 . S
C5683 C5682 1.327 . S
C5683 C5687 1.429 . S
C5684 C5667 1.574 . S
C5684 H5678 0.949 . S
C5684 C5688 1.368 . S
C5685 C5666 1.429 . S
C5685 C5679 1.429 . S
C5685 C5686 1.523 . S
C5686 C5667 1.368 . S
C5686 C5680 1.368 . S
C5686 C5685 1.523 . S
C5687 C5671 1.429 . S
C5687 C5683 1.429 . S
C5687 C5688 1.523 . S
C5688 C5672 1.368 . S
C5688 C5684 1.368 . S
C5688 C5687 1.523 . S
H5689 C5664 0.950 . S
H5690 C5666 0.950 . S
H5691 C5667 0.949 . S
H5692 C5669 0.950 . S
H5693 C5671 0.950 . S
C5694 C5695 1.349 . S
C5694 C5696 1.327 . S
C5694 H5719 0.950 . S
C5695 C5694 1.349 . S
C5695 C5711 1.349 . S
C5696 C5694 1.327 . S
C5696 C5715 1.429 . S
C5696 H5720 0.950 . S
C5697 C5714 1.574 . S
C5697 C5716 1.368 . S
C5697 H5721 0.949 . S
H5698 C5702 0.949 . S
C5699 C5700 1.349 . S
C5699 C5701 1.327 . S
C5699 H5722 0.950 . S
C5700 C5699 1.349 . S
C5700 C5712 1.349 . S
C5701 C5699 1.327 . S
C5701 C5717 1.429 . S
C5701 H5723 0.950 . S
C5702 H5698 0.949 . S
C5702 C5710 1.574 . S
C5702 C5718 1.368 . S
H5703 C5711 0.950 . S
H5704 C5709 0.950 . S
H5705 C5710 0.949 . S
H5706 C5712 0.950 . S
H5707 C5713 0.950 . S
H5708 C5714 0.949 . S
C5709 H5704 0.950 . S
C5709 C5711 1.327 . S
C5709 C5715 1.429 . S
C5710 C5702 1.574 . S
C5710 H5705 0.949 . S
C5710 C5716 1.368 . S
C5711 C5695 1.349 . S
C5711 H5703 0.950 . S
C5711 C5709 1.327 . S
C5712 C5700 1.349 . S
C5712 H5706 0.950 . S
C5712 C5713 1.327 . S
C5713 H5707 0.950 . S
C5713 C5712 1.327 . S
C5713 C5717 1.429 . S
C5714 C5697 1.574 . S
C5714 H5708 0.949 . S
C5714 C5718 1.368 . S
C5715 C5696 1.429 . S
C5715 C5709 1.429 . S
C5715 C5716 1.523 . S
C5716 C5697 1.368 . S
C5716 C5710 1.368 . S
C5716 C5715 1.523 . S
C5717 C5701 1.429 . S
C5717 C5713 1.429 . S
C5717 C5718 1.523 . S
C5718 C5702 1.368 . S
C5718 C5714 1.368 . S
C5718 C5717 1.523 . S
H5719 C5694 0.950 . S
H5720 C5696 0.950 . S
H5721 C5697 0.949 . S
H5722 C5699 0.950 . S
H5723 C5701 0.950 . S
C5724 C5725 1.349 . S
C5724 C5726 1.327 . S
C5724 H5749 0.950 . S
C5725 C5724 1.349 . S
C5725 C5741 1.349 . S
C5726 C5724 1.327 . S
C5726 C5745 1.429 . S
C5726 H5750 0.950 . S
C5727 C5744 1.574 . S
C5727 C5746 1.368 . S
C5727 H5751 0.949 . S
H5728 C5732 0.949 . S
C5729 C5730 1.349 . S
C5729 C5731 1.327 . S
C5729 H5752 0.950 . S
C5730 C5729 1.349 . S
C5730 C5742 1.349 . S
C5731 C5729 1.327 . S
C5731 C5747 1.429 . S
C5731 H5753 0.950 . S
C5732 H5728 0.949 . S
C5732 C5740 1.574 . S
C5732 C5748 1.368 . S
H5733 C5741 0.950 . S
H5734 C5739 0.950 . S
H5735 C5740 0.949 . S
H5736 C5742 0.950 . S
H5737 C5743 0.950 . S
H5738 C5744 0.949 . S
C5739 H5734 0.950 . S
C5739 C5741 1.327 . S
C5739 C5745 1.429 . S
C5740 C5732 1.574 . S
C5740 H5735 0.949 . S
C5740 C5746 1.368 . S
C5741 C5725 1.349 . S
C5741 H5733 0.950 . S
C5741 C5739 1.327 . S
C5742 C5730 1.349 . S
C5742 H5736 0.950 . S
C5742 C5743 1.327 . S
C5743 H5737 0.950 . S
C5743 C5742 1.327 . S
C5743 C5747 1.429 . S
C5744 C5727 1.574 . S
C5744 H5738 0.949 . S
C5744 C5748 1.368 . S
C5745 C5726 1.429 . S
C5745 C5739 1.429 . S
C5745 C5746 1.523 . S
C5746 C5727 1.368 . S
C5746 C5740 1.368 . S
C5746 C5745 1.523 . S
C5747 C5731 1.429 . S
C5747 C5743 1.429 . S
C5747 C5748 1.523 . S
C5748 C5732 1.368 . S
C5748 C5744 1.368 . S
C5748 C5747 1.523 . S
H5749 C5724 0.950 . S
H5750 C5726 0.950 . S
H5751 C5727 0.949 . S
H5752 C5729 0.950 . S
H5753 C5731 0.950 . S
C5754 C5755 1.349 . S
C5754 C5756 1.327 . S
C5754 H5779 0.950 . S
C5755 C5754 1.349 . S
C5755 C5771 1.349 . S
C5756 C5754 1.327 . S
C5756 C5775 1.429 . S
C5756 H5780 0.950 . S
C5757 C5774 1.574 . S
C5757 C5776 1.368 . S
C5757 H5781 0.949 . S
H5758 C5762 0.949 . S
C5759 C5760 1.349 . S
C5759 C5761 1.327 . S
C5759 H5782 0.950 . S
C5760 C5759 1.349 . S
C5760 C5772 1.349 . S
C5761 C5759 1.327 . S
C5761 C5777 1.429 . S
C5761 H5783 0.950 . S
C5762 H5758 0.949 . S
C5762 C5770 1.574 . S
C5762 C5778 1.368 . S
H5763 C5771 0.950 . S
H5764 C5769 0.950 . S
H5765 C5770 0.949 . S
H5766 C5772 0.950 . S
H5767 C5773 0.950 . S
H5768 C5774 0.949 . S
C5769 H5764 0.950 . S
C5769 C5771 1.327 . S
C5769 C5775 1.429 . S
C5770 C5762 1.574 . S
C5770 H5765 0.949 . S
C5770 C5776 1.368 . S
C5771 C5755 1.349 . S
C5771 H5763 0.950 . S
C5771 C5769 1.327 . S
C5772 C5760 1.349 . S
C5772 H5766 0.950 . S
C5772 C5773 1.327 . S
C5773 H5767 0.950 . S
C5773 C5772 1.327 . S
C5773 C5777 1.429 . S
C5774 C5757 1.574 . S
C5774 H5768 0.949 . S
C5774 C5778 1.368 . S
C5775 C5756 1.429 . S
C5775 C5769 1.429 . S
C5775 C5776 1.523 . S
C5776 C5757 1.368 . S
C5776 C5770 1.368 . S
C5776 C5775 1.523 . S
C5777 C5761 1.429 . S
C5777 C5773 1.429 . S
C5777 C5778 1.523 . S
C5778 C5762 1.368 . S
C5778 C5774 1.368 . S
C5778 C5777 1.523 . S
H5779 C5754 0.950 . S
H5780 C5756 0.950 . S
H5781 C5757 0.949 . S
H5782 C5759 0.950 . S
H5783 C5761 0.950 . S
C5784 C5785 1.349 . S
C5784 C5786 1.327 . S
C5784 H5809 0.950 . S
C5785 C5784 1.349 . S
C5785 C5801 1.349 . S
C5786 C5784 1.327 . S
C5786 C5805 1.429 . S
C5786 H5810 0.950 . S
C5787 C5804 1.574 . S
C5787 C5806 1.368 . S
C5787 H5811 0.949 . S
H5788 C5792 0.949 . S
C5789 C5790 1.349 . S
C5789 C5791 1.327 . S
C5789 H5812 0.950 . S
C5790 C5789 1.349 . S
C5790 C5802 1.349 . S
C5791 C5789 1.327 . S
C5791 C5807 1.429 . S
C5791 H5813 0.950 . S
C5792 H5788 0.949 . S
C5792 C5800 1.574 . S
C5792 C5808 1.368 . S
H5793 C5801 0.950 . S
H5794 C5799 0.950 . S
H5795 C5800 0.949 . S
H5796 C5802 0.950 . S
H5797 C5803 0.950 . S
H5798 C5804 0.949 . S
C5799 H5794 0.950 . S
C5799 C5801 1.327 . S
C5799 C5805 1.429 . S
C5800 C5792 1.574 . S
C5800 H5795 0.949 . S
C5800 C5806 1.368 . S
C5801 C5785 1.349 . S
C5801 H5793 0.950 . S
C5801 C5799 1.327 . S
C5802 C5790 1.349 . S
C5802 H5796 0.950 . S
C5802 C5803 1.327 . S
C5803 H5797 0.950 . S
C5803 C5802 1.327 . S
C5803 C5807 1.429 . S
C5804 C5787 1.574 . S
C5804 H5798 0.949 . S
C5804 C5808 1.368 . S
C5805 C5786 1.429 . S
C5805 C5799 1.429 . S
C5805 C5806 1.523 . S
C5806 C5787 1.368 . S
C5806 C5800 1.368 . S
C5806 C5805 1.523 . S
C5807 C5791 1.429 . S
C5807 C5803 1.429 . S
C5807 C5808 1.523 . S
C5808 C5792 1.368 . S
C5808 C5804 1.368 . S
C5808 C5807 1.523 . S
H5809 C5784 0.950 . S
H5810 C5786 0.950 . S
H5811 C5787 0.949 . S
H5812 C5789 0.950 . S
H5813 C5791 0.950 . S
C5814 C5815 1.349 . S
C5814 C5816 1.327 . S
C5814 H5839 0.950 . S
C5815 C5814 1.349 . S
C5815 C5831 1.349 . S
C5816 C5814 1.327 . S
C5816 C5835 1.429 . S
C5816 H5840 0.950 . S
C5817 C5834 1.574 1_556 S
C5817 C5836 1.368 . S
C5817 H5841 0.949 . S
H5818 C5822 0.949 . S
C5819 C5820 1.349 . S
C5819 C5821 1.327 . S
C5819 H5842 0.950 . S
C5820 C5819 1.349 . S
C5820 C5832 1.349 . S
C5821 C5819 1.327 . S
C5821 C5837 1.429 . S
C5821 H5843 0.950 . S
C5822 H5818 0.949 . S
C5822 C5830 1.574 1_554 S
C5822 C5838 1.368 . S
H5823 C5831 0.950 . S
H5824 C5829 0.950 . S
H5825 C5830 0.949 . S
H5826 C5832 0.950 . S
H5827 C5833 0.950 . S
H5828 C5834 0.949 . S
C5829 H5824 0.950 . S
C5829 C5831 1.327 . S
C5829 C5835 1.429 . S
C5830 C5822 1.574 1_556 S
C5830 H5825 0.949 . S
C5830 C5836 1.368 . S
C5831 C5815 1.349 . S
C5831 H5823 0.950 . S
C5831 C5829 1.327 . S
C5832 C5820 1.349 . S
C5832 H5826 0.950 . S
C5832 C5833 1.327 . S
C5833 H5827 0.950 . S
C5833 C5832 1.327 . S
C5833 C5837 1.429 . S
C5834 C5817 1.574 1_554 S
C5834 H5828 0.949 . S
C5834 C5838 1.368 . S
C5835 C5816 1.429 . S
C5835 C5829 1.429 . S
C5835 C5836 1.523 . S
C5836 C5817 1.368 . S
C5836 C5830 1.368 . S
C5836 C5835 1.523 . S
C5837 C5821 1.429 . S
C5837 C5833 1.429 . S
C5837 C5838 1.523 . S
C5838 C5822 1.368 . S
C5838 C5834 1.368 . S
C5838 C5837 1.523 . S
H5839 C5814 0.950 . S
H5840 C5816 0.950 . S
H5841 C5817 0.949 . S
H5842 C5819 0.950 . S
H5843 C5821 0.950 . S
C5844 C5845 1.349 . S
C5844 C5846 1.327 . S
C5844 H5869 0.950 . S
C5845 C5844 1.349 . S
C5845 C5861 1.349 . S
C5846 C5844 1.327 . S
C5846 C5865 1.429 . S
C5846 H5870 0.950 . S
C5847 C5864 1.574 1_556 S
C5847 C5866 1.368 . S
C5847 H5871 0.949 . S
H5848 C5852 0.949 . S
C5849 C5850 1.349 . S
C5849 C5851 1.327 . S
C5849 H5872 0.950 . S
C5850 C5849 1.349 . S
C5850 C5862 1.349 . S
C5851 C5849 1.327 . S
C5851 C5867 1.429 . S
C5851 H5873 0.950 . S
C5852 H5848 0.949 . S
C5852 C5860 1.574 1_554 S
C5852 C5868 1.368 . S
H5853 C5861 0.950 . S
H5854 C5859 0.950 . S
H5855 C5860 0.949 . S
H5856 C5862 0.950 . S
H5857 C5863 0.950 . S
H5858 C5864 0.949 . S
C5859 H5854 0.950 . S
C5859 C5861 1.327 . S
C5859 C5865 1.429 . S
C5860 C5852 1.574 1_556 S
C5860 H5855 0.949 . S
C5860 C5866 1.368 . S
C5861 C5845 1.349 . S
C5861 H5853 0.950 . S
C5861 C5859 1.327 . S
C5862 C5850 1.349 . S
C5862 H5856 0.950 . S
C5862 C5863 1.327 . S
C5863 H5857 0.950 . S
C5863 C5862 1.327 . S
C5863 C5867 1.429 . S
C5864 C5847 1.574 1_554 S
C5864 H5858 0.949 . S
C5864 C5868 1.368 . S
C5865 C5846 1.429 . S
C5865 C5859 1.429 . S
C5865 C5866 1.523 . S
C5866 C5847 1.368 . S
C5866 C5860 1.368 . S
C5866 C5865 1.523 . S
C5867 C5851 1.429 . S
C5867 C5863 1.429 . S
C5867 C5868 1.523 . S
C5868 C5852 1.368 . S
C5868 C5864 1.368 . S
C5868 C5867 1.523 . S
H5869 C5844 0.950 . S
H5870 C5846 0.950 . S
H5871 C5847 0.949 . S
H5872 C5849 0.950 . S
H5873 C5851 0.950 . S
C5874 C5875 1.349 . S
C5874 C5876 1.327 . S
C5874 H5899 0.950 . S
C5875 C5874 1.349 . S
C5875 C5891 1.349 . S
C5876 C5874 1.327 . S
C5876 C5895 1.429 . S
C5876 H5900 0.950 . S
C5877 C5894 1.574 1_556 S
C5877 C5896 1.368 . S
C5877 H5901 0.949 . S
H5878 C5882 0.949 . S
C5879 C5880 1.349 . S
C5879 C5881 1.327 . S
C5879 H5902 0.950 . S
C5880 C5879 1.349 . S
C5880 C5892 1.349 . S
C5881 C5879 1.327 . S
C5881 C5897 1.429 . S
C5881 H5903 0.950 . S
C5882 H5878 0.949 . S
C5882 C5890 1.574 1_554 S
C5882 C5898 1.368 . S
H5883 C5891 0.950 . S
H5884 C5889 0.950 . S
H5885 C5890 0.949 . S
H5886 C5892 0.950 . S
H5887 C5893 0.950 . S
H5888 C5894 0.949 . S
C5889 H5884 0.950 . S
C5889 C5891 1.327 . S
C5889 C5895 1.429 . S
C5890 C5882 1.574 1_556 S
C5890 H5885 0.949 . S
C5890 C5896 1.368 . S
C5891 C5875 1.349 . S
C5891 H5883 0.950 . S
C5891 C5889 1.327 . S
C5892 C5880 1.349 . S
C5892 H5886 0.950 . S
C5892 C5893 1.327 . S
C5893 H5887 0.950 . S
C5893 C5892 1.327 . S
C5893 C5897 1.429 . S
C5894 C5877 1.574 1_554 S
C5894 H5888 0.949 . S
C5894 C5898 1.368 . S
C5895 C5876 1.429 . S
C5895 C5889 1.429 . S
C5895 C5896 1.523 . S
C5896 C5877 1.368 . S
C5896 C5890 1.368 . S
C5896 C5895 1.523 . S
C5897 C5881 1.429 . S
C5897 C5893 1.429 . S
C5897 C5898 1.523 . S
C5898 C5882 1.368 . S
C5898 C5894 1.368 . S
C5898 C5897 1.523 . S
H5899 C5874 0.950 . S
H5900 C5876 0.950 . S
H5901 C5877 0.949 . S
H5902 C5879 0.950 . S
H5903 C5881 0.950 . S
C5904 C5905 1.349 . S
C5904 C5906 1.327 . S
C5904 H5929 0.950 . S
C5905 C5904 1.349 . S
C5905 C5921 1.349 . S
C5906 C5904 1.327 . S
C5906 C5925 1.429 . S
C5906 H5930 0.950 . S
C5907 C5924 1.574 . S
C5907 C5926 1.368 . S
C5907 H5931 0.949 . S
H5908 C5912 0.949 . S
C5909 C5910 1.349 . S
C5909 C5911 1.327 . S
C5909 H5932 0.950 . S
C5910 C5909 1.349 . S
C5910 C5922 1.349 . S
C5911 C5909 1.327 . S
C5911 C5927 1.429 . S
C5911 H5933 0.950 . S
C5912 H5908 0.949 . S
C5912 C5920 1.574 . S
C5912 C5928 1.368 . S
H5913 C5921 0.950 . S
H5914 C5919 0.950 . S
H5915 C5920 0.949 . S
H5916 C5922 0.950 . S
H5917 C5923 0.950 . S
H5918 C5924 0.949 . S
C5919 H5914 0.950 . S
C5919 C5921 1.327 . S
C5919 C5925 1.429 . S
C5920 C5912 1.574 . S
C5920 H5915 0.949 . S
C5920 C5926 1.368 . S
C5921 C5905 1.349 . S
C5921 H5913 0.950 . S
C5921 C5919 1.327 . S
C5922 C5910 1.349 . S
C5922 H5916 0.950 . S
C5922 C5923 1.327 . S
C5923 H5917 0.950 . S
C5923 C5922 1.327 . S
C5923 C5927 1.429 . S
C5924 C5907 1.574 . S
C5924 H5918 0.949 . S
C5924 C5928 1.368 . S
C5925 C5906 1.429 . S
C5925 C5919 1.429 . S
C5925 C5926 1.523 . S
C5926 C5907 1.368 . S
C5926 C5920 1.368 . S
C5926 C5925 1.523 . S
C5927 C5911 1.429 . S
C5927 C5923 1.429 . S
C5927 C5928 1.523 . S
C5928 C5912 1.368 . S
C5928 C5924 1.368 . S
C5928 C5927 1.523 . S
H5929 C5904 0.950 . S
H5930 C5906 0.950 . S
H5931 C5907 0.949 . S
H5932 C5909 0.950 . S
H5933 C5911 0.950 . S
C5934 C5935 1.349 . S
C5934 C5936 1.327 . S
C5934 H5959 0.950 . S
C5935 C5934 1.349 . S
C5935 C5951 1.349 . S
C5936 C5934 1.327 . S
C5936 C5955 1.429 . S
C5936 H5960 0.950 . S
C5937 C5954 1.574 . S
C5937 C5956 1.368 . S
C5937 H5961 0.949 . S
H5938 C5942 0.949 . S
C5939 C5940 1.349 . S
C5939 C5941 1.327 . S
C5939 H5962 0.950 . S
C5940 C5939 1.349 . S
C5940 C5952 1.349 . S
C5941 C5939 1.327 . S
C5941 C5957 1.429 . S
C5941 H5963 0.950 . S
C5942 H5938 0.949 . S
C5942 C5950 1.574 . S
C5942 C5958 1.368 . S
H5943 C5951 0.950 . S
H5944 C5949 0.950 . S
H5945 C5950 0.949 . S
H5946 C5952 0.950 . S
H5947 C5953 0.950 . S
H5948 C5954 0.949 . S
C5949 H5944 0.950 . S
C5949 C5951 1.327 . S
C5949 C5955 1.429 . S
C5950 C5942 1.574 . S
C5950 H5945 0.949 . S
C5950 C5956 1.368 . S
C5951 C5935 1.349 . S
C5951 H5943 0.950 . S
C5951 C5949 1.327 . S
C5952 C5940 1.349 . S
C5952 H5946 0.950 . S
C5952 C5953 1.327 . S
C5953 H5947 0.950 . S
C5953 C5952 1.327 . S
C5953 C5957 1.429 . S
C5954 C5937 1.574 . S
C5954 H5948 0.949 . S
C5954 C5958 1.368 . S
C5955 C5936 1.429 . S
C5955 C5949 1.429 . S
C5955 C5956 1.523 . S
C5956 C5937 1.368 . S
C5956 C5950 1.368 . S
C5956 C5955 1.523 . S
C5957 C5941 1.429 . S
C5957 C5953 1.429 . S
C5957 C5958 1.523 . S
C5958 C5942 1.368 . S
C5958 C5954 1.368 . S
C5958 C5957 1.523 . S
H5959 C5934 0.950 . S
H5960 C5936 0.950 . S
H5961 C5937 0.949 . S
H5962 C5939 0.950 . S
H5963 C5941 0.950 . S
C5964 C5965 1.349 . S
C5964 C5966 1.327 . S
C5964 H5989 0.950 . S
C5965 C5964 1.349 . S
C5965 C5981 1.349 . S
C5966 C5964 1.327 . S
C5966 C5985 1.429 . S
C5966 H5990 0.950 . S
C5967 C5984 1.574 . S
C5967 C5986 1.368 . S
C5967 H5991 0.949 . S
H5968 C5972 0.949 . S
C5969 C5970 1.349 . S
C5969 C5971 1.327 . S
C5969 H5992 0.950 . S
C5970 C5969 1.349 . S
C5970 C5982 1.349 . S
C5971 C5969 1.327 . S
C5971 C5987 1.429 . S
C5971 H5993 0.950 . S
C5972 H5968 0.949 . S
C5972 C5980 1.574 . S
C5972 C5988 1.368 . S
H5973 C5981 0.950 . S
H5974 C5979 0.950 . S
H5975 C5980 0.949 . S
H5976 C5982 0.950 . S
H5977 C5983 0.950 . S
H5978 C5984 0.949 . S
C5979 H5974 0.950 . S
C5979 C5981 1.327 . S
C5979 C5985 1.429 . S
C5980 C5972 1.574 . S
C5980 H5975 0.949 . S
C5980 C5986 1.368 . S
C5981 C5965 1.349 . S
C5981 H5973 0.950 . S
C5981 C5979 1.327 . S
C5982 C5970 1.349 . S
C5982 H5976 0.950 . S
C5982 C5983 1.327 . S
C5983 H5977 0.950 . S
C5983 C5982 1.327 . S
C5983 C5987 1.429 . S
C5984 C5967 1.574 . S
C5984 H5978 0.949 . S
C5984 C5988 1.368 . S
C5985 C5966 1.429 . S
C5985 C5979 1.429 . S
C5985 C5986 1.523 . S
C5986 C5967 1.368 . S
C5986 C5980 1.368 . S
C5986 C5985 1.523 . S
C5987 C5971 1.429 . S
C5987 C5983 1.429 . S
C5987 C5988 1.523 . S
C5988 C5972 1.368 . S
C5988 C5984 1.368 . S
C5988 C5987 1.523 . S
H5989 C5964 0.950 . S
H5990 C5966 0.950 . S
H5991 C5967 0.949 . S
H5992 C5969 0.950 . S
H5993 C5971 0.950 . S
C5994 C5995 1.349 . S
C5994 C5996 1.327 . S
C5994 H6019 0.950 . S
C5995 C5994 1.349 . S
C5995 C6011 1.349 . S
C5996 C5994 1.327 . S
C5996 C6015 1.429 . S
C5996 H6020 0.950 . S
C5997 C6014 1.574 . S
C5997 C6016 1.368 . S
C5997 H6021 0.949 . S
H5998 C6002 0.949 . S
C5999 C6000 1.349 . S
C5999 C6001 1.327 . S
C5999 H6022 0.950 . S
C6000 C5999 1.349 . S
C6000 C6012 1.349 . S
C6001 C5999 1.327 . S
C6001 C6017 1.429 . S
C6001 H6023 0.950 . S
C6002 H5998 0.949 . S
C6002 C6010 1.574 . S
C6002 C6018 1.368 . S
H6003 C6011 0.950 . S
H6004 C6009 0.950 . S
H6005 C6010 0.949 . S
H6006 C6012 0.950 . S
H6007 C6013 0.950 . S
H6008 C6014 0.949 . S
C6009 H6004 0.950 . S
C6009 C6011 1.327 . S
C6009 C6015 1.429 . S
C6010 C6002 1.574 . S
C6010 H6005 0.949 . S
C6010 C6016 1.368 . S
C6011 C5995 1.349 . S
C6011 H6003 0.950 . S
C6011 C6009 1.327 . S
C6012 C6000 1.349 . S
C6012 H6006 0.950 . S
C6012 C6013 1.327 . S
C6013 H6007 0.950 . S
C6013 C6012 1.327 . S
C6013 C6017 1.429 . S
C6014 C5997 1.574 . S
C6014 H6008 0.949 . S
C6014 C6018 1.368 . S
C6015 C5996 1.429 . S
C6015 C6009 1.429 . S
C6015 C6016 1.523 . S
C6016 C5997 1.368 . S
C6016 C6010 1.368 . S
C6016 C6015 1.523 . S
C6017 C6001 1.429 . S
C6017 C6013 1.429 . S
C6017 C6018 1.523 . S
C6018 C6002 1.368 . S
C6018 C6014 1.368 . S
C6018 C6017 1.523 . S
H6019 C5994 0.950 . S
H6020 C5996 0.950 . S
H6021 C5997 0.949 . S
H6022 C5999 0.950 . S
H6023 C6001 0.950 . S
C6024 C6025 1.349 . S
C6024 C6026 1.327 . S
C6024 H6049 0.950 . S
C6025 C6024 1.349 . S
C6025 C6041 1.349 . S
C6026 C6024 1.327 . S
C6026 C6045 1.429 . S
C6026 H6050 0.950 . S
C6027 C6044 1.574 . S
C6027 C6046 1.368 . S
C6027 H6051 0.949 . S
H6028 C6032 0.949 . S
C6029 C6030 1.349 . S
C6029 C6031 1.327 . S
C6029 H6052 0.950 . S
C6030 C6029 1.349 . S
C6030 C6042 1.349 . S
C6031 C6029 1.327 . S
C6031 C6047 1.429 . S
C6031 H6053 0.950 . S
C6032 H6028 0.949 . S
C6032 C6040 1.574 . S
C6032 C6048 1.368 . S
H6033 C6041 0.950 . S
H6034 C6039 0.950 . S
H6035 C6040 0.949 . S
H6036 C6042 0.950 . S
H6037 C6043 0.950 . S
H6038 C6044 0.949 . S
C6039 H6034 0.950 . S
C6039 C6041 1.327 . S
C6039 C6045 1.429 . S
C6040 C6032 1.574 . S
C6040 H6035 0.949 . S
C6040 C6046 1.368 . S
C6041 C6025 1.349 . S
C6041 H6033 0.950 . S
C6041 C6039 1.327 . S
C6042 C6030 1.349 . S
C6042 H6036 0.950 . S
C6042 C6043 1.327 . S
C6043 H6037 0.950 . S
C6043 C6042 1.327 . S
C6043 C6047 1.429 . S
C6044 C6027 1.574 . S
C6044 H6038 0.949 . S
C6044 C6048 1.368 . S
C6045 C6026 1.429 . S
C6045 C6039 1.429 . S
C6045 C6046 1.523 . S
C6046 C6027 1.368 . S
C6046 C6040 1.368 . S
C6046 C6045 1.523 . S
C6047 C6031 1.429 . S
C6047 C6043 1.429 . S
C6047 C6048 1.523 . S
C6048 C6032 1.368 . S
C6048 C6044 1.368 . S
C6048 C6047 1.523 . S
H6049 C6024 0.950 . S
H6050 C6026 0.950 . S
H6051 C6027 0.949 . S
H6052 C6029 0.950 . S
H6053 C6031 0.950 . S
C6054 C6055 1.349 . S
C6054 C6056 1.327 . S
C6054 H6079 0.950 . S
C6055 C6054 1.349 . S
C6055 C6071 1.349 . S
C6056 C6054 1.327 . S
C6056 C6075 1.429 . S
C6056 H6080 0.950 . S
C6057 C6074 1.574 . S
C6057 C6076 1.368 . S
C6057 H6081 0.949 . S
H6058 C6062 0.949 . S
C6059 C6060 1.349 . S
C6059 C6061 1.327 . S
C6059 H6082 0.950 . S
C6060 C6059 1.349 . S
C6060 C6072 1.349 . S
C6061 C6059 1.327 . S
C6061 C6077 1.429 . S
C6061 H6083 0.950 . S
C6062 H6058 0.949 . S
C6062 C6070 1.574 . S
C6062 C6078 1.368 . S
H6063 C6071 0.950 . S
H6064 C6069 0.950 . S
H6065 C6070 0.949 . S
H6066 C6072 0.950 . S
H6067 C6073 0.950 . S
H6068 C6074 0.949 . S
C6069 H6064 0.950 . S
C6069 C6071 1.327 . S
C6069 C6075 1.429 . S
C6070 C6062 1.574 . S
C6070 H6065 0.949 . S
C6070 C6076 1.368 . S
C6071 C6055 1.349 . S
C6071 H6063 0.950 . S
C6071 C6069 1.327 . S
C6072 C6060 1.349 . S
C6072 H6066 0.950 . S
C6072 C6073 1.327 . S
C6073 H6067 0.950 . S
C6073 C6072 1.327 . S
C6073 C6077 1.429 . S
C6074 C6057 1.574 . S
C6074 H6068 0.949 . S
C6074 C6078 1.368 . S
C6075 C6056 1.429 . S
C6075 C6069 1.429 . S
C6075 C6076 1.523 . S
C6076 C6057 1.368 . S
C6076 C6070 1.368 . S
C6076 C6075 1.523 . S
C6077 C6061 1.429 . S
C6077 C6073 1.429 . S
C6077 C6078 1.523 . S
C6078 C6062 1.368 . S
C6078 C6074 1.368 . S
C6078 C6077 1.523 . S
H6079 C6054 0.950 . S
H6080 C6056 0.950 . S
H6081 C6057 0.949 . S
H6082 C6059 0.950 . S
H6083 C6061 0.950 . S
C6084 C6085 1.349 . S
C6084 C6086 1.327 . S
C6084 H6109 0.950 . S
C6085 C6084 1.349 . S
C6085 C6101 1.349 . S
C6086 C6084 1.327 . S
C6086 C6105 1.429 . S
C6086 H6110 0.950 . S
C6087 C6104 1.574 . S
C6087 C6106 1.368 . S
C6087 H6111 0.949 . S
H6088 C6092 0.949 . S
C6089 C6090 1.349 . S
C6089 C6091 1.327 . S
C6089 H6112 0.950 . S
C6090 C6089 1.349 . S
C6090 C6102 1.349 . S
C6091 C6089 1.327 . S
C6091 C6107 1.429 . S
C6091 H6113 0.950 . S
C6092 H6088 0.949 . S
C6092 C6100 1.574 . S
C6092 C6108 1.368 . S
H6093 C6101 0.950 . S
H6094 C6099 0.950 . S
H6095 C6100 0.949 . S
H6096 C6102 0.950 . S
H6097 C6103 0.950 . S
H6098 C6104 0.949 . S
C6099 H6094 0.950 . S
C6099 C6101 1.327 . S
C6099 C6105 1.429 . S
C6100 C6092 1.574 . S
C6100 H6095 0.949 . S
C6100 C6106 1.368 . S
C6101 C6085 1.349 . S
C6101 H6093 0.950 . S
C6101 C6099 1.327 . S
C6102 C6090 1.349 . S
C6102 H6096 0.950 . S
C6102 C6103 1.327 . S
C6103 H6097 0.950 . S
C6103 C6102 1.327 . S
C6103 C6107 1.429 . S
C6104 C6087 1.574 . S
C6104 H6098 0.949 . S
C6104 C6108 1.368 . S
C6105 C6086 1.429 . S
C6105 C6099 1.429 . S
C6105 C6106 1.523 . S
C6106 C6087 1.368 . S
C6106 C6100 1.368 . S
C6106 C6105 1.523 . S
C6107 C6091 1.429 . S
C6107 C6103 1.429 . S
C6107 C6108 1.523 . S
C6108 C6092 1.368 . S
C6108 C6104 1.368 . S
C6108 C6107 1.523 . S
H6109 C6084 0.950 . S
H6110 C6086 0.950 . S
H6111 C6087 0.949 . S
H6112 C6089 0.950 . S
H6113 C6091 0.950 . S
C6114 C6115 1.349 . S
C6114 C6116 1.327 . S
C6114 H6139 0.950 . S
C6115 C6114 1.349 . S
C6115 C6131 1.349 . S
C6116 C6114 1.327 . S
C6116 C6135 1.429 . S
C6116 H6140 0.950 . S
C6117 C6134 1.574 . S
C6117 C6136 1.368 . S
C6117 H6141 0.949 . S
H6118 C6122 0.949 . S
C6119 C6120 1.349 . S
C6119 C6121 1.327 . S
C6119 H6142 0.950 . S
C6120 C6119 1.349 . S
C6120 C6132 1.349 . S
C6121 C6119 1.327 . S
C6121 C6137 1.429 . S
C6121 H6143 0.950 . S
C6122 H6118 0.949 . S
C6122 C6130 1.574 . S
C6122 C6138 1.368 . S
H6123 C6131 0.950 . S
H6124 C6129 0.950 . S
H6125 C6130 0.949 . S
H6126 C6132 0.950 . S
H6127 C6133 0.950 . S
H6128 C6134 0.949 . S
C6129 H6124 0.950 . S
C6129 C6131 1.327 . S
C6129 C6135 1.429 . S
C6130 C6122 1.574 . S
C6130 H6125 0.949 . S
C6130 C6136 1.368 . S
C6131 C6115 1.349 . S
C6131 H6123 0.950 . S
C6131 C6129 1.327 . S
C6132 C6120 1.349 . S
C6132 H6126 0.950 . S
C6132 C6133 1.327 . S
C6133 H6127 0.950 . S
C6133 C6132 1.327 . S
C6133 C6137 1.429 . S
C6134 C6117 1.574 . S
C6134 H6128 0.949 . S
C6134 C6138 1.368 . S
C6135 C6116 1.429 . S
C6135 C6129 1.429 . S
C6135 C6136 1.523 . S
C6136 C6117 1.368 . S
C6136 C6130 1.368 . S
C6136 C6135 1.523 . S
C6137 C6121 1.429 . S
C6137 C6133 1.429 . S
C6137 C6138 1.523 . S
C6138 C6122 1.368 . S
C6138 C6134 1.368 . S
C6138 C6137 1.523 . S
H6139 C6114 0.950 . S
H6140 C6116 0.950 . S
H6141 C6117 0.949 . S
H6142 C6119 0.950 . S
H6143 C6121 0.950 . S
C6144 C6145 1.349 . S
C6144 C6146 1.327 . S
C6144 H6169 0.950 . S
C6145 C6144 1.349 . S
C6145 C6161 1.349 . S
C6146 C6144 1.327 . S
C6146 C6165 1.429 . S
C6146 H6170 0.950 . S
C6147 C6164 1.574 . S
C6147 C6166 1.368 . S
C6147 H6171 0.949 . S
H6148 C6152 0.949 . S
C6149 C6150 1.349 . S
C6149 C6151 1.327 . S
C6149 H6172 0.950 . S
C6150 C6149 1.349 . S
C6150 C6162 1.349 . S
C6151 C6149 1.327 . S
C6151 C6167 1.429 . S
C6151 H6173 0.950 . S
C6152 H6148 0.949 . S
C6152 C6160 1.574 . S
C6152 C6168 1.368 . S
H6153 C6161 0.950 . S
H6154 C6159 0.950 . S
H6155 C6160 0.949 . S
H6156 C6162 0.950 . S
H6157 C6163 0.950 . S
H6158 C6164 0.949 . S
C6159 H6154 0.950 . S
C6159 C6161 1.327 . S
C6159 C6165 1.429 . S
C6160 C6152 1.574 . S
C6160 H6155 0.949 . S
C6160 C6166 1.368 . S
C6161 C6145 1.349 . S
C6161 H6153 0.950 . S
C6161 C6159 1.327 . S
C6162 C6150 1.349 . S
C6162 H6156 0.950 . S
C6162 C6163 1.327 . S
C6163 H6157 0.950 . S
C6163 C6162 1.327 . S
C6163 C6167 1.429 . S
C6164 C6147 1.574 . S
C6164 H6158 0.949 . S
C6164 C6168 1.368 . S
C6165 C6146 1.429 . S
C6165 C6159 1.429 . S
C6165 C6166 1.523 . S
C6166 C6147 1.368 . S
C6166 C6160 1.368 . S
C6166 C6165 1.523 . S
C6167 C6151 1.429 . S
C6167 C6163 1.429 . S
C6167 C6168 1.523 . S
C6168 C6152 1.368 . S
C6168 C6164 1.368 . S
C6168 C6167 1.523 . S
H6169 C6144 0.950 . S
H6170 C6146 0.950 . S
H6171 C6147 0.949 . S
H6172 C6149 0.950 . S
H6173 C6151 0.950 . S
C6174 C6175 1.349 . S
C6174 C6176 1.327 . S
C6174 H6199 0.950 . S
C6175 C6174 1.349 . S
C6175 C6191 1.349 . S
C6176 C6174 1.327 . S
C6176 C6195 1.429 . S
C6176 H6200 0.950 . S
C6177 C6194 1.574 . S
C6177 C6196 1.368 . S
C6177 H6201 0.949 . S
H6178 C6182 0.949 . S
C6179 C6180 1.349 . S
C6179 C6181 1.327 . S
C6179 H6202 0.950 . S
C6180 C6179 1.349 . S
C6180 C6192 1.349 . S
C6181 C6179 1.327 . S
C6181 C6197 1.429 . S
C6181 H6203 0.950 . S
C6182 H6178 0.949 . S
C6182 C6190 1.574 . S
C6182 C6198 1.368 . S
H6183 C6191 0.950 . S
H6184 C6189 0.950 . S
H6185 C6190 0.949 . S
H6186 C6192 0.950 . S
H6187 C6193 0.950 . S
H6188 C6194 0.949 . S
C6189 H6184 0.950 . S
C6189 C6191 1.327 . S
C6189 C6195 1.429 . S
C6190 C6182 1.574 . S
C6190 H6185 0.949 . S
C6190 C6196 1.368 . S
C6191 C6175 1.349 . S
C6191 H6183 0.950 . S
C6191 C6189 1.327 . S
C6192 C6180 1.349 . S
C6192 H6186 0.950 . S
C6192 C6193 1.327 . S
C6193 H6187 0.950 . S
C6193 C6192 1.327 . S
C6193 C6197 1.429 . S
C6194 C6177 1.574 . S
C6194 H6188 0.949 . S
C6194 C6198 1.368 . S
C6195 C6176 1.429 . S
C6195 C6189 1.429 . S
C6195 C6196 1.523 . S
C6196 C6177 1.368 . S
C6196 C6190 1.368 . S
C6196 C6195 1.523 . S
C6197 C6181 1.429 . S
C6197 C6193 1.429 . S
C6197 C6198 1.523 . S
C6198 C6182 1.368 . S
C6198 C6194 1.368 . S
C6198 C6197 1.523 . S
H6199 C6174 0.950 . S
H6200 C6176 0.950 . S
H6201 C6177 0.949 . S
H6202 C6179 0.950 . S
H6203 C6181 0.950 . S
C6204 C6205 1.349 . S
C6204 C6206 1.327 . S
C6204 H6229 0.950 . S
C6205 C6204 1.349 . S
C6205 C6221 1.349 . S
C6206 C6204 1.327 . S
C6206 C6225 1.429 . S
C6206 H6230 0.950 . S
C6207 C6224 1.574 . S
C6207 C6226 1.368 . S
C6207 H6231 0.949 . S
H6208 C6212 0.949 . S
C6209 C6210 1.349 . S
C6209 C6211 1.327 . S
C6209 H6232 0.950 . S
C6210 C6209 1.349 . S
C6210 C6222 1.349 . S
C6211 C6209 1.327 . S
C6211 C6227 1.429 . S
C6211 H6233 0.950 . S
C6212 H6208 0.949 . S
C6212 C6220 1.574 . S
C6212 C6228 1.368 . S
H6213 C6221 0.950 . S
H6214 C6219 0.950 . S
H6215 C6220 0.949 . S
H6216 C6222 0.950 . S
H6217 C6223 0.950 . S
H6218 C6224 0.949 . S
C6219 H6214 0.950 . S
C6219 C6221 1.327 . S
C6219 C6225 1.429 . S
C6220 C6212 1.574 . S
C6220 H6215 0.949 . S
C6220 C6226 1.368 . S
C6221 C6205 1.349 . S
C6221 H6213 0.950 . S
C6221 C6219 1.327 . S
C6222 C6210 1.349 . S
C6222 H6216 0.950 . S
C6222 C6223 1.327 . S
C6223 H6217 0.950 . S
C6223 C6222 1.327 . S
C6223 C6227 1.429 . S
C6224 C6207 1.574 . S
C6224 H6218 0.949 . S
C6224 C6228 1.368 . S
C6225 C6206 1.429 . S
C6225 C6219 1.429 . S
C6225 C6226 1.523 . S
C6226 C6207 1.368 . S
C6226 C6220 1.368 . S
C6226 C6225 1.523 . S
C6227 C6211 1.429 . S
C6227 C6223 1.429 . S
C6227 C6228 1.523 . S
C6228 C6212 1.368 . S
C6228 C6224 1.368 . S
C6228 C6227 1.523 . S
H6229 C6204 0.950 . S
H6230 C6206 0.950 . S
H6231 C6207 0.949 . S
H6232 C6209 0.950 . S
H6233 C6211 0.950 . S
C6234 C6235 1.349 . S
C6234 C6236 1.327 . S
C6234 H6259 0.950 . S
C6235 C6234 1.349 . S
C6235 C6251 1.349 . S
C6236 C6234 1.327 . S
C6236 C6255 1.429 . S
C6236 H6260 0.950 . S
C6237 C6254 1.574 . S
C6237 C6256 1.368 . S
C6237 H6261 0.949 . S
H6238 C6242 0.949 . S
C6239 C6240 1.349 . S
C6239 C6241 1.327 . S
C6239 H6262 0.950 . S
C6240 C6239 1.349 . S
C6240 C6252 1.349 . S
C6241 C6239 1.327 . S
C6241 C6257 1.429 . S
C6241 H6263 0.950 . S
C6242 H6238 0.949 . S
C6242 C6250 1.574 . S
C6242 C6258 1.368 . S
H6243 C6251 0.950 . S
H6244 C6249 0.950 . S
H6245 C6250 0.949 . S
H6246 C6252 0.950 . S
H6247 C6253 0.950 . S
H6248 C6254 0.949 . S
C6249 H6244 0.950 . S
C6249 C6251 1.327 . S
C6249 C6255 1.429 . S
C6250 C6242 1.574 . S
C6250 H6245 0.949 . S
C6250 C6256 1.368 . S
C6251 C6235 1.349 . S
C6251 H6243 0.950 . S
C6251 C6249 1.327 . S
C6252 C6240 1.349 . S
C6252 H6246 0.950 . S
C6252 C6253 1.327 . S
C6253 H6247 0.950 . S
C6253 C6252 1.327 . S
C6253 C6257 1.429 . S
C6254 C6237 1.574 . S
C6254 H6248 0.949 . S
C6254 C6258 1.368 . S
C6255 C6236 1.429 . S
C6255 C6249 1.429 . S
C6255 C6256 1.523 . S
C6256 C6237 1.368 . S
C6256 C6250 1.368 . S
C6256 C6255 1.523 . S
C6257 C6241 1.429 . S
C6257 C6253 1.429 . S
C6257 C6258 1.523 . S
C6258 C6242 1.368 . S
C6258 C6254 1.368 . S
C6258 C6257 1.523 . S
H6259 C6234 0.950 . S
H6260 C6236 0.950 . S
H6261 C6237 0.949 . S
H6262 C6239 0.950 . S
H6263 C6241 0.950 . S
C6264 C6265 1.349 . S
C6264 C6266 1.327 . S
C6264 H6289 0.950 . S
C6265 C6264 1.349 . S
C6265 C6281 1.349 . S
C6266 C6264 1.327 . S
C6266 C6285 1.429 . S
C6266 H6290 0.950 . S
C6267 C6284 1.574 . S
C6267 C6286 1.368 . S
C6267 H6291 0.949 . S
H6268 C6272 0.949 . S
C6269 C6270 1.349 . S
C6269 C6271 1.327 . S
C6269 H6292 0.950 . S
C6270 C6269 1.349 . S
C6270 C6282 1.349 . S
C6271 C6269 1.327 . S
C6271 C6287 1.429 . S
C6271 H6293 0.950 . S
C6272 H6268 0.949 . S
C6272 C6280 1.574 . S
C6272 C6288 1.368 . S
H6273 C6281 0.950 . S
H6274 C6279 0.950 . S
H6275 C6280 0.949 . S
H6276 C6282 0.950 . S
H6277 C6283 0.950 . S
H6278 C6284 0.949 . S
C6279 H6274 0.950 . S
C6279 C6281 1.327 . S
C6279 C6285 1.429 . S
C6280 C6272 1.574 . S
C6280 H6275 0.949 . S
C6280 C6286 1.368 . S
C6281 C6265 1.349 . S
C6281 H6273 0.950 . S
C6281 C6279 1.327 . S
C6282 C6270 1.349 . S
C6282 H6276 0.950 . S
C6282 C6283 1.327 . S
C6283 H6277 0.950 . S
C6283 C6282 1.327 . S
C6283 C6287 1.429 . S
C6284 C6267 1.574 . S
C6284 H6278 0.949 . S
C6284 C6288 1.368 . S
C6285 C6266 1.429 . S
C6285 C6279 1.429 . S
C6285 C6286 1.523 . S
C6286 C6267 1.368 . S
C6286 C6280 1.368 . S
C6286 C6285 1.523 . S
C6287 C6271 1.429 . S
C6287 C6283 1.429 . S
C6287 C6288 1.523 . S
C6288 C6272 1.368 . S
C6288 C6284 1.368 . S
C6288 C6287 1.523 . S
H6289 C6264 0.950 . S
H6290 C6266 0.950 . S
H6291 C6267 0.949 . S
H6292 C6269 0.950 . S
H6293 C6271 0.950 . S
C6294 C6295 1.349 . S
C6294 C6296 1.327 . S
C6294 H6319 0.950 . S
C6295 C6294 1.349 . S
C6295 C6311 1.349 . S
C6296 C6294 1.327 . S
C6296 C6315 1.429 . S
C6296 H6320 0.950 . S
C6297 C6314 1.574 . S
C6297 C6316 1.368 . S
C6297 H6321 0.949 . S
H6298 C6302 0.949 . S
C6299 C6300 1.349 . S
C6299 C6301 1.327 . S
C6299 H6322 0.950 . S
C6300 C6299 1.349 . S
C6300 C6312 1.349 . S
C6301 C6299 1.327 . S
C6301 C6317 1.429 . S
C6301 H6323 0.950 . S
C6302 H6298 0.949 . S
C6302 C6310 1.574 . S
C6302 C6318 1.368 . S
H6303 C6311 0.950 . S
H6304 C6309 0.950 . S
H6305 C6310 0.949 . S
H6306 C6312 0.950 . S
H6307 C6313 0.950 . S
H6308 C6314 0.949 . S
C6309 H6304 0.950 . S
C6309 C6311 1.327 . S
C6309 C6315 1.429 . S
C6310 C6302 1.574 . S
C6310 H6305 0.949 . S
C6310 C6316 1.368 . S
C6311 C6295 1.349 . S
C6311 H6303 0.950 . S
C6311 C6309 1.327 . S
C6312 C6300 1.349 . S
C6312 H6306 0.950 . S
C6312 C6313 1.327 . S
C6313 H6307 0.950 . S
C6313 C6312 1.327 . S
C6313 C6317 1.429 . S
C6314 C6297 1.574 . S
C6314 H6308 0.949 . S
C6314 C6318 1.368 . S
C6315 C6296 1.429 . S
C6315 C6309 1.429 . S
C6315 C6316 1.523 . S
C6316 C6297 1.368 . S
C6316 C6310 1.368 . S
C6316 C6315 1.523 . S
C6317 C6301 1.429 . S
C6317 C6313 1.429 . S
C6317 C6318 1.523 . S
C6318 C6302 1.368 . S
C6318 C6314 1.368 . S
C6318 C6317 1.523 . S
H6319 C6294 0.950 . S
H6320 C6296 0.950 . S
H6321 C6297 0.949 . S
H6322 C6299 0.950 . S
H6323 C6301 0.950 . S
C6324 C6325 1.349 . S
C6324 C6326 1.327 . S
C6324 H6349 0.950 . S
C6325 C6324 1.349 . S
C6325 C6341 1.349 . S
C6326 C6324 1.327 . S
C6326 C6345 1.429 . S
C6326 H6350 0.950 . S
C6327 C6344 1.574 . S
C6327 C6346 1.368 . S
C6327 H6351 0.949 . S
H6328 C6332 0.949 . S
C6329 C6330 1.349 . S
C6329 C6331 1.327 . S
C6329 H6352 0.950 . S
C6330 C6329 1.349 . S
C6330 C6342 1.349 . S
C6331 C6329 1.327 . S
C6331 C6347 1.429 . S
C6331 H6353 0.950 . S
C6332 H6328 0.949 . S
C6332 C6340 1.574 . S
C6332 C6348 1.368 . S
H6333 C6341 0.950 . S
H6334 C6339 0.950 . S
H6335 C6340 0.949 . S
H6336 C6342 0.950 . S
H6337 C6343 0.950 . S
H6338 C6344 0.949 . S
C6339 H6334 0.950 . S
C6339 C6341 1.327 . S
C6339 C6345 1.429 . S
C6340 C6332 1.574 . S
C6340 H6335 0.949 . S
C6340 C6346 1.368 . S
C6341 C6325 1.349 . S
C6341 H6333 0.950 . S
C6341 C6339 1.327 . S
C6342 C6330 1.349 . S
C6342 H6336 0.950 . S
C6342 C6343 1.327 . S
C6343 H6337 0.950 . S
C6343 C6342 1.327 . S
C6343 C6347 1.429 . S
C6344 C6327 1.574 . S
C6344 H6338 0.949 . S
C6344 C6348 1.368 . S
C6345 C6326 1.429 . S
C6345 C6339 1.429 . S
C6345 C6346 1.523 . S
C6346 C6327 1.368 . S
C6346 C6340 1.368 . S
C6346 C6345 1.523 . S
C6347 C6331 1.429 . S
C6347 C6343 1.429 . S
C6347 C6348 1.523 . S
C6348 C6332 1.368 . S
C6348 C6344 1.368 . S
C6348 C6347 1.523 . S
H6349 C6324 0.950 . S
H6350 C6326 0.950 . S
H6351 C6327 0.949 . S
H6352 C6329 0.950 . S
H6353 C6331 0.950 . S
C6354 C6355 1.349 . S
C6354 C6356 1.327 . S
C6354 H6379 0.950 . S
C6355 C6354 1.349 . S
C6355 C6371 1.349 . S
C6356 C6354 1.327 . S
C6356 C6375 1.429 . S
C6356 H6380 0.950 . S
C6357 C6374 1.574 1_556 S
C6357 C6376 1.368 . S
C6357 H6381 0.949 . S
H6358 C6362 0.949 . S
C6359 C6360 1.349 . S
C6359 C6361 1.327 . S
C6359 H6382 0.950 . S
C6360 C6359 1.349 . S
C6360 C6372 1.349 . S
C6361 C6359 1.327 . S
C6361 C6377 1.429 . S
C6361 H6383 0.950 . S
C6362 H6358 0.949 . S
C6362 C6370 1.574 1_554 S
C6362 C6378 1.368 . S
H6363 C6371 0.950 . S
H6364 C6369 0.950 . S
H6365 C6370 0.949 . S
H6366 C6372 0.950 . S
H6367 C6373 0.950 . S
H6368 C6374 0.949 . S
C6369 H6364 0.950 . S
C6369 C6371 1.327 . S
C6369 C6375 1.429 . S
C6370 C6362 1.574 1_556 S
C6370 H6365 0.949 . S
C6370 C6376 1.368 . S
C6371 C6355 1.349 . S
C6371 H6363 0.950 . S
C6371 C6369 1.327 . S
C6372 C6360 1.349 . S
C6372 H6366 0.950 . S
C6372 C6373 1.327 . S
C6373 H6367 0.950 . S
C6373 C6372 1.327 . S
C6373 C6377 1.429 . S
C6374 C6357 1.574 1_554 S
C6374 H6368 0.949 . S
C6374 C6378 1.368 . S
C6375 C6356 1.429 . S
C6375 C6369 1.429 . S
C6375 C6376 1.523 . S
C6376 C6357 1.368 . S
C6376 C6370 1.368 . S
C6376 C6375 1.523 . S
C6377 C6361 1.429 . S
C6377 C6373 1.429 . S
C6377 C6378 1.523 . S
C6378 C6362 1.368 . S
C6378 C6374 1.368 . S
C6378 C6377 1.523 . S
H6379 C6354 0.950 . S
H6380 C6356 0.950 . S
H6381 C6357 0.949 . S
H6382 C6359 0.950 . S
H6383 C6361 0.950 . S
C6384 C6385 1.349 . S
C6384 C6386 1.327 . S
C6384 H6409 0.950 . S
C6385 C6384 1.349 . S
C6385 C6401 1.349 . S
C6386 C6384 1.327 . S
C6386 C6405 1.429 . S
C6386 H6410 0.950 . S
C6387 C6404 1.574 1_554 S
C6387 C6406 1.368 . S
C6387 H6411 0.949 . S
H6388 C6392 0.949 . S
C6389 C6390 1.349 . S
C6389 C6391 1.327 . S
C6389 H6412 0.950 . S
C6390 C6389 1.349 . S
C6390 C6402 1.349 . S
C6391 C6389 1.327 . S
C6391 C6407 1.429 . S
C6391 H6413 0.950 . S
C6392 H6388 0.949 . S
C6392 C6400 1.574 1_556 S
C6392 C6408 1.368 . S
H6393 C6401 0.950 . S
H6394 C6399 0.950 . S
H6395 C6400 0.949 . S
H6396 C6402 0.950 . S
H6397 C6403 0.950 . S
H6398 C6404 0.949 . S
C6399 H6394 0.950 . S
C6399 C6401 1.327 . S
C6399 C6405 1.429 . S
C6400 C6392 1.574 1_554 S
C6400 H6395 0.949 . S
C6400 C6406 1.368 . S
C6401 C6385 1.349 . S
C6401 H6393 0.950 . S
C6401 C6399 1.327 . S
C6402 C6390 1.349 . S
C6402 H6396 0.950 . S
C6402 C6403 1.327 . S
C6403 H6397 0.950 . S
C6403 C6402 1.327 . S
C6403 C6407 1.429 . S
C6404 C6387 1.574 1_556 S
C6404 H6398 0.949 . S
C6404 C6408 1.368 . S
C6405 C6386 1.429 . S
C6405 C6399 1.429 . S
C6405 C6406 1.523 . S
C6406 C6387 1.368 . S
C6406 C6400 1.368 . S
C6406 C6405 1.523 . S
C6407 C6391 1.429 . S
C6407 C6403 1.429 . S
C6407 C6408 1.523 . S
C6408 C6392 1.368 . S
C6408 C6404 1.368 . S
C6408 C6407 1.523 . S
H6409 C6384 0.950 . S
H6410 C6386 0.950 . S
H6411 C6387 0.949 . S
H6412 C6389 0.950 . S
H6413 C6391 0.950 . S
C6414 C6415 1.349 . S
C6414 C6416 1.327 . S
C6414 H6439 0.950 . S
C6415 C6414 1.349 . S
C6415 C6431 1.349 . S
C6416 C6414 1.327 . S
C6416 C6435 1.429 . S
C6416 H6440 0.950 . S
C6417 C6434 1.574 1_554 S
C6417 C6436 1.368 . S
C6417 H6441 0.949 . S
H6418 C6422 0.949 . S
C6419 C6420 1.349 . S
C6419 C6421 1.327 . S
C6419 H6442 0.950 . S
C6420 C6419 1.349 . S
C6420 C6432 1.349 . S
C6421 C6419 1.327 . S
C6421 C6437 1.429 . S
C6421 H6443 0.950 . S
C6422 H6418 0.949 . S
C6422 C6430 1.574 1_556 S
C6422 C6438 1.368 . S
H6423 C6431 0.950 . S
H6424 C6429 0.950 . S
H6425 C6430 0.949 . S
H6426 C6432 0.950 . S
H6427 C6433 0.950 . S
H6428 C6434 0.949 . S
C6429 H6424 0.950 . S
C6429 C6431 1.327 . S
C6429 C6435 1.429 . S
C6430 C6422 1.574 1_554 S
C6430 H6425 0.949 . S
C6430 C6436 1.368 . S
C6431 C6415 1.349 . S
C6431 H6423 0.950 . S
C6431 C6429 1.327 . S
C6432 C6420 1.349 . S
C6432 H6426 0.950 . S
C6432 C6433 1.327 . S
C6433 H6427 0.950 . S
C6433 C6432 1.327 . S
C6433 C6437 1.429 . S
C6434 C6417 1.574 1_556 S
C6434 H6428 0.949 . S
C6434 C6438 1.368 . S
C6435 C6416 1.429 . S
C6435 C6429 1.429 . S
C6435 C6436 1.523 . S
C6436 C6417 1.368 . S
C6436 C6430 1.368 . S
C6436 C6435 1.523 . S
C6437 C6421 1.429 . S
C6437 C6433 1.429 . S
C6437 C6438 1.523 . S
C6438 C6422 1.368 . S
C6438 C6434 1.368 . S
C6438 C6437 1.523 . S
H6439 C6414 0.950 . S
H6440 C6416 0.950 . S
H6441 C6417 0.949 . S
H6442 C6419 0.950 . S
H6443 C6421 0.950 . S
C6444 C6445 1.349 . S
C6444 C6446 1.327 . S
C6444 H6469 0.950 . S
C6445 C6444 1.349 . S
C6445 C6461 1.349 . S
C6446 C6444 1.327 . S
C6446 C6465 1.429 . S
C6446 H6470 0.950 . S
C6447 C6464 1.574 . S
C6447 C6466 1.368 . S
C6447 H6471 0.949 . S
H6448 C6452 0.949 . S
C6449 C6450 1.349 . S
C6449 C6451 1.327 . S
C6449 H6472 0.950 . S
C6450 C6449 1.349 . S
C6450 C6462 1.349 . S
C6451 C6449 1.327 . S
C6451 C6467 1.429 . S
C6451 H6473 0.950 . S
C6452 H6448 0.949 . S
C6452 C6460 1.574 . S
C6452 C6468 1.368 . S
H6453 C6461 0.950 . S
H6454 C6459 0.950 . S
H6455 C6460 0.949 . S
H6456 C6462 0.950 . S
H6457 C6463 0.950 . S
H6458 C6464 0.949 . S
C6459 H6454 0.950 . S
C6459 C6461 1.327 . S
C6459 C6465 1.429 . S
C6460 C6452 1.574 . S
C6460 H6455 0.949 . S
C6460 C6466 1.368 . S
C6461 C6445 1.349 . S
C6461 H6453 0.950 . S
C6461 C6459 1.327 . S
C6462 C6450 1.349 . S
C6462 H6456 0.950 . S
C6462 C6463 1.327 . S
C6463 H6457 0.950 . S
C6463 C6462 1.327 . S
C6463 C6467 1.429 . S
C6464 C6447 1.574 . S
C6464 H6458 0.949 . S
C6464 C6468 1.368 . S
C6465 C6446 1.429 . S
C6465 C6459 1.429 . S
C6465 C6466 1.523 . S
C6466 C6447 1.368 . S
C6466 C6460 1.368 . S
C6466 C6465 1.523 . S
C6467 C6451 1.429 . S
C6467 C6463 1.429 . S
C6467 C6468 1.523 . S
C6468 C6452 1.368 . S
C6468 C6464 1.368 . S
C6468 C6467 1.523 . S
H6469 C6444 0.950 . S
H6470 C6446 0.950 . S
H6471 C6447 0.949 . S
H6472 C6449 0.950 . S
H6473 C6451 0.950 . S
C6474 C6475 1.349 . S
C6474 C6476 1.327 . S
C6474 H6499 0.950 . S
C6475 C6474 1.349 . S
C6475 C6491 1.349 . S
C6476 C6474 1.327 . S
C6476 C6495 1.429 . S
C6476 H6500 0.950 . S
C6477 C6494 1.574 . S
C6477 C6496 1.368 . S
C6477 H6501 0.949 . S
H6478 C6482 0.949 . S
C6479 C6480 1.349 . S
C6479 C6481 1.327 . S
C6479 H6502 0.950 . S
C6480 C6479 1.349 . S
C6480 C6492 1.349 . S
C6481 C6479 1.327 . S
C6481 C6497 1.429 . S
C6481 H6503 0.950 . S
C6482 H6478 0.949 . S
C6482 C6490 1.574 . S
C6482 C6498 1.368 . S
H6483 C6491 0.950 . S
H6484 C6489 0.950 . S
H6485 C6490 0.949 . S
H6486 C6492 0.950 . S
H6487 C6493 0.950 . S
H6488 C6494 0.949 . S
C6489 H6484 0.950 . S
C6489 C6491 1.327 . S
C6489 C6495 1.429 . S
C6490 C6482 1.574 . S
C6490 H6485 0.949 . S
C6490 C6496 1.368 . S
C6491 C6475 1.349 . S
C6491 H6483 0.950 . S
C6491 C6489 1.327 . S
C6492 C6480 1.349 . S
C6492 H6486 0.950 . S
C6492 C6493 1.327 . S
C6493 H6487 0.950 . S
C6493 C6492 1.327 . S
C6493 C6497 1.429 . S
C6494 C6477 1.574 . S
C6494 H6488 0.949 . S
C6494 C6498 1.368 . S
C6495 C6476 1.429 . S
C6495 C6489 1.429 . S
C6495 C6496 1.523 . S
C6496 C6477 1.368 . S
C6496 C6490 1.368 . S
C6496 C6495 1.523 . S
C6497 C6481 1.429 . S
C6497 C6493 1.429 . S
C6497 C6498 1.523 . S
C6498 C6482 1.368 . S
C6498 C6494 1.368 . S
C6498 C6497 1.523 . S
H6499 C6474 0.950 . S
H6500 C6476 0.950 . S
H6501 C6477 0.949 . S
H6502 C6479 0.950 . S
H6503 C6481 0.950 . S
C6504 C6505 1.349 . S
C6504 C6506 1.327 . S
C6504 H6529 0.950 . S
C6505 C6504 1.349 . S
C6505 C6521 1.349 . S
C6506 C6504 1.327 . S
C6506 C6525 1.429 . S
C6506 H6530 0.950 . S
C6507 C6524 1.574 . S
C6507 C6526 1.368 . S
C6507 H6531 0.949 . S
H6508 C6512 0.949 . S
C6509 C6510 1.349 . S
C6509 C6511 1.327 . S
C6509 H6532 0.950 . S
C6510 C6509 1.349 . S
C6510 C6522 1.349 . S
C6511 C6509 1.327 . S
C6511 C6527 1.429 . S
C6511 H6533 0.950 . S
C6512 H6508 0.949 . S
C6512 C6520 1.574 . S
C6512 C6528 1.368 . S
H6513 C6521 0.950 . S
H6514 C6519 0.950 . S
H6515 C6520 0.949 . S
H6516 C6522 0.950 . S
H6517 C6523 0.950 . S
H6518 C6524 0.949 . S
C6519 H6514 0.950 . S
C6519 C6521 1.327 . S
C6519 C6525 1.429 . S
C6520 C6512 1.574 . S
C6520 H6515 0.949 . S
C6520 C6526 1.368 . S
C6521 C6505 1.349 . S
C6521 H6513 0.950 . S
C6521 C6519 1.327 . S
C6522 C6510 1.349 . S
C6522 H6516 0.950 . S
C6522 C6523 1.327 . S
C6523 H6517 0.950 . S
C6523 C6522 1.327 . S
C6523 C6527 1.429 . S
C6524 C6507 1.574 . S
C6524 H6518 0.949 . S
C6524 C6528 1.368 . S
C6525 C6506 1.429 . S
C6525 C6519 1.429 . S
C6525 C6526 1.523 . S
C6526 C6507 1.368 . S
C6526 C6520 1.368 . S
C6526 C6525 1.523 . S
C6527 C6511 1.429 . S
C6527 C6523 1.429 . S
C6527 C6528 1.523 . S
C6528 C6512 1.368 . S
C6528 C6524 1.368 . S
C6528 C6527 1.523 . S
H6529 C6504 0.950 . S
H6530 C6506 0.950 . S
H6531 C6507 0.949 . S
H6532 C6509 0.950 . S
H6533 C6511 0.950 . S
C6534 C6535 1.349 . S
C6534 C6536 1.327 . S
C6534 H6559 0.950 . S
C6535 C6534 1.349 . S
C6535 C6551 1.349 . S
C6536 C6534 1.327 . S
C6536 C6555 1.429 . S
C6536 H6560 0.950 . S
C6537 C6554 1.574 . S
C6537 C6556 1.368 . S
C6537 H6561 0.949 . S
H6538 C6542 0.949 . S
C6539 C6540 1.349 . S
C6539 C6541 1.327 . S
C6539 H6562 0.950 . S
C6540 C6539 1.349 . S
C6540 C6552 1.349 . S
C6541 C6539 1.327 . S
C6541 C6557 1.429 . S
C6541 H6563 0.950 . S
C6542 H6538 0.949 . S
C6542 C6550 1.574 . S
C6542 C6558 1.368 . S
H6543 C6551 0.950 . S
H6544 C6549 0.950 . S
H6545 C6550 0.949 . S
H6546 C6552 0.950 . S
H6547 C6553 0.950 . S
H6548 C6554 0.949 . S
C6549 H6544 0.950 . S
C6549 C6551 1.327 . S
C6549 C6555 1.429 . S
C6550 C6542 1.574 . S
C6550 H6545 0.949 . S
C6550 C6556 1.368 . S
C6551 C6535 1.349 . S
C6551 H6543 0.950 . S
C6551 C6549 1.327 . S
C6552 C6540 1.349 . S
C6552 H6546 0.950 . S
C6552 C6553 1.327 . S
C6553 H6547 0.950 . S
C6553 C6552 1.327 . S
C6553 C6557 1.429 . S
C6554 C6537 1.574 . S
C6554 H6548 0.949 . S
C6554 C6558 1.368 . S
C6555 C6536 1.429 . S
C6555 C6549 1.429 . S
C6555 C6556 1.523 . S
C6556 C6537 1.368 . S
C6556 C6550 1.368 . S
C6556 C6555 1.523 . S
C6557 C6541 1.429 . S
C6557 C6553 1.429 . S
C6557 C6558 1.523 . S
C6558 C6542 1.368 . S
C6558 C6554 1.368 . S
C6558 C6557 1.523 . S
H6559 C6534 0.950 . S
H6560 C6536 0.950 . S
H6561 C6537 0.949 . S
H6562 C6539 0.950 . S
H6563 C6541 0.950 . S
C6564 C6565 1.349 . S
C6564 C6566 1.327 . S
C6564 H6589 0.950 . S
C6565 C6564 1.349 . S
C6565 C6581 1.349 . S
C6566 C6564 1.327 . S
C6566 C6585 1.429 . S
C6566 H6590 0.950 . S
C6567 C6584 1.574 . S
C6567 C6586 1.368 . S
C6567 H6591 0.949 . S
H6568 C6572 0.949 . S
C6569 C6570 1.349 . S
C6569 C6571 1.327 . S
C6569 H6592 0.950 . S
C6570 C6569 1.349 . S
C6570 C6582 1.349 . S
C6571 C6569 1.327 . S
C6571 C6587 1.429 . S
C6571 H6593 0.950 . S
C6572 H6568 0.949 . S
C6572 C6580 1.574 . S
C6572 C6588 1.368 . S
H6573 C6581 0.950 . S
H6574 C6579 0.950 . S
H6575 C6580 0.949 . S
H6576 C6582 0.950 . S
H6577 C6583 0.950 . S
H6578 C6584 0.949 . S
C6579 H6574 0.950 . S
C6579 C6581 1.327 . S
C6579 C6585 1.429 . S
C6580 C6572 1.574 . S
C6580 H6575 0.949 . S
C6580 C6586 1.368 . S
C6581 C6565 1.349 . S
C6581 H6573 0.950 . S
C6581 C6579 1.327 . S
C6582 C6570 1.349 . S
C6582 H6576 0.950 . S
C6582 C6583 1.327 . S
C6583 H6577 0.950 . S
C6583 C6582 1.327 . S
C6583 C6587 1.429 . S
C6584 C6567 1.574 . S
C6584 H6578 0.949 . S
C6584 C6588 1.368 . S
C6585 C6566 1.429 . S
C6585 C6579 1.429 . S
C6585 C6586 1.523 . S
C6586 C6567 1.368 . S
C6586 C6580 1.368 . S
C6586 C6585 1.523 . S
C6587 C6571 1.429 . S
C6587 C6583 1.429 . S
C6587 C6588 1.523 . S
C6588 C6572 1.368 . S
C6588 C6584 1.368 . S
C6588 C6587 1.523 . S
H6589 C6564 0.950 . S
H6590 C6566 0.950 . S
H6591 C6567 0.949 . S
H6592 C6569 0.950 . S
H6593 C6571 0.950 . S
C6594 C6595 1.349 . S
C6594 C6596 1.327 . S
C6594 H6619 0.950 . S
C6595 C6594 1.349 . S
C6595 C6611 1.349 . S
C6596 C6594 1.327 . S
C6596 C6615 1.429 . S
C6596 H6620 0.950 . S
C6597 C6614 1.574 . S
C6597 C6616 1.368 . S
C6597 H6621 0.949 . S
H6598 C6602 0.949 . S
C6599 C6600 1.349 . S
C6599 C6601 1.327 . S
C6599 H6622 0.950 . S
C6600 C6599 1.349 . S
C6600 C6612 1.349 . S
C6601 C6599 1.327 . S
C6601 C6617 1.429 . S
C6601 H6623 0.950 . S
C6602 H6598 0.949 . S
C6602 C6610 1.574 . S
C6602 C6618 1.368 . S
H6603 C6611 0.950 . S
H6604 C6609 0.950 . S
H6605 C6610 0.949 . S
H6606 C6612 0.950 . S
H6607 C6613 0.950 . S
H6608 C6614 0.949 . S
C6609 H6604 0.950 . S
C6609 C6611 1.327 . S
C6609 C6615 1.429 . S
C6610 C6602 1.574 . S
C6610 H6605 0.949 . S
C6610 C6616 1.368 . S
C6611 C6595 1.349 . S
C6611 H6603 0.950 . S
C6611 C6609 1.327 . S
C6612 C6600 1.349 . S
C6612 H6606 0.950 . S
C6612 C6613 1.327 . S
C6613 H6607 0.950 . S
C6613 C6612 1.327 . S
C6613 C6617 1.429 . S
C6614 C6597 1.574 . S
C6614 H6608 0.949 . S
C6614 C6618 1.368 . S
C6615 C6596 1.429 . S
C6615 C6609 1.429 . S
C6615 C6616 1.523 . S
C6616 C6597 1.368 . S
C6616 C6610 1.368 . S
C6616 C6615 1.523 . S
C6617 C6601 1.429 . S
C6617 C6613 1.429 . S
C6617 C6618 1.523 . S
C6618 C6602 1.368 . S
C6618 C6614 1.368 . S
C6618 C6617 1.523 . S
H6619 C6594 0.950 . S
H6620 C6596 0.950 . S
H6621 C6597 0.949 . S
H6622 C6599 0.950 . S
H6623 C6601 0.950 . S
C6624 C6625 1.349 . S
C6624 C6626 1.327 . S
C6624 H6649 0.950 . S
C6625 C6624 1.349 . S
C6625 C6641 1.349 . S
C6626 C6624 1.327 . S
C6626 C6645 1.429 . S
C6626 H6650 0.950 . S
C6627 C6644 1.574 . S
C6627 C6646 1.368 . S
C6627 H6651 0.949 . S
H6628 C6632 0.949 . S
C6629 C6630 1.349 . S
C6629 C6631 1.327 . S
C6629 H6652 0.950 . S
C6630 C6629 1.349 . S
C6630 C6642 1.349 . S
C6631 C6629 1.327 . S
C6631 C6647 1.429 . S
C6631 H6653 0.950 . S
C6632 H6628 0.949 . S
C6632 C6640 1.574 . S
C6632 C6648 1.368 . S
H6633 C6641 0.950 . S
H6634 C6639 0.950 . S
H6635 C6640 0.949 . S
H6636 C6642 0.950 . S
H6637 C6643 0.950 . S
H6638 C6644 0.949 . S
C6639 H6634 0.950 . S
C6639 C6641 1.327 . S
C6639 C6645 1.429 . S
C6640 C6632 1.574 . S
C6640 H6635 0.949 . S
C6640 C6646 1.368 . S
C6641 C6625 1.349 . S
C6641 H6633 0.950 . S
C6641 C6639 1.327 . S
C6642 C6630 1.349 . S
C6642 H6636 0.950 . S
C6642 C6643 1.327 . S
C6643 H6637 0.950 . S
C6643 C6642 1.327 . S
C6643 C6647 1.429 . S
C6644 C6627 1.574 . S
C6644 H6638 0.949 . S
C6644 C6648 1.368 . S
C6645 C6626 1.429 . S
C6645 C6639 1.429 . S
C6645 C6646 1.523 . S
C6646 C6627 1.368 . S
C6646 C6640 1.368 . S
C6646 C6645 1.523 . S
C6647 C6631 1.429 . S
C6647 C6643 1.429 . S
C6647 C6648 1.523 . S
C6648 C6632 1.368 . S
C6648 C6644 1.368 . S
C6648 C6647 1.523 . S
H6649 C6624 0.950 . S
H6650 C6626 0.950 . S
H6651 C6627 0.949 . S
H6652 C6629 0.950 . S
H6653 C6631 0.950 . S
C6654 C6655 1.349 . S
C6654 C6656 1.327 . S
C6654 H6679 0.950 . S
C6655 C6654 1.349 . S
C6655 C6671 1.349 . S
C6656 C6654 1.327 . S
C6656 C6675 1.429 . S
C6656 H6680 0.950 . S
C6657 C6674 1.574 . S
C6657 C6676 1.368 . S
C6657 H6681 0.949 . S
H6658 C6662 0.949 . S
C6659 C6660 1.349 . S
C6659 C6661 1.327 . S
C6659 H6682 0.950 . S
C6660 C6659 1.349 . S
C6660 C6672 1.349 . S
C6661 C6659 1.327 . S
C6661 C6677 1.429 . S
C6661 H6683 0.950 . S
C6662 H6658 0.949 . S
C6662 C6670 1.574 . S
C6662 C6678 1.368 . S
H6663 C6671 0.950 . S
H6664 C6669 0.950 . S
H6665 C6670 0.949 . S
H6666 C6672 0.950 . S
H6667 C6673 0.950 . S
H6668 C6674 0.949 . S
C6669 H6664 0.950 . S
C6669 C6671 1.327 . S
C6669 C6675 1.429 . S
C6670 C6662 1.574 . S
C6670 H6665 0.949 . S
C6670 C6676 1.368 . S
C6671 C6655 1.349 . S
C6671 H6663 0.950 . S
C6671 C6669 1.327 . S
C6672 C6660 1.349 . S
C6672 H6666 0.950 . S
C6672 C6673 1.327 . S
C6673 H6667 0.950 . S
C6673 C6672 1.327 . S
C6673 C6677 1.429 . S
C6674 C6657 1.574 . S
C6674 H6668 0.949 . S
C6674 C6678 1.368 . S
C6675 C6656 1.429 . S
C6675 C6669 1.429 . S
C6675 C6676 1.523 . S
C6676 C6657 1.368 . S
C6676 C6670 1.368 . S
C6676 C6675 1.523 . S
C6677 C6661 1.429 . S
C6677 C6673 1.429 . S
C6677 C6678 1.523 . S
C6678 C6662 1.368 . S
C6678 C6674 1.368 . S
C6678 C6677 1.523 . S
H6679 C6654 0.950 . S
H6680 C6656 0.950 . S
H6681 C6657 0.949 . S
H6682 C6659 0.950 . S
H6683 C6661 0.950 . S
C6684 C6685 1.349 . S
C6684 C6686 1.327 . S
C6684 H6709 0.950 . S
C6685 C6684 1.349 . S
C6685 C6701 1.349 . S
C6686 C6684 1.327 . S
C6686 C6705 1.429 . S
C6686 H6710 0.950 . S
C6687 C6704 1.574 . S
C6687 C6706 1.368 . S
C6687 H6711 0.949 . S
H6688 C6692 0.949 . S
C6689 C6690 1.349 . S
C6689 C6691 1.327 . S
C6689 H6712 0.950 . S
C6690 C6689 1.349 . S
C6690 C6702 1.349 . S
C6691 C6689 1.327 . S
C6691 C6707 1.429 . S
C6691 H6713 0.950 . S
C6692 H6688 0.949 . S
C6692 C6700 1.574 . S
C6692 C6708 1.368 . S
H6693 C6701 0.950 . S
H6694 C6699 0.950 . S
H6695 C6700 0.949 . S
H6696 C6702 0.950 . S
H6697 C6703 0.950 . S
H6698 C6704 0.949 . S
C6699 H6694 0.950 . S
C6699 C6701 1.327 . S
C6699 C6705 1.429 . S
C6700 C6692 1.574 . S
C6700 H6695 0.949 . S
C6700 C6706 1.368 . S
C6701 C6685 1.349 . S
C6701 H6693 0.950 . S
C6701 C6699 1.327 . S
C6702 C6690 1.349 . S
C6702 H6696 0.950 . S
C6702 C6703 1.327 . S
C6703 H6697 0.950 . S
C6703 C6702 1.327 . S
C6703 C6707 1.429 . S
C6704 C6687 1.574 . S
C6704 H6698 0.949 . S
C6704 C6708 1.368 . S
C6705 C6686 1.429 . S
C6705 C6699 1.429 . S
C6705 C6706 1.523 . S
C6706 C6687 1.368 . S
C6706 C6700 1.368 . S
C6706 C6705 1.523 . S
C6707 C6691 1.429 . S
C6707 C6703 1.429 . S
C6707 C6708 1.523 . S
C6708 C6692 1.368 . S
C6708 C6704 1.368 . S
C6708 C6707 1.523 . S
H6709 C6684 0.950 . S
H6710 C6686 0.950 . S
H6711 C6687 0.949 . S
H6712 C6689 0.950 . S
H6713 C6691 0.950 . S
C6714 C6715 1.349 . S
C6714 C6716 1.327 . S
C6714 H6739 0.950 . S
C6715 C6714 1.349 . S
C6715 C6731 1.349 . S
C6716 C6714 1.327 . S
C6716 C6735 1.429 . S
C6716 H6740 0.950 . S
C6717 C6734 1.574 . S
C6717 C6736 1.368 . S
C6717 H6741 0.949 . S
H6718 C6722 0.949 . S
C6719 C6720 1.349 . S
C6719 C6721 1.327 . S
C6719 H6742 0.950 . S
C6720 C6719 1.349 . S
C6720 C6732 1.349 . S
C6721 C6719 1.327 . S
C6721 C6737 1.429 . S
C6721 H6743 0.950 . S
C6722 H6718 0.949 . S
C6722 C6730 1.574 . S
C6722 C6738 1.368 . S
H6723 C6731 0.950 . S
H6724 C6729 0.950 . S
H6725 C6730 0.949 . S
H6726 C6732 0.950 . S
H6727 C6733 0.950 . S
H6728 C6734 0.949 . S
C6729 H6724 0.950 . S
C6729 C6731 1.327 . S
C6729 C6735 1.429 . S
C6730 C6722 1.574 . S
C6730 H6725 0.949 . S
C6730 C6736 1.368 . S
C6731 C6715 1.349 . S
C6731 H6723 0.950 . S
C6731 C6729 1.327 . S
C6732 C6720 1.349 . S
C6732 H6726 0.950 . S
C6732 C6733 1.327 . S
C6733 H6727 0.950 . S
C6733 C6732 1.327 . S
C6733 C6737 1.429 . S
C6734 C6717 1.574 . S
C6734 H6728 0.949 . S
C6734 C6738 1.368 . S
C6735 C6716 1.429 . S
C6735 C6729 1.429 . S
C6735 C6736 1.523 . S
C6736 C6717 1.368 . S
C6736 C6730 1.368 . S
C6736 C6735 1.523 . S
C6737 C6721 1.429 . S
C6737 C6733 1.429 . S
C6737 C6738 1.523 . S
C6738 C6722 1.368 . S
C6738 C6734 1.368 . S
C6738 C6737 1.523 . S
H6739 C6714 0.950 . S
H6740 C6716 0.950 . S
H6741 C6717 0.949 . S
H6742 C6719 0.950 . S
H6743 C6721 0.950 . S
C6744 C6745 1.349 . S
C6744 C6746 1.327 . S
C6744 H6769 0.950 . S
C6745 C6744 1.349 . S
C6745 C6761 1.349 . S
C6746 C6744 1.327 . S
C6746 C6765 1.429 . S
C6746 H6770 0.950 . S
C6747 C6764 1.574 . S
C6747 C6766 1.368 . S
C6747 H6771 0.949 . S
H6748 C6752 0.949 . S
C6749 C6750 1.349 . S
C6749 C6751 1.327 . S
C6749 H6772 0.950 . S
C6750 C6749 1.349 . S
C6750 C6762 1.349 . S
C6751 C6749 1.327 . S
C6751 C6767 1.429 . S
C6751 H6773 0.950 . S
C6752 H6748 0.949 . S
C6752 C6760 1.574 . S
C6752 C6768 1.368 . S
H6753 C6761 0.950 . S
H6754 C6759 0.950 . S
H6755 C6760 0.949 . S
H6756 C6762 0.950 . S
H6757 C6763 0.950 . S
H6758 C6764 0.949 . S
C6759 H6754 0.950 . S
C6759 C6761 1.327 . S
C6759 C6765 1.429 . S
C6760 C6752 1.574 . S
C6760 H6755 0.949 . S
C6760 C6766 1.368 . S
C6761 C6745 1.349 . S
C6761 H6753 0.950 . S
C6761 C6759 1.327 . S
C6762 C6750 1.349 . S
C6762 H6756 0.950 . S
C6762 C6763 1.327 . S
C6763 H6757 0.950 . S
C6763 C6762 1.327 . S
C6763 C6767 1.429 . S
C6764 C6747 1.574 . S
C6764 H6758 0.949 . S
C6764 C6768 1.368 . S
C6765 C6746 1.429 . S
C6765 C6759 1.429 . S
C6765 C6766 1.523 . S
C6766 C6747 1.368 . S
C6766 C6760 1.368 . S
C6766 C6765 1.523 . S
C6767 C6751 1.429 . S
C6767 C6763 1.429 . S
C6767 C6768 1.523 . S
C6768 C6752 1.368 . S
C6768 C6764 1.368 . S
C6768 C6767 1.523 . S
H6769 C6744 0.950 . S
H6770 C6746 0.950 . S
H6771 C6747 0.949 . S
H6772 C6749 0.950 . S
H6773 C6751 0.950 . S
C6774 C6775 1.349 . S
C6774 C6776 1.327 . S
C6774 H6799 0.950 . S
C6775 C6774 1.349 . S
C6775 C6791 1.349 . S
C6776 C6774 1.327 . S
C6776 C6795 1.429 . S
C6776 H6800 0.950 . S
C6777 C6794 1.574 . S
C6777 C6796 1.368 . S
C6777 H6801 0.949 . S
H6778 C6782 0.949 . S
C6779 C6780 1.349 . S
C6779 C6781 1.327 . S
C6779 H6802 0.950 . S
C6780 C6779 1.349 . S
C6780 C6792 1.349 . S
C6781 C6779 1.327 . S
C6781 C6797 1.429 . S
C6781 H6803 0.950 . S
C6782 H6778 0.949 . S
C6782 C6790 1.574 . S
C6782 C6798 1.368 . S
H6783 C6791 0.950 . S
H6784 C6789 0.950 . S
H6785 C6790 0.949 . S
H6786 C6792 0.950 . S
H6787 C6793 0.950 . S
H6788 C6794 0.949 . S
C6789 H6784 0.950 . S
C6789 C6791 1.327 . S
C6789 C6795 1.429 . S
C6790 C6782 1.574 . S
C6790 H6785 0.949 . S
C6790 C6796 1.368 . S
C6791 C6775 1.349 . S
C6791 H6783 0.950 . S
C6791 C6789 1.327 . S
C6792 C6780 1.349 . S
C6792 H6786 0.950 . S
C6792 C6793 1.327 . S
C6793 H6787 0.950 . S
C6793 C6792 1.327 . S
C6793 C6797 1.429 . S
C6794 C6777 1.574 . S
C6794 H6788 0.949 . S
C6794 C6798 1.368 . S
C6795 C6776 1.429 . S
C6795 C6789 1.429 . S
C6795 C6796 1.523 . S
C6796 C6777 1.368 . S
C6796 C6790 1.368 . S
C6796 C6795 1.523 . S
C6797 C6781 1.429 . S
C6797 C6793 1.429 . S
C6797 C6798 1.523 . S
C6798 C6782 1.368 . S
C6798 C6794 1.368 . S
C6798 C6797 1.523 . S
H6799 C6774 0.950 . S
H6800 C6776 0.950 . S
H6801 C6777 0.949 . S
H6802 C6779 0.950 . S
H6803 C6781 0.950 . S
C6804 C6805 1.349 . S
C6804 C6806 1.327 . S
C6804 H6829 0.950 . S
C6805 C6804 1.349 . S
C6805 C6821 1.349 . S
C6806 C6804 1.327 . S
C6806 C6825 1.429 . S
C6806 H6830 0.950 . S
C6807 C6824 1.611 . S
C6807 C6826 1.368 . S
C6807 H6831 0.949 . S
H6808 C6812 0.949 . S
C6809 C6810 1.349 . S
C6809 C6811 1.327 . S
C6809 H6832 0.950 . S
C6810 C6809 1.349 . S
C6810 C6822 1.349 . S
C6811 C6809 1.327 . S
C6811 C6827 1.429 . S
C6811 H6833 0.950 . S
C6812 H6808 0.949 . S
C6812 C6820 1.611 . S
C6812 C6828 1.368 . S
H6813 C6821 0.950 . S
H6814 C6819 0.950 . S
H6815 C6820 0.948 . S
H6816 C6822 0.950 . S
H6817 C6823 0.950 . S
H6818 C6824 0.948 . S
C6819 H6814 0.950 . S
C6819 C6821 1.327 . S
C6819 C6825 1.429 . S
C6820 C6812 1.611 . S
C6820 H6815 0.948 . S
C6820 C6826 1.328 1_655 S
C6821 C6805 1.349 . S
C6821 H6813 0.950 . S
C6821 C6819 1.327 . S
C6822 C6810 1.349 . S
C6822 H6816 0.950 . S
C6822 C6823 1.327 . S
C6823 H6817 0.950 . S
C6823 C6822 1.327 . S
C6823 C6827 1.429 . S
C6824 C6807 1.611 . S
C6824 H6818 0.948 . S
C6824 C6828 1.328 1_455 S
C6825 C6806 1.429 . S
C6825 C6819 1.429 . S
C6825 C6826 1.523 . S
C6826 C6807 1.368 . S
C6826 C6820 1.328 1_455 S
C6826 C6825 1.523 . S
C6827 C6811 1.429 . S
C6827 C6823 1.429 . S
C6827 C6828 1.523 . S
C6828 C6812 1.368 . S
C6828 C6824 1.328 1_655 S
C6828 C6827 1.523 . S
H6829 C6804 0.950 . S
H6830 C6806 0.950 . S
H6831 C6807 0.949 . S
H6832 C6809 0.950 . S
H6833 C6811 0.950 . S
C6834 C6835 1.349 . S
C6834 C6836 1.327 . S
C6834 H6859 0.950 . S
C6835 C6834 1.349 . S
C6835 C6851 1.349 . S
C6836 C6834 1.327 . S
C6836 C6855 1.429 . S
C6836 H6860 0.950 . S
C6837 C6854 1.574 . S
C6837 C6856 1.368 . S
C6837 H6861 0.949 . S
H6838 C6842 0.949 . S
C6839 C6840 1.349 . S
C6839 C6841 1.327 . S
C6839 H6862 0.950 . S
C6840 C6839 1.349 . S
C6840 C6852 1.349 . S
C6841 C6839 1.327 . S
C6841 C6857 1.429 . S
C6841 H6863 0.950 . S
C6842 H6838 0.949 . S
C6842 C6850 1.574 . S
C6842 C6858 1.368 . S
H6843 C6851 0.950 . S
H6844 C6849 0.950 . S
H6845 C6850 0.949 . S
H6846 C6852 0.950 . S
H6847 C6853 0.950 . S
H6848 C6854 0.949 . S
C6849 H6844 0.950 . S
C6849 C6851 1.327 . S
C6849 C6855 1.429 . S
C6850 C6842 1.574 . S
C6850 H6845 0.949 . S
C6850 C6856 1.368 . S
C6851 C6835 1.349 . S
C6851 H6843 0.950 . S
C6851 C6849 1.327 . S
C6852 C6840 1.349 . S
C6852 H6846 0.950 . S
C6852 C6853 1.327 . S
C6853 H6847 0.950 . S
C6853 C6852 1.327 . S
C6853 C6857 1.429 . S
C6854 C6837 1.574 . S
C6854 H6848 0.949 . S
C6854 C6858 1.368 . S
C6855 C6836 1.429 . S
C6855 C6849 1.429 . S
C6855 C6856 1.523 . S
C6856 C6837 1.368 . S
C6856 C6850 1.368 . S
C6856 C6855 1.523 . S
C6857 C6841 1.429 . S
C6857 C6853 1.429 . S
C6857 C6858 1.523 . S
C6858 C6842 1.368 . S
C6858 C6854 1.368 . S
C6858 C6857 1.523 . S
H6859 C6834 0.950 . S
H6860 C6836 0.950 . S
H6861 C6837 0.949 . S
H6862 C6839 0.950 . S
H6863 C6841 0.950 . S
C6864 C6865 1.349 . S
C6864 C6866 1.327 . S
C6864 H6889 0.950 . S
C6865 C6864 1.349 . S
C6865 C6881 1.349 . S
C6866 C6864 1.327 . S
C6866 C6885 1.429 . S
C6866 H6890 0.950 . S
C6867 C6884 1.574 1_565 S
C6867 C6886 1.368 . S
C6867 H6891 0.949 . S
H6868 C6872 0.949 . S
C6869 C6870 1.349 . S
C6869 C6871 1.327 . S
C6869 H6892 0.950 . S
C6870 C6869 1.349 . S
C6870 C6882 1.349 . S
C6871 C6869 1.327 . S
C6871 C6887 1.429 . S
C6871 H6893 0.950 . S
C6872 H6868 0.949 . S
C6872 C6880 1.574 1_545 S
C6872 C6888 1.368 . S
H6873 C6881 0.950 . S
H6874 C6879 0.950 . S
H6875 C6880 0.949 . S
H6876 C6882 0.950 . S
H6877 C6883 0.950 . S
H6878 C6884 0.949 . S
C6879 H6874 0.950 . S
C6879 C6881 1.327 . S
C6879 C6885 1.429 . S
C6880 C6872 1.574 1_565 S
C6880 H6875 0.949 . S
C6880 C6886 1.368 . S
C6881 C6865 1.349 . S
C6881 H6873 0.950 . S
C6881 C6879 1.327 . S
C6882 C6870 1.349 . S
C6882 H6876 0.950 . S
C6882 C6883 1.327 . S
C6883 H6877 0.950 . S
C6883 C6882 1.327 . S
C6883 C6887 1.429 . S
C6884 C6867 1.574 1_545 S
C6884 H6878 0.949 . S
C6884 C6888 1.368 . S
C6885 C6866 1.429 . S
C6885 C6879 1.429 . S
C6885 C6886 1.523 . S
C6886 C6867 1.368 . S
C6886 C6880 1.368 . S
C6886 C6885 1.523 . S
C6887 C6871 1.429 . S
C6887 C6883 1.429 . S
C6887 C6888 1.523 . S
C6888 C6872 1.368 . S
C6888 C6884 1.368 . S
C6888 C6887 1.523 . S
H6889 C6864 0.950 . S
H6890 C6866 0.950 . S
H6891 C6867 0.949 . S
H6892 C6869 0.950 . S
H6893 C6871 0.950 . S
C6894 C6895 1.349 . S
C6894 C6896 1.327 . S
C6894 H6919 0.950 . S
C6895 C6894 1.349 . S
C6895 C6911 1.349 . S
C6896 C6894 1.327 . S
C6896 C6915 1.429 . S
C6896 H6920 0.950 . S
C6897 C6914 1.615 . S
C6897 C6916 1.315 1_565 S
C6897 H6921 0.946 . S
H6898 C6902 0.946 . S
C6899 C6900 1.349 . S
C6899 C6901 1.327 . S
C6899 H6922 0.950 . S
C6900 C6899 1.349 . S
C6900 C6912 1.349 . S
C6901 C6899 1.327 . S
C6901 C6917 1.429 . S
C6901 H6923 0.950 . S
C6902 H6898 0.946 . S
C6902 C6910 1.615 . S
C6902 C6918 1.315 1_545 S
H6903 C6911 0.950 . S
H6904 C6909 0.950 . S
H6905 C6910 0.949 . S
H6906 C6912 0.950 . S
H6907 C6913 0.950 . S
H6908 C6914 0.949 . S
C6909 H6904 0.950 . S
C6909 C6911 1.327 . S
C6909 C6915 1.429 . S
C6910 C6902 1.615 . S
C6910 H6905 0.949 . S
C6910 C6916 1.368 1_554 S
C6911 C6895 1.349 . S
C6911 H6903 0.950 . S
C6911 C6909 1.327 . S
C6912 C6900 1.349 . S
C6912 H6906 0.950 . S
C6912 C6913 1.327 . S
C6913 H6907 0.950 . S
C6913 C6912 1.327 . S
C6913 C6917 1.429 . S
C6914 C6897 1.615 . S
C6914 H6908 0.949 . S
C6914 C6918 1.368 1_556 S
C6915 C6896 1.429 . S
C6915 C6909 1.429 . S
C6915 C6916 1.523 . S
C6916 C6897 1.315 1_545 S
C6916 C6910 1.368 1_556 S
C6916 C6915 1.523 . S
C6917 C6901 1.429 . S
C6917 C6913 1.429 . S
C6917 C6918 1.523 . S
C6918 C6902 1.315 1_565 S
C6918 C6914 1.368 1_554 S
C6918 C6917 1.523 . S
H6919 C6894 0.950 . S
H6920 C6896 0.950 . S
H6921 C6897 0.946 . S
H6922 C6899 0.950 . S
H6923 C6901 0.950 . S
C6924 C6925 1.349 . S
C6924 C6926 1.327 . S
C6924 H6949 0.950 . S
C6925 C6924 1.349 . S
C6925 C6941 1.349 . S
C6926 C6924 1.327 . S
C6926 C6945 1.429 . S
C6926 H6950 0.950 . S
C6927 C6944 1.568 1_655 S
C6927 C6946 1.368 1_554 S
C6927 H6951 0.949 . S
H6928 C6932 0.949 . S
C6929 C6930 1.349 . S
C6929 C6931 1.327 . S
C6929 H6952 0.950 . S
C6930 C6929 1.349 . S
C6930 C6942 1.349 . S
C6931 C6929 1.327 . S
C6931 C6947 1.429 . S
C6931 H6953 0.950 . S
C6932 H6928 0.949 . S
C6932 C6940 1.568 1_455 S
C6932 C6948 1.368 1_556 S
H6933 C6941 0.950 . S
H6934 C6939 0.950 . S
H6935 C6940 0.952 . S
H6936 C6942 0.950 . S
H6937 C6943 0.950 . S
H6938 C6944 0.952 . S
C6939 H6934 0.950 . S
C6939 C6941 1.327 . S
C6939 C6945 1.429 . S
C6940 C6932 1.568 1_655 S
C6940 H6935 0.952 . S
C6940 C6946 1.374 . S
C6941 C6925 1.349 . S
C6941 H6933 0.950 . S
C6941 C6939 1.327 . S
C6942 C6930 1.349 . S
C6942 H6936 0.950 . S
C6942 C6943 1.327 . S
C6943 H6937 0.950 . S
C6943 C6942 1.327 . S
C6943 C6947 1.429 . S
C6944 C6927 1.568 1_455 S
C6944 H6938 0.952 . S
C6944 C6948 1.374 . S
C6945 C6926 1.429 . S
C6945 C6939 1.429 . S
C6945 C6946 1.523 . S
C6946 C6927 1.368 1_556 S
C6946 C6940 1.374 . S
C6946 C6945 1.523 . S
C6947 C6931 1.429 . S
C6947 C6943 1.429 . S
C6947 C6948 1.523 . S
C6948 C6932 1.368 1_554 S
C6948 C6944 1.374 . S
C6948 C6947 1.523 . S
H6949 C6924 0.950 . S
H6950 C6926 0.950 . S
H6951 C6927 0.949 . S
H6952 C6929 0.950 . S
H6953 C6931 0.950 . S
C6954 C6955 1.349 . S
C6954 C6956 1.327 . S
C6954 H6979 0.950 . S
C6955 C6954 1.349 . S
C6955 C6971 1.349 . S
C6956 C6954 1.327 . S
C6956 C6975 1.429 . S
C6956 H6980 0.950 . S
C6957 C6974 1.574 . S
C6957 C6976 1.368 1_554 S
C6957 H6981 0.949 . S
H6958 C6962 0.949 . S
C6959 C6960 1.349 . S
C6959 C6961 1.327 . S
C6959 H6982 0.950 . S
C6960 C6959 1.349 . S
C6960 C6972 1.349 . S
C6961 C6959 1.327 . S
C6961 C6977 1.429 . S
C6961 H6983 0.950 . S
C6962 H6958 0.949 . S
C6962 C6970 1.574 . S
C6962 C6978 1.368 1_556 S
H6963 C6971 0.950 . S
H6964 C6969 0.950 . S
H6965 C6970 0.949 . S
H6966 C6972 0.950 . S
H6967 C6973 0.950 . S
H6968 C6974 0.949 . S
C6969 H6964 0.950 . S
C6969 C6971 1.327 . S
C6969 C6975 1.429 . S
C6970 C6962 1.574 . S
C6970 H6965 0.949 . S
C6970 C6976 1.368 . S
C6971 C6955 1.349 . S
C6971 H6963 0.950 . S
C6971 C6969 1.327 . S
C6972 C6960 1.349 . S
C6972 H6966 0.950 . S
C6972 C6973 1.327 . S
C6973 H6967 0.950 . S
C6973 C6972 1.327 . S
C6973 C6977 1.429 . S
C6974 C6957 1.574 . S
C6974 H6968 0.949 . S
C6974 C6978 1.368 . S
C6975 C6956 1.429 . S
C6975 C6969 1.429 . S
C6975 C6976 1.523 . S
C6976 C6957 1.368 1_556 S
C6976 C6970 1.368 . S
C6976 C6975 1.523 . S
C6977 C6961 1.429 . S
C6977 C6973 1.429 . S
C6977 C6978 1.523 . S
C6978 C6962 1.368 1_554 S
C6978 C6974 1.368 . S
C6978 C6977 1.523 . S
H6979 C6954 0.950 . S
H6980 C6956 0.950 . S
H6981 C6957 0.949 . S
H6982 C6959 0.950 . S
H6983 C6961 0.950 . S
C3205 C1 1.994 . S
C3210 C1425 1.994 . S
C3235 C1514 1.994 . S
C3240 C90 1.994 . S
C3265 C1336 1.994 . S
C3270 C179 1.994 . S
C3295 C2315 1.994 . S
C3300 C268 1.994 . S
C3325 C357 1.994 . S
C3330 C2137 1.994 . S
C3355 C446 1.994 . S
C3360 C2226 1.994 . S
C3385 C535 1.994 . S
C3390 C3027 1.994 . S
C3415 C3116 1.994 . S
C3420 C624 1.994 . S
C3445 C713 1.994 . S
C3450 C2938 1.994 . S
C3475 C1781 1.994 . S
C3480 C802 1.994 . S
C3505 C1603 1.994 . S
C3510 C891 1.994 . S
C3535 C1692 1.994 . S
C3540 C980 1.994 . S
C3565 C2493 1.994 . S
C3570 C1069 1.994 . S
C3595 C1158 1.994 . S
C3600 C2582 1.994 . S
C3625 C1247 1.994 . S
C3630 C2404 1.994 . S
C3655 C2849 1.994 . S
C3660 C1870 1.994 . S
C3685 C1959 1.994 . S
C3690 C2671 1.994 . S
C3715 C2048 1.994 . S
C3720 C2760 1.994 . S
C3745 C26 1.211 . S
C3750 C696 1.250 . S
C3775 C785 1.249 . S
C3780 C115 1.211 . S
C3805 C607 1.250 . S
C3810 C204 1.211 . S
C3835 C293 1.211 . S
C3840 C1052 1.250 . S
C3865 C382 1.211 . S
C3870 C874 1.249 . S
C3895 C963 1.250 . S
C3900 C471 1.211 . S
C3925 C560 1.211 . S
C3930 C162 1.250 . S
C3955 C251 1.249 . S
C3960 C649 1.211 . S
C3985 C73 1.250 . S
C3990 C738 1.211 . S
C4015 C518 1.250 . S
C4020 C827 1.211 . S
C4045 C340 1.249 . S
C4050 C916 1.211 . S
C4075 C1005 1.211 . S
C4080 C429 1.250 . S
C4105 C1094 1.211 . S
C4110 C1764 1.250 . S
C4135 C1853 1.249 . S
C4140 C1183 1.211 . S
C4165 C1675 1.250 . S
C4170 C1272 1.211 . S
C4195 C1361 1.211 . S
C4200 C2120 1.250 . S
C4225 C1450 1.211 . S
C4230 C1942 1.249 . S
C4255 C2031 1.250 . S
C4260 C1539 1.211 . S
C4285 C1230 1.250 . S
C4290 C1628 1.211 . S
C4315 C1717 1.211 . S
C4320 C1319 1.250 . S
C4345 C1141 1.250 . S
C4350 C1806 1.211 . S
C4375 C1895 1.211 . S
C4380 C1586 1.250 . S
C4405 C1408 1.249 . S
C4410 C1984 1.211 . S
C4435 C2073 1.211 . S
C4440 C1497 1.250 . S
C4465 C2162 1.211 . S
C4470 C2832 1.250 . S
C4495 C2251 1.211 . S
C4500 C2921 1.250 . S
C4525 C2340 1.211 . S
C4530 C2743 1.250 . S
C4555 C3188 1.250 . S
C4560 C2429 1.211 . S
C4585 C3010 1.249 . S
C4590 C2518 1.211 . S
C4615 C3099 1.250 . S
C4620 C2607 1.211 . S
C4645 C2696 1.211 . S
C4650 C2298 1.250 . S
C4675 C2387 1.249 . S
C4680 C2785 1.211 . S
C4705 C2209 1.250 . S
C4710 C2874 1.211 . S
C4735 C2963 1.211 . S
C4740 C2654 1.250 . S
C4765 C3052 1.211 . S
C4770 C2476 1.249 . S
C4795 C3141 1.211 . S
C4800 C2565 1.250 . S
C4825 C508 1.135 . S
C4830 C63 1.135 . S
C4855 C330 1.135 . S
C4860 C152 1.135 . S
C4885 C419 1.135 . S
C4890 C241 1.135 . S
C4915 C1042 1.135 . S
C4920 C597 1.135 . S
C4945 C686 1.135 . S
C4950 C864 1.135 . S
C4975 C953 1.135 . S
C4980 C775 1.135 . S
C5005 C1576 1.135 . S
C5010 C1131 1.135 . S
C5035 C1398 1.135 . S
C5040 C1220 1.135 . S
C5065 C1487 1.135 . S
C5070 C1309 1.135 . S
C5095 C1665 1.135 . S
C5100 C2110 1.135 . S
C5125 C1932 1.135 . S
C5130 C1754 1.135 . S
C5155 C1843 1.135 . S
C5160 C2021 1.135 . S
C5185 C2644 1.135 . S
C5190 C2199 1.135 . S
C5215 C2466 1.135 . S
C5220 C2288 1.135 . S
C5245 C2555 1.135 . S
C5250 C2377 1.135 . S
C5275 C3178 1.135 . S
C5280 C2733 1.135 . S
C5305 C2822 1.135 . S
C5310 C3000 1.135 . S
C5335 C2911 1.135 . S
C5340 C3089 1.135 . S
C5365 C70 2.586 . S
C5370 C951 2.477 . S
C5395 C159 2.586 . S
C5400 C1040 2.477 . S
C5425 C862 2.477 . S
C5430 C248 2.586 . S
C5455 C773 2.477 . S
C5460 C337 2.586 . S
C5485 C426 2.586 . S
C5490 C595 2.477 . S
C5515 C684 2.477 . S
C5520 C515 2.586 . S
C5545 C604 2.586 . S
C5550 C417 2.477 . S
C5575 C506 2.477 . S
C5580 C693 2.586 . S
C5605 C782 2.586 . S
C5610 C328 2.477 . S
C5635 C239 2.477 . S
C5640 C871 2.586 . S
C5665 C960 2.586 . S
C5670 C61 2.477 . S
C5695 C1049 2.586 . S
C5700 C150 2.477 . S
C5725 C2019 2.477 . S
C5730 C1138 2.586 . S
C5755 C2108 2.477 . S
C5760 C1227 2.586 . S
C5785 C1930 2.477 . S
C5790 C1316 2.586 . S
C5815 C1405 2.586 . S
C5820 C1841 2.477 . S
C5845 C1494 2.586 . S
C5850 C1663 2.477 . S
C5875 C1583 2.586 . S
C5880 C1752 2.477 . S
C5905 C1485 2.477 . S
C5910 C1672 2.586 . S
C5935 C1761 2.586 . S
C5940 C1574 2.477 . S
C5965 C1396 2.477 . S
C5970 C1850 2.586 . S
C5995 C1307 2.477 . S
C6000 C1939 2.586 . S
C6025 C2028 2.586 . S
C6030 C1129 2.477 . S
C6055 C1218 2.477 . S
C6060 C2117 2.586 . S
C6085 C2206 2.586 . S
C6090 C3087 2.477 . S
C6115 C2295 2.586 . S
C6120 C3176 2.477 . S
C6145 C2384 2.586 . S
C6150 C2998 2.477 . S
C6175 C2909 2.477 . S
C6180 C2473 2.586 . S
C6205 C2731 2.477 . S
C6210 C2562 2.586 . S
C6235 C2820 2.477 . S
C6240 C2651 2.586 . S
C6265 C2553 2.477 . S
C6270 C2740 2.586 . S
C6295 C2829 2.586 . S
C6300 C2642 2.477 . S
C6325 C2918 2.586 . S
C6330 C2464 2.477 . S
C6355 C2375 2.477 . S
C6360 C3007 2.586 . S
C6385 C3096 2.586 . S
C6390 C2197 2.477 . S
C6415 C3185 2.586 . S
C6420 C2286 2.477 . S
C6445 C1620 0.224 . S
C6450 C18 0.224 . S
C6475 C1709 0.224 . S
C6480 C107 0.224 . S
C6505 C196 0.224 . S
C6510 C1798 0.224 . S
C6535 C2955 0.224 . S
C6540 C285 0.224 . S
C6565 C3044 0.224 . S
C6570 C374 0.224 . S
C6595 C3133 0.224 . S
C6600 C463 0.224 . S
C6625 C2154 0.224 . S
C6630 C552 0.224 . S
C6655 C641 0.224 . S
C6660 C2243 0.224 . S
C6685 C730 0.224 . S
C6690 C2332 0.224 . S
C6715 C1353 0.224 . S
C6720 C819 0.224 . S
C6745 C1442 0.224 . S
C6750 C908 0.224 . S
C6775 C997 0.224 . S
C6780 C1531 0.224 . S
C6805 C2688 0.224 . S
C6810 C1086 0.224 . S
C6835 C2777 0.224 . S
C6840 C1175 0.224 . S
C6865 C2866 0.224 . S
C6870 C1264 0.224 . S
C6895 C1887 0.224 . S
C6900 C2421 0.224 . S
C6925 C1976 0.224 . S
C6930 C2510 0.224 . S
C6955 C2065 0.224 . S
C6960 C2599 0.224 . S
