# Generated by pormake.
# Topology wkj, (6)-cn, num edge types: 1
# Building blocks:
#     Node 0, Type 0, BuildingBlock: BETDEL_clean_sbu_0, # of connection points: 6
#     Node 1, Type 0, BuildingBlock: BETDEL_clean_sbu_0, # of connection points: 6
#     Node 2, Type 0, BuildingBlock: BETDEL_clean_sbu_0, # of connection points: 6
#     Node 3, Type 0, BuildingBlock: BETDEL_clean_sbu_0, # of connection points: 6
#     Node 4, Type 0, BuildingBlock: BETDEL_clean_sbu_0, # of connection points: 6
#     Node 5, Type 0, BuildingBlock: BETDEL_clean_sbu_0, # of connection points: 6
#     Node 6, Type 0, BuildingBlock: BETDEL_clean_sbu_0, # of connection points: 6
#     Node 7, Type 0, BuildingBlock: BETDEL_clean_sbu_0, # of connection points: 6
#     Node 8, Type 0, BuildingBlock: BETDEL_clean_sbu_0, # of connection points: 6
#     Node 9, Type 0, BuildingBlock: BETDEL_clean_sbu_0, # of connection points: 6
#     Node 10, Type 0, BuildingBlock: BETDEL_clean_sbu_0, # of connection points: 6
#     Node 11, Type 0, BuildingBlock: BETDEL_clean_sbu_0, # of connection points: 6
#     Edge 12, Type (0, 0), BuildingBlock: AJUNOK_clean_linker_0, # of connection points: 2
#     Edge 13, Type (0, 0), BuildingBlock: AJUNOK_clean_linker_0, # of connection points: 2
#     Edge 14, Type (0, 0), BuildingBlock: AJUNOK_clean_linker_0, # of connection points: 2
#     Edge 15, Type (0, 0), BuildingBlock: AJUNOK_clean_linker_0, # of connection points: 2
#     Edge 16, Type (0, 0), BuildingBlock: AJUNOK_clean_linker_0, # of connection points: 2
#     Edge 17, Type (0, 0), BuildingBlock: AJUNOK_clean_linker_0, # of connection points: 2
#     Edge 18, Type (0, 0), BuildingBlock: AJUNOK_clean_linker_0, # of connection points: 2
#     Edge 19, Type (0, 0), BuildingBlock: AJUNOK_clean_linker_0, # of connection points: 2
#     Edge 20, Type (0, 0), BuildingBlock: AJUNOK_clean_linker_0, # of connection points: 2
#     Edge 21, Type (0, 0), BuildingBlock: AJUNOK_clean_linker_0, # of connection points: 2
#     Edge 22, Type (0, 0), BuildingBlock: AJUNOK_clean_linker_0, # of connection points: 2
#     Edge 23, Type (0, 0), BuildingBlock: AJUNOK_clean_linker_0, # of connection points: 2
#     Edge 24, Type (0, 0), BuildingBlock: AJUNOK_clean_linker_0, # of connection points: 2
#     Edge 25, Type (0, 0), BuildingBlock: AJUNOK_clean_linker_0, # of connection points: 2
#     Edge 26, Type (0, 0), BuildingBlock: AJUNOK_clean_linker_0, # of connection points: 2
#     Edge 27, Type (0, 0), BuildingBlock: AJUNOK_clean_linker_0, # of connection points: 2
#     Edge 28, Type (0, 0), BuildingBlock: AJUNOK_clean_linker_0, # of connection points: 2
#     Edge 29, Type (0, 0), BuildingBlock: AJUNOK_clean_linker_0, # of connection points: 2
#     Edge 30, Type (0, 0), BuildingBlock: AJUNOK_clean_linker_0, # of connection points: 2
#     Edge 31, Type (0, 0), BuildingBlock: AJUNOK_clean_linker_0, # of connection points: 2
#     Edge 32, Type (0, 0), BuildingBlock: AJUNOK_clean_linker_0, # of connection points: 2
#     Edge 33, Type (0, 0), BuildingBlock: AJUNOK_clean_linker_0, # of connection points: 2
#     Edge 34, Type (0, 0), BuildingBlock: AJUNOK_clean_linker_0, # of connection points: 2
#     Edge 35, Type (0, 0), BuildingBlock: AJUNOK_clean_linker_0, # of connection points: 2
#     Edge 36, Type (0, 0), BuildingBlock: AJUNOK_clean_linker_0, # of connection points: 2
#     Edge 37, Type (0, 0), BuildingBlock: AJUNOK_clean_linker_0, # of connection points: 2
#     Edge 38, Type (0, 0), BuildingBlock: AJUNOK_clean_linker_0, # of connection points: 2
#     Edge 39, Type (0, 0), BuildingBlock: AJUNOK_clean_linker_0, # of connection points: 2
#     Edge 40, Type (0, 0), BuildingBlock: AJUNOK_clean_linker_0, # of connection points: 2
#     Edge 41, Type (0, 0), BuildingBlock: AJUNOK_clean_linker_0, # of connection points: 2
#     Edge 42, Type (0, 0), BuildingBlock: AJUNOK_clean_linker_0, # of connection points: 2
#     Edge 43, Type (0, 0), BuildingBlock: AJUNOK_clean_linker_0, # of connection points: 2
#     Edge 44, Type (0, 0), BuildingBlock: AJUNOK_clean_linker_0, # of connection points: 2
#     Edge 45, Type (0, 0), BuildingBlock: AJUNOK_clean_linker_0, # of connection points: 2
#     Edge 46, Type (0, 0), BuildingBlock: AJUNOK_clean_linker_0, # of connection points: 2
#     Edge 47, Type (0, 0), BuildingBlock: AJUNOK_clean_linker_0, # of connection points: 2
# Relax obj value: 0.418
# Max RMSD: 0.193
# Mean RMSD: 0.193
data_MOF--net-wkj--node1-BETDEL_clean_sbu_0--edge1-AJUNOK_clean_linker_0
_symmetry_space_group_name_H-M    P1
_symmetry_Int_Tables_number       1
_symmetry_cell_setting            triclinic
loop_
_symmetry_equiv_pos_as_xyz
'x, y, z'
_cell_length_a     36.077107
_cell_length_b     36.117124
_cell_length_c     19.394249
_cell_angle_alpha  90.132532
_cell_angle_beta   90.172331
_cell_angle_gamma 119.65488
loop_
_atom_site_label
_atom_site_type_symbol
_atom_site_fract_x
_atom_site_fract_y
_atom_site_fract_z
_atom_type_partial_charge
Dy0 Dy 0.43952 0.07971 0.39084 0.0
C1 C 0.56151 0.21369 0.21428 0.0
C2 C 0.38242 0.0372 0.49052 0.0
Dy3 Dy 0.51418 0.14788 0.30255 0.0
O4 O 0.40571 0.0782 0.48669 0.0
O5 O 0.39164 0.01856 0.44093 0.0
O6 O 0.39844 0.10345 0.34794 0.0
O7 O 0.46402 0.14662 0.36547 0.0
C8 C 0.42918 0.14222 0.34331 0.0
C9 C 0.52331 0.08302 0.3377 0.0
O10 O 0.54106 0.16732 0.41213 0.0
O11 O 0.49476 0.10263 0.46443 0.0
O12 O 0.57585 0.19395 0.25227 0.0
O13 O 0.52121 0.19805 0.22706 0.0
O14 O 0.55582 0.1182 0.31646 0.0
O15 O 0.48955 0.08377 0.32653 0.0
O16 O 0.4187 0.04356 0.29028 0.0
O17 O 0.4668 0.09911 0.22014 0.0
C18 C 0.53007 0.14027 0.46524 0.0
C19 C 0.4329 0.05938 0.22759 0.0
Dy20 Dy 0.32202 0.40464 0.6947 0.0
C21 C 0.34053 0.53828 0.52718 0.0
C22 C 0.29122 0.34203 0.79031 0.0
Dy23 Dy 0.34908 0.48661 0.62011 0.0
O24 O 0.28199 0.37222 0.78584 0.0
O25 O 0.31807 0.34615 0.74213 0.0
O26 O 0.26601 0.3729 0.62502 0.0
O27 O 0.28806 0.43631 0.65636 0.0
C28 C 0.26105 0.40583 0.62012 0.0
C29 C 0.40896 0.48966 0.69947 0.0
O30 O 0.33866 0.50702 0.72628 0.0
O31 O 0.34013 0.45178 0.78418 0.0
O32 O 0.36856 0.55148 0.57673 0.0
O33 O 0.3188 0.4971 0.52718 0.0
O34 O 0.41004 0.52433 0.67772 0.0
O35 O 0.38261 0.45746 0.66527 0.0
O36 O 0.35311 0.39038 0.60296 0.0
O37 O 0.36321 0.44869 0.53819 0.0
C38 C 0.34298 0.49 0.78476 0.0
C39 C 0.36422 0.41219 0.54373 0.0
Dy40 Dy 0.88565 0.32848 0.99555 0.0
C41 C 0.75717 0.34524 0.85456 0.0
C42 C 0.92482 0.30128 0.08535 0.0
Dy43 Dy 0.82692 0.35911 0.92848 0.0
O44 O 0.88405 0.28603 0.07995 0.0
O45 O 0.94458 0.33128 1.04008 0.0
O46 O 0.85247 0.26988 0.93229 0.0
O47 O 0.81871 0.29978 0.97018 0.0
C48 C 0.8168 0.27032 0.93289 0.0
C49 C 0.8986 0.41812 0.98257 0.0
O50 O 0.80992 0.36189 1.04004 0.0
O51 O 0.8657 0.35508 0.08764 0.0
O52 O 0.78893 0.38272 0.87076 0.0
O53 O 0.764 0.31576 0.87906 0.0
O54 O 0.86605 0.42456 0.97723 0.0
O55 O 0.89142 0.38491 0.95215 0.0
O56 O 0.92048 0.3504 0.89303 0.0
O57 O 0.86946 0.36141 0.83584 0.0
C58 C 0.83388 0.36386 0.09402 0.0
C59 C 0.90604 0.35966 0.8355 0.0
Dy60 Dy 0.50904 0.89187 0.38192 0.0
C61 C 0.36741 0.76397 0.2336 0.0
C62 C 0.57023 0.92424 0.48026 0.0
Dy63 Dy 0.4267 0.83308 0.3054 0.0
O64 O 0.54718 0.88428 0.46464 0.0
O65 O 0.56008 0.94731 0.44102 0.0
O66 O 0.54205 0.86759 0.31569 0.0
O67 O 0.47891 0.82538 0.34617 0.0
C68 C 0.51034 0.82923 0.31166 0.0
C69 C 0.43801 0.90951 0.32949 0.0
O70 O 0.40001 0.81924 0.41607 0.0
O71 O 0.46244 0.86846 0.47171 0.0
O72 O 0.35872 0.78642 0.27654 0.0
O73 O 0.40835 0.77974 0.23143 0.0
O74 O 0.41713 0.8877 0.27516 0.0
O75 O 0.44818 0.88787 0.36684 0.0
O76 O 0.52417 0.93071 0.28406 0.0
O77 O 0.47157 0.87588 0.21822 0.0
C78 C 0.42114 0.83946 0.47367 0.0
C79 C 0.50598 0.9151 0.22287 0.0
Dy80 Dy 0.60562 0.53251 0.67514 0.0
C81 C 0.58792 0.3891 0.52152 0.0
C82 C 0.62688 0.59693 0.76756 0.0
Dy83 Dy 0.57883 0.44623 0.60129 0.0
O84 O 0.63987 0.56932 0.76949 0.0
O85 O 0.60214 0.58953 0.71432 0.0
O86 O 0.66732 0.55961 0.61937 0.0
O87 O 0.63629 0.49526 0.6507 0.0
C88 C 0.6673 0.52375 0.6181 0.0
C89 C 0.51664 0.45466 0.65202 0.0
O90 O 0.57669 0.42551 0.71392 0.0
O91 O 0.57548 0.4839 0.76228 0.0
O92 O 0.55336 0.38141 0.55398 0.0
O93 O 0.61731 0.42842 0.53192 0.0
O94 O 0.5119 0.41676 0.64252 0.0
O95 O 0.55034 0.48266 0.62579 0.0
O96 O 0.58486 0.54831 0.57359 0.0
O97 O 0.57574 0.4887 0.51166 0.0
C98 C 0.56967 0.44448 0.76791 0.0
C99 C 0.57671 0.5267 0.51409 0.0
Dy100 Dy 0.05448 0.61183 1.02325 0.0
C101 C 0.16375 0.57485 0.86606 0.0
C102 C 0.0169 0.63685 0.12051 0.0
Dy103 Dy 0.10694 0.58213 0.94829 0.0
O104 O 0.05672 0.64728 0.11917 0.0
O105 O -0.00274 0.61256 1.06779 0.0
O106 O 0.0776 0.66794 0.95511 0.0
O107 O 0.11941 0.64553 0.98145 0.0
C108 C 0.11536 0.67298 0.94683 0.0
C109 C 0.05035 0.52443 1.03134 0.0
O110 O 0.13893 0.59117 1.05158 0.0
O111 O 0.08617 0.5958 0.11201 0.0
O112 O 0.12524 0.54449 0.878 0.0
O113 O 0.1705 0.60907 0.89761 0.0
O114 O 0.08436 0.5236 1.01195 0.0
O115 O 0.04467 0.55016 0.9952 0.0
O116 O 0.00968 0.58069 0.93084 0.0
O117 O 0.06073 0.57759 0.86303 0.0
C118 C 0.12032 0.59071 0.11071 0.0
C119 C 0.02205 0.57356 0.86964 0.0
Dy120 Dy 0.88435 0.53065 0.46161 0.0
C121 C 0.75875 0.3795 0.59626 0.0
C122 C 0.92823 0.59549 0.37149 0.0
Dy123 Dy 0.82717 0.44078 0.52758 0.0
O124 O 0.88714 0.5715 0.37329 0.0
O125 O 0.94554 0.58475 0.42087 0.0
O126 O 0.84912 0.55643 0.51894 0.0
O127 O 0.81747 0.49181 0.48774 0.0
C128 C 0.81463 0.51969 0.52302 0.0
C129 C 0.89931 0.45535 0.47277 0.0
O130 O 0.81082 0.42121 0.4156 0.0
O131 O 0.86427 0.48467 0.36875 0.0
O132 O 0.79428 0.37925 0.58549 0.0
O133 O 0.7612 0.4136 0.56988 0.0
O134 O 0.86768 0.41627 0.47737 0.0
O135 O 0.89126 0.48054 0.5039 0.0
O136 O 0.91871 0.54276 0.56565 0.0
O137 O 0.86871 0.48048 0.62153 0.0
C138 C 0.83357 0.44397 0.36183 0.0
C139 C 0.90495 0.51867 0.62263 0.0
Dy140 Dy 0.31377 0.91286 0.82868 0.0
C141 C 0.33271 0.79443 0.9874 0.0
C142 C 0.2916 0.94991 0.72642 0.0
Dy143 Dy 0.34768 0.8584 0.89985 0.0
O144 O 0.28214 0.91045 0.72887 0.0
O145 O 0.31117 0.9688 0.78321 0.0
O146 O 0.25153 0.8747 0.88317 0.0
O147 O 0.2881 0.84677 0.85335 0.0
C148 C 0.25507 0.84063 0.88438 0.0
C149 C 0.40587 0.92753 0.83935 0.0
O150 O 0.34374 0.83428 0.79117 0.0
O151 O 0.34064 0.8908 0.73945 0.0
O152 O 0.36478 0.81143 0.94472 0.0
O153 O 0.31061 0.8138 0.98391 0.0
O154 O 0.41312 0.89611 0.85261 0.0
O155 O 0.37278 0.92198 0.86864 0.0
O156 O 0.33883 0.95185 0.9297 0.0
O157 O 0.35707 0.90607 0.98663 0.0
C158 C 0.34665 0.85709 0.73546 0.0
C159 C 0.35347 0.94135 0.98597 0.0
Dy160 Dy 0.39808 0.32169 0.12842 0.0
C161 C 0.54001 0.32332 0.26823 0.0
C162 C 0.33132 0.30097 1.04288 0.0
Dy163 Dy 0.48486 0.33722 0.19023 0.0
O164 O 0.34637 0.33283 0.08637 0.0
O165 O 0.35284 0.28112 1.04701 0.0
O166 O 0.36769 0.26096 0.18625 0.0
O167 O 0.42923 0.28419 0.14399 0.0
C168 C 0.40006 0.2551 0.1788 0.0
C169 C 0.48333 0.40449 0.14912 0.0
O170 O 0.49967 0.3392 1.07458 0.0
O171 O 0.44441 0.35046 1.03808 0.0
O172 O 0.55044 0.35596 0.22856 0.0
O173 O 0.49918 0.29748 0.26279 0.0
O174 O 0.51985 0.40554 0.15545 0.0
O175 O 0.45383 0.37178 0.17505 0.0
O176 O 0.38951 0.34408 0.23403 0.0
O177 O 0.44913 0.34586 0.28576 0.0
C178 C 0.48137 0.35143 1.02601 0.0
C179 C 0.41351 0.34954 0.29016 0.0
Dy180 Dy 0.05105 0.40594 0.43421 0.0
C181 C 0.17344 0.53177 0.60735 0.0
C182 C 0.01017 0.34435 0.33744 0.0
Dy183 Dy 0.11134 0.48636 0.51349 0.0
O184 O -0.00839 0.35089 0.38978 0.0
O185 O 0.05045 0.37184 0.33812 0.0
O186 O 0.07597 0.37075 0.4958 0.0
O187 O 0.11664 0.43451 0.46827 0.0
C188 C 0.1139 0.4033 0.50082 0.0
C189 C 0.05458 0.4943 0.44162 0.0
O190 O 0.14131 0.50737 0.40882 0.0
O191 O 0.08236 0.45558 0.34918 0.0
O192 O 0.15854 0.54817 0.56306 0.0
O193 O 0.15337 0.4907 0.60081 0.0
O194 O 0.0887 0.52751 0.46548 0.0
O195 O 0.0484 0.46074 0.4715 0.0
O196 O 0.00915 0.39381 0.52969 0.0
O197 O 0.06025 0.44998 0.59526 0.0
C198 C 0.11899 0.49251 0.35073 0.0
C199 C 0.02181 0.41511 0.58961 0.0
Dy200 Dy 0.59894 0.0457 0.81352 0.0
C201 C 0.59219 0.18138 0.95998 0.0
C202 C 0.60371 -0.01899 0.74947 0.0
Dy203 Dy 0.58591 0.115 0.88504 0.0
O204 O 0.63452 0.0121 0.78299 0.0
O205 O 0.56963 -0.01569 0.75534 0.0
O206 O 0.6663 0.09522 0.79468 0.0
O207 O 0.63541 0.09799 0.88459 0.0
C208 C 0.669 0.1166 0.84977 0.0
C209 C 0.52637 0.06816 0.79438 0.0
O210 O 0.61037 0.1441 0.7785 0.0
O211 O 0.59574 0.0818 0.72052 0.0
O212 O 0.55719 0.14555 0.94938 0.0
O213 O 0.62432 0.18042 0.9316 0.0
O214 O 0.53392 0.10587 0.81255 0.0
O215 O 0.54524 0.05515 0.83425 0.0
O216 O 0.57489 0.01278 0.91675 0.0
O217 O 0.56701 0.06582 0.97274 0.0
C218 C 0.60404 0.12209 0.7198 0.0
C219 C 0.56448 0.02743 0.97235 0.0
Dy220 Dy 0.53015 0.63092 0.11509 0.0
C221 C 0.38923 0.61116 0.2784 0.0
C222 C 0.58995 0.65354 1.01438 0.0
Dy223 Dy 0.44599 0.60358 0.19613 0.0
O224 O 0.55975 0.66313 1.01556 0.0
O225 O 0.58792 0.63215 1.06937 0.0
O226 O 0.56069 0.69179 0.17567 0.0
O227 O 0.49569 0.66247 0.15226 0.0
C228 C 0.52564 0.69265 0.18447 0.0
C229 C 0.45899 0.54078 0.16255 0.0
O230 O 0.41759 0.59407 0.08811 0.0
O231 O 0.47805 0.60292 1.0297 0.0
O232 O 0.37895 0.58395 0.22774 0.0
O233 O 0.43045 0.63424 0.28225 0.0
O234 O 0.43292 0.53684 0.21212 0.0
O235 O 0.47101 0.57458 0.13085 0.0
O236 O 0.54343 0.6019 0.21116 0.0
O237 O 0.49067 0.60195 0.27966 0.0
C238 C 0.43667 0.59245 1.02995 0.0
C239 C 0.52424 0.5959 0.2724 0.0
C240 C 0.43127 0.17533 0.23242 0.0
C241 C 0.42465 0.17338 0.3037 0.0
C242 C 0.42364 0.20261 0.19198 0.0
C243 C 0.40708 0.22661 0.22175 0.0
H244 H 0.44154 0.15513 0.20758 0.0
H245 H 0.42948 0.20407 0.13704 0.0
S246 S 0.37948 0.22832 0.40504 0.0
N247 N 0.39801 0.19468 0.40203 0.0
N248 N 0.38208 0.24545 0.32532 0.0
C249 C 0.39852 0.22354 0.29257 0.0
C250 C 0.40744 0.19663 0.33389 0.0
C251 C 0.2238 0.44184 0.57201 0.0
C252 C 0.22282 0.40403 0.59105 0.0
C253 C 0.18908 0.44086 0.53905 0.0
C254 C 0.15052 0.40251 0.53147 0.0
H255 H 0.25152 0.47243 0.58198 0.0
H256 H 0.19249 0.47055 0.5202 0.0
S257 S 0.12995 0.29471 0.57948 0.0
N258 N 0.1803 0.32685 0.60088 0.0
N259 N 0.11257 0.32565 0.54729 0.0
C260 C 0.14829 0.36444 0.55312 0.0
C261 C 0.18489 0.36509 0.58186 0.0
C262 C 0.7422 0.21507 0.95087 0.0
C263 C 0.77753 0.23491 0.90726 0.0
C264 C 0.70689 0.17648 0.93168 0.0
C265 C 0.7056 0.15776 0.86751 0.0
H266 H 0.74284 0.22815 1.00151 0.0
H267 H 0.68109 0.16065 0.96815 0.0
S268 S 0.7895 0.20026 0.73322 0.0
N269 N 0.80927 0.23508 0.79712 0.0
N270 N 0.74175 0.16333 0.75881 0.0
C271 C 0.74019 0.17857 0.82226 0.0
C272 C 0.77651 0.21719 0.8427 0.0
C273 C 0.48251 0.72369 0.22977 0.0
C274 C 0.52263 0.7275 0.21821 0.0
C275 C 0.47864 0.75523 0.26534 0.0
C276 C 0.51478 0.79392 0.28289 0.0
H277 H 0.45379 0.69623 0.21116 0.0
H278 H 0.44717 0.74928 0.2782 0.0
S279 S 0.62767 0.82074 0.26163 0.0
N280 N 0.59953 0.7722 0.22946 0.0
N281 N 0.59244 0.8343 0.2874 0.0
C282 C 0.55533 0.7987 0.27018 0.0
C283 C 0.55921 0.76509 0.23897 0.0
C284 C 0.71629 0.49436 0.62349 0.0
C285 C 0.70162 0.51874 0.58877 0.0
C286 C 0.75281 0.49394 0.60086 0.0
C287 C 0.77424 0.51646 0.54177 0.0
H288 H 0.70092 0.47754 0.67034 0.0
H289 H 0.76553 0.47778 0.63147 0.0
S290 S 0.74614 0.58185 0.42992 0.0
N291 N 0.70978 0.5643 0.4913 0.0
N292 N 0.77763 0.56192 0.44714 0.0
C293 C 0.75887 0.53946 0.50516 0.0
C294 C 0.72245 0.5408 0.52898 0.0
C295 C 0.17989 0.79206 0.91902 0.0
C296 C 0.21998 0.79793 0.90032 0.0
C297 C 0.14592 0.75128 0.93244 0.0
C298 C 0.15142 0.7153 0.93006 0.0
H299 H 0.17452 0.81899 0.92253 0.0
H300 H 0.11541 0.74816 0.94608 0.0
S301 S 0.25044 0.71421 0.88391 0.0
N302 N 0.26244 0.76425 0.87498 0.0
N303 N 0.20061 0.68908 0.9106 0.0
C304 C 0.19164 0.72121 0.91297 0.0
C305 C 0.22542 0.76216 0.8953 0.0
C306 C 0.6271 0.22407 1.06395 0.0
C307 C 0.59557 0.21195 1.01278 0.0
C308 C 0.61965 0.23391 0.13057 0.0
C309 C 0.58051 0.23152 0.14679 0.0
H310 H 0.65456 0.21999 1.05558 0.0
H311 H 0.6416 0.23682 0.17126 0.0
S312 S 0.49755 0.22027 1.02216 0.0
N313 N 0.53097 0.21152 0.97621 0.0
N314 N 0.51759 0.23146 0.10107 0.0
C315 C 0.55377 0.22921 0.09218 0.0
C316 C 0.56096 0.21848 1.02484 0.0
C317 C 0.32624 0.56309 0.34646 0.0
C318 C 0.36252 0.60346 0.3395 0.0
C319 C 0.31523 0.54359 0.41104 0.0
C320 C 0.34011 0.56432 0.46954 0.0
H321 H 0.31029 0.544 0.30133 0.0
H322 H 0.29051 0.51044 0.41343 0.0
S323 S 0.42546 0.6771 0.48104 0.0
N324 N 0.41348 0.66874 0.39811 0.0
N325 N 0.39316 0.63175 0.51987 0.0
C326 C 0.37033 0.60772 0.46502 0.0
C327 C 0.38121 0.62766 0.39938 0.0
C328 C 0.72434 0.3728 0.77352 0.0
C329 C 0.72967 0.33861 0.79467 0.0
C330 C 0.72405 0.38135 0.70335 0.0
C331 C 0.7308 0.35672 0.65407 0.0
H332 H 0.72698 0.39649 0.81061 0.0
H333 H 0.7261 0.41126 0.6891 0.0
S334 S 0.72513 0.25298 0.68339 0.0
N335 N 0.72422 0.27099 0.7614 0.0
N336 N 0.72719 0.28917 0.62915 0.0
C337 C 0.72603 0.31744 0.6742 0.0
C338 C 0.72451 0.30776 0.74545 0.0
C339 C 0.29849 0.75859 0.09603 0.0
C340 C 0.32662 0.76396 1.04195 0.0
C341 C 0.3052 0.74707 0.16164 0.0
C342 C 0.34059 0.74165 0.17367 0.0
H343 H 0.27506 0.76888 0.09041 0.0
H344 H 0.28769 0.75021 0.20444 0.0
S345 S 0.40743 0.72928 1.04134 0.0
N346 N 0.3794 0.74665 0.9985 0.0
N347 N 0.39112 0.7237 0.12211 0.0
C348 C 0.36063 0.73522 0.11647 0.0
C349 C 0.35446 0.74771 1.04995 0.0
C350 C 0.60327 0.36486 0.3417 0.0
C351 C 0.56453 0.32681 0.33117 0.0
C352 C 0.61502 0.38271 0.40774 0.0
C353 C 0.58835 0.36261 0.46425 0.0
H354 H 0.62119 0.38404 0.29814 0.0
H355 H 0.64172 0.41481 0.4126 0.0
S356 S 0.49578 0.25336 0.46728 0.0
N357 N 0.50867 0.26266 0.38494 0.0
N358 N 0.53052 0.29662 0.50935 0.0
C359 C 0.55512 0.32053 0.45623 0.0
C360 C 0.54339 0.30223 0.38913 0.0
C361 C 0.18953 0.5368 0.79335 0.0
C362 C 0.1885 0.57428 0.80748 0.0
C363 C 0.19414 0.52663 0.7257 0.0
C364 C 0.19549 0.55287 0.67116 0.0
H365 H 0.1818 0.5131 0.83318 0.0
H366 H 0.18972 0.49517 0.71558 0.0
S367 S 0.20795 0.66059 0.68518 0.0
N368 N 0.20073 0.64272 0.76507 0.0
N369 N 0.20803 0.62284 0.63708 0.0
C370 C 0.20283 0.59391 0.68625 0.0
C371 C 0.19914 0.6047 0.75529 0.0
C372 C 0.39611 0.01661 1.03966 0.0
C373 C 0.37129 0.9718 1.04754 0.0
C374 C 0.41618 0.04467 0.09686 0.0
C375 C 0.41176 0.02963 0.16547 0.0
H376 H 0.40114 0.03014 0.98847 0.0
H377 H 0.4352 0.07852 0.0871 0.0
S378 S 0.34862 0.91505 0.21481 0.0
N379 N 0.34345 0.91425 0.13019 0.0
N380 N 0.3788 0.96565 0.23624 0.0
C381 C 0.3862 -0.01518 0.17365 0.0
C382 C 0.36676 0.95645 0.11548 0.0
C383 C 0.37867 0.38692 0.35352 0.0
C384 C 0.40214 0.36498 0.35686 0.0
C385 C 0.36746 0.40223 0.41319 0.0
C386 C 0.37777 0.39564 0.48085 0.0
H387 H 0.36916 0.39303 0.30372 0.0
H388 H 0.34977 0.41895 0.40602 0.0
S389 S 0.43985 0.34106 0.52072 0.0
N390 N 0.43657 0.33905 0.43563 0.0
N391 N 0.41406 0.36574 0.54668 0.0
C392 C 0.40115 0.37363 0.48534 0.0
C393 C 0.41367 0.35903 0.42415 0.0
C394 C 0.94718 0.37458 0.64588 0.0
C395 C -0.00794 0.40084 0.65228 0.0
C396 C 0.91941 0.36201 0.7041 0.0
C397 C 0.93503 0.37401 0.77228 0.0
H398 H 0.93317 0.36396 0.59519 0.0
H399 H 0.88544 0.34205 0.69564 0.0
S400 S 0.04925 0.44375 0.81893 0.0
N401 N 0.04991 0.43937 0.73426 0.0
N402 N -0.00126 0.41515 0.84155 0.0
C403 C -0.02032 0.4003 0.77925 0.0
C404 C 0.00774 0.4138 0.72023 0.0
C405 C 0.50443 0.92907 0.09241 0.0
C406 C 0.52251 0.94381 0.15873 0.0
C407 C 0.51814 0.95585 1.03313 0.0
C408 C 0.54975 -0.00055 1.03673 0.0
H409 H 0.47932 0.89635 0.08592 0.0
H410 H 0.5032 0.94232 0.98395 0.0
S411 S 0.60935 0.0547 0.19554 0.0
N412 N 0.57658 0.00563 0.22157 0.0
N413 N 0.59945 0.05556 0.11256 0.0
C414 C 0.56803 0.01469 0.10231 0.0
C415 C 0.55528 -0.01284 0.16219 0.0
C416 C 0.57414 0.54036 0.38287 0.0
C417 C 0.56321 0.54376 0.45182 0.0
C418 C 0.56262 0.55795 0.326 0.0
C419 C 0.53864 0.57923 0.33429 0.0
H420 H 0.59236 0.5245 0.37266 0.0
H421 H 0.57209 0.55416 0.27471 0.0
S422 S 0.49916 0.59444 0.50335 0.0
N423 N 0.52538 0.56927 0.52359 0.0
N424 N 0.50335 0.60074 0.41892 0.0
C425 C 0.52687 0.58195 0.40294 0.0
C426 C 0.53919 0.5648 0.46063 0.0
C427 C 0.94712 0.54087 0.81302 0.0
C428 C -0.00792 0.56001 0.80661 0.0
C429 C 0.9191 0.52704 0.75455 0.0
C430 C 0.93444 0.53265 0.68603 0.0
H431 H 0.93322 0.53585 0.86392 0.0
H432 H 0.88509 0.51234 0.76319 0.0
S433 S 0.04885 0.57924 0.63906 0.0
N434 N 0.04974 0.58195 0.72409 0.0
N435 N -0.00182 0.55769 0.61649 0.0
C436 C -0.02079 0.55165 0.67906 0.0
C437 C 0.00754 0.56477 0.73829 0.0
C438 C 0.50401 0.02119 0.27134 0.0
C439 C 0.52089 0.04254 0.334 0.0
C440 C 0.47376 -0.02171 0.2708 0.0
C441 C 0.4625 0.95526 0.33229 0.0
H442 H 0.51001 0.03887 0.22364 0.0
H443 H 0.45977 0.96306 0.22198 0.0
S444 S 0.50211 -0.004 0.50844 0.0
N445 N 0.52677 0.03786 0.45775 0.0
N446 N 0.47213 0.95564 0.45674 0.0
C447 C 0.48173 0.97559 0.39461 0.0
C448 C 0.51142 0.01957 0.3952 0.0
C449 C 0.47901 0.5211 0.7403 0.0
C450 C 0.43744 0.48886 0.75227 0.0
C451 C 0.50552 0.50938 0.70674 0.0
C452 C 0.49366 0.46603 0.70036 0.0
H453 H 0.48629 0.55397 0.7362 0.0
H454 H 0.53261 0.53376 0.67976 0.0
S455 S 0.40751 0.37824 0.79756 0.0
N456 N 0.39792 0.41846 0.80423 0.0
N457 N 0.45069 0.3954 0.7496 0.0
C458 C 0.45953 0.4361 0.73908 0.0
C459 C 0.43159 0.44849 0.76846 0.0
C460 C 0.96644 0.42668 1.02375 0.0
C461 C 0.93558 0.43973 1.02713 0.0
C462 C 0.00647 0.45134 1.05265 0.0
C463 C 0.0175 0.49224 1.07436 0.0
H464 H 0.96167 0.40002 0.99242 0.0
H465 H 0.03089 0.44316 1.04056 0.0
S466 S 0.94231 0.52615 0.13717 0.0
N467 N 0.91313 0.48413 0.08799 0.0
N468 N -0.00862 0.53349 0.13588 0.0
C469 C -0.01517 0.49982 0.09613 0.0
C470 C 0.94306 0.4736 1.07034 0.0
C471 C 0.01201 0.52695 0.42593 0.0
C472 C 0.02189 0.49661 0.40166 0.0
C473 C -0.0296 0.51348 0.44516 0.0
C474 C 0.93823 0.47101 0.43379 0.0
H475 H 0.0368 0.55761 0.44485 0.0
H476 H 0.96492 0.53501 0.47633 0.0
S477 S 0.9464 0.39339 0.32061 0.0
N478 N -0.00389 0.43211 0.33226 0.0
N479 N 0.91622 0.40694 0.36581 0.0
C480 C 0.94653 0.44527 0.39053 0.0
C481 C -0.01075 0.45881 0.37265 0.0
C482 C 0.46349 0.96495 0.75394 0.0
C483 C 0.43034 0.96333 0.79369 0.0
C484 C 0.49386 0.00389 0.72624 0.0
C485 C 0.49314 0.04091 0.74576 0.0
H486 H 0.46795 0.93751 0.74924 0.0
H487 H 0.52197 0.00636 0.70235 0.0
S488 S 0.40353 0.04982 0.81376 0.0
N489 N 0.39123 -0.00014 0.82616 0.0
N490 N 0.44843 0.07145 0.77 0.0
C491 C 0.45417 0.03715 0.76269 0.0
C492 C 0.42349 -0.00145 0.79283 0.0
C493 C 0.42848 0.46571 0.13801 0.0
C494 C 0.46352 0.50653 0.135 0.0
C495 C 0.43449 0.43116 0.13018 0.0
C496 C 0.47594 0.43736 0.12326 0.0
H497 H 0.3971 0.46044 0.15161 0.0
H498 H 0.40738 0.4 0.13869 0.0
S499 S 0.57416 0.53758 0.08537 0.0
N500 N 0.53761 0.5513 0.10145 0.0
N501 N 0.54961 0.48526 0.09266 0.0
C502 C 0.50959 0.4774 0.10769 0.0
C503 C 0.50313 0.51269 0.11282 0.0
C504 C 0.30038 0.94971 0.60057 0.0
C505 C 0.30059 0.97215 0.66025 0.0
C506 C 0.32564 0.97116 0.54396 0.0
C507 C 0.35086 0.01562 0.54483 0.0
H508 H 0.28417 0.9152 0.60003 0.0
H509 H 0.32724 0.95268 0.50115 0.0
S510 S 0.35267 0.08921 0.68062 0.0
N511 N 0.32102 0.04107 0.71133 0.0
N512 N 0.36788 0.08188 0.604 0.0
C513 C 0.34679 0.03862 0.60025 0.0
C514 C 0.32143 0.01668 0.65818 0.0
C515 C 0.28679 0.32357 0.97877 0.0
C516 C 0.3048 0.29705 0.98304 0.0
C517 C 0.27639 0.33349 0.91473 0.0
C518 C 0.28479 0.31788 0.85367 0.0
H519 H 0.28471 0.34004 1.02409 0.0
H520 H 0.2665 0.35733 0.913 0.0
S521 S 0.31928 0.23736 0.83934 0.0
N522 N 0.32037 0.24695 0.92283 0.0
N523 N 0.30258 0.2675 0.80187 0.0
C524 C 0.29662 0.28651 0.85802 0.0
C525 C 0.30622 0.27553 0.92331 0.0
C526 C -0.01005 0.31748 0.15064 0.0
C527 C 0.94531 0.29693 0.14776 0.0
C528 C 0.01115 0.32822 0.21404 0.0
C529 C -0.01181 0.31933 0.27602 0.0
H530 H 0.00863 0.32884 0.10394 0.0
H531 H 0.04562 0.34739 0.21397 0.0
S532 S 0.87104 0.25616 0.29603 0.0
N533 N 0.87878 0.25992 0.21187 0.0
N534 N 0.91902 0.28138 0.33137 0.0
C535 C 0.94375 0.29369 0.27399 0.0
C536 C 0.9221 0.2821 0.20941 0.0
C537 C 0.62447 -0.0036 0.6293 0.0
C538 C 0.61158 0.96698 0.68367 0.0
C539 C 0.61513 -0.01754 0.56105 0.0
C540 C 0.59346 0.93881 0.54575 0.0
H541 H 0.63727 0.03006 0.63995 0.0
H542 H 0.62132 0.0057 0.52106 0.0
S543 S 0.56367 0.85026 0.66962 0.0
N544 N 0.58311 0.89355 0.71822 0.0
N545 N 0.56773 0.86677 0.5892 0.0
C546 C 0.58624 0.90955 0.59916 0.0
C547 C 0.59464 0.92383 0.66878 0.0
C548 C 0.59695 0.6593 0.88735 0.0
C549 C 0.6119 0.65312 0.95095 0.0
C550 C 0.60564 0.64472 0.82595 0.0
C551 C 0.62982 0.62396 0.82651 0.0
H552 H 0.5751 0.67172 0.88547 0.0
H553 H 0.59033 0.64651 0.77892 0.0
S554 S 0.68555 0.61058 0.97737 0.0
N555 N 0.65871 0.63271 1.00931 0.0
N556 N 0.67565 0.60574 0.89366 0.0
C557 C 0.64965 0.62288 0.88844 0.0
C558 C 0.64053 0.63745 0.95097 0.0
C559 C 0.01794 0.64884 0.24632 0.0
C560 C -0.00423 0.63992 0.18318 0.0
C561 C -0.00398 0.63852 0.30889 0.0
C562 C 0.95141 0.61954 0.31009 0.0
H563 H 0.0519 0.66007 0.2475 0.0
H564 H 0.01375 0.64208 0.35598 0.0
S565 S 0.88029 0.60019 0.15942 0.0
N566 N 0.92822 0.61866 0.12586 0.0
N567 N 0.8868 0.59999 0.24372 0.0
C568 C 0.92966 0.61591 0.24782 0.0
C569 C 0.95198 0.62596 0.18405 0.0
C570 C 0.58529 0.12954 0.52703 0.0
C571 C 0.55934 0.14858 0.52562 0.0
C572 C 0.60239 0.12393 0.58932 0.0
C573 C 0.59543 0.13824 0.65322 0.0
H574 H 0.5902 0.11633 0.48005 0.0
H575 H 0.61948 0.10633 0.58779 0.0
S576 S 0.53318 0.19419 0.67681 0.0
N577 N 0.52951 0.18389 0.59324 0.0
N578 N 0.56342 0.17593 0.70922 0.0
C579 C 0.57238 0.16052 0.65153 0.0
C580 C 0.55391 0.16501 0.58822 0.0
C581 C 0.3926 0.56121 0.84365 0.0
C582 C 0.36157 0.5175 0.84886 0.0
C583 C 0.41625 0.58566 0.90186 0.0
C584 C 0.40909 0.56806 0.96869 0.0
H585 H 0.40034 0.57622 0.79348 0.0
H586 H 0.44075 0.61848 0.89427 0.0
S587 S 0.33211 0.45544 1.01162 0.0
N588 N 0.32609 0.45798 0.9276 0.0
N589 N 0.36856 0.50388 1.03597 0.0
C590 C 0.3775 0.52482 0.97485 0.0
C591 C 0.35435 0.49968 0.91553 0.0
C592 C 0.83238 0.36502 0.22584 0.0
C593 C 0.82884 0.38185 0.16206 0.0
C594 C 0.83095 0.38359 0.28975 0.0
C595 C 0.82889 0.42164 0.29333 0.0
H596 H 0.83622 0.33711 0.22648 0.0
H597 H 0.83318 0.36883 0.33691 0.0
S598 S 0.81688 0.47784 0.14242 0.0
N599 N 0.81906 0.43709 0.10791 0.0
N600 N 0.82154 0.47432 0.22659 0.0
C601 C 0.82501 0.4386 0.23012 0.0
C602 C 0.82376 0.41824 0.16522 0.0
C603 C 0.36285 0.8442 0.54094 0.0
C604 C 0.3979 0.83684 0.54006 0.0
C605 C 0.3461 0.85033 0.60362 0.0
C606 C 0.36268 0.84808 0.66868 0.0
H607 H 0.3496 0.84742 0.49262 0.0
H608 H 0.32016 0.85727 0.60103 0.0
S609 S 0.45462 0.8302 0.69549 0.0
N610 N 0.44905 0.82893 0.61081 0.0
N611 N 0.41658 0.83799 0.72716 0.0
C612 C 0.39701 0.83974 0.66831 0.0
C613 C 0.41482 0.83484 0.6047 0.0
C614 C 0.52445 0.43186 0.87547 0.0
C615 C 0.5492 0.41986 0.83438 0.0
C616 C 0.50276 0.40923 0.93545 0.0
C617 C 0.5053 0.37374 0.96023 0.0
H618 H 0.52085 0.45877 0.86042 0.0
H619 H 0.48407 0.42025 0.9634 0.0
S620 S 0.56677 0.32901 0.87496 0.0
N621 N 0.57468 0.36909 0.82445 0.0
N622 N 0.53599 0.3283 0.93852 0.0
C623 C 0.5307 0.36175 0.92094 0.0
C624 C 0.55189 0.38415 0.8581 0.0
C625 C 0.12575 0.50648 0.22258 0.0
C626 C 0.1288 0.52184 0.29026 0.0
C627 C 0.12694 0.53082 0.16488 0.0
C628 C 0.12877 0.57066 0.17212 0.0
H629 H 0.12129 0.47487 0.21413 0.0
H630 H 0.12386 0.51692 0.11431 0.0
S631 S 0.13906 0.6264 0.33758 0.0
N632 N 0.13758 0.58165 0.36041 0.0
N633 N 0.13524 0.62491 0.25261 0.0
C634 C 0.13273 0.5868 0.23927 0.0
C635 C 0.13387 0.56306 0.29797 0.0
loop_
_geom_bond_atom_site_label_1
_geom_bond_atom_site_label_2
_geom_bond_distance
_geom_bond_site_symmetry_2
_ccdc_geom_bond_type
Dy0 O4 2.398 . S
Dy0 O5 2.491 . S
Dy0 O6 2.403 . S
Dy0 O7 2.664 . S
Dy0 O11 2.326 . S
Dy0 O15 2.310 . S
Dy0 O16 2.351 . S
C1 O12 1.185 . S
C1 O13 1.355 . S
C2 O4 1.185 . S
C2 O5 1.355 . S
Dy3 O7 2.310 . S
Dy3 O10 2.351 . S
Dy3 O12 2.398 . S
Dy3 O13 2.491 . S
Dy3 O14 2.403 . S
Dy3 O15 2.664 . S
Dy3 O17 2.326 . S
O4 Dy0 2.398 . S
O4 C2 1.185 . S
O5 Dy0 2.491 . S
O5 C2 1.355 . S
O6 Dy0 2.403 . S
O6 C8 1.254 . S
O7 Dy0 2.664 . S
O7 Dy3 2.310 . S
O7 C8 1.268 . S
C8 O6 1.254 . S
C8 O7 1.268 . S
C9 O14 1.254 . S
C9 O15 1.268 . S
O10 Dy3 2.351 . S
O10 C18 1.249 . S
O11 Dy0 2.326 . S
O11 C18 1.267 . S
O12 C1 1.185 . S
O12 Dy3 2.398 . S
O13 C1 1.355 . S
O13 Dy3 2.491 . S
O14 Dy3 2.403 . S
O14 C9 1.254 . S
O15 Dy0 2.310 . S
O15 Dy3 2.664 . S
O15 C9 1.268 . S
O16 Dy0 2.351 . S
O16 C19 1.249 . S
O17 Dy3 2.326 . S
O17 C19 1.267 . S
C18 O10 1.249 . S
C18 O11 1.267 . S
C19 O16 1.249 . S
C19 O17 1.267 . S
Dy20 O24 2.398 . S
Dy20 O25 2.491 . S
Dy20 O26 2.403 . S
Dy20 O27 2.664 . S
Dy20 O31 2.326 . S
Dy20 O35 2.310 . S
Dy20 O36 2.351 . S
C21 O32 1.185 . S
C21 O33 1.355 . S
C22 O24 1.185 . S
C22 O25 1.355 . S
Dy23 O27 2.310 . S
Dy23 O30 2.351 . S
Dy23 O32 2.398 . S
Dy23 O33 2.491 . S
Dy23 O34 2.403 . S
Dy23 O35 2.664 . S
Dy23 O37 2.326 . S
O24 Dy20 2.398 . S
O24 C22 1.185 . S
O25 Dy20 2.491 . S
O25 C22 1.355 . S
O26 Dy20 2.403 . S
O26 C28 1.254 . S
O27 Dy20 2.664 . S
O27 Dy23 2.310 . S
O27 C28 1.268 . S
C28 O26 1.254 . S
C28 O27 1.268 . S
C29 O34 1.254 . S
C29 O35 1.268 . S
O30 Dy23 2.351 . S
O30 C38 1.249 . S
O31 Dy20 2.326 . S
O31 C38 1.267 . S
O32 C21 1.185 . S
O32 Dy23 2.398 . S
O33 C21 1.355 . S
O33 Dy23 2.491 . S
O34 Dy23 2.403 . S
O34 C29 1.254 . S
O35 Dy20 2.310 . S
O35 Dy23 2.664 . S
O35 C29 1.268 . S
O36 Dy20 2.351 . S
O36 C39 1.249 . S
O37 Dy23 2.326 . S
O37 C39 1.267 . S
C38 O30 1.249 . S
C38 O31 1.267 . S
C39 O36 1.249 . S
C39 O37 1.267 . S
Dy40 O44 2.398 1_556 S
Dy40 O45 2.491 1_556 S
Dy40 O46 2.403 . S
Dy40 O47 2.664 . S
Dy40 O51 2.326 1_556 S
Dy40 O55 2.310 . S
Dy40 O56 2.351 . S
C41 O52 1.185 . S
C41 O53 1.355 . S
C42 O44 1.185 . S
C42 O45 1.355 . S
Dy43 O47 2.310 . S
Dy43 O50 2.351 . S
Dy43 O52 2.398 . S
Dy43 O53 2.491 . S
Dy43 O54 2.403 . S
Dy43 O55 2.664 . S
Dy43 O57 2.326 . S
O44 Dy40 2.398 1_554 S
O44 C42 1.185 . S
O45 Dy40 2.491 1_554 S
O45 C42 1.355 . S
O46 Dy40 2.403 . S
O46 C48 1.254 . S
O47 Dy40 2.664 . S
O47 Dy43 2.310 . S
O47 C48 1.268 . S
C48 O46 1.254 . S
C48 O47 1.268 . S
C49 O54 1.254 . S
C49 O55 1.268 . S
O50 Dy43 2.351 . S
O50 C58 1.249 1_556 S
O51 Dy40 2.326 1_554 S
O51 C58 1.267 . S
O52 C41 1.185 . S
O52 Dy43 2.398 . S
O53 C41 1.355 . S
O53 Dy43 2.491 . S
O54 Dy43 2.403 . S
O54 C49 1.254 . S
O55 Dy40 2.310 . S
O55 Dy43 2.664 . S
O55 C49 1.268 . S
O56 Dy40 2.351 . S
O56 C59 1.249 . S
O57 Dy43 2.326 . S
O57 C59 1.267 . S
C58 O50 1.249 1_554 S
C58 O51 1.267 . S
C59 O56 1.249 . S
C59 O57 1.267 . S
Dy60 O64 2.398 . S
Dy60 O65 2.491 . S
Dy60 O66 2.403 . S
Dy60 O67 2.664 . S
Dy60 O71 2.326 . S
Dy60 O75 2.310 . S
Dy60 O76 2.351 . S
C61 O72 1.185 . S
C61 O73 1.355 . S
C62 O64 1.185 . S
C62 O65 1.355 . S
Dy63 O67 2.310 . S
Dy63 O70 2.351 . S
Dy63 O72 2.398 . S
Dy63 O73 2.491 . S
Dy63 O74 2.403 . S
Dy63 O75 2.664 . S
Dy63 O77 2.326 . S
O64 Dy60 2.398 . S
O64 C62 1.185 . S
O65 Dy60 2.491 . S
O65 C62 1.355 . S
O66 Dy60 2.403 . S
O66 C68 1.254 . S
O67 Dy60 2.664 . S
O67 Dy63 2.310 . S
O67 C68 1.268 . S
C68 O66 1.254 . S
C68 O67 1.268 . S
C69 O74 1.254 . S
C69 O75 1.268 . S
O70 Dy63 2.351 . S
O70 C78 1.249 . S
O71 Dy60 2.326 . S
O71 C78 1.267 . S
O72 C61 1.185 . S
O72 Dy63 2.398 . S
O73 C61 1.355 . S
O73 Dy63 2.491 . S
O74 Dy63 2.403 . S
O74 C69 1.254 . S
O75 Dy60 2.310 . S
O75 Dy63 2.664 . S
O75 C69 1.268 . S
O76 Dy60 2.351 . S
O76 C79 1.249 . S
O77 Dy63 2.326 . S
O77 C79 1.267 . S
C78 O70 1.249 . S
C78 O71 1.267 . S
C79 O76 1.249 . S
C79 O77 1.267 . S
Dy80 O84 2.398 . S
Dy80 O85 2.491 . S
Dy80 O86 2.403 . S
Dy80 O87 2.664 . S
Dy80 O91 2.326 . S
Dy80 O95 2.310 . S
Dy80 O96 2.351 . S
C81 O92 1.185 . S
C81 O93 1.355 . S
C82 O84 1.185 . S
C82 O85 1.355 . S
Dy83 O87 2.310 . S
Dy83 O90 2.351 . S
Dy83 O92 2.398 . S
Dy83 O93 2.491 . S
Dy83 O94 2.403 . S
Dy83 O95 2.664 . S
Dy83 O97 2.326 . S
O84 Dy80 2.398 . S
O84 C82 1.185 . S
O85 Dy80 2.491 . S
O85 C82 1.355 . S
O86 Dy80 2.403 . S
O86 C88 1.254 . S
O87 Dy80 2.664 . S
O87 Dy83 2.310 . S
O87 C88 1.268 . S
C88 O86 1.254 . S
C88 O87 1.268 . S
C89 O94 1.254 . S
C89 O95 1.268 . S
O90 Dy83 2.351 . S
O90 C98 1.249 . S
O91 Dy80 2.326 . S
O91 C98 1.267 . S
O92 C81 1.185 . S
O92 Dy83 2.398 . S
O93 C81 1.355 . S
O93 Dy83 2.491 . S
O94 Dy83 2.403 . S
O94 C89 1.254 . S
O95 Dy80 2.310 . S
O95 Dy83 2.664 . S
O95 C89 1.268 . S
O96 Dy80 2.351 . S
O96 C99 1.249 . S
O97 Dy83 2.326 . S
O97 C99 1.267 . S
C98 O90 1.249 . S
C98 O91 1.267 . S
C99 O96 1.249 . S
C99 O97 1.267 . S
Dy100 O104 2.398 1_556 S
Dy100 O105 2.491 1_556 S
Dy100 O106 2.403 . S
Dy100 O107 2.664 . S
Dy100 O111 2.326 1_556 S
Dy100 O115 2.310 . S
Dy100 O116 2.351 . S
C101 O112 1.185 . S
C101 O113 1.355 . S
C102 O104 1.185 . S
C102 O105 1.355 . S
Dy103 O107 2.310 . S
Dy103 O110 2.351 . S
Dy103 O112 2.398 . S
Dy103 O113 2.491 . S
Dy103 O114 2.403 . S
Dy103 O115 2.664 . S
Dy103 O117 2.326 . S
O104 Dy100 2.398 1_554 S
O104 C102 1.185 . S
O105 Dy100 2.491 1_554 S
O105 C102 1.355 . S
O106 Dy100 2.403 . S
O106 C108 1.254 . S
O107 Dy100 2.664 . S
O107 Dy103 2.310 . S
O107 C108 1.268 . S
C108 O106 1.254 . S
C108 O107 1.268 . S
C109 O114 1.254 . S
C109 O115 1.268 . S
O110 Dy103 2.351 . S
O110 C118 1.249 1_556 S
O111 Dy100 2.326 1_554 S
O111 C118 1.267 . S
O112 C101 1.185 . S
O112 Dy103 2.398 . S
O113 C101 1.355 . S
O113 Dy103 2.491 . S
O114 Dy103 2.403 . S
O114 C109 1.254 . S
O115 Dy100 2.310 . S
O115 Dy103 2.664 . S
O115 C109 1.268 . S
O116 Dy100 2.351 . S
O116 C119 1.249 . S
O117 Dy103 2.326 . S
O117 C119 1.267 . S
C118 O110 1.249 1_554 S
C118 O111 1.267 . S
C119 O116 1.249 . S
C119 O117 1.267 . S
Dy120 O124 2.398 . S
Dy120 O125 2.491 . S
Dy120 O126 2.403 . S
Dy120 O127 2.664 . S
Dy120 O131 2.326 . S
Dy120 O135 2.310 . S
Dy120 O136 2.351 . S
C121 O132 1.185 . S
C121 O133 1.355 . S
C122 O124 1.185 . S
C122 O125 1.355 . S
Dy123 O127 2.310 . S
Dy123 O130 2.351 . S
Dy123 O132 2.398 . S
Dy123 O133 2.491 . S
Dy123 O134 2.403 . S
Dy123 O135 2.664 . S
Dy123 O137 2.326 . S
O124 Dy120 2.398 . S
O124 C122 1.185 . S
O125 Dy120 2.491 . S
O125 C122 1.355 . S
O126 Dy120 2.403 . S
O126 C128 1.254 . S
O127 Dy120 2.664 . S
O127 Dy123 2.310 . S
O127 C128 1.268 . S
C128 O126 1.254 . S
C128 O127 1.268 . S
C129 O134 1.254 . S
C129 O135 1.268 . S
O130 Dy123 2.351 . S
O130 C138 1.249 . S
O131 Dy120 2.326 . S
O131 C138 1.267 . S
O132 C121 1.185 . S
O132 Dy123 2.398 . S
O133 C121 1.355 . S
O133 Dy123 2.491 . S
O134 Dy123 2.403 . S
O134 C129 1.254 . S
O135 Dy120 2.310 . S
O135 Dy123 2.664 . S
O135 C129 1.268 . S
O136 Dy120 2.351 . S
O136 C139 1.249 . S
O137 Dy123 2.326 . S
O137 C139 1.267 . S
C138 O130 1.249 . S
C138 O131 1.267 . S
C139 O136 1.249 . S
C139 O137 1.267 . S
Dy140 O144 2.398 . S
Dy140 O145 2.491 . S
Dy140 O146 2.403 . S
Dy140 O147 2.664 . S
Dy140 O151 2.326 . S
Dy140 O155 2.310 . S
Dy140 O156 2.351 . S
C141 O152 1.185 . S
C141 O153 1.355 . S
C142 O144 1.185 . S
C142 O145 1.355 . S
Dy143 O147 2.310 . S
Dy143 O150 2.351 . S
Dy143 O152 2.398 . S
Dy143 O153 2.491 . S
Dy143 O154 2.403 . S
Dy143 O155 2.664 . S
Dy143 O157 2.326 . S
O144 Dy140 2.398 . S
O144 C142 1.185 . S
O145 Dy140 2.491 . S
O145 C142 1.355 . S
O146 Dy140 2.403 . S
O146 C148 1.254 . S
O147 Dy140 2.664 . S
O147 Dy143 2.310 . S
O147 C148 1.268 . S
C148 O146 1.254 . S
C148 O147 1.268 . S
C149 O154 1.254 . S
C149 O155 1.268 . S
O150 Dy143 2.351 . S
O150 C158 1.249 . S
O151 Dy140 2.326 . S
O151 C158 1.267 . S
O152 C141 1.185 . S
O152 Dy143 2.398 . S
O153 C141 1.355 . S
O153 Dy143 2.491 . S
O154 Dy143 2.403 . S
O154 C149 1.254 . S
O155 Dy140 2.310 . S
O155 Dy143 2.664 . S
O155 C149 1.268 . S
O156 Dy140 2.351 . S
O156 C159 1.249 . S
O157 Dy143 2.326 . S
O157 C159 1.267 . S
C158 O150 1.249 . S
C158 O151 1.267 . S
C159 O156 1.249 . S
C159 O157 1.267 . S
Dy160 O164 2.398 1_554 S
Dy160 O165 2.491 1_554 S
Dy160 O166 2.403 . S
Dy160 O167 2.664 . S
Dy160 O171 2.326 1_554 S
Dy160 O175 2.310 . S
Dy160 O176 2.351 . S
C161 O172 1.185 . S
C161 O173 1.355 . S
C162 O164 1.185 . S
C162 O165 1.355 . S
Dy163 O167 2.310 . S
Dy163 O170 2.351 . S
Dy163 O172 2.398 . S
Dy163 O173 2.491 . S
Dy163 O174 2.403 . S
Dy163 O175 2.664 . S
Dy163 O177 2.326 . S
O164 Dy160 2.398 1_556 S
O164 C162 1.185 . S
O165 Dy160 2.491 1_556 S
O165 C162 1.355 . S
O166 Dy160 2.403 . S
O166 C168 1.254 . S
O167 Dy160 2.664 . S
O167 Dy163 2.310 . S
O167 C168 1.268 . S
C168 O166 1.254 . S
C168 O167 1.268 . S
C169 O174 1.254 . S
C169 O175 1.268 . S
O170 Dy163 2.351 . S
O170 C178 1.249 1_554 S
O171 Dy160 2.326 1_556 S
O171 C178 1.267 . S
O172 C161 1.185 . S
O172 Dy163 2.398 . S
O173 C161 1.355 . S
O173 Dy163 2.491 . S
O174 Dy163 2.403 . S
O174 C169 1.254 . S
O175 Dy160 2.310 . S
O175 Dy163 2.664 . S
O175 C169 1.268 . S
O176 Dy160 2.351 . S
O176 C179 1.249 . S
O177 Dy163 2.326 . S
O177 C179 1.267 . S
C178 O170 1.249 1_556 S
C178 O171 1.267 . S
C179 O176 1.249 . S
C179 O177 1.267 . S
Dy180 O184 2.398 . S
Dy180 O185 2.491 . S
Dy180 O186 2.403 . S
Dy180 O187 2.664 . S
Dy180 O191 2.326 . S
Dy180 O195 2.310 . S
Dy180 O196 2.351 . S
C181 O192 1.185 . S
C181 O193 1.355 . S
C182 O184 1.185 . S
C182 O185 1.355 . S
Dy183 O187 2.310 . S
Dy183 O190 2.351 . S
Dy183 O192 2.398 . S
Dy183 O193 2.491 . S
Dy183 O194 2.403 . S
Dy183 O195 2.664 . S
Dy183 O197 2.326 . S
O184 Dy180 2.398 . S
O184 C182 1.185 . S
O185 Dy180 2.491 . S
O185 C182 1.355 . S
O186 Dy180 2.403 . S
O186 C188 1.254 . S
O187 Dy180 2.664 . S
O187 Dy183 2.310 . S
O187 C188 1.268 . S
C188 O186 1.254 . S
C188 O187 1.268 . S
C189 O194 1.254 . S
C189 O195 1.268 . S
O190 Dy183 2.351 . S
O190 C198 1.249 . S
O191 Dy180 2.326 . S
O191 C198 1.267 . S
O192 C181 1.185 . S
O192 Dy183 2.398 . S
O193 C181 1.355 . S
O193 Dy183 2.491 . S
O194 Dy183 2.403 . S
O194 C189 1.254 . S
O195 Dy180 2.310 . S
O195 Dy183 2.664 . S
O195 C189 1.268 . S
O196 Dy180 2.351 . S
O196 C199 1.249 . S
O197 Dy183 2.326 . S
O197 C199 1.267 . S
C198 O190 1.249 . S
C198 O191 1.267 . S
C199 O196 1.249 . S
C199 O197 1.267 . S
Dy200 O204 2.398 . S
Dy200 O205 2.491 . S
Dy200 O206 2.403 . S
Dy200 O207 2.664 . S
Dy200 O211 2.326 . S
Dy200 O215 2.310 . S
Dy200 O216 2.351 . S
C201 O212 1.185 . S
C201 O213 1.355 . S
C202 O204 1.185 . S
C202 O205 1.355 . S
Dy203 O207 2.310 . S
Dy203 O210 2.351 . S
Dy203 O212 2.398 . S
Dy203 O213 2.491 . S
Dy203 O214 2.403 . S
Dy203 O215 2.664 . S
Dy203 O217 2.326 . S
O204 Dy200 2.398 . S
O204 C202 1.185 . S
O205 Dy200 2.491 . S
O205 C202 1.355 . S
O206 Dy200 2.403 . S
O206 C208 1.254 . S
O207 Dy200 2.664 . S
O207 Dy203 2.310 . S
O207 C208 1.268 . S
C208 O206 1.254 . S
C208 O207 1.268 . S
C209 O214 1.254 . S
C209 O215 1.268 . S
O210 Dy203 2.351 . S
O210 C218 1.249 . S
O211 Dy200 2.326 . S
O211 C218 1.267 . S
O212 C201 1.185 . S
O212 Dy203 2.398 . S
O213 C201 1.355 . S
O213 Dy203 2.491 . S
O214 Dy203 2.403 . S
O214 C209 1.254 . S
O215 Dy200 2.310 . S
O215 Dy203 2.664 . S
O215 C209 1.268 . S
O216 Dy200 2.351 . S
O216 C219 1.249 . S
O217 Dy203 2.326 . S
O217 C219 1.267 . S
C218 O210 1.249 . S
C218 O211 1.267 . S
C219 O216 1.249 . S
C219 O217 1.267 . S
Dy220 O224 2.398 1_554 S
Dy220 O225 2.491 1_554 S
Dy220 O226 2.403 . S
Dy220 O227 2.664 . S
Dy220 O231 2.326 1_554 S
Dy220 O235 2.310 . S
Dy220 O236 2.351 . S
C221 O232 1.185 . S
C221 O233 1.355 . S
C222 O224 1.185 . S
C222 O225 1.355 . S
Dy223 O227 2.310 . S
Dy223 O230 2.351 . S
Dy223 O232 2.398 . S
Dy223 O233 2.491 . S
Dy223 O234 2.403 . S
Dy223 O235 2.664 . S
Dy223 O237 2.326 . S
O224 Dy220 2.398 1_556 S
O224 C222 1.185 . S
O225 Dy220 2.491 1_556 S
O225 C222 1.355 . S
O226 Dy220 2.403 . S
O226 C228 1.254 . S
O227 Dy220 2.664 . S
O227 Dy223 2.310 . S
O227 C228 1.268 . S
C228 O226 1.254 . S
C228 O227 1.268 . S
C229 O234 1.254 . S
C229 O235 1.268 . S
O230 Dy223 2.351 . S
O230 C238 1.249 1_554 S
O231 Dy220 2.326 1_556 S
O231 C238 1.267 . S
O232 C221 1.185 . S
O232 Dy223 2.398 . S
O233 C221 1.355 . S
O233 Dy223 2.491 . S
O234 Dy223 2.403 . S
O234 C229 1.254 . S
O235 Dy220 2.310 . S
O235 Dy223 2.664 . S
O235 C229 1.268 . S
O236 Dy220 2.351 . S
O236 C239 1.249 . S
O237 Dy223 2.326 . S
O237 C239 1.267 . S
C238 O230 1.249 1_556 S
C238 O231 1.267 . S
C239 O236 1.249 . S
C239 O237 1.267 . S
C240 C241 1.369 . S
C240 C242 1.419 . S
C240 H244 0.930 . S
C241 C240 1.369 . S
C241 C250 1.429 . S
C242 C240 1.419 . S
C242 C243 1.363 . S
C242 H245 0.929 . S
C243 C242 1.363 . S
C243 C249 1.428 . S
H244 C240 0.930 . S
H245 C242 0.929 . S
S246 N247 1.613 . S
S246 N248 1.610 . S
N247 S246 1.613 . S
N247 C250 1.350 . S
N248 S246 1.610 . S
N248 C249 1.351 . S
C249 C243 1.428 . S
C249 N248 1.351 . S
C249 C250 1.434 . S
C250 C241 1.429 . S
C250 N247 1.350 . S
C250 C249 1.434 . S
C251 C252 1.369 . S
C251 C253 1.419 . S
C251 H255 0.930 . S
C252 C251 1.369 . S
C252 C261 1.429 . S
C253 C251 1.419 . S
C253 C254 1.363 . S
C253 H256 0.929 . S
C254 C253 1.363 . S
C254 C260 1.428 . S
H255 C251 0.930 . S
H256 C253 0.929 . S
S257 N258 1.613 . S
S257 N259 1.610 . S
N258 S257 1.613 . S
N258 C261 1.350 . S
N259 S257 1.610 . S
N259 C260 1.351 . S
C260 C254 1.428 . S
C260 N259 1.351 . S
C260 C261 1.434 . S
C261 C252 1.429 . S
C261 N258 1.350 . S
C261 C260 1.434 . S
C262 C263 1.369 . S
C262 C264 1.419 . S
C262 H266 0.930 . S
C263 C262 1.369 . S
C263 C272 1.429 . S
C264 C262 1.419 . S
C264 C265 1.363 . S
C264 H267 0.929 . S
C265 C264 1.363 . S
C265 C271 1.428 . S
H266 C262 0.930 . S
H267 C264 0.929 . S
S268 N269 1.613 . S
S268 N270 1.610 . S
N269 S268 1.613 . S
N269 C272 1.350 . S
N270 S268 1.610 . S
N270 C271 1.351 . S
C271 C265 1.428 . S
C271 N270 1.351 . S
C271 C272 1.434 . S
C272 C263 1.429 . S
C272 N269 1.350 . S
C272 C271 1.434 . S
C273 C274 1.369 . S
C273 C275 1.419 . S
C273 H277 0.930 . S
C274 C273 1.369 . S
C274 C283 1.429 . S
C275 C273 1.419 . S
C275 C276 1.363 . S
C275 H278 0.929 . S
C276 C275 1.363 . S
C276 C282 1.428 . S
H277 C273 0.930 . S
H278 C275 0.929 . S
S279 N280 1.613 . S
S279 N281 1.610 . S
N280 S279 1.613 . S
N280 C283 1.350 . S
N281 S279 1.610 . S
N281 C282 1.351 . S
C282 C276 1.428 . S
C282 N281 1.351 . S
C282 C283 1.434 . S
C283 C274 1.429 . S
C283 N280 1.350 . S
C283 C282 1.434 . S
C284 C285 1.369 . S
C284 C286 1.419 . S
C284 H288 0.930 . S
C285 C284 1.369 . S
C285 C294 1.429 . S
C286 C284 1.419 . S
C286 C287 1.363 . S
C286 H289 0.929 . S
C287 C286 1.363 . S
C287 C293 1.428 . S
H288 C284 0.930 . S
H289 C286 0.929 . S
S290 N291 1.613 . S
S290 N292 1.610 . S
N291 S290 1.613 . S
N291 C294 1.350 . S
N292 S290 1.610 . S
N292 C293 1.351 . S
C293 C287 1.428 . S
C293 N292 1.351 . S
C293 C294 1.434 . S
C294 C285 1.429 . S
C294 N291 1.350 . S
C294 C293 1.434 . S
C295 C296 1.369 . S
C295 C297 1.419 . S
C295 H299 0.930 . S
C296 C295 1.369 . S
C296 C305 1.429 . S
C297 C295 1.419 . S
C297 C298 1.363 . S
C297 H300 0.929 . S
C298 C297 1.363 . S
C298 C304 1.428 . S
H299 C295 0.930 . S
H300 C297 0.929 . S
S301 N302 1.613 . S
S301 N303 1.610 . S
N302 S301 1.613 . S
N302 C305 1.350 . S
N303 S301 1.610 . S
N303 C304 1.351 . S
C304 C298 1.428 . S
C304 N303 1.351 . S
C304 C305 1.434 . S
C305 C296 1.429 . S
C305 N302 1.350 . S
C305 C304 1.434 . S
C306 C307 1.369 1_554 S
C306 C308 1.419 . S
C306 H310 0.930 . S
C307 C306 1.369 1_556 S
C307 C316 1.429 . S
C308 C306 1.419 . S
C308 C309 1.363 . S
C308 H311 0.929 . S
C309 C308 1.363 . S
C309 C315 1.428 1_554 S
H310 C306 0.930 . S
H311 C308 0.929 . S
S312 N313 1.613 . S
S312 N314 1.610 . S
N313 S312 1.613 . S
N313 C316 1.350 . S
N314 S312 1.610 . S
N314 C315 1.351 . S
C315 C309 1.428 1_556 S
C315 N314 1.351 . S
C315 C316 1.434 . S
C316 C307 1.429 . S
C316 N313 1.350 . S
C316 C315 1.434 . S
C317 C318 1.369 . S
C317 C319 1.419 . S
C317 H321 0.930 . S
C318 C317 1.369 . S
C318 C327 1.429 . S
C319 C317 1.419 . S
C319 C320 1.363 . S
C319 H322 0.929 . S
C320 C319 1.363 . S
C320 C326 1.428 . S
H321 C317 0.930 . S
H322 C319 0.929 . S
S323 N324 1.613 . S
S323 N325 1.610 . S
N324 S323 1.613 . S
N324 C327 1.350 . S
N325 S323 1.610 . S
N325 C326 1.351 . S
C326 C320 1.428 . S
C326 N325 1.351 . S
C326 C327 1.434 . S
C327 C318 1.429 . S
C327 N324 1.350 . S
C327 C326 1.434 . S
C328 C329 1.369 . S
C328 C330 1.419 . S
C328 H332 0.930 . S
C329 C328 1.369 . S
C329 C338 1.429 . S
C330 C328 1.419 . S
C330 C331 1.363 . S
C330 H333 0.929 . S
C331 C330 1.363 . S
C331 C337 1.428 . S
H332 C328 0.930 . S
H333 C330 0.929 . S
S334 N335 1.613 . S
S334 N336 1.610 . S
N335 S334 1.613 . S
N335 C338 1.350 . S
N336 S334 1.610 . S
N336 C337 1.351 . S
C337 C331 1.428 . S
C337 N336 1.351 . S
C337 C338 1.434 . S
C338 C329 1.429 . S
C338 N335 1.350 . S
C338 C337 1.434 . S
C339 C340 1.369 . S
C339 C341 1.419 1_556 S
C339 H343 0.930 . S
C340 C339 1.369 . S
C340 C349 1.429 . S
C341 C339 1.419 1_554 S
C341 C342 1.363 . S
C341 H344 0.929 . S
C342 C341 1.363 . S
C342 C348 1.428 . S
H343 C339 0.930 . S
H344 C341 0.929 . S
S345 N346 1.613 . S
S345 N347 1.602 1_556 S
N346 S345 1.613 . S
N346 C349 1.350 . S
N347 S345 1.602 1_554 S
N347 C348 1.351 . S
C348 C342 1.428 . S
C348 N347 1.351 . S
C348 C349 1.434 1_554 S
C349 C340 1.429 . S
C349 N346 1.350 . S
C349 C348 1.434 1_556 S
C350 C351 1.369 . S
C350 C352 1.419 . S
C350 H354 0.930 . S
C351 C350 1.369 . S
C351 C360 1.429 . S
C352 C350 1.419 . S
C352 C353 1.363 . S
C352 H355 0.929 . S
C353 C352 1.363 . S
C353 C359 1.428 . S
H354 C350 0.930 . S
H355 C352 0.929 . S
S356 N357 1.613 . S
S356 N358 1.610 . S
N357 S356 1.613 . S
N357 C360 1.350 . S
N358 S356 1.610 . S
N358 C359 1.351 . S
C359 C353 1.428 . S
C359 N358 1.351 . S
C359 C360 1.434 . S
C360 C351 1.429 . S
C360 N357 1.350 . S
C360 C359 1.434 . S
C361 C362 1.369 . S
C361 C363 1.419 . S
C361 H365 0.930 . S
C362 C361 1.369 . S
C362 C371 1.429 . S
C363 C361 1.419 . S
C363 C364 1.363 . S
C363 H366 0.929 . S
C364 C363 1.363 . S
C364 C370 1.428 . S
H365 C361 0.930 . S
H366 C363 0.929 . S
S367 N368 1.613 . S
S367 N369 1.610 . S
N368 S367 1.613 . S
N368 C371 1.350 . S
N369 S367 1.610 . S
N369 C370 1.351 . S
C370 C364 1.428 . S
C370 N369 1.351 . S
C370 C371 1.434 . S
C371 C362 1.429 . S
C371 N368 1.350 . S
C371 C370 1.434 . S
C372 C373 1.369 1_545 S
C372 C374 1.413 1_556 S
C372 H376 0.930 . S
C373 C372 1.369 1_565 S
C373 C382 1.429 1_556 S
C374 C372 1.413 1_554 S
C374 C375 1.370 . S
C374 H377 0.929 1_554 S
C375 C374 1.370 . S
C375 C381 1.428 1_545 S
H376 C372 0.930 . S
H377 C374 0.929 1_556 S
S378 N379 1.613 . S
S378 N380 1.610 . S
N379 S378 1.613 . S
N379 C382 1.350 . S
N380 S378 1.610 . S
N380 C381 1.351 . S
C381 C375 1.428 1_565 S
C381 N380 1.351 . S
C381 C382 1.434 . S
C382 C373 1.429 1_554 S
C382 N379 1.350 . S
C382 C381 1.434 . S
C383 C384 1.369 . S
C383 C385 1.419 . S
C383 H387 0.930 . S
C384 C383 1.369 . S
C384 C393 1.429 . S
C385 C383 1.419 . S
C385 C386 1.363 . S
C385 H388 0.929 . S
C386 C385 1.363 . S
C386 C392 1.428 . S
H387 C383 0.930 . S
H388 C385 0.929 . S
S389 N390 1.613 . S
S389 N391 1.610 . S
N390 S389 1.613 . S
N390 C393 1.350 . S
N391 S389 1.610 . S
N391 C392 1.351 . S
C392 C386 1.428 . S
C392 N391 1.351 . S
C392 C393 1.434 . S
C393 C384 1.429 . S
C393 N390 1.350 . S
C393 C392 1.434 . S
C394 C395 1.369 1_655 S
C394 C396 1.419 . S
C394 H398 0.930 . S
C395 C394 1.369 1_455 S
C395 C404 1.429 . S
C396 C394 1.419 . S
C396 C397 1.363 . S
C396 H399 0.929 . S
C397 C396 1.363 . S
C397 C403 1.428 1_655 S
H398 C394 0.930 . S
H399 C396 0.929 . S
S400 N401 1.613 . S
S400 N402 1.610 . S
N401 S400 1.613 . S
N401 C404 1.350 . S
N402 S400 1.610 . S
N402 C403 1.351 . S
C403 C397 1.428 1_455 S
C403 N402 1.351 . S
C403 C404 1.434 . S
C404 C395 1.429 . S
C404 N401 1.350 . S
C404 C403 1.434 . S
C405 C406 1.369 . S
C405 C407 1.419 1_554 S
C405 H409 0.930 . S
C406 C405 1.369 . S
C406 C415 1.429 1_565 S
C407 C405 1.419 1_556 S
C407 C408 1.363 1_565 S
C407 H410 0.929 . S
C408 C407 1.363 1_545 S
C408 C414 1.428 . S
H409 C405 0.930 . S
H410 C407 0.929 . S
S411 N412 1.613 . S
S411 N413 1.610 . S
N412 S411 1.613 . S
N412 C415 1.350 . S
N413 S411 1.610 . S
N413 C414 1.351 1_554 S
C414 C408 1.428 . S
C414 N413 1.351 1_556 S
C414 C415 1.434 1_556 S
C415 C406 1.429 1_545 S
C415 N412 1.350 . S
C415 C414 1.434 1_554 S
C416 C417 1.369 . S
C416 C418 1.419 . S
C416 H420 0.930 . S
C417 C416 1.369 . S
C417 C426 1.429 . S
C418 C416 1.419 . S
C418 C419 1.363 . S
C418 H421 0.929 . S
C419 C418 1.363 . S
C419 C425 1.428 . S
H420 C416 0.930 . S
H421 C418 0.929 . S
S422 N423 1.613 . S
S422 N424 1.610 . S
N423 S422 1.613 . S
N423 C426 1.350 . S
N424 S422 1.610 . S
N424 C425 1.351 . S
C425 C419 1.428 . S
C425 N424 1.351 . S
C425 C426 1.434 . S
C426 C417 1.429 . S
C426 N423 1.350 . S
C426 C425 1.434 . S
C427 C428 1.382 . S
C427 C429 1.412 1_455 S
C427 H431 0.916 1_455 S
C428 C427 1.382 . S
C428 C437 1.429 . S
C429 C427 1.412 1_655 S
C429 C430 1.363 . S
C429 H432 0.929 . S
C430 C429 1.363 . S
C430 C436 1.428 1_655 S
H431 C427 0.916 1_655 S
H432 C429 0.929 . S
S433 N434 1.613 . S
S433 N435 1.610 . S
N434 S433 1.613 . S
N434 C437 1.350 . S
N435 S433 1.610 . S
N435 C436 1.351 . S
C436 C430 1.428 1_455 S
C436 N435 1.351 . S
C436 C437 1.434 . S
C437 C428 1.429 . S
C437 N434 1.350 . S
C437 C436 1.434 . S
C438 C439 1.369 . S
C438 C440 1.419 . S
C438 H442 0.930 . S
C439 C438 1.369 . S
C439 C448 1.429 1_545 S
C440 C438 1.419 . S
C440 C441 1.363 1_545 S
C440 H443 0.929 . S
C441 C440 1.363 1_565 S
C441 C447 1.428 . S
H442 C438 0.930 . S
H443 C440 0.929 . S
S444 N445 1.613 . S
S444 N446 1.610 . S
N445 S444 1.613 . S
N445 C448 1.350 . S
N446 S444 1.610 . S
N446 C447 1.351 . S
C447 C441 1.428 . S
C447 N446 1.351 . S
C447 C448 1.434 . S
C448 C439 1.429 1_565 S
C448 N445 1.350 . S
C448 C447 1.434 . S
C449 C450 1.369 . S
C449 C451 1.419 . S
C449 H453 0.930 . S
C450 C449 1.369 . S
C450 C459 1.429 . S
C451 C449 1.419 . S
C451 C452 1.363 . S
C451 H454 0.929 . S
C452 C451 1.363 . S
C452 C458 1.428 . S
H453 C449 0.930 . S
H454 C451 0.929 . S
S455 N456 1.613 . S
S455 N457 1.610 . S
N456 S455 1.613 . S
N456 C459 1.350 . S
N457 S455 1.610 . S
N457 C458 1.351 . S
C458 C452 1.428 . S
C458 N457 1.351 . S
C458 C459 1.434 . S
C459 C450 1.429 . S
C459 N456 1.350 . S
C459 C458 1.434 . S
C460 C461 1.369 1_455 S
C460 C462 1.419 . S
C460 H464 0.930 . S
C461 C460 1.369 1_655 S
C461 C470 1.429 . S
C462 C460 1.419 . S
C462 C463 1.363 . S
C462 H465 0.929 . S
C463 C462 1.363 . S
C463 C469 1.428 1_455 S
H464 C460 0.930 . S
H465 C462 0.929 . S
S466 N467 1.613 . S
S466 N468 1.610 . S
N467 S466 1.613 . S
N467 C470 1.350 . S
N468 S466 1.610 . S
N468 C469 1.351 . S
C469 C463 1.428 1_655 S
C469 N468 1.351 . S
C469 C470 1.434 . S
C470 C461 1.429 . S
C470 N467 1.350 . S
C470 C469 1.434 . S
C471 C472 1.369 . S
C471 C473 1.419 . S
C471 H475 0.930 . S
C472 C471 1.369 . S
C472 C481 1.429 1_455 S
C473 C471 1.419 . S
C473 C474 1.363 1_455 S
C473 H476 0.929 . S
C474 C473 1.363 1_655 S
C474 C480 1.428 . S
H475 C471 0.930 . S
H476 C473 0.929 . S
S477 N478 1.613 . S
S477 N479 1.610 . S
N478 S477 1.613 . S
N478 C481 1.350 . S
N479 S477 1.610 . S
N479 C480 1.351 . S
C480 C474 1.428 . S
C480 N479 1.351 . S
C480 C481 1.434 . S
C481 C472 1.429 1_655 S
C481 N478 1.350 . S
C481 C480 1.434 . S
C482 C483 1.369 . S
C482 C484 1.419 . S
C482 H486 0.930 . S
C483 C482 1.369 . S
C483 C492 1.429 1_565 S
C484 C482 1.419 . S
C484 C485 1.363 1_565 S
C484 H487 0.929 . S
C485 C484 1.363 1_545 S
C485 C491 1.428 . S
H486 C482 0.930 . S
H487 C484 0.929 . S
S488 N489 1.613 . S
S488 N490 1.610 . S
N489 S488 1.613 . S
N489 C492 1.350 . S
N490 S488 1.610 . S
N490 C491 1.351 . S
C491 C485 1.428 . S
C491 N490 1.351 . S
C491 C492 1.434 . S
C492 C483 1.429 1_545 S
C492 N489 1.350 . S
C492 C491 1.434 . S
C493 C494 1.369 . S
C493 C495 1.419 . S
C493 H497 0.930 . S
C494 C493 1.369 . S
C494 C503 1.429 . S
C495 C493 1.419 . S
C495 C496 1.363 . S
C495 H498 0.929 . S
C496 C495 1.363 . S
C496 C502 1.428 . S
H497 C493 0.930 . S
H498 C495 0.929 . S
S499 N500 1.613 . S
S499 N501 1.610 . S
N500 S499 1.613 . S
N500 C503 1.350 . S
N501 S499 1.610 . S
N501 C502 1.351 . S
C502 C496 1.428 . S
C502 N501 1.351 . S
C502 C503 1.434 . S
C503 C494 1.429 . S
C503 N500 1.350 . S
C503 C502 1.434 . S
C504 C505 1.369 . S
C504 C506 1.419 1_565 S
C504 H508 0.930 . S
C505 C504 1.369 . S
C505 C514 1.436 . S
C506 C504 1.419 1_545 S
C506 C507 1.363 . S
C506 H509 0.929 . S
C507 C506 1.363 . S
C507 C513 1.428 . S
H508 C504 0.930 . S
H509 C506 0.929 . S
S510 N511 1.613 . S
S510 N512 1.610 . S
N511 S510 1.613 . S
N511 C514 1.358 1_545 S
N512 S510 1.610 . S
N512 C513 1.351 . S
C513 C507 1.428 . S
C513 N512 1.351 . S
C513 C514 1.416 1_545 S
C514 C505 1.436 . S
C514 N511 1.358 1_565 S
C514 C513 1.416 1_565 S
C515 C516 1.369 . S
C515 C517 1.419 . S
C515 H519 0.930 . S
C516 C515 1.369 . S
C516 C525 1.429 . S
C517 C515 1.419 . S
C517 C518 1.363 . S
C517 H520 0.929 . S
C518 C517 1.363 . S
C518 C524 1.428 . S
H519 C515 0.930 . S
H520 C517 0.929 . S
S521 N522 1.613 . S
S521 N523 1.610 . S
N522 S521 1.613 . S
N522 C525 1.350 . S
N523 S521 1.610 . S
N523 C524 1.351 . S
C524 C518 1.428 . S
C524 N523 1.351 . S
C524 C525 1.434 . S
C525 C516 1.429 . S
C525 N522 1.350 . S
C525 C524 1.434 . S
C526 C527 1.369 1_455 S
C526 C528 1.419 . S
C526 H530 0.930 . S
C527 C526 1.369 1_655 S
C527 C536 1.429 . S
C528 C526 1.419 . S
C528 C529 1.363 . S
C528 H531 0.929 . S
C529 C528 1.363 . S
C529 C535 1.428 1_455 S
H530 C526 0.930 . S
H531 C528 0.929 . S
S532 N533 1.613 . S
S532 N534 1.610 . S
N533 S532 1.613 . S
N533 C536 1.350 . S
N534 S532 1.610 . S
N534 C535 1.351 . S
C535 C529 1.428 1_655 S
C535 N534 1.351 . S
C535 C536 1.434 . S
C536 C527 1.429 . S
C536 N533 1.350 . S
C536 C535 1.434 . S
C537 C538 1.369 . S
C537 C539 1.419 . S
C537 H541 0.930 . S
C538 C537 1.369 . S
C538 C547 1.429 1_545 S
C539 C537 1.419 . S
C539 C540 1.363 1_545 S
C539 H542 0.929 . S
C540 C539 1.363 1_565 S
C540 C546 1.428 . S
H541 C537 0.930 . S
H542 C539 0.929 . S
S543 N544 1.613 . S
S543 N545 1.610 . S
N544 S543 1.613 . S
N544 C547 1.350 . S
N545 S543 1.610 . S
N545 C546 1.351 . S
C546 C540 1.428 . S
C546 N545 1.351 . S
C546 C547 1.434 . S
C547 C538 1.429 1_565 S
C547 N544 1.350 . S
C547 C546 1.434 . S
C548 C549 1.369 . S
C548 C550 1.419 . S
C548 H552 0.930 . S
C549 C548 1.369 . S
C549 C558 1.429 . S
C550 C548 1.419 . S
C550 C551 1.363 . S
C550 H553 0.929 . S
C551 C550 1.363 . S
C551 C557 1.428 . S
H552 C548 0.930 . S
H553 C550 0.929 . S
S554 N555 1.613 . S
S554 N556 1.610 . S
N555 S554 1.613 . S
N555 C558 1.350 . S
N556 S554 1.610 . S
N556 C557 1.351 . S
C557 C551 1.428 . S
C557 N556 1.351 . S
C557 C558 1.434 . S
C558 C549 1.429 . S
C558 N555 1.350 . S
C558 C557 1.434 . S
C559 C560 1.369 . S
C559 C561 1.419 1_455 S
C559 H563 0.930 . S
C560 C559 1.369 . S
C560 C569 1.429 . S
C561 C559 1.419 1_655 S
C561 C562 1.363 . S
C561 H564 0.929 . S
C562 C561 1.363 . S
C562 C568 1.428 . S
H563 C559 0.930 . S
H564 C561 0.929 . S
S565 N566 1.613 1_655 S
S565 N567 1.610 . S
N566 S565 1.613 1_455 S
N566 C569 1.350 . S
N567 S565 1.610 . S
N567 C568 1.351 . S
C568 C562 1.428 . S
C568 N567 1.351 . S
C568 C569 1.434 1_655 S
C569 C560 1.429 . S
C569 N566 1.350 . S
C569 C568 1.434 1_455 S
C570 C571 1.369 . S
C570 C572 1.419 . S
C570 H574 0.930 . S
C571 C570 1.369 . S
C571 C580 1.429 . S
C572 C570 1.419 . S
C572 C573 1.363 . S
C572 H575 0.929 . S
C573 C572 1.363 . S
C573 C579 1.428 . S
H574 C570 0.930 . S
H575 C572 0.929 . S
S576 N577 1.613 . S
S576 N578 1.610 . S
N577 S576 1.613 . S
N577 C580 1.350 . S
N578 S576 1.610 . S
N578 C579 1.351 . S
C579 C573 1.428 . S
C579 N578 1.351 . S
C579 C580 1.434 . S
C580 C571 1.429 . S
C580 N577 1.350 . S
C580 C579 1.434 . S
C581 C582 1.369 . S
C581 C583 1.419 . S
C581 H585 0.930 . S
C582 C581 1.369 . S
C582 C591 1.429 . S
C583 C581 1.419 . S
C583 C584 1.363 . S
C583 H586 0.929 . S
C584 C583 1.363 . S
C584 C590 1.428 . S
H585 C581 0.930 . S
H586 C583 0.929 . S
S587 N588 1.613 . S
S587 N589 1.610 . S
N588 S587 1.613 . S
N588 C591 1.350 . S
N589 S587 1.610 . S
N589 C590 1.351 . S
C590 C584 1.428 . S
C590 N589 1.351 . S
C590 C591 1.434 . S
C591 C582 1.429 . S
C591 N588 1.350 . S
C591 C590 1.434 . S
C592 C593 1.369 . S
C592 C594 1.419 . S
C592 H596 0.930 . S
C593 C592 1.369 . S
C593 C602 1.429 . S
C594 C592 1.419 . S
C594 C595 1.363 . S
C594 H597 0.929 . S
C595 C594 1.363 . S
C595 C601 1.428 . S
H596 C592 0.930 . S
H597 C594 0.929 . S
S598 N599 1.613 . S
S598 N600 1.610 . S
N599 S598 1.613 . S
N599 C602 1.350 . S
N600 S598 1.610 . S
N600 C601 1.351 . S
C601 C595 1.428 . S
C601 N600 1.351 . S
C601 C602 1.434 . S
C602 C593 1.429 . S
C602 N599 1.350 . S
C602 C601 1.434 . S
C603 C604 1.369 . S
C603 C605 1.419 . S
C603 H607 0.930 . S
C604 C603 1.369 . S
C604 C613 1.429 . S
C605 C603 1.419 . S
C605 C606 1.363 . S
C605 H608 0.929 . S
C606 C605 1.363 . S
C606 C612 1.428 . S
H607 C603 0.930 . S
H608 C605 0.929 . S
S609 N610 1.613 . S
S609 N611 1.610 . S
N610 S609 1.613 . S
N610 C613 1.350 . S
N611 S609 1.610 . S
N611 C612 1.351 . S
C612 C606 1.428 . S
C612 N611 1.351 . S
C612 C613 1.434 . S
C613 C604 1.429 . S
C613 N610 1.350 . S
C613 C612 1.434 . S
C614 C615 1.369 . S
C614 C616 1.419 . S
C614 H618 0.930 . S
C615 C614 1.369 . S
C615 C624 1.429 . S
C616 C614 1.419 . S
C616 C617 1.363 . S
C616 H619 0.929 . S
C617 C616 1.363 . S
C617 C623 1.428 . S
H618 C614 0.930 . S
H619 C616 0.929 . S
S620 N621 1.613 . S
S620 N622 1.610 . S
N621 S620 1.613 . S
N621 C624 1.350 . S
N622 S620 1.610 . S
N622 C623 1.351 . S
C623 C617 1.428 . S
C623 N622 1.351 . S
C623 C624 1.434 . S
C624 C615 1.429 . S
C624 N621 1.350 . S
C624 C623 1.434 . S
C625 C626 1.369 . S
C625 C627 1.419 . S
C625 H629 0.930 . S
C626 C625 1.369 . S
C626 C635 1.429 . S
C627 C625 1.419 . S
C627 C628 1.363 . S
C627 H630 0.929 . S
C628 C627 1.363 . S
C628 C634 1.428 . S
H629 C625 0.930 . S
H630 C627 0.929 . S
S631 N632 1.613 . S
S631 N633 1.610 . S
N632 S631 1.613 . S
N632 C635 1.350 . S
N633 S631 1.610 . S
N633 C634 1.351 . S
C634 C628 1.428 . S
C634 N633 1.351 . S
C634 C635 1.434 . S
C635 C626 1.429 . S
C635 N632 1.350 . S
C635 C634 1.434 . S
C241 C8 1.374 . S
C243 C168 1.378 . S
C252 C28 1.377 . S
C254 C188 1.375 . S
C263 C48 1.373 . S
C265 C208 1.378 . S
C274 C228 1.374 . S
C276 C68 1.380 . S
C285 C88 1.374 . S
C287 C128 1.380 . S
C296 C148 1.382 . S
C298 C108 1.377 . S
C307 C201 0.633 . S
C309 C1 0.652 . S
C318 C221 0.654 . S
C320 C21 0.635 . S
C329 C41 0.654 . S
C331 C121 0.640 . S
C340 C141 0.645 . S
C342 C61 0.649 . S
C351 C161 0.654 . S
C353 C81 0.640 . S
C362 C101 0.647 . S
C364 C181 0.636 . S
C373 C159 2.231 . S
C375 C19 2.227 . S
C384 C179 2.232 . S
C386 C39 2.230 . S
C395 C199 2.232 . S
C397 C59 2.230 . S
C406 C79 2.227 . S
C408 C219 2.231 . S
C417 C99 2.227 . S
C419 C239 2.231 . S
C428 C119 2.228 . S
C430 C139 2.226 . S
C439 C9 0.641 . S
C441 C69 0.613 . S
C450 C29 0.642 . S
C452 C89 0.620 . S
C461 C49 0.611 . S
C463 C109 0.631 . S
C472 C189 0.638 . S
C474 C129 0.625 . S
C483 C149 0.643 . S
C485 C209 0.618 . S
C494 C229 0.642 . S
C496 C169 0.619 . S
C505 C142 1.007 . S
C507 C2 1.018 . S
C516 C162 1.018 . S
C518 C22 1.009 . S
C527 C42 1.020 . S
C529 C182 1.009 . S
C538 C202 1.011 . S
C540 C62 1.019 . S
C549 C222 1.012 . S
C551 C82 1.019 . S
C560 C102 1.016 . S
C562 C122 1.017 . S
C571 C18 2.563 . S
C573 C218 2.562 . S
C582 C38 2.563 . S
C584 C238 2.562 . S
C593 C58 2.561 . S
C595 C138 2.562 . S
C604 C78 2.563 . S
C606 C158 2.562 . S
C615 C98 2.562 . S
C617 C178 2.563 . S
C626 C198 2.562 . S
C628 C118 2.563 . S
