# Generated by pormake.
# Topology lcx, (8)-cn, num edge types: 1
# Building blocks:
#     Node 0, Type 0, BuildingBlock: OLANAS_clean_sbu_2, # of connection points: 8
#     Node 1, Type 0, BuildingBlock: OLANAS_clean_sbu_2, # of connection points: 8
#     Node 2, Type 0, BuildingBlock: OLANAS_clean_sbu_2, # of connection points: 8
#     Node 3, Type 0, BuildingBlock: OLANAS_clean_sbu_2, # of connection points: 8
#     Node 4, Type 0, BuildingBlock: OLANAS_clean_sbu_2, # of connection points: 8
#     Node 5, Type 0, BuildingBlock: OLANAS_clean_sbu_2, # of connection points: 8
#     Edge 6, Type (0, 0), BuildingBlock: AJUNOK_clean_linker_0, # of connection points: 2
#     Edge 7, Type (0, 0), BuildingBlock: AJUNOK_clean_linker_0, # of connection points: 2
#     Edge 8, Type (0, 0), BuildingBlock: AJUNOK_clean_linker_0, # of connection points: 2
#     Edge 9, Type (0, 0), BuildingBlock: AJUNOK_clean_linker_0, # of connection points: 2
#     Edge 10, Type (0, 0), BuildingBlock: AJUNOK_clean_linker_0, # of connection points: 2
#     Edge 11, Type (0, 0), BuildingBlock: AJUNOK_clean_linker_0, # of connection points: 2
#     Edge 12, Type (0, 0), BuildingBlock: AJUNOK_clean_linker_0, # of connection points: 2
#     Edge 13, Type (0, 0), BuildingBlock: AJUNOK_clean_linker_0, # of connection points: 2
#     Edge 14, Type (0, 0), BuildingBlock: AJUNOK_clean_linker_0, # of connection points: 2
#     Edge 15, Type (0, 0), BuildingBlock: AJUNOK_clean_linker_0, # of connection points: 2
#     Edge 16, Type (0, 0), BuildingBlock: AJUNOK_clean_linker_0, # of connection points: 2
#     Edge 17, Type (0, 0), BuildingBlock: AJUNOK_clean_linker_0, # of connection points: 2
#     Edge 18, Type (0, 0), BuildingBlock: AJUNOK_clean_linker_0, # of connection points: 2
#     Edge 19, Type (0, 0), BuildingBlock: AJUNOK_clean_linker_0, # of connection points: 2
#     Edge 20, Type (0, 0), BuildingBlock: AJUNOK_clean_linker_0, # of connection points: 2
#     Edge 21, Type (0, 0), BuildingBlock: AJUNOK_clean_linker_0, # of connection points: 2
#     Edge 22, Type (0, 0), BuildingBlock: AJUNOK_clean_linker_0, # of connection points: 2
#     Edge 23, Type (0, 0), BuildingBlock: AJUNOK_clean_linker_0, # of connection points: 2
#     Edge 24, Type (0, 0), BuildingBlock: AJUNOK_clean_linker_0, # of connection points: 2
#     Edge 25, Type (0, 0), BuildingBlock: AJUNOK_clean_linker_0, # of connection points: 2
#     Edge 26, Type (0, 0), BuildingBlock: AJUNOK_clean_linker_0, # of connection points: 2
#     Edge 27, Type (0, 0), BuildingBlock: AJUNOK_clean_linker_0, # of connection points: 2
#     Edge 28, Type (0, 0), BuildingBlock: AJUNOK_clean_linker_0, # of connection points: 2
#     Edge 29, Type (0, 0), BuildingBlock: AJUNOK_clean_linker_0, # of connection points: 2
# Relax obj value: 0.048
# Max RMSD: 0.138
# Mean RMSD: 0.138
data_MOF--net-lcx--node1-OLANAS_clean_sbu_2--edge1-AJUNOK_clean_linker_0
_symmetry_space_group_name_H-M    P1
_symmetry_Int_Tables_number       1
_symmetry_cell_setting            triclinic
loop_
_symmetry_equiv_pos_as_xyz
'x, y, z'
_cell_length_a     25.040108
_cell_length_b     25.020142
_cell_length_c     25.059415
_cell_angle_alpha  90.128439
_cell_angle_beta   89.190087
_cell_angle_gamma 90.233653
loop_
_atom_site_label
_atom_site_type_symbol
_atom_site_fract_x
_atom_site_fract_y
_atom_site_fract_z
_atom_type_partial_charge
C0 C 0.91729 0.30717 0.47334 0.0
O1 O 0.86746 0.323 0.46915 0.0
C2 C 0.9613 0.34578 0.47193 0.0
C3 C 0.95985 0.39996 0.45822 0.0
C4 C 0.00861 0.42858 0.45658 0.0
C5 C 0.05713 0.40296 0.46868 0.0
C6 C 0.05517 0.34878 0.48238 0.0
N7 N 0.00794 0.32404 0.48405 0.0
N8 N 0.01454 0.23668 0.41563 0.0
Co9 Co 0.00866 0.2508 0.49195 0.0
N10 N 0.01027 0.17746 0.49919 0.0
C11 C 0.03058 0.09508 0.45843 0.0
C12 C 0.03607 0.07316 0.51 0.0
C13 C 0.02888 0.10532 0.55591 0.0
C14 C 0.0163 0.1592 0.54864 0.0
C15 C 0.01764 0.14929 0.45444 0.0
N16 N 0.00497 0.25223 0.56977 0.0
N17 N 0.93036 0.25539 0.486 0.0
N18 N 0.08614 0.25931 0.49545 0.0
C19 C 0.01808 0.18286 0.40658 0.0
O20 O 0.02608 0.16292 0.35852 0.0
C21 C 0.09966 0.31218 0.49055 0.0
O22 O 0.14963 0.32865 0.48987 0.0
C23 C 0.1271 0.21981 0.49908 0.0
C24 C 0.2001 0.17446 0.45235 0.0
C25 C 0.14965 0.19849 0.45184 0.0
C26 C 0.15457 0.2149 0.5474 0.0
C27 C 0.20431 0.18961 0.54825 0.0
C28 C 0.22542 0.16799 0.50108 0.0
C29 C 0.01307 0.20157 0.58889 0.0
O30 O 0.01363 0.19091 0.64027 0.0
C31 C -0.00287 0.296 0.60601 0.0
C32 C 0.03778 0.30777 0.64255 0.0
C33 C 0.02657 0.33693 0.68917 0.0
C34 C 0.9748 0.3559 0.69794 0.0
C35 C 0.93424 0.3455 0.66167 0.0
C36 C 0.94544 0.3163 0.61512 0.0
C37 C 0.88779 0.21969 0.50226 0.0
C38 C 0.87845 0.20922 0.55671 0.0
C39 C 0.82621 0.20031 0.57563 0.0
C40 C 0.78401 0.20808 0.54083 0.0
C41 C 0.79315 0.20037 0.48615 0.0
C42 C 0.84568 0.20937 0.4665 0.0
C43 C 0.02133 0.274 0.37289 0.0
C44 C 0.03625 0.33019 0.27784 0.0
C45 C 0.98445 0.31565 0.29402 0.0
C46 C 0.97733 0.28656 0.3414 0.0
C47 C 0.07299 0.28943 0.3562 0.0
C48 C 0.08079 0.31623 0.30773 0.0
H49 H 0.92276 0.41922 0.448 0.0
H50 H 0.00892 0.47018 0.4449 0.0
H51 H 0.09472 0.42437 0.46596 0.0
H52 H 0.03835 0.07105 0.42322 0.0
H53 H 0.04784 0.03192 0.51443 0.0
H54 H 0.03491 0.08908 0.59535 0.0
H55 H 0.12954 0.20295 0.4144 0.0
H56 H 0.13843 0.23293 0.58345 0.0
H57 H 0.26202 0.14501 0.50249 0.0
H58 H 0.07733 0.29137 0.6361 0.0
H59 H 0.96604 0.38067 0.73256 0.0
H60 H 0.91366 0.30764 0.58772 0.0
H61 H 0.91046 0.20849 0.58472 0.0
H62 H 0.74369 0.20721 0.55694 0.0
H63 H 0.85395 0.21077 0.42402 0.0
H64 H 0.04202 0.35436 0.24233 0.0
H65 H 0.93797 0.27261 0.35346 0.0
H66 H 0.10712 0.27924 0.3797 0.0
C67 C 0.30138 0.5024 0.90191 0.0
O68 O 0.30878 0.50342 0.84984 0.0
C69 C 0.34599 0.50424 0.93894 0.0
C70 C 0.40083 0.50659 0.92762 0.0
C71 C 0.43618 0.50892 0.97112 0.0
C72 C 0.4163 0.50886 0.02425 0.0
C73 C 0.36089 0.50652 0.03219 0.0
N74 N 0.32965 0.50436 0.98969 0.0
N75 N 0.25175 0.42495 0.00394 0.0
Co76 Co 0.25692 0.5027 0.00221 0.0
N77 N 0.18417 0.5011 0.01465 0.0
C78 C 0.10634 0.45027 0.02975 0.0
C79 C 0.07758 0.49872 0.03325 0.0
C80 C 0.10397 0.5484 0.02647 0.0
C81 C 0.15914 0.54792 0.01669 0.0
C82 C 0.16145 0.45321 0.02004 0.0
N83 N 0.24848 0.58016 0.00177 0.0
N84 N 0.25145 0.5012 0.92503 0.0
N85 N 0.27588 0.50428 0.07768 0.0
C86 C 0.19995 0.40969 0.01404 0.0
O87 O 0.18537 0.35917 0.01654 0.0
C88 C 0.33032 0.50622 0.08242 0.0
O89 O 0.35374 0.50755 0.12907 0.0
C90 C 0.2423 0.50041 0.12422 0.0
C91 C 0.21936 0.45264 0.2065 0.0
C92 C 0.24406 0.454 0.15594 0.0
C93 C 0.21508 0.54563 0.14318 0.0
C94 C 0.19083 0.54451 0.19376 0.0
C95 C 0.19414 0.4988 0.22531 0.0
C96 C 0.19573 0.59311 0.00892 0.0
O97 O 0.17925 0.64295 0.01095 0.0
C98 C 0.2882 0.62127 -0.00074 0.0
C99 C 0.30454 0.64526 0.04705 0.0
C100 C 0.332 0.69423 0.04623 0.0
C101 C 0.34247 0.71879 -0.00295 0.0
C102 C 0.32425 0.69687 0.94926 0.0
C103 C 0.29856 0.64706 0.95039 0.0
C104 C 0.20513 0.50544 0.89289 0.0
C105 C 0.19386 0.55535 0.87025 0.0
C106 C 0.16417 0.55867 0.82367 0.0
C107 C 0.14217 0.51205 0.80227 0.0
C108 C 0.15242 0.4621 0.82466 0.0
C109 C 0.18351 0.45873 0.87052 0.0
C110 C 0.29216 0.38554 0.99527 0.0
C111 C 0.34826 0.29041 0.98071 0.0
C112 C 0.3304 0.31811 0.93604 0.0
C113 C 0.30293 0.36651 0.9432 0.0
C114 C 0.30878 0.35575 0.03935 0.0
C115 C 0.33552 0.30738 0.03227 0.0
H116 H 0.41587 0.50684 0.88692 0.0
H117 H 0.4788 0.51091 0.96364 0.0
H118 H 0.44323 0.51075 0.05762 0.0
H119 H 0.08621 0.41218 0.03452 0.0
H120 H 0.03501 0.49776 0.04118 0.0
H121 H 0.08207 0.58555 0.02897 0.0
H122 H 0.26478 0.41911 0.14154 0.0
H123 H 0.21289 0.58132 0.11907 0.0
H124 H 0.17184 0.4978 0.26275 0.0
H125 H 0.29323 0.62705 0.08468 0.0
H126 H 0.36589 0.75533 0.99573 0.0
H127 H 0.28434 0.62985 0.91379 0.0
H128 H 0.21226 0.59089 0.88593 0.0
H129 H 0.11789 0.51441 0.76681 0.0
H130 H 0.19452 0.41999 0.88604 0.0
H131 H 0.37234 0.25481 0.97514 0.0
H132 H 0.28746 0.38737 0.90898 0.0
H133 H 0.29778 0.3684 0.07907 0.0
C134 C 0.09298 0.6822 0.51116 0.0
O135 O 0.1429 0.66628 0.51345 0.0
C136 C 0.04812 0.64453 0.51309 0.0
C137 C 0.04878 0.58927 0.52157 0.0
C138 C -0.00078 0.56201 0.52434 0.0
C139 C 0.95073 0.58999 0.51827 0.0
C140 C 0.95349 0.6452 0.5097 0.0
N141 N 0.00126 0.66867 0.50749 0.0
N142 N 0.00457 0.74483 0.42561 0.0
Co143 Co 0.00231 0.74223 0.50344 0.0
N144 N 0.00334 0.81588 0.49966 0.0
C145 C -0.00138 0.89272 0.44623 0.0
C146 C 0.99215 0.9231 0.49346 0.0
C147 C 0.99207 0.89805 0.54398 0.0
C148 C -0.00226 0.84245 0.54545 0.0
C149 C 0.00428 0.83736 0.45116 0.0
N150 N -0.00041 0.75333 0.58054 0.0
N151 N 0.07962 0.73487 0.50524 0.0
N152 N 0.92494 0.73627 0.50272 0.0
C153 C 0.00649 0.79703 0.409 0.0
O154 O 0.00565 0.81025 0.35821 0.0
C155 C 0.90983 0.68366 0.50609 0.0
O156 O 0.85939 0.66882 0.50867 0.0
C157 C 0.88623 0.77772 0.5077 0.0
C158 C 0.81857 0.82981 0.4637 0.0
C159 C 0.86661 0.80165 0.46143 0.0
C160 C 0.85869 0.78394 0.55663 0.0
C161 C 0.81091 0.81264 0.55919 0.0
C162 C 0.79228 0.83681 0.51275 0.0
C163 C 0.9962 0.8069 0.59165 0.0
O164 O 0.99339 0.8254 0.6408 0.0
C165 C 0.00497 0.71615 0.62334 0.0
C166 C 0.95868 0.69533 0.64802 0.0
C167 C 0.96039 0.67745 0.70097 0.0
C168 C 0.00769 0.68309 0.7293 0.0
C169 C 0.05525 0.69853 0.7039 0.0
C170 C 0.05377 0.71447 0.65043 0.0
C171 C 0.12024 0.77439 0.49731 0.0
C172 C 0.14588 0.79552 0.54217 0.0
C173 C 0.19532 0.82138 0.53674 0.0
C174 C 0.21757 0.82787 0.48578 0.0
C175 C 0.1931 0.80657 0.44057 0.0
C176 C 0.1439 0.78013 0.44636 0.0
C177 C 0.99429 0.7041 0.38697 0.0
C178 C 0.98094 0.67021 0.28208 0.0
C179 C 0.03131 0.66646 0.30482 0.0
C180 C 0.03802 0.68397 0.35758 0.0
C181 C 0.94264 0.70082 0.36534 0.0
C182 C 0.93607 0.68515 0.31213 0.0
H183 H 0.08592 0.56805 0.52681 0.0
H184 H -0.00166 0.51949 0.53201 0.0
H185 H 0.91273 0.56938 0.52124 0.0
H186 H -0.00224 0.91168 0.40747 0.0
H187 H 0.98606 0.96572 0.49078 0.0
H188 H 0.98659 0.92115 0.5802 0.0
H189 H 0.88666 0.79563 0.42342 0.0
H190 H 0.87293 0.76403 0.59188 0.0
H191 H 0.75671 0.86141 0.51447 0.0
H192 H 0.92146 0.69455 0.6267 0.0
H193 H 0.00824 0.67078 0.77072 0.0
H194 H 0.09002 0.72778 0.63087 0.0
H195 H 0.12883 0.78914 0.58136 0.0
H196 H 0.25426 0.85069 0.48111 0.0
H197 H 0.12541 0.76183 0.41204 0.0
H198 H 0.97602 0.65794 0.24091 0.0
H199 H 0.07725 0.68465 0.37513 0.0
H200 H 0.90839 0.71429 0.38826 0.0
C201 C 0.68829 0.47683 0.91284 0.0
O202 O 0.66465 0.47641 0.86626 0.0
C203 C 0.65741 0.47423 0.96264 0.0
C204 C 0.60264 0.46468 0.96984 0.0
C205 C 0.58208 0.46293 0.02265 0.0
C206 C 0.61616 0.47058 0.06652 0.0
C207 C 0.67039 0.48005 0.05587 0.0
N208 N 0.68742 0.48174 0.00537 0.0
N209 N 0.7574 0.56857 0.99073 0.0
Co210 Co 0.75989 0.49068 0.99372 0.0
N211 N 0.83236 0.49916 0.98231 0.0
C212 C 0.90533 0.55717 0.96901 0.0
C213 C 0.93848 0.51168 0.96478 0.0
C214 C 0.91677 0.4597 0.97059 0.0
C215 C 0.86169 0.45493 0.97986 0.0
C216 C 0.85066 0.54898 0.97831 0.0
N217 N 0.77599 0.41454 0.99575 0.0
N218 N 0.74227 0.48506 0.91759 0.0
N219 N 0.76366 0.49419 0.0713 0.0
C220 C 0.80821 0.5886 0.98431 0.0
O221 O 0.81827 0.64025 0.98309 0.0
C222 C 0.71375 0.48734 0.09352 0.0
O223 O 0.70539 0.48647 0.14548 0.0
C224 C 0.80858 0.50001 0.10529 0.0
C225 C 0.8401 0.55066 0.18208 0.0
C226 C 0.8146 0.5488 0.13276 0.0
C227 C 0.83101 0.45336 0.12627 0.0
C228 C 0.85731 0.45511 0.17513 0.0
C229 C 0.86387 0.50413 0.20116 0.0
C230 C 0.82955 0.40651 0.98751 0.0
O231 O 0.85055 0.35844 0.9852 0.0
C232 C 0.73985 0.37032 -0.00298 0.0
C233 C 0.72678 0.34563 0.04582 0.0
C234 C 0.69968 0.29635 0.04627 0.0
C235 C 0.68496 0.27329 -0.00241 0.0
C236 C 0.69912 0.29669 0.94864 0.0
C237 C 0.72712 0.34519 0.94884 0.0
C238 C 0.7727 0.49644 0.86991 0.0
C239 C 0.77915 0.45596 0.83094 0.0
C240 C 0.78341 0.46928 0.77611 0.0
C241 C 0.77552 0.52304 0.76243 0.0
C242 C 0.78659 0.56235 0.80028 0.0
C243 C 0.78066 0.54966 0.85437 0.0
C244 C 0.71388 0.60468 -0.00098 0.0
C245 C 0.66361 0.7032 0.01365 0.0
C246 C 0.6724 0.68409 0.96196 0.0
C247 C 0.69624 0.63398 0.95479 0.0
C248 C 0.7046 0.6249 0.05081 0.0
C249 C 0.68204 0.67556 0.05802 0.0
H250 H 0.57678 0.45835 0.93614 0.0
H251 H 0.53999 0.45528 0.02958 0.0
H252 H 0.60072 0.46872 0.10703 0.0
H253 H 0.92185 0.59702 0.96493 0.0
H254 H 0.98083 0.51671 0.95711 0.0
H255 H 0.94209 0.42481 0.96782 0.0
H256 H 0.79485 0.58397 0.11847 0.0
H257 H 0.82301 0.41515 0.10757 0.0
H258 H 0.88605 0.50555 0.23801 0.0
H259 H 0.73935 0.36383 0.08284 0.0
H260 H 0.66067 0.23731 -0.00204 0.0
H261 H 0.74086 0.36279 0.91177 0.0
H262 H 0.78035 0.41506 0.84418 0.0
H263 H 0.77559 0.53477 0.72084 0.0
H264 H 0.78356 0.58106 0.88356 0.0
H265 H 0.64251 0.74058 0.01956 0.0
H266 H 0.70507 0.61986 0.91482 0.0
H267 H 0.7186 0.60344 0.08499 0.0
C268 C 0.49032 0.08891 0.30569 0.0
O269 O 0.48457 0.13967 0.31821 0.0
C270 C 0.49016 0.04687 0.34615 0.0
C271 C 0.47921 0.05097 0.40089 0.0
C272 C 0.47911 0.00349 0.43134 0.0
C273 C 0.49064 0.95367 0.40705 0.0
C274 C 0.50145 0.95297 0.35209 0.0
N275 N 0.50054 -0.00109 0.32545 0.0
N276 N 0.58535 0.00364 0.25154 0.0
Co277 Co 0.50803 0.99497 0.25227 0.0
N278 N 0.5152 0.99099 0.17906 0.0
C279 C 0.57192 0.98919 0.1036 0.0
C280 C 0.52617 0.98136 0.07203 0.0
C281 C 0.47467 0.97885 0.09589 0.0
C282 C 0.47067 0.98398 0.15144 0.0
C283 C 0.56455 0.99401 0.15885 0.0
N284 N 0.43158 0.98588 0.23951 0.0
N285 N 0.49947 0.07218 0.25429 0.0
N286 N 0.51581 0.91812 0.26366 0.0
C287 C 0.60467 0.00133 0.20013 0.0
O288 O 0.65592 0.00541 0.18852 0.0
C289 C 0.51106 0.90696 0.31706 0.0
O290 O 0.51215 0.85779 0.3355 0.0
C291 C 0.51905 0.87537 0.22568 0.0
C292 C 0.56797 0.79698 0.19424 0.0
C293 C 0.56732 0.84709 0.21955 0.0
C294 C 0.47151 0.85266 0.20691 0.0
C295 C 0.4715 0.80182 0.18356 0.0
C296 C 0.5201 0.77586 0.17517 0.0
C297 C 0.42289 0.98167 0.18577 0.0
O298 O 0.37475 0.97582 0.16617 0.0
C299 C 0.38737 0.98527 0.27648 0.0
C300 C 0.36137 0.93647 0.28738 0.0
C301 C 0.3102 0.93571 0.31053 0.0
C302 C 0.28719 0.98393 0.32688 0.0
C303 C 0.31174 0.03318 0.31605 0.0
C304 C 0.36189 0.03355 0.28998 0.0
C305 C 0.50596 0.11033 0.21245 0.0
C306 C 0.45997 0.13473 0.1927 0.0
C307 C 0.46401 0.18275 0.16455 0.0
C308 C 0.51432 0.20513 0.15466 0.0
C309 C 0.56054 0.18226 0.17505 0.0
C310 C 0.55646 0.13396 0.20321 0.0
C311 C 0.62112 0.00646 0.29533 0.0
C312 C 0.7083 0.01702 0.36257 0.0
C313 C 0.67459 0.06065 0.35471 0.0
C314 C 0.63079 0.05558 0.32088 0.0
C315 C 0.65489 0.96284 0.30439 0.0
C316 C 0.69862 0.96786 0.33809 0.0
H317 H 0.4701 0.08907 0.41933 0.0
H318 H 0.46934 0.00526 0.47347 0.0
H319 H 0.49005 0.9172 0.4302 0.0
H320 H 0.61138 0.991 0.08549 0.0
H321 H 0.5307 0.97691 0.02927 0.0
H322 H 0.4396 0.97271 0.07184 0.0
H323 H 0.6036 0.863 0.23622 0.0
H324 H 0.43425 0.87314 0.21299 0.0
H325 H 0.5208 0.73897 0.15238 0.0
H326 H 0.37967 0.89924 0.27577 0.0
H327 H 0.25003 0.98284 0.34957 0.0
H328 H 0.38012 0.07099 0.27809 0.0
H329 H 0.42102 0.11817 0.20244 0.0
H330 H 0.51751 0.24101 0.13055 0.0
H331 H 0.59175 0.11672 0.22054 0.0
H332 H 0.74127 0.02102 0.39 0.0
H333 H 0.60557 0.08969 0.31345 0.0
H334 H 0.64828 0.92572 0.28338 0.0
C335 C 0.52096 0.90854 0.69264 0.0
O336 O 0.52305 0.85714 0.68167 0.0
C337 C 0.52429 0.94924 0.65084 0.0
C338 C 0.53545 0.94272 0.59636 0.0
C339 C 0.53986 0.98917 0.56455 0.0
C340 C 0.53214 0.04044 0.58723 0.0
C341 C 0.52085 0.04358 0.64201 0.0
N342 N 0.51781 -0.00153 0.67001 0.0
N343 N 0.58791 0.01035 0.75508 0.0
Co344 Co 0.51101 0.00517 0.74301 0.0
N345 N 0.50445 0.0121 0.81604 0.0
C346 C 0.54577 0.02907 0.898 0.0
C347 C 0.49434 0.03034 0.92206 0.0
C348 C 0.44818 0.02213 0.89119 0.0
C349 C 0.45513 0.01279 0.83646 0.0
C350 C 0.54928 0.01977 0.84295 0.0
N351 N 0.43327 0.00135 0.74417 0.0
N352 N 0.51449 0.92741 0.74372 0.0
N353 N 0.50843 0.08182 0.72918 0.0
C354 C 0.59688 0.01819 0.80842 0.0
O355 O 0.64533 0.02151 0.82785 0.0
C356 C 0.51467 0.0912 0.67561 0.0
O357 O 0.51746 0.13982 0.65586 0.0
C358 C 0.50938 0.12522 0.76639 0.0
C359 C 0.56101 0.19617 0.80737 0.0
C360 C 0.55875 0.14686 0.78115 0.0
C361 C 0.46216 0.15351 0.77774 0.0
C362 C 0.46384 0.20287 0.80437 0.0
C363 C 0.51348 0.2229 0.82006 0.0
C364 C 0.4145 0.00599 0.79565 0.0
O365 O 0.36314 0.00746 0.8074 0.0
C366 C 0.39659 0.00342 0.7011 0.0
C367 C 0.37491 0.0533 0.68811 0.0
C368 C 0.32514 0.05665 0.66394 0.0
C369 C 0.29928 0.00968 0.6486 0.0
C370 C 0.31976 0.95953 0.66138 0.0
C371 C 0.36926 0.95643 0.68671 0.0
C372 C 0.50618 0.89082 0.78683 0.0
C373 C 0.455 0.86825 0.79472 0.0
C374 C 0.44925 0.81969 0.82197 0.0
C375 C 0.49424 0.79553 0.84345 0.0
C376 C 0.54529 0.81651 0.83498 0.0
C377 C 0.551 0.86519 0.80805 0.0
C378 C 0.63227 -0.00044 0.71995 0.0
C379 C 0.73872 0.98077 0.69236 0.0
C380 C 0.70464 0.93711 0.70135 0.0
C381 C 0.65139 0.94702 0.71602 0.0
C382 C 0.66539 0.04215 0.70338 0.0
C383 C 0.71896 0.03281 0.68829 0.0
H384 H 0.54167 0.90351 0.57915 0.0
H385 H 0.55006 0.98544 0.52264 0.0
H386 H 0.53601 0.07607 0.56305 0.0
H387 H 0.58116 0.0358 0.92143 0.0
H388 H 0.49018 0.03828 0.96436 0.0
H389 H 0.40874 0.02379 0.90934 0.0
H390 H 0.59534 0.1265 0.77028 0.0
H391 H 0.42449 0.13812 0.76438 0.0
H392 H 0.51518 0.25917 0.84374 0.0
H393 H 0.39453 0.08928 0.7009 0.0
H394 H 0.26236 0.0123 0.62664 0.0
H395 H 0.38457 0.91794 0.69849 0.0
H396 H 0.42058 0.88631 0.77666 0.0
H397 H 0.48945 0.75919 0.86664 0.0
H398 H 0.59047 0.88096 0.80019 0.0
H399 H 0.78072 0.97382 0.68484 0.0
H400 H 0.62577 0.91404 0.7267 0.0
H401 H 0.64975 0.08238 0.70426 0.0
C402 C 0.14641 0.32652 0.23291 0.0
C403 C 0.13426 0.33303 0.28763 0.0
C404 C 0.18275 0.36059 0.20692 0.0
C405 C 0.20829 0.40176 0.23514 0.0
H406 H 0.12286 0.29946 0.20885 0.0
H407 H 0.1849 0.35924 0.16372 0.0
S408 S 0.20551 0.42138 0.38184 0.0
N409 N 0.16096 0.37382 0.3712 0.0
N410 N 0.23172 0.43594 0.32274 0.0
C411 C 0.20479 0.40095 0.29133 0.0
C412 C 0.16682 0.3671 0.31764 0.0
C413 C 0.16417 0.6094 0.73847 0.0
C414 C 0.15761 0.60946 0.7944 0.0
C415 C 0.13857 0.64739 0.70715 0.0
C416 C 0.1058 0.68622 0.73117 0.0
H417 H 0.18381 0.57621 0.71856 0.0
H418 H 0.13782 0.64098 0.66437 0.0
S419 S 0.0945 0.71612 0.87572 0.0
N420 N 0.12947 0.66034 0.87249 0.0
N421 N 0.0833 0.73347 0.81329 0.0
C422 C 0.10934 0.69371 0.78676 0.0
C423 C 0.13437 0.65433 0.81875 0.0
C424 C 0.83398 0.5928 0.27245 0.0
C425 C 0.84013 0.5991 0.2167 0.0
C426 C 0.85545 0.63029 0.30778 0.0
C427 C 0.88338 0.67486 0.288 0.0
H428 H 0.81858 0.55566 0.2888 0.0
H429 H 0.85825 0.61948 0.34951 0.0
S430 S 0.88702 0.72193 0.1481 0.0
N431 N 0.85964 0.66185 0.14493 0.0
N432 N 0.89717 0.73366 0.21208 0.0
C433 C 0.87666 0.68822 0.23393 0.0
C434 C 0.85652 0.64932 0.1976 0.0
C435 C 0.84332 0.45568 0.6959 0.0
C436 C 0.80893 0.43286 0.73527 0.0
C437 C 0.87812 0.42477 0.66509 0.0
C438 C 0.88196 0.36981 0.67329 0.0
H439 H 0.84811 0.49838 0.69158 0.0
H440 H 0.90687 0.44499 0.63933 0.0
S441 S 0.79562 0.28736 0.76202 0.0
N442 N 0.77457 0.3491 0.77207 0.0
N443 N 0.84477 0.29168 0.71749 0.0
C444 C 0.84524 0.34517 0.70835 0.0
C445 C 0.80786 0.37655 0.7387 0.0
C446 C 0.22795 0.08488 0.33479 0.0
C447 C 0.28438 0.08258 0.33513 0.0
C448 C 0.19975 0.1192 0.36916 0.0
C449 C 0.22717 0.1537 0.40348 0.0
H450 H 0.20529 0.05631 0.31162 0.0
H451 H 0.15674 0.11501 0.37232 0.0
S452 S 0.3736 0.17706 0.40572 0.0
N453 N 0.36589 0.12636 0.36425 0.0
N454 N 0.31272 0.19451 0.42469 0.0
C455 C 0.283 0.15868 0.39687 0.0
C456 C 0.31179 0.12231 0.36354 0.0
C457 C 0.36075 0.81555 0.86633 0.0
C458 C 0.39743 0.79234 0.83061 0.0
C459 C 0.3293 0.78318 0.89986 0.0
C460 C 0.3349 0.72702 0.89925 0.0
H461 H 0.36178 0.85823 0.87377 0.0
H462 H 0.30597 0.80234 0.93118 0.0
S463 S 0.41162 0.64823 0.79949 0.0
N464 N 0.42559 0.71118 0.78502 0.0
N465 N 0.36909 0.65013 0.85041 0.0
C466 C 0.36369 0.70379 0.85688 0.0
C467 C 0.39432 0.7368 0.82166 0.0
C468 C 0.7879 0.92872 0.35714 0.0
C469 C 0.7322 0.92172 0.3526 0.0
C470 C 0.81815 0.89433 0.3886 0.0
C471 C 0.79347 0.8518 0.41575 0.0
H472 H 0.80722 0.96386 0.34047 0.0
H473 H 0.85959 0.9042 0.39596 0.0
S474 S 0.65214 0.80874 0.40661 0.0
N475 N 0.65584 0.86375 0.37047 0.0
N476 N 0.71322 0.79812 0.42809 0.0
C477 C 0.73967 0.84002 0.40536 0.0
C478 C 0.70878 0.87526 0.37394 0.0
C479 C 0.67849 0.21477 0.89529 0.0
C480 C 0.68068 0.27108 0.89857 0.0
C481 C 0.64394 0.18919 0.85996 0.0
C482 C 0.61183 0.21926 0.82598 0.0
H483 H 0.69944 0.19046 0.92388 0.0
H484 H 0.63825 0.14636 0.86343 0.0
S485 S 0.61714 0.36567 0.80512 0.0
N486 N 0.65717 0.3549 0.85571 0.0
N487 N 0.59537 0.30618 0.7867 0.0
C488 C 0.62127 0.2745 0.82186 0.0
C489 C 0.65511 0.30074 0.85885 0.0
C490 C 0.28112 0.83792 0.58367 0.0
C491 C 0.225 0.84304 0.58286 0.0
C492 C 0.31246 0.87212 0.61458 0.0
C493 C 0.28846 0.91159 0.64647 0.0
H494 H 0.30122 0.81069 0.55644 0.0
H495 H 0.35547 0.87107 0.60934 0.0
S496 S 0.14323 0.92986 0.67149 0.0
N497 N 0.14674 0.88314 0.62496 0.0
N498 N 0.20564 0.94477 0.68612 0.0
C499 C 0.23241 0.9109 0.65283 0.0
C500 C 0.20052 0.87715 0.62025 0.0
C501 C 0.61547 0.71006 0.18646 0.0
C502 C 0.61751 0.76642 0.18278 0.0
C503 C 0.64384 0.67804 0.15001 0.0
C504 C 0.67652 0.70178 0.11084 0.0
H505 H 0.5855 0.69103 0.21169 0.0
H506 H 0.63452 0.63576 0.148 0.0
S507 S 0.71383 0.84496 0.10126 0.0
N508 N 0.66682 0.84291 0.14812 0.0
N509 N 0.72371 0.78232 0.08279 0.0
C510 C 0.68856 0.75663 0.11576 0.0
C511 C 0.65818 0.78936 0.15134 0.0
C512 C 0.75083 0.12895 0.68426 0.0
C513 C 0.75431 0.07575 0.66578 0.0
C514 C 0.77996 0.17024 0.65921 0.0
C515 C 0.81543 0.15938 0.61662 0.0
H516 H 0.72366 0.13927 0.71663 0.0
H517 H 0.77178 0.2112 0.67046 0.0
S518 S 0.83943 0.02823 0.55201 0.0
N519 N 0.79463 0.01607 0.59925 0.0
N520 N 0.85413 0.09215 0.55819 0.0
C521 C 0.82254 0.10606 0.60065 0.0
C522 C 0.79058 0.06471 0.62342 0.0
C523 C 0.41403 0.26715 0.15161 0.0
C524 C 0.41692 0.21131 0.14464 0.0
C525 C 0.3826 0.29844 0.11841 0.0
C526 C 0.35265 0.27458 0.07787 0.0
H527 H 0.44018 0.28718 0.17943 0.0
H528 H 0.38591 0.34155 0.12119 0.0
S529 S 0.33457 0.12922 0.05406 0.0
N530 N 0.37944 0.13287 0.10162 0.0
N531 N 0.31774 0.19155 0.04098 0.0
C532 C 0.34884 0.21838 0.07619 0.0
C533 C 0.38164 0.18661 0.10934 0.0
C534 C 0.86274 0.67053 0.72637 0.0
C535 C 0.91493 0.64974 0.72739 0.0
C536 C 0.82053 0.64462 0.75365 0.0
C537 C 0.83007 0.59861 0.78408 0.0
H538 H 0.85448 0.70654 0.70407 0.0
H539 H 0.78024 0.65956 0.74975 0.0
S540 S 0.95798 0.52551 0.79543 0.0
N541 N 0.97196 0.57699 0.75664 0.0
N542 N 0.89444 0.53224 0.81206 0.0
C543 C 0.88217 0.57821 0.78601 0.0
C544 C 0.92407 0.6026 0.75638 0.0
C545 C 0.94351 0.33732 0.20631 0.0
C546 C 0.93899 0.33556 0.26253 0.0
C547 C 0.91265 0.37265 0.17653 0.0
C548 C 0.87566 0.40623 0.20211 0.0
H549 H 0.97459 0.31499 0.18575 0.0
H550 H 0.92127 0.37714 0.13428 0.0
S551 S 0.83715 0.40535 0.34556 0.0
N552 N 0.88724 0.36286 0.34079 0.0
N553 N 0.82683 0.42651 0.28423 0.0
C554 C 0.8648 0.39855 0.25683 0.0
C555 C 0.89702 0.36366 0.28731 0.0
C556 C 0.1151 0.37768 0.70779 0.0
C557 C 0.06881 0.35208 0.72724 0.0
C558 C 0.1467 0.40845 0.74178 0.0
C559 C 0.13287 0.41455 0.7961 0.0
H560 H 0.12399 0.37849 0.66536 0.0
H561 H 0.17908 0.43185 0.7245 0.0
S562 S 0.0233 0.34542 0.86873 0.0
N563 N 0.01703 0.32591 0.80607 0.0
N564 N 0.07575 0.38567 0.86951 0.0
C565 C 0.09089 0.38386 0.81726 0.0
C566 C 0.05892 0.35208 0.7828 0.0
C567 C 0.06066 0.595 0.24248 0.0
C568 C 0.07424 0.6404 0.27291 0.0
C569 C 0.09836 0.5686 0.21126 0.0
C570 C 0.15192 0.58466 0.21107 0.0
H571 H 0.02066 0.57832 0.24397 0.0
H572 H 0.08634 0.53256 0.1904 0.0
S573 S 0.20906 0.70184 0.28076 0.0
N574 N 0.14487 0.70289 0.29711 0.0
N575 N 0.2175 0.64916 0.24159 0.0
C576 C 0.1666 0.63036 0.23996 0.0
C577 C 0.12742 0.6589 0.2706 0.0
C578 C 0.77857 0.87068 0.69307 0.0
C579 C 0.72416 0.88307 0.68581 0.0
C580 C 0.80685 0.84089 0.65468 0.0
C581 C 0.78062 0.82047 0.60987 0.0
H582 H 0.8011 0.89087 0.72378 0.0
H583 H 0.85002 0.83966 0.65685 0.0
S584 S 0.63466 0.81836 0.58794 0.0
N585 N 0.64256 0.85741 0.64045 0.0
N586 N 0.69498 0.79695 0.57164 0.0
C587 C 0.72446 0.82117 0.60998 0.0
C588 C 0.69606 0.85333 0.64761 0.0
C589 C 0.68529 0.21264 0.09876 0.0
C590 C 0.68232 0.26896 0.09617 0.0
C591 C 0.6502 0.18327 0.13154 0.0
C592 C 0.61201 0.20954 0.16339 0.0
H593 H 0.71043 0.19098 0.07066 0.0
H594 H 0.64866 0.14021 0.12692 0.0
S595 S 0.60046 0.35578 0.18458 0.0
N596 N 0.64677 0.34952 0.13744 0.0
N597 N 0.58297 0.29428 0.20133 0.0
C598 C 0.61579 0.26553 0.16861 0.0
C599 C 0.65053 0.29543 0.13432 0.0
C600 C 0.24236 0.11126 0.6648 0.0
C601 C 0.29787 0.10811 0.65478 0.0
C602 C 0.21068 0.14672 0.6362 0.0
C603 C 0.23411 0.18032 0.59777 0.0
H604 H 0.22255 0.08151 0.68954 0.0
H605 H 0.16766 0.14209 0.63853 0.0
S606 S 0.37877 0.2021 0.57308 0.0
N607 N 0.37584 0.15153 0.61529 0.0
N608 N 0.31632 0.22063 0.56395 0.0
C609 C 0.29014 0.18582 0.59677 0.0
C610 C 0.32232 0.14865 0.62458 0.0
C611 C 0.35192 0.77691 0.09857 0.0
C612 C 0.35205 0.72055 0.09524 0.0
C613 C 0.38708 0.8041 0.13204 0.0
C614 C 0.42206 0.77564 0.16454 0.0
H615 H 0.32832 0.80026 0.07128 0.0
H616 H 0.39038 0.84714 0.12847 0.0
S617 S 0.42364 0.62884 0.18535 0.0
N618 N 0.38123 0.63785 0.13638 0.0
N619 N 0.44351 0.68922 0.20311 0.0
C620 C 0.41519 0.71985 0.16889 0.0
C621 C 0.38093 0.69207 0.13335 0.0
C622 C 0.74892 0.18272 0.39738 0.0
C623 C 0.75066 0.17445 0.45304 0.0
C624 C 0.71757 0.14988 0.36449 0.0
C625 C 0.68565 0.10894 0.38638 0.0
H626 H 0.77437 0.21246 0.37855 0.0
H627 H 0.72186 0.15352 0.32157 0.0
S628 S 0.67004 0.07256 0.5285 0.0
N629 N 0.71424 0.12151 0.52767 0.0
N630 N 0.65207 0.0653 0.46592 0.0
C631 C 0.68201 0.10415 0.44182 0.0
C632 C 0.71553 0.13528 0.47518 0.0
C633 C 0.38177 0.3201 0.85109 0.0
C634 C 0.34333 0.29456 0.88329 0.0
C635 C 0.41663 0.28996 0.81887 0.0
C636 C 0.41489 0.23347 0.81925 0.0
H637 H 0.38947 0.36248 0.8559 0.0
H638 H 0.44886 0.31074 0.79827 0.0
S639 S 0.31023 0.15012 0.88474 0.0
N640 N 0.29563 0.21199 0.90253 0.0
N641 N 0.36349 0.15474 0.84542 0.0
C642 C 0.37092 0.20857 0.8444 0.0
C643 C 0.33432 0.23952 0.87551 0.0
C644 C 0.2755 0.81099 0.38456 0.0
C645 C 0.21949 0.81641 0.38828 0.0
C646 C 0.30606 0.84572 0.35265 0.0
C647 C 0.28105 0.88528 0.32241 0.0
H648 H 0.29614 0.7856 0.41247 0.0
H649 H 0.34904 0.84593 0.35714 0.0
S650 S 0.13554 0.8989 0.30075 0.0
N651 N 0.14023 0.85273 0.34743 0.0
N652 N 0.19755 0.91547 0.28431 0.0
C653 C 0.22517 0.88244 0.3168 0.0
C654 C 0.19416 0.8482 0.35044 0.0
C655 C 0.62194 0.6957 0.87803 0.0
C656 C 0.65557 0.7176 0.91664 0.0
C657 C 0.59072 0.72896 0.8465 0.0
C658 C 0.59132 0.78496 0.85355 0.0
H659 H 0.61583 0.65287 0.87564 0.0
H660 H 0.56222 0.71047 0.81996 0.0
S661 S 0.68457 0.86162 0.93815 0.0
N662 N 0.6982 0.79834 0.9504 0.0
N663 N 0.6364 0.86085 0.89381 0.0
C664 C 0.63022 0.80736 0.88653 0.0
C665 C 0.6631 0.77351 0.91757 0.0
loop_
_geom_bond_atom_site_label_1
_geom_bond_atom_site_label_2
_geom_bond_distance
_geom_bond_site_symmetry_2
_ccdc_geom_bond_type
C0 O1 1.201 . S
C0 C2 1.493 . S
C0 N17 1.318 . S
O1 C0 1.201 . S
C2 C0 1.493 . S
C2 C3 1.381 . S
C2 N7 1.335 1_655 S
C3 C2 1.381 . S
C3 C4 1.411 1_655 S
C3 H49 0.931 . S
C4 C3 1.411 1_455 S
C4 C5 1.384 . S
C4 H50 0.930 . S
C5 C4 1.384 . S
C5 C6 1.376 . S
C5 H51 0.929 . S
C6 C5 1.376 . S
C6 N7 1.330 . S
C6 C21 1.484 . S
N7 C2 1.335 1_455 S
N7 C6 1.330 . S
N7 Co9 1.859 . S
N8 Co9 1.962 . S
N8 C19 1.318 . S
N8 C43 1.421 . S
Co9 N7 1.859 . S
Co9 N8 1.962 . S
Co9 N10 1.859 . S
Co9 N16 1.958 . S
Co9 N17 1.962 1_455 S
Co9 N18 1.958 . S
N10 Co9 1.859 . S
N10 C14 1.330 . S
N10 C15 1.335 . S
C11 C12 1.411 . S
C11 C15 1.381 . S
C11 H52 0.931 . S
C12 C11 1.411 . S
C12 C13 1.384 . S
C12 H53 0.930 . S
C13 C12 1.384 . S
C13 C14 1.376 . S
C13 H54 0.929 . S
C14 N10 1.330 . S
C14 C13 1.376 . S
C14 C29 1.484 . S
C15 N10 1.335 . S
C15 C11 1.381 . S
C15 C19 1.493 . S
N16 Co9 1.958 . S
N16 C29 1.344 . S
N16 C31 1.425 . S
N17 C0 1.318 . S
N17 Co9 1.962 1_655 S
N17 C37 1.421 . S
N18 Co9 1.958 . S
N18 C21 1.344 . S
N18 C23 1.425 . S
C19 N8 1.318 . S
C19 C15 1.493 . S
C19 O20 1.201 . S
O20 C19 1.201 . S
C21 C6 1.484 . S
C21 N18 1.344 . S
C21 O22 1.268 . S
O22 C21 1.268 . S
C23 N18 1.425 . S
C23 C25 1.392 . S
C23 C26 1.368 . S
C24 C25 1.382 . S
C24 C28 1.386 . S
C25 C23 1.392 . S
C25 C24 1.382 . S
C25 H55 0.928 . S
C26 C23 1.368 . S
C26 C27 1.367 . S
C26 H56 0.930 . S
C27 C26 1.367 . S
C27 C28 1.369 . S
C28 C24 1.386 . S
C28 C27 1.369 . S
C28 H57 0.930 . S
C29 C14 1.484 . S
C29 N16 1.344 . S
C29 O30 1.268 . S
O30 C29 1.268 . S
C31 N16 1.425 . S
C31 C32 1.368 . S
C31 C36 1.392 1_455 S
C32 C31 1.368 . S
C32 C33 1.367 . S
C32 H58 0.930 . S
C33 C32 1.367 . S
C33 C34 1.369 . S
C34 C33 1.369 . S
C34 C35 1.386 1_455 S
C34 H59 0.930 . S
C35 C34 1.386 1_655 S
C35 C36 1.382 . S
C36 C31 1.392 1_655 S
C36 C35 1.382 . S
C36 H60 0.928 . S
C37 N17 1.421 . S
C37 C38 1.371 . S
C37 C42 1.385 . S
C38 C37 1.371 . S
C38 C39 1.367 . S
C38 H61 0.931 . S
C39 C38 1.367 . S
C39 C40 1.401 . S
C40 C39 1.401 . S
C40 C41 1.385 . S
C40 H62 0.930 . S
C41 C40 1.385 . S
C41 C42 1.402 . S
C42 C37 1.385 . S
C42 C41 1.402 . S
C42 H63 0.929 . S
C43 N8 1.421 . S
C43 C46 1.385 1_455 S
C43 C47 1.371 . S
C44 C45 1.385 1_455 S
C44 C48 1.401 . S
C44 H64 0.930 . S
C45 C44 1.385 1_655 S
C45 C46 1.402 . S
C46 C43 1.385 1_655 S
C46 C45 1.402 . S
C46 H65 0.929 . S
C47 C43 1.371 . S
C47 C48 1.367 . S
C47 H66 0.931 . S
C48 C44 1.401 . S
C48 C47 1.367 . S
H49 C3 0.931 . S
H50 C4 0.930 . S
H51 C5 0.929 . S
H52 C11 0.931 . S
H53 C12 0.930 . S
H54 C13 0.929 . S
H55 C25 0.928 . S
H56 C26 0.930 . S
H57 C28 0.930 . S
H58 C32 0.930 . S
H59 C34 0.930 . S
H60 C36 0.928 . S
H61 C38 0.931 . S
H62 C40 0.930 . S
H63 C42 0.929 . S
H64 C44 0.930 . S
H65 C46 0.929 . S
H66 C47 0.931 . S
C67 O68 1.201 . S
C67 C69 1.493 . S
C67 N84 1.318 . S
O68 C67 1.201 . S
C69 C67 1.493 . S
C69 C70 1.381 . S
C69 N74 1.335 1_556 S
C70 C69 1.381 . S
C70 C71 1.411 1_556 S
C70 H116 0.931 . S
C71 C70 1.411 1_554 S
C71 C72 1.384 . S
C71 H117 0.930 . S
C72 C71 1.384 . S
C72 C73 1.376 . S
C72 H118 0.929 . S
C73 C72 1.376 . S
C73 N74 1.330 . S
C73 C88 1.484 . S
N74 C69 1.335 1_554 S
N74 C73 1.330 . S
N74 Co76 1.859 . S
N75 Co76 1.962 . S
N75 C86 1.318 . S
N75 C110 1.421 . S
Co76 N74 1.859 . S
Co76 N75 1.962 . S
Co76 N77 1.859 . S
Co76 N83 1.958 . S
Co76 N84 1.962 1_554 S
Co76 N85 1.958 . S
N77 Co76 1.859 . S
N77 C81 1.330 . S
N77 C82 1.335 . S
C78 C79 1.411 . S
C78 C82 1.381 . S
C78 H119 0.931 . S
C79 C78 1.411 . S
C79 C80 1.384 . S
C79 H120 0.930 . S
C80 C79 1.384 . S
C80 C81 1.376 . S
C80 H121 0.929 . S
C81 N77 1.330 . S
C81 C80 1.376 . S
C81 C96 1.484 . S
C82 N77 1.335 . S
C82 C78 1.381 . S
C82 C86 1.493 . S
N83 Co76 1.958 . S
N83 C96 1.344 . S
N83 C98 1.425 . S
N84 C67 1.318 . S
N84 Co76 1.962 1_556 S
N84 C104 1.421 . S
N85 Co76 1.958 . S
N85 C88 1.344 . S
N85 C90 1.425 . S
C86 N75 1.318 . S
C86 C82 1.493 . S
C86 O87 1.201 . S
O87 C86 1.201 . S
C88 C73 1.484 . S
C88 N85 1.344 . S
C88 O89 1.268 . S
O89 C88 1.268 . S
C90 N85 1.425 . S
C90 C92 1.392 . S
C90 C93 1.368 . S
C91 C92 1.382 . S
C91 C95 1.386 . S
C92 C90 1.392 . S
C92 C91 1.382 . S
C92 H122 0.928 . S
C93 C90 1.368 . S
C93 C94 1.367 . S
C93 H123 0.930 . S
C94 C93 1.367 . S
C94 C95 1.369 . S
C95 C91 1.386 . S
C95 C94 1.369 . S
C95 H124 0.930 . S
C96 C81 1.484 . S
C96 N83 1.344 . S
C96 O97 1.268 . S
O97 C96 1.268 . S
C98 N83 1.425 . S
C98 C99 1.368 . S
C98 C103 1.392 1_554 S
C99 C98 1.368 . S
C99 C100 1.367 . S
C99 H125 0.930 . S
C100 C99 1.367 . S
C100 C101 1.369 1_554 S
C101 C100 1.369 1_556 S
C101 C102 1.386 . S
C101 H126 0.930 . S
C102 C101 1.386 . S
C102 C103 1.382 . S
C103 C98 1.392 1_556 S
C103 C102 1.382 . S
C103 H127 0.928 . S
C104 N84 1.421 . S
C104 C105 1.371 . S
C104 C109 1.385 . S
C105 C104 1.371 . S
C105 C106 1.367 . S
C105 H128 0.931 . S
C106 C105 1.367 . S
C106 C107 1.401 . S
C107 C106 1.401 . S
C107 C108 1.385 . S
C107 H129 0.930 . S
C108 C107 1.385 . S
C108 C109 1.402 . S
C109 C104 1.385 . S
C109 C108 1.402 . S
C109 H130 0.929 . S
C110 N75 1.421 . S
C110 C113 1.385 1_554 S
C110 C114 1.371 . S
C111 C112 1.385 1_554 S
C111 C115 1.401 . S
C111 H131 0.930 . S
C112 C111 1.385 1_556 S
C112 C113 1.402 . S
C113 C110 1.385 1_556 S
C113 C112 1.402 . S
C113 H132 0.929 . S
C114 C110 1.371 . S
C114 C115 1.367 . S
C114 H133 0.931 . S
C115 C111 1.401 . S
C115 C114 1.367 . S
H116 C70 0.931 . S
H117 C71 0.930 . S
H118 C72 0.929 . S
H119 C78 0.931 . S
H120 C79 0.930 . S
H121 C80 0.929 . S
H122 C92 0.928 . S
H123 C93 0.930 . S
H124 C95 0.930 . S
H125 C99 0.930 . S
H126 C101 0.930 . S
H127 C103 0.928 . S
H128 C105 0.931 . S
H129 C107 0.930 . S
H130 C109 0.929 . S
H131 C111 0.930 . S
H132 C113 0.929 . S
H133 C114 0.931 . S
C134 O135 1.201 . S
C134 C136 1.493 . S
C134 N151 1.318 . S
O135 C134 1.201 . S
C136 C134 1.493 . S
C136 C137 1.381 . S
C136 N141 1.335 1_455 S
C137 C136 1.381 . S
C137 C138 1.411 1_455 S
C137 H183 0.931 . S
C138 C137 1.411 1_655 S
C138 C139 1.384 . S
C138 H184 0.930 . S
C139 C138 1.384 . S
C139 C140 1.376 . S
C139 H185 0.929 . S
C140 C139 1.376 . S
C140 N141 1.330 . S
C140 C155 1.484 . S
N141 C136 1.335 1_655 S
N141 C140 1.330 . S
N141 Co143 1.859 . S
N142 Co143 1.962 . S
N142 C153 1.318 . S
N142 C177 1.420 1_655 S
Co143 N141 1.859 . S
Co143 N142 1.962 . S
Co143 N144 1.859 . S
Co143 N150 1.959 . S
Co143 N151 1.962 1_655 S
Co143 N152 1.958 . S
N144 Co143 1.859 . S
N144 C148 1.330 . S
N144 C149 1.335 . S
C145 C146 1.411 . S
C145 C149 1.381 . S
C145 H186 0.931 . S
C146 C145 1.411 . S
C146 C147 1.384 . S
C146 H187 0.930 . S
C147 C146 1.384 . S
C147 C148 1.376 . S
C147 H188 0.929 . S
C148 N144 1.330 . S
C148 C147 1.376 . S
C148 C163 1.484 . S
C149 N144 1.335 . S
C149 C145 1.381 . S
C149 C153 1.493 . S
N150 Co143 1.959 . S
N150 C163 1.345 . S
N150 C165 1.424 1_655 S
N151 C134 1.318 . S
N151 Co143 1.962 1_455 S
N151 C171 1.421 . S
N152 Co143 1.958 . S
N152 C155 1.344 . S
N152 C157 1.425 . S
C153 N142 1.318 . S
C153 C149 1.493 . S
C153 O154 1.201 . S
O154 C153 1.201 . S
C155 C140 1.484 . S
C155 N152 1.344 . S
C155 O156 1.268 . S
O156 C155 1.268 . S
C157 N152 1.425 . S
C157 C159 1.392 . S
C157 C160 1.368 . S
C158 C159 1.382 . S
C158 C162 1.386 . S
C159 C157 1.392 . S
C159 C158 1.382 . S
C159 H189 0.928 . S
C160 C157 1.368 . S
C160 C161 1.367 . S
C160 H190 0.930 . S
C161 C160 1.367 . S
C161 C162 1.369 . S
C162 C158 1.386 . S
C162 C161 1.369 . S
C162 H191 0.930 . S
C163 C148 1.484 . S
C163 N150 1.345 . S
C163 O164 1.268 . S
O164 C163 1.268 . S
C165 N150 1.424 1_455 S
C165 C166 1.368 1_455 S
C165 C170 1.392 . S
C166 C165 1.368 1_655 S
C166 C167 1.367 . S
C166 H192 0.930 . S
C167 C166 1.367 . S
C167 C168 1.369 1_655 S
C168 C167 1.369 1_455 S
C168 C169 1.386 . S
C168 H193 0.930 . S
C169 C168 1.386 . S
C169 C170 1.382 . S
C170 C165 1.392 . S
C170 C169 1.382 . S
C170 H194 0.928 . S
C171 N151 1.421 . S
C171 C172 1.371 . S
C171 C176 1.385 . S
C172 C171 1.371 . S
C172 C173 1.367 . S
C172 H195 0.931 . S
C173 C172 1.367 . S
C173 C174 1.401 . S
C174 C173 1.401 . S
C174 C175 1.385 . S
C174 H196 0.930 . S
C175 C174 1.385 . S
C175 C176 1.402 . S
C176 C171 1.385 . S
C176 C175 1.402 . S
C176 H197 0.929 . S
C177 N142 1.420 1_455 S
C177 C180 1.399 . S
C177 C181 1.358 1_455 S
C178 C179 1.385 . S
C178 C182 1.401 1_455 S
C178 H198 0.930 . S
C179 C178 1.385 . S
C179 C180 1.402 . S
C180 C177 1.399 . S
C180 C179 1.402 . S
C180 H199 0.929 . S
C181 C177 1.358 1_655 S
C181 C182 1.367 . S
C181 H200 0.931 . S
C182 C178 1.401 1_655 S
C182 C181 1.367 . S
H183 C137 0.931 . S
H184 C138 0.930 . S
H185 C139 0.929 . S
H186 C145 0.931 . S
H187 C146 0.930 . S
H188 C147 0.929 . S
H189 C159 0.928 . S
H190 C160 0.930 . S
H191 C162 0.930 . S
H192 C166 0.930 . S
H193 C168 0.930 . S
H194 C170 0.928 . S
H195 C172 0.931 . S
H196 C174 0.930 . S
H197 C176 0.929 . S
H198 C178 0.930 . S
H199 C180 0.929 . S
H200 C181 0.931 . S
C201 O202 1.201 . S
C201 C203 1.493 . S
C201 N218 1.318 . S
O202 C201 1.201 . S
C203 C201 1.493 . S
C203 C204 1.381 . S
C203 N208 1.335 1_556 S
C204 C203 1.381 . S
C204 C205 1.411 1_556 S
C204 H250 0.931 . S
C205 C204 1.411 1_554 S
C205 C206 1.384 . S
C205 H251 0.930 . S
C206 C205 1.384 . S
C206 C207 1.376 . S
C206 H252 0.929 . S
C207 C206 1.376 . S
C207 N208 1.330 . S
C207 C222 1.484 . S
N208 C203 1.335 1_554 S
N208 C207 1.330 . S
N208 Co210 1.859 . S
N209 Co210 1.962 . S
N209 C220 1.318 . S
N209 C244 1.421 . S
Co210 N208 1.859 . S
Co210 N209 1.962 . S
Co210 N211 1.859 . S
Co210 N217 1.958 . S
Co210 N218 1.962 1_554 S
Co210 N219 1.958 . S
N211 Co210 1.859 . S
N211 C215 1.330 . S
N211 C216 1.335 . S
C212 C213 1.411 . S
C212 C216 1.381 . S
C212 H253 0.931 . S
C213 C212 1.411 . S
C213 C214 1.384 . S
C213 H254 0.930 . S
C214 C213 1.384 . S
C214 C215 1.376 . S
C214 H255 0.929 . S
C215 N211 1.330 . S
C215 C214 1.376 . S
C215 C230 1.484 . S
C216 N211 1.335 . S
C216 C212 1.381 . S
C216 C220 1.493 . S
N217 Co210 1.958 . S
N217 C230 1.344 . S
N217 C232 1.425 . S
N218 C201 1.318 . S
N218 Co210 1.962 1_556 S
N218 C238 1.421 . S
N219 Co210 1.958 . S
N219 C222 1.344 . S
N219 C224 1.425 . S
C220 N209 1.318 . S
C220 C216 1.493 . S
C220 O221 1.201 . S
O221 C220 1.201 . S
C222 C207 1.484 . S
C222 N219 1.344 . S
C222 O223 1.268 . S
O223 C222 1.268 . S
C224 N219 1.425 . S
C224 C226 1.392 . S
C224 C227 1.368 . S
C225 C226 1.382 . S
C225 C229 1.386 . S
C226 C224 1.392 . S
C226 C225 1.382 . S
C226 H256 0.928 . S
C227 C224 1.368 . S
C227 C228 1.367 . S
C227 H257 0.930 . S
C228 C227 1.367 . S
C228 C229 1.369 . S
C229 C225 1.386 . S
C229 C228 1.369 . S
C229 H258 0.930 . S
C230 C215 1.484 . S
C230 N217 1.344 . S
C230 O231 1.268 . S
O231 C230 1.268 . S
C232 N217 1.425 . S
C232 C233 1.368 . S
C232 C237 1.392 1_554 S
C233 C232 1.368 . S
C233 C234 1.367 . S
C233 H259 0.930 . S
C234 C233 1.367 . S
C234 C235 1.369 1_554 S
C235 C234 1.369 1_556 S
C235 C236 1.386 . S
C235 H260 0.930 . S
C236 C235 1.386 . S
C236 C237 1.382 . S
C237 C232 1.392 1_556 S
C237 C236 1.382 . S
C237 H261 0.928 . S
C238 N218 1.421 . S
C238 C239 1.371 . S
C238 C243 1.385 . S
C239 C238 1.371 . S
C239 C240 1.367 . S
C239 H262 0.931 . S
C240 C239 1.367 . S
C240 C241 1.401 . S
C241 C240 1.401 . S
C241 C242 1.385 . S
C241 H263 0.930 . S
C242 C241 1.385 . S
C242 C243 1.402 . S
C243 C238 1.385 . S
C243 C242 1.402 . S
C243 H264 0.929 . S
C244 N209 1.421 . S
C244 C247 1.385 1_554 S
C244 C248 1.371 . S
C245 C246 1.385 1_554 S
C245 C249 1.401 . S
C245 H265 0.930 . S
C246 C245 1.385 1_556 S
C246 C247 1.402 . S
C247 C244 1.385 1_556 S
C247 C246 1.402 . S
C247 H266 0.929 . S
C248 C244 1.371 . S
C248 C249 1.367 . S
C248 H267 0.931 . S
C249 C245 1.401 . S
C249 C248 1.367 . S
H250 C204 0.931 . S
H251 C205 0.930 . S
H252 C206 0.929 . S
H253 C212 0.931 . S
H254 C213 0.930 . S
H255 C214 0.929 . S
H256 C226 0.928 . S
H257 C227 0.930 . S
H258 C229 0.930 . S
H259 C233 0.930 . S
H260 C235 0.930 . S
H261 C237 0.928 . S
H262 C239 0.931 . S
H263 C241 0.930 . S
H264 C243 0.929 . S
H265 C245 0.930 . S
H266 C247 0.929 . S
H267 C248 0.931 . S
C268 O269 1.201 . S
C268 C270 1.493 . S
C268 N285 1.318 . S
O269 C268 1.201 . S
C270 C268 1.493 . S
C270 C271 1.381 . S
C270 N275 1.335 1_545 S
C271 C270 1.381 . S
C271 C272 1.411 1_545 S
C271 H317 0.931 . S
C272 C271 1.411 1_565 S
C272 C273 1.384 . S
C272 H318 0.930 . S
C273 C272 1.384 . S
C273 C274 1.376 . S
C273 H319 0.929 . S
C274 C273 1.376 . S
C274 N275 1.330 . S
C274 C289 1.484 . S
N275 C270 1.335 1_565 S
N275 C274 1.330 . S
N275 Co277 1.859 . S
N276 Co277 1.962 . S
N276 C287 1.318 . S
N276 C311 1.421 . S
Co277 N275 1.859 . S
Co277 N276 1.962 . S
Co277 N278 1.859 . S
Co277 N284 1.958 . S
Co277 N285 1.962 1_565 S
Co277 N286 1.958 . S
N278 Co277 1.859 . S
N278 C282 1.330 . S
N278 C283 1.335 . S
C279 C280 1.411 . S
C279 C283 1.381 . S
C279 H320 0.931 . S
C280 C279 1.411 . S
C280 C281 1.384 . S
C280 H321 0.930 . S
C281 C280 1.384 . S
C281 C282 1.376 . S
C281 H322 0.929 . S
C282 N278 1.330 . S
C282 C281 1.376 . S
C282 C297 1.484 . S
C283 N278 1.335 . S
C283 C279 1.381 . S
C283 C287 1.493 . S
N284 Co277 1.958 . S
N284 C297 1.344 . S
N284 C299 1.425 . S
N285 C268 1.318 . S
N285 Co277 1.962 1_545 S
N285 C305 1.421 . S
N286 Co277 1.958 . S
N286 C289 1.344 . S
N286 C291 1.425 . S
C287 N276 1.318 . S
C287 C283 1.493 . S
C287 O288 1.201 . S
O288 C287 1.201 . S
C289 C274 1.484 . S
C289 N286 1.344 . S
C289 O290 1.268 . S
O290 C289 1.268 . S
C291 N286 1.425 . S
C291 C293 1.392 . S
C291 C294 1.368 . S
C292 C293 1.382 . S
C292 C296 1.386 . S
C293 C291 1.392 . S
C293 C292 1.382 . S
C293 H323 0.928 . S
C294 C291 1.368 . S
C294 C295 1.367 . S
C294 H324 0.930 . S
C295 C294 1.367 . S
C295 C296 1.369 . S
C296 C292 1.386 . S
C296 C295 1.369 . S
C296 H325 0.930 . S
C297 C282 1.484 . S
C297 N284 1.344 . S
C297 O298 1.268 . S
O298 C297 1.268 . S
C299 N284 1.425 . S
C299 C300 1.369 . S
C299 C304 1.391 1_565 S
C300 C299 1.369 . S
C300 C301 1.367 . S
C300 H326 0.930 . S
C301 C300 1.367 . S
C301 C302 1.369 1_565 S
C302 C301 1.369 1_545 S
C302 C303 1.386 . S
C302 H327 0.930 . S
C303 C302 1.386 . S
C303 C304 1.382 . S
C304 C299 1.391 1_545 S
C304 C303 1.382 . S
C304 H328 0.928 . S
C305 N285 1.421 . S
C305 C306 1.371 . S
C305 C310 1.385 . S
C306 C305 1.371 . S
C306 C307 1.367 . S
C306 H329 0.931 . S
C307 C306 1.367 . S
C307 C308 1.401 . S
C308 C307 1.401 . S
C308 C309 1.385 . S
C308 H330 0.930 . S
C309 C308 1.385 . S
C309 C310 1.402 . S
C310 C305 1.385 . S
C310 C309 1.402 . S
C310 H331 0.929 . S
C311 N276 1.421 . S
C311 C314 1.385 1_565 S
C311 C315 1.371 . S
C312 C313 1.372 1_565 S
C312 C316 1.414 . S
C312 H332 0.930 . S
C313 C312 1.372 1_545 S
C313 C314 1.402 . S
C314 C311 1.385 1_545 S
C314 C313 1.402 . S
C314 H333 0.929 . S
C315 C311 1.371 . S
C315 C316 1.367 . S
C315 H334 0.931 . S
C316 C312 1.414 . S
C316 C315 1.367 . S
H317 C271 0.931 . S
H318 C272 0.930 . S
H319 C273 0.929 . S
H320 C279 0.931 . S
H321 C280 0.930 . S
H322 C281 0.929 . S
H323 C293 0.928 . S
H324 C294 0.930 . S
H325 C296 0.930 . S
H326 C300 0.930 . S
H327 C302 0.930 . S
H328 C304 0.928 . S
H329 C306 0.931 . S
H330 C308 0.930 . S
H331 C310 0.929 . S
H332 C312 0.930 . S
H333 C314 0.929 . S
H334 C315 0.931 . S
C335 O336 1.201 . S
C335 C337 1.493 . S
C335 N352 1.318 . S
O336 C335 1.201 . S
C337 C335 1.493 . S
C337 C338 1.381 . S
C337 N342 1.335 1_565 S
C338 C337 1.381 . S
C338 C339 1.411 1_565 S
C338 H384 0.931 . S
C339 C338 1.411 1_545 S
C339 C340 1.384 . S
C339 H385 0.930 . S
C340 C339 1.384 . S
C340 C341 1.376 . S
C340 H386 0.929 . S
C341 C340 1.376 . S
C341 N342 1.330 . S
C341 C356 1.484 . S
N342 C337 1.335 1_545 S
N342 C341 1.330 . S
N342 Co344 1.859 . S
N343 Co344 1.962 . S
N343 C354 1.318 . S
N343 C378 1.421 . S
Co344 N342 1.859 . S
Co344 N343 1.962 . S
Co344 N345 1.859 . S
Co344 N351 1.958 . S
Co344 N352 1.962 1_545 S
Co344 N353 1.958 . S
N345 Co344 1.859 . S
N345 C349 1.330 . S
N345 C350 1.335 . S
C346 C347 1.411 . S
C346 C350 1.381 . S
C346 H387 0.931 . S
C347 C346 1.411 . S
C347 C348 1.384 . S
C347 H388 0.930 . S
C348 C347 1.384 . S
C348 C349 1.376 . S
C348 H389 0.929 . S
C349 N345 1.330 . S
C349 C348 1.376 . S
C349 C364 1.484 . S
C350 N345 1.335 . S
C350 C346 1.381 . S
C350 C354 1.493 . S
N351 Co344 1.958 . S
N351 C364 1.344 . S
N351 C366 1.425 . S
N352 C335 1.318 . S
N352 Co344 1.962 1_565 S
N352 C372 1.421 . S
N353 Co344 1.958 . S
N353 C356 1.344 . S
N353 C358 1.425 . S
C354 N343 1.318 . S
C354 C350 1.493 . S
C354 O355 1.201 . S
O355 C354 1.201 . S
C356 C341 1.484 . S
C356 N353 1.344 . S
C356 O357 1.268 . S
O357 C356 1.268 . S
C358 N353 1.425 . S
C358 C360 1.392 . S
C358 C361 1.368 . S
C359 C360 1.382 . S
C359 C363 1.386 . S
C360 C358 1.392 . S
C360 C359 1.382 . S
C360 H390 0.928 . S
C361 C358 1.368 . S
C361 C362 1.367 . S
C361 H391 0.930 . S
C362 C361 1.367 . S
C362 C363 1.369 . S
C363 C359 1.386 . S
C363 C362 1.369 . S
C363 H392 0.930 . S
C364 C349 1.484 . S
C364 N351 1.344 . S
C364 O365 1.268 . S
O365 C364 1.268 . S
C366 N351 1.425 . S
C366 C367 1.368 . S
C366 C371 1.392 1_545 S
C367 C366 1.368 . S
C367 C368 1.367 . S
C367 H393 0.930 . S
C368 C367 1.367 . S
C368 C369 1.351 1_545 S
C369 C368 1.351 1_565 S
C369 C370 1.403 . S
C369 H394 0.932 . S
C370 C369 1.403 . S
C370 C371 1.382 . S
C371 C366 1.392 1_565 S
C371 C370 1.382 . S
C371 H395 0.928 . S
C372 N352 1.421 . S
C372 C373 1.371 . S
C372 C377 1.385 . S
C373 C372 1.371 . S
C373 C374 1.367 . S
C373 H396 0.931 . S
C374 C373 1.367 . S
C374 C375 1.401 . S
C375 C374 1.401 . S
C375 C376 1.385 . S
C375 H397 0.930 . S
C376 C375 1.385 . S
C376 C377 1.402 . S
C377 C372 1.385 . S
C377 C376 1.402 . S
C377 H398 0.929 . S
C378 N343 1.421 . S
C378 C381 1.385 1_545 S
C378 C382 1.371 . S
C379 C380 1.385 1_545 S
C379 C383 1.401 . S
C379 H399 0.930 . S
C380 C379 1.385 1_565 S
C380 C381 1.402 . S
C381 C378 1.385 1_565 S
C381 C380 1.402 . S
C381 H400 0.929 . S
C382 C378 1.371 . S
C382 C383 1.367 . S
C382 H401 0.931 . S
C383 C379 1.401 . S
C383 C382 1.367 . S
H384 C338 0.931 . S
H385 C339 0.930 . S
H386 C340 0.929 . S
H387 C346 0.931 . S
H388 C347 0.930 . S
H389 C348 0.929 . S
H390 C360 0.928 . S
H391 C361 0.930 . S
H392 C363 0.930 . S
H393 C367 0.930 . S
H394 C369 0.932 . S
H395 C371 0.928 . S
H396 C373 0.931 . S
H397 C375 0.930 . S
H398 C377 0.929 . S
H399 C379 0.930 . S
H400 C381 0.929 . S
H401 C382 0.931 . S
C402 C403 1.369 . S
C402 C404 1.419 . S
C402 H406 0.930 . S
C403 C402 1.369 . S
C403 C412 1.429 . S
C404 C402 1.419 . S
C404 C405 1.363 . S
C404 H407 0.929 . S
C405 C404 1.363 . S
C405 C411 1.428 . S
H406 C402 0.930 . S
H407 C404 0.929 . S
S408 N409 1.613 . S
S408 N410 1.610 . S
N409 S408 1.613 . S
N409 C412 1.350 . S
N410 S408 1.610 . S
N410 C411 1.351 . S
C411 C405 1.428 . S
C411 N410 1.351 . S
C411 C412 1.434 . S
C412 C403 1.429 . S
C412 N409 1.350 . S
C412 C411 1.434 . S
C413 C414 1.369 . S
C413 C415 1.419 . S
C413 H417 0.930 . S
C414 C413 1.369 . S
C414 C423 1.429 . S
C415 C413 1.419 . S
C415 C416 1.363 . S
C415 H418 0.929 . S
C416 C415 1.363 . S
C416 C422 1.428 . S
H417 C413 0.930 . S
H418 C415 0.929 . S
S419 N420 1.613 1_655 S
S419 N421 1.610 1_655 S
N420 S419 1.613 1_455 S
N420 C423 1.350 . S
N421 S419 1.610 1_455 S
N421 C422 1.351 . S
C422 C416 1.428 . S
C422 N421 1.351 . S
C422 C423 1.434 . S
C423 C414 1.429 . S
C423 N420 1.350 . S
C423 C422 1.434 . S
C424 C425 1.369 . S
C424 C426 1.419 . S
C424 H428 0.930 . S
C425 C424 1.369 . S
C425 C434 1.429 . S
C426 C424 1.419 . S
C426 C427 1.363 . S
C426 H429 0.929 . S
C427 C426 1.363 . S
C427 C433 1.428 . S
H428 C424 0.930 . S
H429 C426 0.929 . S
S430 N431 1.613 . S
S430 N432 1.610 . S
N431 S430 1.613 . S
N431 C434 1.350 . S
N432 S430 1.610 . S
N432 C433 1.351 . S
C433 C427 1.428 . S
C433 N432 1.351 . S
C433 C434 1.434 . S
C434 C425 1.429 . S
C434 N431 1.350 . S
C434 C433 1.434 . S
C435 C436 1.369 . S
C435 C437 1.419 . S
C435 H439 0.930 . S
C436 C435 1.369 . S
C436 C445 1.429 . S
C437 C435 1.419 . S
C437 C438 1.363 . S
C437 H440 0.929 . S
C438 C437 1.363 . S
C438 C444 1.428 . S
H439 C435 0.930 . S
H440 C437 0.929 . S
S441 N442 1.613 . S
S441 N443 1.610 . S
N442 S441 1.613 . S
N442 C445 1.350 . S
N443 S441 1.610 . S
N443 C444 1.351 . S
C444 C438 1.428 . S
C444 N443 1.351 . S
C444 C445 1.434 . S
C445 C436 1.429 . S
C445 N442 1.350 . S
C445 C444 1.434 . S
C446 C447 1.369 . S
C446 C448 1.419 . S
C446 H450 0.930 . S
C447 C446 1.369 . S
C447 C456 1.429 . S
C448 C446 1.419 . S
C448 C449 1.363 . S
C448 H451 0.929 . S
C449 C448 1.363 . S
C449 C455 1.428 . S
H450 C446 0.930 . S
H451 C448 0.929 . S
S452 N453 1.613 . S
S452 N454 1.610 . S
N453 S452 1.613 . S
N453 C456 1.350 . S
N454 S452 1.610 . S
N454 C455 1.351 . S
C455 C449 1.428 . S
C455 N454 1.351 . S
C455 C456 1.434 . S
C456 C447 1.429 . S
C456 N453 1.350 . S
C456 C455 1.434 . S
C457 C458 1.369 . S
C457 C459 1.419 . S
C457 H461 0.930 . S
C458 C457 1.369 . S
C458 C467 1.429 . S
C459 C457 1.419 . S
C459 C460 1.363 . S
C459 H462 0.929 . S
C460 C459 1.363 . S
C460 C466 1.428 . S
H461 C457 0.930 . S
H462 C459 0.929 . S
S463 N464 1.613 . S
S463 N465 1.610 . S
N464 S463 1.613 . S
N464 C467 1.350 . S
N465 S463 1.610 . S
N465 C466 1.351 . S
C466 C460 1.428 . S
C466 N465 1.351 . S
C466 C467 1.434 . S
C467 C458 1.429 . S
C467 N464 1.350 . S
C467 C466 1.434 . S
C468 C469 1.369 . S
C468 C470 1.419 . S
C468 H472 0.930 . S
C469 C468 1.369 . S
C469 C478 1.429 . S
C470 C468 1.419 . S
C470 C471 1.363 . S
C470 H473 0.929 . S
C471 C470 1.363 . S
C471 C477 1.428 . S
H472 C468 0.930 . S
H473 C470 0.929 . S
S474 N475 1.613 . S
S474 N476 1.610 . S
N475 S474 1.613 . S
N475 C478 1.350 . S
N476 S474 1.610 . S
N476 C477 1.351 . S
C477 C471 1.428 . S
C477 N476 1.351 . S
C477 C478 1.434 . S
C478 C469 1.429 . S
C478 N475 1.350 . S
C478 C477 1.434 . S
C479 C480 1.369 . S
C479 C481 1.419 . S
C479 H483 0.930 . S
C480 C479 1.369 . S
C480 C489 1.429 . S
C481 C479 1.419 . S
C481 C482 1.363 . S
C481 H484 0.929 . S
C482 C481 1.363 . S
C482 C488 1.428 . S
H483 C479 0.930 . S
H484 C481 0.929 . S
S485 N486 1.613 . S
S485 N487 1.610 . S
N486 S485 1.613 . S
N486 C489 1.350 . S
N487 S485 1.610 . S
N487 C488 1.351 . S
C488 C482 1.428 . S
C488 N487 1.351 . S
C488 C489 1.434 . S
C489 C480 1.429 . S
C489 N486 1.350 . S
C489 C488 1.434 . S
C490 C491 1.369 . S
C490 C492 1.419 . S
C490 H494 0.930 . S
C491 C490 1.369 . S
C491 C500 1.429 . S
C492 C490 1.419 . S
C492 C493 1.363 . S
C492 H495 0.929 . S
C493 C492 1.363 . S
C493 C499 1.428 . S
H494 C490 0.930 . S
H495 C492 0.929 . S
S496 N497 1.613 . S
S496 N498 1.610 . S
N497 S496 1.613 . S
N497 C500 1.350 . S
N498 S496 1.610 . S
N498 C499 1.351 . S
C499 C493 1.428 . S
C499 N498 1.351 . S
C499 C500 1.434 . S
C500 C491 1.429 . S
C500 N497 1.350 . S
C500 C499 1.434 . S
C501 C502 1.369 . S
C501 C503 1.419 . S
C501 H505 0.930 . S
C502 C501 1.369 . S
C502 C511 1.429 . S
C503 C501 1.419 . S
C503 C504 1.363 . S
C503 H506 0.929 . S
C504 C503 1.363 . S
C504 C510 1.428 . S
H505 C501 0.930 . S
H506 C503 0.929 . S
S507 N508 1.613 . S
S507 N509 1.610 . S
N508 S507 1.613 . S
N508 C511 1.350 . S
N509 S507 1.610 . S
N509 C510 1.351 . S
C510 C504 1.428 . S
C510 N509 1.351 . S
C510 C511 1.434 . S
C511 C502 1.429 . S
C511 N508 1.350 . S
C511 C510 1.434 . S
C512 C513 1.369 . S
C512 C514 1.419 . S
C512 H516 0.930 . S
C513 C512 1.369 . S
C513 C522 1.429 . S
C514 C512 1.419 . S
C514 C515 1.363 . S
C514 H517 0.929 . S
C515 C514 1.363 . S
C515 C521 1.428 . S
H516 C512 0.930 . S
H517 C514 0.929 . S
S518 N519 1.613 . S
S518 N520 1.610 . S
N519 S518 1.613 . S
N519 C522 1.350 . S
N520 S518 1.610 . S
N520 C521 1.351 . S
C521 C515 1.428 . S
C521 N520 1.351 . S
C521 C522 1.434 . S
C522 C513 1.429 . S
C522 N519 1.350 . S
C522 C521 1.434 . S
C523 C524 1.369 . S
C523 C525 1.419 . S
C523 H527 0.930 . S
C524 C523 1.369 . S
C524 C533 1.429 . S
C525 C523 1.419 . S
C525 C526 1.363 . S
C525 H528 0.929 . S
C526 C525 1.363 . S
C526 C532 1.428 . S
H527 C523 0.930 . S
H528 C525 0.929 . S
S529 N530 1.613 1_556 S
S529 N531 1.610 1_556 S
N530 S529 1.613 1_554 S
N530 C533 1.350 . S
N531 S529 1.610 1_554 S
N531 C532 1.351 . S
C532 C526 1.428 . S
C532 N531 1.351 . S
C532 C533 1.434 . S
C533 C524 1.429 . S
C533 N530 1.350 . S
C533 C532 1.434 . S
C534 C535 1.369 . S
C534 C536 1.419 . S
C534 H538 0.930 . S
C535 C534 1.369 . S
C535 C544 1.429 . S
C536 C534 1.419 . S
C536 C537 1.363 . S
C536 H539 0.929 . S
C537 C536 1.363 . S
C537 C543 1.428 . S
H538 C534 0.930 . S
H539 C536 0.929 . S
S540 N541 1.613 . S
S540 N542 1.610 . S
N541 S540 1.613 . S
N541 C544 1.350 . S
N542 S540 1.610 . S
N542 C543 1.351 . S
C543 C537 1.428 . S
C543 N542 1.351 . S
C543 C544 1.434 . S
C544 C535 1.429 . S
C544 N541 1.350 . S
C544 C543 1.434 . S
C545 C546 1.369 . S
C545 C547 1.419 . S
C545 H549 0.930 1_655 S
C546 C545 1.369 . S
C546 C555 1.429 . S
C547 C545 1.419 . S
C547 C548 1.363 . S
C547 H550 0.929 . S
C548 C547 1.363 . S
C548 C554 1.428 . S
H549 C545 0.930 1_455 S
H550 C547 0.929 . S
S551 N552 1.613 . S
S551 N553 1.610 . S
N552 S551 1.613 . S
N552 C555 1.350 . S
N553 S551 1.610 . S
N553 C554 1.351 . S
C554 C548 1.428 . S
C554 N553 1.351 . S
C554 C555 1.434 . S
C555 C546 1.429 . S
C555 N552 1.350 . S
C555 C554 1.434 . S
C556 C557 1.369 . S
C556 C558 1.419 . S
C556 H560 0.930 . S
C557 C556 1.369 . S
C557 C566 1.429 . S
C558 C556 1.419 . S
C558 C559 1.363 . S
C558 H561 0.929 . S
C559 C558 1.363 . S
C559 C565 1.428 . S
H560 C556 0.930 . S
H561 C558 0.929 . S
S562 N563 1.613 . S
S562 N564 1.610 . S
N563 S562 1.613 . S
N563 C566 1.350 . S
N564 S562 1.610 . S
N564 C565 1.351 . S
C565 C559 1.428 . S
C565 N564 1.351 . S
C565 C566 1.434 . S
C566 C557 1.429 . S
C566 N563 1.350 . S
C566 C565 1.434 . S
C567 C568 1.369 . S
C567 C569 1.419 . S
C567 H571 0.930 . S
C568 C567 1.369 . S
C568 C577 1.429 . S
C569 C567 1.419 . S
C569 C570 1.363 . S
C569 H572 0.929 . S
C570 C569 1.363 . S
C570 C576 1.428 . S
H571 C567 0.930 . S
H572 C569 0.929 . S
S573 N574 1.613 . S
S573 N575 1.610 . S
N574 S573 1.613 . S
N574 C577 1.350 . S
N575 S573 1.610 . S
N575 C576 1.351 . S
C576 C570 1.428 . S
C576 N575 1.351 . S
C576 C577 1.434 . S
C577 C568 1.429 . S
C577 N574 1.350 . S
C577 C576 1.434 . S
C578 C579 1.369 . S
C578 C580 1.419 . S
C578 H582 0.930 . S
C579 C578 1.369 . S
C579 C588 1.429 . S
C580 C578 1.419 . S
C580 C581 1.363 . S
C580 H583 0.929 . S
C581 C580 1.363 . S
C581 C587 1.428 . S
H582 C578 0.930 . S
H583 C580 0.929 . S
S584 N585 1.613 . S
S584 N586 1.610 . S
N585 S584 1.613 . S
N585 C588 1.350 . S
N586 S584 1.610 . S
N586 C587 1.351 . S
C587 C581 1.428 . S
C587 N586 1.351 . S
C587 C588 1.434 . S
C588 C579 1.429 . S
C588 N585 1.350 . S
C588 C587 1.434 . S
C589 C590 1.369 . S
C589 C591 1.419 . S
C589 H593 0.930 . S
C590 C589 1.369 . S
C590 C599 1.429 . S
C591 C589 1.419 . S
C591 C592 1.363 . S
C591 H594 0.929 . S
C592 C591 1.363 . S
C592 C598 1.428 . S
H593 C589 0.930 . S
H594 C591 0.929 . S
S595 N596 1.613 . S
S595 N597 1.610 . S
N596 S595 1.613 . S
N596 C599 1.350 . S
N597 S595 1.610 . S
N597 C598 1.351 . S
C598 C592 1.428 . S
C598 N597 1.351 . S
C598 C599 1.434 . S
C599 C590 1.429 . S
C599 N596 1.350 . S
C599 C598 1.434 . S
C600 C601 1.369 . S
C600 C602 1.419 . S
C600 H604 0.930 . S
C601 C600 1.369 . S
C601 C610 1.429 . S
C602 C600 1.419 . S
C602 C603 1.363 . S
C602 H605 0.929 . S
C603 C602 1.363 . S
C603 C609 1.428 . S
H604 C600 0.930 . S
H605 C602 0.929 . S
S606 N607 1.613 . S
S606 N608 1.610 . S
N607 S606 1.613 . S
N607 C610 1.350 . S
N608 S606 1.610 . S
N608 C609 1.351 . S
C609 C603 1.428 . S
C609 N608 1.351 . S
C609 C610 1.434 . S
C610 C601 1.429 . S
C610 N607 1.350 . S
C610 C609 1.434 . S
C611 C612 1.369 . S
C611 C613 1.419 . S
C611 H615 0.930 . S
C612 C611 1.369 . S
C612 C621 1.429 . S
C613 C611 1.419 . S
C613 C614 1.363 . S
C613 H616 0.929 . S
C614 C613 1.363 . S
C614 C620 1.428 . S
H615 C611 0.930 . S
H616 C613 0.929 . S
S617 N618 1.613 . S
S617 N619 1.610 . S
N618 S617 1.613 . S
N618 C621 1.350 . S
N619 S617 1.610 . S
N619 C620 1.351 . S
C620 C614 1.428 . S
C620 N619 1.351 . S
C620 C621 1.434 . S
C621 C612 1.429 . S
C621 N618 1.350 . S
C621 C620 1.434 . S
C622 C623 1.369 . S
C622 C624 1.419 . S
C622 H626 0.930 . S
C623 C622 1.369 . S
C623 C632 1.429 . S
C624 C622 1.419 . S
C624 C625 1.363 . S
C624 H627 0.929 . S
C625 C624 1.363 . S
C625 C631 1.428 . S
H626 C622 0.930 . S
H627 C624 0.929 . S
S628 N629 1.613 . S
S628 N630 1.610 . S
N629 S628 1.613 . S
N629 C632 1.350 . S
N630 S628 1.610 . S
N630 C631 1.351 . S
C631 C625 1.428 . S
C631 N630 1.351 . S
C631 C632 1.434 . S
C632 C623 1.429 . S
C632 N629 1.350 . S
C632 C631 1.434 . S
C633 C634 1.369 . S
C633 C635 1.419 . S
C633 H637 0.930 . S
C634 C633 1.369 . S
C634 C643 1.429 . S
C635 C633 1.419 . S
C635 C636 1.363 . S
C635 H638 0.929 . S
C636 C635 1.363 . S
C636 C642 1.428 . S
H637 C633 0.930 . S
H638 C635 0.929 . S
S639 N640 1.613 . S
S639 N641 1.610 . S
N640 S639 1.613 . S
N640 C643 1.350 . S
N641 S639 1.610 . S
N641 C642 1.351 . S
C642 C636 1.428 . S
C642 N641 1.351 . S
C642 C643 1.434 . S
C643 C634 1.429 . S
C643 N640 1.350 . S
C643 C642 1.434 . S
C644 C645 1.369 . S
C644 C646 1.419 . S
C644 H648 0.930 . S
C645 C644 1.369 . S
C645 C654 1.429 . S
C646 C644 1.419 . S
C646 C647 1.363 . S
C646 H649 0.929 . S
C647 C646 1.363 . S
C647 C653 1.428 . S
H648 C644 0.930 . S
H649 C646 0.929 . S
S650 N651 1.613 . S
S650 N652 1.610 . S
N651 S650 1.613 . S
N651 C654 1.350 . S
N652 S650 1.610 . S
N652 C653 1.351 . S
C653 C647 1.428 . S
C653 N652 1.351 . S
C653 C654 1.434 . S
C654 C645 1.429 . S
C654 N651 1.350 . S
C654 C653 1.434 . S
C655 C656 1.369 . S
C655 C657 1.419 . S
C655 H659 0.930 . S
C656 C655 1.369 . S
C656 C665 1.429 . S
C657 C655 1.419 . S
C657 C658 1.363 . S
C657 H660 0.929 . S
C658 C657 1.363 . S
C658 C664 1.428 . S
H659 C655 0.930 . S
H660 C657 0.929 . S
S661 N662 1.613 . S
S661 N663 1.610 . S
N662 S661 1.613 . S
N662 C665 1.350 . S
N663 S661 1.610 . S
N663 C664 1.351 . S
C664 C658 1.428 . S
C664 N663 1.351 . S
C664 C665 1.434 . S
C665 C656 1.429 . S
C665 N662 1.350 . S
C665 C664 1.434 . S
C403 C48 1.269 . S
C405 C91 1.279 . S
C414 C106 1.261 . S
C416 C169 1.279 . S
C425 C225 1.372 . S
C427 C182 1.337 . S
C436 C240 1.347 . S
C438 C35 1.366 . S
C447 C303 1.139 . S
C449 C24 1.130 . S
C458 C374 1.269 . S
C460 C102 1.285 . S
C469 C316 1.291 . S
C471 C158 1.298 . S
C480 C236 1.154 . S
C482 C359 1.152 . S
C491 C173 1.329 . S
C493 C370 1.344 . S
C502 C292 1.369 . S
C504 C249 1.340 . S
C513 C383 1.496 . S
C515 C39 1.500 . S
C524 C307 1.489 . S
C526 C115 1.479 . S
C535 C167 1.366 . S
C537 C242 1.340 . S
C546 C45 1.354 . S
C548 C228 1.364 . S
C557 C33 1.440 . S
C559 C108 1.436 . S
C568 C179 1.434 . S
C570 C94 1.445 . S
C579 C380 1.321 . S
C581 C161 1.337 . S
C590 C234 1.381 . S
C592 C309 1.352 . S
C601 C368 1.276 . S
C603 C27 1.265 . S
C612 C100 1.253 . S
C614 C295 1.238 . S
C623 C41 1.527 . S
C625 C313 1.534 . S
C634 C112 1.433 . S
C636 C362 1.461 . S
C645 C175 1.466 . S
C647 C301 1.478 . S
C656 C246 1.565 . S
C658 C376 1.566 . S
