# Generated by pormake.
# Topology qtz-e, (6)-cn, num edge types: 1
# Building blocks:
#     Node 0, Type 0, BuildingBlock: JUFBIX_clean_sbu_0, # of connection points: 6
#     Node 1, Type 0, BuildingBlock: JUFBIX_clean_sbu_0, # of connection points: 6
#     Node 2, Type 0, BuildingBlock: JUFBIX_clean_sbu_0, # of connection points: 6
#     Node 3, Type 0, BuildingBlock: JUFBIX_clean_sbu_0, # of connection points: 6
#     Node 4, Type 0, BuildingBlock: JUFBIX_clean_sbu_0, # of connection points: 6
#     Node 5, Type 0, BuildingBlock: JUFBIX_clean_sbu_0, # of connection points: 6
#     Edge 6, Type (0, 0), BuildingBlock: TEMPAE_clean_linker_10, # of connection points: 2
#     Edge 7, Type (0, 0), BuildingBlock: TEMPAE_clean_linker_10, # of connection points: 2
#     Edge 8, Type (0, 0), BuildingBlock: TEMPAE_clean_linker_10, # of connection points: 2
#     Edge 9, Type (0, 0), BuildingBlock: TEMPAE_clean_linker_10, # of connection points: 2
#     Edge 10, Type (0, 0), BuildingBlock: TEMPAE_clean_linker_10, # of connection points: 2
#     Edge 11, Type (0, 0), BuildingBlock: TEMPAE_clean_linker_10, # of connection points: 2
#     Edge 12, Type (0, 0), BuildingBlock: TEMPAE_clean_linker_10, # of connection points: 2
#     Edge 13, Type (0, 0), BuildingBlock: TEMPAE_clean_linker_10, # of connection points: 2
#     Edge 14, Type (0, 0), BuildingBlock: TEMPAE_clean_linker_10, # of connection points: 2
#     Edge 15, Type (0, 0), BuildingBlock: TEMPAE_clean_linker_10, # of connection points: 2
#     Edge 16, Type (0, 0), BuildingBlock: TEMPAE_clean_linker_10, # of connection points: 2
#     Edge 17, Type (0, 0), BuildingBlock: TEMPAE_clean_linker_10, # of connection points: 2
#     Edge 18, Type (0, 0), BuildingBlock: TEMPAE_clean_linker_10, # of connection points: 2
#     Edge 19, Type (0, 0), BuildingBlock: TEMPAE_clean_linker_10, # of connection points: 2
#     Edge 20, Type (0, 0), BuildingBlock: TEMPAE_clean_linker_10, # of connection points: 2
#     Edge 21, Type (0, 0), BuildingBlock: TEMPAE_clean_linker_10, # of connection points: 2
#     Edge 22, Type (0, 0), BuildingBlock: TEMPAE_clean_linker_10, # of connection points: 2
#     Edge 23, Type (0, 0), BuildingBlock: TEMPAE_clean_linker_10, # of connection points: 2
# Relax obj value: 0.652
# Max RMSD: 0.298
# Mean RMSD: 0.298
data_MOF--net-qtz-e--node1-JUFBIX_clean_sbu_0--edge1-TEMPAE_clean_linker_10
_symmetry_space_group_name_H-M    P1
_symmetry_Int_Tables_number       1
_symmetry_cell_setting            triclinic
loop_
_symmetry_equiv_pos_as_xyz
'x, y, z'
_cell_length_a     26.301051
_cell_length_b     26.316953
_cell_length_c     38.433479
_cell_angle_alpha  89.950699
_cell_angle_beta   90.016515
_cell_angle_gamma 119.94758
loop_
_atom_site_label
_atom_site_type_symbol
_atom_site_fract_x
_atom_site_fract_y
_atom_site_fract_z
_atom_type_partial_charge
Co0 Co 0.23206 0.41481 0.15657 0.0
C1 C 0.28364 0.35845 0.12527 0.0
Co2 Co 0.17667 0.354 0.11545 0.0
C3 C 0.27468 0.51212 0.20356 0.0
C4 C 0.30936 0.456 0.21553 0.0
N5 N 0.27672 0.46495 0.19187 0.0
N6 N 0.30263 0.53163 0.23423 0.0
C7 C 0.32538 0.49697 0.2416 0.0
H8 H 0.24991 0.52959 0.19099 0.0
H9 H 0.317 0.41925 0.21537 0.0
C10 C 0.12974 0.41831 0.14288 0.0
N11 N 0.13193 0.30233 0.08075 0.0
C12 C 0.15149 0.29355 0.05018 0.0
C13 C 0.07508 0.25979 0.08245 0.0
N14 N 0.10956 0.2466 0.03308 0.0
C15 C 0.06136 0.22501 0.05325 0.0
C16 C 0.15118 0.30477 0.18132 0.0
O17 O 0.17542 0.43865 0.16166 0.0
O18 O 0.1191 0.37728 0.12153 0.0
O19 O 0.13804 0.29343 0.14937 0.0
O20 O 0.1923 0.35529 0.18979 0.0
O21 O 0.23585 0.33342 0.10828 0.0
H22 H 0.0464 0.2527 0.10432 0.0
H23 H 0.19672 0.31867 0.04171 0.0
O24 O 0.28899 0.39231 0.15016 0.0
O25 O 0.27122 0.47461 0.12348 0.0
O26 O 0.21525 0.41473 0.08236 0.0
C27 C 0.25637 0.46492 0.09167 0.0
H28 H 0.34726 0.49766 0.26561 0.0
H29 H 0.01996 0.1858 0.04782 0.0
Co30 Co 0.75416 0.18213 0.37701 0.0
C31 C 0.70312 0.07326 0.40579 0.0
Co32 Co 0.80918 0.17612 0.41812 0.0
C33 C 0.73222 0.22261 0.31332 0.0
C34 C 0.65186 0.16613 0.33982 0.0
N35 N 0.71052 0.18973 0.34217 0.0
N36 N 0.68972 0.22098 0.29297 0.0
C37 C 0.6389 0.18543 0.30956 0.0
H38 H 0.77872 0.2489 0.30803 0.0
H39 H 0.6207 0.13749 0.35909 0.0
C40 C 0.85517 0.2879 0.39226 0.0
N41 N 0.85231 0.16716 0.45322 0.0
C42 C 0.82926 0.13369 0.48179 0.0
C43 C 0.90999 0.18469 0.45445 0.0
N44 N 0.86961 0.12805 0.50047 0.0
C45 C 0.92081 0.16072 0.48356 0.0
C46 C 0.83716 0.15586 0.35216 0.0
O47 O 0.80922 0.26261 0.37374 0.0
O48 O 0.86647 0.25747 0.41335 0.0
O49 O 0.84943 0.1563 0.38419 0.0
O50 O 0.79607 0.1654 0.34356 0.0
O51 O 0.75013 0.09593 0.42351 0.0
H52 H 0.94153 0.21079 0.43463 0.0
H53 H 0.78307 0.11232 0.48817 0.0
O54 O 0.6983 0.10236 0.38105 0.0
O55 O 0.7127 0.19956 0.41057 0.0
O56 O 0.76901 0.19594 0.4515 0.0
C57 C 0.72694 0.20372 0.44243 0.0
H58 H 0.59556 0.17449 0.30069 0.0
H59 H 0.9624 0.16452 0.49062 0.0
Co60 Co 0.55898 0.79692 0.81965 0.0
C61 C 0.61416 0.90322 0.7889 0.0
Co62 Co 0.6181 0.79952 0.77861 0.0
C63 C 0.49795 0.75846 0.8838 0.0
C64 C 0.47477 0.81545 0.8572 0.0
N65 N 0.50912 0.79102 0.85484 0.0
N66 N 0.45767 0.76101 0.90422 0.0
C67 C 0.44286 0.79689 0.88759 0.0
H68 H 0.51748 0.73151 0.88906 0.0
H69 H 0.47232 0.84396 0.83779 0.0
C70 C 0.5539 0.68985 0.80641 0.0
N71 N 0.66802 0.80626 0.7425 0.0
C72 C 0.713 0.85673 0.73011 0.0
C73 C 0.66022 0.76537 0.71872 0.0
N74 N 0.73213 0.84974 0.69886 0.0
C75 C 0.69955 0.79194 0.69189 0.0
C76 C 0.66935 0.82422 0.84345 0.0
O77 O 0.53198 0.71576 0.82324 0.0
O78 O 0.59714 0.71967 0.78622 0.0
O79 O 0.68076 0.82436 0.81127 0.0
O80 O 0.61836 0.81309 0.85248 0.0
O81 O 0.63533 0.8783 0.77039 0.0
H82 H 0.62502 0.72024 0.71931 0.0
H83 H 0.72879 0.89872 0.74267 0.0
O84 O 0.58414 0.87686 0.81547 0.0
O85 O 0.49958 0.7803 0.78657 0.0
O86 O 0.55568 0.77429 0.74649 0.0
C87 C 0.50727 0.77026 0.75528 0.0
H88 H 0.41081 0.80834 0.89646 0.0
H89 H 0.70012 0.77125 0.66768 0.0
Co90 Co 0.80491 0.56166 0.03746 0.0
C91 C 0.9141 0.61775 0.06704 0.0
Co92 Co 0.81239 0.62346 0.07846 0.0
C93 C 0.74752 0.46263 0.99211 0.0
C94 C 0.83686 0.51925 0.97729 0.0
N95 N 0.79733 0.51061 0.00228 0.0
N96 N 0.75342 0.44235 0.96108 0.0
C97 C 0.80995 0.47731 0.9519 0.0
H98 H 0.7065 0.44518 0.00605 0.0
H99 H 0.88092 0.55642 0.97613 0.0
C100 C 0.70012 0.55966 0.05236 0.0
N101 N 0.82113 0.67585 0.11315 0.0
C102 C 0.85491 0.68819 0.14174 0.0
C103 C 0.80116 0.71411 0.11388 0.0
N104 N 0.85808 0.73345 0.16001 0.0
C105 C 0.82377 0.74958 0.14274 0.0
C106 C 0.83384 0.67169 0.01244 0.0
O107 O 0.72462 0.53888 0.03323 0.0
O108 O 0.73132 0.60041 0.07368 0.0
O109 O 0.83291 0.68347 0.04441 0.0
O110 O 0.82419 0.62101 0.00404 0.0
O111 O 0.89249 0.64378 0.08415 0.0
H112 H 0.77394 0.71756 0.09398 0.0
H113 H 0.87787 0.66506 0.14856 0.0
O114 O 0.8842 0.58307 0.04279 0.0
O115 O 0.78481 0.50216 0.07085 0.0
O116 O 0.79167 0.56342 0.11187 0.0
C117 C 0.78157 0.51278 0.10276 0.0
H118 H 0.82899 0.4762 0.92714 0.0
H119 H 0.81765 0.7861 0.14948 0.0
Co120 Co 0.17902 0.76121 0.48198 0.0
C121 C 0.0737 0.70954 0.45045 0.0
Co122 Co 0.17646 0.81919 0.44191 0.0
C123 C 0.21879 0.73815 0.54528 0.0
C124 C 0.16616 0.65849 0.51726 0.0
N125 N 0.18618 0.71669 0.51637 0.0
N126 N 0.22131 0.69617 0.56396 0.0
C127 C 0.18775 0.64569 0.54664 0.0
H128 H 0.24177 0.78426 0.55193 0.0
H129 H 0.13974 0.62789 0.49715 0.0
C130 C 0.28502 0.86572 0.47105 0.0
N131 N 0.1695 0.86342 0.40659 0.0
C132 C 0.11883 0.85659 0.39361 0.0
C133 C 0.21095 0.89846 0.38357 0.0
N134 N 0.12626 0.88354 0.3626 0.0
C135 C 0.18451 0.91089 0.35652 0.0
C136 C 0.14745 0.84029 0.50701 0.0
O137 O 0.25921 0.81694 0.48682 0.0
O138 O 0.25542 0.87941 0.45083 0.0
O139 O 0.1486 0.85342 0.47505 0.0
O140 O 0.15958 0.80088 0.51547 0.0
O141 O 0.09845 0.75622 0.43239 0.0
H142 H 0.2565 0.90973 0.38468 0.0
H143 H 0.07651 0.8286 0.40543 0.0
O144 O 0.10009 0.70497 0.47673 0.0
O145 O 0.19909 0.72204 0.44805 0.0
O146 O 0.20482 0.78587 0.40929 0.0
C147 C 0.21044 0.74215 0.41724 0.0
H148 H 0.18186 0.60323 0.55366 0.0
H149 H 0.20581 0.9332 0.33264 0.0
Co150 Co 0.40591 0.22002 0.71137 0.0
C151 C 0.34978 0.27173 0.74039 0.0
Co152 Co 0.34125 0.1618 0.74976 0.0
C153 C 0.47417 0.24456 0.65001 0.0
C154 C 0.49792 0.32371 0.67781 0.0
N155 N 0.46121 0.26526 0.67864 0.0
N156 N 0.51774 0.28743 0.63123 0.0
C157 C 0.53292 0.33751 0.64865 0.0
H158 H 0.45312 0.19836 0.64376 0.0
H159 H 0.49964 0.3541 0.69735 0.0
C160 C 0.40515 0.11473 0.72379 0.0
N161 N 0.28541 0.11688 0.78266 0.0
C162 C 0.2791 0.13606 0.81399 0.0
C163 C 0.23769 0.06312 0.77915 0.0
N164 N 0.22902 0.09711 0.8299 0.0
C165 C 0.20247 0.05112 0.80811 0.0
C166 C 0.29823 0.14327 0.68246 0.0
O167 O 0.42959 0.16354 0.70797 0.0
O168 O 0.36057 0.10143 0.74281 0.0
O169 O 0.28328 0.12923 0.71398 0.0
O170 O 0.35055 0.18245 0.67566 0.0
O171 O 0.32488 0.22415 0.75766 0.0
H172 H 0.22749 0.03593 0.75622 0.0
H173 H 0.30849 0.17968 0.82385 0.0
O174 O 0.38357 0.27687 0.71552 0.0
O175 O 0.46154 0.25736 0.74735 0.0
O176 O 0.39915 0.19382 0.78477 0.0
C177 C 0.44945 0.23716 0.77814 0.0
H178 H 0.56704 0.38092 0.6411 0.0
H179 H 0.15975 0.01285 0.81223 0.0
C180 C 0.2178 0.6573 0.39489 0.0
C181 C 0.2296 0.71505 0.39075 0.0
C182 C 0.23361 0.6303 0.36904 0.0
C183 C 0.26254 0.66225 0.33871 0.0
C184 C 0.27591 0.72108 0.33484 0.0
C185 C 0.25886 0.7467 0.36086 0.0
C186 C 0.21786 0.56711 0.37375 0.0
C187 C 0.30699 0.75648 0.3029 0.0
C188 C 0.33843 0.6005 0.28358 0.0
C189 C 0.29565 0.56958 0.25824 0.0
C190 C 0.32903 0.63237 0.30952 0.0
C191 C 0.27547 0.63283 0.31009 0.0
C192 C 0.23288 0.6032 0.28399 0.0
C193 C 0.24353 0.57198 0.25836 0.0
C194 C 0.37558 0.66409 0.33685 0.0
C195 C 0.17508 0.60256 0.28386 0.0
H196 H 0.19484 0.63271 0.41792 0.0
H197 H 0.26841 0.79158 0.35778 0.0
H198 H 0.18665 0.53974 0.35312 0.0
H199 H 0.25761 0.56293 0.37109 0.0
H200 H 0.19745 0.54928 0.39948 0.0
H201 H 0.3176 0.80286 0.30502 0.0
H202 H 0.34828 0.75569 0.29852 0.0
H203 H 0.27895 0.73674 0.27965 0.0
H204 H 0.37882 0.59896 0.28335 0.0
H205 H 0.2097 0.54729 0.23934 0.0
H206 H 0.35849 0.64407 0.36272 0.0
H207 H 0.38687 0.71067 0.33843 0.0
H208 H 0.41623 0.66245 0.33145 0.0
H209 H 0.14972 0.58017 0.3076 0.0
H210 H 0.1479 0.57975 0.26071 0.0
H211 H 0.1828 0.64802 0.28431 0.0
C212 C 0.60411 0.31935 0.59321 0.0
C213 C 0.54521 0.27944 0.60092 0.0
C214 C 0.63285 0.30882 0.56583 0.0
C215 C 0.60204 0.2569 0.54596 0.0
C216 C 0.5421 0.21743 0.55277 0.0
C217 C 0.51429 0.22945 0.57998 0.0
C218 C 0.69674 0.3522 0.55896 0.0
C219 C 0.50789 0.16146 0.53216 0.0
C220 C 0.66494 0.24665 0.45928 0.0
C221 C 0.6945 0.21679 0.4687 0.0
C222 C 0.63476 0.2603 0.48422 0.0
C223 C 0.6333 0.24253 0.51913 0.0
C224 C 0.66204 0.2112 0.52859 0.0
C225 C 0.69284 0.19919 0.50326 0.0
C226 C 0.60499 0.29419 0.47332 0.0
C227 C 0.66019 0.19032 0.56543 0.0
H228 H 0.62846 0.3578 0.60932 0.0
H229 H 0.46841 0.19908 0.58518 0.0
H230 H 0.72367 0.33156 0.56478 0.0
H231 H 0.70345 0.36494 0.5311 0.0
H232 H 0.71309 0.39247 0.57501 0.0
H233 H 0.46069 0.13718 0.5394 0.0
H234 H 0.5115 0.17114 0.50389 0.0
H235 H 0.5266 0.13243 0.53672 0.0
H236 H 0.66634 0.26033 0.4325 0.0
H237 H 0.71502 0.17532 0.51042 0.0
H238 H 0.62341 0.33575 0.48824 0.0
H239 H 0.55745 0.26857 0.47936 0.0
H240 H 0.61033 0.30476 0.4451 0.0
H241 H 0.68011 0.22836 0.5834 0.0
H242 H 0.68388 0.16546 0.56828 0.0
H243 H 0.61399 0.1617 0.57372 0.0
C244 C 0.28747 0.49706 0.03077 0.0
C245 C 0.287 0.51148 0.06577 0.0
C246 C 0.31696 0.54096 0.00584 0.0
C247 C 0.34572 0.6005 0.01624 0.0
C248 C 0.34518 0.61529 0.05154 0.0
C249 C 0.31613 0.57043 0.07602 0.0
C250 C 0.31761 0.52361 0.96846 0.0
C251 C 0.375 0.67839 0.06339 0.0
C252 C 0.46309 0.70697 0.95506 0.0
C253 C 0.43167 0.72661 0.93501 0.0
C254 C 0.43611 0.66709 0.98232 0.0
C255 C 0.37651 0.64714 0.98999 0.0
C256 C 0.34539 0.66917 0.97117 0.0
C257 C 0.37335 0.70858 0.94377 0.0
C258 C 0.47064 0.64446 0.0019 0.0
C259 C 0.28183 0.64911 0.97896 0.0
H260 H 0.26549 0.45139 0.02295 0.0
H261 H 0.3155 0.58152 0.10312 0.0
H262 H 0.2976 0.54298 0.95147 0.0
H263 H 0.36354 0.54108 0.95962 0.0
H264 H 0.29342 0.47528 0.9648 0.0
H265 H 0.36999 0.68237 0.0918 0.0
H266 H 0.42248 0.7005 0.05712 0.0
H267 H 0.35641 0.70221 0.04929 0.0
H268 H 0.50859 0.72184 0.94894 0.0
H269 H 0.34869 0.72322 0.9283 0.0
H270 H 0.45138 0.59679 0.99704 0.0
H271 H 0.46811 0.65018 0.03032 0.0
H272 H 0.51756 0.66705 0.99406 0.0
H273 H 0.25433 0.60199 0.97233 0.0
H274 H 0.26555 0.67429 0.96404 0.0
H275 H 0.27585 0.65368 0.00714 0.0
C276 C 0.74946 0.27448 0.24205 0.0
C277 C 0.69843 0.25528 0.26205 0.0
C278 C 0.76225 0.31367 0.21438 0.0
C279 C 0.72257 0.33343 0.20625 0.0
C280 C 0.66956 0.31197 0.22512 0.0
C281 C 0.6582 0.27324 0.25292 0.0
C282 C 0.81927 0.3357 0.19477 0.0
C283 C 0.62602 0.33183 0.21688 0.0
C284 C 0.78235 0.48227 0.1639 0.0
C285 C 0.7668 0.46688 0.12905 0.0
C286 C 0.76876 0.43913 0.18924 0.0
C287 C 0.73818 0.3793 0.17945 0.0
C288 C 0.72243 0.3635 0.14428 0.0
C289 C 0.73737 0.40764 0.11938 0.0
C290 C 0.7872 0.45758 0.22646 0.0
C291 C 0.6894 0.30007 0.13306 0.0
H292 H 0.78007 0.25968 0.24842 0.0
H293 H 0.61893 0.25898 0.26833 0.0
H294 H 0.81082 0.3289 0.16641 0.0
H295 H 0.84759 0.38356 0.19902 0.0
H296 H 0.84377 0.31349 0.2031 0.0
H297 H 0.58475 0.30726 0.23203 0.0
H298 H 0.64573 0.3792 0.22287 0.0
H299 H 0.61513 0.3262 0.18875 0.0
H300 H 0.80578 0.52815 0.17131 0.0
H301 H 0.7252 0.39574 0.0924 0.0
H302 H 0.81553 0.44014 0.23562 0.0
H303 H 0.74799 0.43895 0.24356 0.0
H304 H 0.81156 0.50601 0.22958 0.0
H305 H 0.71481 0.27822 0.13989 0.0
H306 H 0.68053 0.29526 0.10464 0.0
H307 H 0.64695 0.27661 0.14712 0.0
C308 C 0.46219 0.72854 0.69793 0.0
C309 C 0.46115 0.75541 0.72915 0.0
C310 C 0.41993 0.71601 0.67219 0.0
C311 C 0.37614 0.7314 0.67774 0.0
C312 C 0.37447 0.75796 0.70939 0.0
C313 C 0.41697 0.76944 0.73487 0.0
C314 C 0.42306 0.68768 0.63869 0.0
C315 C 0.32896 0.77585 0.71593 0.0
C316 C 0.31197 0.75824 0.59662 0.0
C317 C 0.25877 0.70532 0.59332 0.0
C318 C 0.34998 0.76764 0.62439 0.0
C319 C 0.33449 0.72293 0.64944 0.0
C320 C 0.28068 0.66956 0.64653 0.0
C321 C 0.24339 0.66132 0.61837 0.0
C322 C 0.40711 0.82513 0.62661 0.0
C323 C 0.26297 0.62103 0.6729 0.0
H324 H 0.49621 0.71744 0.69355 0.0
H325 H 0.4165 0.79076 0.7589 0.0
H326 H 0.38039 0.64757 0.6335 0.0
H327 H 0.43189 0.7182 0.61662 0.0
H328 H 0.45797 0.67564 0.63929 0.0
H329 H 0.33055 0.79123 0.74303 0.0
H330 H 0.33629 0.81183 0.69789 0.0
H331 H 0.28432 0.73857 0.71073 0.0
H332 H 0.32477 0.79194 0.57696 0.0
H333 H 0.20213 0.62062 0.61598 0.0
H334 H 0.4447 0.81709 0.62652 0.0
H335 H 0.40891 0.84744 0.65141 0.0
H336 H 0.41274 0.85516 0.60475 0.0
H337 H 0.29542 0.60579 0.67297 0.0
H338 H 0.21885 0.58293 0.66747 0.0
H339 H 0.26282 0.63768 0.69939 0.0
C340 C 0.7163 0.37255 0.91226 0.0
C341 C 0.70653 0.40391 0.93828 0.0
C342 C 0.67339 0.34106 0.88706 0.0
C343 C 0.6198 0.34149 0.88791 0.0
C344 C 0.60872 0.37109 0.91492 0.0
C345 C 0.65221 0.40189 0.93981 0.0
C346 C 0.6862 0.30919 0.85881 0.0
C347 C 0.55213 0.37274 0.91657 0.0
C348 C 0.5391 0.32159 0.803 0.0
C349 C 0.4933 0.26358 0.80597 0.0
C350 C 0.58068 0.3475 0.82957 0.0
C351 C 0.5767 0.31409 0.85941 0.0
C352 C 0.53081 0.25529 0.86237 0.0
C353 C 0.48923 0.23083 0.83567 0.0
C354 C 0.62839 0.41079 0.8259 0.0
C355 C 0.52551 0.21839 0.89376 0.0
H356 H 0.75805 0.37374 0.91125 0.0
H357 H 0.6446 0.42685 0.95943 0.0
H358 H 0.64994 0.26311 0.8569 0.0
H359 H 0.68923 0.33039 0.83333 0.0
H360 H 0.72792 0.30924 0.86345 0.0
H361 H 0.54862 0.3939 0.94075 0.0
H362 H 0.54942 0.39743 0.8939 0.0
H363 H 0.51384 0.32771 0.91515 0.0
H364 H 0.54183 0.34709 0.78017 0.0
H365 H 0.45387 0.18581 0.83788 0.0
H366 H 0.67211 0.41419 0.8273 0.0
H367 H 0.62572 0.43699 0.84769 0.0
H368 H 0.62524 0.43053 0.80099 0.0
H369 H 0.56655 0.21676 0.89725 0.0
H370 H 0.48818 0.17282 0.89152 0.0
H371 H 0.51934 0.23852 0.91757 0.0
C372 C 0.34809 0.38551 0.07392 0.0
C373 C 0.33797 0.36731 0.10881 0.0
C374 C 0.40512 0.41477 0.06021 0.0
C375 C 0.4528 0.42387 0.08155 0.0
C376 C 0.44203 0.40068 0.11581 0.0
C377 C 0.3848 0.37385 0.12932 0.0
C378 C 0.41459 0.44056 0.02406 0.0
C379 C 0.49146 0.40757 0.13897 0.0
C380 C 0.6026 0.47035 0.04322 0.0
C381 C 0.63525 0.52895 0.05427 0.0
C382 C 0.54269 0.43601 0.05088 0.0
C383 C 0.51426 0.46126 0.06927 0.0
C384 C 0.54586 0.52162 0.07811 0.0
C385 C 0.6063 0.55456 0.07101 0.0
C386 C 0.51087 0.3718 0.04125 0.0
C387 C 0.51635 0.55081 0.09633 0.0
H388 H 0.31219 0.38218 0.0583 0.0
H389 H 0.37709 0.36073 0.15644 0.0
H390 H 0.4336 0.48876 0.02606 0.0
H391 H 0.44608 0.43259 0.00921 0.0
H392 H 0.37293 0.4224 0.00915 0.0
H393 H 0.47504 0.38082 0.16305 0.0
H394 H 0.52 0.3946 0.12483 0.0
H395 H 0.51902 0.45427 0.14651 0.0
H396 H 0.62454 0.44999 0.0304 0.0
H397 H 0.63117 0.59987 0.0794 0.0
H398 H 0.46889 0.35958 0.02794 0.0
H399 H 0.50007 0.34495 0.06529 0.0
H400 H 0.53759 0.36033 0.02405 0.0
H401 H 0.47545 0.54116 0.08249 0.0
H402 H 0.54527 0.59914 0.09796 0.0
H403 H 0.50391 0.53313 0.12312 0.0
C404 C 0.03585 0.64091 0.40111 0.0
C405 C 0.02741 0.65487 0.43504 0.0
C406 C 0.00722 0.58258 0.38959 0.0
C407 C 0.96771 0.5377 0.41219 0.0
C408 C 0.95477 0.55247 0.4452 0.0
C409 C 0.98577 0.61088 0.45654 0.0
C410 C 0.02372 0.56876 0.35466 0.0
C411 C 0.9113 0.50606 0.46956 0.0
C412 C 0.86362 0.3845 0.37926 0.0
C413 C 0.88911 0.35275 0.39278 0.0
C414 C 0.88965 0.44511 0.38437 0.0
C415 C 0.94319 0.47501 0.40273 0.0
C416 C 0.97127 0.44399 0.41435 0.0
C417 C 0.94344 0.38295 0.40966 0.0
C418 C 0.85813 0.47648 0.37186 0.0
C419 C 0.02967 0.47498 0.43288 0.0
H420 H 0.06935 0.67472 0.38481 0.0
H421 H 0.98002 0.62168 0.48293 0.0
H422 H 0.05337 0.5506 0.35871 0.0
H423 H 0.98447 0.53522 0.34056 0.0
H424 H 0.04687 0.60845 0.33802 0.0
H425 H 0.90081 0.52543 0.4922 0.0
H426 H 0.86998 0.47642 0.4556 0.0
H427 H 0.92968 0.47893 0.47942 0.0
H428 H 0.82151 0.36156 0.3662 0.0
H429 H 0.96351 0.35873 0.41992 0.0
H430 H 0.88818 0.51588 0.35649 0.0
H431 H 0.84336 0.49167 0.39462 0.0
H432 H 0.81923 0.44786 0.35562 0.0
H433 H 0.06157 0.51374 0.41764 0.0
H434 H 0.04833 0.44579 0.43716 0.0
H435 H 0.02431 0.49109 0.45851 0.0
C436 C 0.41088 0.02589 0.74173 0.0
C437 C 0.43556 0.08018 0.72472 0.0
C438 C 0.44432 0.99855 0.74787 0.0
C439 C 0.5041 0.0271 0.7376 0.0
C440 C 0.52821 0.08032 0.71887 0.0
C441 C 0.49345 0.10577 0.71226 0.0
C442 C 0.41643 0.94038 0.76666 0.0
C443 C 0.59183 0.11246 0.70781 0.0
C444 C 0.59791 0.98817 0.79414 0.0
C445 C 0.60327 0.94777 0.77307 0.0
C446 C 0.5688 0.01718 0.78199 0.0
C447 C 0.54236 0.00336 0.7486 0.0
C448 C 0.55009 0.96465 0.72663 0.0
C449 C 0.58166 0.93833 0.73888 0.0
C450 C 0.56316 0.05979 0.80572 0.0
C451 C 0.52089 0.94719 0.69141 0.0
H452 H 0.36615 0.00569 0.75121 0.0
H453 H 0.51307 0.14774 0.69901 0.0
H454 H 0.43556 0.94646 0.7931 0.0
H455 H 0.36815 0.92078 0.7692 0.0
H456 H 0.42564 0.90892 0.75271 0.0
H457 H 0.62021 0.12849 0.73124 0.0
H458 H 0.6031 0.08259 0.69379 0.0
H459 H 0.60239 0.1506 0.69076 0.0
H460 H 0.61371 0.99463 0.82073 0.0
H461 H 0.58426 0.90579 0.72285 0.0
H462 H 0.51699 0.04049 0.81452 0.0
H463 H 0.57474 0.10095 0.79157 0.0
H464 H 0.59171 0.07073 0.82905 0.0
H465 H 0.47254 0.92374 0.6948 0.0
H466 H 0.53291 0.91811 0.677 0.0
H467 H 0.53281 0.9866 0.67535 0.0
C468 C 0.54736 0.59434 0.79047 0.0
C469 C 0.52225 0.62497 0.80573 0.0
C470 C 0.51364 0.53364 0.78458 0.0
C471 C 0.45312 0.50348 0.79319 0.0
C472 C 0.42836 0.53364 0.81014 0.0
C473 C 0.4634 0.59383 0.81661 0.0
C474 C 0.54216 0.50226 0.76778 0.0
C475 C 0.36401 0.5032 0.81949 0.0
C476 C 0.36501 0.37236 0.73478 0.0
C477 C 0.35788 0.32617 0.75611 0.0
C478 C 0.39227 0.43001 0.74746 0.0
C479 C 0.41497 0.44175 0.78181 0.0
C480 C 0.40475 0.39472 0.80407 0.0
C481 C 0.37531 0.33726 0.79108 0.0
C482 C 0.40046 0.47881 0.72329 0.0
C483 C 0.4297 0.40519 0.84045 0.0
H484 H 0.59285 0.61805 0.78224 0.0
H485 H 0.44349 0.61711 0.82839 0.0
H486 H 0.53163 0.46199 0.78264 0.0
H487 H 0.52467 0.48853 0.74107 0.0
H488 H 0.59062 0.53038 0.76618 0.0
H489 H 0.35265 0.5316 0.83516 0.0
H490 H 0.33739 0.49041 0.79531 0.0
H491 H 0.35135 0.46243 0.83433 0.0
H492 H 0.35235 0.36382 0.70762 0.0
H493 H 0.37139 0.30178 0.80736 0.0
H494 H 0.44738 0.50536 0.71589 0.0
H495 H 0.388 0.50846 0.73654 0.0
H496 H 0.37399 0.46179 0.69916 0.0
H497 H 0.47749 0.42118 0.83893 0.0
H498 H 0.40899 0.36443 0.85631 0.0
H499 H 0.42406 0.4392 0.85404 0.0
C500 C 0.04003 0.42388 0.12744 0.0
C501 C 0.09725 0.45064 0.14064 0.0
C502 C 0.01322 0.45729 0.11969 0.0
C503 C 0.04533 0.51907 0.12401 0.0
C504 C 0.10216 0.54585 0.1387 0.0
C505 C 0.12706 0.5112 0.14729 0.0
C506 C 0.9514 0.42679 0.10557 0.0
C507 C 0.13819 0.61152 0.14329 0.0
C508 C 0.99674 0.59778 0.0612 0.0
C509 C 0.96116 0.61017 0.08252 0.0
C510 C 0.02776 0.57177 0.07499 0.0
C511 C 0.02111 0.55579 0.11065 0.0
C512 C 0.98795 0.57137 0.13267 0.0
C513 C 0.95918 0.59932 0.1184 0.0
C514 C 0.06448 0.55783 0.05089 0.0
C515 C 0.97821 0.5538 0.17056 0.0
H516 H 0.01681 0.37712 0.12237 0.0
H517 H 0.17162 0.53239 0.15709 0.0
H518 H 0.92412 0.44103 0.12001 0.0
H519 H 0.95195 0.43899 0.07788 0.0
H520 H 0.93028 0.3783 0.10736 0.0
H521 H 0.17941 0.62493 0.15793 0.0
H522 H 0.14971 0.63291 0.11734 0.0
H523 H 0.11254 0.62824 0.15717 0.0
H524 H 0.99766 0.60542 0.03342 0.0
H525 H 0.93043 0.60732 0.13486 0.0
H526 H 0.04258 0.50975 0.04676 0.0
H527 H 0.10807 0.5719 0.06264 0.0
H528 H 0.07101 0.57948 0.02515 0.0
H529 H 0.94674 0.50603 0.1725 0.0
H530 H 0.9599 0.57739 0.18523 0.0
H531 H 0.01962 0.56225 0.18319 0.0
C532 C 0.38086 0.95442 0.45523 0.0
C533 C 0.34992 0.89935 0.47122 0.0
C534 C 0.44163 0.98086 0.44959 0.0
C535 C 0.47144 0.95052 0.45917 0.0
C536 C 0.44106 0.89662 0.47713 0.0
C537 C 0.38089 0.87213 0.48339 0.0
C538 C 0.47341 0.03997 0.43194 0.0
C539 C 0.47113 0.8628 0.4876 0.0
C540 C 0.60174 0.98884 0.4008 0.0
C541 C 0.64839 0.02794 0.42178 0.0
C542 C 0.5441 0.95997 0.41365 0.0
C543 C 0.53292 0.97277 0.4477 0.0
C544 C 0.58033 0.00975 0.46961 0.0
C545 C 0.63767 0.03591 0.45657 0.0
C546 C 0.4948 0.91891 0.38996 0.0
C547 C 0.57054 0.02653 0.50554 0.0
H548 H 0.35732 0.9759 0.44608 0.0
H549 H 0.35747 0.82957 0.49591 0.0
H550 H 0.51394 0.06992 0.4465 0.0
H551 H 0.4868 0.03496 0.40536 0.0
H552 H 0.44565 0.06069 0.42984 0.0
H553 H 0.44271 0.82425 0.50415 0.0
H554 H 0.48321 0.84715 0.46389 0.0
H555 H 0.5123 0.89145 0.50194 0.0
H556 H 0.60997 0.98351 0.37377 0.0
H557 H 0.67349 0.06754 0.47257 0.0
H558 H 0.46877 0.93961 0.38198 0.0
H559 H 0.46475 0.87761 0.40384 0.0
H560 H 0.5113 0.908 0.36614 0.0
H561 H 0.55579 0.05922 0.5031 0.0
H562 H 0.61135 0.04641 0.52136 0.0
H563 H 0.53586 0.98811 0.5197 0.0
C564 C 0.24042 0.13262 0.8899 0.0
C565 C 0.20509 0.10841 0.8605 0.0
C566 C 0.22027 0.1503 0.91864 0.0
C567 C 0.16412 0.14532 0.91735 0.0
C568 C 0.12774 0.1197 0.88791 0.0
C569 C 0.14847 0.1008 0.85995 0.0
C570 C 0.25976 0.17588 0.94993 0.0
C571 C 0.0683 0.11505 0.88518 0.0
C572 C 0.09858 0.15989 0.00222 0.0
C573 C 0.11822 0.22011 0.00273 0.0
C574 C 0.11238 0.13454 0.97431 0.0
C575 C 0.14525 0.17019 0.94595 0.0
C576 C 0.16297 0.23065 0.94575 0.0
C577 C 0.15 0.25504 0.97446 0.0
C578 C 0.09412 0.07033 0.97593 0.0
C579 C 0.19675 0.26984 0.91558 0.0
H580 H 0.28418 0.13832 0.89008 0.0
H581 H 0.12173 0.0829 0.83685 0.0
H582 H 0.27403 0.22315 0.95228 0.0
H583 H 0.23556 0.15399 0.97408 0.0
H584 H 0.29946 0.17132 0.94819 0.0
H585 H 0.04408 0.09094 0.86149 0.0
H586 H 0.04125 0.09252 0.90835 0.0
H587 H 0.07383 0.1597 0.88443 0.0
H588 H 0.07473 0.13323 0.02443 0.0
H589 H 0.16487 0.30158 0.97502 0.0
H590 H 0.13377 0.06568 0.97706 0.0
H591 H 0.06958 0.04742 0.95211 0.0
H592 H 0.06631 0.04812 -0.00102 0.0
H593 H 0.24075 0.27392 0.91399 0.0
H594 H 0.20257 0.31449 0.9181 0.0
H595 H 0.17374 0.2503 0.89075 0.0
C596 C 0.87884 0.18028 0.29258 0.0
C597 C 0.8762 0.15453 0.32497 0.0
C598 C 0.92387 0.19202 0.26896 0.0
C599 C 0.96618 0.17565 0.27739 0.0
C600 C 0.96008 0.14401 0.30842 0.0
C601 C 0.91578 0.13489 0.33229 0.0
C602 C 0.92906 0.2268 0.23649 0.0
C603 C 0.00235 0.12302 0.3175 0.0
C604 C 0.06779 0.20751 0.20065 0.0
C605 C 0.11227 0.26463 0.20869 0.0
C606 C 0.02266 0.17465 0.22459 0.0
C607 C 0.02107 0.20058 0.25655 0.0
C608 C 0.06853 0.25619 0.26586 0.0
C609 C 0.11404 0.28701 0.24206 0.0
C610 C 0.97465 0.11407 0.2146 0.0
C611 C 0.06846 0.286 0.29945 0.0
H612 H 0.84833 0.1955 0.28669 0.0
H613 H 0.91343 0.11424 0.35712 0.0
H614 H 0.96959 0.27034 0.23786 0.0
H615 H 0.93254 0.20408 0.21313 0.0
H616 H 0.89103 0.23377 0.23305 0.0
H617 H 0.98251 0.08584 0.33617 0.0
H618 H 0.01646 0.10909 0.29389 0.0
H619 H 0.04203 0.15926 0.32983 0.0
H620 H 0.06663 0.18955 0.17509 0.0
H621 H 0.14848 0.33092 0.24865 0.0
H622 H 0.93671 0.11659 0.20407 0.0
H623 H 0.9592 0.08452 0.23756 0.0
H624 H 0.98968 0.09453 0.19428 0.0
H625 H 0.03209 0.29593 0.29902 0.0
H626 H 0.11029 0.32765 0.30368 0.0
H627 H 0.06098 0.2567 0.32193 0.0
C628 C 0.79578 0.88501 0.64681 0.0
C629 C 0.76686 0.89545 0.67415 0.0
C630 C 0.82174 0.9256 0.61954 0.0
C631 C 0.81835 0.97764 0.61958 0.0
C632 C 0.79259 0.99015 0.6482 0.0
C633 C 0.76719 0.94898 0.67508 0.0
C634 C 0.84947 0.91102 0.58967 0.0
C635 C 0.7878 0.045 0.64924 0.0
C636 C 0.90193 0.10136 0.55462 0.0
C637 C 0.85826 0.08952 0.52979 0.0
C638 C 0.89036 0.06448 0.58363 0.0
C639 C 0.8338 0.01482 0.58783 0.0
C640 C 0.79008 0.00199 0.56242 0.0
C641 C 0.80292 0.03925 0.53374 0.0
C642 C 0.93809 0.07937 0.61015 0.0
C643 C 0.72916 0.9494 0.56582 0.0
H644 H 0.7964 0.84417 0.64618 0.0
H645 H 0.74442 0.95744 0.6957 0.0
H646 H 0.82055 0.89914 0.56651 0.0
H647 H 0.89223 0.94962 0.58255 0.0
H648 H 0.85644 0.87372 0.59591 0.0
H649 H 0.77317 0.05173 0.67508 0.0
H650 H 0.83059 0.08415 0.64287 0.0
H651 H 0.75568 0.04182 0.62939 0.0
H652 H 0.94473 0.14011 0.55178 0.0
H653 H 0.76937 0.02866 0.51426 0.0
H654 H 0.94347 0.04076 0.61505 0.0
H655 H 0.92561 0.09099 0.63522 0.0
H656 H 0.98094 0.11669 0.60171 0.0
H657 H 0.7317 0.90871 0.56817 0.0
H658 H 0.70071 0.94474 0.54327 0.0
H659 H 0.70792 0.95333 0.58981 0.0
C660 C 0.76899 0.84348 0.86218 0.0
C661 C 0.71054 0.82608 0.87032 0.0
C662 C 0.80415 0.83359 0.88569 0.0
C663 C 0.77934 0.80358 0.91726 0.0
C664 C 0.72182 0.79001 0.92661 0.0
C665 C 0.6886 0.8024 0.90329 0.0
C666 C 0.86638 0.85173 0.87565 0.0
C667 C 0.69308 0.75726 0.95977 0.0
C668 C 0.81136 0.68872 0.95225 0.0
C669 C 0.83464 0.7117 0.98511 0.0
C670 C 0.79705 0.72023 0.92871 0.0
C671 C 0.80829 0.77709 0.93772 0.0
C672 C 0.83814 0.80322 0.9691 0.0
C673 C 0.84996 0.76972 0.99284 0.0
C674 C 0.76449 0.69011 0.89579 0.0
C675 C 0.85389 0.8649 0.97877 0.0
H676 H 0.78652 0.86264 0.83693 0.0
H677 H 0.64358 0.7891 0.90993 0.0
H678 H 0.89561 0.86637 0.89875 0.0
H679 H 0.86765 0.81379 0.86409 0.0
H680 H 0.88384 0.88764 0.8561 0.0
H681 H 0.64916 0.75264 0.96396 0.0
H682 H 0.68783 0.71272 0.95876 0.0
H683 H 0.72103 0.78011 0.98255 0.0
H684 H 0.79966 0.64403 0.94595 0.0
H685 H 0.86877 0.78808 0.01801 0.0
H686 H 0.78591 0.71825 0.87282 0.0
H687 H 0.719 0.6824 0.89711 0.0
H688 H 0.76226 0.64726 0.8917 0.0
H689 H 0.86671 0.89363 0.95547 0.0
H690 H 0.8904 0.8841 -0.00209 0.0
H691 H 0.8153 0.86445 0.99075 0.0
C692 C 0.02929 0.81625 0.33712 0.0
C693 C 0.08127 0.87087 0.33703 0.0
C694 C 0.98956 0.79901 0.3094 0.0
C695 C 0.00199 0.83722 0.28076 0.0
C696 C 0.05225 0.89391 0.28148 0.0
C697 C 0.0914 0.91004 0.30962 0.0
C698 C 0.93654 0.73807 0.30964 0.0
C699 C 0.06661 0.93613 0.25156 0.0
C700 C 0.94676 0.75957 0.19454 0.0
C701 C 0.89506 0.76182 0.18968 0.0
C702 C 0.9826 0.78535 0.2236 0.0
C703 C 0.96669 0.8146 0.24845 0.0
C704 C 0.91551 0.81862 0.24331 0.0
C705 C 0.88019 0.79207 0.21396 0.0
C706 C 0.03691 0.78012 0.22805 0.0
C707 C 0.89732 0.84959 0.26925 0.0
H708 H 0.02113 0.78513 0.35778 0.0
H709 H 0.13103 0.95253 0.30961 0.0
H710 H 0.89645 0.73952 0.30242 0.0
H711 H 0.94252 0.71053 0.29006 0.0
H712 H 0.92943 0.71652 0.33546 0.0
H713 H 0.10209 0.98106 0.25827 0.0
H714 H 0.08109 0.92052 0.22887 0.0
H715 H 0.02717 0.93815 0.24346 0.0
H716 H 0.95953 0.73775 0.1755 0.0
H717 H 0.84026 0.79385 0.21044 0.0
H718 H 0.03308 0.75506 0.2521 0.0
H719 H 0.07616 0.82425 0.23097 0.0
H720 H 0.04413 0.75766 0.20573 0.0
H721 H 0.8854 0.82528 0.29427 0.0
H722 H 0.8592 0.85318 0.26002 0.0
H723 H 0.9344 0.89426 0.27459 0.0
C724 C 0.28368 0.10744 0.62156 0.0
C725 C 0.25909 0.10751 0.6539 0.0
C726 C 0.25175 0.06398 0.59687 0.0
C727 C 0.19302 0.02066 0.60422 0.0
C728 C 0.16577 0.02473 0.63504 0.0
C729 C 0.19954 0.06753 0.65994 0.0
C730 C 0.28299 0.06112 0.56455 0.0
C731 C 0.10235 0.98144 0.64294 0.0
C732 C 0.12896 0.92076 0.52636 0.0
C733 C 0.14337 0.87747 0.53445 0.0
C734 C 0.13866 0.96474 0.55057 0.0
C735 C 0.16526 0.96635 0.58289 0.0
C736 C 0.17493 0.91979 0.59223 0.0
C737 C 0.16289 0.87542 0.56811 0.0
C738 C 0.12451 0.0117 0.54047 0.0
C739 C 0.2037 0.9198 0.6263 0.0
H740 H 0.32958 0.13843 0.61657 0.0
H741 H 0.18 0.06797 0.6847 0.0
H742 H 0.28745 0.02135 0.56557 0.0
H743 H 0.25722 0.05775 0.54098 0.0
H744 H 0.32751 0.10008 0.56179 0.0
H745 H 0.08362 8e-05 0.6615 0.0
H746 H 0.07546 0.96795 0.61887 0.0
H747 H 0.09906 0.94159 0.65498 0.0
H748 H 0.11285 0.92203 0.50059 0.0
H749 H 0.17358 0.8418 0.57476 0.0
H750 H 0.16442 0.05014 0.52989 0.0
H751 H 0.10968 0.02661 0.56334 0.0
H752 H 0.08995 0.99586 0.52011 0.0
H753 H 0.24942 0.95716 0.62675 0.0
H754 H 0.20496 0.87864 0.6304 0.0
H755 H 0.18003 0.92552 0.64843 0.0
loop_
_geom_bond_atom_site_label_1
_geom_bond_atom_site_label_2
_geom_bond_distance
_geom_bond_site_symmetry_2
_ccdc_geom_bond_type
Co0 N5 2.057 . S
Co0 O17 2.021 . S
Co0 O20 2.062 . S
Co0 O24 2.117 . S
Co0 O25 2.020 . S
C1 O21 1.259 . S
C1 O24 1.258 . S
Co2 N11 2.057 . S
Co2 O18 2.117 . S
Co2 O19 2.020 . S
Co2 O21 2.021 . S
Co2 O26 2.062 . S
C3 N5 1.316 . S
C3 N6 1.347 . S
C3 H8 0.931 . S
C4 N5 1.375 . S
C4 C7 1.350 . S
C4 H9 0.930 . S
N5 Co0 2.057 . S
N5 C3 1.316 . S
N5 C4 1.375 . S
N6 C3 1.347 . S
N6 C7 1.373 . S
C7 C4 1.350 . S
C7 N6 1.373 . S
C7 H28 0.931 . S
H8 C3 0.931 . S
H9 C4 0.930 . S
C10 O17 1.259 . S
C10 O18 1.258 . S
N11 Co2 2.057 . S
N11 C12 1.316 . S
N11 C13 1.375 . S
C12 N11 1.316 . S
C12 N14 1.347 . S
C12 H23 0.931 . S
C13 N11 1.375 . S
C13 C15 1.350 . S
C13 H22 0.930 . S
N14 C12 1.347 . S
N14 C15 1.373 . S
C15 C13 1.350 . S
C15 N14 1.373 . S
C15 H29 0.931 . S
C16 O19 1.256 . S
C16 O20 1.255 . S
O17 Co0 2.021 . S
O17 C10 1.259 . S
O18 Co2 2.117 . S
O18 C10 1.258 . S
O19 Co2 2.020 . S
O19 C16 1.256 . S
O20 Co0 2.062 . S
O20 C16 1.255 . S
O21 C1 1.259 . S
O21 Co2 2.021 . S
H22 C13 0.930 . S
H23 C12 0.931 . S
O24 Co0 2.117 . S
O24 C1 1.258 . S
O25 Co0 2.020 . S
O25 C27 1.256 . S
O26 Co2 2.062 . S
O26 C27 1.255 . S
C27 O25 1.256 . S
C27 O26 1.255 . S
H28 C7 0.931 . S
H29 C15 0.931 . S
Co30 N35 2.057 . S
Co30 O47 2.021 . S
Co30 O50 2.062 . S
Co30 O54 2.117 . S
Co30 O55 2.020 . S
C31 O51 1.259 . S
C31 O54 1.258 . S
Co32 N41 2.057 . S
Co32 O48 2.117 . S
Co32 O49 2.020 . S
Co32 O51 2.021 . S
Co32 O56 2.062 . S
C33 N35 1.316 . S
C33 N36 1.347 . S
C33 H38 0.931 . S
C34 N35 1.375 . S
C34 C37 1.350 . S
C34 H39 0.930 . S
N35 Co30 2.057 . S
N35 C33 1.316 . S
N35 C34 1.375 . S
N36 C33 1.347 . S
N36 C37 1.373 . S
C37 C34 1.350 . S
C37 N36 1.373 . S
C37 H58 0.931 . S
H38 C33 0.931 . S
H39 C34 0.930 . S
C40 O47 1.259 . S
C40 O48 1.258 . S
N41 Co32 2.057 . S
N41 C42 1.316 . S
N41 C43 1.375 . S
C42 N41 1.316 . S
C42 N44 1.347 . S
C42 H53 0.931 . S
C43 N41 1.375 . S
C43 C45 1.350 . S
C43 H52 0.930 . S
N44 C42 1.347 . S
N44 C45 1.373 . S
C45 C43 1.350 . S
C45 N44 1.373 . S
C45 H59 0.931 . S
C46 O49 1.256 . S
C46 O50 1.255 . S
O47 Co30 2.021 . S
O47 C40 1.259 . S
O48 Co32 2.117 . S
O48 C40 1.258 . S
O49 Co32 2.020 . S
O49 C46 1.256 . S
O50 Co30 2.062 . S
O50 C46 1.255 . S
O51 C31 1.259 . S
O51 Co32 2.021 . S
H52 C43 0.930 . S
H53 C42 0.931 . S
O54 Co30 2.117 . S
O54 C31 1.258 . S
O55 Co30 2.020 . S
O55 C57 1.256 . S
O56 Co32 2.062 . S
O56 C57 1.255 . S
C57 O55 1.256 . S
C57 O56 1.255 . S
H58 C37 0.931 . S
H59 C45 0.931 . S
Co60 N65 2.057 . S
Co60 O77 2.021 . S
Co60 O80 2.062 . S
Co60 O84 2.117 . S
Co60 O85 2.020 . S
C61 O81 1.259 . S
C61 O84 1.258 . S
Co62 N71 2.057 . S
Co62 O78 2.117 . S
Co62 O79 2.020 . S
Co62 O81 2.021 . S
Co62 O86 2.062 . S
C63 N65 1.316 . S
C63 N66 1.347 . S
C63 H68 0.931 . S
C64 N65 1.375 . S
C64 C67 1.350 . S
C64 H69 0.930 . S
N65 Co60 2.057 . S
N65 C63 1.316 . S
N65 C64 1.375 . S
N66 C63 1.347 . S
N66 C67 1.373 . S
C67 C64 1.350 . S
C67 N66 1.373 . S
C67 H88 0.931 . S
H68 C63 0.931 . S
H69 C64 0.930 . S
C70 O77 1.259 . S
C70 O78 1.258 . S
N71 Co62 2.057 . S
N71 C72 1.316 . S
N71 C73 1.375 . S
C72 N71 1.316 . S
C72 N74 1.347 . S
C72 H83 0.931 . S
C73 N71 1.375 . S
C73 C75 1.350 . S
C73 H82 0.930 . S
N74 C72 1.347 . S
N74 C75 1.373 . S
C75 C73 1.350 . S
C75 N74 1.373 . S
C75 H89 0.931 . S
C76 O79 1.256 . S
C76 O80 1.255 . S
O77 Co60 2.021 . S
O77 C70 1.259 . S
O78 Co62 2.117 . S
O78 C70 1.258 . S
O79 Co62 2.020 . S
O79 C76 1.256 . S
O80 Co60 2.062 . S
O80 C76 1.255 . S
O81 C61 1.259 . S
O81 Co62 2.021 . S
H82 C73 0.930 . S
H83 C72 0.931 . S
O84 Co60 2.117 . S
O84 C61 1.258 . S
O85 Co60 2.020 . S
O85 C87 1.256 . S
O86 Co62 2.062 . S
O86 C87 1.255 . S
C87 O85 1.256 . S
C87 O86 1.255 . S
H88 C67 0.931 . S
H89 C75 0.931 . S
Co90 N95 2.057 . S
Co90 O107 2.021 . S
Co90 O110 2.062 . S
Co90 O114 2.117 . S
Co90 O115 2.020 . S
C91 O111 1.259 . S
C91 O114 1.258 . S
Co92 N101 2.057 . S
Co92 O108 2.117 . S
Co92 O109 2.020 . S
Co92 O111 2.021 . S
Co92 O116 2.062 . S
C93 N95 1.316 1_556 S
C93 N96 1.347 . S
C93 H98 0.931 . S
C94 N95 1.375 1_556 S
C94 C97 1.350 . S
C94 H99 0.930 . S
N95 Co90 2.057 . S
N95 C93 1.316 1_554 S
N95 C94 1.375 1_554 S
N96 C93 1.347 . S
N96 C97 1.373 . S
C97 C94 1.350 . S
C97 N96 1.373 . S
C97 H118 0.931 . S
H98 C93 0.931 . S
H99 C94 0.930 . S
C100 O107 1.259 . S
C100 O108 1.258 . S
N101 Co92 2.057 . S
N101 C102 1.316 . S
N101 C103 1.375 . S
C102 N101 1.316 . S
C102 N104 1.347 . S
C102 H113 0.931 . S
C103 N101 1.375 . S
C103 C105 1.350 . S
C103 H112 0.930 . S
N104 C102 1.347 . S
N104 C105 1.373 . S
C105 C103 1.350 . S
C105 N104 1.373 . S
C105 H119 0.931 . S
C106 O109 1.256 . S
C106 O110 1.255 . S
O107 Co90 2.021 . S
O107 C100 1.259 . S
O108 Co92 2.117 . S
O108 C100 1.258 . S
O109 Co92 2.020 . S
O109 C106 1.256 . S
O110 Co90 2.062 . S
O110 C106 1.255 . S
O111 C91 1.259 . S
O111 Co92 2.021 . S
H112 C103 0.930 . S
H113 C102 0.931 . S
O114 Co90 2.117 . S
O114 C91 1.258 . S
O115 Co90 2.020 . S
O115 C117 1.256 . S
O116 Co92 2.062 . S
O116 C117 1.255 . S
C117 O115 1.256 . S
C117 O116 1.255 . S
H118 C97 0.931 . S
H119 C105 0.931 . S
Co120 N125 2.057 . S
Co120 O137 2.021 . S
Co120 O140 2.062 . S
Co120 O144 2.117 . S
Co120 O145 2.020 . S
C121 O141 1.259 . S
C121 O144 1.258 . S
Co122 N131 2.057 . S
Co122 O138 2.117 . S
Co122 O139 2.020 . S
Co122 O141 2.021 . S
Co122 O146 2.062 . S
C123 N125 1.316 . S
C123 N126 1.347 . S
C123 H128 0.931 . S
C124 N125 1.375 . S
C124 C127 1.350 . S
C124 H129 0.930 . S
N125 Co120 2.057 . S
N125 C123 1.316 . S
N125 C124 1.375 . S
N126 C123 1.347 . S
N126 C127 1.373 . S
C127 C124 1.350 . S
C127 N126 1.373 . S
C127 H148 0.931 . S
H128 C123 0.931 . S
H129 C124 0.930 . S
C130 O137 1.259 . S
C130 O138 1.258 . S
N131 Co122 2.057 . S
N131 C132 1.316 . S
N131 C133 1.375 . S
C132 N131 1.316 . S
C132 N134 1.347 . S
C132 H143 0.931 . S
C133 N131 1.375 . S
C133 C135 1.350 . S
C133 H142 0.930 . S
N134 C132 1.347 . S
N134 C135 1.373 . S
C135 C133 1.350 . S
C135 N134 1.373 . S
C135 H149 0.931 . S
C136 O139 1.256 . S
C136 O140 1.255 . S
O137 Co120 2.021 . S
O137 C130 1.259 . S
O138 Co122 2.117 . S
O138 C130 1.258 . S
O139 Co122 2.020 . S
O139 C136 1.256 . S
O140 Co120 2.062 . S
O140 C136 1.255 . S
O141 C121 1.259 . S
O141 Co122 2.021 . S
H142 C133 0.930 . S
H143 C132 0.931 . S
O144 Co120 2.117 . S
O144 C121 1.258 . S
O145 Co120 2.020 . S
O145 C147 1.256 . S
O146 Co122 2.062 . S
O146 C147 1.255 . S
C147 O145 1.256 . S
C147 O146 1.255 . S
H148 C127 0.931 . S
H149 C135 0.931 . S
Co150 N155 2.057 . S
Co150 O167 2.021 . S
Co150 O170 2.062 . S
Co150 O174 2.117 . S
Co150 O175 2.020 . S
C151 O171 1.259 . S
C151 O174 1.258 . S
Co152 N161 2.057 . S
Co152 O168 2.117 . S
Co152 O169 2.020 . S
Co152 O171 2.021 . S
Co152 O176 2.062 . S
C153 N155 1.316 . S
C153 N156 1.347 . S
C153 H158 0.931 . S
C154 N155 1.375 . S
C154 C157 1.350 . S
C154 H159 0.930 . S
N155 Co150 2.057 . S
N155 C153 1.316 . S
N155 C154 1.375 . S
N156 C153 1.347 . S
N156 C157 1.373 . S
C157 C154 1.350 . S
C157 N156 1.373 . S
C157 H178 0.931 . S
H158 C153 0.931 . S
H159 C154 0.930 . S
C160 O167 1.259 . S
C160 O168 1.258 . S
N161 Co152 2.057 . S
N161 C162 1.316 . S
N161 C163 1.375 . S
C162 N161 1.316 . S
C162 N164 1.347 . S
C162 H173 0.931 . S
C163 N161 1.375 . S
C163 C165 1.350 . S
C163 H172 0.930 . S
N164 C162 1.347 . S
N164 C165 1.373 . S
C165 C163 1.350 . S
C165 N164 1.373 . S
C165 H179 0.931 . S
C166 O169 1.256 . S
C166 O170 1.255 . S
O167 Co150 2.021 . S
O167 C160 1.259 . S
O168 Co152 2.117 . S
O168 C160 1.258 . S
O169 Co152 2.020 . S
O169 C166 1.256 . S
O170 Co150 2.062 . S
O170 C166 1.255 . S
O171 C151 1.259 . S
O171 Co152 2.021 . S
H172 C163 0.930 . S
H173 C162 0.931 . S
O174 Co150 2.117 . S
O174 C151 1.258 . S
O175 Co150 2.020 . S
O175 C177 1.256 . S
O176 Co152 2.062 . S
O176 C177 1.255 . S
C177 O175 1.256 . S
C177 O176 1.255 . S
H178 C157 0.931 . S
H179 C165 0.931 . S
C180 C181 1.391 . S
C180 C182 1.394 . S
C180 H196 0.931 . S
C181 C180 1.391 . S
C181 C185 1.376 . S
C182 C180 1.394 . S
C182 C183 1.369 . S
C182 C186 1.531 . S
C183 C182 1.369 . S
C183 C184 1.410 . S
C183 C191 1.503 . S
C184 C183 1.410 . S
C184 C185 1.392 . S
C184 C187 1.511 . S
C185 C181 1.376 . S
C185 C184 1.392 . S
C185 H197 0.929 . S
C186 C182 1.531 . S
C186 H198 0.960 . S
C186 H199 0.962 . S
C186 H200 0.960 . S
C187 C184 1.511 . S
C187 H201 0.961 . S
C187 H202 0.961 . S
C187 H203 0.961 . S
C188 C189 1.370 . S
C188 C190 1.363 . S
C188 H204 0.931 . S
C189 C188 1.370 . S
C189 C193 1.408 . S
C190 C188 1.363 . S
C190 C191 1.370 . S
C190 C194 1.524 . S
C191 C183 1.503 . S
C191 C190 1.370 . S
C191 C192 1.403 . S
C192 C191 1.403 . S
C192 C193 1.404 . S
C192 C195 1.539 . S
C193 C189 1.408 . S
C193 C192 1.404 . S
C193 H205 0.930 . S
C194 C190 1.524 . S
C194 H206 0.956 . S
C194 H207 0.961 . S
C194 H208 0.961 . S
C195 C192 1.539 . S
C195 H209 0.958 . S
C195 H210 0.961 . S
C195 H211 0.960 . S
H196 C180 0.931 . S
H197 C185 0.929 . S
H198 C186 0.960 . S
H199 C186 0.962 . S
H200 C186 0.960 . S
H201 C187 0.961 . S
H202 C187 0.961 . S
H203 C187 0.961 . S
H204 C188 0.931 . S
H205 C193 0.930 . S
H206 C194 0.956 . S
H207 C194 0.961 . S
H208 C194 0.961 . S
H209 C195 0.958 . S
H210 C195 0.961 . S
H211 C195 0.960 . S
C212 C213 1.391 . S
C212 C214 1.394 . S
C212 H228 0.931 . S
C213 C212 1.391 . S
C213 C217 1.376 . S
C214 C212 1.394 . S
C214 C215 1.369 . S
C214 C218 1.531 . S
C215 C214 1.369 . S
C215 C216 1.410 . S
C215 C223 1.503 . S
C216 C215 1.410 . S
C216 C217 1.392 . S
C216 C219 1.511 . S
C217 C213 1.376 . S
C217 C216 1.392 . S
C217 H229 0.929 . S
C218 C214 1.531 . S
C218 H230 0.960 . S
C218 H231 0.962 . S
C218 H232 0.960 . S
C219 C216 1.511 . S
C219 H233 0.961 . S
C219 H234 0.961 . S
C219 H235 0.961 . S
C220 C221 1.370 . S
C220 C222 1.363 . S
C220 H236 0.931 . S
C221 C220 1.370 . S
C221 C225 1.408 . S
C222 C220 1.363 . S
C222 C223 1.370 . S
C222 C226 1.524 . S
C223 C215 1.503 . S
C223 C222 1.370 . S
C223 C224 1.403 . S
C224 C223 1.403 . S
C224 C225 1.404 . S
C224 C227 1.539 . S
C225 C221 1.408 . S
C225 C224 1.404 . S
C225 H237 0.930 . S
C226 C222 1.524 . S
C226 H238 0.956 . S
C226 H239 0.961 . S
C226 H240 0.961 . S
C227 C224 1.539 . S
C227 H241 0.958 . S
C227 H242 0.961 . S
C227 H243 0.960 . S
H228 C212 0.931 . S
H229 C217 0.929 . S
H230 C218 0.960 . S
H231 C218 0.962 . S
H232 C218 0.960 . S
H233 C219 0.961 . S
H234 C219 0.961 . S
H235 C219 0.961 . S
H236 C220 0.931 . S
H237 C225 0.930 . S
H238 C226 0.956 . S
H239 C226 0.961 . S
H240 C226 0.961 . S
H241 C227 0.958 . S
H242 C227 0.961 . S
H243 C227 0.960 . S
C244 C245 1.391 . S
C244 C246 1.394 . S
C244 H260 0.931 . S
C245 C244 1.391 . S
C245 C249 1.376 . S
C246 C244 1.394 . S
C246 C247 1.369 . S
C246 C250 1.531 1_554 S
C247 C246 1.369 . S
C247 C248 1.410 . S
C247 C255 1.503 1_554 S
C248 C247 1.410 . S
C248 C249 1.392 . S
C248 C251 1.511 . S
C249 C245 1.376 . S
C249 C248 1.392 . S
C249 H261 0.929 . S
C250 C246 1.531 1_556 S
C250 H262 0.960 . S
C250 H263 0.962 . S
C250 H264 0.960 . S
C251 C248 1.511 . S
C251 H265 0.961 . S
C251 H266 0.961 . S
C251 H267 0.961 . S
C252 C253 1.370 . S
C252 C254 1.363 . S
C252 H268 0.931 . S
C253 C252 1.370 . S
C253 C257 1.408 . S
C254 C252 1.363 . S
C254 C255 1.370 . S
C254 C258 1.524 . S
C255 C247 1.503 1_556 S
C255 C254 1.370 . S
C255 C256 1.403 . S
C256 C255 1.403 . S
C256 C257 1.404 . S
C256 C259 1.539 . S
C257 C253 1.408 . S
C257 C256 1.404 . S
C257 H269 0.930 . S
C258 C254 1.524 . S
C258 H270 0.956 . S
C258 H271 0.961 1_556 S
C258 H272 0.961 . S
C259 C256 1.539 . S
C259 H273 0.958 . S
C259 H274 0.961 . S
C259 H275 0.960 . S
H260 C244 0.931 . S
H261 C249 0.929 . S
H262 C250 0.960 . S
H263 C250 0.962 . S
H264 C250 0.960 . S
H265 C251 0.961 . S
H266 C251 0.961 . S
H267 C251 0.961 . S
H268 C252 0.931 . S
H269 C257 0.930 . S
H270 C258 0.956 . S
H271 C258 0.961 1_554 S
H272 C258 0.961 . S
H273 C259 0.958 . S
H274 C259 0.961 . S
H275 C259 0.960 . S
C276 C277 1.391 . S
C276 C278 1.394 . S
C276 H292 0.931 . S
C277 C276 1.391 . S
C277 C281 1.376 . S
C278 C276 1.394 . S
C278 C279 1.369 . S
C278 C282 1.531 . S
C279 C278 1.369 . S
C279 C280 1.410 . S
C279 C287 1.503 . S
C280 C279 1.410 . S
C280 C281 1.392 . S
C280 C283 1.511 . S
C281 C277 1.376 . S
C281 C280 1.392 . S
C281 H293 0.929 . S
C282 C278 1.531 . S
C282 H294 0.960 . S
C282 H295 0.962 . S
C282 H296 0.960 . S
C283 C280 1.511 . S
C283 H297 0.961 . S
C283 H298 0.961 . S
C283 H299 0.961 . S
C284 C285 1.370 . S
C284 C286 1.363 . S
C284 H300 0.931 . S
C285 C284 1.370 . S
C285 C289 1.408 . S
C286 C284 1.363 . S
C286 C287 1.370 . S
C286 C290 1.524 . S
C287 C279 1.503 . S
C287 C286 1.370 . S
C287 C288 1.403 . S
C288 C287 1.403 . S
C288 C289 1.404 . S
C288 C291 1.539 . S
C289 C285 1.408 . S
C289 C288 1.404 . S
C289 H301 0.930 . S
C290 C286 1.524 . S
C290 H302 0.956 . S
C290 H303 0.961 . S
C290 H304 0.961 . S
C291 C288 1.539 . S
C291 H305 0.958 . S
C291 H306 0.961 . S
C291 H307 0.960 . S
H292 C276 0.931 . S
H293 C281 0.929 . S
H294 C282 0.960 . S
H295 C282 0.962 . S
H296 C282 0.960 . S
H297 C283 0.961 . S
H298 C283 0.961 . S
H299 C283 0.961 . S
H300 C284 0.931 . S
H301 C289 0.930 . S
H302 C290 0.956 . S
H303 C290 0.961 . S
H304 C290 0.961 . S
H305 C291 0.958 . S
H306 C291 0.961 . S
H307 C291 0.960 . S
C308 C309 1.391 . S
C308 C310 1.394 . S
C308 H324 0.931 . S
C309 C308 1.391 . S
C309 C313 1.376 . S
C310 C308 1.394 . S
C310 C311 1.369 . S
C310 C314 1.531 . S
C311 C310 1.369 . S
C311 C312 1.410 . S
C311 C319 1.503 . S
C312 C311 1.410 . S
C312 C313 1.392 . S
C312 C315 1.511 . S
C313 C309 1.376 . S
C313 C312 1.392 . S
C313 H325 0.929 . S
C314 C310 1.531 . S
C314 H326 0.960 . S
C314 H327 0.962 . S
C314 H328 0.960 . S
C315 C312 1.511 . S
C315 H329 0.961 . S
C315 H330 0.961 . S
C315 H331 0.961 . S
C316 C317 1.370 . S
C316 C318 1.363 . S
C316 H332 0.931 . S
C317 C316 1.370 . S
C317 C321 1.408 . S
C318 C316 1.363 . S
C318 C319 1.370 . S
C318 C322 1.524 . S
C319 C311 1.503 . S
C319 C318 1.370 . S
C319 C320 1.403 . S
C320 C319 1.403 . S
C320 C321 1.404 . S
C320 C323 1.539 . S
C321 C317 1.408 . S
C321 C320 1.404 . S
C321 H333 0.930 . S
C322 C318 1.524 . S
C322 H334 0.956 . S
C322 H335 0.961 . S
C322 H336 0.961 . S
C323 C320 1.539 . S
C323 H337 0.958 . S
C323 H338 0.961 . S
C323 H339 0.960 . S
H324 C308 0.931 . S
H325 C313 0.929 . S
H326 C314 0.960 . S
H327 C314 0.962 . S
H328 C314 0.960 . S
H329 C315 0.961 . S
H330 C315 0.961 . S
H331 C315 0.961 . S
H332 C316 0.931 . S
H333 C321 0.930 . S
H334 C322 0.956 . S
H335 C322 0.961 . S
H336 C322 0.961 . S
H337 C323 0.958 . S
H338 C323 0.961 . S
H339 C323 0.960 . S
C340 C341 1.391 . S
C340 C342 1.394 . S
C340 H356 0.931 . S
C341 C340 1.391 . S
C341 C345 1.376 . S
C342 C340 1.394 . S
C342 C343 1.369 . S
C342 C346 1.531 . S
C343 C342 1.369 . S
C343 C344 1.410 . S
C343 C351 1.503 . S
C344 C343 1.410 . S
C344 C345 1.392 . S
C344 C347 1.511 . S
C345 C341 1.376 . S
C345 C344 1.392 . S
C345 H357 0.929 . S
C346 C342 1.531 . S
C346 H358 0.960 . S
C346 H359 0.962 . S
C346 H360 0.960 . S
C347 C344 1.511 . S
C347 H361 0.961 . S
C347 H362 0.961 . S
C347 H363 0.961 . S
C348 C349 1.370 . S
C348 C350 1.363 . S
C348 H364 0.931 . S
C349 C348 1.370 . S
C349 C353 1.408 . S
C350 C348 1.363 . S
C350 C351 1.370 . S
C350 C354 1.524 . S
C351 C343 1.503 . S
C351 C350 1.370 . S
C351 C352 1.403 . S
C352 C351 1.403 . S
C352 C353 1.404 . S
C352 C355 1.539 . S
C353 C349 1.408 . S
C353 C352 1.404 . S
C353 H365 0.930 . S
C354 C350 1.524 . S
C354 H366 0.956 . S
C354 H367 0.961 . S
C354 H368 0.961 . S
C355 C352 1.539 . S
C355 H369 0.958 . S
C355 H370 0.961 . S
C355 H371 0.960 . S
H356 C340 0.931 . S
H357 C345 0.929 . S
H358 C346 0.960 . S
H359 C346 0.962 . S
H360 C346 0.960 . S
H361 C347 0.961 . S
H362 C347 0.961 . S
H363 C347 0.961 . S
H364 C348 0.931 . S
H365 C353 0.930 . S
H366 C354 0.956 . S
H367 C354 0.961 . S
H368 C354 0.961 . S
H369 C355 0.958 . S
H370 C355 0.961 . S
H371 C355 0.960 . S
C372 C373 1.391 . S
C372 C374 1.394 . S
C372 H388 0.931 . S
C373 C372 1.391 . S
C373 C377 1.376 . S
C374 C372 1.394 . S
C374 C375 1.369 . S
C374 C378 1.531 . S
C375 C374 1.369 . S
C375 C376 1.410 . S
C375 C383 1.503 . S
C376 C375 1.410 . S
C376 C377 1.392 . S
C376 C379 1.511 . S
C377 C373 1.376 . S
C377 C376 1.392 . S
C377 H389 0.929 . S
C378 C374 1.531 . S
C378 H390 0.960 . S
C378 H391 0.962 . S
C378 H392 0.960 . S
C379 C376 1.511 . S
C379 H393 0.961 . S
C379 H394 0.961 . S
C379 H395 0.961 . S
C380 C381 1.370 . S
C380 C382 1.363 . S
C380 H396 0.931 . S
C381 C380 1.370 . S
C381 C385 1.408 . S
C382 C380 1.363 . S
C382 C383 1.370 . S
C382 C386 1.524 . S
C383 C375 1.503 . S
C383 C382 1.370 . S
C383 C384 1.403 . S
C384 C383 1.403 . S
C384 C385 1.404 . S
C384 C387 1.539 . S
C385 C381 1.408 . S
C385 C384 1.404 . S
C385 H397 0.930 . S
C386 C382 1.524 . S
C386 H398 0.956 . S
C386 H399 0.961 . S
C386 H400 0.961 . S
C387 C384 1.539 . S
C387 H401 0.958 . S
C387 H402 0.961 . S
C387 H403 0.960 . S
H388 C372 0.931 . S
H389 C377 0.929 . S
H390 C378 0.960 . S
H391 C378 0.962 . S
H392 C378 0.960 . S
H393 C379 0.961 . S
H394 C379 0.961 . S
H395 C379 0.961 . S
H396 C380 0.931 . S
H397 C385 0.930 . S
H398 C386 0.956 . S
H399 C386 0.961 . S
H400 C386 0.961 . S
H401 C387 0.958 . S
H402 C387 0.961 . S
H403 C387 0.960 . S
C404 C405 1.391 . S
C404 C406 1.394 . S
C404 H420 0.931 . S
C405 C404 1.391 . S
C405 C409 1.376 . S
C406 C404 1.394 . S
C406 C407 1.369 . S
C406 C410 1.531 . S
C407 C406 1.369 . S
C407 C408 1.410 1_455 S
C407 C415 1.503 . S
C408 C407 1.410 1_655 S
C408 C409 1.392 1_655 S
C408 C411 1.511 . S
C409 C405 1.376 . S
C409 C408 1.392 1_455 S
C409 H421 0.929 1_455 S
C410 C406 1.531 . S
C410 H422 0.960 . S
C410 H423 0.962 . S
C410 H424 0.960 . S
C411 C408 1.511 . S
C411 H425 0.961 . S
C411 H426 0.961 . S
C411 H427 0.961 . S
C412 C413 1.370 . S
C412 C414 1.363 . S
C412 H428 0.931 . S
C413 C412 1.370 . S
C413 C417 1.408 . S
C414 C412 1.363 . S
C414 C415 1.370 1_655 S
C414 C418 1.524 1_655 S
C415 C407 1.503 . S
C415 C414 1.370 1_455 S
C415 C416 1.403 1_455 S
C416 C415 1.403 1_655 S
C416 C417 1.404 . S
C416 C419 1.539 . S
C417 C413 1.408 . S
C417 C416 1.404 . S
C417 H429 0.930 . S
C418 C414 1.524 1_455 S
C418 H430 0.956 . S
C418 H431 0.961 1_455 S
C418 H432 0.961 . S
C419 C416 1.539 . S
C419 H433 0.958 1_655 S
C419 H434 0.961 . S
C419 H435 0.960 . S
H420 C404 0.931 . S
H421 C409 0.929 1_655 S
H422 C410 0.960 . S
H423 C410 0.962 . S
H424 C410 0.960 . S
H425 C411 0.961 . S
H426 C411 0.961 . S
H427 C411 0.961 . S
H428 C412 0.931 . S
H429 C417 0.930 . S
H430 C418 0.956 . S
H431 C418 0.961 1_655 S
H432 C418 0.961 . S
H433 C419 0.958 1_455 S
H434 C419 0.961 . S
H435 C419 0.960 . S
C436 C437 1.391 . S
C436 C438 1.394 1_545 S
C436 H452 0.931 . S
C437 C436 1.391 . S
C437 C441 1.376 . S
C438 C436 1.394 1_565 S
C438 C439 1.369 . S
C438 C442 1.531 . S
C439 C438 1.369 . S
C439 C440 1.410 . S
C439 C447 1.503 . S
C440 C439 1.410 . S
C440 C441 1.392 1_565 S
C440 C443 1.511 . S
C441 C437 1.376 . S
C441 C440 1.392 1_545 S
C441 H453 0.929 . S
C442 C438 1.531 . S
C442 H454 0.960 . S
C442 H455 0.962 . S
C442 H456 0.960 . S
C443 C440 1.511 . S
C443 H457 0.961 1_565 S
C443 H458 0.961 . S
C443 H459 0.961 . S
C444 C445 1.370 . S
C444 C446 1.363 . S
C444 H460 0.931 . S
C445 C444 1.370 . S
C445 C449 1.408 . S
C446 C444 1.363 . S
C446 C447 1.370 . S
C446 C450 1.524 1_565 S
C447 C439 1.503 . S
C447 C446 1.370 . S
C447 C448 1.403 . S
C448 C447 1.403 . S
C448 C449 1.404 . S
C448 C451 1.539 . S
C449 C445 1.408 . S
C449 C448 1.404 . S
C449 H461 0.930 . S
C450 C446 1.524 1_545 S
C450 H462 0.956 . S
C450 H463 0.961 . S
C450 H464 0.961 . S
C451 C448 1.539 . S
C451 H465 0.958 . S
C451 H466 0.961 . S
C451 H467 0.960 . S
H452 C436 0.931 . S
H453 C441 0.929 . S
H454 C442 0.960 . S
H455 C442 0.962 . S
H456 C442 0.960 . S
H457 C443 0.961 1_545 S
H458 C443 0.961 . S
H459 C443 0.961 . S
H460 C444 0.931 . S
H461 C449 0.930 . S
H462 C450 0.956 . S
H463 C450 0.961 . S
H464 C450 0.961 . S
H465 C451 0.958 . S
H466 C451 0.961 . S
H467 C451 0.960 . S
C468 C469 1.391 . S
C468 C470 1.394 . S
C468 H484 0.931 . S
C469 C468 1.391 . S
C469 C473 1.376 . S
C470 C468 1.394 . S
C470 C471 1.369 . S
C470 C474 1.531 . S
C471 C470 1.369 . S
C471 C472 1.410 . S
C471 C479 1.503 . S
C472 C471 1.410 . S
C472 C473 1.392 . S
C472 C475 1.511 . S
C473 C469 1.376 . S
C473 C472 1.392 . S
C473 H485 0.929 . S
C474 C470 1.531 . S
C474 H486 0.960 . S
C474 H487 0.962 . S
C474 H488 0.960 . S
C475 C472 1.511 . S
C475 H489 0.961 . S
C475 H490 0.961 . S
C475 H491 0.961 . S
C476 C477 1.370 . S
C476 C478 1.363 . S
C476 H492 0.931 . S
C477 C476 1.370 . S
C477 C481 1.408 . S
C478 C476 1.363 . S
C478 C479 1.370 . S
C478 C482 1.524 . S
C479 C471 1.503 . S
C479 C478 1.370 . S
C479 C480 1.403 . S
C480 C479 1.403 . S
C480 C481 1.404 . S
C480 C483 1.539 . S
C481 C477 1.408 . S
C481 C480 1.404 . S
C481 H493 0.930 . S
C482 C478 1.524 . S
C482 H494 0.956 . S
C482 H495 0.961 . S
C482 H496 0.961 . S
C483 C480 1.539 . S
C483 H497 0.958 . S
C483 H498 0.961 . S
C483 H499 0.960 . S
H484 C468 0.931 . S
H485 C473 0.929 . S
H486 C474 0.960 . S
H487 C474 0.962 . S
H488 C474 0.960 . S
H489 C475 0.961 . S
H490 C475 0.961 . S
H491 C475 0.961 . S
H492 C476 0.931 . S
H493 C481 0.930 . S
H494 C482 0.956 . S
H495 C482 0.961 . S
H496 C482 0.961 . S
H497 C483 0.958 . S
H498 C483 0.961 . S
H499 C483 0.960 . S
C500 C501 1.391 1_655 S
C500 C502 1.394 . S
C500 H516 0.931 . S
C501 C500 1.391 1_455 S
C501 C505 1.376 . S
C502 C500 1.394 . S
C502 C503 1.369 . S
C502 C506 1.531 . S
C503 C502 1.369 . S
C503 C504 1.410 1_655 S
C503 C511 1.503 . S
C504 C503 1.410 1_455 S
C504 C505 1.392 . S
C504 C507 1.511 . S
C505 C501 1.376 . S
C505 C504 1.392 . S
C505 H517 0.929 . S
C506 C502 1.531 . S
C506 H518 0.960 . S
C506 H519 0.962 . S
C506 H520 0.960 . S
C507 C504 1.511 . S
C507 H521 0.961 . S
C507 H522 0.961 . S
C507 H523 0.961 . S
C508 C509 1.370 . S
C508 C510 1.363 . S
C508 H524 0.931 . S
C509 C508 1.370 . S
C509 C513 1.408 . S
C510 C508 1.363 . S
C510 C511 1.370 . S
C510 C514 1.524 . S
C511 C503 1.503 . S
C511 C510 1.370 . S
C511 C512 1.403 . S
C512 C511 1.403 . S
C512 C513 1.404 . S
C512 C515 1.539 1_655 S
C513 C509 1.408 . S
C513 C512 1.404 . S
C513 H525 0.930 . S
C514 C510 1.524 . S
C514 H526 0.956 . S
C514 H527 0.961 . S
C514 H528 0.961 . S
C515 C512 1.539 1_455 S
C515 H529 0.958 . S
C515 H530 0.961 . S
C515 H531 0.960 . S
H516 C500 0.931 . S
H517 C505 0.929 . S
H518 C506 0.960 . S
H519 C506 0.962 . S
H520 C506 0.960 . S
H521 C507 0.961 . S
H522 C507 0.961 . S
H523 C507 0.961 . S
H524 C508 0.931 . S
H525 C513 0.930 . S
H526 C514 0.956 . S
H527 C514 0.961 . S
H528 C514 0.961 . S
H529 C515 0.958 . S
H530 C515 0.961 . S
H531 C515 0.960 . S
C532 C533 1.391 1_545 S
C532 C534 1.394 . S
C532 H548 0.931 . S
C533 C532 1.391 1_565 S
C533 C537 1.376 . S
C534 C532 1.394 . S
C534 C535 1.369 . S
C534 C538 1.531 . S
C535 C534 1.369 . S
C535 C536 1.410 1_545 S
C535 C543 1.503 . S
C536 C535 1.410 1_565 S
C536 C537 1.392 . S
C536 C539 1.511 . S
C537 C533 1.376 . S
C537 C536 1.392 . S
C537 H549 0.929 . S
C538 C534 1.531 . S
C538 H550 0.960 . S
C538 H551 0.962 . S
C538 H552 0.960 . S
C539 C536 1.511 . S
C539 H553 0.961 . S
C539 H554 0.961 . S
C539 H555 0.961 . S
C540 C541 1.370 . S
C540 C542 1.363 . S
C540 H556 0.931 . S
C541 C540 1.370 . S
C541 C545 1.408 . S
C542 C540 1.363 . S
C542 C543 1.370 . S
C542 C546 1.524 1_545 S
C543 C535 1.503 . S
C543 C542 1.370 . S
C543 C544 1.403 . S
C544 C543 1.403 . S
C544 C545 1.404 . S
C544 C547 1.539 . S
C545 C541 1.408 . S
C545 C544 1.404 . S
C545 H557 0.930 . S
C546 C542 1.524 1_565 S
C546 H558 0.956 . S
C546 H559 0.961 . S
C546 H560 0.961 . S
C547 C544 1.539 . S
C547 H561 0.958 . S
C547 H562 0.961 . S
C547 H563 0.960 . S
H548 C532 0.931 . S
H549 C537 0.929 . S
H550 C538 0.960 . S
H551 C538 0.962 . S
H552 C538 0.960 . S
H553 C539 0.961 . S
H554 C539 0.961 . S
H555 C539 0.961 . S
H556 C540 0.931 . S
H557 C545 0.930 . S
H558 C546 0.956 . S
H559 C546 0.961 . S
H560 C546 0.961 . S
H561 C547 0.958 . S
H562 C547 0.961 . S
H563 C547 0.960 . S
C564 C565 1.391 . S
C564 C566 1.394 . S
C564 H580 0.931 . S
C565 C564 1.391 . S
C565 C569 1.376 . S
C566 C564 1.394 . S
C566 C567 1.369 . S
C566 C570 1.531 . S
C567 C566 1.369 . S
C567 C568 1.410 . S
C567 C575 1.503 . S
C568 C567 1.410 . S
C568 C569 1.392 . S
C568 C571 1.511 . S
C569 C565 1.376 . S
C569 C568 1.392 . S
C569 H581 0.929 . S
C570 C566 1.531 . S
C570 H582 0.960 . S
C570 H583 0.962 . S
C570 H584 0.960 . S
C571 C568 1.511 . S
C571 H585 0.961 . S
C571 H586 0.961 . S
C571 H587 0.961 . S
C572 C573 1.370 . S
C572 C574 1.363 1_554 S
C572 H588 0.931 . S
C573 C572 1.370 . S
C573 C577 1.408 1_554 S
C574 C572 1.363 1_556 S
C574 C575 1.370 . S
C574 C578 1.524 . S
C575 C567 1.503 . S
C575 C574 1.370 . S
C575 C576 1.403 . S
C576 C575 1.403 . S
C576 C577 1.404 . S
C576 C579 1.539 . S
C577 C573 1.408 1_556 S
C577 C576 1.404 . S
C577 H589 0.930 . S
C578 C574 1.524 . S
C578 H590 0.956 . S
C578 H591 0.961 . S
C578 H592 0.961 . S
C579 C576 1.539 . S
C579 H593 0.958 . S
C579 H594 0.961 . S
C579 H595 0.960 . S
H580 C564 0.931 . S
H581 C569 0.929 . S
H582 C570 0.960 . S
H583 C570 0.962 . S
H584 C570 0.960 . S
H585 C571 0.961 . S
H586 C571 0.961 . S
H587 C571 0.961 . S
H588 C572 0.931 . S
H589 C577 0.930 . S
H590 C578 0.956 . S
H591 C578 0.961 . S
H592 C578 0.961 . S
H593 C579 0.958 . S
H594 C579 0.961 . S
H595 C579 0.960 . S
C596 C597 1.391 . S
C596 C598 1.394 . S
C596 H612 0.931 . S
C597 C596 1.391 . S
C597 C601 1.376 . S
C598 C596 1.394 . S
C598 C599 1.369 . S
C598 C602 1.531 1_655 S
C599 C598 1.369 . S
C599 C600 1.410 . S
C599 C607 1.503 1_655 S
C600 C599 1.410 . S
C600 C601 1.392 . S
C600 C603 1.511 . S
C601 C597 1.376 . S
C601 C600 1.392 . S
C601 H613 0.929 . S
C602 C598 1.531 1_455 S
C602 H614 0.960 . S
C602 H615 0.962 . S
C602 H616 0.960 . S
C603 C600 1.511 . S
C603 H617 0.961 . S
C603 H618 0.961 . S
C603 H619 0.961 . S
C604 C605 1.370 . S
C604 C606 1.363 1_455 S
C604 H620 0.931 . S
C605 C604 1.370 . S
C605 C609 1.408 . S
C606 C604 1.363 1_655 S
C606 C607 1.370 1_655 S
C606 C610 1.524 . S
C607 C599 1.503 1_455 S
C607 C606 1.370 1_455 S
C607 C608 1.403 . S
C608 C607 1.403 . S
C608 C609 1.404 . S
C608 C611 1.539 . S
C609 C605 1.408 . S
C609 C608 1.404 . S
C609 H621 0.930 . S
C610 C606 1.524 . S
C610 H622 0.956 . S
C610 H623 0.961 . S
C610 H624 0.961 . S
C611 C608 1.539 . S
C611 H625 0.958 . S
C611 H626 0.961 . S
C611 H627 0.960 . S
H612 C596 0.931 . S
H613 C601 0.929 . S
H614 C602 0.960 . S
H615 C602 0.962 . S
H616 C602 0.960 . S
H617 C603 0.961 . S
H618 C603 0.961 . S
H619 C603 0.961 . S
H620 C604 0.931 . S
H621 C609 0.930 . S
H622 C610 0.956 . S
H623 C610 0.961 . S
H624 C610 0.961 . S
H625 C611 0.958 . S
H626 C611 0.961 . S
H627 C611 0.960 . S
C628 C629 1.391 . S
C628 C630 1.394 . S
C628 H644 0.931 . S
C629 C628 1.391 . S
C629 C633 1.376 . S
C630 C628 1.394 . S
C630 C631 1.369 . S
C630 C634 1.531 . S
C631 C630 1.369 . S
C631 C632 1.410 . S
C631 C639 1.503 1_565 S
C632 C631 1.410 . S
C632 C633 1.392 . S
C632 C635 1.511 1_565 S
C633 C629 1.376 . S
C633 C632 1.392 . S
C633 H645 0.929 . S
C634 C630 1.531 . S
C634 H646 0.960 . S
C634 H647 0.962 . S
C634 H648 0.960 . S
C635 C632 1.511 1_545 S
C635 H649 0.961 . S
C635 H650 0.961 . S
C635 H651 0.961 1_545 S
C636 C637 1.370 . S
C636 C638 1.363 . S
C636 H652 0.931 . S
C637 C636 1.370 . S
C637 C641 1.408 . S
C638 C636 1.363 . S
C638 C639 1.370 . S
C638 C642 1.524 . S
C639 C631 1.503 1_545 S
C639 C638 1.370 . S
C639 C640 1.403 1_545 S
C640 C639 1.403 1_565 S
C640 C641 1.404 1_565 S
C640 C643 1.539 . S
C641 C637 1.408 . S
C641 C640 1.404 1_545 S
C641 H653 0.930 . S
C642 C638 1.524 . S
C642 H654 0.956 . S
C642 H655 0.961 . S
C642 H656 0.961 . S
C643 C640 1.539 . S
C643 H657 0.958 . S
C643 H658 0.961 . S
C643 H659 0.960 . S
H644 C628 0.931 . S
H645 C633 0.929 . S
H646 C634 0.960 . S
H647 C634 0.962 . S
H648 C634 0.960 . S
H649 C635 0.961 . S
H650 C635 0.961 . S
H651 C635 0.961 1_565 S
H652 C636 0.931 . S
H653 C641 0.930 . S
H654 C642 0.956 . S
H655 C642 0.961 . S
H656 C642 0.961 . S
H657 C643 0.958 . S
H658 C643 0.961 . S
H659 C643 0.960 . S
C660 C661 1.391 . S
C660 C662 1.394 . S
C660 H676 0.931 . S
C661 C660 1.391 . S
C661 C665 1.376 . S
C662 C660 1.394 . S
C662 C663 1.369 . S
C662 C666 1.531 . S
C663 C662 1.369 . S
C663 C664 1.410 . S
C663 C671 1.503 . S
C664 C663 1.410 . S
C664 C665 1.392 . S
C664 C667 1.511 . S
C665 C661 1.376 . S
C665 C664 1.392 . S
C665 H677 0.929 . S
C666 C662 1.531 . S
C666 H678 0.960 . S
C666 H679 0.962 . S
C666 H680 0.960 . S
C667 C664 1.511 . S
C667 H681 0.961 . S
C667 H682 0.961 . S
C667 H683 0.961 . S
C668 C669 1.370 1_556 S
C668 C670 1.363 . S
C668 H684 0.931 . S
C669 C668 1.370 1_554 S
C669 C673 1.408 . S
C670 C668 1.363 . S
C670 C671 1.370 . S
C670 C674 1.524 . S
C671 C663 1.503 . S
C671 C670 1.370 . S
C671 C672 1.403 . S
C672 C671 1.403 . S
C672 C673 1.404 1_556 S
C672 C675 1.539 . S
C673 C669 1.408 . S
C673 C672 1.404 1_554 S
C673 H685 0.930 . S
C674 C670 1.524 . S
C674 H686 0.956 . S
C674 H687 0.961 . S
C674 H688 0.961 . S
C675 C672 1.539 . S
C675 H689 0.958 . S
C675 H690 0.978 . S
C675 H691 0.960 . S
H676 C660 0.931 . S
H677 C665 0.929 . S
H678 C666 0.960 . S
H679 C666 0.962 . S
H680 C666 0.960 . S
H681 C667 0.961 . S
H682 C667 0.961 . S
H683 C667 0.961 . S
H684 C668 0.931 . S
H685 C673 0.930 . S
H686 C674 0.956 . S
H687 C674 0.961 . S
H688 C674 0.961 . S
H689 C675 0.958 . S
H690 C675 0.978 . S
H691 C675 0.960 . S
C692 C693 1.391 . S
C692 C694 1.394 . S
C692 H708 0.931 . S
C693 C692 1.391 . S
C693 C697 1.376 . S
C694 C692 1.394 . S
C694 C695 1.369 1_455 S
C694 C698 1.531 1_455 S
C695 C694 1.369 1_655 S
C695 C696 1.410 1_655 S
C695 C703 1.503 . S
C696 C695 1.410 1_455 S
C696 C697 1.392 . S
C696 C699 1.511 . S
C697 C693 1.376 . S
C697 C696 1.392 . S
C697 H709 0.929 . S
C698 C694 1.531 1_655 S
C698 H710 0.960 . S
C698 H711 0.962 . S
C698 H712 0.960 . S
C699 C696 1.511 . S
C699 H713 0.961 . S
C699 H714 0.961 . S
C699 H715 0.961 1_455 S
C700 C701 1.370 . S
C700 C702 1.363 . S
C700 H716 0.931 . S
C701 C700 1.370 . S
C701 C705 1.408 . S
C702 C700 1.363 . S
C702 C703 1.370 . S
C702 C706 1.524 1_655 S
C703 C695 1.503 . S
C703 C702 1.370 . S
C703 C704 1.403 . S
C704 C703 1.403 . S
C704 C705 1.404 . S
C704 C707 1.539 . S
C705 C701 1.408 . S
C705 C704 1.404 . S
C705 H717 0.930 . S
C706 C702 1.524 1_455 S
C706 H718 0.956 . S
C706 H719 0.961 . S
C706 H720 0.961 . S
C707 C704 1.539 . S
C707 H721 0.958 . S
C707 H722 0.961 . S
C707 H723 0.960 . S
H708 C692 0.931 . S
H709 C697 0.929 . S
H710 C698 0.960 . S
H711 C698 0.962 . S
H712 C698 0.960 . S
H713 C699 0.961 . S
H714 C699 0.961 . S
H715 C699 0.961 1_655 S
H716 C700 0.931 . S
H717 C705 0.930 . S
H718 C706 0.956 . S
H719 C706 0.961 . S
H720 C706 0.961 . S
H721 C707 0.958 . S
H722 C707 0.961 . S
H723 C707 0.960 . S
C724 C725 1.391 . S
C724 C726 1.394 . S
C724 H740 0.931 . S
C725 C724 1.391 . S
C725 C729 1.376 . S
C726 C724 1.394 . S
C726 C727 1.369 . S
C726 C730 1.531 . S
C727 C726 1.369 . S
C727 C728 1.410 1_545 S
C727 C735 1.503 1_545 S
C728 C727 1.410 1_565 S
C728 C729 1.392 1_565 S
C728 C731 1.511 . S
C729 C725 1.376 . S
C729 C728 1.392 1_545 S
C729 H741 0.929 . S
C730 C726 1.531 . S
C730 H742 0.960 . S
C730 H743 0.962 . S
C730 H744 0.960 . S
C731 C728 1.511 . S
C731 H745 0.961 . S
C731 H746 0.961 . S
C731 H747 0.961 . S
C732 C733 1.370 . S
C732 C734 1.363 . S
C732 H748 0.931 . S
C733 C732 1.370 . S
C733 C737 1.408 . S
C734 C732 1.363 . S
C734 C735 1.370 . S
C734 C738 1.524 . S
C735 C727 1.503 1_565 S
C735 C734 1.370 . S
C735 C736 1.403 . S
C736 C735 1.403 . S
C736 C737 1.404 . S
C736 C739 1.539 1_565 S
C737 C733 1.408 . S
C737 C736 1.404 . S
C737 H749 0.930 . S
C738 C734 1.524 . S
C738 H750 0.956 . S
C738 H751 0.961 . S
C738 H752 0.961 . S
C739 C736 1.539 1_545 S
C739 H753 0.958 . S
C739 H754 0.961 1_545 S
C739 H755 0.960 . S
H740 C724 0.931 . S
H741 C729 0.929 . S
H742 C730 0.960 . S
H743 C730 0.962 . S
H744 C730 0.960 . S
H745 C731 0.961 . S
H746 C731 0.961 . S
H747 C731 0.961 . S
H748 C732 0.931 . S
H749 C737 0.930 . S
H750 C738 0.956 . S
H751 C738 0.961 . S
H752 C738 0.961 . S
H753 C739 0.958 . S
H754 C739 0.961 1_565 S
H755 C739 0.960 . S
C181 C147 0.801 . S
C189 N6 0.841 . S
C213 N156 0.865 . S
C221 C57 0.815 . S
C245 C27 0.846 . S
C253 N66 0.807 . S
C277 N36 0.780 . S
C285 C117 0.838 . S
C309 C87 0.851 . S
C317 N126 0.809 . S
C341 N96 0.827 . S
C349 C177 0.823 . S
C373 C1 1.334 . S
C381 C100 1.401 . S
C405 C121 1.410 . S
C413 C40 1.389 . S
C437 C160 1.426 . S
C445 C61 1.365 . S
C469 C70 1.362 . S
C477 C151 1.378 . S
C501 C10 1.346 . S
C509 C91 1.389 . S
C533 C130 1.409 . S
C541 C31 1.363 . S
C565 N164 0.778 . S
C573 N14 0.747 . S
C597 C46 0.784 . S
C605 C16 0.777 . S
C629 N74 0.732 . S
C637 N44 0.763 . S
C661 C76 0.808 . S
C669 C106 0.779 . S
C693 N134 0.785 . S
C701 N104 0.751 . S
C725 C166 0.720 . S
C733 C136 0.743 . S
