# Generated by pormake.
# Topology rkf, (6)-cn, num edge types: 1
# Building blocks:
#     Node 0, Type 0, BuildingBlock: NUHQIS_clean_sbu_0, # of connection points: 6
#     Node 1, Type 0, BuildingBlock: NUHQIS_clean_sbu_0, # of connection points: 6
#     Node 2, Type 0, BuildingBlock: NUHQIS_clean_sbu_0, # of connection points: 6
#     Node 3, Type 0, BuildingBlock: NUHQIS_clean_sbu_0, # of connection points: 6
#     Node 4, Type 0, BuildingBlock: NUHQIS_clean_sbu_0, # of connection points: 6
#     Node 5, Type 0, BuildingBlock: NUHQIS_clean_sbu_0, # of connection points: 6
#     Edge 6, Type (0, 0), BuildingBlock: MIFKUJ_clean_linker_0, # of connection points: 2
#     Edge 7, Type (0, 0), BuildingBlock: MIFKUJ_clean_linker_0, # of connection points: 2
#     Edge 8, Type (0, 0), BuildingBlock: MIFKUJ_clean_linker_0, # of connection points: 2
#     Edge 9, Type (0, 0), BuildingBlock: MIFKUJ_clean_linker_0, # of connection points: 2
#     Edge 10, Type (0, 0), BuildingBlock: MIFKUJ_clean_linker_0, # of connection points: 2
#     Edge 11, Type (0, 0), BuildingBlock: MIFKUJ_clean_linker_0, # of connection points: 2
#     Edge 12, Type (0, 0), BuildingBlock: MIFKUJ_clean_linker_0, # of connection points: 2
#     Edge 13, Type (0, 0), BuildingBlock: MIFKUJ_clean_linker_0, # of connection points: 2
#     Edge 14, Type (0, 0), BuildingBlock: MIFKUJ_clean_linker_0, # of connection points: 2
#     Edge 15, Type (0, 0), BuildingBlock: MIFKUJ_clean_linker_0, # of connection points: 2
#     Edge 16, Type (0, 0), BuildingBlock: MIFKUJ_clean_linker_0, # of connection points: 2
#     Edge 17, Type (0, 0), BuildingBlock: MIFKUJ_clean_linker_0, # of connection points: 2
#     Edge 18, Type (0, 0), BuildingBlock: MIFKUJ_clean_linker_0, # of connection points: 2
#     Edge 19, Type (0, 0), BuildingBlock: MIFKUJ_clean_linker_0, # of connection points: 2
#     Edge 20, Type (0, 0), BuildingBlock: MIFKUJ_clean_linker_0, # of connection points: 2
#     Edge 21, Type (0, 0), BuildingBlock: MIFKUJ_clean_linker_0, # of connection points: 2
#     Edge 22, Type (0, 0), BuildingBlock: MIFKUJ_clean_linker_0, # of connection points: 2
#     Edge 23, Type (0, 0), BuildingBlock: MIFKUJ_clean_linker_0, # of connection points: 2
# Relax obj value: 0.534
# Max RMSD: 0.255
# Mean RMSD: 0.255
data_MOF--net-rkf--node1-NUHQIS_clean_sbu_0--edge1-MIFKUJ_clean_linker_0
_symmetry_space_group_name_H-M    P1
_symmetry_Int_Tables_number       1
_symmetry_cell_setting            triclinic
loop_
_symmetry_equiv_pos_as_xyz
'x, y, z'
_cell_length_a     31.646928
_cell_length_b     31.44158
_cell_length_c     59.345226
_cell_angle_alpha  89.952353
_cell_angle_beta   90.403181
_cell_angle_gamma 119.49181
loop_
_atom_site_label
_atom_site_type_symbol
_atom_site_fract_x
_atom_site_fract_y
_atom_site_fract_z
_atom_type_partial_charge
Tb0 Tb 0.27374 0.13681 0.10415 0.0
Eu1 Eu 0.36218 0.24527 0.09582 0.0
C2 C 0.25923 0.21648 1.07604 0.0
C3 C 0.31193 0.16411 1.05311 0.0
C4 C 0.20026 0.01815 0.13164 0.0
C5 C 0.14928 0.95403 0.15763 0.0
C6 C 0.15413 0.98506 0.13975 0.0
C7 C 0.24149 0.01941 0.14128 0.0
C8 C 0.23667 0.98824 0.15899 0.0
C9 C 0.19058 0.95567 0.16759 0.0
C10 C 0.20556 0.05263 0.11378 0.0
O11 O 0.33777 0.12763 0.10386 0.0
O12 O 0.39374 0.20488 0.11414 0.0
O13 O 0.32728 0.24888 0.1295 0.0
O14 O 0.29501 0.16886 0.13881 0.0
C15 C 0.38153 0.15919 0.11086 0.0
O16 O 0.43823 0.2925 1.08739 0.0
O17 O 0.39529 0.32419 0.0997 0.0
O18 O 0.30559 0.24584 1.07379 0.0
O19 O 0.24127 0.17897 0.09005 0.0
O20 O 0.27811 0.13446 1.06722 0.0
O21 O 0.34894 0.2063 1.06056 0.0
C22 C 0.30868 0.21431 0.14502 0.0
O23 O 0.20747 0.09291 0.1205 0.0
O24 O 0.23887 0.06106 0.09897 0.0
C25 C 0.45599 0.37027 1.0734 0.0
C26 C 0.48054 0.43894 1.03858 0.0
C27 C 0.47388 0.45079 1.06058 0.0
C28 C 0.46197 0.41676 1.0779 0.0
C29 C 0.4653 0.35942 1.05167 0.0
C30 C 0.47771 0.39357 1.03446 0.0
C31 C 0.43651 0.33264 0.09101 0.0
H32 H 0.11334 0.92995 0.16411 0.0
H33 H 0.12201 0.98391 0.13257 0.0
H34 H 0.27751 0.04496 0.13529 0.0
H35 H 0.26912 0.99004 0.16612 0.0
H36 H 0.47573 0.48546 1.06414 0.0
H37 H 0.4552 0.42589 0.09459 0.0
H38 H 0.46085 0.32383 1.04768 0.0
H39 H 0.48175 0.38307 1.01757 0.0
Tb40 Tb 0.26364 0.30447 0.44175 0.0
Eu41 Eu 0.21064 0.36423 0.42711 0.0
C42 C 0.16023 0.25223 0.42425 0.0
C43 C 0.25709 0.32756 0.38755 0.0
C44 C 0.33086 0.24407 0.46597 0.0
C45 C 0.38707 0.21487 0.47495 0.0
C46 C 0.35712 0.22102 0.45946 0.0
C47 C 0.33533 0.26173 0.488 0.0
C48 C 0.36512 0.25547 0.50353 0.0
C49 C 0.39119 0.23178 0.49721 0.0
C50 C 0.29947 0.24959 0.44941 0.0
O51 O 0.32199 0.37885 0.44697 0.0
O52 O 0.29031 0.42116 0.42851 0.0
O53 O 0.18971 0.34079 0.46474 0.0
O54 O 0.24921 0.32372 0.47597 0.0
C55 C 0.32674 0.4195 0.43841 0.0
O56 O 0.20605 0.43057 0.4316 0.0
O57 O 0.15024 0.37023 0.41254 0.0
O58 O 0.16684 0.28895 0.41177 0.0
O59 O 0.18515 0.26288 0.44289 0.0
O60 O 0.26161 0.30064 0.40375 0.0
O61 O 0.24322 0.35976 0.39299 0.0
C62 C 0.21257 0.33117 0.48122 0.0
O63 O 0.25665 0.24027 0.45613 0.0
O64 O 0.32023 0.28884 0.43716 0.0
C65 C 0.1729 0.44957 0.40049 0.0
C66 C 0.17737 0.50758 0.36352 0.0
C67 C 0.14297 0.49694 0.38062 0.0
C68 C 0.14073 0.46801 0.39898 0.0
C69 C 0.20887 0.46219 0.38419 0.0
C70 C 0.21119 0.49103 0.36592 0.0
C71 C 0.16814 0.41582 0.41853 0.0
H72 H 0.40675 0.19668 0.46953 0.0
H73 H 0.35407 0.20735 0.44243 0.0
H74 H 0.31537 0.27978 0.49326 0.0
H75 H 0.3666 0.26797 0.52067 0.0
H76 H 0.11665 0.50938 0.37935 0.0
H77 H 0.11302 0.45882 0.41161 0.0
H78 H 0.23408 0.44827 0.38519 0.0
H79 H 0.23767 0.49767 0.35298 0.0
Tb80 Tb 0.07885 0.28864 0.77541 0.0
Eu81 Eu 0.96666 0.26005 0.76581 0.0
C82 C 0.00458 0.18828 0.74969 0.0
C83 C 0.04443 0.28794 0.72288 0.0
C84 C 0.2041 0.34397 0.79882 0.0
C85 C 0.28654 0.37819 0.81281 0.0
C86 C 0.25151 0.35235 0.79631 0.0
C87 C 0.19208 0.3626 0.81766 0.0
C88 C 0.22709 0.38849 0.83417 0.0
C89 C 0.27451 0.39598 0.83204 0.0
C90 C 0.16757 0.31597 0.78166 0.0
O91 O 0.07425 0.35291 0.7869 0.0
O92 O 0.00575 0.3409 0.76834 0.0
O93 O 0.97112 0.24668 0.80419 0.0
O94 O 0.04775 0.25767 0.8089 0.0
C95 C 0.04521 0.36895 0.77968 0.0
O96 O 0.91135 0.27717 0.75374 0.0
O97 O 0.89062 0.21246 0.77389 0.0
O98 O 0.9682 0.19674 0.75054 0.0
O99 O 0.04698 0.2165 0.75945 0.0
O100 O 0.07881 0.29893 0.73831 0.0
O101 O -0.00138 0.27163 0.7293 0.0
C102 C 0.00455 0.24516 0.81727 0.0
O103 O 0.13231 0.27362 0.78796 0.0
O104 O 0.15172 0.34058 0.77012 0.0
C105 C 0.83459 0.2091 0.74666 0.0
C106 C 0.76301 0.16232 0.71319 0.0
C107 C 0.76632 0.20261 0.72501 0.0
C108 C 0.80192 0.22582 0.74165 0.0
C109 C 0.82938 0.16706 0.736 0.0
C110 C 0.79369 0.14366 0.71956 0.0
C111 C 0.87554 0.23733 0.76197 0.0
H112 H 0.3229 0.3838 0.81065 0.0
H113 H 0.2613 0.33849 0.78171 0.0
H114 H 0.1555 0.35648 0.81973 0.0
H115 H 0.21659 0.40116 0.84895 0.0
H116 H 0.74305 0.21763 0.7206 0.0
H117 H 0.80529 0.25808 0.74991 0.0
H118 H 0.85434 0.1536 0.73957 0.0
H119 H 0.79291 0.11325 0.71066 0.0
Tb120 Tb 0.89574 0.11275 0.11217 0.0
Eu121 Eu 0.83218 -0.00232 0.09984 0.0
C122 C 0.94017 0.04245 0.11582 0.0
C123 C 0.89013 0.08082 1.05945 0.0
C124 C 0.97116 0.24382 0.13409 0.0
C125 C 0.02881 0.27843 0.16494 0.0
C126 C -0.00119 0.23845 0.15124 0.0
C127 C 0.97385 0.28914 0.13065 0.0
C128 C 0.00359 0.32891 0.14431 0.0
C129 C 0.03125 0.32393 0.16162 0.0
C130 C 0.93953 0.20353 0.11917 0.0
O131 O 0.82425 0.09881 0.1009 0.0
O132 O 0.77825 0.0197 0.11129 0.0
O133 O 0.84317 -0.00244 0.13831 0.0
O134 O 0.87969 0.07967 0.14688 0.0
C135 C 0.78226 0.06211 0.10671 0.0
O136 O 0.77761 0.93906 1.07876 0.0
O137 O 0.80958 0.92173 0.10715 0.0
O138 O 0.90903 0.01393 0.1006 0.0
O139 O 0.93995 0.08152 0.12344 0.0
O140 O 0.91226 0.11333 1.07571 0.0
O141 O 0.85642 0.03559 1.06475 0.0
C142 C 0.86192 0.03334 0.15342 0.0
O143 O 0.95867 0.18071 0.10866 0.0
O144 O 0.89559 0.17395 0.12616 0.0
C145 C 0.79201 0.8729 1.0751 0.0
C146 C 0.81097 0.81226 1.04718 0.0
C147 C 0.76373 0.79638 1.05508 0.0
C148 C 0.75435 0.82654 1.06902 0.0
C149 C 0.83931 0.88856 1.06759 0.0
C150 C 0.84875 0.85843 1.0538 0.0
C151 C 0.78223 0.90508 0.08925 0.0
H152 H 0.04921 0.27355 0.17845 0.0
H153 H -0.00308 0.2035 0.15407 0.0
H154 H 0.9528 0.29377 0.11736 0.0
H155 H 0.00503 0.36359 0.14132 0.0
H156 H 0.734 0.76097 1.0502 0.0
H157 H 0.7177 0.81396 1.07481 0.0
H158 H 0.86878 0.92441 1.07213 0.0
H159 H 0.88529 0.87211 1.0476 0.0
Tb160 Tb 0.91004 0.92636 0.44401 0.0
Eu161 Eu 0.92139 0.83297 0.4333 0.0
C162 C 0.01174 0.93344 0.43858 0.0
C163 C 0.91214 0.90044 0.39202 0.0
C164 C 0.89291 0.02587 0.46977 0.0
C165 C 0.90506 0.04724 0.50936 0.0
C166 C 0.91467 0.02684 0.49053 0.0
C167 C 0.86387 0.04775 0.46764 0.0
C168 C 0.8538 0.0676 0.48643 0.0
C169 C 0.87293 0.06611 0.50768 0.0
C170 C 0.89271 -0.00467 0.45125 0.0
O171 O 0.83796 0.8632 0.43595 0.0
O172 O 0.85009 0.80357 0.45021 0.0
O173 O 0.94718 0.85224 0.47057 0.0
O174 O 0.92022 0.90623 0.4789 0.0
C175 C 0.82034 0.81899 0.44432 0.0
O176 O 0.89908 0.76485 0.41488 0.0
O177 O 0.95798 0.79079 0.43915 0.0
O178 O -0.00979 0.89816 0.42405 0.0
O179 O -0.01355 0.94832 0.45038 0.0
O180 O 0.92357 0.93482 0.40738 0.0
O181 O 0.90327 0.85627 0.39858 0.0
C182 C 0.94074 0.8801 0.48545 0.0
O183 O 0.93436 0.00197 0.44405 0.0
O184 O 0.86099 0.94921 0.45336 0.0
C185 C 0.96741 0.75785 0.4058 0.0
C186 C 0.0317 0.75656 0.37384 0.0
C187 C -0.00283 0.71284 0.384 0.0
C188 C 0.96538 0.71357 0.40014 0.0
C189 C 0.00133 0.80116 0.39535 0.0
C190 C 0.0334 0.80063 0.37968 0.0
C191 C 0.9353 0.76029 0.42273 0.0
H192 H 0.9213 0.04653 0.52538 0.0
H193 H 0.93698 0.0097 0.49241 0.0
H194 H 0.84639 0.04667 0.45171 0.0
H195 H 0.82845 0.08113 0.48448 0.0
H196 H -0.00515 0.67839 0.37945 0.0
H197 H 0.93919 0.6798 0.40806 0.0
H198 H 0.00286 0.83551 0.39923 0.0
H199 H 0.05866 0.83464 0.37161 0.0
Tb200 Tb 0.11499 0.95093 0.77274 0.0
Eu201 Eu 0.22155 0.96726 0.76317 0.0
C202 C 0.19598 0.04965 0.74928 0.0
C203 C 0.13993 0.94648 0.72119 0.0
C204 C -0.00085 0.89083 0.80077 0.0
C205 C 0.94756 0.86982 0.83357 0.0
C206 C 0.97069 0.90088 0.81543 0.0
C207 C 0.00256 0.84828 0.80392 0.0
C208 C 0.97947 0.81728 0.82197 0.0
C209 C 0.95275 0.82838 0.8373 0.0
C210 C 0.02965 0.9271 0.78392 0.0
O211 O 0.11001 0.8786 0.77126 0.0
O212 O 0.1848 0.90115 0.78472 0.0
O213 O 0.22987 0.00277 0.79823 0.0
O214 O 0.14939 0.96931 0.80684 0.0
C215 C 0.1406 0.86706 0.78066 0.0
O216 O 0.26412 0.93734 0.7479 0.0
O217 O 0.29982 0.00423 0.76759 0.0
O218 O 0.2269 0.0337 0.74823 0.0
O219 O 0.15403 0.02617 0.75992 0.0
O220 O 0.11379 0.9549 0.73584 0.0
O221 O 0.17882 0.94394 0.7284 0.0
C222 C 0.19556 -0.00552 0.81306 0.0
O223 O 0.0678 0.96547 0.79195 0.0
O224 O 0.04021 0.90951 0.76635 0.0
C225 C 0.34026 -0.00063 0.73555 0.0
C226 C 0.40362 0.04408 0.69935 0.0
C227 C 0.3974 -4e-05 0.70826 0.0
C228 C 0.36606 0.97787 0.7264 0.0
C229 C 0.34652 0.04339 0.7266 0.0
C230 C 0.37809 0.06565 0.70877 0.0
C231 C 0.30542 0.97514 0.75377 0.0
H232 H 0.92774 0.87966 0.84533 0.0
H233 H 0.96805 0.93375 0.81341 0.0
H234 H 0.02452 0.83975 0.79293 0.0
H235 H 0.98374 0.78541 0.82432 0.0
H236 H 0.41634 0.98246 0.70107 0.0
H237 H 0.36132 0.94368 0.73302 0.0
H238 H 0.32636 0.06026 0.7331 0.0
H239 H 0.38114 0.09891 0.7018 0.0
H240 H 0.001 0.08227 0.1528 0.0
H241 H 0.07858 0.08164 0.15726 0.0
H242 H 0.03839 0.97314 0.10873 0.0
H243 H 0.95912 0.96858 0.10269 0.0
H244 H 0.0766 0.02557 1.08115 0.0
H245 H 0.06276 0.17736 0.12897 0.0
H246 H 0.08488 0.22258 0.16501 0.0
H247 H 0.20137 0.19151 0.17429 0.0
H248 H 0.1809 0.14726 0.13806 0.0
H249 H 0.22561 0.16264 1.03755 0.0
H250 H 0.14304 0.13303 1.02447 0.0
H251 H 0.13445 0.24441 1.06046 0.0
H252 H 0.21783 0.27654 1.07473 0.0
H253 H 0.12313 0.19828 0.09314 0.0
H254 H 0.10991 0.02876 1.04227 0.0
H255 H 0.06449 0.9762 1.01003 0.0
H256 H 0.97083 0.03879 1.00906 0.0
H257 H 0.01585 0.09213 1.04116 0.0
C258 C 0.00891 0.05939 0.14197 0.0
C259 C 0.97738 0.03154 0.12433 0.0
C260 C 0.05331 0.06008 0.14411 0.0
C261 C 0.06836 0.04387 0.12534 0.0
C262 C 0.03047 -0.00166 0.11769 0.0
C263 C 0.98524 -0.0045 0.11423 0.0
C264 C 0.09219 0.08116 0.10649 0.0
C265 C 0.08717 0.06344 1.08415 0.0
C266 C 0.10711 0.13179 0.10909 0.0
C267 C 0.11972 0.15808 0.13101 0.0
C268 C 0.09322 0.1803 0.13868 0.0
C269 C 0.10555 0.2059 0.15909 0.0
C270 C 0.14451 0.20989 0.17191 0.0
C271 C 0.17136 0.18846 0.16429 0.0
C272 C 0.15938 0.16304 0.14382 0.0
C273 C 0.20684 0.18184 1.04268 0.0
C274 C 0.22613 0.21849 1.05931 0.0
C275 C 0.15908 0.16458 1.03543 0.0
C276 C 0.13031 0.17728 1.04874 0.0
C277 C 0.15499 0.22721 1.05491 0.0
C278 C 0.20265 0.24578 1.06321 0.0
C279 C 0.10546 0.14183 1.0679 0.0
C280 C 0.11173 0.16018 0.09013 0.0
C281 C 0.08878 0.09127 1.06537 0.0
C282 C 0.06646 0.06462 1.04408 0.0
C283 C 0.07991 0.03167 1.03503 0.0
C284 C 0.0541 0.00161 1.01685 0.0
C285 C 0.0144 0.00375 1.00772 0.0
C286 C 0.00127 0.03691 1.01634 0.0
C287 C 0.02734 0.06753 1.03433 0.0
H288 H -0.00584 0.98013 0.99377 0.0
H289 H 0.15394 0.22962 0.18775 0.0
H290 H 0.07406 0.01454 0.46276 0.0
H291 H 0.16131 0.05394 0.4625 0.0
H292 H 0.15449 0.93183 0.42587 0.0
H293 H 0.06645 0.89212 0.42638 0.0
H294 H 0.18431 -0.00511 0.39745 0.0
H295 H 0.24196 0.13807 0.47409 0.0
H296 H 0.27483 0.14236 0.51202 0.0
H297 H 0.31441 0.0345 0.49413 0.0
H298 H 0.28285 0.03013 0.45566 0.0
H299 H 0.17842 0.2312 0.38146 0.0
H300 H 0.20566 0.17063 0.37633 0.0
H301 H 0.14079 0.10529 0.43979 0.0
H302 H 0.11523 0.16563 0.44518 0.0
H303 H 0.25091 0.15285 0.43669 0.0
H304 H 0.20758 0.04848 0.35428 0.0
H305 H 0.14967 0.01847 0.32236 0.0
H306 H 0.03965 0.01925 0.36397 0.0
H307 H 0.0961 0.04697 0.39637 0.0
C308 C 0.09118 -0.00431 0.45505 0.0
C309 C 0.06381 0.9524 0.44296 0.0
C310 C 0.14165 0.01781 0.4552 0.0
C311 C 0.16537 -0.0022 0.44245 0.0
C312 C 0.1375 0.9494 0.43483 0.0
C313 C 0.08699 0.92732 0.43456 0.0
C314 C 0.20939 0.032 0.42938 0.0
C315 C 0.19959 0.02981 0.40609 0.0
C316 C 0.23883 0.07904 0.43862 0.0
C317 C 0.26052 0.08425 0.46156 0.0
C318 C 0.2586 0.11594 0.47784 0.0
C319 C 0.27662 0.11806 0.49963 0.0
C320 C 0.29643 0.08853 0.50552 0.0
C321 C 0.29883 0.05721 0.48955 0.0
C322 C 0.28093 0.05495 0.46772 0.0
C323 C 0.16862 0.20272 0.39386 0.0
C324 C 0.14744 0.20455 0.41436 0.0
C325 C 0.18474 0.16872 0.39103 0.0
C326 C 0.17797 0.13589 0.40842 0.0
C327 C 0.1482 0.13183 0.42664 0.0
C328 C 0.13253 0.16565 0.42947 0.0
C329 C 0.20467 0.10854 0.40961 0.0
C330 C 0.23566 0.1178 0.42836 0.0
C331 C 0.18996 0.06538 0.39706 0.0
C332 C 0.15674 0.0518 0.37745 0.0
C333 C 0.17122 0.04283 0.35651 0.0
C334 C 0.1385 0.02573 0.33841 0.0
C335 C 0.09132 0.01779 0.34105 0.0
C336 C 0.07645 0.02613 0.36188 0.0
C337 C 0.10881 0.04255 0.38012 0.0
H338 H 0.06624 0.00511 0.32698 0.0
H339 H 0.31015 0.09009 0.52243 0.0
H340 H 0.16828 0.11917 0.75234 0.0
H341 H 0.15346 0.15834 0.72018 0.0
H342 H 0.21763 0.09756 0.67579 0.0
H343 H 0.23622 0.06176 0.70808 0.0
H344 H 0.11354 0.0526 0.67392 0.0
H345 H 0.16336 0.25111 0.70029 0.0
H346 H 0.23703 0.33148 0.70429 0.0
H347 H 0.31326 0.28574 0.6596 0.0
H348 H 0.23972 0.20563 0.65494 0.0
H349 H 0.04115 0.12597 0.75055 0.0
H350 H 0.06469 0.09741 0.71741 0.0
H351 H -0.00463 0.156 0.67432 0.0
H352 H 0.96872 0.18137 0.70768 0.0
H353 H 0.10208 0.20387 0.67251 0.0
H354 H -0.00887 0.04729 0.64119 0.0
H355 H 0.91516 0.96803 0.6427 0.0
H356 H 0.96338 0.93246 0.70409 0.0
H357 H 0.0397 0.01133 0.70278 0.0
C358 C 0.18183 0.11671 0.73595 0.0
C359 C 0.20248 0.0869 0.73263 0.0
C360 C 0.17368 0.13926 0.71752 0.0
C361 C 0.18383 0.13008 0.69554 0.0
C362 C 0.20988 0.10532 0.69257 0.0
C363 C 0.22007 0.08463 0.71113 0.0
C364 C 0.15284 0.13126 0.67725 0.0
C365 C 0.11155 0.08598 0.6725 0.0
C366 C 0.15082 0.17453 0.67372 0.0
C367 C 0.19523 0.2229 0.67655 0.0
C368 C 0.1954 0.25863 0.69084 0.0
C369 C 0.23733 0.30404 0.6934 0.0
C370 C 0.27969 0.31391 0.68203 0.0
C371 C 0.28028 0.27825 0.66822 0.0
C372 C 0.23838 0.23286 0.66557 0.0
C373 C 0.02838 0.12995 0.73411 0.0
C374 C 0.00322 0.15576 0.73164 0.0
C375 C 0.04175 0.11368 0.71508 0.0
C376 C 0.0318 0.1247 0.69331 0.0
C377 C 0.00274 0.14646 0.69087 0.0
C378 C -0.01242 0.16089 0.71001 0.0
C379 C 0.06304 0.12547 0.67479 0.0
C380 C 0.10493 0.17095 0.67169 0.0
C381 C 0.0659 0.0828 0.67115 0.0
C382 C 0.02128 0.03463 0.67165 0.0
C383 C 0.98556 0.02232 0.6549 0.0
C384 C 0.94248 0.97753 0.65572 0.0
C385 C 0.93453 0.94512 0.67342 0.0
C386 C 0.96964 0.95747 0.69033 0.0
C387 C 0.01297 0.00202 0.68946 0.0
H388 H 0.9011 0.91053 0.67407 0.0
H389 H 0.31215 0.34903 0.68407 0.0
H390 H 0.42055 0.47619 1.03112 0.0
H391 H 0.4012 0.49684 0.99432 0.0
H392 H 0.52045 0.48714 0.96506 0.0
H393 H 0.5403 0.46657 1.00197 0.0
H394 H 0.48462 0.55637 0.94256 0.0
H395 H 0.43709 0.38444 0.96449 0.0
H396 H 0.40402 0.31779 0.99247 0.0
H397 H 0.27768 0.33375 0.99987 0.0
H398 H 0.30995 0.40029 0.9718 0.0
H399 H 0.33417 0.36495 0.84959 0.0
H400 H 0.38508 0.39532 0.88326 0.0
H401 H 0.34474 0.50704 0.89098 0.0
H402 H 0.29403 0.47723 0.85689 0.0
H403 H 0.34397 0.39359 0.92439 0.0
H404 H 0.44536 0.60424 0.92057 0.0
H405 H 0.48028 0.67019 0.89237 0.0
H406 H 0.50187 0.57615 0.84716 0.0
H407 H 0.46773 0.5099 0.8752 0.0
C408 C 0.4444 0.48116 1.01715 0.0
C409 C 0.48135 0.46887 1.01923 0.0
C410 C 0.43327 0.49302 0.99614 0.0
C411 C 0.45912 0.49288 0.97709 0.0
C412 C 0.5003 0.48753 0.97967 0.0
C413 C 0.51132 0.4754 1.00069 0.0
C414 C 0.43567 0.48419 0.95482 0.0
C415 C 0.45367 0.52106 0.9385 0.0
C416 C 0.3958 0.43782 0.94965 0.0
C417 C 0.37602 0.39741 0.96622 0.0
C418 C 0.4023 0.37373 0.97214 0.0
C419 C 0.38367 0.33595 0.98796 0.0
C420 C 0.33881 0.32161 0.99797 0.0
C421 C 0.31244 0.34494 0.99213 0.0
C422 C 0.33076 0.38251 0.97619 0.0
C423 C 0.33712 0.39681 0.85806 0.0
C424 C 0.30998 0.41862 0.85069 0.0
C425 C 0.36601 0.41394 0.87735 0.0
C426 C 0.36854 0.45332 0.88953 0.0
C427 C 0.34342 0.47679 0.88166 0.0
C428 C 0.31423 0.45949 0.86236 0.0
C429 C 0.39285 0.46571 0.91174 0.0
C430 C 0.3747 0.42923 0.92826 0.0
C431 C 0.43259 0.51234 0.91687 0.0
C432 C 0.45342 0.55194 0.8999 0.0
C433 C 0.45766 0.59768 0.90463 0.0
C434 C 0.47732 0.63512 0.88867 0.0
C435 C 0.49311 0.62731 0.86795 0.0
C436 C 0.48941 0.58208 0.86317 0.0
C437 C 0.4698 0.54453 0.87907 0.0
H438 H 0.50832 0.65633 0.85562 0.0
H439 H 0.32444 0.29237 1.01022 0.0
H440 H 0.09424 0.48724 0.34082 0.0
H441 H 0.08737 0.49268 0.30033 0.0
H442 H 0.24308 0.57539 0.29507 0.0
H443 H 0.25059 0.57198 0.33597 0.0
H444 H 0.15358 0.57327 0.25633 0.0
H445 H 0.24445 0.48672 0.28773 0.0
H446 H 0.25464 0.44291 0.32008 0.0
H447 H 0.10005 0.35035 0.32365 0.0
H448 H 0.08917 0.3936 0.29128 0.0
H449 H 0.12481 0.35745 0.17563 0.0
H450 H 0.17019 0.42122 0.20374 0.0
H451 H 0.04845 0.44638 0.21033 0.0
H452 H 0.00369 0.38373 0.18202 0.0
H453 H 0.14357 0.41208 0.24509 0.0
H454 H 0.07842 0.55409 0.23214 0.0
H455 H 0.06356 0.5975 0.20116 0.0
H456 H 0.16305 0.57839 0.15924 0.0
H457 H 0.17928 0.53579 0.19015 0.0
C458 C 0.12707 0.50931 0.33139 0.0
C459 C 0.1731 0.52775 0.34154 0.0
C460 C 0.12298 0.51247 0.30814 0.0
C461 C 0.16474 0.53369 0.29482 0.0
C462 C 0.21049 0.55887 0.30517 0.0
C463 C 0.21466 0.55621 0.32851 0.0
C464 C 0.16063 0.51515 0.27171 0.0
C465 C 0.15191 0.5384 0.25361 0.0
C466 C 0.1594 0.47014 0.2683 0.0
C467 C 0.16607 0.44324 0.2872 0.0
C468 C 0.21275 0.45686 0.29539 0.0
C469 C 0.21862 0.43215 0.3137 0.0
C470 C 0.178 0.39388 0.32392 0.0
C471 C 0.13147 0.37997 0.31572 0.0
C472 C 0.12544 0.40443 0.29737 0.0
C473 C 0.10821 0.37727 0.18285 0.0
C474 C 0.06071 0.36554 0.17682 0.0
C475 C 0.13422 0.41389 0.19873 0.0
C476 C 0.11299 0.43904 0.20896 0.0
C477 C 0.06622 0.42857 0.20226 0.0
C478 C 0.04045 0.3924 0.18621 0.0
C479 C 0.13577 0.46968 0.22917 0.0
C480 C 0.1472 0.44803 0.24714 0.0
C481 C 0.13956 0.51618 0.23221 0.0
C482 C 0.13007 0.54178 0.2135 0.0
C483 C 0.0975 0.55961 0.2164 0.0
C484 C 0.08874 0.58396 0.19883 0.0
C485 C 0.11232 0.59068 0.17824 0.0
C486 C 0.14474 0.57308 0.17519 0.0
C487 C 0.1537 0.54879 0.19273 0.0
H488 H 0.10548 0.60951 0.16464 0.0
H489 H 0.18249 0.37505 0.33821 0.0
H490 H 0.71187 0.06909 0.69619 0.0
H491 H 0.70659 0.05094 0.65601 0.0
H492 H 0.74681 0.19998 0.64067 0.0
H493 H 0.75467 0.21926 0.68061 0.0
H494 H 0.68295 0.09422 0.60514 0.0
H495 H 0.84113 0.2253 0.63983 0.0
H496 H 0.89213 0.25829 0.67399 0.0
H497 H 0.87923 0.11807 0.68708 0.0
H498 H 0.82724 0.08407 0.6532 0.0
H499 H 0.85091 0.13996 0.51296 0.0
H500 H 0.81231 0.15432 0.54546 0.0
H501 H 0.81758 0.03777 0.58135 0.0
H502 H 0.85355 0.02121 0.54873 0.0
H503 H 0.85502 0.13174 0.60473 0.0
H504 H 0.71647 0.01074 0.56223 0.0
H505 H 0.66383 0.97841 0.52861 0.0
H506 H 0.63882 0.10077 0.52944 0.0
H507 H 0.69177 0.13415 0.56292 0.0
C508 C 0.71744 0.0975 0.68429 0.0
C509 C 0.736 0.14609 0.69153 0.0
C510 C 0.71379 0.08688 0.66132 0.0
C511 C 0.72755 0.12454 0.64557 0.0
C512 C 0.73629 0.1706 0.65272 0.0
C513 C 0.74079 0.18152 0.67568 0.0
C514 C 0.74912 0.12074 0.62435 0.0
C515 C 0.72067 0.10306 0.60481 0.0
C516 C 0.79819 0.13193 0.62418 0.0
C517 C 0.83003 0.15215 0.64423 0.0
C518 C 0.84908 0.20154 0.65008 0.0
C519 C 0.87807 0.22038 0.66936 0.0
C520 C 0.88877 0.19026 0.68271 0.0
C521 C 0.87083 0.14131 0.67672 0.0
C522 C 0.84145 0.12219 0.65754 0.0
C523 C 0.84349 0.11707 0.52768 0.0
C524 C 0.85521 0.07927 0.52816 0.0
C525 C 0.82152 0.12541 0.54619 0.0
C526 C 0.81166 0.09659 0.56551 0.0
C527 C 0.82481 0.06013 0.56642 0.0
C528 C 0.84599 0.05122 0.54785 0.0
C529 C 0.78905 0.10524 0.58525 0.0
C530 C 0.81746 0.1236 0.60474 0.0
C531 C 0.74024 0.09522 0.58509 0.0
C532 C 0.70864 0.07529 0.56489 0.0
C533 C 0.7002 0.03105 0.55509 0.0
C534 C 0.67014 0.01244 0.53611 0.0
C535 C 0.64805 0.03758 0.52686 0.0
C536 C 0.65591 0.08133 0.53661 0.0
C537 C 0.68593 0.1001 0.5556 0.0
H538 H 0.62477 0.02311 0.51217 0.0
H539 H 0.91069 0.20487 0.69777 0.0
H540 H 0.75719 0.76817 1.00979 0.0
H541 H 0.78205 0.73882 0.97745 0.0
H542 H 0.91143 0.76328 1.01321 0.0
H543 H 0.88678 0.79359 1.04573 0.0
H544 H 0.93497 0.81205 0.97636 0.0
H545 H 0.828 0.64698 0.99214 0.0
H546 H 0.75251 0.57405 1.00381 0.0
H547 H 0.6771 0.59024 0.94693 0.0
H548 H 0.7519 0.66371 0.93506 0.0
H549 H 0.00043 0.79642 0.865 0.0
H550 H 0.97662 0.76252 0.90281 0.0
H551 H 0.84152 0.76365 0.89524 0.0
H552 H 0.86473 0.79691 0.85724 0.0
H553 H 0.83375 0.68295 0.92097 0.0
H554 H 0.93432 0.86222 0.91583 0.0
H555 H 0.0086 0.93754 0.90491 0.0
H556 H 0.09543 0.89242 0.94308 0.0
H557 H 0.02153 0.81662 0.9541 0.0
C558 C 0.78997 0.76551 1.01113 0.0
C559 C 0.82035 0.78368 1.03015 0.0
C560 C 0.80412 0.74844 0.99262 0.0
C561 C 0.84859 0.7486 0.99289 0.0
C562 C 0.877 0.76284 1.01263 0.0
C563 C 0.86301 0.78032 1.03113 0.0
C564 C 0.86901 0.74335 0.97135 0.0
C565 C 0.91358 0.78273 0.96457 0.0
C566 C 0.84099 0.7055 0.95581 0.0
C567 C 0.79573 0.66101 0.96271 0.0
C568 C 0.79529 0.63518 0.98216 0.0
C569 C 0.75259 0.5937 0.98881 0.0
C570 C 0.71004 0.57752 0.97612 0.0
C571 C 0.71012 0.60277 0.95672 0.0
C572 C 0.75273 0.64428 0.94999 0.0
C573 C 0.96496 0.78797 0.87109 0.0
C574 C 0.93462 0.79991 0.85832 0.0
C575 C 0.95151 0.76868 0.8927 0.0
C576 C 0.90759 0.76107 0.9018 0.0
C577 C 0.87555 0.76923 0.88843 0.0
C578 C 0.88905 0.78872 0.86686 0.0
C579 C 0.89815 0.7524 0.92613 0.0
C580 C 0.85585 0.71076 0.93325 0.0
C581 C 0.92822 0.78802 0.94211 0.0
C582 C 0.97256 0.83355 0.93553 0.0
C583 C 0.96929 0.86825 0.92176 0.0
C584 C 0.01129 0.91104 0.91559 0.0
C585 C 0.05673 0.91968 0.92323 0.0
C586 C 0.06022 0.88562 0.93714 0.0
C587 C 0.0183 0.84277 0.94336 0.0
H588 H 0.08921 0.9528 0.91842 0.0
H589 H 0.677 0.54543 0.98131 0.0
H590 H 0.00429 0.70143 0.33563 0.0
H591 H 0.04974 0.7236 0.30039 0.0
H592 H 0.17452 0.83728 0.33508 0.0
H593 H 0.12929 0.81505 0.37034 0.0
H594 H 0.13108 0.87009 0.30393 0.0
H595 H 0.1899 0.75618 0.30677 0.0
H596 H 0.18094 0.67443 0.31245 0.0
H597 H 0.08178 0.6189 0.2564 0.0
H598 H 0.08992 0.70019 0.25043 0.0
H599 H 0.24824 0.98434 0.20517 0.0
H600 H 0.2359 0.9392 0.24014 0.0
H601 H 0.10911 0.81599 0.21153 0.0
H602 H 0.12213 0.86044 0.17601 0.0
H603 H 0.1625 0.78777 0.24013 0.0
H604 H 0.09055 0.89147 0.24135 0.0
H605 H 0.08767 0.96802 0.23706 0.0
H606 H 0.2016 0.03791 0.28631 0.0
H607 H 0.20509 0.96161 0.29092 0.0
C608 C 0.0422 0.7294 0.33594 0.0
C609 C 0.06317 0.75719 0.35549 0.0
C610 C 0.06814 0.74207 0.31581 0.0
C611 C 0.11523 0.78242 0.31517 0.0
C612 C 0.13816 0.80612 0.33529 0.0
C613 C 0.11232 0.79347 0.35537 0.0
C614 C 0.13529 0.80664 0.29346 0.0
C615 C 0.13939 0.85269 0.29019 0.0
C616 C 0.14375 0.78276 0.27533 0.0
C617 C 0.14027 0.73426 0.27825 0.0
C618 C 0.16609 0.72651 0.29567 0.0
C619 C 0.16123 0.68026 0.29893 0.0
C620 C 0.13073 0.64147 0.28483 0.0
C621 C 0.10549 0.64898 0.26728 0.0
C622 C 0.11031 0.69519 0.26391 0.0
C623 C 0.2185 0.94715 0.20602 0.0
C624 C 0.18589 0.92609 0.18786 0.0
C625 C 0.2114 0.9215 0.22607 0.0
C626 C 0.17136 0.87454 0.22843 0.0
C627 C 0.14025 0.85224 0.20998 0.0
C628 C 0.14739 0.87788 0.18984 0.0
C629 C 0.15892 0.85142 0.25086 0.0
C630 C 0.15555 0.80557 0.25413 0.0
C631 C 0.15019 0.87497 0.26907 0.0
C632 C 0.14857 0.92107 0.26623 0.0
C633 C 0.11532 0.9233 0.2511 0.0
C634 C 0.11342 0.96656 0.24869 0.0
C635 C 0.14455 0.00785 0.26135 0.0
C636 C 0.17753 0.00589 0.27651 0.0
C637 C 0.17939 0.96261 0.27908 0.0
H638 H 0.14306 0.04132 0.25944 0.0
H639 H 0.12655 0.60559 0.28756 0.0
H640 H 0.47162 0.13913 0.69265 0.0
H641 H 0.49833 0.17881 0.65604 0.0
H642 H 0.4259 0.03814 0.62314 0.0
H643 H 0.3989 -0.00179 0.65974 0.0
H644 H 0.51005 0.11171 0.5993 0.0
H645 H 0.35944 0.08343 0.63209 0.0
H646 H 0.30648 0.08636 0.66164 0.0
H647 H 0.39011 0.24303 0.66271 0.0
H648 H 0.44414 0.24095 0.63342 0.0
H649 H 0.39772 0.14862 0.50227 0.0
H650 H 0.4283 0.12549 0.53509 0.0
H651 H 0.48096 0.26935 0.56345 0.0
H652 H 0.44921 0.29235 0.53085 0.0
H653 H 0.41793 0.20072 0.59019 0.0
H654 H 0.55814 0.22441 0.54958 0.0
H655 H 0.60206 0.21451 0.51769 0.0
H656 H 0.52993 0.05959 0.52869 0.0
H657 H 0.48486 0.06838 0.5604 0.0
C658 C 0.46298 0.11662 0.67766 0.0
C659 C 0.43243 0.06581 0.67886 0.0
C660 C 0.47841 0.13926 0.65682 0.0
C661 C 0.46321 0.11134 0.63698 0.0
C662 C 0.43791 0.06018 0.63832 0.0
C663 C 0.42249 0.03744 0.65922 0.0
C664 C 0.46437 0.13525 0.61544 0.0
C665 C 0.49008 0.1313 0.59716 0.0
C666 C 0.43816 0.16066 0.61287 0.0
C667 C 0.40633 0.162 0.63083 0.0
C668 C 0.36696 0.11847 0.63885 0.0
C669 C 0.33665 0.11998 0.6555 0.0
C670 C 0.34505 0.16484 0.66411 0.0
C671 C 0.38376 0.20829 0.65608 0.0
C672 C 0.41426 0.20697 0.63947 0.0
C673 C 0.41671 0.17573 0.51523 0.0
C674 C 0.41948 0.22174 0.51435 0.0
C675 C 0.43467 0.16257 0.53392 0.0
C676 C 0.45672 0.19563 0.55178 0.0
C677 C 0.46371 0.24317 0.54991 0.0
C678 C 0.44523 0.25612 0.53137 0.0
C679 C 0.46434 0.17818 0.57379 0.0
C680 C 0.43935 0.18258 0.59227 0.0
C681 C 0.49033 0.15242 0.57623 0.0
C682 C 0.5178 0.14706 0.55729 0.0
C683 C 0.55132 0.18817 0.5451 0.0
C684 C 0.57645 0.18275 0.52705 0.0
C685 C 0.56861 0.13643 0.5211 0.0
C686 C 0.53584 0.09543 0.53327 0.0
C687 C 0.51054 0.10063 0.55131 0.0
H688 H 0.58804 0.13232 0.50709 0.0
H689 H 0.32146 0.16595 0.67694 0.0
H690 H 0.37106 0.067 0.10789 0.0
H691 H 0.43579 0.04537 0.10795 0.0
H692 H 0.54256 0.19671 0.11833 0.0
H693 H 0.4786 0.21858 0.11842 0.0
H694 H 0.56526 0.15402 1.08295 0.0
H695 H 0.51381 0.11756 0.16054 0.0
H696 H 0.4538 0.07627 0.19055 0.0
H697 H 0.42401 0.9365 0.16485 0.0
H698 H 0.48339 0.97699 0.13447 0.0
H699 H 0.7799 0.14779 0.10657 0.0
H700 H 0.70905 0.15909 0.10789 0.0
H701 H 0.61502 0.00277 0.10899 0.0
H702 H 0.68616 -0.00873 0.10852 0.0
H703 H 0.58106 0.04172 0.13673 0.0
H704 H 0.63172 0.07416 1.06031 0.0
H705 H 0.68814 0.1119 1.02867 0.0
H706 H 0.71472 0.25381 1.04945 0.0
H707 H 0.65896 0.217 1.08142 0.0
C708 C 0.40827 0.09559 0.11046 0.0
C709 C 0.4195 0.14456 0.11313 0.0
C710 C 0.44523 0.08315 0.1105 0.0
C711 C 0.49409 0.11946 0.1131 0.0
C712 C 0.50519 0.16811 0.11621 0.0
C713 C 0.4684 0.18048 0.11638 0.0
C714 C 0.53411 0.10755 0.11175 0.0
C715 C 0.56904 0.12987 0.09486 0.0
C716 C 0.53803 0.0746 0.12673 0.0
C717 C 0.50265 0.05029 0.14509 0.0
C718 C 0.49417 0.07802 0.16117 0.0
C719 C 0.46032 0.05476 0.17827 0.0
C720 C 0.43499 0.00379 0.17956 0.0
C721 C 0.44359 0.97598 0.1638 0.0
C722 C 0.47736 -0.00094 0.14665 0.0
C723 C 0.74417 0.11574 0.10702 0.0
C724 C 0.73879 0.06859 0.10727 0.0
C725 C 0.70353 0.12225 0.10767 0.0
C726 C 0.65635 0.0818 0.10808 0.0
C727 C 0.65089 0.03464 0.1086 0.0
C728 C 0.69165 0.02809 0.10826 0.0
C729 C 0.61301 0.08898 0.10813 0.0
C730 C 0.57732 0.06569 0.12471 0.0
C731 C 0.60789 0.12051 0.09261 0.0
C732 C 0.64147 0.14283 1.07339 0.0
C733 C 0.64987 0.11346 1.05824 0.0
C734 C 0.68169 0.13468 1.04022 0.0
C735 C 0.70508 0.18523 1.03708 0.0
C736 C 0.69661 0.21466 1.05192 0.0
C737 C 0.66487 0.19363 1.06997 0.0
H738 H 0.7297 0.20159 1.02312 0.0
H739 H 0.40879 0.98585 0.19281 0.0
H740 H 0.4129 0.4281 0.45319 0.0
H741 H 0.4926 0.50122 0.45454 0.0
H742 H 0.43127 0.58692 0.42806 0.0
H743 H 0.35125 0.51337 0.4261 0.0
H744 H 0.51565 0.61365 0.40838 0.0
H745 H 0.46306 0.5919 0.48489 0.0
H746 H 0.43016 0.54668 0.52027 0.0
H747 H 0.55079 0.52047 0.52561 0.0
H748 H 0.58409 0.56497 0.4901 0.0
H749 H 0.74373 0.83277 0.43112 0.0
H750 H 0.65677 0.77177 0.4309 0.0
H751 H 0.69031 0.66409 0.45761 0.0
H752 H 0.77599 0.72438 0.45841 0.0
H753 H 0.61507 0.6564 0.47838 0.0
H754 H 0.66279 0.67094 0.39993 0.0
H755 H 0.69528 0.71535 0.36432 0.0
H756 H 0.58374 0.75546 0.36283 0.0
H757 H 0.55097 0.71177 0.39859 0.0
C758 C 0.41609 0.46252 0.44771 0.0
C759 C 0.37525 0.46468 0.43968 0.0
C760 C 0.46188 0.50447 0.44859 0.0
C761 C 0.46814 0.55008 0.44179 0.0
C762 C 0.42757 0.55237 0.43351 0.0
C763 C 0.38164 0.51021 0.43247 0.0
C764 C 0.51713 0.59493 0.44322 0.0
C765 C 0.53706 0.62347 0.42384 0.0
C766 C 0.54554 0.60783 0.46323 0.0
C767 C 0.5259 0.58151 0.48474 0.0
C768 C 0.48243 0.57626 0.49354 0.0
C769 C 0.46372 0.55077 0.51363 0.0
C770 C 0.48833 0.53064 0.52515 0.0
C771 C 0.53177 0.53606 0.51666 0.0
C772 C 0.55062 0.56148 0.49657 0.0
C773 C 0.73244 0.79611 0.43706 0.0
C774 C 0.76712 0.78364 0.44474 0.0
C775 C 0.68269 0.76115 0.4368 0.0
C776 C 0.66668 0.71288 0.44402 0.0
C777 C 0.70134 0.70088 0.45198 0.0
C778 C 0.75068 0.7356 0.45236 0.0
C779 C 0.61423 0.67425 0.44338 0.0
C780 C 0.59351 0.64692 0.46298 0.0
C781 C 0.58521 0.66256 0.42358 0.0
C782 C 0.6048 0.6886 0.40206 0.0
C783 C 0.64543 0.68954 0.39209 0.0
C784 C 0.66385 0.71453 0.37186 0.0
C785 C 0.64168 0.73835 0.36136 0.0
C786 C 0.60093 0.7371 0.37101 0.0
C787 C 0.58241 0.71221 0.39125 0.0
H788 H 0.65601 0.75769 0.34569 0.0
H789 H 0.47376 0.51089 0.5407 0.0
H790 H 0.98337 0.40521 0.77473 0.0
H791 H 0.00048 0.48909 0.77844 0.0
H792 H 0.14765 0.53342 0.79859 0.0
H793 H 0.13084 0.44859 0.79457 0.0
H794 H 0.02667 0.55376 0.81146 0.0
H795 H 0.22219 0.64832 0.77681 0.0
H796 H 0.27319 0.63028 0.75165 0.0
H797 H 0.14595 0.52367 0.71636 0.0
H798 H 0.09431 0.54156 0.74109 0.0
H799 H 0.19993 0.83384 0.79676 0.0
H800 H 0.18335 0.74984 0.79983 0.0
H801 H 0.03739 0.69809 0.77544 0.0
H802 H 0.05376 0.78279 0.77224 0.0
H803 H 0.15968 0.68248 0.76646 0.0
H804 H 0.96394 0.5851 0.8005 0.0
H805 H 0.91093 0.60473 0.82337 0.0
H806 H 0.03566 0.7179 0.85757 0.0
H807 H 0.08934 0.69838 0.83522 0.0
C808 C 0.01949 0.43255 0.78005 0.0
C809 C 0.05593 0.41999 0.78411 0.0
C810 C 0.02907 0.48069 0.78231 0.0
C811 C 0.07543 0.51791 0.78858 0.0
C812 C 0.11167 0.50546 0.79345 0.0
C813 C 0.102 0.45691 0.79125 0.0
C814 C 0.08572 0.56968 0.7889 0.0
C815 C 0.05562 0.58181 0.80152 0.0
C816 C 0.12366 0.60662 0.77609 0.0
C817 C 0.1544 0.59584 0.76101 0.0
C818 C 0.20514 0.6211 0.76365 0.0
C819 C 0.23415 0.61091 0.74946 0.0
C820 C 0.21281 0.57571 0.73248 0.0
C821 C 0.16242 0.55076 0.72959 0.0
C822 C 0.13327 0.56088 0.7437 0.0
C823 C 0.16405 0.80476 0.79218 0.0
C824 C 0.12816 0.81529 0.78418 0.0
C825 C 0.15476 0.75661 0.79387 0.0
C826 C 0.10921 0.71753 0.78787 0.0
C827 C 0.07278 0.72763 0.78033 0.0
C828 C 0.08216 0.77608 0.7785 0.0
C829 C 0.10071 0.66651 0.78902 0.0
C830 C 0.13104 0.65453 0.77658 0.0
C831 C 0.06274 0.62971 0.80184 0.0
C832 C 0.03068 0.64057 0.81599 0.0
C833 C 0.98004 0.61395 0.813 0.0
C834 C 0.94988 0.6251 0.82587 0.0
C835 C 0.96994 0.66267 0.84185 0.0
C836 C 0.02018 0.68893 0.84513 0.0
C837 C 0.05049 0.67784 0.83236 0.0
H838 H 0.94656 0.67139 0.85173 0.0
H839 H 0.23533 0.56784 0.72153 0.0
H840 H 0.3208 0.30154 0.16376 0.0
H841 H 0.31131 0.32097 0.20272 0.0
H842 H 0.27602 0.17578 0.22304 0.0
H843 H 0.28371 0.15579 0.18381 0.0
H844 H 0.22448 0.19503 0.24825 0.0
H845 H 0.39457 0.29739 0.23464 0.0
H846 H 0.4671 0.35976 0.21492 0.0
H847 H 0.42135 0.4659 0.22599 0.0
H848 H 0.34824 0.40398 0.24556 0.0
H849 H 0.2696 0.25299 0.36857 0.0
H850 H 0.27536 0.2342 0.32891 0.0
H851 H 0.26964 0.36256 0.30857 0.0
H852 H 0.26162 0.38021 0.34831 0.0
H853 H 0.34079 0.35313 0.28349 0.0
H854 H 0.17565 0.25094 0.30197 0.0
H855 H 0.10279 0.1874 0.3208 0.0
H856 H 0.13755 0.07806 0.29927 0.0
H857 H 0.21243 0.14115 0.2817 0.0
C858 C 0.31126 0.2735 0.17642 0.0
C859 C 0.30362 0.22683 0.16987 0.0
C860 C 0.30611 0.28495 0.19921 0.0
C861 C 0.29391 0.25079 0.21708 0.0
C862 C 0.28567 0.20388 0.21042 0.0
C863 C 0.29039 0.19228 0.18757 0.0
C864 C 0.28924 0.26333 0.24221 0.0
C865 C 0.25079 0.22938 0.25588 0.0
C866 C 0.32185 0.30866 0.25303 0.0
C867 C 0.36573 0.34594 0.24135 0.0
C868 C 0.39986 0.33396 0.23274 0.0
C869 C 0.44107 0.36923 0.22161 0.0
C870 C 0.44876 0.41672 0.21915 0.0
C871 C 0.4153 0.42908 0.22788 0.0
C872 C 0.374 0.39393 0.239 0.0
C873 C 0.26889 0.27719 0.35579 0.0
C874 C 0.26396 0.31793 0.36243 0.0
C875 C 0.27241 0.2663 0.33272 0.0
C876 C 0.27275 0.29632 0.3148 0.0
C877 C 0.26944 0.33798 0.32141 0.0
C878 C 0.26462 0.34816 0.3445 0.0
C879 C 0.27662 0.28438 0.2896 0.0
C880 C 0.31477 0.31855 0.27592 0.0
C881 C 0.24396 0.23897 0.27889 0.0
C882 C 0.20046 0.20121 0.29083 0.0
C883 C 0.16869 0.21359 0.30181 0.0
C884 C 0.12694 0.17755 0.31232 0.0
C885 C 0.11585 0.12875 0.31153 0.0
C886 C 0.14663 0.11593 0.30031 0.0
C887 C 0.18893 0.1519 0.29018 0.0
H888 H 0.08314 0.10083 0.31939 0.0
H889 H 0.48069 0.44398 0.21052 0.0
H890 H 0.12878 0.32831 0.49832 0.0
H891 H 0.09989 0.31989 0.53722 0.0
H892 H 0.2263 0.31506 0.56077 0.0
H893 H 0.25512 0.32306 0.52174 0.0
H894 H 0.20974 0.36762 0.59061 0.0
H895 H 0.00227 0.2612 0.5751 0.0
H896 H 0.94303 0.20149 0.54818 0.0
H897 H 0.04373 0.15229 0.53148 0.0
H898 H 0.10323 0.21102 0.55859 0.0
H899 H 0.13262 0.30726 0.70488 0.0
H900 H 0.15802 0.31086 0.6661 0.0
H901 H 0.01813 0.28477 0.64287 0.0
H902 H -0.00871 0.27755 0.68229 0.0
H903 H 0.04149 0.24791 0.61229 0.0
H904 H 0.24711 0.35267 0.62948 0.0
H905 H 0.30626 0.41341 0.65609 0.0
H906 H 0.20872 0.46873 0.66874 0.0
H907 H 0.14926 0.40877 0.64195 0.0
C908 C 0.15078 0.32542 0.51163 0.0
C909 C 0.19491 0.32656 0.50605 0.0
C910 C 0.13375 0.32018 0.5343 0.0
C911 C 0.15988 0.31606 0.55295 0.0
C912 C 0.20438 0.31791 0.54741 0.0
C913 C 0.22111 0.32251 0.52467 0.0
C914 C 0.14158 0.31068 0.57782 0.0
C915 C 0.17296 0.34087 0.59515 0.0
C916 C 0.09317 0.27692 0.58479 0.0
C917 C 0.05751 0.24111 0.56862 0.0
C918 C 0.01174 0.23756 0.56572 0.0
C919 C 0.9781 0.20386 0.55045 0.0
C920 C -0.0102 0.17342 0.53802 0.0
C921 C 0.03489 0.17616 0.54102 0.0
C922 C 0.0686 0.20968 0.55632 0.0
C923 C 0.10673 0.30216 0.69171 0.0
C924 C 0.05938 0.29218 0.69764 0.0
C925 C 0.12195 0.30515 0.66893 0.0
C926 C 0.09161 0.30015 0.65025 0.0
C927 C 0.04376 0.28949 0.65612 0.0
C928 C 0.02808 0.28549 0.6791 0.0
C929 C 0.10951 0.30536 0.6252 0.0
C930 C 0.07816 0.27497 0.6078 0.0
C931 C 0.15789 0.33933 0.61807 0.0
C932 C 0.19368 0.37607 0.63383 0.0
C933 C 0.23845 0.37803 0.63782 0.0
C934 C 0.27196 0.41223 0.65297 0.0
C935 C 0.26118 0.44478 0.66415 0.0
C936 C 0.21696 0.4434 0.66011 0.0
C937 C 0.18335 0.40935 0.64494 0.0
H938 H 0.28712 0.47114 0.67591 0.0
H939 H 0.96396 0.14776 0.52606 0.0
H940 H 0.91805 0.21182 0.8416 0.0
H941 H 0.89993 0.18471 0.88085 0.0
H942 H 0.04686 0.21403 0.89035 0.0
H943 H 0.06455 0.23984 0.85092 0.0
H944 H 0.00131 0.14248 0.91465 0.0
H945 H -0.00932 0.28648 0.9139 0.0
H946 H 0.96467 0.34525 0.90199 0.0
H947 H 0.81711 0.24166 0.91833 0.0
H948 H 0.84218 0.18197 0.93008 0.0
H949 H 0.87713 0.0249 1.02004 0.0
H950 H 0.89926 0.05218 0.98072 0.0
H951 H 0.95466 0.20125 1.0017 0.0
H952 H 0.93456 0.17444 1.04095 0.0
H953 H 0.90254 0.1873 0.96312 0.0
H954 H 0.9718 0.05469 0.93292 0.0
H955 H 0.02979 0.02713 0.94398 0.0
H956 H 0.09406 0.1425 0.99301 0.0
H957 H 0.03648 0.17053 0.98235 0.0
C958 C 0.94685 0.21277 0.85192 0.0
C959 C -0.00683 0.22872 0.84229 0.0
C960 C 0.93641 0.19732 0.87487 0.0
C961 C 0.97176 0.19731 0.88979 0.0
C962 C 0.01797 0.21292 0.88005 0.0
C963 C 0.02836 0.22819 0.85708 0.0
C964 C 0.96081 0.18083 0.915 0.0
C965 C 0.97891 0.1519 0.92491 0.0
C966 C 0.93364 0.19412 0.9298 0.0
C967 C 0.91821 0.22954 0.92259 0.0
C968 C 0.95262 0.27607 0.91477 0.0
C969 C 0.93807 0.30958 0.90808 0.0
C970 C 0.88925 0.29714 0.90933 0.0
C971 C 0.8549 0.2512 0.91732 0.0
C972 C 0.86926 0.21751 0.924 0.0
C973 C 0.89422 0.06361 1.01647 0.0
C974 C 0.90362 0.09692 1.03447 0.0
C975 C 0.90727 0.07949 0.99362 0.0
C976 C 0.92917 0.12946 0.98732 0.0
C977 C 0.93803 0.16257 1.00529 0.0
C978 C 0.92636 0.1469 1.02814 0.0
C979 C 0.94113 0.147 0.96236 0.0
C980 C 0.92358 0.17657 0.9526 0.0
C981 C 0.97067 0.13615 0.94799 0.0
C982 C -0.00067 0.11426 0.95703 0.0
C983 C -0.00224 0.07361 0.94634 0.0
C984 C 0.03086 0.05818 0.9524 0.0
C985 C 0.06601 0.08345 0.96898 0.0
C986 C 0.06712 0.12321 0.98004 0.0
C987 C 0.03387 0.13852 0.97418 0.0
H988 H 0.09204 0.07192 0.97345 0.0
H989 H 0.87805 0.32314 0.90417 0.0
H990 H 0.84122 0.94379 0.17201 0.0
H991 H 0.85098 0.92282 0.21074 0.0
H992 H 0.90451 0.07219 0.23098 0.0
H993 H 0.89476 0.09335 0.19209 0.0
H994 H 0.92267 0.94407 0.23953 0.0
H995 H 0.88629 0.08091 0.28791 0.0
H996 H 0.84014 0.12488 0.28364 0.0
H997 H 0.73803 0.01155 0.2399 0.0
H998 H 0.78321 0.96664 0.24413 0.0
H999 H 0.88913 0.84237 0.3526 0.0
H1000 H 0.88247 0.864 0.31335 0.0
H1001 H 0.92193 0.00989 0.33456 0.0
H1002 H 0.9279 0.98826 0.37353 0.0
H1003 H 0.8581 -0.0091 0.30498 0.0
H1004 H 0.89998 0.85569 0.25697 0.0
H1005 H 0.95235 0.81815 0.26006 0.0
H1006 H 0.05169 0.93604 0.30253 0.0
H1007 H -0.00019 0.97439 0.29968 0.0
C1008 C 0.85474 0.97249 0.1846 0.0
C1009 C 0.86645 0.02057 0.17824 0.0
C1010 C 0.8607 0.96028 0.2071 0.0
C1011 C 0.87815 -0.00479 0.22474 0.0
C1012 C 0.8901 0.04344 0.21842 0.0
C1013 C 0.88454 0.0558 0.1958 0.0
C1014 C 0.88377 0.98106 0.2493 0.0
C1015 C 0.90776 0.9539 0.2537 0.0
C1016 C 0.8662 -0.00564 0.26863 0.0
C1017 C 0.83845 0.02073 0.26616 0.0
C1018 C 0.8539 0.06532 0.27744 0.0
C1019 C 0.82793 0.09041 0.27502 0.0
C1020 C 0.78628 0.0711 0.26145 0.0
C1021 C 0.7704 0.02656 0.25034 0.0
C1022 C 0.79621 0.0013 0.25272 0.0
C1023 C 0.89666 0.8792 0.34902 0.0
C1024 C 0.90912 0.9131 0.36699 0.0
C1025 C 0.89314 0.89195 0.32618 0.0
C1026 C 0.90197 0.93935 0.31999 0.0
C1027 C 0.91448 0.97303 0.33801 0.0
C1028 C 0.91811 0.96039 0.36072 0.0
C1029 C 0.89699 0.95371 0.29533 0.0
C1030 C 0.87305 0.98093 0.29088 0.0
C1031 C 0.91524 0.94104 0.27599 0.0
C1032 C 0.94563 0.91744 0.27842 0.0
C1033 C 0.93286 0.87347 0.26707 0.0
C1034 C 0.96244 0.85208 0.26878 0.0
C1035 C 0.00508 0.87454 0.28166 0.0
C1036 C 0.01833 0.9185 0.2928 0.0
C1037 C -0.01121 0.93997 0.29121 0.0
H1038 H 0.02802 0.85802 0.2829 0.0
H1039 H 0.76625 0.0906 0.25958 0.0
H1040 H 0.98414 0.83142 0.50658 0.0
H1041 H 0.01877 0.84203 0.54463 0.0
H1042 H 0.97841 0.95152 0.55869 0.0
H1043 H 0.94413 0.94126 0.52054 0.0
H1044 H 0.06168 0.98293 0.57756 0.0
H1045 H 0.92017 0.82698 0.58256 0.0
H1046 H 0.86265 0.7416 0.5721 0.0
H1047 H 0.97386 0.70292 0.58264 0.0
H1048 H 0.03226 0.78827 0.59288 0.0
H1049 H 0.18369 0.93553 0.6815 0.0
H1050 H 0.15437 0.92546 0.64202 0.0
H1051 H 0.02922 0.93318 0.66359 0.0
H1052 H 0.05732 0.94213 0.70283 0.0
H1053 H 0.03075 0.8438 0.62705 0.0
H1054 H 0.17249 0.00604 0.62267 0.0
H1055 H 0.22697 0.094 0.62926 0.0
H1056 H 0.10903 0.12191 0.6168 0.0
H1057 H 0.0534 0.03386 0.61098 0.0
C1058 C 0.98203 0.85755 0.51772 0.0
C1059 C 0.96027 0.88493 0.50986 0.0
C1060 C 0.002 0.86358 0.53989 0.0
C1061 C 0.00145 0.89738 0.55556 0.0
C1062 C 0.97999 0.925 0.54762 0.0
C1063 C 0.9598 0.9188 0.52548 0.0
C1064 C 0.02368 0.90462 0.57969 0.0
C1065 C 0.05426 0.95214 0.58829 0.0
C1066 C 0.01558 0.86537 0.59443 0.0
C1067 C 0.98072 0.81411 0.58824 0.0
C1068 C 0.93247 0.80034 0.58247 0.0
C1069 C 0.89969 0.75195 0.57661 0.0
C1070 C 0.91463 0.71689 0.57664 0.0
C1071 C 0.96237 0.73014 0.58258 0.0
C1072 C -0.00468 0.77852 0.58843 0.0
C1073 C 0.14992 0.93522 0.67801 0.0
C1074 C 0.12358 0.94019 0.6961 0.0
C1075 C 0.13303 0.9296 0.65512 0.0
C1076 C 0.08939 0.92943 0.64913 0.0
C1077 C 0.06323 0.93413 0.66715 0.0
C1078 C 0.07971 0.93928 0.68989 0.0
C1079 C 0.06948 0.92212 0.62465 0.0
C1080 C 0.03852 0.87451 0.61619 0.0
C1081 C 0.07676 0.96137 0.61014 0.0
C1082 C 0.10855 0.01311 0.61675 0.0
C1083 C 0.15776 0.03063 0.62204 0.0
C1084 C 0.18899 0.08063 0.62542 0.0
C1085 C 0.17152 0.1135 0.62325 0.0
C1086 C 0.12257 0.09641 0.61828 0.0
C1087 C 0.09112 0.04644 0.61514 0.0
H1088 H 0.19587 0.15222 0.62537 0.0
H1089 H 0.8892 0.67943 0.5721 0.0
H1090 H 0.28189 0.02456 0.8375 0.0
H1091 H 0.30167 0.05333 0.87676 0.0
H1092 H 0.15984 0.03818 0.8843 0.0
H1093 H 0.13938 0.00796 0.84531 0.0
H1094 H 0.2314 0.12634 0.90513 0.0
H1095 H 0.18125 0.95726 0.90976 0.0
H1096 H 0.17977 0.88032 0.90002 0.0
H1097 H 0.33004 0.94347 0.91888 0.0
H1098 H 0.33254 0.02107 0.9285 0.0
H1099 H 0.35111 0.22066 1.01377 0.0
H1100 H 0.33293 0.19487 0.97397 0.0
H1101 H 0.23655 0.04715 0.995 0.0
H1102 H 0.25425 0.07266 1.03441 0.0
H1103 H 0.28108 0.0397 0.95984 0.0
H1104 H 0.2974 0.21657 0.92192 0.0
H1105 H 0.28557 0.28546 0.93341 0.0
H1106 H 0.18422 0.19566 0.98387 0.0
H1107 H 0.19504 0.12618 0.97257 0.0
C1108 C 0.25466 0.02723 0.84738 0.0
C1109 C 0.2087 0.0134 0.83758 0.0
C1110 C 0.26612 0.04386 0.87015 0.0
C1111 C 0.23269 0.04868 0.88423 0.0
C1112 C 0.18704 0.0356 0.87434 0.0
C1113 C 0.17515 0.01787 0.85176 0.0
C1114 C 0.24485 0.06596 0.90909 0.0
C1115 C 0.24276 0.10746 0.9169 0.0
C1116 C 0.25842 0.04148 0.92539 0.0
C1117 C 0.25725 -0.00488 0.91958 0.0
C1118 C 0.2141 0.95488 0.91163 0.0
C1119 C 0.21304 0.91112 0.90618 0.0
C1120 C 0.25484 0.90706 0.90875 0.0
C1121 C 0.29773 0.94671 0.91685 0.0
C1122 C 0.29899 -0.00942 0.92233 0.0
C1123 C 0.3264 0.18254 1.01003 0.0
C1124 C 0.30477 0.14912 1.02797 0.0
C1125 C 0.31547 0.16762 0.98696 0.0
C1126 C 0.2827 0.11844 0.98065 0.0
C1127 C 0.26198 0.08514 0.99864 0.0
C1128 C 0.27232 0.10009 1.02155 0.0
C1129 C 0.26962 0.10135 0.95577 0.0
C1130 C 0.27086 0.05939 0.948 0.0
C1131 C 0.25431 0.12487 0.93967 0.0
C1132 C 0.24735 0.16633 0.94648 0.0
C1133 C 0.27246 0.21151 0.9354 0.0
C1134 C 0.26592 0.25063 0.94188 0.0
C1135 C 0.234 0.24482 0.95929 0.0
C1136 C 0.20881 0.20002 0.97036 0.0
C1137 C 0.21522 0.16081 0.96396 0.0
H1138 H 0.22872 0.27502 0.96417 0.0
H1139 H 0.25395 0.87315 0.90453 0.0
loop_
_geom_bond_atom_site_label_1
_geom_bond_atom_site_label_2
_geom_bond_distance
_geom_bond_site_symmetry_2
_ccdc_geom_bond_type
Tb0 C10 2.825 . S
Tb0 O11 2.347 . S
Tb0 O14 2.366 . S
Tb0 O19 2.418 . S
Tb0 O20 2.384 1_554 S
Tb0 O23 2.479 . S
Tb0 O24 2.471 . S
Eu1 O12 2.418 . S
Eu1 O13 2.384 1_556 S
Eu1 O16 2.479 . S
Eu1 O17 2.471 . S
Eu1 O18 2.347 1_556 S
Eu1 O21 2.366 . S
Eu1 C31 2.825 . S
C2 O18 1.259 . S
C2 O19 1.265 . S
C3 O20 1.255 . S
C3 O21 1.265 . S
C4 C6 1.380 . S
C4 C7 1.374 . S
C4 C10 1.507 . S
C5 C6 1.384 . S
C5 C9 1.387 . S
C5 H32 0.930 . S
C6 C4 1.380 . S
C6 C5 1.384 . S
C6 H33 0.931 . S
C7 C4 1.374 . S
C7 C8 1.390 . S
C7 H34 0.930 . S
C8 C7 1.390 . S
C8 C9 1.391 . S
C8 H35 0.930 . S
C9 C5 1.387 . S
C9 C8 1.391 . S
C10 Tb0 2.825 . S
C10 C4 1.507 . S
C10 O23 1.238 . S
C10 O24 1.247 . S
O11 Tb0 2.347 . S
O11 C15 1.259 . S
O12 Eu1 2.418 . S
O12 C15 1.261 1_556 S
O13 Eu1 2.384 1_554 S
O13 C22 1.255 . S
O14 Tb0 2.366 . S
O14 C22 1.265 . S
C15 O11 1.259 . S
C15 O12 1.261 1_554 S
O16 Eu1 2.479 . S
O16 C31 1.238 . S
O17 Eu1 2.471 . S
O17 C31 1.247 . S
O18 Eu1 2.347 1_554 S
O18 C2 1.259 . S
O19 Tb0 2.418 . S
O19 C2 1.265 . S
O20 Tb0 2.384 1_556 S
O20 C3 1.255 . S
O21 Eu1 2.366 . S
O21 C3 1.265 . S
C22 O13 1.255 . S
C22 O14 1.265 . S
O23 Tb0 2.479 . S
O23 C10 1.238 . S
O24 Tb0 2.471 . S
O24 C10 1.247 . S
C25 C28 1.380 . S
C25 C29 1.374 . S
C25 C31 1.507 . S
C26 C27 1.387 . S
C26 C30 1.391 . S
C27 C26 1.387 . S
C27 C28 1.384 . S
C27 H36 0.930 . S
C28 C25 1.380 . S
C28 C27 1.384 . S
C28 H37 0.931 . S
C29 C25 1.374 . S
C29 C30 1.390 . S
C29 H38 0.930 . S
C30 C26 1.391 . S
C30 C29 1.390 . S
C30 H39 0.930 . S
C31 Eu1 2.825 . S
C31 O16 1.238 . S
C31 O17 1.247 . S
C31 C25 1.507 . S
H32 C5 0.930 . S
H33 C6 0.931 . S
H34 C7 0.930 . S
H35 C8 0.930 . S
H36 C27 0.930 . S
H37 C28 0.931 . S
H38 C29 0.930 . S
H39 C30 0.930 . S
Tb40 C50 2.825 . S
Tb40 O51 2.347 . S
Tb40 O54 2.366 . S
Tb40 O59 2.418 . S
Tb40 O60 2.384 . S
Tb40 O63 2.479 . S
Tb40 O64 2.471 . S
Eu41 O52 2.418 . S
Eu41 O53 2.384 . S
Eu41 O56 2.479 . S
Eu41 O57 2.471 . S
Eu41 O58 2.347 . S
Eu41 O61 2.366 . S
Eu41 C71 2.825 . S
C42 O58 1.259 . S
C42 O59 1.265 . S
C43 O60 1.255 . S
C43 O61 1.265 . S
C44 C46 1.380 . S
C44 C47 1.374 . S
C44 C50 1.507 . S
C45 C46 1.384 . S
C45 C49 1.387 . S
C45 H72 0.930 . S
C46 C44 1.380 . S
C46 C45 1.384 . S
C46 H73 0.931 . S
C47 C44 1.374 . S
C47 C48 1.390 . S
C47 H74 0.930 . S
C48 C47 1.390 . S
C48 C49 1.391 . S
C48 H75 0.930 . S
C49 C45 1.387 . S
C49 C48 1.391 . S
C50 Tb40 2.825 . S
C50 C44 1.507 . S
C50 O63 1.238 . S
C50 O64 1.247 . S
O51 Tb40 2.347 . S
O51 C55 1.259 . S
O52 Eu41 2.418 . S
O52 C55 1.265 . S
O53 Eu41 2.384 . S
O53 C62 1.255 . S
O54 Tb40 2.366 . S
O54 C62 1.265 . S
C55 O51 1.259 . S
C55 O52 1.265 . S
O56 Eu41 2.479 . S
O56 C71 1.238 . S
O57 Eu41 2.471 . S
O57 C71 1.247 . S
O58 Eu41 2.347 . S
O58 C42 1.259 . S
O59 Tb40 2.418 . S
O59 C42 1.265 . S
O60 Tb40 2.384 . S
O60 C43 1.255 . S
O61 Eu41 2.366 . S
O61 C43 1.265 . S
C62 O53 1.255 . S
C62 O54 1.265 . S
O63 Tb40 2.479 . S
O63 C50 1.238 . S
O64 Tb40 2.471 . S
O64 C50 1.247 . S
C65 C68 1.380 . S
C65 C69 1.374 . S
C65 C71 1.507 . S
C66 C67 1.387 . S
C66 C70 1.391 . S
C67 C66 1.387 . S
C67 C68 1.384 . S
C67 H76 0.930 . S
C68 C65 1.380 . S
C68 C67 1.384 . S
C68 H77 0.931 . S
C69 C65 1.374 . S
C69 C70 1.390 . S
C69 H78 0.930 . S
C70 C66 1.391 . S
C70 C69 1.390 . S
C70 H79 0.930 . S
C71 Eu41 2.825 . S
C71 O56 1.238 . S
C71 O57 1.247 . S
C71 C65 1.507 . S
H72 C45 0.930 . S
H73 C46 0.931 . S
H74 C47 0.930 . S
H75 C48 0.930 . S
H76 C67 0.930 . S
H77 C68 0.931 . S
H78 C69 0.930 . S
H79 C70 0.930 . S
Tb80 C90 2.825 . S
Tb80 O91 2.347 . S
Tb80 O94 2.366 . S
Tb80 O99 2.418 . S
Tb80 O100 2.384 . S
Tb80 O103 2.479 . S
Tb80 O104 2.471 . S
Eu81 O92 2.418 . S
Eu81 O93 2.384 . S
Eu81 O96 2.479 . S
Eu81 O97 2.471 . S
Eu81 O98 2.347 . S
Eu81 O101 2.366 1_655 S
Eu81 C111 2.825 . S
C82 O98 1.259 1_455 S
C82 O99 1.265 . S
C83 O100 1.255 . S
C83 O101 1.265 . S
C84 C86 1.380 . S
C84 C87 1.374 . S
C84 C90 1.507 . S
C85 C86 1.384 . S
C85 C89 1.387 . S
C85 H112 0.930 . S
C86 C84 1.380 . S
C86 C85 1.384 . S
C86 H113 0.931 . S
C87 C84 1.374 . S
C87 C88 1.390 . S
C87 H114 0.930 . S
C88 C87 1.390 . S
C88 C89 1.391 . S
C88 H115 0.930 . S
C89 C85 1.387 . S
C89 C88 1.391 . S
C90 Tb80 2.825 . S
C90 C84 1.507 . S
C90 O103 1.238 . S
C90 O104 1.247 . S
O91 Tb80 2.347 . S
O91 C95 1.259 1_455 S
O92 Eu81 2.418 . S
O92 C95 1.265 . S
O93 Eu81 2.384 . S
O93 C102 1.255 . S
O94 Tb80 2.366 . S
O94 C102 1.265 1_455 S
C95 O91 1.259 1_655 S
C95 O92 1.265 . S
O96 Eu81 2.479 . S
O96 C111 1.238 . S
O97 Eu81 2.471 . S
O97 C111 1.247 . S
O98 Eu81 2.347 . S
O98 C82 1.259 1_655 S
O99 Tb80 2.418 . S
O99 C82 1.265 . S
O100 Tb80 2.384 . S
O100 C83 1.255 . S
O101 Eu81 2.366 1_455 S
O101 C83 1.265 . S
C102 O93 1.255 . S
C102 O94 1.265 1_655 S
O103 Tb80 2.479 . S
O103 C90 1.238 . S
O104 Tb80 2.471 . S
O104 C90 1.247 . S
C105 C108 1.380 . S
C105 C109 1.374 . S
C105 C111 1.507 . S
C106 C107 1.387 . S
C106 C110 1.391 . S
C107 C106 1.387 . S
C107 C108 1.384 . S
C107 H116 0.930 . S
C108 C105 1.380 . S
C108 C107 1.384 . S
C108 H117 0.931 . S
C109 C105 1.374 . S
C109 C110 1.390 . S
C109 H118 0.930 . S
C110 C106 1.391 . S
C110 C109 1.390 . S
C110 H119 0.930 . S
C111 Eu81 2.825 . S
C111 O96 1.238 . S
C111 O97 1.247 . S
C111 C105 1.507 . S
H112 C85 0.930 . S
H113 C86 0.931 . S
H114 C87 0.930 . S
H115 C88 0.930 . S
H116 C107 0.930 . S
H117 C108 0.931 . S
H118 C109 0.930 . S
H119 C110 0.930 . S
Tb120 C130 2.825 . S
Tb120 O131 2.347 . S
Tb120 O134 2.366 . S
Tb120 O139 2.418 . S
Tb120 O140 2.384 1_554 S
Tb120 O143 2.479 . S
Tb120 O144 2.471 . S
Eu121 O132 2.418 . S
Eu121 O133 2.384 1_556 S
Eu121 O136 2.479 . S
Eu121 O137 2.471 . S
Eu121 O138 2.347 1_566 S
Eu121 O141 2.366 1_565 S
Eu121 C151 2.825 . S
C122 O138 1.259 . S
C122 O139 1.265 . S
C123 O140 1.255 . S
C123 O141 1.265 . S
C124 C126 1.380 . S
C124 C127 1.374 . S
C124 C130 1.507 . S
C125 C126 1.384 . S
C125 C129 1.387 . S
C125 H152 0.930 . S
C126 C124 1.380 . S
C126 C125 1.384 . S
C126 H153 0.931 . S
C127 C124 1.374 . S
C127 C128 1.390 . S
C127 H154 0.930 . S
C128 C127 1.390 . S
C128 C129 1.391 . S
C128 H155 0.930 . S
C129 C125 1.387 . S
C129 C128 1.391 . S
C130 Tb120 2.825 . S
C130 C124 1.507 . S
C130 O143 1.238 . S
C130 O144 1.247 . S
O131 Tb120 2.347 . S
O131 C135 1.259 1_545 S
O132 Eu121 2.418 . S
O132 C135 1.262 1_556 S
O133 Eu121 2.384 1_554 S
O133 C142 1.255 . S
O134 Tb120 2.366 . S
O134 C142 1.265 1_545 S
C135 O131 1.259 1_565 S
C135 O132 1.262 1_554 S
O136 Eu121 2.479 . S
O136 C151 1.238 . S
O137 Eu121 2.471 . S
O137 C151 1.247 . S
O138 Eu121 2.347 1_544 S
O138 C122 1.259 . S
O139 Tb120 2.418 . S
O139 C122 1.265 . S
O140 Tb120 2.384 1_556 S
O140 C123 1.255 . S
O141 Eu121 2.366 1_545 S
O141 C123 1.265 . S
C142 O133 1.255 . S
C142 O134 1.265 1_565 S
O143 Tb120 2.479 . S
O143 C130 1.238 . S
O144 Tb120 2.471 . S
O144 C130 1.247 . S
C145 C148 1.380 . S
C145 C149 1.374 . S
C145 C151 1.507 . S
C146 C147 1.387 . S
C146 C150 1.391 . S
C147 C146 1.387 . S
C147 C148 1.384 . S
C147 H156 0.930 . S
C148 C145 1.380 . S
C148 C147 1.384 . S
C148 H157 0.931 . S
C149 C145 1.374 . S
C149 C150 1.390 . S
C149 H158 0.930 . S
C150 C146 1.391 . S
C150 C149 1.390 . S
C150 H159 0.930 . S
C151 Eu121 2.825 . S
C151 O136 1.238 . S
C151 O137 1.247 . S
C151 C145 1.507 . S
H152 C125 0.930 . S
H153 C126 0.931 . S
H154 C127 0.930 . S
H155 C128 0.930 . S
H156 C147 0.930 . S
H157 C148 0.931 . S
H158 C149 0.930 . S
H159 C150 0.930 . S
Tb160 C170 2.825 . S
Tb160 O171 2.347 . S
Tb160 O174 2.366 . S
Tb160 O179 2.418 1_655 S
Tb160 O180 2.384 . S
Tb160 O183 2.479 . S
Tb160 O184 2.471 . S
Eu161 O172 2.418 . S
Eu161 O173 2.384 . S
Eu161 O176 2.479 . S
Eu161 O177 2.471 1_655 S
Eu161 O178 2.347 1_655 S
Eu161 O181 2.366 . S
Eu161 C191 2.825 1_655 S
C162 O178 1.259 . S
C162 O179 1.265 . S
C163 O180 1.255 . S
C163 O181 1.265 . S
C164 C166 1.380 . S
C164 C167 1.374 . S
C164 C170 1.507 . S
C165 C166 1.384 . S
C165 C169 1.387 . S
C165 H192 0.930 . S
C166 C164 1.380 . S
C166 C165 1.384 . S
C166 H193 0.931 . S
C167 C164 1.374 . S
C167 C168 1.390 . S
C167 H194 0.930 . S
C168 C167 1.390 . S
C168 C169 1.391 . S
C168 H195 0.930 . S
C169 C165 1.387 . S
C169 C168 1.391 . S
C170 Tb160 2.825 . S
C170 C164 1.507 . S
C170 O183 1.238 . S
C170 O184 1.247 . S
O171 Tb160 2.347 . S
O171 C175 1.259 . S
O172 Eu161 2.418 . S
O172 C175 1.265 . S
O173 Eu161 2.384 . S
O173 C182 1.255 . S
O174 Tb160 2.366 . S
O174 C182 1.265 . S
C175 O171 1.259 . S
C175 O172 1.265 . S
O176 Eu161 2.479 . S
O176 C191 1.238 1_655 S
O177 Eu161 2.471 1_455 S
O177 C191 1.247 . S
O178 Eu161 2.347 1_455 S
O178 C162 1.259 . S
O179 Tb160 2.418 1_455 S
O179 C162 1.265 . S
O180 Tb160 2.384 . S
O180 C163 1.255 . S
O181 Eu161 2.366 . S
O181 C163 1.265 . S
C182 O173 1.255 . S
C182 O174 1.265 . S
O183 Tb160 2.479 . S
O183 C170 1.238 . S
O184 Tb160 2.471 . S
O184 C170 1.247 . S
C185 C188 1.380 . S
C185 C189 1.374 . S
C185 C191 1.507 . S
C186 C187 1.387 . S
C186 C190 1.391 . S
C187 C186 1.387 . S
C187 C188 1.384 . S
C187 H196 0.930 . S
C188 C185 1.380 . S
C188 C187 1.384 . S
C188 H197 0.931 . S
C189 C185 1.374 . S
C189 C190 1.390 . S
C189 H198 0.930 . S
C190 C186 1.391 . S
C190 C189 1.390 . S
C190 H199 0.930 . S
C191 Eu161 2.825 1_455 S
C191 O176 1.238 1_455 S
C191 O177 1.247 . S
C191 C185 1.507 . S
H192 C165 0.930 . S
H193 C166 0.931 . S
H194 C167 0.930 . S
H195 C168 0.930 . S
H196 C187 0.930 . S
H197 C188 0.931 . S
H198 C189 0.930 . S
H199 C190 0.930 . S
Tb200 C210 2.825 . S
Tb200 O211 2.347 . S
Tb200 O214 2.366 . S
Tb200 O219 2.418 1_565 S
Tb200 O220 2.384 . S
Tb200 O223 2.479 . S
Tb200 O224 2.471 . S
Eu201 O212 2.418 1_545 S
Eu201 O213 2.384 . S
Eu201 O216 2.479 . S
Eu201 O217 2.471 . S
Eu201 O218 2.347 . S
Eu201 O221 2.366 1_545 S
Eu201 C231 2.825 . S
C202 O218 1.259 . S
C202 O219 1.265 . S
C203 O220 1.255 . S
C203 O221 1.265 . S
C204 C206 1.380 . S
C204 C207 1.374 . S
C204 C210 1.507 . S
C205 C206 1.384 . S
C205 C209 1.387 . S
C205 H232 0.930 . S
C206 C204 1.380 . S
C206 C205 1.384 . S
C206 H233 0.931 . S
C207 C204 1.374 . S
C207 C208 1.390 . S
C207 H234 0.930 . S
C208 C207 1.390 . S
C208 C209 1.391 . S
C208 H235 0.930 . S
C209 C205 1.387 . S
C209 C208 1.391 . S
C210 Tb200 2.825 . S
C210 C204 1.507 . S
C210 O223 1.238 . S
C210 O224 1.247 . S
O211 Tb200 2.347 . S
O211 C215 1.259 . S
O212 Eu201 2.418 1_565 S
O212 C215 1.265 . S
O213 Eu201 2.384 . S
O213 C222 1.250 . S
O214 Tb200 2.366 . S
O214 C222 1.268 1_565 S
C215 O211 1.259 . S
C215 O212 1.265 . S
O216 Eu201 2.479 . S
O216 C231 1.238 . S
O217 Eu201 2.471 . S
O217 C231 1.247 . S
O218 Eu201 2.347 . S
O218 C202 1.259 . S
O219 Tb200 2.418 1_545 S
O219 C202 1.265 . S
O220 Tb200 2.384 . S
O220 C203 1.255 . S
O221 Eu201 2.366 1_565 S
O221 C203 1.265 . S
C222 O213 1.250 . S
C222 O214 1.268 1_545 S
O223 Tb200 2.479 . S
O223 C210 1.238 . S
O224 Tb200 2.471 . S
O224 C210 1.247 . S
C225 C228 1.380 . S
C225 C229 1.374 . S
C225 C231 1.507 . S
C226 C227 1.387 . S
C226 C230 1.391 . S
C227 C226 1.387 . S
C227 C228 1.384 . S
C227 H236 0.930 . S
C228 C225 1.380 . S
C228 C227 1.384 . S
C228 H237 0.931 . S
C229 C225 1.374 . S
C229 C230 1.390 . S
C229 H238 0.930 . S
C230 C226 1.391 . S
C230 C229 1.390 . S
C230 H239 0.930 . S
C231 Eu201 2.825 . S
C231 O216 1.238 . S
C231 O217 1.247 . S
C231 C225 1.507 . S
H232 C205 0.930 . S
H233 C206 0.931 . S
H234 C207 0.930 . S
H235 C208 0.930 . S
H236 C227 0.930 . S
H237 C228 0.931 . S
H238 C229 0.930 . S
H239 C230 0.930 . S
H240 C258 0.951 . S
H241 C260 0.951 1_455 S
H242 C262 0.950 1_455 S
H243 C263 0.950 . S
H244 C265 0.950 . S
H245 C268 0.950 . S
H246 C269 0.933 1_655 S
H247 C271 0.950 . S
H248 C272 0.950 . S
H249 C273 0.951 . S
H250 C275 0.951 . S
H251 C277 0.950 . S
H252 C278 0.950 . S
H253 C280 0.950 . S
H254 C283 0.950 1_554 S
H255 C284 0.950 . S
H256 C286 0.950 . S
H257 C287 0.950 . S
C258 H240 0.951 . S
C258 C259 1.366 1_545 S
C258 C260 1.388 . S
C259 C258 1.366 1_565 S
C259 C263 1.385 1_564 S
C260 H241 0.951 1_655 S
C260 C258 1.388 . S
C260 C261 1.366 1_655 S
C261 C260 1.366 1_455 S
C261 C262 1.414 1_454 S
C261 C264 1.499 . S
C262 H242 0.950 1_655 S
C262 C261 1.414 1_656 S
C262 C263 1.374 . S
C263 H243 0.950 . S
C263 C259 1.385 1_546 S
C263 C262 1.374 . S
C264 C261 1.499 . S
C264 C265 1.373 1_554 S
C264 C266 1.389 . S
C265 H244 0.950 . S
C265 C264 1.373 1_556 S
C265 C281 1.377 . S
C266 C264 1.389 . S
C266 C267 1.524 . S
C266 C280 1.377 . S
C267 C266 1.524 . S
C267 C268 1.397 . S
C267 C272 1.363 . S
C268 H245 0.950 . S
C268 C267 1.397 . S
C268 C269 1.351 . S
C269 H246 0.933 1_455 S
C269 C268 1.351 . S
C269 C270 1.288 . S
C270 C269 1.288 . S
C270 C271 1.524 . S
C270 H289 0.913 1_455 S
C271 H247 0.950 . S
C271 C270 1.524 . S
C271 C272 1.415 . S
C272 H248 0.950 . S
C272 C267 1.363 . S
C272 C271 1.415 . S
C273 H249 0.951 . S
C273 C274 1.366 1_556 S
C273 C275 1.388 . S
C274 C273 1.366 1_554 S
C274 C278 1.385 . S
C275 H250 0.951 . S
C275 C273 1.388 . S
C275 C276 1.366 1_556 S
C276 C275 1.366 1_554 S
C276 C277 1.414 . S
C276 C279 1.499 . S
C277 H251 0.950 . S
C277 C276 1.414 . S
C277 C278 1.374 . S
C278 H252 0.950 . S
C278 C274 1.385 . S
C278 C277 1.374 . S
C279 C276 1.499 . S
C279 C280 1.373 . S
C279 C281 1.389 1_554 S
C280 H253 0.950 . S
C280 C266 1.377 . S
C280 C279 1.373 . S
C281 C265 1.377 . S
C281 C279 1.389 1_556 S
C281 C282 1.524 . S
C282 C281 1.524 . S
C282 C283 1.397 . S
C282 C287 1.363 . S
C283 H254 0.950 1_556 S
C283 C282 1.397 . S
C283 C284 1.334 . S
C284 H255 0.950 . S
C284 C283 1.334 . S
C284 C285 1.287 . S
C285 C284 1.287 . S
C285 C286 1.524 . S
C285 H288 0.999 . S
C286 H256 0.950 . S
C286 C285 1.524 . S
C286 C287 1.415 . S
C287 H257 0.950 . S
C287 C282 1.363 . S
C287 C286 1.415 . S
H288 C285 0.999 . S
H289 C270 0.913 1_655 S
H290 C308 0.951 . S
H291 C310 0.951 1_545 S
H292 C312 0.950 1_545 S
H293 C313 0.950 . S
H294 C315 0.950 . S
H295 C318 0.950 . S
H296 C319 0.950 1_565 S
H297 C321 0.950 . S
H298 C322 0.950 . S
H299 C323 0.951 . S
H300 C325 0.951 . S
H301 C327 0.950 . S
H302 C328 0.950 . S
H303 C330 0.950 . S
H304 C333 0.950 . S
H305 C334 0.950 . S
H306 C336 0.950 . S
H307 C337 0.950 . S
C308 H290 0.951 . S
C308 C309 1.366 . S
C308 C310 1.388 . S
C309 C308 1.366 . S
C309 C313 1.385 . S
C310 H291 0.951 1_565 S
C310 C308 1.388 . S
C310 C311 1.366 1_565 S
C311 C310 1.366 1_545 S
C311 C312 1.414 1_545 S
C311 C314 1.499 . S
C312 H292 0.950 1_565 S
C312 C311 1.414 1_565 S
C312 C313 1.374 . S
C313 H293 0.950 . S
C313 C309 1.385 . S
C313 C312 1.374 . S
C314 C311 1.499 . S
C314 C315 1.373 . S
C314 C316 1.389 . S
C315 H294 0.950 . S
C315 C314 1.373 . S
C315 C331 1.377 . S
C316 C314 1.389 . S
C316 C317 1.524 . S
C316 C330 1.377 . S
C317 C316 1.524 . S
C317 C318 1.397 1_455 S
C317 C322 1.363 . S
C318 H295 0.950 . S
C318 C317 1.397 1_655 S
C318 C319 1.334 . S
C319 H296 0.950 1_545 S
C319 C318 1.334 . S
C319 C320 1.287 . S
C320 C319 1.287 . S
C320 C321 1.524 . S
C320 H339 0.916 . S
C321 H297 0.950 . S
C321 C320 1.524 . S
C321 C322 1.415 1_655 S
C322 H298 0.950 . S
C322 C317 1.363 . S
C322 C321 1.415 1_455 S
C323 H299 0.951 . S
C323 C324 1.366 . S
C323 C325 1.388 . S
C324 C323 1.366 . S
C324 C328 1.385 . S
C325 H300 0.951 . S
C325 C323 1.388 . S
C325 C326 1.366 . S
C326 C325 1.366 . S
C326 C327 1.414 . S
C326 C329 1.499 . S
C327 H301 0.950 . S
C327 C326 1.414 . S
C327 C328 1.374 . S
C328 H302 0.950 . S
C328 C324 1.385 . S
C328 C327 1.374 . S
C329 C326 1.499 . S
C329 C330 1.373 . S
C329 C331 1.389 . S
C330 H303 0.950 . S
C330 C316 1.377 . S
C330 C329 1.373 . S
C331 C315 1.377 . S
C331 C329 1.389 . S
C331 C332 1.524 . S
C332 C331 1.524 . S
C332 C333 1.397 . S
C332 C337 1.363 . S
C333 H304 0.950 . S
C333 C332 1.397 . S
C333 C334 1.334 . S
C334 H305 0.950 . S
C334 C333 1.334 . S
C334 C335 1.287 . S
C335 C334 1.287 . S
C335 C336 1.524 . S
C335 H338 0.999 . S
C336 H306 0.950 . S
C336 C335 1.524 . S
C336 C337 1.415 . S
C337 H307 0.950 . S
C337 C332 1.363 . S
C337 C336 1.415 . S
H338 C335 0.999 . S
H339 C320 0.916 . S
H340 C358 0.951 . S
H341 C360 0.951 . S
H342 C362 0.950 . S
H343 C363 0.950 1_565 S
H344 C365 0.950 . S
H345 C368 0.950 . S
H346 C369 0.950 . S
H347 C371 0.950 . S
H348 C372 0.950 . S
H349 C373 0.951 . S
H350 C375 0.951 1_655 S
H351 C377 0.950 . S
H352 C378 0.950 . S
H353 C380 0.950 . S
H354 C383 0.950 . S
H355 C384 0.950 . S
H356 C386 0.950 . S
H357 C387 0.939 1_455 S
C358 H340 0.951 . S
C358 C359 1.366 . S
C358 C360 1.388 . S
C359 C358 1.366 . S
C359 C363 1.385 . S
C360 H341 0.951 . S
C360 C358 1.388 . S
C360 C361 1.366 . S
C361 C360 1.366 . S
C361 C362 1.414 . S
C361 C364 1.499 . S
C362 H342 0.950 . S
C362 C361 1.414 . S
C362 C363 1.374 . S
C363 H343 0.950 1_545 S
C363 C359 1.385 . S
C363 C362 1.374 . S
C364 C361 1.499 . S
C364 C365 1.373 . S
C364 C366 1.389 . S
C365 H344 0.950 . S
C365 C364 1.373 . S
C365 C381 1.377 . S
C366 C364 1.389 . S
C366 C367 1.524 . S
C366 C380 1.377 . S
C367 C366 1.524 . S
C367 C368 1.397 . S
C367 C372 1.363 . S
C368 H345 0.950 . S
C368 C367 1.397 . S
C368 C369 1.334 . S
C369 H346 0.950 . S
C369 C368 1.334 . S
C369 C370 1.287 . S
C370 C369 1.287 . S
C370 C371 1.524 . S
C370 H389 0.913 . S
C371 H347 0.950 . S
C371 C370 1.524 . S
C371 C372 1.415 . S
C372 H348 0.950 . S
C372 C367 1.363 . S
C372 C371 1.415 . S
C373 H349 0.951 . S
C373 C374 1.366 . S
C373 C375 1.388 1_655 S
C374 C373 1.366 . S
C374 C378 1.385 1_655 S
C375 H350 0.951 1_455 S
C375 C373 1.388 1_455 S
C375 C376 1.366 . S
C376 C375 1.366 . S
C376 C377 1.414 . S
C376 C379 1.499 . S
C377 H351 0.950 . S
C377 C376 1.414 . S
C377 C378 1.374 . S
C378 H352 0.950 . S
C378 C374 1.385 1_455 S
C378 C377 1.374 . S
C379 C376 1.499 . S
C379 C380 1.373 . S
C379 C381 1.389 . S
C380 H353 0.950 . S
C380 C366 1.377 . S
C380 C379 1.373 . S
C381 C365 1.377 . S
C381 C379 1.389 . S
C381 C382 1.524 . S
C382 C381 1.524 . S
C382 C383 1.397 . S
C382 C387 1.360 1_455 S
C383 H354 0.950 . S
C383 C382 1.397 . S
C383 C384 1.334 1_455 S
C384 H355 0.950 . S
C384 C383 1.334 1_655 S
C384 C385 1.287 . S
C385 C384 1.287 . S
C385 C386 1.524 1_545 S
C385 H388 0.999 . S
C386 H356 0.950 . S
C386 C385 1.524 1_565 S
C386 C387 1.430 1_565 S
C387 H357 0.939 1_655 S
C387 C382 1.360 1_655 S
C387 C386 1.430 1_545 S
H388 C385 0.999 . S
H389 C370 0.913 . S
H390 C408 0.951 . S
H391 C410 0.951 . S
H392 C412 0.950 . S
H393 C413 0.950 . S
H394 C415 0.950 . S
H395 C418 0.950 . S
H396 C419 0.950 . S
H397 C421 0.950 . S
H398 C422 0.950 . S
H399 C423 0.951 . S
H400 C425 0.951 . S
H401 C427 0.950 . S
H402 C428 0.950 . S
H403 C430 0.950 . S
H404 C433 0.950 . S
H405 C434 0.950 . S
H406 C436 0.950 . S
H407 C437 0.950 . S
C408 H390 0.951 . S
C408 C409 1.366 . S
C408 C410 1.388 . S
C409 C408 1.366 . S
C409 C413 1.385 . S
C410 H391 0.951 . S
C410 C408 1.388 . S
C410 C411 1.366 . S
C411 C410 1.366 . S
C411 C412 1.414 . S
C411 C414 1.499 . S
C412 H392 0.950 . S
C412 C411 1.414 . S
C412 C413 1.374 . S
C413 H393 0.950 . S
C413 C409 1.385 . S
C413 C412 1.374 . S
C414 C411 1.499 . S
C414 C415 1.373 . S
C414 C416 1.389 . S
C415 H394 0.950 . S
C415 C414 1.373 . S
C415 C431 1.377 . S
C416 C414 1.389 . S
C416 C417 1.524 . S
C416 C430 1.377 . S
C417 C416 1.524 . S
C417 C418 1.397 . S
C417 C422 1.363 . S
C418 H395 0.950 . S
C418 C417 1.397 . S
C418 C419 1.334 . S
C419 H396 0.950 . S
C419 C418 1.334 . S
C419 C420 1.287 . S
C420 C419 1.287 . S
C420 C421 1.524 . S
C420 H439 0.913 . S
C421 H397 0.950 . S
C421 C420 1.524 . S
C421 C422 1.415 . S
C422 H398 0.950 . S
C422 C417 1.363 . S
C422 C421 1.415 . S
C423 H399 0.951 . S
C423 C424 1.366 . S
C423 C425 1.388 . S
C424 C423 1.366 . S
C424 C428 1.385 . S
C425 H400 0.951 . S
C425 C423 1.388 . S
C425 C426 1.366 . S
C426 C425 1.366 . S
C426 C427 1.414 . S
C426 C429 1.499 . S
C427 H401 0.950 . S
C427 C426 1.414 . S
C427 C428 1.374 . S
C428 H402 0.950 . S
C428 C424 1.385 . S
C428 C427 1.374 . S
C429 C426 1.499 . S
C429 C430 1.373 . S
C429 C431 1.389 . S
C430 H403 0.950 . S
C430 C416 1.377 . S
C430 C429 1.373 . S
C431 C415 1.377 . S
C431 C429 1.389 . S
C431 C432 1.524 . S
C432 C431 1.524 . S
C432 C433 1.397 . S
C432 C437 1.363 . S
C433 H404 0.950 . S
C433 C432 1.397 . S
C433 C434 1.334 . S
C434 H405 0.950 . S
C434 C433 1.334 . S
C434 C435 1.287 . S
C435 C434 1.287 . S
C435 C436 1.524 . S
C435 H438 0.999 . S
C436 H406 0.950 . S
C436 C435 1.524 . S
C436 C437 1.415 . S
C437 H407 0.950 . S
C437 C432 1.363 . S
C437 C436 1.415 . S
H438 C435 0.999 . S
H439 C420 0.913 . S
H440 C458 0.951 . S
H441 C460 0.951 . S
H442 C462 0.950 . S
H443 C463 0.950 . S
H444 C465 0.950 . S
H445 C468 0.950 . S
H446 C469 0.950 . S
H447 C471 0.950 . S
H448 C472 0.950 . S
H449 C473 0.951 . S
H450 C475 0.951 . S
H451 C477 0.950 . S
H452 C478 0.950 . S
H453 C480 0.950 . S
H454 C483 0.950 . S
H455 C484 0.950 . S
H456 C486 0.950 . S
H457 C487 0.950 . S
C458 H440 0.951 . S
C458 C459 1.366 . S
C458 C460 1.388 . S
C459 C458 1.366 . S
C459 C463 1.385 . S
C460 H441 0.951 . S
C460 C458 1.388 . S
C460 C461 1.366 . S
C461 C460 1.366 . S
C461 C462 1.414 . S
C461 C464 1.499 . S
C462 H442 0.950 . S
C462 C461 1.414 . S
C462 C463 1.374 . S
C463 H443 0.950 . S
C463 C459 1.385 . S
C463 C462 1.374 . S
C464 C461 1.499 . S
C464 C465 1.373 . S
C464 C466 1.389 . S
C465 H444 0.950 . S
C465 C464 1.373 . S
C465 C481 1.377 . S
C466 C464 1.389 . S
C466 C467 1.524 . S
C466 C480 1.377 1_455 S
C467 C466 1.524 . S
C467 C468 1.397 . S
C467 C472 1.363 1_455 S
C468 H445 0.950 . S
C468 C467 1.397 . S
C468 C469 1.334 . S
C469 H446 0.950 . S
C469 C468 1.334 . S
C469 C470 1.287 . S
C470 C469 1.287 . S
C470 C471 1.524 1_455 S
C470 H489 0.913 . S
C471 H447 0.950 . S
C471 C470 1.524 1_655 S
C471 C472 1.415 . S
C472 H448 0.950 . S
C472 C467 1.363 1_655 S
C472 C471 1.415 . S
C473 H449 0.951 . S
C473 C474 1.366 . S
C473 C475 1.388 . S
C474 C473 1.366 . S
C474 C478 1.385 . S
C475 H450 0.951 . S
C475 C473 1.388 . S
C475 C476 1.366 . S
C476 C475 1.366 . S
C476 C477 1.414 . S
C476 C479 1.499 . S
C477 H451 0.950 . S
C477 C476 1.414 . S
C477 C478 1.374 . S
C478 H452 0.950 . S
C478 C474 1.385 . S
C478 C477 1.374 . S
C479 C476 1.499 . S
C479 C480 1.373 . S
C479 C481 1.389 1_655 S
C480 H453 0.950 . S
C480 C466 1.377 1_655 S
C480 C479 1.373 . S
C481 C465 1.377 . S
C481 C479 1.389 1_455 S
C481 C482 1.524 . S
C482 C481 1.524 . S
C482 C483 1.397 1_455 S
C482 C487 1.363 . S
C483 H454 0.950 . S
C483 C482 1.397 1_655 S
C483 C484 1.334 . S
C484 H455 0.950 . S
C484 C483 1.334 . S
C484 C485 1.287 1_655 S
C485 C484 1.287 1_455 S
C485 C486 1.524 . S
C485 H488 1.000 . S
C486 H456 0.950 . S
C486 C485 1.524 . S
C486 C487 1.415 . S
C487 H457 0.950 . S
C487 C482 1.363 . S
C487 C486 1.415 . S
H488 C485 1.000 . S
H489 C470 0.913 . S
H490 C508 0.951 . S
H491 C510 0.951 . S
H492 C512 0.950 . S
H493 C513 0.950 . S
H494 C515 0.950 . S
H495 C518 0.950 . S
H496 C519 0.950 . S
H497 C521 0.950 . S
H498 C522 0.950 . S
H499 C523 0.951 . S
H500 C525 0.951 . S
H501 C527 0.950 . S
H502 C528 0.950 . S
H503 C530 0.950 . S
H504 C533 0.950 . S
H505 C534 0.950 . S
H506 C536 0.950 . S
H507 C537 0.950 1_545 S
C508 H490 0.951 . S
C508 C509 1.366 . S
C508 C510 1.388 . S
C509 C508 1.366 . S
C509 C513 1.385 . S
C510 H491 0.951 . S
C510 C508 1.388 . S
C510 C511 1.366 . S
C511 C510 1.366 . S
C511 C512 1.414 . S
C511 C514 1.499 . S
C512 H492 0.950 . S
C512 C511 1.414 . S
C512 C513 1.374 . S
C513 H493 0.950 . S
C513 C509 1.385 . S
C513 C512 1.374 . S
C514 C511 1.499 . S
C514 C515 1.373 . S
C514 C516 1.389 . S
C515 H494 0.950 . S
C515 C514 1.373 . S
C515 C531 1.377 1_545 S
C516 C514 1.389 . S
C516 C517 1.524 . S
C516 C530 1.377 . S
C517 C516 1.524 . S
C517 C518 1.397 . S
C517 C522 1.363 . S
C518 H495 0.950 . S
C518 C517 1.397 . S
C518 C519 1.334 1_655 S
C519 H496 0.950 . S
C519 C518 1.334 1_455 S
C519 C520 1.287 . S
C520 C519 1.287 . S
C520 C521 1.524 . S
C520 H539 0.913 . S
C521 H497 0.950 . S
C521 C520 1.524 . S
C521 C522 1.415 1_455 S
C522 H498 0.950 . S
C522 C517 1.363 . S
C522 C521 1.415 1_655 S
C523 H499 0.951 . S
C523 C524 1.366 . S
C523 C525 1.388 . S
C524 C523 1.366 . S
C524 C528 1.385 . S
C525 H500 0.951 . S
C525 C523 1.388 . S
C525 C526 1.366 . S
C526 C525 1.366 . S
C526 C527 1.414 . S
C526 C529 1.499 . S
C527 H501 0.950 . S
C527 C526 1.414 . S
C527 C528 1.374 . S
C528 H502 0.950 . S
C528 C524 1.385 . S
C528 C527 1.374 . S
C529 C526 1.499 . S
C529 C530 1.373 1_565 S
C529 C531 1.389 . S
C530 H503 0.950 . S
C530 C516 1.377 . S
C530 C529 1.373 1_545 S
C531 C515 1.377 1_565 S
C531 C529 1.389 . S
C531 C532 1.524 . S
C532 C531 1.524 . S
C532 C533 1.397 . S
C532 C537 1.363 . S
C533 H504 0.950 . S
C533 C532 1.397 . S
C533 C534 1.334 . S
C534 H505 0.950 . S
C534 C533 1.334 . S
C534 C535 1.287 . S
C535 C534 1.287 . S
C535 C536 1.524 . S
C535 H538 0.999 . S
C536 H506 0.950 . S
C536 C535 1.524 . S
C536 C537 1.415 . S
C537 H507 0.950 1_565 S
C537 C532 1.363 . S
C537 C536 1.415 . S
H538 C535 0.999 . S
H539 C520 0.913 . S
H540 C558 0.951 . S
H541 C560 0.951 . S
H542 C562 0.950 . S
H543 C563 0.950 . S
H544 C565 0.950 . S
H545 C568 0.950 . S
H546 C569 0.950 . S
H547 C571 0.950 . S
H548 C572 0.950 . S
H549 C573 0.951 . S
H550 C575 0.951 . S
H551 C577 0.950 1_655 S
H552 C578 0.950 . S
H553 C580 0.950 . S
H554 C583 0.950 . S
H555 C584 0.950 . S
H556 C586 0.950 . S
H557 C587 0.950 . S
C558 H540 0.951 . S
C558 C559 1.366 . S
C558 C560 1.388 . S
C559 C558 1.366 . S
C559 C563 1.385 . S
C560 H541 0.951 . S
C560 C558 1.388 . S
C560 C561 1.366 . S
C561 C560 1.366 . S
C561 C562 1.414 . S
C561 C564 1.499 . S
C562 H542 0.950 . S
C562 C561 1.414 . S
C562 C563 1.374 . S
C563 H543 0.950 . S
C563 C559 1.385 . S
C563 C562 1.374 . S
C564 C561 1.499 . S
C564 C565 1.373 . S
C564 C566 1.389 . S
C565 H544 0.950 . S
C565 C564 1.373 . S
C565 C581 1.377 . S
C566 C564 1.389 . S
C566 C567 1.524 . S
C566 C580 1.377 . S
C567 C566 1.524 . S
C567 C568 1.397 . S
C567 C572 1.363 . S
C568 H545 0.950 . S
C568 C567 1.397 . S
C568 C569 1.334 . S
C569 H546 0.950 . S
C569 C568 1.334 . S
C569 C570 1.287 . S
C570 C569 1.287 . S
C570 C571 1.524 . S
C570 H589 0.913 . S
C571 H547 0.950 . S
C571 C570 1.524 . S
C571 C572 1.415 . S
C572 H548 0.950 . S
C572 C567 1.363 . S
C572 C571 1.415 . S
C573 H549 0.951 . S
C573 C574 1.366 . S
C573 C575 1.388 . S
C574 C573 1.366 . S
C574 C578 1.385 . S
C575 H550 0.951 . S
C575 C573 1.388 . S
C575 C576 1.366 . S
C576 C575 1.366 . S
C576 C577 1.414 . S
C576 C579 1.499 1_455 S
C577 H551 0.950 1_455 S
C577 C576 1.414 . S
C577 C578 1.374 . S
C578 H552 0.950 . S
C578 C574 1.385 . S
C578 C577 1.374 . S
C579 C576 1.499 1_655 S
C579 C580 1.373 . S
C579 C581 1.389 . S
C580 H553 0.950 . S
C580 C566 1.377 . S
C580 C579 1.373 . S
C581 C565 1.377 . S
C581 C579 1.389 . S
C581 C582 1.524 1_655 S
C582 C581 1.524 1_455 S
C582 C583 1.397 . S
C582 C587 1.363 . S
C583 H554 0.950 . S
C583 C582 1.397 . S
C583 C584 1.334 1_565 S
C584 H555 0.950 . S
C584 C583 1.334 1_545 S
C584 C585 1.287 . S
C585 C584 1.287 . S
C585 C586 1.524 1_545 S
C585 H588 0.999 . S
C586 H556 0.950 . S
C586 C585 1.524 1_565 S
C586 C587 1.415 . S
C587 H557 0.950 . S
C587 C582 1.363 . S
C587 C586 1.415 . S
H588 C585 0.999 . S
H589 C570 0.913 . S
H590 C608 0.951 . S
H591 C610 0.951 . S
H592 C612 0.950 . S
H593 C613 0.950 . S
H594 C615 0.950 . S
H595 C618 0.950 . S
H596 C619 0.950 . S
H597 C621 0.950 . S
H598 C622 0.950 . S
H599 C623 0.951 . S
H600 C625 0.951 . S
H601 C627 0.950 1_565 S
H602 C628 0.950 . S
H603 C630 0.950 . S
H604 C633 0.950 . S
H605 C634 0.950 . S
H606 C636 0.950 . S
H607 C637 0.950 . S
C608 H590 0.951 . S
C608 C609 1.366 . S
C608 C610 1.388 . S
C609 C608 1.366 . S
C609 C613 1.385 . S
C610 H591 0.951 . S
C610 C608 1.388 . S
C610 C611 1.366 . S
C611 C610 1.366 . S
C611 C612 1.414 . S
C611 C614 1.499 . S
C612 H592 0.950 . S
C612 C611 1.414 . S
C612 C613 1.374 . S
C613 H593 0.950 . S
C613 C609 1.385 . S
C613 C612 1.374 . S
C614 C611 1.499 . S
C614 C615 1.373 . S
C614 C616 1.389 . S
C615 H594 0.950 . S
C615 C614 1.373 . S
C615 C631 1.377 . S
C616 C614 1.389 . S
C616 C617 1.524 . S
C616 C630 1.377 . S
C617 C616 1.524 . S
C617 C618 1.397 . S
C617 C622 1.363 . S
C618 H595 0.950 . S
C618 C617 1.397 . S
C618 C619 1.334 . S
C619 H596 0.950 . S
C619 C618 1.334 . S
C619 C620 1.287 . S
C620 C619 1.287 . S
C620 C621 1.524 . S
C620 H639 0.913 . S
C621 H597 0.950 . S
C621 C620 1.524 . S
C621 C622 1.415 . S
C622 H598 0.950 . S
C622 C617 1.363 . S
C622 C621 1.415 . S
C623 H599 0.951 . S
C623 C624 1.366 . S
C623 C625 1.388 . S
C624 C623 1.366 . S
C624 C628 1.385 . S
C625 H600 0.951 . S
C625 C623 1.388 . S
C625 C626 1.366 . S
C626 C625 1.366 . S
C626 C627 1.414 . S
C626 C629 1.499 1_545 S
C627 H601 0.950 1_545 S
C627 C626 1.414 . S
C627 C628 1.374 . S
C628 H602 0.950 . S
C628 C624 1.385 . S
C628 C627 1.374 . S
C629 C626 1.499 1_565 S
C629 C630 1.373 . S
C629 C631 1.389 . S
C630 H603 0.950 . S
C630 C616 1.377 . S
C630 C629 1.373 . S
C631 C615 1.377 . S
C631 C629 1.389 . S
C631 C632 1.524 1_565 S
C632 C631 1.524 1_545 S
C632 C633 1.397 . S
C632 C637 1.363 . S
C633 H604 0.950 . S
C633 C632 1.397 . S
C633 C634 1.334 . S
C634 H605 0.950 . S
C634 C633 1.334 . S
C634 C635 1.287 . S
C635 C634 1.287 . S
C635 C636 1.524 . S
C635 H638 0.999 . S
C636 H606 0.950 . S
C636 C635 1.524 . S
C636 C637 1.415 . S
C637 H607 0.950 . S
C637 C632 1.363 . S
C637 C636 1.415 . S
H638 C635 0.999 . S
H639 C620 0.913 . S
H640 C658 0.951 . S
H641 C660 0.951 . S
H642 C662 0.950 . S
H643 C663 0.950 . S
H644 C665 0.950 . S
H645 C668 0.950 . S
H646 C669 0.950 . S
H647 C671 0.950 . S
H648 C672 0.950 . S
H649 C673 0.951 . S
H650 C675 0.951 . S
H651 C677 0.950 . S
H652 C678 0.950 . S
H653 C680 0.950 . S
H654 C683 0.950 . S
H655 C684 0.950 . S
H656 C686 0.950 . S
H657 C687 0.950 . S
C658 H640 0.951 . S
C658 C659 1.366 . S
C658 C660 1.388 . S
C659 C658 1.366 . S
C659 C663 1.385 . S
C660 H641 0.951 . S
C660 C658 1.388 . S
C660 C661 1.366 . S
C661 C660 1.366 . S
C661 C662 1.414 . S
C661 C664 1.499 . S
C662 H642 0.950 . S
C662 C661 1.414 . S
C662 C663 1.374 . S
C663 H643 0.950 . S
C663 C659 1.385 . S
C663 C662 1.374 . S
C664 C661 1.499 . S
C664 C665 1.373 . S
C664 C666 1.389 . S
C665 H644 0.950 . S
C665 C664 1.373 . S
C665 C681 1.377 . S
C666 C664 1.389 . S
C666 C667 1.524 . S
C666 C680 1.377 . S
C667 C666 1.524 . S
C667 C668 1.397 . S
C667 C672 1.363 . S
C668 H645 0.950 . S
C668 C667 1.397 . S
C668 C669 1.334 . S
C669 H646 0.950 . S
C669 C668 1.334 . S
C669 C670 1.287 . S
C670 C669 1.287 . S
C670 C671 1.524 . S
C670 H689 0.913 . S
C671 H647 0.950 . S
C671 C670 1.524 . S
C671 C672 1.415 . S
C672 H648 0.950 . S
C672 C667 1.363 . S
C672 C671 1.415 . S
C673 H649 0.951 . S
C673 C674 1.366 . S
C673 C675 1.388 . S
C674 C673 1.366 . S
C674 C678 1.385 . S
C675 H650 0.951 . S
C675 C673 1.388 . S
C675 C676 1.366 . S
C676 C675 1.366 . S
C676 C677 1.414 . S
C676 C679 1.499 . S
C677 H651 0.950 . S
C677 C676 1.414 . S
C677 C678 1.374 . S
C678 H652 0.950 . S
C678 C674 1.385 . S
C678 C677 1.374 . S
C679 C676 1.499 . S
C679 C680 1.373 . S
C679 C681 1.389 . S
C680 H653 0.950 . S
C680 C666 1.377 . S
C680 C679 1.373 . S
C681 C665 1.377 . S
C681 C679 1.389 . S
C681 C682 1.524 . S
C682 C681 1.524 . S
C682 C683 1.397 . S
C682 C687 1.363 . S
C683 H654 0.950 . S
C683 C682 1.397 . S
C683 C684 1.334 . S
C684 H655 0.950 . S
C684 C683 1.334 . S
C684 C685 1.287 . S
C685 C684 1.287 . S
C685 C686 1.524 . S
C685 H688 0.999 . S
C686 H656 0.950 . S
C686 C685 1.524 . S
C686 C687 1.415 . S
C687 H657 0.950 . S
C687 C682 1.363 . S
C687 C686 1.415 . S
H688 C685 0.999 . S
H689 C670 0.913 . S
H690 C708 0.951 . S
H691 C710 0.951 . S
H692 C712 0.950 . S
H693 C713 0.950 . S
H694 C715 0.979 . S
H695 C718 0.950 . S
H696 C719 0.950 . S
H697 C721 0.950 . S
H698 C722 0.950 . S
H699 C723 0.951 . S
H700 C725 0.951 . S
H701 C727 0.950 . S
H702 C728 0.950 . S
H703 C730 0.950 . S
H704 C733 0.950 . S
H705 C734 0.950 . S
H706 C736 0.950 . S
H707 C737 0.950 . S
C708 H690 0.951 . S
C708 C709 1.366 . S
C708 C710 1.388 . S
C709 C708 1.366 . S
C709 C713 1.385 . S
C710 H691 0.951 . S
C710 C708 1.388 . S
C710 C711 1.366 . S
C711 C710 1.366 . S
C711 C712 1.414 . S
C711 C714 1.499 . S
C712 H692 0.950 . S
C712 C711 1.414 . S
C712 C713 1.374 . S
C713 H693 0.950 . S
C713 C709 1.385 . S
C713 C712 1.374 . S
C714 C711 1.499 . S
C714 C715 1.343 1_554 S
C714 C716 1.389 . S
C715 H694 0.979 . S
C715 C714 1.343 1_556 S
C715 C731 1.379 . S
C716 C714 1.389 . S
C716 C717 1.524 . S
C716 C730 1.377 . S
C717 C716 1.524 . S
C717 C718 1.397 . S
C717 C722 1.363 . S
C718 H695 0.950 . S
C718 C717 1.397 . S
C718 C719 1.334 . S
C719 H696 0.950 . S
C719 C718 1.334 . S
C719 C720 1.287 . S
C720 C719 1.287 . S
C720 C721 1.524 . S
C720 H739 0.913 . S
C721 H697 0.950 . S
C721 C720 1.524 . S
C721 C722 1.415 . S
C722 H698 0.950 . S
C722 C717 1.363 . S
C722 C721 1.415 . S
C723 H699 0.951 . S
C723 C724 1.366 . S
C723 C725 1.388 . S
C724 C723 1.366 . S
C724 C728 1.385 1_545 S
C725 H700 0.951 . S
C725 C723 1.388 . S
C725 C726 1.366 . S
C726 C725 1.366 . S
C726 C727 1.414 . S
C726 C729 1.499 . S
C727 H701 0.950 . S
C727 C726 1.414 . S
C727 C728 1.374 1_545 S
C728 H702 0.950 . S
C728 C724 1.385 1_565 S
C728 C727 1.374 1_565 S
C729 C726 1.499 . S
C729 C730 1.373 . S
C729 C731 1.389 1_554 S
C730 H703 0.950 . S
C730 C716 1.377 . S
C730 C729 1.373 . S
C731 C715 1.379 . S
C731 C729 1.389 1_556 S
C731 C732 1.524 . S
C732 C731 1.524 . S
C732 C733 1.397 . S
C732 C737 1.363 . S
C733 H704 0.950 . S
C733 C732 1.397 . S
C733 C734 1.334 . S
C734 H705 0.950 . S
C734 C733 1.334 . S
C734 C735 1.287 . S
C735 C734 1.287 . S
C735 C736 1.524 . S
C735 H738 0.999 . S
C736 H706 0.950 . S
C736 C735 1.524 . S
C736 C737 1.415 . S
C737 H707 0.950 . S
C737 C732 1.363 . S
C737 C736 1.415 . S
H738 C735 0.999 . S
H739 C720 0.913 . S
H740 C758 0.951 . S
H741 C760 0.951 . S
H742 C762 0.950 . S
H743 C763 0.950 . S
H744 C765 0.950 . S
H745 C768 0.950 . S
H746 C769 0.950 . S
H747 C771 0.950 . S
H748 C772 0.950 . S
H749 C773 0.951 . S
H750 C775 0.951 . S
H751 C777 0.950 . S
H752 C778 0.950 . S
H753 C780 0.950 . S
H754 C783 0.950 . S
H755 C784 0.950 . S
H756 C786 0.950 . S
H757 C787 0.950 . S
C758 H740 0.951 . S
C758 C759 1.366 . S
C758 C760 1.388 . S
C759 C758 1.366 . S
C759 C763 1.385 . S
C760 H741 0.951 . S
C760 C758 1.388 . S
C760 C761 1.366 . S
C761 C760 1.366 . S
C761 C762 1.414 . S
C761 C764 1.499 . S
C762 H742 0.950 . S
C762 C761 1.414 . S
C762 C763 1.374 . S
C763 H743 0.950 . S
C763 C759 1.385 . S
C763 C762 1.374 . S
C764 C761 1.499 . S
C764 C765 1.373 . S
C764 C766 1.389 . S
C765 H744 0.950 . S
C765 C764 1.373 . S
C765 C781 1.377 . S
C766 C764 1.389 . S
C766 C767 1.524 . S
C766 C780 1.377 . S
C767 C766 1.524 . S
C767 C768 1.397 . S
C767 C772 1.363 . S
C768 H745 0.950 . S
C768 C767 1.397 . S
C768 C769 1.334 . S
C769 H746 0.950 . S
C769 C768 1.334 . S
C769 C770 1.287 . S
C770 C769 1.287 . S
C770 C771 1.524 . S
C770 H789 0.913 . S
C771 H747 0.950 . S
C771 C770 1.524 . S
C771 C772 1.415 . S
C772 H748 0.950 . S
C772 C767 1.363 . S
C772 C771 1.415 . S
C773 H749 0.951 . S
C773 C774 1.366 . S
C773 C775 1.388 . S
C774 C773 1.366 . S
C774 C778 1.385 . S
C775 H750 0.951 . S
C775 C773 1.388 . S
C775 C776 1.366 . S
C776 C775 1.366 . S
C776 C777 1.414 . S
C776 C779 1.499 . S
C777 H751 0.950 . S
C777 C776 1.414 . S
C777 C778 1.374 . S
C778 H752 0.950 . S
C778 C774 1.385 . S
C778 C777 1.374 . S
C779 C776 1.499 . S
C779 C780 1.373 . S
C779 C781 1.389 . S
C780 H753 0.950 . S
C780 C766 1.377 . S
C780 C779 1.373 . S
C781 C765 1.377 . S
C781 C779 1.389 . S
C781 C782 1.524 . S
C782 C781 1.524 . S
C782 C783 1.397 . S
C782 C787 1.363 . S
C783 H754 0.950 . S
C783 C782 1.397 . S
C783 C784 1.334 . S
C784 H755 0.950 . S
C784 C783 1.334 . S
C784 C785 1.287 . S
C785 C784 1.287 . S
C785 C786 1.524 . S
C785 H788 0.999 . S
C786 H756 0.950 . S
C786 C785 1.524 . S
C786 C787 1.415 . S
C787 H757 0.950 . S
C787 C782 1.363 . S
C787 C786 1.415 . S
H788 C785 0.999 . S
H789 C770 0.913 . S
H790 C808 0.951 . S
H791 C810 0.951 . S
H792 C812 0.950 . S
H793 C813 0.950 . S
H794 C815 0.950 . S
H795 C818 0.950 . S
H796 C819 0.950 . S
H797 C821 0.950 . S
H798 C822 0.950 . S
H799 C823 0.951 . S
H800 C825 0.951 . S
H801 C827 0.950 . S
H802 C828 0.950 . S
H803 C830 0.950 . S
H804 C833 0.950 . S
H805 C834 0.950 . S
H806 C836 0.950 . S
H807 C837 0.950 . S
C808 H790 0.951 . S
C808 C809 1.366 . S
C808 C810 1.388 . S
C809 C808 1.366 . S
C809 C813 1.385 . S
C810 H791 0.951 . S
C810 C808 1.388 . S
C810 C811 1.366 . S
C811 C810 1.366 . S
C811 C812 1.414 . S
C811 C814 1.499 . S
C812 H792 0.950 . S
C812 C811 1.414 . S
C812 C813 1.374 . S
C813 H793 0.950 . S
C813 C809 1.385 . S
C813 C812 1.374 . S
C814 C811 1.499 . S
C814 C815 1.373 . S
C814 C816 1.389 . S
C815 H794 0.950 . S
C815 C814 1.373 . S
C815 C831 1.377 . S
C816 C814 1.389 . S
C816 C817 1.524 . S
C816 C830 1.377 . S
C817 C816 1.524 . S
C817 C818 1.397 . S
C817 C822 1.363 . S
C818 H795 0.950 . S
C818 C817 1.397 . S
C818 C819 1.334 . S
C819 H796 0.950 . S
C819 C818 1.334 . S
C819 C820 1.287 . S
C820 C819 1.287 . S
C820 C821 1.524 . S
C820 H839 0.913 . S
C821 H797 0.950 . S
C821 C820 1.524 . S
C821 C822 1.415 . S
C822 H798 0.950 . S
C822 C817 1.363 . S
C822 C821 1.415 . S
C823 H799 0.951 . S
C823 C824 1.366 . S
C823 C825 1.388 . S
C824 C823 1.366 . S
C824 C828 1.385 . S
C825 H800 0.951 . S
C825 C823 1.388 . S
C825 C826 1.366 . S
C826 C825 1.366 . S
C826 C827 1.414 . S
C826 C829 1.499 . S
C827 H801 0.950 . S
C827 C826 1.414 . S
C827 C828 1.374 . S
C828 H802 0.950 . S
C828 C824 1.385 . S
C828 C827 1.374 . S
C829 C826 1.499 . S
C829 C830 1.373 . S
C829 C831 1.389 . S
C830 H803 0.950 . S
C830 C816 1.377 . S
C830 C829 1.373 . S
C831 C815 1.377 . S
C831 C829 1.389 . S
C831 C832 1.524 . S
C832 C831 1.524 . S
C832 C833 1.397 . S
C832 C837 1.363 . S
C833 H804 0.950 . S
C833 C832 1.397 . S
C833 C834 1.334 . S
C834 H805 0.950 . S
C834 C833 1.334 . S
C834 C835 1.287 . S
C835 C834 1.287 . S
C835 C836 1.524 . S
C835 H838 0.999 . S
C836 H806 0.950 . S
C836 C835 1.524 . S
C836 C837 1.415 . S
C837 H807 0.950 . S
C837 C832 1.363 . S
C837 C836 1.415 . S
H838 C835 0.999 . S
H839 C820 0.913 . S
H840 C858 0.951 . S
H841 C860 0.951 . S
H842 C862 0.950 . S
H843 C863 0.950 . S
H844 C865 0.950 . S
H845 C868 0.950 . S
H846 C869 0.950 . S
H847 C871 0.950 . S
H848 C872 0.950 . S
H849 C873 0.951 . S
H850 C875 0.951 . S
H851 C877 0.950 . S
H852 C878 0.950 . S
H853 C880 0.950 . S
H854 C883 0.950 . S
H855 C884 0.950 . S
H856 C886 0.950 . S
H857 C887 0.950 . S
C858 H840 0.951 . S
C858 C859 1.366 . S
C858 C860 1.388 . S
C859 C858 1.366 . S
C859 C863 1.385 . S
C860 H841 0.951 . S
C860 C858 1.388 . S
C860 C861 1.366 . S
C861 C860 1.366 . S
C861 C862 1.414 . S
C861 C864 1.499 . S
C862 H842 0.950 . S
C862 C861 1.414 . S
C862 C863 1.374 . S
C863 H843 0.950 . S
C863 C859 1.385 . S
C863 C862 1.374 . S
C864 C861 1.499 . S
C864 C865 1.373 . S
C864 C866 1.389 . S
C865 H844 0.950 . S
C865 C864 1.373 . S
C865 C881 1.377 . S
C866 C864 1.389 . S
C866 C867 1.524 . S
C866 C880 1.377 . S
C867 C866 1.524 . S
C867 C868 1.397 . S
C867 C872 1.363 . S
C868 H845 0.950 . S
C868 C867 1.397 . S
C868 C869 1.334 . S
C869 H846 0.950 . S
C869 C868 1.334 . S
C869 C870 1.287 . S
C870 C869 1.287 . S
C870 C871 1.524 . S
C870 H889 0.913 . S
C871 H847 0.950 . S
C871 C870 1.524 . S
C871 C872 1.415 . S
C872 H848 0.950 . S
C872 C867 1.363 . S
C872 C871 1.415 . S
C873 H849 0.951 . S
C873 C874 1.366 . S
C873 C875 1.388 . S
C874 C873 1.366 . S
C874 C878 1.385 . S
C875 H850 0.951 . S
C875 C873 1.388 . S
C875 C876 1.366 . S
C876 C875 1.366 . S
C876 C877 1.414 . S
C876 C879 1.499 . S
C877 H851 0.950 . S
C877 C876 1.414 . S
C877 C878 1.374 . S
C878 H852 0.950 . S
C878 C874 1.385 . S
C878 C877 1.374 . S
C879 C876 1.499 . S
C879 C880 1.373 . S
C879 C881 1.389 . S
C880 H853 0.950 . S
C880 C866 1.377 . S
C880 C879 1.373 . S
C881 C865 1.377 . S
C881 C879 1.389 . S
C881 C882 1.524 . S
C882 C881 1.524 . S
C882 C883 1.397 . S
C882 C887 1.363 . S
C883 H854 0.950 . S
C883 C882 1.397 . S
C883 C884 1.334 . S
C884 H855 0.950 . S
C884 C883 1.334 . S
C884 C885 1.287 . S
C885 C884 1.287 . S
C885 C886 1.524 . S
C885 H888 0.999 . S
C886 H856 0.950 . S
C886 C885 1.524 . S
C886 C887 1.415 . S
C887 H857 0.950 . S
C887 C882 1.363 . S
C887 C886 1.415 . S
H888 C885 0.999 . S
H889 C870 0.913 . S
H890 C908 0.951 . S
H891 C910 0.951 . S
H892 C912 0.950 . S
H893 C913 0.950 . S
H894 C915 0.950 . S
H895 C918 0.950 . S
H896 C919 0.950 . S
H897 C921 0.950 . S
H898 C922 0.950 . S
H899 C923 0.951 . S
H900 C925 0.951 . S
H901 C927 0.950 . S
H902 C928 0.950 . S
H903 C930 0.950 . S
H904 C933 0.950 . S
H905 C934 0.950 . S
H906 C936 0.950 . S
H907 C937 0.950 . S
C908 H890 0.951 . S
C908 C909 1.366 . S
C908 C910 1.388 . S
C909 C908 1.366 . S
C909 C913 1.385 . S
C910 H891 0.951 . S
C910 C908 1.388 . S
C910 C911 1.366 . S
C911 C910 1.366 . S
C911 C912 1.414 . S
C911 C914 1.499 . S
C912 H892 0.950 . S
C912 C911 1.414 . S
C912 C913 1.374 . S
C913 H893 0.950 . S
C913 C909 1.385 . S
C913 C912 1.374 . S
C914 C911 1.499 . S
C914 C915 1.373 . S
C914 C916 1.389 . S
C915 H894 0.950 . S
C915 C914 1.373 . S
C915 C931 1.377 . S
C916 C914 1.389 . S
C916 C917 1.524 . S
C916 C930 1.377 . S
C917 C916 1.524 . S
C917 C918 1.397 . S
C917 C922 1.363 . S
C918 H895 0.950 . S
C918 C917 1.397 . S
C918 C919 1.334 . S
C919 H896 0.950 . S
C919 C918 1.334 . S
C919 C920 1.287 1_455 S
C920 C919 1.287 1_655 S
C920 C921 1.524 . S
C920 H939 0.913 . S
C921 H897 0.950 . S
C921 C920 1.524 . S
C921 C922 1.415 1_655 S
C922 H898 0.950 . S
C922 C917 1.363 . S
C922 C921 1.415 1_455 S
C923 H899 0.951 . S
C923 C924 1.366 . S
C923 C925 1.388 . S
C924 C923 1.366 . S
C924 C928 1.385 . S
C925 H900 0.951 . S
C925 C923 1.388 . S
C925 C926 1.366 . S
C926 C925 1.366 . S
C926 C927 1.414 . S
C926 C929 1.499 . S
C927 H901 0.950 . S
C927 C926 1.414 . S
C927 C928 1.374 . S
C928 H902 0.950 . S
C928 C924 1.385 . S
C928 C927 1.374 . S
C929 C926 1.499 . S
C929 C930 1.373 . S
C929 C931 1.389 . S
C930 H903 0.950 . S
C930 C916 1.377 . S
C930 C929 1.373 . S
C931 C915 1.377 . S
C931 C929 1.389 . S
C931 C932 1.524 . S
C932 C931 1.524 . S
C932 C933 1.397 . S
C932 C937 1.363 . S
C933 H904 0.950 . S
C933 C932 1.397 . S
C933 C934 1.334 . S
C934 H905 0.950 . S
C934 C933 1.334 . S
C934 C935 1.287 . S
C935 C934 1.287 . S
C935 C936 1.524 . S
C935 H938 0.999 . S
C936 H906 0.950 . S
C936 C935 1.524 . S
C936 C937 1.415 . S
C937 H907 0.950 . S
C937 C932 1.363 . S
C937 C936 1.415 . S
H938 C935 0.999 . S
H939 C920 0.913 . S
H940 C958 0.951 . S
H941 C960 0.951 . S
H942 C962 0.950 . S
H943 C963 0.950 1_455 S
H944 C965 0.950 . S
H945 C968 0.950 . S
H946 C969 0.950 . S
H947 C971 0.950 . S
H948 C972 0.950 . S
H949 C973 0.951 . S
H950 C975 0.951 . S
H951 C977 0.950 . S
H952 C978 0.950 . S
H953 C980 0.950 . S
H954 C983 0.950 . S
H955 C984 0.950 1_565 S
H956 C986 0.950 1_455 S
H957 C987 0.950 1_455 S
C958 H940 0.951 . S
C958 C959 1.366 . S
C958 C960 1.388 . S
C959 C958 1.366 . S
C959 C963 1.385 . S
C960 H941 0.951 . S
C960 C958 1.388 . S
C960 C961 1.366 . S
C961 C960 1.366 . S
C961 C962 1.414 . S
C961 C964 1.499 . S
C962 H942 0.950 . S
C962 C961 1.414 . S
C962 C963 1.374 . S
C963 H943 0.950 1_655 S
C963 C959 1.385 . S
C963 C962 1.374 . S
C964 C961 1.499 . S
C964 C965 1.373 . S
C964 C966 1.389 . S
C965 H944 0.950 . S
C965 C964 1.373 . S
C965 C981 1.377 . S
C966 C964 1.389 . S
C966 C967 1.524 . S
C966 C980 1.377 . S
C967 C966 1.524 . S
C967 C968 1.397 . S
C967 C972 1.363 . S
C968 H945 0.950 . S
C968 C967 1.397 . S
C968 C969 1.334 . S
C969 H946 0.950 . S
C969 C968 1.334 . S
C969 C970 1.287 . S
C970 C969 1.287 . S
C970 C971 1.524 . S
C970 H989 0.913 . S
C971 H947 0.950 . S
C971 C970 1.524 . S
C971 C972 1.415 . S
C972 H948 0.950 . S
C972 C967 1.363 . S
C972 C971 1.415 . S
C973 H949 0.951 . S
C973 C974 1.366 . S
C973 C975 1.388 . S
C974 C973 1.366 . S
C974 C978 1.385 . S
C975 H950 0.951 . S
C975 C973 1.388 . S
C975 C976 1.366 . S
C976 C975 1.366 . S
C976 C977 1.414 . S
C976 C979 1.499 . S
C977 H951 0.950 . S
C977 C976 1.414 . S
C977 C978 1.374 . S
C978 H952 0.950 . S
C978 C974 1.385 . S
C978 C977 1.374 . S
C979 C976 1.499 . S
C979 C980 1.373 . S
C979 C981 1.389 . S
C980 H953 0.950 . S
C980 C966 1.377 . S
C980 C979 1.373 . S
C981 C965 1.377 . S
C981 C979 1.389 . S
C981 C982 1.524 . S
C982 C981 1.524 . S
C982 C983 1.397 . S
C982 C987 1.363 . S
C983 H954 0.950 . S
C983 C982 1.397 . S
C983 C984 1.334 . S
C984 H955 0.950 1_545 S
C984 C983 1.334 . S
C984 C985 1.287 . S
C985 C984 1.287 . S
C985 C986 1.524 . S
C985 H988 0.999 1_545 S
C986 H956 0.950 1_655 S
C986 C985 1.524 . S
C986 C987 1.415 . S
C987 H957 0.950 1_655 S
C987 C982 1.363 . S
C987 C986 1.415 . S
H988 C985 0.999 1_565 S
H989 C970 0.913 . S
H990 C1008 0.951 . S
H991 C1010 0.951 . S
H992 C1012 0.950 . S
H993 C1013 0.950 . S
H994 C1015 0.950 . S
H995 C1018 0.947 1_545 S
H996 C1019 0.950 1_545 S
H997 C1021 0.950 . S
H998 C1022 0.950 . S
H999 C1023 0.951 . S
H1000 C1025 0.951 . S
H1001 C1027 0.950 . S
H1002 C1028 0.950 . S
H1003 C1030 0.950 . S
H1004 C1033 0.950 . S
H1005 C1034 0.950 . S
H1006 C1036 0.950 . S
H1007 C1037 0.950 1_455 S
C1008 H990 0.951 . S
C1008 C1009 1.366 . S
C1008 C1010 1.388 . S
C1009 C1008 1.366 . S
C1009 C1013 1.385 . S
C1010 H991 0.951 . S
C1010 C1008 1.388 . S
C1010 C1011 1.366 . S
C1011 C1010 1.366 . S
C1011 C1012 1.414 . S
C1011 C1014 1.499 . S
C1012 H992 0.950 . S
C1012 C1011 1.414 . S
C1012 C1013 1.374 . S
C1013 H993 0.950 . S
C1013 C1009 1.385 . S
C1013 C1012 1.374 . S
C1014 C1011 1.499 . S
C1014 C1015 1.373 . S
C1014 C1016 1.389 . S
C1015 H994 0.950 . S
C1015 C1014 1.373 . S
C1015 C1031 1.377 . S
C1016 C1014 1.389 . S
C1016 C1017 1.524 . S
C1016 C1030 1.377 . S
C1017 C1016 1.524 . S
C1017 C1018 1.397 . S
C1017 C1022 1.363 . S
C1018 H995 0.947 1_565 S
C1018 C1017 1.397 . S
C1018 C1019 1.334 . S
C1019 H996 0.950 1_565 S
C1019 C1018 1.334 . S
C1019 C1020 1.287 . S
C1020 C1019 1.287 . S
C1020 C1021 1.524 . S
C1020 H1039 0.913 . S
C1021 H997 0.950 . S
C1021 C1020 1.524 . S
C1021 C1022 1.415 . S
C1022 H998 0.950 . S
C1022 C1017 1.363 . S
C1022 C1021 1.415 . S
C1023 H999 0.951 . S
C1023 C1024 1.366 . S
C1023 C1025 1.388 . S
C1024 C1023 1.366 . S
C1024 C1028 1.385 . S
C1025 H1000 0.951 . S
C1025 C1023 1.388 . S
C1025 C1026 1.366 . S
C1026 C1025 1.366 . S
C1026 C1027 1.414 . S
C1026 C1029 1.499 . S
C1027 H1001 0.950 . S
C1027 C1026 1.414 . S
C1027 C1028 1.374 . S
C1028 H1002 0.950 . S
C1028 C1024 1.385 . S
C1028 C1027 1.374 . S
C1029 C1026 1.499 . S
C1029 C1030 1.373 . S
C1029 C1031 1.389 . S
C1030 H1003 0.950 . S
C1030 C1016 1.377 . S
C1030 C1029 1.373 . S
C1031 C1015 1.377 . S
C1031 C1029 1.389 . S
C1031 C1032 1.524 . S
C1032 C1031 1.524 . S
C1032 C1033 1.397 . S
C1032 C1037 1.363 . S
C1033 H1004 0.950 . S
C1033 C1032 1.397 . S
C1033 C1034 1.334 . S
C1034 H1005 0.950 . S
C1034 C1033 1.334 . S
C1034 C1035 1.287 1_655 S
C1035 C1034 1.287 1_455 S
C1035 C1036 1.524 . S
C1035 H1038 0.999 . S
C1036 H1006 0.950 . S
C1036 C1035 1.524 . S
C1036 C1037 1.415 1_455 S
C1037 H1007 0.950 1_655 S
C1037 C1032 1.363 . S
C1037 C1036 1.415 1_655 S
H1038 C1035 0.999 . S
H1039 C1020 0.913 . S
H1040 C1058 0.951 . S
H1041 C1060 0.951 . S
H1042 C1062 0.950 . S
H1043 C1063 0.950 1_655 S
H1044 C1065 0.950 . S
H1045 C1068 0.950 1_655 S
H1046 C1069 0.950 . S
H1047 C1071 0.950 . S
H1048 C1072 0.950 . S
H1049 C1073 0.951 . S
H1050 C1075 0.951 . S
H1051 C1077 0.950 . S
H1052 C1078 0.950 . S
H1053 C1080 0.950 . S
H1054 C1083 0.950 1_565 S
H1055 C1084 0.950 . S
H1056 C1086 0.950 . S
H1057 C1087 0.950 1_565 S
C1058 H1040 0.951 . S
C1058 C1059 1.366 . S
C1058 C1060 1.388 . S
C1059 C1058 1.366 . S
C1059 C1063 1.385 . S
C1060 H1041 0.951 . S
C1060 C1058 1.388 . S
C1060 C1061 1.366 . S
C1061 C1060 1.366 . S
C1061 C1062 1.414 . S
C1061 C1064 1.499 . S
C1062 H1042 0.950 . S
C1062 C1061 1.414 . S
C1062 C1063 1.374 . S
C1063 H1043 0.950 1_455 S
C1063 C1059 1.385 . S
C1063 C1062 1.374 . S
C1064 C1061 1.499 . S
C1064 C1065 1.373 . S
C1064 C1066 1.389 . S
C1065 H1044 0.950 . S
C1065 C1064 1.373 . S
C1065 C1081 1.377 . S
C1066 C1064 1.389 . S
C1066 C1067 1.524 . S
C1066 C1080 1.377 . S
C1067 C1066 1.524 . S
C1067 C1068 1.397 . S
C1067 C1072 1.363 . S
C1068 H1045 0.950 1_455 S
C1068 C1067 1.397 . S
C1068 C1069 1.334 1_455 S
C1069 H1046 0.950 . S
C1069 C1068 1.334 1_655 S
C1069 C1070 1.287 1_655 S
C1070 C1069 1.287 1_455 S
C1070 C1071 1.524 . S
C1070 H1089 0.913 1_455 S
C1071 H1047 0.950 . S
C1071 C1070 1.524 . S
C1071 C1072 1.415 . S
C1072 H1048 0.950 . S
C1072 C1067 1.363 . S
C1072 C1071 1.415 . S
C1073 H1049 0.951 . S
C1073 C1074 1.366 . S
C1073 C1075 1.388 . S
C1074 C1073 1.366 . S
C1074 C1078 1.385 . S
C1075 H1050 0.951 . S
C1075 C1073 1.388 . S
C1075 C1076 1.366 . S
C1076 C1075 1.366 . S
C1076 C1077 1.414 . S
C1076 C1079 1.499 . S
C1077 H1051 0.950 . S
C1077 C1076 1.414 . S
C1077 C1078 1.374 . S
C1078 H1052 0.950 . S
C1078 C1074 1.385 . S
C1078 C1077 1.374 . S
C1079 C1076 1.499 . S
C1079 C1080 1.373 . S
C1079 C1081 1.389 . S
C1080 H1053 0.950 . S
C1080 C1066 1.377 . S
C1080 C1079 1.373 . S
C1081 C1065 1.377 . S
C1081 C1079 1.389 . S
C1081 C1082 1.524 . S
C1082 C1081 1.524 . S
C1082 C1083 1.397 1_565 S
C1082 C1087 1.363 1_565 S
C1083 H1054 0.950 1_545 S
C1083 C1082 1.397 1_545 S
C1083 C1084 1.334 . S
C1084 H1055 0.950 . S
C1084 C1083 1.334 . S
C1084 C1085 1.287 . S
C1085 C1084 1.287 . S
C1085 C1086 1.524 . S
C1085 H1088 0.999 . S
C1086 H1056 0.950 . S
C1086 C1085 1.524 . S
C1086 C1087 1.415 . S
C1087 H1057 0.950 1_545 S
C1087 C1082 1.363 1_545 S
C1087 C1086 1.415 . S
H1088 C1085 0.999 . S
H1089 C1070 0.913 1_655 S
H1090 C1108 0.951 . S
H1091 C1110 0.951 . S
H1092 C1112 0.950 . S
H1093 C1113 0.950 . S
H1094 C1115 0.950 . S
H1095 C1118 0.950 . S
H1096 C1119 0.950 . S
H1097 C1121 0.950 . S
H1098 C1122 0.950 . S
H1099 C1123 0.951 . S
H1100 C1125 0.951 . S
H1101 C1127 0.950 . S
H1102 C1128 0.950 . S
H1103 C1130 0.950 . S
H1104 C1133 0.950 . S
H1105 C1134 0.950 . S
H1106 C1136 0.950 . S
H1107 C1137 0.950 . S
C1108 H1090 0.951 . S
C1108 C1109 1.366 . S
C1108 C1110 1.388 . S
C1109 C1108 1.366 . S
C1109 C1113 1.385 . S
C1110 H1091 0.951 . S
C1110 C1108 1.388 . S
C1110 C1111 1.366 . S
C1111 C1110 1.366 . S
C1111 C1112 1.414 . S
C1111 C1114 1.499 . S
C1112 H1092 0.950 . S
C1112 C1111 1.414 . S
C1112 C1113 1.374 . S
C1113 H1093 0.950 . S
C1113 C1109 1.385 . S
C1113 C1112 1.374 . S
C1114 C1111 1.499 . S
C1114 C1115 1.373 . S
C1114 C1116 1.389 . S
C1115 H1094 0.950 . S
C1115 C1114 1.373 . S
C1115 C1131 1.377 . S
C1116 C1114 1.389 . S
C1116 C1117 1.524 . S
C1116 C1130 1.377 . S
C1117 C1116 1.524 . S
C1117 C1118 1.397 1_545 S
C1117 C1122 1.363 . S
C1118 H1095 0.950 . S
C1118 C1117 1.397 1_565 S
C1118 C1119 1.334 . S
C1119 H1096 0.950 . S
C1119 C1118 1.334 . S
C1119 C1120 1.287 . S
C1120 C1119 1.287 . S
C1120 C1121 1.524 . S
C1120 H1139 0.913 . S
C1121 H1097 0.950 . S
C1121 C1120 1.524 . S
C1121 C1122 1.415 1_565 S
C1122 H1098 0.950 . S
C1122 C1117 1.363 . S
C1122 C1121 1.415 1_545 S
C1123 H1099 0.951 . S
C1123 C1124 1.366 . S
C1123 C1125 1.388 . S
C1124 C1123 1.366 . S
C1124 C1128 1.385 . S
C1125 H1100 0.951 . S
C1125 C1123 1.388 . S
C1125 C1126 1.366 . S
C1126 C1125 1.366 . S
C1126 C1127 1.414 . S
C1126 C1129 1.499 . S
C1127 H1101 0.950 . S
C1127 C1126 1.414 . S
C1127 C1128 1.374 . S
C1128 H1102 0.950 . S
C1128 C1124 1.385 . S
C1128 C1127 1.374 . S
C1129 C1126 1.499 . S
C1129 C1130 1.373 . S
C1129 C1131 1.389 . S
C1130 H1103 0.950 . S
C1130 C1116 1.377 . S
C1130 C1129 1.373 . S
C1131 C1115 1.377 . S
C1131 C1129 1.389 . S
C1131 C1132 1.524 . S
C1132 C1131 1.524 . S
C1132 C1133 1.397 . S
C1132 C1137 1.363 . S
C1133 H1104 0.950 . S
C1133 C1132 1.397 . S
C1133 C1134 1.334 . S
C1134 H1105 0.950 . S
C1134 C1133 1.334 . S
C1134 C1135 1.287 . S
C1135 C1134 1.287 . S
C1135 C1136 1.524 . S
C1135 H1138 0.999 . S
C1136 H1106 0.950 . S
C1136 C1135 1.524 . S
C1136 C1137 1.415 . S
C1137 H1107 0.950 . S
C1137 C1132 1.363 . S
C1137 C1136 1.415 . S
H1138 C1135 0.999 . S
H1139 C1120 0.913 . S
C259 C122 0.964 1_565 S
C274 C2 0.963 . S
C309 C162 0.964 . S
C324 C42 0.963 . S
C359 C202 0.962 . S
C374 C82 0.961 1_655 S
C409 C26 0.603 . S
C424 C89 0.612 . S
C459 C66 0.603 . S
C474 C129 0.612 . S
C509 C106 0.602 . S
C524 C169 0.610 . S
C559 C146 0.600 . S
C574 C209 0.612 . S
C609 C186 0.601 . S
C624 C9 0.613 . S
C659 C226 0.603 . S
C674 C49 0.613 . S
C709 C15 1.451 . S
C724 C135 1.452 1_545 S
C759 C55 1.453 . S
C774 C175 1.453 . S
C809 C95 1.452 1_455 S
C824 C215 1.452 . S
C859 C22 3.890 . S
C874 C43 3.913 . S
C909 C62 3.890 . S
C924 C83 3.912 . S
C959 C102 3.890 . S
C974 C123 3.912 . S
C1009 C142 3.890 . S
C1024 C163 3.912 . S
C1059 C182 3.890 1_455 S
C1074 C203 3.913 . S
C1109 C222 3.896 . S
C1124 C3 3.913 . S
