# Generated by pormake.
# Topology wka, (5)-cn, num edge types: 1
# Building blocks:
#     Node 0, Type 0, BuildingBlock: XOMCOT_clean_sbu_0, # of connection points: 5
#     Node 1, Type 0, BuildingBlock: XOMCOT_clean_sbu_0, # of connection points: 5
#     Node 2, Type 0, BuildingBlock: XOMCOT_clean_sbu_0, # of connection points: 5
#     Node 3, Type 0, BuildingBlock: XOMCOT_clean_sbu_0, # of connection points: 5
#     Node 4, Type 0, BuildingBlock: XOMCOT_clean_sbu_0, # of connection points: 5
#     Node 5, Type 0, BuildingBlock: XOMCOT_clean_sbu_0, # of connection points: 5
#     Node 6, Type 0, BuildingBlock: XOMCOT_clean_sbu_0, # of connection points: 5
#     Node 7, Type 0, BuildingBlock: XOMCOT_clean_sbu_0, # of connection points: 5
#     Node 8, Type 0, BuildingBlock: XOMCOT_clean_sbu_0, # of connection points: 5
#     Node 9, Type 0, BuildingBlock: XOMCOT_clean_sbu_0, # of connection points: 5
#     Node 10, Type 0, BuildingBlock: XOMCOT_clean_sbu_0, # of connection points: 5
#     Node 11, Type 0, BuildingBlock: XOMCOT_clean_sbu_0, # of connection points: 5
#     Edge 12, Type (0, 0), BuildingBlock: XIVTED_clean_linker_0, # of connection points: 2
#     Edge 13, Type (0, 0), BuildingBlock: XIVTED_clean_linker_0, # of connection points: 2
#     Edge 14, Type (0, 0), BuildingBlock: XIVTED_clean_linker_0, # of connection points: 2
#     Edge 15, Type (0, 0), BuildingBlock: XIVTED_clean_linker_0, # of connection points: 2
#     Edge 16, Type (0, 0), BuildingBlock: XIVTED_clean_linker_0, # of connection points: 2
#     Edge 17, Type (0, 0), BuildingBlock: XIVTED_clean_linker_0, # of connection points: 2
#     Edge 18, Type (0, 0), BuildingBlock: XIVTED_clean_linker_0, # of connection points: 2
#     Edge 19, Type (0, 0), BuildingBlock: XIVTED_clean_linker_0, # of connection points: 2
#     Edge 20, Type (0, 0), BuildingBlock: XIVTED_clean_linker_0, # of connection points: 2
#     Edge 21, Type (0, 0), BuildingBlock: XIVTED_clean_linker_0, # of connection points: 2
#     Edge 22, Type (0, 0), BuildingBlock: XIVTED_clean_linker_0, # of connection points: 2
#     Edge 23, Type (0, 0), BuildingBlock: XIVTED_clean_linker_0, # of connection points: 2
#     Edge 24, Type (0, 0), BuildingBlock: XIVTED_clean_linker_0, # of connection points: 2
#     Edge 25, Type (0, 0), BuildingBlock: XIVTED_clean_linker_0, # of connection points: 2
#     Edge 26, Type (0, 0), BuildingBlock: XIVTED_clean_linker_0, # of connection points: 2
#     Edge 27, Type (0, 0), BuildingBlock: XIVTED_clean_linker_0, # of connection points: 2
#     Edge 28, Type (0, 0), BuildingBlock: XIVTED_clean_linker_0, # of connection points: 2
#     Edge 29, Type (0, 0), BuildingBlock: XIVTED_clean_linker_0, # of connection points: 2
#     Edge 30, Type (0, 0), BuildingBlock: XIVTED_clean_linker_0, # of connection points: 2
#     Edge 31, Type (0, 0), BuildingBlock: XIVTED_clean_linker_0, # of connection points: 2
#     Edge 32, Type (0, 0), BuildingBlock: XIVTED_clean_linker_0, # of connection points: 2
#     Edge 33, Type (0, 0), BuildingBlock: XIVTED_clean_linker_0, # of connection points: 2
#     Edge 34, Type (0, 0), BuildingBlock: XIVTED_clean_linker_0, # of connection points: 2
#     Edge 35, Type (0, 0), BuildingBlock: XIVTED_clean_linker_0, # of connection points: 2
#     Edge 36, Type (0, 0), BuildingBlock: XIVTED_clean_linker_0, # of connection points: 2
#     Edge 37, Type (0, 0), BuildingBlock: XIVTED_clean_linker_0, # of connection points: 2
#     Edge 38, Type (0, 0), BuildingBlock: XIVTED_clean_linker_0, # of connection points: 2
#     Edge 39, Type (0, 0), BuildingBlock: XIVTED_clean_linker_0, # of connection points: 2
#     Edge 40, Type (0, 0), BuildingBlock: XIVTED_clean_linker_0, # of connection points: 2
#     Edge 41, Type (0, 0), BuildingBlock: XIVTED_clean_linker_0, # of connection points: 2
# Relax obj value: 0.222
# Max RMSD: 0.185
# Mean RMSD: 0.185
data_MOF--net-wka--node1-XOMCOT_clean_sbu_0--edge1-XIVTED_clean_linker_0
_symmetry_space_group_name_H-M    P1
_symmetry_Int_Tables_number       1
_symmetry_cell_setting            triclinic
loop_
_symmetry_equiv_pos_as_xyz
'x, y, z'
_cell_length_a     67.348488
_cell_length_b     67.345082
_cell_length_c     17.375619
_cell_angle_alpha  89.984787
_cell_angle_beta   89.901035
_cell_angle_gamma 119.96501
loop_
_atom_site_label
_atom_site_type_symbol
_atom_site_fract_x
_atom_site_fract_y
_atom_site_fract_z
_atom_type_partial_charge
Co0 Co 0.10051 0.40697 0.11418 0.0
C1 C 0.09119 0.40358 0.28159 0.0
C2 C 0.07032 0.37156 0.22508 0.0
C3 C 0.06734 0.36808 0.3034 0.0
N4 N 0.08491 0.394 0.21113 0.0
N5 N 0.08057 0.38829 0.33876 0.0
H6 H 0.10509 0.4207 0.29175 0.0
H7 H 0.0635 0.3583 0.1817 0.0
C8 C 0.05131 0.37906 0.06474 0.0
O9 O 0.04499 0.38605 0.1258 0.0
N10 N 0.11635 0.41945 0.01835 0.0
C11 C 0.1318 0.44152 0.00355 0.0
C12 C 0.13562 0.44406 0.9253 0.0
C13 C 0.11138 0.40878 0.94974 0.0
N14 N 0.12256 0.42346 0.89149 0.0
C15 C 0.10037 0.44729 0.16882 0.0
C16 C 0.07506 0.45041 0.04935 0.0
C17 C 0.08339 0.4674 0.10633 0.0
C18 C 0.09623 0.46563 0.16661 0.0
C19 C 0.07972 0.43242 0.05357 0.0
N20 N 0.09153 0.43046 0.11433 0.0
H21 H 0.11187 0.44752 0.21199 0.0
H22 H 0.07463 0.4207 0.00574 0.0
H23 H 0.13873 0.45505 0.04606 0.0
H24 H 0.09877 0.39091 0.94217 0.0
O25 O 0.12914 0.42346 0.16815 0.0
O26 O 0.11473 0.38817 0.12238 0.0
O27 O 0.07237 0.38518 0.05406 0.0
C28 C 0.13111 0.40534 0.15945 0.0
H29 H 0.05714 0.35175 0.33192 0.0
H30 H 0.14645 0.46002 0.89553 0.0
H31 H 0.06539 0.45117 0.00086 0.0
H32 H 0.104 0.47888 0.20995 0.0
Co33 Co 0.69247 0.10643 0.26268 0.0
C34 C 0.68901 0.09891 0.43034 0.0
C35 C 0.70009 0.07802 0.37326 0.0
C36 C 0.7024 0.07642 0.45136 0.0
N37 N 0.69123 0.09179 0.36 0.0
N38 N 0.69565 0.08983 0.48691 0.0
H39 H 0.68462 0.11201 0.44014 0.0
H40 H 0.70636 0.07119 0.3292 0.0
C41 C 0.67183 0.05682 0.21805 0.0
O42 O 0.65904 0.05061 0.28036 0.0
N43 N 0.69466 0.1212 0.16605 0.0
C44 C 0.6865 0.1352 0.14763 0.0
C45 C 0.68931 0.13933 0.06954 0.0
C46 C 0.7027 0.1174 0.10026 0.0
N47 N 0.69934 0.12794 0.03979 0.0
C48 C 0.65294 0.1071 0.32074 0.0
C49 C 0.62276 0.08025 0.20725 0.0
C50 C 0.61543 0.09034 0.26251 0.0
C51 C 0.63077 0.10369 0.32021 0.0
C52 C 0.64524 0.08425 0.20959 0.0
N53 N 0.65996 0.09711 0.26705 0.0
H54 H 0.66481 0.11914 0.36147 0.0
H55 H 0.65107 0.07814 0.16217 0.0
H56 H 0.67812 0.14103 0.18735 0.0
H57 H 0.71024 0.10654 0.09684 0.0
O58 O 0.7048 0.13557 0.31356 0.0
O59 O 0.72558 0.12112 0.26685 0.0
O60 O 0.68599 0.07794 0.20472 0.0
C61 C 0.72488 0.13774 0.30276 0.0
H62 H 0.71025 0.06768 0.47919 0.0
H63 H 0.68319 0.14887 0.03685 0.0
H64 H 0.61169 0.07052 0.16001 0.0
H65 H 0.62594 0.11218 0.36314 0.0
Co66 Co 0.59697 0.69621 0.41926 0.0
C67 C 0.60164 0.69511 0.5878 0.0
C68 C 0.63195 0.70052 0.52987 0.0
C69 C 0.63633 0.70317 0.60758 0.0
N70 N 0.60988 0.69468 0.51741 0.0
N71 N 0.61725 0.69995 0.64356 0.0
H72 H 0.58527 0.69387 0.598 0.0
H73 H 0.64463 0.70442 0.48547 0.0
C74 C 0.62151 0.67136 0.37848 0.0
O75 O 0.61188 0.65866 0.43976 0.0
N76 N 0.58511 0.69901 0.32217 0.0
C77 C 0.56347 0.69338 0.30434 0.0
C78 C 0.5624 0.69616 0.22607 0.0
C79 C 0.59694 0.70548 0.256 0.0
N80 N 0.58346 0.70356 0.19608 0.0
C81 C 0.55795 0.65624 0.48281 0.0
C82 C 0.54995 0.6281 0.35709 0.0
C83 C 0.53435 0.62002 0.41853 0.0
C84 C 0.53891 0.63427 0.48269 0.0
C85 C 0.56903 0.65017 0.36004 0.0
N86 N 0.57301 0.66398 0.42274 0.0
H87 H 0.55964 0.66734 0.52953 0.0
H88 H 0.58 0.65653 0.30999 0.0
H89 H 0.54934 0.68679 0.34471 0.0
H90 H 0.61497 0.71094 0.25163 0.0
O91 O 0.58049 0.70906 0.46866 0.0
O92 O 0.61606 0.72932 0.4241 0.0
O93 O 0.61827 0.68809 0.36311 0.0
C94 C 0.59867 0.72897 0.4587 0.0
H95 H 0.65272 0.70872 0.63481 0.0
H96 H 0.54711 0.69188 0.19337 0.0
H97 H 0.54687 0.618 0.30541 0.0
H98 H 0.52739 0.62884 0.53162 0.0
Co99 Co 0.89811 0.59567 0.62343 0.0
C100 C 0.90727 0.59815 0.7881 0.0
C101 C 0.93246 0.62889 0.73185 0.0
C102 C 0.93578 0.63165 0.81054 0.0
N103 N 0.91455 0.60786 0.71835 0.0
N104 N 0.91983 0.61227 0.84569 0.0
H105 H 0.89205 0.58162 0.79649 0.0
H106 H 0.94167 0.64168 0.68806 0.0
C107 C 0.93181 0.59973 0.50683 0.0
O108 O 0.91767 0.57778 0.4951 0.0
N109 N 0.88121 0.58404 0.52716 0.0
C110 C 0.86285 0.56357 0.50967 0.0
C111 C 0.8592 0.56261 0.43138 0.0
C112 C 0.88735 0.59567 0.45978 0.0
N113 N 0.87496 0.58269 0.39979 0.0
C114 C 0.87998 0.54785 0.65803 0.0
C115 C 0.92147 0.5488 0.65825 0.0
C116 C 0.90117 0.52756 0.66271 0.0
C117 C 0.88029 0.5274 0.66642 0.0
C118 C 0.9203 0.56886 0.65075 0.0
N119 N 0.89963 0.5679 0.64288 0.0
H120 H 0.86388 0.54749 0.66395 0.0
H121 H 0.93609 0.5851 0.64834 0.0
H122 H 0.85278 0.54993 0.54938 0.0
H123 H 0.90187 0.6128 0.45414 0.0
O124 O 0.87006 0.58722 0.67742 0.0
O125 O 0.89148 0.62056 0.61822 0.0
O126 O 0.92778 0.61007 0.56147 0.0
C127 C 0.87338 0.60735 0.65919 0.0
H128 H 0.94847 0.64699 0.83953 0.0
H129 H 0.84631 0.54794 0.40009 0.0
H130 H 0.93809 0.54997 0.65772 0.0
H131 H 0.86426 0.5116 0.67518 0.0
Co132 Co 0.30679 0.88986 0.76262 0.0
C133 C 0.31129 0.89791 0.92742 0.0
C134 C 0.30291 0.92124 0.87198 0.0
C135 C 0.30179 0.92337 0.95077 0.0
N136 N 0.30881 0.90521 0.85801 0.0
N137 N 0.30678 0.90841 0.98527 0.0
H138 H 0.31507 0.8842 0.93501 0.0
H139 H 0.29821 0.92958 0.82831 0.0
C140 C 0.33276 0.92547 0.64684 0.0
O141 O 0.34284 0.91339 0.6334 0.0
N142 N 0.30363 0.87401 0.66585 0.0
C143 C 0.31008 0.8588 0.64427 0.0
C144 C 0.30654 0.85505 0.56624 0.0
C145 C 0.29515 0.8782 0.60149 0.0
N146 N 0.29754 0.86763 0.53926 0.0
C147 C 0.34146 0.87813 0.79632 0.0
C148 C 0.37814 0.92238 0.79936 0.0
C149 C 0.38223 0.90403 0.80719 0.0
C150 C 0.36347 0.8817 0.80829 0.0
C151 C 0.35574 0.91798 0.78882 0.0
N152 N 0.33798 0.89601 0.78051 0.0
H153 H 0.3272 0.86088 0.80025 0.0
H154 H 0.35276 0.9323 0.78607 0.0
H155 H 0.31751 0.85132 0.68056 0.0
H156 H 0.28861 0.88995 0.59976 0.0
O157 O 0.29082 0.86092 0.81448 0.0
O158 O 0.27386 0.87837 0.76052 0.0
O159 O 0.31811 0.91952 0.70188 0.0
C160 C 0.27197 0.86081 0.79867 0.0
H161 H 0.29613 0.93386 0.98003 0.0
H162 H 0.31159 0.84497 0.53149 0.0
H163 H 0.39211 0.93993 0.80175 0.0
H164 H 0.3658 0.86705 0.8167 0.0
Co165 Co 0.41066 0.30507 0.9305 0.0
C166 C 0.40868 0.31234 0.09772 0.0
C167 C 0.37671 0.30245 0.04279 0.0
C168 C 0.37365 0.30247 0.12114 0.0
N169 N 0.39888 0.30923 0.02774 0.0
N170 N 0.39383 0.30865 0.15548 0.0
H171 H 0.42544 0.3145 0.10733 0.0
H172 H 0.36324 0.29626 0.00023 0.0
C173 C 0.3846 0.32833 0.88327 0.0
O174 O 0.39314 0.34198 0.94294 0.0
N175 N 0.42183 0.30008 0.83452 0.0
C176 C 0.44325 0.30443 0.81941 0.0
C177 C 0.44534 0.30258 0.74121 0.0
C178 C 0.41107 0.29526 0.76615 0.0
N179 N 0.4251 0.29697 0.70791 0.0
C180 C 0.45237 0.34478 0.97988 0.0
C181 C 0.45752 0.37152 0.85251 0.0
C182 C 0.47514 0.37969 0.90712 0.0
C183 C 0.47213 0.36615 0.97221 0.0
C184 C 0.43793 0.35009 0.86277 0.0
N185 N 0.43529 0.33702 0.92647 0.0
H186 H 0.45175 0.33396 0.02624 0.0
H187 H 0.42564 0.34348 0.81654 0.0
H188 H 0.45677 0.30988 0.86163 0.0
H189 H 0.3938 0.29211 0.75847 0.0
O190 O 0.42651 0.29223 0.98459 0.0
O191 O 0.39072 0.27229 0.94255 0.0
O192 O 0.38941 0.31249 0.87133 0.0
C193 C 0.4078 0.27254 0.97859 0.0
H194 H 0.35757 0.29713 0.15045 0.0
H195 H 0.46081 0.30603 0.71103 0.0
H196 H 0.45936 0.38095 0.79997 0.0
H197 H 0.48529 0.37161 0.01582 0.0
Co198 Co 0.5926 0.89139 0.75268 0.0
C199 C 0.59506 0.89907 0.58509 0.0
C200 C 0.62623 0.92314 0.64037 0.0
C201 C 0.6297 0.92535 0.56206 0.0
N202 N 0.60425 0.90705 0.65507 0.0
N203 N 0.6101 0.90997 0.52766 0.0
H204 H 0.57848 0.88416 0.57604 0.0
H205 H 0.63951 0.93128 0.68323 0.0
C206 C 0.61816 0.94042 0.79988 0.0
O207 O 0.60815 0.94472 0.74252 0.0
N208 N 0.58171 0.87544 0.84889 0.0
C209 C 0.56018 0.85905 0.86662 0.0
C210 C 0.55904 0.85506 0.94479 0.0
C211 C 0.59342 0.88084 0.91527 0.0
N212 N 0.57992 0.86902 0.97513 0.0
C213 C 0.55277 0.89327 0.70115 0.0
C214 C 0.54788 0.91347 0.83289 0.0
C215 C 0.53186 0.9076 0.77366 0.0
C216 C 0.53451 0.89748 0.70698 0.0
C217 C 0.56602 0.90921 0.82433 0.0
N218 N 0.56868 0.89969 0.75828 0.0
H219 H 0.55331 0.88385 0.65224 0.0
H220 H 0.57758 0.913 0.87218 0.0
H221 H 0.54605 0.85163 0.82648 0.0
H222 H 0.61125 0.89389 0.92013 0.0
O223 O 0.57585 0.86264 0.69963 0.0
O224 O 0.61186 0.87787 0.73926 0.0
O225 O 0.61455 0.92009 0.81047 0.0
C226 C 0.59438 0.86122 0.70416 0.0
H227 H 0.64589 0.93594 0.53312 0.0
H228 H 0.54369 0.844 0.97734 0.0
H229 H 0.54625 0.92101 0.88589 0.0
H230 H 0.52199 0.89188 0.66111 0.0
Co231 Co 0.69632 0.59326 0.85348 0.0
C232 C 0.69027 0.59596 0.68831 0.0
C233 C 0.69431 0.62606 0.74501 0.0
C234 C 0.69394 0.62899 0.66636 0.0
N235 N 0.69204 0.60533 0.75822 0.0
N236 N 0.6915 0.61003 0.63088 0.0
H237 H 0.68965 0.57974 0.67982 0.0
H238 H 0.69716 0.63855 0.78904 0.0
C239 C 0.66628 0.59743 0.96849 0.0
O240 O 0.65862 0.57554 0.98152 0.0
N241 N 0.70164 0.58178 0.9501 0.0
C242 C 0.70104 0.56189 0.9664 0.0
C243 C 0.70384 0.56076 0.04453 0.0
C244 C 0.70646 0.59303 0.01804 0.0
N245 N 0.70682 0.58023 0.07722 0.0
C246 C 0.66657 0.54518 0.82211 0.0
C247 C 0.62612 0.54629 0.8212 0.0
C248 C 0.62507 0.52495 0.81998 0.0
C249 C 0.64576 0.52469 0.81632 0.0
C250 C 0.64739 0.56636 0.82607 0.0
N251 N 0.66708 0.56541 0.83468 0.0
H252 H 0.68225 0.54472 0.81626 0.0
H253 H 0.6479 0.58265 0.82652 0.0
H254 H 0.69872 0.54887 0.92572 0.0
H255 H 0.70823 0.60981 0.02462 0.0
O256 O 0.71605 0.58486 0.80002 0.0
O257 O 0.72774 0.61825 0.85839 0.0
O258 O 0.68092 0.60767 0.91445 0.0
C259 C 0.73276 0.60507 0.81783 0.0
H260 H 0.69602 0.64418 0.63769 0.0
H261 H 0.70325 0.54645 0.07491 0.0
H262 H 0.61072 0.54756 0.82154 0.0
H263 H 0.64591 0.50877 0.80973 0.0
Co264 Co 0.09944 0.69304 0.05149 0.0
C265 C 0.09039 0.68685 0.88407 0.0
C266 C 0.07 0.6988 0.93983 0.0
C267 C 0.06695 0.69902 0.86159 0.0
N268 N 0.0843 0.69062 0.95417 0.0
N269 N 0.07985 0.69151 0.8268 0.0
H270 H 0.10408 0.6833 0.87404 0.0
H271 H 0.06338 0.70557 0.98291 0.0
C272 C 0.05013 0.67093 0.09498 0.0
O273 O 0.04579 0.65785 0.03401 0.0
N274 N 0.11481 0.6963 0.1477 0.0
C275 C 0.13095 0.6906 0.16262 0.0
C276 C 0.13481 0.69221 0.2408 0.0
C277 C 0.10936 0.70166 0.21603 0.0
N278 N 0.1211 0.69905 0.27413 0.0
C279 C 0.09959 0.65263 -0.00219 0.0
C280 C 0.07428 0.62428 0.11773 0.0
C281 C 0.08272 0.61562 0.06095 0.0
C282 C 0.09559 0.63021 0.0005 0.0
C283 C 0.0788 0.64687 0.11299 0.0
N284 N 0.09057 0.66059 0.05187 0.0
H285 H 0.11119 0.66389 0.95469 0.0
H286 H 0.07355 0.65352 0.1605 0.0
H287 H 0.13846 0.68455 0.12021 0.0
H288 H 0.09605 0.706 0.22366 0.0
O289 O 0.12825 0.70501 -0.00123 0.0
O290 O 0.11392 0.72615 0.04283 0.0
O291 O 0.07072 0.68646 0.10953 0.0
C292 C 0.13041 0.72517 0.00682 0.0
H293 H 0.05693 0.70527 0.83264 0.0
H294 H 0.14619 0.68788 0.27091 0.0
H295 H 0.0646 0.61387 0.16638 0.0
H296 H 0.10349 0.62476 0.95741 0.0
Co297 Co 0.4027 0.10043 0.23308 0.0
C298 C 0.39782 0.09529 0.0647 0.0
C299 C 0.36623 0.07356 0.12283 0.0
C300 C 0.36188 0.07259 0.04525 0.0
N301 N 0.38893 0.08734 0.13492 0.0
N302 N 0.38179 0.0865 0.00928 0.0
H303 H 0.41518 0.10861 0.05428 0.0
H304 H 0.35342 0.06607 0.16767 0.0
C305 C 0.37554 0.05036 0.26514 0.0
O306 O 0.38367 0.04731 0.20013 0.0
N307 N 0.41543 0.11368 0.33065 0.0
C308 C 0.43746 0.12806 0.34953 0.0
C309 C 0.43852 0.13165 0.42795 0.0
C310 C 0.40342 0.10904 0.39613 0.0
N311 N 0.41706 0.11949 0.4568 0.0
C312 C 0.44272 0.1021 0.16786 0.0
C313 C 0.44759 0.0751 0.27741 0.0
C314 C 0.46456 0.08576 0.22092 0.0
C315 C 0.46176 0.09915 0.16512 0.0
C316 C 0.4288 0.07861 0.2783 0.0
N317 N 0.42616 0.09157 0.22281 0.0
H318 H 0.44236 0.11427 0.12888 0.0
H319 H 0.41717 0.07201 0.32659 0.0
H320 H 0.45172 0.13479 0.30968 0.0
H321 H 0.38504 0.09791 0.39914 0.0
O322 O 0.41929 0.13028 0.18701 0.0
O323 O 0.38417 0.11516 0.23518 0.0
O324 O 0.38105 0.07062 0.28673 0.0
C325 C 0.40146 0.13234 0.20088 0.0
H326 H 0.3452 0.06377 0.01815 0.0
H327 H 0.45394 0.14155 0.46138 0.0
H328 H 0.44953 0.06531 0.32331 0.0
H329 H 0.4747 0.10808 0.12134 0.0
Co330 Co 0.30625 0.41389 0.39837 0.0
C331 C 0.30959 0.41048 0.23279 0.0
C332 C 0.30248 0.37912 0.28834 0.0
C333 C 0.30115 0.37577 0.2098 0.0
N334 N 0.30772 0.40088 0.30206 0.0
N335 N 0.30534 0.39546 0.17537 0.0
H336 H 0.31285 0.4278 0.22499 0.0
H337 H 0.29847 0.36624 0.33214 0.0
C338 C 0.33185 0.40096 0.50689 0.0
O339 O 0.34284 0.42253 0.52844 0.0
N340 N 0.30383 0.42626 0.49639 0.0
C341 C 0.30849 0.4475 0.5169 0.0
C342 C 0.30479 0.44765 0.59485 0.0
C343 C 0.29613 0.41366 0.56106 0.0
N344 N 0.29734 0.42638 0.62246 0.0
C345 C 0.3413 0.46017 0.36959 0.0
C346 C 0.37822 0.45295 0.36979 0.0
C347 C 0.38225 0.4755 0.36958 0.0
C348 C 0.36337 0.47886 0.36497 0.0
C349 C 0.35563 0.43464 0.37341 0.0
N350 N 0.33768 0.4386 0.38158 0.0
H351 H 0.32712 0.46321 0.3641 0.0
H352 H 0.3527 0.41734 0.37249 0.0
H353 H 0.31424 0.46207 0.47942 0.0
H354 H 0.29037 0.39552 0.56336 0.0
O355 O 0.29086 0.42797 0.34974 0.0
O356 O 0.2732 0.39316 0.40088 0.0
O357 O 0.31663 0.39416 0.45405 0.0
C358 C 0.27176 0.40943 0.36517 0.0
H359 H 0.29594 0.3597 0.18069 0.0
H360 H 0.30829 0.4625 0.62892 0.0
H361 H 0.39227 0.44948 0.37001 0.0
H362 H 0.36562 0.49588 0.3591 0.0
Co363 Co 0.89209 0.30532 0.57842 0.0
C364 C 0.89962 0.31001 0.41066 0.0
C365 C 0.92443 0.3041 0.46656 0.0
C366 C 0.92677 0.30286 0.38828 0.0
N367 N 0.90777 0.30923 0.48082 0.0
N368 N 0.91093 0.30634 0.35352 0.0
H369 H 0.88441 0.31115 0.40127 0.0
H370 H 0.93297 0.2995 0.50967 0.0
C371 C 0.94113 0.32885 0.62781 0.0
O372 O 0.94589 0.34365 0.57163 0.0
N373 N 0.87621 0.30044 0.67474 0.0
C374 C 0.85987 0.30564 0.69257 0.0
C375 C 0.85601 0.30293 0.77086 0.0
C376 C 0.8817 0.29421 0.74117 0.0
N377 N 0.87001 0.29602 0.80111 0.0
C378 C 0.89246 0.34597 0.5256 0.0
C379 C 0.91171 0.37172 0.65666 0.0
C380 C 0.90385 0.38058 0.5988 0.0
C381 C 0.89458 0.36757 0.53194 0.0
C382 C 0.90941 0.35005 0.64772 0.0
N383 N 0.90002 0.33743 0.58244 0.0
H384 H 0.88342 0.33569 0.47685 0.0
H385 H 0.91406 0.34293 0.69546 0.0
H386 H 0.8524 0.31232 0.65239 0.0
H387 H 0.89469 0.28934 0.74604 0.0
O388 O 0.86329 0.2931 0.52583 0.0
O389 O 0.87868 0.27251 0.56626 0.0
O390 O 0.92073 0.31215 0.63651 0.0
C391 C 0.86187 0.27319 0.53157 0.0
H392 H 0.93786 0.29783 0.35963 0.0
H393 H 0.84502 0.30728 0.80353 0.0
H394 H 0.91843 0.38086 0.71021 0.0
H395 H 0.88823 0.37366 0.48569 0.0
H396 H 0.07532 0.585 0.94477 0.0
H397 H 0.07583 0.49046 0.22292 0.0
H398 H 0.08328 0.59273 0.1914 0.0
H399 H 0.08385 0.49089 0.97615 0.0
H400 H 0.07336 0.52535 0.21244 0.0
H401 H 0.0732 0.54782 0.95549 0.0
C402 C 0.0766 0.57891 0.0012 0.0
C403 C 0.07962 0.59218 0.0672 0.0
C404 C 0.07554 0.51772 0.16059 0.0
C405 C 0.07693 0.54941 0.07989 0.0
C406 C 0.07705 0.49784 0.16651 0.0
C407 C 0.08018 0.48769 0.10039 0.0
C408 C 0.07706 0.52754 0.08798 0.0
C409 C 0.08116 0.49784 0.02871 0.0
C410 C 0.07529 0.55762 0.00727 0.0
C411 C 0.08068 0.58309 0.13894 0.0
N412 N 0.07969 0.51722 0.02449 0.0
N413 N 0.07942 0.56234 0.14329 0.0
H414 H 0.47044 0.04859 0.24467 0.0
H415 H 0.60663 0.12552 0.27177 0.0
H416 H 0.50805 0.12172 0.20779 0.0
H417 H 0.57309 0.0524 0.23709 0.0
H418 H 0.56971 0.12372 0.26113 0.0
H419 H 0.50704 0.04885 0.25383 0.0
C420 C 0.48638 0.06465 0.23837 0.0
C421 C 0.48624 0.08514 0.22484 0.0
C422 C 0.57035 0.10803 0.25579 0.0
C423 C 0.52791 0.08559 0.23588 0.0
C424 C 0.59141 0.10903 0.26245 0.0
C425 C 0.59287 0.08904 0.2559 0.0
C426 C 0.55045 0.08686 0.24301 0.0
C427 C 0.57265 0.06819 0.24233 0.0
C428 C 0.50719 0.06477 0.24326 0.0
C429 C 0.50733 0.10548 0.21702 0.0
N430 N 0.55218 0.0676 0.23678 0.0
N431 N 0.52726 0.10519 0.22303 0.0
H432 H 0.42291 0.48327 0.30286 0.0
H433 H 0.49208 0.61079 0.46802 0.0
H434 H 0.39493 0.51342 0.45681 0.0
H435 H 0.52627 0.57901 0.35488 0.0
H436 H 0.45612 0.57507 0.45873 0.0
H437 H 0.46081 0.51782 0.31635 0.0
C438 C 0.42473 0.49705 0.33964 0.0
C439 C 0.40563 0.49561 0.37773 0.0
C440 C 0.47146 0.57576 0.43628 0.0
C441 C 0.44868 0.53501 0.39299 0.0
C442 C 0.49214 0.59619 0.44213 0.0
C443 C 0.51241 0.59791 0.41324 0.0
C444 C 0.47078 0.55674 0.40052 0.0
C445 C 0.51107 0.5785 0.37775 0.0
C446 C 0.44632 0.51676 0.34712 0.0
C447 C 0.40898 0.51399 0.42464 0.0
N448 N 0.49057 0.55868 0.37228 0.0
N449 N 0.42998 0.53287 0.43056 0.0
H450 H 0.86997 0.38972 0.55909 0.0
H451 H 0.93238 0.51724 0.72792 0.0
H452 H 0.93656 0.4207 0.66666 0.0
H453 H 0.87107 0.48799 0.58909 0.0
H454 H 0.93335 0.48153 0.71445 0.0
H455 H 0.86928 0.42512 0.57781 0.0
C456 C 0.8846 0.40406 0.58594 0.0
C457 C 0.90351 0.40228 0.61035 0.0
C458 C 0.91967 0.48296 0.68727 0.0
C459 C 0.90258 0.44294 0.63358 0.0
C460 C 0.91912 0.50337 0.69469 0.0
C461 C 0.90157 0.50568 0.65975 0.0
C462 C 0.90253 0.46475 0.64472 0.0
C463 C 0.88471 0.48695 0.61829 0.0
C464 C 0.8841 0.42427 0.5972 0.0
C465 C 0.92161 0.42127 0.64709 0.0
N466 N 0.88564 0.46736 0.61191 0.0
N467 N 0.92073 0.44086 0.65746 0.0
H468 H 0.39921 0.88499 0.90804 0.0
H469 H 0.51398 0.92509 0.67024 0.0
H470 H 0.41874 0.9316 0.71572 0.0
H471 H 0.50354 0.89638 0.89863 0.0
H472 H 0.47887 0.92718 0.68434 0.0
H473 H 0.4372 0.88855 0.90516 0.0
C474 C 0.41159 0.8961 0.8656 0.0
C475 C 0.40586 0.90794 0.8118 0.0
C476 C 0.48439 0.92064 0.73166 0.0
C477 C 0.44918 0.91194 0.80763 0.0
C478 C 0.50433 0.91934 0.72346 0.0
C479 C 0.51161 0.91051 0.78329 0.0
C480 C 0.47146 0.91271 0.79971 0.0
C481 C 0.49861 0.90346 0.85134 0.0
C482 C 0.43327 0.8982 0.86412 0.0
C483 C 0.42256 0.92228 0.75845 0.0
N484 N 0.47904 0.9045 0.8574 0.0
N485 N 0.44339 0.92367 0.75708 0.0
H486 H 0.58303 0.51423 0.75835 0.0
H487 H 0.5185 0.38803 0.93855 0.0
H488 H 0.616 0.48598 0.89784 0.0
H489 H 0.48245 0.42018 0.84214 0.0
H490 H 0.55466 0.42296 0.91447 0.0
H491 H 0.54634 0.47901 0.77833 0.0
C492 C 0.58262 0.50069 0.7931 0.0
C493 C 0.60276 0.50317 0.82637 0.0
C494 C 0.53886 0.42244 0.89877 0.0
C495 C 0.56082 0.46273 0.84873 0.0
C496 C 0.51812 0.40252 0.91314 0.0
C497 C 0.49727 0.40117 0.89328 0.0
C498 C 0.53892 0.44125 0.86368 0.0
C499 C 0.49807 0.42036 0.85811 0.0
C500 C 0.56166 0.48055 0.80425 0.0
C501 C 0.60111 0.4848 0.8698 0.0
N502 N 0.51855 0.43962 0.84446 0.0
N503 N 0.58057 0.46544 0.87971 0.0
H504 H 0.00444 0.35275 0.07184 0.0
H505 H 0.98665 0.36169 0.62758 0.0
H506 H 0.06106 0.38092 0.91168 0.0
H507 H 0.93536 0.306 0.7638 0.0
H508 H 0.01386 0.37133 0.73348 0.0
H509 H 0.97785 0.33769 0.96247 0.0
C510 C 0.01127 0.35554 0.01387 0.0
C511 C 0.03499 0.36796 0.00087 0.0
C512 C 0.99665 0.35691 0.73984 0.0
C513 C 0.00486 0.35129 0.87621 0.0
C514 C 0.98112 0.3514 0.6795 0.0
C515 C 0.95854 0.33324 0.68731 0.0
C516 C 0.98943 0.34444 0.80893 0.0
C517 C 0.95242 0.32042 0.75583 0.0
C518 C 0.99614 0.34691 0.95167 0.0
C519 C 0.04296 0.37118 0.92457 0.0
N520 N 0.96766 0.32648 0.81455 0.0
N521 N 0.02793 0.36317 0.86513 0.0
H522 H 0.63333 0.93554 0.94105 0.0
H523 H 0.68035 0.06529 0.06538 0.0
H524 H 0.63137 0.98596 0.79293 0.0
H525 H 0.65275 0.01006 0.23046 0.0
H526 H 0.67087 0.03756 0.96187 0.0
H527 H 0.64871 0.96399 0.04456 0.0
C528 C 0.63626 0.9526 0.93011 0.0
C529 C 0.63059 0.95823 0.85877 0.0
C530 C 0.66707 0.03151 0.02078 0.0
C531 C 0.64867 0.9909 0.976 0.0
C532 C 0.67265 0.04734 0.07994 0.0
C533 C 0.66743 0.03998 0.1566 0.0
C534 C 0.65637 0.00809 0.03832 0.0
C535 C 0.65699 0.01642 0.17205 0.0
C536 C 0.64502 0.96878 0.98917 0.0
C537 C 0.63523 0.98077 0.84724 0.0
N538 N 0.6518 0.00125 0.11328 0.0
N539 N 0.64397 0.99628 0.90532 0.0
H540 H 0.63106 0.63672 0.39346 0.0
H541 H 0.67396 0.64178 0.96003 0.0
H542 H 0.6375 0.68874 0.23369 0.0
H543 H 0.64768 0.5828 0.10996 0.0
H544 H 0.66638 0.66258 0.06222 0.0
H545 H 0.64433 0.62077 0.29376 0.0
C546 C 0.63545 0.64494 0.33753 0.0
C547 C 0.63279 0.66388 0.3216 0.0
C548 C 0.6623 0.64507 0.0722 0.0
C549 C 0.64778 0.64545 0.20639 0.0
C550 C 0.66655 0.63321 0.01403 0.0
C551 C 0.6612 0.61044 0.02608 0.0
C552 C 0.65307 0.63412 0.14291 0.0
C553 C 0.65181 0.60019 0.09735 0.0
C554 C 0.64293 0.63574 0.28039 0.0
C555 C 0.63904 0.67394 0.24814 0.0
N556 N 0.64814 0.6121 0.15282 0.0
N557 N 0.64606 0.66446 0.19281 0.0
H558 H 0.92948 0.58793 0.35726 0.0
H559 H 0.05417 0.68789 0.242 0.0
H560 H 0.97232 0.64121 0.51733 0.0
H561 H 0.00463 0.63964 0.08185 0.0
H562 H 0.02469 0.67303 0.34264 0.0
H563 H 0.95693 0.60815 0.25571 0.0
C564 C 0.94486 0.60387 0.37128 0.0
C565 C 0.94887 0.61269 0.44633 0.0
C566 C 0.02025 0.66593 0.28519 0.0
C567 C 0.98061 0.63616 0.32924 0.0
C568 C 0.03705 0.67442 0.22759 0.0
C569 C 0.03196 0.66479 0.15345 0.0
C570 C 0.99827 0.64767 0.26844 0.0
C571 C 0.00946 0.64743 0.13823 0.0
C572 C 0.96049 0.61555 0.31284 0.0
C573 C 0.96875 0.63375 0.46033 0.0
N574 N 0.99356 0.63932 0.19531 0.0
N575 N 0.98411 0.64469 0.40235 0.0
H576 H 0.3556 0.00491 0.23126 0.0
H577 H 0.3526 0.93225 0.50663 0.0
H578 H 0.36759 0.05113 0.42024 0.0
H579 H 0.32132 0.95972 0.65804 0.0
H580 H 0.35857 0.96089 0.41162 0.0
H581 H 0.34099 0.97307 0.32214 0.0
C582 C 0.35506 0.00836 0.2919 0.0
C583 C 0.36331 0.03078 0.3184 0.0
C584 C 0.35005 0.96052 0.46493 0.0
C585 C 0.3473 0.99449 0.42309 0.0
C586 C 0.34694 0.94434 0.52012 0.0
C587 C 0.33645 0.94355 0.5908 0.0
C588 C 0.34283 0.97637 0.48006 0.0
C589 C 0.32942 0.9597 0.60419 0.0
C590 C 0.34688 0.9902 0.34381 0.0
C591 C 0.36167 0.03412 0.39754 0.0
N592 N 0.333 0.97572 0.54946 0.0
N593 N 0.35412 0.01618 0.44747 0.0
H594 H 0.35402 0.34339 0.90193 0.0
H595 H 0.37277 0.40276 0.516 0.0
H596 H 0.3888 0.32629 0.72809 0.0
H597 H 0.30256 0.36359 0.59166 0.0
H598 H 0.38266 0.38002 0.60205 0.0
H599 H 0.33764 0.35619 0.79974 0.0
C600 C 0.35795 0.34208 0.84229 0.0
C601 C 0.37266 0.33374 0.8231 0.0
C602 C 0.36503 0.37618 0.59864 0.0
C603 C 0.35465 0.34877 0.70744 0.0
C604 C 0.35941 0.38905 0.54979 0.0
C605 C 0.33686 0.38481 0.54691 0.0
C606 C 0.34814 0.35972 0.64696 0.0
C607 C 0.32011 0.36716 0.59231 0.0
C608 C 0.34855 0.34923 0.78435 0.0
C609 C 0.37735 0.33243 0.74509 0.0
N610 N 0.32619 0.35555 0.64227 0.0
N611 N 0.36878 0.34039 0.69 0.0
H612 H 0.1382 0.36851 0.16803 0.0
H613 H 0.26441 0.44449 0.33465 0.0
H614 H 0.16883 0.44015 0.22647 0.0
H615 H 0.22962 0.37061 0.3424 0.0
H616 H 0.22959 0.44259 0.28784 0.0
H617 H 0.17156 0.36819 0.22422 0.0
C618 C 0.15192 0.38414 0.19252 0.0
C619 C 0.15084 0.40443 0.19219 0.0
C620 C 0.22939 0.42672 0.30012 0.0
C621 C 0.18878 0.40416 0.25622 0.0
C622 C 0.24933 0.4278 0.32673 0.0
C623 C 0.24988 0.40767 0.34226 0.0
C624 C 0.20977 0.40533 0.28779 0.0
C625 C 0.2298 0.38653 0.33134 0.0
C626 C 0.17084 0.3839 0.22487 0.0
C627 C 0.16896 0.42414 0.22514 0.0
N628 N 0.21051 0.38587 0.30397 0.0
N629 N 0.18717 0.42352 0.25537 0.0
H630 H 0.72864 0.17744 0.3551 0.0
H631 H 0.85674 0.23043 0.5094 0.0
H632 H 0.76807 0.14365 0.32019 0.0
H633 H 0.82241 0.26943 0.47693 0.0
H634 H 0.82375 0.19708 0.45065 0.0
H635 H 0.76226 0.2101 0.41045 0.0
C636 C 0.74444 0.17694 0.35886 0.0
C637 C 0.74562 0.15786 0.33286 0.0
C638 C 0.82354 0.21299 0.45641 0.0
C639 C 0.78421 0.19519 0.3969 0.0
C640 C 0.84226 0.23194 0.49022 0.0
C641 C 0.84224 0.25266 0.4982 0.0
C642 C 0.80468 0.21482 0.43147 0.0
C643 C 0.82315 0.25378 0.47196 0.0
C644 C 0.76366 0.19562 0.39039 0.0
C645 C 0.76653 0.15813 0.3392 0.0
N646 N 0.80514 0.23512 0.44013 0.0
N647 N 0.78504 0.1765 0.37109 0.0
H648 H 0.55922 0.82284 0.64133 0.0
H649 H 0.63619 0.77165 0.48416 0.0
H650 H 0.63209 0.8562 0.68207 0.0
H651 H 0.56244 0.73332 0.50259 0.0
H652 H 0.63597 0.80478 0.54313 0.0
H653 H 0.56101 0.79168 0.5771 0.0
C654 C 0.57563 0.82357 0.63697 0.0
C655 C 0.59552 0.84206 0.66754 0.0
C656 C 0.61989 0.7891 0.53393 0.0
C657 C 0.59773 0.80641 0.59332 0.0
C658 C 0.62 0.77029 0.49993 0.0
C659 C 0.59931 0.74976 0.48865 0.0
C660 C 0.59893 0.78729 0.55571 0.0
C661 C 0.5788 0.74879 0.51052 0.0
C662 C 0.57664 0.80575 0.60022 0.0
C663 C 0.61632 0.84214 0.65979 0.0
N664 N 0.57914 0.76726 0.54285 0.0
N665 N 0.61691 0.82456 0.6232 0.0
H666 H 0.74574 0.59985 0.67552 0.0
H667 H 0.85625 0.6034 0.80263 0.0
H668 H 0.77243 0.62623 0.90099 0.0
H669 H 0.85318 0.62647 0.57392 0.0
H670 H 0.82474 0.60959 0.84184 0.0
H671 H 0.78383 0.6073 0.63576 0.0
C672 C 0.75978 0.60751 0.71619 0.0
C673 C 0.75614 0.61242 0.79151 0.0
C674 C 0.83129 0.61376 0.78355 0.0
C675 C 0.7993 0.6204 0.74731 0.0
C676 C 0.84912 0.61014 0.76116 0.0
C677 C 0.85713 0.61446 0.68513 0.0
C678 C 0.82094 0.62091 0.72867 0.0
C679 C 0.84744 0.6231 0.63319 0.0
C680 C 0.78145 0.61187 0.69343 0.0
C681 C 0.77473 0.62233 0.84231 0.0
N682 N 0.82938 0.62554 0.65544 0.0
N683 N 0.7955 0.62551 0.81984 0.0
H684 H 0.22986 0.85836 0.81302 0.0
H685 H 0.16859 0.72733 0.94703 0.0
H686 H 0.26392 0.81902 0.84301 0.0
H687 H 0.13809 0.76931 0.99223 0.0
H688 H 0.20182 0.76035 0.89213 0.0
H689 H 0.1942 0.82548 0.86284 0.0
C690 C 0.22978 0.84281 0.82949 0.0
C691 C 0.24983 0.84138 0.82403 0.0
C692 C 0.18794 0.76246 0.91415 0.0
C693 C 0.20948 0.80404 0.88027 0.0
C694 C 0.16889 0.74355 0.94551 0.0
C695 C 0.15059 0.7456 0.97474 0.0
C696 C 0.1888 0.7837 0.91129 0.0
C697 C 0.15195 0.76709 0.97081 0.0
C698 C 0.20955 0.82417 0.85824 0.0
C699 C 0.24892 0.82095 0.84652 0.0
N700 N 0.17078 0.7854 0.93946 0.0
N701 N 0.22914 0.80315 0.87335 0.0
H702 H 0.36424 0.1384 0.181 0.0
H703 H 0.44235 0.26825 0.0414 0.0
H704 H 0.43795 0.17327 0.16171 0.0
H705 H 0.36967 0.2298 -0.00364 0.0
H706 H 0.44 0.23446 0.10095 0.0
H707 H 0.36486 0.17272 0.12874 0.0
C708 C 0.38051 0.15333 0.16653 0.0
C709 C 0.40107 0.15304 0.1755 0.0
C710 C 0.42453 0.23333 0.07797 0.0
C711 C 0.4019 0.19204 0.11614 0.0
C712 C 0.42586 0.25265 0.04393 0.0
C713 C 0.40619 0.25179 0.01341 0.0
C714 C 0.40335 0.21292 0.08218 0.0
C715 C 0.38527 0.23111 0.0187 0.0
C716 C 0.38084 0.17279 0.13633 0.0
C717 C 0.42169 0.17271 0.15542 0.0
N718 N 0.38437 0.21243 0.05261 0.0
N719 N 0.42156 0.19137 0.12683 0.0
H720 H 0.07712 0.35786 0.44887 0.0
H721 H 0.12749 0.45355 0.77851 0.0
H722 H 0.09528 0.42842 0.41426 0.0
H723 H 0.10678 0.38255 0.81879 0.0
H724 H 0.11691 0.44469 0.64382 0.0
H725 H 0.08785 0.36631 0.58428 0.0
C726 C 0.08314 0.37507 0.46976 0.0
C727 C 0.0854 0.39249 0.41984 0.0
C728 C 0.11473 0.43104 0.68201 0.0
C729 C 0.09806 0.40236 0.57461 0.0
C730 C 0.12101 0.43614 0.75901 0.0
C731 C 0.11806 0.41878 0.81042 0.0
C732 C 0.10543 0.40839 0.65581 0.0
C733 C 0.10912 0.39643 0.78158 0.0
C734 C 0.08945 0.37993 0.54702 0.0
C735 C 0.0936 0.41454 0.45022 0.0
N736 N 0.10309 0.39187 0.70628 0.0
N737 N 0.09968 0.41885 0.52543 0.0
H738 H 0.70165 0.15468 0.91865 0.0
H739 H 0.69472 0.06408 0.60817 0.0
H740 H 0.70404 0.09349 0.97611 0.0
H741 H 0.70328 0.13016 0.54864 0.0
H742 H 0.69857 0.0748 0.74406 0.0
H743 H 0.70274 0.14635 0.78251 0.0
C744 C 0.70241 0.13953 0.90299 0.0
C745 C 0.70234 0.1246 0.95955 0.0
C746 C 0.69965 0.08696 0.70112 0.0
C747 C 0.70369 0.115 0.80371 0.0
C748 C 0.69749 0.08084 0.62363 0.0
C749 C 0.69833 0.09606 0.56698 0.0
C750 C 0.70262 0.10844 0.72201 0.0
C751 C 0.70186 0.11758 0.59023 0.0
C752 C 0.70315 0.13483 0.82518 0.0
C753 C 0.7039 0.10549 0.93539 0.0
N754 N 0.70377 0.12307 0.66596 0.0
N755 N 0.70428 0.10115 0.85942 0.0
H756 H 0.63859 0.69294 0.76331 0.0
H757 H 0.56465 0.71465 0.07753 0.0
H758 H 0.59002 0.71474 0.70672 0.0
H759 H 0.6163 0.69682 0.13216 0.0
H760 H 0.57458 0.71626 0.94111 0.0
H761 H 0.63209 0.69637 0.89979 0.0
C762 C 0.6267 0.6986 0.77966 0.0
C763 C 0.61458 0.7032 0.72375 0.0
C764 C 0.58386 0.71219 0.98319 0.0
C765 C 0.60684 0.70696 0.8793 0.0
C766 C 0.57811 0.71117 0.06083 0.0
C767 C 0.58971 0.70568 0.11621 0.0
C768 C 0.60119 0.70751 0.96108 0.0
C769 C 0.60717 0.70151 0.09174 0.0
C770 C 0.62289 0.70047 0.85746 0.0
C771 C 0.59926 0.71039 0.7479 0.0
N772 N 0.61229 0.7024 0.016 0.0
N773 N 0.59573 0.71192 0.82395 0.0
H774 H 0.89853 0.57119 0.91881 0.0
H775 H 0.89908 0.62463 0.33125 0.0
H776 H 0.92974 0.64392 0.95896 0.0
H777 H 0.86455 0.55208 0.28318 0.0
H778 H 0.91151 0.63233 0.19689 0.0
H779 H 0.88733 0.56418 0.05389 0.0
C780 C 0.90304 0.58572 0.95599 0.0
C781 C 0.91495 0.60818 0.927 0.0
C782 C 0.9011 0.61473 0.21577 0.0
C783 C 0.90221 0.60026 0.08267 0.0
C784 C 0.894 0.6103 0.29263 0.0
C785 C 0.88063 0.58763 0.31911 0.0
C786 C 0.89485 0.59639 0.16473 0.0
C787 C 0.87448 0.56982 0.26574 0.0
C788 C 0.89667 0.5817 0.03334 0.0
C789 C 0.92072 0.62633 0.97862 0.0
N790 N 0.88168 0.57459 0.19145 0.0
N791 N 0.9142 0.62197 0.05382 0.0
H792 H 0.30041 0.90655 0.481 0.0
H793 H 0.29562 0.86686 0.04525 0.0
H794 H 0.291 0.84059 0.41506 0.0
H795 H 0.31118 0.9351 0.10885 0.0
H796 H 0.29147 0.85635 0.18039 0.0
H797 H 0.30134 0.91634 0.34576 0.0
C798 C 0.29821 0.89394 0.4383 0.0
C799 C 0.29573 0.87267 0.45978 0.0
C800 C 0.29584 0.87365 0.16501 0.0
C801 C 0.29698 0.88397 0.30413 0.0
C802 C 0.29844 0.87977 0.0876 0.0
C803 C 0.30414 0.90207 0.06545 0.0
C804 C 0.29889 0.88987 0.2212 0.0
C805 C 0.30678 0.91775 0.1233 0.0
C806 C 0.29891 0.89966 0.36083 0.0
C807 C 0.29323 0.85725 0.4013 0.0
N808 N 0.30421 0.91137 0.19862 0.0
N809 N 0.29398 0.86322 0.32622 0.0
H810 H 0.38386 0.27366 0.63699 0.0
H811 H 0.43437 0.33283 0.22926 0.0
H812 H 0.45559 0.32068 0.59423 0.0
H813 H 0.36326 0.2824 0.26629 0.0
H814 H 0.44222 0.32915 0.36388 0.0
H815 H 0.37575 0.27681 0.50192 0.0
C816 C 0.39791 0.28458 0.59914 0.0
C817 C 0.42043 0.29695 0.62708 0.0
C818 C 0.42488 0.3189 0.34266 0.0
C819 C 0.41129 0.30066 0.47244 0.0
C820 C 0.4204 0.32097 0.26573 0.0
C821 C 0.39815 0.30782 0.23623 0.0
C822 C 0.40698 0.30357 0.39075 0.0
C823 C 0.38062 0.29303 0.28655 0.0
C824 C 0.39328 0.28634 0.52202 0.0
C825 C 0.43802 0.31062 0.57519 0.0
N826 N 0.38543 0.29125 0.36131 0.0
N827 N 0.43305 0.31219 0.50052 0.0
H828 H 0.56104 0.83967 0.09538 0.0
H829 H 0.63081 0.93796 0.40629 0.0
H830 H 0.61116 0.90945 0.03829 0.0
H831 H 0.58242 0.86783 0.46635 0.0
H832 H 0.62481 0.92734 0.27031 0.0
H833 H 0.5693 0.84912 0.23206 0.0
C834 C 0.57385 0.8569 0.11156 0.0
C835 C 0.58553 0.87374 0.05531 0.0
C836 C 0.61549 0.91427 0.3133 0.0
C837 C 0.59505 0.88472 0.21084 0.0
C838 C 0.61899 0.92034 0.3908 0.0
C839 C 0.6069 0.90386 0.44758 0.0
C840 C 0.59982 0.89153 0.29253 0.0
C841 C 0.59167 0.88124 0.42452 0.0
C842 C 0.57861 0.86229 0.18939 0.0
C843 C 0.60208 0.8958 0.07929 0.0
N844 N 0.58852 0.87575 0.34872 0.0
N845 N 0.60627 0.90066 0.15515 0.0
H846 H 0.68855 0.54896 0.19308 0.0
H847 H 0.71178 0.64237 0.51832 0.0
H848 H 0.72271 0.62168 0.14745 0.0
H849 H 0.6744 0.56928 0.55666 0.0
H850 H 0.71605 0.63549 0.38265 0.0
H851 H 0.68445 0.55648 0.32738 0.0
C852 C 0.6955 0.56656 0.21123 0.0
C853 C 0.70607 0.58469 0.15828 0.0
C854 C 0.70688 0.62097 0.42081 0.0
C855 C 0.70096 0.59343 0.31287 0.0
C856 C 0.70428 0.62488 0.4983 0.0
C857 C 0.69283 0.60638 0.54951 0.0
C858 C 0.69801 0.5984 0.39419 0.0
C859 C 0.68371 0.58409 0.51996 0.0
C860 C 0.69292 0.57083 0.28811 0.0
C861 C 0.71426 0.60711 0.18569 0.0
N862 N 0.68657 0.58076 0.44458 0.0
N863 N 0.71151 0.61084 0.26096 0.0
H864 H 0.10571 0.72472 0.34459 0.0
H865 H 0.09305 0.66468 0.75285 0.0
H866 H 0.12596 0.67424 0.38808 0.0
H867 H 0.07769 0.71896 0.71608 0.0
H868 H 0.10412 0.66727 0.61799 0.0
H869 H 0.09476 0.72259 0.47976 0.0
C870 C 0.10793 0.71325 0.38264 0.0
C871 C 0.11672 0.6996 0.35493 0.0
C872 C 0.0983 0.67861 0.63931 0.0
C873 C 0.10422 0.69705 0.50955 0.0
C874 C 0.09201 0.67715 0.71634 0.0
C875 C 0.08458 0.69172 0.74594 0.0
C876 C 0.09714 0.69474 0.59125 0.0
C877 C 0.08314 0.70727 0.69566 0.0
C878 C 0.10171 0.71207 0.45979 0.0
C879 C 0.11952 0.68527 0.40699 0.0
N880 N 0.08946 0.70843 0.62076 0.0
N881 N 0.11317 0.68428 0.48169 0.0
H882 H 0.38026 0.08236 0.51848 0.0
H883 H 0.4125 0.12773 0.94862 0.0
H884 H 0.43822 0.14819 0.57676 0.0
H885 H 0.35831 0.05995 0.88852 0.0
H886 H 0.41977 0.13719 0.81241 0.0
H887 H 0.3695 0.07575 0.65303 0.0
C888 C 0.3906 0.09561 0.55938 0.0
C889 C 0.41021 0.11592 0.53616 0.0
C890 C 0.40625 0.12027 0.82896 0.0
C891 C 0.39814 0.10818 0.69118 0.0
C892 C 0.40219 0.11479 0.90667 0.0
C893 C 0.38506 0.09284 0.9296 0.0
C894 C 0.39306 0.10368 0.77392 0.0
C895 C 0.37169 0.07702 0.87301 0.0
C896 C 0.38451 0.09172 0.63652 0.0
C897 C 0.42316 0.1322 0.59233 0.0
N898 N 0.3761 0.0827 0.79756 0.0
N899 N 0.41693 0.12794 0.66752 0.0
H900 H 0.30389 0.39294 0.68226 0.0
H901 H 0.29171 0.42393 0.1158 0.0
H902 H 0.28684 0.44467 0.74442 0.0
H903 H 0.31165 0.37436 0.05275 0.0
H904 H 0.28737 0.42996 0.9803 0.0
H905 H 0.30355 0.38362 0.81729 0.0
C906 C 0.29965 0.40208 0.72416 0.0
C907 C 0.29529 0.41958 0.70181 0.0
C908 C 0.2927 0.41776 -0.00402 0.0
C909 C 0.29544 0.40934 0.85731 0.0
C910 C 0.2954 0.41445 0.07339 0.0
C911 C 0.30243 0.39886 0.09551 0.0
C912 C 0.29704 0.40539 0.94012 0.0
C913 C 0.30622 0.38652 0.03808 0.0
C914 C 0.29969 0.39688 0.80155 0.0
C915 C 0.2905 0.43122 0.75917 0.0
N916 N 0.30359 0.39014 0.96285 0.0
N917 N 0.29079 0.42595 0.83445 0.0
H918 H 0.93933 0.31476 0.23227 0.0
H919 H 0.84063 0.2848 0.92151 0.0
H920 H 0.86864 0.29058 0.29184 0.0
H921 H 0.9108 0.3062 0.86358 0.0
H922 H 0.85018 0.2858 0.05803 0.0
H923 H 0.92886 0.31037 0.09608 0.0
C924 C 0.92162 0.30846 0.21664 0.0
C925 C 0.90493 0.30335 0.27335 0.0
C926 C 0.86343 0.29008 0.01525 0.0
C927 C 0.89278 0.29836 0.11814 0.0
C928 C 0.85798 0.28957 0.93754 0.0
C929 C 0.87488 0.29522 0.88117 0.0
C930 C 0.88599 0.29649 0.03646 0.0
C931 C 0.89711 0.30121 0.90482 0.0
C932 C 0.91564 0.30602 0.13903 0.0
C933 C 0.8822 0.29532 0.2501 0.0
N934 N 0.90203 0.30178 0.98062 0.0
N935 N 0.87681 0.29314 0.17427 0.0
loop_
_geom_bond_atom_site_label_1
_geom_bond_atom_site_label_2
_geom_bond_distance
_geom_bond_site_symmetry_2
_ccdc_geom_bond_type
Co0 N4 2.148 . S
Co0 N10 2.128 1_554 S
Co0 N20 2.194 . S
Co0 O25 2.351 . S
Co0 O26 2.155 . S
Co0 O27 2.096 . S
C1 N4 1.301 . S
C1 N5 1.328 . S
C1 H6 0.930 . S
C2 C3 1.333 . S
C2 N4 1.317 . S
C2 H7 0.930 . S
C3 C2 1.333 . S
C3 N5 1.350 . S
C3 H29 0.931 . S
N4 Co0 2.148 . S
N4 C1 1.301 . S
N4 C2 1.317 . S
N5 C1 1.328 . S
N5 C3 1.350 . S
H6 C1 0.930 . S
H7 C2 0.930 . S
C8 O9 1.224 1_556 S
C8 O27 1.247 1_556 S
O9 C8 1.224 1_554 S
N10 Co0 2.128 1_556 S
N10 C11 1.355 . S
N10 C13 1.311 . S
C11 N10 1.355 . S
C11 C12 1.363 . S
C11 H23 0.929 . S
C12 C11 1.363 . S
C12 N14 1.375 . S
C12 H30 0.931 . S
C13 N10 1.311 . S
C13 N14 1.347 . S
C13 H24 0.929 . S
N14 C12 1.375 . S
N14 C13 1.347 . S
C15 C18 1.365 . S
C15 N20 1.328 . S
C15 H21 0.929 . S
C16 C17 1.362 . S
C16 C19 1.378 . S
C16 H31 0.929 . S
C17 C16 1.362 . S
C17 C18 1.366 . S
C18 C15 1.365 . S
C18 C17 1.366 . S
C18 H32 0.930 . S
C19 C16 1.378 . S
C19 N20 1.315 . S
C19 H22 0.930 . S
N20 Co0 2.194 . S
N20 C15 1.328 . S
N20 C19 1.315 . S
H21 C15 0.929 . S
H22 C19 0.930 . S
H23 C11 0.929 . S
H24 C13 0.929 . S
O25 Co0 2.351 . S
O25 C28 1.244 . S
O26 Co0 2.155 . S
O26 C28 1.240 . S
O27 Co0 2.096 . S
O27 C8 1.247 1_554 S
C28 O25 1.244 . S
C28 O26 1.240 . S
H29 C3 0.931 . S
H30 C12 0.931 . S
H31 C16 0.929 . S
H32 C18 0.930 . S
Co33 N37 2.148 . S
Co33 N43 2.128 . S
Co33 N53 2.194 . S
Co33 O58 2.351 . S
Co33 O59 2.155 . S
Co33 O60 2.096 . S
C34 N37 1.301 . S
C34 N38 1.328 . S
C34 H39 0.930 . S
C35 C36 1.333 . S
C35 N37 1.317 . S
C35 H40 0.930 . S
C36 C35 1.333 . S
C36 N38 1.350 . S
C36 H62 0.931 . S
N37 Co33 2.148 . S
N37 C34 1.301 . S
N37 C35 1.317 . S
N38 C34 1.328 . S
N38 C36 1.350 . S
H39 C34 0.930 . S
H40 C35 0.930 . S
C41 O42 1.224 . S
C41 O60 1.247 . S
O42 C41 1.224 . S
N43 Co33 2.128 . S
N43 C44 1.355 . S
N43 C46 1.311 . S
C44 N43 1.355 . S
C44 C45 1.363 . S
C44 H56 0.929 . S
C45 C44 1.363 . S
C45 N47 1.375 1_554 S
C45 H63 0.931 1_554 S
C46 N43 1.311 . S
C46 N47 1.347 1_554 S
C46 H57 0.929 . S
N47 C45 1.375 1_556 S
N47 C46 1.347 1_556 S
C48 C51 1.365 . S
C48 N53 1.328 . S
C48 H54 0.929 . S
C49 C50 1.362 . S
C49 C52 1.378 . S
C49 H64 0.929 . S
C50 C49 1.362 . S
C50 C51 1.366 . S
C51 C48 1.365 . S
C51 C50 1.366 . S
C51 H65 0.930 . S
C52 C49 1.378 . S
C52 N53 1.315 . S
C52 H55 0.930 . S
N53 Co33 2.194 . S
N53 C48 1.328 . S
N53 C52 1.315 . S
H54 C48 0.929 . S
H55 C52 0.930 . S
H56 C44 0.929 . S
H57 C46 0.929 . S
O58 Co33 2.351 . S
O58 C61 1.244 . S
O59 Co33 2.155 . S
O59 C61 1.240 . S
O60 Co33 2.096 . S
O60 C41 1.247 . S
C61 O58 1.244 . S
C61 O59 1.240 . S
H62 C36 0.931 . S
H63 C45 0.931 1_556 S
H64 C49 0.929 . S
H65 C51 0.930 . S
Co66 N70 2.148 . S
Co66 N76 2.128 . S
Co66 N86 2.194 . S
Co66 O91 2.351 . S
Co66 O92 2.155 . S
Co66 O93 2.096 . S
C67 N70 1.301 . S
C67 N71 1.328 . S
C67 H72 0.930 . S
C68 C69 1.333 . S
C68 N70 1.317 . S
C68 H73 0.930 . S
C69 C68 1.333 . S
C69 N71 1.350 . S
C69 H95 0.931 . S
N70 Co66 2.148 . S
N70 C67 1.301 . S
N70 C68 1.317 . S
N71 C67 1.328 . S
N71 C69 1.350 . S
H72 C67 0.930 . S
H73 C68 0.930 . S
C74 O75 1.224 . S
C74 O93 1.247 . S
O75 C74 1.224 . S
N76 Co66 2.128 . S
N76 C77 1.355 . S
N76 C79 1.311 . S
C77 N76 1.355 . S
C77 C78 1.363 . S
C77 H89 0.929 . S
C78 C77 1.363 . S
C78 N80 1.375 . S
C78 H96 0.931 . S
C79 N76 1.311 . S
C79 N80 1.347 . S
C79 H90 0.929 . S
N80 C78 1.375 . S
N80 C79 1.347 . S
C81 C84 1.365 . S
C81 N86 1.328 . S
C81 H87 0.929 . S
C82 C83 1.362 . S
C82 C85 1.378 . S
C82 H97 0.929 . S
C83 C82 1.362 . S
C83 C84 1.366 . S
C84 C81 1.365 . S
C84 C83 1.366 . S
C84 H98 0.930 . S
C85 C82 1.378 . S
C85 N86 1.315 . S
C85 H88 0.930 . S
N86 Co66 2.194 . S
N86 C81 1.328 . S
N86 C85 1.315 . S
H87 C81 0.929 . S
H88 C85 0.930 . S
H89 C77 0.929 . S
H90 C79 0.929 . S
O91 Co66 2.351 . S
O91 C94 1.244 . S
O92 Co66 2.155 . S
O92 C94 1.240 . S
O93 Co66 2.096 . S
O93 C74 1.247 . S
C94 O91 1.244 . S
C94 O92 1.240 . S
H95 C69 0.931 . S
H96 C78 0.931 . S
H97 C82 0.929 . S
H98 C84 0.930 . S
Co99 N103 2.148 . S
Co99 N109 2.128 . S
Co99 N119 2.194 . S
Co99 O124 2.351 . S
Co99 O125 2.155 . S
Co99 O126 2.096 . S
C100 N103 1.301 . S
C100 N104 1.328 . S
C100 H105 0.930 . S
C101 C102 1.333 . S
C101 N103 1.317 . S
C101 H106 0.930 . S
C102 C101 1.333 . S
C102 N104 1.350 . S
C102 H128 0.931 . S
N103 Co99 2.148 . S
N103 C100 1.301 . S
N103 C101 1.317 . S
N104 C100 1.328 . S
N104 C102 1.350 . S
H105 C100 0.930 . S
H106 C101 0.930 . S
C107 O108 1.224 . S
C107 O126 1.247 . S
O108 C107 1.224 . S
N109 Co99 2.128 . S
N109 C110 1.355 . S
N109 C112 1.311 . S
C110 N109 1.355 . S
C110 C111 1.363 . S
C110 H122 0.929 . S
C111 C110 1.363 . S
C111 N113 1.375 . S
C111 H129 0.931 . S
C112 N109 1.311 . S
C112 N113 1.347 . S
C112 H123 0.929 . S
N113 C111 1.375 . S
N113 C112 1.347 . S
C114 C117 1.365 . S
C114 N119 1.328 . S
C114 H120 0.929 . S
C115 C116 1.362 . S
C115 C118 1.378 . S
C115 H130 0.929 . S
C116 C115 1.362 . S
C116 C117 1.366 . S
C117 C114 1.365 . S
C117 C116 1.366 . S
C117 H131 0.930 . S
C118 C115 1.378 . S
C118 N119 1.315 . S
C118 H121 0.930 . S
N119 Co99 2.194 . S
N119 C114 1.328 . S
N119 C118 1.315 . S
H120 C114 0.929 . S
H121 C118 0.930 . S
H122 C110 0.929 . S
H123 C112 0.929 . S
O124 Co99 2.351 . S
O124 C127 1.244 . S
O125 Co99 2.155 . S
O125 C127 1.240 . S
O126 Co99 2.096 . S
O126 C107 1.247 . S
C127 O124 1.244 . S
C127 O125 1.240 . S
H128 C102 0.931 . S
H129 C111 0.931 . S
H130 C115 0.929 . S
H131 C117 0.930 . S
Co132 N136 2.148 . S
Co132 N142 2.128 . S
Co132 N152 2.194 . S
Co132 O157 2.351 . S
Co132 O158 2.155 . S
Co132 O159 2.096 . S
C133 N136 1.301 . S
C133 N137 1.328 . S
C133 H138 0.930 . S
C134 C135 1.333 . S
C134 N136 1.317 . S
C134 H139 0.930 . S
C135 C134 1.333 . S
C135 N137 1.350 . S
C135 H161 0.931 . S
N136 Co132 2.148 . S
N136 C133 1.301 . S
N136 C134 1.317 . S
N137 C133 1.328 . S
N137 C135 1.350 . S
H138 C133 0.930 . S
H139 C134 0.930 . S
C140 O141 1.224 . S
C140 O159 1.247 . S
O141 C140 1.224 . S
N142 Co132 2.128 . S
N142 C143 1.355 . S
N142 C145 1.311 . S
C143 N142 1.355 . S
C143 C144 1.363 . S
C143 H155 0.929 . S
C144 C143 1.363 . S
C144 N146 1.375 . S
C144 H162 0.931 . S
C145 N142 1.311 . S
C145 N146 1.347 . S
C145 H156 0.929 . S
N146 C144 1.375 . S
N146 C145 1.347 . S
C147 C150 1.365 . S
C147 N152 1.328 . S
C147 H153 0.929 . S
C148 C149 1.362 . S
C148 C151 1.378 . S
C148 H163 0.929 . S
C149 C148 1.362 . S
C149 C150 1.366 . S
C150 C147 1.365 . S
C150 C149 1.366 . S
C150 H164 0.930 . S
C151 C148 1.378 . S
C151 N152 1.315 . S
C151 H154 0.930 . S
N152 Co132 2.194 . S
N152 C147 1.328 . S
N152 C151 1.315 . S
H153 C147 0.929 . S
H154 C151 0.930 . S
H155 C143 0.929 . S
H156 C145 0.929 . S
O157 Co132 2.351 . S
O157 C160 1.244 . S
O158 Co132 2.155 . S
O158 C160 1.240 . S
O159 Co132 2.096 . S
O159 C140 1.247 . S
C160 O157 1.244 . S
C160 O158 1.240 . S
H161 C135 0.931 . S
H162 C144 0.931 . S
H163 C148 0.929 . S
H164 C150 0.930 . S
Co165 N169 2.148 1_556 S
Co165 N175 2.128 . S
Co165 N185 2.194 . S
Co165 O190 2.351 . S
Co165 O191 2.155 . S
Co165 O192 2.096 . S
C166 N169 1.301 . S
C166 N170 1.328 . S
C166 H171 0.930 . S
C167 C168 1.333 . S
C167 N169 1.317 . S
C167 H172 0.930 1_554 S
C168 C167 1.333 . S
C168 N170 1.350 . S
C168 H194 0.931 . S
N169 Co165 2.148 1_554 S
N169 C166 1.301 . S
N169 C167 1.317 . S
N170 C166 1.328 . S
N170 C168 1.350 . S
H171 C166 0.930 . S
H172 C167 0.930 1_556 S
C173 O174 1.224 . S
C173 O192 1.247 . S
O174 C173 1.224 . S
N175 Co165 2.128 . S
N175 C176 1.355 . S
N175 C178 1.311 . S
C176 N175 1.355 . S
C176 C177 1.363 . S
C176 H188 0.929 . S
C177 C176 1.363 . S
C177 N179 1.375 . S
C177 H195 0.931 . S
C178 N175 1.311 . S
C178 N179 1.347 . S
C178 H189 0.929 . S
N179 C177 1.375 . S
N179 C178 1.347 . S
C180 C183 1.365 . S
C180 N185 1.328 . S
C180 H186 0.929 . S
C181 C182 1.362 . S
C181 C184 1.378 . S
C181 H196 0.929 . S
C182 C181 1.362 . S
C182 C183 1.366 . S
C183 C180 1.365 . S
C183 C182 1.366 . S
C183 H197 0.930 . S
C184 C181 1.378 . S
C184 N185 1.315 . S
C184 H187 0.930 . S
N185 Co165 2.194 . S
N185 C180 1.328 . S
N185 C184 1.315 . S
H186 C180 0.929 . S
H187 C184 0.930 . S
H188 C176 0.929 . S
H189 C178 0.929 . S
O190 Co165 2.351 . S
O190 C193 1.244 . S
O191 Co165 2.155 . S
O191 C193 1.240 . S
O192 Co165 2.096 . S
O192 C173 1.247 . S
C193 O190 1.244 . S
C193 O191 1.240 . S
H194 C168 0.931 . S
H195 C177 0.931 . S
H196 C181 0.929 . S
H197 C183 0.930 . S
Co198 N202 2.148 . S
Co198 N208 2.128 . S
Co198 N218 2.194 . S
Co198 O223 2.351 . S
Co198 O224 2.155 . S
Co198 O225 2.096 . S
C199 N202 1.301 . S
C199 N203 1.328 . S
C199 H204 0.930 . S
C200 C201 1.333 . S
C200 N202 1.317 . S
C200 H205 0.930 . S
C201 C200 1.333 . S
C201 N203 1.350 . S
C201 H227 0.931 . S
N202 Co198 2.148 . S
N202 C199 1.301 . S
N202 C200 1.317 . S
N203 C199 1.328 . S
N203 C201 1.350 . S
H204 C199 0.930 . S
H205 C200 0.930 . S
C206 O207 1.224 . S
C206 O225 1.247 . S
O207 C206 1.224 . S
N208 Co198 2.128 . S
N208 C209 1.355 . S
N208 C211 1.311 . S
C209 N208 1.355 . S
C209 C210 1.363 . S
C209 H221 0.929 . S
C210 C209 1.363 . S
C210 N212 1.375 1_556 S
C210 H228 0.931 1_556 S
C211 N208 1.311 . S
C211 N212 1.347 1_556 S
C211 H222 0.929 . S
N212 C210 1.375 1_554 S
N212 C211 1.347 1_554 S
C213 C216 1.365 . S
C213 N218 1.328 . S
C213 H219 0.929 . S
C214 C215 1.362 . S
C214 C217 1.378 . S
C214 H229 0.929 . S
C215 C214 1.362 . S
C215 C216 1.366 . S
C216 C213 1.365 . S
C216 C215 1.366 . S
C216 H230 0.930 . S
C217 C214 1.378 . S
C217 N218 1.315 . S
C217 H220 0.930 . S
N218 Co198 2.194 . S
N218 C213 1.328 . S
N218 C217 1.315 . S
H219 C213 0.929 . S
H220 C217 0.930 . S
H221 C209 0.929 . S
H222 C211 0.929 . S
O223 Co198 2.351 . S
O223 C226 1.244 . S
O224 Co198 2.155 . S
O224 C226 1.240 . S
O225 Co198 2.096 . S
O225 C206 1.247 . S
C226 O223 1.244 . S
C226 O224 1.240 . S
H227 C201 0.931 . S
H228 C210 0.931 1_554 S
H229 C214 0.929 . S
H230 C216 0.930 . S
Co231 N235 2.148 . S
Co231 N241 2.128 1_556 S
Co231 N251 2.194 . S
Co231 O256 2.351 . S
Co231 O257 2.155 . S
Co231 O258 2.096 . S
C232 N235 1.301 . S
C232 N236 1.328 . S
C232 H237 0.930 . S
C233 C234 1.333 . S
C233 N235 1.317 . S
C233 H238 0.930 . S
C234 C233 1.333 . S
C234 N236 1.350 . S
C234 H260 0.931 . S
N235 Co231 2.148 . S
N235 C232 1.301 . S
N235 C233 1.317 . S
N236 C232 1.328 . S
N236 C234 1.350 . S
H237 C232 0.930 . S
H238 C233 0.930 . S
C239 O240 1.224 . S
C239 O258 1.247 1_554 S
O240 C239 1.224 . S
N241 Co231 2.128 1_554 S
N241 C242 1.355 . S
N241 C244 1.311 . S
C242 N241 1.355 . S
C242 C243 1.363 . S
C242 H254 0.929 . S
C243 C242 1.363 . S
C243 N245 1.375 . S
C243 H261 0.931 . S
C244 N241 1.311 . S
C244 N245 1.347 . S
C244 H255 0.929 . S
N245 C243 1.375 . S
N245 C244 1.347 . S
C246 C249 1.365 . S
C246 N251 1.328 . S
C246 H252 0.929 . S
C247 C248 1.362 . S
C247 C250 1.378 . S
C247 H262 0.929 . S
C248 C247 1.362 . S
C248 C249 1.366 . S
C249 C246 1.365 . S
C249 C248 1.366 . S
C249 H263 0.930 . S
C250 C247 1.378 . S
C250 N251 1.315 . S
C250 H253 0.930 . S
N251 Co231 2.194 . S
N251 C246 1.328 . S
N251 C250 1.315 . S
H252 C246 0.929 . S
H253 C250 0.930 . S
H254 C242 0.929 . S
H255 C244 0.929 . S
O256 Co231 2.351 . S
O256 C259 1.244 . S
O257 Co231 2.155 . S
O257 C259 1.240 . S
O258 Co231 2.096 . S
O258 C239 1.247 1_556 S
C259 O256 1.244 . S
C259 O257 1.240 . S
H260 C234 0.931 . S
H261 C243 0.931 . S
H262 C247 0.929 . S
H263 C249 0.930 . S
Co264 N268 2.148 1_554 S
Co264 N274 2.128 . S
Co264 N284 2.194 . S
Co264 O289 2.351 . S
Co264 O290 2.155 . S
Co264 O291 2.096 . S
C265 N268 1.301 . S
C265 N269 1.328 . S
C265 H270 0.930 . S
C266 C267 1.333 . S
C266 N268 1.317 . S
C266 H271 0.930 1_556 S
C267 C266 1.333 . S
C267 N269 1.350 . S
C267 H293 0.931 . S
N268 Co264 2.148 1_556 S
N268 C265 1.301 . S
N268 C266 1.317 . S
N269 C265 1.328 . S
N269 C267 1.350 . S
H270 C265 0.930 . S
H271 C266 0.930 1_554 S
C272 O273 1.224 . S
C272 O291 1.247 . S
O273 C272 1.224 . S
N274 Co264 2.128 . S
N274 C275 1.355 . S
N274 C277 1.311 . S
C275 N274 1.355 . S
C275 C276 1.363 . S
C275 H287 0.929 . S
C276 C275 1.363 . S
C276 N278 1.375 . S
C276 H294 0.931 . S
C277 N274 1.311 . S
C277 N278 1.347 . S
C277 H288 0.929 . S
N278 C276 1.375 . S
N278 C277 1.347 . S
C279 C282 1.365 . S
C279 N284 1.328 . S
C279 H285 0.929 . S
C280 C281 1.362 . S
C280 C283 1.378 . S
C280 H295 0.929 . S
C281 C280 1.362 . S
C281 C282 1.366 . S
C282 C279 1.365 . S
C282 C281 1.366 . S
C282 H296 0.930 . S
C283 C280 1.378 . S
C283 N284 1.315 . S
C283 H286 0.930 . S
N284 Co264 2.194 . S
N284 C279 1.328 . S
N284 C283 1.315 . S
H285 C279 0.929 . S
H286 C283 0.930 . S
H287 C275 0.929 . S
H288 C277 0.929 . S
O289 Co264 2.351 . S
O289 C292 1.244 . S
O290 Co264 2.155 . S
O290 C292 1.240 . S
O291 Co264 2.096 . S
O291 C272 1.247 . S
C292 O289 1.244 . S
C292 O290 1.240 . S
H293 C267 0.931 . S
H294 C276 0.931 . S
H295 C280 0.929 . S
H296 C282 0.930 . S
Co297 N301 2.148 . S
Co297 N307 2.128 . S
Co297 N317 2.194 . S
Co297 O322 2.351 . S
Co297 O323 2.155 . S
Co297 O324 2.096 . S
C298 N301 1.301 . S
C298 N302 1.328 . S
C298 H303 0.930 . S
C299 C300 1.333 . S
C299 N301 1.317 . S
C299 H304 0.930 . S
C300 C299 1.333 . S
C300 N302 1.350 . S
C300 H326 0.931 . S
N301 Co297 2.148 . S
N301 C298 1.301 . S
N301 C299 1.317 . S
N302 C298 1.328 . S
N302 C300 1.350 . S
H303 C298 0.930 . S
H304 C299 0.930 . S
C305 O306 1.224 . S
C305 O324 1.247 . S
O306 C305 1.224 . S
N307 Co297 2.128 . S
N307 C308 1.355 . S
N307 C310 1.311 . S
C308 N307 1.355 . S
C308 C309 1.363 . S
C308 H320 0.929 . S
C309 C308 1.363 . S
C309 N311 1.375 . S
C309 H327 0.931 . S
C310 N307 1.311 . S
C310 N311 1.347 . S
C310 H321 0.929 . S
N311 C309 1.375 . S
N311 C310 1.347 . S
C312 C315 1.365 . S
C312 N317 1.328 . S
C312 H318 0.929 . S
C313 C314 1.362 . S
C313 C316 1.378 . S
C313 H328 0.929 . S
C314 C313 1.362 . S
C314 C315 1.366 . S
C315 C312 1.365 . S
C315 C314 1.366 . S
C315 H329 0.930 . S
C316 C313 1.378 . S
C316 N317 1.315 . S
C316 H319 0.930 . S
N317 Co297 2.194 . S
N317 C312 1.328 . S
N317 C316 1.315 . S
H318 C312 0.929 . S
H319 C316 0.930 . S
H320 C308 0.929 . S
H321 C310 0.929 . S
O322 Co297 2.351 . S
O322 C325 1.244 . S
O323 Co297 2.155 . S
O323 C325 1.240 . S
O324 Co297 2.096 . S
O324 C305 1.247 . S
C325 O322 1.244 . S
C325 O323 1.240 . S
H326 C300 0.931 . S
H327 C309 0.931 . S
H328 C313 0.929 . S
H329 C315 0.930 . S
Co330 N334 2.148 . S
Co330 N340 2.128 . S
Co330 N350 2.194 . S
Co330 O355 2.351 . S
Co330 O356 2.155 . S
Co330 O357 2.096 . S
C331 N334 1.301 . S
C331 N335 1.328 . S
C331 H336 0.930 . S
C332 C333 1.333 . S
C332 N334 1.317 . S
C332 H337 0.930 . S
C333 C332 1.333 . S
C333 N335 1.350 . S
C333 H359 0.931 . S
N334 Co330 2.148 . S
N334 C331 1.301 . S
N334 C332 1.317 . S
N335 C331 1.328 . S
N335 C333 1.350 . S
H336 C331 0.930 . S
H337 C332 0.930 . S
C338 O339 1.224 . S
C338 O357 1.247 . S
O339 C338 1.224 . S
N340 Co330 2.128 . S
N340 C341 1.355 . S
N340 C343 1.311 . S
C341 N340 1.355 . S
C341 C342 1.363 . S
C341 H353 0.929 . S
C342 C341 1.363 . S
C342 N344 1.375 . S
C342 H360 0.931 . S
C343 N340 1.311 . S
C343 N344 1.347 . S
C343 H354 0.929 . S
N344 C342 1.375 . S
N344 C343 1.347 . S
C345 C348 1.365 . S
C345 N350 1.328 . S
C345 H351 0.929 . S
C346 C347 1.362 . S
C346 C349 1.378 . S
C346 H361 0.929 . S
C347 C346 1.362 . S
C347 C348 1.366 . S
C348 C345 1.365 . S
C348 C347 1.366 . S
C348 H362 0.930 . S
C349 C346 1.378 . S
C349 N350 1.315 . S
C349 H352 0.930 . S
N350 Co330 2.194 . S
N350 C345 1.328 . S
N350 C349 1.315 . S
H351 C345 0.929 . S
H352 C349 0.930 . S
H353 C341 0.929 . S
H354 C343 0.929 . S
O355 Co330 2.351 . S
O355 C358 1.244 . S
O356 Co330 2.155 . S
O356 C358 1.240 . S
O357 Co330 2.096 . S
O357 C338 1.247 . S
C358 O355 1.244 . S
C358 O356 1.240 . S
H359 C333 0.931 . S
H360 C342 0.931 . S
H361 C346 0.929 . S
H362 C348 0.930 . S
Co363 N367 2.148 . S
Co363 N373 2.128 . S
Co363 N383 2.194 . S
Co363 O388 2.351 . S
Co363 O389 2.155 . S
Co363 O390 2.096 . S
C364 N367 1.301 . S
C364 N368 1.328 . S
C364 H369 0.930 . S
C365 C366 1.333 . S
C365 N367 1.317 . S
C365 H370 0.930 . S
C366 C365 1.333 . S
C366 N368 1.350 . S
C366 H392 0.931 . S
N367 Co363 2.148 . S
N367 C364 1.301 . S
N367 C365 1.317 . S
N368 C364 1.328 . S
N368 C366 1.350 . S
H369 C364 0.930 . S
H370 C365 0.930 . S
C371 O372 1.224 . S
C371 O390 1.247 . S
O372 C371 1.224 . S
N373 Co363 2.128 . S
N373 C374 1.355 . S
N373 C376 1.311 . S
C374 N373 1.355 . S
C374 C375 1.363 . S
C374 H386 0.929 . S
C375 C374 1.363 . S
C375 N377 1.375 . S
C375 H393 0.931 . S
C376 N373 1.311 . S
C376 N377 1.347 . S
C376 H387 0.929 . S
N377 C375 1.375 . S
N377 C376 1.347 . S
C378 C381 1.365 . S
C378 N383 1.328 . S
C378 H384 0.929 . S
C379 C380 1.362 . S
C379 C382 1.378 . S
C379 H394 0.929 . S
C380 C379 1.362 . S
C380 C381 1.366 . S
C381 C378 1.365 . S
C381 C380 1.366 . S
C381 H395 0.930 . S
C382 C379 1.378 . S
C382 N383 1.315 . S
C382 H385 0.930 . S
N383 Co363 2.194 . S
N383 C378 1.328 . S
N383 C382 1.315 . S
H384 C378 0.929 . S
H385 C382 0.930 . S
H386 C374 0.929 . S
H387 C376 0.929 . S
O388 Co363 2.351 . S
O388 C391 1.244 . S
O389 Co363 2.155 . S
O389 C391 1.240 . S
O390 Co363 2.096 . S
O390 C371 1.247 . S
C391 O388 1.244 . S
C391 O389 1.240 . S
H392 C366 0.931 . S
H393 C375 0.931 . S
H394 C379 0.929 . S
H395 C381 0.930 . S
H396 C402 0.930 1_556 S
H397 C406 0.930 . S
H398 C411 0.929 . S
H399 C409 0.929 1_556 S
H400 C404 0.929 . S
H401 C410 0.929 1_556 S
C402 H396 0.930 1_554 S
C402 C403 1.367 . S
C402 C410 1.378 . S
C403 C402 1.367 . S
C403 C411 1.433 . S
C404 H400 0.929 . S
C404 C406 1.378 . S
C404 C408 1.350 . S
C405 C408 1.463 . S
C405 C410 1.350 . S
C405 N413 1.427 . S
C406 H397 0.930 . S
C406 C404 1.378 . S
C406 C407 1.367 . S
C407 C406 1.367 . S
C407 C409 1.433 . S
C408 C404 1.350 . S
C408 C405 1.463 . S
C408 N412 1.427 . S
C409 H399 0.929 1_554 S
C409 C407 1.433 . S
C409 N412 1.384 . S
C410 H401 0.929 1_554 S
C410 C402 1.378 . S
C410 C405 1.350 . S
C411 H398 0.929 . S
C411 C403 1.433 . S
C411 N413 1.384 . S
N412 C408 1.427 . S
N412 C409 1.384 . S
N413 C405 1.427 . S
N413 C411 1.384 . S
H414 C420 0.930 . S
H415 C424 0.930 . S
H416 C429 0.929 . S
H417 C427 0.929 . S
H418 C422 0.929 . S
H419 C428 0.929 . S
C420 H414 0.930 . S
C420 C421 1.367 . S
C420 C428 1.378 . S
C421 C420 1.367 . S
C421 C429 1.433 . S
C422 H418 0.929 . S
C422 C424 1.378 . S
C422 C426 1.350 . S
C423 C426 1.463 . S
C423 C428 1.350 . S
C423 N431 1.427 . S
C424 H415 0.930 . S
C424 C422 1.378 . S
C424 C425 1.367 . S
C425 C424 1.367 . S
C425 C427 1.433 . S
C426 C422 1.350 . S
C426 C423 1.463 . S
C426 N430 1.427 . S
C427 H417 0.929 . S
C427 C425 1.433 . S
C427 N430 1.384 . S
C428 H419 0.929 . S
C428 C420 1.378 . S
C428 C423 1.350 . S
C429 H416 0.929 . S
C429 C421 1.433 . S
C429 N431 1.384 . S
N430 C426 1.427 . S
N430 C427 1.384 . S
N431 C423 1.427 . S
N431 C429 1.384 . S
H432 C438 0.930 . S
H433 C442 0.930 . S
H434 C447 0.929 . S
H435 C445 0.929 . S
H436 C440 0.929 . S
H437 C446 0.929 . S
C438 H432 0.930 . S
C438 C439 1.367 . S
C438 C446 1.378 . S
C439 C438 1.367 . S
C439 C447 1.433 . S
C440 H436 0.929 . S
C440 C442 1.378 . S
C440 C444 1.350 . S
C441 C444 1.463 . S
C441 C446 1.350 . S
C441 N449 1.427 . S
C442 H433 0.930 . S
C442 C440 1.378 . S
C442 C443 1.367 . S
C443 C442 1.367 . S
C443 C445 1.433 . S
C444 C440 1.350 . S
C444 C441 1.463 . S
C444 N448 1.427 . S
C445 H435 0.929 . S
C445 C443 1.433 . S
C445 N448 1.384 . S
C446 H437 0.929 . S
C446 C438 1.378 . S
C446 C441 1.350 . S
C447 H434 0.929 . S
C447 C439 1.433 . S
C447 N449 1.384 . S
N448 C444 1.427 . S
N448 C445 1.384 . S
N449 C441 1.427 . S
N449 C447 1.384 . S
H450 C456 0.930 . S
H451 C460 0.930 . S
H452 C465 0.929 . S
H453 C463 0.929 . S
H454 C458 0.929 . S
H455 C464 0.929 . S
C456 H450 0.930 . S
C456 C457 1.367 . S
C456 C464 1.378 . S
C457 C456 1.367 . S
C457 C465 1.433 . S
C458 H454 0.929 . S
C458 C460 1.378 . S
C458 C462 1.350 . S
C459 C462 1.463 . S
C459 C464 1.350 . S
C459 N467 1.427 . S
C460 H451 0.930 . S
C460 C458 1.378 . S
C460 C461 1.367 . S
C461 C460 1.367 . S
C461 C463 1.433 . S
C462 C458 1.350 . S
C462 C459 1.463 . S
C462 N466 1.427 . S
C463 H453 0.929 . S
C463 C461 1.433 . S
C463 N466 1.384 . S
C464 H455 0.929 . S
C464 C456 1.378 . S
C464 C459 1.350 . S
C465 H452 0.929 . S
C465 C457 1.433 . S
C465 N467 1.384 . S
N466 C462 1.427 . S
N466 C463 1.384 . S
N467 C459 1.427 . S
N467 C465 1.384 . S
H468 C474 0.930 . S
H469 C478 0.930 . S
H470 C483 0.929 . S
H471 C481 0.929 . S
H472 C476 0.929 . S
H473 C482 0.929 . S
C474 H468 0.930 . S
C474 C475 1.367 . S
C474 C482 1.378 . S
C475 C474 1.367 . S
C475 C483 1.433 . S
C476 H472 0.929 . S
C476 C478 1.378 . S
C476 C480 1.350 . S
C477 C480 1.463 . S
C477 C482 1.350 . S
C477 N485 1.427 . S
C478 H469 0.930 . S
C478 C476 1.378 . S
C478 C479 1.367 . S
C479 C478 1.367 . S
C479 C481 1.433 . S
C480 C476 1.350 . S
C480 C477 1.463 . S
C480 N484 1.427 . S
C481 H471 0.929 . S
C481 C479 1.433 . S
C481 N484 1.384 . S
C482 H473 0.929 . S
C482 C474 1.378 . S
C482 C477 1.350 . S
C483 H470 0.929 . S
C483 C475 1.433 . S
C483 N485 1.384 . S
N484 C480 1.427 . S
N484 C481 1.384 . S
N485 C477 1.427 . S
N485 C483 1.384 . S
H486 C492 0.930 . S
H487 C496 0.930 . S
H488 C501 0.929 . S
H489 C499 0.929 . S
H490 C494 0.929 . S
H491 C500 0.929 . S
C492 H486 0.930 . S
C492 C493 1.367 . S
C492 C500 1.378 . S
C493 C492 1.367 . S
C493 C501 1.433 . S
C494 H490 0.929 . S
C494 C496 1.378 . S
C494 C498 1.350 . S
C495 C498 1.463 . S
C495 C500 1.350 . S
C495 N503 1.427 . S
C496 H487 0.930 . S
C496 C494 1.378 . S
C496 C497 1.367 . S
C497 C496 1.367 . S
C497 C499 1.433 . S
C498 C494 1.350 . S
C498 C495 1.463 . S
C498 N502 1.427 . S
C499 H489 0.929 . S
C499 C497 1.433 . S
C499 N502 1.384 . S
C500 H491 0.929 . S
C500 C492 1.378 . S
C500 C495 1.350 . S
C501 H488 0.929 . S
C501 C493 1.433 . S
C501 N503 1.384 . S
N502 C498 1.427 . S
N502 C499 1.384 . S
N503 C495 1.427 . S
N503 C501 1.384 . S
H504 C510 0.930 1_554 S
H505 C514 0.930 . S
H506 C519 0.929 . S
H507 C517 0.929 . S
H508 C512 0.929 1_455 S
H509 C518 0.929 1_655 S
C510 H504 0.930 1_556 S
C510 C511 1.367 . S
C510 C518 1.378 . S
C511 C510 1.367 . S
C511 C519 1.433 . S
C512 H508 0.929 1_655 S
C512 C514 1.378 . S
C512 C516 1.350 . S
C513 C516 1.463 1_455 S
C513 C518 1.350 . S
C513 N521 1.427 . S
C514 H505 0.930 . S
C514 C512 1.378 . S
C514 C515 1.367 . S
C515 C514 1.367 . S
C515 C517 1.433 . S
C516 C512 1.350 . S
C516 C513 1.463 1_655 S
C516 N520 1.427 . S
C517 H507 0.929 . S
C517 C515 1.433 . S
C517 N520 1.384 . S
C518 H509 0.929 1_455 S
C518 C510 1.378 . S
C518 C513 1.350 . S
C519 H506 0.929 . S
C519 C511 1.433 . S
C519 N521 1.384 . S
N520 C516 1.427 . S
N520 C517 1.384 . S
N521 C513 1.427 . S
N521 C519 1.384 . S
H522 C528 0.930 . S
H523 C532 0.930 . S
H524 C537 0.929 . S
H525 C535 0.929 . S
H526 C530 0.929 1_556 S
H527 C536 0.942 . S
C528 H522 0.930 . S
C528 C529 1.367 . S
C528 C536 1.368 1_556 S
C529 C528 1.367 . S
C529 C537 1.433 . S
C530 H526 0.929 1_554 S
C530 C532 1.378 . S
C530 C534 1.350 . S
C531 C534 1.463 1_566 S
C531 C536 1.346 1_556 S
C531 N539 1.427 . S
C532 H523 0.930 . S
C532 C530 1.378 . S
C532 C533 1.367 . S
C533 C532 1.367 . S
C533 C535 1.433 . S
C534 C530 1.350 . S
C534 C531 1.463 1_544 S
C534 N538 1.427 . S
C535 H525 0.929 . S
C535 C533 1.433 . S
C535 N538 1.384 . S
C536 H527 0.942 . S
C536 C528 1.368 1_554 S
C536 C531 1.346 1_554 S
C537 H524 0.929 . S
C537 C529 1.433 . S
C537 N539 1.384 . S
N538 C534 1.427 . S
N538 C535 1.384 . S
N539 C531 1.427 . S
N539 C537 1.384 . S
H540 C546 0.930 . S
H541 C550 0.933 . S
H542 C555 0.929 . S
H543 C553 0.929 . S
H544 C548 0.929 . S
H545 C554 0.929 . S
C546 H540 0.930 . S
C546 C547 1.367 . S
C546 C554 1.378 . S
C547 C546 1.367 . S
C547 C555 1.433 . S
C548 H544 0.929 . S
C548 C550 1.378 . S
C548 C552 1.350 . S
C549 C552 1.463 . S
C549 C554 1.350 . S
C549 N557 1.427 . S
C550 H541 0.933 . S
C550 C548 1.378 . S
C550 C551 1.367 . S
C551 C550 1.367 . S
C551 C553 1.433 . S
C552 C548 1.350 . S
C552 C549 1.463 . S
C552 N556 1.427 . S
C553 H543 0.929 . S
C553 C551 1.433 . S
C553 N556 1.384 . S
C554 H545 0.929 . S
C554 C546 1.378 . S
C554 C549 1.350 . S
C555 H542 0.929 . S
C555 C547 1.433 . S
C555 N557 1.384 . S
N556 C552 1.427 . S
N556 C553 1.384 . S
N557 C549 1.427 . S
N557 C555 1.384 . S
H558 C564 0.930 . S
H559 C568 0.930 . S
H560 C573 0.929 . S
H561 C571 0.929 . S
H562 C566 0.929 . S
H563 C572 0.929 . S
C564 H558 0.930 . S
C564 C565 1.367 . S
C564 C572 1.378 . S
C565 C564 1.367 . S
C565 C573 1.433 . S
C566 H562 0.929 . S
C566 C568 1.378 . S
C566 C570 1.350 . S
C567 C570 1.463 1_655 S
C567 C572 1.350 . S
C567 N575 1.427 . S
C568 H559 0.930 . S
C568 C566 1.378 . S
C568 C569 1.367 . S
C569 C568 1.367 . S
C569 C571 1.433 . S
C570 C566 1.350 . S
C570 C567 1.463 1_455 S
C570 N574 1.427 . S
C571 H561 0.929 . S
C571 C569 1.433 . S
C571 N574 1.384 . S
C572 H563 0.929 . S
C572 C564 1.378 . S
C572 C567 1.350 . S
C573 H560 0.929 . S
C573 C565 1.433 . S
C573 N575 1.384 . S
N574 C570 1.427 . S
N574 C571 1.384 . S
N575 C567 1.427 . S
N575 C573 1.384 . S
H576 C582 0.930 . S
H577 C586 0.930 . S
H578 C591 0.929 . S
H579 C589 0.929 . S
H580 C584 0.929 . S
H581 C590 0.929 . S
C582 H576 0.930 . S
C582 C583 1.367 . S
C582 C590 1.378 . S
C583 C582 1.367 . S
C583 C591 1.433 . S
C584 H580 0.929 . S
C584 C586 1.378 . S
C584 C588 1.350 . S
C585 C588 1.463 1_545 S
C585 C590 1.350 . S
C585 N593 1.427 . S
C586 H577 0.930 . S
C586 C584 1.378 . S
C586 C587 1.367 . S
C587 C586 1.367 . S
C587 C589 1.433 . S
C588 C584 1.350 . S
C588 C585 1.463 1_565 S
C588 N592 1.427 . S
C589 H579 0.929 . S
C589 C587 1.433 . S
C589 N592 1.384 . S
C590 H581 0.929 . S
C590 C582 1.378 . S
C590 C585 1.350 . S
C591 H578 0.929 . S
C591 C583 1.433 . S
C591 N593 1.384 . S
N592 C588 1.427 . S
N592 C589 1.384 . S
N593 C585 1.427 . S
N593 C591 1.384 . S
H594 C600 0.930 . S
H595 C604 0.930 . S
H596 C609 0.929 . S
H597 C607 0.929 . S
H598 C602 0.929 . S
H599 C608 0.929 . S
C600 H594 0.930 . S
C600 C601 1.367 . S
C600 C608 1.378 . S
C601 C600 1.367 . S
C601 C609 1.433 . S
C602 H598 0.929 . S
C602 C604 1.378 . S
C602 C606 1.350 . S
C603 C606 1.463 . S
C603 C608 1.350 . S
C603 N611 1.427 . S
C604 H595 0.930 . S
C604 C602 1.378 . S
C604 C605 1.367 . S
C605 C604 1.367 . S
C605 C607 1.433 . S
C606 C602 1.350 . S
C606 C603 1.463 . S
C606 N610 1.427 . S
C607 H597 0.929 . S
C607 C605 1.433 . S
C607 N610 1.384 . S
C608 H599 0.929 . S
C608 C600 1.378 . S
C608 C603 1.350 . S
C609 H596 0.929 . S
C609 C601 1.433 . S
C609 N611 1.384 . S
N610 C606 1.427 . S
N610 C607 1.384 . S
N611 C603 1.427 . S
N611 C609 1.384 . S
H612 C618 0.930 . S
H613 C622 0.930 . S
H614 C627 0.929 . S
H615 C625 0.929 . S
H616 C620 0.929 . S
H617 C626 0.929 . S
C618 H612 0.930 . S
C618 C619 1.367 . S
C618 C626 1.378 . S
C619 C618 1.367 . S
C619 C627 1.433 . S
C620 H616 0.929 . S
C620 C622 1.378 . S
C620 C624 1.350 . S
C621 C624 1.463 . S
C621 C626 1.350 . S
C621 N629 1.427 . S
C622 H613 0.930 . S
C622 C620 1.378 . S
C622 C623 1.367 . S
C623 C622 1.367 . S
C623 C625 1.433 . S
C624 C620 1.350 . S
C624 C621 1.463 . S
C624 N628 1.427 . S
C625 H615 0.929 . S
C625 C623 1.433 . S
C625 N628 1.384 . S
C626 H617 0.929 . S
C626 C618 1.378 . S
C626 C621 1.350 . S
C627 H614 0.929 . S
C627 C619 1.433 . S
C627 N629 1.384 . S
N628 C624 1.427 . S
N628 C625 1.384 . S
N629 C621 1.427 . S
N629 C627 1.384 . S
H630 C636 0.930 . S
H631 C640 0.930 . S
H632 C645 0.929 . S
H633 C643 0.929 . S
H634 C638 0.929 . S
H635 C644 0.929 . S
C636 H630 0.930 . S
C636 C637 1.367 . S
C636 C644 1.378 . S
C637 C636 1.367 . S
C637 C645 1.433 . S
C638 H634 0.929 . S
C638 C640 1.378 . S
C638 C642 1.350 . S
C639 C642 1.463 . S
C639 C644 1.350 . S
C639 N647 1.427 . S
C640 H631 0.930 . S
C640 C638 1.378 . S
C640 C641 1.367 . S
C641 C640 1.367 . S
C641 C643 1.433 . S
C642 C638 1.350 . S
C642 C639 1.463 . S
C642 N646 1.427 . S
C643 H633 0.929 . S
C643 C641 1.433 . S
C643 N646 1.384 . S
C644 H635 0.929 . S
C644 C636 1.378 . S
C644 C639 1.350 . S
C645 H632 0.929 . S
C645 C637 1.433 . S
C645 N647 1.384 . S
N646 C642 1.427 . S
N646 C643 1.384 . S
N647 C639 1.427 . S
N647 C645 1.384 . S
H648 C654 0.930 . S
H649 C658 0.930 . S
H650 C663 0.929 . S
H651 C661 0.929 . S
H652 C656 0.929 . S
H653 C662 0.929 . S
C654 H648 0.930 . S
C654 C655 1.367 . S
C654 C662 1.378 . S
C655 C654 1.367 . S
C655 C663 1.433 . S
C656 H652 0.929 . S
C656 C658 1.378 . S
C656 C660 1.350 . S
C657 C660 1.463 . S
C657 C662 1.350 . S
C657 N665 1.427 . S
C658 H649 0.930 . S
C658 C656 1.378 . S
C658 C659 1.367 . S
C659 C658 1.367 . S
C659 C661 1.433 . S
C660 C656 1.350 . S
C660 C657 1.463 . S
C660 N664 1.427 . S
C661 H651 0.929 . S
C661 C659 1.433 . S
C661 N664 1.384 . S
C662 H653 0.929 . S
C662 C654 1.378 . S
C662 C657 1.350 . S
C663 H650 0.929 . S
C663 C655 1.433 . S
C663 N665 1.384 . S
N664 C660 1.427 . S
N664 C661 1.384 . S
N665 C657 1.427 . S
N665 C663 1.384 . S
H666 C672 0.930 . S
H667 C676 0.930 . S
H668 C681 0.929 . S
H669 C679 0.929 . S
H670 C674 0.929 . S
H671 C680 0.929 . S
C672 H666 0.930 . S
C672 C673 1.367 . S
C672 C680 1.378 . S
C673 C672 1.367 . S
C673 C681 1.433 . S
C674 H670 0.929 . S
C674 C676 1.378 . S
C674 C678 1.350 . S
C675 C678 1.463 . S
C675 C680 1.350 . S
C675 N683 1.427 . S
C676 H667 0.930 . S
C676 C674 1.378 . S
C676 C677 1.367 . S
C677 C676 1.367 . S
C677 C679 1.433 . S
C678 C674 1.350 . S
C678 C675 1.463 . S
C678 N682 1.427 . S
C679 H669 0.929 . S
C679 C677 1.433 . S
C679 N682 1.384 . S
C680 H671 0.929 . S
C680 C672 1.378 . S
C680 C675 1.350 . S
C681 H668 0.929 . S
C681 C673 1.433 . S
C681 N683 1.384 . S
N682 C678 1.427 . S
N682 C679 1.384 . S
N683 C675 1.427 . S
N683 C681 1.384 . S
H684 C690 0.930 . S
H685 C694 0.930 . S
H686 C699 0.929 . S
H687 C697 0.929 . S
H688 C692 0.929 . S
H689 C698 0.929 . S
C690 H684 0.930 . S
C690 C691 1.367 . S
C690 C698 1.378 . S
C691 C690 1.367 . S
C691 C699 1.433 . S
C692 H688 0.929 . S
C692 C694 1.378 . S
C692 C696 1.350 . S
C693 C696 1.463 . S
C693 C698 1.350 . S
C693 N701 1.427 . S
C694 H685 0.930 . S
C694 C692 1.378 . S
C694 C695 1.367 1_556 S
C695 C694 1.367 1_554 S
C695 C697 1.433 . S
C696 C692 1.350 . S
C696 C693 1.463 . S
C696 N700 1.427 1_556 S
C697 H687 0.929 . S
C697 C695 1.433 . S
C697 N700 1.384 . S
C698 H689 0.929 . S
C698 C690 1.378 . S
C698 C693 1.350 . S
C699 H686 0.929 . S
C699 C691 1.433 . S
C699 N701 1.384 . S
N700 C696 1.427 1_554 S
N700 C697 1.384 . S
N701 C693 1.427 . S
N701 C699 1.384 . S
H702 C708 0.930 . S
H703 C712 0.930 . S
H704 C717 0.929 . S
H705 C715 0.929 . S
H706 C710 0.929 . S
H707 C716 0.929 . S
C708 H702 0.930 . S
C708 C709 1.367 . S
C708 C716 1.378 . S
C709 C708 1.367 . S
C709 C717 1.433 . S
C710 H706 0.929 . S
C710 C712 1.378 . S
C710 C714 1.350 . S
C711 C714 1.463 . S
C711 C716 1.350 . S
C711 N719 1.427 . S
C712 H703 0.930 . S
C712 C710 1.378 . S
C712 C713 1.367 1_554 S
C713 C712 1.367 1_556 S
C713 C715 1.433 . S
C714 C710 1.350 . S
C714 C711 1.463 . S
C714 N718 1.427 1_554 S
C715 H705 0.929 . S
C715 C713 1.433 . S
C715 N718 1.384 . S
C716 H707 0.929 . S
C716 C708 1.378 . S
C716 C711 1.350 . S
C717 H704 0.929 . S
C717 C709 1.433 . S
C717 N719 1.384 . S
N718 C714 1.427 1_556 S
N718 C715 1.384 . S
N719 C711 1.427 . S
N719 C717 1.384 . S
H720 C726 0.930 . S
H721 C730 0.930 . S
H722 C735 0.929 . S
H723 C733 0.929 . S
H724 C728 0.929 . S
H725 C734 0.929 . S
C726 H720 0.930 . S
C726 C727 1.367 . S
C726 C734 1.378 . S
C727 C726 1.367 . S
C727 C735 1.433 . S
C728 H724 0.929 . S
C728 C730 1.378 . S
C728 C732 1.350 . S
C729 C732 1.463 . S
C729 C734 1.350 . S
C729 N737 1.427 . S
C730 H721 0.930 . S
C730 C728 1.378 . S
C730 C731 1.367 . S
C731 C730 1.367 . S
C731 C733 1.433 . S
C732 C728 1.350 . S
C732 C729 1.463 . S
C732 N736 1.427 . S
C733 H723 0.929 . S
C733 C731 1.433 . S
C733 N736 1.384 . S
C734 H725 0.929 . S
C734 C726 1.378 . S
C734 C729 1.350 . S
C735 H722 0.929 . S
C735 C727 1.433 . S
C735 N737 1.384 . S
N736 C732 1.427 . S
N736 C733 1.384 . S
N737 C729 1.427 . S
N737 C735 1.384 . S
H738 C744 0.930 . S
H739 C748 0.930 . S
H740 C753 0.929 . S
H741 C751 0.929 . S
H742 C746 0.929 . S
H743 C752 0.929 . S
C744 H738 0.930 . S
C744 C745 1.367 . S
C744 C752 1.378 . S
C745 C744 1.367 . S
C745 C753 1.433 . S
C746 H742 0.929 . S
C746 C748 1.378 . S
C746 C750 1.350 . S
C747 C750 1.463 . S
C747 C752 1.350 . S
C747 N755 1.427 . S
C748 H739 0.930 . S
C748 C746 1.378 . S
C748 C749 1.367 . S
C749 C748 1.367 . S
C749 C751 1.433 . S
C750 C746 1.350 . S
C750 C747 1.463 . S
C750 N754 1.427 . S
C751 H741 0.929 . S
C751 C749 1.433 . S
C751 N754 1.384 . S
C752 H743 0.929 . S
C752 C744 1.378 . S
C752 C747 1.350 . S
C753 H740 0.929 . S
C753 C745 1.433 . S
C753 N755 1.384 . S
N754 C750 1.427 . S
N754 C751 1.384 . S
N755 C747 1.427 . S
N755 C753 1.384 . S
H756 C762 0.930 . S
H757 C766 0.930 . S
H758 C771 0.929 . S
H759 C769 0.929 . S
H760 C764 0.929 . S
H761 C770 0.929 . S
C762 H756 0.930 . S
C762 C763 1.367 . S
C762 C770 1.378 . S
C763 C762 1.367 . S
C763 C771 1.433 . S
C764 H760 0.929 . S
C764 C766 1.378 1_556 S
C764 C768 1.350 . S
C765 C768 1.463 . S
C765 C770 1.350 . S
C765 N773 1.427 . S
C766 H757 0.930 . S
C766 C764 1.378 1_554 S
C766 C767 1.367 . S
C767 C766 1.367 . S
C767 C769 1.433 . S
C768 C764 1.350 . S
C768 C765 1.463 . S
C768 N772 1.427 . S
C769 H759 0.929 . S
C769 C767 1.433 . S
C769 N772 1.384 1_554 S
C770 H761 0.929 . S
C770 C762 1.378 . S
C770 C765 1.350 . S
C771 H758 0.929 . S
C771 C763 1.433 . S
C771 N773 1.384 . S
N772 C768 1.427 . S
N772 C769 1.384 1_556 S
N773 C765 1.427 . S
N773 C771 1.384 . S
H774 C780 0.930 . S
H775 C784 0.930 . S
H776 C789 0.929 . S
H777 C787 0.929 . S
H778 C782 0.929 . S
H779 C788 0.929 1_554 S
C780 H774 0.930 . S
C780 C781 1.367 . S
C780 C788 1.378 . S
C781 C780 1.367 . S
C781 C789 1.433 . S
C782 H778 0.929 . S
C782 C784 1.378 . S
C782 C786 1.350 . S
C783 C786 1.463 . S
C783 C788 1.350 1_554 S
C783 N791 1.427 1_554 S
C784 H775 0.930 . S
C784 C782 1.378 . S
C784 C785 1.367 . S
C785 C784 1.367 . S
C785 C787 1.433 . S
C786 C782 1.350 . S
C786 C783 1.463 . S
C786 N790 1.427 . S
C787 H777 0.929 . S
C787 C785 1.433 . S
C787 N790 1.384 . S
C788 H779 0.929 1_556 S
C788 C780 1.378 . S
C788 C783 1.350 1_556 S
C789 H776 0.929 . S
C789 C781 1.433 . S
C789 N791 1.384 . S
N790 C786 1.427 . S
N790 C787 1.384 . S
N791 C783 1.427 1_556 S
N791 C789 1.384 . S
H792 C798 0.930 . S
H793 C802 0.930 . S
H794 C807 0.929 . S
H795 C805 0.929 . S
H796 C800 0.929 . S
H797 C806 0.929 . S
C798 H792 0.930 . S
C798 C799 1.367 . S
C798 C806 1.378 . S
C799 C798 1.367 . S
C799 C807 1.433 . S
C800 H796 0.929 . S
C800 C802 1.378 . S
C800 C804 1.350 . S
C801 C804 1.463 . S
C801 C806 1.350 . S
C801 N809 1.427 . S
C802 H793 0.930 . S
C802 C800 1.378 . S
C802 C803 1.367 . S
C803 C802 1.367 . S
C803 C805 1.433 . S
C804 C800 1.350 . S
C804 C801 1.463 . S
C804 N808 1.427 . S
C805 H795 0.929 . S
C805 C803 1.433 . S
C805 N808 1.384 . S
C806 H797 0.929 . S
C806 C798 1.378 . S
C806 C801 1.350 . S
C807 H794 0.929 . S
C807 C799 1.433 . S
C807 N809 1.384 . S
N808 C804 1.427 . S
N808 C805 1.384 . S
N809 C801 1.427 . S
N809 C807 1.384 . S
H810 C816 0.930 . S
H811 C820 0.930 . S
H812 C825 0.929 . S
H813 C823 0.929 . S
H814 C818 0.929 . S
H815 C824 0.929 . S
C816 H810 0.930 . S
C816 C817 1.367 . S
C816 C824 1.378 . S
C817 C816 1.367 . S
C817 C825 1.433 . S
C818 H814 0.929 . S
C818 C820 1.378 . S
C818 C822 1.350 . S
C819 C822 1.463 . S
C819 C824 1.350 . S
C819 N827 1.427 . S
C820 H811 0.930 . S
C820 C818 1.378 . S
C820 C821 1.367 . S
C821 C820 1.367 . S
C821 C823 1.433 . S
C822 C818 1.350 . S
C822 C819 1.463 . S
C822 N826 1.427 . S
C823 H813 0.929 . S
C823 C821 1.433 . S
C823 N826 1.384 . S
C824 H815 0.929 . S
C824 C816 1.378 . S
C824 C819 1.350 . S
C825 H812 0.929 . S
C825 C817 1.433 . S
C825 N827 1.384 . S
N826 C822 1.427 . S
N826 C823 1.384 . S
N827 C819 1.427 . S
N827 C825 1.384 . S
H828 C834 0.930 . S
H829 C838 0.930 . S
H830 C843 0.929 . S
H831 C841 0.929 . S
H832 C836 0.929 . S
H833 C842 0.929 . S
C834 H828 0.930 . S
C834 C835 1.367 . S
C834 C842 1.378 . S
C835 C834 1.367 . S
C835 C843 1.433 . S
C836 H832 0.929 . S
C836 C838 1.378 . S
C836 C840 1.350 . S
C837 C840 1.463 . S
C837 C842 1.350 . S
C837 N845 1.427 . S
C838 H829 0.930 . S
C838 C836 1.378 . S
C838 C839 1.367 . S
C839 C838 1.367 . S
C839 C841 1.433 . S
C840 C836 1.350 . S
C840 C837 1.463 . S
C840 N844 1.427 . S
C841 H831 0.929 . S
C841 C839 1.433 . S
C841 N844 1.384 . S
C842 H833 0.929 . S
C842 C834 1.378 . S
C842 C837 1.350 . S
C843 H830 0.929 . S
C843 C835 1.433 . S
C843 N845 1.384 . S
N844 C840 1.427 . S
N844 C841 1.384 . S
N845 C837 1.427 . S
N845 C843 1.384 . S
H846 C852 0.930 . S
H847 C856 0.930 . S
H848 C861 0.929 . S
H849 C859 0.929 . S
H850 C854 0.929 . S
H851 C860 0.929 . S
C852 H846 0.930 . S
C852 C853 1.367 . S
C852 C860 1.378 . S
C853 C852 1.367 . S
C853 C861 1.433 . S
C854 H850 0.929 . S
C854 C856 1.378 . S
C854 C858 1.350 . S
C855 C858 1.463 . S
C855 C860 1.350 . S
C855 N863 1.427 . S
C856 H847 0.930 . S
C856 C854 1.378 . S
C856 C857 1.367 . S
C857 C856 1.367 . S
C857 C859 1.433 . S
C858 C854 1.350 . S
C858 C855 1.463 . S
C858 N862 1.427 . S
C859 H849 0.929 . S
C859 C857 1.433 . S
C859 N862 1.384 . S
C860 H851 0.929 . S
C860 C852 1.378 . S
C860 C855 1.350 . S
C861 H848 0.929 . S
C861 C853 1.433 . S
C861 N863 1.384 . S
N862 C858 1.427 . S
N862 C859 1.384 . S
N863 C855 1.427 . S
N863 C861 1.384 . S
H864 C870 0.930 . S
H865 C874 0.930 . S
H866 C879 0.929 . S
H867 C877 0.929 . S
H868 C872 0.929 . S
H869 C878 0.929 . S
C870 H864 0.930 . S
C870 C871 1.367 . S
C870 C878 1.378 . S
C871 C870 1.367 . S
C871 C879 1.433 . S
C872 H868 0.929 . S
C872 C874 1.378 . S
C872 C876 1.350 . S
C873 C876 1.463 . S
C873 C878 1.350 . S
C873 N881 1.427 . S
C874 H865 0.930 . S
C874 C872 1.378 . S
C874 C875 1.367 . S
C875 C874 1.367 . S
C875 C877 1.433 . S
C876 C872 1.350 . S
C876 C873 1.463 . S
C876 N880 1.427 . S
C877 H867 0.929 . S
C877 C875 1.433 . S
C877 N880 1.384 . S
C878 H869 0.929 . S
C878 C870 1.378 . S
C878 C873 1.350 . S
C879 H866 0.929 . S
C879 C871 1.433 . S
C879 N881 1.384 . S
N880 C876 1.427 . S
N880 C877 1.384 . S
N881 C873 1.427 . S
N881 C879 1.384 . S
H882 C888 0.930 . S
H883 C892 0.930 . S
H884 C897 0.929 . S
H885 C895 0.929 . S
H886 C890 0.929 . S
H887 C896 0.929 . S
C888 H882 0.930 . S
C888 C889 1.367 . S
C888 C896 1.378 . S
C889 C888 1.367 . S
C889 C897 1.433 . S
C890 H886 0.929 . S
C890 C892 1.378 . S
C890 C894 1.350 . S
C891 C894 1.463 . S
C891 C896 1.350 . S
C891 N899 1.427 . S
C892 H883 0.930 . S
C892 C890 1.378 . S
C892 C893 1.367 . S
C893 C892 1.367 . S
C893 C895 1.433 . S
C894 C890 1.350 . S
C894 C891 1.463 . S
C894 N898 1.427 . S
C895 H885 0.929 . S
C895 C893 1.433 . S
C895 N898 1.384 . S
C896 H887 0.929 . S
C896 C888 1.378 . S
C896 C891 1.350 . S
C897 H884 0.929 . S
C897 C889 1.433 . S
C897 N899 1.384 . S
N898 C894 1.427 . S
N898 C895 1.384 . S
N899 C891 1.427 . S
N899 C897 1.384 . S
H900 C906 0.930 . S
H901 C910 0.930 . S
H902 C915 0.929 . S
H903 C913 0.929 . S
H904 C908 0.929 . S
H905 C914 0.929 . S
C906 H900 0.930 . S
C906 C907 1.367 . S
C906 C914 1.378 . S
C907 C906 1.367 . S
C907 C915 1.433 . S
C908 H904 0.929 . S
C908 C910 1.378 . S
C908 C912 1.350 1_554 S
C909 C912 1.463 . S
C909 C914 1.350 . S
C909 N917 1.427 . S
C910 H901 0.930 . S
C910 C908 1.378 . S
C910 C911 1.367 . S
C911 C910 1.367 . S
C911 C913 1.433 . S
C912 C908 1.350 1_556 S
C912 C909 1.463 . S
C912 N916 1.427 1_556 S
C913 H903 0.929 . S
C913 C911 1.433 . S
C913 N916 1.384 . S
C914 H905 0.929 . S
C914 C906 1.378 . S
C914 C909 1.350 . S
C915 H902 0.929 . S
C915 C907 1.433 . S
C915 N917 1.384 . S
N916 C912 1.427 1_554 S
N916 C913 1.384 . S
N917 C909 1.427 . S
N917 C915 1.384 . S
H918 C924 0.930 . S
H919 C928 0.930 . S
H920 C933 0.929 . S
H921 C931 0.929 . S
H922 C926 0.929 . S
H923 C932 0.929 . S
C924 H918 0.930 . S
C924 C925 1.367 . S
C924 C932 1.378 . S
C925 C924 1.367 . S
C925 C933 1.433 . S
C926 H922 0.929 . S
C926 C928 1.378 1_554 S
C926 C930 1.350 . S
C927 C930 1.463 . S
C927 C932 1.350 . S
C927 N935 1.427 . S
C928 H919 0.930 . S
C928 C926 1.378 1_556 S
C928 C929 1.367 . S
C929 C928 1.367 . S
C929 C931 1.433 . S
C930 C926 1.350 . S
C930 C927 1.463 . S
C930 N934 1.427 . S
C931 H921 0.929 . S
C931 C929 1.433 . S
C931 N934 1.384 1_556 S
C932 H923 0.929 . S
C932 C924 1.378 . S
C932 C927 1.350 . S
C933 H920 0.929 . S
C933 C925 1.433 . S
C933 N935 1.384 . S
N934 C930 1.427 . S
N934 C931 1.384 1_554 S
N935 C927 1.427 . S
N935 C933 1.384 . S
C403 C281 1.624 . S
C407 C17 1.623 . S
C421 C314 1.623 . S
C425 C50 1.627 . S
C439 C347 1.622 . S
C443 C83 1.626 . S
C457 C380 1.625 . S
C461 C116 1.622 . S
C475 C149 1.623 . S
C479 C215 1.623 . S
C493 C248 1.622 . S
C497 C182 1.625 . S
C511 C8 1.176 . S
C515 C371 1.176 . S
C529 C206 1.166 . S
C533 C41 1.162 . S
C547 C74 1.180 . S
C551 C239 1.167 . S
C565 C107 1.164 . S
C569 C272 1.178 . S
C583 C305 1.179 . S
C587 C140 1.165 . S
C601 C173 1.179 . S
C605 C338 1.166 . S
C619 C28 1.368 . S
C623 C358 1.365 . S
C637 C61 1.364 . S
C641 C391 1.367 . S
C655 C226 1.365 . S
C659 C94 1.368 . S
C673 C259 1.361 . S
C677 C127 1.359 . S
C691 C160 1.362 . S
C695 C292 1.359 . S
C709 C325 1.361 . S
C713 C193 1.359 . S
C727 N5 1.062 . S
C731 N14 1.060 . S
C745 N47 1.063 . S
C749 N38 1.064 . S
C763 N71 1.064 . S
C767 N80 1.063 . S
C781 N104 1.065 . S
C785 N113 1.065 . S
C799 N146 1.062 . S
C803 N137 1.064 1_554 S
C817 N179 1.065 . S
C821 N170 1.066 . S
C835 N212 1.063 . S
C839 N203 1.064 . S
C853 N245 1.060 . S
C857 N236 1.062 . S
C871 N278 1.065 . S
C875 N269 1.066 . S
C889 N311 1.063 . S
C893 N302 1.064 1_556 S
C907 N344 1.064 . S
C911 N335 1.065 . S
C925 N368 1.064 . S
C929 N377 1.062 . S
