# Generated by pormake.
# Topology wiu, (6)-cn, num edge types: 1
# Building blocks:
#     Node 0, Type 0, BuildingBlock: UKALOJ_clean_sbu_0, # of connection points: 6
#     Node 1, Type 0, BuildingBlock: UKALOJ_clean_sbu_0, # of connection points: 6
#     Node 2, Type 0, BuildingBlock: UKALOJ_clean_sbu_0, # of connection points: 6
#     Node 3, Type 0, BuildingBlock: UKALOJ_clean_sbu_0, # of connection points: 6
#     Node 4, Type 0, BuildingBlock: UKALOJ_clean_sbu_0, # of connection points: 6
#     Node 5, Type 0, BuildingBlock: UKALOJ_clean_sbu_0, # of connection points: 6
#     Node 6, Type 0, BuildingBlock: UKALOJ_clean_sbu_0, # of connection points: 6
#     Node 7, Type 0, BuildingBlock: UKALOJ_clean_sbu_0, # of connection points: 6
#     Node 8, Type 0, BuildingBlock: UKALOJ_clean_sbu_0, # of connection points: 6
#     Node 9, Type 0, BuildingBlock: UKALOJ_clean_sbu_0, # of connection points: 6
#     Node 10, Type 0, BuildingBlock: UKALOJ_clean_sbu_0, # of connection points: 6
#     Node 11, Type 0, BuildingBlock: UKALOJ_clean_sbu_0, # of connection points: 6
#     Node 12, Type 0, BuildingBlock: UKALOJ_clean_sbu_0, # of connection points: 6
#     Node 13, Type 0, BuildingBlock: UKALOJ_clean_sbu_0, # of connection points: 6
#     Node 14, Type 0, BuildingBlock: UKALOJ_clean_sbu_0, # of connection points: 6
#     Node 15, Type 0, BuildingBlock: UKALOJ_clean_sbu_0, # of connection points: 6
#     Edge 16, Type (0, 0), BuildingBlock: XIVTED_clean_linker_0, # of connection points: 2
#     Edge 17, Type (0, 0), BuildingBlock: XIVTED_clean_linker_0, # of connection points: 2
#     Edge 18, Type (0, 0), BuildingBlock: XIVTED_clean_linker_0, # of connection points: 2
#     Edge 19, Type (0, 0), BuildingBlock: XIVTED_clean_linker_0, # of connection points: 2
#     Edge 20, Type (0, 0), BuildingBlock: XIVTED_clean_linker_0, # of connection points: 2
#     Edge 21, Type (0, 0), BuildingBlock: XIVTED_clean_linker_0, # of connection points: 2
#     Edge 22, Type (0, 0), BuildingBlock: XIVTED_clean_linker_0, # of connection points: 2
#     Edge 23, Type (0, 0), BuildingBlock: XIVTED_clean_linker_0, # of connection points: 2
#     Edge 24, Type (0, 0), BuildingBlock: XIVTED_clean_linker_0, # of connection points: 2
#     Edge 25, Type (0, 0), BuildingBlock: XIVTED_clean_linker_0, # of connection points: 2
#     Edge 26, Type (0, 0), BuildingBlock: XIVTED_clean_linker_0, # of connection points: 2
#     Edge 27, Type (0, 0), BuildingBlock: XIVTED_clean_linker_0, # of connection points: 2
#     Edge 28, Type (0, 0), BuildingBlock: XIVTED_clean_linker_0, # of connection points: 2
#     Edge 29, Type (0, 0), BuildingBlock: XIVTED_clean_linker_0, # of connection points: 2
#     Edge 30, Type (0, 0), BuildingBlock: XIVTED_clean_linker_0, # of connection points: 2
#     Edge 31, Type (0, 0), BuildingBlock: XIVTED_clean_linker_0, # of connection points: 2
#     Edge 32, Type (0, 0), BuildingBlock: XIVTED_clean_linker_0, # of connection points: 2
#     Edge 33, Type (0, 0), BuildingBlock: XIVTED_clean_linker_0, # of connection points: 2
#     Edge 34, Type (0, 0), BuildingBlock: XIVTED_clean_linker_0, # of connection points: 2
#     Edge 35, Type (0, 0), BuildingBlock: XIVTED_clean_linker_0, # of connection points: 2
#     Edge 36, Type (0, 0), BuildingBlock: XIVTED_clean_linker_0, # of connection points: 2
#     Edge 37, Type (0, 0), BuildingBlock: XIVTED_clean_linker_0, # of connection points: 2
#     Edge 38, Type (0, 0), BuildingBlock: XIVTED_clean_linker_0, # of connection points: 2
#     Edge 39, Type (0, 0), BuildingBlock: XIVTED_clean_linker_0, # of connection points: 2
#     Edge 40, Type (0, 0), BuildingBlock: XIVTED_clean_linker_0, # of connection points: 2
#     Edge 41, Type (0, 0), BuildingBlock: XIVTED_clean_linker_0, # of connection points: 2
#     Edge 42, Type (0, 0), BuildingBlock: XIVTED_clean_linker_0, # of connection points: 2
#     Edge 43, Type (0, 0), BuildingBlock: XIVTED_clean_linker_0, # of connection points: 2
#     Edge 44, Type (0, 0), BuildingBlock: XIVTED_clean_linker_0, # of connection points: 2
#     Edge 45, Type (0, 0), BuildingBlock: XIVTED_clean_linker_0, # of connection points: 2
#     Edge 46, Type (0, 0), BuildingBlock: XIVTED_clean_linker_0, # of connection points: 2
#     Edge 47, Type (0, 0), BuildingBlock: XIVTED_clean_linker_0, # of connection points: 2
#     Edge 48, Type (0, 0), BuildingBlock: XIVTED_clean_linker_0, # of connection points: 2
#     Edge 49, Type (0, 0), BuildingBlock: XIVTED_clean_linker_0, # of connection points: 2
#     Edge 50, Type (0, 0), BuildingBlock: XIVTED_clean_linker_0, # of connection points: 2
#     Edge 51, Type (0, 0), BuildingBlock: XIVTED_clean_linker_0, # of connection points: 2
#     Edge 52, Type (0, 0), BuildingBlock: XIVTED_clean_linker_0, # of connection points: 2
#     Edge 53, Type (0, 0), BuildingBlock: XIVTED_clean_linker_0, # of connection points: 2
#     Edge 54, Type (0, 0), BuildingBlock: XIVTED_clean_linker_0, # of connection points: 2
#     Edge 55, Type (0, 0), BuildingBlock: XIVTED_clean_linker_0, # of connection points: 2
#     Edge 56, Type (0, 0), BuildingBlock: XIVTED_clean_linker_0, # of connection points: 2
#     Edge 57, Type (0, 0), BuildingBlock: XIVTED_clean_linker_0, # of connection points: 2
#     Edge 58, Type (0, 0), BuildingBlock: XIVTED_clean_linker_0, # of connection points: 2
#     Edge 59, Type (0, 0), BuildingBlock: XIVTED_clean_linker_0, # of connection points: 2
#     Edge 60, Type (0, 0), BuildingBlock: XIVTED_clean_linker_0, # of connection points: 2
#     Edge 61, Type (0, 0), BuildingBlock: XIVTED_clean_linker_0, # of connection points: 2
#     Edge 62, Type (0, 0), BuildingBlock: XIVTED_clean_linker_0, # of connection points: 2
#     Edge 63, Type (0, 0), BuildingBlock: XIVTED_clean_linker_0, # of connection points: 2
# Relax obj value: 0.327
# Max RMSD: 0.198
# Mean RMSD: 0.198
data_MOF--net-wiu--node1-UKALOJ_clean_sbu_0--edge1-XIVTED_clean_linker_0
_symmetry_space_group_name_H-M    P1
_symmetry_Int_Tables_number       1
_symmetry_cell_setting            triclinic
loop_
_symmetry_equiv_pos_as_xyz
'x, y, z'
_cell_length_a     27.18268
_cell_length_b     27.171277
_cell_length_c     71.579541
_cell_angle_alpha  89.981243
_cell_angle_beta   89.982134
_cell_angle_gamma 90.05356
loop_
_atom_site_label
_atom_site_type_symbol
_atom_site_fract_x
_atom_site_fract_y
_atom_site_fract_z
_atom_type_partial_charge
Zn0 Zn 0.36126 0.13834 0.07891 0.0
O1 O 0.3369 0.20236 0.09341 0.0
C2 C 0.26544 0.08802 0.08763 0.0
Zn3 Zn 0.3048 0.156 0.05788 0.0
C4 C 0.29962 0.22809 0.08914 0.0
O5 O 0.27466 0.21586 0.07478 0.0
C6 C 0.38015 0.07495 0.04639 0.0
O7 O 0.34967 0.20597 0.04503 0.0
O8 O 0.41018 0.18099 0.06299 0.0
N9 N 0.25258 0.16917 0.03796 0.0
C10 C 0.25671 0.18229 0.01986 0.0
C11 C 0.18045 0.18452 0.0268 0.0
N12 N 0.20518 0.17056 0.04224 0.0
N13 N 0.21206 0.1928 0.01265 0.0
C14 C 0.40932 0.12421 0.11759 0.0
C15 C 0.48595 0.11955 0.11143 0.0
N16 N 0.41402 0.12855 0.09894 0.0
N17 N 0.46171 0.12593 0.09512 0.0
N18 N 0.45361 0.11825 0.12564 0.0
H19 H 0.36761 0.14309 0.14222 0.0
H20 H 0.34749 0.08887 0.13012 0.0
H21 H 0.33382 0.14881 0.12075 0.0
C22 C 0.36173 0.12678 0.12818 0.0
C23 C 0.30399 0.18251 0.009 0.0
H24 H 0.33119 0.15705 0.01509 0.0
H25 H 0.31991 0.22011 0.00919 0.0
H26 H 0.29744 0.17178 0.99426 0.0
O27 O 0.34264 0.09899 0.04052 0.0
O28 O 0.39024 0.07722 0.06375 0.0
C29 C 0.3948 0.20548 0.04904 0.0
O30 O 0.30837 0.09462 0.09433 0.0
O31 O 0.25586 0.10516 0.07149 0.0
Zn32 Zn 0.66317 0.5582 0.31054 0.0
O33 O 0.61316 0.60322 0.29773 0.0
C34 C 0.7438 0.63335 0.29882 0.0
Zn35 Zn 0.68136 0.61417 0.3317 0.0
C36 C 0.61422 0.64834 0.30184 0.0
O37 O 0.63858 0.66314 0.31592 0.0
C38 C 0.73161 0.51856 0.34009 0.0
O39 O 0.61786 0.58975 0.3465 0.0
O40 O 0.60395 0.52805 0.32764 0.0
N41 N 0.6917 0.66691 0.35169 0.0
C42 C 0.69625 0.66207 0.37032 0.0
C43 C 0.70006 0.73886 0.36427 0.0
N44 N 0.69383 0.71469 0.34793 0.0
N45 N 0.70185 0.70637 0.37842 0.0
C46 C 0.63603 0.50816 0.27291 0.0
C47 C 0.63578 0.43216 0.28039 0.0
N48 N 0.64972 0.50527 0.29096 0.0
N49 N 0.64952 0.45804 0.29558 0.0
N50 N 0.6264 0.46288 0.26607 0.0
H51 H 0.65964 0.58291 0.26754 0.0
H52 H 0.59663 0.56983 0.26191 0.0
H53 H 0.64505 0.54777 0.24697 0.0
C54 C 0.63457 0.55485 0.26171 0.0
C55 C 0.69403 0.61434 0.38087 0.0
H56 H 0.67795 0.61995 0.39496 0.0
H57 H 0.732 0.60023 0.38268 0.0
H58 H 0.67197 0.58635 0.37349 0.0
O59 O 0.72532 0.56136 0.34694 0.0
O60 O 0.71416 0.50937 0.32398 0.0
C61 C 0.5922 0.55242 0.34218 0.0
O62 O 0.71958 0.59589 0.29295 0.0
O63 O 0.74208 0.64315 0.31621 0.0
Zn64 Zn 0.19656 0.93025 0.58467 0.0
O65 O 0.22258 0.86601 0.599 0.0
C66 C 0.29207 0.98012 0.59275 0.0
Zn67 Zn 0.25164 0.9116 0.56319 0.0
C68 C 0.2594 0.84002 0.59432 0.0
O69 O 0.28306 0.85177 0.57959 0.0
C70 C 0.17541 0.99299 0.55226 0.0
O71 O 0.20644 0.86165 0.5505 0.0
O72 O 0.14727 0.88778 0.56886 0.0
N73 N 0.30266 0.89965 0.5427 0.0
C74 C 0.29864 0.90068 0.52394 0.0
C75 C 0.37157 0.87707 0.5303 0.0
N76 N 0.34799 0.88493 0.54663 0.0
N77 N 0.34139 0.88711 0.51591 0.0
C78 C 0.1462 0.93211 0.62351 0.0
C79 C 0.07176 0.94951 0.6168 0.0
N80 N 0.14409 0.9389 0.60488 0.0
N81 N 0.09779 0.94972 0.60074 0.0
N82 N 0.10136 0.93791 0.63119 0.0
H83 H 0.22569 0.92356 0.6258 0.0
H84 H 0.19001 0.88797 0.64196 0.0
H85 H 0.19589 0.95269 0.64537 0.0
C86 C 0.19237 0.92364 0.63455 0.0
C87 C 0.2523 0.91206 0.51337 0.0
H88 H 0.25019 0.88999 0.50035 0.0
H89 H 0.25258 0.95156 0.50947 0.0
H90 H 0.21894 0.90471 0.52165 0.0
O91 O 0.21266 0.96877 0.54629 0.0
O92 O 0.16612 0.9913 0.56969 0.0
C93 C 0.16141 0.86354 0.55467 0.0
O94 O 0.2494 0.97426 0.5998 0.0
O95 O 0.30078 0.96235 0.57662 0.0
Zn96 Zn 0.88744 0.45034 0.83051 0.0
O97 O 0.95095 0.47416 0.84599 0.0
C98 C 0.84163 0.54832 0.83769 0.0
Zn99 Zn 0.9108 0.50404 0.80914 0.0
C100 C 0.97942 0.50917 0.84132 0.0
O101 O 0.97068 0.53206 0.82614 0.0
C102 C 0.82704 0.43171 0.79727 0.0
O103 O 0.95843 0.4559 0.79698 0.0
O104 O 0.92992 0.39865 0.81575 0.0
N105 N 0.9276 0.55472 0.78904 0.0
C106 C 0.94102 0.54962 0.77101 0.0
C107 C 0.94592 0.62598 0.77765 0.0
N108 N 0.9307 0.60217 0.79313 0.0
N109 N 0.95332 0.5937 0.76366 0.0
C110 C 0.86708 0.40568 0.86929 0.0
C111 C 0.86324 0.32853 0.86389 0.0
N112 N 0.87356 0.39951 0.85081 0.0
N113 N 0.87128 0.35156 0.84745 0.0
N114 N 0.86007 0.3619 0.87772 0.0
H115 H 0.88507 0.44906 0.89369 0.0
H116 H 0.83294 0.47021 0.88049 0.0
H117 H 0.89414 0.48059 0.87196 0.0
C118 C 0.87033 0.45412 0.87937 0.0
C119 C 0.93974 0.50204 0.76036 0.0
H120 H 0.91339 0.4758 0.76654 0.0
H121 H 0.9768 0.48501 0.76066 0.0
H122 H 0.92934 0.50851 0.74557 0.0
O123 O 0.85288 0.46822 0.79151 0.0
O124 O 0.82739 0.42224 0.81469 0.0
C125 C 0.95529 0.41125 0.80161 0.0
O126 O 0.84311 0.50508 0.84452 0.0
O127 O 0.86285 0.55639 0.82214 0.0
Zn128 Zn 0.68687 0.92598 0.9278 0.0
O129 O 0.71188 0.85907 0.9154 0.0
C130 C 0.78027 0.97929 0.91728 0.0
Zn131 Zn 0.74521 0.91507 0.94816 0.0
C132 C 0.75298 0.83893 0.91884 0.0
O133 O 0.78007 0.85727 0.93162 0.0
C134 C 0.66635 0.99359 0.95864 0.0
O135 O 0.70366 0.86245 0.96169 0.0
O136 O 0.63979 0.88624 0.94526 0.0
N137 N 0.79798 0.90806 0.96828 0.0
C138 C 0.79381 0.90132 0.98687 0.0
C139 C 0.87047 0.90035 0.98035 0.0
N140 N 0.8456 0.90745 0.96425 0.0
N141 N 0.8386 0.89637 0.99464 0.0
C142 C 0.6339 0.9203 0.88969 0.0
C143 C 0.56435 0.95304 0.89549 0.0
N144 N 0.63322 0.93134 0.90803 0.0
N145 N 0.58979 0.95133 0.91165 0.0
N146 N 0.59093 0.93275 0.88163 0.0
H147 H 0.67444 0.85945 0.87876 0.0
H148 H 0.67855 0.91401 0.86473 0.0
H149 H 0.71251 0.90984 0.88619 0.0
C150 C 0.67751 0.90015 0.8793 0.0
C151 C 0.74615 0.89432 0.99721 0.0
H152 H 0.73739 0.85445 0.99762 0.0
H153 H 0.74868 0.90723 0.01184 0.0
H154 H 0.71547 0.91378 0.99041 0.0
O155 O 0.70399 0.97066 0.96493 0.0
O156 O 0.65712 0.98988 0.94126 0.0
C157 C 0.65777 0.86274 0.959 0.0
O158 O 0.73849 0.96728 0.91057 0.0
O159 O 0.78986 0.96789 0.93412 0.0
Zn160 Zn 0.40418 0.49725 0.70068 0.0
O161 O 0.45436 0.45217 0.71321 0.0
C162 C 0.32293 0.42116 0.71206 0.0
Zn163 Zn 0.38581 0.44108 0.67969 0.0
C164 C 0.45275 0.4069 0.70944 0.0
O165 O 0.42796 0.39164 0.69556 0.0
C166 C 0.33607 0.53721 0.67122 0.0
O167 O 0.45 0.46645 0.6653 0.0
O168 O 0.46355 0.52862 0.68405 0.0
N169 N 0.37634 0.38872 0.65957 0.0
C170 C 0.37216 0.39362 0.64094 0.0
C171 C 0.36723 0.31689 0.64699 0.0
N172 N 0.37355 0.34097 0.66333 0.0
N173 N 0.36616 0.34939 0.63283 0.0
C174 C 0.42379 0.54279 0.73958 0.0
C175 C 0.42579 0.61987 0.73384 0.0
N176 N 0.41567 0.54843 0.72113 0.0
N177 N 0.417 0.59631 0.71758 0.0
N178 N 0.43025 0.58694 0.74776 0.0
H179 H 0.46938 0.48243 0.74763 0.0
H180 H 0.42304 0.49635 0.76444 0.0
H181 H 0.40663 0.46547 0.74322 0.0
C182 C 0.43054 0.49413 0.74928 0.0
C183 C 0.37459 0.44136 0.63043 0.0
H184 H 0.39111 0.43575 0.61641 0.0
H185 H 0.33664 0.45533 0.62843 0.0
H186 H 0.39632 0.46938 0.63794 0.0
O187 O 0.34225 0.49435 0.66438 0.0
O188 O 0.35333 0.5463 0.68738 0.0
C189 C 0.47551 0.504 0.66957 0.0
O190 O 0.34733 0.45854 0.71785 0.0
O191 O 0.32459 0.41129 0.69468 0.0
Zn192 Zn 0.87194 0.13268 0.43016 0.0
O193 O 0.84633 0.19617 0.41553 0.0
C194 C 0.77727 0.08102 0.42132 0.0
Zn195 Zn 0.81507 0.1497 0.45102 0.0
C196 C 0.80827 0.22092 0.41969 0.0
O197 O 0.78359 0.20844 0.4341 0.0
C198 C 0.89165 0.06993 0.46276 0.0
O199 O 0.85871 0.2008 0.46387 0.0
O200 O 0.91986 0.17603 0.44621 0.0
N201 N 0.76258 0.16054 0.47096 0.0
C202 C 0.76681 0.16881 0.48944 0.0
C203 C 0.69023 0.17095 0.48285 0.0
N204 N 0.71501 0.16193 0.46688 0.0
N205 N 0.7221 0.17549 0.49711 0.0
C206 C 0.92135 0.11925 0.39175 0.0
C207 C 0.99782 0.11564 0.3983 0.0
N208 N 0.92534 0.12388 0.41039 0.0
N209 N 0.97292 0.12192 0.41446 0.0
N210 N 0.966 0.11383 0.38394 0.0
H211 H 0.88007 0.13602 0.36679 0.0
H212 H 0.86035 0.08226 0.37929 0.0
H213 H 0.84564 0.14254 0.38809 0.0
C214 C 0.87405 0.12047 0.38095 0.0
C215 C 0.81465 0.17545 0.49969 0.0
H216 H 0.84426 0.15301 0.49352 0.0
H217 H 0.82556 0.21475 0.49886 0.0
H218 H 0.81147 0.16592 0.51466 0.0
O219 O 0.85379 0.09361 0.46847 0.0
O220 O 0.90196 0.07202 0.44542 0.0
C221 C 0.90401 0.20037 0.46011 0.0
O222 O 0.8201 0.08816 0.4146 0.0
O223 O 0.76752 0.09792 0.43747 0.0
Zn224 Zn 0.18312 0.62281 0.17945 0.0
O225 O 0.11607 0.59923 0.1669 0.0
C226 C 0.23471 0.52881 0.16862 0.0
Zn227 Zn 0.17054 0.56396 0.19949 0.0
C228 C 0.09496 0.55843 0.17008 0.0
O229 O 0.11252 0.53042 0.18272 0.0
C230 C 0.25011 0.64141 0.21047 0.0
O231 O 0.11829 0.60594 0.21298 0.0
O232 O 0.14388 0.66998 0.19699 0.0
N233 N 0.16227 0.51083 0.21944 0.0
C234 C 0.15493 0.5148 0.23799 0.0
C235 C 0.15287 0.43825 0.23131 0.0
N236 N 0.16099 0.46327 0.2153 0.0
N237 N 0.14894 0.46995 0.24565 0.0
C238 C 0.17749 0.67735 0.14164 0.0
C239 C 0.21086 0.74652 0.1477 0.0
N240 N 0.18934 0.67707 0.1599 0.0
N241 N 0.20976 0.72024 0.16369 0.0
N242 N 0.18975 0.72071 0.13381 0.0
H243 H 0.1158 0.63732 0.13105 0.0
H244 H 0.16912 0.63436 0.11634 0.0
H245 H 0.16688 0.59897 0.13754 0.0
C246 C 0.15652 0.63438 0.13108 0.0
C247 C 0.1483 0.56243 0.24839 0.0
H248 H 0.10862 0.57196 0.24848 0.0
H249 H 0.16029 0.55946 0.26312 0.0
H250 H 0.1688 0.59285 0.24182 0.0
O251 O 0.22638 0.60393 0.21653 0.0
O252 O 0.2472 0.65112 0.19311 0.0
C253 C 0.11941 0.65191 0.21047 0.0
O254 O 0.22363 0.57102 0.16205 0.0
O255 O 0.22287 0.51892 0.1854 0.0
Zn256 Zn 0.8705 0.63384 0.58293 0.0
O257 O 0.84411 0.69811 0.59715 0.0
C258 C 0.77565 0.58292 0.59158 0.0
Zn259 Zn 0.81447 0.65129 0.56168 0.0
C260 C 0.80681 0.72357 0.59255 0.0
O261 O 0.78268 0.71104 0.57802 0.0
C262 C 0.89106 0.57049 0.55065 0.0
O263 O 0.85903 0.70165 0.54887 0.0
O264 O 0.91913 0.67684 0.56701 0.0
N265 N 0.76317 0.66149 0.5411 0.0
C266 C 0.76895 0.66904 0.52261 0.0
C267 C 0.69189 0.67159 0.52828 0.0
N268 N 0.71529 0.66308 0.5446 0.0
N269 N 0.72489 0.67541 0.51435 0.0
C270 C 0.92227 0.63246 0.62152 0.0
C271 C 0.99607 0.61349 0.6144 0.0
N272 N 0.92355 0.62557 0.6029 0.0
N273 N 0.96945 0.6138 0.59849 0.0
N274 N 0.96728 0.62574 0.62896 0.0
H275 H 0.84291 0.64079 0.62428 0.0
H276 H 0.87925 0.67855 0.6395 0.0
H277 H 0.87387 0.61427 0.64415 0.0
C278 C 0.87667 0.64196 0.63279 0.0
C279 C 0.81766 0.6759 0.51296 0.0
H280 H 0.84673 0.65339 0.51946 0.0
H281 H 0.8284 0.7152 0.51399 0.0
H282 H 0.81602 0.66662 0.49795 0.0
O283 O 0.85347 0.5943 0.54477 0.0
O284 O 0.901 0.57282 0.56801 0.0
C285 C 0.90412 0.70106 0.55294 0.0
O286 O 0.8185 0.58951 0.59836 0.0
O287 O 0.76614 0.60019 0.57544 0.0
Zn288 Zn 0.1593 0.05883 0.81104 0.0
O289 O 0.10968 0.10319 0.79783 0.0
C290 C 0.24061 0.13467 0.79977 0.0
Zn291 Zn 0.17648 0.11573 0.83199 0.0
C292 C 0.11044 0.14846 0.8016 0.0
O293 O 0.13444 0.16414 0.81562 0.0
C294 C 0.2267 1.02069 0.84126 0.0
O295 O 0.11158 0.09069 0.84612 0.0
O296 O 0.09895 1.02826 0.82748 0.0
N297 N 0.18472 0.16924 0.85183 0.0
C298 C 0.17738 0.16804 0.87045 0.0
C299 C 0.19693 0.24177 0.86335 0.0
N300 N 0.19682 0.2151 0.84745 0.0
N301 N 0.18416 0.21307 0.87789 0.0
C302 C 0.13429 1.01074 0.77295 0.0
C303 C 0.13183 0.93437 0.77975 0.0
N304 N 0.14734 1.00642 0.79105 0.0
N305 N 0.14588 0.95894 0.79524 0.0
N306 N 0.12363 0.9662 0.76567 0.0
H307 H 0.09669 0.07419 0.76239 0.0
H308 H 0.14457 0.05154 0.74734 0.0
H309 H 0.15993 0.08517 0.76814 0.0
C310 C 0.13417 0.05811 0.76212 0.0
C311 C 0.16753 0.12245 0.88172 0.0
H312 H 0.16849 0.08864 0.87325 0.0
H313 H 0.13091 0.1251 0.88838 0.0
H314 H 0.1951 0.11956 0.8931 0.0
O315 O 0.22006 0.06381 0.8478 0.0
O316 O 0.20976 1.0106 0.82513 0.0
C317 C 0.086 0.05331 0.84171 0.0
O318 O 0.21684 0.09686 0.79397 0.0
O319 O 0.23801 0.14513 0.81708 0.0
Zn320 Zn 0.70006 0.43649 0.08438 0.0
O321 O 0.72618 0.37428 0.10028 0.0
C322 C 0.7996 0.48052 0.09001 0.0
Zn323 Zn 0.75142 0.41196 0.06236 0.0
C324 C 0.75917 0.34443 0.09481 0.0
O325 O 0.77927 0.35176 0.07899 0.0
C326 C 0.67951 0.49586 0.05073 0.0
O327 O 0.70074 0.36554 0.05115 0.0
O328 O 0.64603 0.39417 0.07095 0.0
N329 N 0.7993 0.39366 0.0415 0.0
C330 C 0.79398 0.39388 0.0228 0.0
C331 C 0.86596 0.36664 0.02861 0.0
N332 N 0.84399 0.37655 0.0451 0.0
N333 N 0.8353 0.37759 0.01446 0.0
C334 C 0.63104 0.42613 0.11848 0.0
C335 C 0.62061 0.50086 0.12642 0.0
N336 N 0.65323 0.45431 0.10548 0.0
N337 N 0.64613 0.50078 0.11029 0.0
N338 N 0.6108 0.45443 0.13193 0.0
H339 H 0.62605 0.35843 0.10285 0.0
H340 H 0.5934 0.35837 0.12491 0.0
H341 H 0.65928 0.35408 0.1244 0.0
C342 C 0.62703 0.37111 0.11755 0.0
C343 C 0.74784 0.40783 0.01257 0.0
H344 H 0.74367 0.38554 0.99968 0.0
H345 H 0.75047 0.44706 0.00846 0.0
H346 H 0.71459 0.40287 0.02118 0.0
O347 O 0.71609 0.47031 0.04497 0.0
O348 O 0.67039 0.49569 0.06817 0.0
C349 C 0.65667 0.36911 0.05651 0.0
O350 O 0.75684 0.48032 0.09731 0.0
O351 O 0.80608 0.45862 0.07449 0.0
Zn352 Zn 0.38869 0.94669 0.33165 0.0
O353 O 0.45314 0.97174 0.34588 0.0
C354 C 0.34036 0.04407 0.33936 0.0
Zn355 Zn 0.40837 1.00166 0.31023 0.0
C356 C 0.47956 1.00843 0.34133 0.0
O357 O 0.4683 0.0325 0.32663 0.0
C358 C 0.32616 0.9266 0.29925 0.0
O359 O 0.45748 0.95425 0.29808 0.0
O360 O 0.43005 0.89567 0.31645 0.0
N361 N 0.42095 0.05142 0.28924 0.0
C362 C 0.42905 0.04443 0.27084 0.0
C363 C 0.43088 0.12189 0.27573 0.0
N364 N 0.42219 0.09955 0.29225 0.0
N365 N 0.43533 0.08798 0.26215 0.0
C366 C 0.37447 0.90209 0.37093 0.0
C367 C 0.36772 0.8251 0.36568 0.0
N368 N 0.37792 0.89584 0.35233 0.0
N369 N 0.37395 0.84794 0.34907 0.0
N370 N 0.36769 0.85857 0.37952 0.0
H371 H 0.3985 0.94511 0.39452 0.0
H372 H 0.34194 0.96455 0.38401 0.0
H373 H 0.39953 0.97799 0.37275 0.0
C374 C 0.37929 0.95031 0.38099 0.0
C375 C 0.43611 0.99503 0.26175 0.0
H376 H 0.47453 0.9829 0.26415 0.0
H377 H 0.43051 0.99611 0.24646 0.0
H378 H 0.41106 0.96723 0.26775 0.0
O379 O 0.35101 0.96352 0.29332 0.0
O380 O 0.32739 0.91723 0.31668 0.0
C381 C 0.45487 0.90928 0.30234 0.0
O382 O 0.34565 1.00124 0.34632 0.0
O383 O 0.35838 0.0527 0.32326 0.0
Zn384 Zn 0.19523 0.43118 0.42852 0.0
O385 O 0.22084 0.36748 0.41391 0.0
C386 C 0.29195 0.48076 0.42095 0.0
Zn387 Zn 0.25036 0.41179 0.44979 0.0
C388 C 0.25808 0.34173 0.41827 0.0
O389 O 0.28193 0.35289 0.43302 0.0
C390 C 0.17463 0.4929 0.4612 0.0
O391 O 0.20403 0.36158 0.46182 0.0
O392 O 0.14484 0.3888 0.44374 0.0
N393 N 0.3006 0.3991 0.47048 0.0
C394 C 0.29424 0.3904 0.48886 0.0
C395 C 0.37141 0.38723 0.48343 0.0
N396 N 0.34853 0.3971 0.46713 0.0
N397 N 0.33802 0.38291 0.49721 0.0
C398 C 0.14999 0.44578 0.38945 0.0
C399 C 0.07284 0.4492 0.39479 0.0
N400 N 0.14398 0.44162 0.40804 0.0
N401 N 0.096 0.44356 0.41136 0.0
N402 N 0.1062 0.45099 0.38093 0.0
H403 H 0.19363 0.42525 0.36548 0.0
H404 H 0.21216 0.48087 0.37702 0.0
H405 H 0.22612 0.42208 0.38725 0.0
C406 C 0.19831 0.44295 0.37934 0.0
C407 C 0.24516 0.38351 0.49823 0.0
H408 H 0.23362 0.34462 0.49649 0.0
H409 H 0.24656 0.39093 0.5134 0.0
H410 H 0.21679 0.40739 0.49199 0.0
O411 O 0.21169 0.4682 0.46703 0.0
O412 O 0.16524 0.49189 0.44377 0.0
C413 C 0.15897 0.36383 0.45774 0.0
O414 O 0.24932 0.4751 0.41387 0.0
O415 O 0.30041 0.46278 0.43705 0.0
Zn416 Zn 0.90194 0.99766 0.20049 0.0
O417 O 0.95175 0.94983 0.21191 0.0
C418 C 0.82038 0.92192 0.21147 0.0
Zn419 Zn 0.88148 0.94415 0.17875 0.0
C420 C 0.94915 0.90509 0.20731 0.0
O421 O 0.92379 0.89225 0.19324 0.0
C422 C 0.83256 0.04191 0.17232 0.0
O423 O 0.94521 0.97016 0.16416 0.0
O424 O 0.96091 1.02969 0.18385 0.0
N425 N 0.86996 0.89444 0.15783 0.0
C426 C 0.86572 0.9016 0.1393 0.0
C427 C 0.86132 0.82418 0.144 0.0
N428 N 0.86741 0.84628 0.16074 0.0
N429 N 0.85984 0.85837 0.13042 0.0
C430 C 0.92476 0.03917 0.23986 0.0
C431 C 0.92837 0.11661 0.23499 0.0
N432 N 0.91564 0.04654 0.22156 0.0
N433 N 0.91792 0.09464 0.21856 0.0
N434 N 0.93278 0.0825 0.24851 0.0
H435 H 0.97036 0.97785 0.24662 0.0
H436 H 0.92512 0.98999 0.26399 0.0
H437 H 0.90725 0.96168 0.24245 0.0
C438 C 0.93169 0.98951 0.24876 0.0
C439 C 0.86933 0.95049 0.1296 0.0
H440 H 0.8877 0.9464 0.11584 0.0
H441 H 0.83165 0.96457 0.1271 0.0
H442 H 0.88988 0.97786 0.13787 0.0
O443 O 0.83751 0.99966 0.16483 0.0
O444 O 0.85132 0.04917 0.18837 0.0
C445 C 0.9716 1.00672 0.16885 0.0
O446 O 0.84551 0.95847 0.21756 0.0
O447 O 0.82091 0.91361 0.19396 0.0
Zn448 Zn 0.31536 0.65249 0.95185 0.0
O449 O 0.36114 0.70258 0.96439 0.0
C450 C 0.3914 0.57159 0.96317 0.0
Zn451 Zn 0.37114 0.63396 0.93069 0.0
C452 C 0.4063 0.70058 0.96043 0.0
O453 O 0.42074 0.67616 0.94634 0.0
C454 C 0.27509 0.58391 0.9224 0.0
O455 O 0.34547 0.69799 0.91629 0.0
O456 O 0.28391 0.71197 0.93527 0.0
N457 N 0.42324 0.62454 0.91045 0.0
C458 C 0.4181 0.6206 0.89183 0.0
C459 C 0.49494 0.61649 0.89768 0.0
N460 N 0.47105 0.62223 0.91409 0.0
N461 N 0.46224 0.61518 0.88359 0.0
C462 C 0.26969 0.67186 0.99084 0.0
C463 C 0.1926 0.67128 0.98515 0.0
N464 N 0.2642 0.66334 0.97241 0.0
N465 N 0.21633 0.66297 0.9689 0.0
N466 N 0.22535 0.67676 0.99909 0.0
H467 H 0.32944 0.71984 0.99742 0.0
H468 H 0.31679 0.67711 0.01557 0.0
H469 H 0.34706 0.65649 0.99476 0.0
C470 C 0.3183 0.68129 1.00024 0.0
C471 C 0.37024 0.6233 0.88142 0.0
H472 H 0.37558 0.64084 0.86756 0.0
H473 H 0.35654 0.58535 0.87908 0.0
H474 H 0.3421 0.64423 0.88916 0.0
O475 O 0.31793 0.59003 0.91555 0.0
O476 O 0.266 0.6015 0.93851 0.0
C477 C 0.30815 0.72365 0.92066 0.0
O478 O 0.35399 0.59585 0.96896 0.0
O479 O 0.40114 0.57302 0.94577 0.0
Zn480 Zn 0.68279 0.1204 0.67944 0.0
O481 O 0.61781 0.09444 0.66586 0.0
C482 C 0.73375 1.02538 0.67055 0.0
Zn483 Zn 0.66674 0.0642 0.70056 0.0
C484 C 0.59372 0.05599 0.67017 0.0
O485 O 0.60758 1.03101 0.68432 0.0
C486 C 0.74707 0.14198 0.71108 0.0
O487 O 0.61559 0.1079 0.71324 0.0
O488 O 0.64131 0.16923 0.69584 0.0
N489 N 0.65795 1.01264 0.72112 0.0
C490 C 0.64886 1.01757 0.73954 0.0
C491 C 0.65038 0.94061 0.73356 0.0
N492 N 0.65899 0.96485 0.71744 0.0
N493 N 0.64416 0.97291 0.74761 0.0
C494 C 0.69268 0.1681 0.64062 0.0
C495 C 0.69659 0.24494 0.64659 0.0
N496 N 0.68992 0.17295 0.65928 0.0
N497 N 0.69209 0.22074 0.663 0.0
N498 N 0.6972 0.21244 0.63244 0.0
H499 H 0.67251 0.12567 0.61628 0.0
H500 H 0.72778 0.10637 0.62787 0.0
H501 H 0.66874 0.0922 0.63787 0.0
C502 C 0.6899 0.12028 0.63015 0.0
C503 C 0.63846 0.06588 0.74901 0.0
H504 H 0.59953 0.07597 0.74642 0.0
H505 H 0.64338 0.06454 0.7643 0.0
H506 H 0.66234 0.09531 0.74339 0.0
O507 O 0.72293 0.10493 0.71735 0.0
O508 O 0.74493 0.15069 0.69363 0.0
C509 C 0.61677 0.1533 0.70968 0.0
O510 O 0.72559 0.06772 0.66356 0.0
O511 O 0.71852 1.01652 0.68702 0.0
H512 H 0.38041 0.28888 0.02853 0.0
H513 H 0.56563 0.40787 0.05266 0.0
H514 H 0.48535 0.17363 0.03957 0.0
H515 H 0.66277 0.29766 0.02995 0.0
H516 H 0.49989 0.37702 0.03312 0.0
H517 H 0.44538 0.33653 0.01304 0.0
C518 C 0.41707 0.27351 0.02745 0.0
C519 C 0.42938 0.22971 0.03662 0.0
C520 C 0.53579 0.36015 0.03187 0.0
C521 C 0.50242 0.283 0.01928 0.0
C522 C 0.57285 0.37682 0.04356 0.0
C523 C 0.61805 0.35238 0.04395 0.0
C524 C 0.54354 0.31724 0.02127 0.0
C525 C 0.62709 0.31517 0.03088 0.0
C526 C 0.45377 0.30026 0.01844 0.0
C527 C 0.47592 0.20938 0.0339 0.0
N528 N 0.5895 0.29751 0.02044 0.0
N529 N 0.51132 0.23678 0.02574 0.0
H530 H 0.53638 0.63526 0.27819 0.0
H531 H 0.41261 0.82245 0.29368 0.0
H532 H 0.64864 0.73924 0.29417 0.0
H533 H 0.5343 0.91674 0.27917 0.0
H534 H 0.44802 0.75735 0.27502 0.0
H535 H 0.49591 0.7 0.25994 0.0
C536 C 0.55245 0.67175 0.27777 0.0
C537 C 0.5931 0.68373 0.2889 0.0
C538 C 0.46676 0.79249 0.27533 0.0
C539 C 0.54769 0.7568 0.26844 0.0
C540 C 0.44709 0.82916 0.2865 0.0
C541 C 0.47317 0.87293 0.28917 0.0
C542 C 0.5142 0.79894 0.26785 0.0
C543 C 0.51515 0.88184 0.27841 0.0
C544 C 0.52984 0.70834 0.26721 0.0
C545 C 0.61483 0.73002 0.28696 0.0
N546 N 0.53548 0.84434 0.26863 0.0
N547 N 0.59122 0.76536 0.27722 0.0
H548 H 0.07376 0.90439 0.54633 0.0
H549 H 0.88984 0.77879 0.52934 0.0
H550 H 0.1709 0.78619 0.53063 0.0
H551 H 0.99557 0.66828 0.54525 0.0
H552 H 0.9539 0.82062 0.51117 0.0
H553 H 1.00981 0.86903 0.52708 0.0
C554 C 0.08132 0.87064 0.53879 0.0
C555 C 0.12556 0.84533 0.54129 0.0
C556 C 0.96275 0.78673 0.51838 0.0
C557 C 0.05287 0.80435 0.51931 0.0
C558 C 0.92656 0.76335 0.52891 0.0
C559 C 0.93919 0.72283 0.54001 0.0
C560 C 1.0115 0.76985 0.51965 0.0
C561 C 0.98581 0.70198 0.53807 0.0
C562 C 0.04533 0.85107 0.52727 0.0
C563 C 0.13556 0.8045 0.53004 0.0
N564 N 1.02077 0.72637 0.52838 0.0
N565 N 0.09867 0.78406 0.51994 0.0
H566 H 1.02705 0.13753 0.78091 0.0
H567 H 0.03474 0.41847 0.77855 0.0
H568 H 0.1505 0.23409 0.79019 0.0
H569 H 0.91451 0.32295 0.79382 0.0
H570 H 0.07056 0.35136 0.76021 0.0
H571 H 0.987 0.20259 0.76269 0.0
C572 C 0.04585 0.17229 0.77884 0.0
C573 C 0.08969 0.18282 0.78825 0.0
C574 C 0.03546 0.34573 0.76707 0.0
C575 C 0.04553 0.25563 0.76736 0.0
C576 C 1.01578 0.38342 0.77786 0.0
C577 C 0.97423 0.37419 0.78887 0.0
C578 C 1.01366 0.29888 0.76779 0.0
C579 C 0.94899 0.32977 0.78667 0.0
C580 C 1.02368 0.20878 0.76813 0.0
C581 C 0.11455 0.22659 0.78431 0.0
N582 N 0.96968 0.29317 0.77662 0.0
N583 N 0.09161 0.26206 0.77438 0.0
H584 H 0.67611 0.78536 0.98244 0.0
H585 H 0.49333 0.6592 0.96934 0.0
H586 H 0.56888 0.89702 0.9695 0.0
H587 H 0.39695 0.77875 0.98415 0.0
H588 H 0.55728 0.69477 0.9885 0.0
H589 H 0.61504 0.74386 1.00215 0.0
C590 C 0.63968 0.80107 0.98383 0.0
C591 C 0.62542 0.84169 0.97309 0.0
C592 C 0.52199 0.71311 0.98811 0.0
C593 C 0.55628 0.79486 0.99503 0.0
C594 C 0.48594 0.69332 0.97666 0.0
C595 C 0.44194 0.71887 0.97391 0.0
C596 C 0.51481 0.76032 0.99572 0.0
C597 C 0.4321 0.76016 0.98493 0.0
C598 C 0.60514 0.77784 0.9952 0.0
C599 C 0.57954 0.8631 0.97634 0.0
N600 N 0.46904 0.78071 0.99497 0.0
N601 N 0.54605 0.83879 0.98678 0.0
H602 H 0.65717 0.23855 0.72143 0.0
H603 H 0.41205 0.32109 0.72048 0.0
H604 H 0.53395 0.14175 0.73067 0.0
H605 H 0.53474 0.41769 0.73091 0.0
H606 H 0.4504 0.2586 0.73988 0.0
H607 H 0.61782 0.30062 0.74072 0.0
C608 C 0.62144 0.23075 0.72749 0.0
C609 C 0.59623 0.18738 0.7232 0.0
C610 C 0.46894 0.29365 0.73825 0.0
C611 C 0.55046 0.25811 0.74463 0.0
C612 C 0.44748 0.32874 0.7268 0.0
C613 C 0.47288 0.37222 0.72283 0.0
C614 C 0.51747 0.30107 0.74446 0.0
C615 C 0.5161 0.38273 0.73261 0.0
C616 C 0.59937 0.2656 0.73887 0.0
C617 C 0.55251 0.17665 0.73263 0.0
N618 N 0.53812 0.34655 0.74257 0.0
N619 N 0.52992 0.21266 0.74249 0.0
H620 H 0.0714 0.40463 0.46633 0.0
H621 H 0.88861 0.27892 0.48322 0.0
H622 H 0.16869 0.28617 0.48162 0.0
H623 H 0.99463 0.16726 0.46885 0.0
H624 H 0.95195 0.32146 0.50149 0.0
H625 H 1.00805 0.36958 0.48596 0.0
C626 C 0.07911 0.37085 0.47384 0.0
C627 C 0.12321 0.34545 0.47115 0.0
C628 C 0.96106 0.28721 0.49457 0.0
C629 C 0.05122 0.30485 0.49362 0.0
C630 C 0.92526 0.26342 0.484 0.0
C631 C 0.93832 0.2224 0.47325 0.0
C632 C 1.00986 0.27027 0.49364 0.0
C633 C 0.98469 0.20138 0.4757 0.0
C634 C 0.04347 0.35147 0.48558 0.0
C635 C 0.13347 0.30463 0.48238 0.0
N636 N 1.0193 0.22619 0.4854 0.0
N637 N 0.09696 0.28448 0.49276 0.0
H638 H 0.03846 0.63336 0.23204 0.0
H639 H 0.91061 0.81514 0.214 0.0
H640 H 0.1514 0.74133 0.22153 0.0
H641 H 1.02579 0.91382 0.23167 0.0
H642 H 0.94584 0.75085 0.23311 0.0
H643 H 0.99186 0.69534 0.2495 0.0
C644 C 0.05349 0.67008 0.23358 0.0
C645 C 0.09619 0.68421 0.22403 0.0
C646 C 0.96308 0.78674 0.23339 0.0
C647 C 0.04359 0.7543 0.24334 0.0
C648 C 0.94365 0.82301 0.22194 0.0
C649 C 0.96796 0.86811 0.22017 0.0
C650 C 1.00851 0.79513 0.24227 0.0
C651 C 1.00797 0.87817 0.23183 0.0
C652 C 1.02725 0.70519 0.24364 0.0
C653 C 0.11628 0.73063 0.22744 0.0
N654 N 1.02807 0.84131 0.24202 0.0
N655 N 0.08918 0.76461 0.23654 0.0
H656 H 0.46694 1.02653 0.05451 0.0
H657 H 0.57831 0.03934 0.9499 0.0
H658 H 0.38526 0.08296 0.00758 0.0
H659 H 0.66092 0.98785 0.99741 0.0
H660 H 0.50814 0.05584 0.97053 0.0
H661 H 0.53663 1.01004 0.03373 0.0
C662 C 0.463 0.03464 0.03977 0.0
C663 C 0.41909 0.05583 0.03298 0.0
C664 C 0.54171 0.04138 0.97653 0.0
C665 C 0.5008 0.03784 0.00878 0.0
C666 C 0.58232 0.03233 0.96471 0.0
C667 C 0.62665 1.01259 0.97174 0.0
C668 C 0.5445 1.03043 0.99574 0.0
C669 C 0.62829 1.00362 0.99117 0.0
C670 C 0.50337 1.0256 0.02788 0.0
C671 C 0.41756 0.06608 0.01364 0.0
N672 N 0.58814 1.01231 1.00233 0.0
N673 N 0.45751 0.05725 1.00237 0.0
H674 H 0.79352 0.71959 0.30685 0.0
H675 H 0.77249 0.83476 0.20303 0.0
H676 H 0.733 0.63979 0.26017 0.0
H677 H 0.82998 0.91509 0.25013 0.0
H678 H 0.75726 0.76402 0.22353 0.0
H679 H 0.80899 0.78992 0.28622 0.0
C680 C 0.78431 0.7162 0.29218 0.0
C681 C 0.76231 0.67262 0.28541 0.0
C682 C 0.77278 0.79721 0.22947 0.0
C683 C 0.77907 0.75506 0.26142 0.0
C684 C 0.7811 0.83816 0.21774 0.0
C685 C 0.80218 0.88202 0.22468 0.0
C686 C 0.78576 0.79916 0.24851 0.0
C687 C 0.8132 0.88284 0.24396 0.0
C688 C 0.79278 0.75693 0.28038 0.0
C689 C 0.75061 0.67179 0.26619 0.0
N690 N 0.80513 0.84237 0.25504 0.0
N691 N 0.75887 0.71208 0.25502 0.0
H692 H 0.08649 0.03791 0.56038 0.0
H693 H 0.9798 1.02338 0.45511 0.0
H694 H 0.17139 0.98676 0.51343 0.0
H695 H 0.89492 0.07762 0.50159 0.0
H696 H 0.04881 1.0079 0.47632 0.0
H697 H 1.01693 0.05327 0.53934 0.0
C698 C 0.09117 1.03073 0.54561 0.0
C699 C 0.136 1.01136 0.53887 0.0
C700 C 1.01501 1.02276 0.48198 0.0
C701 C 0.05454 1.02793 0.51439 0.0
C702 C 0.97504 1.03122 0.46983 0.0
C703 C 0.93044 0.0515 0.47637 0.0
C704 C 1.01132 0.03471 0.50108 0.0
C705 C 0.92783 0.06147 0.49572 0.0
C706 C 0.05089 0.03911 0.53356 0.0
C707 C 0.13842 1.00213 0.51948 0.0
N708 N 0.9674 0.05324 0.50723 0.0
N709 N 0.09863 1.01023 0.50809 0.0
H710 H 0.77434 0.34735 0.80531 0.0
H711 H 0.79703 0.22775 0.70232 0.0
H712 H 0.83978 0.42364 0.75871 0.0
H713 H 0.73668 0.15035 0.74964 0.0
H714 H 0.81324 0.29891 0.72249 0.0
H715 H 0.7582 0.27668 0.78498 0.0
C716 C 0.78452 0.34993 0.79071 0.0
C717 C 0.80814 0.39262 0.78389 0.0
C718 C 0.7969 0.26625 0.72856 0.0
C719 C 0.79054 0.3097 0.76025 0.0
C720 C 0.788 0.22507 0.71702 0.0
C721 C 0.76588 0.1819 0.72413 0.0
C722 C 0.78338 0.26526 0.74755 0.0
C723 C 0.75439 0.18198 0.74337 0.0
C724 C 0.77567 0.30897 0.77909 0.0
C725 C 0.82097 0.39237 0.76476 0.0
N726 N 0.76297 0.22269 0.75425 0.0
N727 N 0.81227 0.35186 0.75376 0.0
H728 H 0.32852 0.41886 0.75088 0.0
H729 H 0.23554 0.13671 0.76093 0.0
H730 H 0.27809 0.33187 0.70432 0.0
H731 H 0.28558 0.22388 0.80749 0.0
H732 H 0.25222 0.20662 0.74006 0.0
H733 H 0.31211 0.34886 0.77172 0.0
C734 C 0.31309 0.38556 0.745 0.0
C735 C 0.3043 0.38226 0.72561 0.0
C736 C 0.26006 0.21039 0.75482 0.0
C737 C 0.28626 0.30026 0.74972 0.0
C738 C 0.25098 0.17002 0.76681 0.0
C739 C 0.25954 0.1734 0.7862 0.0
C740 C 0.27786 0.2553 0.76207 0.0
C741 C 0.27876 0.21863 0.79273 0.0
C742 C 0.30413 0.34513 0.75697 0.0
C743 C 0.28506 0.33706 0.71908 0.0
N744 N 0.28697 0.25735 0.78083 0.0
N745 N 0.27697 0.29829 0.73097 0.0
H746 H 0.28053 0.83806 0.3073 0.0
H747 H 0.29561 0.72999 0.20227 0.0
H748 H 0.33323 0.92268 0.26044 0.0
H749 H 0.24377 0.64531 0.24925 0.0
H750 H 0.31096 0.79968 0.22325 0.0
H751 H 0.26563 0.76835 0.28632 0.0
C752 C 0.28813 0.84261 0.29255 0.0
C753 C 0.30784 0.88733 0.28583 0.0
C754 C 0.29668 0.76576 0.22906 0.0
C755 C 0.29178 0.80571 0.26141 0.0
C756 C 0.28831 0.72543 0.21705 0.0
C757 C 0.26873 0.6807 0.22382 0.0
C758 C 0.28526 0.76226 0.24821 0.0
C759 C 0.25938 0.67831 0.24321 0.0
C760 C 0.28004 0.80225 0.28054 0.0
C761 C 0.31759 0.88966 0.26646 0.0
N762 N 0.26744 0.71821 0.25457 0.0
N763 N 0.30972 0.84975 0.25509 0.0
H764 H 0.0863 0.53902 0.45333 0.0
H765 H 0.97937 0.52443 0.55858 0.0
H766 H 0.17073 0.48511 0.49999 0.0
H767 H 0.89444 0.57687 0.51181 0.0
H768 H 0.04854 0.50855 0.53744 0.0
H769 H 1.01693 0.5543 0.47444 0.0
C770 C 0.09089 0.53122 0.46807 0.0
C771 C 0.13548 0.51113 0.47469 0.0
C772 C 1.01468 0.5231 0.53171 0.0
C773 C 0.05424 0.52766 0.49926 0.0
C774 C 0.97464 0.53179 0.54382 0.0
C775 C 0.92998 0.55171 0.53717 0.0
C776 C 1.01101 0.53453 0.51257 0.0
C777 C 0.9274 0.56108 0.51778 0.0
C778 C 0.05072 0.53955 0.48015 0.0
C779 C 0.13785 0.50112 0.49404 0.0
N780 N 0.96704 0.5527 0.50632 0.0
N781 N 0.09813 0.50925 0.50549 0.0
H782 H 0.67756 0.49241 0.01182 0.0
H783 H 0.3934 0.57735 1.00198 0.0
H784 H 0.58897 0.5377 0.05865 0.0
H785 H 0.48145 0.52849 0.95548 0.0
H786 H 0.46362 0.56253 0.02285 0.0
H787 H 0.60729 0.50712 0.99107 0.0
C788 C 0.64382 0.50619 0.01781 0.0
C789 C 0.64022 0.51395 0.03724 0.0
C790 C 0.46752 0.55454 0.00811 0.0
C791 C 0.55782 0.53033 0.0132 0.0
C792 C 0.42699 0.56257 0.99612 0.0
C793 C 0.43052 0.55374 0.97674 0.0
C794 C 0.51273 0.53763 1.00087 0.0
C795 C 0.47607 0.53541 0.97023 0.0
C796 C 0.60322 0.51429 0.00587 0.0
C797 C 0.59445 0.53153 0.04386 0.0
N798 N 0.51494 0.52827 0.98213 0.0
N799 N 0.55549 0.53882 0.032 0.0
H800 H 0.24192 0.30881 0.08002 0.0
H801 H 0.28018 0.44292 0.17883 0.0
H802 H 0.33231 0.25022 0.12424 0.0
H803 H 0.22678 0.52035 0.13033 0.0
H804 H 0.29573 0.37067 0.15933 0.0
H805 H 0.23014 0.38428 0.0986 0.0
C806 C 0.25887 0.31152 0.09367 0.0
C807 C 0.28808 0.27283 0.10053 0.0
C808 C 0.28113 0.40359 0.15286 0.0
C809 C 0.27491 0.35931 0.12187 0.0
C810 C 0.27251 0.44508 0.164 0.0
C811 C 0.25256 0.4882 0.15625 0.0
C812 C 0.26888 0.40441 0.13377 0.0
C813 C 0.24283 0.48829 0.13692 0.0
C814 C 0.25248 0.35481 0.10421 0.0
C815 C 0.30951 0.27887 0.11829 0.0
N816 N 0.25053 0.44699 0.12642 0.0
N817 N 0.30237 0.32092 0.12829 0.0
H818 H 0.5103 0.49754 0.33256 0.0
H819 H 0.38141 0.51602 0.43291 0.0
H820 H 0.57297 0.58009 0.37819 0.0
H821 H 0.29976 0.48492 0.38267 0.0
H822 H 0.4543 0.53335 0.41379 0.0
H823 H 0.43576 0.48411 0.35145 0.0
C824 C 0.50867 0.51238 0.34659 0.0
C825 C 0.54814 0.53995 0.35376 0.0
C826 C 0.42025 0.52328 0.40693 0.0
C827 C 0.46284 0.52474 0.37548 0.0
C828 C 0.37848 0.51363 0.41785 0.0
C829 C 0.33391 0.4995 0.40945 0.0
C830 C 0.41808 0.51768 0.38741 0.0
C831 C 0.33282 0.49641 0.38981 0.0
C832 C 0.46593 0.50507 0.35731 0.0
C833 C 0.54356 0.55867 0.37202 0.0
N834 N 0.37426 0.50481 0.37952 0.0
N835 N 0.50201 0.55055 0.38222 0.0
H836 H 0.23581 0.82196 0.63075 0.0
H837 H 0.32997 0.543 0.63285 0.0
H838 H 0.31091 0.75616 0.58402 0.0
H839 H 0.30216 0.62761 0.68268 0.0
H840 H 0.31234 0.61614 0.61392 0.0
H841 H 0.25072 0.74778 0.64908 0.0
C842 C 0.25566 0.792 0.62433 0.0
C843 C 0.27223 0.79575 0.60577 0.0
C844 C 0.30967 0.61855 0.62899 0.0
C845 C 0.2888 0.7094 0.62677 0.0
C846 C 0.3191 0.57653 0.63984 0.0
C847 C 0.31721 0.57869 0.65948 0.0
C848 C 0.29758 0.66321 0.63775 0.0
C849 C 0.30389 0.62386 0.66763 0.0
C850 C 0.26416 0.74947 0.63485 0.0
C851 C 0.29779 0.75528 0.5983 0.0
N852 N 0.29455 0.66407 0.65678 0.0
N853 N 0.30494 0.7137 0.60875 0.0
H854 H 0.06327 0.56123 0.83199 0.0
H855 H 0.18468 0.54936 0.93382 0.0
H856 H 0.99595 0.48306 0.87781 0.0
H857 H 0.26957 0.57755 0.88408 0.0
H858 H 0.11312 0.53053 0.91418 0.0
H859 H 0.13647 0.57509 0.85148 0.0
C860 C 0.06364 0.54733 0.84617 0.0
C861 C 1.02316 0.52095 0.85321 0.0
C862 C 0.14759 0.5403 0.90755 0.0
C863 C 0.10708 0.53679 0.87568 0.0
C864 C 0.18862 0.55084 0.91877 0.0
C865 C 0.23373 0.56463 0.91067 0.0
C866 C 0.15104 0.54461 0.888 0.0
C867 C 0.23608 0.56645 0.89103 0.0
C868 C 0.10564 0.55494 0.85726 0.0
C869 C 1.02615 0.50353 0.87171 0.0
N870 N 0.19536 0.55718 0.88043 0.0
N871 N 0.06707 0.51195 0.88228 0.0
H872 H 0.77199 0.54921 0.86591 0.0
H873 H 0.84511 0.81123 0.90644 0.0
H874 H 0.87293 0.64367 0.83627 0.0
H875 H 0.69326 0.76542 0.90631 0.0
H876 H 0.86523 0.74007 0.8864 0.0
H877 H 0.75038 0.61914 0.88633 0.0
C878 C 0.78921 0.58464 0.86357 0.0
C879 C 0.82372 0.59066 0.84912 0.0
C880 C 0.8276 0.74558 0.89091 0.0
C881 C 0.80091 0.66997 0.87295 0.0
C882 C 0.8162 0.7859 0.90243 0.0
C883 C 0.76745 0.79431 0.90804 0.0
C884 C 0.79028 0.71261 0.88547 0.0
C885 C 0.73131 0.76044 0.90225 0.0
C886 C 0.77704 0.62439 0.87526 0.0
C887 C 0.84548 0.6374 0.84698 0.0
N888 N 0.74345 0.72094 0.89145 0.0
N889 N 0.83425 0.67492 0.85887 0.0
H890 H 0.49341 0.47769 0.63337 0.0
H891 H 0.77113 0.57601 0.62992 0.0
H892 H 0.55844 0.55782 0.67913 0.0
H893 H 0.68524 0.54834 0.58037 0.0
H894 H 0.69844 0.55761 0.6491 0.0
H895 H 0.56723 0.49306 0.61473 0.0
C896 C 0.52314 0.49875 0.63951 0.0
C897 C 0.51937 0.51669 0.65789 0.0
C898 C 0.69568 0.55515 0.63404 0.0
C899 C 0.60505 0.53359 0.63655 0.0
C900 C 0.73736 0.56507 0.62305 0.0
C901 C 0.73461 0.56352 0.60342 0.0
C902 C 0.65088 0.54278 0.62541 0.0
C903 C 0.68936 0.54987 0.5954 0.0
C904 C 0.56539 0.50747 0.62881 0.0
C905 C 0.5594 0.54365 0.665 0.0
N906 N 0.64952 0.53999 0.60638 0.0
N907 N 0.60066 0.55092 0.6544 0.0
H908 H 0.75079 0.30132 0.42897 0.0
H909 H 0.76976 0.43 0.32854 0.0
H910 H 0.83697 0.24103 0.38387 0.0
H911 H 0.73387 0.51123 0.37842 0.0
H912 H 0.78832 0.35786 0.3479 0.0
H913 H 0.73598 0.37537 0.40993 0.0
C914 C 0.76617 0.30336 0.41503 0.0
C915 C 0.79515 0.26469 0.40805 0.0
C916 C 0.77692 0.39166 0.35464 0.0
C917 C 0.77833 0.34943 0.38616 0.0
C918 C 0.76656 0.43301 0.34358 0.0
C919 C 0.75078 0.47724 0.35181 0.0
C920 C 0.77039 0.39386 0.37412 0.0
C921 C 0.74669 0.47844 0.37142 0.0
C922 C 0.75806 0.34583 0.40422 0.0
C923 C 0.81448 0.26979 0.3899 0.0
N924 N 0.75583 0.43736 0.38185 0.0
N925 N 0.80556 0.31104 0.37961 0.0
H926 H 0.80473 0.55154 0.11763 0.0
H927 H 0.06399 0.46744 0.15748 0.0
H928 H 0.89331 0.44515 0.08822 0.0
H929 H 1.02378 0.62087 0.15773 0.0
H930 H 0.99195 0.45015 0.13751 0.0
H931 H 0.87612 0.57057 0.13767 0.0
C932 C 0.83921 0.5326 0.11525 0.0
C933 C 0.84315 0.49726 0.10101 0.0
C934 C 0.99892 0.48751 0.14207 0.0
C935 C 0.92404 0.51718 0.1244 0.0
C936 C 0.03973 0.4973 0.15355 0.0
C937 C 0.04994 0.54564 0.15926 0.0
C938 C 0.96731 0.52608 0.13677 0.0
C939 C 1.0174 0.58307 0.15359 0.0
C940 C 0.87979 0.54331 0.12672 0.0
C941 C 0.8887 0.4733 0.09878 0.0
N942 N 0.97741 0.5725 0.14283 0.0
N943 N 0.92702 0.48317 0.11047 0.0
H944 H 0.74839 0.80334 0.58289 0.0
H945 H 0.77497 0.9382 0.682 0.0
H946 H 0.83759 0.74694 0.6278 0.0
H947 H 0.73151 1.01618 0.63223 0.0
H948 H 0.7924 0.86545 0.66291 0.0
H949 H 0.73426 0.87869 0.60131 0.0
C950 C 0.76459 0.80644 0.59666 0.0
C951 C 0.79414 0.76833 0.60378 0.0
C952 C 0.77957 0.89864 0.65611 0.0
C953 C 0.77814 0.85461 0.62496 0.0
C954 C 0.76987 0.94038 0.66702 0.0
C955 C 0.7523 0.98388 0.65876 0.0
C956 C 0.77067 0.89965 0.63675 0.0
C957 C 0.74577 0.98396 0.63923 0.0
C958 C 0.75684 0.84966 0.60712 0.0
C959 C 0.81452 0.77495 0.62168 0.0
N960 N 0.75439 0.94248 0.62895 0.0
N961 N 0.806 0.81683 0.63162 0.0
H962 H 0.78933 0.97214 0.879 0.0
H963 H 0.06019 0.08872 0.87604 0.0
H964 H 0.86547 1.02586 0.92775 0.0
H965 H 1.00703 0.99284 0.83253 0.0
H966 H 0.98476 0.07452 0.89359 0.0
H967 H 0.86309 0.9894 0.86016 0.0
C968 C 0.82106 0.98859 0.88569 0.0
C969 C 0.82085 0.99786 0.90504 0.0
C970 C 0.98949 0.05633 0.88025 0.0
C971 C 0.9058 1.01713 0.88351 0.0
C972 C 0.03286 0.06432 0.87018 0.0
C973 C 0.04064 0.04164 0.85278 0.0
C974 C 0.95254 1.02593 0.87285 0.0
C975 C 1.00309 1.01078 0.84595 0.0
C976 C 0.86341 0.99783 0.87494 0.0
C977 C 0.86363 1.01829 0.91291 0.0
N978 N 0.96062 1.00407 0.85592 0.0
N979 N 0.90409 1.02722 0.90217 0.0
H980 H 0.80501 0.13335 0.18514 0.0
H981 H 0.80134 0.25725 0.08352 0.0
H982 H 0.81884 0.04951 0.1343 0.0
H983 H 0.74364 0.32985 0.13238 0.0
H984 H 0.8146 0.18271 0.10226 0.0
H985 H 0.78667 0.20678 0.16649 0.0
C986 C 0.80344 0.13006 0.17008 0.0
C987 C 0.81323 0.0847 0.16136 0.0
C988 C 0.79901 0.21495 0.10888 0.0
C989 C 0.79362 0.1695 0.13979 0.0
C990 C 0.79181 0.25772 0.09821 0.0
C991 C 0.77116 0.30005 0.10632 0.0
C992 C 0.78618 0.21445 0.12794 0.0
C993 C 0.75923 0.2981 0.12544 0.0
C994 C 0.7932 0.17218 0.15941 0.0
C995 C 0.8111 0.08322 0.14172 0.0
N996 N 0.76707 0.25628 0.13557 0.0
N997 N 0.80212 0.12492 0.13164 0.0
H998 H 0.68879 0.04202 0.43252 0.0
H999 H 0.56162 0.06358 0.33187 0.0
H1000 H 0.77066 0.07965 0.38294 0.0
H1001 H 0.49885 0.97992 0.37723 0.0
H1002 H 0.63591 0.07702 0.3509 0.0
H1003 H 0.6169 1.02423 0.41299 0.0
C1004 C 0.69201 0.04572 0.4175 0.0
C1005 C 0.73632 0.06184 0.40941 0.0
C1006 C 0.60579 0.05577 0.35666 0.0
C1007 C 0.65317 0.04308 0.3869 0.0
C1008 C 0.56319 0.04844 0.34586 0.0
C1009 C 0.52371 1.02062 0.35291 0.0
C1010 C 0.60874 0.03582 0.3748 0.0
C1011 C 0.52822 1.00155 0.37112 0.0
C1012 C 0.65077 0.03582 0.40634 0.0
C1013 C 0.73777 0.06657 0.38983 0.0
N1014 N 0.56962 1.00967 0.3814 0.0
N1015 N 0.6968 0.05783 0.3793 0.0
H1016 H 0.23431 0.32617 0.38163 0.0
H1017 H 0.32989 0.04835 0.37754 0.0
H1018 H 0.31111 0.25831 0.4276 0.0
H1019 H 0.30977 0.13609 0.32796 0.0
H1020 H 0.31093 0.12044 0.3967 0.0
H1021 H 0.25118 0.25354 0.36246 0.0
C1022 C 0.25494 0.29607 0.38771 0.0
C1023 C 0.27148 0.29866 0.40631 0.0
C1024 C 0.31028 0.12382 0.38163 0.0
C1025 C 0.29005 0.21445 0.38438 0.0
C1026 C 0.32055 0.08239 0.37062 0.0
C1027 C 0.32122 0.08566 0.351 0.0
C1028 C 0.29976 0.16909 0.37305 0.0
C1029 C 0.30955 0.13149 0.34298 0.0
C1030 C 0.26453 0.25455 0.37671 0.0
C1031 C 0.29797 0.25825 0.41333 0.0
N1032 N 0.2992 0.1712 0.35399 0.0
N1033 N 0.30601 0.21772 0.40244 0.0
H1034 H 0.05341 0.06227 0.17821 0.0
H1035 H 0.17618 0.05036 0.07648 0.0
H1036 H 0.98951 0.98088 0.13253 0.0
H1037 H 0.25979 0.08417 0.126 0.0
H1038 H 0.10512 1.0305 0.09623 0.0
H1039 H 0.12642 0.07826 0.15875 0.0
C1040 C 0.05446 0.04814 0.16407 0.0
C1041 C 1.01504 1.0202 0.15705 0.0
C1042 C 0.1392 0.04175 0.1028 0.0
C1043 C 0.09863 0.03841 0.13465 0.0
C1044 C 0.17995 0.05288 0.09151 0.0
C1045 C 0.22455 0.06845 0.09952 0.0
C1046 C 0.14239 0.04724 0.12231 0.0
C1047 C 0.2267 0.07158 0.11914 0.0
C1048 C 0.09634 0.05695 0.153 0.0
C1049 C 1.01887 1.00252 0.13861 0.0
N1050 N 0.18622 0.06166 0.12981 0.0
N1051 N 0.05958 1.01209 0.12809 0.0
H1052 H 0.23345 1.01754 0.87964 0.0
H1053 H 0.33401 0.74081 0.88435 0.0
H1054 H 0.26163 0.93004 0.83054 0.0
H1055 H 0.25403 0.8066 0.92998 0.0
H1056 H 0.31788 0.81387 0.86541 0.0
H1057 H 0.25246 0.9457 0.8992 0.0
C1058 C 0.24458 0.9836 0.87295 0.0
C1059 C 0.24613 0.98014 0.85333 0.0
C1060 C 0.30367 0.81237 0.87954 0.0
C1061 C 0.26761 0.89739 0.87576 0.0
C1062 C 0.31283 0.77055 0.89041 0.0
C1063 C 0.29516 0.76719 0.90884 0.0
C1064 C 0.27733 0.85205 0.88713 0.0
C1065 C 0.26803 0.80724 0.91583 0.0
C1066 C 0.25487 0.94239 0.88415 0.0
C1067 C 0.26007 0.9347 0.84555 0.0
N1068 N 0.26029 0.84809 0.90504 0.0
N1069 N 0.27032 0.89536 0.85674 0.0
H1070 H 0.51347 0.99886 0.68023 0.0
H1071 H 0.38061 1.01702 0.58067 0.0
H1072 H 0.57178 0.08432 0.63451 0.0
H1073 H 0.30021 0.9838 0.63107 0.0
H1074 H 0.45349 0.03524 0.59959 0.0
H1075 H 0.43819 0.98433 0.66182 0.0
C1076 C 0.51074 1.01411 0.66628 0.0
C1077 C 0.54923 0.0428 0.65894 0.0
C1078 C 0.41977 1.02446 0.60655 0.0
C1079 C 0.46313 1.02632 0.63779 0.0
C1080 C 0.37799 1.0143 0.59574 0.0
C1081 C 0.33384 0.99927 0.60423 0.0
C1082 C 0.41811 1.01851 0.62606 0.0
C1083 C 0.33311 0.99585 0.62387 0.0
C1084 C 0.46758 1.00618 0.65585 0.0
C1085 C 0.54322 0.06203 0.64081 0.0
N1086 N 0.37465 1.00477 0.63407 0.0
N1087 N 0.50136 0.05326 0.63089 0.0
H1088 H 0.13639 0.1603 0.99173 0.0
H1089 H 0.25447 0.25727 0.89843 0.0
H1090 H 0.25804 0.26198 0.99155 0.0
H1091 H 0.10677 0.20054 0.90098 0.0
H1092 H 0.25455 0.26528 0.93261 0.0
H1093 H 0.12161 0.1791 0.95873 0.0
C1094 C 0.15969 0.18686 0.98472 0.0
C1095 C 0.19969 0.20807 0.99403 0.0
C1096 C 0.2218 0.25176 0.92569 0.0
C1097 C 0.18344 0.22971 0.95647 0.0
C1098 C 0.22182 0.2474 0.90625 0.0
C1099 C 0.18118 0.22678 0.89717 0.0
C1100 C 0.18093 0.23496 0.93594 0.0
C1101 C 0.13946 0.21474 0.90771 0.0
C1102 C 0.15132 0.19766 0.96594 0.0
C1103 C 0.22839 0.24297 0.98454 0.0
N1104 N 0.14068 0.21809 0.92661 0.0
N1105 N 0.22033 0.25204 0.96614 0.0
H1106 H 0.53928 0.49483 0.15302 0.0
H1107 H 0.66361 0.38938 0.24524 0.0
H1108 H 0.65519 0.38681 0.15404 0.0
H1109 H 0.55424 0.5039 0.24513 0.0
H1110 H 0.64625 0.3737 0.2122 0.0
H1111 H 0.53 0.48533 0.18694 0.0
C1112 C 0.56157 0.46797 0.16031 0.0
C1113 C 0.59742 0.44104 0.15067 0.0
C1114 C 0.62567 0.40201 0.21941 0.0
C1115 C 0.58809 0.43068 0.18932 0.0
C1116 C 0.63556 0.4108 0.23823 0.0
C1117 C 0.61167 0.44919 0.24755 0.0
C1118 C 0.59163 0.43195 0.20994 0.0
C1119 C 0.57495 0.47545 0.23809 0.0
C1120 C 0.55647 0.46264 0.17962 0.0
C1121 C 0.62599 0.40715 0.16071 0.0
N1122 N 0.56659 0.46695 0.21968 0.0
N1123 N 0.62112 0.40342 0.1795 0.0
H1124 H 0.32475 0.95421 0.48906 0.0
H1125 H 0.42301 0.80321 0.40286 0.0
H1126 H 0.38208 0.80862 0.49849 0.0
H1127 H 0.2961 0.89755 0.40043 0.0
H1128 H 0.41976 0.80674 0.43736 0.0
H1129 H 0.32923 0.94025 0.4554 0.0
C1130 C 0.33839 0.91932 0.48394 0.0
C1131 C 0.3517 0.88194 0.49637 0.0
C1132 C 0.39224 0.82592 0.4292 0.0
C1133 C 0.35772 0.86587 0.45808 0.0
C1134 C 0.39386 0.82356 0.40967 0.0
C1135 C 0.36008 0.85067 0.39907 0.0
C1136 C 0.3571 0.8562 0.43784 0.0
C1137 C 0.32311 0.87689 0.40828 0.0
C1138 C 0.34085 0.91129 0.46482 0.0
C1139 C 0.37104 0.83799 0.48918 0.0
N1140 N 0.32308 0.87974 0.42716 0.0
N1141 N 0.37329 0.83088 0.47036 0.0
H1142 H 0.95541 0.70346 0.65186 0.0
H1143 H 1.02058 0.54519 0.74253 0.0
H1144 H 1.01114 0.5554 0.64959 0.0
H1145 H 0.92289 0.66993 0.74258 0.0
H1146 H 0.03721 0.55918 0.70931 0.0
H1147 H 0.96408 0.70254 0.68594 0.0
C1148 C 0.96979 0.67091 0.65865 0.0
C1149 C 0.98109 0.62884 0.64822 0.0
C1150 C 1.01241 0.58367 0.71663 0.0
C1151 C 0.99189 0.62761 0.68686 0.0
C1152 C 1.00252 0.5754 0.73548 0.0
C1153 C 0.96864 0.60521 0.74496 0.0
C1154 C 0.98883 0.62255 0.70736 0.0
C1155 C 0.94844 0.64562 0.73557 0.0
C1156 C 0.97497 0.67043 0.67799 0.0
C1157 C 1.00152 0.58819 0.65735 0.0
N1158 N 0.95833 0.65278 0.71718 0.0
N1159 N 1.00562 0.58823 0.67627 0.0
H1160 H 0.91759 0.80557 0.10711 0.0
H1161 H 0.82148 0.9613 0.02182 0.0
H1162 H 0.78833 0.89669 0.10935 0.0
H1163 H 0.87986 0.81693 0.01109 0.0
H1164 H 0.82574 0.94509 0.05543 0.0
H1165 H 0.91643 0.81155 0.07263 0.0
C1166 C 0.88834 0.82564 0.10024 0.0
C1167 C 0.85328 0.85121 0.1108 0.0
C1168 C 0.83794 0.91699 0.04575 0.0
C1169 C 0.85269 0.85958 0.07212 0.0
C1170 C 0.83597 0.92648 0.02672 0.0
C1171 C 0.84975 0.89009 0.01399 0.0
C1172 C 0.85456 0.87102 0.05204 0.0
C1173 C 0.86878 0.84556 0.02071 0.0
C1174 C 0.88793 0.82942 0.08074 0.0
C1175 C 0.81624 0.87716 0.10153 0.0
N1176 N 0.87048 0.83696 0.03945 0.0
N1177 N 0.81739 0.88147 0.0827 0.0
H1178 H 0.51415 0.67332 0.8601 0.0
H1179 H 0.36665 0.56517 0.77498 0.0
H1180 H 0.42869 0.54019 0.86313 0.0
H1181 H 0.50783 0.63133 0.76441 0.0
H1182 H 0.38222 0.57032 0.80858 0.0
H1183 H 0.5104 0.66915 0.82562 0.0
C1184 C 0.49592 0.64257 0.85341 0.0
C1185 C 0.4713 0.60719 0.86416 0.0
C1186 C 0.40985 0.58383 0.79894 0.0
C1187 C 0.4654 0.60311 0.82545 0.0
C1188 C 0.40075 0.58124 0.7799 0.0
C1189 C 0.43649 0.59697 0.76722 0.0
C1190 C 0.45467 0.6032 0.8053 0.0
C1191 C 0.47982 0.61848 0.774 0.0
C1192 C 0.49341 0.64042 0.8339 0.0
C1193 C 0.44761 0.56824 0.85513 0.0
N1194 N 0.488 0.62088 0.79275 0.0
N1195 N 0.44444 0.56768 0.83628 0.0
H1196 H 0.63717 0.26311 0.6093 0.0
H1197 H 0.73899 0.11165 0.52468 0.0
H1198 H 0.77201 0.1805 0.61159 0.0
H1199 H 0.68039 0.25547 0.51302 0.0
H1200 H 0.73399 0.12903 0.55818 0.0
H1201 H 0.63956 0.25845 0.5748 0.0
C1202 C 0.66794 0.24542 0.60244 0.0
C1203 C 0.70432 0.22178 0.61299 0.0
C1204 C 0.72195 0.15674 0.54831 0.0
C1205 C 0.70633 0.21476 0.57431 0.0
C1206 C 0.72436 0.14663 0.52934 0.0
C1207 C 0.71082 0.18257 0.5164 0.0
C1208 C 0.70499 0.20284 0.55431 0.0
C1209 C 0.69141 0.22723 0.52283 0.0
C1210 C 0.66907 0.24239 0.58292 0.0
C1211 C 0.74326 0.19872 0.60374 0.0
N1212 N 0.6892 0.23644 0.54151 0.0
N1213 N 0.74277 0.19489 0.58491 0.0
H1214 H 0.05513 0.39104 0.35785 0.0
H1215 H 0.21256 0.48575 0.27338 0.0
H1216 H 0.14095 0.52409 0.35973 0.0
H1217 H 0.06787 0.4298 0.26138 0.0
H1218 H 0.19403 0.4822 0.30684 0.0
H1219 H 0.0616 0.39151 0.32338 0.0
C1220 C 0.07395 0.42104 0.3509 0.0
C1221 C 0.09798 0.4574 0.36136 0.0
C1222 C 0.16641 0.47033 0.2969 0.0
C1223 C 0.10704 0.45717 0.32271 0.0
C1224 C 0.17719 0.47187 0.27796 0.0
C1225 C 0.14137 0.45865 0.26492 0.0
C1226 C 0.11974 0.45462 0.30277 0.0
C1227 C 0.09608 0.44042 0.27125 0.0
C1228 C 0.07803 0.42105 0.3314 0.0
C1229 C 0.12247 0.49532 0.35198 0.0
N1230 N 0.08622 0.43908 0.2899 0.0
N1231 N 0.12727 0.49372 0.33318 0.0
H1232 H 0.77816 0.67458 0.39851 0.0
H1233 H 0.68001 0.75364 0.49836 0.0
H1234 H 0.64341 0.75695 0.40219 0.0
H1235 H 0.74781 0.61407 0.48646 0.0
H1236 H 0.67535 0.77033 0.4644 0.0
H1237 H 0.78183 0.67103 0.43264 0.0
C1238 C 0.75009 0.693 0.40666 0.0
C1239 C 0.71031 0.71569 0.39781 0.0
C1240 C 0.69094 0.73602 0.46932 0.0
C1241 C 0.71356 0.71126 0.43655 0.0
C1242 C 0.69326 0.72645 0.48852 0.0
C1243 C 0.71511 0.6829 0.49492 0.0
C1244 C 0.71132 0.70194 0.45678 0.0
C1245 C 0.73163 0.64841 0.48189 0.0
C1246 C 0.75181 0.69057 0.42601 0.0
C1247 C 0.67461 0.73925 0.40874 0.0
N1248 N 0.73015 0.65898 0.46342 0.0
N1249 N 0.6767 0.73603 0.42771 0.0
H1250 H 0.11431 0.85905 0.65344 0.0
H1251 H 0.05255 1.01214 0.74566 0.0
H1252 H 0.05837 1.00713 0.65263 0.0
H1253 H 0.15546 0.8918 0.7439 0.0
H1254 H 0.03381 0.99868 0.71259 0.0
H1255 H 0.108 0.8585 0.68762 0.0
C1256 C 0.10029 0.89125 0.66057 0.0
C1257 C 0.08833 0.93379 0.65051 0.0
C1258 C 0.06021 0.97501 0.71949 0.0
C1259 C 0.08014 0.93329 0.68925 0.0
C1260 C 0.07128 0.98299 0.73824 0.0
C1261 C 0.10722 0.95437 0.74715 0.0
C1262 C 0.08465 0.93755 0.70973 0.0
C1263 C 0.12831 0.91519 0.73732 0.0
C1264 C 0.0965 0.8909 0.67996 0.0
C1265 C 0.06847 0.97399 0.66008 0.0
N1266 N 0.1172 0.90826 0.71901 0.0
N1267 N 0.06562 0.9731 0.67904 0.0
H1268 H 0.91203 0.30131 0.90028 0.0
H1269 H 0.82259 0.44811 0.98866 0.0
H1270 H 0.79078 0.40306 0.89926 0.0
H1271 H 0.87045 0.29827 0.99586 0.0
H1272 H 0.82598 0.4374 0.95483 0.0
H1273 H 0.90839 0.30093 0.93478 0.0
C1274 C 0.88407 0.32263 0.90738 0.0
C1275 C 0.85223 0.35304 0.8972 0.0
C1276 C 0.8357 0.40677 0.96379 0.0
C1277 C 0.84871 0.35384 0.936 0.0
C1278 C 0.83382 0.41293 0.983 0.0
C1279 C 0.8448 0.37352 0.99484 0.0
C1280 C 0.84967 0.36113 0.95636 0.0
C1281 C 0.86122 0.32919 0.987 0.0
C1282 C 0.88221 0.32268 0.92691 0.0
C1283 C 0.81656 0.38011 0.90679 0.0
N1284 N 0.86299 0.32394 0.96809 0.0
N1285 N 0.8163 0.38061 0.92569 0.0
H1286 H 0.50992 0.13614 0.24498 0.0
H1287 H 0.42025 0.04185 0.14541 0.0
H1288 H 0.37328 0.06042 0.23507 0.0
H1289 H 0.5067 0.17411 0.14957 0.0
H1290 H 0.41968 0.0353 0.17949 0.0
H1291 H 0.52263 0.14219 0.21082 0.0
C1292 C 0.48261 0.12121 0.23554 0.0
C1293 C 0.44109 0.09684 0.24256 0.0
C1294 C 0.43931 0.0655 0.17298 0.0
C1295 C 0.45553 0.10254 0.20413 0.0
C1296 C 0.43996 0.06888 0.15364 0.0
C1297 C 0.4631 0.10873 0.14495 0.0
C1298 C 0.46217 0.10221 0.18369 0.0
C1299 C 0.48854 0.14292 0.15598 0.0
C1300 C 0.48991 0.12439 0.21621 0.0
C1301 C 0.40625 0.07842 0.23002 0.0
N1302 N 0.48704 0.13924 0.17495 0.0
N1303 N 0.41456 0.08102 0.2114 0.0
H1304 H 0.28861 0.38104 0.61345 0.0
H1305 H 0.3837 0.30457 0.51277 0.0
H1306 H 0.42349 0.29935 0.60855 0.0
H1307 H 0.31386 0.44266 0.52544 0.0
H1308 H 0.38918 0.28694 0.54664 0.0
H1309 H 0.28285 0.38473 0.57937 0.0
C1310 C 0.31626 0.3628 0.60505 0.0
C1311 C 0.35667 0.34024 0.61352 0.0
C1312 C 0.37285 0.32108 0.5419 0.0
C1313 C 0.35108 0.34487 0.57485 0.0
C1314 C 0.37004 0.33118 0.52276 0.0
C1315 C 0.3474 0.37456 0.5166 0.0
C1316 C 0.35224 0.35451 0.55463 0.0
C1317 C 0.3305 0.40837 0.52982 0.0
C1318 C 0.31335 0.3653 0.58572 0.0
C1319 C 0.39183 0.31694 0.60228 0.0
N1320 N 0.33255 0.39732 0.54823 0.0
N1321 N 0.38861 0.32027 0.58334 0.0
H1322 H 0.93766 0.03419 0.36503 0.0
H1323 H 1.01026 0.13013 0.26388 0.0
H1324 H 1.0146 0.17184 0.35943 0.0
H1325 H 0.87503 0.05516 0.277 0.0
H1326 H 1.02848 0.13604 0.29769 0.0
H1327 H 0.9348 1.0268 0.33097 0.0
C1328 C 0.95515 0.06209 0.35648 0.0
C1329 C 0.9761 0.10369 0.36475 0.0
C1330 C 0.99492 0.11833 0.29306 0.0
C1331 C 0.97228 0.0963 0.32611 0.0
C1332 C 0.98449 0.11523 0.27395 0.0
C1333 C 0.9418 0.09103 0.26792 0.0
C1334 C 0.96252 0.09651 0.3059 0.0
C1335 C 0.90896 0.07277 0.28125 0.0
C1336 C 0.95309 0.05824 0.33717 0.0
C1337 C 0.99831 0.13923 0.35334 0.0
N1338 N 0.92033 0.07521 0.29963 0.0
N1339 N 0.99537 0.1351 0.33441 0.0
H1340 H 0.11549 0.74035 0.11005 0.0
H1341 H 0.25656 0.62269 0.02814 0.0
H1342 H 0.27188 0.71819 0.11346 0.0
H1343 H 0.16823 0.74854 0.01373 0.0
H1344 H 0.2477 0.64363 0.06128 0.0
H1345 H 0.12077 0.73483 0.07564 0.0
C1346 C 0.15101 0.73606 0.10341 0.0
C1347 C 0.1935 0.73035 0.11426 0.0
C1348 C 0.23032 0.66665 0.05083 0.0
C1349 C 0.19942 0.72171 0.0757 0.0
C1350 C 0.23531 0.65476 0.03207 0.0
C1351 C 0.21468 0.68518 0.01841 0.0
C1352 C 0.20291 0.70815 0.05592 0.0
C1353 C 0.18541 0.725 0.02403 0.0
C1354 C 0.15397 0.73261 0.08397 0.0
C1355 C 0.23869 0.72348 0.10535 0.0
N1356 N 0.18034 0.73562 0.04252 0.0
N1357 N 0.24041 0.71823 0.08654 0.0
H1358 H 0.592 1.01701 0.86252 0.0
H1359 H 0.57172 0.91349 0.76034 0.0
H1360 H 0.57523 0.86033 0.8566 0.0
H1361 H 0.69279 1.00448 0.77807 0.0
H1362 H 0.54864 0.90126 0.79346 0.0
H1363 H 0.60044 1.02431 0.82846 0.0
C1364 C 0.5882 0.98452 0.85387 0.0
C1365 C 0.58258 0.93816 0.86205 0.0
C1366 C 0.58007 0.924 0.78995 0.0
C1367 C 0.59258 0.9459 0.82361 0.0
C1368 C 0.59329 0.93075 0.77124 0.0
C1369 C 0.63302 0.96144 0.76668 0.0
C1370 C 0.60651 0.94885 0.80386 0.0
C1371 C 0.66064 0.98236 0.78113 0.0
C1372 C 0.59358 0.98853 0.83462 0.0
C1373 C 0.57906 0.89661 0.85053 0.0
N1374 N 0.6463 0.97652 0.79911 0.0
N1375 N 0.5844 0.90132 0.83173 0.0
loop_
_geom_bond_atom_site_label_1
_geom_bond_atom_site_label_2
_geom_bond_distance
_geom_bond_site_symmetry_2
_ccdc_geom_bond_type
Zn0 O1 2.055 . S
Zn0 O8 2.046 . S
Zn0 N16 2.036 . S
Zn0 O28 2.053 . S
Zn0 O30 2.066 . S
O1 Zn0 2.055 . S
O1 C4 1.259 . S
C2 O30 1.256 . S
C2 O31 1.244 . S
Zn3 O5 2.046 . S
Zn3 O7 2.055 . S
Zn3 N9 2.036 . S
Zn3 O27 2.066 . S
Zn3 O31 2.053 . S
C4 O1 1.259 . S
C4 O5 1.254 . S
O5 Zn3 2.046 . S
O5 C4 1.254 . S
C6 O27 1.256 . S
C6 O28 1.244 . S
O7 Zn3 2.055 . S
O7 C29 1.259 . S
O8 Zn0 2.046 . S
O8 C29 1.254 . S
N9 Zn3 2.036 . S
N9 C10 1.298 . S
N9 N12 1.398 . S
C10 N9 1.298 . S
C10 N13 1.367 . S
C10 C23 1.481 . S
C11 N12 1.299 . S
C11 N13 1.379 . S
N12 N9 1.398 . S
N12 C11 1.299 . S
N13 C10 1.367 . S
N13 C11 1.379 . S
C14 N16 1.298 . S
C14 N18 1.367 . S
C14 C22 1.481 . S
C15 N17 1.299 . S
C15 N18 1.379 . S
N16 Zn0 2.036 . S
N16 C14 1.298 . S
N16 N17 1.398 . S
N17 C15 1.299 . S
N17 N16 1.398 . S
N18 C14 1.367 . S
N18 C15 1.379 . S
H19 C22 0.980 . S
H20 C22 0.981 . S
H21 C22 0.981 . S
C22 C14 1.481 . S
C22 H19 0.980 . S
C22 H20 0.981 . S
C22 H21 0.981 . S
C23 C10 1.481 . S
C23 H24 0.980 . S
C23 H25 0.981 . S
C23 H26 0.981 . S
H24 C23 0.980 . S
H25 C23 0.981 . S
H26 C23 0.981 . S
O27 Zn3 2.066 . S
O27 C6 1.256 . S
O28 Zn0 2.053 . S
O28 C6 1.244 . S
C29 O7 1.259 . S
C29 O8 1.254 . S
O30 Zn0 2.066 . S
O30 C2 1.256 . S
O31 C2 1.244 . S
O31 Zn3 2.053 . S
Zn32 O33 2.055 . S
Zn32 O40 2.046 . S
Zn32 N48 2.036 . S
Zn32 O60 2.053 . S
Zn32 O62 2.066 . S
O33 Zn32 2.055 . S
O33 C36 1.259 . S
C34 O62 1.256 . S
C34 O63 1.244 . S
Zn35 O37 2.046 . S
Zn35 O39 2.055 . S
Zn35 N41 2.036 . S
Zn35 O59 2.066 . S
Zn35 O63 2.053 . S
C36 O33 1.259 . S
C36 O37 1.254 . S
O37 Zn35 2.046 . S
O37 C36 1.254 . S
C38 O59 1.256 . S
C38 O60 1.244 . S
O39 Zn35 2.055 . S
O39 C61 1.259 . S
O40 Zn32 2.046 . S
O40 C61 1.254 . S
N41 Zn35 2.036 . S
N41 C42 1.298 . S
N41 N44 1.398 . S
C42 N41 1.298 . S
C42 N45 1.367 . S
C42 C55 1.481 . S
C43 N44 1.299 . S
C43 N45 1.379 . S
N44 N41 1.398 . S
N44 C43 1.299 . S
N45 C42 1.367 . S
N45 C43 1.379 . S
C46 N48 1.298 . S
C46 N50 1.367 . S
C46 C54 1.481 . S
C47 N49 1.299 . S
C47 N50 1.379 . S
N48 Zn32 2.036 . S
N48 C46 1.298 . S
N48 N49 1.398 . S
N49 C47 1.299 . S
N49 N48 1.398 . S
N50 C46 1.367 . S
N50 C47 1.379 . S
H51 C54 0.980 . S
H52 C54 0.981 . S
H53 C54 0.981 . S
C54 C46 1.481 . S
C54 H51 0.980 . S
C54 H52 0.981 . S
C54 H53 0.981 . S
C55 C42 1.481 . S
C55 H56 0.980 . S
C55 H57 0.981 . S
C55 H58 0.981 . S
H56 C55 0.980 . S
H57 C55 0.981 . S
H58 C55 0.981 . S
O59 Zn35 2.066 . S
O59 C38 1.256 . S
O60 Zn32 2.053 . S
O60 C38 1.244 . S
C61 O39 1.259 . S
C61 O40 1.254 . S
O62 Zn32 2.066 . S
O62 C34 1.256 . S
O63 C34 1.244 . S
O63 Zn35 2.053 . S
Zn64 O65 2.055 . S
Zn64 O72 2.046 . S
Zn64 N80 2.036 . S
Zn64 O92 2.053 . S
Zn64 O94 2.066 . S
O65 Zn64 2.055 . S
O65 C68 1.259 . S
C66 O94 1.256 . S
C66 O95 1.244 . S
Zn67 O69 2.046 . S
Zn67 O71 2.055 . S
Zn67 N73 2.036 . S
Zn67 O91 2.066 . S
Zn67 O95 2.053 . S
C68 O65 1.259 . S
C68 O69 1.254 . S
O69 Zn67 2.046 . S
O69 C68 1.254 . S
C70 O91 1.256 . S
C70 O92 1.244 . S
O71 Zn67 2.055 . S
O71 C93 1.259 . S
O72 Zn64 2.046 . S
O72 C93 1.254 . S
N73 Zn67 2.036 . S
N73 C74 1.298 . S
N73 N76 1.398 . S
C74 N73 1.298 . S
C74 N77 1.367 . S
C74 C87 1.481 . S
C75 N76 1.299 . S
C75 N77 1.379 . S
N76 N73 1.398 . S
N76 C75 1.299 . S
N77 C74 1.367 . S
N77 C75 1.379 . S
C78 N80 1.298 . S
C78 N82 1.367 . S
C78 C86 1.481 . S
C79 N81 1.299 . S
C79 N82 1.379 . S
N80 Zn64 2.036 . S
N80 C78 1.298 . S
N80 N81 1.398 . S
N81 C79 1.299 . S
N81 N80 1.398 . S
N82 C78 1.367 . S
N82 C79 1.379 . S
H83 C86 0.980 . S
H84 C86 0.981 . S
H85 C86 0.981 . S
C86 C78 1.481 . S
C86 H83 0.980 . S
C86 H84 0.981 . S
C86 H85 0.981 . S
C87 C74 1.481 . S
C87 H88 0.980 . S
C87 H89 0.981 . S
C87 H90 0.981 . S
H88 C87 0.980 . S
H89 C87 0.981 . S
H90 C87 0.981 . S
O91 Zn67 2.066 . S
O91 C70 1.256 . S
O92 Zn64 2.053 . S
O92 C70 1.244 . S
C93 O71 1.259 . S
C93 O72 1.254 . S
O94 Zn64 2.066 . S
O94 C66 1.256 . S
O95 C66 1.244 . S
O95 Zn67 2.053 . S
Zn96 O97 2.055 . S
Zn96 O104 2.046 . S
Zn96 N112 2.036 . S
Zn96 O124 2.053 . S
Zn96 O126 2.066 . S
O97 Zn96 2.055 . S
O97 C100 1.259 . S
C98 O126 1.256 . S
C98 O127 1.244 . S
Zn99 O101 2.046 . S
Zn99 O103 2.055 . S
Zn99 N105 2.036 . S
Zn99 O123 2.066 . S
Zn99 O127 2.053 . S
C100 O97 1.259 . S
C100 O101 1.254 . S
O101 Zn99 2.046 . S
O101 C100 1.254 . S
C102 O123 1.256 . S
C102 O124 1.244 . S
O103 Zn99 2.055 . S
O103 C125 1.259 . S
O104 Zn96 2.046 . S
O104 C125 1.254 . S
N105 Zn99 2.036 . S
N105 C106 1.298 . S
N105 N108 1.398 . S
C106 N105 1.298 . S
C106 N109 1.367 . S
C106 C119 1.481 . S
C107 N108 1.299 . S
C107 N109 1.379 . S
N108 N105 1.398 . S
N108 C107 1.299 . S
N109 C106 1.367 . S
N109 C107 1.379 . S
C110 N112 1.298 . S
C110 N114 1.367 . S
C110 C118 1.481 . S
C111 N113 1.299 . S
C111 N114 1.379 . S
N112 Zn96 2.036 . S
N112 C110 1.298 . S
N112 N113 1.398 . S
N113 C111 1.299 . S
N113 N112 1.398 . S
N114 C110 1.367 . S
N114 C111 1.379 . S
H115 C118 0.980 . S
H116 C118 0.981 . S
H117 C118 0.981 . S
C118 C110 1.481 . S
C118 H115 0.980 . S
C118 H116 0.981 . S
C118 H117 0.981 . S
C119 C106 1.481 . S
C119 H120 0.980 . S
C119 H121 0.981 . S
C119 H122 0.981 . S
H120 C119 0.980 . S
H121 C119 0.981 . S
H122 C119 0.981 . S
O123 Zn99 2.066 . S
O123 C102 1.256 . S
O124 Zn96 2.053 . S
O124 C102 1.244 . S
C125 O103 1.259 . S
C125 O104 1.254 . S
O126 Zn96 2.066 . S
O126 C98 1.256 . S
O127 C98 1.244 . S
O127 Zn99 2.053 . S
Zn128 O129 2.055 . S
Zn128 O136 2.046 . S
Zn128 N144 2.036 . S
Zn128 O156 2.053 . S
Zn128 O158 2.066 . S
O129 Zn128 2.055 . S
O129 C132 1.259 . S
C130 O158 1.256 . S
C130 O159 1.244 . S
Zn131 O133 2.046 . S
Zn131 O135 2.055 . S
Zn131 N137 2.036 . S
Zn131 O155 2.066 . S
Zn131 O159 2.053 . S
C132 O129 1.259 . S
C132 O133 1.254 . S
O133 Zn131 2.046 . S
O133 C132 1.254 . S
C134 O155 1.256 . S
C134 O156 1.244 . S
O135 Zn131 2.055 . S
O135 C157 1.259 . S
O136 Zn128 2.046 . S
O136 C157 1.254 . S
N137 Zn131 2.036 . S
N137 C138 1.298 . S
N137 N140 1.398 . S
C138 N137 1.298 . S
C138 N141 1.367 . S
C138 C151 1.481 . S
C139 N140 1.299 . S
C139 N141 1.379 . S
N140 N137 1.398 . S
N140 C139 1.299 . S
N141 C138 1.367 . S
N141 C139 1.379 . S
C142 N144 1.298 . S
C142 N146 1.367 . S
C142 C150 1.481 . S
C143 N145 1.299 . S
C143 N146 1.379 . S
N144 Zn128 2.036 . S
N144 C142 1.298 . S
N144 N145 1.398 . S
N145 C143 1.299 . S
N145 N144 1.398 . S
N146 C142 1.367 . S
N146 C143 1.379 . S
H147 C150 0.980 . S
H148 C150 0.981 . S
H149 C150 0.981 . S
C150 C142 1.481 . S
C150 H147 0.980 . S
C150 H148 0.981 . S
C150 H149 0.981 . S
C151 C138 1.481 . S
C151 H152 0.980 . S
C151 H153 0.981 . S
C151 H154 0.981 . S
H152 C151 0.980 . S
H153 C151 0.981 . S
H154 C151 0.981 . S
O155 Zn131 2.066 . S
O155 C134 1.256 . S
O156 Zn128 2.053 . S
O156 C134 1.244 . S
C157 O135 1.259 . S
C157 O136 1.254 . S
O158 Zn128 2.066 . S
O158 C130 1.256 . S
O159 C130 1.244 . S
O159 Zn131 2.053 . S
Zn160 O161 2.055 . S
Zn160 O168 2.046 . S
Zn160 N176 2.036 . S
Zn160 O188 2.053 . S
Zn160 O190 2.066 . S
O161 Zn160 2.055 . S
O161 C164 1.259 . S
C162 O190 1.256 . S
C162 O191 1.244 . S
Zn163 O165 2.046 . S
Zn163 O167 2.055 . S
Zn163 N169 2.036 . S
Zn163 O187 2.066 . S
Zn163 O191 2.053 . S
C164 O161 1.259 . S
C164 O165 1.254 . S
O165 Zn163 2.046 . S
O165 C164 1.254 . S
C166 O187 1.256 . S
C166 O188 1.244 . S
O167 Zn163 2.055 . S
O167 C189 1.259 . S
O168 Zn160 2.046 . S
O168 C189 1.254 . S
N169 Zn163 2.036 . S
N169 C170 1.298 . S
N169 N172 1.398 . S
C170 N169 1.298 . S
C170 N173 1.367 . S
C170 C183 1.481 . S
C171 N172 1.299 . S
C171 N173 1.379 . S
N172 N169 1.398 . S
N172 C171 1.299 . S
N173 C170 1.367 . S
N173 C171 1.379 . S
C174 N176 1.298 . S
C174 N178 1.367 . S
C174 C182 1.481 . S
C175 N177 1.299 . S
C175 N178 1.379 . S
N176 Zn160 2.036 . S
N176 C174 1.298 . S
N176 N177 1.398 . S
N177 C175 1.299 . S
N177 N176 1.398 . S
N178 C174 1.367 . S
N178 C175 1.379 . S
H179 C182 0.980 . S
H180 C182 0.981 . S
H181 C182 0.981 . S
C182 C174 1.481 . S
C182 H179 0.980 . S
C182 H180 0.981 . S
C182 H181 0.981 . S
C183 C170 1.481 . S
C183 H184 0.980 . S
C183 H185 0.981 . S
C183 H186 0.981 . S
H184 C183 0.980 . S
H185 C183 0.981 . S
H186 C183 0.981 . S
O187 Zn163 2.066 . S
O187 C166 1.256 . S
O188 Zn160 2.053 . S
O188 C166 1.244 . S
C189 O167 1.259 . S
C189 O168 1.254 . S
O190 Zn160 2.066 . S
O190 C162 1.256 . S
O191 C162 1.244 . S
O191 Zn163 2.053 . S
Zn192 O193 2.055 . S
Zn192 O200 2.046 . S
Zn192 N208 2.036 . S
Zn192 O220 2.053 . S
Zn192 O222 2.066 . S
O193 Zn192 2.055 . S
O193 C196 1.259 . S
C194 O222 1.256 . S
C194 O223 1.244 . S
Zn195 O197 2.046 . S
Zn195 O199 2.055 . S
Zn195 N201 2.036 . S
Zn195 O219 2.066 . S
Zn195 O223 2.053 . S
C196 O193 1.259 . S
C196 O197 1.254 . S
O197 Zn195 2.046 . S
O197 C196 1.254 . S
C198 O219 1.256 . S
C198 O220 1.244 . S
O199 Zn195 2.055 . S
O199 C221 1.259 . S
O200 Zn192 2.046 . S
O200 C221 1.254 . S
N201 Zn195 2.036 . S
N201 C202 1.298 . S
N201 N204 1.398 . S
C202 N201 1.298 . S
C202 N205 1.367 . S
C202 C215 1.481 . S
C203 N204 1.299 . S
C203 N205 1.379 . S
N204 N201 1.398 . S
N204 C203 1.299 . S
N205 C202 1.367 . S
N205 C203 1.379 . S
C206 N208 1.298 . S
C206 N210 1.367 . S
C206 C214 1.481 . S
C207 N209 1.299 . S
C207 N210 1.379 . S
N208 Zn192 2.036 . S
N208 C206 1.298 . S
N208 N209 1.398 . S
N209 C207 1.299 . S
N209 N208 1.398 . S
N210 C206 1.367 . S
N210 C207 1.379 . S
H211 C214 0.980 . S
H212 C214 0.981 . S
H213 C214 0.981 . S
C214 C206 1.481 . S
C214 H211 0.980 . S
C214 H212 0.981 . S
C214 H213 0.981 . S
C215 C202 1.481 . S
C215 H216 0.980 . S
C215 H217 0.981 . S
C215 H218 0.981 . S
H216 C215 0.980 . S
H217 C215 0.981 . S
H218 C215 0.981 . S
O219 Zn195 2.066 . S
O219 C198 1.256 . S
O220 Zn192 2.053 . S
O220 C198 1.244 . S
C221 O199 1.259 . S
C221 O200 1.254 . S
O222 Zn192 2.066 . S
O222 C194 1.256 . S
O223 C194 1.244 . S
O223 Zn195 2.053 . S
Zn224 O225 2.055 . S
Zn224 O232 2.046 . S
Zn224 N240 2.036 . S
Zn224 O252 2.053 . S
Zn224 O254 2.066 . S
O225 Zn224 2.055 . S
O225 C228 1.259 . S
C226 O254 1.256 . S
C226 O255 1.244 . S
Zn227 O229 2.046 . S
Zn227 O231 2.055 . S
Zn227 N233 2.036 . S
Zn227 O251 2.066 . S
Zn227 O255 2.053 . S
C228 O225 1.259 . S
C228 O229 1.254 . S
O229 Zn227 2.046 . S
O229 C228 1.254 . S
C230 O251 1.256 . S
C230 O252 1.244 . S
O231 Zn227 2.055 . S
O231 C253 1.259 . S
O232 Zn224 2.046 . S
O232 C253 1.254 . S
N233 Zn227 2.036 . S
N233 C234 1.298 . S
N233 N236 1.398 . S
C234 N233 1.298 . S
C234 N237 1.367 . S
C234 C247 1.481 . S
C235 N236 1.299 . S
C235 N237 1.379 . S
N236 N233 1.398 . S
N236 C235 1.299 . S
N237 C234 1.367 . S
N237 C235 1.379 . S
C238 N240 1.298 . S
C238 N242 1.367 . S
C238 C246 1.481 . S
C239 N241 1.299 . S
C239 N242 1.379 . S
N240 Zn224 2.036 . S
N240 C238 1.298 . S
N240 N241 1.398 . S
N241 C239 1.299 . S
N241 N240 1.398 . S
N242 C238 1.367 . S
N242 C239 1.379 . S
H243 C246 0.980 . S
H244 C246 0.981 . S
H245 C246 0.981 . S
C246 C238 1.481 . S
C246 H243 0.980 . S
C246 H244 0.981 . S
C246 H245 0.981 . S
C247 C234 1.481 . S
C247 H248 0.980 . S
C247 H249 0.981 . S
C247 H250 0.981 . S
H248 C247 0.980 . S
H249 C247 0.981 . S
H250 C247 0.981 . S
O251 Zn227 2.066 . S
O251 C230 1.256 . S
O252 Zn224 2.053 . S
O252 C230 1.244 . S
C253 O231 1.259 . S
C253 O232 1.254 . S
O254 Zn224 2.066 . S
O254 C226 1.256 . S
O255 C226 1.244 . S
O255 Zn227 2.053 . S
Zn256 O257 2.055 . S
Zn256 O264 2.046 . S
Zn256 N272 2.036 . S
Zn256 O284 2.053 . S
Zn256 O286 2.066 . S
O257 Zn256 2.055 . S
O257 C260 1.259 . S
C258 O286 1.256 . S
C258 O287 1.244 . S
Zn259 O261 2.046 . S
Zn259 O263 2.055 . S
Zn259 N265 2.036 . S
Zn259 O283 2.066 . S
Zn259 O287 2.053 . S
C260 O257 1.259 . S
C260 O261 1.254 . S
O261 Zn259 2.046 . S
O261 C260 1.254 . S
C262 O283 1.256 . S
C262 O284 1.244 . S
O263 Zn259 2.055 . S
O263 C285 1.259 . S
O264 Zn256 2.046 . S
O264 C285 1.254 . S
N265 Zn259 2.036 . S
N265 C266 1.298 . S
N265 N268 1.398 . S
C266 N265 1.298 . S
C266 N269 1.367 . S
C266 C279 1.481 . S
C267 N268 1.299 . S
C267 N269 1.379 . S
N268 N265 1.398 . S
N268 C267 1.299 . S
N269 C266 1.367 . S
N269 C267 1.379 . S
C270 N272 1.298 . S
C270 N274 1.367 . S
C270 C278 1.481 . S
C271 N273 1.299 . S
C271 N274 1.379 . S
N272 Zn256 2.036 . S
N272 C270 1.298 . S
N272 N273 1.398 . S
N273 C271 1.299 . S
N273 N272 1.398 . S
N274 C270 1.367 . S
N274 C271 1.379 . S
H275 C278 0.980 . S
H276 C278 0.981 . S
H277 C278 0.981 . S
C278 C270 1.481 . S
C278 H275 0.980 . S
C278 H276 0.981 . S
C278 H277 0.981 . S
C279 C266 1.481 . S
C279 H280 0.980 . S
C279 H281 0.981 . S
C279 H282 0.981 . S
H280 C279 0.980 . S
H281 C279 0.981 . S
H282 C279 0.981 . S
O283 Zn259 2.066 . S
O283 C262 1.256 . S
O284 Zn256 2.053 . S
O284 C262 1.244 . S
C285 O263 1.259 . S
C285 O264 1.254 . S
O286 Zn256 2.066 . S
O286 C258 1.256 . S
O287 C258 1.244 . S
O287 Zn259 2.053 . S
Zn288 O289 2.055 . S
Zn288 O296 2.046 . S
Zn288 N304 2.036 . S
Zn288 O316 2.053 . S
Zn288 O318 2.066 . S
O289 Zn288 2.055 . S
O289 C292 1.259 . S
C290 O318 1.256 . S
C290 O319 1.244 . S
Zn291 O293 2.046 . S
Zn291 O295 2.055 . S
Zn291 N297 2.036 . S
Zn291 O315 2.066 . S
Zn291 O319 2.053 . S
C292 O289 1.259 . S
C292 O293 1.254 . S
O293 Zn291 2.046 . S
O293 C292 1.254 . S
C294 O315 1.256 . S
C294 O316 1.244 . S
O295 Zn291 2.055 . S
O295 C317 1.259 . S
O296 Zn288 2.046 . S
O296 C317 1.254 . S
N297 Zn291 2.036 . S
N297 C298 1.298 . S
N297 N300 1.398 . S
C298 N297 1.298 . S
C298 N301 1.367 . S
C298 C311 1.481 . S
C299 N300 1.299 . S
C299 N301 1.379 . S
N300 N297 1.398 . S
N300 C299 1.299 . S
N301 C298 1.367 . S
N301 C299 1.379 . S
C302 N304 1.298 . S
C302 N306 1.367 . S
C302 C310 1.481 . S
C303 N305 1.299 . S
C303 N306 1.379 1_565 S
N304 Zn288 2.036 . S
N304 C302 1.298 . S
N304 N305 1.398 1_545 S
N305 C303 1.299 . S
N305 N304 1.398 1_565 S
N306 C302 1.367 . S
N306 C303 1.379 1_545 S
H307 C310 0.980 . S
H308 C310 0.981 . S
H309 C310 0.981 . S
C310 C302 1.481 . S
C310 H307 0.980 . S
C310 H308 0.981 . S
C310 H309 0.981 . S
C311 C298 1.481 . S
C311 H312 0.980 . S
C311 H313 0.981 . S
C311 H314 0.981 . S
H312 C311 0.980 . S
H313 C311 0.981 . S
H314 C311 0.981 . S
O315 Zn291 2.066 . S
O315 C294 1.256 . S
O316 Zn288 2.053 . S
O316 C294 1.244 . S
C317 O295 1.259 . S
C317 O296 1.254 . S
O318 Zn288 2.066 . S
O318 C290 1.256 . S
O319 C290 1.244 . S
O319 Zn291 2.053 . S
Zn320 O321 2.055 . S
Zn320 O328 2.046 . S
Zn320 N336 2.036 . S
Zn320 O348 2.053 . S
Zn320 O350 2.066 . S
O321 Zn320 2.055 . S
O321 C324 1.259 . S
C322 O350 1.256 . S
C322 O351 1.244 . S
Zn323 O325 2.046 . S
Zn323 O327 2.055 . S
Zn323 N329 2.036 . S
Zn323 O347 2.066 . S
Zn323 O351 2.053 . S
C324 O321 1.259 . S
C324 O325 1.254 . S
O325 Zn323 2.046 . S
O325 C324 1.254 . S
C326 O347 1.256 . S
C326 O348 1.244 . S
O327 Zn323 2.055 . S
O327 C349 1.259 . S
O328 Zn320 2.046 . S
O328 C349 1.254 . S
N329 Zn323 2.036 . S
N329 C330 1.298 . S
N329 N332 1.398 . S
C330 N329 1.298 . S
C330 N333 1.367 . S
C330 C343 1.481 . S
C331 N332 1.299 . S
C331 N333 1.379 . S
N332 N329 1.398 . S
N332 C331 1.299 . S
N333 C330 1.367 . S
N333 C331 1.379 . S
C334 N336 1.298 . S
C334 N338 1.367 . S
C334 C342 1.481 . S
C335 N337 1.299 . S
C335 N338 1.379 . S
N336 Zn320 2.036 . S
N336 C334 1.298 . S
N336 N337 1.398 . S
N337 C335 1.299 . S
N337 N336 1.398 . S
N338 C334 1.367 . S
N338 C335 1.379 . S
H339 C342 0.980 . S
H340 C342 0.981 . S
H341 C342 0.981 . S
C342 C334 1.481 . S
C342 H339 0.980 . S
C342 H340 0.981 . S
C342 H341 0.981 . S
C343 C330 1.481 . S
C343 H344 0.980 . S
C343 H345 0.981 . S
C343 H346 0.981 . S
H344 C343 0.980 . S
H345 C343 0.981 . S
H346 C343 0.981 . S
O347 Zn323 2.066 . S
O347 C326 1.256 . S
O348 Zn320 2.053 . S
O348 C326 1.244 . S
C349 O327 1.259 . S
C349 O328 1.254 . S
O350 Zn320 2.066 . S
O350 C322 1.256 . S
O351 C322 1.244 . S
O351 Zn323 2.053 . S
Zn352 O353 2.055 . S
Zn352 O360 2.046 . S
Zn352 N368 2.036 . S
Zn352 O380 2.053 . S
Zn352 O382 2.066 . S
O353 Zn352 2.055 . S
O353 C356 1.259 . S
C354 O382 1.256 . S
C354 O383 1.244 . S
Zn355 O357 2.046 . S
Zn355 O359 2.055 . S
Zn355 N361 2.036 . S
Zn355 O379 2.066 . S
Zn355 O383 2.053 . S
C356 O353 1.259 . S
C356 O357 1.254 . S
O357 Zn355 2.046 . S
O357 C356 1.254 . S
C358 O379 1.256 . S
C358 O380 1.244 . S
O359 Zn355 2.055 . S
O359 C381 1.259 . S
O360 Zn352 2.046 . S
O360 C381 1.254 . S
N361 Zn355 2.036 . S
N361 C362 1.298 . S
N361 N364 1.398 1_565 S
C362 N361 1.298 . S
C362 N365 1.367 . S
C362 C375 1.481 . S
C363 N364 1.299 . S
C363 N365 1.379 1_545 S
N364 N361 1.398 1_545 S
N364 C363 1.299 . S
N365 C362 1.367 . S
N365 C363 1.379 1_565 S
C366 N368 1.298 . S
C366 N370 1.367 . S
C366 C374 1.481 . S
C367 N369 1.299 . S
C367 N370 1.379 . S
N368 Zn352 2.036 . S
N368 C366 1.298 . S
N368 N369 1.398 . S
N369 C367 1.299 . S
N369 N368 1.398 . S
N370 C366 1.367 . S
N370 C367 1.379 . S
H371 C374 0.980 . S
H372 C374 0.981 . S
H373 C374 0.981 . S
C374 C366 1.481 . S
C374 H371 0.980 . S
C374 H372 0.981 . S
C374 H373 0.981 . S
C375 C362 1.481 . S
C375 H376 0.980 . S
C375 H377 0.981 . S
C375 H378 0.981 . S
H376 C375 0.980 . S
H377 C375 0.981 . S
H378 C375 0.981 . S
O379 Zn355 2.066 . S
O379 C358 1.256 . S
O380 Zn352 2.053 . S
O380 C358 1.244 . S
C381 O359 1.259 . S
C381 O360 1.254 . S
O382 Zn352 2.066 . S
O382 C354 1.256 . S
O383 C354 1.244 . S
O383 Zn355 2.053 . S
Zn384 O385 2.055 . S
Zn384 O392 2.046 . S
Zn384 N400 2.036 . S
Zn384 O412 2.053 . S
Zn384 O414 2.066 . S
O385 Zn384 2.055 . S
O385 C388 1.259 . S
C386 O414 1.256 . S
C386 O415 1.244 . S
Zn387 O389 2.046 . S
Zn387 O391 2.055 . S
Zn387 N393 2.036 . S
Zn387 O411 2.066 . S
Zn387 O415 2.053 . S
C388 O385 1.259 . S
C388 O389 1.254 . S
O389 Zn387 2.046 . S
O389 C388 1.254 . S
C390 O411 1.256 . S
C390 O412 1.244 . S
O391 Zn387 2.055 . S
O391 C413 1.259 . S
O392 Zn384 2.046 . S
O392 C413 1.254 . S
N393 Zn387 2.036 . S
N393 C394 1.298 . S
N393 N396 1.398 . S
C394 N393 1.298 . S
C394 N397 1.367 . S
C394 C407 1.481 . S
C395 N396 1.299 . S
C395 N397 1.379 . S
N396 N393 1.398 . S
N396 C395 1.299 . S
N397 C394 1.367 . S
N397 C395 1.379 . S
C398 N400 1.298 . S
C398 N402 1.367 . S
C398 C406 1.481 . S
C399 N401 1.299 . S
C399 N402 1.379 . S
N400 Zn384 2.036 . S
N400 C398 1.298 . S
N400 N401 1.398 . S
N401 C399 1.299 . S
N401 N400 1.398 . S
N402 C398 1.367 . S
N402 C399 1.379 . S
H403 C406 0.980 . S
H404 C406 0.981 . S
H405 C406 0.981 . S
C406 C398 1.481 . S
C406 H403 0.980 . S
C406 H404 0.981 . S
C406 H405 0.981 . S
C407 C394 1.481 . S
C407 H408 0.980 . S
C407 H409 0.981 . S
C407 H410 0.981 . S
H408 C407 0.980 . S
H409 C407 0.981 . S
H410 C407 0.981 . S
O411 Zn387 2.066 . S
O411 C390 1.256 . S
O412 Zn384 2.053 . S
O412 C390 1.244 . S
C413 O391 1.259 . S
C413 O392 1.254 . S
O414 Zn384 2.066 . S
O414 C386 1.256 . S
O415 C386 1.244 . S
O415 Zn387 2.053 . S
Zn416 O417 2.055 . S
Zn416 O424 2.046 . S
Zn416 N432 2.036 . S
Zn416 O444 2.053 . S
Zn416 O446 2.066 . S
O417 Zn416 2.055 . S
O417 C420 1.259 . S
C418 O446 1.256 . S
C418 O447 1.244 . S
Zn419 O421 2.046 . S
Zn419 O423 2.055 . S
Zn419 N425 2.036 . S
Zn419 O443 2.066 . S
Zn419 O447 2.053 . S
C420 O417 1.259 . S
C420 O421 1.254 . S
O421 Zn419 2.046 . S
O421 C420 1.254 . S
C422 O443 1.256 . S
C422 O444 1.244 . S
O423 Zn419 2.055 . S
O423 C445 1.259 . S
O424 Zn416 2.046 . S
O424 C445 1.254 . S
N425 Zn419 2.036 . S
N425 C426 1.298 . S
N425 N428 1.398 . S
C426 N425 1.298 . S
C426 N429 1.367 . S
C426 C439 1.481 . S
C427 N428 1.299 . S
C427 N429 1.379 . S
N428 N425 1.398 . S
N428 C427 1.299 . S
N429 C426 1.367 . S
N429 C427 1.379 . S
C430 N432 1.298 . S
C430 N434 1.367 . S
C430 C438 1.481 . S
C431 N433 1.299 . S
C431 N434 1.379 1_545 S
N432 Zn416 2.036 . S
N432 C430 1.298 . S
N432 N433 1.398 1_565 S
N433 C431 1.299 . S
N433 N432 1.398 1_545 S
N434 C430 1.367 . S
N434 C431 1.379 1_565 S
H435 C438 0.980 . S
H436 C438 0.981 . S
H437 C438 0.981 . S
C438 C430 1.481 . S
C438 H435 0.980 . S
C438 H436 0.981 . S
C438 H437 0.981 . S
C439 C426 1.481 . S
C439 H440 0.980 . S
C439 H441 0.981 . S
C439 H442 0.981 . S
H440 C439 0.980 . S
H441 C439 0.981 . S
H442 C439 0.981 . S
O443 Zn419 2.066 . S
O443 C422 1.256 . S
O444 Zn416 2.053 . S
O444 C422 1.244 . S
C445 O423 1.259 . S
C445 O424 1.254 . S
O446 Zn416 2.066 . S
O446 C418 1.256 . S
O447 C418 1.244 . S
O447 Zn419 2.053 . S
Zn448 O449 2.055 . S
Zn448 O456 2.046 . S
Zn448 N464 2.036 . S
Zn448 O476 2.053 . S
Zn448 O478 2.066 . S
O449 Zn448 2.055 . S
O449 C452 1.259 . S
C450 O478 1.256 . S
C450 O479 1.244 . S
Zn451 O453 2.046 . S
Zn451 O455 2.055 . S
Zn451 N457 2.036 . S
Zn451 O475 2.066 . S
Zn451 O479 2.053 . S
C452 O449 1.259 . S
C452 O453 1.254 . S
O453 Zn451 2.046 . S
O453 C452 1.254 . S
C454 O475 1.256 . S
C454 O476 1.244 . S
O455 Zn451 2.055 . S
O455 C477 1.259 . S
O456 Zn448 2.046 . S
O456 C477 1.254 . S
N457 Zn451 2.036 . S
N457 C458 1.298 . S
N457 N460 1.398 . S
C458 N457 1.298 . S
C458 N461 1.367 . S
C458 C471 1.481 . S
C459 N460 1.299 . S
C459 N461 1.379 . S
N460 N457 1.398 . S
N460 C459 1.299 . S
N461 C458 1.367 . S
N461 C459 1.379 . S
C462 N464 1.298 . S
C462 N466 1.367 . S
C462 C470 1.481 . S
C463 N465 1.299 . S
C463 N466 1.379 . S
N464 Zn448 2.036 . S
N464 C462 1.298 . S
N464 N465 1.398 . S
N465 C463 1.299 . S
N465 N464 1.398 . S
N466 C462 1.367 . S
N466 C463 1.379 . S
H467 C470 0.980 . S
H468 C470 0.981 . S
H469 C470 0.981 . S
C470 C462 1.481 . S
C470 H467 0.980 . S
C470 H468 0.981 . S
C470 H469 0.981 . S
C471 C458 1.481 . S
C471 H472 0.980 . S
C471 H473 0.981 . S
C471 H474 0.981 . S
H472 C471 0.980 . S
H473 C471 0.981 . S
H474 C471 0.981 . S
O475 Zn451 2.066 . S
O475 C454 1.256 . S
O476 Zn448 2.053 . S
O476 C454 1.244 . S
C477 O455 1.259 . S
C477 O456 1.254 . S
O478 Zn448 2.066 . S
O478 C450 1.256 . S
O479 C450 1.244 . S
O479 Zn451 2.053 . S
Zn480 O481 2.055 . S
Zn480 O488 2.046 . S
Zn480 N496 2.036 . S
Zn480 O508 2.053 . S
Zn480 O510 2.066 . S
O481 Zn480 2.055 . S
O481 C484 1.259 . S
C482 O510 1.256 . S
C482 O511 1.244 . S
Zn483 O485 2.046 . S
Zn483 O487 2.055 . S
Zn483 N489 2.036 . S
Zn483 O507 2.066 . S
Zn483 O511 2.053 . S
C484 O481 1.259 . S
C484 O485 1.254 . S
O485 Zn483 2.046 . S
O485 C484 1.254 . S
C486 O507 1.256 . S
C486 O508 1.244 . S
O487 Zn483 2.055 . S
O487 C509 1.259 . S
O488 Zn480 2.046 . S
O488 C509 1.254 . S
N489 Zn483 2.036 . S
N489 C490 1.298 . S
N489 N492 1.398 1_545 S
C490 N489 1.298 . S
C490 N493 1.367 . S
C490 C503 1.481 . S
C491 N492 1.299 . S
C491 N493 1.379 1_565 S
N492 N489 1.398 1_565 S
N492 C491 1.299 . S
N493 C490 1.367 . S
N493 C491 1.379 1_545 S
C494 N496 1.298 . S
C494 N498 1.367 . S
C494 C502 1.481 . S
C495 N497 1.299 . S
C495 N498 1.379 . S
N496 Zn480 2.036 . S
N496 C494 1.298 . S
N496 N497 1.398 . S
N497 C495 1.299 . S
N497 N496 1.398 . S
N498 C494 1.367 . S
N498 C495 1.379 . S
H499 C502 0.980 . S
H500 C502 0.981 . S
H501 C502 0.981 . S
C502 C494 1.481 . S
C502 H499 0.980 . S
C502 H500 0.981 . S
C502 H501 0.981 . S
C503 C490 1.481 . S
C503 H504 0.980 . S
C503 H505 0.981 . S
C503 H506 0.981 . S
H504 C503 0.980 . S
H505 C503 0.981 . S
H506 C503 0.981 . S
O507 Zn483 2.066 . S
O507 C486 1.256 . S
O508 Zn480 2.053 . S
O508 C486 1.244 . S
C509 O487 1.259 . S
C509 O488 1.254 . S
O510 Zn480 2.066 . S
O510 C482 1.256 . S
O511 C482 1.244 . S
O511 Zn483 2.053 . S
H512 C518 0.930 . S
H513 C522 0.930 . S
H514 C527 0.929 . S
H515 C525 0.929 . S
H516 C520 0.929 . S
H517 C526 0.929 . S
C518 H512 0.930 . S
C518 C519 1.367 . S
C518 C526 1.378 . S
C519 C518 1.367 . S
C519 C527 1.433 . S
C520 H516 0.929 . S
C520 C522 1.378 . S
C520 C524 1.350 . S
C521 C524 1.463 . S
C521 C526 1.350 . S
C521 N529 1.427 . S
C522 H513 0.930 . S
C522 C520 1.378 . S
C522 C523 1.367 . S
C523 C522 1.367 . S
C523 C525 1.433 . S
C524 C520 1.350 . S
C524 C521 1.463 . S
C524 N528 1.427 . S
C525 H515 0.929 . S
C525 C523 1.433 . S
C525 N528 1.384 . S
C526 H517 0.929 . S
C526 C518 1.378 . S
C526 C521 1.350 . S
C527 H514 0.929 . S
C527 C519 1.433 . S
C527 N529 1.384 . S
N528 C524 1.427 . S
N528 C525 1.384 . S
N529 C521 1.427 . S
N529 C527 1.384 . S
H530 C536 0.930 . S
H531 C540 0.930 . S
H532 C545 0.929 . S
H533 C543 0.929 . S
H534 C538 0.929 . S
H535 C544 0.929 . S
C536 H530 0.930 . S
C536 C537 1.367 . S
C536 C544 1.378 . S
C537 C536 1.367 . S
C537 C545 1.433 . S
C538 H534 0.929 . S
C538 C540 1.378 . S
C538 C542 1.350 . S
C539 C542 1.463 . S
C539 C544 1.350 . S
C539 N547 1.427 . S
C540 H531 0.930 . S
C540 C538 1.378 . S
C540 C541 1.367 . S
C541 C540 1.367 . S
C541 C543 1.433 . S
C542 C538 1.350 . S
C542 C539 1.463 . S
C542 N546 1.427 . S
C543 H533 0.929 . S
C543 C541 1.433 . S
C543 N546 1.384 . S
C544 H535 0.929 . S
C544 C536 1.378 . S
C544 C539 1.350 . S
C545 H532 0.929 . S
C545 C537 1.433 . S
C545 N547 1.384 . S
N546 C542 1.427 . S
N546 C543 1.384 . S
N547 C539 1.427 . S
N547 C545 1.384 . S
H548 C554 0.930 . S
H549 C558 0.930 . S
H550 C563 0.929 . S
H551 C561 0.929 . S
H552 C556 0.929 . S
H553 C562 0.929 . S
C554 H548 0.930 . S
C554 C555 1.367 . S
C554 C562 1.378 . S
C555 C554 1.367 . S
C555 C563 1.433 . S
C556 H552 0.929 . S
C556 C558 1.378 . S
C556 C560 1.350 . S
C557 C560 1.463 1_455 S
C557 C562 1.350 . S
C557 N565 1.427 . S
C558 H549 0.930 . S
C558 C556 1.378 . S
C558 C559 1.367 . S
C559 C558 1.367 . S
C559 C561 1.433 . S
C560 C556 1.350 . S
C560 C557 1.463 1_655 S
C560 N564 1.427 . S
C561 H551 0.929 . S
C561 C559 1.433 . S
C561 N564 1.384 . S
C562 H553 0.929 . S
C562 C554 1.378 . S
C562 C557 1.350 . S
C563 H550 0.929 . S
C563 C555 1.433 . S
C563 N565 1.384 . S
N564 C560 1.427 . S
N564 C561 1.384 . S
N565 C557 1.427 . S
N565 C563 1.384 . S
H566 C572 0.930 . S
H567 C576 0.930 . S
H568 C581 0.929 . S
H569 C579 0.929 . S
H570 C574 0.929 1_455 S
H571 C580 0.929 1_655 S
C572 H566 0.930 . S
C572 C573 1.367 . S
C572 C580 1.377 . S
C573 C572 1.367 . S
C573 C581 1.433 . S
C574 H570 0.929 1_655 S
C574 C576 1.377 . S
C574 C578 1.350 . S
C575 C578 1.463 1_455 S
C575 C580 1.350 . S
C575 N583 1.427 . S
C576 H567 0.930 . S
C576 C574 1.377 . S
C576 C577 1.367 . S
C577 C576 1.367 . S
C577 C579 1.433 . S
C578 C574 1.350 . S
C578 C575 1.463 1_655 S
C578 N582 1.427 . S
C579 H569 0.929 . S
C579 C577 1.433 . S
C579 N582 1.384 . S
C580 H571 0.929 1_455 S
C580 C572 1.377 . S
C580 C575 1.350 . S
C581 H568 0.929 . S
C581 C573 1.433 . S
C581 N583 1.384 . S
N582 C578 1.427 . S
N582 C579 1.384 . S
N583 C575 1.427 . S
N583 C581 1.384 . S
H584 C590 0.930 . S
H585 C594 0.930 . S
H586 C599 0.929 . S
H587 C597 0.929 . S
H588 C592 0.929 . S
H589 C598 0.929 . S
C590 H584 0.930 . S
C590 C591 1.367 . S
C590 C598 1.378 . S
C591 C590 1.367 . S
C591 C599 1.433 . S
C592 H588 0.929 . S
C592 C594 1.378 . S
C592 C596 1.350 . S
C593 C596 1.463 . S
C593 C598 1.350 . S
C593 N601 1.427 . S
C594 H585 0.930 . S
C594 C592 1.378 . S
C594 C595 1.367 . S
C595 C594 1.367 . S
C595 C597 1.433 . S
C596 C592 1.350 . S
C596 C593 1.463 . S
C596 N600 1.427 . S
C597 H587 0.929 . S
C597 C595 1.433 . S
C597 N600 1.384 . S
C598 H589 0.929 . S
C598 C590 1.378 . S
C598 C593 1.350 . S
C599 H586 0.929 . S
C599 C591 1.433 . S
C599 N601 1.384 . S
N600 C596 1.427 . S
N600 C597 1.384 . S
N601 C593 1.427 . S
N601 C599 1.384 . S
H602 C608 0.930 . S
H603 C612 0.930 . S
H604 C617 0.929 . S
H605 C615 0.929 . S
H606 C610 0.929 . S
H607 C616 0.929 . S
C608 H602 0.930 . S
C608 C609 1.367 . S
C608 C616 1.378 . S
C609 C608 1.367 . S
C609 C617 1.433 . S
C610 H606 0.929 . S
C610 C612 1.378 . S
C610 C614 1.350 . S
C611 C614 1.463 . S
C611 C616 1.350 . S
C611 N619 1.427 . S
C612 H603 0.930 . S
C612 C610 1.378 . S
C612 C613 1.367 . S
C613 C612 1.367 . S
C613 C615 1.433 . S
C614 C610 1.350 . S
C614 C611 1.463 . S
C614 N618 1.427 . S
C615 H605 0.929 . S
C615 C613 1.433 . S
C615 N618 1.384 . S
C616 H607 0.929 . S
C616 C608 1.378 . S
C616 C611 1.350 . S
C617 H604 0.929 . S
C617 C609 1.433 . S
C617 N619 1.384 . S
N618 C614 1.427 . S
N618 C615 1.384 . S
N619 C611 1.427 . S
N619 C617 1.384 . S
H620 C626 0.930 . S
H621 C630 0.930 . S
H622 C635 0.929 . S
H623 C633 0.929 . S
H624 C628 0.929 . S
H625 C634 0.929 . S
C626 H620 0.930 . S
C626 C627 1.367 . S
C626 C634 1.378 . S
C627 C626 1.367 . S
C627 C635 1.433 . S
C628 H624 0.929 . S
C628 C630 1.378 . S
C628 C632 1.350 . S
C629 C632 1.463 1_455 S
C629 C634 1.350 . S
C629 N637 1.427 . S
C630 H621 0.930 . S
C630 C628 1.378 . S
C630 C631 1.367 . S
C631 C630 1.367 . S
C631 C633 1.433 . S
C632 C628 1.350 . S
C632 C629 1.463 1_655 S
C632 N636 1.427 . S
C633 H623 0.929 . S
C633 C631 1.433 . S
C633 N636 1.384 . S
C634 H625 0.929 . S
C634 C626 1.378 . S
C634 C629 1.350 . S
C635 H622 0.929 . S
C635 C627 1.433 . S
C635 N637 1.384 . S
N636 C632 1.427 . S
N636 C633 1.384 . S
N637 C629 1.427 . S
N637 C635 1.384 . S
H638 C644 0.930 . S
H639 C648 0.930 . S
H640 C653 0.929 . S
H641 C651 0.929 . S
H642 C646 0.932 . S
H643 C652 0.932 . S
C644 H638 0.930 . S
C644 C645 1.367 . S
C644 C652 1.378 . S
C645 C644 1.367 . S
C645 C653 1.433 . S
C646 H642 0.932 . S
C646 C648 1.378 . S
C646 C650 1.350 . S
C647 C650 1.463 1_455 S
C647 C652 1.350 . S
C647 N655 1.427 . S
C648 H639 0.930 . S
C648 C646 1.378 . S
C648 C649 1.367 . S
C649 C648 1.367 . S
C649 C651 1.433 . S
C650 C646 1.350 . S
C650 C647 1.463 1_655 S
C650 N654 1.427 . S
C651 H641 0.929 . S
C651 C649 1.433 . S
C651 N654 1.384 . S
C652 H643 0.932 . S
C652 C644 1.378 . S
C652 C647 1.350 . S
C653 H640 0.929 . S
C653 C645 1.433 . S
C653 N655 1.384 . S
N654 C650 1.427 . S
N654 C651 1.384 . S
N655 C647 1.427 . S
N655 C653 1.384 . S
H656 C662 0.930 1_565 S
H657 C666 0.930 1_545 S
H658 C671 0.929 . S
H659 C669 0.929 . S
H660 C664 0.929 . S
H661 C670 0.929 . S
C662 H656 0.930 1_545 S
C662 C663 1.367 . S
C662 C670 1.378 1_545 S
C663 C662 1.367 . S
C663 C671 1.433 . S
C664 H660 0.929 . S
C664 C666 1.378 1_545 S
C664 C668 1.350 1_545 S
C665 C668 1.463 1_544 S
C665 C670 1.350 1_545 S
C665 N673 1.427 . S
C666 H657 0.930 1_565 S
C666 C664 1.378 1_565 S
C666 C667 1.367 . S
C667 C666 1.367 . S
C667 C669 1.433 . S
C668 C664 1.350 1_565 S
C668 C665 1.463 1_566 S
C668 N672 1.427 . S
C669 H659 0.929 . S
C669 C667 1.433 . S
C669 N672 1.384 . S
C670 H661 0.929 . S
C670 C662 1.378 1_565 S
C670 C665 1.350 1_565 S
C671 H658 0.929 . S
C671 C663 1.433 . S
C671 N673 1.384 . S
N672 C668 1.427 . S
N672 C669 1.384 . S
N673 C665 1.427 . S
N673 C671 1.384 . S
H674 C680 0.930 . S
H675 C684 0.930 . S
H676 C689 0.929 . S
H677 C687 0.929 . S
H678 C682 0.929 . S
H679 C688 0.929 . S
C680 H674 0.930 . S
C680 C681 1.367 . S
C680 C688 1.378 . S
C681 C680 1.367 . S
C681 C689 1.433 . S
C682 H678 0.929 . S
C682 C684 1.378 . S
C682 C686 1.350 . S
C683 C686 1.463 . S
C683 C688 1.350 . S
C683 N691 1.427 . S
C684 H675 0.930 . S
C684 C682 1.378 . S
C684 C685 1.367 . S
C685 C684 1.367 . S
C685 C687 1.433 . S
C686 C682 1.350 . S
C686 C683 1.463 . S
C686 N690 1.427 . S
C687 H677 0.929 . S
C687 C685 1.433 . S
C687 N690 1.384 . S
C688 H679 0.929 . S
C688 C680 1.378 . S
C688 C683 1.350 . S
C689 H676 0.929 . S
C689 C681 1.433 . S
C689 N691 1.384 . S
N690 C686 1.427 . S
N690 C687 1.384 . S
N691 C683 1.427 . S
N691 C689 1.384 . S
H692 C698 0.930 . S
H693 C702 0.930 . S
H694 C707 0.929 . S
H695 C705 0.929 . S
H696 C700 0.929 1_455 S
H697 C706 0.929 1_655 S
C698 H692 0.930 . S
C698 C699 1.367 . S
C698 C706 1.378 1_565 S
C699 C698 1.367 . S
C699 C707 1.433 . S
C700 H696 0.929 1_655 S
C700 C702 1.378 1_565 S
C700 C704 1.350 1_565 S
C701 C704 1.463 1_465 S
C701 C706 1.350 1_565 S
C701 N709 1.427 . S
C702 H693 0.930 . S
C702 C700 1.378 1_545 S
C702 C703 1.367 . S
C703 C702 1.367 . S
C703 C705 1.433 . S
C704 C700 1.350 1_545 S
C704 C701 1.463 1_645 S
C704 N708 1.427 . S
C705 H695 0.929 . S
C705 C703 1.433 . S
C705 N708 1.384 . S
C706 H697 0.929 1_455 S
C706 C698 1.378 1_545 S
C706 C701 1.350 1_545 S
C707 H694 0.929 . S
C707 C699 1.433 . S
C707 N709 1.384 . S
N708 C704 1.427 . S
N708 C705 1.384 . S
N709 C701 1.427 . S
N709 C707 1.384 . S
H710 C716 0.930 . S
H711 C720 0.930 . S
H712 C725 0.929 . S
H713 C723 0.929 . S
H714 C718 0.929 . S
H715 C724 0.929 . S
C716 H710 0.930 . S
C716 C717 1.367 . S
C716 C724 1.378 . S
C717 C716 1.367 . S
C717 C725 1.433 . S
C718 H714 0.929 . S
C718 C720 1.378 . S
C718 C722 1.350 . S
C719 C722 1.463 . S
C719 C724 1.350 . S
C719 N727 1.427 . S
C720 H711 0.930 . S
C720 C718 1.378 . S
C720 C721 1.367 . S
C721 C720 1.367 . S
C721 C723 1.433 . S
C722 C718 1.350 . S
C722 C719 1.463 . S
C722 N726 1.427 . S
C723 H713 0.929 . S
C723 C721 1.433 . S
C723 N726 1.384 . S
C724 H715 0.929 . S
C724 C716 1.378 . S
C724 C719 1.350 . S
C725 H712 0.929 . S
C725 C717 1.433 . S
C725 N727 1.384 . S
N726 C722 1.427 . S
N726 C723 1.384 . S
N727 C719 1.427 . S
N727 C725 1.384 . S
H728 C734 0.930 . S
H729 C738 0.930 . S
H730 C743 0.929 . S
H731 C741 0.929 . S
H732 C736 0.929 . S
H733 C742 0.929 . S
C734 H728 0.930 . S
C734 C735 1.367 . S
C734 C742 1.378 . S
C735 C734 1.367 . S
C735 C743 1.433 . S
C736 H732 0.929 . S
C736 C738 1.378 . S
C736 C740 1.350 . S
C737 C740 1.463 . S
C737 C742 1.350 . S
C737 N745 1.427 . S
C738 H729 0.930 . S
C738 C736 1.378 . S
C738 C739 1.367 . S
C739 C738 1.367 . S
C739 C741 1.433 . S
C740 C736 1.350 . S
C740 C737 1.463 . S
C740 N744 1.427 . S
C741 H731 0.929 . S
C741 C739 1.433 . S
C741 N744 1.384 . S
C742 H733 0.929 . S
C742 C734 1.378 . S
C742 C737 1.350 . S
C743 H730 0.929 . S
C743 C735 1.433 . S
C743 N745 1.384 . S
N744 C740 1.427 . S
N744 C741 1.384 . S
N745 C737 1.427 . S
N745 C743 1.384 . S
H746 C752 0.930 . S
H747 C756 0.930 . S
H748 C761 0.929 . S
H749 C759 0.929 . S
H750 C754 0.929 . S
H751 C760 0.929 . S
C752 H746 0.930 . S
C752 C753 1.367 . S
C752 C760 1.378 . S
C753 C752 1.367 . S
C753 C761 1.433 . S
C754 H750 0.929 . S
C754 C756 1.378 . S
C754 C758 1.350 . S
C755 C758 1.463 . S
C755 C760 1.350 . S
C755 N763 1.427 . S
C756 H747 0.930 . S
C756 C754 1.378 . S
C756 C757 1.367 . S
C757 C756 1.367 . S
C757 C759 1.433 . S
C758 C754 1.350 . S
C758 C755 1.463 . S
C758 N762 1.427 . S
C759 H749 0.929 . S
C759 C757 1.433 . S
C759 N762 1.384 . S
C760 H751 0.929 . S
C760 C752 1.378 . S
C760 C755 1.350 . S
C761 H748 0.929 . S
C761 C753 1.433 . S
C761 N763 1.384 . S
N762 C758 1.427 . S
N762 C759 1.384 . S
N763 C755 1.427 . S
N763 C761 1.384 . S
H764 C770 0.930 . S
H765 C774 0.930 . S
H766 C779 0.929 . S
H767 C777 0.929 . S
H768 C772 0.929 1_455 S
H769 C778 0.929 1_655 S
C770 H764 0.930 . S
C770 C771 1.367 . S
C770 C778 1.378 . S
C771 C770 1.367 . S
C771 C779 1.433 . S
C772 H768 0.929 1_655 S
C772 C774 1.378 . S
C772 C776 1.350 . S
C773 C776 1.463 1_455 S
C773 C778 1.350 . S
C773 N781 1.427 . S
C774 H765 0.930 . S
C774 C772 1.378 . S
C774 C775 1.367 . S
C775 C774 1.367 . S
C775 C777 1.433 . S
C776 C772 1.350 . S
C776 C773 1.463 1_655 S
C776 N780 1.427 . S
C777 H767 0.929 . S
C777 C775 1.433 . S
C777 N780 1.384 . S
C778 H769 0.929 1_455 S
C778 C770 1.378 . S
C778 C773 1.350 . S
C779 H766 0.929 . S
C779 C771 1.433 . S
C779 N781 1.384 . S
N780 C776 1.427 . S
N780 C777 1.384 . S
N781 C773 1.427 . S
N781 C779 1.384 . S
H782 C788 0.930 . S
H783 C792 0.930 . S
H784 C797 0.929 . S
H785 C795 0.929 . S
H786 C790 0.929 . S
H787 C796 0.929 . S
C788 H782 0.930 . S
C788 C789 1.367 . S
C788 C796 1.378 . S
C789 C788 1.367 . S
C789 C797 1.433 . S
C790 H786 0.929 . S
C790 C792 1.378 . S
C790 C794 1.350 . S
C791 C794 1.463 1_554 S
C791 C796 1.350 . S
C791 N799 1.427 . S
C792 H783 0.930 . S
C792 C790 1.378 . S
C792 C793 1.367 . S
C793 C792 1.367 . S
C793 C795 1.433 . S
C794 C790 1.350 . S
C794 C791 1.463 1_556 S
C794 N798 1.427 . S
C795 H785 0.929 . S
C795 C793 1.433 . S
C795 N798 1.384 . S
C796 H787 0.929 . S
C796 C788 1.378 . S
C796 C791 1.350 . S
C797 H784 0.929 . S
C797 C789 1.433 . S
C797 N799 1.384 . S
N798 C794 1.427 . S
N798 C795 1.384 . S
N799 C791 1.427 . S
N799 C797 1.384 . S
H800 C806 0.930 . S
H801 C810 0.930 . S
H802 C815 0.929 . S
H803 C813 0.929 . S
H804 C808 0.929 . S
H805 C814 0.929 . S
C806 H800 0.930 . S
C806 C807 1.367 . S
C806 C814 1.378 . S
C807 C806 1.367 . S
C807 C815 1.433 . S
C808 H804 0.929 . S
C808 C810 1.378 . S
C808 C812 1.350 . S
C809 C812 1.463 . S
C809 C814 1.350 . S
C809 N817 1.427 . S
C810 H801 0.930 . S
C810 C808 1.378 . S
C810 C811 1.367 . S
C811 C810 1.367 . S
C811 C813 1.433 . S
C812 C808 1.350 . S
C812 C809 1.463 . S
C812 N816 1.427 . S
C813 H803 0.929 . S
C813 C811 1.433 . S
C813 N816 1.384 . S
C814 H805 0.929 . S
C814 C806 1.378 . S
C814 C809 1.350 . S
C815 H802 0.929 . S
C815 C807 1.433 . S
C815 N817 1.384 . S
N816 C812 1.427 . S
N816 C813 1.384 . S
N817 C809 1.427 . S
N817 C815 1.384 . S
H818 C824 0.930 . S
H819 C828 0.930 . S
H820 C833 0.929 . S
H821 C831 0.929 . S
H822 C826 0.929 . S
H823 C832 0.929 . S
C824 H818 0.930 . S
C824 C825 1.367 . S
C824 C832 1.378 . S
C825 C824 1.367 . S
C825 C833 1.433 . S
C826 H822 0.929 . S
C826 C828 1.378 . S
C826 C830 1.350 . S
C827 C830 1.463 . S
C827 C832 1.350 . S
C827 N835 1.427 . S
C828 H819 0.930 . S
C828 C826 1.378 . S
C828 C829 1.367 . S
C829 C828 1.367 . S
C829 C831 1.433 . S
C830 C826 1.350 . S
C830 C827 1.463 . S
C830 N834 1.427 . S
C831 H821 0.929 . S
C831 C829 1.433 . S
C831 N834 1.384 . S
C832 H823 0.929 . S
C832 C824 1.378 . S
C832 C827 1.350 . S
C833 H820 0.929 . S
C833 C825 1.433 . S
C833 N835 1.384 . S
N834 C830 1.427 . S
N834 C831 1.384 . S
N835 C827 1.427 . S
N835 C833 1.384 . S
H836 C842 0.930 . S
H837 C846 0.930 . S
H838 C851 0.929 . S
H839 C849 0.929 . S
H840 C844 0.929 . S
H841 C850 0.929 . S
C842 H836 0.930 . S
C842 C843 1.367 . S
C842 C850 1.378 . S
C843 C842 1.367 . S
C843 C851 1.433 . S
C844 H840 0.929 . S
C844 C846 1.378 . S
C844 C848 1.350 . S
C845 C848 1.463 . S
C845 C850 1.350 . S
C845 N853 1.427 . S
C846 H837 0.930 . S
C846 C844 1.378 . S
C846 C847 1.367 . S
C847 C846 1.367 . S
C847 C849 1.433 . S
C848 C844 1.350 . S
C848 C845 1.463 . S
C848 N852 1.427 . S
C849 H839 0.929 . S
C849 C847 1.433 . S
C849 N852 1.384 . S
C850 H841 0.929 . S
C850 C842 1.378 . S
C850 C845 1.350 . S
C851 H838 0.929 . S
C851 C843 1.433 . S
C851 N853 1.384 . S
N852 C848 1.427 . S
N852 C849 1.384 . S
N853 C845 1.427 . S
N853 C851 1.384 . S
H854 C860 0.930 . S
H855 C864 0.930 . S
H856 C869 0.929 1_655 S
H857 C867 0.929 . S
H858 C862 0.929 . S
H859 C868 0.929 . S
C860 H854 0.930 . S
C860 C861 1.367 . S
C860 C868 1.378 . S
C861 C860 1.367 . S
C861 C869 1.433 . S
C862 H858 0.929 . S
C862 C864 1.378 . S
C862 C866 1.350 . S
C863 C866 1.463 . S
C863 C868 1.350 . S
C863 N871 1.427 . S
C864 H855 0.930 . S
C864 C862 1.378 . S
C864 C865 1.367 . S
C865 C864 1.367 . S
C865 C867 1.433 . S
C866 C862 1.350 . S
C866 C863 1.463 . S
C866 N870 1.427 . S
C867 H857 0.929 . S
C867 C865 1.433 . S
C867 N870 1.384 . S
C868 H859 0.929 . S
C868 C860 1.378 . S
C868 C863 1.350 . S
C869 H856 0.929 1_455 S
C869 C861 1.433 . S
C869 N871 1.384 . S
N870 C866 1.427 . S
N870 C867 1.384 . S
N871 C863 1.427 . S
N871 C869 1.384 . S
H872 C878 0.930 . S
H873 C882 0.930 . S
H874 C887 0.929 . S
H875 C885 0.929 . S
H876 C880 0.929 . S
H877 C886 0.929 . S
C878 H872 0.930 . S
C878 C879 1.367 . S
C878 C886 1.378 . S
C879 C878 1.367 . S
C879 C887 1.433 . S
C880 H876 0.929 . S
C880 C882 1.378 . S
C880 C884 1.350 . S
C881 C884 1.463 . S
C881 C886 1.350 . S
C881 N889 1.427 . S
C882 H873 0.930 . S
C882 C880 1.378 . S
C882 C883 1.367 . S
C883 C882 1.367 . S
C883 C885 1.433 . S
C884 C880 1.350 . S
C884 C881 1.463 . S
C884 N888 1.427 . S
C885 H875 0.929 . S
C885 C883 1.433 . S
C885 N888 1.384 . S
C886 H877 0.929 . S
C886 C878 1.378 . S
C886 C881 1.350 . S
C887 H874 0.929 . S
C887 C879 1.433 . S
C887 N889 1.384 . S
N888 C884 1.427 . S
N888 C885 1.384 . S
N889 C881 1.427 . S
N889 C887 1.384 . S
H890 C896 0.930 . S
H891 C900 0.930 . S
H892 C905 0.929 . S
H893 C903 0.929 . S
H894 C898 0.929 . S
H895 C904 0.929 . S
C896 H890 0.930 . S
C896 C897 1.367 . S
C896 C904 1.378 . S
C897 C896 1.367 . S
C897 C905 1.433 . S
C898 H894 0.929 . S
C898 C900 1.378 . S
C898 C902 1.350 . S
C899 C902 1.463 . S
C899 C904 1.350 . S
C899 N907 1.427 . S
C900 H891 0.930 . S
C900 C898 1.378 . S
C900 C901 1.367 . S
C901 C900 1.367 . S
C901 C903 1.433 . S
C902 C898 1.350 . S
C902 C899 1.463 . S
C902 N906 1.427 . S
C903 H893 0.929 . S
C903 C901 1.433 . S
C903 N906 1.384 . S
C904 H895 0.929 . S
C904 C896 1.378 . S
C904 C899 1.350 . S
C905 H892 0.929 . S
C905 C897 1.433 . S
C905 N907 1.384 . S
N906 C902 1.427 . S
N906 C903 1.384 . S
N907 C899 1.427 . S
N907 C905 1.384 . S
H908 C914 0.930 . S
H909 C918 0.930 . S
H910 C923 0.929 . S
H911 C921 0.929 . S
H912 C916 0.929 . S
H913 C922 0.929 . S
C914 H908 0.930 . S
C914 C915 1.367 . S
C914 C922 1.378 . S
C915 C914 1.367 . S
C915 C923 1.433 . S
C916 H912 0.929 . S
C916 C918 1.378 . S
C916 C920 1.350 . S
C917 C920 1.463 . S
C917 C922 1.350 . S
C917 N925 1.427 . S
C918 H909 0.930 . S
C918 C916 1.378 . S
C918 C919 1.367 . S
C919 C918 1.367 . S
C919 C921 1.433 . S
C920 C916 1.350 . S
C920 C917 1.463 . S
C920 N924 1.427 . S
C921 H911 0.929 . S
C921 C919 1.433 . S
C921 N924 1.384 . S
C922 H913 0.929 . S
C922 C914 1.378 . S
C922 C917 1.350 . S
C923 H910 0.929 . S
C923 C915 1.433 . S
C923 N925 1.384 . S
N924 C920 1.427 . S
N924 C921 1.384 . S
N925 C917 1.427 . S
N925 C923 1.384 . S
H926 C932 0.930 . S
H927 C936 0.930 . S
H928 C941 0.929 . S
H929 C939 0.929 . S
H930 C934 0.929 . S
H931 C940 0.929 . S
C932 H926 0.930 . S
C932 C933 1.367 . S
C932 C940 1.378 . S
C933 C932 1.367 . S
C933 C941 1.433 . S
C934 H930 0.929 . S
C934 C936 1.378 . S
C934 C938 1.350 . S
C935 C938 1.463 . S
C935 C940 1.350 . S
C935 N943 1.427 . S
C936 H927 0.930 . S
C936 C934 1.378 . S
C936 C937 1.367 . S
C937 C936 1.367 . S
C937 C939 1.433 . S
C938 C934 1.350 . S
C938 C935 1.463 . S
C938 N942 1.427 . S
C939 H929 0.929 . S
C939 C937 1.433 . S
C939 N942 1.384 . S
C940 H931 0.929 . S
C940 C932 1.378 . S
C940 C935 1.350 . S
C941 H928 0.929 . S
C941 C933 1.433 . S
C941 N943 1.384 . S
N942 C938 1.427 . S
N942 C939 1.384 . S
N943 C935 1.427 . S
N943 C941 1.384 . S
H944 C950 0.930 . S
H945 C954 0.930 . S
H946 C959 0.929 . S
H947 C957 0.929 . S
H948 C952 0.929 . S
H949 C958 0.929 . S
C950 H944 0.930 . S
C950 C951 1.367 . S
C950 C958 1.378 . S
C951 C950 1.367 . S
C951 C959 1.433 . S
C952 H948 0.929 . S
C952 C954 1.378 . S
C952 C956 1.350 . S
C953 C956 1.463 . S
C953 C958 1.350 . S
C953 N961 1.427 . S
C954 H945 0.930 . S
C954 C952 1.378 . S
C954 C955 1.367 . S
C955 C954 1.367 . S
C955 C957 1.433 . S
C956 C952 1.350 . S
C956 C953 1.463 . S
C956 N960 1.427 . S
C957 H947 0.929 . S
C957 C955 1.433 . S
C957 N960 1.384 . S
C958 H949 0.929 . S
C958 C950 1.378 . S
C958 C953 1.350 . S
C959 H946 0.929 . S
C959 C951 1.433 . S
C959 N961 1.384 . S
N960 C956 1.427 . S
N960 C957 1.384 . S
N961 C953 1.427 . S
N961 C959 1.384 . S
H962 C968 0.930 . S
H963 C972 0.930 1_455 S
H964 C977 0.929 . S
H965 C975 0.929 . S
H966 C970 0.929 . S
H967 C976 0.929 1_545 S
C968 H962 0.930 . S
C968 C969 1.367 . S
C968 C976 1.378 . S
C969 C968 1.367 . S
C969 C977 1.433 . S
C970 H966 0.929 . S
C970 C972 1.378 . S
C970 C974 1.350 . S
C971 C974 1.463 . S
C971 C976 1.350 . S
C971 N979 1.427 . S
C972 H963 0.930 1_655 S
C972 C970 1.378 . S
C972 C973 1.367 1_565 S
C973 C972 1.367 1_545 S
C973 C975 1.433 . S
C974 C970 1.350 . S
C974 C971 1.463 . S
C974 N978 1.427 1_565 S
C975 H965 0.929 . S
C975 C973 1.433 . S
C975 N978 1.384 . S
C976 H967 0.929 1_565 S
C976 C968 1.378 . S
C976 C971 1.350 . S
C977 H964 0.929 . S
C977 C969 1.433 . S
C977 N979 1.384 . S
N978 C974 1.427 1_545 S
N978 C975 1.384 . S
N979 C971 1.427 . S
N979 C977 1.384 . S
H980 C986 0.930 . S
H981 C990 0.930 . S
H982 C995 0.929 . S
H983 C993 0.929 . S
H984 C988 0.929 . S
H985 C994 0.929 . S
C986 H980 0.930 . S
C986 C987 1.367 . S
C986 C994 1.378 . S
C987 C986 1.367 . S
C987 C995 1.433 . S
C988 H984 0.929 . S
C988 C990 1.378 . S
C988 C992 1.350 . S
C989 C992 1.463 . S
C989 C994 1.350 . S
C989 N997 1.427 . S
C990 H981 0.930 . S
C990 C988 1.378 . S
C990 C991 1.367 . S
C991 C990 1.367 . S
C991 C993 1.433 . S
C992 C988 1.350 . S
C992 C989 1.463 . S
C992 N996 1.427 . S
C993 H983 0.929 . S
C993 C991 1.433 . S
C993 N996 1.384 . S
C994 H985 0.929 . S
C994 C986 1.378 . S
C994 C989 1.350 . S
C995 H982 0.929 . S
C995 C987 1.433 . S
C995 N997 1.384 . S
N996 C992 1.427 . S
N996 C993 1.384 . S
N997 C989 1.427 . S
N997 C995 1.384 . S
H998 C1004 0.930 . S
H999 C1008 0.930 . S
H1000 C1013 0.929 . S
H1001 C1011 0.929 . S
H1002 C1006 0.929 . S
H1003 C1012 0.929 . S
C1004 H998 0.930 . S
C1004 C1005 1.367 . S
C1004 C1012 1.378 . S
C1005 C1004 1.367 . S
C1005 C1013 1.433 . S
C1006 H1002 0.929 . S
C1006 C1008 1.378 . S
C1006 C1010 1.350 . S
C1007 C1010 1.463 . S
C1007 C1012 1.350 . S
C1007 N1015 1.427 . S
C1008 H999 0.930 . S
C1008 C1006 1.378 . S
C1008 C1009 1.367 1_545 S
C1009 C1008 1.367 1_565 S
C1009 C1011 1.433 . S
C1010 C1006 1.350 . S
C1010 C1007 1.463 . S
C1010 N1014 1.427 . S
C1011 H1001 0.929 . S
C1011 C1009 1.433 . S
C1011 N1014 1.384 1_565 S
C1012 H1003 0.929 . S
C1012 C1004 1.378 . S
C1012 C1007 1.350 . S
C1013 H1000 0.929 . S
C1013 C1005 1.433 . S
C1013 N1015 1.384 . S
N1014 C1010 1.427 . S
N1014 C1011 1.384 1_545 S
N1015 C1007 1.427 . S
N1015 C1013 1.384 . S
H1016 C1022 0.930 . S
H1017 C1026 0.930 . S
H1018 C1031 0.929 . S
H1019 C1029 0.929 . S
H1020 C1024 0.929 . S
H1021 C1030 0.929 . S
C1022 H1016 0.930 . S
C1022 C1023 1.367 . S
C1022 C1030 1.378 . S
C1023 C1022 1.367 . S
C1023 C1031 1.433 . S
C1024 H1020 0.929 . S
C1024 C1026 1.378 . S
C1024 C1028 1.350 . S
C1025 C1028 1.463 . S
C1025 C1030 1.350 . S
C1025 N1033 1.427 . S
C1026 H1017 0.930 . S
C1026 C1024 1.378 . S
C1026 C1027 1.367 . S
C1027 C1026 1.367 . S
C1027 C1029 1.433 . S
C1028 C1024 1.350 . S
C1028 C1025 1.463 . S
C1028 N1032 1.427 . S
C1029 H1019 0.929 . S
C1029 C1027 1.433 . S
C1029 N1032 1.384 . S
C1030 H1021 0.929 . S
C1030 C1022 1.378 . S
C1030 C1025 1.350 . S
C1031 H1018 0.929 . S
C1031 C1023 1.433 . S
C1031 N1033 1.384 . S
N1032 C1028 1.427 . S
N1032 C1029 1.384 . S
N1033 C1025 1.427 . S
N1033 C1031 1.384 . S
H1034 C1040 0.930 . S
H1035 C1044 0.930 . S
H1036 C1049 0.929 . S
H1037 C1047 0.929 . S
H1038 C1042 0.929 . S
H1039 C1048 0.929 . S
C1040 H1034 0.930 . S
C1040 C1041 1.367 1_545 S
C1040 C1048 1.378 . S
C1041 C1040 1.367 1_565 S
C1041 C1049 1.433 . S
C1042 H1038 0.929 . S
C1042 C1044 1.378 . S
C1042 C1046 1.350 . S
C1043 C1046 1.463 . S
C1043 C1048 1.350 . S
C1043 N1051 1.427 . S
C1044 H1035 0.930 . S
C1044 C1042 1.378 . S
C1044 C1045 1.367 . S
C1045 C1044 1.367 . S
C1045 C1047 1.433 . S
C1046 C1042 1.350 . S
C1046 C1043 1.463 . S
C1046 N1050 1.427 . S
C1047 H1037 0.929 . S
C1047 C1045 1.433 . S
C1047 N1050 1.384 . S
C1048 H1039 0.929 . S
C1048 C1040 1.378 . S
C1048 C1043 1.350 . S
C1049 H1036 0.929 . S
C1049 C1041 1.433 . S
C1049 N1051 1.384 1_565 S
N1050 C1046 1.427 . S
N1050 C1047 1.384 . S
N1051 C1043 1.427 . S
N1051 C1049 1.384 1_545 S
H1052 C1058 0.930 . S
H1053 C1062 0.930 . S
H1054 C1067 0.929 . S
H1055 C1065 0.929 . S
H1056 C1060 0.929 . S
H1057 C1066 0.929 . S
C1058 H1052 0.930 . S
C1058 C1059 1.367 . S
C1058 C1066 1.378 . S
C1059 C1058 1.367 . S
C1059 C1067 1.433 . S
C1060 H1056 0.929 . S
C1060 C1062 1.378 . S
C1060 C1064 1.350 . S
C1061 C1064 1.463 . S
C1061 C1066 1.350 . S
C1061 N1069 1.427 . S
C1062 H1053 0.930 . S
C1062 C1060 1.378 . S
C1062 C1063 1.367 . S
C1063 C1062 1.367 . S
C1063 C1065 1.433 . S
C1064 C1060 1.350 . S
C1064 C1061 1.463 . S
C1064 N1068 1.427 . S
C1065 H1055 0.929 . S
C1065 C1063 1.433 . S
C1065 N1068 1.384 . S
C1066 H1057 0.929 . S
C1066 C1058 1.378 . S
C1066 C1061 1.350 . S
C1067 H1054 0.929 . S
C1067 C1059 1.433 . S
C1067 N1069 1.384 . S
N1068 C1064 1.427 . S
N1068 C1065 1.384 . S
N1069 C1061 1.427 . S
N1069 C1067 1.384 . S
H1070 C1076 0.930 . S
H1071 C1080 0.930 . S
H1072 C1085 0.929 . S
H1073 C1083 0.929 . S
H1074 C1078 0.929 1_545 S
H1075 C1084 0.929 . S
C1076 H1070 0.930 . S
C1076 C1077 1.367 1_565 S
C1076 C1084 1.378 . S
C1077 C1076 1.367 1_545 S
C1077 C1085 1.433 . S
C1078 H1074 0.929 1_565 S
C1078 C1080 1.378 . S
C1078 C1082 1.350 . S
C1079 C1082 1.463 . S
C1079 C1084 1.350 . S
C1079 N1087 1.427 1_565 S
C1080 H1071 0.930 . S
C1080 C1078 1.378 . S
C1080 C1081 1.367 . S
C1081 C1080 1.367 . S
C1081 C1083 1.433 . S
C1082 C1078 1.350 . S
C1082 C1079 1.463 . S
C1082 N1086 1.427 . S
C1083 H1073 0.929 . S
C1083 C1081 1.433 . S
C1083 N1086 1.384 . S
C1084 H1075 0.929 . S
C1084 C1076 1.378 . S
C1084 C1079 1.350 . S
C1085 H1072 0.929 . S
C1085 C1077 1.433 . S
C1085 N1087 1.384 . S
N1086 C1082 1.427 . S
N1086 C1083 1.384 . S
N1087 C1079 1.427 1_545 S
N1087 C1085 1.384 . S
H1088 C1094 0.882 1_554 S
H1089 C1098 0.930 . S
H1090 C1103 0.929 . S
H1091 C1101 0.929 . S
H1092 C1096 0.929 . S
H1093 C1102 0.929 . S
C1094 H1088 0.882 1_556 S
C1094 C1095 1.367 . S
C1094 C1102 1.378 . S
C1095 C1094 1.367 . S
C1095 C1103 1.433 . S
C1096 H1092 0.929 . S
C1096 C1098 1.378 . S
C1096 C1100 1.350 . S
C1097 C1100 1.463 . S
C1097 C1102 1.350 . S
C1097 N1105 1.427 . S
C1098 H1089 0.930 . S
C1098 C1096 1.378 . S
C1098 C1099 1.367 . S
C1099 C1098 1.367 . S
C1099 C1101 1.433 . S
C1100 C1096 1.350 . S
C1100 C1097 1.463 . S
C1100 N1104 1.427 . S
C1101 H1091 0.929 . S
C1101 C1099 1.433 . S
C1101 N1104 1.384 . S
C1102 H1093 0.929 . S
C1102 C1094 1.378 . S
C1102 C1097 1.350 . S
C1103 H1090 0.929 . S
C1103 C1095 1.433 . S
C1103 N1105 1.384 . S
N1104 C1100 1.427 . S
N1104 C1101 1.384 . S
N1105 C1097 1.427 . S
N1105 C1103 1.384 . S
H1106 C1112 0.930 . S
H1107 C1116 0.930 . S
H1108 C1121 0.929 . S
H1109 C1119 0.929 . S
H1110 C1114 0.929 . S
H1111 C1120 0.929 . S
C1112 H1106 0.930 . S
C1112 C1113 1.367 . S
C1112 C1120 1.378 . S
C1113 C1112 1.367 . S
C1113 C1121 1.433 . S
C1114 H1110 0.929 . S
C1114 C1116 1.378 . S
C1114 C1118 1.350 . S
C1115 C1118 1.463 . S
C1115 C1120 1.350 . S
C1115 N1123 1.427 . S
C1116 H1107 0.930 . S
C1116 C1114 1.378 . S
C1116 C1117 1.367 . S
C1117 C1116 1.367 . S
C1117 C1119 1.433 . S
C1118 C1114 1.350 . S
C1118 C1115 1.463 . S
C1118 N1122 1.427 . S
C1119 H1109 0.929 . S
C1119 C1117 1.433 . S
C1119 N1122 1.384 . S
C1120 H1111 0.929 . S
C1120 C1112 1.378 . S
C1120 C1115 1.350 . S
C1121 H1108 0.929 . S
C1121 C1113 1.433 . S
C1121 N1123 1.384 . S
N1122 C1118 1.427 . S
N1122 C1119 1.384 . S
N1123 C1115 1.427 . S
N1123 C1121 1.384 . S
H1124 C1130 0.930 . S
H1125 C1134 0.930 . S
H1126 C1139 0.929 . S
H1127 C1137 0.929 . S
H1128 C1132 0.929 . S
H1129 C1138 0.929 . S
C1130 H1124 0.930 . S
C1130 C1131 1.367 . S
C1130 C1138 1.378 . S
C1131 C1130 1.367 . S
C1131 C1139 1.433 . S
C1132 H1128 0.929 . S
C1132 C1134 1.378 . S
C1132 C1136 1.350 . S
C1133 C1136 1.463 . S
C1133 C1138 1.350 . S
C1133 N1141 1.427 . S
C1134 H1125 0.930 . S
C1134 C1132 1.378 . S
C1134 C1135 1.367 . S
C1135 C1134 1.367 . S
C1135 C1137 1.433 . S
C1136 C1132 1.350 . S
C1136 C1133 1.463 . S
C1136 N1140 1.427 . S
C1137 H1127 0.929 . S
C1137 C1135 1.433 . S
C1137 N1140 1.384 . S
C1138 H1129 0.929 . S
C1138 C1130 1.378 . S
C1138 C1133 1.350 . S
C1139 H1126 0.929 . S
C1139 C1131 1.433 . S
C1139 N1141 1.384 . S
N1140 C1136 1.427 . S
N1140 C1137 1.384 . S
N1141 C1133 1.427 . S
N1141 C1139 1.384 . S
H1142 C1148 0.930 . S
H1143 C1152 0.930 . S
H1144 C1157 0.929 . S
H1145 C1155 0.929 . S
H1146 C1150 0.929 . S
H1147 C1156 0.929 . S
C1148 H1142 0.930 . S
C1148 C1149 1.367 . S
C1148 C1156 1.378 . S
C1149 C1148 1.367 . S
C1149 C1157 1.433 . S
C1150 H1146 0.929 . S
C1150 C1152 1.378 . S
C1150 C1154 1.350 . S
C1151 C1154 1.463 . S
C1151 C1156 1.350 . S
C1151 N1159 1.427 . S
C1152 H1143 0.930 . S
C1152 C1150 1.378 . S
C1152 C1153 1.367 . S
C1153 C1152 1.367 . S
C1153 C1155 1.433 . S
C1154 C1150 1.350 . S
C1154 C1151 1.463 . S
C1154 N1158 1.427 . S
C1155 H1145 0.929 . S
C1155 C1153 1.433 . S
C1155 N1158 1.384 . S
C1156 H1147 0.929 . S
C1156 C1148 1.378 . S
C1156 C1151 1.350 . S
C1157 H1144 0.929 . S
C1157 C1149 1.433 . S
C1157 N1159 1.384 . S
N1158 C1154 1.427 . S
N1158 C1155 1.384 . S
N1159 C1151 1.427 . S
N1159 C1157 1.384 . S
H1160 C1166 0.930 . S
H1161 C1170 0.930 . S
H1162 C1175 0.929 . S
H1163 C1173 0.933 . S
H1164 C1168 0.929 . S
H1165 C1174 0.929 . S
C1166 H1160 0.930 . S
C1166 C1167 1.367 . S
C1166 C1174 1.378 . S
C1167 C1166 1.367 . S
C1167 C1175 1.433 . S
C1168 H1164 0.929 . S
C1168 C1170 1.378 . S
C1168 C1172 1.350 . S
C1169 C1172 1.463 . S
C1169 C1174 1.350 . S
C1169 N1177 1.427 . S
C1170 H1161 0.930 . S
C1170 C1168 1.378 . S
C1170 C1171 1.367 . S
C1171 C1170 1.367 . S
C1171 C1173 1.433 . S
C1172 C1168 1.350 . S
C1172 C1169 1.463 . S
C1172 N1176 1.427 . S
C1173 H1163 0.933 . S
C1173 C1171 1.433 . S
C1173 N1176 1.384 . S
C1174 H1165 0.929 . S
C1174 C1166 1.378 . S
C1174 C1169 1.350 . S
C1175 H1162 0.929 . S
C1175 C1167 1.433 . S
C1175 N1177 1.384 . S
N1176 C1172 1.427 . S
N1176 C1173 1.384 . S
N1177 C1169 1.427 . S
N1177 C1175 1.384 . S
H1178 C1184 0.930 . S
H1179 C1188 0.930 . S
H1180 C1193 0.929 . S
H1181 C1191 0.929 . S
H1182 C1186 0.929 . S
H1183 C1192 0.929 . S
C1184 H1178 0.930 . S
C1184 C1185 1.367 . S
C1184 C1192 1.378 . S
C1185 C1184 1.367 . S
C1185 C1193 1.433 . S
C1186 H1182 0.929 . S
C1186 C1188 1.378 . S
C1186 C1190 1.350 . S
C1187 C1190 1.463 . S
C1187 C1192 1.350 . S
C1187 N1195 1.427 . S
C1188 H1179 0.930 . S
C1188 C1186 1.378 . S
C1188 C1189 1.367 . S
C1189 C1188 1.367 . S
C1189 C1191 1.433 . S
C1190 C1186 1.350 . S
C1190 C1187 1.463 . S
C1190 N1194 1.427 . S
C1191 H1181 0.929 . S
C1191 C1189 1.433 . S
C1191 N1194 1.384 . S
C1192 H1183 0.929 . S
C1192 C1184 1.378 . S
C1192 C1187 1.350 . S
C1193 H1180 0.929 . S
C1193 C1185 1.433 . S
C1193 N1195 1.384 . S
N1194 C1190 1.427 . S
N1194 C1191 1.384 . S
N1195 C1187 1.427 . S
N1195 C1193 1.384 . S
H1196 C1202 0.930 . S
H1197 C1206 0.930 . S
H1198 C1211 0.929 . S
H1199 C1209 0.929 . S
H1200 C1204 0.929 . S
H1201 C1210 0.929 . S
C1202 H1196 0.930 . S
C1202 C1203 1.367 . S
C1202 C1210 1.378 . S
C1203 C1202 1.367 . S
C1203 C1211 1.433 . S
C1204 H1200 0.929 . S
C1204 C1206 1.378 . S
C1204 C1208 1.350 . S
C1205 C1208 1.463 . S
C1205 C1210 1.350 . S
C1205 N1213 1.427 . S
C1206 H1197 0.930 . S
C1206 C1204 1.378 . S
C1206 C1207 1.367 . S
C1207 C1206 1.367 . S
C1207 C1209 1.433 . S
C1208 C1204 1.350 . S
C1208 C1205 1.463 . S
C1208 N1212 1.427 . S
C1209 H1199 0.929 . S
C1209 C1207 1.433 . S
C1209 N1212 1.384 . S
C1210 H1201 0.929 . S
C1210 C1202 1.378 . S
C1210 C1205 1.350 . S
C1211 H1198 0.929 . S
C1211 C1203 1.433 . S
C1211 N1213 1.384 . S
N1212 C1208 1.427 . S
N1212 C1209 1.384 . S
N1213 C1205 1.427 . S
N1213 C1211 1.384 . S
H1214 C1220 0.930 . S
H1215 C1224 0.930 . S
H1216 C1229 0.929 . S
H1217 C1227 0.929 1_655 S
H1218 C1222 0.929 . S
H1219 C1228 0.929 . S
C1220 H1214 0.930 . S
C1220 C1221 1.367 . S
C1220 C1228 1.378 . S
C1221 C1220 1.367 . S
C1221 C1229 1.433 . S
C1222 H1218 0.929 . S
C1222 C1224 1.378 . S
C1222 C1226 1.350 . S
C1223 C1226 1.463 . S
C1223 C1228 1.350 . S
C1223 N1231 1.427 . S
C1224 H1215 0.930 . S
C1224 C1222 1.378 . S
C1224 C1225 1.367 . S
C1225 C1224 1.367 . S
C1225 C1227 1.433 . S
C1226 C1222 1.350 . S
C1226 C1223 1.463 . S
C1226 N1230 1.427 . S
C1227 H1217 0.929 1_455 S
C1227 C1225 1.433 . S
C1227 N1230 1.384 . S
C1228 H1219 0.929 . S
C1228 C1220 1.378 . S
C1228 C1223 1.350 . S
C1229 H1216 0.929 . S
C1229 C1221 1.433 . S
C1229 N1231 1.384 . S
N1230 C1226 1.427 . S
N1230 C1227 1.384 . S
N1231 C1223 1.427 . S
N1231 C1229 1.384 . S
H1232 C1238 0.930 . S
H1233 C1242 0.930 . S
H1234 C1247 0.929 . S
H1235 C1245 0.929 . S
H1236 C1240 0.929 . S
H1237 C1246 0.929 . S
C1238 H1232 0.930 . S
C1238 C1239 1.367 . S
C1238 C1246 1.378 . S
C1239 C1238 1.367 . S
C1239 C1247 1.433 . S
C1240 H1236 0.929 . S
C1240 C1242 1.378 . S
C1240 C1244 1.350 . S
C1241 C1244 1.463 . S
C1241 C1246 1.350 . S
C1241 N1249 1.427 . S
C1242 H1233 0.930 . S
C1242 C1240 1.378 . S
C1242 C1243 1.367 . S
C1243 C1242 1.367 . S
C1243 C1245 1.433 . S
C1244 C1240 1.350 . S
C1244 C1241 1.463 . S
C1244 N1248 1.427 . S
C1245 H1235 0.929 . S
C1245 C1243 1.433 . S
C1245 N1248 1.384 . S
C1246 H1237 0.929 . S
C1246 C1238 1.378 . S
C1246 C1241 1.350 . S
C1247 H1234 0.929 . S
C1247 C1239 1.433 . S
C1247 N1249 1.384 . S
N1248 C1244 1.427 . S
N1248 C1245 1.384 . S
N1249 C1241 1.427 . S
N1249 C1247 1.384 . S
H1250 C1256 0.930 . S
H1251 C1260 0.930 . S
H1252 C1265 0.929 . S
H1253 C1263 0.929 . S
H1254 C1258 0.929 . S
H1255 C1264 0.929 . S
C1256 H1250 0.930 . S
C1256 C1257 1.367 . S
C1256 C1264 1.378 . S
C1257 C1256 1.367 . S
C1257 C1265 1.433 . S
C1258 H1254 0.929 . S
C1258 C1260 1.378 . S
C1258 C1262 1.350 1_545 S
C1259 C1262 1.463 . S
C1259 C1264 1.350 . S
C1259 N1267 1.427 . S
C1260 H1251 0.930 . S
C1260 C1258 1.378 . S
C1260 C1261 1.367 . S
C1261 C1260 1.367 . S
C1261 C1263 1.433 1_545 S
C1262 C1258 1.350 1_565 S
C1262 C1259 1.463 . S
C1262 N1266 1.427 . S
C1263 H1253 0.929 . S
C1263 C1261 1.433 1_565 S
C1263 N1266 1.384 . S
C1264 H1255 0.929 . S
C1264 C1256 1.378 . S
C1264 C1259 1.350 . S
C1265 H1252 0.929 . S
C1265 C1257 1.433 . S
C1265 N1267 1.384 . S
N1266 C1262 1.427 . S
N1266 C1263 1.384 . S
N1267 C1259 1.427 . S
N1267 C1265 1.384 . S
H1268 C1274 0.930 . S
H1269 C1278 0.959 . S
H1270 C1283 0.929 . S
H1271 C1281 0.929 . S
H1272 C1276 0.929 . S
H1273 C1282 0.929 . S
C1274 H1268 0.930 . S
C1274 C1275 1.367 . S
C1274 C1282 1.378 . S
C1275 C1274 1.367 . S
C1275 C1283 1.433 . S
C1276 H1272 0.929 . S
C1276 C1278 1.378 . S
C1276 C1280 1.350 . S
C1277 C1280 1.463 . S
C1277 C1282 1.350 . S
C1277 N1285 1.427 . S
C1278 H1269 0.959 . S
C1278 C1276 1.378 . S
C1278 C1279 1.367 . S
C1279 C1278 1.367 . S
C1279 C1281 1.433 . S
C1280 C1276 1.350 . S
C1280 C1277 1.463 . S
C1280 N1284 1.427 . S
C1281 H1271 0.929 . S
C1281 C1279 1.433 . S
C1281 N1284 1.384 . S
C1282 H1273 0.929 . S
C1282 C1274 1.378 . S
C1282 C1277 1.350 . S
C1283 H1270 0.929 . S
C1283 C1275 1.433 . S
C1283 N1285 1.384 . S
N1284 C1280 1.427 . S
N1284 C1281 1.384 . S
N1285 C1277 1.427 . S
N1285 C1283 1.384 . S
H1286 C1292 0.930 . S
H1287 C1296 0.930 . S
H1288 C1301 0.929 . S
H1289 C1299 0.929 . S
H1290 C1294 0.929 . S
H1291 C1300 0.929 . S
C1292 H1286 0.930 . S
C1292 C1293 1.367 1_545 S
C1292 C1300 1.378 . S
C1293 C1292 1.367 1_565 S
C1293 C1301 1.433 . S
C1294 H1290 0.929 . S
C1294 C1296 1.378 . S
C1294 C1298 1.350 . S
C1295 C1298 1.463 . S
C1295 C1300 1.350 . S
C1295 N1303 1.427 1_545 S
C1296 H1287 0.930 . S
C1296 C1294 1.378 . S
C1296 C1297 1.367 . S
C1297 C1296 1.367 . S
C1297 C1299 1.433 . S
C1298 C1294 1.350 . S
C1298 C1295 1.463 . S
C1298 N1302 1.427 . S
C1299 H1289 0.929 . S
C1299 C1297 1.433 . S
C1299 N1302 1.384 . S
C1300 H1291 0.929 . S
C1300 C1292 1.378 . S
C1300 C1295 1.350 . S
C1301 H1288 0.929 . S
C1301 C1293 1.433 . S
C1301 N1303 1.384 . S
N1302 C1298 1.427 . S
N1302 C1299 1.384 . S
N1303 C1295 1.427 1_565 S
N1303 C1301 1.384 . S
H1304 C1310 0.930 . S
H1305 C1314 0.930 . S
H1306 C1319 0.929 . S
H1307 C1317 0.929 . S
H1308 C1312 0.929 . S
H1309 C1318 0.929 . S
C1310 H1304 0.930 . S
C1310 C1311 1.367 . S
C1310 C1318 1.378 . S
C1311 C1310 1.367 . S
C1311 C1319 1.433 . S
C1312 H1308 0.929 . S
C1312 C1314 1.378 . S
C1312 C1316 1.350 . S
C1313 C1316 1.463 . S
C1313 C1318 1.350 . S
C1313 N1321 1.427 . S
C1314 H1305 0.930 . S
C1314 C1312 1.378 . S
C1314 C1315 1.367 . S
C1315 C1314 1.367 . S
C1315 C1317 1.433 . S
C1316 C1312 1.350 . S
C1316 C1313 1.463 . S
C1316 N1320 1.427 . S
C1317 H1307 0.929 . S
C1317 C1315 1.433 . S
C1317 N1320 1.384 . S
C1318 H1309 0.929 . S
C1318 C1310 1.378 . S
C1318 C1313 1.350 . S
C1319 H1306 0.929 . S
C1319 C1311 1.433 . S
C1319 N1321 1.384 . S
N1320 C1316 1.427 . S
N1320 C1317 1.384 . S
N1321 C1313 1.427 . S
N1321 C1319 1.384 . S
H1322 C1328 0.930 . S
H1323 C1332 0.930 . S
H1324 C1337 0.929 . S
H1325 C1335 0.929 . S
H1326 C1330 0.929 . S
H1327 C1336 0.929 1_565 S
C1328 H1322 0.930 . S
C1328 C1329 1.367 . S
C1328 C1336 1.378 . S
C1329 C1328 1.367 . S
C1329 C1337 1.433 . S
C1330 H1326 0.929 . S
C1330 C1332 1.378 . S
C1330 C1334 1.350 . S
C1331 C1334 1.463 . S
C1331 C1336 1.350 . S
C1331 N1339 1.427 . S
C1332 H1323 0.930 . S
C1332 C1330 1.378 . S
C1332 C1333 1.367 1_545 S
C1333 C1332 1.367 1_565 S
C1333 C1335 1.433 . S
C1334 C1330 1.350 . S
C1334 C1331 1.463 . S
C1334 N1338 1.427 1_545 S
C1335 H1325 0.929 . S
C1335 C1333 1.433 . S
C1335 N1338 1.384 . S
C1336 H1327 0.929 1_545 S
C1336 C1328 1.378 . S
C1336 C1331 1.350 . S
C1337 H1324 0.929 . S
C1337 C1329 1.433 . S
C1337 N1339 1.384 . S
N1338 C1334 1.427 1_565 S
N1338 C1335 1.384 . S
N1339 C1331 1.427 . S
N1339 C1337 1.384 . S
H1340 C1346 0.930 . S
H1341 C1350 0.930 . S
H1342 C1355 0.929 . S
H1343 C1353 0.929 1_556 S
H1344 C1348 0.929 . S
H1345 C1354 0.929 . S
C1346 H1340 0.930 . S
C1346 C1347 1.367 . S
C1346 C1354 1.378 . S
C1347 C1346 1.367 . S
C1347 C1355 1.433 . S
C1348 H1344 0.929 . S
C1348 C1350 1.378 . S
C1348 C1352 1.350 . S
C1349 C1352 1.463 . S
C1349 C1354 1.350 . S
C1349 N1357 1.427 . S
C1350 H1341 0.930 . S
C1350 C1348 1.378 . S
C1350 C1351 1.367 . S
C1351 C1350 1.367 . S
C1351 C1353 1.433 . S
C1352 C1348 1.350 . S
C1352 C1349 1.463 . S
C1352 N1356 1.427 . S
C1353 H1343 0.929 1_554 S
C1353 C1351 1.433 . S
C1353 N1356 1.384 . S
C1354 H1345 0.929 . S
C1354 C1346 1.378 . S
C1354 C1349 1.350 . S
C1355 H1342 0.929 . S
C1355 C1347 1.433 . S
C1355 N1357 1.384 . S
N1356 C1352 1.427 . S
N1356 C1353 1.384 . S
N1357 C1349 1.427 . S
N1357 C1355 1.384 . S
H1358 C1364 0.930 . S
H1359 C1368 0.930 . S
H1360 C1373 0.929 . S
H1361 C1371 0.929 . S
H1362 C1366 0.929 . S
H1363 C1372 0.929 1_545 S
C1364 H1358 0.930 . S
C1364 C1365 1.367 . S
C1364 C1372 1.378 . S
C1365 C1364 1.367 . S
C1365 C1373 1.433 . S
C1366 H1362 0.929 . S
C1366 C1368 1.378 . S
C1366 C1370 1.350 . S
C1367 C1370 1.463 . S
C1367 C1372 1.350 . S
C1367 N1375 1.427 . S
C1368 H1359 0.930 . S
C1368 C1366 1.378 . S
C1368 C1369 1.367 1_565 S
C1369 C1368 1.367 1_545 S
C1369 C1371 1.433 . S
C1370 C1366 1.350 . S
C1370 C1367 1.463 . S
C1370 N1374 1.427 1_565 S
C1371 H1361 0.929 . S
C1371 C1369 1.433 . S
C1371 N1374 1.384 . S
C1372 H1363 0.929 1_565 S
C1372 C1364 1.378 . S
C1372 C1367 1.350 . S
C1373 H1360 0.929 . S
C1373 C1365 1.433 . S
C1373 N1375 1.384 . S
N1374 C1370 1.427 1_545 S
N1374 C1371 1.384 . S
N1375 C1367 1.427 . S
N1375 C1373 1.384 . S
C519 C29 0.608 . S
C523 C349 0.587 . S
C537 C36 0.587 . S
C541 C381 0.607 . S
C555 C93 0.589 . S
C559 C285 0.606 . S
C573 C292 0.588 . S
C577 C125 0.606 . S
C591 C157 0.587 . S
C595 C452 0.608 . S
C609 C509 0.599 . S
C613 C164 0.596 . S
C627 C413 0.588 . S
C631 C221 0.606 . S
C645 C253 0.586 . S
C649 C420 0.608 . S
C663 C6 2.773 . S
C667 C134 2.773 . S
C681 C34 2.773 . S
C685 C418 2.773 . S
C699 C70 2.773 . S
C703 C198 2.773 . S
C717 C102 2.773 . S
C721 C486 2.773 . S
C735 C162 2.769 . S
C739 C290 2.769 . S
C753 C358 2.772 . S
C757 C230 2.772 . S
C771 C390 2.773 . S
C775 C262 2.773 . S
C789 C326 2.772 . S
C793 C450 2.772 . S
C807 C4 1.982 . S
C811 C226 1.978 . S
C825 C61 1.982 . S
C829 C386 1.978 . S
C843 C68 1.978 . S
C847 C166 1.973 . S
C861 C100 1.977 1_455 S
C865 C454 1.978 . S
C879 C98 1.977 . S
C883 C132 1.983 . S
C897 C189 1.977 . S
C901 C258 1.974 . S
C915 C196 1.981 . S
C919 C38 1.979 . S
C933 C322 1.978 . S
C937 C228 1.982 1_655 S
C951 C260 1.982 . S
C955 C482 1.979 1_565 S
C969 C130 1.976 . S
C973 C317 1.982 1_655 S
C987 C422 1.979 1_545 S
C991 C324 1.979 . S
C1005 C194 1.980 . S
C1009 C356 1.980 . S
C1023 C388 1.980 . S
C1027 C354 1.973 1_545 S
C1041 C445 1.980 1_455 S
C1045 C2 1.979 . S
C1059 C294 1.973 1_565 S
C1063 C477 1.980 . S
C1077 C484 1.982 . S
C1081 C66 1.979 . S
C1095 N13 0.883 1_556 S
C1099 N301 0.901 . S
C1113 N338 0.900 . S
C1117 N50 0.887 . S
C1131 N77 0.888 . S
C1135 N370 0.901 . S
C1149 N274 0.920 . S
C1153 N109 0.910 . S
C1167 N429 0.915 . S
C1171 N141 0.909 1_554 S
C1185 N461 0.911 . S
C1189 N178 0.906 . S
C1203 N498 0.900 . S
C1207 N205 0.886 . S
C1221 N402 0.901 . S
C1225 N237 0.890 . S
C1239 N45 0.914 . S
C1243 N269 0.893 . S
C1257 N82 0.919 . S
C1261 N306 0.910 . S
C1275 N114 0.900 . S
C1279 N333 0.885 1_556 S
C1293 N365 0.890 . S
C1297 N18 0.913 . S
C1311 N173 0.916 . S
C1315 N397 0.895 . S
C1329 N210 0.906 . S
C1333 N434 0.884 . S
C1347 N242 0.917 . S
C1351 N466 0.910 1_554 S
C1365 N146 0.906 . S
C1369 N493 0.884 . S
