# Generated by pormake.
# Topology pcl, (4)-cn, num edge types: 1
# Building blocks:
#     Node 0, Type 0, BuildingBlock: TATPOV_clean_sbu_0, # of connection points: 4
#     Node 1, Type 0, BuildingBlock: TATPOV_clean_sbu_0, # of connection points: 4
#     Node 2, Type 0, BuildingBlock: TATPOV_clean_sbu_0, # of connection points: 4
#     Node 3, Type 0, BuildingBlock: TATPOV_clean_sbu_0, # of connection points: 4
#     Node 4, Type 0, BuildingBlock: TATPOV_clean_sbu_0, # of connection points: 4
#     Node 5, Type 0, BuildingBlock: TATPOV_clean_sbu_0, # of connection points: 4
#     Node 6, Type 0, BuildingBlock: TATPOV_clean_sbu_0, # of connection points: 4
#     Node 7, Type 0, BuildingBlock: TATPOV_clean_sbu_0, # of connection points: 4
#     Node 8, Type 0, BuildingBlock: TATPOV_clean_sbu_0, # of connection points: 4
#     Node 9, Type 0, BuildingBlock: TATPOV_clean_sbu_0, # of connection points: 4
#     Node 10, Type 0, BuildingBlock: TATPOV_clean_sbu_0, # of connection points: 4
#     Node 11, Type 0, BuildingBlock: TATPOV_clean_sbu_0, # of connection points: 4
#     Node 12, Type 0, BuildingBlock: TATPOV_clean_sbu_0, # of connection points: 4
#     Node 13, Type 0, BuildingBlock: TATPOV_clean_sbu_0, # of connection points: 4
#     Node 14, Type 0, BuildingBlock: TATPOV_clean_sbu_0, # of connection points: 4
#     Node 15, Type 0, BuildingBlock: TATPOV_clean_sbu_0, # of connection points: 4
#     Edge 16, Type (0, 0), BuildingBlock: TEMPAE_clean_linker_10, # of connection points: 2
#     Edge 17, Type (0, 0), BuildingBlock: TEMPAE_clean_linker_10, # of connection points: 2
#     Edge 18, Type (0, 0), BuildingBlock: TEMPAE_clean_linker_10, # of connection points: 2
#     Edge 19, Type (0, 0), BuildingBlock: TEMPAE_clean_linker_10, # of connection points: 2
#     Edge 20, Type (0, 0), BuildingBlock: TEMPAE_clean_linker_10, # of connection points: 2
#     Edge 21, Type (0, 0), BuildingBlock: TEMPAE_clean_linker_10, # of connection points: 2
#     Edge 22, Type (0, 0), BuildingBlock: TEMPAE_clean_linker_10, # of connection points: 2
#     Edge 23, Type (0, 0), BuildingBlock: TEMPAE_clean_linker_10, # of connection points: 2
#     Edge 24, Type (0, 0), BuildingBlock: TEMPAE_clean_linker_10, # of connection points: 2
#     Edge 25, Type (0, 0), BuildingBlock: TEMPAE_clean_linker_10, # of connection points: 2
#     Edge 26, Type (0, 0), BuildingBlock: TEMPAE_clean_linker_10, # of connection points: 2
#     Edge 27, Type (0, 0), BuildingBlock: TEMPAE_clean_linker_10, # of connection points: 2
#     Edge 28, Type (0, 0), BuildingBlock: TEMPAE_clean_linker_10, # of connection points: 2
#     Edge 29, Type (0, 0), BuildingBlock: TEMPAE_clean_linker_10, # of connection points: 2
#     Edge 30, Type (0, 0), BuildingBlock: TEMPAE_clean_linker_10, # of connection points: 2
#     Edge 31, Type (0, 0), BuildingBlock: TEMPAE_clean_linker_10, # of connection points: 2
#     Edge 32, Type (0, 0), BuildingBlock: TEMPAE_clean_linker_10, # of connection points: 2
#     Edge 33, Type (0, 0), BuildingBlock: TEMPAE_clean_linker_10, # of connection points: 2
#     Edge 34, Type (0, 0), BuildingBlock: TEMPAE_clean_linker_10, # of connection points: 2
#     Edge 35, Type (0, 0), BuildingBlock: TEMPAE_clean_linker_10, # of connection points: 2
#     Edge 36, Type (0, 0), BuildingBlock: TEMPAE_clean_linker_10, # of connection points: 2
#     Edge 37, Type (0, 0), BuildingBlock: TEMPAE_clean_linker_10, # of connection points: 2
#     Edge 38, Type (0, 0), BuildingBlock: TEMPAE_clean_linker_10, # of connection points: 2
#     Edge 39, Type (0, 0), BuildingBlock: TEMPAE_clean_linker_10, # of connection points: 2
#     Edge 40, Type (0, 0), BuildingBlock: TEMPAE_clean_linker_10, # of connection points: 2
#     Edge 41, Type (0, 0), BuildingBlock: TEMPAE_clean_linker_10, # of connection points: 2
#     Edge 42, Type (0, 0), BuildingBlock: TEMPAE_clean_linker_10, # of connection points: 2
#     Edge 43, Type (0, 0), BuildingBlock: TEMPAE_clean_linker_10, # of connection points: 2
#     Edge 44, Type (0, 0), BuildingBlock: TEMPAE_clean_linker_10, # of connection points: 2
#     Edge 45, Type (0, 0), BuildingBlock: TEMPAE_clean_linker_10, # of connection points: 2
#     Edge 46, Type (0, 0), BuildingBlock: TEMPAE_clean_linker_10, # of connection points: 2
#     Edge 47, Type (0, 0), BuildingBlock: TEMPAE_clean_linker_10, # of connection points: 2
# Relax obj value: 0.053
# Max RMSD: 0.064
# Mean RMSD: 0.055
data_MOF--net-pcl--node1-TATPOV_clean_sbu_0--edge1-TEMPAE_clean_linker_10
_symmetry_space_group_name_H-M    P1
_symmetry_Int_Tables_number       1
_symmetry_cell_setting            triclinic
loop_
_symmetry_equiv_pos_as_xyz
'x, y, z'
_cell_length_a     44.32561
_cell_length_b     49.836395
_cell_length_c     45.322309
_cell_angle_alpha  89.94462
_cell_angle_beta   90.174524
_cell_angle_gamma 89.986704
loop_
_atom_site_label
_atom_site_type_symbol
_atom_site_fract_x
_atom_site_fract_y
_atom_site_fract_z
_atom_type_partial_charge
Zn0 Zn 0.14316 0.41517 0.10324 0.0
Zn1 Zn 0.16358 0.37971 0.06606 0.0
O2 O 0.1748 0.41575 0.04585 0.0
O3 O 0.15343 0.44496 0.07557 0.0
O4 O 0.17948 0.35135 0.03875 0.0
O5 O 0.17296 0.40406 0.13398 0.0
O6 O 0.18534 0.37022 0.10538 0.0
C7 C 0.16796 0.43994 0.05223 0.0
C8 C 0.09651 0.38063 0.082 0.0
O9 O 0.11782 0.37222 0.06564 0.0
O10 O 0.10181 0.39823 0.10148 0.0
C11 C 0.17242 0.32718 0.04442 0.0
O12 O 0.15522 0.32217 0.06735 0.0
C13 C 0.18773 0.38269 0.12981 0.0
Zn14 Zn 0.86074 0.59362 0.62751 0.0
Zn15 Zn 0.84071 0.62943 0.5911 0.0
O16 O 0.82812 0.59344 0.5716 0.0
O17 O 0.85062 0.56373 0.60005 0.0
O18 O 0.82214 0.65727 0.56433 0.0
O19 O 0.83109 0.60378 0.6584 0.0
O20 O 0.82045 0.63902 0.63109 0.0
C21 C 0.83505 0.56913 0.57739 0.0
C22 C 0.90793 0.62735 0.6061 0.0
O23 O 0.88693 0.63594 0.58923 0.0
O24 O 0.90202 0.61049 0.62618 0.0
C25 C 0.82998 0.6617 0.53782 0.0
O26 O 0.85225 0.64778 0.5264 0.0
C27 C 0.81735 0.62578 0.65495 0.0
Zn28 Zn 0.12743 0.62149 0.86709 0.0
Zn29 Zn 0.1611 0.65261 0.89985 0.0
O30 O 0.17063 0.61496 0.91662 0.0
O31 O 0.14211 0.58893 0.88901 0.0
O32 O 0.18652 0.67733 0.92459 0.0
O33 O 0.14761 0.63393 0.83067 0.0
O34 O 0.17749 0.65946 0.85749 0.0
C35 C 0.16097 0.59166 0.90982 0.0
C36 C 0.09177 0.65868 0.89863 0.0
O37 O 0.11739 0.66565 0.90898 0.0
O38 O 0.09006 0.64012 0.8797 0.0
C39 C 0.18016 0.6815 0.95152 0.0
O40 O 0.15705 0.66895 0.96326 0.0
C41 C 0.16903 0.6506 0.83242 0.0
Zn42 Zn 0.8525 0.39924 0.37548 0.0
Zn43 Zn 0.82985 0.36379 0.41105 0.0
O44 O 0.82088 0.39997 0.43202 0.0
O45 O 0.84483 0.42891 0.40388 0.0
O46 O 0.80989 0.33626 0.4369 0.0
O47 O 0.82177 0.39138 0.34453 0.0
O48 O 0.8079 0.35675 0.37133 0.0
C49 C 0.82947 0.42393 0.4267 0.0
C50 C 0.89679 0.36143 0.39521 0.0
O51 O 0.87515 0.35355 0.41153 0.0
O52 O 0.89236 0.3798 0.37636 0.0
C53 C 0.82211 0.32497 0.45906 0.0
O54 O 0.84966 0.33175 0.46678 0.0
C55 C 0.8059 0.37051 0.34771 0.0
Zn56 Zn 0.85164 0.60317 0.90279 0.0
Zn57 Zn 0.81918 0.63915 0.92689 0.0
O58 O 0.8108 0.64644 0.88261 0.0
O59 O 0.84369 0.61876 0.86295 0.0
O60 O 0.79455 0.66715 0.94753 0.0
O61 O 0.82718 0.57293 0.91805 0.0
O62 O 0.80231 0.6031 0.94365 0.0
C63 C 0.82411 0.63704 0.85999 0.0
C64 C 0.88755 0.63641 0.93842 0.0
O65 O 0.86281 0.64941 0.93986 0.0
O66 O 0.88841 0.61421 0.92499 0.0
C67 C 0.76799 0.67353 0.93955 0.0
O68 O 0.75553 0.66108 0.91707 0.0
C69 C 0.80749 0.5786 0.93717 0.0
Zn70 Zn 0.15869 0.39343 0.37585 0.0
Zn71 Zn 0.18299 0.35332 0.40012 0.0
O72 O 0.19426 0.34749 0.35603 0.0
O73 O 0.16413 0.37749 0.33599 0.0
O74 O 0.20577 0.32407 0.42131 0.0
O75 O 0.18811 0.42053 0.39114 0.0
O76 O 0.19989 0.38735 0.42099 0.0
C77 C 0.18234 0.35813 0.33322 0.0
C78 C 0.11601 0.36291 0.40825 0.0
O79 O 0.13773 0.34611 0.40888 0.0
O80 O 0.12017 0.38615 0.39772 0.0
C81 C 0.20487 0.29941 0.41424 0.0
O82 O 0.18751 0.29183 0.39222 0.0
C83 C 0.2018 0.41204 0.41376 0.0
Zn84 Zn 0.83658 0.40675 0.10744 0.0
Zn85 Zn 0.80997 0.37095 0.07824 0.0
O86 O 0.79947 0.36003 0.12112 0.0
O87 O 0.83061 0.38664 0.14496 0.0
O88 O 0.78811 0.34305 0.05443 0.0
O89 O 0.80853 0.43597 0.09559 0.0
O90 O 0.79155 0.40701 0.0631 0.0
C91 C 0.81184 0.36755 0.14512 0.0
C92 C 0.87768 0.38052 0.07056 0.0
O93 O 0.85515 0.36483 0.06745 0.0
O94 O 0.8749 0.40201 0.08508 0.0
C95 C 0.79462 0.31841 0.05791 0.0
O96 O 0.81599 0.3118 0.07672 0.0
C97 C 0.79227 0.43088 0.07334 0.0
Zn98 Zn 0.18069 0.57484 0.60426 0.0
Zn99 Zn 0.19558 0.61894 0.57458 0.0
O100 O 0.21554 0.62397 0.61542 0.0
O101 O 0.2029 0.58775 0.64012 0.0
O102 O 0.21099 0.65106 0.55232 0.0
O103 O 0.20192 0.55102 0.57552 0.0
O104 O 0.2092 0.58712 0.54833 0.0
C105 C 0.21629 0.61015 0.63906 0.0
C106 C 0.12936 0.60776 0.58542 0.0
O107 O 0.1496 0.62372 0.57594 0.0
O108 O 0.13683 0.58566 0.5973 0.0
C109 C 0.21353 0.67375 0.5649 0.0
O110 O 0.20435 0.67643 0.59227 0.0
C111 C 0.21138 0.56184 0.5521 0.0
Zn112 Zn 0.6415 0.91539 0.10588 0.0
Zn113 Zn 0.66042 0.87913 0.06867 0.0
O114 O 0.67195 0.91468 0.04777 0.0
O115 O 0.65221 0.94467 0.07762 0.0
O116 O 0.67551 0.85028 0.0416 0.0
O117 O 0.67134 0.90378 0.13638 0.0
O118 O 0.68278 0.86979 0.10765 0.0
C119 C 0.66597 0.93908 0.054 0.0
C120 C 0.59372 0.88147 0.08561 0.0
O121 O 0.61454 0.87239 0.06908 0.0
O122 O 0.59976 0.89922 0.10472 0.0
C123 C 0.66912 0.82616 0.04823 0.0
O124 O 0.6528 0.82148 0.07184 0.0
C125 C 0.68571 0.88223 0.13205 0.0
Zn126 Zn 0.36865 0.10181 0.61933 0.0
Zn127 Zn 0.34498 0.13523 0.58267 0.0
O128 O 0.33551 0.09813 0.56408 0.0
O129 O 0.36172 0.07082 0.59238 0.0
O130 O 0.32347 0.16099 0.55553 0.0
O131 O 0.33807 0.10968 0.65016 0.0
O132 O 0.32415 0.1439 0.62266 0.0
C133 C 0.34511 0.07459 0.57002 0.0
C134 C 0.41223 0.13863 0.59709 0.0
O135 O 0.39045 0.14509 0.58003 0.0
O136 O 0.40799 0.12195 0.61776 0.0
C137 C 0.33227 0.16786 0.52996 0.0
O138 O 0.35772 0.15813 0.5197 0.0
C139 C 0.32231 0.13056 0.64658 0.0
Zn140 Zn 0.62462 0.11562 0.86287 0.0
Zn141 Zn 0.65779 0.14769 0.89531 0.0
O142 O 0.66734 0.11049 0.91305 0.0
O143 O 0.63909 0.08369 0.88606 0.0
O144 O 0.68312 0.17289 0.91948 0.0
O145 O 0.64543 0.12728 0.82642 0.0
O146 O 0.67444 0.1538 0.853 0.0
C147 C 0.65779 0.087 0.90691 0.0
C148 C 0.58854 0.15352 0.8932 0.0
O149 O 0.61396 0.16071 0.9038 0.0
O150 O 0.58716 0.13468 0.87458 0.0
C151 C 0.67674 0.17794 0.94622 0.0
O152 O 0.65336 0.16608 0.95831 0.0
C153 C 0.66655 0.14425 0.82806 0.0
Zn154 Zn 0.36376 0.89375 0.37868 0.0
Zn155 Zn 0.34121 0.86026 0.41723 0.0
O156 O 0.33291 0.89772 0.43549 0.0
O157 O 0.35628 0.92505 0.40503 0.0
O158 O 0.32102 0.83486 0.44565 0.0
O159 O 0.33229 0.88389 0.34912 0.0
O160 O 0.31807 0.8512 0.37865 0.0
C161 C 0.34126 0.92136 0.42836 0.0
C162 C 0.40812 0.85696 0.40055 0.0
O163 O 0.38657 0.85 0.41749 0.0
O164 O 0.4036 0.87433 0.38061 0.0
C165 C 0.33392 0.8159 0.45958 0.0
O166 O 0.36315 0.81244 0.45675 0.0
C167 C 0.31593 0.86366 0.3542 0.0
Zn168 Zn 0.34552 0.09918 0.89619 0.0
Zn169 Zn 0.31433 0.13663 0.91959 0.0
O170 O 0.30622 0.14352 0.87516 0.0
O171 O 0.33788 0.11436 0.8561 0.0
O172 O 0.29094 0.16563 0.94002 0.0
O173 O 0.32012 0.06993 0.91234 0.0
O174 O 0.29648 0.10133 0.93726 0.0
C175 C 0.31915 0.13329 0.85277 0.0
C176 C 0.38266 0.13233 0.93083 0.0
O177 O 0.35832 0.14591 0.93208 0.0
O178 O 0.38278 0.10983 0.91796 0.0
C179 C 0.26535 0.17407 0.93137 0.0
O180 O 0.25274 0.16321 0.90798 0.0
C181 C 0.3008 0.07655 0.93145 0.0
Zn182 Zn 0.66557 0.88818 0.37526 0.0
Zn183 Zn 0.69364 0.85152 0.40058 0.0
O184 O 0.7026 0.84308 0.35649 0.0
O185 O 0.66897 0.86993 0.33641 0.0
O186 O 0.71752 0.82339 0.42257 0.0
O187 O 0.69397 0.91743 0.38619 0.0
O188 O 0.7119 0.88729 0.41688 0.0
C189 C 0.68836 0.85149 0.33382 0.0
C190 C 0.62621 0.86 0.4119 0.0
O191 O 0.64883 0.84413 0.41258 0.0
O192 O 0.62853 0.88253 0.39929 0.0
C193 C 0.7123 0.79847 0.41943 0.0
O194 O 0.69058 0.79084 0.40152 0.0
C195 C 0.711 0.91151 0.40763 0.0
Zn196 Zn 0.3329 0.91491 0.11237 0.0
Zn197 Zn 0.30672 0.87717 0.08494 0.0
O198 O 0.29757 0.8671 0.12838 0.0
O199 O 0.32661 0.89646 0.15083 0.0
O200 O 0.28523 0.84829 0.06221 0.0
O201 O 0.30482 0.94332 0.0986 0.0
O202 O 0.28741 0.91245 0.06853 0.0
C203 C 0.30927 0.87634 0.15197 0.0
C204 C 0.3743 0.88716 0.07667 0.0
O205 O 0.35179 0.87142 0.07391 0.0
O206 O 0.37146 0.909 0.09057 0.0
C207 C 0.29275 0.82386 0.06551 0.0
O208 O 0.31485 0.81788 0.08377 0.0
C209 C 0.28816 0.93686 0.07708 0.0
Zn210 Zn 0.67645 0.07618 0.59996 0.0
Zn211 Zn 0.698 0.11672 0.56926 0.0
O212 O 0.7163 0.12215 0.61068 0.0
O213 O 0.7014 0.08652 0.63518 0.0
O214 O 0.71645 0.14754 0.54706 0.0
O215 O 0.69159 0.04965 0.57093 0.0
O216 O 0.71157 0.08294 0.54558 0.0
C217 C 0.71611 0.10826 0.63426 0.0
C218 C 0.62991 0.11197 0.57919 0.0
O219 O 0.65206 0.12457 0.56782 0.0
O220 O 0.63453 0.09091 0.59422 0.0
C221 C 0.71406 0.17103 0.55774 0.0
O222 O 0.69871 0.17442 0.58222 0.0
C223 C 0.70657 0.05791 0.54905 0.0
C224 C 0.05591 0.36078 0.05002 0.0
C225 C 0.06508 0.37159 0.07719 0.0
C226 C 0.02517 0.35634 0.04387 0.0
C227 C 0.00333 0.36276 0.06548 0.0
C228 C 0.01279 0.37163 0.09372 0.0
C229 C 0.04349 0.37604 0.09915 0.0
C230 C 0.01607 0.3466 0.01363 0.0
C231 C 0.99033 0.37833 0.11763 0.0
C232 C 0.92741 0.39346 0.0506 0.0
C233 C 0.90809 0.37313 0.06039 0.0
C234 C 0.95857 0.38927 0.04896 0.0
C235 C 0.9707 0.36424 0.05786 0.0
C236 C 0.95099 0.34276 0.06478 0.0
C237 C 0.91969 0.34744 0.06584 0.0
C238 C 0.97865 0.41259 0.04077 0.0
C239 C 0.96299 0.31569 0.07397 0.0
H240 H 0.07252 0.35715 0.03298 0.0
H241 H 0.05048 0.38394 0.12038 0.0
H242 H 0.99704 0.33219 0.01499 0.0
H243 H 0.00839 0.36393 0.00017 0.0
H244 H 0.03519 0.33687 0.00201 0.0
H245 H 0.00146 0.38228 0.13919 0.0
H246 H 0.97733 0.39646 0.1112 0.0
H247 H 0.97402 0.36167 0.1205 0.0
H248 H 0.91831 0.41326 0.04611 0.0
H249 H 0.90472 0.33172 0.07348 0.0
H250 H 0.99666 0.40605 0.02546 0.0
H251 H 0.98973 0.42051 0.06096 0.0
H252 H 0.96575 0.42917 0.03025 0.0
H253 H 0.98283 0.30993 0.06052 0.0
H254 H 0.94548 0.29984 0.07197 0.0
H255 H 0.9704 0.31661 0.09736 0.0
C256 C 0.96019 0.63437 0.62452 0.0
C257 C 0.93987 0.63427 0.60078 0.0
C258 C 0.99142 0.63487 0.6198 0.0
C259 C 0.00262 0.63463 0.59058 0.0
C260 C 0.98219 0.63655 0.56654 0.0
C261 C 0.95094 0.63659 0.57195 0.0
C262 C 0.01235 0.63348 0.64611 0.0
C263 C 0.99317 0.6362 0.53506 0.0
C264 C 0.08776 0.64192 0.58228 0.0
C265 C 0.097 0.615 0.58352 0.0
C266 C 0.05698 0.64878 0.58349 0.0
C267 C 0.03503 0.62821 0.58551 0.0
C268 C 0.04427 0.601 0.58524 0.0
C269 C 0.07508 0.59476 0.58453 0.0
C270 C 0.04806 0.678 0.58407 0.0
C271 C 0.02163 0.57838 0.58684 0.0
H272 H 0.95164 0.63282 0.64685 0.0
H273 H 0.93526 0.63637 0.55354 0.0
H274 H 0.02227 0.61307 0.64763 0.0
H275 H 0.03122 0.64791 0.64362 0.0
H276 H 1.00044 0.63781 0.66711 0.0
H277 H 0.97522 0.64235 0.51928 0.0
H278 H 0.01289 0.64966 0.53229 0.0
H279 H 1.00056 0.61558 0.52933 0.0
H280 H 0.10463 0.65766 0.58157 0.0
H281 H 0.08206 0.57391 0.58513 0.0
H282 H 0.03961 0.68322 0.60635 0.0
H283 H 0.02948 0.68192 0.56819 0.0
H284 H 0.06731 0.69142 0.57876 0.0
H285 H 0.0103 0.57862 0.60863 0.0
H286 H 0.0323 0.5584 0.58378 0.0
H287 H 0.00393 0.58102 0.56972 0.0
C288 C 0.92155 0.67586 0.94709 0.0
C289 C 0.91641 0.64812 0.94847 0.0
C290 C 0.9512 0.68599 0.9469 0.0
C291 C 0.97579 0.66785 0.9476 0.0
C292 C 0.9704 0.64035 0.95351 0.0
C293 C 0.94073 0.63086 0.95395 0.0
C294 C 0.95604 0.71568 0.94274 0.0
C295 C 0.99586 0.62024 0.95533 0.0
C296 C 0.03775 0.66912 0.89177 0.0
C297 C 0.06328 0.66994 0.90999 0.0
C298 C 0.00878 0.67164 0.9035 0.0
C299 C 0.00528 0.6753 0.93431 0.0
C300 C 0.03109 0.67989 0.95215 0.0
C301 C 0.06002 0.67697 0.93976 0.0
C302 C 0.98204 0.6671 0.88332 0.0
C303 C 0.02843 0.68544 0.98472 0.0
H304 H 0.90275 0.6894 0.94345 0.0
H305 H 0.93672 0.60947 0.95594 0.0
H306 H 0.97761 0.7223 0.95289 0.0
H307 H 0.95689 0.72035 0.91882 0.0
H308 H 0.93719 0.72737 0.95247 0.0
H309 H 0.98804 0.60027 0.96308 0.0
H310 H 0.00614 0.61774 0.93319 0.0
H311 H 0.01372 0.62744 0.97054 0.0
H312 H 0.04032 0.66438 0.86856 0.0
H313 H 0.07978 0.67803 0.95387 0.0
H314 H 0.965 0.68313 0.88633 0.0
H315 H 0.97116 0.64768 0.88881 0.0
H316 H 0.98861 0.66666 0.85968 0.0
H317 H 0.0065 0.69489 0.99028 0.0
H318 H 0.04702 0.69873 0.99228 0.0
H319 H 0.03035 0.6663 -0.00289 0.0
C320 C 0.06487 0.37531 0.42555 0.0
C321 C 0.08498 0.35524 0.41659 0.0
C322 C 0.03378 0.37056 0.4266 0.0
C323 C 0.02244 0.34511 0.41821 0.0
C324 C 0.04285 0.32397 0.41199 0.0
C325 C 0.07405 0.32928 0.41131 0.0
C326 C 0.01296 0.39361 0.4339 0.0
C327 C 0.03171 0.29645 0.40349 0.0
C328 C 0.93737 0.34104 0.42693 0.0
C329 C 0.9279 0.35132 0.39959 0.0
C330 C 0.9682 0.33667 0.43281 0.0
C331 C 0.9898 0.34268 0.41079 0.0
C332 C 0.97998 0.3507 0.38235 0.0
C333 C 0.9492 0.35498 0.37716 0.0
C334 C 0.97769 0.32767 0.46323 0.0
C335 C 0.00212 0.35698 0.35802 0.0
H336 H 0.07333 0.39531 0.43011 0.0
H337 H 0.08955 0.31367 0.40445 0.0
H338 H 0.00143 0.4005 0.41348 0.0
H339 H 0.99531 0.38712 0.44965 0.0
H340 H 0.02531 0.41091 0.44357 0.0
H341 H 0.04964 0.28104 0.4061 0.0
H342 H 0.01192 0.29055 0.41694 0.0
H343 H 0.0245 0.29667 0.38002 0.0
H344 H 0.92098 0.33803 0.44433 0.0
H345 H 0.94196 0.36246 0.35581 0.0
H346 H 0.98519 0.34535 0.47617 0.0
H347 H 0.99691 0.31345 0.4621 0.0
H348 H 0.95879 0.31796 0.47523 0.0
H349 H 0.01477 0.37551 0.36363 0.0
H350 H 0.99075 0.36007 0.3364 0.0
H351 H 0.01877 0.34051 0.3557 0.0
C352 C 0.42473 0.89952 0.05778 0.0
C353 C 0.40474 0.87942 0.06684 0.0
C354 C 0.45573 0.89457 0.05592 0.0
C355 C 0.46704 0.86897 0.06383 0.0
C356 C 0.44665 0.84785 0.07017 0.0
C357 C 0.41553 0.85332 0.07146 0.0
C358 C 0.47656 0.91754 0.04838 0.0
C359 C 0.45777 0.82023 0.07839 0.0
C360 C 0.55185 0.86323 0.05409 0.0
C361 C 0.56198 0.87313 0.08135 0.0
C362 C 0.52085 0.85981 0.04848 0.0
C363 C 0.49973 0.86627 0.07075 0.0
C364 C 0.51011 0.87411 0.09905 0.0
C365 C 0.54106 0.87757 0.10393 0.0
C366 C 0.51073 0.85119 0.01813 0.0
C367 C 0.48843 0.88076 0.12365 0.0
H368 H 0.41628 0.91965 0.05389 0.0
H369 H 0.40005 0.83775 0.07852 0.0
H370 H 0.48822 0.92446 0.0687 0.0
H371 H 0.49411 0.91098 0.03255 0.0
H372 H 0.46417 0.93484 0.0387 0.0
H373 H 0.43967 0.80494 0.07613 0.0
H374 H 0.47722 0.81425 0.06452 0.0
H375 H 0.4655 0.82035 0.1017 0.0
H376 H 0.56796 0.85964 0.03657 0.0
H377 H 0.54881 0.88478 0.12521 0.0
H378 H 0.50316 0.86907 0.00551 0.0
H379 H 0.49138 0.83714 0.01945 0.0
H380 H 0.52929 0.84144 0.00568 0.0
H381 H 0.47611 0.89951 0.11818 0.0
H382 H 0.50015 0.88364 0.14512 0.0
H383 H 0.47146 0.86458 0.1262 0.0
C384 C 0.57486 0.10291 0.57726 0.0
C385 C 0.5985 0.1215 0.57543 0.0
C386 C 0.54472 0.11123 0.57701 0.0
C387 C 0.53786 0.13895 0.57536 0.0
C388 C 0.56156 0.15782 0.57212 0.0
C389 C 0.59172 0.14882 0.572 0.0
C390 C 0.52023 0.0903 0.57997 0.0
C391 C 0.55523 0.18751 0.57041 0.0
C392 C 0.4542 0.14841 0.56199 0.0
C393 C 0.44351 0.1472 0.59103 0.0
C394 C 0.48539 0.14847 0.55624 0.0
C395 C 0.50608 0.14765 0.58014 0.0
C396 C 0.49521 0.1497 0.6094 0.0
C397 C 0.46405 0.14917 0.61448 0.0
C398 C 0.49601 0.14651 0.52473 0.0
C399 C 0.5164 0.14954 0.63554 0.0
H400 H 0.57998 0.08173 0.57946 0.0
H401 H 0.60995 0.16326 0.57061 0.0
H402 H 0.50885 0.09257 0.6016 0.0
H403 H 0.5029 0.09305 0.56252 0.0
H404 H 0.52921 0.06953 0.57845 0.0
H405 H 0.57514 0.19896 0.56251 0.0
H406 H 0.53583 0.19166 0.55557 0.0
H407 H 0.54918 0.195 0.59267 0.0
H408 H 0.43837 0.14686 0.54378 0.0
H409 H 0.45578 0.14856 0.63698 0.0
H410 H 0.50185 0.12534 0.51975 0.0
H411 H 0.51657 0.15878 0.52122 0.0
H412 H 0.47828 0.15309 0.50892 0.0
H413 H 0.52537 0.12896 0.63882 0.0
H414 H 0.5049 0.15584 0.65616 0.0
H415 H 0.53587 0.16304 0.63163 0.0
C416 C 0.55596 0.17171 0.9337 0.0
C417 C 0.55985 0.16484 0.90397 0.0
C418 C 0.52677 0.17459 0.94551 0.0
C419 C 0.50135 0.17015 0.92711 0.0
C420 C 0.50551 0.16666 0.89636 0.0
C421 C 0.53472 0.16413 0.88522 0.0
C422 C 0.5234 0.17983 0.97808 0.0
C423 C 0.47918 0.16233 0.87561 0.0
C424 C 0.436 0.12608 0.94566 0.0
C425 C 0.41189 0.14363 0.94044 0.0
C426 C 0.4658 0.13528 0.94532 0.0
C427 C 0.47154 0.16278 0.93976 0.0
C428 C 0.44717 0.18117 0.93905 0.0
C429 C 0.4174 0.17133 0.93919 0.0
C430 C 0.49101 0.11492 0.94703 0.0
C431 C 0.45238 0.21083 0.93503 0.0
H432 H 0.57541 0.17264 0.94823 0.0
H433 H 0.53779 0.15946 0.86205 0.0
H434 H 0.50165 0.18984 0.98314 0.0
H435 H 0.52419 0.16051 0.99022 0.0
H436 H 0.54221 0.1925 0.98639 0.0
H437 H 0.48622 0.16225 0.85211 0.0
H438 H 0.46831 0.14278 0.88057 0.0
H439 H 0.46199 0.17823 0.8786 0.0
H440 H 0.43172 0.10472 0.94751 0.0
H441 H 0.39878 0.18509 0.93572 0.0
H442 H 0.50894 0.12185 0.96231 0.0
H443 H 0.50128 0.11246 0.92489 0.0
H444 H 0.48292 0.09498 0.95462 0.0
H445 H 0.4739 0.21725 0.94545 0.0
H446 H 0.43355 0.22267 0.94457 0.0
H447 H 0.45359 0.21553 0.91114 0.0
C448 C 0.44848 0.83701 0.43298 0.0
C449 C 0.43927 0.84704 0.40543 0.0
C450 C 0.47926 0.83269 0.4392 0.0
C451 C 0.5011 0.83858 0.41737 0.0
C452 C 0.49155 0.84641 0.38878 0.0
C453 C 0.46083 0.85055 0.3832 0.0
C454 C 0.48841 0.8238 0.46976 0.0
C455 C 0.51395 0.85261 0.36463 0.0
C456 C 0.57591 0.87162 0.4317 0.0
C457 C 0.59602 0.85176 0.42222 0.0
C458 C 0.5449 0.8666 0.43333 0.0
C459 C 0.53368 0.84108 0.42506 0.0
C460 C 0.55422 0.82006 0.41872 0.0
C461 C 0.58534 0.82566 0.41738 0.0
C462 C 0.52397 0.88954 0.44076 0.0
C463 C 0.54324 0.79242 0.41052 0.0
H464 H 0.43192 0.83407 0.45023 0.0
H465 H 0.45382 0.85782 0.36169 0.0
H466 H 0.50797 0.80992 0.46896 0.0
H467 H 0.49523 0.84158 0.48288 0.0
H468 H 0.4695 0.81373 0.4814 0.0
H469 H 0.50279 0.85581 0.34292 0.0
H470 H 0.52669 0.87106 0.37038 0.0
H471 H 0.53049 0.83604 0.3624 0.0
H472 H 0.58422 0.89174 0.43586 0.0
H473 H 0.60086 0.81022 0.4101 0.0
H474 H 0.50637 0.88294 0.45651 0.0
H475 H 0.51239 0.89646 0.42038 0.0
H476 H 0.53626 0.90684 0.45049 0.0
H477 H 0.52347 0.78656 0.42403 0.0
H478 H 0.56127 0.77713 0.41333 0.0
H479 H 0.53608 0.79238 0.38704 0.0
C480 C 0.20307 0.34334 0.16066 0.0
C481 C 0.20403 0.37102 0.15517 0.0
C482 C 0.20843 0.33339 0.18926 0.0
C483 C 0.21443 0.35167 0.21246 0.0
C484 C 0.22039 0.37891 0.2057 0.0
C485 C 0.21498 0.38827 0.17708 0.0
C486 C 0.20392 0.30392 0.19528 0.0
C487 C 0.22803 0.39901 0.22948 0.0
C488 C 0.16767 0.35201 0.28117 0.0
C489 C 0.1897 0.34914 0.30311 0.0
C490 C 0.17505 0.35005 0.25134 0.0
C491 C 0.20538 0.34505 0.24318 0.0
C492 C 0.22706 0.33908 0.2653 0.0
C493 C 0.21895 0.34128 0.29524 0.0
C494 C 0.15083 0.35606 0.22869 0.0
C495 C 0.25929 0.33246 0.25767 0.0
H496 H 0.19517 0.32983 0.14357 0.0
H497 H 0.21657 0.4096 0.17256 0.0
H498 H 0.2187 0.29698 0.21357 0.0
H499 H 0.18016 0.30034 0.20182 0.0
H500 H 0.20858 0.29175 0.17529 0.0
H501 H 0.23611 0.41832 0.22011 0.0
H502 H 0.20763 0.40311 0.2429 0.0
H503 H 0.24567 0.39094 0.24443 0.0
H504 H 0.14484 0.35742 0.28734 0.0
H505 H 0.23597 0.33871 0.31224 0.0
H506 H 0.15012 0.34013 0.21166 0.0
H507 H 0.15595 0.37531 0.21742 0.0
H508 H 0.12807 0.35768 0.23873 0.0
H509 H 0.26127 0.32371 0.23525 0.0
H510 H 0.26896 0.31816 0.27397 0.0
H511 H 0.27303 0.35104 0.25853 0.0
C512 C 0.80517 0.66375 0.68872 0.0
C513 C 0.80117 0.63688 0.68049 0.0
C514 C 0.80017 0.67172 0.71807 0.0
C515 C 0.79144 0.65224 0.73915 0.0
C516 C 0.78228 0.62648 0.72949 0.0
C517 C 0.78747 0.61905 0.70021 0.0
C518 C 0.80818 0.69989 0.72724 0.0
C519 C 0.77155 0.60537 0.75094 0.0
C520 C 0.83806 0.6424 0.80757 0.0
C521 C 0.81683 0.64647 0.82991 0.0
C522 C 0.83065 0.64654 0.77797 0.0
C523 C 0.80113 0.65511 0.7704 0.0
C524 C 0.78043 0.66176 0.79302 0.0
C525 C 0.78852 0.65727 0.8227 0.0
C526 C 0.85385 0.63957 0.75478 0.0
C527 C 0.74916 0.67193 0.78612 0.0
H528 H 0.81525 0.67774 0.6733 0.0
H529 H 0.7836 0.59844 0.69352 0.0
H530 H 0.79366 0.70675 0.74566 0.0
H531 H 0.83196 0.70041 0.73493 0.0
H532 H 0.8059 0.7141 0.70845 0.0
H533 H 0.7609 0.5881 0.73945 0.0
H534 H 0.79106 0.59779 0.76392 0.0
H535 H 0.75505 0.61399 0.76662 0.0
H536 H 0.86028 0.63477 0.81314 0.0
H537 H 0.77215 0.66083 0.83999 0.0
H538 H 0.85691 0.65659 0.73931 0.0
H539 H 0.84602 0.62204 0.74176 0.0
H540 H 0.87618 0.63457 0.76454 0.0
H541 H 0.74803 0.68204 0.76432 0.0
H542 H 0.74147 0.68617 0.80339 0.0
H543 H 0.73319 0.6548 0.78595 0.0
C544 C 0.16804 0.65744 0.77861 0.0
C545 C 0.18462 0.65791 0.8049 0.0
C546 C 0.18247 0.65628 0.75132 0.0
C547 C 0.21443 0.65582 0.75032 0.0
C548 C 0.23123 0.66 0.77658 0.0
C549 C 0.21605 0.66084 0.80382 0.0
C550 C 0.16333 0.65242 0.72395 0.0
C551 C 0.2652 0.6613 0.77644 0.0
C552 C 0.23031 0.60555 0.6919 0.0
C553 C 0.22796 0.62187 0.66681 0.0
C554 C 0.23065 0.6168 0.72017 0.0
C555 C 0.22882 0.64504 0.72324 0.0
C556 C 0.23206 0.66155 0.69803 0.0
C557 C 0.23128 0.64975 0.66987 0.0
C558 C 0.22851 0.59831 0.7465 0.0
C559 C 0.23268 0.69169 0.70057 0.0
H560 H 0.14365 0.65591 0.77948 0.0
H561 H 0.22893 0.66163 0.82418 0.0
H562 H 0.16981 0.66705 0.70667 0.0
H563 H 0.16699 0.63198 0.71492 0.0
H564 H 0.13886 0.65488 0.72846 0.0
H565 H 0.27337 0.67569 0.79337 0.0
H566 H 0.27451 0.64129 0.78217 0.0
H567 H 0.27416 0.66735 0.75458 0.0
H568 H 0.22893 0.58393 0.68962 0.0
H569 H 0.23048 0.66254 0.65053 0.0
H570 H 0.20528 0.59902 0.75556 0.0
H571 H 0.24422 0.60483 0.76415 0.0
H572 H 0.23378 0.57718 0.74067 0.0
H573 H 0.20925 0.69953 0.70033 0.0
H574 H 0.24489 0.70083 0.6817 0.0
H575 H 0.24356 0.69812 0.7215 0.0
C576 C 0.77494 0.34591 0.17974 0.0
C577 C 0.8041 0.35525 0.17368 0.0
C578 C 0.76629 0.34007 0.20892 0.0
C579 C 0.78732 0.34392 0.23215 0.0
C580 C 0.81769 0.3504 0.22543 0.0
C581 C 0.82562 0.35595 0.1963 0.0
C582 C 0.73413 0.33187 0.2148 0.0
C583 C 0.8413 0.35418 0.24924 0.0
C584 C 0.77663 0.38002 0.30254 0.0
C585 C 0.78851 0.36099 0.32208 0.0
C586 C 0.77078 0.37333 0.27314 0.0
C587 C 0.77741 0.34704 0.26323 0.0
C588 C 0.78396 0.32671 0.28413 0.0
C589 C 0.78971 0.33397 0.31359 0.0
C590 C 0.76228 0.39545 0.2519 0.0
C591 C 0.78895 0.29807 0.2747 0.0
H592 H 0.75835 0.34492 0.16214 0.0
H593 H 0.84843 0.36242 0.19143 0.0
H594 H 0.73171 0.32132 0.23623 0.0
H595 H 0.71961 0.35001 0.21507 0.0
H596 H 0.72569 0.31863 0.19689 0.0
H597 H 0.86418 0.35757 0.24 0.0
H598 H 0.83537 0.37175 0.2631 0.0
H599 H 0.84228 0.33632 0.2638 0.0
H600 H 0.77485 0.4008 0.30946 0.0
H601 H 0.7983 0.31907 0.3289 0.0
H602 H 0.74476 0.38844 0.23621 0.0
H603 H 0.78242 0.40137 0.23891 0.0
H604 H 0.75369 0.41349 0.26354 0.0
H605 H 0.77435 0.29281 0.25561 0.0
H606 H 0.78438 0.28395 0.29313 0.0
H607 H 0.8128 0.29542 0.26793 0.0
C608 C 0.72463 0.83654 0.29472 0.0
C609 C 0.69501 0.8417 0.30387 0.0
C610 C 0.73157 0.83516 0.26445 0.0
C611 C 0.70836 0.83939 0.24335 0.0
C612 C 0.67797 0.84103 0.25282 0.0
C613 C 0.67174 0.8421 0.28296 0.0
C614 C 0.76401 0.83169 0.25536 0.0
C615 C 0.65222 0.845 0.23128 0.0
C616 C 0.71157 0.8871 0.18022 0.0
C617 C 0.70235 0.87033 0.15712 0.0
C618 C 0.71809 0.87661 0.20813 0.0
C619 C 0.71536 0.84862 0.21293 0.0
C620 C 0.71095 0.83132 0.18854 0.0
C621 C 0.70421 0.84242 0.16073 0.0
C622 C 0.72376 0.8959 0.23324 0.0
C623 C 0.71003 0.80128 0.19236 0.0
H624 H 0.74265 0.8358 0.31093 0.0
H625 H 0.64871 0.84538 0.29016 0.0
H626 H 0.76595 0.82346 0.2327 0.0
H627 H 0.77556 0.85142 0.25603 0.0
H628 H 0.77601 0.81815 0.27095 0.0
H629 H 0.62984 0.84379 0.24218 0.0
H630 H 0.6542 0.86501 0.22067 0.0
H631 H 0.65302 0.82966 0.21363 0.0
H632 H 0.71112 0.90869 0.17718 0.0
H633 H 0.69776 0.8293 0.14271 0.0
H634 H 0.7431 0.88908 0.24684 0.0
H635 H 0.7036 0.89665 0.24769 0.0
H636 H 0.72852 0.91656 0.22527 0.0
H637 H 0.72498 0.79467 0.21066 0.0
H638 H 0.71686 0.79094 0.17172 0.0
H639 H 0.68666 0.79496 0.19761 0.0
C640 C 0.28518 0.15425 0.81452 0.0
C641 C 0.31303 0.14301 0.82257 0.0
C642 C 0.27845 0.15958 0.78467 0.0
C643 C 0.30013 0.15344 0.76275 0.0
C644 C 0.32913 0.14422 0.77129 0.0
C645 C 0.33512 0.13913 0.801 0.0
C646 C 0.2476 0.17013 0.77674 0.0
C647 C 0.35333 0.13781 0.74889 0.0
C648 C 0.29024 0.12129 0.68972 0.0
C649 C 0.30472 0.14022 0.67188 0.0
C650 C 0.2835 0.12712 0.71915 0.0
C651 C 0.29211 0.15228 0.73092 0.0
C652 C 0.30194 0.17287 0.71164 0.0
C653 C 0.30829 0.16655 0.68207 0.0
C654 C 0.27174 0.10489 0.7386 0.0
C655 C 0.30974 0.20039 0.7231 0.0
H656 H 0.26814 0.15759 0.83123 0.0
H657 H 0.35697 0.13111 0.80726 0.0
H658 H 0.24781 0.18159 0.75574 0.0
H659 H 0.23181 0.15302 0.77421 0.0
H660 H 0.23871 0.18323 0.79454 0.0
H661 H 0.37515 0.13234 0.75943 0.0
H662 H 0.34598 0.12075 0.73489 0.0
H663 H 0.35723 0.15527 0.73422 0.0
H664 H 0.2869 0.10106 0.68151 0.0
H665 H 0.31916 0.18132 0.6681 0.0
H666 H 0.25486 0.11272 0.7544 0.0
H667 H 0.2907 0.09623 0.75154 0.0
H668 H 0.26123 0.08853 0.72547 0.0
H669 H 0.29427 0.20642 0.74112 0.0
H670 H 0.30874 0.21564 0.70522 0.0
H671 H 0.33304 0.20016 0.73212 0.0
C672 C 0.71369 0.15529 0.79998 0.0
C673 C 0.68238 0.15137 0.80062 0.0
C674 C 0.72931 0.15497 0.77297 0.0
C675 C 0.71308 0.15038 0.74646 0.0
C676 C 0.68111 0.1496 0.74702 0.0
C677 C 0.66624 0.15017 0.7741 0.0
C678 C 0.76321 0.15737 0.77334 0.0
C679 C 0.66255 0.14529 0.71935 0.0
C680 C 0.73059 0.14719 0.66611 0.0
C681 C 0.72813 0.11934 0.66214 0.0
C682 C 0.73098 0.15819 0.69466 0.0
C683 C 0.72836 0.14088 0.71927 0.0
C684 C 0.73137 0.11283 0.71525 0.0
C685 C 0.73122 0.10238 0.68662 0.0
C686 C 0.73022 0.18825 0.69824 0.0
C687 C 0.73006 0.09358 0.74096 0.0
H688 H 0.7262 0.1566 0.82052 0.0
H689 H 0.64191 0.14785 0.77462 0.0
H690 H 0.77323 0.13762 0.77899 0.0
H691 H 0.77225 0.16389 0.75168 0.0
H692 H 0.77054 0.17186 0.79054 0.0
H693 H 0.63792 0.14671 0.72357 0.0
H694 H 0.66851 0.16037 0.70236 0.0
H695 H 0.66735 0.12512 0.7101 0.0
H696 H 0.72911 0.16048 0.64721 0.0
H697 H 0.73048 0.08081 0.68357 0.0
H698 H 0.74117 0.19445 0.71921 0.0
H699 H 0.70644 0.19517 0.69872 0.0
H700 H 0.74163 0.1984 0.67951 0.0
H701 H 0.74504 0.10043 0.75907 0.0
H702 H 0.73681 0.07293 0.73452 0.0
H703 H 0.70667 0.09284 0.74963 0.0
C704 C 0.32473 0.86787 0.2035 0.0
C705 C 0.30352 0.86396 0.181 0.0
C706 C 0.31889 0.85985 0.2324 0.0
C707 C 0.29093 0.8475 0.23915 0.0
C708 C 0.27031 0.8415 0.21612 0.0
C709 C 0.27686 0.84987 0.18712 0.0
C710 C 0.34207 0.86629 0.25595 0.0
C711 C 0.24068 0.82768 0.22201 0.0
C712 C 0.30247 0.82869 0.31757 0.0
C713 C 0.29675 0.85385 0.33009 0.0
C714 C 0.29526 0.82392 0.28781 0.0
C715 C 0.2826 0.84494 0.27076 0.0
C716 C 0.2715 0.86813 0.28511 0.0
C717 C 0.27913 0.87249 0.31469 0.0
C718 C 0.30556 0.79818 0.27361 0.0
C719 C 0.25637 0.89046 0.26812 0.0
H720 H 0.34575 0.87809 0.19868 0.0
H721 H 0.26054 0.84649 0.16965 0.0
H722 H 0.33262 0.88102 0.27177 0.0
H723 H 0.34809 0.84793 0.26848 0.0
H724 H 0.36311 0.87486 0.24662 0.0
H725 H 0.2342 0.81474 0.20308 0.0
H726 H 0.24145 0.81525 0.24232 0.0
H727 H 0.22277 0.84304 0.22463 0.0
H728 H 0.31579 0.81411 0.3297 0.0
H729 H 0.27425 0.89175 0.32473 0.0
H730 H 0.32851 0.80104 0.26442 0.0
H731 H 0.29029 0.79238 0.25524 0.0
H732 H 0.30658 0.78158 0.28997 0.0
H733 H 0.27372 0.90207 0.25594 0.0
H734 H 0.24418 0.90444 0.283 0.0
H735 H 0.24019 0.88223 0.25177 0.0
C736 C 0.22299 0.20699 0.937 0.0
C737 C 0.2504 0.19634 0.94724 0.0
C738 C 0.209 0.22843 0.9517 0.0
C739 C 0.22273 0.23938 0.97723 0.0
C740 C 0.2503 0.22864 0.98773 0.0
C741 C 0.2638 0.20729 0.97261 0.0
C742 C 0.17958 0.23939 0.93989 0.0
C743 C 0.26559 0.23974 0.01494 0.0
C744 C 0.20366 0.30995 0.00255 0.0
C745 C 0.18411 0.30487 0.02619 0.0
C746 C 0.21586 0.28883 0.98595 0.0
C747 C 0.20831 0.26202 0.99318 0.0
C748 C 0.18809 0.25679 0.01659 0.0
C749 C 0.17624 0.27828 0.03281 0.0
C750 C 0.23735 0.29516 0.96111 0.0
C751 C 0.17949 0.22846 0.02492 0.0
H752 H 0.21251 0.19869 0.91741 0.0
H753 H 0.28496 0.19918 0.98071 0.0
H754 H 0.16181 0.2378 0.95699 0.0
H755 H 0.18213 0.26099 0.93449 0.0
H756 H 0.17184 0.22863 0.9198 0.0
H757 H 0.28696 0.2291 0.02022 0.0
H758 H 0.27063 0.26136 0.01178 0.0
H759 H 0.25029 0.23809 0.03418 0.0
H760 H 0.20979 0.33044 -0.00277 0.0
H761 H 0.16106 0.27416 0.05096 0.0
H762 H 0.22941 0.28571 0.94035 0.0
H763 H 0.25993 0.28668 0.96617 0.0
H764 H 0.23977 0.31709 0.95739 0.0
H765 H 0.17038 0.2177 0.00542 0.0
H766 H 0.16238 0.22786 0.04277 0.0
H767 H 0.1998 0.21735 0.03245 0.0
C768 C 0.7881 0.69496 0.53153 0.0
C769 C 0.81354 0.68196 0.51993 0.0
C770 C 0.77192 0.71386 0.51485 0.0
C771 C 0.78145 0.72008 0.48586 0.0
C772 C 0.80718 0.70718 0.47403 0.0
C773 C 0.82288 0.68822 0.49118 0.0
C774 C 0.74453 0.7271 0.52822 0.0
C775 C 0.8181 0.7134 0.44325 0.0
C776 C 0.72339 0.75095 0.43403 0.0
C777 C 0.73041 0.77835 0.4359 0.0
C778 C 0.74003 0.73174 0.44989 0.0
C779 C 0.76437 0.7401 0.46799 0.0
C780 C 0.77181 0.76768 0.4697 0.0
C781 C 0.75471 0.78646 0.4537 0.0
C782 C 0.73132 0.70252 0.4476 0.0
C783 C 0.79766 0.77737 0.48867 0.0
H784 H 0.78064 0.69024 0.55369 0.0
H785 H 0.84251 0.67832 0.48204 0.0
H786 H 0.74765 0.74918 0.52872 0.0
H787 H 0.72434 0.72297 0.51443 0.0
H788 H 0.74005 0.72 0.55104 0.0
H789 H 0.83862 0.7018 0.43738 0.0
H790 H 0.80011 0.70878 0.42696 0.0
H791 H 0.82323 0.73511 0.44127 0.0
H792 H 0.70467 0.74447 0.42034 0.0
H793 H 0.76039 0.80757 0.45522 0.0
H794 H 0.72474 0.69482 0.46964 0.0
H795 H 0.7509 0.69047 0.44011 0.0
H796 H 0.71226 0.69924 0.43204 0.0
H797 H 0.79331 0.77231 0.51212 0.0
H798 H 0.80114 0.79939 0.48687 0.0
H799 H 0.81883 0.76707 0.48223 0.0
C800 C 0.25225 0.80877 0.03069 0.0
C801 C 0.27671 0.80243 0.04914 0.0
C802 C 0.23676 0.78869 0.01513 0.0
C803 C 0.246 0.76163 0.01802 0.0
C804 C 0.27067 0.75507 0.03657 0.0
C805 C 0.28571 0.77555 0.05195 0.0
C806 C 0.2105 0.79646 -0.00441 0.0
C807 C 0.2812 0.72642 0.04012 0.0
C808 C 0.18897 0.70776 -0.00219 0.0
C809 C 0.19776 0.70115 0.96901 0.0
C810 C 0.20469 0.72718 0.01417 0.0
C811 C 0.22987 0.74022 0.00145 0.0
C812 C 0.2392 0.7333 0.9726 0.0
C813 C 0.223 0.71389 0.95671 0.0
C814 C 0.19406 0.73407 0.04486 0.0
C815 C 0.26604 0.74669 0.95836 0.0
H816 H 0.2451 0.82947 0.02841 0.0
H817 H 0.30459 0.77046 0.06614 0.0
H818 H 0.21502 0.79027 0.97251 0.0
H819 H 0.18982 0.78582 0.00282 0.0
H820 H 0.20605 0.81839 -0.0041 0.0
H821 H 0.30074 0.72467 0.05542 0.0
H822 H 0.26253 0.71382 0.04865 0.0
H823 H 0.28776 0.71812 0.01836 0.0
H824 H 0.1695 0.69803 0.0075 0.0
H825 H 0.23003 0.70885 0.93451 0.0
H826 H 0.18732 0.7555 0.04577 0.0
H827 H 0.2127 0.73125 0.06096 0.0
H828 H 0.17458 0.72159 0.05186 0.0
H829 H 0.26183 0.76855 0.9562 0.0
H830 H 0.27095 0.73842 0.93613 0.0
H831 H 0.28634 0.74418 0.97246 0.0
C832 C 0.72678 0.21992 0.55556 0.0
C833 C 0.72936 0.19408 0.54355 0.0
C834 C 0.74169 0.24186 0.54275 0.0
C835 C 0.75963 0.23786 0.51736 0.0
C836 C 0.7623 0.21185 0.5051 0.0
C837 C 0.74711 0.19028 0.51832 0.0
C838 C 0.73823 0.26933 0.55639 0.0
C839 C 0.78124 0.20681 0.47802 0.0
C840 C 0.77613 0.29679 0.46687 0.0
C841 C 0.80578 0.30346 0.47499 0.0
C842 C 0.76072 0.27573 0.48077 0.0
C843 C 0.77531 0.26092 0.50332 0.0
C844 C 0.80504 0.26779 0.51197 0.0
C845 C 0.81992 0.28901 0.49772 0.0
C846 C 0.72897 0.26909 0.47102 0.0
C847 C 0.8213 0.25244 0.53596 0.0
H848 H 0.71314 0.22305 0.57506 0.0
H849 H 0.74929 0.17038 0.50892 0.0
H850 H 0.76066 0.27733 0.56278 0.0
H851 H 0.72841 0.28344 0.54002 0.0
H852 H 0.72356 0.26904 0.57622 0.0
H853 H 0.78119 0.18536 0.47137 0.0
H854 H 0.77267 0.21901 0.45929 0.0
H855 H 0.80488 0.21309 0.4822 0.0
H856 H 0.76495 0.30789 0.44939 0.0
H857 H 0.84281 0.29403 0.50414 0.0
H858 H 0.71344 0.26988 0.49015 0.0
H859 H 0.72817 0.24834 0.46219 0.0
H860 H 0.72052 0.28305 0.45375 0.0
H861 H 0.80792 0.25281 0.5566 0.0
H862 H 0.84407 0.26075 0.54064 0.0
H863 H 0.82375 0.23111 0.52939 0.0
C864 C 0.69939 0.80845 0.00595 0.0
C865 C 0.68107 0.80359 0.03056 0.0
C866 C 0.71217 0.78718 0.99003 0.0
C867 C 0.7065 0.76043 -0.00103 0.0
C868 C 0.68742 0.75537 0.02332 0.0
C869 C 0.67492 0.77701 0.03882 0.0
C870 C 0.73237 0.79334 0.96412 0.0
C871 C 0.68084 0.7271 0.03349 0.0
C872 C 0.72331 0.70391 0.94523 0.0
C873 C 0.75178 0.69533 0.95502 0.0
C874 C 0.70819 0.72504 0.95937 0.0
C875 C 0.72188 0.73781 0.98388 0.0
C876 C 0.75047 0.72909 -0.00599 0.0
C877 C 0.76508 0.70799 0.97945 0.0
C878 C 0.6777 0.73384 0.94799 0.0
C879 C 0.76575 0.74216 0.02014 0.0
H880 H 0.70417 0.82892 -0.00065 0.0
H881 H 0.66071 0.77306 0.05775 0.0
H882 H 0.75563 0.78632 0.96891 0.0
H883 H 0.72443 0.78244 0.94423 0.0
H884 H 0.73318 0.81513 0.95902 0.0
H885 H 0.66423 0.72653 0.05178 0.0
H886 H 0.67199 0.71496 0.01488 0.0
H887 H 0.70201 0.71741 0.04113 0.0
H888 H 0.71289 0.69426 0.92636 0.0
H889 H 0.78705 0.70148 0.98722 0.0
H890 H 0.67863 0.7552 0.94114 0.0
H891 H 0.66067 0.73228 0.96579 0.0
H892 H 0.67 0.72163 0.9289 0.0
H893 H 0.76938 0.7638 0.01563 0.0
H894 H 0.78787 0.73281 0.02542 0.0
H895 H 0.75108 0.7407 0.03987 0.0
C896 C 0.32442 0.19659 0.48508 0.0
C897 C 0.31371 0.18655 0.51201 0.0
C898 C 0.30706 0.21458 0.46819 0.0
C899 C 0.27826 0.22256 0.4784 0.0
C900 C 0.2672 0.21225 0.50538 0.0
C901 C 0.28508 0.19446 0.52188 0.0
C902 C 0.31968 0.22529 0.4396 0.0
C903 C 0.23654 0.22016 0.51695 0.0
C904 C 0.24445 0.28835 0.45184 0.0
C905 C 0.22376 0.27965 0.43038 0.0
C906 C 0.26261 0.27001 0.46729 0.0
C907 C 0.25992 0.24224 0.46132 0.0
C908 C 0.23916 0.2333 0.43963 0.0
C909 C 0.22138 0.25212 0.42436 0.0
C910 C 0.28456 0.28035 0.49016 0.0
C911 C 0.23554 0.20383 0.43279 0.0
H912 H 0.34651 0.19061 0.47728 0.0
H913 H 0.27652 0.18673 0.54259 0.0
H914 H 0.30408 0.22065 0.42111 0.0
H915 H 0.3217 0.24745 0.44081 0.0
H916 H 0.34221 0.21675 0.43447 0.0
H917 H 0.23089 0.20977 0.53792 0.0
H918 H 0.2358 0.24213 0.52081 0.0
H919 H 0.21888 0.21542 0.50036 0.0
H920 H 0.24657 0.30958 0.45657 0.0
H921 H 0.20547 0.24522 0.40783 0.0
H922 H 0.30775 0.27356 0.48486 0.0
H923 H 0.2788 0.27204 0.51215 0.0
H924 H 0.28451 0.3026 0.49161 0.0
H925 H 0.2575 0.19517 0.42602 0.0
H926 H 0.21878 0.20018 0.41496 0.0
H927 H 0.22821 0.19292 0.45288 0.0
C928 C 0.75388 0.30443 0.02279 0.0
C929 C 0.77793 0.29743 0.04147 0.0
C930 C 0.73756 0.28474 0.00745 0.0
C931 C 0.74554 0.2574 0.01079 0.0
C932 C 0.76986 0.25019 0.02949 0.0
C933 C 0.78574 0.2703 0.04465 0.0
C934 C 0.71171 0.29318 0.98773 0.0
C935 C 0.77908 0.22124 0.0335 0.0
C936 C 0.68629 0.20511 0.99173 0.0
C937 C 0.69487 0.19761 0.96314 0.0
C938 C 0.70273 0.22438 0.00761 0.0
C939 C 0.72843 0.23636 -0.00539 0.0
C940 C 0.73746 0.22862 0.96594 0.0
C941 C 0.72055 0.20937 0.95052 0.0
C942 C 0.69239 0.23219 0.03814 0.0
C943 C 0.76483 0.24086 0.95141 0.0
H944 H 0.74765 0.32534 0.02023 0.0
H945 H 0.80431 0.26471 0.05901 0.0
H946 H 0.7159 0.28643 0.96479 0.0
H947 H 0.69052 0.28349 -0.00483 0.0
H948 H 0.70834 0.31527 0.98759 0.0
H949 H 0.7986 0.21899 0.04874 0.0
H950 H 0.75989 0.20947 0.04234 0.0
H951 H 0.78514 0.21237 0.01186 0.0
H952 H 0.66648 0.19614 0.00165 0.0
H953 H 0.72741 0.20365 0.92847 0.0
H954 H 0.68678 0.25388 0.03863 0.0
H955 H 0.71083 0.22886 0.05433 0.0
H956 H 0.67228 0.22063 0.04531 0.0
H957 H 0.76162 0.26283 0.94896 0.0
H958 H 0.76928 0.23216 0.92929 0.0
H959 H 0.78506 0.23778 0.96549 0.0
C960 C 0.23664 0.69406 0.51982 0.0
C961 C 0.22899 0.69616 0.54974 0.0
C962 C 0.25296 0.71442 0.50564 0.0
C963 C 0.26204 0.73733 0.52181 0.0
C964 C 0.25396 0.73981 0.55187 0.0
C965 C 0.23742 0.71923 0.56546 0.0
C966 C 0.2609 0.71119 0.47345 0.0
C967 C 0.26335 0.76392 0.56985 0.0
C968 C 0.32961 0.77543 0.49207 0.0
C969 C 0.3157 0.79676 0.47709 0.0
C970 C 0.31242 0.75624 0.50724 0.0
C971 C 0.28057 0.75841 0.50735 0.0
C972 C 0.26642 0.78019 0.49282 0.0
C973 C 0.28415 0.79913 0.47791 0.0
C974 C 0.32831 0.73335 0.52265 0.0
C975 C 0.23251 0.78314 0.49243 0.0
H976 H 0.23011 0.67635 0.50749 0.0
H977 H 0.23168 0.72098 0.5886 0.0
H978 H 0.25254 0.72867 0.46063 0.0
H979 H 0.28578 0.71059 0.47089 0.0
H980 H 0.25123 0.69261 0.46376 0.0
H981 H 0.25451 0.76316 0.59274 0.0
H982 H 0.28833 0.76511 0.57083 0.0
H983 H 0.2552 0.78261 0.55917 0.0
H984 H 0.35396 0.77348 0.49164 0.0
H985 H 0.27319 0.81556 0.46643 0.0
H986 H 0.32162 0.71403 0.5124 0.0
H987 H 0.32148 0.73251 0.54616 0.0
H988 H 0.35326 0.73519 0.52156 0.0
H989 H 0.2222 0.76571 0.48101 0.0
H990 H 0.22508 0.80179 0.4811 0.0
H991 H 0.22366 0.78331 0.5153 0.0
C992 C 0.19312 0.56905 0.94827 0.0
C993 C 0.16959 0.56786 0.92755 0.0
C994 C 0.19893 0.54734 0.96729 0.0
C995 C 0.18029 0.52429 0.96595 0.0
C996 C 0.15756 0.52248 0.94405 0.0
C997 C 0.15272 0.54416 0.92496 0.0
C998 C 0.22395 0.54964 0.98979 0.0
C999 C 0.13682 0.49848 0.94215 0.0
C1000 C 0.19339 0.45878 0.00711 0.0
C1001 C 0.17453 0.46227 0.03162 0.0
C1002 C 0.19719 0.4795 0.98633 0.0
C1003 C 0.18118 0.50389 0.98988 0.0
C1004 C 0.16307 0.50781 0.01515 0.0
C1005 C 0.16025 0.4871 0.0358 0.0
C1006 C 0.21738 0.47492 0.96007 0.0
C1007 C 0.14519 0.53332 0.01961 0.0
H1008 H 0.20652 0.58717 0.95013 0.0
H1009 H 0.13456 0.54297 0.90894 0.0
H1010 H 0.21414 0.55347 0.01188 0.0
H1011 H 0.23693 0.53063 0.99118 0.0
H1012 H 0.2397 0.5663 0.9845 0.0
H1013 H 0.12192 0.49925 0.92241 0.0
H1014 H 0.15005 0.47962 0.94143 0.0
H1015 H 0.12241 0.49767 0.96212 0.0
H1016 H 0.20475 0.43974 0.00389 0.0
H1017 H 0.14567 0.49008 0.05467 0.0
H1018 H 0.23187 0.49271 0.95612 0.0
H1019 H 0.20336 0.47193 0.94003 0.0
H1020 H 0.23199 0.457 0.96303 0.0
H1021 H 0.16026 0.55105 0.01849 0.0
H1022 H 0.13325 0.53364 0.04112 0.0
H1023 H 0.12821 0.53543 0.00171 0.0
C1024 C 0.8061 0.55099 0.534 0.0
C1025 C 0.82705 0.54716 0.55687 0.0
C1026 C 0.80068 0.53066 0.51315 0.0
C1027 C 0.81718 0.50636 0.51489 0.0
C1028 C 0.83741 0.50205 0.53862 0.0
C1029 C 0.84184 0.52237 0.55944 0.0
C1030 C 0.77832 0.53564 0.48857 0.0
C1031 C 0.85592 0.47666 0.54102 0.0
C1032 C 0.80221 0.44318 0.47042 0.0
C1033 C 0.82348 0.44594 0.44777 0.0
C1034 C 0.7983 0.46359 0.49148 0.0
C1035 C 0.81664 0.48684 0.49016 0.0
C1036 C 0.83735 0.49006 0.46675 0.0
C1037 C 0.84027 0.46973 0.44572 0.0
C1038 C 0.77541 0.45985 0.5157 0.0
C1039 C 0.85778 0.51429 0.46481 0.0
H1040 H 0.79434 0.56998 0.53209 0.0
H1041 H 0.85804 0.51919 0.57706 0.0
H1042 H 0.7906 0.53926 0.46765 0.0
H1043 H 0.76375 0.51779 0.48521 0.0
H1044 H 0.76379 0.55332 0.49308 0.0
H1045 H 0.8692 0.47575 0.56183 0.0
H1046 H 0.84113 0.45875 0.53992 0.0
H1047 H 0.87179 0.47549 0.52217 0.0
H1048 H 0.78892 0.42498 0.47191 0.0
H1049 H 0.85675 0.47207 0.42829 0.0
H1050 H 0.76199 0.47844 0.51875 0.0
H1051 H 0.78721 0.45569 0.53684 0.0
H1052 H 0.7598 0.44293 0.51102 0.0
H1053 H 0.84432 0.53303 0.4655 0.0
H1054 H 0.87152 0.51437 0.44435 0.0
H1055 H 0.87331 0.51457 0.48407 0.0
C1056 C 0.76187 0.44945 0.031 0.0
C1057 C 0.77893 0.45362 0.05671 0.0
C1058 C 0.756 0.47079 0.01147 0.0
C1059 C 0.76863 0.49635 0.01729 0.0
C1060 C 0.78267 0.50125 0.04483 0.0
C1061 C 0.78716 0.4799 0.06441 0.0
C1062 C 0.73856 0.46547 0.98347 0.0
C1063 C 0.79622 0.52825 0.05221 0.0
C1064 C 0.8094 0.53192 0.95589 0.0
C1065 C 0.79395 0.55643 0.95433 0.0
C1066 C 0.80027 0.51167 0.97521 0.0
C1067 C 0.7742 0.51549 0.99272 0.0
C1068 C 0.75691 0.53925 0.98938 0.0
C1069 C 0.7674 0.55979 0.97066 0.0
C1070 C 0.82001 0.48705 0.97841 0.0
C1071 C 0.72812 0.54373 0.00631 0.0
H1072 H 0.75458 0.42935 0.02527 0.0
H1073 H 0.79965 0.48353 0.08461 0.0
H1074 H 0.72488 0.48324 0.97711 0.0
H1075 H 0.75448 0.46121 0.96524 0.0
H1076 H 0.72341 0.44785 0.98595 0.0
H1077 H 0.80495 0.52912 0.0752 0.0
H1078 H 0.81513 0.5326 0.03693 0.0
H1079 H 0.77916 0.5443 0.04936 0.0
H1080 H 0.82991 0.52911 0.9433 0.0
H1081 H 0.75508 0.57854 0.96919 0.0
H1082 H 0.80679 0.46867 0.9737 0.0
H1083 H 0.82851 0.48549 0.00142 0.0
H1084 H 0.83972 0.48743 0.96333 0.0
H1085 H 0.7178 0.52463 0.01381 0.0
H1086 H 0.71146 0.55474 0.99249 0.0
H1087 H 0.73291 0.55637 0.0259 0.0
C1088 C 0.23105 0.45387 0.42308 0.0
C1089 C 0.21508 0.43178 0.43409 0.0
C1090 C 0.23796 0.47579 0.44131 0.0
C1091 C 0.22724 0.47607 0.47069 0.0
C1092 C 0.21265 0.45307 0.48232 0.0
C1093 C 0.2073 0.43094 0.46396 0.0
C1094 C 0.25502 0.49928 0.42859 0.0
C1095 C 0.20016 0.45274 0.5133 0.0
C1096 C 0.24481 0.52713 0.53023 0.0
C1097 C 0.21991 0.54424 0.52763 0.0
C1098 C 0.24916 0.50612 0.51005 0.0
C1099 C 0.22714 0.50143 0.48794 0.0
C1100 C 0.20268 0.51953 0.48455 0.0
C1101 C 0.19969 0.54105 0.5042 0.0
C1102 C 0.27631 0.48811 0.51347 0.0
C1103 C 0.17824 0.51494 0.4618 0.0
H1104 H 0.23717 0.45439 0.39993 0.0
H1105 H 0.19466 0.41394 0.47233 0.0
H1106 H 0.23899 0.51559 0.42294 0.0
H1107 H 0.27136 0.50738 0.44492 0.0
H1108 H 0.26738 0.49362 0.40823 0.0
H1109 H 0.19079 0.43283 0.51942 0.0
H1110 H 0.21795 0.45812 0.52946 0.0
H1111 H 0.18196 0.46793 0.51519 0.0
H1112 H 0.26028 0.52964 0.54861 0.0
H1113 H 0.18019 0.55413 0.50268 0.0
H1114 H 0.28556 0.48247 0.49161 0.0
H1115 H 0.26964 0.46937 0.52494 0.0
H1116 H 0.29439 0.49789 0.52665 0.0
H1117 H 0.18818 0.51323 0.43947 0.0
H1118 H 0.16127 0.53136 0.4615 0.0
H1119 H 0.16646 0.49577 0.46656 0.0
C1120 C 0.69032 0.06533 0.94565 0.0
C1121 C 0.66636 0.06373 0.92544 0.0
C1122 C 0.69626 0.04416 0.96536 0.0
C1123 C 0.67729 0.0213 0.96528 0.0
C1124 C 0.65403 0.01908 0.94397 0.0
C1125 C 0.64908 0.04018 0.92414 0.0
C1126 C 0.72183 0.04686 0.9872 0.0
C1127 C 0.63292 0.99527 0.94342 0.0
C1128 C 0.6907 0.95671 0.00798 0.0
C1129 C 0.6725 0.96094 0.03281 0.0
C1130 C 0.69424 0.97691 0.98656 0.0
C1131 C 0.67862 0.00152 0.9898 0.0
C1132 C 0.66124 0.00623 0.01541 0.0
C1133 C 0.65868 0.98603 0.03668 0.0
C1134 C 0.71368 0.97151 0.95994 0.0
C1135 C 0.64378 0.03201 0.01956 0.0
H1136 H 0.70402 0.08333 0.94652 0.0
H1137 H 0.63056 0.03872 0.90855 0.0
H1138 H 0.7126 0.05133 0.00938 0.0
H1139 H 0.73467 0.0278 0.98889 0.0
H1140 H 0.7376 0.06325 0.98103 0.0
H1141 H 0.61744 0.99569 0.9241 0.0
H1142 H 0.64589 0.97626 0.94292 0.0
H1143 H 0.61913 0.99513 0.96382 0.0
H1144 H 0.7017 0.93748 0.00499 0.0
H1145 H 0.64461 0.98956 0.05581 0.0
H1146 H 0.72825 0.98907 0.9551 0.0
H1147 H 0.69911 0.96815 0.94035 0.0
H1148 H 0.72818 0.95354 0.96307 0.0
H1149 H 0.65898 0.04956 0.01744 0.0
H1150 H 0.63249 0.033 0.04138 0.0
H1151 H 0.62629 0.0338 0.00209 0.0
C1152 C 0.35036 0.96886 0.44288 0.0
C1153 C 0.33522 0.94455 0.44787 0.0
C1154 C 0.34755 0.99041 0.46243 0.0
C1155 C 0.32872 0.98782 0.4874 0.0
C1156 C 0.31194 0.96395 0.49169 0.0
C1157 C 0.31562 0.94242 0.47199 0.0
C1158 C 0.36623 0.01534 0.45727 0.0
C1159 C 0.2911 0.96075 0.51772 0.0
C1160 C 0.35562 0.02811 0.55291 0.0
C1161 C 0.33851 0.05168 0.55029 0.0
C1162 C 0.35174 0.00678 0.53323 0.0
C1163 C 0.32979 0.0088 0.51062 0.0
C1164 C 0.31136 0.03196 0.50867 0.0
C1165 C 0.31617 0.05333 0.52838 0.0
C1166 C 0.37226 0.98265 0.53577 0.0
C1167 C 0.28729 0.03452 0.48522 0.0
H1168 H 0.36549 0.97076 0.42425 0.0
H1169 H 0.30358 0.92382 0.47579 0.0
H1170 H 0.35178 0.03349 0.45794 0.0
H1171 H 0.3833 0.01734 0.47509 0.0
H1172 H 0.37814 0.01488 0.43575 0.0
H1173 H 0.27635 0.94284 0.51549 0.0
H1174 H 0.30462 0.9586 0.53822 0.0
H1175 H 0.27672 0.97882 0.52029 0.0
H1176 H 0.37295 0.02663 0.56976 0.0
H1177 H 0.30268 0.07139 0.52643 0.0
H1178 H 0.38663 0.98122 0.51582 0.0
H1179 H 0.35877 0.96395 0.53703 0.0
H1180 H 0.38719 0.98366 0.55548 0.0
H1181 H 0.29802 0.03702 0.46332 0.0
H1182 H 0.27224 0.05197 0.48917 0.0
H1183 H 0.27339 0.01601 0.48429 0.0
C1184 C 0.25643 0.95287 0.03437 0.0
C1185 C 0.2744 0.95855 0.05912 0.0
C1186 C 0.24997 0.97297 0.01346 0.0
C1187 C 0.26297 0.99874 0.01684 0.0
C1188 C 0.27807 0.00527 0.04342 0.0
C1189 C 0.28307 0.98521 0.06447 0.0
C1190 C 0.23135 0.96602 0.98664 0.0
C1191 C 0.2921 0.03256 0.04824 0.0
C1192 C 0.30189 0.03045 0.95189 0.0
C1193 C 0.287 0.05519 0.94962 0.0
C1194 C 0.29302 0.01123 0.97256 0.0
C1195 C 0.26769 0.01631 0.99071 0.0
C1196 C 0.25071 0.04014 0.98655 0.0
C1197 C 0.26101 0.05967 0.96648 0.0
C1198 C 0.31244 0.9865 0.97655 0.0
C1199 C 0.22255 0.04583 0.00405 0.0
H1200 H 0.2488 0.93251 0.03048 0.0
H1201 H 0.29628 0.99003 0.08392 0.0
H1202 H 0.21803 0.9836 0.97904 0.0
H1203 H 0.24644 0.95985 0.96839 0.0
H1204 H 0.21576 0.94909 0.99129 0.0
H1205 H 0.30209 0.03468 0.07063 0.0
H1206 H 0.31014 0.03597 0.03172 0.0
H1207 H 0.27494 0.0485 0.04523 0.0
H1208 H 0.32194 0.02675 0.93887 0.0
H1209 H 0.24907 0.07858 0.96446 0.0
H1210 H 0.29875 0.96813 0.97342 0.0
H1211 H 0.32178 0.98596 -0.0007 0.0
H1212 H 0.33157 0.98583 0.96078 0.0
H1213 H 0.21234 0.02729 0.01322 0.0
H1214 H 0.20554 0.05613 0.98999 0.0
H1215 H 0.22809 0.05958 0.02252 0.0
C1216 C 0.69379 0.01863 0.51857 0.0
C1217 C 0.71493 0.03826 0.52628 0.0
C1218 C 0.70052 -0.00107 0.49773 0.0
C1219 C 0.72956 0.99829 0.48479 0.0
C1220 C 0.75123 0.01801 0.4926 0.0
C1221 C 0.74347 0.03812 0.51308 0.0
C1222 C 0.67631 0.97888 0.48948 0.0
C1223 C 0.7827 0.01742 0.48005 0.0
C1224 C 0.73735 0.92918 0.45268 0.0
C1225 C 0.72541 0.9336 0.4244 0.0
C1226 C 0.74297 0.95082 0.47179 0.0
C1227 C 0.73599 0.97725 0.46244 0.0
C1228 C 0.72774 0.98195 0.43272 0.0
C1229 C 0.72277 0.96005 0.41399 0.0
C1230 C 0.75308 0.94512 0.50297 0.0
C1231 C 0.72026 0.00977 0.42168 0.0
H1232 H 0.67163 0.01893 0.52866 0.0
H1233 H 0.7599 0.05317 0.5194 0.0
H1234 H 0.67226 0.97935 0.46531 0.0
H1235 H 0.68376 0.9583 0.49533 0.0
H1236 H 0.65458 0.98289 0.50081 0.0
H1237 H 0.79537 0.03612 0.48501 0.0
H1238 H 0.7952 0.00022 0.48971 0.0
H1239 H 0.78214 0.01443 0.45581 0.0
H1240 H 0.7401 0.90884 0.46074 0.0
H1241 H 0.71432 0.96373 0.39187 0.0
H1242 H 0.7332 0.9454 0.5178 0.0
H1243 H 0.76906 0.96073 0.51079 0.0
H1244 H 0.76403 0.92514 0.50485 0.0
H1245 H 0.69764 0.01563 0.42991 0.0
H1246 H 0.71986 0.01071 0.39719 0.0
H1247 H 0.73672 0.02471 0.43002 0.0
loop_
_geom_bond_atom_site_label_1
_geom_bond_atom_site_label_2
_geom_bond_distance
_geom_bond_site_symmetry_2
_ccdc_geom_bond_type
Zn0 O3 2.031 . S
Zn0 O5 2.049 . S
Zn0 O10 2.067 . S
Zn1 O2 1.962 . S
Zn1 O4 1.986 . S
Zn1 O6 1.996 . S
Zn1 O9 1.943 . S
O2 Zn1 1.962 . S
O2 C7 1.254 . S
O3 Zn0 2.031 . S
O3 C7 1.269 . S
O4 Zn1 1.986 . S
O4 C11 1.262 . S
O5 Zn0 2.049 . S
O5 C13 1.260 . S
O6 Zn1 1.996 . S
O6 C13 1.257 . S
C7 O2 1.254 . S
C7 O3 1.269 . S
C8 O9 1.249 . S
C8 O10 1.270 . S
O9 Zn1 1.943 . S
O9 C8 1.249 . S
O10 Zn0 2.067 . S
O10 C8 1.270 . S
C11 O4 1.262 . S
C11 O12 1.232 . S
O12 C11 1.232 . S
C13 O5 1.260 . S
C13 O6 1.257 . S
Zn14 O17 2.031 . S
Zn14 O19 2.049 . S
Zn14 O24 2.067 . S
Zn15 O16 1.962 . S
Zn15 O18 1.986 . S
Zn15 O20 1.996 . S
Zn15 O23 1.943 . S
O16 Zn15 1.962 . S
O16 C21 1.254 . S
O17 Zn14 2.031 . S
O17 C21 1.269 . S
O18 Zn15 1.986 . S
O18 C25 1.262 . S
O19 Zn14 2.049 . S
O19 C27 1.260 . S
O20 Zn15 1.996 . S
O20 C27 1.257 . S
C21 O16 1.254 . S
C21 O17 1.269 . S
C22 O23 1.249 . S
C22 O24 1.270 . S
O23 Zn15 1.943 . S
O23 C22 1.249 . S
O24 Zn14 2.067 . S
O24 C22 1.270 . S
C25 O18 1.262 . S
C25 O26 1.232 . S
O26 C25 1.232 . S
C27 O19 1.260 . S
C27 O20 1.257 . S
Zn28 O31 2.031 . S
Zn28 O33 2.049 . S
Zn28 O38 2.067 . S
Zn29 O30 1.962 . S
Zn29 O32 1.986 . S
Zn29 O34 1.996 . S
Zn29 O37 1.943 . S
O30 Zn29 1.962 . S
O30 C35 1.254 . S
O31 Zn28 2.031 . S
O31 C35 1.269 . S
O32 Zn29 1.986 . S
O32 C39 1.262 . S
O33 Zn28 2.049 . S
O33 C41 1.260 . S
O34 Zn29 1.996 . S
O34 C41 1.257 . S
C35 O30 1.254 . S
C35 O31 1.269 . S
C36 O37 1.249 . S
C36 O38 1.270 . S
O37 Zn29 1.943 . S
O37 C36 1.249 . S
O38 Zn28 2.067 . S
O38 C36 1.270 . S
C39 O32 1.262 . S
C39 O40 1.232 . S
O40 C39 1.232 . S
C41 O33 1.260 . S
C41 O34 1.257 . S
Zn42 O45 2.031 . S
Zn42 O47 2.049 . S
Zn42 O52 2.067 . S
Zn43 O44 1.962 . S
Zn43 O46 1.986 . S
Zn43 O48 1.996 . S
Zn43 O51 1.943 . S
O44 Zn43 1.962 . S
O44 C49 1.254 . S
O45 Zn42 2.031 . S
O45 C49 1.269 . S
O46 Zn43 1.986 . S
O46 C53 1.262 . S
O47 Zn42 2.049 . S
O47 C55 1.260 . S
O48 Zn43 1.996 . S
O48 C55 1.257 . S
C49 O44 1.254 . S
C49 O45 1.269 . S
C50 O51 1.249 . S
C50 O52 1.270 . S
O51 Zn43 1.943 . S
O51 C50 1.249 . S
O52 Zn42 2.067 . S
O52 C50 1.270 . S
C53 O46 1.262 . S
C53 O54 1.232 . S
O54 C53 1.232 . S
C55 O47 1.260 . S
C55 O48 1.257 . S
Zn56 O59 2.031 . S
Zn56 O61 2.049 . S
Zn56 O66 2.067 . S
Zn57 O58 1.962 . S
Zn57 O60 1.986 . S
Zn57 O62 1.996 . S
Zn57 O65 1.943 . S
O58 Zn57 1.962 . S
O58 C63 1.254 . S
O59 Zn56 2.031 . S
O59 C63 1.269 . S
O60 Zn57 1.986 . S
O60 C67 1.262 . S
O61 Zn56 2.049 . S
O61 C69 1.260 . S
O62 Zn57 1.996 . S
O62 C69 1.257 . S
C63 O58 1.254 . S
C63 O59 1.269 . S
C64 O65 1.249 . S
C64 O66 1.270 . S
O65 Zn57 1.943 . S
O65 C64 1.249 . S
O66 Zn56 2.067 . S
O66 C64 1.270 . S
C67 O60 1.262 . S
C67 O68 1.232 . S
O68 C67 1.232 . S
C69 O61 1.260 . S
C69 O62 1.257 . S
Zn70 O73 2.031 . S
Zn70 O75 2.049 . S
Zn70 O80 2.067 . S
Zn71 O72 1.962 . S
Zn71 O74 1.986 . S
Zn71 O76 1.996 . S
Zn71 O79 1.943 . S
O72 Zn71 1.962 . S
O72 C77 1.254 . S
O73 Zn70 2.031 . S
O73 C77 1.269 . S
O74 Zn71 1.986 . S
O74 C81 1.262 . S
O75 Zn70 2.049 . S
O75 C83 1.260 . S
O76 Zn71 1.996 . S
O76 C83 1.257 . S
C77 O72 1.254 . S
C77 O73 1.269 . S
C78 O79 1.249 . S
C78 O80 1.270 . S
O79 Zn71 1.943 . S
O79 C78 1.249 . S
O80 Zn70 2.067 . S
O80 C78 1.270 . S
C81 O74 1.262 . S
C81 O82 1.232 . S
O82 C81 1.232 . S
C83 O75 1.260 . S
C83 O76 1.257 . S
Zn84 O87 2.031 . S
Zn84 O89 2.049 . S
Zn84 O94 2.067 . S
Zn85 O86 1.962 . S
Zn85 O88 1.986 . S
Zn85 O90 1.996 . S
Zn85 O93 1.943 . S
O86 Zn85 1.962 . S
O86 C91 1.254 . S
O87 Zn84 2.031 . S
O87 C91 1.269 . S
O88 Zn85 1.986 . S
O88 C95 1.262 . S
O89 Zn84 2.049 . S
O89 C97 1.260 . S
O90 Zn85 1.996 . S
O90 C97 1.257 . S
C91 O86 1.254 . S
C91 O87 1.269 . S
C92 O93 1.249 . S
C92 O94 1.270 . S
O93 Zn85 1.943 . S
O93 C92 1.249 . S
O94 Zn84 2.067 . S
O94 C92 1.270 . S
C95 O88 1.262 . S
C95 O96 1.232 . S
O96 C95 1.232 . S
C97 O89 1.260 . S
C97 O90 1.257 . S
Zn98 O101 2.031 . S
Zn98 O103 2.049 . S
Zn98 O108 2.067 . S
Zn99 O100 1.962 . S
Zn99 O102 1.986 . S
Zn99 O104 1.996 . S
Zn99 O107 1.943 . S
O100 Zn99 1.962 . S
O100 C105 1.254 . S
O101 Zn98 2.031 . S
O101 C105 1.269 . S
O102 Zn99 1.986 . S
O102 C109 1.262 . S
O103 Zn98 2.049 . S
O103 C111 1.260 . S
O104 Zn99 1.996 . S
O104 C111 1.257 . S
C105 O100 1.254 . S
C105 O101 1.269 . S
C106 O107 1.249 . S
C106 O108 1.270 . S
O107 Zn99 1.943 . S
O107 C106 1.249 . S
O108 Zn98 2.067 . S
O108 C106 1.270 . S
C109 O102 1.262 . S
C109 O110 1.232 . S
O110 C109 1.232 . S
C111 O103 1.260 . S
C111 O104 1.257 . S
Zn112 O115 2.031 . S
Zn112 O117 2.049 . S
Zn112 O122 2.067 . S
Zn113 O114 1.962 . S
Zn113 O116 1.986 . S
Zn113 O118 1.996 . S
Zn113 O121 1.943 . S
O114 Zn113 1.962 . S
O114 C119 1.254 . S
O115 Zn112 2.031 . S
O115 C119 1.269 . S
O116 Zn113 1.986 . S
O116 C123 1.262 . S
O117 Zn112 2.049 . S
O117 C125 1.260 . S
O118 Zn113 1.996 . S
O118 C125 1.257 . S
C119 O114 1.254 . S
C119 O115 1.269 . S
C120 O121 1.249 . S
C120 O122 1.270 . S
O121 Zn113 1.943 . S
O121 C120 1.249 . S
O122 Zn112 2.067 . S
O122 C120 1.270 . S
C123 O116 1.262 . S
C123 O124 1.232 . S
O124 C123 1.232 . S
C125 O117 1.260 . S
C125 O118 1.257 . S
Zn126 O129 2.031 . S
Zn126 O131 2.049 . S
Zn126 O136 2.067 . S
Zn127 O128 1.962 . S
Zn127 O130 1.986 . S
Zn127 O132 1.996 . S
Zn127 O135 1.943 . S
O128 Zn127 1.962 . S
O128 C133 1.254 . S
O129 Zn126 2.031 . S
O129 C133 1.269 . S
O130 Zn127 1.986 . S
O130 C137 1.262 . S
O131 Zn126 2.049 . S
O131 C139 1.260 . S
O132 Zn127 1.996 . S
O132 C139 1.257 . S
C133 O128 1.254 . S
C133 O129 1.269 . S
C134 O135 1.249 . S
C134 O136 1.270 . S
O135 Zn127 1.943 . S
O135 C134 1.249 . S
O136 Zn126 2.067 . S
O136 C134 1.270 . S
C137 O130 1.262 . S
C137 O138 1.232 . S
O138 C137 1.232 . S
C139 O131 1.260 . S
C139 O132 1.257 . S
Zn140 O143 2.031 . S
Zn140 O145 2.049 . S
Zn140 O150 2.067 . S
Zn141 O142 1.962 . S
Zn141 O144 1.986 . S
Zn141 O146 1.996 . S
Zn141 O149 1.943 . S
O142 Zn141 1.962 . S
O142 C147 1.254 . S
O143 Zn140 2.031 . S
O143 C147 1.269 . S
O144 Zn141 1.986 . S
O144 C151 1.262 . S
O145 Zn140 2.049 . S
O145 C153 1.260 . S
O146 Zn141 1.996 . S
O146 C153 1.257 . S
C147 O142 1.254 . S
C147 O143 1.269 . S
C148 O149 1.249 . S
C148 O150 1.270 . S
O149 Zn141 1.943 . S
O149 C148 1.249 . S
O150 Zn140 2.067 . S
O150 C148 1.270 . S
C151 O144 1.262 . S
C151 O152 1.232 . S
O152 C151 1.232 . S
C153 O145 1.260 . S
C153 O146 1.257 . S
Zn154 O157 2.031 . S
Zn154 O159 2.049 . S
Zn154 O164 2.067 . S
Zn155 O156 1.962 . S
Zn155 O158 1.986 . S
Zn155 O160 1.996 . S
Zn155 O163 1.943 . S
O156 Zn155 1.962 . S
O156 C161 1.254 . S
O157 Zn154 2.031 . S
O157 C161 1.269 . S
O158 Zn155 1.986 . S
O158 C165 1.262 . S
O159 Zn154 2.049 . S
O159 C167 1.260 . S
O160 Zn155 1.996 . S
O160 C167 1.257 . S
C161 O156 1.254 . S
C161 O157 1.269 . S
C162 O163 1.249 . S
C162 O164 1.270 . S
O163 Zn155 1.943 . S
O163 C162 1.249 . S
O164 Zn154 2.067 . S
O164 C162 1.270 . S
C165 O158 1.262 . S
C165 O166 1.232 . S
O166 C165 1.232 . S
C167 O159 1.260 . S
C167 O160 1.257 . S
Zn168 O171 2.031 . S
Zn168 O173 2.049 . S
Zn168 O178 2.067 . S
Zn169 O170 1.962 . S
Zn169 O172 1.986 . S
Zn169 O174 1.996 . S
Zn169 O177 1.943 . S
O170 Zn169 1.962 . S
O170 C175 1.254 . S
O171 Zn168 2.031 . S
O171 C175 1.269 . S
O172 Zn169 1.986 . S
O172 C179 1.262 . S
O173 Zn168 2.049 . S
O173 C181 1.260 . S
O174 Zn169 1.996 . S
O174 C181 1.257 . S
C175 O170 1.254 . S
C175 O171 1.269 . S
C176 O177 1.249 . S
C176 O178 1.270 . S
O177 Zn169 1.943 . S
O177 C176 1.249 . S
O178 Zn168 2.067 . S
O178 C176 1.270 . S
C179 O172 1.262 . S
C179 O180 1.232 . S
O180 C179 1.232 . S
C181 O173 1.260 . S
C181 O174 1.257 . S
Zn182 O185 2.031 . S
Zn182 O187 2.049 . S
Zn182 O192 2.067 . S
Zn183 O184 1.962 . S
Zn183 O186 1.986 . S
Zn183 O188 1.996 . S
Zn183 O191 1.943 . S
O184 Zn183 1.962 . S
O184 C189 1.254 . S
O185 Zn182 2.031 . S
O185 C189 1.269 . S
O186 Zn183 1.986 . S
O186 C193 1.262 . S
O187 Zn182 2.049 . S
O187 C195 1.260 . S
O188 Zn183 1.996 . S
O188 C195 1.257 . S
C189 O184 1.254 . S
C189 O185 1.269 . S
C190 O191 1.249 . S
C190 O192 1.270 . S
O191 Zn183 1.943 . S
O191 C190 1.249 . S
O192 Zn182 2.067 . S
O192 C190 1.270 . S
C193 O186 1.262 . S
C193 O194 1.232 . S
O194 C193 1.232 . S
C195 O187 1.260 . S
C195 O188 1.257 . S
Zn196 O199 2.031 . S
Zn196 O201 2.049 . S
Zn196 O206 2.067 . S
Zn197 O198 1.962 . S
Zn197 O200 1.986 . S
Zn197 O202 1.996 . S
Zn197 O205 1.943 . S
O198 Zn197 1.962 . S
O198 C203 1.254 . S
O199 Zn196 2.031 . S
O199 C203 1.269 . S
O200 Zn197 1.986 . S
O200 C207 1.262 . S
O201 Zn196 2.049 . S
O201 C209 1.260 . S
O202 Zn197 1.996 . S
O202 C209 1.257 . S
C203 O198 1.254 . S
C203 O199 1.269 . S
C204 O205 1.249 . S
C204 O206 1.270 . S
O205 Zn197 1.943 . S
O205 C204 1.249 . S
O206 Zn196 2.067 . S
O206 C204 1.270 . S
C207 O200 1.262 . S
C207 O208 1.232 . S
O208 C207 1.232 . S
C209 O201 1.260 . S
C209 O202 1.257 . S
Zn210 O213 2.031 . S
Zn210 O215 2.049 . S
Zn210 O220 2.067 . S
Zn211 O212 1.962 . S
Zn211 O214 1.986 . S
Zn211 O216 1.996 . S
Zn211 O219 1.943 . S
O212 Zn211 1.962 . S
O212 C217 1.254 . S
O213 Zn210 2.031 . S
O213 C217 1.269 . S
O214 Zn211 1.986 . S
O214 C221 1.262 . S
O215 Zn210 2.049 . S
O215 C223 1.260 . S
O216 Zn211 1.996 . S
O216 C223 1.257 . S
C217 O212 1.254 . S
C217 O213 1.269 . S
C218 O219 1.249 . S
C218 O220 1.270 . S
O219 Zn211 1.943 . S
O219 C218 1.249 . S
O220 Zn210 2.067 . S
O220 C218 1.270 . S
C221 O214 1.262 . S
C221 O222 1.232 . S
O222 C221 1.232 . S
C223 O215 1.260 . S
C223 O216 1.257 . S
C224 C225 1.391 . S
C224 C226 1.394 . S
C224 H240 0.931 . S
C225 C224 1.391 . S
C225 C229 1.376 . S
C226 C224 1.394 . S
C226 C227 1.369 . S
C226 C230 1.546 . S
C227 C226 1.369 . S
C227 C228 1.410 . S
C227 C235 1.503 1_455 S
C228 C227 1.410 . S
C228 C229 1.392 . S
C228 C231 1.511 . S
C229 C225 1.376 . S
C229 C228 1.392 . S
C229 H241 0.929 . S
C230 C226 1.546 . S
C230 H242 0.934 1_455 S
C230 H243 0.955 1_455 S
C230 H244 0.978 . S
C231 C228 1.511 . S
C231 H245 0.961 . S
C231 H246 0.961 1_455 S
C231 H247 0.960 1_455 S
C232 C233 1.370 . S
C232 C234 1.363 . S
C232 H248 0.931 . S
C233 C232 1.370 . S
C233 C237 1.408 . S
C234 C232 1.363 . S
C234 C235 1.370 . S
C234 C238 1.524 . S
C235 C227 1.503 1_655 S
C235 C234 1.370 . S
C235 C236 1.403 . S
C236 C235 1.403 . S
C236 C237 1.404 . S
C236 C239 1.539 . S
C237 C233 1.408 . S
C237 C236 1.404 . S
C237 H249 0.930 . S
C238 C234 1.524 . S
C238 H250 0.956 . S
C238 H251 0.961 . S
C238 H252 0.961 . S
C239 C236 1.539 . S
C239 H253 0.958 . S
C239 H254 0.961 . S
C239 H255 0.960 . S
H240 C224 0.931 . S
H241 C229 0.929 . S
H242 C230 0.934 1_655 S
H243 C230 0.955 1_655 S
H244 C230 0.978 . S
H245 C231 0.961 . S
H246 C231 0.961 1_655 S
H247 C231 0.960 1_655 S
H248 C232 0.931 . S
H249 C237 0.930 . S
H250 C238 0.956 . S
H251 C238 0.961 . S
H252 C238 0.961 . S
H253 C239 0.958 . S
H254 C239 0.961 . S
H255 C239 0.960 . S
C256 C257 1.391 . S
C256 C258 1.394 . S
C256 H272 0.931 . S
C257 C256 1.391 . S
C257 C261 1.376 . S
C258 C256 1.394 . S
C258 C259 1.369 . S
C258 C262 1.531 . S
C259 C258 1.369 . S
C259 C260 1.410 . S
C259 C267 1.503 1_655 S
C260 C259 1.410 . S
C260 C261 1.392 . S
C260 C263 1.531 . S
C261 C257 1.376 . S
C261 C260 1.392 . S
C261 H273 0.929 . S
C262 C258 1.531 . S
C262 H274 0.960 1_655 S
C262 H275 0.962 1_655 S
C262 H276 0.960 . S
C263 C260 1.531 . S
C263 H277 0.982 . S
C263 H278 0.926 1_655 S
C263 H279 0.956 1_655 S
C264 C265 1.370 . S
C264 C266 1.363 . S
C264 H280 0.931 . S
C265 C264 1.370 . S
C265 C269 1.408 . S
C266 C264 1.363 . S
C266 C267 1.370 . S
C266 C270 1.524 . S
C267 C259 1.503 1_455 S
C267 C266 1.370 . S
C267 C268 1.403 . S
C268 C267 1.403 . S
C268 C269 1.404 . S
C268 C271 1.539 . S
C269 C265 1.408 . S
C269 C268 1.404 . S
C269 H281 0.930 . S
C270 C266 1.524 . S
C270 H282 0.956 . S
C270 H283 0.961 . S
C270 H284 0.961 . S
C271 C268 1.539 . S
C271 H285 0.958 . S
C271 H286 0.961 . S
C271 H287 0.960 . S
H272 C256 0.931 . S
H273 C261 0.929 . S
H274 C262 0.960 1_455 S
H275 C262 0.962 1_455 S
H276 C262 0.960 . S
H277 C263 0.982 . S
H278 C263 0.926 1_455 S
H279 C263 0.956 1_455 S
H280 C264 0.931 . S
H281 C269 0.930 . S
H282 C270 0.956 . S
H283 C270 0.961 . S
H284 C270 0.961 . S
H285 C271 0.958 . S
H286 C271 0.961 . S
H287 C271 0.960 . S
C288 C289 1.391 . S
C288 C290 1.394 . S
C288 H304 0.931 . S
C289 C288 1.391 . S
C289 C293 1.376 . S
C290 C288 1.394 . S
C290 C291 1.369 . S
C290 C294 1.531 . S
C291 C290 1.369 . S
C291 C292 1.410 . S
C291 C299 1.503 1_655 S
C292 C291 1.410 . S
C292 C293 1.392 . S
C292 C295 1.511 . S
C293 C289 1.376 . S
C293 C292 1.392 . S
C293 H305 0.929 . S
C294 C290 1.531 . S
C294 H306 0.960 . S
C294 H307 0.962 . S
C294 H308 0.960 . S
C295 C292 1.511 . S
C295 H309 0.961 . S
C295 H310 0.961 . S
C295 H311 0.961 . S
C296 C297 1.370 . S
C296 C298 1.363 . S
C296 H312 0.931 . S
C297 C296 1.370 . S
C297 C301 1.408 . S
C298 C296 1.363 . S
C298 C299 1.370 . S
C298 C302 1.524 1_455 S
C299 C291 1.503 1_455 S
C299 C298 1.370 . S
C299 C300 1.403 . S
C300 C299 1.403 . S
C300 C301 1.404 . S
C300 C303 1.539 . S
C301 C297 1.408 . S
C301 C300 1.404 . S
C301 H313 0.930 . S
C302 C298 1.524 1_655 S
C302 H314 0.956 . S
C302 H315 0.961 . S
C302 H316 0.961 1_655 S
C303 C300 1.539 . S
C303 H317 0.958 . S
C303 H318 0.961 . S
C303 H319 0.960 1_455 S
H304 C288 0.931 . S
H305 C293 0.929 . S
H306 C294 0.960 . S
H307 C294 0.962 . S
H308 C294 0.960 . S
H309 C295 0.961 . S
H310 C295 0.961 . S
H311 C295 0.961 . S
H312 C296 0.931 . S
H313 C301 0.930 . S
H314 C302 0.956 . S
H315 C302 0.961 . S
H316 C302 0.961 1_455 S
H317 C303 0.958 . S
H318 C303 0.961 . S
H319 C303 0.960 1_655 S
C320 C321 1.391 . S
C320 C322 1.394 . S
C320 H336 0.931 . S
C321 C320 1.391 . S
C321 C325 1.376 . S
C322 C320 1.394 . S
C322 C323 1.369 . S
C322 C326 1.531 . S
C323 C322 1.369 . S
C323 C324 1.410 . S
C323 C331 1.503 1_455 S
C324 C323 1.410 . S
C324 C325 1.392 . S
C324 C327 1.511 . S
C325 C321 1.376 . S
C325 C324 1.392 . S
C325 H337 0.929 . S
C326 C322 1.531 . S
C326 H338 0.960 . S
C326 H339 0.962 . S
C326 H340 0.960 . S
C327 C324 1.511 . S
C327 H341 0.961 . S
C327 H342 0.961 . S
C327 H343 0.961 . S
C328 C329 1.370 . S
C328 C330 1.363 . S
C328 H344 0.931 . S
C329 C328 1.370 . S
C329 C333 1.408 . S
C330 C328 1.363 . S
C330 C331 1.370 . S
C330 C334 1.524 1_655 S
C331 C323 1.503 1_655 S
C331 C330 1.370 . S
C331 C332 1.403 . S
C332 C331 1.403 . S
C332 C333 1.404 . S
C332 C335 1.539 . S
C333 C329 1.408 . S
C333 C332 1.404 . S
C333 H345 0.930 . S
C334 C330 1.524 1_455 S
C334 H346 0.956 . S
C334 H347 0.961 . S
C334 H348 0.961 1_455 S
C335 C332 1.539 . S
C335 H349 0.958 . S
C335 H350 0.961 . S
C335 H351 0.960 1_655 S
H336 C320 0.931 . S
H337 C325 0.929 . S
H338 C326 0.960 . S
H339 C326 0.962 . S
H340 C326 0.960 . S
H341 C327 0.961 . S
H342 C327 0.961 . S
H343 C327 0.961 . S
H344 C328 0.931 . S
H345 C333 0.930 . S
H346 C334 0.956 . S
H347 C334 0.961 . S
H348 C334 0.961 1_655 S
H349 C335 0.958 . S
H350 C335 0.961 . S
H351 C335 0.960 1_455 S
C352 C353 1.391 . S
C352 C354 1.394 . S
C352 H368 0.931 . S
C353 C352 1.391 . S
C353 C357 1.376 . S
C354 C352 1.394 . S
C354 C355 1.369 . S
C354 C358 1.531 . S
C355 C354 1.369 . S
C355 C356 1.410 . S
C355 C363 1.503 . S
C356 C355 1.410 . S
C356 C357 1.392 . S
C356 C359 1.511 . S
C357 C353 1.376 . S
C357 C356 1.392 . S
C357 H369 0.929 . S
C358 C354 1.531 . S
C358 H370 0.960 . S
C358 H371 0.962 . S
C358 H372 0.960 . S
C359 C356 1.511 . S
C359 H373 0.961 . S
C359 H374 0.961 . S
C359 H375 0.961 . S
C360 C361 1.370 . S
C360 C362 1.363 . S
C360 H376 0.931 . S
C361 C360 1.370 . S
C361 C365 1.408 . S
C362 C360 1.363 . S
C362 C363 1.370 . S
C362 C366 1.524 . S
C363 C355 1.503 . S
C363 C362 1.370 . S
C363 C364 1.403 . S
C364 C363 1.403 . S
C364 C365 1.404 . S
C364 C367 1.539 . S
C365 C361 1.408 . S
C365 C364 1.404 . S
C365 H377 0.930 . S
C366 C362 1.524 . S
C366 H378 0.956 . S
C366 H379 0.961 . S
C366 H380 0.961 . S
C367 C364 1.539 . S
C367 H381 0.958 . S
C367 H382 0.961 . S
C367 H383 0.960 . S
H368 C352 0.931 . S
H369 C357 0.929 . S
H370 C358 0.960 . S
H371 C358 0.962 . S
H372 C358 0.960 . S
H373 C359 0.961 . S
H374 C359 0.961 . S
H375 C359 0.961 . S
H376 C360 0.931 . S
H377 C365 0.930 . S
H378 C366 0.956 . S
H379 C366 0.961 . S
H380 C366 0.961 . S
H381 C367 0.958 . S
H382 C367 0.961 . S
H383 C367 0.960 . S
C384 C385 1.391 . S
C384 C386 1.394 . S
C384 H400 0.931 . S
C385 C384 1.391 . S
C385 C389 1.376 . S
C386 C384 1.394 . S
C386 C387 1.369 . S
C386 C390 1.531 . S
C387 C386 1.369 . S
C387 C388 1.410 . S
C387 C395 1.503 . S
C388 C387 1.410 . S
C388 C389 1.392 . S
C388 C391 1.511 . S
C389 C385 1.376 . S
C389 C388 1.392 . S
C389 H401 0.929 . S
C390 C386 1.531 . S
C390 H402 0.960 . S
C390 H403 0.962 . S
C390 H404 0.960 . S
C391 C388 1.511 . S
C391 H405 0.961 . S
C391 H406 0.961 . S
C391 H407 0.961 . S
C392 C393 1.370 . S
C392 C394 1.363 . S
C392 H408 0.931 . S
C393 C392 1.370 . S
C393 C397 1.408 . S
C394 C392 1.363 . S
C394 C395 1.370 . S
C394 C398 1.524 . S
C395 C387 1.503 . S
C395 C394 1.370 . S
C395 C396 1.403 . S
C396 C395 1.403 . S
C396 C397 1.404 . S
C396 C399 1.539 . S
C397 C393 1.408 . S
C397 C396 1.404 . S
C397 H409 0.930 . S
C398 C394 1.524 . S
C398 H410 0.956 . S
C398 H411 0.961 . S
C398 H412 0.961 . S
C399 C396 1.539 . S
C399 H413 0.958 . S
C399 H414 0.961 . S
C399 H415 0.960 . S
H400 C384 0.931 . S
H401 C389 0.929 . S
H402 C390 0.960 . S
H403 C390 0.962 . S
H404 C390 0.960 . S
H405 C391 0.961 . S
H406 C391 0.961 . S
H407 C391 0.961 . S
H408 C392 0.931 . S
H409 C397 0.930 . S
H410 C398 0.956 . S
H411 C398 0.961 . S
H412 C398 0.961 . S
H413 C399 0.958 . S
H414 C399 0.961 . S
H415 C399 0.960 . S
C416 C417 1.391 . S
C416 C418 1.394 . S
C416 H432 0.931 . S
C417 C416 1.391 . S
C417 C421 1.376 . S
C418 C416 1.394 . S
C418 C419 1.369 . S
C418 C422 1.531 . S
C419 C418 1.369 . S
C419 C420 1.410 . S
C419 C427 1.503 . S
C420 C419 1.410 . S
C420 C421 1.392 . S
C420 C423 1.511 . S
C421 C417 1.376 . S
C421 C420 1.392 . S
C421 H433 0.929 . S
C422 C418 1.531 . S
C422 H434 0.960 . S
C422 H435 0.962 . S
C422 H436 0.960 . S
C423 C420 1.511 . S
C423 H437 0.961 . S
C423 H438 0.961 . S
C423 H439 0.961 . S
C424 C425 1.370 . S
C424 C426 1.363 . S
C424 H440 0.931 . S
C425 C424 1.370 . S
C425 C429 1.408 . S
C426 C424 1.363 . S
C426 C427 1.370 . S
C426 C430 1.524 . S
C427 C419 1.503 . S
C427 C426 1.370 . S
C427 C428 1.403 . S
C428 C427 1.403 . S
C428 C429 1.404 . S
C428 C431 1.539 . S
C429 C425 1.408 . S
C429 C428 1.404 . S
C429 H441 0.930 . S
C430 C426 1.524 . S
C430 H442 0.956 . S
C430 H443 0.961 . S
C430 H444 0.961 . S
C431 C428 1.539 . S
C431 H445 0.958 . S
C431 H446 0.961 . S
C431 H447 0.960 . S
H432 C416 0.931 . S
H433 C421 0.929 . S
H434 C422 0.960 . S
H435 C422 0.962 . S
H436 C422 0.960 . S
H437 C423 0.961 . S
H438 C423 0.961 . S
H439 C423 0.961 . S
H440 C424 0.931 . S
H441 C429 0.930 . S
H442 C430 0.956 . S
H443 C430 0.961 . S
H444 C430 0.961 . S
H445 C431 0.958 . S
H446 C431 0.961 . S
H447 C431 0.960 . S
C448 C449 1.391 . S
C448 C450 1.394 . S
C448 H464 0.931 . S
C449 C448 1.391 . S
C449 C453 1.376 . S
C450 C448 1.394 . S
C450 C451 1.369 . S
C450 C454 1.531 . S
C451 C450 1.369 . S
C451 C452 1.410 . S
C451 C459 1.503 . S
C452 C451 1.410 . S
C452 C453 1.392 . S
C452 C455 1.511 . S
C453 C449 1.376 . S
C453 C452 1.392 . S
C453 H465 0.929 . S
C454 C450 1.531 . S
C454 H466 0.960 . S
C454 H467 0.962 . S
C454 H468 0.960 . S
C455 C452 1.511 . S
C455 H469 0.961 . S
C455 H470 0.961 . S
C455 H471 0.961 . S
C456 C457 1.370 . S
C456 C458 1.363 . S
C456 H472 0.931 . S
C457 C456 1.370 . S
C457 C461 1.408 . S
C458 C456 1.363 . S
C458 C459 1.370 . S
C458 C462 1.524 . S
C459 C451 1.503 . S
C459 C458 1.370 . S
C459 C460 1.403 . S
C460 C459 1.403 . S
C460 C461 1.404 . S
C460 C463 1.539 . S
C461 C457 1.408 . S
C461 C460 1.404 . S
C461 H473 0.930 . S
C462 C458 1.524 . S
C462 H474 0.956 . S
C462 H475 0.961 . S
C462 H476 0.961 . S
C463 C460 1.539 . S
C463 H477 0.958 . S
C463 H478 0.961 . S
C463 H479 0.960 . S
H464 C448 0.931 . S
H465 C453 0.929 . S
H466 C454 0.960 . S
H467 C454 0.962 . S
H468 C454 0.960 . S
H469 C455 0.961 . S
H470 C455 0.961 . S
H471 C455 0.961 . S
H472 C456 0.931 . S
H473 C461 0.930 . S
H474 C462 0.956 . S
H475 C462 0.961 . S
H476 C462 0.961 . S
H477 C463 0.958 . S
H478 C463 0.961 . S
H479 C463 0.960 . S
C480 C481 1.391 . S
C480 C482 1.394 . S
C480 H496 0.931 . S
C481 C480 1.391 . S
C481 C485 1.376 . S
C482 C480 1.394 . S
C482 C483 1.369 . S
C482 C486 1.531 . S
C483 C482 1.369 . S
C483 C484 1.410 . S
C483 C491 1.503 . S
C484 C483 1.410 . S
C484 C485 1.392 . S
C484 C487 1.511 . S
C485 C481 1.376 . S
C485 C484 1.392 . S
C485 H497 0.929 . S
C486 C482 1.531 . S
C486 H498 0.960 . S
C486 H499 0.962 . S
C486 H500 0.960 . S
C487 C484 1.511 . S
C487 H501 0.961 . S
C487 H502 0.961 . S
C487 H503 0.961 . S
C488 C489 1.370 . S
C488 C490 1.363 . S
C488 H504 0.931 . S
C489 C488 1.370 . S
C489 C493 1.408 . S
C490 C488 1.363 . S
C490 C491 1.370 . S
C490 C494 1.524 . S
C491 C483 1.503 . S
C491 C490 1.370 . S
C491 C492 1.403 . S
C492 C491 1.403 . S
C492 C493 1.404 . S
C492 C495 1.539 . S
C493 C489 1.408 . S
C493 C492 1.404 . S
C493 H505 0.930 . S
C494 C490 1.524 . S
C494 H506 0.956 . S
C494 H507 0.961 . S
C494 H508 0.961 . S
C495 C492 1.539 . S
C495 H509 0.958 . S
C495 H510 0.961 . S
C495 H511 0.960 . S
H496 C480 0.931 . S
H497 C485 0.929 . S
H498 C486 0.960 . S
H499 C486 0.962 . S
H500 C486 0.960 . S
H501 C487 0.961 . S
H502 C487 0.961 . S
H503 C487 0.961 . S
H504 C488 0.931 . S
H505 C493 0.930 . S
H506 C494 0.956 . S
H507 C494 0.961 . S
H508 C494 0.961 . S
H509 C495 0.958 . S
H510 C495 0.961 . S
H511 C495 0.960 . S
C512 C513 1.391 . S
C512 C514 1.394 . S
C512 H528 0.931 . S
C513 C512 1.391 . S
C513 C517 1.376 . S
C514 C512 1.394 . S
C514 C515 1.369 . S
C514 C518 1.531 . S
C515 C514 1.369 . S
C515 C516 1.410 . S
C515 C523 1.503 . S
C516 C515 1.410 . S
C516 C517 1.392 . S
C516 C519 1.511 . S
C517 C513 1.376 . S
C517 C516 1.392 . S
C517 H529 0.929 . S
C518 C514 1.531 . S
C518 H530 0.960 . S
C518 H531 0.962 . S
C518 H532 0.960 . S
C519 C516 1.511 . S
C519 H533 0.961 . S
C519 H534 0.961 . S
C519 H535 0.961 . S
C520 C521 1.370 . S
C520 C522 1.363 . S
C520 H536 0.931 . S
C521 C520 1.370 . S
C521 C525 1.408 . S
C522 C520 1.363 . S
C522 C523 1.370 . S
C522 C526 1.524 . S
C523 C515 1.503 . S
C523 C522 1.370 . S
C523 C524 1.403 . S
C524 C523 1.403 . S
C524 C525 1.404 . S
C524 C527 1.539 . S
C525 C521 1.408 . S
C525 C524 1.404 . S
C525 H537 0.930 . S
C526 C522 1.524 . S
C526 H538 0.956 . S
C526 H539 0.961 . S
C526 H540 0.961 . S
C527 C524 1.539 . S
C527 H541 0.958 . S
C527 H542 0.961 . S
C527 H543 0.960 . S
H528 C512 0.931 . S
H529 C517 0.929 . S
H530 C518 0.960 . S
H531 C518 0.962 . S
H532 C518 0.960 . S
H533 C519 0.961 . S
H534 C519 0.961 . S
H535 C519 0.961 . S
H536 C520 0.931 . S
H537 C525 0.930 . S
H538 C526 0.956 . S
H539 C526 0.961 . S
H540 C526 0.961 . S
H541 C527 0.958 . S
H542 C527 0.961 . S
H543 C527 0.960 . S
C544 C545 1.391 . S
C544 C546 1.394 . S
C544 H560 0.931 . S
C545 C544 1.391 . S
C545 C549 1.376 . S
C546 C544 1.394 . S
C546 C547 1.369 . S
C546 C550 1.531 . S
C547 C546 1.369 . S
C547 C548 1.410 . S
C547 C555 1.503 . S
C548 C547 1.410 . S
C548 C549 1.392 . S
C548 C551 1.511 . S
C549 C545 1.376 . S
C549 C548 1.392 . S
C549 H561 0.929 . S
C550 C546 1.531 . S
C550 H562 0.960 . S
C550 H563 0.962 . S
C550 H564 0.960 . S
C551 C548 1.511 . S
C551 H565 0.961 . S
C551 H566 0.961 . S
C551 H567 0.961 . S
C552 C553 1.370 . S
C552 C554 1.363 . S
C552 H568 0.931 . S
C553 C552 1.370 . S
C553 C557 1.408 . S
C554 C552 1.363 . S
C554 C555 1.370 . S
C554 C558 1.524 . S
C555 C547 1.503 . S
C555 C554 1.370 . S
C555 C556 1.403 . S
C556 C555 1.403 . S
C556 C557 1.404 . S
C556 C559 1.539 . S
C557 C553 1.408 . S
C557 C556 1.404 . S
C557 H569 0.930 . S
C558 C554 1.524 . S
C558 H570 0.956 . S
C558 H571 0.961 . S
C558 H572 0.961 . S
C559 C556 1.539 . S
C559 H573 0.958 . S
C559 H574 0.961 . S
C559 H575 0.960 . S
H560 C544 0.931 . S
H561 C549 0.929 . S
H562 C550 0.960 . S
H563 C550 0.962 . S
H564 C550 0.960 . S
H565 C551 0.961 . S
H566 C551 0.961 . S
H567 C551 0.961 . S
H568 C552 0.931 . S
H569 C557 0.930 . S
H570 C558 0.956 . S
H571 C558 0.961 . S
H572 C558 0.961 . S
H573 C559 0.958 . S
H574 C559 0.961 . S
H575 C559 0.960 . S
C576 C577 1.391 . S
C576 C578 1.394 . S
C576 H592 0.931 . S
C577 C576 1.391 . S
C577 C581 1.376 . S
C578 C576 1.394 . S
C578 C579 1.369 . S
C578 C582 1.531 . S
C579 C578 1.369 . S
C579 C580 1.410 . S
C579 C587 1.503 . S
C580 C579 1.410 . S
C580 C581 1.392 . S
C580 C583 1.511 . S
C581 C577 1.376 . S
C581 C580 1.392 . S
C581 H593 0.929 . S
C582 C578 1.531 . S
C582 H594 0.960 . S
C582 H595 0.962 . S
C582 H596 0.960 . S
C583 C580 1.511 . S
C583 H597 0.961 . S
C583 H598 0.961 . S
C583 H599 0.961 . S
C584 C585 1.370 . S
C584 C586 1.363 . S
C584 H600 0.931 . S
C585 C584 1.370 . S
C585 C589 1.408 . S
C586 C584 1.363 . S
C586 C587 1.370 . S
C586 C590 1.524 . S
C587 C579 1.503 . S
C587 C586 1.370 . S
C587 C588 1.403 . S
C588 C587 1.403 . S
C588 C589 1.404 . S
C588 C591 1.539 . S
C589 C585 1.408 . S
C589 C588 1.404 . S
C589 H601 0.930 . S
C590 C586 1.524 . S
C590 H602 0.956 . S
C590 H603 0.961 . S
C590 H604 0.961 . S
C591 C588 1.539 . S
C591 H605 0.958 . S
C591 H606 0.961 . S
C591 H607 0.960 . S
H592 C576 0.931 . S
H593 C581 0.929 . S
H594 C582 0.960 . S
H595 C582 0.962 . S
H596 C582 0.960 . S
H597 C583 0.961 . S
H598 C583 0.961 . S
H599 C583 0.961 . S
H600 C584 0.931 . S
H601 C589 0.930 . S
H602 C590 0.956 . S
H603 C590 0.961 . S
H604 C590 0.961 . S
H605 C591 0.958 . S
H606 C591 0.961 . S
H607 C591 0.960 . S
C608 C609 1.391 . S
C608 C610 1.394 . S
C608 H624 0.931 . S
C609 C608 1.391 . S
C609 C613 1.376 . S
C610 C608 1.394 . S
C610 C611 1.369 . S
C610 C614 1.531 . S
C611 C610 1.369 . S
C611 C612 1.410 . S
C611 C619 1.503 . S
C612 C611 1.410 . S
C612 C613 1.392 . S
C612 C615 1.511 . S
C613 C609 1.376 . S
C613 C612 1.392 . S
C613 H625 0.929 . S
C614 C610 1.531 . S
C614 H626 0.960 . S
C614 H627 0.962 . S
C614 H628 0.960 . S
C615 C612 1.511 . S
C615 H629 0.961 . S
C615 H630 0.961 . S
C615 H631 0.961 . S
C616 C617 1.370 . S
C616 C618 1.363 . S
C616 H632 0.931 . S
C617 C616 1.370 . S
C617 C621 1.408 . S
C618 C616 1.363 . S
C618 C619 1.370 . S
C618 C622 1.524 . S
C619 C611 1.503 . S
C619 C618 1.370 . S
C619 C620 1.403 . S
C620 C619 1.403 . S
C620 C621 1.404 . S
C620 C623 1.539 . S
C621 C617 1.408 . S
C621 C620 1.404 . S
C621 H633 0.930 . S
C622 C618 1.524 . S
C622 H634 0.956 . S
C622 H635 0.961 . S
C622 H636 0.961 . S
C623 C620 1.539 . S
C623 H637 0.958 . S
C623 H638 0.961 . S
C623 H639 0.960 . S
H624 C608 0.931 . S
H625 C613 0.929 . S
H626 C614 0.960 . S
H627 C614 0.962 . S
H628 C614 0.960 . S
H629 C615 0.961 . S
H630 C615 0.961 . S
H631 C615 0.961 . S
H632 C616 0.931 . S
H633 C621 0.930 . S
H634 C622 0.956 . S
H635 C622 0.961 . S
H636 C622 0.961 . S
H637 C623 0.958 . S
H638 C623 0.961 . S
H639 C623 0.960 . S
C640 C641 1.391 . S
C640 C642 1.394 . S
C640 H656 0.931 . S
C641 C640 1.391 . S
C641 C645 1.376 . S
C642 C640 1.394 . S
C642 C643 1.369 . S
C642 C646 1.531 . S
C643 C642 1.369 . S
C643 C644 1.410 . S
C643 C651 1.503 . S
C644 C643 1.410 . S
C644 C645 1.392 . S
C644 C647 1.511 . S
C645 C641 1.376 . S
C645 C644 1.392 . S
C645 H657 0.929 . S
C646 C642 1.531 . S
C646 H658 0.960 . S
C646 H659 0.962 . S
C646 H660 0.960 . S
C647 C644 1.511 . S
C647 H661 0.961 . S
C647 H662 0.961 . S
C647 H663 0.961 . S
C648 C649 1.370 . S
C648 C650 1.363 . S
C648 H664 0.931 . S
C649 C648 1.370 . S
C649 C653 1.408 . S
C650 C648 1.363 . S
C650 C651 1.370 . S
C650 C654 1.524 . S
C651 C643 1.503 . S
C651 C650 1.370 . S
C651 C652 1.403 . S
C652 C651 1.403 . S
C652 C653 1.404 . S
C652 C655 1.539 . S
C653 C649 1.408 . S
C653 C652 1.404 . S
C653 H665 0.930 . S
C654 C650 1.524 . S
C654 H666 0.956 . S
C654 H667 0.961 . S
C654 H668 0.961 . S
C655 C652 1.539 . S
C655 H669 0.958 . S
C655 H670 0.961 . S
C655 H671 0.960 . S
H656 C640 0.931 . S
H657 C645 0.929 . S
H658 C646 0.960 . S
H659 C646 0.962 . S
H660 C646 0.960 . S
H661 C647 0.961 . S
H662 C647 0.961 . S
H663 C647 0.961 . S
H664 C648 0.931 . S
H665 C653 0.930 . S
H666 C654 0.956 . S
H667 C654 0.961 . S
H668 C654 0.961 . S
H669 C655 0.958 . S
H670 C655 0.961 . S
H671 C655 0.960 . S
C672 C673 1.391 . S
C672 C674 1.394 . S
C672 H688 0.931 . S
C673 C672 1.391 . S
C673 C677 1.376 . S
C674 C672 1.394 . S
C674 C675 1.369 . S
C674 C678 1.531 . S
C675 C674 1.369 . S
C675 C676 1.410 . S
C675 C683 1.503 . S
C676 C675 1.410 . S
C676 C677 1.392 . S
C676 C679 1.511 . S
C677 C673 1.376 . S
C677 C676 1.392 . S
C677 H689 0.929 . S
C678 C674 1.531 . S
C678 H690 0.960 . S
C678 H691 0.962 . S
C678 H692 0.960 . S
C679 C676 1.511 . S
C679 H693 0.961 . S
C679 H694 0.961 . S
C679 H695 0.961 . S
C680 C681 1.370 . S
C680 C682 1.363 . S
C680 H696 0.931 . S
C681 C680 1.370 . S
C681 C685 1.408 . S
C682 C680 1.363 . S
C682 C683 1.370 . S
C682 C686 1.524 . S
C683 C675 1.503 . S
C683 C682 1.370 . S
C683 C684 1.403 . S
C684 C683 1.403 . S
C684 C685 1.404 . S
C684 C687 1.539 . S
C685 C681 1.408 . S
C685 C684 1.404 . S
C685 H697 0.930 . S
C686 C682 1.524 . S
C686 H698 0.956 . S
C686 H699 0.961 . S
C686 H700 0.961 . S
C687 C684 1.539 . S
C687 H701 0.958 . S
C687 H702 0.961 . S
C687 H703 0.960 . S
H688 C672 0.931 . S
H689 C677 0.929 . S
H690 C678 0.960 . S
H691 C678 0.962 . S
H692 C678 0.960 . S
H693 C679 0.961 . S
H694 C679 0.961 . S
H695 C679 0.961 . S
H696 C680 0.931 . S
H697 C685 0.930 . S
H698 C686 0.956 . S
H699 C686 0.961 . S
H700 C686 0.961 . S
H701 C687 0.958 . S
H702 C687 0.961 . S
H703 C687 0.960 . S
C704 C705 1.391 . S
C704 C706 1.394 . S
C704 H720 0.931 . S
C705 C704 1.391 . S
C705 C709 1.376 . S
C706 C704 1.394 . S
C706 C707 1.369 . S
C706 C710 1.531 . S
C707 C706 1.369 . S
C707 C708 1.410 . S
C707 C715 1.503 . S
C708 C707 1.410 . S
C708 C709 1.392 . S
C708 C711 1.511 . S
C709 C705 1.376 . S
C709 C708 1.392 . S
C709 H721 0.929 . S
C710 C706 1.531 . S
C710 H722 0.960 . S
C710 H723 0.962 . S
C710 H724 0.960 . S
C711 C708 1.511 . S
C711 H725 0.961 . S
C711 H726 0.961 . S
C711 H727 0.961 . S
C712 C713 1.370 . S
C712 C714 1.363 . S
C712 H728 0.931 . S
C713 C712 1.370 . S
C713 C717 1.408 . S
C714 C712 1.363 . S
C714 C715 1.370 . S
C714 C718 1.524 . S
C715 C707 1.503 . S
C715 C714 1.370 . S
C715 C716 1.403 . S
C716 C715 1.403 . S
C716 C717 1.404 . S
C716 C719 1.539 . S
C717 C713 1.408 . S
C717 C716 1.404 . S
C717 H729 0.930 . S
C718 C714 1.524 . S
C718 H730 0.956 . S
C718 H731 0.961 . S
C718 H732 0.961 . S
C719 C716 1.539 . S
C719 H733 0.958 . S
C719 H734 0.961 . S
C719 H735 0.960 . S
H720 C704 0.931 . S
H721 C709 0.929 . S
H722 C710 0.960 . S
H723 C710 0.962 . S
H724 C710 0.960 . S
H725 C711 0.961 . S
H726 C711 0.961 . S
H727 C711 0.961 . S
H728 C712 0.931 . S
H729 C717 0.930 . S
H730 C718 0.956 . S
H731 C718 0.961 . S
H732 C718 0.961 . S
H733 C719 0.958 . S
H734 C719 0.961 . S
H735 C719 0.960 . S
C736 C737 1.391 . S
C736 C738 1.394 . S
C736 H752 0.931 . S
C737 C736 1.391 . S
C737 C741 1.376 . S
C738 C736 1.394 . S
C738 C739 1.369 . S
C738 C742 1.531 . S
C739 C738 1.369 . S
C739 C740 1.410 1_556 S
C739 C747 1.503 1_556 S
C740 C739 1.410 1_554 S
C740 C741 1.392 1_554 S
C740 C743 1.511 . S
C741 C737 1.376 . S
C741 C740 1.392 1_556 S
C741 H753 0.929 1_556 S
C742 C738 1.531 . S
C742 H754 0.960 . S
C742 H755 0.962 . S
C742 H756 0.960 . S
C743 C740 1.511 . S
C743 H757 0.961 . S
C743 H758 0.961 . S
C743 H759 0.961 . S
C744 C745 1.370 . S
C744 C746 1.363 . S
C744 H760 0.931 . S
C745 C744 1.370 . S
C745 C749 1.408 . S
C746 C744 1.363 . S
C746 C747 1.370 . S
C746 C750 1.524 . S
C747 C739 1.503 1_554 S
C747 C746 1.370 . S
C747 C748 1.403 . S
C748 C747 1.403 . S
C748 C749 1.404 . S
C748 C751 1.539 . S
C749 C745 1.408 . S
C749 C748 1.404 . S
C749 H761 0.930 . S
C750 C746 1.524 . S
C750 H762 0.956 1_554 S
C750 H763 0.961 . S
C750 H764 0.961 . S
C751 C748 1.539 . S
C751 H765 0.958 1_554 S
C751 H766 0.961 . S
C751 H767 0.960 . S
H752 C736 0.931 . S
H753 C741 0.929 1_554 S
H754 C742 0.960 . S
H755 C742 0.962 . S
H756 C742 0.960 . S
H757 C743 0.961 . S
H758 C743 0.961 . S
H759 C743 0.961 . S
H760 C744 0.931 . S
H761 C749 0.930 . S
H762 C750 0.956 1_556 S
H763 C750 0.961 . S
H764 C750 0.961 . S
H765 C751 0.958 1_556 S
H766 C751 0.961 . S
H767 C751 0.960 . S
C768 C769 1.391 . S
C768 C770 1.394 . S
C768 H784 0.931 . S
C769 C768 1.391 . S
C769 C773 1.376 . S
C770 C768 1.394 . S
C770 C771 1.369 . S
C770 C774 1.531 . S
C771 C770 1.369 . S
C771 C772 1.410 . S
C771 C779 1.503 . S
C772 C771 1.410 . S
C772 C773 1.392 . S
C772 C775 1.511 . S
C773 C769 1.376 . S
C773 C772 1.392 . S
C773 H785 0.929 . S
C774 C770 1.531 . S
C774 H786 0.960 . S
C774 H787 0.962 . S
C774 H788 0.960 . S
C775 C772 1.511 . S
C775 H789 0.961 . S
C775 H790 0.961 . S
C775 H791 0.961 . S
C776 C777 1.370 . S
C776 C778 1.363 . S
C776 H792 0.931 . S
C777 C776 1.370 . S
C777 C781 1.408 . S
C778 C776 1.363 . S
C778 C779 1.370 . S
C778 C782 1.524 . S
C779 C771 1.503 . S
C779 C778 1.370 . S
C779 C780 1.403 . S
C780 C779 1.403 . S
C780 C781 1.404 . S
C780 C783 1.539 . S
C781 C777 1.408 . S
C781 C780 1.404 . S
C781 H793 0.930 . S
C782 C778 1.524 . S
C782 H794 0.956 . S
C782 H795 0.961 . S
C782 H796 0.961 . S
C783 C780 1.539 . S
C783 H797 0.958 . S
C783 H798 0.961 . S
C783 H799 0.960 . S
H784 C768 0.931 . S
H785 C773 0.929 . S
H786 C774 0.960 . S
H787 C774 0.962 . S
H788 C774 0.960 . S
H789 C775 0.961 . S
H790 C775 0.961 . S
H791 C775 0.961 . S
H792 C776 0.931 . S
H793 C781 0.930 . S
H794 C782 0.956 . S
H795 C782 0.961 . S
H796 C782 0.961 . S
H797 C783 0.958 . S
H798 C783 0.961 . S
H799 C783 0.960 . S
C800 C801 1.391 . S
C800 C802 1.394 . S
C800 H816 0.931 . S
C801 C800 1.391 . S
C801 C805 1.376 . S
C802 C800 1.394 . S
C802 C803 1.369 . S
C802 C806 1.531 1_554 S
C803 C802 1.369 . S
C803 C804 1.410 . S
C803 C811 1.503 1_554 S
C804 C803 1.410 . S
C804 C805 1.392 . S
C804 C807 1.511 . S
C805 C801 1.376 . S
C805 C804 1.392 . S
C805 H817 0.929 . S
C806 C802 1.531 1_556 S
C806 H818 0.960 . S
C806 H819 0.962 . S
C806 H820 0.960 . S
C807 C804 1.511 . S
C807 H821 0.961 . S
C807 H822 0.961 . S
C807 H823 0.961 . S
C808 C809 1.370 . S
C808 C810 1.363 1_556 S
C808 H824 0.931 1_556 S
C809 C808 1.370 . S
C809 C813 1.408 . S
C810 C808 1.363 1_554 S
C810 C811 1.370 1_554 S
C810 C814 1.524 . S
C811 C803 1.503 1_556 S
C811 C810 1.370 1_556 S
C811 C812 1.403 . S
C812 C811 1.403 . S
C812 C813 1.404 . S
C812 C815 1.539 . S
C813 C809 1.408 . S
C813 C812 1.404 . S
C813 H825 0.930 . S
C814 C810 1.524 . S
C814 H826 0.956 . S
C814 H827 0.961 . S
C814 H828 0.961 . S
C815 C812 1.539 . S
C815 H829 0.958 . S
C815 H830 0.961 . S
C815 H831 0.960 . S
H816 C800 0.931 . S
H817 C805 0.929 . S
H818 C806 0.960 . S
H819 C806 0.962 . S
H820 C806 0.960 . S
H821 C807 0.961 . S
H822 C807 0.961 . S
H823 C807 0.961 . S
H824 C808 0.931 1_554 S
H825 C813 0.930 . S
H826 C814 0.956 . S
H827 C814 0.961 . S
H828 C814 0.961 . S
H829 C815 0.958 . S
H830 C815 0.961 . S
H831 C815 0.960 . S
C832 C833 1.391 . S
C832 C834 1.394 . S
C832 H848 0.931 . S
C833 C832 1.391 . S
C833 C837 1.376 . S
C834 C832 1.394 . S
C834 C835 1.369 . S
C834 C838 1.531 . S
C835 C834 1.369 . S
C835 C836 1.410 . S
C835 C843 1.503 . S
C836 C835 1.410 . S
C836 C837 1.392 . S
C836 C839 1.511 . S
C837 C833 1.376 . S
C837 C836 1.392 . S
C837 H849 0.929 . S
C838 C834 1.531 . S
C838 H850 0.960 . S
C838 H851 0.962 . S
C838 H852 0.960 . S
C839 C836 1.511 . S
C839 H853 0.961 . S
C839 H854 0.961 . S
C839 H855 0.961 . S
C840 C841 1.370 . S
C840 C842 1.363 . S
C840 H856 0.931 . S
C841 C840 1.370 . S
C841 C845 1.408 . S
C842 C840 1.363 . S
C842 C843 1.370 . S
C842 C846 1.524 . S
C843 C835 1.503 . S
C843 C842 1.370 . S
C843 C844 1.403 . S
C844 C843 1.403 . S
C844 C845 1.404 . S
C844 C847 1.539 . S
C845 C841 1.408 . S
C845 C844 1.404 . S
C845 H857 0.930 . S
C846 C842 1.524 . S
C846 H858 0.956 . S
C846 H859 0.961 . S
C846 H860 0.961 . S
C847 C844 1.539 . S
C847 H861 0.958 . S
C847 H862 0.961 . S
C847 H863 0.960 . S
H848 C832 0.931 . S
H849 C837 0.929 . S
H850 C838 0.960 . S
H851 C838 0.962 . S
H852 C838 0.960 . S
H853 C839 0.961 . S
H854 C839 0.961 . S
H855 C839 0.961 . S
H856 C840 0.931 . S
H857 C845 0.930 . S
H858 C846 0.956 . S
H859 C846 0.961 . S
H860 C846 0.961 . S
H861 C847 0.958 . S
H862 C847 0.961 . S
H863 C847 0.960 . S
C864 C865 1.391 . S
C864 C866 1.394 . S
C864 H880 0.931 . S
C865 C864 1.391 . S
C865 C869 1.376 . S
C866 C864 1.394 . S
C866 C867 1.369 . S
C866 C870 1.531 . S
C867 C866 1.369 . S
C867 C868 1.410 . S
C867 C875 1.503 1_554 S
C868 C867 1.410 . S
C868 C869 1.392 . S
C868 C871 1.511 . S
C869 C865 1.376 . S
C869 C868 1.392 . S
C869 H881 0.929 . S
C870 C866 1.531 . S
C870 H882 0.960 . S
C870 H883 0.962 1_554 S
C870 H884 0.960 . S
C871 C868 1.511 . S
C871 H885 0.961 . S
C871 H886 0.942 1_554 S
C871 H887 0.961 . S
C872 C873 1.370 . S
C872 C874 1.363 . S
C872 H888 0.931 . S
C873 C872 1.370 . S
C873 C877 1.408 . S
C874 C872 1.363 . S
C874 C875 1.370 . S
C874 C878 1.524 . S
C875 C867 1.503 1_556 S
C875 C874 1.370 . S
C875 C876 1.403 1_556 S
C876 C875 1.403 1_554 S
C876 C877 1.404 1_554 S
C876 C879 1.539 . S
C877 C873 1.408 . S
C877 C876 1.404 1_556 S
C877 H889 0.930 1_556 S
C878 C874 1.524 . S
C878 H890 0.956 . S
C878 H891 0.961 . S
C878 H892 0.961 . S
C879 C876 1.539 . S
C879 H893 0.958 . S
C879 H894 0.961 . S
C879 H895 0.960 . S
H880 C864 0.931 . S
H881 C869 0.929 . S
H882 C870 0.960 . S
H883 C870 0.962 1_556 S
H884 C870 0.960 . S
H885 C871 0.961 . S
H886 C871 0.942 1_556 S
H887 C871 0.961 . S
H888 C872 0.931 . S
H889 C877 0.930 1_554 S
H890 C878 0.956 . S
H891 C878 0.961 . S
H892 C878 0.961 . S
H893 C879 0.958 . S
H894 C879 0.961 . S
H895 C879 0.960 . S
C896 C897 1.391 . S
C896 C898 1.394 . S
C896 H912 0.931 . S
C897 C896 1.391 . S
C897 C901 1.376 . S
C898 C896 1.394 . S
C898 C899 1.369 . S
C898 C902 1.531 . S
C899 C898 1.369 . S
C899 C900 1.410 . S
C899 C907 1.503 . S
C900 C899 1.410 . S
C900 C901 1.392 . S
C900 C903 1.511 . S
C901 C897 1.376 . S
C901 C900 1.392 . S
C901 H913 0.929 . S
C902 C898 1.531 . S
C902 H914 0.960 . S
C902 H915 0.962 . S
C902 H916 0.960 . S
C903 C900 1.511 . S
C903 H917 0.961 . S
C903 H918 0.961 . S
C903 H919 0.961 . S
C904 C905 1.370 . S
C904 C906 1.363 . S
C904 H920 0.931 . S
C905 C904 1.370 . S
C905 C909 1.408 . S
C906 C904 1.363 . S
C906 C907 1.370 . S
C906 C910 1.524 . S
C907 C899 1.503 . S
C907 C906 1.370 . S
C907 C908 1.403 . S
C908 C907 1.403 . S
C908 C909 1.404 . S
C908 C911 1.539 . S
C909 C905 1.408 . S
C909 C908 1.404 . S
C909 H921 0.930 . S
C910 C906 1.524 . S
C910 H922 0.956 . S
C910 H923 0.961 . S
C910 H924 0.961 . S
C911 C908 1.539 . S
C911 H925 0.958 . S
C911 H926 0.961 . S
C911 H927 0.960 . S
H912 C896 0.931 . S
H913 C901 0.929 . S
H914 C902 0.960 . S
H915 C902 0.962 . S
H916 C902 0.960 . S
H917 C903 0.961 . S
H918 C903 0.961 . S
H919 C903 0.961 . S
H920 C904 0.931 . S
H921 C909 0.930 . S
H922 C910 0.956 . S
H923 C910 0.961 . S
H924 C910 0.961 . S
H925 C911 0.958 . S
H926 C911 0.961 . S
H927 C911 0.960 . S
C928 C929 1.391 . S
C928 C930 1.394 . S
C928 H944 0.931 . S
C929 C928 1.391 . S
C929 C933 1.376 . S
C930 C928 1.394 . S
C930 C931 1.369 . S
C930 C934 1.531 . S
C931 C930 1.369 . S
C931 C932 1.410 . S
C931 C939 1.503 1_554 S
C932 C931 1.410 . S
C932 C933 1.392 . S
C932 C935 1.506 1_554 S
C933 C929 1.376 . S
C933 C932 1.392 . S
C933 H945 0.929 . S
C934 C930 1.531 . S
C934 H946 0.960 1_554 S
C934 H947 0.962 . S
C934 H948 0.960 . S
C935 C932 1.506 1_556 S
C935 H949 0.951 1_556 S
C935 H950 0.962 . S
C935 H951 0.975 . S
C936 C937 1.370 . S
C936 C938 1.363 1_556 S
C936 H952 0.931 1_556 S
C937 C936 1.370 . S
C937 C941 1.408 . S
C938 C936 1.363 1_554 S
C938 C939 1.370 1_554 S
C938 C942 1.524 . S
C939 C931 1.503 1_556 S
C939 C938 1.370 1_556 S
C939 C940 1.403 . S
C940 C939 1.403 . S
C940 C941 1.404 . S
C940 C943 1.539 . S
C941 C937 1.408 . S
C941 C940 1.404 . S
C941 H953 0.930 . S
C942 C938 1.524 . S
C942 H954 0.956 . S
C942 H955 0.961 . S
C942 H956 0.961 . S
C943 C940 1.539 . S
C943 H957 0.958 . S
C943 H958 0.961 . S
C943 H959 0.960 . S
H944 C928 0.931 . S
H945 C933 0.929 . S
H946 C934 0.960 1_556 S
H947 C934 0.962 . S
H948 C934 0.960 . S
H949 C935 0.951 1_554 S
H950 C935 0.962 . S
H951 C935 0.975 . S
H952 C936 0.931 1_554 S
H953 C941 0.930 . S
H954 C942 0.956 . S
H955 C942 0.961 . S
H956 C942 0.961 . S
H957 C943 0.958 . S
H958 C943 0.961 . S
H959 C943 0.960 . S
C960 C961 1.391 . S
C960 C962 1.394 . S
C960 H976 0.931 . S
C961 C960 1.391 . S
C961 C965 1.376 . S
C962 C960 1.394 . S
C962 C963 1.369 . S
C962 C966 1.531 . S
C963 C962 1.369 . S
C963 C964 1.410 . S
C963 C971 1.503 . S
C964 C963 1.410 . S
C964 C965 1.392 . S
C964 C967 1.511 . S
C965 C961 1.376 . S
C965 C964 1.392 . S
C965 H977 0.929 . S
C966 C962 1.531 . S
C966 H978 0.960 . S
C966 H979 0.962 . S
C966 H980 0.960 . S
C967 C964 1.511 . S
C967 H981 0.961 . S
C967 H982 0.961 . S
C967 H983 0.961 . S
C968 C969 1.370 . S
C968 C970 1.363 . S
C968 H984 0.931 . S
C969 C968 1.370 . S
C969 C973 1.408 . S
C970 C968 1.363 . S
C970 C971 1.370 . S
C970 C974 1.524 . S
C971 C963 1.503 . S
C971 C970 1.370 . S
C971 C972 1.403 . S
C972 C971 1.403 . S
C972 C973 1.404 . S
C972 C975 1.539 . S
C973 C969 1.408 . S
C973 C972 1.404 . S
C973 H985 0.930 . S
C974 C970 1.524 . S
C974 H986 0.956 . S
C974 H987 0.961 . S
C974 H988 0.961 . S
C975 C972 1.539 . S
C975 H989 0.958 . S
C975 H990 0.961 . S
C975 H991 0.960 . S
H976 C960 0.931 . S
H977 C965 0.929 . S
H978 C966 0.960 . S
H979 C966 0.962 . S
H980 C966 0.960 . S
H981 C967 0.961 . S
H982 C967 0.961 . S
H983 C967 0.961 . S
H984 C968 0.931 . S
H985 C973 0.930 . S
H986 C974 0.956 . S
H987 C974 0.961 . S
H988 C974 0.961 . S
H989 C975 0.958 . S
H990 C975 0.961 . S
H991 C975 0.960 . S
C992 C993 1.391 . S
C992 C994 1.394 . S
C992 H1008 0.931 . S
C993 C992 1.391 . S
C993 C997 1.376 . S
C994 C992 1.394 . S
C994 C995 1.369 . S
C994 C998 1.531 1_556 S
C995 C994 1.369 . S
C995 C996 1.410 . S
C995 C1003 1.503 1_556 S
C996 C995 1.410 . S
C996 C997 1.392 . S
C996 C999 1.511 . S
C997 C993 1.376 . S
C997 C996 1.392 . S
C997 H1009 0.929 . S
C998 C994 1.531 1_554 S
C998 H1010 0.960 . S
C998 H1011 0.962 . S
C998 H1012 0.960 . S
C999 C996 1.511 . S
C999 H1013 0.961 . S
C999 H1014 0.961 . S
C999 H1015 0.961 . S
C1000 C1001 1.370 . S
C1000 C1002 1.363 1_554 S
C1000 H1016 0.931 1_554 S
C1001 C1000 1.370 . S
C1001 C1005 1.408 . S
C1002 C1000 1.363 1_556 S
C1002 C1003 1.370 1_556 S
C1002 C1006 1.524 . S
C1003 C995 1.503 1_554 S
C1003 C1002 1.370 1_554 S
C1003 C1004 1.403 . S
C1004 C1003 1.403 . S
C1004 C1005 1.404 . S
C1004 C1007 1.539 . S
C1005 C1001 1.408 . S
C1005 C1004 1.404 . S
C1005 H1017 0.930 . S
C1006 C1002 1.524 . S
C1006 H1018 0.956 . S
C1006 H1019 0.961 . S
C1006 H1020 0.961 . S
C1007 C1004 1.539 . S
C1007 H1021 0.958 . S
C1007 H1022 0.961 . S
C1007 H1023 0.960 . S
H1008 C992 0.931 . S
H1009 C997 0.929 . S
H1010 C998 0.960 . S
H1011 C998 0.962 . S
H1012 C998 0.960 . S
H1013 C999 0.961 . S
H1014 C999 0.961 . S
H1015 C999 0.961 . S
H1016 C1000 0.931 1_556 S
H1017 C1005 0.930 . S
H1018 C1006 0.956 . S
H1019 C1006 0.961 . S
H1020 C1006 0.961 . S
H1021 C1007 0.958 . S
H1022 C1007 0.961 . S
H1023 C1007 0.960 . S
C1024 C1025 1.391 . S
C1024 C1026 1.394 . S
C1024 H1040 0.931 . S
C1025 C1024 1.391 . S
C1025 C1029 1.376 . S
C1026 C1024 1.394 . S
C1026 C1027 1.369 . S
C1026 C1030 1.531 . S
C1027 C1026 1.369 . S
C1027 C1028 1.410 . S
C1027 C1035 1.503 . S
C1028 C1027 1.410 . S
C1028 C1029 1.392 . S
C1028 C1031 1.511 . S
C1029 C1025 1.376 . S
C1029 C1028 1.392 . S
C1029 H1041 0.929 . S
C1030 C1026 1.531 . S
C1030 H1042 0.960 . S
C1030 H1043 0.962 . S
C1030 H1044 0.960 . S
C1031 C1028 1.511 . S
C1031 H1045 0.961 . S
C1031 H1046 0.961 . S
C1031 H1047 0.961 . S
C1032 C1033 1.370 . S
C1032 C1034 1.363 . S
C1032 H1048 0.931 . S
C1033 C1032 1.370 . S
C1033 C1037 1.408 . S
C1034 C1032 1.363 . S
C1034 C1035 1.370 . S
C1034 C1038 1.524 . S
C1035 C1027 1.503 . S
C1035 C1034 1.370 . S
C1035 C1036 1.403 . S
C1036 C1035 1.403 . S
C1036 C1037 1.404 . S
C1036 C1039 1.539 . S
C1037 C1033 1.408 . S
C1037 C1036 1.404 . S
C1037 H1049 0.930 . S
C1038 C1034 1.524 . S
C1038 H1050 0.956 . S
C1038 H1051 0.961 . S
C1038 H1052 0.961 . S
C1039 C1036 1.539 . S
C1039 H1053 0.958 . S
C1039 H1054 0.961 . S
C1039 H1055 0.960 . S
H1040 C1024 0.931 . S
H1041 C1029 0.929 . S
H1042 C1030 0.960 . S
H1043 C1030 0.962 . S
H1044 C1030 0.960 . S
H1045 C1031 0.961 . S
H1046 C1031 0.961 . S
H1047 C1031 0.961 . S
H1048 C1032 0.931 . S
H1049 C1037 0.930 . S
H1050 C1038 0.956 . S
H1051 C1038 0.961 . S
H1052 C1038 0.961 . S
H1053 C1039 0.958 . S
H1054 C1039 0.961 . S
H1055 C1039 0.960 . S
C1056 C1057 1.391 . S
C1056 C1058 1.394 . S
C1056 H1072 0.931 . S
C1057 C1056 1.391 . S
C1057 C1061 1.376 . S
C1058 C1056 1.394 . S
C1058 C1059 1.369 . S
C1058 C1062 1.531 . S
C1059 C1058 1.369 . S
C1059 C1060 1.410 . S
C1059 C1067 1.503 1_554 S
C1060 C1059 1.410 . S
C1060 C1061 1.392 . S
C1060 C1063 1.511 . S
C1061 C1057 1.376 . S
C1061 C1060 1.392 . S
C1061 H1073 0.929 . S
C1062 C1058 1.531 . S
C1062 H1074 0.960 . S
C1062 H1075 0.962 . S
C1062 H1076 0.960 . S
C1063 C1060 1.511 . S
C1063 H1077 0.954 1_554 S
C1063 H1078 0.961 1_554 S
C1063 H1079 0.961 . S
C1064 C1065 1.370 . S
C1064 C1066 1.363 . S
C1064 H1080 0.931 . S
C1065 C1064 1.370 . S
C1065 C1069 1.408 . S
C1066 C1064 1.363 . S
C1066 C1067 1.370 . S
C1066 C1070 1.524 . S
C1067 C1059 1.503 1_556 S
C1067 C1066 1.370 . S
C1067 C1068 1.403 1_556 S
C1068 C1067 1.403 1_554 S
C1068 C1069 1.404 1_554 S
C1068 C1071 1.539 . S
C1069 C1065 1.408 . S
C1069 C1068 1.404 1_556 S
C1069 H1081 0.915 1_556 S
C1070 C1066 1.524 . S
C1070 H1082 0.956 . S
C1070 H1083 0.961 . S
C1070 H1084 0.961 . S
C1071 C1068 1.539 . S
C1071 H1085 0.958 . S
C1071 H1086 0.961 . S
C1071 H1087 0.960 . S
H1072 C1056 0.931 . S
H1073 C1061 0.929 . S
H1074 C1062 0.960 . S
H1075 C1062 0.962 . S
H1076 C1062 0.960 . S
H1077 C1063 0.954 1_556 S
H1078 C1063 0.961 1_556 S
H1079 C1063 0.961 . S
H1080 C1064 0.931 . S
H1081 C1069 0.915 1_554 S
H1082 C1070 0.956 . S
H1083 C1070 0.961 . S
H1084 C1070 0.961 . S
H1085 C1071 0.958 . S
H1086 C1071 0.961 . S
H1087 C1071 0.960 . S
C1088 C1089 1.391 . S
C1088 C1090 1.394 . S
C1088 H1104 0.931 . S
C1089 C1088 1.391 . S
C1089 C1093 1.376 . S
C1090 C1088 1.394 . S
C1090 C1091 1.369 . S
C1090 C1094 1.531 . S
C1091 C1090 1.369 . S
C1091 C1092 1.410 . S
C1091 C1099 1.503 . S
C1092 C1091 1.410 . S
C1092 C1093 1.392 . S
C1092 C1095 1.511 . S
C1093 C1089 1.376 . S
C1093 C1092 1.392 . S
C1093 H1105 0.929 . S
C1094 C1090 1.531 . S
C1094 H1106 0.960 . S
C1094 H1107 0.962 . S
C1094 H1108 0.960 . S
C1095 C1092 1.511 . S
C1095 H1109 0.961 . S
C1095 H1110 0.961 . S
C1095 H1111 0.961 . S
C1096 C1097 1.370 . S
C1096 C1098 1.363 . S
C1096 H1112 0.931 . S
C1097 C1096 1.370 . S
C1097 C1101 1.408 . S
C1098 C1096 1.363 . S
C1098 C1099 1.370 . S
C1098 C1102 1.524 . S
C1099 C1091 1.503 . S
C1099 C1098 1.370 . S
C1099 C1100 1.403 . S
C1100 C1099 1.403 . S
C1100 C1101 1.404 . S
C1100 C1103 1.539 . S
C1101 C1097 1.408 . S
C1101 C1100 1.404 . S
C1101 H1113 0.930 . S
C1102 C1098 1.524 . S
C1102 H1114 0.956 . S
C1102 H1115 0.961 . S
C1102 H1116 0.961 . S
C1103 C1100 1.539 . S
C1103 H1117 0.958 . S
C1103 H1118 0.961 . S
C1103 H1119 0.960 . S
H1104 C1088 0.931 . S
H1105 C1093 0.929 . S
H1106 C1094 0.960 . S
H1107 C1094 0.962 . S
H1108 C1094 0.960 . S
H1109 C1095 0.961 . S
H1110 C1095 0.961 . S
H1111 C1095 0.961 . S
H1112 C1096 0.931 . S
H1113 C1101 0.930 . S
H1114 C1102 0.956 . S
H1115 C1102 0.961 . S
H1116 C1102 0.961 . S
H1117 C1103 0.958 . S
H1118 C1103 0.961 . S
H1119 C1103 0.960 . S
C1120 C1121 1.391 . S
C1120 C1122 1.385 1_556 S
C1120 H1136 0.931 . S
C1121 C1120 1.391 . S
C1121 C1125 1.376 . S
C1122 C1120 1.385 1_554 S
C1122 C1123 1.367 1_554 S
C1122 C1126 1.542 . S
C1123 C1122 1.367 1_556 S
C1123 C1124 1.410 . S
C1123 C1131 1.503 1_546 S
C1124 C1123 1.410 . S
C1124 C1125 1.392 . S
C1124 C1127 1.511 . S
C1125 C1121 1.376 . S
C1125 C1124 1.392 . S
C1125 H1137 0.929 . S
C1126 C1122 1.542 . S
C1126 H1138 0.960 . S
C1126 H1139 0.962 . S
C1126 H1140 0.960 . S
C1127 C1124 1.511 . S
C1127 H1141 0.961 . S
C1127 H1142 0.961 1_545 S
C1127 H1143 0.961 . S
C1128 C1129 1.370 . S
C1128 C1130 1.363 1_554 S
C1128 H1144 0.931 . S
C1129 C1128 1.370 . S
C1129 C1133 1.408 . S
C1130 C1128 1.363 1_556 S
C1130 C1131 1.370 1_556 S
C1130 C1134 1.524 . S
C1131 C1123 1.503 1_564 S
C1131 C1130 1.370 1_554 S
C1131 C1132 1.403 . S
C1132 C1131 1.403 . S
C1132 C1133 1.404 . S
C1132 C1135 1.539 1_565 S
C1133 C1129 1.408 . S
C1133 C1132 1.404 . S
C1133 H1145 0.930 . S
C1134 C1130 1.524 . S
C1134 H1146 0.956 . S
C1134 H1147 0.961 . S
C1134 H1148 0.961 . S
C1135 C1132 1.539 1_545 S
C1135 H1149 0.958 . S
C1135 H1150 0.970 . S
C1135 H1151 0.960 . S
H1136 C1120 0.931 . S
H1137 C1125 0.929 . S
H1138 C1126 0.960 . S
H1139 C1126 0.962 . S
H1140 C1126 0.960 . S
H1141 C1127 0.961 . S
H1142 C1127 0.961 1_565 S
H1143 C1127 0.961 . S
H1144 C1128 0.931 . S
H1145 C1133 0.930 . S
H1146 C1134 0.956 . S
H1147 C1134 0.961 . S
H1148 C1134 0.961 . S
H1149 C1135 0.958 . S
H1150 C1135 0.970 . S
H1151 C1135 0.960 . S
C1152 C1153 1.391 . S
C1152 C1154 1.394 . S
C1152 H1168 0.931 . S
C1153 C1152 1.391 . S
C1153 C1157 1.376 . S
C1154 C1152 1.394 . S
C1154 C1155 1.369 . S
C1154 C1158 1.531 1_565 S
C1155 C1154 1.369 . S
C1155 C1156 1.410 . S
C1155 C1163 1.503 1_565 S
C1156 C1155 1.410 . S
C1156 C1157 1.392 . S
C1156 C1159 1.511 . S
C1157 C1153 1.376 . S
C1157 C1156 1.392 . S
C1157 H1169 0.929 . S
C1158 C1154 1.531 1_545 S
C1158 H1170 0.960 . S
C1158 H1171 0.962 . S
C1158 H1172 0.960 . S
C1159 C1156 1.511 . S
C1159 H1173 0.961 . S
C1159 H1174 0.961 . S
C1159 H1175 0.961 . S
C1160 C1161 1.370 . S
C1160 C1162 1.363 . S
C1160 H1176 0.931 . S
C1161 C1160 1.370 . S
C1161 C1165 1.408 . S
C1162 C1160 1.363 . S
C1162 C1163 1.370 . S
C1162 C1166 1.524 1_545 S
C1163 C1155 1.503 1_545 S
C1163 C1162 1.370 . S
C1163 C1164 1.403 . S
C1164 C1163 1.403 . S
C1164 C1165 1.404 . S
C1164 C1167 1.539 . S
C1165 C1161 1.408 . S
C1165 C1164 1.404 . S
C1165 H1177 0.930 . S
C1166 C1162 1.524 1_565 S
C1166 H1178 0.956 . S
C1166 H1179 0.961 . S
C1166 H1180 0.965 . S
C1167 C1164 1.539 . S
C1167 H1181 0.958 . S
C1167 H1182 0.961 . S
C1167 H1183 0.960 . S
H1168 C1152 0.931 . S
H1169 C1157 0.929 . S
H1170 C1158 0.960 . S
H1171 C1158 0.962 . S
H1172 C1158 0.960 . S
H1173 C1159 0.961 . S
H1174 C1159 0.961 . S
H1175 C1159 0.961 . S
H1176 C1160 0.931 . S
H1177 C1165 0.930 . S
H1178 C1166 0.956 . S
H1179 C1166 0.961 . S
H1180 C1166 0.965 . S
H1181 C1167 0.958 . S
H1182 C1167 0.961 . S
H1183 C1167 0.960 . S
C1184 C1185 1.391 . S
C1184 C1186 1.394 . S
C1184 H1200 0.931 . S
C1185 C1184 1.391 . S
C1185 C1189 1.376 . S
C1186 C1184 1.394 . S
C1186 C1187 1.369 . S
C1186 C1190 1.531 . S
C1187 C1186 1.369 . S
C1187 C1188 1.410 . S
C1187 C1195 1.503 1_564 S
C1188 C1187 1.410 . S
C1188 C1189 1.392 . S
C1188 C1191 1.511 . S
C1189 C1185 1.376 . S
C1189 C1188 1.392 . S
C1189 H1201 0.929 . S
C1190 C1186 1.531 . S
C1190 H1202 0.960 1_565 S
C1190 H1203 0.936 1_554 S
C1190 H1204 0.960 . S
C1191 C1188 1.511 . S
C1191 H1205 0.961 . S
C1191 H1206 0.963 1_554 S
C1191 H1207 0.948 1_565 S
C1192 C1193 1.370 . S
C1192 C1194 1.363 . S
C1192 H1208 0.931 . S
C1193 C1192 1.370 . S
C1193 C1197 1.408 . S
C1194 C1192 1.363 . S
C1194 C1195 1.370 . S
C1194 C1198 1.524 1_545 S
C1195 C1187 1.503 1_546 S
C1195 C1194 1.370 . S
C1195 C1196 1.403 1_556 S
C1196 C1195 1.403 1_554 S
C1196 C1197 1.404 1_554 S
C1196 C1199 1.539 . S
C1197 C1193 1.408 . S
C1197 C1196 1.404 1_556 S
C1197 H1209 0.930 1_556 S
C1198 C1194 1.524 1_565 S
C1198 H1210 0.956 . S
C1198 H1211 0.961 . S
C1198 H1212 0.961 . S
C1199 C1196 1.539 . S
C1199 H1213 0.958 . S
C1199 H1214 0.961 . S
C1199 H1215 0.960 . S
H1200 C1184 0.931 . S
H1201 C1189 0.929 . S
H1202 C1190 0.960 1_545 S
H1203 C1190 0.936 1_556 S
H1204 C1190 0.960 . S
H1205 C1191 0.961 . S
H1206 C1191 0.963 1_556 S
H1207 C1191 0.948 1_545 S
H1208 C1192 0.931 . S
H1209 C1197 0.930 1_554 S
H1210 C1198 0.956 . S
H1211 C1198 0.961 . S
H1212 C1198 0.961 . S
H1213 C1199 0.958 . S
H1214 C1199 0.961 . S
H1215 C1199 0.960 . S
C1216 C1217 1.391 . S
C1216 C1218 1.394 . S
C1216 H1232 0.931 . S
C1217 C1216 1.391 . S
C1217 C1221 1.376 . S
C1218 C1216 1.394 . S
C1218 C1219 1.369 . S
C1218 C1222 1.531 . S
C1219 C1218 1.369 . S
C1219 C1220 1.410 . S
C1219 C1227 1.503 1_545 S
C1220 C1219 1.410 . S
C1220 C1221 1.392 . S
C1220 C1223 1.511 1_545 S
C1221 C1217 1.376 . S
C1221 C1220 1.392 . S
C1221 H1233 0.929 . S
C1222 C1218 1.531 . S
C1222 H1234 0.960 . S
C1222 H1235 0.962 . S
C1222 H1236 0.960 . S
C1223 C1220 1.511 1_565 S
C1223 H1237 0.961 . S
C1223 H1238 0.961 . S
C1223 H1239 0.956 1_565 S
C1224 C1225 1.370 . S
C1224 C1226 1.363 . S
C1224 H1240 0.931 . S
C1225 C1224 1.370 . S
C1225 C1229 1.408 . S
C1226 C1224 1.363 . S
C1226 C1227 1.370 . S
C1226 C1230 1.524 . S
C1227 C1219 1.503 1_565 S
C1227 C1226 1.370 . S
C1227 C1228 1.403 . S
C1228 C1227 1.403 . S
C1228 C1229 1.404 . S
C1228 C1231 1.539 1_565 S
C1229 C1225 1.408 . S
C1229 C1228 1.404 . S
C1229 H1241 0.930 . S
C1230 C1226 1.524 . S
C1230 H1242 0.956 . S
C1230 H1243 0.961 . S
C1230 H1244 0.961 . S
C1231 C1228 1.539 1_545 S
C1231 H1245 0.958 . S
C1231 H1246 0.961 1_545 S
C1231 H1247 0.960 . S
H1232 C1216 0.931 . S
H1233 C1221 0.929 . S
H1234 C1222 0.960 . S
H1235 C1222 0.962 . S
H1236 C1222 0.960 . S
H1237 C1223 0.961 . S
H1238 C1223 0.961 . S
H1239 C1223 0.956 1_545 S
H1240 C1224 0.931 . S
H1241 C1229 0.930 . S
H1242 C1230 0.956 . S
H1243 C1230 0.961 . S
H1244 C1230 0.961 . S
H1245 C1231 0.958 . S
H1246 C1231 0.961 1_565 S
H1247 C1231 0.960 . S
C225 C8 1.406 . S
C233 C92 1.425 . S
C257 C22 1.396 . S
C265 C106 1.403 . S
C289 C64 1.397 . S
C297 C36 1.428 . S
C321 C78 1.396 . S
C329 C50 1.407 . S
C353 C204 1.380 . S
C361 C120 1.412 . S
C385 C218 1.391 . S
C393 C134 1.408 . S
C417 C148 1.442 . S
C425 C176 1.429 . S
C449 C162 1.446 . S
C457 C190 1.427 . S
C481 C13 1.306 . S
C489 C77 1.408 . S
C513 C27 1.355 . S
C521 C63 1.415 . S
C545 C41 1.352 . S
C553 C105 1.414 . S
C577 C91 1.401 . S
C585 C55 1.311 . S
C609 C189 1.419 . S
C617 C125 1.328 . S
C641 C175 1.406 . S
C649 C139 1.316 . S
C673 C153 1.263 . S
C681 C217 1.400 . S
C705 C203 1.405 . S
C713 C167 1.307 . S
C737 C179 1.362 . S
C745 C11 1.359 . S
C769 C25 1.363 . S
C777 C193 1.364 . S
C801 C207 1.363 . S
C809 C39 1.361 . S
C833 C221 1.351 . S
C841 C53 1.353 . S
C865 C123 1.366 . S
C873 C67 1.364 . S
C897 C137 1.343 . S
C905 C81 1.357 . S
C929 C95 1.365 . S
C937 C151 1.363 . S
C961 C109 1.350 . S
C969 C165 1.355 . S
C993 C35 1.501 . S
C1001 C7 1.491 . S
C1025 C21 1.506 . S
C1033 C49 1.491 . S
C1057 C97 1.197 . S
C1065 C69 1.256 . S
C1089 C83 1.193 . S
C1097 C111 1.252 . S
C1121 C147 1.500 . S
C1129 C119 1.490 . S
C1153 C161 1.492 . S
C1161 C133 1.503 . S
C1185 C209 1.200 . S
C1193 C181 1.259 . S
C1217 C223 1.294 . S
C1225 C195 1.247 . S
