# Generated by pormake.
# Topology sml, (6)-cn, num edge types: 1
# Building blocks:
#     Node 0, Type 0, BuildingBlock: CUWYAW_clean_sbu_0, # of connection points: 6
#     Node 1, Type 0, BuildingBlock: CUWYAW_clean_sbu_0, # of connection points: 6
#     Node 2, Type 0, BuildingBlock: CUWYAW_clean_sbu_0, # of connection points: 6
#     Node 3, Type 0, BuildingBlock: CUWYAW_clean_sbu_0, # of connection points: 6
#     Node 4, Type 0, BuildingBlock: CUWYAW_clean_sbu_0, # of connection points: 6
#     Node 5, Type 0, BuildingBlock: CUWYAW_clean_sbu_0, # of connection points: 6
#     Edge 6, Type (0, 0), BuildingBlock: TEMPAE_clean_linker_10, # of connection points: 2
#     Edge 7, Type (0, 0), BuildingBlock: TEMPAE_clean_linker_10, # of connection points: 2
#     Edge 8, Type (0, 0), BuildingBlock: TEMPAE_clean_linker_10, # of connection points: 2
#     Edge 9, Type (0, 0), BuildingBlock: TEMPAE_clean_linker_10, # of connection points: 2
#     Edge 10, Type (0, 0), BuildingBlock: TEMPAE_clean_linker_10, # of connection points: 2
#     Edge 11, Type (0, 0), BuildingBlock: TEMPAE_clean_linker_10, # of connection points: 2
#     Edge 12, Type (0, 0), BuildingBlock: TEMPAE_clean_linker_10, # of connection points: 2
#     Edge 13, Type (0, 0), BuildingBlock: TEMPAE_clean_linker_10, # of connection points: 2
#     Edge 14, Type (0, 0), BuildingBlock: TEMPAE_clean_linker_10, # of connection points: 2
#     Edge 15, Type (0, 0), BuildingBlock: TEMPAE_clean_linker_10, # of connection points: 2
#     Edge 16, Type (0, 0), BuildingBlock: TEMPAE_clean_linker_10, # of connection points: 2
#     Edge 17, Type (0, 0), BuildingBlock: TEMPAE_clean_linker_10, # of connection points: 2
#     Edge 18, Type (0, 0), BuildingBlock: TEMPAE_clean_linker_10, # of connection points: 2
#     Edge 19, Type (0, 0), BuildingBlock: TEMPAE_clean_linker_10, # of connection points: 2
#     Edge 20, Type (0, 0), BuildingBlock: TEMPAE_clean_linker_10, # of connection points: 2
#     Edge 21, Type (0, 0), BuildingBlock: TEMPAE_clean_linker_10, # of connection points: 2
#     Edge 22, Type (0, 0), BuildingBlock: TEMPAE_clean_linker_10, # of connection points: 2
#     Edge 23, Type (0, 0), BuildingBlock: TEMPAE_clean_linker_10, # of connection points: 2
# Relax obj value: 0.233
# Max RMSD: 0.248
# Mean RMSD: 0.248
data_MOF--net-sml--node1-CUWYAW_clean_sbu_0--edge1-TEMPAE_clean_linker_10
_symmetry_space_group_name_H-M    P1
_symmetry_Int_Tables_number       1
_symmetry_cell_setting            triclinic
loop_
_symmetry_equiv_pos_as_xyz
'x, y, z'
_cell_length_a     32.888008
_cell_length_b     32.888239
_cell_length_c     25.374872
_cell_angle_alpha  90.011735
_cell_angle_beta   89.966975
_cell_angle_gamma 120.00195
loop_
_atom_site_label
_atom_site_type_symbol
_atom_site_fract_x
_atom_site_fract_y
_atom_site_fract_z
_atom_type_partial_charge
C0 C 0.22378 0.37216 0.14938 0.0
Eu1 Eu 0.21734 0.40427 0.05752 0.0
C2 C 0.21795 0.37919 0.20581 0.0
C3 C 0.24619 0.37337 0.2429 0.0
C4 C 0.24252 0.38075 0.29656 0.0
C5 C 0.21039 0.39412 0.31453 0.0
C6 C 0.18203 0.39999 0.27711 0.0
C7 C 0.18579 0.39262 0.22323 0.0
C8 C 0.28882 0.46737 0.9968 0.0
C9 C 0.19776 0.49206 0.07307 0.0
C10 C 0.18255 0.4764 0.8705 0.0
Eu11 Eu 0.18948 0.44482 0.96252 0.0
C12 C 0.18733 0.4678 0.81419 0.0
C13 C 0.15573 0.46855 0.77768 0.0
C14 C 0.15887 0.4602 0.72419 0.0
C15 C 0.19381 0.45093 0.70582 0.0
C16 C 0.22571 0.45039 0.74252 0.0
C17 C 0.22241 0.45858 0.79623 0.0
C18 C 0.11809 0.38406 0.02451 0.0
C19 C 0.21406 0.35981 0.9462 0.0
O20 O 0.18589 0.35203 0.12011 0.0
O21 O 0.25927 0.40715 0.12547 0.0
O22 O 0.28875 0.43169 0.01884 0.0
O23 O 0.25308 0.46937 0.01038 0.0
O24 O 0.19634 0.45439 0.09364 0.0
O25 O 0.20241 0.50081 0.0219 0.0
O26 O 0.22084 0.496 0.89902 0.0
O27 O 0.14675 0.4428 0.8956 0.0
O28 O 0.11957 0.42027 1.00205 0.0
O29 O 0.15274 0.3799 0.0107 0.0
O30 O 0.21038 0.39499 0.92614 0.0
O31 O 0.21175 0.35158 0.99744 0.0
H32 H 0.27148 0.3634 0.23027 0.0
H33 H 0.2655 0.37669 0.32392 0.0
H34 H 0.1566 0.40984 0.28948 0.0
H35 H 0.16369 0.3975 0.19527 0.0
H36 H 0.12849 0.47568 0.7906 0.0
H37 H 0.13417 0.46155 0.69706 0.0
H38 H 0.25277 0.44294 0.72984 0.0
H39 H 0.24712 0.45754 0.82365 0.0
C40 C 0.84683 0.2121 0.47992 0.0
Eu41 Eu 0.80912 0.20762 0.38815 0.0
C42 C 0.83414 0.20773 0.53627 0.0
C43 C 0.86778 0.23808 0.57252 0.0
C44 C 0.85703 0.23525 0.62616 0.0
C45 C 0.81228 0.20183 0.64486 0.0
C46 C 0.77841 0.17151 0.60828 0.0
C47 C 0.78922 0.17443 0.55445 0.0
C48 C 0.81559 0.27955 0.33031 0.0
C49 C 0.70058 0.18627 0.40215 0.0
C50 C 0.70425 0.17358 0.20017 0.0
Eu51 Eu 0.74269 0.1801 0.29199 0.0
C52 C 0.71737 0.17865 0.14389 0.0
C53 C 0.68538 0.14633 0.10766 0.0
C54 C 0.69673 0.1496 0.05417 0.0
C55 C 0.74038 0.18542 0.03562 0.0
C56 C 0.77242 0.21805 0.07202 0.0
C57 C 0.7611 0.21461 0.12574 0.0
C58 C 0.73352 0.10821 0.3518 0.0
C59 C 0.85359 0.20895 0.27737 0.0
O60 O 0.82652 0.1739 0.4512 0.0
O61 O 0.85046 0.24877 0.45543 0.0
O62 O 0.85167 0.28042 0.35231 0.0
O63 O 0.77838 0.24256 0.34225 0.0
O64 O 0.73783 0.1873 0.42365 0.0
O65 O 0.69663 0.18925 0.35061 0.0
O66 O 0.72284 0.21176 0.22893 0.0
O67 O 0.70243 0.13775 0.22475 0.0
O68 O 0.6985 0.10905 0.32933 0.0
O69 O 0.77197 0.14393 0.33925 0.0
O70 O 0.81471 0.20462 0.2565 0.0
O71 O 0.85807 0.20489 0.32854 0.0
H72 H 0.90251 0.26422 0.55927 0.0
H73 H 0.8837 0.25971 0.65293 0.0
H74 H 0.74374 0.14509 0.6213 0.0
H75 H 0.76258 0.15068 0.52715 0.0
H76 H 0.65146 0.11839 0.12081 0.0
H77 H 0.67103 0.1243 0.02716 0.0
H78 H 0.8065 0.24579 0.05909 0.0
H79 H 0.78656 0.23985 0.153 0.0
C80 C 0.62645 0.84134 0.80592 0.0
Eu81 Eu 0.59835 0.80168 0.71388 0.0
C82 C 0.61974 0.82817 0.8622 0.0
C83 C 0.61982 0.85993 0.89907 0.0
C84 C 0.6131 0.84858 0.95264 0.0
C85 C 0.60614 0.80509 0.97069 0.0
C86 C 0.60582 0.77308 0.93348 0.0
C87 C 0.6126 0.78453 0.87971 0.0
C88 C 0.53528 0.80581 0.64926 0.0
C89 C 0.51537 0.69149 0.72839 0.0
C90 C 0.53612 0.6933 0.52627 0.0
Eu91 Eu 0.56427 0.733 0.61829 0.0
C92 C 0.54299 0.7066 0.46998 0.0
C93 C 0.54663 0.67654 0.43353 0.0
C94 C 0.5536 0.6881 0.38001 0.0
C95 C 0.55702 0.73005 0.3616 0.0
C96 C 0.55312 0.76014 0.39824 0.0
C97 C 0.54635 0.74862 0.45199 0.0
C98 C 0.62562 0.72695 0.68362 0.0
C99 C 0.64532 0.84462 0.60413 0.0
O100 O 0.65004 0.82704 0.77723 0.0
O101 O 0.58997 0.83802 0.78128 0.0
O102 O 0.56877 0.84249 0.67248 0.0
O103 O 0.535 0.76912 0.66379 0.0
O104 O 0.55019 0.73004 0.74953 0.0
O105 O 0.50894 0.68619 0.67678 0.0
O106 O 0.51258 0.70763 0.55496 0.0
O107 O 0.57243 0.69632 0.55102 0.0
O108 O 0.59197 0.69105 0.65949 0.0
O109 O 0.6273 0.76447 0.66928 0.0
O110 O 0.61194 0.80514 0.58281 0.0
O111 O 0.65184 0.85007 0.65561 0.0
H112 H 0.62494 0.89363 0.88634 0.0
H113 H 0.61275 0.87375 0.97991 0.0
H114 H 0.60095 0.73944 0.94598 0.0
H115 H 0.61233 0.75937 0.85191 0.0
H116 H 0.54405 0.64395 0.44653 0.0
H117 H 0.55578 0.66383 0.35288 0.0
H118 H 0.55603 0.79292 0.38547 0.0
H119 H 0.54394 0.77259 0.47942 0.0
C120 C 0.76543 0.62233 0.16208 0.0
Eu121 Eu 0.77945 0.59633 0.06991 0.0
C122 C 0.7725 0.61627 0.2183 0.0
C123 C 0.74025 0.61511 0.25523 0.0
C124 C 0.74511 0.60836 0.30871 0.0
C125 C 0.78241 0.60258 0.32653 0.0
C126 C 0.81506 0.60416 0.28938 0.0
C127 C 0.81007 0.61082 0.23567 0.0
C128 C 0.71362 0.53463 1.00321 0.0
C129 C 0.80818 0.51418 0.08237 0.0
C130 C 0.82965 0.53821 0.88178 0.0
Eu131 Eu 0.81643 0.56493 0.97389 0.0
C132 C 0.82242 0.54435 0.82566 0.0
C133 C 0.85174 0.54099 0.78799 0.0
C134 C 0.84606 0.54678 0.73445 0.0
C135 C 0.81079 0.55603 0.71731 0.0
C136 C 0.78149 0.55965 0.75534 0.0
C137 C 0.78724 0.55384 0.80907 0.0
C138 C 0.88235 0.6256 0.04119 0.0
C139 C 0.78516 0.64511 0.96056 0.0
O140 O 0.80296 0.64774 0.13349 0.0
O141 O 0.7338 0.58486 0.13737 0.0
O142 O 0.70976 0.56732 0.02741 0.0
O143 O 0.74999 0.53428 0.01785 0.0
O144 O 0.80363 0.54817 0.10465 0.0
O145 O 0.8077 0.50895 0.03069 0.0
O146 O 0.79202 0.51344 0.91044 0.0
O147 O 0.86182 0.57541 0.90641 0.0
O148 O 0.8857 0.59292 0.01621 0.0
O149 O 0.84634 0.62683 0.02663 0.0
O150 O 0.79212 0.61244 0.93898 0.0
O151 O 0.78437 0.65037 0.01216 0.0
H152 H 0.71109 0.61933 0.24263 0.0
H153 H 0.71978 0.60808 0.33623 0.0
H154 H 0.84396 0.59944 0.30169 0.0
H155 H 0.83531 0.61139 0.20776 0.0
H156 H 0.87927 0.53399 0.80004 0.0
H157 H 0.86979 0.54459 0.70649 0.0
H158 H 0.75374 0.56638 0.74354 0.0
H159 H 0.76422 0.55667 0.83757 0.0
C160 C 0.13661 0.75684 0.49852 0.0
Eu161 Eu 0.1813 0.77159 0.40949 0.0
C162 C 0.14852 0.76088 0.55533 0.0
C163 C 0.1711 0.73808 0.57722 0.0
C164 C 0.18129 0.74175 0.63116 0.0
C165 C 0.16954 0.76861 0.66434 0.0
C166 C 0.1475 0.79185 0.64222 0.0
C167 C 0.13696 0.78786 0.58835 0.0
C168 C 0.18337 0.70875 0.34238 0.0
C169 C 0.28932 0.79966 0.41222 0.0
C170 C 0.28286 0.8241 0.21889 0.0
Eu171 Eu 0.23816 0.81205 0.3075 0.0
C172 C 0.26997 0.81498 0.16271 0.0
C173 C 0.30289 0.84231 0.12419 0.0
C174 C 0.2911 0.83491 0.07072 0.0
C175 C 0.24604 0.79988 0.05459 0.0
C176 C 0.21311 0.77236 0.09351 0.0
C177 C 0.22493 0.77992 0.14706 0.0
C178 C 0.23691 0.87602 0.37379 0.0
C179 C 0.13 0.78427 0.30533 0.0
O180 O 0.15332 0.79625 0.47213 0.0
O181 O 0.13859 0.72377 0.4718 0.0
O182 O 0.1847 0.7051 0.39324 0.0
O183 O 0.17922 0.74339 0.33017 0.0
O184 O 0.25295 0.79349 0.44046 0.0
O185 O 0.28994 0.80335 0.36011 0.0
O186 O 0.26914 0.78716 0.24905 0.0
O187 O 0.27729 0.85689 0.24117 0.0
O188 O 0.23804 0.88005 0.32282 0.0
O189 O 0.24011 0.84085 0.38667 0.0
O190 O 0.16662 0.79118 0.27703 0.0
O191 O 0.12883 0.77926 0.35729 0.0
H192 H 0.18091 0.71736 0.55276 0.0
H193 H 0.19885 0.72395 0.64684 0.0
H194 H 0.13768 0.81251 0.66677 0.0
H195 H 0.11956 0.80576 0.57247 0.0
H196 H 0.33771 0.86972 0.13551 0.0
H197 H 0.3171 0.85728 0.04203 0.0
H198 H 0.17829 0.74475 0.0826 0.0
H199 H 0.19888 0.75849 0.17621 0.0
C200 C 0.37258 0.16575 0.80747 0.0
Eu201 Eu 0.40644 0.20325 0.71565 0.0
C202 C 0.3818 0.1785 0.86385 0.0
C203 C 0.3801 0.14527 0.89971 0.0
C204 C 0.38885 0.15609 0.95328 0.0
C205 C 0.39946 0.2005 0.97239 0.0
C206 C 0.40131 0.23395 0.93625 0.0
C207 C 0.39255 0.22306 0.8825 0.0
C208 C 0.47191 0.19586 0.65874 0.0
C209 C 0.49325 0.31186 0.73099 0.0
C210 C 0.48054 0.30917 0.52812 0.0
Eu211 Eu 0.44784 0.2706 0.61983 0.0
C212 C 0.47383 0.2964 0.47163 0.0
C213 C 0.47216 0.32775 0.43546 0.0
C214 C 0.46478 0.31662 0.38187 0.0
C215 C 0.45893 0.27378 0.36303 0.0
C216 C 0.46123 0.24252 0.39931 0.0
C217 C 0.46843 0.25364 0.45317 0.0
C218 C 0.38359 0.27895 0.67813 0.0
C219 C 0.36519 0.16046 0.6045 0.0
O220 O 0.3558 0.18723 0.77901 0.0
O221 O 0.40438 0.16042 0.78243 0.0
O222 O 0.43607 0.1601 0.6804 0.0
O223 O 0.47284 0.23348 0.67062 0.0
O224 O 0.45664 0.2743 0.75143 0.0
O225 O 0.50166 0.31646 0.67972 0.0
O226 O 0.50047 0.29144 0.55769 0.0
O227 O 0.44557 0.30991 0.55177 0.0
O228 O 0.41982 0.31429 0.65654 0.0
O229 O 0.38157 0.24092 0.66548 0.0
O230 O 0.40186 0.19824 0.58462 0.0
O231 O 0.35413 0.15685 0.65501 0.0
H232 H 0.37211 0.11079 0.88618 0.0
H233 H 0.38784 0.12973 0.97969 0.0
H234 H 0.40888 0.26832 0.9496 0.0
H235 H 0.3941 0.24941 0.85564 0.0
H236 H 0.47641 0.36097 0.44877 0.0
H237 H 0.464 0.34183 0.35505 0.0
H238 H 0.45655 0.2091 0.38624 0.0
H239 H 0.46942 0.22871 0.48032 0.0
C240 C 0.37035 0.3276 0.74312 0.0
C241 C 0.35458 0.28389 0.71914 0.0
C242 C 0.34377 0.33351 0.78235 0.0
C243 C 0.30002 0.29484 0.79753 0.0
C244 C 0.28409 0.25042 0.77378 0.0
C245 C 0.31171 0.24543 0.73482 0.0
C246 C 0.36229 0.38138 0.80706 0.0
C247 C 0.23754 0.20852 0.78876 0.0
C248 C 0.25421 0.31371 0.92718 0.0
C249 C 0.22754 0.33354 0.90959 0.0
C250 C 0.27591 0.29811 0.89104 0.0
C251 C 0.27031 0.30214 0.83626 0.0
C252 C 0.24052 0.31886 0.81854 0.0
C253 C 0.21966 0.33448 0.8554 0.0
C254 C 0.3077 0.28079 0.91142 0.0
C255 C 0.23335 0.32351 0.76053 0.0
H256 H 0.40374 0.3573 0.73138 0.0
H257 H 0.2995 0.21164 0.71612 0.0
H258 H 0.33859 0.3953 0.79765 0.0
H259 H 0.36317 0.37874 0.85058 0.0
H260 H 0.39817 0.40703 0.79305 0.0
H261 H 0.2313 0.17593 0.76854 0.0
H262 H 0.23593 0.20275 0.83196 0.0
H263 H 0.20868 0.21529 0.77841 0.0
H264 H 0.26073 0.3132 0.96898 0.0
H265 H 0.19881 0.34949 0.84155 0.0
H266 H 0.34484 0.30776 0.90386 0.0
H267 H 0.30094 0.24837 0.89051 0.0
H268 H 0.30323 0.27355 0.95443 0.0
H269 H 0.26618 0.35243 0.74342 0.0
H270 H 0.20462 0.33134 0.75337 0.0
H271 H 0.22516 0.29083 0.73923 0.0
C272 C 0.05634 0.37252 0.08886 0.0
C273 C 0.08314 0.35537 0.06489 0.0
C274 C 0.02168 0.34566 0.12607 0.0
C275 C 0.01304 0.30011 0.13894 0.0
C276 C 0.04076 0.28298 0.11569 0.0
C277 C 0.07583 0.31106 0.07909 0.0
C278 C 0.99363 0.36572 0.15073 0.0
C279 C 0.03241 0.23456 0.12828 0.0
C280 C 0.94059 0.24874 0.26314 0.0
C281 C 0.89492 0.22481 0.24245 0.0
C282 C 0.97986 0.27157 0.22977 0.0
C283 C 0.97318 0.2699 0.1745 0.0
C284 C 0.92738 0.24319 0.15339 0.0
C285 C 0.88884 0.22119 0.1876 0.0
C286 C 0.02809 0.30011 0.25381 0.0
C287 C 0.91872 0.24014 0.09469 0.0
H288 H 0.06241 0.40709 0.07845 0.0
H289 H 0.09667 0.29787 0.06058 0.0
H290 H 0.95633 0.34472 0.13848 0.0
H291 H 0.99457 0.36376 0.19432 0.0
H292 H 0.00697 0.40288 0.13926 0.0
H293 H 0.05883 0.2276 0.10944 0.0
H294 H 0.03334 0.2301 0.17151 0.0
H295 H 0.99697 0.20779 0.11443 0.0
H296 H 0.9456 0.25199 0.30547 0.0
H297 H 0.85368 0.20251 0.17127 0.0
H298 H 0.04058 0.33805 0.24846 0.0
H299 H 0.05365 0.29267 0.23375 0.0
H300 H 0.02813 0.29306 0.29662 0.0
H301 H 0.9263 0.2749 0.07959 0.0
H302 H 0.88186 0.21393 0.08449 0.0
H303 H 0.94255 0.23065 0.07401 0.0
C304 C 0.68332 0.04346 0.41289 0.0
C305 C 0.72772 0.07256 0.39091 0.0
C306 C 0.67605 0.00857 0.44943 0.0
C307 C 0.71406 0.00215 0.46381 0.0
C308 C 0.75921 0.03182 0.4422 0.0
C309 C 0.76559 0.067 0.40609 0.0
C310 C 0.62748 0.9782 0.47218 0.0
C311 C 0.8004 0.02572 0.45634 0.0
C312 C 0.69174 0.93143 0.58924 0.0
C313 C 0.67154 0.88565 0.56909 0.0
C314 C 0.7085 0.97031 0.55534 0.0
C315 C 0.70546 0.96315 0.50012 0.0
C316 C 0.68832 0.91735 0.47973 0.0
C317 C 0.67129 0.87913 0.51445 0.0
C318 C 0.72602 0.01853 0.57861 0.0
C319 C 0.68497 0.90825 0.42111 0.0
H320 H 0.65406 0.04804 0.40158 0.0
H321 H 0.79993 0.08951 0.38898 0.0
H322 H 0.61367 0.94108 0.46045 0.0
H323 H 0.62895 0.97954 0.51587 0.0
H324 H 0.60231 0.98925 0.4588 0.0
H325 H 0.83358 0.05288 0.43782 0.0
H326 H 0.80521 0.02738 0.4997 0.0
H327 H 0.79343 0.99058 0.44336 0.0
H328 H 0.69186 0.93677 0.63141 0.0
H329 H 0.65606 0.84389 0.49859 0.0
H330 H 0.69961 0.02956 0.57173 0.0
H331 H 0.75906 0.0448 0.55921 0.0
H332 H 0.73225 0.01921 0.62171 0.0
H333 H 0.65685 0.91355 0.40422 0.0
H334 H 0.67677 0.8719 0.41181 0.0
H335 H 0.71834 0.93335 0.40135 0.0
C336 C 0.69266 0.76188 0.74717 0.0
C337 C 0.652 0.72272 0.72805 0.0
C338 C 0.71828 0.75729 0.78876 0.0
C339 C 0.70263 0.71252 0.81139 0.0
C340 C 0.66072 0.6732 0.79314 0.0
C341 C 0.63605 0.67879 0.75152 0.0
C342 C 0.76279 0.79991 0.80726 0.0
C343 C 0.64255 0.62488 0.81655 0.0
C344 C 0.78331 0.67454 0.871 0.0
C345 C 0.77227 0.6722 0.9247 0.0
C346 C 0.76342 0.69095 0.83397 0.0
C347 C 0.73157 0.7053 0.85107 0.0
C348 C 0.72296 0.70639 0.90563 0.0
C349 C 0.74361 0.68989 0.94198 0.0
C350 C 0.77369 0.68934 0.77619 0.0
C351 C 0.68909 0.72139 0.92524 0.0
H352 H 0.70498 0.79584 0.72887 0.0
H353 H 0.60423 0.64856 0.73717 0.0
H354 H 0.7625 0.80315 0.85075 0.0
H355 H 0.79343 0.79596 0.79695 0.0
H356 H 0.7677 0.83283 0.78915 0.0
H357 H 0.60771 0.59876 0.80042 0.0
H358 H 0.66766 0.61242 0.80834 0.0
H359 H 0.6395 0.62616 0.85999 0.0
H360 H 0.80585 0.66135 0.85747 0.0
H361 H 0.73481 0.688 0.98342 0.0
H362 H 0.78181 0.72266 0.75644 0.0
H363 H 0.74221 0.6606 0.75668 0.0
H364 H 0.80353 0.68304 0.76996 0.0
H365 H 0.69544 0.7541 0.90536 0.0
H366 H 0.69171 0.72717 0.96854 0.0
H367 H 0.65264 0.69376 0.91574 0.0
C368 C 0.09142 0.78928 0.22383 0.0
C369 C 0.08709 0.77372 0.27603 0.0
C370 C 0.05295 0.76966 0.18966 0.0
C371 C 0.009 0.73373 0.20832 0.0
C372 C 0.00315 0.72165 0.26249 0.0
C373 C 0.0425 0.74186 0.29594 0.0
C374 C 0.06074 0.78386 0.13229 0.0
C375 C 0.95648 0.68422 0.284 0.0
C376 C 0.91026 0.68992 0.1081 0.0
C377 C 0.91275 0.6523 0.08566 0.0
C378 C 0.93954 0.71538 0.15038 0.0
C379 C 0.9727 0.70348 0.16943 0.0
C380 C 0.97461 0.66489 0.14738 0.0
C381 C 0.94448 0.6397 0.10589 0.0
C382 C 0.93608 0.75587 0.17331 0.0
C383 C 0.00966 0.65113 0.16633 0.0
H384 H 0.12575 0.81454 0.20855 0.0
H385 H 0.03893 0.72988 0.33636 0.0
H386 H 0.06086 0.75549 0.10871 0.0
H387 H 0.03198 0.78896 0.11716 0.0
H388 H 0.0947 0.81671 0.12581 0.0
H389 H 0.95517 0.68565 0.32768 0.0
H390 H 0.92723 0.68776 0.26726 0.0
H391 H 0.95062 0.64911 0.27261 0.0
H392 H 0.8861 0.70002 0.09197 0.0
H393 H 0.94619 0.61037 0.08881 0.0
H394 H 0.96668 0.78946 0.16028 0.0
H395 H 0.93686 0.75514 0.217 0.0
H396 H 0.90352 0.75539 0.1606 0.0
H397 H 0.04589 0.68006 0.15838 0.0
H398 H 0.00495 0.61883 0.14677 0.0
H399 H 0.00634 0.64515 0.20953 0.0
C400 C 0.3646 0.11279 0.52843 0.0
C401 C 0.3402 0.11903 0.57006 0.0
C402 C 0.34358 0.07207 0.49761 0.0
C403 C 0.29648 0.03717 0.50773 0.0
C404 C 0.27111 0.04387 0.54869 0.0
C405 C 0.29357 0.08452 0.58002 0.0
C406 C 0.37237 0.06581 0.45531 0.0
C407 C 0.22052 0.00788 0.55977 0.0
C408 C 0.24072 0.95208 0.39406 0.0
C409 C 0.24638 0.91455 0.4104 0.0
C410 C 0.25423 0.99118 0.42685 0.0
C411 C 0.27486 0.99307 0.47644 0.0
C412 C 0.27896 0.95437 0.49385 0.0
C413 C 0.26409 0.91528 0.46083 0.0
C414 C 0.24821 0.03127 0.40753 0.0
C415 C 0.30159 0.95532 0.54597 0.0
H416 H 0.40095 0.13904 0.52111 0.0
H417 H 0.27469 0.08936 0.61218 0.0
H418 H 0.37461 0.03384 0.4635 0.0
H419 H 0.35517 0.06086 0.4164 0.0
H420 H 0.40862 0.09631 0.4527 0.0
H421 H 0.20478 0.01988 0.59046 0.0
H422 H 0.19943 -3e-05 0.52317 0.0
H423 H 0.21802 0.9746 0.57315 0.0
H424 H 0.22656 0.95126 0.35525 0.0
H425 H 0.26841 0.8862 0.4736 0.0
H426 H 0.2831 0.06203 0.39858 0.0
H427 H 0.23181 0.04214 0.43857 0.0
H428 H 0.22628 0.02189 0.37139 0.0
H429 H 0.33918 0.983 0.54503 0.0
H430 H 0.29933 0.92121 0.55515 0.0
H431 H 0.28476 0.96419 0.57839 0.0
C432 C 0.24005 0.46232 0.6224 0.0
C433 C 0.19663 0.4419 0.64857 0.0
C434 C 0.24279 0.45521 0.56807 0.0
C435 C 0.20116 0.42674 0.53909 0.0
C436 C 0.1573 0.40567 0.56541 0.0
C437 C 0.15558 0.41352 0.61964 0.0
C438 C 0.29026 0.47844 0.54159 0.0
C439 C 0.1121 0.37473 0.53627 0.0
C440 C 0.20214 0.43999 0.38945 0.0
C441 C 0.207 0.4021 0.37204 0.0
C442 C 0.20034 0.44852 0.44356 0.0
C443 C 0.20342 0.41846 0.48141 0.0
C444 C 0.20805 0.38003 0.46409 0.0
C445 C 0.2097 0.3723 0.40982 0.0
C446 C 0.19539 0.4899 0.46025 0.0
C447 C 0.21122 0.34696 0.50297 0.0
H448 H 0.2719 0.48469 0.64423 0.0
H449 H 0.12192 0.39701 0.6396 0.0
H450 H 0.2966 0.45145 0.52337 0.0
H451 H 0.29115 0.50175 0.50946 0.0
H452 H 0.31928 0.49956 0.56955 0.0
H453 H 0.08086 0.36103 0.56238 0.0
H454 H 0.1078 0.3947 0.50363 0.0
H455 H 0.11326 0.34453 0.5184 0.0
H456 H 0.20061 0.46359 0.36075 0.0
H457 H 0.21271 0.3425 0.39693 0.0
H458 H 0.22558 0.51388 0.48536 0.0
H459 H 0.16313 0.47764 0.48425 0.0
H460 H 0.19362 0.51005 0.42605 0.0
H461 H 0.24161 0.3668 0.52963 0.0
H462 H 0.21514 0.31897 0.4832 0.0
H463 H 0.17922 0.33018 0.52789 0.0
C464 C 0.74129 0.14756 0.95003 0.0
C465 C 0.7521 0.18836 0.97848 0.0
C466 C 0.7508 0.14937 0.89583 0.0
C467 C 0.77153 0.19304 0.86918 0.0
C468 C 0.78278 0.23442 0.8977 0.0
C469 C 0.77308 0.23161 0.95201 0.0
C470 C 0.73866 0.10449 0.86708 0.0
C471 C 0.80478 0.28163 0.87074 0.0
C472 C 0.83491 0.20379 0.73986 0.0
C473 C 0.80136 0.19888 0.70232 0.0
C474 C 0.82576 0.20223 0.79413 0.0
C475 C 0.78187 0.19537 0.81158 0.0
C476 C 0.7477 0.1901 0.77399 0.0
C477 C 0.75784 0.19192 0.71988 0.0
C478 C 0.86308 0.20779 0.83283 0.0
C479 C 0.70047 0.18273 0.79095 0.0
H480 H 0.72569 0.11411 0.97034 0.0
H481 H 0.78108 0.2632 0.97359 0.0
H482 H 0.71376 0.09861 0.83457 0.0
H483 H 0.77073 0.10734 0.84906 0.0
H484 H 0.72265 0.07339 0.89349 0.0
H485 H 0.81136 0.31046 0.89843 0.0
H486 H 0.83858 0.28959 0.85235 0.0
H487 H 0.7815 0.28092 0.83868 0.0
H488 H 0.86834 0.20843 0.72678 0.0
H489 H 0.73191 0.18867 0.69128 0.0
H490 H 0.8495 0.17605 0.858 0.0
H491 H 0.87221 0.23803 0.85928 0.0
H492 H 0.89558 0.21342 0.81291 0.0
H493 H 0.68201 0.15054 0.8154 0.0
H494 H 0.67778 0.17932 0.75688 0.0
H495 H 0.70525 0.21262 0.8157 0.0
C496 C 0.5393 0.75987 0.27829 0.0
C497 C 0.56469 0.74204 0.30438 0.0
C498 C 0.54527 0.76982 0.22396 0.0
C499 C 0.57762 0.76205 0.19496 0.0
C500 C 0.60365 0.74448 0.2212 0.0
C501 C 0.59684 0.73466 0.27543 0.0
C502 C 0.51672 0.78839 0.1975 0.0
C503 C 0.63881 0.7361 0.19198 0.0
C504 C 0.56537 0.74862 0.04547 0.0
C505 C 0.59925 0.79353 0.0281 0.0
C506 C 0.55781 0.73792 0.09957 0.0
C507 C 0.58482 0.7729 0.13735 0.0
C508 C 0.61923 0.81817 0.12006 0.0
C509 C 0.62605 0.82789 0.06581 0.0
C510 C 0.52073 0.68923 0.1163 0.0
C511 C 0.64898 0.85641 0.15891 0.0
H512 H 0.51404 0.76521 0.30018 0.0
H513 H 0.61711 0.72154 0.29538 0.0
H514 H 0.54042 0.82301 0.17926 0.0
H515 H 0.49527 0.76429 0.16539 0.0
H516 H 0.49296 0.79239 0.22549 0.0
H517 H 0.65609 0.72211 0.21804 0.0
H518 H 0.62118 0.71086 0.15933 0.0
H519 H 0.66629 0.76939 0.17412 0.0
H520 H 0.5441 0.722 0.01676 0.0
H521 H 0.65282 0.86247 0.05288 0.0
H522 H 0.49411 0.69126 0.14131 0.0
H523 H 0.53686 0.67289 0.14043 0.0
H524 H 0.50265 0.66604 0.08212 0.0
H525 H 0.62617 0.86303 0.18559 0.0
H526 H 0.67397 0.88988 0.13913 0.0
H527 H 0.66923 0.84509 0.18382 0.0
C528 C 0.80936 0.53282 0.62262 0.0
C529 C 0.80509 0.56201 0.65995 0.0
C530 C 0.80589 0.53897 0.56834 0.0
C531 C 0.79779 0.57514 0.55067 0.0
C532 C 0.79287 0.60441 0.5881 0.0
C533 C 0.79655 0.59749 0.64222 0.0
C534 C 0.81098 0.50675 0.52986 0.0
C535 C 0.78411 0.64331 0.57093 0.0
C536 C 0.83056 0.61809 0.409 0.0
C537 C 0.78679 0.59481 0.38369 0.0
C538 C 0.83466 0.61214 0.46329 0.0
C539 C 0.79407 0.58202 0.49303 0.0
C540 C 0.7499 0.55805 0.46757 0.0
C541 C 0.74681 0.56473 0.41335 0.0
C542 C 0.8824 0.63837 0.48891 0.0
C543 C 0.70582 0.52528 0.49763 0.0
H544 H 0.81516 0.50481 0.63589 0.0
H545 H 0.79369 0.62054 0.67066 0.0
H546 H 0.77877 0.48794 0.50554 0.0
H547 H 0.84062 0.52759 0.50257 0.0
H548 H 0.81729 0.48039 0.54994 0.0
H549 H 0.78075 0.66276 0.60489 0.0
H550 H 0.81335 0.66849 0.54546 0.0
H551 H 0.75149 0.62864 0.54715 0.0
H552 H 0.86155 0.64174 0.38655 0.0
H553 H 0.71296 0.54601 0.39399 0.0
H554 H 0.89116 0.61318 0.50752 0.0
H555 H 0.88204 0.66141 0.52062 0.0
H556 H 0.91053 0.66028 0.46031 0.0
H557 H 0.70959 0.49668 0.51585 0.0
H558 H 0.67417 0.50933 0.47206 0.0
H559 H 0.70021 0.54457 0.53008 0.0
C560 C 0.17023 0.73208 0.75109 0.0
C561 C 0.18006 0.7722 0.72183 0.0
C562 C 0.17977 0.73492 0.8054 0.0
C563 C 0.20003 0.77902 0.83111 0.0
C564 C 0.21014 0.81966 0.80175 0.0
C565 C 0.19987 0.81573 0.74759 0.0
C566 C 0.16804 0.69069 0.83531 0.0
C567 C 0.23219 0.86741 0.82749 0.0
C568 C 0.18931 0.78419 0.98026 0.0
C569 C 0.23349 0.79275 0.99746 0.0
C570 C 0.17774 0.77909 0.92638 0.0
C571 C 0.21116 0.7828 0.88859 0.0
C572 C 0.25558 0.79088 0.90569 0.0
C573 C 0.26613 0.79561 0.95979 0.0
C574 C 0.12993 0.77035 0.90984 0.0
C575 C 0.29219 0.79496 0.86676 0.0
H576 H 0.15441 0.69825 0.73158 0.0
H577 H 0.20804 0.84695 0.72512 0.0
H578 H 0.20029 0.69405 0.85337 0.0
H579 H 0.14333 0.68536 0.86788 0.0
H580 H 0.15196 0.65908 0.80967 0.0
H581 H 0.23769 0.89553 0.79925 0.0
H582 H 0.2096 0.86708 0.86016 0.0
H583 H 0.2666 0.87619 0.84483 0.0
H584 H 0.16403 0.78248 1.00888 0.0
H585 H 0.30005 0.80141 0.97263 0.0
H586 H 0.11185 0.7379 0.88578 0.0
H587 H 0.13381 0.79976 0.88486 0.0
H588 H 0.10734 0.76676 0.94412 0.0
H589 H 0.27809 0.7625 0.84276 0.0
H590 H 0.32492 0.80096 0.88641 0.0
H591 H 0.3011 0.82447 0.83923 0.0
C592 C 0.41921 0.27185 0.2777 0.0
C593 C 0.45003 0.26196 0.30581 0.0
C594 C 0.4112 0.26218 0.22355 0.0
C595 C 0.43456 0.24208 0.19649 0.0
C596 C 0.46552 0.23173 0.22463 0.0
C597 C 0.47279 0.24166 0.27891 0.0
C598 C 0.3776 0.27341 0.19529 0.0
C599 C 0.4912 0.21039 0.19729 0.0
C600 C 0.38087 0.17781 0.06778 0.0
C601 C 0.40839 0.21153 0.0298 0.0
C602 C 0.38924 0.18716 0.12197 0.0
C603 C 0.42602 0.2314 0.13893 0.0
C604 C 0.45391 0.26567 0.10087 0.0
C605 C 0.44475 0.25537 0.04685 0.0
C606 C 0.35848 0.14971 0.16112 0.0
C607 C 0.4935 0.31325 0.11721 0.0
H608 H 0.40088 0.28683 0.29825 0.0
H609 H 0.497 0.23433 0.30013 0.0
H610 H 0.39595 0.29822 0.16247 0.0
H611 H 0.3485 0.24098 0.17775 0.0
H612 H 0.36238 0.28916 0.22191 0.0
H613 H 0.51411 0.2045 0.22466 0.0
H614 H 0.46561 0.17631 0.17927 0.0
H615 H 0.51316 0.23373 0.16491 0.0
H616 H 0.35226 0.1441 0.05513 0.0
H617 H 0.46659 0.28146 0.01791 0.0
H618 H 0.34005 0.16279 0.1866 0.0
H619 H 0.38035 0.14133 0.18721 0.0
H620 H 0.33183 0.11686 0.14158 0.0
H621 H 0.47962 0.33148 0.14182 0.0
H622 H 0.51222 0.33586 0.08284 0.0
H623 H 0.51915 0.30907 0.14163 0.0
C624 C 0.22516 0.5727 0.10727 0.0
C625 C 0.19324 0.52446 0.10925 0.0
C626 C 0.22375 0.60307 0.14526 0.0
C627 C 0.18842 0.58474 0.18465 0.0
C628 C 0.15492 0.53616 0.18524 0.0
C629 C 0.15841 0.50643 0.14818 0.0
C630 C 0.26094 0.6544 0.14433 0.0
C631 C 0.1155 0.51551 0.22507 0.0
C632 C 0.2063 0.65031 0.31383 0.0
C633 C 0.18377 0.67592 0.30326 0.0
C634 C 0.20877 0.621 0.27517 0.0
C635 C 0.18679 0.61621 0.22566 0.0
C636 C 0.16305 0.64132 0.21545 0.0
C637 C 0.16255 0.6715 0.2541 0.0
C638 C 0.2356 0.59587 0.28695 0.0
C639 C 0.13789 0.63613 0.16394 0.0
H640 H 0.25239 0.58632 0.07737 0.0
H641 H 0.13365 0.469 0.14936 0.0
H642 H 0.24445 0.67652 0.14012 0.0
H643 H 0.28041 0.66413 0.18221 0.0
H644 H 0.28641 0.66286 0.11163 0.0
H645 H 0.09006 0.47791 0.21713 0.0
H646 H 0.13003 0.51848 0.26522 0.0
H647 H 0.09637 0.53534 0.22487 0.0
H648 H 0.22308 0.65422 0.35173 0.0
H649 H 0.14491 0.69125 0.2461 0.0
H650 H 0.2631 0.60479 0.25658 0.0
H651 H 0.21164 0.55734 0.28541 0.0
H652 H 0.25256 0.60512 0.32635 0.0
H653 H 0.16354 0.64958 0.13106 0.0
H654 H 0.11823 0.65549 0.16388 0.0
H655 H 0.11291 0.59849 0.15592 0.0
C656 C 0.6271 0.18994 0.41812 0.0
C657 C 0.6634 0.18344 0.43759 0.0
C658 C 0.59342 0.19002 0.45222 0.0
C659 C 0.59611 0.18327 0.50695 0.0
C660 C 0.63192 0.17548 0.5266 0.0
C661 C 0.66508 0.17569 0.49173 0.0
C662 C 0.55574 0.19854 0.4299 0.0
C663 C 0.6359 0.168 0.5847 0.0
C664 C 0.54479 0.2328 0.60464 0.0
C665 C 0.50322 0.19248 0.61965 0.0
C666 C 0.57486 0.2304 0.56716 0.0
C667 C 0.56298 0.18657 0.54424 0.0
C668 C 0.52058 0.14581 0.55869 0.0
C669 C 0.49124 0.14924 0.59649 0.0
C670 C 0.61965 0.27469 0.55264 0.0
C671 C 0.50646 0.09858 0.53466 0.0
H672 H 0.62549 0.19596 0.37638 0.0
H673 H 0.69272 0.17026 0.50719 0.0
H674 H 0.52049 0.17023 0.44237 0.0
H675 H 0.56015 0.23202 0.44553 0.0
H676 H 0.55676 0.20038 0.38617 0.0
H677 H 0.66479 0.16073 0.59334 0.0
H678 H 0.64237 0.19966 0.6071 0.0
H679 H 0.60247 0.13819 0.59939 0.0
H680 H 0.55405 0.26624 0.62263 0.0
H681 H 0.45876 0.11812 0.60768 0.0
H682 H 0.62117 0.28038 0.50943 0.0
H683 H 0.65039 0.27111 0.56352 0.0
H684 H 0.62284 0.3062 0.57266 0.0
H685 H 0.50596 0.10073 0.49105 0.0
H686 H 0.47129 0.07079 0.54825 0.0
H687 H 0.53265 0.08804 0.54509 0.0
C688 C 0.32281 0.53852 0.94004 0.0
C689 C 0.32223 0.49747 0.95593 0.0
C690 C 0.35338 0.56718 0.90036 0.0
C691 C 0.38453 0.55473 0.87641 0.0
C692 C 0.38403 0.51318 0.89226 0.0
C693 C 0.35274 0.48492 0.93187 0.0
C694 C 0.35283 0.61121 0.8847 0.0
C695 C 0.41675 0.49882 0.86765 0.0
C696 C 0.44003 0.61646 0.7472 0.0
C697 C 0.48291 0.65392 0.76481 0.0
C698 C 0.40807 0.58287 0.78285 0.0
C699 C 0.41944 0.58691 0.83718 0.0
C700 C 0.46334 0.62371 0.85478 0.0
C701 C 0.49444 0.65664 0.81846 0.0
C702 C 0.36153 0.544 0.7627 0.0
C703 C 0.47697 0.62922 0.91233 0.0
H704 H 0.29946 0.54842 0.95893 0.0
H705 H 0.35203 0.45293 0.94385 0.0
H706 H 0.38733 0.6425 0.8937 0.0
H707 H 0.34709 0.61122 0.84162 0.0
H708 H 0.32503 0.61474 0.90551 0.0
H709 H 0.41291 0.46622 0.88545 0.0
H710 H 0.40969 0.49306 0.82476 0.0
H711 H 0.45373 0.52729 0.87228 0.0
H712 H 0.43089 0.61402 0.70583 0.0
H713 H 0.52771 0.68504 0.83249 0.0
H714 H 0.33258 0.54824 0.77909 0.0
H715 H 0.35567 0.50937 0.77613 0.0
H716 H 0.35933 0.54374 0.71901 0.0
H717 H 0.4527 0.63643 0.9356 0.0
H718 H 0.51344 0.65828 0.91912 0.0
H719 H 0.47385 0.59619 0.92768 0.0
C720 C 0.86047 0.34856 0.27111 0.0
C721 C 0.81765 0.31485 0.29309 0.0
C722 C 0.86227 0.38171 0.23485 0.0
C723 C 0.82026 0.38106 0.2208 0.0
C724 C 0.77695 0.3468 0.24279 0.0
C725 C 0.77622 0.31414 0.27873 0.0
C726 C 0.90902 0.41746 0.21181 0.0
C727 C 0.73138 0.34485 0.22872 0.0
C728 C 0.82196 0.49051 0.17112 0.0
C729 C 0.81413 0.48127 0.11697 0.0
C730 C 0.82569 0.45893 0.20505 0.0
C731 C 0.82132 0.41694 0.18441 0.0
C732 C 0.81468 0.4079 0.12961 0.0
C733 C 0.81128 0.44028 0.09647 0.0
C734 C 0.83297 0.4699 0.26325 0.0
C735 C 0.80971 0.36337 0.10625 0.0
H736 H 0.89248 0.34881 0.28193 0.0
H737 H 0.74311 0.28813 0.29591 0.0
H738 H 0.90761 0.41527 0.16817 0.0
H739 H 0.91694 0.45338 0.22265 0.0
H740 H 0.9382 0.41238 0.22573 0.0
H741 H 0.70061 0.31524 0.24835 0.0
H742 H 0.73296 0.37813 0.24035 0.0
H743 H 0.72584 0.34106 0.18547 0.0
H744 H 0.82475 0.52232 0.1873 0.0
H745 H 0.80535 0.43291 0.05467 0.0
H746 H 0.86384 0.46794 0.27747 0.0
H747 H 0.80193 0.44342 0.28555 0.0
H748 H 0.83839 0.5053 0.27252 0.0
H749 H 0.83977 0.35901 0.11815 0.0
H750 H 0.80779 0.36303 0.06253 0.0
H751 H 0.77739 0.33255 0.12161 0.0
C752 C 0.3339 0.81293 0.49559 0.0
C753 C 0.33091 0.80513 0.441 0.0
C754 C 0.37114 0.81578 0.52502 0.0
C755 C 0.40649 0.81061 0.49939 0.0
C756 C 0.40466 0.80413 0.44404 0.0
C757 C 0.3668 0.80157 0.41534 0.0
C758 C 0.37182 0.82295 0.58394 0.0
C759 C 0.44184 0.79846 0.41553 0.0
C760 C 0.51469 0.8495 0.58413 0.0
C761 C 0.50452 0.80701 0.60791 0.0
C762 C 0.48449 0.85095 0.54601 0.0
C763 C 0.44322 0.80892 0.5318 0.0
C764 C 0.43398 0.7657 0.55423 0.0
C765 C 0.4647 0.76533 0.59218 0.0
C766 C 0.49576 0.89761 0.52251 0.0
C767 C 0.39038 0.72011 0.54022 0.0
H768 H 0.30673 0.81641 0.51577 0.0
H769 H 0.36474 0.79563 0.37317 0.0
H770 H 0.36868 0.7918 0.60468 0.0
H771 H 0.40567 0.85373 0.59599 0.0
H772 H 0.34281 0.82852 0.59737 0.0
H773 H 0.43749 0.79753 0.37205 0.0
H774 H 0.47732 0.82763 0.42578 0.0
H775 H 0.44018 0.76538 0.42818 0.0
H776 H 0.54593 0.88167 0.59577 0.0
H777 H 0.45681 0.73245 0.61065 0.0
H778 H 0.53082 0.92644 0.53489 0.0
H779 H 0.46886 0.90662 0.53487 0.0
H780 H 0.4948 0.89546 0.47886 0.0
H781 H 0.35896 0.7204 0.55572 0.0
H782 H 0.39095 0.68913 0.5568 0.0
H783 H 0.38644 0.71604 0.49682 0.0
C784 C 0.65136 0.51681 0.93641 0.0
C785 C 0.68274 0.5054 0.96034 0.0
C786 C 0.62152 0.48886 0.89578 0.0
C787 C 0.62326 0.44868 0.87901 0.0
C788 C 0.65567 0.4377 0.90241 0.0
C789 C 0.68495 0.46619 0.94295 0.0
C790 C 0.58767 0.50183 0.87142 0.0
C791 C 0.65851 0.39511 0.88568 0.0
C792 C 0.51469 0.34524 0.82159 0.0
C793 C 0.52574 0.3489 0.76772 0.0
C794 C 0.54565 0.37818 0.8579 0.0
C795 C 0.58883 0.41594 0.84 0.0
C796 C 0.59982 0.42077 0.78557 0.0
C797 C 0.56807 0.3871 0.74996 0.0
C798 C 0.5326 0.3718 0.91566 0.0
C799 C 0.64559 0.46077 0.76521 0.0
H800 H 0.65009 0.54754 0.94951 0.0
H801 H 0.70909 0.45728 0.9617 0.0
H802 H 0.59422 0.50739 0.82842 0.0
H803 H 0.55107 0.4727 0.87664 0.0
H804 H 0.59072 0.53418 0.88902 0.0
H805 H 0.68754 0.39314 0.90562 0.0
H806 H 0.62497 0.36276 0.89502 0.0
H807 H 0.66378 0.39562 0.84245 0.0
H808 H 0.48194 0.31615 0.83579 0.0
H809 H 0.57682 0.39029 0.70842 0.0
H810 H 0.53415 0.40399 0.9315 0.0
H811 H 0.55816 0.36605 0.93826 0.0
H812 H 0.49685 0.34156 0.92278 0.0
H813 H 0.65012 0.49487 0.77876 0.0
H814 H 0.64765 0.46114 0.7215 0.0
H815 H 0.67541 0.45789 0.78133 0.0
loop_
_geom_bond_atom_site_label_1
_geom_bond_atom_site_label_2
_geom_bond_distance
_geom_bond_site_symmetry_2
_ccdc_geom_bond_type
C0 Eu1 2.835 . S
C0 C2 1.500 . S
C0 O20 1.257 . S
C0 O21 1.260 . S
Eu1 C0 2.835 . S
Eu1 O20 2.473 . S
Eu1 O21 2.480 . S
Eu1 O22 2.430 . S
Eu1 O23 2.670 1_554 S
Eu1 O24 2.394 . S
Eu1 O29 2.355 . S
Eu1 O31 2.374 1_554 S
C2 C0 1.500 . S
C2 C3 1.377 . S
C2 C7 1.377 . S
C3 C2 1.377 . S
C3 C4 1.395 . S
C3 H32 0.931 . S
C4 C3 1.395 . S
C4 C5 1.383 . S
C4 H33 0.931 . S
C5 C4 1.383 . S
C5 C6 1.394 . S
C6 C5 1.394 . S
C6 C7 1.378 . S
C6 H34 0.931 . S
C7 C2 1.377 . S
C7 C6 1.378 . S
C7 H35 0.931 . S
C8 O22 1.259 1_556 S
C8 O23 1.270 . S
C9 O24 1.251 . S
C9 O25 1.251 . S
C10 Eu11 2.835 . S
C10 C12 1.500 . S
C10 O26 1.257 . S
C10 O27 1.260 . S
Eu11 C10 2.835 . S
Eu11 O23 2.355 . S
Eu11 O25 2.374 1_556 S
Eu11 O26 2.473 . S
Eu11 O27 2.480 . S
Eu11 O28 2.430 . S
Eu11 O29 2.670 1_556 S
Eu11 O30 2.394 . S
C12 C10 1.500 . S
C12 C13 1.377 . S
C12 C17 1.377 . S
C13 C12 1.377 . S
C13 C14 1.395 . S
C13 H36 0.931 . S
C14 C13 1.395 . S
C14 C15 1.383 . S
C14 H37 0.931 . S
C15 C14 1.383 . S
C15 C16 1.394 . S
C16 C15 1.394 . S
C16 C17 1.378 . S
C16 H38 0.931 . S
C17 C12 1.377 . S
C17 C16 1.378 . S
C17 H39 0.931 . S
C18 O28 1.259 1_554 S
C18 O29 1.270 . S
C19 O30 1.251 . S
C19 O31 1.251 . S
O20 C0 1.257 . S
O20 Eu1 2.473 . S
O21 C0 1.260 . S
O21 Eu1 2.480 . S
O22 Eu1 2.430 . S
O22 C8 1.259 1_554 S
O23 Eu1 2.670 1_556 S
O23 C8 1.270 . S
O23 Eu11 2.355 . S
O24 Eu1 2.394 . S
O24 C9 1.251 . S
O25 C9 1.251 . S
O25 Eu11 2.374 1_554 S
O26 C10 1.257 . S
O26 Eu11 2.473 . S
O27 C10 1.260 . S
O27 Eu11 2.480 . S
O28 Eu11 2.430 . S
O28 C18 1.259 1_556 S
O29 Eu1 2.355 . S
O29 Eu11 2.670 1_554 S
O29 C18 1.270 . S
O30 Eu11 2.394 . S
O30 C19 1.251 . S
O31 Eu1 2.374 1_556 S
O31 C19 1.251 . S
H32 C3 0.931 . S
H33 C4 0.931 . S
H34 C6 0.931 . S
H35 C7 0.931 . S
H36 C13 0.931 . S
H37 C14 0.931 . S
H38 C16 0.931 . S
H39 C17 0.931 . S
C40 Eu41 2.835 . S
C40 C42 1.500 . S
C40 O60 1.257 . S
C40 O61 1.260 . S
Eu41 C40 2.835 . S
Eu41 O60 2.473 . S
Eu41 O61 2.480 . S
Eu41 O62 2.430 . S
Eu41 O63 2.670 . S
Eu41 O64 2.394 . S
Eu41 O69 2.355 . S
Eu41 O71 2.374 . S
C42 C40 1.500 . S
C42 C43 1.377 . S
C42 C47 1.377 . S
C43 C42 1.377 . S
C43 C44 1.395 . S
C43 H72 0.931 . S
C44 C43 1.395 . S
C44 C45 1.383 . S
C44 H73 0.931 . S
C45 C44 1.383 . S
C45 C46 1.394 . S
C46 C45 1.394 . S
C46 C47 1.378 . S
C46 H74 0.931 . S
C47 C42 1.377 . S
C47 C46 1.378 . S
C47 H75 0.931 . S
C48 O62 1.259 . S
C48 O63 1.270 . S
C49 O64 1.251 . S
C49 O65 1.251 . S
C50 Eu51 2.835 . S
C50 C52 1.500 . S
C50 O66 1.257 . S
C50 O67 1.260 . S
Eu51 C50 2.835 . S
Eu51 O63 2.355 . S
Eu51 O65 2.374 . S
Eu51 O66 2.473 . S
Eu51 O67 2.480 . S
Eu51 O68 2.430 . S
Eu51 O69 2.670 . S
Eu51 O70 2.394 . S
C52 C50 1.500 . S
C52 C53 1.377 . S
C52 C57 1.377 . S
C53 C52 1.377 . S
C53 C54 1.395 . S
C53 H76 0.931 . S
C54 C53 1.395 . S
C54 C55 1.383 . S
C54 H77 0.931 . S
C55 C54 1.383 . S
C55 C56 1.394 . S
C56 C55 1.394 . S
C56 C57 1.378 . S
C56 H78 0.931 . S
C57 C52 1.377 . S
C57 C56 1.378 . S
C57 H79 0.931 . S
C58 O68 1.259 . S
C58 O69 1.270 . S
C59 O70 1.251 . S
C59 O71 1.251 . S
O60 C40 1.257 . S
O60 Eu41 2.473 . S
O61 C40 1.260 . S
O61 Eu41 2.480 . S
O62 Eu41 2.430 . S
O62 C48 1.259 . S
O63 Eu41 2.670 . S
O63 C48 1.270 . S
O63 Eu51 2.355 . S
O64 Eu41 2.394 . S
O64 C49 1.251 . S
O65 C49 1.251 . S
O65 Eu51 2.374 . S
O66 C50 1.257 . S
O66 Eu51 2.473 . S
O67 C50 1.260 . S
O67 Eu51 2.480 . S
O68 Eu51 2.430 . S
O68 C58 1.259 . S
O69 Eu41 2.355 . S
O69 Eu51 2.670 . S
O69 C58 1.270 . S
O70 Eu51 2.394 . S
O70 C59 1.251 . S
O71 Eu41 2.374 . S
O71 C59 1.251 . S
H72 C43 0.931 . S
H73 C44 0.931 . S
H74 C46 0.931 . S
H75 C47 0.931 . S
H76 C53 0.931 . S
H77 C54 0.931 . S
H78 C56 0.931 . S
H79 C57 0.931 . S
C80 Eu81 2.835 . S
C80 C82 1.500 . S
C80 O100 1.257 . S
C80 O101 1.260 . S
Eu81 C80 2.835 . S
Eu81 O100 2.473 . S
Eu81 O101 2.480 . S
Eu81 O102 2.430 . S
Eu81 O103 2.670 . S
Eu81 O104 2.394 . S
Eu81 O109 2.355 . S
Eu81 O111 2.374 . S
C82 C80 1.500 . S
C82 C83 1.377 . S
C82 C87 1.377 . S
C83 C82 1.377 . S
C83 C84 1.395 . S
C83 H112 0.931 . S
C84 C83 1.395 . S
C84 C85 1.383 . S
C84 H113 0.931 . S
C85 C84 1.383 . S
C85 C86 1.394 . S
C86 C85 1.394 . S
C86 C87 1.378 . S
C86 H114 0.931 . S
C87 C82 1.377 . S
C87 C86 1.378 . S
C87 H115 0.931 . S
C88 O102 1.259 . S
C88 O103 1.270 . S
C89 O104 1.251 . S
C89 O105 1.251 . S
C90 Eu91 2.835 . S
C90 C92 1.500 . S
C90 O106 1.257 . S
C90 O107 1.260 . S
Eu91 C90 2.835 . S
Eu91 O103 2.355 . S
Eu91 O105 2.374 . S
Eu91 O106 2.473 . S
Eu91 O107 2.480 . S
Eu91 O108 2.430 . S
Eu91 O109 2.670 . S
Eu91 O110 2.394 . S
C92 C90 1.500 . S
C92 C93 1.377 . S
C92 C97 1.377 . S
C93 C92 1.377 . S
C93 C94 1.395 . S
C93 H116 0.931 . S
C94 C93 1.395 . S
C94 C95 1.383 . S
C94 H117 0.931 . S
C95 C94 1.383 . S
C95 C96 1.394 . S
C96 C95 1.394 . S
C96 C97 1.378 . S
C96 H118 0.931 . S
C97 C92 1.377 . S
C97 C96 1.378 . S
C97 H119 0.931 . S
C98 O108 1.259 . S
C98 O109 1.270 . S
C99 O110 1.251 . S
C99 O111 1.251 . S
O100 C80 1.257 . S
O100 Eu81 2.473 . S
O101 C80 1.260 . S
O101 Eu81 2.480 . S
O102 Eu81 2.430 . S
O102 C88 1.259 . S
O103 Eu81 2.670 . S
O103 C88 1.270 . S
O103 Eu91 2.355 . S
O104 Eu81 2.394 . S
O104 C89 1.251 . S
O105 C89 1.251 . S
O105 Eu91 2.374 . S
O106 C90 1.257 . S
O106 Eu91 2.473 . S
O107 C90 1.260 . S
O107 Eu91 2.480 . S
O108 Eu91 2.430 . S
O108 C98 1.259 . S
O109 Eu81 2.355 . S
O109 Eu91 2.670 . S
O109 C98 1.270 . S
O110 Eu91 2.394 . S
O110 C99 1.251 . S
O111 Eu81 2.374 . S
O111 C99 1.251 . S
H112 C83 0.931 . S
H113 C84 0.931 . S
H114 C86 0.931 . S
H115 C87 0.931 . S
H116 C93 0.931 . S
H117 C94 0.931 . S
H118 C96 0.931 . S
H119 C97 0.931 . S
C120 Eu121 2.835 . S
C120 C122 1.500 . S
C120 O140 1.257 . S
C120 O141 1.260 . S
Eu121 C120 2.835 . S
Eu121 O140 2.473 . S
Eu121 O141 2.480 . S
Eu121 O142 2.430 . S
Eu121 O143 2.670 1_554 S
Eu121 O144 2.394 . S
Eu121 O149 2.355 . S
Eu121 O151 2.374 1_554 S
C122 C120 1.500 . S
C122 C123 1.377 . S
C122 C127 1.377 . S
C123 C122 1.377 . S
C123 C124 1.395 . S
C123 H152 0.931 . S
C124 C123 1.395 . S
C124 C125 1.383 . S
C124 H153 0.931 . S
C125 C124 1.383 . S
C125 C126 1.394 . S
C126 C125 1.394 . S
C126 C127 1.378 . S
C126 H154 0.931 . S
C127 C122 1.377 . S
C127 C126 1.378 . S
C127 H155 0.931 . S
C128 O142 1.259 1_556 S
C128 O143 1.270 . S
C129 O144 1.251 . S
C129 O145 1.251 . S
C130 Eu131 2.835 . S
C130 C132 1.500 . S
C130 O146 1.257 . S
C130 O147 1.260 . S
Eu131 C130 2.835 . S
Eu131 O143 2.355 . S
Eu131 O145 2.374 1_556 S
Eu131 O146 2.473 . S
Eu131 O147 2.480 . S
Eu131 O148 2.430 . S
Eu131 O149 2.670 1_556 S
Eu131 O150 2.394 . S
C132 C130 1.500 . S
C132 C133 1.377 . S
C132 C137 1.377 . S
C133 C132 1.377 . S
C133 C134 1.395 . S
C133 H156 0.931 . S
C134 C133 1.395 . S
C134 C135 1.383 . S
C134 H157 0.931 . S
C135 C134 1.383 . S
C135 C136 1.394 . S
C136 C135 1.394 . S
C136 C137 1.378 . S
C136 H158 0.931 . S
C137 C132 1.377 . S
C137 C136 1.378 . S
C137 H159 0.931 . S
C138 O148 1.259 1_554 S
C138 O149 1.270 . S
C139 O150 1.251 . S
C139 O151 1.251 . S
O140 C120 1.257 . S
O140 Eu121 2.473 . S
O141 C120 1.260 . S
O141 Eu121 2.480 . S
O142 Eu121 2.430 . S
O142 C128 1.259 1_554 S
O143 Eu121 2.670 1_556 S
O143 C128 1.270 . S
O143 Eu131 2.355 . S
O144 Eu121 2.394 . S
O144 C129 1.251 . S
O145 C129 1.251 . S
O145 Eu131 2.374 1_554 S
O146 C130 1.257 . S
O146 Eu131 2.473 . S
O147 C130 1.260 . S
O147 Eu131 2.480 . S
O148 Eu131 2.430 . S
O148 C138 1.259 1_556 S
O149 Eu121 2.355 . S
O149 Eu131 2.670 1_554 S
O149 C138 1.270 . S
O150 Eu131 2.394 . S
O150 C139 1.251 . S
O151 Eu121 2.374 1_556 S
O151 C139 1.251 . S
H152 C123 0.931 . S
H153 C124 0.931 . S
H154 C126 0.931 . S
H155 C127 0.931 . S
H156 C133 0.931 . S
H157 C134 0.931 . S
H158 C136 0.931 . S
H159 C137 0.931 . S
C160 Eu161 2.835 . S
C160 C162 1.500 . S
C160 O180 1.257 . S
C160 O181 1.260 . S
Eu161 C160 2.835 . S
Eu161 O180 2.473 . S
Eu161 O181 2.480 . S
Eu161 O182 2.430 . S
Eu161 O183 2.670 . S
Eu161 O184 2.394 . S
Eu161 O189 2.355 . S
Eu161 O191 2.374 . S
C162 C160 1.500 . S
C162 C163 1.377 . S
C162 C167 1.377 . S
C163 C162 1.377 . S
C163 C164 1.395 . S
C163 H192 0.931 . S
C164 C163 1.395 . S
C164 C165 1.383 . S
C164 H193 0.931 . S
C165 C164 1.383 . S
C165 C166 1.394 . S
C166 C165 1.394 . S
C166 C167 1.378 . S
C166 H194 0.931 . S
C167 C162 1.377 . S
C167 C166 1.378 . S
C167 H195 0.931 . S
C168 O182 1.259 . S
C168 O183 1.270 . S
C169 O184 1.251 . S
C169 O185 1.251 . S
C170 Eu171 2.835 . S
C170 C172 1.500 . S
C170 O186 1.257 . S
C170 O187 1.260 . S
Eu171 C170 2.835 . S
Eu171 O183 2.355 . S
Eu171 O185 2.374 . S
Eu171 O186 2.473 . S
Eu171 O187 2.480 . S
Eu171 O188 2.430 . S
Eu171 O189 2.670 . S
Eu171 O190 2.394 . S
C172 C170 1.500 . S
C172 C173 1.377 . S
C172 C177 1.377 . S
C173 C172 1.377 . S
C173 C174 1.395 . S
C173 H196 0.931 . S
C174 C173 1.395 . S
C174 C175 1.383 . S
C174 H197 0.931 . S
C175 C174 1.383 . S
C175 C176 1.394 . S
C176 C175 1.394 . S
C176 C177 1.378 . S
C176 H198 0.931 . S
C177 C172 1.377 . S
C177 C176 1.378 . S
C177 H199 0.931 . S
C178 O188 1.259 . S
C178 O189 1.270 . S
C179 O190 1.251 . S
C179 O191 1.251 . S
O180 C160 1.257 . S
O180 Eu161 2.473 . S
O181 C160 1.260 . S
O181 Eu161 2.480 . S
O182 Eu161 2.430 . S
O182 C168 1.259 . S
O183 Eu161 2.670 . S
O183 C168 1.270 . S
O183 Eu171 2.355 . S
O184 Eu161 2.394 . S
O184 C169 1.251 . S
O185 C169 1.251 . S
O185 Eu171 2.374 . S
O186 C170 1.257 . S
O186 Eu171 2.473 . S
O187 C170 1.260 . S
O187 Eu171 2.480 . S
O188 Eu171 2.430 . S
O188 C178 1.259 . S
O189 Eu161 2.355 . S
O189 Eu171 2.670 . S
O189 C178 1.270 . S
O190 Eu171 2.394 . S
O190 C179 1.251 . S
O191 Eu161 2.374 . S
O191 C179 1.251 . S
H192 C163 0.931 . S
H193 C164 0.931 . S
H194 C166 0.931 . S
H195 C167 0.931 . S
H196 C173 0.931 . S
H197 C174 0.931 . S
H198 C176 0.931 . S
H199 C177 0.931 . S
C200 Eu201 2.835 . S
C200 C202 1.500 . S
C200 O220 1.257 . S
C200 O221 1.260 . S
Eu201 C200 2.835 . S
Eu201 O220 2.473 . S
Eu201 O221 2.480 . S
Eu201 O222 2.430 . S
Eu201 O223 2.670 . S
Eu201 O224 2.394 . S
Eu201 O229 2.355 . S
Eu201 O231 2.374 . S
C202 C200 1.500 . S
C202 C203 1.377 . S
C202 C207 1.377 . S
C203 C202 1.377 . S
C203 C204 1.395 . S
C203 H232 0.931 . S
C204 C203 1.395 . S
C204 C205 1.383 . S
C204 H233 0.931 . S
C205 C204 1.383 . S
C205 C206 1.394 . S
C206 C205 1.394 . S
C206 C207 1.378 . S
C206 H234 0.931 . S
C207 C202 1.377 . S
C207 C206 1.378 . S
C207 H235 0.931 . S
C208 O222 1.259 . S
C208 O223 1.270 . S
C209 O224 1.251 . S
C209 O225 1.251 . S
C210 Eu211 2.835 . S
C210 C212 1.500 . S
C210 O226 1.257 . S
C210 O227 1.260 . S
Eu211 C210 2.835 . S
Eu211 O223 2.355 . S
Eu211 O225 2.374 . S
Eu211 O226 2.473 . S
Eu211 O227 2.480 . S
Eu211 O228 2.430 . S
Eu211 O229 2.670 . S
Eu211 O230 2.394 . S
C212 C210 1.500 . S
C212 C213 1.377 . S
C212 C217 1.377 . S
C213 C212 1.377 . S
C213 C214 1.395 . S
C213 H236 0.931 . S
C214 C213 1.395 . S
C214 C215 1.383 . S
C214 H237 0.931 . S
C215 C214 1.383 . S
C215 C216 1.394 . S
C216 C215 1.394 . S
C216 C217 1.378 . S
C216 H238 0.931 . S
C217 C212 1.377 . S
C217 C216 1.378 . S
C217 H239 0.931 . S
C218 O228 1.259 . S
C218 O229 1.270 . S
C219 O230 1.251 . S
C219 O231 1.251 . S
O220 C200 1.257 . S
O220 Eu201 2.473 . S
O221 C200 1.260 . S
O221 Eu201 2.480 . S
O222 Eu201 2.430 . S
O222 C208 1.259 . S
O223 Eu201 2.670 . S
O223 C208 1.270 . S
O223 Eu211 2.355 . S
O224 Eu201 2.394 . S
O224 C209 1.251 . S
O225 C209 1.251 . S
O225 Eu211 2.374 . S
O226 C210 1.257 . S
O226 Eu211 2.473 . S
O227 C210 1.260 . S
O227 Eu211 2.480 . S
O228 Eu211 2.430 . S
O228 C218 1.259 . S
O229 Eu201 2.355 . S
O229 Eu211 2.670 . S
O229 C218 1.270 . S
O230 Eu211 2.394 . S
O230 C219 1.251 . S
O231 Eu201 2.374 . S
O231 C219 1.251 . S
H232 C203 0.931 . S
H233 C204 0.931 . S
H234 C206 0.931 . S
H235 C207 0.931 . S
H236 C213 0.931 . S
H237 C214 0.931 . S
H238 C216 0.931 . S
H239 C217 0.931 . S
C240 C241 1.391 . S
C240 C242 1.394 . S
C240 H256 0.931 . S
C241 C240 1.391 . S
C241 C245 1.376 . S
C242 C240 1.394 . S
C242 C243 1.369 . S
C242 C246 1.531 . S
C243 C242 1.369 . S
C243 C244 1.410 . S
C243 C251 1.503 . S
C244 C243 1.410 . S
C244 C245 1.392 . S
C244 C247 1.511 . S
C245 C241 1.376 . S
C245 C244 1.392 . S
C245 H257 0.929 . S
C246 C242 1.531 . S
C246 H258 0.960 . S
C246 H259 0.962 . S
C246 H260 0.960 . S
C247 C244 1.511 . S
C247 H261 0.961 . S
C247 H262 0.961 . S
C247 H263 0.961 . S
C248 C249 1.370 . S
C248 C250 1.363 . S
C248 H264 0.931 . S
C249 C248 1.370 . S
C249 C253 1.408 . S
C250 C248 1.363 . S
C250 C251 1.370 . S
C250 C254 1.524 . S
C251 C243 1.503 . S
C251 C250 1.370 . S
C251 C252 1.403 . S
C252 C251 1.403 . S
C252 C253 1.404 . S
C252 C255 1.539 . S
C253 C249 1.408 . S
C253 C252 1.404 . S
C253 H265 0.930 . S
C254 C250 1.524 . S
C254 H266 0.956 . S
C254 H267 0.961 . S
C254 H268 0.961 . S
C255 C252 1.539 . S
C255 H269 0.958 . S
C255 H270 0.961 . S
C255 H271 0.960 . S
H256 C240 0.931 . S
H257 C245 0.929 . S
H258 C246 0.960 . S
H259 C246 0.962 . S
H260 C246 0.960 . S
H261 C247 0.961 . S
H262 C247 0.961 . S
H263 C247 0.961 . S
H264 C248 0.931 . S
H265 C253 0.930 . S
H266 C254 0.956 . S
H267 C254 0.961 . S
H268 C254 0.961 . S
H269 C255 0.958 . S
H270 C255 0.961 . S
H271 C255 0.960 . S
C272 C273 1.391 . S
C272 C274 1.394 . S
C272 H288 0.931 . S
C273 C272 1.391 . S
C273 C277 1.376 . S
C274 C272 1.394 . S
C274 C275 1.369 . S
C274 C278 1.531 1_455 S
C275 C274 1.369 . S
C275 C276 1.410 . S
C275 C283 1.503 1_455 S
C276 C275 1.410 . S
C276 C277 1.392 . S
C276 C279 1.511 . S
C277 C273 1.376 . S
C277 C276 1.392 . S
C277 H289 0.929 . S
C278 C274 1.531 1_655 S
C278 H290 0.960 . S
C278 H291 0.962 . S
C278 H292 0.960 . S
C279 C276 1.511 . S
C279 H293 0.961 . S
C279 H294 0.961 . S
C279 H295 0.961 . S
C280 C281 1.370 . S
C280 C282 1.363 . S
C280 H296 0.931 . S
C281 C280 1.370 . S
C281 C285 1.408 . S
C282 C280 1.363 . S
C282 C283 1.370 . S
C282 C286 1.524 . S
C283 C275 1.503 1_655 S
C283 C282 1.370 . S
C283 C284 1.403 . S
C284 C283 1.403 . S
C284 C285 1.404 . S
C284 C287 1.539 . S
C285 C281 1.408 . S
C285 C284 1.404 . S
C285 H297 0.930 . S
C286 C282 1.524 . S
C286 H298 0.956 . S
C286 H299 0.961 1_655 S
C286 H300 0.961 . S
C287 C284 1.539 . S
C287 H301 0.958 . S
C287 H302 0.961 . S
C287 H303 0.977 . S
H288 C272 0.931 . S
H289 C277 0.929 . S
H290 C278 0.960 . S
H291 C278 0.962 . S
H292 C278 0.960 . S
H293 C279 0.961 . S
H294 C279 0.961 . S
H295 C279 0.961 . S
H296 C280 0.931 . S
H297 C285 0.930 . S
H298 C286 0.956 . S
H299 C286 0.961 1_455 S
H300 C286 0.961 . S
H301 C287 0.958 . S
H302 C287 0.961 . S
H303 C287 0.977 . S
C304 C305 1.391 . S
C304 C306 1.394 . S
C304 H320 0.931 . S
C305 C304 1.391 . S
C305 C309 1.376 . S
C306 C304 1.394 . S
C306 C307 1.369 . S
C306 C310 1.531 1_545 S
C307 C306 1.369 . S
C307 C308 1.410 . S
C307 C315 1.503 1_545 S
C308 C307 1.410 . S
C308 C309 1.392 . S
C308 C311 1.511 . S
C309 C305 1.376 . S
C309 C308 1.392 . S
C309 H321 0.929 . S
C310 C306 1.531 1_565 S
C310 H322 0.960 . S
C310 H323 0.962 1_565 S
C310 H324 0.960 . S
C311 C308 1.511 . S
C311 H325 0.961 . S
C311 H326 0.961 . S
C311 H327 0.984 . S
C312 C313 1.370 . S
C312 C314 1.363 . S
C312 H328 0.931 . S
C313 C312 1.370 . S
C313 C317 1.408 . S
C314 C312 1.363 . S
C314 C315 1.370 . S
C314 C318 1.524 1_565 S
C315 C307 1.503 1_565 S
C315 C314 1.370 . S
C315 C316 1.403 . S
C316 C315 1.403 . S
C316 C317 1.404 . S
C316 C319 1.539 . S
C317 C313 1.408 . S
C317 C316 1.404 . S
C317 H329 0.930 . S
C318 C314 1.524 1_545 S
C318 H330 0.956 . S
C318 H331 0.961 . S
C318 H332 0.961 . S
C319 C316 1.539 . S
C319 H333 0.958 . S
C319 H334 0.961 . S
C319 H335 0.960 . S
H320 C304 0.931 . S
H321 C309 0.929 . S
H322 C310 0.960 . S
H323 C310 0.962 1_545 S
H324 C310 0.960 . S
H325 C311 0.961 . S
H326 C311 0.961 . S
H327 C311 0.984 . S
H328 C312 0.931 . S
H329 C317 0.930 . S
H330 C318 0.956 . S
H331 C318 0.961 . S
H332 C318 0.961 . S
H333 C319 0.958 . S
H334 C319 0.961 . S
H335 C319 0.960 . S
C336 C337 1.391 . S
C336 C338 1.394 . S
C336 H352 0.931 . S
C337 C336 1.391 . S
C337 C341 1.376 . S
C338 C336 1.394 . S
C338 C339 1.369 . S
C338 C342 1.531 . S
C339 C338 1.369 . S
C339 C340 1.410 . S
C339 C347 1.503 . S
C340 C339 1.410 . S
C340 C341 1.392 . S
C340 C343 1.511 . S
C341 C337 1.376 . S
C341 C340 1.392 . S
C341 H353 0.929 . S
C342 C338 1.531 . S
C342 H354 0.960 . S
C342 H355 0.962 . S
C342 H356 0.960 . S
C343 C340 1.511 . S
C343 H357 0.961 . S
C343 H358 0.961 . S
C343 H359 0.961 . S
C344 C345 1.370 . S
C344 C346 1.363 . S
C344 H360 0.931 . S
C345 C344 1.370 . S
C345 C349 1.408 . S
C346 C344 1.363 . S
C346 C347 1.370 . S
C346 C350 1.524 . S
C347 C339 1.503 . S
C347 C346 1.370 . S
C347 C348 1.403 . S
C348 C347 1.403 . S
C348 C349 1.404 . S
C348 C351 1.539 . S
C349 C345 1.408 . S
C349 C348 1.404 . S
C349 H361 0.930 . S
C350 C346 1.524 . S
C350 H362 0.956 . S
C350 H363 0.961 . S
C350 H364 0.961 . S
C351 C348 1.539 . S
C351 H365 0.958 . S
C351 H366 0.961 . S
C351 H367 0.960 . S
H352 C336 0.931 . S
H353 C341 0.929 . S
H354 C342 0.960 . S
H355 C342 0.962 . S
H356 C342 0.960 . S
H357 C343 0.961 . S
H358 C343 0.961 . S
H359 C343 0.961 . S
H360 C344 0.931 . S
H361 C349 0.930 . S
H362 C350 0.956 . S
H363 C350 0.961 . S
H364 C350 0.961 . S
H365 C351 0.958 . S
H366 C351 0.961 . S
H367 C351 0.960 . S
C368 C369 1.391 . S
C368 C370 1.394 . S
C368 H384 0.931 . S
C369 C368 1.391 . S
C369 C373 1.376 . S
C370 C368 1.394 . S
C370 C371 1.369 . S
C370 C374 1.531 . S
C371 C370 1.369 . S
C371 C372 1.410 . S
C371 C379 1.503 1_455 S
C372 C371 1.410 . S
C372 C373 1.392 . S
C372 C375 1.511 1_455 S
C373 C369 1.376 . S
C373 C372 1.392 . S
C373 H385 0.929 . S
C374 C370 1.531 . S
C374 H386 0.960 . S
C374 H387 0.962 . S
C374 H388 0.960 . S
C375 C372 1.511 1_655 S
C375 H389 0.961 . S
C375 H390 0.961 . S
C375 H391 0.961 . S
C376 C377 1.370 . S
C376 C378 1.363 . S
C376 H392 0.931 . S
C377 C376 1.370 . S
C377 C381 1.408 . S
C378 C376 1.363 . S
C378 C379 1.370 . S
C378 C382 1.524 1_655 S
C379 C371 1.503 1_655 S
C379 C378 1.370 . S
C379 C380 1.403 . S
C380 C379 1.403 . S
C380 C381 1.404 . S
C380 C383 1.539 . S
C381 C377 1.408 . S
C381 C380 1.404 . S
C381 H393 0.930 . S
C382 C378 1.524 1_455 S
C382 H394 0.956 . S
C382 H395 0.961 . S
C382 H396 0.961 . S
C383 C380 1.539 . S
C383 H397 0.958 . S
C383 H398 0.961 . S
C383 H399 0.960 . S
H384 C368 0.931 . S
H385 C373 0.929 . S
H386 C374 0.960 . S
H387 C374 0.962 . S
H388 C374 0.960 . S
H389 C375 0.961 . S
H390 C375 0.961 . S
H391 C375 0.961 . S
H392 C376 0.931 . S
H393 C381 0.930 . S
H394 C382 0.956 . S
H395 C382 0.961 . S
H396 C382 0.961 . S
H397 C383 0.958 . S
H398 C383 0.961 . S
H399 C383 0.960 . S
C400 C401 1.391 . S
C400 C402 1.394 . S
C400 H416 0.931 . S
C401 C400 1.391 . S
C401 C405 1.376 . S
C402 C400 1.394 . S
C402 C403 1.369 . S
C402 C406 1.531 . S
C403 C402 1.369 . S
C403 C404 1.410 . S
C403 C411 1.503 1_545 S
C404 C403 1.410 . S
C404 C405 1.392 . S
C404 C407 1.511 1_545 S
C405 C401 1.376 . S
C405 C404 1.392 . S
C405 H417 0.929 . S
C406 C402 1.531 . S
C406 H418 0.960 . S
C406 H419 0.962 . S
C406 H420 0.960 . S
C407 C404 1.511 1_565 S
C407 H421 0.961 . S
C407 H422 0.961 . S
C407 H423 0.961 . S
C408 C409 1.370 . S
C408 C410 1.363 . S
C408 H424 0.931 . S
C409 C408 1.370 . S
C409 C413 1.408 . S
C410 C408 1.363 . S
C410 C411 1.370 . S
C410 C414 1.524 . S
C411 C403 1.503 1_565 S
C411 C410 1.370 . S
C411 C412 1.403 . S
C412 C411 1.403 . S
C412 C413 1.404 . S
C412 C415 1.539 1_565 S
C413 C409 1.408 . S
C413 C412 1.404 . S
C413 H425 0.930 . S
C414 C410 1.524 . S
C414 H426 0.956 . S
C414 H427 0.961 . S
C414 H428 0.961 . S
C415 C412 1.539 1_545 S
C415 H429 0.958 . S
C415 H430 0.957 1_545 S
C415 H431 0.960 . S
H416 C400 0.931 . S
H417 C405 0.929 . S
H418 C406 0.960 . S
H419 C406 0.962 . S
H420 C406 0.960 . S
H421 C407 0.961 . S
H422 C407 0.961 . S
H423 C407 0.961 . S
H424 C408 0.931 . S
H425 C413 0.930 . S
H426 C414 0.956 . S
H427 C414 0.961 . S
H428 C414 0.961 . S
H429 C415 0.958 . S
H430 C415 0.957 1_565 S
H431 C415 0.960 . S
C432 C433 1.391 . S
C432 C434 1.394 . S
C432 H448 0.931 . S
C433 C432 1.391 . S
C433 C437 1.376 . S
C434 C432 1.394 . S
C434 C435 1.369 . S
C434 C438 1.531 . S
C435 C434 1.369 . S
C435 C436 1.410 . S
C435 C443 1.503 . S
C436 C435 1.410 . S
C436 C437 1.392 . S
C436 C439 1.511 . S
C437 C433 1.376 . S
C437 C436 1.392 . S
C437 H449 0.929 . S
C438 C434 1.531 . S
C438 H450 0.960 . S
C438 H451 0.962 . S
C438 H452 0.960 . S
C439 C436 1.511 . S
C439 H453 0.961 . S
C439 H454 0.961 . S
C439 H455 0.961 . S
C440 C441 1.370 . S
C440 C442 1.363 . S
C440 H456 0.931 . S
C441 C440 1.370 . S
C441 C445 1.408 . S
C442 C440 1.363 . S
C442 C443 1.370 . S
C442 C446 1.524 . S
C443 C435 1.503 . S
C443 C442 1.370 . S
C443 C444 1.403 . S
C444 C443 1.403 . S
C444 C445 1.404 . S
C444 C447 1.539 . S
C445 C441 1.408 . S
C445 C444 1.404 . S
C445 H457 0.930 . S
C446 C442 1.524 . S
C446 H458 0.956 . S
C446 H459 0.961 . S
C446 H460 0.961 . S
C447 C444 1.539 . S
C447 H461 0.958 . S
C447 H462 0.961 . S
C447 H463 0.960 . S
H448 C432 0.931 . S
H449 C437 0.929 . S
H450 C438 0.960 . S
H451 C438 0.962 . S
H452 C438 0.960 . S
H453 C439 0.961 . S
H454 C439 0.961 . S
H455 C439 0.961 . S
H456 C440 0.931 . S
H457 C445 0.930 . S
H458 C446 0.956 . S
H459 C446 0.961 . S
H460 C446 0.961 . S
H461 C447 0.958 . S
H462 C447 0.961 . S
H463 C447 0.960 . S
C464 C465 1.391 . S
C464 C466 1.394 . S
C464 H480 0.931 . S
C465 C464 1.391 . S
C465 C469 1.376 . S
C466 C464 1.394 . S
C466 C467 1.369 . S
C466 C470 1.531 . S
C467 C466 1.369 . S
C467 C468 1.410 . S
C467 C475 1.503 . S
C468 C467 1.410 . S
C468 C469 1.392 . S
C468 C471 1.511 . S
C469 C465 1.376 . S
C469 C468 1.392 . S
C469 H481 0.929 . S
C470 C466 1.531 . S
C470 H482 0.960 . S
C470 H483 0.962 . S
C470 H484 0.960 . S
C471 C468 1.511 . S
C471 H485 0.961 . S
C471 H486 0.961 . S
C471 H487 0.961 . S
C472 C473 1.370 . S
C472 C474 1.363 . S
C472 H488 0.931 . S
C473 C472 1.370 . S
C473 C477 1.408 . S
C474 C472 1.363 . S
C474 C475 1.370 . S
C474 C478 1.524 . S
C475 C467 1.503 . S
C475 C474 1.370 . S
C475 C476 1.403 . S
C476 C475 1.403 . S
C476 C477 1.404 . S
C476 C479 1.539 . S
C477 C473 1.408 . S
C477 C476 1.404 . S
C477 H489 0.930 . S
C478 C474 1.524 . S
C478 H490 0.956 . S
C478 H491 0.961 . S
C478 H492 0.961 . S
C479 C476 1.539 . S
C479 H493 0.958 . S
C479 H494 0.961 . S
C479 H495 0.960 . S
H480 C464 0.931 . S
H481 C469 0.929 . S
H482 C470 0.960 . S
H483 C470 0.962 . S
H484 C470 0.960 . S
H485 C471 0.961 . S
H486 C471 0.961 . S
H487 C471 0.961 . S
H488 C472 0.931 . S
H489 C477 0.930 . S
H490 C478 0.956 . S
H491 C478 0.961 . S
H492 C478 0.961 . S
H493 C479 0.958 . S
H494 C479 0.961 . S
H495 C479 0.960 . S
C496 C497 1.391 . S
C496 C498 1.394 . S
C496 H512 0.931 . S
C497 C496 1.391 . S
C497 C501 1.376 . S
C498 C496 1.394 . S
C498 C499 1.369 . S
C498 C502 1.531 . S
C499 C498 1.369 . S
C499 C500 1.410 . S
C499 C507 1.503 . S
C500 C499 1.410 . S
C500 C501 1.392 . S
C500 C503 1.511 . S
C501 C497 1.376 . S
C501 C500 1.392 . S
C501 H513 0.929 . S
C502 C498 1.531 . S
C502 H514 0.960 . S
C502 H515 0.962 . S
C502 H516 0.960 . S
C503 C500 1.511 . S
C503 H517 0.961 . S
C503 H518 0.961 . S
C503 H519 0.961 . S
C504 C505 1.370 . S
C504 C506 1.363 . S
C504 H520 0.931 . S
C505 C504 1.370 . S
C505 C509 1.408 . S
C506 C504 1.363 . S
C506 C507 1.370 . S
C506 C510 1.524 . S
C507 C499 1.503 . S
C507 C506 1.370 . S
C507 C508 1.403 . S
C508 C507 1.403 . S
C508 C509 1.404 . S
C508 C511 1.539 . S
C509 C505 1.408 . S
C509 C508 1.404 . S
C509 H521 0.930 . S
C510 C506 1.524 . S
C510 H522 0.956 . S
C510 H523 0.961 . S
C510 H524 0.961 . S
C511 C508 1.539 . S
C511 H525 0.958 . S
C511 H526 0.961 . S
C511 H527 0.960 . S
H512 C496 0.931 . S
H513 C501 0.929 . S
H514 C502 0.960 . S
H515 C502 0.962 . S
H516 C502 0.960 . S
H517 C503 0.961 . S
H518 C503 0.961 . S
H519 C503 0.961 . S
H520 C504 0.931 . S
H521 C509 0.930 . S
H522 C510 0.956 . S
H523 C510 0.961 . S
H524 C510 0.961 . S
H525 C511 0.958 . S
H526 C511 0.961 . S
H527 C511 0.960 . S
C528 C529 1.391 . S
C528 C530 1.394 . S
C528 H544 0.931 . S
C529 C528 1.391 . S
C529 C533 1.376 . S
C530 C528 1.394 . S
C530 C531 1.369 . S
C530 C534 1.531 . S
C531 C530 1.369 . S
C531 C532 1.410 . S
C531 C539 1.503 . S
C532 C531 1.410 . S
C532 C533 1.392 . S
C532 C535 1.511 . S
C533 C529 1.376 . S
C533 C532 1.392 . S
C533 H545 0.929 . S
C534 C530 1.531 . S
C534 H546 0.960 . S
C534 H547 0.962 . S
C534 H548 0.960 . S
C535 C532 1.511 . S
C535 H549 0.961 . S
C535 H550 0.961 . S
C535 H551 0.961 . S
C536 C537 1.370 . S
C536 C538 1.363 . S
C536 H552 0.931 . S
C537 C536 1.370 . S
C537 C541 1.408 . S
C538 C536 1.363 . S
C538 C539 1.370 . S
C538 C542 1.524 . S
C539 C531 1.503 . S
C539 C538 1.370 . S
C539 C540 1.403 . S
C540 C539 1.403 . S
C540 C541 1.404 . S
C540 C543 1.539 . S
C541 C537 1.408 . S
C541 C540 1.404 . S
C541 H553 0.930 . S
C542 C538 1.524 . S
C542 H554 0.956 . S
C542 H555 0.961 . S
C542 H556 0.961 . S
C543 C540 1.539 . S
C543 H557 0.958 . S
C543 H558 0.961 . S
C543 H559 0.960 . S
H544 C528 0.931 . S
H545 C533 0.929 . S
H546 C534 0.960 . S
H547 C534 0.962 . S
H548 C534 0.960 . S
H549 C535 0.961 . S
H550 C535 0.961 . S
H551 C535 0.961 . S
H552 C536 0.931 . S
H553 C541 0.930 . S
H554 C542 0.956 . S
H555 C542 0.961 . S
H556 C542 0.961 . S
H557 C543 0.958 . S
H558 C543 0.961 . S
H559 C543 0.960 . S
C560 C561 1.391 . S
C560 C562 1.394 . S
C560 H576 0.931 . S
C561 C560 1.391 . S
C561 C565 1.376 . S
C562 C560 1.394 . S
C562 C563 1.369 . S
C562 C566 1.531 . S
C563 C562 1.369 . S
C563 C564 1.410 . S
C563 C571 1.503 . S
C564 C563 1.410 . S
C564 C565 1.392 . S
C564 C567 1.511 . S
C565 C561 1.376 . S
C565 C564 1.392 . S
C565 H577 0.929 . S
C566 C562 1.531 . S
C566 H578 0.960 . S
C566 H579 0.962 . S
C566 H580 0.960 . S
C567 C564 1.511 . S
C567 H581 0.961 . S
C567 H582 0.961 . S
C567 H583 0.961 . S
C568 C569 1.370 . S
C568 C570 1.363 . S
C568 H584 0.931 . S
C569 C568 1.370 . S
C569 C573 1.408 . S
C570 C568 1.363 . S
C570 C571 1.370 . S
C570 C574 1.524 . S
C571 C563 1.503 . S
C571 C570 1.370 . S
C571 C572 1.403 . S
C572 C571 1.403 . S
C572 C573 1.404 . S
C572 C575 1.539 . S
C573 C569 1.408 . S
C573 C572 1.404 . S
C573 H585 0.930 . S
C574 C570 1.524 . S
C574 H586 0.956 . S
C574 H587 0.961 . S
C574 H588 0.961 . S
C575 C572 1.539 . S
C575 H589 0.958 . S
C575 H590 0.961 . S
C575 H591 0.960 . S
H576 C560 0.931 . S
H577 C565 0.929 . S
H578 C566 0.960 . S
H579 C566 0.962 . S
H580 C566 0.960 . S
H581 C567 0.961 . S
H582 C567 0.961 . S
H583 C567 0.961 . S
H584 C568 0.931 . S
H585 C573 0.930 . S
H586 C574 0.956 . S
H587 C574 0.961 . S
H588 C574 0.961 . S
H589 C575 0.958 . S
H590 C575 0.961 . S
H591 C575 0.960 . S
C592 C593 1.391 . S
C592 C594 1.394 . S
C592 H608 0.931 . S
C593 C592 1.391 . S
C593 C597 1.376 . S
C594 C592 1.394 . S
C594 C595 1.369 . S
C594 C598 1.531 . S
C595 C594 1.369 . S
C595 C596 1.410 . S
C595 C603 1.503 . S
C596 C595 1.410 . S
C596 C597 1.392 . S
C596 C599 1.511 . S
C597 C593 1.376 . S
C597 C596 1.392 . S
C597 H609 0.929 . S
C598 C594 1.531 . S
C598 H610 0.960 . S
C598 H611 0.962 . S
C598 H612 0.960 . S
C599 C596 1.511 . S
C599 H613 0.961 . S
C599 H614 0.961 . S
C599 H615 0.961 . S
C600 C601 1.370 . S
C600 C602 1.363 . S
C600 H616 0.931 . S
C601 C600 1.370 . S
C601 C605 1.408 . S
C602 C600 1.363 . S
C602 C603 1.370 . S
C602 C606 1.524 . S
C603 C595 1.503 . S
C603 C602 1.370 . S
C603 C604 1.403 . S
C604 C603 1.403 . S
C604 C605 1.404 . S
C604 C607 1.539 . S
C605 C601 1.408 . S
C605 C604 1.404 . S
C605 H617 0.930 . S
C606 C602 1.524 . S
C606 H618 0.956 . S
C606 H619 0.961 . S
C606 H620 0.961 . S
C607 C604 1.539 . S
C607 H621 0.958 . S
C607 H622 0.961 . S
C607 H623 0.960 . S
H608 C592 0.931 . S
H609 C597 0.929 . S
H610 C598 0.960 . S
H611 C598 0.962 . S
H612 C598 0.960 . S
H613 C599 0.961 . S
H614 C599 0.961 . S
H615 C599 0.961 . S
H616 C600 0.931 . S
H617 C605 0.930 . S
H618 C606 0.956 . S
H619 C606 0.961 . S
H620 C606 0.961 . S
H621 C607 0.958 . S
H622 C607 0.961 . S
H623 C607 0.960 . S
C624 C625 1.391 . S
C624 C626 1.394 . S
C624 H640 0.931 . S
C625 C624 1.391 . S
C625 C629 1.376 . S
C626 C624 1.394 . S
C626 C627 1.369 . S
C626 C630 1.531 . S
C627 C626 1.369 . S
C627 C628 1.410 . S
C627 C635 1.503 . S
C628 C627 1.410 . S
C628 C629 1.392 . S
C628 C631 1.511 . S
C629 C625 1.376 . S
C629 C628 1.392 . S
C629 H641 0.929 . S
C630 C626 1.531 . S
C630 H642 0.960 . S
C630 H643 0.962 . S
C630 H644 0.960 . S
C631 C628 1.511 . S
C631 H645 0.961 . S
C631 H646 0.961 . S
C631 H647 0.961 . S
C632 C633 1.370 . S
C632 C634 1.363 . S
C632 H648 0.931 . S
C633 C632 1.370 . S
C633 C637 1.408 . S
C634 C632 1.363 . S
C634 C635 1.370 . S
C634 C638 1.524 . S
C635 C627 1.503 . S
C635 C634 1.370 . S
C635 C636 1.403 . S
C636 C635 1.403 . S
C636 C637 1.404 . S
C636 C639 1.539 . S
C637 C633 1.408 . S
C637 C636 1.404 . S
C637 H649 0.930 . S
C638 C634 1.524 . S
C638 H650 0.956 . S
C638 H651 0.961 . S
C638 H652 0.961 . S
C639 C636 1.539 . S
C639 H653 0.958 . S
C639 H654 0.961 . S
C639 H655 0.960 . S
H640 C624 0.931 . S
H641 C629 0.929 . S
H642 C630 0.960 . S
H643 C630 0.962 . S
H644 C630 0.960 . S
H645 C631 0.961 . S
H646 C631 0.961 . S
H647 C631 0.961 . S
H648 C632 0.931 . S
H649 C637 0.930 . S
H650 C638 0.956 . S
H651 C638 0.961 . S
H652 C638 0.961 . S
H653 C639 0.958 . S
H654 C639 0.961 . S
H655 C639 0.960 . S
C656 C657 1.391 . S
C656 C658 1.394 . S
C656 H672 0.931 . S
C657 C656 1.391 . S
C657 C661 1.376 . S
C658 C656 1.394 . S
C658 C659 1.369 . S
C658 C662 1.531 . S
C659 C658 1.369 . S
C659 C660 1.410 . S
C659 C667 1.503 . S
C660 C659 1.410 . S
C660 C661 1.392 . S
C660 C663 1.511 . S
C661 C657 1.376 . S
C661 C660 1.392 . S
C661 H673 0.929 . S
C662 C658 1.531 . S
C662 H674 0.960 . S
C662 H675 0.962 . S
C662 H676 0.960 . S
C663 C660 1.511 . S
C663 H677 0.961 . S
C663 H678 0.961 . S
C663 H679 0.961 . S
C664 C665 1.370 . S
C664 C666 1.363 . S
C664 H680 0.931 . S
C665 C664 1.370 . S
C665 C669 1.408 . S
C666 C664 1.363 . S
C666 C667 1.370 . S
C666 C670 1.524 . S
C667 C659 1.503 . S
C667 C666 1.370 . S
C667 C668 1.403 . S
C668 C667 1.403 . S
C668 C669 1.404 . S
C668 C671 1.539 . S
C669 C665 1.408 . S
C669 C668 1.404 . S
C669 H681 0.930 . S
C670 C666 1.524 . S
C670 H682 0.956 . S
C670 H683 0.961 . S
C670 H684 0.961 . S
C671 C668 1.539 . S
C671 H685 0.958 . S
C671 H686 0.961 . S
C671 H687 0.960 . S
H672 C656 0.931 . S
H673 C661 0.929 . S
H674 C662 0.960 . S
H675 C662 0.962 . S
H676 C662 0.960 . S
H677 C663 0.961 . S
H678 C663 0.961 . S
H679 C663 0.961 . S
H680 C664 0.931 . S
H681 C669 0.930 . S
H682 C670 0.956 . S
H683 C670 0.961 . S
H684 C670 0.961 . S
H685 C671 0.958 . S
H686 C671 0.961 . S
H687 C671 0.960 . S
C688 C689 1.391 . S
C688 C690 1.394 . S
C688 H704 0.931 . S
C689 C688 1.391 . S
C689 C693 1.376 . S
C690 C688 1.394 . S
C690 C691 1.369 . S
C690 C694 1.531 . S
C691 C690 1.369 . S
C691 C692 1.410 . S
C691 C699 1.503 . S
C692 C691 1.410 . S
C692 C693 1.392 . S
C692 C695 1.511 . S
C693 C689 1.376 . S
C693 C692 1.392 . S
C693 H705 0.929 . S
C694 C690 1.531 . S
C694 H706 0.960 . S
C694 H707 0.962 . S
C694 H708 0.960 . S
C695 C692 1.511 . S
C695 H709 0.961 . S
C695 H710 0.961 . S
C695 H711 0.961 . S
C696 C697 1.370 . S
C696 C698 1.363 . S
C696 H712 0.931 . S
C697 C696 1.370 . S
C697 C701 1.408 . S
C698 C696 1.363 . S
C698 C699 1.370 . S
C698 C702 1.524 . S
C699 C691 1.503 . S
C699 C698 1.370 . S
C699 C700 1.403 . S
C700 C699 1.403 . S
C700 C701 1.404 . S
C700 C703 1.539 . S
C701 C697 1.408 . S
C701 C700 1.404 . S
C701 H713 0.930 . S
C702 C698 1.524 . S
C702 H714 0.956 . S
C702 H715 0.961 . S
C702 H716 0.961 . S
C703 C700 1.539 . S
C703 H717 0.958 . S
C703 H718 0.961 . S
C703 H719 0.960 . S
H704 C688 0.931 . S
H705 C693 0.929 . S
H706 C694 0.960 . S
H707 C694 0.962 . S
H708 C694 0.960 . S
H709 C695 0.961 . S
H710 C695 0.961 . S
H711 C695 0.961 . S
H712 C696 0.931 . S
H713 C701 0.930 . S
H714 C702 0.956 . S
H715 C702 0.961 . S
H716 C702 0.961 . S
H717 C703 0.958 . S
H718 C703 0.961 . S
H719 C703 0.960 . S
C720 C721 1.391 . S
C720 C722 1.394 . S
C720 H736 0.931 . S
C721 C720 1.391 . S
C721 C725 1.376 . S
C722 C720 1.394 . S
C722 C723 1.369 . S
C722 C726 1.531 . S
C723 C722 1.369 . S
C723 C724 1.410 . S
C723 C731 1.503 . S
C724 C723 1.410 . S
C724 C725 1.392 . S
C724 C727 1.511 . S
C725 C721 1.376 . S
C725 C724 1.392 . S
C725 H737 0.929 . S
C726 C722 1.531 . S
C726 H738 0.960 . S
C726 H739 0.962 . S
C726 H740 0.960 . S
C727 C724 1.511 . S
C727 H741 0.961 . S
C727 H742 0.961 . S
C727 H743 0.961 . S
C728 C729 1.370 . S
C728 C730 1.363 . S
C728 H744 0.931 . S
C729 C728 1.370 . S
C729 C733 1.408 . S
C730 C728 1.363 . S
C730 C731 1.370 . S
C730 C734 1.524 . S
C731 C723 1.503 . S
C731 C730 1.370 . S
C731 C732 1.403 . S
C732 C731 1.403 . S
C732 C733 1.404 . S
C732 C735 1.539 . S
C733 C729 1.408 . S
C733 C732 1.404 . S
C733 H745 0.930 . S
C734 C730 1.524 . S
C734 H746 0.956 . S
C734 H747 0.961 . S
C734 H748 0.961 . S
C735 C732 1.539 . S
C735 H749 0.958 . S
C735 H750 0.961 . S
C735 H751 0.960 . S
H736 C720 0.931 . S
H737 C725 0.929 . S
H738 C726 0.960 . S
H739 C726 0.962 . S
H740 C726 0.960 . S
H741 C727 0.961 . S
H742 C727 0.961 . S
H743 C727 0.961 . S
H744 C728 0.931 . S
H745 C733 0.930 . S
H746 C734 0.956 . S
H747 C734 0.961 . S
H748 C734 0.961 . S
H749 C735 0.958 . S
H750 C735 0.961 . S
H751 C735 0.960 . S
C752 C753 1.391 . S
C752 C754 1.394 . S
C752 H768 0.931 . S
C753 C752 1.391 . S
C753 C757 1.376 . S
C754 C752 1.394 . S
C754 C755 1.369 . S
C754 C758 1.531 . S
C755 C754 1.369 . S
C755 C756 1.410 . S
C755 C763 1.503 . S
C756 C755 1.410 . S
C756 C757 1.392 . S
C756 C759 1.511 . S
C757 C753 1.376 . S
C757 C756 1.392 . S
C757 H769 0.929 . S
C758 C754 1.531 . S
C758 H770 0.960 . S
C758 H771 0.962 . S
C758 H772 0.960 . S
C759 C756 1.511 . S
C759 H773 0.961 . S
C759 H774 0.961 . S
C759 H775 0.961 . S
C760 C761 1.370 . S
C760 C762 1.363 . S
C760 H776 0.931 . S
C761 C760 1.370 . S
C761 C765 1.408 . S
C762 C760 1.363 . S
C762 C763 1.370 . S
C762 C766 1.524 . S
C763 C755 1.503 . S
C763 C762 1.370 . S
C763 C764 1.403 . S
C764 C763 1.403 . S
C764 C765 1.404 . S
C764 C767 1.539 . S
C765 C761 1.408 . S
C765 C764 1.404 . S
C765 H777 0.930 . S
C766 C762 1.524 . S
C766 H778 0.956 . S
C766 H779 0.961 . S
C766 H780 0.961 . S
C767 C764 1.539 . S
C767 H781 0.958 . S
C767 H782 0.961 . S
C767 H783 0.960 . S
H768 C752 0.931 . S
H769 C757 0.929 . S
H770 C758 0.960 . S
H771 C758 0.962 . S
H772 C758 0.960 . S
H773 C759 0.961 . S
H774 C759 0.961 . S
H775 C759 0.961 . S
H776 C760 0.931 . S
H777 C765 0.930 . S
H778 C766 0.956 . S
H779 C766 0.961 . S
H780 C766 0.961 . S
H781 C767 0.958 . S
H782 C767 0.961 . S
H783 C767 0.960 . S
C784 C785 1.391 . S
C784 C786 1.394 . S
C784 H800 0.931 . S
C785 C784 1.391 . S
C785 C789 1.376 . S
C786 C784 1.394 . S
C786 C787 1.369 . S
C786 C790 1.531 . S
C787 C786 1.369 . S
C787 C788 1.410 . S
C787 C795 1.503 . S
C788 C787 1.410 . S
C788 C789 1.392 . S
C788 C791 1.511 . S
C789 C785 1.376 . S
C789 C788 1.392 . S
C789 H801 0.929 . S
C790 C786 1.531 . S
C790 H802 0.960 . S
C790 H803 0.962 . S
C790 H804 0.960 . S
C791 C788 1.511 . S
C791 H805 0.961 . S
C791 H806 0.961 . S
C791 H807 0.961 . S
C792 C793 1.370 . S
C792 C794 1.363 . S
C792 H808 0.931 . S
C793 C792 1.370 . S
C793 C797 1.408 . S
C794 C792 1.363 . S
C794 C795 1.370 . S
C794 C798 1.524 . S
C795 C787 1.503 . S
C795 C794 1.370 . S
C795 C796 1.403 . S
C796 C795 1.403 . S
C796 C797 1.404 . S
C796 C799 1.539 . S
C797 C793 1.408 . S
C797 C796 1.404 . S
C797 H809 0.930 . S
C798 C794 1.524 . S
C798 H810 0.956 . S
C798 H811 0.961 . S
C798 H812 0.961 . S
C799 C796 1.539 . S
C799 H813 0.958 . S
C799 H814 0.961 . S
C799 H815 0.960 . S
H800 C784 0.931 . S
H801 C789 0.929 . S
H802 C790 0.960 . S
H803 C790 0.962 . S
H804 C790 0.960 . S
H805 C791 0.961 . S
H806 C791 0.961 . S
H807 C791 0.961 . S
H808 C792 0.931 . S
H809 C797 0.930 . S
H810 C798 0.956 . S
H811 C798 0.961 . S
H812 C798 0.961 . S
H813 C799 0.958 . S
H814 C799 0.961 . S
H815 C799 0.960 . S
C241 C218 1.277 . S
C249 C19 1.381 . S
C273 C18 1.353 . S
C281 C59 1.387 . S
C305 C58 1.319 . S
C313 C99 1.385 . S
C337 C98 1.349 . S
C345 C139 1.386 . S
C369 C179 1.375 . S
C377 C138 1.308 . S
C401 C219 1.374 . S
C409 C178 1.302 . S
C433 C15 1.381 . S
C441 C5 1.406 . S
C465 C55 1.417 1_556 S
C473 C45 1.396 . S
C497 C95 1.374 . S
C505 C85 1.409 1_554 S
C529 C135 1.363 . S
C537 C125 1.417 . S
C561 C165 1.411 . S
C569 C175 1.399 1_556 S
C593 C215 1.393 . S
C601 C205 1.406 1_554 S
C625 C9 1.725 . S
C633 C168 1.727 . S
C657 C49 1.735 . S
C665 C208 1.725 . S
C689 C8 1.728 . S
C697 C89 1.727 . S
C721 C48 1.720 . S
C729 C129 1.726 . S
C753 C169 1.723 . S
C761 C88 1.731 . S
C785 C128 1.729 . S
C793 C209 1.722 . S
