# Generated by pormake.
# Topology uop, (4)-cn, num edge types: 1
# Building blocks:
#     Node 0, Type 0, BuildingBlock: MUDLON_clean_sbu_0, # of connection points: 4
#     Node 1, Type 0, BuildingBlock: MUDLON_clean_sbu_0, # of connection points: 4
#     Node 2, Type 0, BuildingBlock: MUDLON_clean_sbu_0, # of connection points: 4
#     Node 3, Type 0, BuildingBlock: MUDLON_clean_sbu_0, # of connection points: 4
#     Node 4, Type 0, BuildingBlock: MUDLON_clean_sbu_0, # of connection points: 4
#     Node 5, Type 0, BuildingBlock: MUDLON_clean_sbu_0, # of connection points: 4
#     Node 6, Type 0, BuildingBlock: MUDLON_clean_sbu_0, # of connection points: 4
#     Node 7, Type 0, BuildingBlock: MUDLON_clean_sbu_0, # of connection points: 4
#     Node 8, Type 0, BuildingBlock: MUDLON_clean_sbu_0, # of connection points: 4
#     Node 9, Type 0, BuildingBlock: MUDLON_clean_sbu_0, # of connection points: 4
#     Node 10, Type 0, BuildingBlock: MUDLON_clean_sbu_0, # of connection points: 4
#     Node 11, Type 0, BuildingBlock: MUDLON_clean_sbu_0, # of connection points: 4
#     Edge 12, Type (0, 0), BuildingBlock: OJICUG_clean_linker_0, # of connection points: 2
#     Edge 13, Type (0, 0), BuildingBlock: OJICUG_clean_linker_0, # of connection points: 2
#     Edge 14, Type (0, 0), BuildingBlock: OJICUG_clean_linker_0, # of connection points: 2
#     Edge 15, Type (0, 0), BuildingBlock: OJICUG_clean_linker_0, # of connection points: 2
#     Edge 16, Type (0, 0), BuildingBlock: OJICUG_clean_linker_0, # of connection points: 2
#     Edge 17, Type (0, 0), BuildingBlock: OJICUG_clean_linker_0, # of connection points: 2
#     Edge 18, Type (0, 0), BuildingBlock: OJICUG_clean_linker_0, # of connection points: 2
#     Edge 19, Type (0, 0), BuildingBlock: OJICUG_clean_linker_0, # of connection points: 2
#     Edge 20, Type (0, 0), BuildingBlock: OJICUG_clean_linker_0, # of connection points: 2
#     Edge 21, Type (0, 0), BuildingBlock: OJICUG_clean_linker_0, # of connection points: 2
#     Edge 22, Type (0, 0), BuildingBlock: OJICUG_clean_linker_0, # of connection points: 2
#     Edge 23, Type (0, 0), BuildingBlock: OJICUG_clean_linker_0, # of connection points: 2
#     Edge 24, Type (0, 0), BuildingBlock: OJICUG_clean_linker_0, # of connection points: 2
#     Edge 25, Type (0, 0), BuildingBlock: OJICUG_clean_linker_0, # of connection points: 2
#     Edge 26, Type (0, 0), BuildingBlock: OJICUG_clean_linker_0, # of connection points: 2
#     Edge 27, Type (0, 0), BuildingBlock: OJICUG_clean_linker_0, # of connection points: 2
#     Edge 28, Type (0, 0), BuildingBlock: OJICUG_clean_linker_0, # of connection points: 2
#     Edge 29, Type (0, 0), BuildingBlock: OJICUG_clean_linker_0, # of connection points: 2
#     Edge 30, Type (0, 0), BuildingBlock: OJICUG_clean_linker_0, # of connection points: 2
#     Edge 31, Type (0, 0), BuildingBlock: OJICUG_clean_linker_0, # of connection points: 2
#     Edge 32, Type (0, 0), BuildingBlock: OJICUG_clean_linker_0, # of connection points: 2
#     Edge 33, Type (0, 0), BuildingBlock: OJICUG_clean_linker_0, # of connection points: 2
#     Edge 34, Type (0, 0), BuildingBlock: OJICUG_clean_linker_0, # of connection points: 2
#     Edge 35, Type (0, 0), BuildingBlock: OJICUG_clean_linker_0, # of connection points: 2
# Relax obj value: 0.174
# Max RMSD: 0.296
# Mean RMSD: 0.296
data_MOF--net-uop--node1-MUDLON_clean_sbu_0--edge1-OJICUG_clean_linker_0
_symmetry_space_group_name_H-M    P1
_symmetry_Int_Tables_number       1
_symmetry_cell_setting            triclinic
loop_
_symmetry_equiv_pos_as_xyz
'x, y, z'
_cell_length_a     24.738675
_cell_length_b     25.110278
_cell_length_c     35.403926
_cell_angle_alpha  90.140706
_cell_angle_beta   89.535224
_cell_angle_gamma 119.39763
loop_
_atom_site_label
_atom_site_type_symbol
_atom_site_fract_x
_atom_site_fract_y
_atom_site_fract_z
_atom_type_partial_charge
Mg0 Mg 0.28443 0.41321 0.21141 0.0
C1 C 0.27199 0.51478 0.17735 0.0
O2 O 0.28602 0.49186 0.14791 0.0
C3 C 0.26967 0.35242 0.28796 0.0
O4 O 0.21175 0.32117 0.2769 0.0
C5 C 0.16838 0.32639 0.16526 0.0
O6 O 0.19599 0.36637 0.13804 0.0
O7 O 0.19707 0.33259 0.19601 0.0
O8 O 0.2668 0.49019 0.20958 0.0
O9 O 0.36978 0.44267 0.1785 0.0
C10 C 0.409 0.49834 0.18543 0.0
O11 O 0.39282 0.52878 0.20887 0.0
O12 O 0.3089 0.39566 0.26722 0.0
Mg13 Mg 0.87969 0.26454 0.52699 0.0
C14 C 0.934 0.37613 0.47707 0.0
O15 O 0.87557 0.36265 0.47683 0.0
C16 C 0.8056 0.13197 0.52447 0.0
O17 O 0.77528 0.14956 0.54728 0.0
C18 C 0.92933 0.24827 0.60211 0.0
O19 O 0.9121 0.19385 0.58806 0.0
O20 O 0.91853 0.28536 0.58362 0.0
O21 O 0.9482 0.3389 0.49245 0.0
O22 O 0.79331 0.26684 0.52178 0.0
C23 C 0.75744 0.26265 0.54884 0.0
O24 O 0.77297 0.25835 0.58365 0.0
O25 O 0.85722 0.17219 0.5106 0.0
Mg26 Mg 0.61754 0.85492 0.8583 0.0
C27 C 0.51069 0.74268 0.82982 0.0
O28 O 0.5327 0.77674 0.79939 0.0
C29 C 0.70228 0.94113 0.91724 0.0
O30 O 0.74246 0.94942 0.89026 0.0
C31 C 0.71412 0.81758 0.85668 0.0
O32 O 0.69371 0.80613 0.89174 0.0
O33 O 0.6919 0.84186 0.83459 0.0
O34 O 0.53725 0.76403 0.86125 0.0
O35 O 0.58735 0.90932 0.82628 0.0
C36 C 0.62243 0.96648 0.82198 0.0
O37 O 0.68089 0.99089 0.83184 0.0
O38 O 0.64554 0.90142 0.91263 0.0
Mg39 Mg 0.77856 0.60326 0.2086 0.0
C40 C 0.78294 0.49773 0.17633 0.0
O41 O 0.77759 0.52621 0.14672 0.0
C42 C 0.7722 0.68354 0.26969 0.0
O43 O 0.80643 0.72475 0.24433 0.0
C44 C 0.91123 0.69442 0.21532 0.0
O45 O 0.89554 0.67065 0.24935 0.0
O46 O 0.86949 0.67601 0.19006 0.0
O47 O 0.78508 0.52009 0.20896 0.0
O48 O 0.69789 0.57973 0.17378 0.0
C49 C 0.67246 0.61303 0.17351 0.0
O50 O 0.70229 0.66782 0.18852 0.0
O51 O 0.75506 0.62757 0.26325 0.0
Mg52 Mg 0.16389 0.7492 0.52026 0.0
C53 C 0.11939 0.62709 0.4858 0.0
O54 O 0.17069 0.63707 0.50254 0.0
C55 C 0.19363 0.87969 0.52325 0.0
O56 O 0.19406 0.86737 0.55925 0.0
C57 C 0.14264 0.74167 0.60731 0.0
O58 O 0.20346 0.77006 0.60946 0.0
O59 O 0.11717 0.72905 0.57507 0.0
O60 O 0.10473 0.66916 0.4863 0.0
O61 O 0.25515 0.75638 0.51892 0.0
C62 C 0.27927 0.76626 0.48599 0.0
O63 O 0.24927 0.77405 0.45798 0.0
O64 O 0.17841 0.83681 0.49933 0.0
Mg65 Mg 0.43243 0.16205 0.86706 0.0
C66 C 0.5307 0.28106 0.83676 0.0
O67 O 0.50043 0.25293 0.80614 0.0
C68 C 0.3533 0.08842 0.93319 0.0
O69 O 0.31082 0.09158 0.91281 0.0
C70 C 0.34182 0.18063 0.81576 0.0
O71 O 0.37096 0.17051 0.78787 0.0
O72 O 0.35566 0.17572 0.84958 0.0
O73 O 0.51208 0.25398 0.86847 0.0
O74 O 0.45975 0.10642 0.83251 0.0
C75 C 0.51776 0.12447 0.83213 0.0
O76 O 0.55531 0.17604 0.84904 0.0
O77 O 0.40948 0.11638 0.92188 0.0
Mg78 Mg 0.6201 0.74698 0.47564 0.0
C79 C 0.56092 0.63526 0.52532 0.0
O80 O 0.51585 0.64864 0.52493 0.0
C81 C 0.67951 0.87971 0.4782 0.0
O82 O 0.63255 0.8628 0.45519 0.0
C83 C 0.69293 0.75992 0.40375 0.0
O84 O 0.73278 0.81051 0.42079 0.0
O85 O 0.64038 0.72606 0.41921 0.0
O86 O 0.61295 0.67256 0.51038 0.0
O87 O 0.53161 0.74545 0.4807 0.0
C88 C 0.50093 0.75058 0.45374 0.0
O89 O 0.52181 0.75555 0.41895 0.0
O90 O 0.68976 0.83898 0.49227 0.0
Mg91 Mg 0.88327 0.60374 0.79606 0.0
C92 C 0.7644 0.50611 0.82376 0.0
O93 O 0.79456 0.53413 0.85446 0.0
C94 C 0.99032 0.67052 0.74316 0.0
O95 O 1.0168 0.68856 0.77625 0.0
C96 C 0.85235 0.70358 0.80022 0.0
O97 O 0.85024 0.69266 0.76379 0.0
O98 O 0.8699 0.67508 0.82227 0.0
O99 O 0.79044 0.52631 0.79183 0.0
O100 O 0.93183 0.56528 0.82687 0.0
C101 C 0.97904 0.59083 0.84804 0.0
O102 O 1.00289 0.64911 0.85619 0.0
O103 O 0.93196 0.63457 0.742 0.0
Mg104 Mg 0.28424 0.8587 0.13036 0.0
C105 C 0.26677 0.74148 0.16146 0.0
O106 O 0.25685 0.76683 0.19127 0.0
C107 C 0.27756 0.9323 0.06547 0.0
O108 O 0.23445 0.93131 0.08783 0.0
C109 C 0.17335 0.8376 0.18165 0.0
O110 O 0.21387 0.85385 0.20908 0.0
O111 O 0.19153 0.83943 0.14777 0.0
O112 O 0.2799 0.77003 0.13011 0.0
O113 O 0.36374 0.92092 0.16443 0.0
C114 C 0.40802 0.90896 0.16736 0.0
O115 O 0.3998 0.85643 0.15448 0.0
O116 O 0.30489 0.90277 0.0751 0.0
Mg117 Mg 0.42325 0.26326 0.48127 0.0
C118 C 0.49765 0.38477 0.5166 0.0
O119 O 0.54014 0.37516 0.50059 0.0
C120 C 0.32695 0.13234 0.47646 0.0
O121 O 0.34779 0.14467 0.44152 0.0
C122 C 0.34622 0.27605 0.42209 0.0
O123 O 0.30715 0.25313 0.45062 0.0
O124 O 0.40083 0.28395 0.42574 0.0
O125 O 0.44118 0.34262 0.51528 0.0
O126 O 0.50721 0.25606 0.48378 0.0
C127 C 0.5208 0.24679 0.51683 0.0
O128 O 0.48252 0.23951 0.54481 0.0
O129 O 0.34854 0.17537 0.50063 0.0
Mg130 Mg 0.16896 0.40486 0.79588 0.0
C131 C 0.29542 0.50174 0.81884 0.0
O132 O 0.28092 0.4623 0.84662 0.0
C133 C 0.07819 0.32451 0.73754 0.0
O134 O 0.06661 0.28494 0.76487 0.0
C135 C 0.21184 0.3146 0.78646 0.0
O136 O 0.21639 0.33684 0.7523 0.0
O137 O 0.19005 0.33342 0.81282 0.0
O138 O 0.25728 0.48913 0.79189 0.0
O139 O 0.10781 0.42373 0.83162 0.0
C140 C 0.12826 0.47437 0.84908 0.0
O141 O 0.18845 0.51048 0.85134 0.0
O142 O 0.12115 0.37948 0.7419 0.0
Mg143 Mg 0.77741 0.15862 0.12096 0.0
C144 C 0.79188 0.27331 0.15544 0.0
O145 O 0.80528 0.24855 0.18396 0.0
C146 C 0.78531 0.09792 0.04879 0.0
O147 O 0.83915 0.11167 0.06354 0.0
C148 C 0.90089 0.18298 0.16093 0.0
O149 O 0.86877 0.16528 0.19258 0.0
O150 O 0.87356 0.18146 0.13037 0.0
O151 O 0.77803 0.24554 0.12385 0.0
O152 O 0.70304 0.09367 0.15796 0.0
C153 C 0.65856 0.10432 0.16487 0.0
O154 O 0.66458 0.15712 0.15447 0.0
O155 O 0.75073 0.11489 0.06569 0.0
C156 C 0.27692 0.65478 0.1337 0.0
C157 C 0.26544 0.68211 0.16512 0.0
H158 H 0.2876 0.58046 0.11291 0.0
C159 C 0.25388 0.65277 0.20045 0.0
H160 H 0.28584 0.67609 0.1061 0.0
C161 C 0.25496 0.5979 0.20441 0.0
C162 C 0.26748 0.57112 0.17312 0.0
H163 H 0.24472 0.67252 0.22524 0.0
H164 H 0.2467 0.57691 0.23209 0.0
C165 C 0.27787 0.59988 0.13765 0.0
C166 C 0.65421 0.24862 0.56984 0.0
C167 C 0.69704 0.25894 0.54066 0.0
H168 H 0.56496 0.23613 0.58515 0.0
C169 C 0.68103 0.2643 0.50334 0.0
H170 H 0.66492 0.24404 0.59885 0.0
C171 C 0.62357 0.25968 0.49543 0.0
C172 C 0.58081 0.24945 0.52465 0.0
H173 H 0.71292 0.27217 0.48014 0.0
H174 H 0.61284 0.2644 0.46645 0.0
C175 C 0.59674 0.24385 0.56192 0.0
C176 C 0.43792 0.63978 0.85764 0.0
C177 C 0.45622 0.68062 0.82704 0.0
H178 H 0.37333 0.55099 0.87886 0.0
C179 C 0.42215 0.66155 0.79335 0.0
H180 H 0.46335 0.65297 0.8839 0.0
C181 C 0.3704 0.60325 0.79049 0.0
C182 C 0.35189 0.56247 0.82113 0.0
H183 H 0.43502 0.69189 0.76921 0.0
H184 H 0.34476 0.59026 0.7643 0.0
C185 C 0.38648 0.58121 0.85465 0.0
C186 C 0.7773 0.41392 0.13521 0.0
C187 C 0.78575 0.44054 0.17123 0.0
H188 H 0.77246 0.3404 0.10194 0.0
C189 C 0.79674 0.41195 0.20195 0.0
H190 H 0.76868 0.43469 0.1109 0.0
C191 C 0.79921 0.35792 0.19673 0.0
C192 C 0.79039 0.33114 0.16072 0.0
H193 H 0.80353 0.43131 0.23003 0.0
H194 H 0.80767 0.33698 0.22102 0.0
C195 C 0.77943 0.35977 0.13003 0.0
C196 C 0.42138 0.74799 0.49932 0.0
C197 C 0.44411 0.75439 0.46205 0.0
H198 H 0.35175 0.74696 0.53622 0.0
C199 C 0.41277 0.76576 0.43302 0.0
H200 H 0.44449 0.7393 0.5224 0.0
C201 C 0.35987 0.77048 0.44102 0.0
C202 C 0.33692 0.76376 0.47822 0.0
H203 H 0.42913 0.77118 0.40406 0.0
H204 H 0.33675 0.779 0.41787 0.0
C205 C 0.36831 0.75255 0.50731 0.0
C206 C 0.61284 0.3658 0.79786 0.0
C207 C 0.58862 0.34052 0.8336 0.0
H208 H 0.68729 0.43778 0.76662 0.0
C209 C 0.62152 0.37145 0.86599 0.0
H210 H 0.58864 0.34315 0.77229 0.0
C211 C 0.67796 0.42583 0.86269 0.0
C212 C 0.70293 0.45034 0.82693 0.0
H213 H 0.60411 0.35332 0.89391 0.0
H214 H 0.70248 0.44807 0.88825 0.0
C215 C 0.66945 0.42004 0.79455 0.0
C216 C 0.56816 0.52115 0.16114 0.0
C217 C 0.6049 0.58479 0.16633 0.0
H218 H 0.47642 0.44328 0.16277 0.0
C219 C 0.57522 0.61984 0.17072 0.0
H220 H 0.58954 0.49277 0.15743 0.0
C221 C 0.51073 0.59147 0.17383 0.0
C222 C 0.47435 0.52745 0.17242 0.0
H223 H 0.60189 0.66894 0.1743 0.0
H224 H 0.4896 0.61962 0.17958 0.0
C225 C 0.5033 0.49268 0.16412 0.0
C226 C 0.09107 0.518 0.47589 0.0
C227 C 0.07448 0.56409 0.47393 0.0
H228 H 0.05967 0.42208 0.47779 0.0
C229 C 1.01278 0.54759 0.46569 0.0
H230 H 0.13845 0.52919 0.48157 0.0
C231 C 0.96752 0.4859 0.46329 0.0
C232 C 0.98317 0.43971 0.46925 0.0
H233 H 0.99861 0.582 0.46362 0.0
H234 H 0.91967 0.4746 0.45944 0.0
C235 C 0.04589 0.45645 0.47363 0.0
C236 C 0.6072 0.10851 0.81654 0.0
C237 C 0.54262 0.08415 0.8199 0.0
H238 H 0.68306 0.09046 0.81384 0.0
C239 C 0.50405 0.02059 0.81711 0.0
H240 H 0.63822 0.15739 0.81804 0.0
C241 C 0.52995 0.98197 0.81469 0.0
C242 C 0.59483 1.00633 0.81499 0.0
H243 H 0.45413 1.00044 0.81948 0.0
H244 H 0.49912 0.933 0.81512 0.0
C245 C 0.633 0.07008 0.81409 0.0
C246 C 0.48449 0.52533 0.53836 0.0
C247 C 0.54646 0.57171 0.53325 0.0
H248 H 0.42011 0.4292 0.53731 0.0
C249 C 0.5929 0.55522 0.52976 0.0
H250 H 0.44757 0.53645 0.54151 0.0
C251 C 0.5771 0.49376 0.5275 0.0
C252 C 0.51455 0.44753 0.52856 0.0
H253 H 0.64114 0.58975 0.52628 0.0
H254 H 0.61378 0.48278 0.5225 0.0
C255 C 0.46865 0.46374 0.53595 0.0
C256 C 0.98706 0.49516 0.84729 0.0
C257 C 1.01297 0.55738 0.85679 0.0
H258 H 1.00277 0.41959 0.83805 0.0
C259 C 0.07415 0.58857 0.87012 0.0
H260 H 0.93973 0.46943 0.83742 0.0
C261 C 0.11036 0.55978 0.87057 0.0
C262 C 0.08611 0.49925 0.8577 0.0
H263 H 0.0954 0.63631 0.87797 0.0
H264 H 0.15851 0.58632 0.8788 0.0
C265 C 1.0232 0.46641 0.84776 0.0
C266 C 0.48506 0.01868 0.18074 0.0
C267 C 0.47175 0.95782 0.17651 0.0
H268 H 0.55499 0.1129 0.18112 0.0
C269 C 0.52139 0.94533 0.17557 0.0
H270 H 0.44805 0.02994 0.18193 0.0
C271 C 0.58289 0.99298 0.17504 0.0
C272 C 0.59598 0.0541 0.17544 0.0
H273 H 0.51283 0.89887 0.1728 0.0
H274 H 0.6198 0.98189 0.17169 0.0
C275 C 0.54653 0.06631 0.18021 0.0
C276 C 0.24556 0.29357 0.34855 0.0
C277 C 0.28978 0.33419 0.32262 0.0
H278 H 0.22874 0.24351 0.40016 0.0
C279 C 0.35304 0.35503 0.32937 0.0
H280 H 0.1965 0.27652 0.34416 0.0
C281 C 0.37153 0.33528 0.36125 0.0
C282 C 0.32721 0.29501 0.38731 0.0
H283 H 0.38827 0.38601 0.30978 0.0
H284 H 0.42055 0.35218 0.36573 0.0
C285 C 0.26408 0.27456 0.38064 0.0
C286 C 1.00139 0.33028 0.64641 0.0
C287 C 0.9657 0.2679 0.63743 0.0
H288 H 0.06583 0.39722 0.68471 0.0
C289 C 0.96739 0.22449 0.66164 0.0
H290 H 1.00144 0.3649 0.6282 0.0
C291 C 1.00381 0.24299 0.69415 0.0
C292 C 0.04019 0.30536 0.70286 0.0
H293 H 0.9405 0.17611 0.6555 0.0
H294 H 1.00394 0.20835 0.71226 0.0
C295 C 0.03866 0.34885 0.67863 0.0
C296 C 0.68005 0.98756 0.97414 0.0
C297 C 0.72277 0.98035 0.95129 0.0
H298 H 0.66639 0.03145 0.02247 0.0
C299 C 0.78607 0.01303 0.96037 0.0
H300 H 0.63101 0.96338 0.96768 0.0
C301 C 0.80622 0.05153 0.99181 0.0
C302 C 0.76369 0.0591 0.01458 0.0
H303 H 0.82017 1.00855 0.94331 0.0
H304 H 0.85529 0.07554 0.99821 0.0
C305 C 0.70038 0.02696 0.00531 0.0
C306 C 0.76303 0.78258 0.3476 0.0
C307 C 0.71147 0.74032 0.36875 0.0
H308 H 0.82237 0.79778 0.29978 0.0
C309 C 0.68 0.67884 0.35718 0.0
H310 H 0.78832 0.83023 0.35578 0.0
C311 C 0.70029 0.65996 0.3254 0.0
C312 C 0.75177 0.70239 0.30421 0.0
H313 H 0.64037 0.64506 0.37305 0.0
H314 H 0.67524 0.61231 0.3172 0.0
C315 C 0.78261 0.76394 0.31553 0.0
C316 C 0.13075 0.74195 0.67781 0.0
C317 C 0.10355 0.72427 0.64203 0.0
H318 H 0.11648 0.73928 0.73759 0.0
C319 C 0.03845 0.68954 0.63971 0.0
H320 H 0.18065 0.76882 0.68066 0.0
C321 C 1.00152 0.67241 0.67242 0.0
C322 C 1.0288 0.68985 0.70821 0.0
H323 H 1.01589 0.67511 0.61259 0.0
H324 H 0.95163 0.6453 0.66965 0.0
C325 C 0.09383 0.72507 0.71049 0.0
C326 C 0.258 0.99177 0.01606 0.0
C327 C 0.29673 0.97095 0.03106 0.0
H328 H 0.24541 0.04491 0.97342 0.0
C329 C 0.35479 0.9897 0.01388 0.0
H330 H 0.21304 0.97823 0.02867 0.0
C331 C 0.37388 0.02896 0.98257 0.0
C332 C 0.33485 0.04938 0.96743 0.0
H333 H 0.38589 0.97484 0.02496 0.0
H334 H 0.41884 0.04263 0.96992 0.0
C335 C 0.27661 0.03009 0.98442 0.0
C336 C 1.0042 0.23975 0.12806 0.0
C337 C 0.96972 0.21217 0.1611 0.0
H338 H 0.09374 0.29694 0.10338 0.0
C339 C 1.0019 0.21695 0.1946 0.0
H340 H 0.9811 0.23676 0.10164 0.0
C341 C 0.06683 0.25115 0.19547 0.0
C342 C 0.101 0.28178 0.16293 0.0
H343 H 0.97691 0.196 0.22049 0.0
H344 H 0.08996 0.25583 0.22211 0.0
C345 C 0.06897 0.27431 0.12901 0.0
C346 C 0.80923 0.03678 0.50604 0.0
C347 C 0.77551 0.06765 0.51229 0.0
H348 H 0.80463 0.95131 0.49134 0.0
C349 C 0.71096 0.03615 0.50762 0.0
H350 H 0.85907 0.06023 0.50968 0.0
C351 C 0.68052 0.97526 0.49638 0.0
C352 C 0.71364 0.94385 0.49062 0.0
H353 H 0.68391 0.05894 0.51215 0.0
H354 H 0.63068 0.95243 0.49263 0.0
C355 C 0.77821 0.97472 0.49586 0.0
C356 C 0.80423 0.77015 0.79042 0.0
C357 C 0.82522 0.74063 0.81529 0.0
H358 H 0.75313 0.81803 0.78388 0.0
C359 C 0.81456 0.74211 0.8542 0.0
H360 H 0.81192 0.7702 0.76025 0.0
C361 C 0.78067 0.76945 0.86771 0.0
C362 C 0.75683 0.7961 0.84264 0.0
H363 H 0.83015 0.71999 0.87416 0.0
H364 H 0.77146 0.76784 0.89776 0.0
C365 C 0.7705 0.79766 0.80394 0.0
C366 C 0.99839 0.75295 0.16901 0.0
C367 C 0.97737 0.73764 0.20649 0.0
H368 H 0.07683 0.79691 0.13169 0.0
C369 C 1.02106 0.76072 0.23578 0.0
H370 H 0.96597 0.73609 0.1458 0.0
C371 C 0.08448 0.79574 0.22778 0.0
C372 C 0.10588 0.80833 0.19024 0.0
H373 H 1.00647 0.7503 0.26503 0.0
H374 H 0.11681 0.81095 0.25104 0.0
C375 C 0.06199 0.7878 0.16096 0.0
C376 C 0.23855 0.99125 0.53759 0.0
C377 C 0.21951 0.94406 0.51078 0.0
H378 H 0.28695 0.08772 0.54787 0.0
C379 C 0.23068 0.9596 0.47231 0.0
H380 H 0.23038 0.98092 0.56747 0.0
C381 C 0.26323 0.02092 0.4611 0.0
C382 C 0.28522 0.06807 0.48809 0.0
H383 H 0.2165 0.92445 0.45091 0.0
H384 H 0.27298 0.03123 0.43132 0.0
C385 C 0.27098 0.05258 0.52638 0.0
C386 C 0.26043 0.25296 0.76411 0.0
C387 C 0.23768 0.27341 0.79413 0.0
H388 H 0.3103 0.20714 0.74728 0.0
C389 C 0.24403 0.25759 0.83123 0.0
H390 H 0.25591 0.26383 0.73513 0.0
C391 C 0.2753 0.22483 0.8382 0.0
C392 C 0.30086 0.20714 0.80822 0.0
H393 H 0.22686 0.27239 0.85498 0.0
H394 H 0.28136 0.21532 0.86721 0.0
C395 C 0.29157 0.22022 0.77106 0.0
loop_
_geom_bond_atom_site_label_1
_geom_bond_atom_site_label_2
_geom_bond_distance
_geom_bond_site_symmetry_2
_ccdc_geom_bond_type
Mg0 O7 2.141 . S
Mg0 O8 2.048 . S
Mg0 O9 2.048 . S
Mg0 O12 2.141 . S
C1 O2 1.313 . S
C1 O8 1.195 . S
O2 C1 1.313 . S
C3 O4 1.245 . S
C3 O12 1.289 . S
O4 C3 1.245 . S
C5 O6 1.245 . S
C5 O7 1.289 . S
O6 C5 1.245 . S
O7 Mg0 2.141 . S
O7 C5 1.289 . S
O8 Mg0 2.048 . S
O8 C1 1.195 . S
O9 Mg0 2.048 . S
O9 C10 1.195 . S
C10 O9 1.195 . S
C10 O11 1.313 . S
O11 C10 1.313 . S
O12 Mg0 2.141 . S
O12 C3 1.289 . S
Mg13 O20 2.141 . S
Mg13 O21 2.048 . S
Mg13 O22 2.048 . S
Mg13 O25 2.141 . S
C14 O15 1.313 . S
C14 O21 1.195 . S
O15 C14 1.313 . S
C16 O17 1.245 . S
C16 O25 1.289 . S
O17 C16 1.245 . S
C18 O19 1.245 . S
C18 O20 1.289 . S
O19 C18 1.245 . S
O20 Mg13 2.141 . S
O20 C18 1.289 . S
O21 Mg13 2.048 . S
O21 C14 1.195 . S
O22 Mg13 2.048 . S
O22 C23 1.195 . S
C23 O22 1.195 . S
C23 O24 1.313 . S
O24 C23 1.313 . S
O25 Mg13 2.141 . S
O25 C16 1.289 . S
Mg26 O33 2.141 . S
Mg26 O34 2.048 . S
Mg26 O35 2.048 . S
Mg26 O38 2.141 . S
C27 O28 1.313 . S
C27 O34 1.195 . S
O28 C27 1.313 . S
C29 O30 1.245 . S
C29 O38 1.289 . S
O30 C29 1.245 . S
C31 O32 1.245 . S
C31 O33 1.289 . S
O32 C31 1.245 . S
O33 Mg26 2.141 . S
O33 C31 1.289 . S
O34 Mg26 2.048 . S
O34 C27 1.195 . S
O35 Mg26 2.048 . S
O35 C36 1.195 . S
C36 O35 1.195 . S
C36 O37 1.313 . S
O37 C36 1.313 . S
O38 Mg26 2.141 . S
O38 C29 1.289 . S
Mg39 O46 2.141 . S
Mg39 O47 2.048 . S
Mg39 O48 2.048 . S
Mg39 O51 2.141 . S
C40 O41 1.313 . S
C40 O47 1.195 . S
O41 C40 1.313 . S
C42 O43 1.245 . S
C42 O51 1.289 . S
O43 C42 1.245 . S
C44 O45 1.245 . S
C44 O46 1.289 . S
O45 C44 1.245 . S
O46 Mg39 2.141 . S
O46 C44 1.289 . S
O47 Mg39 2.048 . S
O47 C40 1.195 . S
O48 Mg39 2.048 . S
O48 C49 1.195 . S
C49 O48 1.195 . S
C49 O50 1.313 . S
O50 C49 1.313 . S
O51 Mg39 2.141 . S
O51 C42 1.289 . S
Mg52 O59 2.141 . S
Mg52 O60 2.048 . S
Mg52 O61 2.048 . S
Mg52 O64 2.141 . S
C53 O54 1.313 . S
C53 O60 1.195 . S
O54 C53 1.313 . S
C55 O56 1.245 . S
C55 O64 1.289 . S
O56 C55 1.245 . S
C57 O58 1.245 . S
C57 O59 1.289 . S
O58 C57 1.245 . S
O59 Mg52 2.141 . S
O59 C57 1.289 . S
O60 Mg52 2.048 . S
O60 C53 1.195 . S
O61 Mg52 2.048 . S
O61 C62 1.195 . S
C62 O61 1.195 . S
C62 O63 1.313 . S
O63 C62 1.313 . S
O64 Mg52 2.141 . S
O64 C55 1.289 . S
Mg65 O72 2.141 . S
Mg65 O73 2.048 . S
Mg65 O74 2.048 . S
Mg65 O77 2.141 . S
C66 O67 1.313 . S
C66 O73 1.195 . S
O67 C66 1.313 . S
C68 O69 1.245 . S
C68 O77 1.289 . S
O69 C68 1.245 . S
C70 O71 1.245 . S
C70 O72 1.289 . S
O71 C70 1.245 . S
O72 Mg65 2.141 . S
O72 C70 1.289 . S
O73 Mg65 2.048 . S
O73 C66 1.195 . S
O74 Mg65 2.048 . S
O74 C75 1.195 . S
C75 O74 1.195 . S
C75 O76 1.313 . S
O76 C75 1.313 . S
O77 Mg65 2.141 . S
O77 C68 1.289 . S
Mg78 O85 2.141 . S
Mg78 O86 2.048 . S
Mg78 O87 2.048 . S
Mg78 O90 2.141 . S
C79 O80 1.313 . S
C79 O86 1.195 . S
O80 C79 1.313 . S
C81 O82 1.245 . S
C81 O90 1.289 . S
O82 C81 1.245 . S
C83 O84 1.245 . S
C83 O85 1.289 . S
O84 C83 1.245 . S
O85 Mg78 2.141 . S
O85 C83 1.289 . S
O86 Mg78 2.048 . S
O86 C79 1.195 . S
O87 Mg78 2.048 . S
O87 C88 1.195 . S
C88 O87 1.195 . S
C88 O89 1.313 . S
O89 C88 1.313 . S
O90 Mg78 2.141 . S
O90 C81 1.289 . S
Mg91 O98 2.141 . S
Mg91 O99 2.048 . S
Mg91 O100 2.048 . S
Mg91 O103 2.141 . S
C92 O93 1.313 . S
C92 O99 1.195 . S
O93 C92 1.313 . S
C94 O95 1.245 . S
C94 O103 1.289 . S
O95 C94 1.245 . S
C96 O97 1.245 . S
C96 O98 1.289 . S
O97 C96 1.245 . S
O98 Mg91 2.141 . S
O98 C96 1.289 . S
O99 Mg91 2.048 . S
O99 C92 1.195 . S
O100 Mg91 2.048 . S
O100 C101 1.195 . S
C101 O100 1.195 . S
C101 O102 1.313 . S
O102 C101 1.313 . S
O103 Mg91 2.141 . S
O103 C94 1.289 . S
Mg104 O111 2.141 . S
Mg104 O112 2.048 . S
Mg104 O113 2.048 . S
Mg104 O116 2.141 . S
C105 O106 1.313 . S
C105 O112 1.195 . S
O106 C105 1.313 . S
C107 O108 1.245 . S
C107 O116 1.289 . S
O108 C107 1.245 . S
C109 O110 1.245 . S
C109 O111 1.289 . S
O110 C109 1.245 . S
O111 Mg104 2.141 . S
O111 C109 1.289 . S
O112 Mg104 2.048 . S
O112 C105 1.195 . S
O113 Mg104 2.048 . S
O113 C114 1.195 . S
C114 O113 1.195 . S
C114 O115 1.313 . S
O115 C114 1.313 . S
O116 Mg104 2.141 . S
O116 C107 1.289 . S
Mg117 O124 2.141 . S
Mg117 O125 2.048 . S
Mg117 O126 2.048 . S
Mg117 O129 2.141 . S
C118 O119 1.313 . S
C118 O125 1.195 . S
O119 C118 1.313 . S
C120 O121 1.245 . S
C120 O129 1.289 . S
O121 C120 1.245 . S
C122 O123 1.245 . S
C122 O124 1.289 . S
O123 C122 1.245 . S
O124 Mg117 2.141 . S
O124 C122 1.289 . S
O125 Mg117 2.048 . S
O125 C118 1.195 . S
O126 Mg117 2.048 . S
O126 C127 1.195 . S
C127 O126 1.195 . S
C127 O128 1.313 . S
O128 C127 1.313 . S
O129 Mg117 2.141 . S
O129 C120 1.289 . S
Mg130 O137 2.141 . S
Mg130 O138 2.048 . S
Mg130 O139 2.048 . S
Mg130 O142 2.141 . S
C131 O132 1.313 . S
C131 O138 1.195 . S
O132 C131 1.313 . S
C133 O134 1.245 . S
C133 O142 1.289 . S
O134 C133 1.245 . S
C135 O136 1.245 . S
C135 O137 1.289 . S
O136 C135 1.245 . S
O137 Mg130 2.141 . S
O137 C135 1.289 . S
O138 Mg130 2.048 . S
O138 C131 1.195 . S
O139 Mg130 2.048 . S
O139 C140 1.195 . S
C140 O139 1.195 . S
C140 O141 1.313 . S
O141 C140 1.313 . S
O142 Mg130 2.141 . S
O142 C133 1.289 . S
Mg143 O150 2.141 . S
Mg143 O151 2.048 . S
Mg143 O152 2.048 . S
Mg143 O155 2.141 . S
C144 O145 1.313 . S
C144 O151 1.195 . S
O145 C144 1.313 . S
C146 O147 1.245 . S
C146 O155 1.289 . S
O147 C146 1.245 . S
C148 O149 1.245 . S
C148 O150 1.289 . S
O149 C148 1.245 . S
O150 Mg143 2.141 . S
O150 C148 1.289 . S
O151 Mg143 2.048 . S
O151 C144 1.195 . S
O152 Mg143 2.048 . S
O152 C153 1.195 . S
C153 O152 1.195 . S
C153 O154 1.313 . S
O154 C153 1.313 . S
O155 Mg143 2.141 . S
O155 C146 1.289 . S
C156 C157 1.387 . S
C156 H160 0.950 . S
C156 C165 1.390 . S
C157 C156 1.387 . S
C157 C159 1.387 . S
H158 C165 0.950 . S
C159 C157 1.387 . S
C159 C161 1.390 . S
C159 H163 0.950 . S
H160 C156 0.950 . S
C161 C159 1.390 . S
C161 C162 1.387 . S
C161 H164 0.950 . S
C162 C161 1.387 . S
C162 C165 1.387 . S
H163 C159 0.950 . S
H164 C161 0.950 . S
C165 C156 1.390 . S
C165 H158 0.950 . S
C165 C162 1.387 . S
C166 C167 1.387 . S
C166 H170 0.950 . S
C166 C175 1.390 . S
C167 C166 1.387 . S
C167 C169 1.387 . S
H168 C175 0.950 . S
C169 C167 1.387 . S
C169 C171 1.390 . S
C169 H173 0.950 . S
H170 C166 0.950 . S
C171 C169 1.390 . S
C171 C172 1.387 . S
C171 H174 0.950 . S
C172 C171 1.387 . S
C172 C175 1.387 . S
H173 C169 0.950 . S
H174 C171 0.950 . S
C175 C166 1.390 . S
C175 H168 0.950 . S
C175 C172 1.387 . S
C176 C177 1.387 . S
C176 H180 0.950 . S
C176 C185 1.390 . S
C177 C176 1.387 . S
C177 C179 1.387 . S
H178 C185 0.950 . S
C179 C177 1.387 . S
C179 C181 1.390 . S
C179 H183 0.950 . S
H180 C176 0.950 . S
C181 C179 1.390 . S
C181 C182 1.387 . S
C181 H184 0.950 . S
C182 C181 1.387 . S
C182 C185 1.387 . S
H183 C179 0.950 . S
H184 C181 0.950 . S
C185 C176 1.390 . S
C185 H178 0.950 . S
C185 C182 1.387 . S
C186 C187 1.387 . S
C186 H190 0.950 . S
C186 C195 1.390 . S
C187 C186 1.387 . S
C187 C189 1.387 . S
H188 C195 0.950 . S
C189 C187 1.387 . S
C189 C191 1.390 . S
C189 H193 0.950 . S
H190 C186 0.950 . S
C191 C189 1.390 . S
C191 C192 1.387 . S
C191 H194 0.950 . S
C192 C191 1.387 . S
C192 C195 1.387 . S
H193 C189 0.950 . S
H194 C191 0.950 . S
C195 C186 1.390 . S
C195 H188 0.950 . S
C195 C192 1.387 . S
C196 C197 1.387 . S
C196 H200 0.950 . S
C196 C205 1.390 . S
C197 C196 1.387 . S
C197 C199 1.387 . S
H198 C205 0.950 . S
C199 C197 1.387 . S
C199 C201 1.390 . S
C199 H203 0.950 . S
H200 C196 0.950 . S
C201 C199 1.390 . S
C201 C202 1.387 . S
C201 H204 0.950 . S
C202 C201 1.387 . S
C202 C205 1.387 . S
H203 C199 0.950 . S
H204 C201 0.950 . S
C205 C196 1.390 . S
C205 H198 0.950 . S
C205 C202 1.387 . S
C206 C207 1.387 . S
C206 H210 0.950 . S
C206 C215 1.390 . S
C207 C206 1.387 . S
C207 C209 1.387 . S
H208 C215 0.950 . S
C209 C207 1.387 . S
C209 C211 1.390 . S
C209 H213 0.950 . S
H210 C206 0.950 . S
C211 C209 1.390 . S
C211 C212 1.387 . S
C211 H214 0.950 . S
C212 C211 1.387 . S
C212 C215 1.387 . S
H213 C209 0.950 . S
H214 C211 0.950 . S
C215 C206 1.390 . S
C215 H208 0.950 . S
C215 C212 1.387 . S
C216 C217 1.387 . S
C216 H220 0.950 . S
C216 C225 1.390 . S
C217 C216 1.387 . S
C217 C219 1.387 . S
H218 C225 0.950 . S
C219 C217 1.387 . S
C219 C221 1.390 . S
C219 H223 0.950 . S
H220 C216 0.950 . S
C221 C219 1.390 . S
C221 C222 1.387 . S
C221 H224 0.950 . S
C222 C221 1.387 . S
C222 C225 1.387 . S
H223 C219 0.950 . S
H224 C221 0.950 . S
C225 C216 1.390 . S
C225 H218 0.950 . S
C225 C222 1.387 . S
C226 C227 1.387 . S
C226 H230 0.950 . S
C226 C235 1.390 1_455 S
C227 C226 1.387 . S
C227 C229 1.387 . S
H228 C235 0.950 . S
C229 C227 1.387 . S
C229 C231 1.390 1_455 S
C229 H233 0.950 . S
H230 C226 0.950 . S
C231 C229 1.390 1_655 S
C231 C232 1.387 . S
C231 H234 0.950 . S
C232 C231 1.387 . S
C232 C235 1.387 . S
H233 C229 0.950 . S
H234 C231 0.950 . S
C235 C226 1.390 1_655 S
C235 H228 0.950 . S
C235 C232 1.387 . S
C236 C237 1.387 . S
C236 H240 0.950 . S
C236 C245 1.390 1_545 S
C237 C236 1.387 . S
C237 C239 1.387 . S
H238 C245 0.950 . S
C239 C237 1.387 . S
C239 C241 1.390 1_545 S
C239 H243 0.950 . S
H240 C236 0.950 . S
C241 C239 1.390 1_565 S
C241 C242 1.387 . S
C241 H244 0.950 . S
C242 C241 1.387 . S
C242 C245 1.387 . S
H243 C239 0.950 . S
H244 C241 0.950 . S
C245 C236 1.390 1_565 S
C245 H238 0.950 . S
C245 C242 1.387 . S
C246 C247 1.387 . S
C246 H250 0.950 . S
C246 C255 1.390 . S
C247 C246 1.387 . S
C247 C249 1.387 . S
H248 C255 0.950 . S
C249 C247 1.387 . S
C249 C251 1.390 . S
C249 H253 0.950 . S
H250 C246 0.950 . S
C251 C249 1.390 . S
C251 C252 1.387 . S
C251 H254 0.950 . S
C252 C251 1.387 . S
C252 C255 1.387 . S
H253 C249 0.950 . S
H254 C251 0.950 . S
C255 C246 1.390 . S
C255 H248 0.950 . S
C255 C252 1.387 . S
C256 C257 1.387 . S
C256 H260 0.950 . S
C256 C265 1.390 1_655 S
C257 C256 1.387 . S
C257 C259 1.387 . S
H258 C265 0.950 . S
C259 C257 1.387 . S
C259 C261 1.390 1_655 S
C259 H263 0.950 . S
H260 C256 0.950 . S
C261 C259 1.390 1_455 S
C261 C262 1.387 . S
C261 H264 0.950 . S
C262 C261 1.387 . S
C262 C265 1.387 . S
H263 C259 0.950 . S
H264 C261 0.950 . S
C265 C256 1.390 1_455 S
C265 H258 0.950 . S
C265 C262 1.387 . S
C266 C267 1.387 . S
C266 H270 0.950 . S
C266 C275 1.390 1_565 S
C267 C266 1.387 . S
C267 C269 1.387 . S
H268 C275 0.950 . S
C269 C267 1.387 . S
C269 C271 1.390 1_565 S
C269 H273 0.950 . S
H270 C266 0.950 . S
C271 C269 1.390 1_545 S
C271 C272 1.387 . S
C271 H274 0.950 . S
C272 C271 1.387 . S
C272 C275 1.387 . S
H273 C269 0.950 . S
H274 C271 0.950 . S
C275 C266 1.390 1_545 S
C275 H268 0.950 . S
C275 C272 1.387 . S
C276 C277 1.387 . S
C276 H280 0.950 . S
C276 C285 1.390 . S
C277 C276 1.387 . S
C277 C279 1.387 . S
H278 C285 0.950 . S
C279 C277 1.387 . S
C279 C281 1.390 . S
C279 H283 0.950 . S
H280 C276 0.950 . S
C281 C279 1.390 . S
C281 C282 1.387 . S
C281 H284 0.950 . S
C282 C281 1.387 . S
C282 C285 1.387 . S
H283 C279 0.950 . S
H284 C281 0.950 . S
C285 C276 1.390 . S
C285 H278 0.950 . S
C285 C282 1.387 . S
C286 C287 1.387 1_455 S
C286 H290 0.950 . S
C286 C295 1.390 . S
C287 C286 1.387 1_655 S
C287 C289 1.387 . S
H288 C295 0.950 . S
C289 C287 1.387 . S
C289 C291 1.390 . S
C289 H293 0.950 . S
H290 C286 0.950 . S
C291 C289 1.390 . S
C291 C292 1.387 1_655 S
C291 H294 0.950 . S
C292 C291 1.387 1_455 S
C292 C295 1.387 . S
H293 C289 0.950 . S
H294 C291 0.950 . S
C295 C286 1.390 . S
C295 H288 0.950 . S
C295 C292 1.387 . S
C296 C297 1.387 . S
C296 H300 0.950 . S
C296 C305 1.390 1_566 S
C297 C296 1.387 . S
C297 C299 1.387 . S
H298 C305 0.950 . S
C299 C297 1.387 . S
C299 C301 1.390 1_566 S
C299 H303 0.950 . S
H300 C296 0.950 . S
C301 C299 1.390 1_544 S
C301 C302 1.387 . S
C301 H304 0.950 . S
C302 C301 1.387 . S
C302 C305 1.387 . S
H303 C299 0.950 . S
H304 C301 0.950 . S
C305 C296 1.390 1_544 S
C305 H298 0.950 . S
C305 C302 1.387 . S
C306 C307 1.387 . S
C306 H310 0.950 . S
C306 C315 1.390 . S
C307 C306 1.387 . S
C307 C309 1.387 . S
H308 C315 0.950 . S
C309 C307 1.387 . S
C309 C311 1.390 . S
C309 H313 0.950 . S
H310 C306 0.950 . S
C311 C309 1.390 . S
C311 C312 1.387 . S
C311 H314 0.950 . S
C312 C311 1.387 . S
C312 C315 1.387 . S
H313 C309 0.950 . S
H314 C311 0.950 . S
C315 C306 1.390 . S
C315 H308 0.950 . S
C315 C312 1.387 . S
C316 C317 1.387 . S
C316 H320 0.950 . S
C316 C325 1.390 . S
C317 C316 1.387 . S
C317 C319 1.387 1_455 S
H318 C325 0.950 . S
C319 C317 1.387 1_655 S
C319 C321 1.390 . S
C319 H323 0.950 . S
H320 C316 0.950 . S
C321 C319 1.390 . S
C321 C322 1.387 . S
C321 H324 0.950 . S
C322 C321 1.387 . S
C322 C325 1.387 1_655 S
H323 C319 0.950 . S
H324 C321 0.950 . S
C325 C316 1.390 . S
C325 H318 0.950 . S
C325 C322 1.387 1_455 S
C326 C327 1.387 . S
C326 H330 0.950 . S
C326 C335 1.390 1_564 S
C327 C326 1.387 . S
C327 C329 1.387 . S
H328 C335 0.950 . S
C329 C327 1.387 . S
C329 C331 1.390 1_564 S
C329 H333 0.950 . S
H330 C326 0.950 . S
C331 C329 1.390 1_546 S
C331 C332 1.387 . S
C331 H334 0.950 . S
C332 C331 1.387 . S
C332 C335 1.387 . S
H333 C329 0.950 . S
H334 C331 0.950 . S
C335 C326 1.390 1_546 S
C335 H328 0.950 . S
C335 C332 1.387 . S
C336 C337 1.387 . S
C336 H340 0.950 . S
C336 C345 1.390 1_655 S
C337 C336 1.387 . S
C337 C339 1.387 . S
H338 C345 0.950 . S
C339 C337 1.387 . S
C339 C341 1.390 1_655 S
C339 H343 0.950 . S
H340 C336 0.950 . S
C341 C339 1.390 1_455 S
C341 C342 1.387 . S
C341 H344 0.950 . S
C342 C341 1.387 . S
C342 C345 1.387 . S
H343 C339 0.950 . S
H344 C341 0.950 . S
C345 C336 1.390 1_455 S
C345 H338 0.950 . S
C345 C342 1.387 . S
C346 C347 1.387 . S
C346 H350 0.950 . S
C346 C355 1.390 1_545 S
C347 C346 1.387 . S
C347 C349 1.387 . S
H348 C355 0.950 . S
C349 C347 1.387 . S
C349 C351 1.390 1_545 S
C349 H353 0.950 . S
H350 C346 0.950 . S
C351 C349 1.390 1_565 S
C351 C352 1.387 . S
C351 H354 0.950 . S
C352 C351 1.387 . S
C352 C355 1.387 . S
H353 C349 0.950 . S
H354 C351 0.950 . S
C355 C346 1.390 1_565 S
C355 H348 0.950 . S
C355 C352 1.387 . S
C356 C357 1.387 . S
C356 H360 0.950 . S
C356 C365 1.390 . S
C357 C356 1.387 . S
C357 C359 1.387 . S
H358 C365 0.950 . S
C359 C357 1.387 . S
C359 C361 1.390 . S
C359 H363 0.950 . S
H360 C356 0.950 . S
C361 C359 1.390 . S
C361 C362 1.387 . S
C361 H364 0.950 . S
C362 C361 1.387 . S
C362 C365 1.387 . S
H363 C359 0.950 . S
H364 C361 0.950 . S
C365 C356 1.390 . S
C365 H358 0.950 . S
C365 C362 1.387 . S
C366 C367 1.387 . S
C366 H370 0.950 . S
C366 C375 1.390 1_655 S
C367 C366 1.387 . S
C367 C369 1.387 . S
H368 C375 0.950 . S
C369 C367 1.387 . S
C369 C371 1.390 1_655 S
C369 H373 0.950 . S
H370 C366 0.950 . S
C371 C369 1.390 1_455 S
C371 C372 1.387 . S
C371 H374 0.950 . S
C372 C371 1.387 . S
C372 C375 1.387 . S
H373 C369 0.950 . S
H374 C371 0.950 . S
C375 C366 1.390 1_455 S
C375 H368 0.950 . S
C375 C372 1.387 . S
C376 C377 1.387 . S
C376 H380 0.950 . S
C376 C385 1.390 1_565 S
C377 C376 1.387 . S
C377 C379 1.387 . S
H378 C385 0.950 . S
C379 C377 1.387 . S
C379 C381 1.390 1_565 S
C379 H383 0.950 . S
H380 C376 0.950 . S
C381 C379 1.390 1_545 S
C381 C382 1.387 . S
C381 H384 0.950 . S
C382 C381 1.387 . S
C382 C385 1.387 . S
H383 C379 0.950 . S
H384 C381 0.950 . S
C385 C376 1.390 1_545 S
C385 H378 0.950 . S
C385 C382 1.387 . S
C386 C387 1.387 . S
C386 H390 0.950 . S
C386 C395 1.390 . S
C387 C386 1.387 . S
C387 C389 1.387 . S
H388 C395 0.950 . S
C389 C387 1.387 . S
C389 C391 1.390 . S
C389 H393 0.950 . S
H390 C386 0.950 . S
C391 C389 1.390 . S
C391 C392 1.387 . S
C391 H394 0.950 . S
C392 C391 1.387 . S
C392 C395 1.387 . S
H393 C389 0.950 . S
H394 C391 0.950 . S
C395 C386 1.390 . S
C395 H388 0.950 . S
C395 C392 1.387 . S
C157 C105 2.532 . S
C162 C1 2.532 . S
C167 C23 2.362 . S
C172 C127 2.362 . S
C177 C27 2.533 . S
C182 C131 2.532 . S
C187 C40 2.531 . S
C192 C144 2.531 . S
C197 C88 2.366 . S
C202 C62 2.366 . S
C207 C66 2.532 . S
C212 C92 2.532 . S
C217 C49 1.408 . S
C222 C10 1.408 . S
C227 C53 1.430 . S
C232 C14 1.430 . S
C237 C75 1.406 . S
C242 C36 1.406 . S
C247 C79 1.429 . S
C252 C118 1.429 . S
C257 C101 1.408 . S
C262 C140 1.408 . S
C267 C114 1.405 . S
C272 C153 1.405 . S
C277 C3 2.182 . S
C282 C122 1.981 . S
C287 C18 1.984 . S
C292 C133 2.184 . S
C297 C29 2.184 . S
C302 C146 2.184 . S
C307 C83 1.980 . S
C312 C42 2.182 . S
C317 C57 1.980 . S
C322 C94 2.183 . S
C327 C107 2.182 . S
C332 C68 2.182 . S
C337 C148 1.358 . S
C342 C5 1.358 . S
C347 C16 1.409 . S
C352 C81 1.409 . S
C357 C96 1.360 . S
C362 C31 1.359 . S
C367 C44 1.359 . S
C372 C109 1.359 . S
C377 C55 1.409 . S
C382 C120 1.409 . S
C387 C135 1.356 . S
C392 C70 1.357 . S
