# Generated by pormake.
# Topology fob, (5)-cn, num edge types: 1
# Building blocks:
#     Node 0, Type 0, BuildingBlock: XOMCOT_clean_sbu_1, # of connection points: 5
#     Node 1, Type 0, BuildingBlock: XOMCOT_clean_sbu_1, # of connection points: 5
#     Node 2, Type 0, BuildingBlock: XOMCOT_clean_sbu_1, # of connection points: 5
#     Node 3, Type 0, BuildingBlock: XOMCOT_clean_sbu_1, # of connection points: 5
#     Node 4, Type 0, BuildingBlock: XOMCOT_clean_sbu_1, # of connection points: 5
#     Node 5, Type 0, BuildingBlock: XOMCOT_clean_sbu_1, # of connection points: 5
#     Node 6, Type 0, BuildingBlock: XOMCOT_clean_sbu_1, # of connection points: 5
#     Node 7, Type 0, BuildingBlock: XOMCOT_clean_sbu_1, # of connection points: 5
#     Node 8, Type 0, BuildingBlock: XOMCOT_clean_sbu_1, # of connection points: 5
#     Node 9, Type 0, BuildingBlock: XOMCOT_clean_sbu_1, # of connection points: 5
#     Node 10, Type 0, BuildingBlock: XOMCOT_clean_sbu_1, # of connection points: 5
#     Node 11, Type 0, BuildingBlock: XOMCOT_clean_sbu_1, # of connection points: 5
#     Node 12, Type 0, BuildingBlock: XOMCOT_clean_sbu_1, # of connection points: 5
#     Node 13, Type 0, BuildingBlock: XOMCOT_clean_sbu_1, # of connection points: 5
#     Node 14, Type 0, BuildingBlock: XOMCOT_clean_sbu_1, # of connection points: 5
#     Node 15, Type 0, BuildingBlock: XOMCOT_clean_sbu_1, # of connection points: 5
#     Edge 16, Type (0, 0), BuildingBlock: XIVTED_clean_linker_0, # of connection points: 2
#     Edge 17, Type (0, 0), BuildingBlock: XIVTED_clean_linker_0, # of connection points: 2
#     Edge 18, Type (0, 0), BuildingBlock: XIVTED_clean_linker_0, # of connection points: 2
#     Edge 19, Type (0, 0), BuildingBlock: XIVTED_clean_linker_0, # of connection points: 2
#     Edge 20, Type (0, 0), BuildingBlock: XIVTED_clean_linker_0, # of connection points: 2
#     Edge 21, Type (0, 0), BuildingBlock: XIVTED_clean_linker_0, # of connection points: 2
#     Edge 22, Type (0, 0), BuildingBlock: XIVTED_clean_linker_0, # of connection points: 2
#     Edge 23, Type (0, 0), BuildingBlock: XIVTED_clean_linker_0, # of connection points: 2
#     Edge 24, Type (0, 0), BuildingBlock: XIVTED_clean_linker_0, # of connection points: 2
#     Edge 25, Type (0, 0), BuildingBlock: XIVTED_clean_linker_0, # of connection points: 2
#     Edge 26, Type (0, 0), BuildingBlock: XIVTED_clean_linker_0, # of connection points: 2
#     Edge 27, Type (0, 0), BuildingBlock: XIVTED_clean_linker_0, # of connection points: 2
#     Edge 28, Type (0, 0), BuildingBlock: XIVTED_clean_linker_0, # of connection points: 2
#     Edge 29, Type (0, 0), BuildingBlock: XIVTED_clean_linker_0, # of connection points: 2
#     Edge 30, Type (0, 0), BuildingBlock: XIVTED_clean_linker_0, # of connection points: 2
#     Edge 31, Type (0, 0), BuildingBlock: XIVTED_clean_linker_0, # of connection points: 2
#     Edge 32, Type (0, 0), BuildingBlock: XIVTED_clean_linker_0, # of connection points: 2
#     Edge 33, Type (0, 0), BuildingBlock: XIVTED_clean_linker_0, # of connection points: 2
#     Edge 34, Type (0, 0), BuildingBlock: XIVTED_clean_linker_0, # of connection points: 2
#     Edge 35, Type (0, 0), BuildingBlock: XIVTED_clean_linker_0, # of connection points: 2
#     Edge 36, Type (0, 0), BuildingBlock: XIVTED_clean_linker_0, # of connection points: 2
#     Edge 37, Type (0, 0), BuildingBlock: XIVTED_clean_linker_0, # of connection points: 2
#     Edge 38, Type (0, 0), BuildingBlock: XIVTED_clean_linker_0, # of connection points: 2
#     Edge 39, Type (0, 0), BuildingBlock: XIVTED_clean_linker_0, # of connection points: 2
#     Edge 40, Type (0, 0), BuildingBlock: XIVTED_clean_linker_0, # of connection points: 2
#     Edge 41, Type (0, 0), BuildingBlock: XIVTED_clean_linker_0, # of connection points: 2
#     Edge 42, Type (0, 0), BuildingBlock: XIVTED_clean_linker_0, # of connection points: 2
#     Edge 43, Type (0, 0), BuildingBlock: XIVTED_clean_linker_0, # of connection points: 2
#     Edge 44, Type (0, 0), BuildingBlock: XIVTED_clean_linker_0, # of connection points: 2
#     Edge 45, Type (0, 0), BuildingBlock: XIVTED_clean_linker_0, # of connection points: 2
#     Edge 46, Type (0, 0), BuildingBlock: XIVTED_clean_linker_0, # of connection points: 2
#     Edge 47, Type (0, 0), BuildingBlock: XIVTED_clean_linker_0, # of connection points: 2
#     Edge 48, Type (0, 0), BuildingBlock: XIVTED_clean_linker_0, # of connection points: 2
#     Edge 49, Type (0, 0), BuildingBlock: XIVTED_clean_linker_0, # of connection points: 2
#     Edge 50, Type (0, 0), BuildingBlock: XIVTED_clean_linker_0, # of connection points: 2
#     Edge 51, Type (0, 0), BuildingBlock: XIVTED_clean_linker_0, # of connection points: 2
#     Edge 52, Type (0, 0), BuildingBlock: XIVTED_clean_linker_0, # of connection points: 2
#     Edge 53, Type (0, 0), BuildingBlock: XIVTED_clean_linker_0, # of connection points: 2
#     Edge 54, Type (0, 0), BuildingBlock: XIVTED_clean_linker_0, # of connection points: 2
#     Edge 55, Type (0, 0), BuildingBlock: XIVTED_clean_linker_0, # of connection points: 2
# Relax obj value: 0.099
# Max RMSD: 0.148
# Mean RMSD: 0.148
data_MOF--net-fob--node1-XOMCOT_clean_sbu_1--edge1-XIVTED_clean_linker_0
_symmetry_space_group_name_H-M    P1
_symmetry_Int_Tables_number       1
_symmetry_cell_setting            triclinic
loop_
_symmetry_equiv_pos_as_xyz
'x, y, z'
_cell_length_a     25.377291
_cell_length_b     65.498632
_cell_length_c     51.82171
_cell_angle_alpha  100.63305
_cell_angle_beta   89.979389
_cell_angle_gamma 89.814873
loop_
_atom_site_label
_atom_site_type_symbol
_atom_site_fract_x
_atom_site_fract_y
_atom_site_fract_z
_atom_type_partial_charge
C0 C 0.0637 0.20423 0.49372 0.0
C1 C 0.08131 0.22419 0.4946 0.0
N2 N 0.13402 0.22358 0.49122 0.0
N3 N 0.10503 0.19106 0.48959 0.0
C4 C 0.1473 0.20328 0.48826 0.0
H5 H 0.0235 0.19966 0.49649 0.0
Co6 Co 0.10342 0.16252 0.48836 0.0
C7 C 0.1708 0.14481 0.443 0.0
O8 O 0.13827 0.12915 0.43638 0.0
N9 N 0.10268 0.13359 0.48807 0.0
C10 C 0.13448 0.1024 0.49134 0.0
C11 C 0.14711 0.12248 0.48992 0.0
C12 C 0.06331 0.11983 0.48925 0.0
N13 N 0.08171 0.10073 0.49093 0.0
O14 O 0.15382 0.16508 0.51606 0.0
H15 H 0.18662 0.12869 0.49058 0.0
H16 H 0.02194 0.12359 0.48935 0.0
O17 O 0.16078 0.15901 0.46286 0.0
C18 C 0.14306 0.17453 0.53916 0.0
O19 O 0.09889 0.18515 0.54333 0.0
N20 N 0.05165 0.16037 0.46198 0.0
C21 C 0.96666 0.16068 0.42788 0.0
C22 C 0.01788 0.16455 0.41996 0.0
C23 C 0.05967 0.16485 0.43753 0.0
C24 C 0.00175 0.15763 0.47039 0.0
C25 C 0.95879 0.15732 0.45355 0.0
H26 H 0.09775 0.16967 0.4317 0.0
H27 H 0.99504 0.15639 0.49064 0.0
H28 H 0.18713 0.19736 0.48545 0.0
H29 H 0.05727 0.2381 0.4983 0.0
H30 H 0.16203 0.09016 0.49344 0.0
H31 H 0.0253 0.16827 0.40077 0.0
H32 H 0.9197 0.1548 0.46072 0.0
C33 C 0.09388 0.08743 0.73782 0.0
C34 C 0.10794 0.06684 0.73373 0.0
N35 N 0.16032 0.06554 0.73746 0.0
N36 N 0.137 0.09922 0.74419 0.0
C37 C 0.17702 0.08546 0.74382 0.0
H38 H 0.05459 0.09345 0.73608 0.0
Co39 Co 0.13567 0.1282 0.75118 0.0
C40 C 0.24203 0.13787 0.77134 0.0
O41 O 0.24874 0.14998 0.75402 0.0
N42 N 0.13277 0.1571 0.75808 0.0
C43 C 0.13345 0.19022 0.7777 0.0
C44 C 0.14514 0.17023 0.78048 0.0
C45 C 0.11298 0.16937 0.74213 0.0
N46 N 0.11306 0.18968 0.75356 0.0
O47 O 0.17779 0.12916 0.72093 0.0
H48 H 0.16029 0.16554 0.798 0.0
H49 H 0.09812 0.1634 0.72263 0.0
O50 O 0.19843 0.12842 0.77232 0.0
C51 C 0.16227 0.12167 0.69782 0.0
O52 O 0.11837 0.11096 0.6945 0.0
N53 N 0.09188 0.12773 0.77985 0.0
C54 C 0.01489 0.12983 0.81869 0.0
C55 C 0.06823 0.12683 0.82443 0.0
C56 C 0.10623 0.12562 0.80462 0.0
C57 C 0.04055 0.13052 0.77387 0.0
C58 C 0.00141 0.13135 0.79282 0.0
H59 H 0.14692 0.12331 0.80943 0.0
H60 H 0.03008 0.13209 0.75409 0.0
H61 H 0.21763 0.08996 0.74774 0.0
H62 H 0.08134 0.05384 0.72871 0.0
H63 H 0.13759 0.20397 0.79274 0.0
H64 H 0.08081 0.12572 0.84408 0.0
H65 H 0.9609 0.13301 0.78701 0.0
C66 C 0.92934 0.86923 0.49058 0.0
C67 C 0.91525 0.84858 0.48561 0.0
N68 N 0.86252 0.84739 0.48815 0.0
N69 N 0.88574 0.88098 0.49626 0.0
C70 C 0.84567 0.86728 0.49426 0.0
H71 H 0.96899 0.8753 0.49105 0.0
Co72 Co 0.8843 0.90961 0.50758 0.0
C73 C 0.77205 0.91578 0.52109 0.0
O74 O 0.76728 0.92971 0.50594 0.0
N75 N 0.88371 0.93838 0.51898 0.0
C76 C 0.87552 0.9702 0.54259 0.0
C77 C 0.86376 0.94953 0.54138 0.0
C78 C 0.90799 0.95248 0.50717 0.0
N79 N 0.90356 0.972 0.52104 0.0
O80 O 0.85178 0.91288 0.47539 0.0
H81 H 0.84334 0.94301 0.55627 0.0
H82 H 0.92938 0.94847 0.48892 0.0
O83 O 0.81661 0.90737 0.52362 0.0
C84 C 0.88583 0.91341 0.45754 0.0
O85 O 0.93573 0.91065 0.46282 0.0
N86 N 0.9195 0.90639 0.53808 0.0
C87 C 0.98539 0.90052 0.57912 0.0
C88 C 0.93319 0.8933 0.57784 0.0
C89 C 0.90076 0.89633 0.55702 0.0
C90 C 0.96991 0.91347 0.53898 0.0
C91 C 0.00343 0.91081 0.55936 0.0
H92 H 0.8613 0.8901 0.55579 0.0
H93 H 0.98451 0.92083 0.52336 0.0
H94 H 0.80488 0.87176 0.49763 0.0
H95 H 0.94207 0.8355 0.48163 0.0
H96 H 0.86596 0.98277 0.55859 0.0
H97 H 0.91767 0.88524 0.59265 0.0
H98 H 0.04372 0.91616 0.55908 0.0
C99 C 0.92384 0.95312 0.21645 0.0
C100 C 0.906 0.97282 0.21556 0.0
N101 N 0.85302 0.97305 0.21778 0.0
N102 N 0.88236 0.94086 0.21903 0.0
C103 C 0.83982 0.95339 0.21973 0.0
H104 H 0.96464 0.94833 0.21648 0.0
Co105 Co 0.88458 0.91377 0.22531 0.0
C106 C 0.80894 0.89038 0.18839 0.0
O107 O 0.8428 0.87489 0.18437 0.0
N108 N 0.88587 0.88653 0.23274 0.0
C109 C 0.85549 0.85858 0.24675 0.0
C110 C 0.84319 0.87799 0.24221 0.0
C111 C 0.92405 0.87193 0.23221 0.0
N112 N 0.9064 0.85475 0.24045 0.0
O113 O 0.84367 0.92209 0.25649 0.0
H114 H 0.80506 0.88543 0.24556 0.0
H115 H 0.96399 0.87358 0.22587 0.0
O116 O 0.82059 0.90714 0.20426 0.0
C117 C 0.87114 0.93202 0.27518 0.0
O118 O 0.91976 0.93697 0.2702 0.0
N119 N 0.92912 0.90647 0.19593 0.0
C120 C 0.00824 0.9027 0.15786 0.0
C121 C 0.95531 0.90459 0.15093 0.0
C122 C 0.91638 0.90705 0.17041 0.0
C123 C 0.98055 0.90509 0.20294 0.0
C124 C 0.02061 0.90287 0.18424 0.0
H125 H 0.8768 0.9106 0.16505 0.0
H126 H 0.99075 0.90669 0.22348 0.0
H127 H 0.80015 0.94823 0.22255 0.0
H128 H 0.93061 0.98614 0.21476 0.0
H129 H 0.82916 0.84827 0.25458 0.0
H130 H 0.94447 0.90541 0.13093 0.0
H131 H 0.06111 0.90188 0.1905 0.0
C132 C 0.05646 0.67128 0.9548 0.0
C133 C 0.07423 0.69109 0.95484 0.0
N134 N 0.12624 0.69168 0.96017 0.0
N135 N 0.09712 0.65933 0.95988 0.0
C136 C 0.13913 0.67216 0.96296 0.0
H137 H 0.016 0.66619 0.95233 0.0
Co138 Co 0.09337 0.63229 0.96641 0.0
C139 C 0.17488 0.60886 0.93296 0.0
O140 O 0.14197 0.5932 0.92747 0.0
N141 N 0.09011 0.60512 0.97409 0.0
C142 C 0.1171 0.57696 -0.01111 0.0
C143 C 0.13101 0.59632 0.98479 0.0
C144 C 0.0512 0.59081 0.97257 0.0
N145 N 0.06684 0.57351 0.9812 0.0
O146 O 0.12994 0.64085 -0.00139 0.0
H147 H 0.16899 0.60355 -0.01071 0.0
H148 H 0.01208 0.59272 0.96531 0.0
O149 O 0.16031 0.6256 0.94811 0.0
C150 C 0.10253 0.6521 0.01629 0.0
O151 O 0.05428 0.65715 0.01065 0.0
N152 N 0.05396 0.6248 0.93543 0.0
C153 C 0.98322 0.62088 0.89361 0.0
C154 C 0.03719 0.62352 0.88954 0.0
C155 C 0.07182 0.62587 0.91081 0.0
C156 C 0.00139 0.62304 0.93979 0.0
C157 C 0.96547 0.62058 0.91914 0.0
H158 H 0.1122 0.62979 0.90753 0.0
H159 H 0.9869 0.62467 0.95969 0.0
H160 H 0.17768 0.66754 0.96877 0.0
H161 H 0.05031 0.70415 0.95183 0.0
H162 H 0.14174 0.56641 -0.00261 0.0
H163 H 0.05235 0.62442 0.87024 0.0
H164 H 0.92386 0.61959 0.92338 0.0
C165 C 0.07606 0.62541 0.25219 0.0
C166 C 0.08732 0.60463 0.24989 0.0
N167 N 0.1401 0.60229 0.25033 0.0
N168 N 0.12142 0.6362 0.2543 0.0
C169 C 0.15983 0.62173 0.25301 0.0
H170 H 0.03724 0.63226 0.25208 0.0
Co171 Co 0.12519 0.66465 0.25629 0.0
C172 C 0.21206 0.67951 0.2917 0.0
O173 O 0.18106 0.69497 0.30212 0.0
N174 N 0.12862 0.6937 0.25693 0.0
C175 C 0.16024 0.72341 0.24816 0.0
C176 C 0.17156 0.70306 0.24895 0.0
C177 C 0.09122 0.70876 0.26019 0.0
N178 N 0.10954 0.72699 0.25514 0.0
O179 O 0.15656 0.66038 0.22245 0.0
H180 H 0.20854 0.69531 0.24309 0.0
H181 H 0.05081 0.70644 0.26524 0.0
O182 O 0.19487 0.6655 0.27307 0.0
C183 C 0.12037 0.66256 0.20622 0.0
O184 O 0.07183 0.6657 0.21497 0.0
N185 N 0.08985 0.66809 0.28871 0.0
C186 C 0.02352 0.66766 0.33161 0.0
C187 C 0.07649 0.66166 0.33242 0.0
C188 C 0.10867 0.66148 0.31051 0.0
C189 C 0.03791 0.673 0.28722 0.0
C190 C 0.00433 0.67333 0.30855 0.0
H191 H 0.14776 0.655 0.31078 0.0
H192 H 0.0216 0.67541 0.26876 0.0
H193 H 0.20141 0.62536 0.25325 0.0
H194 H 0.05868 0.59225 0.2481 0.0
H195 H 0.18655 0.73437 0.24159 0.0
H196 H 0.09264 0.65658 0.34952 0.0
H197 H 0.96305 0.67693 0.30646 0.0
C198 C 0.90131 0.34857 -0.00674 0.0
C199 C 0.89186 0.32757 -0.00988 0.0
N200 N 0.84005 0.32478 -0.00596 0.0
N201 N 0.85576 0.35899 -0.00084 0.0
C202 C 0.8191 0.34411 -0.00061 0.0
H203 H 0.939 0.35584 -0.00856 0.0
Co204 Co 0.84905 0.38769 0.00479 0.0
C205 C 0.73618 0.39269 0.01504 0.0
O206 O 0.73243 0.40312 -0.00425 0.0
N207 N 0.84367 0.41668 0.01046 0.0
C208 C 0.83011 0.44975 0.02875 0.0
C209 C 0.81865 0.42947 0.03012 0.0
C210 C 0.87092 0.42953 -0.0022 0.0
N211 N 0.86329 0.44974 0.00847 0.0
O212 O 0.81668 0.38545 0.9714 0.0
H213 H 0.79571 0.42443 0.04536 0.0
H214 H 0.89753 0.42416 0.9817 0.0
O215 O 0.7809 0.3859 0.02101 0.0
C216 C 0.84775 0.38571 0.95229 0.0
O217 O 0.89872 0.38722 0.95651 0.0
N218 N 0.88408 0.38971 0.03655 0.0
C219 C 0.94931 0.39426 0.08042 0.0
C220 C 0.8974 0.38705 0.08161 0.0
C221 C 0.86523 0.38481 0.05931 0.0
C222 C 0.93446 0.39636 0.03492 0.0
C223 C 0.96769 0.39879 0.05658 0.0
H224 H 0.82561 0.37905 0.06036 0.0
H225 H 0.9489 0.3997 0.01651 0.0
H226 H 0.77766 0.34733 0.00299 0.0
H227 H 0.92108 0.31536 0.98571 0.0
H228 H 0.81753 0.46337 0.04256 0.0
H229 H 0.8817 0.38331 0.0996 0.0
H230 H 0.00781 0.40383 0.05447 0.0
C231 C 0.93611 0.41737 0.73823 0.0
C232 C 0.91876 0.43765 0.74174 0.0
N233 N 0.86838 0.43769 0.73347 0.0
N234 N 0.89707 0.40467 0.7276 0.0
C235 C 0.85621 0.41747 0.72514 0.0
H236 H 0.97476 0.41217 0.74306 0.0
Co237 Co 0.90132 0.37585 0.7189 0.0
C238 C 0.83287 0.36471 0.6723 0.0
O239 O 0.86825 0.3512 0.66115 0.0
N240 N 0.90522 0.34634 0.71091 0.0
C241 C 0.87884 0.31349 0.70728 0.0
C242 C 0.86278 0.33371 0.70886 0.0
C243 C 0.94667 0.33327 0.71125 0.0
N244 N 0.93171 0.3132 0.70896 0.0
O245 O 0.85414 0.37405 0.74699 0.0
H246 H 0.82228 0.33899 0.70996 0.0
H247 H 0.98684 0.3383 0.71462 0.0
O248 O 0.84155 0.37544 0.6951 0.0
C249 C 0.87263 0.36665 0.76614 0.0
O250 O 0.9215 0.35989 0.76515 0.0
N251 N 0.95039 0.37873 0.6926 0.0
C252 C 0.03155 0.38746 0.66003 0.0
C253 C 0.97911 0.39179 0.65459 0.0
C254 C 0.93929 0.38793 0.67157 0.0
C255 C 0.00148 0.37544 0.69886 0.0
C256 C 0.04267 0.37935 0.68263 0.0
H257 H 0.90016 0.39341 0.6684 0.0
H258 H 0.01062 0.37083 0.71731 0.0
H259 H 0.81841 0.41207 0.71708 0.0
H260 H 0.94139 0.45125 0.75007 0.0
H261 H 0.85326 0.30023 0.7068 0.0
H262 H 0.96924 0.3991 0.63809 0.0
H263 H 0.08288 0.37646 0.68801 0.0
C264 C 0.58642 0.16816 -0.00757 0.0
C265 C 0.5976 0.18901 -0.00413 0.0
N266 N 0.64879 0.1912 -0.01005 0.0
N267 N 0.63017 0.15719 0.98422 0.0
C268 C 0.66764 0.1716 0.98298 0.0
H269 H 0.54881 0.16136 -0.00424 0.0
Co270 Co 0.63377 0.12845 0.9781 0.0
C271 C 0.70966 0.11697 0.93503 0.0
O272 O 0.67676 0.10259 0.92374 0.0
N273 N 0.63738 0.099 0.97291 0.0
C274 C 0.66981 0.06745 0.97381 0.0
C275 C 0.682 0.08797 0.97456 0.0
C276 C 0.59854 0.08472 0.97174 0.0
N277 N 0.61711 0.06541 0.97217 0.0
O278 O 0.67662 0.13022 0.00868 0.0
H279 H 0.721 0.09462 0.97741 0.0
H280 H 0.55723 0.08839 0.97177 0.0
O281 O 0.69738 0.12876 0.95672 0.0
C282 C 0.65856 0.1233 0.02827 0.0
O283 O 0.61282 0.1138 0.02627 0.0
N284 N 0.58851 0.12794 0.94902 0.0
C285 C 0.51312 0.12988 0.91019 0.0
C286 C 0.56471 0.13685 0.90759 0.0
C287 C 0.60122 0.13638 0.92759 0.0
C288 C 0.53749 0.12278 0.95284 0.0
C289 C 0.49947 0.12312 0.93345 0.0
H290 H 0.63916 0.14342 0.926 0.0
H291 H 0.52557 0.11926 0.97153 0.0
H292 H 0.70818 0.16778 0.97764 0.0
H293 H 0.56988 0.20155 0.00203 0.0
H294 H 0.69751 0.05524 0.97581 0.0
H295 H 0.57686 0.14282 0.89039 0.0
H296 H 0.45935 0.11883 0.93709 0.0
C297 C 0.56026 0.12159 0.24482 0.0
C298 C 0.57628 0.10116 0.23987 0.0
N299 N 0.62871 0.10057 0.24382 0.0
N300 N 0.60225 0.13381 0.2522 0.0
C301 C 0.6435 0.12061 0.25119 0.0
H302 H 0.52064 0.12722 0.24283 0.0
Co303 Co 0.60119 0.16257 0.25961 0.0
C304 C 0.66544 0.17455 0.30705 0.0
O305 O 0.62875 0.18822 0.31615 0.0
N306 N 0.60038 0.19211 0.26603 0.0
C307 C 0.62894 0.2246 0.26843 0.0
C308 C 0.64368 0.20428 0.26765 0.0
C309 C 0.55996 0.20551 0.26515 0.0
N310 N 0.57611 0.22534 0.2667 0.0
O311 O 0.65059 0.16259 0.23185 0.0
H312 H 0.6838 0.19859 0.26707 0.0
H313 H 0.51956 0.20091 0.26208 0.0
O314 O 0.65963 0.16291 0.28452 0.0
C315 C 0.63672 0.16967 0.21161 0.0
O316 O 0.59017 0.17842 0.21114 0.0
N317 N 0.55018 0.1613 0.28588 0.0
C318 C 0.46895 0.15685 0.32061 0.0
C319 C 0.51981 0.14982 0.32473 0.0
C320 C 0.55964 0.15179 0.30684 0.0
C321 C 0.49974 0.16624 0.28031 0.0
C322 C 0.4588 0.16489 0.29789 0.0
H323 H 0.59757 0.14499 0.30948 0.0
H324 H 0.4906 0.17026 0.26154 0.0
H325 H 0.6836 0.12562 0.25566 0.0
H326 H 0.55148 0.08782 0.23316 0.0
H327 H 0.65534 0.23758 0.26866 0.0
H328 H 0.52861 0.14268 0.34151 0.0
H329 H 0.41921 0.16927 0.29324 0.0
C330 C 0.42422 0.83775 0.00199 0.0
C331 C 0.40656 0.81784 0.00115 0.0
N332 N 0.35405 0.81756 -0.00283 0.0
N333 N 0.38304 0.85011 -0.00119 0.0
C334 C 0.3408 0.83739 -0.00395 0.0
H335 H 0.46488 0.84265 0.00372 0.0
Co336 Co 0.38619 0.87772 -0.00565 0.0
C337 C 0.31006 0.9002 0.03241 0.0
O338 O 0.3436 0.91567 0.03747 0.0
N339 N 0.38883 0.90552 -0.01116 0.0
C340 C 0.36062 0.93486 0.97734 0.0
C341 C 0.34663 0.91532 0.98074 0.0
C342 C 0.42846 0.91946 -0.01044 0.0
N343 N 0.41217 0.93746 0.98289 0.0
O344 O 0.34418 0.87116 0.96327 0.0
H345 H 0.30772 0.90865 0.97751 0.0
H346 H 0.46857 0.91673 -0.00517 0.0
O347 O 0.32226 0.88392 0.01572 0.0
C348 C 0.36281 0.85906 0.94328 0.0
O349 O 0.4079 0.84957 0.94534 0.0
N350 N 0.43084 0.88354 0.02386 0.0
C351 C 0.50841 0.88697 0.06256 0.0
C352 C 0.45533 0.88481 0.06894 0.0
C353 C 0.41723 0.88251 0.04914 0.0
C354 C 0.48253 0.88489 0.0173 0.0
C355 C 0.52187 0.88693 0.03635 0.0
H356 H 0.37754 0.87886 0.0541 0.0
H357 H 0.49347 0.88359 -0.00311 0.0
H358 H 0.30164 0.8424 -0.0083 0.0
H359 H 0.43089 0.80453 0.00271 0.0
H360 H 0.335 0.9461 0.97076 0.0
H361 H 0.44373 0.88383 0.0888 0.0
H362 H 0.56259 0.88805 0.0305 0.0
C363 C 0.43138 0.91127 0.72262 0.0
C364 C 0.41869 0.93205 0.72779 0.0
N365 N 0.36588 0.93392 0.72656 0.0
N366 N 0.38687 0.90001 0.7182 0.0
C367 C 0.34755 0.91423 0.72082 0.0
H368 H 0.47068 0.90472 0.7216 0.0
Co369 Co 0.38511 0.8711 0.70871 0.0
C370 C 0.27345 0.86432 0.69457 0.0
O371 O 0.26919 0.85048 0.70984 0.0
N372 N 0.38464 0.84219 0.69915 0.0
C373 C 0.37968 0.81006 0.67628 0.0
C374 C 0.36804 0.83061 0.67637 0.0
C375 C 0.40642 0.82843 0.71253 0.0
N376 N 0.40404 0.80868 0.69902 0.0
O377 O 0.35099 0.8692 0.74106 0.0
H378 H 0.34996 0.83677 0.66051 0.0
H379 H 0.42559 0.83299 0.73135 0.0
O380 O 0.3176 0.87301 0.6922 0.0
C381 C 0.37638 0.87503 0.76226 0.0
O382 O 0.4245 0.88216 0.76133 0.0
N383 N 0.42085 0.873 0.67785 0.0
C384 C 0.48651 0.87817 0.63645 0.0
C385 C 0.43421 0.88536 0.63759 0.0
C386 C 0.40197 0.88273 0.65859 0.0
C387 C 0.47121 0.86573 0.67697 0.0
C388 C 0.50466 0.86806 0.6564 0.0
H389 H 0.3626 0.88913 0.65976 0.0
H390 H 0.48592 0.85861 0.6928 0.0
H391 H 0.3063 0.91023 0.71845 0.0
H392 H 0.4464 0.94478 0.7313 0.0
H393 H 0.37121 0.79719 0.66053 0.0
H394 H 0.41854 0.89323 0.62261 0.0
H395 H 0.54502 0.86269 0.65673 0.0
C396 C 0.58419 0.69724 0.48268 0.0
C397 C 0.59895 0.71773 0.48579 0.0
N398 N 0.65192 0.71852 0.48431 0.0
N399 N 0.62761 0.68513 0.4793 0.0
C400 C 0.66827 0.69854 0.48053 0.0
H401 H 0.54428 0.69148 0.48247 0.0
Co402 Co 0.62797 0.6562 0.47257 0.0
C403 C 0.73891 0.64832 0.45802 0.0
O404 O 0.74435 0.6361 0.4753 0.0
N405 N 0.62754 0.62736 0.46563 0.0
C406 C 0.6345 0.59434 0.44614 0.0
C407 C 0.6452 0.6145 0.44397 0.0
C408 C 0.60565 0.61477 0.48051 0.0
N409 N 0.60948 0.59451 0.46913 0.0
O410 O 0.66345 0.65577 0.50489 0.0
H411 H 0.66341 0.61949 0.42732 0.0
H412 H 0.58669 0.62044 0.49919 0.0
O413 O 0.69439 0.65654 0.45488 0.0
C414 C 0.64188 0.66354 0.52665 0.0
O415 O 0.59648 0.67323 0.52672 0.0
N416 N 0.59055 0.6564 0.44186 0.0
C417 C 0.52113 0.65903 0.40131 0.0
C418 C 0.57488 0.66281 0.39843 0.0
C419 C 0.60924 0.66162 0.41921 0.0
C420 C 0.53869 0.65203 0.44452 0.0
C421 C 0.50311 0.65337 0.4245 0.0
H422 H 0.65017 0.66551 0.41729 0.0
H423 H 0.52474 0.64817 0.46276 0.0
H424 H 0.70913 0.69376 0.47866 0.0
H425 H 0.57257 0.73096 0.48816 0.0
H426 H 0.64257 0.58068 0.43141 0.0
H427 H 0.58965 0.66754 0.38082 0.0
H428 H 0.46166 0.65052 0.42733 0.0
C429 C 0.56046 0.57881 0.72759 0.0
C430 C 0.57909 0.55876 0.72427 0.0
N431 N 0.63059 0.55932 0.73077 0.0
N432 N 0.59989 0.59208 0.73607 0.0
C433 C 0.64223 0.57975 0.73771 0.0
H434 H 0.52046 0.58345 0.72429 0.0
Co435 Co 0.59171 0.6209 0.74516 0.0
C436 C 0.69798 0.63283 0.76404 0.0
O437 O 0.70109 0.64599 0.74778 0.0
N438 N 0.58248 0.64963 0.75447 0.0
C439 C 0.5777 0.68164 0.77772 0.0
C440 C 0.59362 0.66161 0.77789 0.0
C441 C 0.55944 0.66269 0.74043 0.0
N442 N 0.5559 0.68236 0.75418 0.0
O443 O 0.6307 0.62463 0.71496 0.0
H444 H 0.61136 0.65608 0.7943 0.0
H445 H 0.54412 0.65765 0.72081 0.0
O446 O 0.65599 0.62242 0.76518 0.0
C447 C 0.61435 0.61755 0.69189 0.0
O448 O 0.57063 0.60672 0.68861 0.0
N449 N 0.55103 0.61734 0.77381 0.0
C450 C 0.47839 0.61235 0.81223 0.0
C451 C 0.53255 0.61164 0.81729 0.0
C452 C 0.56853 0.61394 0.79759 0.0
C453 C 0.4986 0.61826 0.76872 0.0
C454 C 0.46149 0.61565 0.78761 0.0
H455 H 0.61007 0.61295 0.80159 0.0
H456 H 0.48568 0.62095 0.74973 0.0
H457 H 0.68048 0.5856 0.74458 0.0
H458 H 0.55623 0.54489 0.71757 0.0
H459 H 0.58187 0.69463 0.79382 0.0
H460 H 0.54683 0.60898 0.83609 0.0
H461 H 0.41993 0.61645 0.78311 0.0
C462 C 0.43917 0.36605 0.49797 0.0
C463 C 0.42157 0.34601 0.49626 0.0
N464 N 0.36877 0.34651 0.4992 0.0
N465 N 0.39772 0.37918 0.50216 0.0
C466 C 0.35539 0.36683 0.5027 0.0
H467 H 0.47951 0.37073 0.49585 0.0
Co468 Co 0.39974 0.40797 0.50505 0.0
C469 C 0.32905 0.42343 0.54993 0.0
O470 O 0.36221 0.43841 0.55905 0.0
N471 N 0.40095 0.43712 0.50732 0.0
C472 C 0.37043 0.46884 0.50583 0.0
C473 C 0.357 0.44857 0.50576 0.0
C474 C 0.44082 0.45088 0.50752 0.0
N475 N 0.42324 0.47029 0.50688 0.0
O476 O 0.35224 0.40635 0.47619 0.0
H477 H 0.31738 0.44243 0.50404 0.0
H478 H 0.48202 0.44689 0.50753 0.0
O479 O 0.34003 0.41052 0.52898 0.0
C480 C 0.36553 0.39637 0.45369 0.0
O481 O 0.41054 0.38625 0.45092 0.0
N482 N 0.44899 0.40897 0.53234 0.0
C483 C 0.53217 0.40352 0.56563 0.0
C484 C 0.48003 0.40038 0.57282 0.0
C485 C 0.4391 0.40265 0.5556 0.0
C486 C 0.49961 0.4116 0.52486 0.0
C487 C 0.54173 0.40935 0.54137 0.0
H488 H 0.40025 0.39787 0.56035 0.0
H489 H 0.50763 0.41415 0.50523 0.0
H490 H 0.3155 0.37267 0.50553 0.0
H491 H 0.44575 0.33214 0.49244 0.0
H492 H 0.34346 0.48134 0.50404 0.0
H493 H 0.4712 0.39489 0.59081 0.0
H494 H 0.58153 0.41142 0.53477 0.0
C495 C 0.3989 0.44458 0.2253 0.0
C496 C 0.38717 0.46538 0.22826 0.0
N497 N 0.3345 0.46771 0.23065 0.0
N498 N 0.35388 0.43381 0.22579 0.0
C499 C 0.31526 0.4483 0.22909 0.0
H500 H 0.43782 0.43771 0.22306 0.0
Co501 Co 0.35001 0.40519 0.22315 0.0
C502 C 0.23773 0.3979 0.21224 0.0
O503 O 0.23449 0.38793 0.23199 0.0
N504 N 0.34744 0.37653 0.22036 0.0
C505 C 0.33891 0.34282 0.20484 0.0
C506 C 0.32653 0.36242 0.20083 0.0
C507 C 0.3729 0.36523 0.23579 0.0
N508 N 0.36834 0.34459 0.22678 0.0
O509 O 0.31705 0.4085 0.25677 0.0
H510 H 0.3058 0.36612 0.18404 0.0
H511 H 0.39575 0.3721 0.2528 0.0
O512 O 0.2818 0.40526 0.2065 0.0
C513 C 0.33953 0.41808 0.27739 0.0
O514 O 0.38544 0.4269 0.27553 0.0
N515 N 0.38489 0.40169 0.19112 0.0
C516 C 0.44873 0.39556 0.14666 0.0
C517 C 0.39693 0.40303 0.1456 0.0
C518 C 0.36552 0.4061 0.16819 0.0
C519 C 0.43509 0.39467 0.19258 0.0
C520 C 0.46764 0.39145 0.17062 0.0
H521 H 0.32613 0.4122 0.16726 0.0
H522 H 0.45002 0.39175 0.21112 0.0
H523 H 0.27399 0.44469 0.23084 0.0
H524 H 0.41529 0.47778 0.22834 0.0
H525 H 0.32951 0.32843 0.19174 0.0
H526 H 0.3808 0.40646 0.12752 0.0
H527 H 0.50773 0.38625 0.17261 0.0
H528 H 0.23841 0.22572 0.50352 0.0
H529 H 0.2646 0.34434 0.48644 0.0
H530 H 0.10947 0.2616 0.48054 0.0
H531 H 0.39333 0.30837 0.50943 0.0
H532 H 0.20706 0.31429 0.48436 0.0
H533 H 0.29596 0.2557 0.50525 0.0
C534 C 0.22218 0.23982 0.49864 0.0
C535 C 0.16883 0.24106 0.49188 0.0
C536 C 0.24792 0.31297 0.48986 0.0
C537 C 0.23461 0.27565 0.49415 0.0
C538 C 0.28078 0.3302 0.49122 0.0
C539 C 0.33406 0.32895 0.49812 0.0
C540 C 0.26833 0.29431 0.49546 0.0
C541 C 0.35282 0.31003 0.50368 0.0
C542 C 0.25507 0.25701 0.49981 0.0
C543 C 0.15005 0.25995 0.48619 0.0
N544 N 0.32004 0.29349 0.50224 0.0
N545 N 0.18285 0.27647 0.48746 0.0
H546 H 0.99041 0.97464 0.49114 0.0
H547 H 0.98501 0.09892 0.51317 0.0
H548 H 0.87087 1.01195 0.53703 0.0
H549 H 0.11062 0.06071 0.47405 0.0
H550 H 0.93826 0.0674 0.51909 0.0
H551 H 0.03063 1.00612 0.48176 0.0
C552 C 0.97223 0.98942 0.49908 0.0
C553 C 0.92706 0.99058 0.51494 0.0
C554 C 0.97598 0.06594 0.50913 0.0
C555 C 0.9736 0.02692 0.50448 0.0
C556 C 0.00249 0.08392 0.5056 0.0
C557 C 0.05197 0.08244 0.49325 0.0
C558 C -0.00098 0.04638 0.50011 0.0
C559 C 0.07302 0.06259 0.48406 0.0
C560 C 0.99551 1.00747 0.49384 0.0
C561 C 0.906 1.01031 0.525 0.0
N562 N 0.04652 0.04539 0.48772 0.0
N563 N 0.92946 0.02771 0.51962 0.0
H564 H 0.13722 0.02772 0.70841 0.0
H565 H 0.39302 0.97194 0.75392 0.0
H566 H 0.25389 0.05999 0.76118 0.0
H567 H 0.27064 0.93977 0.70485 0.0
H568 H 0.34396 1.00441 0.75631 0.0
H569 H 0.18683 0.99561 0.70633 0.0
C570 C 0.17315 0.02809 0.7197 0.0
C571 C 0.19103 0.04667 0.73519 0.0
C572 C 0.32779 0.99024 0.74507 0.0
C573 C 0.24869 1.00972 0.73264 0.0
C574 C 0.3559 0.97168 0.7436 0.0
C575 C 0.33608 0.95302 0.72911 0.0
C576 C 0.27947 0.99024 0.73188 0.0
C577 C 0.28728 0.95365 0.71649 0.0
C578 C 0.20167 1.00969 0.7184 0.0
C579 C 0.23869 0.04613 0.74886 0.0
N580 N 0.26083 0.97194 0.7181 0.0
N581 N 0.26576 0.02795 0.74732 0.0
H582 H 0.02435 0.31324 0.73555 0.0
H583 H 0.03583 0.18913 0.71694 0.0
H584 H 0.91243 0.27258 0.68921 0.0
H585 H 0.14157 0.23018 0.76691 0.0
H586 H 0.99605 0.21926 0.70273 0.0
H587 H 0.07355 0.28286 0.74331 0.0
C588 C 0.01045 0.29796 0.72667 0.0
C589 C 0.96387 0.29551 0.71181 0.0
C590 C 0.02816 0.22166 0.7167 0.0
C591 C 0.01981 0.26054 0.72097 0.0
C592 C 0.05115 0.20443 0.72471 0.0
C593 C 0.09186 0.20709 0.74338 0.0
C594 C 0.04604 0.24174 0.72736 0.0
C595 C 0.10966 0.22738 0.7529 0.0
C596 C 0.03842 0.28057 0.73128 0.0
C597 C 0.9476 0.27522 0.70113 0.0
N598 N 0.08652 0.24389 0.74489 0.0
N599 N 0.97532 0.25855 0.70602 0.0
H600 H 0.7683 0.84396 0.51209 0.0
H601 H 0.74805 0.72111 0.46184 0.0
H602 H 0.88544 0.80824 0.46251 0.0
H603 H 0.62879 0.75788 0.5086 0.0
H604 H 0.80014 0.75254 0.46265 0.0
H605 H 0.71727 0.81247 0.51115 0.0
C606 C 0.78318 0.82956 0.50076 0.0
C607 C 0.83134 0.82886 0.48723 0.0
C608 C 0.76259 0.75372 0.47276 0.0
C609 C 0.7731 0.79247 0.48647 0.0
C610 C 0.73296 0.73574 0.47247 0.0
C611 C 0.68385 0.73682 0.48518 0.0
C612 C 0.7431 0.77295 0.48591 0.0
C613 C 0.66602 0.75632 0.49825 0.0
C614 C 0.75408 0.81149 0.50041 0.0
C615 C 0.84887 0.80954 0.47341 0.0
N616 N 0.6956 0.77357 0.49828 0.0
N617 N 0.81979 0.79212 0.47339 0.0
H618 H 0.75382 0.97748 0.23862 0.0
H619 H 0.73172 0.09769 0.22923 0.0
H620 H 0.87351 1.01012 0.20313 0.0
H621 H 0.60122 0.06173 0.24965 0.0
H622 H 0.78642 0.0663 0.22215 0.0
H623 H 0.69882 1.00851 0.24455 0.0
C624 C 0.76858 0.99102 0.23183 0.0
C625 C 0.81882 0.99102 0.22038 0.0
C626 C 0.74578 0.06527 0.22815 0.0
C627 C 0.75589 0.02693 0.22765 0.0
C628 C 0.71468 0.08323 0.23239 0.0
C629 C 0.6618 0.08233 0.24004 0.0
C630 C 0.724 0.04631 0.23181 0.0
C631 C 0.64158 0.06308 0.24348 0.0
C632 C 0.73709 1.00884 0.23539 0.0
C633 C 0.83561 1.00935 0.21242 0.0
N634 N 0.67271 0.04587 0.23943 0.0
N635 N 0.80437 0.02655 0.2163 0.0
H636 H 0.86759 0.81586 0.23742 0.0
H637 H 0.1477 0.76625 0.26161 0.0
H638 H 0.01182 0.85111 0.24818 0.0
H639 H 0.00424 0.73079 0.24706 0.0
H640 H 0.09841 0.79768 0.25804 0.0
H641 H 0.91676 0.78475 0.24218 0.0
C642 C 0.90959 0.8171 0.24091 0.0
C643 C 0.93554 0.83619 0.24249 0.0
C644 C 0.07769 0.78303 0.25569 0.0
C645 C 0.99233 0.80048 0.24777 0.0
C646 C 0.10586 0.76505 0.25764 0.0
C647 C 0.0802 0.74579 0.25456 0.0
C648 C 0.02336 0.78179 0.2506 0.0
C649 C 0.02567 0.74527 0.24989 0.0
C650 C 0.93772 0.79928 0.2435 0.0
C651 C 0.99025 0.83672 0.24655 0.0
N652 N -0.00085 0.76298 0.24797 0.0
N653 N 0.0168 0.81914 0.24912 0.0
H654 H 0.24768 0.8163 0.0034 0.0
H655 H 0.23273 0.69289 0.95518 0.0
H656 H 0.38321 0.77739 0.97945 0.0
H657 H 0.09629 0.73195 0.97608 0.0
H658 H 0.28868 0.72367 0.96453 0.0
H659 H 0.1915 0.78558 -0.00615 0.0
C660 C 0.26568 0.80135 -0.00391 0.0
C661 C 0.32041 0.79952 -0.0077 0.0
C662 C 0.24646 0.72551 0.96701 0.0
C663 C 0.25627 0.7642 0.98147 0.0
C664 C 0.21451 0.70791 0.96177 0.0
C665 C 0.15964 0.70978 0.9648 0.0
C666 C 0.22348 0.74517 0.97545 0.0
C667 C 0.13822 0.72973 0.97309 0.0
C668 C 0.23358 0.78378 -0.00927 0.0
C669 C 0.34147 0.77962 0.98309 0.0
N670 N 0.17016 0.74661 0.97818 0.0
N671 N 0.30942 0.76279 0.97798 0.0
H672 H 0.82684 0.48932 0.01474 0.0
H673 H 0.10261 0.53402 0.97635 0.0
H674 H 0.96104 0.45076 0.98739 0.0
H675 H 0.96134 0.57128 -0.01074 0.0
H676 H 0.05129 0.50341 0.98089 0.0
H677 H 0.87509 0.51965 0.00603 0.0
C678 C 0.86639 0.48724 0.00683 0.0
C679 C 0.88995 0.46748 0.00184 0.0
C680 C 0.03137 0.51825 0.98259 0.0
C681 C 0.94543 0.50208 -0.00815 0.0
C682 C 0.06075 0.53575 0.98017 0.0
C683 C 0.03627 0.55524 0.98258 0.0
C684 C 0.97708 0.52023 0.98774 0.0
C685 C 0.9817 0.55652 0.98709 0.0
C686 C 0.89381 0.50452 0.00175 0.0
C687 C 0.94108 0.46562 -0.00871 0.0
N688 N 0.95398 0.53928 -0.01027 0.0
N689 N 0.96721 0.48271 0.98685 0.0
H690 H 0.23974 0.59651 0.26715 0.0
H691 H 0.23292 0.47326 0.21672 0.0
H692 H 0.10665 0.56375 0.22762 0.0
H693 H 0.3692 0.50624 0.25241 0.0
H694 H 0.18495 0.50617 0.22195 0.0
H695 H 0.28736 0.56356 0.26271 0.0
C696 C 0.22056 0.58245 0.25743 0.0
C697 C 0.16896 0.58299 0.24779 0.0
C698 C 0.22537 0.50621 0.22864 0.0
C699 C 0.22314 0.54511 0.24289 0.0
C700 C 0.25268 0.48738 0.22582 0.0
C701 C 0.30527 0.48695 0.23407 0.0
C702 C 0.25072 0.52477 0.2399 0.0
C703 C 0.32903 0.50583 0.2454 0.0
C704 C 0.2477 0.5636 0.25502 0.0
C705 C 0.14596 0.56414 0.23571 0.0
N706 N 0.3016 0.52395 0.24798 0.0
N707 N 0.17318 0.54602 0.2336 0.0
H708 H 0.62461 0.2289 0.01935 0.0
H709 H 0.86861 0.28682 0.96671 0.0
H710 H 0.73789 0.19778 0.96327 0.0
H711 H 0.74957 0.31801 0.01928 0.0
H712 H 0.82292 0.25393 0.96598 0.0
H713 H 0.67114 0.26147 0.02015 0.0
C714 C 0.6591 0.22888 0.00707 0.0
C715 C 0.67705 0.21047 -0.00891 0.0
C716 C 0.80677 0.26798 0.97765 0.0
C717 C 0.73115 0.24791 -0.00782 0.0
C718 C 0.83301 0.28678 0.97819 0.0
C719 C 0.813 0.30529 -0.00691 0.0
C720 C 0.76018 0.26761 -0.00781 0.0
C721 C 0.76619 0.30425 0.00726 0.0
C722 C 0.68587 0.24753 0.00765 0.0
C723 C 0.72277 0.21147 0.97606 0.0
N724 N 0.7415 0.28575 0.0065 0.0
N725 N 0.74814 0.22986 0.97694 0.0
H726 H 0.60199 0.51986 0.73414 0.0
H727 H 0.89853 0.47741 0.73245 0.0
H728 H 0.73812 0.55826 0.72889 0.0
H729 H 0.76111 0.43902 0.73411 0.0
H730 H 0.84099 0.50735 0.73214 0.0
H731 H 0.66003 0.49031 0.73469 0.0
C732 C 0.64404 0.52213 0.73291 0.0
C733 C 0.66492 0.54171 0.73131 0.0
C734 C 0.82344 0.49237 0.73257 0.0
C735 C 0.73211 0.5077 0.73232 0.0
C736 C 0.85632 0.47525 0.7329 0.0
C737 C 0.83481 0.45556 0.73332 0.0
C738 C 0.7685 0.48988 0.73272 0.0
C739 C 0.77965 0.45376 0.73346 0.0
C740 C 0.67729 0.50519 0.73339 0.0
C741 C 0.72005 0.54359 0.73036 0.0
N742 N 0.74852 0.47066 0.7332 0.0
N743 N 0.75166 0.52682 0.73085 0.0
H744 H 0.51506 0.06318 -0.01199 0.0
H745 H 0.51708 0.93933 0.97264 0.0
H746 H 0.64969 0.02515 0.9594 0.0
H747 H 0.37793 0.97736 -0.0097 0.0
H748 H 0.56793 0.97059 0.96994 0.0
H749 H 0.46552 0.03191 -0.00949 0.0
C750 C 0.53425 0.04831 0.98199 0.0
C751 C 0.58686 0.04694 0.97335 0.0
C752 C 0.52624 0.97207 0.97438 0.0
C753 C 0.53012 1.01084 0.97669 0.0
C754 C 0.49728 0.95424 0.97611 0.0
C755 C 0.44308 0.9557 0.98165 0.0
C756 C 0.50092 0.99151 0.97841 0.0
C757 C 0.41939 0.97544 0.98563 0.0
C758 C 0.50588 0.03038 0.98361 0.0
C759 C 0.60954 0.02706 0.96644 0.0
N760 N 0.44843 0.99253 0.98398 0.0
N761 N 0.58109 1.00982 0.96828 0.0
H762 H 0.33624 0.30461 0.22106 0.0
H763 H 0.59884 0.26622 0.28352 0.0
H764 H 0.46039 0.34618 0.25414 0.0
H765 H 0.47997 0.22526 0.24324 0.0
H766 H 0.54573 0.29602 0.27669 0.0
H767 H 0.38492 0.2757 0.23327 0.0
C768 C 0.37372 0.30767 0.23095 0.0
C769 C 0.39444 0.32785 0.23631 0.0
C770 C 0.53123 0.28048 0.26951 0.0
C771 C 0.45056 0.29473 0.2505 0.0
C772 C 0.56167 0.26344 0.27328 0.0
C773 C 0.54412 0.24309 0.26393 0.0
C774 C 0.48284 0.27717 0.25628 0.0
C775 C 0.49509 0.24052 0.25116 0.0
C776 C 0.40148 0.29115 0.238 0.0
C777 C 0.44273 0.33093 0.24971 0.0
N778 N 0.46641 0.25732 0.24765 0.0
N779 N 0.46937 0.31452 0.25616 0.0
H780 H 0.43582 0.7731 0.66682 0.0
H781 H 0.51596 0.71676 0.78574 0.0
H782 H 0.42147 0.80169 0.74848 0.0
H783 H 0.54112 0.6893 0.70433 0.0
H784 H 0.47896 0.74744 0.77224 0.0
H785 H 0.47143 0.7419 0.67995 0.0
C786 C 0.43978 0.77282 0.68753 0.0
C787 C 0.42538 0.79014 0.70656 0.0
C788 C 0.49258 0.73473 0.75728 0.0
C789 C 0.46679 0.75434 0.72176 0.0
C790 C 0.51409 0.71717 0.76499 0.0
C791 C 0.53228 0.70035 0.74618 0.0
C792 C 0.4889 0.73564 0.7305 0.0
C793 C 0.52739 0.70175 0.71955 0.0
C794 C 0.46048 0.75499 0.69501 0.0
C795 C 0.43245 0.78887 0.7331 0.0
N796 N 0.50631 0.71909 0.71252 0.0
N797 N 0.45252 0.7713 0.73988 0.0
H798 H 0.64484 0.55474 0.45826 0.0
H799 H 0.39536 0.51049 0.52407 0.0
H800 H 0.52393 0.59368 0.50056 0.0
H801 H 0.52111 0.47184 0.48586 0.0
H802 H 0.44436 0.54126 0.51791 0.0
H803 H 0.60287 0.52438 0.47042 0.0
C804 C 0.60951 0.55691 0.47016 0.0
C805 C 0.58762 0.57679 0.47817 0.0
C806 C 0.46146 0.52607 0.51103 0.0
C807 C 0.53932 0.54204 0.49228 0.0
C808 C 0.43335 0.50847 0.51443 0.0
C809 C 0.4539 0.48852 0.50527 0.0
C810 C 0.51045 0.52375 0.49821 0.0
C811 C 0.50383 0.48688 0.49336 0.0
C812 C 0.58568 0.53957 0.47721 0.0
C813 C 0.54234 0.57871 0.49403 0.0
N814 N 0.53016 0.50424 0.48997 0.0
N815 N 0.51943 0.56154 0.50035 0.0
H816 H 0.22526 0.18007 0.43912 0.0
H817 H 0.44111 0.12239 0.33997 0.0
H818 H 0.22019 0.11417 0.40863 0.0
H819 H 0.39978 0.18675 0.3434 0.0
H820 H 0.36949 0.1194 0.37082 0.0
H821 H 0.29924 0.18314 0.40971 0.0
C822 C 0.23997 0.16624 0.42638 0.0
C823 C 0.21661 0.14683 0.42622 0.0
C824 C 0.37616 0.13416 0.3648 0.0
C825 C 0.30104 0.15024 0.3928 0.0
C826 C 0.41705 0.1359 0.34737 0.0
C827 C 0.4261 0.15484 0.33923 0.0
C828 C 0.34483 0.1516 0.37445 0.0
C829 C 0.39368 0.17186 0.34914 0.0
C830 C 0.28188 0.16803 0.40953 0.0
C831 C 0.23694 0.12943 0.40922 0.0
N832 N 0.35457 0.16988 0.3664 0.0
N833 N 0.27822 0.13152 0.39325 0.0
H834 H 0.75193 0.14905 0.29514 0.0
H835 H 0.87148 0.17963 0.44002 0.0
H836 H 0.68191 0.19364 0.35765 0.0
H837 H 0.95895 0.14431 0.37529 0.0
H838 H 0.79816 0.18216 0.41043 0.0
H839 H 0.82549 0.14474 0.32444 0.0
C840 C 0.75204 0.15794 0.31496 0.0
C841 C 0.71078 0.17176 0.32394 0.0
C842 C 0.83332 0.17382 0.40265 0.0
C843 C 0.79427 0.1668 0.35747 0.0
C844 C 0.87505 0.17222 0.4196 0.0
C845 C 0.92133 0.16169 0.41012 0.0
C846 C 0.83766 0.16478 0.37596 0.0
C847 C 0.92408 0.15272 0.38334 0.0
C848 C 0.79398 0.15548 0.33164 0.0
C849 C 0.71286 0.18285 0.34981 0.0
N850 N 0.88275 0.15444 0.36717 0.0
N851 N 0.75377 0.18009 0.36563 0.0
H852 H 0.33165 0.16111 0.78127 0.0
H853 H 0.43491 0.10172 0.89334 0.0
H854 H 0.24708 0.11083 0.80574 0.0
H855 H 0.50016 0.15955 0.87944 0.0
H856 H 0.3695 0.10319 0.85913 0.0
H857 H 0.39834 0.15885 0.81462 0.0
C858 C 0.32719 0.14954 0.79358 0.0
C859 C 0.2836 0.1362 0.79079 0.0
C860 C 0.39819 0.11553 0.86358 0.0
C861 C 0.3598 0.13354 0.829 0.0
C862 C 0.4354 0.11477 0.8832 0.0
C863 C 0.47327 0.13051 0.88932 0.0
C864 C 0.3989 0.13211 0.84984 0.0
C865 C 0.47243 0.14686 0.87516 0.0
C866 C 0.36519 0.14831 0.81269 0.0
C867 C 0.27985 0.12152 0.80733 0.0
N868 N 0.4359 0.14722 0.8561 0.0
N869 N 0.31748 0.12058 0.82572 0.0
H870 H 0.92347 0.15291 0.82324 0.0
H871 H 0.81015 0.12406 0.95359 0.0
H872 H 0.01063 0.11004 0.86143 0.0
H873 H 0.71536 0.11968 0.88377 0.0
H874 H 0.88885 0.12939 0.9275 0.0
H875 H 0.85069 0.15156 0.85356 0.0
C876 C 0.92758 0.14319 0.8379 0.0
C877 C 0.97311 0.13111 0.83917 0.0
C878 C 0.85061 0.12738 0.91811 0.0
C879 C 0.89058 0.13045 0.87472 0.0
C880 C 0.80602 0.12444 0.93288 0.0
C881 C 0.75677 0.1213 0.92059 0.0
C882 C 0.84497 0.12788 0.89131 0.0
C883 C 0.75295 0.12185 0.89378 0.0
C884 C 0.88613 0.14265 0.85534 0.0
C885 C 0.97659 0.11963 0.85957 0.0
N886 N 0.79649 0.12525 0.88002 0.0
N887 N 0.93569 0.11953 0.87654 0.0
H888 H 0.56261 0.8523 0.61074 0.0
H889 H 0.67623 0.93548 0.52988 0.0
H890 H 0.4944 0.91329 0.61472 0.0
H891 H 0.76317 0.88211 0.54484 0.0
H892 H 0.60201 0.9253 0.55505 0.0
H893 H 0.62897 0.86067 0.58028 0.0
C894 C 0.56145 0.86744 0.60517 0.0
C895 C 0.52319 0.8822 0.61561 0.0
C896 C 0.63734 0.91582 0.5527 0.0
C897 C 0.59888 0.89181 0.58049 0.0
C898 C 0.67962 0.9216 0.53833 0.0
C899 C 0.7261 0.90973 0.53545 0.0
C900 C 0.64147 0.89794 0.56395 0.0
C901 C 0.72835 0.89186 0.54677 0.0
C902 C 0.59928 0.87218 0.58771 0.0
C903 C 0.52291 0.90137 0.6071 0.0
N904 N 0.68668 0.88652 0.5605 0.0
N905 N 0.56043 0.90569 0.59017 0.0
H906 H 0.17903 0.84388 0.68537 0.0
H907 H 0.05983 0.92672 0.6052 0.0
H908 H 0.26257 0.89794 0.67076 0.0
H909 H 0.99509 0.86527 0.60061 0.0
H910 H 0.12688 0.91855 0.63547 0.0
H911 H 0.1042 0.85355 0.6601 0.0
C912 C 0.18156 0.85781 0.67696 0.0
C913 C 0.22726 0.87003 0.68 0.0
C914 C 0.09784 0.90688 0.62795 0.0
C915 C 0.14187 0.88124 0.65138 0.0
C916 C 0.05959 0.91151 0.61061 0.0
C917 C 0.02214 0.89656 0.60001 0.0
C918 C 0.09872 0.88718 0.63493 0.0
C919 C 0.02301 0.87731 0.60833 0.0
C920 C 0.13892 0.86329 0.66253 0.0
C921 C 0.22839 0.88792 0.66871 0.0
N922 N 0.06096 0.87311 0.62516 0.0
N923 N 0.18637 0.89298 0.65493 0.0
H924 H 0.78038 0.85894 0.14887 0.0
H925 H 0.51288 0.91118 0.11178 0.0
H926 H 0.72853 0.91901 0.19019 0.0
H927 H 0.59828 0.86385 0.05903 0.0
H928 H 0.58372 0.91179 0.14433 0.0
H929 H 0.70512 0.85783 0.11963 0.0
C930 C 0.753 0.87188 0.15193 0.0
C931 C 0.76105 0.88918 0.17194 0.0
C932 C 0.58681 0.90131 0.12561 0.0
C933 C 0.67449 0.88795 0.13835 0.0
C934 C 0.54646 0.9009 0.10713 0.0
C935 C 0.5501 0.88757 0.08266 0.0
C936 C 0.63043 0.88802 0.11964 0.0
C937 C 0.59433 0.87457 0.07752 0.0
C938 C 0.71007 0.87125 0.13512 0.0
C939 C 0.72396 0.90542 0.17494 0.0
N940 N 0.63263 0.87508 0.09587 0.0
N941 N 0.6822 0.90443 0.15826 0.0
H942 H 0.09686 0.92633 0.16291 0.0
H943 H 0.23046 0.87125 0.02865 0.0
H944 H 0.01638 0.87895 0.10835 0.0
H945 H 0.28007 0.93032 0.07338 0.0
H946 H 0.1543 0.87196 0.0581 0.0
H947 H 0.16786 0.92595 0.13116 0.0
C948 C 0.09434 0.91575 0.14424 0.0
C949 C 0.05094 0.90253 0.1383 0.0
C950 C 0.18177 0.88479 0.06126 0.0
C951 C 0.13208 0.90208 0.10169 0.0
C952 C 0.22521 0.8844 0.04451 0.0
C953 C 0.26186 0.90071 0.04861 0.0
C954 C 0.17544 0.90148 0.08237 0.0
C955 C 0.25307 0.91736 0.06945 0.0
C956 C 0.13469 0.91564 0.12602 0.0
C957 C 0.04922 0.8894 0.11362 0.0
N958 N 0.21108 0.91723 0.08561 0.0
N959 N 0.08949 0.88937 0.09622 0.0
H960 H 0.25363 0.63806 0.9385 0.0
H961 H 0.39629 0.5854 0.80678 0.0
H962 H 0.21106 0.57776 0.89461 0.0
H963 H 0.47115 0.63326 0.86296 0.0
H964 H 0.3268 0.583 0.8387 0.0
H965 H 0.33295 0.63735 0.91132 0.0
C966 C 0.26118 0.62461 0.92334 0.0
C967 C 0.22542 0.60802 0.91866 0.0
C968 C 0.35866 0.59389 0.84421 0.0
C969 C 0.31553 0.60722 0.88748 0.0
C970 C 0.39811 0.5953 0.82597 0.0
C971 C 0.43913 0.6096 0.83231 0.0
C972 C 0.35971 0.60714 0.86882 0.0
C973 C 0.44011 0.622 0.85745 0.0
C974 C 0.30646 0.6242 0.9079 0.0
C975 C 0.23726 0.59096 0.89883 0.0
N976 N 0.40049 0.62069 0.87475 0.0
N977 N 0.28097 0.59111 0.88381 0.0
H978 H 0.79085 0.65445 0.77022 0.0
H979 H 0.8968 0.5959 0.88263 0.0
H980 H 0.70744 0.60486 0.79695 0.0
H981 H 0.98168 0.645 0.85569 0.0
H982 H 0.82935 0.59765 0.84948 0.0
H983 H 0.86352 0.65001 0.79967 0.0
C984 C 0.78782 0.64262 0.78224 0.0
C985 C 0.74276 0.63015 0.7813 0.0
C986 C 0.86291 0.60794 0.85068 0.0
C987 C 0.82575 0.62496 0.81498 0.0
C988 C 0.90134 0.60697 0.86963 0.0
C989 C 0.9448 0.62037 0.87197 0.0
C990 C 0.86777 0.62249 0.83402 0.0
C991 C 0.9491 0.63424 0.85441 0.0
C992 C 0.82934 0.64008 0.79903 0.0
C993 C 0.7411 0.615 0.79724 0.0
N994 N 0.91085 0.63504 0.83629 0.0
N995 N 0.7819 0.61289 0.81347 0.0
H996 H 0.26161 0.70864 0.32738 0.0
H997 H 0.50715 0.63766 0.35106 0.0
H998 H 0.28148 0.64638 0.28327 0.0
H999 H 0.44771 0.68929 0.40743 0.0
H1000 H 0.43635 0.64343 0.32048 0.0
H1001 H 0.34268 0.70475 0.35085 0.0
C1002 C 0.2832 0.69415 0.32249 0.0
C1003 C 0.26426 0.67767 0.30362 0.0
C1004 C 0.43925 0.65356 0.33947 0.0
C1005 C 0.35745 0.67313 0.3306 0.0
C1006 C 0.47952 0.65033 0.35675 0.0
C1007 C 0.48263 0.66302 0.38163 0.0
C1008 C 0.40287 0.66976 0.34719 0.0
C1009 C 0.44619 0.67917 0.38839 0.0
C1010 C 0.32955 0.69195 0.33595 0.0
C1011 C 0.29453 0.6594 0.29784 0.0
N1012 N 0.40781 0.68208 0.37127 0.0
N1013 N 0.3396 0.65752 0.31151 0.0
H1014 H 0.74666 0.67869 0.42866 0.0
H1015 H 0.01943 0.63762 0.3622 0.0
H1016 H 0.83373 0.62779 0.45063 0.0
H1017 H 0.94392 0.6945 0.35096 0.0
H1018 H 0.95381 0.63418 0.3956 0.0
H1019 H 0.81962 0.68489 0.40063 0.0
C1020 C 0.78118 0.66879 0.42758 0.0
C1021 C 0.78394 0.65255 0.44181 0.0
C1022 C 0.95191 0.64751 0.38599 0.0
C1023 C 0.86781 0.65961 0.40969 0.0
C1024 C 0.9896 0.64957 0.36703 0.0
C1025 C 0.98706 0.66634 0.35363 0.0
C1026 C 0.9112 0.66223 0.39147 0.0
C1027 C 0.9469 0.68114 0.36045 0.0
C1028 C 0.82298 0.67242 0.41165 0.0
C1029 C 0.82994 0.64043 0.43991 0.0
N1030 N 0.91036 0.67865 0.37874 0.0
N1031 N 0.86997 0.6441 0.42395 0.0
H1032 H 0.45791 0.42056 0.10975 0.0
H1033 H 0.72467 0.3673 0.05102 0.0
H1034 H 0.5206 0.36446 0.13072 0.0
H1035 H 0.64197 0.41327 0.01641 0.0
H1036 H 0.64962 0.36582 0.08012 0.0
H1037 H 0.52338 0.41776 0.07468 0.0
C1038 C 0.48485 0.40748 0.10675 0.0
C1039 C 0.48412 0.39286 0.12345 0.0
C1040 C 0.64768 0.37611 0.06601 0.0
C1041 C 0.55981 0.38982 0.08368 0.0
C1042 C 0.69061 0.37702 0.04947 0.0
C1043 C 0.68971 0.39056 0.03144 0.0
C1044 C 0.6038 0.38902 0.06473 0.0
C1045 C 0.64437 0.40265 0.03009 0.0
C1046 C 0.52244 0.40596 0.0868 0.0
C1047 C 0.52048 0.37637 0.11875 0.0
N1048 N 0.60341 0.40175 0.04672 0.0
N1049 N 0.55717 0.37542 0.0995 0.0
H1050 H 0.96025 0.36853 0.1165 0.0
H1051 H 0.22433 0.42318 0.17633 0.0
H1052 H 0.02049 0.42527 0.09673 0.0
H1053 H 0.1457 0.37586 0.20987 0.0
H1054 H 0.14957 0.42399 0.14694 0.0
H1055 H 0.02643 0.37097 0.15129 0.0
C1056 C 0.98684 0.38165 0.11969 0.0
C1057 C 0.98521 0.39657 0.10342 0.0
C1058 C 0.14843 0.41352 0.16085 0.0
C1059 C 0.06154 0.39926 0.14286 0.0
C1060 C 0.19124 0.41299 0.17756 0.0
C1061 C 0.19138 0.39932 0.19544 0.0
C1062 C 0.10564 0.40012 0.16178 0.0
C1063 C 0.14721 0.38662 0.19635 0.0
C1064 C 0.0248 0.38297 0.13946 0.0
C1065 C 0.02105 0.41313 0.10835 0.0
N1066 N 0.10629 0.38718 0.17956 0.0
N1067 N 0.05799 0.41391 0.12742 0.0
H1068 H 0.81106 0.34964 0.62073 0.0
H1069 H 0.54295 0.41395 0.61911 0.0
H1070 H 0.74956 0.39055 0.68915 0.0
H1071 H 0.62135 0.38142 0.54955 0.0
H1072 H 0.61492 0.40397 0.64585 0.0
H1073 H 0.73759 0.3592 0.5951 0.0
C1074 C 0.78195 0.36056 0.63043 0.0
C1075 C 0.78663 0.36939 0.65711 0.0
C1076 C 0.61642 0.39912 0.62472 0.0
C1077 C 0.70242 0.38049 0.62779 0.0
C1078 C 0.57538 0.40476 0.6095 0.0
C1079 C 0.57642 0.39861 0.58209 0.0
C1080 C 0.65841 0.38706 0.61243 0.0
C1081 C 0.61939 0.38679 0.57058 0.0
C1082 C 0.7401 0.36609 0.61573 0.0
C1083 C 0.74768 0.38347 0.66859 0.0
N1084 N 0.65854 0.38135 0.58581 0.0
N1085 N 0.70718 0.38861 0.65384 0.0
H1086 H 0.03745 0.3791 0.60645 0.0
H1087 H 0.30642 0.4412 0.60074 0.0
H1088 H 0.1227 0.40827 0.67541 0.0
H1089 H 0.24663 0.39707 0.53504 0.0
H1090 H 0.23283 0.43292 0.62739 0.0
H1091 H 0.10814 0.38891 0.57895 0.0
C1092 C 0.07108 0.38758 0.61576 0.0
C1093 C 0.07452 0.39279 0.64319 0.0
C1094 C 0.2358 0.4251 0.60712 0.0
C1095 C 0.15502 0.40416 0.612 0.0
C1096 C 0.2776 0.4299 0.59185 0.0
C1097 C 0.28277 0.41974 0.56566 0.0
C1098 C 0.19866 0.41019 0.59605 0.0
C1099 C 0.24432 0.40518 0.5552 0.0
C1100 C 0.11139 0.39311 0.6001 0.0
C1101 C 0.11893 0.40371 0.65433 0.0
N1102 N 0.20384 0.40084 0.57044 0.0
N1103 N 0.15739 0.40911 0.63867 0.0
H1104 H 0.20557 0.15955 0.69679 0.0
H1105 H 0.20397 0.14023 0.54046 0.0
H1106 H 0.16977 0.1007 0.64746 0.0
H1107 H 0.14695 0.19655 0.58931 0.0
H1108 H 0.23095 0.12744 0.57994 0.0
H1109 H 0.2231 0.1742 0.65734 0.0
C1110 C 0.20324 0.14953 0.6777 0.0
C1111 C 0.18568 0.12896 0.67521 0.0
C1112 C 0.2139 0.14284 0.58188 0.0
C1113 C 0.20608 0.1455 0.63042 0.0
C1114 C 0.19865 0.1502 0.55941 0.0
C1115 C 0.17217 0.16931 0.56171 0.0
C1116 C 0.20345 0.15484 0.60667 0.0
C1117 C 0.16644 0.18158 0.58676 0.0
C1118 C 0.21296 0.15793 0.65529 0.0
C1119 C 0.18272 0.11669 0.65009 0.0
N1120 N 0.18136 0.17402 0.60837 0.0
N1121 N 0.19238 0.1252 0.62858 0.0
H1122 H 0.94178 0.93893 0.43294 0.0
H1123 H 0.79909 0.90882 0.29702 0.0
H1124 H 0.79867 0.90306 0.42617 0.0
H1125 H 0.90622 0.96037 0.31623 0.0
H1126 H 0.79099 0.90778 0.34404 0.0
H1127 H 0.92457 0.94798 0.39033 0.0
C1128 C 0.90649 0.93303 0.4224 0.0
C1129 C 0.87191 0.92004 0.4328 0.0
C1130 C 0.81515 0.91964 0.33796 0.0
C1131 C 0.85201 0.93013 0.38369 0.0
C1132 C 0.81957 0.92031 0.31117 0.0
C1133 C 0.85412 0.93448 0.30279 0.0
C1134 C 0.84576 0.93316 0.3562 0.0
C1135 C 0.87992 0.94895 0.32185 0.0
C1136 C 0.89641 0.93831 0.39813 0.0
C1137 C 0.82632 0.91306 0.41861 0.0
N1138 N 0.87588 0.9477 0.34758 0.0
N1139 N 0.8181 0.91787 0.39441 0.0
H1140 H 0.07266 0.6855 0.05219 0.0
H1141 H 0.19747 0.64261 0.17331 0.0
H1142 H 0.17532 0.63199 0.0419 0.0
H1143 H 0.06958 0.68663 0.17743 0.0
H1144 H 0.2074 0.64362 0.12618 0.0
H1145 H 0.091 0.69183 0.09906 0.0
C1146 C 0.09965 0.67523 0.05984 0.0
C1147 C 0.12172 0.65799 0.04338 0.0
C1148 C 0.17772 0.65323 0.13759 0.0
C1149 C 0.14203 0.66481 0.09708 0.0
C1150 C 0.17212 0.65267 0.16436 0.0
C1151 C 0.13199 0.66424 0.17894 0.0
C1152 C 0.14347 0.66573 0.1258 0.0
C1153 C 0.10025 0.67712 0.16668 0.0
C1154 C 0.11009 0.67881 0.0866 0.0
C1155 C 0.15722 0.64537 0.05412 0.0
N1156 N 0.10652 0.67743 0.14085 0.0
N1157 N 0.16554 0.64878 0.08052 0.0
H1158 H 0.79663 0.35299 0.92319 0.0
H1159 H 0.81735 0.39989 0.79195 0.0
H1160 H 0.85595 0.41419 0.92087 0.0
H1161 H 0.8641 0.33734 0.79656 0.0
H1162 H 0.78992 0.40523 0.83826 0.0
H1163 H 0.78065 0.34774 0.8755 0.0
C1164 C 0.80462 0.36551 0.91269 0.0
C1165 C 0.82782 0.38396 0.92553 0.0
C1166 C 0.80455 0.39015 0.82877 0.0
C1167 C 0.80903 0.37829 0.87186 0.0
C1168 C 0.81988 0.38707 0.80245 0.0
C1169 C 0.84331 0.36822 0.79078 0.0
C1170 C 0.81179 0.3741 0.84303 0.0
C1171 C 0.84653 0.35213 0.80513 0.0
C1172 C 0.79564 0.36252 0.88567 0.0
C1173 C 0.83821 0.39972 0.91136 0.0
N1174 N 0.83133 0.35547 0.83068 0.0
N1175 N 0.82897 0.3965 0.88514 0.0
H1176 H 0.69392 0.13459 0.19374 0.0
H1177 H 0.70773 0.15957 0.04903 0.0
H1178 H 0.64655 0.19295 0.17356 0.0
H1179 H 0.66269 0.10025 0.06675 0.0
H1180 H 0.7263 0.17198 0.09581 0.0
H1181 H 0.72349 0.12275 0.1483 0.0
C1182 C 0.69156 0.14517 0.17999 0.0
C1183 C 0.66716 0.16464 0.18712 0.0
C1184 C 0.71398 0.15605 0.08924 0.0
C1185 C 0.70112 0.15134 0.13564 0.0
C1186 C 0.70364 0.14894 0.06263 0.0
C1187 C 0.68302 0.12899 0.05429 0.0
C1188 C 0.70451 0.14292 0.10729 0.0
C1189 C 0.67792 0.11584 0.07261 0.0
C1190 C 0.70817 0.13838 0.15413 0.0
C1191 C 0.66457 0.17772 0.1686 0.0
N1192 N 0.68807 0.12311 0.09838 0.0
N1193 N 0.68082 0.17075 0.14356 0.0
H1194 H 0.37493 0.90453 0.80623 0.0
H1195 H 0.36783 0.82802 0.90038 0.0
H1196 H 0.32846 0.84141 0.77613 0.0
H1197 H 0.31074 0.89056 0.92616 0.0
H1198 H 0.35161 0.83155 0.8548 0.0
H1199 H 0.35067 0.89986 0.85051 0.0
C1200 C 0.35864 0.88981 0.809 0.0
C1201 C 0.35364 0.8733 0.78778 0.0
C1202 C 0.34125 0.84427 0.87049 0.0
C1203 C 0.32734 0.86766 0.83815 0.0
C1204 C 0.3506 0.84229 0.89645 0.0
C1205 C 0.34106 0.8591 0.91695 0.0
C1206 C 0.32391 0.8634 0.8651 0.0
C1207 C 0.3187 0.87725 0.91089 0.0
C1208 C 0.34458 0.88718 0.83416 0.0
C1209 C 0.33254 0.85449 0.79216 0.0
N1210 N 0.31223 0.87915 0.88541 0.0
N1211 N 0.32135 0.85197 0.81707 0.0
H1212 H 0.69097 0.62786 0.53351 0.0
H1213 H 0.66254 0.65429 0.68946 0.0
H1214 H 0.63525 0.68699 0.57566 0.0
H1215 H 0.62265 0.5949 0.64253 0.0
H1216 H 0.68943 0.66645 0.64932 0.0
H1217 H 0.70342 0.61626 0.57553 0.0
C1218 C 0.68307 0.63862 0.55165 0.0
C1219 C 0.6615 0.6583 0.55129 0.0
C1220 C 0.67603 0.65061 0.64801 0.0
C1221 C 0.67602 0.64526 0.59896 0.0
C1222 C 0.6609 0.64365 0.67079 0.0
C1223 C 0.63986 0.62368 0.66907 0.0
C1224 C 0.67108 0.6373 0.62361 0.0
C1225 C 0.6381 0.61051 0.6445 0.0
C1226 C 0.68989 0.63196 0.5755 0.0
C1227 C 0.65141 0.67161 0.57523 0.0
N1228 N 0.65323 0.61759 0.62263 0.0
N1229 N 0.65836 0.66478 0.59819 0.0
H1230 H 0.28645 0.38569 0.29143 0.0
H1231 H 0.31587 0.43126 0.44441 0.0
H1232 H 0.34755 0.44665 0.32249 0.0
H1233 H 0.35077 0.36772 0.40927 0.0
H1234 H 0.28768 0.43769 0.40125 0.0
H1235 H 0.27063 0.38037 0.33648 0.0
C1236 C 0.29493 0.39818 0.30771 0.0
C1237 C 0.319 0.41652 0.30345 0.0
C1238 C 0.3 0.42221 0.40326 0.0
C1239 C 0.3004 0.41066 0.35452 0.0
C1240 C 0.31579 0.4185 0.42779 0.0
C1241 C 0.33621 0.39901 0.43011 0.0
C1242 C 0.30377 0.40617 0.38127 0.0
C1243 C 0.33582 0.38302 0.40806 0.0
C1244 C 0.28606 0.39511 0.33329 0.0
C1245 C 0.3296 0.43219 0.32511 0.0
N1246 N 0.32031 0.38699 0.38441 0.0
N1247 N 0.32062 0.42884 0.34981 0.0
loop_
_geom_bond_atom_site_label_1
_geom_bond_atom_site_label_2
_geom_bond_distance
_geom_bond_site_symmetry_2
_ccdc_geom_bond_type
C0 C1 1.351 . S
C0 N3 1.368 . S
C0 H5 0.931 . S
C1 C0 1.351 . S
C1 N2 1.373 . S
C1 H29 0.930 . S
N2 C1 1.373 . S
N2 C4 1.340 . S
N3 C0 1.368 . S
N3 C4 1.321 . S
N3 Co6 2.135 . S
C4 N2 1.340 . S
C4 N3 1.321 . S
C4 H28 0.930 . S
H5 C0 0.931 . S
Co6 N3 2.135 . S
Co6 N9 2.121 . S
Co6 O14 2.055 . S
Co6 O17 2.039 . S
Co6 N20 2.140 . S
C7 O8 1.227 . S
C7 O17 1.265 . S
O8 C7 1.227 . S
N9 Co6 2.121 . S
N9 C11 1.375 . S
N9 C12 1.313 . S
C10 C11 1.338 . S
C10 N13 1.377 . S
C10 H30 0.930 . S
C11 N9 1.375 . S
C11 C10 1.338 . S
C11 H15 0.931 . S
C12 N9 1.313 . S
C12 N13 1.344 . S
C12 H16 0.930 . S
N13 C10 1.377 . S
N13 C12 1.344 . S
O14 Co6 2.055 . S
O14 C18 1.253 . S
H15 C11 0.931 . S
H16 C12 0.930 . S
O17 Co6 2.039 . S
O17 C7 1.265 . S
C18 O14 1.253 . S
C18 O19 1.227 . S
O19 C18 1.227 . S
N20 Co6 2.140 . S
N20 C23 1.346 . S
N20 C24 1.345 1_455 S
C21 C22 1.387 . S
C21 C25 1.391 . S
C22 C21 1.387 . S
C22 C23 1.369 1_655 S
C22 H31 0.929 . S
C23 N20 1.346 . S
C23 C22 1.369 1_455 S
C23 H26 0.928 . S
C24 N20 1.345 1_655 S
C24 C25 1.371 . S
C24 H27 0.931 . S
C25 C21 1.391 . S
C25 C24 1.371 . S
C25 H32 0.930 . S
H26 C23 0.928 . S
H27 C24 0.931 . S
H28 C4 0.930 . S
H29 C1 0.930 . S
H30 C10 0.930 . S
H31 C22 0.929 . S
H32 C25 0.930 . S
C33 C34 1.351 . S
C33 N36 1.368 . S
C33 H38 0.931 . S
C34 C33 1.351 . S
C34 N35 1.373 . S
C34 H62 0.930 . S
N35 C34 1.373 . S
N35 C37 1.340 . S
N36 C33 1.368 . S
N36 C37 1.321 . S
N36 Co39 2.135 . S
C37 N35 1.340 . S
C37 N36 1.321 . S
C37 H61 0.930 . S
H38 C33 0.931 . S
Co39 N36 2.135 . S
Co39 N42 2.121 . S
Co39 O47 2.055 . S
Co39 O50 2.039 . S
Co39 N53 2.140 . S
C40 O41 1.227 . S
C40 O50 1.265 . S
O41 C40 1.227 . S
N42 Co39 2.121 . S
N42 C44 1.375 . S
N42 C45 1.313 . S
C43 C44 1.338 . S
C43 N46 1.377 . S
C43 H63 0.930 . S
C44 N42 1.375 . S
C44 C43 1.338 . S
C44 H48 0.931 . S
C45 N42 1.313 . S
C45 N46 1.344 . S
C45 H49 0.930 . S
N46 C43 1.377 . S
N46 C45 1.344 . S
O47 Co39 2.055 . S
O47 C51 1.253 . S
H48 C44 0.931 . S
H49 C45 0.930 . S
O50 Co39 2.039 . S
O50 C40 1.265 . S
C51 O47 1.253 . S
C51 O52 1.227 . S
O52 C51 1.227 . S
N53 Co39 2.140 . S
N53 C56 1.346 . S
N53 C57 1.345 1_455 S
C54 C55 1.387 . S
C54 C58 1.391 . S
C55 C54 1.387 . S
C55 C56 1.369 1_655 S
C55 H64 0.929 . S
C56 N53 1.346 . S
C56 C55 1.369 1_455 S
C56 H59 0.928 . S
C57 N53 1.345 1_655 S
C57 C58 1.371 . S
C57 H60 0.931 . S
C58 C54 1.391 . S
C58 C57 1.371 . S
C58 H65 0.930 . S
H59 C56 0.928 . S
H60 C57 0.931 . S
H61 C37 0.930 . S
H62 C34 0.930 . S
H63 C43 0.930 . S
H64 C55 0.929 . S
H65 C58 0.930 . S
C66 C67 1.351 . S
C66 N69 1.368 . S
C66 H71 0.931 . S
C67 C66 1.351 . S
C67 N68 1.373 . S
C67 H95 0.930 . S
N68 C67 1.373 . S
N68 C70 1.340 . S
N69 C66 1.368 . S
N69 C70 1.321 . S
N69 Co72 2.135 . S
C70 N68 1.340 . S
C70 N69 1.321 . S
C70 H94 0.930 . S
H71 C66 0.931 . S
Co72 N69 2.135 . S
Co72 N75 2.121 . S
Co72 O80 2.055 . S
Co72 O83 2.039 . S
Co72 N86 2.140 . S
C73 O74 1.227 . S
C73 O83 1.265 . S
O74 C73 1.227 . S
N75 Co72 2.121 . S
N75 C77 1.375 . S
N75 C78 1.313 . S
C76 C77 1.338 . S
C76 N79 1.377 . S
C76 H96 0.930 . S
C77 N75 1.375 . S
C77 C76 1.338 . S
C77 H81 0.931 . S
C78 N75 1.313 . S
C78 N79 1.344 . S
C78 H82 0.930 . S
N79 C76 1.377 . S
N79 C78 1.344 . S
O80 Co72 2.055 . S
O80 C84 1.253 . S
H81 C77 0.931 . S
H82 C78 0.930 . S
O83 Co72 2.039 . S
O83 C73 1.265 . S
C84 O80 1.253 . S
C84 O85 1.227 . S
O85 C84 1.227 . S
N86 Co72 2.140 . S
N86 C89 1.346 . S
N86 C90 1.345 1_655 S
C87 C88 1.387 . S
C87 C91 1.391 . S
C88 C87 1.387 . S
C88 C89 1.369 1_455 S
C88 H97 0.929 . S
C89 N86 1.346 . S
C89 C88 1.369 1_655 S
C89 H92 0.928 . S
C90 N86 1.345 1_455 S
C90 C91 1.371 . S
C90 H93 0.931 . S
C91 C87 1.391 . S
C91 C90 1.371 . S
C91 H98 0.930 . S
H92 C89 0.928 . S
H93 C90 0.931 . S
H94 C70 0.930 . S
H95 C67 0.930 . S
H96 C76 0.930 . S
H97 C88 0.929 . S
H98 C91 0.930 . S
C99 C100 1.351 . S
C99 N102 1.368 . S
C99 H104 0.931 . S
C100 C99 1.351 . S
C100 N101 1.373 . S
C100 H128 0.930 . S
N101 C100 1.373 . S
N101 C103 1.340 . S
N102 C99 1.368 . S
N102 C103 1.321 . S
N102 Co105 2.135 . S
C103 N101 1.340 . S
C103 N102 1.321 . S
C103 H127 0.930 . S
H104 C99 0.931 . S
Co105 N102 2.135 . S
Co105 N108 2.121 . S
Co105 O113 2.055 . S
Co105 O116 2.039 . S
Co105 N119 2.140 . S
C106 O107 1.227 . S
C106 O116 1.265 . S
O107 C106 1.227 . S
N108 Co105 2.121 . S
N108 C110 1.375 . S
N108 C111 1.313 . S
C109 C110 1.338 . S
C109 N112 1.377 . S
C109 H129 0.930 . S
C110 N108 1.375 . S
C110 C109 1.338 . S
C110 H114 0.931 . S
C111 N108 1.313 . S
C111 N112 1.344 . S
C111 H115 0.930 . S
N112 C109 1.377 . S
N112 C111 1.344 . S
O113 Co105 2.055 . S
O113 C117 1.253 . S
H114 C110 0.931 . S
H115 C111 0.930 . S
O116 Co105 2.039 . S
O116 C106 1.265 . S
C117 O113 1.253 . S
C117 O118 1.227 . S
O118 C117 1.227 . S
N119 Co105 2.140 . S
N119 C122 1.346 . S
N119 C123 1.345 1_655 S
C120 C121 1.387 . S
C120 C124 1.391 . S
C121 C120 1.387 . S
C121 C122 1.369 1_455 S
C121 H130 0.929 . S
C122 N119 1.346 . S
C122 C121 1.369 1_655 S
C122 H125 0.928 . S
C123 N119 1.345 1_455 S
C123 C124 1.371 . S
C123 H126 0.931 . S
C124 C120 1.391 . S
C124 C123 1.371 . S
C124 H131 0.930 . S
H125 C122 0.928 . S
H126 C123 0.931 . S
H127 C103 0.930 . S
H128 C100 0.930 . S
H129 C109 0.930 . S
H130 C121 0.929 . S
H131 C124 0.930 . S
C132 C133 1.351 . S
C132 N135 1.368 1_554 S
C132 H137 0.931 . S
C133 C132 1.351 . S
C133 N134 1.373 1_554 S
C133 H161 0.930 . S
N134 C133 1.373 1_556 S
N134 C136 1.340 . S
N135 C132 1.368 1_556 S
N135 C136 1.321 . S
N135 Co138 2.135 . S
C136 N134 1.340 . S
C136 N135 1.321 . S
C136 H160 0.930 . S
H137 C132 0.931 . S
Co138 N135 2.135 . S
Co138 N141 2.121 . S
Co138 O146 2.055 1_556 S
Co138 O149 2.039 . S
Co138 N152 2.140 . S
C139 O140 1.227 . S
C139 O149 1.265 . S
O140 C139 1.227 . S
N141 Co138 2.121 . S
N141 C143 1.375 . S
N141 C144 1.313 . S
C142 C143 1.338 . S
C142 N145 1.377 . S
C142 H162 0.930 . S
C143 N141 1.375 . S
C143 C142 1.338 . S
C143 H147 0.931 . S
C144 N141 1.313 . S
C144 N145 1.344 . S
C144 H148 0.930 1_556 S
N145 C142 1.377 . S
N145 C144 1.344 . S
O146 Co138 2.055 1_554 S
O146 C150 1.253 . S
H147 C143 0.931 . S
H148 C144 0.930 1_554 S
O149 Co138 2.039 . S
O149 C139 1.265 . S
C150 O146 1.253 . S
C150 O151 1.227 . S
O151 C150 1.227 . S
N152 Co138 2.140 . S
N152 C155 1.346 . S
N152 C156 1.345 1_455 S
C153 C154 1.387 . S
C153 C157 1.391 . S
C154 C153 1.387 . S
C154 C155 1.369 1_655 S
C154 H163 0.929 . S
C155 N152 1.346 . S
C155 C154 1.369 1_455 S
C155 H158 0.928 . S
C156 N152 1.345 1_655 S
C156 C157 1.371 . S
C156 H159 0.931 . S
C157 C153 1.391 . S
C157 C156 1.371 . S
C157 H164 0.930 . S
H158 C155 0.928 . S
H159 C156 0.931 . S
H160 C136 0.930 . S
H161 C133 0.930 . S
H162 C142 0.930 . S
H163 C154 0.929 . S
H164 C157 0.930 . S
C165 C166 1.351 . S
C165 N168 1.368 . S
C165 H170 0.931 . S
C166 C165 1.351 . S
C166 N167 1.373 . S
C166 H194 0.930 . S
N167 C166 1.373 . S
N167 C169 1.340 . S
N168 C165 1.368 . S
N168 C169 1.321 . S
N168 Co171 2.135 . S
C169 N167 1.340 . S
C169 N168 1.321 . S
C169 H193 0.930 . S
H170 C165 0.931 . S
Co171 N168 2.135 . S
Co171 N174 2.121 . S
Co171 O179 2.055 . S
Co171 O182 2.039 . S
Co171 N185 2.140 . S
C172 O173 1.227 . S
C172 O182 1.265 . S
O173 C172 1.227 . S
N174 Co171 2.121 . S
N174 C176 1.375 . S
N174 C177 1.313 . S
C175 C176 1.338 . S
C175 N178 1.377 . S
C175 H195 0.930 . S
C176 N174 1.375 . S
C176 C175 1.338 . S
C176 H180 0.931 . S
C177 N174 1.313 . S
C177 N178 1.344 . S
C177 H181 0.930 . S
N178 C175 1.377 . S
N178 C177 1.344 . S
O179 Co171 2.055 . S
O179 C183 1.253 . S
H180 C176 0.931 . S
H181 C177 0.930 . S
O182 Co171 2.039 . S
O182 C172 1.265 . S
C183 O179 1.253 . S
C183 O184 1.227 . S
O184 C183 1.227 . S
N185 Co171 2.140 . S
N185 C188 1.346 . S
N185 C189 1.345 1_455 S
C186 C187 1.387 . S
C186 C190 1.391 . S
C187 C186 1.387 . S
C187 C188 1.369 1_655 S
C187 H196 0.929 . S
C188 N185 1.346 . S
C188 C187 1.369 1_455 S
C188 H191 0.928 . S
C189 N185 1.345 1_655 S
C189 C190 1.371 . S
C189 H192 0.931 . S
C190 C186 1.391 . S
C190 C189 1.371 . S
C190 H197 0.930 . S
H191 C188 0.928 . S
H192 C189 0.931 . S
H193 C169 0.930 . S
H194 C166 0.930 . S
H195 C175 0.930 . S
H196 C187 0.929 . S
H197 C190 0.930 . S
C198 C199 1.351 . S
C198 N201 1.368 1_556 S
C198 H203 0.931 . S
C199 C198 1.351 . S
C199 N200 1.373 1_556 S
C199 H227 0.930 . S
N200 C199 1.373 1_554 S
N200 C202 1.340 . S
N201 C198 1.368 1_554 S
N201 C202 1.321 . S
N201 Co204 2.135 . S
C202 N200 1.340 . S
C202 N201 1.321 . S
C202 H226 0.930 . S
H203 C198 0.931 . S
Co204 N201 2.135 . S
Co204 N207 2.121 . S
Co204 O212 2.055 1_554 S
Co204 O215 2.039 . S
Co204 N218 2.140 . S
C205 O206 1.227 . S
C205 O215 1.265 . S
O206 C205 1.227 . S
N207 Co204 2.121 . S
N207 C209 1.375 . S
N207 C210 1.313 . S
C208 C209 1.338 . S
C208 N211 1.377 . S
C208 H228 0.930 . S
C209 N207 1.375 . S
C209 C208 1.338 . S
C209 H213 0.931 . S
C210 N207 1.313 . S
C210 N211 1.344 . S
C210 H214 0.930 1_554 S
N211 C208 1.377 . S
N211 C210 1.344 . S
O212 Co204 2.055 1_556 S
O212 C216 1.253 . S
H213 C209 0.931 . S
H214 C210 0.930 1_556 S
O215 Co204 2.039 . S
O215 C205 1.265 . S
C216 O212 1.253 . S
C216 O217 1.227 . S
O217 C216 1.227 . S
N218 Co204 2.140 . S
N218 C221 1.346 . S
N218 C222 1.345 1_655 S
C219 C220 1.387 . S
C219 C223 1.391 . S
C220 C219 1.387 . S
C220 C221 1.369 1_455 S
C220 H229 0.929 . S
C221 N218 1.346 . S
C221 C220 1.369 1_655 S
C221 H224 0.928 . S
C222 N218 1.345 1_455 S
C222 C223 1.371 . S
C222 H225 0.931 . S
C223 C219 1.391 . S
C223 C222 1.371 . S
C223 H230 0.930 . S
H224 C221 0.928 . S
H225 C222 0.931 . S
H226 C202 0.930 . S
H227 C199 0.930 . S
H228 C208 0.930 . S
H229 C220 0.929 . S
H230 C223 0.930 . S
C231 C232 1.351 . S
C231 N234 1.368 . S
C231 H236 0.931 . S
C232 C231 1.351 . S
C232 N233 1.373 . S
C232 H260 0.930 . S
N233 C232 1.373 . S
N233 C235 1.340 . S
N234 C231 1.368 . S
N234 C235 1.321 . S
N234 Co237 2.135 . S
C235 N233 1.340 . S
C235 N234 1.321 . S
C235 H259 0.930 . S
H236 C231 0.931 . S
Co237 N234 2.135 . S
Co237 N240 2.121 . S
Co237 O245 2.055 . S
Co237 O248 2.039 . S
Co237 N251 2.140 . S
C238 O239 1.227 . S
C238 O248 1.265 . S
O239 C238 1.227 . S
N240 Co237 2.121 . S
N240 C242 1.375 . S
N240 C243 1.313 . S
C241 C242 1.338 . S
C241 N244 1.377 . S
C241 H261 0.930 . S
C242 N240 1.375 . S
C242 C241 1.338 . S
C242 H246 0.931 . S
C243 N240 1.313 . S
C243 N244 1.344 . S
C243 H247 0.930 . S
N244 C241 1.377 . S
N244 C243 1.344 . S
O245 Co237 2.055 . S
O245 C249 1.253 . S
H246 C242 0.931 . S
H247 C243 0.930 . S
O248 Co237 2.039 . S
O248 C238 1.265 . S
C249 O245 1.253 . S
C249 O250 1.227 . S
O250 C249 1.227 . S
N251 Co237 2.140 . S
N251 C254 1.346 . S
N251 C255 1.345 1_655 S
C252 C253 1.387 . S
C252 C256 1.391 . S
C253 C252 1.387 . S
C253 C254 1.369 1_455 S
C253 H262 0.929 . S
C254 N251 1.346 . S
C254 C253 1.369 1_655 S
C254 H257 0.928 . S
C255 N251 1.345 1_455 S
C255 C256 1.371 . S
C255 H258 0.931 . S
C256 C252 1.391 . S
C256 C255 1.371 . S
C256 H263 0.930 . S
H257 C254 0.928 . S
H258 C255 0.931 . S
H259 C235 0.930 . S
H260 C232 0.930 . S
H261 C241 0.930 . S
H262 C253 0.929 . S
H263 C256 0.930 . S
C264 C265 1.351 . S
C264 N267 1.368 1_554 S
C264 H269 0.931 . S
C265 C264 1.351 . S
C265 N266 1.373 1_554 S
C265 H293 0.930 . S
N266 C265 1.373 1_556 S
N266 C268 1.340 . S
N267 C264 1.368 1_556 S
N267 C268 1.321 . S
N267 Co270 2.135 . S
C268 N266 1.340 . S
C268 N267 1.321 . S
C268 H292 0.930 . S
H269 C264 0.931 . S
Co270 N267 2.135 . S
Co270 N273 2.121 . S
Co270 O278 2.055 1_556 S
Co270 O281 2.039 . S
Co270 N284 2.140 . S
C271 O272 1.227 . S
C271 O281 1.265 . S
O272 C271 1.227 . S
N273 Co270 2.121 . S
N273 C275 1.375 . S
N273 C276 1.313 . S
C274 C275 1.338 . S
C274 N277 1.377 . S
C274 H294 0.930 . S
C275 N273 1.375 . S
C275 C274 1.338 . S
C275 H279 0.931 . S
C276 N273 1.313 . S
C276 N277 1.344 . S
C276 H280 0.930 1_556 S
N277 C274 1.377 . S
N277 C276 1.344 . S
O278 Co270 2.055 1_554 S
O278 C282 1.253 . S
H279 C275 0.931 . S
H280 C276 0.930 1_554 S
O281 Co270 2.039 . S
O281 C271 1.265 . S
C282 O278 1.253 . S
C282 O283 1.227 . S
O283 C282 1.227 . S
N284 Co270 2.140 . S
N284 C287 1.346 . S
N284 C288 1.345 . S
C285 C286 1.387 . S
C285 C289 1.391 . S
C286 C285 1.387 . S
C286 C287 1.369 . S
C286 H295 0.929 . S
C287 N284 1.346 . S
C287 C286 1.369 . S
C287 H290 0.928 . S
C288 N284 1.345 . S
C288 C289 1.371 . S
C288 H291 0.931 . S
C289 C285 1.391 . S
C289 C288 1.371 . S
C289 H296 0.930 . S
H290 C287 0.928 . S
H291 C288 0.931 . S
H292 C268 0.930 . S
H293 C265 0.930 . S
H294 C274 0.930 . S
H295 C286 0.929 . S
H296 C289 0.930 . S
C297 C298 1.351 . S
C297 N300 1.368 . S
C297 H302 0.931 . S
C298 C297 1.351 . S
C298 N299 1.373 . S
C298 H326 0.930 . S
N299 C298 1.373 . S
N299 C301 1.340 . S
N300 C297 1.368 . S
N300 C301 1.321 . S
N300 Co303 2.135 . S
C301 N299 1.340 . S
C301 N300 1.321 . S
C301 H325 0.930 . S
H302 C297 0.931 . S
Co303 N300 2.135 . S
Co303 N306 2.121 . S
Co303 O311 2.055 . S
Co303 O314 2.039 . S
Co303 N317 2.140 . S
C304 O305 1.227 . S
C304 O314 1.265 . S
O305 C304 1.227 . S
N306 Co303 2.121 . S
N306 C308 1.375 . S
N306 C309 1.313 . S
C307 C308 1.338 . S
C307 N310 1.377 . S
C307 H327 0.930 . S
C308 N306 1.375 . S
C308 C307 1.338 . S
C308 H312 0.931 . S
C309 N306 1.313 . S
C309 N310 1.344 . S
C309 H313 0.930 . S
N310 C307 1.377 . S
N310 C309 1.344 . S
O311 Co303 2.055 . S
O311 C315 1.253 . S
H312 C308 0.931 . S
H313 C309 0.930 . S
O314 Co303 2.039 . S
O314 C304 1.265 . S
C315 O311 1.253 . S
C315 O316 1.227 . S
O316 C315 1.227 . S
N317 Co303 2.140 . S
N317 C320 1.346 . S
N317 C321 1.345 . S
C318 C319 1.387 . S
C318 C322 1.391 . S
C319 C318 1.387 . S
C319 C320 1.369 . S
C319 H328 0.929 . S
C320 N317 1.346 . S
C320 C319 1.369 . S
C320 H323 0.928 . S
C321 N317 1.345 . S
C321 C322 1.371 . S
C321 H324 0.931 . S
C322 C318 1.391 . S
C322 C321 1.371 . S
C322 H329 0.930 . S
H323 C320 0.928 . S
H324 C321 0.931 . S
H325 C301 0.930 . S
H326 C298 0.930 . S
H327 C307 0.930 . S
H328 C319 0.929 . S
H329 C322 0.930 . S
C330 C331 1.351 . S
C330 N333 1.368 1_556 S
C330 H335 0.931 . S
C331 C330 1.351 . S
C331 N332 1.373 1_556 S
C331 H359 0.930 . S
N332 C331 1.373 1_554 S
N332 C334 1.340 . S
N333 C330 1.368 1_554 S
N333 C334 1.321 . S
N333 Co336 2.135 . S
C334 N332 1.340 . S
C334 N333 1.321 . S
C334 H358 0.930 . S
H335 C330 0.931 . S
Co336 N333 2.135 . S
Co336 N339 2.121 . S
Co336 O344 2.055 1_554 S
Co336 O347 2.039 . S
Co336 N350 2.140 . S
C337 O338 1.227 . S
C337 O347 1.265 . S
O338 C337 1.227 . S
N339 Co336 2.121 . S
N339 C341 1.375 . S
N339 C342 1.313 . S
C340 C341 1.338 . S
C340 N343 1.377 . S
C340 H360 0.930 . S
C341 N339 1.375 . S
C341 C340 1.338 . S
C341 H345 0.931 . S
C342 N339 1.313 . S
C342 N343 1.344 . S
C342 H346 0.930 1_554 S
N343 C340 1.377 . S
N343 C342 1.344 . S
O344 Co336 2.055 1_556 S
O344 C348 1.253 . S
H345 C341 0.931 . S
H346 C342 0.930 1_556 S
O347 Co336 2.039 . S
O347 C337 1.265 . S
C348 O344 1.253 . S
C348 O349 1.227 . S
O349 C348 1.227 . S
N350 Co336 2.140 . S
N350 C353 1.346 . S
N350 C354 1.345 . S
C351 C352 1.387 . S
C351 C355 1.391 . S
C352 C351 1.387 . S
C352 C353 1.369 . S
C352 H361 0.929 . S
C353 N350 1.346 . S
C353 C352 1.369 . S
C353 H356 0.928 . S
C354 N350 1.345 . S
C354 C355 1.371 . S
C354 H357 0.931 . S
C355 C351 1.391 . S
C355 C354 1.371 . S
C355 H362 0.930 . S
H356 C353 0.928 . S
H357 C354 0.931 . S
H358 C334 0.930 . S
H359 C331 0.930 . S
H360 C340 0.930 . S
H361 C352 0.929 . S
H362 C355 0.930 . S
C363 C364 1.351 . S
C363 N366 1.368 . S
C363 H368 0.931 . S
C364 C363 1.351 . S
C364 N365 1.373 . S
C364 H392 0.930 . S
N365 C364 1.373 . S
N365 C367 1.340 . S
N366 C363 1.368 . S
N366 C367 1.321 . S
N366 Co369 2.135 . S
C367 N365 1.340 . S
C367 N366 1.321 . S
C367 H391 0.930 . S
H368 C363 0.931 . S
Co369 N366 2.135 . S
Co369 N372 2.121 . S
Co369 O377 2.055 . S
Co369 O380 2.039 . S
Co369 N383 2.140 . S
C370 O371 1.227 . S
C370 O380 1.265 . S
O371 C370 1.227 . S
N372 Co369 2.121 . S
N372 C374 1.375 . S
N372 C375 1.313 . S
C373 C374 1.338 . S
C373 N376 1.377 . S
C373 H393 0.930 . S
C374 N372 1.375 . S
C374 C373 1.338 . S
C374 H378 0.931 . S
C375 N372 1.313 . S
C375 N376 1.344 . S
C375 H379 0.930 . S
N376 C373 1.377 . S
N376 C375 1.344 . S
O377 Co369 2.055 . S
O377 C381 1.253 . S
H378 C374 0.931 . S
H379 C375 0.930 . S
O380 Co369 2.039 . S
O380 C370 1.265 . S
C381 O377 1.253 . S
C381 O382 1.227 . S
O382 C381 1.227 . S
N383 Co369 2.140 . S
N383 C386 1.346 . S
N383 C387 1.345 . S
C384 C385 1.387 . S
C384 C388 1.391 . S
C385 C384 1.387 . S
C385 C386 1.369 . S
C385 H394 0.929 . S
C386 N383 1.346 . S
C386 C385 1.369 . S
C386 H389 0.928 . S
C387 N383 1.345 . S
C387 C388 1.371 . S
C387 H390 0.931 . S
C388 C384 1.391 . S
C388 C387 1.371 . S
C388 H395 0.930 . S
H389 C386 0.928 . S
H390 C387 0.931 . S
H391 C367 0.930 . S
H392 C364 0.930 . S
H393 C373 0.930 . S
H394 C385 0.929 . S
H395 C388 0.930 . S
C396 C397 1.351 . S
C396 N399 1.368 . S
C396 H401 0.931 . S
C397 C396 1.351 . S
C397 N398 1.373 . S
C397 H425 0.930 . S
N398 C397 1.373 . S
N398 C400 1.340 . S
N399 C396 1.368 . S
N399 C400 1.321 . S
N399 Co402 2.135 . S
C400 N398 1.340 . S
C400 N399 1.321 . S
C400 H424 0.930 . S
H401 C396 0.931 . S
Co402 N399 2.135 . S
Co402 N405 2.121 . S
Co402 O410 2.055 . S
Co402 O413 2.039 . S
Co402 N416 2.140 . S
C403 O404 1.227 . S
C403 O413 1.265 . S
O404 C403 1.227 . S
N405 Co402 2.121 . S
N405 C407 1.375 . S
N405 C408 1.313 . S
C406 C407 1.338 . S
C406 N409 1.377 . S
C406 H426 0.930 . S
C407 N405 1.375 . S
C407 C406 1.338 . S
C407 H411 0.931 . S
C408 N405 1.313 . S
C408 N409 1.344 . S
C408 H412 0.930 . S
N409 C406 1.377 . S
N409 C408 1.344 . S
O410 Co402 2.055 . S
O410 C414 1.253 . S
H411 C407 0.931 . S
H412 C408 0.930 . S
O413 Co402 2.039 . S
O413 C403 1.265 . S
C414 O410 1.253 . S
C414 O415 1.227 . S
O415 C414 1.227 . S
N416 Co402 2.140 . S
N416 C419 1.346 . S
N416 C420 1.345 . S
C417 C418 1.387 . S
C417 C421 1.391 . S
C418 C417 1.387 . S
C418 C419 1.369 . S
C418 H427 0.929 . S
C419 N416 1.346 . S
C419 C418 1.369 . S
C419 H422 0.928 . S
C420 N416 1.345 . S
C420 C421 1.371 . S
C420 H423 0.931 . S
C421 C417 1.391 . S
C421 C420 1.371 . S
C421 H428 0.930 . S
H422 C419 0.928 . S
H423 C420 0.931 . S
H424 C400 0.930 . S
H425 C397 0.930 . S
H426 C406 0.930 . S
H427 C418 0.929 . S
H428 C421 0.930 . S
C429 C430 1.351 . S
C429 N432 1.368 . S
C429 H434 0.931 . S
C430 C429 1.351 . S
C430 N431 1.373 . S
C430 H458 0.930 . S
N431 C430 1.373 . S
N431 C433 1.340 . S
N432 C429 1.368 . S
N432 C433 1.321 . S
N432 Co435 2.135 . S
C433 N431 1.340 . S
C433 N432 1.321 . S
C433 H457 0.930 . S
H434 C429 0.931 . S
Co435 N432 2.135 . S
Co435 N438 2.121 . S
Co435 O443 2.055 . S
Co435 O446 2.039 . S
Co435 N449 2.140 . S
C436 O437 1.227 . S
C436 O446 1.265 . S
O437 C436 1.227 . S
N438 Co435 2.121 . S
N438 C440 1.375 . S
N438 C441 1.313 . S
C439 C440 1.338 . S
C439 N442 1.377 . S
C439 H459 0.930 . S
C440 N438 1.375 . S
C440 C439 1.338 . S
C440 H444 0.931 . S
C441 N438 1.313 . S
C441 N442 1.344 . S
C441 H445 0.930 . S
N442 C439 1.377 . S
N442 C441 1.344 . S
O443 Co435 2.055 . S
O443 C447 1.253 . S
H444 C440 0.931 . S
H445 C441 0.930 . S
O446 Co435 2.039 . S
O446 C436 1.265 . S
C447 O443 1.253 . S
C447 O448 1.227 . S
O448 C447 1.227 . S
N449 Co435 2.140 . S
N449 C452 1.346 . S
N449 C453 1.345 . S
C450 C451 1.387 . S
C450 C454 1.391 . S
C451 C450 1.387 . S
C451 C452 1.369 . S
C451 H460 0.929 . S
C452 N449 1.346 . S
C452 C451 1.369 . S
C452 H455 0.928 . S
C453 N449 1.345 . S
C453 C454 1.371 . S
C453 H456 0.931 . S
C454 C450 1.391 . S
C454 C453 1.371 . S
C454 H461 0.930 . S
H455 C452 0.928 . S
H456 C453 0.931 . S
H457 C433 0.930 . S
H458 C430 0.930 . S
H459 C439 0.930 . S
H460 C451 0.929 . S
H461 C454 0.930 . S
C462 C463 1.351 . S
C462 N465 1.368 . S
C462 H467 0.931 . S
C463 C462 1.351 . S
C463 N464 1.373 . S
C463 H491 0.930 . S
N464 C463 1.373 . S
N464 C466 1.340 . S
N465 C462 1.368 . S
N465 C466 1.321 . S
N465 Co468 2.135 . S
C466 N464 1.340 . S
C466 N465 1.321 . S
C466 H490 0.930 . S
H467 C462 0.931 . S
Co468 N465 2.135 . S
Co468 N471 2.121 . S
Co468 O476 2.055 . S
Co468 O479 2.039 . S
Co468 N482 2.140 . S
C469 O470 1.227 . S
C469 O479 1.265 . S
O470 C469 1.227 . S
N471 Co468 2.121 . S
N471 C473 1.375 . S
N471 C474 1.313 . S
C472 C473 1.338 . S
C472 N475 1.377 . S
C472 H492 0.930 . S
C473 N471 1.375 . S
C473 C472 1.338 . S
C473 H477 0.931 . S
C474 N471 1.313 . S
C474 N475 1.344 . S
C474 H478 0.930 . S
N475 C472 1.377 . S
N475 C474 1.344 . S
O476 Co468 2.055 . S
O476 C480 1.253 . S
H477 C473 0.931 . S
H478 C474 0.930 . S
O479 Co468 2.039 . S
O479 C469 1.265 . S
C480 O476 1.253 . S
C480 O481 1.227 . S
O481 C480 1.227 . S
N482 Co468 2.140 . S
N482 C485 1.346 . S
N482 C486 1.345 . S
C483 C484 1.387 . S
C483 C487 1.391 . S
C484 C483 1.387 . S
C484 C485 1.369 . S
C484 H493 0.929 . S
C485 N482 1.346 . S
C485 C484 1.369 . S
C485 H488 0.928 . S
C486 N482 1.345 . S
C486 C487 1.371 . S
C486 H489 0.931 . S
C487 C483 1.391 . S
C487 C486 1.371 . S
C487 H494 0.930 . S
H488 C485 0.928 . S
H489 C486 0.931 . S
H490 C466 0.930 . S
H491 C463 0.930 . S
H492 C472 0.930 . S
H493 C484 0.929 . S
H494 C487 0.930 . S
C495 C496 1.351 . S
C495 N498 1.368 . S
C495 H500 0.931 . S
C496 C495 1.351 . S
C496 N497 1.373 . S
C496 H524 0.930 . S
N497 C496 1.373 . S
N497 C499 1.340 . S
N498 C495 1.368 . S
N498 C499 1.321 . S
N498 Co501 2.135 . S
C499 N497 1.340 . S
C499 N498 1.321 . S
C499 H523 0.930 . S
H500 C495 0.931 . S
Co501 N498 2.135 . S
Co501 N504 2.121 . S
Co501 O509 2.055 . S
Co501 O512 2.039 . S
Co501 N515 2.140 . S
C502 O503 1.227 . S
C502 O512 1.265 . S
O503 C502 1.227 . S
N504 Co501 2.121 . S
N504 C506 1.375 . S
N504 C507 1.313 . S
C505 C506 1.338 . S
C505 N508 1.377 . S
C505 H525 0.930 . S
C506 N504 1.375 . S
C506 C505 1.338 . S
C506 H510 0.931 . S
C507 N504 1.313 . S
C507 N508 1.344 . S
C507 H511 0.930 . S
N508 C505 1.377 . S
N508 C507 1.344 . S
O509 Co501 2.055 . S
O509 C513 1.253 . S
H510 C506 0.931 . S
H511 C507 0.930 . S
O512 Co501 2.039 . S
O512 C502 1.265 . S
C513 O509 1.253 . S
C513 O514 1.227 . S
O514 C513 1.227 . S
N515 Co501 2.140 . S
N515 C518 1.346 . S
N515 C519 1.345 . S
C516 C517 1.387 . S
C516 C520 1.391 . S
C517 C516 1.387 . S
C517 C518 1.369 . S
C517 H526 0.929 . S
C518 N515 1.346 . S
C518 C517 1.369 . S
C518 H521 0.928 . S
C519 N515 1.345 . S
C519 C520 1.371 . S
C519 H522 0.931 . S
C520 C516 1.391 . S
C520 C519 1.371 . S
C520 H527 0.930 . S
H521 C518 0.928 . S
H522 C519 0.931 . S
H523 C499 0.930 . S
H524 C496 0.930 . S
H525 C505 0.930 . S
H526 C517 0.929 . S
H527 C520 0.930 . S
H528 C534 0.930 . S
H529 C538 0.930 . S
H530 C543 0.929 . S
H531 C541 0.929 . S
H532 C536 0.929 . S
H533 C542 0.929 . S
C534 H528 0.930 . S
C534 C535 1.367 . S
C534 C542 1.378 . S
C535 C534 1.367 . S
C535 C543 1.433 . S
C536 H532 0.929 . S
C536 C538 1.378 . S
C536 C540 1.350 . S
C537 C540 1.463 . S
C537 C542 1.350 . S
C537 N545 1.427 . S
C538 H529 0.930 . S
C538 C536 1.378 . S
C538 C539 1.367 . S
C539 C538 1.367 . S
C539 C541 1.433 . S
C540 C536 1.350 . S
C540 C537 1.463 . S
C540 N544 1.427 . S
C541 H531 0.929 . S
C541 C539 1.433 . S
C541 N544 1.384 . S
C542 H533 0.929 . S
C542 C534 1.378 . S
C542 C537 1.350 . S
C543 H530 0.929 . S
C543 C535 1.433 . S
C543 N545 1.384 . S
N544 C540 1.427 . S
N544 C541 1.384 . S
N545 C537 1.427 . S
N545 C543 1.384 . S
H546 C552 0.930 . S
H547 C556 0.930 . S
H548 C561 0.929 . S
H549 C559 0.929 . S
H550 C554 0.929 . S
H551 C560 0.929 . S
C552 H546 0.930 . S
C552 C553 1.367 . S
C552 C560 1.378 . S
C553 C552 1.367 . S
C553 C561 1.433 . S
C554 H550 0.929 . S
C554 C556 1.378 . S
C554 C558 1.350 . S
C555 C558 1.463 1_665 S
C555 C560 1.350 . S
C555 N563 1.425 1_655 S
C556 H547 0.930 . S
C556 C554 1.378 . S
C556 C557 1.367 . S
C557 C556 1.367 . S
C557 C559 1.433 . S
C558 C554 1.350 . S
C558 C555 1.463 1_445 S
C558 N562 1.425 1_455 S
C559 H549 0.929 . S
C559 C557 1.433 . S
C559 N562 1.380 1_455 S
C560 H551 0.929 . S
C560 C552 1.378 . S
C560 C555 1.350 . S
C561 H548 0.929 . S
C561 C553 1.433 . S
C561 N563 1.380 1_655 S
N562 C558 1.425 1_655 S
N562 C559 1.380 1_655 S
N563 C555 1.425 1_455 S
N563 C561 1.380 1_455 S
H564 C570 0.930 . S
H565 C574 0.930 . S
H566 C579 0.929 . S
H567 C577 0.929 . S
H568 C572 0.929 . S
H569 C578 0.929 . S
C570 H564 0.930 . S
C570 C571 1.367 . S
C570 C578 1.378 . S
C571 C570 1.367 . S
C571 C579 1.433 . S
C572 H568 0.929 . S
C572 C574 1.378 . S
C572 C576 1.350 . S
C573 C576 1.463 1_545 S
C573 C578 1.350 . S
C573 N581 1.427 . S
C574 H565 0.930 . S
C574 C572 1.378 . S
C574 C575 1.367 . S
C575 C574 1.367 . S
C575 C577 1.433 . S
C576 C572 1.350 . S
C576 C573 1.463 1_565 S
C576 N580 1.427 . S
C577 H567 0.929 . S
C577 C575 1.433 . S
C577 N580 1.384 . S
C578 H569 0.929 . S
C578 C570 1.378 . S
C578 C573 1.350 . S
C579 H566 0.929 . S
C579 C571 1.433 . S
C579 N581 1.384 . S
N580 C576 1.427 . S
N580 C577 1.384 . S
N581 C573 1.427 . S
N581 C579 1.384 . S
H582 C588 0.930 . S
H583 C592 0.930 . S
H584 C597 0.929 . S
H585 C595 0.929 . S
H586 C590 0.929 . S
H587 C596 0.929 . S
C588 H582 0.930 . S
C588 C589 1.367 . S
C588 C596 1.378 . S
C589 C588 1.367 . S
C589 C597 1.433 . S
C590 H586 0.929 . S
C590 C592 1.378 . S
C590 C594 1.350 . S
C591 C594 1.463 1_655 S
C591 C596 1.350 . S
C591 N599 1.424 1_655 S
C592 H583 0.930 . S
C592 C590 1.378 . S
C592 C593 1.367 . S
C593 C592 1.367 . S
C593 C595 1.433 . S
C594 C590 1.350 . S
C594 C591 1.463 1_455 S
C594 N598 1.424 1_455 S
C595 H585 0.929 . S
C595 C593 1.433 . S
C595 N598 1.377 1_455 S
C596 H587 0.929 . S
C596 C588 1.378 . S
C596 C591 1.350 . S
C597 H584 0.929 . S
C597 C589 1.433 . S
C597 N599 1.377 1_655 S
N598 C594 1.424 1_655 S
N598 C595 1.377 1_655 S
N599 C591 1.424 1_455 S
N599 C597 1.377 1_455 S
H600 C606 0.930 . S
H601 C610 0.930 . S
H602 C615 0.929 . S
H603 C613 0.929 . S
H604 C608 0.929 . S
H605 C614 0.929 . S
C606 H600 0.930 . S
C606 C607 1.367 . S
C606 C614 1.378 . S
C607 C606 1.367 . S
C607 C615 1.433 . S
C608 H604 0.929 . S
C608 C610 1.378 . S
C608 C612 1.350 . S
C609 C612 1.463 . S
C609 C614 1.350 . S
C609 N617 1.427 . S
C610 H601 0.930 . S
C610 C608 1.378 . S
C610 C611 1.367 . S
C611 C610 1.367 . S
C611 C613 1.433 . S
C612 C608 1.350 . S
C612 C609 1.463 . S
C612 N616 1.427 . S
C613 H603 0.929 . S
C613 C611 1.433 . S
C613 N616 1.384 . S
C614 H605 0.929 . S
C614 C606 1.378 . S
C614 C609 1.350 . S
C615 H602 0.929 . S
C615 C607 1.433 . S
C615 N617 1.384 . S
N616 C612 1.427 . S
N616 C613 1.384 . S
N617 C609 1.427 . S
N617 C615 1.384 . S
H618 C624 0.930 . S
H619 C628 0.930 . S
H620 C633 0.929 . S
H621 C631 0.929 . S
H622 C626 0.929 . S
H623 C632 0.929 . S
C624 H618 0.930 . S
C624 C625 1.367 . S
C624 C632 1.378 . S
C625 C624 1.367 . S
C625 C633 1.433 . S
C626 H622 0.929 . S
C626 C628 1.378 . S
C626 C630 1.350 . S
C627 C630 1.463 1_565 S
C627 C632 1.350 . S
C627 N635 1.427 . S
C628 H619 0.930 . S
C628 C626 1.378 . S
C628 C629 1.367 . S
C629 C628 1.367 . S
C629 C631 1.433 . S
C630 C626 1.350 . S
C630 C627 1.463 1_545 S
C630 N634 1.427 . S
C631 H621 0.929 . S
C631 C629 1.433 . S
C631 N634 1.384 . S
C632 H623 0.929 . S
C632 C624 1.378 . S
C632 C627 1.350 . S
C633 H620 0.929 . S
C633 C625 1.433 . S
C633 N635 1.384 . S
N634 C630 1.427 . S
N634 C631 1.384 . S
N635 C627 1.427 . S
N635 C633 1.384 . S
H636 C642 0.930 . S
H637 C646 0.930 . S
H638 C651 0.929 . S
H639 C649 0.929 . S
H640 C644 0.929 1_655 S
H641 C650 0.929 1_455 S
C642 H636 0.930 . S
C642 C643 1.367 . S
C642 C650 1.378 . S
C643 C642 1.367 . S
C643 C651 1.433 . S
C644 H640 0.929 1_455 S
C644 C646 1.378 . S
C644 C648 1.350 . S
C645 C648 1.463 1_655 S
C645 C650 1.350 . S
C645 N653 1.427 . S
C646 H637 0.930 . S
C646 C644 1.378 . S
C646 C647 1.367 . S
C647 C646 1.367 . S
C647 C649 1.433 . S
C648 C644 1.350 . S
C648 C645 1.463 1_455 S
C648 N652 1.427 . S
C649 H639 0.929 . S
C649 C647 1.433 . S
C649 N652 1.384 . S
C650 H641 0.929 1_655 S
C650 C642 1.378 . S
C650 C645 1.350 . S
C651 H638 0.929 . S
C651 C643 1.433 . S
C651 N653 1.384 . S
N652 C648 1.427 . S
N652 C649 1.384 . S
N653 C645 1.427 . S
N653 C651 1.384 . S
H654 C660 0.930 . S
H655 C664 0.930 . S
H656 C669 0.929 . S
H657 C667 0.929 . S
H658 C662 0.929 . S
H659 C668 0.929 . S
C660 H654 0.930 . S
C660 C661 1.367 . S
C660 C668 1.378 . S
C661 C660 1.367 . S
C661 C669 1.433 1_554 S
C662 H658 0.929 . S
C662 C664 1.378 . S
C662 C666 1.350 . S
C663 C666 1.463 1_554 S
C663 C668 1.350 . S
C663 N671 1.427 1_554 S
C664 H655 0.930 . S
C664 C662 1.378 . S
C664 C665 1.367 . S
C665 C664 1.367 . S
C665 C667 1.433 1_556 S
C666 C662 1.350 . S
C666 C663 1.463 1_556 S
C666 N670 1.427 1_556 S
C667 H657 0.929 . S
C667 C665 1.433 1_554 S
C667 N670 1.384 . S
C668 H659 0.929 . S
C668 C660 1.378 . S
C668 C663 1.350 . S
C669 H656 0.929 . S
C669 C661 1.433 1_556 S
C669 N671 1.384 . S
N670 C666 1.427 1_554 S
N670 C667 1.384 . S
N671 C663 1.427 1_556 S
N671 C669 1.384 . S
H672 C678 0.930 . S
H673 C682 0.930 . S
H674 C687 0.929 . S
H675 C685 0.929 . S
H676 C680 0.929 . S
H677 C686 0.929 . S
C678 H672 0.930 . S
C678 C679 1.367 . S
C678 C686 1.378 . S
C679 C678 1.367 . S
C679 C687 1.433 1_554 S
C680 H676 0.929 . S
C680 C682 1.378 . S
C680 C684 1.350 . S
C681 C684 1.463 1_654 S
C681 C686 1.350 . S
C681 N689 1.427 1_554 S
C682 H673 0.930 . S
C682 C680 1.378 . S
C682 C683 1.367 . S
C683 C682 1.367 . S
C683 C685 1.433 1_556 S
C684 C680 1.350 . S
C684 C681 1.463 1_456 S
C684 N688 1.427 1_556 S
C685 H675 0.929 . S
C685 C683 1.433 1_554 S
C685 N688 1.384 . S
C686 H677 0.929 . S
C686 C678 1.378 . S
C686 C681 1.350 . S
C687 H674 0.929 . S
C687 C679 1.433 1_556 S
C687 N689 1.384 . S
N688 C684 1.427 1_554 S
N688 C685 1.384 . S
N689 C681 1.427 1_556 S
N689 C687 1.384 . S
H690 C696 0.930 . S
H691 C700 0.930 . S
H692 C705 0.929 . S
H693 C703 0.929 . S
H694 C698 0.929 . S
H695 C704 0.929 . S
C696 H690 0.930 . S
C696 C697 1.367 . S
C696 C704 1.378 . S
C697 C696 1.367 . S
C697 C705 1.433 . S
C698 H694 0.929 . S
C698 C700 1.378 . S
C698 C702 1.350 . S
C699 C702 1.463 . S
C699 C704 1.350 . S
C699 N707 1.427 . S
C700 H691 0.930 . S
C700 C698 1.378 . S
C700 C701 1.367 . S
C701 C700 1.367 . S
C701 C703 1.433 . S
C702 C698 1.350 . S
C702 C699 1.463 . S
C702 N706 1.427 . S
C703 H693 0.929 . S
C703 C701 1.433 . S
C703 N706 1.384 . S
C704 H695 0.929 . S
C704 C696 1.378 . S
C704 C699 1.350 . S
C705 H692 0.929 . S
C705 C697 1.433 . S
C705 N707 1.384 . S
N706 C702 1.427 . S
N706 C703 1.384 . S
N707 C699 1.427 . S
N707 C705 1.384 . S
H708 C714 0.930 . S
H709 C718 0.930 . S
H710 C723 0.929 . S
H711 C721 0.929 . S
H712 C716 0.929 . S
H713 C722 0.929 . S
C714 H708 0.930 . S
C714 C715 1.367 1_554 S
C714 C722 1.378 . S
C715 C714 1.367 1_556 S
C715 C723 1.433 . S
C716 H712 0.929 . S
C716 C718 1.378 . S
C716 C720 1.350 1_556 S
C717 C720 1.463 1_556 S
C717 C722 1.350 1_556 S
C717 N725 1.427 . S
C718 H709 0.930 . S
C718 C716 1.378 . S
C718 C719 1.367 1_556 S
C719 C718 1.367 1_554 S
C719 C721 1.433 . S
C720 C716 1.350 1_554 S
C720 C717 1.463 1_554 S
C720 N724 1.427 . S
C721 H711 0.929 . S
C721 C719 1.433 . S
C721 N724 1.384 . S
C722 H713 0.929 . S
C722 C714 1.378 . S
C722 C717 1.350 1_554 S
C723 H710 0.929 . S
C723 C715 1.433 . S
C723 N725 1.384 . S
N724 C720 1.427 . S
N724 C721 1.384 . S
N725 C717 1.427 . S
N725 C723 1.384 . S
H726 C732 0.930 . S
H727 C736 0.930 . S
H728 C741 0.929 . S
H729 C739 0.929 . S
H730 C734 0.929 . S
H731 C740 0.929 . S
C732 H726 0.930 . S
C732 C733 1.367 . S
C732 C740 1.378 . S
C733 C732 1.367 . S
C733 C741 1.433 . S
C734 H730 0.929 . S
C734 C736 1.378 . S
C734 C738 1.350 . S
C735 C738 1.463 . S
C735 C740 1.350 . S
C735 N743 1.427 . S
C736 H727 0.930 . S
C736 C734 1.378 . S
C736 C737 1.367 . S
C737 C736 1.367 . S
C737 C739 1.433 . S
C738 C734 1.350 . S
C738 C735 1.463 . S
C738 N742 1.427 . S
C739 H729 0.929 . S
C739 C737 1.433 . S
C739 N742 1.384 . S
C740 H731 0.929 . S
C740 C732 1.378 . S
C740 C735 1.350 . S
C741 H728 0.929 . S
C741 C733 1.433 . S
C741 N743 1.384 . S
N742 C738 1.427 . S
N742 C739 1.384 . S
N743 C735 1.427 . S
N743 C741 1.384 . S
H744 C750 0.930 . S
H745 C754 0.930 . S
H746 C759 0.929 . S
H747 C757 0.929 . S
H748 C752 0.929 . S
H749 C758 0.929 . S
C750 H744 0.930 . S
C750 C751 1.367 1_554 S
C750 C758 1.378 . S
C751 C750 1.367 1_556 S
C751 C759 1.433 . S
C752 H748 0.929 . S
C752 C754 1.378 . S
C752 C756 1.350 1_556 S
C753 C756 1.463 1_546 S
C753 C758 1.350 1_556 S
C753 N761 1.427 . S
C754 H745 0.930 . S
C754 C752 1.378 . S
C754 C755 1.367 1_556 S
C755 C754 1.367 1_554 S
C755 C757 1.433 . S
C756 C752 1.350 1_554 S
C756 C753 1.463 1_564 S
C756 N760 1.427 . S
C757 H747 0.929 . S
C757 C755 1.433 . S
C757 N760 1.384 . S
C758 H749 0.929 . S
C758 C750 1.378 . S
C758 C753 1.350 1_554 S
C759 H746 0.929 . S
C759 C751 1.433 . S
C759 N761 1.384 . S
N760 C756 1.427 . S
N760 C757 1.384 . S
N761 C753 1.427 . S
N761 C759 1.384 . S
H762 C768 0.930 . S
H763 C772 0.930 . S
H764 C777 0.929 . S
H765 C775 0.929 . S
H766 C770 0.929 . S
H767 C776 0.929 . S
C768 H762 0.930 . S
C768 C769 1.367 . S
C768 C776 1.378 . S
C769 C768 1.367 . S
C769 C777 1.433 . S
C770 H766 0.929 . S
C770 C772 1.378 . S
C770 C774 1.350 . S
C771 C774 1.463 . S
C771 C776 1.350 . S
C771 N779 1.427 . S
C772 H763 0.930 . S
C772 C770 1.378 . S
C772 C773 1.367 . S
C773 C772 1.367 . S
C773 C775 1.433 . S
C774 C770 1.350 . S
C774 C771 1.463 . S
C774 N778 1.427 . S
C775 H765 0.929 . S
C775 C773 1.433 . S
C775 N778 1.384 . S
C776 H767 0.929 . S
C776 C768 1.378 . S
C776 C771 1.350 . S
C777 H764 0.929 . S
C777 C769 1.433 . S
C777 N779 1.384 . S
N778 C774 1.427 . S
N778 C775 1.384 . S
N779 C771 1.427 . S
N779 C777 1.384 . S
H780 C786 0.930 . S
H781 C790 0.930 . S
H782 C795 0.929 . S
H783 C793 0.929 . S
H784 C788 0.929 . S
H785 C794 0.929 . S
C786 H780 0.930 . S
C786 C787 1.367 . S
C786 C794 1.378 . S
C787 C786 1.367 . S
C787 C795 1.433 . S
C788 H784 0.929 . S
C788 C790 1.378 . S
C788 C792 1.350 . S
C789 C792 1.463 . S
C789 C794 1.350 . S
C789 N797 1.427 . S
C790 H781 0.930 . S
C790 C788 1.378 . S
C790 C791 1.367 . S
C791 C790 1.367 . S
C791 C793 1.433 . S
C792 C788 1.350 . S
C792 C789 1.463 . S
C792 N796 1.427 . S
C793 H783 0.929 . S
C793 C791 1.433 . S
C793 N796 1.384 . S
C794 H785 0.929 . S
C794 C786 1.378 . S
C794 C789 1.350 . S
C795 H782 0.929 . S
C795 C787 1.433 . S
C795 N797 1.384 . S
N796 C792 1.427 . S
N796 C793 1.384 . S
N797 C789 1.427 . S
N797 C795 1.384 . S
H798 C804 0.930 . S
H799 C808 0.930 . S
H800 C813 0.929 . S
H801 C811 0.929 . S
H802 C806 0.929 . S
H803 C812 0.929 . S
C804 H798 0.930 . S
C804 C805 1.367 . S
C804 C812 1.378 . S
C805 C804 1.367 . S
C805 C813 1.433 . S
C806 H802 0.929 . S
C806 C808 1.378 . S
C806 C810 1.350 . S
C807 C810 1.463 . S
C807 C812 1.350 . S
C807 N815 1.427 . S
C808 H799 0.930 . S
C808 C806 1.378 . S
C808 C809 1.367 . S
C809 C808 1.367 . S
C809 C811 1.433 . S
C810 C806 1.350 . S
C810 C807 1.463 . S
C810 N814 1.427 . S
C811 H801 0.929 . S
C811 C809 1.433 . S
C811 N814 1.384 . S
C812 H803 0.929 . S
C812 C804 1.378 . S
C812 C807 1.350 . S
C813 H800 0.929 . S
C813 C805 1.433 . S
C813 N815 1.384 . S
N814 C810 1.427 . S
N814 C811 1.384 . S
N815 C807 1.427 . S
N815 C813 1.384 . S
H816 C822 0.930 . S
H817 C826 0.930 . S
H818 C831 0.929 . S
H819 C829 0.929 . S
H820 C824 0.929 . S
H821 C830 0.929 . S
C822 H816 0.930 . S
C822 C823 1.367 . S
C822 C830 1.378 . S
C823 C822 1.367 . S
C823 C831 1.433 . S
C824 H820 0.929 . S
C824 C826 1.378 . S
C824 C828 1.350 . S
C825 C828 1.463 . S
C825 C830 1.350 . S
C825 N833 1.427 . S
C826 H817 0.930 . S
C826 C824 1.378 . S
C826 C827 1.367 . S
C827 C826 1.367 . S
C827 C829 1.433 . S
C828 C824 1.350 . S
C828 C825 1.463 . S
C828 N832 1.427 . S
C829 H819 0.929 . S
C829 C827 1.433 . S
C829 N832 1.384 . S
C830 H821 0.929 . S
C830 C822 1.378 . S
C830 C825 1.350 . S
C831 H818 0.929 . S
C831 C823 1.433 . S
C831 N833 1.384 . S
N832 C828 1.427 . S
N832 C829 1.384 . S
N833 C825 1.427 . S
N833 C831 1.384 . S
H834 C840 0.930 . S
H835 C844 0.930 . S
H836 C849 0.929 . S
H837 C847 0.929 . S
H838 C842 0.929 . S
H839 C848 0.929 . S
C840 H834 0.930 . S
C840 C841 1.367 . S
C840 C848 1.378 . S
C841 C840 1.367 . S
C841 C849 1.433 . S
C842 H838 0.929 . S
C842 C844 1.378 . S
C842 C846 1.350 . S
C843 C846 1.463 . S
C843 C848 1.350 . S
C843 N851 1.427 . S
C844 H835 0.930 . S
C844 C842 1.378 . S
C844 C845 1.367 . S
C845 C844 1.367 . S
C845 C847 1.433 . S
C846 C842 1.350 . S
C846 C843 1.463 . S
C846 N850 1.427 . S
C847 H837 0.929 . S
C847 C845 1.433 . S
C847 N850 1.384 . S
C848 H839 0.929 . S
C848 C840 1.378 . S
C848 C843 1.350 . S
C849 H836 0.929 . S
C849 C841 1.433 . S
C849 N851 1.384 . S
N850 C846 1.427 . S
N850 C847 1.384 . S
N851 C843 1.427 . S
N851 C849 1.384 . S
H852 C858 0.930 . S
H853 C862 0.930 . S
H854 C867 0.929 . S
H855 C865 0.929 . S
H856 C860 0.929 . S
H857 C866 0.929 . S
C858 H852 0.930 . S
C858 C859 1.367 . S
C858 C866 1.378 . S
C859 C858 1.367 . S
C859 C867 1.433 . S
C860 H856 0.929 . S
C860 C862 1.378 . S
C860 C864 1.350 . S
C861 C864 1.463 . S
C861 C866 1.350 . S
C861 N869 1.427 . S
C862 H853 0.930 . S
C862 C860 1.378 . S
C862 C863 1.367 . S
C863 C862 1.367 . S
C863 C865 1.433 . S
C864 C860 1.350 . S
C864 C861 1.463 . S
C864 N868 1.427 . S
C865 H855 0.929 . S
C865 C863 1.433 . S
C865 N868 1.384 . S
C866 H857 0.929 . S
C866 C858 1.378 . S
C866 C861 1.350 . S
C867 H854 0.929 . S
C867 C859 1.433 . S
C867 N869 1.384 . S
N868 C864 1.427 . S
N868 C865 1.384 . S
N869 C861 1.427 . S
N869 C867 1.384 . S
H870 C876 0.930 . S
H871 C880 0.930 . S
H872 C885 0.929 . S
H873 C883 0.929 . S
H874 C878 0.929 . S
H875 C884 0.929 . S
C876 H870 0.930 . S
C876 C877 1.367 . S
C876 C884 1.378 . S
C877 C876 1.367 . S
C877 C885 1.433 . S
C878 H874 0.929 . S
C878 C880 1.378 . S
C878 C882 1.350 . S
C879 C882 1.463 . S
C879 C884 1.350 . S
C879 N887 1.427 . S
C880 H871 0.930 . S
C880 C878 1.378 . S
C880 C881 1.367 . S
C881 C880 1.367 . S
C881 C883 1.433 . S
C882 C878 1.350 . S
C882 C879 1.463 . S
C882 N886 1.427 . S
C883 H873 0.929 . S
C883 C881 1.433 . S
C883 N886 1.384 . S
C884 H875 0.929 . S
C884 C876 1.378 . S
C884 C879 1.350 . S
C885 H872 0.929 . S
C885 C877 1.433 . S
C885 N887 1.384 . S
N886 C882 1.427 . S
N886 C883 1.384 . S
N887 C879 1.427 . S
N887 C885 1.384 . S
H888 C894 0.930 . S
H889 C898 0.930 . S
H890 C903 0.929 . S
H891 C901 0.929 . S
H892 C896 0.929 . S
H893 C902 0.929 . S
C894 H888 0.930 . S
C894 C895 1.367 . S
C894 C902 1.378 . S
C895 C894 1.367 . S
C895 C903 1.433 . S
C896 H892 0.929 . S
C896 C898 1.378 . S
C896 C900 1.350 . S
C897 C900 1.463 . S
C897 C902 1.350 . S
C897 N905 1.427 . S
C898 H889 0.930 . S
C898 C896 1.378 . S
C898 C899 1.367 . S
C899 C898 1.367 . S
C899 C901 1.433 . S
C900 C896 1.350 . S
C900 C897 1.463 . S
C900 N904 1.427 . S
C901 H891 0.929 . S
C901 C899 1.433 . S
C901 N904 1.384 . S
C902 H893 0.929 . S
C902 C894 1.378 . S
C902 C897 1.350 . S
C903 H890 0.929 . S
C903 C895 1.433 . S
C903 N905 1.384 . S
N904 C900 1.427 . S
N904 C901 1.384 . S
N905 C897 1.427 . S
N905 C903 1.384 . S
H906 C912 0.930 . S
H907 C916 0.930 . S
H908 C921 0.929 . S
H909 C919 0.929 . S
H910 C914 0.929 . S
H911 C920 0.929 . S
C912 H906 0.930 . S
C912 C913 1.367 . S
C912 C920 1.378 . S
C913 C912 1.367 . S
C913 C921 1.433 . S
C914 H910 0.929 . S
C914 C916 1.378 . S
C914 C918 1.350 . S
C915 C918 1.463 . S
C915 C920 1.350 . S
C915 N923 1.427 . S
C916 H907 0.930 . S
C916 C914 1.378 . S
C916 C917 1.367 . S
C917 C916 1.367 . S
C917 C919 1.433 . S
C918 C914 1.350 . S
C918 C915 1.463 . S
C918 N922 1.427 . S
C919 H909 0.929 . S
C919 C917 1.433 . S
C919 N922 1.384 . S
C920 H911 0.929 . S
C920 C912 1.378 . S
C920 C915 1.350 . S
C921 H908 0.929 . S
C921 C913 1.433 . S
C921 N923 1.384 . S
N922 C918 1.427 . S
N922 C919 1.384 . S
N923 C915 1.427 . S
N923 C921 1.384 . S
H924 C930 0.930 . S
H925 C934 0.930 . S
H926 C939 0.929 . S
H927 C937 0.929 . S
H928 C932 0.929 . S
H929 C938 0.929 . S
C930 H924 0.930 . S
C930 C931 1.367 . S
C930 C938 1.378 . S
C931 C930 1.367 . S
C931 C939 1.433 . S
C932 H928 0.929 . S
C932 C934 1.378 . S
C932 C936 1.350 . S
C933 C936 1.463 . S
C933 C938 1.350 . S
C933 N941 1.427 . S
C934 H925 0.930 . S
C934 C932 1.378 . S
C934 C935 1.367 . S
C935 C934 1.367 . S
C935 C937 1.433 . S
C936 C932 1.350 . S
C936 C933 1.463 . S
C936 N940 1.427 . S
C937 H927 0.929 . S
C937 C935 1.433 . S
C937 N940 1.384 . S
C938 H929 0.929 . S
C938 C930 1.378 . S
C938 C933 1.350 . S
C939 H926 0.929 . S
C939 C931 1.433 . S
C939 N941 1.384 . S
N940 C936 1.427 . S
N940 C937 1.384 . S
N941 C933 1.427 . S
N941 C939 1.384 . S
H942 C948 0.930 . S
H943 C952 0.930 . S
H944 C957 0.929 . S
H945 C955 0.929 . S
H946 C950 0.929 . S
H947 C956 0.929 . S
C948 H942 0.930 . S
C948 C949 1.367 . S
C948 C956 1.378 . S
C949 C948 1.367 . S
C949 C957 1.433 . S
C950 H946 0.929 . S
C950 C952 1.378 . S
C950 C954 1.350 . S
C951 C954 1.463 . S
C951 C956 1.350 . S
C951 N959 1.427 . S
C952 H943 0.930 . S
C952 C950 1.378 . S
C952 C953 1.367 . S
C953 C952 1.367 . S
C953 C955 1.433 . S
C954 C950 1.350 . S
C954 C951 1.463 . S
C954 N958 1.427 . S
C955 H945 0.929 . S
C955 C953 1.433 . S
C955 N958 1.384 . S
C956 H947 0.929 . S
C956 C948 1.378 . S
C956 C951 1.350 . S
C957 H944 0.929 . S
C957 C949 1.433 . S
C957 N959 1.384 . S
N958 C954 1.427 . S
N958 C955 1.384 . S
N959 C951 1.427 . S
N959 C957 1.384 . S
H960 C966 0.930 . S
H961 C970 0.930 . S
H962 C975 0.929 . S
H963 C973 0.929 . S
H964 C968 0.929 . S
H965 C974 0.929 . S
C966 H960 0.930 . S
C966 C967 1.367 . S
C966 C974 1.378 . S
C967 C966 1.367 . S
C967 C975 1.433 . S
C968 H964 0.929 . S
C968 C970 1.378 . S
C968 C972 1.350 . S
C969 C972 1.463 . S
C969 C974 1.350 . S
C969 N977 1.427 . S
C970 H961 0.930 . S
C970 C968 1.378 . S
C970 C971 1.367 . S
C971 C970 1.367 . S
C971 C973 1.433 . S
C972 C968 1.350 . S
C972 C969 1.463 . S
C972 N976 1.427 . S
C973 H963 0.929 . S
C973 C971 1.433 . S
C973 N976 1.384 . S
C974 H965 0.929 . S
C974 C966 1.378 . S
C974 C969 1.350 . S
C975 H962 0.929 . S
C975 C967 1.433 . S
C975 N977 1.384 . S
N976 C972 1.427 . S
N976 C973 1.384 . S
N977 C969 1.427 . S
N977 C975 1.384 . S
H978 C984 0.930 . S
H979 C988 0.930 . S
H980 C993 0.929 . S
H981 C991 0.929 . S
H982 C986 0.929 . S
H983 C992 0.929 . S
C984 H978 0.930 . S
C984 C985 1.367 . S
C984 C992 1.378 . S
C985 C984 1.367 . S
C985 C993 1.433 . S
C986 H982 0.929 . S
C986 C988 1.378 . S
C986 C990 1.350 . S
C987 C990 1.463 . S
C987 C992 1.350 . S
C987 N995 1.427 . S
C988 H979 0.930 . S
C988 C986 1.378 . S
C988 C989 1.367 . S
C989 C988 1.367 . S
C989 C991 1.433 . S
C990 C986 1.350 . S
C990 C987 1.463 . S
C990 N994 1.427 . S
C991 H981 0.929 . S
C991 C989 1.433 . S
C991 N994 1.384 . S
C992 H983 0.929 . S
C992 C984 1.378 . S
C992 C987 1.350 . S
C993 H980 0.929 . S
C993 C985 1.433 . S
C993 N995 1.384 . S
N994 C990 1.427 . S
N994 C991 1.384 . S
N995 C987 1.427 . S
N995 C993 1.384 . S
H996 C1002 0.930 . S
H997 C1006 0.930 . S
H998 C1011 0.929 . S
H999 C1009 0.929 . S
H1000 C1004 0.929 . S
H1001 C1010 0.929 . S
C1002 H996 0.930 . S
C1002 C1003 1.367 . S
C1002 C1010 1.378 . S
C1003 C1002 1.367 . S
C1003 C1011 1.433 . S
C1004 H1000 0.929 . S
C1004 C1006 1.378 . S
C1004 C1008 1.350 . S
C1005 C1008 1.463 . S
C1005 C1010 1.350 . S
C1005 N1013 1.427 . S
C1006 H997 0.930 . S
C1006 C1004 1.378 . S
C1006 C1007 1.367 . S
C1007 C1006 1.367 . S
C1007 C1009 1.433 . S
C1008 C1004 1.350 . S
C1008 C1005 1.463 . S
C1008 N1012 1.427 . S
C1009 H999 0.929 . S
C1009 C1007 1.433 . S
C1009 N1012 1.384 . S
C1010 H1001 0.929 . S
C1010 C1002 1.378 . S
C1010 C1005 1.350 . S
C1011 H998 0.929 . S
C1011 C1003 1.433 . S
C1011 N1013 1.384 . S
N1012 C1008 1.427 . S
N1012 C1009 1.384 . S
N1013 C1005 1.427 . S
N1013 C1011 1.384 . S
H1014 C1020 0.930 . S
H1015 C1024 0.930 . S
H1016 C1029 0.929 . S
H1017 C1027 0.929 . S
H1018 C1022 0.929 . S
H1019 C1028 0.929 . S
C1020 H1014 0.930 . S
C1020 C1021 1.367 . S
C1020 C1028 1.378 . S
C1021 C1020 1.367 . S
C1021 C1029 1.433 . S
C1022 H1018 0.929 . S
C1022 C1024 1.378 . S
C1022 C1026 1.350 . S
C1023 C1026 1.463 . S
C1023 C1028 1.350 . S
C1023 N1031 1.427 . S
C1024 H1015 0.930 . S
C1024 C1022 1.378 . S
C1024 C1025 1.367 . S
C1025 C1024 1.367 . S
C1025 C1027 1.433 . S
C1026 C1022 1.350 . S
C1026 C1023 1.463 . S
C1026 N1030 1.427 . S
C1027 H1017 0.929 . S
C1027 C1025 1.433 . S
C1027 N1030 1.384 . S
C1028 H1019 0.929 . S
C1028 C1020 1.378 . S
C1028 C1023 1.350 . S
C1029 H1016 0.929 . S
C1029 C1021 1.433 . S
C1029 N1031 1.384 . S
N1030 C1026 1.427 . S
N1030 C1027 1.384 . S
N1031 C1023 1.427 . S
N1031 C1029 1.384 . S
H1032 C1038 0.930 . S
H1033 C1042 0.930 . S
H1034 C1047 0.929 . S
H1035 C1045 0.929 . S
H1036 C1040 0.929 . S
H1037 C1046 0.929 . S
C1038 H1032 0.930 . S
C1038 C1039 1.367 . S
C1038 C1046 1.378 . S
C1039 C1038 1.367 . S
C1039 C1047 1.433 . S
C1040 H1036 0.929 . S
C1040 C1042 1.378 . S
C1040 C1044 1.350 . S
C1041 C1044 1.463 . S
C1041 C1046 1.350 . S
C1041 N1049 1.427 . S
C1042 H1033 0.930 . S
C1042 C1040 1.378 . S
C1042 C1043 1.367 . S
C1043 C1042 1.367 . S
C1043 C1045 1.433 . S
C1044 C1040 1.350 . S
C1044 C1041 1.463 . S
C1044 N1048 1.427 . S
C1045 H1035 0.929 . S
C1045 C1043 1.433 . S
C1045 N1048 1.384 . S
C1046 H1037 0.929 . S
C1046 C1038 1.378 . S
C1046 C1041 1.350 . S
C1047 H1034 0.929 . S
C1047 C1039 1.433 . S
C1047 N1049 1.384 . S
N1048 C1044 1.427 . S
N1048 C1045 1.384 . S
N1049 C1041 1.427 . S
N1049 C1047 1.384 . S
H1050 C1056 0.930 . S
H1051 C1060 0.930 . S
H1052 C1065 0.929 . S
H1053 C1063 0.929 . S
H1054 C1058 0.929 . S
H1055 C1064 0.929 . S
C1056 H1050 0.930 . S
C1056 C1057 1.367 . S
C1056 C1064 1.378 . S
C1057 C1056 1.367 . S
C1057 C1065 1.433 . S
C1058 H1054 0.929 . S
C1058 C1060 1.378 . S
C1058 C1062 1.350 . S
C1059 C1062 1.463 . S
C1059 C1064 1.350 . S
C1059 N1067 1.427 . S
C1060 H1051 0.930 . S
C1060 C1058 1.378 . S
C1060 C1061 1.367 . S
C1061 C1060 1.367 . S
C1061 C1063 1.433 . S
C1062 C1058 1.350 . S
C1062 C1059 1.463 . S
C1062 N1066 1.427 . S
C1063 H1053 0.929 . S
C1063 C1061 1.433 . S
C1063 N1066 1.384 . S
C1064 H1055 0.929 . S
C1064 C1056 1.378 . S
C1064 C1059 1.350 . S
C1065 H1052 0.929 . S
C1065 C1057 1.433 . S
C1065 N1067 1.384 . S
N1066 C1062 1.427 . S
N1066 C1063 1.384 . S
N1067 C1059 1.427 . S
N1067 C1065 1.384 . S
H1068 C1074 0.930 . S
H1069 C1078 0.930 . S
H1070 C1083 0.929 . S
H1071 C1081 0.929 . S
H1072 C1076 0.929 . S
H1073 C1082 0.929 . S
C1074 H1068 0.930 . S
C1074 C1075 1.367 . S
C1074 C1082 1.378 . S
C1075 C1074 1.367 . S
C1075 C1083 1.433 . S
C1076 H1072 0.929 . S
C1076 C1078 1.378 . S
C1076 C1080 1.350 . S
C1077 C1080 1.463 . S
C1077 C1082 1.350 . S
C1077 N1085 1.427 . S
C1078 H1069 0.930 . S
C1078 C1076 1.378 . S
C1078 C1079 1.367 . S
C1079 C1078 1.367 . S
C1079 C1081 1.433 . S
C1080 C1076 1.350 . S
C1080 C1077 1.463 . S
C1080 N1084 1.427 . S
C1081 H1071 0.929 . S
C1081 C1079 1.433 . S
C1081 N1084 1.384 . S
C1082 H1073 0.929 . S
C1082 C1074 1.378 . S
C1082 C1077 1.350 . S
C1083 H1070 0.929 . S
C1083 C1075 1.433 . S
C1083 N1085 1.384 . S
N1084 C1080 1.427 . S
N1084 C1081 1.384 . S
N1085 C1077 1.427 . S
N1085 C1083 1.384 . S
H1086 C1092 0.930 . S
H1087 C1096 0.930 . S
H1088 C1101 0.929 . S
H1089 C1099 0.929 . S
H1090 C1094 0.929 . S
H1091 C1100 0.929 . S
C1092 H1086 0.930 . S
C1092 C1093 1.367 . S
C1092 C1100 1.378 . S
C1093 C1092 1.367 . S
C1093 C1101 1.433 . S
C1094 H1090 0.929 . S
C1094 C1096 1.378 . S
C1094 C1098 1.350 . S
C1095 C1098 1.463 . S
C1095 C1100 1.350 . S
C1095 N1103 1.427 . S
C1096 H1087 0.930 . S
C1096 C1094 1.378 . S
C1096 C1097 1.367 . S
C1097 C1096 1.367 . S
C1097 C1099 1.433 . S
C1098 C1094 1.350 . S
C1098 C1095 1.463 . S
C1098 N1102 1.427 . S
C1099 H1089 0.929 . S
C1099 C1097 1.433 . S
C1099 N1102 1.384 . S
C1100 H1091 0.929 . S
C1100 C1092 1.378 . S
C1100 C1095 1.350 . S
C1101 H1088 0.929 . S
C1101 C1093 1.433 . S
C1101 N1103 1.384 . S
N1102 C1098 1.427 . S
N1102 C1099 1.384 . S
N1103 C1095 1.427 . S
N1103 C1101 1.384 . S
H1104 C1110 0.930 . S
H1105 C1114 0.930 . S
H1106 C1119 0.929 . S
H1107 C1117 0.929 . S
H1108 C1112 0.929 . S
H1109 C1118 0.929 . S
C1110 H1104 0.930 . S
C1110 C1111 1.367 . S
C1110 C1118 1.378 . S
C1111 C1110 1.367 . S
C1111 C1119 1.433 . S
C1112 H1108 0.929 . S
C1112 C1114 1.378 . S
C1112 C1116 1.350 . S
C1113 C1116 1.463 . S
C1113 C1118 1.350 . S
C1113 N1121 1.427 . S
C1114 H1105 0.930 . S
C1114 C1112 1.378 . S
C1114 C1115 1.367 . S
C1115 C1114 1.367 . S
C1115 C1117 1.433 . S
C1116 C1112 1.350 . S
C1116 C1113 1.463 . S
C1116 N1120 1.427 . S
C1117 H1107 0.929 . S
C1117 C1115 1.433 . S
C1117 N1120 1.384 . S
C1118 H1109 0.929 . S
C1118 C1110 1.378 . S
C1118 C1113 1.350 . S
C1119 H1106 0.929 . S
C1119 C1111 1.433 . S
C1119 N1121 1.384 . S
N1120 C1116 1.427 . S
N1120 C1117 1.384 . S
N1121 C1113 1.427 . S
N1121 C1119 1.384 . S
H1122 C1128 0.930 . S
H1123 C1132 0.930 . S
H1124 C1137 0.929 . S
H1125 C1135 0.929 . S
H1126 C1130 0.929 . S
H1127 C1136 0.929 . S
C1128 H1122 0.930 . S
C1128 C1129 1.367 . S
C1128 C1136 1.378 . S
C1129 C1128 1.367 . S
C1129 C1137 1.433 . S
C1130 H1126 0.929 . S
C1130 C1132 1.378 . S
C1130 C1134 1.350 . S
C1131 C1134 1.463 . S
C1131 C1136 1.350 . S
C1131 N1139 1.427 . S
C1132 H1123 0.930 . S
C1132 C1130 1.378 . S
C1132 C1133 1.367 . S
C1133 C1132 1.367 . S
C1133 C1135 1.433 . S
C1134 C1130 1.350 . S
C1134 C1131 1.463 . S
C1134 N1138 1.427 . S
C1135 H1125 0.929 . S
C1135 C1133 1.433 . S
C1135 N1138 1.384 . S
C1136 H1127 0.929 . S
C1136 C1128 1.378 . S
C1136 C1131 1.350 . S
C1137 H1124 0.929 . S
C1137 C1129 1.433 . S
C1137 N1139 1.384 . S
N1138 C1134 1.427 . S
N1138 C1135 1.384 . S
N1139 C1131 1.427 . S
N1139 C1137 1.384 . S
H1140 C1146 0.930 . S
H1141 C1150 0.930 . S
H1142 C1155 0.929 . S
H1143 C1153 0.929 . S
H1144 C1148 0.929 . S
H1145 C1154 0.929 . S
C1146 H1140 0.930 . S
C1146 C1147 1.367 . S
C1146 C1154 1.378 . S
C1147 C1146 1.367 . S
C1147 C1155 1.433 . S
C1148 H1144 0.929 . S
C1148 C1150 1.378 . S
C1148 C1152 1.350 . S
C1149 C1152 1.463 . S
C1149 C1154 1.350 . S
C1149 N1157 1.427 . S
C1150 H1141 0.930 . S
C1150 C1148 1.378 . S
C1150 C1151 1.367 . S
C1151 C1150 1.367 . S
C1151 C1153 1.433 . S
C1152 C1148 1.350 . S
C1152 C1149 1.463 . S
C1152 N1156 1.427 . S
C1153 H1143 0.929 . S
C1153 C1151 1.433 . S
C1153 N1156 1.384 . S
C1154 H1145 0.929 . S
C1154 C1146 1.378 . S
C1154 C1149 1.350 . S
C1155 H1142 0.929 . S
C1155 C1147 1.433 . S
C1155 N1157 1.384 . S
N1156 C1152 1.427 . S
N1156 C1153 1.384 . S
N1157 C1149 1.427 . S
N1157 C1155 1.384 . S
H1158 C1164 0.930 . S
H1159 C1168 0.930 . S
H1160 C1173 0.929 . S
H1161 C1171 0.929 . S
H1162 C1166 0.929 . S
H1163 C1172 0.929 . S
C1164 H1158 0.930 . S
C1164 C1165 1.367 . S
C1164 C1172 1.378 . S
C1165 C1164 1.367 . S
C1165 C1173 1.433 . S
C1166 H1162 0.929 . S
C1166 C1168 1.378 . S
C1166 C1170 1.350 . S
C1167 C1170 1.463 . S
C1167 C1172 1.350 . S
C1167 N1175 1.427 . S
C1168 H1159 0.930 . S
C1168 C1166 1.378 . S
C1168 C1169 1.367 . S
C1169 C1168 1.367 . S
C1169 C1171 1.433 . S
C1170 C1166 1.350 . S
C1170 C1167 1.463 . S
C1170 N1174 1.427 . S
C1171 H1161 0.929 . S
C1171 C1169 1.433 . S
C1171 N1174 1.384 . S
C1172 H1163 0.929 . S
C1172 C1164 1.378 . S
C1172 C1167 1.350 . S
C1173 H1160 0.929 . S
C1173 C1165 1.433 . S
C1173 N1175 1.384 . S
N1174 C1170 1.427 . S
N1174 C1171 1.384 . S
N1175 C1167 1.427 . S
N1175 C1173 1.384 . S
H1176 C1182 0.930 . S
H1177 C1186 0.930 . S
H1178 C1191 0.929 . S
H1179 C1189 0.929 . S
H1180 C1184 0.929 . S
H1181 C1190 0.929 . S
C1182 H1176 0.930 . S
C1182 C1183 1.367 . S
C1182 C1190 1.378 . S
C1183 C1182 1.367 . S
C1183 C1191 1.433 . S
C1184 H1180 0.929 . S
C1184 C1186 1.378 . S
C1184 C1188 1.350 . S
C1185 C1188 1.463 . S
C1185 C1190 1.350 . S
C1185 N1193 1.427 . S
C1186 H1177 0.930 . S
C1186 C1184 1.378 . S
C1186 C1187 1.367 . S
C1187 C1186 1.367 . S
C1187 C1189 1.433 . S
C1188 C1184 1.350 . S
C1188 C1185 1.463 . S
C1188 N1192 1.427 . S
C1189 H1179 0.929 . S
C1189 C1187 1.433 . S
C1189 N1192 1.384 . S
C1190 H1181 0.929 . S
C1190 C1182 1.378 . S
C1190 C1185 1.350 . S
C1191 H1178 0.929 . S
C1191 C1183 1.433 . S
C1191 N1193 1.384 . S
N1192 C1188 1.427 . S
N1192 C1189 1.384 . S
N1193 C1185 1.427 . S
N1193 C1191 1.384 . S
H1194 C1200 0.930 . S
H1195 C1204 0.930 . S
H1196 C1209 0.929 . S
H1197 C1207 0.929 . S
H1198 C1202 0.929 . S
H1199 C1208 0.929 . S
C1200 H1194 0.930 . S
C1200 C1201 1.367 . S
C1200 C1208 1.378 . S
C1201 C1200 1.367 . S
C1201 C1209 1.433 . S
C1202 H1198 0.929 . S
C1202 C1204 1.378 . S
C1202 C1206 1.350 . S
C1203 C1206 1.463 . S
C1203 C1208 1.350 . S
C1203 N1211 1.427 . S
C1204 H1195 0.930 . S
C1204 C1202 1.378 . S
C1204 C1205 1.367 . S
C1205 C1204 1.367 . S
C1205 C1207 1.433 . S
C1206 C1202 1.350 . S
C1206 C1203 1.463 . S
C1206 N1210 1.427 . S
C1207 H1197 0.929 . S
C1207 C1205 1.433 . S
C1207 N1210 1.384 . S
C1208 H1199 0.929 . S
C1208 C1200 1.378 . S
C1208 C1203 1.350 . S
C1209 H1196 0.929 . S
C1209 C1201 1.433 . S
C1209 N1211 1.384 . S
N1210 C1206 1.427 . S
N1210 C1207 1.384 . S
N1211 C1203 1.427 . S
N1211 C1209 1.384 . S
H1212 C1218 0.930 . S
H1213 C1222 0.930 . S
H1214 C1227 0.929 . S
H1215 C1225 0.929 . S
H1216 C1220 0.929 . S
H1217 C1226 0.929 . S
C1218 H1212 0.930 . S
C1218 C1219 1.367 . S
C1218 C1226 1.378 . S
C1219 C1218 1.367 . S
C1219 C1227 1.433 . S
C1220 H1216 0.929 . S
C1220 C1222 1.378 . S
C1220 C1224 1.350 . S
C1221 C1224 1.463 . S
C1221 C1226 1.350 . S
C1221 N1229 1.427 . S
C1222 H1213 0.930 . S
C1222 C1220 1.378 . S
C1222 C1223 1.367 . S
C1223 C1222 1.367 . S
C1223 C1225 1.433 . S
C1224 C1220 1.350 . S
C1224 C1221 1.463 . S
C1224 N1228 1.427 . S
C1225 H1215 0.929 . S
C1225 C1223 1.433 . S
C1225 N1228 1.384 . S
C1226 H1217 0.929 . S
C1226 C1218 1.378 . S
C1226 C1221 1.350 . S
C1227 H1214 0.929 . S
C1227 C1219 1.433 . S
C1227 N1229 1.384 . S
N1228 C1224 1.427 . S
N1228 C1225 1.384 . S
N1229 C1221 1.427 . S
N1229 C1227 1.384 . S
H1230 C1236 0.930 . S
H1231 C1240 0.930 . S
H1232 C1245 0.929 . S
H1233 C1243 0.929 . S
H1234 C1238 0.929 . S
H1235 C1244 0.929 . S
C1236 H1230 0.930 . S
C1236 C1237 1.367 . S
C1236 C1244 1.378 . S
C1237 C1236 1.367 . S
C1237 C1245 1.433 . S
C1238 H1234 0.929 . S
C1238 C1240 1.378 . S
C1238 C1242 1.350 . S
C1239 C1242 1.463 . S
C1239 C1244 1.350 . S
C1239 N1247 1.427 . S
C1240 H1231 0.930 . S
C1240 C1238 1.378 . S
C1240 C1241 1.367 . S
C1241 C1240 1.367 . S
C1241 C1243 1.433 . S
C1242 C1238 1.350 . S
C1242 C1239 1.463 . S
C1242 N1246 1.427 . S
C1243 H1233 0.929 . S
C1243 C1241 1.433 . S
C1243 N1246 1.384 . S
C1244 H1235 0.929 . S
C1244 C1236 1.378 . S
C1244 C1239 1.350 . S
C1245 H1232 0.929 . S
C1245 C1237 1.433 . S
C1245 N1247 1.384 . S
N1246 C1242 1.427 . S
N1246 C1243 1.384 . S
N1247 C1239 1.427 . S
N1247 C1245 1.384 . S
C535 N2 1.584 . S
C539 N464 1.584 . S
C553 N79 1.605 . S
C557 N13 1.605 . S
C571 N35 1.580 . S
C575 N365 1.580 . S
C589 N244 1.605 . S
C593 N46 1.605 . S
C607 N68 1.595 . S
C611 N398 1.595 . S
C625 N101 1.588 . S
C629 N299 1.588 . S
C643 N112 1.601 . S
C647 N178 1.601 . S
C661 N332 1.594 . S
C665 N134 1.594 . S
C679 N211 1.600 . S
C683 N145 1.600 . S
C697 N167 1.594 . S
C701 N497 1.594 . S
C715 N266 1.580 . S
C719 N200 1.580 . S
C733 N431 1.594 . S
C737 N233 1.594 . S
C751 N277 1.605 . S
C755 N343 1.605 . S
C769 N508 1.602 . S
C773 N310 1.602 . S
C787 N376 1.602 . S
C791 N442 1.602 . S
C805 N409 1.600 . S
C809 N475 1.600 . S
C823 C7 1.126 . S
C827 C318 1.144 . S
C841 C304 1.136 . S
C845 C21 1.143 . S
C859 C40 1.135 . S
C863 C285 1.136 . S
C877 C54 1.138 . S
C881 C271 1.136 . S
C895 C384 1.136 . S
C899 C73 1.135 . S
C913 C370 1.137 . S
C917 C87 1.139 . S
C931 C106 1.123 . S
C935 C351 1.138 . S
C949 C120 1.142 . S
C953 C337 1.137 . S
C967 C139 1.137 . S
C971 C450 1.141 . S
C985 C436 1.131 . S
C989 C153 1.135 . S
C1003 C172 1.134 . S
C1007 C417 1.136 . S
C1021 C403 1.127 . S
C1025 C186 1.144 . S
C1039 C516 1.145 . S
C1043 C205 1.130 . S
C1057 C219 1.142 . S
C1061 C502 1.124 . S
C1075 C238 1.123 . S
C1079 C483 1.137 . S
C1093 C252 1.134 . S
C1097 C469 1.130 . S
C1111 C51 1.100 . S
C1115 C18 1.100 . S
C1129 C84 1.100 . S
C1133 C117 1.100 . S
C1147 C150 1.103 . S
C1151 C183 1.103 . S
C1165 C216 1.102 . S
C1169 C249 1.102 . S
C1183 C315 1.103 . S
C1187 C282 1.103 . S
C1201 C381 1.102 . S
C1205 C348 1.102 . S
C1219 C414 1.101 . S
C1223 C447 1.101 . S
C1237 C513 1.100 . S
C1241 C480 1.100 . S
