# Generated by pormake.
# Topology smc, (6)-cn, num edge types: 1
# Building blocks:
#     Node 0, Type 0, BuildingBlock: BETDAH_clean_sbu_0, # of connection points: 6
#     Node 1, Type 0, BuildingBlock: BETDAH_clean_sbu_0, # of connection points: 6
#     Node 2, Type 0, BuildingBlock: BETDAH_clean_sbu_0, # of connection points: 6
#     Node 3, Type 0, BuildingBlock: BETDAH_clean_sbu_0, # of connection points: 6
#     Node 4, Type 0, BuildingBlock: BETDAH_clean_sbu_0, # of connection points: 6
#     Node 5, Type 0, BuildingBlock: BETDAH_clean_sbu_0, # of connection points: 6
#     Node 6, Type 0, BuildingBlock: BETDAH_clean_sbu_0, # of connection points: 6
#     Node 7, Type 0, BuildingBlock: BETDAH_clean_sbu_0, # of connection points: 6
#     Node 8, Type 0, BuildingBlock: BETDAH_clean_sbu_0, # of connection points: 6
#     Edge 9, Type (0, 0), BuildingBlock: KIFKEQ_clean_linker_1, # of connection points: 2
#     Edge 10, Type (0, 0), BuildingBlock: KIFKEQ_clean_linker_1, # of connection points: 2
#     Edge 11, Type (0, 0), BuildingBlock: KIFKEQ_clean_linker_1, # of connection points: 2
#     Edge 12, Type (0, 0), BuildingBlock: KIFKEQ_clean_linker_1, # of connection points: 2
#     Edge 13, Type (0, 0), BuildingBlock: KIFKEQ_clean_linker_1, # of connection points: 2
#     Edge 14, Type (0, 0), BuildingBlock: KIFKEQ_clean_linker_1, # of connection points: 2
#     Edge 15, Type (0, 0), BuildingBlock: KIFKEQ_clean_linker_1, # of connection points: 2
#     Edge 16, Type (0, 0), BuildingBlock: KIFKEQ_clean_linker_1, # of connection points: 2
#     Edge 17, Type (0, 0), BuildingBlock: KIFKEQ_clean_linker_1, # of connection points: 2
#     Edge 18, Type (0, 0), BuildingBlock: KIFKEQ_clean_linker_1, # of connection points: 2
#     Edge 19, Type (0, 0), BuildingBlock: KIFKEQ_clean_linker_1, # of connection points: 2
#     Edge 20, Type (0, 0), BuildingBlock: KIFKEQ_clean_linker_1, # of connection points: 2
#     Edge 21, Type (0, 0), BuildingBlock: KIFKEQ_clean_linker_1, # of connection points: 2
#     Edge 22, Type (0, 0), BuildingBlock: KIFKEQ_clean_linker_1, # of connection points: 2
#     Edge 23, Type (0, 0), BuildingBlock: KIFKEQ_clean_linker_1, # of connection points: 2
#     Edge 24, Type (0, 0), BuildingBlock: KIFKEQ_clean_linker_1, # of connection points: 2
#     Edge 25, Type (0, 0), BuildingBlock: KIFKEQ_clean_linker_1, # of connection points: 2
#     Edge 26, Type (0, 0), BuildingBlock: KIFKEQ_clean_linker_1, # of connection points: 2
#     Edge 27, Type (0, 0), BuildingBlock: KIFKEQ_clean_linker_1, # of connection points: 2
#     Edge 28, Type (0, 0), BuildingBlock: KIFKEQ_clean_linker_1, # of connection points: 2
#     Edge 29, Type (0, 0), BuildingBlock: KIFKEQ_clean_linker_1, # of connection points: 2
#     Edge 30, Type (0, 0), BuildingBlock: KIFKEQ_clean_linker_1, # of connection points: 2
#     Edge 31, Type (0, 0), BuildingBlock: KIFKEQ_clean_linker_1, # of connection points: 2
#     Edge 32, Type (0, 0), BuildingBlock: KIFKEQ_clean_linker_1, # of connection points: 2
#     Edge 33, Type (0, 0), BuildingBlock: KIFKEQ_clean_linker_1, # of connection points: 2
#     Edge 34, Type (0, 0), BuildingBlock: KIFKEQ_clean_linker_1, # of connection points: 2
#     Edge 35, Type (0, 0), BuildingBlock: KIFKEQ_clean_linker_1, # of connection points: 2
# Relax obj value: 0.174
# Max RMSD: 0.311
# Mean RMSD: 0.311
data_MOF--net-smc--node1-BETDAH_clean_sbu_0--edge1-KIFKEQ_clean_linker_1
_symmetry_space_group_name_H-M    P1
_symmetry_Int_Tables_number       1
_symmetry_cell_setting            triclinic
loop_
_symmetry_equiv_pos_as_xyz
'x, y, z'
_cell_length_a     39.813442
_cell_length_b     39.804473
_cell_length_c     38.685726
_cell_angle_alpha  90.239489
_cell_angle_beta   89.88176
_cell_angle_gamma 119.95381
loop_
_atom_site_label
_atom_site_type_symbol
_atom_site_fract_x
_atom_site_fract_y
_atom_site_fract_z
_atom_type_partial_charge
Ho0 Ho 0.04976 0.48908 1.03026 0.0
Ho1 Ho 1.00072 0.40429 0.04426 0.0
C2 C 0.09273 0.43908 1.03235 0.0
C3 C 0.09837 0.56199 1.02693 0.0
C4 C 0.12624 0.60378 1.02508 0.0
C5 C 0.14829 0.62373 0.05412 0.0
C6 C 0.17415 0.66362 0.05261 0.0
C7 C 0.17789 0.68459 1.0222 0.0
C8 C 0.1554 0.66425 0.99321 0.0
C9 C 0.13018 0.62423 0.99455 0.0
C10 C 1.01089 0.44299 0.97528 0.0
C11 C 0.96298 0.45888 0.04459 0.0
C12 C 0.95392 0.33064 0.04172 0.0
C13 C 0.91113 0.30801 0.04517 0.0
C14 C 0.88702 0.31329 1.02189 0.0
C15 C 0.84674 0.29211 1.02535 0.0
C16 C 0.82936 0.26542 0.05246 0.0
C17 C 0.85363 0.26084 0.07617 0.0
C18 C 0.89399 0.28171 0.07243 0.0
C19 C 1.02677 0.44684 0.10307 0.0
O20 O 0.09582 0.47347 1.02926 0.0
O21 O 0.05913 0.40712 0.03885 0.0
O22 O 0.08991 0.53902 1.00011 0.0
O23 O 0.08058 0.54511 0.05564 0.0
O24 O 1.01301 0.47617 0.98084 0.0
O25 O 0.02881 0.43709 0.99855 0.0
O26 O 0.95721 0.42452 1.03478 0.0
O27 O 0.99775 0.48689 0.05262 0.0
O28 O 0.97357 0.34819 0.06961 0.0
O29 O 0.96718 0.35236 1.01417 0.0
O30 O 0.99105 0.4205 0.09722 0.0
O31 O 0.04566 0.45234 0.07534 0.0
H32 H 0.1458 0.6084 0.07793 0.0
H33 H 0.19146 0.67782 0.07526 0.0
H34 H 0.15665 0.6792 0.96952 0.0
H35 H 0.11312 0.60942 0.97191 0.0
H36 H 0.89916 0.33366 1.00073 0.0
H37 H 0.82929 0.29618 1.00622 0.0
H38 H 0.84155 0.24125 0.09784 0.0
H39 H 0.91185 0.27742 0.09097 0.0
Ho40 Ho 0.5637 0.57389 0.03856 0.0
Ho41 Ho 0.64815 0.60649 0.04541 0.0
C42 C 0.61242 0.66339 1.02783 0.0
C43 C 0.48911 0.53508 0.04552 0.0
C44 C 0.45085 0.5312 0.03859 0.0
C45 C 0.43316 0.54278 0.06377 0.0
C46 C 0.39401 0.53178 0.06106 0.0
C47 C 0.37154 0.50863 1.03327 0.0
C48 C 0.38974 0.49853 1.00731 0.0
C49 C 0.42893 0.50968 1.00994 0.0
C50 C 0.60197 0.58382 0.97798 0.0
C51 C 0.59519 0.51684 0.05535 0.0
C52 C 0.72196 0.633 0.04251 0.0
C53 C 0.74489 0.61315 0.04146 0.0
C54 C 0.73356 0.5799 1.02102 0.0
C55 C 0.75453 0.56029 1.02199 0.0
C56 C 0.78685 0.57306 0.04393 0.0
C57 C 0.79738 0.60584 0.06497 0.0
C58 C 0.7768 0.62575 0.06354 0.0
C59 C 0.61264 0.60167 0.1067 0.0
O60 O 0.5775 0.63437 1.03436 0.0
O61 O 0.64389 0.65961 1.02858 0.0
O62 O 0.50758 0.52975 1.02002 0.0
O63 O 0.51231 0.56164 0.06745 0.0
O64 O 0.57333 0.59033 0.98191 0.0
O65 O 0.60744 0.57075 1.00566 0.0
O66 O 0.62815 0.54272 0.04114 0.0
O67 O 0.5696 0.52685 0.06435 0.0
O68 O 0.7033 0.62884 0.07135 0.0
O69 O 0.70107 0.62982 1.01531 0.0
O70 O 0.63711 0.58981 0.10116 0.0
O71 O 0.60574 0.61252 0.07826 0.0
H72 H 0.44911 0.55893 0.08641 0.0
H73 H 0.38116 0.54074 0.08118 0.0
H74 H 0.37334 0.48039 0.98571 0.0
H75 H 0.44147 0.49971 0.99038 0.0
H76 H 0.7084 0.56884 1.00446 0.0
H77 H 0.74561 0.53542 1.00521 0.0
H78 H 0.82133 0.61602 0.08294 0.0
H79 H 0.78546 0.65071 0.08018 0.0
Ho80 Ho 0.47954 1.00067 1.03573 0.0
Ho81 Ho 0.44865 0.05408 0.04463 0.0
C82 C 0.39007 0.96135 1.02713 0.0
C83 C 0.51829 0.96448 0.04031 0.0
C84 C 0.52361 0.93115 1.03187 0.0
C85 C 0.50441 0.89651 0.05081 0.0
C86 C 0.51551 0.86837 0.04762 0.0
C87 C 0.54617 0.87435 1.02559 0.0
C88 C 0.56431 0.90834 1.0057 0.0
C89 C 0.55321 0.93643 1.00887 0.0
C90 C 0.46858 0.02969 0.97611 0.0
C91 C 0.53821 0.08846 0.05336 0.0
C92 C 0.42213 0.10156 0.04246 0.0
C93 C 0.44125 0.14423 0.04124 0.0
C94 C 0.47711 0.16657 1.0246 0.0
C95 C 0.49581 0.20715 1.02552 0.0
C96 C 0.47924 0.22619 0.04345 0.0
C97 C 0.44355 0.20351 0.06043 0.0
C98 C 0.42477 0.16304 0.05922 0.0
C99 C 0.45405 0.02303 0.10525 0.0
O100 O 0.41883 0.95476 1.03263 0.0
O101 O 0.39454 0.99689 1.02845 0.0
O102 O 0.52397 0.9895 1.01601 0.0
O103 O 0.49103 0.95965 0.06207 0.0
O104 O 0.46155 0.99434 0.97946 0.0
O105 O 0.48269 0.04807 1.00379 0.0
O106 O 0.51266 0.09703 0.04083 0.0
O107 O 0.52742 0.05259 0.06174 0.0
O108 O 0.42721 0.08757 0.07112 0.0
O109 O 0.42523 0.08387 1.01512 0.0
O110 O 0.46648 0.05948 0.09996 0.0
O111 O 0.44253 1.00526 0.07672 0.0
H112 H 0.48194 0.8918 0.06921 0.0
H113 H 0.50113 0.84268 0.06356 0.0
H114 H 0.58759 0.91357 0.98807 0.0
H115 H 0.56897 0.96307 0.99432 0.0
H116 H 0.49085 0.15271 1.01115 0.0
H117 H 0.52307 0.22354 1.01196 0.0
H118 H 0.43031 0.21698 0.07525 0.0
H119 H 0.39758 0.14636 0.07286 0.0
Ho120 Ho 0.72207 0.82522 0.36834 0.0
Ho121 Ho 0.66591 0.74217 0.38012 0.0
C122 C 0.75815 0.77175 0.36507 0.0
C123 C 0.76066 0.90016 0.36875 0.0
C124 C 0.79657 0.93805 0.36587 0.0
C125 C 0.81757 0.95705 0.39575 0.0
C126 C 0.84519 0.99647 0.3949 0.0
C127 C 0.85224 1.01776 0.36421 0.0
C128 C 0.83296 0.99821 0.33384 0.0
C129 C 0.80531 0.95876 0.33469 0.0
C130 C 0.69139 0.78242 0.31049 0.0
C131 C 0.63395 0.80017 0.38527 0.0
C132 C 0.61677 0.66872 0.37825 0.0
C133 C 0.57381 0.64615 0.37671 0.0
C134 C 0.55391 0.64009 0.34523 0.0
C135 C 0.51337 0.61938 0.34435 0.0
C136 C 0.49183 0.60437 0.37489 0.0
C137 C 0.51171 0.61055 0.40633 0.0
C138 C 0.5522 0.63103 0.4072 0.0
C139 C 0.70138 0.78083 0.43955 0.0
O140 O 0.76622 0.80753 0.37138 0.0
O141 O 0.72176 0.74215 0.36404 0.0
O142 O 0.74552 0.87949 0.34082 0.0
O143 O 0.75482 0.8791 0.39641 0.0
O144 O 0.72753 0.80884 0.31367 0.0
O145 O 0.67318 0.78079 0.33768 0.0
O146 O 0.62389 0.76434 0.37645 0.0
O147 O 0.67054 0.82602 0.39035 0.0
O148 O 0.63156 0.68798 0.40686 0.0
O149 O 0.63514 0.68866 0.35084 0.0
O150 O 0.66448 0.7573 0.43605 0.0
O151 O 0.71656 0.7848 0.4101 0.0
H152 H 0.81121 0.94206 0.42028 0.0
H153 H 0.86008 1.01059 0.41861 0.0
H154 H 0.83752 1.01383 0.30984 0.0
H155 H 0.78914 0.94514 0.31135 0.0
H156 H 0.56959 0.65139 0.32125 0.0
H157 H 0.49886 0.61533 0.31975 0.0
H158 H 0.49599 0.59885 0.43022 0.0
H159 H 0.5666 0.63502 0.43185 0.0
Ho160 Ho 0.2288 0.91172 0.36572 0.0
Ho161 Ho 0.31194 0.94183 0.37997 0.0
C162 C 0.27819 1.00155 0.36722 0.0
C163 C 0.1539 0.87285 0.36227 0.0
C164 C 0.11557 0.87015 0.36087 0.0
C165 C 0.09593 0.86906 0.39143 0.0
C166 C 0.05649 0.85734 0.39062 0.0
C167 C 0.03579 0.84621 0.35928 0.0
C168 C 0.05596 0.84928 0.32852 0.0
C169 C 0.09539 0.86103 0.32934 0.0
C170 C 0.27401 0.92607 0.30919 0.0
C171 C 0.25676 0.85113 0.38344 0.0
C172 C 0.3859 0.96858 0.37948 0.0
C173 C 0.40968 0.94938 0.37991 0.0
C174 C 0.41181 0.92881 0.3511 0.0
C175 C 0.43373 0.91014 0.35254 0.0
C176 C 0.45383 0.91137 0.38288 0.0
C177 C 0.45112 0.93156 0.41175 0.0
C178 C 0.42964 0.95053 0.41017 0.0
C179 C 0.27085 0.93492 0.43855 0.0
O180 O 0.2432 0.97213 0.37279 0.0
O181 O 0.30905 0.9967 0.36507 0.0
O182 O 0.17634 0.8854 0.33512 0.0
O183 O 0.17315 0.88231 0.39141 0.0
O184 O 0.24687 0.93484 0.31172 0.0
O185 O 0.27546 0.90965 0.33642 0.0
O186 O 0.29276 0.8782 0.37697 0.0
O187 O 0.22914 0.85978 0.38629 0.0
O188 O 0.36618 0.96492 0.40761 0.0
O189 O 0.36592 0.96494 0.35148 0.0
O190 O 0.29596 0.92342 0.43527 0.0
O191 O 0.26674 0.94636 0.40929 0.0
H192 H 0.1105 0.87545 0.41621 0.0
H193 H 0.04194 0.85595 0.4147 0.0
H194 H 0.04087 0.84059 0.30399 0.0
H195 H 0.10952 0.86084 0.30543 0.0
H196 H 0.39664 0.92713 0.32738 0.0
H197 H 0.43542 0.89534 0.32963 0.0
H198 H 0.46536 0.93253 0.43584 0.0
H199 H 0.42836 0.96588 0.43287 0.0
Ho200 Ho 0.1383 0.33294 0.36389 0.0
Ho201 Ho 0.11299 0.38824 0.3814 0.0
C202 C 0.04945 0.2968 0.36927 0.0
C203 C 0.17455 0.29449 0.35749 0.0
C204 C 0.18 0.26051 0.35992 0.0
C205 C 0.1925 0.25194 0.39088 0.0
C206 C 0.20591 0.22549 0.3911 0.0
C207 C 0.20754 0.20736 0.36031 0.0
C208 C 0.19354 0.21489 0.32966 0.0
C209 C 0.17994 0.24113 0.3295 0.0
C210 C 0.1235 0.36481 0.3084 0.0
C211 C 0.20326 0.42145 0.37871 0.0
C212 C 0.08861 0.43726 0.38666 0.0
C213 C 0.10911 0.48 0.38739 0.0
C214 C 0.13761 0.50219 0.36273 0.0
C215 C 0.15708 0.5427 0.36429 0.0
C216 C 0.14883 0.56184 0.39079 0.0
C217 C 0.12103 0.53935 0.41591 0.0
C218 C 0.10124 0.49893 0.41406 0.0
C219 C 0.12224 0.35437 0.43871 0.0
O220 O 0.07764 0.28942 0.37516 0.0
O221 O 0.05625 0.33301 0.36672 0.0
O222 O 0.15209 0.29558 0.33348 0.0
O223 O 0.17567 0.3135 0.38552 0.0
O224 O 0.1145 0.32889 0.31005 0.0
O225 O 0.1411 0.38244 0.33542 0.0
O226 O 0.17641 0.43123 0.3747 0.0
O227 O 0.19379 0.38485 0.38033 0.0
O228 O 0.09436 0.42083 0.41331 0.0
O229 O 0.08937 0.42098 0.35758 0.0
O230 O 0.13691 0.39131 0.43428 0.0
O231 O 0.10753 0.33759 0.41036 0.0
H232 H 0.19344 0.2668 0.41469 0.0
H233 H 0.21572 0.21985 0.41533 0.0
H234 H 0.19474 0.20192 0.30537 0.0
H235 H 0.17131 0.24778 0.30509 0.0
H236 H 0.14477 0.48831 0.34213 0.0
H237 H 0.17797 0.55892 0.34429 0.0
H238 H 0.11453 0.55292 0.4372 0.0
H239 H 0.07987 0.48239 0.43366 0.0
Ho240 Ho 0.38316 0.15539 0.70294 0.0
Ho241 Ho 0.33008 0.07048 0.71417 0.0
C242 C 0.42129 0.10386 0.69156 0.0
C243 C 0.42006 0.23038 0.70708 0.0
C244 C 0.45315 0.26895 0.6982 0.0
C245 C 0.48802 0.28497 0.71696 0.0
C246 C 0.51591 0.32421 0.71342 0.0
C247 C 0.50946 0.34837 0.69123 0.0
C248 C 0.47524 0.33193 0.67152 0.0
C249 C 0.44742 0.29273 0.67501 0.0
C250 C 0.35147 0.11365 0.64467 0.0
C251 C 0.29583 0.12593 0.72324 0.0
C252 C 0.28194 0.99656 0.714 0.0
C253 C 0.23919 0.97309 0.71253 0.0
C254 C 0.21704 0.98543 0.69389 0.0
C255 C 0.17643 0.96406 0.69495 0.0
C256 C 0.15717 0.93026 0.71512 0.0
C257 C 0.17958 0.9181 0.73368 0.0
C258 C 0.22009 0.93929 0.73239 0.0
C259 C 0.36758 0.10973 0.77266 0.0
O260 O 0.42829 0.13952 0.69665 0.0
O261 O 0.38603 0.0728 0.69513 0.0
O262 O 0.39422 0.21082 0.68328 0.0
O263 O 0.42539 0.20814 0.72859 0.0
O264 O 0.38646 0.14297 0.64646 0.0
O265 O 0.33433 0.10962 0.67311 0.0
O266 O 0.28724 0.09162 0.711 0.0
O267 O 0.33195 0.15146 0.73066 0.0
O268 O 0.29579 1.01703 0.74215 0.0
O269 O 0.30004 1.01588 0.68626 0.0
O270 O 0.33085 0.08499 0.77057 0.0
O271 O 0.38152 0.11445 0.74261 0.0
H272 H 0.4931 0.26768 0.73551 0.0
H273 H 0.54179 0.33597 0.72922 0.0
H274 H 0.46962 0.34954 0.65379 0.0
H275 H 0.42062 0.28144 0.66058 0.0
H276 H 0.23101 1.01197 0.6791 0.0
H277 H 0.16015 0.97459 0.68072 0.0
H278 H 0.1658 0.89204 0.7492 0.0
H279 H 0.23657 0.92955 0.74737 0.0
Ho280 Ho 0.89308 0.24345 0.69644 0.0
Ho281 Ho 0.97664 0.27081 0.70997 0.0
C282 C 0.94765 0.33325 0.69159 0.0
C283 C 0.81817 0.20726 0.6981 0.0
C284 C 0.77971 0.20306 0.69149 0.0
C285 C 0.76116 0.21299 0.71717 0.0
C286 C 0.72168 0.20087 0.71446 0.0
C287 C 0.69976 0.17815 0.68621 0.0
C288 C 0.71886 0.1697 0.65985 0.0
C289 C 0.75832 0.18204 0.66245 0.0
C290 C 0.93687 0.25519 0.63943 0.0
C291 C 0.91859 0.18111 0.71511 0.0
C292 C 0.04998 0.29435 0.70969 0.0
C293 C 0.07239 0.27368 0.7098 0.0
C294 C 0.08434 0.26451 0.67866 0.0
C295 C 0.10531 0.24487 0.67895 0.0
C296 C 0.11474 0.23389 0.71036 0.0
C297 C 0.10262 0.24286 0.74146 0.0
C298 C 0.08185 0.26263 0.7412 0.0
C299 C 0.93584 0.26651 0.76795 0.0
O300 O 0.9113 0.30556 0.69506 0.0
O301 O 0.97737 0.32677 0.69409 0.0
O302 O 0.83811 0.20517 0.6721 0.0
O303 O 0.83994 0.23018 0.72296 0.0
O304 O 0.90936 0.26362 0.64142 0.0
O305 O 0.93845 0.23935 0.66706 0.0
O306 O 0.95435 0.20672 0.70626 0.0
O307 O 0.89271 0.19194 0.72008 0.0
O308 O 0.03039 0.29139 0.73776 0.0
O309 O 0.03049 0.29176 0.68162 0.0
O310 O 0.96018 0.25393 0.76546 0.0
O311 O 0.93287 0.27845 0.73862 0.0
H312 H 0.77667 0.22865 0.74015 0.0
H313 H 0.7082 0.20861 0.73495 0.0
H314 H 0.70301 0.15186 0.63792 0.0
H315 H 0.77152 0.17319 0.64255 0.0
H316 H 0.07753 0.27252 0.65402 0.0
H317 H 0.11399 0.23811 0.65454 0.0
H318 H 0.10994 0.23535 0.7661 0.0
H319 H 0.07335 0.26938 0.76571 0.0
Ho320 Ho 0.80927 0.66546 0.70206 0.0
Ho321 Ho 0.7767 0.71784 0.71228 0.0
C322 C 0.71943 0.62571 0.6918 0.0
C323 C 0.8477 0.62898 0.70627 0.0
C324 C 0.85099 0.59391 0.70128 0.0
C325 C 0.85458 0.57536 0.73061 0.0
C326 C 0.86566 0.54732 0.7275 0.0
C327 C 0.87321 0.53677 0.69486 0.0
C328 C 0.86796 0.55421 0.66529 0.0
C329 C 0.85721 0.58267 0.66846 0.0
C330 C 0.79913 0.69638 0.64354 0.0
C331 C 0.8668 0.75368 0.72175 0.0
C332 C 0.75114 0.76604 0.71062 0.0
C333 C 0.77129 0.80914 0.70963 0.0
C334 C 0.78024 0.82914 0.67803 0.0
C335 C 0.79967 0.86975 0.67742 0.0
C336 C 0.81067 0.89132 0.70839 0.0
C337 C 0.80189 0.87131 0.73993 0.0
C338 C 0.78235 0.8308 0.74056 0.0
C339 C 0.77906 0.68211 0.7714 0.0
O340 O 0.74834 0.61938 0.69794 0.0
O341 O 0.72345 0.66108 0.69374 0.0
O342 O 0.84876 0.64916 0.67929 0.0
O343 O 0.82521 0.62907 0.73094 0.0
O344 O 0.79274 0.66116 0.64578 0.0
O345 O 0.81239 0.71386 0.6718 0.0
O346 O 0.84058 0.76148 0.70952 0.0
O347 O 0.85738 0.71767 0.72819 0.0
O348 O 0.75509 0.75085 0.73909 0.0
O349 O 0.75337 0.74806 0.68306 0.0
O350 O 0.79074 0.71875 0.76869 0.0
O351 O 0.76975 0.66728 0.74162 0.0
H352 H 0.85077 0.584 0.75626 0.0
H353 H 0.87004 0.53532 0.75099 0.0
H354 H 0.87283 0.54646 0.63966 0.0
H355 H 0.85511 0.59676 0.64533 0.0
H356 H 0.77226 0.81344 0.65373 0.0
H357 H 0.80629 0.88429 0.65266 0.0
H358 H 0.80938 0.88696 0.76426 0.0
H359 H 0.77583 0.81646 0.76542 0.0
H360 H 0.31962 0.48349 0.08714 0.0
H361 H 0.32698 0.49956 0.97638 0.0
H362 H 0.25031 0.46044 0.08488 0.0
H363 H 0.25754 0.47376 0.9738 0.0
H364 H 0.14907 0.48217 0.98767 0.0
H365 H 0.21518 0.49576 0.98794 0.0
H366 H 0.18675 0.40978 0.0677 0.0
H367 H 0.11973 0.39762 0.06856 0.0
C368 C 0.3065 0.48205 0.06229 0.0
C369 C 0.32907 0.49381 1.03196 0.0
C370 C 0.26656 0.46805 0.06093 0.0
C371 C 0.24819 0.46516 1.02917 0.0
C372 C 0.27069 0.47605 0.99882 0.0
C373 C 0.31058 0.49049 1.00022 0.0
C374 C 0.15665 0.46555 1.00487 0.0
C375 C 0.1293 0.43877 1.02807 0.0
C376 C 0.19467 0.4732 1.00488 0.0
C377 C 0.20649 0.45383 1.02775 0.0
C378 C 0.17865 0.42549 0.04995 0.0
C379 C 0.14019 0.41796 0.05009 0.0
H380 H 0.62114 0.88867 1.02311 0.0
H381 H 0.50221 0.79525 1.02501 0.0
H382 H 0.64329 0.8414 1.02001 0.0
H383 H 0.52435 0.7483 1.02305 0.0
H384 H 0.56812 0.67357 0.98213 0.0
H385 H 0.55523 0.7271 0.98006 0.0
H386 H 0.64494 0.78921 0.05599 0.0
H387 H 0.65807 0.73498 0.05775 0.0
C388 C 0.59972 0.85809 1.02272 0.0
C389 C 0.55984 0.84573 1.02402 0.0
C390 C 0.61248 0.83107 1.02133 0.0
C391 C 0.58562 0.79116 1.02096 0.0
C392 C 0.54581 0.77888 1.02269 0.0
C393 C 0.53309 0.80579 1.02418 0.0
C394 C 0.58599 0.69924 0.99753 0.0
C395 C 0.61427 0.70039 1.01988 0.0
C396 C 0.57824 0.72965 0.99672 0.0
C397 C 0.59847 0.762 1.0184 0.0
C398 C 0.62889 0.7646 0.03896 0.0
C399 C 0.63671 0.73385 0.03976 0.0
H400 H 0.37861 0.9065 0.98127 0.0
H401 H 0.31898 0.93661 0.05762 0.0
H402 H 0.32505 0.84085 0.97919 0.0
H403 H 0.26321 0.87048 0.0543 0.0
H404 H 0.19865 0.73885 0.07443 0.0
H405 H 0.24589 0.80756 0.07231 0.0
H406 H 0.26325 0.79695 0.96331 0.0
H407 H 0.21955 0.72788 0.9663 0.0
C408 C 0.35306 0.89927 0.99659 0.0
C409 C 0.35266 0.92664 1.01928 0.0
C410 C 0.32211 0.86147 0.99539 0.0
C411 C 0.28945 0.84993 1.01657 0.0
C412 C 0.28805 0.8781 0.03791 0.0
C413 C 0.31953 0.91621 0.03933 0.0
C414 C 0.21301 0.75096 0.0501 0.0
C415 C 0.20523 0.72731 1.02061 0.0
C416 C 0.23961 0.79076 0.04872 0.0
C417 C 0.25862 0.8082 1.01763 0.0
C418 C 0.24986 0.78471 0.98794 0.0
C419 C 0.22405 0.74488 0.98951 0.0
H420 H 0.55745 0.27917 0.0481 0.0
H421 H 0.44547 0.2715 0.04114 0.0
H422 H 0.58853 0.34972 0.05219 0.0
H423 H 0.47638 0.34149 0.04562 0.0
H424 H 0.53452 0.46053 0.09103 0.0
H425 H 0.50901 0.3911 0.08844 0.0
H426 H 0.60252 0.4086 1.02035 0.0
H427 H 0.62876 0.47887 1.02354 0.0
C428 C 0.53944 0.29243 0.04713 0.0
C429 C 0.4988 0.26941 0.04465 0.0
C430 C 0.55731 0.33291 0.04955 0.0
C431 C 0.53496 0.35129 0.04971 0.0
C432 C 0.49447 0.32831 0.04646 0.0
C433 C 0.47669 0.28803 0.04392 0.0
C434 C 0.55006 0.44975 0.07584 0.0
C435 C 0.58367 0.47529 0.05739 0.0
C436 C 0.53517 0.4098 0.0741 0.0
C437 C 0.55327 0.39414 0.05369 0.0
C438 C 0.58791 0.41971 1.0364 0.0
C439 C 0.60299 0.45996 0.03825 0.0
H440 H 0.57547 0.16768 0.06369 0.0
H441 H 0.5956 0.07265 0.04239 0.0
H442 H 0.64578 0.21217 0.06603 0.0
H443 H 0.66463 0.11649 0.04229 0.0
H444 H 0.78584 0.19038 0.07495 0.0
H445 H 0.71619 0.15086 0.07808 0.0
H446 H 0.70435 0.24483 1.03579 0.0
H447 H 0.77447 0.28593 1.03606 0.0
C448 C 0.59493 0.15646 0.05929 0.0
C449 C 0.58017 0.1167 0.05362 0.0
C450 C 0.6352 0.18187 0.06038 0.0
C451 C 0.66126 0.16799 0.05502 0.0
C452 C 0.64593 0.12831 0.04797 0.0
C453 C 0.6061 0.10305 0.04775 0.0
C454 C 0.76861 0.20316 0.06712 0.0
C455 C 0.78622 0.24155 0.05516 0.0
C456 C 0.72833 0.18006 0.06823 0.0
C457 C 0.70422 0.19417 0.05651 0.0
C458 C 0.72173 0.23283 0.04519 0.0
C459 C 0.76216 0.25628 0.04478 0.0
H460 H 0.97206 0.5234 1.01493 0.0
H461 H 0.88659 0.41944 0.06615 0.0
H462 H 0.92726 0.54771 1.01355 0.0
H463 H 0.84144 0.44485 0.06652 0.0
H464 H 0.76186 0.49488 1.03632 0.0
H465 H 0.80147 0.46382 1.03435 0.0
H466 H 0.90382 0.57482 0.05343 0.0
H467 H 0.86524 0.60604 0.05239 0.0
C468 C 0.94345 0.50574 1.02598 0.0
C469 C 0.93283 0.46977 0.041 0.0
C470 C 0.91782 0.51986 1.02552 0.0
C471 C 0.88103 0.49885 0.04083 0.0
C472 C 0.86959 0.46184 0.05454 0.0
C473 C 0.89531 0.44725 0.0544 0.0
C474 C 0.79291 0.51274 0.03956 0.0
C475 C 0.81023 0.55316 0.04434 0.0
C476 C 0.81555 0.49476 0.03894 0.0
C477 C 0.85596 0.51677 0.04328 0.0
C478 C 0.87294 0.55692 0.04909 0.0
C479 C 0.85056 0.57486 0.04916 0.0
H480 H 0.80299 0.77707 0.4186 0.0
H481 H 0.79143 0.7598 0.30832 0.0
H482 H 0.86899 0.78981 0.41589 0.0
H483 H 0.85846 0.77264 0.30517 0.0
H484 H 0.99159 0.85863 0.31231 0.0
H485 H 0.92138 0.83085 0.31222 0.0
H486 H 0.91302 0.76681 0.40486 0.0
H487 H 0.98306 0.79471 0.40504 0.0
C488 C 0.81392 0.77375 0.39398 0.0
C489 C 0.79162 0.76584 0.36388 0.0
C490 C 0.85209 0.78156 0.3923 0.0
C491 C 0.86916 0.78228 0.3603 0.0
C492 C 0.8462 0.7725 0.33022 0.0
C493 C 0.80766 0.76437 0.33201 0.0
C494 C 0.9747 0.83835 0.33247 0.0
C495 C 0.993 0.82929 0.35892 0.0
C496 C 0.93441 0.8222 0.3323 0.0
C497 C 0.9115 0.7965 0.3585 0.0
C498 C 0.9298 0.78687 0.38453 0.0
C499 C 0.97002 0.80307 0.38475 0.0
H500 H 0.27041 0.2159 0.39694 0.0
H501 H 0.18415 0.14069 0.32263 0.0
H502 H 0.2969 0.17213 0.39796 0.0
H503 H 0.2121 0.09826 0.3228 0.0
H504 H 0.24305 0.02417 0.41314 0.0
H505 H 0.23345 0.0796 0.40959 0.0
H506 H 0.30611 0.11955 0.31902 0.0
H507 H 0.31701 0.06368 0.32309 0.0
C508 C 0.25724 0.19032 0.38065 0.0
C509 C 0.22488 0.18175 0.35986 0.0
C510 C 0.27293 0.16578 0.38083 0.0
C511 C 0.25709 0.1327 0.35976 0.0
C512 C 0.2254 0.12436 0.33847 0.0
C513 C 0.20939 0.14861 0.33853 0.0
C514 C 0.25847 0.04554 0.39327 0.0
C515 C 0.28142 0.04003 0.36871 0.0
C516 C 0.25263 0.07706 0.39117 0.0
C517 C 0.26909 0.10351 0.36414 0.0
C518 C 0.29345 0.09934 0.34023 0.0
C519 C 0.29994 0.0678 0.34271 0.0
H520 H 1.01155 0.25352 0.42403 0.0
H521 H 1.00266 0.26267 0.31392 0.0
H522 H 0.96038 0.18613 0.42213 0.0
H523 H 0.94986 0.19513 0.31173 0.0
H524 H 0.90596 0.0636 0.31588 0.0
H525 H 0.947 0.13395 0.31663 0.0
H526 H 0.895 0.139 0.41332 0.0
H527 H 0.85464 0.06878 0.41278 0.0
C528 C 0.99708 0.24147 0.39966 0.0
C529 C 1.01024 0.26328 0.36926 0.0
C530 C 0.96783 0.20273 0.39845 0.0
C531 C 0.95108 0.18495 0.36671 0.0
C532 C 0.96251 0.20775 0.33654 0.0
C533 C 0.99205 0.24662 0.33781 0.0
C534 C 0.90321 0.07982 0.33717 0.0
C535 C 0.87741 0.06058 0.36446 0.0
C536 C 0.92651 0.1202 0.3375 0.0
C537 C 0.92429 0.14229 0.36501 0.0
C538 C 0.89794 0.12296 0.39198 0.0
C539 C 0.87488 0.08264 0.39175 0.0
H540 H 0.30008 0.81651 0.39974 0.0
H541 H 0.18611 0.79179 0.36748 0.0
H542 H 0.27628 0.74644 0.40319 0.0
H543 H 0.16321 0.72327 0.3693 0.0
H544 H 0.11657 0.60559 0.41012 0.0
H545 H 0.14607 0.67527 0.41089 0.0
H546 H 0.25264 0.68646 0.37091 0.0
H547 H 0.22392 0.61607 0.37296 0.0
C548 C 0.27019 0.79619 0.39319 0.0
C549 C 0.2448 0.80957 0.38411 0.0
C550 C 0.25656 0.75616 0.395 0.0
C551 C 0.21754 0.72914 0.38728 0.0
C552 C 0.19297 0.74299 0.37672 0.0
C553 C 0.20627 0.7825 0.37548 0.0
C554 C 0.14659 0.62269 0.40227 0.0
C555 C 0.16776 0.60492 0.39153 0.0
C556 C 0.1634 0.66286 0.40212 0.0
C557 C 0.20159 0.6866 0.39037 0.0
C558 C 0.2232 0.66908 0.38022 0.0
C559 C 0.2065 0.62866 0.38091 0.0
H560 H 0.2633 0.40811 0.37095 0.0
H561 H 0.23791 0.50088 0.38605 0.0
H562 H 0.33195 0.45475 0.36906 0.0
H563 H 0.30775 0.54813 0.38418 0.0
H564 H 0.43968 0.60764 0.41929 0.0
H565 H 0.36911 0.56563 0.41977 0.0
H566 H 0.37649 0.50679 0.32855 0.0
H567 H 0.44679 0.54802 0.32842 0.0
C568 C 0.27233 0.43853 0.37402 0.0
C569 C 0.24503 0.45079 0.3787 0.0
C570 C 0.31179 0.46529 0.37263 0.0
C571 C 0.32517 0.50507 0.37613 0.0
C572 C 0.29812 0.51755 0.38143 0.0
C573 C 0.25826 0.4906 0.3824 0.0
C574 C 0.42616 0.58577 0.39931 0.0
C575 C 0.44882 0.58103 0.37389 0.0
C576 C 0.38579 0.56205 0.39941 0.0
C577 C 0.36739 0.53291 0.37428 0.0
C578 C 0.38996 0.52884 0.3484 0.0
C579 C 0.43018 0.55266 0.34817 0.0
H580 H 0.52265 0.93713 0.41707 0.0
H581 H 0.44103 0.84322 0.352 0.0
H582 H 0.56242 0.90721 0.42044 0.0
H583 H 0.48296 0.81483 0.35294 0.0
H584 H 0.55386 0.75705 0.38465 0.0
H585 H 0.5085 0.78188 0.38542 0.0
H586 H 0.60543 0.89918 0.3863 0.0
H587 H 0.64983 0.87473 0.38732 0.0
C588 C 0.51299 0.90999 0.4035 0.0
C589 C 0.47835 0.89269 0.38435 0.0
C590 C 0.53633 0.89307 0.40493 0.0
C591 C 0.52634 0.85872 0.38659 0.0
C592 C 0.49152 0.84109 0.36763 0.0
C593 C 0.46775 0.85778 0.36663 0.0
C594 C 0.56524 0.78808 0.38543 0.0
C595 C 0.60543 0.81378 0.38649 0.0
C596 C 0.53932 0.80238 0.38557 0.0
C597 C 0.55316 0.84265 0.38636 0.0
C598 C 0.59342 0.86806 0.3868 0.0
C599 C 0.61906 0.85389 0.38718 0.0
H600 H 0.65458 0.16751 0.6292 0.0
H601 H 0.64754 0.1513 0.73994 0.0
H602 H 0.5848 0.139 0.62645 0.0
H603 H 0.57791 0.12578 0.73755 0.0
H604 H 0.44877 0.06158 0.72469 0.0
H605 H 0.51574 0.0743 0.72147 0.0
H606 H 0.53914 0.15671 0.63943 0.0
H607 H 0.47266 0.14259 0.64188 0.0
C608 C 0.63821 0.15787 0.65302 0.0
C609 C 0.65696 0.16192 0.68479 0.0
C610 C 0.59805 0.14187 0.65151 0.0
C611 C 0.57544 0.1301 0.68178 0.0
C612 C 0.59413 0.13389 0.71359 0.0
C613 C 0.63431 0.14938 0.71504 0.0
C614 C 0.46793 0.0809 0.70495 0.0
C615 C 0.4556 0.10068 0.68314 0.0
C616 C 0.5065 0.0889 0.70354 0.0
C617 C 0.53317 0.11687 0.68038 0.0
C618 C 0.51964 0.13456 0.6572 0.0
C619 C 0.48138 0.12644 0.65852 0.0
H620 H 0.93744 0.36572 0.63445 0.0
H621 H 0.96625 0.38612 0.74268 0.0
H622 H 0.92324 0.41894 0.63404 0.0
H623 H 0.95079 0.43846 0.74276 0.0
H624 H 0.85484 0.47337 0.7355 0.0
H625 H 0.88261 0.43111 0.73374 0.0
H626 H 0.95194 0.49323 0.64551 0.0
H627 H 0.92584 0.53718 0.64814 0.0
C628 C 0.94242 0.38283 0.65772 0.0
C629 C 0.95371 0.37256 0.6884 0.0
C630 C 0.93388 0.41293 0.65762 0.0
C631 C 0.93555 0.43249 0.68845 0.0
C632 C 0.94908 0.42366 0.71869 0.0
C633 C 0.9584 0.39412 0.71857 0.0
C634 C 0.87648 0.47866 0.71602 0.0
C635 C 0.88818 0.5091 0.69214 0.0
C636 C 0.89234 0.45431 0.71503 0.0
C637 C 0.9198 0.45927 0.68977 0.0
C638 C 0.93086 0.48888 0.66529 0.0
C639 C 0.91553 0.51377 0.66665 0.0
H640 H 0.70805 0.57122 0.64529 0.0
H641 H 0.6484 0.60001 0.72278 0.0
H642 H 0.65465 0.50473 0.64366 0.0
H643 H 0.59427 0.53263 0.72134 0.0
H644 H 0.49443 0.40859 0.68866 0.0
H645 H 0.54119 0.47809 0.68517 0.0
H646 H 0.63506 0.45327 0.68744 0.0
H647 H 0.58861 0.3841 0.69 0.0
C648 C 0.68275 0.5635 0.66116 0.0
C649 C 0.68213 0.59074 0.68392 0.0
C650 C 0.65242 0.52529 0.66059 0.0
C651 C 0.62063 0.51322 0.68289 0.0
C652 C 0.61844 0.54114 0.70384 0.0
C653 C 0.64914 0.57974 0.70444 0.0
C654 C 0.52507 0.41799 0.68806 0.0
C655 C 0.53778 0.39071 0.68934 0.0
C656 C 0.5518 0.45781 0.68643 0.0
C657 C 0.59177 0.47117 0.68572 0.0
C658 C 0.60441 0.4439 0.68738 0.0
C659 C 0.5778 0.40423 0.68919 0.0
H660 H 0.8715 0.94376 0.74831 0.0
H661 H 0.79309 0.93647 0.66779 0.0
H662 H 0.89978 1.01427 0.75021 0.0
H663 H 0.82184 1.00677 0.66926 0.0
H664 H 0.84415 0.12166 0.71554 0.0
H665 H 0.82086 0.0526 0.71297 0.0
H666 H 0.93877 0.07515 0.71341 0.0
H667 H 0.96254 0.14518 0.71582 0.0
C668 C 0.86044 0.9572 0.7309 0.0
C669 C 0.8299 0.93443 0.70798 0.0
C670 C 0.8769 0.99758 0.73179 0.0
C671 C 0.86291 1.01601 0.71001 0.0
C672 C 0.83298 0.99335 0.6866 0.0
C673 C 0.81675 0.95309 0.68553 0.0
C674 C 0.86532 0.11213 0.7154 0.0
C675 C 0.90532 0.13906 0.71602 0.0
C676 C 0.85186 0.07243 0.71359 0.0
C677 C 0.87795 0.05843 0.71267 0.0
C678 C 0.91799 0.08516 0.71414 0.0
C679 C 0.93159 0.12518 0.71548 0.0
H680 H 0.92313 0.74981 0.75806 0.0
H681 H 0.90449 0.8251 0.69052 0.0
H682 H 0.99249 0.79475 0.75694 0.0
H683 H 0.97447 0.87076 0.68977 0.0
H684 H 0.1041 0.91291 0.66293 0.0
H685 H 0.03351 0.87379 0.66644 0.0
H686 H 0.04197 0.85825 0.77587 0.0
H687 H 0.11228 0.89722 0.77239 0.0
C688 C 0.93381 0.77635 0.7434 0.0
C689 C 0.90821 0.78396 0.72452 0.0
C690 C 0.97368 0.80225 0.74286 0.0
C691 C 0.98917 0.83645 0.72328 0.0
C692 C 0.96352 0.84453 0.70491 0.0
C693 C 0.9234 0.81863 0.70566 0.0
C694 C 0.09086 0.90155 0.68782 0.0
C695 C 0.11398 0.90794 0.71731 0.0
C696 C 0.05036 0.87917 0.68985 0.0
C697 C 0.03201 0.86267 0.72141 0.0
C698 C 0.05512 0.8699 0.75101 0.0
C699 C 0.0955 0.89221 0.74899 0.0
H700 H 0.21626 0.08166 0.71879 0.0
H701 H 0.31018 0.20004 0.72748 0.0
H702 H 0.16995 0.10534 0.71496 0.0
H703 H 0.26439 0.22321 0.72322 0.0
H704 H 0.17925 0.25198 0.67211 0.0
H705 H 0.2206 0.223 0.67524 0.0
H706 H 0.14597 0.14363 0.75343 0.0
H707 H 0.10412 0.17234 0.75006 0.0
C708 C 0.22695 0.11256 0.72019 0.0
C709 C 0.26683 0.13888 0.7237 0.0
C710 C 0.20052 0.12608 0.71798 0.0
C711 C 0.2137 0.16612 0.71849 0.0
C712 C 0.25346 0.19224 0.72236 0.0
C713 C 0.27965 0.17882 0.72515 0.0
C714 C 0.17129 0.22797 0.68959 0.0
C715 C 0.13845 0.21453 0.71088 0.0
C716 C 0.19513 0.2116 0.69158 0.0
C717 C 0.18654 0.18119 0.7147 0.0
C718 C 0.15312 0.16689 0.73527 0.0
C719 C 0.12942 0.18356 0.73353 0.0
H720 H 0.06336 0.37858 0.30759 0.0
H721 H 0.15563 0.3856 0.24443 0.0
H722 H 0.04497 0.40798 0.26214 0.0
H723 H 0.13439 0.41032 0.1965 0.0
H724 H 0.10352 0.47399 0.11871 0.0
H725 H 0.12918 0.45866 0.1697 0.0
H726 H 1.01318 0.39562 0.21206 0.0
H727 H 0.98865 0.41354 0.16276 0.0
C728 C 0.08025 0.38734 0.28409 0.0
C729 C 0.11202 0.38168 0.28007 0.0
C730 C 0.06896 0.40308 0.25734 0.0
C731 C 0.08793 0.41177 0.22504 0.0
C732 C 0.11946 0.40518 0.22099 0.0
C733 C 0.13147 0.39053 0.24829 0.0
C734 C 0.08384 0.45805 0.13958 0.0
C735 C 0.04401 0.44526 0.13668 0.0
C736 C 0.09842 0.4485 0.16865 0.0
C737 C 0.07346 0.42541 0.19539 0.0
C738 C 0.03387 0.41406 0.19282 0.0
C739 C 1.01953 0.42425 0.16421 0.0
H740 H 0.73251 0.7681 0.2626 0.0
H741 H 0.61523 0.73269 0.29353 0.0
H742 H 0.70788 0.72106 0.21529 0.0
H743 H 0.59048 0.6859 0.24529 0.0
H744 H 0.5831 0.64957 0.12212 0.0
H745 H 0.59844 0.69184 0.17318 0.0
H746 H 0.665 0.64335 0.2156 0.0
H747 H 0.64902 0.60063 0.16566 0.0
C748 C 0.70144 0.75048 0.25908 0.0
C749 C 0.67579 0.75421 0.28159 0.0
C750 C 0.68737 0.72346 0.2321 0.0
C751 C 0.6473 0.69996 0.22662 0.0
C752 C 0.62149 0.7039 0.24885 0.0
C753 C 0.63563 0.73053 0.2764 0.0
C754 C 0.60003 0.64716 0.14285 0.0
C755 C 0.61482 0.6217 0.13981 0.0
C756 C 0.60889 0.67142 0.17195 0.0
C757 C 0.63315 0.671 0.19812 0.0
C758 C 0.64644 0.6444 0.1957 0.0
C759 C 0.63707 0.61979 0.16712 0.0
H760 H 0.45339 0.06147 0.1632 0.0
H761 H 0.40706 0.94577 0.12154 0.0
H762 H 0.41022 0.03547 0.21265 0.0
H763 H 0.36446 0.91957 0.17238 0.0
H764 H 0.32589 0.90148 0.29467 0.0
H765 H 0.37201 0.92187 0.24612 0.0
H766 H 0.3311 0.99763 0.21039 0.0
H767 H 0.28478 0.97689 0.2581 0.0
C768 C 0.43475 0.03034 0.16499 0.0
C769 C 0.43373 1.00571 0.13829 0.0
C770 C 0.40988 1.01553 0.19331 0.0
C771 C 0.38397 0.97562 0.19622 0.0
C772 C 0.38436 0.9505 0.17074 0.0
C773 C 0.40881 0.96546 0.14179 0.0
C774 C 0.32665 0.92226 0.27624 0.0
C775 C 0.30169 0.93753 0.28004 0.0
C776 C 0.35285 0.93374 0.24848 0.0
C777 C 0.35498 0.96123 0.22457 0.0
C778 C 0.33005 0.97644 0.22851 0.0
C779 C 0.30352 0.96451 0.25576 0.0
H780 H 0.43577 0.9922 0.91552 0.0
H781 H 0.47755 0.10197 0.96765 0.0
H782 H 0.41561 1.01656 0.86626 0.0
H783 H 0.45513 0.12542 0.91931 0.0
H784 H 0.35347 0.11443 0.84107 0.0
H785 H 0.38128 0.09819 0.89061 0.0
H786 H 0.45458 0.07819 0.82136 0.0
H787 H 0.42813 0.09588 0.7722 0.0
C788 C 0.44052 0.02145 0.91653 0.0
C789 C 0.45774 0.04497 0.94572 0.0
C790 C 0.42897 0.03537 0.88837 0.0
C791 C 0.43361 0.07277 0.88912 0.0
C792 C 0.45094 0.09637 0.91821 0.0
C793 C 0.46353 0.08285 0.94593 0.0
C794 C 0.37635 0.10771 0.83664 0.0
C795 C 0.38899 0.10702 0.80286 0.0
C796 C 0.3921 0.09824 0.86488 0.0
C797 C 0.41991 0.08676 0.85972 0.0
C798 C 0.43315 0.08689 0.82603 0.0
C799 C 0.41824 0.09739 0.79795 0.0
H800 H 0.03218 0.3922 0.95386 0.0
H801 H 0.95545 0.43545 0.92763 0.0
H802 H 1.00897 0.3484 0.90535 0.0
H803 H 0.92964 0.38904 0.87929 0.0
H804 H 0.9237 0.32827 0.77455 0.0
H805 H 0.93935 0.37109 0.82447 0.0
H806 H 0.96011 0.29185 0.88465 0.0
H807 H 0.94783 0.25128 0.83385 0.0
C808 C 1.00984 0.392 0.93775 0.0
C809 C 0.9957 0.41739 0.94454 0.0
C810 C 0.99598 0.36626 0.90998 0.0
C811 C 0.96659 0.36412 0.88837 0.0
C812 C 0.95242 0.38979 0.89507 0.0
C813 C 0.96706 0.4164 0.92278 0.0
C814 C 0.93135 0.31996 0.79859 0.0
C815 C 0.93527 0.28676 0.80008 0.0
C816 C 0.94013 0.34447 0.82742 0.0
C817 C 0.95212 0.33582 0.85875 0.0
C818 C 0.9526 0.30064 0.86081 0.0
C819 C 0.94484 0.2768 0.8318 0.0
H820 H 0.79892 0.69752 0.83947 0.0
H821 H 0.70472 0.62173 0.77214 0.0
H822 H 0.75571 0.67047 0.88971 0.0
H823 H 0.66144 0.596 0.82201 0.0
H824 H 0.59525 0.61494 0.91725 0.0
H825 H 0.63881 0.63464 0.86715 0.0
H826 H 0.71044 0.5977 0.9193 0.0
H827 H 0.66549 0.57574 0.96843 0.0
C828 C 0.76927 0.67457 0.83553 0.0
C829 C 0.75542 0.66136 0.802 0.0
C830 C 0.74455 0.65926 0.86417 0.0
C831 C 0.70523 0.63133 0.85965 0.0
C832 C 0.69159 0.61756 0.82618 0.0
C833 C 0.71651 0.63204 0.79771 0.0
C834 C 0.62006 0.61066 0.91787 0.0
C835 C 0.62733 0.59433 0.94703 0.0
C836 C 0.64497 0.62194 0.88924 0.0
C837 C 0.67811 0.61792 0.88951 0.0
C838 C 0.6853 0.60144 0.91857 0.0
C839 C 0.65975 0.58913 0.94673 0.0
H840 H 0.70205 0.80255 0.50734 0.0
H841 H 0.7403 0.74171 0.44014 0.0
H842 H 0.72757 0.7844 0.55748 0.0
H843 H 0.7671 0.72511 0.48919 0.0
H844 H 0.76164 0.65754 0.58531 0.0
H845 H 0.74004 0.68099 0.53699 0.0
H846 H 0.78755 0.79314 0.58634 0.0
H847 H 0.80945 0.76946 0.63488 0.0
C848 C 0.71681 0.78623 0.50325 0.0
C849 C 0.72038 0.77465 0.46978 0.0
C850 C 0.73148 0.77586 0.53184 0.0
C851 C 0.74934 0.75317 0.52742 0.0
C852 C 0.75329 0.74227 0.49372 0.0
C853 C 0.73871 0.75256 0.46543 0.0
C854 C 0.7677 0.68727 0.58579 0.0
C855 C 0.78721 0.71161 0.61392 0.0
C856 C 0.75541 0.70081 0.55802 0.0
C857 C 0.76221 0.73909 0.5576 0.0
C858 C 0.78157 0.76345 0.58591 0.0
C859 C 0.7942 0.74992 0.61366 0.0
H860 H 0.28626 1.00938 0.44128 0.0
H861 H 0.26597 0.91355 0.50657 0.0
H862 H 0.30211 0.05139 0.49158 0.0
H863 H 0.28207 0.95611 0.55763 0.0
H864 H 0.2803 0.04807 0.63822 0.0
H865 H 0.25647 1.00166 0.58989 0.0
H866 H 0.36239 0.07396 0.53417 0.0
H867 H 0.38697 0.11898 0.58311 0.0
C868 C 0.28356 0.99681 0.4665 0.0
C869 C 0.27359 0.95773 0.46994 0.0
C870 C 0.29339 0.02114 0.49533 0.0
C871 C 0.29331 1.00701 0.52848 0.0
C872 C 0.28197 0.9676 0.53232 0.0
C873 C 0.27266 0.94326 0.50322 0.0
C874 C 0.29866 0.05361 0.6159 0.0
C875 C 0.33573 0.08676 0.61474 0.0
C876 C 0.28498 0.02719 0.58823 0.0
C877 C 0.30764 0.03419 0.55838 0.0
C878 C 0.34429 0.06788 0.55687 0.0
C879 C 0.35833 0.09366 0.58486 0.0
H880 H 0.94961 0.3076 0.58913 0.0
H881 H 0.98894 0.2307 0.62551 0.0
H882 H 0.99749 0.32947 0.54259 0.0
H883 H 0.03655 0.25215 0.57815 0.0
H884 H 0.07601 0.27735 0.45554 0.0
H885 H 0.03195 0.25107 0.50539 0.0
H886 H 0.07583 0.36697 0.54501 0.0
H887 H 0.12021 0.39309 0.49634 0.0
C888 C 0.96826 0.29511 0.58698 0.0
C889 C 0.96541 0.26732 0.61085 0.0
C890 C 0.99574 0.30773 0.56042 0.0
C891 C 1.02062 0.2924 0.55673 0.0
C892 C 1.0175 0.26417 0.58027 0.0
C893 C 0.99039 0.25204 0.60735 0.0
C894 C 0.07699 0.29706 0.47543 0.0
C895 C 0.10177 0.33733 0.47187 0.0
C896 C 0.05171 0.28203 0.50385 0.0
C897 C 0.05034 0.30708 0.52886 0.0
C898 C 0.07616 0.34705 0.52601 0.0
C899 C 0.10182 0.36194 0.49816 0.0
loop_
_geom_bond_atom_site_label_1
_geom_bond_atom_site_label_2
_geom_bond_distance
_geom_bond_site_symmetry_2
_ccdc_geom_bond_type
Ho0 C3 2.811 . S
Ho0 O20 2.322 . S
Ho0 O22 2.378 . S
Ho0 O23 2.524 1_556 S
Ho0 O24 2.381 . S
Ho0 O25 2.669 1_455 S
Ho0 O27 2.346 1_456 S
Ho0 O31 2.305 1_556 S
Ho1 C12 2.811 . S
Ho1 O21 2.346 1_655 S
Ho1 O25 2.305 1_554 S
Ho1 O26 2.322 . S
Ho1 O28 2.378 . S
Ho1 O29 2.524 1_554 S
Ho1 O30 2.381 . S
Ho1 O31 2.669 1_655 S
C2 O20 1.259 . S
C2 O21 1.268 1_556 S
C3 Ho0 2.811 . S
C3 C4 1.488 . S
C3 O22 1.215 . S
C3 O23 1.289 1_556 S
C4 C3 1.488 . S
C4 C5 1.348 1_556 S
C4 C9 1.413 . S
C5 C4 1.348 1_554 S
C5 C6 1.442 . S
C5 H32 0.930 . S
C6 C5 1.442 . S
C6 C7 1.381 1_554 S
C6 H33 0.931 . S
C7 C6 1.381 1_556 S
C7 C8 1.321 . S
C8 C7 1.321 . S
C8 C9 1.403 . S
C8 H34 0.934 . S
C9 C4 1.413 . S
C9 C8 1.403 . S
C9 H35 0.930 . S
C10 O24 1.275 1_655 S
C10 O25 1.256 . S
C11 O26 1.259 . S
C11 O27 1.268 . S
C12 Ho1 2.811 . S
C12 C13 1.488 . S
C12 O28 1.215 . S
C12 O29 1.289 1_554 S
C13 C12 1.488 . S
C13 C14 1.348 1_554 S
C13 C18 1.413 . S
C14 C13 1.348 1_556 S
C14 C15 1.442 . S
C14 H36 0.930 . S
C15 C14 1.442 . S
C15 C16 1.381 1_556 S
C15 H37 0.931 . S
C16 C15 1.381 1_554 S
C16 C17 1.321 . S
C17 C16 1.321 . S
C17 C18 1.403 . S
C17 H38 0.934 . S
C18 C13 1.413 . S
C18 C17 1.403 . S
C18 H39 0.930 . S
C19 O30 1.275 1_455 S
C19 O31 1.256 . S
O20 Ho0 2.322 . S
O20 C2 1.259 . S
O21 Ho1 2.346 1_455 S
O21 C2 1.268 1_554 S
O22 Ho0 2.378 . S
O22 C3 1.215 . S
O23 Ho0 2.524 1_554 S
O23 C3 1.289 1_554 S
O24 Ho0 2.381 . S
O24 C10 1.275 1_455 S
O25 Ho0 2.669 1_655 S
O25 Ho1 2.305 1_556 S
O25 C10 1.256 . S
O26 Ho1 2.322 . S
O26 C11 1.259 . S
O27 Ho0 2.346 1_654 S
O27 C11 1.268 . S
O28 Ho1 2.378 . S
O28 C12 1.215 . S
O29 Ho1 2.524 1_556 S
O29 C12 1.289 1_556 S
O30 Ho1 2.381 . S
O30 C19 1.275 1_655 S
O31 Ho0 2.305 1_554 S
O31 Ho1 2.669 1_455 S
O31 C19 1.256 . S
H32 C5 0.930 . S
H33 C6 0.931 . S
H34 C8 0.934 . S
H35 C9 0.930 . S
H36 C14 0.930 . S
H37 C15 0.931 . S
H38 C17 0.934 . S
H39 C18 0.930 . S
Ho40 C43 2.811 . S
Ho40 O60 2.322 . S
Ho40 O62 2.378 . S
Ho40 O63 2.524 1_556 S
Ho40 O64 2.381 . S
Ho40 O65 2.669 . S
Ho40 O67 2.346 1_556 S
Ho40 O71 2.305 1_556 S
Ho41 C52 2.811 . S
Ho41 O61 2.346 . S
Ho41 O65 2.305 1_554 S
Ho41 O66 2.322 . S
Ho41 O68 2.378 . S
Ho41 O69 2.524 1_554 S
Ho41 O70 2.381 . S
Ho41 O71 2.669 . S
C42 O60 1.259 . S
C42 O61 1.268 1_556 S
C43 Ho40 2.811 . S
C43 C44 1.488 . S
C43 O62 1.215 . S
C43 O63 1.289 1_556 S
C44 C43 1.488 . S
C44 C45 1.348 1_556 S
C44 C49 1.413 . S
C45 C44 1.348 1_554 S
C45 C46 1.442 . S
C45 H72 0.930 . S
C46 C45 1.442 . S
C46 C47 1.381 1_554 S
C46 H73 0.931 . S
C47 C46 1.381 1_556 S
C47 C48 1.321 . S
C48 C47 1.321 . S
C48 C49 1.403 . S
C48 H74 0.934 . S
C49 C44 1.413 . S
C49 C48 1.403 . S
C49 H75 0.930 . S
C50 O64 1.275 . S
C50 O65 1.256 . S
C51 O66 1.259 . S
C51 O67 1.268 . S
C52 Ho41 2.811 . S
C52 C53 1.488 . S
C52 O68 1.215 . S
C52 O69 1.289 1_554 S
C53 C52 1.488 . S
C53 C54 1.348 1_554 S
C53 C58 1.413 . S
C54 C53 1.348 1_556 S
C54 C55 1.442 . S
C54 H76 0.930 . S
C55 C54 1.442 . S
C55 C56 1.381 1_556 S
C55 H77 0.931 . S
C56 C55 1.381 1_554 S
C56 C57 1.321 . S
C57 C56 1.321 . S
C57 C58 1.403 . S
C57 H78 0.934 . S
C58 C53 1.413 . S
C58 C57 1.403 . S
C58 H79 0.930 . S
C59 O70 1.275 . S
C59 O71 1.256 . S
O60 Ho40 2.322 . S
O60 C42 1.259 . S
O61 Ho41 2.346 . S
O61 C42 1.268 1_554 S
O62 Ho40 2.378 . S
O62 C43 1.215 . S
O63 Ho40 2.524 1_554 S
O63 C43 1.289 1_554 S
O64 Ho40 2.381 . S
O64 C50 1.275 . S
O65 Ho40 2.669 . S
O65 Ho41 2.305 1_556 S
O65 C50 1.256 . S
O66 Ho41 2.322 . S
O66 C51 1.259 . S
O67 Ho40 2.346 1_554 S
O67 C51 1.268 . S
O68 Ho41 2.378 . S
O68 C52 1.215 . S
O69 Ho41 2.524 1_556 S
O69 C52 1.289 1_556 S
O70 Ho41 2.381 . S
O70 C59 1.275 . S
O71 Ho40 2.305 1_554 S
O71 Ho41 2.669 . S
O71 C59 1.256 . S
H72 C45 0.930 . S
H73 C46 0.931 . S
H74 C48 0.934 . S
H75 C49 0.930 . S
H76 C54 0.930 . S
H77 C55 0.931 . S
H78 C57 0.934 . S
H79 C58 0.930 . S
Ho80 C83 2.811 . S
Ho80 O100 2.322 . S
Ho80 O102 2.378 . S
Ho80 O103 2.524 1_556 S
Ho80 O104 2.381 . S
Ho80 O105 2.669 1_565 S
Ho80 O107 2.346 1_566 S
Ho80 O111 2.305 1_556 S
Ho81 C92 2.811 . S
Ho81 O101 2.346 1_545 S
Ho81 O105 2.305 1_554 S
Ho81 O106 2.322 . S
Ho81 O108 2.378 . S
Ho81 O109 2.524 1_554 S
Ho81 O110 2.381 . S
Ho81 O111 2.669 1_545 S
C82 O100 1.259 . S
C82 O101 1.268 1_556 S
C83 Ho80 2.811 . S
C83 C84 1.488 . S
C83 O102 1.215 . S
C83 O103 1.289 1_556 S
C84 C83 1.488 . S
C84 C85 1.348 1_556 S
C84 C89 1.413 . S
C85 C84 1.348 1_554 S
C85 C86 1.442 . S
C85 H112 0.930 . S
C86 C85 1.442 . S
C86 C87 1.381 1_554 S
C86 H113 0.931 . S
C87 C86 1.381 1_556 S
C87 C88 1.321 . S
C88 C87 1.321 . S
C88 C89 1.403 . S
C88 H114 0.934 . S
C89 C84 1.413 . S
C89 C88 1.403 . S
C89 H115 0.930 . S
C90 O104 1.275 1_545 S
C90 O105 1.256 . S
C91 O106 1.259 . S
C91 O107 1.268 . S
C92 Ho81 2.811 . S
C92 C93 1.488 . S
C92 O108 1.215 . S
C92 O109 1.289 1_554 S
C93 C92 1.488 . S
C93 C94 1.348 1_554 S
C93 C98 1.413 . S
C94 C93 1.348 1_556 S
C94 C95 1.442 . S
C94 H116 0.930 . S
C95 C94 1.442 . S
C95 C96 1.381 1_556 S
C95 H117 0.931 . S
C96 C95 1.381 1_554 S
C96 C97 1.321 . S
C97 C96 1.321 . S
C97 C98 1.403 . S
C97 H118 0.934 . S
C98 C93 1.413 . S
C98 C97 1.403 . S
C98 H119 0.930 . S
C99 O110 1.275 1_565 S
C99 O111 1.256 . S
O100 Ho80 2.322 . S
O100 C82 1.259 . S
O101 Ho81 2.346 1_565 S
O101 C82 1.268 1_554 S
O102 Ho80 2.378 . S
O102 C83 1.215 . S
O103 Ho80 2.524 1_554 S
O103 C83 1.289 1_554 S
O104 Ho80 2.381 . S
O104 C90 1.275 1_565 S
O105 Ho80 2.669 1_545 S
O105 Ho81 2.305 1_556 S
O105 C90 1.256 . S
O106 Ho81 2.322 . S
O106 C91 1.259 . S
O107 Ho80 2.346 1_544 S
O107 C91 1.268 . S
O108 Ho81 2.378 . S
O108 C92 1.215 . S
O109 Ho81 2.524 1_556 S
O109 C92 1.289 1_556 S
O110 Ho81 2.381 . S
O110 C99 1.275 1_545 S
O111 Ho80 2.305 1_554 S
O111 Ho81 2.669 1_565 S
O111 C99 1.256 . S
H112 C85 0.930 . S
H113 C86 0.931 . S
H114 C88 0.934 . S
H115 C89 0.930 . S
H116 C94 0.930 . S
H117 C95 0.931 . S
H118 C97 0.934 . S
H119 C98 0.930 . S
Ho120 C123 2.811 . S
Ho120 O140 2.322 . S
Ho120 O142 2.378 . S
Ho120 O143 2.524 . S
Ho120 O144 2.381 . S
Ho120 O145 2.669 . S
Ho120 O147 2.346 . S
Ho120 O151 2.305 . S
Ho121 C132 2.811 . S
Ho121 O141 2.346 . S
Ho121 O145 2.305 . S
Ho121 O146 2.322 . S
Ho121 O148 2.378 . S
Ho121 O149 2.524 . S
Ho121 O150 2.381 . S
Ho121 O151 2.669 . S
C122 O140 1.259 . S
C122 O141 1.268 . S
C123 Ho120 2.811 . S
C123 C124 1.488 . S
C123 O142 1.215 . S
C123 O143 1.289 . S
C124 C123 1.488 . S
C124 C125 1.348 . S
C124 C129 1.413 . S
C125 C124 1.348 . S
C125 C126 1.442 . S
C125 H152 0.930 . S
C126 C125 1.442 . S
C126 C127 1.381 . S
C126 H153 0.931 . S
C127 C126 1.381 . S
C127 C128 1.321 . S
C128 C127 1.321 . S
C128 C129 1.403 . S
C128 H154 0.948 . S
C129 C124 1.413 . S
C129 C128 1.403 . S
C129 H155 0.930 . S
C130 O144 1.275 . S
C130 O145 1.256 . S
C131 O146 1.259 . S
C131 O147 1.268 . S
C132 Ho121 2.811 . S
C132 C133 1.488 . S
C132 O148 1.215 . S
C132 O149 1.289 . S
C133 C132 1.488 . S
C133 C134 1.348 . S
C133 C138 1.413 . S
C134 C133 1.348 . S
C134 C135 1.442 . S
C134 H156 0.930 . S
C135 C134 1.442 . S
C135 C136 1.381 . S
C135 H157 0.931 . S
C136 C135 1.381 . S
C136 C137 1.321 . S
C137 C136 1.321 . S
C137 C138 1.403 . S
C137 H158 0.934 . S
C138 C133 1.413 . S
C138 C137 1.403 . S
C138 H159 0.930 . S
C139 O150 1.275 . S
C139 O151 1.256 . S
O140 Ho120 2.322 . S
O140 C122 1.259 . S
O141 Ho121 2.346 . S
O141 C122 1.268 . S
O142 Ho120 2.378 . S
O142 C123 1.215 . S
O143 Ho120 2.524 . S
O143 C123 1.289 . S
O144 Ho120 2.381 . S
O144 C130 1.275 . S
O145 Ho120 2.669 . S
O145 Ho121 2.305 . S
O145 C130 1.256 . S
O146 Ho121 2.322 . S
O146 C131 1.259 . S
O147 Ho120 2.346 . S
O147 C131 1.268 . S
O148 Ho121 2.378 . S
O148 C132 1.215 . S
O149 Ho121 2.524 . S
O149 C132 1.289 . S
O150 Ho121 2.381 . S
O150 C139 1.275 . S
O151 Ho120 2.305 . S
O151 Ho121 2.669 . S
O151 C139 1.256 . S
H152 C125 0.930 . S
H153 C126 0.931 . S
H154 C128 0.948 . S
H155 C129 0.930 . S
H156 C134 0.930 . S
H157 C135 0.931 . S
H158 C137 0.934 . S
H159 C138 0.930 . S
Ho160 C163 2.811 . S
Ho160 O180 2.322 . S
Ho160 O182 2.378 . S
Ho160 O183 2.524 . S
Ho160 O184 2.381 . S
Ho160 O185 2.669 . S
Ho160 O187 2.346 . S
Ho160 O191 2.305 . S
Ho161 C172 2.811 . S
Ho161 O181 2.346 . S
Ho161 O185 2.305 . S
Ho161 O186 2.322 . S
Ho161 O188 2.378 . S
Ho161 O189 2.524 . S
Ho161 O190 2.381 . S
Ho161 O191 2.669 . S
C162 O180 1.259 . S
C162 O181 1.268 . S
C163 Ho160 2.811 . S
C163 C164 1.488 . S
C163 O182 1.215 . S
C163 O183 1.289 . S
C164 C163 1.488 . S
C164 C165 1.348 . S
C164 C169 1.413 . S
C165 C164 1.348 . S
C165 C166 1.442 . S
C165 H192 0.930 . S
C166 C165 1.442 . S
C166 C167 1.381 . S
C166 H193 0.931 . S
C167 C166 1.381 . S
C167 C168 1.321 . S
C168 C167 1.321 . S
C168 C169 1.403 . S
C168 H194 0.934 . S
C169 C164 1.413 . S
C169 C168 1.403 . S
C169 H195 0.930 . S
C170 O184 1.275 . S
C170 O185 1.256 . S
C171 O186 1.259 . S
C171 O187 1.268 . S
C172 Ho161 2.811 . S
C172 C173 1.488 . S
C172 O188 1.215 . S
C172 O189 1.289 . S
C173 C172 1.488 . S
C173 C174 1.348 . S
C173 C178 1.413 . S
C174 C173 1.348 . S
C174 C175 1.442 . S
C174 H196 0.930 . S
C175 C174 1.442 . S
C175 C176 1.381 . S
C175 H197 0.931 . S
C176 C175 1.381 . S
C176 C177 1.321 . S
C177 C176 1.321 . S
C177 C178 1.403 . S
C177 H198 0.934 . S
C178 C173 1.413 . S
C178 C177 1.403 . S
C178 H199 0.930 . S
C179 O190 1.275 . S
C179 O191 1.256 . S
O180 Ho160 2.322 . S
O180 C162 1.259 . S
O181 Ho161 2.346 . S
O181 C162 1.268 . S
O182 Ho160 2.378 . S
O182 C163 1.215 . S
O183 Ho160 2.524 . S
O183 C163 1.289 . S
O184 Ho160 2.381 . S
O184 C170 1.275 . S
O185 Ho160 2.669 . S
O185 Ho161 2.305 . S
O185 C170 1.256 . S
O186 Ho161 2.322 . S
O186 C171 1.259 . S
O187 Ho160 2.346 . S
O187 C171 1.268 . S
O188 Ho161 2.378 . S
O188 C172 1.215 . S
O189 Ho161 2.524 . S
O189 C172 1.289 . S
O190 Ho161 2.381 . S
O190 C179 1.275 . S
O191 Ho160 2.305 . S
O191 Ho161 2.669 . S
O191 C179 1.256 . S
H192 C165 0.930 . S
H193 C166 0.931 . S
H194 C168 0.934 . S
H195 C169 0.930 . S
H196 C174 0.930 . S
H197 C175 0.931 . S
H198 C177 0.934 . S
H199 C178 0.930 . S
Ho200 C203 2.811 . S
Ho200 O220 2.322 . S
Ho200 O222 2.378 . S
Ho200 O223 2.524 . S
Ho200 O224 2.381 . S
Ho200 O225 2.669 . S
Ho200 O227 2.346 . S
Ho200 O231 2.305 . S
Ho201 C212 2.811 . S
Ho201 O221 2.346 . S
Ho201 O225 2.305 . S
Ho201 O226 2.322 . S
Ho201 O228 2.378 . S
Ho201 O229 2.524 . S
Ho201 O230 2.381 . S
Ho201 O231 2.669 . S
C202 O220 1.259 . S
C202 O221 1.268 . S
C203 Ho200 2.811 . S
C203 C204 1.488 . S
C203 O222 1.215 . S
C203 O223 1.289 . S
C204 C203 1.488 . S
C204 C205 1.348 . S
C204 C209 1.413 . S
C205 C204 1.348 . S
C205 C206 1.442 . S
C205 H232 0.930 . S
C206 C205 1.442 . S
C206 C207 1.381 . S
C206 H233 0.931 . S
C207 C206 1.381 . S
C207 C208 1.321 . S
C208 C207 1.321 . S
C208 C209 1.403 . S
C208 H234 0.934 . S
C209 C204 1.413 . S
C209 C208 1.403 . S
C209 H235 0.930 . S
C210 O224 1.275 . S
C210 O225 1.256 . S
C211 O226 1.259 . S
C211 O227 1.268 . S
C212 Ho201 2.811 . S
C212 C213 1.488 . S
C212 O228 1.215 . S
C212 O229 1.289 . S
C213 C212 1.488 . S
C213 C214 1.348 . S
C213 C218 1.413 . S
C214 C213 1.348 . S
C214 C215 1.442 . S
C214 H236 0.930 . S
C215 C214 1.442 . S
C215 C216 1.381 . S
C215 H237 0.931 . S
C216 C215 1.381 . S
C216 C217 1.321 . S
C217 C216 1.321 . S
C217 C218 1.403 . S
C217 H238 0.934 . S
C218 C213 1.413 . S
C218 C217 1.403 . S
C218 H239 0.930 . S
C219 O230 1.275 . S
C219 O231 1.256 . S
O220 Ho200 2.322 . S
O220 C202 1.259 . S
O221 Ho201 2.346 . S
O221 C202 1.268 . S
O222 Ho200 2.378 . S
O222 C203 1.215 . S
O223 Ho200 2.524 . S
O223 C203 1.289 . S
O224 Ho200 2.381 . S
O224 C210 1.275 . S
O225 Ho200 2.669 . S
O225 Ho201 2.305 . S
O225 C210 1.256 . S
O226 Ho201 2.322 . S
O226 C211 1.259 . S
O227 Ho200 2.346 . S
O227 C211 1.268 . S
O228 Ho201 2.378 . S
O228 C212 1.215 . S
O229 Ho201 2.524 . S
O229 C212 1.289 . S
O230 Ho201 2.381 . S
O230 C219 1.275 . S
O231 Ho200 2.305 . S
O231 Ho201 2.669 . S
O231 C219 1.256 . S
H232 C205 0.930 . S
H233 C206 0.931 . S
H234 C208 0.934 . S
H235 C209 0.930 . S
H236 C214 0.930 . S
H237 C215 0.931 . S
H238 C217 0.934 . S
H239 C218 0.930 . S
Ho240 C243 2.811 . S
Ho240 O260 2.322 . S
Ho240 O262 2.378 . S
Ho240 O263 2.524 . S
Ho240 O264 2.381 . S
Ho240 O265 2.669 . S
Ho240 O267 2.346 . S
Ho240 O271 2.305 . S
Ho241 C252 2.811 . S
Ho241 O261 2.346 . S
Ho241 O265 2.305 . S
Ho241 O266 2.322 . S
Ho241 O268 2.378 . S
Ho241 O269 2.524 . S
Ho241 O270 2.381 . S
Ho241 O271 2.669 . S
C242 O260 1.259 . S
C242 O261 1.268 . S
C243 Ho240 2.811 . S
C243 C244 1.488 . S
C243 O262 1.215 . S
C243 O263 1.289 . S
C244 C243 1.488 . S
C244 C245 1.348 . S
C244 C249 1.413 . S
C245 C244 1.348 . S
C245 C246 1.442 . S
C245 H272 0.930 . S
C246 C245 1.442 . S
C246 C247 1.381 . S
C246 H273 0.931 . S
C247 C246 1.381 . S
C247 C248 1.321 . S
C248 C247 1.321 . S
C248 C249 1.403 . S
C248 H274 0.934 . S
C249 C244 1.413 . S
C249 C248 1.403 . S
C249 H275 0.930 . S
C250 O264 1.275 . S
C250 O265 1.256 . S
C251 O266 1.259 . S
C251 O267 1.268 . S
C252 Ho241 2.811 . S
C252 C253 1.488 1_545 S
C252 O268 1.215 . S
C252 O269 1.289 . S
C253 C252 1.488 1_565 S
C253 C254 1.348 . S
C253 C258 1.413 . S
C254 C253 1.348 . S
C254 C255 1.442 . S
C254 H276 0.930 . S
C255 C254 1.442 . S
C255 C256 1.381 . S
C255 H277 0.931 . S
C256 C255 1.381 . S
C256 C257 1.321 . S
C257 C256 1.321 . S
C257 C258 1.403 . S
C257 H278 0.934 . S
C258 C253 1.413 . S
C258 C257 1.403 . S
C258 H279 0.930 . S
C259 O270 1.275 . S
C259 O271 1.256 . S
O260 Ho240 2.322 . S
O260 C242 1.259 . S
O261 Ho241 2.346 . S
O261 C242 1.268 . S
O262 Ho240 2.378 . S
O262 C243 1.215 . S
O263 Ho240 2.524 . S
O263 C243 1.289 . S
O264 Ho240 2.381 . S
O264 C250 1.275 . S
O265 Ho240 2.669 . S
O265 Ho241 2.305 . S
O265 C250 1.256 . S
O266 Ho241 2.322 . S
O266 C251 1.259 . S
O267 Ho240 2.346 . S
O267 C251 1.268 . S
O268 Ho241 2.378 . S
O268 C252 1.215 . S
O269 Ho241 2.524 . S
O269 C252 1.289 . S
O270 Ho241 2.381 . S
O270 C259 1.275 . S
O271 Ho240 2.305 . S
O271 Ho241 2.669 . S
O271 C259 1.256 . S
H272 C245 0.930 . S
H273 C246 0.931 . S
H274 C248 0.934 . S
H275 C249 0.930 . S
H276 C254 0.930 . S
H277 C255 0.931 . S
H278 C257 0.934 . S
H279 C258 0.930 . S
Ho280 C283 2.811 . S
Ho280 O300 2.322 . S
Ho280 O302 2.378 . S
Ho280 O303 2.524 . S
Ho280 O304 2.381 . S
Ho280 O305 2.669 . S
Ho280 O307 2.346 . S
Ho280 O311 2.305 . S
Ho281 C292 2.811 . S
Ho281 O301 2.346 . S
Ho281 O305 2.305 . S
Ho281 O306 2.322 . S
Ho281 O308 2.378 . S
Ho281 O309 2.524 . S
Ho281 O310 2.381 . S
Ho281 O311 2.669 . S
C282 O300 1.259 . S
C282 O301 1.268 . S
C283 Ho280 2.811 . S
C283 C284 1.488 . S
C283 O302 1.215 . S
C283 O303 1.289 . S
C284 C283 1.488 . S
C284 C285 1.348 . S
C284 C289 1.413 . S
C285 C284 1.348 . S
C285 C286 1.442 . S
C285 H312 0.930 . S
C286 C285 1.442 . S
C286 C287 1.381 . S
C286 H313 0.931 . S
C287 C286 1.381 . S
C287 C288 1.321 . S
C288 C287 1.321 . S
C288 C289 1.403 . S
C288 H314 0.934 . S
C289 C284 1.413 . S
C289 C288 1.403 . S
C289 H315 0.930 . S
C290 O304 1.275 . S
C290 O305 1.256 . S
C291 O306 1.259 . S
C291 O307 1.268 . S
C292 Ho281 2.811 . S
C292 C293 1.488 1_655 S
C292 O308 1.215 . S
C292 O309 1.289 . S
C293 C292 1.488 1_455 S
C293 C294 1.348 . S
C293 C298 1.413 . S
C294 C293 1.348 . S
C294 C295 1.442 . S
C294 H316 0.930 . S
C295 C294 1.442 . S
C295 C296 1.381 . S
C295 H317 0.931 . S
C296 C295 1.381 . S
C296 C297 1.321 . S
C297 C296 1.321 . S
C297 C298 1.403 . S
C297 H318 0.934 . S
C298 C293 1.413 . S
C298 C297 1.403 . S
C298 H319 0.930 . S
C299 O310 1.275 . S
C299 O311 1.256 . S
O300 Ho280 2.322 . S
O300 C282 1.259 . S
O301 Ho281 2.346 . S
O301 C282 1.268 . S
O302 Ho280 2.378 . S
O302 C283 1.215 . S
O303 Ho280 2.524 . S
O303 C283 1.289 . S
O304 Ho280 2.381 . S
O304 C290 1.275 . S
O305 Ho280 2.669 . S
O305 Ho281 2.305 . S
O305 C290 1.256 . S
O306 Ho281 2.322 . S
O306 C291 1.259 . S
O307 Ho280 2.346 . S
O307 C291 1.268 . S
O308 Ho281 2.378 . S
O308 C292 1.215 . S
O309 Ho281 2.524 . S
O309 C292 1.289 . S
O310 Ho281 2.381 . S
O310 C299 1.275 . S
O311 Ho280 2.305 . S
O311 Ho281 2.669 . S
O311 C299 1.256 . S
H312 C285 0.930 . S
H313 C286 0.931 . S
H314 C288 0.934 . S
H315 C289 0.930 . S
H316 C294 0.930 . S
H317 C295 0.931 . S
H318 C297 0.934 . S
H319 C298 0.930 . S
Ho320 C323 2.811 . S
Ho320 O340 2.322 . S
Ho320 O342 2.378 . S
Ho320 O343 2.524 . S
Ho320 O344 2.381 . S
Ho320 O345 2.669 . S
Ho320 O347 2.346 . S
Ho320 O351 2.305 . S
Ho321 C332 2.811 . S
Ho321 O341 2.346 . S
Ho321 O345 2.305 . S
Ho321 O346 2.322 . S
Ho321 O348 2.378 . S
Ho321 O349 2.524 . S
Ho321 O350 2.381 . S
Ho321 O351 2.669 . S
C322 O340 1.259 . S
C322 O341 1.268 . S
C323 Ho320 2.811 . S
C323 C324 1.488 . S
C323 O342 1.215 . S
C323 O343 1.289 . S
C324 C323 1.488 . S
C324 C325 1.348 . S
C324 C329 1.413 . S
C325 C324 1.348 . S
C325 C326 1.442 . S
C325 H352 0.930 . S
C326 C325 1.442 . S
C326 C327 1.381 . S
C326 H353 0.931 . S
C327 C326 1.381 . S
C327 C328 1.321 . S
C328 C327 1.321 . S
C328 C329 1.403 . S
C328 H354 0.934 . S
C329 C324 1.413 . S
C329 C328 1.403 . S
C329 H355 0.930 . S
C330 O344 1.275 . S
C330 O345 1.256 . S
C331 O346 1.259 . S
C331 O347 1.268 . S
C332 Ho321 2.811 . S
C332 C333 1.488 . S
C332 O348 1.215 . S
C332 O349 1.289 . S
C333 C332 1.488 . S
C333 C334 1.348 . S
C333 C338 1.413 . S
C334 C333 1.348 . S
C334 C335 1.442 . S
C334 H356 0.930 . S
C335 C334 1.442 . S
C335 C336 1.381 . S
C335 H357 0.931 . S
C336 C335 1.381 . S
C336 C337 1.321 . S
C337 C336 1.321 . S
C337 C338 1.403 . S
C337 H358 0.934 . S
C338 C333 1.413 . S
C338 C337 1.403 . S
C338 H359 0.930 . S
C339 O350 1.275 . S
C339 O351 1.256 . S
O340 Ho320 2.322 . S
O340 C322 1.259 . S
O341 Ho321 2.346 . S
O341 C322 1.268 . S
O342 Ho320 2.378 . S
O342 C323 1.215 . S
O343 Ho320 2.524 . S
O343 C323 1.289 . S
O344 Ho320 2.381 . S
O344 C330 1.275 . S
O345 Ho320 2.669 . S
O345 Ho321 2.305 . S
O345 C330 1.256 . S
O346 Ho321 2.322 . S
O346 C331 1.259 . S
O347 Ho320 2.346 . S
O347 C331 1.268 . S
O348 Ho321 2.378 . S
O348 C332 1.215 . S
O349 Ho321 2.524 . S
O349 C332 1.289 . S
O350 Ho321 2.381 . S
O350 C339 1.275 . S
O351 Ho320 2.305 . S
O351 Ho321 2.669 . S
O351 C339 1.256 . S
H352 C325 0.930 . S
H353 C326 0.931 . S
H354 C328 0.934 . S
H355 C329 0.930 . S
H356 C334 0.930 . S
H357 C335 0.931 . S
H358 C337 0.934 . S
H359 C338 0.930 . S
H360 C368 0.950 . S
H361 C373 0.950 . S
H362 C370 0.950 . S
H363 C372 0.950 . S
H364 C374 0.950 . S
H365 C376 0.950 . S
H366 C378 0.950 . S
H367 C379 0.950 . S
C368 H360 0.950 . S
C368 C369 1.386 1_554 S
C368 C370 1.391 . S
C369 C368 1.386 1_556 S
C369 C373 1.393 . S
C370 H362 0.950 . S
C370 C368 1.391 . S
C370 C371 1.400 1_554 S
C371 C370 1.400 1_556 S
C371 C372 1.398 . S
C371 C377 1.491 . S
C372 H363 0.950 . S
C372 C371 1.398 . S
C372 C373 1.391 . S
C373 H361 0.950 . S
C373 C369 1.393 . S
C373 C372 1.391 . S
C374 H364 0.950 . S
C374 C375 1.386 . S
C374 C376 1.391 . S
C375 C374 1.386 . S
C375 C379 1.393 1_556 S
C376 H365 0.950 . S
C376 C374 1.391 . S
C376 C377 1.400 . S
C377 C371 1.491 . S
C377 C376 1.400 . S
C377 C378 1.398 1_556 S
C378 H366 0.950 . S
C378 C377 1.398 1_554 S
C378 C379 1.391 . S
C379 H367 0.950 . S
C379 C375 1.393 1_554 S
C379 C378 1.391 . S
H380 C388 0.950 1_554 S
H381 C393 0.950 . S
H382 C390 0.950 1_554 S
H383 C392 0.950 . S
H384 C394 0.950 . S
H385 C396 0.950 . S
H386 C398 0.950 1_554 S
H387 C399 0.950 1_554 S
C388 H380 0.950 1_556 S
C388 C389 1.386 . S
C388 C390 1.391 . S
C389 C388 1.386 . S
C389 C393 1.393 . S
C390 H382 0.950 1_556 S
C390 C388 1.391 . S
C390 C391 1.400 . S
C391 C390 1.400 . S
C391 C392 1.398 . S
C391 C397 1.491 . S
C392 H383 0.950 . S
C392 C391 1.398 . S
C392 C393 1.391 . S
C393 H381 0.950 . S
C393 C389 1.393 . S
C393 C392 1.391 . S
C394 H384 0.950 . S
C394 C395 1.386 . S
C394 C396 1.391 . S
C395 C394 1.386 . S
C395 C399 1.393 . S
C396 H385 0.950 . S
C396 C394 1.391 . S
C396 C397 1.400 . S
C397 C391 1.491 . S
C397 C396 1.400 . S
C397 C398 1.398 . S
C398 H386 0.950 1_556 S
C398 C397 1.398 . S
C398 C399 1.391 . S
C399 H387 0.950 1_556 S
C399 C395 1.393 . S
C399 C398 1.391 . S
H400 C408 0.950 . S
H401 C413 0.950 . S
H402 C410 0.950 . S
H403 C412 0.950 . S
H404 C414 0.950 . S
H405 C416 0.950 . S
H406 C418 0.950 . S
H407 C419 0.950 . S
C408 H400 0.950 . S
C408 C409 1.386 . S
C408 C410 1.391 . S
C409 C408 1.386 . S
C409 C413 1.393 1_556 S
C410 H402 0.950 . S
C410 C408 1.391 . S
C410 C411 1.400 . S
C411 C410 1.400 . S
C411 C412 1.398 1_556 S
C411 C417 1.491 . S
C412 H403 0.950 . S
C412 C411 1.398 1_554 S
C412 C413 1.391 . S
C413 H401 0.950 . S
C413 C409 1.393 1_554 S
C413 C412 1.391 . S
C414 H404 0.950 . S
C414 C415 1.386 1_554 S
C414 C416 1.391 . S
C415 C414 1.386 1_556 S
C415 C419 1.393 . S
C416 H405 0.950 . S
C416 C414 1.391 . S
C416 C417 1.400 1_554 S
C417 C411 1.491 . S
C417 C416 1.400 1_556 S
C417 C418 1.398 . S
C418 H406 0.950 . S
C418 C417 1.398 . S
C418 C419 1.391 . S
C419 H407 0.950 . S
C419 C415 1.393 . S
C419 C418 1.391 . S
H420 C428 0.956 . S
H421 C433 0.950 . S
H422 C430 0.950 . S
H423 C432 0.950 . S
H424 C434 0.950 . S
H425 C436 0.950 . S
H426 C438 0.950 . S
H427 C439 0.950 . S
C428 H420 0.956 . S
C428 C429 1.379 1_556 S
C428 C430 1.392 . S
C429 C428 1.379 1_554 S
C429 C433 1.393 . S
C430 H422 0.950 . S
C430 C428 1.392 . S
C430 C431 1.400 1_556 S
C431 C430 1.400 1_554 S
C431 C432 1.398 . S
C431 C437 1.491 . S
C432 H423 0.950 . S
C432 C431 1.398 . S
C432 C433 1.391 . S
C433 H421 0.950 . S
C433 C429 1.393 . S
C433 C432 1.391 . S
C434 H424 0.950 . S
C434 C435 1.386 . S
C434 C436 1.391 . S
C435 C434 1.386 . S
C435 C439 1.393 1_554 S
C436 H425 0.950 . S
C436 C434 1.391 . S
C436 C437 1.400 . S
C437 C431 1.491 . S
C437 C436 1.400 . S
C437 C438 1.398 1_554 S
C438 H426 0.950 . S
C438 C437 1.398 1_556 S
C438 C439 1.391 . S
C439 H427 0.950 . S
C439 C435 1.393 1_556 S
C439 C438 1.391 . S
H440 C448 0.950 . S
H441 C453 0.950 . S
H442 C450 0.950 . S
H443 C452 0.950 . S
H444 C454 0.950 . S
H445 C456 0.950 . S
H446 C458 0.950 . S
H447 C459 0.950 . S
C448 H440 0.950 . S
C448 C449 1.386 . S
C448 C450 1.391 . S
C449 C448 1.386 . S
C449 C453 1.393 1_554 S
C450 H442 0.950 . S
C450 C448 1.391 . S
C450 C451 1.400 . S
C451 C450 1.400 . S
C451 C452 1.398 1_554 S
C451 C457 1.491 . S
C452 H443 0.950 . S
C452 C451 1.398 1_556 S
C452 C453 1.391 . S
C453 H441 0.950 . S
C453 C449 1.393 1_556 S
C453 C452 1.391 . S
C454 H444 0.950 . S
C454 C455 1.386 1_556 S
C454 C456 1.391 . S
C455 C454 1.386 1_554 S
C455 C459 1.393 . S
C456 H445 0.950 . S
C456 C454 1.391 . S
C456 C457 1.400 1_556 S
C457 C451 1.491 . S
C457 C456 1.400 1_554 S
C457 C458 1.398 . S
C458 H446 0.950 . S
C458 C457 1.398 . S
C458 C459 1.391 . S
C459 H447 0.950 . S
C459 C455 1.393 . S
C459 C458 1.391 . S
H460 C468 0.950 . S
H461 C473 0.950 . S
H462 C470 0.950 . S
H463 C472 0.950 . S
H464 C474 0.950 . S
H465 C476 0.950 . S
H466 C478 0.953 . S
H467 C479 0.944 1_556 S
C468 H460 0.950 . S
C468 C469 1.386 1_556 S
C468 C470 1.391 . S
C469 C468 1.386 1_554 S
C469 C473 1.393 . S
C470 H462 0.950 . S
C470 C468 1.391 . S
C470 C471 1.400 1_556 S
C471 C470 1.400 1_554 S
C471 C472 1.398 . S
C471 C477 1.491 . S
C472 H463 0.950 . S
C472 C471 1.398 . S
C472 C473 1.391 . S
C473 H461 0.950 . S
C473 C469 1.393 . S
C473 C472 1.391 . S
C474 H464 0.950 . S
C474 C475 1.386 . S
C474 C476 1.391 . S
C475 C474 1.386 . S
C475 C479 1.399 . S
C476 H465 0.950 . S
C476 C474 1.391 . S
C476 C477 1.400 . S
C477 C471 1.491 . S
C477 C476 1.400 . S
C477 C478 1.395 1_554 S
C478 H466 0.953 . S
C478 C477 1.395 1_556 S
C478 C479 1.390 1_556 S
C479 H467 0.944 1_554 S
C479 C475 1.399 . S
C479 C478 1.390 1_554 S
H480 C488 0.950 . S
H481 C493 0.950 . S
H482 C490 0.950 . S
H483 C492 0.950 . S
H484 C494 0.950 . S
H485 C496 0.950 . S
H486 C498 0.950 . S
H487 C499 0.950 . S
C488 H480 0.950 . S
C488 C489 1.386 . S
C488 C490 1.391 . S
C489 C488 1.386 . S
C489 C493 1.393 . S
C490 H482 0.950 . S
C490 C488 1.391 . S
C490 C491 1.400 . S
C491 C490 1.400 . S
C491 C492 1.398 . S
C491 C497 1.491 . S
C492 H483 0.950 . S
C492 C491 1.398 . S
C492 C493 1.391 . S
C493 H481 0.950 . S
C493 C489 1.393 . S
C493 C492 1.391 . S
C494 H484 0.950 . S
C494 C495 1.386 . S
C494 C496 1.391 . S
C495 C494 1.386 . S
C495 C499 1.393 . S
C496 H485 0.950 . S
C496 C494 1.391 . S
C496 C497 1.400 . S
C497 C491 1.491 . S
C497 C496 1.400 . S
C497 C498 1.398 . S
C498 H486 0.950 . S
C498 C497 1.398 . S
C498 C499 1.391 . S
C499 H487 0.950 . S
C499 C495 1.393 . S
C499 C498 1.391 . S
H500 C508 0.950 . S
H501 C513 0.950 . S
H502 C510 0.950 . S
H503 C512 0.950 . S
H504 C514 0.950 . S
H505 C516 0.950 . S
H506 C518 0.950 . S
H507 C519 0.950 . S
C508 H500 0.950 . S
C508 C509 1.386 . S
C508 C510 1.391 . S
C509 C508 1.386 . S
C509 C513 1.393 . S
C510 H502 0.950 . S
C510 C508 1.391 . S
C510 C511 1.400 . S
C511 C510 1.400 . S
C511 C512 1.398 . S
C511 C517 1.491 . S
C512 H503 0.950 . S
C512 C511 1.398 . S
C512 C513 1.391 . S
C513 H501 0.950 . S
C513 C509 1.393 . S
C513 C512 1.391 . S
C514 H504 0.950 . S
C514 C515 1.386 . S
C514 C516 1.391 . S
C515 C514 1.386 . S
C515 C519 1.393 1_565 S
C516 H505 0.950 . S
C516 C514 1.391 . S
C516 C517 1.400 1_565 S
C517 C511 1.491 . S
C517 C516 1.400 1_545 S
C517 C518 1.398 . S
C518 H506 0.950 . S
C518 C517 1.398 . S
C518 C519 1.391 . S
C519 H507 0.950 . S
C519 C515 1.393 1_545 S
C519 C518 1.391 . S
H520 C528 0.950 . S
H521 C533 0.957 . S
H522 C530 0.950 . S
H523 C532 0.950 . S
H524 C534 0.950 . S
H525 C536 0.950 . S
H526 C538 0.950 . S
H527 C539 0.950 . S
C528 H520 0.950 . S
C528 C529 1.386 . S
C528 C530 1.391 . S
C529 C528 1.386 . S
C529 C533 1.385 1_455 S
C530 H522 0.950 . S
C530 C528 1.391 . S
C530 C531 1.400 1_455 S
C531 C530 1.400 1_655 S
C531 C532 1.398 . S
C531 C537 1.491 . S
C532 H523 0.950 . S
C532 C531 1.398 . S
C532 C533 1.392 . S
C533 H521 0.957 . S
C533 C529 1.385 1_655 S
C533 C532 1.392 . S
C534 H524 0.950 . S
C534 C535 1.386 . S
C534 C536 1.391 . S
C535 C534 1.386 . S
C535 C539 1.393 . S
C536 H525 0.950 . S
C536 C534 1.391 . S
C536 C537 1.400 . S
C537 C531 1.491 . S
C537 C536 1.400 . S
C537 C538 1.398 . S
C538 H526 0.950 . S
C538 C537 1.398 . S
C538 C539 1.391 . S
C539 H527 0.950 . S
C539 C535 1.393 . S
C539 C538 1.391 . S
H540 C548 0.950 . S
H541 C553 0.950 . S
H542 C550 0.950 . S
H543 C552 0.950 . S
H544 C554 0.950 . S
H545 C556 0.950 . S
H546 C558 0.950 . S
H547 C559 0.950 . S
C548 H540 0.950 . S
C548 C549 1.386 . S
C548 C550 1.391 . S
C549 C548 1.386 . S
C549 C553 1.393 . S
C550 H542 0.950 . S
C550 C548 1.391 . S
C550 C551 1.400 . S
C551 C550 1.400 . S
C551 C552 1.398 . S
C551 C557 1.491 . S
C552 H543 0.950 . S
C552 C551 1.398 . S
C552 C553 1.391 . S
C553 H541 0.950 . S
C553 C549 1.393 . S
C553 C552 1.391 . S
C554 H544 0.950 . S
C554 C555 1.386 . S
C554 C556 1.391 . S
C555 C554 1.386 . S
C555 C559 1.393 . S
C556 H545 0.950 . S
C556 C554 1.391 . S
C556 C557 1.400 . S
C557 C551 1.491 . S
C557 C556 1.400 . S
C557 C558 1.398 . S
C558 H546 0.950 . S
C558 C557 1.398 . S
C558 C559 1.391 . S
C559 H547 0.950 . S
C559 C555 1.393 . S
C559 C558 1.391 . S
H560 C568 0.950 . S
H561 C573 0.950 . S
H562 C570 0.950 . S
H563 C572 0.950 . S
H564 C574 0.950 . S
H565 C576 0.950 . S
H566 C578 0.950 . S
H567 C579 0.950 . S
C568 H560 0.950 . S
C568 C569 1.386 . S
C568 C570 1.391 . S
C569 C568 1.386 . S
C569 C573 1.393 . S
C570 H562 0.950 . S
C570 C568 1.391 . S
C570 C571 1.400 . S
C571 C570 1.400 . S
C571 C572 1.398 . S
C571 C577 1.491 . S
C572 H563 0.950 . S
C572 C571 1.398 . S
C572 C573 1.391 . S
C573 H561 0.950 . S
C573 C569 1.393 . S
C573 C572 1.391 . S
C574 H564 0.950 . S
C574 C575 1.386 . S
C574 C576 1.391 . S
C575 C574 1.386 . S
C575 C579 1.393 . S
C576 H565 0.950 . S
C576 C574 1.391 . S
C576 C577 1.400 . S
C577 C571 1.491 . S
C577 C576 1.400 . S
C577 C578 1.398 . S
C578 H566 0.950 . S
C578 C577 1.398 . S
C578 C579 1.391 . S
C579 H567 0.950 . S
C579 C575 1.393 . S
C579 C578 1.391 . S
H580 C588 0.950 . S
H581 C593 0.950 . S
H582 C590 0.950 . S
H583 C592 0.950 . S
H584 C594 0.950 . S
H585 C596 0.950 . S
H586 C598 0.950 . S
H587 C599 0.950 . S
C588 H580 0.950 . S
C588 C589 1.386 . S
C588 C590 1.391 . S
C589 C588 1.386 . S
C589 C593 1.393 . S
C590 H582 0.950 . S
C590 C588 1.391 . S
C590 C591 1.400 . S
C591 C590 1.400 . S
C591 C592 1.398 . S
C591 C597 1.491 . S
C592 H583 0.950 . S
C592 C591 1.398 . S
C592 C593 1.391 . S
C593 H581 0.950 . S
C593 C589 1.393 . S
C593 C592 1.391 . S
C594 H584 0.950 . S
C594 C595 1.386 . S
C594 C596 1.391 . S
C595 C594 1.386 . S
C595 C599 1.393 . S
C596 H585 0.950 . S
C596 C594 1.391 . S
C596 C597 1.400 . S
C597 C591 1.491 . S
C597 C596 1.400 . S
C597 C598 1.398 . S
C598 H586 0.950 . S
C598 C597 1.398 . S
C598 C599 1.391 . S
C599 H587 0.950 . S
C599 C595 1.393 . S
C599 C598 1.391 . S
H600 C608 0.950 . S
H601 C613 0.950 . S
H602 C610 0.950 . S
H603 C612 0.950 . S
H604 C614 0.950 . S
H605 C616 0.950 . S
H606 C618 0.950 . S
H607 C619 0.950 . S
C608 H600 0.950 . S
C608 C609 1.386 . S
C608 C610 1.391 . S
C609 C608 1.386 . S
C609 C613 1.393 . S
C610 H602 0.950 . S
C610 C608 1.391 . S
C610 C611 1.400 . S
C611 C610 1.400 . S
C611 C612 1.398 . S
C611 C617 1.491 . S
C612 H603 0.950 . S
C612 C611 1.398 . S
C612 C613 1.391 . S
C613 H601 0.950 . S
C613 C609 1.393 . S
C613 C612 1.391 . S
C614 H604 0.950 . S
C614 C615 1.386 . S
C614 C616 1.391 . S
C615 C614 1.386 . S
C615 C619 1.393 . S
C616 H605 0.950 . S
C616 C614 1.391 . S
C616 C617 1.400 . S
C617 C611 1.491 . S
C617 C616 1.400 . S
C617 C618 1.398 . S
C618 H606 0.950 . S
C618 C617 1.398 . S
C618 C619 1.391 . S
C619 H607 0.950 . S
C619 C615 1.393 . S
C619 C618 1.391 . S
H620 C628 0.950 . S
H621 C633 0.950 . S
H622 C630 0.950 . S
H623 C632 0.950 . S
H624 C634 0.950 . S
H625 C636 0.950 . S
H626 C638 0.950 . S
H627 C639 0.950 . S
C628 H620 0.950 . S
C628 C629 1.386 . S
C628 C630 1.391 . S
C629 C628 1.386 . S
C629 C633 1.393 . S
C630 H622 0.950 . S
C630 C628 1.391 . S
C630 C631 1.400 . S
C631 C630 1.400 . S
C631 C632 1.398 . S
C631 C637 1.491 . S
C632 H623 0.950 . S
C632 C631 1.398 . S
C632 C633 1.391 . S
C633 H621 0.950 . S
C633 C629 1.393 . S
C633 C632 1.391 . S
C634 H624 0.950 . S
C634 C635 1.386 . S
C634 C636 1.391 . S
C635 C634 1.386 . S
C635 C639 1.393 . S
C636 H625 0.950 . S
C636 C634 1.391 . S
C636 C637 1.400 . S
C637 C631 1.491 . S
C637 C636 1.400 . S
C637 C638 1.398 . S
C638 H626 0.950 . S
C638 C637 1.398 . S
C638 C639 1.391 . S
C639 H627 0.950 . S
C639 C635 1.393 . S
C639 C638 1.391 . S
H640 C648 0.950 . S
H641 C653 0.950 . S
H642 C650 0.950 . S
H643 C652 0.950 . S
H644 C654 0.950 . S
H645 C656 0.950 . S
H646 C658 0.950 . S
H647 C659 0.950 . S
C648 H640 0.950 . S
C648 C649 1.386 . S
C648 C650 1.391 . S
C649 C648 1.386 . S
C649 C653 1.393 . S
C650 H642 0.950 . S
C650 C648 1.391 . S
C650 C651 1.400 . S
C651 C650 1.400 . S
C651 C652 1.398 . S
C651 C657 1.491 . S
C652 H643 0.950 . S
C652 C651 1.398 . S
C652 C653 1.391 . S
C653 H641 0.950 . S
C653 C649 1.393 . S
C653 C652 1.391 . S
C654 H644 0.950 . S
C654 C655 1.386 . S
C654 C656 1.391 . S
C655 C654 1.386 . S
C655 C659 1.393 . S
C656 H645 0.950 . S
C656 C654 1.391 . S
C656 C657 1.400 . S
C657 C651 1.491 . S
C657 C656 1.400 . S
C657 C658 1.398 . S
C658 H646 0.950 . S
C658 C657 1.398 . S
C658 C659 1.391 . S
C659 H647 0.950 . S
C659 C655 1.393 . S
C659 C658 1.391 . S
H660 C668 0.950 . S
H661 C673 0.950 . S
H662 C670 0.944 1_545 S
H663 C672 0.950 . S
H664 C674 0.950 . S
H665 C676 0.950 . S
H666 C678 0.950 . S
H667 C679 0.950 . S
C668 H660 0.950 . S
C668 C669 1.386 . S
C668 C670 1.391 . S
C669 C668 1.386 . S
C669 C673 1.393 . S
C670 H662 0.944 1_565 S
C670 C668 1.391 . S
C670 C671 1.400 1_565 S
C671 C670 1.400 1_545 S
C671 C672 1.398 1_545 S
C671 C677 1.491 . S
C672 H663 0.950 . S
C672 C671 1.398 1_565 S
C672 C673 1.391 . S
C673 H661 0.950 . S
C673 C669 1.393 . S
C673 C672 1.391 . S
C674 H664 0.950 . S
C674 C675 1.386 . S
C674 C676 1.391 . S
C675 C674 1.386 . S
C675 C679 1.393 . S
C676 H665 0.950 . S
C676 C674 1.391 . S
C676 C677 1.400 . S
C677 C671 1.491 . S
C677 C676 1.400 . S
C677 C678 1.398 . S
C678 H666 0.950 . S
C678 C677 1.398 . S
C678 C679 1.391 . S
C679 H667 0.950 . S
C679 C675 1.393 . S
C679 C678 1.391 . S
H680 C688 0.950 . S
H681 C693 0.950 . S
H682 C690 0.950 . S
H683 C692 0.950 . S
H684 C694 0.950 . S
H685 C696 0.950 . S
H686 C698 0.950 . S
H687 C699 0.950 . S
C688 H680 0.950 . S
C688 C689 1.386 . S
C688 C690 1.391 . S
C689 C688 1.386 . S
C689 C693 1.393 . S
C690 H682 0.950 . S
C690 C688 1.391 . S
C690 C691 1.400 . S
C691 C690 1.400 . S
C691 C692 1.398 . S
C691 C697 1.491 1_655 S
C692 H683 0.950 . S
C692 C691 1.398 . S
C692 C693 1.391 . S
C693 H681 0.950 . S
C693 C689 1.393 . S
C693 C692 1.391 . S
C694 H684 0.950 . S
C694 C695 1.386 . S
C694 C696 1.391 . S
C695 C694 1.386 . S
C695 C699 1.393 . S
C696 H685 0.950 . S
C696 C694 1.391 . S
C696 C697 1.400 . S
C697 C691 1.491 1_455 S
C697 C696 1.400 . S
C697 C698 1.398 . S
C698 H686 0.950 . S
C698 C697 1.398 . S
C698 C699 1.391 . S
C699 H687 0.950 . S
C699 C695 1.393 . S
C699 C698 1.391 . S
H700 C708 0.950 . S
H701 C713 0.950 . S
H702 C710 0.950 . S
H703 C712 0.950 . S
H704 C714 0.950 . S
H705 C716 0.950 . S
H706 C718 0.950 . S
H707 C719 0.950 . S
C708 H700 0.950 . S
C708 C709 1.386 . S
C708 C710 1.391 . S
C709 C708 1.386 . S
C709 C713 1.393 . S
C710 H702 0.950 . S
C710 C708 1.391 . S
C710 C711 1.400 . S
C711 C710 1.400 . S
C711 C712 1.398 . S
C711 C717 1.491 . S
C712 H703 0.950 . S
C712 C711 1.398 . S
C712 C713 1.391 . S
C713 H701 0.950 . S
C713 C709 1.393 . S
C713 C712 1.391 . S
C714 H704 0.950 . S
C714 C715 1.386 . S
C714 C716 1.391 . S
C715 C714 1.386 . S
C715 C719 1.393 . S
C716 H705 0.950 . S
C716 C714 1.391 . S
C716 C717 1.400 . S
C717 C711 1.491 . S
C717 C716 1.400 . S
C717 C718 1.398 . S
C718 H706 0.950 . S
C718 C717 1.398 . S
C718 C719 1.391 . S
C719 H707 0.950 . S
C719 C715 1.393 . S
C719 C718 1.391 . S
H720 C728 0.950 . S
H721 C733 0.950 . S
H722 C730 0.950 . S
H723 C732 0.950 . S
H724 C734 0.950 . S
H725 C736 0.950 . S
H726 C738 0.950 . S
H727 C739 0.950 1_655 S
C728 H720 0.950 . S
C728 C729 1.386 . S
C728 C730 1.391 . S
C729 C728 1.386 . S
C729 C733 1.393 . S
C730 H722 0.950 . S
C730 C728 1.391 . S
C730 C731 1.400 . S
C731 C730 1.400 . S
C731 C732 1.398 . S
C731 C737 1.491 . S
C732 H723 0.950 . S
C732 C731 1.398 . S
C732 C733 1.391 . S
C733 H721 0.950 . S
C733 C729 1.393 . S
C733 C732 1.391 . S
C734 H724 0.950 . S
C734 C735 1.386 . S
C734 C736 1.391 . S
C735 C734 1.386 . S
C735 C739 1.393 . S
C736 H725 0.950 . S
C736 C734 1.391 . S
C736 C737 1.400 . S
C737 C731 1.491 . S
C737 C736 1.400 . S
C737 C738 1.398 . S
C738 H726 0.950 . S
C738 C737 1.398 . S
C738 C739 1.391 . S
C739 H727 0.950 1_455 S
C739 C735 1.393 . S
C739 C738 1.391 . S
H740 C748 0.950 . S
H741 C753 0.950 . S
H742 C750 0.950 . S
H743 C752 0.950 . S
H744 C754 0.950 . S
H745 C756 0.950 . S
H746 C758 0.950 . S
H747 C759 0.950 . S
C748 H740 0.950 . S
C748 C749 1.386 . S
C748 C750 1.391 . S
C749 C748 1.386 . S
C749 C753 1.393 . S
C750 H742 0.950 . S
C750 C748 1.391 . S
C750 C751 1.400 . S
C751 C750 1.400 . S
C751 C752 1.398 . S
C751 C757 1.491 . S
C752 H743 0.950 . S
C752 C751 1.398 . S
C752 C753 1.391 . S
C753 H741 0.950 . S
C753 C749 1.393 . S
C753 C752 1.391 . S
C754 H744 0.950 . S
C754 C755 1.386 . S
C754 C756 1.391 . S
C755 C754 1.386 . S
C755 C759 1.393 . S
C756 H745 0.950 . S
C756 C754 1.391 . S
C756 C757 1.400 . S
C757 C751 1.491 . S
C757 C756 1.400 . S
C757 C758 1.398 . S
C758 H746 0.950 . S
C758 C757 1.398 . S
C758 C759 1.391 . S
C759 H747 0.950 . S
C759 C755 1.393 . S
C759 C758 1.391 . S
H760 C768 0.950 . S
H761 C773 0.950 . S
H762 C770 0.950 . S
H763 C772 0.950 . S
H764 C774 0.950 . S
H765 C776 0.950 . S
H766 C778 0.950 . S
H767 C779 0.950 . S
C768 H760 0.950 . S
C768 C769 1.386 . S
C768 C770 1.391 . S
C769 C768 1.386 . S
C769 C773 1.393 . S
C770 H762 0.950 . S
C770 C768 1.391 . S
C770 C771 1.400 . S
C771 C770 1.400 . S
C771 C772 1.398 . S
C771 C777 1.491 . S
C772 H763 0.950 . S
C772 C771 1.398 . S
C772 C773 1.391 . S
C773 H761 0.950 . S
C773 C769 1.393 . S
C773 C772 1.391 . S
C774 H764 0.950 . S
C774 C775 1.386 . S
C774 C776 1.391 . S
C775 C774 1.386 . S
C775 C779 1.393 . S
C776 H765 0.950 . S
C776 C774 1.391 . S
C776 C777 1.400 . S
C777 C771 1.491 . S
C777 C776 1.400 . S
C777 C778 1.398 . S
C778 H766 0.950 . S
C778 C777 1.398 . S
C778 C779 1.391 . S
C779 H767 0.950 . S
C779 C775 1.393 . S
C779 C778 1.391 . S
H780 C788 0.950 1_565 S
H781 C793 0.950 . S
H782 C790 0.950 . S
H783 C792 0.950 . S
H784 C794 0.950 . S
H785 C796 0.950 . S
H786 C798 0.950 . S
H787 C799 0.950 . S
C788 H780 0.950 1_545 S
C788 C789 1.386 . S
C788 C790 1.391 . S
C789 C788 1.386 . S
C789 C793 1.393 . S
C790 H782 0.950 . S
C790 C788 1.391 . S
C790 C791 1.400 . S
C791 C790 1.400 . S
C791 C792 1.398 . S
C791 C797 1.491 . S
C792 H783 0.950 . S
C792 C791 1.398 . S
C792 C793 1.391 . S
C793 H781 0.950 . S
C793 C789 1.393 . S
C793 C792 1.391 . S
C794 H784 0.950 . S
C794 C795 1.386 . S
C794 C796 1.391 . S
C795 C794 1.386 . S
C795 C799 1.393 . S
C796 H785 0.950 . S
C796 C794 1.391 . S
C796 C797 1.400 . S
C797 C791 1.491 . S
C797 C796 1.400 . S
C797 C798 1.398 . S
C798 H786 0.950 . S
C798 C797 1.398 . S
C798 C799 1.391 . S
C799 H787 0.950 . S
C799 C795 1.393 . S
C799 C798 1.391 . S
H800 C808 0.950 1_455 S
H801 C813 0.950 . S
H802 C810 0.950 . S
H803 C812 0.950 . S
H804 C814 0.950 . S
H805 C816 0.950 . S
H806 C818 0.950 . S
H807 C819 0.950 . S
C808 H800 0.950 1_655 S
C808 C809 1.386 . S
C808 C810 1.391 . S
C809 C808 1.386 . S
C809 C813 1.393 . S
C810 H802 0.950 . S
C810 C808 1.391 . S
C810 C811 1.400 . S
C811 C810 1.400 . S
C811 C812 1.398 . S
C811 C817 1.491 . S
C812 H803 0.950 . S
C812 C811 1.398 . S
C812 C813 1.391 . S
C813 H801 0.950 . S
C813 C809 1.393 . S
C813 C812 1.391 . S
C814 H804 0.950 . S
C814 C815 1.386 . S
C814 C816 1.391 . S
C815 C814 1.386 . S
C815 C819 1.393 . S
C816 H805 0.950 . S
C816 C814 1.391 . S
C816 C817 1.400 . S
C817 C811 1.491 . S
C817 C816 1.400 . S
C817 C818 1.398 . S
C818 H806 0.950 . S
C818 C817 1.398 . S
C818 C819 1.391 . S
C819 H807 0.950 . S
C819 C815 1.393 . S
C819 C818 1.391 . S
H820 C828 0.950 . S
H821 C833 0.950 . S
H822 C830 0.950 . S
H823 C832 0.950 . S
H824 C834 0.950 . S
H825 C836 0.950 . S
H826 C838 0.950 . S
H827 C839 0.950 . S
C828 H820 0.950 . S
C828 C829 1.386 . S
C828 C830 1.391 . S
C829 C828 1.386 . S
C829 C833 1.393 . S
C830 H822 0.950 . S
C830 C828 1.391 . S
C830 C831 1.400 . S
C831 C830 1.400 . S
C831 C832 1.398 . S
C831 C837 1.491 . S
C832 H823 0.950 . S
C832 C831 1.398 . S
C832 C833 1.391 . S
C833 H821 0.950 . S
C833 C829 1.393 . S
C833 C832 1.391 . S
C834 H824 0.950 . S
C834 C835 1.386 . S
C834 C836 1.391 . S
C835 C834 1.386 . S
C835 C839 1.393 . S
C836 H825 0.950 . S
C836 C834 1.391 . S
C836 C837 1.400 . S
C837 C831 1.491 . S
C837 C836 1.400 . S
C837 C838 1.398 . S
C838 H826 0.950 . S
C838 C837 1.398 . S
C838 C839 1.391 . S
C839 H827 0.950 . S
C839 C835 1.393 . S
C839 C838 1.391 . S
H840 C848 0.950 . S
H841 C853 0.950 . S
H842 C850 0.950 . S
H843 C852 0.950 . S
H844 C854 0.950 . S
H845 C856 0.950 . S
H846 C858 0.950 . S
H847 C859 0.950 . S
C848 H840 0.950 . S
C848 C849 1.386 . S
C848 C850 1.391 . S
C849 C848 1.386 . S
C849 C853 1.393 . S
C850 H842 0.950 . S
C850 C848 1.391 . S
C850 C851 1.400 . S
C851 C850 1.400 . S
C851 C852 1.398 . S
C851 C857 1.491 . S
C852 H843 0.950 . S
C852 C851 1.398 . S
C852 C853 1.391 . S
C853 H841 0.950 . S
C853 C849 1.393 . S
C853 C852 1.391 . S
C854 H844 0.950 . S
C854 C855 1.386 . S
C854 C856 1.391 . S
C855 C854 1.386 . S
C855 C859 1.393 . S
C856 H845 0.950 . S
C856 C854 1.391 . S
C856 C857 1.400 . S
C857 C851 1.491 . S
C857 C856 1.400 . S
C857 C858 1.398 . S
C858 H846 0.950 . S
C858 C857 1.398 . S
C858 C859 1.391 . S
C859 H847 0.950 . S
C859 C855 1.393 . S
C859 C858 1.391 . S
H860 C868 0.950 . S
H861 C873 0.950 . S
H862 C870 0.950 1_545 S
H863 C872 0.950 . S
H864 C874 0.950 . S
H865 C876 0.950 1_565 S
H866 C878 0.950 . S
H867 C879 0.950 . S
C868 H860 0.950 . S
C868 C869 1.386 . S
C868 C870 1.391 . S
C869 C868 1.386 . S
C869 C873 1.393 . S
C870 H862 0.950 1_565 S
C870 C868 1.391 . S
C870 C871 1.400 . S
C871 C870 1.400 . S
C871 C872 1.398 . S
C871 C877 1.491 1_565 S
C872 H863 0.950 . S
C872 C871 1.398 . S
C872 C873 1.391 . S
C873 H861 0.950 . S
C873 C869 1.393 . S
C873 C872 1.391 . S
C874 H864 0.950 . S
C874 C875 1.386 . S
C874 C876 1.391 . S
C875 C874 1.386 . S
C875 C879 1.393 . S
C876 H865 0.950 1_545 S
C876 C874 1.391 . S
C876 C877 1.400 . S
C877 C871 1.491 1_545 S
C877 C876 1.400 . S
C877 C878 1.398 . S
C878 H866 0.950 . S
C878 C877 1.398 . S
C878 C879 1.391 . S
C879 H867 0.950 . S
C879 C875 1.393 . S
C879 C878 1.391 . S
H880 C888 0.950 . S
H881 C893 0.950 . S
H882 C890 0.950 . S
H883 C892 0.950 1_455 S
H884 C894 0.950 . S
H885 C896 0.950 . S
H886 C898 0.962 . S
H887 C899 0.950 . S
C888 H880 0.950 . S
C888 C889 1.386 . S
C888 C890 1.391 . S
C889 C888 1.386 . S
C889 C893 1.393 . S
C890 H882 0.950 . S
C890 C888 1.391 . S
C890 C891 1.400 . S
C891 C890 1.400 . S
C891 C892 1.398 . S
C891 C897 1.491 1_655 S
C892 H883 0.950 1_655 S
C892 C891 1.398 . S
C892 C893 1.391 . S
C893 H881 0.950 . S
C893 C889 1.393 . S
C893 C892 1.391 . S
C894 H884 0.950 . S
C894 C895 1.386 . S
C894 C896 1.391 . S
C895 C894 1.386 . S
C895 C899 1.393 . S
C896 H885 0.950 . S
C896 C894 1.391 . S
C896 C897 1.400 . S
C897 C891 1.491 1_455 S
C897 C896 1.400 . S
C897 C898 1.398 . S
C898 H886 0.962 . S
C898 C897 1.398 . S
C898 C899 1.391 . S
C899 H887 0.950 . S
C899 C895 1.393 . S
C899 C898 1.391 . S
C369 C47 1.576 . S
C375 C2 1.615 . S
C389 C87 1.572 . S
C395 C42 1.612 . S
C409 C82 1.614 . S
C415 C7 1.565 . S
C429 C96 1.466 . S
C435 C51 1.424 . S
C449 C91 1.409 . S
C455 C16 1.459 . S
C469 C11 1.431 . S
C475 C56 1.469 . S
C489 C122 1.617 . S
C495 C167 1.580 1_655 S
C509 C207 1.574 . S
C515 C162 1.613 . S
C529 C202 1.621 . S
C535 C127 1.582 1_545 S
C549 C171 1.410 . S
C555 C216 1.460 . S
C569 C211 1.432 . S
C575 C136 1.470 . S
C589 C176 1.464 . S
C595 C131 1.422 . S
C609 C287 1.562 . S
C615 C242 1.611 . S
C629 C282 1.606 . S
C635 C327 1.560 . S
C649 C322 1.617 . S
C655 C247 1.571 . S
C669 C336 1.459 . S
C675 C291 1.410 . S
C689 C331 1.407 . S
C695 C256 1.457 . S
C709 C251 1.408 . S
C715 C296 1.458 . S
C729 C210 2.565 . S
C735 C19 2.277 . S
C749 C130 2.562 . S
C755 C59 2.279 . S
C769 C99 2.286 . S
C775 C170 2.562 . S
C789 C90 2.562 . S
C795 C259 2.288 . S
C809 C10 2.562 . S
C815 C299 2.276 . S
C829 C339 2.287 . S
C835 C50 2.568 . S
C849 C139 2.289 . S
C855 C330 2.569 . S
C869 C179 2.295 . S
C875 C250 2.563 . S
C889 C290 2.562 . S
C895 C219 2.283 . S
