# Generated by pormake.
# Topology wgd, (5)-cn, num edge types: 1
# Building blocks:
#     Node 0, Type 0, BuildingBlock: BEQFEK_clean_sbu_0, # of connection points: 5
#     Node 1, Type 0, BuildingBlock: BEQFEK_clean_sbu_0, # of connection points: 5
#     Node 2, Type 0, BuildingBlock: BEQFEK_clean_sbu_0, # of connection points: 5
#     Node 3, Type 0, BuildingBlock: BEQFEK_clean_sbu_0, # of connection points: 5
#     Node 4, Type 0, BuildingBlock: BEQFEK_clean_sbu_0, # of connection points: 5
#     Node 5, Type 0, BuildingBlock: BEQFEK_clean_sbu_0, # of connection points: 5
#     Node 6, Type 0, BuildingBlock: BEQFEK_clean_sbu_0, # of connection points: 5
#     Node 7, Type 0, BuildingBlock: BEQFEK_clean_sbu_0, # of connection points: 5
#     Node 8, Type 0, BuildingBlock: BEQFEK_clean_sbu_0, # of connection points: 5
#     Node 9, Type 0, BuildingBlock: BEQFEK_clean_sbu_0, # of connection points: 5
#     Node 10, Type 0, BuildingBlock: BEQFEK_clean_sbu_0, # of connection points: 5
#     Node 11, Type 0, BuildingBlock: BEQFEK_clean_sbu_0, # of connection points: 5
#     Node 12, Type 0, BuildingBlock: BEQFEK_clean_sbu_0, # of connection points: 5
#     Node 13, Type 0, BuildingBlock: BEQFEK_clean_sbu_0, # of connection points: 5
#     Node 14, Type 0, BuildingBlock: BEQFEK_clean_sbu_0, # of connection points: 5
#     Node 15, Type 0, BuildingBlock: BEQFEK_clean_sbu_0, # of connection points: 5
#     Node 16, Type 0, BuildingBlock: BEQFEK_clean_sbu_0, # of connection points: 5
#     Node 17, Type 0, BuildingBlock: BEQFEK_clean_sbu_0, # of connection points: 5
#     Node 18, Type 0, BuildingBlock: BEQFEK_clean_sbu_0, # of connection points: 5
#     Node 19, Type 0, BuildingBlock: BEQFEK_clean_sbu_0, # of connection points: 5
#     Node 20, Type 0, BuildingBlock: BEQFEK_clean_sbu_0, # of connection points: 5
#     Node 21, Type 0, BuildingBlock: BEQFEK_clean_sbu_0, # of connection points: 5
#     Node 22, Type 0, BuildingBlock: BEQFEK_clean_sbu_0, # of connection points: 5
#     Node 23, Type 0, BuildingBlock: BEQFEK_clean_sbu_0, # of connection points: 5
#     Node 24, Type 0, BuildingBlock: BEQFEK_clean_sbu_0, # of connection points: 5
#     Node 25, Type 0, BuildingBlock: BEQFEK_clean_sbu_0, # of connection points: 5
#     Node 26, Type 0, BuildingBlock: BEQFEK_clean_sbu_0, # of connection points: 5
#     Node 27, Type 0, BuildingBlock: BEQFEK_clean_sbu_0, # of connection points: 5
#     Node 28, Type 0, BuildingBlock: BEQFEK_clean_sbu_0, # of connection points: 5
#     Node 29, Type 0, BuildingBlock: BEQFEK_clean_sbu_0, # of connection points: 5
#     Node 30, Type 0, BuildingBlock: BEQFEK_clean_sbu_0, # of connection points: 5
#     Node 31, Type 0, BuildingBlock: BEQFEK_clean_sbu_0, # of connection points: 5
#     Edge 32, Type (0, 0), BuildingBlock: AJUNOK_clean_linker_0, # of connection points: 2
#     Edge 33, Type (0, 0), BuildingBlock: AJUNOK_clean_linker_0, # of connection points: 2
#     Edge 34, Type (0, 0), BuildingBlock: AJUNOK_clean_linker_0, # of connection points: 2
#     Edge 35, Type (0, 0), BuildingBlock: AJUNOK_clean_linker_0, # of connection points: 2
#     Edge 36, Type (0, 0), BuildingBlock: AJUNOK_clean_linker_0, # of connection points: 2
#     Edge 37, Type (0, 0), BuildingBlock: AJUNOK_clean_linker_0, # of connection points: 2
#     Edge 38, Type (0, 0), BuildingBlock: AJUNOK_clean_linker_0, # of connection points: 2
#     Edge 39, Type (0, 0), BuildingBlock: AJUNOK_clean_linker_0, # of connection points: 2
#     Edge 40, Type (0, 0), BuildingBlock: AJUNOK_clean_linker_0, # of connection points: 2
#     Edge 41, Type (0, 0), BuildingBlock: AJUNOK_clean_linker_0, # of connection points: 2
#     Edge 42, Type (0, 0), BuildingBlock: AJUNOK_clean_linker_0, # of connection points: 2
#     Edge 43, Type (0, 0), BuildingBlock: AJUNOK_clean_linker_0, # of connection points: 2
#     Edge 44, Type (0, 0), BuildingBlock: AJUNOK_clean_linker_0, # of connection points: 2
#     Edge 45, Type (0, 0), BuildingBlock: AJUNOK_clean_linker_0, # of connection points: 2
#     Edge 46, Type (0, 0), BuildingBlock: AJUNOK_clean_linker_0, # of connection points: 2
#     Edge 47, Type (0, 0), BuildingBlock: AJUNOK_clean_linker_0, # of connection points: 2
#     Edge 48, Type (0, 0), BuildingBlock: AJUNOK_clean_linker_0, # of connection points: 2
#     Edge 49, Type (0, 0), BuildingBlock: AJUNOK_clean_linker_0, # of connection points: 2
#     Edge 50, Type (0, 0), BuildingBlock: AJUNOK_clean_linker_0, # of connection points: 2
#     Edge 51, Type (0, 0), BuildingBlock: AJUNOK_clean_linker_0, # of connection points: 2
#     Edge 52, Type (0, 0), BuildingBlock: AJUNOK_clean_linker_0, # of connection points: 2
#     Edge 53, Type (0, 0), BuildingBlock: AJUNOK_clean_linker_0, # of connection points: 2
#     Edge 54, Type (0, 0), BuildingBlock: AJUNOK_clean_linker_0, # of connection points: 2
#     Edge 55, Type (0, 0), BuildingBlock: AJUNOK_clean_linker_0, # of connection points: 2
#     Edge 56, Type (0, 0), BuildingBlock: AJUNOK_clean_linker_0, # of connection points: 2
#     Edge 57, Type (0, 0), BuildingBlock: AJUNOK_clean_linker_0, # of connection points: 2
#     Edge 58, Type (0, 0), BuildingBlock: AJUNOK_clean_linker_0, # of connection points: 2
#     Edge 59, Type (0, 0), BuildingBlock: AJUNOK_clean_linker_0, # of connection points: 2
#     Edge 60, Type (0, 0), BuildingBlock: AJUNOK_clean_linker_0, # of connection points: 2
#     Edge 61, Type (0, 0), BuildingBlock: AJUNOK_clean_linker_0, # of connection points: 2
#     Edge 62, Type (0, 0), BuildingBlock: AJUNOK_clean_linker_0, # of connection points: 2
#     Edge 63, Type (0, 0), BuildingBlock: AJUNOK_clean_linker_0, # of connection points: 2
#     Edge 64, Type (0, 0), BuildingBlock: AJUNOK_clean_linker_0, # of connection points: 2
#     Edge 65, Type (0, 0), BuildingBlock: AJUNOK_clean_linker_0, # of connection points: 2
#     Edge 66, Type (0, 0), BuildingBlock: AJUNOK_clean_linker_0, # of connection points: 2
#     Edge 67, Type (0, 0), BuildingBlock: AJUNOK_clean_linker_0, # of connection points: 2
#     Edge 68, Type (0, 0), BuildingBlock: AJUNOK_clean_linker_0, # of connection points: 2
#     Edge 69, Type (0, 0), BuildingBlock: AJUNOK_clean_linker_0, # of connection points: 2
#     Edge 70, Type (0, 0), BuildingBlock: AJUNOK_clean_linker_0, # of connection points: 2
#     Edge 71, Type (0, 0), BuildingBlock: AJUNOK_clean_linker_0, # of connection points: 2
#     Edge 72, Type (0, 0), BuildingBlock: AJUNOK_clean_linker_0, # of connection points: 2
#     Edge 73, Type (0, 0), BuildingBlock: AJUNOK_clean_linker_0, # of connection points: 2
#     Edge 74, Type (0, 0), BuildingBlock: AJUNOK_clean_linker_0, # of connection points: 2
#     Edge 75, Type (0, 0), BuildingBlock: AJUNOK_clean_linker_0, # of connection points: 2
#     Edge 76, Type (0, 0), BuildingBlock: AJUNOK_clean_linker_0, # of connection points: 2
#     Edge 77, Type (0, 0), BuildingBlock: AJUNOK_clean_linker_0, # of connection points: 2
#     Edge 78, Type (0, 0), BuildingBlock: AJUNOK_clean_linker_0, # of connection points: 2
#     Edge 79, Type (0, 0), BuildingBlock: AJUNOK_clean_linker_0, # of connection points: 2
#     Edge 80, Type (0, 0), BuildingBlock: AJUNOK_clean_linker_0, # of connection points: 2
#     Edge 81, Type (0, 0), BuildingBlock: AJUNOK_clean_linker_0, # of connection points: 2
#     Edge 82, Type (0, 0), BuildingBlock: AJUNOK_clean_linker_0, # of connection points: 2
#     Edge 83, Type (0, 0), BuildingBlock: AJUNOK_clean_linker_0, # of connection points: 2
#     Edge 84, Type (0, 0), BuildingBlock: AJUNOK_clean_linker_0, # of connection points: 2
#     Edge 85, Type (0, 0), BuildingBlock: AJUNOK_clean_linker_0, # of connection points: 2
#     Edge 86, Type (0, 0), BuildingBlock: AJUNOK_clean_linker_0, # of connection points: 2
#     Edge 87, Type (0, 0), BuildingBlock: AJUNOK_clean_linker_0, # of connection points: 2
#     Edge 88, Type (0, 0), BuildingBlock: AJUNOK_clean_linker_0, # of connection points: 2
#     Edge 89, Type (0, 0), BuildingBlock: AJUNOK_clean_linker_0, # of connection points: 2
#     Edge 90, Type (0, 0), BuildingBlock: AJUNOK_clean_linker_0, # of connection points: 2
#     Edge 91, Type (0, 0), BuildingBlock: AJUNOK_clean_linker_0, # of connection points: 2
#     Edge 92, Type (0, 0), BuildingBlock: AJUNOK_clean_linker_0, # of connection points: 2
#     Edge 93, Type (0, 0), BuildingBlock: AJUNOK_clean_linker_0, # of connection points: 2
#     Edge 94, Type (0, 0), BuildingBlock: AJUNOK_clean_linker_0, # of connection points: 2
#     Edge 95, Type (0, 0), BuildingBlock: AJUNOK_clean_linker_0, # of connection points: 2
#     Edge 96, Type (0, 0), BuildingBlock: AJUNOK_clean_linker_0, # of connection points: 2
#     Edge 97, Type (0, 0), BuildingBlock: AJUNOK_clean_linker_0, # of connection points: 2
#     Edge 98, Type (0, 0), BuildingBlock: AJUNOK_clean_linker_0, # of connection points: 2
#     Edge 99, Type (0, 0), BuildingBlock: AJUNOK_clean_linker_0, # of connection points: 2
#     Edge 100, Type (0, 0), BuildingBlock: AJUNOK_clean_linker_0, # of connection points: 2
#     Edge 101, Type (0, 0), BuildingBlock: AJUNOK_clean_linker_0, # of connection points: 2
#     Edge 102, Type (0, 0), BuildingBlock: AJUNOK_clean_linker_0, # of connection points: 2
#     Edge 103, Type (0, 0), BuildingBlock: AJUNOK_clean_linker_0, # of connection points: 2
#     Edge 104, Type (0, 0), BuildingBlock: AJUNOK_clean_linker_0, # of connection points: 2
#     Edge 105, Type (0, 0), BuildingBlock: AJUNOK_clean_linker_0, # of connection points: 2
#     Edge 106, Type (0, 0), BuildingBlock: AJUNOK_clean_linker_0, # of connection points: 2
#     Edge 107, Type (0, 0), BuildingBlock: AJUNOK_clean_linker_0, # of connection points: 2
#     Edge 108, Type (0, 0), BuildingBlock: AJUNOK_clean_linker_0, # of connection points: 2
#     Edge 109, Type (0, 0), BuildingBlock: AJUNOK_clean_linker_0, # of connection points: 2
#     Edge 110, Type (0, 0), BuildingBlock: AJUNOK_clean_linker_0, # of connection points: 2
#     Edge 111, Type (0, 0), BuildingBlock: AJUNOK_clean_linker_0, # of connection points: 2
# Relax obj value: 0.315
# Max RMSD: 0.241
# Mean RMSD: 0.241
data_MOF--net-wgd--node1-BEQFEK_clean_sbu_0--edge1-AJUNOK_clean_linker_0
_symmetry_space_group_name_H-M    P1
_symmetry_Int_Tables_number       1
_symmetry_cell_setting            triclinic
loop_
_symmetry_equiv_pos_as_xyz
'x, y, z'
_cell_length_a     74.894434
_cell_length_b     74.907649
_cell_length_c     14.522752
_cell_angle_alpha  89.994171
_cell_angle_beta   89.983941
_cell_angle_gamma 89.999871
loop_
_atom_site_label
_atom_site_type_symbol
_atom_site_fract_x
_atom_site_fract_y
_atom_site_fract_z
_atom_type_partial_charge
Co0 Co 0.17835 0.17839 0.14621 0.0
Co1 Co 0.20027 0.17784 0.96536 0.0
C2 C 0.18079 0.21102 0.03995 0.0
O3 O 0.17301 0.20289 0.10547 0.0
O4 O 0.19156 0.20277 0.98713 0.0
C5 C 0.17155 0.18647 0.32569 0.0
O6 O 0.17554 0.20221 0.29161 0.0
C7 C 0.19498 0.18296 0.77296 0.0
C8 C 0.21823 0.1702 0.70675 0.0
C9 C 0.2019 0.1782 0.68842 0.0
N10 N 0.20645 0.17778 0.8387 0.0
N11 N 0.22054 0.17045 0.79893 0.0
C12 C 0.17659 0.18997 0.79178 0.0
H13 H 0.17229 0.18672 0.86282 0.0
H14 H 0.16684 0.18434 0.74209 0.0
H15 H 0.17661 0.20469 0.78366 0.0
C16 C 0.15776 0.15009 0.04699 0.0
N17 N 0.17161 0.16147 0.056 0.0
N18 N 0.18189 0.16026 0.9828 0.0
C19 C 0.1753 0.14745 0.92677 0.0
C20 C 0.15959 0.14086 0.96436 0.0
C21 C 0.14291 0.14851 0.1153 0.0
H22 H 0.14853 0.14746 0.18577 0.0
H23 H 0.13466 0.1608 0.11269 0.0
H24 H 0.13437 0.13674 0.10068 0.0
O25 O 0.20431 0.17674 0.17289 0.0
O26 O 0.22108 0.17375 0.04869 0.0
H27 H 0.19795 0.14398 0.83769 0.0
H28 H 0.18049 0.12799 0.82001 0.0
C29 C 0.18331 0.14214 0.83631 0.0
H30 H 0.17736 0.15032 0.78062 0.0
H31 H 0.23121 0.16478 0.83466 0.0
O32 O 0.16866 0.17367 0.27014 0.0
C33 C 0.21958 0.17479 0.13603 0.0
Co34 Co 0.07362 0.92945 0.39628 0.0
Co35 Co 0.07214 0.95039 0.21121 0.0
C36 C 0.04016 0.93019 0.2973 0.0
O37 O 0.04895 0.92324 0.36314 0.0
O38 O 0.04772 0.94071 0.24017 0.0
C39 C 0.06918 0.91702 0.57805 0.0
O40 O 0.05255 0.91484 0.55212 0.0
C41 C 0.06569 0.94631 0.01693 0.0
C42 C 0.08398 0.96602 0.95497 0.0
C43 C 0.07357 0.95122 0.93424 0.0
N44 N 0.07212 0.95685 0.08399 0.0
N45 N 0.08255 0.96906 0.04618 0.0
C46 C 0.05184 0.93223 0.03286 0.0
H47 H 0.04064 0.93808 0.07233 0.0
H48 H 0.05763 0.92122 0.07437 0.0
H49 H 0.04628 0.92705 0.96737 0.0
C50 C 0.10117 0.90889 0.29389 0.0
N51 N 0.08971 0.92268 0.30249 0.0
N52 N 0.09023 0.93246 0.22736 0.0
C53 C 0.10278 0.92562 0.17044 0.0
C54 C 0.10984 0.9103 0.20961 0.0
C55 C 0.10344 0.89459 0.36469 0.0
H56 H 0.10852 0.90064 0.42929 0.0
H57 H 0.09024 0.88855 0.38032 0.0
H58 H 0.11287 0.8841 0.34129 0.0
O59 O 0.07401 0.9556 0.42058 0.0
O60 O 0.07615 0.97148 0.29239 0.0
H61 H 0.10825 0.94784 0.08255 0.0
H62 H 0.12079 0.92821 0.05425 0.0
C63 C 0.10767 0.93312 0.07847 0.0
H64 H 0.0976 0.92893 0.02734 0.0
H65 H 0.08986 0.97845 0.08341 0.0
O66 O 0.08094 0.92005 0.51717 0.0
C67 C 0.07522 0.97059 0.3799 0.0
Co68 Co 0.3232 0.82345 0.65728 0.0
Co69 Co 0.30444 0.81993 0.46624 0.0
C70 C 0.32322 0.78877 0.56114 0.0
O71 O 0.32809 0.7981 0.62991 0.0
O72 O 0.31415 0.79553 0.49536 0.0
C73 C 0.337 0.81873 0.83614 0.0
O74 O 0.34117 0.80262 0.80787 0.0
C75 C 0.30484 0.81186 0.27119 0.0
C76 C 0.28952 0.8344 0.21401 0.0
C77 C 0.30133 0.82091 0.18981 0.0
N78 N 0.29678 0.82049 0.34071 0.0
N79 N 0.28694 0.83345 0.30568 0.0
C80 C 0.31548 0.79521 0.28387 0.0
H81 H 0.30778 0.78579 0.32735 0.0
H82 H 0.32806 0.79852 0.32038 0.0
H83 H 0.31842 0.78861 0.21714 0.0
C84 C 0.34435 0.85075 0.55672 0.0
N85 N 0.33103 0.83866 0.56161 0.0
N86 N 0.32287 0.83771 0.48149 0.0
C87 C 0.33073 0.84946 0.42349 0.0
C88 C 0.34449 0.8581 0.46902 0.0
C89 C 0.35659 0.85507 0.63488 0.0
H90 H 0.34867 0.86074 0.69245 0.0
H91 H 0.3629 0.8426 0.66025 0.0
H92 H 0.36706 0.86477 0.6142 0.0
O93 O 0.29731 0.82577 0.68041 0.0
O94 O 0.28323 0.8246 0.54689 0.0
H95 H 0.31252 0.85679 0.31718 0.0
H96 H 0.33547 0.8609 0.28797 0.0
C97 C 0.3263 0.85161 0.32384 0.0
H98 H 0.32747 0.83854 0.28972 0.0
H99 H 0.27991 0.84274 0.34508 0.0
O100 O 0.33293 0.83053 0.77715 0.0
C101 C 0.28292 0.82614 0.63425 0.0
Co102 Co 0.42974 0.0726 0.89876 0.0
Co103 Co 0.42762 0.05157 0.71569 0.0
C104 C 0.46159 0.06996 0.78389 0.0
O105 O 0.45387 0.07765 0.85087 0.0
O106 O 0.45297 0.0594 0.7317 0.0
C107 C 0.44053 0.07413 0.07167 0.0
O108 O 0.45426 0.06827 0.02441 0.0
C109 C 0.43112 0.05561 0.52081 0.0
C110 C 0.42116 0.03027 0.46274 0.0
C111 C 0.42777 0.04693 0.43915 0.0
N112 N 0.42633 0.04486 0.59033 0.0
N113 N 0.42045 0.02964 0.55557 0.0
C114 C 0.43919 0.07376 0.53288 0.0
H115 H 0.43688 0.07883 0.60361 0.0
H116 H 0.43353 0.08328 0.48221 0.0
H117 H 0.45378 0.0729 0.52031 0.0
C118 C 0.40036 0.09375 0.80788 0.0
N119 N 0.41206 0.08008 0.81298 0.0
N120 N 0.41066 0.07032 0.73783 0.0
C121 C 0.39748 0.07704 0.68469 0.0
C122 C 0.39069 0.09222 0.72648 0.0
C123 C 0.39891 0.10833 0.87764 0.0
H124 H 0.40389 0.10372 0.9455 0.0
H125 H 0.40716 0.11981 0.85485 0.0
H126 H 0.38486 0.11293 0.88351 0.0
O127 O 0.42711 0.04665 0.92421 0.0
O128 O 0.42318 0.03088 0.79761 0.0
H129 H 0.39348 0.055 0.59198 0.0
H130 H 0.37818 0.07316 0.57506 0.0
C131 C 0.39212 0.06971 0.59271 0.0
H132 H 0.4007 0.07565 0.53867 0.0
H133 H 0.41588 0.01892 0.59496 0.0
O134 O 0.42757 0.08109 0.02749 0.0
C135 C 0.42428 0.03177 0.88496 0.0
Co136 Co 0.17546 0.82446 0.82828 0.0
Co137 Co 0.19602 0.82291 0.01384 0.0
C138 C 0.17682 0.79072 0.93127 0.0
O139 O 0.17019 0.79954 0.86479 0.0
O140 O 0.18704 0.79828 0.98938 0.0
C141 C 0.16542 0.81675 0.64949 0.0
O142 O 0.16578 0.80055 0.68383 0.0
C143 C 0.19136 0.81698 0.2061 0.0
C144 C 0.214 0.83104 0.27117 0.0
C145 C 0.19809 0.8223 0.29016 0.0
N146 N 0.20252 0.82262 0.13993 0.0
N147 N 0.2163 0.83063 0.17903 0.0
C148 C 0.17329 0.80915 0.18771 0.0
H149 H 0.16824 0.81349 0.11957 0.0
H150 H 0.16359 0.81308 0.24178 0.0
H151 H 0.1744 0.79438 0.18744 0.0
C152 C 0.15502 0.85269 0.92964 0.0
N153 N 0.16839 0.84072 0.9216 0.0
N154 N 0.17795 0.84083 0.9976 0.0
C155 C 0.17139 0.85347 0.05477 0.0
C156 C 0.15648 0.86116 0.01459 0.0
C157 C 0.14113 0.85576 0.85747 0.0
H158 H 0.13289 0.84352 0.85017 0.0
H159 H 0.1324 0.86724 0.87515 0.0
H160 H 0.14772 0.85822 0.79023 0.0
O161 O 0.20149 0.82661 0.80215 0.0
O162 O 0.21687 0.82718 0.93219 0.0
H163 H 0.17534 0.87145 0.17011 0.0
H164 H 0.17289 0.84849 0.19948 0.0
C165 C 0.17874 0.85773 0.14814 0.0
H166 H 0.19344 0.85646 0.1478 0.0
H167 H 0.22659 0.83685 0.14275 0.0
O168 O 0.16566 0.82987 0.70495 0.0
C169 C 0.2163 0.8278 0.84448 0.0
Co170 Co 0.42974 0.92737 0.10432 0.0
Co171 Co 0.42862 0.94861 0.28713 0.0
C172 C 0.46238 0.93083 0.21244 0.0
O173 O 0.45435 0.92304 0.1468 0.0
O174 O 0.45393 0.9412 0.26634 0.0
C175 C 0.43962 0.92218 0.92841 0.0
O176 O 0.45385 0.92886 0.96836 0.0
C177 C 0.43442 0.94357 0.4786 0.0
C178 C 0.42027 0.96585 0.54644 0.0
C179 C 0.42964 0.95022 0.56346 0.0
N180 N 0.42811 0.95461 0.41359 0.0
N181 N 0.41991 0.96812 0.45421 0.0
C182 C 0.44262 0.92571 0.45918 0.0
H183 H 0.43839 0.92067 0.39085 0.0
H184 H 0.43888 0.91588 0.51309 0.0
H185 H 0.45735 0.92703 0.45914 0.0
C186 C 0.40193 0.90556 0.20185 0.0
N187 N 0.41313 0.91959 0.19396 0.0
N188 N 0.41186 0.92954 0.26841 0.0
C189 C 0.39918 0.92257 0.32393 0.0
C190 C 0.39269 0.90706 0.28447 0.0
C191 C 0.40016 0.89104 0.13192 0.0
H192 H 0.41206 0.89069 0.0864 0.0
H193 H 0.39836 0.87793 0.16631 0.0
H194 H 0.38814 0.89363 0.0893 0.0
O195 O 0.42633 0.95325 0.07836 0.0
O196 O 0.42358 0.9693 0.20542 0.0
H197 H 0.37992 0.92603 0.43371 0.0
H198 H 0.4027 0.92522 0.46932 0.0
C199 C 0.39363 0.9302 0.41484 0.0
H200 H 0.39412 0.94496 0.41246 0.0
H201 H 0.41335 0.97835 0.41915 0.0
O202 O 0.42654 0.91754 0.97904 0.0
C203 C 0.42377 0.96819 0.11782 0.0
Co204 Co 0.32414 0.17841 0.35566 0.0
Co205 Co 0.30327 0.17982 0.53981 0.0
C206 C 0.32294 0.21193 0.46036 0.0
O207 O 0.32974 0.20307 0.39459 0.0
O208 O 0.31235 0.20448 0.51712 0.0
C209 C 0.3311 0.18678 0.17764 0.0
O210 O 0.32796 0.20255 0.21351 0.0
C211 C 0.30685 0.1857 0.73283 0.0
C212 C 0.2836 0.17201 0.79424 0.0
C213 C 0.29945 0.18064 0.81604 0.0
N214 N 0.29615 0.17999 0.66493 0.0
N215 N 0.28201 0.17219 0.70172 0.0
C216 C 0.32509 0.19337 0.71691 0.0
H217 H 0.33033 0.18924 0.64879 0.0
H218 H 0.33456 0.18904 0.77126 0.0
H219 H 0.3242 0.20815 0.71824 0.0
C220 C 0.34407 0.14963 0.45571 0.0
N221 N 0.33088 0.16181 0.448 0.0
N222 N 0.32138 0.16185 0.52433 0.0
C223 C 0.32788 0.14921 0.58166 0.0
C224 C 0.34257 0.1412 0.54069 0.0
C225 C 0.35799 0.14649 0.38379 0.0
H226 H 0.35156 0.14545 0.31518 0.0
H227 H 0.36717 0.15812 0.38195 0.0
H228 H 0.36578 0.1342 0.39829 0.0
O229 O 0.29826 0.17642 0.32744 0.0
O230 O 0.28265 0.17564 0.45662 0.0
H231 H 0.30616 0.14637 0.67703 0.0
H232 H 0.32483 0.13213 0.70165 0.0
C233 C 0.3209 0.14549 0.67646 0.0
H234 H 0.32658 0.15531 0.72522 0.0
H235 H 0.27189 0.16607 0.66381 0.0
O236 O 0.3338 0.17368 0.23169 0.0
C237 C 0.28337 0.17521 0.36897 0.0
Co238 Co 0.07231 0.07543 0.59067 0.0
Co239 Co 0.07133 0.05509 0.77701 0.0
C240 C 0.03894 0.07431 0.69742 0.0
O241 O 0.04735 0.08048 0.62847 0.0
O242 O 0.04678 0.06447 0.7561 0.0
C243 C 0.0637 0.08573 0.41365 0.0
O244 O 0.04771 0.08568 0.45052 0.0
C245 C 0.06658 0.06091 0.96911 0.0
C246 C 0.07604 0.0362 0.03616 0.0
C247 C 0.06948 0.05318 0.0539 0.0
N248 N 0.07114 0.04913 0.90366 0.0
N249 N 0.07658 0.03425 0.94378 0.0
C250 C 0.06207 0.0801 0.9507 0.0
H251 H 0.06493 0.08377 0.87831 0.0
H252 H 0.06971 0.08893 0.99777 0.0
H253 H 0.04773 0.08244 0.96413 0.0
C254 C 0.10102 0.09578 0.68953 0.0
N255 N 0.08893 0.08249 0.68235 0.0
N256 N 0.08958 0.07263 0.75723 0.0
C257 C 0.10273 0.0788 0.81231 0.0
C258 C 0.11014 0.09391 0.77254 0.0
C259 C 0.10362 0.10997 0.61839 0.0
H260 H 0.10503 0.1037 0.54957 0.0
H261 H 0.09158 0.1186 0.61644 0.0
H262 H 0.11555 0.11825 0.63347 0.0
O263 O 0.0746 0.04941 0.56487 0.0
O264 O 0.07455 0.03403 0.69548 0.0
H265 H 0.10476 0.05629 0.90386 0.0
H266 H 0.12231 0.07236 0.91654 0.0
C267 C 0.10786 0.07073 0.90294 0.0
H268 H 0.10061 0.07759 0.95921 0.0
H269 H 0.08124 0.02306 0.90837 0.0
O270 O 0.07716 0.08525 0.46695 0.0
C271 C 0.07533 0.03462 0.60779 0.0
Co272 Co 0.82359 0.82352 0.85938 0.0
Co273 Co 0.80209 0.82336 0.04192 0.0
C274 C 0.82114 0.79044 0.96579 0.0
O275 O 0.82854 0.79895 0.90046 0.0
O276 O 0.81045 0.7983 0.02057 0.0
C277 C 0.82917 0.81484 0.68134 0.0
O278 O 0.82471 0.79946 0.71807 0.0
C279 C 0.80552 0.81759 0.2354 0.0
C280 C 0.78269 0.83195 0.29679 0.0
C281 C 0.79826 0.82283 0.31864 0.0
N282 N 0.795 0.8236 0.1674 0.0
N283 N 0.78112 0.83184 0.20422 0.0
C284 C 0.82351 0.80935 0.21965 0.0
H285 H 0.82894 0.81338 0.15177 0.0
H286 H 0.83306 0.8133 0.27439 0.0
H287 H 0.82214 0.7946 0.2205 0.0
C288 C 0.84407 0.85203 0.95842 0.0
N289 N 0.83054 0.84023 0.95062 0.0
N290 N 0.82081 0.84071 0.02611 0.0
C291 C 0.8275 0.85335 0.08284 0.0
C292 C 0.84254 0.86078 0.04249 0.0
C293 C 0.85833 0.85448 0.8876 0.0
H294 H 0.86741 0.84278 0.88936 0.0
H295 H 0.86618 0.8668 0.90064 0.0
H296 H 0.85224 0.85505 0.81804 0.0
O297 O 0.79787 0.82598 0.83073 0.0
O298 O 0.78171 0.82824 0.95744 0.0
H299 H 0.82453 0.87101 0.20052 0.0
H300 H 0.8255 0.84786 0.22684 0.0
C301 C 0.82029 0.85765 0.17652 0.0
H302 H 0.80553 0.85719 0.17572 0.0
H303 H 0.77117 0.83826 0.16632 0.0
O304 O 0.83319 0.82771 0.73472 0.0
C305 C 0.78285 0.8281 0.86984 0.0
Co306 Co 0.92819 0.07331 0.60249 0.0
Co307 Co 0.929 0.05311 0.78989 0.0
C308 C 0.96145 0.07327 0.70993 0.0
O309 O 0.95261 0.07919 0.64155 0.0
O310 O 0.95414 0.06308 0.77005 0.0
C311 C 0.9345 0.0786 0.42281 0.0
O312 O 0.94987 0.0727 0.45376 0.0
C313 C 0.93438 0.05143 0.98711 0.0
C314 C 0.91031 0.03716 0.03388 0.0
C315 C 0.92421 0.04784 0.06447 0.0
N316 N 0.9262 0.04452 0.91327 0.0
N317 N 0.91222 0.03529 0.94201 0.0
C318 C 0.9519 0.06075 0.98274 0.0
H319 H 0.96117 0.05223 0.94273 0.0
H320 H 0.95025 0.07366 0.94625 0.0
H321 H 0.95766 0.06297 0.05219 0.0
C322 C 0.89957 0.09378 0.69475 0.0
N323 N 0.91138 0.0802 0.69183 0.0
N324 N 0.91127 0.07163 0.77094 0.0
C325 C 0.89903 0.07952 0.8263 0.0
C326 C 0.89129 0.09374 0.78016 0.0
C327 C 0.89677 0.10675 0.61787 0.0
H328 H 0.89282 0.09937 0.55485 0.0
H329 H 0.90954 0.11368 0.60284 0.0
H330 H 0.88631 0.11672 0.63498 0.0
O331 O 0.92766 0.04753 0.57587 0.0
O332 O 0.92579 0.0322 0.70529 0.0
H333 H 0.8897 0.06145 0.92886 0.0
H334 H 0.88674 0.08447 0.95953 0.0
C335 C 0.89579 0.07488 0.9249 0.0
H336 H 0.9086 0.0751 0.96202 0.0
H337 H 0.90303 0.02918 0.89823 0.0
O338 O 0.92256 0.08293 0.4805 0.0
C339 C 0.92663 0.03273 0.61782 0.0
Co340 Co 0.67941 0.18075 0.36386 0.0
Co341 Co 0.70061 0.17889 0.54666 0.0
C342 C 0.68223 0.21278 0.47832 0.0
O343 O 0.67462 0.20491 0.41158 0.0
O344 O 0.69287 0.20431 0.53086 0.0
C345 C 0.6781 0.19152 0.1913 0.0
O346 O 0.68397 0.20525 0.23851 0.0
C347 C 0.69658 0.18254 0.7414 0.0
C348 C 0.72178 0.17225 0.79976 0.0
C349 C 0.7052 0.17911 0.82326 0.0
N350 N 0.70731 0.17758 0.67205 0.0
N351 N 0.72244 0.1715 0.70697 0.0
C352 C 0.6786 0.19095 0.72872 0.0
H353 H 0.67356 0.18868 0.65792 0.0
H354 H 0.66886 0.18553 0.77895 0.0
H355 H 0.67972 0.20552 0.74107 0.0
C356 C 0.6582 0.15166 0.4548 0.0
N357 N 0.6719 0.16332 0.44987 0.0
N358 N 0.68162 0.16197 0.52518 0.0
C359 C 0.67477 0.14889 0.5786 0.0
C360 C 0.65961 0.14209 0.53648 0.0
C361 C 0.64377 0.15011 0.38426 0.0
H362 H 0.64867 0.15462 0.31603 0.0
H363 H 0.63242 0.15874 0.4049 0.0
H364 H 0.63889 0.13613 0.38006 0.0
O365 O 0.70517 0.17749 0.3386 0.0
O366 O 0.72142 0.17437 0.4643 0.0
H367 H 0.67821 0.12981 0.68971 0.0
H368 H 0.67611 0.15247 0.72435 0.0
C369 C 0.68193 0.14364 0.67109 0.0
H370 H 0.69666 0.14476 0.67204 0.0
H371 H 0.7331 0.16677 0.66773 0.0
O372 O 0.67092 0.17864 0.23519 0.0
C373 C 0.72015 0.17477 0.37688 0.0
Co374 Co 0.57268 0.92854 0.10052 0.0
Co375 Co 0.57352 0.95016 0.28248 0.0
C376 C 0.54003 0.93162 0.20845 0.0
O377 O 0.54803 0.92398 0.14211 0.0
O378 O 0.54842 0.94209 0.2621 0.0
C379 C 0.564 0.92307 0.92225 0.0
O380 O 0.54863 0.92776 0.95836 0.0
C381 C 0.56818 0.94624 0.47609 0.0
C382 C 0.58145 0.96963 0.53815 0.0
C383 C 0.5729 0.95372 0.55954 0.0
N384 N 0.57386 0.95701 0.40832 0.0
N385 N 0.5815 0.97119 0.44554 0.0
C386 C 0.56063 0.92795 0.46039 0.0
H387 H 0.56391 0.92307 0.39039 0.0
H388 H 0.56586 0.91839 0.51221 0.0
H389 H 0.5459 0.92848 0.46752 0.0
C390 C 0.6008 0.90743 0.19944 0.0
N391 N 0.58943 0.9213 0.19119 0.0
N392 N 0.59053 0.93129 0.26552 0.0
C393 C 0.6032 0.9245 0.32159 0.0
C394 C 0.60988 0.90896 0.28272 0.0
C395 C 0.60266 0.89292 0.12941 0.0
H396 H 0.60331 0.89884 0.05946 0.0
H397 H 0.59067 0.88425 0.13222 0.0
H398 H 0.61475 0.88471 0.14233 0.0
O399 O 0.57547 0.95429 0.07177 0.0
O400 O 0.57843 0.97047 0.19801 0.0
H401 H 0.60711 0.94697 0.41134 0.0
H402 H 0.62227 0.92888 0.43161 0.0
C403 C 0.60836 0.93226 0.4129 0.0
H404 H 0.5996 0.92668 0.46725 0.0
H405 H 0.5875 0.98143 0.40793 0.0
O406 O 0.57674 0.91887 0.97607 0.0
C407 C 0.57796 0.96929 0.11045 0.0
Co408 Co 0.82328 0.17982 0.14506 0.0
Co409 Co 0.8014 0.17906 0.96388 0.0
C410 C 0.8201 0.21254 0.03888 0.0
O411 O 0.82793 0.20442 0.10422 0.0
O412 O 0.80951 0.20421 0.98538 0.0
C413 C 0.82863 0.1883 0.32375 0.0
O414 O 0.82405 0.20372 0.28789 0.0
C415 C 0.80546 0.18432 0.7703 0.0
C416 C 0.78201 0.17118 0.70803 0.0
C417 C 0.79801 0.17959 0.68675 0.0
N418 N 0.7946 0.17875 0.83796 0.0
N419 N 0.7804 0.17119 0.80061 0.0
C420 C 0.82375 0.19183 0.78639 0.0
H421 H 0.82859 0.18848 0.85637 0.0
H422 H 0.83333 0.18667 0.73453 0.0
H423 H 0.8232 0.20658 0.77987 0.0
C424 C 0.8443 0.15181 0.04521 0.0
N425 N 0.8304 0.16313 0.05415 0.0
N426 N 0.82024 0.16196 0.98046 0.0
C427 C 0.82693 0.14924 0.92433 0.0
C428 C 0.84256 0.14265 0.96237 0.0
C429 C 0.85909 0.15017 0.11377 0.0
H430 H 0.86762 0.16226 0.10977 0.0
H431 H 0.86739 0.13817 0.10023 0.0
H432 H 0.85344 0.14953 0.18433 0.0
O433 O 0.79752 0.17724 0.17302 0.0
O434 O 0.78101 0.17416 0.048 0.0
H435 H 0.82233 0.12982 0.81671 0.0
H436 H 0.82445 0.15238 0.77855 0.0
C437 C 0.81896 0.14382 0.83398 0.0
H438 H 0.80425 0.14514 0.83621 0.0
H439 H 0.77009 0.16528 0.83813 0.0
O440 O 0.83278 0.17558 0.26976 0.0
C441 C 0.78241 0.17478 0.13541 0.0
Co442 Co 0.57211 0.07316 0.88782 0.0
Co443 Co 0.57301 0.05206 0.70437 0.0
C444 C 0.53928 0.06968 0.77959 0.0
O445 O 0.54738 0.07734 0.84553 0.0
O446 O 0.54767 0.05938 0.72505 0.0
C447 C 0.56275 0.07893 0.06493 0.0
O448 O 0.54786 0.07332 0.02699 0.0
C449 C 0.56713 0.05613 0.5117 0.0
C450 C 0.58298 0.03463 0.44733 0.0
C451 C 0.57287 0.04968 0.42806 0.0
N452 N 0.57372 0.04562 0.57831 0.0
N453 N 0.58287 0.03251 0.53965 0.0
C454 C 0.55797 0.07362 0.52852 0.0
H455 H 0.56145 0.07896 0.59737 0.0
H456 H 0.5617 0.08354 0.47507 0.0
H457 H 0.54332 0.0716 0.52498 0.0
C458 C 0.60054 0.09441 0.7936 0.0
N459 N 0.58879 0.0808 0.79851 0.0
N460 N 0.58968 0.07134 0.72226 0.0
C461 C 0.60242 0.07843 0.66735 0.0
C462 C 0.60962 0.09332 0.7103 0.0
C463 C 0.60289 0.10812 0.8674 0.0
H464 H 0.60464 0.10136 0.93481 0.0
H465 H 0.59061 0.11637 0.87182 0.0
H466 H 0.61454 0.11687 0.85337 0.0
O467 O 0.5756 0.04744 0.9146 0.0
O468 O 0.57827 0.03144 0.78738 0.0
H469 H 0.60751 0.05701 0.5729 0.0
H470 H 0.61993 0.07697 0.54795 0.0
C471 C 0.60699 0.07177 0.57294 0.0
H472 H 0.59671 0.0764 0.52375 0.0
H473 H 0.5899 0.0228 0.57625 0.0
O474 O 0.57566 0.08314 0.01229 0.0
C475 C 0.57822 0.03253 0.87504 0.0
Co476 Co 0.6788 0.82292 0.6472 0.0
Co477 Co 0.70008 0.82448 0.46453 0.0
C478 C 0.6823 0.79053 0.53698 0.0
O479 O 0.6745 0.79833 0.60337 0.0
O480 O 0.69266 0.79917 0.48387 0.0
C481 C 0.67362 0.81288 0.82306 0.0
O482 O 0.68039 0.7987 0.78309 0.0
C483 C 0.69485 0.8188 0.273 0.0
C484 C 0.71723 0.83267 0.20459 0.0
C485 C 0.70151 0.82344 0.18797 0.0
N486 N 0.70598 0.82506 0.33779 0.0
N487 N 0.71953 0.83311 0.29679 0.0
C488 C 0.67694 0.81071 0.29261 0.0
H489 H 0.67201 0.81484 0.36131 0.0
H490 H 0.6671 0.81464 0.2392 0.0
H491 H 0.67813 0.79596 0.29164 0.0
C492 C 0.65709 0.85106 0.5518 0.0
N493 N 0.67107 0.83979 0.55866 0.0
N494 N 0.68099 0.84121 0.48418 0.0
C495 C 0.674 0.85398 0.42933 0.0
C496 C 0.65846 0.86041 0.46925 0.0
C497 C 0.64264 0.85258 0.62239 0.0
H498 H 0.64861 0.85286 0.69229 0.0
H499 H 0.63394 0.84062 0.61814 0.0
H500 H 0.63443 0.86473 0.61122 0.0
O501 O 0.70467 0.82635 0.67354 0.0
O502 O 0.72079 0.8294 0.54681 0.0
H503 H 0.6963 0.85863 0.33951 0.0
H504 H 0.67772 0.87319 0.31913 0.0
C505 C 0.68155 0.8594 0.33795 0.0
H506 H 0.67627 0.85044 0.28372 0.0
H507 H 0.72986 0.83958 0.33157 0.0
O508 O 0.66888 0.82593 0.7724 0.0
C509 C 0.71962 0.82905 0.63442 0.0
Co510 Co 0.92961 0.92761 0.40764 0.0
Co511 Co 0.92986 0.94828 0.22218 0.0
C512 C 0.9625 0.92888 0.29697 0.0
O513 O 0.95407 0.92209 0.36427 0.0
O514 O 0.95463 0.93927 0.24076 0.0
C515 C 0.93919 0.92309 0.58281 0.0
O516 O 0.95433 0.92677 0.54158 0.0
C517 C 0.93424 0.94503 0.02733 0.0
C518 C 0.9215 0.96924 0.97042 0.0
C519 C 0.92942 0.9532 0.94579 0.0
N520 N 0.92896 0.95545 0.09727 0.0
N521 N 0.92156 0.97005 0.06322 0.0
C522 C 0.94386 0.92766 0.04012 0.0
H523 H 0.93762 0.91996 0.09692 0.0
H524 H 0.94411 0.91953 0.97648 0.0
H525 H 0.95786 0.9305 0.06029 0.0
C526 C 0.90032 0.90748 0.31277 0.0
N527 N 0.91246 0.92074 0.31846 0.0
N528 N 0.91201 0.9302 0.24203 0.0
C529 C 0.89907 0.92362 0.18687 0.0
C530 C 0.89138 0.90891 0.22916 0.0
C531 C 0.89777 0.8935 0.38504 0.0
H532 H 0.89664 0.89996 0.45356 0.0
H533 H 0.90971 0.88474 0.3866 0.0
H534 H 0.88572 0.8853 0.37128 0.0
O535 O 0.92766 0.95357 0.43471 0.0
O536 O 0.92659 0.96906 0.30501 0.0
H537 H 0.89566 0.94522 0.09128 0.0
H538 H 0.88131 0.92647 0.06954 0.0
C539 C 0.89481 0.93047 0.0925 0.0
H540 H 0.90442 0.92475 0.04271 0.0
H541 H 0.91606 0.98024 0.10314 0.0
O542 O 0.9259 0.91841 0.5338 0.0
C543 C 0.92647 0.96839 0.39261 0.0
Co544 Co 0.67956 0.6801 0.63691 0.0
Co545 Co 0.70103 0.67945 0.45469 0.0
C546 C 0.68247 0.71286 0.53006 0.0
O547 O 0.67474 0.70466 0.59547 0.0
O548 O 0.69303 0.70462 0.47611 0.0
C549 C 0.67442 0.6888 0.815 0.0
O550 O 0.67923 0.70409 0.77834 0.0
C551 C 0.69745 0.68501 0.26107 0.0
C552 C 0.72052 0.671 0.19984 0.0
C553 C 0.70487 0.67999 0.17793 0.0
N554 N 0.70798 0.67904 0.32916 0.0
N555 N 0.72197 0.67098 0.29246 0.0
C556 C 0.67935 0.69303 0.27628 0.0
H557 H 0.67422 0.68966 0.34573 0.0
H558 H 0.66975 0.68826 0.22353 0.0
H559 H 0.68034 0.70776 0.27048 0.0
C560 C 0.65887 0.65144 0.54083 0.0
N561 N 0.67244 0.66321 0.54709 0.0
N562 N 0.68214 0.66237 0.47162 0.0
C563 C 0.67535 0.64956 0.41622 0.0
C564 C 0.66029 0.64235 0.45767 0.0
C565 C 0.64473 0.64923 0.61255 0.0
H566 H 0.65099 0.64856 0.68169 0.0
H567 H 0.63585 0.66109 0.6114 0.0
H568 H 0.63664 0.63704 0.60018 0.0
O569 O 0.70532 0.67762 0.66444 0.0
O570 O 0.72152 0.6745 0.53833 0.0
H571 H 0.69724 0.6454 0.32319 0.0
H572 H 0.67816 0.63152 0.30004 0.0
C573 C 0.68247 0.64494 0.32279 0.0
H574 H 0.67727 0.65461 0.27176 0.0
H575 H 0.73198 0.66469 0.33045 0.0
O576 O 0.67008 0.67605 0.76165 0.0
C577 C 0.72033 0.67514 0.62582 0.0
Co578 Co 0.57217 0.42787 0.89921 0.0
Co579 Co 0.5721 0.44961 0.7176 0.0
C580 C 0.53918 0.43028 0.79454 0.0
O581 O 0.54759 0.42251 0.85906 0.0
O582 O 0.5472 0.44108 0.74097 0.0
C583 C 0.56382 0.4209 0.07835 0.0
O584 O 0.54813 0.42478 0.04337 0.0
C585 C 0.56608 0.44491 0.52547 0.0
C586 C 0.5804 0.46728 0.45951 0.0
C587 C 0.57143 0.45146 0.441 0.0
N588 N 0.57196 0.45603 0.59126 0.0
N589 N 0.58014 0.46966 0.55162 0.0
C590 C 0.55802 0.42697 0.54469 0.0
H591 H 0.56236 0.42193 0.61286 0.0
H592 H 0.56179 0.41714 0.49094 0.0
H593 H 0.54326 0.42827 0.54532 0.0
C594 C 0.60097 0.40777 0.80071 0.0
N595 N 0.58904 0.42118 0.8084 0.0
N596 N 0.58966 0.43108 0.7336 0.0
C597 C 0.60246 0.42457 0.67719 0.0
C598 C 0.60992 0.4095 0.71726 0.0
C599 C 0.60344 0.39346 0.87133 0.0
H600 H 0.59157 0.3846 0.87084 0.0
H601 H 0.61559 0.38542 0.85733 0.0
H602 H 0.60435 0.39957 0.94076 0.0
O603 O 0.57402 0.45378 0.92584 0.0
O604 O 0.57662 0.47037 0.80082 0.0
H605 H 0.62011 0.42777 0.55941 0.0
H606 H 0.59701 0.42648 0.53319 0.0
C607 C 0.60671 0.43183 0.58358 0.0
H608 H 0.60608 0.44658 0.58444 0.0
H609 H 0.58651 0.4799 0.58745 0.0
O610 O 0.57678 0.41817 0.02345 0.0
C611 C 0.57593 0.46899 0.8883 0.0
Co612 Co 0.82378 0.3228 0.15179 0.0
Co613 Co 0.80242 0.32409 0.96918 0.0
C614 C 0.82018 0.29022 0.04308 0.0
O615 O 0.82795 0.2981 0.10939 0.0
O616 O 0.80989 0.2988 0.98934 0.0
C617 C 0.82945 0.31358 0.32919 0.0
O618 O 0.82368 0.29872 0.29161 0.0
C619 C 0.80705 0.31857 0.77672 0.0
C620 C 0.785 0.33343 0.71117 0.0
C621 C 0.8005 0.32395 0.69273 0.0
N622 N 0.79617 0.32475 0.84282 0.0
N623 N 0.78276 0.33334 0.80344 0.0
C624 C 0.82478 0.30993 0.79427 0.0
H625 H 0.82977 0.31326 0.86399 0.0
H626 H 0.83473 0.31422 0.74211 0.0
H627 H 0.82327 0.29524 0.78883 0.0
C628 C 0.8455 0.35066 0.05517 0.0
N629 N 0.83146 0.33947 0.06224 0.0
N630 N 0.8216 0.34079 0.98754 0.0
C631 C 0.82873 0.35341 0.93215 0.0
C632 C 0.84426 0.35984 0.97212 0.0
C633 C 0.85984 0.35228 0.12623 0.0
H634 H 0.86814 0.34001 0.1252 0.0
H635 H 0.86847 0.36407 0.11314 0.0
H636 H 0.85372 0.35333 0.1956 0.0
O637 O 0.79798 0.32615 0.17877 0.0
O638 O 0.7818 0.32905 0.05224 0.0
H639 H 0.80659 0.35818 0.84157 0.0
H640 H 0.82542 0.37236 0.82041 0.0
C641 C 0.82135 0.3587 0.84025 0.0
H642 H 0.82654 0.34951 0.78684 0.0
H643 H 0.77269 0.33994 0.83951 0.0
O644 O 0.83377 0.3264 0.27624 0.0
C645 C 0.783 0.32875 0.13984 0.0
Co646 Co 0.92807 0.57148 0.38636 0.0
Co647 Co 0.92743 0.55027 0.20105 0.0
C648 C 0.96132 0.56695 0.28361 0.0
O649 O 0.95327 0.57492 0.34911 0.0
O650 O 0.95278 0.55726 0.22633 0.0
C651 C 0.93453 0.57956 0.56816 0.0
O652 O 0.95104 0.57693 0.54097 0.0
C653 C 0.93467 0.54835 0.00432 0.0
C654 C 0.9098 0.53622 0.95323 0.0
C655 C 0.92466 0.54583 0.92433 0.0
N656 N 0.92539 0.54199 0.07647 0.0
N657 N 0.91095 0.53394 0.04496 0.0
C658 C 0.95294 0.55617 0.01353 0.0
H659 H 0.96046 0.54856 0.06571 0.0
H660 H 0.95195 0.57025 0.03676 0.0
H661 H 0.9605 0.55528 0.94801 0.0
C662 C 0.90084 0.59334 0.29001 0.0
N663 N 0.9121 0.5793 0.29433 0.0
N664 N 0.91176 0.57058 0.21562 0.0
C665 C 0.90026 0.57905 0.15852 0.0
C666 C 0.89284 0.59353 0.20386 0.0
C667 C 0.89793 0.6062 0.36727 0.0
H668 H 0.9109 0.61227 0.38694 0.0
H669 H 0.8883 0.61683 0.34823 0.0
H670 H 0.89284 0.59884 0.42816 0.0
O671 O 0.92506 0.54599 0.4145 0.0
O672 O 0.9215 0.53025 0.28735 0.0
H673 H 0.88956 0.58501 0.02289 0.0
H674 H 0.91066 0.57405 0.02454 0.0
C675 C 0.89756 0.57472 0.05905 0.0
H676 H 0.89047 0.56181 0.05321 0.0
H677 H 0.90099 0.52856 0.08678 0.0
O678 O 0.92245 0.58158 0.50781 0.0
C679 C 0.92229 0.53117 0.37487 0.0
Co680 Co 0.67892 0.32219 0.36209 0.0
Co681 Co 0.69998 0.32434 0.54521 0.0
C682 C 0.68164 0.29035 0.47755 0.0
O683 O 0.674 0.29808 0.41046 0.0
O684 O 0.69222 0.29895 0.5298 0.0
C685 C 0.67746 0.31134 0.18925 0.0
O686 O 0.68343 0.29768 0.23666 0.0
C687 C 0.69604 0.32075 0.74016 0.0
C688 C 0.72128 0.331 0.79818 0.0
C689 C 0.70469 0.32418 0.82181 0.0
N690 N 0.70673 0.32568 0.6706 0.0
N691 N 0.72189 0.33172 0.70534 0.0
C692 C 0.67796 0.31254 0.7282 0.0
H693 H 0.67277 0.31499 0.65783 0.0
H694 H 0.66845 0.31797 0.77964 0.0
H695 H 0.67897 0.29793 0.73969 0.0
C696 C 0.65775 0.35157 0.45257 0.0
N697 N 0.67143 0.33986 0.44777 0.0
N698 N 0.68111 0.34124 0.52319 0.0
C699 C 0.67431 0.35437 0.57636 0.0
C700 C 0.65918 0.3612 0.53414 0.0
C701 C 0.64328 0.35307 0.38223 0.0
H702 H 0.64813 0.34848 0.31405 0.0
H703 H 0.63192 0.34447 0.40332 0.0
H704 H 0.63841 0.36704 0.37773 0.0
O705 O 0.70481 0.32492 0.33627 0.0
O706 O 0.72065 0.32881 0.46262 0.0
H707 H 0.6962 0.35844 0.66988 0.0
H708 H 0.67782 0.37344 0.68758 0.0
C709 C 0.68147 0.35961 0.66889 0.0
H710 H 0.67561 0.3508 0.72217 0.0
H711 H 0.73255 0.33642 0.66593 0.0
O712 O 0.67039 0.32426 0.23334 0.0
C713 C 0.71971 0.32775 0.37524 0.0
Co714 Co 0.92933 0.428 0.59841 0.0
Co715 Co 0.92953 0.44945 0.79027 0.0
C716 C 0.96279 0.43239 0.70669 0.0
O717 O 0.95471 0.42615 0.6364 0.0
O718 O 0.95441 0.44126 0.7678 0.0
C719 C 0.92308 0.41022 0.40042 0.0
O720 O 0.92002 0.39385 0.37196 0.0
C721 C 0.93357 0.44647 0.99242 0.0
C722 C 0.92042 0.47051 0.04679 0.0
C723 C 0.92846 0.45469 0.07434 0.0
N724 N 0.92887 0.45684 0.92024 0.0
N725 N 0.92136 0.47145 0.95381 0.0
C726 C 0.94158 0.42826 0.98294 0.0
H727 H 0.95605 0.42906 -0.00118 0.0
H728 H 0.93991 0.42314 0.91179 0.0
H729 H 0.93544 0.41884 0.03276 0.0
C730 C 0.90258 0.40665 0.704 0.0
N731 N 0.914 0.42053 0.69652 0.0
N732 N 0.91308 0.43021 0.77215 0.0
C733 C 0.90041 0.42324 0.82769 0.0
C734 C 0.89364 0.40789 0.78766 0.0
C735 C 0.89998 0.39279 0.63111 0.0
H736 H 0.89504 0.39932 0.56743 0.0
H737 H 0.91302 0.3865 0.61481 0.0
H738 H 0.89028 0.38242 0.65285 0.0
O739 O 0.9243 0.45298 0.56662 0.0
O740 O 0.92444 0.46895 0.69657 0.0
H741 H 0.89668 0.4454 0.91962 0.0
H742 H 0.88114 0.42751 0.93671 0.0
C743 C 0.89515 0.43072 0.91913 0.0
H744 H 0.90369 0.42459 0.97246 0.0
H745 H 0.91589 0.48156 0.91324 0.0
O746 O 0.92537 0.41255 0.48684 0.0
C747 C 0.92277 0.46783 0.60868 0.0
Co748 Co 0.82387 0.68054 0.8501 0.0
Co749 Co 0.80268 0.6793 0.0332 0.0
C750 C 0.82137 0.71286 0.963 0.0
O751 O 0.82872 0.70473 0.89642 0.0
O752 O 0.81072 0.70467 0.01678 0.0
C753 C 0.82558 0.69106 0.67702 0.0
O754 O 0.82011 0.70508 0.72322 0.0
C755 C 0.80649 0.68306 0.22775 0.0
C756 C 0.78162 0.67192 0.28594 0.0
C757 C 0.79803 0.67917 0.30962 0.0
N758 N 0.79584 0.678 0.15836 0.0
N759 N 0.78091 0.67143 0.19313 0.0
C760 C 0.8242 0.69202 0.21463 0.0
H761 H 0.82213 0.70669 0.21359 0.0
H762 H 0.83023 0.68801 0.14801 0.0
H763 H 0.83353 0.68887 0.27149 0.0
C764 C 0.84525 0.65197 0.9444 0.0
N765 N 0.8314 0.66342 0.93764 0.0
N766 N 0.82157 0.66223 0.01267 0.0
C767 C 0.82843 0.64936 0.06733 0.0
C768 C 0.84377 0.64268 0.0268 0.0
C769 C 0.85988 0.6503 0.87505 0.0
H770 H 0.8564 0.65745 0.81064 0.0
H771 H 0.87231 0.65608 0.90404 0.0
H772 H 0.86248 0.63599 0.86037 0.0
O773 O 0.79808 0.67736 0.82466 0.0
O774 O 0.7819 0.67484 0.95099 0.0
H775 H 0.8062 0.64497 0.15832 0.0
H776 H 0.82463 0.62994 0.17597 0.0
C777 C 0.82094 0.64387 0.15867 0.0
H778 H 0.82657 0.65254 0.21318 0.0
H779 H 0.77039 0.66642 0.15378 0.0
O780 O 0.83243 0.6781 0.72167 0.0
C781 C 0.7831 0.67494 0.86355 0.0
Co782 Co 0.57266 0.57363 0.10657 0.0
Co783 Co 0.57327 0.55292 0.29065 0.0
C784 C 0.53993 0.57141 0.21663 0.0
O785 O 0.54802 0.57852 0.14893 0.0
O786 O 0.54822 0.56117 0.27186 0.0
C787 C 0.56391 0.57931 0.92936 0.0
O788 O 0.54861 0.57445 0.9657 0.0
C789 C 0.56817 0.55653 0.48408 0.0
C790 C 0.58221 0.53344 0.54481 0.0
C791 C 0.57323 0.54907 0.56688 0.0
N792 N 0.57405 0.54601 0.41583 0.0
N793 N 0.58215 0.53201 0.45218 0.0
C794 C 0.56022 0.57468 0.46943 0.0
H795 H 0.5455 0.57379 0.47583 0.0
H796 H 0.56355 0.57985 0.40001 0.0
H797 H 0.56511 0.58421 0.52223 0.0
C798 C 0.60161 0.59437 0.19986 0.0
N799 N 0.58969 0.58091 0.19539 0.0
N800 N 0.59052 0.5715 0.27179 0.0
C801 C 0.60346 0.57837 0.3261 0.0
C802 C 0.61079 0.59318 0.28287 0.0
C803 C 0.60393 0.60813 0.12627 0.0
H804 H 0.60616 0.60139 0.05919 0.0
H805 H 0.59146 0.61605 0.12022 0.0
H806 H 0.6153 0.61717 0.14145 0.0
O807 O 0.57514 0.54778 0.07802 0.0
O808 O 0.57747 0.53235 0.20727 0.0
H809 H 0.62155 0.57595 0.44233 0.0
H810 H 0.59847 0.57691 0.47077 0.0
C811 C 0.60812 0.57156 0.42009 0.0
H812 H 0.60767 0.55679 0.42095 0.0
H813 H 0.58838 0.522 0.41394 0.0
O814 O 0.57666 0.58348 0.98297 0.0
C815 C 0.57712 0.53298 0.11959 0.0
Co816 Co 0.32473 0.32256 0.34786 0.0
Co817 Co 0.30406 0.32221 0.53211 0.0
C818 C 0.32324 0.28949 0.4552 0.0
O819 O 0.33002 0.29794 0.38794 0.0
O820 O 0.31288 0.29735 0.51166 0.0
C821 C 0.33154 0.31425 0.17021 0.0
O822 O 0.32778 0.29855 0.20537 0.0
C823 C 0.30806 0.31717 0.725 0.0
C824 C 0.28467 0.33055 0.78678 0.0
C825 C 0.30063 0.3221 0.80822 0.0
N826 N 0.29721 0.32265 0.65731 0.0
N827 N 0.28304 0.33035 0.69426 0.0
C828 C 0.32632 0.30958 0.70892 0.0
H829 H 0.33143 0.31349 0.64019 0.0
H830 H 0.33582 0.31417 0.76256 0.0
H831 H 0.32555 0.2948 0.71169 0.0
C832 C 0.34551 0.35091 0.44547 0.0
N833 N 0.33191 0.33918 0.43866 0.0
N834 N 0.32231 0.33981 0.51447 0.0
C835 C 0.32907 0.35256 0.57018 0.0
C836 C 0.34411 0.35978 0.52916 0.0
C837 C 0.35954 0.35336 0.37338 0.0
H838 H 0.35362 0.36055 0.31395 0.0
H839 H 0.3641 0.34012 0.34833 0.0
H840 H 0.37104 0.36114 0.40009 0.0
O841 O 0.29878 0.32478 0.31976 0.0
O842 O 0.28342 0.32632 0.44957 0.0
H843 H 0.30689 0.35656 0.66171 0.0
H844 H 0.3253 0.37158 0.68046 0.0
C845 C 0.32162 0.35769 0.66213 0.0
H846 H 0.32725 0.34882 0.7158 0.0
H847 H 0.27277 0.33626 0.65646 0.0
O848 O 0.33461 0.32716 0.22475 0.0
C849 C 0.28397 0.32634 0.36189 0.0
Co850 Co 0.43008 0.57461 0.10373 0.0
Co851 Co 0.42863 0.55303 0.28593 0.0
C852 C 0.4623 0.57187 0.21625 0.0
O853 O 0.45438 0.57949 0.14968 0.0
O854 O 0.45388 0.56122 0.26901 0.0
C855 C 0.44019 0.57619 0.93016 0.0
O856 O 0.45431 0.5708 0.97576 0.0
C857 C 0.43167 0.55712 0.48132 0.0
C858 C 0.42204 0.53156 0.5385 0.0
C859 C 0.42821 0.54837 0.56293 0.0
N860 N 0.42739 0.54624 0.4114 0.0
N861 N 0.42169 0.53091 0.44566 0.0
C862 C 0.43951 0.57538 0.46945 0.0
H863 H 0.43873 0.57975 0.39668 0.0
H864 H 0.43242 0.58522 0.51309 0.0
H865 H 0.45369 0.57515 0.49161 0.0
C866 C 0.40132 0.59568 0.19963 0.0
N867 N 0.41281 0.58188 0.1917 0.0
N868 N 0.41141 0.57169 0.26534 0.0
C869 C 0.39831 0.57819 0.31973 0.0
C870 C 0.39175 0.59375 0.28102 0.0
C871 C 0.39989 0.6107 0.13242 0.0
H872 H 0.40781 0.60788 0.06954 0.0
H873 H 0.40489 0.62313 0.16506 0.0
H874 H 0.38566 0.6129 0.11417 0.0
O875 O 0.42721 0.54875 0.07747 0.0
O876 O 0.42455 0.53235 0.20305 0.0
H877 H 0.39422 0.55541 0.40758 0.0
H878 H 0.37811 0.57295 0.42255 0.0
C879 C 0.39237 0.57007 0.40886 0.0
H880 H 0.40013 0.57597 0.46619 0.0
H881 H 0.41745 0.52011 0.40591 0.0
O882 O 0.42734 0.58313 0.97532 0.0
C883 C 0.42489 0.5337 0.11568 0.0
Co884 Co 0.1749 0.67915 0.82983 0.0
Co885 Co 0.19548 0.68072 0.0156 0.0
C886 C 0.17669 0.71303 0.93175 0.0
O887 O 0.17004 0.70421 0.86533 0.0
O888 O 0.18678 0.70543 0.99036 0.0
C889 C 0.16454 0.68681 0.65089 0.0
O890 O 0.16449 0.70302 0.68513 0.0
C891 C 0.19093 0.68684 0.20798 0.0
C892 C 0.21334 0.67244 0.27305 0.0
C893 C 0.19756 0.6814 0.29207 0.0
N894 N 0.202 0.68106 0.14179 0.0
N895 N 0.21567 0.67285 0.18091 0.0
C896 C 0.17297 0.69492 0.18957 0.0
H897 H 0.16786 0.69066 0.12138 0.0
H898 H 0.1632 0.69111 0.24358 0.0
H899 H 0.17426 0.70968 0.1894 0.0
C900 C 0.15397 0.65148 0.93276 0.0
N901 N 0.16756 0.6632 0.92406 0.0
N902 N 0.17713 0.66305 7e-05 0.0
C903 C 0.17035 0.65064 0.05787 0.0
C904 C 0.15528 0.64316 0.01817 0.0
C905 C 0.14004 0.64849 0.86071 0.0
H906 H 0.13196 0.66082 0.85298 0.0
H907 H 0.13117 0.63716 0.87882 0.0
H908 H 0.14661 0.64587 0.79356 0.0
O909 O 0.20088 0.67651 0.80395 0.0
O910 O 0.21628 0.67602 0.93393 0.0
H911 H 0.1741 0.63269 0.17356 0.0
H912 H 0.17195 0.65569 0.20247 0.0
C913 C 0.17767 0.64635 0.15126 0.0
H914 H 0.19239 0.64741 0.15075 0.0
H915 H 0.22586 0.66647 0.14464 0.0
O916 O 0.16506 0.67371 0.70646 0.0
C917 C 0.21569 0.67518 0.84625 0.0
Co918 Co 0.07361 0.42825 0.60125 0.0
Co919 Co 0.07434 0.44927 0.78491 0.0
C920 C 0.04059 0.43193 0.70709 0.0
O921 O 0.04872 0.42431 0.64116 0.0
O922 O 0.04899 0.44203 0.76265 0.0
C923 C 0.06452 0.42111 0.42323 0.0
O924 O 0.04904 0.4254 0.45946 0.0
C925 C 0.06876 0.4445 0.97723 0.0
C926 C 0.08351 0.46662 0.04288 0.0
C927 C 0.07415 0.45105 0.06123 0.0
N928 N 0.07483 0.45546 0.91124 0.0
N929 N 0.08334 0.46891 0.95066 0.0
C930 C 0.06037 0.42667 0.95957 0.0
H931 H 0.04575 0.42772 0.97025 0.0
H932 H 0.06298 0.42213 0.88821 0.0
H933 H 0.06555 0.41657 0.00874 0.0
C934 C 0.10125 0.40641 0.69845 0.0
N935 N 0.08992 0.42034 0.69185 0.0
N936 N 0.09103 0.43005 0.76715 0.0
C937 C 0.10366 0.42294 0.82253 0.0
C938 C 0.11032 0.40757 0.7818 0.0
C939 C 0.10323 0.39234 0.62619 0.0
H940 H 0.10497 0.39874 0.55788 0.0
H941 H 0.09082 0.38427 0.62345 0.0
H942 H 0.11477 0.38346 0.64072 0.0
O943 O 0.07731 0.45405 0.57545 0.0
O944 O 0.07979 0.46994 0.70318 0.0
H945 H 0.1083 0.44502 0.91364 0.0
H946 H 0.12261 0.42627 0.93421 0.0
C947 C 0.10892 0.43027 0.91458 0.0
H948 H 0.09977 0.42497 0.96793 0.0
H949 H 0.08988 0.47903 0.91463 0.0
O950 O 0.07758 0.41821 0.47718 0.0
C951 C 0.07988 0.46892 0.61553 0.0
Co952 Co 0.32256 0.67707 0.65741 0.0
Co953 Co 0.30375 0.6808 0.46653 0.0
C954 C 0.32296 0.71173 0.56113 0.0
O955 O 0.32777 0.70236 0.62985 0.0
O956 O 0.31377 0.70508 0.49552 0.0
C957 C 0.33629 0.68166 0.83642 0.0
O958 O 0.34057 0.69774 0.80817 0.0
C959 C 0.30412 0.68892 0.27144 0.0
C960 C 0.28866 0.66647 0.21437 0.0
C961 C 0.30055 0.67988 0.19007 0.0
N962 N 0.29603 0.68033 0.34103 0.0
N963 N 0.2861 0.66743 0.30606 0.0
C964 C 0.31486 0.70551 0.28406 0.0
H965 H 0.30725 0.71496 0.32779 0.0
H966 H 0.32745 0.70212 0.32032 0.0
H967 H 0.31779 0.71211 0.21733 0.0
C968 C 0.34344 0.64959 0.55639 0.0
N969 N 0.33017 0.66175 0.56165 0.0
N970 N 0.322 0.6628 0.48161 0.0
C971 C 0.32979 0.65105 0.4233 0.0
C972 C 0.34352 0.6423 0.46853 0.0
C973 C 0.35574 0.64523 0.63421 0.0
H974 H 0.34785 0.63973 0.69232 0.0
H975 H 0.36224 0.65765 0.65888 0.0
H976 H 0.36606 0.63538 0.61345 0.0
O977 O 0.29665 0.67518 0.68088 0.0
O978 O 0.28251 0.67647 0.54758 0.0
H979 H 0.3116 0.64399 0.31643 0.0
H980 H 0.33454 0.63985 0.28728 0.0
C981 C 0.32539 0.6491 0.3235 0.0
H982 H 0.32665 0.66222 0.29004 0.0
H983 H 0.27903 0.65818 0.3455 0.0
O984 O 0.33218 0.66988 0.77739 0.0
C985 C 0.28223 0.67502 0.635 0.0
Co986 Co 0.07171 0.57316 0.39421 0.0
Co987 Co 0.07362 0.55151 0.21263 0.0
C988 C 0.03918 0.56808 0.28871 0.0
O989 O 0.04672 0.57658 0.35367 0.0
O990 O 0.04823 0.55812 0.23526 0.0
C991 C 0.06292 0.57828 0.57286 0.0
O992 O 0.04773 0.57297 0.53703 0.0
C993 C 0.06779 0.55514 0.01938 0.0
C994 C 0.08261 0.53275 0.95674 0.0
C995 C 0.07308 0.54812 0.93572 0.0
N996 N 0.07413 0.54468 0.08682 0.0
N997 N 0.08268 0.53106 0.04926 0.0
C998 C 0.05899 0.57283 0.03594 0.0
H999 H 0.06249 0.57809 0.10491 0.0
H1000 H 0.06296 0.58267 0.98262 0.0
H1001 H 0.04429 0.57107 0.03285 0.0
C1002 C 0.09892 0.5955 0.29432 0.0
N1003 N 0.08809 0.58119 0.30305 0.0
N1004 N 0.08964 0.57116 0.22907 0.0
C1005 C 0.10205 0.57837 0.17282 0.0
C1006 C 0.1081 0.59419 0.21117 0.0
C1007 C 0.10023 0.61016 0.3638 0.0
H1008 H 0.10099 0.60437 0.43402 0.0
H1009 H 0.08795 0.61843 0.36032 0.0
H1010 H 0.11204 0.61875 0.35078 0.0
O1011 O 0.07565 0.54743 0.42256 0.0
O1012 O 0.07964 0.53151 0.29615 0.0
H1013 H 0.10716 0.55594 0.08458 0.0
H1014 H 0.12119 0.57483 0.06216 0.0
C1015 C 0.10754 0.57069 0.08185 0.0
H1016 H 0.09837 0.57558 0.02755 0.0
H1017 H 0.08934 0.52121 0.08662 0.0
O1018 O 0.07546 0.58294 0.51879 0.0
C1019 C 0.07896 0.53259 0.38364 0.0
Co1020 Co 0.17837 0.32135 0.14576 0.0
Co1021 Co 0.19993 0.32193 0.96411 0.0
C1022 C 0.18091 0.28864 0.03947 0.0
O1023 O 0.17323 0.29679 0.1052 0.0
O1024 O 0.19155 0.29689 0.98595 0.0
C1025 C 0.17147 0.31306 0.32478 0.0
O1026 O 0.17573 0.29741 0.29043 0.0
C1027 C 0.19469 0.31671 0.77198 0.0
C1028 C 0.21759 0.33009 0.7057 0.0
C1029 C 0.20145 0.3217 0.68755 0.0
N1030 N 0.20606 0.32213 0.83762 0.0
N1031 N 0.21996 0.32981 0.79783 0.0
C1032 C 0.17645 0.3093 0.79079 0.0
H1033 H 0.17681 0.29458 0.78291 0.0
H1034 H 0.17206 0.31252 0.86172 0.0
H1035 H 0.16659 0.31467 0.74089 0.0
C1036 C 0.15753 0.34965 0.04815 0.0
N1037 N 0.17132 0.33816 0.05584 0.0
N1038 N 0.18136 0.33931 0.9818 0.0
C1039 C 0.17466 0.35214 0.92627 0.0
C1040 C 0.15915 0.35886 0.96537 0.0
C1041 C 0.14304 0.35149 0.11833 0.0
H1042 H 0.13479 0.33918 0.11824 0.0
H1043 H 0.13441 0.3632 0.10377 0.0
H1044 H 0.14904 0.35282 0.18783 0.0
O1045 O 0.20433 0.32346 0.17196 0.0
O1046 O 0.22076 0.32638 0.04652 0.0
H1047 H 0.19711 0.35592 0.83626 0.0
H1048 H 0.17926 0.37144 0.81773 0.0
C1049 C 0.18243 0.35742 0.83517 0.0
H1050 H 0.17663 0.34892 0.78033 0.0
H1051 H 0.23049 0.33573 0.83354 0.0
O1052 O 0.16854 0.32589 0.26946 0.0
C1053 C 0.21949 0.32557 0.134 0.0
Co1054 Co 0.42793 0.43016 0.89316 0.0
Co1055 Co 0.42898 0.45087 0.70655 0.0
C1056 C 0.46148 0.4317 0.78786 0.0
O1057 O 0.45272 0.4251 0.85491 0.0
O1058 O 0.45392 0.44191 0.72913 0.0
C1059 C 0.43441 0.42203 0.07456 0.0
O1060 O 0.45095 0.42378 0.04605 0.0
C1061 C 0.43626 0.45361 0.51011 0.0
C1062 C 0.41125 0.46568 0.46043 0.0
C1063 C 0.42621 0.45638 0.43048 0.0
N1064 N 0.42691 0.45954 0.5829 0.0
N1065 N 0.41239 0.46757 0.55236 0.0
C1066 C 0.45469 0.44614 0.51839 0.0
H1067 H 0.46212 0.45389 0.57069 0.0
H1068 H 0.454 0.43202 0.54144 0.0
H1069 H 0.46209 0.44715 0.45242 0.0
C1070 C 0.39975 0.40961 0.79701 0.0
N1071 N 0.41154 0.42319 0.80145 0.0
N1072 N 0.41202 0.43157 0.72176 0.0
C1073 C 0.40054 0.42329 0.66381 0.0
C1074 C 0.39224 0.40936 0.70971 0.0
C1075 C 0.39621 0.39694 0.87444 0.0
H1076 H 0.39226 0.40461 0.93655 0.0
H1077 H 0.4087 0.38966 0.89128 0.0
H1078 H 0.38554 0.38725 0.85682 0.0
O1079 O 0.4264 0.45573 0.92104 0.0
O1080 O 0.42448 0.47134 0.79265 0.0
H1081 H 0.39165 0.4396 0.55261 0.0
H1082 H 0.39159 0.41622 0.52637 0.0
C1083 C 0.39896 0.42692 0.56292 0.0
H1084 H 0.41242 0.4277 0.53231 0.0
H1085 H 0.40238 0.47267 0.59482 0.0
O1086 O 0.42208 0.42046 0.01518 0.0
C1087 C 0.42482 0.47059 0.88024 0.0
C1088 C 0.17026 0.25921 0.10082 0.0
C1089 C 0.17879 0.26896 0.03048 0.0
C1090 C 0.17021 0.2405 0.1009 0.0
C1091 C 0.17869 0.23069 0.03064 0.0
H1092 H 0.16415 0.26604 0.15855 0.0
H1093 H 0.16408 0.23372 0.15871 0.0
S1094 S 0.20072 0.24974 0.82333 0.0
N1095 N 0.19433 0.26731 0.88341 0.0
N1096 N 0.19423 0.23222 0.88353 0.0
C1097 C 0.18631 0.24026 0.95687 0.0
C1098 C 0.18637 0.25934 0.9568 0.0
C1099 C 0.01052 0.93715 0.22586 0.0
C1100 C 0.0205 0.9274 0.29093 0.0
C1101 C 0.99184 0.93668 0.22512 0.0
C1102 C 0.9822 0.92655 0.28992 0.0
H1103 H 0.0171 0.94587 0.17708 0.0
H1104 H 0.98494 0.945 0.17556 0.0
S1105 S 0.00183 0.89689 0.46834 0.0
N1106 N 0.01925 0.90593 0.41671 0.0
N1107 N 0.98413 0.90519 0.41592 0.0
C1108 C 0.99197 0.91593 0.35223 0.0
C1109 C 0.01108 0.91634 0.35268 0.0
C1110 C 0.32276 0.75962 0.64407 0.0
C1111 C 0.32624 0.76928 0.56291 0.0
C1112 C 0.32271 0.74088 0.64408 0.0
C1113 C 0.32613 0.73121 0.56294 0.0
H1114 H 0.31913 0.76657 0.7068 0.0
H1115 H 0.31903 0.73396 0.70681 0.0
S1116 S 0.34018 0.7502 0.33874 0.0
N1117 N 0.33614 0.76779 0.40401 0.0
N1118 N 0.33603 0.73263 0.40403 0.0
C1119 C 0.331 0.74071 0.48353 0.0
C1120 C 0.33106 0.75975 0.48352 0.0
C1121 C 0.49123 0.08092 0.84055 0.0
C1122 C 0.48126 0.07186 0.77288 0.0
C1123 C 0.50994 0.08079 0.83971 0.0
C1124 C 0.51955 0.07158 0.77123 0.0
H1125 H 0.48459 0.08764 0.89701 0.0
H1126 H 0.51686 0.08746 0.89543 0.0
S1127 S 0.49988 0.04766 0.57115 0.0
N1128 N 0.48248 0.0549 0.63 0.0
N1129 N 0.51758 0.05451 0.62881 0.0
C1130 C 0.50977 0.06331 0.70008 0.0
C1131 C 0.49067 0.06349 0.70079 0.0
C1132 C 0.1829 0.74253 0.00638 0.0
C1133 C 0.17411 0.73273 0.93711 0.0
C1134 C 0.18291 0.76123 0.00632 0.0
C1135 C 0.17415 0.77104 0.93699 0.0
H1136 H 0.19042 0.73576 0.05965 0.0
H1137 H 0.19045 0.768 0.05953 0.0
S1138 S 0.1469 0.75189 0.74731 0.0
N1139 N 0.15471 0.73434 0.80286 0.0
N1140 N 0.15475 0.76944 0.80271 0.0
C1141 C 0.1643 0.76144 0.87072 0.0
C1142 C 0.16429 0.74234 0.87079 0.0
C1143 C 0.51055 0.92068 0.14957 0.0
C1144 C 0.52037 0.92954 0.21844 0.0
C1145 C 0.49184 0.92047 0.15062 0.0
C1146 C 0.48211 0.92914 0.22054 0.0
H1147 H 0.5173 0.91436 0.09221 0.0
H1148 H 0.48501 0.91401 0.09398 0.0
S1149 S 0.50139 0.95229 0.42391 0.0
N1150 N 0.51889 0.94574 0.3637 0.0
N1151 N 0.4838 0.94542 0.36545 0.0
C1152 C 0.49175 0.9372 0.29273 0.0
C1153 C 0.51083 0.93739 0.29174 0.0
C1154 C 0.31664 0.24157 0.53327 0.0
C1155 C 0.32577 0.23158 0.46595 0.0
C1156 C 0.3167 0.26027 0.53198 0.0
C1157 C 0.32589 0.26985 0.46329 0.0
H1158 H 0.30874 0.23495 0.5856 0.0
H1159 H 0.30884 0.26721 0.58339 0.0
S1160 S 0.35424 0.25015 0.27941 0.0
N1161 N 0.34602 0.23276 0.33482 0.0
N1162 N 0.34611 0.26787 0.33231 0.0
C1163 C 0.33613 0.26006 0.39935 0.0
C1164 C 0.33608 0.24097 0.4007 0.0
C1165 C 0.99031 0.07917 0.62802 0.0
C1166 C 0.9811 0.07639 0.71153 0.0
C1167 C 0.00904 0.07948 0.62466 0.0
C1168 C 0.01934 0.0769 0.70459 0.0
H1169 H 0.98306 0.08028 0.56376 0.0
H1170 H 0.01545 0.08082 0.55815 0.0
S1171 S 0.00187 0.07266 0.94262 0.0
N1172 N 0.98388 0.07396 0.87747 0.0
N1173 N 0.01894 0.0737 0.871 0.0
C1174 C 0.01033 0.07526 0.7891 0.0
C1175 C 0.99127 0.07521 0.79259 0.0
C1176 C 0.81321 0.74217 0.03513 0.0
C1177 C 0.82375 0.73251 0.97214 0.0
C1178 C 0.81314 0.76088 0.03566 0.0
C1179 C 0.82361 0.77077 0.97319 0.0
H1180 H 0.80435 0.73527 0.08215 0.0
H1181 H 0.80424 0.7676 0.08316 0.0
S1182 S 0.85566 0.75197 0.80358 0.0
N1183 N 0.8465 0.73433 0.85256 0.0
N1184 N 0.84635 0.76942 0.85353 0.0
C1185 C 0.83512 0.7613 0.91402 0.0
C1186 C 0.8352 0.74222 0.91351 0.0
C1187 C 0.67072 0.26081 0.42011 0.0
C1188 C 0.6797 0.27069 0.48835 0.0
C1189 C 0.67089 0.24212 0.42025 0.0
C1190 C 0.68005 0.23242 0.48861 0.0
H1191 H 0.66408 0.2675 0.36358 0.0
H1192 H 0.66436 0.23528 0.36383 0.0
S1193 S 0.70343 0.25181 0.69093 0.0
N1194 N 0.69638 0.2693 0.63215 0.0
N1195 N 0.6967 0.23417 0.63235 0.0
C1196 C 0.68811 0.24209 0.56072 0.0
C1197 C 0.68794 0.26119 0.56061 0.0
C1198 C 0.83099 0.24189 0.0998 0.0
C1199 C 0.82198 0.23225 0.03068 0.0
C1200 C 0.83097 0.26059 0.10095 0.0
C1201 C 0.82195 0.27052 0.03304 0.0
H1202 H 0.8376 0.23497 0.15575 0.0
H1203 H 0.83759 0.26726 0.15764 0.0
S1204 S 0.79819 0.25181 0.83003 0.0
N1205 N 0.8052 0.23414 0.88741 0.0
N1206 N 0.80509 0.26922 0.88974 0.0
C1207 C 0.81371 0.26108 0.96059 0.0
C1208 C 0.81375 0.24199 0.95936 0.0
C1209 C 0.67162 0.74212 0.59239 0.0
C1210 C 0.68052 0.73258 0.5225 0.0
C1211 C 0.67162 0.76082 0.5942 0.0
C1212 C 0.68052 0.77085 0.52622 0.0
H1213 H 0.66512 0.73512 0.64843 0.0
H1214 H 0.66511 0.76741 0.65149 0.0
S1215 S 0.70389 0.75244 0.32121 0.0
N1216 N 0.69703 0.73468 0.37841 0.0
N1217 N 0.69709 0.76976 0.38195 0.0
C1218 C 0.68863 0.76151 0.45301 0.0
C1219 C 0.68861 0.74243 0.4511 0.0
C1220 C 0.4914 0.4391 0.72064 0.0
C1221 C 0.48117 0.42896 0.78292 0.0
C1222 C 0.51008 0.43869 0.72203 0.0
C1223 C 0.51947 0.42822 0.7863 0.0
H1224 H 0.48504 0.44809 0.67261 0.0
H1225 H 0.51717 0.44727 0.67436 0.0
S1226 S 0.49916 0.39747 0.95764 0.0
N1227 N 0.48194 0.40676 0.90542 0.0
N1228 N 0.51706 0.40613 0.90872 0.0
C1229 C 0.50947 0.41723 0.84587 0.0
C1230 C 0.49036 0.41759 0.84412 0.0
C1231 C 0.00933 0.58177 0.32477 0.0
C1232 C 0.01941 0.56852 0.27971 0.0
C1233 C 0.99058 0.58146 0.3237 0.0
C1234 C 0.98114 0.56783 0.27796 0.0
H1235 H 0.01596 0.59237 0.36227 0.0
H1236 H 0.98343 0.59187 0.36014 0.0
S1237 S 0.00122 0.52943 0.15309 0.0
N1238 N 0.01847 0.54125 0.18858 0.0
N1239 N 0.98345 0.54031 0.18964 0.0
C1240 C 0.99108 0.55453 0.2324 0.0
C1241 C 0.01013 0.55497 0.23244 0.0
C1242 C 0.01102 0.42286 0.64091 0.0
C1243 C 0.02083 0.43026 0.71434 0.0
C1244 C 0.9923 0.42301 0.64065 0.0
C1245 C 0.98254 0.43049 0.714 0.0
H1246 H 0.01781 0.41745 0.58127 0.0
H1247 H 0.98549 0.41769 0.58085 0.0
S1248 S 0.00177 0.44961 0.92849 0.0
N1249 N 0.01929 0.44394 0.86615 0.0
N1250 N 0.9842 0.44403 0.86635 0.0
C1251 C 0.99217 0.43707 0.79024 0.0
C1252 C 0.01126 0.43701 0.79022 0.0
C1253 C 0.49183 0.58241 0.15592 0.0
C1254 C 0.48197 0.57394 0.22606 0.0
C1255 C 0.51054 0.58227 0.15589 0.0
C1256 C 0.52025 0.57365 0.22598 0.0
H1257 H 0.48509 0.5886 0.09818 0.0
H1258 H 0.51738 0.58839 0.09823 0.0
S1259 S 0.50089 0.55168 0.43281 0.0
N1260 N 0.4834 0.55835 0.37296 0.0
N1261 N 0.5185 0.55797 0.37272 0.0
C1262 C 0.51058 0.56608 0.29962 0.0
C1263 C 0.49149 0.56625 0.29971 0.0
C1264 C 0.17681 0.19734 0.48509 0.0
C1265 C 0.17614 0.18293 0.42305 0.0
C1266 C 0.18489 0.1956 0.57149 0.0
C1267 C 0.19274 0.17942 0.59873 0.0
H1268 H 0.17171 0.21032 0.46524 0.0
H1269 H 0.18563 0.20721 0.61575 0.0
S1270 S 0.19354 0.13723 0.46572 0.0
N1271 N 0.18316 0.15154 0.39775 0.0
N1272 N 0.19841 0.14839 0.56049 0.0
C1273 C 0.19154 0.16468 0.53944 0.0
C1274 C 0.18313 0.16637 0.45167 0.0
C1275 C 0.07401 0.9433 0.67716 0.0
C1276 C 0.07224 0.92471 0.66951 0.0
C1277 C 0.07445 0.95167 0.76316 0.0
C1278 C 0.07355 0.94166 0.84476 0.0
H1279 H 0.07466 0.95146 0.61588 0.0
H1280 H 0.07523 0.9661 0.76568 0.0
S1281 S 0.07402 0.89203 0.85968 0.0
N1282 N 0.07218 0.89626 0.74845 0.0
N1283 N 0.075 0.91168 0.91097 0.0
C1284 C 0.07357 0.92282 0.83755 0.0
C1285 C 0.0724 0.9144 0.74956 0.0
C1286 C 0.31091 0.82505 0.93518 0.0
C1287 C 0.32904 0.8205 0.92799 0.0
C1288 C 0.30206 0.82467 0.0199 0.0
C1289 C 0.31118 0.82019 0.10116 0.0
H1290 H 0.30343 0.82857 0.87427 0.0
H1291 H 0.28796 0.82789 0.02166 0.0
S1292 S 0.36 0.81128 0.11991 0.0
N1293 N 0.35636 0.81318 0.00824 0.0
N1294 N 0.34044 0.8144 0.16975 0.0
C1295 C 0.32977 0.81691 0.09536 0.0
C1296 C 0.33854 0.81658 0.00811 0.0
C1297 C 0.42476 0.07532 0.22402 0.0
C1298 C 0.43822 0.06799 0.16796 0.0
C1299 C 0.4214 0.06843 0.31222 0.0
C1300 C 0.43114 0.0538 0.34612 0.0
H1301 H 0.4167 0.08634 0.19942 0.0
H1302 H 0.41098 0.07442 0.35377 0.0
S1303 S 0.46759 0.02959 0.22853 0.0
N1304 N 0.4615 0.04523 0.1549 0.0
N1305 N 0.4546 0.03222 0.31927 0.0
C1306 C 0.44453 0.04633 0.29153 0.0
C1307 C 0.44827 0.0535 0.20283 0.0
C1308 C 0.17344 0.80403 0.49647 0.0
C1309 C 0.17089 0.81924 0.55217 0.0
C1310 C 0.18218 0.80518 0.41159 0.0
C1311 C 0.18869 0.82155 0.37911 0.0
H1312 H 0.1693 0.79095 0.52005 0.0
H1313 H 0.18428 0.79308 0.37215 0.0
S1314 S 0.18314 0.86576 0.48967 0.0
N1315 N 0.17398 0.85158 0.56286 0.0
N1316 N 0.19032 0.85359 0.40238 0.0
C1317 C 0.18535 0.83702 0.4307 0.0
C1318 C 0.17639 0.83592 0.51729 0.0
C1319 C 0.41991 0.9287 0.79371 0.0
C1320 C 0.43714 0.9256 0.82904 0.0
C1321 C 0.41754 0.93653 0.70683 0.0
C1322 C 0.43229 0.94139 0.65277 0.0
H1323 H 0.4082 0.92611 0.83545 0.0
H1324 H 0.40411 0.93922 0.68278 0.0
S1325 S 0.47998 0.9339 0.70744 0.0
N1326 N 0.4691 0.92624 0.79817 0.0
N1327 N 0.46451 0.94113 0.63561 0.0
C1328 C 0.44948 0.93729 0.68425 0.0
C1329 C 0.45193 0.92932 0.77229 0.0
C1330 C 0.31645 0.19738 0.93554 0.0
C1331 C 0.30815 0.18151 0.90712 0.0
C1332 C 0.325 0.19851 0.02093 0.0
C1333 C 0.32557 0.1838 0.08119 0.0
H1334 H 0.31599 0.20916 0.89237 0.0
H1335 H 0.33068 0.21121 0.04121 0.0
S1336 S 0.30642 0.1389 0.0366 0.0
N1337 N 0.30154 0.15055 0.94342 0.0
N1338 N 0.3175 0.15263 0.10476 0.0
C1339 C 0.31776 0.16765 0.05228 0.0
C1340 C 0.30895 0.16656 0.9653 0.0
C1341 C 0.08176 0.07208 0.28686 0.0
C1342 C 0.06566 0.07994 0.31663 0.0
C1343 C 0.08284 0.06319 0.2021 0.0
C1344 C 0.06794 0.06203 0.14398 0.0
H1345 H 0.09346 0.07213 0.33072 0.0
H1346 H 0.09541 0.05719 0.1819 0.0
S1347 S 0.02288 0.08065 0.18716 0.0
N1348 N 0.03465 0.08648 0.27839 0.0
N1349 N 0.03671 0.06936 0.12055 0.0
C1350 C 0.05192 0.07013 0.17141 0.0
C1351 C 0.0508 0.07925 0.25726 0.0
C1352 C 0.8226 0.80352 0.52421 0.0
C1353 C 0.82384 0.81812 0.58482 0.0
C1354 C 0.81429 0.80516 0.43837 0.0
C1355 C 0.80681 0.82145 0.41003 0.0
H1356 H 0.82762 0.79053 0.54447 0.0
H1357 H 0.81334 0.79347 0.39477 0.0
S1358 S 0.80687 0.86391 0.54096 0.0
N1359 N 0.81719 0.8496 0.60912 0.0
N1360 N 0.8016 0.85263 0.44716 0.0
C1361 C 0.80822 0.83627 0.46878 0.0
C1362 C 0.81684 0.83465 0.55609 0.0
C1363 C 0.92119 0.047 0.23503 0.0
C1364 C 0.92511 0.05678 0.15516 0.0
C1365 C 0.92295 0.0548 0.32207 0.0
C1366 C 0.92898 0.07245 0.33181 0.0
H1367 H 0.91729 0.0331 0.23043 0.0
H1368 H 0.92023 0.04676 0.38235 0.0
S1369 S 0.93654 0.10511 0.14555 0.0
N1370 N 0.93135 0.08638 0.09195 0.0
N1371 N 0.93625 0.10033 0.25655 0.0
C1372 C 0.93163 0.0828 0.25325 0.0
C1373 C 0.92929 0.0751 0.16441 0.0
C1374 C 0.67598 0.17706 0.03599 0.0
C1375 C 0.68453 0.18907 0.09581 0.0
C1376 C 0.68273 0.17388 0.94735 0.0
C1377 C 0.69835 0.18242 0.91649 0.0
H1378 H 0.66406 0.17005 0.05787 0.0
H1379 H 0.67585 0.16448 0.90314 0.0
S1380 S 0.72655 0.21397 0.04745 0.0
N1381 N 0.71003 0.20897 0.11815 0.0
N1382 N 0.72254 0.20271 0.95203 0.0
C1383 C 0.70717 0.19419 0.97552 0.0
C1384 C 0.70027 0.19764 0.06508 0.0
C1385 C 0.55323 0.92916 0.7636 0.0
C1386 C 0.56756 0.92841 0.82606 0.0
C1387 C 0.55508 0.93737 0.67757 0.0
C1388 C 0.57129 0.94528 0.65109 0.0
H1389 H 0.54029 0.92381 0.78247 0.0
H1390 H 0.54358 0.93794 0.63249 0.0
S1391 S 0.61298 0.94687 0.7882 0.0
N1392 N 0.59865 0.93616 0.85465 0.0
N1393 N 0.60206 0.9516 0.69251 0.0
C1394 C 0.58582 0.94445 0.71199 0.0
C1395 C 0.58401 0.93591 0.79939 0.0
C1396 C 0.82282 0.19903 0.48277 0.0
C1397 C 0.8233 0.18475 0.41996 0.0
C1398 C 0.81463 0.19723 0.5689 0.0
C1399 C 0.80647 0.18113 0.59518 0.0
H1400 H 0.82836 0.21189 0.4641 0.0
H1401 H 0.81426 0.20871 0.6142 0.0
S1402 S 0.80408 0.13962 0.45687 0.0
N1403 N 0.815 0.15384 0.39063 0.0
N1404 N 0.7996 0.15052 0.55298 0.0
C1405 C 0.80703 0.16665 0.53385 0.0
C1406 C 0.81554 0.16841 0.44632 0.0
C1407 C 0.55355 0.06142 0.30361 0.0
C1408 C 0.57073 0.05858 0.33866 0.0
C1409 C 0.5511 0.06936 0.21745 0.0
C1410 C 0.56576 0.07484 0.16348 0.0
H1411 H 0.54195 0.05696 0.34186 0.0
H1412 H 0.53759 0.07052 0.19143 0.0
S1413 S 0.61342 0.07294 0.23357 0.0
N1414 N 0.60251 0.06371 0.32024 0.0
N1415 N 0.59807 0.07867 0.1574 0.0
C1416 C 0.583 0.07325 0.20141 0.0
C1417 C 0.58545 0.06505 0.28922 0.0
C1418 C 0.6798 0.83273 0.95773 0.0
C1419 C 0.67702 0.81544 0.92245 0.0
C1420 C 0.68758 0.83526 0.04462 0.0
C1421 C 0.6927 0.82061 0.09876 0.0
H1422 H 0.67701 0.84438 0.91594 0.0
H1423 H 0.69004 0.84874 0.06859 0.0
S1424 S 0.68596 0.7728 0.0446 0.0
N1425 N 0.67818 0.78351 0.95364 0.0
N1426 N 0.69292 0.78842 0.11632 0.0
C1427 C 0.68887 0.80336 0.06744 0.0
C1428 C 0.68098 0.80074 0.97935 0.0
C1429 C 0.92411 0.92908 0.82993 0.0
C1430 C 0.93117 0.94599 0.85201 0.0
C1431 C 0.92646 0.92168 0.742 0.0
C1432 C 0.93612 0.93091 0.67435 0.0
H1433 H 0.91679 0.92152 0.88109 0.0
H1434 H 0.92103 0.90857 0.72748 0.0
S1435 S 0.95543 0.97644 0.69519 0.0
N1436 N 0.94678 0.9723 0.7976 0.0
N1437 N 0.95139 0.95849 0.63261 0.0
C1438 C 0.94262 0.94812 0.6948 0.0
C1439 C 0.94004 0.95568 0.78361 0.0
C1440 C 0.68905 0.69796 0.05883 0.0
C1441 C 0.6965 0.68161 0.08634 0.0
C1442 C 0.68086 0.69982 0.97279 0.0
C1443 C 0.67969 0.68535 0.91134 0.0
H1444 H 0.68994 0.70955 0.10317 0.0
H1445 H 0.67587 0.71285 0.95311 0.0
S1446 S 0.69674 0.63949 0.95251 0.0
N1447 N 0.70185 0.65055 0.04728 0.0
N1448 N 0.68647 0.65396 0.88503 0.0
C1449 C 0.6867 0.66876 0.93913 0.0
C1450 C 0.69521 0.66694 0.02656 0.0
C1451 C 0.55234 0.42685 0.23604 0.0
C1452 C 0.56706 0.4254 0.17619 0.0
C1453 C 0.55394 0.43502 0.3223 0.0
C1454 C 0.57032 0.44212 0.35175 0.0
H1455 H 0.53924 0.42234 0.21449 0.0
H1456 H 0.54213 0.43638 0.36477 0.0
S1457 S 0.61335 0.44035 0.22617 0.0
N1458 N 0.59894 0.43065 0.15611 0.0
N1459 N 0.60185 0.44601 0.31871 0.0
C1460 C 0.58535 0.44001 0.29508 0.0
C1461 C 0.58378 0.43155 0.20736 0.0
C1462 C 0.8124 0.30455 0.56895 0.0
C1463 C 0.80943 0.32176 0.60342 0.0
C1464 C 0.82024 0.30205 0.48256 0.0
C1465 C 0.82551 0.31668 0.42784 0.0
H1466 H 0.80809 0.29297 0.60778 0.0
H1467 H 0.82148 0.28852 0.45695 0.0
S1468 S 0.82319 0.36442 0.49611 0.0
N1469 N 0.81419 0.35355 0.58356 0.0
N1470 N 0.829 0.34901 0.42038 0.0
C1471 C 0.82381 0.33396 0.46521 0.0
C1472 C 0.81569 0.33646 0.55321 0.0
C1473 C 0.93715 0.57038 0.82257 0.0
C1474 C 0.92629 0.55507 0.83331 0.0
C1475 C 0.93928 0.57873 0.73707 0.0
C1476 C 0.92957 0.57307 0.66029 0.0
H1477 H 0.94401 0.57639 0.87975 0.0
H1478 H 0.94864 0.5897 0.73096 0.0
S1479 S 0.89599 0.53667 0.65404 0.0
N1480 N 0.90398 0.53613 0.75988 0.0
N1481 N 0.90663 0.55311 0.60189 0.0
C1482 C 0.91726 0.55906 0.67125 0.0
C1483 C 0.91585 0.54985 0.75709 0.0
C1484 C 0.68329 0.33063 0.94907 0.0
C1485 C 0.69783 0.32079 0.91483 0.0
C1486 C 0.67638 0.32724 0.03721 0.0
C1487 C 0.68359 0.31366 0.09289 0.0
H1488 H 0.67739 0.34113 0.90781 0.0
H1489 H 0.66544 0.33538 0.06206 0.0
S1490 S 0.72166 0.28395 0.03111 0.0
N1491 N 0.71916 0.29707 0.94079 0.0
N1492 N 0.70611 0.29013 0.10506 0.0
C1493 C 0.69798 0.3035 0.05762 0.0
C1494 C 0.70516 0.30726 0.96896 0.0
C1495 C 0.91182 0.434 0.17836 0.0
C1496 C 0.92614 0.44584 0.16567 0.0
C1497 C 0.91034 0.42357 0.2582 0.0
C1498 C 0.92289 0.42474 0.33018 0.0
H1499 H 0.90193 0.43235 0.12489 0.0
H1500 H 0.89956 0.41394 0.26206 0.0
S1501 S 0.96155 0.45561 0.33679 0.0
N1502 N 0.95225 0.45949 0.23546 0.0
N1503 N 0.94926 0.44006 0.38701 0.0
C1504 C 0.93657 0.43751 0.32161 0.0
C1505 C 0.93825 0.44801 0.23901 0.0
C1506 C 0.82087 0.67404 0.43203 0.0
C1507 C 0.8049 0.68217 0.40309 0.0
C1508 C 0.8277 0.67704 0.52067 0.0
C1509 C 0.81885 0.68846 0.58235 0.0
H1510 H 0.82803 0.66516 0.38612 0.0
H1511 H 0.83996 0.67045 0.54091 0.0
S1512 S 0.77565 0.71168 0.5406 0.0
N1513 N 0.77992 0.70116 0.44321 0.0
N1514 N 0.79256 0.70703 0.60943 0.0
C1515 C 0.80268 0.69646 0.55397 0.0
C1516 C 0.79571 0.69321 0.46441 0.0
C1517 C 0.55495 0.56438 0.68608 0.0
C1518 C 0.57149 0.55737 0.65836 0.0
C1519 C 0.55295 0.57256 0.77197 0.0
C1520 C 0.56745 0.57415 0.833 0.0
H1521 H 0.54336 0.56314 0.64196 0.0
H1522 H 0.5398 0.57719 0.79189 0.0
S1523 S 0.6138 0.55862 0.79018 0.0
N1524 N 0.60277 0.55305 0.69604 0.0
N1525 N 0.59911 0.56846 0.85811 0.0
C1526 C 0.58423 0.56767 0.80472 0.0
C1527 C 0.58619 0.55917 0.71742 0.0
C1528 C 0.31728 0.30474 0.92647 0.0
C1529 C 0.30917 0.3208 0.89942 0.0
C1530 C 0.32562 0.30317 0.01219 0.0
C1531 C 0.3262 0.31762 0.07394 0.0
H1532 H 0.3168 0.29314 0.88203 0.0
H1533 H 0.33115 0.29033 0.03148 0.0
S1534 S 0.30741 0.36284 0.03357 0.0
N1535 N 0.30266 0.35162 0.93881 0.0
N1536 N 0.31828 0.34874 0.1007 0.0
C1537 C 0.31856 0.33396 0.04648 0.0
C1538 C 0.30994 0.33549 0.95925 0.0
C1539 C 0.42288 0.57118 0.68569 0.0
C1540 C 0.43104 0.5552 0.65678 0.0
C1541 C 0.42592 0.57807 0.77421 0.0
C1542 C 0.43737 0.56928 0.83592 0.0
H1543 H 0.41391 0.57826 0.64008 0.0
H1544 H 0.41934 0.59035 0.79427 0.0
S1545 S 0.46047 0.52599 0.79505 0.0
N1546 N 0.44996 0.53021 0.69758 0.0
N1547 N 0.45584 0.54295 0.86357 0.0
C1548 C 0.44528 0.55304 0.80791 0.0
C1549 C 0.44202 0.54602 0.71845 0.0
C1550 C 0.17297 0.69967 0.49865 0.0
C1551 C 0.17017 0.68442 0.55369 0.0
C1552 C 0.18179 0.69855 0.41394 0.0
C1553 C 0.1881 0.68214 0.38092 0.0
H1554 H 0.16899 0.71278 0.5226 0.0
H1555 H 0.18408 0.71068 0.37502 0.0
S1556 S 0.1818 0.63783 0.48943 0.0
N1557 N 0.17279 0.65202 0.56304 0.0
N1558 N 0.18925 0.65004 0.40289 0.0
C1559 C 0.18451 0.66663 0.43183 0.0
C1560 C 0.17549 0.66772 0.51826 0.0
C1561 C 0.05511 0.43815 0.18386 0.0
C1562 C 0.07222 0.44197 0.15028 0.0
C1563 C 0.05283 0.43005 0.26974 0.0
C1564 C 0.0676 0.4254 0.32495 0.0
H1565 H 0.0434 0.44198 0.14471 0.0
H1566 H 0.03933 0.42812 0.29457 0.0
S1567 S 0.1153 0.42994 0.25869 0.0
N1568 N 0.10417 0.43861 0.17125 0.0
N1569 N 0.10005 0.42335 0.33357 0.0
C1570 C 0.08485 0.42797 0.28845 0.0
C1571 C 0.08712 0.43633 0.20091 0.0
C1572 C 0.30131 0.67596 0.02021 0.0
C1573 C 0.31041 0.6805 0.10141 0.0
C1574 C 0.31016 0.67545 0.93553 0.0
C1575 C 0.32832 0.67994 0.92828 0.0
H1576 H 0.28719 0.67279 0.02199 0.0
H1577 H 0.30268 0.67189 0.87469 0.0
S1578 S 0.35928 0.68925 0.12007 0.0
N1579 N 0.3397 0.68624 0.16992 0.0
N1580 N 0.35564 0.68725 0.00845 0.0
C1581 C 0.33781 0.68392 0.00834 0.0
C1582 C 0.32902 0.6837 0.09557 0.0
C1583 C 0.05454 0.56358 0.81745 0.0
C1584 C 0.07114 0.55659 0.84443 0.0
C1585 C 0.05234 0.57168 0.73138 0.0
C1586 C 0.06668 0.57323 0.6693 0.0
H1587 H 0.04304 0.56234 0.86218 0.0
H1588 H 0.03914 0.57628 0.71213 0.0
S1589 S 0.11308 0.55756 0.70901 0.0
N1590 N 0.1023 0.55215 0.80424 0.0
N1591 N 0.09823 0.56739 0.64198 0.0
C1592 C 0.08351 0.56674 0.69662 0.0
C1593 C 0.08569 0.55832 0.7841 0.0
C1594 C 0.17723 0.30199 0.48331 0.0
C1595 C 0.1758 0.31656 0.42249 0.0
C1596 C 0.18524 0.30387 0.56976 0.0
C1597 C 0.19225 0.32034 0.59819 0.0
H1598 H 0.17281 0.28883 0.46244 0.0
H1599 H 0.1866 0.29218 0.61311 0.0
S1600 S 0.19052 0.36302 0.46975 0.0
N1601 N 0.18096 0.3484 0.40037 0.0
N1602 N 0.1961 0.35179 0.56326 0.0
C1603 C 0.19017 0.33522 0.54053 0.0
C1604 C 0.18184 0.33338 0.4527 0.0
C1605 C 0.43987 0.4232 0.24289 0.0
C1606 C 0.43004 0.42896 0.16664 0.0
C1607 C 0.43826 0.43175 0.32815 0.0
C1608 C 0.42773 0.44728 0.33915 0.0
H1609 H 0.4489 0.41196 0.23657 0.0
H1610 H 0.4452 0.42574 0.3851 0.0
S1611 S 0.39781 0.46656 0.1607 0.0
N1612 N 0.40775 0.44968 0.10862 0.0
N1613 N 0.40598 0.46691 0.2662 0.0
C1614 C 0.41734 0.45277 0.26328 0.0
C1615 C 0.41828 0.44343 0.1777 0.0
C1616 C 0.26768 0.16924 0.2189 0.0
C1617 C 0.26678 0.17415 0.31268 0.0
C1618 C 0.25243 0.16929 0.16243 0.0
C1619 C 0.23562 0.1743 0.19717 0.0
H1620 H 0.28032 0.16543 0.18842 0.0
H1621 H 0.25389 0.16545 0.09091 0.0
S1622 S 0.22633 0.18945 0.43666 0.0
N1623 N 0.24781 0.18472 0.43667 0.0
N1624 N 0.21925 0.18499 0.33162 0.0
C1625 C 0.23458 0.17928 0.29101 0.0
C1626 C 0.25009 0.17914 0.34838 0.0
C1627 C 0.08543 0.01734 0.46925 0.0
C1628 C 0.07583 0.01796 0.55278 0.0
C1629 C 0.08508 0.00209 0.41266 0.0
C1630 C 0.07494 0.98703 0.43711 0.0
H1631 H 0.09332 0.02871 0.44763 0.0
H1632 H 0.09294 0.00204 0.35002 0.0
S1633 S 0.0449 0.98325 0.63986 0.0
N1634 N 0.05461 0.00288 0.65229 0.0
N1635 N 0.05322 0.97469 0.54428 0.0
C1636 C 0.06469 0.98783 0.51846 0.0
C1637 C 0.06534 0.00316 0.57678 0.0
C1638 C 0.2653 0.82348 0.78033 0.0
C1639 C 0.2657 0.82744 0.68542 0.0
C1640 C 0.24946 0.82422 0.83148 0.0
C1641 C 0.23313 0.82868 0.78982 0.0
H1642 H 0.27726 0.81921 0.81546 0.0
H1643 H 0.24999 0.82073 0.90382 0.0
S1644 S 0.22675 0.84063 0.54341 0.0
N1645 N 0.24831 0.83643 0.55215 0.0
N1646 N 0.21836 0.83754 0.64736 0.0
C1647 C 0.23326 0.83279 0.69482 0.0
C1648 C 0.24953 0.83219 0.64289 0.0
C1649 C 0.42636 0.00134 0.09523 0.0
C1650 C 0.4221 0.98444 0.05938 0.0
C1651 C 0.42669 0.01651 0.03857 0.0
C1652 C 0.42278 0.01549 0.94356 0.0
H1653 H 0.43001 0.00281 0.16702 0.0
H1654 H 0.43039 0.02912 0.06956 0.0
S1655 S 0.40844 0.97484 0.81833 0.0
N1656 N 0.41222 0.96786 0.92436 0.0
N1657 N 0.41292 0.99639 0.81844 0.0
C1658 C 0.41776 0.99881 0.90773 0.0
C1659 C 0.4174 0.98333 0.96538 0.0
C1660 C 0.76788 0.82608 0.71524 0.0
C1661 C 0.76669 0.82979 0.81048 0.0
C1662 C 0.75278 0.82655 0.65796 0.0
C1663 C 0.73582 0.83071 0.69338 0.0
H1664 H 0.78053 0.82235 0.68456 0.0
H1665 H 0.75436 0.82304 0.58605 0.0
S1666 S 0.72589 0.84407 0.93455 0.0
N1667 N 0.74743 0.83952 0.93516 0.0
N1668 N 0.71906 0.84044 0.82814 0.0
C1669 C 0.73458 0.83527 0.78753 0.0
C1670 C 0.74997 0.83479 0.8458 0.0
C1671 C 0.91746 1.00086 0.58895 0.0
C1672 C 0.92707 0.01612 0.56206 0.0
C1673 C 0.91712 0.98551 0.53309 0.0
C1674 C 0.92617 0.985 0.44795 0.0
H1675 H 0.91 1.00084 0.65287 0.0
H1676 H 0.90963 0.974 0.55646 0.0
S1677 S 0.9557 0.02025 0.35402 0.0
N1678 N 0.94782 0.02877 0.45068 0.0
N1679 N 0.94639 1.00037 0.34424 0.0
C1680 C 0.9362 0.99996 0.42169 0.0
C1681 C 0.93687 0.01539 0.4792 0.0
C1682 C 0.75309 0.17778 0.34941 0.0
C1683 C 0.73613 0.1729 0.31691 0.0
C1684 C 0.76794 0.17802 0.29043 0.0
C1685 C 0.76646 0.17336 0.19639 0.0
H1686 H 0.75484 0.18202 0.42017 0.0
H1687 H 0.78061 0.18232 0.31877 0.0
S1688 S 0.72553 0.15675 0.08104 0.0
N1689 N 0.71907 0.16135 0.18711 0.0
N1690 N 0.74694 0.16191 0.07655 0.0
C1691 C 0.74973 0.16766 0.16414 0.0
C1692 C 0.7346 0.16739 0.22425 0.0
C1693 C 0.57621 0.99931 0.89829 0.0
C1694 C 0.58015 0.01632 0.93374 0.0
C1695 C 0.57593 0.9842 0.95556 0.0
C1696 C 0.57961 0.98543 0.05083 0.0
H1697 H 0.57271 0.99771 0.82638 0.0
H1698 H 0.57235 0.97151 0.92489 0.0
S1699 S 0.59328 0.0264 0.1751 0.0
N1700 N 0.58963 0.03318 0.06863 0.0
N1701 N 0.58905 0.00481 0.17559 0.0
C1702 C 0.58441 0.0022 0.08614 0.0
C1703 C 0.5847 0.0176 0.0279 0.0
C1704 C 0.75018 0.6784 0.83749 0.0
C1705 C 0.767 0.67316 0.8044 0.0
C1706 C 0.73522 0.67869 0.77942 0.0
C1707 C 0.73642 0.67373 0.68572 0.0
H1708 H 0.74865 0.68287 0.908 0.0
H1709 H 0.72267 0.68326 0.80819 0.0
S1710 S 0.77684 0.65615 0.56928 0.0
N1711 N 0.78361 0.66098 0.67456 0.0
N1712 N 0.7555 0.66163 0.56563 0.0
C1713 C 0.753 0.66769 0.65289 0.0
C1714 C 0.76825 0.66737 0.71211 0.0
C1715 C 0.58171 0.50186 0.91288 0.0
C1716 C 0.57689 0.48509 0.94892 0.0
C1717 C 0.58218 0.51716 0.96896 0.0
C1718 C 0.57792 0.51635 0.0636 0.0
H1719 H 0.58504 0.50324 0.84065 0.0
H1720 H 0.58578 0.52978 0.9375 0.0
S1721 S 0.56342 0.47606 0.19132 0.0
N1722 N 0.56714 0.46887 0.08571 0.0
N1723 N 0.5682 0.49752 0.18993 0.0
C1724 C 0.57317 0.4997 0.10061 0.0
C1725 C 0.57259 0.48414 0.04368 0.0
C1726 C 0.73476 0.32565 0.22087 0.0
C1727 C 0.73592 0.32935 0.31611 0.0
C1728 C 0.74986 0.32613 0.16358 0.0
C1729 C 0.76682 0.33031 0.19898 0.0
H1730 H 0.72212 0.32201 0.19014 0.0
H1731 H 0.74828 0.32264 0.09164 0.0
S1732 S 0.77678 0.34329 0.44067 0.0
N1733 N 0.75522 0.33884 0.44111 0.0
N1734 N 0.78359 0.33981 0.33409 0.0
C1735 C 0.76806 0.33476 0.29329 0.0
C1736 C 0.75266 0.33426 0.35157 0.0
C1737 C 0.9273 0.50057 0.58261 0.0
C1738 C 0.92066 0.48414 0.55128 0.0
C1739 C 0.92769 0.51556 0.52481 0.0
C1740 C 0.92114 0.51491 0.43366 0.0
H1741 H 0.93289 0.50174 0.65114 0.0
H1742 H 0.93355 0.5277 0.55174 0.0
S1743 S 0.90106 0.47538 0.32028 0.0
N1744 N 0.90659 0.46825 0.42403 0.0
N1745 N 0.9071 0.49656 0.31638 0.0
C1746 C 0.91404 0.49868 0.40212 0.0
C1747 C 0.91378 0.48332 0.46074 0.0
C1748 C 0.26792 0.33115 0.21164 0.0
C1749 C 0.26723 0.32721 0.30664 0.0
C1750 C 0.25249 0.33085 0.15652 0.0
C1751 C 0.23569 0.32652 0.1939 0.0
H1752 H 0.28054 0.33438 0.1791 0.0
H1753 H 0.2538 0.33389 0.08391 0.0
S1754 S 0.22683 0.31429 0.43821 0.0
N1755 N 0.24841 0.31847 0.43504 0.0
N1756 N 0.21951 0.31776 0.33261 0.0
C1757 C 0.23484 0.3226 0.2891 0.0
C1758 C 0.25054 0.323 0.34506 0.0
C1759 C 0.43059 0.48624 0.02944 0.0
C1760 C 0.42421 0.48699 0.93802 0.0
C1761 C 0.43015 0.50119 0.08745 0.0
C1762 C 0.42362 0.51765 0.05605 0.0
H1763 H 0.43618 0.474 0.05669 0.0
H1764 H 0.43543 0.49992 0.1566 0.0
S1765 S 0.40449 0.5267 0.82456 0.0
N1766 N 0.41051 0.50551 0.82027 0.0
N1767 N 0.40995 0.53375 0.92856 0.0
C1768 C 0.41709 0.51864 0.965 0.0
C1769 C 0.41738 0.50332 0.90611 0.0
C1770 C 0.24893 0.678 0.8327 0.0
C1771 C 0.23248 0.67384 0.79147 0.0
C1772 C 0.26476 0.67829 0.78129 0.0
C1773 C 0.26502 0.67414 0.68657 0.0
H1774 H 0.24957 0.68162 0.90485 0.0
H1775 H 0.27683 0.68236 0.81605 0.0
S1776 S 0.22572 0.66156 0.54574 0.0
N1777 N 0.21745 0.66504 0.64962 0.0
N1778 N 0.24737 0.6653 0.554 0.0
C1779 C 0.24872 0.66968 0.64451 0.0
C1780 C 0.23248 0.66954 0.69668 0.0
C1781 C 0.0778 0.51746 0.53821 0.0
C1782 C 0.08107 0.51641 0.44252 0.0
C1783 C 0.07818 0.50221 0.59451 0.0
C1784 C 0.08181 0.48524 0.55761 0.0
H1785 H 0.07443 0.5301 0.56998 0.0
H1786 H 0.07498 0.50369 0.66685 0.0
S1787 S 0.09375 0.47555 0.31418 0.0
N1788 N 0.08979 0.49719 0.31555 0.0
N1789 N 0.09054 0.46859 0.4207 0.0
C1790 C 0.086 0.48413 0.46297 0.0
C1791 C 0.08562 0.49967 0.40572 0.0
C1792 C 0.15158 0.11152 0.89282 0.0
C1793 C 0.14659 0.12894 0.91791 0.0
C1794 C 0.13996 0.10048 0.84275 0.0
C1795 C 0.12286 0.1064 0.81705 0.0
H1796 H 0.16459 0.1064 0.91193 0.0
H1797 H 0.14435 0.08716 0.8245 0.0
S1798 S 0.10342 0.15089 0.86577 0.0
N1799 N 0.12357 0.15174 0.91186 0.0
N1800 N 0.10147 0.13074 0.82063 0.0
C1801 C 0.11771 0.12378 0.84167 0.0
C1802 C 0.1296 0.13508 0.89192 0.0
C1803 C 0.15011 0.89074 0.08737 0.0
C1804 C 0.14401 0.87383 0.05951 0.0
C1805 C 0.13918 0.90223 0.13886 0.0
C1806 C 0.12172 0.89728 0.16332 0.0
H1807 H 0.16351 0.89503 0.07003 0.0
H1808 H 0.14436 0.91516 0.15896 0.0
S1809 S 0.09926 0.85469 0.10503 0.0
N1810 N 0.11942 0.85272 0.05981 0.0
N1811 N 0.09864 0.87459 0.154 0.0
C1812 C 0.11539 0.88051 0.13502 0.0
C1813 C 0.12656 0.86875 0.08323 0.0
C1814 C 0.37504 0.86683 0.41489 0.0
C1815 C 0.35697 0.87123 0.42809 0.0
C1816 C 0.38648 0.87825 0.36553 0.0
C1817 C 0.38014 0.89433 0.32776 0.0
H1818 H 0.38025 0.85435 0.44129 0.0
H1819 H 0.40039 0.87459 0.35761 0.0
S1820 S 0.33404 0.91192 0.34391 0.0
N1821 N 0.33337 0.89281 0.40064 0.0
N1822 N 0.3548 0.9141 0.3071 0.0
C1823 C 0.36216 0.89887 0.34084 0.0
C1824 C 0.35059 0.88736 0.39137 0.0
C1825 C 0.38381 0.12193 0.65615 0.0
C1826 C 0.37793 0.105 0.68495 0.0
C1827 C 0.37245 0.13343 0.60681 0.0
C1828 C 0.35491 0.12829 0.5846 0.0
H1829 H 0.39736 0.12617 0.6704 0.0
H1830 H 0.37733 0.14648 0.5868 0.0
S1831 S 0.3332 0.08538 0.64444 0.0
N1832 N 0.35337 0.08387 0.68984 0.0
N1833 N 0.33235 0.10508 0.59348 0.0
C1834 C 0.34896 0.11137 0.6126 0.0
C1835 C 0.36038 0.09984 0.664 0.0
C1836 C 0.87233 0.8678 0.11188 0.0
C1837 C 0.85512 0.87346 0.08633 0.0
C1838 C 0.88382 0.87913 0.16133 0.0
C1839 C 0.87843 0.89642 0.18678 0.0
H1840 H 0.87681 0.85447 0.0945 0.0
H1841 H 0.8971 0.87446 0.17848 0.0
S1842 S 0.83476 0.91748 0.13625 0.0
N1843 N 0.83341 0.89751 0.08851 0.0
N1844 N 0.85473 0.91852 0.18425 0.0
C1845 C 0.86123 0.90213 0.16219 0.0
C1846 C 0.84966 0.89073 0.11096 0.0
C1847 C 0.85033 0.11265 0.89853 0.0
C1848 C 0.85535 0.13035 0.91734 0.0
C1849 C 0.8618 0.10108 0.85082 0.0
C1850 C 0.87864 0.10685 0.82003 0.0
H1851 H 0.83746 0.10771 0.92115 0.0
H1852 H 0.85761 0.08742 0.83914 0.0
S1853 S 0.89805 0.1519 0.85221 0.0
N1854 N 0.87816 0.15316 0.90117 0.0
N1855 N 0.89986 0.1313 0.81259 0.0
C1856 C 0.88379 0.12452 0.83813 0.0
C1857 C 0.87212 0.13629 0.88686 0.0
C1858 C 0.62956 0.13499 0.60248 0.0
C1859 C 0.64676 0.12928 0.57699 0.0
C1860 C 0.61775 0.12345 0.64854 0.0
C1861 C 0.62281 0.10588 0.67052 0.0
H1862 H 0.62533 0.14852 0.5878 0.0
H1863 H 0.60451 0.12819 0.66587 0.0
S1864 S 0.66629 0.08456 0.61836 0.0
N1865 N 0.66807 0.10486 0.5749 0.0
N1866 N 0.64621 0.08347 0.66508 0.0
C1867 C 0.64001 0.10012 0.64603 0.0
C1868 C 0.65188 0.11173 0.59803 0.0
C1869 C 0.63947 0.90156 0.35266 0.0
C1870 C 0.62221 0.89611 0.32726 0.0
C1871 C 0.65085 0.89017 0.40196 0.0
C1872 C 0.6455 0.87281 0.42609 0.0
H1873 H 0.64419 0.91478 0.33464 0.0
H1874 H 0.66404 0.89492 0.42051 0.0
S1875 S 0.60168 0.85207 0.37525 0.0
N1876 N 0.60018 0.87234 0.331 0.0
N1877 N 0.62188 0.85063 0.42039 0.0
C1878 C 0.6283 0.86716 0.40089 0.0
C1879 C 0.61662 0.87884 0.35162 0.0
C1880 C 0.61855 0.62325 0.34645 0.0
C1881 C 0.62386 0.60583 0.32294 0.0
C1882 C 0.63027 0.63489 0.3924 0.0
C1883 C 0.64764 0.62945 0.41614 0.0
H1884 H 0.60517 0.62779 0.33042 0.0
H1885 H 0.62581 0.64829 0.40855 0.0
S1886 S 0.66789 0.58522 0.36997 0.0
N1887 N 0.64766 0.58384 0.32519 0.0
N1888 N 0.66943 0.60546 0.41442 0.0
C1889 C 0.65303 0.61206 0.39335 0.0
C1890 C 0.64121 0.60032 0.34577 0.0
C1891 C 0.62923 0.36828 0.60158 0.0
C1892 C 0.64636 0.37401 0.57509 0.0
C1893 C 0.61764 0.37968 0.6501 0.0
C1894 C 0.62286 0.39711 0.67382 0.0
H1895 H 0.6249 0.35481 0.58616 0.0
H1896 H 0.60445 0.3749 0.66833 0.0
S1897 S 0.66628 0.41844 0.62006 0.0
N1898 N 0.66774 0.39836 0.57362 0.0
N1899 N 0.64639 0.4194 0.669 0.0
C1900 C 0.63998 0.40291 0.64815 0.0
C1901 C 0.6516 0.39148 0.5974 0.0
C1902 C 0.86374 0.4007 0.85473 0.0
C1903 C 0.88104 0.39512 0.83077 0.0
C1904 C 0.85216 0.38944 0.90358 0.0
C1905 C 0.85736 0.37208 0.92871 0.0
H1906 H 0.85918 0.41395 0.83622 0.0
H1907 H 0.83896 0.39429 0.92121 0.0
S1908 S 0.90118 0.35103 0.88141 0.0
N1909 N 0.90292 0.37124 0.83664 0.0
N1910 N 0.88085 0.34975 0.92523 0.0
C1911 C 0.87458 0.3663 0.90476 0.0
C1912 C 0.88645 0.37785 0.85596 0.0
C1913 C 0.88444 0.62428 0.15084 0.0
C1914 C 0.87977 0.6063 0.16474 0.0
C1915 C 0.87293 0.63594 0.10348 0.0
C1916 C 0.85646 0.62994 0.06873 0.0
H1917 H 0.89718 0.62924 0.17506 0.0
H1918 H 0.87682 0.64977 0.09478 0.0
S1919 S 0.83814 0.58417 0.08727 0.0
N1920 N 0.85757 0.58313 0.14083 0.0
N1921 N 0.83612 0.60498 0.051 0.0
C1922 C 0.85169 0.61204 0.08237 0.0
C1923 C 0.86329 0.60024 0.13076 0.0
C1924 C 0.37264 0.36664 0.6112 0.0
C1925 C 0.35658 0.37264 0.57178 0.0
C1926 C 0.38389 0.37844 0.65926 0.0
C1927 C 0.37937 0.39655 0.66918 0.0
H1928 H 0.37643 0.35273 0.60549 0.0
H1929 H 0.39635 0.37346 0.68717 0.0
S1930 S 0.33861 0.41864 0.58006 0.0
N1931 N 0.3366 0.39765 0.54678 0.0
N1932 N 0.35768 0.41982 0.63688 0.0
C1933 C 0.36327 0.40261 0.63061 0.0
C1934 C 0.35188 0.39064 0.58188 0.0
C1935 C 0.38552 0.62235 0.36396 0.0
C1936 C 0.37919 0.60636 0.32512 0.0
C1937 C 0.37409 0.63365 0.41407 0.0
C1938 C 0.35601 0.62924 0.42693 0.0
H1939 H 0.39944 0.62603 0.35635 0.0
H1940 H 0.37931 0.64606 0.44131 0.0
S1941 S 0.33303 0.58886 0.33925 0.0
N1942 N 0.3538 0.58674 0.30249 0.0
N1943 N 0.33239 0.60778 0.3976 0.0
C1944 C 0.34962 0.61322 0.389 0.0
C1945 C 0.36119 0.60184 0.33768 0.0
C1946 C 0.13762 0.60228 0.14255 0.0
C1947 C 0.12013 0.60729 0.16634 0.0
C1948 C 0.14865 0.61369 0.09129 0.0
C1949 C 0.1427 0.63064 0.06339 0.0
H1950 H 0.14273 0.58934 0.16292 0.0
H1951 H 0.16202 0.60929 0.07411 0.0
S1952 S 0.09814 0.6502 0.10931 0.0
N1953 N 0.0973 0.63024 0.15764 0.0
N1954 N 0.11833 0.65201 0.06423 0.0
C1955 C 0.1253 0.63587 0.08724 0.0
C1956 C 0.11398 0.62417 0.13864 0.0
C1957 C 0.15164 0.38856 0.89685 0.0
C1958 C 0.14628 0.37121 0.92113 0.0
C1959 C 0.14015 0.40002 0.84863 0.0
C1960 C 0.12281 0.39462 0.82429 0.0
H1961 H 0.16485 0.39329 0.91507 0.0
H1962 H 0.1448 0.41329 0.83107 0.0
S1963 S 0.10235 0.35055 0.87195 0.0
N1964 N 0.12264 0.34905 0.91599 0.0
N1965 N 0.10078 0.37086 0.82828 0.0
C1966 C 0.11728 0.37732 0.8482 0.0
C1967 C 0.12904 0.36559 0.89651 0.0
loop_
_geom_bond_atom_site_label_1
_geom_bond_atom_site_label_2
_geom_bond_distance
_geom_bond_site_symmetry_2
_ccdc_geom_bond_type
Co0 O3 1.970 . S
Co0 N17 1.989 . S
Co0 O25 1.967 . S
Co0 O32 1.920 . S
Co1 O4 1.966 . S
Co1 N10 2.022 . S
Co1 N18 1.993 . S
Co1 O26 1.941 . S
C2 O3 1.258 . S
C2 O4 1.263 1_554 S
O3 Co0 1.970 . S
O3 C2 1.258 . S
O4 Co1 1.966 . S
O4 C2 1.263 1_556 S
C5 O6 1.235 . S
C5 O32 1.289 . S
O6 C5 1.235 . S
C7 C9 1.400 . S
C7 N10 1.351 . S
C7 C12 1.501 . S
C8 C9 1.387 . S
C8 N11 1.341 . S
C9 C7 1.400 . S
C9 C8 1.387 . S
N10 Co1 2.022 . S
N10 C7 1.351 . S
N10 N11 1.365 . S
N11 C8 1.341 . S
N11 N10 1.365 . S
N11 H31 0.862 . S
C12 C7 1.501 . S
C12 H13 0.961 . S
C12 H14 0.961 . S
C12 H15 0.960 . S
H13 C12 0.961 . S
H14 C12 0.961 . S
H15 C12 0.960 . S
C16 N17 1.342 . S
C16 C20 1.401 1_554 S
C16 C21 1.499 . S
N17 Co0 1.989 . S
N17 C16 1.342 . S
N17 N18 1.388 1_554 S
N18 Co1 1.993 . S
N18 N17 1.388 1_556 S
N18 C19 1.346 . S
C19 N18 1.346 . S
C19 C20 1.396 . S
C19 C29 1.510 . S
C20 C16 1.401 1_556 S
C20 C19 1.396 . S
C21 C16 1.499 . S
C21 H22 0.959 . S
C21 H23 0.960 . S
C21 H24 0.961 . S
H22 C21 0.959 . S
H23 C21 0.960 . S
H24 C21 0.961 . S
O25 Co0 1.967 . S
O25 C33 1.258 . S
O26 Co1 1.941 . S
O26 C33 1.266 1_556 S
H27 C29 0.959 . S
H28 C29 0.961 . S
C29 C19 1.510 . S
C29 H27 0.959 . S
C29 H28 0.961 . S
C29 H30 0.960 . S
H30 C29 0.960 . S
H31 N11 0.862 . S
O32 Co0 1.920 . S
O32 C5 1.289 . S
C33 O25 1.258 . S
C33 O26 1.266 1_554 S
Co34 O37 1.970 . S
Co34 N51 1.989 . S
Co34 O59 1.967 . S
Co34 O66 1.920 . S
Co35 O38 1.966 . S
Co35 N44 2.022 . S
Co35 N52 1.993 . S
Co35 O60 1.941 . S
C36 O37 1.258 . S
C36 O38 1.263 . S
O37 Co34 1.970 . S
O37 C36 1.258 . S
O38 Co35 1.966 . S
O38 C36 1.263 . S
C39 O40 1.235 . S
C39 O66 1.289 . S
O40 C39 1.235 . S
C41 C43 1.400 . S
C41 N44 1.351 1_556 S
C41 C46 1.501 1_556 S
C42 C43 1.387 . S
C42 N45 1.341 1_556 S
C43 C41 1.400 . S
C43 C42 1.387 . S
N44 Co35 2.022 . S
N44 C41 1.351 1_554 S
N44 N45 1.365 . S
N45 C42 1.341 1_554 S
N45 N44 1.365 . S
N45 H65 0.862 . S
C46 C41 1.501 1_554 S
C46 H47 0.961 . S
C46 H48 0.961 1_554 S
C46 H49 0.960 1_554 S
H47 C46 0.961 . S
H48 C46 0.961 1_556 S
H49 C46 0.960 1_556 S
C50 N51 1.342 . S
C50 C54 1.401 . S
C50 C55 1.499 . S
N51 Co34 1.989 . S
N51 C50 1.342 . S
N51 N52 1.388 . S
N52 Co35 1.993 . S
N52 N51 1.388 . S
N52 C53 1.346 . S
C53 N52 1.346 . S
C53 C54 1.396 . S
C53 C63 1.510 . S
C54 C50 1.401 . S
C54 C53 1.396 . S
C55 C50 1.499 . S
C55 H56 0.959 . S
C55 H57 0.960 . S
C55 H58 0.961 . S
H56 C55 0.959 . S
H57 C55 0.960 . S
H58 C55 0.961 . S
O59 Co34 1.967 . S
O59 C67 1.258 . S
O60 Co35 1.941 . S
O60 C67 1.266 . S
H61 C63 0.959 . S
H62 C63 0.961 . S
C63 C53 1.510 . S
C63 H61 0.959 . S
C63 H62 0.961 . S
C63 H64 0.960 . S
H64 C63 0.960 . S
H65 N45 0.862 . S
O66 Co34 1.920 . S
O66 C39 1.289 . S
C67 O59 1.258 . S
C67 O60 1.266 . S
Co68 O71 1.970 . S
Co68 N85 1.989 . S
Co68 O93 1.967 . S
Co68 O100 1.920 . S
Co69 O72 1.966 . S
Co69 N78 2.022 . S
Co69 N86 1.993 . S
Co69 O94 1.941 . S
C70 O71 1.258 . S
C70 O72 1.263 . S
O71 Co68 1.970 . S
O71 C70 1.258 . S
O72 Co69 1.966 . S
O72 C70 1.263 . S
C73 O74 1.235 . S
C73 O100 1.289 . S
O74 C73 1.235 . S
C75 C77 1.400 . S
C75 N78 1.351 . S
C75 C80 1.501 . S
C76 C77 1.387 . S
C76 N79 1.341 . S
C77 C75 1.400 . S
C77 C76 1.387 . S
N78 Co69 2.022 . S
N78 C75 1.351 . S
N78 N79 1.365 . S
N79 C76 1.341 . S
N79 N78 1.365 . S
N79 H99 0.862 . S
C80 C75 1.501 . S
C80 H81 0.961 . S
C80 H82 0.961 . S
C80 H83 0.960 . S
H81 C80 0.961 . S
H82 C80 0.961 . S
H83 C80 0.960 . S
C84 N85 1.342 . S
C84 C88 1.401 . S
C84 C89 1.499 . S
N85 Co68 1.989 . S
N85 C84 1.342 . S
N85 N86 1.388 . S
N86 Co69 1.993 . S
N86 N85 1.388 . S
N86 C87 1.346 . S
C87 N86 1.346 . S
C87 C88 1.396 . S
C87 C97 1.510 . S
C88 C84 1.401 . S
C88 C87 1.396 . S
C89 C84 1.499 . S
C89 H90 0.959 . S
C89 H91 0.960 . S
C89 H92 0.961 . S
H90 C89 0.959 . S
H91 C89 0.960 . S
H92 C89 0.961 . S
O93 Co68 1.967 . S
O93 C101 1.258 . S
O94 Co69 1.941 . S
O94 C101 1.266 . S
H95 C97 0.959 . S
H96 C97 0.961 . S
C97 C87 1.510 . S
C97 H95 0.959 . S
C97 H96 0.961 . S
C97 H98 0.960 . S
H98 C97 0.960 . S
H99 N79 0.862 . S
O100 Co68 1.920 . S
O100 C73 1.289 . S
C101 O93 1.258 . S
C101 O94 1.266 . S
Co102 O105 1.970 . S
Co102 N119 1.989 . S
Co102 O127 1.967 . S
Co102 O134 1.920 1_556 S
Co103 O106 1.966 . S
Co103 N112 2.022 . S
Co103 N120 1.993 . S
Co103 O128 1.941 . S
C104 O105 1.258 . S
C104 O106 1.263 . S
O105 Co102 1.970 . S
O105 C104 1.258 . S
O106 Co103 1.966 . S
O106 C104 1.263 . S
C107 O108 1.235 . S
C107 O134 1.289 . S
O108 C107 1.235 . S
C109 C111 1.400 . S
C109 N112 1.351 . S
C109 C114 1.501 . S
C110 C111 1.387 . S
C110 N113 1.341 . S
C111 C109 1.400 . S
C111 C110 1.387 . S
N112 Co103 2.022 . S
N112 C109 1.351 . S
N112 N113 1.365 . S
N113 C110 1.341 . S
N113 N112 1.365 . S
N113 H133 0.862 . S
C114 C109 1.501 . S
C114 H115 0.961 . S
C114 H116 0.961 . S
C114 H117 0.960 . S
H115 C114 0.961 . S
H116 C114 0.961 . S
H117 C114 0.960 . S
C118 N119 1.342 . S
C118 C122 1.401 . S
C118 C123 1.499 . S
N119 Co102 1.989 . S
N119 C118 1.342 . S
N119 N120 1.388 . S
N120 Co103 1.993 . S
N120 N119 1.388 . S
N120 C121 1.346 . S
C121 N120 1.346 . S
C121 C122 1.396 . S
C121 C131 1.510 . S
C122 C118 1.401 . S
C122 C121 1.396 . S
C123 C118 1.499 . S
C123 H124 0.959 . S
C123 H125 0.960 . S
C123 H126 0.961 . S
H124 C123 0.959 . S
H125 C123 0.960 . S
H126 C123 0.961 . S
O127 Co102 1.967 . S
O127 C135 1.258 . S
O128 Co103 1.941 . S
O128 C135 1.266 . S
H129 C131 0.959 . S
H130 C131 0.961 . S
C131 C121 1.510 . S
C131 H129 0.959 . S
C131 H130 0.961 . S
C131 H132 0.960 . S
H132 C131 0.960 . S
H133 N113 0.862 . S
O134 Co102 1.920 1_554 S
O134 C107 1.289 . S
C135 O127 1.258 . S
C135 O128 1.266 . S
Co136 O139 1.970 . S
Co136 N153 1.989 . S
Co136 O161 1.967 . S
Co136 O168 1.920 . S
Co137 O140 1.966 . S
Co137 N146 2.022 . S
Co137 N154 1.993 . S
Co137 O162 1.941 . S
C138 O139 1.258 . S
C138 O140 1.263 1_556 S
O139 Co136 1.970 . S
O139 C138 1.258 . S
O140 Co137 1.966 . S
O140 C138 1.263 1_554 S
C141 O142 1.235 . S
C141 O168 1.289 . S
O142 C141 1.235 . S
C143 C145 1.400 . S
C143 N146 1.351 . S
C143 C148 1.501 . S
C144 C145 1.387 . S
C144 N147 1.341 . S
C145 C143 1.400 . S
C145 C144 1.387 . S
N146 Co137 2.022 . S
N146 C143 1.351 . S
N146 N147 1.365 . S
N147 C144 1.341 . S
N147 N146 1.365 . S
N147 H167 0.862 . S
C148 C143 1.501 . S
C148 H149 0.961 . S
C148 H150 0.961 . S
C148 H151 0.960 . S
H149 C148 0.961 . S
H150 C148 0.961 . S
H151 C148 0.960 . S
C152 N153 1.342 . S
C152 C156 1.401 1_556 S
C152 C157 1.499 . S
N153 Co136 1.989 . S
N153 C152 1.342 . S
N153 N154 1.388 1_556 S
N154 Co137 1.993 . S
N154 N153 1.388 1_554 S
N154 C155 1.346 . S
C155 N154 1.346 . S
C155 C156 1.396 . S
C155 C165 1.510 . S
C156 C152 1.401 1_554 S
C156 C155 1.396 . S
C157 C152 1.499 . S
C157 H158 0.959 . S
C157 H159 0.960 . S
C157 H160 0.961 . S
H158 C157 0.959 . S
H159 C157 0.960 . S
H160 C157 0.961 . S
O161 Co136 1.967 . S
O161 C169 1.258 . S
O162 Co137 1.941 . S
O162 C169 1.266 1_554 S
H163 C165 0.959 . S
H164 C165 0.961 . S
C165 C155 1.510 . S
C165 H163 0.959 . S
C165 H164 0.961 . S
C165 H166 0.960 . S
H166 C165 0.960 . S
H167 N147 0.862 . S
O168 Co136 1.920 . S
O168 C141 1.289 . S
C169 O161 1.258 . S
C169 O162 1.266 1_556 S
Co170 O173 1.970 . S
Co170 N187 1.989 . S
Co170 O195 1.967 . S
Co170 O202 1.920 1_554 S
Co171 O174 1.966 . S
Co171 N180 2.022 . S
Co171 N188 1.993 . S
Co171 O196 1.941 . S
C172 O173 1.258 . S
C172 O174 1.263 . S
O173 Co170 1.970 . S
O173 C172 1.258 . S
O174 Co171 1.966 . S
O174 C172 1.263 . S
C175 O176 1.235 . S
C175 O202 1.289 . S
O176 C175 1.235 . S
C177 C179 1.400 . S
C177 N180 1.351 . S
C177 C182 1.501 . S
C178 C179 1.387 . S
C178 N181 1.341 . S
C179 C177 1.400 . S
C179 C178 1.387 . S
N180 Co171 2.022 . S
N180 C177 1.351 . S
N180 N181 1.365 . S
N181 C178 1.341 . S
N181 N180 1.365 . S
N181 H201 0.862 . S
C182 C177 1.501 . S
C182 H183 0.961 . S
C182 H184 0.961 . S
C182 H185 0.960 . S
H183 C182 0.961 . S
H184 C182 0.961 . S
H185 C182 0.960 . S
C186 N187 1.342 . S
C186 C190 1.401 . S
C186 C191 1.499 . S
N187 Co170 1.989 . S
N187 C186 1.342 . S
N187 N188 1.388 . S
N188 Co171 1.993 . S
N188 N187 1.388 . S
N188 C189 1.346 . S
C189 N188 1.346 . S
C189 C190 1.396 . S
C189 C199 1.510 . S
C190 C186 1.401 . S
C190 C189 1.396 . S
C191 C186 1.499 . S
C191 H192 0.959 . S
C191 H193 0.960 . S
C191 H194 0.961 . S
H192 C191 0.959 . S
H193 C191 0.960 . S
H194 C191 0.961 . S
O195 Co170 1.967 . S
O195 C203 1.258 . S
O196 Co171 1.941 . S
O196 C203 1.266 . S
H197 C199 0.959 . S
H198 C199 0.961 . S
C199 C189 1.510 . S
C199 H197 0.959 . S
C199 H198 0.961 . S
C199 H200 0.960 . S
H200 C199 0.960 . S
H201 N181 0.862 . S
O202 Co170 1.920 1_556 S
O202 C175 1.289 . S
C203 O195 1.258 . S
C203 O196 1.266 . S
Co204 O207 1.970 . S
Co204 N221 1.989 . S
Co204 O229 1.967 . S
Co204 O236 1.920 . S
Co205 O208 1.966 . S
Co205 N214 2.022 . S
Co205 N222 1.993 . S
Co205 O230 1.941 . S
C206 O207 1.258 . S
C206 O208 1.263 . S
O207 Co204 1.970 . S
O207 C206 1.258 . S
O208 Co205 1.966 . S
O208 C206 1.263 . S
C209 O210 1.235 . S
C209 O236 1.289 . S
O210 C209 1.235 . S
C211 C213 1.400 . S
C211 N214 1.351 . S
C211 C216 1.501 . S
C212 C213 1.387 . S
C212 N215 1.341 . S
C213 C211 1.400 . S
C213 C212 1.387 . S
N214 Co205 2.022 . S
N214 C211 1.351 . S
N214 N215 1.365 . S
N215 C212 1.341 . S
N215 N214 1.365 . S
N215 H235 0.862 . S
C216 C211 1.501 . S
C216 H217 0.961 . S
C216 H218 0.961 . S
C216 H219 0.960 . S
H217 C216 0.961 . S
H218 C216 0.961 . S
H219 C216 0.960 . S
C220 N221 1.342 . S
C220 C224 1.401 . S
C220 C225 1.499 . S
N221 Co204 1.989 . S
N221 C220 1.342 . S
N221 N222 1.388 . S
N222 Co205 1.993 . S
N222 N221 1.388 . S
N222 C223 1.346 . S
C223 N222 1.346 . S
C223 C224 1.396 . S
C223 C233 1.510 . S
C224 C220 1.401 . S
C224 C223 1.396 . S
C225 C220 1.499 . S
C225 H226 0.959 . S
C225 H227 0.960 . S
C225 H228 0.961 . S
H226 C225 0.959 . S
H227 C225 0.960 . S
H228 C225 0.961 . S
O229 Co204 1.967 . S
O229 C237 1.258 . S
O230 Co205 1.941 . S
O230 C237 1.266 . S
H231 C233 0.959 . S
H232 C233 0.961 . S
C233 C223 1.510 . S
C233 H231 0.959 . S
C233 H232 0.961 . S
C233 H234 0.960 . S
H234 C233 0.960 . S
H235 N215 0.862 . S
O236 Co204 1.920 . S
O236 C209 1.289 . S
C237 O229 1.258 . S
C237 O230 1.266 . S
Co238 O241 1.970 . S
Co238 N255 1.989 . S
Co238 O263 1.967 . S
Co238 O270 1.920 . S
Co239 O242 1.966 . S
Co239 N248 2.022 . S
Co239 N256 1.993 . S
Co239 O264 1.941 . S
C240 O241 1.258 . S
C240 O242 1.263 . S
O241 Co238 1.970 . S
O241 C240 1.258 . S
O242 Co239 1.966 . S
O242 C240 1.263 . S
C243 O244 1.235 . S
C243 O270 1.289 . S
O244 C243 1.235 . S
C245 C247 1.400 . S
C245 N248 1.351 1_554 S
C245 C250 1.501 1_554 S
C246 C247 1.387 . S
C246 N249 1.341 1_554 S
C247 C245 1.400 . S
C247 C246 1.387 . S
N248 Co239 2.022 . S
N248 C245 1.351 1_556 S
N248 N249 1.365 . S
N249 C246 1.341 1_556 S
N249 N248 1.365 . S
N249 H269 0.862 . S
C250 C245 1.501 1_556 S
C250 H251 0.961 . S
C250 H252 0.961 1_556 S
C250 H253 0.960 1_556 S
H251 C250 0.961 . S
H252 C250 0.961 1_554 S
H253 C250 0.960 1_554 S
C254 N255 1.342 . S
C254 C258 1.401 . S
C254 C259 1.499 . S
N255 Co238 1.989 . S
N255 C254 1.342 . S
N255 N256 1.388 . S
N256 Co239 1.993 . S
N256 N255 1.388 . S
N256 C257 1.346 . S
C257 N256 1.346 . S
C257 C258 1.396 . S
C257 C267 1.510 . S
C258 C254 1.401 . S
C258 C257 1.396 . S
C259 C254 1.499 . S
C259 H260 0.959 . S
C259 H261 0.960 . S
C259 H262 0.961 . S
H260 C259 0.959 . S
H261 C259 0.960 . S
H262 C259 0.961 . S
O263 Co238 1.967 . S
O263 C271 1.258 . S
O264 Co239 1.941 . S
O264 C271 1.266 . S
H265 C267 0.959 . S
H266 C267 0.961 . S
C267 C257 1.510 . S
C267 H265 0.959 . S
C267 H266 0.961 . S
C267 H268 0.960 . S
H268 C267 0.960 . S
H269 N249 0.862 . S
O270 Co238 1.920 . S
O270 C243 1.289 . S
C271 O263 1.258 . S
C271 O264 1.266 . S
Co272 O275 1.970 . S
Co272 N289 1.989 . S
Co272 O297 1.967 . S
Co272 O304 1.920 . S
Co273 O276 1.966 . S
Co273 N282 2.022 . S
Co273 N290 1.993 . S
Co273 O298 1.941 . S
C274 O275 1.258 . S
C274 O276 1.263 1_556 S
O275 Co272 1.970 . S
O275 C274 1.258 . S
O276 Co273 1.966 . S
O276 C274 1.263 1_554 S
C277 O278 1.235 . S
C277 O304 1.289 . S
O278 C277 1.235 . S
C279 C281 1.400 . S
C279 N282 1.351 . S
C279 C284 1.501 . S
C280 C281 1.387 . S
C280 N283 1.341 . S
C281 C279 1.400 . S
C281 C280 1.387 . S
N282 Co273 2.022 . S
N282 C279 1.351 . S
N282 N283 1.365 . S
N283 C280 1.341 . S
N283 N282 1.365 . S
N283 H303 0.862 . S
C284 C279 1.501 . S
C284 H285 0.961 . S
C284 H286 0.961 . S
C284 H287 0.960 . S
H285 C284 0.961 . S
H286 C284 0.961 . S
H287 C284 0.960 . S
C288 N289 1.342 . S
C288 C292 1.401 1_556 S
C288 C293 1.499 . S
N289 Co272 1.989 . S
N289 C288 1.342 . S
N289 N290 1.388 1_556 S
N290 Co273 1.993 . S
N290 N289 1.388 1_554 S
N290 C291 1.346 . S
C291 N290 1.346 . S
C291 C292 1.396 . S
C291 C301 1.510 . S
C292 C288 1.401 1_554 S
C292 C291 1.396 . S
C293 C288 1.499 . S
C293 H294 0.959 . S
C293 H295 0.960 . S
C293 H296 0.961 . S
H294 C293 0.959 . S
H295 C293 0.960 . S
H296 C293 0.961 . S
O297 Co272 1.967 . S
O297 C305 1.258 . S
O298 Co273 1.941 . S
O298 C305 1.266 1_554 S
H299 C301 0.959 . S
H300 C301 0.961 . S
C301 C291 1.510 . S
C301 H299 0.959 . S
C301 H300 0.961 . S
C301 H302 0.960 . S
H302 C301 0.960 . S
H303 N283 0.862 . S
O304 Co272 1.920 . S
O304 C277 1.289 . S
C305 O297 1.258 . S
C305 O298 1.266 1_556 S
Co306 O309 1.970 . S
Co306 N323 1.989 . S
Co306 O331 1.967 . S
Co306 O338 1.920 . S
Co307 O310 1.966 . S
Co307 N316 2.022 . S
Co307 N324 1.993 . S
Co307 O332 1.941 . S
C308 O309 1.258 . S
C308 O310 1.263 . S
O309 Co306 1.970 . S
O309 C308 1.258 . S
O310 Co307 1.966 . S
O310 C308 1.263 . S
C311 O312 1.235 . S
C311 O338 1.289 . S
O312 C311 1.235 . S
C313 C315 1.400 . S
C313 N316 1.351 1_554 S
C313 C318 1.501 1_554 S
C314 C315 1.387 . S
C314 N317 1.341 1_554 S
C315 C313 1.400 . S
C315 C314 1.387 . S
N316 Co307 2.022 . S
N316 C313 1.351 1_556 S
N316 N317 1.365 . S
N317 C314 1.341 1_556 S
N317 N316 1.365 . S
N317 H337 0.862 . S
C318 C313 1.501 1_556 S
C318 H319 0.961 . S
C318 H320 0.961 1_556 S
C318 H321 0.960 1_556 S
H319 C318 0.961 . S
H320 C318 0.961 1_554 S
H321 C318 0.960 1_554 S
C322 N323 1.342 . S
C322 C326 1.401 . S
C322 C327 1.499 . S
N323 Co306 1.989 . S
N323 C322 1.342 . S
N323 N324 1.388 . S
N324 Co307 1.993 . S
N324 N323 1.388 . S
N324 C325 1.346 . S
C325 N324 1.346 . S
C325 C326 1.396 . S
C325 C335 1.510 . S
C326 C322 1.401 . S
C326 C325 1.396 . S
C327 C322 1.499 . S
C327 H328 0.959 . S
C327 H329 0.960 . S
C327 H330 0.961 . S
H328 C327 0.959 . S
H329 C327 0.960 . S
H330 C327 0.961 . S
O331 Co306 1.967 . S
O331 C339 1.258 . S
O332 Co307 1.941 . S
O332 C339 1.266 . S
H333 C335 0.959 . S
H334 C335 0.961 . S
C335 C325 1.510 . S
C335 H333 0.959 . S
C335 H334 0.961 . S
C335 H336 0.960 . S
H336 C335 0.960 . S
H337 N317 0.862 . S
O338 Co306 1.920 . S
O338 C311 1.289 . S
C339 O331 1.258 . S
C339 O332 1.266 . S
Co340 O343 1.970 . S
Co340 N357 1.989 . S
Co340 O365 1.967 . S
Co340 O372 1.920 . S
Co341 O344 1.966 . S
Co341 N350 2.022 . S
Co341 N358 1.993 . S
Co341 O366 1.941 . S
C342 O343 1.258 . S
C342 O344 1.263 . S
O343 Co340 1.970 . S
O343 C342 1.258 . S
O344 Co341 1.966 . S
O344 C342 1.263 . S
C345 O346 1.235 . S
C345 O372 1.289 . S
O346 C345 1.235 . S
C347 C349 1.400 . S
C347 N350 1.351 . S
C347 C352 1.501 . S
C348 C349 1.387 . S
C348 N351 1.341 . S
C349 C347 1.400 . S
C349 C348 1.387 . S
N350 Co341 2.022 . S
N350 C347 1.351 . S
N350 N351 1.365 . S
N351 C348 1.341 . S
N351 N350 1.365 . S
N351 H371 0.862 . S
C352 C347 1.501 . S
C352 H353 0.961 . S
C352 H354 0.961 . S
C352 H355 0.960 . S
H353 C352 0.961 . S
H354 C352 0.961 . S
H355 C352 0.960 . S
C356 N357 1.342 . S
C356 C360 1.401 . S
C356 C361 1.499 . S
N357 Co340 1.989 . S
N357 C356 1.342 . S
N357 N358 1.388 . S
N358 Co341 1.993 . S
N358 N357 1.388 . S
N358 C359 1.346 . S
C359 N358 1.346 . S
C359 C360 1.396 . S
C359 C369 1.510 . S
C360 C356 1.401 . S
C360 C359 1.396 . S
C361 C356 1.499 . S
C361 H362 0.959 . S
C361 H363 0.960 . S
C361 H364 0.961 . S
H362 C361 0.959 . S
H363 C361 0.960 . S
H364 C361 0.961 . S
O365 Co340 1.967 . S
O365 C373 1.258 . S
O366 Co341 1.941 . S
O366 C373 1.266 . S
H367 C369 0.959 . S
H368 C369 0.961 . S
C369 C359 1.510 . S
C369 H367 0.959 . S
C369 H368 0.961 . S
C369 H370 0.960 . S
H370 C369 0.960 . S
H371 N351 0.862 . S
O372 Co340 1.920 . S
O372 C345 1.289 . S
C373 O365 1.258 . S
C373 O366 1.266 . S
Co374 O377 1.970 . S
Co374 N391 1.989 . S
Co374 O399 1.967 . S
Co374 O406 1.920 1_554 S
Co375 O378 1.966 . S
Co375 N384 2.022 . S
Co375 N392 1.993 . S
Co375 O400 1.941 . S
C376 O377 1.258 . S
C376 O378 1.263 . S
O377 Co374 1.970 . S
O377 C376 1.258 . S
O378 Co375 1.966 . S
O378 C376 1.263 . S
C379 O380 1.235 . S
C379 O406 1.289 . S
O380 C379 1.235 . S
C381 C383 1.400 . S
C381 N384 1.351 . S
C381 C386 1.501 . S
C382 C383 1.387 . S
C382 N385 1.341 . S
C383 C381 1.400 . S
C383 C382 1.387 . S
N384 Co375 2.022 . S
N384 C381 1.351 . S
N384 N385 1.365 . S
N385 C382 1.341 . S
N385 N384 1.365 . S
N385 H405 0.862 . S
C386 C381 1.501 . S
C386 H387 0.961 . S
C386 H388 0.961 . S
C386 H389 0.960 . S
H387 C386 0.961 . S
H388 C386 0.961 . S
H389 C386 0.960 . S
C390 N391 1.342 . S
C390 C394 1.401 . S
C390 C395 1.499 . S
N391 Co374 1.989 . S
N391 C390 1.342 . S
N391 N392 1.388 . S
N392 Co375 1.993 . S
N392 N391 1.388 . S
N392 C393 1.346 . S
C393 N392 1.346 . S
C393 C394 1.396 . S
C393 C403 1.510 . S
C394 C390 1.401 . S
C394 C393 1.396 . S
C395 C390 1.499 . S
C395 H396 0.959 . S
C395 H397 0.960 . S
C395 H398 0.961 . S
H396 C395 0.959 . S
H397 C395 0.960 . S
H398 C395 0.961 . S
O399 Co374 1.967 . S
O399 C407 1.258 . S
O400 Co375 1.941 . S
O400 C407 1.266 . S
H401 C403 0.959 . S
H402 C403 0.961 . S
C403 C393 1.510 . S
C403 H401 0.959 . S
C403 H402 0.961 . S
C403 H404 0.960 . S
H404 C403 0.960 . S
H405 N385 0.862 . S
O406 Co374 1.920 1_556 S
O406 C379 1.289 . S
C407 O399 1.258 . S
C407 O400 1.266 . S
Co408 O411 1.970 . S
Co408 N425 1.989 . S
Co408 O433 1.967 . S
Co408 O440 1.920 . S
Co409 O412 1.966 . S
Co409 N418 2.022 . S
Co409 N426 1.993 . S
Co409 O434 1.941 . S
C410 O411 1.258 . S
C410 O412 1.263 1_554 S
O411 Co408 1.970 . S
O411 C410 1.258 . S
O412 Co409 1.966 . S
O412 C410 1.263 1_556 S
C413 O414 1.235 . S
C413 O440 1.289 . S
O414 C413 1.235 . S
C415 C417 1.400 . S
C415 N418 1.351 . S
C415 C420 1.501 . S
C416 C417 1.387 . S
C416 N419 1.341 . S
C417 C415 1.400 . S
C417 C416 1.387 . S
N418 Co409 2.022 . S
N418 C415 1.351 . S
N418 N419 1.365 . S
N419 C416 1.341 . S
N419 N418 1.365 . S
N419 H439 0.862 . S
C420 C415 1.501 . S
C420 H421 0.961 . S
C420 H422 0.961 . S
C420 H423 0.960 . S
H421 C420 0.961 . S
H422 C420 0.961 . S
H423 C420 0.960 . S
C424 N425 1.342 . S
C424 C428 1.401 1_554 S
C424 C429 1.499 . S
N425 Co408 1.989 . S
N425 C424 1.342 . S
N425 N426 1.388 1_554 S
N426 Co409 1.993 . S
N426 N425 1.388 1_556 S
N426 C427 1.346 . S
C427 N426 1.346 . S
C427 C428 1.396 . S
C427 C437 1.510 . S
C428 C424 1.401 1_556 S
C428 C427 1.396 . S
C429 C424 1.499 . S
C429 H430 0.959 . S
C429 H431 0.960 . S
C429 H432 0.961 . S
H430 C429 0.959 . S
H431 C429 0.960 . S
H432 C429 0.961 . S
O433 Co408 1.967 . S
O433 C441 1.258 . S
O434 Co409 1.941 . S
O434 C441 1.266 1_556 S
H435 C437 0.959 . S
H436 C437 0.961 . S
C437 C427 1.510 . S
C437 H435 0.959 . S
C437 H436 0.961 . S
C437 H438 0.960 . S
H438 C437 0.960 . S
H439 N419 0.862 . S
O440 Co408 1.920 . S
O440 C413 1.289 . S
C441 O433 1.258 . S
C441 O434 1.266 1_554 S
Co442 O445 1.970 . S
Co442 N459 1.989 . S
Co442 O467 1.967 . S
Co442 O474 1.920 1_556 S
Co443 O446 1.966 . S
Co443 N452 2.022 . S
Co443 N460 1.993 . S
Co443 O468 1.941 . S
C444 O445 1.258 . S
C444 O446 1.263 . S
O445 Co442 1.970 . S
O445 C444 1.258 . S
O446 Co443 1.966 . S
O446 C444 1.263 . S
C447 O448 1.235 . S
C447 O474 1.289 . S
O448 C447 1.235 . S
C449 C451 1.400 . S
C449 N452 1.351 . S
C449 C454 1.501 . S
C450 C451 1.387 . S
C450 N453 1.341 . S
C451 C449 1.400 . S
C451 C450 1.387 . S
N452 Co443 2.022 . S
N452 C449 1.351 . S
N452 N453 1.365 . S
N453 C450 1.341 . S
N453 N452 1.365 . S
N453 H473 0.862 . S
C454 C449 1.501 . S
C454 H455 0.961 . S
C454 H456 0.961 . S
C454 H457 0.960 . S
H455 C454 0.961 . S
H456 C454 0.961 . S
H457 C454 0.960 . S
C458 N459 1.342 . S
C458 C462 1.401 . S
C458 C463 1.499 . S
N459 Co442 1.989 . S
N459 C458 1.342 . S
N459 N460 1.388 . S
N460 Co443 1.993 . S
N460 N459 1.388 . S
N460 C461 1.346 . S
C461 N460 1.346 . S
C461 C462 1.396 . S
C461 C471 1.510 . S
C462 C458 1.401 . S
C462 C461 1.396 . S
C463 C458 1.499 . S
C463 H464 0.959 . S
C463 H465 0.960 . S
C463 H466 0.961 . S
H464 C463 0.959 . S
H465 C463 0.960 . S
H466 C463 0.961 . S
O467 Co442 1.967 . S
O467 C475 1.258 . S
O468 Co443 1.941 . S
O468 C475 1.266 . S
H469 C471 0.959 . S
H470 C471 0.961 . S
C471 C461 1.510 . S
C471 H469 0.959 . S
C471 H470 0.961 . S
C471 H472 0.960 . S
H472 C471 0.960 . S
H473 N453 0.862 . S
O474 Co442 1.920 1_554 S
O474 C447 1.289 . S
C475 O467 1.258 . S
C475 O468 1.266 . S
Co476 O479 1.970 . S
Co476 N493 1.989 . S
Co476 O501 1.967 . S
Co476 O508 1.920 . S
Co477 O480 1.966 . S
Co477 N486 2.022 . S
Co477 N494 1.993 . S
Co477 O502 1.941 . S
C478 O479 1.258 . S
C478 O480 1.263 . S
O479 Co476 1.970 . S
O479 C478 1.258 . S
O480 Co477 1.966 . S
O480 C478 1.263 . S
C481 O482 1.235 . S
C481 O508 1.289 . S
O482 C481 1.235 . S
C483 C485 1.400 . S
C483 N486 1.351 . S
C483 C488 1.501 . S
C484 C485 1.387 . S
C484 N487 1.341 . S
C485 C483 1.400 . S
C485 C484 1.387 . S
N486 Co477 2.022 . S
N486 C483 1.351 . S
N486 N487 1.365 . S
N487 C484 1.341 . S
N487 N486 1.365 . S
N487 H507 0.862 . S
C488 C483 1.501 . S
C488 H489 0.961 . S
C488 H490 0.961 . S
C488 H491 0.960 . S
H489 C488 0.961 . S
H490 C488 0.961 . S
H491 C488 0.960 . S
C492 N493 1.342 . S
C492 C496 1.401 . S
C492 C497 1.499 . S
N493 Co476 1.989 . S
N493 C492 1.342 . S
N493 N494 1.388 . S
N494 Co477 1.993 . S
N494 N493 1.388 . S
N494 C495 1.346 . S
C495 N494 1.346 . S
C495 C496 1.396 . S
C495 C505 1.510 . S
C496 C492 1.401 . S
C496 C495 1.396 . S
C497 C492 1.499 . S
C497 H498 0.959 . S
C497 H499 0.960 . S
C497 H500 0.961 . S
H498 C497 0.959 . S
H499 C497 0.960 . S
H500 C497 0.961 . S
O501 Co476 1.967 . S
O501 C509 1.258 . S
O502 Co477 1.941 . S
O502 C509 1.266 . S
H503 C505 0.959 . S
H504 C505 0.961 . S
C505 C495 1.510 . S
C505 H503 0.959 . S
C505 H504 0.961 . S
C505 H506 0.960 . S
H506 C505 0.960 . S
H507 N487 0.862 . S
O508 Co476 1.920 . S
O508 C481 1.289 . S
C509 O501 1.258 . S
C509 O502 1.266 . S
Co510 O513 1.970 . S
Co510 N527 1.989 . S
Co510 O535 1.967 . S
Co510 O542 1.920 . S
Co511 O514 1.966 . S
Co511 N520 2.022 . S
Co511 N528 1.993 . S
Co511 O536 1.941 . S
C512 O513 1.258 . S
C512 O514 1.263 . S
O513 Co510 1.970 . S
O513 C512 1.258 . S
O514 Co511 1.966 . S
O514 C512 1.263 . S
C515 O516 1.235 . S
C515 O542 1.289 . S
O516 C515 1.235 . S
C517 C519 1.400 . S
C517 N520 1.351 1_556 S
C517 C522 1.501 1_556 S
C518 C519 1.387 . S
C518 N521 1.341 1_556 S
C519 C517 1.400 . S
C519 C518 1.387 . S
N520 Co511 2.022 . S
N520 C517 1.351 1_554 S
N520 N521 1.365 . S
N521 C518 1.341 1_554 S
N521 N520 1.365 . S
N521 H541 0.862 . S
C522 C517 1.501 1_554 S
C522 H523 0.961 . S
C522 H524 0.961 1_554 S
C522 H525 0.960 1_554 S
H523 C522 0.961 . S
H524 C522 0.961 1_556 S
H525 C522 0.960 1_556 S
C526 N527 1.342 . S
C526 C530 1.401 . S
C526 C531 1.499 . S
N527 Co510 1.989 . S
N527 C526 1.342 . S
N527 N528 1.388 . S
N528 Co511 1.993 . S
N528 N527 1.388 . S
N528 C529 1.346 . S
C529 N528 1.346 . S
C529 C530 1.396 . S
C529 C539 1.510 . S
C530 C526 1.401 . S
C530 C529 1.396 . S
C531 C526 1.499 . S
C531 H532 0.959 . S
C531 H533 0.960 . S
C531 H534 0.961 . S
H532 C531 0.959 . S
H533 C531 0.960 . S
H534 C531 0.961 . S
O535 Co510 1.967 . S
O535 C543 1.258 . S
O536 Co511 1.941 . S
O536 C543 1.266 . S
H537 C539 0.959 . S
H538 C539 0.961 . S
C539 C529 1.510 . S
C539 H537 0.959 . S
C539 H538 0.961 . S
C539 H540 0.960 . S
H540 C539 0.960 . S
H541 N521 0.862 . S
O542 Co510 1.920 . S
O542 C515 1.289 . S
C543 O535 1.258 . S
C543 O536 1.266 . S
Co544 O547 1.970 . S
Co544 N561 1.989 . S
Co544 O569 1.967 . S
Co544 O576 1.920 . S
Co545 O548 1.966 . S
Co545 N554 2.022 . S
Co545 N562 1.993 . S
Co545 O570 1.941 . S
C546 O547 1.258 . S
C546 O548 1.263 . S
O547 Co544 1.970 . S
O547 C546 1.258 . S
O548 Co545 1.966 . S
O548 C546 1.263 . S
C549 O550 1.235 . S
C549 O576 1.289 . S
O550 C549 1.235 . S
C551 C553 1.400 . S
C551 N554 1.351 . S
C551 C556 1.501 . S
C552 C553 1.387 . S
C552 N555 1.341 . S
C553 C551 1.400 . S
C553 C552 1.387 . S
N554 Co545 2.022 . S
N554 C551 1.351 . S
N554 N555 1.365 . S
N555 C552 1.341 . S
N555 N554 1.365 . S
N555 H575 0.862 . S
C556 C551 1.501 . S
C556 H557 0.961 . S
C556 H558 0.961 . S
C556 H559 0.960 . S
H557 C556 0.961 . S
H558 C556 0.961 . S
H559 C556 0.960 . S
C560 N561 1.342 . S
C560 C564 1.401 . S
C560 C565 1.499 . S
N561 Co544 1.989 . S
N561 C560 1.342 . S
N561 N562 1.388 . S
N562 Co545 1.993 . S
N562 N561 1.388 . S
N562 C563 1.346 . S
C563 N562 1.346 . S
C563 C564 1.396 . S
C563 C573 1.510 . S
C564 C560 1.401 . S
C564 C563 1.396 . S
C565 C560 1.499 . S
C565 H566 0.959 . S
C565 H567 0.960 . S
C565 H568 0.961 . S
H566 C565 0.959 . S
H567 C565 0.960 . S
H568 C565 0.961 . S
O569 Co544 1.967 . S
O569 C577 1.258 . S
O570 Co545 1.941 . S
O570 C577 1.266 . S
H571 C573 0.959 . S
H572 C573 0.961 . S
C573 C563 1.510 . S
C573 H571 0.959 . S
C573 H572 0.961 . S
C573 H574 0.960 . S
H574 C573 0.960 . S
H575 N555 0.862 . S
O576 Co544 1.920 . S
O576 C549 1.289 . S
C577 O569 1.258 . S
C577 O570 1.266 . S
Co578 O581 1.970 . S
Co578 N595 1.989 . S
Co578 O603 1.967 . S
Co578 O610 1.920 1_556 S
Co579 O582 1.966 . S
Co579 N588 2.022 . S
Co579 N596 1.993 . S
Co579 O604 1.941 . S
C580 O581 1.258 . S
C580 O582 1.263 . S
O581 Co578 1.970 . S
O581 C580 1.258 . S
O582 Co579 1.966 . S
O582 C580 1.263 . S
C583 O584 1.235 . S
C583 O610 1.289 . S
O584 C583 1.235 . S
C585 C587 1.400 . S
C585 N588 1.351 . S
C585 C590 1.501 . S
C586 C587 1.387 . S
C586 N589 1.341 . S
C587 C585 1.400 . S
C587 C586 1.387 . S
N588 Co579 2.022 . S
N588 C585 1.351 . S
N588 N589 1.365 . S
N589 C586 1.341 . S
N589 N588 1.365 . S
N589 H609 0.862 . S
C590 C585 1.501 . S
C590 H591 0.961 . S
C590 H592 0.961 . S
C590 H593 0.960 . S
H591 C590 0.961 . S
H592 C590 0.961 . S
H593 C590 0.960 . S
C594 N595 1.342 . S
C594 C598 1.401 . S
C594 C599 1.499 . S
N595 Co578 1.989 . S
N595 C594 1.342 . S
N595 N596 1.388 . S
N596 Co579 1.993 . S
N596 N595 1.388 . S
N596 C597 1.346 . S
C597 N596 1.346 . S
C597 C598 1.396 . S
C597 C607 1.510 . S
C598 C594 1.401 . S
C598 C597 1.396 . S
C599 C594 1.499 . S
C599 H600 0.959 . S
C599 H601 0.960 . S
C599 H602 0.961 . S
H600 C599 0.959 . S
H601 C599 0.960 . S
H602 C599 0.961 . S
O603 Co578 1.967 . S
O603 C611 1.258 . S
O604 Co579 1.941 . S
O604 C611 1.266 . S
H605 C607 0.959 . S
H606 C607 0.961 . S
C607 C597 1.510 . S
C607 H605 0.959 . S
C607 H606 0.961 . S
C607 H608 0.960 . S
H608 C607 0.960 . S
H609 N589 0.862 . S
O610 Co578 1.920 1_554 S
O610 C583 1.289 . S
C611 O603 1.258 . S
C611 O604 1.266 . S
Co612 O615 1.970 . S
Co612 N629 1.989 . S
Co612 O637 1.967 . S
Co612 O644 1.920 . S
Co613 O616 1.966 . S
Co613 N622 2.022 . S
Co613 N630 1.993 . S
Co613 O638 1.941 . S
C614 O615 1.258 . S
C614 O616 1.263 1_554 S
O615 Co612 1.970 . S
O615 C614 1.258 . S
O616 Co613 1.966 . S
O616 C614 1.263 1_556 S
C617 O618 1.235 . S
C617 O644 1.289 . S
O618 C617 1.235 . S
C619 C621 1.400 . S
C619 N622 1.351 . S
C619 C624 1.501 . S
C620 C621 1.387 . S
C620 N623 1.341 . S
C621 C619 1.400 . S
C621 C620 1.387 . S
N622 Co613 2.022 . S
N622 C619 1.351 . S
N622 N623 1.365 . S
N623 C620 1.341 . S
N623 N622 1.365 . S
N623 H643 0.862 . S
C624 C619 1.501 . S
C624 H625 0.961 . S
C624 H626 0.961 . S
C624 H627 0.960 . S
H625 C624 0.961 . S
H626 C624 0.961 . S
H627 C624 0.960 . S
C628 N629 1.342 . S
C628 C632 1.401 1_554 S
C628 C633 1.499 . S
N629 Co612 1.989 . S
N629 C628 1.342 . S
N629 N630 1.388 1_554 S
N630 Co613 1.993 . S
N630 N629 1.388 1_556 S
N630 C631 1.346 . S
C631 N630 1.346 . S
C631 C632 1.396 . S
C631 C641 1.510 . S
C632 C628 1.401 1_556 S
C632 C631 1.396 . S
C633 C628 1.499 . S
C633 H634 0.959 . S
C633 H635 0.960 . S
C633 H636 0.961 . S
H634 C633 0.959 . S
H635 C633 0.960 . S
H636 C633 0.961 . S
O637 Co612 1.967 . S
O637 C645 1.258 . S
O638 Co613 1.941 . S
O638 C645 1.266 1_556 S
H639 C641 0.959 . S
H640 C641 0.961 . S
C641 C631 1.510 . S
C641 H639 0.959 . S
C641 H640 0.961 . S
C641 H642 0.960 . S
H642 C641 0.960 . S
H643 N623 0.862 . S
O644 Co612 1.920 . S
O644 C617 1.289 . S
C645 O637 1.258 . S
C645 O638 1.266 1_554 S
Co646 O649 1.970 . S
Co646 N663 1.989 . S
Co646 O671 1.967 . S
Co646 O678 1.920 . S
Co647 O650 1.966 . S
Co647 N656 2.022 . S
Co647 N664 1.993 . S
Co647 O672 1.941 . S
C648 O649 1.258 . S
C648 O650 1.263 . S
O649 Co646 1.970 . S
O649 C648 1.258 . S
O650 Co647 1.966 . S
O650 C648 1.263 . S
C651 O652 1.235 . S
C651 O678 1.289 . S
O652 C651 1.235 . S
C653 C655 1.400 . S
C653 N656 1.351 1_556 S
C653 C658 1.501 1_556 S
C654 C655 1.387 . S
C654 N657 1.341 1_556 S
C655 C653 1.400 . S
C655 C654 1.387 . S
N656 Co647 2.022 . S
N656 C653 1.351 1_554 S
N656 N657 1.365 . S
N657 C654 1.341 1_554 S
N657 N656 1.365 . S
N657 H677 0.862 . S
C658 C653 1.501 1_554 S
C658 H659 0.961 . S
C658 H660 0.961 1_554 S
C658 H661 0.960 1_554 S
H659 C658 0.961 . S
H660 C658 0.961 1_556 S
H661 C658 0.960 1_556 S
C662 N663 1.342 . S
C662 C666 1.401 . S
C662 C667 1.499 . S
N663 Co646 1.989 . S
N663 C662 1.342 . S
N663 N664 1.388 . S
N664 Co647 1.993 . S
N664 N663 1.388 . S
N664 C665 1.346 . S
C665 N664 1.346 . S
C665 C666 1.396 . S
C665 C675 1.510 . S
C666 C662 1.401 . S
C666 C665 1.396 . S
C667 C662 1.499 . S
C667 H668 0.959 . S
C667 H669 0.960 . S
C667 H670 0.961 . S
H668 C667 0.959 . S
H669 C667 0.960 . S
H670 C667 0.961 . S
O671 Co646 1.967 . S
O671 C679 1.258 . S
O672 Co647 1.941 . S
O672 C679 1.266 . S
H673 C675 0.959 . S
H674 C675 0.961 . S
C675 C665 1.510 . S
C675 H673 0.959 . S
C675 H674 0.961 . S
C675 H676 0.960 . S
H676 C675 0.960 . S
H677 N657 0.862 . S
O678 Co646 1.920 . S
O678 C651 1.289 . S
C679 O671 1.258 . S
C679 O672 1.266 . S
Co680 O683 1.970 . S
Co680 N697 1.989 . S
Co680 O705 1.967 . S
Co680 O712 1.920 . S
Co681 O684 1.966 . S
Co681 N690 2.022 . S
Co681 N698 1.993 . S
Co681 O706 1.941 . S
C682 O683 1.258 . S
C682 O684 1.263 . S
O683 Co680 1.970 . S
O683 C682 1.258 . S
O684 Co681 1.966 . S
O684 C682 1.263 . S
C685 O686 1.235 . S
C685 O712 1.289 . S
O686 C685 1.235 . S
C687 C689 1.400 . S
C687 N690 1.351 . S
C687 C692 1.501 . S
C688 C689 1.387 . S
C688 N691 1.341 . S
C689 C687 1.400 . S
C689 C688 1.387 . S
N690 Co681 2.022 . S
N690 C687 1.351 . S
N690 N691 1.365 . S
N691 C688 1.341 . S
N691 N690 1.365 . S
N691 H711 0.862 . S
C692 C687 1.501 . S
C692 H693 0.961 . S
C692 H694 0.961 . S
C692 H695 0.960 . S
H693 C692 0.961 . S
H694 C692 0.961 . S
H695 C692 0.960 . S
C696 N697 1.342 . S
C696 C700 1.401 . S
C696 C701 1.499 . S
N697 Co680 1.989 . S
N697 C696 1.342 . S
N697 N698 1.388 . S
N698 Co681 1.993 . S
N698 N697 1.388 . S
N698 C699 1.346 . S
C699 N698 1.346 . S
C699 C700 1.396 . S
C699 C709 1.510 . S
C700 C696 1.401 . S
C700 C699 1.396 . S
C701 C696 1.499 . S
C701 H702 0.959 . S
C701 H703 0.960 . S
C701 H704 0.961 . S
H702 C701 0.959 . S
H703 C701 0.960 . S
H704 C701 0.961 . S
O705 Co680 1.967 . S
O705 C713 1.258 . S
O706 Co681 1.941 . S
O706 C713 1.266 . S
H707 C709 0.959 . S
H708 C709 0.961 . S
C709 C699 1.510 . S
C709 H707 0.959 . S
C709 H708 0.961 . S
C709 H710 0.960 . S
H710 C709 0.960 . S
H711 N691 0.862 . S
O712 Co680 1.920 . S
O712 C685 1.289 . S
C713 O705 1.258 . S
C713 O706 1.266 . S
Co714 O717 1.970 . S
Co714 N731 1.989 . S
Co714 O739 1.967 . S
Co714 O746 1.920 . S
Co715 O718 1.966 . S
Co715 N724 2.022 . S
Co715 N732 1.993 . S
Co715 O740 1.941 . S
C716 O717 1.258 . S
C716 O718 1.263 . S
O717 Co714 1.970 . S
O717 C716 1.258 . S
O718 Co715 1.966 . S
O718 C716 1.263 . S
C719 O720 1.235 . S
C719 O746 1.289 . S
O720 C719 1.235 . S
C721 C723 1.400 . S
C721 N724 1.351 1_554 S
C721 C726 1.501 1_554 S
C722 C723 1.387 . S
C722 N725 1.341 1_554 S
C723 C721 1.400 . S
C723 C722 1.387 . S
N724 Co715 2.022 . S
N724 C721 1.351 1_556 S
N724 N725 1.365 . S
N725 C722 1.341 1_556 S
N725 N724 1.365 . S
N725 H745 0.862 . S
C726 C721 1.501 1_556 S
C726 H727 0.961 . S
C726 H728 0.961 1_556 S
C726 H729 0.960 1_556 S
H727 C726 0.961 . S
H728 C726 0.961 1_554 S
H729 C726 0.960 1_554 S
C730 N731 1.342 . S
C730 C734 1.401 . S
C730 C735 1.499 . S
N731 Co714 1.989 . S
N731 C730 1.342 . S
N731 N732 1.388 . S
N732 Co715 1.993 . S
N732 N731 1.388 . S
N732 C733 1.346 . S
C733 N732 1.346 . S
C733 C734 1.396 . S
C733 C743 1.510 . S
C734 C730 1.401 . S
C734 C733 1.396 . S
C735 C730 1.499 . S
C735 H736 0.959 . S
C735 H737 0.960 . S
C735 H738 0.961 . S
H736 C735 0.959 . S
H737 C735 0.960 . S
H738 C735 0.961 . S
O739 Co714 1.967 . S
O739 C747 1.258 . S
O740 Co715 1.941 . S
O740 C747 1.266 . S
H741 C743 0.959 . S
H742 C743 0.961 . S
C743 C733 1.510 . S
C743 H741 0.959 . S
C743 H742 0.961 . S
C743 H744 0.960 . S
H744 C743 0.960 . S
H745 N725 0.862 . S
O746 Co714 1.920 . S
O746 C719 1.289 . S
C747 O739 1.258 . S
C747 O740 1.266 . S
Co748 O751 1.970 . S
Co748 N765 1.989 . S
Co748 O773 1.967 . S
Co748 O780 1.920 . S
Co749 O752 1.966 . S
Co749 N758 2.022 . S
Co749 N766 1.993 . S
Co749 O774 1.941 . S
C750 O751 1.258 . S
C750 O752 1.263 1_556 S
O751 Co748 1.970 . S
O751 C750 1.258 . S
O752 Co749 1.966 . S
O752 C750 1.263 1_554 S
C753 O754 1.235 . S
C753 O780 1.289 . S
O754 C753 1.235 . S
C755 C757 1.400 . S
C755 N758 1.351 . S
C755 C760 1.501 . S
C756 C757 1.387 . S
C756 N759 1.341 . S
C757 C755 1.400 . S
C757 C756 1.387 . S
N758 Co749 2.022 . S
N758 C755 1.351 . S
N758 N759 1.365 . S
N759 C756 1.341 . S
N759 N758 1.365 . S
N759 H779 0.862 . S
C760 C755 1.501 . S
C760 H761 0.961 . S
C760 H762 0.961 . S
C760 H763 0.960 . S
H761 C760 0.961 . S
H762 C760 0.961 . S
H763 C760 0.960 . S
C764 N765 1.342 . S
C764 C768 1.401 1_556 S
C764 C769 1.499 . S
N765 Co748 1.989 . S
N765 C764 1.342 . S
N765 N766 1.388 1_556 S
N766 Co749 1.993 . S
N766 N765 1.388 1_554 S
N766 C767 1.346 . S
C767 N766 1.346 . S
C767 C768 1.396 . S
C767 C777 1.510 . S
C768 C764 1.401 1_554 S
C768 C767 1.396 . S
C769 C764 1.499 . S
C769 H770 0.959 . S
C769 H771 0.960 . S
C769 H772 0.961 . S
H770 C769 0.959 . S
H771 C769 0.960 . S
H772 C769 0.961 . S
O773 Co748 1.967 . S
O773 C781 1.258 . S
O774 Co749 1.941 . S
O774 C781 1.266 1_554 S
H775 C777 0.959 . S
H776 C777 0.961 . S
C777 C767 1.510 . S
C777 H775 0.959 . S
C777 H776 0.961 . S
C777 H778 0.960 . S
H778 C777 0.960 . S
H779 N759 0.862 . S
O780 Co748 1.920 . S
O780 C753 1.289 . S
C781 O773 1.258 . S
C781 O774 1.266 1_556 S
Co782 O785 1.970 . S
Co782 N799 1.989 . S
Co782 O807 1.967 . S
Co782 O814 1.920 1_554 S
Co783 O786 1.966 . S
Co783 N792 2.022 . S
Co783 N800 1.993 . S
Co783 O808 1.941 . S
C784 O785 1.258 . S
C784 O786 1.263 . S
O785 Co782 1.970 . S
O785 C784 1.258 . S
O786 Co783 1.966 . S
O786 C784 1.263 . S
C787 O788 1.235 . S
C787 O814 1.289 . S
O788 C787 1.235 . S
C789 C791 1.400 . S
C789 N792 1.351 . S
C789 C794 1.501 . S
C790 C791 1.387 . S
C790 N793 1.341 . S
C791 C789 1.400 . S
C791 C790 1.387 . S
N792 Co783 2.022 . S
N792 C789 1.351 . S
N792 N793 1.365 . S
N793 C790 1.341 . S
N793 N792 1.365 . S
N793 H813 0.862 . S
C794 C789 1.501 . S
C794 H795 0.961 . S
C794 H796 0.961 . S
C794 H797 0.960 . S
H795 C794 0.961 . S
H796 C794 0.961 . S
H797 C794 0.960 . S
C798 N799 1.342 . S
C798 C802 1.401 . S
C798 C803 1.499 . S
N799 Co782 1.989 . S
N799 C798 1.342 . S
N799 N800 1.388 . S
N800 Co783 1.993 . S
N800 N799 1.388 . S
N800 C801 1.346 . S
C801 N800 1.346 . S
C801 C802 1.396 . S
C801 C811 1.510 . S
C802 C798 1.401 . S
C802 C801 1.396 . S
C803 C798 1.499 . S
C803 H804 0.959 . S
C803 H805 0.960 . S
C803 H806 0.961 . S
H804 C803 0.959 . S
H805 C803 0.960 . S
H806 C803 0.961 . S
O807 Co782 1.967 . S
O807 C815 1.258 . S
O808 Co783 1.941 . S
O808 C815 1.266 . S
H809 C811 0.959 . S
H810 C811 0.961 . S
C811 C801 1.510 . S
C811 H809 0.959 . S
C811 H810 0.961 . S
C811 H812 0.960 . S
H812 C811 0.960 . S
H813 N793 0.862 . S
O814 Co782 1.920 1_556 S
O814 C787 1.289 . S
C815 O807 1.258 . S
C815 O808 1.266 . S
Co816 O819 1.970 . S
Co816 N833 1.989 . S
Co816 O841 1.967 . S
Co816 O848 1.920 . S
Co817 O820 1.966 . S
Co817 N826 2.022 . S
Co817 N834 1.993 . S
Co817 O842 1.941 . S
C818 O819 1.258 . S
C818 O820 1.263 . S
O819 Co816 1.970 . S
O819 C818 1.258 . S
O820 Co817 1.966 . S
O820 C818 1.263 . S
C821 O822 1.235 . S
C821 O848 1.289 . S
O822 C821 1.235 . S
C823 C825 1.400 . S
C823 N826 1.351 . S
C823 C828 1.501 . S
C824 C825 1.387 . S
C824 N827 1.341 . S
C825 C823 1.400 . S
C825 C824 1.387 . S
N826 Co817 2.022 . S
N826 C823 1.351 . S
N826 N827 1.365 . S
N827 C824 1.341 . S
N827 N826 1.365 . S
N827 H847 0.862 . S
C828 C823 1.501 . S
C828 H829 0.961 . S
C828 H830 0.961 . S
C828 H831 0.960 . S
H829 C828 0.961 . S
H830 C828 0.961 . S
H831 C828 0.960 . S
C832 N833 1.342 . S
C832 C836 1.401 . S
C832 C837 1.499 . S
N833 Co816 1.989 . S
N833 C832 1.342 . S
N833 N834 1.388 . S
N834 Co817 1.993 . S
N834 N833 1.388 . S
N834 C835 1.346 . S
C835 N834 1.346 . S
C835 C836 1.396 . S
C835 C845 1.510 . S
C836 C832 1.401 . S
C836 C835 1.396 . S
C837 C832 1.499 . S
C837 H838 0.959 . S
C837 H839 0.960 . S
C837 H840 0.961 . S
H838 C837 0.959 . S
H839 C837 0.960 . S
H840 C837 0.961 . S
O841 Co816 1.967 . S
O841 C849 1.258 . S
O842 Co817 1.941 . S
O842 C849 1.266 . S
H843 C845 0.959 . S
H844 C845 0.961 . S
C845 C835 1.510 . S
C845 H843 0.959 . S
C845 H844 0.961 . S
C845 H846 0.960 . S
H846 C845 0.960 . S
H847 N827 0.862 . S
O848 Co816 1.920 . S
O848 C821 1.289 . S
C849 O841 1.258 . S
C849 O842 1.266 . S
Co850 O853 1.970 . S
Co850 N867 1.989 . S
Co850 O875 1.967 . S
Co850 O882 1.920 1_554 S
Co851 O854 1.966 . S
Co851 N860 2.022 . S
Co851 N868 1.993 . S
Co851 O876 1.941 . S
C852 O853 1.258 . S
C852 O854 1.263 . S
O853 Co850 1.970 . S
O853 C852 1.258 . S
O854 Co851 1.966 . S
O854 C852 1.263 . S
C855 O856 1.235 . S
C855 O882 1.289 . S
O856 C855 1.235 . S
C857 C859 1.400 . S
C857 N860 1.351 . S
C857 C862 1.501 . S
C858 C859 1.387 . S
C858 N861 1.341 . S
C859 C857 1.400 . S
C859 C858 1.387 . S
N860 Co851 2.022 . S
N860 C857 1.351 . S
N860 N861 1.365 . S
N861 C858 1.341 . S
N861 N860 1.365 . S
N861 H881 0.862 . S
C862 C857 1.501 . S
C862 H863 0.961 . S
C862 H864 0.961 . S
C862 H865 0.960 . S
H863 C862 0.961 . S
H864 C862 0.961 . S
H865 C862 0.960 . S
C866 N867 1.342 . S
C866 C870 1.401 . S
C866 C871 1.499 . S
N867 Co850 1.989 . S
N867 C866 1.342 . S
N867 N868 1.388 . S
N868 Co851 1.993 . S
N868 N867 1.388 . S
N868 C869 1.346 . S
C869 N868 1.346 . S
C869 C870 1.396 . S
C869 C879 1.510 . S
C870 C866 1.401 . S
C870 C869 1.396 . S
C871 C866 1.499 . S
C871 H872 0.959 . S
C871 H873 0.960 . S
C871 H874 0.961 . S
H872 C871 0.959 . S
H873 C871 0.960 . S
H874 C871 0.961 . S
O875 Co850 1.967 . S
O875 C883 1.258 . S
O876 Co851 1.941 . S
O876 C883 1.266 . S
H877 C879 0.959 . S
H878 C879 0.961 . S
C879 C869 1.510 . S
C879 H877 0.959 . S
C879 H878 0.961 . S
C879 H880 0.960 . S
H880 C879 0.960 . S
H881 N861 0.862 . S
O882 Co850 1.920 1_556 S
O882 C855 1.289 . S
C883 O875 1.258 . S
C883 O876 1.266 . S
Co884 O887 1.970 . S
Co884 N901 1.989 . S
Co884 O909 1.967 . S
Co884 O916 1.920 . S
Co885 O888 1.966 . S
Co885 N894 2.022 . S
Co885 N902 1.993 . S
Co885 O910 1.941 . S
C886 O887 1.258 . S
C886 O888 1.263 1_556 S
O887 Co884 1.970 . S
O887 C886 1.258 . S
O888 Co885 1.966 . S
O888 C886 1.263 1_554 S
C889 O890 1.235 . S
C889 O916 1.289 . S
O890 C889 1.235 . S
C891 C893 1.400 . S
C891 N894 1.351 . S
C891 C896 1.501 . S
C892 C893 1.387 . S
C892 N895 1.341 . S
C893 C891 1.400 . S
C893 C892 1.387 . S
N894 Co885 2.022 . S
N894 C891 1.351 . S
N894 N895 1.365 . S
N895 C892 1.341 . S
N895 N894 1.365 . S
N895 H915 0.862 . S
C896 C891 1.501 . S
C896 H897 0.961 . S
C896 H898 0.961 . S
C896 H899 0.960 . S
H897 C896 0.961 . S
H898 C896 0.961 . S
H899 C896 0.960 . S
C900 N901 1.342 . S
C900 C904 1.401 1_556 S
C900 C905 1.499 . S
N901 Co884 1.989 . S
N901 C900 1.342 . S
N901 N902 1.388 1_556 S
N902 Co885 1.993 . S
N902 N901 1.388 1_554 S
N902 C903 1.346 . S
C903 N902 1.346 . S
C903 C904 1.396 . S
C903 C913 1.510 . S
C904 C900 1.401 1_554 S
C904 C903 1.396 . S
C905 C900 1.499 . S
C905 H906 0.959 . S
C905 H907 0.960 . S
C905 H908 0.961 . S
H906 C905 0.959 . S
H907 C905 0.960 . S
H908 C905 0.961 . S
O909 Co884 1.967 . S
O909 C917 1.258 . S
O910 Co885 1.941 . S
O910 C917 1.266 1_554 S
H911 C913 0.959 . S
H912 C913 0.961 . S
C913 C903 1.510 . S
C913 H911 0.959 . S
C913 H912 0.961 . S
C913 H914 0.960 . S
H914 C913 0.960 . S
H915 N895 0.862 . S
O916 Co884 1.920 . S
O916 C889 1.289 . S
C917 O909 1.258 . S
C917 O910 1.266 1_556 S
Co918 O921 1.970 . S
Co918 N935 1.989 . S
Co918 O943 1.967 . S
Co918 O950 1.920 . S
Co919 O922 1.966 . S
Co919 N928 2.022 . S
Co919 N936 1.993 . S
Co919 O944 1.941 . S
C920 O921 1.258 . S
C920 O922 1.263 . S
O921 Co918 1.970 . S
O921 C920 1.258 . S
O922 Co919 1.966 . S
O922 C920 1.263 . S
C923 O924 1.235 . S
C923 O950 1.289 . S
O924 C923 1.235 . S
C925 C927 1.400 . S
C925 N928 1.351 1_554 S
C925 C930 1.501 1_554 S
C926 C927 1.387 . S
C926 N929 1.341 1_554 S
C927 C925 1.400 . S
C927 C926 1.387 . S
N928 Co919 2.022 . S
N928 C925 1.351 1_556 S
N928 N929 1.365 . S
N929 C926 1.341 1_556 S
N929 N928 1.365 . S
N929 H949 0.862 . S
C930 C925 1.501 1_556 S
C930 H931 0.961 . S
C930 H932 0.961 1_556 S
C930 H933 0.960 1_556 S
H931 C930 0.961 . S
H932 C930 0.961 1_554 S
H933 C930 0.960 1_554 S
C934 N935 1.342 . S
C934 C938 1.401 . S
C934 C939 1.499 . S
N935 Co918 1.989 . S
N935 C934 1.342 . S
N935 N936 1.388 . S
N936 Co919 1.993 . S
N936 N935 1.388 . S
N936 C937 1.346 . S
C937 N936 1.346 . S
C937 C938 1.396 . S
C937 C947 1.510 . S
C938 C934 1.401 . S
C938 C937 1.396 . S
C939 C934 1.499 . S
C939 H940 0.959 . S
C939 H941 0.960 . S
C939 H942 0.961 . S
H940 C939 0.959 . S
H941 C939 0.960 . S
H942 C939 0.961 . S
O943 Co918 1.967 . S
O943 C951 1.258 . S
O944 Co919 1.941 . S
O944 C951 1.266 . S
H945 C947 0.959 . S
H946 C947 0.961 . S
C947 C937 1.510 . S
C947 H945 0.959 . S
C947 H946 0.961 . S
C947 H948 0.960 . S
H948 C947 0.960 . S
H949 N929 0.862 . S
O950 Co918 1.920 . S
O950 C923 1.289 . S
C951 O943 1.258 . S
C951 O944 1.266 . S
Co952 O955 1.970 . S
Co952 N969 1.989 . S
Co952 O977 1.967 . S
Co952 O984 1.920 . S
Co953 O956 1.966 . S
Co953 N962 2.022 . S
Co953 N970 1.993 . S
Co953 O978 1.941 . S
C954 O955 1.258 . S
C954 O956 1.263 . S
O955 Co952 1.970 . S
O955 C954 1.258 . S
O956 Co953 1.966 . S
O956 C954 1.263 . S
C957 O958 1.235 . S
C957 O984 1.289 . S
O958 C957 1.235 . S
C959 C961 1.400 . S
C959 N962 1.351 . S
C959 C964 1.501 . S
C960 C961 1.387 . S
C960 N963 1.341 . S
C961 C959 1.400 . S
C961 C960 1.387 . S
N962 Co953 2.022 . S
N962 C959 1.351 . S
N962 N963 1.365 . S
N963 C960 1.341 . S
N963 N962 1.365 . S
N963 H983 0.862 . S
C964 C959 1.501 . S
C964 H965 0.961 . S
C964 H966 0.961 . S
C964 H967 0.960 . S
H965 C964 0.961 . S
H966 C964 0.961 . S
H967 C964 0.960 . S
C968 N969 1.342 . S
C968 C972 1.401 . S
C968 C973 1.499 . S
N969 Co952 1.989 . S
N969 C968 1.342 . S
N969 N970 1.388 . S
N970 Co953 1.993 . S
N970 N969 1.388 . S
N970 C971 1.346 . S
C971 N970 1.346 . S
C971 C972 1.396 . S
C971 C981 1.510 . S
C972 C968 1.401 . S
C972 C971 1.396 . S
C973 C968 1.499 . S
C973 H974 0.959 . S
C973 H975 0.960 . S
C973 H976 0.961 . S
H974 C973 0.959 . S
H975 C973 0.960 . S
H976 C973 0.961 . S
O977 Co952 1.967 . S
O977 C985 1.258 . S
O978 Co953 1.941 . S
O978 C985 1.266 . S
H979 C981 0.959 . S
H980 C981 0.961 . S
C981 C971 1.510 . S
C981 H979 0.959 . S
C981 H980 0.961 . S
C981 H982 0.960 . S
H982 C981 0.960 . S
H983 N963 0.862 . S
O984 Co952 1.920 . S
O984 C957 1.289 . S
C985 O977 1.258 . S
C985 O978 1.266 . S
Co986 O989 1.970 . S
Co986 N1003 1.989 . S
Co986 O1011 1.967 . S
Co986 O1018 1.920 . S
Co987 O990 1.966 . S
Co987 N996 2.022 . S
Co987 N1004 1.993 . S
Co987 O1012 1.941 . S
C988 O989 1.258 . S
C988 O990 1.263 . S
O989 Co986 1.970 . S
O989 C988 1.258 . S
O990 Co987 1.966 . S
O990 C988 1.263 . S
C991 O992 1.235 . S
C991 O1018 1.289 . S
O992 C991 1.235 . S
C993 C995 1.400 . S
C993 N996 1.351 1_556 S
C993 C998 1.501 1_556 S
C994 C995 1.387 . S
C994 N997 1.341 1_556 S
C995 C993 1.400 . S
C995 C994 1.387 . S
N996 Co987 2.022 . S
N996 C993 1.351 1_554 S
N996 N997 1.365 . S
N997 C994 1.341 1_554 S
N997 N996 1.365 . S
N997 H1017 0.862 . S
C998 C993 1.501 1_554 S
C998 H999 0.961 . S
C998 H1000 0.961 1_554 S
C998 H1001 0.960 1_554 S
H999 C998 0.961 . S
H1000 C998 0.961 1_556 S
H1001 C998 0.960 1_556 S
C1002 N1003 1.342 . S
C1002 C1006 1.401 . S
C1002 C1007 1.499 . S
N1003 Co986 1.989 . S
N1003 C1002 1.342 . S
N1003 N1004 1.388 . S
N1004 Co987 1.993 . S
N1004 N1003 1.388 . S
N1004 C1005 1.346 . S
C1005 N1004 1.346 . S
C1005 C1006 1.396 . S
C1005 C1015 1.510 . S
C1006 C1002 1.401 . S
C1006 C1005 1.396 . S
C1007 C1002 1.499 . S
C1007 H1008 0.959 . S
C1007 H1009 0.960 . S
C1007 H1010 0.961 . S
H1008 C1007 0.959 . S
H1009 C1007 0.960 . S
H1010 C1007 0.961 . S
O1011 Co986 1.967 . S
O1011 C1019 1.258 . S
O1012 Co987 1.941 . S
O1012 C1019 1.266 . S
H1013 C1015 0.959 . S
H1014 C1015 0.961 . S
C1015 C1005 1.510 . S
C1015 H1013 0.959 . S
C1015 H1014 0.961 . S
C1015 H1016 0.960 . S
H1016 C1015 0.960 . S
H1017 N997 0.862 . S
O1018 Co986 1.920 . S
O1018 C991 1.289 . S
C1019 O1011 1.258 . S
C1019 O1012 1.266 . S
Co1020 O1023 1.970 . S
Co1020 N1037 1.989 . S
Co1020 O1045 1.967 . S
Co1020 O1052 1.920 . S
Co1021 O1024 1.966 . S
Co1021 N1030 2.022 . S
Co1021 N1038 1.993 . S
Co1021 O1046 1.941 . S
C1022 O1023 1.258 . S
C1022 O1024 1.263 1_554 S
O1023 Co1020 1.970 . S
O1023 C1022 1.258 . S
O1024 Co1021 1.966 . S
O1024 C1022 1.263 1_556 S
C1025 O1026 1.235 . S
C1025 O1052 1.289 . S
O1026 C1025 1.235 . S
C1027 C1029 1.400 . S
C1027 N1030 1.351 . S
C1027 C1032 1.501 . S
C1028 C1029 1.387 . S
C1028 N1031 1.341 . S
C1029 C1027 1.400 . S
C1029 C1028 1.387 . S
N1030 Co1021 2.022 . S
N1030 C1027 1.351 . S
N1030 N1031 1.365 . S
N1031 C1028 1.341 . S
N1031 N1030 1.365 . S
N1031 H1051 0.862 . S
C1032 C1027 1.501 . S
C1032 H1033 0.961 . S
C1032 H1034 0.961 . S
C1032 H1035 0.960 . S
H1033 C1032 0.961 . S
H1034 C1032 0.961 . S
H1035 C1032 0.960 . S
C1036 N1037 1.342 . S
C1036 C1040 1.401 1_554 S
C1036 C1041 1.499 . S
N1037 Co1020 1.989 . S
N1037 C1036 1.342 . S
N1037 N1038 1.388 1_554 S
N1038 Co1021 1.993 . S
N1038 N1037 1.388 1_556 S
N1038 C1039 1.346 . S
C1039 N1038 1.346 . S
C1039 C1040 1.396 . S
C1039 C1049 1.510 . S
C1040 C1036 1.401 1_556 S
C1040 C1039 1.396 . S
C1041 C1036 1.499 . S
C1041 H1042 0.959 . S
C1041 H1043 0.960 . S
C1041 H1044 0.961 . S
H1042 C1041 0.959 . S
H1043 C1041 0.960 . S
H1044 C1041 0.961 . S
O1045 Co1020 1.967 . S
O1045 C1053 1.258 . S
O1046 Co1021 1.941 . S
O1046 C1053 1.266 1_556 S
H1047 C1049 0.959 . S
H1048 C1049 0.961 . S
C1049 C1039 1.510 . S
C1049 H1047 0.959 . S
C1049 H1048 0.961 . S
C1049 H1050 0.960 . S
H1050 C1049 0.960 . S
H1051 N1031 0.862 . S
O1052 Co1020 1.920 . S
O1052 C1025 1.289 . S
C1053 O1045 1.258 . S
C1053 O1046 1.266 1_554 S
Co1054 O1057 1.970 . S
Co1054 N1071 1.989 . S
Co1054 O1079 1.967 . S
Co1054 O1086 1.920 1_556 S
Co1055 O1058 1.966 . S
Co1055 N1064 2.022 . S
Co1055 N1072 1.993 . S
Co1055 O1080 1.941 . S
C1056 O1057 1.258 . S
C1056 O1058 1.263 . S
O1057 Co1054 1.970 . S
O1057 C1056 1.258 . S
O1058 Co1055 1.966 . S
O1058 C1056 1.263 . S
C1059 O1060 1.235 . S
C1059 O1086 1.289 . S
O1060 C1059 1.235 . S
C1061 C1063 1.400 . S
C1061 N1064 1.351 . S
C1061 C1066 1.501 . S
C1062 C1063 1.387 . S
C1062 N1065 1.341 . S
C1063 C1061 1.400 . S
C1063 C1062 1.387 . S
N1064 Co1055 2.022 . S
N1064 C1061 1.351 . S
N1064 N1065 1.365 . S
N1065 C1062 1.341 . S
N1065 N1064 1.365 . S
N1065 H1085 0.862 . S
C1066 C1061 1.501 . S
C1066 H1067 0.961 . S
C1066 H1068 0.961 . S
C1066 H1069 0.960 . S
H1067 C1066 0.961 . S
H1068 C1066 0.961 . S
H1069 C1066 0.960 . S
C1070 N1071 1.342 . S
C1070 C1074 1.401 . S
C1070 C1075 1.499 . S
N1071 Co1054 1.989 . S
N1071 C1070 1.342 . S
N1071 N1072 1.388 . S
N1072 Co1055 1.993 . S
N1072 N1071 1.388 . S
N1072 C1073 1.346 . S
C1073 N1072 1.346 . S
C1073 C1074 1.396 . S
C1073 C1083 1.510 . S
C1074 C1070 1.401 . S
C1074 C1073 1.396 . S
C1075 C1070 1.499 . S
C1075 H1076 0.959 . S
C1075 H1077 0.960 . S
C1075 H1078 0.961 . S
H1076 C1075 0.959 . S
H1077 C1075 0.960 . S
H1078 C1075 0.961 . S
O1079 Co1054 1.967 . S
O1079 C1087 1.258 . S
O1080 Co1055 1.941 . S
O1080 C1087 1.266 . S
H1081 C1083 0.959 . S
H1082 C1083 0.961 . S
C1083 C1073 1.510 . S
C1083 H1081 0.959 . S
C1083 H1082 0.961 . S
C1083 H1084 0.960 . S
H1084 C1083 0.960 . S
H1085 N1065 0.862 . S
O1086 Co1054 1.920 1_554 S
O1086 C1059 1.289 . S
C1087 O1079 1.258 . S
C1087 O1080 1.266 . S
C1088 C1089 1.369 1_556 S
C1088 C1090 1.419 . S
C1088 H1092 0.930 . S
C1089 C1088 1.369 1_554 S
C1089 C1098 1.429 . S
C1090 C1088 1.419 . S
C1090 C1091 1.363 1_556 S
C1090 H1093 0.929 . S
C1091 C1090 1.363 1_554 S
C1091 C1097 1.428 . S
H1092 C1088 0.930 . S
H1093 C1090 0.929 . S
S1094 N1095 1.613 . S
S1094 N1096 1.610 . S
N1095 S1094 1.613 . S
N1095 C1098 1.350 . S
N1096 S1094 1.610 . S
N1096 C1097 1.351 . S
C1097 C1091 1.428 . S
C1097 N1096 1.351 . S
C1097 C1098 1.434 . S
C1098 C1089 1.429 . S
C1098 N1095 1.350 . S
C1098 C1097 1.434 . S
C1099 C1100 1.369 . S
C1099 C1101 1.419 1_455 S
C1099 H1103 0.930 . S
C1100 C1099 1.369 . S
C1100 C1109 1.429 . S
C1101 C1099 1.419 1_655 S
C1101 C1102 1.363 . S
C1101 H1104 0.929 . S
C1102 C1101 1.363 . S
C1102 C1108 1.428 . S
H1103 C1099 0.930 . S
H1104 C1101 0.929 . S
S1105 N1106 1.618 1_655 S
S1105 N1107 1.605 . S
N1106 S1105 1.618 1_455 S
N1106 C1109 1.350 . S
N1107 S1105 1.605 . S
N1107 C1108 1.351 . S
C1108 C1102 1.428 . S
C1108 N1107 1.351 . S
C1108 C1109 1.434 1_655 S
C1109 C1100 1.429 . S
C1109 N1106 1.350 . S
C1109 C1108 1.434 1_455 S
C1110 C1111 1.369 . S
C1110 C1112 1.419 . S
C1110 H1114 0.930 . S
C1111 C1110 1.369 . S
C1111 C1120 1.429 . S
C1112 C1110 1.419 . S
C1112 C1113 1.363 . S
C1112 H1115 0.929 . S
C1113 C1112 1.363 . S
C1113 C1119 1.428 . S
H1114 C1110 0.930 . S
H1115 C1112 0.929 . S
S1116 N1117 1.613 . S
S1116 N1118 1.610 . S
N1117 S1116 1.613 . S
N1117 C1120 1.350 . S
N1118 S1116 1.610 . S
N1118 C1119 1.351 . S
C1119 C1113 1.428 . S
C1119 N1118 1.351 . S
C1119 C1120 1.434 . S
C1120 C1111 1.429 . S
C1120 N1117 1.350 . S
C1120 C1119 1.434 . S
C1121 C1122 1.369 . S
C1121 C1123 1.419 . S
C1121 H1125 0.930 . S
C1122 C1121 1.369 . S
C1122 C1131 1.429 . S
C1123 C1121 1.419 . S
C1123 C1124 1.363 . S
C1123 H1126 0.929 . S
C1124 C1123 1.363 . S
C1124 C1130 1.428 . S
H1125 C1121 0.930 . S
H1126 C1123 0.929 . S
S1127 N1128 1.613 . S
S1127 N1129 1.610 . S
N1128 S1127 1.613 . S
N1128 C1131 1.350 . S
N1129 S1127 1.610 . S
N1129 C1130 1.351 . S
C1130 C1124 1.428 . S
C1130 N1129 1.351 . S
C1130 C1131 1.434 . S
C1131 C1122 1.429 . S
C1131 N1128 1.350 . S
C1131 C1130 1.434 . S
C1132 C1133 1.369 1_554 S
C1132 C1134 1.419 . S
C1132 H1136 0.930 . S
C1133 C1132 1.369 1_556 S
C1133 C1142 1.429 . S
C1134 C1132 1.419 . S
C1134 C1135 1.363 1_554 S
C1134 H1137 0.929 . S
C1135 C1134 1.363 1_556 S
C1135 C1141 1.428 . S
H1136 C1132 0.930 . S
H1137 C1134 0.929 . S
S1138 N1139 1.613 . S
S1138 N1140 1.610 . S
N1139 S1138 1.613 . S
N1139 C1142 1.350 . S
N1140 S1138 1.610 . S
N1140 C1141 1.351 . S
C1141 C1135 1.428 . S
C1141 N1140 1.351 . S
C1141 C1142 1.434 . S
C1142 C1133 1.429 . S
C1142 N1139 1.350 . S
C1142 C1141 1.434 . S
C1143 C1144 1.369 . S
C1143 C1145 1.419 . S
C1143 H1147 0.930 . S
C1144 C1143 1.369 . S
C1144 C1153 1.429 . S
C1145 C1143 1.419 . S
C1145 C1146 1.363 . S
C1145 H1148 0.929 . S
C1146 C1145 1.363 . S
C1146 C1152 1.428 . S
H1147 C1143 0.930 . S
H1148 C1145 0.929 . S
S1149 N1150 1.613 . S
S1149 N1151 1.610 . S
N1150 S1149 1.613 . S
N1150 C1153 1.350 . S
N1151 S1149 1.610 . S
N1151 C1152 1.351 . S
C1152 C1146 1.428 . S
C1152 N1151 1.351 . S
C1152 C1153 1.434 . S
C1153 C1144 1.429 . S
C1153 N1150 1.350 . S
C1153 C1152 1.434 . S
C1154 C1155 1.369 . S
C1154 C1156 1.419 . S
C1154 H1158 0.930 . S
C1155 C1154 1.369 . S
C1155 C1164 1.429 . S
C1156 C1154 1.419 . S
C1156 C1157 1.363 . S
C1156 H1159 0.929 . S
C1157 C1156 1.363 . S
C1157 C1163 1.428 . S
H1158 C1154 0.930 . S
H1159 C1156 0.929 . S
S1160 N1161 1.613 . S
S1160 N1162 1.610 . S
N1161 S1160 1.613 . S
N1161 C1164 1.350 . S
N1162 S1160 1.610 . S
N1162 C1163 1.351 . S
C1163 C1157 1.428 . S
C1163 N1162 1.351 . S
C1163 C1164 1.434 . S
C1164 C1155 1.429 . S
C1164 N1161 1.350 . S
C1164 C1163 1.434 . S
C1165 C1166 1.369 . S
C1165 C1167 1.419 1_655 S
C1165 H1169 0.930 . S
C1166 C1165 1.369 . S
C1166 C1175 1.429 . S
C1167 C1165 1.419 1_455 S
C1167 C1168 1.363 . S
C1167 H1170 0.929 . S
C1168 C1167 1.363 . S
C1168 C1174 1.428 . S
H1169 C1165 0.930 . S
H1170 C1167 0.929 . S
S1171 N1172 1.618 1_455 S
S1171 N1173 1.605 . S
N1172 S1171 1.618 1_655 S
N1172 C1175 1.350 . S
N1173 S1171 1.605 . S
N1173 C1174 1.351 . S
C1174 C1168 1.428 . S
C1174 N1173 1.351 . S
C1174 C1175 1.434 1_455 S
C1175 C1166 1.429 . S
C1175 N1172 1.350 . S
C1175 C1174 1.434 1_655 S
C1176 C1177 1.369 . S
C1176 C1178 1.419 . S
C1176 H1180 0.930 . S
C1177 C1176 1.369 . S
C1177 C1186 1.429 . S
C1178 C1176 1.419 . S
C1178 C1179 1.363 . S
C1178 H1181 0.929 1_556 S
C1179 C1178 1.363 . S
C1179 C1185 1.428 . S
H1180 C1176 0.930 . S
H1181 C1178 0.929 1_554 S
S1182 N1183 1.613 . S
S1182 N1184 1.610 . S
N1183 S1182 1.613 . S
N1183 C1186 1.350 . S
N1184 S1182 1.610 . S
N1184 C1185 1.351 . S
C1185 C1179 1.428 . S
C1185 N1184 1.351 . S
C1185 C1186 1.434 . S
C1186 C1177 1.429 . S
C1186 N1183 1.350 . S
C1186 C1185 1.434 . S
C1187 C1188 1.369 . S
C1187 C1189 1.419 . S
C1187 H1191 0.930 . S
C1188 C1187 1.369 . S
C1188 C1197 1.429 . S
C1189 C1187 1.419 . S
C1189 C1190 1.363 . S
C1189 H1192 0.929 . S
C1190 C1189 1.363 . S
C1190 C1196 1.428 . S
H1191 C1187 0.930 . S
H1192 C1189 0.929 . S
S1193 N1194 1.613 . S
S1193 N1195 1.610 . S
N1194 S1193 1.613 . S
N1194 C1197 1.350 . S
N1195 S1193 1.610 . S
N1195 C1196 1.351 . S
C1196 C1190 1.428 . S
C1196 N1195 1.351 . S
C1196 C1197 1.434 . S
C1197 C1188 1.429 . S
C1197 N1194 1.350 . S
C1197 C1196 1.434 . S
C1198 C1199 1.369 . S
C1198 C1200 1.419 . S
C1198 H1202 0.930 . S
C1199 C1198 1.369 . S
C1199 C1208 1.429 1_554 S
C1200 C1198 1.419 . S
C1200 C1201 1.363 . S
C1200 H1203 0.929 . S
C1201 C1200 1.363 . S
C1201 C1207 1.428 1_554 S
H1202 C1198 0.930 . S
H1203 C1200 0.929 . S
S1204 N1205 1.613 . S
S1204 N1206 1.610 . S
N1205 S1204 1.613 . S
N1205 C1208 1.350 . S
N1206 S1204 1.610 . S
N1206 C1207 1.351 . S
C1207 C1201 1.428 1_556 S
C1207 N1206 1.351 . S
C1207 C1208 1.434 . S
C1208 C1199 1.429 1_556 S
C1208 N1205 1.350 . S
C1208 C1207 1.434 . S
C1209 C1210 1.369 . S
C1209 C1211 1.419 . S
C1209 H1213 0.930 . S
C1210 C1209 1.369 . S
C1210 C1219 1.429 . S
C1211 C1209 1.419 . S
C1211 C1212 1.363 . S
C1211 H1214 0.929 . S
C1212 C1211 1.363 . S
C1212 C1218 1.428 . S
H1213 C1209 0.930 . S
H1214 C1211 0.929 . S
S1215 N1216 1.613 . S
S1215 N1217 1.610 . S
N1216 S1215 1.613 . S
N1216 C1219 1.350 . S
N1217 S1215 1.610 . S
N1217 C1218 1.351 . S
C1218 C1212 1.428 . S
C1218 N1217 1.351 . S
C1218 C1219 1.434 . S
C1219 C1210 1.429 . S
C1219 N1216 1.350 . S
C1219 C1218 1.434 . S
C1220 C1221 1.369 . S
C1220 C1222 1.419 . S
C1220 H1224 0.930 . S
C1221 C1220 1.369 . S
C1221 C1230 1.429 . S
C1222 C1220 1.419 . S
C1222 C1223 1.363 . S
C1222 H1225 0.929 . S
C1223 C1222 1.363 . S
C1223 C1229 1.428 . S
H1224 C1220 0.930 . S
H1225 C1222 0.929 . S
S1226 N1227 1.613 . S
S1226 N1228 1.610 . S
N1227 S1226 1.613 . S
N1227 C1230 1.350 . S
N1228 S1226 1.610 . S
N1228 C1229 1.351 . S
C1229 C1223 1.428 . S
C1229 N1228 1.351 . S
C1229 C1230 1.434 . S
C1230 C1221 1.429 . S
C1230 N1227 1.350 . S
C1230 C1229 1.434 . S
C1231 C1232 1.369 . S
C1231 C1233 1.419 1_455 S
C1231 H1235 0.930 . S
C1232 C1231 1.369 . S
C1232 C1241 1.429 . S
C1233 C1231 1.419 1_655 S
C1233 C1234 1.363 . S
C1233 H1236 0.929 . S
C1234 C1233 1.363 . S
C1234 C1240 1.428 . S
H1235 C1231 0.930 . S
H1236 C1233 0.929 . S
S1237 N1238 1.618 1_655 S
S1237 N1239 1.605 . S
N1238 S1237 1.618 1_455 S
N1238 C1241 1.350 . S
N1239 S1237 1.605 . S
N1239 C1240 1.351 . S
C1240 C1234 1.428 . S
C1240 N1239 1.351 . S
C1240 C1241 1.434 1_655 S
C1241 C1232 1.429 . S
C1241 N1238 1.350 . S
C1241 C1240 1.434 1_455 S
C1242 C1243 1.369 . S
C1242 C1244 1.419 1_455 S
C1242 H1246 0.930 . S
C1243 C1242 1.369 . S
C1243 C1252 1.429 . S
C1244 C1242 1.419 1_655 S
C1244 C1245 1.363 . S
C1244 H1247 0.929 . S
C1245 C1244 1.363 . S
C1245 C1251 1.428 . S
H1246 C1242 0.930 . S
H1247 C1244 0.929 . S
S1248 N1249 1.618 1_655 S
S1248 N1250 1.605 . S
N1249 S1248 1.618 1_455 S
N1249 C1252 1.350 . S
N1250 S1248 1.605 . S
N1250 C1251 1.351 . S
C1251 C1245 1.428 . S
C1251 N1250 1.351 . S
C1251 C1252 1.434 1_655 S
C1252 C1243 1.429 . S
C1252 N1249 1.350 . S
C1252 C1251 1.434 1_455 S
C1253 C1254 1.369 . S
C1253 C1255 1.419 . S
C1253 H1257 0.930 . S
C1254 C1253 1.369 . S
C1254 C1263 1.429 . S
C1255 C1253 1.419 . S
C1255 C1256 1.363 . S
C1255 H1258 0.929 . S
C1256 C1255 1.363 . S
C1256 C1262 1.428 . S
H1257 C1253 0.930 . S
H1258 C1255 0.929 . S
S1259 N1260 1.613 . S
S1259 N1261 1.610 . S
N1260 S1259 1.613 . S
N1260 C1263 1.350 . S
N1261 S1259 1.610 . S
N1261 C1262 1.351 . S
C1262 C1256 1.428 . S
C1262 N1261 1.351 . S
C1262 C1263 1.434 . S
C1263 C1254 1.429 . S
C1263 N1260 1.350 . S
C1263 C1262 1.434 . S
C1264 C1265 1.369 . S
C1264 C1266 1.419 . S
C1264 H1268 0.930 . S
C1265 C1264 1.369 . S
C1265 C1274 1.429 . S
C1266 C1264 1.419 . S
C1266 C1267 1.363 . S
C1266 H1269 0.929 . S
C1267 C1266 1.363 . S
C1267 C1273 1.428 . S
H1268 C1264 0.930 . S
H1269 C1266 0.929 . S
S1270 N1271 1.613 . S
S1270 N1272 1.610 . S
N1271 S1270 1.613 . S
N1271 C1274 1.350 . S
N1272 S1270 1.610 . S
N1272 C1273 1.351 . S
C1273 C1267 1.428 . S
C1273 N1272 1.351 . S
C1273 C1274 1.434 . S
C1274 C1265 1.429 . S
C1274 N1271 1.350 . S
C1274 C1273 1.434 . S
C1275 C1276 1.369 . S
C1275 C1277 1.419 . S
C1275 H1279 0.930 . S
C1276 C1275 1.369 . S
C1276 C1285 1.429 . S
C1277 C1275 1.419 . S
C1277 C1278 1.363 . S
C1277 H1280 0.929 . S
C1278 C1277 1.363 . S
C1278 C1284 1.428 . S
H1279 C1275 0.930 . S
H1280 C1277 0.929 . S
S1281 N1282 1.613 . S
S1281 N1283 1.610 . S
N1282 S1281 1.613 . S
N1282 C1285 1.350 . S
N1283 S1281 1.610 . S
N1283 C1284 1.351 . S
C1284 C1278 1.428 . S
C1284 N1283 1.351 . S
C1284 C1285 1.434 . S
C1285 C1276 1.429 . S
C1285 N1282 1.350 . S
C1285 C1284 1.434 . S
C1286 C1287 1.369 . S
C1286 C1288 1.419 . S
C1286 H1290 0.930 . S
C1287 C1286 1.369 . S
C1287 C1296 1.429 . S
C1288 C1286 1.419 . S
C1288 C1289 1.363 1_556 S
C1288 H1291 0.929 . S
C1289 C1288 1.363 1_554 S
C1289 C1295 1.428 . S
H1290 C1286 0.930 . S
H1291 C1288 0.929 . S
S1292 N1293 1.613 1_554 S
S1292 N1294 1.610 . S
N1293 S1292 1.613 1_556 S
N1293 C1296 1.350 . S
N1294 S1292 1.610 . S
N1294 C1295 1.351 . S
C1295 C1289 1.428 . S
C1295 N1294 1.351 . S
C1295 C1296 1.434 1_554 S
C1296 C1287 1.429 . S
C1296 N1293 1.350 . S
C1296 C1295 1.434 1_556 S
C1297 C1298 1.369 . S
C1297 C1299 1.419 . S
C1297 H1301 0.930 . S
C1298 C1297 1.369 . S
C1298 C1307 1.429 . S
C1299 C1297 1.419 . S
C1299 C1300 1.363 . S
C1299 H1302 0.929 . S
C1300 C1299 1.363 . S
C1300 C1306 1.428 . S
H1301 C1297 0.930 . S
H1302 C1299 0.929 . S
S1303 N1304 1.613 . S
S1303 N1305 1.610 . S
N1304 S1303 1.613 . S
N1304 C1307 1.350 . S
N1305 S1303 1.610 . S
N1305 C1306 1.351 . S
C1306 C1300 1.428 . S
C1306 N1305 1.351 . S
C1306 C1307 1.434 . S
C1307 C1298 1.429 . S
C1307 N1304 1.350 . S
C1307 C1306 1.434 . S
C1308 C1309 1.369 . S
C1308 C1310 1.419 . S
C1308 H1312 0.930 . S
C1309 C1308 1.369 . S
C1309 C1318 1.429 . S
C1310 C1308 1.419 . S
C1310 C1311 1.363 . S
C1310 H1313 0.929 . S
C1311 C1310 1.363 . S
C1311 C1317 1.428 . S
H1312 C1308 0.930 . S
H1313 C1310 0.929 . S
S1314 N1315 1.613 . S
S1314 N1316 1.610 . S
N1315 S1314 1.613 . S
N1315 C1318 1.350 . S
N1316 S1314 1.610 . S
N1316 C1317 1.351 . S
C1317 C1311 1.428 . S
C1317 N1316 1.351 . S
C1317 C1318 1.434 . S
C1318 C1309 1.429 . S
C1318 N1315 1.350 . S
C1318 C1317 1.434 . S
C1319 C1320 1.369 . S
C1319 C1321 1.419 . S
C1319 H1323 0.930 . S
C1320 C1319 1.369 . S
C1320 C1329 1.429 . S
C1321 C1319 1.419 . S
C1321 C1322 1.363 . S
C1321 H1324 0.929 . S
C1322 C1321 1.363 . S
C1322 C1328 1.428 . S
H1323 C1319 0.930 . S
H1324 C1321 0.929 . S
S1325 N1326 1.613 . S
S1325 N1327 1.610 . S
N1326 S1325 1.613 . S
N1326 C1329 1.350 . S
N1327 S1325 1.610 . S
N1327 C1328 1.351 . S
C1328 C1322 1.428 . S
C1328 N1327 1.351 . S
C1328 C1329 1.434 . S
C1329 C1320 1.429 . S
C1329 N1326 1.350 . S
C1329 C1328 1.434 . S
C1330 C1331 1.369 . S
C1330 C1332 1.419 1_556 S
C1330 H1334 0.930 . S
C1331 C1330 1.369 . S
C1331 C1340 1.429 . S
C1332 C1330 1.419 1_554 S
C1332 C1333 1.363 . S
C1332 H1335 0.929 . S
C1333 C1332 1.363 . S
C1333 C1339 1.428 . S
H1334 C1330 0.930 . S
H1335 C1332 0.929 . S
S1336 N1337 1.613 . S
S1336 N1338 1.610 1_556 S
N1337 S1336 1.613 . S
N1337 C1340 1.350 . S
N1338 S1336 1.610 1_554 S
N1338 C1339 1.351 . S
C1339 C1333 1.428 . S
C1339 N1338 1.351 . S
C1339 C1340 1.434 1_554 S
C1340 C1331 1.429 . S
C1340 N1337 1.350 . S
C1340 C1339 1.434 1_556 S
C1341 C1342 1.369 . S
C1341 C1343 1.419 . S
C1341 H1345 0.930 . S
C1342 C1341 1.369 . S
C1342 C1351 1.429 . S
C1343 C1341 1.419 . S
C1343 C1344 1.363 . S
C1343 H1346 0.929 . S
C1344 C1343 1.363 . S
C1344 C1350 1.428 . S
H1345 C1341 0.930 . S
H1346 C1343 0.929 . S
S1347 N1348 1.613 . S
S1347 N1349 1.610 . S
N1348 S1347 1.613 . S
N1348 C1351 1.350 . S
N1349 S1347 1.610 . S
N1349 C1350 1.351 . S
C1350 C1344 1.428 . S
C1350 N1349 1.351 . S
C1350 C1351 1.434 . S
C1351 C1342 1.429 . S
C1351 N1348 1.350 . S
C1351 C1350 1.434 . S
C1352 C1353 1.369 . S
C1352 C1354 1.419 . S
C1352 H1356 0.930 . S
C1353 C1352 1.369 . S
C1353 C1362 1.429 . S
C1354 C1352 1.419 . S
C1354 C1355 1.363 . S
C1354 H1357 0.929 . S
C1355 C1354 1.363 . S
C1355 C1361 1.428 . S
H1356 C1352 0.930 . S
H1357 C1354 0.929 . S
S1358 N1359 1.613 . S
S1358 N1360 1.610 . S
N1359 S1358 1.613 . S
N1359 C1362 1.350 . S
N1360 S1358 1.610 . S
N1360 C1361 1.351 . S
C1361 C1355 1.428 . S
C1361 N1360 1.351 . S
C1361 C1362 1.434 . S
C1362 C1353 1.429 . S
C1362 N1359 1.350 . S
C1362 C1361 1.434 . S
C1363 C1364 1.369 . S
C1363 C1365 1.419 . S
C1363 H1367 0.930 . S
C1364 C1363 1.369 . S
C1364 C1373 1.429 . S
C1365 C1363 1.419 . S
C1365 C1366 1.363 . S
C1365 H1368 0.929 . S
C1366 C1365 1.363 . S
C1366 C1372 1.428 . S
H1367 C1363 0.930 . S
H1368 C1365 0.929 . S
S1369 N1370 1.613 . S
S1369 N1371 1.610 . S
N1370 S1369 1.613 . S
N1370 C1373 1.350 . S
N1371 S1369 1.610 . S
N1371 C1372 1.351 . S
C1372 C1366 1.428 . S
C1372 N1371 1.351 . S
C1372 C1373 1.434 . S
C1373 C1364 1.429 . S
C1373 N1370 1.350 . S
C1373 C1372 1.434 . S
C1374 C1375 1.369 . S
C1374 C1376 1.419 1_554 S
C1374 H1378 0.930 . S
C1375 C1374 1.369 . S
C1375 C1384 1.429 . S
C1376 C1374 1.419 1_556 S
C1376 C1377 1.363 . S
C1376 H1379 0.929 . S
C1377 C1376 1.363 . S
C1377 C1383 1.428 1_556 S
H1378 C1374 0.930 . S
H1379 C1376 0.929 . S
S1380 N1381 1.613 . S
S1380 N1382 1.610 . S
N1381 S1380 1.613 . S
N1381 C1384 1.350 . S
N1382 S1380 1.610 . S
N1382 C1383 1.351 . S
C1383 C1377 1.428 1_554 S
C1383 N1382 1.351 . S
C1383 C1384 1.434 . S
C1384 C1375 1.429 . S
C1384 N1381 1.350 . S
C1384 C1383 1.434 . S
C1385 C1386 1.369 . S
C1385 C1387 1.419 . S
C1385 H1389 0.930 . S
C1386 C1385 1.369 . S
C1386 C1395 1.429 . S
C1387 C1385 1.419 . S
C1387 C1388 1.363 . S
C1387 H1390 0.929 . S
C1388 C1387 1.363 . S
C1388 C1394 1.428 . S
H1389 C1385 0.930 . S
H1390 C1387 0.929 . S
S1391 N1392 1.613 . S
S1391 N1393 1.610 . S
N1392 S1391 1.613 . S
N1392 C1395 1.350 . S
N1393 S1391 1.610 . S
N1393 C1394 1.351 . S
C1394 C1388 1.428 . S
C1394 N1393 1.351 . S
C1394 C1395 1.434 . S
C1395 C1386 1.429 . S
C1395 N1392 1.350 . S
C1395 C1394 1.434 . S
C1396 C1397 1.369 . S
C1396 C1398 1.419 . S
C1396 H1400 0.930 . S
C1397 C1396 1.369 . S
C1397 C1406 1.429 . S
C1398 C1396 1.419 . S
C1398 C1399 1.363 . S
C1398 H1401 0.929 . S
C1399 C1398 1.363 . S
C1399 C1405 1.428 . S
H1400 C1396 0.930 . S
H1401 C1398 0.929 . S
S1402 N1403 1.613 . S
S1402 N1404 1.610 . S
N1403 S1402 1.613 . S
N1403 C1406 1.350 . S
N1404 S1402 1.610 . S
N1404 C1405 1.351 . S
C1405 C1399 1.428 . S
C1405 N1404 1.351 . S
C1405 C1406 1.434 . S
C1406 C1397 1.429 . S
C1406 N1403 1.350 . S
C1406 C1405 1.434 . S
C1407 C1408 1.369 . S
C1407 C1409 1.419 . S
C1407 H1411 0.930 . S
C1408 C1407 1.369 . S
C1408 C1417 1.429 . S
C1409 C1407 1.419 . S
C1409 C1410 1.363 . S
C1409 H1412 0.929 . S
C1410 C1409 1.363 . S
C1410 C1416 1.428 . S
H1411 C1407 0.930 . S
H1412 C1409 0.929 . S
S1413 N1414 1.613 . S
S1413 N1415 1.610 . S
N1414 S1413 1.613 . S
N1414 C1417 1.350 . S
N1415 S1413 1.610 . S
N1415 C1416 1.351 . S
C1416 C1410 1.428 . S
C1416 N1415 1.351 . S
C1416 C1417 1.434 . S
C1417 C1408 1.429 . S
C1417 N1414 1.350 . S
C1417 C1416 1.434 . S
C1418 C1419 1.369 . S
C1418 C1420 1.419 1_556 S
C1418 H1422 0.930 . S
C1419 C1418 1.369 . S
C1419 C1428 1.429 . S
C1420 C1418 1.419 1_554 S
C1420 C1421 1.363 . S
C1420 H1423 0.929 . S
C1421 C1420 1.363 . S
C1421 C1427 1.428 . S
H1422 C1418 0.930 . S
H1423 C1420 0.929 . S
S1424 N1425 1.613 . S
S1424 N1426 1.610 1_556 S
N1425 S1424 1.613 . S
N1425 C1428 1.350 . S
N1426 S1424 1.610 1_554 S
N1426 C1427 1.351 . S
C1427 C1421 1.428 . S
C1427 N1426 1.351 . S
C1427 C1428 1.434 1_554 S
C1428 C1419 1.429 . S
C1428 N1425 1.350 . S
C1428 C1427 1.434 1_556 S
C1429 C1430 1.369 . S
C1429 C1431 1.419 . S
C1429 H1433 0.930 . S
C1430 C1429 1.369 . S
C1430 C1439 1.429 . S
C1431 C1429 1.419 . S
C1431 C1432 1.363 . S
C1431 H1434 0.929 . S
C1432 C1431 1.363 . S
C1432 C1438 1.428 . S
H1433 C1429 0.930 . S
H1434 C1431 0.929 . S
S1435 N1436 1.613 . S
S1435 N1437 1.610 . S
N1436 S1435 1.613 . S
N1436 C1439 1.350 . S
N1437 S1435 1.610 . S
N1437 C1438 1.351 . S
C1438 C1432 1.428 . S
C1438 N1437 1.351 . S
C1438 C1439 1.434 . S
C1439 C1430 1.429 . S
C1439 N1436 1.350 . S
C1439 C1438 1.434 . S
C1440 C1441 1.369 . S
C1440 C1442 1.419 1_554 S
C1440 H1444 0.930 . S
C1441 C1440 1.369 . S
C1441 C1450 1.429 . S
C1442 C1440 1.419 1_556 S
C1442 C1443 1.363 . S
C1442 H1445 0.929 . S
C1443 C1442 1.363 . S
C1443 C1449 1.428 . S
H1444 C1440 0.930 . S
H1445 C1442 0.929 . S
S1446 N1447 1.613 . S
S1446 N1448 1.610 1_554 S
N1447 S1446 1.613 . S
N1447 C1450 1.350 . S
N1448 S1446 1.610 1_556 S
N1448 C1449 1.351 . S
C1449 C1443 1.428 . S
C1449 N1448 1.351 . S
C1449 C1450 1.434 1_556 S
C1450 C1441 1.429 . S
C1450 N1447 1.350 . S
C1450 C1449 1.434 1_554 S
C1451 C1452 1.369 . S
C1451 C1453 1.419 . S
C1451 H1455 0.930 . S
C1452 C1451 1.369 . S
C1452 C1461 1.429 . S
C1453 C1451 1.419 . S
C1453 C1454 1.363 . S
C1453 H1456 0.929 . S
C1454 C1453 1.363 . S
C1454 C1460 1.428 . S
H1455 C1451 0.930 . S
H1456 C1453 0.929 . S
S1457 N1458 1.613 . S
S1457 N1459 1.610 . S
N1458 S1457 1.613 . S
N1458 C1461 1.350 . S
N1459 S1457 1.610 . S
N1459 C1460 1.351 . S
C1460 C1454 1.428 . S
C1460 N1459 1.351 . S
C1460 C1461 1.434 . S
C1461 C1452 1.429 . S
C1461 N1458 1.350 . S
C1461 C1460 1.434 . S
C1462 C1463 1.369 . S
C1462 C1464 1.419 . S
C1462 H1466 0.930 . S
C1463 C1462 1.369 . S
C1463 C1472 1.429 . S
C1464 C1462 1.419 . S
C1464 C1465 1.363 . S
C1464 H1467 0.929 . S
C1465 C1464 1.363 . S
C1465 C1471 1.428 . S
H1466 C1462 0.930 . S
H1467 C1464 0.929 . S
S1468 N1469 1.613 . S
S1468 N1470 1.610 . S
N1469 S1468 1.613 . S
N1469 C1472 1.350 . S
N1470 S1468 1.610 . S
N1470 C1471 1.351 . S
C1471 C1465 1.428 . S
C1471 N1470 1.351 . S
C1471 C1472 1.434 . S
C1472 C1463 1.429 . S
C1472 N1469 1.350 . S
C1472 C1471 1.434 . S
C1473 C1474 1.369 . S
C1473 C1475 1.419 . S
C1473 H1477 0.930 . S
C1474 C1473 1.369 . S
C1474 C1483 1.429 . S
C1475 C1473 1.419 . S
C1475 C1476 1.363 . S
C1475 H1478 0.929 . S
C1476 C1475 1.363 . S
C1476 C1482 1.428 . S
H1477 C1473 0.930 . S
H1478 C1475 0.929 . S
S1479 N1480 1.613 . S
S1479 N1481 1.610 . S
N1480 S1479 1.613 . S
N1480 C1483 1.350 . S
N1481 S1479 1.610 . S
N1481 C1482 1.351 . S
C1482 C1476 1.428 . S
C1482 N1481 1.351 . S
C1482 C1483 1.434 . S
C1483 C1474 1.429 . S
C1483 N1480 1.350 . S
C1483 C1482 1.434 . S
C1484 C1485 1.369 . S
C1484 C1486 1.419 1_556 S
C1484 H1488 0.930 . S
C1485 C1484 1.369 . S
C1485 C1494 1.429 1_556 S
C1486 C1484 1.419 1_554 S
C1486 C1487 1.363 . S
C1486 H1489 0.929 . S
C1487 C1486 1.363 . S
C1487 C1493 1.428 . S
H1488 C1484 0.930 . S
H1489 C1486 0.929 . S
S1490 N1491 1.613 . S
S1490 N1492 1.610 . S
N1491 S1490 1.613 . S
N1491 C1494 1.350 . S
N1492 S1490 1.610 . S
N1492 C1493 1.351 . S
C1493 C1487 1.428 . S
C1493 N1492 1.351 . S
C1493 C1494 1.434 . S
C1494 C1485 1.429 1_554 S
C1494 N1491 1.350 . S
C1494 C1493 1.434 . S
C1495 C1496 1.369 . S
C1495 C1497 1.419 . S
C1495 H1499 0.930 . S
C1496 C1495 1.369 . S
C1496 C1505 1.429 . S
C1497 C1495 1.419 . S
C1497 C1498 1.363 . S
C1497 H1500 0.929 . S
C1498 C1497 1.363 . S
C1498 C1504 1.428 . S
H1499 C1495 0.930 . S
H1500 C1497 0.929 . S
S1501 N1502 1.613 . S
S1501 N1503 1.610 . S
N1502 S1501 1.613 . S
N1502 C1505 1.350 . S
N1503 S1501 1.610 . S
N1503 C1504 1.351 . S
C1504 C1498 1.428 . S
C1504 N1503 1.351 . S
C1504 C1505 1.434 . S
C1505 C1496 1.429 . S
C1505 N1502 1.350 . S
C1505 C1504 1.434 . S
C1506 C1507 1.369 . S
C1506 C1508 1.419 . S
C1506 H1510 0.930 . S
C1507 C1506 1.369 . S
C1507 C1516 1.429 . S
C1508 C1506 1.419 . S
C1508 C1509 1.363 . S
C1508 H1511 0.929 . S
C1509 C1508 1.363 . S
C1509 C1515 1.428 . S
H1510 C1506 0.930 . S
H1511 C1508 0.929 . S
S1512 N1513 1.613 . S
S1512 N1514 1.610 . S
N1513 S1512 1.613 . S
N1513 C1516 1.350 . S
N1514 S1512 1.610 . S
N1514 C1515 1.351 . S
C1515 C1509 1.428 . S
C1515 N1514 1.351 . S
C1515 C1516 1.434 . S
C1516 C1507 1.429 . S
C1516 N1513 1.350 . S
C1516 C1515 1.434 . S
C1517 C1518 1.369 . S
C1517 C1519 1.419 . S
C1517 H1521 0.930 . S
C1518 C1517 1.369 . S
C1518 C1527 1.429 . S
C1519 C1517 1.419 . S
C1519 C1520 1.363 . S
C1519 H1522 0.929 . S
C1520 C1519 1.363 . S
C1520 C1526 1.428 . S
H1521 C1517 0.930 . S
H1522 C1519 0.929 . S
S1523 N1524 1.613 . S
S1523 N1525 1.610 . S
N1524 S1523 1.613 . S
N1524 C1527 1.350 . S
N1525 S1523 1.610 . S
N1525 C1526 1.351 . S
C1526 C1520 1.428 . S
C1526 N1525 1.351 . S
C1526 C1527 1.434 . S
C1527 C1518 1.429 . S
C1527 N1524 1.350 . S
C1527 C1526 1.434 . S
C1528 C1529 1.369 1_554 S
C1528 C1530 1.419 . S
C1528 H1532 0.930 . S
C1529 C1528 1.369 1_556 S
C1529 C1538 1.429 . S
C1530 C1528 1.419 . S
C1530 C1531 1.363 . S
C1530 H1533 0.929 . S
C1531 C1530 1.363 . S
C1531 C1537 1.428 . S
H1532 C1528 0.930 . S
H1533 C1530 0.929 . S
S1534 N1535 1.613 . S
S1534 N1536 1.610 1_556 S
N1535 S1534 1.613 . S
N1535 C1538 1.350 . S
N1536 S1534 1.610 1_554 S
N1536 C1537 1.351 . S
C1537 C1531 1.428 . S
C1537 N1536 1.351 . S
C1537 C1538 1.434 1_554 S
C1538 C1529 1.429 . S
C1538 N1535 1.350 . S
C1538 C1537 1.434 1_556 S
C1539 C1540 1.369 . S
C1539 C1541 1.419 . S
C1539 H1543 0.930 . S
C1540 C1539 1.369 . S
C1540 C1549 1.429 . S
C1541 C1539 1.419 . S
C1541 C1542 1.363 . S
C1541 H1544 0.929 . S
C1542 C1541 1.363 . S
C1542 C1548 1.428 . S
H1543 C1539 0.930 . S
H1544 C1541 0.929 . S
S1545 N1546 1.613 . S
S1545 N1547 1.610 . S
N1546 S1545 1.613 . S
N1546 C1549 1.350 . S
N1547 S1545 1.610 . S
N1547 C1548 1.351 . S
C1548 C1542 1.428 . S
C1548 N1547 1.351 . S
C1548 C1549 1.434 . S
C1549 C1540 1.429 . S
C1549 N1546 1.350 . S
C1549 C1548 1.434 . S
C1550 C1551 1.369 . S
C1550 C1552 1.419 . S
C1550 H1554 0.930 . S
C1551 C1550 1.369 . S
C1551 C1560 1.429 . S
C1552 C1550 1.419 . S
C1552 C1553 1.363 . S
C1552 H1555 0.929 . S
C1553 C1552 1.363 . S
C1553 C1559 1.428 . S
H1554 C1550 0.930 . S
H1555 C1552 0.929 . S
S1556 N1557 1.613 . S
S1556 N1558 1.610 . S
N1557 S1556 1.613 . S
N1557 C1560 1.350 . S
N1558 S1556 1.610 . S
N1558 C1559 1.351 . S
C1559 C1553 1.428 . S
C1559 N1558 1.351 . S
C1559 C1560 1.434 . S
C1560 C1551 1.429 . S
C1560 N1557 1.350 . S
C1560 C1559 1.434 . S
C1561 C1562 1.369 . S
C1561 C1563 1.419 . S
C1561 H1565 0.930 . S
C1562 C1561 1.369 . S
C1562 C1571 1.429 . S
C1563 C1561 1.419 . S
C1563 C1564 1.363 . S
C1563 H1566 0.929 . S
C1564 C1563 1.363 . S
C1564 C1570 1.428 . S
H1565 C1561 0.930 . S
H1566 C1563 0.929 . S
S1567 N1568 1.613 . S
S1567 N1569 1.610 . S
N1568 S1567 1.613 . S
N1568 C1571 1.350 . S
N1569 S1567 1.610 . S
N1569 C1570 1.351 . S
C1570 C1564 1.428 . S
C1570 N1569 1.351 . S
C1570 C1571 1.434 . S
C1571 C1562 1.429 . S
C1571 N1568 1.350 . S
C1571 C1570 1.434 . S
C1572 C1573 1.369 1_556 S
C1572 C1574 1.419 . S
C1572 H1576 0.930 . S
C1573 C1572 1.369 1_554 S
C1573 C1582 1.429 . S
C1574 C1572 1.419 . S
C1574 C1575 1.363 . S
C1574 H1577 0.929 . S
C1575 C1574 1.363 . S
C1575 C1581 1.428 . S
H1576 C1572 0.930 . S
H1577 C1574 0.929 . S
S1578 N1579 1.613 . S
S1578 N1580 1.610 1_554 S
N1579 S1578 1.613 . S
N1579 C1582 1.350 . S
N1580 S1578 1.610 1_556 S
N1580 C1581 1.351 . S
C1581 C1575 1.428 . S
C1581 N1580 1.351 . S
C1581 C1582 1.434 1_556 S
C1582 C1573 1.429 . S
C1582 N1579 1.350 . S
C1582 C1581 1.434 1_554 S
C1583 C1584 1.369 . S
C1583 C1585 1.419 . S
C1583 H1587 0.930 . S
C1584 C1583 1.369 . S
C1584 C1593 1.429 . S
C1585 C1583 1.419 . S
C1585 C1586 1.363 . S
C1585 H1588 0.929 . S
C1586 C1585 1.363 . S
C1586 C1592 1.428 . S
H1587 C1583 0.930 . S
H1588 C1585 0.929 . S
S1589 N1590 1.613 . S
S1589 N1591 1.610 . S
N1590 S1589 1.613 . S
N1590 C1593 1.350 . S
N1591 S1589 1.610 . S
N1591 C1592 1.351 . S
C1592 C1586 1.428 . S
C1592 N1591 1.351 . S
C1592 C1593 1.434 . S
C1593 C1584 1.429 . S
C1593 N1590 1.350 . S
C1593 C1592 1.434 . S
C1594 C1595 1.369 . S
C1594 C1596 1.419 . S
C1594 H1598 0.930 . S
C1595 C1594 1.369 . S
C1595 C1604 1.429 . S
C1596 C1594 1.419 . S
C1596 C1597 1.363 . S
C1596 H1599 0.929 . S
C1597 C1596 1.363 . S
C1597 C1603 1.428 . S
H1598 C1594 0.930 . S
H1599 C1596 0.929 . S
S1600 N1601 1.613 . S
S1600 N1602 1.610 . S
N1601 S1600 1.613 . S
N1601 C1604 1.350 . S
N1602 S1600 1.610 . S
N1602 C1603 1.351 . S
C1603 C1597 1.428 . S
C1603 N1602 1.351 . S
C1603 C1604 1.434 . S
C1604 C1595 1.429 . S
C1604 N1601 1.350 . S
C1604 C1603 1.434 . S
C1605 C1606 1.369 . S
C1605 C1607 1.419 . S
C1605 H1609 0.930 . S
C1606 C1605 1.369 . S
C1606 C1615 1.429 . S
C1607 C1605 1.419 . S
C1607 C1608 1.363 . S
C1607 H1610 0.929 . S
C1608 C1607 1.363 . S
C1608 C1614 1.428 . S
H1609 C1605 0.930 . S
H1610 C1607 0.929 . S
S1611 N1612 1.613 . S
S1611 N1613 1.610 . S
N1612 S1611 1.613 . S
N1612 C1615 1.350 . S
N1613 S1611 1.610 . S
N1613 C1614 1.351 . S
C1614 C1608 1.428 . S
C1614 N1613 1.351 . S
C1614 C1615 1.434 . S
C1615 C1606 1.429 . S
C1615 N1612 1.350 . S
C1615 C1614 1.434 . S
C1616 C1617 1.369 . S
C1616 C1618 1.419 . S
C1616 H1620 0.930 . S
C1617 C1616 1.369 . S
C1617 C1626 1.429 . S
C1618 C1616 1.419 . S
C1618 C1619 1.363 . S
C1618 H1621 0.929 . S
C1619 C1618 1.363 . S
C1619 C1625 1.428 . S
H1620 C1616 0.930 . S
H1621 C1618 0.929 . S
S1622 N1623 1.613 . S
S1622 N1624 1.610 . S
N1623 S1622 1.613 . S
N1623 C1626 1.350 . S
N1624 S1622 1.610 . S
N1624 C1625 1.351 . S
C1625 C1619 1.428 . S
C1625 N1624 1.351 . S
C1625 C1626 1.434 . S
C1626 C1617 1.429 . S
C1626 N1623 1.350 . S
C1626 C1625 1.434 . S
C1627 C1628 1.369 . S
C1627 C1629 1.419 1_545 S
C1627 H1631 0.930 . S
C1628 C1627 1.369 . S
C1628 C1637 1.429 . S
C1629 C1627 1.419 1_565 S
C1629 C1630 1.363 . S
C1629 H1632 0.929 . S
C1630 C1629 1.363 . S
C1630 C1636 1.428 . S
H1631 C1627 0.930 . S
H1632 C1629 0.929 . S
S1633 N1634 1.613 1_565 S
S1633 N1635 1.610 . S
N1634 S1633 1.613 1_545 S
N1634 C1637 1.350 . S
N1635 S1633 1.610 . S
N1635 C1636 1.351 . S
C1636 C1630 1.428 . S
C1636 N1635 1.351 . S
C1636 C1637 1.434 1_565 S
C1637 C1628 1.429 . S
C1637 N1634 1.350 . S
C1637 C1636 1.434 1_545 S
C1638 C1639 1.369 . S
C1638 C1640 1.419 . S
C1638 H1642 0.930 . S
C1639 C1638 1.369 . S
C1639 C1648 1.429 . S
C1640 C1638 1.419 . S
C1640 C1641 1.363 . S
C1640 H1643 0.929 . S
C1641 C1640 1.363 . S
C1641 C1647 1.428 . S
H1642 C1638 0.930 . S
H1643 C1640 0.929 . S
S1644 N1645 1.613 . S
S1644 N1646 1.610 . S
N1645 S1644 1.613 . S
N1645 C1648 1.350 . S
N1646 S1644 1.610 . S
N1646 C1647 1.351 . S
C1647 C1641 1.428 . S
C1647 N1646 1.351 . S
C1647 C1648 1.434 . S
C1648 C1639 1.429 . S
C1648 N1645 1.350 . S
C1648 C1647 1.434 . S
C1649 C1650 1.369 1_545 S
C1649 C1651 1.419 1_554 S
C1649 H1653 0.930 . S
C1650 C1649 1.369 1_565 S
C1650 C1659 1.429 . S
C1651 C1649 1.419 1_556 S
C1651 C1652 1.363 . S
C1651 H1654 0.929 . S
C1652 C1651 1.363 . S
C1652 C1658 1.428 1_545 S
H1653 C1649 0.930 . S
H1654 C1651 0.929 . S
S1655 N1656 1.613 1_556 S
S1655 N1657 1.610 . S
N1656 S1655 1.613 1_554 S
N1656 C1659 1.350 . S
N1657 S1655 1.610 . S
N1657 C1658 1.351 . S
C1658 C1652 1.428 1_565 S
C1658 N1657 1.351 . S
C1658 C1659 1.434 1_556 S
C1659 C1650 1.429 . S
C1659 N1656 1.350 . S
C1659 C1658 1.434 1_554 S
C1660 C1661 1.369 . S
C1660 C1662 1.419 . S
C1660 H1664 0.930 . S
C1661 C1660 1.369 . S
C1661 C1670 1.429 . S
C1662 C1660 1.419 . S
C1662 C1663 1.363 . S
C1662 H1665 0.929 . S
C1663 C1662 1.363 . S
C1663 C1669 1.428 . S
H1664 C1660 0.930 . S
H1665 C1662 0.929 . S
S1666 N1667 1.613 . S
S1666 N1668 1.610 . S
N1667 S1666 1.613 . S
N1667 C1670 1.350 . S
N1668 S1666 1.610 . S
N1668 C1669 1.351 . S
C1669 C1663 1.428 . S
C1669 N1668 1.351 . S
C1669 C1670 1.434 . S
C1670 C1661 1.429 . S
C1670 N1667 1.350 . S
C1670 C1669 1.434 . S
C1671 C1672 1.369 1_565 S
C1671 C1673 1.419 . S
C1671 H1675 0.930 . S
C1672 C1671 1.369 1_545 S
C1672 C1681 1.429 . S
C1673 C1671 1.419 . S
C1673 C1674 1.363 . S
C1673 H1676 0.929 . S
C1674 C1673 1.363 . S
C1674 C1680 1.428 1_565 S
H1675 C1671 0.930 . S
H1676 C1673 0.929 . S
S1677 N1678 1.613 . S
S1677 N1679 1.610 . S
N1678 S1677 1.613 . S
N1678 C1681 1.350 . S
N1679 S1677 1.610 . S
N1679 C1680 1.351 . S
C1680 C1674 1.428 1_545 S
C1680 N1679 1.351 . S
C1680 C1681 1.434 . S
C1681 C1672 1.429 . S
C1681 N1678 1.350 . S
C1681 C1680 1.434 . S
C1682 C1683 1.369 . S
C1682 C1684 1.419 . S
C1682 H1686 0.930 . S
C1683 C1682 1.369 . S
C1683 C1692 1.429 . S
C1684 C1682 1.419 . S
C1684 C1685 1.363 . S
C1684 H1687 0.929 . S
C1685 C1684 1.363 . S
C1685 C1691 1.428 . S
H1686 C1682 0.930 . S
H1687 C1684 0.929 . S
S1688 N1689 1.613 . S
S1688 N1690 1.610 . S
N1689 S1688 1.613 . S
N1689 C1692 1.350 . S
N1690 S1688 1.610 . S
N1690 C1691 1.351 . S
C1691 C1685 1.428 . S
C1691 N1690 1.351 . S
C1691 C1692 1.434 . S
C1692 C1683 1.429 . S
C1692 N1689 1.350 . S
C1692 C1691 1.434 . S
C1693 C1694 1.369 1_565 S
C1693 C1695 1.419 1_556 S
C1693 H1697 0.930 . S
C1694 C1693 1.369 1_545 S
C1694 C1703 1.429 . S
C1695 C1693 1.419 1_554 S
C1695 C1696 1.363 . S
C1695 H1698 0.929 . S
C1696 C1695 1.363 . S
C1696 C1702 1.428 1_565 S
H1697 C1693 0.930 . S
H1698 C1695 0.929 . S
S1699 N1700 1.613 1_554 S
S1699 N1701 1.610 . S
N1700 S1699 1.613 1_556 S
N1700 C1703 1.350 . S
N1701 S1699 1.610 . S
N1701 C1702 1.351 . S
C1702 C1696 1.428 1_545 S
C1702 N1701 1.351 . S
C1702 C1703 1.434 1_554 S
C1703 C1694 1.429 . S
C1703 N1700 1.350 . S
C1703 C1702 1.434 1_556 S
C1704 C1705 1.369 . S
C1704 C1706 1.419 . S
C1704 H1708 0.930 . S
C1705 C1704 1.369 . S
C1705 C1714 1.429 . S
C1706 C1704 1.419 . S
C1706 C1707 1.363 . S
C1706 H1709 0.929 . S
C1707 C1706 1.363 . S
C1707 C1713 1.428 . S
H1708 C1704 0.930 . S
H1709 C1706 0.929 . S
S1710 N1711 1.613 . S
S1710 N1712 1.610 . S
N1711 S1710 1.613 . S
N1711 C1714 1.350 . S
N1712 S1710 1.610 . S
N1712 C1713 1.351 . S
C1713 C1707 1.428 . S
C1713 N1712 1.351 . S
C1713 C1714 1.434 . S
C1714 C1705 1.429 . S
C1714 N1711 1.350 . S
C1714 C1713 1.434 . S
C1715 C1716 1.369 . S
C1715 C1717 1.419 1_556 S
C1715 H1719 0.930 . S
C1716 C1715 1.369 . S
C1716 C1725 1.429 . S
C1717 C1715 1.419 1_554 S
C1717 C1718 1.363 . S
C1717 H1720 0.929 . S
C1718 C1717 1.363 . S
C1718 C1724 1.428 . S
H1719 C1715 0.930 . S
H1720 C1717 0.929 . S
S1721 N1722 1.613 1_554 S
S1721 N1723 1.610 . S
N1722 S1721 1.613 1_556 S
N1722 C1725 1.350 . S
N1723 S1721 1.610 . S
N1723 C1724 1.351 . S
C1724 C1718 1.428 . S
C1724 N1723 1.351 . S
C1724 C1725 1.434 1_554 S
C1725 C1716 1.429 . S
C1725 N1722 1.350 . S
C1725 C1724 1.434 1_556 S
C1726 C1727 1.369 . S
C1726 C1728 1.419 . S
C1726 H1730 0.930 . S
C1727 C1726 1.369 . S
C1727 C1736 1.429 . S
C1728 C1726 1.419 . S
C1728 C1729 1.363 . S
C1728 H1731 0.929 . S
C1729 C1728 1.363 . S
C1729 C1735 1.428 . S
H1730 C1726 0.930 . S
H1731 C1728 0.929 . S
S1732 N1733 1.613 . S
S1732 N1734 1.610 . S
N1733 S1732 1.613 . S
N1733 C1736 1.350 . S
N1734 S1732 1.610 . S
N1734 C1735 1.351 . S
C1735 C1729 1.428 . S
C1735 N1734 1.351 . S
C1735 C1736 1.434 . S
C1736 C1727 1.429 . S
C1736 N1733 1.350 . S
C1736 C1735 1.434 . S
C1737 C1738 1.369 . S
C1737 C1739 1.419 . S
C1737 H1741 0.930 . S
C1738 C1737 1.369 . S
C1738 C1747 1.429 . S
C1739 C1737 1.419 . S
C1739 C1740 1.363 . S
C1739 H1742 0.929 . S
C1740 C1739 1.363 . S
C1740 C1746 1.428 . S
H1741 C1737 0.930 . S
H1742 C1739 0.929 . S
S1743 N1744 1.613 . S
S1743 N1745 1.610 . S
N1744 S1743 1.613 . S
N1744 C1747 1.350 . S
N1745 S1743 1.610 . S
N1745 C1746 1.351 . S
C1746 C1740 1.428 . S
C1746 N1745 1.351 . S
C1746 C1747 1.434 . S
C1747 C1738 1.429 . S
C1747 N1744 1.350 . S
C1747 C1746 1.434 . S
C1748 C1749 1.369 . S
C1748 C1750 1.419 . S
C1748 H1752 0.930 . S
C1749 C1748 1.369 . S
C1749 C1758 1.429 . S
C1750 C1748 1.419 . S
C1750 C1751 1.363 . S
C1750 H1753 0.929 . S
C1751 C1750 1.363 . S
C1751 C1757 1.428 . S
H1752 C1748 0.930 . S
H1753 C1750 0.929 . S
S1754 N1755 1.613 . S
S1754 N1756 1.610 . S
N1755 S1754 1.613 . S
N1755 C1758 1.350 . S
N1756 S1754 1.610 . S
N1756 C1757 1.351 . S
C1757 C1751 1.428 . S
C1757 N1756 1.351 . S
C1757 C1758 1.434 . S
C1758 C1749 1.429 . S
C1758 N1755 1.350 . S
C1758 C1757 1.434 . S
C1759 C1760 1.369 . S
C1759 C1761 1.419 1_556 S
C1759 H1763 0.930 . S
C1760 C1759 1.369 . S
C1760 C1769 1.429 . S
C1761 C1759 1.419 1_554 S
C1761 C1762 1.363 . S
C1761 H1764 0.929 . S
C1762 C1761 1.363 . S
C1762 C1768 1.428 . S
H1763 C1759 0.930 . S
H1764 C1761 0.929 . S
S1765 N1766 1.613 . S
S1765 N1767 1.610 1_556 S
N1766 S1765 1.613 . S
N1766 C1769 1.350 . S
N1767 S1765 1.610 1_554 S
N1767 C1768 1.351 . S
C1768 C1762 1.428 . S
C1768 N1767 1.351 . S
C1768 C1769 1.434 1_554 S
C1769 C1760 1.429 . S
C1769 N1766 1.350 . S
C1769 C1768 1.434 1_556 S
C1770 C1771 1.369 . S
C1770 C1772 1.419 . S
C1770 H1774 0.930 . S
C1771 C1770 1.369 . S
C1771 C1780 1.429 . S
C1772 C1770 1.419 . S
C1772 C1773 1.363 . S
C1772 H1775 0.929 . S
C1773 C1772 1.363 . S
C1773 C1779 1.428 . S
H1774 C1770 0.930 . S
H1775 C1772 0.929 . S
S1776 N1777 1.613 . S
S1776 N1778 1.610 . S
N1777 S1776 1.613 . S
N1777 C1780 1.350 . S
N1778 S1776 1.610 . S
N1778 C1779 1.351 . S
C1779 C1773 1.428 . S
C1779 N1778 1.351 . S
C1779 C1780 1.434 . S
C1780 C1771 1.429 . S
C1780 N1777 1.350 . S
C1780 C1779 1.434 . S
C1781 C1782 1.369 . S
C1781 C1783 1.419 . S
C1781 H1785 0.930 . S
C1782 C1781 1.369 . S
C1782 C1791 1.429 . S
C1783 C1781 1.419 . S
C1783 C1784 1.363 . S
C1783 H1786 0.929 . S
C1784 C1783 1.363 . S
C1784 C1790 1.428 . S
H1785 C1781 0.930 . S
H1786 C1783 0.929 . S
S1787 N1788 1.613 . S
S1787 N1789 1.610 . S
N1788 S1787 1.613 . S
N1788 C1791 1.350 . S
N1789 S1787 1.610 . S
N1789 C1790 1.351 . S
C1790 C1784 1.428 . S
C1790 N1789 1.351 . S
C1790 C1791 1.434 . S
C1791 C1782 1.429 . S
C1791 N1788 1.350 . S
C1791 C1790 1.434 . S
C1792 C1793 1.369 . S
C1792 C1794 1.419 . S
C1792 H1796 0.930 . S
C1793 C1792 1.369 . S
C1793 C1802 1.429 . S
C1794 C1792 1.419 . S
C1794 C1795 1.363 . S
C1794 H1797 0.929 . S
C1795 C1794 1.363 . S
C1795 C1801 1.428 . S
H1796 C1792 0.930 . S
H1797 C1794 0.929 . S
S1798 N1799 1.613 . S
S1798 N1800 1.610 . S
N1799 S1798 1.613 . S
N1799 C1802 1.350 . S
N1800 S1798 1.610 . S
N1800 C1801 1.351 . S
C1801 C1795 1.428 . S
C1801 N1800 1.351 . S
C1801 C1802 1.434 . S
C1802 C1793 1.429 . S
C1802 N1799 1.350 . S
C1802 C1801 1.434 . S
C1803 C1804 1.369 . S
C1803 C1805 1.419 . S
C1803 H1807 0.930 1_554 S
C1804 C1803 1.369 . S
C1804 C1813 1.429 . S
C1805 C1803 1.419 . S
C1805 C1806 1.363 . S
C1805 H1808 0.929 . S
C1806 C1805 1.363 . S
C1806 C1812 1.428 . S
H1807 C1803 0.930 1_556 S
H1808 C1805 0.929 . S
S1809 N1810 1.613 . S
S1809 N1811 1.610 . S
N1810 S1809 1.613 . S
N1810 C1813 1.350 . S
N1811 S1809 1.610 . S
N1811 C1812 1.351 . S
C1812 C1806 1.428 . S
C1812 N1811 1.351 . S
C1812 C1813 1.434 . S
C1813 C1804 1.429 . S
C1813 N1810 1.350 . S
C1813 C1812 1.434 . S
C1814 C1815 1.369 . S
C1814 C1816 1.419 . S
C1814 H1818 0.930 . S
C1815 C1814 1.369 . S
C1815 C1824 1.429 . S
C1816 C1814 1.419 . S
C1816 C1817 1.363 . S
C1816 H1819 0.929 . S
C1817 C1816 1.363 . S
C1817 C1823 1.428 . S
H1818 C1814 0.930 . S
H1819 C1816 0.929 . S
S1820 N1821 1.613 . S
S1820 N1822 1.610 . S
N1821 S1820 1.613 . S
N1821 C1824 1.350 . S
N1822 S1820 1.610 . S
N1822 C1823 1.351 . S
C1823 C1817 1.428 . S
C1823 N1822 1.351 . S
C1823 C1824 1.434 . S
C1824 C1815 1.429 . S
C1824 N1821 1.350 . S
C1824 C1823 1.434 . S
C1825 C1826 1.369 . S
C1825 C1827 1.419 . S
C1825 H1829 0.930 . S
C1826 C1825 1.369 . S
C1826 C1835 1.429 . S
C1827 C1825 1.419 . S
C1827 C1828 1.363 . S
C1827 H1830 0.929 . S
C1828 C1827 1.363 . S
C1828 C1834 1.428 . S
H1829 C1825 0.930 . S
H1830 C1827 0.929 . S
S1831 N1832 1.613 . S
S1831 N1833 1.610 . S
N1832 S1831 1.613 . S
N1832 C1835 1.350 . S
N1833 S1831 1.610 . S
N1833 C1834 1.351 . S
C1834 C1828 1.428 . S
C1834 N1833 1.351 . S
C1834 C1835 1.434 . S
C1835 C1826 1.429 . S
C1835 N1832 1.350 . S
C1835 C1834 1.434 . S
C1836 C1837 1.369 . S
C1836 C1838 1.419 . S
C1836 H1840 0.930 . S
C1837 C1836 1.369 . S
C1837 C1846 1.429 . S
C1838 C1836 1.419 . S
C1838 C1839 1.363 . S
C1838 H1841 0.929 . S
C1839 C1838 1.363 . S
C1839 C1845 1.428 . S
H1840 C1836 0.930 . S
H1841 C1838 0.929 . S
S1842 N1843 1.613 . S
S1842 N1844 1.610 1_556 S
N1843 S1842 1.613 . S
N1843 C1846 1.350 1_556 S
N1844 S1842 1.610 1_554 S
N1844 C1845 1.351 . S
C1845 C1839 1.428 . S
C1845 N1844 1.351 . S
C1845 C1846 1.434 . S
C1846 C1837 1.429 . S
C1846 N1843 1.350 1_554 S
C1846 C1845 1.434 . S
C1847 C1848 1.369 . S
C1847 C1849 1.419 . S
C1847 H1851 0.930 1_556 S
C1848 C1847 1.369 . S
C1848 C1857 1.429 . S
C1849 C1847 1.419 . S
C1849 C1850 1.363 . S
C1849 H1852 0.929 . S
C1850 C1849 1.363 . S
C1850 C1856 1.428 . S
H1851 C1847 0.930 1_554 S
H1852 C1849 0.929 . S
S1853 N1854 1.613 . S
S1853 N1855 1.610 . S
N1854 S1853 1.613 . S
N1854 C1857 1.350 . S
N1855 S1853 1.610 . S
N1855 C1856 1.351 . S
C1856 C1850 1.428 . S
C1856 N1855 1.351 . S
C1856 C1857 1.434 . S
C1857 C1848 1.429 . S
C1857 N1854 1.350 . S
C1857 C1856 1.434 . S
C1858 C1859 1.369 . S
C1858 C1860 1.419 . S
C1858 H1862 0.930 . S
C1859 C1858 1.369 . S
C1859 C1868 1.429 . S
C1860 C1858 1.419 . S
C1860 C1861 1.363 . S
C1860 H1863 0.929 . S
C1861 C1860 1.363 . S
C1861 C1867 1.428 . S
H1862 C1858 0.930 . S
H1863 C1860 0.929 . S
S1864 N1865 1.613 . S
S1864 N1866 1.610 . S
N1865 S1864 1.613 . S
N1865 C1868 1.350 . S
N1866 S1864 1.610 . S
N1866 C1867 1.351 . S
C1867 C1861 1.428 . S
C1867 N1866 1.351 . S
C1867 C1868 1.434 . S
C1868 C1859 1.429 . S
C1868 N1865 1.350 . S
C1868 C1867 1.434 . S
C1869 C1870 1.369 . S
C1869 C1871 1.419 . S
C1869 H1873 0.930 . S
C1870 C1869 1.369 . S
C1870 C1879 1.429 . S
C1871 C1869 1.419 . S
C1871 C1872 1.363 . S
C1871 H1874 0.929 . S
C1872 C1871 1.363 . S
C1872 C1878 1.428 . S
H1873 C1869 0.930 . S
H1874 C1871 0.929 . S
S1875 N1876 1.613 . S
S1875 N1877 1.610 . S
N1876 S1875 1.613 . S
N1876 C1879 1.350 . S
N1877 S1875 1.610 . S
N1877 C1878 1.351 . S
C1878 C1872 1.428 . S
C1878 N1877 1.351 . S
C1878 C1879 1.434 . S
C1879 C1870 1.429 . S
C1879 N1876 1.350 . S
C1879 C1878 1.434 . S
C1880 C1881 1.369 . S
C1880 C1882 1.419 . S
C1880 H1884 0.930 . S
C1881 C1880 1.369 . S
C1881 C1890 1.429 . S
C1882 C1880 1.419 . S
C1882 C1883 1.363 . S
C1882 H1885 0.929 . S
C1883 C1882 1.363 . S
C1883 C1889 1.428 . S
H1884 C1880 0.930 . S
H1885 C1882 0.929 . S
S1886 N1887 1.613 . S
S1886 N1888 1.610 . S
N1887 S1886 1.613 . S
N1887 C1890 1.350 . S
N1888 S1886 1.610 . S
N1888 C1889 1.351 . S
C1889 C1883 1.428 . S
C1889 N1888 1.351 . S
C1889 C1890 1.434 . S
C1890 C1881 1.429 . S
C1890 N1887 1.350 . S
C1890 C1889 1.434 . S
C1891 C1892 1.369 . S
C1891 C1893 1.419 . S
C1891 H1895 0.930 . S
C1892 C1891 1.369 . S
C1892 C1901 1.429 . S
C1893 C1891 1.419 . S
C1893 C1894 1.363 . S
C1893 H1896 0.929 . S
C1894 C1893 1.363 . S
C1894 C1900 1.428 . S
H1895 C1891 0.930 . S
H1896 C1893 0.929 . S
S1897 N1898 1.613 . S
S1897 N1899 1.610 . S
N1898 S1897 1.613 . S
N1898 C1901 1.350 . S
N1899 S1897 1.610 . S
N1899 C1900 1.351 . S
C1900 C1894 1.428 . S
C1900 N1899 1.351 . S
C1900 C1901 1.434 . S
C1901 C1892 1.429 . S
C1901 N1898 1.350 . S
C1901 C1900 1.434 . S
C1902 C1903 1.369 . S
C1902 C1904 1.419 . S
C1902 H1906 0.930 . S
C1903 C1902 1.369 . S
C1903 C1912 1.429 . S
C1904 C1902 1.419 . S
C1904 C1905 1.363 . S
C1904 H1907 0.926 1_556 S
C1905 C1904 1.363 . S
C1905 C1911 1.428 . S
H1906 C1902 0.930 . S
H1907 C1904 0.926 1_554 S
S1908 N1909 1.613 . S
S1908 N1910 1.610 . S
N1909 S1908 1.613 . S
N1909 C1912 1.350 . S
N1910 S1908 1.610 . S
N1910 C1911 1.351 . S
C1911 C1905 1.428 . S
C1911 N1910 1.351 . S
C1911 C1912 1.434 . S
C1912 C1903 1.429 . S
C1912 N1909 1.350 . S
C1912 C1911 1.434 . S
C1913 C1914 1.369 . S
C1913 C1915 1.419 . S
C1913 H1917 0.930 . S
C1914 C1913 1.369 . S
C1914 C1923 1.429 . S
C1915 C1913 1.419 . S
C1915 C1916 1.363 . S
C1915 H1918 0.929 1_554 S
C1916 C1915 1.363 . S
C1916 C1922 1.428 . S
H1917 C1913 0.930 . S
H1918 C1915 0.929 1_556 S
S1919 N1920 1.613 . S
S1919 N1921 1.610 . S
N1920 S1919 1.613 . S
N1920 C1923 1.350 . S
N1921 S1919 1.610 . S
N1921 C1922 1.351 . S
C1922 C1916 1.428 . S
C1922 N1921 1.351 . S
C1922 C1923 1.434 . S
C1923 C1914 1.429 . S
C1923 N1920 1.350 . S
C1923 C1922 1.434 . S
C1924 C1925 1.369 . S
C1924 C1926 1.419 . S
C1924 H1928 0.930 . S
C1925 C1924 1.369 . S
C1925 C1934 1.429 . S
C1926 C1924 1.419 . S
C1926 C1927 1.363 . S
C1926 H1929 0.929 . S
C1927 C1926 1.363 . S
C1927 C1933 1.428 . S
H1928 C1924 0.930 . S
H1929 C1926 0.929 . S
S1930 N1931 1.613 . S
S1930 N1932 1.610 . S
N1931 S1930 1.613 . S
N1931 C1934 1.350 . S
N1932 S1930 1.610 . S
N1932 C1933 1.351 . S
C1933 C1927 1.428 . S
C1933 N1932 1.351 . S
C1933 C1934 1.434 . S
C1934 C1925 1.429 . S
C1934 N1931 1.350 . S
C1934 C1933 1.434 . S
C1935 C1936 1.369 . S
C1935 C1937 1.419 . S
C1935 H1939 0.930 . S
C1936 C1935 1.369 . S
C1936 C1945 1.429 . S
C1937 C1935 1.419 . S
C1937 C1938 1.363 . S
C1937 H1940 0.929 . S
C1938 C1937 1.363 . S
C1938 C1944 1.428 . S
H1939 C1935 0.930 . S
H1940 C1937 0.929 . S
S1941 N1942 1.613 . S
S1941 N1943 1.610 . S
N1942 S1941 1.613 . S
N1942 C1945 1.350 . S
N1943 S1941 1.610 . S
N1943 C1944 1.351 . S
C1944 C1938 1.428 . S
C1944 N1943 1.351 . S
C1944 C1945 1.434 . S
C1945 C1936 1.429 . S
C1945 N1942 1.350 . S
C1945 C1944 1.434 . S
C1946 C1947 1.369 . S
C1946 C1948 1.419 . S
C1946 H1950 0.930 . S
C1947 C1946 1.369 . S
C1947 C1956 1.429 . S
C1948 C1946 1.419 . S
C1948 C1949 1.363 . S
C1948 H1951 0.929 1_554 S
C1949 C1948 1.363 . S
C1949 C1955 1.428 . S
H1950 C1946 0.930 . S
H1951 C1948 0.929 1_556 S
S1952 N1953 1.613 . S
S1952 N1954 1.610 . S
N1953 S1952 1.613 . S
N1953 C1956 1.350 . S
N1954 S1952 1.610 . S
N1954 C1955 1.351 . S
C1955 C1949 1.428 . S
C1955 N1954 1.351 . S
C1955 C1956 1.434 . S
C1956 C1947 1.429 . S
C1956 N1953 1.350 . S
C1956 C1955 1.434 . S
C1957 C1958 1.369 . S
C1957 C1959 1.419 . S
C1957 H1961 0.930 . S
C1958 C1957 1.369 . S
C1958 C1967 1.429 . S
C1959 C1957 1.419 . S
C1959 C1960 1.363 . S
C1959 H1962 0.929 . S
C1960 C1959 1.363 . S
C1960 C1966 1.428 . S
H1961 C1957 0.930 . S
H1962 C1959 0.929 . S
S1963 N1964 1.613 . S
S1963 N1965 1.610 . S
N1964 S1963 1.613 . S
N1964 C1967 1.350 . S
N1965 S1963 1.610 . S
N1965 C1966 1.351 . S
C1966 C1960 1.428 . S
C1966 N1965 1.351 . S
C1966 C1967 1.434 . S
C1967 C1958 1.429 . S
C1967 N1964 1.350 . S
C1967 C1966 1.434 . S
C1089 C1022 1.698 . S
C1091 C2 1.698 . S
C1100 C36 1.698 . S
C1102 C512 1.698 . S
C1111 C70 1.699 . S
C1113 C954 1.699 . S
C1122 C104 1.698 . S
C1124 C444 1.698 . S
C1133 C886 1.698 . S
C1135 C138 1.698 . S
C1144 C376 1.699 . S
C1146 C172 1.699 . S
C1155 C206 1.698 . S
C1157 C818 1.698 . S
C1166 C308 1.698 . S
C1168 C240 1.698 . S
C1177 C750 1.698 . S
C1179 C274 1.698 . S
C1188 C682 1.699 . S
C1190 C342 1.699 . S
C1199 C410 1.698 . S
C1201 C614 1.698 . S
C1210 C546 1.699 . S
C1212 C478 1.699 . S
C1221 C1056 1.698 . S
C1223 C580 1.698 . S
C1232 C988 1.699 . S
C1234 C648 1.699 . S
C1243 C920 1.698 . S
C1245 C716 1.698 . S
C1254 C852 1.699 . S
C1256 C784 1.699 . S
C1265 C5 1.273 . S
C1267 C9 1.304 . S
C1276 C39 1.272 . S
C1278 C43 1.306 . S
C1287 C73 1.272 . S
C1289 C77 1.305 . S
C1298 C107 1.262 . S
C1300 C111 1.306 . S
C1309 C141 1.273 . S
C1311 C145 1.305 . S
C1320 C175 1.261 . S
C1322 C179 1.308 . S
C1331 C213 1.301 . S
C1333 C209 1.269 . S
C1342 C243 1.264 . S
C1344 C247 1.308 . S
C1353 C277 1.263 . S
C1355 C281 1.304 . S
C1364 C315 1.305 . S
C1366 C311 1.271 . S
C1375 C345 1.262 . S
C1377 C349 1.308 . S
C1386 C379 1.268 . S
C1388 C383 1.303 . S
C1397 C413 1.265 . S
C1399 C417 1.303 . S
C1408 C451 1.304 . S
C1410 C447 1.272 . S
C1419 C481 1.268 . S
C1421 C485 1.308 . S
C1430 C519 1.306 . S
C1432 C515 1.262 . S
C1441 C553 1.302 . S
C1443 C549 1.268 . S
C1452 C583 1.273 . S
C1454 C587 1.303 . S
C1463 C621 1.301 . S
C1465 C617 1.269 . S
C1474 C655 1.308 . S
C1476 C651 1.262 . S
C1485 C689 1.309 . S
C1487 C685 1.263 . S
C1496 C723 1.307 . S
C1498 C719 1.262 . S
C1507 C757 1.308 . S
C1509 C753 1.262 . S
C1518 C791 1.303 . S
C1520 C787 1.272 . S
C1529 C825 1.303 . S
C1531 C821 1.272 . S
C1540 C859 1.307 . S
C1542 C855 1.263 . S
C1551 C889 1.273 . S
C1553 C893 1.303 . S
C1562 C927 1.305 . S
C1564 C923 1.271 . S
C1573 C961 1.307 . S
C1575 C957 1.270 . S
C1584 C995 1.301 . S
C1586 C991 1.267 . S
C1595 C1025 1.271 . S
C1597 C1029 1.306 . S
C1606 C1059 1.263 . S
C1608 C1063 1.305 . S
C1617 C237 1.530 . S
C1619 C33 1.522 . S
C1628 C271 1.526 . S
C1630 C67 1.523 . S
C1639 C101 1.528 . S
C1641 C169 1.526 . S
C1650 C203 1.520 . S
C1652 C135 1.530 . S
C1661 C305 1.532 . S
C1663 C509 1.522 . S
C1672 C339 1.520 . S
C1674 C543 1.529 . S
C1683 C373 1.528 . S
C1685 C441 1.527 . S
C1694 C475 1.522 . S
C1696 C407 1.531 . S
C1705 C781 1.525 . S
C1707 C577 1.529 . S
C1716 C611 1.520 . S
C1718 C815 1.529 . S
C1727 C713 1.532 . S
C1729 C645 1.523 . S
C1738 C747 1.521 . S
C1740 C679 1.530 . S
C1749 C849 1.529 . S
C1751 C1053 1.522 . S
C1760 C1087 1.532 . S
C1762 C883 1.522 . S
C1771 C917 1.524 . S
C1773 C985 1.530 . S
C1782 C1019 1.531 . S
C1784 C951 1.523 . S
C1793 C20 1.726 . S
C1795 C258 1.725 . S
C1804 C156 1.723 . S
C1806 C54 1.728 . S
C1815 C88 1.723 . S
C1817 C190 1.729 . S
C1826 C122 1.726 . S
C1828 C224 1.729 . S
C1837 C292 1.730 . S
C1839 C530 1.724 . S
C1848 C428 1.723 . S
C1850 C326 1.729 . S
C1859 C360 1.730 . S
C1861 C462 1.724 . S
C1870 C394 1.725 . S
C1872 C496 1.725 . S
C1881 C802 1.731 . S
C1883 C564 1.725 . S
C1892 C700 1.723 . S
C1894 C598 1.730 . S
C1903 C734 1.729 . S
C1905 C632 1.724 . S
C1914 C666 1.730 . S
C1916 C768 1.726 . S
C1925 C836 1.729 . S
C1927 C1074 1.728 . S
C1936 C870 1.729 . S
C1938 C972 1.727 . S
C1947 C1006 1.728 . S
C1949 C904 1.724 . S
C1958 C1040 1.723 . S
C1960 C938 1.728 . S
