# Generated by pormake.
# Topology wmi, (6)-cn, num edge types: 1
# Building blocks:
#     Node 0, Type 0, BuildingBlock: BETFAJ_clean_sbu_0, # of connection points: 6
#     Node 1, Type 0, BuildingBlock: BETFAJ_clean_sbu_0, # of connection points: 6
#     Node 2, Type 0, BuildingBlock: BETFAJ_clean_sbu_0, # of connection points: 6
#     Node 3, Type 0, BuildingBlock: BETFAJ_clean_sbu_0, # of connection points: 6
#     Node 4, Type 0, BuildingBlock: BETFAJ_clean_sbu_0, # of connection points: 6
#     Node 5, Type 0, BuildingBlock: BETFAJ_clean_sbu_0, # of connection points: 6
#     Node 6, Type 0, BuildingBlock: BETFAJ_clean_sbu_0, # of connection points: 6
#     Node 7, Type 0, BuildingBlock: BETFAJ_clean_sbu_0, # of connection points: 6
#     Node 8, Type 0, BuildingBlock: BETFAJ_clean_sbu_0, # of connection points: 6
#     Node 9, Type 0, BuildingBlock: BETFAJ_clean_sbu_0, # of connection points: 6
#     Node 10, Type 0, BuildingBlock: BETFAJ_clean_sbu_0, # of connection points: 6
#     Node 11, Type 0, BuildingBlock: BETFAJ_clean_sbu_0, # of connection points: 6
#     Node 12, Type 0, BuildingBlock: BETFAJ_clean_sbu_0, # of connection points: 6
#     Node 13, Type 0, BuildingBlock: BETFAJ_clean_sbu_0, # of connection points: 6
#     Node 14, Type 0, BuildingBlock: BETFAJ_clean_sbu_0, # of connection points: 6
#     Node 15, Type 0, BuildingBlock: BETFAJ_clean_sbu_0, # of connection points: 6
#     Node 16, Type 0, BuildingBlock: BETFAJ_clean_sbu_0, # of connection points: 6
#     Node 17, Type 0, BuildingBlock: BETFAJ_clean_sbu_0, # of connection points: 6
#     Edge 18, Type (0, 0), BuildingBlock: OJICUG_clean_linker_0, # of connection points: 2
#     Edge 19, Type (0, 0), BuildingBlock: OJICUG_clean_linker_0, # of connection points: 2
#     Edge 20, Type (0, 0), BuildingBlock: OJICUG_clean_linker_0, # of connection points: 2
#     Edge 21, Type (0, 0), BuildingBlock: OJICUG_clean_linker_0, # of connection points: 2
#     Edge 22, Type (0, 0), BuildingBlock: OJICUG_clean_linker_0, # of connection points: 2
#     Edge 23, Type (0, 0), BuildingBlock: OJICUG_clean_linker_0, # of connection points: 2
#     Edge 24, Type (0, 0), BuildingBlock: OJICUG_clean_linker_0, # of connection points: 2
#     Edge 25, Type (0, 0), BuildingBlock: OJICUG_clean_linker_0, # of connection points: 2
#     Edge 26, Type (0, 0), BuildingBlock: OJICUG_clean_linker_0, # of connection points: 2
#     Edge 27, Type (0, 0), BuildingBlock: OJICUG_clean_linker_0, # of connection points: 2
#     Edge 28, Type (0, 0), BuildingBlock: OJICUG_clean_linker_0, # of connection points: 2
#     Edge 29, Type (0, 0), BuildingBlock: OJICUG_clean_linker_0, # of connection points: 2
#     Edge 30, Type (0, 0), BuildingBlock: OJICUG_clean_linker_0, # of connection points: 2
#     Edge 31, Type (0, 0), BuildingBlock: OJICUG_clean_linker_0, # of connection points: 2
#     Edge 32, Type (0, 0), BuildingBlock: OJICUG_clean_linker_0, # of connection points: 2
#     Edge 33, Type (0, 0), BuildingBlock: OJICUG_clean_linker_0, # of connection points: 2
#     Edge 34, Type (0, 0), BuildingBlock: OJICUG_clean_linker_0, # of connection points: 2
#     Edge 35, Type (0, 0), BuildingBlock: OJICUG_clean_linker_0, # of connection points: 2
#     Edge 36, Type (0, 0), BuildingBlock: OJICUG_clean_linker_0, # of connection points: 2
#     Edge 37, Type (0, 0), BuildingBlock: OJICUG_clean_linker_0, # of connection points: 2
#     Edge 38, Type (0, 0), BuildingBlock: OJICUG_clean_linker_0, # of connection points: 2
#     Edge 39, Type (0, 0), BuildingBlock: OJICUG_clean_linker_0, # of connection points: 2
#     Edge 40, Type (0, 0), BuildingBlock: OJICUG_clean_linker_0, # of connection points: 2
#     Edge 41, Type (0, 0), BuildingBlock: OJICUG_clean_linker_0, # of connection points: 2
#     Edge 42, Type (0, 0), BuildingBlock: OJICUG_clean_linker_0, # of connection points: 2
#     Edge 43, Type (0, 0), BuildingBlock: OJICUG_clean_linker_0, # of connection points: 2
#     Edge 44, Type (0, 0), BuildingBlock: OJICUG_clean_linker_0, # of connection points: 2
#     Edge 45, Type (0, 0), BuildingBlock: OJICUG_clean_linker_0, # of connection points: 2
#     Edge 46, Type (0, 0), BuildingBlock: OJICUG_clean_linker_0, # of connection points: 2
#     Edge 47, Type (0, 0), BuildingBlock: OJICUG_clean_linker_0, # of connection points: 2
#     Edge 48, Type (0, 0), BuildingBlock: OJICUG_clean_linker_0, # of connection points: 2
#     Edge 49, Type (0, 0), BuildingBlock: OJICUG_clean_linker_0, # of connection points: 2
#     Edge 50, Type (0, 0), BuildingBlock: OJICUG_clean_linker_0, # of connection points: 2
#     Edge 51, Type (0, 0), BuildingBlock: OJICUG_clean_linker_0, # of connection points: 2
#     Edge 52, Type (0, 0), BuildingBlock: OJICUG_clean_linker_0, # of connection points: 2
#     Edge 53, Type (0, 0), BuildingBlock: OJICUG_clean_linker_0, # of connection points: 2
#     Edge 54, Type (0, 0), BuildingBlock: OJICUG_clean_linker_0, # of connection points: 2
#     Edge 55, Type (0, 0), BuildingBlock: OJICUG_clean_linker_0, # of connection points: 2
#     Edge 56, Type (0, 0), BuildingBlock: OJICUG_clean_linker_0, # of connection points: 2
#     Edge 57, Type (0, 0), BuildingBlock: OJICUG_clean_linker_0, # of connection points: 2
#     Edge 58, Type (0, 0), BuildingBlock: OJICUG_clean_linker_0, # of connection points: 2
#     Edge 59, Type (0, 0), BuildingBlock: OJICUG_clean_linker_0, # of connection points: 2
#     Edge 60, Type (0, 0), BuildingBlock: OJICUG_clean_linker_0, # of connection points: 2
#     Edge 61, Type (0, 0), BuildingBlock: OJICUG_clean_linker_0, # of connection points: 2
#     Edge 62, Type (0, 0), BuildingBlock: OJICUG_clean_linker_0, # of connection points: 2
#     Edge 63, Type (0, 0), BuildingBlock: OJICUG_clean_linker_0, # of connection points: 2
#     Edge 64, Type (0, 0), BuildingBlock: OJICUG_clean_linker_0, # of connection points: 2
#     Edge 65, Type (0, 0), BuildingBlock: OJICUG_clean_linker_0, # of connection points: 2
#     Edge 66, Type (0, 0), BuildingBlock: OJICUG_clean_linker_0, # of connection points: 2
#     Edge 67, Type (0, 0), BuildingBlock: OJICUG_clean_linker_0, # of connection points: 2
#     Edge 68, Type (0, 0), BuildingBlock: OJICUG_clean_linker_0, # of connection points: 2
#     Edge 69, Type (0, 0), BuildingBlock: OJICUG_clean_linker_0, # of connection points: 2
#     Edge 70, Type (0, 0), BuildingBlock: OJICUG_clean_linker_0, # of connection points: 2
#     Edge 71, Type (0, 0), BuildingBlock: OJICUG_clean_linker_0, # of connection points: 2
# Relax obj value: 0.112
# Max RMSD: 0.240
# Mean RMSD: 0.240
data_MOF--net-wmi--node1-BETFAJ_clean_sbu_0--edge1-OJICUG_clean_linker_0
_symmetry_space_group_name_H-M    P1
_symmetry_Int_Tables_number       1
_symmetry_cell_setting            triclinic
loop_
_symmetry_equiv_pos_as_xyz
'x, y, z'
_cell_length_a     31.902472
_cell_length_b     31.893494
_cell_length_c     56.070666
_cell_angle_alpha  90.321832
_cell_angle_beta   90.036112
_cell_angle_gamma 119.94406
loop_
_atom_site_label
_atom_site_type_symbol
_atom_site_fract_x
_atom_site_fract_y
_atom_site_fract_z
_atom_type_partial_charge
Sm0 Sm 0.56097 0.0647 0.12204 0.0
Sm1 Sm 0.45803 1.01245 0.10833 0.0
C2 C 0.65571 0.11682 0.13035 0.0
C3 C 0.7023 0.15886 0.12273 0.0
C4 C 0.73883 0.15095 0.11357 0.0
C5 C 0.7846 0.18988 0.10808 0.0
C6 C 0.79515 0.23785 0.11172 0.0
C7 C 0.75826 0.24567 0.12067 0.0
C8 C 0.71245 0.20671 0.1261 0.0
C9 C 0.49355 1.02856 0.15918 0.0
C10 C 0.51411 0.13125 0.10692 0.0
C11 C 0.36295 0.9601 0.10616 0.0
C12 C 0.33214 0.90766 0.1022 0.0
C13 C 0.28241 0.88496 0.10652 0.0
C14 C 0.25414 0.83448 0.10548 0.0
C15 C 0.27519 0.80571 0.10026 0.0
C16 C 0.32511 0.82874 0.09581 0.0
C17 C 0.35329 0.87926 0.09672 0.0
C18 C 0.51619 1.01739 0.07079 0.0
C19 C 0.51324 0.95183 0.11669 0.0
O20 O 0.63591 0.07912 0.11616 0.0
O21 O 0.6238 0.12461 0.14115 0.0
O22 O 0.49392 0.05211 0.14151 0.0
O23 O 0.52931 1.02026 0.15765 0.0
O24 O 0.55433 0.12976 0.11012 0.0
O25 O 0.47128 0.09106 0.10627 0.0
O26 O 0.3872 0.97139 0.12623 0.0
O27 O 0.38917 0.9856 0.08806 0.0
O28 O 0.52582 0.05238 0.08495 0.0
O29 O 0.47623 0.97938 0.07682 0.0
O30 O 0.47261 0.95156 0.12161 0.0
O31 O 0.5525 0.99228 0.11149 0.0
H32 H 0.73222 0.11445 0.11099 0.0
H33 H 0.81172 0.18232 0.10099 0.0
H34 H 0.7651 0.282 0.12413 0.0
H35 H 0.68536 0.21416 0.13336 0.0
H36 H 0.26562 0.90616 0.11124 0.0
H37 H 0.2159 0.81789 0.10937 0.0
H38 H 0.34235 0.80775 0.09157 0.0
H39 H 0.39183 0.89613 0.09362 0.0
Sm40 Sm 1.04333 0.51908 0.12219 0.0
Sm41 Sm 0.09833 0.48283 0.09771 0.0
C42 C 0.98121 0.5433 0.14044 0.0
C43 C 0.94712 0.55919 0.13255 0.0
C44 C 0.92219 0.54347 0.11073 0.0
C45 C 0.88687 0.55544 0.10458 0.0
C46 C 0.87585 0.58355 0.12006 0.0
C47 C 0.90229 0.60068 0.14147 0.0
C48 C 0.93745 0.58853 0.14764 0.0
C49 C 0.0962 0.4914 0.15192 0.0
C50 C 0.98452 0.40858 0.10297 0.0
C51 C 0.16883 0.46544 0.08633 0.0
C52 C 0.22103 0.48956 0.0923 0.0
C53 C 0.23683 0.49547 0.11616 0.0
C54 C 0.28612 0.51748 0.12156 0.0
C55 C 0.32081 0.53448 0.10329 0.0
C56 C 0.30512 0.52995 0.07949 0.0
C57 C 0.25568 0.5075 0.07405 0.0
C58 C 0.04677 0.50288 0.06489 0.0
C59 C 0.14421 0.5996 0.10565 0.0
O60 O 1.02738 0.57394 0.13816 0.0
O61 O 0.96994 0.49898 0.13505 0.0
O62 O 0.07003 0.46882 0.13457 0.0
O63 O 0.09532 0.53125 0.1548 0.0
O64 O 0.9829 0.44866 0.10602 0.0
O65 O 1.02663 0.40993 0.10202 0.0
O66 O 0.1385 0.44367 0.10372 0.0
O67 O 0.15513 0.48915 0.07244 0.0
O68 O 0.0682 0.529 0.08302 0.0
O69 O 0.05069 0.46425 0.06475 0.0
O70 O 0.15419 0.56413 0.10779 0.0
O71 O 0.09903 0.58913 0.10576 0.0
H72 H 0.92927 0.52106 0.09868 0.0
H73 H 0.8677 0.54214 0.08782 0.0
H74 H 0.89447 0.62188 0.15395 0.0
H75 H 0.95621 0.60101 0.16456 0.0
H76 H 0.21119 0.48272 0.13071 0.0
H77 H 0.29714 0.52078 0.14008 0.0
H78 H 0.33097 0.54219 0.06503 0.0
H79 H 0.24446 0.50364 0.05555 0.0
Sm80 Sm 0.59644 0.55563 0.12847 0.0
Sm81 Sm 0.63893 0.65245 0.10849 0.0
C82 C 0.5686 0.46539 0.1423 0.0
C83 C 0.55701 0.41696 0.1332 0.0
C84 C 0.58194 0.41127 0.11393 0.0
C85 C 0.57221 0.36492 0.10682 0.0
C86 C 0.5373 0.32317 0.11878 0.0
C87 C 0.51161 0.32922 0.13764 0.0
C88 C 0.5214 0.37548 0.14474 0.0
C89 C 0.63002 0.63206 0.16154 0.0
C90 C 0.7073 0.60622 0.11029 0.0
C91 C 0.66166 0.74374 0.1034 0.0
C92 C 0.63277 0.7684 0.10498 0.0
C93 C 0.63967 0.79926 0.1244 0.0
C94 C 0.6115 0.82138 0.1268 0.0
C95 C 0.57593 0.81345 0.10973 0.0
C96 C 0.56871 0.78221 0.09038 0.0
C97 C 0.59669 0.75981 0.08806 0.0
C98 C 0.61227 0.58526 0.07242 0.0
C99 C 0.52026 0.58804 0.11767 0.0
O100 O 0.53846 0.48044 0.13718 0.0
O101 O 0.61364 0.50012 0.14161 0.0
O102 O 0.65104 0.6286 0.14357 0.0
O103 O 0.58786 0.59359 0.16306 0.0
O104 O 0.66542 0.56548 0.11017 0.0
O105 O 0.70864 0.64813 0.11271 0.0
O106 O 0.66726 0.72632 0.12342 0.0
O107 O 0.65366 0.71468 0.08524 0.0
O108 O 0.58733 0.57963 0.09108 0.0
O109 O 0.65275 0.62624 0.07327 0.0
O110 O 0.55866 0.63189 0.11642 0.0
O111 O 0.52519 0.54976 0.11883 0.0
H112 H 0.60942 0.44264 0.10461 0.0
H113 H 0.59232 0.36183 0.09202 0.0
H114 H 0.48504 0.29829 0.14755 0.0
H115 H 0.50177 0.37892 0.15968 0.0
H116 H 0.66697 0.80632 0.13779 0.0
H117 H 0.61859 0.84584 0.14169 0.0
H118 H 0.54145 0.77516 0.07699 0.0
H119 H 0.58993 0.73574 0.07303 0.0
Sm120 Sm 0.08218 0.54805 0.91232 0.0
Sm121 Sm 1.03747 0.45009 0.93303 0.0
C122 C 0.13273 0.64079 0.89984 0.0
C123 C 0.17609 0.68763 0.90554 0.0
C124 C 0.20449 0.69378 0.9258 0.0
C125 C 0.24363 0.73957 0.93158 0.0
C126 C 0.25499 0.78012 0.91726 0.0
C127 C 0.22629 0.77345 0.89696 0.0
C128 C 0.18732 0.72774 0.8912 0.0
C129 C 1.04276 0.47164 0.87973 0.0
C130 C 0.15242 0.50549 0.92834 0.0
C131 C 0.977 0.35738 0.94064 0.0
C132 C 0.92357 0.32874 0.94129 0.0
C133 C 0.89521 0.3331 0.92328 0.0
C134 C 0.84469 0.30519 0.92391 0.0
C135 C 0.82144 0.27251 0.9426 0.0
C136 C 0.84997 0.26977 0.96107 0.0
C137 C 0.90045 0.29743 0.96035 0.0
C138 C 0.07341 0.52027 0.96792 0.0
C139 C 0.96932 0.49965 0.92093 0.0
O140 O 0.09839 0.62395 0.91574 0.0
O141 O 0.13873 0.60691 0.88994 0.0
O142 O 0.06918 0.47675 0.89726 0.0
O143 O 1.03588 0.50832 0.87834 0.0
O144 O 0.14777 0.5444 0.92741 0.0
O145 O 0.11392 0.46172 0.9277 0.0
O146 O 0.99646 0.37443 0.91984 0.0
O147 O 0.99802 0.38854 0.95802 0.0
O148 O 0.0506 0.52103 0.94948 0.0
O149 O 0.07958 0.48293 0.96727 0.0
O150 O 0.97074 0.46015 0.92643 0.0
O151 O 1.00856 0.54045 0.91614 0.0
H152 H 0.19609 0.66335 0.93725 0.0
H153 H 0.26461 0.74332 0.94745 0.0
H154 H 0.23433 0.80345 0.88527 0.0
H155 H 0.16563 0.72378 0.87556 0.0
H156 H 0.91202 0.35756 0.9085 0.0
H157 H 0.824 0.30798 0.90931 0.0
H158 H 0.83327 0.24566 0.97598 0.0
H159 H 0.92148 0.29406 0.97462 0.0
Sm160 Sm 0.57739 0.5874 0.91847 0.0
Sm161 Sm 0.66989 0.62083 0.94123 0.0
C162 C 0.49082 0.56716 0.90209 0.0
C163 C 0.44148 0.55422 0.90983 0.0
C164 C 0.43352 0.57916 0.92842 0.0
C165 C 0.38648 0.569 0.93387 0.0
C166 C 0.34641 0.53361 0.9209 0.0
C167 C 0.35456 0.50775 0.90282 0.0
C168 C 0.40154 0.51803 0.89735 0.0
C169 C 0.65438 0.61382 0.8868 0.0
C170 C 0.63352 0.69718 0.93828 0.0
C171 C 0.75678 0.63548 0.95231 0.0
C172 C 0.78027 0.60673 0.94724 0.0
C173 C 0.77166 0.58139 0.92554 0.0
C174 C 0.79435 0.55452 0.92068 0.0
C175 C 0.82556 0.55197 0.93755 0.0
C176 C 0.8327 0.57589 0.95962 0.0
C177 C 0.81029 0.60316 0.96439 0.0
C178 C 0.60004 0.59945 0.97524 0.0
C179 C 0.59935 0.50506 0.92982 0.0
O180 O 0.52588 0.61094 0.90675 0.0
O181 O 0.50388 0.5346 0.9045 0.0
O182 O 0.65374 0.63649 0.9049 0.0
O183 O 0.61248 0.57547 0.88411 0.0
O184 O 0.59101 0.65759 0.93673 0.0
O185 O 0.67359 0.69473 0.93715 0.0
O186 O 0.74847 0.65528 0.93391 0.0
O187 O 0.7204 0.61606 0.96704 0.0
O188 O 0.59431 0.57401 0.95668 0.0
O189 O 0.64225 0.63834 0.97503 0.0
O190 O 0.64466 0.54099 0.92929 0.0
O191 O 0.56407 0.51476 0.93074 0.0
H192 H 0.46366 0.60713 0.93845 0.0
H193 H 0.38152 0.58919 0.9481 0.0
H194 H 0.32478 0.48073 0.89224 0.0
H195 H 0.40679 0.49848 0.88287 0.0
H196 H 0.74783 0.58281 0.91218 0.0
H197 H 0.78804 0.53625 0.9036 0.0
H198 H 0.85706 0.57505 0.97282 0.0
H199 H 0.81687 0.62195 0.98133 0.0
Sm200 Sm 0.54074 1.02716 0.91572 0.0
Sm201 Sm 0.49977 0.08229 0.93701 0.0
C202 C 0.56842 0.9652 0.90111 0.0
C203 C 0.58187 0.93016 0.9107 0.0
C204 C 0.54646 0.88122 0.9131 0.0
C205 C 0.55897 0.84726 0.92066 0.0
C206 C 0.60733 0.86114 0.92601 0.0
C207 C 0.64288 0.91015 0.92366 0.0
C208 C 0.6303 0.94428 0.91607 0.0
C209 C 0.51669 0.07819 0.8834 0.0
C210 C 0.42782 0.96782 0.93013 0.0
C211 C 0.47528 0.14873 0.94665 0.0
C212 C 0.49845 0.20165 0.94522 0.0
C213 C 0.54247 0.2291 0.93317 0.0
C214 C 0.56249 0.27921 0.93079 0.0
C215 C 0.53857 0.30241 0.94033 0.0
C216 C 0.49535 0.2748 0.95308 0.0
C217 C 0.47549 0.2249 0.95546 0.0
C218 C 0.51617 0.03127 0.97139 0.0
C219 C 0.61778 0.1307 0.93307 0.0
O220 O 0.59846 1.01133 0.90445 0.0
O221 O 0.52322 0.9541 0.90309 0.0
O222 O 0.49182 0.05301 0.90036 0.0
O223 O 0.55567 0.07546 0.88174 0.0
O224 O 0.46845 0.96666 0.92976 0.0
O225 O 0.42872 1.00979 0.92988 0.0
O226 O 0.46603 0.12558 0.92631 0.0
O227 O 0.49248 0.13171 0.96267 0.0
O228 O 0.54492 0.05341 0.95438 0.0
O229 O 0.47771 0.0353 0.97003 0.0
O230 O 0.58171 0.13961 0.93029 0.0
O231 O 0.60876 0.08592 0.9329 0.0
H232 H 0.50897 0.86883 0.90871 0.0
H233 H 0.53071 0.80972 0.92165 0.0
H234 H 0.68042 0.92213 0.92767 0.0
H235 H 0.65861 0.98161 0.91413 0.0
H236 H 0.5608 0.21169 0.9252 0.0
H237 H 0.59566 0.29946 0.9208 0.0
H238 H 0.4765 0.29176 0.96099 0.0
H239 H 0.44171 0.20434 0.96496 0.0
Sm240 Sm 0.21504 0.38671 0.45361 0.0
Sm241 Sm 0.11191 0.33848 0.43941 0.0
C242 C 0.30955 0.4362 0.46258 0.0
C243 C 0.35646 0.47899 0.45616 0.0
C244 C 0.39455 0.47217 0.44841 0.0
C245 C 0.44045 0.51182 0.44393 0.0
C246 C 0.44948 0.55938 0.44719 0.0
C247 C 0.41099 0.56608 0.45469 0.0
C248 C 0.36504 0.5264 0.45909 0.0
C249 C 0.14724 0.34649 0.49031 0.0
C250 C 0.17104 0.45696 0.43956 0.0
C251 C 1.01699 0.28686 0.43854 0.0
C252 C 0.98659 0.23351 0.43768 0.0
C253 C 0.99797 0.20448 0.4521 0.0
C254 C 0.96973 0.15407 0.45133 0.0
C255 C 0.92952 0.13136 0.43603 0.0
C256 C 0.91909 0.16047 0.42106 0.0
C257 C 0.94728 0.21102 0.42194 0.0
C258 C 0.17028 0.34766 0.40117 0.0
C259 C 0.16448 0.2748 0.44463 0.0
O260 O 0.28974 0.4009 0.44698 0.0
O261 O 0.27779 0.44287 0.47427 0.0
O262 O 0.14809 0.37261 0.47365 0.0
O263 O 0.18284 0.3382 0.48792 0.0
O264 O 0.21013 0.45376 0.44364 0.0
O265 O 0.12758 0.41782 0.43768 0.0
O266 O 1.04179 0.30456 0.45825 0.0
O267 O 1.0421 0.30781 0.41937 0.0
O268 O 0.18046 0.38024 0.41692 0.0
O269 O 0.12919 0.30953 0.40577 0.0
O270 O 0.12451 0.27518 0.45027 0.0
O271 O 0.20449 0.3151 0.4402 0.0
H272 H 0.38898 0.43597 0.44615 0.0
H273 H 0.46884 0.50512 0.43792 0.0
H274 H 0.41659 0.60206 0.45779 0.0
H275 H 0.33657 0.53292 0.46518 0.0
H276 H 1.02851 0.22067 0.46424 0.0
H277 H 0.97858 0.13302 0.46327 0.0
H278 H 0.88884 0.14417 0.40875 0.0
H279 H 0.93829 0.23252 0.41038 0.0
Sm280 Sm 0.69468 0.84371 0.46012 0.0
Sm281 Sm 0.75151 0.80788 0.43829 0.0
C282 C 0.63178 0.86816 0.47698 0.0
C283 C 0.60044 0.88651 0.46804 0.0
C284 C 0.58173 0.87629 0.44472 0.0
C285 C 0.54861 0.8903 0.43726 0.0
C286 C 0.53372 0.915 0.45294 0.0
C287 C 0.55415 0.92682 0.47596 0.0
C288 C 0.58709 0.91261 0.48343 0.0
C289 C 0.74504 0.81652 0.4916 0.0
C290 C 0.63778 0.73245 0.44203 0.0
C291 C 0.82319 0.79053 0.42975 0.0
C292 C 0.87628 0.81689 0.43387 0.0
C293 C 0.89549 0.82013 0.45685 0.0
C294 C 0.94546 0.84288 0.46044 0.0
C295 C 0.97753 0.86294 0.44119 0.0
C296 C 0.95848 0.86121 0.41836 0.0
C297 C 0.90836 0.83821 0.41472 0.0
C298 C 0.70134 0.82464 0.40351 0.0
C299 C 0.79472 0.92527 0.44406 0.0
O300 O 0.6201 0.82421 0.47057 0.0
O301 O 0.67841 0.89788 0.47661 0.0
O302 O 0.71921 0.79331 0.47435 0.0
O303 O 0.74725 0.85808 0.49285 0.0
O304 O 0.6353 0.77222 0.44429 0.0
O305 O 0.68024 0.73449 0.44218 0.0
O306 O 0.79564 0.77487 0.44861 0.0
O307 O 0.80641 0.80793 0.41368 0.0
O308 O 0.72151 0.85228 0.42136 0.0
O309 O 0.70581 0.78639 0.40464 0.0
O310 O 0.80583 0.89066 0.4468 0.0
O311 O 0.74916 0.91323 0.44317 0.0
H312 H 0.59184 0.8565 0.43246 0.0
H313 H 0.53404 0.8811 0.41933 0.0
H314 H 0.54313 0.94525 0.4886 0.0
H315 H 0.60112 0.92086 0.50149 0.0
H316 H 0.872 0.80436 0.47208 0.0
H317 H 0.95905 0.84394 0.47828 0.0
H318 H 0.98224 0.8758 0.40313 0.0
H319 H 0.89467 0.83623 0.39682 0.0
Sm320 Sm 0.25648 0.88528 0.456 0.0
Sm321 Sm 0.29703 0.98281 0.43681 0.0
C322 C 0.2297 0.79496 0.46909 0.0
C323 C 0.22225 0.7474 0.4605 0.0
C324 C 0.18069 0.71505 0.44741 0.0
C325 C 0.17173 0.66838 0.4416 0.0
C326 C 0.20402 0.6528 0.44875 0.0
C327 C 0.24585 0.68552 0.46158 0.0
C328 C 0.25474 0.73204 0.46739 0.0
C329 C 0.28832 0.96022 0.48967 0.0
C330 C 0.36732 0.93853 0.43849 0.0
C331 C 0.3193 0.07393 0.43152 0.0
C332 C 0.28993 0.09766 0.43336 0.0
C333 C 0.25061 0.08025 0.44916 0.0
C334 C 0.22213 0.10218 0.45044 0.0
C335 C 0.23238 0.14192 0.43592 0.0
C336 C 0.27175 0.15909 0.42007 0.0
C337 C 0.30014 0.13706 0.41878 0.0
C338 C 0.27459 0.91739 0.40047 0.0
C339 C 0.17886 0.9165 0.44696 0.0
O340 O 0.19962 0.80872 0.46181 0.0
O341 O 0.27394 0.83107 0.47112 0.0
O342 O 0.30985 0.95834 0.47155 0.0
O343 O 0.24668 0.92106 0.49105 0.0
O344 O 0.32607 0.89721 0.43773 0.0
O345 O 0.36741 0.97974 0.44148 0.0
O346 O 0.32617 0.05698 0.45141 0.0
O347 O 0.30936 0.04423 0.4135 0.0
O348 O 0.24796 0.90988 0.41868 0.0
O349 O 0.31331 0.95978 0.40142 0.0
O350 O 0.21671 0.96066 0.44565 0.0
O351 O 0.18455 0.87867 0.44754 0.0
H352 H 0.15454 0.72538 0.44198 0.0
H353 H 0.1394 0.64448 0.43154 0.0
H354 H 0.27117 0.67474 0.46783 0.0
H355 H 0.28659 0.75562 0.47786 0.0
H356 H 0.24188 0.04971 0.46057 0.0
H357 H 0.192 0.08789 0.46272 0.0
H358 H 0.28131 0.19025 0.40897 0.0
H359 H 0.33022 0.15094 0.40645 0.0
Sm360 Sm 0.74765 0.8791 0.2533 0.0
Sm361 Sm 0.70014 0.77586 0.2676 0.0
C362 C 0.8039 0.97404 0.25156 0.0
C363 C 0.83643 1.02732 0.25218 0.0
C364 C 0.86342 0.04976 0.27292 0.0
C365 C 0.89616 0.0995 0.27355 0.0
C366 C 0.90286 0.12831 0.25346 0.0
C367 C 0.87449 0.1061 0.23296 0.0
C368 C 0.84165 0.05615 0.23233 0.0
C369 C 0.71538 0.8112 0.21635 0.0
C370 C 0.81604 0.82956 0.26332 0.0
C371 C 0.63894 0.68176 0.26959 0.0
C372 C 0.58584 0.65197 0.26813 0.0
C373 C 0.55883 0.66496 0.25314 0.0
C374 C 0.50846 0.63601 0.25173 0.0
C375 C 0.48425 0.59356 0.26527 0.0
C376 C 0.51143 0.58146 0.2807 0.0
C377 C 0.56171 0.61036 0.28208 0.0
C378 C 0.73105 0.83804 0.3061 0.0
C379 C 0.63593 0.83144 0.26105 0.0
O380 O 0.80207 0.94773 0.26974 0.0
O381 O 0.77593 0.94963 0.23351 0.0
O382 O 0.73868 0.81251 0.23453 0.0
O383 O 0.70785 0.84773 0.21659 0.0
O384 O 0.81298 0.8692 0.26167 0.0
O385 O 0.77675 0.78628 0.26358 0.0
O386 O 0.66096 0.70395 0.25003 0.0
O387 O 0.65647 0.70886 0.28866 0.0
O388 O 0.71013 0.84199 0.28778 0.0
O389 O 0.73676 0.80057 0.30399 0.0
O390 O 0.63581 0.78992 0.25924 0.0
O391 O 0.67636 0.87266 0.26304 0.0
H392 H 0.86014 1.02872 0.28862 0.0
H393 H 0.91774 0.11493 0.28951 0.0
H394 H 0.87826 0.12721 0.21722 0.0
H395 H 0.82105 0.04002 0.21618 0.0
H396 H 0.57664 0.69717 0.2423 0.0
H397 H 0.48868 0.64613 0.23957 0.0
H398 H 0.49379 0.54942 0.29168 0.0
H399 H 0.5818 0.60004 0.29394 0.0
Sm400 Sm 0.24395 0.91474 0.24925 0.0
Sm401 Sm 0.34367 0.95618 0.26776 0.0
C402 C 0.15168 0.87982 0.23723 0.0
C403 C 0.10461 0.87491 0.24451 0.0
C404 C 0.07071 0.83377 0.2571 0.0
C405 C 1.0243 0.82608 0.26184 0.0
C406 C 1.01042 0.8592 0.25404 0.0
C407 C 1.04457 0.90068 0.24171 0.0
C408 C 0.09099 0.90835 0.23695 0.0
C409 C 0.31789 0.94679 0.21529 0.0
C410 C 0.29372 1.02419 0.27151 0.0
C411 C 0.43713 0.99018 0.27257 0.0
C412 C 0.46216 0.96171 0.27123 0.0
C413 C 0.44761 0.92452 0.25408 0.0
C414 C 0.4694 0.896 0.25305 0.0
C415 C 0.50643 0.90387 0.2691 0.0
C416 C 0.52077 0.94083 0.28643 0.0
C417 C 0.49873 0.96943 0.28751 0.0
C418 C 0.27619 0.90023 0.30165 0.0
C419 C 0.28351 0.84256 0.25306 0.0
O420 O 0.16758 0.85585 0.24954 0.0
O421 O 0.1865 0.92192 0.23001 0.0
O422 O 0.3162 0.968 0.23365 0.0
O423 O 0.27905 0.90482 0.21398 0.0
O424 O 0.25321 0.9853 0.26489 0.0
O425 O 0.33503 1.02385 0.27344 0.0
O426 O 0.41741 0.9927 0.25257 0.0
O427 O 0.40903 0.98232 0.29105 0.0
O428 O 0.27221 0.92958 0.28787 0.0
O429 O 0.31517 0.89893 0.29677 0.0
O430 O 0.32666 0.88169 0.25172 0.0
O431 O 0.24501 0.84605 0.25709 0.0
H432 H 0.07964 0.80683 0.26291 0.0
H433 H 0.99925 0.79405 0.27158 0.0
H434 H 1.03501 0.92664 0.23507 0.0
H435 H 0.11578 0.93993 0.22684 0.0
H436 H 0.41922 0.91727 0.24135 0.0
H437 H 0.45706 0.86762 0.23967 0.0
H438 H 0.54971 0.94835 0.29887 0.0
H439 H 0.51031 0.99757 0.30097 0.0
Sm440 Sm 0.19377 0.35362 0.24827 0.0
Sm441 Sm 0.16515 0.42348 0.26651 0.0
C442 C 0.20964 0.27994 0.24115 0.0
C443 C 0.23337 0.25346 0.25067 0.0
C444 C 0.22164 0.23155 0.27325 0.0
C445 C 0.23818 0.20013 0.28025 0.0
C446 C 0.2669 0.18986 0.26489 0.0
C447 C 0.28076 0.21396 0.24288 0.0
C448 C 0.26404 0.2452 0.23584 0.0
C449 C 0.18173 0.40909 0.21351 0.0
C450 C 0.07927 0.31194 0.25625 0.0
C451 C 0.13626 0.48763 0.27155 0.0
C452 C 0.16276 0.54072 0.27152 0.0
C453 C 0.2136 0.56646 0.27109 0.0
C454 C 0.23868 0.61645 0.26719 0.0
C455 C 0.21317 0.64124 0.26345 0.0
C456 C 0.16229 0.61539 0.26484 0.0
C457 C 0.13734 0.56557 0.26874 0.0
C458 C 0.20418 0.39524 0.3024 0.0
C459 C 0.27825 0.45943 0.25812 0.0
O460 O 0.23667 0.32274 0.2319 0.0
O461 O 0.17257 0.2765 0.25275 0.0
O462 O 0.15558 0.3891 0.23112 0.0
O463 O 0.21461 0.39656 0.212 0.0
O464 O 0.11223 0.30664 0.24472 0.0
O465 O 0.0907 0.35182 0.26867 0.0
O466 O 0.13681 0.4681 0.25114 0.0
O467 O 0.14336 0.46631 0.28971 0.0
O468 O 0.17539 0.3669 0.28639 0.0
O469 O 0.21422 0.43939 0.29871 0.0
O470 O 0.24505 0.47204 0.25425 0.0
O471 O 0.26513 0.41404 0.26218 0.0
H472 H 0.1982 0.23719 0.28518 0.0
H473 H 0.22727 0.18273 0.29745 0.0
H474 H 0.30233 0.20661 0.23046 0.0
H475 H 0.27338 0.26127 0.21828 0.0
H476 H 0.23378 0.54762 0.27292 0.0
H477 H 0.27779 0.63531 0.26619 0.0
H478 H 0.14161 0.63363 0.26256 0.0
H479 H 0.09814 0.5462 0.26883 0.0
Sm480 Sm 0.89297 0.7384 0.79029 0.0
Sm481 Sm 0.79809 0.681 0.7685 0.0
C482 C 0.98165 0.80196 0.80526 0.0
C483 C 1.03033 0.83684 0.79597 0.0
C484 C 0.06339 0.82199 0.78906 0.0
C485 C 0.11026 0.85603 0.78172 0.0
C486 C 0.12499 0.90557 0.78112 0.0
C487 C 0.09175 0.92017 0.78799 0.0
C488 C 1.04518 0.88632 0.79536 0.0
C489 C 0.818 0.68654 0.82256 0.0
C490 C 0.8379 0.79509 0.77384 0.0
C491 C 0.70849 0.61187 0.75904 0.0
C492 C 0.67942 0.55941 0.76402 0.0
C493 C 0.65116 0.54327 0.78474 0.0
C494 C 0.62322 0.49396 0.78948 0.0
C495 C 0.62195 0.4594 0.77335 0.0
C496 C 0.65084 0.47544 0.75281 0.0
C497 C 0.67926 0.52495 0.74817 0.0
C498 C 0.86565 0.73167 0.7341 0.0
C499 C 0.86921 0.63502 0.77446 0.0
O500 O 0.94736 0.81252 0.80218 0.0
O501 O 0.96624 0.75576 0.80272 0.0
O502 O 0.81746 0.71063 0.80522 0.0
O503 O 0.86058 0.69154 0.82472 0.0
O504 O 0.88012 0.79733 0.77497 0.0
O505 O 0.79742 0.75278 0.77425 0.0
O506 O 0.72002 0.64113 0.77736 0.0
O507 O 0.74388 0.62571 0.7438 0.0
O508 O 0.87268 0.71088 0.75165 0.0
O509 O 0.82259 0.72632 0.73489 0.0
O510 O 0.82396 0.62527 0.77708 0.0
O511 O 0.90411 0.68014 0.77401 0.0
H512 H 0.05332 0.78416 0.78956 0.0
H513 H 0.13491 0.84356 0.77651 0.0
H514 H 0.10212 0.95809 0.78832 0.0
H515 H 1.021 0.89912 0.80098 0.0
H516 H 0.65019 0.56874 0.79727 0.0
H517 H 0.60185 0.48286 0.80562 0.0
H518 H 0.65013 0.44976 0.73986 0.0
H519 H 0.70043 0.53615 0.73197 0.0
Sm520 Sm 0.37129 0.17714 0.79012 0.0
Sm521 Sm 0.42945 0.14152 0.7676 0.0
C522 C 0.30606 0.1993 0.80615 0.0
C523 C 0.26944 0.21174 0.79809 0.0
C524 C 0.23765 0.18718 0.77907 0.0
C525 C 0.20084 0.19721 0.77314 0.0
C526 C 0.19514 0.23209 0.78605 0.0
C527 C 0.228 0.25748 0.80462 0.0
C528 C 0.26463 0.24734 0.81057 0.0
C529 C 0.42048 0.14911 0.82178 0.0
C530 C 0.31627 0.06763 0.7698 0.0
C531 C 0.50085 0.12521 0.75701 0.0
C532 C 0.55334 0.15396 0.76155 0.0
C533 C 0.57117 0.17918 0.78321 0.0
C534 C 0.62095 0.20642 0.7874 0.0
C535 C 0.65389 0.20947 0.76991 0.0
C536 C 0.63595 0.1855 0.74795 0.0
C537 C 0.58608 0.1579 0.74384 0.0
C538 C 0.38322 0.16563 0.73351 0.0
C539 C 0.47678 0.25743 0.77974 0.0
O540 O 0.35148 0.23141 0.8029 0.0
O541 O 0.29699 0.15507 0.80249 0.0
O542 O 0.39689 0.12676 0.80369 0.0
O543 O 0.41801 0.1881 0.8245 0.0
O544 O 0.31452 0.10793 0.77126 0.0
O545 O 0.35814 0.06872 0.77128 0.0
O546 O 0.47332 0.107 0.77573 0.0
O547 O 0.48356 0.14363 0.74183 0.0
O548 O 0.40287 0.19032 0.75226 0.0
O549 O 0.38547 0.12609 0.73351 0.0
O550 O 0.485 0.22068 0.77987 0.0
O551 O 0.43235 0.24926 0.77865 0.0
H552 H 0.24073 0.15971 0.76905 0.0
H553 H 0.1766 0.17739 0.75855 0.0
H554 H 0.22442 0.28407 0.81517 0.0
H555 H 0.2886 0.2666 0.82536 0.0
H556 H 0.54665 0.17753 0.79702 0.0
H557 H 0.63372 0.22471 0.80442 0.0
H558 H 0.66045 0.18666 0.73426 0.0
H559 H 0.57306 0.13922 0.72691 0.0
Sm560 Sm 0.91676 0.21724 0.79197 0.0
Sm561 Sm 0.96949 0.31535 0.77203 0.0
C562 C 0.87501 0.12414 0.8036 0.0
C563 C 0.86969 0.0768 0.7966 0.0
C564 C 0.82384 0.03888 0.78979 0.0
C565 C 0.8168 0.993 0.78413 0.0
C566 C 0.85545 0.98373 0.78527 0.0
C567 C 0.9015 1.02192 0.79201 0.0
C568 C 0.90857 0.06792 0.79758 0.0
C569 C 0.95316 0.29259 0.8252 0.0
C570 C 1.0294 0.26005 0.77645 0.0
C571 C 1.00208 0.4083 0.76496 0.0
C572 C 0.97755 0.43715 0.7647 0.0
C573 C 0.94236 0.4299 0.78185 0.0
C574 C 0.92005 0.45814 0.7817 0.0
C575 C 0.93238 0.49405 0.76437 0.0
C576 C 0.96615 0.49974 0.74667 0.0
C577 C 0.98859 0.47168 0.7469 0.0
C578 C 0.93679 0.24649 0.73652 0.0
C579 C 0.85163 0.26494 0.7837 0.0
O580 O 0.85549 0.14194 0.78937 0.0
O581 O 0.91594 0.15748 0.8129 0.0
O582 O 0.97464 0.28805 0.80763 0.0
O583 O 0.90965 0.2559 0.82629 0.0
O584 O 0.98593 0.2211 0.77676 0.0
O585 O 1.03438 0.30372 0.77754 0.0
O586 O 1.00446 0.39072 0.78562 0.0
O587 O 0.99151 0.37743 0.74741 0.0
O588 O 0.91259 0.24485 0.75485 0.0
O589 O 0.98008 0.28395 0.73762 0.0
O590 O 0.89248 0.30492 0.77874 0.0
O591 O 0.85043 0.22409 0.78787 0.0
H592 H 0.79314 0.04464 0.78902 0.0
H593 H 0.78103 0.96487 0.77876 0.0
H594 H 0.93205 1.01609 0.79351 0.0
H595 H 0.9443 0.09625 0.8029 0.0
H596 H 0.93262 0.40295 0.79563 0.0
H597 H 0.89454 0.45305 0.79567 0.0
H598 H 0.97584 0.52651 0.73281 0.0
H599 H 1.01496 0.4773 0.73329 0.0
Sm600 Sm 0.4252 0.21069 0.58076 0.0
Sm601 Sm 0.36671 0.11477 0.60035 0.0
C602 C 0.49051 0.30002 0.56732 0.0
C603 C 0.5234 0.34922 0.57698 0.0
C604 C 0.54986 0.35645 0.59815 0.0
C605 C 0.5847 0.40329 0.60547 0.0
C606 C 0.59384 0.44399 0.59183 0.0
C607 C 0.56575 0.4366 0.57119 0.0
C608 C 0.53106 0.38978 0.56385 0.0
C609 C 0.38034 0.13535 0.54729 0.0
C610 C 0.48067 0.15472 0.59842 0.0
C611 C 0.29705 1.02405 0.60688 0.0
C612 C 0.24412 0.99723 0.60373 0.0
C613 C 0.21697 1.02089 0.60459 0.0
C614 C 0.16718 0.99544 0.59973 0.0
C615 C 0.1438 0.9459 0.59385 0.0
C616 C 0.17123 0.92234 0.59349 0.0
C617 C 0.22084 0.94779 0.59829 0.0
C618 C 0.41071 0.18122 0.63656 0.0
C619 C 0.31962 0.18519 0.59182 0.0
O620 O 0.44408 0.28424 0.56766 0.0
O621 O 0.50083 0.26623 0.57224 0.0
O622 O 0.40365 0.13691 0.5654 0.0
O623 O 0.37885 0.17507 0.54586 0.0
O624 O 0.48249 0.19691 0.59813 0.0
O625 O 0.43862 0.11426 0.59638 0.0
O626 O 0.32202 0.03918 0.58724 0.0
O627 O 0.31446 0.05627 0.62404 0.0
O628 O 0.39193 0.18819 0.6181 0.0
O629 O 0.40813 0.13929 0.63537 0.0
O630 O 0.31116 0.14015 0.59021 0.0
O631 O 0.36418 0.22094 0.59367 0.0
H632 H 0.54451 0.32585 0.60873 0.0
H633 H 0.60512 0.40755 0.62163 0.0
H634 H 0.57205 0.46681 0.56005 0.0
H635 H 0.51124 0.38515 0.54743 0.0
H636 H 0.23439 0.05911 0.60873 0.0
H637 H 0.14725 1.01472 0.60014 0.0
H638 H 0.1543 0.88398 0.58961 0.0
H639 H 0.24116 0.92891 0.59751 0.0
Sm640 Sm 0.89938 0.23521 0.5822 0.0
Sm641 Sm 0.99387 0.28112 0.60412 0.0
C642 C 0.81029 0.20297 0.56528 0.0
C643 C 0.76112 0.18828 0.57387 0.0
C644 C 0.75374 0.2047 0.5959 0.0
C645 C 0.70722 0.19423 0.60268 0.0
C646 C 0.66711 0.16707 0.58758 0.0
C647 C 0.67459 0.14915 0.56595 0.0
C648 C 0.72112 0.15972 0.55918 0.0
C649 C 0.97708 0.26297 0.55081 0.0
C650 C 0.94637 0.34799 0.59758 0.0
C651 C 0.08547 0.30746 0.61248 0.0
C652 C 0.11577 0.28495 0.60807 0.0
C653 C 0.14563 0.29809 0.58786 0.0
C654 C 0.17468 0.2776 0.58351 0.0
C655 C 0.17501 0.24372 0.59935 0.0
C656 C 0.14439 0.22971 0.6193 0.0
C657 C 0.11516 0.2502 0.62366 0.0
C658 C 0.92518 0.26112 0.63863 0.0
C659 C 0.9295 0.16297 0.60141 0.0
O660 O 0.82766 0.17461 0.57017 0.0
O661 O 0.84261 0.24872 0.56755 0.0
O662 O 0.97294 0.28727 0.56715 0.0
O663 O 0.93892 0.22041 0.55029 0.0
O664 O 0.906 0.30602 0.59622 0.0
O665 O 0.9887 0.3499 0.59798 0.0
O666 O 0.07108 0.3207 0.59359 0.0
O667 O 0.05182 0.288 0.62872 0.0
O668 O 0.92035 0.23326 0.62128 0.0
O669 O 0.96635 0.3012 0.63725 0.0
O670 O 0.97346 0.19997 0.59779 0.0
O671 O 0.8924 0.16988 0.601 0.0
H672 H 0.7841 0.2266 0.60758 0.0
H673 H 0.70278 0.2081 0.61958 0.0
H674 H 0.64483 0.12868 0.55373 0.0
H675 H 0.72605 0.14678 0.54209 0.0
H676 H 0.14684 0.32455 0.57543 0.0
H677 H 0.1974 0.28876 0.56781 0.0
H678 H 0.14423 0.20413 0.63198 0.0
H679 H 0.09254 0.23918 0.63939 0.0
Sm680 Sm 0.87337 0.69743 0.58284 0.0
Sm681 Sm 0.82908 0.75301 0.59976 0.0
C682 C 0.91078 0.64167 0.57202 0.0
C683 C 0.91361 0.59842 0.57921 0.0
C684 C 0.95466 0.60421 0.5915 0.0
C685 C 0.96022 0.5643 0.59645 0.0
C686 C 0.92502 0.51754 0.58908 0.0
C687 C 0.88363 0.51171 0.57704 0.0
C688 C 0.87803 0.55164 0.57213 0.0
C689 C 0.83898 0.73463 0.54766 0.0
C690 C 0.763 0.6346 0.60188 0.0
C691 C 0.78866 0.80665 0.60646 0.0
C692 C 0.81208 0.85887 0.61117 0.0
C693 C 0.7852 0.88254 0.61043 0.0
C694 C 0.80869 0.93304 0.6117 0.0
C695 C 0.85952 0.96068 0.61352 0.0
C696 C 0.88624 0.93666 0.6147 0.0
C697 C 0.86266 0.88615 0.61364 0.0
C698 C 0.88619 0.7459 0.63476 0.0
C699 C 0.9426 0.81034 0.58538 0.0
O700 O 0.93221 0.6799 0.58584 0.0
O701 O 0.87045 0.6356 0.56267 0.0
O702 O 0.81782 0.71228 0.566 0.0
O703 O 0.88215 0.74047 0.54725 0.0
O704 O 0.80329 0.6343 0.59718 0.0
O705 O 0.76211 0.67569 0.60291 0.0
O706 O 0.79788 0.79584 0.58528 0.0
O707 O 0.79174 0.78017 0.62343 0.0
O708 O 0.85751 0.71125 0.62121 0.0
O709 O 0.88694 0.78531 0.6287 0.0
O710 O 0.90239 0.81255 0.58397 0.0
O711 O 0.94094 0.76927 0.58968 0.0
H712 H 0.98307 0.63984 0.59694 0.0
H713 H 0.99226 0.57015 0.60597 0.0
H714 H 0.8561 0.47639 0.57074 0.0
H715 H 0.84632 0.54589 0.56231 0.0
H716 H 0.74628 0.86212 0.60814 0.0
H717 H 0.78714 0.95055 0.6104 0.0
H718 H 0.9253 0.95691 0.61626 0.0
H719 H 0.88406 0.86843 0.61406 0.0
C720 C 0.51631 0.88205 0.13467 0.0
C721 C 0.5155 0.90714 0.11439 0.0
H722 H 0.5359 0.83195 0.14911 0.0
C723 C 0.52875 0.89668 0.09226 0.0
H724 H 0.50714 0.89039 0.15199 0.0
C725 C 0.54531 0.86372 0.09055 0.0
C726 C 0.5497 0.84106 0.11106 0.0
H727 H 0.52928 0.91643 0.07649 0.0
H728 H 0.55796 0.85872 0.07342 0.0
C729 C 0.53341 0.84926 0.13303 0.0
C730 C 0.19875 0.73064 0.08891 0.0
C731 C 0.2447 0.75198 0.09952 0.0
H732 H 0.13195 0.66607 0.08219 0.0
C733 C 0.25988 0.72172 0.11016 0.0
H734 H 0.18639 0.75258 0.08001 0.0
C735 C 0.22844 0.67137 0.11128 0.0
C736 C 0.18145 0.65081 0.10185 0.0
H737 H 0.29519 0.73713 0.11849 0.0
H738 H 0.24001 0.64904 0.12043 0.0
C739 C 0.16762 0.68089 0.0901 0.0
C740 C 0.40984 0.59436 0.09804 0.0
C741 C 0.37262 0.55269 0.10896 0.0
H742 H 0.48657 0.63943 0.09279 0.0
C743 C 0.38509 0.52621 0.12445 0.0
H744 H 0.40121 0.6156 0.08611 0.0
C745 C 0.43339 0.53952 0.12807 0.0
C746 C 0.47055 0.58002 0.11655 0.0
H747 H 0.35736 0.49375 0.13297 0.0
H748 H 0.44162 0.51712 0.13939 0.0
C749 C 0.45857 0.60824 0.10201 0.0
C750 C 0.89555 0.48509 0.94302 0.0
C751 C 0.92408 0.50103 0.92241 0.0
H752 H 0.84165 0.48925 0.96419 0.0
C753 C 0.91512 0.52781 0.90545 0.0
H754 H 0.90241 0.46498 0.95648 0.0
C755 C 0.88044 0.54132 0.90971 0.0
C756 C 0.8547 0.52908 0.93125 0.0
H757 H 0.93703 0.54076 0.88951 0.0
H758 H 0.87636 0.56436 0.8969 0.0
C759 C 0.86134 0.49945 0.94753 0.0
C760 C 0.60551 0.38995 0.93866 0.0
C761 C 0.55639 0.35452 0.93594 0.0
H762 H 0.65818 0.46604 0.93886 0.0
C763 C 0.52321 0.3691 0.92935 0.0
H764 H 0.63193 0.37967 0.94365 0.0
C765 C 0.53803 0.41783 0.92662 0.0
C766 C 0.58656 0.45362 0.93037 0.0
H767 H 0.48541 0.34269 0.92646 0.0
H768 H 0.51094 0.42741 0.92192 0.0
C769 C 0.62052 0.43927 0.93592 0.0
C770 C 0.68561 0.21797 0.93143 0.0
C771 C 0.66859 0.16927 0.93713 0.0
H772 H 0.74763 0.28936 0.92875 0.0
C773 C 0.70163 0.15596 0.94586 0.0
H774 H 0.66102 0.22931 0.92469 0.0
C775 C 0.75056 0.18976 0.94811 0.0
C776 C 0.76826 0.2382 0.94179 0.0
H777 H 0.68994 0.11885 0.95062 0.0
H778 H 0.77478 0.17732 0.95406 0.0
C779 C 0.73517 0.25217 0.93362 0.0
C780 C 0.19109 0.17699 0.46051 0.0
C781 C 0.20394 0.16717 0.43798 0.0
H782 H 0.16669 0.21871 0.48026 0.0
C783 C 0.19358 0.18579 0.41756 0.0
H784 H 0.19884 0.16349 0.47662 0.0
C785 C 0.17522 0.21722 0.41974 0.0
C786 C 0.16609 0.22992 0.44232 0.0
H787 H 0.20205 0.17813 0.39993 0.0
H788 H 0.17138 0.23429 0.40387 0.0
C789 C 0.17235 0.20828 0.46265 0.0
C790 C 0.9136 0.04526 0.44009 0.0
C791 C 0.89636 0.07799 0.43704 0.0
H792 H 0.89521 0.97088 0.44462 0.0
C793 C 0.8463 0.05963 0.4361 0.0
H794 H 0.95208 0.05825 0.44079 0.0
C795 C 0.81428 1.0103 0.43819 0.0
C796 C 0.83104 0.97735 0.44141 0.0
H797 H 0.83152 0.08354 0.43436 0.0
H798 H 0.77598 0.99823 0.43753 0.0
C799 C 0.88116 0.99526 0.44222 0.0
C800 C 0.11493 0.93736 0.4356 0.0
C801 C 0.12879 0.90771 0.44769 0.0
H802 H 0.05561 0.94618 0.42378 0.0
C803 C 0.09314 0.86584 0.45901 0.0
H804 H 0.14171 0.96977 0.42668 0.0
C805 C 1.04452 0.85269 0.45757 0.0
C806 C 1.03004 0.88078 0.44455 0.0
H807 H 0.10273 0.84238 0.46859 0.0
H808 H 1.01801 0.81924 0.46585 0.0
C809 C 0.06577 0.92369 0.43382 0.0
C810 C 0.54657 0.86075 0.28734 0.0
C811 C 0.53167 0.87535 0.26693 0.0
H812 H 0.59056 0.83304 0.30125 0.0
C813 C 0.54409 0.86547 0.24431 0.0
H814 H 0.53704 0.86712 0.30499 0.0
C815 C 0.57385 0.84504 0.24223 0.0
C816 C 0.59129 0.83368 0.26269 0.0
H817 H 0.53371 0.87663 0.2282 0.0
H818 H 0.5864 0.84179 0.22473 0.0
C819 C 0.57629 0.84028 0.28522 0.0
C820 C 0.23775 0.7598 0.23693 0.0
C821 C 0.27628 0.79349 0.25107 0.0
H822 H 0.18848 0.6853 0.22937 0.0
C823 C 0.29879 0.7772 0.26708 0.0
H824 H 0.2198 0.77169 0.22452 0.0
C825 C 0.28007 0.72736 0.27032 0.0
C826 C 0.23873 0.69356 0.25754 0.0
H827 H 0.32806 0.80268 0.27844 0.0
H828 H 0.29584 0.71541 0.2839 0.0
C829 C 0.2194 0.71039 0.23999 0.0
C830 C 0.41325 0.51033 0.26131 0.0
C831 C 0.43128 0.56038 0.26251 0.0
H832 H 0.35163 0.43994 0.25875 0.0
C833 C 0.39848 0.57776 0.26106 0.0
H834 H 0.43747 0.49574 0.26174 0.0
C835 C 0.34848 0.54538 0.25916 0.0
C836 C 0.33068 0.49521 0.25865 0.0
H837 H 0.41136 0.61623 0.26193 0.0
H838 H 0.32388 0.55951 0.25856 0.0
C839 C 0.3638 0.47829 0.25944 0.0
C840 C 0.84995 0.54763 0.77451 0.0
C841 C 0.88268 0.59709 0.77111 0.0
H842 H 0.83983 0.47568 0.77496 0.0
C843 C 0.93067 0.61154 0.76478 0.0
H844 H 0.81276 0.53539 0.77937 0.0
C845 C 0.94598 0.57791 0.76229 0.0
C846 C 0.91386 0.52856 0.76596 0.0
H847 H 0.95709 0.64925 0.76192 0.0
H848 H 0.98361 0.59098 0.75806 0.0
C849 C 0.86552 0.51359 0.77208 0.0
C850 C 0.59882 0.37108 0.7716 0.0
C851 C 0.58694 0.40718 0.77685 0.0
H852 H 0.57331 0.29471 0.76876 0.0
C853 C 0.53985 0.39312 0.78442 0.0
H854 H 0.63497 0.38087 0.76588 0.0
C855 C 0.50513 0.34448 0.7861 0.0
C856 C 0.51629 0.3083 0.7802 0.0
H857 H 0.52912 0.41976 0.78825 0.0
H858 H 0.46898 0.3353 0.79157 0.0
C859 C 0.56375 0.32189 0.7734 0.0
C860 C 0.74138 0.26255 0.75855 0.0
C861 C 0.70639 0.23319 0.7754 0.0
H862 H 0.81633 0.29761 0.74847 0.0
C863 C 0.72168 0.22222 0.79678 0.0
H864 H 0.73057 0.27184 0.742 0.0
C865 C 0.77031 0.23673 0.80037 0.0
C866 C 0.80476 0.26321 0.78287 0.0
H867 H 0.69565 0.19941 0.81002 0.0
H868 H 0.7806 0.22466 0.81621 0.0
C869 C 0.79041 0.27784 0.76236 0.0
C870 C 0.25807 0.25988 0.58978 0.0
C871 C 0.21025 0.22653 0.59605 0.0
H872 H 0.32922 0.27277 0.58331 0.0
C873 C 0.19755 0.17795 0.59987 0.0
H874 H 0.26937 0.29766 0.58704 0.0
C875 C 0.23235 0.1634 0.59772 0.0
C876 C 0.28047 0.19738 0.59208 0.0
H877 H 0.16083 0.15133 0.60458 0.0
H878 H 0.2219 0.12608 0.60109 0.0
C879 C 0.29258 0.24555 0.58783 0.0
C880 C 0.92439 0.04201 0.59865 0.0
C881 C 0.88408 1.01433 0.61337 0.0
H882 H 0.97135 0.11199 0.58336 0.0
C883 C 0.86465 0.03795 0.62662 0.0
H884 H 0.94012 1.02469 0.58822 0.0
C885 C 0.88234 0.08726 0.62381 0.0
C886 C 0.92004 0.11428 0.60776 0.0
H887 H 0.83446 1.01789 0.63854 0.0
H888 H 0.86499 0.10395 0.63348 0.0
C889 C 0.94238 0.09187 0.59589 0.0
C890 C 0.07369 0.88223 0.57046 0.0
C891 C 0.091 0.91808 0.58836 0.0
H892 H 1.01228 0.82035 0.55528 0.0
C893 C 0.05724 0.92388 0.60213 0.0
H894 H 0.09851 0.87757 0.55908 0.0
C895 C 1.00741 0.89162 0.59944 0.0
C896 C 0.9909 0.85321 0.58302 0.0
H897 H 0.06934 0.95113 0.61607 0.0
H898 H 0.98229 0.89423 0.61151 0.0
C899 C 1.02427 0.84991 0.56799 0.0
C900 C 0.51378 0.98056 0.03128 0.0
C901 C 0.53165 1.02256 0.04556 0.0
H902 H 0.49525 0.95057 0.99595 0.0
C903 C 0.55538 0.06796 0.0345 0.0
H904 H 0.49564 0.94502 0.03932 0.0
C905 C 0.55606 0.07095 1.00953 0.0
C906 C 0.53301 1.02865 0.99544 0.0
H907 H 0.56938 0.10087 0.04501 0.0
H908 H 0.57023 0.10614 1.00134 0.0
C909 C 0.51385 0.98357 1.00643 0.0
C910 C 0.10264 0.56046 1.00731 0.0
C911 C 0.06388 0.53353 0.99167 0.0
H912 H 0.12656 0.57387 0.04371 0.0
C913 C 1.01694 0.50639 1.00101 0.0
H914 H 0.13922 0.58069 1.00053 0.0
C915 C 1.00986 0.50117 0.0257 0.0
C916 C 0.04939 0.52426 0.04134 0.0
H917 H 0.98665 0.48441 0.98928 0.0
H918 H 0.97442 0.47533 0.03244 0.0
C919 C 0.09529 0.55653 0.03202 0.0
C920 C 0.6013 0.54919 1.00834 0.0
C921 C 0.58294 0.57759 0.99887 0.0
H922 H 0.6251 0.52916 0.03991 0.0
C923 C 0.56314 0.59762 1.01444 0.0
H924 H 0.61796 0.53447 0.99669 0.0
C925 C 0.56592 0.59328 0.03917 0.0
C926 C 0.58988 0.57012 0.04863 0.0
H927 H 0.54998 0.62067 1.00761 0.0
H928 H 0.55471 0.6131 0.05082 0.0
C929 C 0.60546 0.54614 0.03307 0.0
C930 C 0.16682 0.32104 0.35876 0.0
C931 C 0.1884 0.35766 0.37631 0.0
H932 H 0.15521 0.30392 0.32139 0.0
C933 C 0.22223 0.40468 0.36917 0.0
H934 H 0.14105 0.28421 0.36373 0.0
C935 C 0.23072 0.41576 0.34489 0.0
C936 C 0.20529 0.38016 0.32728 0.0
H937 H 0.2398 0.43352 0.38223 0.0
H938 H 0.25478 0.45305 0.33992 0.0
C939 C 0.17506 0.33219 0.33447 0.0
C940 C 0.75073 0.87582 0.37029 0.0
C941 C 0.70456 0.84396 0.37945 0.0
H942 H 0.79569 0.89856 0.33912 0.0
C943 C 0.66568 0.81899 0.36363 0.0
H944 H 0.78149 0.89447 0.3822 0.0
C945 C 0.67367 0.82232 0.33901 0.0
C946 C 0.72084 0.84958 0.33003 0.0
H947 H 0.63011 0.79338 0.37032 0.0
H948 H 0.64388 0.79948 0.3272 0.0
C949 C 0.75898 0.87798 0.34569 0.0
C950 C 0.27063 0.86271 0.34121 0.0
C951 C 0.25829 0.89069 0.32655 0.0
H952 H 0.28477 0.84883 0.37688 0.0
C953 C 0.23885 0.91719 0.33719 0.0
H954 H 0.28544 0.84165 0.33351 0.0
C955 C 0.23769 0.92045 0.36212 0.0
C956 C 0.25572 0.89716 0.37665 0.0
H957 H 0.22914 0.93917 0.32642 0.0
H958 H 0.2275 0.94522 0.36994 0.0
C959 C 0.26988 0.86637 0.36607 0.0
C960 C 0.86563 0.69139 0.69612 0.0
C961 C 0.88589 0.73359 0.7103 0.0
H962 H 0.85032 0.66183 0.66059 0.0
C963 C 0.91469 0.77847 0.69952 0.0
H964 H 0.84252 0.65639 0.70411 0.0
C965 C 0.91964 0.78157 0.6747 0.0
C966 C 0.89469 0.73994 0.66022 0.0
H967 H 0.92999 0.81146 0.71006 0.0
H968 H 0.93931 0.81714 0.66676 0.0
C969 C 0.86997 0.69449 0.67121 0.0
C970 C 0.35725 0.17546 0.66974 0.0
C971 C 0.40435 0.19653 0.66044 0.0
H972 H 0.31329 0.14917 0.70111 0.0
C973 C 0.4439 0.21836 0.67612 0.0
H974 H 0.32619 0.15736 0.65796 0.0
C975 C 0.43643 0.21505 0.70081 0.0
C976 C 0.38935 0.18848 0.71007 0.0
H977 H 0.48044 0.23372 0.66937 0.0
H978 H 0.46754 0.22792 0.71254 0.0
C979 C 0.34979 0.1708 0.69442 0.0
C980 C 0.92234 0.20978 0.67235 0.0
C981 C 0.90898 0.24218 0.66284 0.0
H982 H 0.94179 0.1856 0.70398 0.0
C983 C 0.89365 0.26643 0.67836 0.0
H984 H 0.93538 0.1915 0.66073 0.0
C985 C 0.89578 0.26171 0.70308 0.0
C986 C 0.91474 0.23389 0.71259 0.0
H987 H 0.88419 0.29231 0.67146 0.0
H988 H 0.88798 0.28423 0.71469 0.0
C989 C 0.926 0.20631 0.69709 0.0
C990 C 0.39072 1.01583 0.19741 0.0
C991 C 0.36237 0.9656 0.20055 0.0
H992 H 0.45406 0.07451 0.1819 0.0
C993 C 0.37945 0.93569 0.19137 0.0
H994 H 0.37884 0.03985 0.20448 0.0
C995 C 0.42409 0.95601 0.17921 0.0
C996 C 0.45158 1.00635 0.17562 0.0
H997 H 0.35875 0.89691 0.1939 0.0
H998 H 0.43612 0.93235 0.17184 0.0
C999 C 0.43415 0.03577 0.18476 0.0
C1000 C 0.11678 0.42696 0.16164 0.0
C1001 C 0.12286 0.47312 0.16652 0.0
H1002 H 0.1317 0.37104 0.17234 0.0
C1003 C 0.15366 0.50026 0.18542 0.0
H1004 H 0.09329 0.40494 0.14725 0.0
C1005 C 0.17616 0.48078 0.19962 0.0
C1006 C 0.16849 0.43394 0.19519 0.0
H1007 H 0.1594 0.53595 0.1896 0.0
H1008 H 0.19822 0.5017 0.21464 0.0
C1009 C 0.13921 0.40761 0.17581 0.0
C1010 C 0.72108 0.74894 0.19195 0.0
C1011 C 0.69255 0.76793 0.20044 0.0
H1012 H 0.72362 0.69183 0.1729 0.0
C1013 C 0.64218 0.74116 0.19658 0.0
H1014 H 0.75981 0.76824 0.19506 0.0
C1015 C 0.62095 0.69584 0.18476 0.0
C1016 C 0.64994 0.6773 0.17609 0.0
H1017 H 0.61916 0.75437 0.20346 0.0
H1018 H 0.58214 0.67579 0.18205 0.0
C1019 C 0.70025 0.70484 0.17955 0.0
C1020 C 1.04503 0.40317 0.85941 0.0
C1021 C 1.01905 0.42672 0.86508 0.0
H1022 H 1.04457 0.3429 0.84201 0.0
C1023 C 0.9701 0.40491 0.85825 0.0
H1024 H 0.08264 0.41893 0.86464 0.0
C1025 C 0.94757 0.36 0.84618 0.0
C1026 C 0.97412 0.3371 0.84014 0.0
H1027 H 0.94905 0.42198 0.86273 0.0
H1028 H 0.90991 0.34387 0.841 0.0
C1029 C 1.02315 0.35949 0.84665 0.0
C1030 C 0.74049 0.67346 0.87622 0.0
C1031 C 0.69713 0.63041 0.87088 0.0
H1032 H 0.81308 0.72436 0.86537 0.0
C1033 C 0.69538 0.60426 0.85026 0.0
H1034 H 0.74306 0.69469 0.89187 0.0
C1035 C 0.73561 0.62158 0.83505 0.0
C1036 C 0.7785 0.66493 0.8403 0.0
H1037 H 0.6627 0.57095 0.84566 0.0
H1038 H 0.73307 0.60145 0.81897 0.0
C1039 C 0.78075 0.69042 0.86116 0.0
C1040 C 0.44533 0.0882 0.83217 0.0
C1041 C 0.44814 0.13297 0.83688 0.0
H1042 H 0.46575 0.03628 0.843 0.0
C1043 C 0.4773 0.16139 0.85595 0.0
H1044 H 0.42303 0.06527 0.81769 0.0
C1045 C 0.50203 0.14472 0.87033 0.0
C1046 C 0.49833 0.09959 0.8658 0.0
H1047 H 0.48035 0.19605 0.86 0.0
H1048 H 0.52301 0.16652 0.88539 0.0
C1049 C 0.47007 0.07167 0.8465 0.0
C1050 C 0.04748 0.33254 0.53146 0.0
C1051 C 1.02052 0.28235 0.53519 0.0
H1052 H 0.10802 0.39149 0.51429 0.0
C1053 C 1.0373 0.25293 0.52505 0.0
H1054 H 1.03578 0.35628 0.53909 0.0
C1055 C 0.08031 0.27367 0.5115 0.0
C1056 C 0.10632 0.32389 0.50738 0.0
H1057 H 1.01757 0.21419 0.52782 0.0
H1058 H 0.09221 0.25037 0.50354 0.0
C1059 C 0.08916 0.35284 0.51742 0.0
C1060 C 0.74702 0.74794 0.5112 0.0
C1061 C 0.77042 0.79781 0.50661 0.0
H1062 H 0.75048 0.68948 0.52789 0.0
C1063 C 0.81843 0.82711 0.51453 0.0
H1064 H 0.71023 0.72437 0.50511 0.0
C1065 C 0.84242 0.8065 0.52677 0.0
C1066 C 0.81821 0.7566 0.53172 0.0
H1067 H 0.83761 0.86553 0.51085 0.0
H1068 H 0.87915 0.82966 0.533 0.0
C1069 C 0.77022 0.72783 0.52398 0.0
C1070 C 0.28441 1.02843 0.51098 0.0
C1071 C 0.30894 1.00304 0.50581 0.0
H1072 H 0.28842 0.09177 0.52744 0.0
C1073 C 0.35693 1.0225 0.51365 0.0
H1074 H 0.24773 1.01476 0.50466 0.0
C1075 C 0.37966 0.06561 0.52685 0.0
C1076 C 0.35584 0.09169 0.53171 0.0
H1077 H 0.37697 1.00418 0.50957 0.0
H1078 H 0.41636 0.07894 0.53309 0.0
C1079 C 0.30793 0.07283 0.52359 0.0
C1080 C 0.56963 0.26801 0.10736 0.0
C1081 C 0.52984 0.27395 0.11276 0.0
H1082 H 0.59581 0.21898 0.10099 0.0
C1083 C 0.48365 0.23216 0.11384 0.0
H1084 H 0.60581 0.29899 0.10659 0.0
C1085 C 0.47782 0.18576 0.11063 0.0
C1086 C 0.51808 0.17994 0.10638 0.0
H1087 H 0.45199 0.23521 0.11761 0.0
H1088 H 0.44207 0.15445 0.11245 0.0
C1089 C 0.56385 0.22181 0.10426 0.0
C1090 C 0.84986 0.32292 0.09758 0.0
C1091 C 0.84453 0.27964 0.10679 0.0
H1092 H 0.89803 0.39687 0.08878 0.0
C1093 C 0.88673 0.27764 0.1122 0.0
H1094 H 0.81851 0.32564 0.09258 0.0
C1095 C 0.93284 0.31866 0.1096 0.0
C1096 C 0.93762 0.36254 0.10171 0.0
H1097 H 0.88416 0.24506 0.11946 0.0
H1098 H 0.96444 0.31669 0.11495 0.0
C1099 C 0.89564 0.36376 0.09519 0.0
C1100 C 0.79687 0.64225 0.11742 0.0
C1101 C 0.75241 0.60337 0.10964 0.0
H1102 H 0.87089 0.66672 0.12672 0.0
C1103 C 0.75017 0.55946 0.1035 0.0
H1104 H 0.79982 0.6765 0.12238 0.0
C1105 C 0.7907 0.55384 0.10599 0.0
C1106 C 0.83463 0.59187 0.11485 0.0
H1107 H 0.71655 0.5287 0.09743 0.0
H1108 H 0.78689 0.51884 0.10199 0.0
C1109 C 0.83747 0.63649 0.12011 0.0
C1110 C 0.2559 0.47882 0.92412 0.0
C1111 C 0.2967 0.52561 0.92513 0.0
H1112 H 0.1785 0.43559 0.92462 0.0
C1113 C 0.28944 0.56517 0.92884 0.0
H1114 H 0.26014 0.44746 0.92159 0.0
C1115 C 0.2427 0.55837 0.93064 0.0
C1116 C 0.20186 0.51177 0.92886 0.0
H1117 H 0.31985 0.60175 0.92944 0.0
H1118 H 0.23866 0.58993 0.93284 0.0
C1119 C 0.20906 0.47198 0.92603 0.0
C1120 C 0.58847 0.78477 0.94737 0.0
C1121 C 0.62007 0.82373 0.93294 0.0
H1122 H 0.56857 0.71454 0.9606 0.0
C1123 C 0.66121 0.824 0.92356 0.0
H1124 H 0.55722 0.78389 0.95546 0.0
C1125 C 0.66831 0.78439 0.92699 0.0
C1126 C 0.63419 0.7438 0.93968 0.0
H1127 H 0.68627 0.85335 0.91232 0.0
H1128 H 0.69842 0.78403 0.91827 0.0
C1129 C 0.59522 0.74518 0.95052 0.0
C1130 C 0.33774 0.91723 0.92273 0.0
C1131 C 0.38172 0.9207 0.92961 0.0
H1132 H 0.26306 0.87022 0.91358 0.0
C1133 C 0.38261 0.87769 0.93396 0.0
H1134 H 0.33578 0.94956 0.91918 0.0
C1135 C 0.34129 0.83244 0.93064 0.0
C1136 C 0.29771 0.82868 0.9228 0.0
H1137 H 0.41577 0.87881 0.93935 0.0
H1138 H 0.34414 0.80036 0.93333 0.0
C1139 C 0.29621 0.87171 0.91929 0.0
C1140 C 0.1468 0.56217 0.44541 0.0
C1141 C 0.19391 0.6024 0.44361 0.0
H1142 H 0.1023 0.48461 0.44536 0.0
C1143 C 0.232 0.59388 0.43805 0.0
H1144 H 0.11654 0.56718 0.4498 0.0
C1145 C 0.22385 0.54672 0.43566 0.0
C1146 C 0.17727 0.50645 0.43858 0.0
H1147 H 0.26852 0.62375 0.43592 0.0
H1148 H 0.25455 0.5419 0.43207 0.0
C1149 C 0.13857 0.51473 0.44287 0.0
C1150 C 0.58683 0.6425 0.44854 0.0
C1151 C 0.59148 0.68601 0.44015 0.0
H1152 H 0.53831 0.56857 0.45788 0.0
C1153 C 0.54979 0.68632 0.43223 0.0
H1154 H 0.61823 0.64124 0.45493 0.0
C1155 C 0.50424 0.64488 0.4337 0.0
C1156 C 0.49888 0.60191 0.44336 0.0
H1157 H 0.55216 0.71914 0.42539 0.0
H1158 H 0.47306 0.64684 0.42759 0.0
C1159 C 0.54094 0.60088 0.45023 0.0
C1160 C 0.45256 0.88863 0.43445 0.0
C1161 C 0.49409 0.92465 0.44614 0.0
H1162 H 0.38039 0.86508 0.42264 0.0
C1163 C 0.49549 0.96797 0.45286 0.0
H1164 H 0.44994 0.85465 0.42922 0.0
C1165 C 0.4554 0.97408 0.44897 0.0
C1166 C 0.41293 0.93677 0.43853 0.0
H1167 H 0.52714 0.99666 0.46167 0.0
H1168 H 0.45682 1.00696 0.45524 0.0
C1169 C 0.41249 0.89454 0.43078 0.0
C1170 C 0.906 0.88153 0.26639 0.0
C1171 C 0.86524 0.83524 0.26318 0.0
H1172 H 0.98312 0.92513 0.26651 0.0
C1173 C 0.87259 0.79611 0.25831 0.0
H1174 H 0.90189 0.91253 0.27042 0.0
C1175 C 0.91965 0.80356 0.25584 0.0
C1176 C 0.96035 0.85027 0.25824 0.0
H1177 H 0.84206 0.76007 0.25564 0.0
H1178 H 0.92403 0.77295 0.25124 0.0
C1179 C 0.95279 0.8889 0.26399 0.0
C1180 C 0.24791 0.06638 0.28166 0.0
C1181 C 0.29168 0.06944 0.27468 0.0
H1182 H 0.20597 0.10156 0.28416 0.0
C1183 C 0.32961 0.1143 0.267 0.0
H1184 H 0.21791 0.0323 0.28759 0.0
C1185 C 0.32257 0.15429 0.26477 0.0
C1186 C 0.27771 0.15037 0.27053 0.0
H1187 H 0.36356 0.11767 0.26125 0.0
H1188 H 0.3517 0.18782 0.25781 0.0
C1189 C 0.24111 0.10628 0.27975 0.0
C1190 C 0.9554 0.20966 0.27367 0.0
C1191 C 0.94289 0.17981 0.25316 0.0
H1192 H 1.00829 0.27594 0.29074 0.0
C1193 C 0.97235 0.19779 0.23292 0.0
H1194 H 0.93315 0.19724 0.2895 0.0
C1195 C 1.01482 0.24257 0.23366 0.0
C1196 C 1.02908 0.27087 0.25459 0.0
H1197 H 0.9644 0.17598 0.21689 0.0
H1198 H 1.03788 0.25401 0.21807 0.0
C1199 C 0.99809 0.25496 0.27435 0.0
C1200 C 0.80034 0.84623 0.78375 0.0
C1201 C 0.83791 0.84157 0.77344 0.0
H1202 H 0.77676 0.89476 0.79616 0.0
C1203 C 0.87921 0.88341 0.76528 0.0
H1204 H 0.76831 0.81472 0.79042 0.0
C1205 C 0.884 0.92908 0.76835 0.0
C1206 C 0.84783 0.93438 0.77992 0.0
H1207 H 0.90866 0.88101 0.75703 0.0
H1208 H 0.91658 0.96037 0.76199 0.0
C1209 C 0.80533 0.89221 0.78706 0.0
C1210 C 0.26261 0.97983 0.77976 0.0
C1211 C 0.2697 1.02175 0.76812 0.0
H1212 H 0.21089 0.91006 0.79334 0.0
C1213 C 0.22962 1.02217 0.758 0.0
H1214 H 0.29285 0.97871 0.78788 0.0
C1215 C 0.18303 0.98306 0.76094 0.0
C1216 C 0.17518 0.94269 0.77433 0.0
H1217 H 0.23404 0.05382 0.7487 0.0
H1218 H 0.15287 0.98534 0.75352 0.0
C1219 C 0.21564 0.94061 0.78291 0.0
C1220 C 0.10714 0.20065 0.77673 0.0
C1221 C 0.15361 0.24013 0.78119 0.0
H1222 H 1.03186 0.1759 0.77165 0.0
C1223 C 0.15933 0.28683 0.78235 0.0
H1224 H 0.10117 0.16412 0.77597 0.0
C1225 C 0.11938 0.29366 0.7799 0.0
C1226 C 0.07268 0.25391 0.77634 0.0
H1227 H 0.19467 0.31816 0.78545 0.0
H1228 H 0.12497 0.32996 0.78147 0.0
C1229 C 0.06724 0.20743 0.77438 0.0
C1230 C 0.53023 0.11431 0.59093 0.0
C1231 C 0.52712 0.15445 0.59904 0.0
H1232 H 0.57683 0.08653 0.58106 0.0
C1233 C 0.57006 0.19696 0.60535 0.0
H1234 H 0.4979 0.0811 0.58583 0.0
C1235 C 0.61509 0.20015 0.60257 0.0
C1236 C 0.61861 0.16098 0.5933 0.0
H1237 H 0.56909 0.22861 0.6117 0.0
H1238 H 0.6473 0.23427 0.60664 0.0
C1239 C 0.57552 0.11762 0.58798 0.0
C1240 C 0.98298 0.43811 0.5929 0.0
C1241 C 0.9428 0.39263 0.59786 0.0
H1242 H 1.00887 0.51306 0.58582 0.0
C1243 C 0.89756 0.38928 0.6014 0.0
H1244 H 1.01825 0.44187 0.58995 0.0
C1245 C 0.8922 0.42995 0.59921 0.0
C1246 C 0.93185 0.47515 0.59329 0.0
H1247 H 0.86584 0.35492 0.60549 0.0
H1248 H 0.85672 0.42581 0.60196 0.0
C1249 C 0.97755 0.47892 0.59059 0.0
C1250 C 0.63167 0.53529 0.59468 0.0
C1251 C 0.63513 0.49327 0.59785 0.0
H1252 H 0.66904 0.61308 0.59401 0.0
C1253 C 0.67986 0.49886 0.60509 0.0
H1254 H 0.59769 0.53242 0.58937 0.0
C1255 C 0.72051 0.5449 0.60777 0.0
C1256 C 0.71771 0.58687 0.60347 0.0
H1257 H 0.68424 0.46759 0.6075 0.0
H1258 H 0.75475 0.54753 0.61235 0.0
C1259 C 0.67245 0.58158 0.59759 0.0
loop_
_geom_bond_atom_site_label_1
_geom_bond_atom_site_label_2
_geom_bond_distance
_geom_bond_site_symmetry_2
_ccdc_geom_bond_type
Sm0 C2 2.846 . S
Sm0 O20 2.543 . S
Sm0 O21 2.450 . S
Sm0 O22 2.681 1_545 S
Sm0 O23 2.464 . S
Sm0 O24 2.396 . S
Sm0 O28 2.386 . S
Sm0 O31 2.408 1_545 S
Sm1 C11 2.846 . S
Sm1 O22 2.386 . S
Sm1 O25 2.408 1_565 S
Sm1 O26 2.543 . S
Sm1 O27 2.450 . S
Sm1 O28 2.681 1_565 S
Sm1 O29 2.464 . S
Sm1 O30 2.396 . S
C2 Sm0 2.846 . S
C2 C3 1.506 . S
C2 O20 1.261 . S
C2 O21 1.242 . S
C3 C2 1.506 . S
C3 C4 1.358 . S
C3 C8 1.382 . S
C4 C3 1.358 . S
C4 C5 1.385 . S
C4 H32 0.930 . S
C5 C4 1.385 . S
C5 C6 1.395 . S
C5 H33 0.929 . S
C6 C5 1.395 . S
C6 C7 1.335 . S
C7 C6 1.335 . S
C7 C8 1.398 . S
C7 H34 0.930 . S
C8 C3 1.382 . S
C8 C7 1.398 . S
C8 H35 0.929 . S
C9 O22 1.271 1_545 S
C9 O23 1.251 . S
C10 O24 1.252 . S
C10 O25 1.272 . S
C11 Sm1 2.846 . S
C11 C12 1.506 . S
C11 O26 1.261 . S
C11 O27 1.242 . S
C12 C11 1.506 . S
C12 C13 1.358 . S
C12 C17 1.382 . S
C13 C12 1.358 . S
C13 C14 1.385 . S
C13 H36 0.930 . S
C14 C13 1.385 . S
C14 C15 1.395 . S
C14 H37 0.929 . S
C15 C14 1.395 . S
C15 C16 1.335 . S
C16 C15 1.335 . S
C16 C17 1.398 . S
C16 H38 0.930 . S
C17 C12 1.382 . S
C17 C16 1.398 . S
C17 H39 0.929 . S
C18 O28 1.271 . S
C18 O29 1.251 1_545 S
C19 O30 1.252 . S
C19 O31 1.272 . S
O20 Sm0 2.543 . S
O20 C2 1.261 . S
O21 Sm0 2.450 . S
O21 C2 1.242 . S
O22 Sm0 2.681 1_565 S
O22 Sm1 2.386 . S
O22 C9 1.271 1_565 S
O23 Sm0 2.464 . S
O23 C9 1.251 . S
O24 Sm0 2.396 . S
O24 C10 1.252 . S
O25 Sm1 2.408 1_545 S
O25 C10 1.272 . S
O26 Sm1 2.543 . S
O26 C11 1.261 . S
O27 Sm1 2.450 . S
O27 C11 1.242 . S
O28 Sm0 2.386 . S
O28 Sm1 2.681 1_545 S
O28 C18 1.271 . S
O29 Sm1 2.464 . S
O29 C18 1.251 1_565 S
O30 Sm1 2.396 . S
O30 C19 1.252 . S
O31 Sm0 2.408 1_565 S
O31 C19 1.272 . S
H32 C4 0.930 . S
H33 C5 0.929 . S
H34 C7 0.930 . S
H35 C8 0.929 . S
H36 C13 0.930 . S
H37 C14 0.929 . S
H38 C16 0.930 . S
H39 C17 0.929 . S
Sm40 C42 2.846 . S
Sm40 O60 2.543 . S
Sm40 O61 2.450 . S
Sm40 O62 2.681 1_655 S
Sm40 O63 2.464 1_655 S
Sm40 O64 2.396 . S
Sm40 O68 2.386 1_655 S
Sm40 O71 2.408 1_655 S
Sm41 C51 2.846 . S
Sm41 O62 2.386 . S
Sm41 O65 2.408 1_455 S
Sm41 O66 2.543 . S
Sm41 O67 2.450 . S
Sm41 O68 2.681 . S
Sm41 O69 2.464 . S
Sm41 O70 2.396 . S
C42 Sm40 2.846 . S
C42 C43 1.506 . S
C42 O60 1.261 . S
C42 O61 1.242 . S
C43 C42 1.506 . S
C43 C44 1.358 . S
C43 C48 1.382 . S
C44 C43 1.358 . S
C44 C45 1.385 . S
C44 H72 0.930 . S
C45 C44 1.385 . S
C45 C46 1.395 . S
C45 H73 0.929 . S
C46 C45 1.395 . S
C46 C47 1.335 . S
C47 C46 1.335 . S
C47 C48 1.398 . S
C47 H74 0.930 . S
C48 C43 1.382 . S
C48 C47 1.398 . S
C48 H75 0.929 . S
C49 O62 1.271 . S
C49 O63 1.251 . S
C50 O64 1.252 . S
C50 O65 1.272 . S
C51 Sm41 2.846 . S
C51 C52 1.506 . S
C51 O66 1.261 . S
C51 O67 1.242 . S
C52 C51 1.506 . S
C52 C53 1.358 . S
C52 C57 1.382 . S
C53 C52 1.358 . S
C53 C54 1.385 . S
C53 H76 0.930 . S
C54 C53 1.385 . S
C54 C55 1.395 . S
C54 H77 0.929 . S
C55 C54 1.395 . S
C55 C56 1.335 . S
C56 C55 1.335 . S
C56 C57 1.398 . S
C56 H78 0.930 . S
C57 C52 1.382 . S
C57 C56 1.398 . S
C57 H79 0.929 . S
C58 O68 1.271 . S
C58 O69 1.251 . S
C59 O70 1.252 . S
C59 O71 1.272 . S
O60 Sm40 2.543 . S
O60 C42 1.261 . S
O61 Sm40 2.450 . S
O61 C42 1.242 . S
O62 Sm40 2.681 1_455 S
O62 Sm41 2.386 . S
O62 C49 1.271 . S
O63 Sm40 2.464 1_455 S
O63 C49 1.251 . S
O64 Sm40 2.396 . S
O64 C50 1.252 . S
O65 Sm41 2.408 1_655 S
O65 C50 1.272 . S
O66 Sm41 2.543 . S
O66 C51 1.261 . S
O67 Sm41 2.450 . S
O67 C51 1.242 . S
O68 Sm40 2.386 1_455 S
O68 Sm41 2.681 . S
O68 C58 1.271 . S
O69 Sm41 2.464 . S
O69 C58 1.251 . S
O70 Sm41 2.396 . S
O70 C59 1.252 . S
O71 Sm40 2.408 1_455 S
O71 C59 1.272 . S
H72 C44 0.930 . S
H73 C45 0.929 . S
H74 C47 0.930 . S
H75 C48 0.929 . S
H76 C53 0.930 . S
H77 C54 0.929 . S
H78 C56 0.930 . S
H79 C57 0.929 . S
Sm80 C82 2.846 . S
Sm80 O100 2.543 . S
Sm80 O101 2.450 . S
Sm80 O102 2.681 . S
Sm80 O103 2.464 . S
Sm80 O104 2.396 . S
Sm80 O108 2.386 . S
Sm80 O111 2.408 . S
Sm81 C91 2.846 . S
Sm81 O102 2.386 . S
Sm81 O105 2.408 . S
Sm81 O106 2.543 . S
Sm81 O107 2.450 . S
Sm81 O108 2.681 . S
Sm81 O109 2.464 . S
Sm81 O110 2.396 . S
C82 Sm80 2.846 . S
C82 C83 1.506 . S
C82 O100 1.261 . S
C82 O101 1.242 . S
C83 C82 1.506 . S
C83 C84 1.358 . S
C83 C88 1.382 . S
C84 C83 1.358 . S
C84 C85 1.385 . S
C84 H112 0.930 . S
C85 C84 1.385 . S
C85 C86 1.395 . S
C85 H113 0.929 . S
C86 C85 1.395 . S
C86 C87 1.335 . S
C87 C86 1.335 . S
C87 C88 1.398 . S
C87 H114 0.930 . S
C88 C83 1.382 . S
C88 C87 1.398 . S
C88 H115 0.929 . S
C89 O102 1.271 . S
C89 O103 1.251 . S
C90 O104 1.252 . S
C90 O105 1.272 . S
C91 Sm81 2.846 . S
C91 C92 1.506 . S
C91 O106 1.261 . S
C91 O107 1.242 . S
C92 C91 1.506 . S
C92 C93 1.358 . S
C92 C97 1.382 . S
C93 C92 1.358 . S
C93 C94 1.385 . S
C93 H116 0.930 . S
C94 C93 1.385 . S
C94 C95 1.395 . S
C94 H117 0.929 . S
C95 C94 1.395 . S
C95 C96 1.335 . S
C96 C95 1.335 . S
C96 C97 1.398 . S
C96 H118 0.930 . S
C97 C92 1.382 . S
C97 C96 1.398 . S
C97 H119 0.929 . S
C98 O108 1.271 . S
C98 O109 1.251 . S
C99 O110 1.252 . S
C99 O111 1.272 . S
O100 Sm80 2.543 . S
O100 C82 1.261 . S
O101 Sm80 2.450 . S
O101 C82 1.242 . S
O102 Sm80 2.681 . S
O102 Sm81 2.386 . S
O102 C89 1.271 . S
O103 Sm80 2.464 . S
O103 C89 1.251 . S
O104 Sm80 2.396 . S
O104 C90 1.252 . S
O105 Sm81 2.408 . S
O105 C90 1.272 . S
O106 Sm81 2.543 . S
O106 C91 1.261 . S
O107 Sm81 2.450 . S
O107 C91 1.242 . S
O108 Sm80 2.386 . S
O108 Sm81 2.681 . S
O108 C98 1.271 . S
O109 Sm81 2.464 . S
O109 C98 1.251 . S
O110 Sm81 2.396 . S
O110 C99 1.252 . S
O111 Sm80 2.408 . S
O111 C99 1.272 . S
H112 C84 0.930 . S
H113 C85 0.929 . S
H114 C87 0.930 . S
H115 C88 0.929 . S
H116 C93 0.930 . S
H117 C94 0.929 . S
H118 C96 0.930 . S
H119 C97 0.929 . S
Sm120 C122 2.846 . S
Sm120 O140 2.543 . S
Sm120 O141 2.450 . S
Sm120 O142 2.681 1_455 S
Sm120 O143 2.464 . S
Sm120 O144 2.396 . S
Sm120 O148 2.386 . S
Sm120 O151 2.408 1_455 S
Sm121 C131 2.846 . S
Sm121 O142 2.386 . S
Sm121 O145 2.408 1_655 S
Sm121 O146 2.543 . S
Sm121 O147 2.450 . S
Sm121 O148 2.681 1_655 S
Sm121 O149 2.464 . S
Sm121 O150 2.396 . S
C122 Sm120 2.846 . S
C122 C123 1.506 . S
C122 O140 1.261 . S
C122 O141 1.242 . S
C123 C122 1.506 . S
C123 C124 1.358 . S
C123 C128 1.382 . S
C124 C123 1.358 . S
C124 C125 1.385 . S
C124 H152 0.930 . S
C125 C124 1.385 . S
C125 C126 1.395 . S
C125 H153 0.929 . S
C126 C125 1.395 . S
C126 C127 1.335 . S
C127 C126 1.335 . S
C127 C128 1.398 . S
C127 H154 0.930 . S
C128 C123 1.382 . S
C128 C127 1.398 . S
C128 H155 0.929 . S
C129 O142 1.271 1_455 S
C129 O143 1.251 . S
C130 O144 1.252 . S
C130 O145 1.272 . S
C131 Sm121 2.846 . S
C131 C132 1.506 . S
C131 O146 1.261 . S
C131 O147 1.242 . S
C132 C131 1.506 . S
C132 C133 1.358 . S
C132 C137 1.382 . S
C133 C132 1.358 . S
C133 C134 1.385 . S
C133 H156 0.930 . S
C134 C133 1.385 . S
C134 C135 1.395 . S
C134 H157 0.929 . S
C135 C134 1.395 . S
C135 C136 1.335 . S
C136 C135 1.335 . S
C136 C137 1.398 . S
C136 H158 0.930 . S
C137 C132 1.382 . S
C137 C136 1.398 . S
C137 H159 0.929 . S
C138 O148 1.271 . S
C138 O149 1.251 1_455 S
C139 O150 1.252 . S
C139 O151 1.272 . S
O140 Sm120 2.543 . S
O140 C122 1.261 . S
O141 Sm120 2.450 . S
O141 C122 1.242 . S
O142 Sm120 2.681 1_655 S
O142 Sm121 2.386 . S
O142 C129 1.271 1_655 S
O143 Sm120 2.464 . S
O143 C129 1.251 . S
O144 Sm120 2.396 . S
O144 C130 1.252 . S
O145 Sm121 2.408 1_455 S
O145 C130 1.272 . S
O146 Sm121 2.543 . S
O146 C131 1.261 . S
O147 Sm121 2.450 . S
O147 C131 1.242 . S
O148 Sm120 2.386 . S
O148 Sm121 2.681 1_455 S
O148 C138 1.271 . S
O149 Sm121 2.464 . S
O149 C138 1.251 1_655 S
O150 Sm121 2.396 . S
O150 C139 1.252 . S
O151 Sm120 2.408 1_655 S
O151 C139 1.272 . S
H152 C124 0.930 . S
H153 C125 0.929 . S
H154 C127 0.930 . S
H155 C128 0.929 . S
H156 C133 0.930 . S
H157 C134 0.929 . S
H158 C136 0.930 . S
H159 C137 0.929 . S
Sm160 C162 2.846 . S
Sm160 O180 2.543 . S
Sm160 O181 2.450 . S
Sm160 O182 2.681 . S
Sm160 O183 2.464 . S
Sm160 O184 2.396 . S
Sm160 O188 2.386 . S
Sm160 O191 2.408 . S
Sm161 C171 2.846 . S
Sm161 O182 2.386 . S
Sm161 O185 2.408 . S
Sm161 O186 2.543 . S
Sm161 O187 2.450 . S
Sm161 O188 2.681 . S
Sm161 O189 2.464 . S
Sm161 O190 2.396 . S
C162 Sm160 2.846 . S
C162 C163 1.506 . S
C162 O180 1.261 . S
C162 O181 1.242 . S
C163 C162 1.506 . S
C163 C164 1.358 . S
C163 C168 1.382 . S
C164 C163 1.358 . S
C164 C165 1.385 . S
C164 H192 0.930 . S
C165 C164 1.385 . S
C165 C166 1.395 . S
C165 H193 0.929 . S
C166 C165 1.395 . S
C166 C167 1.335 . S
C167 C166 1.335 . S
C167 C168 1.398 . S
C167 H194 0.930 . S
C168 C163 1.382 . S
C168 C167 1.398 . S
C168 H195 0.929 . S
C169 O182 1.271 . S
C169 O183 1.251 . S
C170 O184 1.252 . S
C170 O185 1.272 . S
C171 Sm161 2.846 . S
C171 C172 1.506 . S
C171 O186 1.261 . S
C171 O187 1.242 . S
C172 C171 1.506 . S
C172 C173 1.358 . S
C172 C177 1.382 . S
C173 C172 1.358 . S
C173 C174 1.385 . S
C173 H196 0.930 . S
C174 C173 1.385 . S
C174 C175 1.395 . S
C174 H197 0.929 . S
C175 C174 1.395 . S
C175 C176 1.335 . S
C176 C175 1.335 . S
C176 C177 1.398 . S
C176 H198 0.930 . S
C177 C172 1.382 . S
C177 C176 1.398 . S
C177 H199 0.929 . S
C178 O188 1.271 . S
C178 O189 1.251 . S
C179 O190 1.252 . S
C179 O191 1.272 . S
O180 Sm160 2.543 . S
O180 C162 1.261 . S
O181 Sm160 2.450 . S
O181 C162 1.242 . S
O182 Sm160 2.681 . S
O182 Sm161 2.386 . S
O182 C169 1.271 . S
O183 Sm160 2.464 . S
O183 C169 1.251 . S
O184 Sm160 2.396 . S
O184 C170 1.252 . S
O185 Sm161 2.408 . S
O185 C170 1.272 . S
O186 Sm161 2.543 . S
O186 C171 1.261 . S
O187 Sm161 2.450 . S
O187 C171 1.242 . S
O188 Sm160 2.386 . S
O188 Sm161 2.681 . S
O188 C178 1.271 . S
O189 Sm161 2.464 . S
O189 C178 1.251 . S
O190 Sm161 2.396 . S
O190 C179 1.252 . S
O191 Sm160 2.408 . S
O191 C179 1.272 . S
H192 C164 0.930 . S
H193 C165 0.929 . S
H194 C167 0.930 . S
H195 C168 0.929 . S
H196 C173 0.930 . S
H197 C174 0.929 . S
H198 C176 0.930 . S
H199 C177 0.929 . S
Sm200 C202 2.846 . S
Sm200 O220 2.543 . S
Sm200 O221 2.450 . S
Sm200 O222 2.681 1_565 S
Sm200 O223 2.464 1_565 S
Sm200 O224 2.396 . S
Sm200 O228 2.386 1_565 S
Sm200 O231 2.408 1_565 S
Sm201 C211 2.846 . S
Sm201 O222 2.386 . S
Sm201 O225 2.408 1_545 S
Sm201 O226 2.543 . S
Sm201 O227 2.450 . S
Sm201 O228 2.681 . S
Sm201 O229 2.464 . S
Sm201 O230 2.396 . S
C202 Sm200 2.846 . S
C202 C203 1.506 . S
C202 O220 1.261 . S
C202 O221 1.242 . S
C203 C202 1.506 . S
C203 C204 1.358 . S
C203 C208 1.382 . S
C204 C203 1.358 . S
C204 C205 1.385 . S
C204 H232 0.930 . S
C205 C204 1.385 . S
C205 C206 1.395 . S
C205 H233 0.929 . S
C206 C205 1.395 . S
C206 C207 1.335 . S
C207 C206 1.335 . S
C207 C208 1.398 . S
C207 H234 0.930 . S
C208 C203 1.382 . S
C208 C207 1.398 . S
C208 H235 0.929 . S
C209 O222 1.271 . S
C209 O223 1.251 . S
C210 O224 1.252 . S
C210 O225 1.272 . S
C211 Sm201 2.846 . S
C211 C212 1.506 . S
C211 O226 1.261 . S
C211 O227 1.242 . S
C212 C211 1.506 . S
C212 C213 1.358 . S
C212 C217 1.382 . S
C213 C212 1.358 . S
C213 C214 1.385 . S
C213 H236 0.930 . S
C214 C213 1.385 . S
C214 C215 1.395 . S
C214 H237 0.929 . S
C215 C214 1.395 . S
C215 C216 1.335 . S
C216 C215 1.335 . S
C216 C217 1.398 . S
C216 H238 0.930 . S
C217 C212 1.382 . S
C217 C216 1.398 . S
C217 H239 0.929 . S
C218 O228 1.271 . S
C218 O229 1.251 . S
C219 O230 1.252 . S
C219 O231 1.272 . S
O220 Sm200 2.543 . S
O220 C202 1.261 . S
O221 Sm200 2.450 . S
O221 C202 1.242 . S
O222 Sm200 2.681 1_545 S
O222 Sm201 2.386 . S
O222 C209 1.271 . S
O223 Sm200 2.464 1_545 S
O223 C209 1.251 . S
O224 Sm200 2.396 . S
O224 C210 1.252 . S
O225 Sm201 2.408 1_565 S
O225 C210 1.272 . S
O226 Sm201 2.543 . S
O226 C211 1.261 . S
O227 Sm201 2.450 . S
O227 C211 1.242 . S
O228 Sm200 2.386 1_545 S
O228 Sm201 2.681 . S
O228 C218 1.271 . S
O229 Sm201 2.464 . S
O229 C218 1.251 . S
O230 Sm201 2.396 . S
O230 C219 1.252 . S
O231 Sm200 2.408 1_545 S
O231 C219 1.272 . S
H232 C204 0.930 . S
H233 C205 0.929 . S
H234 C207 0.930 . S
H235 C208 0.929 . S
H236 C213 0.930 . S
H237 C214 0.929 . S
H238 C216 0.930 . S
H239 C217 0.929 . S
Sm240 C242 2.846 . S
Sm240 O260 2.543 . S
Sm240 O261 2.450 . S
Sm240 O262 2.681 . S
Sm240 O263 2.464 . S
Sm240 O264 2.396 . S
Sm240 O268 2.386 . S
Sm240 O271 2.408 . S
Sm241 C251 2.846 . S
Sm241 O262 2.386 . S
Sm241 O265 2.408 . S
Sm241 O266 2.543 . S
Sm241 O267 2.450 . S
Sm241 O268 2.681 . S
Sm241 O269 2.464 . S
Sm241 O270 2.396 . S
C242 Sm240 2.846 . S
C242 C243 1.506 . S
C242 O260 1.261 . S
C242 O261 1.242 . S
C243 C242 1.506 . S
C243 C244 1.358 . S
C243 C248 1.382 . S
C244 C243 1.358 . S
C244 C245 1.385 . S
C244 H272 0.930 . S
C245 C244 1.385 . S
C245 C246 1.395 . S
C245 H273 0.929 . S
C246 C245 1.395 . S
C246 C247 1.335 . S
C247 C246 1.335 . S
C247 C248 1.398 . S
C247 H274 0.930 . S
C248 C243 1.382 . S
C248 C247 1.398 . S
C248 H275 0.929 . S
C249 O262 1.271 . S
C249 O263 1.251 . S
C250 O264 1.252 . S
C250 O265 1.272 . S
C251 Sm241 2.846 . S
C251 C252 1.506 1_455 S
C251 O266 1.261 . S
C251 O267 1.242 . S
C252 C251 1.506 1_655 S
C252 C253 1.358 . S
C252 C257 1.382 . S
C253 C252 1.358 . S
C253 C254 1.385 . S
C253 H276 0.930 . S
C254 C253 1.385 . S
C254 C255 1.395 . S
C254 H277 0.929 . S
C255 C254 1.395 . S
C255 C256 1.335 . S
C256 C255 1.335 . S
C256 C257 1.398 . S
C256 H278 0.930 . S
C257 C252 1.382 . S
C257 C256 1.398 . S
C257 H279 0.929 . S
C258 O268 1.271 . S
C258 O269 1.251 . S
C259 O270 1.252 . S
C259 O271 1.272 . S
O260 Sm240 2.543 . S
O260 C242 1.261 . S
O261 Sm240 2.450 . S
O261 C242 1.242 . S
O262 Sm240 2.681 . S
O262 Sm241 2.386 . S
O262 C249 1.271 . S
O263 Sm240 2.464 . S
O263 C249 1.251 . S
O264 Sm240 2.396 . S
O264 C250 1.252 . S
O265 Sm241 2.408 . S
O265 C250 1.272 . S
O266 Sm241 2.543 . S
O266 C251 1.261 . S
O267 Sm241 2.450 . S
O267 C251 1.242 . S
O268 Sm240 2.386 . S
O268 Sm241 2.681 . S
O268 C258 1.271 . S
O269 Sm241 2.464 . S
O269 C258 1.251 . S
O270 Sm241 2.396 . S
O270 C259 1.252 . S
O271 Sm240 2.408 . S
O271 C259 1.272 . S
H272 C244 0.930 . S
H273 C245 0.929 . S
H274 C247 0.930 . S
H275 C248 0.929 . S
H276 C253 0.930 . S
H277 C254 0.929 . S
H278 C256 0.930 . S
H279 C257 0.929 . S
Sm280 C282 2.846 . S
Sm280 O300 2.543 . S
Sm280 O301 2.450 . S
Sm280 O302 2.681 . S
Sm280 O303 2.464 . S
Sm280 O304 2.396 . S
Sm280 O308 2.386 . S
Sm280 O311 2.408 . S
Sm281 C291 2.846 . S
Sm281 O302 2.386 . S
Sm281 O305 2.408 . S
Sm281 O306 2.543 . S
Sm281 O307 2.450 . S
Sm281 O308 2.681 . S
Sm281 O309 2.464 . S
Sm281 O310 2.396 . S
C282 Sm280 2.846 . S
C282 C283 1.506 . S
C282 O300 1.261 . S
C282 O301 1.242 . S
C283 C282 1.506 . S
C283 C284 1.358 . S
C283 C288 1.382 . S
C284 C283 1.358 . S
C284 C285 1.385 . S
C284 H312 0.930 . S
C285 C284 1.385 . S
C285 C286 1.395 . S
C285 H313 0.929 . S
C286 C285 1.395 . S
C286 C287 1.335 . S
C287 C286 1.335 . S
C287 C288 1.398 . S
C287 H314 0.930 . S
C288 C283 1.382 . S
C288 C287 1.398 . S
C288 H315 0.929 . S
C289 O302 1.271 . S
C289 O303 1.251 . S
C290 O304 1.252 . S
C290 O305 1.272 . S
C291 Sm281 2.846 . S
C291 C292 1.506 . S
C291 O306 1.261 . S
C291 O307 1.242 . S
C292 C291 1.506 . S
C292 C293 1.358 . S
C292 C297 1.382 . S
C293 C292 1.358 . S
C293 C294 1.385 . S
C293 H316 0.930 . S
C294 C293 1.385 . S
C294 C295 1.395 . S
C294 H317 0.929 . S
C295 C294 1.395 . S
C295 C296 1.335 . S
C296 C295 1.335 . S
C296 C297 1.398 . S
C296 H318 0.930 . S
C297 C292 1.382 . S
C297 C296 1.398 . S
C297 H319 0.929 . S
C298 O308 1.271 . S
C298 O309 1.251 . S
C299 O310 1.252 . S
C299 O311 1.272 . S
O300 Sm280 2.543 . S
O300 C282 1.261 . S
O301 Sm280 2.450 . S
O301 C282 1.242 . S
O302 Sm280 2.681 . S
O302 Sm281 2.386 . S
O302 C289 1.271 . S
O303 Sm280 2.464 . S
O303 C289 1.251 . S
O304 Sm280 2.396 . S
O304 C290 1.252 . S
O305 Sm281 2.408 . S
O305 C290 1.272 . S
O306 Sm281 2.543 . S
O306 C291 1.261 . S
O307 Sm281 2.450 . S
O307 C291 1.242 . S
O308 Sm280 2.386 . S
O308 Sm281 2.681 . S
O308 C298 1.271 . S
O309 Sm281 2.464 . S
O309 C298 1.251 . S
O310 Sm281 2.396 . S
O310 C299 1.252 . S
O311 Sm280 2.408 . S
O311 C299 1.272 . S
H312 C284 0.930 . S
H313 C285 0.929 . S
H314 C287 0.930 . S
H315 C288 0.929 . S
H316 C293 0.930 . S
H317 C294 0.929 . S
H318 C296 0.930 . S
H319 C297 0.929 . S
Sm320 C322 2.846 . S
Sm320 O340 2.543 . S
Sm320 O341 2.450 . S
Sm320 O342 2.681 . S
Sm320 O343 2.464 . S
Sm320 O344 2.396 . S
Sm320 O348 2.386 . S
Sm320 O351 2.408 . S
Sm321 C331 2.846 1_565 S
Sm321 O342 2.386 . S
Sm321 O345 2.408 . S
Sm321 O346 2.543 1_565 S
Sm321 O347 2.450 1_565 S
Sm321 O348 2.681 . S
Sm321 O349 2.464 . S
Sm321 O350 2.396 . S
C322 Sm320 2.846 . S
C322 C323 1.506 . S
C322 O340 1.261 . S
C322 O341 1.242 . S
C323 C322 1.506 . S
C323 C324 1.358 . S
C323 C328 1.382 . S
C324 C323 1.358 . S
C324 C325 1.385 . S
C324 H352 0.930 . S
C325 C324 1.385 . S
C325 C326 1.395 . S
C325 H353 0.929 . S
C326 C325 1.395 . S
C326 C327 1.335 . S
C327 C326 1.335 . S
C327 C328 1.398 . S
C327 H354 0.930 . S
C328 C323 1.382 . S
C328 C327 1.398 . S
C328 H355 0.929 . S
C329 O342 1.271 . S
C329 O343 1.251 . S
C330 O344 1.252 . S
C330 O345 1.272 . S
C331 Sm321 2.846 1_545 S
C331 C332 1.506 . S
C331 O346 1.261 . S
C331 O347 1.242 . S
C332 C331 1.506 . S
C332 C333 1.358 . S
C332 C337 1.382 . S
C333 C332 1.358 . S
C333 C334 1.385 . S
C333 H356 0.930 . S
C334 C333 1.385 . S
C334 C335 1.395 . S
C334 H357 0.929 . S
C335 C334 1.395 . S
C335 C336 1.335 . S
C336 C335 1.335 . S
C336 C337 1.398 . S
C336 H358 0.930 . S
C337 C332 1.382 . S
C337 C336 1.398 . S
C337 H359 0.929 . S
C338 O348 1.271 . S
C338 O349 1.251 . S
C339 O350 1.252 . S
C339 O351 1.272 . S
O340 Sm320 2.543 . S
O340 C322 1.261 . S
O341 Sm320 2.450 . S
O341 C322 1.242 . S
O342 Sm320 2.681 . S
O342 Sm321 2.386 . S
O342 C329 1.271 . S
O343 Sm320 2.464 . S
O343 C329 1.251 . S
O344 Sm320 2.396 . S
O344 C330 1.252 . S
O345 Sm321 2.408 . S
O345 C330 1.272 . S
O346 Sm321 2.543 1_545 S
O346 C331 1.261 . S
O347 Sm321 2.450 1_545 S
O347 C331 1.242 . S
O348 Sm320 2.386 . S
O348 Sm321 2.681 . S
O348 C338 1.271 . S
O349 Sm321 2.464 . S
O349 C338 1.251 . S
O350 Sm321 2.396 . S
O350 C339 1.252 . S
O351 Sm320 2.408 . S
O351 C339 1.272 . S
H352 C324 0.930 . S
H353 C325 0.929 . S
H354 C327 0.930 . S
H355 C328 0.929 . S
H356 C333 0.930 . S
H357 C334 0.929 . S
H358 C336 0.930 . S
H359 C337 0.929 . S
Sm360 C362 2.846 . S
Sm360 O380 2.543 . S
Sm360 O381 2.450 . S
Sm360 O382 2.681 . S
Sm360 O383 2.464 . S
Sm360 O384 2.396 . S
Sm360 O388 2.386 . S
Sm360 O391 2.408 . S
Sm361 C371 2.846 . S
Sm361 O382 2.386 . S
Sm361 O385 2.408 . S
Sm361 O386 2.543 . S
Sm361 O387 2.450 . S
Sm361 O388 2.681 . S
Sm361 O389 2.464 . S
Sm361 O390 2.396 . S
C362 Sm360 2.846 . S
C362 C363 1.506 . S
C362 O380 1.261 . S
C362 O381 1.242 . S
C363 C362 1.506 . S
C363 C364 1.358 1_565 S
C363 C368 1.382 1_565 S
C364 C363 1.358 1_545 S
C364 C365 1.385 . S
C364 H392 0.930 1_545 S
C365 C364 1.385 . S
C365 C366 1.395 . S
C365 H393 0.929 . S
C366 C365 1.395 . S
C366 C367 1.335 . S
C367 C366 1.335 . S
C367 C368 1.398 . S
C367 H394 0.930 . S
C368 C363 1.382 1_545 S
C368 C367 1.398 . S
C368 H395 0.929 . S
C369 O382 1.271 . S
C369 O383 1.251 . S
C370 O384 1.252 . S
C370 O385 1.272 . S
C371 Sm361 2.846 . S
C371 C372 1.506 . S
C371 O386 1.261 . S
C371 O387 1.242 . S
C372 C371 1.506 . S
C372 C373 1.358 . S
C372 C377 1.382 . S
C373 C372 1.358 . S
C373 C374 1.385 . S
C373 H396 0.930 . S
C374 C373 1.385 . S
C374 C375 1.395 . S
C374 H397 0.929 . S
C375 C374 1.395 . S
C375 C376 1.335 . S
C376 C375 1.335 . S
C376 C377 1.398 . S
C376 H398 0.930 . S
C377 C372 1.382 . S
C377 C376 1.398 . S
C377 H399 0.929 . S
C378 O388 1.271 . S
C378 O389 1.251 . S
C379 O390 1.252 . S
C379 O391 1.272 . S
O380 Sm360 2.543 . S
O380 C362 1.261 . S
O381 Sm360 2.450 . S
O381 C362 1.242 . S
O382 Sm360 2.681 . S
O382 Sm361 2.386 . S
O382 C369 1.271 . S
O383 Sm360 2.464 . S
O383 C369 1.251 . S
O384 Sm360 2.396 . S
O384 C370 1.252 . S
O385 Sm361 2.408 . S
O385 C370 1.272 . S
O386 Sm361 2.543 . S
O386 C371 1.261 . S
O387 Sm361 2.450 . S
O387 C371 1.242 . S
O388 Sm360 2.386 . S
O388 Sm361 2.681 . S
O388 C378 1.271 . S
O389 Sm361 2.464 . S
O389 C378 1.251 . S
O390 Sm361 2.396 . S
O390 C379 1.252 . S
O391 Sm360 2.408 . S
O391 C379 1.272 . S
H392 C364 0.930 1_565 S
H393 C365 0.929 . S
H394 C367 0.930 . S
H395 C368 0.929 . S
H396 C373 0.930 . S
H397 C374 0.929 . S
H398 C376 0.930 . S
H399 C377 0.929 . S
Sm400 C402 2.846 . S
Sm400 O420 2.543 . S
Sm400 O421 2.450 . S
Sm400 O422 2.681 . S
Sm400 O423 2.464 . S
Sm400 O424 2.396 . S
Sm400 O428 2.386 . S
Sm400 O431 2.408 . S
Sm401 C411 2.846 . S
Sm401 O422 2.386 . S
Sm401 O425 2.408 . S
Sm401 O426 2.543 . S
Sm401 O427 2.450 . S
Sm401 O428 2.681 . S
Sm401 O429 2.464 . S
Sm401 O430 2.396 . S
C402 Sm400 2.846 . S
C402 C403 1.506 . S
C402 O420 1.261 . S
C402 O421 1.242 . S
C403 C402 1.506 . S
C403 C404 1.358 . S
C403 C408 1.382 . S
C404 C403 1.358 . S
C404 C405 1.385 1_455 S
C404 H432 0.930 . S
C405 C404 1.385 1_655 S
C405 C406 1.395 . S
C405 H433 0.929 . S
C406 C405 1.395 . S
C406 C407 1.335 . S
C407 C406 1.335 . S
C407 C408 1.398 1_655 S
C407 H434 0.930 . S
C408 C403 1.382 . S
C408 C407 1.398 1_455 S
C408 H435 0.929 . S
C409 O422 1.271 . S
C409 O423 1.251 . S
C410 O424 1.252 . S
C410 O425 1.272 . S
C411 Sm401 2.846 . S
C411 C412 1.506 . S
C411 O426 1.261 . S
C411 O427 1.242 . S
C412 C411 1.506 . S
C412 C413 1.358 . S
C412 C417 1.382 . S
C413 C412 1.358 . S
C413 C414 1.385 . S
C413 H436 0.930 . S
C414 C413 1.385 . S
C414 C415 1.395 . S
C414 H437 0.929 . S
C415 C414 1.395 . S
C415 C416 1.335 . S
C416 C415 1.335 . S
C416 C417 1.398 . S
C416 H438 0.930 . S
C417 C412 1.382 . S
C417 C416 1.398 . S
C417 H439 0.929 . S
C418 O428 1.271 . S
C418 O429 1.251 . S
C419 O430 1.252 . S
C419 O431 1.272 . S
O420 Sm400 2.543 . S
O420 C402 1.261 . S
O421 Sm400 2.450 . S
O421 C402 1.242 . S
O422 Sm400 2.681 . S
O422 Sm401 2.386 . S
O422 C409 1.271 . S
O423 Sm400 2.464 . S
O423 C409 1.251 . S
O424 Sm400 2.396 . S
O424 C410 1.252 . S
O425 Sm401 2.408 . S
O425 C410 1.272 . S
O426 Sm401 2.543 . S
O426 C411 1.261 . S
O427 Sm401 2.450 . S
O427 C411 1.242 . S
O428 Sm400 2.386 . S
O428 Sm401 2.681 . S
O428 C418 1.271 . S
O429 Sm401 2.464 . S
O429 C418 1.251 . S
O430 Sm401 2.396 . S
O430 C419 1.252 . S
O431 Sm400 2.408 . S
O431 C419 1.272 . S
H432 C404 0.930 . S
H433 C405 0.929 . S
H434 C407 0.930 . S
H435 C408 0.929 . S
H436 C413 0.930 . S
H437 C414 0.929 . S
H438 C416 0.930 . S
H439 C417 0.929 . S
Sm440 C442 2.846 . S
Sm440 O460 2.543 . S
Sm440 O461 2.450 . S
Sm440 O462 2.681 . S
Sm440 O463 2.464 . S
Sm440 O464 2.396 . S
Sm440 O468 2.386 . S
Sm440 O471 2.408 . S
Sm441 C451 2.846 . S
Sm441 O462 2.386 . S
Sm441 O465 2.408 . S
Sm441 O466 2.543 . S
Sm441 O467 2.450 . S
Sm441 O468 2.681 . S
Sm441 O469 2.464 . S
Sm441 O470 2.396 . S
C442 Sm440 2.846 . S
C442 C443 1.506 . S
C442 O460 1.261 . S
C442 O461 1.242 . S
C443 C442 1.506 . S
C443 C444 1.358 . S
C443 C448 1.382 . S
C444 C443 1.358 . S
C444 C445 1.385 . S
C444 H472 0.930 . S
C445 C444 1.385 . S
C445 C446 1.395 . S
C445 H473 0.929 . S
C446 C445 1.395 . S
C446 C447 1.335 . S
C447 C446 1.335 . S
C447 C448 1.398 . S
C447 H474 0.930 . S
C448 C443 1.382 . S
C448 C447 1.398 . S
C448 H475 0.929 . S
C449 O462 1.271 . S
C449 O463 1.251 . S
C450 O464 1.252 . S
C450 O465 1.272 . S
C451 Sm441 2.846 . S
C451 C452 1.506 . S
C451 O466 1.261 . S
C451 O467 1.242 . S
C452 C451 1.506 . S
C452 C453 1.358 . S
C452 C457 1.382 . S
C453 C452 1.358 . S
C453 C454 1.385 . S
C453 H476 0.930 . S
C454 C453 1.385 . S
C454 C455 1.395 . S
C454 H477 0.929 . S
C455 C454 1.395 . S
C455 C456 1.335 . S
C456 C455 1.335 . S
C456 C457 1.398 . S
C456 H478 0.930 . S
C457 C452 1.382 . S
C457 C456 1.398 . S
C457 H479 0.929 . S
C458 O468 1.271 . S
C458 O469 1.251 . S
C459 O470 1.252 . S
C459 O471 1.272 . S
O460 Sm440 2.543 . S
O460 C442 1.261 . S
O461 Sm440 2.450 . S
O461 C442 1.242 . S
O462 Sm440 2.681 . S
O462 Sm441 2.386 . S
O462 C449 1.271 . S
O463 Sm440 2.464 . S
O463 C449 1.251 . S
O464 Sm440 2.396 . S
O464 C450 1.252 . S
O465 Sm441 2.408 . S
O465 C450 1.272 . S
O466 Sm441 2.543 . S
O466 C451 1.261 . S
O467 Sm441 2.450 . S
O467 C451 1.242 . S
O468 Sm440 2.386 . S
O468 Sm441 2.681 . S
O468 C458 1.271 . S
O469 Sm441 2.464 . S
O469 C458 1.251 . S
O470 Sm441 2.396 . S
O470 C459 1.252 . S
O471 Sm440 2.408 . S
O471 C459 1.272 . S
H472 C444 0.930 . S
H473 C445 0.929 . S
H474 C447 0.930 . S
H475 C448 0.929 . S
H476 C453 0.930 . S
H477 C454 0.929 . S
H478 C456 0.930 . S
H479 C457 0.929 . S
Sm480 C482 2.846 . S
Sm480 O500 2.543 . S
Sm480 O501 2.450 . S
Sm480 O502 2.681 . S
Sm480 O503 2.464 . S
Sm480 O504 2.396 . S
Sm480 O508 2.386 . S
Sm480 O511 2.408 . S
Sm481 C491 2.846 . S
Sm481 O502 2.386 . S
Sm481 O505 2.408 . S
Sm481 O506 2.543 . S
Sm481 O507 2.450 . S
Sm481 O508 2.681 . S
Sm481 O509 2.464 . S
Sm481 O510 2.396 . S
C482 Sm480 2.846 . S
C482 C483 1.506 . S
C482 O500 1.261 . S
C482 O501 1.242 . S
C483 C482 1.506 . S
C483 C484 1.358 1_655 S
C483 C488 1.382 1_655 S
C484 C483 1.358 1_455 S
C484 C485 1.385 . S
C484 H512 0.930 1_455 S
C485 C484 1.385 . S
C485 C486 1.395 . S
C485 H513 0.929 . S
C486 C485 1.395 . S
C486 C487 1.335 . S
C487 C486 1.335 . S
C487 C488 1.398 . S
C487 H514 0.930 . S
C488 C483 1.382 1_455 S
C488 C487 1.398 . S
C488 H515 0.929 . S
C489 O502 1.271 . S
C489 O503 1.251 . S
C490 O504 1.252 . S
C490 O505 1.272 . S
C491 Sm481 2.846 . S
C491 C492 1.506 . S
C491 O506 1.261 . S
C491 O507 1.242 . S
C492 C491 1.506 . S
C492 C493 1.358 . S
C492 C497 1.382 . S
C493 C492 1.358 . S
C493 C494 1.385 . S
C493 H516 0.930 . S
C494 C493 1.385 . S
C494 C495 1.395 . S
C494 H517 0.929 . S
C495 C494 1.395 . S
C495 C496 1.335 . S
C496 C495 1.335 . S
C496 C497 1.398 . S
C496 H518 0.930 . S
C497 C492 1.382 . S
C497 C496 1.398 . S
C497 H519 0.929 . S
C498 O508 1.271 . S
C498 O509 1.251 . S
C499 O510 1.252 . S
C499 O511 1.272 . S
O500 Sm480 2.543 . S
O500 C482 1.261 . S
O501 Sm480 2.450 . S
O501 C482 1.242 . S
O502 Sm480 2.681 . S
O502 Sm481 2.386 . S
O502 C489 1.271 . S
O503 Sm480 2.464 . S
O503 C489 1.251 . S
O504 Sm480 2.396 . S
O504 C490 1.252 . S
O505 Sm481 2.408 . S
O505 C490 1.272 . S
O506 Sm481 2.543 . S
O506 C491 1.261 . S
O507 Sm481 2.450 . S
O507 C491 1.242 . S
O508 Sm480 2.386 . S
O508 Sm481 2.681 . S
O508 C498 1.271 . S
O509 Sm481 2.464 . S
O509 C498 1.251 . S
O510 Sm481 2.396 . S
O510 C499 1.252 . S
O511 Sm480 2.408 . S
O511 C499 1.272 . S
H512 C484 0.930 1_655 S
H513 C485 0.929 . S
H514 C487 0.930 . S
H515 C488 0.929 . S
H516 C493 0.930 . S
H517 C494 0.929 . S
H518 C496 0.930 . S
H519 C497 0.929 . S
Sm520 C522 2.846 . S
Sm520 O540 2.543 . S
Sm520 O541 2.450 . S
Sm520 O542 2.681 . S
Sm520 O543 2.464 . S
Sm520 O544 2.396 . S
Sm520 O548 2.386 . S
Sm520 O551 2.408 . S
Sm521 C531 2.846 . S
Sm521 O542 2.386 . S
Sm521 O545 2.408 . S
Sm521 O546 2.543 . S
Sm521 O547 2.450 . S
Sm521 O548 2.681 . S
Sm521 O549 2.464 . S
Sm521 O550 2.396 . S
C522 Sm520 2.846 . S
C522 C523 1.506 . S
C522 O540 1.261 . S
C522 O541 1.242 . S
C523 C522 1.506 . S
C523 C524 1.358 . S
C523 C528 1.382 . S
C524 C523 1.358 . S
C524 C525 1.385 . S
C524 H552 0.930 . S
C525 C524 1.385 . S
C525 C526 1.395 . S
C525 H553 0.929 . S
C526 C525 1.395 . S
C526 C527 1.335 . S
C527 C526 1.335 . S
C527 C528 1.398 . S
C527 H554 0.930 . S
C528 C523 1.382 . S
C528 C527 1.398 . S
C528 H555 0.929 . S
C529 O542 1.271 . S
C529 O543 1.251 . S
C530 O544 1.252 . S
C530 O545 1.272 . S
C531 Sm521 2.846 . S
C531 C532 1.506 . S
C531 O546 1.261 . S
C531 O547 1.242 . S
C532 C531 1.506 . S
C532 C533 1.358 . S
C532 C537 1.382 . S
C533 C532 1.358 . S
C533 C534 1.385 . S
C533 H556 0.930 . S
C534 C533 1.385 . S
C534 C535 1.395 . S
C534 H557 0.929 . S
C535 C534 1.395 . S
C535 C536 1.335 . S
C536 C535 1.335 . S
C536 C537 1.398 . S
C536 H558 0.930 . S
C537 C532 1.382 . S
C537 C536 1.398 . S
C537 H559 0.929 . S
C538 O548 1.271 . S
C538 O549 1.251 . S
C539 O550 1.252 . S
C539 O551 1.272 . S
O540 Sm520 2.543 . S
O540 C522 1.261 . S
O541 Sm520 2.450 . S
O541 C522 1.242 . S
O542 Sm520 2.681 . S
O542 Sm521 2.386 . S
O542 C529 1.271 . S
O543 Sm520 2.464 . S
O543 C529 1.251 . S
O544 Sm520 2.396 . S
O544 C530 1.252 . S
O545 Sm521 2.408 . S
O545 C530 1.272 . S
O546 Sm521 2.543 . S
O546 C531 1.261 . S
O547 Sm521 2.450 . S
O547 C531 1.242 . S
O548 Sm520 2.386 . S
O548 Sm521 2.681 . S
O548 C538 1.271 . S
O549 Sm521 2.464 . S
O549 C538 1.251 . S
O550 Sm521 2.396 . S
O550 C539 1.252 . S
O551 Sm520 2.408 . S
O551 C539 1.272 . S
H552 C524 0.930 . S
H553 C525 0.929 . S
H554 C527 0.930 . S
H555 C528 0.929 . S
H556 C533 0.930 . S
H557 C534 0.929 . S
H558 C536 0.930 . S
H559 C537 0.929 . S
Sm560 C562 2.846 . S
Sm560 O580 2.543 . S
Sm560 O581 2.450 . S
Sm560 O582 2.681 . S
Sm560 O583 2.464 . S
Sm560 O584 2.396 . S
Sm560 O588 2.386 . S
Sm560 O591 2.408 . S
Sm561 C571 2.846 . S
Sm561 O582 2.386 . S
Sm561 O585 2.408 . S
Sm561 O586 2.543 . S
Sm561 O587 2.450 . S
Sm561 O588 2.681 . S
Sm561 O589 2.464 . S
Sm561 O590 2.396 . S
C562 Sm560 2.846 . S
C562 C563 1.506 . S
C562 O580 1.261 . S
C562 O581 1.242 . S
C563 C562 1.506 . S
C563 C564 1.358 . S
C563 C568 1.382 . S
C564 C563 1.358 . S
C564 C565 1.385 1_545 S
C564 H592 0.930 . S
C565 C564 1.385 1_565 S
C565 C566 1.395 . S
C565 H593 0.929 . S
C566 C565 1.395 . S
C566 C567 1.335 . S
C567 C566 1.335 . S
C567 C568 1.398 1_565 S
C567 H594 0.930 . S
C568 C563 1.382 . S
C568 C567 1.398 1_545 S
C568 H595 0.929 . S
C569 O582 1.271 . S
C569 O583 1.251 . S
C570 O584 1.252 . S
C570 O585 1.272 . S
C571 Sm561 2.846 . S
C571 C572 1.506 . S
C571 O586 1.261 . S
C571 O587 1.242 . S
C572 C571 1.506 . S
C572 C573 1.358 . S
C572 C577 1.382 . S
C573 C572 1.358 . S
C573 C574 1.385 . S
C573 H596 0.930 . S
C574 C573 1.385 . S
C574 C575 1.395 . S
C574 H597 0.929 . S
C575 C574 1.395 . S
C575 C576 1.335 . S
C576 C575 1.335 . S
C576 C577 1.398 . S
C576 H598 0.930 . S
C577 C572 1.382 . S
C577 C576 1.398 . S
C577 H599 0.929 . S
C578 O588 1.271 . S
C578 O589 1.251 . S
C579 O590 1.252 . S
C579 O591 1.272 . S
O580 Sm560 2.543 . S
O580 C562 1.261 . S
O581 Sm560 2.450 . S
O581 C562 1.242 . S
O582 Sm560 2.681 . S
O582 Sm561 2.386 . S
O582 C569 1.271 . S
O583 Sm560 2.464 . S
O583 C569 1.251 . S
O584 Sm560 2.396 . S
O584 C570 1.252 . S
O585 Sm561 2.408 . S
O585 C570 1.272 . S
O586 Sm561 2.543 . S
O586 C571 1.261 . S
O587 Sm561 2.450 . S
O587 C571 1.242 . S
O588 Sm560 2.386 . S
O588 Sm561 2.681 . S
O588 C578 1.271 . S
O589 Sm561 2.464 . S
O589 C578 1.251 . S
O590 Sm561 2.396 . S
O590 C579 1.252 . S
O591 Sm560 2.408 . S
O591 C579 1.272 . S
H592 C564 0.930 . S
H593 C565 0.929 . S
H594 C567 0.930 . S
H595 C568 0.929 . S
H596 C573 0.930 . S
H597 C574 0.929 . S
H598 C576 0.930 . S
H599 C577 0.929 . S
Sm600 C602 2.846 . S
Sm600 O620 2.543 . S
Sm600 O621 2.450 . S
Sm600 O622 2.681 . S
Sm600 O623 2.464 . S
Sm600 O624 2.396 . S
Sm600 O628 2.386 . S
Sm600 O631 2.408 . S
Sm601 C611 2.846 . S
Sm601 O622 2.386 . S
Sm601 O625 2.408 . S
Sm601 O626 2.543 . S
Sm601 O627 2.450 . S
Sm601 O628 2.681 . S
Sm601 O629 2.464 . S
Sm601 O630 2.396 . S
C602 Sm600 2.846 . S
C602 C603 1.506 . S
C602 O620 1.261 . S
C602 O621 1.242 . S
C603 C602 1.506 . S
C603 C604 1.358 . S
C603 C608 1.382 . S
C604 C603 1.358 . S
C604 C605 1.385 . S
C604 H632 0.930 . S
C605 C604 1.385 . S
C605 C606 1.395 . S
C605 H633 0.929 . S
C606 C605 1.395 . S
C606 C607 1.335 . S
C607 C606 1.335 . S
C607 C608 1.398 . S
C607 H634 0.930 . S
C608 C603 1.382 . S
C608 C607 1.398 . S
C608 H635 0.929 . S
C609 O622 1.271 . S
C609 O623 1.251 . S
C610 O624 1.252 . S
C610 O625 1.272 . S
C611 Sm601 2.846 . S
C611 C612 1.506 1_545 S
C611 O626 1.261 . S
C611 O627 1.242 . S
C612 C611 1.506 1_565 S
C612 C613 1.358 . S
C612 C617 1.382 . S
C613 C612 1.358 . S
C613 C614 1.385 . S
C613 H636 0.930 . S
C614 C613 1.385 . S
C614 C615 1.395 . S
C614 H637 0.929 . S
C615 C614 1.395 . S
C615 C616 1.335 . S
C616 C615 1.335 . S
C616 C617 1.398 . S
C616 H638 0.930 . S
C617 C612 1.382 . S
C617 C616 1.398 . S
C617 H639 0.929 . S
C618 O628 1.271 . S
C618 O629 1.251 . S
C619 O630 1.252 . S
C619 O631 1.272 . S
O620 Sm600 2.543 . S
O620 C602 1.261 . S
O621 Sm600 2.450 . S
O621 C602 1.242 . S
O622 Sm600 2.681 . S
O622 Sm601 2.386 . S
O622 C609 1.271 . S
O623 Sm600 2.464 . S
O623 C609 1.251 . S
O624 Sm600 2.396 . S
O624 C610 1.252 . S
O625 Sm601 2.408 . S
O625 C610 1.272 . S
O626 Sm601 2.543 . S
O626 C611 1.261 . S
O627 Sm601 2.450 . S
O627 C611 1.242 . S
O628 Sm600 2.386 . S
O628 Sm601 2.681 . S
O628 C618 1.271 . S
O629 Sm601 2.464 . S
O629 C618 1.251 . S
O630 Sm601 2.396 . S
O630 C619 1.252 . S
O631 Sm600 2.408 . S
O631 C619 1.272 . S
H632 C604 0.930 . S
H633 C605 0.929 . S
H634 C607 0.930 . S
H635 C608 0.929 . S
H636 C613 0.930 . S
H637 C614 0.929 . S
H638 C616 0.930 . S
H639 C617 0.929 . S
Sm640 C642 2.846 . S
Sm640 O660 2.543 . S
Sm640 O661 2.450 . S
Sm640 O662 2.681 . S
Sm640 O663 2.464 . S
Sm640 O664 2.396 . S
Sm640 O668 2.386 . S
Sm640 O671 2.408 . S
Sm641 C651 2.846 1_655 S
Sm641 O662 2.386 . S
Sm641 O665 2.408 . S
Sm641 O666 2.543 1_655 S
Sm641 O667 2.450 1_655 S
Sm641 O668 2.681 . S
Sm641 O669 2.464 . S
Sm641 O670 2.396 . S
C642 Sm640 2.846 . S
C642 C643 1.506 . S
C642 O660 1.261 . S
C642 O661 1.242 . S
C643 C642 1.506 . S
C643 C644 1.358 . S
C643 C648 1.382 . S
C644 C643 1.358 . S
C644 C645 1.385 . S
C644 H672 0.930 . S
C645 C644 1.385 . S
C645 C646 1.395 . S
C645 H673 0.929 . S
C646 C645 1.395 . S
C646 C647 1.335 . S
C647 C646 1.335 . S
C647 C648 1.398 . S
C647 H674 0.930 . S
C648 C643 1.382 . S
C648 C647 1.398 . S
C648 H675 0.929 . S
C649 O662 1.271 . S
C649 O663 1.251 . S
C650 O664 1.252 . S
C650 O665 1.272 . S
C651 Sm641 2.846 1_455 S
C651 C652 1.506 . S
C651 O666 1.261 . S
C651 O667 1.242 . S
C652 C651 1.506 . S
C652 C653 1.358 . S
C652 C657 1.382 . S
C653 C652 1.358 . S
C653 C654 1.385 . S
C653 H676 0.930 . S
C654 C653 1.385 . S
C654 C655 1.395 . S
C654 H677 0.929 . S
C655 C654 1.395 . S
C655 C656 1.335 . S
C656 C655 1.335 . S
C656 C657 1.398 . S
C656 H678 0.930 . S
C657 C652 1.382 . S
C657 C656 1.398 . S
C657 H679 0.929 . S
C658 O668 1.271 . S
C658 O669 1.251 . S
C659 O670 1.252 . S
C659 O671 1.272 . S
O660 Sm640 2.543 . S
O660 C642 1.261 . S
O661 Sm640 2.450 . S
O661 C642 1.242 . S
O662 Sm640 2.681 . S
O662 Sm641 2.386 . S
O662 C649 1.271 . S
O663 Sm640 2.464 . S
O663 C649 1.251 . S
O664 Sm640 2.396 . S
O664 C650 1.252 . S
O665 Sm641 2.408 . S
O665 C650 1.272 . S
O666 Sm641 2.543 1_455 S
O666 C651 1.261 . S
O667 Sm641 2.450 1_455 S
O667 C651 1.242 . S
O668 Sm640 2.386 . S
O668 Sm641 2.681 . S
O668 C658 1.271 . S
O669 Sm641 2.464 . S
O669 C658 1.251 . S
O670 Sm641 2.396 . S
O670 C659 1.252 . S
O671 Sm640 2.408 . S
O671 C659 1.272 . S
H672 C644 0.930 . S
H673 C645 0.929 . S
H674 C647 0.930 . S
H675 C648 0.929 . S
H676 C653 0.930 . S
H677 C654 0.929 . S
H678 C656 0.930 . S
H679 C657 0.929 . S
Sm680 C682 2.846 . S
Sm680 O700 2.543 . S
Sm680 O701 2.450 . S
Sm680 O702 2.681 . S
Sm680 O703 2.464 . S
Sm680 O704 2.396 . S
Sm680 O708 2.386 . S
Sm680 O711 2.408 . S
Sm681 C691 2.846 . S
Sm681 O702 2.386 . S
Sm681 O705 2.408 . S
Sm681 O706 2.543 . S
Sm681 O707 2.450 . S
Sm681 O708 2.681 . S
Sm681 O709 2.464 . S
Sm681 O710 2.396 . S
C682 Sm680 2.846 . S
C682 C683 1.506 . S
C682 O700 1.261 . S
C682 O701 1.242 . S
C683 C682 1.506 . S
C683 C684 1.358 . S
C683 C688 1.382 . S
C684 C683 1.358 . S
C684 C685 1.385 . S
C684 H712 0.930 . S
C685 C684 1.385 . S
C685 C686 1.395 . S
C685 H713 0.929 . S
C686 C685 1.395 . S
C686 C687 1.335 . S
C687 C686 1.335 . S
C687 C688 1.398 . S
C687 H714 0.930 . S
C688 C683 1.382 . S
C688 C687 1.398 . S
C688 H715 0.929 . S
C689 O702 1.271 . S
C689 O703 1.251 . S
C690 O704 1.252 . S
C690 O705 1.272 . S
C691 Sm681 2.846 . S
C691 C692 1.506 . S
C691 O706 1.261 . S
C691 O707 1.242 . S
C692 C691 1.506 . S
C692 C693 1.358 . S
C692 C697 1.382 . S
C693 C692 1.358 . S
C693 C694 1.385 . S
C693 H716 0.930 . S
C694 C693 1.385 . S
C694 C695 1.395 . S
C694 H717 0.929 . S
C695 C694 1.395 . S
C695 C696 1.335 . S
C696 C695 1.335 . S
C696 C697 1.398 . S
C696 H718 0.930 . S
C697 C692 1.382 . S
C697 C696 1.398 . S
C697 H719 0.929 . S
C698 O708 1.271 . S
C698 O709 1.251 . S
C699 O710 1.252 . S
C699 O711 1.272 . S
O700 Sm680 2.543 . S
O700 C682 1.261 . S
O701 Sm680 2.450 . S
O701 C682 1.242 . S
O702 Sm680 2.681 . S
O702 Sm681 2.386 . S
O702 C689 1.271 . S
O703 Sm680 2.464 . S
O703 C689 1.251 . S
O704 Sm680 2.396 . S
O704 C690 1.252 . S
O705 Sm681 2.408 . S
O705 C690 1.272 . S
O706 Sm681 2.543 . S
O706 C691 1.261 . S
O707 Sm681 2.450 . S
O707 C691 1.242 . S
O708 Sm680 2.386 . S
O708 Sm681 2.681 . S
O708 C698 1.271 . S
O709 Sm681 2.464 . S
O709 C698 1.251 . S
O710 Sm681 2.396 . S
O710 C699 1.252 . S
O711 Sm680 2.408 . S
O711 C699 1.272 . S
H712 C684 0.930 . S
H713 C685 0.929 . S
H714 C687 0.930 . S
H715 C688 0.929 . S
H716 C693 0.930 . S
H717 C694 0.929 . S
H718 C696 0.930 . S
H719 C697 0.929 . S
C720 C721 1.387 . S
C720 H724 0.950 . S
C720 C729 1.390 . S
C721 C720 1.387 . S
C721 C723 1.387 . S
H722 C729 0.950 . S
C723 C721 1.387 . S
C723 C725 1.390 . S
C723 H727 0.950 . S
H724 C720 0.950 . S
C725 C723 1.390 . S
C725 C726 1.387 . S
C725 H728 0.950 . S
C726 C725 1.387 . S
C726 C729 1.387 . S
H727 C723 0.950 . S
H728 C725 0.950 . S
C729 C720 1.390 . S
C729 H722 0.950 . S
C729 C726 1.387 . S
C730 C731 1.387 . S
C730 H734 0.950 . S
C730 C739 1.390 . S
C731 C730 1.387 . S
C731 C733 1.387 . S
H732 C739 0.950 . S
C733 C731 1.387 . S
C733 C735 1.390 . S
C733 H737 0.950 . S
H734 C730 0.950 . S
C735 C733 1.390 . S
C735 C736 1.387 . S
C735 H738 0.950 . S
C736 C735 1.387 . S
C736 C739 1.387 . S
H737 C733 0.950 . S
H738 C735 0.950 . S
C739 C730 1.390 . S
C739 H732 0.950 . S
C739 C736 1.387 . S
C740 C741 1.387 . S
C740 H744 0.950 . S
C740 C749 1.390 . S
C741 C740 1.387 . S
C741 C743 1.387 . S
H742 C749 0.950 . S
C743 C741 1.387 . S
C743 C745 1.390 . S
C743 H747 0.950 . S
H744 C740 0.950 . S
C745 C743 1.390 . S
C745 C746 1.387 . S
C745 H748 0.950 . S
C746 C745 1.387 . S
C746 C749 1.387 . S
H747 C743 0.950 . S
H748 C745 0.950 . S
C749 C740 1.390 . S
C749 H742 0.950 . S
C749 C746 1.387 . S
C750 C751 1.387 . S
C750 H754 0.950 . S
C750 C759 1.390 . S
C751 C750 1.387 . S
C751 C753 1.387 . S
H752 C759 0.950 . S
C753 C751 1.387 . S
C753 C755 1.390 . S
C753 H757 0.950 . S
H754 C750 0.950 . S
C755 C753 1.390 . S
C755 C756 1.387 . S
C755 H758 0.950 . S
C756 C755 1.387 . S
C756 C759 1.387 . S
H757 C753 0.950 . S
H758 C755 0.950 . S
C759 C750 1.390 . S
C759 H752 0.950 . S
C759 C756 1.387 . S
C760 C761 1.387 . S
C760 H764 0.950 . S
C760 C769 1.390 . S
C761 C760 1.387 . S
C761 C763 1.387 . S
H762 C769 0.950 . S
C763 C761 1.387 . S
C763 C765 1.390 . S
C763 H767 0.950 . S
H764 C760 0.950 . S
C765 C763 1.390 . S
C765 C766 1.387 . S
C765 H768 0.950 . S
C766 C765 1.387 . S
C766 C769 1.387 . S
H767 C763 0.950 . S
H768 C765 0.950 . S
C769 C760 1.390 . S
C769 H762 0.950 . S
C769 C766 1.387 . S
C770 C771 1.387 . S
C770 H774 0.950 . S
C770 C779 1.390 . S
C771 C770 1.387 . S
C771 C773 1.387 . S
H772 C779 0.950 . S
C773 C771 1.387 . S
C773 C775 1.390 . S
C773 H777 0.950 . S
H774 C770 0.950 . S
C775 C773 1.390 . S
C775 C776 1.387 . S
C775 H778 0.950 . S
C776 C775 1.387 . S
C776 C779 1.387 . S
H777 C773 0.950 . S
H778 C775 0.950 . S
C779 C770 1.390 . S
C779 H772 0.950 . S
C779 C776 1.387 . S
C780 C781 1.387 . S
C780 H784 0.950 . S
C780 C789 1.390 . S
C781 C780 1.387 . S
C781 C783 1.387 . S
H782 C789 0.950 . S
C783 C781 1.387 . S
C783 C785 1.390 . S
C783 H787 0.950 . S
H784 C780 0.950 . S
C785 C783 1.390 . S
C785 C786 1.387 . S
C785 H788 0.950 . S
C786 C785 1.387 . S
C786 C789 1.387 . S
H787 C783 0.950 . S
H788 C785 0.950 . S
C789 C780 1.390 . S
C789 H782 0.950 . S
C789 C786 1.387 . S
C790 C791 1.387 . S
C790 H794 0.950 . S
C790 C799 1.390 1_545 S
C791 C790 1.387 . S
C791 C793 1.387 . S
H792 C799 0.950 . S
C793 C791 1.387 . S
C793 C795 1.390 1_545 S
C793 H797 0.950 . S
H794 C790 0.950 . S
C795 C793 1.390 1_565 S
C795 C796 1.387 . S
C795 H798 0.950 . S
C796 C795 1.387 . S
C796 C799 1.387 . S
H797 C793 0.950 . S
H798 C795 0.950 . S
C799 C790 1.390 1_565 S
C799 H792 0.950 . S
C799 C796 1.387 . S
C800 C801 1.387 . S
C800 H804 0.950 . S
C800 C809 1.390 . S
C801 C800 1.387 . S
C801 C803 1.387 . S
H802 C809 0.950 . S
C803 C801 1.387 . S
C803 C805 1.390 . S
C803 H807 0.950 . S
H804 C800 0.950 . S
C805 C803 1.390 . S
C805 C806 1.378 1_455 S
C805 H808 0.950 1_455 S
C806 C805 1.378 1_655 S
C806 C809 1.377 1_655 S
H807 C803 0.950 . S
H808 C805 0.950 1_655 S
C809 C800 1.390 . S
C809 H802 0.950 . S
C809 C806 1.377 1_455 S
C810 C811 1.387 . S
C810 H814 0.950 . S
C810 C819 1.390 . S
C811 C810 1.387 . S
C811 C813 1.387 . S
H812 C819 0.950 . S
C813 C811 1.387 . S
C813 C815 1.390 . S
C813 H817 0.950 . S
H814 C810 0.950 . S
C815 C813 1.390 . S
C815 C816 1.387 . S
C815 H818 0.950 . S
C816 C815 1.387 . S
C816 C819 1.387 . S
H817 C813 0.950 . S
H818 C815 0.950 . S
C819 C810 1.390 . S
C819 H812 0.950 . S
C819 C816 1.387 . S
C820 C821 1.387 . S
C820 H824 0.950 . S
C820 C829 1.390 . S
C821 C820 1.387 . S
C821 C823 1.387 . S
H822 C829 0.950 . S
C823 C821 1.387 . S
C823 C825 1.390 . S
C823 H827 0.950 . S
H824 C820 0.950 . S
C825 C823 1.390 . S
C825 C826 1.387 . S
C825 H828 0.950 . S
C826 C825 1.387 . S
C826 C829 1.387 . S
H827 C823 0.950 . S
H828 C825 0.950 . S
C829 C820 1.390 . S
C829 H822 0.950 . S
C829 C826 1.387 . S
C830 C831 1.387 . S
C830 H834 0.950 . S
C830 C839 1.390 . S
C831 C830 1.387 . S
C831 C833 1.387 . S
H832 C839 0.950 . S
C833 C831 1.387 . S
C833 C835 1.390 . S
C833 H837 0.950 . S
H834 C830 0.950 . S
C835 C833 1.390 . S
C835 C836 1.387 . S
C835 H838 0.950 . S
C836 C835 1.387 . S
C836 C839 1.387 . S
H837 C833 0.950 . S
H838 C835 0.950 . S
C839 C830 1.390 . S
C839 H832 0.950 . S
C839 C836 1.387 . S
C840 C841 1.387 . S
C840 H844 0.950 . S
C840 C849 1.390 . S
C841 C840 1.387 . S
C841 C843 1.387 . S
H842 C849 0.950 . S
C843 C841 1.387 . S
C843 C845 1.390 . S
C843 H847 0.950 . S
H844 C840 0.950 . S
C845 C843 1.390 . S
C845 C846 1.387 . S
C845 H848 0.950 . S
C846 C845 1.387 . S
C846 C849 1.387 . S
H847 C843 0.950 . S
H848 C845 0.950 . S
C849 C840 1.390 . S
C849 H842 0.950 . S
C849 C846 1.387 . S
C850 C851 1.387 . S
C850 H854 0.950 . S
C850 C859 1.390 . S
C851 C850 1.387 . S
C851 C853 1.387 . S
H852 C859 0.950 . S
C853 C851 1.387 . S
C853 C855 1.390 . S
C853 H857 0.950 . S
H854 C850 0.950 . S
C855 C853 1.390 . S
C855 C856 1.387 . S
C855 H858 0.950 . S
C856 C855 1.387 . S
C856 C859 1.387 . S
H857 C853 0.950 . S
H858 C855 0.950 . S
C859 C850 1.390 . S
C859 H852 0.950 . S
C859 C856 1.387 . S
C860 C861 1.387 . S
C860 H864 0.950 . S
C860 C869 1.390 . S
C861 C860 1.387 . S
C861 C863 1.387 . S
H862 C869 0.950 . S
C863 C861 1.387 . S
C863 C865 1.390 . S
C863 H867 0.950 . S
H864 C860 0.950 . S
C865 C863 1.390 . S
C865 C866 1.387 . S
C865 H868 0.950 . S
C866 C865 1.387 . S
C866 C869 1.387 . S
H867 C863 0.950 . S
H868 C865 0.950 . S
C869 C860 1.390 . S
C869 H862 0.950 . S
C869 C866 1.387 . S
C870 C871 1.387 . S
C870 H874 0.950 . S
C870 C879 1.390 . S
C871 C870 1.387 . S
C871 C873 1.387 . S
H872 C879 0.950 . S
C873 C871 1.387 . S
C873 C875 1.390 . S
C873 H877 0.950 . S
H874 C870 0.950 . S
C875 C873 1.390 . S
C875 C876 1.387 . S
C875 H878 0.950 . S
C876 C875 1.387 . S
C876 C879 1.387 . S
H877 C873 0.950 . S
H878 C875 0.950 . S
C879 C870 1.390 . S
C879 H872 0.950 . S
C879 C876 1.387 . S
C880 C881 1.374 1_545 S
C880 H884 0.950 . S
C880 C889 1.390 . S
C881 C880 1.374 1_565 S
C881 C883 1.380 1_565 S
H882 C889 0.950 . S
C883 C881 1.380 1_545 S
C883 C885 1.390 . S
C883 H887 0.950 1_545 S
H884 C880 0.950 . S
C885 C883 1.390 . S
C885 C886 1.387 . S
C885 H888 0.950 . S
C886 C885 1.387 . S
C886 C889 1.387 . S
H887 C883 0.950 1_565 S
H888 C885 0.950 . S
C889 C880 1.390 . S
C889 H882 0.950 . S
C889 C886 1.387 . S
C890 C891 1.387 . S
C890 H894 0.950 . S
C890 C899 1.390 1_455 S
C891 C890 1.387 . S
C891 C893 1.387 . S
H892 C899 0.950 . S
C893 C891 1.387 . S
C893 C895 1.390 1_455 S
C893 H897 0.950 . S
H894 C890 0.950 . S
C895 C893 1.390 1_655 S
C895 C896 1.387 . S
C895 H898 0.950 . S
C896 C895 1.387 . S
C896 C899 1.387 . S
H897 C893 0.950 . S
H898 C895 0.950 . S
C899 C890 1.390 1_655 S
C899 H892 0.950 . S
C899 C896 1.387 . S
C900 C901 1.387 . S
C900 H904 0.950 . S
C900 C909 1.390 1_554 S
C901 C900 1.387 . S
C901 C903 1.387 . S
H902 C909 0.950 . S
C903 C901 1.387 . S
C903 C905 1.390 1_554 S
C903 H907 0.950 . S
H904 C900 0.950 . S
C905 C903 1.390 1_556 S
C905 C906 1.387 . S
C905 H908 0.950 . S
C906 C905 1.387 . S
C906 C909 1.387 . S
H907 C903 0.950 . S
H908 C905 0.950 . S
C909 C900 1.390 1_556 S
C909 H902 0.950 . S
C909 C906 1.387 . S
C910 C911 1.387 . S
C910 H914 0.950 . S
C910 C919 1.390 1_556 S
C911 C910 1.387 . S
C911 C913 1.387 1_455 S
H912 C919 0.950 . S
C913 C911 1.387 1_655 S
C913 C915 1.390 1_556 S
C913 H917 0.950 . S
H914 C910 0.950 . S
C915 C913 1.390 1_554 S
C915 C916 1.387 1_655 S
C915 H918 0.950 . S
C916 C915 1.387 1_455 S
C916 C919 1.387 . S
H917 C913 0.950 . S
H918 C915 0.950 . S
C919 C910 1.390 1_554 S
C919 H912 0.950 . S
C919 C916 1.387 . S
C920 C921 1.387 . S
C920 H924 0.950 . S
C920 C929 1.390 1_556 S
C921 C920 1.387 . S
C921 C923 1.387 . S
H922 C929 0.950 . S
C923 C921 1.387 . S
C923 C925 1.390 1_556 S
C923 H927 0.950 . S
H924 C920 0.950 . S
C925 C923 1.390 1_554 S
C925 C926 1.387 . S
C925 H928 0.950 . S
C926 C925 1.387 . S
C926 C929 1.387 . S
H927 C923 0.950 . S
H928 C925 0.950 . S
C929 C920 1.390 1_554 S
C929 H922 0.950 . S
C929 C926 1.387 . S
C930 C931 1.387 . S
C930 H934 0.950 . S
C930 C939 1.390 . S
C931 C930 1.387 . S
C931 C933 1.387 . S
H932 C939 0.950 . S
C933 C931 1.387 . S
C933 C935 1.390 . S
C933 H937 0.950 . S
H934 C930 0.950 . S
C935 C933 1.390 . S
C935 C936 1.387 . S
C935 H938 0.950 . S
C936 C935 1.387 . S
C936 C939 1.387 . S
H937 C933 0.950 . S
H938 C935 0.950 . S
C939 C930 1.390 . S
C939 H932 0.950 . S
C939 C936 1.387 . S
C940 C941 1.387 . S
C940 H944 0.950 . S
C940 C949 1.390 . S
C941 C940 1.387 . S
C941 C943 1.387 . S
H942 C949 0.950 . S
C943 C941 1.387 . S
C943 C945 1.390 . S
C943 H947 0.950 . S
H944 C940 0.950 . S
C945 C943 1.390 . S
C945 C946 1.387 . S
C945 H948 0.950 . S
C946 C945 1.387 . S
C946 C949 1.387 . S
H947 C943 0.950 . S
H948 C945 0.950 . S
C949 C940 1.390 . S
C949 H942 0.950 . S
C949 C946 1.387 . S
C950 C951 1.387 . S
C950 H954 0.950 . S
C950 C959 1.390 . S
C951 C950 1.387 . S
C951 C953 1.387 . S
H952 C959 0.950 . S
C953 C951 1.387 . S
C953 C955 1.390 . S
C953 H957 0.950 . S
H954 C950 0.950 . S
C955 C953 1.390 . S
C955 C956 1.387 . S
C955 H958 0.950 . S
C956 C955 1.387 . S
C956 C959 1.387 . S
H957 C953 0.950 . S
H958 C955 0.950 . S
C959 C950 1.390 . S
C959 H952 0.950 . S
C959 C956 1.387 . S
C960 C961 1.387 . S
C960 H964 0.950 . S
C960 C969 1.390 . S
C961 C960 1.387 . S
C961 C963 1.387 . S
H962 C969 0.950 . S
C963 C961 1.387 . S
C963 C965 1.390 . S
C963 H967 0.950 . S
H964 C960 0.950 . S
C965 C963 1.390 . S
C965 C966 1.387 . S
C965 H968 0.950 . S
C966 C965 1.387 . S
C966 C969 1.387 . S
H967 C963 0.950 . S
H968 C965 0.950 . S
C969 C960 1.390 . S
C969 H962 0.950 . S
C969 C966 1.387 . S
C970 C971 1.387 . S
C970 H974 0.950 . S
C970 C979 1.390 . S
C971 C970 1.387 . S
C971 C973 1.387 . S
H972 C979 0.950 . S
C973 C971 1.387 . S
C973 C975 1.390 . S
C973 H977 0.950 . S
H974 C970 0.950 . S
C975 C973 1.390 . S
C975 C976 1.387 . S
C975 H978 0.950 . S
C976 C975 1.387 . S
C976 C979 1.387 . S
H977 C973 0.950 . S
H978 C975 0.950 . S
C979 C970 1.390 . S
C979 H972 0.950 . S
C979 C976 1.387 . S
C980 C981 1.387 . S
C980 H984 0.950 . S
C980 C989 1.390 . S
C981 C980 1.387 . S
C981 C983 1.387 . S
H982 C989 0.950 . S
C983 C981 1.387 . S
C983 C985 1.390 . S
C983 H987 0.950 . S
H984 C980 0.950 . S
C985 C983 1.390 . S
C985 C986 1.387 . S
C985 H988 0.950 . S
C986 C985 1.387 . S
C986 C989 1.387 . S
H987 C983 0.950 . S
H988 C985 0.950 . S
C989 C980 1.390 . S
C989 H982 0.950 . S
C989 C986 1.387 . S
C990 C991 1.387 . S
C990 H994 0.950 . S
C990 C999 1.390 . S
C991 C990 1.387 . S
C991 C993 1.387 . S
H992 C999 0.950 1_545 S
C993 C991 1.387 . S
C993 C995 1.390 . S
C993 H997 0.950 . S
H994 C990 0.950 . S
C995 C993 1.390 . S
C995 C996 1.387 . S
C995 H998 0.950 . S
C996 C995 1.387 . S
C996 C999 1.387 . S
H997 C993 0.950 . S
H998 C995 0.950 . S
C999 C990 1.390 . S
C999 H992 0.950 1_565 S
C999 C996 1.387 . S
C1000 C1001 1.387 . S
C1000 H1004 0.950 . S
C1000 C1009 1.390 . S
C1001 C1000 1.387 . S
C1001 C1003 1.387 . S
H1002 C1009 0.950 . S
C1003 C1001 1.387 . S
C1003 C1005 1.390 . S
C1003 H1007 0.950 . S
H1004 C1000 0.950 . S
C1005 C1003 1.390 . S
C1005 C1006 1.387 . S
C1005 H1008 0.950 . S
C1006 C1005 1.387 . S
C1006 C1009 1.387 . S
H1007 C1003 0.950 . S
H1008 C1005 0.950 . S
C1009 C1000 1.390 . S
C1009 H1002 0.950 . S
C1009 C1006 1.387 . S
C1010 C1011 1.387 . S
C1010 H1014 0.950 . S
C1010 C1019 1.390 . S
C1011 C1010 1.387 . S
C1011 C1013 1.387 . S
H1012 C1019 0.950 . S
C1013 C1011 1.387 . S
C1013 C1015 1.390 . S
C1013 H1017 0.950 . S
H1014 C1010 0.950 . S
C1015 C1013 1.390 . S
C1015 C1016 1.387 . S
C1015 H1018 0.950 . S
C1016 C1015 1.387 . S
C1016 C1019 1.387 . S
H1017 C1013 0.950 . S
H1018 C1015 0.950 . S
C1019 C1010 1.390 . S
C1019 H1012 0.950 . S
C1019 C1016 1.387 . S
C1020 C1021 1.387 . S
C1020 H1024 0.950 1_655 S
C1020 C1029 1.390 . S
C1021 C1020 1.387 . S
C1021 C1023 1.387 . S
H1022 C1029 0.950 . S
C1023 C1021 1.387 . S
C1023 C1025 1.390 . S
C1023 H1027 0.950 . S
H1024 C1020 0.950 1_455 S
C1025 C1023 1.390 . S
C1025 C1026 1.387 . S
C1025 H1028 0.950 . S
C1026 C1025 1.387 . S
C1026 C1029 1.387 . S
H1027 C1023 0.950 . S
H1028 C1025 0.950 . S
C1029 C1020 1.390 . S
C1029 H1022 0.950 . S
C1029 C1026 1.387 . S
C1030 C1031 1.387 . S
C1030 H1034 0.950 . S
C1030 C1039 1.390 . S
C1031 C1030 1.387 . S
C1031 C1033 1.387 . S
H1032 C1039 0.950 . S
C1033 C1031 1.387 . S
C1033 C1035 1.390 . S
C1033 H1037 0.950 . S
H1034 C1030 0.950 . S
C1035 C1033 1.390 . S
C1035 C1036 1.387 . S
C1035 H1038 0.950 . S
C1036 C1035 1.387 . S
C1036 C1039 1.387 . S
H1037 C1033 0.950 . S
H1038 C1035 0.950 . S
C1039 C1030 1.390 . S
C1039 H1032 0.950 . S
C1039 C1036 1.387 . S
C1040 C1041 1.387 . S
C1040 H1044 0.950 . S
C1040 C1049 1.390 . S
C1041 C1040 1.387 . S
C1041 C1043 1.387 . S
H1042 C1049 0.950 . S
C1043 C1041 1.387 . S
C1043 C1045 1.390 . S
C1043 H1047 0.950 . S
H1044 C1040 0.950 . S
C1045 C1043 1.390 . S
C1045 C1046 1.387 . S
C1045 H1048 0.950 . S
C1046 C1045 1.387 . S
C1046 C1049 1.387 . S
H1047 C1043 0.950 . S
H1048 C1045 0.950 . S
C1049 C1040 1.390 . S
C1049 H1042 0.950 . S
C1049 C1046 1.387 . S
C1050 C1051 1.389 . S
C1050 H1054 0.958 . S
C1050 C1059 1.380 1_655 S
C1051 C1050 1.389 . S
C1051 C1053 1.387 . S
H1052 C1059 0.950 . S
C1053 C1051 1.387 . S
C1053 C1055 1.390 1_655 S
C1053 H1057 0.950 . S
H1054 C1050 0.958 . S
C1055 C1053 1.390 1_455 S
C1055 C1056 1.387 . S
C1055 H1058 0.950 . S
C1056 C1055 1.387 . S
C1056 C1059 1.387 . S
H1057 C1053 0.950 . S
H1058 C1055 0.950 . S
C1059 C1050 1.380 1_455 S
C1059 H1052 0.950 . S
C1059 C1056 1.387 . S
C1060 C1061 1.387 . S
C1060 H1064 0.950 . S
C1060 C1069 1.390 . S
C1061 C1060 1.387 . S
C1061 C1063 1.387 . S
H1062 C1069 0.950 . S
C1063 C1061 1.387 . S
C1063 C1065 1.390 . S
C1063 H1067 0.950 . S
H1064 C1060 0.950 . S
C1065 C1063 1.390 . S
C1065 C1066 1.387 . S
C1065 H1068 0.950 . S
C1066 C1065 1.387 . S
C1066 C1069 1.387 . S
H1067 C1063 0.950 . S
H1068 C1065 0.950 . S
C1069 C1060 1.390 . S
C1069 H1062 0.950 . S
C1069 C1066 1.387 . S
C1070 C1071 1.387 . S
C1070 H1074 0.950 . S
C1070 C1079 1.390 1_565 S
C1071 C1070 1.387 . S
C1071 C1073 1.387 . S
H1072 C1079 0.950 . S
C1073 C1071 1.387 . S
C1073 C1075 1.390 1_565 S
C1073 H1077 0.950 . S
H1074 C1070 0.950 . S
C1075 C1073 1.390 1_545 S
C1075 C1076 1.387 . S
C1075 H1078 0.950 . S
C1076 C1075 1.387 . S
C1076 C1079 1.387 . S
H1077 C1073 0.950 . S
H1078 C1075 0.950 . S
C1079 C1070 1.390 1_545 S
C1079 H1072 0.950 . S
C1079 C1076 1.387 . S
C1080 C1081 1.387 . S
C1080 H1084 0.950 . S
C1080 C1089 1.390 . S
C1081 C1080 1.387 . S
C1081 C1083 1.387 . S
H1082 C1089 0.950 . S
C1083 C1081 1.387 . S
C1083 C1085 1.390 . S
C1083 H1087 0.950 . S
H1084 C1080 0.950 . S
C1085 C1083 1.390 . S
C1085 C1086 1.387 . S
C1085 H1088 0.950 . S
C1086 C1085 1.387 . S
C1086 C1089 1.387 . S
H1087 C1083 0.950 . S
H1088 C1085 0.950 . S
C1089 C1080 1.390 . S
C1089 H1082 0.950 . S
C1089 C1086 1.387 . S
C1090 C1091 1.387 . S
C1090 H1094 0.950 . S
C1090 C1099 1.390 . S
C1091 C1090 1.387 . S
C1091 C1093 1.387 . S
H1092 C1099 0.950 . S
C1093 C1091 1.387 . S
C1093 C1095 1.390 . S
C1093 H1097 0.950 . S
H1094 C1090 0.950 . S
C1095 C1093 1.390 . S
C1095 C1096 1.387 . S
C1095 H1098 0.950 . S
C1096 C1095 1.387 . S
C1096 C1099 1.387 . S
H1097 C1093 0.950 . S
H1098 C1095 0.950 . S
C1099 C1090 1.390 . S
C1099 H1092 0.950 . S
C1099 C1096 1.387 . S
C1100 C1101 1.387 . S
C1100 H1104 0.950 . S
C1100 C1109 1.390 . S
C1101 C1100 1.387 . S
C1101 C1103 1.387 . S
H1102 C1109 0.950 . S
C1103 C1101 1.387 . S
C1103 C1105 1.390 . S
C1103 H1107 0.950 . S
H1104 C1100 0.950 . S
C1105 C1103 1.390 . S
C1105 C1106 1.387 . S
C1105 H1108 0.950 . S
C1106 C1105 1.387 . S
C1106 C1109 1.387 . S
H1107 C1103 0.950 . S
H1108 C1105 0.950 . S
C1109 C1100 1.390 . S
C1109 H1102 0.950 . S
C1109 C1106 1.387 . S
C1110 C1111 1.387 . S
C1110 H1114 0.950 . S
C1110 C1119 1.390 . S
C1111 C1110 1.387 . S
C1111 C1113 1.387 . S
H1112 C1119 0.950 . S
C1113 C1111 1.387 . S
C1113 C1115 1.390 . S
C1113 H1117 0.950 . S
H1114 C1110 0.950 . S
C1115 C1113 1.390 . S
C1115 C1116 1.387 . S
C1115 H1118 0.950 . S
C1116 C1115 1.387 . S
C1116 C1119 1.387 . S
H1117 C1113 0.950 . S
H1118 C1115 0.950 . S
C1119 C1110 1.390 . S
C1119 H1112 0.950 . S
C1119 C1116 1.387 . S
C1120 C1121 1.387 . S
C1120 H1124 0.950 . S
C1120 C1129 1.390 . S
C1121 C1120 1.387 . S
C1121 C1123 1.387 . S
H1122 C1129 0.950 . S
C1123 C1121 1.387 . S
C1123 C1125 1.390 . S
C1123 H1127 0.950 . S
H1124 C1120 0.950 . S
C1125 C1123 1.390 . S
C1125 C1126 1.387 . S
C1125 H1128 0.950 . S
C1126 C1125 1.387 . S
C1126 C1129 1.387 . S
H1127 C1123 0.950 . S
H1128 C1125 0.950 . S
C1129 C1120 1.390 . S
C1129 H1122 0.950 . S
C1129 C1126 1.387 . S
C1130 C1131 1.387 . S
C1130 H1134 0.950 . S
C1130 C1139 1.390 . S
C1131 C1130 1.387 . S
C1131 C1133 1.387 . S
H1132 C1139 0.950 . S
C1133 C1131 1.387 . S
C1133 C1135 1.390 . S
C1133 H1137 0.950 . S
H1134 C1130 0.950 . S
C1135 C1133 1.390 . S
C1135 C1136 1.387 . S
C1135 H1138 0.950 . S
C1136 C1135 1.387 . S
C1136 C1139 1.387 . S
H1137 C1133 0.950 . S
H1138 C1135 0.950 . S
C1139 C1130 1.390 . S
C1139 H1132 0.950 . S
C1139 C1136 1.387 . S
C1140 C1141 1.387 . S
C1140 H1144 0.950 . S
C1140 C1149 1.390 . S
C1141 C1140 1.387 . S
C1141 C1143 1.387 . S
H1142 C1149 0.950 . S
C1143 C1141 1.387 . S
C1143 C1145 1.390 . S
C1143 H1147 0.950 . S
H1144 C1140 0.950 . S
C1145 C1143 1.390 . S
C1145 C1146 1.387 . S
C1145 H1148 0.950 . S
C1146 C1145 1.387 . S
C1146 C1149 1.387 . S
H1147 C1143 0.950 . S
H1148 C1145 0.950 . S
C1149 C1140 1.390 . S
C1149 H1142 0.950 . S
C1149 C1146 1.387 . S
C1150 C1151 1.387 . S
C1150 H1154 0.950 . S
C1150 C1159 1.390 . S
C1151 C1150 1.387 . S
C1151 C1153 1.387 . S
H1152 C1159 0.950 . S
C1153 C1151 1.387 . S
C1153 C1155 1.390 . S
C1153 H1157 0.950 . S
H1154 C1150 0.950 . S
C1155 C1153 1.390 . S
C1155 C1156 1.387 . S
C1155 H1158 0.950 . S
C1156 C1155 1.387 . S
C1156 C1159 1.387 . S
H1157 C1153 0.950 . S
H1158 C1155 0.950 . S
C1159 C1150 1.390 . S
C1159 H1152 0.950 . S
C1159 C1156 1.387 . S
C1160 C1161 1.387 . S
C1160 H1164 0.950 . S
C1160 C1169 1.390 . S
C1161 C1160 1.387 . S
C1161 C1163 1.387 . S
H1162 C1169 0.950 . S
C1163 C1161 1.387 . S
C1163 C1165 1.390 . S
C1163 H1167 0.950 . S
H1164 C1160 0.950 . S
C1165 C1163 1.390 . S
C1165 C1166 1.387 . S
C1165 H1168 0.950 . S
C1166 C1165 1.387 . S
C1166 C1169 1.387 . S
H1167 C1163 0.950 . S
H1168 C1165 0.950 . S
C1169 C1160 1.390 . S
C1169 H1162 0.950 . S
C1169 C1166 1.387 . S
C1170 C1171 1.387 . S
C1170 H1174 0.950 . S
C1170 C1179 1.390 . S
C1171 C1170 1.387 . S
C1171 C1173 1.387 . S
H1172 C1179 0.950 . S
C1173 C1171 1.387 . S
C1173 C1175 1.390 . S
C1173 H1177 0.950 . S
H1174 C1170 0.950 . S
C1175 C1173 1.390 . S
C1175 C1176 1.387 . S
C1175 H1178 0.950 . S
C1176 C1175 1.387 . S
C1176 C1179 1.387 . S
H1177 C1173 0.950 . S
H1178 C1175 0.950 . S
C1179 C1170 1.390 . S
C1179 H1172 0.950 . S
C1179 C1176 1.387 . S
C1180 C1181 1.390 . S
C1180 H1184 0.952 . S
C1180 C1189 1.386 1_565 S
C1181 C1180 1.390 . S
C1181 C1183 1.387 1_565 S
H1182 C1189 0.950 . S
C1183 C1181 1.387 1_545 S
C1183 C1185 1.390 . S
C1183 H1187 0.950 . S
H1184 C1180 0.952 . S
C1185 C1183 1.390 . S
C1185 C1186 1.387 . S
C1185 H1188 0.950 . S
C1186 C1185 1.387 . S
C1186 C1189 1.387 . S
H1187 C1183 0.950 . S
H1188 C1185 0.950 . S
C1189 C1180 1.386 1_545 S
C1189 H1182 0.950 . S
C1189 C1186 1.387 . S
C1190 C1191 1.387 . S
C1190 H1194 0.950 . S
C1190 C1199 1.390 1_655 S
C1191 C1190 1.387 . S
C1191 C1193 1.387 . S
H1192 C1199 0.950 . S
C1193 C1191 1.387 . S
C1193 C1195 1.390 1_655 S
C1193 H1197 0.950 . S
H1194 C1190 0.950 . S
C1195 C1193 1.390 1_455 S
C1195 C1196 1.387 . S
C1195 H1198 0.950 . S
C1196 C1195 1.387 . S
C1196 C1199 1.387 . S
H1197 C1193 0.950 . S
H1198 C1195 0.950 . S
C1199 C1190 1.390 1_455 S
C1199 H1192 0.950 . S
C1199 C1196 1.387 . S
C1200 C1201 1.387 . S
C1200 H1204 0.950 . S
C1200 C1209 1.390 . S
C1201 C1200 1.387 . S
C1201 C1203 1.387 . S
H1202 C1209 0.950 . S
C1203 C1201 1.387 . S
C1203 C1205 1.390 . S
C1203 H1207 0.950 . S
H1204 C1200 0.950 . S
C1205 C1203 1.390 . S
C1205 C1206 1.387 . S
C1205 H1208 0.950 . S
C1206 C1205 1.387 . S
C1206 C1209 1.387 . S
H1207 C1203 0.950 . S
H1208 C1205 0.950 . S
C1209 C1200 1.390 . S
C1209 H1202 0.950 . S
C1209 C1206 1.387 . S
C1210 C1211 1.387 1_565 S
C1210 H1214 0.950 . S
C1210 C1219 1.390 . S
C1211 C1210 1.387 1_545 S
C1211 C1213 1.387 . S
H1212 C1219 0.950 . S
C1213 C1211 1.387 . S
C1213 C1215 1.390 . S
C1213 H1217 0.950 . S
H1214 C1210 0.950 . S
C1215 C1213 1.390 . S
C1215 C1216 1.387 1_545 S
C1215 H1218 0.950 . S
C1216 C1215 1.387 1_565 S
C1216 C1219 1.387 . S
H1217 C1213 0.950 . S
H1218 C1215 0.950 . S
C1219 C1210 1.390 . S
C1219 H1212 0.950 . S
C1219 C1216 1.387 . S
C1220 C1221 1.387 . S
C1220 H1224 0.950 . S
C1220 C1229 1.390 . S
C1221 C1220 1.387 . S
C1221 C1223 1.387 . S
H1222 C1229 0.950 1_655 S
C1223 C1221 1.387 . S
C1223 C1225 1.390 . S
C1223 H1227 0.950 . S
H1224 C1220 0.950 . S
C1225 C1223 1.390 . S
C1225 C1226 1.387 1_455 S
C1225 H1228 0.950 . S
C1226 C1225 1.387 1_655 S
C1226 C1229 1.387 1_655 S
H1227 C1223 0.950 . S
H1228 C1225 0.950 . S
C1229 C1220 1.390 . S
C1229 H1222 0.950 1_455 S
C1229 C1226 1.387 1_455 S
C1230 C1231 1.387 . S
C1230 H1234 0.950 . S
C1230 C1239 1.390 . S
C1231 C1230 1.387 . S
C1231 C1233 1.387 . S
H1232 C1239 0.950 . S
C1233 C1231 1.387 . S
C1233 C1235 1.390 . S
C1233 H1237 0.950 . S
H1234 C1230 0.950 . S
C1235 C1233 1.390 . S
C1235 C1236 1.387 . S
C1235 H1238 0.950 . S
C1236 C1235 1.387 . S
C1236 C1239 1.387 . S
H1237 C1233 0.950 . S
H1238 C1235 0.950 . S
C1239 C1230 1.390 . S
C1239 H1232 0.950 . S
C1239 C1236 1.387 . S
C1240 C1241 1.387 . S
C1240 H1244 0.950 . S
C1240 C1249 1.390 . S
C1241 C1240 1.387 . S
C1241 C1243 1.387 . S
H1242 C1249 0.950 . S
C1243 C1241 1.387 . S
C1243 C1245 1.390 . S
C1243 H1247 0.950 . S
H1244 C1240 0.950 . S
C1245 C1243 1.390 . S
C1245 C1246 1.387 . S
C1245 H1248 0.950 . S
C1246 C1245 1.387 . S
C1246 C1249 1.387 . S
H1247 C1243 0.950 . S
H1248 C1245 0.950 . S
C1249 C1240 1.390 . S
C1249 H1242 0.950 . S
C1249 C1246 1.387 . S
C1250 C1251 1.387 . S
C1250 H1254 0.950 . S
C1250 C1259 1.390 . S
C1251 C1250 1.387 . S
C1251 C1253 1.387 . S
H1252 C1259 0.950 . S
C1253 C1251 1.387 . S
C1253 C1255 1.390 . S
C1253 H1257 0.950 . S
H1254 C1250 0.950 . S
C1255 C1253 1.390 . S
C1255 C1256 1.387 . S
C1255 H1258 0.950 . S
C1256 C1255 1.387 . S
C1256 C1259 1.387 . S
H1257 C1253 0.950 . S
H1258 C1255 0.950 . S
C1259 C1250 1.390 . S
C1259 H1252 0.950 . S
C1259 C1256 1.387 . S
C721 C19 1.329 . S
C726 C95 1.394 . S
C731 C15 1.393 . S
C736 C59 1.327 . S
C741 C55 1.395 . S
C746 C99 1.331 . S
C751 C139 1.331 . S
C756 C175 1.395 . S
C761 C215 1.394 . S
C766 C179 1.329 . S
C771 C219 1.330 . S
C776 C135 1.394 . S
C781 C335 1.393 . S
C786 C259 1.327 . S
C791 C255 1.394 . S
C796 C299 1.329 . S
C801 C339 1.331 . S
C806 C295 1.417 . S
C811 C415 1.395 . S
C816 C379 1.331 . S
C821 C419 1.328 . S
C826 C455 1.392 . S
C831 C375 1.393 . S
C836 C459 1.329 . S
C841 C499 1.328 . S
C846 C575 1.393 . S
C851 C495 1.394 . S
C856 C539 1.331 . S
C861 C535 1.395 . S
C866 C579 1.331 . S
C871 C655 1.392 . S
C876 C619 1.327 . S
C881 C695 1.417 . S
C886 C659 1.331 . S
C891 C615 1.392 . S
C896 C699 1.328 . S
C901 C18 1.661 . S
C906 C218 1.661 . S
C911 C138 1.659 . S
C916 C58 1.661 . S
C921 C178 1.661 . S
C926 C98 1.658 . S
C931 C258 1.659 . S
C936 C458 1.659 . S
C941 C298 1.662 . S
C946 C378 1.659 . S
C951 C418 1.661 . S
C956 C338 1.661 . S
C961 C498 1.659 . S
C966 C698 1.659 . S
C971 C618 1.660 . S
C976 C538 1.658 . S
C981 C658 1.661 . S
C986 C578 1.660 . S
C991 C409 2.541 . S
C996 C9 2.541 1_565 S
C1001 C49 2.541 . S
C1006 C449 2.541 . S
C1011 C369 2.542 . S
C1016 C89 2.542 . S
C1021 C129 2.542 1_655 S
C1026 C569 2.542 . S
C1031 C169 2.542 . S
C1036 C489 2.542 . S
C1041 C529 2.542 . S
C1046 C209 2.542 . S
C1051 C649 2.542 . S
C1056 C249 2.542 . S
C1061 C289 2.542 . S
C1066 C689 2.542 . S
C1071 C329 2.540 . S
C1076 C609 2.540 . S
C1081 C86 1.878 . S
C1086 C10 1.905 . S
C1091 C6 1.880 . S
C1096 C50 1.906 . S
C1101 C90 1.907 . S
C1106 C46 1.880 . S
C1111 C166 1.880 . S
C1116 C130 1.907 . S
C1121 C206 1.877 . S
C1126 C170 1.905 . S
C1131 C210 1.907 . S
C1136 C126 1.880 . S
C1141 C326 1.877 . S
C1146 C250 1.905 . S
C1151 C290 1.905 . S
C1156 C246 1.878 . S
C1161 C286 1.877 . S
C1166 C330 1.905 . S
C1171 C370 1.906 . S
C1176 C406 1.880 . S
C1181 C410 1.905 . S
C1186 C446 1.877 . S
C1191 C366 1.878 . S
C1196 C450 1.905 . S
C1201 C490 1.906 . S
C1206 C566 1.878 . S
C1211 C530 1.906 . S
C1216 C486 1.878 . S
C1221 C526 1.877 . S
C1226 C570 1.905 . S
C1231 C610 1.907 . S
C1236 C646 1.880 . S
C1241 C650 1.906 . S
C1246 C686 1.878 . S
C1251 C606 1.880 . S
C1256 C690 1.907 . S
