# Generated by pormake.
# Topology vmh, (6)-cn, num edge types: 1
# Building blocks:
#     Node 0, Type 0, BuildingBlock: OJICUG_clean_sbu_0, # of connection points: 6
#     Node 1, Type 0, BuildingBlock: OJICUG_clean_sbu_0, # of connection points: 6
#     Node 2, Type 0, BuildingBlock: OJICUG_clean_sbu_0, # of connection points: 6
#     Node 3, Type 0, BuildingBlock: OJICUG_clean_sbu_0, # of connection points: 6
#     Node 4, Type 0, BuildingBlock: OJICUG_clean_sbu_0, # of connection points: 6
#     Node 5, Type 0, BuildingBlock: OJICUG_clean_sbu_0, # of connection points: 6
#     Node 6, Type 0, BuildingBlock: OJICUG_clean_sbu_0, # of connection points: 6
#     Node 7, Type 0, BuildingBlock: OJICUG_clean_sbu_0, # of connection points: 6
#     Edge 8, Type (0, 0), BuildingBlock: UVAHIK_clean_linker_0, # of connection points: 2
#     Edge 9, Type (0, 0), BuildingBlock: UVAHIK_clean_linker_0, # of connection points: 2
#     Edge 10, Type (0, 0), BuildingBlock: UVAHIK_clean_linker_0, # of connection points: 2
#     Edge 11, Type (0, 0), BuildingBlock: UVAHIK_clean_linker_0, # of connection points: 2
#     Edge 12, Type (0, 0), BuildingBlock: UVAHIK_clean_linker_0, # of connection points: 2
#     Edge 13, Type (0, 0), BuildingBlock: UVAHIK_clean_linker_0, # of connection points: 2
#     Edge 14, Type (0, 0), BuildingBlock: UVAHIK_clean_linker_0, # of connection points: 2
#     Edge 15, Type (0, 0), BuildingBlock: UVAHIK_clean_linker_0, # of connection points: 2
#     Edge 16, Type (0, 0), BuildingBlock: UVAHIK_clean_linker_0, # of connection points: 2
#     Edge 17, Type (0, 0), BuildingBlock: UVAHIK_clean_linker_0, # of connection points: 2
#     Edge 18, Type (0, 0), BuildingBlock: UVAHIK_clean_linker_0, # of connection points: 2
#     Edge 19, Type (0, 0), BuildingBlock: UVAHIK_clean_linker_0, # of connection points: 2
#     Edge 20, Type (0, 0), BuildingBlock: UVAHIK_clean_linker_0, # of connection points: 2
#     Edge 21, Type (0, 0), BuildingBlock: UVAHIK_clean_linker_0, # of connection points: 2
#     Edge 22, Type (0, 0), BuildingBlock: UVAHIK_clean_linker_0, # of connection points: 2
#     Edge 23, Type (0, 0), BuildingBlock: UVAHIK_clean_linker_0, # of connection points: 2
#     Edge 24, Type (0, 0), BuildingBlock: UVAHIK_clean_linker_0, # of connection points: 2
#     Edge 25, Type (0, 0), BuildingBlock: UVAHIK_clean_linker_0, # of connection points: 2
#     Edge 26, Type (0, 0), BuildingBlock: UVAHIK_clean_linker_0, # of connection points: 2
#     Edge 27, Type (0, 0), BuildingBlock: UVAHIK_clean_linker_0, # of connection points: 2
#     Edge 28, Type (0, 0), BuildingBlock: UVAHIK_clean_linker_0, # of connection points: 2
#     Edge 29, Type (0, 0), BuildingBlock: UVAHIK_clean_linker_0, # of connection points: 2
#     Edge 30, Type (0, 0), BuildingBlock: UVAHIK_clean_linker_0, # of connection points: 2
#     Edge 31, Type (0, 0), BuildingBlock: UVAHIK_clean_linker_0, # of connection points: 2
# Relax obj value: 0.243
# Max RMSD: 0.270
# Mean RMSD: 0.270
data_MOF--net-vmh--node1-OJICUG_clean_sbu_0--edge1-UVAHIK_clean_linker_0
_symmetry_space_group_name_H-M    P1
_symmetry_Int_Tables_number       1
_symmetry_cell_setting            triclinic
loop_
_symmetry_equiv_pos_as_xyz
'x, y, z'
_cell_length_a     36.298797
_cell_length_b     54.893169
_cell_length_c     37.7615
_cell_angle_alpha  89.93091
_cell_angle_beta   98.676322
_cell_angle_gamma 90.051115
loop_
_atom_site_label
_atom_site_type_symbol
_atom_site_fract_x
_atom_site_fract_y
_atom_site_fract_z
_atom_type_partial_charge
Sc0 Sc 0.23989 0.081 0.1076 0.0
Sc1 Sc 0.25706 0.03238 0.05061 0.0
Sc2 Sc 0.3054 0.0876 0.04839 0.0
O3 O 0.26728 0.06697 0.06889 0.0
C4 C 0.24283 0.12665 0.0553 0.0
C5 C 0.17548 0.05183 0.05702 0.0
C6 C 0.26615 0.06038 0.97847 0.0
C7 C 0.25307 0.02589 0.1335 0.0
C8 C 0.32348 0.1002 0.13168 0.0
C9 C 0.34504 0.03592 0.05568 0.0
O10 O 0.2303 0.11617 0.08114 0.0
O11 O 0.19838 0.03782 0.04492 0.0
O12 O 0.28557 0.07755 0.99404 0.0
O13 O 0.24627 0.04817 0.13867 0.0
O14 O 0.33068 0.10035 0.09986 0.0
O15 O 0.31524 0.02352 0.05401 0.0
O16 O 0.29218 0.09313 0.13955 0.0
O17 O 0.25801 0.01737 0.10335 0.0
O18 O 0.34553 0.059 0.05427 0.0
O19 O 0.18538 0.06867 0.07993 0.0
O20 O 0.26898 0.11796 0.04047 0.0
O21 O 0.25375 0.04293 -0.00463 0.0
Sc22 Sc 0.76219 0.08155 0.37666 0.0
Sc23 Sc 0.74178 0.03085 0.42812 0.0
Sc24 Sc 0.6979 0.08704 0.43644 0.0
O25 O 0.73415 0.0664 0.41382 0.0
C26 C 0.76056 0.12564 0.43176 0.0
C27 C 0.8246 0.05028 0.42518 0.0
C28 C 0.73507 0.05549 0.50307 0.0
C29 C 0.74792 0.02753 0.34589 0.0
C30 C 0.67978 0.10183 0.35386 0.0
C31 C 0.65415 0.03709 0.4232 0.0
O32 O 0.77002 0.11661 0.40346 0.0
O33 O 0.80101 0.03495 0.4334 0.0
O34 O 0.7162 0.07355 0.48955 0.0
O35 O 0.75828 0.0495 0.34419 0.0
O36 O 0.67434 0.10323 0.38625 0.0
O37 O 0.68291 0.02368 0.42475 0.0
O38 O 0.7097 0.09314 0.34495 0.0
O39 O 0.73873 0.01814 0.37399 0.0
O40 O 0.65556 0.06007 0.42638 0.0
O41 O 0.81576 0.06916 0.4058 0.0
O42 O 0.73698 0.11569 0.44864 0.0
O43 O 0.7467 0.03889 0.48419 0.0
Sc44 Sc 0.76767 0.90493 0.87693 0.0
Sc45 Sc 0.75456 0.95553 0.93025 0.0
Sc46 Sc 0.70397 0.9025 0.93695 0.0
O47 O 0.74231 0.92106 0.91474 0.0
C48 C 0.6839 0.8885 0.85473 0.0
C49 C 0.75782 0.95999 0.84851 0.0
C50 C 0.66628 0.9535 0.92804 0.0
C51 C 0.83435 0.93287 0.92289 0.0
C52 C 0.76149 0.86151 0.93247 0.0
C53 C 0.74679 0.93135 0.00382 0.0
O54 O 0.71336 0.89748 0.84519 0.0
O55 O 0.74622 0.96849 0.87608 0.0
O56 O 0.66383 0.93059 0.92414 0.0
O57 O 0.82279 0.91323 0.90664 0.0
O58 O 0.74209 0.87367 0.95133 0.0
O59 O 0.7648 0.94519 0.98561 0.0
O60 O 0.76895 0.86901 0.90236 0.0
O61 O 0.81287 0.95003 0.92939 0.0
O62 O 0.7211 0.91718 0.98965 0.0
O63 O 0.76949 0.93823 0.84676 0.0
O64 O 0.68082 0.88513 0.88746 0.0
O65 O 0.69732 0.96472 0.93382 0.0
Sc66 Sc 0.24084 0.91281 0.60792 0.0
Sc67 Sc 0.2425 0.96338 0.54891 0.0
Sc68 Sc 0.29921 0.91268 0.5417 0.0
O69 O 0.26064 0.92963 0.56624 0.0
C70 C 0.32856 0.90095 0.62398 0.0
C71 C 0.24706 0.96833 0.63346 0.0
C72 C 0.32873 0.96732 0.54561 0.0
C73 C 0.16769 0.93716 0.5629 0.0
C74 C 0.24671 0.86841 0.55459 0.0
C75 C 0.24861 0.93673 0.47496 0.0
O76 O 0.29724 0.90373 0.63506 0.0
O77 O 0.24616 0.97749 0.60244 0.0
O78 O 0.33289 0.9445 0.54314 0.0
O79 O 0.18271 0.92125 0.58536 0.0
O80 O 0.26952 0.87927 0.53777 0.0
O81 O 0.23601 0.95352 0.49295 0.0
O82 O 0.23449 0.87754 0.58153 0.0
O83 O 0.18608 0.95294 0.54835 0.0
O84 O 0.27138 0.92078 0.48917 0.0
O85 O 0.24534 0.94558 0.63918 0.0
O86 O 0.33198 0.90283 0.59119 0.0
O87 O 0.2976 0.97736 0.54738 0.0
Sc88 Sc 0.73684 0.57874 0.11332 0.0
Sc89 Sc 0.75416 0.53016 0.05647 0.0
Sc90 Sc 0.79482 0.58727 0.04781 0.0
O91 O 0.76176 0.56537 0.0725 0.0
C92 C 0.73121 0.62411 0.05963 0.0
C93 C 0.6725 0.54628 0.06961 0.0
C94 C 0.75093 0.55767 0.98214 0.0
C95 C 0.7602 0.52478 0.14026 0.0
C96 C 0.81957 0.6003 0.13058 0.0
C97 C 0.84002 0.53797 0.0516 0.0
O98 O 0.72335 0.61389 0.08784 0.0
O99 O 0.69579 0.53211 0.05837 0.0
O100 O 0.77142 0.57528 0.99494 0.0
O101 O 0.74801 0.5461 0.14445 0.0
O102 O 0.823 0.60141 0.09763 0.0
O103 O 0.81191 0.52418 0.05159 0.0
O104 O 0.79015 0.59213 0.14123 0.0
O105 O 0.76559 0.51639 0.11017 0.0
O106 O 0.83808 0.56099 0.05152 0.0
O107 O 0.68202 0.56502 0.08896 0.0
O108 O 0.75494 0.61572 0.04154 0.0
O109 O 0.74142 0.54038 0.00122 0.0
Sc110 Sc 0.25577 0.57968 0.38417 0.0
Sc111 Sc 0.25162 0.53039 0.4444 0.0
Sc112 Sc 0.20017 0.58343 0.45278 0.0
O113 O 0.2359 0.56448 0.42702 0.0
C114 C 0.25527 0.62542 0.43582 0.0
C115 C 0.32775 0.55246 0.42525 0.0
C116 C 0.25447 0.55962 0.51751 0.0
C117 C 0.24107 0.52405 0.36023 0.0
C118 C 0.1689 0.59431 0.37047 0.0
C119 C 0.16694 0.53023 0.45674 0.0
O120 O 0.26601 0.61521 0.40894 0.0
O121 O 0.30818 0.53714 0.43925 0.0
O122 O 0.2304 0.57535 0.50483 0.0
O123 O 0.24734 0.54637 0.35435 0.0
O124 O 0.16591 0.59307 0.40351 0.0
O125 O 0.19689 0.51917 0.45334 0.0
O126 O 0.19966 0.59029 0.35887 0.0
O127 O 0.24053 0.51527 0.39131 0.0
O128 O 0.16401 0.55321 0.45573 0.0
O129 O 0.31371 0.56978 0.40492 0.0
O130 O 0.23222 0.61582 0.45366 0.0
O131 O 0.26524 0.54245 0.49897 0.0
Sc132 Sc 0.25502 0.41388 0.88615 0.0
Sc133 Sc 0.25035 0.46722 0.93888 0.0
Sc134 Sc 0.18346 0.42119 0.93845 0.0
O135 O 0.22984 0.43408 0.92113 0.0
C136 C 0.1677 0.40768 0.85568 0.0
C137 C 0.26297 0.46802 0.85713 0.0
C138 C 0.16392 0.47749 0.92669 0.0
C139 C 0.32432 0.43585 0.94003 0.0
C140 C 0.23113 0.37268 0.93785 0.0
C141 C 0.22657 0.44415 0.00985 0.0
O142 O 0.20183 0.40672 0.85098 0.0
O143 O 0.25937 0.4787 0.88626 0.0
O144 O 0.15564 0.45529 0.93028 0.0
O145 O 0.31088 0.42006 0.91666 0.0
O146 O 0.2059 0.38561 0.94819 0.0
O147 O 0.24469 0.45947 0.99392 0.0
O148 O 0.25132 0.38006 0.91521 0.0
O149 O 0.30537 0.45313 0.95027 0.0
O150 O 0.2038 0.42908 0.99322 0.0
O151 O 0.26155 0.44502 0.85343 0.0
O152 O 0.15788 0.41236 0.88571 0.0
O153 O 0.19715 0.48523 0.92953 0.0
Sc154 Sc 0.73333 0.41054 0.60359 0.0
Sc155 Sc 0.76509 0.46068 0.56015 0.0
Sc156 Sc 0.8071 0.40423 0.55692 0.0
O157 O 0.76785 0.42543 0.57293 0.0
C158 C 0.81043 0.38904 0.63562 0.0
C159 C 0.74318 0.46401 0.6367 0.0
C160 C 0.85268 0.45051 0.58252 0.0
C161 C 0.67938 0.44284 0.54968 0.0
C162 C 0.74236 0.36886 0.54616 0.0
C163 C 0.78711 0.43891 0.4898 0.0
O164 O 0.78261 0.40151 0.64209 0.0
O165 O 0.7628 0.47214 0.6142 0.0
O166 O 0.84982 0.42743 0.58307 0.0
O167 O 0.68477 0.42248 0.5664 0.0
O168 O 0.76465 0.38123 0.53054 0.0
O169 O 0.76612 0.45276 0.50472 0.0
O170 O 0.73333 0.37526 0.57625 0.0
O171 O 0.70505 0.45857 0.54813 0.0
O172 O 0.80772 0.42286 0.50691 0.0
O173 O 0.72834 0.44302 0.63411 0.0
O174 O 0.81212 0.38161 0.60417 0.0
O175 O 0.82536 0.46458 0.57114 0.0
C176 C 0.28141 0.07428 0.91926 0.0
C177 C 0.25944 0.05998 0.93892 0.0
C178 C 0.27814 0.07178 0.88215 0.0
C179 C 0.28735 0.04343 0.81477 0.0
H180 H 0.19461 0.03422 0.75021 0.0
C181 C 0.26828 0.97662 0.69802 0.0
C182 C 0.25045 0.98476 0.66454 0.0
C183 C 0.27059 0.99166 0.72791 0.0
C184 C 0.22071 0.03719 0.76777 0.0
H185 H 0.21497 0.03321 0.93485 0.0
H186 H 0.20927 0.02894 0.87 0.0
H187 H 0.19351 0.0514 0.80995 0.0
H188 H 0.22128 0.015 0.63583 0.0
H189 H 0.22426 0.04117 0.6889 0.0
H190 H 0.31431 0.0278 0.77352 0.0
C191 C 0.22902 0.04202 0.88335 0.0
C192 C 0.22006 0.04683 0.80188 0.0
C193 C 0.23256 0.04428 0.92049 0.0
C194 C 0.23528 0.00836 0.66137 0.0
C195 C 0.23689 0.02326 0.69157 0.0
C196 C 0.28793 0.03348 0.78093 0.0
C197 C 0.25251 0.05523 0.86401 0.0
C198 C 0.25331 0.04939 0.82598 0.0
C199 C 0.25454 0.01496 0.72502 0.0
C200 C 0.25454 0.02964 0.75762 0.0
H201 H 0.30228 0.08663 0.93264 0.0
H202 H 0.29644 0.08223 0.86774 0.0
H203 H 0.31334 0.04501 0.83296 0.0
H204 H 0.28041 0.95857 0.70112 0.0
H205 H 0.28398 0.98481 0.75358 0.0
C206 C 0.74046 -0.00124 0.81479 0.0
C207 C 0.75893 0.97616 0.81742 0.0
C208 C 0.74161 0.01381 0.78509 0.0
C209 C 0.79385 0.02458 0.70995 0.0
H210 H 0.69865 0.04482 0.65751 0.0
C211 C 0.76764 0.03525 0.55833 0.0
C212 C 0.74317 0.05334 0.54248 0.0
C213 C 0.77352 0.03208 0.59535 0.0
C214 C 0.72558 0.03986 0.6722 0.0
H215 H 0.79377 0.95193 0.79135 0.0
H216 H 0.79554 0.97805 0.73975 0.0
H217 H 0.70147 0.02769 0.71745 0.0
H218 H 0.70687 0.083 0.55325 0.0
H219 H 0.71712 0.07729 0.61811 0.0
H220 H 0.81774 0.03577 0.66411 0.0
C221 C 0.78046 0.98424 0.76072 0.0
C222 C 0.72716 0.03003 0.70649 0.0
C223 C 0.77905 0.96914 0.79011 0.0
C224 C 0.72574 0.06878 0.5646 0.0
C225 C 0.73151 0.06552 0.60171 0.0
C226 C 0.79228 0.03444 0.67573 0.0
C227 C 0.76162 0.00664 0.75781 0.0
C228 C 0.7611 0.02143 0.72504 0.0
C229 C 0.75504 0.0469 0.61736 0.0
C230 C 0.75792 0.04127 0.65598 0.0
H231 H 0.72477 0.0047 0.83543 0.0
H232 H 0.72685 0.03102 0.78341 0.0
H233 H 0.82047 0.01847 0.72403 0.0
H234 H 0.78175 0.02315 0.54213 0.0
H235 H 0.7914 0.01733 0.60657 0.0
C236 C 0.75361 0.98692 0.31693 0.0
C237 C 0.74846 0.01226 0.31398 0.0
C238 C 0.75866 0.97317 0.28687 0.0
C239 C 0.78737 0.98136 0.19795 0.0
H240 H 0.73717 0.91992 0.17404 0.0
C241 C 0.78969 0.94032 0.06038 0.0
C242 C 0.75466 0.93267 0.04312 0.0
C243 C 0.79587 0.94372 0.0974 0.0
C244 C 0.75144 0.93705 0.18039 0.0
H245 H 0.74206 0.04284 0.27712 0.0
H246 H 0.74973 0.01892 0.22483 0.0
H247 H 0.7322 0.93942 0.2312 0.0
H248 H 0.69923 0.92132 0.05098 0.0
H249 H 0.70922 0.9285 0.11507 0.0
H250 H 0.80429 0.98026 0.1465 0.0
C251 C 0.75133 0.00972 0.25042 0.0
C252 C 0.7489 0.94807 0.21328 0.0
C253 C 0.74662 0.02341 0.28032 0.0
C254 C 0.72652 0.92729 0.06365 0.0
C255 C 0.73243 0.93117 0.10052 0.0
C256 C 0.78954 0.97057 0.16506 0.0
C257 C 0.75842 0.9846 0.25352 0.0
C258 C 0.76567 0.9708 0.22169 0.0
C259 C 0.76685 0.94011 0.11771 0.0
C260 C 0.77054 0.94871 0.15531 0.0
H261 H 0.75522 0.9779 0.34265 0.0
H262 H 0.76395 0.95381 0.28996 0.0
H263 H 0.80146 -0.00141 0.20417 0.0
H264 H 0.8121 0.9441 0.04518 0.0
H265 H 0.82302 0.95002 0.10989 0.0
C266 C 0.2375 0.98597 0.15929 0.0
C267 C 0.25388 0.00918 0.16396 0.0
C268 C 0.23455 0.97132 0.18904 0.0
C269 C 0.20807 0.96223 0.2645 0.0
H270 H 0.29549 0.9439 0.33141 0.0
C271 C 0.2167 0.95517 0.41758 0.0
C272 C 0.23917 0.93676 0.43547 0.0
C273 C 0.21304 0.95732 0.38035 0.0
C274 C 0.27078 0.94844 0.31271 0.0
H275 H 0.28153 0.03491 0.20264 0.0
H276 H 0.27768 0.00886 0.25451 0.0
H277 H 0.30292 0.9603 0.27275 0.0
H278 H 0.27252 0.90481 0.4279 0.0
H279 H 0.26651 0.90895 0.36317 0.0
H280 H 0.17608 0.95205 0.30557 0.0
C281 C 0.26663 0.00224 0.228 0.0
C282 C 0.2751 0.95785 0.27933 0.0
C283 C 0.26872 0.0171 0.19847 0.0
C284 C 0.25547 0.91946 0.41511 0.0
C285 C 0.25203 0.92174 0.37802 0.0
C286 C 0.20376 0.95319 0.29824 0.0
C287 C 0.24895 0.9795 0.22352 0.0
C288 C 0.24387 0.96531 0.2554 0.0
C289 C 0.23191 0.94117 0.3605 0.0
C290 C 0.23518 0.94677 0.32289 0.0
H291 H 0.22561 0.97964 0.13286 0.0
H292 H 0.22073 0.95382 0.18525 0.0
H293 H 0.1837 0.96816 0.24638 0.0
H294 H 0.20347 0.96864 0.4324 0.0
H295 H 0.19751 0.97256 0.3674 0.0
C296 C 0.76078 0.49865 0.67924 0.0
C297 C 0.73665 0.47938 0.66712 0.0
C298 C 0.75561 0.51176 0.70984 0.0
C299 C 0.71605 0.50225 0.79204 0.0
H300 H 0.73397 0.57133 0.80774 0.0
C301 C 0.7086 0.54211 0.92891 0.0
C302 C 0.73965 0.55617 0.94309 0.0
C303 C 0.70119 0.53744 0.89229 0.0
C304 C 0.72888 0.55202 0.80366 0.0
H305 H 0.68658 0.45998 0.6757 0.0
H306 H 0.67735 0.483 0.72848 0.0
H307 H 0.73499 0.55402 0.74808 0.0
H308 H 0.78566 0.57791 0.92994 0.0
H309 H 0.77346 0.56905 0.86601 0.0
H310 H 0.71123 0.4998 0.84739 0.0
C311 C 0.70083 0.48756 0.71509 0.0
C312 C 0.72953 0.54214 0.76962 0.0
C313 C 0.70617 0.47436 0.68488 0.0
C314 C 0.76159 0.56693 0.9197 0.0
C315 C 0.75447 0.56196 0.88305 0.0
C316 C 0.71546 0.51204 0.82585 0.0
C317 C 0.72607 0.50589 0.72852 0.0
C318 C 0.72336 0.51711 0.76362 0.0
C319 C 0.72504 0.5464 0.86922 0.0
C320 C 0.72214 0.53698 0.83218 0.0
H321 H 0.78439 0.50297 0.66592 0.0
H322 H 0.77563 0.52572 0.71974 0.0
H323 H 0.71207 0.48279 0.7885 0.0
H324 H 0.69076 0.53402 0.94628 0.0
H325 H 0.67772 0.5259 0.88224 0.0
C326 C 0.30373 0.55053 0.5694 0.0
C327 C 0.26856 0.56017 0.55613 0.0
C328 C 0.31472 0.54782 0.60623 0.0
C329 C 0.28322 0.55823 0.69551 0.0
H330 H 0.32423 0.4935 0.714 0.0
C331 C 0.26707 0.47198 0.79214 0.0
C332 C 0.27018 0.48276 0.82615 0.0
C333 C 0.27528 0.48525 0.76294 0.0
C334 C 0.3128 0.51165 0.70933 0.0
H335 H 0.21834 0.57608 0.5707 0.0
H336 H 0.23632 0.57008 0.63454 0.0
H337 H 0.32458 0.51185 0.65592 0.0
H338 H 0.28412 0.51606 0.85616 0.0
H339 H 0.29885 0.53932 0.80477 0.0
H340 H 0.26842 0.5568 0.74825 0.0
C341 C 0.25617 0.56529 0.61701 0.0
C342 C 0.31358 0.52244 0.6761 0.0
C343 C 0.2456 0.56853 0.58027 0.0
C344 C 0.28133 0.50728 0.83023 0.0
C345 C 0.28979 0.52059 0.80087 0.0
C346 C 0.28192 0.54721 0.72869 0.0
C347 C 0.29028 0.55403 0.6304 0.0
C348 C 0.29734 0.54544 0.66817 0.0
C349 C 0.28715 0.5096 0.76698 0.0
C350 C 0.29518 0.52335 0.73525 0.0
H351 H 0.32227 0.54442 0.55127 0.0
H352 H 0.34166 0.53978 0.61559 0.0
H353 H 0.27138 0.57624 0.69069 0.0
H354 H 0.25814 0.45324 0.78791 0.0
H355 H 0.27182 0.47645 0.73699 0.0
C356 C 0.24989 0.48419 0.33075 0.0
C357 C 0.2347 0.50776 0.32911 0.0
C358 C 0.24767 0.4701 0.29965 0.0
C359 C 0.19744 0.46294 0.20883 0.0
H360 H 0.29326 0.44889 0.17971 0.0
C361 C 0.25734 0.45943 0.06968 0.0
C362 C 0.23108 0.44418 0.04943 0.0
C363 C 0.25947 0.46057 0.10687 0.0
C364 C 0.26634 0.45244 0.18771 0.0
H365 H 0.20351 0.53463 0.29475 0.0
H366 H 0.19871 0.5098 0.24077 0.0
H367 H 0.29045 0.46251 0.24102 0.0
H368 H 0.18777 0.41721 0.05265 0.0
H369 H 0.19132 0.41954 0.11739 0.0
H370 H 0.17335 0.45405 0.15525 0.0
C371 C 0.21262 0.5023 0.26582 0.0
C372 C 0.26471 0.45998 0.22275 0.0
C373 C 0.21557 0.51653 0.29656 0.0
C374 C 0.20811 0.42935 0.06732 0.0
C375 C 0.21008 0.43062 0.10441 0.0
C376 C 0.19902 0.45512 0.174 0.0
C377 C 0.22935 0.47923 0.26693 0.0
C378 C 0.23034 0.4661 0.23311 0.0
C379 C 0.23525 0.44658 0.12443 0.0
C380 C 0.23357 0.45062 0.1628 0.0
H381 H 0.26494 0.47715 0.35561 0.0
H382 H 0.26083 0.45235 0.30096 0.0
H383 H 0.17067 0.46761 0.21634 0.0
H384 H 0.27565 0.47093 0.05678 0.0
H385 H 0.27889 0.47321 0.1217 0.0
C386 C 0.7646 0.4841 0.17053 0.0
C387 C 0.76946 0.50949 0.17228 0.0
C388 C 0.77141 0.47006 0.20175 0.0
C389 C 0.82034 0.46977 0.29369 0.0
H390 H 0.733 0.43779 0.31996 0.0
C391 C 0.75781 0.45295 0.42916 0.0
C392 C 0.78728 0.44118 0.45093 0.0
C393 C 0.75789 0.45502 0.39239 0.0
C394 C 0.75774 0.44633 0.31273 0.0
H395 H 0.78697 0.54001 0.20723 0.0
H396 H 0.79954 0.51546 0.26147 0.0
H397 H 0.73184 0.45284 0.25874 0.0
H398 H 0.83968 0.42205 0.45126 0.0
H399 H 0.84013 0.42629 0.38689 0.0
H400 H 0.84564 0.46438 0.34805 0.0
C401 C 0.79021 0.50645 0.23618 0.0
C402 C 0.75719 0.45472 0.27777 0.0
C403 C 0.78266 0.52049 0.20527 0.0
C404 C 0.81661 0.43127 0.43515 0.0
C405 C 0.81691 0.43364 0.39841 0.0
C406 C 0.82108 0.4611 0.32849 0.0
C407 C 0.78412 0.48122 0.23476 0.0
C408 C 0.78796 0.46735 0.26847 0.0
C409 C 0.78761 0.4456 0.37679 0.0
C410 C 0.78926 0.4502 0.33861 0.0
H411 H 0.7544 0.47526 0.14531 0.0
H412 H 0.76638 0.4506 0.20024 0.0
H413 H 0.84437 0.47946 0.28695 0.0
H414 H 0.73467 0.46057 0.44051 0.0
H415 H 0.73523 0.46464 0.3763 0.0
C416 C 0.3807 0.00104 0.03612 0.0
C417 C 0.38042 0.02333 0.05423 0.0
C418 C 0.41363 0.99257 0.02569 0.0
C419 C 0.4974 0.01934 3e-05 0.0
H420 H 0.52703 0.9522 0.99011 0.0
C421 C 0.63357 0.98823 0.95214 0.0
C422 C 0.63187 0.96664 0.93201 0.0
C423 C 0.60182 0.99684 0.96472 0.0
C424 C 0.51869 0.97101 0.99231 0.0
H425 H 0.41474 0.05258 0.0799 0.0
H426 H 0.47243 0.03745 0.06243 0.0
H427 H 0.47645 0.96148 0.02371 0.0
H428 H 0.59494 0.93899 0.90522 0.0
H429 H 0.53948 0.95429 0.92683 0.0
H430 H 0.53969 0.02884 0.96863 0.0
C431 C 0.44708 0.02701 0.05516 0.0
C432 C 0.48999 0.9763 0.01173 0.0
C433 C 0.41417 0.03556 0.06532 0.0
C434 C 0.59719 0.95541 0.92131 0.0
C435 C 0.56552 0.96404 0.93381 0.0
C436 C 0.52617 0.01405 0.9807 0.0
C437 C 0.44665 0.0062 0.03357 0.0
C438 C 0.479 0.0005 0.01565 0.0
C439 C 0.56805 0.98404 0.95712 0.0
C440 C 0.53684 0.98983 0.97646 0.0
H441 H 0.35504 0.99125 0.02729 0.0
H442 H 0.41252 0.97643 0.00908 0.0
H443 H 0.48893 0.03815 0.00194 0.0
H444 H 0.6599 -0.00268 0.9607 0.0
H445 H 0.6044 0.0124 0.98255 0.0
C446 C 0.35788 0.00348 0.52139 0.0
C447 C 0.36136 0.98241 0.54268 0.0
C448 C 0.38938 0.01353 0.50986 0.0
C449 C 0.49246 0.00921 0.51974 0.0
H450 H 0.47578 0.01346 0.41591 0.0
C451 C 0.61458 0.00465 0.44347 0.0
C452 C 0.61757 0.02583 0.42331 0.0
C453 C 0.58063 -0.00126 0.4543 0.0
C454 C 0.48068 0.01235 0.44489 0.0
H455 H 0.4001 0.95708 0.57242 0.0
H456 H 0.45484 0.97452 0.55255 0.0
H457 H 0.42256 0.01004 0.44826 0.0
H458 H 0.58701 0.05542 0.39422 0.0
H459 H 0.52758 0.04483 0.41277 0.0
H460 H 0.55059 0.01082 0.51627 0.0
C461 C 0.4282 0.98332 0.54442 0.0
C462 C 0.45035 0.01077 0.46345 0.0
C463 C 0.39685 0.97322 0.55566 0.0
C464 C 0.58533 0.03913 0.41017 0.0
C465 C 0.55137 0.03308 0.42071 0.0
C466 C 0.52272 0.01056 0.5012 0.0
C467 C 0.4245 0.00271 0.51988 0.0
C468 C 0.45603 0.00877 0.50102 0.0
C469 C 0.54943 0.01377 0.44465 0.0
C470 C 0.51706 0.0117 0.46363 0.0
H471 H 0.33068 0.01085 0.51113 0.0
H472 H 0.38597 0.02876 0.49139 0.0
H473 H 0.49758 0.00795 0.5487 0.0
H474 H 0.63906 0.9941 0.45385 0.0
H475 H 0.57941 0.98346 0.47229 0.0
C476 C 0.90881 0.53972 0.05949 0.0
C477 C 0.87571 0.52756 0.04581 0.0
C478 C 0.94139 0.53511 0.04544 0.0
C479 C 0.98441 0.49491 0.98464 0.0
H480 H 0.03579 0.55438 0.96484 0.0
C481 C 0.09919 0.48824 0.90284 0.0
C482 C 0.13299 0.49472 0.92381 0.0
C483 C 0.06586 0.4976 0.91087 0.0
C484 C 0.02149 0.53773 0.97006 0.0
H485 H 0.85106 0.49958 0.00929 0.0
H486 H 0.90787 0.4917 0.98422 0.0
H487 H 0.98325 0.55636 -0.00171 0.0
H488 H 0.15957 0.51855 0.96569 0.0
H489 H 0.10104 0.53487 0.98008 0.0
H490 H 0.02249 0.47631 0.95633 0.0
C491 C 0.90891 0.50463 0.00598 0.0
C492 C 0.99182 0.53874 0.98957 0.0
C493 C 0.8764 0.50903 0.02042 0.0
C494 C 0.13369 0.5134 0.94919 0.0
C495 C 0.1002 0.52265 0.95746 0.0
C496 C 0.01374 0.49395 0.96486 0.0
C497 C 0.94118 0.5185 0.01716 0.0
C498 C 0.9732 0.51729 -0.00271 0.0
C499 C 0.06614 0.51331 0.94016 0.0
C500 C 0.03258 0.51532 0.9575 0.0
H501 H 0.90886 0.55396 0.07936 0.0
H502 H 0.96619 0.54548 0.05539 0.0
H503 H 0.97095 0.47807 0.9905 0.0
H504 H 0.09825 0.47398 0.8829 0.0
H505 H 0.03984 0.49058 0.8967 0.0
C506 C 0.1009 0.52775 0.46614 0.0
C507 C 0.136 0.51662 0.46849 0.0
C508 C 0.07456 0.51882 0.48599 0.0
C509 C 0.0446 0.46748 0.53492 0.0
H510 H 0.00236 0.51841 0.58772 0.0
C511 C 0.92081 0.4459 0.60392 0.0
C512 C 0.89053 0.46086 0.59012 0.0
C513 C 0.95717 0.45318 0.60157 0.0
C514 C 0.01415 0.50397 0.57343 0.0
H515 H 0.16973 0.486 0.49058 0.0
H516 H 0.12297 0.47006 0.52496 0.0
H517 H 0.05223 0.52825 0.55339 0.0
H518 H 0.87484 0.4965 0.56791 0.0
H519 H 0.93796 0.50904 0.56345 0.0
H520 H 0.00519 0.44345 0.55321 0.0
C521 C 0.11633 0.48593 0.50812 0.0
C522 C 0.04246 0.5096 0.55368 0.0
C523 C 0.14288 0.49493 0.48824 0.0
C524 C 0.89751 0.48442 0.57829 0.0
C525 C 0.93384 0.49168 0.57593 0.0
C526 C 0.01609 0.46185 0.55454 0.0
C527 C 0.08275 0.49853 0.5084 0.0
C528 C 0.05684 0.4916 0.53317 0.0
C529 C 0.96374 0.47553 0.58556 0.0
C530 C 0.99962 0.48026 0.57284 0.0
H531 H 0.09461 0.54428 0.4507 0.0
H532 H 0.04831 0.52838 0.48496 0.0
H533 H 0.05543 0.45332 0.5194 0.0
H534 H 0.91636 0.42785 0.61413 0.0
H535 H 0.97985 0.44065 0.60999 0.0
C536 C 0.11118 0.04015 0.06744 0.0
C537 C 0.1358 0.0468 0.04377 0.0
C538 C 0.07765 0.02807 0.05458 0.0
C539 C 0.03859 0.9888 0.978 0.0
H540 H 0.94585 0.99581 0.01593 0.0
C541 C 0.89906 0.94378 0.91384 0.0
C542 C 0.87407 0.9367 0.93687 0.0
C543 C 0.93272 0.95535 0.92756 0.0
C544 C 0.97172 0.99334 0.00537 0.0
H545 H 0.1437 0.0477 0.98811 0.0
H546 H 0.0849 0.02775 0.96556 0.0
H547 H 0.99852 0.02204 0.03815 0.0
H548 H 0.86507 0.93508 0.99217 0.0
H549 H 0.92417 0.95429 0.01628 0.0
H550 H 0.01178 0.96016 0.94514 0.0
C551 C 0.09165 0.03106 0.99407 0.0
C552 C 0.00192 0.00849 0.01808 0.0
C553 C 0.12507 0.04287 0.0069 0.0
C554 C 0.88426 0.93997 0.97393 0.0
C555 C 0.9178 0.95141 0.98764 0.0
C556 C 0.0084 0.97368 0.96528 0.0
C557 C 0.06824 0.02251 0.01784 0.0
C558 C 0.03573 0.00653 0.00444 0.0
C559 C 0.9418 0.96016 0.96455 0.0
C560 C 0.97452 0.97573 0.97875 0.0
H561 H 0.11916 0.0425 0.09604 0.0
H562 H 0.06035 0.02175 0.0737 0.0
H563 H 0.06443 0.98633 0.96739 0.0
H564 H 0.8913 0.94211 0.88509 0.0
H565 H 0.95038 0.96195 0.90892 0.0
C566 C 0.87343 0.04206 0.47698 0.0
C567 C 0.86377 0.04501 0.4398 0.0
C568 C 0.90662 0.03049 0.49136 0.0
C569 C 0.99672 0.0064 0.46916 0.0
H570 H 0.98901 0.96282 0.54876 0.0
C571 C 0.11287 0.93819 0.51565 0.0
C572 C 0.12697 0.93872 0.55238 0.0
C573 C 0.07847 0.94874 0.5027 0.0
C574 C 0.99166 0.97498 0.52667 0.0
H575 H 0.88143 0.03868 0.38845 0.0
H576 H 0.93946 0.01816 0.41331 0.0
H577 H 0.93597 0.98821 0.52459 0.0
H578 H 0.11527 0.94941 0.60464 0.0
H579 H 0.05439 0.96749 0.58211 0.0
H580 H 0.05222 0.99282 0.47095 0.0
C581 C 0.92191 0.02529 0.43163 0.0
C582 C 0.96133 0.98972 0.51288 0.0
C583 C 0.88877 0.0372 0.41727 0.0
C584 C 0.10458 0.94817 0.57632 0.0
C585 C 0.06994 0.95878 0.56332 0.0
C586 C 0.02686 0.99151 0.48273 0.0
C587 C 0.93068 0.02106 0.46884 0.0
C588 C 0.96342 0.00571 0.48394 0.0
C589 C 0.05742 0.96022 0.52617 0.0
C590 C 0.02471 0.97557 0.51159 0.0
H591 H 0.85428 0.04764 0.49486 0.0
H592 H 0.91275 0.02823 0.52013 0.0
H593 H 0.99975 0.01868 0.44733 0.0
H594 H 0.1299 0.93137 0.4966 0.0
H595 H 0.0693 0.94909 0.47404 0.0
C596 C 0.37489 0.44079 0.99137 0.0
C597 C 0.36444 0.43658 0.9545 0.0
C598 C 0.40987 0.4505 0.0046 0.0
C599 C 0.47883 0.49114 0.97384 0.0
H600 H 0.53637 0.47815 0.06703 0.0
C601 C 0.62214 0.53492 0.02081 0.0
C602 C 0.63293 0.54033 0.05725 0.0
C603 C 0.5882 0.52348 0.00891 0.0
C604 C 0.52027 0.48228 0.04119 0.0
H605 H 0.38323 0.43779 0.90285 0.0
H606 H 0.44493 0.45437 0.92599 0.0
H607 H 0.48328 0.45217 0.04465 0.0
H608 H 0.61614 0.5388 0.10976 0.0
H609 H 0.55596 0.51895 0.08889 0.0
H610 H 0.51548 0.52133 0.9704 0.0
C611 C 0.42586 0.45034 0.94467 0.0
C612 C 0.48999 0.46724 0.02821 0.0
C613 C 0.39083 0.44039 0.93146 0.0
C614 C 0.60817 0.53519 0.08145 0.0
C615 C 0.57406 0.52348 0.06953 0.0
C616 C 0.50899 0.50619 0.98682 0.0
C617 C 0.43514 0.45652 0.98119 0.0
C618 C 0.46893 0.47141 0.99428 0.0
C619 C 0.56413 0.51691 0.03319 0.0
C620 C 0.53026 0.50194 0.02062 0.0
H621 H 0.35481 0.43839 0.00962 0.0
H622 H 0.41584 0.45507 0.03278 0.0
H623 H 0.46272 0.49534 0.94802 0.0
H624 H 0.64096 0.53844 0.00166 0.0
H625 H 0.58189 0.51856 0.98089 0.0
C626 C 0.63746 0.461 0.49816 0.0
C627 C 0.64169 0.44978 0.53204 0.0
C628 C 0.60391 0.47225 0.48395 0.0
C629 C 0.52847 0.5056 0.51351 0.0
H630 H 0.47495 0.49678 0.41749 0.0
C631 C 0.38187 0.54428 0.4716 0.0
C632 C 0.36846 0.54956 0.43556 0.0
C633 C 0.41752 0.53487 0.48175 0.0
C634 C 0.48995 0.49992 0.4441 0.0
H635 H 0.61391 0.44097 0.57724 0.0
H636 H 0.55517 0.4612 0.55268 0.0
H637 H 0.53047 0.47235 0.43778 0.0
H638 H 0.38271 0.55044 0.38201 0.0
H639 H 0.44623 0.53469 0.39987 0.0
H640 H 0.48925 0.53363 0.51983 0.0
C641 C 0.5778 0.46095 0.53698 0.0
C642 C 0.52153 0.48567 0.45583 0.0
C643 C 0.61118 0.44917 0.55087 0.0
C644 C 0.39254 0.54683 0.41004 0.0
C645 C 0.42865 0.53738 0.42028 0.0
C646 C 0.49744 0.52015 0.50162 0.0
C647 C 0.57415 0.47306 0.50372 0.0
C648 C 0.54067 0.48806 0.4909 0.0
C649 C 0.44117 0.53053 0.45618 0.0
C650 C 0.47715 0.5172 0.467 0.0
H651 H 0.6607 0.46187 0.48324 0.0
H652 H 0.60196 0.48149 0.45836 0.0
H653 H 0.54325 0.50827 0.54037 0.0
H654 H 0.36376 0.54604 0.49182 0.0
H655 H 0.42547 0.52961 0.50948 0.0
C656 C 0.38169 0.12346 0.15308 0.0
C657 C 0.35508 0.10617 0.16014 0.0
C658 C 0.41593 0.12557 0.17548 0.0
C659 C 0.48235 0.08849 0.23539 0.0
H660 H 0.53208 0.15007 0.26001 0.0
C661 C 0.63912 0.09332 0.29512 0.0
C662 C 0.64728 0.10759 0.32621 0.0
C663 C 0.60402 0.09482 0.27366 0.0
C664 C 0.5186 0.13271 0.25336 0.0
H665 H 0.34314 0.07809 0.19708 0.0
H666 H 0.40327 0.08172 0.23643 0.0
H667 H 0.46795 0.14976 0.22881 0.0
H668 H 0.6258 0.13567 0.35785 0.0
H669 H 0.56531 0.13875 0.32007 0.0
H670 H 0.53303 0.07144 0.25986 0.0
C671 C 0.39747 0.09367 0.21343 0.0
C672 C 0.48185 0.13254 0.23539 0.0
C673 C 0.36282 0.09182 0.19121 0.0
C674 C 0.62048 0.12449 0.33399 0.0
C675 C 0.58573 0.12625 0.31232 0.0
C676 C 0.51925 0.08867 0.253 0.0
C677 C 0.42479 0.11018 0.20532 0.0
C678 C 0.4632 0.11042 0.22621 0.0
C679 C 0.57657 0.1109 0.28252 0.0
C680 C 0.53787 0.11078 0.26224 0.0
H681 H 0.37666 0.13467 0.1292 0.0
H682 H 0.43627 0.13837 0.16826 0.0
H683 H 0.46904 0.07113 0.22833 0.0
H684 H 0.65891 0.07989 0.28863 0.0
H685 H 0.59801 0.08295 0.25062 0.0
C686 C 0.64646 0.89336 0.79287 0.0
C687 C 0.64977 0.88423 0.82802 0.0
C688 C 0.6119 0.89304 0.77033 0.0
C689 C 0.51438 0.86767 0.76149 0.0
H690 H 0.49087 0.92452 0.70149 0.0
C691 C 0.3646 0.89091 0.68565 0.0
C692 C 0.36387 0.89726 0.64941 0.0
C693 C 0.39887 0.88824 0.70852 0.0
C694 C 0.49702 0.90848 0.71806 0.0
H695 H 0.61928 0.86636 0.86606 0.0
H696 H 0.55974 0.8663 0.82752 0.0
H697 H 0.55237 0.92078 0.737 0.0
H698 H 0.39915 0.90598 0.6093 0.0
H699 H 0.45756 0.90158 0.64873 0.0
H700 H 0.45839 0.85575 0.74274 0.0
C701 C 0.58363 0.87348 0.81691 0.0
C702 C 0.53251 0.90619 0.73822 0.0
C703 C 0.61805 0.87365 0.83924 0.0
C704 C 0.39816 0.90092 0.63687 0.0
C705 C 0.43196 0.8986 0.65961 0.0
C706 C 0.47866 0.87011 0.74155 0.0
C707 C 0.57971 0.88368 0.78239 0.0
C708 C 0.54193 0.88567 0.76009 0.0
C709 C 0.43291 0.89236 0.69572 0.0
C710 C 0.46968 0.89045 0.71933 0.0
H711 H 0.67016 0.90166 0.78324 0.0
H712 H 0.61031 0.90059 0.74364 0.0
H713 H 0.5205 0.85144 0.7776 0.0
H714 H 0.33885 0.888 0.69626 0.0
H715 H 0.39875 0.88345 0.73633 0.0
C716 C 0.85517 0.60101 0.19378 0.0
C717 C 0.85347 0.60597 0.15697 0.0
C718 C 0.88914 0.60279 0.21711 0.0
C719 C 0.99005 0.59776 0.21616 0.0
H720 H 1.00083 0.62772 0.30994 0.0
C721 C 0.13393 0.60215 0.30798 0.0
C722 C 0.13398 0.59909 0.34498 0.0
C723 C 0.10023 0.60527 0.28457 0.0
C724 C 0.99835 0.61895 0.28404 0.0
H725 H 0.88636 0.61788 0.11651 0.0
H726 H 0.94488 0.62072 0.15691 0.0
H727 H 0.9405 0.62854 0.27145 0.0
H728 H 0.09804 0.59692 0.38604 0.0
H729 H 0.0403 0.60154 0.34575 0.0
H730 H 0.04733 0.58737 0.22891 0.0
C731 C 0.92012 0.61524 0.16769 0.0
C732 C 0.96366 0.61953 0.26193 0.0
C733 C 0.88631 0.61375 0.14456 0.0
C734 C 0.09949 0.59945 0.35783 0.0
C735 C 0.06603 0.6023 0.33456 0.0
C736 C 0.0246 0.59687 0.23843 0.0
C737 C 0.92219 0.6093 0.20408 0.0
C738 C 0.95906 0.60891 0.22774 0.0
C739 C 0.06569 0.6052 0.29753 0.0
C740 C 0.02932 0.60733 0.27284 0.0
H741 H 0.83064 0.59485 0.20434 0.0
H742 H 0.88985 0.59807 0.24506 0.0
H743 H 0.98734 0.58916 0.19009 0.0
H744 H 0.15985 0.60198 0.29705 0.0
H745 H 0.10132 0.60777 0.25631 0.0
C746 C 0.8714 0.36885 0.65813 0.0
C747 C 0.84462 0.38669 0.66259 0.0
C748 C 0.90716 0.36966 0.67815 0.0
C749 C 0.97408 0.41407 0.72292 0.0
H750 H 0.02876 0.3578 0.76488 0.0
C751 C 0.10848 0.42374 0.82325 0.0
C752 C 0.13676 0.40611 0.82527 0.0
C753 C 0.07516 0.42097 0.7999 0.0
C754 C 0.0142 0.37364 0.75273 0.0
H755 H 0.8342 0.41886 0.69273 0.0
H756 H 0.89665 0.42026 0.72779 0.0
H757 H 0.96479 0.35293 0.73424 0.0
H758 H 0.15279 0.372 0.80342 0.0
H759 H 0.09411 0.36714 0.76162 0.0
H760 H 0.02323 0.4348 0.74088 0.0
C761 C 0.88992 0.40567 0.70861 0.0
C762 C 0.97738 0.37087 0.7354 0.0
C763 C 0.85394 0.40467 0.68889 0.0
C764 C 0.13163 0.38601 0.80208 0.0
C765 C 0.09783 0.38312 0.77857 0.0
C766 C 0.01087 0.41681 0.73991 0.0
C767 C 0.91726 0.38853 0.70283 0.0
C768 C 0.95664 0.39114 0.72085 0.0
C769 C 0.06885 0.4004 0.7777 0.0
C770 C 0.0313 0.39674 0.75571 0.0
H771 H 0.86523 0.35481 0.63796 0.0
H772 H 0.92749 0.35621 0.67293 0.0
H773 H 0.95932 0.42996 0.71115 0.0
H774 H 0.11158 0.43937 0.84096 0.0
H775 H 0.0536 0.43451 0.80063 0.0
C776 C 0.23141 0.15764 0.00717 0.0
C777 C 0.22869 0.15074 0.04251 0.0
C778 C 0.22588 0.18173 -0.00373 0.0
C779 C 0.23629 0.24279 0.03447 0.0
H780 H 0.19801 0.26228 0.93708 0.0
C781 C 0.22495 0.34263 0.98587 0.0
C782 C 0.23543 0.34772 0.95226 0.0
C783 C 0.22382 0.31872 -0.00198 0.0
C784 C 0.20911 0.25702 0.96426 0.0
H785 H 0.21525 0.16317 0.09345 0.0
H786 H 0.205 0.20563 0.07417 0.0
H787 H 0.18955 0.22041 0.95605 0.0
H788 H 0.25437 0.33194 0.90563 0.0
H789 H 0.25218 0.28981 0.92693 0.0
H790 H 0.25572 0.2795 0.04258 0.0
C791 C 0.21207 0.19234 0.05512 0.0
C792 C 0.20409 0.23311 0.9752 0.0
C793 C 0.2175 0.16805 0.06606 0.0
C794 C 0.2463 0.3285 0.93166 0.0
C795 C 0.2447 0.30446 0.94367 0.0
C796 C 0.24102 0.26676 0.02359 0.0
C797 C 0.21745 0.19954 0.02044 0.0
C798 C 0.21815 0.22562 0.01026 0.0
C799 C 0.23278 0.29937 0.97667 0.0
C800 C 0.22794 0.27398 0.98824 0.0
H801 H 0.23968 0.1446 0.98833 0.0
H802 H 0.23055 0.18659 0.96949 0.0
H803 H 0.24808 0.23752 0.06145 0.0
H804 H 0.21666 0.35713 0.00244 0.0
H805 H 0.21445 0.31532 0.02349 0.0
C806 C 0.77653 0.16859 0.4185 0.0
C807 C 0.77301 0.15021 0.44363 0.0
C808 C 0.77728 0.19305 0.4289 0.0
C809 C 0.78413 0.23432 0.50765 0.0
H810 H 0.71026 0.27224 0.44601 0.0
C811 C 0.73084 0.32467 0.55559 0.0
C812 C 0.73353 0.34419 0.53208 0.0
C813 C 0.73317 0.30071 0.54365 0.0
C814 C 0.73106 0.2619 0.46338 0.0
H815 H 0.77167 0.14258 0.49976 0.0
H816 H 0.77318 0.18501 0.5179 0.0
H817 H 0.72729 0.23185 0.42705 0.0
H818 H 0.73684 0.35411 0.47703 0.0
H819 H 0.7405 0.3124 0.45619 0.0
H820 H 0.78754 0.26427 0.54417 0.0
C821 C 0.77513 0.18079 0.49023 0.0
C822 C 0.74113 0.2389 0.45239 0.0
C823 C 0.77415 0.15647 0.47983 0.0
C824 C 0.73493 0.33936 0.49577 0.0
C825 C 0.73697 0.31547 0.48381 0.0
C826 C 0.77398 0.25728 0.51868 0.0
C827 C 0.77488 0.19936 0.46459 0.0
C828 C 0.76759 0.2248 0.47452 0.0
C829 C 0.73782 0.29598 0.50799 0.0
C830 C 0.74715 0.27121 0.49678 0.0
H831 H 0.77562 0.16422 0.39041 0.0
H832 H 0.77779 0.20703 0.40872 0.0
H833 H 0.80482 0.22396 0.52513 0.0
H834 H 0.72984 0.32788 0.58373 0.0
H835 H 0.73305 0.28593 0.56267 0.0
C836 C 0.76345 0.81696 0.9202 0.0
C837 C 0.77009 0.83638 0.94445 0.0
C838 C 0.75967 0.79326 0.93287 0.0
C839 C 0.77215 0.75455 0.01454 0.0
H840 H 0.68202 0.72295 0.96813 0.0
C841 C 0.7213 0.66753 0.07396 0.0
C842 C 0.71682 0.64844 0.04903 0.0
C843 C 0.72188 0.69166 0.06207 0.0
C844 C 0.70725 0.73156 0.98135 0.0
H845 H 0.78176 0.84619 0.00058 0.0
H846 H 0.77575 0.80499 0.02264 0.0
H847 H 0.7024 0.761 0.94377 0.0
H848 H 0.70511 0.63936 0.99268 0.0
H849 H 0.70543 0.68127 0.97194 0.0
H850 H 0.77717 0.72508 0.05198 0.0
C851 C 0.77315 0.80785 0.99399 0.0
C852 C 0.71917 0.75319 0.96718 0.0
C853 C 0.77663 0.83146 0.98137 0.0
C854 C 0.70848 0.65386 0.01236 0.0
C855 C 0.70877 0.67789 0.00051 0.0
C856 C 0.76024 0.73294 0.0287 0.0
C857 C 0.76287 0.7887 0.96991 0.0
C858 C 0.75182 0.76488 0.98357 0.0
C859 C 0.71766 0.6969 0.02516 0.0
C860 C 0.72771 0.72117 0.01222 0.0
H861 H 0.75802 0.82034 0.89161 0.0
H862 H 0.75241 0.77872 0.91372 0.0
H863 H 0.79752 0.76307 0.02764 0.0
H864 H 0.72813 0.66374 0.10235 0.0
H865 H 0.72811 0.70605 0.08166 0.0
C866 C 0.27334 0.65606 0.48303 0.0
C867 C 0.26748 0.6502 0.44644 0.0
C868 C 0.27447 0.68026 0.49403 0.0
C869 C 0.23332 0.73803 0.46212 0.0
H870 H 0.29181 0.76357 0.54855 0.0
C871 C 0.23241 0.83825 0.50597 0.0
C872 C 0.23665 0.84349 0.54274 0.0
C873 C 0.23281 0.81426 0.49416 0.0
C874 C 0.27487 0.7565 0.52469 0.0
H875 H 0.26122 0.66477 0.39259 0.0
H876 H 0.26353 0.70749 0.41186 0.0
H877 H 0.30672 0.72363 0.52625 0.0
H878 H 0.24195 0.82798 0.59598 0.0
H879 H 0.24245 0.78564 0.57526 0.0
H880 H 0.20147 0.77091 0.46058 0.0
C881 C 0.26682 0.69327 0.432 0.0
C882 C 0.28365 0.73377 0.51173 0.0
C883 C 0.266 0.66891 0.42096 0.0
C884 C 0.23836 0.82431 0.56749 0.0
C885 C 0.23914 0.80019 0.55565 0.0
C886 C 0.22458 0.76078 0.47505 0.0
C887 C 0.26951 0.6991 0.46861 0.0
C888 C 0.26288 0.72425 0.48038 0.0
C889 C 0.23777 0.79505 0.51894 0.0
C890 C 0.24518 0.77021 0.50654 0.0
H891 H 0.27457 0.64186 0.50316 0.0
H892 H 0.27642 0.68409 0.52239 0.0
H893 H 0.21625 0.73094 0.43836 0.0
H894 H 0.23105 0.85282 0.48641 0.0
H895 H 0.23182 0.81093 0.46577 0.0
loop_
_geom_bond_atom_site_label_1
_geom_bond_atom_site_label_2
_geom_bond_distance
_geom_bond_site_symmetry_2
_ccdc_geom_bond_type
Sc0 O3 2.025 . S
Sc0 O10 2.105 . S
Sc0 O13 2.105 . S
Sc0 O16 2.105 . S
Sc0 O19 2.105 . S
Sc1 O3 2.025 . S
Sc1 O11 2.105 . S
Sc1 O15 2.105 . S
Sc1 O17 2.105 . S
Sc1 O21 2.105 1_554 S
Sc2 O3 2.025 . S
Sc2 O12 2.105 1_554 S
Sc2 O14 2.105 . S
Sc2 O18 2.105 . S
Sc2 O20 2.105 . S
O3 Sc0 2.025 . S
O3 Sc1 2.025 . S
O3 Sc2 2.025 . S
C4 O10 1.268 . S
C4 O20 1.268 . S
C5 O11 1.268 . S
C5 O19 1.268 . S
C6 O12 1.268 . S
C6 O21 1.268 . S
C7 O13 1.268 . S
C7 O17 1.268 . S
C8 O14 1.268 . S
C8 O16 1.268 . S
C9 O15 1.268 . S
C9 O18 1.268 . S
O10 Sc0 2.105 . S
O10 C4 1.268 . S
O11 Sc1 2.105 . S
O11 C5 1.268 . S
O12 Sc2 2.105 1_556 S
O12 C6 1.268 . S
O13 Sc0 2.105 . S
O13 C7 1.268 . S
O14 Sc2 2.105 . S
O14 C8 1.268 . S
O15 Sc1 2.105 . S
O15 C9 1.268 . S
O16 Sc0 2.105 . S
O16 C8 1.268 . S
O17 Sc1 2.105 . S
O17 C7 1.268 . S
O18 Sc2 2.105 . S
O18 C9 1.268 . S
O19 Sc0 2.105 . S
O19 C5 1.268 . S
O20 Sc2 2.105 . S
O20 C4 1.268 . S
O21 Sc1 2.105 1_556 S
O21 C6 1.268 . S
Sc22 O25 2.025 . S
Sc22 O32 2.105 . S
Sc22 O35 2.105 . S
Sc22 O38 2.105 . S
Sc22 O41 2.105 . S
Sc23 O25 2.025 . S
Sc23 O33 2.105 . S
Sc23 O37 2.105 . S
Sc23 O39 2.105 . S
Sc23 O43 2.105 . S
Sc24 O25 2.025 . S
Sc24 O34 2.105 . S
Sc24 O36 2.105 . S
Sc24 O40 2.105 . S
Sc24 O42 2.105 . S
O25 Sc22 2.025 . S
O25 Sc23 2.025 . S
O25 Sc24 2.025 . S
C26 O32 1.268 . S
C26 O42 1.268 . S
C27 O33 1.268 . S
C27 O41 1.268 . S
C28 O34 1.268 . S
C28 O43 1.268 . S
C29 O35 1.268 . S
C29 O39 1.268 . S
C30 O36 1.268 . S
C30 O38 1.268 . S
C31 O37 1.268 . S
C31 O40 1.268 . S
O32 Sc22 2.105 . S
O32 C26 1.268 . S
O33 Sc23 2.105 . S
O33 C27 1.268 . S
O34 Sc24 2.105 . S
O34 C28 1.268 . S
O35 Sc22 2.105 . S
O35 C29 1.268 . S
O36 Sc24 2.105 . S
O36 C30 1.268 . S
O37 Sc23 2.105 . S
O37 C31 1.268 . S
O38 Sc22 2.105 . S
O38 C30 1.268 . S
O39 Sc23 2.105 . S
O39 C29 1.268 . S
O40 Sc24 2.105 . S
O40 C31 1.268 . S
O41 Sc22 2.105 . S
O41 C27 1.268 . S
O42 Sc24 2.105 . S
O42 C26 1.268 . S
O43 Sc23 2.105 . S
O43 C28 1.268 . S
Sc44 O47 2.025 . S
Sc44 O54 2.105 . S
Sc44 O57 2.105 . S
Sc44 O60 2.105 . S
Sc44 O63 2.105 . S
Sc45 O47 2.025 . S
Sc45 O55 2.105 . S
Sc45 O59 2.105 1_556 S
Sc45 O61 2.105 . S
Sc45 O65 2.105 . S
Sc46 O47 2.025 . S
Sc46 O56 2.105 . S
Sc46 O58 2.105 . S
Sc46 O62 2.105 1_556 S
Sc46 O64 2.105 . S
O47 Sc44 2.025 . S
O47 Sc45 2.025 . S
O47 Sc46 2.025 . S
C48 O54 1.268 . S
C48 O64 1.268 . S
C49 O55 1.268 . S
C49 O63 1.268 . S
C50 O56 1.268 . S
C50 O65 1.268 . S
C51 O57 1.268 . S
C51 O61 1.268 . S
C52 O58 1.268 . S
C52 O60 1.268 . S
C53 O59 1.268 . S
C53 O62 1.268 . S
O54 Sc44 2.105 . S
O54 C48 1.268 . S
O55 Sc45 2.105 . S
O55 C49 1.268 . S
O56 Sc46 2.105 . S
O56 C50 1.268 . S
O57 Sc44 2.105 . S
O57 C51 1.268 . S
O58 Sc46 2.105 . S
O58 C52 1.268 . S
O59 Sc45 2.105 1_554 S
O59 C53 1.268 . S
O60 Sc44 2.105 . S
O60 C52 1.268 . S
O61 Sc45 2.105 . S
O61 C51 1.268 . S
O62 Sc46 2.105 1_554 S
O62 C53 1.268 . S
O63 Sc44 2.105 . S
O63 C49 1.268 . S
O64 Sc46 2.105 . S
O64 C48 1.268 . S
O65 Sc45 2.105 . S
O65 C50 1.268 . S
Sc66 O69 2.025 . S
Sc66 O76 2.105 . S
Sc66 O79 2.105 . S
Sc66 O82 2.105 . S
Sc66 O85 2.105 . S
Sc67 O69 2.025 . S
Sc67 O77 2.105 . S
Sc67 O81 2.105 . S
Sc67 O83 2.105 . S
Sc67 O87 2.105 . S
Sc68 O69 2.025 . S
Sc68 O78 2.105 . S
Sc68 O80 2.105 . S
Sc68 O84 2.105 . S
Sc68 O86 2.105 . S
O69 Sc66 2.025 . S
O69 Sc67 2.025 . S
O69 Sc68 2.025 . S
C70 O76 1.268 . S
C70 O86 1.268 . S
C71 O77 1.268 . S
C71 O85 1.268 . S
C72 O78 1.268 . S
C72 O87 1.268 . S
C73 O79 1.268 . S
C73 O83 1.268 . S
C74 O80 1.268 . S
C74 O82 1.268 . S
C75 O81 1.268 . S
C75 O84 1.268 . S
O76 Sc66 2.105 . S
O76 C70 1.268 . S
O77 Sc67 2.105 . S
O77 C71 1.268 . S
O78 Sc68 2.105 . S
O78 C72 1.268 . S
O79 Sc66 2.105 . S
O79 C73 1.268 . S
O80 Sc68 2.105 . S
O80 C74 1.268 . S
O81 Sc67 2.105 . S
O81 C75 1.268 . S
O82 Sc66 2.105 . S
O82 C74 1.268 . S
O83 Sc67 2.105 . S
O83 C73 1.268 . S
O84 Sc68 2.105 . S
O84 C75 1.268 . S
O85 Sc66 2.105 . S
O85 C71 1.268 . S
O86 Sc68 2.105 . S
O86 C70 1.268 . S
O87 Sc67 2.105 . S
O87 C72 1.268 . S
Sc88 O91 2.025 . S
Sc88 O98 2.105 . S
Sc88 O101 2.105 . S
Sc88 O104 2.105 . S
Sc88 O107 2.105 . S
Sc89 O91 2.025 . S
Sc89 O99 2.105 . S
Sc89 O103 2.105 . S
Sc89 O105 2.105 . S
Sc89 O109 2.105 1_554 S
Sc90 O91 2.025 . S
Sc90 O100 2.105 1_554 S
Sc90 O102 2.105 . S
Sc90 O106 2.105 . S
Sc90 O108 2.105 . S
O91 Sc88 2.025 . S
O91 Sc89 2.025 . S
O91 Sc90 2.025 . S
C92 O98 1.268 . S
C92 O108 1.268 . S
C93 O99 1.268 . S
C93 O107 1.268 . S
C94 O100 1.268 . S
C94 O109 1.268 . S
C95 O101 1.268 . S
C95 O105 1.268 . S
C96 O102 1.268 . S
C96 O104 1.268 . S
C97 O103 1.268 . S
C97 O106 1.268 . S
O98 Sc88 2.105 . S
O98 C92 1.268 . S
O99 Sc89 2.105 . S
O99 C93 1.268 . S
O100 Sc90 2.105 1_556 S
O100 C94 1.268 . S
O101 Sc88 2.105 . S
O101 C95 1.268 . S
O102 Sc90 2.105 . S
O102 C96 1.268 . S
O103 Sc89 2.105 . S
O103 C97 1.268 . S
O104 Sc88 2.105 . S
O104 C96 1.268 . S
O105 Sc89 2.105 . S
O105 C95 1.268 . S
O106 Sc90 2.105 . S
O106 C97 1.268 . S
O107 Sc88 2.105 . S
O107 C93 1.268 . S
O108 Sc90 2.105 . S
O108 C92 1.268 . S
O109 Sc89 2.105 1_556 S
O109 C94 1.268 . S
Sc110 O113 2.025 . S
Sc110 O120 2.105 . S
Sc110 O123 2.105 . S
Sc110 O126 2.105 . S
Sc110 O129 2.105 . S
Sc111 O113 2.025 . S
Sc111 O121 2.105 . S
Sc111 O125 2.105 . S
Sc111 O127 2.105 . S
Sc111 O131 2.105 . S
Sc112 O113 2.025 . S
Sc112 O122 2.105 . S
Sc112 O124 2.105 . S
Sc112 O128 2.105 . S
Sc112 O130 2.105 . S
O113 Sc110 2.025 . S
O113 Sc111 2.025 . S
O113 Sc112 2.025 . S
C114 O120 1.268 . S
C114 O130 1.268 . S
C115 O121 1.268 . S
C115 O129 1.268 . S
C116 O122 1.268 . S
C116 O131 1.268 . S
C117 O123 1.268 . S
C117 O127 1.268 . S
C118 O124 1.268 . S
C118 O126 1.268 . S
C119 O125 1.268 . S
C119 O128 1.268 . S
O120 Sc110 2.105 . S
O120 C114 1.268 . S
O121 Sc111 2.105 . S
O121 C115 1.268 . S
O122 Sc112 2.105 . S
O122 C116 1.268 . S
O123 Sc110 2.105 . S
O123 C117 1.268 . S
O124 Sc112 2.105 . S
O124 C118 1.268 . S
O125 Sc111 2.105 . S
O125 C119 1.268 . S
O126 Sc110 2.105 . S
O126 C118 1.268 . S
O127 Sc111 2.105 . S
O127 C117 1.268 . S
O128 Sc112 2.105 . S
O128 C119 1.268 . S
O129 Sc110 2.105 . S
O129 C115 1.268 . S
O130 Sc112 2.105 . S
O130 C114 1.268 . S
O131 Sc111 2.105 . S
O131 C116 1.268 . S
Sc132 O135 2.025 . S
Sc132 O142 2.105 . S
Sc132 O145 2.105 . S
Sc132 O148 2.105 . S
Sc132 O151 2.105 . S
Sc133 O135 2.025 . S
Sc133 O143 2.105 . S
Sc133 O147 2.105 1_556 S
Sc133 O149 2.105 . S
Sc133 O153 2.105 . S
Sc134 O135 2.025 . S
Sc134 O144 2.105 . S
Sc134 O146 2.105 . S
Sc134 O150 2.105 1_556 S
Sc134 O152 2.105 . S
O135 Sc132 2.025 . S
O135 Sc133 2.025 . S
O135 Sc134 2.025 . S
C136 O142 1.268 . S
C136 O152 1.268 . S
C137 O143 1.268 . S
C137 O151 1.268 . S
C138 O144 1.268 . S
C138 O153 1.268 . S
C139 O145 1.268 . S
C139 O149 1.268 . S
C140 O146 1.268 . S
C140 O148 1.268 . S
C141 O147 1.268 . S
C141 O150 1.268 . S
O142 Sc132 2.105 . S
O142 C136 1.268 . S
O143 Sc133 2.105 . S
O143 C137 1.268 . S
O144 Sc134 2.105 . S
O144 C138 1.268 . S
O145 Sc132 2.105 . S
O145 C139 1.268 . S
O146 Sc134 2.105 . S
O146 C140 1.268 . S
O147 Sc133 2.105 1_554 S
O147 C141 1.268 . S
O148 Sc132 2.105 . S
O148 C140 1.268 . S
O149 Sc133 2.105 . S
O149 C139 1.268 . S
O150 Sc134 2.105 1_554 S
O150 C141 1.268 . S
O151 Sc132 2.105 . S
O151 C137 1.268 . S
O152 Sc134 2.105 . S
O152 C136 1.268 . S
O153 Sc133 2.105 . S
O153 C138 1.268 . S
Sc154 O157 2.025 . S
Sc154 O164 2.105 . S
Sc154 O167 2.105 . S
Sc154 O170 2.105 . S
Sc154 O173 2.105 . S
Sc155 O157 2.025 . S
Sc155 O165 2.105 . S
Sc155 O169 2.105 . S
Sc155 O171 2.105 . S
Sc155 O175 2.105 . S
Sc156 O157 2.025 . S
Sc156 O166 2.105 . S
Sc156 O168 2.105 . S
Sc156 O172 2.105 . S
Sc156 O174 2.105 . S
O157 Sc154 2.025 . S
O157 Sc155 2.025 . S
O157 Sc156 2.025 . S
C158 O164 1.268 . S
C158 O174 1.268 . S
C159 O165 1.268 . S
C159 O173 1.268 . S
C160 O166 1.268 . S
C160 O175 1.268 . S
C161 O167 1.268 . S
C161 O171 1.268 . S
C162 O168 1.268 . S
C162 O170 1.268 . S
C163 O169 1.268 . S
C163 O172 1.268 . S
O164 Sc154 2.105 . S
O164 C158 1.268 . S
O165 Sc155 2.105 . S
O165 C159 1.268 . S
O166 Sc156 2.105 . S
O166 C160 1.268 . S
O167 Sc154 2.105 . S
O167 C161 1.268 . S
O168 Sc156 2.105 . S
O168 C162 1.268 . S
O169 Sc155 2.105 . S
O169 C163 1.268 . S
O170 Sc154 2.105 . S
O170 C162 1.268 . S
O171 Sc155 2.105 . S
O171 C161 1.268 . S
O172 Sc156 2.105 . S
O172 C163 1.268 . S
O173 Sc154 2.105 . S
O173 C159 1.268 . S
O174 Sc156 2.105 . S
O174 C158 1.268 . S
O175 Sc155 2.105 . S
O175 C160 1.268 . S
C176 C177 1.349 . S
C176 C178 1.327 . S
C176 H201 0.950 . S
C177 C176 1.349 . S
C177 C193 1.349 . S
C178 C176 1.327 . S
C178 C197 1.429 . S
C178 H202 0.950 . S
C179 C196 1.574 1_545 S
C179 C198 1.368 . S
C179 H203 0.949 1_545 S
H180 C184 0.949 . S
C181 C182 1.349 . S
C181 C183 1.327 . S
C181 H204 0.950 . S
C182 C181 1.349 . S
C182 C194 1.349 1_565 S
C183 C181 1.327 . S
C183 C199 1.429 . S
C183 H205 0.950 . S
C184 H180 0.949 . S
C184 C192 1.574 . S
C184 C200 1.368 . S
H185 C193 0.950 . S
H186 C191 0.950 . S
H187 C192 0.949 . S
H188 C194 0.950 . S
H189 C195 0.950 . S
H190 C196 0.949 . S
C191 H186 0.950 . S
C191 C193 1.327 . S
C191 C197 1.429 . S
C192 C184 1.574 . S
C192 H187 0.949 . S
C192 C198 1.368 . S
C193 C177 1.349 . S
C193 H185 0.950 . S
C193 C191 1.327 . S
C194 C182 1.349 1_545 S
C194 H188 0.950 . S
C194 C195 1.327 . S
C195 H189 0.950 . S
C195 C194 1.327 . S
C195 C199 1.429 1_545 S
C196 C179 1.574 1_565 S
C196 H190 0.949 . S
C196 C200 1.368 1_565 S
C197 C178 1.429 . S
C197 C191 1.429 . S
C197 C198 1.523 . S
C198 C179 1.368 . S
C198 C192 1.368 . S
C198 C197 1.523 . S
C199 C183 1.429 . S
C199 C195 1.429 1_565 S
C199 C200 1.523 1_565 S
C200 C184 1.368 . S
C200 C196 1.368 1_545 S
C200 C199 1.523 1_545 S
H201 C176 0.950 . S
H202 C178 0.950 . S
H203 C179 0.949 1_565 S
H204 C181 0.950 . S
H205 C183 0.950 . S
C206 C207 1.349 . S
C206 C208 1.327 . S
C206 H231 0.950 . S
C207 C206 1.349 . S
C207 C223 1.318 1_565 S
C208 C206 1.327 . S
C208 C227 1.429 . S
C208 H232 0.950 . S
C209 C226 1.574 . S
C209 C228 1.368 . S
C209 H233 0.949 . S
H210 C214 0.949 1_565 S
C211 C212 1.349 . S
C211 C213 1.327 . S
C211 H234 0.950 . S
C212 C211 1.349 . S
C212 C224 1.349 . S
C213 C211 1.327 . S
C213 C229 1.429 . S
C213 H235 0.950 . S
C214 H210 0.949 1_545 S
C214 C222 1.574 1_545 S
C214 C230 1.368 . S
H215 C223 0.968 . S
H216 C221 0.950 . S
H217 C222 0.949 . S
H218 C224 0.950 . S
H219 C225 0.950 . S
H220 C226 0.949 . S
C221 H216 0.950 . S
C221 C223 1.341 . S
C221 C227 1.429 1_545 S
C222 C214 1.574 1_565 S
C222 H217 0.949 . S
C222 C228 1.368 1_565 S
C223 C207 1.318 1_545 S
C223 H215 0.968 . S
C223 C221 1.341 . S
C224 C212 1.349 . S
C224 H218 0.950 . S
C224 C225 1.327 . S
C225 H219 0.950 . S
C225 C224 1.327 . S
C225 C229 1.429 . S
C226 C209 1.574 . S
C226 H220 0.949 . S
C226 C230 1.368 . S
C227 C208 1.429 . S
C227 C221 1.429 1_565 S
C227 C228 1.523 1_565 S
C228 C209 1.368 . S
C228 C222 1.368 1_545 S
C228 C227 1.523 1_545 S
C229 C213 1.429 . S
C229 C225 1.429 . S
C229 C230 1.523 . S
C230 C214 1.368 . S
C230 C226 1.368 . S
C230 C229 1.523 . S
H231 C206 0.950 . S
H232 C208 0.950 . S
H233 C209 0.949 . S
H234 C211 0.950 . S
H235 C213 0.950 . S
C236 C237 1.349 1_565 S
C236 C238 1.327 . S
C236 H261 0.950 . S
C237 C236 1.349 1_545 S
C237 C253 1.349 . S
C238 C236 1.327 . S
C238 C257 1.429 1_565 S
C238 H262 0.950 . S
C239 C256 1.574 1_545 S
C239 C258 1.368 1_545 S
C239 H263 0.949 . S
H240 C244 0.949 . S
C241 C242 1.349 . S
C241 C243 1.327 . S
C241 H264 0.950 . S
C242 C241 1.349 . S
C242 C254 1.349 . S
C243 C241 1.327 . S
C243 C259 1.429 . S
C243 H265 0.950 . S
C244 H240 0.949 . S
C244 C252 1.574 . S
C244 C260 1.368 . S
H245 C253 0.950 . S
H246 C251 0.950 . S
H247 C252 0.949 . S
H248 C254 0.950 . S
H249 C255 0.950 . S
H250 C256 0.949 1_545 S
C251 H246 0.950 . S
C251 C253 1.327 . S
C251 C257 1.429 . S
C252 C244 1.574 . S
C252 H247 0.949 . S
C252 C258 1.368 . S
C253 C237 1.349 . S
C253 H245 0.950 . S
C253 C251 1.327 . S
C254 C242 1.349 . S
C254 H248 0.950 . S
C254 C255 1.327 . S
C255 H249 0.950 . S
C255 C254 1.327 . S
C255 C259 1.429 . S
C256 C239 1.574 1_565 S
C256 H250 0.949 1_565 S
C256 C260 1.368 . S
C257 C238 1.429 1_545 S
C257 C251 1.429 . S
C257 C258 1.523 1_545 S
C258 C239 1.368 1_565 S
C258 C252 1.368 . S
C258 C257 1.523 1_565 S
C259 C243 1.429 . S
C259 C255 1.429 . S
C259 C260 1.523 . S
C260 C244 1.368 . S
C260 C256 1.368 . S
C260 C259 1.523 . S
H261 C236 0.950 . S
H262 C238 0.950 . S
H263 C239 0.949 . S
H264 C241 0.950 . S
H265 C243 0.950 . S
C266 C267 1.349 1_565 S
C266 C268 1.327 . S
C266 H291 0.950 . S
C267 C266 1.349 1_545 S
C267 C283 1.349 . S
C268 C266 1.327 . S
C268 C287 1.429 1_565 S
C268 H292 0.950 . S
C269 C286 1.558 1_545 S
C269 C288 1.368 1_545 S
C269 H293 0.949 . S
H270 C274 0.949 . S
C271 C272 1.349 . S
C271 C273 1.327 . S
C271 H294 0.950 . S
C272 C271 1.349 . S
C272 C284 1.349 . S
C273 C271 1.327 . S
C273 C289 1.429 . S
C273 H295 0.950 . S
C274 H270 0.949 . S
C274 C282 1.574 . S
C274 C290 1.368 . S
H275 C283 0.950 . S
H276 C281 0.950 . S
H277 C282 0.949 . S
H278 C284 0.950 . S
H279 C285 0.950 . S
H280 C286 0.924 1_545 S
C281 H276 0.950 . S
C281 C283 1.327 . S
C281 C287 1.429 . S
C282 C274 1.574 . S
C282 H277 0.949 . S
C282 C288 1.368 . S
C283 C267 1.349 . S
C283 H275 0.950 . S
C283 C281 1.327 . S
C284 C272 1.349 . S
C284 H278 0.950 . S
C284 C285 1.327 . S
C285 H279 0.950 . S
C285 C284 1.327 . S
C285 C289 1.429 . S
C286 C269 1.558 1_565 S
C286 H280 0.924 1_565 S
C286 C290 1.414 . S
C287 C268 1.429 1_545 S
C287 C281 1.429 . S
C287 C288 1.523 1_545 S
C288 C269 1.368 1_565 S
C288 C282 1.368 . S
C288 C287 1.523 1_565 S
C289 C273 1.429 . S
C289 C285 1.429 . S
C289 C290 1.523 . S
C290 C274 1.368 . S
C290 C286 1.414 . S
C290 C289 1.523 . S
H291 C266 0.950 . S
H292 C268 0.950 . S
H293 C269 0.949 . S
H294 C271 0.950 . S
H295 C273 0.950 . S
C296 C297 1.349 . S
C296 C298 1.327 . S
C296 H321 0.950 . S
C297 C296 1.349 . S
C297 C313 1.349 . S
C298 C296 1.327 . S
C298 C317 1.429 . S
C298 H322 0.950 . S
C299 C316 1.574 . S
C299 C318 1.368 . S
C299 H323 0.949 . S
H300 C304 0.949 . S
C301 C302 1.349 . S
C301 C303 1.327 . S
C301 H324 0.950 . S
C302 C301 1.349 . S
C302 C314 1.349 . S
C303 C301 1.327 . S
C303 C319 1.429 . S
C303 H325 0.950 . S
C304 H300 0.949 . S
C304 C312 1.574 . S
C304 C320 1.368 . S
H305 C313 0.950 . S
H306 C311 0.950 . S
H307 C312 0.949 . S
H308 C314 0.950 . S
H309 C315 0.950 . S
H310 C316 0.949 . S
C311 H306 0.950 . S
C311 C313 1.327 . S
C311 C317 1.429 . S
C312 C304 1.574 . S
C312 H307 0.949 . S
C312 C318 1.368 . S
C313 C297 1.349 . S
C313 H305 0.950 . S
C313 C311 1.327 . S
C314 C302 1.349 . S
C314 H308 0.950 . S
C314 C315 1.327 . S
C315 H309 0.950 . S
C315 C314 1.327 . S
C315 C319 1.429 . S
C316 C299 1.574 . S
C316 H310 0.949 . S
C316 C320 1.368 . S
C317 C298 1.429 . S
C317 C311 1.429 . S
C317 C318 1.523 . S
C318 C299 1.368 . S
C318 C312 1.368 . S
C318 C317 1.523 . S
C319 C303 1.429 . S
C319 C315 1.429 . S
C319 C320 1.523 . S
C320 C304 1.368 . S
C320 C316 1.368 . S
C320 C319 1.523 . S
H321 C296 0.950 . S
H322 C298 0.950 . S
H323 C299 0.949 . S
H324 C301 0.950 . S
H325 C303 0.950 . S
C326 C327 1.349 . S
C326 C328 1.327 . S
C326 H351 0.950 . S
C327 C326 1.349 . S
C327 C343 1.349 . S
C328 C326 1.327 . S
C328 C347 1.429 . S
C328 H352 0.950 . S
C329 C346 1.574 . S
C329 C348 1.368 . S
C329 H353 0.949 . S
H330 C334 0.949 . S
C331 C332 1.349 . S
C331 C333 1.327 . S
C331 H354 0.950 . S
C332 C331 1.349 . S
C332 C344 1.349 . S
C333 C331 1.327 . S
C333 C349 1.429 . S
C333 H355 0.950 . S
C334 H330 0.949 . S
C334 C342 1.574 . S
C334 C350 1.368 . S
H335 C343 0.950 . S
H336 C341 0.950 . S
H337 C342 0.949 . S
H338 C344 0.950 . S
H339 C345 0.950 . S
H340 C346 0.949 . S
C341 H336 0.950 . S
C341 C343 1.327 . S
C341 C347 1.429 . S
C342 C334 1.574 . S
C342 H337 0.949 . S
C342 C348 1.368 . S
C343 C327 1.349 . S
C343 H335 0.950 . S
C343 C341 1.327 . S
C344 C332 1.349 . S
C344 H338 0.950 . S
C344 C345 1.327 . S
C345 H339 0.950 . S
C345 C344 1.327 . S
C345 C349 1.429 . S
C346 C329 1.574 . S
C346 H340 0.949 . S
C346 C350 1.368 . S
C347 C328 1.429 . S
C347 C341 1.429 . S
C347 C348 1.523 . S
C348 C329 1.368 . S
C348 C342 1.368 . S
C348 C347 1.523 . S
C349 C333 1.429 . S
C349 C345 1.429 . S
C349 C350 1.523 . S
C350 C334 1.368 . S
C350 C346 1.368 . S
C350 C349 1.523 . S
H351 C326 0.950 . S
H352 C328 0.950 . S
H353 C329 0.949 . S
H354 C331 0.950 . S
H355 C333 0.950 . S
C356 C357 1.349 . S
C356 C358 1.327 . S
C356 H381 0.950 . S
C357 C356 1.349 . S
C357 C373 1.349 . S
C358 C356 1.327 . S
C358 C377 1.429 . S
C358 H382 0.950 . S
C359 C376 1.574 . S
C359 C378 1.368 . S
C359 H383 0.949 . S
H360 C364 0.949 . S
C361 C362 1.349 . S
C361 C363 1.327 . S
C361 H384 0.950 . S
C362 C361 1.349 . S
C362 C374 1.349 . S
C363 C361 1.327 . S
C363 C379 1.429 . S
C363 H385 0.950 . S
C364 H360 0.949 . S
C364 C372 1.574 . S
C364 C380 1.368 . S
H365 C373 0.950 . S
H366 C371 0.950 . S
H367 C372 0.949 . S
H368 C374 0.950 . S
H369 C375 0.950 . S
H370 C376 0.949 . S
C371 H366 0.950 . S
C371 C373 1.327 . S
C371 C377 1.429 . S
C372 C364 1.574 . S
C372 H367 0.949 . S
C372 C378 1.368 . S
C373 C357 1.349 . S
C373 H365 0.950 . S
C373 C371 1.327 . S
C374 C362 1.349 . S
C374 H368 0.950 . S
C374 C375 1.327 . S
C375 H369 0.950 . S
C375 C374 1.327 . S
C375 C379 1.429 . S
C376 C359 1.574 . S
C376 H370 0.949 . S
C376 C380 1.368 . S
C377 C358 1.429 . S
C377 C371 1.429 . S
C377 C378 1.523 . S
C378 C359 1.368 . S
C378 C372 1.368 . S
C378 C377 1.523 . S
C379 C363 1.429 . S
C379 C375 1.429 . S
C379 C380 1.523 . S
C380 C364 1.368 . S
C380 C376 1.368 . S
C380 C379 1.523 . S
H381 C356 0.950 . S
H382 C358 0.950 . S
H383 C359 0.949 . S
H384 C361 0.950 . S
H385 C363 0.950 . S
C386 C387 1.349 . S
C386 C388 1.327 . S
C386 H411 0.950 . S
C387 C386 1.349 . S
C387 C403 1.349 . S
C388 C386 1.327 . S
C388 C407 1.429 . S
C388 H412 0.950 . S
C389 C406 1.574 . S
C389 C408 1.368 . S
C389 H413 0.949 . S
H390 C394 0.949 . S
C391 C392 1.349 . S
C391 C393 1.327 . S
C391 H414 0.950 . S
C392 C391 1.349 . S
C392 C404 1.349 . S
C393 C391 1.327 . S
C393 C409 1.429 . S
C393 H415 0.950 . S
C394 H390 0.949 . S
C394 C402 1.574 . S
C394 C410 1.368 . S
H395 C403 0.950 . S
H396 C401 0.950 . S
H397 C402 0.949 . S
H398 C404 0.950 . S
H399 C405 0.950 . S
H400 C406 0.949 . S
C401 H396 0.950 . S
C401 C403 1.327 . S
C401 C407 1.429 . S
C402 C394 1.574 . S
C402 H397 0.949 . S
C402 C408 1.368 . S
C403 C387 1.349 . S
C403 H395 0.950 . S
C403 C401 1.327 . S
C404 C392 1.349 . S
C404 H398 0.950 . S
C404 C405 1.327 . S
C405 H399 0.950 . S
C405 C404 1.327 . S
C405 C409 1.429 . S
C406 C389 1.574 . S
C406 H400 0.949 . S
C406 C410 1.368 . S
C407 C388 1.429 . S
C407 C401 1.429 . S
C407 C408 1.523 . S
C408 C389 1.368 . S
C408 C402 1.368 . S
C408 C407 1.523 . S
C409 C393 1.429 . S
C409 C405 1.429 . S
C409 C410 1.523 . S
C410 C394 1.368 . S
C410 C406 1.368 . S
C410 C409 1.523 . S
H411 C386 0.950 . S
H412 C388 0.950 . S
H413 C389 0.949 . S
H414 C391 0.950 . S
H415 C393 0.950 . S
C416 C417 1.349 . S
C416 C418 1.327 1_545 S
C416 H441 0.950 1_545 S
C417 C416 1.349 . S
C417 C433 1.349 . S
C418 C416 1.327 1_565 S
C418 C437 1.429 1_565 S
C418 H442 0.950 . S
C419 C436 1.574 1_554 S
C419 C438 1.368 . S
C419 H443 0.949 . S
H420 C424 0.949 . S
C421 C422 1.349 . S
C421 C423 1.327 1_565 S
C421 H444 0.950 1_565 S
C422 C421 1.349 . S
C422 C434 1.349 . S
C423 C421 1.327 1_545 S
C423 C439 1.429 1_545 S
C423 H445 0.950 . S
C424 H420 0.949 . S
C424 C432 1.574 1_556 S
C424 C440 1.368 . S
H425 C433 0.950 . S
H426 C431 0.950 . S
H427 C432 0.949 . S
H428 C434 0.950 . S
H429 C435 0.950 . S
H430 C436 0.949 . S
C431 H426 0.950 . S
C431 C433 1.327 . S
C431 C437 1.429 . S
C432 C424 1.574 1_554 S
C432 H427 0.949 . S
C432 C438 1.368 1_565 S
C433 C417 1.349 . S
C433 H425 0.950 . S
C433 C431 1.327 . S
C434 C422 1.349 . S
C434 H428 0.950 . S
C434 C435 1.327 . S
C435 H429 0.950 . S
C435 C434 1.327 . S
C435 C439 1.429 . S
C436 C419 1.574 1_556 S
C436 H430 0.949 . S
C436 C440 1.368 1_545 S
C437 C418 1.429 1_545 S
C437 C431 1.429 . S
C437 C438 1.523 . S
C438 C419 1.368 . S
C438 C432 1.368 1_545 S
C438 C437 1.523 . S
C439 C423 1.429 1_565 S
C439 C435 1.429 . S
C439 C440 1.523 . S
C440 C424 1.368 . S
C440 C436 1.368 1_565 S
C440 C439 1.523 . S
H441 C416 0.950 1_565 S
H442 C418 0.950 . S
H443 C419 0.949 . S
H444 C421 0.950 1_545 S
H445 C423 0.950 . S
C446 C447 1.349 . S
C446 C448 1.327 1_565 S
C446 H471 0.950 1_565 S
C447 C446 1.349 . S
C447 C463 1.349 . S
C448 C446 1.327 1_545 S
C448 C467 1.429 1_545 S
C448 H472 0.950 . S
C449 C466 1.574 . S
C449 C468 1.368 . S
C449 H473 0.949 . S
H450 C454 0.949 . S
C451 C452 1.349 . S
C451 C453 1.327 1_545 S
C451 H474 0.950 1_545 S
C452 C451 1.349 . S
C452 C464 1.349 . S
C453 C451 1.327 1_565 S
C453 C469 1.429 1_565 S
C453 H475 0.950 . S
C454 H450 0.949 . S
C454 C462 1.574 . S
C454 C470 1.368 . S
H455 C463 0.950 . S
H456 C461 0.950 . S
H457 C462 0.949 . S
H458 C464 0.950 . S
H459 C465 0.950 . S
H460 C466 0.949 . S
C461 H456 0.950 . S
C461 C463 1.327 . S
C461 C467 1.429 . S
C462 C454 1.574 . S
C462 H457 0.949 . S
C462 C468 1.368 1_545 S
C463 C447 1.349 . S
C463 H455 0.950 . S
C463 C461 1.327 . S
C464 C452 1.349 . S
C464 H458 0.950 . S
C464 C465 1.327 . S
C465 H459 0.950 . S
C465 C464 1.327 . S
C465 C469 1.429 . S
C466 C449 1.574 . S
C466 H460 0.949 . S
C466 C470 1.368 1_565 S
C467 C448 1.429 1_565 S
C467 C461 1.429 . S
C467 C468 1.523 . S
C468 C449 1.368 . S
C468 C462 1.368 1_565 S
C468 C467 1.523 . S
C469 C453 1.429 1_545 S
C469 C465 1.429 . S
C469 C470 1.523 . S
C470 C454 1.368 . S
C470 C466 1.368 1_545 S
C470 C469 1.523 . S
H471 C446 0.950 1_545 S
H472 C448 0.950 . S
H473 C449 0.949 . S
H474 C451 0.950 1_565 S
H475 C453 0.950 . S
C476 C477 1.349 . S
C476 C478 1.327 . S
C476 H501 0.950 . S
C477 C476 1.349 . S
C477 C493 1.349 . S
C478 C476 1.327 . S
C478 C497 1.429 . S
C478 H502 0.950 . S
C479 C496 1.574 1_654 S
C479 C498 1.368 . S
C479 H503 0.949 . S
H480 C484 0.949 . S
C481 C482 1.349 . S
C481 C483 1.327 . S
C481 H504 0.950 . S
C482 C481 1.349 . S
C482 C494 1.349 . S
C483 C481 1.327 . S
C483 C499 1.429 . S
C483 H505 0.950 . S
C484 H480 0.949 . S
C484 C492 1.574 1_456 S
C484 C500 1.368 . S
H485 C493 0.950 . S
H486 C491 0.950 . S
H487 C492 0.949 . S
H488 C494 0.950 . S
H489 C495 0.950 . S
H490 C496 0.949 . S
C491 H486 0.950 . S
C491 C493 1.327 . S
C491 C497 1.429 . S
C492 C484 1.574 1_654 S
C492 H487 0.949 . S
C492 C498 1.368 . S
C493 C477 1.349 . S
C493 H485 0.950 . S
C493 C491 1.327 . S
C494 C482 1.349 . S
C494 H488 0.950 . S
C494 C495 1.327 . S
C495 H489 0.950 . S
C495 C494 1.327 . S
C495 C499 1.429 . S
C496 C479 1.574 1_456 S
C496 H490 0.949 . S
C496 C500 1.368 . S
C497 C478 1.429 . S
C497 C491 1.429 . S
C497 C498 1.523 . S
C498 C479 1.368 . S
C498 C492 1.368 . S
C498 C497 1.523 . S
C499 C483 1.429 . S
C499 C495 1.429 . S
C499 C500 1.523 . S
C500 C484 1.368 . S
C500 C496 1.368 . S
C500 C499 1.523 . S
H501 C476 0.950 . S
H502 C478 0.950 . S
H503 C479 0.949 . S
H504 C481 0.950 . S
H505 C483 0.950 . S
C506 C507 1.349 . S
C506 C508 1.327 . S
C506 H531 0.950 . S
C507 C506 1.349 . S
C507 C523 1.349 . S
C508 C506 1.327 . S
C508 C527 1.429 . S
C508 H532 0.950 . S
C509 C526 1.574 1_455 S
C509 C528 1.368 . S
C509 H533 0.949 . S
H510 C514 0.949 . S
C511 C512 1.349 . S
C511 C513 1.327 . S
C511 H534 0.950 . S
C512 C511 1.349 . S
C512 C524 1.349 . S
C513 C511 1.327 . S
C513 C529 1.429 . S
C513 H535 0.950 . S
C514 H510 0.949 . S
C514 C522 1.574 1_655 S
C514 C530 1.368 . S
H515 C523 0.950 . S
H516 C521 0.950 . S
H517 C522 0.949 . S
H518 C524 0.950 . S
H519 C525 0.950 . S
H520 C526 0.949 . S
C521 H516 0.950 . S
C521 C523 1.327 . S
C521 C527 1.429 . S
C522 C514 1.574 1_455 S
C522 H517 0.949 . S
C522 C528 1.368 . S
C523 C507 1.349 . S
C523 H515 0.950 . S
C523 C521 1.327 . S
C524 C512 1.349 . S
C524 H518 0.950 . S
C524 C525 1.327 . S
C525 H519 0.950 . S
C525 C524 1.327 . S
C525 C529 1.429 . S
C526 C509 1.574 1_655 S
C526 H520 0.949 . S
C526 C530 1.368 . S
C527 C508 1.429 . S
C527 C521 1.429 . S
C527 C528 1.523 . S
C528 C509 1.368 . S
C528 C522 1.368 . S
C528 C527 1.523 . S
C529 C513 1.429 . S
C529 C525 1.429 . S
C529 C530 1.523 . S
C530 C514 1.368 . S
C530 C526 1.368 . S
C530 C529 1.523 . S
H531 C506 0.950 . S
H532 C508 0.950 . S
H533 C509 0.949 . S
H534 C511 0.950 . S
H535 C513 0.950 . S
C536 C537 1.349 . S
C536 C538 1.327 . S
C536 H561 0.950 . S
C537 C536 1.349 . S
C537 C553 1.349 1_554 S
C538 C536 1.327 . S
C538 C557 1.429 . S
C538 H562 0.950 . S
C539 C556 1.576 1_455 S
C539 C558 1.366 1_566 S
C539 H563 0.949 . S
H540 C544 0.949 . S
C541 C542 1.349 . S
C541 C543 1.327 . S
C541 H564 0.950 . S
C542 C541 1.349 . S
C542 C554 1.349 1_556 S
C543 C541 1.327 . S
C543 C559 1.429 . S
C543 H565 0.950 . S
C544 H540 0.949 . S
C544 C552 1.576 1_655 S
C544 C560 1.366 1_544 S
H545 C553 0.950 . S
H546 C551 0.950 . S
H547 C552 0.949 . S
H548 C554 0.950 . S
H549 C555 0.950 . S
H550 C556 0.949 . S
C551 H546 0.950 . S
C551 C553 1.327 . S
C551 C557 1.429 1_556 S
C552 C544 1.576 1_455 S
C552 H547 0.949 . S
C552 C558 1.368 . S
C553 C537 1.349 1_556 S
C553 H545 0.950 . S
C553 C551 1.327 . S
C554 C542 1.349 1_554 S
C554 H548 0.950 . S
C554 C555 1.327 . S
C555 H549 0.950 . S
C555 C554 1.327 . S
C555 C559 1.429 1_554 S
C556 C539 1.576 1_655 S
C556 H550 0.949 . S
C556 C560 1.368 . S
C557 C538 1.429 . S
C557 C551 1.429 1_554 S
C557 C558 1.523 . S
C558 C539 1.366 1_544 S
C558 C552 1.368 . S
C558 C557 1.523 . S
C559 C543 1.429 . S
C559 C555 1.429 1_556 S
C559 C560 1.523 . S
C560 C544 1.366 1_566 S
C560 C556 1.368 . S
C560 C559 1.523 . S
H561 C536 0.950 . S
H562 C538 0.950 . S
H563 C539 0.949 . S
H564 C541 0.950 . S
H565 C543 0.950 . S
C566 C567 1.349 . S
C566 C568 1.327 . S
C566 H591 0.950 . S
C567 C566 1.349 . S
C567 C583 1.349 . S
C568 C566 1.327 . S
C568 C587 1.429 . S
C568 H592 0.950 . S
C569 C586 1.574 1_655 S
C569 C588 1.368 . S
C569 H593 0.949 . S
H570 C574 0.949 . S
C571 C572 1.349 . S
C571 C573 1.327 . S
C571 H594 0.950 . S
C572 C571 1.349 . S
C572 C584 1.349 . S
C573 C571 1.327 . S
C573 C589 1.429 . S
C573 H595 0.950 . S
C574 H570 0.949 . S
C574 C582 1.574 1_455 S
C574 C590 1.368 . S
H575 C583 0.950 . S
H576 C581 0.950 . S
H577 C582 0.949 . S
H578 C584 0.950 . S
H579 C585 0.950 . S
H580 C586 0.949 . S
C581 H576 0.950 . S
C581 C583 1.327 . S
C581 C587 1.429 . S
C582 C574 1.574 1_655 S
C582 H577 0.949 . S
C582 C588 1.368 1_565 S
C583 C567 1.349 . S
C583 H575 0.950 . S
C583 C581 1.327 . S
C584 C572 1.349 . S
C584 H578 0.950 . S
C584 C585 1.327 . S
C585 H579 0.950 . S
C585 C584 1.327 . S
C585 C589 1.429 . S
C586 C569 1.574 1_455 S
C586 H580 0.949 . S
C586 C590 1.368 1_545 S
C587 C568 1.429 . S
C587 C581 1.429 . S
C587 C588 1.523 . S
C588 C569 1.368 . S
C588 C582 1.368 1_545 S
C588 C587 1.523 . S
C589 C573 1.429 . S
C589 C585 1.429 . S
C589 C590 1.523 . S
C590 C574 1.368 . S
C590 C586 1.368 1_565 S
C590 C589 1.523 . S
H591 C566 0.950 . S
H592 C568 0.950 . S
H593 C569 0.949 . S
H594 C571 0.950 . S
H595 C573 0.950 . S
C596 C597 1.350 . S
C596 C598 1.327 1_556 S
C596 H621 0.949 1_556 S
C597 C596 1.350 . S
C597 C613 1.349 . S
C598 C596 1.327 1_554 S
C598 C617 1.429 1_554 S
C598 H622 0.950 . S
C599 C616 1.574 . S
C599 C618 1.368 . S
C599 H623 0.949 . S
H600 C604 0.949 . S
C601 C602 1.350 . S
C601 C603 1.327 1_554 S
C601 H624 0.949 1_554 S
C602 C601 1.350 . S
C602 C614 1.349 . S
C603 C601 1.327 1_556 S
C603 C619 1.429 1_556 S
C603 H625 0.950 . S
C604 H600 0.949 . S
C604 C612 1.574 . S
C604 C620 1.368 . S
H605 C613 0.950 . S
H606 C611 0.950 . S
H607 C612 0.949 . S
H608 C614 0.950 . S
H609 C615 0.950 . S
H610 C616 0.949 . S
C611 H606 0.950 . S
C611 C613 1.327 . S
C611 C617 1.429 . S
C612 C604 1.574 . S
C612 H607 0.949 . S
C612 C618 1.368 1_554 S
C613 C597 1.349 . S
C613 H605 0.950 . S
C613 C611 1.327 . S
C614 C602 1.349 . S
C614 H608 0.950 . S
C614 C615 1.327 . S
C615 H609 0.950 . S
C615 C614 1.327 . S
C615 C619 1.429 . S
C616 C599 1.574 . S
C616 H610 0.949 . S
C616 C620 1.368 1_556 S
C617 C598 1.429 1_556 S
C617 C611 1.429 . S
C617 C618 1.523 . S
C618 C599 1.368 . S
C618 C612 1.368 1_556 S
C618 C617 1.523 . S
C619 C603 1.429 1_554 S
C619 C615 1.429 . S
C619 C620 1.523 . S
C620 C604 1.368 . S
C620 C616 1.368 1_554 S
C620 C619 1.523 . S
H621 C596 0.949 1_554 S
H622 C598 0.950 . S
H623 C599 0.949 . S
H624 C601 0.949 1_556 S
H625 C603 0.950 . S
C626 C627 1.349 . S
C626 C628 1.327 . S
C626 H651 0.950 . S
C627 C626 1.349 . S
C627 C643 1.349 . S
C628 C626 1.327 . S
C628 C647 1.429 . S
C628 H652 0.950 . S
C629 C646 1.574 . S
C629 C648 1.368 . S
C629 H653 0.949 . S
H630 C634 0.949 . S
C631 C632 1.349 . S
C631 C633 1.327 . S
C631 H654 0.950 . S
C632 C631 1.349 . S
C632 C644 1.349 . S
C633 C631 1.327 . S
C633 C649 1.429 . S
C633 H655 0.950 . S
C634 H630 0.949 . S
C634 C642 1.574 . S
C634 C650 1.368 . S
H635 C643 0.950 . S
H636 C641 0.950 . S
H637 C642 0.949 . S
H638 C644 0.950 . S
H639 C645 0.950 . S
H640 C646 0.949 . S
C641 H636 0.950 . S
C641 C643 1.327 . S
C641 C647 1.429 . S
C642 C634 1.574 . S
C642 H637 0.949 . S
C642 C648 1.368 . S
C643 C627 1.349 . S
C643 H635 0.950 . S
C643 C641 1.327 . S
C644 C632 1.349 . S
C644 H638 0.950 . S
C644 C645 1.327 . S
C645 H639 0.950 . S
C645 C644 1.327 . S
C645 C649 1.429 . S
C646 C629 1.574 . S
C646 H640 0.949 . S
C646 C650 1.368 . S
C647 C628 1.429 . S
C647 C641 1.429 . S
C647 C648 1.523 . S
C648 C629 1.368 . S
C648 C642 1.368 . S
C648 C647 1.523 . S
C649 C633 1.429 . S
C649 C645 1.429 . S
C649 C650 1.523 . S
C650 C634 1.368 . S
C650 C646 1.368 . S
C650 C649 1.523 . S
H651 C626 0.950 . S
H652 C628 0.950 . S
H653 C629 0.949 . S
H654 C631 0.950 . S
H655 C633 0.950 . S
C656 C657 1.349 . S
C656 C658 1.327 . S
C656 H681 0.950 . S
C657 C656 1.349 . S
C657 C673 1.349 . S
C658 C656 1.327 . S
C658 C677 1.429 . S
C658 H682 0.950 . S
C659 C676 1.574 . S
C659 C678 1.368 . S
C659 H683 0.949 . S
H660 C664 0.949 . S
C661 C662 1.349 . S
C661 C663 1.327 . S
C661 H684 0.950 . S
C662 C661 1.349 . S
C662 C674 1.349 . S
C663 C661 1.327 . S
C663 C679 1.429 . S
C663 H685 0.950 . S
C664 H660 0.949 . S
C664 C672 1.574 . S
C664 C680 1.368 . S
H665 C673 0.950 . S
H666 C671 0.950 . S
H667 C672 0.949 . S
H668 C674 0.950 . S
H669 C675 0.950 . S
H670 C676 0.949 . S
C671 H666 0.950 . S
C671 C673 1.327 . S
C671 C677 1.429 . S
C672 C664 1.574 . S
C672 H667 0.949 . S
C672 C678 1.368 . S
C673 C657 1.349 . S
C673 H665 0.950 . S
C673 C671 1.327 . S
C674 C662 1.349 . S
C674 H668 0.950 . S
C674 C675 1.327 . S
C675 H669 0.950 . S
C675 C674 1.327 . S
C675 C679 1.429 . S
C676 C659 1.574 . S
C676 H670 0.949 . S
C676 C680 1.368 . S
C677 C658 1.429 . S
C677 C671 1.429 . S
C677 C678 1.523 . S
C678 C659 1.368 . S
C678 C672 1.368 . S
C678 C677 1.523 . S
C679 C663 1.429 . S
C679 C675 1.429 . S
C679 C680 1.523 . S
C680 C664 1.368 . S
C680 C676 1.368 . S
C680 C679 1.523 . S
H681 C656 0.950 . S
H682 C658 0.950 . S
H683 C659 0.949 . S
H684 C661 0.950 . S
H685 C663 0.950 . S
C686 C687 1.349 . S
C686 C688 1.327 . S
C686 H711 0.950 . S
C687 C686 1.349 . S
C687 C703 1.349 . S
C688 C686 1.327 . S
C688 C707 1.429 . S
C688 H712 0.950 . S
C689 C706 1.574 . S
C689 C708 1.368 . S
C689 H713 0.949 . S
H690 C694 0.949 . S
C691 C692 1.349 . S
C691 C693 1.327 . S
C691 H714 0.950 . S
C692 C691 1.349 . S
C692 C704 1.349 . S
C693 C691 1.327 . S
C693 C709 1.429 . S
C693 H715 0.950 . S
C694 H690 0.949 . S
C694 C702 1.574 . S
C694 C710 1.368 . S
H695 C703 0.950 . S
H696 C701 0.950 . S
H697 C702 0.949 . S
H698 C704 0.950 . S
H699 C705 0.950 . S
H700 C706 0.949 . S
C701 H696 0.950 . S
C701 C703 1.327 . S
C701 C707 1.429 . S
C702 C694 1.574 . S
C702 H697 0.949 . S
C702 C708 1.368 . S
C703 C687 1.349 . S
C703 H695 0.950 . S
C703 C701 1.327 . S
C704 C692 1.349 . S
C704 H698 0.950 . S
C704 C705 1.327 . S
C705 H699 0.950 . S
C705 C704 1.327 . S
C705 C709 1.429 . S
C706 C689 1.574 . S
C706 H700 0.949 . S
C706 C710 1.368 . S
C707 C688 1.429 . S
C707 C701 1.429 . S
C707 C708 1.523 . S
C708 C689 1.368 . S
C708 C702 1.368 . S
C708 C707 1.523 . S
C709 C693 1.429 . S
C709 C705 1.429 . S
C709 C710 1.523 . S
C710 C694 1.368 . S
C710 C706 1.368 . S
C710 C709 1.523 . S
H711 C686 0.950 . S
H712 C688 0.950 . S
H713 C689 0.949 . S
H714 C691 0.950 . S
H715 C693 0.950 . S
C716 C717 1.349 . S
C716 C718 1.327 . S
C716 H741 0.950 . S
C717 C716 1.349 . S
C717 C733 1.349 . S
C718 C716 1.327 . S
C718 C737 1.429 . S
C718 H742 0.950 . S
C719 C736 1.574 1_655 S
C719 C738 1.368 . S
C719 H743 0.949 . S
H720 C724 0.949 . S
C721 C722 1.349 . S
C721 C723 1.327 . S
C721 H744 0.950 . S
C722 C721 1.349 . S
C722 C734 1.349 . S
C723 C721 1.327 . S
C723 C739 1.429 . S
C723 H745 0.950 . S
C724 H720 0.949 . S
C724 C732 1.574 1_455 S
C724 C740 1.368 . S
H725 C733 0.950 . S
H726 C731 0.950 . S
H727 C732 0.949 . S
H728 C734 0.950 . S
H729 C735 0.950 . S
H730 C736 0.949 . S
C731 H726 0.950 . S
C731 C733 1.327 . S
C731 C737 1.429 . S
C732 C724 1.574 1_655 S
C732 H727 0.949 . S
C732 C738 1.368 . S
C733 C717 1.349 . S
C733 H725 0.950 . S
C733 C731 1.327 . S
C734 C722 1.349 . S
C734 H728 0.950 . S
C734 C735 1.327 . S
C735 H729 0.950 . S
C735 C734 1.327 . S
C735 C739 1.429 . S
C736 C719 1.574 1_455 S
C736 H730 0.949 . S
C736 C740 1.368 . S
C737 C718 1.429 . S
C737 C731 1.429 . S
C737 C738 1.523 . S
C738 C719 1.368 . S
C738 C732 1.368 . S
C738 C737 1.523 . S
C739 C723 1.429 . S
C739 C735 1.429 . S
C739 C740 1.523 . S
C740 C724 1.368 . S
C740 C736 1.368 . S
C740 C739 1.523 . S
H741 C716 0.950 . S
H742 C718 0.950 . S
H743 C719 0.949 . S
H744 C721 0.950 . S
H745 C723 0.950 . S
C746 C747 1.349 . S
C746 C748 1.327 . S
C746 H771 0.950 . S
C747 C746 1.349 . S
C747 C763 1.349 . S
C748 C746 1.327 . S
C748 C767 1.429 . S
C748 H772 0.950 . S
C749 C766 1.574 1_655 S
C749 C768 1.368 . S
C749 H773 0.949 . S
H750 C754 0.949 . S
C751 C752 1.349 . S
C751 C753 1.327 . S
C751 H774 0.950 . S
C752 C751 1.349 . S
C752 C764 1.349 . S
C753 C751 1.327 . S
C753 C769 1.429 . S
C753 H775 0.950 . S
C754 H750 0.949 . S
C754 C762 1.574 1_455 S
C754 C770 1.368 . S
H755 C763 0.950 . S
H756 C761 0.950 . S
H757 C762 0.949 . S
H758 C764 0.950 . S
H759 C765 0.950 . S
H760 C766 0.949 . S
C761 H756 0.950 . S
C761 C763 1.327 . S
C761 C767 1.429 . S
C762 C754 1.574 1_655 S
C762 H757 0.949 . S
C762 C768 1.368 . S
C763 C747 1.349 . S
C763 H755 0.950 . S
C763 C761 1.327 . S
C764 C752 1.349 . S
C764 H758 0.950 . S
C764 C765 1.327 . S
C765 H759 0.950 . S
C765 C764 1.327 . S
C765 C769 1.429 . S
C766 C749 1.574 1_455 S
C766 H760 0.949 . S
C766 C770 1.368 . S
C767 C748 1.429 . S
C767 C761 1.429 . S
C767 C768 1.523 . S
C768 C749 1.368 . S
C768 C762 1.368 . S
C768 C767 1.523 . S
C769 C753 1.429 . S
C769 C765 1.429 . S
C769 C770 1.523 . S
C770 C754 1.368 . S
C770 C766 1.368 . S
C770 C769 1.523 . S
H771 C746 0.950 . S
H772 C748 0.950 . S
H773 C749 0.949 . S
H774 C751 0.950 . S
H775 C753 0.950 . S
C776 C777 1.349 1_556 S
C776 C778 1.327 . S
C776 H801 0.950 . S
C777 C776 1.349 1_554 S
C777 C793 1.349 . S
C778 C776 1.327 . S
C778 C797 1.429 1_556 S
C778 H802 0.950 . S
C779 C796 1.574 . S
C779 C798 1.368 . S
C779 H803 0.949 . S
H780 C784 0.949 . S
C781 C782 1.349 1_554 S
C781 C783 1.327 . S
C781 H804 0.950 . S
C782 C781 1.349 1_556 S
C782 C794 1.349 . S
C783 C781 1.327 . S
C783 C799 1.429 1_554 S
C783 H805 0.950 . S
C784 H780 0.949 . S
C784 C792 1.574 . S
C784 C800 1.368 . S
H785 C793 0.950 . S
H786 C791 0.950 . S
H787 C792 0.949 . S
H788 C794 0.950 . S
H789 C795 0.950 . S
H790 C796 0.949 . S
C791 H786 0.950 . S
C791 C793 1.327 . S
C791 C797 1.429 . S
C792 C784 1.574 . S
C792 H787 0.949 . S
C792 C798 1.368 1_556 S
C793 C777 1.349 . S
C793 H785 0.950 . S
C793 C791 1.327 . S
C794 C782 1.349 . S
C794 H788 0.950 . S
C794 C795 1.327 . S
C795 H789 0.950 . S
C795 C794 1.327 . S
C795 C799 1.429 . S
C796 C779 1.574 . S
C796 H790 0.949 . S
C796 C800 1.368 1_554 S
C797 C778 1.429 1_554 S
C797 C791 1.429 . S
C797 C798 1.523 . S
C798 C779 1.368 . S
C798 C792 1.368 1_554 S
C798 C797 1.523 . S
C799 C783 1.429 1_556 S
C799 C795 1.429 . S
C799 C800 1.523 . S
C800 C784 1.368 . S
C800 C796 1.368 1_556 S
C800 C799 1.523 . S
H801 C776 0.950 . S
H802 C778 0.950 . S
H803 C779 0.949 . S
H804 C781 0.950 . S
H805 C783 0.950 . S
C806 C807 1.349 . S
C806 C808 1.327 . S
C806 H831 0.950 . S
C807 C806 1.349 . S
C807 C823 1.349 . S
C808 C806 1.327 . S
C808 C827 1.429 . S
C808 H832 0.950 . S
C809 C826 1.574 . S
C809 C828 1.368 . S
C809 H833 0.949 . S
H810 C814 0.949 . S
C811 C812 1.349 . S
C811 C813 1.327 . S
C811 H834 0.950 . S
C812 C811 1.349 . S
C812 C824 1.349 . S
C813 C811 1.327 . S
C813 C829 1.429 . S
C813 H835 0.950 . S
C814 H810 0.949 . S
C814 C822 1.574 . S
C814 C830 1.368 . S
H815 C823 0.950 . S
H816 C821 0.950 . S
H817 C822 0.949 . S
H818 C824 0.950 . S
H819 C825 0.950 . S
H820 C826 0.949 . S
C821 H816 0.950 . S
C821 C823 1.327 . S
C821 C827 1.429 . S
C822 C814 1.574 . S
C822 H817 0.949 . S
C822 C828 1.368 . S
C823 C807 1.349 . S
C823 H815 0.950 . S
C823 C821 1.327 . S
C824 C812 1.349 . S
C824 H818 0.950 . S
C824 C825 1.327 . S
C825 H819 0.950 . S
C825 C824 1.327 . S
C825 C829 1.429 . S
C826 C809 1.574 . S
C826 H820 0.949 . S
C826 C830 1.368 . S
C827 C808 1.429 . S
C827 C821 1.429 . S
C827 C828 1.523 . S
C828 C809 1.368 . S
C828 C822 1.368 . S
C828 C827 1.523 . S
C829 C813 1.429 . S
C829 C825 1.429 . S
C829 C830 1.523 . S
C830 C814 1.368 . S
C830 C826 1.368 . S
C830 C829 1.523 . S
H831 C806 0.950 . S
H832 C808 0.950 . S
H833 C809 0.949 . S
H834 C811 0.950 . S
H835 C813 0.950 . S
C836 C837 1.349 . S
C836 C838 1.327 . S
C836 H861 0.950 . S
C837 C836 1.349 . S
C837 C853 1.349 1_556 S
C838 C836 1.327 . S
C838 C857 1.429 . S
C838 H862 0.950 . S
C839 C856 1.574 . S
C839 C858 1.368 1_554 S
C839 H863 0.949 . S
H840 C844 0.949 . S
C841 C842 1.349 . S
C841 C843 1.327 . S
C841 H864 0.950 . S
C842 C841 1.349 . S
C842 C854 1.349 1_554 S
C843 C841 1.327 . S
C843 C859 1.429 . S
C843 H865 0.950 . S
C844 H840 0.949 . S
C844 C852 1.574 . S
C844 C860 1.368 1_556 S
H845 C853 0.950 . S
H846 C851 0.950 . S
H847 C852 0.949 . S
H848 C854 0.950 . S
H849 C855 0.950 . S
H850 C856 0.949 . S
C851 H846 0.950 . S
C851 C853 1.327 . S
C851 C857 1.429 1_554 S
C852 C844 1.574 . S
C852 H847 0.949 . S
C852 C858 1.368 . S
C853 C837 1.349 1_554 S
C853 H845 0.950 . S
C853 C851 1.327 . S
C854 C842 1.349 1_556 S
C854 H848 0.950 . S
C854 C855 1.327 . S
C855 H849 0.950 . S
C855 C854 1.327 . S
C855 C859 1.429 1_556 S
C856 C839 1.574 . S
C856 H850 0.949 . S
C856 C860 1.368 . S
C857 C838 1.429 . S
C857 C851 1.429 1_556 S
C857 C858 1.523 . S
C858 C839 1.368 1_556 S
C858 C852 1.368 . S
C858 C857 1.523 . S
C859 C843 1.429 . S
C859 C855 1.429 1_554 S
C859 C860 1.523 . S
C860 C844 1.368 1_554 S
C860 C856 1.368 . S
C860 C859 1.523 . S
H861 C836 0.950 . S
H862 C838 0.950 . S
H863 C839 0.949 . S
H864 C841 0.950 . S
H865 C843 0.950 . S
C866 C867 1.349 . S
C866 C868 1.327 . S
C866 H891 0.950 . S
C867 C866 1.349 . S
C867 C883 1.349 . S
C868 C866 1.327 . S
C868 C887 1.429 . S
C868 H892 0.950 . S
C869 C886 1.574 . S
C869 C888 1.368 . S
C869 H893 0.949 . S
H870 C874 0.949 . S
C871 C872 1.349 . S
C871 C873 1.327 . S
C871 H894 0.950 . S
C872 C871 1.349 . S
C872 C884 1.349 . S
C873 C871 1.327 . S
C873 C889 1.429 . S
C873 H895 0.950 . S
C874 H870 0.949 . S
C874 C882 1.574 . S
C874 C890 1.368 . S
H875 C883 0.950 . S
H876 C881 0.950 . S
H877 C882 0.949 . S
H878 C884 0.950 . S
H879 C885 0.950 . S
H880 C886 0.949 . S
C881 H876 0.950 . S
C881 C883 1.327 . S
C881 C887 1.429 . S
C882 C874 1.574 . S
C882 H877 0.949 . S
C882 C888 1.368 . S
C883 C867 1.349 . S
C883 H875 0.950 . S
C883 C881 1.327 . S
C884 C872 1.349 . S
C884 H878 0.950 . S
C884 C885 1.327 . S
C885 H879 0.950 . S
C885 C884 1.327 . S
C885 C889 1.429 . S
C886 C869 1.574 . S
C886 H880 0.949 . S
C886 C890 1.368 . S
C887 C868 1.429 . S
C887 C881 1.429 . S
C887 C888 1.523 . S
C888 C869 1.368 . S
C888 C882 1.368 . S
C888 C887 1.523 . S
C889 C873 1.429 . S
C889 C885 1.429 . S
C889 C890 1.523 . S
C890 C874 1.368 . S
C890 C886 1.368 . S
C890 C889 1.523 . S
H891 C866 0.950 . S
H892 C868 0.950 . S
H893 C869 0.949 . S
H894 C871 0.950 . S
H895 C873 0.950 . S
C177 C6 1.200 . S
C182 C71 1.237 . S
C207 C49 1.237 . S
C212 C28 1.200 . S
C237 C29 1.237 . S
C242 C53 1.200 . S
C267 C7 1.237 . S
C272 C75 1.200 . S
C297 C159 1.237 . S
C302 C94 1.200 . S
C327 C116 1.200 . S
C332 C137 1.237 . S
C357 C117 1.237 . S
C362 C141 1.200 . S
C387 C95 1.237 . S
C392 C163 1.200 . S
C417 C9 0.486 . S
C422 C50 0.486 . S
C447 C72 0.486 . S
C452 C31 0.486 . S
C477 C97 0.486 . S
C482 C138 0.486 . S
C507 C119 0.486 . S
C512 C160 0.486 . S
C537 C5 2.249 . S
C542 C51 2.249 . S
C567 C27 2.249 . S
C572 C73 2.249 . S
C597 C139 2.249 . S
C602 C93 2.249 . S
C627 C161 2.249 . S
C632 C115 2.249 . S
C657 C8 1.634 . S
C662 C30 1.634 . S
C687 C48 1.634 . S
C692 C70 1.634 . S
C717 C96 1.634 . S
C722 C118 1.634 . S
C747 C158 1.634 . S
C752 C136 1.634 . S
C777 C4 1.390 . S
C782 C140 1.390 . S
C807 C26 1.390 . S
C812 C162 1.390 . S
C837 C52 1.390 . S
C842 C92 1.390 . S
C867 C114 1.390 . S
C872 C74 1.390 . S
