# Generated by pormake.
# Topology ull, (4)-cn, num edge types: 1
# Building blocks:
#     Node 0, Type 0, BuildingBlock: AZAVOO_clean_sbu_0, # of connection points: 4
#     Node 1, Type 0, BuildingBlock: AZAVOO_clean_sbu_0, # of connection points: 4
#     Node 2, Type 0, BuildingBlock: AZAVOO_clean_sbu_0, # of connection points: 4
#     Node 3, Type 0, BuildingBlock: AZAVOO_clean_sbu_0, # of connection points: 4
#     Node 4, Type 0, BuildingBlock: AZAVOO_clean_sbu_0, # of connection points: 4
#     Node 5, Type 0, BuildingBlock: AZAVOO_clean_sbu_0, # of connection points: 4
#     Node 6, Type 0, BuildingBlock: AZAVOO_clean_sbu_0, # of connection points: 4
#     Node 7, Type 0, BuildingBlock: AZAVOO_clean_sbu_0, # of connection points: 4
#     Node 8, Type 0, BuildingBlock: AZAVOO_clean_sbu_0, # of connection points: 4
#     Node 9, Type 0, BuildingBlock: AZAVOO_clean_sbu_0, # of connection points: 4
#     Node 10, Type 0, BuildingBlock: AZAVOO_clean_sbu_0, # of connection points: 4
#     Node 11, Type 0, BuildingBlock: AZAVOO_clean_sbu_0, # of connection points: 4
#     Node 12, Type 0, BuildingBlock: AZAVOO_clean_sbu_0, # of connection points: 4
#     Node 13, Type 0, BuildingBlock: AZAVOO_clean_sbu_0, # of connection points: 4
#     Node 14, Type 0, BuildingBlock: AZAVOO_clean_sbu_0, # of connection points: 4
#     Node 15, Type 0, BuildingBlock: AZAVOO_clean_sbu_0, # of connection points: 4
#     Node 16, Type 0, BuildingBlock: AZAVOO_clean_sbu_0, # of connection points: 4
#     Node 17, Type 0, BuildingBlock: AZAVOO_clean_sbu_0, # of connection points: 4
#     Node 18, Type 0, BuildingBlock: AZAVOO_clean_sbu_0, # of connection points: 4
#     Node 19, Type 0, BuildingBlock: AZAVOO_clean_sbu_0, # of connection points: 4
#     Node 20, Type 0, BuildingBlock: AZAVOO_clean_sbu_0, # of connection points: 4
#     Node 21, Type 0, BuildingBlock: AZAVOO_clean_sbu_0, # of connection points: 4
#     Node 22, Type 0, BuildingBlock: AZAVOO_clean_sbu_0, # of connection points: 4
#     Node 23, Type 0, BuildingBlock: AZAVOO_clean_sbu_0, # of connection points: 4
#     Node 24, Type 0, BuildingBlock: AZAVOO_clean_sbu_0, # of connection points: 4
#     Node 25, Type 0, BuildingBlock: AZAVOO_clean_sbu_0, # of connection points: 4
#     Node 26, Type 0, BuildingBlock: AZAVOO_clean_sbu_0, # of connection points: 4
#     Node 27, Type 0, BuildingBlock: AZAVOO_clean_sbu_0, # of connection points: 4
#     Node 28, Type 0, BuildingBlock: AZAVOO_clean_sbu_0, # of connection points: 4
#     Node 29, Type 0, BuildingBlock: AZAVOO_clean_sbu_0, # of connection points: 4
#     Node 30, Type 0, BuildingBlock: AZAVOO_clean_sbu_0, # of connection points: 4
#     Node 31, Type 0, BuildingBlock: AZAVOO_clean_sbu_0, # of connection points: 4
#     Node 32, Type 0, BuildingBlock: AZAVOO_clean_sbu_0, # of connection points: 4
#     Node 33, Type 0, BuildingBlock: AZAVOO_clean_sbu_0, # of connection points: 4
#     Node 34, Type 0, BuildingBlock: AZAVOO_clean_sbu_0, # of connection points: 4
#     Node 35, Type 0, BuildingBlock: AZAVOO_clean_sbu_0, # of connection points: 4
#     Node 36, Type 0, BuildingBlock: AZAVOO_clean_sbu_0, # of connection points: 4
#     Node 37, Type 0, BuildingBlock: AZAVOO_clean_sbu_0, # of connection points: 4
#     Node 38, Type 0, BuildingBlock: AZAVOO_clean_sbu_0, # of connection points: 4
#     Node 39, Type 0, BuildingBlock: AZAVOO_clean_sbu_0, # of connection points: 4
#     Node 40, Type 0, BuildingBlock: AZAVOO_clean_sbu_0, # of connection points: 4
#     Node 41, Type 0, BuildingBlock: AZAVOO_clean_sbu_0, # of connection points: 4
#     Node 42, Type 0, BuildingBlock: AZAVOO_clean_sbu_0, # of connection points: 4
#     Node 43, Type 0, BuildingBlock: AZAVOO_clean_sbu_0, # of connection points: 4
#     Node 44, Type 0, BuildingBlock: AZAVOO_clean_sbu_0, # of connection points: 4
#     Node 45, Type 0, BuildingBlock: AZAVOO_clean_sbu_0, # of connection points: 4
#     Node 46, Type 0, BuildingBlock: AZAVOO_clean_sbu_0, # of connection points: 4
#     Node 47, Type 0, BuildingBlock: AZAVOO_clean_sbu_0, # of connection points: 4
#     Edge 48, Type (0, 0), BuildingBlock: XIVTED_clean_linker_0, # of connection points: 2
#     Edge 49, Type (0, 0), BuildingBlock: XIVTED_clean_linker_0, # of connection points: 2
#     Edge 50, Type (0, 0), BuildingBlock: XIVTED_clean_linker_0, # of connection points: 2
#     Edge 51, Type (0, 0), BuildingBlock: XIVTED_clean_linker_0, # of connection points: 2
#     Edge 52, Type (0, 0), BuildingBlock: XIVTED_clean_linker_0, # of connection points: 2
#     Edge 53, Type (0, 0), BuildingBlock: XIVTED_clean_linker_0, # of connection points: 2
#     Edge 54, Type (0, 0), BuildingBlock: XIVTED_clean_linker_0, # of connection points: 2
#     Edge 55, Type (0, 0), BuildingBlock: XIVTED_clean_linker_0, # of connection points: 2
#     Edge 56, Type (0, 0), BuildingBlock: XIVTED_clean_linker_0, # of connection points: 2
#     Edge 57, Type (0, 0), BuildingBlock: XIVTED_clean_linker_0, # of connection points: 2
#     Edge 58, Type (0, 0), BuildingBlock: XIVTED_clean_linker_0, # of connection points: 2
#     Edge 59, Type (0, 0), BuildingBlock: XIVTED_clean_linker_0, # of connection points: 2
#     Edge 60, Type (0, 0), BuildingBlock: XIVTED_clean_linker_0, # of connection points: 2
#     Edge 61, Type (0, 0), BuildingBlock: XIVTED_clean_linker_0, # of connection points: 2
#     Edge 62, Type (0, 0), BuildingBlock: XIVTED_clean_linker_0, # of connection points: 2
#     Edge 63, Type (0, 0), BuildingBlock: XIVTED_clean_linker_0, # of connection points: 2
#     Edge 64, Type (0, 0), BuildingBlock: XIVTED_clean_linker_0, # of connection points: 2
#     Edge 65, Type (0, 0), BuildingBlock: XIVTED_clean_linker_0, # of connection points: 2
#     Edge 66, Type (0, 0), BuildingBlock: XIVTED_clean_linker_0, # of connection points: 2
#     Edge 67, Type (0, 0), BuildingBlock: XIVTED_clean_linker_0, # of connection points: 2
#     Edge 68, Type (0, 0), BuildingBlock: XIVTED_clean_linker_0, # of connection points: 2
#     Edge 69, Type (0, 0), BuildingBlock: XIVTED_clean_linker_0, # of connection points: 2
#     Edge 70, Type (0, 0), BuildingBlock: XIVTED_clean_linker_0, # of connection points: 2
#     Edge 71, Type (0, 0), BuildingBlock: XIVTED_clean_linker_0, # of connection points: 2
#     Edge 72, Type (0, 0), BuildingBlock: XIVTED_clean_linker_0, # of connection points: 2
#     Edge 73, Type (0, 0), BuildingBlock: XIVTED_clean_linker_0, # of connection points: 2
#     Edge 74, Type (0, 0), BuildingBlock: XIVTED_clean_linker_0, # of connection points: 2
#     Edge 75, Type (0, 0), BuildingBlock: XIVTED_clean_linker_0, # of connection points: 2
#     Edge 76, Type (0, 0), BuildingBlock: XIVTED_clean_linker_0, # of connection points: 2
#     Edge 77, Type (0, 0), BuildingBlock: XIVTED_clean_linker_0, # of connection points: 2
#     Edge 78, Type (0, 0), BuildingBlock: XIVTED_clean_linker_0, # of connection points: 2
#     Edge 79, Type (0, 0), BuildingBlock: XIVTED_clean_linker_0, # of connection points: 2
#     Edge 80, Type (0, 0), BuildingBlock: XIVTED_clean_linker_0, # of connection points: 2
#     Edge 81, Type (0, 0), BuildingBlock: XIVTED_clean_linker_0, # of connection points: 2
#     Edge 82, Type (0, 0), BuildingBlock: XIVTED_clean_linker_0, # of connection points: 2
#     Edge 83, Type (0, 0), BuildingBlock: XIVTED_clean_linker_0, # of connection points: 2
#     Edge 84, Type (0, 0), BuildingBlock: XIVTED_clean_linker_0, # of connection points: 2
#     Edge 85, Type (0, 0), BuildingBlock: XIVTED_clean_linker_0, # of connection points: 2
#     Edge 86, Type (0, 0), BuildingBlock: XIVTED_clean_linker_0, # of connection points: 2
#     Edge 87, Type (0, 0), BuildingBlock: XIVTED_clean_linker_0, # of connection points: 2
#     Edge 88, Type (0, 0), BuildingBlock: XIVTED_clean_linker_0, # of connection points: 2
#     Edge 89, Type (0, 0), BuildingBlock: XIVTED_clean_linker_0, # of connection points: 2
#     Edge 90, Type (0, 0), BuildingBlock: XIVTED_clean_linker_0, # of connection points: 2
#     Edge 91, Type (0, 0), BuildingBlock: XIVTED_clean_linker_0, # of connection points: 2
#     Edge 92, Type (0, 0), BuildingBlock: XIVTED_clean_linker_0, # of connection points: 2
#     Edge 93, Type (0, 0), BuildingBlock: XIVTED_clean_linker_0, # of connection points: 2
#     Edge 94, Type (0, 0), BuildingBlock: XIVTED_clean_linker_0, # of connection points: 2
#     Edge 95, Type (0, 0), BuildingBlock: XIVTED_clean_linker_0, # of connection points: 2
#     Edge 96, Type (0, 0), BuildingBlock: XIVTED_clean_linker_0, # of connection points: 2
#     Edge 97, Type (0, 0), BuildingBlock: XIVTED_clean_linker_0, # of connection points: 2
#     Edge 98, Type (0, 0), BuildingBlock: XIVTED_clean_linker_0, # of connection points: 2
#     Edge 99, Type (0, 0), BuildingBlock: XIVTED_clean_linker_0, # of connection points: 2
#     Edge 100, Type (0, 0), BuildingBlock: XIVTED_clean_linker_0, # of connection points: 2
#     Edge 101, Type (0, 0), BuildingBlock: XIVTED_clean_linker_0, # of connection points: 2
#     Edge 102, Type (0, 0), BuildingBlock: XIVTED_clean_linker_0, # of connection points: 2
#     Edge 103, Type (0, 0), BuildingBlock: XIVTED_clean_linker_0, # of connection points: 2
#     Edge 104, Type (0, 0), BuildingBlock: XIVTED_clean_linker_0, # of connection points: 2
#     Edge 105, Type (0, 0), BuildingBlock: XIVTED_clean_linker_0, # of connection points: 2
#     Edge 106, Type (0, 0), BuildingBlock: XIVTED_clean_linker_0, # of connection points: 2
#     Edge 107, Type (0, 0), BuildingBlock: XIVTED_clean_linker_0, # of connection points: 2
#     Edge 108, Type (0, 0), BuildingBlock: XIVTED_clean_linker_0, # of connection points: 2
#     Edge 109, Type (0, 0), BuildingBlock: XIVTED_clean_linker_0, # of connection points: 2
#     Edge 110, Type (0, 0), BuildingBlock: XIVTED_clean_linker_0, # of connection points: 2
#     Edge 111, Type (0, 0), BuildingBlock: XIVTED_clean_linker_0, # of connection points: 2
#     Edge 112, Type (0, 0), BuildingBlock: XIVTED_clean_linker_0, # of connection points: 2
#     Edge 113, Type (0, 0), BuildingBlock: XIVTED_clean_linker_0, # of connection points: 2
#     Edge 114, Type (0, 0), BuildingBlock: XIVTED_clean_linker_0, # of connection points: 2
#     Edge 115, Type (0, 0), BuildingBlock: XIVTED_clean_linker_0, # of connection points: 2
#     Edge 116, Type (0, 0), BuildingBlock: XIVTED_clean_linker_0, # of connection points: 2
#     Edge 117, Type (0, 0), BuildingBlock: XIVTED_clean_linker_0, # of connection points: 2
#     Edge 118, Type (0, 0), BuildingBlock: XIVTED_clean_linker_0, # of connection points: 2
#     Edge 119, Type (0, 0), BuildingBlock: XIVTED_clean_linker_0, # of connection points: 2
#     Edge 120, Type (0, 0), BuildingBlock: XIVTED_clean_linker_0, # of connection points: 2
#     Edge 121, Type (0, 0), BuildingBlock: XIVTED_clean_linker_0, # of connection points: 2
#     Edge 122, Type (0, 0), BuildingBlock: XIVTED_clean_linker_0, # of connection points: 2
#     Edge 123, Type (0, 0), BuildingBlock: XIVTED_clean_linker_0, # of connection points: 2
#     Edge 124, Type (0, 0), BuildingBlock: XIVTED_clean_linker_0, # of connection points: 2
#     Edge 125, Type (0, 0), BuildingBlock: XIVTED_clean_linker_0, # of connection points: 2
#     Edge 126, Type (0, 0), BuildingBlock: XIVTED_clean_linker_0, # of connection points: 2
#     Edge 127, Type (0, 0), BuildingBlock: XIVTED_clean_linker_0, # of connection points: 2
#     Edge 128, Type (0, 0), BuildingBlock: XIVTED_clean_linker_0, # of connection points: 2
#     Edge 129, Type (0, 0), BuildingBlock: XIVTED_clean_linker_0, # of connection points: 2
#     Edge 130, Type (0, 0), BuildingBlock: XIVTED_clean_linker_0, # of connection points: 2
#     Edge 131, Type (0, 0), BuildingBlock: XIVTED_clean_linker_0, # of connection points: 2
#     Edge 132, Type (0, 0), BuildingBlock: XIVTED_clean_linker_0, # of connection points: 2
#     Edge 133, Type (0, 0), BuildingBlock: XIVTED_clean_linker_0, # of connection points: 2
#     Edge 134, Type (0, 0), BuildingBlock: XIVTED_clean_linker_0, # of connection points: 2
#     Edge 135, Type (0, 0), BuildingBlock: XIVTED_clean_linker_0, # of connection points: 2
#     Edge 136, Type (0, 0), BuildingBlock: XIVTED_clean_linker_0, # of connection points: 2
#     Edge 137, Type (0, 0), BuildingBlock: XIVTED_clean_linker_0, # of connection points: 2
#     Edge 138, Type (0, 0), BuildingBlock: XIVTED_clean_linker_0, # of connection points: 2
#     Edge 139, Type (0, 0), BuildingBlock: XIVTED_clean_linker_0, # of connection points: 2
#     Edge 140, Type (0, 0), BuildingBlock: XIVTED_clean_linker_0, # of connection points: 2
#     Edge 141, Type (0, 0), BuildingBlock: XIVTED_clean_linker_0, # of connection points: 2
#     Edge 142, Type (0, 0), BuildingBlock: XIVTED_clean_linker_0, # of connection points: 2
#     Edge 143, Type (0, 0), BuildingBlock: XIVTED_clean_linker_0, # of connection points: 2
# Relax obj value: 0.231
# Max RMSD: 0.269
# Mean RMSD: 0.256
data_MOF--net-ull--node1-AZAVOO_clean_sbu_0--edge1-XIVTED_clean_linker_0
_symmetry_space_group_name_H-M    P1
_symmetry_Int_Tables_number       1
_symmetry_cell_setting            triclinic
loop_
_symmetry_equiv_pos_as_xyz
'x, y, z'
_cell_length_a     58.004926
_cell_length_b     60.047201
_cell_length_c     60.04724
_cell_angle_alpha  90.030219
_cell_angle_beta   90.005824
_cell_angle_gamma 90.013673
loop_
_atom_site_label
_atom_site_type_symbol
_atom_site_fract_x
_atom_site_fract_y
_atom_site_fract_z
_atom_type_partial_charge
Mg0 Mg 0.0244 0.34283 0.16716 0.0
O1 O 0.98797 0.34494 0.1518 0.0
O2 O 0.96375 0.34921 0.18047 0.0
Mg3 Mg 0.98351 0.3487 0.21322 0.0
C4 C 0.96764 0.34758 0.15961 0.0
C5 C 0.06339 0.35073 0.13593 0.0
O6 O 0.07179 0.35284 0.15615 0.0
O7 O 0.0243 0.38024 0.17431 0.0
O8 O 0.00032 0.38181 0.20348 0.0
O9 O 0.02146 0.30579 0.17124 0.0
O10 O 0.01124 0.33057 0.19653 0.0
C11 C 0.01394 0.39115 0.18961 0.0
C12 C 0.01294 0.31005 0.19072 0.0
O13 O 0.0419 0.34729 0.13368 0.0
Mg14 Mg 0.59793 0.96368 0.17059 0.0
O15 O 0.63493 0.96506 0.18354 0.0
O16 O 0.66015 0.96365 0.15541 0.0
Mg17 Mg 0.63849 0.96249 0.12368 0.0
C18 C 0.65558 0.96499 0.17616 0.0
C19 C 0.564 0.974 0.21001 0.0
O20 O 0.54892 0.96599 0.19576 0.0
O21 O 0.60137 0.00016 0.16053 0.0
O22 O 0.62652 -0.00213 0.13237 0.0
O23 O 0.59829 0.9262 0.17025 0.0
O24 O 0.60972 0.9477 0.14242 0.0
C25 C 0.61375 0.00922 0.14548 0.0
C26 C 0.60754 0.92808 0.15071 0.0
O27 O 0.58518 0.97427 0.20473 0.0
Mg28 Mg 0.969 0.64426 0.17768 0.0
O29 O 0.00561 0.64425 0.16275 0.0
O30 O 0.03002 0.64292 0.19155 0.0
Mg31 Mg 0.00993 0.64293 0.2241 0.0
C32 C 0.02607 0.6435 0.17064 0.0
C33 C 0.95557 0.64889 0.12709 0.0
O34 O 0.9703 0.66548 0.12799 0.0
O35 O 0.97211 0.60729 0.18611 0.0
O36 O 0.99607 0.60829 0.21532 0.0
O37 O 0.96922 0.68163 0.18051 0.0
O38 O 0.98097 0.65847 0.20667 0.0
C39 C 0.98329 0.59758 0.20167 0.0
C40 C 0.97796 0.67862 0.20013 0.0
O41 O 0.95261 0.63677 0.14419 0.0
Mg42 Mg 0.39041 0.03459 0.16438 0.0
O43 O 0.35368 0.03385 0.17818 0.0
O44 O 0.32807 0.03633 0.15045 0.0
Mg45 Mg 0.34897 0.03815 0.11826 0.0
C46 C 0.33292 0.03442 0.1711 0.0
C47 C 0.42528 0.02435 0.20274 0.0
O48 O 0.43956 0.0333 0.1883 0.0
O49 O 0.38562 -0.00152 0.15342 0.0
O50 O 0.36046 0.0023 0.12543 0.0
O51 O 0.39155 0.07213 0.1646 0.0
O52 O 0.37857 0.05146 0.1368 0.0
C53 C 0.37303 0.99022 0.13806 0.0
C54 C 0.38197 0.07088 0.14516 0.0
O55 O 0.404 0.02316 0.19795 0.0
Mg56 Mg 0.05241 0.65291 0.81392 0.0
O57 O 0.01805 0.65187 0.83308 0.0
O58 O 0.99004 0.64793 0.8078 0.0
Mg59 Mg 0.00586 0.64735 0.77307 0.0
C60 C 0.99678 0.64976 0.82796 0.0
C61 C 0.06984 0.65986 0.86295 0.0
O62 O 0.05312 0.67462 0.86302 0.0
O63 O 0.05033 0.61544 0.80747 0.0
O64 O 0.02274 0.61389 0.78147 0.0
O65 O 0.04949 0.69 0.80982 0.0
O66 O 0.03597 0.66516 0.78605 0.0
C67 C 0.03778 0.60447 0.79383 0.0
C68 C 0.03841 0.6857 0.79159 0.0
O69 O 0.07302 0.64795 0.84572 0.0
Mg70 Mg 0.39855 0.96666 0.82335 0.0
O71 O 0.36229 0.96371 0.80878 0.0
O72 O 0.33648 0.95902 0.83602 0.0
Mg73 Mg 0.35678 0.95911 0.86864 0.0
C74 C 0.34154 0.96122 0.81545 0.0
C75 C 0.4328 0.97945 0.7851 0.0
O76 O 0.44761 0.97059 0.79907 0.0
O77 O 0.38979 0.0021 0.83422 0.0
O78 O 0.36481 0.99593 0.86192 0.0
O79 O 0.40362 0.92943 0.82314 0.0
O80 O 0.38796 0.94868 0.85066 0.0
C81 C 0.3763 0.00915 0.84947 0.0
C82 C 0.39352 0.92971 0.84236 0.0
O83 O 0.41153 0.97958 0.79011 0.0
Mg84 Mg 0.946 0.33569 0.81966 0.0
O85 O 0.98283 0.33774 0.8343 0.0
O86 O 0.00646 0.34098 0.80503 0.0
Mg87 Mg 0.98594 0.34067 0.77274 0.0
C88 C 0.00304 0.33985 0.82601 0.0
C89 C 0.90732 0.3423 0.85118 0.0
O90 O 0.89865 0.34265 0.83095 0.0
O91 O 0.94656 0.37312 0.81254 0.0
O92 O 0.97034 0.37411 0.7832 0.0
O93 O 0.94874 0.29857 0.81597 0.0
O94 O 0.9585 0.32296 0.79016 0.0
C95 C 0.95718 0.3838 0.79725 0.0
C96 C 0.95706 0.30253 0.79636 0.0
O97 O 0.92903 0.3405 0.85337 0.0
Mg98 Mg 0.60193 0.01806 0.83173 0.0
O99 O 0.63739 0.02324 0.81606 0.0
O100 O 0.66398 0.02916 0.84232 0.0
Mg101 Mg 0.6449 0.02781 0.87559 0.0
C102 C 0.65822 0.02679 0.82194 0.0
C103 C 0.56856 0.00885 0.79126 0.0
O104 O 0.55435 0.02099 0.80322 0.0
O105 O 0.61329 0.98311 0.84189 0.0
O106 O 0.6389 0.99059 0.86877 0.0
O107 O 0.59448 0.05487 0.83227 0.0
O108 O 0.61228 0.03628 0.85903 0.0
C109 C 0.6278 0.97679 0.85659 0.0
C110 C 0.60513 0.05494 0.85122 0.0
O111 O 0.58876 0.00511 0.79852 0.0
Mg112 Mg 0.19268 0.02723 0.32256 0.0
O113 O 0.17112 0.99553 0.32328 0.0
O114 O 0.19524 0.96658 0.32398 0.0
Mg115 Mg 0.23205 0.97986 0.31897 0.0
C116 C 0.17488 0.97466 0.32449 0.0
C117 C 0.1422 0.04549 0.32441 0.0
O118 O 0.13971 0.03073 0.30844 0.0
O119 O 0.20459 0.02125 0.35817 0.0
O120 O 0.23204 0.99538 0.35401 0.0
O121 O 0.19227 0.02871 0.28532 0.0
O122 O 0.21866 0.01136 0.30528 0.0
C123 C 0.22099 0.00937 0.366 0.0
C124 C 0.21111 0.01714 0.286 0.0
O125 O 0.16173 0.04761 0.33379 0.0
Mg126 Mg 0.96402 0.17615 0.34162 0.0
O127 O 0.99765 0.15598 0.34168 0.0
O128 O 0.02658 0.18028 0.34552 0.0
Mg129 Mg 0.01188 0.21551 0.34643 0.0
C130 C 0.01911 0.16038 0.34354 0.0
C131 C 0.92135 0.14823 0.34908 0.0
O132 O 0.91378 0.16884 0.35005 0.0
O133 O 0.96697 0.18232 0.37899 0.0
O134 O 0.99504 0.20785 0.38015 0.0
O135 O 0.96585 0.18021 0.30467 0.0
O136 O 0.98096 0.20362 0.32903 0.0
C137 C 0.97982 0.19583 0.38977 0.0
C138 C 0.97757 0.19815 0.30857 0.0
O139 O 0.94281 0.14491 0.34651 0.0
Mg140 Mg 0.80113 0.96805 0.32509 0.0
O141 O 0.81686 0.00273 0.32738 0.0
O142 O 0.78789 0.02707 0.33024 0.0
Mg143 Mg 0.75376 0.00831 0.32635 0.0
C144 C 0.8094 0.02257 0.32983 0.0
C145 C 0.83514 0.93426 0.3446 0.0
O146 O 0.81507 0.92655 0.35124 0.0
O147 O 0.79057 0.97008 0.36153 0.0
O148 O 0.75913 0.99166 0.36039 0.0
O149 O 0.79969 0.96907 0.28779 0.0
O150 O 0.77192 0.98059 0.31009 0.0
C151 C 0.77314 0.97907 0.37094 0.0
C152 C 0.77932 0.97759 0.29014 0.0
O153 O 0.8357 0.95224 0.3335 0.0
Mg154 Mg 0.02532 0.8181 0.34674 0.0
O155 O 0.99029 0.83633 0.34869 0.0
O156 O 0.96391 0.80955 0.35345 0.0
Mg157 Mg 0.9807 0.77537 0.35305 0.0
C158 C 0.96942 0.83004 0.35158 0.0
C159 C 0.04429 0.86649 0.33833 0.0
O160 O 0.02873 0.86616 0.32243 0.0
O161 O 0.02432 0.8113 0.38418 0.0
O162 O 0.99815 0.78398 0.38617 0.0
O163 O 0.02216 0.81391 0.30963 0.0
O164 O 0.00952 0.78987 0.33455 0.0
C165 C 0.0128 0.79698 0.39532 0.0
C166 C 0.01174 0.79533 0.31398 0.0
O167 O 0.04575 0.85004 0.35155 0.0
Mg168 Mg 0.19899 0.96378 0.662 0.0
O169 O 0.1817 -0.0021 0.66291 0.0
O170 O 0.20961 0.02349 0.66161 0.0
Mg171 Mg 0.24459 0.00586 0.66297 0.0
C172 C 0.1883 0.01815 0.66209 0.0
C173 C 0.14629 0.95013 0.66285 0.0
O174 O 0.14552 0.96439 0.67944 0.0
O175 O 0.20841 0.96911 0.6257 0.0
O176 O 0.23895 0.9918 0.62771 0.0
O177 O 0.20121 0.96188 0.69921 0.0
O178 O 0.22799 0.9763 0.67747 0.0
C179 C 0.22512 0.97952 0.61655 0.0
C180 C 0.22114 0.97143 0.69724 0.0
O181 O 0.16519 0.94708 0.6526 0.0
Mg182 Mg 0.02726 0.16742 0.65433 0.0
O183 O 0.99447 0.1461 0.65083 0.0
O184 O 0.96563 0.16957 0.64318 0.0
Mg185 Mg 0.97915 0.20523 0.64332 0.0
C186 C 0.97328 0.14991 0.64642 0.0
C187 C 0.07156 0.14104 0.6519 0.0
O188 O 0.07831 0.16193 0.65222 0.0
O189 O 0.02887 0.17321 0.61677 0.0
O190 O 0.00038 0.19784 0.61196 0.0
O191 O 0.0207 0.17203 0.6908 0.0
O192 O 0.00796 0.1945 0.66445 0.0
C193 C 0.0171 0.18624 0.60438 0.0
C194 C 0.00894 0.18949 0.68524 0.0
O195 O 0.0501 0.13684 0.65207 0.0
Mg196 Mg 0.79468 0.02476 0.66356 0.0
O197 O 0.81165 0.99042 0.66272 0.0
O198 O 0.78338 0.96518 0.66238 0.0
Mg199 Mg 0.74871 0.98308 0.66606 0.0
C200 C 0.80475 0.97026 0.66183 0.0
C201 C 0.84732 0.03802 0.66244 0.0
O202 O 0.84843 0.02359 0.67884 0.0
O203 O 0.78281 0.02059 0.62772 0.0
O204 O 0.75216 -0.0018 0.63103 0.0
O205 O 0.79449 0.02589 0.70093 0.0
O206 O 0.76644 0.01219 0.68027 0.0
C207 C 0.76529 0.01072 0.61938 0.0
C208 C 0.77434 0.01665 0.69976 0.0
O209 O 0.82813 0.04139 0.6528 0.0
Mg210 Mg 0.96597 0.8208 0.64989 0.0
O211 O 0.99915 0.84184 0.64905 0.0
O212 O 0.02826 0.81815 0.6431 0.0
Mg213 Mg 0.0145 0.78266 0.64152 0.0
C214 C 0.02057 0.83784 0.64608 0.0
C215 C 0.92216 0.84805 0.64922 0.0
O216 O 0.91519 0.82739 0.65184 0.0
O217 O 0.96724 0.81588 0.61206 0.0
O218 O 0.99608 0.7913 0.60894 0.0
O219 O 0.97005 0.81522 0.68668 0.0
O220 O 0.98421 0.79327 0.66055 0.0
C221 C 0.98014 0.80319 0.60032 0.0
C222 C 0.98197 0.79778 0.68136 0.0
O223 O 0.94362 0.85177 0.64713 0.0
Mg224 Mg 0.38617 0.17146 0.96223 0.0
O225 O 0.34989 0.18629 0.9591 0.0
O226 O 0.32408 0.1587 0.95674 0.0
Mg227 Mg 0.344 0.126 0.95851 0.0
C228 C 0.32911 0.17939 0.95745 0.0
C229 C 0.42142 0.21015 0.9691 0.0
O230 O 0.43468 0.19592 0.9585 0.0
O231 O 0.37831 0.1629 -0.00149 0.0
O232 O 0.35307 0.13497 0.99463 0.0
O233 O 0.39049 0.16921 0.92501 0.0
O234 O 0.37488 0.14316 0.94622 0.0
C235 C 0.36495 0.14816 0.00679 0.0
C236 C 0.38024 0.15012 0.92667 0.0
O237 O 0.40044 0.20515 0.97254 0.0
Mg238 Mg 0.40156 0.82929 0.02561 0.0
O239 O 0.36558 0.81381 0.028 0.0
O240 O 0.33894 0.84067 0.02968 0.0
Mg241 Mg 0.35822 0.87376 0.02787 0.0
C242 C 0.34459 0.82013 0.02921 0.0
C243 C 0.43687 0.79011 0.02077 0.0
O244 O 0.44995 0.80407 0.03194 0.0
O245 O 0.3945 0.8373 0.98903 0.0
O246 O 0.36827 0.86445 0.99211 0.0
O247 O 0.40466 0.83184 0.06289 0.0
O248 O 0.38928 0.85753 0.04107 0.0
C249 C 0.38082 0.8515 0.98034 0.0
C250 C 0.39405 0.85069 0.06081 0.0
O251 O 0.41628 0.79561 0.01616 0.0
Mg252 Mg 0.18214 0.32997 0.9539 0.0
O253 O 0.16625 0.33011 0.98872 0.0
O254 O 0.1951 0.33291 0.01318 0.0
Mg255 Mg 0.22935 0.33176 0.99442 0.0
C256 C 0.17362 0.33188 0.00867 0.0
C257 C 0.14671 0.34443 0.91885 0.0
O258 O 0.16644 0.3491 0.90917 0.0
O259 O 0.1906 0.36697 0.95724 0.0
O260 O 0.22149 0.36608 0.97957 0.0
O261 O 0.18588 0.29274 0.95358 0.0
O262 O 0.21236 0.31609 0.96577 0.0
C263 C 0.20728 0.3767 0.96724 0.0
C264 C 0.20615 0.29589 0.96207 0.0
O265 O 0.14694 0.33671 0.93853 0.0
Mg266 Mg 0.58666 0.1638 0.03091 0.0
O267 O 0.62232 0.18059 0.03279 0.0
O268 O 0.64911 0.15438 0.03845 0.0
Mg269 Mg 0.63082 0.1208 0.03984 0.0
C270 C 0.64332 0.17468 0.03546 0.0
C271 C 0.57576 0.21521 0.02198 0.0
O272 O 0.59319 0.21893 0.03543 0.0
O273 O 0.59574 0.15211 0.99562 0.0
O274 O 0.622 0.12584 0.00302 0.0
O275 O 0.58187 0.16502 0.06822 0.0
O276 O 0.59923 0.13796 0.04974 0.0
C277 C 0.60995 0.13714 0.98925 0.0
C278 C 0.59324 0.14648 0.06847 0.0
O279 O 0.56981 0.19531 0.01753 0.0
Mg280 Mg 0.81805 0.65852 0.95657 0.0
O281 O 0.83852 0.65648 0.98898 0.0
O282 O 0.81324 0.65311 0.01683 0.0
Mg283 Mg 0.77678 0.65678 0.00264 0.0
C284 C 0.83392 0.65392 0.00958 0.0
C285 C 0.86932 0.66017 0.93981 0.0
O286 O 0.87078 0.67513 0.95573 0.0
O287 O 0.80794 0.62196 0.95953 0.0
O288 O 0.77994 0.62291 0.98515 0.0
O289 O 0.81663 0.69577 0.95803 0.0
O290 O 0.79069 0.67336 0.97284 0.0
C291 C 0.79195 0.61245 0.97069 0.0
C292 C 0.79762 0.69334 0.96909 0.0
O293 O 0.85025 0.65027 0.93651 0.0
Mg294 Mg 0.62034 0.8186 0.97286 0.0
O295 O 0.65694 0.80441 0.97184 0.0
O296 O 0.68239 0.83225 0.96901 0.0
Mg297 Mg 0.66173 0.86461 0.96833 0.0
C298 C 0.67765 0.81155 0.97059 0.0
C299 C 0.58617 0.77904 0.98015 0.0
O300 O 0.57319 0.79181 0.96756 0.0
O301 O 0.62641 0.82939 0.00881 0.0
O302 O 0.65104 0.85774 0.0045 0.0
O303 O 0.61745 0.81876 0.93545 0.0
O304 O 0.63163 0.84626 0.95575 0.0
C305 C 0.63887 0.84498 0.01683 0.0
C306 C 0.62713 0.83817 0.93642 0.0
O307 O 0.6066 0.78521 0.98462 0.0
Mg308 Mg 0.20012 0.66816 0.03826 0.0
O309 O 0.1824 0.66788 0.00441 0.0
O310 O 0.20967 0.66423 0.97842 0.0
Mg311 Mg 0.24499 0.66609 0.99558 0.0
C312 C 0.18851 0.66569 0.98413 0.0
C313 C 0.16687 0.65147 0.07427 0.0
O314 O 0.18712 0.64635 0.08263 0.0
O315 O 0.20886 0.63136 0.03486 0.0
O316 O 0.23912 0.63184 0.01175 0.0
O317 O 0.20304 0.70531 0.03807 0.0
O318 O 0.2294 0.68237 0.02479 0.0
C319 C 0.2254 0.62151 0.02483 0.0
C320 C 0.22287 0.70248 0.02855 0.0
O321 O 0.16598 0.66062 0.05523 0.0
Mg322 Mg 0.78879 0.32684 0.03316 0.0
O323 O 0.80386 0.32641 -0.00195 0.0
O324 O 0.77445 0.32969 0.97428 0.0
Mg325 Mg 0.7406 0.32912 0.99389 0.0
C326 C 0.79602 0.32824 0.97828 0.0
C327 C 0.82489 0.34482 0.06583 0.0
O328 O 0.80542 0.35213 0.0743 0.0
O329 O 0.78086 0.36374 0.02948 0.0
O330 O 0.74901 0.36364 0.00843 0.0
O331 O 0.78481 0.28976 0.03394 0.0
O332 O 0.75815 0.3131 0.02208 0.0
C333 C 0.76405 0.37387 0.02017 0.0
C334 C 0.76438 0.2929 0.02582 0.0
O335 O 0.82429 0.3338 0.04778 0.0
Mg336 Mg 0.53445 0.84038 0.6762 0.0
O337 O 0.50044 0.84028 0.65668 0.0
O338 O 0.47195 0.84479 0.68132 0.0
Mg339 Mg 0.48731 0.84619 0.71628 0.0
C340 C 0.47907 0.84238 0.66135 0.0
C341 C 0.57657 0.84546 0.64688 0.0
O342 O 0.58495 0.84545 0.66721 0.0
O343 O 0.53204 0.87795 0.68188 0.0
O344 O 0.50443 0.87954 0.70787 0.0
O345 O 0.5324 0.80347 0.68139 0.0
O346 O 0.51808 0.82864 0.70434 0.0
C347 C 0.51953 0.88894 0.69555 0.0
C348 C 0.52131 0.80802 0.69954 0.0
O349 O 0.55487 0.84438 0.64428 0.0
Mg350 Mg 0.11908 0.46736 0.66746 0.0
O351 O 0.15553 0.46927 0.68144 0.0
O352 O 0.18172 0.46661 0.65428 0.0
Mg353 Mg 0.16108 0.46291 0.62199 0.0
C354 C 0.17641 0.46907 0.67476 0.0
C355 C 0.08465 0.47733 0.70686 0.0
O356 O 0.07022 0.46631 0.69409 0.0
O357 O 0.12329 0.50307 0.65523 0.0
O358 O 0.14834 0.49875 0.62725 0.0
O359 O 0.11849 0.42995 0.66914 0.0
O360 O 0.13143 0.44959 0.64061 0.0
C361 C 0.13546 0.51104 0.63941 0.0
C362 C 0.12811 0.43048 0.64969 0.0
O363 O 0.10538 0.47985 0.70056 0.0
Mg364 Mg 0.45776 0.15775 0.67948 0.0
O365 O 0.49484 0.1593 0.66574 0.0
O366 O 0.51843 0.15773 0.69515 0.0
Mg367 Mg 0.49731 0.15478 0.72696 0.0
C368 C 0.51508 0.15911 0.67418 0.0
C369 C 0.42201 0.1456 0.6455 0.0
O370 O 0.41268 0.1412 0.66495 0.0
O371 O 0.46148 0.12032 0.6857 0.0
O372 O 0.48496 0.12049 0.7153 0.0
O373 O 0.4573 0.19491 0.68463 0.0
O374 O 0.46832 0.17029 0.70974 0.0
C375 C 0.47284 0.11014 0.70084 0.0
C376 C 0.46535 0.19076 0.70431 0.0
O377 O 0.44272 0.15246 0.64496 0.0
Mg378 Mg 0.90305 0.52575 0.66592 0.0
O379 O 0.86596 0.52556 0.67953 0.0
O380 O 0.84091 0.52895 0.65135 0.0
Mg381 Mg 0.86208 0.52986 0.61939 0.0
C382 C 0.84534 0.52679 0.67207 0.0
C383 C 0.90891 0.51574 0.71823 0.0
O384 O 0.88925 0.52629 0.72064 0.0
O385 O 0.89745 0.48968 0.65524 0.0
O386 O 0.87225 0.49379 0.62732 0.0
O387 O 0.90498 0.56325 0.66617 0.0
O388 O 0.89134 0.54285 0.63848 0.0
C389 C 0.88447 0.48155 0.64011 0.0
C390 C 0.89519 0.5622 0.64682 0.0
O391 O 0.9179 0.51391 0.69901 0.0
Mg392 Mg 0.54249 0.15238 0.31392 0.0
O393 O 0.50615 0.1543 0.32948 0.0
O394 O 0.48113 0.1525 0.30121 0.0
Mg395 Mg 0.50051 0.14867 0.26848 0.0
C396 C 0.48552 0.15418 0.32198 0.0
C397 C 0.55622 0.16111 0.36374 0.0
O398 O 0.54112 0.17726 0.36156 0.0
O399 O 0.53827 0.11488 0.30861 0.0
O400 O 0.51328 0.11452 0.28021 0.0
O401 O 0.54287 0.18942 0.30815 0.0
O402 O 0.53036 0.1645 0.284 0.0
C403 C 0.52609 0.10443 0.29427 0.0
C404 C 0.53372 0.18504 0.28897 0.0
O405 O 0.55932 0.14763 0.3477 0.0
Mg406 Mg 0.89332 0.46802 0.32978 0.0
O407 O 0.85707 0.46742 0.3148 0.0
O408 O 0.83078 0.46571 0.34198 0.0
Mg409 Mg 0.85066 0.46541 0.37481 0.0
C410 C 0.83614 0.46677 0.32138 0.0
C411 C 0.92929 0.47635 0.29207 0.0
O412 O 0.94289 0.46731 0.30705 0.0
O413 O 0.8876 0.50441 0.33931 0.0
O414 O 0.86196 0.50121 0.36695 0.0
O415 O 0.89528 0.43065 0.33072 0.0
O416 O 0.88094 0.45179 0.35753 0.0
C417 C 0.87465 0.51304 0.35419 0.0
C418 C 0.88504 0.43222 0.34981 0.0
O419 O 0.90796 0.47839 0.29634 0.0
Mg420 Mg 0.4641 0.85507 0.31696 0.0
O421 O 0.5001 0.85526 0.33344 0.0
O422 O 0.52552 0.85789 0.30557 0.0
Mg423 Mg 0.50686 0.85829 0.27222 0.0
C424 C 0.52083 0.85662 0.3263 0.0
C425 C 0.44859 0.84753 0.36622 0.0
O426 O 0.46404 0.83159 0.36475 0.0
O427 O 0.46657 0.89235 0.30951 0.0
O428 O 0.49158 0.89232 0.28111 0.0
O429 O 0.4651 0.81787 0.3132 0.0
O430 O 0.4775 0.84181 0.28804 0.0
C431 C 0.47802 0.90253 0.29443 0.0
C432 C 0.47455 0.82147 0.294 0.0
O433 O 0.446 0.86083 0.34996 0.0
Mg434 Mg 0.10048 0.51615 0.32485 0.0
O435 O 0.1375 0.51665 0.31155 0.0
O436 O 0.16235 0.52059 0.33974 0.0
Mg437 Mg 0.14086 0.52206 0.37157 0.0
C438 C 0.15806 0.51821 0.31902 0.0
C439 C 0.06843 0.50952 0.28321 0.0
O440 O 0.05504 0.52293 0.29469 0.0
O441 O 0.10632 0.48033 0.33653 0.0
O442 O 0.13076 0.48572 0.36487 0.0
O443 O 0.098 0.55358 0.32389 0.0
O444 O 0.11113 0.53396 0.35236 0.0
C445 C 0.11889 0.47289 0.35233 0.0
C446 C 0.10726 0.55306 0.34349 0.0
O447 O 0.08792 0.50402 0.29114 0.0
Mg448 Mg 0.70099 0.52678 0.82139 0.0
O449 O 0.68056 0.49447 0.82208 0.0
O450 O 0.70555 0.46636 0.82503 0.0
Mg451 Mg 0.7421 0.48066 0.8215 0.0
C452 C 0.68494 0.47379 0.82427 0.0
C453 C 0.67065 0.56442 0.84055 0.0
O454 O 0.6914 0.57138 0.84593 0.0
O455 O 0.71084 0.52222 0.85778 0.0
O456 O 0.73929 0.49709 0.85599 0.0
O457 O 0.70267 0.52699 0.78416 0.0
O458 O 0.72851 0.51125 0.80605 0.0
C459 C 0.72702 0.51102 0.8669 0.0
C460 C 0.72177 0.51599 0.78621 0.0
O461 O 0.66853 0.546 0.83036 0.0
Mg462 Mg 0.47819 0.67611 0.85423 0.0
O463 O 0.51391 0.65932 0.85438 0.0
O464 O 0.53971 0.6869 0.85695 0.0
Mg465 Mg 0.52135 0.72043 0.85733 0.0
C466 C 0.53473 0.66622 0.8557 0.0
C467 C 0.43867 0.64637 0.86579 0.0
O468 O 0.43139 0.66682 0.86921 0.0
O469 O 0.48096 0.68353 0.89138 0.0
O470 O 0.50604 0.71185 0.89152 0.0
O471 O 0.47909 0.67938 0.81711 0.0
O472 O 0.49193 0.70474 0.8407 0.0
C473 C 0.49242 0.69853 0.90166 0.0
C474 C 0.48886 0.69849 0.82043 0.0
O475 O 0.45957 0.64345 0.86018 0.0
Mg476 Mg 0.30704 0.47566 0.83266 0.0
O477 O 0.3251 0.509 0.83755 0.0
O478 O 0.29792 0.53533 0.83752 0.0
Mg479 Mg 0.26327 0.51926 0.82849 0.0
C480 C 0.31891 0.52927 0.83962 0.0
C481 C 0.35859 0.46054 0.83753 0.0
O482 O 0.36146 0.47598 0.82229 0.0
O483 O 0.29152 0.47813 0.86736 0.0
O484 O 0.26191 0.50153 0.86238 0.0
O485 O 0.31102 0.47682 0.79553 0.0
O486 O 0.28142 0.49049 0.81409 0.0
C487 C 0.27338 0.48793 0.87443 0.0
C488 C 0.29124 0.48683 0.79525 0.0
O489 O 0.33855 0.45712 0.84539 0.0
Mg490 Mg 0.53018 0.32227 0.85152 0.0
O491 O 0.49792 0.34447 0.85374 0.0
O492 O 0.46786 0.32168 0.85876 0.0
Mg493 Mg 0.48019 0.28567 0.85847 0.0
C494 C 0.47636 0.34118 0.85669 0.0
C495 C 0.55201 0.36879 0.84281 0.0
O496 O 0.53469 0.36961 0.82873 0.0
O497 O 0.52891 0.31579 0.88905 0.0
O498 O 0.49931 0.29203 0.89125 0.0
O499 O 0.52582 0.31885 0.81461 0.0
O500 O 0.51059 0.29614 0.83948 0.0
C501 C 0.51572 0.30297 0.9003 0.0
C502 C 0.51302 0.30173 0.81894 0.0
O503 O 0.55405 0.35199 0.8555 0.0
Mg504 Mg 0.69147 0.46955 0.1699 0.0
O505 O 0.6752 0.50409 0.16975 0.0
O506 O 0.70393 0.52876 0.16737 0.0
Mg507 Mg 0.73841 0.51024 0.16966 0.0
C508 C 0.68246 0.52408 0.16807 0.0
C509 C 0.658 0.43666 0.14844 0.0
O510 O 0.6782 0.43008 0.14104 0.0
O511 O 0.70113 0.47368 0.13348 0.0
O512 O 0.73262 0.49518 0.13483 0.0
O513 O 0.6937 0.46869 0.20716 0.0
O514 O 0.72088 0.48162 0.18496 0.0
C515 C 0.71829 0.48311 0.12405 0.0
C516 C 0.71394 0.47752 0.20487 0.0
O517 O 0.65705 0.45364 0.16103 0.0
Mg518 Mg 0.52832 0.67869 0.15276 0.0
O519 O 0.49326 0.66086 0.14985 0.0
O520 O 0.4672 0.68745 0.14306 0.0
Mg521 Mg 0.48468 0.72142 0.14263 0.0
C522 C 0.47254 0.66703 0.14602 0.0
C523 C 0.56986 0.64958 0.15004 0.0
O524 O 0.57745 0.67021 0.14988 0.0
O525 O 0.52964 0.68406 0.11518 0.0
O526 O 0.50395 0.71149 0.11071 0.0
O527 O 0.52322 0.68385 0.1893 0.0
O528 O 0.51239 0.70757 0.16322 0.0
C529 C 0.51903 0.69808 0.10289 0.0
C530 C 0.51335 0.70246 0.184 0.0
O531 O 0.54822 0.64628 0.1504 0.0
Mg532 Mg 0.30692 0.52529 0.17374 0.0
O533 O 0.32699 0.49278 0.17144 0.0
O534 O 0.3016 0.46529 0.16644 0.0
Mg535 Mg 0.26517 0.47984 0.17011 0.0
C536 C 0.32232 0.47232 0.16798 0.0
C537 C 0.33805 0.5628 0.15562 0.0
O538 O 0.31761 0.56928 0.14876 0.0
O539 O 0.2976 0.52311 0.13699 0.0
O540 O 0.26888 0.49821 0.13669 0.0
O541 O 0.30446 0.52328 0.21091 0.0
O542 O 0.27886 0.50928 0.18762 0.0
C543 C 0.28148 0.51267 0.12688 0.0
C544 C 0.2852 0.51277 0.20784 0.0
O545 O 0.33974 0.54471 0.16644 0.0
Mg546 Mg 0.47133 0.31627 0.13967 0.0
O547 O 0.50567 0.3355 0.13714 0.0
O548 O 0.53295 0.30976 0.13155 0.0
Mg549 Mg 0.51715 0.27509 0.13174 0.0
C550 C 0.5267 0.33001 0.13385 0.0
C551 C 0.4525 0.36421 0.14914 0.0
O552 O 0.4692 0.36377 0.16393 0.0
O553 O 0.47148 0.30987 0.10215 0.0
O554 O 0.49854 0.2835 0.09911 0.0
O555 O 0.47587 0.31229 0.17651 0.0
O556 O 0.48841 0.28842 0.15131 0.0
C557 C 0.48318 0.29609 0.0905 0.0
C558 C 0.4869 0.29411 0.17191 0.0
O559 O 0.45007 0.34784 0.13593 0.0
Mg560 Mg 0.89785 0.67166 0.4677 0.0
O561 O 0.86097 0.68501 0.4659 0.0
O562 O 0.83587 0.65702 0.46203 0.0
Mg563 Mg 0.85722 0.62506 0.46189 0.0
C564 C 0.84036 0.67773 0.46398 0.0
C565 C 0.93062 0.71252 0.47703 0.0
O566 O 0.94552 0.69996 0.46636 0.0
O567 O 0.89093 0.66079 0.50357 0.0
O568 O 0.86637 0.63251 0.49831 0.0
O569 O 0.90125 0.67163 0.43028 0.0
O570 O 0.88751 0.64378 0.45042 0.0
C571 C 0.87802 0.64529 0.51109 0.0
C572 C 0.89185 0.6521 0.43118 0.0
O573 O 0.9101 0.70559 0.47964 0.0
Mg574 Mg 0.89701 0.32174 0.52843 0.0
O575 O 0.86044 0.30771 0.53174 0.0
O576 O 0.83561 0.33576 0.53673 0.0
Mg577 Mg 0.85649 0.36798 0.53669 0.0
C578 C 0.83995 0.31504 0.53446 0.0
C579 C 0.93092 0.28341 0.51669 0.0
O580 O 0.94516 0.29725 0.52661 0.0
O581 O 0.88811 0.33297 0.49312 0.0
O582 O 0.8641 0.36136 0.49982 0.0
O583 O 0.90263 0.32144 0.56563 0.0
O584 O 0.88722 0.34918 0.54654 0.0
C585 C 0.87504 0.3487 0.48636 0.0
C586 C 0.89293 0.34086 0.56544 0.0
O587 O 0.90971 0.28847 0.51541 0.0
Mg588 Mg 0.69142 0.82538 0.46214 0.0
O589 O 0.67595 0.82656 0.49719 0.0
O590 O 0.7054 0.82904 0.52106 0.0
Mg591 Mg 0.73934 0.82667 0.50195 0.0
C592 C 0.68381 0.82846 0.51697 0.0
C593 C 0.65743 0.84329 0.42778 0.0
O594 O 0.67771 0.84854 0.41955 0.0
O595 O 0.70123 0.86205 0.4648 0.0
O596 O 0.73257 0.86097 0.48652 0.0
O597 O 0.69402 0.78798 0.46229 0.0
O598 O 0.72118 0.8108 0.47407 0.0
C599 C 0.71837 0.87161 0.4742 0.0
C600 C 0.71441 0.79072 0.47068 0.0
O601 O 0.65658 0.83351 0.44652 0.0
Mg602 Mg 0.10586 0.66679 0.52067 0.0
O603 O 0.14229 0.68151 0.52117 0.0
O604 O 0.16822 0.65415 0.52432 0.0
Mg605 Mg 0.14808 0.62149 0.52547 0.0
C606 C 0.16313 0.67474 0.52242 0.0
C607 C 0.07141 0.70653 0.51407 0.0
O608 O 0.05813 0.69361 0.52619 0.0
O609 O 0.11183 0.65584 0.4846 0.0
O610 O 0.13716 0.62816 0.48941 0.0
O611 O 0.10353 0.667 0.55812 0.0
O612 O 0.11775 0.63945 0.5379 0.0
C613 C 0.12476 0.64046 0.47684 0.0
C614 C 0.11356 0.64777 0.5572 0.0
O615 O 0.09171 0.70014 0.50933 0.0
Mg616 Mg 0.31124 0.15944 0.4572 0.0
O617 O 0.32687 0.15805 0.49226 0.0
O618 O 0.29725 0.15434 0.51576 0.0
Mg619 Mg 0.26325 0.15617 0.49668 0.0
C620 C 0.31886 0.15558 0.51192 0.0
C621 C 0.34619 0.16049 0.42096 0.0
O622 O 0.32704 0.16896 0.41288 0.0
O623 O 0.30265 0.12235 0.45884 0.0
O624 O 0.27115 0.12248 0.48036 0.0
O625 O 0.30781 0.19662 0.45822 0.0
O626 O 0.28102 0.17306 0.46931 0.0
C627 C 0.28561 0.11232 0.46791 0.0
C628 C 0.28745 0.19333 0.46642 0.0
O629 O 0.34619 0.15359 0.44096 0.0
Mg630 Mg 0.10764 0.31852 0.47461 0.0
O631 O 0.14325 0.30308 0.46938 0.0
O632 O 0.16925 0.32981 0.46299 0.0
Mg633 Mg 0.14986 0.36288 0.46405 0.0
C634 C 0.16392 0.30934 0.46556 0.0
C635 C 0.07519 0.27737 0.48359 0.0
O636 O 0.06173 0.28804 0.46961 0.0
O637 O 0.11902 0.32949 0.50935 0.0
O638 O 0.14411 0.35664 0.50133 0.0
O639 O 0.10006 0.31828 0.43775 0.0
O640 O 0.11761 0.34555 0.4558 0.0
C641 C 0.13328 0.34454 0.51537 0.0
C642 C 0.11059 0.33728 0.43727 0.0
O643 O 0.09476 0.28555 0.48843 0.0
Mg644 Mg 0.68837 0.16943 0.53729 0.0
O645 O 0.67032 0.17087 0.50353 0.0
O646 O 0.69748 0.16633 0.47755 0.0
Mg647 Mg 0.73293 0.16608 0.49435 0.0
C648 C 0.67641 0.16867 0.48323 0.0
C649 C 0.65497 0.16531 0.57583 0.0
O650 O 0.67499 0.16924 0.58529 0.0
O651 O 0.69477 0.13227 0.53278 0.0
O652 O 0.72481 0.13178 0.50939 0.0
O653 O 0.69359 0.20633 0.53816 0.0
O654 O 0.71836 0.18234 0.52396 0.0
C655 C 0.71053 0.12181 0.52219 0.0
C656 C 0.71316 0.20267 0.52843 0.0
O657 O 0.65408 0.16376 0.55475 0.0
Mg658 Mg 0.30375 0.82835 0.5289 0.0
O659 O 0.32445 0.82915 0.49663 0.0
O660 O 0.29927 0.8325 0.46868 0.0
Mg661 Mg 0.26264 0.82937 0.48278 0.0
C662 C 0.31993 0.83154 0.47599 0.0
C663 C 0.35496 0.82724 0.54648 0.0
O664 O 0.35703 0.81196 0.53094 0.0
O665 O 0.29464 0.86484 0.52431 0.0
O666 O 0.26625 0.86393 0.49904 0.0
O667 O 0.30179 0.79117 0.52883 0.0
O668 O 0.27627 0.81336 0.51301 0.0
C669 C 0.2789 0.87447 0.51295 0.0
C670 C 0.28285 0.79343 0.51761 0.0
O671 O 0.3357 0.83699 0.5491 0.0
H672 H 0.02431 0.50866 0.2669 0.0
H673 H 0.05469 0.4123 0.18047 0.0
H674 H 0.09327 0.48562 0.25277 0.0
H675 H 0.98736 0.42314 0.20902 0.0
H676 H 0.06773 0.44741 0.19706 0.0
H677 H 0.0099 0.4856 0.23627 0.0
C678 C 0.03647 0.49909 0.25712 0.0
C679 C 0.05996 0.49868 0.26268 0.0
C680 C 0.04995 0.44234 0.19922 0.0
C681 C 0.04356 0.4723 0.22778 0.0
C682 C 0.04246 0.42241 0.18962 0.0
C683 C 0.02006 0.41463 0.19379 0.0
C684 C 0.03486 0.45452 0.2129 0.0
C685 C 0.00492 0.42836 0.20578 0.0
C686 C 0.02822 0.48592 0.23969 0.0
C687 C 0.07495 0.48607 0.24933 0.0
N688 N 0.01269 0.44748 0.2152 0.0
N689 N 0.06646 0.47314 0.23268 0.0
H690 H 0.51977 0.98426 0.22233 0.0
H691 H 0.56327 0.07841 0.30531 0.0
H692 H 0.59059 0.99219 0.24305 0.0
H693 H 0.49516 0.07525 0.27656 0.0
H694 H 0.57076 0.04065 0.29163 0.0
H695 H 0.50822 0.01111 0.25077 0.0
C696 C 0.53285 0.99128 0.23314 0.0
C697 C 0.55625 0.98637 0.22995 0.0
C698 C 0.55399 0.04805 0.28876 0.0
C699 C 0.54307 0.01717 0.26244 0.0
C700 C 0.54966 0.06954 0.29669 0.0
C701 C 0.52876 0.08013 0.29159 0.0
C702 C 0.53726 0.03718 0.27576 0.0
C703 C 0.51172 0.06787 0.28041 0.0
C704 C 0.52622 0.00663 0.24936 0.0
C705 C 0.57238 0.99583 0.24464 0.0
N706 N 0.51647 0.04719 0.27257 0.0
N707 N 0.56554 0.01106 0.26001 0.0
H708 H 0.01167 0.56856 0.22329 0.0
H709 H 0.90606 0.49319 0.25617 0.0
H710 H 0.94529 0.57259 0.19112 0.0
H711 H 0.9747 0.48452 0.28257 0.0
H712 H 0.92177 0.51705 0.22698 0.0
H713 H 0.00066 0.53281 0.23923 0.0
C714 C 0.99494 0.56166 0.21919 0.0
C715 C 0.97916 0.57377 0.20627 0.0
C716 C 0.93347 0.50963 0.23892 0.0
C717 C 0.96624 0.53304 0.22486 0.0
C718 C 0.9245 0.49603 0.25563 0.0
C719 C 0.93903 0.48725 0.27213 0.0
C720 C 0.9571 0.51476 0.23891 0.0
C721 C 0.9628 0.49119 0.2704 0.0
C722 C 0.98864 0.54122 0.22832 0.0
C723 C 0.95788 0.5639 0.2012 0.0
N724 N 0.97101 0.50503 0.25438 0.0
N725 N 0.95181 0.54433 0.21095 0.0
H726 H 0.50647 0.9326 0.27447 0.0
H727 H 0.40053 0.00588 0.23693 0.0
H728 H 0.43853 0.92612 0.30296 0.0
H729 H 0.47026 0.0162 0.214 0.0
H730 H 0.41517 0.98147 0.26621 0.0
H731 H 0.49503 0.96789 0.25789 0.0
C732 C 0.48928 0.93889 0.27767 0.0
C733 C 0.47328 0.92622 0.28975 0.0
C734 C 0.42731 0.98936 0.25501 0.0
C735 C 0.4599 0.96647 0.27041 0.0
C736 C 0.41896 0.00328 0.23825 0.0
C737 C 0.43415 0.01276 0.2227 0.0
C738 C 0.451 0.98467 0.25608 0.0
C739 C 0.45786 0.00904 0.22541 0.0
C740 C 0.48274 0.95907 0.26816 0.0
C741 C 0.45135 0.93529 0.29361 0.0
N742 N 0.46549 0.99496 0.24149 0.0
N743 N 0.44511 0.95465 0.28352 0.0
H744 H 0.03999 0.48374 0.72045 0.0
H745 H 0.07707 0.58088 0.80344 0.0
H746 H 0.11035 0.49904 0.73827 0.0
H747 H 0.00917 0.57373 0.77489 0.0
H748 H 0.08728 0.54418 0.78868 0.0
H749 H 0.02671 0.50976 0.74904 0.0
C750 C 0.05264 0.49225 0.73063 0.0
C751 C 0.07631 0.48963 0.72661 0.0
C752 C 0.07 0.55048 0.78604 0.0
C753 C 0.06125 0.51943 0.75926 0.0
C754 C 0.06412 0.57138 0.79457 0.0
C755 C 0.04242 0.58058 0.78993 0.0
C756 C 0.05403 0.53877 0.77289 0.0
C757 C 0.02629 0.56746 0.77843 0.0
C758 C 0.04505 0.50713 0.74693 0.0
C759 C 0.09193 0.50091 0.74049 0.0
N760 N 0.03253 0.54738 0.77001 0.0
N761 N 0.08412 0.51556 0.75598 0.0
H762 H 0.4772 0.99033 0.77408 0.0
H763 H 0.43582 0.08406 0.68943 0.0
H764 H 0.40686 -0.00166 0.75198 0.0
H765 H 0.50316 0.08126 0.71982 0.0
H766 H 0.42783 0.04658 0.70364 0.0
H767 H 0.48939 0.01745 0.74617 0.0
C768 C 0.46437 -0.00257 0.76307 0.0
C769 C 0.44091 0.99242 0.76569 0.0
C770 C 0.44454 0.054 0.70677 0.0
C771 C 0.45478 0.02345 0.73371 0.0
C772 C 0.44916 0.07531 0.69853 0.0
C773 C 0.46999 0.08591 0.70389 0.0
C774 C 0.46092 0.04332 0.72033 0.0
C775 C 0.48668 0.07384 0.71572 0.0
C776 C 0.47135 0.01293 0.74713 0.0
C777 C 0.42509 0.00203 0.75081 0.0
N778 N 0.48166 0.05333 0.72383 0.0
N779 N 0.43226 0.01734 0.73567 0.0
H780 H 0.95346 0.50255 0.72335 0.0
H781 H 0.91918 0.40831 0.80955 0.0
H782 H 0.88681 0.49914 0.75502 0.0
H783 H 0.98544 0.41394 0.77737 0.0
H784 H 0.90958 0.44591 0.79655 0.0
H785 H 0.968 0.47509 0.74966 0.0
C786 C 0.94198 0.49625 0.73611 0.0
C787 C 0.91881 0.5028 0.73678 0.0
C788 C 0.9264 0.43907 0.79274 0.0
C789 C 0.93515 0.47092 0.7667 0.0
C790 C 0.93191 0.41765 0.80023 0.0
C791 C 0.95293 0.40784 0.79409 0.0
C792 C 0.94206 0.45062 0.77909 0.0
C793 C 0.96882 0.42069 0.78206 0.0
C794 C 0.95027 0.48054 0.75115 0.0
C795 C 0.90476 0.49437 0.75384 0.0
N796 N 0.96293 0.44125 0.7747 0.0
N797 N 0.91302 0.47847 0.76787 0.0
H798 H 0.52425 0.00465 0.77588 0.0
H799 H 0.56018 0.91113 0.68841 0.0
H800 H 0.59455 0.98698 0.76018 0.0
H801 H 0.49132 0.92026 0.71404 0.0
H802 H 0.57164 0.94621 0.70599 0.0
H803 H 0.51111 0.98079 0.74537 0.0
C804 C 0.53694 0.99609 0.76579 0.0
C805 C 0.56051 -0.00256 0.77087 0.0
C806 C 0.5539 0.94076 0.70734 0.0
C807 C 0.54554 0.9703 0.7359 0.0
C808 C 0.54729 0.92083 0.69715 0.0
C809 C 0.5249 0.91254 0.7002 0.0
C810 C 0.53795 0.95242 0.72055 0.0
C811 C 0.50891 0.92582 0.71167 0.0
C812 C 0.52941 0.98251 0.74837 0.0
C813 C 0.57618 0.98609 0.7571 0.0
N814 N 0.51583 0.94492 0.72174 0.0
N815 N 0.5684 0.97279 0.74042 0.0
H816 H 0.26282 -0.00221 0.38385 0.0
H817 H 0.31094 0.08428 0.4412 0.0
H818 H 0.20042 0.03401 0.39893 0.0
H819 H 0.2473 0.08786 0.47838 0.0
H820 H 0.2966 0.05104 0.42247 0.0
H821 H 0.28158 0.01557 0.41565 0.0
C822 C 0.25287 0.00909 0.39412 0.0
C823 C 0.23018 0.01495 0.3883 0.0
C824 C 0.28609 0.05858 0.43532 0.0
C825 C 0.25174 0.0356 0.42436 0.0
C826 C 0.29424 0.07772 0.44593 0.0
C827 C 0.28011 0.08923 0.46101 0.0
C828 C 0.26356 0.0511 0.43967 0.0
C829 C 0.25867 0.07981 0.46657 0.0
C830 C 0.26372 0.0194 0.41213 0.0
C831 C 0.2181 0.02942 0.40245 0.0
N832 N 0.25079 0.06168 0.45543 0.0
N833 N 0.22915 0.03951 0.41964 0.0
H834 H 0.97593 0.27276 0.50801 0.0
H835 H 0.94064 0.18621 0.41354 0.0
H836 H 0.90627 0.25017 0.49644 0.0
H837 H 0.00807 0.21595 0.42011 0.0
H838 H 0.93008 0.20174 0.4498 0.0
H839 H 0.98975 0.24491 0.48161 0.0
C840 C 0.96357 0.26164 0.5003 0.0
C841 C 0.93985 0.2641 0.5041 0.0
C842 C 0.94733 0.2045 0.44348 0.0
C843 C 0.95567 0.23201 0.47404 0.0
C844 C 0.95342 0.19552 0.42283 0.0
C845 C 0.9751 0.20022 0.41356 0.0
C846 C 0.96305 0.2182 0.45487 0.0
C847 C 0.99099 0.21231 0.42641 0.0
C848 C 0.97151 0.2457 0.48525 0.0
C849 C 0.92468 0.2491 0.49371 0.0
N850 N 0.98454 0.22116 0.44624 0.0
N851 N 0.93282 0.23387 0.47894 0.0
H852 H 0.75595 0.89622 0.48701 0.0
H853 H 0.80001 0.95696 0.40129 0.0
H854 H 0.6944 0.89984 0.44665 0.0
H855 H 0.73168 0.98399 0.3921 0.0
H856 H 0.78637 0.93717 0.43412 0.0
H857 H 0.77029 0.92983 0.4689 0.0
C858 C 0.74523 0.90426 0.47463 0.0
C859 C 0.72425 0.89472 0.4678 0.0
C860 C 0.77453 0.94807 0.42546 0.0
C861 C 0.74085 0.9329 0.44677 0.0
C862 C 0.78231 0.95926 0.40655 0.0
C863 C 0.76689 0.97183 0.39368 0.0
C864 C 0.75109 0.94923 0.43131 0.0
C865 C 0.74415 0.97429 0.40137 0.0
C866 C 0.75357 0.92335 0.46418 0.0
C867 C 0.71092 0.90624 0.45206 0.0
N868 N 0.73677 0.96256 0.41933 0.0
N869 N 0.71964 0.92455 0.44179 0.0
H870 H 0.98571 0.77773 0.42713 0.0
H871 H 0.09534 0.73968 0.4932 0.0
H872 H 0.05318 0.80629 0.4171 0.0
H873 H 0.02623 0.71962 0.51077 0.0
H874 H 0.07943 0.76937 0.4702 0.0
H875 H 0.99876 0.76224 0.46246 0.0
C876 C 0.00315 0.78115 0.43261 0.0
C877 C 0.01856 0.79286 0.41892 0.0
C878 C 0.06771 0.75875 0.47938 0.0
C879 C 0.03376 0.77478 0.45913 0.0
C880 C 0.0768 0.74172 0.49247 0.0
C881 C 0.06207 0.72681 0.50348 0.0
C882 C 0.04371 0.76066 0.47697 0.0
C883 C 0.03822 0.73051 0.50228 0.0
C884 C 0.0106 0.77229 0.45281 0.0
C885 C 0.04081 0.79713 0.42701 0.0
N886 N 0.02975 0.7468 0.48886 0.0
N887 N 0.04793 0.78761 0.44636 0.0
H888 H 0.19797 0.95925 0.58511 0.0
H889 H 0.30574 0.90565 0.53382 0.0
H890 H 0.26599 0.98677 0.59495 0.0
H891 H 0.23807 0.896 0.5055 0.0
H892 H 0.29214 0.9398 0.55146 0.0
H893 H 0.21164 0.94093 0.55135 0.0
C894 C 0.21563 0.96191 0.57988 0.0
C895 C 0.23103 0.97401 0.59324 0.0
C896 C 0.2804 0.93054 0.54092 0.0
C897 C 0.2469 0.95275 0.55488 0.0
C898 C 0.28816 0.91099 0.5309 0.0
C899 C 0.27286 0.89767 0.51866 0.0
C900 C 0.25703 0.93647 0.53915 0.0
C901 C 0.25038 0.90558 0.5151 0.0
C902 C 0.22344 0.95146 0.56055 0.0
C903 C 0.25361 0.97722 0.58542 0.0
N904 N 0.24294 0.92416 0.52582 0.0
N905 N 0.26105 0.96611 0.56708 0.0
H906 H 0.06007 0.17984 0.58642 0.0
H907 H 0.03134 0.26035 0.48448 0.0
H908 H 0.99191 0.20364 0.57014 0.0
H909 H 0.09979 0.24926 0.51043 0.0
H910 H 0.01682 0.23109 0.50917 0.0
H911 H 0.07453 0.19626 0.55182 0.0
C912 C 0.04802 0.18798 0.5753 0.0
C913 C 0.02484 0.19078 0.58138 0.0
C914 C 0.03506 0.23487 0.50915 0.0
C915 C 0.04129 0.20973 0.54198 0.0
C916 C 0.04338 0.25153 0.49508 0.0
C917 C 0.06674 0.25756 0.49573 0.0
C918 C 0.0502 0.22413 0.5239 0.0
C919 C 0.08157 0.24543 0.50968 0.0
C920 C 0.05632 0.19748 0.55564 0.0
C921 C 0.01001 0.20146 0.5663 0.0
N922 N 0.07301 0.22947 0.52341 0.0
N923 N 0.01854 0.21082 0.54746 0.0
H924 H 0.7238 0.0018 0.59927 0.0
H925 H 0.68287 0.09319 0.54576 0.0
H926 H 0.78885 0.03499 0.58807 0.0
H927 H 0.74816 0.09651 0.51136 0.0
H928 H 0.69468 0.05803 0.56234 0.0
H929 H 0.70751 0.02183 0.5676 0.0
C930 C 0.73484 0.01292 0.58989 0.0
C931 C 0.75753 0.01733 0.59685 0.0
C932 C 0.70612 0.06595 0.55052 0.0
C933 C 0.73877 0.04062 0.56099 0.0
C934 C 0.69942 0.08621 0.54117 0.0
C935 C 0.71473 0.0981 0.52755 0.0
C936 C 0.72841 0.05771 0.54641 0.0
C937 C 0.73589 0.08812 0.52205 0.0
C938 C 0.7254 0.02453 0.57195 0.0
C939 C 0.77109 0.03155 0.58372 0.0
N940 N 0.74237 0.06882 0.53201 0.0
N941 N 0.76136 0.043 0.56665 0.0
H942 H 0.90382 0.74382 0.49764 0.0
H943 H 0.0091 0.78813 0.56783 0.0
H944 H 0.97479 0.72769 0.48323 0.0
H945 H 0.93879 0.80882 0.57889 0.0
H946 H 0.9978 0.77253 0.53197 0.0
H947 H 0.91684 0.77353 0.52233 0.0
C948 C 0.92216 0.74673 0.49941 0.0
C949 C 0.93825 0.73291 0.48874 0.0
C950 C 0.98489 0.78087 0.54199 0.0
C951 C 0.95329 0.76682 0.51718 0.0
C952 C 0.99135 0.78983 0.56248 0.0
C953 C 0.97475 0.79936 0.57657 0.0
C954 C 0.96157 0.78109 0.53571 0.0
C955 C 0.9521 0.80141 0.56864 0.0
C956 C 0.92959 0.76376 0.5135 0.0
C957 C 0.96177 0.7377 0.49138 0.0
N958 N 0.94606 0.79187 0.54895 0.0
N959 N 0.96859 0.754 0.50565 0.0
H960 H 0.50955 0.27692 0.058 0.0
H961 H 0.39869 0.2443 0.98979 0.0
H962 H 0.44253 0.30598 0.06941 0.0
H963 H 0.46709 0.22099 0.97371 0.0
H964 H 0.41556 0.27265 0.01391 0.0
H965 H 0.49598 0.26256 0.02234 0.0
C966 C 0.49208 0.28064 0.0528 0.0
C967 C 0.47697 0.29221 0.06694 0.0
C968 C 0.42693 0.2616 0.00482 0.0
C969 C 0.46117 0.27543 0.02631 0.0
C970 C 0.41729 0.24536 0.99106 0.0
C971 C 0.43148 0.2299 0.98014 0.0
C972 C 0.45092 0.26218 0.00795 0.0
C973 C 0.45546 0.23232 0.9821 0.0
C974 C 0.48433 0.27242 0.03241 0.0
C975 C 0.45468 0.29689 0.05917 0.0
N976 N 0.46441 0.24785 0.99612 0.0
N977 N 0.44728 0.28804 0.03959 0.0
H978 H 0.48245 0.77866 0.01714 0.0
H979 H 0.4542 0.68662 0.92575 0.0
H980 H 0.41396 0.75553 0.00105 0.0
H981 H 0.5192 0.7212 0.93148 0.0
H982 H 0.44227 0.70269 0.96137 0.0
H983 H 0.49842 0.7491 0.99381 0.0
C984 C 0.47078 0.76708 0.00911 0.0
C985 C 0.44682 0.76988 0.01058 0.0
C986 C 0.45934 0.70635 0.95504 0.0
C987 C 0.46506 0.73599 0.98405 0.0
C988 C 0.46622 0.69708 0.93478 0.0
C989 C 0.4875 0.70304 0.92538 0.0
C990 C 0.47388 0.72157 0.96595 0.0
C991 C 0.50241 0.71658 0.93788 0.0
C992 C 0.47994 0.75021 0.9958 0.0
C993 C 0.43255 0.75425 -2e-05 0.0
N994 N 0.49517 0.72568 0.95735 0.0
N995 N 0.44188 0.73815 0.9869 0.0
H996 H 0.29497 0.46704 0.9092 0.0
H997 H 0.18296 0.4055 0.94045 0.0
H998 H 0.22843 0.49102 0.88773 0.0
H999 H 0.24417 0.40144 0.98124 0.0
H1000 H 0.19755 0.44013 0.92446 0.0
H1001 H 0.27613 0.44649 0.93916 0.0
C1002 C 0.27645 0.4684 0.91111 0.0
C1003 C 0.26322 0.48037 0.89568 0.0
C1004 C 0.20751 0.43194 0.93732 0.0
C1005 C 0.24149 0.45651 0.92956 0.0
C1006 C 0.1992 0.41212 0.94644 0.0
C1007 C 0.21265 0.40017 0.96175 0.0
C1008 C 0.22958 0.43957 0.94327 0.0
C1009 C 0.23342 0.40977 0.9691 0.0
C1010 C 0.26568 0.45669 0.92824 0.0
C1011 C 0.2393 0.48177 0.8991 0.0
N1012 N 0.24151 0.4286 0.95938 0.0
N1013 N 0.22911 0.46947 0.91532 0.0
H1014 H 0.59324 0.2565 0.01226 0.0
H1015 H 0.48802 0.28285 0.93107 0.0
H1016 H 0.53222 0.216 0.00513 0.0
H1017 H 0.55576 0.31167 0.9233 0.0
H1018 H 0.50008 0.26691 0.9665 0.0
H1019 H 0.57578 0.28449 0.98769 0.0
C1020 C 0.576 0.25372 0.00589 0.0
C1021 C 0.56429 0.23376 0.01034 0.0
C1022 C 0.51219 0.27703 0.95723 0.0
C1023 C 0.54429 0.26561 0.98253 0.0
C1024 C 0.50533 0.28619 0.937 0.0
C1025 C 0.52111 0.29813 0.92389 0.0
C1026 C 0.53505 0.27968 0.96438 0.0
C1027 C 0.54313 0.30229 0.93269 0.0
C1028 C 0.5661 0.26965 0.99186 0.0
C1029 C 0.542 0.23099 0.00175 0.0
N1030 N 0.54962 0.29269 0.95222 0.0
N1031 N 0.53281 0.24664 0.98811 0.0
H1032 H 0.70264 0.53422 0.89838 0.0
H1033 H 0.75348 0.58967 0.98439 0.0
H1034 H 0.76844 0.5026 0.88694 0.0
H1035 H 0.813 0.58361 0.94157 0.0
H1036 H 0.73634 0.55742 0.96599 0.0
H1037 H 0.71863 0.55234 0.93125 0.0
C1038 C 0.72025 0.53055 0.90316 0.0
C1039 C 0.73432 0.51717 0.88967 0.0
C1040 C 0.75325 0.56303 0.96082 0.0
C1041 C 0.7528 0.53788 0.92728 0.0
C1042 C 0.7632 0.58133 0.97143 0.0
C1043 C 0.78443 0.58985 0.96401 0.0
C1044 C 0.76465 0.55321 0.94271 0.0
C1045 C 0.79634 0.57801 0.94745 0.0
C1046 C 0.72936 0.54079 0.92207 0.0
C1047 C 0.757 0.51294 0.89673 0.0
N1048 N 0.78611 0.56049 0.93711 0.0
N1049 N 0.76574 0.5238 0.91469 0.0
H1050 H 0.49467 0.71698 0.06886 0.0
H1051 H 0.60854 0.74784 0.00541 0.0
H1052 H 0.56044 0.68699 0.08395 0.0
H1053 H 0.5408 0.76648 0.9822 0.0
H1054 H 0.59089 0.72077 0.03046 0.0
H1055 H 0.5102 0.73012 0.03352 0.0
C1056 C 0.51226 0.71277 0.06452 0.0
C1057 C 0.52642 0.70125 0.07956 0.0
C1058 C 0.57989 0.73048 0.0196 0.0
C1059 C 0.54449 0.71664 0.03929 0.0
C1060 C 0.58996 0.74599 0.00531 0.0
C1061 C 0.57609 0.75981 0.99206 0.0
C1062 C 0.55576 0.729 0.02088 0.0
C1063 C 0.55216 0.75644 0.99238 0.0
C1064 C 0.52114 0.72028 0.0443 0.0
C1065 C 0.54898 0.696 0.07294 0.0
N1066 N 0.54274 0.74168 0.0069 0.0
N1067 N 0.55749 0.70418 0.0535 0.0
H1068 H 0.19846 0.59157 0.04747 0.0
H1069 H 0.24228 0.50211 0.10358 0.0
H1070 H 0.26584 0.59915 0.01784 0.0
H1071 H 0.30484 0.54088 0.0989 0.0
H1072 H 0.22693 0.52214 0.07146 0.0
H1073 H 0.21178 0.55783 0.06597 0.0
C1074 C 0.21585 0.58579 0.04432 0.0
C1075 C 0.23115 0.59843 0.03137 0.0
C1076 C 0.24409 0.52607 0.07735 0.0
C1077 C 0.24657 0.55978 0.0525 0.0
C1078 C 0.25301 0.51451 0.09556 0.0
C1079 C 0.27465 0.52029 0.10439 0.0
C1080 C 0.25694 0.54348 0.06794 0.0
C1081 C 0.28786 0.53623 0.09302 0.0
C1082 C 0.22343 0.56638 0.05478 0.0
C1083 C 0.25349 0.59007 0.02784 0.0
N1084 N 0.27865 0.54751 0.07556 0.0
N1085 N 0.26072 0.57161 0.03886 0.0
H1086 H 0.68983 0.46411 0.09297 0.0
H1087 H 0.79333 0.40314 0.04099 0.0
H1088 H 0.75972 0.48691 0.1026 0.0
H1089 H 0.72481 0.39825 0.01325 0.0
H1090 H 0.78234 0.43797 0.059 0.0
H1091 H 0.70209 0.44456 0.05941 0.0
C1092 C 0.70764 0.46546 0.08773 0.0
C1093 C 0.72388 0.47668 0.10092 0.0
C1094 C 0.76987 0.42958 0.04851 0.0
C1095 C 0.73814 0.45395 0.0628 0.0
C1096 C 0.77614 0.40964 0.03825 0.0
C1097 C 0.75978 0.39742 0.0261 0.0
C1098 C 0.74697 0.43707 0.04699 0.0
C1099 C 0.73788 0.40686 0.02283 0.0
C1100 C 0.71465 0.45431 0.06852 0.0
C1101 C 0.74667 0.47816 0.09313 0.0
N1102 N 0.73192 0.42582 0.03371 0.0
N1103 N 0.75327 0.46638 0.07491 0.0
H1104 H 0.99787 0.23875 0.31256 0.0
H1105 H 0.00942 0.26488 0.18311 0.0
H1106 H 0.97509 0.19113 0.26332 0.0
H1107 H 0.00278 0.31478 0.23452 0.0
H1108 H 0.00221 0.23587 0.21126 0.0
H1109 H 0.00684 0.26487 0.28295 0.0
C1110 C 0.99503 0.23363 0.29548 0.0
C1111 C 0.9856 0.21275 0.29042 0.0
C1112 C 0.00221 0.25322 0.2162 0.0
C1113 C 0.99558 0.24282 0.25637 0.0
C1114 C 0.00626 0.26973 0.20021 0.0
C1115 C 0.00662 0.29226 0.20649 0.0
C1116 C 0.99897 0.25941 0.23853 0.0
C1117 C 0.00252 0.29767 0.22885 0.0
C1118 C -2e-05 0.24866 0.27858 0.0
C1119 C 0.98224 0.20713 0.26793 0.0
N1120 N 0.99906 0.28137 0.24405 0.0
N1121 N 0.98717 0.22216 0.25163 0.0
H1122 H 0.78631 0.96626 0.24629 0.0
H1123 H 0.6524 0.97678 0.21992 0.0
H1124 H 0.73638 0.99596 0.29058 0.0
H1125 H 0.70226 0.9609 0.16888 0.0
H1126 H 0.68372 0.98355 0.24587 0.0
H1127 H 0.75684 0.96508 0.217 0.0
C1128 C 0.76935 0.97297 0.24973 0.0
C1129 C 0.76374 0.98102 0.27101 0.0
C1130 C 0.68788 0.97866 0.22898 0.0
C1131 C 0.73 0.97934 0.23785 0.0
C1132 C 0.66995 0.97459 0.21416 0.0
C1133 C 0.67467 0.96814 0.19218 0.0
C1134 C 0.7108 0.97607 0.22193 0.0
C1135 C 0.69783 0.9658 0.18569 0.0
C1136 C 0.75252 0.97218 0.23305 0.0
C1137 C 0.7415 0.98945 0.27454 0.0
N1138 N 0.71508 0.96965 0.20056 0.0
N1139 N 0.72541 0.98813 0.25824 0.0
H1140 H 0.97946 0.72368 0.19086 0.0
H1141 H 0.99318 0.75415 0.31924 0.0
H1142 H 0.9885 0.67602 0.24397 0.0
H1143 H 0.01276 0.80137 0.2684 0.0
H1144 H 0.9842 0.72716 0.29057 0.0
H1145 H 0.98618 0.75397 0.21786 0.0
C1146 C 0.983 0.71959 0.20809 0.0
C1147 C 0.98351 0.69731 0.21518 0.0
C1148 C 0.99035 0.74345 0.28561 0.0
C1149 C 0.99065 0.73158 0.2459 0.0
C1150 C 0.9953 0.75902 0.30201 0.0
C1151 C 0.0038 0.78009 0.29625 0.0
C1152 C 0.99389 0.74886 0.26316 0.0
C1153 C 0.00631 0.78526 0.27355 0.0
C1154 C 0.98679 0.73683 0.22341 0.0
C1155 C 0.9881 0.69289 0.23766 0.0
N1156 N 0.00146 0.76966 0.25773 0.0
N1157 N 0.99132 0.70984 0.25218 0.0
H1158 H 0.20385 0.03298 0.24366 0.0
H1159 H 0.33639 0.01982 0.21399 0.0
H1160 H 0.25219 0.99528 0.28324 0.0
H1161 H 0.2863 0.04015 0.1648 0.0
H1162 H 0.30518 0.01178 0.23977 0.0
H1163 H 0.23276 0.0354 0.21399 0.0
C1164 C 0.22031 0.02476 0.24592 0.0
C1165 C 0.22572 0.01415 0.26608 0.0
C1166 C 0.30096 0.01793 0.22332 0.0
C1167 C 0.2589 0.01729 0.23253 0.0
C1168 C 0.31882 0.02275 0.20863 0.0
C1169 C 0.314 0.0308 0.1872 0.0
C1170 C 0.27802 0.02138 0.21672 0.0
C1171 C 0.29082 0.03402 0.18118 0.0
C1172 C 0.23684 0.02627 0.22904 0.0
C1173 C 0.24731 0.00382 0.2681 0.0
N1174 N 0.27366 0.02942 0.19593 0.0
N1175 N 0.26321 0.00595 0.25169 0.0
H1176 H 0.03419 0.73066 0.8003 0.0
H1177 H 0.00193 0.75752 0.67435 0.0
H1178 H 0.0224 0.68108 0.74945 0.0
H1179 H 0.98481 0.80383 0.72686 0.0
H1180 H 0.01589 0.73141 0.70202 0.0
H1181 H 0.02113 0.75958 0.77404 0.0
C1182 C 0.02874 0.72586 0.78373 0.0
C1183 C 0.02932 0.70344 0.77705 0.0
C1184 C 0.00915 0.7473 0.70755 0.0
C1185 C 0.01491 0.7362 0.74711 0.0
C1186 C 0.00133 0.76235 0.69172 0.0
C1187 C 0.99215 0.78291 0.69829 0.0
C1188 C 0.00793 0.75278 0.73022 0.0
C1189 C 0.9917 0.78809 0.72111 0.0
C1190 C 0.02132 0.74231 0.76883 0.0
C1191 C 0.02212 0.69809 0.75541 0.0
N1192 N -0.00051 0.77306 0.73636 0.0
N1193 N 0.0154 0.71434 0.74122 0.0
H1194 H 0.26367 0.99075 0.69746 0.0
H1195 H 0.29514 0.95373 0.8216 0.0
H1196 H 0.21473 0.9579 0.74052 0.0
H1197 H 0.34492 0.97288 0.77162 0.0
H1198 H 0.2643 0.95896 0.79418 0.0
H1199 H 0.29208 0.98951 0.72712 0.0
C1200 C 0.25873 0.98359 0.71328 0.0
C1201 C 0.2368 0.97428 0.71643 0.0
C1202 C 0.282 0.96197 0.78929 0.0
C1203 C 0.26956 0.97239 0.75046 0.0
C1204 C 0.29962 0.95893 0.80488 0.0
C1205 C 0.3227 0.96279 0.7989 0.0
C1206 C 0.28751 0.96913 0.76768 0.0
C1207 C 0.32744 0.96957 0.77701 0.0
C1208 C 0.27508 0.98271 0.7302 0.0
C1209 C 0.23147 0.96522 0.73736 0.0
N1210 N 0.31001 0.97257 0.76227 0.0
N1211 N 0.24784 0.96431 0.75357 0.0
H1212 H 0.98642 0.22854 0.67797 0.0
H1213 H 0.96383 0.25807 0.80576 0.0
H1214 H 0.00711 0.18399 0.73075 0.0
H1215 H 0.96632 0.30602 0.75226 0.0
H1216 H 0.97451 0.22868 0.77906 0.0
H1217 H 0.97245 0.25473 0.7056 0.0
C1218 C 0.98776 0.22409 0.69539 0.0
C1219 C 0.99805 0.20404 0.70204 0.0
C1220 C 0.97275 0.24568 0.77331 0.0
C1221 C 0.98236 0.23431 0.73392 0.0
C1222 C 0.96669 0.26241 0.78847 0.0
C1223 C 0.96435 0.28452 0.78122 0.0
C1224 C 0.97605 0.25118 0.7508 0.0
C1225 C 0.96816 0.28927 0.75867 0.0
C1226 C 0.97993 0.23918 0.7112 0.0
C1227 C 0.99937 0.19932 0.72492 0.0
N1228 N 0.97371 0.27275 0.74429 0.0
N1229 N 0.99171 0.21444 0.74012 0.0
H1230 H 0.73201 0.99706 0.70177 0.0
H1231 H 0.70472 0.03504 0.82654 0.0
H1232 H 0.78237 0.03074 0.74266 0.0
H1233 H 0.65336 0.0158 0.77807 0.0
H1234 H 0.73464 0.03005 0.79811 0.0
H1235 H 0.70469 -0.00128 0.73231 0.0
C1236 C 0.73751 0.00449 0.71731 0.0
C1237 C 0.75951 0.01391 0.71957 0.0
C1238 C 0.71679 0.027 0.79377 0.0
C1239 C 0.72795 0.01631 0.75463 0.0
C1240 C 0.69969 0.02992 0.80993 0.0
C1241 C 0.67644 0.02587 0.8047 0.0
C1242 C 0.71058 0.01977 0.77236 0.0
C1243 C 0.67099 0.01921 0.78292 0.0
C1244 C 0.72176 0.00562 0.73472 0.0
C1245 C 0.76556 0.02332 0.74018 0.0
N1246 N 0.68792 0.01628 0.76764 0.0
N1247 N 0.74976 0.02447 0.75691 0.0
H1248 H 0.2498 0.29847 0.97867 0.0
H1249 H 0.28273 0.17223 0.95118 0.0
H1250 H 0.20061 0.2515 0.95204 0.0
H1251 H 0.33215 0.22413 0.96555 0.0
H1252 H 0.25164 0.19956 0.95468 0.0
H1253 H 0.27903 0.26957 0.9785 0.0
C1254 C 0.24499 0.28197 0.97311 0.0
C1255 C 0.22268 0.27745 0.96529 0.0
C1256 C 0.2693 0.20492 0.95702 0.0
C1257 C 0.2564 0.24423 0.96463 0.0
C1258 C 0.28708 0.18936 0.95497 0.0
C1259 C 0.31014 0.19588 0.95803 0.0
C1260 C 0.27461 0.22709 0.96234 0.0
C1261 C 0.31469 0.2183 0.96294 0.0
C1262 C 0.26181 0.26548 0.97284 0.0
C1263 C 0.2176 0.25571 0.9582 0.0
N1264 N 0.2971 0.23304 0.96501 0.0
N1265 N 0.23441 0.2399 0.95788 0.0
H1266 H 0.21588 0.74691 0.03711 0.0
H1267 H 0.34921 0.77547 0.02151 0.0
H1268 H 0.26638 0.70073 0.01148 0.0
H1269 H 0.29794 0.8259 0.03494 0.0
H1270 H 0.31867 0.74785 0.01854 0.0
H1271 H 0.24504 0.77643 0.03608 0.0
C1272 C 0.23295 0.74306 0.03091 0.0
C1273 C 0.23873 0.72129 0.02449 0.0
C1274 C 0.31406 0.76496 0.0221 0.0
C1275 C 0.27218 0.75478 0.02365 0.0
C1276 C 0.33154 0.78075 0.02396 0.0
C1277 C 0.32618 0.80307 0.02855 0.0
C1278 C 0.29099 0.77142 0.02499 0.0
C1279 C 0.30289 0.80888 0.0314 0.0
C1280 C 0.24961 0.75988 0.03043 0.0
C1281 C 0.26112 0.71723 0.01665 0.0
N1282 N 0.28614 0.79313 0.02964 0.0
N1283 N 0.27707 0.73374 0.01668 0.0
H1284 H 0.7202 0.29509 0.01023 0.0
H1285 H 0.68959 0.16962 0.04355 0.0
H1286 H 0.7704 0.24875 0.03607 0.0
H1287 H 0.63926 0.21835 0.02269 0.0
H1288 H 0.71992 0.19739 0.03858 0.0
H1289 H 0.69116 0.26588 0.01135 0.0
C1290 C 0.72525 0.27867 0.01582 0.0
C1291 C 0.7478 0.2744 0.02314 0.0
C1292 C 0.70224 0.20199 0.03512 0.0
C1293 C 0.71438 0.24088 0.02486 0.0
C1294 C 0.68486 0.18617 0.03801 0.0
C1295 C 0.66175 0.19166 0.03365 0.0
C1296 C 0.69651 0.22346 0.02773 0.0
C1297 C 0.65675 0.21337 0.02646 0.0
C1298 C 0.70856 0.26201 0.0166 0.0
C1299 C 0.75323 0.25278 0.03029 0.0
N1300 N 0.67398 0.22844 0.02371 0.0
N1301 N 0.73658 0.23685 0.03114 0.0
H1302 H 0.75718 0.6928 0.99226 0.0
H1303 H 0.72378 0.81841 0.96254 0.0
H1304 H 0.80368 0.73737 0.95814 0.0
H1305 H 0.67515 0.76772 0.98254 0.0
H1306 H 0.75498 0.79112 0.96595 0.0
H1307 H 0.72919 0.72276 0.99515 0.0
C1308 C 0.76171 0.709 0.98571 0.0
C1309 C 0.78275 0.7125 0.97474 0.0
C1310 C 0.73747 0.78606 0.96962 0.0
C1311 C 0.75046 0.74686 0.97762 0.0
C1312 C 0.71964 0.80158 0.96765 0.0
C1313 C 0.69676 0.79531 0.9721 0.0
C1314 C 0.73238 0.76421 0.97631 0.0
C1315 C 0.69246 0.7733 0.97873 0.0
C1316 C 0.7456 0.72609 0.98722 0.0
C1317 C 0.78762 0.73392 0.96663 0.0
N1318 N 0.71008 0.75858 0.98064 0.0
N1319 N 0.77145 0.75028 0.96801 0.0
H1320 H 0.50225 0.74172 0.82314 0.0
H1321 H 0.52294 0.76244 0.69423 0.0
H1322 H 0.48945 0.68925 0.7755 0.0
H1323 H 0.50393 0.81383 0.74111 0.0
H1324 H 0.51525 0.73431 0.72311 0.0
H1325 H 0.50916 0.76741 0.79263 0.0
C1326 C 0.50114 0.73551 0.80624 0.0
C1327 C 0.49522 0.71331 0.80185 0.0
C1328 C 0.51257 0.75177 0.72685 0.0
C1329 C 0.50291 0.7428 0.76676 0.0
C1330 C 0.51689 0.76778 0.71044 0.0
C1331 C 0.51411 0.79051 0.71529 0.0
C1332 C 0.50587 0.75869 0.74823 0.0
C1333 C 0.50629 0.79654 0.73655 0.0
C1334 C 0.50489 0.75026 0.78881 0.0
C1335 C 0.49392 0.70628 0.77957 0.0
N1336 N 0.5027 0.78076 0.75226 0.0
N1337 N 0.49776 0.72103 0.76274 0.0
H1338 H 0.30143 0.47126 0.75337 0.0
H1339 H 0.1713 0.48603 0.71652 0.0
H1340 H 0.25127 0.51002 0.78966 0.0
H1341 H 0.22334 0.46325 0.67038 0.0
H1342 H 0.20131 0.49492 0.74322 0.0
H1343 H 0.27467 0.46949 0.72179 0.0
C1344 C 0.28507 0.47989 0.7545 0.0
C1345 C 0.27841 0.4905 0.77433 0.0
C1346 C 0.20626 0.48808 0.72724 0.0
C1347 C 0.2477 0.48814 0.7386 0.0
C1348 C 0.18907 0.48277 0.71201 0.0
C1349 C 0.19478 0.47369 0.69121 0.0
C1350 C 0.22943 0.48405 0.72186 0.0
C1351 C 0.21818 0.47014 0.68627 0.0
C1352 C 0.26976 0.47874 0.73653 0.0
C1353 C 0.25704 0.50137 0.77488 0.0
N1354 N 0.23469 0.47515 0.70159 0.0
N1355 N 0.24233 0.49961 0.75744 0.0
H1356 H 0.51378 0.30896 0.77364 0.0
H1357 H 0.47142 0.18599 0.74865 0.0
H1358 H 0.48872 0.26329 0.82361 0.0
H1359 H 0.4718 0.23574 0.69678 0.0
H1360 H 0.48041 0.21455 0.7758 0.0
H1361 H 0.5002 0.28321 0.7446 0.0
C1362 C 0.50515 0.29372 0.77851 0.0
C1363 C 0.50248 0.28821 0.8011 0.0
C1364 C 0.47846 0.21935 0.75852 0.0
C1365 C 0.48729 0.25878 0.76816 0.0
C1366 C 0.4735 0.20298 0.74294 0.0
C1367 C 0.471 0.20849 0.7204 0.0
C1368 C 0.48124 0.24149 0.75161 0.0
C1369 C 0.47363 0.23085 0.71404 0.0
C1370 C 0.49743 0.27908 0.76195 0.0
C1371 C 0.49119 0.26829 0.80647 0.0
N1372 N 0.47881 0.24661 0.7296 0.0
N1373 N 0.48425 0.25424 0.79015 0.0
H1374 H 0.79966 0.53668 0.66535 0.0
H1375 H 0.76231 0.49294 0.78576 0.0
H1376 H 0.84655 0.50971 0.71423 0.0
H1377 H 0.71685 0.53074 0.74321 0.0
H1378 H 0.7914 0.49339 0.75661 0.0
H1379 H 0.76766 0.53028 0.69118 0.0
C1380 C 0.80325 0.52949 0.68152 0.0
C1381 C 0.82589 0.524 0.68774 0.0
C1382 C 0.77498 0.50139 0.75352 0.0
C1383 C 0.78935 0.51633 0.71715 0.0
C1384 C 0.75824 0.50099 0.77013 0.0
C1385 C 0.73718 0.51203 0.76703 0.0
C1386 C 0.77071 0.51299 0.73367 0.0
C1387 C 0.73291 0.52211 0.74634 0.0
C1388 C 0.78497 0.5258 0.69621 0.0
C1389 C 0.8295 0.51461 0.70885 0.0
N1390 N 0.74967 0.52259 0.73051 0.0
N1391 N 0.81144 0.51107 0.72276 0.0
H1392 H 0.53 0.23038 0.29586 0.0
H1393 H 0.50676 0.25342 0.16684 0.0
H1394 H 0.52359 0.17959 0.24531 0.0
H1395 H 0.48909 0.30199 0.21707 0.0
H1396 H 0.51964 0.22824 0.19585 0.0
H1397 H 0.52042 0.2587 0.26762 0.0
C1398 C 0.52654 0.2252 0.2789 0.0
C1399 C 0.52743 0.20261 0.27293 0.0
C1400 C 0.51305 0.24444 0.20059 0.0
C1401 C 0.51695 0.23468 0.24078 0.0
C1402 C 0.50584 0.25894 0.18397 0.0
C1403 C 0.49676 0.27985 0.18951 0.0
C1404 C 0.51122 0.25079 0.22301 0.0
C1405 C 0.4959 0.28596 0.2121 0.0
C1406 C 0.52109 0.24131 0.26287 0.0
C1407 C 0.52288 0.19676 0.25076 0.0
N1408 N 0.50296 0.27142 0.22811 0.0
N1409 N 0.51795 0.21267 0.23553 0.0
H1410 H 0.84055 0.47644 0.27713 0.0
H1411 H 0.70667 0.4667 0.24879 0.0
H1412 H 0.78934 0.46247 0.32746 0.0
H1413 H 0.75775 0.4939 0.20414 0.0
H1414 H 0.73593 0.46528 0.27825 0.0
H1415 H 0.80988 0.48197 0.25011 0.0
C1416 C 0.82285 0.4744 0.28251 0.0
C1417 C 0.81756 0.46891 0.30464 0.0
C1418 C 0.74059 0.47183 0.26206 0.0
C1419 C 0.7822 0.47541 0.27366 0.0
C1420 C 0.72388 0.47276 0.24529 0.0
C1421 C 0.7298 0.48031 0.22392 0.0
C1422 C 0.76333 0.47834 0.25729 0.0
C1423 C 0.75237 0.48788 0.22029 0.0
C1424 C 0.8053 0.47774 0.26707 0.0
C1425 C 0.79423 0.46666 0.31058 0.0
N1426 N 0.76833 0.48648 0.23672 0.0
N1427 N 0.77739 0.46985 0.29515 0.0
H1428 H 0.51071 0.69638 0.22936 0.0
H1429 H 0.48744 0.82502 0.25073 0.0
H1430 H 0.49714 0.74443 0.17751 0.0
H1431 H 0.47568 0.77635 0.30241 0.0
H1432 H 0.49533 0.79514 0.22464 0.0
H1433 H 0.5008 0.72475 0.25729 0.0
C1434 C 0.50539 0.71276 0.22384 0.0
C1435 C 0.50481 0.71808 0.20107 0.0
C1436 C 0.49104 0.79092 0.24168 0.0
C1437 C 0.49392 0.75047 0.23277 0.0
C1438 C 0.48674 0.80802 0.25668 0.0
C1439 C 0.48095 0.80318 0.27882 0.0
C1440 C 0.48974 0.76872 0.24879 0.0
C1441 C 0.48008 0.78077 0.28546 0.0
C1442 C 0.49978 0.72889 0.23977 0.0
C1443 C 0.49782 0.73953 0.19484 0.0
N1444 N 0.4845 0.76427 0.27047 0.0
N1445 N 0.49288 0.75496 0.21059 0.0
H1446 H 0.29025 0.52338 0.25208 0.0
H1447 H 0.15633 0.50549 0.27533 0.0
H1448 H 0.24325 0.49235 0.20574 0.0
H1449 H 0.20424 0.52501 0.32685 0.0
H1450 H 0.18854 0.50029 0.2499 0.0
H1451 H 0.25993 0.52264 0.28046 0.0
C1452 C 0.27375 0.51598 0.248 0.0
C1453 C 0.26922 0.50811 0.22642 0.0
C1454 C 0.19206 0.50564 0.26678 0.0
C1455 C 0.2344 0.50763 0.25861 0.0
C1456 C 0.17362 0.50879 0.2813 0.0
C1457 C 0.17753 0.51583 0.30326 0.0
C1458 C 0.21465 0.50974 0.27414 0.0
C1459 C 0.2004 0.51962 0.31005 0.0
C1460 C 0.25641 0.51569 0.26417 0.0
C1461 C 0.24751 0.49875 0.22207 0.0
N1462 N 0.2181 0.51665 0.29549 0.0
N1463 N 0.23085 0.49904 0.23791 0.0
H1464 H 0.84271 0.72181 0.47489 0.0
H1465 H 0.7086 0.74663 0.45935 0.0
H1466 H 0.79403 0.67026 0.45726 0.0
H1467 H 0.75745 0.79225 0.48873 0.0
H1468 H 0.73866 0.71783 0.45893 0.0
H1469 H 0.81095 0.74774 0.47939 0.0
C1470 C 0.82533 0.71593 0.47184 0.0
C1471 C 0.82109 0.69379 0.46561 0.0
C1472 C 0.74261 0.73409 0.46575 0.0
C1473 C 0.78441 0.72355 0.47092 0.0
C1474 C 0.72545 0.75048 0.46611 0.0
C1475 C 0.73053 0.77195 0.47397 0.0
C1476 C 0.76494 0.73936 0.47318 0.0
C1477 C 0.75267 0.77604 0.48244 0.0
C1478 C 0.80713 0.73076 0.47458 0.0
C1479 C 0.79811 0.68719 0.46206 0.0
N1480 N 0.76906 0.76 0.4816 0.0
N1481 N 0.78061 0.70204 0.46468 0.0
H1482 H 0.75603 0.19922 0.51003 0.0
H1483 H 0.79403 0.32308 0.54236 0.0
H1484 H 0.70946 0.24684 0.53969 0.0
H1485 H 0.84134 0.27083 0.52341 0.0
H1486 H 0.76202 0.2969 0.53811 0.0
H1487 H 0.78631 0.22724 0.51024 0.0
C1488 C 0.75202 0.21569 0.51626 0.0
C1489 C 0.73018 0.22064 0.52497 0.0
C1490 C 0.77942 0.29121 0.53491 0.0
C1491 C 0.76503 0.25276 0.52564 0.0
C1492 C 0.79773 0.30611 0.5374 0.0
C1493 C 0.82047 0.29915 0.53331 0.0
C1494 C 0.78386 0.26924 0.52815 0.0
C1495 C 0.82415 0.27696 0.52687 0.0
C1496 C 0.76943 0.23165 0.51654 0.0
C1497 C 0.72608 0.24229 0.53286 0.0
N1498 N 0.80605 0.26285 0.52444 0.0
N1499 N 0.74343 0.25753 0.53318 0.0
H1500 H 0.24135 0.79372 0.49617 0.0
H1501 H 0.20952 0.66852 0.52938 0.0
H1502 H 0.28921 0.74964 0.52914 0.0
H1503 H 0.15979 0.71847 0.51012 0.0
H1504 H 0.24032 0.69597 0.52453 0.0
H1505 H 0.21311 0.76376 0.4951 0.0
C1506 C 0.24611 0.77762 0.50283 0.0
C1507 C 0.26763 0.77426 0.51296 0.0
C1508 C 0.22266 0.70086 0.52135 0.0
C1509 C 0.23512 0.73993 0.51214 0.0
C1510 C 0.20505 0.68523 0.52416 0.0
C1511 C 0.18198 0.69122 0.5203 0.0
C1512 C 0.21717 0.72254 0.51444 0.0
C1513 C 0.17726 0.71311 0.51348 0.0
C1514 C 0.22987 0.76055 0.50238 0.0
C1515 C 0.27278 0.75299 0.52128 0.0
N1516 N 0.19469 0.72793 0.51076 0.0
N1517 N 0.25653 0.73665 0.5209 0.0
H1518 H 0.15996 0.26481 0.47426 0.0
H1519 H 0.29389 0.23794 0.45844 0.0
H1520 H 0.21025 0.31529 0.45782 0.0
H1521 H 0.24336 0.19066 0.48193 0.0
H1522 H 0.26422 0.26699 0.45899 0.0
H1523 H 0.19081 0.23755 0.47694 0.0
C1524 C 0.17748 0.27018 0.47108 0.0
C1525 C 0.18246 0.29242 0.46577 0.0
C1526 C 0.25974 0.25029 0.46427 0.0
C1527 C 0.21805 0.26117 0.469 0.0
C1528 C 0.2767 0.23375 0.46407 0.0
C1529 C 0.2711 0.21181 0.47009 0.0
C1530 C 0.23708 0.24477 0.47039 0.0
C1531 C 0.24853 0.2073 0.47715 0.0
C1532 C 0.19515 0.25459 0.47275 0.0
C1533 C 0.20558 0.29832 0.46193 0.0
N1534 N 0.23233 0.22356 0.47692 0.0
N1535 N 0.22253 0.28278 0.4636 0.0
H1536 H 0.10993 0.35697 0.13598 0.0
H1537 H 0.1263 0.33029 0.00638 0.0
H1538 H 0.05299 0.34231 0.09201 0.0
H1539 H 0.18242 0.33879 0.05293 0.0
H1540 H 0.09896 0.33598 0.03686 0.0
H1541 H 0.13643 0.35246 0.1049 0.0
C1542 C 0.10295 0.35293 0.11974 0.0
C1543 C 0.07919 0.34992 0.11663 0.0
C1544 C 0.11726 0.33654 0.04037 0.0
C1545 C 0.10958 0.34456 0.08088 0.0
C1546 C 0.1329 0.33324 0.02299 0.0
C1547 C 0.15675 0.33405 0.02706 0.0
C1548 C 0.12551 0.34076 0.06195 0.0
C1549 C 0.16424 0.33798 0.04894 0.0
C1550 C 0.11814 0.35028 0.10198 0.0
C1551 C 0.07119 0.34476 0.09516 0.0
N1552 N 0.14869 0.34124 0.06551 0.0
N1553 N 0.08638 0.34216 0.07809 0.0
H1554 H 0.64842 0.03561 0.1306 0.0
H1555 H 0.56397 0.1347 0.102 0.0
H1556 H 0.57805 0.03822 0.15365 0.0
H1557 H 0.63482 0.13037 0.08097 0.0
H1558 H 0.57103 0.10469 0.12894 0.0
H1559 H 0.64607 0.07469 0.12027 0.0
C1560 C 0.6325 0.04453 0.13365 0.0
C1561 C 0.61323 0.03359 0.14249 0.0
C1562 C 0.5852 0.11072 0.11887 0.0
C1563 C 0.61022 0.07837 0.13035 0.0
C1564 C 0.58121 0.12797 0.10368 0.0
C1565 C 0.59878 0.13458 0.0891 0.0
C1566 C 0.60686 0.1002 0.11927 0.0
C1567 C 0.62074 0.12532 0.09166 0.0
C1568 C 0.63117 0.0669 0.12784 0.0
C1569 C 0.59321 0.04604 0.1466 0.0
N1570 N 0.62408 0.10836 0.10618 0.0
N1571 N 0.59203 0.06771 0.14002 0.0
H1572 H 0.91818 0.62143 0.12337 0.0
H1573 H 0.87928 0.66546 0.00369 0.0
H1574 H 0.95699 0.67086 0.08699 0.0
H1575 H 0.83246 0.63707 0.05185 0.0
H1576 H 0.91065 0.66203 0.03082 0.0
H1577 H 0.88965 0.62094 0.09356 0.0
C1578 C 0.92088 0.632 0.10899 0.0
C1579 C 0.93992 0.6464 0.1078 0.0
C1580 C 0.8935 0.65652 0.03536 0.0
C1581 C 0.9072 0.6459 0.07363 0.0
C1582 C 0.87561 0.65843 0.01991 0.0
C1583 C 0.85317 0.65167 0.02557 0.0
C1584 C 0.88898 0.64747 0.05646 0.0
C1585 C 0.84942 0.64268 0.04683 0.0
C1586 C 0.90449 0.63179 0.09204 0.0
C1587 C 0.94248 0.65964 0.08869 0.0
N1588 N 0.86716 0.64079 0.06147 0.0
N1589 N 0.92623 0.65915 0.07236 0.0
H1590 H 0.42117 0.86242 0.0961 0.0
H1591 H 0.33881 0.96525 0.1199 0.0
H1592 H 0.35308 0.87083 0.06872 0.0
H1593 H 0.4075 0.96004 0.14699 0.0
H1594 H 0.34092 0.92655 0.10816 0.0
H1595 H 0.41366 0.89338 0.12191 0.0
C1596 C 0.40441 0.87038 0.09601 0.0
C1597 C 0.38785 0.86454 0.08005 0.0
C1598 C 0.35549 0.9337 0.11689 0.0
C1599 C 0.37926 0.89985 0.10905 0.0
C1600 C 0.35431 0.95586 0.12354 0.0
C1601 C 0.3732 0.96598 0.13399 0.0
C1602 C 0.37591 0.9216 0.1203 0.0
C1603 C 0.39264 0.95289 0.13874 0.0
C1604 C 0.40019 0.88812 0.11058 0.0
C1605 C 0.36648 0.87531 0.08042 0.0
N1606 N 0.39369 0.93144 0.13145 0.0
N1607 N 0.3629 0.89263 0.09447 0.0
H1608 H 0.11077 0.63731 0.86461 0.0
H1609 H 0.14275 0.67638 0.98795 0.0
H1610 H 0.06672 0.67999 0.90384 0.0
H1611 H 0.19297 0.65195 0.9408 0.0
H1612 H 0.11307 0.67373 0.95915 0.0
H1613 H 0.1393 0.63802 0.89449 0.0
C1614 C 0.10699 0.64669 0.87958 0.0
C1615 C 0.08635 0.65872 0.88168 0.0
C1616 C 0.1306 0.66898 0.95513 0.0
C1617 C 0.11901 0.65959 0.91593 0.0
C1618 C 0.14755 0.67044 0.97156 0.0
C1619 C 0.17043 0.66443 0.96678 0.0
C1620 C 0.13648 0.6612 0.93384 0.0
C1621 C 0.17561 0.65688 0.94522 0.0
C1622 C 0.12336 0.64718 0.89658 0.0
C1623 C 0.08244 0.67058 0.90147 0.0
N1624 N 0.15875 0.6554 0.92958 0.0
N1625 N 0.09864 0.67073 0.91784 0.0
H1626 H 0.40669 0.04262 0.83846 0.0
H1627 H 0.34069 0.12806 0.91713 0.0
H1628 H 0.34091 0.03074 0.86989 0.0
H1629 H 0.40954 0.13943 0.89277 0.0
H1630 H 0.33677 0.09678 0.89152 0.0
H1631 H 0.40465 0.08168 0.85043 0.0
C1632 C 0.39167 0.0483 0.84754 0.0
C1633 C 0.37417 0.03333 0.85361 0.0
C1634 C 0.35264 0.10628 0.89143 0.0
C1635 C 0.37167 0.07781 0.86718 0.0
C1636 C 0.35484 0.12414 0.90604 0.0
C1637 C 0.3756 0.13592 0.90727 0.0
C1638 C 0.37157 0.09986 0.87831 0.0
C1639 C 0.39327 0.13059 0.89228 0.0
C1640 C 0.39052 0.07057 0.85437 0.0
C1641 C 0.35504 0.04158 0.86526 0.0
N1642 N 0.39108 0.11254 0.8787 0.0
N1643 N 0.35442 0.06317 0.87182 0.0
H1644 H 0.7863 0.33309 0.93391 0.0
H1645 H 0.91848 0.33757 0.89548 0.0
H1646 H 0.84337 0.32726 0.97977 0.0
H1647 H 0.86049 0.34563 0.85112 0.0
H1648 H 0.8916 0.3341 0.92678 0.0
H1649 H 0.8136 0.33741 0.90342 0.0
C1650 C 0.80457 0.33262 0.9376 0.0
C1651 C 0.8125 0.3298 0.9595 0.0
C1652 C 0.8848 0.33672 0.91019 0.0
C1653 C 0.84397 0.33489 0.92453 0.0
C1654 C 0.90013 0.33877 0.89234 0.0
C1655 C 0.89172 0.34183 0.87064 0.0
C1656 C 0.86093 0.3377 0.90626 0.0
C1657 C 0.86778 0.34322 0.86754 0.0
C1658 C 0.82018 0.33517 0.92014 0.0
C1659 C 0.83643 0.32938 0.96317 0.0
N1660 N 0.85327 0.34107 0.88511 0.0
N1661 N 0.85132 0.33192 0.94587 0.0
H1662 H 0.59888 0.84482 0.90068 0.0
H1663 H 0.66577 0.95688 0.87416 0.0
H1664 H 0.6653 0.86269 0.92737 0.0
H1665 H 0.5981 0.94206 0.84825 0.0
H1666 H 0.66951 0.91839 0.88621 0.0
H1667 H 0.60206 0.87558 0.8739 0.0
C1668 C 0.61444 0.8548 0.9004 0.0
C1669 C 0.63164 0.85166 0.91649 0.0
C1670 C 0.65391 0.92339 0.87765 0.0
C1671 C 0.63528 0.88683 0.88636 0.0
C1672 C 0.65175 0.94543 0.87082 0.0
C1673 C 0.63138 0.95278 0.86064 0.0
C1674 C 0.6354 0.90861 0.87471 0.0
C1675 C 0.61399 0.9371 0.85628 0.0
C1676 C 0.61617 0.87244 0.88528 0.0
C1677 C 0.65139 0.86501 0.9156 0.0
N1678 N 0.61619 0.91581 0.86376 0.0
N1679 N 0.65253 0.88221 0.90103 0.0
H1680 H 0.14352 0.08183 0.35189 0.0
H1681 H 0.01244 0.11713 0.33001 0.0
H1682 H 0.09742 0.04407 0.30988 0.0
H1683 H 0.06447 0.16166 0.35583 0.0
H1684 H 0.04153 0.08765 0.32757 0.0
H1685 H 0.11266 0.10859 0.35874 0.0
C1686 C 0.12686 0.07906 0.34424 0.0
C1687 C 0.12311 0.06078 0.33012 0.0
C1688 C 0.0465 0.10387 0.33384 0.0
C1689 C 0.08771 0.0914 0.33791 0.0
C1690 C 0.02991 0.12068 0.33531 0.0
C1691 C 0.03606 0.14196 0.34298 0.0
C1692 C 0.0693 0.10832 0.34033 0.0
C1693 C 0.05897 0.14559 0.34961 0.0
C1694 C 0.10927 0.0944 0.3481 0.0
C1695 C 0.10112 0.05803 0.32073 0.0
N1696 N 0.07473 0.12895 0.34812 0.0
N1697 N 0.08425 0.07322 0.32473 0.0
H1698 H 0.87447 0.15001 0.35302 0.0
H1699 H 0.85662 0.01988 0.33011 0.0
H1700 H 0.93066 0.10376 0.3438 0.0
H1701 H 0.80068 0.06686 0.33715 0.0
H1702 H 0.88402 0.05006 0.3364 0.0
H1703 H 0.84724 0.11931 0.34912 0.0
C1704 C 0.8811 0.13337 0.35032 0.0
C1705 C 0.90489 0.12947 0.34862 0.0
C1706 C 0.86575 0.05376 0.33656 0.0
C1707 C 0.87376 0.09423 0.34398 0.0
C1708 C 0.85006 0.03653 0.33292 0.0
C1709 C 0.82625 0.04081 0.33304 0.0
C1710 C 0.85762 0.07545 0.34037 0.0
C1711 C 0.81884 0.06274 0.33684 0.0
C1712 C 0.86553 0.11584 0.34803 0.0
C1713 C 0.91247 0.10754 0.34517 0.0
N1714 N 0.83447 0.07922 0.34035 0.0
N1715 N 0.89694 0.09076 0.34286 0.0
H1716 H 0.87935 0.94354 0.3308 0.0
H1717 H 0.92574 0.82381 0.36694 0.0
H1718 H 0.8392 0.89477 0.36667 0.0
H1719 H 0.97032 0.87432 0.33926 0.0
H1720 H 0.89429 0.85043 0.36753 0.0
H1721 H 0.91328 0.91948 0.33449 0.0
C1722 C 0.8777 0.92788 0.33961 0.0
C1723 C 0.85634 0.92107 0.34828 0.0
C1724 C 0.91094 0.85582 0.36141 0.0
C1725 C 0.895 0.89349 0.35243 0.0
C1726 C 0.92896 0.84055 0.36098 0.0
C1727 C 0.95071 0.84676 0.35286 0.0
C1728 C 0.91448 0.87752 0.35347 0.0
C1729 C 0.95382 0.86881 0.34561 0.0
C1730 C 0.89707 0.91417 0.34169 0.0
C1731 C 0.85524 0.90066 0.35958 0.0
N1732 N 0.93582 0.88337 0.34591 0.0
N1733 N 0.87422 0.88757 0.36117 0.0
H1734 H 0.12943 0.98325 0.31553 0.0
H1735 H 0.08457 0.86664 0.36198 0.0
H1736 H 0.17487 0.93155 0.33941 0.0
H1737 H 0.04514 0.90604 0.31543 0.0
H1738 H 0.11595 0.8936 0.3594 0.0
H1739 H 0.09667 0.95801 0.32037 0.0
C1740 C 0.13253 0.96661 0.32181 0.0
C1741 C 0.15496 0.95947 0.327 0.0
C1742 C 0.10038 0.89639 0.34984 0.0
C1743 C 0.11752 0.9307 0.33282 0.0
C1744 C 0.08237 0.8811 0.35141 0.0
C1745 C 0.06221 0.88402 0.33879 0.0
C1746 C 0.09816 0.9149 0.33577 0.0
C1747 C 0.06041 0.90307 0.32535 0.0
C1748 C 0.11383 0.95223 0.32452 0.0
C1749 C 0.15792 0.93772 0.33505 0.0
N1750 N 0.07819 0.91781 0.32418 0.0
N1751 N 0.1394 0.92414 0.33782 0.0
H1752 H 0.01507 0.87999 0.66332 0.0
H1753 H 0.14358 0.91687 0.63192 0.0
H1754 H 0.06428 0.83801 0.62943 0.0
H1755 H 0.10303 0.95111 0.68159 0.0
H1756 H 0.11159 0.89136 0.62567 0.0
H1757 H 0.04434 0.90949 0.66529 0.0
C1758 C 0.03193 0.87704 0.65615 0.0
C1759 C 0.03731 0.85644 0.64636 0.0
C1760 C 0.10963 0.90452 0.63787 0.0
C1761 C 0.07065 0.89005 0.64842 0.0
C1762 C 0.12788 0.91916 0.64141 0.0
C1763 C 0.1261 0.93603 0.6575 0.0
C1764 C 0.08935 0.90674 0.65041 0.0
C1765 C 0.10522 0.93823 0.66915 0.0
C1766 C 0.04861 0.89383 0.65734 0.0
C1767 C 0.05942 0.85351 0.63735 0.0
N1768 N 0.08766 0.92365 0.66547 0.0
N1769 N 0.07524 0.8701 0.63861 0.0
H1770 H 0.14118 0.01375 0.6618 0.0
H1771 H 0.11847 0.14483 0.65174 0.0
H1772 H 0.19521 0.06325 0.65973 0.0
H1773 H 0.06391 0.09594 0.6537 0.0
H1774 H 0.14675 0.11495 0.65431 0.0
H1775 H 0.11257 0.04344 0.65886 0.0
C1776 C 0.14706 0.03084 0.66079 0.0
C1777 C 0.1707 0.03597 0.66101 0.0
C1778 C 0.1286 0.11072 0.65414 0.0
C1779 C 0.13796 0.07004 0.65756 0.0
C1780 C 0.11241 0.12779 0.65264 0.0
C1781 C 0.08876 0.12289 0.65253 0.0
C1782 C 0.12114 0.08852 0.65557 0.0
C1783 C 0.08197 0.10048 0.65373 0.0
C1784 C 0.13069 0.04779 0.65907 0.0
C1785 C 0.17722 0.05845 0.65963 0.0
N1786 N 0.09809 0.08412 0.65524 0.0
N1787 N 0.16096 0.07462 0.65794 0.0
H1788 H 0.97856 0.10757 0.66314 0.0
H1789 H 0.84964 0.07165 0.63184 0.0
H1790 H 0.93008 0.14962 0.6284 0.0
H1791 H 0.89101 0.03634 0.68006 0.0
H1792 H 0.88177 0.09695 0.62523 0.0
H1793 H 0.9493 0.0781 0.66446 0.0
C1794 C 0.96188 0.11053 0.65559 0.0
C1795 C 0.95669 0.13118 0.64582 0.0
C1796 C 0.88389 0.08359 0.63717 0.0
C1797 C 0.92327 0.09758 0.64723 0.0
C1798 C 0.86555 0.06907 0.64092 0.0
C1799 C 0.86752 0.05197 0.65673 0.0
C1800 C 0.90444 0.08101 0.64924 0.0
C1801 C 0.88866 0.0494 0.66786 0.0
C1802 C 0.94518 0.09374 0.65643 0.0
C1803 C 0.93478 0.13408 0.63632 0.0
N1804 N 0.90627 0.06387 0.66401 0.0
N1805 N 0.9189 0.11752 0.63732 0.0
H1806 H 0.93049 0.89308 0.64746 0.0
H1807 H 0.79712 0.92524 0.6605 0.0
H1808 H 0.87535 0.84506 0.6527 0.0
H1809 H 0.85185 0.97401 0.65841 0.0
H1810 H 0.8257 0.89577 0.65668 0.0
H1811 H 0.90206 0.92311 0.65022 0.0
C1812 C 0.91242 0.88885 0.6491 0.0
C1813 C 0.9053 0.86651 0.64989 0.0
C1814 C 0.83148 0.91291 0.65706 0.0
C1815 C 0.87272 0.90075 0.65312 0.0
C1816 C 0.81514 0.92979 0.65925 0.0
C1817 C 0.82203 0.9522 0.6598 0.0
C1818 C 0.85496 0.91839 0.65535 0.0
C1819 C 0.84569 0.95699 0.6581 0.0
C1820 C 0.89621 0.90599 0.65072 0.0
C1821 C 0.88166 0.86201 0.65205 0.0
N1822 N 0.8613 0.94023 0.65594 0.0
N1823 N 0.86626 0.87896 0.65362 0.0
H1824 H 0.40848 0.10722 0.13576 0.0
H1825 H 0.3293 0.13139 0.03088 0.0
H1826 H 0.34128 0.07881 0.12453 0.0
H1827 H 0.39807 0.15781 0.03812 0.0
H1828 H 0.32985 0.12017 0.06981 0.0
H1829 H 0.4014 0.13377 0.10536 0.0
C1830 C 0.39195 0.10711 0.12736 0.0
C1831 C 0.37557 0.09066 0.13223 0.0
C1832 C 0.34476 0.12869 0.06306 0.0
C1833 C 0.36749 0.12047 0.09749 0.0
C1834 C 0.34445 0.13506 0.04078 0.0
C1835 C 0.36386 0.14508 0.03116 0.0
C1836 C 0.36481 0.13193 0.07576 0.0
C1837 C 0.38283 0.14988 0.04487 0.0
C1838 C 0.38798 0.12209 0.10992 0.0
C1839 C 0.35452 0.09097 0.12086 0.0
N1840 N 0.38304 0.14281 0.06641 0.0
N1841 N 0.3512 0.10541 0.10382 0.0
H1842 H 0.42332 0.89603 0.85247 0.0
H1843 H 0.34432 0.86494 0.95547 0.0
H1844 H 0.35327 0.91787 0.86185 0.0
H1845 H 0.41531 0.84437 0.94976 0.0
H1846 H 0.34467 0.87595 0.91649 0.0
H1847 H 0.4181 0.86886 0.88266 0.0
C1848 C 0.40662 0.89455 0.86041 0.0
C1849 C 0.3888 0.90936 0.8551 0.0
C1850 C 0.36013 0.86875 0.92357 0.0
C1851 C 0.38279 0.87884 0.8896 0.0
C1852 C 0.35993 0.8625 0.94587 0.0
C1853 C 0.37996 0.8542 0.95593 0.0
C1854 C 0.38068 0.8672 0.9113 0.0
C1855 C 0.39957 0.85094 0.94264 0.0
C1856 C 0.40369 0.87921 0.87773 0.0
C1857 C 0.36756 0.90702 0.86588 0.0
N1858 N 0.39962 0.85792 0.92106 0.0
N1859 N 0.36524 0.89229 0.88282 0.0
H1860 H 0.00527 0.33371 0.87154 0.0
H1861 H 0.14083 0.3591 0.87622 0.0
H1862 H 0.04731 0.34998 0.81444 0.0
H1863 H 0.10283 0.33368 0.93257 0.0
H1864 H 0.10541 0.35928 0.8545 0.0
H1865 H 0.03966 0.33654 0.89521 0.0
C1866 C 0.02165 0.3379 0.86397 0.0
C1867 C 0.02336 0.3415 0.84091 0.0
C1868 C 0.10474 0.35372 0.87164 0.0
C1869 C 0.06264 0.34489 0.86788 0.0
C1870 C 0.125 0.35367 0.8841 0.0
C1871 C 0.12487 0.34622 0.90623 0.0
C1872 C 0.08408 0.34626 0.88131 0.0
C1873 C 0.10375 0.33947 0.91553 0.0
C1874 C 0.04126 0.3395 0.87749 0.0
C1875 C 0.04507 0.34691 0.83207 0.0
N1876 N 0.0842 0.33956 0.90299 0.0
N1877 N 0.06377 0.34843 0.84553 0.0
H1878 H 0.64618 0.11679 0.96916 0.0
H1879 H 0.64574 0.07185 0.86562 0.0
H1880 H 0.57951 0.14524 0.95487 0.0
H1881 H 0.5725 0.08334 0.86709 0.0
H1882 H 0.65074 0.09916 0.89526 0.0
H1883 H 0.64841 0.10311 0.93148 0.0
C1884 C 0.63213 0.12052 0.95788 0.0
C1885 C 0.61248 0.13191 0.9653 0.0
C1886 C 0.63349 0.09575 0.88934 0.0
C1887 C 0.61508 0.11663 0.92133 0.0
C1888 C 0.63075 0.08045 0.87209 0.0
C1889 C 0.6087 0.0753 0.86423 0.0
C1890 C 0.61387 0.10515 0.89945 0.0
C1891 C 0.58979 0.08695 0.87286 0.0
C1892 C 0.63354 0.11292 0.93605 0.0
C1893 C 0.59494 0.13643 0.94985 0.0
N1894 N 0.59274 0.10101 0.89041 0.0
N1895 N 0.59646 0.1284 0.92867 0.0
H1896 H 0.00153 0.66235 0.87179 0.0
H1897 H 0.87021 0.63475 0.90202 0.0
H1898 H 0.95183 0.63659 0.82481 0.0
H1899 H 0.9134 0.67645 0.94319 0.0
H1900 H 0.90209 0.63042 0.8759 0.0
H1901 H 0.97135 0.66305 0.90038 0.0
C1902 C 0.98434 0.65674 0.86751 0.0
C1903 C 0.97918 0.64955 0.84581 0.0
C1904 C 0.90463 0.64046 0.89069 0.0
C1905 C 0.94472 0.65017 0.87842 0.0
C1906 C 0.88645 0.64288 0.90567 0.0
C1907 C 0.88907 0.65614 0.92475 0.0
C1908 C 0.92568 0.65124 0.89484 0.0
C1909 C 0.91056 0.66621 0.92861 0.0
C1910 C 0.96714 0.6572 0.88381 0.0
C1911 C 0.9566 0.64246 0.84122 0.0
N1912 N 0.92805 0.66361 0.91374 0.0
N1913 N 0.94024 0.64295 0.85737 0.0
H1914 H 0.5844 0.88964 0.14108 0.0
H1915 H 0.67144 0.86617 0.04165 0.0
H1916 H 0.64931 0.92308 0.13127 0.0
H1917 H 0.6047 0.83485 0.04689 0.0
H1918 H 0.66736 0.87993 0.07957 0.0
H1919 H 0.59521 0.86253 0.11218 0.0
C1920 C 0.60118 0.89085 0.13326 0.0
C1921 C 0.61585 0.90876 0.13808 0.0
C1922 C 0.65369 0.86981 0.0726 0.0
C1923 C 0.62819 0.87826 0.10514 0.0
C1924 C 0.65601 0.86196 0.05091 0.0
C1925 C 0.63816 0.84977 0.04095 0.0
C1926 C 0.63317 0.8658 0.08436 0.0
C1927 C 0.61877 0.84442 0.05388 0.0
C1928 C 0.60728 0.87553 0.1167 0.0
C1929 C 0.63732 0.9098 0.12754 0.0
N1930 N 0.61655 0.85287 0.07481 0.0
N1931 N 0.64273 0.89494 0.11137 0.0
H1932 H 0.02663 0.65075 0.12532 0.0
H1933 H 0.1634 0.63462 0.11635 0.0
H1934 H 0.07116 0.63556 0.18094 0.0
H1935 H 0.12207 0.66054 0.06247 0.0
H1936 H 0.12873 0.63113 0.13897 0.0
H1937 H 0.06047 0.651 0.10084 0.0
C1938 C 0.04346 0.6474 0.13238 0.0
C1939 C 0.04604 0.64325 0.15527 0.0
C1940 C 0.12719 0.63753 0.12218 0.0
C1941 C 0.08472 0.64341 0.12737 0.0
C1942 C 0.14701 0.63948 0.10922 0.0
C1943 C 0.14568 0.64803 0.08752 0.0
C1944 C 0.1058 0.64413 0.11343 0.0
C1945 C 0.12391 0.65397 0.07916 0.0
C1946 C 0.06276 0.64758 0.11841 0.0
C1947 C 0.06828 0.639 0.16347 0.0
N1948 N 0.10481 0.65198 0.09217 0.0
N1949 N 0.0867 0.6392 0.14955 0.0
H1950 H 0.96583 0.33723 0.11488 0.0
H1951 H 0.83128 0.36586 0.10564 0.0
H1952 H 0.92385 0.36095 0.16935 0.0
H1953 H 0.86834 0.33059 0.0542 0.0
H1954 H 0.8667 0.36833 0.12725 0.0
H1955 H 0.93179 0.33847 0.09061 0.0
C1956 C 0.94953 0.34279 0.12171 0.0
C1957 C 0.94769 0.34884 0.14424 0.0
C1958 C 0.86715 0.36011 0.11121 0.0
C1959 C 0.90883 0.35041 0.1166 0.0
C1960 C 0.8469 0.35874 0.09881 0.0
C1961 C 0.84677 0.34784 0.07815 0.0
C1962 C 0.88752 0.35055 0.10293 0.0
C1963 C 0.86763 0.33904 0.07012 0.0
C1964 C 0.93013 0.34345 0.10787 0.0
C1965 C 0.92612 0.35593 0.15217 0.0
N1966 N 0.88717 0.34049 0.08258 0.0
N1967 N 0.90761 0.35649 0.1384 0.0
H1968 H 0.63643 0.82914 0.51561 0.0
H1969 H 0.62359 0.84732 0.64711 0.0
H1970 H 0.69386 0.83355 0.56122 0.0
H1971 H 0.56541 0.84169 0.60259 0.0
H1972 H 0.64949 0.84354 0.6154 0.0
H1973 H 0.61003 0.8344 0.54691 0.0
C1974 C 0.64352 0.83114 0.53218 0.0
C1975 C 0.66745 0.83087 0.53575 0.0
C1976 C 0.63106 0.84319 0.61252 0.0
C1977 C 0.6373 0.83702 0.57162 0.0
C1978 C 0.61624 0.84541 0.63064 0.0
C1979 C 0.59228 0.84474 0.62752 0.0
C1980 C 0.62191 0.84024 0.59107 0.0
C1981 C 0.58377 0.84226 0.60577 0.0
C1982 C 0.62841 0.8342 0.55004 0.0
C1983 C 0.67558 0.83361 0.55761 0.0
N1984 N 0.59859 0.84002 0.58836 0.0
N1985 N 0.66055 0.83658 0.57467 0.0
H1986 H 0.1039 0.54204 0.65416 0.0
H1987 H 0.0864 0.63914 0.59325 0.0
H1988 H 0.1645 0.53502 0.61303 0.0
H1989 H 0.15388 0.6268 0.56604 0.0
H1990 H 0.09256 0.60933 0.62023 0.0
H1991 H 0.1001 0.58051 0.64163 0.0
C1992 C 0.11649 0.54865 0.6426 0.0
C1993 C 0.13421 0.53509 0.63421 0.0
C1994 C 0.10637 0.61336 0.60886 0.0
C1995 C 0.12985 0.57911 0.61943 0.0
C1996 C 0.10283 0.63057 0.59351 0.0
C1997 C 0.11949 0.63498 0.57722 0.0
C1998 C 0.12678 0.60068 0.60776 0.0
C1999 C 0.14039 0.62343 0.57802 0.0
C2000 C 0.11424 0.57068 0.63529 0.0
C2001 C 0.15023 0.54462 0.61956 0.0
N2002 N 0.14331 0.60663 0.5928 0.0
N2003 N 0.14751 0.56589 0.61253 0.0
H2004 H 0.36609 0.16041 0.51202 0.0
H2005 H 0.37709 0.13277 0.64197 0.0
H2006 H 0.30849 0.14589 0.55525 0.0
H2007 H 0.43429 0.1566 0.60261 0.0
H2008 H 0.35264 0.13424 0.6091 0.0
H2009 H 0.39211 0.15643 0.54391 0.0
C2010 C 0.35889 0.1564 0.52817 0.0
C2011 C 0.33502 0.15355 0.53092 0.0
C2012 C 0.37055 0.1391 0.60758 0.0
C2013 C 0.36471 0.14884 0.56739 0.0
C2014 C 0.38458 0.13819 0.62636 0.0
C2015 C 0.40776 0.1447 0.62509 0.0
C2016 C 0.3797 0.14656 0.58726 0.0
C2017 C 0.41648 0.15149 0.60435 0.0
C2018 C 0.37377 0.15413 0.54635 0.0
C2019 C 0.32672 0.14834 0.55226 0.0
N2020 N 0.4024 0.15234 0.58624 0.0
N2021 N 0.34153 0.14614 0.5696 0.0
H2022 H 0.924 0.35181 0.59774 0.0
H2023 H 0.84804 0.45759 0.62505 0.0
H2024 H 0.85309 0.36036 0.57828 0.0
H2025 H 0.91807 0.4502 0.64804 0.0
H2026 H 0.84737 0.41836 0.61508 0.0
H2027 H 0.91999 0.38325 0.62367 0.0
C2028 C 0.90737 0.35981 0.59958 0.0
C2029 C 0.88892 0.35389 0.58572 0.0
C2030 C 0.86286 0.42514 0.62253 0.0
C2031 C 0.88432 0.38988 0.61472 0.0
C2032 C 0.86327 0.4476 0.62813 0.0
C2033 C 0.88331 0.45722 0.63691 0.0
C2034 C 0.88284 0.4122 0.62522 0.0
C2035 C 0.90236 0.44342 0.64105 0.0
C2036 C 0.90513 0.37786 0.61418 0.0
C2037 C 0.86781 0.36479 0.58843 0.0
N2038 N 0.90184 0.42164 0.63472 0.0
N2039 N 0.86617 0.38248 0.60237 0.0
H2040 H 0.55337 0.18508 0.4026 0.0
H2041 H 0.68062 0.15346 0.44051 0.0
H2042 H 0.59534 0.1363 0.36871 0.0
H2043 H 0.63106 0.18145 0.48632 0.0
H2044 H 0.65037 0.1505 0.41244 0.0
H2045 H 0.58218 0.18671 0.43246 0.0
C2046 C 0.5685 0.17458 0.40153 0.0
C2047 C 0.57198 0.1606 0.38309 0.0
C2048 C 0.64611 0.15726 0.42865 0.0
C2049 C 0.60506 0.16268 0.4169 0.0
C2050 C 0.66341 0.15911 0.44465 0.0
C2051 C 0.65838 0.16772 0.46582 0.0
C2052 C 0.62365 0.16433 0.43371 0.0
C2053 C 0.63569 0.17464 0.47023 0.0
C2054 C 0.58492 0.17553 0.41855 0.0
C2055 C 0.59191 0.14733 0.38258 0.0
N2056 N 0.61916 0.1729 0.45426 0.0
N2057 N 0.60779 0.14888 0.39911 0.0
H2058 H 0.90847 0.54329 0.34324 0.0
H2059 H 0.85026 0.63492 0.42039 0.0
H2060 H 0.841 0.53827 0.37312 0.0
H2061 H 0.92051 0.63918 0.39759 0.0
H2062 H 0.84336 0.6046 0.39418 0.0
H2063 H 0.91018 0.58253 0.35467 0.0
C2064 C 0.89386 0.55054 0.35183 0.0
C2065 C 0.87478 0.5374 0.35769 0.0
C2066 C 0.8602 0.6124 0.3945 0.0
C2067 C 0.87656 0.5821 0.37065 0.0
C2068 C 0.86407 0.62976 0.40939 0.0
C2069 C 0.88601 0.63923 0.4112 0.0
C2070 C 0.87861 0.60408 0.38177 0.0
C2071 C 0.90334 0.63218 0.39656 0.0
C2072 C 0.89486 0.5729 0.35836 0.0
C2073 C 0.85628 0.54764 0.3687 0.0
N2074 N 0.89944 0.6146 0.38274 0.0
N2075 N 0.85775 0.56927 0.375 0.0
H2076 H 0.31844 0.84805 0.43356 0.0
H2077 H 0.4498 0.82356 0.4051 0.0
H2078 H 0.36558 0.82149 0.48247 0.0
H2079 H 0.40842 0.87114 0.36895 0.0
H2080 H 0.41894 0.82034 0.43279 0.0
H2081 H 0.35079 0.85367 0.40818 0.0
C2082 C 0.33557 0.84328 0.43893 0.0
C2083 C 0.33928 0.83425 0.46018 0.0
C2084 C 0.41677 0.83164 0.41889 0.0
C2085 C 0.3764 0.84067 0.43117 0.0
C2086 C 0.43437 0.83351 0.40311 0.0
C2087 C 0.43165 0.84755 0.38461 0.0
C2088 C 0.39622 0.84363 0.41593 0.0
C2089 C 0.41129 0.86008 0.3829 0.0
C2090 C 0.35405 0.84666 0.42449 0.0
C2091 C 0.36192 0.82854 0.46627 0.0
N2092 N 0.39425 0.85762 0.3982 0.0
N2093 N 0.37963 0.83173 0.45178 0.0
H2094 H 0.08528 0.4414 0.34468 0.0
H2095 H 0.15076 0.35486 0.42261 0.0
H2096 H 0.15401 0.44956 0.37091 0.0
H2097 H 0.07889 0.34868 0.40566 0.0
H2098 H 0.15487 0.38407 0.39471 0.0
H2099 H 0.08511 0.40286 0.3585 0.0
C2100 C 0.10047 0.43495 0.35294 0.0
C2101 C 0.11951 0.44878 0.35708 0.0
C2102 C 0.13824 0.37612 0.39673 0.0
C2103 C 0.1195 0.40493 0.37272 0.0
C2104 C 0.13595 0.35941 0.41262 0.0
C2105 C 0.1144 0.34973 0.41657 0.0
C2106 C 0.1187 0.38356 0.38508 0.0
C2107 C 0.09578 0.35588 0.40303 0.0
C2108 C 0.10035 0.41301 0.36085 0.0
C2109 C 0.13878 0.43962 0.36778 0.0
N2110 N 0.09821 0.37284 0.38816 0.0
N2111 N 0.13818 0.41838 0.37538 0.0
H2112 H 0.66963 0.60572 0.85965 0.0
H2113 H 0.53314 0.62133 0.84634 0.0
H2114 H 0.62517 0.55517 0.83184 0.0
H2115 H 0.58023 0.67407 0.86442 0.0
H2116 H 0.5658 0.59551 0.84448 0.0
H2117 H 0.63612 0.62959 0.86519 0.0
C2118 C 0.6528 0.59958 0.8548 0.0
C2119 C 0.65024 0.57846 0.84512 0.0
C2120 C 0.56891 0.61273 0.84892 0.0
C2121 C 0.61172 0.60578 0.8514 0.0
C2122 C 0.55028 0.62747 0.85003 0.0
C2123 C 0.55393 0.64996 0.85541 0.0
C2124 C 0.5913 0.62052 0.85335 0.0
C2125 C 0.57655 0.65694 0.86003 0.0
C2126 C 0.63365 0.61325 0.85793 0.0
C2127 C 0.62796 0.57138 0.83925 0.0
N2128 N 0.59432 0.64231 0.85886 0.0
N2129 N 0.60955 0.58505 0.84241 0.0
H2130 H 0.44664 0.60231 0.85604 0.0
H2131 H 0.31235 0.57319 0.85029 0.0
H2132 H 0.39249 0.64819 0.8742 0.0
H2133 H 0.36588 0.52398 0.84138 0.0
H2134 H 0.34176 0.6008 0.85915 0.0
H2135 H 0.41764 0.57305 0.85126 0.0
C2136 C 0.42871 0.60617 0.85926 0.0
C2137 C 0.42197 0.62778 0.86536 0.0
C2138 C 0.34709 0.58395 0.85533 0.0
C2139 C 0.38873 0.5945 0.8597 0.0
C2140 C 0.33028 0.56817 0.85017 0.0
C2141 C 0.33662 0.54621 0.84498 0.0
C2142 C 0.37046 0.57783 0.85518 0.0
C2143 C 0.36017 0.5407 0.84524 0.0
C2144 C 0.41216 0.58948 0.85647 0.0
C2145 C 0.39849 0.63182 0.86934 0.0
N2146 N 0.37624 0.55643 0.85015 0.0
N2147 N 0.38273 0.61541 0.86626 0.0
H2148 H 0.40359 0.46209 0.82342 0.0
H2149 H 0.43228 0.34215 0.87244 0.0
H2150 H 0.35733 0.4247 0.86555 0.0
H2151 H 0.484 0.38394 0.84199 0.0
H2152 H 0.40506 0.37293 0.87075 0.0
H2153 H 0.43383 0.43462 0.83083 0.0
C2154 C 0.39985 0.44824 0.83439 0.0
C2155 C 0.37781 0.44557 0.84369 0.0
C2156 C 0.4224 0.37548 0.86458 0.0
C2157 C 0.41224 0.41406 0.85209 0.0
C2158 C 0.43796 0.35785 0.86546 0.0
C2159 C 0.46042 0.36039 0.85716 0.0
C2160 C 0.42918 0.3958 0.85507 0.0
C2161 C 0.46684 0.38123 0.84853 0.0
C2162 C 0.41712 0.43259 0.83862 0.0
C2163 C 0.37399 0.42737 0.85787 0.0
N2164 N 0.4512 0.39809 0.84748 0.0
N2165 N 0.39094 0.41222 0.86145 0.0
H2166 H 0.55167 0.40881 0.82095 0.0
H2167 H 0.68607 0.43052 0.83884 0.0
H2168 H 0.59478 0.36693 0.86194 0.0
H2169 H 0.63922 0.48147 0.81587 0.0
H2170 H 0.65326 0.40561 0.8445 0.0
H2171 H 0.58393 0.43471 0.8166 0.0
C2172 C 0.56785 0.40514 0.82917 0.0
C2173 C 0.57054 0.38566 0.84179 0.0
C2174 C 0.65019 0.42226 0.83825 0.0
C2175 C 0.60757 0.41502 0.83661 0.0
C2176 C 0.66892 0.43644 0.83487 0.0
C2177 C 0.66541 0.45814 0.82687 0.0
C2178 C 0.6278 0.42971 0.83336 0.0
C2179 C 0.64275 0.46492 0.82214 0.0
C2180 C 0.58625 0.41992 0.82667 0.0
C2181 C 0.5919 0.38176 0.85209 0.0
N2182 N 0.62482 0.45073 0.82538 0.0
N2183 N 0.60965 0.39621 0.84911 0.0
H2184 H 0.57022 0.32618 0.11727 0.0
H2185 H 0.61357 0.44371 0.16289 0.0
H2186 H 0.52445 0.3734 0.14869 0.0
H2187 H 0.6549 0.39916 0.12298 0.0
H2188 H 0.58022 0.41933 0.15697 0.0
H2189 H 0.60091 0.35369 0.11834 0.0
C2190 C 0.56658 0.3424 0.12435 0.0
C2191 C 0.54475 0.34741 0.13308 0.0
C2192 C 0.59656 0.41504 0.14937 0.0
C2193 C 0.58006 0.37913 0.13446 0.0
C2194 C 0.6156 0.42893 0.15275 0.0
C2195 C 0.63713 0.42336 0.14359 0.0
C2196 C 0.59913 0.39542 0.13685 0.0
C2197 C 0.63872 0.40405 0.13052 0.0
C2198 C 0.58415 0.35817 0.1249 0.0
C2199 C 0.54104 0.36882 0.14181 0.0
N2200 N 0.62005 0.39073 0.1277 0.0
N2201 N 0.55861 0.38385 0.14248 0.0
H2202 H 0.63522 0.521 0.1676 0.0
H2203 H 0.61681 0.65179 0.14951 0.0
H2204 H 0.69075 0.56879 0.16348 0.0
H2205 H 0.56059 0.60487 0.15408 0.0
H2206 H 0.64403 0.62127 0.154 0.0
H2207 H 0.60756 0.55124 0.16257 0.0
C2208 C 0.64163 0.53784 0.16573 0.0
C2209 C 0.66541 0.54232 0.16597 0.0
C2210 C 0.62575 0.6176 0.15398 0.0
C2211 C 0.63376 0.577 0.16007 0.0
C2212 C 0.61016 0.63503 0.15136 0.0
C2213 C 0.58635 0.63089 0.15146 0.0
C2214 C 0.61754 0.59578 0.15674 0.0
C2215 C 0.5788 0.60882 0.1539 0.0
C2216 C 0.6258 0.55509 0.1628 0.0
C2217 C 0.67263 0.56449 0.16341 0.0
N2218 N 0.59435 0.59208 0.15651 0.0
N2219 N 0.65688 0.58096 0.16055 0.0
H2220 H 0.47427 0.62281 0.15811 0.0
H2221 H 0.33984 0.60309 0.13457 0.0
H2222 H 0.42798 0.67301 0.13258 0.0
H2223 H 0.38288 0.555 0.16814 0.0
H2224 H 0.37321 0.62739 0.13032 0.0
H2225 H 0.44218 0.59626 0.15863 0.0
C2226 C 0.45744 0.62823 0.15249 0.0
C2227 C 0.45381 0.65025 0.14543 0.0
C2228 C 0.3754 0.61149 0.13857 0.0
C2229 C 0.41709 0.61997 0.14597 0.0
C2230 C 0.35633 0.59758 0.14097 0.0
C2231 C 0.35851 0.57703 0.15187 0.0
C2232 C 0.39688 0.60486 0.1471 0.0
C2233 C 0.38038 0.57075 0.15973 0.0
C2234 C 0.43912 0.61308 0.15284 0.0
C2235 C 0.43161 0.6563 0.13833 0.0
N2236 N 0.39872 0.58466 0.15727 0.0
N2237 N 0.41414 0.64128 0.13883 0.0
H2238 H 0.45342 0.40331 0.17275 0.0
H2239 H 0.32069 0.42998 0.15096 0.0
H2240 H 0.41078 0.365 0.12792 0.0
H2241 H 0.368 0.47858 0.17789 0.0
H2242 H 0.35303 0.40458 0.14503 0.0
H2243 H 0.42198 0.4302 0.1769 0.0
C2244 C 0.43754 0.40065 0.16363 0.0
C2245 C 0.43472 0.38184 0.15002 0.0
C2246 C 0.35632 0.42083 0.1522 0.0
C2247 C 0.39861 0.41232 0.15497 0.0
C2248 C 0.33785 0.43529 0.15573 0.0
C2249 C 0.34161 0.45646 0.16495 0.0
C2250 C 0.37871 0.42745 0.15818 0.0
C2251 C 0.36428 0.46245 0.17068 0.0
C2252 C 0.41961 0.41599 0.16602 0.0
C2253 C 0.41376 0.37926 0.13859 0.0
N2254 N 0.38195 0.44798 0.16729 0.0
N2255 N 0.39644 0.3942 0.14149 0.0
H2256 H 0.92168 0.59886 0.63849 0.0
H2257 H 0.84263 0.62697 0.53433 0.0
H2258 H 0.85483 0.57036 0.62565 0.0
H2259 H 0.91119 0.65352 0.5428 0.0
H2260 H 0.84336 0.61379 0.57262 0.0
H2261 H 0.91468 0.62637 0.60893 0.0
C2262 C 0.90526 0.59887 0.62989 0.0
C2263 C 0.88895 0.58216 0.63406 0.0
C2264 C 0.85818 0.62274 0.56629 0.0
C2265 C 0.88095 0.61311 0.60032 0.0
C2266 C 0.85778 0.63024 0.54438 0.0
C2267 C 0.87708 0.64091 0.53526 0.0
C2268 C 0.87822 0.62551 0.57912 0.0
C2269 C 0.89604 0.64514 0.54916 0.0
C2270 C 0.90134 0.61441 0.61294 0.0
C2271 C 0.86804 0.58267 0.62248 0.0
N2272 N 0.89635 0.637 0.57032 0.0
N2273 N 0.86475 0.5977 0.60595 0.0
H2274 H 0.84495 0.42446 0.37169 0.0
H2275 H 0.90537 0.33794 0.45277 0.0
H2276 H 0.91167 0.39583 0.35859 0.0
H2277 H 0.84024 0.37039 0.46518 0.0
H2278 H 0.90432 0.35181 0.41434 0.0
H2279 H 0.83897 0.39733 0.40129 0.0
C2280 C 0.85819 0.41217 0.37488 0.0
C2281 C 0.879 0.41258 0.36313 0.0
C2282 C 0.89008 0.35554 0.42539 0.0
C2283 C 0.87262 0.38178 0.39727 0.0
C2284 C 0.89066 0.34761 0.4473 0.0
C2285 C 0.87312 0.35347 0.4623 0.0
C2286 C 0.87179 0.36928 0.41855 0.0
C2287 C 0.8544 0.36591 0.45433 0.0
C2288 C 0.8548 0.39665 0.39177 0.0
C2289 C 0.89542 0.39603 0.36746 0.0
N2290 N 0.85437 0.37359 0.43312 0.0
N2291 N 0.89213 0.38155 0.3846 0.0
H2292 H 0.5658 0.86692 0.31796 0.0
H2293 H 0.61246 0.83312 0.43851 0.0
H2294 H 0.52043 0.84618 0.37107 0.0
H2295 H 0.65422 0.86257 0.3868 0.0
H2296 H 0.57834 0.83794 0.41484 0.0
H2297 H 0.59815 0.86543 0.34356 0.0
C2298 C 0.56259 0.86206 0.33505 0.0
C2299 C 0.5403 0.85655 0.3423 0.0
C2300 C 0.59497 0.84346 0.40878 0.0
C2301 C 0.57758 0.85476 0.3719 0.0
C2302 C 0.61445 0.84072 0.42227 0.0
C2303 C 0.63628 0.84733 0.41458 0.0
C2304 C 0.5974 0.85277 0.38744 0.0
C2305 C 0.63781 0.85712 0.39342 0.0
C2306 C 0.58114 0.86128 0.34973 0.0
C2307 C 0.53731 0.85056 0.36474 0.0
N2308 N 0.6187 0.85941 0.38059 0.0
N2309 N 0.55578 0.84967 0.37874 0.0
H2310 H 0.09072 0.64862 0.44592 0.0
H2311 H 0.14842 0.56296 0.3622 0.0
H2312 H 0.15894 0.62088 0.45292 0.0
H2313 H 0.07968 0.58854 0.35329 0.0
H2314 H 0.15553 0.59125 0.3905 0.0
H2315 H 0.08903 0.63378 0.40783 0.0
C2316 C 0.10551 0.63984 0.43929 0.0
C2317 C 0.1248 0.63553 0.45273 0.0
C2318 C 0.13898 0.59103 0.38216 0.0
C2319 C 0.123 0.61858 0.40939 0.0
C2320 C 0.13498 0.57489 0.36598 0.0
C2321 C 0.11338 0.57335 0.35576 0.0
C2322 C 0.121 0.60536 0.38859 0.0
C2323 C 0.09657 0.5893 0.36093 0.0
C2324 C 0.10452 0.63133 0.41759 0.0
C2325 C 0.14352 0.62415 0.44331 0.0
N2326 N 0.10054 0.6044 0.37742 0.0
N2327 N 0.14203 0.61587 0.42237 0.0
H2328 H 0.48569 0.15075 0.36782 0.0
H2329 H 0.3497 0.17111 0.37707 0.0
H2330 H 0.44031 0.16121 0.31175 0.0
H2331 H 0.39034 0.14802 0.4327 0.0
H2332 H 0.3839 0.17023 0.35378 0.0
H2333 H 0.45213 0.15237 0.39272 0.0
C2334 C 0.46874 0.15346 0.36075 0.0
C2335 C 0.46584 0.15577 0.33762 0.0
C2336 C 0.38542 0.1653 0.37106 0.0
C2337 C 0.42752 0.15767 0.36596 0.0
C2338 C 0.36584 0.16581 0.38442 0.0
C2339 C 0.36711 0.15956 0.40689 0.0
C2340 C 0.4066 0.15856 0.38015 0.0
C2341 C 0.38858 0.15289 0.41543 0.0
C2342 C 0.44961 0.1543 0.37496 0.0
C2343 C 0.44346 0.15921 0.32941 0.0
N2344 N 0.40754 0.15259 0.40204 0.0
N2345 N 0.42525 0.16007 0.34354 0.0
H2346 H 0.10211 0.39286 0.64521 0.0
H2347 H 0.17087 0.36328 0.53491 0.0
H2348 H 0.16665 0.42231 0.62538 0.0
H2349 H 0.10359 0.33671 0.55019 0.0
H2350 H 0.17395 0.37708 0.5729 0.0
H2351 H 0.10687 0.36454 0.61602 0.0
C2352 C 0.11762 0.39291 0.63515 0.0
C2353 C 0.13379 0.41014 0.63724 0.0
C2354 C 0.1586 0.36798 0.56811 0.0
C2355 C 0.13921 0.37823 0.60388 0.0
C2356 C 0.15682 0.36013 0.54638 0.0
C2357 C 0.13671 0.34929 0.53927 0.0
C2358 C 0.13996 0.36538 0.5828 0.0
C2359 C 0.11928 0.34523 0.55496 0.0
C2360 C 0.12025 0.3769 0.61841 0.0
C2361 C 0.15351 0.40963 0.62384 0.0
N2362 N 0.12109 0.3537 0.57592 0.0
N2363 N 0.15552 0.39414 0.60752 0.0
H2364 H 0.61004 0.16025 0.56196 0.0
H2365 H 0.56039 0.16152 0.68636 0.0
H2366 H 0.65185 0.1667 0.62111 0.0
H2367 H 0.51653 0.15904 0.62827 0.0
H2368 H 0.59397 0.16256 0.66225 0.0
H2369 H 0.57554 0.15871 0.5855 0.0
C2370 C 0.61198 0.16127 0.57987 0.0
C2371 C 0.63388 0.16363 0.58958 0.0
C2372 C 0.57703 0.16181 0.65471 0.0
C2373 C 0.59454 0.16193 0.61653 0.0
C2374 C 0.55777 0.16121 0.66851 0.0
C2375 C 0.53551 0.16018 0.65938 0.0
C2376 C 0.57419 0.16134 0.6315 0.0
C2377 C 0.53333 0.15986 0.63606 0.0
C2378 C 0.59228 0.16044 0.59328 0.0
C2379 C 0.63536 0.16491 0.61286 0.0
N2380 N 0.55245 0.16041 0.62291 0.0
N2381 N 0.61599 0.16405 0.6255 0.0
H2382 H 0.48508 0.82868 0.61805 0.0
H2383 H 0.35437 0.85354 0.58364 0.0
H2384 H 0.43376 0.85476 0.66316 0.0
H2385 H 0.39931 0.81137 0.5448 0.0
H2386 H 0.38534 0.85889 0.61058 0.0
H2387 H 0.4557 0.82672 0.58879 0.0
C2388 C 0.4677 0.8341 0.62178 0.0
C2389 C 0.46186 0.84178 0.64315 0.0
C2390 C 0.38846 0.84852 0.59612 0.0
C2391 C 0.42828 0.83968 0.60975 0.0
C2392 C 0.3708 0.84551 0.58068 0.0
C2393 C 0.37418 0.83184 0.562 0.0
C2394 C 0.40975 0.83791 0.59285 0.0
C2395 C 0.3959 0.82193 0.55904 0.0
C2396 C 0.45095 0.83291 0.60509 0.0
C2397 C 0.43904 0.84856 0.64702 0.0
N2398 N 0.41287 0.82512 0.57435 0.0
N2399 N 0.42312 0.84736 0.63049 0.0
loop_
_geom_bond_atom_site_label_1
_geom_bond_atom_site_label_2
_geom_bond_distance
_geom_bond_site_symmetry_2
_ccdc_geom_bond_type
Mg0 O1 2.028 . S
Mg0 O7 1.986 . S
Mg0 O9 2.114 . S
Mg0 O10 2.251 . S
Mg0 O13 2.010 . S
O1 Mg0 2.028 . S
O1 C4 1.279 . S
O2 Mg3 2.028 1_655 S
O2 C4 1.236 1_655 S
Mg3 O2 2.028 1_455 S
Mg3 O8 2.032 . S
Mg3 O10 2.079 . S
C4 O1 1.279 . S
C4 O2 1.236 1_455 S
C5 O6 1.264 . S
C5 O13 1.249 . S
O6 C5 1.264 . S
O7 Mg0 1.986 . S
O7 C11 1.246 . S
O8 Mg3 2.032 . S
O8 C11 1.259 . S
O9 Mg0 2.114 . S
O9 C12 1.252 . S
O10 Mg0 2.251 . S
O10 Mg3 2.079 . S
O10 C12 1.273 . S
C11 O7 1.246 . S
C11 O8 1.259 . S
C12 O9 1.252 . S
C12 O10 1.273 . S
O13 Mg0 2.010 . S
O13 C5 1.249 . S
Mg14 O15 2.028 . S
Mg14 O21 1.986 . S
Mg14 O23 2.114 1_545 S
Mg14 O24 2.251 . S
Mg14 O27 2.010 . S
O15 Mg14 2.028 . S
O15 C18 1.250 . S
O16 Mg17 2.028 . S
O16 C18 1.248 . S
Mg17 O16 2.028 . S
Mg17 O22 2.032 . S
Mg17 O24 2.079 . S
C18 O15 1.250 . S
C18 O16 1.248 . S
C19 O20 1.264 . S
C19 O27 1.249 . S
O20 C19 1.264 . S
O21 Mg14 1.986 . S
O21 C25 1.246 . S
O22 Mg17 2.032 . S
O22 C25 1.259 . S
O23 Mg14 2.114 1_565 S
O23 C26 1.252 . S
O24 Mg14 2.251 . S
O24 Mg17 2.079 . S
O24 C26 1.273 1_545 S
C25 O21 1.246 . S
C25 O22 1.259 . S
C26 O23 1.252 . S
C26 O24 1.273 1_565 S
O27 Mg14 2.010 . S
O27 C19 1.249 . S
Mg28 O29 2.028 . S
Mg28 O35 1.986 . S
Mg28 O37 2.114 . S
Mg28 O38 2.251 . S
Mg28 O41 2.010 . S
O29 Mg28 2.028 . S
O29 C32 1.279 . S
O30 Mg31 2.028 1_455 S
O30 C32 1.236 1_455 S
Mg31 O30 2.028 1_655 S
Mg31 O36 2.032 . S
Mg31 O38 2.079 . S
C32 O29 1.279 . S
C32 O30 1.236 1_655 S
C33 O34 1.264 . S
C33 O41 1.249 . S
O34 C33 1.264 . S
O35 Mg28 1.986 . S
O35 C39 1.246 . S
O36 Mg31 2.032 . S
O36 C39 1.259 . S
O37 Mg28 2.114 . S
O37 C40 1.252 . S
O38 Mg28 2.251 . S
O38 Mg31 2.079 . S
O38 C40 1.273 . S
C39 O35 1.246 . S
C39 O36 1.259 . S
C40 O37 1.252 . S
C40 O38 1.273 . S
O41 Mg28 2.010 . S
O41 C33 1.249 . S
Mg42 O43 2.028 . S
Mg42 O49 1.986 . S
Mg42 O51 2.114 1_565 S
Mg42 O52 2.251 . S
Mg42 O55 2.010 . S
O43 Mg42 2.028 . S
O43 C46 1.250 . S
O44 Mg45 2.028 . S
O44 C46 1.248 . S
Mg45 O44 2.028 . S
Mg45 O50 2.032 . S
Mg45 O52 2.079 . S
C46 O43 1.250 . S
C46 O44 1.248 . S
C47 O48 1.264 . S
C47 O55 1.249 . S
O48 C47 1.264 . S
O49 Mg42 1.986 . S
O49 C53 1.246 . S
O50 Mg45 2.032 . S
O50 C53 1.259 . S
O51 Mg42 2.114 1_545 S
O51 C54 1.252 . S
O52 Mg42 2.251 . S
O52 Mg45 2.079 . S
O52 C54 1.273 1_565 S
C53 O49 1.246 . S
C53 O50 1.259 . S
C54 O51 1.252 . S
C54 O52 1.273 1_545 S
O55 Mg42 2.010 . S
O55 C47 1.249 . S
Mg56 O57 2.028 . S
Mg56 O63 1.986 . S
Mg56 O65 2.114 . S
Mg56 O66 2.251 . S
Mg56 O69 2.010 . S
O57 Mg56 2.028 . S
O57 C60 1.279 . S
O58 Mg59 2.028 1_655 S
O58 C60 1.236 1_655 S
Mg59 O58 2.028 1_455 S
Mg59 O64 2.032 . S
Mg59 O66 2.079 . S
C60 O57 1.279 . S
C60 O58 1.236 1_455 S
C61 O62 1.264 . S
C61 O69 1.249 . S
O62 C61 1.264 . S
O63 Mg56 1.986 . S
O63 C67 1.246 . S
O64 Mg59 2.032 . S
O64 C67 1.259 . S
O65 Mg56 2.114 . S
O65 C68 1.252 . S
O66 Mg56 2.251 . S
O66 Mg59 2.079 . S
O66 C68 1.273 . S
C67 O63 1.246 . S
C67 O64 1.259 . S
C68 O65 1.252 . S
C68 O66 1.273 . S
O69 Mg56 2.010 . S
O69 C61 1.249 . S
Mg70 O71 2.028 . S
Mg70 O77 1.986 . S
Mg70 O79 2.114 1_545 S
Mg70 O80 2.251 . S
Mg70 O83 2.010 . S
O71 Mg70 2.028 . S
O71 C74 1.250 . S
O72 Mg73 2.028 . S
O72 C74 1.248 . S
Mg73 O72 2.028 . S
Mg73 O78 2.032 . S
Mg73 O80 2.079 . S
C74 O71 1.250 . S
C74 O72 1.248 . S
C75 O76 1.264 . S
C75 O83 1.249 . S
O76 C75 1.264 . S
O77 Mg70 1.986 . S
O77 C81 1.246 . S
O78 Mg73 2.032 . S
O78 C81 1.259 . S
O79 Mg70 2.114 1_565 S
O79 C82 1.252 . S
O80 Mg70 2.251 . S
O80 Mg73 2.079 . S
O80 C82 1.273 1_545 S
C81 O77 1.246 . S
C81 O78 1.259 . S
C82 O79 1.252 . S
C82 O80 1.273 1_565 S
O83 Mg70 2.010 . S
O83 C75 1.249 . S
Mg84 O85 2.028 . S
Mg84 O91 1.986 . S
Mg84 O93 2.114 . S
Mg84 O94 2.251 . S
Mg84 O97 2.010 . S
O85 Mg84 2.028 . S
O85 C88 1.279 . S
O86 Mg87 2.028 1_455 S
O86 C88 1.236 1_455 S
Mg87 O86 2.028 1_655 S
Mg87 O92 2.032 . S
Mg87 O94 2.079 . S
C88 O85 1.279 . S
C88 O86 1.236 1_655 S
C89 O90 1.264 . S
C89 O97 1.249 . S
O90 C89 1.264 . S
O91 Mg84 1.986 . S
O91 C95 1.246 . S
O92 Mg87 2.032 . S
O92 C95 1.259 . S
O93 Mg84 2.114 . S
O93 C96 1.252 . S
O94 Mg84 2.251 . S
O94 Mg87 2.079 . S
O94 C96 1.273 . S
C95 O91 1.246 . S
C95 O92 1.259 . S
C96 O93 1.252 . S
C96 O94 1.273 . S
O97 Mg84 2.010 . S
O97 C89 1.249 . S
Mg98 O99 2.028 . S
Mg98 O105 1.986 . S
Mg98 O107 2.114 1_565 S
Mg98 O108 2.251 . S
Mg98 O111 2.010 . S
O99 Mg98 2.028 . S
O99 C102 1.250 . S
O100 Mg101 2.028 . S
O100 C102 1.248 . S
Mg101 O100 2.028 . S
Mg101 O106 2.032 . S
Mg101 O108 2.079 . S
C102 O99 1.250 . S
C102 O100 1.248 . S
C103 O104 1.264 . S
C103 O111 1.249 . S
O104 C103 1.264 . S
O105 Mg98 1.986 . S
O105 C109 1.246 . S
O106 Mg101 2.032 . S
O106 C109 1.259 . S
O107 Mg98 2.114 1_545 S
O107 C110 1.252 . S
O108 Mg98 2.251 . S
O108 Mg101 2.079 . S
O108 C110 1.273 1_565 S
C109 O105 1.246 . S
C109 O106 1.259 . S
C110 O107 1.252 . S
C110 O108 1.273 1_545 S
O111 Mg98 2.010 . S
O111 C103 1.249 . S
Mg112 O113 2.028 . S
Mg112 O119 1.986 . S
Mg112 O121 2.114 . S
Mg112 O122 2.251 . S
Mg112 O125 2.010 . S
O113 Mg112 2.028 . S
O113 C116 1.286 . S
O114 Mg115 2.028 1_565 S
O114 C116 1.235 1_565 S
Mg115 O114 2.028 1_545 S
Mg115 O120 2.032 . S
Mg115 O122 2.079 . S
C116 O113 1.286 . S
C116 O114 1.235 1_545 S
C117 O118 1.264 . S
C117 O125 1.249 . S
O118 C117 1.264 . S
O119 Mg112 1.986 . S
O119 C123 1.246 . S
O120 Mg115 2.032 . S
O120 C123 1.259 . S
O121 Mg112 2.114 . S
O121 C124 1.252 . S
O122 Mg112 2.251 . S
O122 Mg115 2.079 . S
O122 C124 1.273 . S
C123 O119 1.246 . S
C123 O120 1.259 . S
C124 O121 1.252 . S
C124 O122 1.273 . S
O125 Mg112 2.010 . S
O125 C117 1.249 . S
Mg126 O127 2.028 . S
Mg126 O133 1.986 . S
Mg126 O135 2.114 . S
Mg126 O136 2.251 . S
Mg126 O139 2.010 . S
O127 Mg126 2.028 . S
O127 C130 1.279 . S
O128 Mg129 2.028 1_455 S
O128 C130 1.236 1_455 S
Mg129 O128 2.028 1_655 S
Mg129 O134 2.032 . S
Mg129 O136 2.079 . S
C130 O127 1.279 . S
C130 O128 1.236 1_655 S
C131 O132 1.264 . S
C131 O139 1.249 . S
O132 C131 1.264 . S
O133 Mg126 1.986 . S
O133 C137 1.246 . S
O134 Mg129 2.032 . S
O134 C137 1.259 . S
O135 Mg126 2.114 . S
O135 C138 1.252 . S
O136 Mg126 2.251 . S
O136 Mg129 2.079 . S
O136 C138 1.273 . S
C137 O133 1.246 . S
C137 O134 1.259 . S
C138 O135 1.252 . S
C138 O136 1.273 . S
O139 Mg126 2.010 . S
O139 C131 1.249 . S
Mg140 O141 2.028 . S
Mg140 O147 1.986 . S
Mg140 O149 2.114 . S
Mg140 O150 2.251 . S
Mg140 O153 2.010 . S
O141 Mg140 2.028 . S
O141 C144 1.286 . S
O142 Mg143 2.028 1_545 S
O142 C144 1.235 1_545 S
Mg143 O142 2.028 1_565 S
Mg143 O148 2.032 . S
Mg143 O150 2.079 . S
C144 O141 1.286 . S
C144 O142 1.235 1_565 S
C145 O146 1.264 . S
C145 O153 1.249 . S
O146 C145 1.264 . S
O147 Mg140 1.986 . S
O147 C151 1.246 . S
O148 Mg143 2.032 . S
O148 C151 1.259 . S
O149 Mg140 2.114 . S
O149 C152 1.252 . S
O150 Mg140 2.251 . S
O150 Mg143 2.079 . S
O150 C152 1.273 . S
C151 O147 1.246 . S
C151 O148 1.259 . S
C152 O149 1.252 . S
C152 O150 1.273 . S
O153 Mg140 2.010 . S
O153 C145 1.249 . S
Mg154 O155 2.028 . S
Mg154 O161 1.986 . S
Mg154 O163 2.114 . S
Mg154 O164 2.251 . S
Mg154 O167 2.010 . S
O155 Mg154 2.028 . S
O155 C158 1.279 . S
O156 Mg157 2.028 1_655 S
O156 C158 1.236 1_655 S
Mg157 O156 2.028 1_455 S
Mg157 O162 2.032 . S
Mg157 O164 2.079 . S
C158 O155 1.279 . S
C158 O156 1.236 1_455 S
C159 O160 1.264 . S
C159 O167 1.249 . S
O160 C159 1.264 . S
O161 Mg154 1.986 . S
O161 C165 1.246 . S
O162 Mg157 2.032 . S
O162 C165 1.259 . S
O163 Mg154 2.114 . S
O163 C166 1.252 . S
O164 Mg154 2.251 . S
O164 Mg157 2.079 . S
O164 C166 1.273 . S
C165 O161 1.246 . S
C165 O162 1.259 . S
C166 O163 1.252 . S
C166 O164 1.273 . S
O167 Mg154 2.010 . S
O167 C159 1.249 . S
Mg168 O169 2.028 . S
Mg168 O175 1.986 . S
Mg168 O177 2.114 . S
Mg168 O178 2.251 . S
Mg168 O181 2.010 . S
O169 Mg168 2.028 . S
O169 C172 1.286 . S
O170 Mg171 2.028 1_545 S
O170 C172 1.235 1_545 S
Mg171 O170 2.028 1_565 S
Mg171 O176 2.032 . S
Mg171 O178 2.079 . S
C172 O169 1.286 . S
C172 O170 1.235 1_565 S
C173 O174 1.264 . S
C173 O181 1.249 . S
O174 C173 1.264 . S
O175 Mg168 1.986 . S
O175 C179 1.246 . S
O176 Mg171 2.032 . S
O176 C179 1.259 . S
O177 Mg168 2.114 . S
O177 C180 1.252 . S
O178 Mg168 2.251 . S
O178 Mg171 2.079 . S
O178 C180 1.273 . S
C179 O175 1.246 . S
C179 O176 1.259 . S
C180 O177 1.252 . S
C180 O178 1.273 . S
O181 Mg168 2.010 . S
O181 C173 1.249 . S
Mg182 O183 2.028 . S
Mg182 O189 1.986 . S
Mg182 O191 2.114 . S
Mg182 O192 2.251 . S
Mg182 O195 2.010 . S
O183 Mg182 2.028 . S
O183 C186 1.279 . S
O184 Mg185 2.028 1_655 S
O184 C186 1.236 1_655 S
Mg185 O184 2.028 1_455 S
Mg185 O190 2.032 . S
Mg185 O192 2.079 . S
C186 O183 1.279 . S
C186 O184 1.236 1_455 S
C187 O188 1.264 . S
C187 O195 1.249 . S
O188 C187 1.264 . S
O189 Mg182 1.986 . S
O189 C193 1.246 . S
O190 Mg185 2.032 . S
O190 C193 1.259 . S
O191 Mg182 2.114 . S
O191 C194 1.252 . S
O192 Mg182 2.251 . S
O192 Mg185 2.079 . S
O192 C194 1.273 . S
C193 O189 1.246 . S
C193 O190 1.259 . S
C194 O191 1.252 . S
C194 O192 1.273 . S
O195 Mg182 2.010 . S
O195 C187 1.249 . S
Mg196 O197 2.028 . S
Mg196 O203 1.986 . S
Mg196 O205 2.114 . S
Mg196 O206 2.251 . S
Mg196 O209 2.010 . S
O197 Mg196 2.028 . S
O197 C200 1.286 . S
O198 Mg199 2.028 1_565 S
O198 C200 1.235 1_565 S
Mg199 O198 2.028 1_545 S
Mg199 O204 2.032 . S
Mg199 O206 2.079 . S
C200 O197 1.286 . S
C200 O198 1.235 1_545 S
C201 O202 1.264 . S
C201 O209 1.249 . S
O202 C201 1.264 . S
O203 Mg196 1.986 . S
O203 C207 1.246 . S
O204 Mg199 2.032 . S
O204 C207 1.259 . S
O205 Mg196 2.114 . S
O205 C208 1.252 . S
O206 Mg196 2.251 . S
O206 Mg199 2.079 . S
O206 C208 1.273 . S
C207 O203 1.246 . S
C207 O204 1.259 . S
C208 O205 1.252 . S
C208 O206 1.273 . S
O209 Mg196 2.010 . S
O209 C201 1.249 . S
Mg210 O211 2.028 . S
Mg210 O217 1.986 . S
Mg210 O219 2.114 . S
Mg210 O220 2.251 . S
Mg210 O223 2.010 . S
O211 Mg210 2.028 . S
O211 C214 1.279 . S
O212 Mg213 2.028 1_455 S
O212 C214 1.236 1_455 S
Mg213 O212 2.028 1_655 S
Mg213 O218 2.032 . S
Mg213 O220 2.079 . S
C214 O211 1.279 . S
C214 O212 1.236 1_655 S
C215 O216 1.264 . S
C215 O223 1.249 . S
O216 C215 1.264 . S
O217 Mg210 1.986 . S
O217 C221 1.246 . S
O218 Mg213 2.032 . S
O218 C221 1.259 . S
O219 Mg210 2.114 . S
O219 C222 1.252 . S
O220 Mg210 2.251 . S
O220 Mg213 2.079 . S
O220 C222 1.273 . S
C221 O217 1.246 . S
C221 O218 1.259 . S
C222 O219 1.252 . S
C222 O220 1.273 . S
O223 Mg210 2.010 . S
O223 C215 1.249 . S
Mg224 O225 2.028 . S
Mg224 O231 1.986 . S
Mg224 O233 2.114 1_554 S
Mg224 O234 2.251 . S
Mg224 O237 2.010 . S
O225 Mg224 2.028 . S
O225 C228 1.250 . S
O226 Mg227 2.028 . S
O226 C228 1.248 . S
Mg227 O226 2.028 . S
Mg227 O232 2.032 . S
Mg227 O234 2.079 . S
C228 O225 1.250 . S
C228 O226 1.248 . S
C229 O230 1.264 . S
C229 O237 1.249 . S
O230 C229 1.264 . S
O231 Mg224 1.986 . S
O231 C235 1.246 . S
O232 Mg227 2.032 . S
O232 C235 1.259 . S
O233 Mg224 2.114 1_556 S
O233 C236 1.252 . S
O234 Mg224 2.251 . S
O234 Mg227 2.079 . S
O234 C236 1.273 1_554 S
C235 O231 1.246 . S
C235 O232 1.259 . S
C236 O233 1.252 . S
C236 O234 1.273 1_556 S
O237 Mg224 2.010 . S
O237 C229 1.249 . S
Mg238 O239 2.028 . S
Mg238 O245 1.986 . S
Mg238 O247 2.114 1_556 S
Mg238 O248 2.251 . S
Mg238 O251 2.010 . S
O239 Mg238 2.028 . S
O239 C242 1.250 . S
O240 Mg241 2.028 . S
O240 C242 1.248 . S
Mg241 O240 2.028 . S
Mg241 O246 2.032 . S
Mg241 O248 2.079 . S
C242 O239 1.250 . S
C242 O240 1.248 . S
C243 O244 1.264 . S
C243 O251 1.249 . S
O244 C243 1.264 . S
O245 Mg238 1.986 . S
O245 C249 1.246 . S
O246 Mg241 2.032 . S
O246 C249 1.259 . S
O247 Mg238 2.114 1_554 S
O247 C250 1.252 . S
O248 Mg238 2.251 . S
O248 Mg241 2.079 . S
O248 C250 1.273 1_556 S
C249 O245 1.246 . S
C249 O246 1.259 . S
C250 O247 1.252 . S
C250 O248 1.273 1_554 S
O251 Mg238 2.010 . S
O251 C243 1.249 . S
Mg252 O253 2.028 . S
Mg252 O259 1.986 . S
Mg252 O261 2.114 . S
Mg252 O262 2.251 . S
Mg252 O265 2.010 . S
O253 Mg252 2.028 . S
O253 C256 1.286 . S
O254 Mg255 2.028 1_554 S
O254 C256 1.235 1_554 S
Mg255 O254 2.028 1_556 S
Mg255 O260 2.032 . S
Mg255 O262 2.079 . S
C256 O253 1.286 . S
C256 O254 1.235 1_556 S
C257 O258 1.264 . S
C257 O265 1.249 . S
O258 C257 1.264 . S
O259 Mg252 1.986 . S
O259 C263 1.246 . S
O260 Mg255 2.032 . S
O260 C263 1.259 . S
O261 Mg252 2.114 . S
O261 C264 1.252 . S
O262 Mg252 2.251 . S
O262 Mg255 2.079 . S
O262 C264 1.273 . S
C263 O259 1.246 . S
C263 O260 1.259 . S
C264 O261 1.252 . S
C264 O262 1.273 . S
O265 Mg252 2.010 . S
O265 C257 1.249 . S
Mg266 O267 2.028 . S
Mg266 O273 1.986 . S
Mg266 O275 2.114 1_556 S
Mg266 O276 2.251 . S
Mg266 O279 2.010 . S
O267 Mg266 2.028 . S
O267 C270 1.250 . S
O268 Mg269 2.028 . S
O268 C270 1.248 . S
Mg269 O268 2.028 . S
Mg269 O274 2.032 . S
Mg269 O276 2.079 . S
C270 O267 1.250 . S
C270 O268 1.248 . S
C271 O272 1.264 . S
C271 O279 1.249 . S
O272 C271 1.264 . S
O273 Mg266 1.986 . S
O273 C277 1.246 . S
O274 Mg269 2.032 . S
O274 C277 1.259 . S
O275 Mg266 2.114 1_554 S
O275 C278 1.252 . S
O276 Mg266 2.251 . S
O276 Mg269 2.079 . S
O276 C278 1.273 1_556 S
C277 O273 1.246 . S
C277 O274 1.259 . S
C278 O275 1.252 . S
C278 O276 1.273 1_554 S
O279 Mg266 2.010 . S
O279 C271 1.249 . S
Mg280 O281 2.028 . S
Mg280 O287 1.986 . S
Mg280 O289 2.114 . S
Mg280 O290 2.251 . S
Mg280 O293 2.010 . S
O281 Mg280 2.028 . S
O281 C284 1.286 . S
O282 Mg283 2.028 1_554 S
O282 C284 1.235 1_554 S
Mg283 O282 2.028 1_556 S
Mg283 O288 2.032 . S
Mg283 O290 2.079 . S
C284 O281 1.286 . S
C284 O282 1.235 1_556 S
C285 O286 1.264 . S
C285 O293 1.249 . S
O286 C285 1.264 . S
O287 Mg280 1.986 . S
O287 C291 1.246 . S
O288 Mg283 2.032 . S
O288 C291 1.259 . S
O289 Mg280 2.114 . S
O289 C292 1.252 . S
O290 Mg280 2.251 . S
O290 Mg283 2.079 . S
O290 C292 1.273 . S
C291 O287 1.246 . S
C291 O288 1.259 . S
C292 O289 1.252 . S
C292 O290 1.273 . S
O293 Mg280 2.010 . S
O293 C285 1.249 . S
Mg294 O295 2.028 . S
Mg294 O301 1.986 . S
Mg294 O303 2.114 1_554 S
Mg294 O304 2.251 . S
Mg294 O307 2.010 . S
O295 Mg294 2.028 . S
O295 C298 1.250 . S
O296 Mg297 2.028 . S
O296 C298 1.248 . S
Mg297 O296 2.028 . S
Mg297 O302 2.032 . S
Mg297 O304 2.079 . S
C298 O295 1.250 . S
C298 O296 1.248 . S
C299 O300 1.264 . S
C299 O307 1.249 . S
O300 C299 1.264 . S
O301 Mg294 1.986 . S
O301 C305 1.246 . S
O302 Mg297 2.032 . S
O302 C305 1.259 . S
O303 Mg294 2.114 1_556 S
O303 C306 1.252 . S
O304 Mg294 2.251 . S
O304 Mg297 2.079 . S
O304 C306 1.273 1_554 S
C305 O301 1.246 . S
C305 O302 1.259 . S
C306 O303 1.252 . S
C306 O304 1.273 1_556 S
O307 Mg294 2.010 . S
O307 C299 1.249 . S
Mg308 O309 2.028 . S
Mg308 O315 1.986 . S
Mg308 O317 2.114 . S
Mg308 O318 2.251 . S
Mg308 O321 2.010 . S
O309 Mg308 2.028 . S
O309 C312 1.286 . S
O310 Mg311 2.028 1_556 S
O310 C312 1.235 1_556 S
Mg311 O310 2.028 1_554 S
Mg311 O316 2.032 . S
Mg311 O318 2.079 . S
C312 O309 1.286 . S
C312 O310 1.235 1_554 S
C313 O314 1.264 . S
C313 O321 1.249 . S
O314 C313 1.264 . S
O315 Mg308 1.986 . S
O315 C319 1.246 . S
O316 Mg311 2.032 . S
O316 C319 1.259 . S
O317 Mg308 2.114 . S
O317 C320 1.252 . S
O318 Mg308 2.251 . S
O318 Mg311 2.079 . S
O318 C320 1.273 . S
C319 O315 1.246 . S
C319 O316 1.259 . S
C320 O317 1.252 . S
C320 O318 1.273 . S
O321 Mg308 2.010 . S
O321 C313 1.249 . S
Mg322 O323 2.028 . S
Mg322 O329 1.986 . S
Mg322 O331 2.114 . S
Mg322 O332 2.251 . S
Mg322 O335 2.010 . S
O323 Mg322 2.028 . S
O323 C326 1.286 . S
O324 Mg325 2.028 1_556 S
O324 C326 1.235 1_556 S
Mg325 O324 2.028 1_554 S
Mg325 O330 2.032 . S
Mg325 O332 2.079 . S
C326 O323 1.286 . S
C326 O324 1.235 1_554 S
C327 O328 1.264 . S
C327 O335 1.249 . S
O328 C327 1.264 . S
O329 Mg322 1.986 . S
O329 C333 1.246 . S
O330 Mg325 2.032 . S
O330 C333 1.259 . S
O331 Mg322 2.114 . S
O331 C334 1.252 . S
O332 Mg322 2.251 . S
O332 Mg325 2.079 . S
O332 C334 1.273 . S
C333 O329 1.246 . S
C333 O330 1.259 . S
C334 O331 1.252 . S
C334 O332 1.273 . S
O335 Mg322 2.010 . S
O335 C327 1.249 . S
Mg336 O337 2.028 . S
Mg336 O343 1.986 . S
Mg336 O345 2.114 . S
Mg336 O346 2.251 . S
Mg336 O349 2.010 . S
O337 Mg336 2.028 . S
O337 C340 1.250 . S
O338 Mg339 2.028 . S
O338 C340 1.248 . S
Mg339 O338 2.028 . S
Mg339 O344 2.032 . S
Mg339 O346 2.079 . S
C340 O337 1.250 . S
C340 O338 1.248 . S
C341 O342 1.264 . S
C341 O349 1.249 . S
O342 C341 1.264 . S
O343 Mg336 1.986 . S
O343 C347 1.246 . S
O344 Mg339 2.032 . S
O344 C347 1.259 . S
O345 Mg336 2.114 . S
O345 C348 1.252 . S
O346 Mg336 2.251 . S
O346 Mg339 2.079 . S
O346 C348 1.273 . S
C347 O343 1.246 . S
C347 O344 1.259 . S
C348 O345 1.252 . S
C348 O346 1.273 . S
O349 Mg336 2.010 . S
O349 C341 1.249 . S
Mg350 O351 2.028 . S
Mg350 O357 1.986 . S
Mg350 O359 2.114 . S
Mg350 O360 2.251 . S
Mg350 O363 2.010 . S
O351 Mg350 2.028 . S
O351 C354 1.250 . S
O352 Mg353 2.028 . S
O352 C354 1.248 . S
Mg353 O352 2.028 . S
Mg353 O358 2.032 . S
Mg353 O360 2.079 . S
C354 O351 1.250 . S
C354 O352 1.248 . S
C355 O356 1.264 . S
C355 O363 1.249 . S
O356 C355 1.264 . S
O357 Mg350 1.986 . S
O357 C361 1.246 . S
O358 Mg353 2.032 . S
O358 C361 1.259 . S
O359 Mg350 2.114 . S
O359 C362 1.252 . S
O360 Mg350 2.251 . S
O360 Mg353 2.079 . S
O360 C362 1.273 . S
C361 O357 1.246 . S
C361 O358 1.259 . S
C362 O359 1.252 . S
C362 O360 1.273 . S
O363 Mg350 2.010 . S
O363 C355 1.249 . S
Mg364 O365 2.028 . S
Mg364 O371 1.986 . S
Mg364 O373 2.114 . S
Mg364 O374 2.251 . S
Mg364 O377 2.010 . S
O365 Mg364 2.028 . S
O365 C368 1.250 . S
O366 Mg367 2.028 . S
O366 C368 1.248 . S
Mg367 O366 2.028 . S
Mg367 O372 2.032 . S
Mg367 O374 2.079 . S
C368 O365 1.250 . S
C368 O366 1.248 . S
C369 O370 1.264 . S
C369 O377 1.249 . S
O370 C369 1.264 . S
O371 Mg364 1.986 . S
O371 C375 1.246 . S
O372 Mg367 2.032 . S
O372 C375 1.259 . S
O373 Mg364 2.114 . S
O373 C376 1.252 . S
O374 Mg364 2.251 . S
O374 Mg367 2.079 . S
O374 C376 1.273 . S
C375 O371 1.246 . S
C375 O372 1.259 . S
C376 O373 1.252 . S
C376 O374 1.273 . S
O377 Mg364 2.010 . S
O377 C369 1.249 . S
Mg378 O379 2.028 . S
Mg378 O385 1.986 . S
Mg378 O387 2.114 . S
Mg378 O388 2.251 . S
Mg378 O391 2.010 . S
O379 Mg378 2.028 . S
O379 C382 1.250 . S
O380 Mg381 2.028 . S
O380 C382 1.248 . S
Mg381 O380 2.028 . S
Mg381 O386 2.032 . S
Mg381 O388 2.079 . S
C382 O379 1.250 . S
C382 O380 1.248 . S
C383 O384 1.264 . S
C383 O391 1.249 . S
O384 C383 1.264 . S
O385 Mg378 1.986 . S
O385 C389 1.246 . S
O386 Mg381 2.032 . S
O386 C389 1.259 . S
O387 Mg378 2.114 . S
O387 C390 1.252 . S
O388 Mg378 2.251 . S
O388 Mg381 2.079 . S
O388 C390 1.273 . S
C389 O385 1.246 . S
C389 O386 1.259 . S
C390 O387 1.252 . S
C390 O388 1.273 . S
O391 Mg378 2.010 . S
O391 C383 1.249 . S
Mg392 O393 2.028 . S
Mg392 O399 1.986 . S
Mg392 O401 2.114 . S
Mg392 O402 2.251 . S
Mg392 O405 2.010 . S
O393 Mg392 2.028 . S
O393 C396 1.250 . S
O394 Mg395 2.028 . S
O394 C396 1.248 . S
Mg395 O394 2.028 . S
Mg395 O400 2.032 . S
Mg395 O402 2.079 . S
C396 O393 1.250 . S
C396 O394 1.248 . S
C397 O398 1.264 . S
C397 O405 1.249 . S
O398 C397 1.264 . S
O399 Mg392 1.986 . S
O399 C403 1.246 . S
O400 Mg395 2.032 . S
O400 C403 1.259 . S
O401 Mg392 2.114 . S
O401 C404 1.252 . S
O402 Mg392 2.251 . S
O402 Mg395 2.079 . S
O402 C404 1.273 . S
C403 O399 1.246 . S
C403 O400 1.259 . S
C404 O401 1.252 . S
C404 O402 1.273 . S
O405 Mg392 2.010 . S
O405 C397 1.249 . S
Mg406 O407 2.028 . S
Mg406 O413 1.986 . S
Mg406 O415 2.114 . S
Mg406 O416 2.251 . S
Mg406 O419 2.010 . S
O407 Mg406 2.028 . S
O407 C410 1.250 . S
O408 Mg409 2.028 . S
O408 C410 1.248 . S
Mg409 O408 2.028 . S
Mg409 O414 2.032 . S
Mg409 O416 2.079 . S
C410 O407 1.250 . S
C410 O408 1.248 . S
C411 O412 1.264 . S
C411 O419 1.249 . S
O412 C411 1.264 . S
O413 Mg406 1.986 . S
O413 C417 1.246 . S
O414 Mg409 2.032 . S
O414 C417 1.259 . S
O415 Mg406 2.114 . S
O415 C418 1.252 . S
O416 Mg406 2.251 . S
O416 Mg409 2.079 . S
O416 C418 1.273 . S
C417 O413 1.246 . S
C417 O414 1.259 . S
C418 O415 1.252 . S
C418 O416 1.273 . S
O419 Mg406 2.010 . S
O419 C411 1.249 . S
Mg420 O421 2.028 . S
Mg420 O427 1.986 . S
Mg420 O429 2.114 . S
Mg420 O430 2.251 . S
Mg420 O433 2.010 . S
O421 Mg420 2.028 . S
O421 C424 1.250 . S
O422 Mg423 2.028 . S
O422 C424 1.248 . S
Mg423 O422 2.028 . S
Mg423 O428 2.032 . S
Mg423 O430 2.079 . S
C424 O421 1.250 . S
C424 O422 1.248 . S
C425 O426 1.264 . S
C425 O433 1.249 . S
O426 C425 1.264 . S
O427 Mg420 1.986 . S
O427 C431 1.246 . S
O428 Mg423 2.032 . S
O428 C431 1.259 . S
O429 Mg420 2.114 . S
O429 C432 1.252 . S
O430 Mg420 2.251 . S
O430 Mg423 2.079 . S
O430 C432 1.273 . S
C431 O427 1.246 . S
C431 O428 1.259 . S
C432 O429 1.252 . S
C432 O430 1.273 . S
O433 Mg420 2.010 . S
O433 C425 1.249 . S
Mg434 O435 2.028 . S
Mg434 O441 1.986 . S
Mg434 O443 2.114 . S
Mg434 O444 2.251 . S
Mg434 O447 2.010 . S
O435 Mg434 2.028 . S
O435 C438 1.250 . S
O436 Mg437 2.028 . S
O436 C438 1.248 . S
Mg437 O436 2.028 . S
Mg437 O442 2.032 . S
Mg437 O444 2.079 . S
C438 O435 1.250 . S
C438 O436 1.248 . S
C439 O440 1.264 . S
C439 O447 1.249 . S
O440 C439 1.264 . S
O441 Mg434 1.986 . S
O441 C445 1.246 . S
O442 Mg437 2.032 . S
O442 C445 1.259 . S
O443 Mg434 2.114 . S
O443 C446 1.252 . S
O444 Mg434 2.251 . S
O444 Mg437 2.079 . S
O444 C446 1.273 . S
C445 O441 1.246 . S
C445 O442 1.259 . S
C446 O443 1.252 . S
C446 O444 1.273 . S
O447 Mg434 2.010 . S
O447 C439 1.249 . S
Mg448 O449 2.028 . S
Mg448 O455 1.986 . S
Mg448 O457 2.114 . S
Mg448 O458 2.251 . S
Mg448 O461 2.010 . S
O449 Mg448 2.028 . S
O449 C452 1.250 . S
O450 Mg451 2.028 . S
O450 C452 1.248 . S
Mg451 O450 2.028 . S
Mg451 O456 2.032 . S
Mg451 O458 2.079 . S
C452 O449 1.250 . S
C452 O450 1.248 . S
C453 O454 1.264 . S
C453 O461 1.249 . S
O454 C453 1.264 . S
O455 Mg448 1.986 . S
O455 C459 1.246 . S
O456 Mg451 2.032 . S
O456 C459 1.259 . S
O457 Mg448 2.114 . S
O457 C460 1.252 . S
O458 Mg448 2.251 . S
O458 Mg451 2.079 . S
O458 C460 1.273 . S
C459 O455 1.246 . S
C459 O456 1.259 . S
C460 O457 1.252 . S
C460 O458 1.273 . S
O461 Mg448 2.010 . S
O461 C453 1.249 . S
Mg462 O463 2.028 . S
Mg462 O469 1.986 . S
Mg462 O471 2.114 . S
Mg462 O472 2.251 . S
Mg462 O475 2.010 . S
O463 Mg462 2.028 . S
O463 C466 1.250 . S
O464 Mg465 2.028 . S
O464 C466 1.248 . S
Mg465 O464 2.028 . S
Mg465 O470 2.032 . S
Mg465 O472 2.079 . S
C466 O463 1.250 . S
C466 O464 1.248 . S
C467 O468 1.264 . S
C467 O475 1.249 . S
O468 C467 1.264 . S
O469 Mg462 1.986 . S
O469 C473 1.246 . S
O470 Mg465 2.032 . S
O470 C473 1.259 . S
O471 Mg462 2.114 . S
O471 C474 1.252 . S
O472 Mg462 2.251 . S
O472 Mg465 2.079 . S
O472 C474 1.273 . S
C473 O469 1.246 . S
C473 O470 1.259 . S
C474 O471 1.252 . S
C474 O472 1.273 . S
O475 Mg462 2.010 . S
O475 C467 1.249 . S
Mg476 O477 2.028 . S
Mg476 O483 1.986 . S
Mg476 O485 2.114 . S
Mg476 O486 2.251 . S
Mg476 O489 2.010 . S
O477 Mg476 2.028 . S
O477 C480 1.250 . S
O478 Mg479 2.028 . S
O478 C480 1.248 . S
Mg479 O478 2.028 . S
Mg479 O484 2.032 . S
Mg479 O486 2.079 . S
C480 O477 1.250 . S
C480 O478 1.248 . S
C481 O482 1.264 . S
C481 O489 1.249 . S
O482 C481 1.264 . S
O483 Mg476 1.986 . S
O483 C487 1.246 . S
O484 Mg479 2.032 . S
O484 C487 1.259 . S
O485 Mg476 2.114 . S
O485 C488 1.252 . S
O486 Mg476 2.251 . S
O486 Mg479 2.079 . S
O486 C488 1.273 . S
C487 O483 1.246 . S
C487 O484 1.259 . S
C488 O485 1.252 . S
C488 O486 1.273 . S
O489 Mg476 2.010 . S
O489 C481 1.249 . S
Mg490 O491 2.028 . S
Mg490 O497 1.986 . S
Mg490 O499 2.114 . S
Mg490 O500 2.251 . S
Mg490 O503 2.010 . S
O491 Mg490 2.028 . S
O491 C494 1.250 . S
O492 Mg493 2.028 . S
O492 C494 1.248 . S
Mg493 O492 2.028 . S
Mg493 O498 2.032 . S
Mg493 O500 2.079 . S
C494 O491 1.250 . S
C494 O492 1.248 . S
C495 O496 1.264 . S
C495 O503 1.249 . S
O496 C495 1.264 . S
O497 Mg490 1.986 . S
O497 C501 1.246 . S
O498 Mg493 2.032 . S
O498 C501 1.259 . S
O499 Mg490 2.114 . S
O499 C502 1.252 . S
O500 Mg490 2.251 . S
O500 Mg493 2.079 . S
O500 C502 1.273 . S
C501 O497 1.246 . S
C501 O498 1.259 . S
C502 O499 1.252 . S
C502 O500 1.273 . S
O503 Mg490 2.010 . S
O503 C495 1.249 . S
Mg504 O505 2.028 . S
Mg504 O511 1.986 . S
Mg504 O513 2.114 . S
Mg504 O514 2.251 . S
Mg504 O517 2.010 . S
O505 Mg504 2.028 . S
O505 C508 1.250 . S
O506 Mg507 2.028 . S
O506 C508 1.248 . S
Mg507 O506 2.028 . S
Mg507 O512 2.032 . S
Mg507 O514 2.079 . S
C508 O505 1.250 . S
C508 O506 1.248 . S
C509 O510 1.264 . S
C509 O517 1.249 . S
O510 C509 1.264 . S
O511 Mg504 1.986 . S
O511 C515 1.246 . S
O512 Mg507 2.032 . S
O512 C515 1.259 . S
O513 Mg504 2.114 . S
O513 C516 1.252 . S
O514 Mg504 2.251 . S
O514 Mg507 2.079 . S
O514 C516 1.273 . S
C515 O511 1.246 . S
C515 O512 1.259 . S
C516 O513 1.252 . S
C516 O514 1.273 . S
O517 Mg504 2.010 . S
O517 C509 1.249 . S
Mg518 O519 2.028 . S
Mg518 O525 1.986 . S
Mg518 O527 2.114 . S
Mg518 O528 2.251 . S
Mg518 O531 2.010 . S
O519 Mg518 2.028 . S
O519 C522 1.250 . S
O520 Mg521 2.028 . S
O520 C522 1.248 . S
Mg521 O520 2.028 . S
Mg521 O526 2.032 . S
Mg521 O528 2.079 . S
C522 O519 1.250 . S
C522 O520 1.248 . S
C523 O524 1.264 . S
C523 O531 1.249 . S
O524 C523 1.264 . S
O525 Mg518 1.986 . S
O525 C529 1.246 . S
O526 Mg521 2.032 . S
O526 C529 1.259 . S
O527 Mg518 2.114 . S
O527 C530 1.252 . S
O528 Mg518 2.251 . S
O528 Mg521 2.079 . S
O528 C530 1.273 . S
C529 O525 1.246 . S
C529 O526 1.259 . S
C530 O527 1.252 . S
C530 O528 1.273 . S
O531 Mg518 2.010 . S
O531 C523 1.249 . S
Mg532 O533 2.028 . S
Mg532 O539 1.986 . S
Mg532 O541 2.114 . S
Mg532 O542 2.251 . S
Mg532 O545 2.010 . S
O533 Mg532 2.028 . S
O533 C536 1.250 . S
O534 Mg535 2.028 . S
O534 C536 1.248 . S
Mg535 O534 2.028 . S
Mg535 O540 2.032 . S
Mg535 O542 2.079 . S
C536 O533 1.250 . S
C536 O534 1.248 . S
C537 O538 1.264 . S
C537 O545 1.249 . S
O538 C537 1.264 . S
O539 Mg532 1.986 . S
O539 C543 1.246 . S
O540 Mg535 2.032 . S
O540 C543 1.259 . S
O541 Mg532 2.114 . S
O541 C544 1.252 . S
O542 Mg532 2.251 . S
O542 Mg535 2.079 . S
O542 C544 1.273 . S
C543 O539 1.246 . S
C543 O540 1.259 . S
C544 O541 1.252 . S
C544 O542 1.273 . S
O545 Mg532 2.010 . S
O545 C537 1.249 . S
Mg546 O547 2.028 . S
Mg546 O553 1.986 . S
Mg546 O555 2.114 . S
Mg546 O556 2.251 . S
Mg546 O559 2.010 . S
O547 Mg546 2.028 . S
O547 C550 1.250 . S
O548 Mg549 2.028 . S
O548 C550 1.248 . S
Mg549 O548 2.028 . S
Mg549 O554 2.032 . S
Mg549 O556 2.079 . S
C550 O547 1.250 . S
C550 O548 1.248 . S
C551 O552 1.264 . S
C551 O559 1.249 . S
O552 C551 1.264 . S
O553 Mg546 1.986 . S
O553 C557 1.246 . S
O554 Mg549 2.032 . S
O554 C557 1.259 . S
O555 Mg546 2.114 . S
O555 C558 1.252 . S
O556 Mg546 2.251 . S
O556 Mg549 2.079 . S
O556 C558 1.273 . S
C557 O553 1.246 . S
C557 O554 1.259 . S
C558 O555 1.252 . S
C558 O556 1.273 . S
O559 Mg546 2.010 . S
O559 C551 1.249 . S
Mg560 O561 2.028 . S
Mg560 O567 1.986 . S
Mg560 O569 2.114 . S
Mg560 O570 2.251 . S
Mg560 O573 2.010 . S
O561 Mg560 2.028 . S
O561 C564 1.250 . S
O562 Mg563 2.028 . S
O562 C564 1.248 . S
Mg563 O562 2.028 . S
Mg563 O568 2.032 . S
Mg563 O570 2.079 . S
C564 O561 1.250 . S
C564 O562 1.248 . S
C565 O566 1.264 . S
C565 O573 1.249 . S
O566 C565 1.264 . S
O567 Mg560 1.986 . S
O567 C571 1.246 . S
O568 Mg563 2.032 . S
O568 C571 1.259 . S
O569 Mg560 2.114 . S
O569 C572 1.252 . S
O570 Mg560 2.251 . S
O570 Mg563 2.079 . S
O570 C572 1.273 . S
C571 O567 1.246 . S
C571 O568 1.259 . S
C572 O569 1.252 . S
C572 O570 1.273 . S
O573 Mg560 2.010 . S
O573 C565 1.249 . S
Mg574 O575 2.028 . S
Mg574 O581 1.986 . S
Mg574 O583 2.114 . S
Mg574 O584 2.251 . S
Mg574 O587 2.010 . S
O575 Mg574 2.028 . S
O575 C578 1.250 . S
O576 Mg577 2.028 . S
O576 C578 1.248 . S
Mg577 O576 2.028 . S
Mg577 O582 2.032 . S
Mg577 O584 2.079 . S
C578 O575 1.250 . S
C578 O576 1.248 . S
C579 O580 1.264 . S
C579 O587 1.249 . S
O580 C579 1.264 . S
O581 Mg574 1.986 . S
O581 C585 1.246 . S
O582 Mg577 2.032 . S
O582 C585 1.259 . S
O583 Mg574 2.114 . S
O583 C586 1.252 . S
O584 Mg574 2.251 . S
O584 Mg577 2.079 . S
O584 C586 1.273 . S
C585 O581 1.246 . S
C585 O582 1.259 . S
C586 O583 1.252 . S
C586 O584 1.273 . S
O587 Mg574 2.010 . S
O587 C579 1.249 . S
Mg588 O589 2.028 . S
Mg588 O595 1.986 . S
Mg588 O597 2.114 . S
Mg588 O598 2.251 . S
Mg588 O601 2.010 . S
O589 Mg588 2.028 . S
O589 C592 1.250 . S
O590 Mg591 2.028 . S
O590 C592 1.248 . S
Mg591 O590 2.028 . S
Mg591 O596 2.032 . S
Mg591 O598 2.079 . S
C592 O589 1.250 . S
C592 O590 1.248 . S
C593 O594 1.264 . S
C593 O601 1.249 . S
O594 C593 1.264 . S
O595 Mg588 1.986 . S
O595 C599 1.246 . S
O596 Mg591 2.032 . S
O596 C599 1.259 . S
O597 Mg588 2.114 . S
O597 C600 1.252 . S
O598 Mg588 2.251 . S
O598 Mg591 2.079 . S
O598 C600 1.273 . S
C599 O595 1.246 . S
C599 O596 1.259 . S
C600 O597 1.252 . S
C600 O598 1.273 . S
O601 Mg588 2.010 . S
O601 C593 1.249 . S
Mg602 O603 2.028 . S
Mg602 O609 1.986 . S
Mg602 O611 2.114 . S
Mg602 O612 2.251 . S
Mg602 O615 2.010 . S
O603 Mg602 2.028 . S
O603 C606 1.250 . S
O604 Mg605 2.028 . S
O604 C606 1.248 . S
Mg605 O604 2.028 . S
Mg605 O610 2.032 . S
Mg605 O612 2.079 . S
C606 O603 1.250 . S
C606 O604 1.248 . S
C607 O608 1.264 . S
C607 O615 1.249 . S
O608 C607 1.264 . S
O609 Mg602 1.986 . S
O609 C613 1.246 . S
O610 Mg605 2.032 . S
O610 C613 1.259 . S
O611 Mg602 2.114 . S
O611 C614 1.252 . S
O612 Mg602 2.251 . S
O612 Mg605 2.079 . S
O612 C614 1.273 . S
C613 O609 1.246 . S
C613 O610 1.259 . S
C614 O611 1.252 . S
C614 O612 1.273 . S
O615 Mg602 2.010 . S
O615 C607 1.249 . S
Mg616 O617 2.028 . S
Mg616 O623 1.986 . S
Mg616 O625 2.114 . S
Mg616 O626 2.251 . S
Mg616 O629 2.010 . S
O617 Mg616 2.028 . S
O617 C620 1.250 . S
O618 Mg619 2.028 . S
O618 C620 1.248 . S
Mg619 O618 2.028 . S
Mg619 O624 2.032 . S
Mg619 O626 2.079 . S
C620 O617 1.250 . S
C620 O618 1.248 . S
C621 O622 1.264 . S
C621 O629 1.249 . S
O622 C621 1.264 . S
O623 Mg616 1.986 . S
O623 C627 1.246 . S
O624 Mg619 2.032 . S
O624 C627 1.259 . S
O625 Mg616 2.114 . S
O625 C628 1.252 . S
O626 Mg616 2.251 . S
O626 Mg619 2.079 . S
O626 C628 1.273 . S
C627 O623 1.246 . S
C627 O624 1.259 . S
C628 O625 1.252 . S
C628 O626 1.273 . S
O629 Mg616 2.010 . S
O629 C621 1.249 . S
Mg630 O631 2.028 . S
Mg630 O637 1.986 . S
Mg630 O639 2.114 . S
Mg630 O640 2.251 . S
Mg630 O643 2.010 . S
O631 Mg630 2.028 . S
O631 C634 1.250 . S
O632 Mg633 2.028 . S
O632 C634 1.248 . S
Mg633 O632 2.028 . S
Mg633 O638 2.032 . S
Mg633 O640 2.079 . S
C634 O631 1.250 . S
C634 O632 1.248 . S
C635 O636 1.264 . S
C635 O643 1.249 . S
O636 C635 1.264 . S
O637 Mg630 1.986 . S
O637 C641 1.246 . S
O638 Mg633 2.032 . S
O638 C641 1.259 . S
O639 Mg630 2.114 . S
O639 C642 1.252 . S
O640 Mg630 2.251 . S
O640 Mg633 2.079 . S
O640 C642 1.273 . S
C641 O637 1.246 . S
C641 O638 1.259 . S
C642 O639 1.252 . S
C642 O640 1.273 . S
O643 Mg630 2.010 . S
O643 C635 1.249 . S
Mg644 O645 2.028 . S
Mg644 O651 1.986 . S
Mg644 O653 2.114 . S
Mg644 O654 2.251 . S
Mg644 O657 2.010 . S
O645 Mg644 2.028 . S
O645 C648 1.250 . S
O646 Mg647 2.028 . S
O646 C648 1.248 . S
Mg647 O646 2.028 . S
Mg647 O652 2.032 . S
Mg647 O654 2.079 . S
C648 O645 1.250 . S
C648 O646 1.248 . S
C649 O650 1.264 . S
C649 O657 1.249 . S
O650 C649 1.264 . S
O651 Mg644 1.986 . S
O651 C655 1.246 . S
O652 Mg647 2.032 . S
O652 C655 1.259 . S
O653 Mg644 2.114 . S
O653 C656 1.252 . S
O654 Mg644 2.251 . S
O654 Mg647 2.079 . S
O654 C656 1.273 . S
C655 O651 1.246 . S
C655 O652 1.259 . S
C656 O653 1.252 . S
C656 O654 1.273 . S
O657 Mg644 2.010 . S
O657 C649 1.249 . S
Mg658 O659 2.028 . S
Mg658 O665 1.986 . S
Mg658 O667 2.114 . S
Mg658 O668 2.251 . S
Mg658 O671 2.010 . S
O659 Mg658 2.028 . S
O659 C662 1.250 . S
O660 Mg661 2.028 . S
O660 C662 1.248 . S
Mg661 O660 2.028 . S
Mg661 O666 2.032 . S
Mg661 O668 2.079 . S
C662 O659 1.250 . S
C662 O660 1.248 . S
C663 O664 1.264 . S
C663 O671 1.249 . S
O664 C663 1.264 . S
O665 Mg658 1.986 . S
O665 C669 1.246 . S
O666 Mg661 2.032 . S
O666 C669 1.259 . S
O667 Mg658 2.114 . S
O667 C670 1.252 . S
O668 Mg658 2.251 . S
O668 Mg661 2.079 . S
O668 C670 1.273 . S
C669 O665 1.246 . S
C669 O666 1.259 . S
C670 O667 1.252 . S
C670 O668 1.273 . S
O671 Mg658 2.010 . S
O671 C663 1.249 . S
H672 C678 0.930 . S
H673 C682 0.930 . S
H674 C687 0.929 . S
H675 C685 0.929 . S
H676 C680 0.929 . S
H677 C686 0.929 . S
C678 H672 0.930 . S
C678 C679 1.367 . S
C678 C686 1.378 . S
C679 C678 1.367 . S
C679 C687 1.433 . S
C680 H676 0.929 . S
C680 C682 1.378 . S
C680 C684 1.350 . S
C681 C684 1.463 . S
C681 C686 1.350 . S
C681 N689 1.427 . S
C682 H673 0.930 . S
C682 C680 1.378 . S
C682 C683 1.367 . S
C683 C682 1.367 . S
C683 C685 1.433 . S
C684 C680 1.350 . S
C684 C681 1.463 . S
C684 N688 1.427 . S
C685 H675 0.929 . S
C685 C683 1.433 . S
C685 N688 1.384 . S
C686 H677 0.929 . S
C686 C678 1.378 . S
C686 C681 1.350 . S
C687 H674 0.929 . S
C687 C679 1.433 . S
C687 N689 1.384 . S
N688 C684 1.427 . S
N688 C685 1.384 . S
N689 C681 1.427 . S
N689 C687 1.384 . S
H690 C696 0.930 . S
H691 C700 0.930 . S
H692 C705 0.929 . S
H693 C703 0.929 . S
H694 C698 0.929 . S
H695 C704 0.929 . S
C696 H690 0.930 . S
C696 C697 1.367 . S
C696 C704 1.378 . S
C697 C696 1.367 . S
C697 C705 1.433 . S
C698 H694 0.929 . S
C698 C700 1.378 . S
C698 C702 1.350 . S
C699 C702 1.463 . S
C699 C704 1.350 . S
C699 N707 1.427 . S
C700 H691 0.930 . S
C700 C698 1.378 . S
C700 C701 1.367 . S
C701 C700 1.367 . S
C701 C703 1.433 . S
C702 C698 1.350 . S
C702 C699 1.463 . S
C702 N706 1.427 . S
C703 H693 0.929 . S
C703 C701 1.433 . S
C703 N706 1.384 . S
C704 H695 0.929 . S
C704 C696 1.378 . S
C704 C699 1.350 . S
C705 H692 0.929 . S
C705 C697 1.433 . S
C705 N707 1.384 . S
N706 C702 1.427 . S
N706 C703 1.384 . S
N707 C699 1.427 . S
N707 C705 1.384 . S
H708 C714 0.930 . S
H709 C718 0.930 . S
H710 C723 0.929 . S
H711 C721 0.929 . S
H712 C716 0.929 . S
H713 C722 0.929 . S
C714 H708 0.930 . S
C714 C715 1.367 . S
C714 C722 1.378 . S
C715 C714 1.367 . S
C715 C723 1.433 . S
C716 H712 0.929 . S
C716 C718 1.378 . S
C716 C720 1.350 . S
C717 C720 1.463 . S
C717 C722 1.350 . S
C717 N725 1.427 . S
C718 H709 0.930 . S
C718 C716 1.378 . S
C718 C719 1.367 . S
C719 C718 1.367 . S
C719 C721 1.433 . S
C720 C716 1.350 . S
C720 C717 1.463 . S
C720 N724 1.427 . S
C721 H711 0.929 . S
C721 C719 1.433 . S
C721 N724 1.384 . S
C722 H713 0.929 . S
C722 C714 1.378 . S
C722 C717 1.350 . S
C723 H710 0.929 . S
C723 C715 1.433 . S
C723 N725 1.384 . S
N724 C720 1.427 . S
N724 C721 1.384 . S
N725 C717 1.427 . S
N725 C723 1.384 . S
H726 C732 0.930 . S
H727 C736 0.930 . S
H728 C741 0.929 . S
H729 C739 0.929 . S
H730 C734 0.929 . S
H731 C740 0.929 . S
C732 H726 0.930 . S
C732 C733 1.367 . S
C732 C740 1.378 . S
C733 C732 1.367 . S
C733 C741 1.433 . S
C734 H730 0.929 . S
C734 C736 1.378 . S
C734 C738 1.350 . S
C735 C738 1.463 . S
C735 C740 1.350 . S
C735 N743 1.427 . S
C736 H727 0.930 . S
C736 C734 1.378 . S
C736 C737 1.367 . S
C737 C736 1.367 . S
C737 C739 1.433 . S
C738 C734 1.350 . S
C738 C735 1.463 . S
C738 N742 1.427 . S
C739 H729 0.929 . S
C739 C737 1.433 . S
C739 N742 1.384 . S
C740 H731 0.929 . S
C740 C732 1.378 . S
C740 C735 1.350 . S
C741 H728 0.929 . S
C741 C733 1.433 . S
C741 N743 1.384 . S
N742 C738 1.427 . S
N742 C739 1.384 . S
N743 C735 1.427 . S
N743 C741 1.384 . S
H744 C750 0.930 . S
H745 C754 0.930 . S
H746 C759 0.929 . S
H747 C757 0.929 . S
H748 C752 0.929 . S
H749 C758 0.929 . S
C750 H744 0.930 . S
C750 C751 1.367 . S
C750 C758 1.378 . S
C751 C750 1.367 . S
C751 C759 1.433 . S
C752 H748 0.929 . S
C752 C754 1.378 . S
C752 C756 1.350 . S
C753 C756 1.463 . S
C753 C758 1.350 . S
C753 N761 1.427 . S
C754 H745 0.930 . S
C754 C752 1.378 . S
C754 C755 1.367 . S
C755 C754 1.367 . S
C755 C757 1.433 . S
C756 C752 1.350 . S
C756 C753 1.463 . S
C756 N760 1.427 . S
C757 H747 0.929 . S
C757 C755 1.433 . S
C757 N760 1.384 . S
C758 H749 0.929 . S
C758 C750 1.378 . S
C758 C753 1.350 . S
C759 H746 0.929 . S
C759 C751 1.433 . S
C759 N761 1.384 . S
N760 C756 1.427 . S
N760 C757 1.384 . S
N761 C753 1.427 . S
N761 C759 1.384 . S
H762 C768 0.930 . S
H763 C772 0.930 . S
H764 C777 0.929 . S
H765 C775 0.929 . S
H766 C770 0.929 . S
H767 C776 0.929 . S
C768 H762 0.930 . S
C768 C769 1.367 . S
C768 C776 1.378 . S
C769 C768 1.367 . S
C769 C777 1.433 . S
C770 H766 0.929 . S
C770 C772 1.378 . S
C770 C774 1.350 . S
C771 C774 1.463 . S
C771 C776 1.350 . S
C771 N779 1.427 . S
C772 H763 0.930 . S
C772 C770 1.378 . S
C772 C773 1.367 . S
C773 C772 1.367 . S
C773 C775 1.433 . S
C774 C770 1.350 . S
C774 C771 1.463 . S
C774 N778 1.427 . S
C775 H765 0.929 . S
C775 C773 1.433 . S
C775 N778 1.384 . S
C776 H767 0.929 . S
C776 C768 1.378 . S
C776 C771 1.350 . S
C777 H764 0.929 . S
C777 C769 1.433 . S
C777 N779 1.384 . S
N778 C774 1.427 . S
N778 C775 1.384 . S
N779 C771 1.427 . S
N779 C777 1.384 . S
H780 C786 0.930 . S
H781 C790 0.930 . S
H782 C795 0.929 . S
H783 C793 0.929 . S
H784 C788 0.929 . S
H785 C794 0.929 . S
C786 H780 0.930 . S
C786 C787 1.367 . S
C786 C794 1.378 . S
C787 C786 1.367 . S
C787 C795 1.433 . S
C788 H784 0.929 . S
C788 C790 1.378 . S
C788 C792 1.350 . S
C789 C792 1.463 . S
C789 C794 1.350 . S
C789 N797 1.427 . S
C790 H781 0.930 . S
C790 C788 1.378 . S
C790 C791 1.367 . S
C791 C790 1.367 . S
C791 C793 1.433 . S
C792 C788 1.350 . S
C792 C789 1.463 . S
C792 N796 1.427 . S
C793 H783 0.929 . S
C793 C791 1.433 . S
C793 N796 1.384 . S
C794 H785 0.929 . S
C794 C786 1.378 . S
C794 C789 1.350 . S
C795 H782 0.929 . S
C795 C787 1.433 . S
C795 N797 1.384 . S
N796 C792 1.427 . S
N796 C793 1.384 . S
N797 C789 1.427 . S
N797 C795 1.384 . S
H798 C804 0.930 . S
H799 C808 0.930 . S
H800 C813 0.929 . S
H801 C811 0.929 . S
H802 C806 0.929 . S
H803 C812 0.929 . S
C804 H798 0.930 . S
C804 C805 1.367 . S
C804 C812 1.378 . S
C805 C804 1.367 . S
C805 C813 1.433 . S
C806 H802 0.929 . S
C806 C808 1.378 . S
C806 C810 1.350 . S
C807 C810 1.463 . S
C807 C812 1.350 . S
C807 N815 1.427 . S
C808 H799 0.930 . S
C808 C806 1.378 . S
C808 C809 1.367 . S
C809 C808 1.367 . S
C809 C811 1.433 . S
C810 C806 1.350 . S
C810 C807 1.463 . S
C810 N814 1.427 . S
C811 H801 0.929 . S
C811 C809 1.433 . S
C811 N814 1.384 . S
C812 H803 0.929 . S
C812 C804 1.378 . S
C812 C807 1.350 . S
C813 H800 0.929 . S
C813 C805 1.433 . S
C813 N815 1.384 . S
N814 C810 1.427 . S
N814 C811 1.384 . S
N815 C807 1.427 . S
N815 C813 1.384 . S
H816 C822 0.930 . S
H817 C826 0.930 . S
H818 C831 0.929 . S
H819 C829 0.929 . S
H820 C824 0.929 . S
H821 C830 0.929 . S
C822 H816 0.930 . S
C822 C823 1.367 . S
C822 C830 1.378 . S
C823 C822 1.367 . S
C823 C831 1.433 . S
C824 H820 0.929 . S
C824 C826 1.378 . S
C824 C828 1.350 . S
C825 C828 1.463 . S
C825 C830 1.350 . S
C825 N833 1.427 . S
C826 H817 0.930 . S
C826 C824 1.378 . S
C826 C827 1.367 . S
C827 C826 1.367 . S
C827 C829 1.433 . S
C828 C824 1.350 . S
C828 C825 1.463 . S
C828 N832 1.427 . S
C829 H819 0.929 . S
C829 C827 1.433 . S
C829 N832 1.384 . S
C830 H821 0.929 . S
C830 C822 1.378 . S
C830 C825 1.350 . S
C831 H818 0.929 . S
C831 C823 1.433 . S
C831 N833 1.384 . S
N832 C828 1.427 . S
N832 C829 1.384 . S
N833 C825 1.427 . S
N833 C831 1.384 . S
H834 C840 0.930 . S
H835 C844 0.930 . S
H836 C849 0.929 . S
H837 C847 0.929 . S
H838 C842 0.929 . S
H839 C848 0.929 . S
C840 H834 0.930 . S
C840 C841 1.367 . S
C840 C848 1.378 . S
C841 C840 1.367 . S
C841 C849 1.433 . S
C842 H838 0.929 . S
C842 C844 1.378 . S
C842 C846 1.350 . S
C843 C846 1.463 . S
C843 C848 1.350 . S
C843 N851 1.427 . S
C844 H835 0.930 . S
C844 C842 1.378 . S
C844 C845 1.367 . S
C845 C844 1.367 . S
C845 C847 1.433 . S
C846 C842 1.350 . S
C846 C843 1.463 . S
C846 N850 1.427 . S
C847 H837 0.929 . S
C847 C845 1.433 . S
C847 N850 1.384 . S
C848 H839 0.929 . S
C848 C840 1.378 . S
C848 C843 1.350 . S
C849 H836 0.929 . S
C849 C841 1.433 . S
C849 N851 1.384 . S
N850 C846 1.427 . S
N850 C847 1.384 . S
N851 C843 1.427 . S
N851 C849 1.384 . S
H852 C858 0.930 . S
H853 C862 0.930 . S
H854 C867 0.929 . S
H855 C865 0.929 . S
H856 C860 0.929 . S
H857 C866 0.929 . S
C858 H852 0.930 . S
C858 C859 1.367 . S
C858 C866 1.378 . S
C859 C858 1.367 . S
C859 C867 1.433 . S
C860 H856 0.929 . S
C860 C862 1.378 . S
C860 C864 1.350 . S
C861 C864 1.463 . S
C861 C866 1.350 . S
C861 N869 1.427 . S
C862 H853 0.930 . S
C862 C860 1.378 . S
C862 C863 1.367 . S
C863 C862 1.367 . S
C863 C865 1.433 . S
C864 C860 1.350 . S
C864 C861 1.463 . S
C864 N868 1.427 . S
C865 H855 0.929 . S
C865 C863 1.433 . S
C865 N868 1.384 . S
C866 H857 0.929 . S
C866 C858 1.378 . S
C866 C861 1.350 . S
C867 H854 0.929 . S
C867 C859 1.433 . S
C867 N869 1.384 . S
N868 C864 1.427 . S
N868 C865 1.384 . S
N869 C861 1.427 . S
N869 C867 1.384 . S
H870 C876 0.930 . S
H871 C880 0.930 . S
H872 C885 0.929 . S
H873 C883 0.929 . S
H874 C878 0.929 . S
H875 C884 0.929 . S
C876 H870 0.930 . S
C876 C877 1.367 . S
C876 C884 1.378 . S
C877 C876 1.367 . S
C877 C885 1.433 . S
C878 H874 0.929 . S
C878 C880 1.378 . S
C878 C882 1.350 . S
C879 C882 1.463 . S
C879 C884 1.350 . S
C879 N887 1.427 . S
C880 H871 0.930 . S
C880 C878 1.378 . S
C880 C881 1.367 . S
C881 C880 1.367 . S
C881 C883 1.433 . S
C882 C878 1.350 . S
C882 C879 1.463 . S
C882 N886 1.427 . S
C883 H873 0.929 . S
C883 C881 1.433 . S
C883 N886 1.384 . S
C884 H875 0.929 . S
C884 C876 1.378 . S
C884 C879 1.350 . S
C885 H872 0.929 . S
C885 C877 1.433 . S
C885 N887 1.384 . S
N886 C882 1.427 . S
N886 C883 1.384 . S
N887 C879 1.427 . S
N887 C885 1.384 . S
H888 C894 0.930 . S
H889 C898 0.930 . S
H890 C903 0.929 . S
H891 C901 0.929 . S
H892 C896 0.929 . S
H893 C902 0.929 . S
C894 H888 0.930 . S
C894 C895 1.367 . S
C894 C902 1.378 . S
C895 C894 1.367 . S
C895 C903 1.433 . S
C896 H892 0.929 . S
C896 C898 1.378 . S
C896 C900 1.350 . S
C897 C900 1.463 . S
C897 C902 1.350 . S
C897 N905 1.427 . S
C898 H889 0.930 . S
C898 C896 1.378 . S
C898 C899 1.367 . S
C899 C898 1.367 . S
C899 C901 1.433 . S
C900 C896 1.350 . S
C900 C897 1.463 . S
C900 N904 1.427 . S
C901 H891 0.929 . S
C901 C899 1.433 . S
C901 N904 1.384 . S
C902 H893 0.929 . S
C902 C894 1.378 . S
C902 C897 1.350 . S
C903 H890 0.929 . S
C903 C895 1.433 . S
C903 N905 1.384 . S
N904 C900 1.427 . S
N904 C901 1.384 . S
N905 C897 1.427 . S
N905 C903 1.384 . S
H906 C912 0.930 . S
H907 C916 0.930 . S
H908 C921 0.929 . S
H909 C919 0.929 . S
H910 C914 0.929 . S
H911 C920 0.929 . S
C912 H906 0.930 . S
C912 C913 1.367 . S
C912 C920 1.378 . S
C913 C912 1.367 . S
C913 C921 1.433 . S
C914 H910 0.929 . S
C914 C916 1.378 . S
C914 C918 1.350 . S
C915 C918 1.463 . S
C915 C920 1.350 . S
C915 N923 1.427 . S
C916 H907 0.930 . S
C916 C914 1.378 . S
C916 C917 1.367 . S
C917 C916 1.367 . S
C917 C919 1.433 . S
C918 C914 1.350 . S
C918 C915 1.463 . S
C918 N922 1.427 . S
C919 H909 0.929 . S
C919 C917 1.433 . S
C919 N922 1.384 . S
C920 H911 0.929 . S
C920 C912 1.378 . S
C920 C915 1.350 . S
C921 H908 0.929 . S
C921 C913 1.433 . S
C921 N923 1.384 . S
N922 C918 1.427 . S
N922 C919 1.384 . S
N923 C915 1.427 . S
N923 C921 1.384 . S
H924 C930 0.930 . S
H925 C934 0.930 . S
H926 C939 0.929 . S
H927 C937 0.929 . S
H928 C932 0.929 . S
H929 C938 0.929 . S
C930 H924 0.930 . S
C930 C931 1.367 . S
C930 C938 1.378 . S
C931 C930 1.367 . S
C931 C939 1.433 . S
C932 H928 0.929 . S
C932 C934 1.378 . S
C932 C936 1.350 . S
C933 C936 1.463 . S
C933 C938 1.350 . S
C933 N941 1.427 . S
C934 H925 0.930 . S
C934 C932 1.378 . S
C934 C935 1.367 . S
C935 C934 1.367 . S
C935 C937 1.433 . S
C936 C932 1.350 . S
C936 C933 1.463 . S
C936 N940 1.427 . S
C937 H927 0.929 . S
C937 C935 1.433 . S
C937 N940 1.384 . S
C938 H929 0.929 . S
C938 C930 1.378 . S
C938 C933 1.350 . S
C939 H926 0.929 . S
C939 C931 1.433 . S
C939 N941 1.384 . S
N940 C936 1.427 . S
N940 C937 1.384 . S
N941 C933 1.427 . S
N941 C939 1.384 . S
H942 C948 0.930 . S
H943 C952 0.930 . S
H944 C957 0.929 . S
H945 C955 0.929 . S
H946 C950 0.929 . S
H947 C956 0.929 . S
C948 H942 0.930 . S
C948 C949 1.367 . S
C948 C956 1.378 . S
C949 C948 1.367 . S
C949 C957 1.433 . S
C950 H946 0.929 . S
C950 C952 1.378 . S
C950 C954 1.350 . S
C951 C954 1.463 . S
C951 C956 1.350 . S
C951 N959 1.427 . S
C952 H943 0.930 . S
C952 C950 1.378 . S
C952 C953 1.367 . S
C953 C952 1.367 . S
C953 C955 1.433 . S
C954 C950 1.350 . S
C954 C951 1.463 . S
C954 N958 1.427 . S
C955 H945 0.929 . S
C955 C953 1.433 . S
C955 N958 1.384 . S
C956 H947 0.929 . S
C956 C948 1.378 . S
C956 C951 1.350 . S
C957 H944 0.929 . S
C957 C949 1.433 . S
C957 N959 1.384 . S
N958 C954 1.427 . S
N958 C955 1.384 . S
N959 C951 1.427 . S
N959 C957 1.384 . S
H960 C966 0.930 . S
H961 C970 0.930 . S
H962 C975 0.929 . S
H963 C973 0.929 . S
H964 C968 0.929 . S
H965 C974 0.929 . S
C966 H960 0.930 . S
C966 C967 1.367 . S
C966 C974 1.378 . S
C967 C966 1.367 . S
C967 C975 1.433 . S
C968 H964 0.929 . S
C968 C970 1.378 . S
C968 C972 1.350 . S
C969 C972 1.463 . S
C969 C974 1.350 . S
C969 N977 1.427 . S
C970 H961 0.930 . S
C970 C968 1.378 . S
C970 C971 1.367 . S
C971 C970 1.367 . S
C971 C973 1.433 . S
C972 C968 1.350 . S
C972 C969 1.463 . S
C972 N976 1.427 . S
C973 H963 0.929 . S
C973 C971 1.433 . S
C973 N976 1.384 . S
C974 H965 0.929 . S
C974 C966 1.378 . S
C974 C969 1.350 . S
C975 H962 0.929 . S
C975 C967 1.433 . S
C975 N977 1.384 . S
N976 C972 1.427 . S
N976 C973 1.384 . S
N977 C969 1.427 . S
N977 C975 1.384 . S
H978 C984 0.930 . S
H979 C988 0.930 . S
H980 C993 0.929 . S
H981 C991 0.929 . S
H982 C986 0.929 . S
H983 C992 0.929 . S
C984 H978 0.930 . S
C984 C985 1.367 . S
C984 C992 1.378 . S
C985 C984 1.367 . S
C985 C993 1.433 . S
C986 H982 0.929 . S
C986 C988 1.378 . S
C986 C990 1.350 . S
C987 C990 1.463 . S
C987 C992 1.350 . S
C987 N995 1.427 . S
C988 H979 0.930 . S
C988 C986 1.378 . S
C988 C989 1.367 . S
C989 C988 1.367 . S
C989 C991 1.433 . S
C990 C986 1.350 . S
C990 C987 1.463 . S
C990 N994 1.427 . S
C991 H981 0.929 . S
C991 C989 1.433 . S
C991 N994 1.384 . S
C992 H983 0.929 . S
C992 C984 1.378 . S
C992 C987 1.350 . S
C993 H980 0.929 . S
C993 C985 1.433 . S
C993 N995 1.384 . S
N994 C990 1.427 . S
N994 C991 1.384 . S
N995 C987 1.427 . S
N995 C993 1.384 . S
H996 C1002 0.930 . S
H997 C1006 0.930 . S
H998 C1011 0.929 . S
H999 C1009 0.929 . S
H1000 C1004 0.929 . S
H1001 C1010 0.929 . S
C1002 H996 0.930 . S
C1002 C1003 1.367 . S
C1002 C1010 1.378 . S
C1003 C1002 1.367 . S
C1003 C1011 1.433 . S
C1004 H1000 0.929 . S
C1004 C1006 1.378 . S
C1004 C1008 1.350 . S
C1005 C1008 1.463 . S
C1005 C1010 1.350 . S
C1005 N1013 1.427 . S
C1006 H997 0.930 . S
C1006 C1004 1.378 . S
C1006 C1007 1.367 . S
C1007 C1006 1.367 . S
C1007 C1009 1.433 . S
C1008 C1004 1.350 . S
C1008 C1005 1.463 . S
C1008 N1012 1.427 . S
C1009 H999 0.929 . S
C1009 C1007 1.433 . S
C1009 N1012 1.384 . S
C1010 H1001 0.929 . S
C1010 C1002 1.378 . S
C1010 C1005 1.350 . S
C1011 H998 0.929 . S
C1011 C1003 1.433 . S
C1011 N1013 1.384 . S
N1012 C1008 1.427 . S
N1012 C1009 1.384 . S
N1013 C1005 1.427 . S
N1013 C1011 1.384 . S
H1014 C1020 0.930 . S
H1015 C1024 0.930 . S
H1016 C1029 0.929 . S
H1017 C1027 0.929 . S
H1018 C1022 0.929 . S
H1019 C1028 0.929 . S
C1020 H1014 0.930 . S
C1020 C1021 1.367 . S
C1020 C1028 1.378 . S
C1021 C1020 1.367 . S
C1021 C1029 1.433 . S
C1022 H1018 0.929 . S
C1022 C1024 1.378 . S
C1022 C1026 1.350 . S
C1023 C1026 1.463 . S
C1023 C1028 1.350 . S
C1023 N1031 1.427 . S
C1024 H1015 0.930 . S
C1024 C1022 1.378 . S
C1024 C1025 1.367 . S
C1025 C1024 1.367 . S
C1025 C1027 1.433 . S
C1026 C1022 1.350 . S
C1026 C1023 1.463 . S
C1026 N1030 1.427 . S
C1027 H1017 0.929 . S
C1027 C1025 1.433 . S
C1027 N1030 1.384 . S
C1028 H1019 0.929 . S
C1028 C1020 1.378 . S
C1028 C1023 1.350 . S
C1029 H1016 0.929 . S
C1029 C1021 1.433 . S
C1029 N1031 1.384 . S
N1030 C1026 1.427 . S
N1030 C1027 1.384 . S
N1031 C1023 1.427 . S
N1031 C1029 1.384 . S
H1032 C1038 0.930 . S
H1033 C1042 0.930 . S
H1034 C1047 0.929 . S
H1035 C1045 0.929 . S
H1036 C1040 0.929 . S
H1037 C1046 0.929 . S
C1038 H1032 0.930 . S
C1038 C1039 1.367 . S
C1038 C1046 1.378 . S
C1039 C1038 1.367 . S
C1039 C1047 1.433 . S
C1040 H1036 0.929 . S
C1040 C1042 1.378 . S
C1040 C1044 1.350 . S
C1041 C1044 1.463 . S
C1041 C1046 1.350 . S
C1041 N1049 1.427 . S
C1042 H1033 0.930 . S
C1042 C1040 1.378 . S
C1042 C1043 1.367 . S
C1043 C1042 1.367 . S
C1043 C1045 1.433 . S
C1044 C1040 1.350 . S
C1044 C1041 1.463 . S
C1044 N1048 1.427 . S
C1045 H1035 0.929 . S
C1045 C1043 1.433 . S
C1045 N1048 1.384 . S
C1046 H1037 0.929 . S
C1046 C1038 1.378 . S
C1046 C1041 1.350 . S
C1047 H1034 0.929 . S
C1047 C1039 1.433 . S
C1047 N1049 1.384 . S
N1048 C1044 1.427 . S
N1048 C1045 1.384 . S
N1049 C1041 1.427 . S
N1049 C1047 1.384 . S
H1050 C1056 0.930 . S
H1051 C1060 0.930 . S
H1052 C1065 0.929 . S
H1053 C1063 0.929 . S
H1054 C1058 0.929 . S
H1055 C1064 0.929 . S
C1056 H1050 0.930 . S
C1056 C1057 1.367 . S
C1056 C1064 1.378 . S
C1057 C1056 1.367 . S
C1057 C1065 1.433 . S
C1058 H1054 0.929 . S
C1058 C1060 1.378 . S
C1058 C1062 1.350 . S
C1059 C1062 1.463 . S
C1059 C1064 1.350 . S
C1059 N1067 1.427 . S
C1060 H1051 0.930 . S
C1060 C1058 1.378 . S
C1060 C1061 1.367 . S
C1061 C1060 1.367 . S
C1061 C1063 1.433 . S
C1062 C1058 1.350 . S
C1062 C1059 1.463 . S
C1062 N1066 1.427 . S
C1063 H1053 0.929 . S
C1063 C1061 1.433 . S
C1063 N1066 1.384 . S
C1064 H1055 0.929 . S
C1064 C1056 1.378 . S
C1064 C1059 1.350 . S
C1065 H1052 0.929 . S
C1065 C1057 1.433 . S
C1065 N1067 1.384 . S
N1066 C1062 1.427 . S
N1066 C1063 1.384 . S
N1067 C1059 1.427 . S
N1067 C1065 1.384 . S
H1068 C1074 0.930 . S
H1069 C1078 0.930 . S
H1070 C1083 0.929 . S
H1071 C1081 0.929 . S
H1072 C1076 0.929 . S
H1073 C1082 0.929 . S
C1074 H1068 0.930 . S
C1074 C1075 1.367 . S
C1074 C1082 1.378 . S
C1075 C1074 1.367 . S
C1075 C1083 1.433 . S
C1076 H1072 0.929 . S
C1076 C1078 1.378 . S
C1076 C1080 1.350 . S
C1077 C1080 1.463 . S
C1077 C1082 1.350 . S
C1077 N1085 1.427 . S
C1078 H1069 0.930 . S
C1078 C1076 1.378 . S
C1078 C1079 1.367 . S
C1079 C1078 1.367 . S
C1079 C1081 1.433 . S
C1080 C1076 1.350 . S
C1080 C1077 1.463 . S
C1080 N1084 1.427 . S
C1081 H1071 0.929 . S
C1081 C1079 1.433 . S
C1081 N1084 1.384 . S
C1082 H1073 0.929 . S
C1082 C1074 1.378 . S
C1082 C1077 1.350 . S
C1083 H1070 0.929 . S
C1083 C1075 1.433 . S
C1083 N1085 1.384 . S
N1084 C1080 1.427 . S
N1084 C1081 1.384 . S
N1085 C1077 1.427 . S
N1085 C1083 1.384 . S
H1086 C1092 0.930 . S
H1087 C1096 0.930 . S
H1088 C1101 0.929 . S
H1089 C1099 0.929 . S
H1090 C1094 0.929 . S
H1091 C1100 0.929 . S
C1092 H1086 0.930 . S
C1092 C1093 1.367 . S
C1092 C1100 1.378 . S
C1093 C1092 1.367 . S
C1093 C1101 1.433 . S
C1094 H1090 0.929 . S
C1094 C1096 1.378 . S
C1094 C1098 1.350 . S
C1095 C1098 1.463 . S
C1095 C1100 1.350 . S
C1095 N1103 1.427 . S
C1096 H1087 0.930 . S
C1096 C1094 1.378 . S
C1096 C1097 1.367 . S
C1097 C1096 1.367 . S
C1097 C1099 1.433 . S
C1098 C1094 1.350 . S
C1098 C1095 1.463 . S
C1098 N1102 1.427 . S
C1099 H1089 0.929 . S
C1099 C1097 1.433 . S
C1099 N1102 1.384 . S
C1100 H1091 0.929 . S
C1100 C1092 1.378 . S
C1100 C1095 1.350 . S
C1101 H1088 0.929 . S
C1101 C1093 1.433 . S
C1101 N1103 1.384 . S
N1102 C1098 1.427 . S
N1102 C1099 1.384 . S
N1103 C1095 1.427 . S
N1103 C1101 1.384 . S
H1104 C1110 0.930 . S
H1105 C1114 0.930 . S
H1106 C1119 0.929 . S
H1107 C1117 0.929 . S
H1108 C1112 0.929 1_655 S
H1109 C1118 0.929 1_455 S
C1110 H1104 0.930 . S
C1110 C1111 1.367 . S
C1110 C1118 1.378 . S
C1111 C1110 1.367 . S
C1111 C1119 1.433 . S
C1112 H1108 0.929 1_455 S
C1112 C1114 1.378 . S
C1112 C1116 1.350 . S
C1113 C1116 1.463 1_655 S
C1113 C1118 1.350 . S
C1113 N1121 1.427 . S
C1114 H1105 0.930 . S
C1114 C1112 1.378 . S
C1114 C1115 1.367 . S
C1115 C1114 1.367 . S
C1115 C1117 1.433 . S
C1116 C1112 1.350 . S
C1116 C1113 1.463 1_455 S
C1116 N1120 1.427 . S
C1117 H1107 0.929 . S
C1117 C1115 1.433 . S
C1117 N1120 1.384 . S
C1118 H1109 0.929 1_655 S
C1118 C1110 1.378 . S
C1118 C1113 1.350 . S
C1119 H1106 0.929 . S
C1119 C1111 1.433 . S
C1119 N1121 1.384 . S
N1120 C1116 1.427 . S
N1120 C1117 1.384 . S
N1121 C1113 1.427 . S
N1121 C1119 1.384 . S
H1122 C1128 0.930 . S
H1123 C1132 0.930 . S
H1124 C1137 0.929 . S
H1125 C1135 0.929 . S
H1126 C1130 0.929 . S
H1127 C1136 0.929 . S
C1128 H1122 0.930 . S
C1128 C1129 1.367 . S
C1128 C1136 1.378 . S
C1129 C1128 1.367 . S
C1129 C1137 1.433 1_565 S
C1130 H1126 0.929 . S
C1130 C1132 1.378 . S
C1130 C1134 1.350 . S
C1131 C1134 1.463 1_565 S
C1131 C1136 1.350 . S
C1131 N1139 1.427 1_565 S
C1132 H1123 0.930 . S
C1132 C1130 1.378 . S
C1132 C1133 1.367 . S
C1133 C1132 1.367 . S
C1133 C1135 1.433 1_545 S
C1134 C1130 1.350 . S
C1134 C1131 1.463 1_545 S
C1134 N1138 1.427 1_545 S
C1135 H1125 0.929 . S
C1135 C1133 1.433 1_565 S
C1135 N1138 1.384 . S
C1136 H1127 0.929 . S
C1136 C1128 1.378 . S
C1136 C1131 1.350 . S
C1137 H1124 0.929 . S
C1137 C1129 1.433 1_545 S
C1137 N1139 1.384 . S
N1138 C1134 1.427 1_565 S
N1138 C1135 1.384 . S
N1139 C1131 1.427 1_545 S
N1139 C1137 1.384 . S
H1140 C1146 0.930 . S
H1141 C1150 0.930 . S
H1142 C1155 0.929 . S
H1143 C1153 0.929 . S
H1144 C1148 0.929 . S
H1145 C1154 0.929 . S
C1146 H1140 0.930 . S
C1146 C1147 1.367 . S
C1146 C1154 1.378 . S
C1147 C1146 1.367 . S
C1147 C1155 1.433 . S
C1148 H1144 0.929 . S
C1148 C1150 1.378 . S
C1148 C1152 1.350 . S
C1149 C1152 1.463 1_655 S
C1149 C1154 1.350 . S
C1149 N1157 1.427 . S
C1150 H1141 0.930 . S
C1150 C1148 1.378 . S
C1150 C1151 1.367 . S
C1151 C1150 1.367 . S
C1151 C1153 1.433 . S
C1152 C1148 1.350 . S
C1152 C1149 1.463 1_455 S
C1152 N1156 1.427 . S
C1153 H1143 0.929 . S
C1153 C1151 1.433 . S
C1153 N1156 1.384 . S
C1154 H1145 0.929 . S
C1154 C1146 1.378 . S
C1154 C1149 1.350 . S
C1155 H1142 0.929 . S
C1155 C1147 1.433 . S
C1155 N1157 1.384 . S
N1156 C1152 1.427 . S
N1156 C1153 1.384 . S
N1157 C1149 1.427 . S
N1157 C1155 1.384 . S
H1158 C1164 0.930 . S
H1159 C1168 0.930 . S
H1160 C1173 0.911 1_565 S
H1161 C1171 0.929 . S
H1162 C1166 0.929 . S
H1163 C1172 0.929 . S
C1164 H1158 0.930 . S
C1164 C1165 1.367 . S
C1164 C1172 1.378 . S
C1165 C1164 1.367 . S
C1165 C1173 1.465 . S
C1166 H1162 0.929 . S
C1166 C1168 1.378 . S
C1166 C1170 1.350 . S
C1167 C1170 1.463 1_545 S
C1167 C1172 1.350 . S
C1167 N1175 1.427 1_545 S
C1168 H1159 0.930 . S
C1168 C1166 1.378 . S
C1168 C1169 1.367 . S
C1169 C1168 1.367 . S
C1169 C1171 1.433 1_565 S
C1170 C1166 1.350 . S
C1170 C1167 1.463 1_565 S
C1170 N1174 1.427 1_565 S
C1171 H1161 0.929 . S
C1171 C1169 1.433 1_545 S
C1171 N1174 1.384 . S
C1172 H1163 0.929 . S
C1172 C1164 1.378 . S
C1172 C1167 1.350 . S
C1173 H1160 0.911 1_545 S
C1173 C1165 1.465 . S
C1173 N1175 1.372 1_545 S
N1174 C1170 1.427 1_545 S
N1174 C1171 1.384 . S
N1175 C1167 1.427 1_565 S
N1175 C1173 1.372 1_565 S
H1176 C1182 0.930 . S
H1177 C1186 0.930 . S
H1178 C1191 0.929 . S
H1179 C1189 0.929 . S
H1180 C1184 0.944 . S
H1181 C1190 0.944 . S
C1182 H1176 0.930 . S
C1182 C1183 1.367 . S
C1182 C1190 1.378 . S
C1183 C1182 1.367 . S
C1183 C1191 1.433 . S
C1184 H1180 0.944 . S
C1184 C1186 1.378 . S
C1184 C1188 1.350 . S
C1185 C1188 1.463 1_455 S
C1185 C1190 1.350 . S
C1185 N1193 1.427 . S
C1186 H1177 0.930 . S
C1186 C1184 1.378 . S
C1186 C1187 1.367 . S
C1187 C1186 1.367 . S
C1187 C1189 1.433 . S
C1188 C1184 1.350 . S
C1188 C1185 1.463 1_655 S
C1188 N1192 1.427 . S
C1189 H1179 0.929 . S
C1189 C1187 1.433 . S
C1189 N1192 1.384 . S
C1190 H1181 0.944 . S
C1190 C1182 1.378 . S
C1190 C1185 1.350 . S
C1191 H1178 0.929 . S
C1191 C1183 1.433 . S
C1191 N1193 1.384 . S
N1192 C1188 1.427 . S
N1192 C1189 1.384 . S
N1193 C1185 1.427 . S
N1193 C1191 1.384 . S
H1194 C1200 0.930 . S
H1195 C1204 0.930 . S
H1196 C1209 0.929 . S
H1197 C1207 0.929 . S
H1198 C1202 0.929 . S
H1199 C1208 0.929 . S
C1200 H1194 0.930 . S
C1200 C1201 1.367 . S
C1200 C1208 1.378 . S
C1201 C1200 1.367 . S
C1201 C1209 1.433 . S
C1202 H1198 0.929 . S
C1202 C1204 1.378 . S
C1202 C1206 1.350 . S
C1203 C1206 1.463 1_565 S
C1203 C1208 1.350 . S
C1203 N1211 1.427 . S
C1204 H1195 0.930 . S
C1204 C1202 1.378 . S
C1204 C1205 1.367 . S
C1205 C1204 1.367 . S
C1205 C1207 1.433 . S
C1206 C1202 1.350 . S
C1206 C1203 1.463 1_545 S
C1206 N1210 1.427 1_545 S
C1207 H1197 0.929 . S
C1207 C1205 1.433 . S
C1207 N1210 1.384 1_545 S
C1208 H1199 0.929 . S
C1208 C1200 1.378 . S
C1208 C1203 1.350 . S
C1209 H1196 0.929 . S
C1209 C1201 1.433 . S
C1209 N1211 1.384 . S
N1210 C1206 1.427 1_565 S
N1210 C1207 1.384 1_565 S
N1211 C1203 1.427 . S
N1211 C1209 1.384 . S
H1212 C1218 0.930 . S
H1213 C1222 0.930 . S
H1214 C1227 0.929 . S
H1215 C1225 0.929 . S
H1216 C1220 0.929 . S
H1217 C1226 0.929 . S
C1218 H1212 0.930 . S
C1218 C1219 1.367 . S
C1218 C1226 1.378 . S
C1219 C1218 1.367 . S
C1219 C1227 1.433 . S
C1220 H1216 0.929 . S
C1220 C1222 1.378 . S
C1220 C1224 1.350 . S
C1221 C1224 1.463 1_455 S
C1221 C1226 1.350 . S
C1221 N1229 1.427 . S
C1222 H1213 0.930 . S
C1222 C1220 1.378 . S
C1222 C1223 1.367 . S
C1223 C1222 1.367 . S
C1223 C1225 1.433 . S
C1224 C1220 1.350 . S
C1224 C1221 1.463 1_655 S
C1224 N1228 1.427 . S
C1225 H1215 0.929 . S
C1225 C1223 1.433 . S
C1225 N1228 1.384 . S
C1226 H1217 0.929 . S
C1226 C1218 1.378 . S
C1226 C1221 1.350 . S
C1227 H1214 0.929 . S
C1227 C1219 1.433 . S
C1227 N1229 1.384 . S
N1228 C1224 1.427 . S
N1228 C1225 1.384 . S
N1229 C1221 1.427 . S
N1229 C1227 1.384 . S
H1230 C1236 0.930 . S
H1231 C1240 0.930 . S
H1232 C1245 0.929 . S
H1233 C1243 0.929 . S
H1234 C1238 0.929 . S
H1235 C1244 0.929 . S
C1236 H1230 0.930 . S
C1236 C1237 1.367 . S
C1236 C1244 1.378 . S
C1237 C1236 1.367 . S
C1237 C1245 1.433 1_545 S
C1238 H1234 0.929 . S
C1238 C1240 1.378 . S
C1238 C1242 1.350 . S
C1239 C1242 1.463 1_545 S
C1239 C1244 1.350 . S
C1239 N1247 1.427 1_545 S
C1240 H1231 0.930 . S
C1240 C1238 1.378 . S
C1240 C1241 1.367 . S
C1241 C1240 1.367 . S
C1241 C1243 1.433 1_565 S
C1242 C1238 1.350 . S
C1242 C1239 1.463 1_565 S
C1242 N1246 1.427 1_565 S
C1243 H1233 0.929 . S
C1243 C1241 1.433 1_545 S
C1243 N1246 1.384 . S
C1244 H1235 0.929 . S
C1244 C1236 1.378 . S
C1244 C1239 1.350 . S
C1245 H1232 0.929 . S
C1245 C1237 1.433 1_565 S
C1245 N1247 1.384 . S
N1246 C1242 1.427 1_545 S
N1246 C1243 1.384 . S
N1247 C1239 1.427 1_565 S
N1247 C1245 1.384 . S
H1248 C1254 0.930 . S
H1249 C1258 0.930 . S
H1250 C1263 0.929 1_554 S
H1251 C1261 0.912 1_556 S
H1252 C1256 0.929 . S
H1253 C1262 0.929 . S
C1254 H1248 0.930 . S
C1254 C1255 1.367 . S
C1254 C1262 1.378 . S
C1255 C1254 1.367 . S
C1255 C1263 1.433 . S
C1256 H1252 0.929 . S
C1256 C1258 1.378 . S
C1256 C1260 1.350 . S
C1257 C1260 1.463 1_556 S
C1257 C1262 1.350 . S
C1257 N1265 1.427 1_556 S
C1258 H1249 0.930 . S
C1258 C1256 1.378 . S
C1258 C1259 1.367 . S
C1259 C1258 1.367 . S
C1259 C1261 1.468 . S
C1260 C1256 1.350 . S
C1260 C1257 1.463 1_554 S
C1260 N1264 1.427 1_554 S
C1261 H1251 0.912 1_554 S
C1261 C1259 1.468 . S
C1261 N1264 1.369 1_554 S
C1262 H1253 0.929 . S
C1262 C1254 1.378 . S
C1262 C1257 1.350 . S
C1263 H1250 0.929 1_556 S
C1263 C1255 1.433 . S
C1263 N1265 1.384 1_556 S
N1264 C1260 1.427 1_556 S
N1264 C1261 1.369 1_556 S
N1265 C1257 1.427 1_554 S
N1265 C1263 1.384 1_554 S
H1266 C1272 0.930 . S
H1267 C1276 0.930 . S
H1268 C1281 0.929 . S
H1269 C1279 0.929 . S
H1270 C1274 0.925 1_554 S
H1271 C1280 0.929 . S
C1272 H1266 0.930 . S
C1272 C1273 1.367 . S
C1272 C1280 1.378 . S
C1273 C1272 1.367 . S
C1273 C1281 1.433 . S
C1274 H1270 0.925 1_556 S
C1274 C1276 1.378 . S
C1274 C1278 1.350 . S
C1275 C1278 1.463 1_554 S
C1275 C1280 1.350 . S
C1275 N1283 1.427 . S
C1276 H1267 0.930 . S
C1276 C1274 1.378 . S
C1276 C1277 1.367 . S
C1277 C1276 1.367 . S
C1277 C1279 1.433 . S
C1278 C1274 1.350 . S
C1278 C1275 1.463 1_556 S
C1278 N1282 1.427 . S
C1279 H1269 0.929 . S
C1279 C1277 1.433 . S
C1279 N1282 1.384 . S
C1280 H1271 0.929 . S
C1280 C1272 1.378 . S
C1280 C1275 1.350 . S
C1281 H1268 0.929 . S
C1281 C1273 1.433 . S
C1281 N1283 1.384 . S
N1282 C1278 1.427 . S
N1282 C1279 1.384 . S
N1283 C1275 1.427 . S
N1283 C1281 1.384 . S
H1284 C1290 0.930 . S
H1285 C1294 0.930 . S
H1286 C1299 0.929 1_556 S
H1287 C1297 0.954 . S
H1288 C1292 0.929 . S
H1289 C1298 0.929 . S
C1290 H1284 0.930 . S
C1290 C1291 1.367 . S
C1290 C1298 1.378 . S
C1291 C1290 1.367 . S
C1291 C1299 1.433 . S
C1292 H1288 0.929 . S
C1292 C1294 1.378 . S
C1292 C1296 1.350 . S
C1293 C1296 1.463 1_554 S
C1293 C1298 1.350 . S
C1293 N1301 1.427 1_554 S
C1294 H1285 0.930 . S
C1294 C1292 1.378 . S
C1294 C1295 1.367 . S
C1295 C1294 1.367 . S
C1295 C1297 1.391 1_556 S
C1296 C1292 1.350 . S
C1296 C1293 1.463 1_556 S
C1296 N1300 1.427 1_556 S
C1297 H1287 0.954 . S
C1297 C1295 1.391 1_554 S
C1297 N1300 1.402 . S
C1298 H1289 0.929 . S
C1298 C1290 1.378 . S
C1298 C1293 1.350 . S
C1299 H1286 0.929 1_554 S
C1299 C1291 1.433 . S
C1299 N1301 1.384 1_554 S
N1300 C1296 1.427 1_554 S
N1300 C1297 1.402 . S
N1301 C1293 1.427 1_556 S
N1301 C1299 1.384 1_556 S
H1302 C1308 0.930 . S
H1303 C1312 0.930 . S
H1304 C1317 0.929 1_554 S
H1305 C1315 0.929 1_556 S
H1306 C1310 0.929 . S
H1307 C1316 0.929 . S
C1308 H1302 0.930 . S
C1308 C1309 1.367 . S
C1308 C1316 1.378 . S
C1309 C1308 1.367 . S
C1309 C1317 1.433 . S
C1310 H1306 0.929 . S
C1310 C1312 1.378 . S
C1310 C1314 1.350 . S
C1311 C1314 1.463 1_556 S
C1311 C1316 1.350 . S
C1311 N1319 1.427 1_556 S
C1312 H1303 0.930 . S
C1312 C1310 1.378 . S
C1312 C1313 1.367 . S
C1313 C1312 1.367 . S
C1313 C1315 1.433 . S
C1314 C1310 1.350 . S
C1314 C1311 1.463 1_554 S
C1314 N1318 1.427 1_554 S
C1315 H1305 0.929 1_554 S
C1315 C1313 1.433 . S
C1315 N1318 1.384 1_554 S
C1316 H1307 0.929 . S
C1316 C1308 1.378 . S
C1316 C1311 1.350 . S
C1317 H1304 0.929 1_556 S
C1317 C1309 1.433 . S
C1317 N1319 1.384 1_556 S
N1318 C1314 1.427 1_556 S
N1318 C1315 1.384 1_556 S
N1319 C1311 1.427 1_554 S
N1319 C1317 1.384 1_554 S
H1320 C1326 0.930 . S
H1321 C1330 0.930 . S
H1322 C1335 0.929 . S
H1323 C1333 0.929 . S
H1324 C1328 0.929 . S
H1325 C1334 0.929 . S
C1326 H1320 0.930 . S
C1326 C1327 1.367 . S
C1326 C1334 1.378 . S
C1327 C1326 1.367 . S
C1327 C1335 1.433 . S
C1328 H1324 0.929 . S
C1328 C1330 1.378 . S
C1328 C1332 1.350 . S
C1329 C1332 1.463 . S
C1329 C1334 1.350 . S
C1329 N1337 1.427 . S
C1330 H1321 0.930 . S
C1330 C1328 1.378 . S
C1330 C1331 1.367 . S
C1331 C1330 1.367 . S
C1331 C1333 1.433 . S
C1332 C1328 1.350 . S
C1332 C1329 1.463 . S
C1332 N1336 1.427 . S
C1333 H1323 0.929 . S
C1333 C1331 1.433 . S
C1333 N1336 1.384 . S
C1334 H1325 0.929 . S
C1334 C1326 1.378 . S
C1334 C1329 1.350 . S
C1335 H1322 0.929 . S
C1335 C1327 1.433 . S
C1335 N1337 1.384 . S
N1336 C1332 1.427 . S
N1336 C1333 1.384 . S
N1337 C1329 1.427 . S
N1337 C1335 1.384 . S
H1338 C1344 0.930 . S
H1339 C1348 0.930 . S
H1340 C1353 0.929 . S
H1341 C1351 0.929 . S
H1342 C1346 0.929 . S
H1343 C1352 0.929 . S
C1344 H1338 0.930 . S
C1344 C1345 1.367 . S
C1344 C1352 1.378 . S
C1345 C1344 1.367 . S
C1345 C1353 1.433 . S
C1346 H1342 0.929 . S
C1346 C1348 1.378 . S
C1346 C1350 1.350 . S
C1347 C1350 1.463 . S
C1347 C1352 1.350 . S
C1347 N1355 1.427 . S
C1348 H1339 0.930 . S
C1348 C1346 1.378 . S
C1348 C1349 1.367 . S
C1349 C1348 1.367 . S
C1349 C1351 1.433 . S
C1350 C1346 1.350 . S
C1350 C1347 1.463 . S
C1350 N1354 1.427 . S
C1351 H1341 0.929 . S
C1351 C1349 1.433 . S
C1351 N1354 1.384 . S
C1352 H1343 0.929 . S
C1352 C1344 1.378 . S
C1352 C1347 1.350 . S
C1353 H1340 0.929 . S
C1353 C1345 1.433 . S
C1353 N1355 1.384 . S
N1354 C1350 1.427 . S
N1354 C1351 1.384 . S
N1355 C1347 1.427 . S
N1355 C1353 1.384 . S
H1356 C1362 0.930 . S
H1357 C1366 0.930 . S
H1358 C1371 0.929 . S
H1359 C1369 0.929 . S
H1360 C1364 0.929 . S
H1361 C1370 0.929 . S
C1362 H1356 0.930 . S
C1362 C1363 1.367 . S
C1362 C1370 1.378 . S
C1363 C1362 1.367 . S
C1363 C1371 1.433 . S
C1364 H1360 0.929 . S
C1364 C1366 1.378 . S
C1364 C1368 1.350 . S
C1365 C1368 1.463 . S
C1365 C1370 1.350 . S
C1365 N1373 1.427 . S
C1366 H1357 0.930 . S
C1366 C1364 1.378 . S
C1366 C1367 1.367 . S
C1367 C1366 1.367 . S
C1367 C1369 1.433 . S
C1368 C1364 1.350 . S
C1368 C1365 1.463 . S
C1368 N1372 1.427 . S
C1369 H1359 0.929 . S
C1369 C1367 1.433 . S
C1369 N1372 1.384 . S
C1370 H1361 0.929 . S
C1370 C1362 1.378 . S
C1370 C1365 1.350 . S
C1371 H1358 0.929 . S
C1371 C1363 1.433 . S
C1371 N1373 1.384 . S
N1372 C1368 1.427 . S
N1372 C1369 1.384 . S
N1373 C1365 1.427 . S
N1373 C1371 1.384 . S
H1374 C1380 0.930 . S
H1375 C1384 0.930 . S
H1376 C1389 0.929 . S
H1377 C1387 0.929 . S
H1378 C1382 0.929 . S
H1379 C1388 0.929 . S
C1380 H1374 0.930 . S
C1380 C1381 1.367 . S
C1380 C1388 1.378 . S
C1381 C1380 1.367 . S
C1381 C1389 1.433 . S
C1382 H1378 0.929 . S
C1382 C1384 1.378 . S
C1382 C1386 1.350 . S
C1383 C1386 1.463 . S
C1383 C1388 1.350 . S
C1383 N1391 1.427 . S
C1384 H1375 0.930 . S
C1384 C1382 1.378 . S
C1384 C1385 1.367 . S
C1385 C1384 1.367 . S
C1385 C1387 1.433 . S
C1386 C1382 1.350 . S
C1386 C1383 1.463 . S
C1386 N1390 1.427 . S
C1387 H1377 0.929 . S
C1387 C1385 1.433 . S
C1387 N1390 1.384 . S
C1388 H1379 0.929 . S
C1388 C1380 1.378 . S
C1388 C1383 1.350 . S
C1389 H1376 0.929 . S
C1389 C1381 1.433 . S
C1389 N1391 1.384 . S
N1390 C1386 1.427 . S
N1390 C1387 1.384 . S
N1391 C1383 1.427 . S
N1391 C1389 1.384 . S
H1392 C1398 0.930 . S
H1393 C1402 0.930 . S
H1394 C1407 0.929 . S
H1395 C1405 0.929 . S
H1396 C1400 0.929 . S
H1397 C1406 0.929 . S
C1398 H1392 0.930 . S
C1398 C1399 1.367 . S
C1398 C1406 1.378 . S
C1399 C1398 1.367 . S
C1399 C1407 1.433 . S
C1400 H1396 0.929 . S
C1400 C1402 1.378 . S
C1400 C1404 1.350 . S
C1401 C1404 1.463 . S
C1401 C1406 1.350 . S
C1401 N1409 1.427 . S
C1402 H1393 0.930 . S
C1402 C1400 1.378 . S
C1402 C1403 1.367 . S
C1403 C1402 1.367 . S
C1403 C1405 1.433 . S
C1404 C1400 1.350 . S
C1404 C1401 1.463 . S
C1404 N1408 1.427 . S
C1405 H1395 0.929 . S
C1405 C1403 1.433 . S
C1405 N1408 1.384 . S
C1406 H1397 0.929 . S
C1406 C1398 1.378 . S
C1406 C1401 1.350 . S
C1407 H1394 0.929 . S
C1407 C1399 1.433 . S
C1407 N1409 1.384 . S
N1408 C1404 1.427 . S
N1408 C1405 1.384 . S
N1409 C1401 1.427 . S
N1409 C1407 1.384 . S
H1410 C1416 0.930 . S
H1411 C1420 0.930 . S
H1412 C1425 0.929 . S
H1413 C1423 0.929 . S
H1414 C1418 0.929 . S
H1415 C1424 0.929 . S
C1416 H1410 0.930 . S
C1416 C1417 1.367 . S
C1416 C1424 1.378 . S
C1417 C1416 1.367 . S
C1417 C1425 1.433 . S
C1418 H1414 0.929 . S
C1418 C1420 1.378 . S
C1418 C1422 1.350 . S
C1419 C1422 1.463 . S
C1419 C1424 1.350 . S
C1419 N1427 1.427 . S
C1420 H1411 0.930 . S
C1420 C1418 1.378 . S
C1420 C1421 1.367 . S
C1421 C1420 1.367 . S
C1421 C1423 1.433 . S
C1422 C1418 1.350 . S
C1422 C1419 1.463 . S
C1422 N1426 1.427 . S
C1423 H1413 0.929 . S
C1423 C1421 1.433 . S
C1423 N1426 1.384 . S
C1424 H1415 0.929 . S
C1424 C1416 1.378 . S
C1424 C1419 1.350 . S
C1425 H1412 0.929 . S
C1425 C1417 1.433 . S
C1425 N1427 1.384 . S
N1426 C1422 1.427 . S
N1426 C1423 1.384 . S
N1427 C1419 1.427 . S
N1427 C1425 1.384 . S
H1428 C1434 0.930 . S
H1429 C1438 0.930 . S
H1430 C1443 0.929 . S
H1431 C1441 0.929 . S
H1432 C1436 0.929 . S
H1433 C1442 0.929 . S
C1434 H1428 0.930 . S
C1434 C1435 1.367 . S
C1434 C1442 1.378 . S
C1435 C1434 1.367 . S
C1435 C1443 1.433 . S
C1436 H1432 0.929 . S
C1436 C1438 1.378 . S
C1436 C1440 1.350 . S
C1437 C1440 1.463 . S
C1437 C1442 1.350 . S
C1437 N1445 1.427 . S
C1438 H1429 0.930 . S
C1438 C1436 1.378 . S
C1438 C1439 1.367 . S
C1439 C1438 1.367 . S
C1439 C1441 1.433 . S
C1440 C1436 1.350 . S
C1440 C1437 1.463 . S
C1440 N1444 1.427 . S
C1441 H1431 0.929 . S
C1441 C1439 1.433 . S
C1441 N1444 1.384 . S
C1442 H1433 0.929 . S
C1442 C1434 1.378 . S
C1442 C1437 1.350 . S
C1443 H1430 0.929 . S
C1443 C1435 1.433 . S
C1443 N1445 1.384 . S
N1444 C1440 1.427 . S
N1444 C1441 1.384 . S
N1445 C1437 1.427 . S
N1445 C1443 1.384 . S
H1446 C1452 0.930 . S
H1447 C1456 0.930 . S
H1448 C1461 0.929 . S
H1449 C1459 0.929 . S
H1450 C1454 0.929 . S
H1451 C1460 0.929 . S
C1452 H1446 0.930 . S
C1452 C1453 1.367 . S
C1452 C1460 1.378 . S
C1453 C1452 1.367 . S
C1453 C1461 1.433 . S
C1454 H1450 0.929 . S
C1454 C1456 1.378 . S
C1454 C1458 1.350 . S
C1455 C1458 1.463 . S
C1455 C1460 1.350 . S
C1455 N1463 1.427 . S
C1456 H1447 0.930 . S
C1456 C1454 1.378 . S
C1456 C1457 1.367 . S
C1457 C1456 1.367 . S
C1457 C1459 1.433 . S
C1458 C1454 1.350 . S
C1458 C1455 1.463 . S
C1458 N1462 1.427 . S
C1459 H1449 0.929 . S
C1459 C1457 1.433 . S
C1459 N1462 1.384 . S
C1460 H1451 0.929 . S
C1460 C1452 1.378 . S
C1460 C1455 1.350 . S
C1461 H1448 0.929 . S
C1461 C1453 1.433 . S
C1461 N1463 1.384 . S
N1462 C1458 1.427 . S
N1462 C1459 1.384 . S
N1463 C1455 1.427 . S
N1463 C1461 1.384 . S
H1464 C1470 0.930 . S
H1465 C1474 0.930 . S
H1466 C1479 0.929 . S
H1467 C1477 0.929 . S
H1468 C1472 0.929 . S
H1469 C1478 0.929 . S
C1470 H1464 0.930 . S
C1470 C1471 1.367 . S
C1470 C1478 1.378 . S
C1471 C1470 1.367 . S
C1471 C1479 1.433 . S
C1472 H1468 0.929 . S
C1472 C1474 1.378 . S
C1472 C1476 1.350 . S
C1473 C1476 1.463 . S
C1473 C1478 1.350 . S
C1473 N1481 1.427 . S
C1474 H1465 0.930 . S
C1474 C1472 1.378 . S
C1474 C1475 1.367 . S
C1475 C1474 1.367 . S
C1475 C1477 1.433 . S
C1476 C1472 1.350 . S
C1476 C1473 1.463 . S
C1476 N1480 1.427 . S
C1477 H1467 0.929 . S
C1477 C1475 1.433 . S
C1477 N1480 1.384 . S
C1478 H1469 0.929 . S
C1478 C1470 1.378 . S
C1478 C1473 1.350 . S
C1479 H1466 0.929 . S
C1479 C1471 1.433 . S
C1479 N1481 1.384 . S
N1480 C1476 1.427 . S
N1480 C1477 1.384 . S
N1481 C1473 1.427 . S
N1481 C1479 1.384 . S
H1482 C1488 0.930 . S
H1483 C1492 0.930 . S
H1484 C1497 0.929 . S
H1485 C1495 0.929 . S
H1486 C1490 0.929 . S
H1487 C1496 0.929 . S
C1488 H1482 0.930 . S
C1488 C1489 1.367 . S
C1488 C1496 1.378 . S
C1489 C1488 1.367 . S
C1489 C1497 1.433 . S
C1490 H1486 0.929 . S
C1490 C1492 1.378 . S
C1490 C1494 1.350 . S
C1491 C1494 1.463 . S
C1491 C1496 1.350 . S
C1491 N1499 1.427 . S
C1492 H1483 0.930 . S
C1492 C1490 1.378 . S
C1492 C1493 1.367 . S
C1493 C1492 1.367 . S
C1493 C1495 1.433 . S
C1494 C1490 1.350 . S
C1494 C1491 1.463 . S
C1494 N1498 1.427 . S
C1495 H1485 0.929 . S
C1495 C1493 1.433 . S
C1495 N1498 1.384 . S
C1496 H1487 0.929 . S
C1496 C1488 1.378 . S
C1496 C1491 1.350 . S
C1497 H1484 0.929 . S
C1497 C1489 1.433 . S
C1497 N1499 1.384 . S
N1498 C1494 1.427 . S
N1498 C1495 1.384 . S
N1499 C1491 1.427 . S
N1499 C1497 1.384 . S
H1500 C1506 0.930 . S
H1501 C1510 0.930 . S
H1502 C1515 0.929 . S
H1503 C1513 0.929 . S
H1504 C1508 0.929 . S
H1505 C1514 0.929 . S
C1506 H1500 0.930 . S
C1506 C1507 1.367 . S
C1506 C1514 1.378 . S
C1507 C1506 1.367 . S
C1507 C1515 1.433 . S
C1508 H1504 0.929 . S
C1508 C1510 1.378 . S
C1508 C1512 1.350 . S
C1509 C1512 1.463 . S
C1509 C1514 1.350 . S
C1509 N1517 1.427 . S
C1510 H1501 0.930 . S
C1510 C1508 1.378 . S
C1510 C1511 1.367 . S
C1511 C1510 1.367 . S
C1511 C1513 1.433 . S
C1512 C1508 1.350 . S
C1512 C1509 1.463 . S
C1512 N1516 1.427 . S
C1513 H1503 0.929 . S
C1513 C1511 1.433 . S
C1513 N1516 1.384 . S
C1514 H1505 0.929 . S
C1514 C1506 1.378 . S
C1514 C1509 1.350 . S
C1515 H1502 0.929 . S
C1515 C1507 1.433 . S
C1515 N1517 1.384 . S
N1516 C1512 1.427 . S
N1516 C1513 1.384 . S
N1517 C1509 1.427 . S
N1517 C1515 1.384 . S
H1518 C1524 0.930 . S
H1519 C1528 0.930 . S
H1520 C1533 0.929 . S
H1521 C1531 0.929 . S
H1522 C1526 0.929 . S
H1523 C1532 0.929 . S
C1524 H1518 0.930 . S
C1524 C1525 1.367 . S
C1524 C1532 1.378 . S
C1525 C1524 1.367 . S
C1525 C1533 1.433 . S
C1526 H1522 0.929 . S
C1526 C1528 1.378 . S
C1526 C1530 1.350 . S
C1527 C1530 1.463 . S
C1527 C1532 1.350 . S
C1527 N1535 1.427 . S
C1528 H1519 0.930 . S
C1528 C1526 1.378 . S
C1528 C1529 1.367 . S
C1529 C1528 1.367 . S
C1529 C1531 1.433 . S
C1530 C1526 1.350 . S
C1530 C1527 1.463 . S
C1530 N1534 1.427 . S
C1531 H1521 0.929 . S
C1531 C1529 1.433 . S
C1531 N1534 1.384 . S
C1532 H1523 0.929 . S
C1532 C1524 1.378 . S
C1532 C1527 1.350 . S
C1533 H1520 0.929 . S
C1533 C1525 1.433 . S
C1533 N1535 1.384 . S
N1534 C1530 1.427 . S
N1534 C1531 1.384 . S
N1535 C1527 1.427 . S
N1535 C1533 1.384 . S
H1536 C1542 0.930 . S
H1537 C1546 0.932 . S
H1538 C1551 0.929 . S
H1539 C1549 0.929 . S
H1540 C1544 0.929 . S
H1541 C1550 0.929 . S
C1542 H1536 0.930 . S
C1542 C1543 1.367 . S
C1542 C1550 1.378 . S
C1543 C1542 1.367 . S
C1543 C1551 1.433 . S
C1544 H1540 0.929 . S
C1544 C1546 1.378 . S
C1544 C1548 1.350 . S
C1545 C1548 1.463 . S
C1545 C1550 1.350 . S
C1545 N1553 1.427 . S
C1546 H1537 0.932 . S
C1546 C1544 1.378 . S
C1546 C1547 1.367 . S
C1547 C1546 1.367 . S
C1547 C1549 1.433 . S
C1548 C1544 1.350 . S
C1548 C1545 1.463 . S
C1548 N1552 1.427 . S
C1549 H1539 0.929 . S
C1549 C1547 1.433 . S
C1549 N1552 1.384 . S
C1550 H1541 0.929 . S
C1550 C1542 1.378 . S
C1550 C1545 1.350 . S
C1551 H1538 0.929 . S
C1551 C1543 1.433 . S
C1551 N1553 1.384 . S
N1552 C1548 1.427 . S
N1552 C1549 1.384 . S
N1553 C1545 1.427 . S
N1553 C1551 1.384 . S
H1554 C1560 0.930 . S
H1555 C1564 0.930 . S
H1556 C1569 0.929 . S
H1557 C1567 0.929 . S
H1558 C1562 0.929 . S
H1559 C1568 0.929 . S
C1560 H1554 0.930 . S
C1560 C1561 1.367 . S
C1560 C1568 1.378 . S
C1561 C1560 1.367 . S
C1561 C1569 1.433 . S
C1562 H1558 0.929 . S
C1562 C1564 1.378 . S
C1562 C1566 1.350 . S
C1563 C1566 1.463 . S
C1563 C1568 1.350 . S
C1563 N1571 1.427 . S
C1564 H1555 0.930 . S
C1564 C1562 1.378 . S
C1564 C1565 1.367 . S
C1565 C1564 1.367 . S
C1565 C1567 1.433 . S
C1566 C1562 1.350 . S
C1566 C1563 1.463 . S
C1566 N1570 1.427 . S
C1567 H1557 0.929 . S
C1567 C1565 1.433 . S
C1567 N1570 1.384 . S
C1568 H1559 0.929 . S
C1568 C1560 1.378 . S
C1568 C1563 1.350 . S
C1569 H1556 0.929 . S
C1569 C1561 1.433 . S
C1569 N1571 1.384 . S
N1570 C1566 1.427 . S
N1570 C1567 1.384 . S
N1571 C1563 1.427 . S
N1571 C1569 1.384 . S
H1572 C1578 0.930 . S
H1573 C1582 0.930 . S
H1574 C1587 0.929 . S
H1575 C1585 0.929 . S
H1576 C1580 0.929 . S
H1577 C1586 0.929 . S
C1578 H1572 0.930 . S
C1578 C1579 1.367 . S
C1578 C1586 1.378 . S
C1579 C1578 1.367 . S
C1579 C1587 1.433 . S
C1580 H1576 0.929 . S
C1580 C1582 1.378 . S
C1580 C1584 1.350 . S
C1581 C1584 1.463 . S
C1581 C1586 1.350 . S
C1581 N1589 1.427 . S
C1582 H1573 0.930 . S
C1582 C1580 1.378 . S
C1582 C1583 1.367 . S
C1583 C1582 1.367 . S
C1583 C1585 1.433 . S
C1584 C1580 1.350 . S
C1584 C1581 1.463 . S
C1584 N1588 1.427 . S
C1585 H1575 0.929 . S
C1585 C1583 1.433 . S
C1585 N1588 1.384 . S
C1586 H1577 0.929 . S
C1586 C1578 1.378 . S
C1586 C1581 1.350 . S
C1587 H1574 0.929 . S
C1587 C1579 1.433 . S
C1587 N1589 1.384 . S
N1588 C1584 1.427 . S
N1588 C1585 1.384 . S
N1589 C1581 1.427 . S
N1589 C1587 1.384 . S
H1590 C1596 0.930 . S
H1591 C1600 0.930 . S
H1592 C1605 0.929 . S
H1593 C1603 0.929 . S
H1594 C1598 0.929 . S
H1595 C1604 0.929 . S
C1596 H1590 0.930 . S
C1596 C1597 1.367 . S
C1596 C1604 1.378 . S
C1597 C1596 1.367 . S
C1597 C1605 1.433 . S
C1598 H1594 0.929 . S
C1598 C1600 1.378 . S
C1598 C1602 1.350 . S
C1599 C1602 1.463 . S
C1599 C1604 1.350 . S
C1599 N1607 1.427 . S
C1600 H1591 0.930 . S
C1600 C1598 1.378 . S
C1600 C1601 1.367 . S
C1601 C1600 1.367 . S
C1601 C1603 1.433 . S
C1602 C1598 1.350 . S
C1602 C1599 1.463 . S
C1602 N1606 1.427 . S
C1603 H1593 0.929 . S
C1603 C1601 1.433 . S
C1603 N1606 1.384 . S
C1604 H1595 0.929 . S
C1604 C1596 1.378 . S
C1604 C1599 1.350 . S
C1605 H1592 0.929 . S
C1605 C1597 1.433 . S
C1605 N1607 1.384 . S
N1606 C1602 1.427 . S
N1606 C1603 1.384 . S
N1607 C1599 1.427 . S
N1607 C1605 1.384 . S
H1608 C1614 0.930 . S
H1609 C1618 0.930 . S
H1610 C1623 0.929 . S
H1611 C1621 0.929 . S
H1612 C1616 0.929 . S
H1613 C1622 0.929 . S
C1614 H1608 0.930 . S
C1614 C1615 1.367 . S
C1614 C1622 1.378 . S
C1615 C1614 1.367 . S
C1615 C1623 1.433 . S
C1616 H1612 0.929 . S
C1616 C1618 1.378 . S
C1616 C1620 1.350 . S
C1617 C1620 1.463 . S
C1617 C1622 1.350 . S
C1617 N1625 1.427 . S
C1618 H1609 0.930 . S
C1618 C1616 1.378 . S
C1618 C1619 1.367 . S
C1619 C1618 1.367 . S
C1619 C1621 1.433 . S
C1620 C1616 1.350 . S
C1620 C1617 1.463 . S
C1620 N1624 1.427 . S
C1621 H1611 0.929 . S
C1621 C1619 1.433 . S
C1621 N1624 1.384 . S
C1622 H1613 0.929 . S
C1622 C1614 1.378 . S
C1622 C1617 1.350 . S
C1623 H1610 0.929 . S
C1623 C1615 1.433 . S
C1623 N1625 1.384 . S
N1624 C1620 1.427 . S
N1624 C1621 1.384 . S
N1625 C1617 1.427 . S
N1625 C1623 1.384 . S
H1626 C1632 0.930 . S
H1627 C1636 0.930 . S
H1628 C1641 0.929 . S
H1629 C1639 0.929 . S
H1630 C1634 0.929 . S
H1631 C1640 0.929 . S
C1632 H1626 0.930 . S
C1632 C1633 1.367 . S
C1632 C1640 1.378 . S
C1633 C1632 1.367 . S
C1633 C1641 1.433 . S
C1634 H1630 0.929 . S
C1634 C1636 1.378 . S
C1634 C1638 1.350 . S
C1635 C1638 1.463 . S
C1635 C1640 1.350 . S
C1635 N1643 1.427 . S
C1636 H1627 0.930 . S
C1636 C1634 1.378 . S
C1636 C1637 1.367 . S
C1637 C1636 1.367 . S
C1637 C1639 1.433 . S
C1638 C1634 1.350 . S
C1638 C1635 1.463 . S
C1638 N1642 1.427 . S
C1639 H1629 0.929 . S
C1639 C1637 1.433 . S
C1639 N1642 1.384 . S
C1640 H1631 0.929 . S
C1640 C1632 1.378 . S
C1640 C1635 1.350 . S
C1641 H1628 0.929 . S
C1641 C1633 1.433 . S
C1641 N1643 1.384 . S
N1642 C1638 1.427 . S
N1642 C1639 1.384 . S
N1643 C1635 1.427 . S
N1643 C1641 1.384 . S
H1644 C1650 0.930 . S
H1645 C1654 0.930 . S
H1646 C1659 0.929 . S
H1647 C1657 0.929 . S
H1648 C1652 0.929 . S
H1649 C1658 0.929 . S
C1650 H1644 0.930 . S
C1650 C1651 1.367 . S
C1650 C1658 1.378 . S
C1651 C1650 1.367 . S
C1651 C1659 1.433 . S
C1652 H1648 0.929 . S
C1652 C1654 1.378 . S
C1652 C1656 1.350 . S
C1653 C1656 1.463 . S
C1653 C1658 1.350 . S
C1653 N1661 1.427 . S
C1654 H1645 0.930 . S
C1654 C1652 1.378 . S
C1654 C1655 1.367 . S
C1655 C1654 1.367 . S
C1655 C1657 1.433 . S
C1656 C1652 1.350 . S
C1656 C1653 1.463 . S
C1656 N1660 1.427 . S
C1657 H1647 0.929 . S
C1657 C1655 1.433 . S
C1657 N1660 1.384 . S
C1658 H1649 0.929 . S
C1658 C1650 1.378 . S
C1658 C1653 1.350 . S
C1659 H1646 0.929 . S
C1659 C1651 1.433 . S
C1659 N1661 1.384 . S
N1660 C1656 1.427 . S
N1660 C1657 1.384 . S
N1661 C1653 1.427 . S
N1661 C1659 1.384 . S
H1662 C1668 0.930 . S
H1663 C1672 0.930 . S
H1664 C1677 0.929 . S
H1665 C1675 0.929 . S
H1666 C1670 0.929 . S
H1667 C1676 0.929 . S
C1668 H1662 0.930 . S
C1668 C1669 1.367 . S
C1668 C1676 1.378 . S
C1669 C1668 1.367 . S
C1669 C1677 1.433 . S
C1670 H1666 0.929 . S
C1670 C1672 1.378 . S
C1670 C1674 1.350 . S
C1671 C1674 1.463 . S
C1671 C1676 1.350 . S
C1671 N1679 1.427 . S
C1672 H1663 0.930 . S
C1672 C1670 1.378 . S
C1672 C1673 1.367 . S
C1673 C1672 1.367 . S
C1673 C1675 1.433 . S
C1674 C1670 1.350 . S
C1674 C1671 1.463 . S
C1674 N1678 1.427 . S
C1675 H1665 0.929 . S
C1675 C1673 1.433 . S
C1675 N1678 1.384 . S
C1676 H1667 0.929 . S
C1676 C1668 1.378 . S
C1676 C1671 1.350 . S
C1677 H1664 0.929 . S
C1677 C1669 1.433 . S
C1677 N1679 1.384 . S
N1678 C1674 1.427 . S
N1678 C1675 1.384 . S
N1679 C1671 1.427 . S
N1679 C1677 1.384 . S
H1680 C1686 0.930 . S
H1681 C1690 0.930 . S
H1682 C1695 0.929 . S
H1683 C1693 0.929 . S
H1684 C1688 0.929 . S
H1685 C1694 0.929 . S
C1686 H1680 0.930 . S
C1686 C1687 1.367 . S
C1686 C1694 1.378 . S
C1687 C1686 1.367 . S
C1687 C1695 1.433 . S
C1688 H1684 0.929 . S
C1688 C1690 1.378 . S
C1688 C1692 1.350 . S
C1689 C1692 1.463 . S
C1689 C1694 1.350 . S
C1689 N1697 1.427 . S
C1690 H1681 0.930 . S
C1690 C1688 1.378 . S
C1690 C1691 1.367 . S
C1691 C1690 1.367 . S
C1691 C1693 1.433 . S
C1692 C1688 1.350 . S
C1692 C1689 1.463 . S
C1692 N1696 1.427 . S
C1693 H1683 0.929 . S
C1693 C1691 1.433 . S
C1693 N1696 1.384 . S
C1694 H1685 0.929 . S
C1694 C1686 1.378 . S
C1694 C1689 1.350 . S
C1695 H1682 0.929 . S
C1695 C1687 1.433 . S
C1695 N1697 1.384 . S
N1696 C1692 1.427 . S
N1696 C1693 1.384 . S
N1697 C1689 1.427 . S
N1697 C1695 1.384 . S
H1698 C1704 0.930 . S
H1699 C1708 0.930 . S
H1700 C1713 0.929 . S
H1701 C1711 0.929 . S
H1702 C1706 0.929 . S
H1703 C1712 0.929 . S
C1704 H1698 0.930 . S
C1704 C1705 1.367 . S
C1704 C1712 1.378 . S
C1705 C1704 1.367 . S
C1705 C1713 1.433 . S
C1706 H1702 0.929 . S
C1706 C1708 1.378 . S
C1706 C1710 1.350 . S
C1707 C1710 1.463 . S
C1707 C1712 1.350 . S
C1707 N1715 1.427 . S
C1708 H1699 0.930 . S
C1708 C1706 1.378 . S
C1708 C1709 1.367 . S
C1709 C1708 1.367 . S
C1709 C1711 1.433 . S
C1710 C1706 1.350 . S
C1710 C1707 1.463 . S
C1710 N1714 1.427 . S
C1711 H1701 0.929 . S
C1711 C1709 1.433 . S
C1711 N1714 1.384 . S
C1712 H1703 0.929 . S
C1712 C1704 1.378 . S
C1712 C1707 1.350 . S
C1713 H1700 0.929 . S
C1713 C1705 1.433 . S
C1713 N1715 1.384 . S
N1714 C1710 1.427 . S
N1714 C1711 1.384 . S
N1715 C1707 1.427 . S
N1715 C1713 1.384 . S
H1716 C1722 0.930 . S
H1717 C1726 0.930 . S
H1718 C1731 0.929 . S
H1719 C1729 0.929 1_455 S
H1720 C1724 0.929 . S
H1721 C1730 0.929 . S
C1722 H1716 0.930 . S
C1722 C1723 1.367 . S
C1722 C1730 1.378 . S
C1723 C1722 1.367 . S
C1723 C1731 1.433 . S
C1724 H1720 0.929 . S
C1724 C1726 1.378 . S
C1724 C1728 1.350 . S
C1725 C1728 1.463 . S
C1725 C1730 1.350 . S
C1725 N1733 1.427 . S
C1726 H1717 0.930 . S
C1726 C1724 1.378 . S
C1726 C1727 1.367 . S
C1727 C1726 1.367 . S
C1727 C1729 1.433 . S
C1728 C1724 1.350 . S
C1728 C1725 1.463 . S
C1728 N1732 1.427 . S
C1729 H1719 0.929 1_655 S
C1729 C1727 1.433 . S
C1729 N1732 1.384 . S
C1730 H1721 0.929 . S
C1730 C1722 1.378 . S
C1730 C1725 1.350 . S
C1731 H1718 0.929 . S
C1731 C1723 1.433 . S
C1731 N1733 1.384 . S
N1732 C1728 1.427 . S
N1732 C1729 1.384 . S
N1733 C1725 1.427 . S
N1733 C1731 1.384 . S
H1734 C1740 0.930 . S
H1735 C1744 0.930 . S
H1736 C1749 0.929 . S
H1737 C1747 0.929 . S
H1738 C1742 0.929 . S
H1739 C1748 0.929 . S
C1740 H1734 0.930 . S
C1740 C1741 1.367 . S
C1740 C1748 1.378 . S
C1741 C1740 1.367 . S
C1741 C1749 1.433 . S
C1742 H1738 0.929 . S
C1742 C1744 1.378 . S
C1742 C1746 1.350 . S
C1743 C1746 1.463 . S
C1743 C1748 1.350 . S
C1743 N1751 1.427 . S
C1744 H1735 0.930 . S
C1744 C1742 1.378 . S
C1744 C1745 1.367 . S
C1745 C1744 1.367 . S
C1745 C1747 1.433 . S
C1746 C1742 1.350 . S
C1746 C1743 1.463 . S
C1746 N1750 1.427 . S
C1747 H1737 0.929 . S
C1747 C1745 1.433 . S
C1747 N1750 1.384 . S
C1748 H1739 0.929 . S
C1748 C1740 1.378 . S
C1748 C1743 1.350 . S
C1749 H1736 0.929 . S
C1749 C1741 1.433 . S
C1749 N1751 1.384 . S
N1750 C1746 1.427 . S
N1750 C1747 1.384 . S
N1751 C1743 1.427 . S
N1751 C1749 1.384 . S
H1752 C1758 0.930 1_655 S
H1753 C1762 0.930 . S
H1754 C1767 0.929 . S
H1755 C1765 0.929 . S
H1756 C1760 0.929 . S
H1757 C1766 0.929 . S
C1758 H1752 0.930 1_455 S
C1758 C1759 1.367 . S
C1758 C1766 1.378 . S
C1759 C1758 1.367 . S
C1759 C1767 1.433 . S
C1760 H1756 0.929 . S
C1760 C1762 1.378 . S
C1760 C1764 1.350 . S
C1761 C1764 1.463 . S
C1761 C1766 1.350 . S
C1761 N1769 1.427 . S
C1762 H1753 0.930 . S
C1762 C1760 1.378 . S
C1762 C1763 1.367 . S
C1763 C1762 1.367 . S
C1763 C1765 1.433 . S
C1764 C1760 1.350 . S
C1764 C1761 1.463 . S
C1764 N1768 1.427 . S
C1765 H1755 0.929 . S
C1765 C1763 1.433 . S
C1765 N1768 1.384 . S
C1766 H1757 0.929 . S
C1766 C1758 1.378 . S
C1766 C1761 1.350 . S
C1767 H1754 0.929 . S
C1767 C1759 1.433 . S
C1767 N1769 1.384 . S
N1768 C1764 1.427 . S
N1768 C1765 1.384 . S
N1769 C1761 1.427 . S
N1769 C1767 1.384 . S
H1770 C1776 0.930 . S
H1771 C1780 0.930 . S
H1772 C1785 0.929 . S
H1773 C1783 0.929 . S
H1774 C1778 0.929 . S
H1775 C1784 0.929 . S
C1776 H1770 0.930 . S
C1776 C1777 1.367 . S
C1776 C1784 1.378 . S
C1777 C1776 1.367 . S
C1777 C1785 1.433 . S
C1778 H1774 0.929 . S
C1778 C1780 1.378 . S
C1778 C1782 1.350 . S
C1779 C1782 1.463 . S
C1779 C1784 1.350 . S
C1779 N1787 1.427 . S
C1780 H1771 0.930 . S
C1780 C1778 1.378 . S
C1780 C1781 1.367 . S
C1781 C1780 1.367 . S
C1781 C1783 1.433 . S
C1782 C1778 1.350 . S
C1782 C1779 1.463 . S
C1782 N1786 1.427 . S
C1783 H1773 0.929 . S
C1783 C1781 1.433 . S
C1783 N1786 1.384 . S
C1784 H1775 0.929 . S
C1784 C1776 1.378 . S
C1784 C1779 1.350 . S
C1785 H1772 0.929 . S
C1785 C1777 1.433 . S
C1785 N1787 1.384 . S
N1786 C1782 1.427 . S
N1786 C1783 1.384 . S
N1787 C1779 1.427 . S
N1787 C1785 1.384 . S
H1788 C1794 0.930 . S
H1789 C1798 0.930 . S
H1790 C1803 0.929 . S
H1791 C1801 0.929 . S
H1792 C1796 0.929 . S
H1793 C1802 0.929 . S
C1794 H1788 0.930 . S
C1794 C1795 1.367 . S
C1794 C1802 1.378 . S
C1795 C1794 1.367 . S
C1795 C1803 1.433 . S
C1796 H1792 0.929 . S
C1796 C1798 1.378 . S
C1796 C1800 1.350 . S
C1797 C1800 1.463 . S
C1797 C1802 1.350 . S
C1797 N1805 1.427 . S
C1798 H1789 0.930 . S
C1798 C1796 1.378 . S
C1798 C1799 1.367 . S
C1799 C1798 1.367 . S
C1799 C1801 1.433 . S
C1800 C1796 1.350 . S
C1800 C1797 1.463 . S
C1800 N1804 1.427 . S
C1801 H1791 0.929 . S
C1801 C1799 1.433 . S
C1801 N1804 1.384 . S
C1802 H1793 0.929 . S
C1802 C1794 1.378 . S
C1802 C1797 1.350 . S
C1803 H1790 0.929 . S
C1803 C1795 1.433 . S
C1803 N1805 1.384 . S
N1804 C1800 1.427 . S
N1804 C1801 1.384 . S
N1805 C1797 1.427 . S
N1805 C1803 1.384 . S
H1806 C1812 0.930 . S
H1807 C1816 0.930 . S
H1808 C1821 0.929 . S
H1809 C1819 0.929 . S
H1810 C1814 0.929 . S
H1811 C1820 0.929 . S
C1812 H1806 0.930 . S
C1812 C1813 1.367 . S
C1812 C1820 1.378 . S
C1813 C1812 1.367 . S
C1813 C1821 1.433 . S
C1814 H1810 0.929 . S
C1814 C1816 1.378 . S
C1814 C1818 1.350 . S
C1815 C1818 1.463 . S
C1815 C1820 1.350 . S
C1815 N1823 1.427 . S
C1816 H1807 0.930 . S
C1816 C1814 1.378 . S
C1816 C1817 1.367 . S
C1817 C1816 1.367 . S
C1817 C1819 1.433 . S
C1818 C1814 1.350 . S
C1818 C1815 1.463 . S
C1818 N1822 1.427 . S
C1819 H1809 0.929 . S
C1819 C1817 1.433 . S
C1819 N1822 1.384 . S
C1820 H1811 0.929 . S
C1820 C1812 1.378 . S
C1820 C1815 1.350 . S
C1821 H1808 0.929 . S
C1821 C1813 1.433 . S
C1821 N1823 1.384 . S
N1822 C1818 1.427 . S
N1822 C1819 1.384 . S
N1823 C1815 1.427 . S
N1823 C1821 1.384 . S
H1824 C1830 0.930 . S
H1825 C1834 0.930 . S
H1826 C1839 0.929 . S
H1827 C1837 0.929 . S
H1828 C1832 0.929 . S
H1829 C1838 0.929 . S
C1830 H1824 0.930 . S
C1830 C1831 1.367 . S
C1830 C1838 1.378 . S
C1831 C1830 1.367 . S
C1831 C1839 1.433 . S
C1832 H1828 0.929 . S
C1832 C1834 1.378 . S
C1832 C1836 1.350 . S
C1833 C1836 1.463 . S
C1833 C1838 1.350 . S
C1833 N1841 1.427 . S
C1834 H1825 0.930 . S
C1834 C1832 1.378 . S
C1834 C1835 1.367 . S
C1835 C1834 1.367 . S
C1835 C1837 1.433 . S
C1836 C1832 1.350 . S
C1836 C1833 1.463 . S
C1836 N1840 1.427 . S
C1837 H1827 0.929 . S
C1837 C1835 1.433 . S
C1837 N1840 1.384 . S
C1838 H1829 0.929 . S
C1838 C1830 1.378 . S
C1838 C1833 1.350 . S
C1839 H1826 0.929 . S
C1839 C1831 1.433 . S
C1839 N1841 1.384 . S
N1840 C1836 1.427 . S
N1840 C1837 1.384 . S
N1841 C1833 1.427 . S
N1841 C1839 1.384 . S
H1842 C1848 0.930 . S
H1843 C1852 0.930 . S
H1844 C1857 0.929 . S
H1845 C1855 0.929 . S
H1846 C1850 0.929 . S
H1847 C1856 0.929 . S
C1848 H1842 0.930 . S
C1848 C1849 1.367 . S
C1848 C1856 1.378 . S
C1849 C1848 1.367 . S
C1849 C1857 1.433 . S
C1850 H1846 0.929 . S
C1850 C1852 1.378 . S
C1850 C1854 1.350 . S
C1851 C1854 1.463 . S
C1851 C1856 1.350 . S
C1851 N1859 1.427 . S
C1852 H1843 0.930 . S
C1852 C1850 1.378 . S
C1852 C1853 1.367 . S
C1853 C1852 1.367 . S
C1853 C1855 1.433 . S
C1854 C1850 1.350 . S
C1854 C1851 1.463 . S
C1854 N1858 1.427 . S
C1855 H1845 0.929 . S
C1855 C1853 1.433 . S
C1855 N1858 1.384 . S
C1856 H1847 0.929 . S
C1856 C1848 1.378 . S
C1856 C1851 1.350 . S
C1857 H1844 0.929 . S
C1857 C1849 1.433 . S
C1857 N1859 1.384 . S
N1858 C1854 1.427 . S
N1858 C1855 1.384 . S
N1859 C1851 1.427 . S
N1859 C1857 1.384 . S
H1860 C1866 0.930 . S
H1861 C1870 0.930 . S
H1862 C1875 0.929 . S
H1863 C1873 0.929 . S
H1864 C1868 0.929 . S
H1865 C1874 0.929 . S
C1866 H1860 0.930 . S
C1866 C1867 1.367 . S
C1866 C1874 1.378 . S
C1867 C1866 1.367 . S
C1867 C1875 1.433 . S
C1868 H1864 0.929 . S
C1868 C1870 1.378 . S
C1868 C1872 1.350 . S
C1869 C1872 1.463 . S
C1869 C1874 1.350 . S
C1869 N1877 1.427 . S
C1870 H1861 0.930 . S
C1870 C1868 1.378 . S
C1870 C1871 1.367 . S
C1871 C1870 1.367 . S
C1871 C1873 1.433 . S
C1872 C1868 1.350 . S
C1872 C1869 1.463 . S
C1872 N1876 1.427 . S
C1873 H1863 0.929 . S
C1873 C1871 1.433 . S
C1873 N1876 1.384 . S
C1874 H1865 0.929 . S
C1874 C1866 1.378 . S
C1874 C1869 1.350 . S
C1875 H1862 0.929 . S
C1875 C1867 1.433 . S
C1875 N1877 1.384 . S
N1876 C1872 1.427 . S
N1876 C1873 1.384 . S
N1877 C1869 1.427 . S
N1877 C1875 1.384 . S
H1878 C1884 0.930 . S
H1879 C1888 0.930 . S
H1880 C1893 0.929 . S
H1881 C1891 0.929 . S
H1882 C1886 0.929 . S
H1883 C1892 0.929 . S
C1884 H1878 0.930 . S
C1884 C1885 1.367 . S
C1884 C1892 1.378 . S
C1885 C1884 1.367 . S
C1885 C1893 1.433 . S
C1886 H1882 0.929 . S
C1886 C1888 1.378 . S
C1886 C1890 1.350 . S
C1887 C1890 1.463 . S
C1887 C1892 1.350 . S
C1887 N1895 1.427 . S
C1888 H1879 0.930 . S
C1888 C1886 1.378 . S
C1888 C1889 1.367 . S
C1889 C1888 1.367 . S
C1889 C1891 1.433 . S
C1890 C1886 1.350 . S
C1890 C1887 1.463 . S
C1890 N1894 1.427 . S
C1891 H1881 0.929 . S
C1891 C1889 1.433 . S
C1891 N1894 1.384 . S
C1892 H1883 0.929 . S
C1892 C1884 1.378 . S
C1892 C1887 1.350 . S
C1893 H1880 0.929 . S
C1893 C1885 1.433 . S
C1893 N1895 1.384 . S
N1894 C1890 1.427 . S
N1894 C1891 1.384 . S
N1895 C1887 1.427 . S
N1895 C1893 1.384 . S
H1896 C1902 0.914 1_455 S
H1897 C1906 0.930 . S
H1898 C1911 0.929 . S
H1899 C1909 0.929 . S
H1900 C1904 0.929 . S
H1901 C1910 0.929 . S
C1902 H1896 0.914 1_655 S
C1902 C1903 1.367 . S
C1902 C1910 1.378 . S
C1903 C1902 1.367 . S
C1903 C1911 1.433 . S
C1904 H1900 0.929 . S
C1904 C1906 1.378 . S
C1904 C1908 1.350 . S
C1905 C1908 1.463 . S
C1905 C1910 1.350 . S
C1905 N1913 1.427 . S
C1906 H1897 0.930 . S
C1906 C1904 1.378 . S
C1906 C1907 1.367 . S
C1907 C1906 1.367 . S
C1907 C1909 1.433 . S
C1908 C1904 1.350 . S
C1908 C1905 1.463 . S
C1908 N1912 1.427 . S
C1909 H1899 0.929 . S
C1909 C1907 1.433 . S
C1909 N1912 1.384 . S
C1910 H1901 0.929 . S
C1910 C1902 1.378 . S
C1910 C1905 1.350 . S
C1911 H1898 0.929 . S
C1911 C1903 1.433 . S
C1911 N1913 1.384 . S
N1912 C1908 1.427 . S
N1912 C1909 1.384 . S
N1913 C1905 1.427 . S
N1913 C1911 1.384 . S
H1914 C1920 0.930 . S
H1915 C1924 0.930 . S
H1916 C1929 0.929 . S
H1917 C1927 0.929 . S
H1918 C1922 0.929 . S
H1919 C1928 0.929 . S
C1920 H1914 0.930 . S
C1920 C1921 1.367 . S
C1920 C1928 1.378 . S
C1921 C1920 1.367 . S
C1921 C1929 1.433 . S
C1922 H1918 0.929 . S
C1922 C1924 1.378 . S
C1922 C1926 1.350 . S
C1923 C1926 1.463 . S
C1923 C1928 1.350 . S
C1923 N1931 1.427 . S
C1924 H1915 0.930 . S
C1924 C1922 1.378 . S
C1924 C1925 1.367 . S
C1925 C1924 1.367 . S
C1925 C1927 1.433 . S
C1926 C1922 1.350 . S
C1926 C1923 1.463 . S
C1926 N1930 1.427 . S
C1927 H1917 0.929 . S
C1927 C1925 1.433 . S
C1927 N1930 1.384 . S
C1928 H1919 0.929 . S
C1928 C1920 1.378 . S
C1928 C1923 1.350 . S
C1929 H1916 0.929 . S
C1929 C1921 1.433 . S
C1929 N1931 1.384 . S
N1930 C1926 1.427 . S
N1930 C1927 1.384 . S
N1931 C1923 1.427 . S
N1931 C1929 1.384 . S
H1932 C1938 0.930 . S
H1933 C1942 0.930 . S
H1934 C1947 0.929 . S
H1935 C1945 0.929 . S
H1936 C1940 0.929 . S
H1937 C1946 0.929 . S
C1938 H1932 0.930 . S
C1938 C1939 1.367 . S
C1938 C1946 1.378 . S
C1939 C1938 1.367 . S
C1939 C1947 1.433 . S
C1940 H1936 0.929 . S
C1940 C1942 1.378 . S
C1940 C1944 1.350 . S
C1941 C1944 1.463 . S
C1941 C1946 1.350 . S
C1941 N1949 1.427 . S
C1942 H1933 0.930 . S
C1942 C1940 1.378 . S
C1942 C1943 1.367 . S
C1943 C1942 1.367 . S
C1943 C1945 1.433 . S
C1944 C1940 1.350 . S
C1944 C1941 1.463 . S
C1944 N1948 1.427 . S
C1945 H1935 0.929 . S
C1945 C1943 1.433 . S
C1945 N1948 1.384 . S
C1946 H1937 0.929 . S
C1946 C1938 1.378 . S
C1946 C1941 1.350 . S
C1947 H1934 0.929 . S
C1947 C1939 1.433 . S
C1947 N1949 1.384 . S
N1948 C1944 1.427 . S
N1948 C1945 1.384 . S
N1949 C1941 1.427 . S
N1949 C1947 1.384 . S
H1950 C1956 0.966 . S
H1951 C1960 0.930 . S
H1952 C1965 0.929 . S
H1953 C1963 0.929 . S
H1954 C1958 0.929 . S
H1955 C1964 0.929 . S
C1956 H1950 0.966 . S
C1956 C1957 1.367 . S
C1956 C1964 1.378 . S
C1957 C1956 1.367 . S
C1957 C1965 1.433 . S
C1958 H1954 0.929 . S
C1958 C1960 1.378 . S
C1958 C1962 1.350 . S
C1959 C1962 1.463 . S
C1959 C1964 1.350 . S
C1959 N1967 1.427 . S
C1960 H1951 0.930 . S
C1960 C1958 1.378 . S
C1960 C1961 1.367 . S
C1961 C1960 1.367 . S
C1961 C1963 1.433 . S
C1962 C1958 1.350 . S
C1962 C1959 1.463 . S
C1962 N1966 1.427 . S
C1963 H1953 0.929 . S
C1963 C1961 1.433 . S
C1963 N1966 1.384 . S
C1964 H1955 0.929 . S
C1964 C1956 1.378 . S
C1964 C1959 1.350 . S
C1965 H1952 0.929 . S
C1965 C1957 1.433 . S
C1965 N1967 1.384 . S
N1966 C1962 1.427 . S
N1966 C1963 1.384 . S
N1967 C1959 1.427 . S
N1967 C1965 1.384 . S
H1968 C1974 0.930 . S
H1969 C1978 0.930 . S
H1970 C1983 0.929 . S
H1971 C1981 0.929 . S
H1972 C1976 0.929 . S
H1973 C1982 0.929 . S
C1974 H1968 0.930 . S
C1974 C1975 1.367 . S
C1974 C1982 1.378 . S
C1975 C1974 1.367 . S
C1975 C1983 1.433 . S
C1976 H1972 0.929 . S
C1976 C1978 1.378 . S
C1976 C1980 1.350 . S
C1977 C1980 1.463 . S
C1977 C1982 1.350 . S
C1977 N1985 1.427 . S
C1978 H1969 0.930 . S
C1978 C1976 1.378 . S
C1978 C1979 1.367 . S
C1979 C1978 1.367 . S
C1979 C1981 1.433 . S
C1980 C1976 1.350 . S
C1980 C1977 1.463 . S
C1980 N1984 1.427 . S
C1981 H1971 0.929 . S
C1981 C1979 1.433 . S
C1981 N1984 1.384 . S
C1982 H1973 0.929 . S
C1982 C1974 1.378 . S
C1982 C1977 1.350 . S
C1983 H1970 0.929 . S
C1983 C1975 1.433 . S
C1983 N1985 1.384 . S
N1984 C1980 1.427 . S
N1984 C1981 1.384 . S
N1985 C1977 1.427 . S
N1985 C1983 1.384 . S
H1986 C1992 0.930 . S
H1987 C1996 0.930 . S
H1988 C2001 0.929 . S
H1989 C1999 0.929 . S
H1990 C1994 0.929 . S
H1991 C2000 0.929 . S
C1992 H1986 0.930 . S
C1992 C1993 1.367 . S
C1992 C2000 1.378 . S
C1993 C1992 1.367 . S
C1993 C2001 1.433 . S
C1994 H1990 0.929 . S
C1994 C1996 1.378 . S
C1994 C1998 1.350 . S
C1995 C1998 1.463 . S
C1995 C2000 1.350 . S
C1995 N2003 1.427 . S
C1996 H1987 0.930 . S
C1996 C1994 1.378 . S
C1996 C1997 1.367 . S
C1997 C1996 1.367 . S
C1997 C1999 1.433 . S
C1998 C1994 1.350 . S
C1998 C1995 1.463 . S
C1998 N2002 1.427 . S
C1999 H1989 0.929 . S
C1999 C1997 1.433 . S
C1999 N2002 1.384 . S
C2000 H1991 0.929 . S
C2000 C1992 1.378 . S
C2000 C1995 1.350 . S
C2001 H1988 0.929 . S
C2001 C1993 1.433 . S
C2001 N2003 1.384 . S
N2002 C1998 1.427 . S
N2002 C1999 1.384 . S
N2003 C1995 1.427 . S
N2003 C2001 1.384 . S
H2004 C2010 0.930 . S
H2005 C2014 0.930 . S
H2006 C2019 0.929 . S
H2007 C2017 0.929 . S
H2008 C2012 0.929 . S
H2009 C2018 0.929 . S
C2010 H2004 0.930 . S
C2010 C2011 1.367 . S
C2010 C2018 1.378 . S
C2011 C2010 1.367 . S
C2011 C2019 1.433 . S
C2012 H2008 0.929 . S
C2012 C2014 1.378 . S
C2012 C2016 1.350 . S
C2013 C2016 1.463 . S
C2013 C2018 1.350 . S
C2013 N2021 1.427 . S
C2014 H2005 0.930 . S
C2014 C2012 1.378 . S
C2014 C2015 1.367 . S
C2015 C2014 1.367 . S
C2015 C2017 1.433 . S
C2016 C2012 1.350 . S
C2016 C2013 1.463 . S
C2016 N2020 1.427 . S
C2017 H2007 0.929 . S
C2017 C2015 1.433 . S
C2017 N2020 1.384 . S
C2018 H2009 0.929 . S
C2018 C2010 1.378 . S
C2018 C2013 1.350 . S
C2019 H2006 0.929 . S
C2019 C2011 1.433 . S
C2019 N2021 1.384 . S
N2020 C2016 1.427 . S
N2020 C2017 1.384 . S
N2021 C2013 1.427 . S
N2021 C2019 1.384 . S
H2022 C2028 0.930 . S
H2023 C2032 0.930 . S
H2024 C2037 0.929 . S
H2025 C2035 0.929 . S
H2026 C2030 0.929 . S
H2027 C2036 0.929 . S
C2028 H2022 0.930 . S
C2028 C2029 1.367 . S
C2028 C2036 1.378 . S
C2029 C2028 1.367 . S
C2029 C2037 1.433 . S
C2030 H2026 0.929 . S
C2030 C2032 1.378 . S
C2030 C2034 1.350 . S
C2031 C2034 1.463 . S
C2031 C2036 1.350 . S
C2031 N2039 1.427 . S
C2032 H2023 0.930 . S
C2032 C2030 1.378 . S
C2032 C2033 1.367 . S
C2033 C2032 1.367 . S
C2033 C2035 1.433 . S
C2034 C2030 1.350 . S
C2034 C2031 1.463 . S
C2034 N2038 1.427 . S
C2035 H2025 0.929 . S
C2035 C2033 1.433 . S
C2035 N2038 1.384 . S
C2036 H2027 0.929 . S
C2036 C2028 1.378 . S
C2036 C2031 1.350 . S
C2037 H2024 0.929 . S
C2037 C2029 1.433 . S
C2037 N2039 1.384 . S
N2038 C2034 1.427 . S
N2038 C2035 1.384 . S
N2039 C2031 1.427 . S
N2039 C2037 1.384 . S
H2040 C2046 0.930 . S
H2041 C2050 0.930 . S
H2042 C2055 0.929 . S
H2043 C2053 0.929 . S
H2044 C2048 0.929 . S
H2045 C2054 0.929 . S
C2046 H2040 0.930 . S
C2046 C2047 1.367 . S
C2046 C2054 1.378 . S
C2047 C2046 1.367 . S
C2047 C2055 1.433 . S
C2048 H2044 0.929 . S
C2048 C2050 1.378 . S
C2048 C2052 1.350 . S
C2049 C2052 1.463 . S
C2049 C2054 1.350 . S
C2049 N2057 1.427 . S
C2050 H2041 0.930 . S
C2050 C2048 1.378 . S
C2050 C2051 1.367 . S
C2051 C2050 1.367 . S
C2051 C2053 1.433 . S
C2052 C2048 1.350 . S
C2052 C2049 1.463 . S
C2052 N2056 1.427 . S
C2053 H2043 0.929 . S
C2053 C2051 1.433 . S
C2053 N2056 1.384 . S
C2054 H2045 0.929 . S
C2054 C2046 1.378 . S
C2054 C2049 1.350 . S
C2055 H2042 0.929 . S
C2055 C2047 1.433 . S
C2055 N2057 1.384 . S
N2056 C2052 1.427 . S
N2056 C2053 1.384 . S
N2057 C2049 1.427 . S
N2057 C2055 1.384 . S
H2058 C2064 0.930 . S
H2059 C2068 0.930 . S
H2060 C2073 0.929 . S
H2061 C2071 0.929 . S
H2062 C2066 0.929 . S
H2063 C2072 0.929 . S
C2064 H2058 0.930 . S
C2064 C2065 1.367 . S
C2064 C2072 1.378 . S
C2065 C2064 1.367 . S
C2065 C2073 1.433 . S
C2066 H2062 0.929 . S
C2066 C2068 1.378 . S
C2066 C2070 1.350 . S
C2067 C2070 1.463 . S
C2067 C2072 1.350 . S
C2067 N2075 1.427 . S
C2068 H2059 0.930 . S
C2068 C2066 1.378 . S
C2068 C2069 1.367 . S
C2069 C2068 1.367 . S
C2069 C2071 1.433 . S
C2070 C2066 1.350 . S
C2070 C2067 1.463 . S
C2070 N2074 1.427 . S
C2071 H2061 0.929 . S
C2071 C2069 1.433 . S
C2071 N2074 1.384 . S
C2072 H2063 0.929 . S
C2072 C2064 1.378 . S
C2072 C2067 1.350 . S
C2073 H2060 0.929 . S
C2073 C2065 1.433 . S
C2073 N2075 1.384 . S
N2074 C2070 1.427 . S
N2074 C2071 1.384 . S
N2075 C2067 1.427 . S
N2075 C2073 1.384 . S
H2076 C2082 0.930 . S
H2077 C2086 0.930 . S
H2078 C2091 0.929 . S
H2079 C2089 0.929 . S
H2080 C2084 0.929 . S
H2081 C2090 0.929 . S
C2082 H2076 0.930 . S
C2082 C2083 1.367 . S
C2082 C2090 1.378 . S
C2083 C2082 1.367 . S
C2083 C2091 1.433 . S
C2084 H2080 0.929 . S
C2084 C2086 1.378 . S
C2084 C2088 1.350 . S
C2085 C2088 1.463 . S
C2085 C2090 1.350 . S
C2085 N2093 1.427 . S
C2086 H2077 0.930 . S
C2086 C2084 1.378 . S
C2086 C2087 1.367 . S
C2087 C2086 1.367 . S
C2087 C2089 1.433 . S
C2088 C2084 1.350 . S
C2088 C2085 1.463 . S
C2088 N2092 1.427 . S
C2089 H2079 0.929 . S
C2089 C2087 1.433 . S
C2089 N2092 1.384 . S
C2090 H2081 0.929 . S
C2090 C2082 1.378 . S
C2090 C2085 1.350 . S
C2091 H2078 0.929 . S
C2091 C2083 1.433 . S
C2091 N2093 1.384 . S
N2092 C2088 1.427 . S
N2092 C2089 1.384 . S
N2093 C2085 1.427 . S
N2093 C2091 1.384 . S
H2094 C2100 0.930 . S
H2095 C2104 0.930 . S
H2096 C2109 0.929 . S
H2097 C2107 0.929 . S
H2098 C2102 0.929 . S
H2099 C2108 0.929 . S
C2100 H2094 0.930 . S
C2100 C2101 1.367 . S
C2100 C2108 1.378 . S
C2101 C2100 1.367 . S
C2101 C2109 1.433 . S
C2102 H2098 0.929 . S
C2102 C2104 1.378 . S
C2102 C2106 1.350 . S
C2103 C2106 1.463 . S
C2103 C2108 1.350 . S
C2103 N2111 1.427 . S
C2104 H2095 0.930 . S
C2104 C2102 1.378 . S
C2104 C2105 1.367 . S
C2105 C2104 1.367 . S
C2105 C2107 1.433 . S
C2106 C2102 1.350 . S
C2106 C2103 1.463 . S
C2106 N2110 1.427 . S
C2107 H2097 0.929 . S
C2107 C2105 1.433 . S
C2107 N2110 1.384 . S
C2108 H2099 0.929 . S
C2108 C2100 1.378 . S
C2108 C2103 1.350 . S
C2109 H2096 0.929 . S
C2109 C2101 1.433 . S
C2109 N2111 1.384 . S
N2110 C2106 1.427 . S
N2110 C2107 1.384 . S
N2111 C2103 1.427 . S
N2111 C2109 1.384 . S
H2112 C2118 0.930 . S
H2113 C2122 0.930 . S
H2114 C2127 0.929 . S
H2115 C2125 0.929 . S
H2116 C2120 0.929 . S
H2117 C2126 0.929 . S
C2118 H2112 0.930 . S
C2118 C2119 1.367 . S
C2118 C2126 1.378 . S
C2119 C2118 1.367 . S
C2119 C2127 1.433 . S
C2120 H2116 0.929 . S
C2120 C2122 1.378 . S
C2120 C2124 1.350 . S
C2121 C2124 1.463 . S
C2121 C2126 1.350 . S
C2121 N2129 1.427 . S
C2122 H2113 0.930 . S
C2122 C2120 1.378 . S
C2122 C2123 1.367 . S
C2123 C2122 1.367 . S
C2123 C2125 1.433 . S
C2124 C2120 1.350 . S
C2124 C2121 1.463 . S
C2124 N2128 1.427 . S
C2125 H2115 0.929 . S
C2125 C2123 1.433 . S
C2125 N2128 1.384 . S
C2126 H2117 0.929 . S
C2126 C2118 1.378 . S
C2126 C2121 1.350 . S
C2127 H2114 0.929 . S
C2127 C2119 1.433 . S
C2127 N2129 1.384 . S
N2128 C2124 1.427 . S
N2128 C2125 1.384 . S
N2129 C2121 1.427 . S
N2129 C2127 1.384 . S
H2130 C2136 0.930 . S
H2131 C2140 0.930 . S
H2132 C2145 0.929 . S
H2133 C2143 0.929 . S
H2134 C2138 0.929 . S
H2135 C2144 0.929 . S
C2136 H2130 0.930 . S
C2136 C2137 1.367 . S
C2136 C2144 1.378 . S
C2137 C2136 1.367 . S
C2137 C2145 1.433 . S
C2138 H2134 0.929 . S
C2138 C2140 1.378 . S
C2138 C2142 1.350 . S
C2139 C2142 1.463 . S
C2139 C2144 1.350 . S
C2139 N2147 1.427 . S
C2140 H2131 0.930 . S
C2140 C2138 1.378 . S
C2140 C2141 1.367 . S
C2141 C2140 1.367 . S
C2141 C2143 1.433 . S
C2142 C2138 1.350 . S
C2142 C2139 1.463 . S
C2142 N2146 1.427 . S
C2143 H2133 0.929 . S
C2143 C2141 1.433 . S
C2143 N2146 1.384 . S
C2144 H2135 0.929 . S
C2144 C2136 1.378 . S
C2144 C2139 1.350 . S
C2145 H2132 0.929 . S
C2145 C2137 1.433 . S
C2145 N2147 1.384 . S
N2146 C2142 1.427 . S
N2146 C2143 1.384 . S
N2147 C2139 1.427 . S
N2147 C2145 1.384 . S
H2148 C2154 0.930 . S
H2149 C2158 0.930 . S
H2150 C2163 0.929 . S
H2151 C2161 0.929 . S
H2152 C2156 0.929 . S
H2153 C2162 0.929 . S
C2154 H2148 0.930 . S
C2154 C2155 1.367 . S
C2154 C2162 1.378 . S
C2155 C2154 1.367 . S
C2155 C2163 1.433 . S
C2156 H2152 0.929 . S
C2156 C2158 1.378 . S
C2156 C2160 1.350 . S
C2157 C2160 1.463 . S
C2157 C2162 1.350 . S
C2157 N2165 1.427 . S
C2158 H2149 0.930 . S
C2158 C2156 1.378 . S
C2158 C2159 1.367 . S
C2159 C2158 1.367 . S
C2159 C2161 1.433 . S
C2160 C2156 1.350 . S
C2160 C2157 1.463 . S
C2160 N2164 1.427 . S
C2161 H2151 0.929 . S
C2161 C2159 1.433 . S
C2161 N2164 1.384 . S
C2162 H2153 0.929 . S
C2162 C2154 1.378 . S
C2162 C2157 1.350 . S
C2163 H2150 0.929 . S
C2163 C2155 1.433 . S
C2163 N2165 1.384 . S
N2164 C2160 1.427 . S
N2164 C2161 1.384 . S
N2165 C2157 1.427 . S
N2165 C2163 1.384 . S
H2166 C2172 0.930 . S
H2167 C2176 0.930 . S
H2168 C2181 0.929 . S
H2169 C2179 0.929 . S
H2170 C2174 0.929 . S
H2171 C2180 0.929 . S
C2172 H2166 0.930 . S
C2172 C2173 1.367 . S
C2172 C2180 1.378 . S
C2173 C2172 1.367 . S
C2173 C2181 1.433 . S
C2174 H2170 0.929 . S
C2174 C2176 1.378 . S
C2174 C2178 1.350 . S
C2175 C2178 1.463 . S
C2175 C2180 1.350 . S
C2175 N2183 1.427 . S
C2176 H2167 0.930 . S
C2176 C2174 1.378 . S
C2176 C2177 1.367 . S
C2177 C2176 1.367 . S
C2177 C2179 1.433 . S
C2178 C2174 1.350 . S
C2178 C2175 1.463 . S
C2178 N2182 1.427 . S
C2179 H2169 0.929 . S
C2179 C2177 1.433 . S
C2179 N2182 1.384 . S
C2180 H2171 0.929 . S
C2180 C2172 1.378 . S
C2180 C2175 1.350 . S
C2181 H2168 0.929 . S
C2181 C2173 1.433 . S
C2181 N2183 1.384 . S
N2182 C2178 1.427 . S
N2182 C2179 1.384 . S
N2183 C2175 1.427 . S
N2183 C2181 1.384 . S
H2184 C2190 0.930 . S
H2185 C2194 0.930 . S
H2186 C2199 0.929 . S
H2187 C2197 0.929 . S
H2188 C2192 0.929 . S
H2189 C2198 0.929 . S
C2190 H2184 0.930 . S
C2190 C2191 1.367 . S
C2190 C2198 1.378 . S
C2191 C2190 1.367 . S
C2191 C2199 1.433 . S
C2192 H2188 0.929 . S
C2192 C2194 1.378 . S
C2192 C2196 1.350 . S
C2193 C2196 1.463 . S
C2193 C2198 1.350 . S
C2193 N2201 1.427 . S
C2194 H2185 0.930 . S
C2194 C2192 1.378 . S
C2194 C2195 1.367 . S
C2195 C2194 1.367 . S
C2195 C2197 1.433 . S
C2196 C2192 1.350 . S
C2196 C2193 1.463 . S
C2196 N2200 1.427 . S
C2197 H2187 0.929 . S
C2197 C2195 1.433 . S
C2197 N2200 1.384 . S
C2198 H2189 0.929 . S
C2198 C2190 1.378 . S
C2198 C2193 1.350 . S
C2199 H2186 0.929 . S
C2199 C2191 1.433 . S
C2199 N2201 1.384 . S
N2200 C2196 1.427 . S
N2200 C2197 1.384 . S
N2201 C2193 1.427 . S
N2201 C2199 1.384 . S
H2202 C2208 0.930 . S
H2203 C2212 0.930 . S
H2204 C2217 0.929 . S
H2205 C2215 0.929 . S
H2206 C2210 0.929 . S
H2207 C2216 0.929 . S
C2208 H2202 0.930 . S
C2208 C2209 1.367 . S
C2208 C2216 1.378 . S
C2209 C2208 1.367 . S
C2209 C2217 1.433 . S
C2210 H2206 0.929 . S
C2210 C2212 1.378 . S
C2210 C2214 1.350 . S
C2211 C2214 1.463 . S
C2211 C2216 1.350 . S
C2211 N2219 1.427 . S
C2212 H2203 0.930 . S
C2212 C2210 1.378 . S
C2212 C2213 1.367 . S
C2213 C2212 1.367 . S
C2213 C2215 1.433 . S
C2214 C2210 1.350 . S
C2214 C2211 1.463 . S
C2214 N2218 1.427 . S
C2215 H2205 0.929 . S
C2215 C2213 1.433 . S
C2215 N2218 1.384 . S
C2216 H2207 0.929 . S
C2216 C2208 1.378 . S
C2216 C2211 1.350 . S
C2217 H2204 0.929 . S
C2217 C2209 1.433 . S
C2217 N2219 1.384 . S
N2218 C2214 1.427 . S
N2218 C2215 1.384 . S
N2219 C2211 1.427 . S
N2219 C2217 1.384 . S
H2220 C2226 0.930 . S
H2221 C2230 0.930 . S
H2222 C2235 0.929 . S
H2223 C2233 0.929 . S
H2224 C2228 0.929 . S
H2225 C2234 0.929 . S
C2226 H2220 0.930 . S
C2226 C2227 1.367 . S
C2226 C2234 1.378 . S
C2227 C2226 1.367 . S
C2227 C2235 1.433 . S
C2228 H2224 0.929 . S
C2228 C2230 1.378 . S
C2228 C2232 1.350 . S
C2229 C2232 1.463 . S
C2229 C2234 1.350 . S
C2229 N2237 1.427 . S
C2230 H2221 0.930 . S
C2230 C2228 1.378 . S
C2230 C2231 1.367 . S
C2231 C2230 1.367 . S
C2231 C2233 1.433 . S
C2232 C2228 1.350 . S
C2232 C2229 1.463 . S
C2232 N2236 1.427 . S
C2233 H2223 0.929 . S
C2233 C2231 1.433 . S
C2233 N2236 1.384 . S
C2234 H2225 0.929 . S
C2234 C2226 1.378 . S
C2234 C2229 1.350 . S
C2235 H2222 0.929 . S
C2235 C2227 1.433 . S
C2235 N2237 1.384 . S
N2236 C2232 1.427 . S
N2236 C2233 1.384 . S
N2237 C2229 1.427 . S
N2237 C2235 1.384 . S
H2238 C2244 0.930 . S
H2239 C2248 0.930 . S
H2240 C2253 0.929 . S
H2241 C2251 0.929 . S
H2242 C2246 0.929 . S
H2243 C2252 0.929 . S
C2244 H2238 0.930 . S
C2244 C2245 1.367 . S
C2244 C2252 1.378 . S
C2245 C2244 1.367 . S
C2245 C2253 1.433 . S
C2246 H2242 0.929 . S
C2246 C2248 1.378 . S
C2246 C2250 1.350 . S
C2247 C2250 1.463 . S
C2247 C2252 1.350 . S
C2247 N2255 1.427 . S
C2248 H2239 0.930 . S
C2248 C2246 1.378 . S
C2248 C2249 1.367 . S
C2249 C2248 1.367 . S
C2249 C2251 1.433 . S
C2250 C2246 1.350 . S
C2250 C2247 1.463 . S
C2250 N2254 1.427 . S
C2251 H2241 0.929 . S
C2251 C2249 1.433 . S
C2251 N2254 1.384 . S
C2252 H2243 0.929 . S
C2252 C2244 1.378 . S
C2252 C2247 1.350 . S
C2253 H2240 0.929 . S
C2253 C2245 1.433 . S
C2253 N2255 1.384 . S
N2254 C2250 1.427 . S
N2254 C2251 1.384 . S
N2255 C2247 1.427 . S
N2255 C2253 1.384 . S
H2256 C2262 0.930 . S
H2257 C2266 0.930 . S
H2258 C2271 0.929 . S
H2259 C2269 0.929 . S
H2260 C2264 0.929 . S
H2261 C2270 0.929 . S
C2262 H2256 0.930 . S
C2262 C2263 1.367 . S
C2262 C2270 1.378 . S
C2263 C2262 1.367 . S
C2263 C2271 1.433 . S
C2264 H2260 0.929 . S
C2264 C2266 1.378 . S
C2264 C2268 1.350 . S
C2265 C2268 1.463 . S
C2265 C2270 1.350 . S
C2265 N2273 1.427 . S
C2266 H2257 0.930 . S
C2266 C2264 1.378 . S
C2266 C2267 1.367 . S
C2267 C2266 1.367 . S
C2267 C2269 1.433 . S
C2268 C2264 1.350 . S
C2268 C2265 1.463 . S
C2268 N2272 1.427 . S
C2269 H2259 0.929 . S
C2269 C2267 1.433 . S
C2269 N2272 1.384 . S
C2270 H2261 0.929 . S
C2270 C2262 1.378 . S
C2270 C2265 1.350 . S
C2271 H2258 0.929 . S
C2271 C2263 1.433 . S
C2271 N2273 1.384 . S
N2272 C2268 1.427 . S
N2272 C2269 1.384 . S
N2273 C2265 1.427 . S
N2273 C2271 1.384 . S
H2274 C2280 0.930 . S
H2275 C2284 0.930 . S
H2276 C2289 0.929 . S
H2277 C2287 0.929 . S
H2278 C2282 0.929 . S
H2279 C2288 0.929 . S
C2280 H2274 0.930 . S
C2280 C2281 1.367 . S
C2280 C2288 1.378 . S
C2281 C2280 1.367 . S
C2281 C2289 1.433 . S
C2282 H2278 0.929 . S
C2282 C2284 1.378 . S
C2282 C2286 1.350 . S
C2283 C2286 1.463 . S
C2283 C2288 1.350 . S
C2283 N2291 1.427 . S
C2284 H2275 0.930 . S
C2284 C2282 1.378 . S
C2284 C2285 1.367 . S
C2285 C2284 1.367 . S
C2285 C2287 1.433 . S
C2286 C2282 1.350 . S
C2286 C2283 1.463 . S
C2286 N2290 1.427 . S
C2287 H2277 0.929 . S
C2287 C2285 1.433 . S
C2287 N2290 1.384 . S
C2288 H2279 0.929 . S
C2288 C2280 1.378 . S
C2288 C2283 1.350 . S
C2289 H2276 0.929 . S
C2289 C2281 1.433 . S
C2289 N2291 1.384 . S
N2290 C2286 1.427 . S
N2290 C2287 1.384 . S
N2291 C2283 1.427 . S
N2291 C2289 1.384 . S
H2292 C2298 0.930 . S
H2293 C2302 0.930 . S
H2294 C2307 0.929 . S
H2295 C2305 0.929 . S
H2296 C2300 0.929 . S
H2297 C2306 0.929 . S
C2298 H2292 0.930 . S
C2298 C2299 1.367 . S
C2298 C2306 1.378 . S
C2299 C2298 1.367 . S
C2299 C2307 1.433 . S
C2300 H2296 0.929 . S
C2300 C2302 1.378 . S
C2300 C2304 1.350 . S
C2301 C2304 1.463 . S
C2301 C2306 1.350 . S
C2301 N2309 1.427 . S
C2302 H2293 0.930 . S
C2302 C2300 1.378 . S
C2302 C2303 1.367 . S
C2303 C2302 1.367 . S
C2303 C2305 1.433 . S
C2304 C2300 1.350 . S
C2304 C2301 1.463 . S
C2304 N2308 1.427 . S
C2305 H2295 0.929 . S
C2305 C2303 1.433 . S
C2305 N2308 1.384 . S
C2306 H2297 0.929 . S
C2306 C2298 1.378 . S
C2306 C2301 1.350 . S
C2307 H2294 0.929 . S
C2307 C2299 1.433 . S
C2307 N2309 1.384 . S
N2308 C2304 1.427 . S
N2308 C2305 1.384 . S
N2309 C2301 1.427 . S
N2309 C2307 1.384 . S
H2310 C2316 0.930 . S
H2311 C2320 0.930 . S
H2312 C2325 0.929 . S
H2313 C2323 0.929 . S
H2314 C2318 0.929 . S
H2315 C2324 0.929 . S
C2316 H2310 0.930 . S
C2316 C2317 1.367 . S
C2316 C2324 1.378 . S
C2317 C2316 1.367 . S
C2317 C2325 1.433 . S
C2318 H2314 0.929 . S
C2318 C2320 1.378 . S
C2318 C2322 1.350 . S
C2319 C2322 1.463 . S
C2319 C2324 1.350 . S
C2319 N2327 1.427 . S
C2320 H2311 0.930 . S
C2320 C2318 1.378 . S
C2320 C2321 1.367 . S
C2321 C2320 1.367 . S
C2321 C2323 1.433 . S
C2322 C2318 1.350 . S
C2322 C2319 1.463 . S
C2322 N2326 1.427 . S
C2323 H2313 0.929 . S
C2323 C2321 1.433 . S
C2323 N2326 1.384 . S
C2324 H2315 0.929 . S
C2324 C2316 1.378 . S
C2324 C2319 1.350 . S
C2325 H2312 0.929 . S
C2325 C2317 1.433 . S
C2325 N2327 1.384 . S
N2326 C2322 1.427 . S
N2326 C2323 1.384 . S
N2327 C2319 1.427 . S
N2327 C2325 1.384 . S
H2328 C2334 0.930 . S
H2329 C2338 0.930 . S
H2330 C2343 0.929 . S
H2331 C2341 0.929 . S
H2332 C2336 0.929 . S
H2333 C2342 0.929 . S
C2334 H2328 0.930 . S
C2334 C2335 1.367 . S
C2334 C2342 1.378 . S
C2335 C2334 1.367 . S
C2335 C2343 1.433 . S
C2336 H2332 0.929 . S
C2336 C2338 1.378 . S
C2336 C2340 1.350 . S
C2337 C2340 1.463 . S
C2337 C2342 1.350 . S
C2337 N2345 1.427 . S
C2338 H2329 0.930 . S
C2338 C2336 1.378 . S
C2338 C2339 1.367 . S
C2339 C2338 1.367 . S
C2339 C2341 1.433 . S
C2340 C2336 1.350 . S
C2340 C2337 1.463 . S
C2340 N2344 1.427 . S
C2341 H2331 0.929 . S
C2341 C2339 1.433 . S
C2341 N2344 1.384 . S
C2342 H2333 0.929 . S
C2342 C2334 1.378 . S
C2342 C2337 1.350 . S
C2343 H2330 0.929 . S
C2343 C2335 1.433 . S
C2343 N2345 1.384 . S
N2344 C2340 1.427 . S
N2344 C2341 1.384 . S
N2345 C2337 1.427 . S
N2345 C2343 1.384 . S
H2346 C2352 0.930 . S
H2347 C2356 0.930 . S
H2348 C2361 0.929 . S
H2349 C2359 0.929 . S
H2350 C2354 0.929 . S
H2351 C2360 0.929 . S
C2352 H2346 0.930 . S
C2352 C2353 1.367 . S
C2352 C2360 1.378 . S
C2353 C2352 1.367 . S
C2353 C2361 1.433 . S
C2354 H2350 0.929 . S
C2354 C2356 1.378 . S
C2354 C2358 1.350 . S
C2355 C2358 1.463 . S
C2355 C2360 1.350 . S
C2355 N2363 1.427 . S
C2356 H2347 0.930 . S
C2356 C2354 1.378 . S
C2356 C2357 1.367 . S
C2357 C2356 1.367 . S
C2357 C2359 1.433 . S
C2358 C2354 1.350 . S
C2358 C2355 1.463 . S
C2358 N2362 1.427 . S
C2359 H2349 0.929 . S
C2359 C2357 1.433 . S
C2359 N2362 1.384 . S
C2360 H2351 0.929 . S
C2360 C2352 1.378 . S
C2360 C2355 1.350 . S
C2361 H2348 0.929 . S
C2361 C2353 1.433 . S
C2361 N2363 1.384 . S
N2362 C2358 1.427 . S
N2362 C2359 1.384 . S
N2363 C2355 1.427 . S
N2363 C2361 1.384 . S
H2364 C2370 0.930 . S
H2365 C2374 0.930 . S
H2366 C2379 0.929 . S
H2367 C2377 0.929 . S
H2368 C2372 0.929 . S
H2369 C2378 0.929 . S
C2370 H2364 0.930 . S
C2370 C2371 1.367 . S
C2370 C2378 1.378 . S
C2371 C2370 1.367 . S
C2371 C2379 1.433 . S
C2372 H2368 0.929 . S
C2372 C2374 1.378 . S
C2372 C2376 1.350 . S
C2373 C2376 1.463 . S
C2373 C2378 1.350 . S
C2373 N2381 1.427 . S
C2374 H2365 0.930 . S
C2374 C2372 1.378 . S
C2374 C2375 1.367 . S
C2375 C2374 1.367 . S
C2375 C2377 1.433 . S
C2376 C2372 1.350 . S
C2376 C2373 1.463 . S
C2376 N2380 1.427 . S
C2377 H2367 0.929 . S
C2377 C2375 1.433 . S
C2377 N2380 1.384 . S
C2378 H2369 0.929 . S
C2378 C2370 1.378 . S
C2378 C2373 1.350 . S
C2379 H2366 0.929 . S
C2379 C2371 1.433 . S
C2379 N2381 1.384 . S
N2380 C2376 1.427 . S
N2380 C2377 1.384 . S
N2381 C2373 1.427 . S
N2381 C2379 1.384 . S
H2382 C2388 0.930 . S
H2383 C2392 0.930 . S
H2384 C2397 0.929 . S
H2385 C2395 0.929 . S
H2386 C2390 0.929 . S
H2387 C2396 0.929 . S
C2388 H2382 0.930 . S
C2388 C2389 1.367 . S
C2388 C2396 1.378 . S
C2389 C2388 1.367 . S
C2389 C2397 1.433 . S
C2390 H2386 0.929 . S
C2390 C2392 1.378 . S
C2390 C2394 1.350 . S
C2391 C2394 1.463 . S
C2391 C2396 1.350 . S
C2391 N2399 1.427 . S
C2392 H2383 0.930 . S
C2392 C2390 1.378 . S
C2392 C2393 1.367 . S
C2393 C2392 1.367 . S
C2393 C2395 1.433 . S
C2394 C2390 1.350 . S
C2394 C2391 1.463 . S
C2394 N2398 1.427 . S
C2395 H2385 0.929 . S
C2395 C2393 1.433 . S
C2395 N2398 1.384 . S
C2396 H2387 0.929 . S
C2396 C2388 1.378 . S
C2396 C2391 1.350 . S
C2397 H2384 0.929 . S
C2397 C2389 1.433 . S
C2397 N2399 1.384 . S
N2398 C2394 1.427 . S
N2398 C2395 1.384 . S
N2399 C2391 1.427 . S
N2399 C2397 1.384 . S
C679 C439 1.072 . S
C683 C11 1.207 . S
C697 C19 1.072 . S
C701 C403 1.207 . S
C715 C39 1.210 . S
C719 C411 1.076 . S
C733 C431 1.205 . S
C737 C47 1.091 . S
C751 C355 1.069 . S
C755 C67 1.210 . S
C769 C75 1.098 . S
C773 C375 1.197 . S
C787 C383 1.070 . S
C791 C95 1.210 . S
C805 C103 1.098 . S
C809 C347 1.197 . S
C823 C123 1.203 . S
C827 C627 1.200 . S
C841 C579 1.070 . S
C845 C137 1.210 . S
C859 C599 1.202 . S
C863 C151 1.199 . S
C877 C165 1.209 . S
C881 C607 1.080 . S
C895 C179 1.203 . S
C899 C669 1.205 . S
C913 C193 1.200 . S
C917 C635 1.087 . S
C931 C207 1.201 . S
C935 C655 1.198 . S
C949 C565 1.075 . S
C953 C221 1.210 . S
C967 C557 1.206 . S
C971 C229 1.089 . S
C985 C243 1.082 . S
C989 C473 1.202 . S
C1003 C487 1.205 . S
C1007 C263 1.205 . S
C1021 C271 1.099 . S
C1025 C501 1.197 . S
C1039 C459 1.201 . S
C1043 C291 1.203 . S
C1057 C529 1.206 . S
C1061 C299 1.088 . S
C1075 C319 1.201 . S
C1079 C543 1.204 . S
C1093 C515 1.204 . S
C1097 C333 1.205 . S
C1111 C138 1.213 . S
C1115 C12 1.218 . S
C1129 C152 1.246 . S
C1133 C18 1.228 . S
C1147 C40 1.219 . S
C1151 C166 1.213 . S
C1165 C124 1.247 . S
C1169 C46 1.229 . S
C1183 C68 1.219 . S
C1187 C222 1.213 . S
C1201 C180 1.242 . S
C1205 C74 1.221 . S
C1219 C194 1.214 . S
C1223 C96 1.219 . S
C1237 C208 1.245 . S
C1241 C102 1.227 . S
C1255 C264 1.243 . S
C1259 C228 1.224 . S
C1273 C320 1.246 . S
C1277 C242 1.225 . S
C1291 C334 1.244 . S
C1295 C270 1.225 . S
C1309 C292 1.243 . S
C1313 C298 1.223 . S
C1327 C474 1.218 . S
C1331 C348 1.220 . S
C1345 C488 1.247 . S
C1349 C354 1.229 . S
C1363 C502 1.220 . S
C1367 C376 1.215 . S
C1381 C382 1.215 . S
C1385 C460 1.240 . S
C1399 C404 1.219 . S
C1403 C558 1.214 . S
C1417 C410 1.229 . S
C1421 C516 1.247 . S
C1435 C530 1.220 . S
C1439 C432 1.216 . S
C1453 C544 1.242 . S
C1457 C438 1.217 . S
C1471 C564 1.229 . S
C1475 C600 1.246 . S
C1489 C656 1.240 . S
C1493 C578 1.215 . S
C1507 C670 1.240 . S
C1511 C606 1.218 . S
C1525 C634 1.228 . S
C1529 C628 1.247 . S
C1543 C5 1.050 . S
C1547 C256 1.162 1_554 S
C1561 C25 1.302 . S
C1565 C278 1.293 . S
C1579 C33 1.072 . S
C1583 C284 1.147 1_554 S
C1597 C250 1.294 . S
C1601 C53 1.302 . S
C1615 C61 1.066 . S
C1619 C312 1.149 1_556 S
C1633 C81 1.302 . S
C1637 C236 1.282 . S
C1651 C326 1.146 1_556 S
C1655 C89 1.080 . S
C1669 C306 1.295 . S
C1673 C109 1.304 . S
C1687 C117 1.108 . S
C1691 C130 1.180 1_455 S
C1705 C131 1.056 . S
C1709 C144 1.163 1_545 S
C1723 C145 1.118 . S
C1727 C158 1.183 1_655 S
C1741 C116 1.150 1_565 S
C1745 C159 1.063 . S
C1759 C214 1.194 1_455 S
C1763 C173 1.086 . S
C1777 C172 1.162 1_545 S
C1781 C187 1.058 . S
C1795 C186 1.184 1_655 S
C1799 C201 1.098 . S
C1813 C215 1.076 . S
C1817 C200 1.146 1_565 S
C1831 C54 1.294 . S
C1835 C235 1.302 . S
C1849 C82 1.296 . S
C1853 C249 1.306 . S
C1867 C88 1.197 1_455 S
C1871 C257 1.091 . S
C1885 C277 1.300 . S
C1889 C110 1.289 . S
C1903 C60 1.189 1_655 S
C1907 C285 1.090 . S
C1921 C26 1.293 . S
C1925 C305 1.301 . S
C1939 C32 1.196 1_455 S
C1943 C313 1.087 . S
C1957 C4 1.195 1_655 S
C1961 C327 1.086 . S
C1975 C592 1.190 . S
C1979 C341 1.058 . S
C1993 C361 1.312 . S
C1997 C614 1.287 . S
C2011 C620 1.190 . S
C2015 C369 1.053 . S
C2029 C586 1.292 . S
C2033 C389 1.311 . S
C2047 C397 1.082 . S
C2051 C648 1.179 . S
C2065 C417 1.301 . S
C2069 C572 1.286 . S
C2083 C662 1.189 . S
C2087 C425 1.064 . S
C2101 C445 1.301 . S
C2105 C642 1.285 . S
C2119 C453 1.089 . S
C2123 C466 1.218 . S
C2137 C467 1.083 . S
C2141 C480 1.179 . S
C2155 C481 1.103 . S
C2159 C494 1.215 . S
C2173 C495 1.083 . S
C2177 C452 1.178 . S
C2191 C550 1.202 . S
C2195 C509 1.114 . S
C2209 C508 1.190 . S
C2213 C523 1.053 . S
C2227 C522 1.217 . S
C2231 C537 1.086 . S
C2245 C551 1.073 . S
C2249 C536 1.186 . S
C2263 C390 1.295 . S
C2267 C571 1.303 . S
C2281 C418 1.282 . S
C2285 C585 1.303 . S
C2299 C424 1.202 . S
C2303 C593 1.112 . S
C2317 C613 1.305 . S
C2321 C446 1.281 . S
C2335 C396 1.218 . S
C2339 C621 1.090 . S
C2353 C362 1.296 . S
C2357 C641 1.305 . S
C2371 C649 1.110 . S
C2375 C368 1.202 . S
C2389 C340 1.202 . S
C2393 C663 1.114 . S
