# Generated by pormake.
# Topology fni, (5)-cn, num edge types: 1
# Building blocks:
#     Node 0, Type 0, BuildingBlock: XOMCOT_clean_sbu_0, # of connection points: 5
#     Node 1, Type 0, BuildingBlock: XOMCOT_clean_sbu_0, # of connection points: 5
#     Node 2, Type 0, BuildingBlock: XOMCOT_clean_sbu_0, # of connection points: 5
#     Node 3, Type 0, BuildingBlock: XOMCOT_clean_sbu_0, # of connection points: 5
#     Node 4, Type 0, BuildingBlock: XOMCOT_clean_sbu_0, # of connection points: 5
#     Node 5, Type 0, BuildingBlock: XOMCOT_clean_sbu_0, # of connection points: 5
#     Node 6, Type 0, BuildingBlock: XOMCOT_clean_sbu_0, # of connection points: 5
#     Node 7, Type 0, BuildingBlock: XOMCOT_clean_sbu_0, # of connection points: 5
#     Edge 8, Type (0, 0), BuildingBlock: OJICUG_clean_linker_0, # of connection points: 2
#     Edge 9, Type (0, 0), BuildingBlock: OJICUG_clean_linker_0, # of connection points: 2
#     Edge 10, Type (0, 0), BuildingBlock: OJICUG_clean_linker_0, # of connection points: 2
#     Edge 11, Type (0, 0), BuildingBlock: OJICUG_clean_linker_0, # of connection points: 2
#     Edge 12, Type (0, 0), BuildingBlock: OJICUG_clean_linker_0, # of connection points: 2
#     Edge 13, Type (0, 0), BuildingBlock: OJICUG_clean_linker_0, # of connection points: 2
#     Edge 14, Type (0, 0), BuildingBlock: OJICUG_clean_linker_0, # of connection points: 2
#     Edge 15, Type (0, 0), BuildingBlock: OJICUG_clean_linker_0, # of connection points: 2
#     Edge 16, Type (0, 0), BuildingBlock: OJICUG_clean_linker_0, # of connection points: 2
#     Edge 17, Type (0, 0), BuildingBlock: OJICUG_clean_linker_0, # of connection points: 2
#     Edge 18, Type (0, 0), BuildingBlock: OJICUG_clean_linker_0, # of connection points: 2
#     Edge 19, Type (0, 0), BuildingBlock: OJICUG_clean_linker_0, # of connection points: 2
#     Edge 20, Type (0, 0), BuildingBlock: OJICUG_clean_linker_0, # of connection points: 2
#     Edge 21, Type (0, 0), BuildingBlock: OJICUG_clean_linker_0, # of connection points: 2
#     Edge 22, Type (0, 0), BuildingBlock: OJICUG_clean_linker_0, # of connection points: 2
#     Edge 23, Type (0, 0), BuildingBlock: OJICUG_clean_linker_0, # of connection points: 2
#     Edge 24, Type (0, 0), BuildingBlock: OJICUG_clean_linker_0, # of connection points: 2
#     Edge 25, Type (0, 0), BuildingBlock: OJICUG_clean_linker_0, # of connection points: 2
#     Edge 26, Type (0, 0), BuildingBlock: OJICUG_clean_linker_0, # of connection points: 2
#     Edge 27, Type (0, 0), BuildingBlock: OJICUG_clean_linker_0, # of connection points: 2
# Relax obj value: 0.069
# Max RMSD: 0.157
# Mean RMSD: 0.156
data_MOF--net-fni--node1-XOMCOT_clean_sbu_0--edge1-OJICUG_clean_linker_0
_symmetry_space_group_name_H-M    P1
_symmetry_Int_Tables_number       1
_symmetry_cell_setting            triclinic
loop_
_symmetry_equiv_pos_as_xyz
'x, y, z'
_cell_length_a     40.612455
_cell_length_b     41.060328
_cell_length_c     13.518168
_cell_angle_alpha  89.901566
_cell_angle_beta   90.2212
_cell_angle_gamma 90.034612
loop_
_atom_site_label
_atom_site_type_symbol
_atom_site_fract_x
_atom_site_fract_y
_atom_site_fract_z
_atom_type_partial_charge
Co0 Co 0.3988 0.35564 0.02601 0.0
C1 C 0.39817 0.36092 0.24487 0.0
C2 C 0.3495 0.35725 0.18476 0.0
C3 C 0.34743 0.35615 0.28639 0.0
N4 N 0.38131 0.36101 0.15855 0.0
N5 N 0.37814 0.35821 0.32392 0.0
H6 H 0.4246 0.36094 0.25043 0.0
H7 H 0.32932 0.35358 0.13353 0.0
C8 C 0.34238 0.40356 0.99652 0.0
O9 O 0.35089 0.42003 0.07588 0.0
N10 N 0.41573 0.34954 0.89443 0.0
C11 C 0.44749 0.34945 0.86644 0.0
C12 C 0.44864 0.34835 0.76457 0.0
C13 C 0.39803 0.34814 0.8101 0.0
N14 N 0.41747 0.34777 0.72928 0.0
C15 C 0.45311 0.39439 0.09514 0.0
C16 C 0.44161 0.44805 0.97653 0.0
C17 C 0.46911 0.44823 0.03965 0.0
C18 C 0.47471 0.42084 0.09926 0.0
C19 C 0.4204 0.42113 0.97541 0.0
N20 N 0.42558 0.39509 0.0368 0.0
H21 H 0.4596 0.37272 0.13563 0.0
H22 H 0.40068 0.42088 0.92181 0.0
H23 H 0.46828 0.35136 0.91634 0.0
H24 H 0.37145 0.34787 0.80804 0.0
O25 O 0.42976 0.32352 0.07742 0.0
O26 O 0.37953 0.31283 0.02201 0.0
O27 O 0.35975 0.37946 0.96761 0.0
C28 C 0.40671 0.30209 0.0612 0.0
H29 H 0.32528 0.35208 0.32896 0.0
H30 H 0.47071 0.34941 0.72008 0.0
H31 H 0.43666 0.46839 0.92761 0.0
H32 H 0.49638 0.41926 0.14596 0.0
Co33 Co 0.6576 0.89562 0.25777 0.0
C34 C 0.65216 0.89421 0.47686 0.0
C35 C 0.66225 0.84702 0.41742 0.0
C36 C 0.6632 0.84501 0.51909 0.0
N37 N 0.65461 0.87777 0.39072 0.0
N38 N 0.65696 0.8748 0.55641 0.0
H39 H 0.64965 0.92022 0.48194 0.0
H40 H 0.66835 0.82767 0.36654 0.0
C41 C 0.61622 0.83459 0.23095 0.0
O42 O 0.59827 0.84172 0.30865 0.0
N43 N 0.66131 0.91301 0.12576 0.0
C44 C 0.65844 0.94441 0.09822 0.0
C45 C 0.65887 0.94597 0.99636 0.0
C46 C 0.66385 0.89596 0.04105 0.0
N47 N 0.66217 0.91545 0.96068 0.0
C48 C 0.61387 0.94524 0.32516 0.0
C49 C 0.5606 0.92903 0.20766 0.0
C50 C 0.55907 0.95736 0.26533 0.0
C51 C 0.58607 0.96506 0.32544 0.0
C52 C 0.58909 0.90975 0.20949 0.0
N53 N 0.61515 0.91756 0.26941 0.0
H54 H 0.63509 0.9535 0.3658 0.0
H55 H 0.5907 0.88974 0.15825 0.0
H56 H 0.6552 0.9646 0.14852 0.0
H57 H 0.66551 0.8697 0.03807 0.0
O58 O 0.68617 0.92983 0.30811 0.0
O59 O 0.7028 0.8818 0.25285 0.0
O60 O 0.63824 0.85441 0.20069 0.0
C61 C 0.71032 0.90982 0.29146 0.0
H62 H 0.66906 0.82345 0.56178 0.0
H63 H 0.65648 0.96784 0.95209 0.0
H64 H 0.54066 0.92267 0.15788 0.0
H65 H 0.58615 0.98681 0.37069 0.0
Co66 Co 0.1174 0.16039 0.52484 0.0
C67 C 0.11791 0.15461 0.7438 0.0
C68 C 0.16678 0.15502 0.68554 0.0
C69 C 0.1687 0.15597 0.78736 0.0
N70 N 0.13485 0.15338 0.65786 0.0
N71 N 0.13786 0.1558 0.82393 0.0
H72 H 0.09165 0.15781 0.74816 0.0
H73 H 0.18731 0.1575 0.63547 0.0
C74 C 0.17453 0.11428 0.48496 0.0
O75 O 0.16618 0.09503 0.55845 0.0
N76 N 0.10022 0.16809 0.3932 0.0
C77 C 0.06832 0.16823 0.36587 0.0
C78 C 0.06659 0.16913 0.26398 0.0
C79 C 0.11742 0.16935 0.30807 0.0
N80 N 0.09754 0.16959 0.22767 0.0
C81 C 0.06687 0.11642 0.59126 0.0
C82 C 0.07922 0.06786 0.45516 0.0
C83 C 0.05345 0.06362 0.5226 0.0
C84 C 0.04733 0.08843 0.59112 0.0
C85 C 0.09828 0.09617 0.45828 0.0
N86 N 0.09282 0.11959 0.52812 0.0
H87 H 0.05996 0.13613 0.63905 0.0
H88 H 0.11662 0.09965 0.40175 0.0
H89 H 0.0478 0.16625 0.4163 0.0
H90 H 0.14391 0.16841 0.30476 0.0
O91 O 0.08491 0.18998 0.58002 0.0
O92 O 0.1348 0.20373 0.52823 0.0
O93 O 0.15735 0.13943 0.46432 0.0
C94 C 0.10723 0.2125 0.56863 0.0
H95 H 0.19109 0.15787 0.83061 0.0
H96 H 0.04423 0.16861 0.22021 0.0
H97 H 0.08444 0.04963 0.39959 0.0
H98 H 0.02675 0.08685 0.64165 0.0
Co99 Co 0.87312 0.63157 0.77441 0.0
C100 C 0.87284 0.6291 0.55506 0.0
C101 C 0.82595 0.61525 0.61287 0.0
C102 C 0.82372 0.61642 0.51127 0.0
N103 N 0.85705 0.62258 0.64082 0.0
N104 N 0.85326 0.62527 0.47504 0.0
H105 H 0.89784 0.63788 0.55103 0.0
H106 H 0.80543 0.61142 0.6618 0.0
C107 C 0.81614 0.58548 0.83715 0.0
O108 O 0.82767 0.55881 0.79656 0.0
N109 N 0.88859 0.64116 0.90642 0.0
C110 C 0.92011 0.64486 0.93566 0.0
C111 C 0.92094 0.64681 0.03747 0.0
C112 C 0.87069 0.64114 0.99019 0.0
N113 N 0.88984 0.64413 0.07139 0.0
C114 C 0.92192 0.58723 0.70743 0.0
C115 C 0.91939 0.54423 0.8645 0.0
C116 C 0.94372 0.53994 0.79199 0.0
C117 C 0.94447 0.56181 0.71248 0.0
C118 C 0.89694 0.57013 0.85614 0.0
N119 N 0.89823 0.59113 0.77758 0.0
H120 H 0.92502 0.60494 0.64976 0.0
H121 H 0.87949 0.57409 0.91501 0.0
H122 H 0.94114 0.64448 0.88682 0.0
H123 H 0.84427 0.63803 0.99228 0.0
O124 O 0.90662 0.66041 0.72068 0.0
O125 O 0.85588 0.67479 0.76222 0.0
O126 O 0.83196 0.61227 0.8325 0.0
C127 C 0.88415 0.683 0.72497 0.0
H128 H 0.80155 0.61276 0.46805 0.0
H129 H 0.94285 0.64817 0.08311 0.0
H130 H 0.91808 0.52816 0.92795 0.0
H131 H 0.9635 0.56043 0.65675 0.0
Co132 Co 0.35459 0.11573 0.25524 0.0
C133 C 0.36142 0.11596 0.47385 0.0
C134 C 0.35807 0.16424 0.41489 0.0
C135 C 0.35725 0.16611 0.51655 0.0
N136 N 0.36144 0.1328 0.38784 0.0
N137 N 0.35907 0.13565 0.55342 0.0
H138 H 0.36102 0.0898 0.4787 0.0
H139 H 0.35418 0.18431 0.36429 0.0
C140 C 0.40225 0.17198 0.22224 0.0
O141 O 0.42025 0.16346 0.29901 0.0
N142 N 0.34709 0.09912 0.12367 0.0
C143 C 0.34626 0.06768 0.09576 0.0
C144 C 0.34534 0.06643 0.99383 0.0
C145 C 0.34632 0.11652 0.03909 0.0
N146 N 0.34566 0.0972 0.95831 0.0
C147 C 0.39441 0.06197 0.31913 0.0
C148 C 0.4475 0.0741 0.19749 0.0
C149 C 0.44808 0.04635 0.25817 0.0
C150 C 0.42098 0.04042 0.31934 0.0
C151 C 0.4203 0.09499 0.19929 0.0
N152 N 0.39459 0.08947 0.26215 0.0
H153 H 0.37307 0.05555 0.3619 0.0
H154 H 0.41949 0.11469 0.14654 0.0
H155 H 0.3478 0.04714 0.14576 0.0
H156 H 0.34695 0.14279 0.03672 0.0
O157 O 0.32297 0.08483 0.30887 0.0
O158 O 0.31137 0.13459 0.25549 0.0
O159 O 0.37764 0.15463 0.19576 0.0
C160 C 0.30115 0.10768 0.29579 0.0
H161 H 0.3533 0.18796 0.55957 0.0
H162 H 0.3461 0.04451 0.94955 0.0
H163 H 0.46736 0.07902 0.14634 0.0
H164 H 0.42009 0.01911 0.36655 0.0
Co165 Co 0.89321 0.86164 0.49422 0.0
C166 C 0.89321 0.86842 0.71282 0.0
C167 C 0.84434 0.86815 0.65332 0.0
C168 C 0.84235 0.86708 0.75499 0.0
N169 N 0.87628 0.86975 0.62654 0.0
N170 N 0.87318 0.86697 0.79227 0.0
H171 H 0.91956 0.86632 0.7179 0.0
H172 H 0.82389 0.86554 0.60248 0.0
C173 C 0.83959 0.91214 0.45841 0.0
O174 O 0.84776 0.92884 0.53763 0.0
N175 N 0.90966 0.85283 0.36315 0.0
C176 C 0.94138 0.85125 0.33513 0.0
C177 C 0.94251 0.85005 0.23321 0.0
C178 C 0.89196 0.85211 0.27863 0.0
N179 N 0.91137 0.85092 0.19773 0.0
C180 C 0.94948 0.89821 0.56083 0.0
C181 C 0.93944 0.95179 0.44062 0.0
C182 C 0.96626 0.95187 0.50618 0.0
C183 C 0.97133 0.92444 0.56611 0.0
C184 C 0.91811 0.92512 0.43815 0.0
N185 N 0.92235 0.89933 0.50099 0.0
H186 H 0.95512 0.87656 0.60261 0.0
H187 H 0.89881 0.92504 0.38324 0.0
H188 H 0.96224 0.8526 0.38495 0.0
H189 H 0.86543 0.85315 0.27644 0.0
O190 O 0.92165 0.82792 0.54923 0.0
O191 O 0.87053 0.82088 0.49506 0.0
O192 O 0.85613 0.88715 0.43286 0.0
C193 C 0.89644 0.80859 0.53737 0.0
H194 H 0.82003 0.86425 0.79764 0.0
H195 H 0.96462 0.85036 0.18882 0.0
H196 H 0.93493 0.97216 0.39142 0.0
H197 H 0.99255 0.92284 0.61468 0.0
Co198 Co 0.15785 0.39498 0.79948 0.0
C199 C 0.15257 0.39394 1.01816 0.0
C200 C 0.15895 0.34602 0.95936 0.0
C201 C 0.16003 0.34417 0.06115 0.0
N202 N 0.15353 0.37719 0.93223 0.0
N203 N 0.1561 0.37442 0.09804 0.0
H204 H 0.15219 0.4201 0.02265 0.0
H205 H 0.16354 0.32619 0.90876 0.0
C206 C 0.1136 0.3361 0.7667 0.0
O207 O 0.09614 0.34271 0.84577 0.0
N208 N 0.16286 0.41253 0.66781 0.0
C209 C 0.16017 0.44396 0.64052 0.0
C210 C 0.16084 0.44564 0.53865 0.0
C211 C 0.1656 0.3956 0.58286 0.0
N212 N 0.16405 0.41516 0.5025 0.0
C213 C 0.11265 0.44432 0.86857 0.0
C214 C 0.06046 0.42655 0.74863 0.0
C215 C 0.05645 0.45318 0.81231 0.0
C216 C 0.08323 0.46205 0.87257 0.0
C217 C 0.09035 0.40982 0.74618 0.0
N218 N 0.11562 0.4177 0.80885 0.0
H219 H 0.13351 0.45308 0.91015 0.0
H220 H 0.09331 0.39132 0.69054 0.0
H221 H 0.1567 0.46407 0.69097 0.0
H222 H 0.16725 0.3694 0.57981 0.0
O223 O 0.18791 0.42794 0.85182 0.0
O224 O 0.2023 0.3793 0.79596 0.0
O225 O 0.13716 0.35479 0.74044 0.0
C226 C 0.21119 0.40676 0.83526 0.0
H227 H 0.16441 0.32235 0.1042 0.0
H228 H 0.15847 0.46759 0.49476 0.0
H229 H 0.04088 0.41891 0.69929 0.0
H230 H 0.08205 0.48337 0.91946 0.0
Co231 Co 0.63125 0.64947 0.045 0.0
C232 C 0.63157 0.64601 0.26413 0.0
C233 C 0.68021 0.64203 0.20532 0.0
C234 C 0.68243 0.64321 0.30691 0.0
N235 N 0.64819 0.64289 0.17827 0.0
N236 N 0.65176 0.64589 0.34365 0.0
H237 H 0.60548 0.65027 0.2688 0.0
H238 H 0.70081 0.64273 0.15502 0.0
C239 C 0.68628 0.60021 1.00791 0.0
O240 O 0.67541 0.58041 0.07693 0.0
N241 N 0.61499 0.65676 0.91276 0.0
C242 C 0.58331 0.65889 0.88381 0.0
C243 C 0.58234 0.66043 0.78195 0.0
C244 C 0.63283 0.65726 0.829 0.0
N245 N 0.61351 0.65916 0.74774 0.0
C246 C 0.57905 0.60803 0.11427 0.0
C247 C 0.58766 0.55874 0.97804 0.0
C248 C 0.56186 0.55615 0.04633 0.0
C249 C 0.55773 0.58133 0.11491 0.0
C250 C 0.60868 0.5858 0.98064 0.0
N251 N 0.60495 0.60962 0.05037 0.0
H252 H 0.57348 0.62815 0.162 0.0
H253 H 0.62717 0.58808 0.92394 0.0
H254 H 0.5624 0.65803 0.93306 0.0
H255 H 0.65939 0.65566 0.82743 0.0
O256 O 0.59939 0.68056 0.09608 0.0
O257 O 0.64982 0.69266 0.04615 0.0
O258 O 0.67087 0.62658 0.98784 0.0
C259 C 0.62207 0.7026 0.08303 0.0
H260 H 0.70495 0.64405 0.34987 0.0
H261 H 0.56032 0.66088 0.73662 0.0
H262 H 0.59145 0.54018 0.92243 0.0
H263 H 0.5373 0.58111 0.1662 0.0
C264 C 0.5258 0.51648 0.95385 0.0
C265 C 0.53847 0.52818 0.04403 0.0
H266 H 0.49392 0.48224 0.88164 0.0
C267 C 0.52799 0.51349 0.13253 0.0
H268 H 0.53309 0.52748 0.88442 0.0
C269 C 0.50548 0.48769 0.13097 0.0
C270 C 0.49265 0.47608 0.04091 0.0
H271 H 0.53741 0.52179 0.2032 0.0
H272 H 0.49785 0.47701 0.20054 0.0
C273 C 0.50304 0.49082 0.95233 0.0
C274 C 0.47129 0.98946 0.2586 0.0
C275 C 0.4764 0.02338 0.25635 0.0
H276 H 0.49334 0.942 0.26299 0.0
C277 C 0.50882 0.03525 0.25379 0.0
H278 H 0.4466 0.9795 0.25915 0.0
C279 C 0.5355 0.01379 0.25549 0.0
C280 C 0.53045 0.9799 0.25952 0.0
H281 H 0.51363 0.06119 0.25245 0.0
H282 H 0.56018 0.02379 0.25355 0.0
C283 C 0.49804 0.96795 0.25979 0.0
C284 C 1.00064 0.99188 0.60168 0.0
C285 C 0.98923 0.98002 0.51027 0.0
H286 H 0.02997 0.02746 0.67721 0.0
C287 C 0.99967 0.99544 0.4229 0.0
H288 H 0.99287 0.98066 0.67031 0.0
C289 C 0.02082 0.02226 0.42686 0.0
C290 C 0.03191 0.03439 0.51831 0.0
H291 H 0.99161 0.98666 0.35127 0.0
H292 H 0.02798 0.03389 0.35827 0.0
C293 C 0.02165 0.01884 0.60567 0.0
C294 C 0.01321 0.48779 0.89606 0.0
C295 C 0.02561 0.47304 0.80988 0.0
H296 H 0.9776 0.52033 0.95845 0.0
C297 C 1.00893 0.47841 0.7199 0.0
H298 H 0.02508 0.48386 0.96695 0.0
C299 C 0.98137 0.49867 0.71555 0.0
C300 C 0.96984 0.51457 0.80069 0.0
H301 H 0.01778 0.46794 0.65156 0.0
H302 H 0.96956 0.50256 0.64452 0.0
C303 C 0.98565 0.50833 0.89152 0.0
C304 C 0.36671 0.3653 0.50205 0.0
C305 C 0.38782 0.35502 0.42626 0.0
H306 H 0.35967 0.37165 0.6573 0.0
C307 C 0.41853 0.34156 0.45203 0.0
H308 H 0.34306 0.37606 0.48459 0.0
C309 C 0.42805 0.33883 0.55117 0.0
C310 C 0.40712 0.34949 0.62707 0.0
H311 H 0.43511 0.3327 0.39572 0.0
H312 H 0.45172 0.3281 0.56829 0.0
C313 C 0.37625 0.36265 0.60122 0.0
C314 C 0.6437 0.9236 0.78791 0.0
C315 C 0.66123 0.90536 0.85856 0.0
H316 H 0.62779 0.92779 0.63768 0.0
C317 C 0.67714 0.87668 0.82835 0.0
H318 H 0.63063 0.94546 0.80904 0.0
C319 C 0.67567 0.86656 0.72968 0.0
C320 C 0.65811 0.88481 0.65882 0.0
H321 H 0.69113 0.86226 0.88077 0.0
H322 H 0.68877 0.8447 0.70893 0.0
C323 C 0.64205 0.91341 0.68946 0.0
C324 C 0.1488 0.17389 0.99634 0.0
C325 C 0.12782 0.15939 0.92594 0.0
H326 H 0.15543 0.18911 0.14652 0.0
C327 C 0.09655 0.14875 0.95668 0.0
H328 H 0.17283 0.18285 0.9754 0.0
C329 C 0.0865 0.15249 0.05486 0.0
C330 C 0.10747 0.1669 0.12534 0.0
H331 H 0.07992 0.13699 0.90519 0.0
H332 H 0.06253 0.14336 0.0758 0.0
C333 C 0.13875 0.17758 0.0947 0.0
C334 C 0.89738 0.65599 0.24911 0.0
C335 C 0.87972 0.64064 0.17289 0.0
H336 H 0.90239 0.66402 0.40434 0.0
C337 C 0.85269 0.62085 0.19752 0.0
H338 H 0.91804 0.67169 0.23222 0.0
C339 C 0.84387 0.61608 0.29628 0.0
C340 C 0.86178 0.63107 0.37288 0.0
H341 H 0.83889 0.60822 0.14067 0.0
H342 H 0.8235 0.59997 0.31255 0.0
C343 C 0.88844 0.65141 0.3479 0.0
C344 C 0.36243 0.13746 0.83104 0.0
C345 C 0.3483 0.10723 0.85611 0.0
H346 H 0.37728 0.16992 0.71531 0.0
C347 C 0.33759 0.08665 0.77944 0.0
H348 H 0.37153 0.15377 0.88765 0.0
C349 C 0.34113 0.0959 0.68043 0.0
C350 C 0.35544 0.12601 0.65553 0.0
H351 H 0.32617 0.06346 0.79585 0.0
H352 H 0.33214 0.07963 0.62353 0.0
C353 C 0.36588 0.14673 0.73204 0.0
C354 C 0.92169 0.84294 1.01876 0.0
C355 C 0.90125 0.85397 0.09543 0.0
H356 H 0.92871 0.83791 0.86288 0.0
C357 C 0.87123 0.86905 0.07019 0.0
H358 H 0.94472 0.83083 0.03526 0.0
C359 C 0.86204 0.87318 0.97112 0.0
C360 C 0.88265 0.86248 0.89454 0.0
H361 H 0.85507 0.87842 0.12674 0.0
H362 H 0.83905 0.88537 0.95444 0.0
C363 C 0.91253 0.84714 0.91965 0.0
C364 C 0.17699 0.37562 0.36978 0.0
C365 C 0.16267 0.40513 0.40014 0.0
H366 H 0.18659 0.3429 0.25039 0.0
C367 C 0.14608 0.4242 0.32932 0.0
H368 H 0.19026 0.3605 0.42203 0.0
C369 C 0.14378 0.41402 0.23089 0.0
C370 C 0.15814 0.38454 0.20032 0.0
H371 H 0.13418 0.44671 0.35019 0.0
H372 H 0.13028 0.42909 0.17906 0.0
C373 C 0.17479 0.36547 0.27116 0.0
C374 C 0.65305 0.64062 0.62085 0.0
C375 C 0.62379 0.65692 0.64599 0.0
H376 H 0.68459 0.62398 0.50504 0.0
C377 C 0.6043 0.67018 0.56992 0.0
H378 H 0.66841 0.62963 0.6773 0.0
C379 C 0.61361 0.66689 0.47104 0.0
C380 C 0.6426 0.65015 0.4458 0.0
H381 H 0.58193 0.68331 0.58685 0.0
H382 H 0.59818 0.67777 0.41459 0.0
C383 C 0.66234 0.6373 0.52196 0.0
C384 C 0.25411 0.43092 0.94854 0.0
C385 C 0.24581 0.41157 0.86645 0.0
H386 H 0.29142 0.44364 0.05493 0.0
C387 C 0.27053 0.39311 0.82091 0.0
H388 H 0.23545 0.44525 0.9854 0.0
C389 C 0.30235 0.39231 0.85988 0.0
C390 C 0.31031 0.40966 0.94632 0.0
H391 H 0.26496 0.37818 0.75696 0.0
H392 H 0.3203 0.37682 0.82438 0.0
C393 C 0.28613 0.4299 0.98843 0.0
C394 C 0.59197 0.77802 0.21816 0.0
C395 C 0.61453 0.80168 0.18525 0.0
H396 H 0.57637 0.72803 0.21084 0.0
C397 C 0.6377 0.7928 0.11296 0.0
H398 H 0.57382 0.78398 0.27373 0.0
C399 C 0.63936 0.76087 0.07805 0.0
C400 C 0.61764 0.73697 0.11334 0.0
H401 H 0.65549 0.81023 0.08552 0.0
H402 H 0.65818 0.75476 0.02461 0.0
C403 C 0.59339 0.74599 0.18208 0.0
C404 C 0.25903 0.08297 0.40952 0.0
C405 C 0.26728 0.10527 0.33444 0.0
H406 H 0.22303 0.06824 0.51684 0.0
C407 C 0.24378 0.12815 0.30375 0.0
H408 H 0.27683 0.06518 0.43509 0.0
C409 C 0.21332 0.12995 0.35019 0.0
C410 C 0.20544 0.10896 0.42897 0.0
H411 H 0.24933 0.14556 0.24582 0.0
H412 H 0.19649 0.14876 0.32622 0.0
C413 C 0.22831 0.08483 0.45658 0.0
C414 C 0.86051 0.7327 0.64936 0.0
C415 C 0.88855 0.71522 0.67859 0.0
H416 H 0.84122 0.77523 0.58026 0.0
C417 C 0.9199 0.72824 0.65892 0.0
H418 H 0.83601 0.72316 0.66237 0.0
C419 C 0.92296 0.7587 0.61233 0.0
C420 C 0.89469 0.7759 0.58249 0.0
H421 H 0.94191 0.71508 0.68039 0.0
H422 H 0.94725 0.76867 0.59928 0.0
C423 C 0.86353 0.76245 0.60116 0.0
C424 C 0.80202 0.90219 0.3156 0.0
C425 C 0.80818 0.91829 0.40555 0.0
H426 H 0.76615 0.88691 0.20922 0.0
C427 C 0.78254 0.9361 0.44947 0.0
H428 H 0.82126 0.88884 0.27855 0.0
C429 C 0.75078 0.93545 0.40821 0.0
C430 C 0.74432 0.91674 0.32327 0.0
H431 H 0.78647 0.94877 0.51873 0.0
H432 H 0.73092 0.94765 0.44649 0.0
C433 C 0.77042 0.90114 0.27552 0.0
C434 C 0.12444 0.27036 0.57443 0.0
C435 C 0.10378 0.2456 0.60951 0.0
H436 H 0.14336 0.31811 0.59526 0.0
C437 C 0.08351 0.25185 0.69141 0.0
H438 H 0.14021 0.26631 0.51115 0.0
C439 C 0.08551 0.28183 0.74096 0.0
C440 C 0.10769 0.30595 0.70886 0.0
H441 H 0.06754 0.23301 0.72041 0.0
H442 H 0.07074 0.28555 0.8065 0.0
C443 C 0.12628 0.30015 0.62313 0.0
C444 C 0.73571 0.56473 0.96854 0.0
C445 C 0.71854 0.59443 0.95926 0.0
H446 H 0.78014 0.53812 0.93546 0.0
C447 C 0.73321 0.61988 0.90556 0.0
H448 H 0.72505 0.54461 1.00922 0.0
C449 C 0.7645 0.61634 0.86541 0.0
C450 C 0.78206 0.58706 0.87598 0.0
H451 H 0.72091 0.64311 0.89646 0.0
H452 H 0.77506 0.63685 0.82616 0.0
C453 C 0.76714 0.56096 0.92622 0.0
C454 C 0.38741 0.2446 0.05522 0.0
C455 C 0.40955 0.2677 0.09301 0.0
H456 H 0.36822 0.19644 0.06456 0.0
C457 C 0.43189 0.25816 0.16735 0.0
H458 H 0.37005 0.25112 0.99744 0.0
C459 C 0.43072 0.22652 0.20697 0.0
C460 C 0.40734 0.20388 0.1723 0.0
H461 H 0.44916 0.27555 0.19816 0.0
H462 H 0.44722 0.22025 0.26716 0.0
C463 C 0.38642 0.21311 0.0939 0.0
loop_
_geom_bond_atom_site_label_1
_geom_bond_atom_site_label_2
_geom_bond_distance
_geom_bond_site_symmetry_2
_ccdc_geom_bond_type
Co0 N4 2.148 . S
Co0 N10 2.128 1_554 S
Co0 N20 2.194 . S
Co0 O25 2.351 . S
Co0 O26 2.155 . S
Co0 O27 2.096 1_554 S
C1 N4 1.301 . S
C1 N5 1.328 . S
C1 H6 0.930 . S
C2 C3 1.333 . S
C2 N4 1.317 . S
C2 H7 0.930 . S
C3 C2 1.333 . S
C3 N5 1.350 . S
C3 H29 0.931 . S
N4 Co0 2.148 . S
N4 C1 1.301 . S
N4 C2 1.317 . S
N5 C1 1.328 . S
N5 C3 1.350 . S
H6 C1 0.930 . S
H7 C2 0.930 . S
C8 O9 1.224 . S
C8 O27 1.247 . S
O9 C8 1.224 . S
N10 Co0 2.128 1_556 S
N10 C11 1.355 . S
N10 C13 1.311 . S
C11 N10 1.355 . S
C11 C12 1.363 . S
C11 H23 0.929 . S
C12 C11 1.363 . S
C12 N14 1.375 . S
C12 H30 0.931 . S
C13 N10 1.311 . S
C13 N14 1.347 . S
C13 H24 0.929 . S
N14 C12 1.375 . S
N14 C13 1.347 . S
C15 C18 1.365 . S
C15 N20 1.328 . S
C15 H21 0.929 . S
C16 C17 1.362 1_556 S
C16 C19 1.378 . S
C16 H31 0.929 . S
C17 C16 1.362 1_554 S
C17 C18 1.366 . S
C18 C15 1.365 . S
C18 C17 1.366 . S
C18 H32 0.930 . S
C19 C16 1.378 . S
C19 N20 1.315 1_556 S
C19 H22 0.930 . S
N20 Co0 2.194 . S
N20 C15 1.328 . S
N20 C19 1.315 1_554 S
H21 C15 0.929 . S
H22 C19 0.930 . S
H23 C11 0.929 . S
H24 C13 0.929 . S
O25 Co0 2.351 . S
O25 C28 1.244 . S
O26 Co0 2.155 . S
O26 C28 1.240 . S
O27 Co0 2.096 1_556 S
O27 C8 1.247 . S
C28 O25 1.244 . S
C28 O26 1.240 . S
H29 C3 0.931 . S
H30 C12 0.931 . S
H31 C16 0.929 . S
H32 C18 0.930 . S
Co33 N37 2.148 . S
Co33 N43 2.128 . S
Co33 N53 2.194 . S
Co33 O58 2.351 . S
Co33 O59 2.155 . S
Co33 O60 2.096 . S
C34 N37 1.301 . S
C34 N38 1.328 . S
C34 H39 0.930 . S
C35 C36 1.333 . S
C35 N37 1.317 . S
C35 H40 0.930 . S
C36 C35 1.333 . S
C36 N38 1.350 . S
C36 H62 0.931 . S
N37 Co33 2.148 . S
N37 C34 1.301 . S
N37 C35 1.317 . S
N38 C34 1.328 . S
N38 C36 1.350 . S
H39 C34 0.930 . S
H40 C35 0.930 . S
C41 O42 1.224 . S
C41 O60 1.247 . S
O42 C41 1.224 . S
N43 Co33 2.128 . S
N43 C44 1.355 . S
N43 C46 1.311 . S
C44 N43 1.355 . S
C44 C45 1.363 1_554 S
C44 H56 0.929 . S
C45 C44 1.363 1_556 S
C45 N47 1.375 . S
C45 H63 0.931 . S
C46 N43 1.311 . S
C46 N47 1.347 1_554 S
C46 H57 0.929 . S
N47 C45 1.375 . S
N47 C46 1.347 1_556 S
C48 C51 1.365 . S
C48 N53 1.328 . S
C48 H54 0.929 . S
C49 C50 1.362 . S
C49 C52 1.378 . S
C49 H64 0.929 . S
C50 C49 1.362 . S
C50 C51 1.366 . S
C51 C48 1.365 . S
C51 C50 1.366 . S
C51 H65 0.930 . S
C52 C49 1.378 . S
C52 N53 1.315 . S
C52 H55 0.930 . S
N53 Co33 2.194 . S
N53 C48 1.328 . S
N53 C52 1.315 . S
H54 C48 0.929 . S
H55 C52 0.930 . S
H56 C44 0.929 . S
H57 C46 0.929 . S
O58 Co33 2.351 . S
O58 C61 1.244 . S
O59 Co33 2.155 . S
O59 C61 1.240 . S
O60 Co33 2.096 . S
O60 C41 1.247 . S
C61 O58 1.244 . S
C61 O59 1.240 . S
H62 C36 0.931 . S
H63 C45 0.931 . S
H64 C49 0.929 . S
H65 C51 0.930 . S
Co66 N70 2.148 . S
Co66 N76 2.128 . S
Co66 N86 2.194 . S
Co66 O91 2.351 . S
Co66 O92 2.155 . S
Co66 O93 2.096 . S
C67 N70 1.301 . S
C67 N71 1.328 . S
C67 H72 0.930 . S
C68 C69 1.333 . S
C68 N70 1.317 . S
C68 H73 0.930 . S
C69 C68 1.333 . S
C69 N71 1.350 . S
C69 H95 0.931 . S
N70 Co66 2.148 . S
N70 C67 1.301 . S
N70 C68 1.317 . S
N71 C67 1.328 . S
N71 C69 1.350 . S
H72 C67 0.930 . S
H73 C68 0.930 . S
C74 O75 1.224 . S
C74 O93 1.247 . S
O75 C74 1.224 . S
N76 Co66 2.128 . S
N76 C77 1.355 . S
N76 C79 1.311 . S
C77 N76 1.355 . S
C77 C78 1.363 . S
C77 H89 0.929 . S
C78 C77 1.363 . S
C78 N80 1.375 . S
C78 H96 0.931 . S
C79 N76 1.311 . S
C79 N80 1.347 . S
C79 H90 0.929 . S
N80 C78 1.375 . S
N80 C79 1.347 . S
C81 C84 1.365 . S
C81 N86 1.328 . S
C81 H87 0.929 . S
C82 C83 1.362 . S
C82 C85 1.378 . S
C82 H97 0.929 . S
C83 C82 1.362 . S
C83 C84 1.366 . S
C84 C81 1.365 . S
C84 C83 1.366 . S
C84 H98 0.930 . S
C85 C82 1.378 . S
C85 N86 1.315 . S
C85 H88 0.930 . S
N86 Co66 2.194 . S
N86 C81 1.328 . S
N86 C85 1.315 . S
H87 C81 0.929 . S
H88 C85 0.930 . S
H89 C77 0.929 . S
H90 C79 0.929 . S
O91 Co66 2.351 . S
O91 C94 1.244 . S
O92 Co66 2.155 . S
O92 C94 1.240 . S
O93 Co66 2.096 . S
O93 C74 1.247 . S
C94 O91 1.244 . S
C94 O92 1.240 . S
H95 C69 0.931 . S
H96 C78 0.931 . S
H97 C82 0.929 . S
H98 C84 0.930 . S
Co99 N103 2.148 . S
Co99 N109 2.128 . S
Co99 N119 2.194 . S
Co99 O124 2.351 . S
Co99 O125 2.155 . S
Co99 O126 2.096 . S
C100 N103 1.301 . S
C100 N104 1.328 . S
C100 H105 0.930 . S
C101 C102 1.333 . S
C101 N103 1.317 . S
C101 H106 0.930 . S
C102 C101 1.333 . S
C102 N104 1.350 . S
C102 H128 0.931 . S
N103 Co99 2.148 . S
N103 C100 1.301 . S
N103 C101 1.317 . S
N104 C100 1.328 . S
N104 C102 1.350 . S
H105 C100 0.930 . S
H106 C101 0.930 . S
C107 O108 1.224 . S
C107 O126 1.247 . S
O108 C107 1.224 . S
N109 Co99 2.128 . S
N109 C110 1.355 . S
N109 C112 1.311 . S
C110 N109 1.355 . S
C110 C111 1.363 1_556 S
C110 H122 0.929 . S
C111 C110 1.363 1_554 S
C111 N113 1.375 . S
C111 H129 0.931 . S
C112 N109 1.311 . S
C112 N113 1.347 1_556 S
C112 H123 0.929 . S
N113 C111 1.375 . S
N113 C112 1.347 1_554 S
C114 C117 1.365 . S
C114 N119 1.328 . S
C114 H120 0.929 . S
C115 C116 1.362 . S
C115 C118 1.378 . S
C115 H130 0.929 . S
C116 C115 1.362 . S
C116 C117 1.366 . S
C117 C114 1.365 . S
C117 C116 1.366 . S
C117 H131 0.930 . S
C118 C115 1.378 . S
C118 N119 1.315 . S
C118 H121 0.930 . S
N119 Co99 2.194 . S
N119 C114 1.328 . S
N119 C118 1.315 . S
H120 C114 0.929 . S
H121 C118 0.930 . S
H122 C110 0.929 . S
H123 C112 0.929 . S
O124 Co99 2.351 . S
O124 C127 1.244 . S
O125 Co99 2.155 . S
O125 C127 1.240 . S
O126 Co99 2.096 . S
O126 C107 1.247 . S
C127 O124 1.244 . S
C127 O125 1.240 . S
H128 C102 0.931 . S
H129 C111 0.931 . S
H130 C115 0.929 . S
H131 C117 0.930 . S
Co132 N136 2.148 . S
Co132 N142 2.128 . S
Co132 N152 2.194 . S
Co132 O157 2.351 . S
Co132 O158 2.155 . S
Co132 O159 2.096 . S
C133 N136 1.301 . S
C133 N137 1.328 . S
C133 H138 0.930 . S
C134 C135 1.333 . S
C134 N136 1.317 . S
C134 H139 0.930 . S
C135 C134 1.333 . S
C135 N137 1.350 . S
C135 H161 0.931 . S
N136 Co132 2.148 . S
N136 C133 1.301 . S
N136 C134 1.317 . S
N137 C133 1.328 . S
N137 C135 1.350 . S
H138 C133 0.930 . S
H139 C134 0.930 . S
C140 O141 1.224 . S
C140 O159 1.247 . S
O141 C140 1.224 . S
N142 Co132 2.128 . S
N142 C143 1.355 . S
N142 C145 1.311 . S
C143 N142 1.355 . S
C143 C144 1.363 1_554 S
C143 H155 0.929 . S
C144 C143 1.363 1_556 S
C144 N146 1.375 . S
C144 H162 0.931 . S
C145 N142 1.311 . S
C145 N146 1.347 1_554 S
C145 H156 0.929 . S
N146 C144 1.375 . S
N146 C145 1.347 1_556 S
C147 C150 1.365 . S
C147 N152 1.328 . S
C147 H153 0.929 . S
C148 C149 1.362 . S
C148 C151 1.378 . S
C148 H163 0.929 . S
C149 C148 1.362 . S
C149 C150 1.366 . S
C150 C147 1.365 . S
C150 C149 1.366 . S
C150 H164 0.930 . S
C151 C148 1.378 . S
C151 N152 1.315 . S
C151 H154 0.930 . S
N152 Co132 2.194 . S
N152 C147 1.328 . S
N152 C151 1.315 . S
H153 C147 0.929 . S
H154 C151 0.930 . S
H155 C143 0.929 . S
H156 C145 0.929 . S
O157 Co132 2.351 . S
O157 C160 1.244 . S
O158 Co132 2.155 . S
O158 C160 1.240 . S
O159 Co132 2.096 . S
O159 C140 1.247 . S
C160 O157 1.244 . S
C160 O158 1.240 . S
H161 C135 0.931 . S
H162 C144 0.931 . S
H163 C148 0.929 . S
H164 C150 0.930 . S
Co165 N169 2.148 . S
Co165 N175 2.128 . S
Co165 N185 2.194 . S
Co165 O190 2.351 . S
Co165 O191 2.155 . S
Co165 O192 2.096 . S
C166 N169 1.301 . S
C166 N170 1.328 . S
C166 H171 0.930 . S
C167 C168 1.333 . S
C167 N169 1.317 . S
C167 H172 0.930 . S
C168 C167 1.333 . S
C168 N170 1.350 . S
C168 H194 0.931 . S
N169 Co165 2.148 . S
N169 C166 1.301 . S
N169 C167 1.317 . S
N170 C166 1.328 . S
N170 C168 1.350 . S
H171 C166 0.930 . S
H172 C167 0.930 . S
C173 O174 1.224 . S
C173 O192 1.247 . S
O174 C173 1.224 . S
N175 Co165 2.128 . S
N175 C176 1.355 . S
N175 C178 1.311 . S
C176 N175 1.355 . S
C176 C177 1.363 . S
C176 H188 0.929 . S
C177 C176 1.363 . S
C177 N179 1.375 . S
C177 H195 0.931 . S
C178 N175 1.311 . S
C178 N179 1.347 . S
C178 H189 0.929 . S
N179 C177 1.375 . S
N179 C178 1.347 . S
C180 C183 1.365 . S
C180 N185 1.328 . S
C180 H186 0.929 . S
C181 C182 1.362 . S
C181 C184 1.378 . S
C181 H196 0.929 . S
C182 C181 1.362 . S
C182 C183 1.366 . S
C183 C180 1.365 . S
C183 C182 1.366 . S
C183 H197 0.930 . S
C184 C181 1.378 . S
C184 N185 1.315 . S
C184 H187 0.930 . S
N185 Co165 2.194 . S
N185 C180 1.328 . S
N185 C184 1.315 . S
H186 C180 0.929 . S
H187 C184 0.930 . S
H188 C176 0.929 . S
H189 C178 0.929 . S
O190 Co165 2.351 . S
O190 C193 1.244 . S
O191 Co165 2.155 . S
O191 C193 1.240 . S
O192 Co165 2.096 . S
O192 C173 1.247 . S
C193 O190 1.244 . S
C193 O191 1.240 . S
H194 C168 0.931 . S
H195 C177 0.931 . S
H196 C181 0.929 . S
H197 C183 0.930 . S
Co198 N202 2.148 . S
Co198 N208 2.128 . S
Co198 N218 2.194 . S
Co198 O223 2.351 . S
Co198 O224 2.155 . S
Co198 O225 2.096 . S
C199 N202 1.301 . S
C199 N203 1.328 1_556 S
C199 H204 0.930 . S
C200 C201 1.333 1_556 S
C200 N202 1.317 . S
C200 H205 0.930 . S
C201 C200 1.333 1_554 S
C201 N203 1.350 . S
C201 H227 0.931 . S
N202 Co198 2.148 . S
N202 C199 1.301 . S
N202 C200 1.317 . S
N203 C199 1.328 1_554 S
N203 C201 1.350 . S
H204 C199 0.930 . S
H205 C200 0.930 . S
C206 O207 1.224 . S
C206 O225 1.247 . S
O207 C206 1.224 . S
N208 Co198 2.128 . S
N208 C209 1.355 . S
N208 C211 1.311 . S
C209 N208 1.355 . S
C209 C210 1.363 . S
C209 H221 0.929 . S
C210 C209 1.363 . S
C210 N212 1.375 . S
C210 H228 0.931 . S
C211 N208 1.311 . S
C211 N212 1.347 . S
C211 H222 0.929 . S
N212 C210 1.375 . S
N212 C211 1.347 . S
C213 C216 1.365 . S
C213 N218 1.328 . S
C213 H219 0.929 . S
C214 C215 1.362 . S
C214 C217 1.378 . S
C214 H229 0.929 . S
C215 C214 1.362 . S
C215 C216 1.366 . S
C216 C213 1.365 . S
C216 C215 1.366 . S
C216 H230 0.930 . S
C217 C214 1.378 . S
C217 N218 1.315 . S
C217 H220 0.930 . S
N218 Co198 2.194 . S
N218 C213 1.328 . S
N218 C217 1.315 . S
H219 C213 0.929 . S
H220 C217 0.930 . S
H221 C209 0.929 . S
H222 C211 0.929 . S
O223 Co198 2.351 . S
O223 C226 1.244 . S
O224 Co198 2.155 . S
O224 C226 1.240 . S
O225 Co198 2.096 . S
O225 C206 1.247 . S
C226 O223 1.244 . S
C226 O224 1.240 . S
H227 C201 0.931 . S
H228 C210 0.931 . S
H229 C214 0.929 . S
H230 C216 0.930 . S
Co231 N235 2.148 . S
Co231 N241 2.128 1_554 S
Co231 N251 2.194 . S
Co231 O256 2.351 . S
Co231 O257 2.155 . S
Co231 O258 2.096 1_554 S
C232 N235 1.301 . S
C232 N236 1.328 . S
C232 H237 0.930 . S
C233 C234 1.333 . S
C233 N235 1.317 . S
C233 H238 0.930 . S
C234 C233 1.333 . S
C234 N236 1.350 . S
C234 H260 0.931 . S
N235 Co231 2.148 . S
N235 C232 1.301 . S
N235 C233 1.317 . S
N236 C232 1.328 . S
N236 C234 1.350 . S
H237 C232 0.930 . S
H238 C233 0.930 . S
C239 O240 1.224 . S
C239 O258 1.247 . S
O240 C239 1.224 . S
N241 Co231 2.128 1_556 S
N241 C242 1.355 . S
N241 C244 1.311 . S
C242 N241 1.355 . S
C242 C243 1.363 . S
C242 H254 0.929 . S
C243 C242 1.363 . S
C243 N245 1.375 . S
C243 H261 0.931 . S
C244 N241 1.311 . S
C244 N245 1.347 . S
C244 H255 0.929 . S
N245 C243 1.375 . S
N245 C244 1.347 . S
C246 C249 1.365 . S
C246 N251 1.328 . S
C246 H252 0.929 . S
C247 C248 1.362 1_556 S
C247 C250 1.378 . S
C247 H262 0.929 . S
C248 C247 1.362 1_554 S
C248 C249 1.366 . S
C249 C246 1.365 . S
C249 C248 1.366 . S
C249 H263 0.930 . S
C250 C247 1.378 . S
C250 N251 1.315 1_556 S
C250 H253 0.930 . S
N251 Co231 2.194 . S
N251 C246 1.328 . S
N251 C250 1.315 1_554 S
H252 C246 0.929 . S
H253 C250 0.930 . S
H254 C242 0.929 . S
H255 C244 0.929 . S
O256 Co231 2.351 . S
O256 C259 1.244 . S
O257 Co231 2.155 . S
O257 C259 1.240 . S
O258 Co231 2.096 1_556 S
O258 C239 1.247 . S
C259 O256 1.244 . S
C259 O257 1.240 . S
H260 C234 0.931 . S
H261 C243 0.931 . S
H262 C247 0.929 . S
H263 C249 0.930 . S
C264 C265 1.387 1_556 S
C264 H268 0.950 . S
C264 C273 1.390 . S
C265 C264 1.387 1_554 S
C265 C267 1.387 . S
H266 C273 0.950 . S
C267 C265 1.387 . S
C267 C269 1.390 . S
C267 H271 0.950 . S
H268 C264 0.950 . S
C269 C267 1.390 . S
C269 C270 1.387 . S
C269 H272 0.950 . S
C270 C269 1.387 . S
C270 C273 1.387 1_554 S
H271 C267 0.950 . S
H272 C269 0.950 . S
C273 C264 1.390 . S
C273 H266 0.950 . S
C273 C270 1.387 1_556 S
C274 C275 1.387 1_565 S
C274 H278 0.950 . S
C274 C283 1.390 . S
C275 C274 1.387 1_545 S
C275 C277 1.387 . S
H276 C283 0.950 . S
C277 C275 1.387 . S
C277 C279 1.390 . S
C277 H281 0.950 . S
H278 C274 0.950 . S
C279 C277 1.390 . S
C279 C280 1.387 1_545 S
C279 H282 0.950 . S
C280 C279 1.387 1_565 S
C280 C283 1.387 . S
H281 C277 0.950 . S
H282 C279 0.950 . S
C283 C274 1.390 . S
C283 H276 0.950 . S
C283 C280 1.387 . S
C284 C285 1.387 . S
C284 H288 0.950 . S
C284 C293 1.390 1_665 S
C285 C284 1.387 . S
C285 C287 1.387 . S
H286 C293 0.950 . S
C287 C285 1.387 . S
C287 C289 1.390 1_665 S
C287 H291 0.950 . S
H288 C284 0.950 . S
C289 C287 1.390 1_445 S
C289 C290 1.387 . S
C289 H292 0.950 . S
C290 C289 1.387 . S
C290 C293 1.387 . S
H291 C287 0.950 . S
H292 C289 0.950 . S
C293 C284 1.390 1_445 S
C293 H286 0.950 . S
C293 C290 1.387 . S
C294 C295 1.387 . S
C294 H298 0.950 . S
C294 C303 1.390 1_455 S
C295 C294 1.387 . S
C295 C297 1.387 . S
H296 C303 0.950 . S
C297 C295 1.387 . S
C297 C299 1.390 1_455 S
C297 H301 0.950 . S
H298 C294 0.950 . S
C299 C297 1.390 1_655 S
C299 C300 1.387 . S
C299 H302 0.950 . S
C300 C299 1.387 . S
C300 C303 1.387 . S
H301 C297 0.950 . S
H302 C299 0.950 . S
C303 C294 1.390 1_655 S
C303 H296 0.950 . S
C303 C300 1.387 . S
C304 C305 1.387 . S
C304 H308 0.950 . S
C304 C313 1.390 . S
C305 C304 1.387 . S
C305 C307 1.387 . S
H306 C313 0.950 . S
C307 C305 1.387 . S
C307 C309 1.390 . S
C307 H311 0.950 . S
H308 C304 0.950 . S
C309 C307 1.390 . S
C309 C310 1.387 . S
C309 H312 0.950 . S
C310 C309 1.387 . S
C310 C313 1.387 . S
H311 C307 0.950 . S
H312 C309 0.950 . S
C313 C304 1.390 . S
C313 H306 0.950 . S
C313 C310 1.387 . S
C314 C315 1.387 . S
C314 H318 0.950 . S
C314 C323 1.390 . S
C315 C314 1.387 . S
C315 C317 1.387 . S
H316 C323 0.950 . S
C317 C315 1.387 . S
C317 C319 1.390 . S
C317 H321 0.950 . S
H318 C314 0.950 . S
C319 C317 1.390 . S
C319 C320 1.387 . S
C319 H322 0.950 . S
C320 C319 1.387 . S
C320 C323 1.387 . S
H321 C317 0.950 . S
H322 C319 0.950 . S
C323 C314 1.390 . S
C323 H316 0.950 . S
C323 C320 1.387 . S
C324 C325 1.387 . S
C324 H328 0.950 . S
C324 C333 1.390 1_556 S
C325 C324 1.387 . S
C325 C327 1.387 . S
H326 C333 0.950 . S
C327 C325 1.387 . S
C327 C329 1.390 1_556 S
C327 H331 0.950 . S
H328 C324 0.950 . S
C329 C327 1.390 1_554 S
C329 C330 1.387 . S
C329 H332 0.950 . S
C330 C329 1.387 . S
C330 C333 1.387 . S
H331 C327 0.950 . S
H332 C329 0.950 . S
C333 C324 1.390 1_554 S
C333 H326 0.950 . S
C333 C330 1.387 . S
C334 C335 1.387 . S
C334 H338 0.950 . S
C334 C343 1.390 . S
C335 C334 1.387 . S
C335 C337 1.387 . S
H336 C343 0.950 . S
C337 C335 1.387 . S
C337 C339 1.390 . S
C337 H341 0.950 . S
H338 C334 0.950 . S
C339 C337 1.390 . S
C339 C340 1.387 . S
C339 H342 0.950 . S
C340 C339 1.387 . S
C340 C343 1.387 . S
H341 C337 0.950 . S
H342 C339 0.950 . S
C343 C334 1.390 . S
C343 H336 0.950 . S
C343 C340 1.387 . S
C344 C345 1.387 . S
C344 H348 0.950 . S
C344 C353 1.390 . S
C345 C344 1.387 . S
C345 C347 1.387 . S
H346 C353 0.950 . S
C347 C345 1.387 . S
C347 C349 1.390 . S
C347 H351 0.950 . S
H348 C344 0.950 . S
C349 C347 1.390 . S
C349 C350 1.387 . S
C349 H352 0.950 . S
C350 C349 1.387 . S
C350 C353 1.387 . S
H351 C347 0.950 . S
H352 C349 0.950 . S
C353 C344 1.390 . S
C353 H346 0.950 . S
C353 C350 1.387 . S
C354 C355 1.387 . S
C354 H358 0.950 . S
C354 C363 1.390 1_554 S
C355 C354 1.387 . S
C355 C357 1.387 . S
H356 C363 0.950 . S
C357 C355 1.387 . S
C357 C359 1.390 1_554 S
C357 H361 0.950 . S
H358 C354 0.950 . S
C359 C357 1.390 1_556 S
C359 C360 1.387 . S
C359 H362 0.950 . S
C360 C359 1.387 . S
C360 C363 1.387 . S
H361 C357 0.950 . S
H362 C359 0.950 . S
C363 C354 1.390 1_556 S
C363 H356 0.950 . S
C363 C360 1.387 . S
C364 C365 1.387 . S
C364 H368 0.950 . S
C364 C373 1.390 . S
C365 C364 1.387 . S
C365 C367 1.387 . S
H366 C373 0.950 . S
C367 C365 1.387 . S
C367 C369 1.390 . S
C367 H371 0.950 . S
H368 C364 0.950 . S
C369 C367 1.390 . S
C369 C370 1.387 . S
C369 H372 0.950 . S
C370 C369 1.387 . S
C370 C373 1.387 . S
H371 C367 0.950 . S
H372 C369 0.950 . S
C373 C364 1.390 . S
C373 H366 0.950 . S
C373 C370 1.387 . S
C374 C375 1.387 . S
C374 H378 0.950 . S
C374 C383 1.390 . S
C375 C374 1.387 . S
C375 C377 1.387 . S
H376 C383 0.950 . S
C377 C375 1.387 . S
C377 C379 1.390 . S
C377 H381 0.950 . S
H378 C374 0.950 . S
C379 C377 1.390 . S
C379 C380 1.387 . S
C379 H382 0.950 . S
C380 C379 1.387 . S
C380 C383 1.387 . S
H381 C377 0.950 . S
H382 C379 0.950 . S
C383 C374 1.390 . S
C383 H376 0.950 . S
C383 C380 1.387 . S
C384 C385 1.387 . S
C384 H388 0.950 . S
C384 C393 1.390 . S
C385 C384 1.387 . S
C385 C387 1.387 . S
H386 C393 0.950 . S
C387 C385 1.387 . S
C387 C389 1.390 . S
C387 H391 0.950 . S
H388 C384 0.950 . S
C389 C387 1.390 . S
C389 C390 1.387 . S
C389 H392 0.950 . S
C390 C389 1.387 . S
C390 C393 1.387 . S
H391 C387 0.950 . S
H392 C389 0.950 . S
C393 C384 1.390 . S
C393 H386 0.950 . S
C393 C390 1.387 . S
C394 C395 1.387 . S
C394 H398 0.950 . S
C394 C403 1.390 . S
C395 C394 1.387 . S
C395 C397 1.387 . S
H396 C403 0.950 . S
C397 C395 1.387 . S
C397 C399 1.390 . S
C397 H401 0.950 . S
H398 C394 0.950 . S
C399 C397 1.390 . S
C399 C400 1.387 . S
C399 H402 0.950 . S
C400 C399 1.387 . S
C400 C403 1.387 . S
H401 C397 0.950 . S
H402 C399 0.950 . S
C403 C394 1.390 . S
C403 H396 0.950 . S
C403 C400 1.387 . S
C404 C405 1.387 . S
C404 H408 0.950 . S
C404 C413 1.390 . S
C405 C404 1.387 . S
C405 C407 1.387 . S
H406 C413 0.950 . S
C407 C405 1.387 . S
C407 C409 1.390 . S
C407 H411 0.950 . S
H408 C404 0.950 . S
C409 C407 1.390 . S
C409 C410 1.387 . S
C409 H412 0.950 . S
C410 C409 1.387 . S
C410 C413 1.387 . S
H411 C407 0.950 . S
H412 C409 0.950 . S
C413 C404 1.390 . S
C413 H406 0.950 . S
C413 C410 1.387 . S
C414 C415 1.387 . S
C414 H418 0.950 . S
C414 C423 1.390 . S
C415 C414 1.387 . S
C415 C417 1.387 . S
H416 C423 0.950 . S
C417 C415 1.387 . S
C417 C419 1.390 . S
C417 H421 0.950 . S
H418 C414 0.950 . S
C419 C417 1.390 . S
C419 C420 1.387 . S
C419 H422 0.950 . S
C420 C419 1.387 . S
C420 C423 1.387 . S
H421 C417 0.950 . S
H422 C419 0.950 . S
C423 C414 1.390 . S
C423 H416 0.950 . S
C423 C420 1.387 . S
C424 C425 1.387 . S
C424 H428 0.950 . S
C424 C433 1.390 . S
C425 C424 1.387 . S
C425 C427 1.387 . S
H426 C433 0.950 . S
C427 C425 1.387 . S
C427 C429 1.390 . S
C427 H431 0.950 . S
H428 C424 0.950 . S
C429 C427 1.390 . S
C429 C430 1.387 . S
C429 H432 0.950 . S
C430 C429 1.387 . S
C430 C433 1.387 . S
H431 C427 0.950 . S
H432 C429 0.950 . S
C433 C424 1.390 . S
C433 H426 0.950 . S
C433 C430 1.387 . S
C434 C435 1.387 . S
C434 H438 0.950 . S
C434 C443 1.390 . S
C435 C434 1.387 . S
C435 C437 1.387 . S
H436 C443 0.950 . S
C437 C435 1.387 . S
C437 C439 1.390 . S
C437 H441 0.950 . S
H438 C434 0.950 . S
C439 C437 1.390 . S
C439 C440 1.387 . S
C439 H442 0.950 . S
C440 C439 1.387 . S
C440 C443 1.387 . S
H441 C437 0.950 . S
H442 C439 0.950 . S
C443 C434 1.390 . S
C443 H436 0.950 . S
C443 C440 1.387 . S
C444 C445 1.387 . S
C444 H448 0.950 . S
C444 C453 1.390 . S
C445 C444 1.387 . S
C445 C447 1.387 . S
H446 C453 0.950 . S
C447 C445 1.387 . S
C447 C449 1.390 . S
C447 H451 0.950 . S
H448 C444 0.950 . S
C449 C447 1.390 . S
C449 C450 1.387 . S
C449 H452 0.950 . S
C450 C449 1.387 . S
C450 C453 1.387 . S
H451 C447 0.950 . S
H452 C449 0.950 . S
C453 C444 1.390 . S
C453 H446 0.950 . S
C453 C450 1.387 . S
C454 C455 1.387 . S
C454 H458 0.950 . S
C454 C463 1.390 . S
C455 C454 1.387 . S
C455 C457 1.387 . S
H456 C463 0.950 . S
C457 C455 1.387 . S
C457 C459 1.390 . S
C457 H461 0.950 . S
H458 C454 0.950 . S
C459 C457 1.390 . S
C459 C460 1.387 . S
C459 H462 0.950 . S
C460 C459 1.387 . S
C460 C463 1.387 . S
H461 C457 0.950 . S
H462 C459 0.950 . S
C463 C454 1.390 . S
C463 H456 0.950 . S
C463 C460 1.387 . S
C265 C248 1.333 . S
C270 C17 1.331 . S
C275 C149 1.322 . S
C280 C50 1.321 . S
C285 C182 1.313 . S
C290 C83 1.311 . S
C295 C215 1.321 . S
C300 C116 1.322 . S
C305 N5 1.468 . S
C310 N14 1.463 . S
C315 N47 1.462 . S
C320 N38 1.468 . S
C325 N71 1.467 . S
C330 N80 1.462 . S
C335 N113 1.463 . S
C340 N104 1.468 . S
C345 N146 1.463 . S
C350 N137 1.468 . S
C355 N179 1.454 . S
C360 N170 1.460 . S
C365 N212 1.463 . S
C370 N203 1.468 . S
C375 N245 1.471 . S
C380 N236 1.476 . S
C385 C226 1.399 . S
C390 C8 1.407 . S
C395 C41 1.422 . S
C400 C259 1.418 . S
C405 C160 1.387 . S
C410 C74 1.395 . S
C415 C127 1.372 . S
C420 C193 1.369 . S
C425 C173 1.367 . S
C430 C61 1.364 . S
C435 C94 1.380 . S
C440 C206 1.387 . S
C445 C239 1.415 . S
C450 C107 1.413 . S
C455 C28 1.391 . S
C460 C140 1.400 . S
