# Generated by pormake.
# Topology wjf, (4)-cn, num edge types: 1
# Building blocks:
#     Node 0, Type 0, BuildingBlock: AZAVOO_clean_sbu_0, # of connection points: 4
#     Node 1, Type 0, BuildingBlock: AZAVOO_clean_sbu_0, # of connection points: 4
#     Node 2, Type 0, BuildingBlock: AZAVOO_clean_sbu_0, # of connection points: 4
#     Node 3, Type 0, BuildingBlock: AZAVOO_clean_sbu_0, # of connection points: 4
#     Node 4, Type 0, BuildingBlock: AZAVOO_clean_sbu_0, # of connection points: 4
#     Node 5, Type 0, BuildingBlock: AZAVOO_clean_sbu_0, # of connection points: 4
#     Node 6, Type 0, BuildingBlock: AZAVOO_clean_sbu_0, # of connection points: 4
#     Node 7, Type 0, BuildingBlock: AZAVOO_clean_sbu_0, # of connection points: 4
#     Node 8, Type 0, BuildingBlock: AZAVOO_clean_sbu_0, # of connection points: 4
#     Node 9, Type 0, BuildingBlock: AZAVOO_clean_sbu_0, # of connection points: 4
#     Node 10, Type 0, BuildingBlock: AZAVOO_clean_sbu_0, # of connection points: 4
#     Node 11, Type 0, BuildingBlock: AZAVOO_clean_sbu_0, # of connection points: 4
#     Edge 12, Type (0, 0), BuildingBlock: MIFKUJ_clean_linker_0, # of connection points: 2
#     Edge 13, Type (0, 0), BuildingBlock: MIFKUJ_clean_linker_0, # of connection points: 2
#     Edge 14, Type (0, 0), BuildingBlock: MIFKUJ_clean_linker_0, # of connection points: 2
#     Edge 15, Type (0, 0), BuildingBlock: MIFKUJ_clean_linker_0, # of connection points: 2
#     Edge 16, Type (0, 0), BuildingBlock: MIFKUJ_clean_linker_0, # of connection points: 2
#     Edge 17, Type (0, 0), BuildingBlock: MIFKUJ_clean_linker_0, # of connection points: 2
#     Edge 18, Type (0, 0), BuildingBlock: MIFKUJ_clean_linker_0, # of connection points: 2
#     Edge 19, Type (0, 0), BuildingBlock: MIFKUJ_clean_linker_0, # of connection points: 2
#     Edge 20, Type (0, 0), BuildingBlock: MIFKUJ_clean_linker_0, # of connection points: 2
#     Edge 21, Type (0, 0), BuildingBlock: MIFKUJ_clean_linker_0, # of connection points: 2
#     Edge 22, Type (0, 0), BuildingBlock: MIFKUJ_clean_linker_0, # of connection points: 2
#     Edge 23, Type (0, 0), BuildingBlock: MIFKUJ_clean_linker_0, # of connection points: 2
#     Edge 24, Type (0, 0), BuildingBlock: MIFKUJ_clean_linker_0, # of connection points: 2
#     Edge 25, Type (0, 0), BuildingBlock: MIFKUJ_clean_linker_0, # of connection points: 2
#     Edge 26, Type (0, 0), BuildingBlock: MIFKUJ_clean_linker_0, # of connection points: 2
#     Edge 27, Type (0, 0), BuildingBlock: MIFKUJ_clean_linker_0, # of connection points: 2
#     Edge 28, Type (0, 0), BuildingBlock: MIFKUJ_clean_linker_0, # of connection points: 2
#     Edge 29, Type (0, 0), BuildingBlock: MIFKUJ_clean_linker_0, # of connection points: 2
#     Edge 30, Type (0, 0), BuildingBlock: MIFKUJ_clean_linker_0, # of connection points: 2
#     Edge 31, Type (0, 0), BuildingBlock: MIFKUJ_clean_linker_0, # of connection points: 2
#     Edge 32, Type (0, 0), BuildingBlock: MIFKUJ_clean_linker_0, # of connection points: 2
#     Edge 33, Type (0, 0), BuildingBlock: MIFKUJ_clean_linker_0, # of connection points: 2
#     Edge 34, Type (0, 0), BuildingBlock: MIFKUJ_clean_linker_0, # of connection points: 2
#     Edge 35, Type (0, 0), BuildingBlock: MIFKUJ_clean_linker_0, # of connection points: 2
# Relax obj value: 0.279
# Max RMSD: 0.294
# Mean RMSD: 0.281
data_MOF--net-wjf--node1-AZAVOO_clean_sbu_0--edge1-MIFKUJ_clean_linker_0
_symmetry_space_group_name_H-M    P1
_symmetry_Int_Tables_number       1
_symmetry_cell_setting            triclinic
loop_
_symmetry_equiv_pos_as_xyz
'x, y, z'
_cell_length_a     64.559246
_cell_length_b     66.099291
_cell_length_c     34.024694
_cell_angle_alpha  90.035153
_cell_angle_beta   89.978798
_cell_angle_gamma 119.24656
loop_
_atom_site_label
_atom_site_type_symbol
_atom_site_fract_x
_atom_site_fract_y
_atom_site_fract_z
_atom_type_partial_charge
Mg0 Mg 0.3314 0.38338 0.1107 0.0
O1 O 0.33363 0.36691 0.05274 0.0
O2 O 0.3622 0.35729 0.05746 0.0
Mg3 Mg 0.37809 0.36732 0.11891 0.0
C4 C 0.34587 0.35839 0.03803 0.0
C5 C 0.29565 0.38853 0.05785 0.0
O6 O 0.3156 0.40012 0.03825 0.0
O7 O 0.31314 0.34816 0.14061 0.0
O8 O 0.34276 0.33997 0.14624 0.0
O9 O 0.3585 0.41821 0.08937 0.0
O10 O 0.36729 0.39433 0.12151 0.0
C11 C 0.32118 0.33491 0.15182 0.0
C12 C 0.37448 0.41361 0.10287 0.0
O13 O 0.29595 0.37938 0.09055 0.0
Mg14 Mg 0.96051 0.3528 0.40541 0.0
O15 O 0.97997 0.34874 0.35307 0.0
O16 O 0.01923 0.36959 0.36169 0.0
Mg17 Mg 0.02452 0.38525 0.42335 0.0
C18 C 0.00116 0.356 0.34126 0.0
C19 C 0.90906 0.32923 0.37822 0.0
O20 O 0.91197 0.34841 0.39474 0.0
O21 O 0.96748 0.32734 0.43972 0.0
O22 O 0.00634 0.34878 0.45171 0.0
O23 O 0.96304 0.3846 0.37954 0.0
O24 O 0.99013 0.38474 0.41947 0.0
C25 C 0.98661 0.32993 0.45529 0.0
C26 C 0.98329 0.39612 0.39712 0.0
O27 O 0.926 0.32463 0.37946 0.0
Mg28 Mg 0.61495 0.93845 0.73517 0.0
O29 O 0.58204 0.94334 0.73126 0.0
O30 O 0.56607 0.93157 0.67153 0.0
Mg31 Mg 0.58953 0.9212 0.63667 0.0
C32 C 0.56618 0.93969 0.70556 0.0
C33 C 0.63021 0.94045 0.82254 0.0
O34 O 0.64383 0.93313 0.80632 0.0
O35 O 0.59247 0.89905 0.73919 0.0
O36 O 0.57941 0.8902 0.67736 0.0
O37 O 0.63678 0.9744 0.71348 0.0
O38 O 0.61981 0.94356 0.67485 0.0
C39 C 0.58098 0.8842 0.71241 0.0
C40 C 0.63155 0.96582 0.67836 0.0
O41 O 0.61552 0.943 0.80118 0.0
Mg42 Mg 0.66199 0.61622 0.13453 0.0
O43 O 0.66141 0.63242 0.07558 0.0
O44 O 0.63122 0.63982 0.07405 0.0
Mg45 Mg 0.61172 0.62756 0.13272 0.0
C46 C 0.64919 0.64004 0.05797 0.0
C47 C 0.70201 0.61594 0.0864 0.0
O48 O 0.68382 0.60651 0.0623 0.0
O49 O 0.67656 0.65142 0.16501 0.0
O50 O 0.64389 0.65498 0.16676 0.0
O51 O 0.63791 0.58091 0.11068 0.0
O52 O 0.62513 0.60273 0.13934 0.0
C53 C 0.6656 0.66218 0.17574 0.0
C54 C 0.62027 0.5839 0.12086 0.0
O55 O 0.69917 0.6221 0.1205 0.0
Mg56 Mg 0.07583 0.67951 0.41838 0.0
O57 O 0.05004 0.67236 0.36777 0.0
O58 O 0.01554 0.64027 0.37807 0.0
Mg59 Mg 0.01833 0.62856 0.44004 0.0
C60 C 0.02925 0.6575 0.35668 0.0
C61 C 0.10421 0.71503 0.3532 0.0
O62 O 0.09265 0.69591 0.33257 0.0
O63 O 0.0569 0.69449 0.45485 0.0
O64 O 0.02229 0.66241 0.46641 0.0
O65 O 0.08703 0.65556 0.39213 0.0
O66 O 0.05732 0.64445 0.43417 0.0
C67 C 0.03616 0.68423 0.47001 0.0
C68 C 0.06968 0.63898 0.41116 0.0
O69 O 0.10115 0.71436 0.39026 0.0
Mg70 Mg 0.34315 0.00981 0.76371 0.0
O71 O 0.378 0.01106 0.74419 0.0
O72 O 0.37669 0.0063 0.67898 0.0
Mg73 Mg 0.34216 0.00404 0.6571 0.0
C74 C 0.38696 0.00875 0.71207 0.0
C75 C 0.34429 0.02502 0.84796 0.0
O76 O 0.32266 0.01897 0.83608 0.0
O77 O 0.35551 0.04636 0.7415 0.0
O78 O 0.35395 0.04146 0.67648 0.0
O79 O 0.32872 0.97188 0.76844 0.0
O80 O 0.32618 0.98973 0.71493 0.0
C81 C 0.35806 0.05436 0.70667 0.0
C82 C 0.32446 0.97133 0.73113 0.0
O83 O 0.35858 0.02365 0.8239 0.0
Mg84 Mg 0.59395 0.64558 0.57643 0.0
O85 O 0.61347 0.64575 0.632 0.0
O86 O 0.628 0.62148 0.62555 0.0
Mg87 Mg 0.61665 0.60485 0.56468 0.0
C88 C 0.625 0.63621 0.64549 0.0
C89 C 0.57535 0.67988 0.59551 0.0
O90 O 0.55726 0.66432 0.57518 0.0
O91 O 0.62921 0.66705 0.54423 0.0
O92 O 0.63987 0.63992 0.53476 0.0
O93 O 0.56062 0.61623 0.60029 0.0
O94 O 0.58651 0.61173 0.56412 0.0
C95 C 0.64321 0.66047 0.52976 0.0
C96 C 0.56731 0.60249 0.58464 0.0
O97 O 0.59366 0.67761 0.59964 0.0
Mg98 Mg 0.94247 0.60773 0.88106 0.0
O99 O 0.96572 0.62669 0.93394 0.0
O100 O 0.00219 0.63181 0.92435 0.0
Mg101 Mg 0.00292 0.61858 0.86252 0.0
C102 C 0.98693 0.63374 0.94551 0.0
C103 C 0.90732 0.6096 0.94088 0.0
O104 O 0.9178 0.60083 0.96266 0.0
O105 O 0.95907 0.64118 0.84561 0.0
O106 O 0.99529 0.64597 0.83419 0.0
O107 O 0.93482 0.57381 0.90736 0.0
O108 O 0.96461 0.59407 0.86679 0.0
C109 C 0.97967 0.65241 0.83016 0.0
C110 C 0.95359 0.57631 0.88933 0.0
O111 O 0.91363 0.61463 0.90522 0.0
Mg112 Mg 0.34614 0.95308 0.29911 0.0
O113 O 0.37943 0.95722 0.26878 0.0
O114 O 0.388 0.93037 0.29051 0.0
Mg115 Mg 0.35914 0.90828 0.33509 0.0
C116 C 0.39255 0.9478 0.26884 0.0
C117 C 0.3637 0.99655 0.24686 0.0
O118 O 0.38259 0.00228 0.26858 0.0
O119 O 0.32241 0.9215 0.2619 0.0
O120 O 0.32956 0.89465 0.28853 0.0
O121 O 0.3678 0.9756 0.34869 0.0
O122 O 0.35261 0.93754 0.34736 0.0
C123 C 0.31823 0.90057 0.26453 0.0
C124 C 0.3653 0.9569 0.36528 0.0
O125 O 0.34492 0.97749 0.25351 0.0
Mg126 Mg 0.38379 0.31497 0.5643 0.0
O127 O 0.36216 0.31636 0.61662 0.0
O128 O 0.3531 0.34441 0.60536 0.0
Mg129 Mg 0.36778 0.36007 0.54526 0.0
C130 C 0.35257 0.32843 0.62708 0.0
C131 C 0.38413 0.27775 0.62075 0.0
O132 O 0.39124 0.29509 0.64563 0.0
O133 O 0.35055 0.29682 0.52668 0.0
O134 O 0.34281 0.32563 0.51427 0.0
O135 O 0.41696 0.34162 0.59302 0.0
O136 O 0.39535 0.34984 0.55249 0.0
C137 C 0.33816 0.3046 0.51002 0.0
C138 C 0.41315 0.35706 0.57617 0.0
O139 O 0.37933 0.28047 0.58557 0.0
Mg140 Mg 0.04138 0.37523 0.86431 0.0
O141 O 0.01882 0.35616 0.91725 0.0
O142 O 0.98231 0.35156 0.91102 0.0
Mg143 Mg 0.98072 0.36468 0.84961 0.0
C144 C 0.99794 0.34923 0.93034 0.0
C145 C 0.09125 0.37994 0.87615 0.0
O146 O 0.09606 0.3957 0.84889 0.0
O147 O 0.02411 0.34194 0.82875 0.0
O148 O 0.98742 0.33672 0.82092 0.0
O149 O 0.04955 0.40884 0.89205 0.0
O150 O 0.0192 0.3892 0.85202 0.0
C151 C 0.00301 0.33037 0.81539 0.0
C152 C 0.03057 0.40662 0.8752 0.0
O153 O 0.06997 0.36785 0.88786 0.0
Mg154 Mg 0.68554 0.09881 0.24527 0.0
O155 O 0.64709 0.09016 0.23438 0.0
O156 O 0.63644 0.10653 0.28181 0.0
Mg157 Mg 0.66809 0.12587 0.32284 0.0
C158 C 0.63172 0.09421 0.25078 0.0
C159 C 0.69363 0.07112 0.17982 0.0
O160 O 0.7031 0.06629 0.21007 0.0
O161 O 0.70003 0.13586 0.22376 0.0
O162 O 0.69062 0.15133 0.27446 0.0
O163 O 0.67292 0.06772 0.28316 0.0
O164 O 0.68181 0.10245 0.30549 0.0
C165 C 0.70063 0.15324 0.2412 0.0
C166 C 0.67389 0.08074 0.31233 0.0
O167 O 0.6858 0.08526 0.18425 0.0
H168 H 0.28937 0.33255 0.20634 0.0
H169 H 0.27672 0.30749 0.2639 0.0
H170 H 0.30678 0.26742 0.21442 0.0
H171 H 0.32095 0.29358 0.15783 0.0
H172 H 0.25446 0.2657 0.294 0.0
H173 H 0.33933 0.25961 0.28135 0.0
H174 H 0.37748 0.27761 0.24553 0.0
H175 H 0.3758 0.34166 0.23814 0.0
H176 H 0.33781 0.32408 0.27429 0.0
H177 H 0.33196 0.26444 0.47582 0.0
H178 H 0.31216 0.24849 0.41322 0.0
H179 H 0.28537 0.29683 0.41246 0.0
H180 H 0.30485 0.3127 0.47492 0.0
H181 H 0.3298 0.27839 0.35431 0.0
H182 H 0.24088 0.28166 0.34898 0.0
H183 H 0.20465 0.26814 0.38892 0.0
H184 H 0.21643 0.21531 0.44031 0.0
H185 H 0.25254 0.22825 0.40027 0.0
C186 C 0.29256 0.31791 0.20705 0.0
C187 C 0.30667 0.31534 0.17822 0.0
C188 C 0.28522 0.30349 0.24 0.0
C189 C 0.29154 0.28605 0.24417 0.0
C190 C 0.30234 0.28121 0.21237 0.0
C191 C 0.31038 0.29611 0.18 0.0
C192 C 0.29143 0.27685 0.28406 0.0
C193 C 0.27083 0.26825 0.30727 0.0
C194 C 0.31268 0.27963 0.30121 0.0
C195 C 0.33564 0.29044 0.27994 0.0
C196 C 0.34716 0.27753 0.2721 0.0
C197 C 0.36873 0.28766 0.25177 0.0
C198 C 0.379 0.31073 0.23943 0.0
C199 C 0.3678 0.32378 0.2476 0.0
C200 C 0.34626 0.31375 0.26802 0.0
C201 C 0.32105 0.27105 0.46317 0.0
C202 C 0.32052 0.29029 0.47981 0.0
C203 C 0.30969 0.26184 0.42737 0.0
C204 C 0.29743 0.27155 0.40794 0.0
C205 C 0.29451 0.28886 0.42694 0.0
C206 C 0.30592 0.29812 0.46258 0.0
C207 C 0.29309 0.26824 0.365 0.0
C208 C 0.31302 0.27468 0.34103 0.0
C209 C 0.27142 0.26404 0.34771 0.0
C210 C 0.24951 0.25599 0.37159 0.0
C211 C 0.23567 0.26703 0.36854 0.0
C212 C 0.21516 0.2595 0.39129 0.0
C213 C 0.20826 0.24089 0.41716 0.0
C214 C 0.22183 0.22976 0.42032 0.0
C215 C 0.24235 0.23722 0.39765 0.0
H216 H 0.19238 0.2351 0.43475 0.0
H217 H 0.39568 0.31852 0.22362 0.0
H218 H 0.94764 0.28847 0.47508 0.0
H219 H 0.94337 0.26592 0.53435 0.0
H220 H 0.01796 0.30893 0.55894 0.0
H221 H 0.02256 0.33112 0.49951 0.0
H222 H 0.00018 0.26533 0.59281 0.0
H223 H 0.9793 0.32823 0.58426 0.0
H224 H 0.9559 0.3451 0.55604 0.0
H225 H 0.89125 0.28371 0.58701 0.0
H226 H 0.91434 0.26641 0.61499 0.0
H227 H 0.03371 0.32508 0.76729 0.0
H228 H 0.02328 0.30261 0.70705 0.0
H229 H 0.94913 0.26984 0.73895 0.0
H230 H 0.95954 0.29348 0.7985 0.0
H231 H 0.95399 0.2906 0.67617 0.0
H232 H 0.97875 0.23747 0.71159 0.0
H233 H 0.00327 0.22232 0.74117 0.0
H234 H 0.06053 0.2642 0.66287 0.0
H235 H 0.03656 0.27991 0.63319 0.0
C236 C 0.96333 0.2926 0.49227 0.0
C237 C 0.98528 0.31216 0.48332 0.0
C238 C 0.96086 0.27959 0.52609 0.0
C239 C 0.9802 0.28618 0.55161 0.0
C240 C 0.00273 0.30363 0.53984 0.0
C241 C 0.00528 0.3165 0.50593 0.0
C242 C 0.97642 0.27945 0.59364 0.0
C243 C 0.98991 0.27052 0.61132 0.0
C244 C 0.96232 0.28548 0.61754 0.0
C245 C 0.94848 0.29596 0.60122 0.0
C246 C 0.96009 0.31833 0.58488 0.0
C247 C 0.9469 0.32795 0.56893 0.0
C248 C 0.9221 0.31546 0.56963 0.0
C249 C 0.91045 0.29334 0.58639 0.0
C250 C 0.92357 0.28361 0.60228 0.0
C251 C 0.01526 0.31244 0.76229 0.0
C252 C 0.99739 0.31143 0.78708 0.0
C253 C 0.00926 0.29933 0.7278 0.0
C254 C 0.98532 0.28454 0.71802 0.0
C255 C 0.9677 0.28129 0.74553 0.0
C256 C 0.97366 0.29483 0.77956 0.0
C257 C 0.97879 0.27751 0.6763 0.0
C258 C 0.9634 0.28408 0.65836 0.0
C259 C 0.99114 0.26928 0.65251 0.0
C260 C 0.00578 0.25989 0.67011 0.0
C261 C 0.99662 0.24357 0.70078 0.0
C262 C 0.01043 0.23486 0.71757 0.0
C263 C 0.03344 0.24229 0.7039 0.0
C264 C 0.04268 0.25842 0.67338 0.0
C265 C 0.02895 0.26719 0.65648 0.0
H266 H 0.0441 0.23553 0.71695 0.0
H267 H 0.91192 0.32293 0.55726 0.0
H268 H 0.60935 0.96211 0.86089 0.0
H269 H 0.62099 0.98221 0.92389 0.0
H270 H 0.67262 0.95939 0.93969 0.0
H271 H 0.66119 0.93923 0.8763 0.0
H272 H 0.6463 0.95854 0.01028 0.0
H273 H 0.69295 0.00991 0.90573 0.0
H274 H 0.69852 0.02893 0.84127 0.0
H275 H 0.6567 0.05966 0.87928 0.0
H276 H 0.65059 0.04052 0.9438 0.0
H277 H 0.71031 0.04176 0.15863 0.0
H278 H 0.70073 0.01808 0.09911 0.0
H279 H 0.65736 0.04691 0.05822 0.0
H280 H 0.66737 0.07105 0.11694 0.0
H281 H 0.68191 0.04402 -0.00014 0.0
H282 H 0.63333 0.99242 0.10207 0.0
H283 H 0.62527 0.97257 0.16615 0.0
H284 H 0.66782 0.94169 0.13323 0.0
H285 H 0.67639 0.96162 0.06912 0.0
C286 C 0.62291 0.96099 0.87796 0.0
C287 C 0.63458 0.94931 0.86333 0.0
C288 C 0.62955 0.97253 0.91394 0.0
C289 C 0.64787 0.97251 0.93601 0.0
C290 C 0.65849 0.95963 0.92288 0.0
C291 C 0.65197 0.94818 0.88666 0.0
C292 C 0.65709 0.9875 0.97108 0.0
C293 C 0.65443 0.97726 0.00811 0.0
C294 C 0.66724 0.01184 0.96804 0.0
C295 C 0.67115 0.02362 0.92946 0.0
C296 C 0.6848 0.02058 0.90024 0.0
C297 C 0.68808 0.0314 0.86371 0.0
C298 C 0.67793 0.04545 0.85615 0.0
C299 C 0.66454 0.04875 0.88516 0.0
C300 C 0.66118 0.03794 0.92172 0.0
C301 C 0.6989 0.04319 0.13678 0.0
C302 C 0.68952 0.05821 0.14256 0.0
C303 C 0.69332 0.02954 0.10291 0.0
C304 C 0.67798 0.03041 0.07454 0.0
C305 C 0.66918 0.0459 0.07976 0.0
C306 C 0.67493 0.0597 0.11337 0.0
C307 C 0.67084 0.01513 0.0395 0.0
C308 C 0.67394 0.02533 0.00227 0.0
C309 C 0.66086 0.99073 0.04249 0.0
C310 C 0.65572 0.97872 0.08099 0.0
C311 C 0.64112 0.98155 0.10863 0.0
C312 C 0.63643 0.97025 0.14493 0.0
C313 C 0.64609 0.95593 0.1538 0.0
C314 C 0.66039 0.95282 0.12634 0.0
C315 C 0.66516 0.9641 0.09001 0.0
H316 H 0.64243 0.9472 0.18192 0.0
H317 H 0.68048 0.05381 0.82785 0.0
H318 H 0.71319 0.69118 0.19153 0.0
H319 H 0.72962 0.71569 0.24996 0.0
H320 H 0.65844 0.69707 0.28707 0.0
H321 H 0.64266 0.67515 0.22777 0.0
H322 H 0.68299 0.7335 0.31928 0.0
H323 H 0.69531 0.66329 0.30899 0.0
H324 H 0.71517 0.64334 0.27855 0.0
H325 H 0.78307 0.70394 0.29594 0.0
H326 H 0.76351 0.72422 0.32631 0.0
H327 H 0.663 0.64671 0.47317 0.0
H328 H 0.68608 0.66862 0.41774 0.0
H329 H 0.69045 0.731 0.4666 0.0
H330 H 0.66493 0.70812 0.52129 0.0
H331 H 0.72399 0.69959 0.39515 0.0
H332 H 0.69725 0.76736 0.39495 0.0
H333 H 0.66887 0.77798 0.42445 0.0
H334 H 0.61518 0.70622 0.42672 0.0
H335 H 0.64326 0.69528 0.39707 0.0
C336 C 0.70126 0.69308 0.21169 0.0
C337 C 0.67659 0.68084 0.20545 0.0
C338 C 0.71062 0.70689 0.24536 0.0
C339 C 0.69533 0.70757 0.27425 0.0
C340 C 0.67092 0.69703 0.26583 0.0
C341 C 0.66174 0.68417 0.23168 0.0
C342 C 0.70318 0.71549 0.31547 0.0
C343 C 0.69224 0.7263 0.3358 0.0
C344 C 0.71626 0.70734 0.33754 0.0
C345 C 0.728 0.69529 0.31934 0.0
C346 C 0.71447 0.67231 0.30619 0.0
C347 C 0.72565 0.66097 0.28896 0.0
C348 C 0.75036 0.6724 0.28519 0.0
C349 C 0.76394 0.69515 0.29876 0.0
C350 C 0.75282 0.70657 0.31595 0.0
C351 C 0.66908 0.66516 0.47266 0.0
C352 C 0.66166 0.67554 0.50127 0.0
C353 C 0.6826 0.67788 0.44079 0.0
C354 C 0.68975 0.70159 0.43699 0.0
C355 C 0.68451 0.71261 0.46781 0.0
C356 C 0.67008 0.69957 0.49928 0.0
C357 C 0.69954 0.71295 0.3983 0.0
C358 C 0.7152 0.7073 0.37868 0.0
C359 C 0.68926 0.72416 0.3767 0.0
C360 C 0.67236 0.73054 0.39438 0.0
C361 C 0.67938 0.7539 0.4018 0.0
C362 C 0.66337 0.75996 0.41851 0.0
C363 C 0.64027 0.74278 0.42759 0.0
C364 C 0.63309 0.7195 0.41979 0.0
C365 C 0.64902 0.71337 0.40303 0.0
H366 H 0.62791 0.7475 0.44058 0.0
H367 H 0.759 0.6636 0.27184 0.0
H368 H 0.9478 0.66344 0.79663 0.0
H369 H 0.95374 0.68489 0.73541 0.0
H370 H 0.02796 0.70442 0.73654 0.0
H371 H 0.02232 0.68327 0.79776 0.0
H372 H 0.01833 0.73683 0.69521 0.0
H373 H 0.99102 0.65271 0.70183 0.0
H374 H 0.9627 0.61317 0.72433 0.0
H375 H 0.90527 0.6185 0.67097 0.0
H376 H 0.93329 0.65823 0.64864 0.0
H377 H 0.06404 0.71553 0.52481 0.0
H378 H 0.05011 0.72511 0.58468 0.0
H379 H 0.9785 0.6909 0.53923 0.0
H380 H 0.99234 0.67986 0.48037 0.0
H381 H 0.97788 0.67165 0.60129 0.0
H382 H 0.00939 0.75086 0.57332 0.0
H383 H 0.038 0.79019 0.55066 0.0
H384 H 0.08675 0.79579 0.64134 0.0
H385 H 0.05864 0.75636 0.66421 0.0
C386 C 0.9656 0.67308 0.78478 0.0
C387 C 0.98445 0.67103 0.8014 0.0
C388 C 0.96896 0.68542 0.7498 0.0
C389 C 0.99117 0.6958 0.73105 0.0
C390 C 0.01065 0.69644 0.75043 0.0
C391 C 0.00732 0.68411 0.7853 0.0
C392 C 0.99307 0.70066 0.68831 0.0
C393 C 0.00941 0.72278 0.67435 0.0
C394 C 0.98087 0.6824 0.6612 0.0
C395 C 0.96414 0.65845 0.67401 0.0
C396 C 0.97233 0.64546 0.69509 0.0
C397 C 0.95635 0.62304 0.70781 0.0
C398 C 0.93219 0.61335 0.69918 0.0
C399 C 0.92398 0.62605 0.67771 0.0
C400 C 0.93989 0.64851 0.66503 0.0
C401 C 0.04549 0.71089 0.52693 0.0
C402 C 0.02919 0.69672 0.49831 0.0
C403 C 0.03748 0.71652 0.56122 0.0
C404 C 0.01312 0.70865 0.56688 0.0
C405 C 0.99732 0.69697 0.53589 0.0
C406 C 0.00522 0.69073 0.50217 0.0
C407 C 0.00384 0.70793 0.60729 0.0
C408 C 0.98619 0.6863 0.6212 0.0
C409 C 0.01477 0.72676 0.63398 0.0
C410 C 0.03186 0.75055 0.62044 0.0
C411 C 0.02627 0.7604 0.5883 0.0
C412 C 0.0424 0.78274 0.57543 0.0
C413 C 0.06418 0.79547 0.59454 0.0
C414 C 0.06986 0.78591 0.62659 0.0
C415 C 0.0538 0.76357 0.63959 0.0
H416 H 0.07665 0.81276 0.58452 0.0
H417 H 0.91984 0.59599 0.70905 0.0
H418 H 0.32744 0.99309 0.201 0.0
H419 H 0.33074 0.00988 0.13579 0.0
H420 H 0.40704 0.04653 0.14615 0.0
H421 H 0.40395 0.0299 0.21152 0.0
H422 H 0.35379 0.05564 0.10084 0.0
H423 H 0.42663 0.0353 0.05859 0.0
H424 H 0.44443 0.01176 0.08157 0.0
H425 H 0.37697 0.96073 0.12753 0.0
H426 H 0.35874 0.98379 0.10433 0.0
H427 H 0.38856 0.0432 0.88082 0.0
H428 H 0.39879 0.05055 0.9506 0.0
H429 H 0.32531 0.02733 0.97839 0.0
H430 H 0.31522 0.02087 0.909 0.0
H431 H 0.38607 0.02095 0.00617 0.0
H432 H 0.3175 0.04876 0.06079 0.0
H433 H 0.30101 0.07344 0.03832 0.0
H434 H 0.36245 0.11256 0.96612 0.0
H435 H 0.3795 0.08835 0.98856 0.0
C436 C 0.3449 0.00515 0.1898 0.0
C437 C 0.36544 0.00994 0.21113 0.0
C438 C 0.34675 0.01484 0.15267 0.0
C439 C 0.36913 0.02924 0.13616 0.0
C440 C 0.38962 0.03538 0.15847 0.0
C441 C 0.38779 0.02585 0.19578 0.0
C442 C 0.37086 0.03491 0.09389 0.0
C443 C 0.36086 0.04817 0.07995 0.0
C444 C 0.38086 0.02576 0.06702 0.0
C445 C 0.39142 0.01139 0.08009 0.0
C446 C 0.4156 0.019 0.07343 0.0
C447 C 0.42575 0.00574 0.08649 0.0
C448 C 0.41184 0.98478 0.10601 0.0
C449 C 0.38773 0.97698 0.11244 0.0
C450 C 0.37748 0.99014 0.09936 0.0
C451 C 0.37469 0.04007 0.90181 0.0
C452 C 0.35107 0.03139 0.88946 0.0
C453 C 0.38056 0.04428 0.94166 0.0
C454 C 0.3629 0.03978 0.96981 0.0
C455 C 0.33941 0.03157 0.95729 0.0
C456 C 0.3336 0.02766 0.91752 0.0
C457 C 0.36831 0.04124 0.01247 0.0
C458 C 0.3796 0.02916 0.02669 0.0
C459 C 0.35975 0.05177 0.0395 0.0
C460 C 0.34973 0.06662 0.02624 0.0
C461 C 0.32758 0.06272 0.04032 0.0
C462 C 0.31811 0.07661 0.02753 0.0
C463 C 0.33066 0.09452 0.00075 0.0
C464 C 0.35272 0.09863 0.98677 0.0
C465 C 0.36228 0.0848 -0.00052 0.0
H466 H 0.32328 0.10524 0.99087 0.0
H467 H 0.41974 0.97456 0.11613 0.0
H468 H 0.08856 0.35449 0.94138 0.0
H469 H 0.12114 0.35237 0.97435 0.0
H470 H 0.17011 0.3979 0.88692 0.0
H471 H 0.1377 0.40005 0.85371 0.0
H472 H 0.17737 0.36147 0.90316 0.0
H473 H 0.16588 0.41814 0.9757 0.0
H474 H 0.14377 0.4326 0.01514 0.0
H475 H 0.13034 0.38122 0.10338 0.0
H476 H 0.15201 0.36617 0.06411 0.0
H477 H 0.28973 0.40677 0.98971 0.0
H478 H 0.25277 0.40152 0.96132 0.0
H479 H 0.21362 0.35835 0.05934 0.0
H480 H 0.25074 0.36384 0.08845 0.0
H481 H 0.19847 0.38865 0.04083 0.0
H482 H 0.21287 0.3341 0.97169 0.0
H483 H 0.23663 0.3208 0.93408 0.0
H484 H 0.24467 0.36762 0.84045 0.0
H485 H 0.22134 0.38154 0.87783 0.0
C486 C 0.10624 0.36391 0.92898 0.0
C487 C 0.11057 0.37749 0.89494 0.0
C488 C 0.12484 0.36276 0.94798 0.0
C489 C 0.14807 0.37514 0.93325 0.0
C490 C 0.15231 0.38822 0.89876 0.0
C491 C 0.13378 0.38948 0.87989 0.0
C492 C 0.16815 0.37489 0.95393 0.0
C493 C 0.18209 0.36755 0.93318 0.0
C494 C 0.17382 0.38213 0.99352 0.0
C495 C 0.16035 0.39086 0.01674 0.0
C496 C 0.15799 0.40976 0.0033 0.0
C497 C 0.14561 0.41811 0.0257 0.0
C498 C 0.13571 0.40787 0.06179 0.0
C499 C 0.1381 0.38919 0.07549 0.0
C500 C 0.15038 0.38071 0.05314 0.0
C501 C 0.2733 0.39616 0.00534 0.0
C502 C 0.27317 0.38564 0.04129 0.0
C503 C 0.25215 0.39308 0.98894 0.0
C504 C 0.2304 0.37923 0.0079 0.0
C505 C 0.23021 0.36902 0.04415 0.0
C506 C 0.25142 0.37215 0.06068 0.0
C507 C 0.20798 0.3757 0.98978 0.0
C508 C 0.19358 0.38226 0.011 0.0
C509 C 0.2018 0.36763 0.95068 0.0
C510 C 0.21548 0.35899 0.92773 0.0
C511 C 0.21982 0.34167 0.94318 0.0
C512 C 0.23321 0.33401 0.92189 0.0
C513 C 0.24218 0.34339 0.88492 0.0
C514 C 0.23772 0.36038 0.86911 0.0
C515 C 0.22439 0.36815 0.89032 0.0
H516 H 0.25258 0.33748 0.86851 0.0
H517 H 0.12611 0.41434 0.07906 0.0
H518 H 0.90111 0.29447 0.32636 0.0
H519 H 0.86498 0.27076 0.28822 0.0
H520 H 0.83145 0.30654 0.34176 0.0
H521 H 0.86753 0.33054 0.37951 0.0
H522 H 0.80555 0.25722 0.34608 0.0
H523 H 0.84554 0.3179 0.25268 0.0
H524 H 0.87756 0.34462 0.20866 0.0
H525 H 0.87306 0.28685 0.14389 0.0
H526 H 0.84138 0.25972 0.1881 0.0
H527 H 0.70003 0.19354 0.25588 0.0
H528 H 0.73564 0.2313 0.26218 0.0
H529 H 0.77707 0.20405 0.20728 0.0
H530 H 0.74147 0.16646 0.19985 0.0
H531 H 0.79851 0.25269 0.20061 0.0
H532 H 0.76547 0.19289 0.30042 0.0
H533 H 0.73297 0.16477 0.34238 0.0
H534 H 0.72572 0.22013 0.39473 0.0
H535 H 0.75794 0.24854 0.35251 0.0
C536 C 0.88604 0.29728 0.33002 0.0
C537 C 0.88711 0.3143 0.35607 0.0
C538 C 0.86553 0.2839 0.30794 0.0
C539 C 0.84574 0.28716 0.31187 0.0
C540 C 0.84668 0.30397 0.33806 0.0
C541 C 0.86726 0.31757 0.3597 0.0
C542 C 0.82334 0.27168 0.29129 0.0
C543 C 0.80389 0.25659 0.31429 0.0
C544 C 0.82148 0.27047 0.24978 0.0
C545 C 0.84119 0.28673 0.22402 0.0
C546 C 0.85159 0.31085 0.22943 0.0
C547 C 0.86961 0.32609 0.20429 0.0
C548 C 0.87728 0.31744 0.1734 0.0
C549 C 0.86702 0.29353 0.16771 0.0
C550 C 0.84907 0.27821 0.19288 0.0
C551 C 0.71647 0.19593 0.24321 0.0
C552 C 0.71813 0.17689 0.22851 0.0
C553 C 0.73683 0.21752 0.24688 0.0
C554 C 0.75906 0.22013 0.23654 0.0
C555 C 0.7601 0.20228 0.21587 0.0
C556 C 0.73965 0.18074 0.21164 0.0
C557 C 0.78083 0.23843 0.25549 0.0
C558 C 0.80016 0.25374 0.23236 0.0
C559 C 0.78287 0.23973 0.297 0.0
C560 C 0.76389 0.22278 0.32304 0.0
C561 C 0.75685 0.19904 0.32074 0.0
C562 C 0.73849 0.18305 0.34455 0.0
C563 C 0.72725 0.19065 0.37114 0.0
C564 C 0.73441 0.21427 0.37406 0.0
C565 C 0.75271 0.23031 0.3502 0.0
H566 H 0.71302 0.17825 0.38953 0.0
H567 H 0.89125 0.32926 0.15401 0.0
H568 H 0.54545 0.8474 0.67435 0.0
H569 H 0.54003 0.80825 0.67134 0.0
H570 H 0.59297 0.82572 0.76165 0.0
H571 H 0.59844 0.86504 0.76495 0.0
H572 H 0.60461 0.81307 0.6917 0.0
H573 H 0.53797 0.78228 0.77776 0.0
H574 H 0.49943 0.77559 0.80347 0.0
H575 H 0.46563 0.7428 0.69509 0.0
H576 H 0.50402 0.74958 0.66847 0.0
H577 H 0.60351 0.70743 0.65472 0.0
H578 H 0.60067 0.73852 0.68867 0.0
H579 H 0.54135 0.72691 0.61525 0.0
H580 H 0.54354 0.69514 0.58213 0.0
H581 H 0.53332 0.73507 0.68774 0.0
H582 H 0.59882 0.77156 0.59753 0.0
H583 H 0.63685 0.77968 0.56732 0.0
H584 H 0.67203 0.8035 0.67846 0.0
H585 H 0.63412 0.79524 0.70944 0.0
C586 C 0.55531 0.84266 0.69461 0.0
C587 C 0.57259 0.85935 0.71952 0.0
C588 C 0.55212 0.82022 0.69298 0.0
C589 C 0.5662 0.81413 0.71611 0.0
C590 C 0.58193 0.83012 0.74358 0.0
C591 C 0.58494 0.85253 0.74556 0.0
C592 C 0.5675 0.79295 0.70629 0.0
C593 C 0.58916 0.79588 0.69187 0.0
C594 C 0.54713 0.77074 0.70512 0.0
C595 C 0.52395 0.76657 0.72103 0.0
C596 C 0.52236 0.77381 0.75927 0.0
C597 C 0.50053 0.76996 0.77404 0.0
C598 C 0.4801 0.75881 0.75091 0.0
C599 C 0.48146 0.75143 0.71298 0.0
C600 C 0.50326 0.75524 0.69806 0.0
C601 C 0.58988 0.71151 0.64574 0.0
C602 C 0.57389 0.69901 0.61546 0.0
C603 C 0.58827 0.72929 0.6652 0.0
C604 C 0.57101 0.73528 0.65416 0.0
C605 C 0.5548 0.72258 0.62432 0.0
C606 C 0.55617 0.70454 0.60523 0.0
C607 C 0.57036 0.75531 0.67269 0.0
C608 C 0.54886 0.75217 0.68843 0.0
C609 C 0.59078 0.77751 0.67446 0.0
C610 C 0.6136 0.78252 0.65589 0.0
C611 C 0.61464 0.77836 0.61558 0.0
C612 C 0.63617 0.78302 0.59831 0.0
C613 C 0.65683 0.79203 0.62099 0.0
C614 C 0.65601 0.79647 0.66095 0.0
C615 C 0.63451 0.79182 0.67838 0.0
H616 H 0.67349 0.79563 0.60757 0.0
H617 H 0.46321 0.75585 0.7624 0.0
H618 H 0.71888 0.62173 0.01196 0.0
H619 H 0.75568 0.6236 0.98962 0.0
H620 H 0.7736 0.61721 0.10951 0.0
H621 H 0.73721 0.61661 0.13219 0.0
H622 H 0.81214 0.64517 0.07283 0.0
H623 H 0.74823 0.56975 0.04408 0.0
H624 H 0.70942 0.54075 0.01744 0.0
H625 H 0.73285 0.56633 0.90066 0.0
H626 H 0.77172 0.59569 0.92667 0.0
H627 H 0.89169 0.60304 0.01665 0.0
H628 H 0.85865 0.60687 0.04371 0.0
H629 H 0.84569 0.62663 0.92942 0.0
H630 H 0.87885 0.62305 0.90226 0.0
H631 H 0.80516 0.59134 0.96545 0.0
H632 H 0.871 0.66649 -0.00131 0.0
H633 H 0.90981 0.69251 0.02889 0.0
H634 H 0.88226 0.66347 0.14241 0.0
H635 H 0.84341 0.63694 0.11278 0.0
C636 C 0.73076 0.62089 0.03357 0.0
C637 C 0.72511 0.61874 0.07374 0.0
C638 C 0.75174 0.62184 0.02077 0.0
C639 C 0.76712 0.61985 0.04774 0.0
C640 C 0.76195 0.61861 0.0881 0.0
C641 C 0.74116 0.61822 0.10104 0.0
C642 C 0.7881 0.61834 0.03352 0.0
C643 C 0.81054 0.63318 0.0497 0.0
C644 C 0.78613 0.60278 0.00319 0.0
C645 C 0.76282 0.58506 0.98738 0.0
C646 C 0.74506 0.56929 0.01275 0.0
C647 C 0.72305 0.55277 -0.00224 0.0
C648 C 0.71865 0.55174 0.9574 0.0
C649 C 0.73628 0.56717 0.93193 0.0
C650 C 0.75831 0.58374 0.94677 0.0
C651 C 0.88196 0.60843 -0.00259 0.0
C652 C 0.88791 0.61278 0.95739 0.0
C653 C 0.86312 0.61064 0.0129 0.0
C654 C 0.84984 0.61716 0.98858 0.0
C655 C 0.85578 0.62162 0.94865 0.0
C656 C 0.87475 0.6196 0.93322 0.0
C657 C 0.82909 0.61837 0.00431 0.0
C658 C 0.80669 0.60334 0.98853 0.0
C659 C 0.83108 0.63335 0.03554 0.0
C660 C 0.85434 0.64957 0.05344 0.0
C661 C 0.87326 0.66552 0.03005 0.0
C662 C 0.89527 0.68037 0.04707 0.0
C663 C 0.89852 0.6796 0.08753 0.0
C664 C 0.87972 0.66404 0.11107 0.0
C665 C 0.85771 0.64908 0.09417 0.0
H666 H 0.91558 0.69108 0.10065 0.0
H667 H 0.7016 0.53894 0.94585 0.0
H668 H 0.10675 0.72611 0.2756 0.0
H669 H 0.13892 0.75938 0.24199 0.0
H670 H 0.17447 0.78489 0.3532 0.0
H671 H 0.14209 0.75208 0.38684 0.0
H672 H 0.17993 0.81967 0.31097 0.0
H673 H 0.18816 0.75107 0.28714 0.0
H674 H 0.17423 0.71137 0.26249 0.0
H675 H 0.16634 0.73252 0.14669 0.0
H676 H 0.18009 0.77233 0.17078 0.0
H677 H 0.30368 0.8542 0.26275 0.0
H678 H 0.26287 0.8234 0.2558 0.0
H679 H 0.24212 0.87313 0.21754 0.0
H680 H 0.28297 0.90433 0.22552 0.0
H681 H 0.22458 0.80256 0.20968 0.0
H682 H 0.1944 0.86409 0.27163 0.0
H683 H 0.21101 0.90242 0.30371 0.0
H684 H 0.26653 0.89297 0.35478 0.0
H685 H 0.25005 0.8545 0.32342 0.0
C686 C 0.12138 0.73895 0.2928 0.0
C687 C 0.12214 0.73638 0.33371 0.0
C688 C 0.13974 0.75793 0.27359 0.0
C689 C 0.15936 0.77443 0.29495 0.0
C690 C 0.15954 0.77239 0.33606 0.0
C691 C 0.14104 0.75361 0.3553 0.0
C692 C 0.18044 0.79314 0.27486 0.0
C693 C 0.18945 0.81596 0.28834 0.0
C694 C 0.19296 0.78838 0.24533 0.0
C695 C 0.18495 0.76457 0.23079 0.0
C696 C 0.18338 0.74721 0.25645 0.0
C697 C 0.17555 0.72471 0.24258 0.0
C698 C 0.16943 0.71943 0.20304 0.0
C699 C 0.17113 0.73664 0.17729 0.0
C700 C 0.17896 0.75917 0.19102 0.0
C701 C 0.29066 0.85859 0.25159 0.0
C702 C 0.29645 0.88187 0.24612 0.0
C703 C 0.26727 0.84086 0.24739 0.0
C704 C 0.24932 0.84608 0.23741 0.0
C705 C 0.25565 0.86882 0.22614 0.0
C706 C 0.27908 0.88665 0.23063 0.0
C707 C 0.22432 0.8289 0.24666 0.0
C708 C 0.21457 0.8064 0.2312 0.0
C709 C 0.21138 0.83375 0.27527 0.0
C710 C 0.22118 0.85663 0.29479 0.0
C711 C 0.21012 0.87021 0.2898 0.0
C712 C 0.2195 0.89193 0.30785 0.0
C713 C 0.23987 0.90016 0.33115 0.0
C714 C 0.25081 0.88662 0.33664 0.0
C715 C 0.24145 0.86486 0.31875 0.0
H716 H 0.24713 0.917 0.34502 0.0
H717 H 0.16332 0.70199 0.19237 0.0
H718 H 0.37005 0.08825 0.76268 0.0
H719 H 0.37812 0.12809 0.75263 0.0
H720 H 0.36838 0.11585 0.62771 0.0
H721 H 0.3609 0.07635 0.63727 0.0
H722 H 0.40466 0.15741 0.64138 0.0
H723 H 0.32388 0.11339 0.68805 0.0
H724 H 0.29251 0.08827 0.73462 0.0
H725 H 0.32537 0.13935 0.82543 0.0
H726 H 0.35712 0.16466 0.77948 0.0
H727 H 0.37435 0.2403 0.57463 0.0
H728 H 0.37331 0.20429 0.59413 0.0
H729 H 0.38978 0.22896 0.71356 0.0
H730 H 0.39078 0.26514 0.69434 0.0
H731 H 0.35369 0.18355 0.70884 0.0
H732 H 0.43234 0.22934 0.6584 0.0
H733 H 0.4627 0.25419 0.61024 0.0
H734 H 0.43291 0.19944 0.52481 0.0
H735 H 0.40215 0.17436 0.57229 0.0
C736 C 0.36982 0.09409 0.73302 0.0
C737 C 0.36465 0.07901 0.70081 0.0
C738 C 0.37434 0.11685 0.72737 0.0
C739 C 0.37349 0.12484 0.68948 0.0
C740 C 0.36911 0.11007 0.65722 0.0
C741 C 0.36475 0.08742 0.66278 0.0
C742 C 0.3764 0.1483 0.68319 0.0
C743 C 0.39341 0.16306 0.65594 0.0
C744 C 0.36212 0.15592 0.70291 0.0
C745 C 0.343 0.14078 0.73048 0.0
C746 C 0.3245 0.11918 0.71803 0.0
C747 C 0.30664 0.10493 0.7443 0.0
C748 C 0.30699 0.11218 0.783 0.0
C749 C 0.32516 0.13373 0.79547 0.0
C750 C 0.34307 0.14805 0.76933 0.0
C751 C 0.37771 0.2381 0.60508 0.0
C752 C 0.38275 0.25564 0.63291 0.0
C753 C 0.37722 0.21754 0.61613 0.0
C754 C 0.38179 0.21412 0.65517 0.0
C755 C 0.38633 0.23134 0.68324 0.0
C756 C 0.38693 0.252 0.67218 0.0
C757 C 0.3816 0.19239 0.66648 0.0
C758 C 0.36513 0.178 0.69466 0.0
C759 C 0.39626 0.18503 0.64742 0.0
C760 C 0.41482 0.20003 0.61884 0.0
C761 C 0.43215 0.22265 0.62925 0.0
C762 C 0.44945 0.23677 0.60209 0.0
C763 C 0.4497 0.22841 0.56447 0.0
C764 C 0.43268 0.20589 0.55396 0.0
C765 C 0.41533 0.19171 0.581 0.0
H766 H 0.46311 0.23937 0.54348 0.0
H767 H 0.29315 0.10112 0.80329 0.0
H768 H 0.34159 0.35788 0.6667 0.0
H769 H 0.33388 0.35765 0.73693 0.0
H770 H 0.33462 0.29316 0.74974 0.0
H771 H 0.3428 0.29333 0.67939 0.0
H772 H 0.29817 0.30169 0.79905 0.0
H773 H 0.38213 0.33129 0.7666 0.0
H774 H 0.4177 0.35615 0.7272 0.0
H775 H 0.41422 0.41651 0.76446 0.0
H776 H 0.37832 0.3919 0.8035 0.0
H777 H 0.37006 0.34167 -0.00489 0.0
H778 H 0.36537 0.33148 0.92556 0.0
H779 H 0.30821 0.34739 0.91699 0.0
H780 H 0.31263 0.35755 0.98678 0.0
H781 H 0.37156 0.36073 0.86512 0.0
H782 H 0.27009 0.31197 0.84236 0.0
H783 H 0.2336 0.2876 0.88008 0.0
H784 H 0.27199 0.26493 0.95449 0.0
H785 H 0.30862 0.28889 0.91687 0.0
C786 C 0.33952 0.3433 0.68412 0.0
C787 C 0.34314 0.32577 0.66752 0.0
C788 C 0.33504 0.3432 0.72424 0.0
C789 C 0.33379 0.32545 0.74828 0.0
C790 C 0.33543 0.30693 0.73143 0.0
C791 C 0.34025 0.30716 0.69132 0.0
C792 C 0.33453 0.32818 0.79136 0.0
C793 C 0.31415 0.31453 0.81369 0.0
C794 C 0.35547 0.34489 0.8101 0.0
C795 C 0.37744 0.35975 0.78762 0.0
C796 C 0.38886 0.34984 0.76615 0.0
C797 C 0.40908 0.36389 0.74391 0.0
C798 C 0.41818 0.38789 0.74324 0.0
C799 C 0.40713 0.39791 0.76496 0.0
C800 C 0.38685 0.38392 0.78715 0.0
C801 C 0.35631 0.34281 0.97865 0.0
C802 C 0.3418 0.35055 -0.00343 0.0
C803 C 0.3537 0.337 0.93885 0.0
C804 C 0.33643 0.33863 0.9162 0.0
C805 C 0.3215 0.3458 0.93408 0.0
C806 C 0.32413 0.35168 0.97395 0.0
C807 C 0.33515 0.33419 0.87339 0.0
C808 C 0.35552 0.34772 0.85084 0.0
C809 C 0.31416 0.31735 0.85465 0.0
C810 C 0.29216 0.30246 0.87705 0.0
C811 C 0.27072 0.30172 0.86668 0.0
C812 C 0.25001 0.28797 0.88805 0.0
C813 C 0.2505 0.2748 0.91977 0.0
C814 C 0.27167 0.27523 0.93003 0.0
C815 C 0.29242 0.28892 0.90872 0.0
H816 H 0.23446 0.26421 0.93632 0.0
H817 H 0.43382 0.39874 0.72596 0.0
H818 H 0.0329 0.38375 0.28629 0.0
H819 H 0.03227 0.37526 0.21613 0.0
H820 H 0.9769 0.30493 0.23681 0.0
H821 H 0.97644 0.3139 0.30645 0.0
H822 H 0.03759 0.34835 0.1667 0.0
H823 H 0.93666 0.28725 0.16799 0.0
H824 H 0.90201 0.27922 0.20935 0.0
H825 H 0.93659 0.35012 0.24778 0.0
H826 H 0.97139 0.35858 0.20661 0.0
H827 H 0.01213 0.32161 0.96734 0.0
H828 H 0.01013 0.31369 0.03793 0.0
H829 H 0.97258 0.35202 0.05568 0.0
H830 H 0.9731 0.35846 0.98497 0.0
H831 H 0.95801 0.32018 0.1069 0.0
H832 H 0.0361 0.37738 0.06117 0.0
H833 H 0.07101 0.38992 0.01804 0.0
H834 H 0.084 0.3373 0.06695 0.0
H835 H 0.04895 0.32424 0.11003 0.0
C836 C 0.02096 0.36638 0.27586 0.0
C837 C 0.00446 0.34956 0.30137 0.0
C838 C 0.02063 0.3615 0.23583 0.0
C839 C 0.00409 0.33962 0.22104 0.0
C840 C 0.98932 0.32213 0.24737 0.0
C841 C 0.98913 0.32721 0.28711 0.0
C842 C 0.00048 0.33605 0.178 0.0
C843 C 0.02017 0.34202 0.15363 0.0
C844 C 0.97782 0.32818 0.16081 0.0
C845 C 0.95666 0.32346 0.18455 0.0
C846 C 0.9368 0.30112 0.18516 0.0
C847 C 0.91721 0.29648 0.20869 0.0
C848 C 0.9172 0.31412 0.23134 0.0
C849 C 0.9367 0.33646 0.23039 0.0
C850 C 0.95636 0.34118 0.20701 0.0
C851 C 0.00289 0.32774 0.98634 0.0
C852 C 0.99292 0.34077 0.97102 0.0
C853 C 0.0019 0.32337 0.02662 0.0
C854 C 0.9919 0.33291 0.05229 0.0
C855 C 0.98051 0.34457 0.03656 0.0
C856 C 0.98081 0.34827 -0.00385 0.0
C857 C 0.99516 0.3328 0.09545 0.0
C858 C 0.97538 0.32613 0.11991 0.0
C859 C 0.01791 0.34097 0.11259 0.0
C860 C 0.03976 0.34967 0.08845 0.0
C861 C 0.04641 0.3685 0.06272 0.0
C862 C 0.06617 0.37565 0.03822 0.0
C863 C 0.07956 0.36426 0.03951 0.0
C864 C 0.07349 0.34598 0.06581 0.0
C865 C 0.0537 0.33871 0.09031 0.0
H866 H 0.09467 0.36963 0.02019 0.0
H867 H 0.90197 0.31055 0.24927 0.0
H868 H 0.65408 0.01323 0.67677 0.0
H869 H 0.66109 0.03814 0.61926 0.0
H870 H 0.62751 0.9777 0.54497 0.0
H871 H 0.62129 0.95282 0.60153 0.0
H872 H 0.68566 0.03749 0.54351 0.0
H873 H 0.58869 0.98913 0.48796 0.0
H874 H 0.54839 0.96714 0.51583 0.0
H875 H 0.57241 0.00598 0.62317 0.0
H876 H 0.61271 0.02853 0.59566 0.0
H877 H 0.66498 0.03828 0.33819 0.0
H878 H 0.65708 0.02377 0.40572 0.0
H879 H 0.6584 0.08653 0.44414 0.0
H880 H 0.66709 0.10158 0.37701 0.0
H881 H 0.61689 0.03307 0.47063 0.0
H882 H 0.7004 0.09373 0.47258 0.0
H883 H 0.74061 0.11381 0.44391 0.0
H884 H 0.74347 0.05026 0.44573 0.0
H885 H 0.70309 0.02974 0.47386 0.0
C886 C 0.64831 0.00526 0.64815 0.0
C887 C 0.63675 0.981 0.6438 0.0
C888 C 0.65233 0.0195 0.61546 0.0
C889 C 0.64446 0.00962 0.57827 0.0
C890 C 0.63335 0.98552 0.57371 0.0
C891 C 0.62971 0.97133 0.60613 0.0
C892 C 0.64784 0.02424 0.54366 0.0
C893 C 0.67072 0.03692 0.52794 0.0
C894 C 0.62823 0.02331 0.52356 0.0
C895 C 0.6038 0.0104 0.53981 0.0
C896 C 0.58534 0.99311 0.51739 0.0
C897 C 0.56249 0.98053 0.53315 0.0
C898 C 0.55786 0.98512 0.57128 0.0
C899 C 0.57603 0.0024 0.59367 0.0
C900 C 0.59889 0.01507 0.57801 0.0
C901 C 0.66332 0.04891 0.36087 0.0
C902 C 0.66668 0.0711 0.35223 0.0
C903 C 0.65882 0.0406 0.39934 0.0
C904 C 0.65724 0.05417 0.42956 0.0
C905 C 0.65955 0.07588 0.42095 0.0
C906 C 0.66451 0.08441 0.38258 0.0
C907 C 0.65465 0.04606 0.47042 0.0
C908 C 0.6319 0.03426 0.48692 0.0
C909 C 0.67435 0.04788 0.49142 0.0
C910 C 0.69867 0.06018 0.47491 0.0
C911 C 0.70952 0.08401 0.46649 0.0
C912 C 0.73236 0.09547 0.45043 0.0
C913 C 0.74457 0.0833 0.4429 0.0
C914 C 0.73398 0.05966 0.45153 0.0
C915 C 0.71114 0.04811 0.46756 0.0
H916 H 0.76224 0.09221 0.43047 0.0
H917 H 0.54018 0.97531 0.58347 0.0
H918 H 0.65403 0.62309 0.68351 0.0
H919 H 0.66594 0.62943 0.7526 0.0
H920 H 0.62776 0.66719 0.76897 0.0
H921 H 0.61637 0.66154 0.69995 0.0
H922 H 0.66724 0.68697 0.81021 0.0
H923 H 0.60274 0.60958 0.7932 0.0
H924 H 0.58159 0.57031 0.76469 0.0
H925 H 0.63698 0.55698 0.80405 0.0
H926 H 0.6586 0.59631 0.83246 0.0
H927 H 0.62973 0.66019 0.01123 0.0
H928 H 0.63412 0.66583 0.94005 0.0
H929 H 0.6845 0.64078 0.93884 0.0
H930 H 0.68063 0.63546 0.00989 0.0
H931 H 0.64386 0.61617 0.88975 0.0
H932 H 0.70461 0.6941 0.91629 0.0
H933 H 0.72175 0.7327 0.94717 0.0
H934 H 0.66851 0.74423 0.89238 0.0
H935 H 0.65082 0.70554 0.86162 0.0
C936 C 0.64837 0.63295 0.70172 0.0
C937 C 0.63401 0.64156 0.68629 0.0
C938 C 0.65517 0.63653 0.7412 0.0
C939 C 0.6474 0.64846 0.76608 0.0
C940 C 0.63396 0.65793 0.75034 0.0
C941 C 0.62735 0.65457 0.71084 0.0
C942 C 0.65187 0.64977 0.80897 0.0
C943 C 0.66205 0.67149 0.82765 0.0
C944 C 0.6453 0.62959 0.83166 0.0
C945 C 0.63242 0.60597 0.81451 0.0
C946 C 0.6105 0.59834 0.79548 0.0
C947 C 0.59841 0.57606 0.7794 0.0
C948 C 0.60797 0.56118 0.78242 0.0
C949 C 0.62962 0.56854 0.80164 0.0
C950 C 0.64179 0.59082 0.81777 0.0
C951 C 0.64212 0.65632 -0.00401 0.0
C952 C 0.65456 0.64704 0.01625 0.0
C953 C 0.64467 0.65965 0.95535 0.0
C954 C 0.65958 0.65364 0.93435 0.0
C955 C 0.6729 0.64549 0.95465 0.0
C956 C 0.67062 0.64244 -0.00471 0.0
C957 C 0.6591 0.65331 0.89095 0.0
C958 C 0.64948 0.6317 0.87221 0.0
C959 C 0.66566 0.67351 0.86848 0.0
C960 C 0.67627 0.69682 0.8869 0.0
C961 C 0.69642 0.70477 0.9111 0.0
C962 C 0.70627 0.72669 0.92853 0.0
C963 C 0.69619 0.74089 0.92181 0.0
C964 C 0.67628 0.73321 0.89758 0.0
C965 C 0.66636 0.71129 0.8801 0.0
H966 H 0.70384 0.75785 0.93532 0.0
H967 H 0.59858 0.54392 0.76999 0.0
H968 H 0.99524 0.62308 0.31175 0.0
H969 H 0.9878 0.62479 0.24185 0.0
H970 H 0.03885 0.69785 0.24052 0.0
H971 H 0.04708 0.69603 0.31013 0.0
H972 H 0.97255 0.64563 0.19584 0.0
H973 H 0.06885 0.71196 0.15412 0.0
H974 H 0.10954 0.72671 0.17969 0.0
H975 H 0.0879 0.66191 0.23823 0.0
H976 H 0.04723 0.64667 0.21259 0.0
H977 H 0.96929 0.65661 0.98919 0.0
H978 H 0.97706 0.66748 0.05861 0.0
H979 H 0.02487 0.63925 0.06341 0.0
H980 H 0.01841 0.62993 0.99365 0.0
H981 H 0.04201 0.67392 0.10675 0.0
H982 H 0.96192 0.60929 0.09287 0.0
H983 H 0.92008 0.58864 0.07134 0.0
H984 H 0.90809 0.64052 0.12621 0.0
H985 H 0.94993 0.6617 0.14743 0.0
C986 C 0.00462 0.63958 0.29673 0.0
C987 C 0.02195 0.65934 0.31629 0.0
C988 C 0.00034 0.64056 0.25675 0.0
C989 C 0.01311 0.66135 0.23572 0.0
C990 C 0.02921 0.68149 0.25589 0.0
C991 C 0.03381 0.68044 0.29571 0.0
C992 C 0.01059 0.6614 0.19238 0.0
C993 C 0.98774 0.65194 0.1763 0.0
C994 C 0.03041 0.66947 0.16689 0.0
C995 C 0.05495 0.6783 0.1818 0.0
C996 C 0.07282 0.70084 0.17229 0.0
C997 C 0.09587 0.70927 0.18677 0.0
C998 C 0.10127 0.69526 0.21058 0.0
C999 C 0.08368 0.67275 0.21983 0.0
C1000 C 0.06063 0.66421 0.20535 0.0
C1001 C 0.98175 0.65311 0.00504 0.0
C1002 C 0.99323 0.6424 0.98614 0.0
C1003 C 0.98603 0.65914 0.04479 0.0
C1004 C 0.00112 0.6537 0.06669 0.0
C1005 C 0.01316 0.64369 0.04733 0.0
C1006 C 0.00944 0.63832 0.0074 0.0
C1007 C 0.00381 0.6574 0.10996 0.0
C1008 C 0.02677 0.66782 0.12612 0.0
C1009 C 0.984 0.64945 0.13556 0.0
C1010 C 0.95911 0.63719 0.12136 0.0
C1011 C 0.95042 0.61643 0.09993 0.0
C1012 C 0.9267 0.60462 0.08784 0.0
C1013 C 0.91145 0.61328 0.09743 0.0
C1014 C 0.91993 0.63387 0.11875 0.0
C1015 C 0.94364 0.64579 0.13077 0.0
H1016 H 0.89301 0.60397 0.08857 0.0
H1017 H 0.11905 0.70187 0.222 0.0
H1018 H 0.37573 0.98977 0.42146 0.0
H1019 H 0.37883 0.98506 0.49177 0.0
H1020 H 0.37752 0.92001 0.4708 0.0
H1021 H 0.37341 0.92425 0.40049 0.0
H1022 H 0.3446 0.91248 0.51755 0.0
H1023 H 0.42493 0.96774 0.51658 0.0
H1024 H 0.46246 0.00352 0.50377 0.0
H1025 H 0.43735 0.04297 0.56869 0.0
H1026 H 0.39951 0.00751 0.58146 0.0
H1027 H 0.35589 0.95559 0.73829 0.0
H1028 H 0.37107 0.94312 0.68308 0.0
H1029 H 0.31407 0.93816 0.61023 0.0
H1030 H 0.29957 0.95171 0.66487 0.0
H1031 H 0.38646 0.97232 0.61957 0.0
H1032 H 0.30301 0.90027 0.53797 0.0
H1033 H 0.26735 0.86338 0.55438 0.0
H1034 H 0.30234 0.85611 0.65632 0.0
H1035 H 0.33835 0.89277 0.64025 0.0
C1036 C 0.37689 0.97483 0.4317 0.0
C1037 C 0.37387 0.95716 0.40556 0.0
C1038 C 0.37881 0.97219 0.47202 0.0
C1039 C 0.37832 0.95209 0.48677 0.0
C1040 C 0.37772 0.93556 0.46021 0.0
C1041 C 0.37536 0.938 0.41996 0.0
C1042 C 0.37403 0.94657 0.5293 0.0
C1043 C 0.35408 0.92546 0.53989 0.0
C1044 C 0.38677 0.96315 0.55883 0.0
C1045 C 0.40933 0.98478 0.55028 0.0
C1046 C 0.42732 0.98402 0.52806 0.0
C1047 C 0.44869 0.00428 0.52077 0.0
C1048 C 0.45232 0.0255 0.53548 0.0
C1049 C 0.43456 0.02651 0.55741 0.0
C1050 C 0.41315 0.00629 0.56477 0.0
C1051 C 0.34586 0.95059 0.71112 0.0
C1052 C 0.32658 0.95458 0.70561 0.0
C1053 C 0.35468 0.94362 0.67949 0.0
C1054 C 0.3437 0.93969 0.64258 0.0
C1055 C 0.32266 0.94085 0.6386 0.0
C1056 C 0.31428 0.94847 0.66983 0.0
C1057 C 0.35625 0.93919 0.60658 0.0
C1058 C 0.37759 0.95919 0.5972 0.0
C1059 C 0.34505 0.92153 0.57827 0.0
C1060 C 0.32342 0.89935 0.5879 0.0
C1061 C 0.30319 0.89074 0.56373 0.0
C1062 C 0.28288 0.86987 0.57302 0.0
C1063 C 0.28257 0.85742 0.60638 0.0
C1064 C 0.30258 0.86579 0.63052 0.0
C1065 C 0.32294 0.88664 0.62137 0.0
H1066 H 0.26682 0.84127 0.61352 0.0
H1067 H 0.46889 0.04117 0.52983 0.0
H1068 H 0.39516 0.45992 0.08869 0.0
H1069 H 0.43745 0.48775 0.08448 0.0
H1070 H 0.45381 0.43215 0.0984 0.0
H1071 H 0.41161 0.40451 0.10471 0.0
H1072 H 0.48135 0.4648 0.14237 0.0
H1073 H 0.46057 0.4626 0.00779 0.0
H1074 H 0.43793 0.46406 0.95056 0.0
H1075 H 0.45702 0.53439 0.97857 0.0
H1076 H 0.47952 0.53326 0.03631 0.0
H1077 H 0.60407 0.53935 0.09631 0.0
H1078 H 0.56276 0.50935 0.08582 0.0
H1079 H 0.5393 0.55859 0.11331 0.0
H1080 H 0.58031 0.58844 0.1249 0.0
H1081 H 0.51695 0.52785 0.04351 0.0
H1082 H 0.53511 0.52664 0.18233 0.0
H1083 H 0.55884 0.52397 0.23682 0.0
H1084 H 0.54561 0.4574 0.19494 0.0
H1085 H 0.52208 0.45986 0.13984 0.0
C1086 C 0.40777 0.45361 0.09048 0.0
C1087 C 0.40002 0.43 0.09714 0.0
C1088 C 0.43199 0.46953 0.08778 0.0
C1089 C 0.44895 0.46208 0.09051 0.0
C1090 C 0.44114 0.43839 0.09626 0.0
C1091 C 0.41695 0.42254 0.09983 0.0
C1092 C 0.47478 0.47914 0.0899 0.0
C1093 C 0.48911 0.47825 0.12018 0.0
C1094 C 0.48507 0.49699 0.06134 0.0
C1095 C 0.47158 0.49777 0.02659 0.0
C1096 C 0.4598 0.47833 0.00192 0.0
C1097 C 0.44702 0.4791 0.96936 0.0
C1098 C 0.44599 0.49929 0.96098 0.0
C1099 C 0.45781 0.51876 0.98511 0.0
C1100 C 0.47061 0.51807 0.01774 0.0
C1101 C 0.59015 0.54387 0.09975 0.0
C1102 C 0.59552 0.56633 0.1115 0.0
C1103 C 0.56659 0.52671 0.09374 0.0
C1104 C 0.54808 0.53183 0.0988 0.0
C1105 C 0.55341 0.55439 0.10908 0.0
C1106 C 0.57689 0.57143 0.11581 0.0
C1107 C 0.52305 0.51335 0.09591 0.0
C1108 C 0.509 0.51409 0.06515 0.0
C1109 C 0.51308 0.4951 0.1235 0.0
C1110 C 0.52709 0.49357 0.15673 0.0
C1111 C 0.53745 0.51154 0.18454 0.0
C1112 C 0.55082 0.51004 0.21557 0.0
C1113 C 0.5538 0.49056 0.21927 0.0
C1114 C 0.54334 0.4725 0.192 0.0
C1115 C 0.52997 0.47394 0.16088 0.0
H1116 H 0.56415 0.48943 0.24332 0.0
H1117 H 0.43608 0.49985 0.93575 0.0
H1118 H 0.0339 0.60056 0.44602 0.0
H1119 H 0.02513 0.56048 0.43925 0.0
H1120 H 0.08428 0.58193 0.35974 0.0
H1121 H 0.09268 0.62216 0.36527 0.0
H1122 H 0.04809 0.54369 0.33371 0.0
H1123 H 0.08835 0.5679 0.45568 0.0
H1124 H 0.09743 0.58555 0.5217 0.0
H1125 H 0.0283 0.53475 0.56206 0.0
H1126 H 0.01867 0.51698 0.49613 0.0
H1127 H 0.02697 0.42546 0.42867 0.0
H1128 H 0.0486 0.46782 0.42527 0.0
H1129 H 0.99287 0.46648 0.35341 0.0
H1130 H 0.97167 0.42431 0.35552 0.0
H1131 H 0.03639 0.49653 0.45352 0.0
H1132 H 0.01218 0.51259 0.29539 0.0
H1133 H 0.00702 0.49554 0.22921 0.0
H1134 H 0.05197 0.46705 0.26033 0.0
H1135 H 0.0577 0.4842 0.32648 0.0
C1136 C 0.04493 0.5968 0.42677 0.0
C1137 C 0.06395 0.61457 0.40611 0.0
C1138 C 0.04003 0.57386 0.42324 0.0
C1139 C 0.05431 0.56824 0.39956 0.0
C1140 C 0.07308 0.58588 0.37831 0.0
C1141 C 0.07788 0.60886 0.38157 0.0
C1142 C 0.04941 0.54388 0.39697 0.0
C1143 C 0.04566 0.53339 0.35986 0.0
C1144 C 0.04702 0.53063 0.43105 0.0
C1145 C 0.05274 0.54119 0.47086 0.0
C1146 C 0.07503 0.56058 0.47856 0.0
C1147 C 0.08028 0.57059 0.51598 0.0
C1148 C 0.06344 0.5613 0.54604 0.0
C1149 C 0.04133 0.54193 0.53875 0.0
C1150 C 0.03597 0.53186 0.50137 0.0
C1151 C 0.01958 0.43418 0.41148 0.0
C1152 C 0.99763 0.42152 0.3923 0.0
C1153 C 0.03192 0.4584 0.40969 0.0
C1154 C 0.0225 0.47037 0.38879 0.0
C1155 C 0.00081 0.45769 0.36899 0.0
C1156 C 0.9886 0.43352 0.37045 0.0
C1157 C 0.03414 0.49606 0.3903 0.0
C1158 C 0.03915 0.50685 0.42727 0.0
C1159 C 0.03831 0.50967 0.35603 0.0
C1160 C 0.03524 0.49958 0.31603 0.0
C1161 C 0.02109 0.50281 0.28805 0.0
C1162 C 0.01803 0.4931 0.25055 0.0
C1163 C 0.02911 0.48018 0.2406 0.0
C1164 C 0.04334 0.477 0.26811 0.0
C1165 C 0.04647 0.48669 0.30563 0.0
H1166 H 0.02671 0.47265 0.21157 0.0
H1167 H 0.06754 0.56908 0.57499 0.0
H1168 H 0.57404 0.98249 0.72601 0.0
H1169 H 0.54463 0.99568 0.7298 0.0
H1170 H 0.48868 0.92558 0.70855 0.0
H1171 H 0.51837 0.91297 0.70161 0.0
H1172 H 0.48001 0.95055 0.66688 0.0
H1173 H 0.50061 0.95638 0.80257 0.0
H1174 H 0.52703 0.96848 0.86036 0.0
H1175 H 0.55103 0.03997 0.83315 0.0
H1176 H 0.52497 0.0283 0.77488 0.0
H1177 H 0.40377 0.99612 0.77566 0.0
H1178 H 0.43429 0.98459 0.77658 0.0
H1179 H 0.44815 0.00159 0.65341 0.0
H1180 H 0.417 0.01247 0.65216 0.0
H1181 H 0.47797 0.00336 0.76831 0.0
H1182 H 0.46741 0.96855 0.60787 0.0
H1183 H 0.43685 0.94513 0.55892 0.0
H1184 H 0.38399 0.918 0.64961 0.0
H1185 H 0.41424 0.94119 0.69925 0.0
C1186 C 0.55539 0.96994 0.72282 0.0
C1187 C 0.54829 0.94673 0.7139 0.0
C1188 C 0.53856 0.97742 0.72513 0.0
C1189 C 0.51426 0.96163 0.71996 0.0
C1190 C 0.50725 0.93821 0.71244 0.0
C1191 C 0.52414 0.93092 0.7088 0.0
C1192 C 0.49625 0.96957 0.71983 0.0
C1193 C 0.47958 0.96207 0.68918 0.0
C1194 C 0.49534 0.98436 0.74911 0.0
C1195 C 0.51101 0.99146 0.78415 0.0
C1196 C 0.51165 0.97468 0.80875 0.0
C1197 C 0.52654 0.98147 0.84162 0.0
C1198 C 0.54075 0.00498 0.85036 0.0
C1199 C 0.54004 0.02176 0.82631 0.0
C1200 C 0.5252 0.01508 0.79338 0.0
C1201 C 0.41354 -0.00226 0.74887 0.0
C1202 C 0.40792 0.00521 0.7138 0.0
C1203 C 0.43097 0.99103 0.74938 0.0
C1204 C 0.44338 0.99182 0.71495 0.0
C1205 C 0.43848 0.00021 0.6802 0.0
C1206 C 0.42081 0.00666 0.67958 0.0
C1207 C 0.46141 0.98392 0.7157 0.0
C1208 C 0.47834 0.99175 0.74611 0.0
C1209 C 0.46185 0.96846 0.68727 0.0
C1210 C 0.44305 0.95687 0.65717 0.0
C1211 C 0.44919 0.95787 0.61729 0.0
C1212 C 0.43193 0.94459 0.58946 0.0
C1213 C 0.40845 0.93025 0.60112 0.0
C1214 C 0.40214 0.92931 0.64062 0.0
C1215 C 0.41931 0.94262 0.6686 0.0
H1216 H 0.39516 0.91981 0.57957 0.0
H1217 H 0.55226 0.0102 0.87581 0.0
H1218 H 0.52692 0.57783 0.62818 0.0
H1219 H 0.50274 0.53565 0.63301 0.0
H1220 H 0.55258 0.52766 0.55904 0.0
H1221 H 0.57642 0.56964 0.55324 0.0
H1222 H 0.50971 0.50134 0.5335 0.0
H1223 H 0.54824 0.51471 0.65679 0.0
H1224 H 0.56259 0.53293 0.72151 0.0
H1225 H 0.49076 0.50753 0.76011 0.0
H1226 H 0.47595 0.48937 0.69533 0.0
H1227 H 0.45282 0.37757 0.62251 0.0
H1228 H 0.48048 0.41909 0.62978 0.0
H1229 H 0.43579 0.43452 0.55565 0.0
H1230 H 0.40867 0.39326 0.54703 0.0
H1231 H 0.4794 0.45629 0.65686 0.0
H1232 H 0.4687 0.47839 0.49544 0.0
H1233 H 0.45901 0.45947 0.43038 0.0
H1234 H 0.48369 0.41291 0.4679 0.0
H1235 H 0.49383 0.43175 0.53297 0.0
C1236 C 0.53284 0.56709 0.61327 0.0
C1237 C 0.55361 0.5771 0.59036 0.0
C1238 C 0.51907 0.54298 0.61623 0.0
C1239 C 0.52592 0.5285 0.59657 0.0
C1240 C 0.54694 0.5385 0.57445 0.0
C1241 C 0.56064 0.56254 0.57134 0.0
C1242 C 0.51041 0.50296 0.59677 0.0
C1243 C 0.50314 0.49152 0.56051 0.0
C1244 C 0.50224 0.49004 0.63198 0.0
C1245 C 0.51099 0.50087 0.67105 0.0
C1246 C 0.5355 0.51317 0.67896 0.0
C1247 C 0.54372 0.52346 0.71569 0.0
C1248 C 0.52761 0.52146 0.74489 0.0
C1249 C 0.50323 0.50909 0.73744 0.0
C1250 C 0.4949 0.49877 0.70072 0.0
C1251 C 0.44881 0.38982 0.60796 0.0
C1252 C 0.42863 0.38208 0.58389 0.0
C1253 C 0.46459 0.41354 0.61231 0.0
C1254 C 0.46041 0.42989 0.59271 0.0
C1255 C 0.43961 0.4222 0.57042 0.0
C1256 C 0.42401 0.39855 0.56571 0.0
C1257 C 0.47834 0.45487 0.59358 0.0
C1258 C 0.48603 0.46618 0.62994 0.0
C1259 C 0.48757 0.46761 0.55843 0.0
C1260 C 0.4818 0.45635 0.51919 0.0
C1261 C 0.47215 0.46418 0.48974 0.0
C1262 C 0.46656 0.45346 0.45287 0.0
C1263 C 0.47067 0.43495 0.44506 0.0
C1264 C 0.48044 0.42719 0.47404 0.0
C1265 C 0.48609 0.43787 0.51093 0.0
H1266 H 0.46631 0.42666 0.41651 0.0
H1267 H 0.53403 0.52946 0.77331 0.0
H1268 H 0.98712 0.57296 0.84576 0.0
H1269 H -5e-05 0.544 0.85102 0.0
H1270 H 0.95351 0.51332 0.95056 0.0
H1271 H 0.93996 0.54195 0.94456 0.0
H1272 H 0.02182 0.53291 0.90265 0.0
H1273 H 0.93288 0.45506 0.95089 0.0
H1274 H 0.88987 0.44131 0.94617 0.0
H1275 H 0.90106 0.48025 0.83979 0.0
H1276 H 0.94406 0.49399 0.84365 0.0
H1277 H 0.04428 0.43914 0.93367 0.0
H1278 H 0.03062 0.46735 0.94443 0.0
H1279 H 0.98396 0.43993 0.84429 0.0
H1280 H 0.9969 0.41127 0.83432 0.0
H1281 H 0.96218 0.44927 0.89872 0.0
H1282 H 0.03982 0.49036 0.83978 0.0
H1283 H 0.08281 0.50429 0.83465 0.0
H1284 H 0.09424 0.53929 0.94549 0.0
H1285 H 0.05124 0.52531 0.95148 0.0
C1286 C 0.97972 0.56015 0.86896 0.0
C1287 C 0.96242 0.55964 0.89461 0.0
C1288 C 0.98714 0.54362 0.872 0.0
C1289 C 0.97753 0.52629 0.9009 0.0
C1290 C 0.96086 0.52625 0.92754 0.0
C1291 C 0.95319 0.54266 0.92418 0.0
C1292 C 0.9845 0.50794 0.90192 0.0
C1293 C 0.00876 0.51461 0.90208 0.0
C1294 C 0.96752 0.48405 0.90066 0.0
C1295 C 0.94169 0.47576 0.89786 0.0
C1296 C 0.92613 0.46063 0.92647 0.0
C1297 C 0.90177 0.45285 0.92394 0.0
C1298 C 0.89275 0.45998 0.89278 0.0
C1299 C 0.90807 0.47483 0.86399 0.0
C1300 C 0.93244 0.48263 0.86636 0.0
C1301 C 0.031 0.43906 0.91413 0.0
C1302 C 0.02174 0.42308 0.88302 0.0
C1303 C 0.02326 0.45523 0.92023 0.0
C1304 C 0.0065 0.45601 0.89482 0.0
C1305 C 0.99686 0.43967 0.86435 0.0
C1306 C 0.00433 0.42332 0.85859 0.0
C1307 C -0.0005 0.47425 0.89884 0.0
C1308 C 0.97524 0.46755 0.89985 0.0
C1309 C 0.01648 0.49815 0.89984 0.0
C1310 C 0.04231 0.50658 0.89628 0.0
C1311 C 0.05149 0.50089 0.86319 0.0
C1312 C 0.07585 0.50881 0.8601 0.0
C1313 C 0.09124 0.5226 0.88979 0.0
C1314 C 0.08229 0.52856 0.92256 0.0
C1315 C 0.05794 0.52065 0.92581 0.0
H1316 H 0.11009 0.52873 0.88735 0.0
H1317 H 0.87389 0.45395 0.8909 0.0
H1318 H 0.61508 0.07019 0.18159 0.0
H1319 H 0.57363 0.047 0.16106 0.0
H1320 H 0.55124 0.06726 0.26649 0.0
H1321 H 0.59233 0.09101 0.28627 0.0
H1322 H 0.54065 0.01077 0.1915 0.0
H1323 H 0.50053 0.066 0.25977 0.0
H1324 H 0.51084 0.10711 0.26349 0.0
H1325 H 0.5558 0.12238 0.16229 0.0
H1326 H 0.54549 0.0813 0.15753 0.0
H1327 H 0.43228 0.9442 0.28159 0.0
H1328 H 0.47169 0.96895 0.25514 0.0
H1329 H 0.44376 0.00232 0.17942 0.0
H1330 H 0.40427 0.97822 0.2074 0.0
H1331 H 0.47879 0.03356 0.21208 0.0
H1332 H 0.47025 0.96908 0.14271 0.0
H1333 H 0.45956 0.92852 0.1289 0.0
H1334 H 0.51098 0.93272 0.21322 0.0
H1335 H 0.52175 0.97319 0.22802 0.0
C1336 C 0.60132 0.07008 0.19996 0.0
C1337 C 0.60705 0.08246 0.23562 0.0
C1338 C 0.57762 0.05676 0.18821 0.0
C1339 C 0.55922 0.05551 0.21195 0.0
C1340 C 0.56502 0.06837 0.24701 0.0
C1341 C 0.58864 0.08187 0.2585 0.0
C1342 C 0.53392 0.03914 0.20263 0.0
C1343 C 0.5271 0.01578 0.19547 0.0
C1344 C 0.51619 0.04577 0.20584 0.0
C1345 C 0.52228 0.07052 0.20839 0.0
C1346 C 0.51247 0.07807 0.23811 0.0
C1347 C 0.51836 0.10139 0.24045 0.0
C1348 C 0.53399 0.11735 0.21319 0.0
C1349 C 0.54374 0.11001 0.18346 0.0
C1350 C 0.5379 0.08671 0.18096 0.0
C1351 C 0.43436 0.95637 0.25858 0.0
C1352 C 0.41518 0.95934 0.24683 0.0
C1353 C 0.45698 0.97048 0.24316 0.0
C1354 C 0.46083 0.98745 0.21484 0.0
C1355 C 0.44133 0.98942 0.20124 0.0
C1356 C 0.41874 0.97558 0.21721 0.0
C1357 C 0.48551 0.00492 0.20377 0.0
C1358 C 0.49224 0.02854 0.20699 0.0
C1359 C 0.50308 -0.0014 0.19529 0.0
C1360 C 0.49678 0.97422 0.18653 0.0
C1361 C 0.4792 0.96133 0.15848 0.0
C1362 C 0.47313 0.93834 0.15046 0.0
C1363 C 0.48457 0.92805 0.17018 0.0
C1364 C 0.50214 0.94073 0.19793 0.0
C1365 C 0.50828 0.96373 0.20608 0.0
H1366 H 0.47984 0.91025 0.16393 0.0
H1367 H 0.53853 0.1354 0.21507 0.0
loop_
_geom_bond_atom_site_label_1
_geom_bond_atom_site_label_2
_geom_bond_distance
_geom_bond_site_symmetry_2
_ccdc_geom_bond_type
Mg0 O1 2.028 . S
Mg0 O7 1.986 . S
Mg0 O9 2.114 . S
Mg0 O10 2.251 . S
Mg0 O13 2.010 . S
O1 Mg0 2.028 . S
O1 C4 1.250 . S
O2 Mg3 2.028 . S
O2 C4 1.248 . S
Mg3 O2 2.028 . S
Mg3 O8 2.032 . S
Mg3 O10 2.079 . S
C4 O1 1.250 . S
C4 O2 1.248 . S
C5 O6 1.264 . S
C5 O13 1.249 . S
O6 C5 1.264 . S
O7 Mg0 1.986 . S
O7 C11 1.246 . S
O8 Mg3 2.032 . S
O8 C11 1.259 . S
O9 Mg0 2.114 . S
O9 C12 1.252 . S
O10 Mg0 2.251 . S
O10 Mg3 2.079 . S
O10 C12 1.273 . S
C11 O7 1.246 . S
C11 O8 1.259 . S
C12 O9 1.252 . S
C12 O10 1.273 . S
O13 Mg0 2.010 . S
O13 C5 1.249 . S
Mg14 O15 2.028 . S
Mg14 O21 1.986 . S
Mg14 O23 2.114 . S
Mg14 O24 2.251 . S
Mg14 O27 2.010 . S
O15 Mg14 2.028 . S
O15 C18 1.250 . S
O16 Mg17 2.028 . S
O16 C18 1.248 . S
Mg17 O16 2.028 . S
Mg17 O22 2.032 . S
Mg17 O24 2.079 . S
C18 O15 1.250 . S
C18 O16 1.248 . S
C19 O20 1.264 . S
C19 O27 1.249 . S
O20 C19 1.264 . S
O21 Mg14 1.986 . S
O21 C25 1.246 . S
O22 Mg17 2.032 . S
O22 C25 1.259 . S
O23 Mg14 2.114 . S
O23 C26 1.252 . S
O24 Mg14 2.251 . S
O24 Mg17 2.079 . S
O24 C26 1.273 . S
C25 O21 1.246 . S
C25 O22 1.259 . S
C26 O23 1.252 . S
C26 O24 1.273 . S
O27 Mg14 2.010 . S
O27 C19 1.249 . S
Mg28 O29 2.028 . S
Mg28 O35 1.986 . S
Mg28 O37 2.114 . S
Mg28 O38 2.251 . S
Mg28 O41 2.010 . S
O29 Mg28 2.028 . S
O29 C32 1.250 . S
O30 Mg31 2.028 . S
O30 C32 1.248 . S
Mg31 O30 2.028 . S
Mg31 O36 2.032 . S
Mg31 O38 2.079 . S
C32 O29 1.250 . S
C32 O30 1.248 . S
C33 O34 1.264 . S
C33 O41 1.249 . S
O34 C33 1.264 . S
O35 Mg28 1.986 . S
O35 C39 1.246 . S
O36 Mg31 2.032 . S
O36 C39 1.259 . S
O37 Mg28 2.114 . S
O37 C40 1.252 . S
O38 Mg28 2.251 . S
O38 Mg31 2.079 . S
O38 C40 1.273 . S
C39 O35 1.246 . S
C39 O36 1.259 . S
C40 O37 1.252 . S
C40 O38 1.273 . S
O41 Mg28 2.010 . S
O41 C33 1.249 . S
Mg42 O43 2.028 . S
Mg42 O49 1.986 . S
Mg42 O51 2.114 . S
Mg42 O52 2.251 . S
Mg42 O55 2.010 . S
O43 Mg42 2.028 . S
O43 C46 1.250 . S
O44 Mg45 2.028 . S
O44 C46 1.248 . S
Mg45 O44 2.028 . S
Mg45 O50 2.032 . S
Mg45 O52 2.079 . S
C46 O43 1.250 . S
C46 O44 1.248 . S
C47 O48 1.264 . S
C47 O55 1.249 . S
O48 C47 1.264 . S
O49 Mg42 1.986 . S
O49 C53 1.246 . S
O50 Mg45 2.032 . S
O50 C53 1.259 . S
O51 Mg42 2.114 . S
O51 C54 1.252 . S
O52 Mg42 2.251 . S
O52 Mg45 2.079 . S
O52 C54 1.273 . S
C53 O49 1.246 . S
C53 O50 1.259 . S
C54 O51 1.252 . S
C54 O52 1.273 . S
O55 Mg42 2.010 . S
O55 C47 1.249 . S
Mg56 O57 2.028 . S
Mg56 O63 1.986 . S
Mg56 O65 2.114 . S
Mg56 O66 2.251 . S
Mg56 O69 2.010 . S
O57 Mg56 2.028 . S
O57 C60 1.250 . S
O58 Mg59 2.028 . S
O58 C60 1.248 . S
Mg59 O58 2.028 . S
Mg59 O64 2.032 . S
Mg59 O66 2.079 . S
C60 O57 1.250 . S
C60 O58 1.248 . S
C61 O62 1.264 . S
C61 O69 1.249 . S
O62 C61 1.264 . S
O63 Mg56 1.986 . S
O63 C67 1.246 . S
O64 Mg59 2.032 . S
O64 C67 1.259 . S
O65 Mg56 2.114 . S
O65 C68 1.252 . S
O66 Mg56 2.251 . S
O66 Mg59 2.079 . S
O66 C68 1.273 . S
C67 O63 1.246 . S
C67 O64 1.259 . S
C68 O65 1.252 . S
C68 O66 1.273 . S
O69 Mg56 2.010 . S
O69 C61 1.249 . S
Mg70 O71 2.028 . S
Mg70 O77 1.986 . S
Mg70 O79 2.114 . S
Mg70 O80 2.251 . S
Mg70 O83 2.010 . S
O71 Mg70 2.028 . S
O71 C74 1.250 . S
O72 Mg73 2.028 . S
O72 C74 1.248 . S
Mg73 O72 2.028 . S
Mg73 O78 2.032 . S
Mg73 O80 2.079 . S
C74 O71 1.250 . S
C74 O72 1.248 . S
C75 O76 1.264 . S
C75 O83 1.249 . S
O76 C75 1.264 . S
O77 Mg70 1.986 . S
O77 C81 1.246 . S
O78 Mg73 2.032 . S
O78 C81 1.259 . S
O79 Mg70 2.114 . S
O79 C82 1.252 . S
O80 Mg70 2.251 . S
O80 Mg73 2.079 . S
O80 C82 1.273 . S
C81 O77 1.246 . S
C81 O78 1.259 . S
C82 O79 1.252 . S
C82 O80 1.273 . S
O83 Mg70 2.010 . S
O83 C75 1.249 . S
Mg84 O85 2.028 . S
Mg84 O91 1.986 . S
Mg84 O93 2.114 . S
Mg84 O94 2.251 . S
Mg84 O97 2.010 . S
O85 Mg84 2.028 . S
O85 C88 1.250 . S
O86 Mg87 2.028 . S
O86 C88 1.248 . S
Mg87 O86 2.028 . S
Mg87 O92 2.032 . S
Mg87 O94 2.079 . S
C88 O85 1.250 . S
C88 O86 1.248 . S
C89 O90 1.264 . S
C89 O97 1.249 . S
O90 C89 1.264 . S
O91 Mg84 1.986 . S
O91 C95 1.246 . S
O92 Mg87 2.032 . S
O92 C95 1.259 . S
O93 Mg84 2.114 . S
O93 C96 1.252 . S
O94 Mg84 2.251 . S
O94 Mg87 2.079 . S
O94 C96 1.273 . S
C95 O91 1.246 . S
C95 O92 1.259 . S
C96 O93 1.252 . S
C96 O94 1.273 . S
O97 Mg84 2.010 . S
O97 C89 1.249 . S
Mg98 O99 2.028 . S
Mg98 O105 1.986 . S
Mg98 O107 2.114 . S
Mg98 O108 2.251 . S
Mg98 O111 2.010 . S
O99 Mg98 2.028 . S
O99 C102 1.250 . S
O100 Mg101 2.028 . S
O100 C102 1.248 1_455 S
Mg101 O100 2.028 . S
Mg101 O106 2.032 . S
Mg101 O108 2.079 1_455 S
C102 O99 1.250 . S
C102 O100 1.248 1_655 S
C103 O104 1.264 . S
C103 O111 1.249 . S
O104 C103 1.264 . S
O105 Mg98 1.986 . S
O105 C109 1.246 . S
O106 Mg101 2.032 . S
O106 C109 1.259 1_455 S
O107 Mg98 2.114 . S
O107 C110 1.252 . S
O108 Mg98 2.251 . S
O108 Mg101 2.079 1_655 S
O108 C110 1.273 . S
C109 O105 1.246 . S
C109 O106 1.259 1_655 S
C110 O107 1.252 . S
C110 O108 1.273 . S
O111 Mg98 2.010 . S
O111 C103 1.249 . S
Mg112 O113 2.028 . S
Mg112 O119 1.986 . S
Mg112 O121 2.114 . S
Mg112 O122 2.251 . S
Mg112 O125 2.010 . S
O113 Mg112 2.028 . S
O113 C116 1.250 . S
O114 Mg115 2.028 . S
O114 C116 1.248 . S
Mg115 O114 2.028 . S
Mg115 O120 2.032 . S
Mg115 O122 2.079 . S
C116 O113 1.250 . S
C116 O114 1.248 . S
C117 O118 1.264 . S
C117 O125 1.249 . S
O118 C117 1.264 . S
O119 Mg112 1.986 . S
O119 C123 1.246 . S
O120 Mg115 2.032 . S
O120 C123 1.259 . S
O121 Mg112 2.114 . S
O121 C124 1.252 . S
O122 Mg112 2.251 . S
O122 Mg115 2.079 . S
O122 C124 1.273 . S
C123 O119 1.246 . S
C123 O120 1.259 . S
C124 O121 1.252 . S
C124 O122 1.273 . S
O125 Mg112 2.010 . S
O125 C117 1.249 . S
Mg126 O127 2.028 . S
Mg126 O133 1.986 . S
Mg126 O135 2.114 . S
Mg126 O136 2.251 . S
Mg126 O139 2.010 . S
O127 Mg126 2.028 . S
O127 C130 1.250 . S
O128 Mg129 2.028 . S
O128 C130 1.248 . S
Mg129 O128 2.028 . S
Mg129 O134 2.032 . S
Mg129 O136 2.079 . S
C130 O127 1.250 . S
C130 O128 1.248 . S
C131 O132 1.264 . S
C131 O139 1.249 . S
O132 C131 1.264 . S
O133 Mg126 1.986 . S
O133 C137 1.246 . S
O134 Mg129 2.032 . S
O134 C137 1.259 . S
O135 Mg126 2.114 . S
O135 C138 1.252 . S
O136 Mg126 2.251 . S
O136 Mg129 2.079 . S
O136 C138 1.273 . S
C137 O133 1.246 . S
C137 O134 1.259 . S
C138 O135 1.252 . S
C138 O136 1.273 . S
O139 Mg126 2.010 . S
O139 C131 1.249 . S
Mg140 O141 2.028 . S
Mg140 O147 1.986 . S
Mg140 O149 2.114 . S
Mg140 O150 2.251 . S
Mg140 O153 2.010 . S
O141 Mg140 2.028 . S
O141 C144 1.250 . S
O142 Mg143 2.028 . S
O142 C144 1.248 1_655 S
Mg143 O142 2.028 . S
Mg143 O148 2.032 . S
Mg143 O150 2.079 1_655 S
C144 O141 1.250 . S
C144 O142 1.248 1_455 S
C145 O146 1.264 . S
C145 O153 1.249 . S
O146 C145 1.264 . S
O147 Mg140 1.986 . S
O147 C151 1.246 . S
O148 Mg143 2.032 . S
O148 C151 1.259 1_655 S
O149 Mg140 2.114 . S
O149 C152 1.252 . S
O150 Mg140 2.251 . S
O150 Mg143 2.079 1_455 S
O150 C152 1.273 . S
C151 O147 1.246 . S
C151 O148 1.259 1_455 S
C152 O149 1.252 . S
C152 O150 1.273 . S
O153 Mg140 2.010 . S
O153 C145 1.249 . S
Mg154 O155 2.028 . S
Mg154 O161 1.986 . S
Mg154 O163 2.114 . S
Mg154 O164 2.251 . S
Mg154 O167 2.010 . S
O155 Mg154 2.028 . S
O155 C158 1.250 . S
O156 Mg157 2.028 . S
O156 C158 1.248 . S
Mg157 O156 2.028 . S
Mg157 O162 2.032 . S
Mg157 O164 2.079 . S
C158 O155 1.250 . S
C158 O156 1.248 . S
C159 O160 1.264 . S
C159 O167 1.249 . S
O160 C159 1.264 . S
O161 Mg154 1.986 . S
O161 C165 1.246 . S
O162 Mg157 2.032 . S
O162 C165 1.259 . S
O163 Mg154 2.114 . S
O163 C166 1.252 . S
O164 Mg154 2.251 . S
O164 Mg157 2.079 . S
O164 C166 1.273 . S
C165 O161 1.246 . S
C165 O162 1.259 . S
C166 O163 1.252 . S
C166 O164 1.273 . S
O167 Mg154 2.010 . S
O167 C159 1.249 . S
H168 C186 0.951 . S
H169 C188 0.951 . S
H170 C190 0.950 . S
H171 C191 0.950 . S
H172 C193 0.950 . S
H173 C196 0.950 . S
H174 C197 0.950 . S
H175 C199 0.950 . S
H176 C200 0.950 . S
H177 C201 0.951 . S
H178 C203 0.951 . S
H179 C205 0.950 . S
H180 C206 0.950 . S
H181 C208 0.950 . S
H182 C211 0.950 . S
H183 C212 0.950 . S
H184 C214 0.950 . S
H185 C215 0.950 . S
C186 H168 0.951 . S
C186 C187 1.366 . S
C186 C188 1.388 . S
C187 C186 1.366 . S
C187 C191 1.385 . S
C188 H169 0.951 . S
C188 C186 1.388 . S
C188 C189 1.366 . S
C189 C188 1.366 . S
C189 C190 1.414 . S
C189 C192 1.499 . S
C190 H170 0.950 . S
C190 C189 1.414 . S
C190 C191 1.374 . S
C191 H171 0.950 . S
C191 C187 1.385 . S
C191 C190 1.374 . S
C192 C189 1.499 . S
C192 C193 1.373 . S
C192 C194 1.389 . S
C193 H172 0.950 . S
C193 C192 1.373 . S
C193 C209 1.377 . S
C194 C192 1.389 . S
C194 C195 1.524 . S
C194 C208 1.377 . S
C195 C194 1.524 . S
C195 C196 1.397 . S
C195 C200 1.363 . S
C196 H173 0.950 . S
C196 C195 1.397 . S
C196 C197 1.334 . S
C197 H174 0.950 . S
C197 C196 1.334 . S
C197 C198 1.287 . S
C198 C197 1.287 . S
C198 C199 1.524 . S
C198 H217 0.913 . S
C199 H175 0.950 . S
C199 C198 1.524 . S
C199 C200 1.415 . S
C200 H176 0.950 . S
C200 C195 1.363 . S
C200 C199 1.415 . S
C201 H177 0.951 . S
C201 C202 1.366 . S
C201 C203 1.388 . S
C202 C201 1.366 . S
C202 C206 1.385 . S
C203 H178 0.951 . S
C203 C201 1.388 . S
C203 C204 1.366 . S
C204 C203 1.366 . S
C204 C205 1.414 . S
C204 C207 1.499 . S
C205 H179 0.950 . S
C205 C204 1.414 . S
C205 C206 1.374 . S
C206 H180 0.950 . S
C206 C202 1.385 . S
C206 C205 1.374 . S
C207 C204 1.499 . S
C207 C208 1.373 . S
C207 C209 1.389 . S
C208 H181 0.950 . S
C208 C194 1.377 . S
C208 C207 1.373 . S
C209 C193 1.377 . S
C209 C207 1.389 . S
C209 C210 1.524 . S
C210 C209 1.524 . S
C210 C211 1.397 . S
C210 C215 1.363 . S
C211 H182 0.950 . S
C211 C210 1.397 . S
C211 C212 1.334 . S
C212 H183 0.950 . S
C212 C211 1.334 . S
C212 C213 1.287 . S
C213 C212 1.287 . S
C213 C214 1.524 . S
C213 H216 0.999 . S
C214 H184 0.950 . S
C214 C213 1.524 . S
C214 C215 1.415 . S
C215 H185 0.950 . S
C215 C210 1.363 . S
C215 C214 1.415 . S
H216 C213 0.999 . S
H217 C198 0.913 . S
H218 C236 0.951 . S
H219 C238 0.951 . S
H220 C240 0.950 1_455 S
H221 C241 0.950 1_455 S
H222 C243 0.950 . S
H223 C246 0.950 . S
H224 C247 0.950 . S
H225 C249 0.950 . S
H226 C250 0.950 . S
H227 C251 0.951 . S
H228 C253 0.951 . S
H229 C255 0.950 . S
H230 C256 0.950 . S
H231 C258 0.950 . S
H232 C261 0.950 . S
H233 C262 0.950 . S
H234 C264 0.950 . S
H235 C265 0.950 . S
C236 H218 0.951 . S
C236 C237 1.366 . S
C236 C238 1.388 . S
C237 C236 1.366 . S
C237 C241 1.385 . S
C238 H219 0.951 . S
C238 C236 1.388 . S
C238 C239 1.366 . S
C239 C238 1.366 . S
C239 C240 1.414 . S
C239 C242 1.499 . S
C240 H220 0.950 1_655 S
C240 C239 1.414 . S
C240 C241 1.374 . S
C241 H221 0.950 1_655 S
C241 C237 1.385 . S
C241 C240 1.374 . S
C242 C239 1.499 . S
C242 C243 1.373 1_655 S
C242 C244 1.389 . S
C243 H222 0.950 . S
C243 C242 1.373 1_455 S
C243 C259 1.377 . S
C244 C242 1.389 . S
C244 C245 1.524 . S
C244 C258 1.377 . S
C245 C244 1.524 . S
C245 C246 1.397 . S
C245 C250 1.363 . S
C246 H223 0.950 . S
C246 C245 1.397 . S
C246 C247 1.334 . S
C247 H224 0.950 . S
C247 C246 1.334 . S
C247 C248 1.287 . S
C248 C247 1.287 . S
C248 C249 1.524 . S
C248 H267 0.913 . S
C249 H225 0.950 . S
C249 C248 1.524 . S
C249 C250 1.415 . S
C250 H226 0.950 . S
C250 C245 1.363 . S
C250 C249 1.415 . S
C251 H227 0.951 . S
C251 C252 1.366 . S
C251 C253 1.388 . S
C252 C251 1.366 . S
C252 C256 1.385 1_455 S
C253 H228 0.951 . S
C253 C251 1.388 . S
C253 C254 1.376 . S
C254 C253 1.376 . S
C254 C255 1.407 1_455 S
C254 C257 1.495 1_455 S
C255 H229 0.950 . S
C255 C254 1.407 1_655 S
C255 C256 1.374 . S
C256 H230 0.950 . S
C256 C252 1.385 1_655 S
C256 C255 1.374 . S
C257 C254 1.495 1_655 S
C257 C258 1.373 . S
C257 C259 1.389 1_655 S
C258 H231 0.950 . S
C258 C244 1.377 . S
C258 C257 1.373 . S
C259 C243 1.377 . S
C259 C257 1.389 1_455 S
C259 C260 1.524 . S
C260 C259 1.524 . S
C260 C261 1.397 . S
C260 C265 1.363 . S
C261 H232 0.950 . S
C261 C260 1.397 . S
C261 C262 1.334 . S
C262 H233 0.950 . S
C262 C261 1.334 . S
C262 C263 1.287 . S
C263 C262 1.287 . S
C263 C264 1.524 . S
C263 H266 0.999 . S
C264 H234 0.950 . S
C264 C263 1.524 . S
C264 C265 1.415 . S
C265 H235 0.950 . S
C265 C260 1.363 . S
C265 C264 1.415 . S
H266 C263 0.999 . S
H267 C248 0.913 . S
H268 C286 0.951 . S
H269 C288 0.951 . S
H270 C290 0.950 . S
H271 C291 0.950 . S
H272 C293 0.950 . S
H273 C296 0.950 . S
H274 C297 0.950 . S
H275 C299 0.950 . S
H276 C300 0.950 . S
H277 C301 0.951 . S
H278 C303 0.951 . S
H279 C305 0.950 . S
H280 C306 0.950 . S
H281 C308 0.950 . S
H282 C311 0.950 . S
H283 C312 0.950 . S
H284 C314 0.950 . S
H285 C315 0.950 . S
C286 H268 0.951 . S
C286 C287 1.366 . S
C286 C288 1.388 . S
C287 C286 1.366 . S
C287 C291 1.385 . S
C288 H269 0.951 . S
C288 C286 1.388 . S
C288 C289 1.366 . S
C289 C288 1.366 . S
C289 C290 1.414 . S
C289 C292 1.499 . S
C290 H270 0.950 . S
C290 C289 1.414 . S
C290 C291 1.374 . S
C291 H271 0.950 . S
C291 C287 1.385 . S
C291 C290 1.374 . S
C292 C289 1.499 . S
C292 C293 1.373 . S
C292 C294 1.389 1_565 S
C293 H272 0.950 . S
C293 C292 1.373 . S
C293 C309 1.377 1_556 S
C294 C292 1.389 1_545 S
C294 C295 1.524 . S
C294 C308 1.377 1_556 S
C295 C294 1.524 . S
C295 C296 1.397 . S
C295 C300 1.363 . S
C296 H273 0.950 . S
C296 C295 1.397 . S
C296 C297 1.334 . S
C297 H274 0.950 . S
C297 C296 1.334 . S
C297 C298 1.287 . S
C298 C297 1.287 . S
C298 C299 1.524 . S
C298 H317 0.913 . S
C299 H275 0.950 . S
C299 C298 1.524 . S
C299 C300 1.415 . S
C300 H276 0.950 . S
C300 C295 1.363 . S
C300 C299 1.415 . S
C301 H277 0.951 . S
C301 C302 1.366 . S
C301 C303 1.388 . S
C302 C301 1.366 . S
C302 C306 1.385 . S
C303 H278 0.951 . S
C303 C301 1.388 . S
C303 C304 1.366 . S
C304 C303 1.366 . S
C304 C305 1.414 . S
C304 C307 1.499 . S
C305 H279 0.950 . S
C305 C304 1.414 . S
C305 C306 1.374 . S
C306 H280 0.950 . S
C306 C302 1.385 . S
C306 C305 1.374 . S
C307 C304 1.499 . S
C307 C308 1.373 . S
C307 C309 1.389 1_545 S
C308 H281 0.950 . S
C308 C294 1.377 1_554 S
C308 C307 1.373 . S
C309 C293 1.377 1_554 S
C309 C307 1.389 1_565 S
C309 C310 1.524 . S
C310 C309 1.524 . S
C310 C311 1.397 . S
C310 C315 1.363 . S
C311 H282 0.950 . S
C311 C310 1.397 . S
C311 C312 1.334 . S
C312 H283 0.950 . S
C312 C311 1.334 . S
C312 C313 1.287 . S
C313 C312 1.287 . S
C313 C314 1.524 . S
C313 H316 0.999 . S
C314 H284 0.950 . S
C314 C313 1.524 . S
C314 C315 1.415 . S
C315 H285 0.950 . S
C315 C310 1.363 . S
C315 C314 1.415 . S
H316 C313 0.999 . S
H317 C298 0.913 . S
H318 C336 0.951 . S
H319 C338 0.951 . S
H320 C340 0.950 . S
H321 C341 0.950 . S
H322 C343 0.950 . S
H323 C346 0.950 . S
H324 C347 0.950 . S
H325 C349 0.950 . S
H326 C350 0.950 . S
H327 C351 0.951 . S
H328 C353 0.951 . S
H329 C355 0.950 . S
H330 C356 0.950 . S
H331 C358 0.950 . S
H332 C361 0.950 . S
H333 C362 0.950 . S
H334 C364 0.950 . S
H335 C365 0.950 . S
C336 H318 0.951 . S
C336 C337 1.366 . S
C336 C338 1.388 . S
C337 C336 1.366 . S
C337 C341 1.385 . S
C338 H319 0.951 . S
C338 C336 1.388 . S
C338 C339 1.366 . S
C339 C338 1.366 . S
C339 C340 1.414 . S
C339 C342 1.499 . S
C340 H320 0.950 . S
C340 C339 1.414 . S
C340 C341 1.374 . S
C341 H321 0.950 . S
C341 C337 1.385 . S
C341 C340 1.374 . S
C342 C339 1.499 . S
C342 C343 1.373 . S
C342 C344 1.389 . S
C343 H322 0.950 . S
C343 C342 1.373 . S
C343 C359 1.377 . S
C344 C342 1.389 . S
C344 C345 1.524 . S
C344 C358 1.377 . S
C345 C344 1.524 . S
C345 C346 1.397 . S
C345 C350 1.363 . S
C346 H323 0.950 . S
C346 C345 1.397 . S
C346 C347 1.334 . S
C347 H324 0.950 . S
C347 C346 1.334 . S
C347 C348 1.287 . S
C348 C347 1.287 . S
C348 C349 1.524 . S
C348 H367 0.913 . S
C349 H325 0.950 . S
C349 C348 1.524 . S
C349 C350 1.415 . S
C350 H326 0.950 . S
C350 C345 1.363 . S
C350 C349 1.415 . S
C351 H327 0.951 . S
C351 C352 1.366 . S
C351 C353 1.388 . S
C352 C351 1.366 . S
C352 C356 1.385 . S
C353 H328 0.951 . S
C353 C351 1.388 . S
C353 C354 1.366 . S
C354 C353 1.366 . S
C354 C355 1.414 . S
C354 C357 1.499 . S
C355 H329 0.950 . S
C355 C354 1.414 . S
C355 C356 1.374 . S
C356 H330 0.950 . S
C356 C352 1.385 . S
C356 C355 1.374 . S
C357 C354 1.499 . S
C357 C358 1.373 . S
C357 C359 1.389 . S
C358 H331 0.950 . S
C358 C344 1.377 . S
C358 C357 1.373 . S
C359 C343 1.377 . S
C359 C357 1.389 . S
C359 C360 1.524 . S
C360 C359 1.524 . S
C360 C361 1.397 . S
C360 C365 1.363 . S
C361 H332 0.950 . S
C361 C360 1.397 . S
C361 C362 1.334 . S
C362 H333 0.950 . S
C362 C361 1.334 . S
C362 C363 1.287 . S
C363 C362 1.287 . S
C363 C364 1.524 . S
C363 H366 0.999 . S
C364 H334 0.950 . S
C364 C363 1.524 . S
C364 C365 1.415 . S
C365 H335 0.950 . S
C365 C360 1.363 . S
C365 C364 1.415 . S
H366 C363 0.999 . S
H367 C348 0.913 . S
H368 C386 0.951 . S
H369 C388 0.951 . S
H370 C390 0.950 . S
H371 C391 0.950 . S
H372 C393 0.950 . S
H373 C396 0.950 . S
H374 C397 0.950 . S
H375 C399 0.950 1_655 S
H376 C400 0.950 . S
H377 C401 0.951 . S
H378 C403 0.951 . S
H379 C405 0.950 1_655 S
H380 C406 0.950 1_655 S
H381 C408 0.950 . S
H382 C411 0.950 . S
H383 C412 0.950 . S
H384 C414 0.950 . S
H385 C415 0.950 . S
C386 H368 0.951 . S
C386 C387 1.366 . S
C386 C388 1.388 . S
C387 C386 1.366 . S
C387 C391 1.385 1_655 S
C388 H369 0.951 . S
C388 C386 1.388 . S
C388 C389 1.366 1_655 S
C389 C388 1.366 1_455 S
C389 C390 1.414 . S
C389 C392 1.499 . S
C390 H370 0.950 . S
C390 C389 1.414 . S
C390 C391 1.374 . S
C391 H371 0.950 . S
C391 C387 1.385 1_455 S
C391 C390 1.374 . S
C392 C389 1.499 . S
C392 C393 1.373 . S
C392 C394 1.389 . S
C393 H372 0.950 . S
C393 C392 1.373 . S
C393 C409 1.377 . S
C394 C392 1.389 . S
C394 C395 1.524 . S
C394 C408 1.377 . S
C395 C394 1.524 . S
C395 C396 1.397 . S
C395 C400 1.363 1_455 S
C396 H373 0.950 . S
C396 C395 1.397 . S
C396 C397 1.334 . S
C397 H374 0.950 . S
C397 C396 1.334 . S
C397 C398 1.287 . S
C398 C397 1.287 . S
C398 C399 1.524 . S
C398 H417 0.913 . S
C399 H375 0.950 1_455 S
C399 C398 1.524 . S
C399 C400 1.415 1_455 S
C400 H376 0.950 . S
C400 C395 1.363 1_655 S
C400 C399 1.415 1_655 S
C401 H377 0.951 . S
C401 C402 1.366 . S
C401 C403 1.388 . S
C402 C401 1.366 . S
C402 C406 1.385 . S
C403 H378 0.951 . S
C403 C401 1.388 . S
C403 C404 1.366 . S
C404 C403 1.366 . S
C404 C405 1.414 . S
C404 C407 1.499 . S
C405 H379 0.950 1_455 S
C405 C404 1.414 . S
C405 C406 1.374 . S
C406 H380 0.950 1_455 S
C406 C402 1.385 . S
C406 C405 1.374 . S
C407 C404 1.499 . S
C407 C408 1.373 . S
C407 C409 1.389 . S
C408 H381 0.950 . S
C408 C394 1.377 . S
C408 C407 1.373 . S
C409 C393 1.377 . S
C409 C407 1.389 . S
C409 C410 1.524 . S
C410 C409 1.524 . S
C410 C411 1.397 1_455 S
C410 C415 1.363 . S
C411 H382 0.950 . S
C411 C410 1.397 1_655 S
C411 C412 1.334 . S
C412 H383 0.950 . S
C412 C411 1.334 . S
C412 C413 1.287 . S
C413 C412 1.287 . S
C413 C414 1.524 1_655 S
C413 H416 0.999 . S
C414 H384 0.950 . S
C414 C413 1.524 1_455 S
C414 C415 1.415 . S
C415 H385 0.950 . S
C415 C410 1.363 . S
C415 C414 1.415 . S
H416 C413 0.999 . S
H417 C398 0.913 . S
H418 C436 0.951 . S
H419 C438 0.951 . S
H420 C440 0.950 . S
H421 C441 0.950 1_545 S
H422 C443 0.950 . S
H423 C446 0.950 . S
H424 C447 0.950 . S
H425 C449 0.950 . S
H426 C450 0.950 . S
H427 C451 0.951 . S
H428 C453 0.951 . S
H429 C455 0.950 . S
H430 C456 0.950 1_565 S
H431 C458 0.950 . S
H432 C461 0.950 . S
H433 C462 0.950 . S
H434 C464 0.950 . S
H435 C465 0.950 . S
C436 H418 0.951 . S
C436 C437 1.366 . S
C436 C438 1.388 . S
C437 C436 1.366 . S
C437 C441 1.385 . S
C438 H419 0.951 . S
C438 C436 1.388 . S
C438 C439 1.366 . S
C439 C438 1.366 . S
C439 C440 1.414 1_565 S
C439 C442 1.499 . S
C440 H420 0.950 . S
C440 C439 1.414 1_545 S
C440 C441 1.374 1_545 S
C441 H421 0.950 1_565 S
C441 C437 1.385 . S
C441 C440 1.374 1_565 S
C442 C439 1.499 . S
C442 C443 1.373 . S
C442 C444 1.389 . S
C443 H422 0.950 . S
C443 C442 1.373 . S
C443 C459 1.377 1_564 S
C444 C442 1.389 . S
C444 C445 1.524 . S
C444 C458 1.377 1_564 S
C445 C444 1.524 . S
C445 C446 1.397 1_565 S
C445 C450 1.363 . S
C446 H423 0.950 . S
C446 C445 1.397 1_545 S
C446 C447 1.334 . S
C447 H424 0.950 . S
C447 C446 1.334 . S
C447 C448 1.287 . S
C448 C447 1.287 . S
C448 C449 1.524 1_545 S
C448 H467 0.913 . S
C449 H425 0.950 . S
C449 C448 1.524 1_565 S
C449 C450 1.415 . S
C450 H426 0.950 . S
C450 C445 1.363 . S
C450 C449 1.415 . S
C451 H427 0.951 . S
C451 C452 1.366 . S
C451 C453 1.388 . S
C452 C451 1.366 . S
C452 C456 1.385 . S
C453 H428 0.951 . S
C453 C451 1.388 . S
C453 C454 1.366 . S
C454 C453 1.366 . S
C454 C455 1.414 1_545 S
C454 C457 1.499 . S
C455 H429 0.950 . S
C455 C454 1.414 1_565 S
C455 C456 1.374 1_565 S
C456 H430 0.950 1_545 S
C456 C452 1.385 . S
C456 C455 1.374 1_545 S
C457 C454 1.499 . S
C457 C458 1.373 . S
C457 C459 1.389 . S
C458 H431 0.950 . S
C458 C444 1.377 1_546 S
C458 C457 1.373 . S
C459 C443 1.377 1_546 S
C459 C457 1.389 . S
C459 C460 1.524 . S
C460 C459 1.524 . S
C460 C461 1.397 1_545 S
C460 C465 1.363 . S
C461 H432 0.950 . S
C461 C460 1.397 1_565 S
C461 C462 1.334 . S
C462 H433 0.950 . S
C462 C461 1.334 . S
C462 C463 1.287 . S
C463 C462 1.287 . S
C463 C464 1.524 1_565 S
C463 H466 0.999 . S
C464 H434 0.950 . S
C464 C463 1.524 1_545 S
C464 C465 1.415 . S
C465 H435 0.950 . S
C465 C460 1.363 . S
C465 C464 1.415 . S
H466 C463 0.999 . S
H467 C448 0.913 . S
H468 C486 0.951 1_554 S
H469 C488 0.951 . S
H470 C490 0.950 . S
H471 C491 0.950 . S
H472 C493 0.950 . S
H473 C496 0.950 . S
H474 C497 0.950 . S
H475 C499 0.950 . S
H476 C500 0.950 . S
H477 C501 0.951 1_556 S
H478 C503 0.951 . S
H479 C505 0.950 . S
H480 C506 0.950 . S
H481 C508 0.950 . S
H482 C511 0.950 . S
H483 C512 0.950 . S
H484 C514 0.950 . S
H485 C515 0.950 . S
C486 H468 0.951 1_556 S
C486 C487 1.366 . S
C486 C488 1.388 1_556 S
C487 C486 1.366 . S
C487 C491 1.385 . S
C488 H469 0.951 . S
C488 C486 1.388 1_554 S
C488 C489 1.366 1_554 S
C489 C488 1.366 1_556 S
C489 C490 1.414 . S
C489 C492 1.499 . S
C490 H470 0.950 . S
C490 C489 1.414 . S
C490 C491 1.374 . S
C491 H471 0.950 . S
C491 C487 1.385 . S
C491 C490 1.374 . S
C492 C489 1.499 . S
C492 C493 1.373 . S
C492 C494 1.389 1_556 S
C493 H472 0.950 . S
C493 C492 1.373 . S
C493 C509 1.377 . S
C494 C492 1.389 1_554 S
C494 C495 1.524 . S
C494 C508 1.377 . S
C495 C494 1.524 . S
C495 C496 1.397 . S
C495 C500 1.363 . S
C496 H473 0.950 . S
C496 C495 1.397 . S
C496 C497 1.334 . S
C497 H474 0.950 . S
C497 C496 1.334 . S
C497 C498 1.287 . S
C498 C497 1.287 . S
C498 C499 1.524 . S
C498 H517 0.913 . S
C499 H475 0.950 . S
C499 C498 1.524 . S
C499 C500 1.415 . S
C500 H476 0.950 . S
C500 C495 1.363 . S
C500 C499 1.415 . S
C501 H477 0.951 1_554 S
C501 C502 1.366 . S
C501 C503 1.388 1_554 S
C502 C501 1.366 . S
C502 C506 1.385 . S
C503 H478 0.951 . S
C503 C501 1.388 1_556 S
C503 C504 1.366 1_556 S
C504 C503 1.366 1_554 S
C504 C505 1.414 . S
C504 C507 1.499 . S
C505 H479 0.950 . S
C505 C504 1.414 . S
C505 C506 1.374 . S
C506 H480 0.950 . S
C506 C502 1.385 . S
C506 C505 1.374 . S
C507 C504 1.499 . S
C507 C508 1.373 . S
C507 C509 1.389 1_554 S
C508 H481 0.950 . S
C508 C494 1.377 . S
C508 C507 1.373 . S
C509 C493 1.377 . S
C509 C507 1.389 1_556 S
C509 C510 1.524 . S
C510 C509 1.524 . S
C510 C511 1.397 . S
C510 C515 1.363 . S
C511 H482 0.950 . S
C511 C510 1.397 . S
C511 C512 1.334 . S
C512 H483 0.950 . S
C512 C511 1.334 . S
C512 C513 1.287 . S
C513 C512 1.287 . S
C513 C514 1.524 . S
C513 H516 0.999 . S
C514 H484 0.950 . S
C514 C513 1.524 . S
C514 C515 1.415 . S
C515 H485 0.950 . S
C515 C510 1.363 . S
C515 C514 1.415 . S
H516 C513 0.999 . S
H517 C498 0.913 . S
H518 C536 0.951 . S
H519 C538 0.951 . S
H520 C540 0.950 . S
H521 C541 0.950 . S
H522 C543 0.950 . S
H523 C546 0.950 . S
H524 C547 0.950 . S
H525 C549 0.950 . S
H526 C550 0.950 . S
H527 C551 0.951 . S
H528 C553 0.951 . S
H529 C555 0.950 . S
H530 C556 0.950 . S
H531 C558 0.950 . S
H532 C561 0.950 . S
H533 C562 0.950 . S
H534 C564 0.950 . S
H535 C565 0.950 . S
C536 H518 0.951 . S
C536 C537 1.366 . S
C536 C538 1.388 . S
C537 C536 1.366 . S
C537 C541 1.385 . S
C538 H519 0.951 . S
C538 C536 1.388 . S
C538 C539 1.366 . S
C539 C538 1.366 . S
C539 C540 1.414 . S
C539 C542 1.499 . S
C540 H520 0.950 . S
C540 C539 1.414 . S
C540 C541 1.374 . S
C541 H521 0.950 . S
C541 C537 1.385 . S
C541 C540 1.374 . S
C542 C539 1.499 . S
C542 C543 1.373 . S
C542 C544 1.389 . S
C543 H522 0.950 . S
C543 C542 1.373 . S
C543 C559 1.377 . S
C544 C542 1.389 . S
C544 C545 1.524 . S
C544 C558 1.377 . S
C545 C544 1.524 . S
C545 C546 1.397 . S
C545 C550 1.363 . S
C546 H523 0.950 . S
C546 C545 1.397 . S
C546 C547 1.334 . S
C547 H524 0.950 . S
C547 C546 1.334 . S
C547 C548 1.287 . S
C548 C547 1.287 . S
C548 C549 1.524 . S
C548 H567 0.913 . S
C549 H525 0.950 . S
C549 C548 1.524 . S
C549 C550 1.415 . S
C550 H526 0.950 . S
C550 C545 1.363 . S
C550 C549 1.415 . S
C551 H527 0.951 . S
C551 C552 1.366 . S
C551 C553 1.388 . S
C552 C551 1.366 . S
C552 C556 1.385 . S
C553 H528 0.951 . S
C553 C551 1.388 . S
C553 C554 1.366 . S
C554 C553 1.366 . S
C554 C555 1.414 . S
C554 C557 1.499 . S
C555 H529 0.950 . S
C555 C554 1.414 . S
C555 C556 1.374 . S
C556 H530 0.950 . S
C556 C552 1.385 . S
C556 C555 1.374 . S
C557 C554 1.499 . S
C557 C558 1.373 . S
C557 C559 1.389 . S
C558 H531 0.950 . S
C558 C544 1.377 . S
C558 C557 1.373 . S
C559 C543 1.377 . S
C559 C557 1.389 . S
C559 C560 1.524 . S
C560 C559 1.524 . S
C560 C561 1.397 . S
C560 C565 1.363 . S
C561 H532 0.950 . S
C561 C560 1.397 . S
C561 C562 1.334 . S
C562 H533 0.950 . S
C562 C561 1.334 . S
C562 C563 1.287 . S
C563 C562 1.287 . S
C563 C564 1.524 . S
C563 H566 0.999 . S
C564 H534 0.950 . S
C564 C563 1.524 . S
C564 C565 1.415 . S
C565 H535 0.950 . S
C565 C560 1.363 . S
C565 C564 1.415 . S
H566 C563 0.999 . S
H567 C548 0.913 . S
H568 C586 0.951 . S
H569 C588 0.951 . S
H570 C590 0.950 . S
H571 C591 0.950 . S
H572 C593 0.950 . S
H573 C596 0.950 . S
H574 C597 0.950 . S
H575 C599 0.950 . S
H576 C600 0.950 . S
H577 C601 0.951 . S
H578 C603 0.951 . S
H579 C605 0.950 . S
H580 C606 0.950 . S
H581 C608 0.950 . S
H582 C611 0.950 . S
H583 C612 0.950 . S
H584 C614 0.950 . S
H585 C615 0.950 . S
C586 H568 0.951 . S
C586 C587 1.366 . S
C586 C588 1.388 . S
C587 C586 1.366 . S
C587 C591 1.385 . S
C588 H569 0.951 . S
C588 C586 1.388 . S
C588 C589 1.366 . S
C589 C588 1.366 . S
C589 C590 1.414 . S
C589 C592 1.499 . S
C590 H570 0.950 . S
C590 C589 1.414 . S
C590 C591 1.374 . S
C591 H571 0.950 . S
C591 C587 1.385 . S
C591 C590 1.374 . S
C592 C589 1.499 . S
C592 C593 1.373 . S
C592 C594 1.389 . S
C593 H572 0.950 . S
C593 C592 1.373 . S
C593 C609 1.377 . S
C594 C592 1.389 . S
C594 C595 1.524 . S
C594 C608 1.377 . S
C595 C594 1.524 . S
C595 C596 1.397 . S
C595 C600 1.363 . S
C596 H573 0.950 . S
C596 C595 1.397 . S
C596 C597 1.334 . S
C597 H574 0.950 . S
C597 C596 1.334 . S
C597 C598 1.287 . S
C598 C597 1.287 . S
C598 C599 1.524 . S
C598 H617 0.913 . S
C599 H575 0.950 . S
C599 C598 1.524 . S
C599 C600 1.415 . S
C600 H576 0.950 . S
C600 C595 1.363 . S
C600 C599 1.415 . S
C601 H577 0.951 . S
C601 C602 1.366 . S
C601 C603 1.388 . S
C602 C601 1.366 . S
C602 C606 1.385 . S
C603 H578 0.951 . S
C603 C601 1.388 . S
C603 C604 1.366 . S
C604 C603 1.366 . S
C604 C605 1.414 . S
C604 C607 1.499 . S
C605 H579 0.950 . S
C605 C604 1.414 . S
C605 C606 1.374 . S
C606 H580 0.950 . S
C606 C602 1.385 . S
C606 C605 1.374 . S
C607 C604 1.499 . S
C607 C608 1.373 . S
C607 C609 1.389 . S
C608 H581 0.950 . S
C608 C594 1.377 . S
C608 C607 1.373 . S
C609 C593 1.377 . S
C609 C607 1.389 . S
C609 C610 1.524 . S
C610 C609 1.524 . S
C610 C611 1.397 . S
C610 C615 1.363 . S
C611 H582 0.950 . S
C611 C610 1.397 . S
C611 C612 1.334 . S
C612 H583 0.950 . S
C612 C611 1.334 . S
C612 C613 1.287 . S
C613 C612 1.287 . S
C613 C614 1.524 . S
C613 H616 0.999 . S
C614 H584 0.950 . S
C614 C613 1.524 . S
C614 C615 1.415 . S
C615 H585 0.950 . S
C615 C610 1.363 . S
C615 C614 1.415 . S
H616 C613 0.999 . S
H617 C598 0.913 . S
H618 C636 0.951 1_556 S
H619 C638 0.951 . S
H620 C640 0.950 . S
H621 C641 0.950 . S
H622 C643 0.950 . S
H623 C646 0.950 . S
H624 C647 0.950 . S
H625 C649 0.950 . S
H626 C650 0.950 . S
H627 C651 0.951 1_554 S
H628 C653 0.951 . S
H629 C655 0.950 . S
H630 C656 0.950 . S
H631 C658 0.950 . S
H632 C661 0.950 . S
H633 C662 0.950 . S
H634 C664 0.950 . S
H635 C665 0.950 . S
C636 H618 0.951 1_554 S
C636 C637 1.366 . S
C636 C638 1.388 1_554 S
C637 C636 1.366 . S
C637 C641 1.385 . S
C638 H619 0.951 . S
C638 C636 1.388 1_556 S
C638 C639 1.366 1_556 S
C639 C638 1.366 1_554 S
C639 C640 1.414 . S
C639 C642 1.499 . S
C640 H620 0.950 . S
C640 C639 1.414 . S
C640 C641 1.374 . S
C641 H621 0.950 . S
C641 C637 1.385 . S
C641 C640 1.374 . S
C642 C639 1.499 . S
C642 C643 1.373 . S
C642 C644 1.389 1_554 S
C643 H622 0.950 . S
C643 C642 1.373 . S
C643 C659 1.377 . S
C644 C642 1.389 1_556 S
C644 C645 1.524 . S
C644 C658 1.377 . S
C645 C644 1.524 . S
C645 C646 1.397 1_556 S
C645 C650 1.363 . S
C646 H623 0.950 . S
C646 C645 1.397 1_554 S
C646 C647 1.334 . S
C647 H624 0.950 . S
C647 C646 1.334 . S
C647 C648 1.287 1_554 S
C648 C647 1.287 1_556 S
C648 C649 1.524 . S
C648 H667 0.913 . S
C649 H625 0.950 . S
C649 C648 1.524 . S
C649 C650 1.415 . S
C650 H626 0.950 . S
C650 C645 1.363 . S
C650 C649 1.415 . S
C651 H627 0.951 1_556 S
C651 C652 1.366 . S
C651 C653 1.388 1_556 S
C652 C651 1.366 . S
C652 C656 1.385 . S
C653 H628 0.951 . S
C653 C651 1.388 1_554 S
C653 C654 1.366 1_554 S
C654 C653 1.366 1_556 S
C654 C655 1.414 . S
C654 C657 1.499 . S
C655 H629 0.950 . S
C655 C654 1.414 . S
C655 C656 1.374 . S
C656 H630 0.950 . S
C656 C652 1.385 . S
C656 C655 1.374 . S
C657 C654 1.499 . S
C657 C658 1.373 . S
C657 C659 1.389 1_556 S
C658 H631 0.950 . S
C658 C644 1.377 . S
C658 C657 1.373 . S
C659 C643 1.377 . S
C659 C657 1.389 1_554 S
C659 C660 1.524 . S
C660 C659 1.524 . S
C660 C661 1.397 1_554 S
C660 C665 1.363 . S
C661 H632 0.950 . S
C661 C660 1.397 1_556 S
C661 C662 1.334 . S
C662 H633 0.950 . S
C662 C661 1.334 . S
C662 C663 1.287 1_556 S
C663 C662 1.287 1_554 S
C663 C664 1.524 . S
C663 H666 0.999 . S
C664 H634 0.950 . S
C664 C663 1.524 . S
C664 C665 1.415 . S
C665 H635 0.950 . S
C665 C660 1.363 . S
C665 C664 1.415 . S
H666 C663 0.999 . S
H667 C648 0.913 . S
H668 C686 0.951 . S
H669 C688 0.951 . S
H670 C690 0.950 . S
H671 C691 0.950 . S
H672 C693 0.950 . S
H673 C696 0.950 . S
H674 C697 0.950 . S
H675 C699 0.950 . S
H676 C700 0.950 . S
H677 C701 0.951 . S
H678 C703 0.951 . S
H679 C705 0.950 . S
H680 C706 0.950 . S
H681 C708 0.950 . S
H682 C711 0.950 . S
H683 C712 0.950 . S
H684 C714 0.950 . S
H685 C715 0.950 . S
C686 H668 0.951 . S
C686 C687 1.366 . S
C686 C688 1.388 . S
C687 C686 1.366 . S
C687 C691 1.385 . S
C688 H669 0.951 . S
C688 C686 1.388 . S
C688 C689 1.366 . S
C689 C688 1.366 . S
C689 C690 1.414 . S
C689 C692 1.499 . S
C690 H670 0.950 . S
C690 C689 1.414 . S
C690 C691 1.374 . S
C691 H671 0.950 . S
C691 C687 1.385 . S
C691 C690 1.374 . S
C692 C689 1.499 . S
C692 C693 1.373 . S
C692 C694 1.389 . S
C693 H672 0.950 . S
C693 C692 1.373 . S
C693 C709 1.377 . S
C694 C692 1.389 . S
C694 C695 1.524 . S
C694 C708 1.377 . S
C695 C694 1.524 . S
C695 C696 1.397 . S
C695 C700 1.363 . S
C696 H673 0.950 . S
C696 C695 1.397 . S
C696 C697 1.334 . S
C697 H674 0.950 . S
C697 C696 1.334 . S
C697 C698 1.287 . S
C698 C697 1.287 . S
C698 C699 1.524 . S
C698 H717 0.913 . S
C699 H675 0.950 . S
C699 C698 1.524 . S
C699 C700 1.415 . S
C700 H676 0.950 . S
C700 C695 1.363 . S
C700 C699 1.415 . S
C701 H677 0.951 . S
C701 C702 1.366 . S
C701 C703 1.388 . S
C702 C701 1.366 . S
C702 C706 1.385 . S
C703 H678 0.951 . S
C703 C701 1.388 . S
C703 C704 1.366 . S
C704 C703 1.366 . S
C704 C705 1.414 . S
C704 C707 1.499 . S
C705 H679 0.950 . S
C705 C704 1.414 . S
C705 C706 1.374 . S
C706 H680 0.950 . S
C706 C702 1.385 . S
C706 C705 1.374 . S
C707 C704 1.499 . S
C707 C708 1.373 . S
C707 C709 1.389 . S
C708 H681 0.950 . S
C708 C694 1.377 . S
C708 C707 1.373 . S
C709 C693 1.377 . S
C709 C707 1.389 . S
C709 C710 1.524 . S
C710 C709 1.524 . S
C710 C711 1.397 . S
C710 C715 1.363 . S
C711 H682 0.950 . S
C711 C710 1.397 . S
C711 C712 1.334 . S
C712 H683 0.950 . S
C712 C711 1.334 . S
C712 C713 1.287 . S
C713 C712 1.287 . S
C713 C714 1.524 . S
C713 H716 0.999 . S
C714 H684 0.950 . S
C714 C713 1.524 . S
C714 C715 1.415 . S
C715 H685 0.950 . S
C715 C710 1.363 . S
C715 C714 1.415 . S
H716 C713 0.999 . S
H717 C698 0.913 . S
H718 C736 0.951 . S
H719 C738 0.951 . S
H720 C740 0.950 . S
H721 C741 0.950 . S
H722 C743 0.950 . S
H723 C746 0.950 . S
H724 C747 0.950 . S
H725 C749 0.950 . S
H726 C750 0.950 . S
H727 C751 0.951 . S
H728 C753 0.951 . S
H729 C755 0.950 . S
H730 C756 0.950 . S
H731 C758 0.950 . S
H732 C761 0.950 . S
H733 C762 0.950 . S
H734 C764 0.950 . S
H735 C765 0.950 . S
C736 H718 0.951 . S
C736 C737 1.366 . S
C736 C738 1.388 . S
C737 C736 1.366 . S
C737 C741 1.385 . S
C738 H719 0.951 . S
C738 C736 1.388 . S
C738 C739 1.366 . S
C739 C738 1.366 . S
C739 C740 1.414 . S
C739 C742 1.499 . S
C740 H720 0.950 . S
C740 C739 1.414 . S
C740 C741 1.374 . S
C741 H721 0.950 . S
C741 C737 1.385 . S
C741 C740 1.374 . S
C742 C739 1.499 . S
C742 C743 1.373 . S
C742 C744 1.389 . S
C743 H722 0.950 . S
C743 C742 1.373 . S
C743 C759 1.377 . S
C744 C742 1.389 . S
C744 C745 1.524 . S
C744 C758 1.377 . S
C745 C744 1.524 . S
C745 C746 1.397 . S
C745 C750 1.363 . S
C746 H723 0.950 . S
C746 C745 1.397 . S
C746 C747 1.334 . S
C747 H724 0.950 . S
C747 C746 1.334 . S
C747 C748 1.287 . S
C748 C747 1.287 . S
C748 C749 1.524 . S
C748 H767 0.913 . S
C749 H725 0.950 . S
C749 C748 1.524 . S
C749 C750 1.415 . S
C750 H726 0.950 . S
C750 C745 1.363 . S
C750 C749 1.415 . S
C751 H727 0.951 . S
C751 C752 1.366 . S
C751 C753 1.388 . S
C752 C751 1.366 . S
C752 C756 1.385 . S
C753 H728 0.951 . S
C753 C751 1.388 . S
C753 C754 1.366 . S
C754 C753 1.366 . S
C754 C755 1.414 . S
C754 C757 1.499 . S
C755 H729 0.950 . S
C755 C754 1.414 . S
C755 C756 1.374 . S
C756 H730 0.950 . S
C756 C752 1.385 . S
C756 C755 1.374 . S
C757 C754 1.499 . S
C757 C758 1.373 . S
C757 C759 1.389 . S
C758 H731 0.950 . S
C758 C744 1.377 . S
C758 C757 1.373 . S
C759 C743 1.377 . S
C759 C757 1.389 . S
C759 C760 1.524 . S
C760 C759 1.524 . S
C760 C761 1.397 . S
C760 C765 1.363 . S
C761 H732 0.950 . S
C761 C760 1.397 . S
C761 C762 1.334 . S
C762 H733 0.950 . S
C762 C761 1.334 . S
C762 C763 1.287 . S
C763 C762 1.287 . S
C763 C764 1.524 . S
C763 H766 0.999 . S
C764 H734 0.950 . S
C764 C763 1.524 . S
C764 C765 1.415 . S
C765 H735 0.950 . S
C765 C760 1.363 . S
C765 C764 1.415 . S
H766 C763 0.999 . S
H767 C748 0.913 . S
H768 C786 0.951 . S
H769 C788 0.951 . S
H770 C790 0.950 . S
H771 C791 0.950 . S
H772 C793 0.950 . S
H773 C796 0.950 . S
H774 C797 0.950 . S
H775 C799 0.950 . S
H776 C800 0.950 . S
H777 C801 0.951 1_554 S
H778 C803 0.951 . S
H779 C805 0.950 . S
H780 C806 0.950 . S
H781 C808 0.950 . S
H782 C811 0.950 . S
H783 C812 0.950 . S
H784 C814 0.950 . S
H785 C815 0.950 . S
C786 H768 0.951 . S
C786 C787 1.366 . S
C786 C788 1.388 . S
C787 C786 1.366 . S
C787 C791 1.385 . S
C788 H769 0.951 . S
C788 C786 1.388 . S
C788 C789 1.366 . S
C789 C788 1.366 . S
C789 C790 1.414 . S
C789 C792 1.499 . S
C790 H770 0.950 . S
C790 C789 1.414 . S
C790 C791 1.374 . S
C791 H771 0.950 . S
C791 C787 1.385 . S
C791 C790 1.374 . S
C792 C789 1.499 . S
C792 C793 1.373 . S
C792 C794 1.389 . S
C793 H772 0.950 . S
C793 C792 1.373 . S
C793 C809 1.377 . S
C794 C792 1.389 . S
C794 C795 1.524 . S
C794 C808 1.377 . S
C795 C794 1.524 . S
C795 C796 1.397 . S
C795 C800 1.363 . S
C796 H773 0.950 . S
C796 C795 1.397 . S
C796 C797 1.334 . S
C797 H774 0.950 . S
C797 C796 1.334 . S
C797 C798 1.287 . S
C798 C797 1.287 . S
C798 C799 1.524 . S
C798 H817 0.913 . S
C799 H775 0.950 . S
C799 C798 1.524 . S
C799 C800 1.415 . S
C800 H776 0.950 . S
C800 C795 1.363 . S
C800 C799 1.415 . S
C801 H777 0.951 1_556 S
C801 C802 1.366 1_556 S
C801 C803 1.388 . S
C802 C801 1.366 1_554 S
C802 C806 1.385 1_554 S
C803 H778 0.951 . S
C803 C801 1.388 . S
C803 C804 1.366 . S
C804 C803 1.366 . S
C804 C805 1.414 . S
C804 C807 1.499 . S
C805 H779 0.950 . S
C805 C804 1.414 . S
C805 C806 1.374 . S
C806 H780 0.950 . S
C806 C802 1.385 1_556 S
C806 C805 1.374 . S
C807 C804 1.499 . S
C807 C808 1.373 . S
C807 C809 1.389 . S
C808 H781 0.950 . S
C808 C794 1.377 . S
C808 C807 1.373 . S
C809 C793 1.377 . S
C809 C807 1.389 . S
C809 C810 1.524 . S
C810 C809 1.524 . S
C810 C811 1.397 . S
C810 C815 1.363 . S
C811 H782 0.950 . S
C811 C810 1.397 . S
C811 C812 1.334 . S
C812 H783 0.950 . S
C812 C811 1.334 . S
C812 C813 1.287 . S
C813 C812 1.287 . S
C813 C814 1.524 . S
C813 H816 0.999 . S
C814 H784 0.950 . S
C814 C813 1.524 . S
C814 C815 1.415 . S
C815 H785 0.950 . S
C815 C810 1.363 . S
C815 C814 1.415 . S
H816 C813 0.999 . S
H817 C798 0.913 . S
H818 C836 0.951 . S
H819 C838 0.951 . S
H820 C840 0.950 . S
H821 C841 0.950 . S
H822 C843 0.942 1_455 S
H823 C846 0.950 . S
H824 C847 0.950 . S
H825 C849 0.950 . S
H826 C850 0.950 . S
H827 C851 0.950 . S
H828 C853 0.951 . S
H829 C855 0.950 . S
H830 C856 0.950 . S
H831 C858 0.950 . S
H832 C861 0.950 . S
H833 C862 0.950 . S
H834 C864 0.950 . S
H835 C865 0.950 . S
C836 H818 0.951 . S
C836 C837 1.366 . S
C836 C838 1.388 . S
C837 C836 1.366 . S
C837 C841 1.385 . S
C838 H819 0.951 . S
C838 C836 1.388 . S
C838 C839 1.366 . S
C839 C838 1.366 . S
C839 C840 1.414 . S
C839 C842 1.499 . S
C840 H820 0.950 . S
C840 C839 1.414 . S
C840 C841 1.374 . S
C841 H821 0.950 . S
C841 C837 1.385 . S
C841 C840 1.374 . S
C842 C839 1.499 . S
C842 C843 1.384 . S
C842 C844 1.389 . S
C843 H822 0.942 1_655 S
C843 C842 1.384 . S
C843 C859 1.374 1_655 S
C844 C842 1.389 . S
C844 C845 1.524 . S
C844 C858 1.377 . S
C845 C844 1.524 . S
C845 C846 1.397 . S
C845 C850 1.363 . S
C846 H823 0.950 . S
C846 C845 1.397 . S
C846 C847 1.334 . S
C847 H824 0.950 . S
C847 C846 1.334 . S
C847 C848 1.287 . S
C848 C847 1.287 . S
C848 C849 1.524 . S
C848 H867 0.913 . S
C849 H825 0.950 . S
C849 C848 1.524 . S
C849 C850 1.415 . S
C850 H826 0.950 . S
C850 C845 1.363 . S
C850 C849 1.415 . S
C851 H827 0.950 . S
C851 C852 1.366 1_554 S
C851 C853 1.388 1_455 S
C852 C851 1.366 1_556 S
C852 C856 1.385 1_556 S
C853 H828 0.951 . S
C853 C851 1.388 1_655 S
C853 C854 1.366 1_655 S
C854 C853 1.366 1_455 S
C854 C855 1.414 . S
C854 C857 1.499 1_455 S
C855 H829 0.950 . S
C855 C854 1.414 . S
C855 C856 1.374 . S
C856 H830 0.950 . S
C856 C852 1.385 1_554 S
C856 C855 1.374 . S
C857 C854 1.499 1_655 S
C857 C858 1.373 . S
C857 C859 1.389 1_655 S
C858 H831 0.950 . S
C858 C844 1.377 . S
C858 C857 1.373 . S
C859 C843 1.374 1_455 S
C859 C857 1.389 1_455 S
C859 C860 1.524 . S
C860 C859 1.524 . S
C860 C861 1.397 . S
C860 C865 1.363 . S
C861 H832 0.950 . S
C861 C860 1.397 . S
C861 C862 1.334 . S
C862 H833 0.950 . S
C862 C861 1.334 . S
C862 C863 1.287 . S
C863 C862 1.287 . S
C863 C864 1.524 . S
C863 H866 0.999 . S
C864 H834 0.950 . S
C864 C863 1.524 . S
C864 C865 1.415 . S
C865 H835 0.950 . S
C865 C860 1.363 . S
C865 C864 1.415 . S
H866 C863 0.999 . S
H867 C848 0.913 . S
H868 C886 0.951 . S
H869 C888 0.951 . S
H870 C890 0.950 . S
H871 C891 0.950 . S
H872 C893 0.950 . S
H873 C896 0.950 . S
H874 C897 0.950 . S
H875 C899 0.950 . S
H876 C900 0.950 . S
H877 C901 0.951 . S
H878 C903 0.951 . S
H879 C905 0.950 . S
H880 C906 0.950 . S
H881 C908 0.950 . S
H882 C911 0.950 . S
H883 C912 0.950 . S
H884 C914 0.950 . S
H885 C915 0.950 . S
C886 H868 0.951 . S
C886 C887 1.366 . S
C886 C888 1.388 . S
C887 C886 1.366 . S
C887 C891 1.385 . S
C888 H869 0.951 . S
C888 C886 1.388 . S
C888 C889 1.366 . S
C889 C888 1.366 . S
C889 C890 1.414 . S
C889 C892 1.499 . S
C890 H870 0.950 . S
C890 C889 1.414 . S
C890 C891 1.374 . S
C891 H871 0.950 . S
C891 C887 1.385 . S
C891 C890 1.374 . S
C892 C889 1.499 . S
C892 C893 1.373 1_565 S
C892 C894 1.389 . S
C893 H872 0.950 . S
C893 C892 1.373 1_545 S
C893 C909 1.377 . S
C894 C892 1.389 . S
C894 C895 1.524 . S
C894 C908 1.377 . S
C895 C894 1.524 . S
C895 C896 1.397 . S
C895 C900 1.363 . S
C896 H873 0.950 . S
C896 C895 1.397 . S
C896 C897 1.334 . S
C897 H874 0.950 . S
C897 C896 1.334 . S
C897 C898 1.287 . S
C898 C897 1.287 . S
C898 C899 1.524 . S
C898 H917 0.913 . S
C899 H875 0.950 . S
C899 C898 1.524 . S
C899 C900 1.415 . S
C900 H876 0.950 . S
C900 C895 1.363 . S
C900 C899 1.415 . S
C901 H877 0.951 . S
C901 C902 1.366 . S
C901 C903 1.388 . S
C902 C901 1.366 . S
C902 C906 1.385 . S
C903 H878 0.951 . S
C903 C901 1.388 . S
C903 C904 1.366 . S
C904 C903 1.366 . S
C904 C905 1.414 . S
C904 C907 1.499 . S
C905 H879 0.950 . S
C905 C904 1.414 . S
C905 C906 1.374 . S
C906 H880 0.950 . S
C906 C902 1.385 . S
C906 C905 1.374 . S
C907 C904 1.499 . S
C907 C908 1.373 1_545 S
C907 C909 1.389 . S
C908 H881 0.950 . S
C908 C894 1.377 . S
C908 C907 1.373 1_565 S
C909 C893 1.377 . S
C909 C907 1.389 . S
C909 C910 1.524 . S
C910 C909 1.524 . S
C910 C911 1.397 . S
C910 C915 1.363 . S
C911 H882 0.950 . S
C911 C910 1.397 . S
C911 C912 1.334 . S
C912 H883 0.950 . S
C912 C911 1.334 . S
C912 C913 1.287 . S
C913 C912 1.287 . S
C913 C914 1.524 . S
C913 H916 0.999 . S
C914 H884 0.950 . S
C914 C913 1.524 . S
C914 C915 1.415 . S
C915 H885 0.950 . S
C915 C910 1.363 . S
C915 C914 1.415 . S
H916 C913 0.999 . S
H917 C898 0.913 . S
H918 C936 0.951 . S
H919 C938 0.951 . S
H920 C940 0.950 . S
H921 C941 0.950 . S
H922 C943 0.950 . S
H923 C946 0.950 . S
H924 C947 0.950 . S
H925 C949 0.950 . S
H926 C950 0.950 . S
H927 C951 0.951 1_554 S
H928 C953 0.951 . S
H929 C955 0.950 . S
H930 C956 0.950 . S
H931 C958 0.950 . S
H932 C961 0.950 . S
H933 C962 0.950 . S
H934 C964 0.950 . S
H935 C965 0.950 . S
C936 H918 0.951 . S
C936 C937 1.366 . S
C936 C938 1.388 . S
C937 C936 1.366 . S
C937 C941 1.385 . S
C938 H919 0.951 . S
C938 C936 1.388 . S
C938 C939 1.366 . S
C939 C938 1.366 . S
C939 C940 1.414 . S
C939 C942 1.499 . S
C940 H920 0.950 . S
C940 C939 1.414 . S
C940 C941 1.374 . S
C941 H921 0.950 . S
C941 C937 1.385 . S
C941 C940 1.374 . S
C942 C939 1.499 . S
C942 C943 1.373 . S
C942 C944 1.389 . S
C943 H922 0.950 . S
C943 C942 1.373 . S
C943 C959 1.377 . S
C944 C942 1.389 . S
C944 C945 1.524 . S
C944 C958 1.377 . S
C945 C944 1.524 . S
C945 C946 1.397 . S
C945 C950 1.363 . S
C946 H923 0.950 . S
C946 C945 1.397 . S
C946 C947 1.334 . S
C947 H924 0.950 . S
C947 C946 1.334 . S
C947 C948 1.287 . S
C948 C947 1.287 . S
C948 C949 1.524 . S
C948 H967 0.913 . S
C949 H925 0.950 . S
C949 C948 1.524 . S
C949 C950 1.415 . S
C950 H926 0.950 . S
C950 C945 1.363 . S
C950 C949 1.415 . S
C951 H927 0.951 1_556 S
C951 C952 1.366 1_556 S
C951 C953 1.388 . S
C952 C951 1.366 1_554 S
C952 C956 1.385 1_554 S
C953 H928 0.951 . S
C953 C951 1.388 . S
C953 C954 1.366 . S
C954 C953 1.366 . S
C954 C955 1.414 . S
C954 C957 1.499 . S
C955 H929 0.950 . S
C955 C954 1.414 . S
C955 C956 1.374 . S
C956 H930 0.950 . S
C956 C952 1.385 1_556 S
C956 C955 1.374 . S
C957 C954 1.499 . S
C957 C958 1.373 . S
C957 C959 1.389 . S
C958 H931 0.950 . S
C958 C944 1.377 . S
C958 C957 1.373 . S
C959 C943 1.377 . S
C959 C957 1.389 . S
C959 C960 1.524 . S
C960 C959 1.524 . S
C960 C961 1.397 . S
C960 C965 1.363 . S
C961 H932 0.950 . S
C961 C960 1.397 . S
C961 C962 1.334 . S
C962 H933 0.950 . S
C962 C961 1.334 . S
C962 C963 1.287 . S
C963 C962 1.287 . S
C963 C964 1.524 . S
C963 H966 0.999 . S
C964 H934 0.950 . S
C964 C963 1.524 . S
C964 C965 1.415 . S
C965 H935 0.950 . S
C965 C960 1.363 . S
C965 C964 1.415 . S
H966 C963 0.999 . S
H967 C948 0.913 . S
H968 C986 0.951 . S
H969 C988 0.951 . S
H970 C990 0.950 . S
H971 C991 0.950 . S
H972 C993 0.969 . S
H973 C996 0.950 . S
H974 C997 0.950 . S
H975 C999 0.950 . S
H976 C1000 0.950 . S
H977 C1001 0.951 . S
H978 C1003 0.947 . S
H979 C1005 0.950 . S
H980 C1006 0.950 . S
H981 C1008 0.950 . S
H982 C1011 0.950 . S
H983 C1012 0.950 . S
H984 C1014 0.950 . S
H985 C1015 0.950 . S
C986 H968 0.951 . S
C986 C987 1.366 . S
C986 C988 1.388 . S
C987 C986 1.366 . S
C987 C991 1.385 . S
C988 H969 0.951 . S
C988 C986 1.388 . S
C988 C989 1.366 . S
C989 C988 1.366 . S
C989 C990 1.414 . S
C989 C992 1.499 . S
C990 H970 0.950 . S
C990 C989 1.414 . S
C990 C991 1.374 . S
C991 H971 0.950 . S
C991 C987 1.385 . S
C991 C990 1.374 . S
C992 C989 1.499 . S
C992 C993 1.349 1_455 S
C992 C994 1.389 . S
C993 H972 0.969 . S
C993 C992 1.349 1_655 S
C993 C1009 1.383 . S
C994 C992 1.389 . S
C994 C995 1.524 . S
C994 C1008 1.377 . S
C995 C994 1.524 . S
C995 C996 1.397 . S
C995 C1000 1.363 . S
C996 H973 0.950 . S
C996 C995 1.397 . S
C996 C997 1.334 . S
C997 H974 0.950 . S
C997 C996 1.334 . S
C997 C998 1.287 . S
C998 C997 1.287 . S
C998 C999 1.524 . S
C998 H1017 0.913 . S
C999 H975 0.950 . S
C999 C998 1.524 . S
C999 C1000 1.415 . S
C1000 H976 0.950 . S
C1000 C995 1.363 . S
C1000 C999 1.415 . S
C1001 H977 0.951 . S
C1001 C1002 1.366 1_554 S
C1001 C1003 1.385 1_655 S
C1002 C1001 1.366 1_556 S
C1002 C1006 1.385 1_556 S
C1003 H978 0.947 . S
C1003 C1001 1.385 1_455 S
C1003 C1004 1.372 1_455 S
C1004 C1003 1.372 1_655 S
C1004 C1005 1.414 . S
C1004 C1007 1.499 1_655 S
C1005 H979 0.950 . S
C1005 C1004 1.414 . S
C1005 C1006 1.374 . S
C1006 H980 0.950 . S
C1006 C1002 1.385 1_554 S
C1006 C1005 1.374 . S
C1007 C1004 1.499 1_455 S
C1007 C1008 1.373 . S
C1007 C1009 1.389 1_455 S
C1008 H981 0.950 . S
C1008 C994 1.377 . S
C1008 C1007 1.373 . S
C1009 C993 1.383 . S
C1009 C1007 1.389 1_655 S
C1009 C1010 1.524 . S
C1010 C1009 1.524 . S
C1010 C1011 1.397 . S
C1010 C1015 1.363 . S
C1011 H982 0.950 . S
C1011 C1010 1.397 . S
C1011 C1012 1.334 . S
C1012 H983 0.950 . S
C1012 C1011 1.334 . S
C1012 C1013 1.287 . S
C1013 C1012 1.287 . S
C1013 C1014 1.524 . S
C1013 H1016 0.999 . S
C1014 H984 0.950 . S
C1014 C1013 1.524 . S
C1014 C1015 1.415 . S
C1015 H985 0.950 . S
C1015 C1010 1.363 . S
C1015 C1014 1.415 . S
H1016 C1013 0.999 . S
H1017 C998 0.913 . S
H1018 C1036 0.955 . S
H1019 C1038 0.951 . S
H1020 C1040 0.950 . S
H1021 C1041 0.950 . S
H1022 C1043 0.950 . S
H1023 C1046 0.950 . S
H1024 C1047 0.950 . S
H1025 C1049 0.950 . S
H1026 C1050 0.950 . S
H1027 C1051 0.954 . S
H1028 C1053 0.951 . S
H1029 C1055 0.950 . S
H1030 C1056 0.950 . S
H1031 C1058 0.950 . S
H1032 C1061 0.950 . S
H1033 C1062 0.950 . S
H1034 C1064 0.950 . S
H1035 C1065 0.950 . S
C1036 H1018 0.955 . S
C1036 C1037 1.361 1_545 S
C1036 C1038 1.389 . S
C1037 C1036 1.361 1_565 S
C1037 C1041 1.385 . S
C1038 H1019 0.951 . S
C1038 C1036 1.389 . S
C1038 C1039 1.366 1_545 S
C1039 C1038 1.366 1_565 S
C1039 C1040 1.414 . S
C1039 C1042 1.499 . S
C1040 H1020 0.950 . S
C1040 C1039 1.414 . S
C1040 C1041 1.374 . S
C1041 H1021 0.950 . S
C1041 C1037 1.385 . S
C1041 C1040 1.374 . S
C1042 C1039 1.499 . S
C1042 C1043 1.373 . S
C1042 C1044 1.389 1_565 S
C1043 H1022 0.950 . S
C1043 C1042 1.373 . S
C1043 C1059 1.377 . S
C1044 C1042 1.389 1_545 S
C1044 C1045 1.524 . S
C1044 C1058 1.377 . S
C1045 C1044 1.524 . S
C1045 C1046 1.397 . S
C1045 C1050 1.363 . S
C1046 H1023 0.950 . S
C1046 C1045 1.397 . S
C1046 C1047 1.334 . S
C1047 H1024 0.950 . S
C1047 C1046 1.334 . S
C1047 C1048 1.287 . S
C1048 C1047 1.287 . S
C1048 C1049 1.524 . S
C1048 H1067 0.913 . S
C1049 H1025 0.950 . S
C1049 C1048 1.524 . S
C1049 C1050 1.415 . S
C1050 H1026 0.950 . S
C1050 C1045 1.363 . S
C1050 C1049 1.415 . S
C1051 H1027 0.954 . S
C1051 C1052 1.362 1_565 S
C1051 C1053 1.388 . S
C1052 C1051 1.362 1_545 S
C1052 C1056 1.385 . S
C1053 H1028 0.951 . S
C1053 C1051 1.388 . S
C1053 C1054 1.366 1_565 S
C1054 C1053 1.366 1_545 S
C1054 C1055 1.414 . S
C1054 C1057 1.499 . S
C1055 H1029 0.950 . S
C1055 C1054 1.414 . S
C1055 C1056 1.374 . S
C1056 H1030 0.950 . S
C1056 C1052 1.385 . S
C1056 C1055 1.374 . S
C1057 C1054 1.499 . S
C1057 C1058 1.373 . S
C1057 C1059 1.389 1_545 S
C1058 H1031 0.950 . S
C1058 C1044 1.377 . S
C1058 C1057 1.373 . S
C1059 C1043 1.377 . S
C1059 C1057 1.389 1_565 S
C1059 C1060 1.524 . S
C1060 C1059 1.524 . S
C1060 C1061 1.397 . S
C1060 C1065 1.363 . S
C1061 H1032 0.950 . S
C1061 C1060 1.397 . S
C1061 C1062 1.334 . S
C1062 H1033 0.950 . S
C1062 C1061 1.334 . S
C1062 C1063 1.287 . S
C1063 C1062 1.287 . S
C1063 C1064 1.524 . S
C1063 H1066 0.999 . S
C1064 H1034 0.950 . S
C1064 C1063 1.524 . S
C1064 C1065 1.415 . S
C1065 H1035 0.950 . S
C1065 C1060 1.363 . S
C1065 C1064 1.415 . S
H1066 C1063 0.999 . S
H1067 C1048 0.913 . S
H1068 C1086 0.951 . S
H1069 C1088 0.951 . S
H1070 C1090 0.950 . S
H1071 C1091 0.950 . S
H1072 C1093 0.950 . S
H1073 C1096 0.958 . S
H1074 C1097 0.950 1_556 S
H1075 C1099 0.950 . S
H1076 C1100 0.950 . S
H1077 C1101 0.951 . S
H1078 C1103 0.951 . S
H1079 C1105 0.950 . S
H1080 C1106 0.950 . S
H1081 C1108 0.950 . S
H1082 C1111 0.950 . S
H1083 C1112 0.950 . S
H1084 C1114 0.950 . S
H1085 C1115 0.950 . S
C1086 H1068 0.951 . S
C1086 C1087 1.366 . S
C1086 C1088 1.388 . S
C1087 C1086 1.366 . S
C1087 C1091 1.385 . S
C1088 H1069 0.951 . S
C1088 C1086 1.388 . S
C1088 C1089 1.366 . S
C1089 C1088 1.366 . S
C1089 C1090 1.414 . S
C1089 C1092 1.499 . S
C1090 H1070 0.950 . S
C1090 C1089 1.414 . S
C1090 C1091 1.374 . S
C1091 H1071 0.950 . S
C1091 C1087 1.385 . S
C1091 C1090 1.374 . S
C1092 C1089 1.499 . S
C1092 C1093 1.373 . S
C1092 C1094 1.389 . S
C1093 H1072 0.950 . S
C1093 C1092 1.373 . S
C1093 C1109 1.377 . S
C1094 C1092 1.389 . S
C1094 C1095 1.524 . S
C1094 C1108 1.377 . S
C1095 C1094 1.524 . S
C1095 C1096 1.397 . S
C1095 C1100 1.363 . S
C1096 H1073 0.958 . S
C1096 C1095 1.397 . S
C1096 C1097 1.334 . S
C1097 H1074 0.950 1_554 S
C1097 C1096 1.334 . S
C1097 C1098 1.287 . S
C1098 C1097 1.287 . S
C1098 C1099 1.524 . S
C1098 H1117 0.913 . S
C1099 H1075 0.950 . S
C1099 C1098 1.524 . S
C1099 C1100 1.415 . S
C1100 H1076 0.950 . S
C1100 C1095 1.363 . S
C1100 C1099 1.415 . S
C1101 H1077 0.951 . S
C1101 C1102 1.366 . S
C1101 C1103 1.388 . S
C1102 C1101 1.366 . S
C1102 C1106 1.385 . S
C1103 H1078 0.951 . S
C1103 C1101 1.388 . S
C1103 C1104 1.366 . S
C1104 C1103 1.366 . S
C1104 C1105 1.414 . S
C1104 C1107 1.499 . S
C1105 H1079 0.950 . S
C1105 C1104 1.414 . S
C1105 C1106 1.374 . S
C1106 H1080 0.950 . S
C1106 C1102 1.385 . S
C1106 C1105 1.374 . S
C1107 C1104 1.499 . S
C1107 C1108 1.373 . S
C1107 C1109 1.389 . S
C1108 H1081 0.950 . S
C1108 C1094 1.377 . S
C1108 C1107 1.373 . S
C1109 C1093 1.377 . S
C1109 C1107 1.389 . S
C1109 C1110 1.524 . S
C1110 C1109 1.524 . S
C1110 C1111 1.397 . S
C1110 C1115 1.363 . S
C1111 H1082 0.950 . S
C1111 C1110 1.397 . S
C1111 C1112 1.334 . S
C1112 H1083 0.950 . S
C1112 C1111 1.334 . S
C1112 C1113 1.287 . S
C1113 C1112 1.287 . S
C1113 C1114 1.524 . S
C1113 H1116 0.999 . S
C1114 H1084 0.950 . S
C1114 C1113 1.524 . S
C1114 C1115 1.415 . S
C1115 H1085 0.950 . S
C1115 C1110 1.363 . S
C1115 C1114 1.415 . S
H1116 C1113 0.999 . S
H1117 C1098 0.913 . S
H1118 C1136 0.951 . S
H1119 C1138 0.951 . S
H1120 C1140 0.950 . S
H1121 C1141 0.950 . S
H1122 C1143 0.950 . S
H1123 C1146 0.950 . S
H1124 C1147 0.950 . S
H1125 C1149 0.950 . S
H1126 C1150 0.950 1_655 S
H1127 C1151 0.951 . S
H1128 C1153 0.951 . S
H1129 C1155 0.950 . S
H1130 C1156 0.950 . S
H1131 C1158 0.950 . S
H1132 C1161 0.950 . S
H1133 C1162 0.950 . S
H1134 C1164 0.950 . S
H1135 C1165 0.950 1_455 S
C1136 H1118 0.951 . S
C1136 C1137 1.366 . S
C1136 C1138 1.388 . S
C1137 C1136 1.366 . S
C1137 C1141 1.385 . S
C1138 H1119 0.951 . S
C1138 C1136 1.388 . S
C1138 C1139 1.366 . S
C1139 C1138 1.366 . S
C1139 C1140 1.414 . S
C1139 C1142 1.499 . S
C1140 H1120 0.950 . S
C1140 C1139 1.414 . S
C1140 C1141 1.374 . S
C1141 H1121 0.950 . S
C1141 C1137 1.385 . S
C1141 C1140 1.374 . S
C1142 C1139 1.499 . S
C1142 C1143 1.373 . S
C1142 C1144 1.389 . S
C1143 H1122 0.950 . S
C1143 C1142 1.373 . S
C1143 C1159 1.377 1_455 S
C1144 C1142 1.389 . S
C1144 C1145 1.524 . S
C1144 C1158 1.377 1_455 S
C1145 C1144 1.524 . S
C1145 C1146 1.397 . S
C1145 C1150 1.363 . S
C1146 H1123 0.950 . S
C1146 C1145 1.397 . S
C1146 C1147 1.334 . S
C1147 H1124 0.950 . S
C1147 C1146 1.334 . S
C1147 C1148 1.287 . S
C1148 C1147 1.287 . S
C1148 C1149 1.524 . S
C1148 H1167 0.913 . S
C1149 H1125 0.950 . S
C1149 C1148 1.524 . S
C1149 C1150 1.415 . S
C1150 H1126 0.950 1_455 S
C1150 C1145 1.363 . S
C1150 C1149 1.415 . S
C1151 H1127 0.951 . S
C1151 C1152 1.366 . S
C1151 C1153 1.388 . S
C1152 C1151 1.366 . S
C1152 C1156 1.385 . S
C1153 H1128 0.951 . S
C1153 C1151 1.388 . S
C1153 C1154 1.366 . S
C1154 C1153 1.366 . S
C1154 C1155 1.414 . S
C1154 C1157 1.499 . S
C1155 H1129 0.950 . S
C1155 C1154 1.414 . S
C1155 C1156 1.374 . S
C1156 H1130 0.950 . S
C1156 C1152 1.385 . S
C1156 C1155 1.374 . S
C1157 C1154 1.499 . S
C1157 C1158 1.373 . S
C1157 C1159 1.389 . S
C1158 H1131 0.950 . S
C1158 C1144 1.377 1_655 S
C1158 C1157 1.373 . S
C1159 C1143 1.377 1_655 S
C1159 C1157 1.389 . S
C1159 C1160 1.524 . S
C1160 C1159 1.524 . S
C1160 C1161 1.397 . S
C1160 C1165 1.363 . S
C1161 H1132 0.950 . S
C1161 C1160 1.397 . S
C1161 C1162 1.334 . S
C1162 H1133 0.950 . S
C1162 C1161 1.334 . S
C1162 C1163 1.287 . S
C1163 C1162 1.287 . S
C1163 C1164 1.524 . S
C1163 H1166 0.999 . S
C1164 H1134 0.950 . S
C1164 C1163 1.524 . S
C1164 C1165 1.415 . S
C1165 H1135 0.950 1_655 S
C1165 C1160 1.363 . S
C1165 C1164 1.415 . S
H1166 C1163 0.999 . S
H1167 C1148 0.913 . S
H1168 C1186 0.951 . S
H1169 C1188 0.951 1_545 S
H1170 C1190 0.950 . S
H1171 C1191 0.950 . S
H1172 C1193 0.950 . S
H1173 C1196 0.950 . S
H1174 C1197 0.950 . S
H1175 C1199 0.950 . S
H1176 C1200 0.950 . S
H1177 C1201 0.951 . S
H1178 C1203 0.951 1_565 S
H1179 C1205 0.950 . S
H1180 C1206 0.950 . S
H1181 C1208 0.950 . S
H1182 C1211 0.950 . S
H1183 C1212 0.950 . S
H1184 C1214 0.950 . S
H1185 C1215 0.950 . S
C1186 H1168 0.951 . S
C1186 C1187 1.366 . S
C1186 C1188 1.388 . S
C1187 C1186 1.366 . S
C1187 C1191 1.385 . S
C1188 H1169 0.951 1_565 S
C1188 C1186 1.388 . S
C1188 C1189 1.366 . S
C1189 C1188 1.366 . S
C1189 C1190 1.414 . S
C1189 C1192 1.499 . S
C1190 H1170 0.950 . S
C1190 C1189 1.414 . S
C1190 C1191 1.374 . S
C1191 H1171 0.950 . S
C1191 C1187 1.385 . S
C1191 C1190 1.374 . S
C1192 C1189 1.499 . S
C1192 C1193 1.373 . S
C1192 C1194 1.389 1_565 S
C1193 H1172 0.950 . S
C1193 C1192 1.373 . S
C1193 C1209 1.377 . S
C1194 C1192 1.389 1_545 S
C1194 C1195 1.524 . S
C1194 C1208 1.377 . S
C1195 C1194 1.524 . S
C1195 C1196 1.397 1_545 S
C1195 C1200 1.363 . S
C1196 H1173 0.950 . S
C1196 C1195 1.397 1_565 S
C1196 C1197 1.334 . S
C1197 H1174 0.950 . S
C1197 C1196 1.334 . S
C1197 C1198 1.287 1_565 S
C1198 C1197 1.287 1_545 S
C1198 C1199 1.524 . S
C1198 H1217 0.913 . S
C1199 H1175 0.950 . S
C1199 C1198 1.524 . S
C1199 C1200 1.415 . S
C1200 H1176 0.950 . S
C1200 C1195 1.363 . S
C1200 C1199 1.415 . S
C1201 H1177 0.951 . S
C1201 C1202 1.366 . S
C1201 C1203 1.388 . S
C1202 C1201 1.366 . S
C1202 C1206 1.385 . S
C1203 H1178 0.951 1_545 S
C1203 C1201 1.388 . S
C1203 C1204 1.366 . S
C1204 C1203 1.366 . S
C1204 C1205 1.414 . S
C1204 C1207 1.499 . S
C1205 H1179 0.950 . S
C1205 C1204 1.414 . S
C1205 C1206 1.374 . S
C1206 H1180 0.950 . S
C1206 C1202 1.385 . S
C1206 C1205 1.374 . S
C1207 C1204 1.499 . S
C1207 C1208 1.373 . S
C1207 C1209 1.389 1_545 S
C1208 H1181 0.950 . S
C1208 C1194 1.377 . S
C1208 C1207 1.373 . S
C1209 C1193 1.377 . S
C1209 C1207 1.389 1_565 S
C1209 C1210 1.524 . S
C1210 C1209 1.524 . S
C1210 C1211 1.397 1_565 S
C1210 C1215 1.363 . S
C1211 H1182 0.950 . S
C1211 C1210 1.397 1_545 S
C1211 C1212 1.334 . S
C1212 H1183 0.950 . S
C1212 C1211 1.334 . S
C1212 C1213 1.287 1_545 S
C1213 C1212 1.287 1_565 S
C1213 C1214 1.524 . S
C1213 H1216 0.999 . S
C1214 H1184 0.950 . S
C1214 C1213 1.524 . S
C1214 C1215 1.415 . S
C1215 H1185 0.950 . S
C1215 C1210 1.363 . S
C1215 C1214 1.415 . S
H1216 C1213 0.999 . S
H1217 C1198 0.913 . S
H1218 C1236 0.951 . S
H1219 C1238 0.951 . S
H1220 C1240 0.950 . S
H1221 C1241 0.950 . S
H1222 C1243 0.950 . S
H1223 C1246 0.950 . S
H1224 C1247 0.950 . S
H1225 C1249 0.950 . S
H1226 C1250 0.950 . S
H1227 C1251 0.951 . S
H1228 C1253 0.951 . S
H1229 C1255 0.950 . S
H1230 C1256 0.950 . S
H1231 C1258 0.950 . S
H1232 C1261 0.950 . S
H1233 C1262 0.950 . S
H1234 C1264 0.950 . S
H1235 C1265 0.950 . S
C1236 H1218 0.951 . S
C1236 C1237 1.366 . S
C1236 C1238 1.388 . S
C1237 C1236 1.366 . S
C1237 C1241 1.385 . S
C1238 H1219 0.951 . S
C1238 C1236 1.388 . S
C1238 C1239 1.366 . S
C1239 C1238 1.366 . S
C1239 C1240 1.414 . S
C1239 C1242 1.499 . S
C1240 H1220 0.950 . S
C1240 C1239 1.414 . S
C1240 C1241 1.374 . S
C1241 H1221 0.950 . S
C1241 C1237 1.385 . S
C1241 C1240 1.374 . S
C1242 C1239 1.499 . S
C1242 C1243 1.373 . S
C1242 C1244 1.389 . S
C1243 H1222 0.950 . S
C1243 C1242 1.373 . S
C1243 C1259 1.377 . S
C1244 C1242 1.389 . S
C1244 C1245 1.524 . S
C1244 C1258 1.377 . S
C1245 C1244 1.524 . S
C1245 C1246 1.397 . S
C1245 C1250 1.363 . S
C1246 H1223 0.950 . S
C1246 C1245 1.397 . S
C1246 C1247 1.334 . S
C1247 H1224 0.950 . S
C1247 C1246 1.334 . S
C1247 C1248 1.287 . S
C1248 C1247 1.287 . S
C1248 C1249 1.524 . S
C1248 H1267 0.913 . S
C1249 H1225 0.950 . S
C1249 C1248 1.524 . S
C1249 C1250 1.415 . S
C1250 H1226 0.950 . S
C1250 C1245 1.363 . S
C1250 C1249 1.415 . S
C1251 H1227 0.951 . S
C1251 C1252 1.366 . S
C1251 C1253 1.388 . S
C1252 C1251 1.366 . S
C1252 C1256 1.385 . S
C1253 H1228 0.951 . S
C1253 C1251 1.388 . S
C1253 C1254 1.366 . S
C1254 C1253 1.366 . S
C1254 C1255 1.414 . S
C1254 C1257 1.499 . S
C1255 H1229 0.950 . S
C1255 C1254 1.414 . S
C1255 C1256 1.374 . S
C1256 H1230 0.950 . S
C1256 C1252 1.385 . S
C1256 C1255 1.374 . S
C1257 C1254 1.499 . S
C1257 C1258 1.373 . S
C1257 C1259 1.389 . S
C1258 H1231 0.950 . S
C1258 C1244 1.377 . S
C1258 C1257 1.373 . S
C1259 C1243 1.377 . S
C1259 C1257 1.389 . S
C1259 C1260 1.524 . S
C1260 C1259 1.524 . S
C1260 C1261 1.397 . S
C1260 C1265 1.363 . S
C1261 H1232 0.950 . S
C1261 C1260 1.397 . S
C1261 C1262 1.334 . S
C1262 H1233 0.950 . S
C1262 C1261 1.334 . S
C1262 C1263 1.287 . S
C1263 C1262 1.287 . S
C1263 C1264 1.524 . S
C1263 H1266 0.999 . S
C1264 H1234 0.950 . S
C1264 C1263 1.524 . S
C1264 C1265 1.415 . S
C1265 H1235 0.950 . S
C1265 C1260 1.363 . S
C1265 C1264 1.415 . S
H1266 C1263 0.999 . S
H1267 C1248 0.913 . S
H1268 C1286 0.951 . S
H1269 C1288 0.951 . S
H1270 C1290 0.950 1_554 S
H1271 C1291 0.935 1_554 S
H1272 C1293 0.950 . S
H1273 C1296 0.950 . S
H1274 C1297 0.950 . S
H1275 C1299 0.950 . S
H1276 C1300 0.950 . S
H1277 C1301 0.949 . S
H1278 C1303 0.954 . S
H1279 C1305 0.950 . S
H1280 C1306 0.950 . S
H1281 C1308 0.950 . S
H1282 C1311 0.950 . S
H1283 C1312 0.950 . S
H1284 C1314 0.950 . S
H1285 C1315 0.950 . S
C1286 H1268 0.951 . S
C1286 C1287 1.366 . S
C1286 C1288 1.388 . S
C1287 C1286 1.366 . S
C1287 C1291 1.385 . S
C1288 H1269 0.951 . S
C1288 C1286 1.388 . S
C1288 C1289 1.366 . S
C1289 C1288 1.366 . S
C1289 C1290 1.414 . S
C1289 C1292 1.499 . S
C1290 H1270 0.950 1_556 S
C1290 C1289 1.414 . S
C1290 C1291 1.374 . S
C1291 H1271 0.935 1_556 S
C1291 C1287 1.385 . S
C1291 C1290 1.374 . S
C1292 C1289 1.499 . S
C1292 C1293 1.373 1_655 S
C1292 C1294 1.389 . S
C1293 H1272 0.950 . S
C1293 C1292 1.373 1_455 S
C1293 C1309 1.377 . S
C1294 C1292 1.389 . S
C1294 C1295 1.524 . S
C1294 C1308 1.377 . S
C1295 C1294 1.524 . S
C1295 C1296 1.397 . S
C1295 C1300 1.363 . S
C1296 H1273 0.950 . S
C1296 C1295 1.397 . S
C1296 C1297 1.334 . S
C1297 H1274 0.950 . S
C1297 C1296 1.334 . S
C1297 C1298 1.287 . S
C1298 C1297 1.287 . S
C1298 C1299 1.524 . S
C1298 H1317 0.913 . S
C1299 H1275 0.950 . S
C1299 C1298 1.524 . S
C1299 C1300 1.415 . S
C1300 H1276 0.950 . S
C1300 C1295 1.363 . S
C1300 C1299 1.415 . S
C1301 H1277 0.949 . S
C1301 C1302 1.366 . S
C1301 C1303 1.388 . S
C1302 C1301 1.366 . S
C1302 C1306 1.385 . S
C1303 H1278 0.954 . S
C1303 C1301 1.388 . S
C1303 C1304 1.366 . S
C1304 C1303 1.366 . S
C1304 C1305 1.414 . S
C1304 C1307 1.499 . S
C1305 H1279 0.950 . S
C1305 C1304 1.414 . S
C1305 C1306 1.374 . S
C1306 H1280 0.950 . S
C1306 C1302 1.385 . S
C1306 C1305 1.374 . S
C1307 C1304 1.499 . S
C1307 C1308 1.373 1_455 S
C1307 C1309 1.389 . S
C1308 H1281 0.950 . S
C1308 C1294 1.377 . S
C1308 C1307 1.373 1_655 S
C1309 C1293 1.377 . S
C1309 C1307 1.389 . S
C1309 C1310 1.524 . S
C1310 C1309 1.524 . S
C1310 C1311 1.397 . S
C1310 C1315 1.363 1_556 S
C1311 H1282 0.950 . S
C1311 C1310 1.397 . S
C1311 C1312 1.334 . S
C1312 H1283 0.950 . S
C1312 C1311 1.334 . S
C1312 C1313 1.287 1_556 S
C1313 C1312 1.287 1_554 S
C1313 C1314 1.524 . S
C1313 H1316 0.999 . S
C1314 H1284 0.950 . S
C1314 C1313 1.524 . S
C1314 C1315 1.415 . S
C1315 H1285 0.950 . S
C1315 C1310 1.363 1_554 S
C1315 C1314 1.415 . S
H1316 C1313 0.999 . S
H1317 C1298 0.913 . S
H1318 C1336 0.951 . S
H1319 C1338 0.951 . S
H1320 C1340 0.950 1_565 S
H1321 C1341 0.950 . S
H1322 C1343 0.950 . S
H1323 C1346 0.950 . S
H1324 C1347 0.950 . S
H1325 C1349 0.950 . S
H1326 C1350 0.950 . S
H1327 C1351 0.951 . S
H1328 C1353 0.951 . S
H1329 C1355 0.950 1_545 S
H1330 C1356 0.950 . S
H1331 C1358 0.950 . S
H1332 C1361 0.950 . S
H1333 C1362 0.950 . S
H1334 C1364 0.950 . S
H1335 C1365 0.950 . S
C1336 H1318 0.951 . S
C1336 C1337 1.366 . S
C1336 C1338 1.388 . S
C1337 C1336 1.366 . S
C1337 C1341 1.385 . S
C1338 H1319 0.951 . S
C1338 C1336 1.388 . S
C1338 C1339 1.366 . S
C1339 C1338 1.366 . S
C1339 C1340 1.414 . S
C1339 C1342 1.499 . S
C1340 H1320 0.950 1_545 S
C1340 C1339 1.414 . S
C1340 C1341 1.374 . S
C1341 H1321 0.950 . S
C1341 C1337 1.385 . S
C1341 C1340 1.374 . S
C1342 C1339 1.499 . S
C1342 C1343 1.373 1_545 S
C1342 C1344 1.389 . S
C1343 H1322 0.950 . S
C1343 C1342 1.373 1_565 S
C1343 C1359 1.377 . S
C1344 C1342 1.389 . S
C1344 C1345 1.524 . S
C1344 C1358 1.377 . S
C1345 C1344 1.524 . S
C1345 C1346 1.397 . S
C1345 C1350 1.363 . S
C1346 H1323 0.950 . S
C1346 C1345 1.397 . S
C1346 C1347 1.334 . S
C1347 H1324 0.950 . S
C1347 C1346 1.334 . S
C1347 C1348 1.287 . S
C1348 C1347 1.287 . S
C1348 C1349 1.524 . S
C1348 H1367 0.913 . S
C1349 H1325 0.950 . S
C1349 C1348 1.524 . S
C1349 C1350 1.415 . S
C1350 H1326 0.950 . S
C1350 C1345 1.363 . S
C1350 C1349 1.415 . S
C1351 H1327 0.951 . S
C1351 C1352 1.366 . S
C1351 C1353 1.388 . S
C1352 C1351 1.366 . S
C1352 C1356 1.385 . S
C1353 H1328 0.951 . S
C1353 C1351 1.388 . S
C1353 C1354 1.366 . S
C1354 C1353 1.366 . S
C1354 C1355 1.414 . S
C1354 C1357 1.499 . S
C1355 H1329 0.950 1_565 S
C1355 C1354 1.414 . S
C1355 C1356 1.374 . S
C1356 H1330 0.950 . S
C1356 C1352 1.385 . S
C1356 C1355 1.374 . S
C1357 C1354 1.499 . S
C1357 C1358 1.373 1_565 S
C1357 C1359 1.389 . S
C1358 H1331 0.950 . S
C1358 C1344 1.377 . S
C1358 C1357 1.373 1_545 S
C1359 C1343 1.377 . S
C1359 C1357 1.389 . S
C1359 C1360 1.524 . S
C1360 C1359 1.524 . S
C1360 C1361 1.397 . S
C1360 C1365 1.363 . S
C1361 H1332 0.950 . S
C1361 C1360 1.397 . S
C1361 C1362 1.334 . S
C1362 H1333 0.950 . S
C1362 C1361 1.334 . S
C1362 C1363 1.287 . S
C1363 C1362 1.287 . S
C1363 C1364 1.524 . S
C1363 H1366 0.999 . S
C1364 H1334 0.950 . S
C1364 C1363 1.524 . S
C1364 C1365 1.415 . S
C1365 H1335 0.950 . S
C1365 C1360 1.363 . S
C1365 C1364 1.415 . S
H1366 C1363 0.999 . S
H1367 C1348 0.913 . S
C187 C11 1.352 . S
C202 C137 1.357 . S
C237 C25 1.358 . S
C252 C151 1.352 . S
C287 C33 0.888 . S
C302 C159 0.888 . S
C337 C53 1.352 . S
C352 C95 1.358 . S
C387 C109 1.353 . S
C402 C67 1.357 . S
C437 C117 0.887 . S
C452 C75 0.889 . S
C487 C145 1.097 . S
C502 C5 1.096 . S
C537 C19 1.062 . S
C552 C165 1.168 . S
C587 C39 1.166 . S
C602 C89 1.064 . S
C637 C47 1.098 . S
C652 C103 1.096 . S
C687 C61 1.063 . S
C702 C123 1.167 . S
C737 C81 1.166 . S
C752 C131 1.064 . S
C787 C130 0.514 . S
C802 C4 0.518 . S
C837 C18 0.513 . S
C852 C144 0.519 . S
C887 C40 0.339 . S
C902 C166 0.338 . S
C937 C88 0.514 . S
C952 C46 0.518 . S
C987 C60 0.513 . S
C1002 C102 0.519 . S
C1037 C124 0.336 . S
C1052 C82 0.334 . S
C1087 C12 1.260 . S
C1102 C54 1.260 . S
C1137 C68 1.289 . S
C1152 C26 1.289 . S
C1187 C32 1.231 . S
C1202 C74 1.232 . S
C1237 C96 1.289 . S
C1252 C138 1.289 . S
C1287 C110 1.261 . S
C1302 C152 1.261 . S
C1337 C158 1.231 . S
C1352 C116 1.231 . S
