# Generated by pormake.
# Topology yfg, (5)-cn, num edge types: 1
# Building blocks:
#     Node 0, Type 0, BuildingBlock: XOMCOT_clean_sbu_0, # of connection points: 5
#     Node 1, Type 0, BuildingBlock: XOMCOT_clean_sbu_0, # of connection points: 5
#     Node 2, Type 0, BuildingBlock: XOMCOT_clean_sbu_0, # of connection points: 5
#     Node 3, Type 0, BuildingBlock: XOMCOT_clean_sbu_0, # of connection points: 5
#     Node 4, Type 0, BuildingBlock: XOMCOT_clean_sbu_0, # of connection points: 5
#     Node 5, Type 0, BuildingBlock: XOMCOT_clean_sbu_0, # of connection points: 5
#     Node 6, Type 0, BuildingBlock: XOMCOT_clean_sbu_0, # of connection points: 5
#     Node 7, Type 0, BuildingBlock: XOMCOT_clean_sbu_0, # of connection points: 5
#     Edge 8, Type (0, 0), BuildingBlock: UVAHIK_clean_linker_0, # of connection points: 2
#     Edge 9, Type (0, 0), BuildingBlock: UVAHIK_clean_linker_0, # of connection points: 2
#     Edge 10, Type (0, 0), BuildingBlock: UVAHIK_clean_linker_0, # of connection points: 2
#     Edge 11, Type (0, 0), BuildingBlock: UVAHIK_clean_linker_0, # of connection points: 2
#     Edge 12, Type (0, 0), BuildingBlock: UVAHIK_clean_linker_0, # of connection points: 2
#     Edge 13, Type (0, 0), BuildingBlock: UVAHIK_clean_linker_0, # of connection points: 2
#     Edge 14, Type (0, 0), BuildingBlock: UVAHIK_clean_linker_0, # of connection points: 2
#     Edge 15, Type (0, 0), BuildingBlock: UVAHIK_clean_linker_0, # of connection points: 2
#     Edge 16, Type (0, 0), BuildingBlock: UVAHIK_clean_linker_0, # of connection points: 2
#     Edge 17, Type (0, 0), BuildingBlock: UVAHIK_clean_linker_0, # of connection points: 2
#     Edge 18, Type (0, 0), BuildingBlock: UVAHIK_clean_linker_0, # of connection points: 2
#     Edge 19, Type (0, 0), BuildingBlock: UVAHIK_clean_linker_0, # of connection points: 2
#     Edge 20, Type (0, 0), BuildingBlock: UVAHIK_clean_linker_0, # of connection points: 2
#     Edge 21, Type (0, 0), BuildingBlock: UVAHIK_clean_linker_0, # of connection points: 2
#     Edge 22, Type (0, 0), BuildingBlock: UVAHIK_clean_linker_0, # of connection points: 2
#     Edge 23, Type (0, 0), BuildingBlock: UVAHIK_clean_linker_0, # of connection points: 2
#     Edge 24, Type (0, 0), BuildingBlock: UVAHIK_clean_linker_0, # of connection points: 2
#     Edge 25, Type (0, 0), BuildingBlock: UVAHIK_clean_linker_0, # of connection points: 2
#     Edge 26, Type (0, 0), BuildingBlock: UVAHIK_clean_linker_0, # of connection points: 2
#     Edge 27, Type (0, 0), BuildingBlock: UVAHIK_clean_linker_0, # of connection points: 2
# Relax obj value: 0.354
# Max RMSD: 0.191
# Mean RMSD: 0.191
data_MOF--net-yfg--node1-XOMCOT_clean_sbu_0--edge1-UVAHIK_clean_linker_0
_symmetry_space_group_name_H-M    P1
_symmetry_Int_Tables_number       1
_symmetry_cell_setting            triclinic
loop_
_symmetry_equiv_pos_as_xyz
'x, y, z'
_cell_length_a     43.806748
_cell_length_b     43.834659
_cell_length_c     53.893881
_cell_angle_alpha  89.960087
_cell_angle_beta   89.984492
_cell_angle_gamma 90.017225
loop_
_atom_site_label
_atom_site_type_symbol
_atom_site_fract_x
_atom_site_fract_y
_atom_site_fract_z
_atom_type_partial_charge
Co0 Co 0.25351 0.4942 0.04742 0.0
C1 C 0.2871 0.52356 0.0057 0.0
C2 C 0.28519 0.47492 0.00192 0.0
C3 C 0.29985 0.48685 0.98149 0.0
N4 N 0.27731 0.49791 0.01719 0.0
N5 N 0.30106 0.5175 0.98383 0.0
H6 H 0.28396 0.54624 0.01307 0.0
H7 H 0.27991 0.45112 0.00501 0.0
C8 C 0.25955 0.42993 0.06637 0.0
O9 O 0.23115 0.43028 0.07419 0.0
N10 N 0.22937 0.49107 0.07761 0.0
C11 C 0.19873 0.49272 0.07995 0.0
C12 C 0.19127 0.49135 0.10468 0.0
C13 C 0.24008 0.4892 0.10109 0.0
N14 N 0.21726 0.4892 0.11793 0.0
C15 C 0.19985 0.50524 0.0189 0.0
C16 C 0.18185 0.44527 0.01324 0.0
C17 C 0.16101 0.46854 0.00755 0.0
C18 C 0.17098 0.49886 0.00931 0.0
C19 C 0.21066 0.4527 0.0227 0.0
N20 N 0.21834 0.48238 0.02731 0.0
H21 H 0.20627 0.5288 0.02119 0.0
H22 H 0.22614 0.43437 0.02674 0.0
H23 H 0.18259 0.49521 0.06501 0.0
H24 H 0.26406 0.48772 0.10573 0.0
O25 O 0.24738 0.53821 0.04892 0.0
O26 O 0.28568 0.51294 0.06608 0.0
O27 O 0.2695 0.45122 0.05223 0.0
C28 C 0.27171 0.53871 0.06281 0.0
H29 H 0.30808 0.47388 0.96579 0.0
H30 H 0.16848 0.49279 0.11235 0.0
H31 H 0.17567 0.4215 0.01106 0.0
H32 H 0.15596 0.51772 0.00493 0.0
Co33 Co 0.50396 0.25678 0.29619 0.0
C34 C 0.47563 0.28 0.25021 0.0
C35 C 0.51379 0.30759 0.26112 0.0
C36 C 0.5007 0.32033 0.24032 0.0
N37 N 0.49811 0.28226 0.26726 0.0
N38 N 0.47661 0.30304 0.23351 0.0
H39 H 0.45861 0.26213 0.25029 0.0
H40 H 0.53277 0.3169 0.27143 0.0
C41 C 0.56867 0.26459 0.31412 0.0
O42 O 0.56984 0.23599 0.32135 0.0
N43 N 0.50896 0.23126 0.32536 0.0
C44 C 0.50742 0.20058 0.32712 0.0
C45 C 0.5101 0.1924 0.35167 0.0
C46 C 0.51207 0.24124 0.34891 0.0
N47 N 0.51295 0.218 0.36532 0.0
C48 C 0.4942 0.20409 0.26626 0.0
C49 C 0.55471 0.18886 0.25903 0.0
C50 C 0.53211 0.16731 0.2533 0.0
C51 C 0.50147 0.17594 0.25582 0.0
C52 C 0.54637 0.21701 0.26925 0.0
N53 N 0.51653 0.22326 0.27461 0.0
H54 H 0.47045 0.20925 0.26932 0.0
H55 H 0.5642 0.23305 0.27339 0.0
H56 H 0.50404 0.18496 0.31194 0.0
H57 H 0.5139 0.26508 0.35388 0.0
O58 O 0.46024 0.24901 0.29801 0.0
O59 O 0.48444 0.28709 0.31643 0.0
O60 O 0.54656 0.27397 0.30058 0.0
C61 C 0.45906 0.27256 0.31265 0.0
H62 H 0.50762 0.34146 0.23157 0.0
H63 H 0.50906 0.16941 0.35895 0.0
H64 H 0.57865 0.18366 0.25638 0.0
H65 H 0.48311 0.16027 0.25149 0.0
Co66 Co 0.74165 0.49245 0.55192 0.0
C67 C 0.71787 0.47258 0.50308 0.0
C68 C 0.6896 0.50736 0.51882 0.0
C69 C 0.67611 0.49711 0.4973 0.0
N70 N 0.71623 0.49246 0.52226 0.0
N71 N 0.69383 0.47508 0.48751 0.0
H72 H 0.73544 0.45546 0.50116 0.0
H73 H 0.67919 0.52289 0.53181 0.0
C74 C 0.71638 0.55779 0.5577 0.0
O75 O 0.72519 0.56722 0.53568 0.0
N76 N 0.76647 0.49155 0.58144 0.0
C77 C 0.79589 0.48292 0.58299 0.0
C78 C 0.8046 0.48387 0.60748 0.0
C79 C 0.75747 0.49717 0.60487 0.0
N80 N 0.78039 0.49271 0.62127 0.0
C81 C 0.78915 0.50055 0.51585 0.0
C82 C 0.81639 0.54913 0.53995 0.0
C83 C 0.83275 0.53378 0.52147 0.0
C84 C 0.81826 0.51014 0.50854 0.0
C85 C 0.78727 0.53906 0.54651 0.0
N86 N 0.77439 0.51432 0.53514 0.0
H87 H 0.77991 0.48024 0.50753 0.0
H88 H 0.77671 0.54911 0.56264 0.0
H89 H 0.80993 0.47623 0.56741 0.0
H90 H 0.73437 0.50341 0.60978 0.0
O91 O 0.75394 0.4504 0.54561 0.0
O92 O 0.71367 0.46525 0.56755 0.0
O93 O 0.72184 0.53061 0.56487 0.0
C94 C 0.73089 0.44315 0.55978 0.0
H95 H 0.65389 0.5038 0.49041 0.0
H96 H 0.8271 0.47846 0.61447 0.0
H97 H 0.82685 0.56743 0.55044 0.0
H98 H 0.83034 0.49739 0.4944 0.0
Co99 Co 0.50337 0.74981 0.79792 0.0
C100 C 0.52434 0.72582 0.74946 0.0
C101 C 0.48371 0.70307 0.76182 0.0
C102 C 0.49406 0.68883 0.74067 0.0
N103 N 0.50282 0.72616 0.76748 0.0
N104 N 0.51966 0.70306 0.73301 0.0
H105 H 0.54417 0.74052 0.74925 0.0
H106 H 0.46442 0.69584 0.77283 0.0
C107 C 0.4439 0.73864 0.82527 0.0
O108 O 0.4446 0.76615 0.83492 0.0
N109 N 0.50497 0.77339 0.82828 0.0
C110 C 0.50693 0.80395 0.83068 0.0
C111 C 0.50832 0.81104 0.85552 0.0
C112 C 0.50622 0.76229 0.85163 0.0
N113 N 0.50777 0.78483 0.86864 0.0
C114 C 0.50477 0.80233 0.76673 0.0
C115 C 0.44534 0.82114 0.77435 0.0
C116 C 0.46595 0.84114 0.763 0.0
C117 C 0.49555 0.8309 0.75805 0.0
C118 C 0.45531 0.79237 0.78214 0.0
N119 N 0.48534 0.78426 0.7801 0.0
H120 H 0.52817 0.79561 0.76384 0.0
H121 H 0.43877 0.77738 0.79023 0.0
H122 H 0.5074 0.82015 0.81559 0.0
H123 H 0.50482 0.73825 0.85608 0.0
O124 O 0.54637 0.75932 0.7935 0.0
O125 O 0.5281 0.71876 0.81313 0.0
O126 O 0.4628 0.73106 0.80818 0.0
C127 C 0.55162 0.73449 0.806 0.0
H128 H 0.48417 0.66877 0.73214 0.0
H129 H 0.5098 0.83374 0.86331 0.0
H130 H 0.42194 0.82798 0.7777 0.0
H131 H 0.51202 0.8456 0.74897 0.0
Co132 Co 0.25132 0.50395 0.45334 0.0
C133 C 0.28643 0.47806 0.49574 0.0
C134 C 0.2833 0.52681 0.4976 0.0
C135 C 0.29881 0.51652 0.51823 0.0
N136 N 0.27569 0.50271 0.48341 0.0
N137 N 0.30075 0.48582 0.51708 0.0
H138 H 0.28377 0.45486 0.48936 0.0
H139 H 0.27731 0.55024 0.49363 0.0
C140 C 0.25865 0.56627 0.43015 0.0
O141 O 0.23106 0.56479 0.42071 0.0
N142 N 0.22663 0.50443 0.42342 0.0
C143 C 0.19611 0.50098 0.42167 0.0
C144 C 0.18821 0.49944 0.39702 0.0
C145 C 0.23687 0.5044 0.39977 0.0
N146 N 0.21386 0.50152 0.38326 0.0
C147 C 0.20008 0.49582 0.48527 0.0
C148 C 0.17728 0.55441 0.48184 0.0
C149 C 0.15873 0.53143 0.49177 0.0
C150 C 0.17104 0.50218 0.49467 0.0
C151 C 0.20644 0.54719 0.47312 0.0
N152 N 0.21651 0.51768 0.47306 0.0
H153 H 0.20847 0.47274 0.48649 0.0
H154 H 0.22013 0.56539 0.46589 0.0
H155 H 0.18049 0.49902 0.43708 0.0
H156 H 0.26076 0.5058 0.39481 0.0
O157 O 0.24481 0.45998 0.45455 0.0
O158 O 0.28295 0.48338 0.43534 0.0
O159 O 0.26759 0.54644 0.44606 0.0
C160 C 0.26879 0.45811 0.44033 0.0
H161 H 0.30714 0.5306 0.53325 0.0
H162 H 0.16528 0.49684 0.38985 0.0
H163 H 0.16895 0.5776 0.48018 0.0
H164 H 0.15761 0.48387 0.50263 0.0
Co165 Co 0.51013 0.25276 0.70048 0.0
C166 C 0.53756 0.28265 0.74473 0.0
C167 C 0.48952 0.2913 0.74216 0.0
C168 C 0.50078 0.30608 0.7628 0.0
N169 N 0.51265 0.2768 0.73069 0.0
N170 N 0.53108 0.30069 0.76441 0.0
H171 H 0.55997 0.27363 0.74081 0.0
H172 H 0.46603 0.29127 0.73602 0.0
C173 C 0.45129 0.26924 0.67407 0.0
O174 O 0.45006 0.24196 0.66405 0.0
N175 N 0.50854 0.22843 0.67052 0.0
C176 C 0.50853 0.19775 0.66872 0.0
C177 C 0.51051 0.18984 0.64407 0.0
C178 C 0.51128 0.23871 0.64702 0.0
N179 N 0.51217 0.21563 0.63048 0.0
C180 C 0.5075 0.20228 0.73352 0.0
C181 C 0.4479 0.18533 0.72422 0.0
C182 C 0.46731 0.16471 0.73624 0.0
C183 C 0.49693 0.17416 0.74217 0.0
C184 C 0.45924 0.21356 0.71639 0.0
N185 N 0.48945 0.22056 0.71915 0.0
H186 H 0.53095 0.20839 0.7371 0.0
H187 H 0.4437 0.2289 0.70752 0.0
H188 H 0.50776 0.18203 0.68414 0.0
H189 H 0.51293 0.26263 0.64222 0.0
O190 O 0.55199 0.23883 0.7041 0.0
O191 O 0.5375 0.28076 0.68422 0.0
O192 O 0.47121 0.27536 0.69081 0.0
C193 C 0.55937 0.26247 0.69079 0.0
H194 H 0.48759 0.32012 0.77533 0.0
H195 H 0.51062 0.16685 0.63677 0.0
H196 H 0.42446 0.17923 0.72015 0.0
H197 H 0.51253 0.15908 0.7518 0.0
Co198 Co 0.74554 0.50807 0.9563 0.0
C199 C 0.72238 0.53013 0.00424 0.0
C200 C 0.69598 0.49217 0.99122 0.0
C201 C 0.68251 0.5035 0.01244 0.0
N202 N 0.72096 0.50896 0.98611 0.0
N203 N 0.69899 0.52758 0.02047 0.0
H204 H 0.73957 0.54782 0.00497 0.0
H205 H 0.68709 0.47406 0.9797 0.0
C206 C 0.73958 0.44621 0.93265 0.0
O207 O 0.76849 0.44715 0.9262 0.0
N208 N 0.77016 0.50824 0.92637 0.0
C209 C 0.80076 0.51086 0.92434 0.0
C210 C 0.8085 0.51092 0.89964 0.0
C211 C 0.75971 0.50747 0.90281 0.0
N212 N 0.7827 0.50876 0.88617 0.0
C213 C 0.79954 0.5135 0.98553 0.0
C214 C 0.81384 0.45228 0.98827 0.0
C215 C 0.83594 0.47381 0.99523 0.0
C216 C 0.8278 0.50471 0.99497 0.0
C217 C 0.78556 0.46214 0.97915 0.0
N218 N 0.77984 0.49252 0.9758 0.0
H219 H 0.79473 0.53755 0.98436 0.0
H220 H 0.76891 0.44513 0.97436 0.0
H221 H 0.8167 0.51282 0.93946 0.0
H222 H 0.73582 0.50533 0.89798 0.0
O223 O 0.75326 0.5516 0.95895 0.0
O224 O 0.7142 0.53063 0.93921 0.0
O225 O 0.72871 0.46627 0.94751 0.0
C226 C 0.72878 0.55515 0.94566 0.0
H227 H 0.66116 0.49578 0.02036 0.0
H228 H 0.83135 0.51294 0.89217 0.0
H229 H 0.81863 0.42807 0.98928 0.0
H230 H 0.84385 0.52227 1.00039 0.0
Co231 Co 0.49733 0.75042 0.20491 0.0
C232 C 0.47413 0.72886 0.25318 0.0
C233 C 0.51399 0.70387 0.24222 0.0
C234 C 0.50245 0.69102 0.26361 0.0
N235 N 0.49616 0.72757 0.23567 0.0
N236 N 0.4772 0.70658 0.27037 0.0
H237 H 0.45557 0.7451 0.2528 0.0
H238 H 0.53307 0.69532 0.2316 0.0
C239 C 0.56 0.74378 0.18263 0.0
O240 O 0.55903 0.77205 0.17456 0.0
N241 N 0.49759 0.77321 0.174 0.0
C242 C 0.49421 0.80355 0.17077 0.0
C243 C 0.49376 0.8098 0.1458 0.0
C244 C 0.49878 0.76144 0.15085 0.0
N245 N 0.49658 0.78333 0.13328 0.0
C246 C 0.49037 0.80593 0.23193 0.0
C247 C 0.55142 0.82086 0.23571 0.0
C248 C 0.52947 0.84295 0.24171 0.0
C249 C 0.49863 0.83457 0.24088 0.0
C250 C 0.5421 0.79222 0.22705 0.0
N251 N 0.51187 0.78603 0.22327 0.0
H252 H 0.4664 0.80082 0.23036 0.0
H253 H 0.55943 0.77559 0.22305 0.0
H254 H 0.4919 0.8203 0.18525 0.0
H255 H 0.50074 0.7373 0.14701 0.0
O256 O 0.45353 0.75738 0.20664 0.0
O257 O 0.47584 0.71769 0.18882 0.0
O258 O 0.53952 0.73387 0.19754 0.0
C259 C 0.45084 0.73193 0.19448 0.0
H260 H 0.51095 0.6706 0.27254 0.0
H261 H 0.49164 0.83221 0.13755 0.0
H262 H 0.57556 0.82589 0.23717 0.0
H263 H 0.48076 0.85065 0.24554 0.0
C264 C 0.19346 0.48502 0.34269 0.0
C265 C 0.21616 0.49989 0.3566 0.0
C266 C 0.19525 0.48388 0.31687 0.0
C267 C 0.24829 0.49036 0.26416 0.0
H268 H 0.17404 0.50538 0.22695 0.0
C269 C 0.24494 0.50167 0.15666 0.0
C270 C 0.21972 0.48855 0.14457 0.0
C271 C 0.24606 0.50287 0.1826 0.0
C272 C 0.19491 0.50077 0.23705 0.0
H273 H 0.25866 0.52513 0.35413 0.0
H274 H 0.26184 0.52295 0.30891 0.0
H275 H 0.1731 0.50809 0.27202 0.0
H276 H 0.17675 0.46504 0.15012 0.0
H277 H 0.17877 0.46682 0.19521 0.0
H278 H 0.27003 0.48285 0.22904 0.0
C279 C 0.24279 0.51199 0.31812 0.0
C280 C 0.19437 0.50237 0.26288 0.0
C281 C 0.24096 0.51321 0.34403 0.0
C282 C 0.19617 0.47583 0.15891 0.0
C283 C 0.19732 0.47692 0.18474 0.0
C284 C 0.24882 0.48867 0.23822 0.0
C285 C 0.21979 0.49752 0.30427 0.0
C286 C 0.22096 0.49689 0.27675 0.0
C287 C 0.22201 0.49089 0.19691 0.0
C288 C 0.22203 0.49356 0.2244 0.0
H289 H 0.1744 0.47394 0.35173 0.0
H290 H 0.17747 0.47204 0.30675 0.0
H291 H 0.26909 0.48581 0.27437 0.0
H292 H 0.26329 0.51191 0.14609 0.0
H293 H 0.26529 0.51399 0.1914 0.0
C294 C 0.50421 0.24587 0.40455 0.0
C295 C 0.51519 0.22005 0.39192 0.0
C296 C 0.5055 0.24737 0.43042 0.0
C297 C 0.5439 0.2137 0.48498 0.0
H298 H 0.47234 0.24206 0.5205 0.0
C299 C 0.52736 0.19431 0.58989 0.0
C300 C 0.51436 0.21802 0.60388 0.0
C301 C 0.52886 0.19629 0.56406 0.0
C302 C 0.49267 0.23449 0.51086 0.0
H303 H 0.5368 0.17593 0.39652 0.0
H304 H 0.53864 0.17832 0.44166 0.0
H305 H 0.47259 0.24257 0.47527 0.0
H306 H 0.49271 0.26243 0.60166 0.0
H307 H 0.49578 0.26612 0.5566 0.0
H308 H 0.56387 0.20536 0.52058 0.0
C309 C 0.52923 0.1975 0.43156 0.0
C310 C 0.49281 0.23478 0.48495 0.0
C311 C 0.52786 0.19597 0.40571 0.0
C312 C 0.50315 0.2439 0.59146 0.0
C313 C 0.5046 0.24587 0.56562 0.0
C314 C 0.54377 0.21343 0.51089 0.0
C315 C 0.5179 0.22313 0.44421 0.0
C316 C 0.51833 0.22415 0.47173 0.0
C317 C 0.51735 0.22202 0.55162 0.0
C318 C 0.51805 0.22358 0.52412 0.0
H319 H 0.49402 0.26466 0.3945 0.0
H320 H 0.49682 0.26753 0.43963 0.0
H321 H 0.56409 0.20581 0.47531 0.0
H322 H 0.53652 0.17423 0.59888 0.0
H323 H 0.53853 0.17737 0.55381 0.0
C324 C 0.80095 0.48126 0.66298 0.0
C325 C 0.77912 0.49577 0.64791 0.0
C326 C 0.80005 0.48443 0.68871 0.0
C327 C 0.74949 0.50103 0.74079 0.0
H328 H 0.82508 0.5184 0.77545 0.0
C329 C 0.7552 0.52033 0.84723 0.0
C330 C 0.78052 0.5078 0.85956 0.0
C331 C 0.75385 0.52031 0.82129 0.0
C332 C 0.80382 0.5132 0.76611 0.0
H333 H 0.73915 0.5251 0.64839 0.0
H334 H 0.73733 0.53005 0.69346 0.0
H335 H 0.82487 0.51567 0.73034 0.0
H336 H 0.82357 0.48432 0.85455 0.0
H337 H 0.82107 0.48375 0.8095 0.0
H338 H 0.72857 0.49781 0.77662 0.0
C339 C 0.75508 0.5162 0.68516 0.0
C340 C 0.80371 0.51176 0.74027 0.0
C341 C 0.75612 0.51327 0.65934 0.0
C342 C 0.80409 0.49469 0.84553 0.0
C343 C 0.80266 0.49446 0.8197 0.0
C344 C 0.74963 0.50223 0.76673 0.0
C345 C 0.77718 0.50197 0.70005 0.0
C346 C 0.77665 0.50529 0.72737 0.0
C347 C 0.77771 0.50757 0.80724 0.0
C348 C 0.77691 0.50793 0.77968 0.0
H349 H 0.81861 0.46709 0.65503 0.0
H350 H 0.81708 0.47279 0.69979 0.0
H351 H 0.72835 0.49581 0.73128 0.0
H352 H 0.73684 0.53083 0.85761 0.0
H353 H 0.73444 0.53085 0.81227 0.0
C354 C 0.51908 0.75578 0.90694 0.0
C355 C 0.50687 0.78172 0.89522 0.0
C356 C 0.51762 0.75267 0.93276 0.0
C357 C 0.47413 0.77932 0.98693 0.0
H358 H 0.54583 0.75705 0.02504 0.0
C359 C 0.48177 0.801 0.0915 0.0
C360 C 0.49651 0.77953 0.10671 0.0
C361 C 0.48227 0.79802 0.06576 0.0
C362 C 0.52546 0.76278 0.01465 0.0
H363 H 0.48328 0.82451 0.90136 0.0
H364 H 0.48085 0.81919 0.94629 0.0
H365 H 0.54838 0.75777 0.97972 0.0
H366 H 0.52329 0.73793 0.1067 0.0
H367 H 0.5237 0.73238 0.06155 0.0
H368 H 0.45118 0.78451 0.02166 0.0
C369 C 0.49148 0.80121 0.93555 0.0
C370 C 0.52696 0.76325 0.98872 0.0
C371 C 0.49319 0.80444 0.90984 0.0
C372 C 0.51149 0.75472 0.09552 0.0
C373 C 0.512 0.75172 0.06965 0.0
C374 C 0.47258 0.77869 0.01278 0.0
C375 C 0.50357 0.77527 0.94729 0.0
C376 C 0.50147 0.77214 0.97464 0.0
C377 C 0.49742 0.7734 0.05449 0.0
C378 C 0.4984 0.77105 0.02698 0.0
H379 H 0.52998 0.73803 0.89615 0.0
H380 H 0.52706 0.7324 0.94132 0.0
H381 H 0.45394 0.78566 0.97654 0.0
H382 H 0.46968 0.82015 0.09947 0.0
H383 H 0.47118 0.81539 0.05467 0.0
C384 C 0.11282 0.4392 0.01598 0.0
C385 C 0.12835 0.46171 0.00224 0.0
C386 C 0.08112 0.4361 0.01411 0.0
C387 C 0.01427 0.48297 1.00092 0.0
H388 H 0.96967 0.40651 1.00027 0.0
C389 C 0.8829 0.44344 0.98501 0.0
C390 C 0.86812 0.46487 1.00029 0.0
C391 C 0.91452 0.43926 0.98652 0.0
C392 C 0.98187 0.42801 1.00044 0.0
H393 H 0.12287 0.49694 0.97431 0.0
H394 H 0.06755 0.49171 0.97128 0.0
H395 H 0.0256 0.40613 0.99781 0.0
H396 H 0.87467 0.49672 0.03061 0.0
H397 H 0.9298 0.48957 0.0331 0.0
H398 H 0.97083 0.50493 0.00354 0.0
C399 C 0.07991 0.47682 0.98379 0.0
C400 C 0.01382 0.42779 0.99912 0.0
C401 C 0.1116 0.47981 0.98554 0.0
C402 C 0.88541 0.4805 0.01822 0.0
C403 C 0.91698 0.47643 0.01964 0.0
C404 C 0.98248 0.48318 0.00249 0.0
C405 C 0.06424 0.45553 0.99857 0.0
C406 C 0.03033 0.45531 0.99924 0.0
C407 C 0.93201 0.45652 0.00326 0.0
C408 C 0.96589 0.45573 0.0023 0.0
H409 H 0.12488 0.4251 0.02925 0.0
H410 H 0.06967 0.41961 0.02584 0.0
H411 H 0.02634 0.50454 0.0014 0.0
H412 H 0.87036 0.43125 0.97082 0.0
H413 H 0.92547 0.42383 0.97359 0.0
C414 C 0.5627 0.11986 0.26108 0.0
C415 C 0.53998 0.1351 0.2474 0.0
C416 C 0.56627 0.08824 0.25908 0.0
C417 C 0.57499 0.02089 0.24458 0.0
H418 H 0.49777 0.97782 0.24833 0.0
C419 C 0.55994 0.88984 0.2315 0.0
C420 C 0.53806 0.87525 0.24652 0.0
C421 C 0.56403 0.92146 0.23278 0.0
C422 C 0.51955 0.98949 0.24748 0.0
H423 H 0.50502 0.12939 0.21931 0.0
H424 H 0.51116 0.07424 0.21591 0.0
H425 H 0.49813 0.03323 0.24582 0.0
H426 H 0.50525 0.88212 0.27613 0.0
H427 H 0.5123 0.93725 0.27826 0.0
H428 H 0.59632 0.97684 0.24637 0.0
C429 C 0.52582 0.0867 0.22853 0.0
C430 C 0.51974 0.02123 0.24567 0.0
C431 C 0.52232 0.11828 0.23046 0.0
C432 C 0.52184 0.89272 0.26396 0.0
C433 C 0.52584 0.9243 0.26516 0.0
C434 C 0.57479 0.98897 0.24616 0.0
C435 C 0.54713 0.07121 0.24342 0.0
C436 C 0.54742 0.03733 0.24423 0.0
C437 C 0.54625 0.93913 0.24904 0.0
C438 C 0.54703 0.97297 0.24779 0.0
H439 H 0.57647 0.13202 0.27452 0.0
H440 H 0.58279 0.07694 0.27088 0.0
H441 H 0.59667 0.03269 0.24346 0.0
H442 H 0.5726 0.87712 0.21769 0.0
H443 H 0.57984 0.93226 0.22006 0.0
C444 C 0.10747 0.55002 0.47831 0.0
C445 C 0.12595 0.53707 0.49681 0.0
C446 C 0.07593 0.55243 0.48166 0.0
C447 C 0.0129 0.52025 0.52017 0.0
H448 H 0.96573 0.58445 0.48878 0.0
C449 C 0.88494 0.53891 0.53957 0.0
C450 C 0.86601 0.53908 0.51851 0.0
C451 C 0.9166 0.5408 0.53712 0.0
C452 C 0.97868 0.56636 0.49754 0.0
H453 H 0.12624 0.51759 0.5337 0.0
H454 H 0.07137 0.52313 0.54022 0.0
H455 H 0.02133 0.58484 0.48546 0.0
H456 H 0.8653 0.54209 0.4784 0.0
H457 H 0.92103 0.54629 0.47412 0.0
H458 H 0.97009 0.50245 0.53286 0.0
C459 C 0.08092 0.53045 0.52268 0.0
C460 C 0.01055 0.56643 0.49558 0.0
C461 C 0.11243 0.52751 0.5191 0.0
C462 C 0.87939 0.54201 0.49492 0.0
C463 C 0.91115 0.54449 0.49249 0.0
C464 C 0.98114 0.52055 0.52251 0.0
C465 C 0.06209 0.54239 0.5038 0.0
C466 C 0.02815 0.54324 0.50674 0.0
C467 C 0.93003 0.54336 0.51357 0.0
C468 C 0.96373 0.54349 0.51112 0.0
H469 H 0.11727 0.55711 0.46077 0.0
H470 H 0.06236 0.56119 0.46647 0.0
H471 H 0.02536 0.50157 0.52853 0.0
H472 H 0.87531 0.53619 0.55796 0.0
H473 H 0.93065 0.53999 0.55364 0.0
C474 C 0.46293 0.11766 0.76269 0.0
C475 C 0.45825 0.13245 0.73986 0.0
C476 C 0.45806 0.0862 0.76487 0.0
C477 C 0.46656 0.01775 0.72993 0.0
H478 H 0.41329 0.97811 0.77746 0.0
C479 C 0.46146 0.88668 0.7351 0.0
C480 C 0.45783 0.87343 0.75859 0.0
C481 C 0.45693 0.91801 0.73178 0.0
C482 C 0.42866 0.9887 0.7643 0.0
H483 H 0.44456 0.12617 0.70157 0.0
H484 H 0.43688 0.07103 0.70527 0.0
H485 H 0.41421 0.03374 0.77478 0.0
H486 H 0.44662 0.88216 0.79702 0.0
H487 H 0.44022 0.93688 0.79172 0.0
H488 H 0.48264 0.97343 0.72032 0.0
C489 C 0.44373 0.08389 0.7215 0.0
C490 C 0.42893 0.02058 0.7627 0.0
C491 C 0.44793 0.11539 0.71946 0.0
C492 C 0.44909 0.89186 0.77863 0.0
C493 C 0.44529 0.92328 0.77549 0.0
C494 C 0.46686 0.98598 0.73191 0.0
C495 C 0.44916 0.06899 0.74412 0.0
C496 C 0.4479 0.03532 0.7455 0.0
C497 C 0.44955 0.93697 0.75207 0.0
C498 C 0.44797 0.97089 0.74917 0.0
H499 H 0.47101 0.13033 0.77864 0.0
H500 H 0.46256 0.07509 0.78246 0.0
H501 H 0.48165 0.02871 0.71671 0.0
H502 H 0.46814 0.87282 0.71937 0.0
H503 H 0.45965 0.92736 0.71332 0.0
C504 C 0.39796 0.73918 0.17804 0.0
C505 C 0.42115 0.71978 0.18672 0.0
C506 C 0.37148 0.72686 0.16743 0.0
C507 C 0.33808 0.68742 0.12709 0.0
H508 H 0.29779 0.61776 0.15706 0.0
C509 C 0.30241 0.56249 0.09614 0.0
C510 C 0.28139 0.56601 0.0767 0.0
C511 C 0.31028 0.58712 0.11101 0.0
C512 C 0.30838 0.63751 0.14855 0.0
H513 H 0.43453 0.6728 0.19255 0.0
H514 H 0.38804 0.65133 0.17494 0.0
H515 H 0.32821 0.65194 0.18287 0.0
H516 H 0.25245 0.59824 0.05727 0.0
H517 H 0.26728 0.64217 0.08317 0.0
H518 H 0.32034 0.67132 0.09236 0.0
C519 C 0.39027 0.67591 0.17602 0.0
C520 C 0.32568 0.65705 0.1633 0.0
C521 C 0.41691 0.68814 0.18594 0.0
C522 C 0.26878 0.59497 0.07212 0.0
C523 C 0.27712 0.61997 0.08692 0.0
C524 C 0.3208 0.66771 0.11225 0.0
C525 C 0.36763 0.69509 0.16617 0.0
C526 C 0.34202 0.68113 0.15247 0.0
C527 C 0.29758 0.61601 0.10675 0.0
C528 C 0.30733 0.64163 0.12271 0.0
H529 H 0.401 0.76371 0.1783 0.0
H530 H 0.35437 0.74201 0.15977 0.0
H531 H 0.35064 0.7058 0.11833 0.0
H532 H 0.31244 0.54048 0.10027 0.0
H533 H 0.32663 0.58357 0.12582 0.0
C534 C 0.43414 0.29821 0.34824 0.0
C535 C 0.4313 0.28091 0.32647 0.0
C536 C 0.40842 0.3064 0.36183 0.0
C537 C 0.32987 0.32626 0.35348 0.0
H538 H 0.33294 0.33295 0.42525 0.0
C539 C 0.29353 0.43141 0.40534 0.0
C540 C 0.27807 0.4296 0.42809 0.0
C541 C 0.30286 0.4051 0.39315 0.0
C542 C 0.33116 0.33059 0.40529 0.0
H543 H 0.39946 0.25793 0.30205 0.0
H544 H 0.35386 0.27337 0.32559 0.0
H545 H 0.36833 0.29892 0.40379 0.0
H546 H 0.25958 0.39893 0.4558 0.0
H547 H 0.27733 0.35226 0.43473 0.0
H548 H 0.2942 0.3596 0.35487 0.0
C549 C 0.37621 0.28015 0.33219 0.0
C550 C 0.35155 0.31132 0.393 0.0
C551 C 0.40218 0.27145 0.31872 0.0
C552 C 0.2716 0.40082 0.4383 0.0
C553 C 0.28161 0.37426 0.42626 0.0
C554 C 0.30959 0.34564 0.36577 0.0
C555 C 0.37916 0.29778 0.35385 0.0
C556 C 0.35221 0.31033 0.36692 0.0
C557 C 0.29735 0.37627 0.40356 0.0
C558 C 0.31126 0.34924 0.39165 0.0
H559 H 0.45633 0.3055 0.35486 0.0
H560 H 0.41141 0.32049 0.37816 0.0
H561 H 0.32984 0.32594 0.33338 0.0
H562 H 0.29849 0.45329 0.39687 0.0
H563 H 0.31545 0.4074 0.37594 0.0
C564 C 0.60469 0.29534 0.68487 0.0
C565 C 0.59034 0.26716 0.68137 0.0
C566 C 0.63155 0.30216 0.67213 0.0
C567 C 0.66245 0.29385 0.61267 0.0
H568 H 0.73196 0.33571 0.64129 0.0
C569 C 0.72907 0.38566 0.5579 0.0
C570 C 0.72775 0.413 0.57137 0.0
C571 C 0.72285 0.35779 0.56984 0.0
C572 C 0.71302 0.32362 0.6329 0.0
H573 H 0.59241 0.22372 0.66237 0.0
H574 H 0.63908 0.23628 0.63903 0.0
H575 H 0.69982 0.3036 0.66756 0.0
H576 H 0.72129 0.4329 0.60778 0.0
H577 H 0.71086 0.3851 0.6284 0.0
H578 H 0.67352 0.3166 0.57866 0.0
C579 C 0.63009 0.25257 0.65225 0.0
C580 C 0.69474 0.30522 0.64793 0.0
C581 C 0.60362 0.2454 0.66561 0.0
C582 C 0.72205 0.41209 0.59694 0.0
C583 C 0.71651 0.38457 0.60883 0.0
C584 C 0.68051 0.31266 0.59767 0.0
C585 C 0.64393 0.28124 0.65513 0.0
C586 C 0.66836 0.29162 0.63823 0.0
C587 C 0.71617 0.35713 0.59543 0.0
C588 C 0.70476 0.32929 0.60809 0.0
H589 H 0.59449 0.31249 0.69674 0.0
H590 H 0.64155 0.32461 0.67435 0.0
H591 H 0.64212 0.28362 0.60482 0.0
H592 H 0.73354 0.38598 0.53813 0.0
H593 H 0.72257 0.33696 0.55905 0.0
C594 C 0.68814 0.5915 0.93352 0.0
C595 C 0.71928 0.58505 0.93622 0.0
C596 C 0.67879 0.61767 0.92094 0.0
C597 C 0.66868 0.68301 0.90073 0.0
H598 H 0.68411 0.67097 0.83051 0.0
C599 C 0.60127 0.74751 0.82567 0.0
C600 C 0.58229 0.72587 0.81424 0.0
C601 C 0.62713 0.738 0.83881 0.0
C602 C 0.68033 0.67518 0.85007 0.0
H603 H 0.76521 0.60085 0.92864 0.0
H604 H 0.74865 0.64625 0.9054 0.0
H605 H 0.71274 0.64119 0.86119 0.0
H606 H 0.57616 0.67803 0.80578 0.0
H607 H 0.62209 0.66152 0.82774 0.0
H608 H 0.63503 0.7157 0.8896 0.0
C609 C 0.73165 0.63148 0.91371 0.0
C610 C 0.69668 0.65827 0.86758 0.0
C611 C 0.74104 0.60568 0.92699 0.0
C612 C 0.59067 0.69504 0.81437 0.0
C613 C 0.61693 0.68567 0.82682 0.0
C614 C 0.65281 0.7004 0.88326 0.0
C615 C 0.70044 0.63732 0.91029 0.0
C616 C 0.68992 0.66108 0.89293 0.0
C617 C 0.63468 0.7069 0.83994 0.0
C618 C 0.65752 0.69554 0.85779 0.0
H619 H 0.67104 0.57579 0.94045 0.0
H620 H 0.65459 0.62157 0.91822 0.0
H621 H 0.66301 0.6853 0.92021 0.0
H622 H 0.59485 0.77138 0.82605 0.0
H623 H 0.64039 0.75466 0.84901 0.0
C624 C 0.27123 0.38609 0.09474 0.0
C625 C 0.28145 0.4081 0.07765 0.0
C626 C 0.29207 0.36946 0.10903 0.0
C627 C 0.37451 0.34999 0.11624 0.0
H628 H 0.35344 0.34536 0.18603 0.0
C629 C 0.4637 0.32739 0.19336 0.0
C630 C 0.45502 0.3096 0.21393 0.0
C631 C 0.44239 0.33548 0.17518 0.0
C632 C 0.35955 0.34596 0.16656 0.0
H633 H 0.3218 0.42849 0.06117 0.0
H634 H 0.35804 0.3997 0.08617 0.0
H635 H 0.31659 0.36554 0.15657 0.0
H636 H 0.41699 0.28596 0.23112 0.0
H637 H 0.37998 0.29964 0.19926 0.0
H638 H 0.41781 0.33099 0.12646 0.0
C639 C 0.33392 0.3951 0.08845 0.0
C640 C 0.33835 0.35753 0.14961 0.0
C641 C 0.31307 0.41169 0.07411 0.0
C642 C 0.42461 0.29947 0.21549 0.0
C643 C 0.40327 0.30762 0.19733 0.0
C644 C 0.39576 0.33843 0.13324 0.0
C645 C 0.32366 0.37444 0.10664 0.0
C646 C 0.34562 0.35997 0.12424 0.0
C647 C 0.41179 0.32604 0.17709 0.0
C648 C 0.38865 0.33654 0.15867 0.0
H649 H 0.24707 0.38256 0.09788 0.0
H650 H 0.28335 0.35325 0.12246 0.0
H651 H 0.38076 0.35118 0.09683 0.0
H652 H 0.48698 0.33528 0.19137 0.0
H653 H 0.44974 0.3499 0.15998 0.0
C654 C 0.58555 0.31865 0.32105 0.0
C655 C 0.5896 0.28728 0.3255 0.0
C656 C 0.60101 0.34034 0.33534 0.0
C657 C 0.66415 0.35169 0.38054 0.0
H658 H 0.61152 0.41549 0.40602 0.0
C659 C 0.6958 0.42502 0.46618 0.0
C660 C 0.68635 0.45567 0.46673 0.0
C661 C 0.68677 0.40574 0.44683 0.0
C662 C 0.62678 0.39822 0.3988 0.0
H663 H 0.61469 0.25425 0.3475 0.0
H664 H 0.6416 0.29207 0.37236 0.0
H665 H 0.59196 0.37998 0.37529 0.0
H666 H 0.66107 0.49036 0.44684 0.0
H667 H 0.64566 0.45696 0.4129 0.0
H668 H 0.69889 0.36981 0.40432 0.0
C669 C 0.62651 0.2999 0.35778 0.0
C670 C 0.61552 0.37779 0.38113 0.0
C671 C 0.611 0.27818 0.34351 0.0
C672 C 0.66834 0.46677 0.44713 0.0
C673 C 0.65947 0.44756 0.42771 0.0
C674 C 0.67549 0.37224 0.39818 0.0
C675 C 0.62096 0.33123 0.3544 0.0
C676 C 0.63395 0.35411 0.3719 0.0
C677 C 0.66818 0.41665 0.42746 0.0
C678 C 0.65685 0.39563 0.40771 0.0
H679 H 0.56937 0.32656 0.3073 0.0
H680 H 0.59665 0.3643 0.33193 0.0
H681 H 0.67904 0.33389 0.37364 0.0
H682 H 0.70928 0.41557 0.48115 0.0
H683 H 0.69356 0.382 0.44751 0.0
C684 C 0.545 0.66141 0.71019 0.0
C685 C 0.54044 0.69278 0.71402 0.0
C686 C 0.56623 0.65116 0.69277 0.0
C687 C 0.60505 0.6683 0.63539 0.0
H688 H 0.66502 0.61005 0.65892 0.0
C689 C 0.69361 0.60886 0.56981 0.0
C690 C 0.69849 0.5777 0.57464 0.0
C691 C 0.67666 0.62684 0.58648 0.0
C692 C 0.64831 0.6261 0.65192 0.0
H693 H 0.55402 0.738 0.70222 0.0
H694 H 0.59086 0.7199 0.67099 0.0
H695 H 0.63011 0.63377 0.68826 0.0
H696 H 0.68868 0.54101 0.60063 0.0
H697 H 0.65911 0.57166 0.62882 0.0
H698 H 0.62224 0.65943 0.5988 0.0
C699 C 0.57809 0.7034 0.68178 0.0
C700 C 0.62845 0.63979 0.6688 0.0
C701 C 0.55719 0.71372 0.69965 0.0
C702 C 0.68584 0.56498 0.5963 0.0
C703 C 0.66894 0.58272 0.61271 0.0
C704 C 0.62472 0.65419 0.61833 0.0
C705 C 0.58306 0.672 0.67846 0.0
C706 C 0.60618 0.66049 0.66067 0.0
C707 C 0.66429 0.61395 0.60826 0.0
C708 C 0.64606 0.63225 0.62633 0.0
H709 H 0.53273 0.64475 0.72118 0.0
H710 H 0.56954 0.62683 0.69048 0.0
H711 H 0.58803 0.68422 0.62869 0.0
H712 H 0.70302 0.61937 0.5533 0.0
H713 H 0.67359 0.65085 0.58248 0.0
C714 C 0.33486 0.52967 0.94817 0.0
C715 C 0.31374 0.53914 0.96629 0.0
C716 C 0.34697 0.55046 0.93108 0.0
C717 C 0.33407 0.62754 0.9038 0.0
H718 H 0.41929 0.62061 0.88523 0.0
C719 C 0.40199 0.72361 0.85455 0.0
C720 C 0.42366 0.71524 0.83653 0.0
C721 C 0.38623 0.70136 0.86808 0.0
C722 C 0.39533 0.62261 0.88992 0.0
H723 H 0.28877 0.57837 0.98019 0.0
H724 H 0.31061 0.61461 0.95107 0.0
H725 H 0.3972 0.58377 0.91389 0.0
H726 H 0.44474 0.67676 0.81791 0.0
H727 H 0.41713 0.63797 0.84148 0.0
H728 H 0.33257 0.66695 0.88022 0.0
C729 C 0.31742 0.59092 0.94978 0.0
C730 C 0.38262 0.60145 0.90639 0.0
C731 C 0.30517 0.5701 0.9668 0.0
C732 C 0.42818 0.68406 0.8316 0.0
C733 C 0.41257 0.6618 0.84527 0.0
C734 C 0.34687 0.64884 0.88744 0.0
C735 C 0.33849 0.5814 0.93166 0.0
C736 C 0.35183 0.60367 0.91366 0.0
C737 C 0.39189 0.67019 0.86404 0.0
C738 C 0.37769 0.6467 0.88037 0.0
H739 H 0.34235 0.5062 0.94722 0.0
H740 H 0.36284 0.54213 0.91724 0.0
H741 H 0.31016 0.62972 0.90858 0.0
H742 H 0.39794 0.7474 0.85887 0.0
H743 H 0.37061 0.70863 0.88249 0.0
C744 C 0.31225 0.5855 0.42427 0.0
C745 C 0.2808 0.58835 0.41954 0.0
C746 C 0.33351 0.6026 0.41069 0.0
C747 C 0.34029 0.64034 0.34976 0.0
H748 H 0.41676 0.67119 0.37583 0.0
C749 C 0.42462 0.70585 0.28744 0.0
C750 C 0.4557 0.69818 0.28958 0.0
C751 C 0.4034 0.6956 0.30496 0.0
C752 C 0.39559 0.66251 0.36824 0.0
H753 H 0.24702 0.61305 0.39801 0.0
H754 H 0.28393 0.64317 0.37479 0.0
H755 H 0.3794 0.6484 0.40403 0.0
H756 H 0.48884 0.67468 0.31254 0.0
H757 H 0.45176 0.65634 0.34285 0.0
H758 H 0.35649 0.65386 0.314 0.0
C759 C 0.29226 0.62718 0.38854 0.0
C760 C 0.37416 0.64947 0.38441 0.0
C761 C 0.27106 0.61006 0.40203 0.0
C762 C 0.46508 0.68074 0.31014 0.0
C763 C 0.44383 0.67048 0.32768 0.0
C764 C 0.36164 0.65333 0.33365 0.0
C765 C 0.32379 0.62299 0.39212 0.0
C766 C 0.34625 0.63815 0.37535 0.0
C767 C 0.41263 0.67738 0.3251 0.0
C768 C 0.38962 0.66451 0.34263 0.0
H769 H 0.32059 0.56893 0.43756 0.0
H770 H 0.3576 0.59867 0.41388 0.0
H771 H 0.31938 0.63124 0.342 0.0
H772 H 0.41638 0.71895 0.27181 0.0
H773 H 0.37963 0.70173 0.30256 0.0
C774 C 0.30568 0.43471 0.53663 0.0
C775 C 0.3144 0.46557 0.5352 0.0
C776 C 0.31887 0.41518 0.55417 0.0
C777 C 0.38686 0.40684 0.5947 0.0
H778 H 0.33779 0.34424 0.62627 0.0
C779 C 0.43784 0.32456 0.6679 0.0
C780 C 0.43121 0.29354 0.66397 0.0
C781 C 0.42175 0.34725 0.65503 0.0
C782 C 0.35184 0.36154 0.61756 0.0
H783 H 0.34423 0.49979 0.55127 0.0
H784 H 0.36665 0.46599 0.58212 0.0
H785 H 0.31378 0.38037 0.59792 0.0
H786 H 0.40138 0.2622 0.64442 0.0
H787 H 0.37337 0.30156 0.62225 0.0
H788 H 0.42496 0.38778 0.6142 0.0
C789 C 0.34981 0.45678 0.56946 0.0
C790 C 0.33809 0.38221 0.60121 0.0
C791 C 0.33666 0.47631 0.55189 0.0
C792 C 0.40713 0.28584 0.6479 0.0
C793 C 0.39093 0.30847 0.63523 0.0
C794 C 0.40058 0.38622 0.61112 0.0
C795 C 0.34113 0.42593 0.57084 0.0
C796 C 0.35548 0.4049 0.58928 0.0
C797 C 0.39848 0.33943 0.63817 0.0
C798 C 0.38332 0.36305 0.62251 0.0
H799 H 0.28841 0.42556 0.52438 0.0
H800 H 0.31186 0.39149 0.55441 0.0
H801 H 0.40109 0.4237 0.58565 0.0
H802 H 0.45631 0.33128 0.68008 0.0
H803 H 0.42788 0.37092 0.65794 0.0
C804 C 0.72967 0.40665 0.90008 0.0
C805 C 0.71864 0.42491 0.91958 0.0
C806 C 0.70955 0.3904 0.8849 0.0
C807 C 0.63074 0.36081 0.87938 0.0
H808 H 0.64506 0.37046 0.80881 0.0
C809 C 0.54157 0.32431 0.8055 0.0
C810 C 0.55219 0.31242 0.78281 0.0
C811 C 0.56191 0.3364 0.82297 0.0
C812 C 0.6409 0.36702 0.82841 0.0
H813 H 0.67773 0.43902 0.93914 0.0
H814 H 0.64262 0.41031 0.91275 0.0
H815 H 0.68044 0.39297 0.83833 0.0
H816 H 0.59313 0.30406 0.76109 0.0
H817 H 0.62837 0.32392 0.79172 0.0
H818 H 0.59128 0.33465 0.86947 0.0
C819 C 0.6669 0.40868 0.90922 0.0
C820 C 0.66123 0.38003 0.84538 0.0
C821 C 0.68705 0.42516 0.92434 0.0
C822 C 0.58386 0.31263 0.77832 0.0
C823 C 0.60419 0.3245 0.79585 0.0
C824 C 0.61049 0.34754 0.86238 0.0
C825 C 0.67787 0.39178 0.8889 0.0
C826 C 0.65642 0.37713 0.87106 0.0
C827 C 0.59353 0.33681 0.81835 0.0
C828 C 0.61525 0.35051 0.83663 0.0
H829 H 0.75383 0.40582 0.89584 0.0
H830 H 0.71878 0.37718 0.86967 0.0
H831 H 0.62652 0.35798 0.89905 0.0
H832 H 0.51749 0.32433 0.80991 0.0
H833 H 0.55272 0.34595 0.83991 0.0
C834 C 0.60374 0.73223 0.15411 0.0
C835 C 0.582 0.72203 0.17142 0.0
C836 C 0.62095 0.71136 0.14034 0.0
C837 C 0.64264 0.62924 0.13527 0.0
H838 H 0.64882 0.64852 0.06523 0.0
C839 C 0.67203 0.5395 0.05974 0.0
C840 C 0.69065 0.54878 0.03985 0.0
C841 C 0.66208 0.56058 0.0775 0.0
C842 C 0.64774 0.64292 0.08478 0.0
H843 H 0.56247 0.68176 0.18869 0.0
H844 H 0.59216 0.64546 0.16453 0.0
H845 H 0.62646 0.68543 0.09351 0.0
H846 H 0.71371 0.5877 0.02341 0.0
H847 H 0.69686 0.62416 0.05448 0.0
H848 H 0.66336 0.58632 0.12626 0.0
C849 C 0.5962 0.66959 0.16173 0.0
C850 C 0.63495 0.66416 0.10106 0.0
C851 C 0.57907 0.69047 0.17558 0.0
C852 C 0.69969 0.57955 0.03855 0.0
C853 C 0.68969 0.60061 0.05624 0.0
C854 C 0.65539 0.6079 0.11893 0.0
C855 C 0.61675 0.67975 0.14343 0.0
C856 C 0.63207 0.65759 0.12652 0.0
C857 C 0.67041 0.5915 0.07574 0.0
C858 C 0.65796 0.61444 0.09345 0.0
H859 H 0.60674 0.75635 0.15051 0.0
H860 H 0.63705 0.72003 0.12681 0.0
H861 H 0.64111 0.62352 0.15478 0.0
H862 H 0.66488 0.51596 0.06146 0.0
H863 H 0.64708 0.55281 0.09218 0.0
loop_
_geom_bond_atom_site_label_1
_geom_bond_atom_site_label_2
_geom_bond_distance
_geom_bond_site_symmetry_2
_ccdc_geom_bond_type
Co0 N4 2.148 . S
Co0 N10 2.128 . S
Co0 N20 2.194 . S
Co0 O25 2.351 . S
Co0 O26 2.155 . S
Co0 O27 2.096 . S
C1 N4 1.301 . S
C1 N5 1.328 . S
C1 H6 0.930 . S
C2 C3 1.333 . S
C2 N4 1.317 . S
C2 H7 0.930 . S
C3 C2 1.333 . S
C3 N5 1.350 . S
C3 H29 0.919 1_554 S
N4 Co0 2.148 . S
N4 C1 1.301 . S
N4 C2 1.317 . S
N5 C1 1.328 . S
N5 C3 1.350 . S
H6 C1 0.930 . S
H7 C2 0.930 . S
C8 O9 1.224 . S
C8 O27 1.247 . S
O9 C8 1.224 . S
N10 Co0 2.128 . S
N10 C11 1.355 . S
N10 C13 1.311 . S
C11 N10 1.355 . S
C11 C12 1.363 . S
C11 H23 0.929 . S
C12 C11 1.363 . S
C12 N14 1.375 . S
C12 H30 0.931 . S
C13 N10 1.311 . S
C13 N14 1.347 . S
C13 H24 0.929 . S
N14 C12 1.375 . S
N14 C13 1.347 . S
C15 C18 1.365 . S
C15 N20 1.328 . S
C15 H21 0.929 . S
C16 C17 1.362 . S
C16 C19 1.378 . S
C16 H31 0.929 . S
C17 C16 1.362 . S
C17 C18 1.366 . S
C18 C15 1.365 . S
C18 C17 1.366 . S
C18 H32 0.930 . S
C19 C16 1.378 . S
C19 N20 1.315 . S
C19 H22 0.930 . S
N20 Co0 2.194 . S
N20 C15 1.328 . S
N20 C19 1.315 . S
H21 C15 0.929 . S
H22 C19 0.930 . S
H23 C11 0.929 . S
H24 C13 0.929 . S
O25 Co0 2.351 . S
O25 C28 1.244 . S
O26 Co0 2.155 . S
O26 C28 1.240 . S
O27 Co0 2.096 . S
O27 C8 1.247 . S
C28 O25 1.244 . S
C28 O26 1.240 . S
H29 C3 0.919 1_556 S
H30 C12 0.931 . S
H31 C16 0.929 . S
H32 C18 0.930 . S
Co33 N37 2.148 . S
Co33 N43 2.128 . S
Co33 N53 2.194 . S
Co33 O58 2.351 . S
Co33 O59 2.155 . S
Co33 O60 2.096 . S
C34 N37 1.301 . S
C34 N38 1.328 . S
C34 H39 0.930 . S
C35 C36 1.333 . S
C35 N37 1.317 . S
C35 H40 0.930 . S
C36 C35 1.333 . S
C36 N38 1.350 . S
C36 H62 0.931 . S
N37 Co33 2.148 . S
N37 C34 1.301 . S
N37 C35 1.317 . S
N38 C34 1.328 . S
N38 C36 1.350 . S
H39 C34 0.930 . S
H40 C35 0.930 . S
C41 O42 1.224 . S
C41 O60 1.247 . S
O42 C41 1.224 . S
N43 Co33 2.128 . S
N43 C44 1.355 . S
N43 C46 1.311 . S
C44 N43 1.355 . S
C44 C45 1.363 . S
C44 H56 0.929 . S
C45 C44 1.363 . S
C45 N47 1.375 . S
C45 H63 0.931 . S
C46 N43 1.311 . S
C46 N47 1.347 . S
C46 H57 0.929 . S
N47 C45 1.375 . S
N47 C46 1.347 . S
C48 C51 1.365 . S
C48 N53 1.328 . S
C48 H54 0.929 . S
C49 C50 1.362 . S
C49 C52 1.378 . S
C49 H64 0.929 . S
C50 C49 1.362 . S
C50 C51 1.366 . S
C51 C48 1.365 . S
C51 C50 1.366 . S
C51 H65 0.930 . S
C52 C49 1.378 . S
C52 N53 1.315 . S
C52 H55 0.930 . S
N53 Co33 2.194 . S
N53 C48 1.328 . S
N53 C52 1.315 . S
H54 C48 0.929 . S
H55 C52 0.930 . S
H56 C44 0.929 . S
H57 C46 0.929 . S
O58 Co33 2.351 . S
O58 C61 1.244 . S
O59 Co33 2.155 . S
O59 C61 1.240 . S
O60 Co33 2.096 . S
O60 C41 1.247 . S
C61 O58 1.244 . S
C61 O59 1.240 . S
H62 C36 0.931 . S
H63 C45 0.931 . S
H64 C49 0.929 . S
H65 C51 0.930 . S
Co66 N70 2.148 . S
Co66 N76 2.128 . S
Co66 N86 2.194 . S
Co66 O91 2.351 . S
Co66 O92 2.155 . S
Co66 O93 2.096 . S
C67 N70 1.301 . S
C67 N71 1.328 . S
C67 H72 0.930 . S
C68 C69 1.333 . S
C68 N70 1.317 . S
C68 H73 0.930 . S
C69 C68 1.333 . S
C69 N71 1.350 . S
C69 H95 0.931 . S
N70 Co66 2.148 . S
N70 C67 1.301 . S
N70 C68 1.317 . S
N71 C67 1.328 . S
N71 C69 1.350 . S
H72 C67 0.930 . S
H73 C68 0.930 . S
C74 O75 1.224 . S
C74 O93 1.247 . S
O75 C74 1.224 . S
N76 Co66 2.128 . S
N76 C77 1.355 . S
N76 C79 1.311 . S
C77 N76 1.355 . S
C77 C78 1.363 . S
C77 H89 0.929 . S
C78 C77 1.363 . S
C78 N80 1.375 . S
C78 H96 0.931 . S
C79 N76 1.311 . S
C79 N80 1.347 . S
C79 H90 0.929 . S
N80 C78 1.375 . S
N80 C79 1.347 . S
C81 C84 1.365 . S
C81 N86 1.328 . S
C81 H87 0.929 . S
C82 C83 1.362 . S
C82 C85 1.378 . S
C82 H97 0.929 . S
C83 C82 1.362 . S
C83 C84 1.366 . S
C84 C81 1.365 . S
C84 C83 1.366 . S
C84 H98 0.930 . S
C85 C82 1.378 . S
C85 N86 1.315 . S
C85 H88 0.930 . S
N86 Co66 2.194 . S
N86 C81 1.328 . S
N86 C85 1.315 . S
H87 C81 0.929 . S
H88 C85 0.930 . S
H89 C77 0.929 . S
H90 C79 0.929 . S
O91 Co66 2.351 . S
O91 C94 1.244 . S
O92 Co66 2.155 . S
O92 C94 1.240 . S
O93 Co66 2.096 . S
O93 C74 1.247 . S
C94 O91 1.244 . S
C94 O92 1.240 . S
H95 C69 0.931 . S
H96 C78 0.931 . S
H97 C82 0.929 . S
H98 C84 0.930 . S
Co99 N103 2.148 . S
Co99 N109 2.128 . S
Co99 N119 2.194 . S
Co99 O124 2.351 . S
Co99 O125 2.155 . S
Co99 O126 2.096 . S
C100 N103 1.301 . S
C100 N104 1.328 . S
C100 H105 0.930 . S
C101 C102 1.333 . S
C101 N103 1.317 . S
C101 H106 0.930 . S
C102 C101 1.333 . S
C102 N104 1.350 . S
C102 H128 0.931 . S
N103 Co99 2.148 . S
N103 C100 1.301 . S
N103 C101 1.317 . S
N104 C100 1.328 . S
N104 C102 1.350 . S
H105 C100 0.930 . S
H106 C101 0.930 . S
C107 O108 1.224 . S
C107 O126 1.247 . S
O108 C107 1.224 . S
N109 Co99 2.128 . S
N109 C110 1.355 . S
N109 C112 1.311 . S
C110 N109 1.355 . S
C110 C111 1.363 . S
C110 H122 0.929 . S
C111 C110 1.363 . S
C111 N113 1.375 . S
C111 H129 0.931 . S
C112 N109 1.311 . S
C112 N113 1.347 . S
C112 H123 0.929 . S
N113 C111 1.375 . S
N113 C112 1.347 . S
C114 C117 1.365 . S
C114 N119 1.328 . S
C114 H120 0.929 . S
C115 C116 1.362 . S
C115 C118 1.378 . S
C115 H130 0.929 . S
C116 C115 1.362 . S
C116 C117 1.366 . S
C117 C114 1.365 . S
C117 C116 1.366 . S
C117 H131 0.930 . S
C118 C115 1.378 . S
C118 N119 1.315 . S
C118 H121 0.930 . S
N119 Co99 2.194 . S
N119 C114 1.328 . S
N119 C118 1.315 . S
H120 C114 0.929 . S
H121 C118 0.930 . S
H122 C110 0.929 . S
H123 C112 0.929 . S
O124 Co99 2.351 . S
O124 C127 1.244 . S
O125 Co99 2.155 . S
O125 C127 1.240 . S
O126 Co99 2.096 . S
O126 C107 1.247 . S
C127 O124 1.244 . S
C127 O125 1.240 . S
H128 C102 0.931 . S
H129 C111 0.931 . S
H130 C115 0.929 . S
H131 C117 0.930 . S
Co132 N136 2.148 . S
Co132 N142 2.128 . S
Co132 N152 2.194 . S
Co132 O157 2.351 . S
Co132 O158 2.155 . S
Co132 O159 2.096 . S
C133 N136 1.301 . S
C133 N137 1.328 . S
C133 H138 0.930 . S
C134 C135 1.333 . S
C134 N136 1.317 . S
C134 H139 0.930 . S
C135 C134 1.333 . S
C135 N137 1.350 . S
C135 H161 0.931 . S
N136 Co132 2.148 . S
N136 C133 1.301 . S
N136 C134 1.317 . S
N137 C133 1.328 . S
N137 C135 1.350 . S
H138 C133 0.930 . S
H139 C134 0.930 . S
C140 O141 1.224 . S
C140 O159 1.247 . S
O141 C140 1.224 . S
N142 Co132 2.128 . S
N142 C143 1.355 . S
N142 C145 1.311 . S
C143 N142 1.355 . S
C143 C144 1.363 . S
C143 H155 0.929 . S
C144 C143 1.363 . S
C144 N146 1.375 . S
C144 H162 0.931 . S
C145 N142 1.311 . S
C145 N146 1.347 . S
C145 H156 0.929 . S
N146 C144 1.375 . S
N146 C145 1.347 . S
C147 C150 1.365 . S
C147 N152 1.328 . S
C147 H153 0.929 . S
C148 C149 1.362 . S
C148 C151 1.378 . S
C148 H163 0.929 . S
C149 C148 1.362 . S
C149 C150 1.366 . S
C150 C147 1.365 . S
C150 C149 1.366 . S
C150 H164 0.930 . S
C151 C148 1.378 . S
C151 N152 1.315 . S
C151 H154 0.930 . S
N152 Co132 2.194 . S
N152 C147 1.328 . S
N152 C151 1.315 . S
H153 C147 0.929 . S
H154 C151 0.930 . S
H155 C143 0.929 . S
H156 C145 0.929 . S
O157 Co132 2.351 . S
O157 C160 1.244 . S
O158 Co132 2.155 . S
O158 C160 1.240 . S
O159 Co132 2.096 . S
O159 C140 1.247 . S
C160 O157 1.244 . S
C160 O158 1.240 . S
H161 C135 0.931 . S
H162 C144 0.931 . S
H163 C148 0.929 . S
H164 C150 0.930 . S
Co165 N169 2.148 . S
Co165 N175 2.128 . S
Co165 N185 2.194 . S
Co165 O190 2.351 . S
Co165 O191 2.155 . S
Co165 O192 2.096 . S
C166 N169 1.301 . S
C166 N170 1.328 . S
C166 H171 0.930 . S
C167 C168 1.333 . S
C167 N169 1.317 . S
C167 H172 0.930 . S
C168 C167 1.333 . S
C168 N170 1.350 . S
C168 H194 0.931 . S
N169 Co165 2.148 . S
N169 C166 1.301 . S
N169 C167 1.317 . S
N170 C166 1.328 . S
N170 C168 1.350 . S
H171 C166 0.930 . S
H172 C167 0.930 . S
C173 O174 1.224 . S
C173 O192 1.247 . S
O174 C173 1.224 . S
N175 Co165 2.128 . S
N175 C176 1.355 . S
N175 C178 1.311 . S
C176 N175 1.355 . S
C176 C177 1.363 . S
C176 H188 0.929 . S
C177 C176 1.363 . S
C177 N179 1.375 . S
C177 H195 0.931 . S
C178 N175 1.311 . S
C178 N179 1.347 . S
C178 H189 0.929 . S
N179 C177 1.375 . S
N179 C178 1.347 . S
C180 C183 1.365 . S
C180 N185 1.328 . S
C180 H186 0.929 . S
C181 C182 1.362 . S
C181 C184 1.378 . S
C181 H196 0.929 . S
C182 C181 1.362 . S
C182 C183 1.366 . S
C183 C180 1.365 . S
C183 C182 1.366 . S
C183 H197 0.930 . S
C184 C181 1.378 . S
C184 N185 1.315 . S
C184 H187 0.930 . S
N185 Co165 2.194 . S
N185 C180 1.328 . S
N185 C184 1.315 . S
H186 C180 0.929 . S
H187 C184 0.930 . S
H188 C176 0.929 . S
H189 C178 0.929 . S
O190 Co165 2.351 . S
O190 C193 1.244 . S
O191 Co165 2.155 . S
O191 C193 1.240 . S
O192 Co165 2.096 . S
O192 C173 1.247 . S
C193 O190 1.244 . S
C193 O191 1.240 . S
H194 C168 0.931 . S
H195 C177 0.931 . S
H196 C181 0.929 . S
H197 C183 0.930 . S
Co198 N202 2.148 . S
Co198 N208 2.128 . S
Co198 N218 2.194 . S
Co198 O223 2.351 . S
Co198 O224 2.155 . S
Co198 O225 2.096 . S
C199 N202 1.301 . S
C199 N203 1.328 . S
C199 H204 0.930 . S
C200 C201 1.333 . S
C200 N202 1.317 . S
C200 H205 0.930 . S
C201 C200 1.333 . S
C201 N203 1.350 . S
C201 H227 0.919 1_556 S
N202 Co198 2.148 . S
N202 C199 1.301 . S
N202 C200 1.317 . S
N203 C199 1.328 . S
N203 C201 1.350 . S
H204 C199 0.930 . S
H205 C200 0.930 . S
C206 O207 1.224 . S
C206 O225 1.247 . S
O207 C206 1.224 . S
N208 Co198 2.128 . S
N208 C209 1.355 . S
N208 C211 1.311 . S
C209 N208 1.355 . S
C209 C210 1.363 . S
C209 H221 0.929 . S
C210 C209 1.363 . S
C210 N212 1.375 . S
C210 H228 0.931 . S
C211 N208 1.311 . S
C211 N212 1.347 . S
C211 H222 0.929 . S
N212 C210 1.375 . S
N212 C211 1.347 . S
C213 C216 1.365 . S
C213 N218 1.328 . S
C213 H219 0.929 . S
C214 C215 1.362 . S
C214 C217 1.378 . S
C214 H229 0.929 . S
C215 C214 1.362 . S
C215 C216 1.366 . S
C216 C213 1.365 . S
C216 C215 1.366 . S
C216 H230 0.930 . S
C217 C214 1.378 . S
C217 N218 1.315 . S
C217 H220 0.930 . S
N218 Co198 2.194 . S
N218 C213 1.328 . S
N218 C217 1.315 . S
H219 C213 0.929 . S
H220 C217 0.930 . S
H221 C209 0.929 . S
H222 C211 0.929 . S
O223 Co198 2.351 . S
O223 C226 1.244 . S
O224 Co198 2.155 . S
O224 C226 1.240 . S
O225 Co198 2.096 . S
O225 C206 1.247 . S
C226 O223 1.244 . S
C226 O224 1.240 . S
H227 C201 0.919 1_554 S
H228 C210 0.931 . S
H229 C214 0.929 . S
H230 C216 0.930 . S
Co231 N235 2.148 . S
Co231 N241 2.128 . S
Co231 N251 2.194 . S
Co231 O256 2.351 . S
Co231 O257 2.155 . S
Co231 O258 2.096 . S
C232 N235 1.301 . S
C232 N236 1.328 . S
C232 H237 0.930 . S
C233 C234 1.333 . S
C233 N235 1.317 . S
C233 H238 0.930 . S
C234 C233 1.333 . S
C234 N236 1.350 . S
C234 H260 0.931 . S
N235 Co231 2.148 . S
N235 C232 1.301 . S
N235 C233 1.317 . S
N236 C232 1.328 . S
N236 C234 1.350 . S
H237 C232 0.930 . S
H238 C233 0.930 . S
C239 O240 1.224 . S
C239 O258 1.247 . S
O240 C239 1.224 . S
N241 Co231 2.128 . S
N241 C242 1.355 . S
N241 C244 1.311 . S
C242 N241 1.355 . S
C242 C243 1.363 . S
C242 H254 0.929 . S
C243 C242 1.363 . S
C243 N245 1.375 . S
C243 H261 0.931 . S
C244 N241 1.311 . S
C244 N245 1.347 . S
C244 H255 0.929 . S
N245 C243 1.375 . S
N245 C244 1.347 . S
C246 C249 1.365 . S
C246 N251 1.328 . S
C246 H252 0.929 . S
C247 C248 1.362 . S
C247 C250 1.378 . S
C247 H262 0.929 . S
C248 C247 1.362 . S
C248 C249 1.366 . S
C249 C246 1.365 . S
C249 C248 1.366 . S
C249 H263 0.930 . S
C250 C247 1.378 . S
C250 N251 1.315 . S
C250 H253 0.930 . S
N251 Co231 2.194 . S
N251 C246 1.328 . S
N251 C250 1.315 . S
H252 C246 0.929 . S
H253 C250 0.930 . S
H254 C242 0.929 . S
H255 C244 0.929 . S
O256 Co231 2.351 . S
O256 C259 1.244 . S
O257 Co231 2.155 . S
O257 C259 1.240 . S
O258 Co231 2.096 . S
O258 C239 1.247 . S
C259 O256 1.244 . S
C259 O257 1.240 . S
H260 C234 0.931 . S
H261 C243 0.931 . S
H262 C247 0.929 . S
H263 C249 0.930 . S
C264 C265 1.349 . S
C264 C266 1.327 . S
C264 H289 0.950 . S
C265 C264 1.349 . S
C265 C281 1.349 . S
C266 C264 1.327 . S
C266 C285 1.429 . S
C266 H290 0.950 . S
C267 C284 1.574 . S
C267 C286 1.368 . S
C267 H291 0.949 . S
H268 C272 0.949 . S
C269 C270 1.349 . S
C269 C271 1.327 . S
C269 H292 0.950 . S
C270 C269 1.349 . S
C270 C282 1.349 . S
C271 C269 1.327 . S
C271 C287 1.429 . S
C271 H293 0.950 . S
C272 H268 0.949 . S
C272 C280 1.574 . S
C272 C288 1.368 . S
H273 C281 0.950 . S
H274 C279 0.950 . S
H275 C280 0.949 . S
H276 C282 0.950 . S
H277 C283 0.950 . S
H278 C284 0.949 . S
C279 H274 0.950 . S
C279 C281 1.327 . S
C279 C285 1.429 . S
C280 C272 1.574 . S
C280 H275 0.949 . S
C280 C286 1.368 . S
C281 C265 1.349 . S
C281 H273 0.950 . S
C281 C279 1.327 . S
C282 C270 1.349 . S
C282 H276 0.950 . S
C282 C283 1.327 . S
C283 H277 0.950 . S
C283 C282 1.327 . S
C283 C287 1.429 . S
C284 C267 1.574 . S
C284 H278 0.949 . S
C284 C288 1.368 . S
C285 C266 1.429 . S
C285 C279 1.429 . S
C285 C286 1.523 . S
C286 C267 1.368 . S
C286 C280 1.368 . S
C286 C285 1.523 . S
C287 C271 1.429 . S
C287 C283 1.429 . S
C287 C288 1.523 . S
C288 C272 1.368 . S
C288 C284 1.368 . S
C288 C287 1.523 . S
H289 C264 0.950 . S
H290 C266 0.950 . S
H291 C267 0.949 . S
H292 C269 0.950 . S
H293 C271 0.950 . S
C294 C295 1.349 . S
C294 C296 1.327 . S
C294 H319 0.950 . S
C295 C294 1.349 . S
C295 C311 1.349 . S
C296 C294 1.327 . S
C296 C315 1.429 . S
C296 H320 0.950 . S
C297 C314 1.574 . S
C297 C316 1.368 . S
C297 H321 0.949 . S
H298 C302 0.949 . S
C299 C300 1.349 . S
C299 C301 1.327 . S
C299 H322 0.950 . S
C300 C299 1.349 . S
C300 C312 1.349 . S
C301 C299 1.327 . S
C301 C317 1.429 . S
C301 H323 0.950 . S
C302 H298 0.949 . S
C302 C310 1.574 . S
C302 C318 1.368 . S
H303 C311 0.950 . S
H304 C309 0.950 . S
H305 C310 0.949 . S
H306 C312 0.950 . S
H307 C313 0.950 . S
H308 C314 0.949 . S
C309 H304 0.950 . S
C309 C311 1.327 . S
C309 C315 1.429 . S
C310 C302 1.574 . S
C310 H305 0.949 . S
C310 C316 1.368 . S
C311 C295 1.349 . S
C311 H303 0.950 . S
C311 C309 1.327 . S
C312 C300 1.349 . S
C312 H306 0.950 . S
C312 C313 1.327 . S
C313 H307 0.950 . S
C313 C312 1.327 . S
C313 C317 1.429 . S
C314 C297 1.574 . S
C314 H308 0.949 . S
C314 C318 1.368 . S
C315 C296 1.429 . S
C315 C309 1.429 . S
C315 C316 1.523 . S
C316 C297 1.368 . S
C316 C310 1.368 . S
C316 C315 1.523 . S
C317 C301 1.429 . S
C317 C313 1.429 . S
C317 C318 1.523 . S
C318 C302 1.368 . S
C318 C314 1.368 . S
C318 C317 1.523 . S
H319 C294 0.950 . S
H320 C296 0.950 . S
H321 C297 0.949 . S
H322 C299 0.950 . S
H323 C301 0.950 . S
C324 C325 1.349 . S
C324 C326 1.327 . S
C324 H349 0.950 . S
C325 C324 1.349 . S
C325 C341 1.349 . S
C326 C324 1.327 . S
C326 C345 1.429 . S
C326 H350 0.950 . S
C327 C344 1.574 . S
C327 C346 1.368 . S
C327 H351 0.949 . S
H328 C332 0.949 . S
C329 C330 1.349 . S
C329 C331 1.327 . S
C329 H352 0.950 . S
C330 C329 1.349 . S
C330 C342 1.349 . S
C331 C329 1.327 . S
C331 C347 1.429 . S
C331 H353 0.950 . S
C332 H328 0.949 . S
C332 C340 1.574 . S
C332 C348 1.368 . S
H333 C341 0.950 . S
H334 C339 0.950 . S
H335 C340 0.949 . S
H336 C342 0.950 . S
H337 C343 0.950 . S
H338 C344 0.949 . S
C339 H334 0.950 . S
C339 C341 1.327 . S
C339 C345 1.429 . S
C340 C332 1.574 . S
C340 H335 0.949 . S
C340 C346 1.368 . S
C341 C325 1.349 . S
C341 H333 0.950 . S
C341 C339 1.327 . S
C342 C330 1.349 . S
C342 H336 0.950 . S
C342 C343 1.327 . S
C343 H337 0.950 . S
C343 C342 1.327 . S
C343 C347 1.429 . S
C344 C327 1.574 . S
C344 H338 0.949 . S
C344 C348 1.368 . S
C345 C326 1.429 . S
C345 C339 1.429 . S
C345 C346 1.523 . S
C346 C327 1.368 . S
C346 C340 1.368 . S
C346 C345 1.523 . S
C347 C331 1.429 . S
C347 C343 1.429 . S
C347 C348 1.523 . S
C348 C332 1.368 . S
C348 C344 1.368 . S
C348 C347 1.523 . S
H349 C324 0.950 . S
H350 C326 0.950 . S
H351 C327 0.949 . S
H352 C329 0.950 . S
H353 C331 0.950 . S
C354 C355 1.349 . S
C354 C356 1.327 . S
C354 H379 0.950 . S
C355 C354 1.349 . S
C355 C371 1.349 . S
C356 C354 1.327 . S
C356 C375 1.429 . S
C356 H380 0.950 . S
C357 C374 1.574 1_556 S
C357 C376 1.368 . S
C357 H381 0.949 . S
H358 C362 0.949 . S
C359 C360 1.349 . S
C359 C361 1.327 . S
C359 H382 0.950 . S
C360 C359 1.349 . S
C360 C372 1.349 . S
C361 C359 1.327 . S
C361 C377 1.429 . S
C361 H383 0.950 . S
C362 H358 0.949 . S
C362 C370 1.574 1_554 S
C362 C378 1.368 . S
H363 C371 0.950 . S
H364 C369 0.950 . S
H365 C370 0.949 . S
H366 C372 0.950 . S
H367 C373 0.950 . S
H368 C374 0.949 . S
C369 H364 0.950 . S
C369 C371 1.327 . S
C369 C375 1.429 . S
C370 C362 1.574 1_556 S
C370 H365 0.949 . S
C370 C376 1.368 . S
C371 C355 1.349 . S
C371 H363 0.950 . S
C371 C369 1.327 . S
C372 C360 1.349 . S
C372 H366 0.950 . S
C372 C373 1.327 . S
C373 H367 0.950 . S
C373 C372 1.327 . S
C373 C377 1.429 . S
C374 C357 1.574 1_554 S
C374 H368 0.949 . S
C374 C378 1.368 . S
C375 C356 1.429 . S
C375 C369 1.429 . S
C375 C376 1.523 . S
C376 C357 1.368 . S
C376 C370 1.368 . S
C376 C375 1.523 . S
C377 C361 1.429 . S
C377 C373 1.429 . S
C377 C378 1.523 . S
C378 C362 1.368 . S
C378 C374 1.368 . S
C378 C377 1.523 . S
H379 C354 0.950 . S
H380 C356 0.950 . S
H381 C357 0.949 . S
H382 C359 0.950 . S
H383 C361 0.950 . S
C384 C385 1.349 . S
C384 C386 1.327 . S
C384 H409 0.950 . S
C385 C384 1.349 . S
C385 C401 1.349 . S
C386 C384 1.327 . S
C386 C405 1.429 . S
C386 H410 0.950 . S
C387 C404 1.574 1_455 S
C387 C406 1.368 1_556 S
C387 H411 0.949 . S
H388 C392 0.949 . S
C389 C390 1.349 . S
C389 C391 1.327 . S
C389 H412 0.950 . S
C390 C389 1.349 . S
C390 C402 1.349 . S
C391 C389 1.327 . S
C391 C407 1.429 . S
C391 H413 0.950 . S
C392 H388 0.949 . S
C392 C400 1.574 1_655 S
C392 C408 1.368 1_554 S
H393 C401 0.950 . S
H394 C399 0.950 1_556 S
H395 C400 0.949 . S
H396 C402 0.950 . S
H397 C403 0.950 1_554 S
H398 C404 0.949 . S
C399 H394 0.950 1_554 S
C399 C401 1.327 . S
C399 C405 1.429 . S
C400 C392 1.574 1_455 S
C400 H395 0.949 . S
C400 C406 1.368 . S
C401 C385 1.349 . S
C401 H393 0.950 . S
C401 C399 1.327 . S
C402 C390 1.349 . S
C402 H396 0.950 . S
C402 C403 1.327 . S
C403 H397 0.950 1_556 S
C403 C402 1.327 . S
C403 C407 1.429 . S
C404 C387 1.574 1_655 S
C404 H398 0.949 . S
C404 C408 1.368 . S
C405 C386 1.429 . S
C405 C399 1.429 . S
C405 C406 1.523 . S
C406 C387 1.368 1_554 S
C406 C400 1.368 . S
C406 C405 1.523 . S
C407 C391 1.429 . S
C407 C403 1.429 . S
C407 C408 1.523 . S
C408 C392 1.368 1_556 S
C408 C404 1.368 . S
C408 C407 1.523 . S
H409 C384 0.950 . S
H410 C386 0.950 . S
H411 C387 0.949 . S
H412 C389 0.950 . S
H413 C391 0.950 . S
C414 C415 1.349 . S
C414 C416 1.327 . S
C414 H439 0.950 . S
C415 C414 1.349 . S
C415 C431 1.349 . S
C416 C414 1.327 . S
C416 C435 1.429 . S
C416 H440 0.950 . S
C417 C434 1.574 1_545 S
C417 C436 1.368 . S
C417 H441 0.949 . S
H418 C422 0.949 . S
C419 C420 1.349 . S
C419 C421 1.327 . S
C419 H442 0.950 . S
C420 C419 1.349 . S
C420 C432 1.349 . S
C421 C419 1.327 . S
C421 C437 1.429 . S
C421 H443 0.950 . S
C422 H418 0.949 . S
C422 C430 1.574 1_565 S
C422 C438 1.368 . S
H423 C431 0.950 . S
H424 C429 0.950 . S
H425 C430 0.949 . S
H426 C432 0.950 . S
H427 C433 0.950 . S
H428 C434 0.949 . S
C429 H424 0.950 . S
C429 C431 1.327 . S
C429 C435 1.429 . S
C430 C422 1.574 1_545 S
C430 H425 0.949 . S
C430 C436 1.368 . S
C431 C415 1.349 . S
C431 H423 0.950 . S
C431 C429 1.327 . S
C432 C420 1.349 . S
C432 H426 0.950 . S
C432 C433 1.327 . S
C433 H427 0.950 . S
C433 C432 1.327 . S
C433 C437 1.429 . S
C434 C417 1.574 1_565 S
C434 H428 0.949 . S
C434 C438 1.368 . S
C435 C416 1.429 . S
C435 C429 1.429 . S
C435 C436 1.523 . S
C436 C417 1.368 . S
C436 C430 1.368 . S
C436 C435 1.523 . S
C437 C421 1.429 . S
C437 C433 1.429 . S
C437 C438 1.523 . S
C438 C422 1.368 . S
C438 C434 1.368 . S
C438 C437 1.523 . S
H439 C414 0.950 . S
H440 C416 0.950 . S
H441 C417 0.949 . S
H442 C419 0.950 . S
H443 C421 0.950 . S
C444 C445 1.349 . S
C444 C446 1.327 . S
C444 H469 0.950 . S
C445 C444 1.349 . S
C445 C461 1.349 . S
C446 C444 1.327 . S
C446 C465 1.429 . S
C446 H470 0.950 . S
C447 C464 1.574 1_455 S
C447 C466 1.368 . S
C447 H471 0.949 . S
H448 C452 0.949 . S
C449 C450 1.349 . S
C449 C451 1.327 . S
C449 H472 0.950 . S
C450 C449 1.349 . S
C450 C462 1.349 . S
C451 C449 1.327 . S
C451 C467 1.429 . S
C451 H473 0.950 . S
C452 H448 0.949 . S
C452 C460 1.574 1_655 S
C452 C468 1.368 . S
H453 C461 0.950 . S
H454 C459 0.950 . S
H455 C460 0.949 . S
H456 C462 0.950 . S
H457 C463 0.950 . S
H458 C464 0.949 . S
C459 H454 0.950 . S
C459 C461 1.327 . S
C459 C465 1.429 . S
C460 C452 1.574 1_455 S
C460 H455 0.949 . S
C460 C466 1.368 . S
C461 C445 1.349 . S
C461 H453 0.950 . S
C461 C459 1.327 . S
C462 C450 1.349 . S
C462 H456 0.950 . S
C462 C463 1.327 . S
C463 H457 0.950 . S
C463 C462 1.327 . S
C463 C467 1.429 . S
C464 C447 1.574 1_655 S
C464 H458 0.949 . S
C464 C468 1.368 . S
C465 C446 1.429 . S
C465 C459 1.429 . S
C465 C466 1.523 . S
C466 C447 1.368 . S
C466 C460 1.368 . S
C466 C465 1.523 . S
C467 C451 1.429 . S
C467 C463 1.429 . S
C467 C468 1.523 . S
C468 C452 1.368 . S
C468 C464 1.368 . S
C468 C467 1.523 . S
H469 C444 0.950 . S
H470 C446 0.950 . S
H471 C447 0.949 . S
H472 C449 0.950 . S
H473 C451 0.950 . S
C474 C475 1.349 . S
C474 C476 1.327 . S
C474 H499 0.950 . S
C475 C474 1.349 . S
C475 C491 1.349 . S
C476 C474 1.327 . S
C476 C495 1.429 . S
C476 H500 0.950 . S
C477 C494 1.574 1_545 S
C477 C496 1.368 . S
C477 H501 0.949 . S
H478 C482 0.949 . S
C479 C480 1.349 . S
C479 C481 1.327 . S
C479 H502 0.950 . S
C480 C479 1.349 . S
C480 C492 1.349 . S
C481 C479 1.327 . S
C481 C497 1.429 . S
C481 H503 0.950 . S
C482 H478 0.949 . S
C482 C490 1.574 1_565 S
C482 C498 1.368 . S
H483 C491 0.950 . S
H484 C489 0.950 . S
H485 C490 0.949 . S
H486 C492 0.950 . S
H487 C493 0.950 . S
H488 C494 0.949 . S
C489 H484 0.950 . S
C489 C491 1.327 . S
C489 C495 1.429 . S
C490 C482 1.574 1_545 S
C490 H485 0.949 . S
C490 C496 1.368 . S
C491 C475 1.349 . S
C491 H483 0.950 . S
C491 C489 1.327 . S
C492 C480 1.349 . S
C492 H486 0.950 . S
C492 C493 1.327 . S
C493 H487 0.950 . S
C493 C492 1.327 . S
C493 C497 1.429 . S
C494 C477 1.574 1_565 S
C494 H488 0.949 . S
C494 C498 1.368 . S
C495 C476 1.429 . S
C495 C489 1.429 . S
C495 C496 1.523 . S
C496 C477 1.368 . S
C496 C490 1.368 . S
C496 C495 1.523 . S
C497 C481 1.429 . S
C497 C493 1.429 . S
C497 C498 1.523 . S
C498 C482 1.368 . S
C498 C494 1.368 . S
C498 C497 1.523 . S
H499 C474 0.950 . S
H500 C476 0.950 . S
H501 C477 0.949 . S
H502 C479 0.950 . S
H503 C481 0.950 . S
C504 C505 1.349 . S
C504 C506 1.327 . S
C504 H529 0.950 . S
C505 C504 1.349 . S
C505 C521 1.349 . S
C506 C504 1.327 . S
C506 C525 1.429 . S
C506 H530 0.950 . S
C507 C524 1.574 . S
C507 C526 1.368 . S
C507 H531 0.949 . S
H508 C512 0.949 . S
C509 C510 1.349 . S
C509 C511 1.327 . S
C509 H532 0.950 . S
C510 C509 1.349 . S
C510 C522 1.349 . S
C511 C509 1.327 . S
C511 C527 1.429 . S
C511 H533 0.950 . S
C512 H508 0.949 . S
C512 C520 1.574 . S
C512 C528 1.368 . S
H513 C521 0.950 . S
H514 C519 0.950 . S
H515 C520 0.949 . S
H516 C522 0.950 . S
H517 C523 0.950 . S
H518 C524 0.949 . S
C519 H514 0.950 . S
C519 C521 1.327 . S
C519 C525 1.429 . S
C520 C512 1.574 . S
C520 H515 0.949 . S
C520 C526 1.368 . S
C521 C505 1.349 . S
C521 H513 0.950 . S
C521 C519 1.327 . S
C522 C510 1.349 . S
C522 H516 0.950 . S
C522 C523 1.327 . S
C523 H517 0.950 . S
C523 C522 1.327 . S
C523 C527 1.429 . S
C524 C507 1.574 . S
C524 H518 0.949 . S
C524 C528 1.368 . S
C525 C506 1.429 . S
C525 C519 1.429 . S
C525 C526 1.523 . S
C526 C507 1.368 . S
C526 C520 1.368 . S
C526 C525 1.523 . S
C527 C511 1.429 . S
C527 C523 1.429 . S
C527 C528 1.523 . S
C528 C512 1.368 . S
C528 C524 1.368 . S
C528 C527 1.523 . S
H529 C504 0.950 . S
H530 C506 0.950 . S
H531 C507 0.949 . S
H532 C509 0.950 . S
H533 C511 0.950 . S
C534 C535 1.349 . S
C534 C536 1.327 . S
C534 H559 0.950 . S
C535 C534 1.349 . S
C535 C551 1.349 . S
C536 C534 1.327 . S
C536 C555 1.429 . S
C536 H560 0.950 . S
C537 C554 1.574 . S
C537 C556 1.368 . S
C537 H561 0.949 . S
H538 C542 0.949 . S
C539 C540 1.349 . S
C539 C541 1.327 . S
C539 H562 0.950 . S
C540 C539 1.349 . S
C540 C552 1.349 . S
C541 C539 1.327 . S
C541 C557 1.429 . S
C541 H563 0.950 . S
C542 H538 0.949 . S
C542 C550 1.574 . S
C542 C558 1.368 . S
H543 C551 0.950 . S
H544 C549 0.950 . S
H545 C550 0.949 . S
H546 C552 0.950 . S
H547 C553 0.950 . S
H548 C554 0.949 . S
C549 H544 0.950 . S
C549 C551 1.327 . S
C549 C555 1.429 . S
C550 C542 1.574 . S
C550 H545 0.949 . S
C550 C556 1.368 . S
C551 C535 1.349 . S
C551 H543 0.950 . S
C551 C549 1.327 . S
C552 C540 1.349 . S
C552 H546 0.950 . S
C552 C553 1.327 . S
C553 H547 0.950 . S
C553 C552 1.327 . S
C553 C557 1.429 . S
C554 C537 1.574 . S
C554 H548 0.949 . S
C554 C558 1.368 . S
C555 C536 1.429 . S
C555 C549 1.429 . S
C555 C556 1.523 . S
C556 C537 1.368 . S
C556 C550 1.368 . S
C556 C555 1.523 . S
C557 C541 1.429 . S
C557 C553 1.429 . S
C557 C558 1.523 . S
C558 C542 1.368 . S
C558 C554 1.368 . S
C558 C557 1.523 . S
H559 C534 0.950 . S
H560 C536 0.950 . S
H561 C537 0.949 . S
H562 C539 0.950 . S
H563 C541 0.950 . S
C564 C565 1.349 . S
C564 C566 1.327 . S
C564 H589 0.950 . S
C565 C564 1.349 . S
C565 C581 1.349 . S
C566 C564 1.327 . S
C566 C585 1.429 . S
C566 H590 0.950 . S
C567 C584 1.574 . S
C567 C586 1.368 . S
C567 H591 0.949 . S
H568 C572 0.949 . S
C569 C570 1.349 . S
C569 C571 1.327 . S
C569 H592 0.950 . S
C570 C569 1.349 . S
C570 C582 1.349 . S
C571 C569 1.327 . S
C571 C587 1.429 . S
C571 H593 0.950 . S
C572 H568 0.949 . S
C572 C580 1.574 . S
C572 C588 1.368 . S
H573 C581 0.950 . S
H574 C579 0.950 . S
H575 C580 0.949 . S
H576 C582 0.950 . S
H577 C583 0.950 . S
H578 C584 0.949 . S
C579 H574 0.950 . S
C579 C581 1.327 . S
C579 C585 1.429 . S
C580 C572 1.574 . S
C580 H575 0.949 . S
C580 C586 1.368 . S
C581 C565 1.349 . S
C581 H573 0.950 . S
C581 C579 1.327 . S
C582 C570 1.349 . S
C582 H576 0.950 . S
C582 C583 1.327 . S
C583 H577 0.950 . S
C583 C582 1.327 . S
C583 C587 1.429 . S
C584 C567 1.574 . S
C584 H578 0.949 . S
C584 C588 1.368 . S
C585 C566 1.429 . S
C585 C579 1.429 . S
C585 C586 1.523 . S
C586 C567 1.368 . S
C586 C580 1.368 . S
C586 C585 1.523 . S
C587 C571 1.429 . S
C587 C583 1.429 . S
C587 C588 1.523 . S
C588 C572 1.368 . S
C588 C584 1.368 . S
C588 C587 1.523 . S
H589 C564 0.950 . S
H590 C566 0.950 . S
H591 C567 0.949 . S
H592 C569 0.950 . S
H593 C571 0.950 . S
C594 C595 1.349 . S
C594 C596 1.327 . S
C594 H619 0.950 . S
C595 C594 1.349 . S
C595 C611 1.349 . S
C596 C594 1.327 . S
C596 C615 1.429 . S
C596 H620 0.950 . S
C597 C614 1.574 . S
C597 C616 1.368 . S
C597 H621 0.949 . S
H598 C602 0.949 . S
C599 C600 1.349 . S
C599 C601 1.327 . S
C599 H622 0.950 . S
C600 C599 1.349 . S
C600 C612 1.349 . S
C601 C599 1.327 . S
C601 C617 1.429 . S
C601 H623 0.950 . S
C602 H598 0.949 . S
C602 C610 1.574 . S
C602 C618 1.368 . S
H603 C611 0.950 . S
H604 C609 0.950 . S
H605 C610 0.949 . S
H606 C612 0.950 . S
H607 C613 0.950 . S
H608 C614 0.949 . S
C609 H604 0.950 . S
C609 C611 1.327 . S
C609 C615 1.429 . S
C610 C602 1.574 . S
C610 H605 0.949 . S
C610 C616 1.368 . S
C611 C595 1.349 . S
C611 H603 0.950 . S
C611 C609 1.327 . S
C612 C600 1.349 . S
C612 H606 0.950 . S
C612 C613 1.327 . S
C613 H607 0.950 . S
C613 C612 1.327 . S
C613 C617 1.429 . S
C614 C597 1.574 . S
C614 H608 0.949 . S
C614 C618 1.368 . S
C615 C596 1.429 . S
C615 C609 1.429 . S
C615 C616 1.523 . S
C616 C597 1.368 . S
C616 C610 1.368 . S
C616 C615 1.523 . S
C617 C601 1.429 . S
C617 C613 1.429 . S
C617 C618 1.523 . S
C618 C602 1.368 . S
C618 C614 1.368 . S
C618 C617 1.523 . S
H619 C594 0.950 . S
H620 C596 0.950 . S
H621 C597 0.949 . S
H622 C599 0.950 . S
H623 C601 0.950 . S
C624 C625 1.349 . S
C624 C626 1.327 . S
C624 H649 0.950 . S
C625 C624 1.349 . S
C625 C641 1.349 . S
C626 C624 1.327 . S
C626 C645 1.429 . S
C626 H650 0.950 . S
C627 C644 1.574 . S
C627 C646 1.368 . S
C627 H651 0.949 . S
H628 C632 0.949 . S
C629 C630 1.349 . S
C629 C631 1.327 . S
C629 H652 0.950 . S
C630 C629 1.349 . S
C630 C642 1.349 . S
C631 C629 1.327 . S
C631 C647 1.429 . S
C631 H653 0.950 . S
C632 H628 0.949 . S
C632 C640 1.574 . S
C632 C648 1.368 . S
H633 C641 0.950 . S
H634 C639 0.950 . S
H635 C640 0.949 . S
H636 C642 0.950 . S
H637 C643 0.950 . S
H638 C644 0.949 . S
C639 H634 0.950 . S
C639 C641 1.327 . S
C639 C645 1.429 . S
C640 C632 1.574 . S
C640 H635 0.949 . S
C640 C646 1.368 . S
C641 C625 1.349 . S
C641 H633 0.950 . S
C641 C639 1.327 . S
C642 C630 1.349 . S
C642 H636 0.950 . S
C642 C643 1.327 . S
C643 H637 0.950 . S
C643 C642 1.327 . S
C643 C647 1.429 . S
C644 C627 1.574 . S
C644 H638 0.949 . S
C644 C648 1.368 . S
C645 C626 1.429 . S
C645 C639 1.429 . S
C645 C646 1.523 . S
C646 C627 1.368 . S
C646 C640 1.368 . S
C646 C645 1.523 . S
C647 C631 1.429 . S
C647 C643 1.429 . S
C647 C648 1.523 . S
C648 C632 1.368 . S
C648 C644 1.368 . S
C648 C647 1.523 . S
H649 C624 0.950 . S
H650 C626 0.950 . S
H651 C627 0.949 . S
H652 C629 0.950 . S
H653 C631 0.950 . S
C654 C655 1.349 . S
C654 C656 1.327 . S
C654 H679 0.950 . S
C655 C654 1.349 . S
C655 C671 1.349 . S
C656 C654 1.327 . S
C656 C675 1.429 . S
C656 H680 0.950 . S
C657 C674 1.574 . S
C657 C676 1.368 . S
C657 H681 0.949 . S
H658 C662 0.949 . S
C659 C660 1.349 . S
C659 C661 1.327 . S
C659 H682 0.950 . S
C660 C659 1.349 . S
C660 C672 1.349 . S
C661 C659 1.327 . S
C661 C677 1.429 . S
C661 H683 0.950 . S
C662 H658 0.949 . S
C662 C670 1.574 . S
C662 C678 1.368 . S
H663 C671 0.950 . S
H664 C669 0.950 . S
H665 C670 0.949 . S
H666 C672 0.950 . S
H667 C673 0.950 . S
H668 C674 0.949 . S
C669 H664 0.950 . S
C669 C671 1.327 . S
C669 C675 1.429 . S
C670 C662 1.574 . S
C670 H665 0.949 . S
C670 C676 1.368 . S
C671 C655 1.349 . S
C671 H663 0.950 . S
C671 C669 1.327 . S
C672 C660 1.349 . S
C672 H666 0.950 . S
C672 C673 1.327 . S
C673 H667 0.950 . S
C673 C672 1.327 . S
C673 C677 1.429 . S
C674 C657 1.574 . S
C674 H668 0.949 . S
C674 C678 1.368 . S
C675 C656 1.429 . S
C675 C669 1.429 . S
C675 C676 1.523 . S
C676 C657 1.368 . S
C676 C670 1.368 . S
C676 C675 1.523 . S
C677 C661 1.429 . S
C677 C673 1.429 . S
C677 C678 1.523 . S
C678 C662 1.368 . S
C678 C674 1.368 . S
C678 C677 1.523 . S
H679 C654 0.950 . S
H680 C656 0.950 . S
H681 C657 0.949 . S
H682 C659 0.950 . S
H683 C661 0.950 . S
C684 C685 1.349 . S
C684 C686 1.327 . S
C684 H709 0.950 . S
C685 C684 1.349 . S
C685 C701 1.349 . S
C686 C684 1.327 . S
C686 C705 1.429 . S
C686 H710 0.950 . S
C687 C704 1.574 . S
C687 C706 1.368 . S
C687 H711 0.949 . S
H688 C692 0.949 . S
C689 C690 1.349 . S
C689 C691 1.327 . S
C689 H712 0.950 . S
C690 C689 1.349 . S
C690 C702 1.349 . S
C691 C689 1.327 . S
C691 C707 1.429 . S
C691 H713 0.950 . S
C692 H688 0.949 . S
C692 C700 1.574 . S
C692 C708 1.368 . S
H693 C701 0.950 . S
H694 C699 0.950 . S
H695 C700 0.949 . S
H696 C702 0.950 . S
H697 C703 0.950 . S
H698 C704 0.949 . S
C699 H694 0.950 . S
C699 C701 1.327 . S
C699 C705 1.429 . S
C700 C692 1.574 . S
C700 H695 0.949 . S
C700 C706 1.368 . S
C701 C685 1.349 . S
C701 H693 0.950 . S
C701 C699 1.327 . S
C702 C690 1.349 . S
C702 H696 0.950 . S
C702 C703 1.327 . S
C703 H697 0.950 . S
C703 C702 1.327 . S
C703 C707 1.429 . S
C704 C687 1.574 . S
C704 H698 0.949 . S
C704 C708 1.368 . S
C705 C686 1.429 . S
C705 C699 1.429 . S
C705 C706 1.523 . S
C706 C687 1.368 . S
C706 C700 1.368 . S
C706 C705 1.523 . S
C707 C691 1.429 . S
C707 C703 1.429 . S
C707 C708 1.523 . S
C708 C692 1.368 . S
C708 C704 1.368 . S
C708 C707 1.523 . S
H709 C684 0.950 . S
H710 C686 0.950 . S
H711 C687 0.949 . S
H712 C689 0.950 . S
H713 C691 0.950 . S
C714 C715 1.349 . S
C714 C716 1.327 . S
C714 H739 0.950 . S
C715 C714 1.349 . S
C715 C731 1.349 . S
C716 C714 1.327 . S
C716 C735 1.429 . S
C716 H740 0.950 . S
C717 C734 1.574 . S
C717 C736 1.368 . S
C717 H741 0.949 . S
H718 C722 0.949 . S
C719 C720 1.349 . S
C719 C721 1.327 . S
C719 H742 0.950 . S
C720 C719 1.349 . S
C720 C732 1.349 . S
C721 C719 1.327 . S
C721 C737 1.429 . S
C721 H743 0.950 . S
C722 H718 0.949 . S
C722 C730 1.574 . S
C722 C738 1.368 . S
H723 C731 0.950 . S
H724 C729 0.950 . S
H725 C730 0.949 . S
H726 C732 0.950 . S
H727 C733 0.950 . S
H728 C734 0.949 . S
C729 H724 0.950 . S
C729 C731 1.327 . S
C729 C735 1.429 . S
C730 C722 1.574 . S
C730 H725 0.949 . S
C730 C736 1.368 . S
C731 C715 1.349 . S
C731 H723 0.950 . S
C731 C729 1.327 . S
C732 C720 1.349 . S
C732 H726 0.950 . S
C732 C733 1.327 . S
C733 H727 0.950 . S
C733 C732 1.327 . S
C733 C737 1.429 . S
C734 C717 1.574 . S
C734 H728 0.949 . S
C734 C738 1.368 . S
C735 C716 1.429 . S
C735 C729 1.429 . S
C735 C736 1.523 . S
C736 C717 1.368 . S
C736 C730 1.368 . S
C736 C735 1.523 . S
C737 C721 1.429 . S
C737 C733 1.429 . S
C737 C738 1.523 . S
C738 C722 1.368 . S
C738 C734 1.368 . S
C738 C737 1.523 . S
H739 C714 0.950 . S
H740 C716 0.950 . S
H741 C717 0.949 . S
H742 C719 0.950 . S
H743 C721 0.950 . S
C744 C745 1.349 . S
C744 C746 1.327 . S
C744 H769 0.950 . S
C745 C744 1.349 . S
C745 C761 1.349 . S
C746 C744 1.327 . S
C746 C765 1.429 . S
C746 H770 0.950 . S
C747 C764 1.574 . S
C747 C766 1.368 . S
C747 H771 0.949 . S
H748 C752 0.949 . S
C749 C750 1.349 . S
C749 C751 1.327 . S
C749 H772 0.950 . S
C750 C749 1.349 . S
C750 C762 1.349 . S
C751 C749 1.327 . S
C751 C767 1.429 . S
C751 H773 0.950 . S
C752 H748 0.949 . S
C752 C760 1.574 . S
C752 C768 1.368 . S
H753 C761 0.950 . S
H754 C759 0.950 . S
H755 C760 0.949 . S
H756 C762 0.950 . S
H757 C763 0.950 . S
H758 C764 0.949 . S
C759 H754 0.950 . S
C759 C761 1.327 . S
C759 C765 1.429 . S
C760 C752 1.574 . S
C760 H755 0.949 . S
C760 C766 1.368 . S
C761 C745 1.349 . S
C761 H753 0.950 . S
C761 C759 1.327 . S
C762 C750 1.349 . S
C762 H756 0.950 . S
C762 C763 1.327 . S
C763 H757 0.950 . S
C763 C762 1.327 . S
C763 C767 1.429 . S
C764 C747 1.574 . S
C764 H758 0.949 . S
C764 C768 1.368 . S
C765 C746 1.429 . S
C765 C759 1.429 . S
C765 C766 1.523 . S
C766 C747 1.368 . S
C766 C760 1.368 . S
C766 C765 1.523 . S
C767 C751 1.429 . S
C767 C763 1.429 . S
C767 C768 1.523 . S
C768 C752 1.368 . S
C768 C764 1.368 . S
C768 C767 1.523 . S
H769 C744 0.950 . S
H770 C746 0.950 . S
H771 C747 0.949 . S
H772 C749 0.950 . S
H773 C751 0.950 . S
C774 C775 1.349 . S
C774 C776 1.327 . S
C774 H799 0.950 . S
C775 C774 1.349 . S
C775 C791 1.349 . S
C776 C774 1.327 . S
C776 C795 1.429 . S
C776 H800 0.950 . S
C777 C794 1.574 . S
C777 C796 1.368 . S
C777 H801 0.949 . S
H778 C782 0.949 . S
C779 C780 1.349 . S
C779 C781 1.327 . S
C779 H802 0.950 . S
C780 C779 1.349 . S
C780 C792 1.349 . S
C781 C779 1.327 . S
C781 C797 1.429 . S
C781 H803 0.950 . S
C782 H778 0.949 . S
C782 C790 1.574 . S
C782 C798 1.368 . S
H783 C791 0.950 . S
H784 C789 0.950 . S
H785 C790 0.949 . S
H786 C792 0.950 . S
H787 C793 0.950 . S
H788 C794 0.949 . S
C789 H784 0.950 . S
C789 C791 1.327 . S
C789 C795 1.429 . S
C790 C782 1.574 . S
C790 H785 0.949 . S
C790 C796 1.368 . S
C791 C775 1.349 . S
C791 H783 0.950 . S
C791 C789 1.327 . S
C792 C780 1.349 . S
C792 H786 0.950 . S
C792 C793 1.327 . S
C793 H787 0.950 . S
C793 C792 1.327 . S
C793 C797 1.429 . S
C794 C777 1.574 . S
C794 H788 0.949 . S
C794 C798 1.368 . S
C795 C776 1.429 . S
C795 C789 1.429 . S
C795 C796 1.523 . S
C796 C777 1.368 . S
C796 C790 1.368 . S
C796 C795 1.523 . S
C797 C781 1.429 . S
C797 C793 1.429 . S
C797 C798 1.523 . S
C798 C782 1.368 . S
C798 C794 1.368 . S
C798 C797 1.523 . S
H799 C774 0.950 . S
H800 C776 0.950 . S
H801 C777 0.949 . S
H802 C779 0.950 . S
H803 C781 0.950 . S
C804 C805 1.349 . S
C804 C806 1.327 . S
C804 H829 0.950 . S
C805 C804 1.349 . S
C805 C821 1.349 . S
C806 C804 1.327 . S
C806 C825 1.429 . S
C806 H830 0.950 . S
C807 C824 1.574 . S
C807 C826 1.368 . S
C807 H831 0.949 . S
H808 C812 0.949 . S
C809 C810 1.349 . S
C809 C811 1.327 . S
C809 H832 0.950 . S
C810 C809 1.349 . S
C810 C822 1.349 . S
C811 C809 1.327 . S
C811 C827 1.429 . S
C811 H833 0.950 . S
C812 H808 0.949 . S
C812 C820 1.574 . S
C812 C828 1.368 . S
H813 C821 0.950 . S
H814 C819 0.950 . S
H815 C820 0.949 . S
H816 C822 0.950 . S
H817 C823 0.950 . S
H818 C824 0.949 . S
C819 H814 0.950 . S
C819 C821 1.327 . S
C819 C825 1.429 . S
C820 C812 1.574 . S
C820 H815 0.949 . S
C820 C826 1.368 . S
C821 C805 1.349 . S
C821 H813 0.950 . S
C821 C819 1.327 . S
C822 C810 1.349 . S
C822 H816 0.950 . S
C822 C823 1.327 . S
C823 H817 0.950 . S
C823 C822 1.327 . S
C823 C827 1.429 . S
C824 C807 1.574 . S
C824 H818 0.949 . S
C824 C828 1.368 . S
C825 C806 1.429 . S
C825 C819 1.429 . S
C825 C826 1.523 . S
C826 C807 1.368 . S
C826 C820 1.368 . S
C826 C825 1.523 . S
C827 C811 1.429 . S
C827 C823 1.429 . S
C827 C828 1.523 . S
C828 C812 1.368 . S
C828 C824 1.368 . S
C828 C827 1.523 . S
H829 C804 0.950 . S
H830 C806 0.950 . S
H831 C807 0.949 . S
H832 C809 0.950 . S
H833 C811 0.950 . S
C834 C835 1.349 . S
C834 C836 1.327 . S
C834 H859 0.950 . S
C835 C834 1.349 . S
C835 C851 1.349 . S
C836 C834 1.327 . S
C836 C855 1.429 . S
C836 H860 0.950 . S
C837 C854 1.574 . S
C837 C856 1.368 . S
C837 H861 0.949 . S
H838 C842 0.949 . S
C839 C840 1.349 . S
C839 C841 1.327 . S
C839 H862 0.950 . S
C840 C839 1.349 . S
C840 C852 1.349 . S
C841 C839 1.327 . S
C841 C857 1.429 . S
C841 H863 0.950 . S
C842 H838 0.949 . S
C842 C850 1.574 . S
C842 C858 1.368 . S
H843 C851 0.950 . S
H844 C849 0.950 . S
H845 C850 0.949 . S
H846 C852 0.950 . S
H847 C853 0.950 . S
H848 C854 0.949 . S
C849 H844 0.950 . S
C849 C851 1.327 . S
C849 C855 1.429 . S
C850 C842 1.574 . S
C850 H845 0.949 . S
C850 C856 1.368 . S
C851 C835 1.349 . S
C851 H843 0.950 . S
C851 C849 1.327 . S
C852 C840 1.349 . S
C852 H846 0.950 . S
C852 C853 1.327 . S
C853 H847 0.950 . S
C853 C852 1.327 . S
C853 C857 1.429 . S
C854 C837 1.574 . S
C854 H848 0.949 . S
C854 C858 1.368 . S
C855 C836 1.429 . S
C855 C849 1.429 . S
C855 C856 1.523 . S
C856 C837 1.368 . S
C856 C850 1.368 . S
C856 C855 1.523 . S
C857 C841 1.429 . S
C857 C853 1.429 . S
C857 C858 1.523 . S
C858 C842 1.368 . S
C858 C854 1.368 . S
C858 C857 1.523 . S
H859 C834 0.950 . S
H860 C836 0.950 . S
H861 C837 0.949 . S
H862 C839 0.950 . S
H863 C841 0.950 . S
C265 N146 0.396 . S
C270 N14 0.396 . S
C295 N47 0.396 . S
C300 N179 0.396 . S
C325 N80 0.396 . S
C330 N212 0.396 . S
C355 N113 0.396 . S
C360 N245 0.396 . S
C385 C17 0.881 . S
C390 C215 0.881 . S
C415 C50 0.881 . S
C420 C248 0.881 . S
C445 C149 0.881 . S
C450 C83 0.881 . S
C475 C182 0.881 . S
C480 C116 0.881 . S
C505 C259 0.667 . S
C510 C28 0.667 . S
C535 C61 0.667 . S
C540 C160 0.667 . S
C565 C193 0.667 . S
C570 C94 0.667 . S
C595 C226 0.667 . S
C600 C127 0.667 . S
C625 C8 1.939 . S
C630 N38 1.942 . S
C655 C41 1.939 . S
C660 N71 1.942 . S
C685 N104 1.942 . S
C690 C74 1.939 . S
C715 N5 1.942 1_556 S
C720 C107 1.939 . S
C745 C140 1.939 . S
C750 N236 1.942 . S
C775 N137 1.942 . S
C780 C173 1.939 . S
C805 C206 1.939 . S
C810 N170 1.942 . S
C835 C239 1.939 . S
C840 N203 1.942 1_554 S
