# Generated by pormake.
# Topology lta, (4)-cn, num edge types: 1
# Building blocks:
#     Node 0, Type 0, BuildingBlock: NAHDIM_clean_sbu_0, # of connection points: 4
#     Node 1, Type 0, BuildingBlock: NAHDIM_clean_sbu_0, # of connection points: 4
#     Node 2, Type 0, BuildingBlock: NAHDIM_clean_sbu_0, # of connection points: 4
#     Node 3, Type 0, BuildingBlock: NAHDIM_clean_sbu_0, # of connection points: 4
#     Node 4, Type 0, BuildingBlock: NAHDIM_clean_sbu_0, # of connection points: 4
#     Node 5, Type 0, BuildingBlock: NAHDIM_clean_sbu_0, # of connection points: 4
#     Node 6, Type 0, BuildingBlock: NAHDIM_clean_sbu_0, # of connection points: 4
#     Node 7, Type 0, BuildingBlock: NAHDIM_clean_sbu_0, # of connection points: 4
#     Node 8, Type 0, BuildingBlock: NAHDIM_clean_sbu_0, # of connection points: 4
#     Node 9, Type 0, BuildingBlock: NAHDIM_clean_sbu_0, # of connection points: 4
#     Node 10, Type 0, BuildingBlock: NAHDIM_clean_sbu_0, # of connection points: 4
#     Node 11, Type 0, BuildingBlock: NAHDIM_clean_sbu_0, # of connection points: 4
#     Node 12, Type 0, BuildingBlock: NAHDIM_clean_sbu_0, # of connection points: 4
#     Node 13, Type 0, BuildingBlock: NAHDIM_clean_sbu_0, # of connection points: 4
#     Node 14, Type 0, BuildingBlock: NAHDIM_clean_sbu_0, # of connection points: 4
#     Node 15, Type 0, BuildingBlock: NAHDIM_clean_sbu_0, # of connection points: 4
#     Node 16, Type 0, BuildingBlock: NAHDIM_clean_sbu_0, # of connection points: 4
#     Node 17, Type 0, BuildingBlock: NAHDIM_clean_sbu_0, # of connection points: 4
#     Node 18, Type 0, BuildingBlock: NAHDIM_clean_sbu_0, # of connection points: 4
#     Node 19, Type 0, BuildingBlock: NAHDIM_clean_sbu_0, # of connection points: 4
#     Node 20, Type 0, BuildingBlock: NAHDIM_clean_sbu_0, # of connection points: 4
#     Node 21, Type 0, BuildingBlock: NAHDIM_clean_sbu_0, # of connection points: 4
#     Node 22, Type 0, BuildingBlock: NAHDIM_clean_sbu_0, # of connection points: 4
#     Node 23, Type 0, BuildingBlock: NAHDIM_clean_sbu_0, # of connection points: 4
#     Edge 24, Type (0, 0), BuildingBlock: ZUJKAS_clean_linker_0, # of connection points: 2
#     Edge 25, Type (0, 0), BuildingBlock: ZUJKAS_clean_linker_0, # of connection points: 2
#     Edge 26, Type (0, 0), BuildingBlock: ZUJKAS_clean_linker_0, # of connection points: 2
#     Edge 27, Type (0, 0), BuildingBlock: ZUJKAS_clean_linker_0, # of connection points: 2
#     Edge 28, Type (0, 0), BuildingBlock: ZUJKAS_clean_linker_0, # of connection points: 2
#     Edge 29, Type (0, 0), BuildingBlock: ZUJKAS_clean_linker_0, # of connection points: 2
#     Edge 30, Type (0, 0), BuildingBlock: ZUJKAS_clean_linker_0, # of connection points: 2
#     Edge 31, Type (0, 0), BuildingBlock: ZUJKAS_clean_linker_0, # of connection points: 2
#     Edge 32, Type (0, 0), BuildingBlock: ZUJKAS_clean_linker_0, # of connection points: 2
#     Edge 33, Type (0, 0), BuildingBlock: ZUJKAS_clean_linker_0, # of connection points: 2
#     Edge 34, Type (0, 0), BuildingBlock: ZUJKAS_clean_linker_0, # of connection points: 2
#     Edge 35, Type (0, 0), BuildingBlock: ZUJKAS_clean_linker_0, # of connection points: 2
#     Edge 36, Type (0, 0), BuildingBlock: ZUJKAS_clean_linker_0, # of connection points: 2
#     Edge 37, Type (0, 0), BuildingBlock: ZUJKAS_clean_linker_0, # of connection points: 2
#     Edge 38, Type (0, 0), BuildingBlock: ZUJKAS_clean_linker_0, # of connection points: 2
#     Edge 39, Type (0, 0), BuildingBlock: ZUJKAS_clean_linker_0, # of connection points: 2
#     Edge 40, Type (0, 0), BuildingBlock: ZUJKAS_clean_linker_0, # of connection points: 2
#     Edge 41, Type (0, 0), BuildingBlock: ZUJKAS_clean_linker_0, # of connection points: 2
#     Edge 42, Type (0, 0), BuildingBlock: ZUJKAS_clean_linker_0, # of connection points: 2
#     Edge 43, Type (0, 0), BuildingBlock: ZUJKAS_clean_linker_0, # of connection points: 2
#     Edge 44, Type (0, 0), BuildingBlock: ZUJKAS_clean_linker_0, # of connection points: 2
#     Edge 45, Type (0, 0), BuildingBlock: ZUJKAS_clean_linker_0, # of connection points: 2
#     Edge 46, Type (0, 0), BuildingBlock: ZUJKAS_clean_linker_0, # of connection points: 2
#     Edge 47, Type (0, 0), BuildingBlock: ZUJKAS_clean_linker_0, # of connection points: 2
#     Edge 48, Type (0, 0), BuildingBlock: ZUJKAS_clean_linker_0, # of connection points: 2
#     Edge 49, Type (0, 0), BuildingBlock: ZUJKAS_clean_linker_0, # of connection points: 2
#     Edge 50, Type (0, 0), BuildingBlock: ZUJKAS_clean_linker_0, # of connection points: 2
#     Edge 51, Type (0, 0), BuildingBlock: ZUJKAS_clean_linker_0, # of connection points: 2
#     Edge 52, Type (0, 0), BuildingBlock: ZUJKAS_clean_linker_0, # of connection points: 2
#     Edge 53, Type (0, 0), BuildingBlock: ZUJKAS_clean_linker_0, # of connection points: 2
#     Edge 54, Type (0, 0), BuildingBlock: ZUJKAS_clean_linker_0, # of connection points: 2
#     Edge 55, Type (0, 0), BuildingBlock: ZUJKAS_clean_linker_0, # of connection points: 2
#     Edge 56, Type (0, 0), BuildingBlock: ZUJKAS_clean_linker_0, # of connection points: 2
#     Edge 57, Type (0, 0), BuildingBlock: ZUJKAS_clean_linker_0, # of connection points: 2
#     Edge 58, Type (0, 0), BuildingBlock: ZUJKAS_clean_linker_0, # of connection points: 2
#     Edge 59, Type (0, 0), BuildingBlock: ZUJKAS_clean_linker_0, # of connection points: 2
#     Edge 60, Type (0, 0), BuildingBlock: ZUJKAS_clean_linker_0, # of connection points: 2
#     Edge 61, Type (0, 0), BuildingBlock: ZUJKAS_clean_linker_0, # of connection points: 2
#     Edge 62, Type (0, 0), BuildingBlock: ZUJKAS_clean_linker_0, # of connection points: 2
#     Edge 63, Type (0, 0), BuildingBlock: ZUJKAS_clean_linker_0, # of connection points: 2
#     Edge 64, Type (0, 0), BuildingBlock: ZUJKAS_clean_linker_0, # of connection points: 2
#     Edge 65, Type (0, 0), BuildingBlock: ZUJKAS_clean_linker_0, # of connection points: 2
#     Edge 66, Type (0, 0), BuildingBlock: ZUJKAS_clean_linker_0, # of connection points: 2
#     Edge 67, Type (0, 0), BuildingBlock: ZUJKAS_clean_linker_0, # of connection points: 2
#     Edge 68, Type (0, 0), BuildingBlock: ZUJKAS_clean_linker_0, # of connection points: 2
#     Edge 69, Type (0, 0), BuildingBlock: ZUJKAS_clean_linker_0, # of connection points: 2
#     Edge 70, Type (0, 0), BuildingBlock: ZUJKAS_clean_linker_0, # of connection points: 2
#     Edge 71, Type (0, 0), BuildingBlock: ZUJKAS_clean_linker_0, # of connection points: 2
# Relax obj value: 0.181
# Max RMSD: 0.066
# Mean RMSD: 0.066
data_MOF--net-lta--node1-NAHDIM_clean_sbu_0--edge1-ZUJKAS_clean_linker_0
_symmetry_space_group_name_H-M    P1
_symmetry_Int_Tables_number       1
_symmetry_cell_setting            triclinic
loop_
_symmetry_equiv_pos_as_xyz
'x, y, z'
_cell_length_a     73.548085
_cell_length_b     73.541928
_cell_length_c     73.592985
_cell_angle_alpha  90.012874
_cell_angle_beta   89.973872
_cell_angle_gamma 90.007591
loop_
_atom_site_label
_atom_site_type_symbol
_atom_site_fract_x
_atom_site_fract_y
_atom_site_fract_z
_atom_type_partial_charge
C0 C 0.16595 0.29936 0.51423 0.0
O1 O 0.1696 0.31591 0.50858 0.0
O2 O 0.12818 0.33125 0.53453 0.0
Zn3 Zn 0.1299 0.31339 0.51398 0.0
O4 O 0.13535 0.32751 0.49128 0.0
C5 C 0.0943 0.29885 0.5231 0.0
O6 O 0.0981 0.30472 0.53952 0.0
O7 O 0.14963 0.29516 0.51801 0.0
C8 C 0.13052 0.32184 0.47571 0.0
O9 O 0.12202 0.30619 0.47434 0.0
C10 C 0.11644 0.3438 0.53275 0.0
O11 O 0.10625 0.34406 0.51809 0.0
O12 O 0.10598 0.30071 0.51052 0.0
C13 C 0.70779 0.15669 0.49825 0.0
O14 O 0.69127 0.15896 0.50466 0.0
O15 O 0.67922 0.12114 0.51359 0.0
Zn16 Zn 0.69436 0.12103 0.49089 0.0
O17 O 0.67756 0.1242 0.46956 0.0
C18 C 0.71521 0.09058 0.50318 0.0
O19 O 0.71518 0.09989 0.51842 0.0
O20 O 0.71225 0.1414 0.4916 0.0
C21 C 0.67274 0.11082 0.45975 0.0
O22 O 0.67934 0.0946 0.46325 0.0
C23 C 0.66862 0.10784 0.51656 0.0
O24 O 0.66809 0.09438 0.50482 0.0
O25 O 0.70752 0.09725 0.48925 0.0
C26 C 0.83123 0.703 0.51901 0.0
O27 O 0.82947 0.68526 0.51784 0.0
O28 O 0.86872 0.67631 0.54013 0.0
Zn29 Zn 0.86833 0.6931 0.51854 0.0
O30 O 0.86569 0.67791 0.49597 0.0
C31 C 0.90165 0.71157 0.52982 0.0
O32 O 0.89617 0.70812 0.54646 0.0
O33 O 0.84706 0.70984 0.51995 0.0
C34 C 0.8796 0.67195 0.48761 0.0
O35 O 0.89587 0.67587 0.49382 0.0
C36 C 0.88269 0.66668 0.54343 0.0
O37 O 0.89702 0.66822 0.53288 0.0
O38 O 0.89161 0.70715 0.51651 0.0
C39 C 0.2835 0.83155 0.49619 0.0
O40 O 0.30124 0.82977 0.49508 0.0
O41 O 0.3089 0.86895 0.52036 0.0
Zn42 Zn 0.29313 0.86894 0.4979 0.0
O43 O 0.3091 0.86788 0.47581 0.0
C44 C 0.27498 0.90154 0.51039 0.0
O45 O 0.28039 0.89599 0.52647 0.0
O46 O 0.2767 0.84734 0.4978 0.0
C47 C 0.31899 0.88149 0.47194 0.0
O48 O 0.31811 0.89607 0.48223 0.0
C49 C 0.32503 0.86276 0.51975 0.0
O50 O 0.33117 0.85591 0.50445 0.0
O51 O 0.27851 0.89192 0.49651 0.0
C52 C 0.15606 0.68626 0.47435 0.0
O53 O 0.16012 0.66901 0.4766 0.0
O54 O 0.12027 0.65456 0.45427 0.0
Zn55 Zn 0.12018 0.67198 0.4754 0.0
O56 O 0.12478 0.65814 0.49843 0.0
C57 C 0.08287 0.67352 0.48299 0.0
O58 O 0.08621 0.65619 0.48579 0.0
O59 O 0.13949 0.69088 0.47288 0.0
C60 C 0.12164 0.66487 0.51401 0.0
O61 O 0.11546 0.68158 0.51526 0.0
C62 C 0.12841 0.63938 0.45575 0.0
O63 O 0.13714 0.63564 0.47086 0.0
O64 O 0.09572 0.68374 0.47767 0.0
C65 C 0.29437 0.15397 0.49667 0.0
O66 O 0.31103 0.15678 0.49089 0.0
O67 O 0.3215 0.11785 0.47667 0.0
Zn68 Zn 0.30696 0.1171 0.49992 0.0
O69 O 0.3241 0.11825 0.52113 0.0
C70 C 0.28219 0.08826 0.48928 0.0
O71 O 0.27931 0.09844 0.4749 0.0
O72 O 0.28956 0.138 0.50115 0.0
C73 C 0.33265 0.10399 0.52583 0.0
O74 O 0.32965 0.08875 0.51702 0.0
C75 C 0.3371 0.1253 0.47664 0.0
O76 O 0.34328 0.13258 0.49173 0.0
O77 O 0.29317 0.09369 0.50143 0.0
C78 C 0.84021 0.29833 0.48266 0.0
O79 O 0.83761 0.31493 0.48872 0.0
O80 O 0.87079 0.3264 0.44686 0.0
Zn81 Zn 0.87386 0.31383 0.47086 0.0
O82 O 0.87158 0.33232 0.49082 0.0
C83 C 0.91187 0.31434 0.47238 0.0
O84 O 0.90819 0.33176 0.47086 0.0
O85 O 0.85487 0.29458 0.4743 0.0
C86 C 0.87625 0.3282 0.50691 0.0
O87 O 0.88269 0.31186 0.5102 0.0
C88 C 0.85711 0.33659 0.4442 0.0
O89 O 0.84485 0.33822 0.45708 0.0
O90 O 0.89882 0.30303 0.47233 0.0
C91 C 0.69011 0.83462 0.49946 0.0
O92 O 0.67259 0.83148 0.49799 0.0
O93 O 0.665 0.87094 0.47528 0.0
Zn94 Zn 0.67821 0.87155 0.49926 0.0
O95 O 0.66006 0.86885 0.5195 0.0
C96 C 0.70269 0.90118 0.49083 0.0
O97 O 0.70529 0.89219 0.47562 0.0
O98 O 0.69574 0.85093 0.50022 0.0
C99 C 0.64587 0.87869 0.51957 0.0
O100 O 0.64343 0.89051 0.50642 0.0
C101 C 0.66033 0.8851 0.46656 0.0
O102 O 0.66442 0.9012 0.47314 0.0
O103 O 0.69179 0.89491 0.50266 0.0
C104 C 0.49317 0.16875 0.29831 0.0
O105 O 0.49263 0.17217 0.31583 0.0
O106 O 0.51945 0.1336 0.32533 0.0
Zn107 Zn 0.49611 0.13246 0.31123 0.0
O108 O 0.47553 0.13488 0.32892 0.0
C109 C 0.50817 0.09957 0.29364 0.0
O110 O 0.52424 0.10724 0.29509 0.0
O111 O 0.49484 0.15242 0.29296 0.0
C112 C 0.45977 0.12873 0.32543 0.0
O113 O 0.45671 0.12105 0.3096 0.0
C114 C 0.52132 0.12187 0.33786 0.0
O115 O 0.50821 0.11004 0.34065 0.0
O116 O 0.4942 0.10814 0.29908 0.0
C117 C 0.83464 0.52875 0.29605 0.0
O118 O 0.83 0.53245 0.31289 0.0
O119 O 0.86825 0.54139 0.32993 0.0
Zn120 Zn 0.86898 0.52029 0.31241 0.0
O121 O 0.86326 0.4972 0.32567 0.0
C122 C 0.90769 0.51777 0.31151 0.0
O123 O 0.9056 0.52082 0.32897 0.0
O124 O 0.85076 0.52361 0.29265 0.0
C125 C 0.86293 0.48194 0.3176 0.0
O126 O 0.86585 0.4813 0.3 0.0
C127 C 0.87033 0.53843 0.34682 0.0
O128 O 0.87305 0.52171 0.35246 0.0
O129 O 0.89376 0.51746 0.30134 0.0
C130 C 0.49058 0.83623 0.30052 0.0
O131 O 0.49105 0.83232 0.31794 0.0
O132 O 0.46748 0.86951 0.33078 0.0
Zn133 Zn 0.48995 0.87154 0.31524 0.0
O134 O 0.51215 0.86746 0.33058 0.0
C135 C 0.49619 0.90927 0.31544 0.0
O136 O 0.50021 0.90508 0.33232 0.0
O137 O 0.48966 0.85278 0.29568 0.0
C138 C 0.52795 0.87171 0.32504 0.0
O139 O 0.52994 0.87835 0.30859 0.0
C140 C 0.4686 0.87201 0.34783 0.0
O141 O 0.48454 0.87549 0.35508 0.0
O142 O 0.49109 0.89673 0.30471 0.0
C143 C 0.15579 0.48229 0.28538 0.0
O144 O 0.1565 0.48977 0.30157 0.0
O145 O 0.12731 0.44673 0.31534 0.0
Zn146 Zn 0.12252 0.46866 0.29972 0.0
O147 O 0.12155 0.49088 0.31558 0.0
C148 C 0.08555 0.45752 0.29425 0.0
O149 O 0.08895 0.44757 0.30868 0.0
O150 O 0.14239 0.47213 0.28135 0.0
C151 C 0.11286 0.49129 0.33048 0.0
O152 O 0.10404 0.47672 0.33587 0.0
C153 C 0.13908 0.44773 0.32793 0.0
O154 O 0.14843 0.46282 0.32989 0.0
O155 O 0.09827 0.46697 0.28739 0.0
C156 C 0.49125 0.8354 0.69957 0.0
O157 O 0.49509 0.83239 0.68241 0.0
O158 O 0.50595 0.87078 0.66919 0.0
Zn159 Zn 0.48455 0.87147 0.68639 0.0
O160 O 0.46138 0.86946 0.6721 0.0
C161 C 0.49881 0.90173 0.70664 0.0
O162 O 0.51372 0.8919 0.70647 0.0
O163 O 0.48632 0.85121 0.70449 0.0
C164 C 0.45831 0.88167 0.66028 0.0
O165 O 0.47009 0.89496 0.65831 0.0
C166 C 0.50483 0.86323 0.65369 0.0
O167 O 0.48957 0.85527 0.64894 0.0
O168 O 0.48453 0.89548 0.69921 0.0
C169 C 0.15499 0.50489 0.69968 0.0
O170 O 0.15562 0.49887 0.68289 0.0
O171 O 0.12163 0.53655 0.67301 0.0
Zn172 Zn 0.1191 0.51434 0.68883 0.0
O173 O 0.11825 0.49221 0.67289 0.0
C174 C 0.08306 0.52584 0.69891 0.0
O175 O 0.08582 0.5379 0.68604 0.0
O176 O 0.14049 0.51227 0.70548 0.0
C177 C 0.10612 0.49069 0.6607 0.0
O178 O 0.09405 0.50371 0.65877 0.0
C179 C 0.13103 0.53563 0.65855 0.0
O180 O 0.13934 0.52034 0.65455 0.0
O181 O 0.09575 0.51487 0.70301 0.0
C182 C 0.48991 0.15204 0.69901 0.0
O183 O 0.47461 0.14585 0.69221 0.0
O184 O 0.4831 0.12134 0.6633 0.0
Zn185 Zn 0.50532 0.12206 0.67914 0.0
O186 O 0.52728 0.12321 0.6628 0.0
C187 C 0.49196 0.09103 0.6992 0.0
O188 O 0.47598 0.0978 0.69496 0.0
O189 O 0.50473 0.14399 0.69525 0.0
C190 C 0.53877 0.11032 0.66195 0.0
O191 O 0.53668 0.09604 0.67245 0.0
C192 C 0.48245 0.11022 0.65011 0.0
O193 O 0.49638 0.09943 0.64713 0.0
O194 O 0.50624 0.0994 0.69431 0.0
C195 C 0.82957 0.48895 0.69192 0.0
O196 O 0.82774 0.49532 0.67534 0.0
O197 O 0.86383 0.46024 0.66257 0.0
Zn198 Zn 0.8656 0.48173 0.67936 0.0
O199 O 0.86567 0.50466 0.66451 0.0
C200 C 0.90337 0.47841 0.68333 0.0
O201 O 0.90157 0.47612 0.66571 0.0
O202 O 0.84471 0.48219 0.69673 0.0
C203 C 0.87324 0.5191 0.67023 0.0
O204 O 0.88091 0.51915 0.68635 0.0
C205 C 0.85552 0.46172 0.64751 0.0
O206 O 0.84749 0.47716 0.64349 0.0
O207 O 0.88919 0.48064 0.69293 0.0
C208 C 0.28906 0.51866 0.14812 0.0
O209 O 0.29159 0.53484 0.141 0.0
O210 O 0.3301 0.53147 0.12577 0.0
Zn211 Zn 0.31582 0.50858 0.12184 0.0
O212 O 0.33255 0.48693 0.12088 0.0
C213 C 0.31171 0.51529 0.0844 0.0
O214 O 0.32887 0.51973 0.08656 0.0
O215 O 0.29802 0.50523 0.142 0.0
C216 C 0.34917 0.48838 0.11636 0.0
O217 O 0.35581 0.5045 0.11249 0.0
C218 C 0.33942 0.53392 0.14008 0.0
O219 O 0.33945 0.5213 0.15271 0.0
O220 O 0.3026 0.51017 0.09812 0.0
C221 C 0.29568 0.485 0.83174 0.0
O222 O 0.31286 0.48125 0.82858 0.0
O223 O 0.3244 0.46739 0.86799 0.0
Zn224 Zn 0.30851 0.48957 0.86808 0.0
O225 O 0.32461 0.51136 0.8646 0.0
C226 C 0.29297 0.47834 0.9025 0.0
O227 O 0.29903 0.4622 0.89782 0.0
O228 O 0.29064 0.48865 0.84782 0.0
C229 C 0.32241 0.52615 0.87327 0.0
O230 O 0.30888 0.5276 0.88483 0.0
C231 C 0.33793 0.46737 0.8787 0.0
O232 O 0.34059 0.4815 0.88931 0.0
O233 O 0.29525 0.4917 0.89182 0.0
C234 C 0.49741 0.29295 0.83295 0.0
O235 O 0.49185 0.30978 0.8307 0.0
O236 O 0.52491 0.32052 0.86978 0.0
Zn237 Zn 0.50254 0.30484 0.86969 0.0
O238 O 0.48072 0.32132 0.86818 0.0
C239 C 0.51477 0.28243 0.89982 0.0
O240 O 0.53043 0.28252 0.89122 0.0
O241 O 0.50283 0.28785 0.84852 0.0
C242 C 0.47194 0.32579 0.88238 0.0
O243 O 0.47698 0.31919 0.89818 0.0
C244 C 0.5284 0.32963 0.88403 0.0
O245 O 0.51761 0.32805 0.89818 0.0
O246 O 0.50124 0.29056 0.89284 0.0
C247 C 0.69747 0.50341 0.83373 0.0
O248 O 0.68074 0.50934 0.83182 0.0
O249 O 0.67086 0.52075 0.87148 0.0
Zn250 Zn 0.68652 0.49821 0.87099 0.0
O251 O 0.67046 0.47614 0.87027 0.0
C252 C 0.70417 0.50976 0.90437 0.0
O253 O 0.69756 0.52581 0.90017 0.0
O254 O 0.70288 0.49817 0.84926 0.0
C255 C 0.66146 0.4722 0.88447 0.0
O256 O 0.66311 0.48258 0.89891 0.0
C257 C 0.65486 0.52035 0.86494 0.0
O258 O 0.64886 0.50524 0.85756 0.0
O259 O 0.7015 0.49645 0.8937 0.0
C260 C 0.49924 0.69728 0.8367 0.0
O261 O 0.50604 0.68101 0.83388 0.0
O262 O 0.46851 0.66918 0.87233 0.0
Zn263 Zn 0.49212 0.68295 0.87241 0.0
O264 O 0.51238 0.66493 0.86941 0.0
C265 C 0.48276 0.69941 0.90703 0.0
O266 O 0.46603 0.69509 0.9025 0.0
O267 O 0.49254 0.70112 0.85214 0.0
C268 C 0.52868 0.66871 0.87366 0.0
O269 O 0.53253 0.68499 0.87992 0.0
C270 C 0.46599 0.65718 0.86017 0.0
O271 O 0.47864 0.65459 0.84783 0.0
O272 O 0.49569 0.69575 0.8962 0.0
C273 C 0.70947 0.51156 0.14827 0.0
O274 O 0.70169 0.52533 0.13999 0.0
O275 O 0.67659 0.46792 0.12354 0.0
Zn276 Zn 0.68937 0.49195 0.12177 0.0
O277 O 0.67055 0.51165 0.1221 0.0
C278 C 0.71102 0.48061 0.09077 0.0
O279 O 0.71139 0.46478 0.09902 0.0
O280 O 0.70636 0.49551 0.1427 0.0
C281 C 0.65893 0.51275 0.1094 0.0
O282 O 0.65923 0.50065 0.09626 0.0
C283 C 0.66437 0.46607 0.1356 0.0
O284 O 0.66118 0.47959 0.14683 0.0
O285 O 0.70279 0.49385 0.0982 0.0
C286 C 0.51331 0.70102 0.16239 0.0
O287 O 0.51241 0.68351 0.16583 0.0
O288 O 0.53092 0.67123 0.12469 0.0
Zn289 Zn 0.5095 0.68798 0.1264 0.0
O290 O 0.48771 0.67269 0.13252 0.0
C291 C 0.51877 0.70762 0.09377 0.0
O292 O 0.53508 0.70782 0.10104 0.0
O293 O 0.51287 0.70638 0.146 0.0
C294 C 0.47291 0.67336 0.12366 0.0
O295 O 0.47141 0.6847 0.10996 0.0
C296 C 0.53058 0.65963 0.1119 0.0
O297 O 0.51681 0.65971 0.10054 0.0
O298 O 0.50577 0.70024 0.1024 0.0
C299 C 0.49013 0.30019 0.15574 0.0
O300 O 0.48954 0.31794 0.15773 0.0
O301 O 0.47331 0.32645 0.11729 0.0
Zn302 Zn 0.49546 0.31069 0.11919 0.0
O303 O 0.51675 0.32702 0.12419 0.0
C304 C 0.48694 0.29047 0.08649 0.0
O305 O 0.47004 0.2925 0.09193 0.0
O306 O 0.49251 0.29357 0.13998 0.0
C307 C 0.53252 0.32409 0.11778 0.0
O308 O 0.53531 0.3097 0.10758 0.0
C309 C 0.47184 0.33779 0.10436 0.0
O310 O 0.4846 0.3384 0.09186 0.0
O311 O 0.49974 0.29696 0.09606 0.0
H312 H 0.16004 0.44737 0.35852 0.0
H313 H 0.16074 0.42413 0.38225 0.0
H314 H 0.12277 0.39152 0.35177 0.0
H315 H 0.12194 0.41468 0.32791 0.0
H316 H 0.12797 0.41277 0.40119 0.0
H317 H 0.16395 0.3554 0.36747 0.0
H318 H 0.16598 0.37865 0.35976 0.0
H319 H 0.1458 0.36584 0.35482 0.0
C320 C 0.15203 0.43514 0.35671 0.0
C321 C 0.14089 0.43289 0.34135 0.0
C322 C 0.15246 0.4219 0.37028 0.0
C323 C 0.14193 0.4061 0.36865 0.0
C324 C 0.1312 0.40352 0.35312 0.0
H325 H 0.11753 0.31646 0.44129 0.0
H326 H 0.12077 0.33672 0.41509 0.0
C327 C 0.13068 0.41681 0.33955 0.0
C328 C 0.141 0.39309 0.38391 0.0
H329 H 0.15113 0.34958 0.39643 0.0
C330 C 0.13311 0.39898 0.40022 0.0
C331 C 0.14755 0.3751 0.38243 0.0
C332 C 0.15643 0.36831 0.36524 0.0
C333 C 0.1314 0.38726 0.41513 0.0
C334 C 0.13821 0.36931 0.41379 0.0
C335 C 0.14602 0.36338 0.39742 0.0
C336 C 0.13724 0.35654 0.42929 0.0
C337 C 0.12192 0.39409 0.43201 0.0
C338 C 0.14582 0.36076 0.44578 0.0
C339 C 0.14389 0.34932 0.46078 0.0
C340 C 0.13352 0.33331 0.45949 0.0
C341 C 0.12555 0.32873 0.44273 0.0
C342 C 0.1274 0.34027 0.42775 0.0
H343 H 0.11322 0.40608 0.42907 0.0
H344 H 0.11334 0.3833 0.43816 0.0
H345 H 0.13227 0.39826 0.44215 0.0
H346 H 0.15383 0.37305 0.44711 0.0
H347 H 0.15038 0.35313 0.47343 0.0
H348 H 0.65517 0.14217 0.45012 0.0
H349 H 0.63073 0.14561 0.42785 0.0
H350 H 0.63438 0.08857 0.41481 0.0
H351 H 0.65893 0.08498 0.43691 0.0
H352 H 0.63098 0.11224 0.384 0.0
H353 H 0.57897 0.12542 0.4373 0.0
H354 H 0.59864 0.1399 0.43795 0.0
H355 H 0.60104 0.11601 0.44243 0.0
C356 C 0.65087 0.13037 0.44244 0.0
C357 C 0.65889 0.11326 0.4454 0.0
C358 C 0.63687 0.13236 0.42977 0.0
C359 C 0.63062 0.11729 0.41992 0.0
C360 C 0.639 0.10034 0.42236 0.0
H361 H 0.52887 0.09888 0.36592 0.0
H362 H 0.556 0.09837 0.38501 0.0
C363 C 0.65299 0.09832 0.43502 0.0
C364 C 0.61491 0.11898 0.40751 0.0
H365 H 0.56925 0.12715 0.4068 0.0
C366 C 0.61748 0.11557 0.38892 0.0
C367 C 0.59733 0.12313 0.41409 0.0
C368 C 0.5937 0.12619 0.43404 0.0
C369 C 0.60286 0.11621 0.37668 0.0
C370 C 0.58531 0.12053 0.38325 0.0
C371 C 0.58277 0.12396 0.40183 0.0
C372 C 0.5692 0.12076 0.37125 0.0
C373 C 0.60617 0.1118 0.35694 0.0
C374 C 0.56763 0.1336 0.35724 0.0
C375 C 0.5521 0.13395 0.34628 0.0
C376 C 0.53789 0.12148 0.34922 0.0
C377 C 0.53956 0.10865 0.36328 0.0
C378 C 0.55504 0.10835 0.37422 0.0
H379 H 0.61956 0.10514 0.3548 0.0
H380 H 0.59533 0.10274 0.35161 0.0
H381 H 0.60594 0.12456 0.3489 0.0
H382 H 0.5783 0.14349 0.35494 0.0
H383 H 0.5512 0.14403 0.3356 0.0
H384 H 0.9061 0.65341 0.46942 0.0
H385 H 0.90244 0.63316 0.44341 0.0
H386 H 0.84482 0.64413 0.44279 0.0
H387 H 0.84829 0.66409 0.46916 0.0
H388 H 0.85157 0.60849 0.44075 0.0
H389 H 0.8944 0.64435 0.39043 0.0
H390 H 0.90658 0.63979 0.41103 0.0
H391 H 0.88724 0.65482 0.41143 0.0
C392 C 0.89267 0.65166 0.46366 0.0
C393 C 0.87748 0.66036 0.47134 0.0
C394 C 0.89062 0.64018 0.44869 0.0
C395 C 0.87341 0.63741 0.44094 0.0
C396 C 0.85824 0.64619 0.44849 0.0
H397 H 0.86151 0.57411 0.34061 0.0
H398 H 0.86052 0.59887 0.36288 0.0
C399 C 0.86025 0.65757 0.46356 0.0
C400 C 0.87111 0.62438 0.42577 0.0
H401 H 0.88756 0.61302 0.3839 0.0
C402 C 0.85927 0.60961 0.42822 0.0
C403 C 0.88091 0.62601 0.40929 0.0
C404 C 0.89284 0.64221 0.40529 0.0
C405 C 0.85755 0.59602 0.41499 0.0
C406 C 0.8683 0.597 0.39908 0.0
C407 C 0.87953 0.61217 0.39624 0.0
C408 C 0.86865 0.58206 0.3856 0.0
C409 C 0.84424 0.58073 0.41821 0.0
C410 C 0.87383 0.5645 0.39096 0.0
C411 C 0.8743 0.55036 0.37834 0.0
C412 C 0.86985 0.55355 0.36005 0.0
C413 C 0.86498 0.57122 0.35462 0.0
C414 C 0.8644 0.58537 0.36731 0.0
H415 H 0.83321 0.58492 0.42766 0.0
H416 H 0.838 0.57605 0.40529 0.0
H417 H 0.85149 0.56909 0.42448 0.0
H418 H 0.87765 0.56176 0.4049 0.0
H419 H 0.87829 0.53695 0.38294 0.0
H420 H 0.3245 0.85322 0.44842 0.0
H421 H 0.34814 0.85058 0.42517 0.0
H422 H 0.36757 0.90424 0.43865 0.0
H423 H 0.34384 0.90714 0.46173 0.0
H424 H 0.36564 0.89745 0.40103 0.0
H425 H 0.40191 0.84241 0.43802 0.0
H426 H 0.37836 0.83797 0.43327 0.0
H427 H 0.38443 0.85607 0.44851 0.0
C428 C 0.33373 0.86452 0.44636 0.0
C429 C 0.3324 0.88034 0.45702 0.0
C430 C 0.34726 0.86294 0.43313 0.0
C431 C 0.35975 0.87709 0.43043 0.0
C432 C 0.35808 0.89314 0.4406 0.0
H433 H 0.46657 0.87767 0.38439 0.0
H434 H 0.43936 0.87831 0.40336 0.0
C435 C 0.34454 0.89475 0.4538 0.0
C436 C 0.37492 0.87506 0.4174 0.0
H437 H 0.41374 0.85091 0.40945 0.0
C438 C 0.37613 0.88723 0.40278 0.0
C439 C 0.38864 0.86182 0.41991 0.0
C440 C 0.38844 0.8489 0.43585 0.0
C441 C 0.3908 0.8866 0.3906 0.0
C442 C 0.40445 0.87327 0.39304 0.0
C443 C 0.40316 0.86101 0.40758 0.0
C444 C 0.42077 0.87251 0.38133 0.0
C445 C 0.39191 0.90056 0.37562 0.0
C446 C 0.41933 0.86878 0.36269 0.0
C447 C 0.43488 0.86844 0.35176 0.0
C448 C 0.45213 0.87173 0.35935 0.0
C449 C 0.45351 0.87512 0.3781 0.0
C450 C 0.43798 0.87548 0.38898 0.0
H451 H 0.38249 0.91213 0.37797 0.0
H452 H 0.40596 0.90594 0.37433 0.0
H453 H 0.38818 0.89408 0.36252 0.0
H454 H 0.40619 0.86613 0.35661 0.0
H455 H 0.43338 0.86569 0.33738 0.0
H456 H 0.1474 0.5367 0.62533 0.0
H457 H 0.14622 0.5612 0.60298 0.0
H458 H 0.1145 0.59379 0.63994 0.0
H459 H 0.11553 0.56929 0.6625 0.0
H460 H 0.11075 0.57605 0.5899 0.0
H461 H 0.15713 0.6277 0.62028 0.0
H462 H 0.15882 0.6038 0.62574 0.0
H463 H 0.14049 0.61707 0.63478 0.0
C464 C 0.14033 0.54913 0.62884 0.0
C465 C 0.1315 0.55103 0.64568 0.0
C466 C 0.13969 0.5631 0.61604 0.0
C467 C 0.13039 0.57927 0.61991 0.0
C468 C 0.12193 0.58145 0.63684 0.0
H469 H 0.11174 0.67294 0.549 0.0
H470 H 0.11339 0.65287 0.57554 0.0
C471 C 0.12248 0.56743 0.64966 0.0
C472 C 0.12847 0.5932 0.60563 0.0
H473 H 0.14317 0.63518 0.59242 0.0
C474 C 0.11777 0.58901 0.59045 0.0
C475 C 0.1375 0.61012 0.60659 0.0
C476 C 0.14923 0.61504 0.62265 0.0
C477 C 0.11604 0.60125 0.57598 0.0
C478 C 0.12564 0.6179 0.57656 0.0
C479 C 0.13594 0.62234 0.592 0.0
C480 C 0.12564 0.63049 0.56091 0.0
C481 C 0.10387 0.59625 0.56023 0.0
C482 C 0.13246 0.62468 0.54409 0.0
C483 C 0.13147 0.63602 0.52894 0.0
C484 C 0.12381 0.65347 0.53039 0.0
C485 C 0.11765 0.65954 0.54744 0.0
C486 C 0.11858 0.64812 0.56261 0.0
H487 H 0.09363 0.58587 0.56419 0.0
H488 H 0.09665 0.60838 0.55488 0.0
H489 H 0.11227 0.59045 0.54913 0.0
H490 H 0.13833 0.61125 0.54262 0.0
H491 H 0.13651 0.63099 0.51605 0.0
H492 H 0.35146 0.07568 0.54079 0.0
H493 H 0.3757 0.07724 0.56348 0.0
H494 H 0.3698 0.13552 0.56606 0.0
H495 H 0.34554 0.13414 0.54335 0.0
H496 H 0.40638 0.12212 0.56035 0.0
H497 H 0.37163 0.08924 0.61886 0.0
H498 H 0.37024 0.07718 0.59764 0.0
H499 H 0.35937 0.09892 0.59992 0.0
C500 C 0.35519 0.08882 0.54629 0.0
C501 C 0.34658 0.10479 0.54028 0.0
C502 C 0.36898 0.08967 0.55931 0.0
C503 C 0.37437 0.10647 0.56653 0.0
C504 C 0.36572 0.12242 0.56068 0.0
H505 H 0.45007 0.12792 0.65463 0.0
H506 H 0.42362 0.12725 0.63443 0.0
C507 C 0.35186 0.12159 0.54774 0.0
C508 C 0.3897 0.10749 0.57944 0.0
H509 H 0.40336 0.09454 0.62182 0.0
C510 C 0.40572 0.11617 0.57382 0.0
C511 C 0.38867 0.09981 0.59701 0.0
C512 C 0.37152 0.09087 0.60385 0.0
C513 C 0.42095 0.11705 0.58523 0.0
C514 C 0.4201 0.10894 0.60262 0.0
C515 C 0.40395 0.1006 0.6084 0.0
C516 C 0.43592 0.10899 0.61495 0.0
C517 C 0.43784 0.12669 0.57869 0.0
C518 C 0.45142 0.09873 0.61072 0.0
C519 C 0.46651 0.09901 0.62224 0.0
C520 C 0.46633 0.1096 0.63815 0.0
C521 C 0.45066 0.1197 0.64243 0.0
C522 C 0.43554 0.11932 0.63095 0.0
H523 H 0.43512 0.13522 0.56653 0.0
H524 H 0.44354 0.13543 0.58959 0.0
H525 H 0.4483 0.11645 0.57501 0.0
H526 H 0.45184 0.09053 0.5985 0.0
H527 H 0.47834 0.09105 0.61858 0.0
H528 H 0.84154 0.46164 0.61315 0.0
H529 H 0.84447 0.43782 0.59016 0.0
H530 H 0.87406 0.40446 0.62817 0.0
H531 H 0.87115 0.42816 0.65133 0.0
H532 H 0.87871 0.42384 0.5774 0.0
H533 H 0.83457 0.37001 0.60696 0.0
H534 H 0.833 0.39357 0.61373 0.0
H535 H 0.85125 0.37964 0.62201 0.0
C536 C 0.84849 0.44916 0.61672 0.0
C537 C 0.85612 0.44679 0.63407 0.0
C538 C 0.85017 0.43559 0.60355 0.0
C539 C 0.85934 0.41937 0.60755 0.0
C540 C 0.86669 0.41679 0.62494 0.0
H541 H 0.88664 0.32454 0.54241 0.0
H542 H 0.88313 0.34676 0.56693 0.0
C543 C 0.86508 0.43038 0.63811 0.0
C544 C 0.8621 0.40562 0.59317 0.0
H545 H 0.8515 0.36219 0.58076 0.0
C546 C 0.87273 0.41037 0.57808 0.0
C547 C 0.8544 0.38805 0.59425 0.0
C548 C 0.84254 0.38247 0.61002 0.0
C549 C 0.87598 0.39794 0.564 0.0
C550 C 0.86803 0.38045 0.56491 0.0
C551 C 0.85754 0.37563 0.58011 0.0
C552 C 0.87019 0.36707 0.55005 0.0
C553 C 0.88816 0.40355 0.54847 0.0
C554 C 0.86388 0.37108 0.53252 0.0
C555 C 0.86593 0.35848 0.51849 0.0
C556 C 0.87418 0.34155 0.52178 0.0
C557 C 0.88027 0.33748 0.53942 0.0
C558 C 0.87826 0.35013 0.55345 0.0
H559 H 0.89712 0.4151 0.55228 0.0
H560 H 0.89679 0.39204 0.54389 0.0
H561 H 0.87963 0.40796 0.53684 0.0
H562 H 0.85724 0.38392 0.52972 0.0
H563 H 0.86094 0.36198 0.50509 0.0
H564 H 0.53936 0.87554 0.66017 0.0
H565 H 0.56456 0.87746 0.63853 0.0
H566 H 0.53039 0.85481 0.59662 0.0
H567 H 0.50529 0.85243 0.61822 0.0
H568 H 0.56423 0.83969 0.59678 0.0
H569 H 0.56897 0.91503 0.59837 0.0
H570 H 0.5713 0.90444 0.62023 0.0
H571 H 0.5501 0.9028 0.60818 0.0
C572 C 0.53722 0.87094 0.64635 0.0
C573 C 0.52029 0.86393 0.64087 0.0
C574 C 0.5516 0.87215 0.63398 0.0
C575 C 0.54923 0.86659 0.61589 0.0
C576 C 0.53247 0.85925 0.61051 0.0
H577 H 0.6126 0.89498 0.52163 0.0
H578 H 0.58969 0.89144 0.5454 0.0
C579 C 0.51814 0.85792 0.62287 0.0
C580 C 0.56414 0.86841 0.60249 0.0
H581 H 0.59153 0.89945 0.58152 0.0
C582 C 0.57023 0.85274 0.59344 0.0
C583 C 0.57176 0.8855 0.59802 0.0
C584 C 0.56511 0.90293 0.60656 0.0
C585 C 0.58374 0.85369 0.58001 0.0
C586 C 0.59163 0.87073 0.57582 0.0
C587 C 0.58556 0.88639 0.58488 0.0
C588 C 0.60568 0.87276 0.56154 0.0
C589 C 0.58903 0.83654 0.57006 0.0
C590 C 0.62235 0.86357 0.56284 0.0
C591 C 0.63543 0.86546 0.54919 0.0
C592 C 0.63214 0.87675 0.53413 0.0
C593 C 0.61555 0.88617 0.53304 0.0
C594 C 0.60245 0.88418 0.54662 0.0
H595 H 0.57855 0.82575 0.57152 0.0
H596 H 0.59116 0.83923 0.55537 0.0
H597 H 0.60194 0.83126 0.57579 0.0
H598 H 0.62528 0.85501 0.57445 0.0
H599 H 0.64814 0.85813 0.5505 0.0
H600 H 0.32904 0.11091 0.4432 0.0
H601 H 0.34841 0.11076 0.41607 0.0
H602 H 0.3897 0.1404 0.44528 0.0
H603 H 0.37063 0.14049 0.4724 0.0
H604 H 0.36392 0.14075 0.39664 0.0
H605 H 0.41661 0.09531 0.4257 0.0
H606 H 0.39425 0.09765 0.43556 0.0
H607 H 0.41138 0.11459 0.43974 0.0
C608 C 0.34225 0.11739 0.44384 0.0
C609 C 0.34837 0.12559 0.46 0.0
C610 C 0.35327 0.11731 0.42834 0.0
C611 C 0.37057 0.12531 0.42881 0.0
C612 C 0.37652 0.13384 0.44477 0.0
H613 H 0.46189 0.14373 0.35928 0.0
H614 H 0.43898 0.1429 0.38328 0.0
C615 C 0.36556 0.13393 0.46024 0.0
C616 C 0.38252 0.12485 0.41266 0.0
H617 H 0.42434 0.1108 0.39835 0.0
C618 C 0.37705 0.13406 0.39689 0.0
C619 C 0.39959 0.11603 0.41309 0.0
C620 C 0.40577 0.10518 0.42936 0.0
C621 C 0.38859 0.13532 0.38173 0.0
C622 C 0.40588 0.12693 0.38237 0.0
C623 C 0.41112 0.11733 0.39798 0.0
C624 C 0.41906 0.12835 0.36727 0.0
C625 C 0.3825 0.14613 0.36541 0.0
C626 C 0.41538 0.1205 0.35029 0.0
C627 C 0.42845 0.12097 0.3365 0.0
C628 C 0.44545 0.1292 0.33953 0.0
C629 C 0.44895 0.13728 0.35649 0.0
C630 C 0.43589 0.13681 0.37023 0.0
H631 H 0.37057 0.15485 0.36854 0.0
H632 H 0.39371 0.15486 0.3603 0.0
H633 H 0.3786 0.13663 0.35436 0.0
H634 H 0.40258 0.11364 0.34786 0.0
H635 H 0.42537 0.11456 0.32361 0.0
H636 H 0.83106 0.36161 0.43555 0.0
H637 H 0.83108 0.38267 0.40993 0.0
H638 H 0.88041 0.35825 0.38966 0.0
H639 H 0.88067 0.33728 0.41543 0.0
H640 H 0.88305 0.39497 0.39342 0.0
H641 H 0.82008 0.3778 0.35596 0.0
H642 H 0.81616 0.38128 0.37978 0.0
H643 H 0.8302 0.36264 0.37242 0.0
C644 C 0.84176 0.36049 0.42549 0.0
C645 C 0.85593 0.34784 0.42759 0.0
C646 C 0.84166 0.37245 0.41076 0.0
C647 C 0.85562 0.37187 0.39778 0.0
C648 C 0.86945 0.35884 0.39949 0.0
H649 H 0.86216 0.44684 0.30506 0.0
H650 H 0.86046 0.41892 0.32322 0.0
C651 C 0.86958 0.34689 0.41423 0.0
C652 C 0.85687 0.38615 0.38367 0.0
H653 H 0.83292 0.40735 0.35004 0.0
C654 C 0.87221 0.3975 0.38376 0.0
C655 C 0.84278 0.38934 0.37098 0.0
C656 C 0.82646 0.377 0.36962 0.0
C657 C 0.87348 0.41244 0.37204 0.0
C658 C 0.85892 0.41626 0.36012 0.0
C659 C 0.84395 0.40447 0.35939 0.0
C660 C 0.85875 0.43296 0.34899 0.0
C661 C 0.89028 0.42421 0.37269 0.0
C662 C 0.8579 0.44998 0.35751 0.0
C663 C 0.85883 0.46588 0.34724 0.0
C664 C 0.86061 0.46504 0.32823 0.0
C665 C 0.86087 0.44793 0.31968 0.0
C666 C 0.85989 0.43199 0.33 0.0
H667 H 0.90192 0.41698 0.37904 0.0
H668 H 0.8943 0.42865 0.35883 0.0
H669 H 0.88739 0.43654 0.38089 0.0
H670 H 0.85676 0.45095 0.37216 0.0
H671 H 0.85849 0.47882 0.35426 0.0
H672 H 0.56243 0.88474 0.31976 0.0
H673 H 0.58708 0.8861 0.34205 0.0
H674 H 0.5533 0.85841 0.38117 0.0
H675 H 0.52853 0.85724 0.35915 0.0
H676 H 0.56835 0.89004 0.39432 0.0
H677 H 0.62107 0.84673 0.36192 0.0
H678 H 0.61226 0.86451 0.34769 0.0
H679 H 0.59754 0.8464 0.35492 0.0
C680 C 0.56034 0.8787 0.33302 0.0
C681 C 0.54351 0.87093 0.33771 0.0
C682 C 0.57447 0.87941 0.3457 0.0
C683 C 0.57205 0.87221 0.36319 0.0
C684 C 0.55544 0.86401 0.36772 0.0
H685 H 0.64749 0.85399 0.4508 0.0
H686 H 0.62699 0.8515 0.42479 0.0
C687 C 0.5413 0.86335 0.35511 0.0
C688 C 0.58624 0.87436 0.37726 0.0
H689 H 0.62992 0.86316 0.38826 0.0
C690 C 0.58182 0.88417 0.39301 0.0
C691 C 0.60373 0.86658 0.37551 0.0
C692 C 0.60895 0.85532 0.35918 0.0
C693 C 0.5944 0.88639 0.40712 0.0
C694 C 0.61201 0.87889 0.40525 0.0
C695 C 0.61646 0.86905 0.38952 0.0
C696 C 0.62565 0.88047 0.41992 0.0
C697 C 0.58857 0.89633 0.4241 0.0
C698 C 0.63201 0.89757 0.42547 0.0
C699 C 0.64365 0.89907 0.44039 0.0
C700 C 0.6492 0.88346 0.44992 0.0
C701 C 0.64339 0.86629 0.44382 0.0
C702 C 0.63172 0.86482 0.42893 0.0
H703 H 0.57354 0.8975 0.42508 0.0
H704 H 0.59368 0.88933 0.43645 0.0
H705 H 0.59432 0.91028 0.42391 0.0
H706 H 0.62771 0.90978 0.41846 0.0
H707 H 0.64802 0.91248 0.44464 0.0
H708 H 0.14264 0.60515 0.45579 0.0
H709 H 0.13972 0.58193 0.43232 0.0
H710 H 0.10896 0.61914 0.39908 0.0
H711 H 0.11153 0.64247 0.4227 0.0
H712 H 0.09301 0.58531 0.40175 0.0
H713 H 0.16582 0.57872 0.38368 0.0
H714 H 0.16178 0.57619 0.40759 0.0
H715 H 0.15711 0.5976 0.39673 0.0
C716 C 0.13538 0.60849 0.44344 0.0
C717 C 0.12736 0.62568 0.44109 0.0
C718 C 0.13381 0.59522 0.42999 0.0
C719 C 0.12438 0.59892 0.41385 0.0
C720 C 0.11639 0.61607 0.41141 0.0
H721 H 0.12784 0.5242 0.32206 0.0
H722 H 0.12939 0.55129 0.3412 0.0
C723 C 0.1179 0.62937 0.4249 0.0
C724 C 0.12223 0.58456 0.39993 0.0
H725 H 0.14621 0.55475 0.37372 0.0
C726 C 0.10462 0.57874 0.39546 0.0
C727 C 0.13739 0.5762 0.39157 0.0
C728 C 0.15658 0.58262 0.39498 0.0
C729 C 0.10178 0.56431 0.38331 0.0
C730 C 0.11699 0.55529 0.37574 0.0
C731 C 0.13457 0.56155 0.37972 0.0
C732 C 0.11505 0.53917 0.36384 0.0
C733 C 0.08254 0.55893 0.37864 0.0
C734 C 0.10651 0.52335 0.37026 0.0
C735 C 0.10551 0.50786 0.35931 0.0
C736 C 0.11324 0.50786 0.34184 0.0
C737 C 0.12175 0.52375 0.33545 0.0
C738 C 0.12265 0.53925 0.34637 0.0
H739 H 0.07287 0.57028 0.38108 0.0
H740 H 0.08142 0.55463 0.36422 0.0
H741 H 0.07837 0.54736 0.38737 0.0
H742 H 0.10094 0.52286 0.38387 0.0
H743 H 0.09898 0.4958 0.36468 0.0
H744 H 0.31592 0.87211 0.55464 0.0
H745 H 0.3363 0.87469 0.58082 0.0
H746 H 0.38172 0.85923 0.54708 0.0
H747 H 0.36144 0.85609 0.52106 0.0
H748 H 0.38236 0.84189 0.57926 0.0
H749 H 0.37154 0.91585 0.59007 0.0
H750 H 0.35113 0.90249 0.59096 0.0
H751 H 0.36362 0.90418 0.57002 0.0
C752 C 0.33025 0.86924 0.55282 0.0
C753 C 0.33709 0.86397 0.53576 0.0
C754 C 0.34188 0.87083 0.56776 0.0
C755 C 0.36057 0.86747 0.56582 0.0
C756 C 0.36735 0.86194 0.54887 0.0
H757 H 0.4516 0.90161 0.62978 0.0
H758 H 0.42678 0.89772 0.60812 0.0
C759 C 0.35573 0.86017 0.534 0.0
C760 C 0.37323 0.86962 0.58134 0.0
H761 H 0.39026 0.9007 0.6113 0.0
C762 C 0.38405 0.85472 0.58633 0.0
C763 C 0.37552 0.88645 0.59038 0.0
C764 C 0.36497 0.90321 0.58501 0.0
C765 C 0.39733 0.85624 0.59992 0.0
C766 C 0.39947 0.873 0.60912 0.0
C767 C 0.38846 0.88783 0.60433 0.0
C768 C 0.41388 0.87578 0.62291 0.0
C769 C 0.40941 0.84009 0.60374 0.0
C770 C 0.41466 0.86499 0.63862 0.0
C771 C 0.42897 0.86704 0.65094 0.0
C772 C 0.44257 0.88014 0.6479 0.0
C773 C 0.44135 0.89138 0.63251 0.0
C774 C 0.42716 0.88919 0.62012 0.0
H775 H 0.40907 0.83002 0.59249 0.0
H776 H 0.42372 0.84441 0.60586 0.0
H777 H 0.40465 0.83318 0.61627 0.0
H778 H 0.4043 0.85486 0.64126 0.0
H779 H 0.42944 0.8583 0.66278 0.0
H780 H 0.08315 0.48395 0.63228 0.0
H781 H 0.08378 0.45801 0.61145 0.0
H782 H 0.12967 0.43573 0.6403 0.0
H783 H 0.1291 0.4615 0.66127 0.0
H784 H 0.1135 0.44772 0.58916 0.0
H785 H 0.09397 0.39261 0.63695 0.0
H786 H 0.09019 0.41637 0.64189 0.0
H787 H 0.11246 0.40668 0.64449 0.0
C788 C 0.09329 0.47346 0.63429 0.0
C789 C 0.10605 0.47476 0.64845 0.0
C790 C 0.09362 0.45867 0.62238 0.0
C791 C 0.10661 0.44488 0.62451 0.0
C792 C 0.11932 0.44608 0.63866 0.0
H793 H 0.13668 0.34862 0.56361 0.0
H794 H 0.13403 0.37321 0.58589 0.0
C795 C 0.11903 0.46087 0.65055 0.0
C796 C 0.10746 0.42968 0.61139 0.0
H797 H 0.10432 0.38352 0.60776 0.0
C798 C 0.11138 0.43368 0.59317 0.0
C799 C 0.10479 0.41142 0.61675 0.0
C800 C 0.09996 0.40645 0.63605 0.0
C801 C 0.11303 0.41984 0.58018 0.0
C802 C 0.11032 0.40156 0.58552 0.0
C803 C 0.10638 0.39755 0.60374 0.0
C804 C 0.11152 0.38643 0.57234 0.0
C805 C 0.11809 0.42487 0.56094 0.0
C806 C 0.09951 0.38556 0.55757 0.0
C807 C 0.10102 0.3716 0.54481 0.0
C808 C 0.11449 0.35816 0.54667 0.0
C809 C 0.12621 0.3588 0.56175 0.0
C810 C 0.1247 0.37281 0.5745 0.0
H811 H 0.12425 0.43865 0.56018 0.0
H812 H 0.12782 0.4149 0.55512 0.0
H813 H 0.10567 0.42487 0.55239 0.0
H814 H 0.08899 0.39573 0.55589 0.0
H815 H 0.09167 0.37141 0.53344 0.0
H816 H 0.54605 0.13707 0.63716 0.0
H817 H 0.56937 0.13687 0.61347 0.0
H818 H 0.58815 0.08457 0.63212 0.0
H819 H 0.565 0.08468 0.65599 0.0
H820 H 0.6164 0.10994 0.62419 0.0
H821 H 0.56617 0.10381 0.56812 0.0
H822 H 0.56233 0.12252 0.58336 0.0
H823 H 0.56035 0.0996 0.59158 0.0
C824 C 0.5552 0.12556 0.6363 0.0
C825 C 0.55358 0.11082 0.64837 0.0
C826 C 0.56845 0.12544 0.62271 0.0
C827 C 0.58026 0.11058 0.62091 0.0
C828 C 0.57909 0.09612 0.63327 0.0
H829 H 0.64412 0.08174 0.52644 0.0
H830 H 0.62351 0.08212 0.55251 0.0
C831 C 0.56583 0.09621 0.64687 0.0
C832 C 0.59358 0.1099 0.60588 0.0
H833 H 0.5969 0.10831 0.55967 0.0
C834 C 0.61218 0.10957 0.61007 0.0
C835 C 0.58796 0.10916 0.58752 0.0
C836 C 0.56812 0.10862 0.5823 0.0
C837 C 0.62538 0.10879 0.59631 0.0
C838 C 0.61976 0.10854 0.57794 0.0
C839 C 0.60115 0.10863 0.57378 0.0
C840 C 0.63292 0.10803 0.56276 0.0
C841 C 0.6452 0.10794 0.60153 0.0
C842 C 0.64499 0.12252 0.5599 0.0
C843 C 0.65679 0.12236 0.54502 0.0
C844 C 0.65664 0.10774 0.53269 0.0
C845 C 0.64459 0.0932 0.53568 0.0
C846 C 0.6328 0.09338 0.55055 0.0
H847 H 0.64702 0.10376 0.61592 0.0
H848 H 0.6527 0.09828 0.59268 0.0
H849 H 0.65136 0.12161 0.59983 0.0
H850 H 0.64504 0.13411 0.56898 0.0
H851 H 0.66586 0.1338 0.54306 0.0
H852 H 0.85612 0.5245 0.63776 0.0
H853 H 0.85852 0.55088 0.61775 0.0
H854 H 0.89489 0.57671 0.65579 0.0
H855 H 0.89228 0.55051 0.67612 0.0
H856 H 0.86913 0.60025 0.64232 0.0
H857 H 0.90249 0.56244 0.58633 0.0
H858 H 0.88125 0.55258 0.59317 0.0
H859 H 0.89999 0.55311 0.60887 0.0
C860 C 0.86462 0.53579 0.6419 0.0
C861 C 0.87412 0.53536 0.65847 0.0
C862 C 0.86605 0.55081 0.6304 0.0
C863 C 0.87718 0.56557 0.63513 0.0
C864 C 0.88632 0.56539 0.65185 0.0
H865 H 0.91124 0.64675 0.55624 0.0
H866 H 0.91066 0.62343 0.57988 0.0
C867 C 0.88482 0.55041 0.66344 0.0
C868 C 0.87927 0.58115 0.62258 0.0
H869 H 0.89178 0.59218 0.57933 0.0
C870 C 0.87419 0.59854 0.62858 0.0
C871 C 0.88619 0.57891 0.60478 0.0
C872 C 0.89297 0.56079 0.59794 0.0
C873 C 0.87537 0.61371 0.61705 0.0
C874 C 0.88143 0.61129 0.59897 0.0
C875 C 0.88696 0.59398 0.59315 0.0
C876 C 0.88197 0.62642 0.58569 0.0
C877 C 0.87029 0.63217 0.62443 0.0
C878 C 0.86603 0.63587 0.58115 0.0
C879 C 0.86634 0.6493 0.56772 0.0
C880 C 0.88255 0.65332 0.55842 0.0
C881 C 0.89853 0.64395 0.56312 0.0
C882 C 0.89822 0.63062 0.57663 0.0
H883 H 0.87137 0.6326 0.63948 0.0
H884 H 0.8791 0.64298 0.61864 0.0
H885 H 0.85599 0.63521 0.62075 0.0
H886 H 0.85324 0.63255 0.58764 0.0
H887 H 0.85378 0.65619 0.56433 0.0
H888 H 0.33902 0.45279 0.12023 0.0
H889 H 0.35843 0.42583 0.11804 0.0
H890 H 0.40489 0.45997 0.10741 0.0
H891 H 0.38566 0.48701 0.10959 0.0
H892 H 0.3814 0.41506 0.0874 0.0
H893 H 0.41979 0.42709 0.15134 0.0
H894 H 0.39824 0.43789 0.14661 0.0
H895 H 0.41866 0.44615 0.13607 0.0
C896 C 0.35338 0.45458 0.11748 0.0
C897 C 0.36083 0.47205 0.11516 0.0
C898 C 0.36441 0.43916 0.11618 0.0
C899 C 0.38306 0.44098 0.11273 0.0
C900 C 0.39053 0.45835 0.1103 0.0
H901 H 0.46481 0.36404 0.079 0.0
H902 H 0.44178 0.38799 0.08057 0.0
C903 C 0.37951 0.47377 0.1115 0.0
C904 C 0.39476 0.42469 0.11158 0.0
H905 H 0.43059 0.4036 0.13208 0.0
C906 C 0.39211 0.41246 0.09719 0.0
C907 C 0.40854 0.42132 0.12452 0.0
C908 C 0.41145 0.43369 0.14061 0.0
C909 C 0.40325 0.3971 0.09514 0.0
C910 C 0.41742 0.39405 0.10775 0.0
C911 C 0.41976 0.40606 0.12238 0.0
C912 C 0.43021 0.37865 0.10595 0.0
C913 C 0.39975 0.3842 0.07959 0.0
C914 C 0.43131 0.36552 0.11971 0.0
C915 C 0.44446 0.35185 0.11888 0.0
C916 C 0.45687 0.3512 0.10434 0.0
C917 C 0.45545 0.36415 0.09036 0.0
C918 C 0.44224 0.37779 0.09118 0.0
H919 H 0.3859 0.38599 0.07385 0.0
H920 H 0.40976 0.38685 0.06861 0.0
H921 H 0.40138 0.36986 0.08402 0.0
H922 H 0.42217 0.36604 0.13125 0.0
H923 H 0.44518 0.34209 0.12987 0.0
H924 H 0.43744 0.65849 0.88407 0.0
H925 H 0.41159 0.63753 0.88584 0.0
H926 H 0.43176 0.60852 0.83908 0.0
H927 H 0.45764 0.62927 0.8372 0.0
H928 H 0.38452 0.6278 0.85805 0.0
H929 H 0.42751 0.56981 0.88039 0.0
H930 H 0.43509 0.59314 0.88159 0.0
H931 H 0.43519 0.5813 0.86025 0.0
C932 C 0.43632 0.64771 0.87409 0.0
C933 C 0.44968 0.64544 0.86058 0.0
C934 C 0.42154 0.6358 0.87512 0.0
C935 C 0.41997 0.62139 0.86274 0.0
C936 C 0.43293 0.61943 0.8489 0.0
H937 H 0.35062 0.52808 0.84922 0.0
H938 H 0.37325 0.55221 0.8464 0.0
C939 C 0.44767 0.63134 0.84783 0.0
C940 C 0.40508 0.60803 0.86455 0.0
H941 H 0.39685 0.56324 0.87327 0.0
C942 C 0.38713 0.61369 0.86146 0.0
C943 C 0.40864 0.58969 0.86904 0.0
C944 C 0.42762 0.58308 0.87317 0.0
C945 C 0.37262 0.60129 0.86225 0.0
C946 C 0.37622 0.5829 0.86657 0.0
C947 C 0.39416 0.57734 0.86988 0.0
C948 C 0.36166 0.56903 0.86757 0.0
C949 C 0.35367 0.60787 0.85796 0.0
C950 C 0.34762 0.57052 0.88041 0.0
C951 C 0.3346 0.55677 0.88202 0.0
C952 C 0.33553 0.54121 0.87094 0.0
C953 C 0.34952 0.53987 0.85798 0.0
C954 C 0.36247 0.55365 0.85634 0.0
H955 H 0.35386 0.62099 0.85048 0.0
H956 H 0.34615 0.59769 0.84974 0.0
H957 H 0.34612 0.60998 0.87085 0.0
H958 H 0.34699 0.58211 0.88947 0.0
H959 H 0.32405 0.55816 0.8922 0.0
H960 H 0.45889 0.34306 0.85213 0.0
H961 H 0.43492 0.36609 0.85077 0.0
H962 H 0.42701 0.36155 0.90865 0.0
H963 H 0.45081 0.3384 0.91017 0.0
H964 H 0.39427 0.36245 0.888 0.0
H965 H 0.4417 0.41851 0.86999 0.0
H966 H 0.4427 0.39892 0.85543 0.0
H967 H 0.44947 0.39696 0.87879 0.0
C968 C 0.452 0.3469 0.86457 0.0
C969 C 0.45684 0.339 0.88129 0.0
C970 C 0.43837 0.3601 0.86376 0.0
C971 C 0.42942 0.36566 0.87965 0.0
C972 C 0.43384 0.35746 0.89626 0.0
H973 H 0.36814 0.46344 0.89984 0.0
H974 H 0.38963 0.43811 0.90001 0.0
C975 C 0.44747 0.34427 0.89709 0.0
C976 C 0.41568 0.38031 0.87907 0.0
H977 H 0.41036 0.42558 0.87045 0.0
C978 C 0.39773 0.37625 0.88413 0.0
C979 C 0.42037 0.39831 0.87423 0.0
C980 C 0.43962 0.40356 0.86945 0.0
C981 C 0.38427 0.38977 0.88438 0.0
C982 C 0.3889 0.40771 0.87924 0.0
C983 C 0.40686 0.41176 0.87426 0.0
C984 C 0.37546 0.42264 0.87941 0.0
C985 C 0.36532 0.38487 0.89053 0.0
C986 C 0.36042 0.42233 0.8677 0.0
C987 C 0.34808 0.43678 0.86757 0.0
C988 C 0.35067 0.45183 0.87909 0.0
C989 C 0.36575 0.45205 0.89081 0.0
C990 C 0.37805 0.43761 0.89093 0.0
H991 H 0.36502 0.37169 0.89789 0.0
H992 H 0.35965 0.39559 0.89953 0.0
H993 H 0.35634 0.38369 0.87847 0.0
H994 H 0.35836 0.41103 0.85849 0.0
H995 H 0.33664 0.43624 0.85832 0.0
H996 H 0.65389 0.4488 0.85655 0.0
H997 H 0.63214 0.42359 0.85659 0.0
H998 H 0.619 0.43486 0.91258 0.0
H999 H 0.64053 0.46017 0.91265 0.0
H1000 H 0.63065 0.3923 0.87931 0.0
H1001 H 0.5694 0.43587 0.88668 0.0
H1002 H 0.59129 0.44484 0.88014 0.0
H1003 H 0.58661 0.43969 0.90356 0.0
C1004 C 0.64638 0.44591 0.86888 0.0
C1005 C 0.64883 0.45657 0.88457 0.0
C1006 C 0.63399 0.4315 0.86888 0.0
C1007 C 0.62381 0.42757 0.8845 0.0
C1008 C 0.62651 0.43791 0.90029 0.0
H1009 H 0.53921 0.35107 0.91231 0.0
H1010 H 0.56336 0.37387 0.91239 0.0
C1011 C 0.63887 0.45232 0.90031 0.0
C1012 C 0.61026 0.41272 0.88429 0.0
H1013 H 0.56497 0.40406 0.88931 0.0
C1014 C 0.61627 0.39484 0.88142 0.0
C1015 C 0.59154 0.41614 0.88701 0.0
C1016 C 0.58425 0.43518 0.88936 0.0
C1017 C 0.60404 0.38017 0.8816 0.0
C1018 C 0.58534 0.3836 0.88446 0.0
C1019 C 0.57935 0.4015 0.88722 0.0
C1020 C 0.57165 0.36886 0.88463 0.0
C1021 C 0.61126 0.36113 0.87915 0.0
C1022 C 0.56836 0.35847 0.86899 0.0
C1023 C 0.55457 0.3454 0.86888 0.0
C1024 C 0.54375 0.34261 0.8844 0.0
C1025 C 0.54728 0.35288 0.90012 0.0
C1026 C 0.56107 0.36592 0.90021 0.0
H1027 H 0.62615 0.36042 0.88161 0.0
H1028 H 0.60432 0.35149 0.88847 0.0
H1029 H 0.60867 0.35663 0.86499 0.0
H1030 H 0.57617 0.36078 0.85671 0.0
H1031 H 0.55215 0.33776 0.85653 0.0
H1032 H 0.66304 0.55402 0.87869 0.0
H1033 H 0.64284 0.58045 0.88084 0.0
H1034 H 0.59987 0.54978 0.85538 0.0
H1035 H 0.61981 0.52333 0.85324 0.0
H1036 H 0.62368 0.59904 0.85203 0.0
H1037 H 0.57715 0.5689 0.90324 0.0
H1038 H 0.59956 0.55991 0.89879 0.0
H1039 H 0.58106 0.55481 0.88368 0.0
C1040 C 0.64929 0.5529 0.87355 0.0
C1041 C 0.64299 0.53654 0.86589 0.0
C1042 C 0.6378 0.56801 0.87478 0.0
C1043 C 0.61983 0.56693 0.86851 0.0
C1044 C 0.61362 0.55075 0.86058 0.0
H1045 H 0.52517 0.63423 0.8604 0.0
H1046 H 0.54836 0.61052 0.85913 0.0
C1047 C 0.62507 0.53568 0.8593 0.0
C1048 C 0.60749 0.5827 0.87012 0.0
H1049 H 0.56722 0.59608 0.88885 0.0
C1050 C 0.61141 0.59851 0.8602 0.0
C1051 C 0.59156 0.58191 0.88084 0.0
C1052 C 0.58711 0.56554 0.89239 0.0
C1053 C 0.59941 0.61336 0.86017 0.0
C1054 C 0.58326 0.61239 0.87058 0.0
C1055 C 0.57958 0.59672 0.88082 0.0
C1056 C 0.56966 0.6272 0.87066 0.0
C1057 C 0.60376 0.62968 0.84853 0.0
C1058 C 0.57399 0.64445 0.87757 0.0
C1059 C 0.56076 0.65809 0.87828 0.0
C1060 C 0.54296 0.65463 0.87222 0.0
C1061 C 0.53874 0.63735 0.86519 0.0
C1062 C 0.55196 0.62377 0.86446 0.0
H1063 H 0.61446 0.62663 0.83833 0.0
H1064 H 0.59142 0.63456 0.84133 0.0
H1065 H 0.60874 0.64087 0.85733 0.0
H1066 H 0.5875 0.64726 0.88272 0.0
H1067 H 0.56442 0.67122 0.88385 0.0
H1068 H 0.65544 0.54031 0.13405 0.0
H1069 H 0.63368 0.56542 0.13347 0.0
H1070 H 0.61076 0.5446 0.08372 0.0
H1071 H 0.63236 0.5193 0.08423 0.0
H1072 H 0.62906 0.59179 0.10564 0.0
H1073 H 0.56633 0.55124 0.11732 0.0
H1074 H 0.5888 0.54239 0.12175 0.0
H1075 H 0.58039 0.54358 0.09887 0.0
C1076 C 0.64571 0.54099 0.12302 0.0
C1077 C 0.64557 0.52776 0.10921 0.0
C1078 C 0.63333 0.55537 0.12271 0.0
C1079 C 0.62052 0.55672 0.10867 0.0
C1080 C 0.62036 0.5436 0.09483 0.0
H1081 H 0.53372 0.63321 0.08603 0.0
H1082 H 0.55634 0.60892 0.08447 0.0
C1083 C 0.63276 0.52921 0.09511 0.0
C1084 C 0.60758 0.57208 0.10837 0.0
H1085 H 0.56244 0.58248 0.11076 0.0
C1086 C 0.61449 0.5898 0.10679 0.0
C1087 C 0.58861 0.56936 0.10983 0.0
C1088 C 0.58053 0.55064 0.11219 0.0
C1089 C 0.60287 0.60492 0.10644 0.0
C1090 C 0.58391 0.60221 0.10803 0.0
C1091 C 0.577 0.58448 0.10951 0.0
C1092 C 0.57094 0.61758 0.10848 0.0
C1093 C 0.61097 0.62362 0.10405 0.0
C1094 C 0.57168 0.63048 0.12251 0.0
C1095 C 0.5588 0.64441 0.12342 0.0
C1096 C 0.54487 0.64557 0.1104 0.0
C1097 C 0.54428 0.63271 0.09627 0.0
C1098 C 0.55718 0.61881 0.09536 0.0
H1099 H 0.62487 0.62298 0.09817 0.0
H1100 H 0.60231 0.63218 0.09513 0.0
H1101 H 0.61193 0.63036 0.11751 0.0
H1102 H 0.58199 0.62954 0.13297 0.0
H1103 H 0.55957 0.65405 0.13453 0.0
H1104 H 0.3646 0.54128 0.16645 0.0
H1105 H 0.38582 0.56693 0.16749 0.0
H1106 H 0.36238 0.58848 0.11831 0.0
H1107 H 0.34111 0.56304 0.11717 0.0
H1108 H 0.41103 0.57461 0.13944 0.0
H1109 H 0.36517 0.63316 0.15204 0.0
H1110 H 0.35859 0.60993 0.15661 0.0
H1111 H 0.35803 0.61861 0.13378 0.0
C1112 C 0.36378 0.55162 0.156 0.0
C1113 C 0.3512 0.55011 0.1417 0.0
C1114 C 0.3759 0.56625 0.15663 0.0
C1115 C 0.37549 0.57968 0.14311 0.0
C1116 C 0.36267 0.57844 0.12907 0.0
H1117 H 0.44121 0.66808 0.105 0.0
H1118 H 0.4175 0.64563 0.11136 0.0
C1119 C 0.35061 0.56381 0.12838 0.0
C1120 C 0.38946 0.59411 0.14268 0.0
H1121 H 0.39518 0.64015 0.14175 0.0
C1122 C 0.40764 0.58895 0.1402 0.0
C1123 C 0.38489 0.61276 0.14353 0.0
C1124 C 0.36563 0.619 0.1468 0.0
C1125 C 0.42136 0.60197 0.13787 0.0
C1126 C 0.41678 0.62065 0.13846 0.0
C1127 C 0.39863 0.62582 0.14131 0.0
C1128 C 0.43056 0.63497 0.13544 0.0
C1129 C 0.44051 0.59561 0.13407 0.0
C1130 C 0.44551 0.63667 0.14714 0.0
C1131 C 0.45914 0.64937 0.14348 0.0
C1132 C 0.45793 0.66074 0.12816 0.0
C1133 C 0.44257 0.65948 0.11687 0.0
C1134 C 0.429 0.64669 0.12049 0.0
H1135 H 0.44088 0.58114 0.12973 0.0
H1136 H 0.44697 0.60403 0.12333 0.0
H1137 H 0.44876 0.59689 0.14663 0.0
H1138 H 0.44676 0.628 0.15897 0.0
H1139 H 0.4707 0.65014 0.15256 0.0
H1140 H 0.63466 0.45971 0.15692 0.0
H1141 H 0.61391 0.43377 0.15551 0.0
H1142 H 0.64684 0.40949 0.11353 0.0
H1143 H 0.66772 0.43537 0.11482 0.0
H1144 H 0.5953 0.42366 0.12224 0.0
H1145 H 0.63718 0.36748 0.15068 0.0
H1146 H 0.6421 0.39116 0.15504 0.0
H1147 H 0.64776 0.38127 0.13347 0.0
C1148 C 0.63765 0.44875 0.14756 0.0
C1149 C 0.65281 0.44962 0.13594 0.0
C1150 C 0.62578 0.43395 0.14678 0.0
C1151 C 0.62896 0.4197 0.13453 0.0
C1152 C 0.64433 0.42025 0.12326 0.0
H1153 H 0.56656 0.32459 0.10272 0.0
H1154 H 0.59024 0.34761 0.10703 0.0
C1155 C 0.65618 0.43509 0.12396 0.0
C1156 C 0.61538 0.40504 0.13252 0.0
H1157 H 0.60867 0.35945 0.13806 0.0
C1158 C 0.59817 0.40963 0.12577 0.0
C1159 C 0.61931 0.38677 0.13696 0.0
C1160 C 0.63754 0.38129 0.14457 0.0
C1161 C 0.58474 0.39637 0.12318 0.0
C1162 C 0.58852 0.37811 0.1279 0.0
C1163 C 0.60581 0.37348 0.13453 0.0
C1164 C 0.57462 0.36368 0.12608 0.0
C1165 C 0.56676 0.40198 0.11502 0.0
C1166 C 0.5582 0.3649 0.1357 0.0
C1167 C 0.54463 0.35188 0.13319 0.0
C1168 C 0.54731 0.33728 0.12115 0.0
C1169 C 0.56405 0.33572 0.11203 0.0
C1170 C 0.5776 0.34883 0.11449 0.0
H1171 H 0.56785 0.4151 0.1076 0.0
H1172 H 0.56159 0.39147 0.1055 0.0
H1173 H 0.55663 0.40375 0.12605 0.0
H1174 H 0.55581 0.37604 0.14503 0.0
H1175 H 0.53197 0.35337 0.14058 0.0
H1176 H 0.06316 0.30438 0.54244 0.0
H1177 H 0.0321 0.2991 0.53218 0.0
H1178 H 0.0524 0.27399 0.48319 0.0
H1179 H 0.08356 0.27993 0.49308 0.0
H1180 H 0.02958 0.29929 0.47496 0.0
H1181 H -0.00252 0.25775 0.52836 0.0
H1182 H 0.008 0.27729 0.53838 0.0
H1183 H 0.02183 0.26059 0.52693 0.0
C1184 C 0.06102 0.29733 0.52969 0.0
C1185 C 0.07577 0.29269 0.5185 0.0
C1186 C 0.04322 0.29417 0.5239 0.0
C1187 C 0.03987 0.28592 0.507 0.0
C1188 C 0.05465 0.28033 0.49629 0.0
H1189 H 0.92444 0.27937 0.47559 0.0
H1190 H 0.95575 0.26964 0.48164 0.0
C1191 C 0.07244 0.28374 0.50195 0.0
C1192 C 0.02116 0.28558 0.49949 0.0
H1193 H 0.97698 0.2772 0.5109 0.0
C1194 C 0.01814 0.29407 0.48266 0.0
C1195 C 0.0062 0.27851 0.5093 0.0
C1196 C 0.0086 0.26785 0.52664 0.0
C1197 C 0.00051 0.29677 0.476 0.0
C1198 C 0.9855 0.29134 0.4867 0.0
C1199 C 0.98851 0.28169 0.50288 0.0
C1200 C 0.96673 0.29693 0.48212 0.0
C1201 C -0.00183 0.30579 0.45773 0.0
C1202 C 0.96255 0.31548 0.48054 0.0
C1203 C 0.94479 0.32106 0.477 0.0
C1204 C 0.93078 0.3082 0.47522 0.0
C1205 C 0.93496 0.2896 0.47683 0.0
C1206 C 0.95281 0.28402 0.4803 0.0
H1207 H 0.01006 0.30314 0.44878 0.0
H1208 H 0.98568 0.30097 0.45075 0.0
H1209 H -0.00286 0.32072 0.45965 0.0
H1210 H 0.97299 0.3257 0.48239 0.0
H1211 H 0.94202 0.33549 0.476 0.0
H1212 H 0.72452 0.06926 0.53212 0.0
H1213 H 0.72987 0.03642 0.53187 0.0
H1214 H 0.72534 0.03598 0.47346 0.0
H1215 H 0.7199 0.06875 0.47355 0.0
H1216 H 0.70144 0.01391 0.5159 0.0
H1217 H 0.76921 0.00123 0.485 0.0
H1218 H 0.76342 0.02239 0.49612 0.0
H1219 H 0.75517 0.01772 0.47364 0.0
C1220 C 0.72513 0.06227 0.51919 0.0
C1221 C 0.72161 0.07155 0.50286 0.0
C1222 C 0.72822 0.04353 0.51908 0.0
C1223 C 0.72814 0.03387 0.50264 0.0
C1224 C 0.72575 0.04327 0.48625 0.0
H1225 H 0.71443 0.92478 0.46469 0.0
H1226 H 0.72298 0.95669 0.46893 0.0
C1227 C 0.7225 0.06197 0.48635 0.0
C1228 C 0.72756 0.01382 0.50276 0.0
H1229 H 0.74922 0.97581 0.48733 0.0
C1230 C 0.712 0.00551 0.50993 0.0
C1231 C 0.74125 0.00307 0.49467 0.0
C1232 C 0.7583 0.01148 0.48701 0.0
C1233 C 0.70938 0.9867 0.50865 0.0
C1234 C 0.72306 0.97584 0.50053 0.0
C1235 C 0.73883 0.98415 0.49365 0.0
C1236 C 0.72063 0.956 0.49825 0.0
C1237 C 0.69158 0.97883 0.51521 0.0
C1238 C 0.71722 0.94489 0.51336 0.0
C1239 C 0.71199 0.92681 0.51096 0.0
C1240 C 0.71056 0.91943 0.49341 0.0
C1241 C 0.71537 0.93015 0.47837 0.0
C1242 C 0.72028 0.94836 0.48077 0.0
H1243 H 0.68088 0.98942 0.5165 0.0
H1244 H 0.68657 0.96812 0.50582 0.0
H1245 H 0.69357 0.97265 0.52881 0.0
H1246 H 0.71791 0.95039 0.527 0.0
H1247 H 0.70864 0.91874 0.52281 0.0
H1248 H 0.91575 0.72605 0.4988 0.0
H1249 H 0.94782 0.72665 0.49004 0.0
H1250 H 0.9628 0.70739 0.54332 0.0
H1251 H 0.93081 0.70728 0.55237 0.0
H1252 H 0.98864 0.73112 0.52807 0.0
H1253 H 0.9685 0.67599 0.48034 0.0
H1254 H 0.95709 0.69729 0.47689 0.0
H1255 H 0.95331 0.6847 0.49749 0.0
C1256 C 0.92593 0.72245 0.50881 0.0
C1257 C 0.92079 0.71631 0.52616 0.0
C1258 C 0.94422 0.72274 0.50376 0.0
C1259 C 0.95757 0.71657 0.51587 0.0
C1260 C 0.95264 0.71208 0.53374 0.0
H1261 H 0.05371 0.65565 0.49716 0.0
H1262 H 0.02391 0.66811 0.50457 0.0
C1263 C 0.93436 0.71203 0.53889 0.0
C1264 C 0.97614 0.71244 0.50934 0.0
H1265 H -0.00062 0.68386 0.48114 0.0
C1266 C 0.99105 0.72093 0.51769 0.0
C1267 C 0.97915 0.6989 0.49599 0.0
C1268 C 0.96371 0.68855 0.48724 0.0
C1269 C 0.00896 0.71602 0.51321 0.0
C1270 C 0.01192 0.70248 0.49988 0.0
C1271 C -0.00299 0.69431 0.49128 0.0
C1272 C 0.03025 0.69541 0.49561 0.0
C1273 C 0.02452 0.72477 0.5233 0.0
C1274 C 0.04365 0.70663 0.48797 0.0
C1275 C 0.06079 0.69954 0.48374 0.0
C1276 C 0.0647 0.68109 0.48698 0.0
C1277 C 0.05115 0.6699 0.49447 0.0
C1278 C 0.03411 0.677 0.49873 0.0
H1279 H 0.01983 0.73216 0.53561 0.0
H1280 H 0.0347 0.71441 0.52743 0.0
H1281 H 0.03139 0.73467 0.51423 0.0
H1282 H 0.04081 0.7208 0.48512 0.0
H1283 H 0.07094 0.70849 0.47793 0.0
H1284 H 0.28431 0.06496 0.51798 0.0
H1285 H 0.27404 0.03347 0.51926 0.0
H1286 H 0.25124 0.03845 0.46552 0.0
H1287 H 0.26165 0.0701 0.46399 0.0
H1288 H 0.23879 0.01605 0.51416 0.0
H1289 H 0.29036 -0.00223 0.46165 0.0
H1290 H 0.29091 0.01926 0.47345 0.0
H1291 H 0.27428 0.0153 0.45605 0.0
C1292 C 0.27694 0.05947 0.50648 0.0
C1293 C 0.27403 0.06995 0.49076 0.0
C1294 C 0.27098 0.0415 0.5073 0.0
C1295 C 0.26207 0.03364 0.49242 0.0
C1296 C 0.25827 0.04428 0.47706 0.0
H1297 H 0.25947 0.91582 0.47985 0.0
H1298 H 0.25094 0.9475 0.47459 0.0
C1299 C 0.26421 0.06234 0.47623 0.0
C1300 C 0.25846 0.01388 0.49257 0.0
H1301 H 0.27515 0.97396 0.47603 0.0
C1302 C 0.24648 0.00679 0.50562 0.0
C1303 C 0.26848 0.00191 0.48137 0.0
C1304 C 0.28183 0.00883 0.46739 0.0
C1305 C 0.24475 0.98796 0.50822 0.0
C1306 C 0.25561 0.97602 0.49775 0.0
C1307 C 0.26683 0.98312 0.48405 0.0
C1308 C 0.25719 0.95637 0.50192 0.0
C1309 C 0.23156 0.98109 0.52233 0.0
C1310 C 0.26313 0.95075 0.51916 0.0
C1311 C 0.2679 0.93263 0.52224 0.0
C1312 C 0.26712 0.91988 0.50804 0.0
C1313 C 0.26033 0.92535 0.49104 0.0
C1314 C 0.25541 0.94343 0.48801 0.0
H1315 H 0.21998 0.99063 0.52404 0.0
H1316 H 0.22615 0.96747 0.5187 0.0
H1317 H 0.23862 0.98006 0.53561 0.0
H1318 H 0.26509 0.96054 0.52997 0.0
H1319 H 0.27314 0.92887 0.53547 0.0
H1320 H 0.48506 0.92371 0.2829 0.0
H1321 H 0.486 0.95576 0.27371 0.0
H1322 H 0.51126 0.96969 0.32474 0.0
H1323 H 0.51009 0.93795 0.33413 0.0
H1324 H 0.48142 0.99085 0.31651 0.0
H1325 H 0.52951 0.98738 0.25823 0.0
H1326 H 0.51035 0.97223 0.25731 0.0
H1327 H 0.5273 0.96922 0.27459 0.0
C1328 C 0.49094 0.93361 0.29209 0.0
C1329 C 0.49744 0.92833 0.30927 0.0
C1330 C 0.49156 0.95187 0.28677 0.0
C1331 C 0.49885 0.96503 0.29849 0.0
C1332 C 0.50559 0.95972 0.3155 0.0
H1333 H 0.53526 0.07424 0.29196 0.0
H1334 H 0.53159 0.04129 0.28971 0.0
C1335 C 0.50489 0.94156 0.32085 0.0
C1336 C 0.49864 0.98456 0.29372 0.0
H1337 H 0.51711 0.01618 0.2652 0.0
C1338 C 0.48909 0.9964 0.3052 0.0
C1339 C 0.50876 0.99167 0.27901 0.0
C1340 C 0.5197 0.97954 0.26662 0.0
C1341 C 0.48981 0.01526 0.30276 0.0
C1342 C 0.49997 0.02244 0.28808 0.0
C1343 C 0.50919 0.01058 0.2763 0.0
C1344 C 0.50243 0.04228 0.2859 0.0
C1345 C 0.48041 0.02731 0.31648 0.0
C1346 C 0.48736 0.05375 0.28364 0.0
C1347 C 0.48937 0.07256 0.28519 0.0
C1348 C 0.50655 0.08019 0.2887 0.0
C1349 C 0.52184 0.06876 0.28934 0.0
C1350 C 0.51978 0.04993 0.28803 0.0
H1351 H 0.47673 0.01979 0.32905 0.0
H1352 H 0.48918 0.03899 0.32031 0.0
H1353 H 0.4677 0.03275 0.31047 0.0
H1354 H 0.47392 0.0481 0.28157 0.0
H1355 H 0.47737 0.08106 0.28436 0.0
H1356 H 0.94013 0.51876 0.32933 0.0
H1357 H 0.96972 0.50895 0.31804 0.0
H1358 H 0.94604 0.49657 0.26588 0.0
H1359 H 0.9162 0.50625 0.27712 0.0
H1360 H 0.96707 0.46835 0.28015 0.0
H1361 H 0.00468 0.53339 0.28234 0.0
H1362 H 0.99308 0.5289 0.30332 0.0
H1363 H 0.98014 0.53229 0.28283 0.0
C1364 C 0.94121 0.51417 0.31538 0.0
C1365 C 0.92582 0.51329 0.30412 0.0
C1366 C 0.95816 0.50868 0.30891 0.0
C1367 C 0.96009 0.50229 0.29105 0.0
C1368 C 0.94483 0.5016 0.27966 0.0
H1369 H 0.07358 0.47834 0.26585 0.0
H1370 H 0.04223 0.48747 0.25963 0.0
C1371 C 0.92782 0.50717 0.28611 0.0
C1372 C 0.97785 0.49517 0.28493 0.0
H1373 H 0.02285 0.50606 0.28392 0.0
C1374 C 0.97925 0.47665 0.28057 0.0
C1375 C 0.99365 0.5061 0.28511 0.0
C1376 C 0.99281 0.52632 0.28846 0.0
C1377 C 0.99626 0.46846 0.27777 0.0
C1378 C 0.01219 0.47906 0.2797 0.0
C1379 C 0.01065 0.49787 0.28265 0.0
C1380 C 0.03051 0.47081 0.28085 0.0
C1381 C -0.00299 0.44847 0.27327 0.0
C1382 C 0.03426 0.45804 0.29451 0.0
C1383 C 0.05213 0.45275 0.29807 0.0
C1384 C 0.06661 0.46034 0.28817 0.0
C1385 C 0.06273 0.47231 0.27378 0.0
C1386 C 0.04483 0.47754 0.27019 0.0
H1387 H 0.98463 0.44414 0.26577 0.0
H1388 H 0.00917 0.44511 0.26498 0.0
H1389 H -0.00242 0.44052 0.28607 0.0
H1390 H 0.0235 0.45298 0.3032 0.0
H1391 H 0.05464 0.44352 0.30925 0.0
H1392 H 0.5281 0.92128 0.7187 0.0
H1393 H 0.52901 0.95379 0.72576 0.0
H1394 H 0.47124 0.95751 0.71646 0.0
H1395 H 0.47014 0.92511 0.70957 0.0
H1396 H 0.51933 0.97919 0.69994 0.0
H1397 H 0.47775 0.98871 0.7619 0.0
H1398 H 0.48705 0.96691 0.75541 0.0
H1399 H 0.46652 0.97519 0.74499 0.0
C1400 C 0.51552 0.92893 0.71857 0.0
C1401 C 0.49907 0.92065 0.71343 0.0
C1402 C 0.51607 0.94749 0.72264 0.0
C1403 C 0.50016 0.958 0.72184 0.0
C1404 C 0.4836 0.94958 0.71756 0.0
H1405 H 0.46498 0.06588 0.70371 0.0
H1406 H 0.46857 0.03403 0.7125 0.0
C1407 C 0.48304 0.93107 0.71344 0.0
C1408 C 0.50116 0.97806 0.72284 0.0
H1409 H 0.48186 0.01517 0.74297 0.0
C1410 C 0.51146 0.9871 0.70959 0.0
C1411 C 0.49075 0.98828 0.73536 0.0
C1412 C 0.48003 0.97927 0.75033 0.0
C1413 C 0.51085 0.00605 0.70783 0.0
C1414 C 0.49996 0.01627 0.71998 0.0
C1415 C 0.4902 0.00729 0.7337 0.0
C1416 C 0.49747 0.03609 0.71759 0.0
C1417 C 0.52103 0.01483 0.69231 0.0
C1418 C 0.5124 0.04793 0.71826 0.0
C1419 C 0.51045 0.06608 0.71304 0.0
C1420 C 0.49346 0.07272 0.70731 0.0
C1421 C 0.47826 0.06115 0.70796 0.0
C1422 C 0.48028 0.04295 0.71302 0.0
H1423 H 0.52544 0.00473 0.68198 0.0
H1424 H 0.51249 0.02524 0.68549 0.0
H1425 H 0.53336 0.02167 0.69766 0.0
H1426 H 0.52571 0.04296 0.72214 0.0
H1427 H 0.52237 0.07473 0.71291 0.0
H1428 H 0.93599 0.47458 0.66629 0.0
H1429 H 0.96607 0.48059 0.67866 0.0
H1430 H 0.94248 0.49236 0.73104 0.0
H1431 H 0.91209 0.48664 0.71862 0.0
H1432 H 0.96572 0.5188 0.72009 0.0
H1433 H -0.00095 0.45217 0.71206 0.0
H1434 H 0.98843 0.45881 0.69117 0.0
H1435 H 0.97465 0.45483 0.71105 0.0
C1436 C 0.93716 0.47817 0.68052 0.0
C1437 C 0.92165 0.48016 0.69146 0.0
C1438 C 0.95441 0.48146 0.68762 0.0
C1439 C 0.95655 0.48661 0.70586 0.0
C1440 C 0.94113 0.48823 0.71697 0.0
H1441 H 0.07251 0.50225 0.72572 0.0
H1442 H 0.04138 0.49381 0.73382 0.0
C1443 C 0.9238 0.48495 0.70986 0.0
C1444 C 0.97476 0.49194 0.71253 0.0
H1445 H 0.01905 0.4786 0.71077 0.0
C1446 C 0.97737 0.50988 0.71851 0.0
C1447 C 0.98989 0.48021 0.71097 0.0
C1448 C 0.98782 0.46037 0.70616 0.0
C1449 C 0.9949 0.51686 0.72131 0.0
C1450 C 0.01013 0.50571 0.71762 0.0
C1451 C 0.00741 0.4873 0.71332 0.0
C1452 C 0.02873 0.51322 0.7157 0.0
C1453 C -0.0031 0.53627 0.72762 0.0
C1454 C 0.03197 0.52726 0.70317 0.0
C1455 C 0.04971 0.53219 0.69862 0.0
C1456 C 0.06457 0.52296 0.70626 0.0
C1457 C 0.06134 0.50957 0.71952 0.0
C1458 C 0.04356 0.50473 0.72419 0.0
H1459 H 0.9854 0.54021 0.73659 0.0
H1460 H 0.00985 0.53841 0.73507 0.0
H1461 H 0.99664 0.54544 0.71565 0.0
H1462 H 0.02081 0.53368 0.69606 0.0
H1463 H 0.05171 0.54252 0.68832 0.0
H1464 H 0.29915 0.45808 0.93278 0.0
H1465 H 0.29227 0.46642 0.96404 0.0
H1466 H 0.26362 0.51408 0.94526 0.0
H1467 H 0.27138 0.50625 0.91389 0.0
H1468 H 0.28636 0.52385 0.96892 0.0
H1469 H 0.25128 0.46496 -0.0016 0.0
H1470 H 0.27169 0.45695 0.98785 0.0
H1471 H 0.25418 0.46739 0.97416 0.0
C1472 C 0.291 0.47009 0.93528 0.0
C1473 C 0.28591 0.48159 0.92095 0.0
C1474 C 0.28689 0.47477 0.95319 0.0
C1475 C 0.27715 0.49075 0.95707 0.0
C1476 C 0.2711 0.50167 0.94263 0.0
H1477 H 0.27606 0.50952 0.07516 0.0
H1478 H 0.2634 0.50678 0.04447 0.0
C1479 C 0.27555 0.49719 0.92473 0.0
C1480 C 0.2759 0.49736 0.97609 0.0
H1481 H 0.27084 0.48222 0.01958 0.0
C1482 C 0.28246 0.51488 0.97995 0.0
C1483 C 0.27037 0.486 0.99059 0.0
C1484 C 0.26128 0.46788 0.98746 0.0
C1485 C 0.28523 0.52065 -0.00213 0.0
C1486 C 0.28199 0.50834 0.01226 0.0
C1487 C 0.27379 0.49151 0.00852 0.0
C1488 C 0.28899 0.51174 0.03081 0.0
C1489 C 0.29214 0.5397 0.00111 0.0
C1490 C 0.30756 0.51541 0.03331 0.0
C1491 C 0.31476 0.51715 0.05072 0.0
C1492 C 0.30362 0.51488 0.06605 0.0
C1493 C 0.28498 0.51134 0.06359 0.0
C1494 C 0.27773 0.50978 0.04609 0.0
H1495 H 0.28694 0.54917 0.99056 0.0
H1496 H 0.28806 0.54489 0.01469 0.0
H1497 H 0.3072 0.53976 0.0002 0.0
H1498 H 0.31665 0.51638 0.02177 0.0
H1499 H 0.32919 0.5197 0.05214 0.0
H1500 H 0.48428 0.27992 0.92074 0.0
H1501 H 0.48267 0.27324 0.95315 0.0
H1502 H 0.54026 0.26226 0.95394 0.0
H1503 H 0.54209 0.26916 0.92142 0.0
H1504 H 0.49347 0.24308 0.97609 0.0
H1505 H 0.53305 0.30661 0.98806 0.0
H1506 H 0.52308 0.30136 0.9663 0.0
H1507 H 0.5433 0.2898 0.97358 0.0
C1508 C 0.49658 0.2758 0.9277 0.0
C1509 C 0.51339 0.27538 0.91858 0.0
C1510 C 0.4956 0.2719 0.94621 0.0
C1511 C 0.51138 0.26753 0.95593 0.0
C1512 C 0.52797 0.26584 0.94666 0.0
H1513 H 0.52017 0.28067 0.07323 0.0
H1514 H 0.52746 0.27075 0.04241 0.0
C1515 C 0.52898 0.26975 0.92809 0.0
C1516 C 0.5106 0.26683 0.97598 0.0
H1517 H 0.52149 0.29166 0.01353 0.0
C1518 C 0.4998 0.25351 0.98436 0.0
C1519 C 0.51886 0.28051 0.98666 0.0
C1520 C 0.53014 0.29549 0.97827 0.0
C1521 C 0.4967 0.25377 0.00319 0.0
C1522 C 0.50431 0.26794 0.01374 0.0
C1523 C 0.5157 0.28079 0.00542 0.0
C1524 C 0.49956 0.27078 0.0331 0.0
C1525 C 0.48519 0.239 0.01154 0.0
C1526 C 0.4814 0.27379 0.03819 0.0
C1527 C 0.47717 0.27937 0.05584 0.0
C1528 C 0.49106 0.28233 0.06861 0.0
C1529 C 0.50916 0.27863 0.06367 0.0
C1530 C 0.51336 0.2729 0.04608 0.0
H1531 H 0.4858 0.22631 0.00337 0.0
H1532 H 0.48958 0.23591 0.02564 0.0
H1533 H 0.47081 0.24355 0.01191 0.0
H1534 H 0.47057 0.27271 0.02829 0.0
H1535 H 0.46311 0.28218 0.05921 0.0
H1536 H 0.72108 0.47893 0.91634 0.0
H1537 H 0.73066 0.47205 0.9474 0.0
H1538 H 0.71519 0.52604 0.96425 0.0
H1539 H 0.70589 0.5332 0.93317 0.0
H1540 H 0.74765 0.51274 0.98105 0.0
H1541 H 0.69021 0.46351 0.98497 0.0
H1542 H 0.70637 0.45969 0.96706 0.0
H1543 H 0.69236 0.4797 0.9667 0.0
C1544 C 0.71998 0.48945 0.92659 0.0
C1545 C 0.71245 0.50652 0.92237 0.0
C1546 C 0.72543 0.48547 0.94432 0.0
C1547 C 0.72328 0.49842 0.95813 0.0
C1548 C 0.71688 0.51585 0.95375 0.0
H1549 H 0.71324 0.51175 0.07081 0.0
H1550 H 0.72076 0.51455 0.03872 0.0
C1551 C 0.71153 0.51989 0.936 0.0
C1552 C 0.72598 0.49339 0.97739 0.0
H1553 H 0.70728 0.46802 0.01139 0.0
C1554 C 0.739 0.50281 0.98768 0.0
C1555 C 0.71467 0.48039 0.98595 0.0
C1556 C 0.70001 0.4703 0.9757 0.0
C1557 C 0.74068 0.49989 0.00645 0.0
C1558 C 0.72884 0.48746 0.01512 0.0
C1559 C 0.7164 0.47747 0.00468 0.0
C1560 C 0.72744 0.48611 0.03513 0.0
C1561 C 0.75492 0.51032 0.01687 0.0
C1562 C 0.72871 0.46917 0.04382 0.0
C1563 C 0.72424 0.46747 0.06222 0.0
C1564 C 0.71823 0.48267 0.07213 0.0
C1565 C 0.71778 0.49975 0.06356 0.0
C1566 C 0.72227 0.50143 0.04523 0.0
H1567 H 0.76655 0.51408 0.00799 0.0
H1568 H 0.74884 0.52309 0.02213 0.0
H1569 H 0.76011 0.50234 0.02858 0.0
H1570 H 0.73252 0.45715 0.0362 0.0
H1571 H 0.72474 0.45413 0.06843 0.0
H1572 H 0.515 0.71322 0.91917 0.0
H1573 H 0.52279 0.72185 0.95028 0.0
H1574 H 0.46786 0.71039 0.96733 0.0
H1575 H 0.45982 0.70211 0.93616 0.0
H1576 H 0.48312 0.7415 0.9841 0.0
H1577 H 0.52901 0.68145 0.98795 0.0
H1578 H 0.53396 0.6972 0.96998 0.0
H1579 H 0.51303 0.68459 0.96964 0.0
C1580 C 0.50451 0.71275 0.92949 0.0
C1581 C 0.48686 0.70672 0.92528 0.0
C1582 C 0.509 0.71765 0.94725 0.0
C1583 C 0.496 0.71638 0.96113 0.0
C1584 C 0.47811 0.71137 0.95679 0.0
H1585 H 0.48667 0.70953 0.07532 0.0
H1586 H 0.48237 0.71568 0.04307 0.0
C1587 C 0.47355 0.70661 0.93899 0.0
C1588 C 0.50129 0.71884 0.98035 0.0
H1589 H 0.52664 0.69958 0.01403 0.0
C1590 C 0.49275 0.73246 0.99064 0.0
C1591 C 0.51387 0.707 0.98881 0.0
C1592 C 0.52291 0.69163 0.97861 0.0
C1593 C 0.49626 0.73436 0.0093 0.0
C1594 C 0.50842 0.72217 0.01782 0.0
C1595 C 0.51742 0.70898 0.0074 0.0
C1596 C 0.51073 0.72149 0.03777 0.0
C1597 C 0.48681 0.74926 0.01974 0.0
C1598 C 0.52812 0.72275 0.04552 0.0
C1599 C 0.53067 0.7191 0.06398 0.0
C1600 C 0.51587 0.71393 0.07493 0.0
C1601 C 0.49836 0.71345 0.06726 0.0
C1602 C 0.49584 0.71714 0.04885 0.0
H1603 H 0.48283 0.76067 0.01067 0.0
H1604 H 0.47424 0.74372 0.02598 0.0
H1605 H 0.4956 0.75464 0.03076 0.0
H1606 H 0.53981 0.72594 0.03714 0.0
H1607 H 0.54431 0.7196 0.06948 0.0
H1608 H 0.16296 0.26421 0.52578 0.0
H1609 H 0.18592 0.24028 0.5238 0.0
H1610 H 0.22402 0.27851 0.50088 0.0
H1611 H 0.20124 0.30263 0.50303 0.0
H1612 H 0.20201 0.22861 0.49147 0.0
H1613 H 0.25394 0.25323 0.54047 0.0
H1614 H 0.23095 0.26184 0.54015 0.0
H1615 H 0.2472 0.26956 0.52362 0.0
C1616 C 0.1763 0.2676 0.52055 0.0
C1617 C 0.18029 0.28531 0.51454 0.0
C1618 C 0.18938 0.25391 0.51942 0.0
C1619 C 0.20668 0.25769 0.51235 0.0
C1620 C 0.21085 0.27542 0.50669 0.0
H1621 H 0.29979 0.18949 0.48714 0.0
H1622 H 0.27838 0.21478 0.49028 0.0
C1623 C 0.19778 0.28915 0.50785 0.0
C1624 C 0.2199 0.24279 0.5098 0.0
H1625 H 0.26204 0.22792 0.52218 0.0
C1626 C 0.21511 0.2284 0.49824 0.0
C1627 C 0.237 0.24269 0.51855 0.0
C1628 C 0.24258 0.25757 0.53152 0.0
C1629 C 0.22706 0.2139 0.49507 0.0
C1630 C 0.24408 0.21369 0.50396 0.0
C1631 C 0.24895 0.22817 0.5154 0.0
C1632 C 0.25689 0.19837 0.50186 0.0
C1633 C 0.22146 0.1991 0.482 0.0
C1634 C 0.25189 0.18085 0.50749 0.0
C1635 C 0.26402 0.16639 0.50566 0.0
C1636 C 0.28145 0.16924 0.49832 0.0
C1637 C 0.28646 0.18685 0.49282 0.0
C1638 C 0.27428 0.20131 0.49462 0.0
H1639 H 0.21047 0.2037 0.47273 0.0
H1640 H 0.23319 0.19447 0.4737 0.0
H1641 H 0.21627 0.18728 0.48981 0.0
H1642 H 0.23865 0.1784 0.51345 0.0
H1643 H 0.25978 0.15302 0.51014 0.0
H1644 H 0.70303 0.19101 0.51184 0.0
H1645 H 0.72494 0.21608 0.51152 0.0
H1646 H 0.76412 0.18167 0.4847 0.0
H1647 H 0.74249 0.1565 0.48515 0.0
H1648 H 0.77832 0.20177 0.51409 0.0
H1649 H 0.73936 0.24525 0.46601 0.0
H1650 H 0.72715 0.23784 0.48583 0.0
H1651 H 0.73437 0.22144 0.46924 0.0
C1652 C 0.71631 0.18878 0.50588 0.0
C1653 C 0.721 0.17181 0.49842 0.0
C1654 C 0.72876 0.20313 0.50564 0.0
C1655 C 0.746 0.20074 0.49786 0.0
C1656 C 0.75082 0.18376 0.4907 0.0
H1657 H 0.84173 0.26252 0.47286 0.0
H1658 H 0.81862 0.23918 0.47794 0.0
C1659 C 0.73843 0.16941 0.49095 0.0
C1660 C 0.75914 0.21589 0.49708 0.0
H1661 H 0.76667 0.25734 0.47768 0.0
C1662 C 0.77578 0.21396 0.50619 0.0
C1663 C 0.75569 0.23175 0.48678 0.0
C1664 C 0.73825 0.23423 0.47627 0.0
C1665 C 0.78918 0.22746 0.50517 0.0
C1666 C 0.78588 0.24313 0.49456 0.0
C1667 C 0.7691 0.24526 0.48579 0.0
C1668 C 0.79994 0.25718 0.49183 0.0
C1669 C 0.80671 0.22491 0.51551 0.0
C1670 C 0.79685 0.27507 0.49763 0.0
C1671 C 0.80998 0.28846 0.49467 0.0
C1672 C 0.82633 0.28417 0.48574 0.0
C1673 C 0.8293 0.26624 0.47984 0.0
C1674 C 0.81618 0.25287 0.48283 0.0
H1675 H 0.8052 0.21479 0.52662 0.0
H1676 H 0.81735 0.21988 0.50607 0.0
H1677 H 0.81146 0.23797 0.52142 0.0
H1678 H 0.78431 0.27864 0.50449 0.0
H1679 H 0.80727 0.30215 0.49936 0.0
H1680 H 0.8305 0.74007 0.51988 0.0
H1681 H 0.80414 0.75987 0.51606 0.0
H1682 H 0.76928 0.71296 0.5114 0.0
H1683 H 0.79559 0.69294 0.51534 0.0
H1684 H 0.78043 0.7591 0.48476 0.0
H1685 H 0.74401 0.74606 0.54988 0.0
H1686 H 0.76784 0.74091 0.54689 0.0
H1687 H 0.75089 0.72654 0.53684 0.0
C1688 C 0.81722 0.73393 0.51822 0.0
C1689 C 0.81513 0.71493 0.5179 0.0
C1690 C 0.8022 0.74527 0.51602 0.0
C1691 C 0.78482 0.73783 0.51357 0.0
C1692 C 0.78259 0.71891 0.51351 0.0
H1693 H 0.68289 0.79807 0.49931 0.0
H1694 H 0.70492 0.77313 0.50126 0.0
C1695 C 0.79763 0.70752 0.5157 0.0
C1696 C 0.76927 0.75004 0.51026 0.0
H1697 H 0.73043 0.76662 0.52943 0.0
C1698 C 0.76942 0.76069 0.49446 0.0
C1699 C 0.7549 0.75186 0.52287 0.0
C1700 C 0.75433 0.74085 0.54016 0.0
C1701 C 0.75574 0.77348 0.49111 0.0
C1702 C 0.74177 0.77587 0.50409 0.0
C1703 C 0.74122 0.76474 0.51956 0.0
C1704 C 0.72842 0.79076 0.50249 0.0
C1705 C 0.75641 0.78443 0.47378 0.0
C1706 C 0.73441 0.80885 0.50277 0.0
C1707 C 0.72194 0.82307 0.50167 0.0
C1708 C 0.70322 0.81945 0.5004 0.0
C1709 C 0.69723 0.80129 0.50022 0.0
C1710 C 0.70976 0.78704 0.50134 0.0
H1711 H 0.76444 0.77738 0.46309 0.0
H1712 H 0.74253 0.78709 0.46847 0.0
H1713 H 0.76304 0.7977 0.47655 0.0
H1714 H 0.74875 0.81198 0.50403 0.0
H1715 H 0.72701 0.8369 0.50193 0.0
H1716 H 0.1928 0.68116 0.47718 0.0
H1717 H 0.21617 0.70458 0.4811 0.0
H1718 H 0.17516 0.7463 0.47752 0.0
H1719 H 0.15171 0.7231 0.4736 0.0
H1720 H 0.22416 0.73649 0.45747 0.0
H1721 H 0.20195 0.75419 0.52748 0.0
H1722 H 0.19594 0.73298 0.51662 0.0
H1723 H 0.18419 0.75355 0.5107 0.0
C1724 C 0.18876 0.69532 0.4771 0.0
C1725 C 0.17039 0.70028 0.47522 0.0
C1726 C 0.20213 0.70864 0.47934 0.0
C1727 C 0.19727 0.72705 0.47985 0.0
C1728 C 0.17906 0.73209 0.4774 0.0
H1729 H 0.24641 0.83099 0.49566 0.0
H1730 H 0.22663 0.80462 0.49188 0.0
C1731 C 0.16572 0.71882 0.4751 0.0
C1732 C 0.21114 0.74112 0.48324 0.0
H1733 H 0.22347 0.77384 0.51365 0.0
C1734 C 0.22419 0.74458 0.4698 0.0
C1735 C 0.21103 0.75152 0.49938 0.0
C1736 C 0.19763 0.74784 0.51448 0.0
C1737 C 0.23678 0.75877 0.47178 0.0
C1738 C 0.23644 0.76943 0.48778 0.0
C1739 C 0.22364 0.76563 0.5014 0.0
C1740 C 0.24865 0.78517 0.49033 0.0
C1741 C 0.24986 0.76267 0.45646 0.0
C1742 C 0.26756 0.78288 0.49099 0.0
C1743 C 0.27894 0.79795 0.49309 0.0
C1744 C 0.27154 0.81551 0.49469 0.0
C1745 C 0.25255 0.81766 0.49442 0.0
C1746 C 0.24122 0.80262 0.49227 0.0
H1747 H 0.24565 0.75596 0.44361 0.0
H1748 H 0.25099 0.77753 0.45402 0.0
H1749 H 0.26354 0.7575 0.46015 0.0
H1750 H 0.27352 0.76946 0.4899 0.0
H1751 H 0.29351 0.79583 0.49337 0.0
H1752 H 0.49005 0.20524 0.30497 0.0
H1753 H 0.48703 0.2297 0.28256 0.0
H1754 H 0.48973 0.19034 0.2392 0.0
H1755 H 0.4926 0.16586 0.26137 0.0
H1756 H 0.51164 0.23853 0.2542 0.0
H1757 H 0.44367 0.21993 0.22748 0.0
H1758 H 0.45229 0.2114 0.24882 0.0
H1759 H 0.45946 0.20131 0.22775 0.0
C1760 C 0.48993 0.20179 0.29066 0.0
C1761 C 0.49149 0.18361 0.28494 0.0
C1762 C 0.48819 0.21577 0.27791 0.0
C1763 C 0.48784 0.21174 0.2593 0.0
C1764 C 0.48958 0.19365 0.25354 0.0
H1765 H 0.49062 0.26309 0.15604 0.0
H1766 H 0.48914 0.24305 0.18244 0.0
C1767 C 0.49134 0.1797 0.26624 0.0
C1768 C 0.48639 0.22643 0.24572 0.0
H1769 H 0.46121 0.24056 0.20946 0.0
C1770 C 0.50051 0.23919 0.24456 0.0
C1771 C 0.47179 0.22719 0.23325 0.0
C1772 C 0.45584 0.21434 0.23445 0.0
C1773 C 0.50087 0.25221 0.23065 0.0
C1774 C 0.48659 0.25255 0.2178 0.0
C1775 C 0.47216 0.24017 0.21933 0.0
C1776 C 0.48693 0.2649 0.202 0.0
C1777 C 0.5169 0.26496 0.2293 0.0
C1778 C 0.48591 0.28379 0.20432 0.0
C1779 C 0.48677 0.29531 0.18925 0.0
C1780 C 0.48861 0.28807 0.17166 0.0
C1781 C 0.48927 0.2691 0.16941 0.0
C1782 C 0.48839 0.25762 0.18446 0.0
H1783 H 0.52832 0.26068 0.2382 0.0
H1784 H 0.52189 0.26574 0.21507 0.0
H1785 H 0.51261 0.27881 0.23348 0.0
H1786 H 0.48449 0.28961 0.21777 0.0
H1787 H 0.48613 0.30986 0.19142 0.0
H1788 H 0.79918 0.54 0.29803 0.0
H1789 H 0.77653 0.53966 0.27363 0.0
H1790 H 0.81671 0.51842 0.23656 0.0
H1791 H 0.83945 0.51904 0.26063 0.0
H1792 H 0.79611 0.54592 0.22162 0.0
H1793 H 0.75256 0.4934 0.25422 0.0
H1794 H 0.75674 0.51329 0.26776 0.0
H1795 H 0.77526 0.49842 0.26204 0.0
C1796 C 0.8032 0.53533 0.28466 0.0
C1797 C 0.82107 0.52944 0.28129 0.0
C1798 C 0.79023 0.53505 0.27079 0.0
C1799 C 0.79491 0.52873 0.25341 0.0
C1800 C 0.81283 0.52329 0.24991 0.0
H1801 H 0.73 0.48654 0.16646 0.0
H1802 H 0.75022 0.49191 0.19224 0.0
C1803 C 0.8258 0.52363 0.26371 0.0
C1804 C 0.7812 0.52749 0.23879 0.0
H1805 H 0.74232 0.50547 0.22634 0.0
C1806 C 0.78428 0.53716 0.22265 0.0
C1807 C 0.76595 0.51587 0.24018 0.0
C1808 C 0.76244 0.50451 0.2569 0.0
C1809 C 0.7726 0.53536 0.20771 0.0
C1810 C 0.75726 0.52386 0.20915 0.0
C1811 C 0.75406 0.51436 0.22537 0.0
C1812 C 0.74483 0.5208 0.19369 0.0
C1813 C 0.77716 0.54527 0.19033 0.0
C1814 C 0.73498 0.53526 0.18611 0.0
C1815 C 0.72352 0.53227 0.17129 0.0
C1816 C 0.72157 0.51472 0.16395 0.0
C1817 C 0.73123 0.50022 0.17178 0.0
C1818 C 0.74276 0.50325 0.18652 0.0
H1819 H 0.79153 0.5499 0.19009 0.0
H1820 H 0.77472 0.53646 0.17832 0.0
H1821 H 0.76833 0.55744 0.1891 0.0
H1822 H 0.73612 0.54884 0.1917 0.0
H1823 H 0.71613 0.54369 0.16567 0.0
H1824 H 0.5136 0.73803 0.15969 0.0
H1825 H 0.51051 0.76011 0.18429 0.0
H1826 H 0.50892 0.71651 0.22343 0.0
H1827 H 0.51215 0.69426 0.19892 0.0
H1828 H 0.48042 0.7609 0.20881 0.0
H1829 H 0.54655 0.75275 0.24456 0.0
H1830 H 0.54299 0.74512 0.2215 0.0
H1831 H 0.53417 0.73212 0.24018 0.0
C1832 C 0.51283 0.73312 0.17354 0.0
C1833 C 0.51308 0.71439 0.17736 0.0
C1834 C 0.51104 0.74576 0.18756 0.0
C1835 C 0.50962 0.73991 0.20563 0.0
C1836 C 0.51028 0.72127 0.20957 0.0
H1837 H 0.4929 0.7996 0.30634 0.0
H1838 H 0.49652 0.77567 0.28352 0.0
C1839 C 0.51205 0.70859 0.19554 0.0
C1840 C 0.5063 0.75332 0.22017 0.0
H1841 H 0.52479 0.77201 0.25834 0.0
C1842 C 0.49011 0.76337 0.21964 0.0
C1843 C 0.51894 0.75632 0.23431 0.0
C1844 C 0.53672 0.74613 0.2352 0.0
C1845 C 0.48618 0.77642 0.23294 0.0
C1846 C 0.49896 0.77969 0.2469 0.0
C1847 C 0.51504 0.76944 0.24759 0.0
C1848 C 0.49616 0.79409 0.26061 0.0
C1849 C 0.46828 0.78642 0.23206 0.0
C1850 C 0.49485 0.81233 0.25522 0.0
C1851 C 0.49272 0.82601 0.26818 0.0
C1852 C 0.49204 0.82168 0.28678 0.0
C1853 C 0.49334 0.80337 0.29212 0.0
C1854 C 0.49544 0.78969 0.27913 0.0
H1855 H 0.45808 0.77888 0.22386 0.0
H1856 H 0.46264 0.78872 0.24587 0.0
H1857 H 0.47044 0.79987 0.22556 0.0
H1858 H 0.49574 0.81602 0.241 0.0
H1859 H 0.49188 0.83999 0.26363 0.0
H1860 H 0.18488 0.50498 0.28922 0.0
H1861 H 0.20772 0.51269 0.26637 0.0
H1862 H 0.18191 0.47645 0.22818 0.0
H1863 H 0.1588 0.46885 0.25084 0.0
H1864 H 0.232 0.49023 0.24848 0.0
H1865 H 0.18543 0.52428 0.19992 0.0
H1866 H 0.179 0.51919 0.22305 0.0
H1867 H 0.17847 0.50168 0.206 0.0
C1868 C 0.18403 0.49865 0.27596 0.0
C1869 C 0.16997 0.48638 0.27179 0.0
C1870 C 0.19709 0.50308 0.26294 0.0
C1871 C 0.19628 0.49537 0.24554 0.0
C1872 C 0.1825 0.48285 0.24143 0.0
H1873 H 0.28005 0.48677 0.16477 0.0
H1874 H 0.25798 0.48216 0.18909 0.0
C1875 C 0.16939 0.47843 0.25443 0.0
C1876 C 0.2101 0.50018 0.2318 0.0
H1877 H 0.21535 0.51783 0.18926 0.0
C1878 C 0.2284 0.49637 0.23557 0.0
C1879 C 0.20535 0.50847 0.21513 0.0
C1880 C 0.18602 0.51382 0.21081 0.0
C1881 C 0.24207 0.50015 0.22285 0.0
C1882 C 0.2372 0.50762 0.20584 0.0
C1883 C 0.21898 0.51194 0.20227 0.0
C1884 C 0.25076 0.51059 0.19134 0.0
C1885 C 0.26159 0.49619 0.22777 0.0
C1886 C 0.25365 0.52806 0.18427 0.0
C1887 C 0.26617 0.53075 0.17025 0.0
C1888 C 0.2759 0.51596 0.16303 0.0
C1889 C 0.27286 0.49847 0.1701 0.0
C1890 C 0.26034 0.4958 0.18408 0.0
H1891 H 0.26351 0.49554 0.24273 0.0
H1892 H 0.26555 0.48283 0.222 0.0
H1893 H 0.27086 0.5067 0.22215 0.0
H1894 H 0.24626 0.53962 0.18965 0.0
H1895 H 0.26819 0.54439 0.16506 0.0
H1896 H 0.51085 0.69312 0.80162 0.0
H1897 H 0.51099 0.71608 0.77752 0.0
H1898 H 0.48798 0.75529 0.81453 0.0
H1899 H 0.48785 0.73256 0.83871 0.0
H1900 H 0.48021 0.73599 0.76395 0.0
H1901 H 0.53327 0.78109 0.79313 0.0
H1902 H 0.5302 0.75782 0.80036 0.0
H1903 H 0.51522 0.77531 0.80853 0.0
C1904 C 0.50589 0.70665 0.80466 0.0
C1905 C 0.4994 0.71105 0.82209 0.0
C1906 C 0.50597 0.71972 0.79087 0.0
C1907 C 0.49973 0.73739 0.79437 0.0
C1908 C 0.49315 0.74179 0.81169 0.0
H1909 H 0.48299 0.83682 0.73573 0.0
H1910 H 0.48535 0.8123 0.758 0.0
C1911 C 0.493 0.72875 0.82545 0.0
C1912 C 0.49959 0.75116 0.77979 0.0
H1913 H 0.51633 0.79283 0.76824 0.0
C1914 C 0.48821 0.74836 0.76475 0.0
C1915 C 0.51005 0.76722 0.78098 0.0
C1916 C 0.52301 0.77053 0.79653 0.0
C1917 C 0.48656 0.76156 0.7511 0.0
C1918 C 0.49683 0.77776 0.75243 0.0
C1919 C 0.50845 0.78039 0.76732 0.0
C1920 C 0.49537 0.79241 0.73878 0.0
C1921 C 0.47339 0.75832 0.73571 0.0
C1922 C 0.50041 0.78935 0.72065 0.0
C1923 C 0.49901 0.80331 0.70786 0.0
C1924 C 0.4927 0.8206 0.71305 0.0
C1925 C 0.48786 0.82365 0.73129 0.0
C1926 C 0.48922 0.80967 0.74403 0.0
H1927 H 0.46351 0.74736 0.73895 0.0
H1928 H 0.46574 0.77092 0.73244 0.0
H1929 H 0.48107 0.75418 0.72341 0.0
H1930 H 0.50553 0.7762 0.71643 0.0
H1931 H 0.50296 0.80056 0.69395 0.0
H1932 H 0.30135 0.47731 0.79574 0.0
H1933 H 0.27947 0.48053 0.77078 0.0
H1934 H 0.23852 0.49822 0.80881 0.0
H1935 H 0.2601 0.49507 0.83375 0.0
H1936 H 0.24269 0.46355 0.76806 0.0
H1937 H 0.24208 0.53908 0.76893 0.0
H1938 H 0.26034 0.52583 0.77865 0.0
H1939 H 0.23929 0.52847 0.79076 0.0
C1940 C 0.28767 0.48184 0.79878 0.0
C1941 C 0.28247 0.48604 0.81669 0.0
C1942 C 0.27523 0.48366 0.78453 0.0
C1943 C 0.25755 0.48985 0.78802 0.0
C1944 C 0.25223 0.49368 0.80588 0.0
H1945 H 0.15744 0.51383 0.7356 0.0
H1946 H 0.18355 0.50977 0.75568 0.0
C1947 C 0.26457 0.4918 0.82011 0.0
C1948 C 0.24444 0.49231 0.7731 0.0
H1949 H 0.21849 0.52452 0.75225 0.0
C1950 C 0.23753 0.47686 0.76436 0.0
C1951 C 0.23785 0.50973 0.76844 0.0
C1952 C 0.24535 0.52677 0.77705 0.0
C1953 C 0.22346 0.47832 0.75158 0.0
C1954 C 0.21648 0.49572 0.74731 0.0
C1955 C 0.22385 0.51121 0.75564 0.0
C1956 C 0.20088 0.49814 0.73494 0.0
C1957 C 0.21564 0.46121 0.74339 0.0
C1958 C 0.20211 0.49313 0.7166 0.0
C1959 C 0.18719 0.49536 0.7051 0.0
C1960 C 0.17086 0.50278 0.71175 0.0
C1961 C 0.1698 0.50805 0.73007 0.0
C1962 C 0.1847 0.50576 0.74156 0.0
H1963 H 0.21983 0.44886 0.751 0.0
H1964 H 0.20056 0.46182 0.74309 0.0
H1965 H 0.22054 0.45982 0.72919 0.0
H1966 H 0.21462 0.48756 0.71118 0.0
H1967 H 0.18847 0.49129 0.69101 0.0
H1968 H 0.519 0.1672 0.71637 0.0
H1969 H 0.51887 0.19281 0.73749 0.0
H1970 H 0.46101 0.19883 0.73018 0.0
H1971 H 0.46091 0.17301 0.70919 0.0
H1972 H 0.50759 0.22902 0.73256 0.0
H1973 H 0.46698 0.19336 0.78545 0.0
H1974 H 0.47731 0.18155 0.76659 0.0
H1975 H 0.45675 0.19431 0.7633 0.0
C1976 C 0.50623 0.17397 0.71922 0.0
C1977 C 0.48993 0.16797 0.71123 0.0
C1978 C 0.5062 0.18863 0.73125 0.0
C1979 C 0.48991 0.19753 0.73553 0.0
C1980 C 0.47368 0.19191 0.72725 0.0
H1981 H 0.48419 0.2984 0.7986 0.0
H1982 H 0.48194 0.27603 0.77405 0.0
C1983 C 0.47367 0.1772 0.71523 0.0
C1984 C 0.48997 0.21241 0.749 0.0
H1985 H 0.47498 0.22384 0.79136 0.0
C1986 C 0.5004 0.22798 0.74539 0.0
C1987 C 0.4807 0.21084 0.76576 0.0
C1988 C 0.46991 0.19407 0.77065 0.0
C1989 C 0.50195 0.24201 0.75822 0.0
C1990 C 0.49262 0.24045 0.77493 0.0
C1991 C 0.48203 0.22498 0.77845 0.0
C1992 C 0.49437 0.25425 0.78942 0.0
C1993 C 0.51401 0.25807 0.75404 0.0
C1994 C 0.5019 0.2493 0.8062 0.0
C1995 C 0.5031 0.26197 0.82024 0.0
C1996 C 0.49673 0.27982 0.81778 0.0
C1997 C 0.4893 0.28478 0.80089 0.0
C1998 C 0.48807 0.27206 0.78683 0.0
H1999 H 0.52321 0.25535 0.74237 0.0
H2000 H 0.50541 0.26997 0.75055 0.0
H2001 H 0.52239 0.26175 0.76604 0.0
H2002 H 0.50681 0.2356 0.80844 0.0
H2003 H 0.50891 0.2577 0.83308 0.0
H2004 H 0.69088 0.51452 0.79884 0.0
H2005 H 0.71123 0.51184 0.7726 0.0
H2006 H 0.75211 0.48726 0.80664 0.0
H2007 H 0.73195 0.48977 0.83287 0.0
H2008 H 0.74757 0.52638 0.76886 0.0
H2009 H 0.7456 0.45111 0.7638 0.0
H2010 H 0.72879 0.46402 0.77622 0.0
H2011 H 0.75066 0.45954 0.78615 0.0
C2012 C 0.70419 0.50852 0.80073 0.0
C2013 C 0.70977 0.50226 0.81791 0.0
C2014 C 0.71577 0.50702 0.78574 0.0
C2015 C 0.73299 0.4991 0.78769 0.0
C2016 C 0.73871 0.4931 0.80484 0.0
H2017 H 0.82927 0.47756 0.7272 0.0
H2018 H 0.80456 0.48038 0.74918 0.0
C2019 C 0.7272 0.49465 0.81982 0.0
C2020 C 0.74528 0.49737 0.77194 0.0
H2021 H 0.76887 0.4662 0.74701 0.0
C2022 C 0.75208 0.51326 0.76388 0.0
C2023 C 0.75104 0.48019 0.76554 0.0
C2024 C 0.74354 0.46272 0.77325 0.0
C2025 C 0.7652 0.51241 0.75006 0.0
C2026 C 0.77135 0.49522 0.74403 0.0
C2027 C 0.76413 0.47934 0.75173 0.0
C2028 C 0.78601 0.49339 0.73044 0.0
C2029 C 0.77293 0.52988 0.74257 0.0
C2030 C 0.78361 0.49956 0.71258 0.0
C2031 C 0.79773 0.49799 0.69996 0.0
C2032 C 0.81442 0.49015 0.70503 0.0
C2033 C 0.81661 0.48371 0.72287 0.0
C2034 C 0.80251 0.48529 0.73545 0.0
H2035 H 0.76946 0.54178 0.75121 0.0
H2036 H 0.78795 0.52899 0.74135 0.0
H2037 H 0.76729 0.5323 0.7288 0.0
H2038 H 0.77083 0.50556 0.7084 0.0
H2039 H 0.79559 0.503 0.68629 0.0
loop_
_geom_bond_atom_site_label_1
_geom_bond_atom_site_label_2
_geom_bond_distance
_geom_bond_site_symmetry_2
_ccdc_geom_bond_type
C0 O1 1.160 . S
C0 O7 1.185 . S
O1 C0 1.160 . S
O2 Zn3 1.899 . S
O2 C10 1.284 . S
Zn3 O2 1.899 . S
Zn3 O4 2.032 . S
Zn3 O7 2.086 . S
Zn3 O12 1.977 . S
O4 Zn3 2.032 . S
O4 C8 1.278 . S
C5 O6 1.203 . S
C5 O12 1.267 . S
O6 C5 1.203 . S
O7 C0 1.185 . S
O7 Zn3 2.086 . S
C8 O4 1.278 . S
C8 O9 1.211 . S
O9 C8 1.211 . S
C10 O2 1.284 . S
C10 O11 1.273 . S
O11 C10 1.273 . S
O12 Zn3 1.977 . S
O12 C5 1.267 . S
C13 O14 1.160 . S
C13 O20 1.185 . S
O14 C13 1.160 . S
O15 Zn16 1.899 . S
O15 C23 1.284 . S
Zn16 O15 1.899 . S
Zn16 O17 2.032 . S
Zn16 O20 2.086 . S
Zn16 O25 1.977 . S
O17 Zn16 2.032 . S
O17 C21 1.278 . S
C18 O19 1.203 . S
C18 O25 1.267 . S
O19 C18 1.203 . S
O20 C13 1.185 . S
O20 Zn16 2.086 . S
C21 O17 1.278 . S
C21 O22 1.211 . S
O22 C21 1.211 . S
C23 O15 1.284 . S
C23 O24 1.273 . S
O24 C23 1.273 . S
O25 Zn16 1.977 . S
O25 C18 1.267 . S
C26 O27 1.160 . S
C26 O33 1.185 . S
O27 C26 1.160 . S
O28 Zn29 1.899 . S
O28 C36 1.284 . S
Zn29 O28 1.899 . S
Zn29 O30 2.032 . S
Zn29 O33 2.086 . S
Zn29 O38 1.977 . S
O30 Zn29 2.032 . S
O30 C34 1.278 . S
C31 O32 1.203 . S
C31 O38 1.267 . S
O32 C31 1.203 . S
O33 C26 1.185 . S
O33 Zn29 2.086 . S
C34 O30 1.278 . S
C34 O35 1.211 . S
O35 C34 1.211 . S
C36 O28 1.284 . S
C36 O37 1.273 . S
O37 C36 1.273 . S
O38 Zn29 1.977 . S
O38 C31 1.267 . S
C39 O40 1.160 . S
C39 O46 1.185 . S
O40 C39 1.160 . S
O41 Zn42 1.899 . S
O41 C49 1.284 . S
Zn42 O41 1.899 . S
Zn42 O43 2.032 . S
Zn42 O46 2.086 . S
Zn42 O51 1.977 . S
O43 Zn42 2.032 . S
O43 C47 1.278 . S
C44 O45 1.203 . S
C44 O51 1.267 . S
O45 C44 1.203 . S
O46 C39 1.185 . S
O46 Zn42 2.086 . S
C47 O43 1.278 . S
C47 O48 1.211 . S
O48 C47 1.211 . S
C49 O41 1.284 . S
C49 O50 1.273 . S
O50 C49 1.273 . S
O51 Zn42 1.977 . S
O51 C44 1.267 . S
C52 O53 1.160 . S
C52 O59 1.185 . S
O53 C52 1.160 . S
O54 Zn55 1.899 . S
O54 C62 1.284 . S
Zn55 O54 1.899 . S
Zn55 O56 2.032 . S
Zn55 O59 2.086 . S
Zn55 O64 1.977 . S
O56 Zn55 2.032 . S
O56 C60 1.278 . S
C57 O58 1.203 . S
C57 O64 1.267 . S
O58 C57 1.203 . S
O59 C52 1.185 . S
O59 Zn55 2.086 . S
C60 O56 1.278 . S
C60 O61 1.211 . S
O61 C60 1.211 . S
C62 O54 1.284 . S
C62 O63 1.273 . S
O63 C62 1.273 . S
O64 Zn55 1.977 . S
O64 C57 1.267 . S
C65 O66 1.160 . S
C65 O72 1.185 . S
O66 C65 1.160 . S
O67 Zn68 1.899 . S
O67 C75 1.284 . S
Zn68 O67 1.899 . S
Zn68 O69 2.032 . S
Zn68 O72 2.086 . S
Zn68 O77 1.977 . S
O69 Zn68 2.032 . S
O69 C73 1.278 . S
C70 O71 1.203 . S
C70 O77 1.267 . S
O71 C70 1.203 . S
O72 C65 1.185 . S
O72 Zn68 2.086 . S
C73 O69 1.278 . S
C73 O74 1.211 . S
O74 C73 1.211 . S
C75 O67 1.284 . S
C75 O76 1.273 . S
O76 C75 1.273 . S
O77 Zn68 1.977 . S
O77 C70 1.267 . S
C78 O79 1.160 . S
C78 O85 1.185 . S
O79 C78 1.160 . S
O80 Zn81 1.899 . S
O80 C88 1.284 . S
Zn81 O80 1.899 . S
Zn81 O82 2.032 . S
Zn81 O85 2.086 . S
Zn81 O90 1.977 . S
O82 Zn81 2.032 . S
O82 C86 1.278 . S
C83 O84 1.203 . S
C83 O90 1.267 . S
O84 C83 1.203 . S
O85 C78 1.185 . S
O85 Zn81 2.086 . S
C86 O82 1.278 . S
C86 O87 1.211 . S
O87 C86 1.211 . S
C88 O80 1.284 . S
C88 O89 1.273 . S
O89 C88 1.273 . S
O90 Zn81 1.977 . S
O90 C83 1.267 . S
C91 O92 1.160 . S
C91 O98 1.185 . S
O92 C91 1.160 . S
O93 Zn94 1.899 . S
O93 C101 1.284 . S
Zn94 O93 1.899 . S
Zn94 O95 2.032 . S
Zn94 O98 2.086 . S
Zn94 O103 1.977 . S
O95 Zn94 2.032 . S
O95 C99 1.278 . S
C96 O97 1.203 . S
C96 O103 1.267 . S
O97 C96 1.203 . S
O98 C91 1.185 . S
O98 Zn94 2.086 . S
C99 O95 1.278 . S
C99 O100 1.211 . S
O100 C99 1.211 . S
C101 O93 1.284 . S
C101 O102 1.273 . S
O102 C101 1.273 . S
O103 Zn94 1.977 . S
O103 C96 1.267 . S
C104 O105 1.160 . S
C104 O111 1.185 . S
O105 C104 1.160 . S
O106 Zn107 1.899 . S
O106 C114 1.284 . S
Zn107 O106 1.899 . S
Zn107 O108 2.032 . S
Zn107 O111 2.086 . S
Zn107 O116 1.977 . S
O108 Zn107 2.032 . S
O108 C112 1.278 . S
C109 O110 1.203 . S
C109 O116 1.267 . S
O110 C109 1.203 . S
O111 C104 1.185 . S
O111 Zn107 2.086 . S
C112 O108 1.278 . S
C112 O113 1.211 . S
O113 C112 1.211 . S
C114 O106 1.284 . S
C114 O115 1.273 . S
O115 C114 1.273 . S
O116 Zn107 1.977 . S
O116 C109 1.267 . S
C117 O118 1.160 . S
C117 O124 1.185 . S
O118 C117 1.160 . S
O119 Zn120 1.899 . S
O119 C127 1.284 . S
Zn120 O119 1.899 . S
Zn120 O121 2.032 . S
Zn120 O124 2.086 . S
Zn120 O129 1.977 . S
O121 Zn120 2.032 . S
O121 C125 1.278 . S
C122 O123 1.203 . S
C122 O129 1.267 . S
O123 C122 1.203 . S
O124 C117 1.185 . S
O124 Zn120 2.086 . S
C125 O121 1.278 . S
C125 O126 1.211 . S
O126 C125 1.211 . S
C127 O119 1.284 . S
C127 O128 1.273 . S
O128 C127 1.273 . S
O129 Zn120 1.977 . S
O129 C122 1.267 . S
C130 O131 1.160 . S
C130 O137 1.185 . S
O131 C130 1.160 . S
O132 Zn133 1.899 . S
O132 C140 1.284 . S
Zn133 O132 1.899 . S
Zn133 O134 2.032 . S
Zn133 O137 2.086 . S
Zn133 O142 1.977 . S
O134 Zn133 2.032 . S
O134 C138 1.278 . S
C135 O136 1.203 . S
C135 O142 1.267 . S
O136 C135 1.203 . S
O137 C130 1.185 . S
O137 Zn133 2.086 . S
C138 O134 1.278 . S
C138 O139 1.211 . S
O139 C138 1.211 . S
C140 O132 1.284 . S
C140 O141 1.273 . S
O141 C140 1.273 . S
O142 Zn133 1.977 . S
O142 C135 1.267 . S
C143 O144 1.160 . S
C143 O150 1.185 . S
O144 C143 1.160 . S
O145 Zn146 1.899 . S
O145 C153 1.284 . S
Zn146 O145 1.899 . S
Zn146 O147 2.032 . S
Zn146 O150 2.086 . S
Zn146 O155 1.977 . S
O147 Zn146 2.032 . S
O147 C151 1.278 . S
C148 O149 1.203 . S
C148 O155 1.267 . S
O149 C148 1.203 . S
O150 C143 1.185 . S
O150 Zn146 2.086 . S
C151 O147 1.278 . S
C151 O152 1.211 . S
O152 C151 1.211 . S
C153 O145 1.284 . S
C153 O154 1.273 . S
O154 C153 1.273 . S
O155 Zn146 1.977 . S
O155 C148 1.267 . S
C156 O157 1.160 . S
C156 O163 1.185 . S
O157 C156 1.160 . S
O158 Zn159 1.899 . S
O158 C166 1.284 . S
Zn159 O158 1.899 . S
Zn159 O160 2.032 . S
Zn159 O163 2.086 . S
Zn159 O168 1.977 . S
O160 Zn159 2.032 . S
O160 C164 1.278 . S
C161 O162 1.203 . S
C161 O168 1.267 . S
O162 C161 1.203 . S
O163 C156 1.185 . S
O163 Zn159 2.086 . S
C164 O160 1.278 . S
C164 O165 1.211 . S
O165 C164 1.211 . S
C166 O158 1.284 . S
C166 O167 1.273 . S
O167 C166 1.273 . S
O168 Zn159 1.977 . S
O168 C161 1.267 . S
C169 O170 1.160 . S
C169 O176 1.185 . S
O170 C169 1.160 . S
O171 Zn172 1.899 . S
O171 C179 1.284 . S
Zn172 O171 1.899 . S
Zn172 O173 2.032 . S
Zn172 O176 2.086 . S
Zn172 O181 1.977 . S
O173 Zn172 2.032 . S
O173 C177 1.278 . S
C174 O175 1.203 . S
C174 O181 1.267 . S
O175 C174 1.203 . S
O176 C169 1.185 . S
O176 Zn172 2.086 . S
C177 O173 1.278 . S
C177 O178 1.211 . S
O178 C177 1.211 . S
C179 O171 1.284 . S
C179 O180 1.273 . S
O180 C179 1.273 . S
O181 Zn172 1.977 . S
O181 C174 1.267 . S
C182 O183 1.160 . S
C182 O189 1.185 . S
O183 C182 1.160 . S
O184 Zn185 1.899 . S
O184 C192 1.284 . S
Zn185 O184 1.899 . S
Zn185 O186 2.032 . S
Zn185 O189 2.086 . S
Zn185 O194 1.977 . S
O186 Zn185 2.032 . S
O186 C190 1.278 . S
C187 O188 1.203 . S
C187 O194 1.267 . S
O188 C187 1.203 . S
O189 C182 1.185 . S
O189 Zn185 2.086 . S
C190 O186 1.278 . S
C190 O191 1.211 . S
O191 C190 1.211 . S
C192 O184 1.284 . S
C192 O193 1.273 . S
O193 C192 1.273 . S
O194 Zn185 1.977 . S
O194 C187 1.267 . S
C195 O196 1.160 . S
C195 O202 1.185 . S
O196 C195 1.160 . S
O197 Zn198 1.899 . S
O197 C205 1.284 . S
Zn198 O197 1.899 . S
Zn198 O199 2.032 . S
Zn198 O202 2.086 . S
Zn198 O207 1.977 . S
O199 Zn198 2.032 . S
O199 C203 1.278 . S
C200 O201 1.203 . S
C200 O207 1.267 . S
O201 C200 1.203 . S
O202 C195 1.185 . S
O202 Zn198 2.086 . S
C203 O199 1.278 . S
C203 O204 1.211 . S
O204 C203 1.211 . S
C205 O197 1.284 . S
C205 O206 1.273 . S
O206 C205 1.273 . S
O207 Zn198 1.977 . S
O207 C200 1.267 . S
C208 O209 1.160 . S
C208 O215 1.185 . S
O209 C208 1.160 . S
O210 Zn211 1.899 . S
O210 C218 1.284 . S
Zn211 O210 1.899 . S
Zn211 O212 2.032 . S
Zn211 O215 2.086 . S
Zn211 O220 1.977 . S
O212 Zn211 2.032 . S
O212 C216 1.278 . S
C213 O214 1.203 . S
C213 O220 1.267 . S
O214 C213 1.203 . S
O215 C208 1.185 . S
O215 Zn211 2.086 . S
C216 O212 1.278 . S
C216 O217 1.211 . S
O217 C216 1.211 . S
C218 O210 1.284 . S
C218 O219 1.273 . S
O219 C218 1.273 . S
O220 Zn211 1.977 . S
O220 C213 1.267 . S
C221 O222 1.160 . S
C221 O228 1.185 . S
O222 C221 1.160 . S
O223 Zn224 1.899 . S
O223 C231 1.284 . S
Zn224 O223 1.899 . S
Zn224 O225 2.032 . S
Zn224 O228 2.086 . S
Zn224 O233 1.977 . S
O225 Zn224 2.032 . S
O225 C229 1.278 . S
C226 O227 1.203 . S
C226 O233 1.267 . S
O227 C226 1.203 . S
O228 C221 1.185 . S
O228 Zn224 2.086 . S
C229 O225 1.278 . S
C229 O230 1.211 . S
O230 C229 1.211 . S
C231 O223 1.284 . S
C231 O232 1.273 . S
O232 C231 1.273 . S
O233 Zn224 1.977 . S
O233 C226 1.267 . S
C234 O235 1.160 . S
C234 O241 1.185 . S
O235 C234 1.160 . S
O236 Zn237 1.899 . S
O236 C244 1.284 . S
Zn237 O236 1.899 . S
Zn237 O238 2.032 . S
Zn237 O241 2.086 . S
Zn237 O246 1.977 . S
O238 Zn237 2.032 . S
O238 C242 1.278 . S
C239 O240 1.203 . S
C239 O246 1.267 . S
O240 C239 1.203 . S
O241 C234 1.185 . S
O241 Zn237 2.086 . S
C242 O238 1.278 . S
C242 O243 1.211 . S
O243 C242 1.211 . S
C244 O236 1.284 . S
C244 O245 1.273 . S
O245 C244 1.273 . S
O246 Zn237 1.977 . S
O246 C239 1.267 . S
C247 O248 1.160 . S
C247 O254 1.185 . S
O248 C247 1.160 . S
O249 Zn250 1.899 . S
O249 C257 1.284 . S
Zn250 O249 1.899 . S
Zn250 O251 2.032 . S
Zn250 O254 2.086 . S
Zn250 O259 1.977 . S
O251 Zn250 2.032 . S
O251 C255 1.278 . S
C252 O253 1.203 . S
C252 O259 1.267 . S
O253 C252 1.203 . S
O254 C247 1.185 . S
O254 Zn250 2.086 . S
C255 O251 1.278 . S
C255 O256 1.211 . S
O256 C255 1.211 . S
C257 O249 1.284 . S
C257 O258 1.273 . S
O258 C257 1.273 . S
O259 Zn250 1.977 . S
O259 C252 1.267 . S
C260 O261 1.160 . S
C260 O267 1.185 . S
O261 C260 1.160 . S
O262 Zn263 1.899 . S
O262 C270 1.284 . S
Zn263 O262 1.899 . S
Zn263 O264 2.032 . S
Zn263 O267 2.086 . S
Zn263 O272 1.977 . S
O264 Zn263 2.032 . S
O264 C268 1.278 . S
C265 O266 1.203 . S
C265 O272 1.267 . S
O266 C265 1.203 . S
O267 C260 1.185 . S
O267 Zn263 2.086 . S
C268 O264 1.278 . S
C268 O269 1.211 . S
O269 C268 1.211 . S
C270 O262 1.284 . S
C270 O271 1.273 . S
O271 C270 1.273 . S
O272 Zn263 1.977 . S
O272 C265 1.267 . S
C273 O274 1.160 . S
C273 O280 1.185 . S
O274 C273 1.160 . S
O275 Zn276 1.899 . S
O275 C283 1.284 . S
Zn276 O275 1.899 . S
Zn276 O277 2.032 . S
Zn276 O280 2.086 . S
Zn276 O285 1.977 . S
O277 Zn276 2.032 . S
O277 C281 1.278 . S
C278 O279 1.203 . S
C278 O285 1.267 . S
O279 C278 1.203 . S
O280 C273 1.185 . S
O280 Zn276 2.086 . S
C281 O277 1.278 . S
C281 O282 1.211 . S
O282 C281 1.211 . S
C283 O275 1.284 . S
C283 O284 1.273 . S
O284 C283 1.273 . S
O285 Zn276 1.977 . S
O285 C278 1.267 . S
C286 O287 1.160 . S
C286 O293 1.185 . S
O287 C286 1.160 . S
O288 Zn289 1.899 . S
O288 C296 1.284 . S
Zn289 O288 1.899 . S
Zn289 O290 2.032 . S
Zn289 O293 2.086 . S
Zn289 O298 1.977 . S
O290 Zn289 2.032 . S
O290 C294 1.278 . S
C291 O292 1.203 . S
C291 O298 1.267 . S
O292 C291 1.203 . S
O293 C286 1.185 . S
O293 Zn289 2.086 . S
C294 O290 1.278 . S
C294 O295 1.211 . S
O295 C294 1.211 . S
C296 O288 1.284 . S
C296 O297 1.273 . S
O297 C296 1.273 . S
O298 Zn289 1.977 . S
O298 C291 1.267 . S
C299 O300 1.160 . S
C299 O306 1.185 . S
O300 C299 1.160 . S
O301 Zn302 1.899 . S
O301 C309 1.284 . S
Zn302 O301 1.899 . S
Zn302 O303 2.032 . S
Zn302 O306 2.086 . S
Zn302 O311 1.977 . S
O303 Zn302 2.032 . S
O303 C307 1.278 . S
C304 O305 1.203 . S
C304 O311 1.267 . S
O305 C304 1.203 . S
O306 C299 1.185 . S
O306 Zn302 2.086 . S
C307 O303 1.278 . S
C307 O308 1.211 . S
O308 C307 1.211 . S
C309 O301 1.284 . S
C309 O310 1.273 . S
O310 C309 1.273 . S
O311 Zn302 1.977 . S
O311 C304 1.267 . S
H312 C320 0.929 . S
H313 C322 0.930 . S
H314 C324 0.930 . S
H315 C327 0.929 . S
H316 C330 0.930 . S
H317 C332 0.960 . S
H318 C332 0.960 . S
H319 C332 0.960 . S
C320 H312 0.929 . S
C320 C321 1.377 . S
C320 C322 1.384 . S
C321 C320 1.377 . S
C321 C327 1.390 . S
C322 H313 0.930 . S
C322 C320 1.384 . S
C322 C323 1.372 . S
C323 C322 1.372 . S
C323 C324 1.400 . S
C323 C328 1.490 . S
C324 H314 0.930 . S
C324 C323 1.400 . S
C324 C327 1.386 . S
H325 C341 0.930 . S
H326 C342 0.931 . S
C327 H315 0.929 . S
C327 C321 1.390 . S
C327 C324 1.386 . S
C328 C323 1.490 . S
C328 C330 1.395 . S
C328 C331 1.403 . S
H329 C335 0.930 . S
C330 H316 0.930 . S
C330 C328 1.395 . S
C330 C333 1.403 . S
C331 C328 1.403 . S
C331 C332 1.524 . S
C331 C335 1.400 . S
C332 H317 0.960 . S
C332 H318 0.960 . S
C332 H319 0.960 . S
C332 C331 1.524 . S
C333 C330 1.403 . S
C333 C334 1.392 . S
C333 C337 1.495 . S
C334 C333 1.392 . S
C334 C335 1.385 . S
C334 C336 1.478 . S
C335 H329 0.930 . S
C335 C331 1.400 . S
C335 C334 1.385 . S
C336 C334 1.478 . S
C336 C338 1.381 . S
C336 C342 1.383 . S
C337 C333 1.495 . S
C337 H343 0.959 . S
C337 H344 0.961 . S
C337 H345 0.960 . S
C338 C336 1.381 . S
C338 C339 1.394 . S
C338 H346 0.930 . S
C339 C338 1.394 . S
C339 C340 1.383 . S
C339 H347 0.929 . S
C340 C339 1.383 . S
C340 C341 1.377 . S
C341 H325 0.930 . S
C341 C340 1.377 . S
C341 C342 1.379 . S
C342 H326 0.931 . S
C342 C336 1.383 . S
C342 C341 1.379 . S
H343 C337 0.959 . S
H344 C337 0.961 . S
H345 C337 0.960 . S
H346 C338 0.930 . S
H347 C339 0.929 . S
H348 C356 0.929 . S
H349 C358 0.930 . S
H350 C360 0.930 . S
H351 C363 0.929 . S
H352 C366 0.930 . S
H353 C368 0.960 . S
H354 C368 0.960 . S
H355 C368 0.960 . S
C356 H348 0.929 . S
C356 C357 1.377 . S
C356 C358 1.384 . S
C357 C356 1.377 . S
C357 C363 1.390 . S
C358 H349 0.930 . S
C358 C356 1.384 . S
C358 C359 1.372 . S
C359 C358 1.372 . S
C359 C360 1.400 . S
C359 C364 1.490 . S
C360 H350 0.930 . S
C360 C359 1.400 . S
C360 C363 1.386 . S
H361 C377 0.930 . S
H362 C378 0.931 . S
C363 H351 0.929 . S
C363 C357 1.390 . S
C363 C360 1.386 . S
C364 C359 1.490 . S
C364 C366 1.395 . S
C364 C367 1.403 . S
H365 C371 0.930 . S
C366 H352 0.930 . S
C366 C364 1.395 . S
C366 C369 1.403 . S
C367 C364 1.403 . S
C367 C368 1.524 . S
C367 C371 1.400 . S
C368 H353 0.960 . S
C368 H354 0.960 . S
C368 H355 0.960 . S
C368 C367 1.524 . S
C369 C366 1.403 . S
C369 C370 1.392 . S
C369 C373 1.495 . S
C370 C369 1.392 . S
C370 C371 1.385 . S
C370 C372 1.478 . S
C371 H365 0.930 . S
C371 C367 1.400 . S
C371 C370 1.385 . S
C372 C370 1.478 . S
C372 C374 1.381 . S
C372 C378 1.383 . S
C373 C369 1.495 . S
C373 H379 0.959 . S
C373 H380 0.961 . S
C373 H381 0.960 . S
C374 C372 1.381 . S
C374 C375 1.394 . S
C374 H382 0.930 . S
C375 C374 1.394 . S
C375 C376 1.383 . S
C375 H383 0.929 . S
C376 C375 1.383 . S
C376 C377 1.377 . S
C377 H361 0.930 . S
C377 C376 1.377 . S
C377 C378 1.379 . S
C378 H362 0.931 . S
C378 C372 1.383 . S
C378 C377 1.379 . S
H379 C373 0.959 . S
H380 C373 0.961 . S
H381 C373 0.960 . S
H382 C374 0.930 . S
H383 C375 0.929 . S
H384 C392 0.929 . S
H385 C394 0.930 . S
H386 C396 0.930 . S
H387 C399 0.929 . S
H388 C402 0.930 . S
H389 C404 0.960 . S
H390 C404 0.960 . S
H391 C404 0.960 . S
C392 H384 0.929 . S
C392 C393 1.377 . S
C392 C394 1.384 . S
C393 C392 1.377 . S
C393 C399 1.390 . S
C394 H385 0.930 . S
C394 C392 1.384 . S
C394 C395 1.372 . S
C395 C394 1.372 . S
C395 C396 1.400 . S
C395 C400 1.490 . S
C396 H386 0.930 . S
C396 C395 1.400 . S
C396 C399 1.386 . S
H397 C413 0.930 . S
H398 C414 0.931 . S
C399 H387 0.929 . S
C399 C393 1.390 . S
C399 C396 1.386 . S
C400 C395 1.490 . S
C400 C402 1.395 . S
C400 C403 1.403 . S
H401 C407 0.930 . S
C402 H388 0.930 . S
C402 C400 1.395 . S
C402 C405 1.403 . S
C403 C400 1.403 . S
C403 C404 1.524 . S
C403 C407 1.400 . S
C404 H389 0.960 . S
C404 H390 0.960 . S
C404 H391 0.960 . S
C404 C403 1.524 . S
C405 C402 1.403 . S
C405 C406 1.392 . S
C405 C409 1.495 . S
C406 C405 1.392 . S
C406 C407 1.385 . S
C406 C408 1.478 . S
C407 H401 0.930 . S
C407 C403 1.400 . S
C407 C406 1.385 . S
C408 C406 1.478 . S
C408 C410 1.381 . S
C408 C414 1.383 . S
C409 C405 1.495 . S
C409 H415 0.959 . S
C409 H416 0.961 . S
C409 H417 0.960 . S
C410 C408 1.381 . S
C410 C411 1.394 . S
C410 H418 0.930 . S
C411 C410 1.394 . S
C411 C412 1.383 . S
C411 H419 0.929 . S
C412 C411 1.383 . S
C412 C413 1.377 . S
C413 H397 0.930 . S
C413 C412 1.377 . S
C413 C414 1.379 . S
C414 H398 0.931 . S
C414 C408 1.383 . S
C414 C413 1.379 . S
H415 C409 0.959 . S
H416 C409 0.961 . S
H417 C409 0.960 . S
H418 C410 0.930 . S
H419 C411 0.929 . S
H420 C428 0.929 . S
H421 C430 0.930 . S
H422 C432 0.930 . S
H423 C435 0.929 . S
H424 C438 0.930 . S
H425 C440 0.960 . S
H426 C440 0.960 . S
H427 C440 0.960 . S
C428 H420 0.929 . S
C428 C429 1.377 . S
C428 C430 1.384 . S
C429 C428 1.377 . S
C429 C435 1.390 . S
C430 H421 0.930 . S
C430 C428 1.384 . S
C430 C431 1.372 . S
C431 C430 1.372 . S
C431 C432 1.400 . S
C431 C436 1.490 . S
C432 H422 0.930 . S
C432 C431 1.400 . S
C432 C435 1.386 . S
H433 C449 0.930 . S
H434 C450 0.931 . S
C435 H423 0.929 . S
C435 C429 1.390 . S
C435 C432 1.386 . S
C436 C431 1.490 . S
C436 C438 1.395 . S
C436 C439 1.403 . S
H437 C443 0.930 . S
C438 H424 0.930 . S
C438 C436 1.395 . S
C438 C441 1.403 . S
C439 C436 1.403 . S
C439 C440 1.524 . S
C439 C443 1.400 . S
C440 H425 0.960 . S
C440 H426 0.960 . S
C440 H427 0.960 . S
C440 C439 1.524 . S
C441 C438 1.403 . S
C441 C442 1.392 . S
C441 C445 1.495 . S
C442 C441 1.392 . S
C442 C443 1.385 . S
C442 C444 1.478 . S
C443 H437 0.930 . S
C443 C439 1.400 . S
C443 C442 1.385 . S
C444 C442 1.478 . S
C444 C446 1.381 . S
C444 C450 1.383 . S
C445 C441 1.495 . S
C445 H451 0.959 . S
C445 H452 0.961 . S
C445 H453 0.960 . S
C446 C444 1.381 . S
C446 C447 1.394 . S
C446 H454 0.930 . S
C447 C446 1.394 . S
C447 C448 1.383 . S
C447 H455 0.929 . S
C448 C447 1.383 . S
C448 C449 1.377 . S
C449 H433 0.930 . S
C449 C448 1.377 . S
C449 C450 1.379 . S
C450 H434 0.931 . S
C450 C444 1.383 . S
C450 C449 1.379 . S
H451 C445 0.959 . S
H452 C445 0.961 . S
H453 C445 0.960 . S
H454 C446 0.930 . S
H455 C447 0.929 . S
H456 C464 0.929 . S
H457 C466 0.930 . S
H458 C468 0.930 . S
H459 C471 0.929 . S
H460 C474 0.930 . S
H461 C476 0.960 . S
H462 C476 0.960 . S
H463 C476 0.960 . S
C464 H456 0.929 . S
C464 C465 1.377 . S
C464 C466 1.384 . S
C465 C464 1.377 . S
C465 C471 1.390 . S
C466 H457 0.930 . S
C466 C464 1.384 . S
C466 C467 1.372 . S
C467 C466 1.372 . S
C467 C468 1.400 . S
C467 C472 1.490 . S
C468 H458 0.930 . S
C468 C467 1.400 . S
C468 C471 1.386 . S
H469 C485 0.930 . S
H470 C486 0.931 . S
C471 H459 0.929 . S
C471 C465 1.390 . S
C471 C468 1.386 . S
C472 C467 1.490 . S
C472 C474 1.395 . S
C472 C475 1.403 . S
H473 C479 0.930 . S
C474 H460 0.930 . S
C474 C472 1.395 . S
C474 C477 1.403 . S
C475 C472 1.403 . S
C475 C476 1.524 . S
C475 C479 1.400 . S
C476 H461 0.960 . S
C476 H462 0.960 . S
C476 H463 0.960 . S
C476 C475 1.524 . S
C477 C474 1.403 . S
C477 C478 1.392 . S
C477 C481 1.495 . S
C478 C477 1.392 . S
C478 C479 1.385 . S
C478 C480 1.478 . S
C479 H473 0.930 . S
C479 C475 1.400 . S
C479 C478 1.385 . S
C480 C478 1.478 . S
C480 C482 1.381 . S
C480 C486 1.383 . S
C481 C477 1.495 . S
C481 H487 0.959 . S
C481 H488 0.961 . S
C481 H489 0.960 . S
C482 C480 1.381 . S
C482 C483 1.394 . S
C482 H490 0.930 . S
C483 C482 1.394 . S
C483 C484 1.383 . S
C483 H491 0.929 . S
C484 C483 1.383 . S
C484 C485 1.377 . S
C485 H469 0.930 . S
C485 C484 1.377 . S
C485 C486 1.379 . S
C486 H470 0.931 . S
C486 C480 1.383 . S
C486 C485 1.379 . S
H487 C481 0.959 . S
H488 C481 0.961 . S
H489 C481 0.960 . S
H490 C482 0.930 . S
H491 C483 0.929 . S
H492 C500 0.929 . S
H493 C502 0.930 . S
H494 C504 0.930 . S
H495 C507 0.929 . S
H496 C510 0.930 . S
H497 C512 0.960 . S
H498 C512 0.960 . S
H499 C512 0.960 . S
C500 H492 0.929 . S
C500 C501 1.377 . S
C500 C502 1.384 . S
C501 C500 1.377 . S
C501 C507 1.390 . S
C502 H493 0.930 . S
C502 C500 1.384 . S
C502 C503 1.372 . S
C503 C502 1.372 . S
C503 C504 1.400 . S
C503 C508 1.490 . S
C504 H494 0.930 . S
C504 C503 1.400 . S
C504 C507 1.386 . S
H505 C521 0.930 . S
H506 C522 0.931 . S
C507 H495 0.929 . S
C507 C501 1.390 . S
C507 C504 1.386 . S
C508 C503 1.490 . S
C508 C510 1.395 . S
C508 C511 1.403 . S
H509 C515 0.930 . S
C510 H496 0.930 . S
C510 C508 1.395 . S
C510 C513 1.403 . S
C511 C508 1.403 . S
C511 C512 1.524 . S
C511 C515 1.400 . S
C512 H497 0.960 . S
C512 H498 0.960 . S
C512 H499 0.960 . S
C512 C511 1.524 . S
C513 C510 1.403 . S
C513 C514 1.392 . S
C513 C517 1.495 . S
C514 C513 1.392 . S
C514 C515 1.385 . S
C514 C516 1.478 . S
C515 H509 0.930 . S
C515 C511 1.400 . S
C515 C514 1.385 . S
C516 C514 1.478 . S
C516 C518 1.381 . S
C516 C522 1.383 . S
C517 C513 1.495 . S
C517 H523 0.959 . S
C517 H524 0.961 . S
C517 H525 0.960 . S
C518 C516 1.381 . S
C518 C519 1.394 . S
C518 H526 0.930 . S
C519 C518 1.394 . S
C519 C520 1.383 . S
C519 H527 0.929 . S
C520 C519 1.383 . S
C520 C521 1.377 . S
C521 H505 0.930 . S
C521 C520 1.377 . S
C521 C522 1.379 . S
C522 H506 0.931 . S
C522 C516 1.383 . S
C522 C521 1.379 . S
H523 C517 0.959 . S
H524 C517 0.961 . S
H525 C517 0.960 . S
H526 C518 0.930 . S
H527 C519 0.929 . S
H528 C536 0.929 . S
H529 C538 0.930 . S
H530 C540 0.930 . S
H531 C543 0.929 . S
H532 C546 0.930 . S
H533 C548 0.960 . S
H534 C548 0.960 . S
H535 C548 0.960 . S
C536 H528 0.929 . S
C536 C537 1.377 . S
C536 C538 1.384 . S
C537 C536 1.377 . S
C537 C543 1.390 . S
C538 H529 0.930 . S
C538 C536 1.384 . S
C538 C539 1.372 . S
C539 C538 1.372 . S
C539 C540 1.400 . S
C539 C544 1.490 . S
C540 H530 0.930 . S
C540 C539 1.400 . S
C540 C543 1.386 . S
H541 C557 0.930 . S
H542 C558 0.931 . S
C543 H531 0.929 . S
C543 C537 1.390 . S
C543 C540 1.386 . S
C544 C539 1.490 . S
C544 C546 1.395 . S
C544 C547 1.403 . S
H545 C551 0.930 . S
C546 H532 0.930 . S
C546 C544 1.395 . S
C546 C549 1.403 . S
C547 C544 1.403 . S
C547 C548 1.524 . S
C547 C551 1.400 . S
C548 H533 0.960 . S
C548 H534 0.960 . S
C548 H535 0.960 . S
C548 C547 1.524 . S
C549 C546 1.403 . S
C549 C550 1.392 . S
C549 C553 1.495 . S
C550 C549 1.392 . S
C550 C551 1.385 . S
C550 C552 1.478 . S
C551 H545 0.930 . S
C551 C547 1.400 . S
C551 C550 1.385 . S
C552 C550 1.478 . S
C552 C554 1.381 . S
C552 C558 1.383 . S
C553 C549 1.495 . S
C553 H559 0.959 . S
C553 H560 0.961 . S
C553 H561 0.960 . S
C554 C552 1.381 . S
C554 C555 1.394 . S
C554 H562 0.930 . S
C555 C554 1.394 . S
C555 C556 1.383 . S
C555 H563 0.929 . S
C556 C555 1.383 . S
C556 C557 1.377 . S
C557 H541 0.930 . S
C557 C556 1.377 . S
C557 C558 1.379 . S
C558 H542 0.931 . S
C558 C552 1.383 . S
C558 C557 1.379 . S
H559 C553 0.959 . S
H560 C553 0.961 . S
H561 C553 0.960 . S
H562 C554 0.930 . S
H563 C555 0.929 . S
H564 C572 0.929 . S
H565 C574 0.930 . S
H566 C576 0.930 . S
H567 C579 0.929 . S
H568 C582 0.930 . S
H569 C584 0.960 . S
H570 C584 0.960 . S
H571 C584 0.960 . S
C572 H564 0.929 . S
C572 C573 1.377 . S
C572 C574 1.384 . S
C573 C572 1.377 . S
C573 C579 1.390 . S
C574 H565 0.930 . S
C574 C572 1.384 . S
C574 C575 1.372 . S
C575 C574 1.372 . S
C575 C576 1.400 . S
C575 C580 1.490 . S
C576 H566 0.930 . S
C576 C575 1.400 . S
C576 C579 1.386 . S
H577 C593 0.930 . S
H578 C594 0.931 . S
C579 H567 0.929 . S
C579 C573 1.390 . S
C579 C576 1.386 . S
C580 C575 1.490 . S
C580 C582 1.395 . S
C580 C583 1.403 . S
H581 C587 0.930 . S
C582 H568 0.930 . S
C582 C580 1.395 . S
C582 C585 1.403 . S
C583 C580 1.403 . S
C583 C584 1.524 . S
C583 C587 1.400 . S
C584 H569 0.960 . S
C584 H570 0.960 . S
C584 H571 0.960 . S
C584 C583 1.524 . S
C585 C582 1.403 . S
C585 C586 1.392 . S
C585 C589 1.495 . S
C586 C585 1.392 . S
C586 C587 1.385 . S
C586 C588 1.478 . S
C587 H581 0.930 . S
C587 C583 1.400 . S
C587 C586 1.385 . S
C588 C586 1.478 . S
C588 C590 1.381 . S
C588 C594 1.383 . S
C589 C585 1.495 . S
C589 H595 0.959 . S
C589 H596 0.961 . S
C589 H597 0.960 . S
C590 C588 1.381 . S
C590 C591 1.394 . S
C590 H598 0.930 . S
C591 C590 1.394 . S
C591 C592 1.383 . S
C591 H599 0.929 . S
C592 C591 1.383 . S
C592 C593 1.377 . S
C593 H577 0.930 . S
C593 C592 1.377 . S
C593 C594 1.379 . S
C594 H578 0.931 . S
C594 C588 1.383 . S
C594 C593 1.379 . S
H595 C589 0.959 . S
H596 C589 0.961 . S
H597 C589 0.960 . S
H598 C590 0.930 . S
H599 C591 0.929 . S
H600 C608 0.929 . S
H601 C610 0.930 . S
H602 C612 0.930 . S
H603 C615 0.929 . S
H604 C618 0.930 . S
H605 C620 0.960 . S
H606 C620 0.960 . S
H607 C620 0.960 . S
C608 H600 0.929 . S
C608 C609 1.377 . S
C608 C610 1.384 . S
C609 C608 1.377 . S
C609 C615 1.390 . S
C610 H601 0.930 . S
C610 C608 1.384 . S
C610 C611 1.372 . S
C611 C610 1.372 . S
C611 C612 1.400 . S
C611 C616 1.490 . S
C612 H602 0.930 . S
C612 C611 1.400 . S
C612 C615 1.386 . S
H613 C629 0.930 . S
H614 C630 0.931 . S
C615 H603 0.929 . S
C615 C609 1.390 . S
C615 C612 1.386 . S
C616 C611 1.490 . S
C616 C618 1.395 . S
C616 C619 1.403 . S
H617 C623 0.930 . S
C618 H604 0.930 . S
C618 C616 1.395 . S
C618 C621 1.403 . S
C619 C616 1.403 . S
C619 C620 1.524 . S
C619 C623 1.400 . S
C620 H605 0.960 . S
C620 H606 0.960 . S
C620 H607 0.960 . S
C620 C619 1.524 . S
C621 C618 1.403 . S
C621 C622 1.392 . S
C621 C625 1.495 . S
C622 C621 1.392 . S
C622 C623 1.385 . S
C622 C624 1.478 . S
C623 H617 0.930 . S
C623 C619 1.400 . S
C623 C622 1.385 . S
C624 C622 1.478 . S
C624 C626 1.381 . S
C624 C630 1.383 . S
C625 C621 1.495 . S
C625 H631 0.959 . S
C625 H632 0.961 . S
C625 H633 0.960 . S
C626 C624 1.381 . S
C626 C627 1.394 . S
C626 H634 0.930 . S
C627 C626 1.394 . S
C627 C628 1.383 . S
C627 H635 0.929 . S
C628 C627 1.383 . S
C628 C629 1.377 . S
C629 H613 0.930 . S
C629 C628 1.377 . S
C629 C630 1.379 . S
C630 H614 0.931 . S
C630 C624 1.383 . S
C630 C629 1.379 . S
H631 C625 0.959 . S
H632 C625 0.961 . S
H633 C625 0.960 . S
H634 C626 0.930 . S
H635 C627 0.929 . S
H636 C644 0.929 . S
H637 C646 0.930 . S
H638 C648 0.930 . S
H639 C651 0.929 . S
H640 C654 0.930 . S
H641 C656 0.960 . S
H642 C656 0.960 . S
H643 C656 0.960 . S
C644 H636 0.929 . S
C644 C645 1.377 . S
C644 C646 1.384 . S
C645 C644 1.377 . S
C645 C651 1.390 . S
C646 H637 0.930 . S
C646 C644 1.384 . S
C646 C647 1.372 . S
C647 C646 1.372 . S
C647 C648 1.400 . S
C647 C652 1.490 . S
C648 H638 0.930 . S
C648 C647 1.400 . S
C648 C651 1.386 . S
H649 C665 0.930 . S
H650 C666 0.931 . S
C651 H639 0.929 . S
C651 C645 1.390 . S
C651 C648 1.386 . S
C652 C647 1.490 . S
C652 C654 1.395 . S
C652 C655 1.403 . S
H653 C659 0.930 . S
C654 H640 0.930 . S
C654 C652 1.395 . S
C654 C657 1.403 . S
C655 C652 1.403 . S
C655 C656 1.524 . S
C655 C659 1.400 . S
C656 H641 0.960 . S
C656 H642 0.960 . S
C656 H643 0.960 . S
C656 C655 1.524 . S
C657 C654 1.403 . S
C657 C658 1.392 . S
C657 C661 1.495 . S
C658 C657 1.392 . S
C658 C659 1.385 . S
C658 C660 1.478 . S
C659 H653 0.930 . S
C659 C655 1.400 . S
C659 C658 1.385 . S
C660 C658 1.478 . S
C660 C662 1.381 . S
C660 C666 1.383 . S
C661 C657 1.495 . S
C661 H667 0.959 . S
C661 H668 0.961 . S
C661 H669 0.960 . S
C662 C660 1.381 . S
C662 C663 1.394 . S
C662 H670 0.930 . S
C663 C662 1.394 . S
C663 C664 1.383 . S
C663 H671 0.929 . S
C664 C663 1.383 . S
C664 C665 1.377 . S
C665 H649 0.930 . S
C665 C664 1.377 . S
C665 C666 1.379 . S
C666 H650 0.931 . S
C666 C660 1.383 . S
C666 C665 1.379 . S
H667 C661 0.959 . S
H668 C661 0.961 . S
H669 C661 0.960 . S
H670 C662 0.930 . S
H671 C663 0.929 . S
H672 C680 0.929 . S
H673 C682 0.930 . S
H674 C684 0.930 . S
H675 C687 0.929 . S
H676 C690 0.930 . S
H677 C692 0.960 . S
H678 C692 0.960 . S
H679 C692 0.960 . S
C680 H672 0.929 . S
C680 C681 1.377 . S
C680 C682 1.384 . S
C681 C680 1.377 . S
C681 C687 1.390 . S
C682 H673 0.930 . S
C682 C680 1.384 . S
C682 C683 1.372 . S
C683 C682 1.372 . S
C683 C684 1.400 . S
C683 C688 1.490 . S
C684 H674 0.930 . S
C684 C683 1.400 . S
C684 C687 1.386 . S
H685 C701 0.930 . S
H686 C702 0.931 . S
C687 H675 0.929 . S
C687 C681 1.390 . S
C687 C684 1.386 . S
C688 C683 1.490 . S
C688 C690 1.395 . S
C688 C691 1.403 . S
H689 C695 0.930 . S
C690 H676 0.930 . S
C690 C688 1.395 . S
C690 C693 1.403 . S
C691 C688 1.403 . S
C691 C692 1.524 . S
C691 C695 1.400 . S
C692 H677 0.960 . S
C692 H678 0.960 . S
C692 H679 0.960 . S
C692 C691 1.524 . S
C693 C690 1.403 . S
C693 C694 1.392 . S
C693 C697 1.495 . S
C694 C693 1.392 . S
C694 C695 1.385 . S
C694 C696 1.478 . S
C695 H689 0.930 . S
C695 C691 1.400 . S
C695 C694 1.385 . S
C696 C694 1.478 . S
C696 C698 1.381 . S
C696 C702 1.383 . S
C697 C693 1.495 . S
C697 H703 0.959 . S
C697 H704 0.961 . S
C697 H705 0.960 . S
C698 C696 1.381 . S
C698 C699 1.394 . S
C698 H706 0.930 . S
C699 C698 1.394 . S
C699 C700 1.383 . S
C699 H707 0.929 . S
C700 C699 1.383 . S
C700 C701 1.377 . S
C701 H685 0.930 . S
C701 C700 1.377 . S
C701 C702 1.379 . S
C702 H686 0.931 . S
C702 C696 1.383 . S
C702 C701 1.379 . S
H703 C697 0.959 . S
H704 C697 0.961 . S
H705 C697 0.960 . S
H706 C698 0.930 . S
H707 C699 0.929 . S
H708 C716 0.929 . S
H709 C718 0.930 . S
H710 C720 0.930 . S
H711 C723 0.929 . S
H712 C726 0.930 . S
H713 C728 0.960 . S
H714 C728 0.960 . S
H715 C728 0.960 . S
C716 H708 0.929 . S
C716 C717 1.377 . S
C716 C718 1.384 . S
C717 C716 1.377 . S
C717 C723 1.390 . S
C718 H709 0.930 . S
C718 C716 1.384 . S
C718 C719 1.372 . S
C719 C718 1.372 . S
C719 C720 1.400 . S
C719 C724 1.490 . S
C720 H710 0.930 . S
C720 C719 1.400 . S
C720 C723 1.386 . S
H721 C737 0.930 . S
H722 C738 0.931 . S
C723 H711 0.929 . S
C723 C717 1.390 . S
C723 C720 1.386 . S
C724 C719 1.490 . S
C724 C726 1.395 . S
C724 C727 1.403 . S
H725 C731 0.930 . S
C726 H712 0.930 . S
C726 C724 1.395 . S
C726 C729 1.403 . S
C727 C724 1.403 . S
C727 C728 1.524 . S
C727 C731 1.400 . S
C728 H713 0.960 . S
C728 H714 0.960 . S
C728 H715 0.960 . S
C728 C727 1.524 . S
C729 C726 1.403 . S
C729 C730 1.392 . S
C729 C733 1.495 . S
C730 C729 1.392 . S
C730 C731 1.385 . S
C730 C732 1.478 . S
C731 H725 0.930 . S
C731 C727 1.400 . S
C731 C730 1.385 . S
C732 C730 1.478 . S
C732 C734 1.381 . S
C732 C738 1.383 . S
C733 C729 1.495 . S
C733 H739 0.959 . S
C733 H740 0.961 . S
C733 H741 0.960 . S
C734 C732 1.381 . S
C734 C735 1.394 . S
C734 H742 0.930 . S
C735 C734 1.394 . S
C735 C736 1.383 . S
C735 H743 0.929 . S
C736 C735 1.383 . S
C736 C737 1.377 . S
C737 H721 0.930 . S
C737 C736 1.377 . S
C737 C738 1.379 . S
C738 H722 0.931 . S
C738 C732 1.383 . S
C738 C737 1.379 . S
H739 C733 0.959 . S
H740 C733 0.961 . S
H741 C733 0.960 . S
H742 C734 0.930 . S
H743 C735 0.929 . S
H744 C752 0.929 . S
H745 C754 0.930 . S
H746 C756 0.930 . S
H747 C759 0.929 . S
H748 C762 0.930 . S
H749 C764 0.960 . S
H750 C764 0.960 . S
H751 C764 0.960 . S
C752 H744 0.929 . S
C752 C753 1.377 . S
C752 C754 1.384 . S
C753 C752 1.377 . S
C753 C759 1.390 . S
C754 H745 0.930 . S
C754 C752 1.384 . S
C754 C755 1.372 . S
C755 C754 1.372 . S
C755 C756 1.400 . S
C755 C760 1.490 . S
C756 H746 0.930 . S
C756 C755 1.400 . S
C756 C759 1.386 . S
H757 C773 0.930 . S
H758 C774 0.931 . S
C759 H747 0.929 . S
C759 C753 1.390 . S
C759 C756 1.386 . S
C760 C755 1.490 . S
C760 C762 1.395 . S
C760 C763 1.403 . S
H761 C767 0.930 . S
C762 H748 0.930 . S
C762 C760 1.395 . S
C762 C765 1.403 . S
C763 C760 1.403 . S
C763 C764 1.524 . S
C763 C767 1.400 . S
C764 H749 0.960 . S
C764 H750 0.960 . S
C764 H751 0.960 . S
C764 C763 1.524 . S
C765 C762 1.403 . S
C765 C766 1.392 . S
C765 C769 1.495 . S
C766 C765 1.392 . S
C766 C767 1.385 . S
C766 C768 1.478 . S
C767 H761 0.930 . S
C767 C763 1.400 . S
C767 C766 1.385 . S
C768 C766 1.478 . S
C768 C770 1.381 . S
C768 C774 1.383 . S
C769 C765 1.495 . S
C769 H775 0.959 . S
C769 H776 0.961 . S
C769 H777 0.960 . S
C770 C768 1.381 . S
C770 C771 1.394 . S
C770 H778 0.930 . S
C771 C770 1.394 . S
C771 C772 1.383 . S
C771 H779 0.929 . S
C772 C771 1.383 . S
C772 C773 1.377 . S
C773 H757 0.930 . S
C773 C772 1.377 . S
C773 C774 1.379 . S
C774 H758 0.931 . S
C774 C768 1.383 . S
C774 C773 1.379 . S
H775 C769 0.959 . S
H776 C769 0.961 . S
H777 C769 0.960 . S
H778 C770 0.930 . S
H779 C771 0.929 . S
H780 C788 0.929 . S
H781 C790 0.930 . S
H782 C792 0.930 . S
H783 C795 0.929 . S
H784 C798 0.930 . S
H785 C800 0.960 . S
H786 C800 0.960 . S
H787 C800 0.960 . S
C788 H780 0.929 . S
C788 C789 1.377 . S
C788 C790 1.384 . S
C789 C788 1.377 . S
C789 C795 1.390 . S
C790 H781 0.930 . S
C790 C788 1.384 . S
C790 C791 1.372 . S
C791 C790 1.372 . S
C791 C792 1.400 . S
C791 C796 1.490 . S
C792 H782 0.930 . S
C792 C791 1.400 . S
C792 C795 1.386 . S
H793 C809 0.930 . S
H794 C810 0.931 . S
C795 H783 0.929 . S
C795 C789 1.390 . S
C795 C792 1.386 . S
C796 C791 1.490 . S
C796 C798 1.395 . S
C796 C799 1.403 . S
H797 C803 0.930 . S
C798 H784 0.930 . S
C798 C796 1.395 . S
C798 C801 1.403 . S
C799 C796 1.403 . S
C799 C800 1.524 . S
C799 C803 1.400 . S
C800 H785 0.960 . S
C800 H786 0.960 . S
C800 H787 0.960 . S
C800 C799 1.524 . S
C801 C798 1.403 . S
C801 C802 1.392 . S
C801 C805 1.495 . S
C802 C801 1.392 . S
C802 C803 1.385 . S
C802 C804 1.478 . S
C803 H797 0.930 . S
C803 C799 1.400 . S
C803 C802 1.385 . S
C804 C802 1.478 . S
C804 C806 1.381 . S
C804 C810 1.383 . S
C805 C801 1.495 . S
C805 H811 0.959 . S
C805 H812 0.961 . S
C805 H813 0.960 . S
C806 C804 1.381 . S
C806 C807 1.394 . S
C806 H814 0.930 . S
C807 C806 1.394 . S
C807 C808 1.383 . S
C807 H815 0.929 . S
C808 C807 1.383 . S
C808 C809 1.377 . S
C809 H793 0.930 . S
C809 C808 1.377 . S
C809 C810 1.379 . S
C810 H794 0.931 . S
C810 C804 1.383 . S
C810 C809 1.379 . S
H811 C805 0.959 . S
H812 C805 0.961 . S
H813 C805 0.960 . S
H814 C806 0.930 . S
H815 C807 0.929 . S
H816 C824 0.929 . S
H817 C826 0.930 . S
H818 C828 0.930 . S
H819 C831 0.929 . S
H820 C834 0.930 . S
H821 C836 0.960 . S
H822 C836 0.960 . S
H823 C836 0.960 . S
C824 H816 0.929 . S
C824 C825 1.377 . S
C824 C826 1.384 . S
C825 C824 1.377 . S
C825 C831 1.390 . S
C826 H817 0.930 . S
C826 C824 1.384 . S
C826 C827 1.372 . S
C827 C826 1.372 . S
C827 C828 1.400 . S
C827 C832 1.490 . S
C828 H818 0.930 . S
C828 C827 1.400 . S
C828 C831 1.386 . S
H829 C845 0.930 . S
H830 C846 0.931 . S
C831 H819 0.929 . S
C831 C825 1.390 . S
C831 C828 1.386 . S
C832 C827 1.490 . S
C832 C834 1.395 . S
C832 C835 1.403 . S
H833 C839 0.930 . S
C834 H820 0.930 . S
C834 C832 1.395 . S
C834 C837 1.403 . S
C835 C832 1.403 . S
C835 C836 1.524 . S
C835 C839 1.400 . S
C836 H821 0.960 . S
C836 H822 0.960 . S
C836 H823 0.960 . S
C836 C835 1.524 . S
C837 C834 1.403 . S
C837 C838 1.392 . S
C837 C841 1.495 . S
C838 C837 1.392 . S
C838 C839 1.385 . S
C838 C840 1.478 . S
C839 H833 0.930 . S
C839 C835 1.400 . S
C839 C838 1.385 . S
C840 C838 1.478 . S
C840 C842 1.381 . S
C840 C846 1.383 . S
C841 C837 1.495 . S
C841 H847 0.959 . S
C841 H848 0.961 . S
C841 H849 0.960 . S
C842 C840 1.381 . S
C842 C843 1.394 . S
C842 H850 0.930 . S
C843 C842 1.394 . S
C843 C844 1.383 . S
C843 H851 0.929 . S
C844 C843 1.383 . S
C844 C845 1.377 . S
C845 H829 0.930 . S
C845 C844 1.377 . S
C845 C846 1.379 . S
C846 H830 0.931 . S
C846 C840 1.383 . S
C846 C845 1.379 . S
H847 C841 0.959 . S
H848 C841 0.961 . S
H849 C841 0.960 . S
H850 C842 0.930 . S
H851 C843 0.929 . S
H852 C860 0.929 . S
H853 C862 0.930 . S
H854 C864 0.930 . S
H855 C867 0.929 . S
H856 C870 0.930 . S
H857 C872 0.960 . S
H858 C872 0.960 . S
H859 C872 0.960 . S
C860 H852 0.929 . S
C860 C861 1.377 . S
C860 C862 1.384 . S
C861 C860 1.377 . S
C861 C867 1.390 . S
C862 H853 0.930 . S
C862 C860 1.384 . S
C862 C863 1.372 . S
C863 C862 1.372 . S
C863 C864 1.400 . S
C863 C868 1.490 . S
C864 H854 0.930 . S
C864 C863 1.400 . S
C864 C867 1.386 . S
H865 C881 0.930 . S
H866 C882 0.931 . S
C867 H855 0.929 . S
C867 C861 1.390 . S
C867 C864 1.386 . S
C868 C863 1.490 . S
C868 C870 1.395 . S
C868 C871 1.403 . S
H869 C875 0.930 . S
C870 H856 0.930 . S
C870 C868 1.395 . S
C870 C873 1.403 . S
C871 C868 1.403 . S
C871 C872 1.524 . S
C871 C875 1.400 . S
C872 H857 0.960 . S
C872 H858 0.960 . S
C872 H859 0.960 . S
C872 C871 1.524 . S
C873 C870 1.403 . S
C873 C874 1.392 . S
C873 C877 1.495 . S
C874 C873 1.392 . S
C874 C875 1.385 . S
C874 C876 1.478 . S
C875 H869 0.930 . S
C875 C871 1.400 . S
C875 C874 1.385 . S
C876 C874 1.478 . S
C876 C878 1.381 . S
C876 C882 1.383 . S
C877 C873 1.495 . S
C877 H883 0.959 . S
C877 H884 0.961 . S
C877 H885 0.960 . S
C878 C876 1.381 . S
C878 C879 1.394 . S
C878 H886 0.930 . S
C879 C878 1.394 . S
C879 C880 1.383 . S
C879 H887 0.929 . S
C880 C879 1.383 . S
C880 C881 1.377 . S
C881 H865 0.930 . S
C881 C880 1.377 . S
C881 C882 1.379 . S
C882 H866 0.931 . S
C882 C876 1.383 . S
C882 C881 1.379 . S
H883 C877 0.959 . S
H884 C877 0.961 . S
H885 C877 0.960 . S
H886 C878 0.930 . S
H887 C879 0.929 . S
H888 C896 0.929 . S
H889 C898 0.930 . S
H890 C900 0.930 . S
H891 C903 0.929 . S
H892 C906 0.930 . S
H893 C908 0.960 . S
H894 C908 0.960 . S
H895 C908 0.960 . S
C896 H888 0.929 . S
C896 C897 1.377 . S
C896 C898 1.384 . S
C897 C896 1.377 . S
C897 C903 1.390 . S
C898 H889 0.930 . S
C898 C896 1.384 . S
C898 C899 1.372 . S
C899 C898 1.372 . S
C899 C900 1.400 . S
C899 C904 1.490 . S
C900 H890 0.930 . S
C900 C899 1.400 . S
C900 C903 1.386 . S
H901 C917 0.930 . S
H902 C918 0.931 . S
C903 H891 0.929 . S
C903 C897 1.390 . S
C903 C900 1.386 . S
C904 C899 1.490 . S
C904 C906 1.395 . S
C904 C907 1.403 . S
H905 C911 0.930 . S
C906 H892 0.930 . S
C906 C904 1.395 . S
C906 C909 1.403 . S
C907 C904 1.403 . S
C907 C908 1.524 . S
C907 C911 1.400 . S
C908 H893 0.960 . S
C908 H894 0.960 . S
C908 H895 0.960 . S
C908 C907 1.524 . S
C909 C906 1.403 . S
C909 C910 1.392 . S
C909 C913 1.495 . S
C910 C909 1.392 . S
C910 C911 1.385 . S
C910 C912 1.478 . S
C911 H905 0.930 . S
C911 C907 1.400 . S
C911 C910 1.385 . S
C912 C910 1.478 . S
C912 C914 1.381 . S
C912 C918 1.383 . S
C913 C909 1.495 . S
C913 H919 0.959 . S
C913 H920 0.961 . S
C913 H921 0.960 . S
C914 C912 1.381 . S
C914 C915 1.394 . S
C914 H922 0.930 . S
C915 C914 1.394 . S
C915 C916 1.383 . S
C915 H923 0.929 . S
C916 C915 1.383 . S
C916 C917 1.377 . S
C917 H901 0.930 . S
C917 C916 1.377 . S
C917 C918 1.379 . S
C918 H902 0.931 . S
C918 C912 1.383 . S
C918 C917 1.379 . S
H919 C913 0.959 . S
H920 C913 0.961 . S
H921 C913 0.960 . S
H922 C914 0.930 . S
H923 C915 0.929 . S
H924 C932 0.929 . S
H925 C934 0.930 . S
H926 C936 0.930 . S
H927 C939 0.929 . S
H928 C942 0.930 . S
H929 C944 0.960 . S
H930 C944 0.960 . S
H931 C944 0.960 . S
C932 H924 0.929 . S
C932 C933 1.377 . S
C932 C934 1.384 . S
C933 C932 1.377 . S
C933 C939 1.390 . S
C934 H925 0.930 . S
C934 C932 1.384 . S
C934 C935 1.372 . S
C935 C934 1.372 . S
C935 C936 1.400 . S
C935 C940 1.490 . S
C936 H926 0.930 . S
C936 C935 1.400 . S
C936 C939 1.386 . S
H937 C953 0.930 . S
H938 C954 0.931 . S
C939 H927 0.929 . S
C939 C933 1.390 . S
C939 C936 1.386 . S
C940 C935 1.490 . S
C940 C942 1.395 . S
C940 C943 1.403 . S
H941 C947 0.930 . S
C942 H928 0.930 . S
C942 C940 1.395 . S
C942 C945 1.403 . S
C943 C940 1.403 . S
C943 C944 1.524 . S
C943 C947 1.400 . S
C944 H929 0.960 . S
C944 H930 0.960 . S
C944 H931 0.960 . S
C944 C943 1.524 . S
C945 C942 1.403 . S
C945 C946 1.392 . S
C945 C949 1.495 . S
C946 C945 1.392 . S
C946 C947 1.385 . S
C946 C948 1.478 . S
C947 H941 0.930 . S
C947 C943 1.400 . S
C947 C946 1.385 . S
C948 C946 1.478 . S
C948 C950 1.381 . S
C948 C954 1.383 . S
C949 C945 1.495 . S
C949 H955 0.959 . S
C949 H956 0.961 . S
C949 H957 0.960 . S
C950 C948 1.381 . S
C950 C951 1.394 . S
C950 H958 0.930 . S
C951 C950 1.394 . S
C951 C952 1.383 . S
C951 H959 0.929 . S
C952 C951 1.383 . S
C952 C953 1.377 . S
C953 H937 0.930 . S
C953 C952 1.377 . S
C953 C954 1.379 . S
C954 H938 0.931 . S
C954 C948 1.383 . S
C954 C953 1.379 . S
H955 C949 0.959 . S
H956 C949 0.961 . S
H957 C949 0.960 . S
H958 C950 0.930 . S
H959 C951 0.929 . S
H960 C968 0.929 . S
H961 C970 0.930 . S
H962 C972 0.930 . S
H963 C975 0.929 . S
H964 C978 0.930 . S
H965 C980 0.960 . S
H966 C980 0.960 . S
H967 C980 0.960 . S
C968 H960 0.929 . S
C968 C969 1.377 . S
C968 C970 1.384 . S
C969 C968 1.377 . S
C969 C975 1.390 . S
C970 H961 0.930 . S
C970 C968 1.384 . S
C970 C971 1.372 . S
C971 C970 1.372 . S
C971 C972 1.400 . S
C971 C976 1.490 . S
C972 H962 0.930 . S
C972 C971 1.400 . S
C972 C975 1.386 . S
H973 C989 0.930 . S
H974 C990 0.931 . S
C975 H963 0.929 . S
C975 C969 1.390 . S
C975 C972 1.386 . S
C976 C971 1.490 . S
C976 C978 1.395 . S
C976 C979 1.403 . S
H977 C983 0.930 . S
C978 H964 0.930 . S
C978 C976 1.395 . S
C978 C981 1.403 . S
C979 C976 1.403 . S
C979 C980 1.524 . S
C979 C983 1.400 . S
C980 H965 0.960 . S
C980 H966 0.960 . S
C980 H967 0.960 . S
C980 C979 1.524 . S
C981 C978 1.403 . S
C981 C982 1.392 . S
C981 C985 1.495 . S
C982 C981 1.392 . S
C982 C983 1.385 . S
C982 C984 1.478 . S
C983 H977 0.930 . S
C983 C979 1.400 . S
C983 C982 1.385 . S
C984 C982 1.478 . S
C984 C986 1.381 . S
C984 C990 1.383 . S
C985 C981 1.495 . S
C985 H991 0.959 . S
C985 H992 0.961 . S
C985 H993 0.960 . S
C986 C984 1.381 . S
C986 C987 1.394 . S
C986 H994 0.930 . S
C987 C986 1.394 . S
C987 C988 1.383 . S
C987 H995 0.929 . S
C988 C987 1.383 . S
C988 C989 1.377 . S
C989 H973 0.930 . S
C989 C988 1.377 . S
C989 C990 1.379 . S
C990 H974 0.931 . S
C990 C984 1.383 . S
C990 C989 1.379 . S
H991 C985 0.959 . S
H992 C985 0.961 . S
H993 C985 0.960 . S
H994 C986 0.930 . S
H995 C987 0.929 . S
H996 C1004 0.929 . S
H997 C1006 0.930 . S
H998 C1008 0.930 . S
H999 C1011 0.929 . S
H1000 C1014 0.930 . S
H1001 C1016 0.960 . S
H1002 C1016 0.960 . S
H1003 C1016 0.960 . S
C1004 H996 0.929 . S
C1004 C1005 1.377 . S
C1004 C1006 1.384 . S
C1005 C1004 1.377 . S
C1005 C1011 1.390 . S
C1006 H997 0.930 . S
C1006 C1004 1.384 . S
C1006 C1007 1.372 . S
C1007 C1006 1.372 . S
C1007 C1008 1.400 . S
C1007 C1012 1.490 . S
C1008 H998 0.930 . S
C1008 C1007 1.400 . S
C1008 C1011 1.386 . S
H1009 C1025 0.930 . S
H1010 C1026 0.931 . S
C1011 H999 0.929 . S
C1011 C1005 1.390 . S
C1011 C1008 1.386 . S
C1012 C1007 1.490 . S
C1012 C1014 1.395 . S
C1012 C1015 1.403 . S
H1013 C1019 0.930 . S
C1014 H1000 0.930 . S
C1014 C1012 1.395 . S
C1014 C1017 1.403 . S
C1015 C1012 1.403 . S
C1015 C1016 1.524 . S
C1015 C1019 1.400 . S
C1016 H1001 0.960 . S
C1016 H1002 0.960 . S
C1016 H1003 0.960 . S
C1016 C1015 1.524 . S
C1017 C1014 1.403 . S
C1017 C1018 1.392 . S
C1017 C1021 1.495 . S
C1018 C1017 1.392 . S
C1018 C1019 1.385 . S
C1018 C1020 1.478 . S
C1019 H1013 0.930 . S
C1019 C1015 1.400 . S
C1019 C1018 1.385 . S
C1020 C1018 1.478 . S
C1020 C1022 1.381 . S
C1020 C1026 1.383 . S
C1021 C1017 1.495 . S
C1021 H1027 0.959 . S
C1021 H1028 0.961 . S
C1021 H1029 0.960 . S
C1022 C1020 1.381 . S
C1022 C1023 1.394 . S
C1022 H1030 0.930 . S
C1023 C1022 1.394 . S
C1023 C1024 1.383 . S
C1023 H1031 0.929 . S
C1024 C1023 1.383 . S
C1024 C1025 1.377 . S
C1025 H1009 0.930 . S
C1025 C1024 1.377 . S
C1025 C1026 1.379 . S
C1026 H1010 0.931 . S
C1026 C1020 1.383 . S
C1026 C1025 1.379 . S
H1027 C1021 0.959 . S
H1028 C1021 0.961 . S
H1029 C1021 0.960 . S
H1030 C1022 0.930 . S
H1031 C1023 0.929 . S
H1032 C1040 0.929 . S
H1033 C1042 0.930 . S
H1034 C1044 0.930 . S
H1035 C1047 0.929 . S
H1036 C1050 0.930 . S
H1037 C1052 0.960 . S
H1038 C1052 0.960 . S
H1039 C1052 0.960 . S
C1040 H1032 0.929 . S
C1040 C1041 1.377 . S
C1040 C1042 1.384 . S
C1041 C1040 1.377 . S
C1041 C1047 1.390 . S
C1042 H1033 0.930 . S
C1042 C1040 1.384 . S
C1042 C1043 1.372 . S
C1043 C1042 1.372 . S
C1043 C1044 1.400 . S
C1043 C1048 1.490 . S
C1044 H1034 0.930 . S
C1044 C1043 1.400 . S
C1044 C1047 1.386 . S
H1045 C1061 0.930 . S
H1046 C1062 0.931 . S
C1047 H1035 0.929 . S
C1047 C1041 1.390 . S
C1047 C1044 1.386 . S
C1048 C1043 1.490 . S
C1048 C1050 1.395 . S
C1048 C1051 1.403 . S
H1049 C1055 0.930 . S
C1050 H1036 0.930 . S
C1050 C1048 1.395 . S
C1050 C1053 1.403 . S
C1051 C1048 1.403 . S
C1051 C1052 1.524 . S
C1051 C1055 1.400 . S
C1052 H1037 0.960 . S
C1052 H1038 0.960 . S
C1052 H1039 0.960 . S
C1052 C1051 1.524 . S
C1053 C1050 1.403 . S
C1053 C1054 1.392 . S
C1053 C1057 1.495 . S
C1054 C1053 1.392 . S
C1054 C1055 1.385 . S
C1054 C1056 1.478 . S
C1055 H1049 0.930 . S
C1055 C1051 1.400 . S
C1055 C1054 1.385 . S
C1056 C1054 1.478 . S
C1056 C1058 1.381 . S
C1056 C1062 1.383 . S
C1057 C1053 1.495 . S
C1057 H1063 0.959 . S
C1057 H1064 0.961 . S
C1057 H1065 0.960 . S
C1058 C1056 1.381 . S
C1058 C1059 1.394 . S
C1058 H1066 0.930 . S
C1059 C1058 1.394 . S
C1059 C1060 1.383 . S
C1059 H1067 0.929 . S
C1060 C1059 1.383 . S
C1060 C1061 1.377 . S
C1061 H1045 0.930 . S
C1061 C1060 1.377 . S
C1061 C1062 1.379 . S
C1062 H1046 0.931 . S
C1062 C1056 1.383 . S
C1062 C1061 1.379 . S
H1063 C1057 0.959 . S
H1064 C1057 0.961 . S
H1065 C1057 0.960 . S
H1066 C1058 0.930 . S
H1067 C1059 0.929 . S
H1068 C1076 0.929 . S
H1069 C1078 0.930 . S
H1070 C1080 0.930 . S
H1071 C1083 0.929 . S
H1072 C1086 0.930 . S
H1073 C1088 0.960 . S
H1074 C1088 0.960 . S
H1075 C1088 0.960 . S
C1076 H1068 0.929 . S
C1076 C1077 1.377 . S
C1076 C1078 1.384 . S
C1077 C1076 1.377 . S
C1077 C1083 1.390 . S
C1078 H1069 0.930 . S
C1078 C1076 1.384 . S
C1078 C1079 1.372 . S
C1079 C1078 1.372 . S
C1079 C1080 1.400 . S
C1079 C1084 1.490 . S
C1080 H1070 0.930 . S
C1080 C1079 1.400 . S
C1080 C1083 1.386 . S
H1081 C1097 0.930 . S
H1082 C1098 0.931 . S
C1083 H1071 0.929 . S
C1083 C1077 1.390 . S
C1083 C1080 1.386 . S
C1084 C1079 1.490 . S
C1084 C1086 1.395 . S
C1084 C1087 1.403 . S
H1085 C1091 0.930 . S
C1086 H1072 0.930 . S
C1086 C1084 1.395 . S
C1086 C1089 1.403 . S
C1087 C1084 1.403 . S
C1087 C1088 1.524 . S
C1087 C1091 1.400 . S
C1088 H1073 0.960 . S
C1088 H1074 0.960 . S
C1088 H1075 0.960 . S
C1088 C1087 1.524 . S
C1089 C1086 1.403 . S
C1089 C1090 1.392 . S
C1089 C1093 1.495 . S
C1090 C1089 1.392 . S
C1090 C1091 1.385 . S
C1090 C1092 1.478 . S
C1091 H1085 0.930 . S
C1091 C1087 1.400 . S
C1091 C1090 1.385 . S
C1092 C1090 1.478 . S
C1092 C1094 1.381 . S
C1092 C1098 1.383 . S
C1093 C1089 1.495 . S
C1093 H1099 0.959 . S
C1093 H1100 0.961 . S
C1093 H1101 0.960 . S
C1094 C1092 1.381 . S
C1094 C1095 1.394 . S
C1094 H1102 0.930 . S
C1095 C1094 1.394 . S
C1095 C1096 1.383 . S
C1095 H1103 0.929 . S
C1096 C1095 1.383 . S
C1096 C1097 1.377 . S
C1097 H1081 0.930 . S
C1097 C1096 1.377 . S
C1097 C1098 1.379 . S
C1098 H1082 0.931 . S
C1098 C1092 1.383 . S
C1098 C1097 1.379 . S
H1099 C1093 0.959 . S
H1100 C1093 0.961 . S
H1101 C1093 0.960 . S
H1102 C1094 0.930 . S
H1103 C1095 0.929 . S
H1104 C1112 0.929 . S
H1105 C1114 0.930 . S
H1106 C1116 0.930 . S
H1107 C1119 0.929 . S
H1108 C1122 0.930 . S
H1109 C1124 0.960 . S
H1110 C1124 0.960 . S
H1111 C1124 0.960 . S
C1112 H1104 0.929 . S
C1112 C1113 1.377 . S
C1112 C1114 1.384 . S
C1113 C1112 1.377 . S
C1113 C1119 1.390 . S
C1114 H1105 0.930 . S
C1114 C1112 1.384 . S
C1114 C1115 1.372 . S
C1115 C1114 1.372 . S
C1115 C1116 1.400 . S
C1115 C1120 1.490 . S
C1116 H1106 0.930 . S
C1116 C1115 1.400 . S
C1116 C1119 1.386 . S
H1117 C1133 0.930 . S
H1118 C1134 0.931 . S
C1119 H1107 0.929 . S
C1119 C1113 1.390 . S
C1119 C1116 1.386 . S
C1120 C1115 1.490 . S
C1120 C1122 1.395 . S
C1120 C1123 1.403 . S
H1121 C1127 0.930 . S
C1122 H1108 0.930 . S
C1122 C1120 1.395 . S
C1122 C1125 1.403 . S
C1123 C1120 1.403 . S
C1123 C1124 1.524 . S
C1123 C1127 1.400 . S
C1124 H1109 0.960 . S
C1124 H1110 0.960 . S
C1124 H1111 0.960 . S
C1124 C1123 1.524 . S
C1125 C1122 1.403 . S
C1125 C1126 1.392 . S
C1125 C1129 1.495 . S
C1126 C1125 1.392 . S
C1126 C1127 1.385 . S
C1126 C1128 1.478 . S
C1127 H1121 0.930 . S
C1127 C1123 1.400 . S
C1127 C1126 1.385 . S
C1128 C1126 1.478 . S
C1128 C1130 1.381 . S
C1128 C1134 1.383 . S
C1129 C1125 1.495 . S
C1129 H1135 0.959 . S
C1129 H1136 0.961 . S
C1129 H1137 0.960 . S
C1130 C1128 1.381 . S
C1130 C1131 1.394 . S
C1130 H1138 0.930 . S
C1131 C1130 1.394 . S
C1131 C1132 1.383 . S
C1131 H1139 0.929 . S
C1132 C1131 1.383 . S
C1132 C1133 1.377 . S
C1133 H1117 0.930 . S
C1133 C1132 1.377 . S
C1133 C1134 1.379 . S
C1134 H1118 0.931 . S
C1134 C1128 1.383 . S
C1134 C1133 1.379 . S
H1135 C1129 0.959 . S
H1136 C1129 0.961 . S
H1137 C1129 0.960 . S
H1138 C1130 0.930 . S
H1139 C1131 0.929 . S
H1140 C1148 0.929 . S
H1141 C1150 0.930 . S
H1142 C1152 0.930 . S
H1143 C1155 0.929 . S
H1144 C1158 0.930 . S
H1145 C1160 0.960 . S
H1146 C1160 0.960 . S
H1147 C1160 0.960 . S
C1148 H1140 0.929 . S
C1148 C1149 1.377 . S
C1148 C1150 1.384 . S
C1149 C1148 1.377 . S
C1149 C1155 1.390 . S
C1150 H1141 0.930 . S
C1150 C1148 1.384 . S
C1150 C1151 1.372 . S
C1151 C1150 1.372 . S
C1151 C1152 1.400 . S
C1151 C1156 1.490 . S
C1152 H1142 0.930 . S
C1152 C1151 1.400 . S
C1152 C1155 1.386 . S
H1153 C1169 0.930 . S
H1154 C1170 0.931 . S
C1155 H1143 0.929 . S
C1155 C1149 1.390 . S
C1155 C1152 1.386 . S
C1156 C1151 1.490 . S
C1156 C1158 1.395 . S
C1156 C1159 1.403 . S
H1157 C1163 0.930 . S
C1158 H1144 0.930 . S
C1158 C1156 1.395 . S
C1158 C1161 1.403 . S
C1159 C1156 1.403 . S
C1159 C1160 1.524 . S
C1159 C1163 1.400 . S
C1160 H1145 0.960 . S
C1160 H1146 0.960 . S
C1160 H1147 0.960 . S
C1160 C1159 1.524 . S
C1161 C1158 1.403 . S
C1161 C1162 1.392 . S
C1161 C1165 1.495 . S
C1162 C1161 1.392 . S
C1162 C1163 1.385 . S
C1162 C1164 1.478 . S
C1163 H1157 0.930 . S
C1163 C1159 1.400 . S
C1163 C1162 1.385 . S
C1164 C1162 1.478 . S
C1164 C1166 1.381 . S
C1164 C1170 1.383 . S
C1165 C1161 1.495 . S
C1165 H1171 0.959 . S
C1165 H1172 0.961 . S
C1165 H1173 0.960 . S
C1166 C1164 1.381 . S
C1166 C1167 1.394 . S
C1166 H1174 0.930 . S
C1167 C1166 1.394 . S
C1167 C1168 1.383 . S
C1167 H1175 0.929 . S
C1168 C1167 1.383 . S
C1168 C1169 1.377 . S
C1169 H1153 0.930 . S
C1169 C1168 1.377 . S
C1169 C1170 1.379 . S
C1170 H1154 0.931 . S
C1170 C1164 1.383 . S
C1170 C1169 1.379 . S
H1171 C1165 0.959 . S
H1172 C1165 0.961 . S
H1173 C1165 0.960 . S
H1174 C1166 0.930 . S
H1175 C1167 0.929 . S
H1176 C1184 0.929 . S
H1177 C1186 0.930 . S
H1178 C1188 0.930 . S
H1179 C1191 0.929 . S
H1180 C1194 0.930 . S
H1181 C1196 0.960 . S
H1182 C1196 0.960 . S
H1183 C1196 0.960 . S
C1184 H1176 0.929 . S
C1184 C1185 1.377 . S
C1184 C1186 1.384 . S
C1185 C1184 1.377 . S
C1185 C1191 1.390 . S
C1186 H1177 0.930 . S
C1186 C1184 1.384 . S
C1186 C1187 1.372 . S
C1187 C1186 1.372 . S
C1187 C1188 1.400 . S
C1187 C1192 1.490 . S
C1188 H1178 0.930 . S
C1188 C1187 1.400 . S
C1188 C1191 1.386 . S
H1189 C1205 0.930 . S
H1190 C1206 0.931 . S
C1191 H1179 0.929 . S
C1191 C1185 1.390 . S
C1191 C1188 1.386 . S
C1192 C1187 1.490 . S
C1192 C1194 1.395 . S
C1192 C1195 1.403 . S
H1193 C1199 0.930 . S
C1194 H1180 0.930 . S
C1194 C1192 1.395 . S
C1194 C1197 1.403 1_455 S
C1195 C1192 1.403 . S
C1195 C1196 1.524 . S
C1195 C1199 1.400 1_455 S
C1196 H1181 0.960 . S
C1196 H1182 0.960 . S
C1196 H1183 0.960 . S
C1196 C1195 1.524 . S
C1197 C1194 1.403 1_655 S
C1197 C1198 1.392 . S
C1197 C1201 1.495 . S
C1198 C1197 1.392 . S
C1198 C1199 1.385 . S
C1198 C1200 1.478 . S
C1199 H1193 0.930 . S
C1199 C1195 1.400 1_655 S
C1199 C1198 1.385 . S
C1200 C1198 1.478 . S
C1200 C1202 1.381 . S
C1200 C1206 1.383 . S
C1201 C1197 1.495 . S
C1201 H1207 0.959 . S
C1201 H1208 0.961 . S
C1201 H1209 0.960 . S
C1202 C1200 1.381 . S
C1202 C1203 1.394 . S
C1202 H1210 0.930 . S
C1203 C1202 1.394 . S
C1203 C1204 1.383 . S
C1203 H1211 0.929 . S
C1204 C1203 1.383 . S
C1204 C1205 1.377 . S
C1205 H1189 0.930 . S
C1205 C1204 1.377 . S
C1205 C1206 1.379 . S
C1206 H1190 0.931 . S
C1206 C1200 1.383 . S
C1206 C1205 1.379 . S
H1207 C1201 0.959 . S
H1208 C1201 0.961 . S
H1209 C1201 0.960 . S
H1210 C1202 0.930 . S
H1211 C1203 0.929 . S
H1212 C1220 0.929 . S
H1213 C1222 0.930 . S
H1214 C1224 0.930 . S
H1215 C1227 0.929 . S
H1216 C1230 0.930 . S
H1217 C1232 0.960 . S
H1218 C1232 0.960 . S
H1219 C1232 0.960 . S
C1220 H1212 0.929 . S
C1220 C1221 1.377 . S
C1220 C1222 1.384 . S
C1221 C1220 1.377 . S
C1221 C1227 1.390 . S
C1222 H1213 0.930 . S
C1222 C1220 1.384 . S
C1222 C1223 1.372 . S
C1223 C1222 1.372 . S
C1223 C1224 1.400 . S
C1223 C1228 1.490 . S
C1224 H1214 0.930 . S
C1224 C1223 1.400 . S
C1224 C1227 1.386 . S
H1225 C1241 0.930 . S
H1226 C1242 0.931 . S
C1227 H1215 0.929 . S
C1227 C1221 1.390 . S
C1227 C1224 1.386 . S
C1228 C1223 1.490 . S
C1228 C1230 1.395 . S
C1228 C1231 1.403 . S
H1229 C1235 0.930 . S
C1230 H1216 0.930 . S
C1230 C1228 1.395 . S
C1230 C1233 1.403 1_545 S
C1231 C1228 1.403 . S
C1231 C1232 1.524 . S
C1231 C1235 1.400 1_545 S
C1232 H1217 0.960 . S
C1232 H1218 0.960 . S
C1232 H1219 0.960 . S
C1232 C1231 1.524 . S
C1233 C1230 1.403 1_565 S
C1233 C1234 1.392 . S
C1233 C1237 1.495 . S
C1234 C1233 1.392 . S
C1234 C1235 1.385 . S
C1234 C1236 1.478 . S
C1235 H1229 0.930 . S
C1235 C1231 1.400 1_565 S
C1235 C1234 1.385 . S
C1236 C1234 1.478 . S
C1236 C1238 1.381 . S
C1236 C1242 1.383 . S
C1237 C1233 1.495 . S
C1237 H1243 0.959 . S
C1237 H1244 0.961 . S
C1237 H1245 0.960 . S
C1238 C1236 1.381 . S
C1238 C1239 1.394 . S
C1238 H1246 0.930 . S
C1239 C1238 1.394 . S
C1239 C1240 1.383 . S
C1239 H1247 0.929 . S
C1240 C1239 1.383 . S
C1240 C1241 1.377 . S
C1241 H1225 0.930 . S
C1241 C1240 1.377 . S
C1241 C1242 1.379 . S
C1242 H1226 0.931 . S
C1242 C1236 1.383 . S
C1242 C1241 1.379 . S
H1243 C1237 0.959 . S
H1244 C1237 0.961 . S
H1245 C1237 0.960 . S
H1246 C1238 0.930 . S
H1247 C1239 0.929 . S
H1248 C1256 0.929 . S
H1249 C1258 0.930 . S
H1250 C1260 0.930 . S
H1251 C1263 0.929 . S
H1252 C1266 0.930 . S
H1253 C1268 0.960 . S
H1254 C1268 0.960 . S
H1255 C1268 0.960 . S
C1256 H1248 0.929 . S
C1256 C1257 1.377 . S
C1256 C1258 1.384 . S
C1257 C1256 1.377 . S
C1257 C1263 1.390 . S
C1258 H1249 0.930 . S
C1258 C1256 1.384 . S
C1258 C1259 1.372 . S
C1259 C1258 1.372 . S
C1259 C1260 1.400 . S
C1259 C1264 1.490 . S
C1260 H1250 0.930 . S
C1260 C1259 1.400 . S
C1260 C1263 1.386 . S
H1261 C1277 0.930 . S
H1262 C1278 0.931 . S
C1263 H1251 0.929 . S
C1263 C1257 1.390 . S
C1263 C1260 1.386 . S
C1264 C1259 1.490 . S
C1264 C1266 1.395 . S
C1264 C1267 1.403 . S
H1265 C1271 0.930 . S
C1266 H1252 0.930 . S
C1266 C1264 1.395 . S
C1266 C1269 1.403 1_655 S
C1267 C1264 1.403 . S
C1267 C1268 1.524 . S
C1267 C1271 1.400 1_655 S
C1268 H1253 0.960 . S
C1268 H1254 0.960 . S
C1268 H1255 0.960 . S
C1268 C1267 1.524 . S
C1269 C1266 1.403 1_455 S
C1269 C1270 1.392 . S
C1269 C1273 1.495 . S
C1270 C1269 1.392 . S
C1270 C1271 1.385 . S
C1270 C1272 1.478 . S
C1271 H1265 0.930 . S
C1271 C1267 1.400 1_455 S
C1271 C1270 1.385 . S
C1272 C1270 1.478 . S
C1272 C1274 1.381 . S
C1272 C1278 1.383 . S
C1273 C1269 1.495 . S
C1273 H1279 0.959 . S
C1273 H1280 0.961 . S
C1273 H1281 0.960 . S
C1274 C1272 1.381 . S
C1274 C1275 1.394 . S
C1274 H1282 0.930 . S
C1275 C1274 1.394 . S
C1275 C1276 1.383 . S
C1275 H1283 0.929 . S
C1276 C1275 1.383 . S
C1276 C1277 1.377 . S
C1277 H1261 0.930 . S
C1277 C1276 1.377 . S
C1277 C1278 1.379 . S
C1278 H1262 0.931 . S
C1278 C1272 1.383 . S
C1278 C1277 1.379 . S
H1279 C1273 0.959 . S
H1280 C1273 0.961 . S
H1281 C1273 0.960 . S
H1282 C1274 0.930 . S
H1283 C1275 0.929 . S
H1284 C1292 0.929 . S
H1285 C1294 0.930 . S
H1286 C1296 0.930 . S
H1287 C1299 0.929 . S
H1288 C1302 0.930 . S
H1289 C1304 0.960 . S
H1290 C1304 0.960 . S
H1291 C1304 0.960 . S
C1292 H1284 0.929 . S
C1292 C1293 1.377 . S
C1292 C1294 1.384 . S
C1293 C1292 1.377 . S
C1293 C1299 1.390 . S
C1294 H1285 0.930 . S
C1294 C1292 1.384 . S
C1294 C1295 1.372 . S
C1295 C1294 1.372 . S
C1295 C1296 1.400 . S
C1295 C1300 1.490 . S
C1296 H1286 0.930 . S
C1296 C1295 1.400 . S
C1296 C1299 1.386 . S
H1297 C1313 0.930 . S
H1298 C1314 0.931 . S
C1299 H1287 0.929 . S
C1299 C1293 1.390 . S
C1299 C1296 1.386 . S
C1300 C1295 1.490 . S
C1300 C1302 1.395 . S
C1300 C1303 1.403 . S
H1301 C1307 0.930 . S
C1302 H1288 0.930 . S
C1302 C1300 1.395 . S
C1302 C1305 1.403 1_545 S
C1303 C1300 1.403 . S
C1303 C1304 1.524 . S
C1303 C1307 1.400 1_545 S
C1304 H1289 0.960 . S
C1304 H1290 0.960 . S
C1304 H1291 0.960 . S
C1304 C1303 1.524 . S
C1305 C1302 1.403 1_565 S
C1305 C1306 1.392 . S
C1305 C1309 1.495 . S
C1306 C1305 1.392 . S
C1306 C1307 1.385 . S
C1306 C1308 1.478 . S
C1307 H1301 0.930 . S
C1307 C1303 1.400 1_565 S
C1307 C1306 1.385 . S
C1308 C1306 1.478 . S
C1308 C1310 1.381 . S
C1308 C1314 1.383 . S
C1309 C1305 1.495 . S
C1309 H1315 0.959 . S
C1309 H1316 0.961 . S
C1309 H1317 0.960 . S
C1310 C1308 1.381 . S
C1310 C1311 1.394 . S
C1310 H1318 0.930 . S
C1311 C1310 1.394 . S
C1311 C1312 1.383 . S
C1311 H1319 0.929 . S
C1312 C1311 1.383 . S
C1312 C1313 1.377 . S
C1313 H1297 0.930 . S
C1313 C1312 1.377 . S
C1313 C1314 1.379 . S
C1314 H1298 0.931 . S
C1314 C1308 1.383 . S
C1314 C1313 1.379 . S
H1315 C1309 0.959 . S
H1316 C1309 0.961 . S
H1317 C1309 0.960 . S
H1318 C1310 0.930 . S
H1319 C1311 0.929 . S
H1320 C1328 0.929 . S
H1321 C1330 0.930 . S
H1322 C1332 0.930 . S
H1323 C1335 0.929 . S
H1324 C1338 0.930 . S
H1325 C1340 0.960 . S
H1326 C1340 0.960 . S
H1327 C1340 0.960 . S
C1328 H1320 0.929 . S
C1328 C1329 1.377 . S
C1328 C1330 1.384 . S
C1329 C1328 1.377 . S
C1329 C1335 1.390 . S
C1330 H1321 0.930 . S
C1330 C1328 1.384 . S
C1330 C1331 1.372 . S
C1331 C1330 1.372 . S
C1331 C1332 1.400 . S
C1331 C1336 1.490 . S
C1332 H1322 0.930 . S
C1332 C1331 1.400 . S
C1332 C1335 1.386 . S
H1333 C1349 0.930 . S
H1334 C1350 0.931 . S
C1335 H1323 0.929 . S
C1335 C1329 1.390 . S
C1335 C1332 1.386 . S
C1336 C1331 1.490 . S
C1336 C1338 1.395 . S
C1336 C1339 1.403 . S
H1337 C1343 0.930 . S
C1338 H1324 0.930 . S
C1338 C1336 1.395 . S
C1338 C1341 1.403 1_565 S
C1339 C1336 1.403 . S
C1339 C1340 1.524 . S
C1339 C1343 1.400 1_565 S
C1340 H1325 0.960 . S
C1340 H1326 0.960 . S
C1340 H1327 0.960 . S
C1340 C1339 1.524 . S
C1341 C1338 1.403 1_545 S
C1341 C1342 1.392 . S
C1341 C1345 1.495 . S
C1342 C1341 1.392 . S
C1342 C1343 1.385 . S
C1342 C1344 1.478 . S
C1343 H1337 0.930 . S
C1343 C1339 1.400 1_545 S
C1343 C1342 1.385 . S
C1344 C1342 1.478 . S
C1344 C1346 1.381 . S
C1344 C1350 1.383 . S
C1345 C1341 1.495 . S
C1345 H1351 0.959 . S
C1345 H1352 0.961 . S
C1345 H1353 0.960 . S
C1346 C1344 1.381 . S
C1346 C1347 1.394 . S
C1346 H1354 0.930 . S
C1347 C1346 1.394 . S
C1347 C1348 1.383 . S
C1347 H1355 0.929 . S
C1348 C1347 1.383 . S
C1348 C1349 1.377 . S
C1349 H1333 0.930 . S
C1349 C1348 1.377 . S
C1349 C1350 1.379 . S
C1350 H1334 0.931 . S
C1350 C1344 1.383 . S
C1350 C1349 1.379 . S
H1351 C1345 0.959 . S
H1352 C1345 0.961 . S
H1353 C1345 0.960 . S
H1354 C1346 0.930 . S
H1355 C1347 0.929 . S
H1356 C1364 0.929 . S
H1357 C1366 0.930 . S
H1358 C1368 0.930 . S
H1359 C1371 0.929 . S
H1360 C1374 0.930 . S
H1361 C1376 0.960 . S
H1362 C1376 0.960 . S
H1363 C1376 0.960 . S
C1364 H1356 0.929 . S
C1364 C1365 1.377 . S
C1364 C1366 1.384 . S
C1365 C1364 1.377 . S
C1365 C1371 1.390 . S
C1366 H1357 0.930 . S
C1366 C1364 1.384 . S
C1366 C1367 1.372 . S
C1367 C1366 1.372 . S
C1367 C1368 1.400 . S
C1367 C1372 1.490 . S
C1368 H1358 0.930 . S
C1368 C1367 1.400 . S
C1368 C1371 1.386 . S
H1369 C1385 0.930 . S
H1370 C1386 0.931 . S
C1371 H1359 0.929 . S
C1371 C1365 1.390 . S
C1371 C1368 1.386 . S
C1372 C1367 1.490 . S
C1372 C1374 1.395 . S
C1372 C1375 1.403 . S
H1373 C1379 0.930 . S
C1374 H1360 0.930 . S
C1374 C1372 1.395 . S
C1374 C1377 1.403 1_655 S
C1375 C1372 1.403 . S
C1375 C1376 1.524 . S
C1375 C1379 1.400 1_655 S
C1376 H1361 0.960 . S
C1376 H1362 0.960 . S
C1376 H1363 0.960 . S
C1376 C1375 1.524 . S
C1377 C1374 1.403 1_455 S
C1377 C1378 1.392 . S
C1377 C1381 1.495 . S
C1378 C1377 1.392 . S
C1378 C1379 1.385 . S
C1378 C1380 1.478 . S
C1379 H1373 0.930 . S
C1379 C1375 1.400 1_455 S
C1379 C1378 1.385 . S
C1380 C1378 1.478 . S
C1380 C1382 1.381 . S
C1380 C1386 1.383 . S
C1381 C1377 1.495 . S
C1381 H1387 0.959 . S
C1381 H1388 0.961 . S
C1381 H1389 0.960 . S
C1382 C1380 1.381 . S
C1382 C1383 1.394 . S
C1382 H1390 0.930 . S
C1383 C1382 1.394 . S
C1383 C1384 1.383 . S
C1383 H1391 0.929 . S
C1384 C1383 1.383 . S
C1384 C1385 1.377 . S
C1385 H1369 0.930 . S
C1385 C1384 1.377 . S
C1385 C1386 1.379 . S
C1386 H1370 0.931 . S
C1386 C1380 1.383 . S
C1386 C1385 1.379 . S
H1387 C1381 0.959 . S
H1388 C1381 0.961 . S
H1389 C1381 0.960 . S
H1390 C1382 0.930 . S
H1391 C1383 0.929 . S
H1392 C1400 0.929 . S
H1393 C1402 0.930 . S
H1394 C1404 0.930 . S
H1395 C1407 0.929 . S
H1396 C1410 0.930 . S
H1397 C1412 0.960 . S
H1398 C1412 0.960 . S
H1399 C1412 0.960 . S
C1400 H1392 0.929 . S
C1400 C1401 1.377 . S
C1400 C1402 1.384 . S
C1401 C1400 1.377 . S
C1401 C1407 1.390 . S
C1402 H1393 0.930 . S
C1402 C1400 1.384 . S
C1402 C1403 1.372 . S
C1403 C1402 1.372 . S
C1403 C1404 1.400 . S
C1403 C1408 1.490 . S
C1404 H1394 0.930 . S
C1404 C1403 1.400 . S
C1404 C1407 1.386 . S
H1405 C1421 0.930 . S
H1406 C1422 0.931 . S
C1407 H1395 0.929 . S
C1407 C1401 1.390 . S
C1407 C1404 1.386 . S
C1408 C1403 1.490 . S
C1408 C1410 1.395 . S
C1408 C1411 1.403 . S
H1409 C1415 0.930 . S
C1410 H1396 0.930 . S
C1410 C1408 1.395 . S
C1410 C1413 1.403 1_565 S
C1411 C1408 1.403 . S
C1411 C1412 1.524 . S
C1411 C1415 1.400 1_565 S
C1412 H1397 0.960 . S
C1412 H1398 0.960 . S
C1412 H1399 0.960 . S
C1412 C1411 1.524 . S
C1413 C1410 1.403 1_545 S
C1413 C1414 1.392 . S
C1413 C1417 1.495 . S
C1414 C1413 1.392 . S
C1414 C1415 1.385 . S
C1414 C1416 1.478 . S
C1415 H1409 0.930 . S
C1415 C1411 1.400 1_545 S
C1415 C1414 1.385 . S
C1416 C1414 1.478 . S
C1416 C1418 1.381 . S
C1416 C1422 1.383 . S
C1417 C1413 1.495 . S
C1417 H1423 0.959 . S
C1417 H1424 0.961 . S
C1417 H1425 0.960 . S
C1418 C1416 1.381 . S
C1418 C1419 1.394 . S
C1418 H1426 0.930 . S
C1419 C1418 1.394 . S
C1419 C1420 1.383 . S
C1419 H1427 0.929 . S
C1420 C1419 1.383 . S
C1420 C1421 1.377 . S
C1421 H1405 0.930 . S
C1421 C1420 1.377 . S
C1421 C1422 1.379 . S
C1422 H1406 0.931 . S
C1422 C1416 1.383 . S
C1422 C1421 1.379 . S
H1423 C1417 0.959 . S
H1424 C1417 0.961 . S
H1425 C1417 0.960 . S
H1426 C1418 0.930 . S
H1427 C1419 0.929 . S
H1428 C1436 0.929 . S
H1429 C1438 0.930 . S
H1430 C1440 0.930 . S
H1431 C1443 0.929 . S
H1432 C1446 0.930 . S
H1433 C1448 0.960 . S
H1434 C1448 0.960 . S
H1435 C1448 0.960 . S
C1436 H1428 0.929 . S
C1436 C1437 1.377 . S
C1436 C1438 1.384 . S
C1437 C1436 1.377 . S
C1437 C1443 1.390 . S
C1438 H1429 0.930 . S
C1438 C1436 1.384 . S
C1438 C1439 1.372 . S
C1439 C1438 1.372 . S
C1439 C1440 1.400 . S
C1439 C1444 1.490 . S
C1440 H1430 0.930 . S
C1440 C1439 1.400 . S
C1440 C1443 1.386 . S
H1441 C1457 0.930 . S
H1442 C1458 0.931 . S
C1443 H1431 0.929 . S
C1443 C1437 1.390 . S
C1443 C1440 1.386 . S
C1444 C1439 1.490 . S
C1444 C1446 1.395 . S
C1444 C1447 1.403 . S
H1445 C1451 0.930 . S
C1446 H1432 0.930 . S
C1446 C1444 1.395 . S
C1446 C1449 1.403 1_655 S
C1447 C1444 1.403 . S
C1447 C1448 1.524 . S
C1447 C1451 1.400 1_655 S
C1448 H1433 0.960 . S
C1448 H1434 0.960 . S
C1448 H1435 0.960 . S
C1448 C1447 1.524 . S
C1449 C1446 1.403 1_455 S
C1449 C1450 1.392 . S
C1449 C1453 1.495 . S
C1450 C1449 1.392 . S
C1450 C1451 1.385 . S
C1450 C1452 1.478 . S
C1451 H1445 0.930 . S
C1451 C1447 1.400 1_455 S
C1451 C1450 1.385 . S
C1452 C1450 1.478 . S
C1452 C1454 1.381 . S
C1452 C1458 1.383 . S
C1453 C1449 1.495 . S
C1453 H1459 0.959 . S
C1453 H1460 0.961 . S
C1453 H1461 0.960 . S
C1454 C1452 1.381 . S
C1454 C1455 1.394 . S
C1454 H1462 0.930 . S
C1455 C1454 1.394 . S
C1455 C1456 1.383 . S
C1455 H1463 0.929 . S
C1456 C1455 1.383 . S
C1456 C1457 1.377 . S
C1457 H1441 0.930 . S
C1457 C1456 1.377 . S
C1457 C1458 1.379 . S
C1458 H1442 0.931 . S
C1458 C1452 1.383 . S
C1458 C1457 1.379 . S
H1459 C1453 0.959 . S
H1460 C1453 0.961 . S
H1461 C1453 0.960 . S
H1462 C1454 0.930 . S
H1463 C1455 0.929 . S
H1464 C1472 0.929 . S
H1465 C1474 0.930 . S
H1466 C1476 0.930 . S
H1467 C1479 0.929 . S
H1468 C1482 0.930 . S
H1469 C1484 0.960 . S
H1470 C1484 0.960 . S
H1471 C1484 0.960 . S
C1472 H1464 0.929 . S
C1472 C1473 1.377 . S
C1472 C1474 1.384 . S
C1473 C1472 1.377 . S
C1473 C1479 1.390 . S
C1474 H1465 0.930 . S
C1474 C1472 1.384 . S
C1474 C1475 1.372 . S
C1475 C1474 1.372 . S
C1475 C1476 1.400 . S
C1475 C1480 1.490 . S
C1476 H1466 0.930 . S
C1476 C1475 1.400 . S
C1476 C1479 1.386 . S
H1477 C1493 0.930 . S
H1478 C1494 0.931 . S
C1479 H1467 0.929 . S
C1479 C1473 1.390 . S
C1479 C1476 1.386 . S
C1480 C1475 1.490 . S
C1480 C1482 1.395 . S
C1480 C1483 1.403 . S
H1481 C1487 0.930 . S
C1482 H1468 0.930 . S
C1482 C1480 1.395 . S
C1482 C1485 1.403 1_556 S
C1483 C1480 1.403 . S
C1483 C1484 1.524 . S
C1483 C1487 1.400 1_556 S
C1484 H1469 0.960 . S
C1484 H1470 0.960 . S
C1484 H1471 0.960 . S
C1484 C1483 1.524 . S
C1485 C1482 1.403 1_554 S
C1485 C1486 1.392 . S
C1485 C1489 1.495 . S
C1486 C1485 1.392 . S
C1486 C1487 1.385 . S
C1486 C1488 1.478 . S
C1487 H1481 0.930 . S
C1487 C1483 1.400 1_554 S
C1487 C1486 1.385 . S
C1488 C1486 1.478 . S
C1488 C1490 1.381 . S
C1488 C1494 1.383 . S
C1489 C1485 1.495 . S
C1489 H1495 0.959 . S
C1489 H1496 0.961 . S
C1489 H1497 0.960 . S
C1490 C1488 1.381 . S
C1490 C1491 1.394 . S
C1490 H1498 0.930 . S
C1491 C1490 1.394 . S
C1491 C1492 1.383 . S
C1491 H1499 0.929 . S
C1492 C1491 1.383 . S
C1492 C1493 1.377 . S
C1493 H1477 0.930 . S
C1493 C1492 1.377 . S
C1493 C1494 1.379 . S
C1494 H1478 0.931 . S
C1494 C1488 1.383 . S
C1494 C1493 1.379 . S
H1495 C1489 0.959 . S
H1496 C1489 0.961 . S
H1497 C1489 0.960 . S
H1498 C1490 0.930 . S
H1499 C1491 0.929 . S
H1500 C1508 0.929 . S
H1501 C1510 0.930 . S
H1502 C1512 0.930 . S
H1503 C1515 0.929 . S
H1504 C1518 0.930 . S
H1505 C1520 0.960 . S
H1506 C1520 0.960 . S
H1507 C1520 0.960 . S
C1508 H1500 0.929 . S
C1508 C1509 1.377 . S
C1508 C1510 1.384 . S
C1509 C1508 1.377 . S
C1509 C1515 1.390 . S
C1510 H1501 0.930 . S
C1510 C1508 1.384 . S
C1510 C1511 1.372 . S
C1511 C1510 1.372 . S
C1511 C1512 1.400 . S
C1511 C1516 1.490 . S
C1512 H1502 0.930 . S
C1512 C1511 1.400 . S
C1512 C1515 1.386 . S
H1513 C1529 0.930 . S
H1514 C1530 0.931 . S
C1515 H1503 0.929 . S
C1515 C1509 1.390 . S
C1515 C1512 1.386 . S
C1516 C1511 1.490 . S
C1516 C1518 1.395 . S
C1516 C1519 1.403 . S
H1517 C1523 0.930 . S
C1518 H1504 0.930 . S
C1518 C1516 1.395 . S
C1518 C1521 1.403 1_556 S
C1519 C1516 1.403 . S
C1519 C1520 1.524 . S
C1519 C1523 1.400 1_556 S
C1520 H1505 0.960 . S
C1520 H1506 0.960 . S
C1520 H1507 0.960 . S
C1520 C1519 1.524 . S
C1521 C1518 1.403 1_554 S
C1521 C1522 1.392 . S
C1521 C1525 1.495 . S
C1522 C1521 1.392 . S
C1522 C1523 1.385 . S
C1522 C1524 1.478 . S
C1523 H1517 0.930 . S
C1523 C1519 1.400 1_554 S
C1523 C1522 1.385 . S
C1524 C1522 1.478 . S
C1524 C1526 1.381 . S
C1524 C1530 1.383 . S
C1525 C1521 1.495 . S
C1525 H1531 0.959 . S
C1525 H1532 0.961 . S
C1525 H1533 0.960 . S
C1526 C1524 1.381 . S
C1526 C1527 1.394 . S
C1526 H1534 0.930 . S
C1527 C1526 1.394 . S
C1527 C1528 1.383 . S
C1527 H1535 0.929 . S
C1528 C1527 1.383 . S
C1528 C1529 1.377 . S
C1529 H1513 0.930 . S
C1529 C1528 1.377 . S
C1529 C1530 1.379 . S
C1530 H1514 0.931 . S
C1530 C1524 1.383 . S
C1530 C1529 1.379 . S
H1531 C1525 0.959 . S
H1532 C1525 0.961 . S
H1533 C1525 0.960 . S
H1534 C1526 0.930 . S
H1535 C1527 0.929 . S
H1536 C1544 0.929 . S
H1537 C1546 0.930 . S
H1538 C1548 0.930 . S
H1539 C1551 0.929 . S
H1540 C1554 0.930 . S
H1541 C1556 0.960 . S
H1542 C1556 0.960 . S
H1543 C1556 0.960 . S
C1544 H1536 0.929 . S
C1544 C1545 1.377 . S
C1544 C1546 1.384 . S
C1545 C1544 1.377 . S
C1545 C1551 1.390 . S
C1546 H1537 0.930 . S
C1546 C1544 1.384 . S
C1546 C1547 1.372 . S
C1547 C1546 1.372 . S
C1547 C1548 1.400 . S
C1547 C1552 1.490 . S
C1548 H1538 0.930 . S
C1548 C1547 1.400 . S
C1548 C1551 1.386 . S
H1549 C1565 0.930 . S
H1550 C1566 0.931 . S
C1551 H1539 0.929 . S
C1551 C1545 1.390 . S
C1551 C1548 1.386 . S
C1552 C1547 1.490 . S
C1552 C1554 1.395 . S
C1552 C1555 1.403 . S
H1553 C1559 0.930 . S
C1554 H1540 0.930 . S
C1554 C1552 1.395 . S
C1554 C1557 1.403 1_556 S
C1555 C1552 1.403 . S
C1555 C1556 1.524 . S
C1555 C1559 1.400 1_556 S
C1556 H1541 0.960 . S
C1556 H1542 0.960 . S
C1556 H1543 0.960 . S
C1556 C1555 1.524 . S
C1557 C1554 1.403 1_554 S
C1557 C1558 1.392 . S
C1557 C1561 1.495 . S
C1558 C1557 1.392 . S
C1558 C1559 1.385 . S
C1558 C1560 1.478 . S
C1559 H1553 0.930 . S
C1559 C1555 1.400 1_554 S
C1559 C1558 1.385 . S
C1560 C1558 1.478 . S
C1560 C1562 1.381 . S
C1560 C1566 1.383 . S
C1561 C1557 1.495 . S
C1561 H1567 0.959 . S
C1561 H1568 0.961 . S
C1561 H1569 0.960 . S
C1562 C1560 1.381 . S
C1562 C1563 1.394 . S
C1562 H1570 0.930 . S
C1563 C1562 1.394 . S
C1563 C1564 1.383 . S
C1563 H1571 0.929 . S
C1564 C1563 1.383 . S
C1564 C1565 1.377 . S
C1565 H1549 0.930 . S
C1565 C1564 1.377 . S
C1565 C1566 1.379 . S
C1566 H1550 0.931 . S
C1566 C1560 1.383 . S
C1566 C1565 1.379 . S
H1567 C1561 0.959 . S
H1568 C1561 0.961 . S
H1569 C1561 0.960 . S
H1570 C1562 0.930 . S
H1571 C1563 0.929 . S
H1572 C1580 0.929 . S
H1573 C1582 0.930 . S
H1574 C1584 0.930 . S
H1575 C1587 0.929 . S
H1576 C1590 0.930 . S
H1577 C1592 0.960 . S
H1578 C1592 0.960 . S
H1579 C1592 0.960 . S
C1580 H1572 0.929 . S
C1580 C1581 1.377 . S
C1580 C1582 1.384 . S
C1581 C1580 1.377 . S
C1581 C1587 1.390 . S
C1582 H1573 0.930 . S
C1582 C1580 1.384 . S
C1582 C1583 1.372 . S
C1583 C1582 1.372 . S
C1583 C1584 1.400 . S
C1583 C1588 1.490 . S
C1584 H1574 0.930 . S
C1584 C1583 1.400 . S
C1584 C1587 1.386 . S
H1585 C1601 0.930 . S
H1586 C1602 0.931 . S
C1587 H1575 0.929 . S
C1587 C1581 1.390 . S
C1587 C1584 1.386 . S
C1588 C1583 1.490 . S
C1588 C1590 1.395 . S
C1588 C1591 1.403 . S
H1589 C1595 0.930 . S
C1590 H1576 0.930 . S
C1590 C1588 1.395 . S
C1590 C1593 1.403 1_556 S
C1591 C1588 1.403 . S
C1591 C1592 1.524 . S
C1591 C1595 1.400 1_556 S
C1592 H1577 0.960 . S
C1592 H1578 0.960 . S
C1592 H1579 0.960 . S
C1592 C1591 1.524 . S
C1593 C1590 1.403 1_554 S
C1593 C1594 1.392 . S
C1593 C1597 1.495 . S
C1594 C1593 1.392 . S
C1594 C1595 1.385 . S
C1594 C1596 1.478 . S
C1595 H1589 0.930 . S
C1595 C1591 1.400 1_554 S
C1595 C1594 1.385 . S
C1596 C1594 1.478 . S
C1596 C1598 1.381 . S
C1596 C1602 1.383 . S
C1597 C1593 1.495 . S
C1597 H1603 0.959 . S
C1597 H1604 0.961 . S
C1597 H1605 0.960 . S
C1598 C1596 1.381 . S
C1598 C1599 1.394 . S
C1598 H1606 0.930 . S
C1599 C1598 1.394 . S
C1599 C1600 1.383 . S
C1599 H1607 0.929 . S
C1600 C1599 1.383 . S
C1600 C1601 1.377 . S
C1601 H1585 0.930 . S
C1601 C1600 1.377 . S
C1601 C1602 1.379 . S
C1602 H1586 0.931 . S
C1602 C1596 1.383 . S
C1602 C1601 1.379 . S
H1603 C1597 0.959 . S
H1604 C1597 0.961 . S
H1605 C1597 0.960 . S
H1606 C1598 0.930 . S
H1607 C1599 0.929 . S
H1608 C1616 0.929 . S
H1609 C1618 0.930 . S
H1610 C1620 0.930 . S
H1611 C1623 0.929 . S
H1612 C1626 0.930 . S
H1613 C1628 0.960 . S
H1614 C1628 0.960 . S
H1615 C1628 0.960 . S
C1616 H1608 0.929 . S
C1616 C1617 1.377 . S
C1616 C1618 1.384 . S
C1617 C1616 1.377 . S
C1617 C1623 1.390 . S
C1618 H1609 0.930 . S
C1618 C1616 1.384 . S
C1618 C1619 1.372 . S
C1619 C1618 1.372 . S
C1619 C1620 1.400 . S
C1619 C1624 1.490 . S
C1620 H1610 0.930 . S
C1620 C1619 1.400 . S
C1620 C1623 1.386 . S
H1621 C1637 0.930 . S
H1622 C1638 0.931 . S
C1623 H1611 0.929 . S
C1623 C1617 1.390 . S
C1623 C1620 1.386 . S
C1624 C1619 1.490 . S
C1624 C1626 1.395 . S
C1624 C1627 1.403 . S
H1625 C1631 0.930 . S
C1626 H1612 0.930 . S
C1626 C1624 1.395 . S
C1626 C1629 1.403 . S
C1627 C1624 1.403 . S
C1627 C1628 1.524 . S
C1627 C1631 1.400 . S
C1628 H1613 0.960 . S
C1628 H1614 0.960 . S
C1628 H1615 0.960 . S
C1628 C1627 1.524 . S
C1629 C1626 1.403 . S
C1629 C1630 1.392 . S
C1629 C1633 1.495 . S
C1630 C1629 1.392 . S
C1630 C1631 1.385 . S
C1630 C1632 1.478 . S
C1631 H1625 0.930 . S
C1631 C1627 1.400 . S
C1631 C1630 1.385 . S
C1632 C1630 1.478 . S
C1632 C1634 1.381 . S
C1632 C1638 1.383 . S
C1633 C1629 1.495 . S
C1633 H1639 0.959 . S
C1633 H1640 0.961 . S
C1633 H1641 0.960 . S
C1634 C1632 1.381 . S
C1634 C1635 1.394 . S
C1634 H1642 0.930 . S
C1635 C1634 1.394 . S
C1635 C1636 1.383 . S
C1635 H1643 0.929 . S
C1636 C1635 1.383 . S
C1636 C1637 1.377 . S
C1637 H1621 0.930 . S
C1637 C1636 1.377 . S
C1637 C1638 1.379 . S
C1638 H1622 0.931 . S
C1638 C1632 1.383 . S
C1638 C1637 1.379 . S
H1639 C1633 0.959 . S
H1640 C1633 0.961 . S
H1641 C1633 0.960 . S
H1642 C1634 0.930 . S
H1643 C1635 0.929 . S
H1644 C1652 0.929 . S
H1645 C1654 0.930 . S
H1646 C1656 0.930 . S
H1647 C1659 0.929 . S
H1648 C1662 0.930 . S
H1649 C1664 0.960 . S
H1650 C1664 0.960 . S
H1651 C1664 0.960 . S
C1652 H1644 0.929 . S
C1652 C1653 1.377 . S
C1652 C1654 1.384 . S
C1653 C1652 1.377 . S
C1653 C1659 1.390 . S
C1654 H1645 0.930 . S
C1654 C1652 1.384 . S
C1654 C1655 1.372 . S
C1655 C1654 1.372 . S
C1655 C1656 1.400 . S
C1655 C1660 1.490 . S
C1656 H1646 0.930 . S
C1656 C1655 1.400 . S
C1656 C1659 1.386 . S
H1657 C1673 0.930 . S
H1658 C1674 0.931 . S
C1659 H1647 0.929 . S
C1659 C1653 1.390 . S
C1659 C1656 1.386 . S
C1660 C1655 1.490 . S
C1660 C1662 1.395 . S
C1660 C1663 1.403 . S
H1661 C1667 0.930 . S
C1662 H1648 0.930 . S
C1662 C1660 1.395 . S
C1662 C1665 1.403 . S
C1663 C1660 1.403 . S
C1663 C1664 1.524 . S
C1663 C1667 1.400 . S
C1664 H1649 0.960 . S
C1664 H1650 0.960 . S
C1664 H1651 0.960 . S
C1664 C1663 1.524 . S
C1665 C1662 1.403 . S
C1665 C1666 1.392 . S
C1665 C1669 1.495 . S
C1666 C1665 1.392 . S
C1666 C1667 1.385 . S
C1666 C1668 1.478 . S
C1667 H1661 0.930 . S
C1667 C1663 1.400 . S
C1667 C1666 1.385 . S
C1668 C1666 1.478 . S
C1668 C1670 1.381 . S
C1668 C1674 1.383 . S
C1669 C1665 1.495 . S
C1669 H1675 0.959 . S
C1669 H1676 0.961 . S
C1669 H1677 0.960 . S
C1670 C1668 1.381 . S
C1670 C1671 1.394 . S
C1670 H1678 0.930 . S
C1671 C1670 1.394 . S
C1671 C1672 1.383 . S
C1671 H1679 0.929 . S
C1672 C1671 1.383 . S
C1672 C1673 1.377 . S
C1673 H1657 0.930 . S
C1673 C1672 1.377 . S
C1673 C1674 1.379 . S
C1674 H1658 0.931 . S
C1674 C1668 1.383 . S
C1674 C1673 1.379 . S
H1675 C1669 0.959 . S
H1676 C1669 0.961 . S
H1677 C1669 0.960 . S
H1678 C1670 0.930 . S
H1679 C1671 0.929 . S
H1680 C1688 0.929 . S
H1681 C1690 0.930 . S
H1682 C1692 0.930 . S
H1683 C1695 0.929 . S
H1684 C1698 0.930 . S
H1685 C1700 0.960 . S
H1686 C1700 0.960 . S
H1687 C1700 0.960 . S
C1688 H1680 0.929 . S
C1688 C1689 1.377 . S
C1688 C1690 1.384 . S
C1689 C1688 1.377 . S
C1689 C1695 1.390 . S
C1690 H1681 0.930 . S
C1690 C1688 1.384 . S
C1690 C1691 1.372 . S
C1691 C1690 1.372 . S
C1691 C1692 1.400 . S
C1691 C1696 1.490 . S
C1692 H1682 0.930 . S
C1692 C1691 1.400 . S
C1692 C1695 1.386 . S
H1693 C1709 0.930 . S
H1694 C1710 0.931 . S
C1695 H1683 0.929 . S
C1695 C1689 1.390 . S
C1695 C1692 1.386 . S
C1696 C1691 1.490 . S
C1696 C1698 1.395 . S
C1696 C1699 1.403 . S
H1697 C1703 0.930 . S
C1698 H1684 0.930 . S
C1698 C1696 1.395 . S
C1698 C1701 1.403 . S
C1699 C1696 1.403 . S
C1699 C1700 1.524 . S
C1699 C1703 1.400 . S
C1700 H1685 0.960 . S
C1700 H1686 0.960 . S
C1700 H1687 0.960 . S
C1700 C1699 1.524 . S
C1701 C1698 1.403 . S
C1701 C1702 1.392 . S
C1701 C1705 1.495 . S
C1702 C1701 1.392 . S
C1702 C1703 1.385 . S
C1702 C1704 1.478 . S
C1703 H1697 0.930 . S
C1703 C1699 1.400 . S
C1703 C1702 1.385 . S
C1704 C1702 1.478 . S
C1704 C1706 1.381 . S
C1704 C1710 1.383 . S
C1705 C1701 1.495 . S
C1705 H1711 0.959 . S
C1705 H1712 0.961 . S
C1705 H1713 0.960 . S
C1706 C1704 1.381 . S
C1706 C1707 1.394 . S
C1706 H1714 0.930 . S
C1707 C1706 1.394 . S
C1707 C1708 1.383 . S
C1707 H1715 0.929 . S
C1708 C1707 1.383 . S
C1708 C1709 1.377 . S
C1709 H1693 0.930 . S
C1709 C1708 1.377 . S
C1709 C1710 1.379 . S
C1710 H1694 0.931 . S
C1710 C1704 1.383 . S
C1710 C1709 1.379 . S
H1711 C1705 0.959 . S
H1712 C1705 0.961 . S
H1713 C1705 0.960 . S
H1714 C1706 0.930 . S
H1715 C1707 0.929 . S
H1716 C1724 0.929 . S
H1717 C1726 0.930 . S
H1718 C1728 0.930 . S
H1719 C1731 0.929 . S
H1720 C1734 0.930 . S
H1721 C1736 0.960 . S
H1722 C1736 0.960 . S
H1723 C1736 0.960 . S
C1724 H1716 0.929 . S
C1724 C1725 1.377 . S
C1724 C1726 1.384 . S
C1725 C1724 1.377 . S
C1725 C1731 1.390 . S
C1726 H1717 0.930 . S
C1726 C1724 1.384 . S
C1726 C1727 1.372 . S
C1727 C1726 1.372 . S
C1727 C1728 1.400 . S
C1727 C1732 1.490 . S
C1728 H1718 0.930 . S
C1728 C1727 1.400 . S
C1728 C1731 1.386 . S
H1729 C1745 0.930 . S
H1730 C1746 0.931 . S
C1731 H1719 0.929 . S
C1731 C1725 1.390 . S
C1731 C1728 1.386 . S
C1732 C1727 1.490 . S
C1732 C1734 1.395 . S
C1732 C1735 1.403 . S
H1733 C1739 0.930 . S
C1734 H1720 0.930 . S
C1734 C1732 1.395 . S
C1734 C1737 1.403 . S
C1735 C1732 1.403 . S
C1735 C1736 1.524 . S
C1735 C1739 1.400 . S
C1736 H1721 0.960 . S
C1736 H1722 0.960 . S
C1736 H1723 0.960 . S
C1736 C1735 1.524 . S
C1737 C1734 1.403 . S
C1737 C1738 1.392 . S
C1737 C1741 1.495 . S
C1738 C1737 1.392 . S
C1738 C1739 1.385 . S
C1738 C1740 1.478 . S
C1739 H1733 0.930 . S
C1739 C1735 1.400 . S
C1739 C1738 1.385 . S
C1740 C1738 1.478 . S
C1740 C1742 1.381 . S
C1740 C1746 1.383 . S
C1741 C1737 1.495 . S
C1741 H1747 0.959 . S
C1741 H1748 0.961 . S
C1741 H1749 0.960 . S
C1742 C1740 1.381 . S
C1742 C1743 1.394 . S
C1742 H1750 0.930 . S
C1743 C1742 1.394 . S
C1743 C1744 1.383 . S
C1743 H1751 0.929 . S
C1744 C1743 1.383 . S
C1744 C1745 1.377 . S
C1745 H1729 0.930 . S
C1745 C1744 1.377 . S
C1745 C1746 1.379 . S
C1746 H1730 0.931 . S
C1746 C1740 1.383 . S
C1746 C1745 1.379 . S
H1747 C1741 0.959 . S
H1748 C1741 0.961 . S
H1749 C1741 0.960 . S
H1750 C1742 0.930 . S
H1751 C1743 0.929 . S
H1752 C1760 0.929 . S
H1753 C1762 0.930 . S
H1754 C1764 0.930 . S
H1755 C1767 0.929 . S
H1756 C1770 0.930 . S
H1757 C1772 0.960 . S
H1758 C1772 0.960 . S
H1759 C1772 0.960 . S
C1760 H1752 0.929 . S
C1760 C1761 1.377 . S
C1760 C1762 1.384 . S
C1761 C1760 1.377 . S
C1761 C1767 1.390 . S
C1762 H1753 0.930 . S
C1762 C1760 1.384 . S
C1762 C1763 1.372 . S
C1763 C1762 1.372 . S
C1763 C1764 1.400 . S
C1763 C1768 1.490 . S
C1764 H1754 0.930 . S
C1764 C1763 1.400 . S
C1764 C1767 1.386 . S
H1765 C1781 0.930 . S
H1766 C1782 0.931 . S
C1767 H1755 0.929 . S
C1767 C1761 1.390 . S
C1767 C1764 1.386 . S
C1768 C1763 1.490 . S
C1768 C1770 1.395 . S
C1768 C1771 1.403 . S
H1769 C1775 0.930 . S
C1770 H1756 0.930 . S
C1770 C1768 1.395 . S
C1770 C1773 1.403 . S
C1771 C1768 1.403 . S
C1771 C1772 1.524 . S
C1771 C1775 1.400 . S
C1772 H1757 0.960 . S
C1772 H1758 0.960 . S
C1772 H1759 0.960 . S
C1772 C1771 1.524 . S
C1773 C1770 1.403 . S
C1773 C1774 1.392 . S
C1773 C1777 1.495 . S
C1774 C1773 1.392 . S
C1774 C1775 1.385 . S
C1774 C1776 1.478 . S
C1775 H1769 0.930 . S
C1775 C1771 1.400 . S
C1775 C1774 1.385 . S
C1776 C1774 1.478 . S
C1776 C1778 1.381 . S
C1776 C1782 1.383 . S
C1777 C1773 1.495 . S
C1777 H1783 0.959 . S
C1777 H1784 0.961 . S
C1777 H1785 0.960 . S
C1778 C1776 1.381 . S
C1778 C1779 1.394 . S
C1778 H1786 0.930 . S
C1779 C1778 1.394 . S
C1779 C1780 1.383 . S
C1779 H1787 0.929 . S
C1780 C1779 1.383 . S
C1780 C1781 1.377 . S
C1781 H1765 0.930 . S
C1781 C1780 1.377 . S
C1781 C1782 1.379 . S
C1782 H1766 0.931 . S
C1782 C1776 1.383 . S
C1782 C1781 1.379 . S
H1783 C1777 0.959 . S
H1784 C1777 0.961 . S
H1785 C1777 0.960 . S
H1786 C1778 0.930 . S
H1787 C1779 0.929 . S
H1788 C1796 0.929 . S
H1789 C1798 0.930 . S
H1790 C1800 0.930 . S
H1791 C1803 0.929 . S
H1792 C1806 0.930 . S
H1793 C1808 0.960 . S
H1794 C1808 0.960 . S
H1795 C1808 0.960 . S
C1796 H1788 0.929 . S
C1796 C1797 1.377 . S
C1796 C1798 1.384 . S
C1797 C1796 1.377 . S
C1797 C1803 1.390 . S
C1798 H1789 0.930 . S
C1798 C1796 1.384 . S
C1798 C1799 1.372 . S
C1799 C1798 1.372 . S
C1799 C1800 1.400 . S
C1799 C1804 1.490 . S
C1800 H1790 0.930 . S
C1800 C1799 1.400 . S
C1800 C1803 1.386 . S
H1801 C1817 0.930 . S
H1802 C1818 0.931 . S
C1803 H1791 0.929 . S
C1803 C1797 1.390 . S
C1803 C1800 1.386 . S
C1804 C1799 1.490 . S
C1804 C1806 1.395 . S
C1804 C1807 1.403 . S
H1805 C1811 0.930 . S
C1806 H1792 0.930 . S
C1806 C1804 1.395 . S
C1806 C1809 1.403 . S
C1807 C1804 1.403 . S
C1807 C1808 1.524 . S
C1807 C1811 1.400 . S
C1808 H1793 0.960 . S
C1808 H1794 0.960 . S
C1808 H1795 0.960 . S
C1808 C1807 1.524 . S
C1809 C1806 1.403 . S
C1809 C1810 1.392 . S
C1809 C1813 1.495 . S
C1810 C1809 1.392 . S
C1810 C1811 1.385 . S
C1810 C1812 1.478 . S
C1811 H1805 0.930 . S
C1811 C1807 1.400 . S
C1811 C1810 1.385 . S
C1812 C1810 1.478 . S
C1812 C1814 1.381 . S
C1812 C1818 1.383 . S
C1813 C1809 1.495 . S
C1813 H1819 0.959 . S
C1813 H1820 0.961 . S
C1813 H1821 0.960 . S
C1814 C1812 1.381 . S
C1814 C1815 1.394 . S
C1814 H1822 0.930 . S
C1815 C1814 1.394 . S
C1815 C1816 1.383 . S
C1815 H1823 0.929 . S
C1816 C1815 1.383 . S
C1816 C1817 1.377 . S
C1817 H1801 0.930 . S
C1817 C1816 1.377 . S
C1817 C1818 1.379 . S
C1818 H1802 0.931 . S
C1818 C1812 1.383 . S
C1818 C1817 1.379 . S
H1819 C1813 0.959 . S
H1820 C1813 0.961 . S
H1821 C1813 0.960 . S
H1822 C1814 0.930 . S
H1823 C1815 0.929 . S
H1824 C1832 0.929 . S
H1825 C1834 0.930 . S
H1826 C1836 0.930 . S
H1827 C1839 0.929 . S
H1828 C1842 0.930 . S
H1829 C1844 0.960 . S
H1830 C1844 0.960 . S
H1831 C1844 0.960 . S
C1832 H1824 0.929 . S
C1832 C1833 1.377 . S
C1832 C1834 1.384 . S
C1833 C1832 1.377 . S
C1833 C1839 1.390 . S
C1834 H1825 0.930 . S
C1834 C1832 1.384 . S
C1834 C1835 1.372 . S
C1835 C1834 1.372 . S
C1835 C1836 1.400 . S
C1835 C1840 1.490 . S
C1836 H1826 0.930 . S
C1836 C1835 1.400 . S
C1836 C1839 1.386 . S
H1837 C1853 0.930 . S
H1838 C1854 0.931 . S
C1839 H1827 0.929 . S
C1839 C1833 1.390 . S
C1839 C1836 1.386 . S
C1840 C1835 1.490 . S
C1840 C1842 1.395 . S
C1840 C1843 1.403 . S
H1841 C1847 0.930 . S
C1842 H1828 0.930 . S
C1842 C1840 1.395 . S
C1842 C1845 1.403 . S
C1843 C1840 1.403 . S
C1843 C1844 1.524 . S
C1843 C1847 1.400 . S
C1844 H1829 0.960 . S
C1844 H1830 0.960 . S
C1844 H1831 0.960 . S
C1844 C1843 1.524 . S
C1845 C1842 1.403 . S
C1845 C1846 1.392 . S
C1845 C1849 1.495 . S
C1846 C1845 1.392 . S
C1846 C1847 1.385 . S
C1846 C1848 1.478 . S
C1847 H1841 0.930 . S
C1847 C1843 1.400 . S
C1847 C1846 1.385 . S
C1848 C1846 1.478 . S
C1848 C1850 1.381 . S
C1848 C1854 1.383 . S
C1849 C1845 1.495 . S
C1849 H1855 0.959 . S
C1849 H1856 0.961 . S
C1849 H1857 0.960 . S
C1850 C1848 1.381 . S
C1850 C1851 1.394 . S
C1850 H1858 0.930 . S
C1851 C1850 1.394 . S
C1851 C1852 1.383 . S
C1851 H1859 0.929 . S
C1852 C1851 1.383 . S
C1852 C1853 1.377 . S
C1853 H1837 0.930 . S
C1853 C1852 1.377 . S
C1853 C1854 1.379 . S
C1854 H1838 0.931 . S
C1854 C1848 1.383 . S
C1854 C1853 1.379 . S
H1855 C1849 0.959 . S
H1856 C1849 0.961 . S
H1857 C1849 0.960 . S
H1858 C1850 0.930 . S
H1859 C1851 0.929 . S
H1860 C1868 0.929 . S
H1861 C1870 0.930 . S
H1862 C1872 0.930 . S
H1863 C1875 0.929 . S
H1864 C1878 0.930 . S
H1865 C1880 0.960 . S
H1866 C1880 0.960 . S
H1867 C1880 0.960 . S
C1868 H1860 0.929 . S
C1868 C1869 1.377 . S
C1868 C1870 1.384 . S
C1869 C1868 1.377 . S
C1869 C1875 1.390 . S
C1870 H1861 0.930 . S
C1870 C1868 1.384 . S
C1870 C1871 1.372 . S
C1871 C1870 1.372 . S
C1871 C1872 1.400 . S
C1871 C1876 1.490 . S
C1872 H1862 0.930 . S
C1872 C1871 1.400 . S
C1872 C1875 1.386 . S
H1873 C1889 0.930 . S
H1874 C1890 0.931 . S
C1875 H1863 0.929 . S
C1875 C1869 1.390 . S
C1875 C1872 1.386 . S
C1876 C1871 1.490 . S
C1876 C1878 1.395 . S
C1876 C1879 1.403 . S
H1877 C1883 0.930 . S
C1878 H1864 0.930 . S
C1878 C1876 1.395 . S
C1878 C1881 1.403 . S
C1879 C1876 1.403 . S
C1879 C1880 1.524 . S
C1879 C1883 1.400 . S
C1880 H1865 0.960 . S
C1880 H1866 0.960 . S
C1880 H1867 0.960 . S
C1880 C1879 1.524 . S
C1881 C1878 1.403 . S
C1881 C1882 1.392 . S
C1881 C1885 1.495 . S
C1882 C1881 1.392 . S
C1882 C1883 1.385 . S
C1882 C1884 1.478 . S
C1883 H1877 0.930 . S
C1883 C1879 1.400 . S
C1883 C1882 1.385 . S
C1884 C1882 1.478 . S
C1884 C1886 1.381 . S
C1884 C1890 1.383 . S
C1885 C1881 1.495 . S
C1885 H1891 0.959 . S
C1885 H1892 0.961 . S
C1885 H1893 0.960 . S
C1886 C1884 1.381 . S
C1886 C1887 1.394 . S
C1886 H1894 0.930 . S
C1887 C1886 1.394 . S
C1887 C1888 1.383 . S
C1887 H1895 0.929 . S
C1888 C1887 1.383 . S
C1888 C1889 1.377 . S
C1889 H1873 0.930 . S
C1889 C1888 1.377 . S
C1889 C1890 1.379 . S
C1890 H1874 0.931 . S
C1890 C1884 1.383 . S
C1890 C1889 1.379 . S
H1891 C1885 0.959 . S
H1892 C1885 0.961 . S
H1893 C1885 0.960 . S
H1894 C1886 0.930 . S
H1895 C1887 0.929 . S
H1896 C1904 0.929 . S
H1897 C1906 0.930 . S
H1898 C1908 0.930 . S
H1899 C1911 0.929 . S
H1900 C1914 0.930 . S
H1901 C1916 0.960 . S
H1902 C1916 0.960 . S
H1903 C1916 0.960 . S
C1904 H1896 0.929 . S
C1904 C1905 1.377 . S
C1904 C1906 1.384 . S
C1905 C1904 1.377 . S
C1905 C1911 1.390 . S
C1906 H1897 0.930 . S
C1906 C1904 1.384 . S
C1906 C1907 1.372 . S
C1907 C1906 1.372 . S
C1907 C1908 1.400 . S
C1907 C1912 1.490 . S
C1908 H1898 0.930 . S
C1908 C1907 1.400 . S
C1908 C1911 1.386 . S
H1909 C1925 0.930 . S
H1910 C1926 0.931 . S
C1911 H1899 0.929 . S
C1911 C1905 1.390 . S
C1911 C1908 1.386 . S
C1912 C1907 1.490 . S
C1912 C1914 1.395 . S
C1912 C1915 1.403 . S
H1913 C1919 0.930 . S
C1914 H1900 0.930 . S
C1914 C1912 1.395 . S
C1914 C1917 1.403 . S
C1915 C1912 1.403 . S
C1915 C1916 1.524 . S
C1915 C1919 1.400 . S
C1916 H1901 0.960 . S
C1916 H1902 0.960 . S
C1916 H1903 0.960 . S
C1916 C1915 1.524 . S
C1917 C1914 1.403 . S
C1917 C1918 1.392 . S
C1917 C1921 1.495 . S
C1918 C1917 1.392 . S
C1918 C1919 1.385 . S
C1918 C1920 1.478 . S
C1919 H1913 0.930 . S
C1919 C1915 1.400 . S
C1919 C1918 1.385 . S
C1920 C1918 1.478 . S
C1920 C1922 1.381 . S
C1920 C1926 1.383 . S
C1921 C1917 1.495 . S
C1921 H1927 0.959 . S
C1921 H1928 0.961 . S
C1921 H1929 0.960 . S
C1922 C1920 1.381 . S
C1922 C1923 1.394 . S
C1922 H1930 0.930 . S
C1923 C1922 1.394 . S
C1923 C1924 1.383 . S
C1923 H1931 0.929 . S
C1924 C1923 1.383 . S
C1924 C1925 1.377 . S
C1925 H1909 0.930 . S
C1925 C1924 1.377 . S
C1925 C1926 1.379 . S
C1926 H1910 0.931 . S
C1926 C1920 1.383 . S
C1926 C1925 1.379 . S
H1927 C1921 0.959 . S
H1928 C1921 0.961 . S
H1929 C1921 0.960 . S
H1930 C1922 0.930 . S
H1931 C1923 0.929 . S
H1932 C1940 0.929 . S
H1933 C1942 0.930 . S
H1934 C1944 0.930 . S
H1935 C1947 0.929 . S
H1936 C1950 0.930 . S
H1937 C1952 0.960 . S
H1938 C1952 0.960 . S
H1939 C1952 0.960 . S
C1940 H1932 0.929 . S
C1940 C1941 1.377 . S
C1940 C1942 1.384 . S
C1941 C1940 1.377 . S
C1941 C1947 1.390 . S
C1942 H1933 0.930 . S
C1942 C1940 1.384 . S
C1942 C1943 1.372 . S
C1943 C1942 1.372 . S
C1943 C1944 1.400 . S
C1943 C1948 1.490 . S
C1944 H1934 0.930 . S
C1944 C1943 1.400 . S
C1944 C1947 1.386 . S
H1945 C1961 0.930 . S
H1946 C1962 0.931 . S
C1947 H1935 0.929 . S
C1947 C1941 1.390 . S
C1947 C1944 1.386 . S
C1948 C1943 1.490 . S
C1948 C1950 1.395 . S
C1948 C1951 1.403 . S
H1949 C1955 0.930 . S
C1950 H1936 0.930 . S
C1950 C1948 1.395 . S
C1950 C1953 1.403 . S
C1951 C1948 1.403 . S
C1951 C1952 1.524 . S
C1951 C1955 1.400 . S
C1952 H1937 0.960 . S
C1952 H1938 0.960 . S
C1952 H1939 0.960 . S
C1952 C1951 1.524 . S
C1953 C1950 1.403 . S
C1953 C1954 1.392 . S
C1953 C1957 1.495 . S
C1954 C1953 1.392 . S
C1954 C1955 1.385 . S
C1954 C1956 1.478 . S
C1955 H1949 0.930 . S
C1955 C1951 1.400 . S
C1955 C1954 1.385 . S
C1956 C1954 1.478 . S
C1956 C1958 1.381 . S
C1956 C1962 1.383 . S
C1957 C1953 1.495 . S
C1957 H1963 0.959 . S
C1957 H1964 0.961 . S
C1957 H1965 0.960 . S
C1958 C1956 1.381 . S
C1958 C1959 1.394 . S
C1958 H1966 0.930 . S
C1959 C1958 1.394 . S
C1959 C1960 1.383 . S
C1959 H1967 0.929 . S
C1960 C1959 1.383 . S
C1960 C1961 1.377 . S
C1961 H1945 0.930 . S
C1961 C1960 1.377 . S
C1961 C1962 1.379 . S
C1962 H1946 0.931 . S
C1962 C1956 1.383 . S
C1962 C1961 1.379 . S
H1963 C1957 0.959 . S
H1964 C1957 0.961 . S
H1965 C1957 0.960 . S
H1966 C1958 0.930 . S
H1967 C1959 0.929 . S
H1968 C1976 0.929 . S
H1969 C1978 0.930 . S
H1970 C1980 0.930 . S
H1971 C1983 0.929 . S
H1972 C1986 0.930 . S
H1973 C1988 0.960 . S
H1974 C1988 0.960 . S
H1975 C1988 0.960 . S
C1976 H1968 0.929 . S
C1976 C1977 1.377 . S
C1976 C1978 1.384 . S
C1977 C1976 1.377 . S
C1977 C1983 1.390 . S
C1978 H1969 0.930 . S
C1978 C1976 1.384 . S
C1978 C1979 1.372 . S
C1979 C1978 1.372 . S
C1979 C1980 1.400 . S
C1979 C1984 1.490 . S
C1980 H1970 0.930 . S
C1980 C1979 1.400 . S
C1980 C1983 1.386 . S
H1981 C1997 0.930 . S
H1982 C1998 0.931 . S
C1983 H1971 0.929 . S
C1983 C1977 1.390 . S
C1983 C1980 1.386 . S
C1984 C1979 1.490 . S
C1984 C1986 1.395 . S
C1984 C1987 1.403 . S
H1985 C1991 0.930 . S
C1986 H1972 0.930 . S
C1986 C1984 1.395 . S
C1986 C1989 1.403 . S
C1987 C1984 1.403 . S
C1987 C1988 1.524 . S
C1987 C1991 1.400 . S
C1988 H1973 0.960 . S
C1988 H1974 0.960 . S
C1988 H1975 0.960 . S
C1988 C1987 1.524 . S
C1989 C1986 1.403 . S
C1989 C1990 1.392 . S
C1989 C1993 1.495 . S
C1990 C1989 1.392 . S
C1990 C1991 1.385 . S
C1990 C1992 1.478 . S
C1991 H1985 0.930 . S
C1991 C1987 1.400 . S
C1991 C1990 1.385 . S
C1992 C1990 1.478 . S
C1992 C1994 1.381 . S
C1992 C1998 1.383 . S
C1993 C1989 1.495 . S
C1993 H1999 0.959 . S
C1993 H2000 0.961 . S
C1993 H2001 0.960 . S
C1994 C1992 1.381 . S
C1994 C1995 1.394 . S
C1994 H2002 0.930 . S
C1995 C1994 1.394 . S
C1995 C1996 1.383 . S
C1995 H2003 0.929 . S
C1996 C1995 1.383 . S
C1996 C1997 1.377 . S
C1997 H1981 0.930 . S
C1997 C1996 1.377 . S
C1997 C1998 1.379 . S
C1998 H1982 0.931 . S
C1998 C1992 1.383 . S
C1998 C1997 1.379 . S
H1999 C1993 0.959 . S
H2000 C1993 0.961 . S
H2001 C1993 0.960 . S
H2002 C1994 0.930 . S
H2003 C1995 0.929 . S
H2004 C2012 0.929 . S
H2005 C2014 0.930 . S
H2006 C2016 0.930 . S
H2007 C2019 0.929 . S
H2008 C2022 0.930 . S
H2009 C2024 0.960 . S
H2010 C2024 0.960 . S
H2011 C2024 0.960 . S
C2012 H2004 0.929 . S
C2012 C2013 1.377 . S
C2012 C2014 1.384 . S
C2013 C2012 1.377 . S
C2013 C2019 1.390 . S
C2014 H2005 0.930 . S
C2014 C2012 1.384 . S
C2014 C2015 1.372 . S
C2015 C2014 1.372 . S
C2015 C2016 1.400 . S
C2015 C2020 1.490 . S
C2016 H2006 0.930 . S
C2016 C2015 1.400 . S
C2016 C2019 1.386 . S
H2017 C2033 0.930 . S
H2018 C2034 0.931 . S
C2019 H2007 0.929 . S
C2019 C2013 1.390 . S
C2019 C2016 1.386 . S
C2020 C2015 1.490 . S
C2020 C2022 1.395 . S
C2020 C2023 1.403 . S
H2021 C2027 0.930 . S
C2022 H2008 0.930 . S
C2022 C2020 1.395 . S
C2022 C2025 1.403 . S
C2023 C2020 1.403 . S
C2023 C2024 1.524 . S
C2023 C2027 1.400 . S
C2024 H2009 0.960 . S
C2024 H2010 0.960 . S
C2024 H2011 0.960 . S
C2024 C2023 1.524 . S
C2025 C2022 1.403 . S
C2025 C2026 1.392 . S
C2025 C2029 1.495 . S
C2026 C2025 1.392 . S
C2026 C2027 1.385 . S
C2026 C2028 1.478 . S
C2027 H2021 0.930 . S
C2027 C2023 1.400 . S
C2027 C2026 1.385 . S
C2028 C2026 1.478 . S
C2028 C2030 1.381 . S
C2028 C2034 1.383 . S
C2029 C2025 1.495 . S
C2029 H2035 0.959 . S
C2029 H2036 0.961 . S
C2029 H2037 0.960 . S
C2030 C2028 1.381 . S
C2030 C2031 1.394 . S
C2030 H2038 0.930 . S
C2031 C2030 1.394 . S
C2031 C2032 1.383 . S
C2031 H2039 0.929 . S
C2032 C2031 1.383 . S
C2032 C2033 1.377 . S
C2033 H2017 0.930 . S
C2033 C2032 1.377 . S
C2033 C2034 1.379 . S
C2034 H2018 0.931 . S
C2034 C2028 1.383 . S
C2034 C2033 1.379 . S
H2035 C2029 0.959 . S
H2036 C2029 0.961 . S
H2037 C2029 0.960 . S
H2038 C2030 0.930 . S
H2039 C2031 0.929 . S
C321 C153 1.370 . S
C340 C8 1.325 . S
C357 C21 1.351 . S
C376 C114 1.390 . S
C393 C34 1.340 . S
C412 C127 1.344 . S
C429 C47 1.352 . S
C448 C140 1.386 . S
C465 C179 1.368 . S
C484 C60 1.317 . S
C501 C73 1.342 . S
C520 C192 1.341 . S
C537 C205 1.370 . S
C556 C86 1.324 . S
C573 C166 1.374 . S
C592 C99 1.370 . S
C609 C75 1.366 . S
C628 C112 1.354 . S
C645 C88 1.367 . S
C664 C125 1.313 . S
C681 C138 1.340 . S
C700 C101 1.346 . S
C717 C62 1.364 . S
C736 C151 1.321 . S
C753 C49 1.374 . S
C772 C164 1.365 . S
C789 C177 1.340 . S
C808 C10 1.345 . S
C825 C190 1.352 . S
C844 C23 1.389 . S
C861 C203 1.351 . S
C880 C36 1.390 . S
C897 C216 1.353 . S
C916 C309 1.385 . S
C933 C270 1.366 . S
C952 C229 1.353 . S
C969 C242 1.352 . S
C988 C231 1.389 . S
C1005 C255 1.351 . S
C1024 C244 1.390 . S
C1041 C257 1.367 . S
C1060 C268 1.360 . S
C1077 C281 1.352 . S
C1096 C296 1.388 . S
C1113 C218 1.373 . S
C1132 C294 1.348 . S
C1149 C283 1.370 . S
C1168 C307 1.323 . S
C1185 C5 1.262 . S
C1204 C83 1.247 . S
C1221 C18 1.270 . S
C1240 C96 1.234 . S
C1257 C31 1.274 . S
C1276 C57 1.261 . S
C1293 C70 1.261 . S
C1312 C44 1.281 . S
C1329 C135 1.274 . S
C1348 C109 1.271 . S
C1365 C122 1.261 . S
C1384 C148 1.251 . S
C1401 C161 1.272 . S
C1420 C187 1.238 . S
C1437 C200 1.261 . S
C1456 C174 1.263 . S
C1473 C226 1.264 . S
C1492 C213 1.239 . S
C1509 C239 1.264 . S
C1528 C304 1.294 . S
C1545 C252 1.264 . S
C1564 C278 1.295 . S
C1581 C265 1.265 . S
C1600 C291 1.296 . S
C1617 C0 0.824 . S
C1636 C65 0.841 . S
C1653 C13 0.823 . S
C1672 C78 0.859 . S
C1689 C26 0.823 . S
C1708 C91 0.845 . S
C1725 C52 0.830 . S
C1744 C39 0.863 . S
C1761 C104 0.835 . S
C1780 C299 0.844 . S
C1797 C117 0.823 . S
C1816 C273 0.859 . S
C1833 C286 0.824 . S
C1852 C130 0.836 . S
C1869 C143 0.838 . S
C1888 C208 0.820 . S
C1905 C260 0.834 . S
C1924 C156 0.847 . S
C1941 C221 0.833 . S
C1960 C169 0.853 . S
C1977 C182 0.837 . S
C1996 C234 0.795 . S
C2013 C247 0.830 . S
C2032 C195 0.862 . S
