# Generated by pormake.
# Topology zfh, (5)-cn, num edge types: 1
# Building blocks:
#     Node 0, Type 0, BuildingBlock: BEQFEK_clean_sbu_0, # of connection points: 5
#     Node 1, Type 0, BuildingBlock: BEQFEK_clean_sbu_0, # of connection points: 5
#     Node 2, Type 0, BuildingBlock: BEQFEK_clean_sbu_0, # of connection points: 5
#     Node 3, Type 0, BuildingBlock: BEQFEK_clean_sbu_0, # of connection points: 5
#     Node 4, Type 0, BuildingBlock: BEQFEK_clean_sbu_0, # of connection points: 5
#     Node 5, Type 0, BuildingBlock: BEQFEK_clean_sbu_0, # of connection points: 5
#     Node 6, Type 0, BuildingBlock: BEQFEK_clean_sbu_0, # of connection points: 5
#     Node 7, Type 0, BuildingBlock: BEQFEK_clean_sbu_0, # of connection points: 5
#     Node 8, Type 0, BuildingBlock: BEQFEK_clean_sbu_0, # of connection points: 5
#     Node 9, Type 0, BuildingBlock: BEQFEK_clean_sbu_0, # of connection points: 5
#     Node 10, Type 0, BuildingBlock: BEQFEK_clean_sbu_0, # of connection points: 5
#     Node 11, Type 0, BuildingBlock: BEQFEK_clean_sbu_0, # of connection points: 5
#     Node 12, Type 0, BuildingBlock: BEQFEK_clean_sbu_0, # of connection points: 5
#     Node 13, Type 0, BuildingBlock: BEQFEK_clean_sbu_0, # of connection points: 5
#     Node 14, Type 0, BuildingBlock: BEQFEK_clean_sbu_0, # of connection points: 5
#     Node 15, Type 0, BuildingBlock: BEQFEK_clean_sbu_0, # of connection points: 5
#     Edge 16, Type (0, 0), BuildingBlock: KIFKEQ_clean_linker_1, # of connection points: 2
#     Edge 17, Type (0, 0), BuildingBlock: KIFKEQ_clean_linker_1, # of connection points: 2
#     Edge 18, Type (0, 0), BuildingBlock: KIFKEQ_clean_linker_1, # of connection points: 2
#     Edge 19, Type (0, 0), BuildingBlock: KIFKEQ_clean_linker_1, # of connection points: 2
#     Edge 20, Type (0, 0), BuildingBlock: KIFKEQ_clean_linker_1, # of connection points: 2
#     Edge 21, Type (0, 0), BuildingBlock: KIFKEQ_clean_linker_1, # of connection points: 2
#     Edge 22, Type (0, 0), BuildingBlock: KIFKEQ_clean_linker_1, # of connection points: 2
#     Edge 23, Type (0, 0), BuildingBlock: KIFKEQ_clean_linker_1, # of connection points: 2
#     Edge 24, Type (0, 0), BuildingBlock: KIFKEQ_clean_linker_1, # of connection points: 2
#     Edge 25, Type (0, 0), BuildingBlock: KIFKEQ_clean_linker_1, # of connection points: 2
#     Edge 26, Type (0, 0), BuildingBlock: KIFKEQ_clean_linker_1, # of connection points: 2
#     Edge 27, Type (0, 0), BuildingBlock: KIFKEQ_clean_linker_1, # of connection points: 2
#     Edge 28, Type (0, 0), BuildingBlock: KIFKEQ_clean_linker_1, # of connection points: 2
#     Edge 29, Type (0, 0), BuildingBlock: KIFKEQ_clean_linker_1, # of connection points: 2
#     Edge 30, Type (0, 0), BuildingBlock: KIFKEQ_clean_linker_1, # of connection points: 2
#     Edge 31, Type (0, 0), BuildingBlock: KIFKEQ_clean_linker_1, # of connection points: 2
#     Edge 32, Type (0, 0), BuildingBlock: KIFKEQ_clean_linker_1, # of connection points: 2
#     Edge 33, Type (0, 0), BuildingBlock: KIFKEQ_clean_linker_1, # of connection points: 2
#     Edge 34, Type (0, 0), BuildingBlock: KIFKEQ_clean_linker_1, # of connection points: 2
#     Edge 35, Type (0, 0), BuildingBlock: KIFKEQ_clean_linker_1, # of connection points: 2
#     Edge 36, Type (0, 0), BuildingBlock: KIFKEQ_clean_linker_1, # of connection points: 2
#     Edge 37, Type (0, 0), BuildingBlock: KIFKEQ_clean_linker_1, # of connection points: 2
#     Edge 38, Type (0, 0), BuildingBlock: KIFKEQ_clean_linker_1, # of connection points: 2
#     Edge 39, Type (0, 0), BuildingBlock: KIFKEQ_clean_linker_1, # of connection points: 2
#     Edge 40, Type (0, 0), BuildingBlock: KIFKEQ_clean_linker_1, # of connection points: 2
#     Edge 41, Type (0, 0), BuildingBlock: KIFKEQ_clean_linker_1, # of connection points: 2
#     Edge 42, Type (0, 0), BuildingBlock: KIFKEQ_clean_linker_1, # of connection points: 2
#     Edge 43, Type (0, 0), BuildingBlock: KIFKEQ_clean_linker_1, # of connection points: 2
#     Edge 44, Type (0, 0), BuildingBlock: KIFKEQ_clean_linker_1, # of connection points: 2
#     Edge 45, Type (0, 0), BuildingBlock: KIFKEQ_clean_linker_1, # of connection points: 2
#     Edge 46, Type (0, 0), BuildingBlock: KIFKEQ_clean_linker_1, # of connection points: 2
#     Edge 47, Type (0, 0), BuildingBlock: KIFKEQ_clean_linker_1, # of connection points: 2
#     Edge 48, Type (0, 0), BuildingBlock: KIFKEQ_clean_linker_1, # of connection points: 2
#     Edge 49, Type (0, 0), BuildingBlock: KIFKEQ_clean_linker_1, # of connection points: 2
#     Edge 50, Type (0, 0), BuildingBlock: KIFKEQ_clean_linker_1, # of connection points: 2
#     Edge 51, Type (0, 0), BuildingBlock: KIFKEQ_clean_linker_1, # of connection points: 2
#     Edge 52, Type (0, 0), BuildingBlock: KIFKEQ_clean_linker_1, # of connection points: 2
#     Edge 53, Type (0, 0), BuildingBlock: KIFKEQ_clean_linker_1, # of connection points: 2
#     Edge 54, Type (0, 0), BuildingBlock: KIFKEQ_clean_linker_1, # of connection points: 2
#     Edge 55, Type (0, 0), BuildingBlock: KIFKEQ_clean_linker_1, # of connection points: 2
# Relax obj value: 0.213
# Max RMSD: 0.165
# Mean RMSD: 0.164
data_MOF--net-zfh--node1-BEQFEK_clean_sbu_0--edge1-KIFKEQ_clean_linker_1
_symmetry_space_group_name_H-M    P1
_symmetry_Int_Tables_number       1
_symmetry_cell_setting            triclinic
loop_
_symmetry_equiv_pos_as_xyz
'x, y, z'
_cell_length_a     43.52528
_cell_length_b     43.552803
_cell_length_c     44.078812
_cell_angle_alpha  89.999467
_cell_angle_beta   89.981959
_cell_angle_gamma 90.017786
loop_
_atom_site_label
_atom_site_type_symbol
_atom_site_fract_x
_atom_site_fract_y
_atom_site_fract_z
_atom_type_partial_charge
Co0 Co 0.55049 0.183 0.39144 0.0
Co1 Co 0.52318 0.23104 0.34582 0.0
C2 C 0.48799 0.1744 0.36871 0.0
O3 O 0.50893 0.16517 0.38675 0.0
O4 O 0.49168 0.1984 0.35255 0.0
C5 C 0.56927 0.14154 0.44146 0.0
O6 O 0.54021 0.13522 0.44653 0.0
C7 C 0.47966 0.28096 0.34161 0.0
C8 C 0.49147 0.30413 0.29865 0.0
C9 C 0.47267 0.3064 0.32399 0.0
N10 N 0.50204 0.26492 0.32782 0.0
N11 N 0.50879 0.27865 0.30192 0.0
C12 C 0.46526 0.27168 0.37111 0.0
H13 H 0.46638 0.24646 0.37409 0.0
H14 H 0.47799 0.28234 0.39017 0.0
H15 H 0.44096 0.27933 0.37217 0.0
C16 C 0.56075 0.23947 0.42743 0.0
N17 N 0.54944 0.22475 0.40298 0.0
N18 N 0.54056 0.24509 0.3828 0.0
C19 C 0.54697 0.27347 0.3933 0.0
C20 C 0.55952 0.2709 0.42213 0.0
C21 C 0.57275 0.22356 0.45507 0.0
H22 H 0.55778 0.20375 0.46068 0.0
H23 H 0.57369 0.23935 0.47481 0.0
H24 H 0.59619 0.21476 0.45034 0.0
O25 O 0.5724 0.17889 0.35226 0.0
O26 O 0.556 0.21379 0.31926 0.0
H27 H 0.56414 0.31832 0.38118 0.0
H28 H 0.52332 0.3138 0.37826 0.0
C29 C 0.54563 0.30213 0.37453 0.0
H30 H 0.54815 0.29659 0.35013 0.0
H31 H 0.52585 0.27121 0.287 0.0
O32 O 0.57651 0.16009 0.4204 0.0
C33 C 0.57364 0.19144 0.32618 0.0
Co34 Co 0.32991 0.55333 0.38894 0.0
Co35 Co 0.28195 0.52528 0.34365 0.0
C36 C 0.33827 0.49037 0.36746 0.0
O37 O 0.34726 0.51148 0.38538 0.0
O38 O 0.31452 0.49396 0.35095 0.0
C39 C 0.36675 0.57125 0.44201 0.0
O40 O 0.36474 0.5427 0.45142 0.0
C41 C 0.23271 0.48074 0.33996 0.0
C42 C 0.20867 0.49233 0.29741 0.0
C43 C 0.20708 0.47342 0.32271 0.0
N44 N 0.24818 0.50347 0.32604 0.0
N45 N 0.23396 0.51003 0.30036 0.0
C46 C 0.24254 0.46641 0.36932 0.0
H47 H 0.23295 0.47967 0.38858 0.0
H48 H 0.23427 0.44236 0.37094 0.0
H49 H 0.26787 0.4668 0.37144 0.0
C50 C 0.27297 0.56571 0.4241 0.0
N51 N 0.28794 0.55333 0.40027 0.0
N52 N 0.26773 0.54391 0.38013 0.0
C53 C 0.23926 0.5511 0.38999 0.0
C54 C 0.24165 0.56466 0.41835 0.0
C55 C 0.28847 0.58094 0.45038 0.0
H56 H 0.30279 0.60023 0.44199 0.0
H57 H 0.30381 0.56419 0.46174 0.0
H58 H 0.27168 0.58997 0.46707 0.0
O59 O 0.33436 0.57422 0.3493 0.0
O60 O 0.29951 0.55739 0.31638 0.0
H61 H 0.21518 0.54901 0.34744 0.0
H62 H 0.19226 0.56299 0.37848 0.0
C63 C 0.2104 0.54646 0.37199 0.0
H64 H 0.20124 0.52316 0.37637 0.0
H65 H 0.24088 0.52728 0.28541 0.0
O66 O 0.35401 0.57902 0.41726 0.0
C67 C 0.32198 0.57502 0.32311 0.0
Co68 Co 0.96064 0.3297 0.39014 0.0
Co69 Co 0.9903 0.28136 0.34594 0.0
C70 C 0.02496 0.33721 0.36859 0.0
O71 O 1.00294 0.34668 0.38521 0.0
O72 O 0.02235 0.3128 0.35295 0.0
C73 C 0.94417 0.36245 0.44599 0.0
O74 O 0.96995 0.35207 0.45758 0.0
C75 C 0.03611 0.2338 0.337 0.0
C76 C 0.01688 0.20603 0.29967 0.0
C77 C 0.0407 0.20695 0.3206 0.0
N78 N 0.01061 0.24768 0.32659 0.0
N79 N 0.9996 0.23138 0.30377 0.0
C80 C 0.05282 0.24394 0.36497 0.0
H81 H 0.03831 0.25962 0.37867 0.0
H82 H 0.05955 0.22388 0.37899 0.0
H83 H 0.07397 0.25642 0.35821 0.0
C84 C 0.94686 0.27254 0.4252 0.0
N85 N 0.96026 0.2876 0.4019 0.0
N86 N 0.97205 0.26734 0.38298 0.0
C87 C 0.96642 0.23881 0.39369 0.0
C88 C 0.95053 0.24123 0.42085 0.0
C89 C 0.92776 0.28744 0.4493 0.0
H90 H 0.913 0.3054 0.43911 0.0
H91 H 0.94312 0.29823 0.46628 0.0
H92 H 0.91293 0.27051 0.4611 0.0
O93 O 0.93842 0.33355 0.3513 0.0
O94 O 0.95823 0.29969 0.31894 0.0
H95 H 0.96928 0.21087 0.35375 0.0
H96 H 0.96495 0.18914 0.38829 0.0
C97 C 0.97566 0.20971 0.37804 0.0
H98 H 1.00083 0.2068 0.37996 0.0
H99 H 0.97935 0.23659 0.2922 0.0
O100 O 0.93698 0.35563 0.41889 0.0
C101 C 0.93905 0.32095 0.32524 0.0
Co102 Co 0.18413 0.96206 0.39021 0.0
Co103 Co 0.23191 0.98999 0.34466 0.0
C104 C 0.17681 0.02582 0.36888 0.0
O105 O 0.16745 1.00433 0.38621 0.0
O106 O 0.20062 0.02243 0.35239 0.0
C107 C 0.14847 0.94479 0.44457 0.0
O108 O 0.15231 0.97289 0.45474 0.0
C109 C 0.27985 0.03506 0.33539 0.0
C110 C 0.3066 0.01616 0.29717 0.0
C111 C 0.30638 0.03962 0.31849 0.0
N112 N 0.26541 0.00997 0.32483 0.0
N113 N 0.28111 0.99913 0.30152 0.0
C114 C 0.27055 0.05136 0.36388 0.0
H115 H 0.25479 0.03692 0.37757 0.0
H116 H 0.29103 0.05738 0.37766 0.0
H117 H 0.25842 0.0729 0.3578 0.0
C118 C 0.24141 0.94887 0.42478 0.0
N119 N 0.22634 0.96145 0.40109 0.0
N120 N 0.24652 0.97186 0.38135 0.0
C121 C 0.27508 0.96573 0.39166 0.0
C122 C 0.27276 0.95121 0.41958 0.0
C123 C 0.22607 0.93242 0.45045 0.0
H124 H 0.2106 0.91444 0.44128 0.0
H125 H 0.21196 0.94899 0.46352 0.0
H126 H 0.24295 0.92149 0.46588 0.0
O127 O 0.17861 0.94065 0.35109 0.0
O128 O 0.21317 0.95786 0.31815 0.0
H129 H 0.30164 0.9671 0.35069 0.0
H130 H 0.32432 0.96121 0.38443 0.0
C131 C 0.3041 0.97325 0.37495 0.0
H132 H 0.3086 0.9982 0.37679 0.0
H133 H 0.27539 0.97914 0.28974 0.0
O134 O 0.15976 0.93722 0.41908 0.0
C135 C 0.19084 0.9401 0.32486 0.0
Co136 Co 0.05191 0.83134 0.10023 0.0
Co137 Co 0.02422 0.78263 0.14514 0.0
C138 C 0.98885 0.83902 0.12221 0.0
O139 O 0.01002 0.84859 0.1046 0.0
O140 O 0.99245 0.8149 0.1382 0.0
C141 C 0.07032 0.87016 0.04828 0.0
O142 O 0.04148 0.87033 0.03951 0.0
C143 C 0.98122 0.73202 0.14855 0.0
C144 C 0.99221 0.70938 0.192 0.0
C145 C 0.974 0.70671 0.16628 0.0
N146 N 1.00318 0.74838 0.16267 0.0
N147 N 0.00944 0.73495 0.18883 0.0
C148 C 0.96731 0.74097 0.11875 0.0
H149 H 0.98004 0.72973 0.10001 0.0
H150 H 0.94291 0.73363 0.11759 0.0
H151 H 0.96889 0.76611 0.11531 0.0
C152 C 0.06349 0.77492 0.06414 0.0
N153 N 0.05161 0.78956 0.0884 0.0
N154 N 0.04248 0.76909 0.10839 0.0
C155 C 0.0493 0.74078 0.09797 0.0
C156 C 0.06234 0.74348 0.06939 0.0
C157 C 0.07581 0.7909 0.03667 0.0
H158 H 0.09823 0.80161 0.04229 0.0
H159 H 0.05972 0.80933 0.02978 0.0
H160 H 0.07888 0.7748 0.01741 0.0
O161 O 0.07309 0.83531 0.1398 0.0
O162 O 0.05634 0.80012 0.17236 0.0
H163 H 0.06677 0.69613 0.11034 0.0
H164 H 0.02587 0.70012 0.11262 0.0
C165 C 0.04796 0.71209 0.11671 0.0
H166 H 0.05002 0.71763 0.14115 0.0
H167 H 0.02606 0.7427 0.20408 0.0
O168 O 0.07791 0.85553 0.07206 0.0
C169 C 0.07395 0.82264 0.16585 0.0
Co170 Co 0.68671 0.05308 0.10324 0.0
Co171 Co 0.73372 0.02421 0.14895 0.0
C172 C 0.67816 0.98942 0.12402 0.0
O173 O 0.66922 0.01113 0.10676 0.0
O174 O 0.7019 0.99237 0.14068 0.0
C175 C 0.65065 0.07157 0.04949 0.0
O176 O 0.65225 0.0431 0.03975 0.0
C177 C 0.78101 0.97837 0.15766 0.0
C178 C 0.80792 0.99635 0.19619 0.0
C179 C 0.80749 0.97327 0.17446 0.0
N180 N 0.76681 1.00342 0.16864 0.0
N181 N 0.78259 0.01369 0.19214 0.0
C182 C 0.77159 0.96266 0.12888 0.0
H183 H 0.75588 0.97742 0.1155 0.0
H184 H 0.79202 0.95683 0.11495 0.0
H185 H 0.75938 0.94106 0.13458 0.0
C186 C 0.74423 0.06513 0.06887 0.0
N187 N 0.72892 0.05298 0.09261 0.0
N188 N 0.74885 0.04238 0.11246 0.0
C189 C 0.77755 0.04802 0.10219 0.0
C190 C 0.77553 0.06236 0.07414 0.0
C191 C 0.72915 0.08147 0.04299 0.0
H192 H 0.71459 0.1003 0.05193 0.0
H193 H 0.71411 0.06516 0.03063 0.0
H194 H 0.74618 0.09132 0.027 0.0
O195 O 0.68129 0.07416 0.14248 0.0
O196 O 0.71527 0.05639 0.17568 0.0
H197 H 0.80379 0.04575 0.1433 0.0
H198 H 0.82674 0.05217 0.10984 0.0
C199 C 0.80639 0.04004 0.11896 0.0
H200 H 0.8108 0.01512 0.11666 0.0
H201 H 0.77709 0.03354 0.20424 0.0
O202 O 0.66322 0.07881 0.07447 0.0
C203 C 0.69322 0.07444 0.16884 0.0
Co204 Co 0.46342 0.68574 0.10075 0.0
Co205 Co 0.49102 0.73371 0.1464 0.0
C206 C 0.52666 0.67803 0.12276 0.0
O207 O 0.50532 0.66864 0.10525 0.0
O208 O 0.52322 0.70198 0.13905 0.0
C209 C 0.44597 0.64725 0.04827 0.0
O210 O 0.47493 0.64712 0.03987 0.0
C211 C 0.53584 0.78217 0.15377 0.0
C212 C 0.51874 0.80844 0.19311 0.0
C213 C 0.54113 0.80853 0.17067 0.0
N214 N 0.51143 0.76743 0.16548 0.0
N215 N 0.50162 0.7829 0.18937 0.0
C216 C 0.55099 0.7731 0.12461 0.0
H217 H 0.53646 0.75671 0.11179 0.0
H218 H 0.55565 0.79364 0.11043 0.0
H219 H 0.57321 0.76175 0.12972 0.0
C220 C 0.45225 0.74252 0.06522 0.0
N221 N 0.46374 0.72767 0.08952 0.0
N222 N 0.47344 0.74795 0.10944 0.0
C223 C 0.46776 0.77641 0.09872 0.0
C224 C 0.45444 0.77393 0.07024 0.0
C225 C 0.43955 0.72677 0.03779 0.0
H226 H 0.45561 0.70845 0.03051 0.0
H227 H 0.43614 0.74299 0.01869 0.0
H228 H 0.41727 0.71589 0.04367 0.0
O229 O 0.44169 0.68096 0.1398 0.0
O230 O 0.4585 0.71554 0.1729 0.0
H231 H 0.45538 0.82338 0.10888 0.0
H232 H 0.49522 0.81401 0.11408 0.0
C233 C 0.47144 0.8053 0.11678 0.0
H234 H 0.46697 0.80075 0.14109 0.0
H235 H 0.4823 0.77694 0.2021 0.0
O236 O 0.43801 0.6618 0.07197 0.0
C237 C 0.44076 0.69325 0.16599 0.0
Co238 Co 0.82818 0.45969 0.10423 0.0
Co239 Co 0.78088 0.4905 0.14853 0.0
C240 C 0.83754 0.52373 0.12475 0.0
O241 O 0.84662 0.50143 0.10826 0.0
O242 O 0.81316 0.52164 0.14062 0.0
C243 C 0.86907 0.44105 0.05393 0.0
O244 O 0.8746 0.47021 0.04857 0.0
C245 C 0.73346 0.53644 0.15606 0.0
C246 C 0.70669 0.51946 0.19516 0.0
C247 C 0.7071 0.54201 0.17291 0.0
N248 N 0.74769 0.51167 0.1676 0.0
N249 N 0.73195 0.50196 0.19138 0.0
C250 C 0.7429 0.55161 0.12702 0.0
H251 H 0.75891 0.53676 0.11407 0.0
H252 H 0.72249 0.55691 0.11288 0.0
H253 H 0.75483 0.57348 0.13233 0.0
C254 C 0.77137 0.4485 0.06897 0.0
N255 N 0.78636 0.46093 0.09274 0.0
N256 N 0.76622 0.47259 0.1118 0.0
C257 C 0.73769 0.46775 0.10073 0.0
C258 C 0.74009 0.45263 0.07318 0.0
C259 C 0.78672 0.43211 0.04329 0.0
H260 H 0.79722 0.41059 0.05187 0.0
H261 H 0.80537 0.44671 0.03401 0.0
H262 H 0.77021 0.42649 0.02492 0.0
O263 O 0.83186 0.4379 0.14334 0.0
O264 O 0.79856 0.4584 0.17581 0.0
H265 H 0.71165 0.4697 0.14205 0.0
H266 H 0.68935 0.45978 0.10899 0.0
C267 C 0.7085 0.47421 0.11753 0.0
H268 H 0.70208 0.4986 0.11426 0.0
H269 H 0.7375 0.48243 0.20393 0.0
O270 O 0.85105 0.43355 0.07534 0.0
C271 C 0.81949 0.43889 0.16949 0.0
Co272 Co 0.46238 0.82953 0.602 0.0
Co273 Co 0.49098 0.78179 0.64733 0.0
C274 C 0.5261 0.83741 0.62296 0.0
O275 O 0.50446 0.84665 0.60574 0.0
O276 O 0.52298 0.81352 0.63936 0.0
C277 C 0.44413 0.86594 0.54842 0.0
O278 O 0.47251 0.86368 0.53851 0.0
C279 C 0.53661 0.73402 0.65511 0.0
C280 C 0.51886 0.70689 0.69361 0.0
C281 C 0.54174 0.70736 0.67165 0.0
N282 N 0.51173 0.74827 0.66648 0.0
N283 N 0.5016 0.73233 0.68994 0.0
C284 C 0.55212 0.74364 0.6263 0.0
H285 H 0.53732 0.75957 0.6132 0.0
H286 H 0.55773 0.72333 0.61212 0.0
H287 H 0.57385 0.75568 0.63192 0.0
C288 C 0.44974 0.77243 0.56725 0.0
N289 N 0.46217 0.78744 0.59103 0.0
N290 N 0.47257 0.76727 0.61075 0.0
C291 C 0.46651 0.73873 0.60036 0.0
C292 C 0.45212 0.74109 0.57238 0.0
C293 C 0.43345 0.78781 0.54152 0.0
H294 H 0.41479 0.80251 0.55062 0.0
H295 H 0.44988 0.80273 0.52917 0.0
H296 H 0.42337 0.77098 0.52549 0.0
O297 O 0.44143 0.8346 0.64136 0.0
O298 O 0.45893 0.80025 0.67433 0.0
H299 H 0.46837 0.71235 0.6414 0.0
H300 H 0.4614 0.68965 0.6079 0.0
C301 C 0.47397 0.70971 0.61703 0.0
H302 H 0.49881 0.70483 0.61465 0.0
H303 H 0.48191 0.73784 0.7023 0.0
O304 O 0.43676 0.85357 0.57348 0.0
C305 C 0.44105 0.82249 0.66764 0.0
Co306 Co 0.68498 0.46224 0.60083 0.0
Co307 Co 0.73299 0.49102 0.64562 0.0
C308 C 0.67717 0.52607 0.62177 0.0
O309 O 0.66774 0.50436 0.60471 0.0
O310 O 0.70125 0.52304 0.63795 0.0
C311 C 0.64471 0.44346 0.54982 0.0
O312 O 0.6407 0.47251 0.54287 0.0
C313 C 0.78136 0.53592 0.65347 0.0
C314 C 0.80783 0.51807 0.69236 0.0
C315 C 0.80786 0.54082 0.67031 0.0
N316 N 0.76664 0.51134 0.66482 0.0
N317 N 0.78221 0.5011 0.68848 0.0
C318 C 0.77219 0.55152 0.62458 0.0
H319 H 0.75593 0.53707 0.6115 0.0
H320 H 0.7927 0.55661 0.61047 0.0
H321 H 0.76064 0.57353 0.63009 0.0
C322 C 0.7417 0.44955 0.56575 0.0
N323 N 0.72693 0.46218 0.58958 0.0
N324 N 0.7473 0.47315 0.60878 0.0
C325 C 0.77574 0.46766 0.59777 0.0
C326 C 0.77306 0.45284 0.57009 0.0
C327 C 0.72606 0.43379 0.53987 0.0
H328 H 0.71465 0.41265 0.54829 0.0
H329 H 0.70808 0.44909 0.53043 0.0
H330 H 0.74256 0.4276 0.52167 0.0
O331 O 0.68003 0.44116 0.64011 0.0
O332 O 0.71478 0.45884 0.67258 0.0
H333 H 0.80173 0.46854 0.63914 0.0
H334 H 0.82389 0.45858 0.60598 0.0
C335 C 0.80503 0.47329 0.61467 0.0
H336 H 0.81197 0.49759 0.61172 0.0
H337 H 0.77628 0.48157 0.70088 0.0
O338 O 0.66161 0.43626 0.57219 0.0
C339 C 0.69249 0.44089 0.66623 0.0
Co340 Co 0.05301 0.68493 0.60212 0.0
Co341 Co 0.02454 0.73211 0.64793 0.0
C342 C 0.9899 0.67608 0.62322 0.0
O343 O 0.01121 0.6673 0.60542 0.0
O344 O 0.99327 0.69964 0.64 0.0
C345 C 0.07119 0.64937 0.54833 0.0
O346 O 0.04283 0.65221 0.53853 0.0
C347 C 0.97954 0.78081 0.65284 0.0
C348 C 0.99179 0.8046 0.69535 0.0
C349 C 0.97238 0.80624 0.67042 0.0
N350 N 1.00266 0.76544 0.6662 0.0
N351 N 0.0096 0.77948 0.69188 0.0
C352 C 0.96477 0.77113 0.62364 0.0
H353 H 0.97813 0.78031 0.60423 0.0
H354 H 0.94085 0.77981 0.62215 0.0
H355 H 0.9646 0.74581 0.62166 0.0
C356 C 0.06521 0.74245 0.56773 0.0
N357 N 0.05288 0.72707 0.59135 0.0
N358 N 0.04316 0.74695 0.61167 0.0
C359 C 0.05004 0.7756 0.60212 0.0
C360 C 0.06377 0.77368 0.57379 0.0
C361 C 0.08071 0.72744 0.54132 0.0
H362 H 0.09975 0.71277 0.54963 0.0
H363 H 0.06397 0.71255 0.52936 0.0
H364 H 0.09013 0.74454 0.52514 0.0
O365 O 0.07386 0.67997 0.6417 0.0
O366 O 0.05667 0.71424 0.67499 0.0
H367 H 0.04779 0.79933 0.64483 0.0
H368 H 0.06092 0.82279 0.61379 0.0
C369 C 0.04489 0.80421 0.62034 0.0
H370 H 0.02131 0.81278 0.61626 0.0
H371 H 0.02719 0.7726 0.70645 0.0
O372 O 0.07878 0.66123 0.57356 0.0
C373 C 0.07446 0.69199 0.66804 0.0
Co374 Co 0.82894 0.05228 0.60396 0.0
Co375 Co 0.78092 0.02472 0.64956 0.0
C376 C 0.83702 0.98932 0.62626 0.0
O377 O 0.84626 0.01047 0.60847 0.0
O378 O 0.81306 0.99284 0.64254 0.0
C379 C 0.86772 0.07034 0.55176 0.0
O380 O 0.86914 0.04132 0.54374 0.0
C381 C 0.73277 0.97957 0.65656 0.0
C382 C 0.70592 0.99647 0.69561 0.0
C383 C 0.70622 0.97411 0.67315 0.0
N384 N 0.74724 1.00404 0.66844 0.0
N385 N 0.73142 0.01373 0.69217 0.0
C386 C 0.74224 0.96455 0.62745 0.0
H387 H 0.75879 0.97914 0.61488 0.0
H388 H 0.72187 0.95993 0.613 0.0
H389 H 0.75355 0.94234 0.63262 0.0
C390 C 0.77231 0.06278 0.56806 0.0
N391 N 0.78707 0.05166 0.59257 0.0
N392 N 0.76672 0.04203 0.61246 0.0
C393 C 0.73828 0.04739 0.60149 0.0
C394 C 0.74087 0.06043 0.57288 0.0
C395 C 0.78818 0.07521 0.54056 0.0
H396 H 0.79867 0.09774 0.54614 0.0
H397 H 0.80681 0.0593 0.53372 0.0
H398 H 0.77209 0.07806 0.52126 0.0
O399 O 0.83349 0.07402 0.64305 0.0
O400 O 0.79871 0.05738 0.67606 0.0
H401 H 0.69112 0.0595 0.61121 0.0
H402 H 0.70068 0.01975 0.61661 0.0
C403 C 0.70924 0.04357 0.61932 0.0
H404 H 0.71355 0.04812 0.64366 0.0
H405 H 0.7371 0.03308 0.70495 0.0
O406 O 0.85253 0.07798 0.57517 0.0
C407 C 0.82106 0.07506 0.66918 0.0
Co408 Co 0.96408 0.18355 0.89117 0.0
Co409 Co 0.99099 0.2324 0.84605 0.0
C410 C 0.0272 0.17658 0.86853 0.0
O411 O 1.00609 0.16677 0.8861 0.0
O412 O 0.02343 0.20075 0.85263 0.0
C413 C 0.94683 0.1445 0.94344 0.0
O414 O 0.97577 0.14435 0.95187 0.0
C415 C 0.03548 0.2812 0.83897 0.0
C416 C 0.01793 0.30794 0.80014 0.0
C417 C 0.04051 0.30781 0.82238 0.0
N418 N 0.01103 0.26652 0.82729 0.0
N419 N 1.00094 0.28228 0.8037 0.0
C420 C 0.05093 0.27178 0.86786 0.0
H421 H 0.03655 0.25519 0.88061 0.0
H422 H 0.0557 0.29213 0.88226 0.0
H423 H 0.07311 0.26052 0.86238 0.0
C424 C 0.95274 0.2397 0.92763 0.0
N425 N 0.96422 0.22531 0.90305 0.0
N426 N 0.97364 0.24596 0.88336 0.0
C427 C 0.96781 0.27421 0.89455 0.0
C428 C 0.95466 0.2712 0.92307 0.0
C429 C 0.94028 0.22345 0.95488 0.0
H430 H 0.91815 0.21234 0.94892 0.0
H431 H 0.9566 0.20529 0.96194 0.0
H432 H 0.93666 0.23939 0.97418 0.0
O433 O 0.94207 0.17926 0.85223 0.0
O434 O 0.95836 0.2145 0.81955 0.0
H435 H 0.95514 0.3213 0.88525 0.0
H436 H 0.99498 0.31218 0.87955 0.0
C437 C 0.97122 0.30341 0.87693 0.0
H438 H 0.96657 0.29923 0.85258 0.0
H439 H 0.98154 0.2764 0.79106 0.0
O440 O 0.93891 0.15916 0.9198 0.0
C441 C 0.94082 0.19199 0.82625 0.0
Co442 Co 0.33046 0.96468 0.89028 0.0
Co443 Co 0.28335 0.99266 0.84418 0.0
C444 C 0.33896 0.02796 0.86848 0.0
O445 O 0.34799 1.00657 0.88612 0.0
O446 O 0.31519 0.02465 0.85192 0.0
C447 C 0.37069 0.94634 0.94158 0.0
O448 O 0.37593 0.97542 0.94754 0.0
C449 C 0.23585 0.03814 0.8347 0.0
C450 C 0.20912 0.01941 0.79639 0.0
C451 C 0.20939 0.04285 0.81774 0.0
N452 N 0.2502 0.01299 0.82414 0.0
N453 N 0.23451 1.00226 0.80078 0.0
C454 C 0.24513 0.05436 0.86324 0.0
H455 H 0.26098 0.03994 0.87683 0.0
H456 H 0.22465 0.06022 0.87708 0.0
H457 H 0.25716 0.07598 0.85722 0.0
C458 C 0.27321 0.95306 0.92485 0.0
N459 N 0.28832 0.96503 0.9009 0.0
N460 N 0.26828 0.97514 0.88095 0.0
C461 C 0.23966 0.96934 0.89133 0.0
C462 C 0.24185 0.95536 0.91957 0.0
C463 C 0.28865 0.93713 0.95077 0.0
H464 H 0.30572 0.95283 0.9612 0.0
H465 H 0.272 0.9295 0.96826 0.0
H466 H 0.30118 0.91675 0.9421 0.0
O467 O 0.33596 0.9429 0.85138 0.0
O468 O 0.3018 0.96001 0.81802 0.0
H469 H 0.21338 0.97048 0.85019 0.0
H470 H 0.19048 0.96467 0.88384 0.0
C471 C 0.21074 0.97671 0.87442 0.0
H472 H 0.20618 1.00166 0.87613 0.0
H473 H 0.24013 0.98224 0.78901 0.0
O474 O 0.35323 0.93907 0.91965 0.0
C475 C 0.32393 0.94214 0.82507 0.0
Co476 Co 0.55321 0.33197 0.89166 0.0
Co477 Co 0.52561 0.28342 0.84651 0.0
C478 C 0.48911 0.33797 0.87015 0.0
O479 O 0.51054 0.34766 0.88735 0.0
O480 O 0.49274 0.31413 0.85383 0.0
C481 C 0.56892 0.36437 0.94784 0.0
O482 O 0.5432 0.35351 0.95916 0.0
C483 C 0.48055 0.23533 0.83733 0.0
C484 C 0.49978 0.20813 0.79958 0.0
C485 C 0.47606 0.20865 0.82065 0.0
N486 N 0.50586 0.24956 0.8269 0.0
N487 N 0.51689 0.23358 0.80386 0.0
C488 C 0.46395 0.24497 0.86554 0.0
H489 H 0.47847 0.26051 0.87939 0.0
H490 H 0.45739 0.22467 0.87931 0.0
H491 H 0.44271 0.25744 0.8591 0.0
C492 C 0.56854 0.27461 0.92589 0.0
N493 N 0.55497 0.28967 0.90269 0.0
N494 N 0.54398 0.26938 0.88334 0.0
C495 C 0.55038 0.24086 0.89359 0.0
C496 C 0.56588 0.24328 0.92094 0.0
C497 C 0.5867 0.28966 0.95058 0.0
H498 H 0.60134 0.30803 0.94091 0.0
H499 H 0.5707 0.29996 0.96727 0.0
H500 H 0.60158 0.27292 0.96259 0.0
O501 O 0.57463 0.33761 0.85257 0.0
O502 O 0.55762 0.30259 0.81996 0.0
H503 H 0.54869 0.21367 0.85309 0.0
H504 H 0.55367 0.19141 0.88721 0.0
C505 C 0.54224 0.21177 0.87732 0.0
H506 H 0.51718 0.20793 0.87905 0.0
H507 H 0.53702 0.23912 0.79221 0.0
O508 O 0.57637 0.35796 0.92071 0.0
C509 C 0.5752 0.32515 0.82644 0.0
Co510 Co 0.18678 0.5517 0.89049 0.0
Co511 Co 0.23359 0.52291 0.84451 0.0
C512 C 0.17788 0.48825 0.86957 0.0
O513 O 0.16903 0.50989 0.88697 0.0
O514 O 0.2016 0.49123 0.85285 0.0
C515 C 0.14754 0.57067 0.94216 0.0
O516 O 0.14332 0.54163 0.94905 0.0
C517 C 0.2808 0.47701 0.83589 0.0
C518 C 0.30769 0.49478 0.79723 0.0
C519 C 0.30726 0.4718 0.81907 0.0
N520 N 0.2666 0.502 0.8248 0.0
N521 N 0.28237 0.51216 0.80123 0.0
C522 C 0.27142 0.46146 0.86477 0.0
H523 H 0.25563 0.47624 0.87805 0.0
H524 H 0.29186 0.45581 0.87874 0.0
H525 H 0.2593 0.43976 0.85921 0.0
C526 C 0.24418 0.56339 0.9247 0.0
N527 N 0.22892 0.55127 0.90093 0.0
N528 N 0.24884 0.5409 0.88097 0.0
C529 C 0.27753 0.54669 0.89116 0.0
C530 C 0.27549 0.56091 0.91928 0.0
C531 C 0.22892 0.57958 0.95058 0.0
H532 H 0.21623 0.5998 0.94179 0.0
H533 H 0.21204 0.56393 0.96137 0.0
H534 H 0.24571 0.58749 0.9678 0.0
O535 O 0.18132 0.5729 0.85132 0.0
O536 O 0.2152 0.55526 0.81793 0.0
H537 H 0.30356 0.54485 0.84987 0.0
H538 H 0.32663 0.55138 0.88325 0.0
C539 C 0.30636 0.53908 0.87419 0.0
H540 H 0.31102 0.51419 0.87634 0.0
H541 H 0.27688 0.53196 0.78906 0.0
O542 O 0.16416 0.57779 0.91955 0.0
C543 C 0.19318 0.5733 0.82493 0.0
H544 H 0.30381 0.10007 0.33569 0.0
H545 H 0.36736 0.02649 0.31662 0.0
H546 H 0.34665 0.13313 0.35053 0.0
H547 H 0.41025 0.05968 0.33078 0.0
H548 H 0.47625 0.11594 0.38879 0.0
H549 H 0.43157 0.08406 0.37724 0.0
H550 H 0.39126 0.15902 0.32701 0.0
H551 H 0.43563 0.19098 0.33871 0.0
C552 C 0.32692 0.09096 0.33476 0.0
C553 C 0.33223 0.0606 0.32539 0.0
C554 C 0.35147 0.10995 0.34302 0.0
C555 C 0.38183 0.09891 0.34214 0.0
C556 C 0.38711 0.06869 0.33222 0.0
C557 C 0.36259 0.04981 0.32377 0.0
C558 C 0.4577 0.12575 0.3756 0.0
C559 C 0.45964 0.15597 0.36455 0.0
C560 C 0.43222 0.1074 0.36877 0.0
C561 C 0.40801 0.11894 0.35097 0.0
C562 C 0.40944 0.1495 0.34089 0.0
C563 C 0.43498 0.16776 0.34751 0.0
H564 H 0.324 0.43956 0.3339 0.0
H565 H 0.39435 0.47672 0.39259 0.0
H566 H 0.3558 0.39466 0.32438 0.0
H567 H 0.42641 0.43191 0.38257 0.0
H568 H 0.46444 0.33446 0.37907 0.0
H569 H 0.43061 0.37716 0.39118 0.0
H570 H 0.40287 0.38229 0.2972 0.0
H571 H 0.43592 0.33849 0.28539 0.0
C572 C 0.34621 0.43814 0.34489 0.0
C573 C 0.35665 0.46189 0.36393 0.0
C574 C 0.36454 0.41245 0.33922 0.0
C575 C 0.39379 0.40979 0.35245 0.0
C576 C 0.4039 0.4331 0.37219 0.0
C577 C 0.38553 0.45885 0.37788 0.0
C578 C 0.45052 0.34409 0.36113 0.0
C579 C 0.45209 0.33245 0.33142 0.0
C580 C 0.43152 0.36901 0.36798 0.0
C581 C 0.41382 0.38306 0.34523 0.0
C582 C 0.41574 0.37165 0.3154 0.0
C583 C 0.43481 0.34672 0.30856 0.0
H584 H 0.07667 0.32279 0.33645 0.0
H585 H 0.03742 0.39415 0.39254 0.0
H586 H 0.12107 0.35515 0.32642 0.0
H587 H 0.08189 0.42671 0.38213 0.0
H588 H 0.17951 0.4658 0.37809 0.0
H589 H 0.13711 0.43174 0.39103 0.0
H590 H 0.13195 0.40209 0.29764 0.0
H591 H 0.17523 0.43557 0.28495 0.0
C592 C 0.07754 0.34533 0.34681 0.0
C593 C 0.0533 0.3559 0.3652 0.0
C594 C 0.10296 0.36397 0.34084 0.0
C595 C 0.1049 0.39365 0.35317 0.0
C596 C 0.08119 0.40389 0.3724 0.0
C597 C 0.05566 0.38523 0.37834 0.0
C598 C 0.16986 0.45148 0.36045 0.0
C599 C 0.18132 0.45266 0.33065 0.0
C600 C 0.14517 0.43232 0.36779 0.0
C601 C 0.13126 0.41399 0.34545 0.0
C602 C 0.1425 0.41549 0.31552 0.0
C603 C 0.16713 0.43478 0.30818 0.0
H604 H 0.1187 0.03743 0.39009 0.0
H605 H 0.19324 0.0788 0.33977 0.0
H606 H 0.08665 0.08217 0.37944 0.0
H607 H 0.16108 0.12325 0.32893 0.0
H608 H 0.10136 0.21013 0.33749 0.0
H609 H 0.1349 0.16765 0.35228 0.0
H610 H 0.06172 0.1034 0.33352 0.0
H611 H 0.02808 0.14588 0.31945 0.0
C612 C 0.12839 0.05618 0.37707 0.0
C613 C 0.15849 0.05439 0.36563 0.0
C614 C 0.10992 0.0817 0.37075 0.0
C615 C 0.12121 0.10612 0.35306 0.0
C616 C 0.15173 0.10491 0.34272 0.0
C617 C 0.17011 0.07933 0.34886 0.0
C618 C 0.0924 0.18695 0.3368 0.0
C619 C 0.06197 0.18136 0.3277 0.0
C620 C 0.11167 0.1626 0.34503 0.0
C621 C 0.10088 0.13216 0.3444 0.0
C622 C 0.07058 0.12661 0.3348 0.0
C623 C 0.05142 0.15091 0.32638 0.0
H624 H 0.86855 0.98606 0.17648 0.0
H625 H 0.8046 0.91319 0.15602 0.0
H626 H 0.91126 0.95299 0.16159 0.0
H627 H 0.84728 0.88025 0.14045 0.0
H628 H 0.93614 0.82186 0.15135 0.0
H629 H 0.89174 0.85365 0.16338 0.0
H630 H 0.93252 0.92947 0.11472 0.0
H631 H 0.97722 0.89775 0.10286 0.0
C632 C 0.86365 0.96292 0.16888 0.0
C633 C 0.83323 0.95231 0.16709 0.0
C634 C 0.88806 0.94411 0.16 0.0
C635 C 0.88263 0.91413 0.14947 0.0
C636 C 0.85222 0.90325 0.14842 0.0
C637 C 0.82776 0.92217 0.15711 0.0
C638 C 0.93556 0.84522 0.14294 0.0
C639 C 0.96038 0.8573 0.12629 0.0
C640 C 0.91002 0.8634 0.14975 0.0
C641 C 0.90873 0.89416 0.14025 0.0
C642 C 0.93306 0.90597 0.12276 0.0
C643 C 0.95855 0.88771 0.11573 0.0
H644 H 0.601 0.80541 0.1515 0.0
H645 H 0.52904 0.86966 0.17402 0.0
H646 H 0.63452 0.84801 0.13705 0.0
H647 H 0.56272 0.91232 0.1602 0.0
H648 H 0.61945 0.97927 0.10376 0.0
H649 H 0.5869 0.93472 0.11394 0.0
H650 H 0.6617 0.89126 0.16182 0.0
H651 H 0.6943 0.93554 0.15152 0.0
C652 C 0.59229 0.82862 0.15318 0.0
C653 C 0.56226 0.8342 0.16348 0.0
C654 C 0.61157 0.85303 0.14517 0.0
C655 C 0.60117 0.88354 0.14719 0.0
C656 C 0.57124 0.88907 0.15789 0.0
C657 C 0.55208 0.86468 0.16613 0.0
C658 C 0.62909 0.96004 0.11609 0.0
C659 C 0.65945 0.96108 0.12696 0.0
C660 C 0.61035 0.93464 0.12215 0.0
C661 C 0.62164 0.90959 0.13894 0.0
C662 C 0.65235 0.9101 0.14871 0.0
C663 C 0.671 0.93557 0.14289 0.0
H664 H 0.57983 0.69472 0.15138 0.0
H665 H 0.5377 0.61943 0.10287 0.0
H666 H 0.62416 0.6625 0.16268 0.0
H667 H 0.58225 0.58731 0.11406 0.0
H668 H 0.64593 0.53003 0.17563 0.0
H669 H 0.6035 0.56362 0.16111 0.0
H670 H 0.66819 0.63534 0.13869 0.0
H671 H 0.71062 0.60185 0.1538 0.0
C672 C 0.58016 0.67141 0.14281 0.0
C673 C 0.55508 0.65961 0.12638 0.0
C674 C 0.60565 0.65299 0.1492 0.0
C675 C 0.60657 0.62228 0.13951 0.0
C676 C 0.58198 0.61077 0.12222 0.0
C677 C 0.55658 0.62926 0.11559 0.0
C678 C 0.65105 0.55304 0.16778 0.0
C679 C 0.68158 0.56321 0.16551 0.0
C680 C 0.62679 0.57214 0.15913 0.0
C681 C 0.63251 0.602 0.1484 0.0
C682 C 0.66305 0.61243 0.14682 0.0
C683 C 0.68735 0.5932 0.15523 0.0
H684 H 0.96671 0.67764 0.11156 0.0
H685 H 0.93619 0.67568 0.2047 0.0
H686 H 0.93274 0.63486 0.09963 0.0
H687 H 0.90287 0.63205 0.19306 0.0
H688 H 0.82346 0.5762 0.15571 0.0
H689 H 0.85599 0.62067 0.16456 0.0
H690 H 0.92744 0.57983 0.10984 0.0
H691 H 0.89467 0.53524 0.10058 0.0
C692 C 0.95235 0.66843 0.12939 0.0
C693 C 0.95341 0.68065 0.1589 0.0
C694 C 0.93325 0.64352 0.12265 0.0
C695 C 0.91487 0.63016 0.1453 0.0
C696 C 0.9163 0.64215 0.17494 0.0
C697 C 0.93551 0.66699 0.18168 0.0
C698 C 0.84602 0.57669 0.14534 0.0
C699 C 0.85649 0.55196 0.12755 0.0
C700 C 0.86476 0.60216 0.15062 0.0
C701 C 0.89445 0.60368 0.13823 0.0
C702 C 0.90461 0.57946 0.1196 0.0
C703 C 0.88584 0.55386 0.11433 0.0
H704 H 0.53657 0.89622 0.60322 0.0
H705 H 0.57971 0.82096 0.65085 0.0
H706 H 0.58098 0.92866 0.61429 0.0
H707 H 0.62383 0.85346 0.66206 0.0
H708 H 0.70976 0.91437 0.6538 0.0
H709 H 0.66744 0.88092 0.63842 0.0
H710 H 0.6026 0.95242 0.66098 0.0
H711 H 0.64499 0.98605 0.6757 0.0
C712 C 0.55565 0.88646 0.6157 0.0
C713 C 0.55447 0.85603 0.62628 0.0
C714 C 0.58096 0.90514 0.62228 0.0
C715 C 0.60578 0.89372 0.63932 0.0
C716 C 0.60517 0.86292 0.64877 0.0
C717 C 0.57978 0.84433 0.64242 0.0
C718 C 0.6865 0.92302 0.65516 0.0
C719 C 0.68069 0.95296 0.66554 0.0
C720 C 0.66224 0.90378 0.64662 0.0
C721 C 0.63168 0.91413 0.64819 0.0
C722 C 0.62591 0.94395 0.659 0.0
C723 C 0.65015 0.96308 0.66776 0.0
H724 H 0.61824 0.53679 0.6023 0.0
H725 H 0.69404 0.57968 0.64939 0.0
H726 H 0.58616 0.58148 0.61325 0.0
H727 H 0.6619 0.62404 0.66052 0.0
H728 H 0.60168 0.71036 0.65247 0.0
H729 H 0.63479 0.66775 0.63717 0.0
H730 H 0.56255 0.60361 0.65954 0.0
H731 H 0.52928 0.64626 0.67413 0.0
C732 C 0.62819 0.55586 0.61465 0.0
C733 C 0.65868 0.55453 0.6251 0.0
C734 C 0.60972 0.58135 0.62116 0.0
C735 C 0.62139 0.60619 0.63802 0.0
C736 C 0.65224 0.60539 0.64736 0.0
C737 C 0.67062 0.57985 0.64107 0.0
C738 C 0.5928 0.68719 0.65382 0.0
C739 C 0.56275 0.68167 0.66411 0.0
C740 C 0.61185 0.66276 0.64531 0.0
C741 C 0.6012 0.63229 0.64683 0.0
C742 C 0.57126 0.62682 0.65757 0.0
C743 C 0.55234 0.65122 0.66627 0.0
H744 H 0.80527 0.60087 0.6518 0.0
H745 H 0.86886 0.52795 0.67301 0.0
H746 H 0.8482 0.63399 0.63731 0.0
H747 H 0.91184 0.5612 0.65915 0.0
H748 H 0.97894 0.61768 0.60255 0.0
H749 H 0.93409 0.58556 0.61287 0.0
H750 H 0.89203 0.66027 0.66209 0.0
H751 H 0.9366 0.69243 0.65167 0.0
C752 C 0.8284 0.59188 0.6532 0.0
C753 C 0.83371 0.56171 0.66315 0.0
C754 C 0.853 0.61092 0.64516 0.0
C755 C 0.8834 0.60011 0.6468 0.0
C756 C 0.88866 0.57003 0.65714 0.0
C757 C 0.8641 0.55112 0.66541 0.0
C758 C 0.95996 0.62738 0.61523 0.0
C759 C 0.96146 0.65758 0.62642 0.0
C760 C 0.93439 0.6089 0.62135 0.0
C761 C 0.90964 0.6203 0.63852 0.0
C762 C 0.91063 0.65085 0.64867 0.0
C763 C 0.93627 0.66924 0.64279 0.0
H764 H 0.89312 0.97564 0.60123 0.0
H765 H 0.82285 0.93865 0.66016 0.0
H766 H 0.9253 0.93101 0.61148 0.0
H767 H 0.8548 0.89388 0.66994 0.0
H768 H 0.93546 0.83821 0.70903 0.0
H769 H 0.90205 0.88173 0.69711 0.0
H770 H 0.92953 0.87626 0.60306 0.0
H771 H 0.96366 0.83383 0.61526 0.0
C772 C 0.88435 0.95784 0.61604 0.0
C773 C 0.85544 0.96088 0.62997 0.0
C774 C 0.90278 0.93219 0.62188 0.0
C775 C 0.89274 0.90895 0.64174 0.0
C776 C 0.86349 0.91161 0.65499 0.0
C777 C 0.84507 0.93722 0.64917 0.0
C778 C 0.9342 0.8463 0.68583 0.0
C779 C 0.95151 0.83203 0.66297 0.0
C780 C 0.91493 0.87107 0.67892 0.0
C781 C 0.91286 0.88232 0.64904 0.0
C782 C 0.93057 0.86824 0.62629 0.0
C783 C 0.94975 0.8435 0.63321 0.0
H784 H 0.14841 0.02976 0.81564 0.0
H785 H 0.21193 0.10324 0.83532 0.0
H786 H 0.1055 0.06281 0.82995 0.0
H787 H 0.16903 0.13617 0.85032 0.0
H788 H 0.07968 0.19386 0.83897 0.0
H789 H 0.1243 0.16226 0.82713 0.0
H790 H 0.0842 0.08664 0.87662 0.0
H791 H 0.03932 0.11813 0.8883 0.0
C792 C 0.15318 0.05303 0.82294 0.0
C793 C 0.18354 0.06381 0.8247 0.0
C794 C 0.12864 0.07183 0.83149 0.0
C795 C 0.13389 0.10198 0.84165 0.0
C796 C 0.16424 0.11304 0.84263 0.0
C797 C 0.18881 0.09412 0.83428 0.0
C798 C 0.08045 0.17058 0.84759 0.0
C799 C 0.05578 0.15848 0.86443 0.0
C800 C 0.10612 0.15252 0.84089 0.0
C801 C 0.10766 0.12186 0.85069 0.0
C802 C 0.08346 0.11005 0.86835 0.0
C803 C 0.05787 0.12818 0.87526 0.0
H804 H 0.32301 0.08093 0.83918 0.0
H805 H 0.39728 0.03909 0.88943 0.0
H806 H 0.35549 0.12512 0.82822 0.0
H807 H 0.42967 0.08359 0.87865 0.0
H808 H 0.48858 0.14755 0.81901 0.0
H809 H 0.4548 0.105 0.83279 0.0
H810 H 0.38173 0.16927 0.85184 0.0
H811 H 0.41539 0.21177 0.83735 0.0
C812 C 0.34616 0.08129 0.84821 0.0
C813 C 0.35758 0.05632 0.86504 0.0
C814 C 0.36473 0.10673 0.84201 0.0
C815 C 0.39526 0.10775 0.85232 0.0
C816 C 0.40639 0.08326 0.86999 0.0
C817 C 0.38773 0.05788 0.87639 0.0
C818 C 0.46523 0.15255 0.82594 0.0
C819 C 0.45474 0.18301 0.82746 0.0
C820 C 0.446 0.12822 0.83418 0.0
C821 C 0.41569 0.13377 0.84378 0.0
C822 C 0.40496 0.16422 0.84457 0.0
C823 C 0.42431 0.18859 0.83652 0.0
H824 H 0.43603 0.32049 0.84187 0.0
H825 H 0.47732 0.39648 0.89001 0.0
H826 H 0.3914 0.35215 0.83033 0.0
H827 H 0.43241 0.42805 0.87862 0.0
H828 H 0.36833 0.48451 0.81686 0.0
H829 H 0.41102 0.45145 0.83176 0.0
H830 H 0.34701 0.37887 0.85338 0.0
H831 H 0.30434 0.4118 0.83781 0.0
C832 C 0.43544 0.34383 0.85035 0.0
C833 C 0.4604 0.356 0.8667 0.0
C834 C 0.40976 0.36193 0.84381 0.0
C835 C 0.4085 0.3927 0.85329 0.0
C836 C 0.43293 0.40456 0.87059 0.0
C837 C 0.45854 0.38637 0.87735 0.0
C838 C 0.36341 0.46141 0.82458 0.0
C839 C 0.33298 0.45084 0.82649 0.0
C840 C 0.38782 0.44261 0.83347 0.0
C841 C 0.38238 0.41267 0.84413 0.0
C842 C 0.35196 0.40183 0.84532 0.0
C843 C 0.32751 0.42076 0.83663 0.0
H844 H 0.11926 0.47803 0.89011 0.0
H845 H 0.1938 0.43457 0.84159 0.0
H846 H 0.08661 0.43359 0.87981 0.0
H847 H 0.1611 0.39042 0.83115 0.0
H848 H 0.10053 0.30456 0.84102 0.0
H849 H 0.13411 0.34704 0.85563 0.0
H850 H 0.06208 0.41151 0.83368 0.0
H851 H 0.02833 0.36895 0.81974 0.0
C852 C 0.12881 0.45889 0.87758 0.0
C853 C 0.15911 0.45997 0.86654 0.0
C854 C 0.11001 0.43355 0.87145 0.0
C855 C 0.12118 0.40861 0.85442 0.0
C856 C 0.15184 0.40917 0.84446 0.0
C857 C 0.17055 0.43457 0.85036 0.0
C858 C 0.09178 0.32778 0.83965 0.0
C859 C 0.06167 0.33343 0.82966 0.0
C860 C 0.1111 0.35212 0.84775 0.0
C861 C 0.10066 0.38263 0.8461 0.0
C862 C 0.07064 0.38824 0.83571 0.0
C863 C 0.05143 0.36392 0.82739 0.0
H864 H 0.58617 0.2119 0.26832 0.0
H865 H 0.61019 0.14108 0.33281 0.0
H866 H 0.61945 0.18765 0.23064 0.0
H867 H 0.64221 0.11645 0.29515 0.0
H868 H 0.71238 0.08495 0.22753 0.0
H869 H 0.68763 0.11751 0.26553 0.0
H870 H 0.61831 0.14302 0.20001 0.0
H871 H 0.64343 0.11172 0.1621 0.0
C872 C 0.59858 0.19128 0.27451 0.0
C873 C 0.59526 0.17839 0.30354 0.0
C874 C 0.61756 0.17726 0.25288 0.0
C875 C 0.63346 0.14992 0.25974 0.0
C876 C 0.6308 0.13767 0.28909 0.0
C877 C 0.61209 0.15174 0.31069 0.0
C878 C 0.69206 0.0978 0.22121 0.0
C879 C 0.67984 0.09549 0.19181 0.0
C880 C 0.67776 0.11637 0.24301 0.0
C881 C 0.65082 0.13287 0.23594 0.0
C882 C 0.63923 0.13115 0.20626 0.0
C883 C 0.65358 0.11285 0.18451 0.0
H884 H 0.30228 0.58642 0.26474 0.0
H885 H 0.37217 0.6118 0.32976 0.0
H886 H 0.32689 0.61929 0.2269 0.0
H887 H 0.39712 0.6434 0.292 0.0
H888 H 0.42902 0.71302 0.22425 0.0
H889 H 0.39597 0.68849 0.26197 0.0
H890 H 0.37205 0.61826 0.19682 0.0
H891 H 0.40386 0.64316 0.15915 0.0
C892 C 0.32277 0.59902 0.271 0.0
C893 C 0.33529 0.59623 0.30025 0.0
C894 C 0.337 0.61778 0.24929 0.0
C895 C 0.36414 0.63398 0.2563 0.0
C896 C 0.37604 0.63177 0.28582 0.0
C897 C 0.36178 0.61329 0.30748 0.0
C898 C 0.41642 0.69255 0.21794 0.0
C899 C 0.41934 0.68001 0.18872 0.0
C900 C 0.39756 0.67837 0.23958 0.0
C901 C 0.38139 0.65122 0.23254 0.0
C902 C 0.38368 0.63932 0.20303 0.0
C903 C 0.40227 0.65355 0.18142 0.0
H904 H 0.84493 0.38259 0.16086 0.0
H905 H 0.82136 0.44766 0.23094 0.0
H906 H 0.86993 0.35001 0.19823 0.0
H907 H 0.84784 0.41602 0.26827 0.0
H908 H 0.883 0.34682 0.33428 0.0
H909 H 0.84997 0.37138 0.29703 0.0
H910 H 0.91501 0.3482 0.2264 0.0
H911 H 0.9471 0.32213 0.26366 0.0
C912 C 0.84505 0.38987 0.18436 0.0
C913 C 0.8313 0.41774 0.19299 0.0
C914 C 0.85965 0.37131 0.20579 0.0
C915 C 0.86142 0.38042 0.23635 0.0
C916 C 0.84668 0.40789 0.2451 0.0
C917 C 0.83153 0.42618 0.22369 0.0
C918 C 0.88998 0.34661 0.31069 0.0
C919 C 0.9177 0.33267 0.30187 0.0
C920 C 0.87116 0.36096 0.28932 0.0
C921 C 0.87986 0.36229 0.25862 0.0
C922 C 0.90719 0.34738 0.2497 0.0
C923 C 0.92575 0.33248 0.27106 0.0
H924 H 0.1402 0.90374 0.33084 0.0
H925 H 0.2112 0.92864 0.26679 0.0
H926 H 0.11559 0.87228 0.29268 0.0
H927 H 0.18696 0.89598 0.2286 0.0
H928 H 0.11109 0.87264 0.15968 0.0
H929 H 0.14225 0.89743 0.19793 0.0
H930 H 0.11708 0.82713 0.26254 0.0
H931 H 0.08469 0.80269 0.22422 0.0
C932 C 0.15089 0.90217 0.3087 0.0
C933 C 0.1776 0.91904 0.30183 0.0
C934 C 0.13683 0.88379 0.28682 0.0
C935 C 0.14917 0.88153 0.25746 0.0
C936 C 0.17652 0.89755 0.25085 0.0
C937 C 0.19052 0.91619 0.27276 0.0
C938 C 0.11227 0.86221 0.18196 0.0
C939 C 0.09505 0.83575 0.18891 0.0
C940 C 0.13048 0.87637 0.2039 0.0
C941 C 0.13223 0.86441 0.23343 0.0
C942 C 0.11591 0.83728 0.24015 0.0
C943 C 0.09744 0.82315 0.21816 0.0
H944 H 0.3037 0.9297 0.76714 0.0
H945 H 0.37459 0.90597 0.83168 0.0
H946 H 0.32808 0.89647 0.72951 0.0
H947 H 0.39936 0.87399 0.79406 0.0
H948 H 0.43079 0.80357 0.7265 0.0
H949 H 0.39838 0.82849 0.76455 0.0
H950 H 0.37264 0.89751 0.69884 0.0
H951 H 0.40376 0.87224 0.66092 0.0
C952 C 0.32439 0.91739 0.77334 0.0
C953 C 0.33723 0.92074 0.80238 0.0
C954 C 0.33848 0.89843 0.75174 0.0
C955 C 0.36585 0.88259 0.75863 0.0
C956 C 0.37811 0.88534 0.78797 0.0
C957 C 0.36395 0.90403 0.80955 0.0
C958 C 0.41792 0.82386 0.72016 0.0
C959 C 0.42011 0.83594 0.69069 0.0
C960 C 0.39944 0.83826 0.74199 0.0
C961 C 0.38291 0.86516 0.73487 0.0
C962 C 0.38453 0.87663 0.70514 0.0
C963 C 0.40273 0.86219 0.68337 0.0
H964 H 0.61088 0.37632 0.83178 0.0
H965 H 0.58705 0.30421 0.76863 0.0
H966 H 0.64226 0.40073 0.79342 0.0
H967 H 0.61964 0.32828 0.73024 0.0
H968 H 0.64286 0.4032 0.66032 0.0
H969 H 0.61805 0.37244 0.69887 0.0
H970 H 0.68764 0.3993 0.76359 0.0
H971 H 0.71208 0.4313 0.72493 0.0
C972 C 0.61266 0.36536 0.8098 0.0
C973 C 0.59613 0.33837 0.80325 0.0
C974 C 0.631 0.37931 0.7878 0.0
C975 C 0.63356 0.36659 0.75863 0.0
C976 C 0.61784 0.339 0.75233 0.0
C977 C 0.59924 0.3251 0.77436 0.0
C978 C 0.65313 0.40248 0.68269 0.0
C979 C 0.67938 0.42005 0.68956 0.0
C980 C 0.63896 0.38449 0.70482 0.0
C981 C 0.65071 0.38333 0.73446 0.0
C982 C 0.67764 0.40002 0.74111 0.0
C983 C 0.69178 0.41826 0.71893 0.0
H984 H 0.08618 0.71157 0.72638 0.0
H985 H 0.11081 0.64153 0.66127 0.0
H986 H 0.1191 0.68682 0.76407 0.0
H987 H 0.14245 0.61643 0.69889 0.0
H988 H 0.21244 0.58444 0.76637 0.0
H989 H 0.18771 0.61731 0.72865 0.0
H990 H 0.11806 0.64186 0.79424 0.0
H991 H 0.14317 0.61026 0.83189 0.0
C992 C 0.09862 0.691 0.72007 0.0
C993 C 0.09563 0.6785 0.69084 0.0
C994 C 0.1174 0.6767 0.74169 0.0
C995 C 0.13341 0.64948 0.73462 0.0
C996 C 0.13098 0.63757 0.70512 0.0
C997 C 0.11248 0.65191 0.68354 0.0
C998 C 0.19205 0.59714 0.77277 0.0
C999 C 0.17975 0.59448 0.80212 0.0
C1000 C 0.17775 0.61589 0.75112 0.0
C1001 C 0.15073 0.63221 0.7583 0.0
C1002 C 0.13904 0.63013 0.78792 0.0
C1003 C 0.15339 0.61166 0.80952 0.0
H1004 H 0.92858 0.21256 0.76837 0.0
H1005 H 0.90401 0.14179 0.83274 0.0
H1006 H 0.89517 0.18855 0.73063 0.0
H1007 H 0.87185 0.11742 0.79505 0.0
H1008 H 0.80161 0.08627 0.72765 0.0
H1009 H 0.82639 0.11897 0.7655 0.0
H1010 H 0.89597 0.14384 0.69995 0.0
H1011 H 0.87082 0.1124 0.66218 0.0
C1012 C 0.91603 0.192 0.77452 0.0
C1013 C 0.91922 0.17905 0.80353 0.0
C1014 C 0.89697 0.17813 0.75286 0.0
C1015 C 0.88085 0.1509 0.75969 0.0
C1016 C 0.88342 0.13858 0.78902 0.0
C1017 C 0.90222 0.15249 0.81063 0.0
C1018 C 0.82197 0.09903 0.72128 0.0
C1019 C 0.83429 0.09645 0.69193 0.0
C1020 C 0.8363 0.11768 0.743 0.0
C1021 C 0.86336 0.13398 0.73589 0.0
C1022 C 0.87498 0.1321 0.70623 0.0
C1023 C 0.86061 0.11371 0.68456 0.0
H1024 H 0.56346 0.10438 0.49155 0.0
H1025 H 0.63102 0.14881 0.43458 0.0
H1026 H 0.60471 0.08438 0.52365 0.0
H1027 H 0.67191 0.12838 0.46603 0.0
H1028 H 0.73502 0.11699 0.54739 0.0
H1029 H 0.69292 0.13598 0.51603 0.0
H1030 H 0.64749 0.04803 0.52354 0.0
H1031 H 0.68969 0.02928 0.55524 0.0
C1032 C 0.58705 0.10971 0.48576 0.0
C1033 C 0.5939 0.1283 0.46059 0.0
C1034 C 0.61069 0.09815 0.50405 0.0
C1035 C 0.64161 0.10495 0.4975 0.0
C1036 C 0.64835 0.12317 0.47207 0.0
C1037 C 0.62484 0.13473 0.4539 0.0
C1038 C 0.71616 0.10169 0.54203 0.0
C1039 C 0.71565 0.07163 0.55337 0.0
C1040 C 0.69204 0.11252 0.52411 0.0
C1041 C 0.66688 0.09346 0.51713 0.0
C1042 C 0.66634 0.06339 0.52874 0.0
C1043 C 0.6905 0.0526 0.54672 0.0
H1044 H 0.37953 0.63033 0.42604 0.0
H1045 H 0.38734 0.56639 0.50064 0.0
H1046 H 0.40106 0.6708 0.45756 0.0
H1047 H 0.40924 0.60709 0.5322 0.0
H1048 H 0.40939 0.69806 0.58723 0.0
H1049 H 0.39065 0.65574 0.55572 0.0
H1050 H 0.44955 0.68579 0.48257 0.0
H1051 H 0.46827 0.72801 0.51433 0.0
C1052 C 0.38606 0.62483 0.44912 0.0
C1053 C 0.38164 0.59512 0.46087 0.0
C1054 C 0.39856 0.64803 0.46712 0.0
C1055 C 0.4068 0.64215 0.49736 0.0
C1056 C 0.4028 0.61236 0.50904 0.0
C1057 C 0.39045 0.58902 0.49093 0.0
C1058 C 0.41845 0.69532 0.56449 0.0
C1059 C 0.44042 0.71592 0.55317 0.0
C1060 C 0.40784 0.67112 0.54652 0.0
C1061 C 0.41878 0.66731 0.51675 0.0
C1062 C 0.44056 0.68823 0.50536 0.0
C1063 C 0.45129 0.71232 0.52344 0.0
H1064 H 0.93497 0.35605 0.50694 0.0
H1065 H 0.90161 0.40436 0.42798 0.0
H1066 H 0.89353 0.37867 0.53738 0.0
H1067 H 0.86084 0.42759 0.45866 0.0
H1068 H 0.81651 0.48522 0.53976 0.0
H1069 H 0.85969 0.46479 0.50995 0.0
H1070 H 0.83016 0.37246 0.53034 0.0
H1071 H 0.78647 0.39297 0.5593 0.0
C1072 C 0.91916 0.37192 0.49627 0.0
C1073 C 0.92147 0.37852 0.46515 0.0
C1074 C 0.89541 0.38464 0.51359 0.0
C1075 C 0.87411 0.40474 0.50023 0.0
C1076 C 0.87709 0.41221 0.46942 0.0
C1077 C 0.90034 0.39892 0.45194 0.0
C1078 C 0.81924 0.46059 0.53754 0.0
C1079 C 0.79827 0.44054 0.55138 0.0
C1080 C 0.84382 0.44896 0.52065 0.0
C1081 C 0.84818 0.41712 0.51809 0.0
C1082 C 0.82731 0.39709 0.53222 0.0
C1083 C 0.80233 0.40874 0.54851 0.0
H1084 H 0.13163 0.94834 0.50449 0.0
H1085 H 0.13178 0.88709 0.42733 0.0
H1086 H 0.10989 0.90741 0.53591 0.0
H1087 H 0.11046 0.84639 0.45868 0.0
H1088 H 0.04476 0.78964 0.51741 0.0
H1089 H 0.06318 0.83236 0.48613 0.0
H1090 H 0.12768 0.85714 0.55651 0.0
H1091 H 0.10921 0.81432 0.58754 0.0
C1092 C 0.12684 0.92627 0.49419 0.0
C1093 C 0.13349 0.92097 0.46344 0.0
C1094 C 0.1146 0.90279 0.51222 0.0
C1095 C 0.10854 0.87366 0.49977 0.0
C1096 C 0.11457 0.86864 0.46887 0.0
C1097 C 0.12696 0.89197 0.45095 0.0
C1098 C 0.06288 0.8043 0.52603 0.0
C1099 C 0.07539 0.79911 0.55487 0.0
C1100 C 0.07344 0.82866 0.50821 0.0
C1101 C 0.09673 0.84826 0.51897 0.0
C1102 C 0.10932 0.84283 0.54785 0.0
C1103 C 0.09885 0.81835 0.56556 0.0
H1104 H 0.19878 0.91279 0.90438 0.0
H1105 H 0.22843 0.97122 0.97772 0.0
H1106 H 0.15611 0.8941 0.93553 0.0
H1107 H 0.186 0.95231 0.0092 0.0
H1108 H 0.12971 0.88123 0.06453 0.0
H1109 H 0.17069 0.90277 0.03351 0.0
H1110 H 0.10722 0.91392 0.95906 0.0
H1111 H 0.06598 0.8922 0.99015 0.0
C1112 C 0.19593 0.92175 0.92714 0.0
C1113 C 0.21654 0.94361 0.93867 0.0
C1114 C 0.17155 0.91115 0.94492 0.0
C1115 C 0.1676 0.92191 0.97473 0.0
C1116 C 0.18855 0.94351 0.98636 0.0
C1117 C 0.21277 0.95431 0.96843 0.0
C1118 C 0.12438 0.88841 0.0416 0.0
C1119 C 0.09457 0.88493 0.02977 0.0
C1120 C 0.14787 0.90091 0.0239 0.0
C1121 C 0.14218 0.90998 0.99386 0.0
C1122 C 0.11231 0.90686 0.98208 0.0
C1123 C 0.08867 0.89461 -7e-05 0.0
H1124 H 0.64063 0.13116 0.06548 0.0
H1125 H 0.62865 0.0674 0.99125 0.0
H1126 H 0.61983 0.17229 0.03443 0.0
H1127 H 0.60735 0.10879 0.96019 0.0
H1128 H 0.60694 0.1991 0.90466 0.0
H1129 H 0.62597 0.15658 0.93572 0.0
H1130 H 0.57153 0.18905 0.01119 0.0
H1131 H 0.55261 0.23151 0.97992 0.0
C1132 C 0.63334 0.12583 0.04258 0.0
C1133 C 0.63636 0.09595 0.03082 0.0
C1134 C 0.62125 0.14944 0.02485 0.0
C1135 C 0.61196 0.14382 0.99486 0.0
C1136 C 0.61463 0.11388 0.98314 0.0
C1137 C 0.62663 0.09015 0.00098 0.0
C1138 C 0.59894 0.19687 0.92783 0.0
C1139 C 0.57808 0.21815 0.93992 0.0
C1140 C 0.60971 0.17256 0.94556 0.0
C1141 C 0.60006 0.16931 0.97583 0.0
C1142 C 0.57952 0.19102 0.988 0.0
C1143 C 0.56867 0.21525 0.97019 0.0
H1144 H 0.31869 0.60327 0.90383 0.0
H1145 H 0.28897 0.54513 0.97738 0.0
H1146 H 0.36128 0.62214 0.93495 0.0
H1147 H 0.33133 0.56419 0.00881 0.0
H1148 H 0.38653 0.63595 0.06403 0.0
H1149 H 0.34599 0.61398 0.03282 0.0
H1150 H 0.4102 0.60283 0.95894 0.0
H1151 H 0.45102 0.62501 0.99024 0.0
C1152 C 0.32153 0.59439 0.92661 0.0
C1153 C 0.3009 0.5726 0.93824 0.0
C1154 C 0.34586 0.6051 0.94437 0.0
C1155 C 0.34974 0.5945 0.97424 0.0
C1156 C 0.32882 0.57288 0.98592 0.0
C1157 C 0.30465 0.56199 0.96803 0.0
C1158 C 0.39212 0.62869 0.04118 0.0
C1159 C 0.42201 0.6323 0.02958 0.0
C1160 C 0.36889 0.61593 0.02337 0.0
C1161 C 0.37491 0.60672 0.99345 0.0
C1162 C 0.40486 0.60999 0.98187 0.0
C1163 C 0.42825 0.6225 -0.00016 0.0
H1164 H 0.90648 0.44746 0.00408 0.0
H1165 H 0.86256 0.37922 0.0606 0.0
H1166 H 0.92753 0.40659 0.9722 0.0
H1167 H 0.88402 0.3387 0.02934 0.0
H1168 H 0.89764 0.27592 0.94791 0.0
H1169 H 0.87746 0.31756 0.97916 0.0
H1170 H 0.96476 0.36451 0.97294 0.0
H1171 H 0.98471 0.32276 0.94139 0.0
C1172 C 0.90147 0.4238 0.00981 0.0
C1173 C 0.88276 0.41665 0.03482 0.0
C1174 C 0.91364 0.40038 0.99164 0.0
C1175 C 0.90732 0.36937 -0.00186 0.0
C1176 C 0.8889 0.36232 0.02336 0.0
C1177 C 0.87675 0.38563 0.04143 0.0
C1178 C 0.91254 0.295 0.95356 0.0
C1179 C 0.94277 0.29608 0.94262 0.0
C1180 C 0.90104 0.31887 0.9714 0.0
C1181 C 0.91955 0.34432 0.97868 0.0
C1182 C 0.9498 0.34542 0.96749 0.0
C1183 C 0.96128 0.32151 0.9496 0.0
H1184 H 0.28593 0.96662 0.47783 0.0
H1185 H 0.31586 0.90873 0.4042 0.0
H1186 H 0.3284 0.94777 0.50921 0.0
H1187 H 0.35838 0.88983 0.43534 0.0
H1188 H 0.44821 0.88652 0.48969 0.0
H1189 H 0.40704 0.9082 0.45858 0.0
H1190 H 0.34412 0.89958 0.53389 0.0
H1191 H 0.38507 0.87832 0.56497 0.0
C1192 C 0.30165 0.94982 0.46848 0.0
C1193 C 0.298 0.9393 0.43864 0.0
C1194 C 0.32588 0.93901 0.48635 0.0
C1195 C 0.34688 0.91748 0.47466 0.0
C1196 C 0.34296 0.90684 0.4448 0.0
C1197 C 0.31863 0.91754 0.42703 0.0
C1198 C 0.42565 0.88948 0.49965 0.0
C1199 C 0.41993 0.88064 0.52978 0.0
C1200 C 0.40204 0.9017 0.48178 0.0
C1201 C 0.37232 0.90554 0.49377 0.0
C1202 C 0.36682 0.89723 0.52407 0.0
C1203 C 0.3903 0.88487 0.54183 0.0
H1204 H 0.61541 0.27473 0.44975 0.0
H1205 H 0.53051 0.32413 0.43694 0.0
H1206 H 0.6354 0.31698 0.4803 0.0
H1207 H 0.55032 0.36651 0.46766 0.0
H1208 H 0.61002 0.44882 0.49798 0.0
H1209 H 0.58909 0.40723 0.46691 0.0
H1210 H 0.62697 0.34064 0.52918 0.0
H1211 H 0.64829 0.38183 0.55968 0.0
C1212 C 0.6009 0.29449 0.45387 0.0
C1213 C 0.57135 0.29611 0.44132 0.0
C1214 C 0.61232 0.31872 0.47129 0.0
C1215 C 0.5944 0.3451 0.47652 0.0
C1216 C 0.56484 0.34671 0.46378 0.0
C1217 C 0.55345 0.32244 0.44633 0.0
C1218 C 0.6138 0.4253 0.50502 0.0
C1219 C 0.63091 0.41869 0.53125 0.0
C1220 C 0.60171 0.40148 0.48731 0.0
C1221 C 0.60652 0.3706 0.49548 0.0
C1222 C 0.6233 0.36412 0.52192 0.0
C1223 C 0.63536 0.38782 0.53953 0.0
H1224 H 0.20146 0.6106 0.40505 0.0
H1225 H 0.226 0.54577 0.47486 0.0
H1226 H 0.15888 0.62923 0.43634 0.0
H1227 H 0.1836 0.56447 0.50647 0.0
H1228 H 0.12922 0.63355 0.56535 0.0
H1229 H 0.16996 0.61234 0.53389 0.0
H1230 H 0.10846 0.6107 0.45705 0.0
H1231 H 0.06748 0.63221 0.48857 0.0
C1232 C 0.19746 0.6002 0.42703 0.0
C1233 C 0.21654 0.57655 0.43753 0.0
C1234 C 0.17314 0.61078 0.44489 0.0
C1235 C 0.16776 0.59813 0.47374 0.0
C1236 C 0.18727 0.57474 0.48438 0.0
C1237 C 0.21145 0.56403 0.46639 0.0
C1238 C 0.12425 0.62853 0.54179 0.0
C1239 C 0.0951 0.63464 0.52943 0.0
C1240 C 0.14759 0.61621 0.52382 0.0
C1241 C 0.14242 0.60992 0.49301 0.0
C1242 C 0.11317 0.61562 0.48068 0.0
C1243 C 0.08967 0.62773 0.49876 0.0
H1244 H 0.9625 0.23152 0.48047 0.0
H1245 H 0.91162 0.19502 0.40468 0.0
H1246 H 0.94405 0.18934 0.51243 0.0
H1247 H 0.89326 0.15267 0.4364 0.0
H1248 H 0.89278 0.06505 0.49484 0.0
H1249 H 0.91365 0.10625 0.46318 0.0
H1250 H 0.89474 0.17179 0.53429 0.0
H1251 H 0.87419 0.13088 0.5659 0.0
C1252 C 0.94735 0.2144 0.47075 0.0
C1253 C 0.93878 0.2161 0.44014 0.0
C1254 C 0.93678 0.19033 0.48895 0.0
C1255 C 0.91742 0.16755 0.47683 0.0
C1256 C 0.90863 0.16953 0.44621 0.0
C1257 C 0.91905 0.19372 0.4281 0.0
C1258 C 0.89329 0.08821 0.50376 0.0
C1259 C 0.8818 0.09467 0.53286 0.0
C1260 C 0.90505 0.11182 0.48557 0.0
C1261 C 0.90578 0.14225 0.49626 0.0
C1262 C 0.89478 0.14855 0.52554 0.0
C1263 C 0.88285 0.12508 0.54358 0.0
H1264 H 0.78802 0.04614 0.01596 0.0
H1265 H 0.81981 0.10386 0.08898 0.0
H1266 H 0.83058 0.06397 0.98407 0.0
H1267 H 0.86257 0.12154 0.05738 0.0
H1268 H 0.95182 0.12238 0.00153 0.0
H1269 H 0.91076 0.10118 0.0332 0.0
H1270 H 0.84642 0.1129 0.95955 0.0
H1271 H 0.88721 0.13384 0.92796 0.0
C1272 C 0.80419 0.06264 0.02509 0.0
C1273 C 0.80099 0.07345 0.05488 0.0
C1274 C 0.82848 0.07284 0.00694 0.0
C1275 C 0.85004 0.09397 0.01833 0.0
C1276 C 0.84666 0.10483 0.04818 0.0
C1277 C 0.82223 0.0948 0.06621 0.0
C1278 C 0.92897 0.12017 0.99205 0.0
C1279 C 0.92277 0.12985 0.96227 0.0
C1280 C 0.90544 0.10823 0.01023 0.0
C1281 C 0.87538 0.10545 -0.00115 0.0
C1282 C 0.8694 0.11448 0.96886 0.0
C1283 C 0.89278 0.12665 0.95083 0.0
H1284 H 0.36403 0.88466 0.93398 0.0
H1285 H 0.40754 0.95189 0.99196 0.0
H1286 H 0.38498 0.8436 0.96484 0.0
H1287 H 0.42812 0.91043 0.02343 0.0
H1288 H 0.4849 0.82559 0.05285 0.0
H1289 H 0.46531 0.86806 0.02203 0.0
H1290 H 0.37772 0.82184 0.01481 0.0
H1291 H 0.39751 0.7795 0.04539 0.0
C1292 C 0.37802 0.89073 0.95339 0.0
C1293 C 0.38406 0.92163 0.96052 0.0
C1294 C 0.38988 0.86711 0.97123 0.0
C1295 C 0.40804 0.87371 -0.00327 0.0
C1296 C 0.4144 0.90459 0.00376 0.0
C1297 C 0.4025 0.92834 0.98584 0.0
C1298 C 0.46148 0.82466 0.04459 0.0
C1299 C 0.44277 0.79923 0.05109 0.0
C1300 C 0.45021 0.84898 0.02712 0.0
C1301 C 0.42 0.84829 0.01587 0.0
C1302 C 0.40128 0.82284 0.02266 0.0
C1303 C 0.41257 0.79858 0.0401 0.0
H1304 H 0.69676 0.48568 0.04342 0.0
H1305 H 0.72607 0.39298 0.06186 0.0
H1306 H 0.65338 0.46592 0.01347 0.0
H1307 H 0.6822 0.37314 0.03274 0.0
H1308 H 0.57784 0.35705 0.00871 0.0
H1309 H 0.61912 0.37927 0.03962 0.0
H1310 H 0.65186 0.42973 0.96184 0.0
H1311 H 0.61124 0.40691 0.93068 0.0
C1312 C 0.69382 0.4611 0.04095 0.0
C1313 C 0.71465 0.44073 0.05451 0.0
C1314 C 0.66912 0.44986 0.02398 0.0
C1315 C 0.66452 0.41808 0.02104 0.0
C1316 C 0.68524 0.39773 0.03491 0.0
C1317 C 0.71032 0.409 0.0513 0.0
C1318 C 0.59361 0.3732 -0.00164 0.0
C1319 C 0.59138 0.38033 0.96736 0.0
C1320 C 0.61727 0.38569 0.01595 0.0
C1321 C 0.63856 0.40608 0.00298 0.0
C1322 C 0.63562 0.41412 0.9723 0.0
C1323 C 0.61246 0.40106 0.95455 0.0
H1324 H 0.11879 0.73934 0.04291 0.0
H1325 H 0.0332 0.69061 0.0538 0.0
H1326 H 0.13908 0.69698 0.01264 0.0
H1327 H 0.05329 0.64815 0.02339 0.0
H1328 H 0.11244 0.56544 0.99376 0.0
H1329 H 0.09173 0.6071 0.02485 0.0
H1330 H 0.13126 0.67358 0.96344 0.0
H1331 H 0.15236 0.63231 0.93291 0.0
C1332 C 0.10422 0.71969 0.03843 0.0
C1333 C 0.07437 0.71829 0.05032 0.0
C1334 C 0.1158 0.69541 0.02118 0.0
C1335 C 0.09775 0.6692 0.01551 0.0
C1336 C 0.0679 0.66781 0.02763 0.0
C1337 C 0.05635 0.69213 0.04488 0.0
C1338 C 0.11667 0.58895 0.98693 0.0
C1339 C 0.13412 0.5955 0.9609 0.0
C1340 C 0.10469 0.61281 0.00465 0.0
C1341 C 0.10998 0.64367 -0.00331 0.0
C1342 C 0.1272 0.65011 0.97051 0.0
C1343 C 0.13913 0.62636 0.95288 0.0
loop_
_geom_bond_atom_site_label_1
_geom_bond_atom_site_label_2
_geom_bond_distance
_geom_bond_site_symmetry_2
_ccdc_geom_bond_type
Co0 O3 1.970 . S
Co0 N17 1.989 . S
Co0 O25 1.967 . S
Co0 O32 1.920 . S
Co1 O4 1.966 . S
Co1 N10 2.022 . S
Co1 N18 1.993 . S
Co1 O26 1.941 . S
C2 O3 1.258 . S
C2 O4 1.263 . S
O3 Co0 1.970 . S
O3 C2 1.258 . S
O4 Co1 1.966 . S
O4 C2 1.263 . S
C5 O6 1.235 . S
C5 O32 1.289 . S
O6 C5 1.235 . S
C7 C9 1.400 . S
C7 N10 1.351 . S
C7 C12 1.501 . S
C8 C9 1.387 . S
C8 N11 1.341 . S
C9 C7 1.400 . S
C9 C8 1.387 . S
N10 Co1 2.022 . S
N10 C7 1.351 . S
N10 N11 1.365 . S
N11 C8 1.341 . S
N11 N10 1.365 . S
N11 H31 0.862 . S
C12 C7 1.501 . S
C12 H13 0.961 . S
C12 H14 0.961 . S
C12 H15 0.960 . S
H13 C12 0.961 . S
H14 C12 0.961 . S
H15 C12 0.960 . S
C16 N17 1.342 . S
C16 C20 1.401 . S
C16 C21 1.499 . S
N17 Co0 1.989 . S
N17 C16 1.342 . S
N17 N18 1.388 . S
N18 Co1 1.993 . S
N18 N17 1.388 . S
N18 C19 1.346 . S
C19 N18 1.346 . S
C19 C20 1.396 . S
C19 C29 1.510 . S
C20 C16 1.401 . S
C20 C19 1.396 . S
C21 C16 1.499 . S
C21 H22 0.959 . S
C21 H23 0.960 . S
C21 H24 0.961 . S
H22 C21 0.959 . S
H23 C21 0.960 . S
H24 C21 0.961 . S
O25 Co0 1.967 . S
O25 C33 1.258 . S
O26 Co1 1.941 . S
O26 C33 1.266 . S
H27 C29 0.959 . S
H28 C29 0.961 . S
C29 C19 1.510 . S
C29 H27 0.959 . S
C29 H28 0.961 . S
C29 H30 0.960 . S
H30 C29 0.960 . S
H31 N11 0.862 . S
O32 Co0 1.920 . S
O32 C5 1.289 . S
C33 O25 1.258 . S
C33 O26 1.266 . S
Co34 O37 1.970 . S
Co34 N51 1.989 . S
Co34 O59 1.967 . S
Co34 O66 1.920 . S
Co35 O38 1.966 . S
Co35 N44 2.022 . S
Co35 N52 1.993 . S
Co35 O60 1.941 . S
C36 O37 1.258 . S
C36 O38 1.263 . S
O37 Co34 1.970 . S
O37 C36 1.258 . S
O38 Co35 1.966 . S
O38 C36 1.263 . S
C39 O40 1.235 . S
C39 O66 1.289 . S
O40 C39 1.235 . S
C41 C43 1.400 . S
C41 N44 1.351 . S
C41 C46 1.501 . S
C42 C43 1.387 . S
C42 N45 1.341 . S
C43 C41 1.400 . S
C43 C42 1.387 . S
N44 Co35 2.022 . S
N44 C41 1.351 . S
N44 N45 1.365 . S
N45 C42 1.341 . S
N45 N44 1.365 . S
N45 H65 0.862 . S
C46 C41 1.501 . S
C46 H47 0.961 . S
C46 H48 0.961 . S
C46 H49 0.960 . S
H47 C46 0.961 . S
H48 C46 0.961 . S
H49 C46 0.960 . S
C50 N51 1.342 . S
C50 C54 1.401 . S
C50 C55 1.499 . S
N51 Co34 1.989 . S
N51 C50 1.342 . S
N51 N52 1.388 . S
N52 Co35 1.993 . S
N52 N51 1.388 . S
N52 C53 1.346 . S
C53 N52 1.346 . S
C53 C54 1.396 . S
C53 C63 1.510 . S
C54 C50 1.401 . S
C54 C53 1.396 . S
C55 C50 1.499 . S
C55 H56 0.959 . S
C55 H57 0.960 . S
C55 H58 0.961 . S
H56 C55 0.959 . S
H57 C55 0.960 . S
H58 C55 0.961 . S
O59 Co34 1.967 . S
O59 C67 1.258 . S
O60 Co35 1.941 . S
O60 C67 1.266 . S
H61 C63 0.959 . S
H62 C63 0.961 . S
C63 C53 1.510 . S
C63 H61 0.959 . S
C63 H62 0.961 . S
C63 H64 0.960 . S
H64 C63 0.960 . S
H65 N45 0.862 . S
O66 Co34 1.920 . S
O66 C39 1.289 . S
C67 O59 1.258 . S
C67 O60 1.266 . S
Co68 O71 1.970 . S
Co68 N85 1.989 . S
Co68 O93 1.967 . S
Co68 O100 1.920 . S
Co69 O72 1.966 1_655 S
Co69 N78 2.022 1_655 S
Co69 N86 1.993 . S
Co69 O94 1.941 . S
C70 O71 1.258 1_455 S
C70 O72 1.263 . S
O71 Co68 1.970 . S
O71 C70 1.258 1_655 S
O72 Co69 1.966 1_455 S
O72 C70 1.263 . S
C73 O74 1.235 . S
C73 O100 1.289 . S
O74 C73 1.235 . S
C75 C77 1.400 . S
C75 N78 1.351 . S
C75 C80 1.501 . S
C76 C77 1.387 . S
C76 N79 1.341 1_455 S
C77 C75 1.400 . S
C77 C76 1.387 . S
N78 Co69 2.022 1_455 S
N78 C75 1.351 . S
N78 N79 1.365 1_455 S
N79 C76 1.341 1_655 S
N79 N78 1.365 1_655 S
N79 H99 0.862 . S
C80 C75 1.501 . S
C80 H81 0.961 . S
C80 H82 0.961 . S
C80 H83 0.960 . S
H81 C80 0.961 . S
H82 C80 0.961 . S
H83 C80 0.960 . S
C84 N85 1.342 . S
C84 C88 1.401 . S
C84 C89 1.499 . S
N85 Co68 1.989 . S
N85 C84 1.342 . S
N85 N86 1.388 . S
N86 Co69 1.993 . S
N86 N85 1.388 . S
N86 C87 1.346 . S
C87 N86 1.346 . S
C87 C88 1.396 . S
C87 C97 1.510 . S
C88 C84 1.401 . S
C88 C87 1.396 . S
C89 C84 1.499 . S
C89 H90 0.959 . S
C89 H91 0.960 . S
C89 H92 0.961 . S
H90 C89 0.959 . S
H91 C89 0.960 . S
H92 C89 0.961 . S
O93 Co68 1.967 . S
O93 C101 1.258 . S
O94 Co69 1.941 . S
O94 C101 1.266 . S
H95 C97 0.959 . S
H96 C97 0.961 . S
C97 C87 1.510 . S
C97 H95 0.959 . S
C97 H96 0.961 . S
C97 H98 0.960 . S
H98 C97 0.960 . S
H99 N79 0.862 . S
O100 Co68 1.920 . S
O100 C73 1.289 . S
C101 O93 1.258 . S
C101 O94 1.266 . S
Co102 O105 1.970 . S
Co102 N119 1.989 . S
Co102 O127 1.967 . S
Co102 O134 1.920 . S
Co103 O106 1.966 1_565 S
Co103 N112 2.022 1_565 S
Co103 N120 1.993 . S
Co103 O128 1.941 . S
C104 O105 1.258 1_545 S
C104 O106 1.263 . S
O105 Co102 1.970 . S
O105 C104 1.258 1_565 S
O106 Co103 1.966 1_545 S
O106 C104 1.263 . S
C107 O108 1.235 . S
C107 O134 1.289 . S
O108 C107 1.235 . S
C109 C111 1.400 . S
C109 N112 1.351 . S
C109 C114 1.501 . S
C110 C111 1.387 . S
C110 N113 1.341 1_545 S
C111 C109 1.400 . S
C111 C110 1.387 . S
N112 Co103 2.022 1_545 S
N112 C109 1.351 . S
N112 N113 1.365 1_545 S
N113 C110 1.341 1_565 S
N113 N112 1.365 1_565 S
N113 H133 0.862 . S
C114 C109 1.501 . S
C114 H115 0.961 . S
C114 H116 0.961 . S
C114 H117 0.960 . S
H115 C114 0.961 . S
H116 C114 0.961 . S
H117 C114 0.960 . S
C118 N119 1.342 . S
C118 C122 1.401 . S
C118 C123 1.499 . S
N119 Co102 1.989 . S
N119 C118 1.342 . S
N119 N120 1.388 . S
N120 Co103 1.993 . S
N120 N119 1.388 . S
N120 C121 1.346 . S
C121 N120 1.346 . S
C121 C122 1.396 . S
C121 C131 1.510 . S
C122 C118 1.401 . S
C122 C121 1.396 . S
C123 C118 1.499 . S
C123 H124 0.959 . S
C123 H125 0.960 . S
C123 H126 0.961 . S
H124 C123 0.959 . S
H125 C123 0.960 . S
H126 C123 0.961 . S
O127 Co102 1.967 . S
O127 C135 1.258 . S
O128 Co103 1.941 . S
O128 C135 1.266 . S
H129 C131 0.959 . S
H130 C131 0.961 . S
C131 C121 1.510 . S
C131 H129 0.959 . S
C131 H130 0.961 . S
C131 H132 0.960 . S
H132 C131 0.960 . S
H133 N113 0.862 . S
O134 Co102 1.920 . S
O134 C107 1.289 . S
C135 O127 1.258 . S
C135 O128 1.266 . S
Co136 O139 1.970 . S
Co136 N153 1.989 . S
Co136 O161 1.967 . S
Co136 O168 1.920 . S
Co137 O140 1.966 1_455 S
Co137 N146 2.022 1_455 S
Co137 N154 1.993 . S
Co137 O162 1.941 . S
C138 O139 1.258 1_655 S
C138 O140 1.263 . S
O139 Co136 1.970 . S
O139 C138 1.258 1_455 S
O140 Co137 1.966 1_655 S
O140 C138 1.263 . S
C141 O142 1.235 . S
C141 O168 1.289 . S
O142 C141 1.235 . S
C143 C145 1.400 . S
C143 N146 1.351 . S
C143 C148 1.501 . S
C144 C145 1.387 . S
C144 N147 1.341 1_655 S
C145 C143 1.400 . S
C145 C144 1.387 . S
N146 Co137 2.022 1_655 S
N146 C143 1.351 . S
N146 N147 1.365 1_655 S
N147 C144 1.341 1_455 S
N147 N146 1.365 1_455 S
N147 H167 0.862 . S
C148 C143 1.501 . S
C148 H149 0.961 . S
C148 H150 0.961 . S
C148 H151 0.960 . S
H149 C148 0.961 . S
H150 C148 0.961 . S
H151 C148 0.960 . S
C152 N153 1.342 . S
C152 C156 1.401 . S
C152 C157 1.499 . S
N153 Co136 1.989 . S
N153 C152 1.342 . S
N153 N154 1.388 . S
N154 Co137 1.993 . S
N154 N153 1.388 . S
N154 C155 1.346 . S
C155 N154 1.346 . S
C155 C156 1.396 . S
C155 C165 1.510 . S
C156 C152 1.401 . S
C156 C155 1.396 . S
C157 C152 1.499 . S
C157 H158 0.959 . S
C157 H159 0.960 . S
C157 H160 0.961 . S
H158 C157 0.959 . S
H159 C157 0.960 . S
H160 C157 0.961 . S
O161 Co136 1.967 . S
O161 C169 1.258 . S
O162 Co137 1.941 . S
O162 C169 1.266 . S
H163 C165 0.959 . S
H164 C165 0.961 . S
C165 C155 1.510 . S
C165 H163 0.959 . S
C165 H164 0.961 . S
C165 H166 0.960 . S
H166 C165 0.960 . S
H167 N147 0.862 . S
O168 Co136 1.920 . S
O168 C141 1.289 . S
C169 O161 1.258 . S
C169 O162 1.266 . S
Co170 O173 1.970 . S
Co170 N187 1.989 . S
Co170 O195 1.967 . S
Co170 O202 1.920 . S
Co171 O174 1.966 1_545 S
Co171 N180 2.022 1_545 S
Co171 N188 1.993 . S
Co171 O196 1.941 . S
C172 O173 1.258 1_565 S
C172 O174 1.263 . S
O173 Co170 1.970 . S
O173 C172 1.258 1_545 S
O174 Co171 1.966 1_565 S
O174 C172 1.263 . S
C175 O176 1.235 . S
C175 O202 1.289 . S
O176 C175 1.235 . S
C177 C179 1.400 . S
C177 N180 1.351 . S
C177 C182 1.501 . S
C178 C179 1.387 . S
C178 N181 1.341 1_565 S
C179 C177 1.400 . S
C179 C178 1.387 . S
N180 Co171 2.022 1_565 S
N180 C177 1.351 . S
N180 N181 1.365 1_565 S
N181 C178 1.341 1_545 S
N181 N180 1.365 1_545 S
N181 H201 0.862 . S
C182 C177 1.501 . S
C182 H183 0.961 . S
C182 H184 0.961 . S
C182 H185 0.960 . S
H183 C182 0.961 . S
H184 C182 0.961 . S
H185 C182 0.960 . S
C186 N187 1.342 . S
C186 C190 1.401 . S
C186 C191 1.499 . S
N187 Co170 1.989 . S
N187 C186 1.342 . S
N187 N188 1.388 . S
N188 Co171 1.993 . S
N188 N187 1.388 . S
N188 C189 1.346 . S
C189 N188 1.346 . S
C189 C190 1.396 . S
C189 C199 1.510 . S
C190 C186 1.401 . S
C190 C189 1.396 . S
C191 C186 1.499 . S
C191 H192 0.959 . S
C191 H193 0.960 . S
C191 H194 0.961 . S
H192 C191 0.959 . S
H193 C191 0.960 . S
H194 C191 0.961 . S
O195 Co170 1.967 . S
O195 C203 1.258 . S
O196 Co171 1.941 . S
O196 C203 1.266 . S
H197 C199 0.959 . S
H198 C199 0.961 . S
C199 C189 1.510 . S
C199 H197 0.959 . S
C199 H198 0.961 . S
C199 H200 0.960 . S
H200 C199 0.960 . S
H201 N181 0.862 . S
O202 Co170 1.920 . S
O202 C175 1.289 . S
C203 O195 1.258 . S
C203 O196 1.266 . S
Co204 O207 1.970 . S
Co204 N221 1.989 . S
Co204 O229 1.967 . S
Co204 O236 1.920 . S
Co205 O208 1.966 . S
Co205 N214 2.022 . S
Co205 N222 1.993 . S
Co205 O230 1.941 . S
C206 O207 1.258 . S
C206 O208 1.263 . S
O207 Co204 1.970 . S
O207 C206 1.258 . S
O208 Co205 1.966 . S
O208 C206 1.263 . S
C209 O210 1.235 . S
C209 O236 1.289 . S
O210 C209 1.235 . S
C211 C213 1.400 . S
C211 N214 1.351 . S
C211 C216 1.501 . S
C212 C213 1.387 . S
C212 N215 1.341 . S
C213 C211 1.400 . S
C213 C212 1.387 . S
N214 Co205 2.022 . S
N214 C211 1.351 . S
N214 N215 1.365 . S
N215 C212 1.341 . S
N215 N214 1.365 . S
N215 H235 0.862 . S
C216 C211 1.501 . S
C216 H217 0.961 . S
C216 H218 0.961 . S
C216 H219 0.960 . S
H217 C216 0.961 . S
H218 C216 0.961 . S
H219 C216 0.960 . S
C220 N221 1.342 . S
C220 C224 1.401 . S
C220 C225 1.499 . S
N221 Co204 1.989 . S
N221 C220 1.342 . S
N221 N222 1.388 . S
N222 Co205 1.993 . S
N222 N221 1.388 . S
N222 C223 1.346 . S
C223 N222 1.346 . S
C223 C224 1.396 . S
C223 C233 1.510 . S
C224 C220 1.401 . S
C224 C223 1.396 . S
C225 C220 1.499 . S
C225 H226 0.959 . S
C225 H227 0.960 . S
C225 H228 0.961 . S
H226 C225 0.959 . S
H227 C225 0.960 . S
H228 C225 0.961 . S
O229 Co204 1.967 . S
O229 C237 1.258 . S
O230 Co205 1.941 . S
O230 C237 1.266 . S
H231 C233 0.959 . S
H232 C233 0.961 . S
C233 C223 1.510 . S
C233 H231 0.959 . S
C233 H232 0.961 . S
C233 H234 0.960 . S
H234 C233 0.960 . S
H235 N215 0.862 . S
O236 Co204 1.920 . S
O236 C209 1.289 . S
C237 O229 1.258 . S
C237 O230 1.266 . S
Co238 O241 1.970 . S
Co238 N255 1.989 . S
Co238 O263 1.967 . S
Co238 O270 1.920 . S
Co239 O242 1.966 . S
Co239 N248 2.022 . S
Co239 N256 1.993 . S
Co239 O264 1.941 . S
C240 O241 1.258 . S
C240 O242 1.263 . S
O241 Co238 1.970 . S
O241 C240 1.258 . S
O242 Co239 1.966 . S
O242 C240 1.263 . S
C243 O244 1.235 . S
C243 O270 1.289 . S
O244 C243 1.235 . S
C245 C247 1.400 . S
C245 N248 1.351 . S
C245 C250 1.501 . S
C246 C247 1.387 . S
C246 N249 1.341 . S
C247 C245 1.400 . S
C247 C246 1.387 . S
N248 Co239 2.022 . S
N248 C245 1.351 . S
N248 N249 1.365 . S
N249 C246 1.341 . S
N249 N248 1.365 . S
N249 H269 0.862 . S
C250 C245 1.501 . S
C250 H251 0.961 . S
C250 H252 0.961 . S
C250 H253 0.960 . S
H251 C250 0.961 . S
H252 C250 0.961 . S
H253 C250 0.960 . S
C254 N255 1.342 . S
C254 C258 1.401 . S
C254 C259 1.499 . S
N255 Co238 1.989 . S
N255 C254 1.342 . S
N255 N256 1.388 . S
N256 Co239 1.993 . S
N256 N255 1.388 . S
N256 C257 1.346 . S
C257 N256 1.346 . S
C257 C258 1.396 . S
C257 C267 1.510 . S
C258 C254 1.401 . S
C258 C257 1.396 . S
C259 C254 1.499 . S
C259 H260 0.959 . S
C259 H261 0.960 . S
C259 H262 0.961 . S
H260 C259 0.959 . S
H261 C259 0.960 . S
H262 C259 0.961 . S
O263 Co238 1.967 . S
O263 C271 1.258 . S
O264 Co239 1.941 . S
O264 C271 1.266 . S
H265 C267 0.959 . S
H266 C267 0.961 . S
C267 C257 1.510 . S
C267 H265 0.959 . S
C267 H266 0.961 . S
C267 H268 0.960 . S
H268 C267 0.960 . S
H269 N249 0.862 . S
O270 Co238 1.920 . S
O270 C243 1.289 . S
C271 O263 1.258 . S
C271 O264 1.266 . S
Co272 O275 1.970 . S
Co272 N289 1.989 . S
Co272 O297 1.967 . S
Co272 O304 1.920 . S
Co273 O276 1.966 . S
Co273 N282 2.022 . S
Co273 N290 1.993 . S
Co273 O298 1.941 . S
C274 O275 1.258 . S
C274 O276 1.263 . S
O275 Co272 1.970 . S
O275 C274 1.258 . S
O276 Co273 1.966 . S
O276 C274 1.263 . S
C277 O278 1.235 . S
C277 O304 1.289 . S
O278 C277 1.235 . S
C279 C281 1.400 . S
C279 N282 1.351 . S
C279 C284 1.501 . S
C280 C281 1.387 . S
C280 N283 1.341 . S
C281 C279 1.400 . S
C281 C280 1.387 . S
N282 Co273 2.022 . S
N282 C279 1.351 . S
N282 N283 1.365 . S
N283 C280 1.341 . S
N283 N282 1.365 . S
N283 H303 0.862 . S
C284 C279 1.501 . S
C284 H285 0.961 . S
C284 H286 0.961 . S
C284 H287 0.960 . S
H285 C284 0.961 . S
H286 C284 0.961 . S
H287 C284 0.960 . S
C288 N289 1.342 . S
C288 C292 1.401 . S
C288 C293 1.499 . S
N289 Co272 1.989 . S
N289 C288 1.342 . S
N289 N290 1.388 . S
N290 Co273 1.993 . S
N290 N289 1.388 . S
N290 C291 1.346 . S
C291 N290 1.346 . S
C291 C292 1.396 . S
C291 C301 1.510 . S
C292 C288 1.401 . S
C292 C291 1.396 . S
C293 C288 1.499 . S
C293 H294 0.959 . S
C293 H295 0.960 . S
C293 H296 0.961 . S
H294 C293 0.959 . S
H295 C293 0.960 . S
H296 C293 0.961 . S
O297 Co272 1.967 . S
O297 C305 1.258 . S
O298 Co273 1.941 . S
O298 C305 1.266 . S
H299 C301 0.959 . S
H300 C301 0.961 . S
C301 C291 1.510 . S
C301 H299 0.959 . S
C301 H300 0.961 . S
C301 H302 0.960 . S
H302 C301 0.960 . S
H303 N283 0.862 . S
O304 Co272 1.920 . S
O304 C277 1.289 . S
C305 O297 1.258 . S
C305 O298 1.266 . S
Co306 O309 1.970 . S
Co306 N323 1.989 . S
Co306 O331 1.967 . S
Co306 O338 1.920 . S
Co307 O310 1.966 . S
Co307 N316 2.022 . S
Co307 N324 1.993 . S
Co307 O332 1.941 . S
C308 O309 1.258 . S
C308 O310 1.263 . S
O309 Co306 1.970 . S
O309 C308 1.258 . S
O310 Co307 1.966 . S
O310 C308 1.263 . S
C311 O312 1.235 . S
C311 O338 1.289 . S
O312 C311 1.235 . S
C313 C315 1.400 . S
C313 N316 1.351 . S
C313 C318 1.501 . S
C314 C315 1.387 . S
C314 N317 1.341 . S
C315 C313 1.400 . S
C315 C314 1.387 . S
N316 Co307 2.022 . S
N316 C313 1.351 . S
N316 N317 1.365 . S
N317 C314 1.341 . S
N317 N316 1.365 . S
N317 H337 0.862 . S
C318 C313 1.501 . S
C318 H319 0.961 . S
C318 H320 0.961 . S
C318 H321 0.960 . S
H319 C318 0.961 . S
H320 C318 0.961 . S
H321 C318 0.960 . S
C322 N323 1.342 . S
C322 C326 1.401 . S
C322 C327 1.499 . S
N323 Co306 1.989 . S
N323 C322 1.342 . S
N323 N324 1.388 . S
N324 Co307 1.993 . S
N324 N323 1.388 . S
N324 C325 1.346 . S
C325 N324 1.346 . S
C325 C326 1.396 . S
C325 C335 1.510 . S
C326 C322 1.401 . S
C326 C325 1.396 . S
C327 C322 1.499 . S
C327 H328 0.959 . S
C327 H329 0.960 . S
C327 H330 0.961 . S
H328 C327 0.959 . S
H329 C327 0.960 . S
H330 C327 0.961 . S
O331 Co306 1.967 . S
O331 C339 1.258 . S
O332 Co307 1.941 . S
O332 C339 1.266 . S
H333 C335 0.959 . S
H334 C335 0.961 . S
C335 C325 1.510 . S
C335 H333 0.959 . S
C335 H334 0.961 . S
C335 H336 0.960 . S
H336 C335 0.960 . S
H337 N317 0.862 . S
O338 Co306 1.920 . S
O338 C311 1.289 . S
C339 O331 1.258 . S
C339 O332 1.266 . S
Co340 O343 1.970 . S
Co340 N357 1.989 . S
Co340 O365 1.967 . S
Co340 O372 1.920 . S
Co341 O344 1.966 1_455 S
Co341 N350 2.022 1_455 S
Co341 N358 1.993 . S
Co341 O366 1.941 . S
C342 O343 1.258 1_655 S
C342 O344 1.263 . S
O343 Co340 1.970 . S
O343 C342 1.258 1_455 S
O344 Co341 1.966 1_655 S
O344 C342 1.263 . S
C345 O346 1.235 . S
C345 O372 1.289 . S
O346 C345 1.235 . S
C347 C349 1.400 . S
C347 N350 1.351 . S
C347 C352 1.501 . S
C348 C349 1.387 . S
C348 N351 1.341 1_655 S
C349 C347 1.400 . S
C349 C348 1.387 . S
N350 Co341 2.022 1_655 S
N350 C347 1.351 . S
N350 N351 1.365 1_655 S
N351 C348 1.341 1_455 S
N351 N350 1.365 1_455 S
N351 H371 0.862 . S
C352 C347 1.501 . S
C352 H353 0.961 . S
C352 H354 0.961 . S
C352 H355 0.960 . S
H353 C352 0.961 . S
H354 C352 0.961 . S
H355 C352 0.960 . S
C356 N357 1.342 . S
C356 C360 1.401 . S
C356 C361 1.499 . S
N357 Co340 1.989 . S
N357 C356 1.342 . S
N357 N358 1.388 . S
N358 Co341 1.993 . S
N358 N357 1.388 . S
N358 C359 1.346 . S
C359 N358 1.346 . S
C359 C360 1.396 . S
C359 C369 1.510 . S
C360 C356 1.401 . S
C360 C359 1.396 . S
C361 C356 1.499 . S
C361 H362 0.959 . S
C361 H363 0.960 . S
C361 H364 0.961 . S
H362 C361 0.959 . S
H363 C361 0.960 . S
H364 C361 0.961 . S
O365 Co340 1.967 . S
O365 C373 1.258 . S
O366 Co341 1.941 . S
O366 C373 1.266 . S
H367 C369 0.959 . S
H368 C369 0.961 . S
C369 C359 1.510 . S
C369 H367 0.959 . S
C369 H368 0.961 . S
C369 H370 0.960 . S
H370 C369 0.960 . S
H371 N351 0.862 . S
O372 Co340 1.920 . S
O372 C345 1.289 . S
C373 O365 1.258 . S
C373 O366 1.266 . S
Co374 O377 1.970 . S
Co374 N391 1.989 . S
Co374 O399 1.967 . S
Co374 O406 1.920 . S
Co375 O378 1.966 1_545 S
Co375 N384 2.022 1_545 S
Co375 N392 1.993 . S
Co375 O400 1.941 . S
C376 O377 1.258 1_565 S
C376 O378 1.263 . S
O377 Co374 1.970 . S
O377 C376 1.258 1_545 S
O378 Co375 1.966 1_565 S
O378 C376 1.263 . S
C379 O380 1.235 . S
C379 O406 1.289 . S
O380 C379 1.235 . S
C381 C383 1.400 . S
C381 N384 1.351 . S
C381 C386 1.501 . S
C382 C383 1.387 . S
C382 N385 1.341 1_565 S
C383 C381 1.400 . S
C383 C382 1.387 . S
N384 Co375 2.022 1_565 S
N384 C381 1.351 . S
N384 N385 1.365 1_565 S
N385 C382 1.341 1_545 S
N385 N384 1.365 1_545 S
N385 H405 0.862 . S
C386 C381 1.501 . S
C386 H387 0.961 . S
C386 H388 0.961 . S
C386 H389 0.960 . S
H387 C386 0.961 . S
H388 C386 0.961 . S
H389 C386 0.960 . S
C390 N391 1.342 . S
C390 C394 1.401 . S
C390 C395 1.499 . S
N391 Co374 1.989 . S
N391 C390 1.342 . S
N391 N392 1.388 . S
N392 Co375 1.993 . S
N392 N391 1.388 . S
N392 C393 1.346 . S
C393 N392 1.346 . S
C393 C394 1.396 . S
C393 C403 1.510 . S
C394 C390 1.401 . S
C394 C393 1.396 . S
C395 C390 1.499 . S
C395 H396 0.959 . S
C395 H397 0.960 . S
C395 H398 0.961 . S
H396 C395 0.959 . S
H397 C395 0.960 . S
H398 C395 0.961 . S
O399 Co374 1.967 . S
O399 C407 1.258 . S
O400 Co375 1.941 . S
O400 C407 1.266 . S
H401 C403 0.959 . S
H402 C403 0.961 . S
C403 C393 1.510 . S
C403 H401 0.959 . S
C403 H402 0.961 . S
C403 H404 0.960 . S
H404 C403 0.960 . S
H405 N385 0.862 . S
O406 Co374 1.920 . S
O406 C379 1.289 . S
C407 O399 1.258 . S
C407 O400 1.266 . S
Co408 O411 1.970 . S
Co408 N425 1.989 . S
Co408 O433 1.967 . S
Co408 O440 1.920 . S
Co409 O412 1.966 1_655 S
Co409 N418 2.022 1_655 S
Co409 N426 1.993 . S
Co409 O434 1.941 . S
C410 O411 1.258 1_455 S
C410 O412 1.263 . S
O411 Co408 1.970 . S
O411 C410 1.258 1_655 S
O412 Co409 1.966 1_455 S
O412 C410 1.263 . S
C413 O414 1.235 . S
C413 O440 1.289 . S
O414 C413 1.235 . S
C415 C417 1.400 . S
C415 N418 1.351 . S
C415 C420 1.501 . S
C416 C417 1.387 . S
C416 N419 1.341 1_455 S
C417 C415 1.400 . S
C417 C416 1.387 . S
N418 Co409 2.022 1_455 S
N418 C415 1.351 . S
N418 N419 1.365 1_455 S
N419 C416 1.341 1_655 S
N419 N418 1.365 1_655 S
N419 H439 0.862 . S
C420 C415 1.501 . S
C420 H421 0.961 . S
C420 H422 0.961 . S
C420 H423 0.960 . S
H421 C420 0.961 . S
H422 C420 0.961 . S
H423 C420 0.960 . S
C424 N425 1.342 . S
C424 C428 1.401 . S
C424 C429 1.499 . S
N425 Co408 1.989 . S
N425 C424 1.342 . S
N425 N426 1.388 . S
N426 Co409 1.993 . S
N426 N425 1.388 . S
N426 C427 1.346 . S
C427 N426 1.346 . S
C427 C428 1.396 . S
C427 C437 1.510 . S
C428 C424 1.401 . S
C428 C427 1.396 . S
C429 C424 1.499 . S
C429 H430 0.959 . S
C429 H431 0.960 . S
C429 H432 0.961 . S
H430 C429 0.959 . S
H431 C429 0.960 . S
H432 C429 0.961 . S
O433 Co408 1.967 . S
O433 C441 1.258 . S
O434 Co409 1.941 . S
O434 C441 1.266 . S
H435 C437 0.959 . S
H436 C437 0.961 . S
C437 C427 1.510 . S
C437 H435 0.959 . S
C437 H436 0.961 . S
C437 H438 0.960 . S
H438 C437 0.960 . S
H439 N419 0.862 . S
O440 Co408 1.920 . S
O440 C413 1.289 . S
C441 O433 1.258 . S
C441 O434 1.266 . S
Co442 O445 1.970 . S
Co442 N459 1.989 . S
Co442 O467 1.967 . S
Co442 O474 1.920 . S
Co443 O446 1.966 1_565 S
Co443 N452 2.022 1_565 S
Co443 N460 1.993 . S
Co443 O468 1.941 . S
C444 O445 1.258 1_545 S
C444 O446 1.263 . S
O445 Co442 1.970 . S
O445 C444 1.258 1_565 S
O446 Co443 1.966 1_545 S
O446 C444 1.263 . S
C447 O448 1.235 . S
C447 O474 1.289 . S
O448 C447 1.235 . S
C449 C451 1.400 . S
C449 N452 1.351 . S
C449 C454 1.501 . S
C450 C451 1.387 . S
C450 N453 1.341 1_545 S
C451 C449 1.400 . S
C451 C450 1.387 . S
N452 Co443 2.022 1_545 S
N452 C449 1.351 . S
N452 N453 1.365 1_545 S
N453 C450 1.341 1_565 S
N453 N452 1.365 1_565 S
N453 H473 0.862 . S
C454 C449 1.501 . S
C454 H455 0.961 . S
C454 H456 0.961 . S
C454 H457 0.960 . S
H455 C454 0.961 . S
H456 C454 0.961 . S
H457 C454 0.960 . S
C458 N459 1.342 . S
C458 C462 1.401 . S
C458 C463 1.499 . S
N459 Co442 1.989 . S
N459 C458 1.342 . S
N459 N460 1.388 . S
N460 Co443 1.993 . S
N460 N459 1.388 . S
N460 C461 1.346 . S
C461 N460 1.346 . S
C461 C462 1.396 . S
C461 C471 1.510 . S
C462 C458 1.401 . S
C462 C461 1.396 . S
C463 C458 1.499 . S
C463 H464 0.959 . S
C463 H465 0.960 . S
C463 H466 0.961 . S
H464 C463 0.959 . S
H465 C463 0.960 . S
H466 C463 0.961 . S
O467 Co442 1.967 . S
O467 C475 1.258 . S
O468 Co443 1.941 . S
O468 C475 1.266 . S
H469 C471 0.959 . S
H470 C471 0.961 . S
C471 C461 1.510 . S
C471 H469 0.959 . S
C471 H470 0.961 . S
C471 H472 0.960 . S
H472 C471 0.960 . S
H473 N453 0.862 . S
O474 Co442 1.920 . S
O474 C447 1.289 . S
C475 O467 1.258 . S
C475 O468 1.266 . S
Co476 O479 1.970 . S
Co476 N493 1.989 . S
Co476 O501 1.967 . S
Co476 O508 1.920 . S
Co477 O480 1.966 . S
Co477 N486 2.022 . S
Co477 N494 1.993 . S
Co477 O502 1.941 . S
C478 O479 1.258 . S
C478 O480 1.263 . S
O479 Co476 1.970 . S
O479 C478 1.258 . S
O480 Co477 1.966 . S
O480 C478 1.263 . S
C481 O482 1.235 . S
C481 O508 1.289 . S
O482 C481 1.235 . S
C483 C485 1.400 . S
C483 N486 1.351 . S
C483 C488 1.501 . S
C484 C485 1.387 . S
C484 N487 1.341 . S
C485 C483 1.400 . S
C485 C484 1.387 . S
N486 Co477 2.022 . S
N486 C483 1.351 . S
N486 N487 1.365 . S
N487 C484 1.341 . S
N487 N486 1.365 . S
N487 H507 0.862 . S
C488 C483 1.501 . S
C488 H489 0.961 . S
C488 H490 0.961 . S
C488 H491 0.960 . S
H489 C488 0.961 . S
H490 C488 0.961 . S
H491 C488 0.960 . S
C492 N493 1.342 . S
C492 C496 1.401 . S
C492 C497 1.499 . S
N493 Co476 1.989 . S
N493 C492 1.342 . S
N493 N494 1.388 . S
N494 Co477 1.993 . S
N494 N493 1.388 . S
N494 C495 1.346 . S
C495 N494 1.346 . S
C495 C496 1.396 . S
C495 C505 1.510 . S
C496 C492 1.401 . S
C496 C495 1.396 . S
C497 C492 1.499 . S
C497 H498 0.959 . S
C497 H499 0.960 . S
C497 H500 0.961 . S
H498 C497 0.959 . S
H499 C497 0.960 . S
H500 C497 0.961 . S
O501 Co476 1.967 . S
O501 C509 1.258 . S
O502 Co477 1.941 . S
O502 C509 1.266 . S
H503 C505 0.959 . S
H504 C505 0.961 . S
C505 C495 1.510 . S
C505 H503 0.959 . S
C505 H504 0.961 . S
C505 H506 0.960 . S
H506 C505 0.960 . S
H507 N487 0.862 . S
O508 Co476 1.920 . S
O508 C481 1.289 . S
C509 O501 1.258 . S
C509 O502 1.266 . S
Co510 O513 1.970 . S
Co510 N527 1.989 . S
Co510 O535 1.967 . S
Co510 O542 1.920 . S
Co511 O514 1.966 . S
Co511 N520 2.022 . S
Co511 N528 1.993 . S
Co511 O536 1.941 . S
C512 O513 1.258 . S
C512 O514 1.263 . S
O513 Co510 1.970 . S
O513 C512 1.258 . S
O514 Co511 1.966 . S
O514 C512 1.263 . S
C515 O516 1.235 . S
C515 O542 1.289 . S
O516 C515 1.235 . S
C517 C519 1.400 . S
C517 N520 1.351 . S
C517 C522 1.501 . S
C518 C519 1.387 . S
C518 N521 1.341 . S
C519 C517 1.400 . S
C519 C518 1.387 . S
N520 Co511 2.022 . S
N520 C517 1.351 . S
N520 N521 1.365 . S
N521 C518 1.341 . S
N521 N520 1.365 . S
N521 H541 0.862 . S
C522 C517 1.501 . S
C522 H523 0.961 . S
C522 H524 0.961 . S
C522 H525 0.960 . S
H523 C522 0.961 . S
H524 C522 0.961 . S
H525 C522 0.960 . S
C526 N527 1.342 . S
C526 C530 1.401 . S
C526 C531 1.499 . S
N527 Co510 1.989 . S
N527 C526 1.342 . S
N527 N528 1.388 . S
N528 Co511 1.993 . S
N528 N527 1.388 . S
N528 C529 1.346 . S
C529 N528 1.346 . S
C529 C530 1.396 . S
C529 C539 1.510 . S
C530 C526 1.401 . S
C530 C529 1.396 . S
C531 C526 1.499 . S
C531 H532 0.959 . S
C531 H533 0.960 . S
C531 H534 0.961 . S
H532 C531 0.959 . S
H533 C531 0.960 . S
H534 C531 0.961 . S
O535 Co510 1.967 . S
O535 C543 1.258 . S
O536 Co511 1.941 . S
O536 C543 1.266 . S
H537 C539 0.959 . S
H538 C539 0.961 . S
C539 C529 1.510 . S
C539 H537 0.959 . S
C539 H538 0.961 . S
C539 H540 0.960 . S
H540 C539 0.960 . S
H541 N521 0.862 . S
O542 Co510 1.920 . S
O542 C515 1.289 . S
C543 O535 1.258 . S
C543 O536 1.266 . S
H544 C552 0.950 . S
H545 C557 0.950 . S
H546 C554 0.950 . S
H547 C556 0.950 . S
H548 C558 0.950 . S
H549 C560 0.950 . S
H550 C562 0.950 . S
H551 C563 0.950 . S
C552 H544 0.950 . S
C552 C553 1.386 . S
C552 C554 1.391 . S
C553 C552 1.386 . S
C553 C557 1.393 . S
C554 H546 0.950 . S
C554 C552 1.391 . S
C554 C555 1.400 . S
C555 C554 1.400 . S
C555 C556 1.398 . S
C555 C561 1.491 . S
C556 H547 0.950 . S
C556 C555 1.398 . S
C556 C557 1.391 . S
C557 H545 0.950 . S
C557 C553 1.393 . S
C557 C556 1.391 . S
C558 H548 0.950 . S
C558 C559 1.386 . S
C558 C560 1.391 . S
C559 C558 1.386 . S
C559 C563 1.393 . S
C560 H549 0.950 . S
C560 C558 1.391 . S
C560 C561 1.400 . S
C561 C555 1.491 . S
C561 C560 1.400 . S
C561 C562 1.398 . S
C562 H550 0.950 . S
C562 C561 1.398 . S
C562 C563 1.391 . S
C563 H551 0.950 . S
C563 C559 1.393 . S
C563 C562 1.391 . S
H564 C572 0.950 . S
H565 C577 0.950 . S
H566 C574 0.950 . S
H567 C576 0.950 . S
H568 C578 0.950 . S
H569 C580 0.950 . S
H570 C582 0.950 . S
H571 C583 0.950 . S
C572 H564 0.950 . S
C572 C573 1.386 . S
C572 C574 1.391 . S
C573 C572 1.386 . S
C573 C577 1.393 . S
C574 H566 0.950 . S
C574 C572 1.391 . S
C574 C575 1.400 . S
C575 C574 1.400 . S
C575 C576 1.398 . S
C575 C581 1.491 . S
C576 H567 0.950 . S
C576 C575 1.398 . S
C576 C577 1.391 . S
C577 H565 0.950 . S
C577 C573 1.393 . S
C577 C576 1.391 . S
C578 H568 0.950 . S
C578 C579 1.386 . S
C578 C580 1.391 . S
C579 C578 1.386 . S
C579 C583 1.393 . S
C580 H569 0.950 . S
C580 C578 1.391 . S
C580 C581 1.400 . S
C581 C575 1.491 . S
C581 C580 1.400 . S
C581 C582 1.398 . S
C582 H570 0.950 . S
C582 C581 1.398 . S
C582 C583 1.391 . S
C583 H571 0.950 . S
C583 C579 1.393 . S
C583 C582 1.391 . S
H584 C592 0.950 . S
H585 C597 0.950 . S
H586 C594 0.950 . S
H587 C596 0.950 . S
H588 C598 0.950 . S
H589 C600 0.950 . S
H590 C602 0.950 . S
H591 C603 0.950 . S
C592 H584 0.950 . S
C592 C593 1.386 . S
C592 C594 1.391 . S
C593 C592 1.386 . S
C593 C597 1.393 . S
C594 H586 0.950 . S
C594 C592 1.391 . S
C594 C595 1.400 . S
C595 C594 1.400 . S
C595 C596 1.398 . S
C595 C601 1.491 . S
C596 H587 0.950 . S
C596 C595 1.398 . S
C596 C597 1.391 . S
C597 H585 0.950 . S
C597 C593 1.393 . S
C597 C596 1.391 . S
C598 H588 0.950 . S
C598 C599 1.386 . S
C598 C600 1.391 . S
C599 C598 1.386 . S
C599 C603 1.393 . S
C600 H589 0.950 . S
C600 C598 1.391 . S
C600 C601 1.400 . S
C601 C595 1.491 . S
C601 C600 1.400 . S
C601 C602 1.398 . S
C602 H590 0.950 . S
C602 C601 1.398 . S
C602 C603 1.391 . S
C603 H591 0.950 . S
C603 C599 1.393 . S
C603 C602 1.391 . S
H604 C612 0.950 . S
H605 C617 0.950 . S
H606 C614 0.950 . S
H607 C616 0.950 . S
H608 C618 0.950 . S
H609 C620 0.950 . S
H610 C622 0.950 . S
H611 C623 0.950 . S
C612 H604 0.950 . S
C612 C613 1.386 . S
C612 C614 1.391 . S
C613 C612 1.386 . S
C613 C617 1.393 . S
C614 H606 0.950 . S
C614 C612 1.391 . S
C614 C615 1.400 . S
C615 C614 1.400 . S
C615 C616 1.398 . S
C615 C621 1.491 . S
C616 H607 0.950 . S
C616 C615 1.398 . S
C616 C617 1.391 . S
C617 H605 0.950 . S
C617 C613 1.393 . S
C617 C616 1.391 . S
C618 H608 0.950 . S
C618 C619 1.386 . S
C618 C620 1.391 . S
C619 C618 1.386 . S
C619 C623 1.393 . S
C620 H609 0.950 . S
C620 C618 1.391 . S
C620 C621 1.400 . S
C621 C615 1.491 . S
C621 C620 1.400 . S
C621 C622 1.398 . S
C622 H610 0.950 . S
C622 C621 1.398 . S
C622 C623 1.391 . S
C623 H611 0.950 . S
C623 C619 1.393 . S
C623 C622 1.391 . S
H624 C632 0.950 . S
H625 C637 0.950 . S
H626 C634 0.950 . S
H627 C636 0.950 . S
H628 C638 0.950 . S
H629 C640 0.950 . S
H630 C642 0.950 . S
H631 C643 0.950 . S
C632 H624 0.950 . S
C632 C633 1.386 . S
C632 C634 1.391 . S
C633 C632 1.386 . S
C633 C637 1.393 . S
C634 H626 0.950 . S
C634 C632 1.391 . S
C634 C635 1.400 . S
C635 C634 1.400 . S
C635 C636 1.398 . S
C635 C641 1.491 . S
C636 H627 0.950 . S
C636 C635 1.398 . S
C636 C637 1.391 . S
C637 H625 0.950 . S
C637 C633 1.393 . S
C637 C636 1.391 . S
C638 H628 0.950 . S
C638 C639 1.386 . S
C638 C640 1.391 . S
C639 C638 1.386 . S
C639 C643 1.393 . S
C640 H629 0.950 . S
C640 C638 1.391 . S
C640 C641 1.400 . S
C641 C635 1.491 . S
C641 C640 1.400 . S
C641 C642 1.398 . S
C642 H630 0.950 . S
C642 C641 1.398 . S
C642 C643 1.391 . S
C643 H631 0.950 . S
C643 C639 1.393 . S
C643 C642 1.391 . S
H644 C652 0.950 . S
H645 C657 0.950 . S
H646 C654 0.950 . S
H647 C656 0.950 . S
H648 C658 0.950 . S
H649 C660 0.950 . S
H650 C662 0.950 . S
H651 C663 0.950 . S
C652 H644 0.950 . S
C652 C653 1.386 . S
C652 C654 1.391 . S
C653 C652 1.386 . S
C653 C657 1.393 . S
C654 H646 0.950 . S
C654 C652 1.391 . S
C654 C655 1.400 . S
C655 C654 1.400 . S
C655 C656 1.398 . S
C655 C661 1.491 . S
C656 H647 0.950 . S
C656 C655 1.398 . S
C656 C657 1.391 . S
C657 H645 0.950 . S
C657 C653 1.393 . S
C657 C656 1.391 . S
C658 H648 0.950 . S
C658 C659 1.386 . S
C658 C660 1.391 . S
C659 C658 1.386 . S
C659 C663 1.393 . S
C660 H649 0.950 . S
C660 C658 1.391 . S
C660 C661 1.400 . S
C661 C655 1.491 . S
C661 C660 1.400 . S
C661 C662 1.398 . S
C662 H650 0.950 . S
C662 C661 1.398 . S
C662 C663 1.391 . S
C663 H651 0.950 . S
C663 C659 1.393 . S
C663 C662 1.391 . S
H664 C672 0.950 . S
H665 C677 0.950 . S
H666 C674 0.950 . S
H667 C676 0.950 . S
H668 C678 0.950 . S
H669 C680 0.950 . S
H670 C682 0.950 . S
H671 C683 0.950 . S
C672 H664 0.950 . S
C672 C673 1.386 . S
C672 C674 1.391 . S
C673 C672 1.386 . S
C673 C677 1.393 . S
C674 H666 0.950 . S
C674 C672 1.391 . S
C674 C675 1.400 . S
C675 C674 1.400 . S
C675 C676 1.398 . S
C675 C681 1.491 . S
C676 H667 0.950 . S
C676 C675 1.398 . S
C676 C677 1.391 . S
C677 H665 0.950 . S
C677 C673 1.393 . S
C677 C676 1.391 . S
C678 H668 0.950 . S
C678 C679 1.386 . S
C678 C680 1.391 . S
C679 C678 1.386 . S
C679 C683 1.393 . S
C680 H669 0.950 . S
C680 C678 1.391 . S
C680 C681 1.400 . S
C681 C675 1.491 . S
C681 C680 1.400 . S
C681 C682 1.398 . S
C682 H670 0.950 . S
C682 C681 1.398 . S
C682 C683 1.391 . S
C683 H671 0.950 . S
C683 C679 1.393 . S
C683 C682 1.391 . S
H684 C692 0.950 . S
H685 C697 0.950 . S
H686 C694 0.950 . S
H687 C696 0.950 . S
H688 C698 0.950 . S
H689 C700 0.950 . S
H690 C702 0.950 . S
H691 C703 0.950 . S
C692 H684 0.950 . S
C692 C693 1.386 . S
C692 C694 1.391 . S
C693 C692 1.386 . S
C693 C697 1.393 . S
C694 H686 0.950 . S
C694 C692 1.391 . S
C694 C695 1.400 . S
C695 C694 1.400 . S
C695 C696 1.398 . S
C695 C701 1.491 . S
C696 H687 0.950 . S
C696 C695 1.398 . S
C696 C697 1.391 . S
C697 H685 0.950 . S
C697 C693 1.393 . S
C697 C696 1.391 . S
C698 H688 0.950 . S
C698 C699 1.386 . S
C698 C700 1.391 . S
C699 C698 1.386 . S
C699 C703 1.393 . S
C700 H689 0.950 . S
C700 C698 1.391 . S
C700 C701 1.400 . S
C701 C695 1.491 . S
C701 C700 1.400 . S
C701 C702 1.398 . S
C702 H690 0.950 . S
C702 C701 1.398 . S
C702 C703 1.391 . S
C703 H691 0.950 . S
C703 C699 1.393 . S
C703 C702 1.391 . S
H704 C712 0.950 . S
H705 C717 0.950 . S
H706 C714 0.950 . S
H707 C716 0.950 . S
H708 C718 0.950 . S
H709 C720 0.950 . S
H710 C722 0.950 . S
H711 C723 0.950 . S
C712 H704 0.950 . S
C712 C713 1.386 . S
C712 C714 1.391 . S
C713 C712 1.386 . S
C713 C717 1.393 . S
C714 H706 0.950 . S
C714 C712 1.391 . S
C714 C715 1.400 . S
C715 C714 1.400 . S
C715 C716 1.398 . S
C715 C721 1.491 . S
C716 H707 0.950 . S
C716 C715 1.398 . S
C716 C717 1.391 . S
C717 H705 0.950 . S
C717 C713 1.393 . S
C717 C716 1.391 . S
C718 H708 0.950 . S
C718 C719 1.386 . S
C718 C720 1.391 . S
C719 C718 1.386 . S
C719 C723 1.393 . S
C720 H709 0.950 . S
C720 C718 1.391 . S
C720 C721 1.400 . S
C721 C715 1.491 . S
C721 C720 1.400 . S
C721 C722 1.398 . S
C722 H710 0.950 . S
C722 C721 1.398 . S
C722 C723 1.391 . S
C723 H711 0.950 . S
C723 C719 1.393 . S
C723 C722 1.391 . S
H724 C732 0.950 . S
H725 C737 0.950 . S
H726 C734 0.950 . S
H727 C736 0.950 . S
H728 C738 0.950 . S
H729 C740 0.950 . S
H730 C742 0.950 . S
H731 C743 0.950 . S
C732 H724 0.950 . S
C732 C733 1.386 . S
C732 C734 1.391 . S
C733 C732 1.386 . S
C733 C737 1.393 . S
C734 H726 0.950 . S
C734 C732 1.391 . S
C734 C735 1.400 . S
C735 C734 1.400 . S
C735 C736 1.398 . S
C735 C741 1.491 . S
C736 H727 0.950 . S
C736 C735 1.398 . S
C736 C737 1.391 . S
C737 H725 0.950 . S
C737 C733 1.393 . S
C737 C736 1.391 . S
C738 H728 0.950 . S
C738 C739 1.386 . S
C738 C740 1.391 . S
C739 C738 1.386 . S
C739 C743 1.393 . S
C740 H729 0.950 . S
C740 C738 1.391 . S
C740 C741 1.400 . S
C741 C735 1.491 . S
C741 C740 1.400 . S
C741 C742 1.398 . S
C742 H730 0.950 . S
C742 C741 1.398 . S
C742 C743 1.391 . S
C743 H731 0.950 . S
C743 C739 1.393 . S
C743 C742 1.391 . S
H744 C752 0.950 . S
H745 C757 0.950 . S
H746 C754 0.950 . S
H747 C756 0.950 . S
H748 C758 0.950 . S
H749 C760 0.950 . S
H750 C762 0.950 . S
H751 C763 0.950 . S
C752 H744 0.950 . S
C752 C753 1.386 . S
C752 C754 1.391 . S
C753 C752 1.386 . S
C753 C757 1.393 . S
C754 H746 0.950 . S
C754 C752 1.391 . S
C754 C755 1.400 . S
C755 C754 1.400 . S
C755 C756 1.398 . S
C755 C761 1.491 . S
C756 H747 0.950 . S
C756 C755 1.398 . S
C756 C757 1.391 . S
C757 H745 0.950 . S
C757 C753 1.393 . S
C757 C756 1.391 . S
C758 H748 0.950 . S
C758 C759 1.386 . S
C758 C760 1.391 . S
C759 C758 1.386 . S
C759 C763 1.393 . S
C760 H749 0.950 . S
C760 C758 1.391 . S
C760 C761 1.400 . S
C761 C755 1.491 . S
C761 C760 1.400 . S
C761 C762 1.398 . S
C762 H750 0.950 . S
C762 C761 1.398 . S
C762 C763 1.391 . S
C763 H751 0.950 . S
C763 C759 1.393 . S
C763 C762 1.391 . S
H764 C772 0.950 . S
H765 C777 0.950 . S
H766 C774 0.950 . S
H767 C776 0.950 . S
H768 C778 0.950 . S
H769 C780 0.950 . S
H770 C782 0.950 . S
H771 C783 0.950 . S
C772 H764 0.950 . S
C772 C773 1.386 . S
C772 C774 1.391 . S
C773 C772 1.386 . S
C773 C777 1.393 . S
C774 H766 0.950 . S
C774 C772 1.391 . S
C774 C775 1.400 . S
C775 C774 1.400 . S
C775 C776 1.398 . S
C775 C781 1.491 . S
C776 H767 0.950 . S
C776 C775 1.398 . S
C776 C777 1.391 . S
C777 H765 0.950 . S
C777 C773 1.393 . S
C777 C776 1.391 . S
C778 H768 0.950 . S
C778 C779 1.386 . S
C778 C780 1.391 . S
C779 C778 1.386 . S
C779 C783 1.393 . S
C780 H769 0.950 . S
C780 C778 1.391 . S
C780 C781 1.400 . S
C781 C775 1.491 . S
C781 C780 1.400 . S
C781 C782 1.398 . S
C782 H770 0.950 . S
C782 C781 1.398 . S
C782 C783 1.391 . S
C783 H771 0.950 . S
C783 C779 1.393 . S
C783 C782 1.391 . S
H784 C792 0.950 . S
H785 C797 0.950 . S
H786 C794 0.950 . S
H787 C796 0.950 . S
H788 C798 0.950 . S
H789 C800 0.950 . S
H790 C802 0.950 . S
H791 C803 0.950 . S
C792 H784 0.950 . S
C792 C793 1.386 . S
C792 C794 1.391 . S
C793 C792 1.386 . S
C793 C797 1.393 . S
C794 H786 0.950 . S
C794 C792 1.391 . S
C794 C795 1.400 . S
C795 C794 1.400 . S
C795 C796 1.398 . S
C795 C801 1.491 . S
C796 H787 0.950 . S
C796 C795 1.398 . S
C796 C797 1.391 . S
C797 H785 0.950 . S
C797 C793 1.393 . S
C797 C796 1.391 . S
C798 H788 0.950 . S
C798 C799 1.386 . S
C798 C800 1.391 . S
C799 C798 1.386 . S
C799 C803 1.393 . S
C800 H789 0.950 . S
C800 C798 1.391 . S
C800 C801 1.400 . S
C801 C795 1.491 . S
C801 C800 1.400 . S
C801 C802 1.398 . S
C802 H790 0.950 . S
C802 C801 1.398 . S
C802 C803 1.391 . S
C803 H791 0.950 . S
C803 C799 1.393 . S
C803 C802 1.391 . S
H804 C812 0.950 . S
H805 C817 0.950 . S
H806 C814 0.950 . S
H807 C816 0.950 . S
H808 C818 0.950 . S
H809 C820 0.950 . S
H810 C822 0.950 . S
H811 C823 0.950 . S
C812 H804 0.950 . S
C812 C813 1.386 . S
C812 C814 1.391 . S
C813 C812 1.386 . S
C813 C817 1.393 . S
C814 H806 0.950 . S
C814 C812 1.391 . S
C814 C815 1.400 . S
C815 C814 1.400 . S
C815 C816 1.398 . S
C815 C821 1.491 . S
C816 H807 0.950 . S
C816 C815 1.398 . S
C816 C817 1.391 . S
C817 H805 0.950 . S
C817 C813 1.393 . S
C817 C816 1.391 . S
C818 H808 0.950 . S
C818 C819 1.386 . S
C818 C820 1.391 . S
C819 C818 1.386 . S
C819 C823 1.393 . S
C820 H809 0.950 . S
C820 C818 1.391 . S
C820 C821 1.400 . S
C821 C815 1.491 . S
C821 C820 1.400 . S
C821 C822 1.398 . S
C822 H810 0.950 . S
C822 C821 1.398 . S
C822 C823 1.391 . S
C823 H811 0.950 . S
C823 C819 1.393 . S
C823 C822 1.391 . S
H824 C832 0.950 . S
H825 C837 0.950 . S
H826 C834 0.950 . S
H827 C836 0.950 . S
H828 C838 0.950 . S
H829 C840 0.950 . S
H830 C842 0.950 . S
H831 C843 0.950 . S
C832 H824 0.950 . S
C832 C833 1.386 . S
C832 C834 1.391 . S
C833 C832 1.386 . S
C833 C837 1.393 . S
C834 H826 0.950 . S
C834 C832 1.391 . S
C834 C835 1.400 . S
C835 C834 1.400 . S
C835 C836 1.398 . S
C835 C841 1.491 . S
C836 H827 0.950 . S
C836 C835 1.398 . S
C836 C837 1.391 . S
C837 H825 0.950 . S
C837 C833 1.393 . S
C837 C836 1.391 . S
C838 H828 0.950 . S
C838 C839 1.386 . S
C838 C840 1.391 . S
C839 C838 1.386 . S
C839 C843 1.393 . S
C840 H829 0.950 . S
C840 C838 1.391 . S
C840 C841 1.400 . S
C841 C835 1.491 . S
C841 C840 1.400 . S
C841 C842 1.398 . S
C842 H830 0.950 . S
C842 C841 1.398 . S
C842 C843 1.391 . S
C843 H831 0.950 . S
C843 C839 1.393 . S
C843 C842 1.391 . S
H844 C852 0.950 . S
H845 C857 0.950 . S
H846 C854 0.950 . S
H847 C856 0.950 . S
H848 C858 0.950 . S
H849 C860 0.950 . S
H850 C862 0.950 . S
H851 C863 0.950 . S
C852 H844 0.950 . S
C852 C853 1.386 . S
C852 C854 1.391 . S
C853 C852 1.386 . S
C853 C857 1.393 . S
C854 H846 0.950 . S
C854 C852 1.391 . S
C854 C855 1.400 . S
C855 C854 1.400 . S
C855 C856 1.398 . S
C855 C861 1.491 . S
C856 H847 0.950 . S
C856 C855 1.398 . S
C856 C857 1.391 . S
C857 H845 0.950 . S
C857 C853 1.393 . S
C857 C856 1.391 . S
C858 H848 0.950 . S
C858 C859 1.386 . S
C858 C860 1.391 . S
C859 C858 1.386 . S
C859 C863 1.393 . S
C860 H849 0.950 . S
C860 C858 1.391 . S
C860 C861 1.400 . S
C861 C855 1.491 . S
C861 C860 1.400 . S
C861 C862 1.398 . S
C862 H850 0.950 . S
C862 C861 1.398 . S
C862 C863 1.391 . S
C863 H851 0.950 . S
C863 C859 1.393 . S
C863 C862 1.391 . S
H864 C872 0.950 . S
H865 C877 0.950 . S
H866 C874 0.950 . S
H867 C876 0.950 . S
H868 C878 0.950 . S
H869 C880 0.950 . S
H870 C882 0.950 . S
H871 C883 0.950 . S
C872 H864 0.950 . S
C872 C873 1.386 . S
C872 C874 1.391 . S
C873 C872 1.386 . S
C873 C877 1.393 . S
C874 H866 0.950 . S
C874 C872 1.391 . S
C874 C875 1.400 . S
C875 C874 1.400 . S
C875 C876 1.398 . S
C875 C881 1.491 . S
C876 H867 0.950 . S
C876 C875 1.398 . S
C876 C877 1.391 . S
C877 H865 0.950 . S
C877 C873 1.393 . S
C877 C876 1.391 . S
C878 H868 0.950 . S
C878 C879 1.386 . S
C878 C880 1.391 . S
C879 C878 1.386 . S
C879 C883 1.393 . S
C880 H869 0.950 . S
C880 C878 1.391 . S
C880 C881 1.400 . S
C881 C875 1.491 . S
C881 C880 1.400 . S
C881 C882 1.398 . S
C882 H870 0.950 . S
C882 C881 1.398 . S
C882 C883 1.391 . S
C883 H871 0.950 . S
C883 C879 1.393 . S
C883 C882 1.391 . S
H884 C892 0.950 . S
H885 C897 0.950 . S
H886 C894 0.950 . S
H887 C896 0.950 . S
H888 C898 0.950 . S
H889 C900 0.950 . S
H890 C902 0.950 . S
H891 C903 0.950 . S
C892 H884 0.950 . S
C892 C893 1.386 . S
C892 C894 1.391 . S
C893 C892 1.386 . S
C893 C897 1.393 . S
C894 H886 0.950 . S
C894 C892 1.391 . S
C894 C895 1.400 . S
C895 C894 1.400 . S
C895 C896 1.398 . S
C895 C901 1.491 . S
C896 H887 0.950 . S
C896 C895 1.398 . S
C896 C897 1.391 . S
C897 H885 0.950 . S
C897 C893 1.393 . S
C897 C896 1.391 . S
C898 H888 0.950 . S
C898 C899 1.386 . S
C898 C900 1.391 . S
C899 C898 1.386 . S
C899 C903 1.393 . S
C900 H889 0.950 . S
C900 C898 1.391 . S
C900 C901 1.400 . S
C901 C895 1.491 . S
C901 C900 1.400 . S
C901 C902 1.398 . S
C902 H890 0.950 . S
C902 C901 1.398 . S
C902 C903 1.391 . S
C903 H891 0.950 . S
C903 C899 1.393 . S
C903 C902 1.391 . S
H904 C912 0.950 . S
H905 C917 0.950 . S
H906 C914 0.950 . S
H907 C916 0.950 . S
H908 C918 0.950 . S
H909 C920 0.950 . S
H910 C922 0.950 . S
H911 C923 0.950 . S
C912 H904 0.950 . S
C912 C913 1.386 . S
C912 C914 1.391 . S
C913 C912 1.386 . S
C913 C917 1.393 . S
C914 H906 0.950 . S
C914 C912 1.391 . S
C914 C915 1.400 . S
C915 C914 1.400 . S
C915 C916 1.398 . S
C915 C921 1.491 . S
C916 H907 0.950 . S
C916 C915 1.398 . S
C916 C917 1.391 . S
C917 H905 0.950 . S
C917 C913 1.393 . S
C917 C916 1.391 . S
C918 H908 0.950 . S
C918 C919 1.386 . S
C918 C920 1.391 . S
C919 C918 1.386 . S
C919 C923 1.393 . S
C920 H909 0.950 . S
C920 C918 1.391 . S
C920 C921 1.400 . S
C921 C915 1.491 . S
C921 C920 1.400 . S
C921 C922 1.398 . S
C922 H910 0.950 . S
C922 C921 1.398 . S
C922 C923 1.391 . S
C923 H911 0.950 . S
C923 C919 1.393 . S
C923 C922 1.391 . S
H924 C932 0.950 . S
H925 C937 0.950 . S
H926 C934 0.950 . S
H927 C936 0.950 . S
H928 C938 0.950 . S
H929 C940 0.950 . S
H930 C942 0.950 . S
H931 C943 0.950 . S
C932 H924 0.950 . S
C932 C933 1.386 . S
C932 C934 1.391 . S
C933 C932 1.386 . S
C933 C937 1.393 . S
C934 H926 0.950 . S
C934 C932 1.391 . S
C934 C935 1.400 . S
C935 C934 1.400 . S
C935 C936 1.398 . S
C935 C941 1.491 . S
C936 H927 0.950 . S
C936 C935 1.398 . S
C936 C937 1.391 . S
C937 H925 0.950 . S
C937 C933 1.393 . S
C937 C936 1.391 . S
C938 H928 0.950 . S
C938 C939 1.386 . S
C938 C940 1.391 . S
C939 C938 1.386 . S
C939 C943 1.393 . S
C940 H929 0.950 . S
C940 C938 1.391 . S
C940 C941 1.400 . S
C941 C935 1.491 . S
C941 C940 1.400 . S
C941 C942 1.398 . S
C942 H930 0.950 . S
C942 C941 1.398 . S
C942 C943 1.391 . S
C943 H931 0.950 . S
C943 C939 1.393 . S
C943 C942 1.391 . S
H944 C952 0.950 . S
H945 C957 0.950 . S
H946 C954 0.950 . S
H947 C956 0.950 . S
H948 C958 0.950 . S
H949 C960 0.950 . S
H950 C962 0.950 . S
H951 C963 0.950 . S
C952 H944 0.950 . S
C952 C953 1.386 . S
C952 C954 1.391 . S
C953 C952 1.386 . S
C953 C957 1.393 . S
C954 H946 0.950 . S
C954 C952 1.391 . S
C954 C955 1.400 . S
C955 C954 1.400 . S
C955 C956 1.398 . S
C955 C961 1.491 . S
C956 H947 0.950 . S
C956 C955 1.398 . S
C956 C957 1.391 . S
C957 H945 0.950 . S
C957 C953 1.393 . S
C957 C956 1.391 . S
C958 H948 0.950 . S
C958 C959 1.386 . S
C958 C960 1.391 . S
C959 C958 1.386 . S
C959 C963 1.393 . S
C960 H949 0.950 . S
C960 C958 1.391 . S
C960 C961 1.400 . S
C961 C955 1.491 . S
C961 C960 1.400 . S
C961 C962 1.398 . S
C962 H950 0.950 . S
C962 C961 1.398 . S
C962 C963 1.391 . S
C963 H951 0.950 . S
C963 C959 1.393 . S
C963 C962 1.391 . S
H964 C972 0.950 . S
H965 C977 0.950 . S
H966 C974 0.950 . S
H967 C976 0.950 . S
H968 C978 0.950 . S
H969 C980 0.950 . S
H970 C982 0.950 . S
H971 C983 0.950 . S
C972 H964 0.950 . S
C972 C973 1.386 . S
C972 C974 1.391 . S
C973 C972 1.386 . S
C973 C977 1.393 . S
C974 H966 0.950 . S
C974 C972 1.391 . S
C974 C975 1.400 . S
C975 C974 1.400 . S
C975 C976 1.398 . S
C975 C981 1.491 . S
C976 H967 0.950 . S
C976 C975 1.398 . S
C976 C977 1.391 . S
C977 H965 0.950 . S
C977 C973 1.393 . S
C977 C976 1.391 . S
C978 H968 0.950 . S
C978 C979 1.386 . S
C978 C980 1.391 . S
C979 C978 1.386 . S
C979 C983 1.393 . S
C980 H969 0.950 . S
C980 C978 1.391 . S
C980 C981 1.400 . S
C981 C975 1.491 . S
C981 C980 1.400 . S
C981 C982 1.398 . S
C982 H970 0.950 . S
C982 C981 1.398 . S
C982 C983 1.391 . S
C983 H971 0.950 . S
C983 C979 1.393 . S
C983 C982 1.391 . S
H984 C992 0.950 . S
H985 C997 0.950 . S
H986 C994 0.950 . S
H987 C996 0.950 . S
H988 C998 0.950 . S
H989 C1000 0.950 . S
H990 C1002 0.950 . S
H991 C1003 0.950 . S
C992 H984 0.950 . S
C992 C993 1.386 . S
C992 C994 1.391 . S
C993 C992 1.386 . S
C993 C997 1.393 . S
C994 H986 0.950 . S
C994 C992 1.391 . S
C994 C995 1.400 . S
C995 C994 1.400 . S
C995 C996 1.398 . S
C995 C1001 1.491 . S
C996 H987 0.950 . S
C996 C995 1.398 . S
C996 C997 1.391 . S
C997 H985 0.950 . S
C997 C993 1.393 . S
C997 C996 1.391 . S
C998 H988 0.950 . S
C998 C999 1.386 . S
C998 C1000 1.391 . S
C999 C998 1.386 . S
C999 C1003 1.393 . S
C1000 H989 0.950 . S
C1000 C998 1.391 . S
C1000 C1001 1.400 . S
C1001 C995 1.491 . S
C1001 C1000 1.400 . S
C1001 C1002 1.398 . S
C1002 H990 0.950 . S
C1002 C1001 1.398 . S
C1002 C1003 1.391 . S
C1003 H991 0.950 . S
C1003 C999 1.393 . S
C1003 C1002 1.391 . S
H1004 C1012 0.950 . S
H1005 C1017 0.950 . S
H1006 C1014 0.950 . S
H1007 C1016 0.950 . S
H1008 C1018 0.950 . S
H1009 C1020 0.950 . S
H1010 C1022 0.950 . S
H1011 C1023 0.950 . S
C1012 H1004 0.950 . S
C1012 C1013 1.386 . S
C1012 C1014 1.391 . S
C1013 C1012 1.386 . S
C1013 C1017 1.393 . S
C1014 H1006 0.950 . S
C1014 C1012 1.391 . S
C1014 C1015 1.400 . S
C1015 C1014 1.400 . S
C1015 C1016 1.398 . S
C1015 C1021 1.491 . S
C1016 H1007 0.950 . S
C1016 C1015 1.398 . S
C1016 C1017 1.391 . S
C1017 H1005 0.950 . S
C1017 C1013 1.393 . S
C1017 C1016 1.391 . S
C1018 H1008 0.950 . S
C1018 C1019 1.386 . S
C1018 C1020 1.391 . S
C1019 C1018 1.386 . S
C1019 C1023 1.393 . S
C1020 H1009 0.950 . S
C1020 C1018 1.391 . S
C1020 C1021 1.400 . S
C1021 C1015 1.491 . S
C1021 C1020 1.400 . S
C1021 C1022 1.398 . S
C1022 H1010 0.950 . S
C1022 C1021 1.398 . S
C1022 C1023 1.391 . S
C1023 H1011 0.950 . S
C1023 C1019 1.393 . S
C1023 C1022 1.391 . S
H1024 C1032 0.950 . S
H1025 C1037 0.950 . S
H1026 C1034 0.950 . S
H1027 C1036 0.950 . S
H1028 C1038 0.950 . S
H1029 C1040 0.950 . S
H1030 C1042 0.950 . S
H1031 C1043 0.950 . S
C1032 H1024 0.950 . S
C1032 C1033 1.386 . S
C1032 C1034 1.391 . S
C1033 C1032 1.386 . S
C1033 C1037 1.393 . S
C1034 H1026 0.950 . S
C1034 C1032 1.391 . S
C1034 C1035 1.400 . S
C1035 C1034 1.400 . S
C1035 C1036 1.398 . S
C1035 C1041 1.491 . S
C1036 H1027 0.950 . S
C1036 C1035 1.398 . S
C1036 C1037 1.391 . S
C1037 H1025 0.950 . S
C1037 C1033 1.393 . S
C1037 C1036 1.391 . S
C1038 H1028 0.950 . S
C1038 C1039 1.386 . S
C1038 C1040 1.391 . S
C1039 C1038 1.386 . S
C1039 C1043 1.393 . S
C1040 H1029 0.950 . S
C1040 C1038 1.391 . S
C1040 C1041 1.400 . S
C1041 C1035 1.491 . S
C1041 C1040 1.400 . S
C1041 C1042 1.398 . S
C1042 H1030 0.950 . S
C1042 C1041 1.398 . S
C1042 C1043 1.391 . S
C1043 H1031 0.950 . S
C1043 C1039 1.393 . S
C1043 C1042 1.391 . S
H1044 C1052 0.950 . S
H1045 C1057 0.950 . S
H1046 C1054 0.950 . S
H1047 C1056 0.950 . S
H1048 C1058 0.950 . S
H1049 C1060 0.950 . S
H1050 C1062 0.950 . S
H1051 C1063 0.950 . S
C1052 H1044 0.950 . S
C1052 C1053 1.386 . S
C1052 C1054 1.391 . S
C1053 C1052 1.386 . S
C1053 C1057 1.393 . S
C1054 H1046 0.950 . S
C1054 C1052 1.391 . S
C1054 C1055 1.400 . S
C1055 C1054 1.400 . S
C1055 C1056 1.398 . S
C1055 C1061 1.491 . S
C1056 H1047 0.950 . S
C1056 C1055 1.398 . S
C1056 C1057 1.391 . S
C1057 H1045 0.950 . S
C1057 C1053 1.393 . S
C1057 C1056 1.391 . S
C1058 H1048 0.950 . S
C1058 C1059 1.386 . S
C1058 C1060 1.391 . S
C1059 C1058 1.386 . S
C1059 C1063 1.393 . S
C1060 H1049 0.950 . S
C1060 C1058 1.391 . S
C1060 C1061 1.400 . S
C1061 C1055 1.491 . S
C1061 C1060 1.400 . S
C1061 C1062 1.398 . S
C1062 H1050 0.950 . S
C1062 C1061 1.398 . S
C1062 C1063 1.391 . S
C1063 H1051 0.950 . S
C1063 C1059 1.393 . S
C1063 C1062 1.391 . S
H1064 C1072 0.950 . S
H1065 C1077 0.950 . S
H1066 C1074 0.950 . S
H1067 C1076 0.950 . S
H1068 C1078 0.950 . S
H1069 C1080 0.950 . S
H1070 C1082 0.950 . S
H1071 C1083 0.950 . S
C1072 H1064 0.950 . S
C1072 C1073 1.386 . S
C1072 C1074 1.391 . S
C1073 C1072 1.386 . S
C1073 C1077 1.393 . S
C1074 H1066 0.950 . S
C1074 C1072 1.391 . S
C1074 C1075 1.400 . S
C1075 C1074 1.400 . S
C1075 C1076 1.398 . S
C1075 C1081 1.491 . S
C1076 H1067 0.950 . S
C1076 C1075 1.398 . S
C1076 C1077 1.391 . S
C1077 H1065 0.950 . S
C1077 C1073 1.393 . S
C1077 C1076 1.391 . S
C1078 H1068 0.950 . S
C1078 C1079 1.386 . S
C1078 C1080 1.391 . S
C1079 C1078 1.386 . S
C1079 C1083 1.393 . S
C1080 H1069 0.950 . S
C1080 C1078 1.391 . S
C1080 C1081 1.400 . S
C1081 C1075 1.491 . S
C1081 C1080 1.400 . S
C1081 C1082 1.398 . S
C1082 H1070 0.950 . S
C1082 C1081 1.398 . S
C1082 C1083 1.391 . S
C1083 H1071 0.950 . S
C1083 C1079 1.393 . S
C1083 C1082 1.391 . S
H1084 C1092 0.950 . S
H1085 C1097 0.950 . S
H1086 C1094 0.950 . S
H1087 C1096 0.950 . S
H1088 C1098 0.950 . S
H1089 C1100 0.950 . S
H1090 C1102 0.950 . S
H1091 C1103 0.950 . S
C1092 H1084 0.950 . S
C1092 C1093 1.386 . S
C1092 C1094 1.391 . S
C1093 C1092 1.386 . S
C1093 C1097 1.393 . S
C1094 H1086 0.950 . S
C1094 C1092 1.391 . S
C1094 C1095 1.400 . S
C1095 C1094 1.400 . S
C1095 C1096 1.398 . S
C1095 C1101 1.491 . S
C1096 H1087 0.950 . S
C1096 C1095 1.398 . S
C1096 C1097 1.391 . S
C1097 H1085 0.950 . S
C1097 C1093 1.393 . S
C1097 C1096 1.391 . S
C1098 H1088 0.950 . S
C1098 C1099 1.386 . S
C1098 C1100 1.391 . S
C1099 C1098 1.386 . S
C1099 C1103 1.393 . S
C1100 H1089 0.950 . S
C1100 C1098 1.391 . S
C1100 C1101 1.400 . S
C1101 C1095 1.491 . S
C1101 C1100 1.400 . S
C1101 C1102 1.398 . S
C1102 H1090 0.950 . S
C1102 C1101 1.398 . S
C1102 C1103 1.391 . S
C1103 H1091 0.950 . S
C1103 C1099 1.393 . S
C1103 C1102 1.391 . S
H1104 C1112 0.950 . S
H1105 C1117 0.950 . S
H1106 C1114 0.950 . S
H1107 C1116 0.950 . S
H1108 C1118 0.950 . S
H1109 C1120 0.950 . S
H1110 C1122 0.950 1_556 S
H1111 C1123 0.950 . S
C1112 H1104 0.950 . S
C1112 C1113 1.386 . S
C1112 C1114 1.391 . S
C1113 C1112 1.386 . S
C1113 C1117 1.393 . S
C1114 H1106 0.950 . S
C1114 C1112 1.391 . S
C1114 C1115 1.400 . S
C1115 C1114 1.400 . S
C1115 C1116 1.398 . S
C1115 C1121 1.491 1_556 S
C1116 H1107 0.950 . S
C1116 C1115 1.398 . S
C1116 C1117 1.391 . S
C1117 H1105 0.950 . S
C1117 C1113 1.393 . S
C1117 C1116 1.391 . S
C1118 H1108 0.950 . S
C1118 C1119 1.386 . S
C1118 C1120 1.391 . S
C1119 C1118 1.386 . S
C1119 C1123 1.393 . S
C1120 H1109 0.950 . S
C1120 C1118 1.391 . S
C1120 C1121 1.400 . S
C1121 C1115 1.491 1_554 S
C1121 C1120 1.400 . S
C1121 C1122 1.398 . S
C1122 H1110 0.950 1_554 S
C1122 C1121 1.398 . S
C1122 C1123 1.391 . S
C1123 H1111 0.950 . S
C1123 C1119 1.393 . S
C1123 C1122 1.391 . S
H1124 C1132 0.950 . S
H1125 C1137 0.950 . S
H1126 C1134 0.950 . S
H1127 C1136 0.985 . S
H1128 C1138 0.950 . S
H1129 C1140 0.950 . S
H1130 C1142 0.950 1_554 S
H1131 C1143 0.950 . S
C1132 H1124 0.950 . S
C1132 C1133 1.386 . S
C1132 C1134 1.391 . S
C1133 C1132 1.386 . S
C1133 C1137 1.393 . S
C1134 H1126 0.950 . S
C1134 C1132 1.391 . S
C1134 C1135 1.400 . S
C1135 C1134 1.400 . S
C1135 C1136 1.390 1_554 S
C1135 C1141 1.491 1_554 S
C1136 H1127 0.985 . S
C1136 C1135 1.390 1_556 S
C1136 C1137 1.365 1_556 S
C1137 H1125 0.950 . S
C1137 C1133 1.393 . S
C1137 C1136 1.365 1_554 S
C1138 H1128 0.950 . S
C1138 C1139 1.386 . S
C1138 C1140 1.391 . S
C1139 C1138 1.386 . S
C1139 C1143 1.393 . S
C1140 H1129 0.950 . S
C1140 C1138 1.391 . S
C1140 C1141 1.400 . S
C1141 C1135 1.491 1_556 S
C1141 C1140 1.400 . S
C1141 C1142 1.398 . S
C1142 H1130 0.950 1_556 S
C1142 C1141 1.398 . S
C1142 C1143 1.391 . S
C1143 H1131 0.950 . S
C1143 C1139 1.393 . S
C1143 C1142 1.391 . S
H1144 C1152 0.950 . S
H1145 C1157 0.950 . S
H1146 C1154 0.950 . S
H1147 C1156 0.950 1_554 S
H1148 C1158 0.950 . S
H1149 C1160 0.950 . S
H1150 C1162 0.984 . S
H1151 C1163 0.950 . S
C1152 H1144 0.950 . S
C1152 C1153 1.386 . S
C1152 C1154 1.391 . S
C1153 C1152 1.386 . S
C1153 C1157 1.393 . S
C1154 H1146 0.950 . S
C1154 C1152 1.391 . S
C1154 C1155 1.400 . S
C1155 C1154 1.400 . S
C1155 C1156 1.398 . S
C1155 C1161 1.491 1_556 S
C1156 H1147 0.950 1_556 S
C1156 C1155 1.398 . S
C1156 C1157 1.391 . S
C1157 H1145 0.950 . S
C1157 C1153 1.393 . S
C1157 C1156 1.391 . S
C1158 H1148 0.950 . S
C1158 C1159 1.386 . S
C1158 C1160 1.391 . S
C1159 C1158 1.386 . S
C1159 C1163 1.393 . S
C1160 H1149 0.950 . S
C1160 C1158 1.391 . S
C1160 C1161 1.400 . S
C1161 C1155 1.491 1_554 S
C1161 C1160 1.400 . S
C1161 C1162 1.391 1_554 S
C1162 H1150 0.984 . S
C1162 C1161 1.391 1_556 S
C1162 C1163 1.366 1_556 S
C1163 H1151 0.950 . S
C1163 C1159 1.393 . S
C1163 C1162 1.366 1_554 S
H1164 C1172 0.950 . S
H1165 C1177 0.950 . S
H1166 C1174 0.950 . S
H1167 C1176 0.950 . S
H1168 C1178 0.950 . S
H1169 C1180 0.950 . S
H1170 C1182 0.950 . S
H1171 C1183 0.950 . S
C1172 H1164 0.950 . S
C1172 C1173 1.386 . S
C1172 C1174 1.391 . S
C1173 C1172 1.386 . S
C1173 C1177 1.393 . S
C1174 H1166 0.950 . S
C1174 C1172 1.391 . S
C1174 C1175 1.400 . S
C1175 C1174 1.400 . S
C1175 C1176 1.398 . S
C1175 C1181 1.491 1_554 S
C1176 H1167 0.950 . S
C1176 C1175 1.398 . S
C1176 C1177 1.391 . S
C1177 H1165 0.950 . S
C1177 C1173 1.393 . S
C1177 C1176 1.391 . S
C1178 H1168 0.950 . S
C1178 C1179 1.386 . S
C1178 C1180 1.391 . S
C1179 C1178 1.386 . S
C1179 C1183 1.393 . S
C1180 H1169 0.950 . S
C1180 C1178 1.391 . S
C1180 C1181 1.400 . S
C1181 C1175 1.491 1_556 S
C1181 C1180 1.400 . S
C1181 C1182 1.398 . S
C1182 H1170 0.950 . S
C1182 C1181 1.398 . S
C1182 C1183 1.391 . S
C1183 H1171 0.950 . S
C1183 C1179 1.393 . S
C1183 C1182 1.391 . S
H1184 C1192 0.950 . S
H1185 C1197 0.950 . S
H1186 C1194 0.950 . S
H1187 C1196 0.950 . S
H1188 C1198 0.950 . S
H1189 C1200 0.950 . S
H1190 C1202 0.950 . S
H1191 C1203 0.950 . S
C1192 H1184 0.950 . S
C1192 C1193 1.386 . S
C1192 C1194 1.391 . S
C1193 C1192 1.386 . S
C1193 C1197 1.393 . S
C1194 H1186 0.950 . S
C1194 C1192 1.391 . S
C1194 C1195 1.400 . S
C1195 C1194 1.400 . S
C1195 C1196 1.398 . S
C1195 C1201 1.491 . S
C1196 H1187 0.950 . S
C1196 C1195 1.398 . S
C1196 C1197 1.391 . S
C1197 H1185 0.950 . S
C1197 C1193 1.393 . S
C1197 C1196 1.391 . S
C1198 H1188 0.950 . S
C1198 C1199 1.386 . S
C1198 C1200 1.391 . S
C1199 C1198 1.386 . S
C1199 C1203 1.393 . S
C1200 H1189 0.950 . S
C1200 C1198 1.391 . S
C1200 C1201 1.400 . S
C1201 C1195 1.491 . S
C1201 C1200 1.400 . S
C1201 C1202 1.398 . S
C1202 H1190 0.950 . S
C1202 C1201 1.398 . S
C1202 C1203 1.391 . S
C1203 H1191 0.950 . S
C1203 C1199 1.393 . S
C1203 C1202 1.391 . S
H1204 C1212 0.950 . S
H1205 C1217 0.950 . S
H1206 C1214 0.950 . S
H1207 C1216 0.950 . S
H1208 C1218 0.950 . S
H1209 C1220 0.950 . S
H1210 C1222 0.950 . S
H1211 C1223 0.950 . S
C1212 H1204 0.950 . S
C1212 C1213 1.386 . S
C1212 C1214 1.391 . S
C1213 C1212 1.386 . S
C1213 C1217 1.393 . S
C1214 H1206 0.950 . S
C1214 C1212 1.391 . S
C1214 C1215 1.400 . S
C1215 C1214 1.400 . S
C1215 C1216 1.398 . S
C1215 C1221 1.491 . S
C1216 H1207 0.950 . S
C1216 C1215 1.398 . S
C1216 C1217 1.391 . S
C1217 H1205 0.950 . S
C1217 C1213 1.393 . S
C1217 C1216 1.391 . S
C1218 H1208 0.950 . S
C1218 C1219 1.386 . S
C1218 C1220 1.391 . S
C1219 C1218 1.386 . S
C1219 C1223 1.393 . S
C1220 H1209 0.950 . S
C1220 C1218 1.391 . S
C1220 C1221 1.400 . S
C1221 C1215 1.491 . S
C1221 C1220 1.400 . S
C1221 C1222 1.398 . S
C1222 H1210 0.950 . S
C1222 C1221 1.398 . S
C1222 C1223 1.391 . S
C1223 H1211 0.950 . S
C1223 C1219 1.393 . S
C1223 C1222 1.391 . S
H1224 C1232 0.950 . S
H1225 C1237 0.950 . S
H1226 C1234 0.950 . S
H1227 C1236 0.950 . S
H1228 C1238 0.950 . S
H1229 C1240 0.950 . S
H1230 C1242 0.950 . S
H1231 C1243 0.950 . S
C1232 H1224 0.950 . S
C1232 C1233 1.386 . S
C1232 C1234 1.391 . S
C1233 C1232 1.386 . S
C1233 C1237 1.393 . S
C1234 H1226 0.950 . S
C1234 C1232 1.391 . S
C1234 C1235 1.400 . S
C1235 C1234 1.400 . S
C1235 C1236 1.398 . S
C1235 C1241 1.491 . S
C1236 H1227 0.950 . S
C1236 C1235 1.398 . S
C1236 C1237 1.391 . S
C1237 H1225 0.950 . S
C1237 C1233 1.393 . S
C1237 C1236 1.391 . S
C1238 H1228 0.950 . S
C1238 C1239 1.386 . S
C1238 C1240 1.391 . S
C1239 C1238 1.386 . S
C1239 C1243 1.393 . S
C1240 H1229 0.950 . S
C1240 C1238 1.391 . S
C1240 C1241 1.400 . S
C1241 C1235 1.491 . S
C1241 C1240 1.400 . S
C1241 C1242 1.398 . S
C1242 H1230 0.950 . S
C1242 C1241 1.398 . S
C1242 C1243 1.391 . S
C1243 H1231 0.950 . S
C1243 C1239 1.393 . S
C1243 C1242 1.391 . S
H1244 C1252 0.950 . S
H1245 C1257 0.950 . S
H1246 C1254 0.950 . S
H1247 C1256 0.950 . S
H1248 C1258 0.950 . S
H1249 C1260 0.950 . S
H1250 C1262 0.950 . S
H1251 C1263 0.950 . S
C1252 H1244 0.950 . S
C1252 C1253 1.386 . S
C1252 C1254 1.391 . S
C1253 C1252 1.386 . S
C1253 C1257 1.393 . S
C1254 H1246 0.950 . S
C1254 C1252 1.391 . S
C1254 C1255 1.400 . S
C1255 C1254 1.400 . S
C1255 C1256 1.398 . S
C1255 C1261 1.491 . S
C1256 H1247 0.950 . S
C1256 C1255 1.398 . S
C1256 C1257 1.391 . S
C1257 H1245 0.950 . S
C1257 C1253 1.393 . S
C1257 C1256 1.391 . S
C1258 H1248 0.950 . S
C1258 C1259 1.386 . S
C1258 C1260 1.391 . S
C1259 C1258 1.386 . S
C1259 C1263 1.393 . S
C1260 H1249 0.950 . S
C1260 C1258 1.391 . S
C1260 C1261 1.400 . S
C1261 C1255 1.491 . S
C1261 C1260 1.400 . S
C1261 C1262 1.398 . S
C1262 H1250 0.950 . S
C1262 C1261 1.398 . S
C1262 C1263 1.391 . S
C1263 H1251 0.950 . S
C1263 C1259 1.393 . S
C1263 C1262 1.391 . S
H1264 C1272 0.950 . S
H1265 C1277 0.950 . S
H1266 C1274 0.950 1_556 S
H1267 C1276 0.950 . S
H1268 C1278 0.950 . S
H1269 C1280 0.964 . S
H1270 C1282 0.950 . S
H1271 C1283 0.950 . S
C1272 H1264 0.950 . S
C1272 C1273 1.386 . S
C1272 C1274 1.391 . S
C1273 C1272 1.386 . S
C1273 C1277 1.393 . S
C1274 H1266 0.950 1_554 S
C1274 C1272 1.391 . S
C1274 C1275 1.400 . S
C1275 C1274 1.400 . S
C1275 C1276 1.398 . S
C1275 C1281 1.491 1_554 S
C1276 H1267 0.950 . S
C1276 C1275 1.398 . S
C1276 C1277 1.391 . S
C1277 H1265 0.950 . S
C1277 C1273 1.393 . S
C1277 C1276 1.391 . S
C1278 H1268 0.950 . S
C1278 C1279 1.386 . S
C1278 C1280 1.380 1_556 S
C1279 C1278 1.386 . S
C1279 C1283 1.393 . S
C1280 H1269 0.964 . S
C1280 C1278 1.380 1_554 S
C1280 C1281 1.397 1_554 S
C1281 C1275 1.491 1_556 S
C1281 C1280 1.397 1_556 S
C1281 C1282 1.398 . S
C1282 H1270 0.950 . S
C1282 C1281 1.398 . S
C1282 C1283 1.391 . S
C1283 H1271 0.950 . S
C1283 C1279 1.393 . S
C1283 C1282 1.391 . S
H1284 C1292 0.950 . S
H1285 C1297 0.950 . S
H1286 C1294 0.950 . S
H1287 C1296 0.950 . S
H1288 C1298 0.950 . S
H1289 C1300 0.950 . S
H1290 C1302 0.950 . S
H1291 C1303 0.950 . S
C1292 H1284 0.950 . S
C1292 C1293 1.386 . S
C1292 C1294 1.391 . S
C1293 C1292 1.386 . S
C1293 C1297 1.393 . S
C1294 H1286 0.950 . S
C1294 C1292 1.391 . S
C1294 C1295 1.400 . S
C1295 C1294 1.400 . S
C1295 C1296 1.398 . S
C1295 C1301 1.491 1_556 S
C1296 H1287 0.950 . S
C1296 C1295 1.398 . S
C1296 C1297 1.391 . S
C1297 H1285 0.950 . S
C1297 C1293 1.393 . S
C1297 C1296 1.391 . S
C1298 H1288 0.950 . S
C1298 C1299 1.386 . S
C1298 C1300 1.391 . S
C1299 C1298 1.386 . S
C1299 C1303 1.393 . S
C1300 H1289 0.950 . S
C1300 C1298 1.391 . S
C1300 C1301 1.400 . S
C1301 C1295 1.491 1_554 S
C1301 C1300 1.400 . S
C1301 C1302 1.398 . S
C1302 H1290 0.950 . S
C1302 C1301 1.398 . S
C1302 C1303 1.391 . S
C1303 H1291 0.950 . S
C1303 C1299 1.393 . S
C1303 C1302 1.391 . S
H1304 C1312 0.950 . S
H1305 C1317 0.950 . S
H1306 C1314 0.950 . S
H1307 C1316 0.950 . S
H1308 C1318 0.950 . S
H1309 C1320 0.950 1_554 S
H1310 C1322 0.950 . S
H1311 C1323 0.950 . S
C1312 H1304 0.950 . S
C1312 C1313 1.386 . S
C1312 C1314 1.391 . S
C1313 C1312 1.386 . S
C1313 C1317 1.393 . S
C1314 H1306 0.950 . S
C1314 C1312 1.391 . S
C1314 C1315 1.400 . S
C1315 C1314 1.400 . S
C1315 C1316 1.398 . S
C1315 C1321 1.491 1_554 S
C1316 H1307 0.950 . S
C1316 C1315 1.398 . S
C1316 C1317 1.391 . S
C1317 H1305 0.950 . S
C1317 C1313 1.393 . S
C1317 C1316 1.391 . S
C1318 H1308 0.950 . S
C1318 C1319 1.386 . S
C1318 C1320 1.391 . S
C1319 C1318 1.386 . S
C1319 C1323 1.393 . S
C1320 H1309 0.950 1_556 S
C1320 C1318 1.391 . S
C1320 C1321 1.400 . S
C1321 C1315 1.491 1_556 S
C1321 C1320 1.400 . S
C1321 C1322 1.398 . S
C1322 H1310 0.950 . S
C1322 C1321 1.398 . S
C1322 C1323 1.391 . S
C1323 H1311 0.950 . S
C1323 C1319 1.393 . S
C1323 C1322 1.391 . S
H1324 C1332 0.950 . S
H1325 C1337 0.950 . S
H1326 C1334 0.950 . S
H1327 C1336 0.950 . S
H1328 C1338 0.950 . S
H1329 C1340 0.950 . S
H1330 C1342 0.950 . S
H1331 C1343 0.950 . S
C1332 H1324 0.950 . S
C1332 C1333 1.386 . S
C1332 C1334 1.391 . S
C1333 C1332 1.386 . S
C1333 C1337 1.393 . S
C1334 H1326 0.950 . S
C1334 C1332 1.391 . S
C1334 C1335 1.400 . S
C1335 C1334 1.400 . S
C1335 C1336 1.398 . S
C1335 C1341 1.491 1_554 S
C1336 H1327 0.950 . S
C1336 C1335 1.398 . S
C1336 C1337 1.391 . S
C1337 H1325 0.950 . S
C1337 C1333 1.393 . S
C1337 C1336 1.391 . S
C1338 H1328 0.950 . S
C1338 C1339 1.386 . S
C1338 C1340 1.391 . S
C1339 C1338 1.386 . S
C1339 C1343 1.393 . S
C1340 H1329 0.950 . S
C1340 C1338 1.391 . S
C1340 C1341 1.400 . S
C1341 C1335 1.491 1_556 S
C1341 C1340 1.400 . S
C1341 C1342 1.398 . S
C1342 H1330 0.950 . S
C1342 C1341 1.398 . S
C1342 C1343 1.391 . S
C1343 H1331 0.950 . S
C1343 C1339 1.393 . S
C1343 C1342 1.391 . S
C553 C111 1.634 . S
C559 C2 1.658 . S
C573 C36 1.661 . S
C579 C9 1.648 . S
C593 C70 1.659 . S
C599 C43 1.646 . S
C613 C104 1.664 . S
C619 C77 1.634 . S
C633 C179 1.643 . S
C639 C138 1.665 . S
C653 C213 1.632 . S
C659 C172 1.659 . S
C673 C206 1.657 . S
C679 C247 1.640 . S
C693 C145 1.632 . S
C699 C240 1.663 . S
C713 C274 1.657 . S
C719 C383 1.641 . S
C733 C308 1.658 . S
C739 C281 1.636 . S
C753 C315 1.640 . S
C759 C342 1.665 . S
C773 C376 1.659 . S
C779 C349 1.647 . S
C793 C451 1.639 . S
C799 C410 1.657 . S
C813 C444 1.664 . S
C819 C485 1.645 . S
C833 C478 1.665 . S
C839 C519 1.637 . S
C853 C512 1.657 . S
C859 C417 1.636 . S
C873 C33 1.967 . S
C879 C203 1.965 . S
C893 C67 1.954 . S
C899 C237 1.952 . S
C913 C271 1.956 . S
C919 C101 1.960 . S
C933 C135 1.952 . S
C939 C169 1.953 . S
C953 C475 1.961 . S
C959 C305 1.965 . S
C973 C509 1.965 . S
C979 C339 1.962 . S
C993 C373 1.966 . S
C999 C543 1.968 . S
C1013 C441 1.963 . S
C1019 C407 1.966 . S
C1033 C5 1.101 . S
C1039 C394 1.117 . S
C1053 C39 1.073 . S
C1059 C292 1.101 . S
C1073 C73 1.079 . S
C1079 C326 1.098 . S
C1093 C107 1.077 . S
C1099 C360 1.097 . S
C1113 C462 1.096 . S
C1119 C141 1.074 . S
C1133 C175 1.076 . S
C1139 C496 1.103 . S
C1153 C530 1.103 . S
C1159 C209 1.089 . S
C1173 C243 1.098 . S
C1179 C428 1.116 . S
C1193 C122 1.109 . S
C1199 C277 1.097 . S
C1213 C20 1.116 . S
C1219 C311 1.099 . S
C1233 C54 1.103 . S
C1239 C345 1.075 . S
C1253 C88 1.097 . S
C1259 C379 1.078 . S
C1273 C190 1.105 . S
C1279 C413 1.091 . S
C1293 C447 1.102 . S
C1299 C224 1.116 . S
C1313 C258 1.097 . S
C1319 C481 1.078 . S
C1333 C156 1.116 . S
C1339 C515 1.098 . S
