# Generated by pormake.
# Topology upb, (4)-cn, num edge types: 1
# Building blocks:
#     Node 0, Type 0, BuildingBlock: ICAMEG_clean_sbu_1, # of connection points: 4
#     Node 1, Type 0, BuildingBlock: ICAMEG_clean_sbu_1, # of connection points: 4
#     Node 2, Type 0, BuildingBlock: ICAMEG_clean_sbu_1, # of connection points: 4
#     Node 3, Type 0, BuildingBlock: ICAMEG_clean_sbu_1, # of connection points: 4
#     Node 4, Type 0, BuildingBlock: ICAMEG_clean_sbu_1, # of connection points: 4
#     Node 5, Type 0, BuildingBlock: ICAMEG_clean_sbu_1, # of connection points: 4
#     Node 6, Type 0, BuildingBlock: ICAMEG_clean_sbu_1, # of connection points: 4
#     Node 7, Type 0, BuildingBlock: ICAMEG_clean_sbu_1, # of connection points: 4
#     Node 8, Type 0, BuildingBlock: ICAMEG_clean_sbu_1, # of connection points: 4
#     Node 9, Type 0, BuildingBlock: ICAMEG_clean_sbu_1, # of connection points: 4
#     Node 10, Type 0, BuildingBlock: ICAMEG_clean_sbu_1, # of connection points: 4
#     Node 11, Type 0, BuildingBlock: ICAMEG_clean_sbu_1, # of connection points: 4
#     Node 12, Type 0, BuildingBlock: ICAMEG_clean_sbu_1, # of connection points: 4
#     Node 13, Type 0, BuildingBlock: ICAMEG_clean_sbu_1, # of connection points: 4
#     Node 14, Type 0, BuildingBlock: ICAMEG_clean_sbu_1, # of connection points: 4
#     Node 15, Type 0, BuildingBlock: ICAMEG_clean_sbu_1, # of connection points: 4
#     Edge 16, Type (0, 0), BuildingBlock: AJUNOK_clean_linker_0, # of connection points: 2
#     Edge 17, Type (0, 0), BuildingBlock: AJUNOK_clean_linker_0, # of connection points: 2
#     Edge 18, Type (0, 0), BuildingBlock: AJUNOK_clean_linker_0, # of connection points: 2
#     Edge 19, Type (0, 0), BuildingBlock: AJUNOK_clean_linker_0, # of connection points: 2
#     Edge 20, Type (0, 0), BuildingBlock: AJUNOK_clean_linker_0, # of connection points: 2
#     Edge 21, Type (0, 0), BuildingBlock: AJUNOK_clean_linker_0, # of connection points: 2
#     Edge 22, Type (0, 0), BuildingBlock: AJUNOK_clean_linker_0, # of connection points: 2
#     Edge 23, Type (0, 0), BuildingBlock: AJUNOK_clean_linker_0, # of connection points: 2
#     Edge 24, Type (0, 0), BuildingBlock: AJUNOK_clean_linker_0, # of connection points: 2
#     Edge 25, Type (0, 0), BuildingBlock: AJUNOK_clean_linker_0, # of connection points: 2
#     Edge 26, Type (0, 0), BuildingBlock: AJUNOK_clean_linker_0, # of connection points: 2
#     Edge 27, Type (0, 0), BuildingBlock: AJUNOK_clean_linker_0, # of connection points: 2
#     Edge 28, Type (0, 0), BuildingBlock: AJUNOK_clean_linker_0, # of connection points: 2
#     Edge 29, Type (0, 0), BuildingBlock: AJUNOK_clean_linker_0, # of connection points: 2
#     Edge 30, Type (0, 0), BuildingBlock: AJUNOK_clean_linker_0, # of connection points: 2
#     Edge 31, Type (0, 0), BuildingBlock: AJUNOK_clean_linker_0, # of connection points: 2
#     Edge 32, Type (0, 0), BuildingBlock: AJUNOK_clean_linker_0, # of connection points: 2
#     Edge 33, Type (0, 0), BuildingBlock: AJUNOK_clean_linker_0, # of connection points: 2
#     Edge 34, Type (0, 0), BuildingBlock: AJUNOK_clean_linker_0, # of connection points: 2
#     Edge 35, Type (0, 0), BuildingBlock: AJUNOK_clean_linker_0, # of connection points: 2
#     Edge 36, Type (0, 0), BuildingBlock: AJUNOK_clean_linker_0, # of connection points: 2
#     Edge 37, Type (0, 0), BuildingBlock: AJUNOK_clean_linker_0, # of connection points: 2
#     Edge 38, Type (0, 0), BuildingBlock: AJUNOK_clean_linker_0, # of connection points: 2
#     Edge 39, Type (0, 0), BuildingBlock: AJUNOK_clean_linker_0, # of connection points: 2
#     Edge 40, Type (0, 0), BuildingBlock: AJUNOK_clean_linker_0, # of connection points: 2
#     Edge 41, Type (0, 0), BuildingBlock: AJUNOK_clean_linker_0, # of connection points: 2
#     Edge 42, Type (0, 0), BuildingBlock: AJUNOK_clean_linker_0, # of connection points: 2
#     Edge 43, Type (0, 0), BuildingBlock: AJUNOK_clean_linker_0, # of connection points: 2
#     Edge 44, Type (0, 0), BuildingBlock: AJUNOK_clean_linker_0, # of connection points: 2
#     Edge 45, Type (0, 0), BuildingBlock: AJUNOK_clean_linker_0, # of connection points: 2
#     Edge 46, Type (0, 0), BuildingBlock: AJUNOK_clean_linker_0, # of connection points: 2
#     Edge 47, Type (0, 0), BuildingBlock: AJUNOK_clean_linker_0, # of connection points: 2
# Relax obj value: 0.184
# Max RMSD: 0.053
# Mean RMSD: 0.053
data_MOF--net-upb--node1-ICAMEG_clean_sbu_1--edge1-AJUNOK_clean_linker_0
_symmetry_space_group_name_H-M    P1
_symmetry_Int_Tables_number       1
_symmetry_cell_setting            triclinic
loop_
_symmetry_equiv_pos_as_xyz
'x, y, z'
_cell_length_a     38.011015
_cell_length_b     37.953357
_cell_length_c     17.786544
_cell_angle_alpha  90.124266
_cell_angle_beta   90.21564
_cell_angle_gamma 89.981337
loop_
_atom_site_label
_atom_site_type_symbol
_atom_site_fract_x
_atom_site_fract_y
_atom_site_fract_z
_atom_type_partial_charge
Co0 Co 0.07921 0.16402 0.29571 0.0
Co1 Co 0.05384 0.23693 0.19555 0.0
O2 O 0.08887 0.20323 0.22962 0.0
C3 C 0.11429 0.12213 0.17338 0.0
O4 O 0.0891 0.1307 0.12611 0.0
C5 C 0.10717 0.28122 0.26707 0.0
O6 O 0.10387 0.26112 0.32654 0.0
O7 O 0.03659 0.24511 0.30027 0.0
O8 O 0.0446 0.19226 0.35482 0.0
H9 H 0.93535 0.2958 0.18368 0.0
H10 H 0.1525 0.18814 0.2717 0.0
O11 O 0.11436 0.1344 0.24015 0.0
H12 H 0.12952 0.20675 0.54155 0.0
H13 H 0.11494 0.06175 0.45685 0.0
H14 H 0.01487 0.12864 0.35279 0.0
H15 H 0.0856 0.17715 0.46102 0.0
H16 H 0.12505 0.11321 0.37658 0.0
O17 O 0.08882 0.27536 0.20857 0.0
H18 H 0.97898 0.25268 0.22922 0.0
H19 H 0.05716 0.29747 0.08957 0.0
H20 H 0.00358 0.07516 0.42714 0.0
H21 H 0.19712 0.21788 0.35032 0.0
H22 H 0.05373 0.04168 0.48171 0.0
H23 H 0.18513 0.22856 0.48562 0.0
O24 O 0.04009 0.14785 0.22832 0.0
H25 H 0.14714 0.23058 0.99692 0.0
H26 H 0.02041 0.21988 0.04865 0.0
H27 H 0.04163 0.21517 0.91765 0.0
H28 H 0.10536 0.22127 0.8914 0.0
H29 H 0.12464 0.23587 0.12614 0.0
H30 H 0.01512 0.34231 0.04553 0.0
H31 H 0.95335 0.34105 0.09066 0.0
O32 O 0.01772 0.19876 0.18321 0.0
C33 C 0.03286 0.22372 0.35481 0.0
C34 C 0.96197 0.29624 0.16235 0.0
C35 C 0.00666 0.32223 0.08453 0.0
N36 N 0.02011 0.27156 0.15994 0.0
C37 C 0.98663 0.27157 0.18735 0.0
C38 C 0.03041 0.29682 0.10996 0.0
C39 C 0.97209 0.32164 0.11028 0.0
C40 C 0.14756 0.19171 0.33104 0.0
N41 N 0.11638 0.18111 0.36154 0.0
C42 C 0.17277 0.20889 0.3751 0.0
C43 C 0.16597 0.21498 0.45095 0.0
C44 C 0.13476 0.20278 0.48237 0.0
C45 C 0.1101 0.18583 0.43655 0.0
C46 C 0.09275 0.07593 0.43387 0.0
C47 C 0.03686 0.11385 0.37509 0.0
C48 C 0.09834 0.1054 0.38887 0.0
N49 N 0.07057 0.12417 0.36079 0.0
C50 C 0.0303 0.0837 0.41756 0.0
C51 C 0.05846 0.06485 0.44784 0.0
C52 C 0.01602 0.16553 0.19479 0.0
C53 C 0.11922 0.22826 0.00758 0.0
C54 C 0.04805 0.22219 0.0371 0.0
C55 C 0.05998 0.2194 0.96316 0.0
C56 C 0.09578 0.22277 0.94842 0.0
N57 N 0.07098 0.22901 0.09435 0.0
C58 C 0.10628 0.23128 0.08063 0.0
Co59 Co 0.82476 0.07236 0.2699 0.0
Co60 Co 0.74553 0.05153 0.18276 0.0
O61 O 0.78442 0.0838 0.20647 0.0
C62 C 0.88681 0.08534 0.17421 0.0
O63 O 0.89267 0.05129 0.17775 0.0
C64 C 0.7121 0.11404 0.25142 0.0
O65 O 0.7383 0.11567 0.29935 0.0
O66 O 0.7416 0.03471 0.28918 0.0
O67 O 0.79407 0.04687 0.34175 0.0
H68 H 0.68287 0.93496 0.17653 0.0
H69 H 0.81509 0.14658 0.22388 0.0
O70 O 0.85782 0.0978 0.19956 0.0
H71 H 0.79046 0.1433 0.49526 0.0
H72 H 0.94085 0.09733 0.39557 0.0
H73 H 0.84939 0.00797 0.34656 0.0
H74 H 0.81512 0.09147 0.43139 0.0
H75 H 0.8852 0.11362 0.33332 0.0
O76 O 0.71035 0.08938 0.2032 0.0
H77 H 0.72956 0.97654 0.21429 0.0
H78 H 0.67843 0.05914 0.09609 0.0
H79 H 0.90438 0.99063 0.4101 0.0
H80 H 0.79494 0.2006 0.28758 0.0
H81 H 0.95163 0.0346 0.42892 0.0
H82 H 0.78079 0.1988 0.42354 0.0
O83 O 0.83202 0.02753 0.21343 0.0
H84 H 0.75231 0.14357 0.98071 0.0
H85 H 0.74734 0.01634 0.03409 0.0
H86 H 0.74887 0.03658 0.90344 0.0
H87 H 0.75086 0.1006 0.87508 0.0
H88 H 0.7507 0.12201 0.11129 0.0
H89 H 0.63087 0.01865 0.05797 0.0
H90 H 0.63311 0.95595 0.09744 0.0
O91 O 0.77977 0.01298 0.1611 0.0
C92 C 0.76318 0.03413 0.34423 0.0
C93 C 0.68165 0.96218 0.15869 0.0
C94 C 0.65244 0.00916 0.0923 0.0
N95 N 0.70704 0.02008 0.15664 0.0
C96 C 0.7081 0.9858 0.17972 0.0
C97 C 0.67939 0.03201 0.11436 0.0
C98 C 0.65373 0.97398 0.1144 0.0
C99 C 0.81133 0.14626 0.28406 0.0
N100 N 0.81627 0.11588 0.32387 0.0
C101 C 0.79927 0.17676 0.31957 0.0
C102 C 0.79131 0.17569 0.39587 0.0
C103 C 0.79688 0.1447 0.43619 0.0
C104 C 0.8105 0.11524 0.39954 0.0
C105 C 0.92085 0.07757 0.38543 0.0
C106 C 0.86926 0.02767 0.35781 0.0
C107 C 0.88928 0.08665 0.35021 0.0
N108 N 0.86468 0.06146 0.33384 0.0
C109 C 0.90031 0.01772 0.39384 0.0
C110 C 0.9267 0.04258 0.40526 0.0
C111 C 0.81221 0.00718 0.17486 0.0
C112 C 0.75125 0.11557 0.99184 0.0
C113 C 0.7488 0.04413 0.02248 0.0
C114 C 0.74939 0.05556 0.94824 0.0
C115 C 0.7505 0.09149 0.9327 0.0
N116 N 0.74878 0.06781 0.08005 0.0
C117 C 0.75035 0.10317 0.06567 0.0
Co118 Co 0.92386 0.83887 0.23085 0.0
Co119 Co 0.9528 0.75757 0.18514 0.0
O120 O 0.91516 0.79164 0.19533 0.0
C121 C 0.88791 0.8799 0.11158 0.0
O122 O 0.91794 0.88395 0.07647 0.0
C123 C 0.89637 0.71656 0.25898 0.0
O124 O 0.89479 0.73993 0.31339 0.0
O125 O 0.96463 0.76318 0.29433 0.0
O126 O 0.96176 0.82211 0.30076 0.0
H127 H 0.07123 0.70464 0.23983 0.0
H128 H 0.85224 0.80847 0.23442 0.0
O129 O 0.88526 0.8568 0.16337 0.0
H130 H 0.88572 0.82786 0.49935 0.0
H131 H 0.88411 0.96052 0.29226 0.0
H132 H 0.98707 0.88478 0.24707 0.0
H133 H 0.92225 0.85155 0.39694 0.0
H134 H 0.87756 0.89653 0.28511 0.0
O135 O 0.91923 0.7193 0.20787 0.0
H136 H 0.02559 0.75079 0.24361 0.0
H137 H 0.95788 0.68768 0.10893 0.0
H138 H 0.9947 0.9492 0.25237 0.0
H139 H 0.81459 0.78498 0.33501 0.0
H140 H 0.94324 0.98769 0.27527 0.0
H141 H 0.8332 0.79175 0.4679 0.0
O142 O 0.95959 0.84549 0.15076 0.0
H143 H 0.86581 0.74185 0.97486 0.0
H144 H 0.99002 0.76417 0.038 0.0
H145 H 0.97184 0.75879 0.9046 0.0
H146 H 0.9096 0.7474 0.8725 0.0
H147 H 0.88499 0.74721 0.10632 0.0
H148 H 0.00271 0.64076 0.10387 0.0
H149 H 0.05988 0.64908 0.16972 0.0
O150 O 0.98858 0.79469 0.15992 0.0
C151 C 0.97021 0.79227 0.32884 0.0
C152 C 0.04645 0.70071 0.21083 0.0
C153 C 0.00799 0.66487 0.13449 0.0
N154 N 0.98929 0.72218 0.17563 0.0
C155 C 0.02057 0.72684 0.21245 0.0
C156 C 0.98274 0.6916 0.13732 0.0
C157 C 0.04005 0.66953 0.17154 0.0
C158 C 0.85922 0.81357 0.29239 0.0
N159 N 0.88977 0.83075 0.30979 0.0
C160 C 0.83798 0.79989 0.34907 0.0
C161 C 0.84821 0.80407 0.42379 0.0
C162 C 0.87799 0.82387 0.44133 0.0
C163 C 0.89851 0.83728 0.38313 0.0
C164 C 0.90709 0.94425 0.28424 0.0
C165 C 0.96456 0.90128 0.2584 0.0
C166 C 0.9035 0.9078 0.28016 0.0
N167 N 0.93176 0.88691 0.26413 0.0
C168 C 0.96915 0.93773 0.26205 0.0
C169 C 0.94014 0.95935 0.27433 0.0
C170 C 0.98692 0.82684 0.13961 0.0
C171 C 0.89332 0.74604 0.98795 0.0
C172 C 0.9632 0.75805 0.02409 0.0
C173 C 0.95293 0.75553 0.94875 0.0
C174 C 0.91785 0.74921 0.93067 0.0
N175 N 0.93932 0.75354 0.07997 0.0
C176 C 0.90452 0.74869 0.06253 0.0
Co177 Co 0.16322 0.92579 0.23554 0.0
Co178 Co 0.25016 0.9408 0.20043 0.0
O179 O 0.20813 0.9117 0.19627 0.0
C180 C 0.11238 0.91012 0.11497 0.0
O181 O 0.10726 0.94427 0.1105 0.0
C182 C 0.27812 0.87593 0.27558 0.0
O183 O 0.25798 0.88164 0.33414 0.0
O184 O 0.24425 0.95043 0.3114 0.0
O185 O 0.18582 0.95352 0.31741 0.0
H186 H 0.32226 0.04697 0.27041 0.0
H187 H 0.17555 0.85052 0.20395 0.0
O188 O 0.13802 0.89846 0.15448 0.0
H189 H 0.1781 0.86261 0.47912 0.0
H190 H 0.04073 0.90479 0.33128 0.0
H191 H 0.13107 0.9942 0.27852 0.0
H192 H 0.15691 0.91103 0.40071 0.0
H193 H 0.09754 0.88743 0.27715 0.0
O194 O 0.27849 0.89734 0.22066 0.0
H195 H 0.2687 0.01048 0.26422 0.0
H196 H 0.32449 0.92991 0.14978 0.0
H197 H 0.07452 0.01264 0.33268 0.0
H198 H 0.19166 0.79926 0.28096 0.0
H199 H 0.02943 0.96766 0.36316 0.0
H200 H 0.19487 0.80547 0.41946 0.0
O201 O 0.16433 0.96832 0.17154 0.0
H202 H 0.24592 0.86397 0.96993 0.0
H203 H 0.27762 0.98131 0.06768 0.0
H204 H 0.28883 0.9669 0.93564 0.0
H205 H 0.27199 0.90833 0.88462 0.0
H206 H 0.23748 0.87832 0.10292 0.0
H207 H 0.37894 0.96502 0.15638 0.0
H208 H 0.37798 0.02422 0.21618 0.0
O209 O 0.22137 0.98474 0.17763 0.0
C210 C 0.21605 0.95862 0.3462 0.0
C211 C 0.32294 0.02141 0.24336 0.0
C212 C 0.35477 0.97536 0.17966 0.0
N213 N 0.29306 0.96865 0.20459 0.0
C214 C 0.29255 0.00084 0.23896 0.0
C215 C 0.32384 0.95554 0.17635 0.0
C216 C 0.35421 0.00858 0.21316 0.0
C217 C 0.17396 0.85263 0.26439 0.0
N218 N 0.16504 0.8839 0.29762 0.0
C219 C 0.18396 0.8237 0.30771 0.0
C220 C 0.18576 0.82724 0.38549 0.0
C221 C 0.17611 0.85904 0.41897 0.0
C222 C 0.16454 0.88675 0.37407 0.0
C223 C 0.06055 0.92454 0.32106 0.0
C224 C 0.11131 0.97448 0.28976 0.0
C225 C 0.09278 0.91486 0.29006 0.0
N226 N 0.11793 0.93966 0.27599 0.0
C227 C 0.07941 0.98509 0.32111 0.0
C228 C 0.05412 0.95983 0.338 0.0
C229 C 0.18874 0.99102 0.16322 0.0
C230 C 0.25278 0.8899 0.99079 0.0
C231 C 0.27009 0.9558 0.04657 0.0
C232 C 0.27664 0.94769 0.97136 0.0
C233 C 0.26745 0.91475 0.94304 0.0
N234 N 0.25609 0.93123 0.09353 0.0
C235 C 0.24768 0.89847 0.06629 0.0
Co236 Co 0.07429 0.84 0.73816 0.0
Co237 Co 0.04419 0.75679 0.78055 0.0
O238 O 0.08094 0.79278 0.77715 0.0
C239 C 0.09993 0.8816 0.87035 0.0
O240 O 0.06853 0.88129 0.90027 0.0
C241 C 0.10183 0.72283 0.69787 0.0
O242 O 0.10768 0.75237 0.66219 0.0
O243 O 0.02926 0.76551 0.67401 0.0
O244 O 0.04252 0.82219 0.65745 0.0
H245 H 0.92281 0.70758 0.73865 0.0
H246 H 0.14833 0.81858 0.76674 0.0
O247 O 0.1071 0.86047 0.81666 0.0
H248 H 0.13202 0.81339 0.49264 0.0
H249 H 0.11647 0.95618 0.64169 0.0
H250 H 0.01251 0.88278 0.69134 0.0
H251 H 0.08725 0.84088 0.57174 0.0
H252 H 0.12306 0.89846 0.70076 0.0
O253 O 0.077 0.72027 0.74462 0.0
H254 H 0.96959 0.75246 0.73193 0.0
H255 H 0.04168 0.68246 0.8367 0.0
H256 H 0.00479 0.94015 0.6286 0.0
H257 H 0.19658 0.79684 0.68795 0.0
H258 H 0.05721 0.97653 0.59929 0.0
H259 H 0.18813 0.79231 0.55013 0.0
O260 O 0.032 0.84732 0.8029 0.0
H261 H 0.14019 0.72821 0.96754 0.0
H262 H 0.04292 0.74815 0.88854 0.0
H263 H 0.03655 0.72524 0.05857 0.0
H264 H 0.09993 0.71593 0.07297 0.0
H265 H 0.11609 0.74755 0.84628 0.0
H266 H 0.99577 0.63677 0.84439 0.0
H267 H 0.93572 0.64931 0.79577 0.0
O268 O 0.00938 0.79285 0.81652 0.0
C269 C 0.02876 0.79354 0.63476 0.0
C270 C 0.94877 0.70192 0.76075 0.0
C271 C 0.98971 0.66218 0.82007 0.0
N272 N 0.00801 0.72055 0.78594 0.0
C273 C 0.97528 0.72733 0.75752 0.0
C274 C 0.01558 0.6882 0.81566 0.0
C275 C 0.95604 0.66922 0.79271 0.0
C276 C 0.14539 0.81963 0.70639 0.0
N277 N 0.1147 0.83117 0.67427 0.0
C278 C 0.17263 0.80645 0.66209 0.0
C279 C 0.16783 0.8039 0.58469 0.0
C280 C 0.13661 0.81595 0.55239 0.0
C281 C 0.11088 0.83096 0.5979 0.0
C282 C 0.0935 0.94013 0.65061 0.0
C283 C 0.03538 0.89883 0.68021 0.0
C284 C 0.09708 0.90747 0.68513 0.0
N285 N 0.06831 0.88687 0.69772 0.0
C286 C 0.03084 0.9312 0.64433 0.0
C287 C 0.06027 0.95157 0.62791 0.0
C288 C 0.00762 0.82636 0.82392 0.0
C289 C 0.11211 0.73183 0.96069 0.0
C290 C 0.03804 0.74125 0.9439 0.0
C291 C 0.05334 0.73003 0.01139 0.0
C292 C 0.08945 0.72492 0.01969 0.0
N293 N 0.06105 0.74705 0.8834 0.0
C294 C 0.09835 0.74291 0.89248 0.0
Co295 Co 0.16917 0.07087 0.74172 0.0
Co296 Co 0.25054 0.04354 0.79176 0.0
O297 O 0.2159 0.08052 0.7782 0.0
C298 C 0.12913 0.10738 0.86152 0.0
O299 O 0.13117 0.08028 0.90687 0.0
C300 C 0.28841 0.10114 0.71519 0.0
O301 O 0.26444 0.10028 0.66195 0.0
O302 O 0.2458 0.02975 0.68301 0.0
O303 O 0.18695 0.03236 0.67431 0.0
H304 H 0.3057 0.92495 0.75004 0.0
H305 H 0.19806 0.14334 0.73501 0.0
O306 O 0.15027 0.10998 0.80623 0.0
H307 H 0.17762 0.1083 0.47133 0.0
H308 H 0.04779 0.10865 0.66947 0.0
H309 H 0.12271 0.00747 0.73579 0.0
H310 H 0.15724 0.07077 0.57525 0.0
H311 H 0.11171 0.11531 0.67715 0.0
O312 O 0.28799 0.07838 0.76736 0.0
H313 H 0.25809 0.96907 0.74379 0.0
H314 H 0.32093 0.04228 0.86535 0.0
H315 H 0.05833 0.00089 0.73758 0.0
H316 H 0.21817 0.18218 0.63283 0.0
H317 H 0.02032 0.05126 0.70325 0.0
H318 H 0.21026 0.16333 0.50011 0.0
O319 O 0.16278 0.0359 0.82375 0.0
H320 H 0.2629 0.13312 0.99846 0.0
H321 H 0.2418 0.00785 0.94154 0.0
H322 H 0.24169 0.02837 0.07333 0.0
H323 H 0.25286 0.09095 0.10267 0.0
H324 H 0.26135 0.11217 0.86803 0.0
H325 H 0.36918 0.99891 0.87317 0.0
H326 H 0.36174 0.93979 0.81503 0.0
O327 O 0.21384 0.0071 0.81788 0.0
C328 C 0.21697 0.02328 0.64804 0.0
C329 C 0.30923 0.95059 0.77571 0.0
C330 C 0.34487 0.99211 0.84481 0.0
N331 N 0.28662 0.00805 0.8048 0.0
C332 C 0.28229 0.9756 0.77273 0.0
C333 C 0.31741 0.01651 0.84044 0.0
C334 C 0.34069 0.95895 0.81212 0.0
C335 C 0.19288 0.13588 0.67733 0.0
N336 N 0.17712 0.1044 0.66112 0.0
C337 C 0.2046 0.15785 0.61972 0.0
C338 C 0.19989 0.14743 0.54522 0.0
C339 C 0.18197 0.11632 0.52905 0.0
C340 C 0.17059 0.09509 0.58812 0.0
C341 C 0.06396 0.08614 0.68335 0.0
C342 C 0.10648 0.02973 0.72098 0.0
C343 C 0.10044 0.08965 0.68683 0.0
N344 N 0.12122 0.06197 0.70815 0.0
C345 C 0.06999 0.02563 0.72097 0.0
C346 C 0.04863 0.05406 0.70223 0.0
C347 C 0.18151 0.00877 0.8369 0.0
C348 C 0.25886 0.10542 0.98664 0.0
C349 C 0.2474 0.03504 0.9537 0.0
C350 C 0.24705 0.04653 0.02844 0.0
C351 C 0.25313 0.08183 0.04497 0.0
N352 N 0.2536 0.05817 0.8967 0.0
C353 C 0.25857 0.09316 0.91261 0.0
Co354 Co 0.92791 0.15854 0.70725 0.0
Co355 Co 0.9485 0.23601 0.80099 0.0
O356 O 0.91621 0.19757 0.77393 0.0
C357 C 0.88784 0.11886 0.83269 0.0
O358 O 0.87763 0.14618 0.87243 0.0
C359 C 0.88839 0.27245 0.73004 0.0
O360 O 0.88619 0.24718 0.67992 0.0
O361 O 0.96547 0.24207 0.69475 0.0
O362 O 0.95112 0.19142 0.63698 0.0
H363 H 0.06399 0.30041 0.81104 0.0
H364 H 0.85385 0.17187 0.75485 0.0
O365 O 0.90578 0.12252 0.77328 0.0
H366 H 0.85595 0.18886 0.48085 0.0
H367 H 0.90553 0.04091 0.5919 0.0
H368 H 0.99193 0.13653 0.62495 0.0
H369 H 0.90728 0.16401 0.5465 0.0
H370 H 0.88816 0.09685 0.6491 0.0
O371 O 0.91137 0.2717 0.78182 0.0
H372 H 0.02365 0.25255 0.7741 0.0
H373 H 0.93998 0.30178 0.89133 0.0
H374 H 0.01057 0.08054 0.56713 0.0
H375 H 0.80096 0.19396 0.69107 0.0
H376 H 0.96809 0.03135 0.55473 0.0
H377 H 0.80237 0.20476 0.55386 0.0
O378 O 0.97329 0.15045 0.76148 0.0
H379 H 0.85481 0.22586 0.99751 0.0
H380 H 0.98246 0.22878 0.9511 0.0
H381 H 0.96056 0.22139 0.0814 0.0
H382 H 0.89626 0.22101 0.10451 0.0
H383 H 0.87781 0.23185 0.86904 0.0
H384 H 0.9788 0.35109 0.92662 0.0
H385 H 0.04151 0.35034 0.88771 0.0
O386 O 0.98687 0.20145 0.82016 0.0
C387 C 0.96419 0.22222 0.63676 0.0
C388 C 0.03679 0.30098 0.82882 0.0
C389 C 0.98901 0.32939 0.89367 0.0
N390 N 0.97966 0.27408 0.83097 0.0
C391 C 0.01393 0.27377 0.80841 0.0
C392 C 0.96708 0.30145 0.87316 0.0
C393 C 0.02416 0.32898 0.87172 0.0
C394 C 0.85406 0.1741 0.69462 0.0
N395 N 0.88385 0.1668 0.65472 0.0
C396 C 0.82413 0.18729 0.65882 0.0
C397 C 0.82496 0.19334 0.58174 0.0
C398 C 0.85493 0.18446 0.54088 0.0
C399 C 0.88401 0.17048 0.57836 0.0
C400 C 0.92474 0.06167 0.59787 0.0
C401 C 0.97283 0.11581 0.6162 0.0
C402 C 0.91493 0.09366 0.62989 0.0
N403 N 0.93922 0.11969 0.64134 0.0
C404 C 0.98355 0.08414 0.58367 0.0
C405 C 0.9596 0.05657 0.57657 0.0
C406 C 0.9934 0.16962 0.80207 0.0
C407 C 0.88291 0.2264 0.98802 0.0
C408 C 0.95463 0.22779 0.96152 0.0
C409 C 0.94235 0.22393 0.035 0.0
C410 C 0.90625 0.2235 0.0481 0.0
N411 N 0.93161 0.23083 0.903 0.0
C412 C 0.89614 0.22995 0.91543 0.0
Co413 Co 0.82841 0.91668 0.69354 0.0
Co414 Co 0.75281 0.94265 0.78481 0.0
O415 O 0.78878 0.90847 0.75904 0.0
C416 C 0.8735 0.89546 0.8251 0.0
O417 O 0.86406 0.92373 0.86251 0.0
C418 C 0.71466 0.88401 0.71264 0.0
O419 O 0.7369 0.88717 0.65687 0.0
O420 O 0.7479 0.95922 0.67823 0.0
O421 O 0.79916 0.94518 0.62285 0.0
H422 H 0.69132 0.05993 0.7812 0.0
H423 H 0.81174 0.8435 0.73909 0.0
O424 O 0.85942 0.88805 0.7618 0.0
H425 H 0.78727 0.84908 0.46705 0.0
H426 H 0.93628 0.87694 0.55467 0.0
H427 H 0.86043 0.97845 0.61633 0.0
H428 H 0.81567 0.89894 0.53205 0.0
H429 H 0.88377 0.86929 0.63352 0.0
O430 O 0.7159 0.90574 0.76724 0.0
H431 H 0.73822 0.01751 0.74954 0.0
H432 H 0.68862 0.93878 0.88042 0.0
H433 H 0.91382 0.98725 0.53966 0.0
H434 H 0.78566 0.79203 0.67519 0.0
H435 H 0.95157 0.93657 0.50714 0.0
H436 H 0.772 0.79513 0.53876 0.0
O437 O 0.84045 0.96105 0.74902 0.0
H438 H 0.75447 0.85125 0.98841 0.0
H439 H 0.76302 0.97809 0.93302 0.0
H440 H 0.76311 0.95801 0.06519 0.0
H441 H 0.75814 0.89427 0.09314 0.0
H442 H 0.75364 0.87245 0.85774 0.0
H443 H 0.64181 0.98053 0.91597 0.0
H444 H 0.64293 0.04161 0.86615 0.0
O445 O 0.78978 0.97966 0.80234 0.0
C446 C 0.76878 0.95937 0.62217 0.0
C447 C 0.69043 0.03335 0.80306 0.0
C448 C 0.66273 0.98884 0.87891 0.0
N449 N 0.71616 0.97576 0.81276 0.0
C450 C 0.7168 0.00919 0.78473 0.0
C451 C 0.68934 0.96532 0.85862 0.0
C452 C 0.66335 0.02309 0.85086 0.0
C453 C 0.80745 0.84444 0.67903 0.0
N454 N 0.81507 0.87429 0.63946 0.0
C455 C 0.79221 0.81538 0.64336 0.0
C456 C 0.78444 0.81719 0.56688 0.0
C457 C 0.793 0.84745 0.5266 0.0
C458 C 0.80904 0.87563 0.56373 0.0
C459 C 0.91983 0.89938 0.56785 0.0
C460 C 0.87695 0.95614 0.60281 0.0
C461 C 0.88992 0.89521 0.61225 0.0
N462 N 0.86879 0.92336 0.62881 0.0
C463 C 0.90701 0.96132 0.55926 0.0
C464 C 0.92839 0.93275 0.54127 0.0
C465 C 0.8225 0.9835 0.7869 0.0
C466 C 0.75627 0.87918 0.97687 0.0
C467 C 0.76115 0.95039 0.94517 0.0
C468 C 0.76132 0.93914 0.01988 0.0
C469 C 0.75857 0.90333 0.03564 0.0
N470 N 0.75739 0.92669 0.88796 0.0
C471 C 0.75577 0.8914 0.90295 0.0
Co472 Co 0.55045 0.65445 0.78403 0.0
Co473 Co 0.54629 0.73885 0.72201 0.0
O474 O 0.57412 0.69563 0.73994 0.0
C475 C 0.60938 0.62372 0.68783 0.0
O476 O 0.62004 0.65485 0.66546 0.0
C477 C 0.62006 0.76325 0.71418 0.0
O478 O 0.62661 0.73596 0.6709 0.0
O479 O 0.53573 0.74053 0.83068 0.0
O480 O 0.5162 0.68536 0.84033 0.0
H481 H 0.4337 0.80952 0.7303 0.0
H482 H 0.62709 0.66732 0.80678 0.0
O483 O 0.58325 0.62057 0.73193 0.0
H484 H 0.57645 0.66089 0.06081 0.0
H485 H 0.5409 0.52989 0.87961 0.0
H486 H 0.4756 0.63549 0.80121 0.0
H487 H 0.53976 0.64867 0.94941 0.0
H488 H 0.57268 0.58522 0.85135 0.0
O489 O 0.58963 0.76721 0.74276 0.0
H490 H 0.47003 0.75706 0.74077 0.0
H491 H 0.56193 0.81833 0.70409 0.0
H492 H 0.4438 0.58023 0.82134 0.0
H493 H 0.66487 0.67849 0.91636 0.0
H494 H 0.47625 0.52723 0.86362 0.0
H495 H 0.63948 0.6757 0.04502 0.0
O496 O 0.51901 0.65339 0.69532 0.0
H497 H 0.58244 0.78813 0.46333 0.0
H498 H 0.5536 0.7197 0.62292 0.0
H499 H 0.56804 0.67652 0.47437 0.0
H500 H 0.58255 0.72983 0.40228 0.0
H501 H 0.56891 0.79312 0.59623 0.0
H502 H 0.52638 0.87118 0.69457 0.0
H503 H 0.46147 0.86747 0.70571 0.0
O504 O 0.50211 0.70963 0.70099 0.0
C505 C 0.5191 0.71671 0.86547 0.0
C506 C 0.4618 0.81135 0.72147 0.0
C507 C 0.51371 0.84587 0.70163 0.0
N508 N 0.51832 0.78255 0.71212 0.0
C509 C 0.48279 0.78118 0.72514 0.0
C510 C 0.53383 0.81511 0.70574 0.0
C511 C 0.47737 0.84384 0.7083 0.0
C512 C 0.61606 0.66473 0.86216 0.0
N513 N 0.58133 0.65668 0.87124 0.0
C514 C 0.63758 0.67143 0.92432 0.0
C515 C 0.62332 0.67003 0.9963 0.0
C516 C 0.58794 0.66168 0.00523 0.0
C517 C 0.56733 0.65463 0.94183 0.0
C518 C 0.5266 0.5531 0.86262 0.0
C519 C 0.49022 0.61251 0.81806 0.0
C520 C 0.54431 0.5845 0.84684 0.0
N521 N 0.52607 0.61357 0.82352 0.0
C522 C 0.47193 0.58131 0.83051 0.0
C523 C 0.49024 0.5515 0.8535 0.0
C524 C 0.49659 0.67748 0.68199 0.0
C525 C 0.5753 0.76492 0.49509 0.0
C526 C 0.55759 0.70327 0.57747 0.0
C527 C 0.56695 0.7019 0.50161 0.0
C528 C 0.57538 0.73205 0.46087 0.0
N529 N 0.55733 0.73682 0.6125 0.0
C530 C 0.56684 0.76773 0.57069 0.0
Co531 Co 0.31646 0.58883 0.81685 0.0
Co532 Co 0.24383 0.55681 0.72184 0.0
O533 O 0.2771 0.59409 0.74842 0.0
C534 C 0.36052 0.61288 0.68671 0.0
O535 O 0.35062 0.58551 0.64667 0.0
C536 C 0.20115 0.61603 0.77609 0.0
O537 O 0.22428 0.62137 0.82972 0.0
O538 O 0.23765 0.54217 0.82888 0.0
O539 O 0.2878 0.55906 0.88599 0.0
H540 H 0.19258 0.43471 0.72451 0.0
H541 H 0.29989 0.66194 0.76858 0.0
O542 O 0.34702 0.61869 0.75102 0.0
H543 H 0.26497 0.65493 0.03415 0.0
H544 H 0.42131 0.63343 0.96118 0.0
H545 H 0.35201 0.52854 0.89096 0.0
H546 H 0.29789 0.6064 0.97551 0.0
H547 H 0.36722 0.6394 0.88529 0.0
O548 O 0.2042 0.59025 0.73133 0.0
H549 H 0.23453 0.48144 0.76018 0.0
H550 H 0.17977 0.55504 0.62411 0.0
H551 H 0.40803 0.52142 0.95893 0.0
H552 H 0.27299 0.7137 0.82914 0.0
H553 H 0.44222 0.57421 0.99709 0.0
H554 H 0.2542 0.71007 0.96252 0.0
O555 O 0.33219 0.54534 0.763 0.0
H556 H 0.24824 0.64601 0.51426 0.0
H557 H 0.25622 0.51983 0.57735 0.0
H558 H 0.26111 0.53872 0.44546 0.0
H559 H 0.25666 0.60193 0.41255 0.0
H560 H 0.24355 0.62613 0.64535 0.0
H561 H 0.13553 0.51008 0.59201 0.0
H562 H 0.14242 0.44901 0.6399 0.0
O563 O 0.28302 0.52212 0.71118 0.0
C564 C 0.25784 0.544 0.88616 0.0
C565 C 0.18959 0.46104 0.7021 0.0
C566 C 0.15768 0.50327 0.62744 0.0
N567 N 0.21025 0.52064 0.69292 0.0
C568 C 0.21358 0.48745 0.72142 0.0
C569 C 0.18266 0.52874 0.64651 0.0
C570 C 0.16145 0.46909 0.65475 0.0
C571 C 0.29393 0.6609 0.82786 0.0
N572 N 0.30022 0.63091 0.8683 0.0
C573 C 0.27811 0.69013 0.86154 0.0
C574 C 0.26755 0.68808 0.93629 0.0
C575 C 0.27395 0.65737 0.97685 0.0
C576 C 0.29174 0.6295 0.94269 0.0
C577 C 0.40585 0.61042 0.94707 0.0
C578 C 0.36689 0.55167 0.90681 0.0
C579 C 0.37516 0.61358 0.90435 0.0
N580 N 0.35611 0.58439 0.88478 0.0
C581 C 0.39819 0.54747 0.94692 0.0
C582 C 0.41746 0.57709 0.96798 0.0
C583 C 0.31573 0.52105 0.72752 0.0
C584 C 0.25005 0.61824 0.52742 0.0
C585 C 0.25474 0.5474 0.56347 0.0
C586 C 0.25738 0.55799 0.48879 0.0
C587 C 0.25486 0.59355 0.47053 0.0
N588 N 0.24935 0.57162 0.61863 0.0
C589 C 0.24736 0.60673 0.6016 0.0
Co590 Co 0.42757 0.33803 0.77866 0.0
Co591 Co 0.44453 0.26018 0.68922 0.0
O592 O 0.41242 0.29737 0.72098 0.0
C593 C 0.40157 0.39709 0.6859 0.0
O594 O 0.43462 0.40428 0.67137 0.0
C595 C 0.38566 0.21802 0.75257 0.0
O596 O 0.39006 0.23354 0.81798 0.0
O597 O 0.4589 0.25219 0.79625 0.0
O598 O 0.46108 0.30827 0.83893 0.0
H599 H 0.55824 0.19255 0.68457 0.0
H600 H 0.3522 0.31862 0.76857 0.0
O601 O 0.39377 0.36867 0.72066 0.0
H602 H 0.38142 0.3161 0.03896 0.0
H603 H 0.40815 0.45549 0.90134 0.0
H604 H 0.4967 0.36826 0.82125 0.0
H605 H 0.4255 0.33501 0.94606 0.0
H606 H 0.38991 0.39733 0.85379 0.0
O607 O 0.40541 0.22546 0.69754 0.0
H608 H 0.51768 0.23923 0.72682 0.0
H609 H 0.43694 0.19835 0.58612 0.0
H610 H 0.51575 0.42649 0.86593 0.0
H611 H 0.30742 0.29907 0.85959 0.0
H612 H 0.47176 0.47024 0.90842 0.0
H613 H 0.32262 0.29618 0.99524 0.0
O614 O 0.46497 0.34745 0.70405 0.0
H615 H 0.35453 0.27745 0.48584 0.0
H616 H 0.48112 0.26839 0.54284 0.0
H617 H 0.46126 0.274 0.41017 0.0
H618 H 0.39755 0.27702 0.38146 0.0
H619 H 0.37551 0.27192 0.61633 0.0
H620 H 0.47619 0.15058 0.54415 0.0
H621 H 0.53756 0.14785 0.59222 0.0
O622 O 0.48536 0.29367 0.67789 0.0
C623 C 0.46707 0.27524 0.84595 0.0
C624 C 0.53168 0.19366 0.66256 0.0
C625 C 0.48564 0.17011 0.58375 0.0
N626 N 0.4753 0.2221 0.65765 0.0
C627 C 0.50869 0.22019 0.68593 0.0
C628 C 0.46348 0.19716 0.608 0.0
C629 C 0.52005 0.16856 0.61085 0.0
C630 C 0.35856 0.31841 0.82785 0.0
N631 N 0.39138 0.32785 0.85196 0.0
C632 C 0.33318 0.3072 0.87905 0.0
C633 C 0.34162 0.30586 0.95529 0.0
C634 C 0.37474 0.31671 0.97976 0.0
C635 C 0.39952 0.3275 0.92691 0.0
C636 C 0.42777 0.43643 0.88431 0.0
C637 C 0.47722 0.3871 0.83972 0.0
C638 C 0.41764 0.40329 0.85813 0.0
N639 N 0.44224 0.37946 0.83435 0.0
C640 C 0.48825 0.42004 0.86522 0.0
C641 C 0.4634 0.44481 0.88767 0.0
C642 C 0.48871 0.32709 0.67906 0.0
C643 C 0.38242 0.27553 0.49753 0.0
C644 C 0.45356 0.2706 0.52991 0.0
C645 C 0.44243 0.27363 0.45524 0.0
C646 C 0.4066 0.27556 0.43907 0.0
N647 N 0.42965 0.26891 0.58653 0.0
C648 C 0.39452 0.27235 0.57134 0.0
Co649 Co 0.67754 0.42487 0.78052 0.0
Co650 Co 0.75465 0.44849 0.69194 0.0
O651 O 0.71699 0.4151 0.71556 0.0
C652 C 0.61523 0.40946 0.68594 0.0
O653 O 0.60707 0.44288 0.69363 0.0
C654 C 0.78983 0.38662 0.75694 0.0
O655 O 0.76524 0.38582 0.80832 0.0
O656 O 0.76076 0.4633 0.79939 0.0
O657 O 0.70869 0.45075 0.85238 0.0
H658 H 0.81992 0.56369 0.69581 0.0
H659 H 0.68911 0.35101 0.73228 0.0
O660 O 0.64471 0.39823 0.71121 0.0
H661 H 0.71715 0.35476 0.00257 0.0
H662 H 0.56688 0.39788 0.9248 0.0
H663 H 0.65068 0.48981 0.84769 0.0
H664 H 0.68836 0.4052 0.94115 0.0
H665 H 0.62034 0.38207 0.85402 0.0
O666 O 0.7902 0.41056 0.70727 0.0
H667 H 0.77169 0.52292 0.72708 0.0
H668 H 0.82002 0.44154 0.60086 0.0
H669 H 0.59563 0.50705 0.90631 0.0
H670 H 0.71209 0.29768 0.79401 0.0
H671 H 0.55313 0.46148 0.94646 0.0
H672 H 0.7283 0.29991 0.92922 0.0
O673 O 0.66806 0.46945 0.72522 0.0
H674 H 0.74561 0.35775 0.48756 0.0
H675 H 0.74743 0.48489 0.54518 0.0
H676 H 0.74069 0.46475 0.41338 0.0
H677 H 0.74144 0.40103 0.3837 0.0
H678 H 0.75031 0.37875 0.618 0.0
H679 H 0.8697 0.48065 0.57099 0.0
H680 H 0.86963 0.54244 0.61743 0.0
O681 O 0.71955 0.48804 0.67738 0.0
C682 C 0.73989 0.46297 0.85536 0.0
C683 C 0.82017 0.53692 0.67465 0.0
C684 C 0.8481 0.49033 0.60473 0.0
N685 N 0.79267 0.48016 0.66519 0.0
C686 C 0.79271 0.5139 0.69174 0.0
C687 C 0.81992 0.46825 0.62207 0.0
C688 C 0.84806 0.52497 0.63086 0.0
C689 C 0.69356 0.35136 0.79231 0.0
N690 N 0.68791 0.38141 0.83303 0.0
C691 C 0.70726 0.32128 0.82666 0.0
C692 C 0.71634 0.32256 0.90252 0.0
C693 C 0.70996 0.35318 0.94376 0.0
C694 C 0.69428 0.38197 0.90851 0.0
C695 C 0.58496 0.41822 0.90697 0.0
C696 C 0.63213 0.46953 0.863 0.0
C697 C 0.61551 0.40936 0.86796 0.0
N698 N 0.63833 0.43507 0.84563 0.0
C699 C 0.601 0.47948 0.89722 0.0
C700 C 0.57732 0.4537 0.9197 0.0
C701 C 0.68687 0.49243 0.69227 0.0
C702 C 0.74584 0.38573 0.49945 0.0
C703 C 0.74653 0.45716 0.53232 0.0
C704 C 0.74325 0.44589 0.45791 0.0
C705 C 0.74337 0.41001 0.44133 0.0
N706 N 0.74933 0.43323 0.58875 0.0
C707 C 0.74863 0.39788 0.57326 0.0
Co708 Co 0.56673 0.34151 0.20249 0.0
Co709 Co 0.55067 0.26287 0.29631 0.0
O710 O 0.58157 0.30254 0.26753 0.0
C711 C 0.60617 0.37926 0.33024 0.0
O712 O 0.61534 0.35044 0.36592 0.0
C713 C 0.61245 0.22808 0.22578 0.0
O714 O 0.6157 0.25435 0.17862 0.0
O715 O 0.53215 0.25641 0.19083 0.0
O716 O 0.5459 0.30678 0.13253 0.0
H717 H 0.4366 0.19638 0.31026 0.0
H718 H 0.64181 0.33129 0.2462 0.0
O719 O 0.58777 0.37799 0.27055 0.0
H720 H 0.63693 0.31743 0.97135 0.0
H721 H 0.55945 0.4674 0.11769 0.0
H722 H 0.50653 0.35009 0.09565 0.0
H723 H 0.58567 0.34032 0.04032 0.0
H724 H 0.5906 0.41633 0.16905 0.0
O725 O 0.58833 0.22784 0.27484 0.0
H726 H 0.47571 0.24471 0.271 0.0
H727 H 0.56143 0.19741 0.38678 0.0
H728 H 0.48155 0.39851 0.0245 0.0
H729 H 0.69367 0.30945 0.17973 0.0
H730 H 0.50568 0.459 0.0411 0.0
H731 H 0.69028 0.29883 0.04283 0.0
O732 O 0.52196 0.34684 0.258 0.0
H733 H 0.64693 0.27529 0.48889 0.0
H734 H 0.51907 0.26737 0.4481 0.0
H735 H 0.54226 0.27276 0.57795 0.0
H736 H 0.6068 0.27661 0.59839 0.0
H737 H 0.62236 0.26975 0.36105 0.0
H738 H 0.5234 0.14828 0.42623 0.0
H739 H 0.46039 0.14773 0.38865 0.0
O740 O 0.51165 0.29624 0.31955 0.0
C741 C 0.53328 0.27588 0.13248 0.0
C742 C 0.46398 0.19635 0.32716 0.0
C743 C 0.51269 0.16937 0.39225 0.0
N744 N 0.52074 0.22407 0.32699 0.0
C745 C 0.48625 0.22367 0.30515 0.0
C746 C 0.53413 0.19722 0.36952 0.0
C747 C 0.47735 0.16907 0.37111 0.0
C748 C 0.64085 0.32975 0.18593 0.0
N749 N 0.61045 0.33689 0.14762 0.0
C750 C 0.67026 0.31669 0.14855 0.0
C751 C 0.66841 0.31105 0.07142 0.0
C752 C 0.63836 0.32106 0.03167 0.0
C753 C 0.60953 0.33435 0.07098 0.0
C754 C 0.54916 0.4413 0.10865 0.0
C755 C 0.52012 0.37499 0.09688 0.0
C756 C 0.56598 0.41212 0.14006 0.0
N757 N 0.55051 0.37957 0.13741 0.0
C758 C 0.50472 0.40295 0.05843 0.0
C759 C 0.51851 0.43662 0.06699 0.0
C760 C 0.50376 0.32772 0.30167 0.0
C761 C 0.61875 0.2736 0.48068 0.0
C762 C 0.54688 0.26943 0.45739 0.0
C763 C 0.55998 0.27236 0.53062 0.0
C764 C 0.59619 0.27446 0.54213 0.0
N765 N 0.5691 0.2682 0.39757 0.0
C766 C 0.60466 0.27038 0.40841 0.0
Co767 Co 0.67728 0.57265 0.19134 0.0
Co768 Co 0.74888 0.55158 0.29995 0.0
O769 O 0.71456 0.58495 0.26055 0.0
C770 C 0.63368 0.60402 0.31323 0.0
O771 O 0.64525 0.58024 0.36078 0.0
C772 C 0.79081 0.6075 0.23275 0.0
O773 O 0.7723 0.60305 0.17103 0.0
O774 O 0.75995 0.53326 0.19692 0.0
O775 O 0.70911 0.541 0.13415 0.0
H776 H 0.81373 0.43645 0.31741 0.0
H777 H 0.69532 0.64763 0.21822 0.0
O778 O 0.64472 0.60479 0.24585 0.0
H779 H 0.714 0.62791 0.94719 0.0
H780 H 0.56589 0.59392 0.04468 0.0
H781 H 0.65444 0.50633 0.12215 0.0
H782 H 0.69057 0.58048 0.0271 0.0
H783 H 0.6184 0.61222 0.11777 0.0
O784 O 0.78567 0.58821 0.28969 0.0
H785 H 0.76747 0.47676 0.27164 0.0
H786 H 0.80719 0.55862 0.4112 0.0
H787 H 0.60388 0.48748 0.04834 0.0
H788 H 0.71817 0.69604 0.14001 0.0
H789 H 0.55763 0.531 0.01204 0.0
H790 H 0.72822 0.68611 0.00367 0.0
O791 O 0.66265 0.53265 0.25609 0.0
H792 H 0.73205 0.64809 0.49011 0.0
H793 H 0.73055 0.52002 0.44757 0.0
H794 H 0.72183 0.54303 0.57555 0.0
H795 H 0.72228 0.6078 0.59743 0.0
H796 H 0.74238 0.62353 0.36396 0.0
H797 H 0.85434 0.51959 0.45682 0.0
H798 H 0.85739 0.4577 0.41141 0.0
O799 O 0.71228 0.51372 0.31187 0.0
C800 C 0.74044 0.52951 0.139 0.0
C801 C 0.81246 0.46321 0.33837 0.0
C802 C 0.83505 0.50973 0.41721 0.0
N803 N 0.78417 0.51977 0.33992 0.0
C804 C 0.78632 0.48615 0.31269 0.0
C805 C 0.80832 0.53177 0.39099 0.0
C806 C 0.83691 0.47512 0.39119 0.0
C807 C 0.69892 0.64337 0.15864 0.0
N808 N 0.69161 0.61129 0.12729 0.0
C809 C 0.71214 0.67078 0.11476 0.0
C810 C 0.71786 0.66516 0.03832 0.0
C811 C 0.70989 0.6325 0.00658 0.0
C812 C 0.69652 0.60579 0.05209 0.0
C813 C 0.58551 0.57476 0.06082 0.0
C814 C 0.63555 0.52586 0.10405 0.0
C815 C 0.61521 0.5849 0.10197 0.0
N816 N 0.63944 0.56036 0.12381 0.0
C817 C 0.60647 0.51493 0.06287 0.0
C818 C 0.58091 0.53941 0.04223 0.0
C819 C 0.6796 0.51049 0.29595 0.0
C820 C 0.73198 0.61985 0.48157 0.0
C821 C 0.73133 0.54786 0.45717 0.0
C822 C 0.72593 0.56095 0.52953 0.0
C823 C 0.72633 0.59721 0.54173 0.0
N824 N 0.73825 0.57004 0.3991 0.0
C825 C 0.73793 0.60572 0.41024 0.0
Co826 Co 0.4309 0.65419 0.24682 0.0
Co827 Co 0.45085 0.7363 0.32079 0.0
O828 O 0.4201 0.69497 0.30972 0.0
C829 C 0.39486 0.61772 0.38165 0.0
O830 O 0.38407 0.64596 0.41758 0.0
C831 C 0.38462 0.76649 0.26224 0.0
O832 O 0.38619 0.74293 0.20828 0.0
O833 O 0.45918 0.7398 0.21036 0.0
O834 O 0.45024 0.68497 0.16686 0.0
H835 H 0.55968 0.80899 0.28024 0.0
H836 H 0.35903 0.67047 0.3036 0.0
O837 O 0.41269 0.62006 0.32189 0.0
H838 H 0.34846 0.66761 0.02816 0.0
H839 H 0.4133 0.52989 0.16623 0.0
H840 H 0.49283 0.63213 0.15612 0.0
H841 H 0.40376 0.64957 0.09008 0.0
H842 H 0.39351 0.58758 0.20958 0.0
O843 O 0.40887 0.76794 0.31162 0.0
H844 H 0.52023 0.75816 0.26136 0.0
H845 H 0.44416 0.80425 0.405 0.0
H846 H 0.51255 0.57498 0.10461 0.0
H847 H 0.30354 0.68811 0.24484 0.0
H848 H 0.47324 0.5229 0.11173 0.0
H849 H 0.29889 0.68979 0.10661 0.0
O850 O 0.47772 0.65016 0.29467 0.0
H851 H 0.37597 0.7354 0.55149 0.0
H852 H 0.49736 0.73944 0.45497 0.0
H853 H 0.48679 0.74865 0.58915 0.0
H854 H 0.42541 0.7482 0.63833 0.0
H855 H 0.3877 0.72785 0.41619 0.0
H856 H 0.48235 0.85599 0.42445 0.0
H857 H 0.54079 0.8584 0.36262 0.0
O858 O 0.49338 0.70512 0.33034 0.0
C859 C 0.4591 0.71696 0.15791 0.0
C860 C 0.53442 0.80813 0.30809 0.0
C861 C 0.49099 0.83453 0.38883 0.0
N862 N 0.48041 0.7777 0.33349 0.0
C863 C 0.51215 0.77924 0.29803 0.0
C864 C 0.46943 0.80519 0.37739 0.0
C865 C 0.52378 0.83586 0.35416 0.0
C866 C 0.35666 0.6684 0.24359 0.0
N867 N 0.38476 0.65863 0.20057 0.0
C868 C 0.32514 0.67898 0.21041 0.0
C869 C 0.3224 0.67943 0.13253 0.0
C870 C 0.35036 0.66751 0.08885 0.0
C871 C 0.38154 0.65708 0.12415 0.0
C872 C 0.4306 0.55223 0.16073 0.0
C873 C 0.47487 0.61004 0.15554 0.0
C874 C 0.41957 0.58516 0.18595 0.0
N875 N 0.44211 0.6132 0.18616 0.0
C876 C 0.48641 0.57763 0.12742 0.0
C877 C 0.46434 0.54837 0.13151 0.0
C878 C 0.49972 0.67227 0.32118 0.0
C879 C 0.4027 0.73619 0.5308 0.0
C880 C 0.47081 0.73794 0.47613 0.0
C881 C 0.46489 0.74332 0.55241 0.0
C882 C 0.43055 0.74305 0.57965 0.0
N883 N 0.44317 0.73381 0.42786 0.0
C884 C 0.40954 0.73168 0.45443 0.0
Co885 Co 0.32105 0.42264 0.22403 0.0
Co886 Co 0.25013 0.45107 0.32683 0.0
O887 O 0.28296 0.41517 0.29343 0.0
C888 C 0.37053 0.39575 0.34253 0.0
O889 O 0.36516 0.42355 0.38492 0.0
C890 C 0.20632 0.39675 0.25669 0.0
O891 O 0.22601 0.40014 0.1967 0.0
O892 O 0.24241 0.46936 0.22186 0.0
O893 O 0.29149 0.45378 0.16013 0.0
H894 H 0.19398 0.57083 0.33651 0.0
H895 H 0.29811 0.35038 0.26393 0.0
O896 O 0.35185 0.39044 0.28407 0.0
H897 H 0.27964 0.36024 0.99021 0.0
H898 H 0.42648 0.38387 0.07705 0.0
H899 H 0.35095 0.4844 0.1464 0.0
H900 H 0.30801 0.4084 0.06124 0.0
H901 H 0.3741 0.37494 0.15518 0.0
O902 O 0.21117 0.41667 0.31321 0.0
H903 H 0.23888 0.52724 0.29923 0.0
H904 H 0.1884 0.44857 0.42893 0.0
H905 H 0.40301 0.4942 0.06753 0.0
H906 H 0.2704 0.3012 0.19484 0.0
H907 H 0.44196 0.44481 0.03589 0.0
H908 H 0.26013 0.30638 0.05735 0.0
O909 O 0.33745 0.46488 0.28262 0.0
H910 H 0.25853 0.35625 0.52332 0.0
H911 H 0.26934 0.48325 0.47453 0.0
H912 H 0.27837 0.46105 0.60338 0.0
H913 H 0.27277 0.39701 0.62841 0.0
H914 H 0.24975 0.37981 0.39582 0.0
H915 H 0.14239 0.49081 0.46582 0.0
H916 H 0.1454 0.55272 0.42119 0.0
O917 O 0.2891 0.48589 0.34062 0.0
C918 C 0.26181 0.46915 0.16334 0.0
C919 C 0.1925 0.54404 0.35699 0.0
C920 C 0.16378 0.49927 0.4303 0.0
N921 N 0.21638 0.48554 0.3621 0.0
C922 C 0.21781 0.51928 0.33587 0.0
C923 C 0.18981 0.47538 0.4088 0.0
C924 C 0.16532 0.53389 0.40462 0.0
C925 C 0.29452 0.35245 0.20378 0.0
N926 N 0.30429 0.38239 0.16677 0.0
C927 C 0.27858 0.32463 0.16507 0.0
C928 C 0.27275 0.32759 0.08796 0.0
C929 C 0.28365 0.35782 0.05027 0.0
C930 C 0.29969 0.385 0.09075 0.0
C931 C 0.41011 0.40612 0.09187 0.0
C932 C 0.36729 0.46227 0.13074 0.0
C933 C 0.38035 0.4012 0.13603 0.0
N934 N 0.35969 0.42922 0.15565 0.0
C935 C 0.39678 0.46808 0.08643 0.0
C936 C 0.4186 0.44001 0.06819 0.0
C937 C 0.32161 0.48793 0.32295 0.0
C938 C 0.26061 0.38429 0.51339 0.0
C939 C 0.26641 0.45567 0.48535 0.0
C940 C 0.27179 0.44309 0.55826 0.0
C941 C 0.26869 0.40716 0.57229 0.0
N942 N 0.25769 0.43331 0.42818 0.0
C943 C 0.25538 0.39788 0.44129 0.0
C944 C 0.12877 0.06588 0.10581 0.0
C945 C 0.13895 0.09287 0.15575 0.0
C946 C 0.14714 0.03375 0.10335 0.0
C947 C 0.17671 0.02768 0.14954 0.0
H948 H 0.1049 0.06841 0.07275 0.0
H949 H 0.13682 0.01268 0.06856 0.0
S950 S 0.21715 0.09195 0.28136 0.0
N951 N 0.18302 0.113 0.24552 0.0
N952 N 0.21727 0.05282 0.24074 0.0
C953 C 0.18898 0.05566 0.19435 0.0
C954 C 0.17016 0.0882 0.19745 0.0
C955 C 0.98169 0.11368 0.1459 0.0
C956 C 0.9823 0.14756 0.17776 0.0
C957 C 0.94998 0.09485 0.13877 0.0
C958 C 0.91772 0.10903 0.164 0.0
H959 H 0.006 0.10125 0.1285 0.0
H960 H 0.9511 0.06825 0.11674 0.0
S961 S 0.90581 0.19654 0.25431 0.0
N962 N 0.94824 0.19416 0.23606 0.0
N963 N 0.88883 0.15979 0.22049 0.0
C964 C 0.91796 0.14363 0.19276 0.0
C965 C 0.95022 0.16253 0.20056 0.0
C966 C 0.85515 0.97356 0.09752 0.0
C967 C 0.82727 0.97373 0.14885 0.0
C968 C 0.8724 0.94208 0.07902 0.0
C969 C 0.86266 0.90981 0.11234 0.0
H970 H 0.86444 0.99805 0.07352 0.0
H971 H 0.89503 0.94359 0.04236 0.0
S972 S 0.7889 0.89669 0.24599 0.0
N973 N 0.78909 0.93945 0.22925 0.0
N974 N 0.82055 0.88002 0.19349 0.0
C975 C 0.8329 0.90956 0.15948 0.0
C976 C 0.81564 0.94167 0.17857 0.0
C977 C 0.01809 0.88047 0.09141 0.0
C978 C 0.01954 0.8449 0.11366 0.0
C979 C 0.04874 0.90069 0.08421 0.0
C980 C 0.08221 0.88621 0.09889 0.0
H981 H 0.993 0.89358 0.08428 0.0
H982 H 0.04576 0.92854 0.07269 0.0
S983 S 0.10118 0.79271 0.1436 0.0
N984 N 0.05788 0.7948 0.13879 0.0
N985 N 0.11526 0.83273 0.12413 0.0
C986 C 0.08428 0.8498 0.11269 0.0
C987 C 0.05304 0.82918 0.12038 0.0
C988 C 0.15827 0.91182 0.85583 0.0
C989 C 0.12325 0.91277 0.88145 0.0
C990 C 0.17808 0.94282 0.84756 0.0
C991 C 0.16351 0.97616 0.86354 0.0
H992 H 0.16984 0.88712 0.83785 0.0
H993 H 0.20414 0.9407 0.82354 0.0
S994 S 0.07487 0.99273 0.94366 0.0
N995 N 0.07646 0.94965 0.93171 0.0
N996 N 0.11343 0.00759 0.91572 0.0
C997 C 0.12962 0.97714 0.89533 0.0
C998 C 0.10958 0.94557 0.90446 0.0
C999 C 0.06512 0.11434 0.89156 0.0
C1000 C 0.09584 0.12772 0.85758 0.0
C1001 C 0.03178 0.12806 0.87392 0.0
C1002 C 0.0282 0.15572 0.82233 0.0
H1003 H 0.06652 0.09194 0.92908 0.0
H1004 H 0.00868 0.11663 0.89973 0.0
S1005 S 0.09977 0.20125 0.72053 0.0
N1006 N 0.12015 0.17192 0.7734 0.0
N1007 N 0.05748 0.19639 0.73834 0.0
C1008 C 0.05852 0.1701 0.79001 0.0
C1009 C 0.09238 0.15658 0.8085 0.0
C1010 C 0.8354 0.07992 0.84104 0.0
C1011 C 0.8721 0.08362 0.84242 0.0
C1012 C 0.81974 0.04723 0.82484 0.0
C1013 C 0.84007 0.01678 0.81126 0.0
H1014 H 0.81874 0.10297 0.84582 0.0
H1015 H 0.79156 0.04641 0.81753 0.0
S1016 S 0.93772 0.01272 0.81176 0.0
N1017 N 0.92859 0.05433 0.83068 0.0
N1018 N 0.89933 0.99271 0.80323 0.0
C1019 C 0.87693 0.01998 0.81588 0.0
C1020 C 0.89283 0.05336 0.83118 0.0
C1021 C 0.90924 0.84064 0.82259 0.0
C1022 C 0.90571 0.8758 0.84614 0.0
C1023 C 0.94205 0.82395 0.82222 0.0
C1024 C 0.9729 0.8418 0.84431 0.0
H1025 H 0.88679 0.82655 0.79981 0.0
H1026 H 0.9434 0.79771 0.79885 0.0
S1027 S 0.97693 0.93252 0.92236 0.0
N1028 N 0.93496 0.92659 0.90167 0.0
N1029 N 0.99685 0.89537 0.89949 0.0
C1030 C 0.96925 0.87605 0.87386 0.0
C1031 C 0.93559 0.89295 0.87542 0.0
C1032 C 0.61696 0.561 0.64748 0.0
C1033 C 0.63169 0.59226 0.67623 0.0
C1034 C 0.63589 0.52914 0.64841 0.0
C1035 C 0.67006 0.52727 0.67909 0.0
H1036 H 0.5902 0.56098 0.62623 0.0
H1037 H 0.62324 0.50554 0.62724 0.0
S1038 S 0.71879 0.60126 0.76795 0.0
N1039 N 0.6817 0.61927 0.73851 0.0
N1040 N 0.7167 0.55939 0.74291 0.0
C1041 C 0.68495 0.55848 0.70789 0.0
C1042 C 0.66591 0.59098 0.70577 0.0
C1043 C 0.43206 0.68127 0.70328 0.0
C1044 C 0.46024 0.66593 0.66422 0.0
C1045 C 0.39882 0.6655 0.70425 0.0
C1046 C 0.39238 0.63344 0.66666 0.0
H1047 H 0.43622 0.70433 0.73793 0.0
H1048 H 0.37866 0.67739 0.73898 0.0
S1049 S 0.45629 0.58495 0.54774 0.0
N1050 N 0.47873 0.61902 0.58024 0.0
N1051 N 0.41618 0.58892 0.58218 0.0
C1052 C 0.41953 0.61929 0.62213 0.0
C1053 C 0.45352 0.63552 0.62125 0.0
C1054 C 0.36644 0.49008 0.66792 0.0
C1055 C 0.33506 0.4886 0.70895 0.0
C1056 C 0.38633 0.45955 0.65501 0.0
C1057 C 0.37584 0.42655 0.68382 0.0
H1058 H 0.37603 0.51507 0.64699 0.0
H1059 H 0.411 0.46225 0.62525 0.0
S1060 S 0.29485 0.40923 0.79408 0.0
N1061 N 0.29393 0.45195 0.77723 0.0
N1062 N 0.33063 0.39447 0.75227 0.0
C1063 C 0.34351 0.42469 0.72207 0.0
C1064 C 0.32341 0.45579 0.73521 0.0
C1065 C 0.55581 0.39687 0.63143 0.0
C1066 C 0.58657 0.38426 0.66674 0.0
C1067 C 0.5248 0.37684 0.6299 0.0
C1068 C 0.52335 0.34329 0.66308 0.0
H1069 H 0.555 0.42333 0.60874 0.0
H1070 H 0.50124 0.38852 0.60627 0.0
S1071 S 0.59697 0.29702 0.75839 0.0
N1072 N 0.61409 0.33478 0.73095 0.0
N1073 N 0.55578 0.29755 0.72873 0.0
C1074 C 0.55449 0.3293 0.69376 0.0
C1075 C 0.58614 0.34965 0.69525 0.0
C1076 C 0.67918 0.44579 0.32355 0.0
C1077 C 0.66087 0.47799 0.31961 0.0
C1078 C 0.66155 0.41383 0.33625 0.0
C1079 C 0.62479 0.41282 0.34333 0.0
H1080 H 0.70701 0.44492 0.31129 0.0
H1081 H 0.67644 0.38951 0.3338 0.0
S1082 S 0.56434 0.48946 0.33944 0.0
N1083 N 0.60379 0.5068 0.32777 0.0
N1084 N 0.57061 0.44657 0.34779 0.0
C1085 C 0.60621 0.44482 0.34178 0.0
C1086 C 0.6242 0.47741 0.33044 0.0
C1087 C 0.54141 0.62743 0.37167 0.0
C1088 C 0.53571 0.65922 0.33291 0.0
C1089 C 0.57457 0.61116 0.3716 0.0
C1090 C 0.60265 0.62573 0.33087 0.0
H1091 H 0.51977 0.61447 0.39988 0.0
H1092 H 0.57744 0.5858 0.3988 0.0
S1093 S 0.6012 0.70869 0.22116 0.0
N1094 N 0.56093 0.70485 0.25447 0.0
N1095 N 0.62309 0.67443 0.25401 0.0
C1096 C 0.59758 0.65823 0.29471 0.0
C1097 C 0.56406 0.67489 0.29551 0.0
C1098 C 0.34016 0.58256 0.38226 0.0
C1099 C 0.37687 0.58352 0.3897 0.0
C1100 C 0.32286 0.5515 0.36061 0.0
C1101 C 0.34123 0.51974 0.34862 0.0
H1102 H 0.32504 0.60671 0.38585 0.0
H1103 H 0.29509 0.55305 0.3481 0.0
S1104 S 0.43809 0.5086 0.36035 0.0
N1105 N 0.43142 0.55042 0.38171 0.0
N1106 N 0.39869 0.49154 0.34567 0.0
C1107 C 0.37798 0.52013 0.35812 0.0
C1108 C 0.39573 0.55201 0.37833 0.0
C1109 C 0.40626 0.34334 0.30738 0.0
C1110 C 0.40332 0.37478 0.34931 0.0
C1111 C 0.43886 0.32715 0.29588 0.0
C1112 C 0.46969 0.34175 0.32593 0.0
H1113 H 0.38342 0.33201 0.2799 0.0
H1114 H 0.44014 0.304 0.2602 0.0
S1115 S 0.47667 0.42109 0.4464 0.0
N1116 N 0.43426 0.41795 0.42675 0.0
N1117 N 0.49568 0.38741 0.40378 0.0
C1118 C 0.46721 0.37183 0.37143 0.0
C1119 C 0.43391 0.38826 0.38395 0.0
C1120 C 0.14547 0.32292 0.19765 0.0
C1121 C 0.13241 0.31054 0.26662 0.0
C1122 C 0.16929 0.35091 0.19502 0.0
C1123 C 0.18038 0.36796 0.26113 0.0
H1124 H 0.13756 0.31065 0.14518 0.0
H1125 H 0.17893 0.3593 0.14067 0.0
S1126 S 0.15344 0.34569 0.45614 0.0
N1127 N 0.1322 0.31716 0.40256 0.0
N1128 N 0.1763 0.37045 0.39791 0.0
C1129 C 0.16723 0.356 0.33058 0.0
C1130 C 0.14345 0.32705 0.33326 0.0
C1131 C 0.69791 0.17811 0.24585 0.0
C1132 C 0.68643 0.14288 0.24649 0.0
C1133 C 0.67395 0.20583 0.23511 0.0
C1134 C 0.63785 0.199 0.2266 0.0
H1135 H 0.72559 0.18422 0.25228 0.0
H1136 H 0.68354 0.23272 0.23568 0.0
S1137 S 0.59467 0.11149 0.22484 0.0
N1138 N 0.63691 0.1027 0.23639 0.0
N1139 N 0.5917 0.15485 0.21988 0.0
C1140 C 0.62611 0.16396 0.22763 0.0
C1141 C 0.6505 0.13582 0.23654 0.0
C1142 C 0.82235 0.65362 0.30594 0.0
C1143 C 0.81734 0.63534 0.23781 0.0
C1144 C 0.84788 0.68002 0.31251 0.0
C1145 C 0.86986 0.68826 0.25177 0.0
H1146 H 0.80613 0.64776 0.35429 0.0
H1147 H 0.85057 0.69379 0.36563 0.0
S1148 S 0.86792 0.64616 0.06217 0.0
N1149 N 0.83616 0.62656 0.10914 0.0
N1150 N 0.88534 0.67478 0.12143 0.0
C1151 C 0.86536 0.66946 0.18358 0.0
C1152 C 0.83874 0.64336 0.17658 0.0
C1153 C 0.32172 0.83596 0.33752 0.0
C1154 C 0.30225 0.84542 0.27344 0.0
C1155 C 0.34798 0.81001 0.33357 0.0
C1156 C 0.35518 0.79208 0.26576 0.0
H1157 H 0.31765 0.84969 0.39024 0.0
H1158 H 0.36303 0.80425 0.38393 0.0
S1159 S 0.30869 0.8048 0.08398 0.0
N1160 N 0.2902 0.83342 0.14161 0.0
N1161 N 0.33879 0.78414 0.13445 0.0
C1162 C 0.33461 0.80016 0.20227 0.0
C1163 C 0.30837 0.827 0.20604 0.0
C1164 C 0.18536 0.67883 0.75669 0.0
C1165 C 0.17551 0.64316 0.75601 0.0
C1166 C 0.16231 0.70479 0.73015 0.0
C1167 C 0.12876 0.69567 0.70322 0.0
H1168 H 0.21105 0.68667 0.77713 0.0
H1169 H 0.17002 0.7322 0.73459 0.0
S1170 S 0.09083 0.60607 0.6889 0.0
N1171 N 0.13062 0.59996 0.72414 0.0
N1172 N 0.08684 0.64902 0.67668 0.0
C1173 C 0.1189 0.66012 0.70121 0.0
C1174 C 0.14242 0.63375 0.72708 0.0
C1175 C 0.35223 0.16665 0.80209 0.0
C1176 C 0.35945 0.18966 0.74261 0.0
C1177 C 0.3299 0.13771 0.79184 0.0
C1178 C 0.31316 0.13114 0.72218 0.0
H1179 H 0.36469 0.17042 0.85642 0.0
H1180 H 0.32562 0.12051 0.83943 0.0
S1181 S 0.32241 0.18471 0.54928 0.0
N1182 N 0.34792 0.20445 0.61174 0.0
N1183 N 0.30493 0.15073 0.59328 0.0
C1184 C 0.31966 0.15441 0.6626 0.0
C1185 C 0.34304 0.18349 0.67263 0.0
C1186 C 0.82713 0.29497 0.73599 0.0
C1187 C 0.86333 0.30165 0.73029 0.0
C1188 C 0.80334 0.32273 0.74695 0.0
C1189 C 0.81518 0.35777 0.75073 0.0
H1190 H 0.81734 0.26817 0.73436 0.0
H1191 H 0.77557 0.31684 0.75125 0.0
S1192 S 0.90724 0.38873 0.73628 0.0
N1193 N 0.90994 0.34541 0.72888 0.0
N1194 N 0.86497 0.39775 0.74584 0.0
C1195 C 0.85118 0.36473 0.74317 0.0
C1196 C 0.87539 0.33653 0.73399 0.0
C1197 C 0.69244 0.82695 0.65967 0.0
C1198 C 0.69033 0.85337 0.71521 0.0
C1199 C 0.67062 0.7972 0.66153 0.0
C1200 C 0.64548 0.7928 0.71855 0.0
H1201 H 0.71101 0.82921 0.61395 0.0
H1202 H 0.67287 0.77803 0.61659 0.0
S1203 S 0.62989 0.85345 0.87904 0.0
N1204 N 0.66154 0.87244 0.83049 0.0
N1205 N 0.62035 0.81677 0.83332 0.0
C1206 C 0.64329 0.81872 0.775 0.0
C1207 C 0.6657 0.84892 0.77348 0.0
C1208 C 0.97779 0.22484 0.42779 0.0
C1209 C 0.01315 0.23468 0.42183 0.0
C1210 C 0.96092 0.22474 0.49756 0.0
C1211 C 0.97899 0.23388 0.5641 0.0
H1212 H 0.9638 0.21479 0.37922 0.0
H1213 H 0.93414 0.21523 0.49997 0.0
S1214 S 0.07058 0.26681 0.57604 0.0
N1215 N 0.06463 0.25804 0.48583 0.0
N1216 N 0.03299 0.25736 0.61784 0.0
C1217 C 0.01344 0.24688 0.55781 0.0
C1218 C 0.0306 0.24717 0.48636 0.0
C1219 C 0.75812 0.96006 0.4836 0.0
C1220 C 0.75852 0.97813 0.55278 0.0
C1221 C 0.75564 0.9784 0.4152 0.0
C1222 C 0.754 0.01538 0.41389 0.0
H1223 H 0.7614 0.93171 0.48224 0.0
H1224 H 0.75763 0.96374 0.36309 0.0
S1225 S 0.75272 0.07483 0.57922 0.0
N1226 N 0.75566 0.03491 0.61548 0.0
N1227 N 0.75094 0.06924 0.48716 0.0
C1228 C 0.75256 0.03355 0.4826 0.0
C1229 C 0.75482 0.01493 0.55211 0.0
C1230 C 0.00292 0.76146 0.52202 0.0
C1231 C 0.01312 0.7932 0.55733 0.0
C1232 C 0.98983 0.76102 0.44766 0.0
C1233 C 0.98645 0.7923 0.4055 0.0
H1234 H 0.00522 0.73669 0.55178 0.0
H1235 H 0.98195 0.73602 0.42345 0.0
S1236 S 0.0095 0.88253 0.4715 0.0
N1237 N 0.0182 0.85679 0.54345 0.0
N1238 N 0.99518 0.85589 0.405 0.0
C1239 C 0.99684 0.82411 0.44012 0.0
C1240 C 0.00966 0.82458 0.51551 0.0
C1241 C 0.24892 0.99718 0.5348 0.0
C1242 C 0.21731 0.00507 0.57295 0.0
C1243 C 0.24876 0.98206 0.46187 0.0
C1244 C 0.21697 0.97449 0.42384 0.0
H1245 H 0.27401 0.00305 0.56101 0.0
H1246 H 0.27369 0.97658 0.43499 0.0
S1247 S 0.12677 0.98967 0.49914 0.0
N1248 N 0.15333 0.00272 0.56683 0.0
N1249 N 0.153 0.97665 0.43146 0.0
C1250 C 0.18533 0.98234 0.46193 0.0
C1251 C 0.18549 0.99691 0.53583 0.0
C1252 C 0.52266 0.73361 0.00051 0.0
C1253 C 0.50207 0.72512 0.9372 0.0
C1254 C 0.50778 0.73416 0.07267 0.0
C1255 C 0.47192 0.72661 0.08293 0.0
H1256 H 0.55079 0.73737 0.99484 0.0
H1257 H 0.52486 0.73799 0.12089 0.0
S1258 S 0.40589 0.71022 0.93321 0.0
N1259 N 0.4436 0.71366 0.888 0.0
N1260 N 0.41541 0.71586 0.02316 0.0
C1261 C 0.45068 0.72119 0.0193 0.0
C1262 C 0.46585 0.72014 0.94634 0.0
C1263 C 0.2512 0.48804 0.95644 0.0
C1264 C 0.24827 0.52489 0.95522 0.0
C1265 C 0.2524 0.46971 0.02482 0.0
C1266 C 0.25046 0.48757 0.09419 0.0
H1267 H 0.25516 0.47357 0.90463 0.0
H1268 H 0.25676 0.44154 0.02342 0.0
S1269 S 0.23737 0.58352 0.12032 0.0
N1270 N 0.23908 0.57817 0.02819 0.0
N1271 N 0.24184 0.54377 0.15679 0.0
C1272 C 0.24454 0.52405 0.09333 0.0
C1273 C 0.24343 0.54273 0.02368 0.0
C1274 C 0.53761 0.27128 0.9938 0.0
C1275 C 0.51846 0.26402 0.05966 0.0
C1276 C 0.52129 0.27164 0.92306 0.0
C1277 C 0.48532 0.26429 0.91533 0.0
H1278 H 0.56492 0.27925 0.99759 0.0
H1279 H 0.53637 0.28006 0.87485 0.0
S1280 S 0.42398 0.24064 0.06853 0.0
N1281 N 0.46205 0.24694 0.11171 0.0
N1282 N 0.43144 0.24698 0.97806 0.0
C1283 C 0.4664 0.25434 0.97964 0.0
C1284 C 0.48301 0.25418 0.05205 0.0
C1285 C 0.74472 0.45842 0.99463 0.0
C1286 C 0.75133 0.47769 0.92859 0.0
C1287 C 0.74548 0.47462 0.06548 0.0
C1288 C 0.7534 0.51053 0.07267 0.0
H1289 H 0.73698 0.4311 0.99133 0.0
H1290 H 0.73705 0.45969 0.11407 0.0
S1291 S 0.77882 0.5712 0.91951 0.0
N1292 N 0.77067 0.53345 0.87636 0.0
N1293 N 0.77233 0.5639 0.00994 0.0
C1294 C 0.76351 0.52923 0.00826 0.0
C1295 C 0.76263 0.51274 0.93597 0.0
loop_
_geom_bond_atom_site_label_1
_geom_bond_atom_site_label_2
_geom_bond_distance
_geom_bond_site_symmetry_2
_ccdc_geom_bond_type
Co0 O2 2.143 . S
Co0 O8 2.074 . S
Co0 O11 2.093 . S
Co0 O24 2.097 . S
Co0 N41 2.151 . S
Co0 N49 2.214 . S
Co1 O2 2.160 . S
Co1 O7 2.058 . S
Co1 O17 2.057 . S
Co1 O32 2.037 1_455 S
Co1 N36 2.145 . S
Co1 N57 2.257 . S
O2 Co0 2.143 . S
O2 Co1 2.160 . S
C3 O4 1.278 . S
C3 O11 1.224 . S
O4 C3 1.278 . S
C5 O6 1.245 . S
C5 O17 1.232 . S
O6 C5 1.245 . S
O7 Co1 2.058 . S
O7 C33 1.269 . S
O8 Co0 2.074 . S
O8 C33 1.257 . S
H9 C34 0.930 . S
H10 C40 0.930 . S
O11 Co0 2.093 . S
O11 C3 1.224 . S
H12 C44 0.929 . S
H13 C46 0.930 . S
H14 C47 0.930 . S
H15 C45 0.929 . S
H16 C48 0.928 . S
O17 Co1 2.057 . S
O17 C5 1.232 . S
H18 C37 0.929 . S
H19 C38 0.929 . S
H20 C50 0.931 . S
H21 C42 0.929 . S
H22 C51 0.930 . S
H23 C43 0.931 . S
O24 Co0 2.097 . S
O24 C52 1.214 1_455 S
H25 C53 0.929 . S
H26 C54 0.929 1_654 S
H27 C55 0.930 . S
H28 C56 0.929 . S
H29 C58 0.930 . S
H30 C35 0.930 1_455 S
H31 C39 0.930 . S
O32 Co1 2.037 1_655 S
O32 C52 1.234 . S
C33 O7 1.269 . S
C33 O8 1.257 . S
C34 H9 0.930 . S
C34 C37 1.388 . S
C34 C39 1.418 . S
C35 H30 0.930 1_655 S
C35 C38 1.404 1_655 S
C35 C39 1.353 . S
N36 Co1 2.145 . S
N36 C37 1.397 1_455 S
N36 C38 1.334 . S
C37 H18 0.929 . S
C37 C34 1.388 . S
C37 N36 1.397 1_655 S
C38 H19 0.929 . S
C38 C35 1.404 1_455 S
C38 N36 1.334 . S
C39 H31 0.930 . S
C39 C34 1.418 . S
C39 C35 1.353 . S
C40 H10 0.930 . S
C40 N41 1.330 . S
C40 C42 1.446 . S
N41 Co0 2.151 . S
N41 C40 1.330 . S
N41 C45 1.418 . S
C42 H21 0.929 . S
C42 C40 1.446 . S
C42 C43 1.332 . S
C43 H23 0.931 . S
C43 C42 1.332 . S
C43 C44 1.267 . S
C44 H12 0.929 . S
C44 C43 1.267 . S
C44 C45 1.251 . S
C45 H15 0.929 . S
C45 N41 1.418 . S
C45 C44 1.251 . S
C46 H13 0.930 . S
C46 C48 1.406 . S
C46 C51 1.261 1_455 S
C47 H14 0.930 . S
C47 N49 1.325 1_655 S
C47 C50 1.357 . S
C48 H16 0.928 . S
C48 C46 1.406 . S
C48 N49 1.261 . S
N49 Co0 2.214 . S
N49 C47 1.325 1_455 S
N49 C48 1.261 . S
C50 H20 0.931 . S
C50 C47 1.357 . S
C50 C51 1.312 . S
C51 H22 0.930 . S
C51 C46 1.261 1_655 S
C51 C50 1.312 . S
C52 O24 1.214 1_655 S
C52 O32 1.234 . S
C53 H25 0.929 . S
C53 C56 1.391 . S
C53 C58 1.391 1_556 S
C54 H26 0.929 1_456 S
C54 C55 1.390 . S
C54 N57 1.391 1_556 S
C55 H27 0.930 . S
C55 C54 1.390 . S
C55 C56 1.392 . S
C56 H28 0.929 . S
C56 C53 1.391 . S
C56 C55 1.392 . S
N57 Co1 2.257 . S
N57 C54 1.391 1_554 S
N57 C58 1.388 . S
C58 H29 0.930 . S
C58 C53 1.391 1_554 S
C58 N57 1.388 . S
Co59 O61 2.143 . S
Co59 O67 2.074 . S
Co59 O70 2.093 . S
Co59 O83 2.097 . S
Co59 N100 2.151 . S
Co59 N108 2.214 . S
Co60 O61 2.160 . S
Co60 O66 2.058 . S
Co60 O76 2.057 . S
Co60 O91 2.037 1_545 S
Co60 N95 2.145 . S
Co60 N116 2.257 . S
O61 Co59 2.143 . S
O61 Co60 2.160 . S
C62 O63 1.278 . S
C62 O70 1.224 . S
O63 C62 1.278 . S
C64 O65 1.245 . S
C64 O76 1.232 . S
O65 C64 1.245 . S
O66 Co60 2.058 . S
O66 C92 1.269 . S
O67 Co59 2.074 . S
O67 C92 1.257 . S
H68 C93 0.930 . S
H69 C99 0.930 . S
O70 Co59 2.093 . S
O70 C62 1.224 . S
H71 C103 0.929 . S
H72 C105 0.930 . S
H73 C106 0.930 . S
H74 C104 0.929 . S
H75 C107 0.928 . S
O76 Co60 2.057 . S
O76 C64 1.232 . S
H77 C96 0.929 . S
H78 C97 0.929 . S
H79 C109 0.931 . S
H80 C101 0.929 . S
H81 C110 0.930 . S
H82 C102 0.931 . S
O83 Co59 2.097 . S
O83 C111 1.214 1_545 S
H84 C112 0.929 . S
H85 C113 0.929 1_564 S
H86 C114 0.930 . S
H87 C115 0.929 . S
H88 C117 0.930 . S
H89 C94 0.930 1_545 S
H90 C98 0.930 . S
O91 Co60 2.037 1_565 S
O91 C111 1.234 . S
C92 O66 1.269 . S
C92 O67 1.257 . S
C93 H68 0.930 . S
C93 C96 1.388 . S
C93 C98 1.418 . S
C94 H89 0.930 1_565 S
C94 C97 1.404 1_565 S
C94 C98 1.353 . S
N95 Co60 2.145 . S
N95 C96 1.397 1_545 S
N95 C97 1.334 . S
C96 H77 0.929 . S
C96 C93 1.388 . S
C96 N95 1.397 1_565 S
C97 H78 0.929 . S
C97 C94 1.404 1_545 S
C97 N95 1.334 . S
C98 H90 0.930 . S
C98 C93 1.418 . S
C98 C94 1.353 . S
C99 H69 0.930 . S
C99 N100 1.330 . S
C99 C101 1.446 . S
N100 Co59 2.151 . S
N100 C99 1.330 . S
N100 C104 1.418 . S
C101 H80 0.929 . S
C101 C99 1.446 . S
C101 C102 1.332 . S
C102 H82 0.931 . S
C102 C101 1.332 . S
C102 C103 1.267 . S
C103 H71 0.929 . S
C103 C102 1.267 . S
C103 C104 1.251 . S
C104 H74 0.929 . S
C104 N100 1.418 . S
C104 C103 1.251 . S
C105 H72 0.930 . S
C105 C107 1.406 . S
C105 C110 1.261 1_545 S
C106 H73 0.930 . S
C106 N108 1.325 1_565 S
C106 C109 1.357 . S
C107 H75 0.928 . S
C107 C105 1.406 . S
C107 N108 1.261 . S
N108 Co59 2.214 . S
N108 C106 1.325 1_545 S
N108 C107 1.261 . S
C109 H79 0.931 . S
C109 C106 1.357 . S
C109 C110 1.312 . S
C110 H81 0.930 . S
C110 C105 1.261 1_565 S
C110 C109 1.312 . S
C111 O83 1.214 1_565 S
C111 O91 1.234 . S
C112 H84 0.929 . S
C112 C115 1.391 . S
C112 C117 1.391 1_556 S
C113 H85 0.929 1_546 S
C113 C114 1.390 . S
C113 N116 1.391 1_556 S
C114 H86 0.930 . S
C114 C113 1.390 . S
C114 C115 1.392 . S
C115 H87 0.929 . S
C115 C112 1.391 . S
C115 C114 1.392 . S
N116 Co60 2.257 . S
N116 C113 1.391 1_554 S
N116 C117 1.388 . S
C117 H88 0.930 . S
C117 C112 1.391 1_554 S
C117 N116 1.388 . S
Co118 O120 2.143 . S
Co118 O126 2.074 . S
Co118 O129 2.093 . S
Co118 O142 2.097 . S
Co118 N159 2.151 . S
Co118 N167 2.214 . S
Co119 O120 2.160 . S
Co119 O125 2.058 . S
Co119 O135 2.057 . S
Co119 O150 2.037 1_655 S
Co119 N154 2.145 . S
Co119 N175 2.257 . S
O120 Co118 2.143 . S
O120 Co119 2.160 . S
C121 O122 1.278 . S
C121 O129 1.224 . S
O122 C121 1.278 . S
C123 O124 1.245 . S
C123 O135 1.232 . S
O124 C123 1.245 . S
O125 Co119 2.058 . S
O125 C151 1.269 . S
O126 Co118 2.074 . S
O126 C151 1.257 . S
H127 C152 0.930 . S
H128 C158 0.930 . S
O129 Co118 2.093 . S
O129 C121 1.224 . S
H130 C162 0.929 . S
H131 C164 0.930 . S
H132 C165 0.930 . S
H133 C163 0.929 . S
H134 C166 0.928 . S
O135 Co119 2.057 . S
O135 C123 1.232 . S
H136 C155 0.929 . S
H137 C156 0.929 . S
H138 C168 0.931 . S
H139 C160 0.929 . S
H140 C169 0.930 . S
H141 C161 0.931 . S
O142 Co118 2.097 . S
O142 C170 1.214 1_655 S
H143 C171 0.929 . S
H144 C172 0.929 1_454 S
H145 C173 0.930 . S
H146 C174 0.929 . S
H147 C176 0.930 . S
H148 C153 0.930 1_655 S
H149 C157 0.930 . S
O150 Co119 2.037 1_455 S
O150 C170 1.234 . S
C151 O125 1.269 . S
C151 O126 1.257 . S
C152 H127 0.930 . S
C152 C155 1.388 . S
C152 C157 1.418 . S
C153 H148 0.930 1_455 S
C153 C156 1.404 1_455 S
C153 C157 1.353 . S
N154 Co119 2.145 . S
N154 C155 1.397 1_655 S
N154 C156 1.334 . S
C155 H136 0.929 . S
C155 C152 1.388 . S
C155 N154 1.397 1_455 S
C156 H137 0.929 . S
C156 C153 1.404 1_655 S
C156 N154 1.334 . S
C157 H149 0.930 . S
C157 C152 1.418 . S
C157 C153 1.353 . S
C158 H128 0.930 . S
C158 N159 1.330 . S
C158 C160 1.446 . S
N159 Co118 2.151 . S
N159 C158 1.330 . S
N159 C163 1.418 . S
C160 H139 0.929 . S
C160 C158 1.446 . S
C160 C161 1.332 . S
C161 H141 0.931 . S
C161 C160 1.332 . S
C161 C162 1.267 . S
C162 H130 0.929 . S
C162 C161 1.267 . S
C162 C163 1.251 . S
C163 H133 0.929 . S
C163 N159 1.418 . S
C163 C162 1.251 . S
C164 H131 0.930 . S
C164 C166 1.406 . S
C164 C169 1.261 1_655 S
C165 H132 0.930 . S
C165 N167 1.325 1_455 S
C165 C168 1.357 . S
C166 H134 0.928 . S
C166 C164 1.406 . S
C166 N167 1.261 . S
N167 Co118 2.214 . S
N167 C165 1.325 1_655 S
N167 C166 1.261 . S
C168 H138 0.931 . S
C168 C165 1.357 . S
C168 C169 1.312 . S
C169 H140 0.930 . S
C169 C164 1.261 1_455 S
C169 C168 1.312 . S
C170 O142 1.214 1_455 S
C170 O150 1.234 . S
C171 H143 0.929 . S
C171 C174 1.391 . S
C171 C176 1.391 1_556 S
C172 H144 0.929 1_656 S
C172 C173 1.390 . S
C172 N175 1.391 1_556 S
C173 H145 0.930 . S
C173 C172 1.390 . S
C173 C174 1.392 . S
C174 H146 0.929 . S
C174 C171 1.391 . S
C174 C173 1.392 . S
N175 Co119 2.257 . S
N175 C172 1.391 1_554 S
N175 C176 1.388 . S
C176 H147 0.930 . S
C176 C171 1.391 1_554 S
C176 N175 1.388 . S
Co177 O179 2.143 . S
Co177 O185 2.074 . S
Co177 O188 2.093 . S
Co177 O201 2.097 . S
Co177 N218 2.151 . S
Co177 N226 2.214 . S
Co178 O179 2.160 . S
Co178 O184 2.058 . S
Co178 O194 2.057 . S
Co178 O209 2.037 1_565 S
Co178 N213 2.145 . S
Co178 N234 2.257 . S
O179 Co177 2.143 . S
O179 Co178 2.160 . S
C180 O181 1.278 . S
C180 O188 1.224 . S
O181 C180 1.278 . S
C182 O183 1.245 . S
C182 O194 1.232 . S
O183 C182 1.245 . S
O184 Co178 2.058 . S
O184 C210 1.269 . S
O185 Co177 2.074 . S
O185 C210 1.257 . S
H186 C211 0.930 . S
H187 C217 0.930 . S
O188 Co177 2.093 . S
O188 C180 1.224 . S
H189 C221 0.929 . S
H190 C223 0.930 . S
H191 C224 0.930 . S
H192 C222 0.929 . S
H193 C225 0.928 . S
O194 Co178 2.057 . S
O194 C182 1.232 . S
H195 C214 0.929 . S
H196 C215 0.929 . S
H197 C227 0.931 . S
H198 C219 0.929 . S
H199 C228 0.930 . S
H200 C220 0.931 . S
O201 Co177 2.097 . S
O201 C229 1.214 1_565 S
H202 C230 0.929 . S
H203 C231 0.929 1_544 S
H204 C232 0.930 . S
H205 C233 0.929 . S
H206 C235 0.930 . S
H207 C212 0.930 1_565 S
H208 C216 0.930 . S
O209 Co178 2.037 1_545 S
O209 C229 1.234 . S
C210 O184 1.269 . S
C210 O185 1.257 . S
C211 H186 0.930 . S
C211 C214 1.388 . S
C211 C216 1.418 . S
C212 H207 0.930 1_545 S
C212 C215 1.404 1_545 S
C212 C216 1.353 . S
N213 Co178 2.145 . S
N213 C214 1.397 1_565 S
N213 C215 1.334 . S
C214 H195 0.929 . S
C214 C211 1.388 . S
C214 N213 1.397 1_545 S
C215 H196 0.929 . S
C215 C212 1.404 1_565 S
C215 N213 1.334 . S
C216 H208 0.930 . S
C216 C211 1.418 . S
C216 C212 1.353 . S
C217 H187 0.930 . S
C217 N218 1.330 . S
C217 C219 1.446 . S
N218 Co177 2.151 . S
N218 C217 1.330 . S
N218 C222 1.418 . S
C219 H198 0.929 . S
C219 C217 1.446 . S
C219 C220 1.332 . S
C220 H200 0.931 . S
C220 C219 1.332 . S
C220 C221 1.267 . S
C221 H189 0.929 . S
C221 C220 1.267 . S
C221 C222 1.251 . S
C222 H192 0.929 . S
C222 N218 1.418 . S
C222 C221 1.251 . S
C223 H190 0.930 . S
C223 C225 1.406 . S
C223 C228 1.261 1_565 S
C224 H191 0.930 . S
C224 N226 1.325 1_545 S
C224 C227 1.357 . S
C225 H193 0.928 . S
C225 C223 1.406 . S
C225 N226 1.261 . S
N226 Co177 2.214 . S
N226 C224 1.325 1_565 S
N226 C225 1.261 . S
C227 H197 0.931 . S
C227 C224 1.357 . S
C227 C228 1.312 . S
C228 H199 0.930 . S
C228 C223 1.261 1_545 S
C228 C227 1.312 . S
C229 O201 1.214 1_545 S
C229 O209 1.234 . S
C230 H202 0.929 . S
C230 C233 1.391 . S
C230 C235 1.391 1_556 S
C231 H203 0.929 1_566 S
C231 C232 1.390 . S
C231 N234 1.391 1_556 S
C232 H204 0.930 . S
C232 C231 1.390 . S
C232 C233 1.392 . S
C233 H205 0.929 . S
C233 C230 1.391 . S
C233 C232 1.392 . S
N234 Co178 2.257 . S
N234 C231 1.391 1_554 S
N234 C235 1.388 . S
C235 H206 0.930 . S
C235 C230 1.391 1_554 S
C235 N234 1.388 . S
Co236 O238 2.143 . S
Co236 O244 2.074 . S
Co236 O247 2.093 . S
Co236 O260 2.097 . S
Co236 N277 2.151 . S
Co236 N285 2.214 . S
Co237 O238 2.160 . S
Co237 O243 2.058 . S
Co237 O253 2.057 . S
Co237 O268 2.037 1_455 S
Co237 N272 2.145 . S
Co237 N293 2.257 . S
O238 Co236 2.143 . S
O238 Co237 2.160 . S
C239 O240 1.278 . S
C239 O247 1.224 . S
O240 C239 1.278 . S
C241 O242 1.245 . S
C241 O253 1.232 . S
O242 C241 1.245 . S
O243 Co237 2.058 . S
O243 C269 1.269 . S
O244 Co236 2.074 . S
O244 C269 1.257 . S
H245 C270 0.930 . S
H246 C276 0.930 . S
O247 Co236 2.093 . S
O247 C239 1.224 . S
H248 C280 0.929 . S
H249 C282 0.930 . S
H250 C283 0.930 . S
H251 C281 0.929 . S
H252 C284 0.928 . S
O253 Co237 2.057 . S
O253 C241 1.232 . S
H254 C273 0.929 . S
H255 C274 0.929 . S
H256 C286 0.931 . S
H257 C278 0.929 . S
H258 C287 0.930 . S
H259 C279 0.931 . S
O260 Co236 2.097 . S
O260 C288 1.214 1_455 S
H261 C289 0.929 . S
H262 C290 0.929 1_656 S
H263 C291 0.930 . S
H264 C292 0.929 . S
H265 C294 0.930 . S
H266 C271 0.930 1_455 S
H267 C275 0.930 . S
O268 Co237 2.037 1_655 S
O268 C288 1.234 . S
C269 O243 1.269 . S
C269 O244 1.257 . S
C270 H245 0.930 . S
C270 C273 1.388 . S
C270 C275 1.418 . S
C271 H266 0.930 1_655 S
C271 C274 1.404 1_655 S
C271 C275 1.353 . S
N272 Co237 2.145 . S
N272 C273 1.397 1_455 S
N272 C274 1.334 . S
C273 H254 0.929 . S
C273 C270 1.388 . S
C273 N272 1.397 1_655 S
C274 H255 0.929 . S
C274 C271 1.404 1_455 S
C274 N272 1.334 . S
C275 H267 0.930 . S
C275 C270 1.418 . S
C275 C271 1.353 . S
C276 H246 0.930 . S
C276 N277 1.330 . S
C276 C278 1.446 . S
N277 Co236 2.151 . S
N277 C276 1.330 . S
N277 C281 1.418 . S
C278 H257 0.929 . S
C278 C276 1.446 . S
C278 C279 1.332 . S
C279 H259 0.931 . S
C279 C278 1.332 . S
C279 C280 1.267 . S
C280 H248 0.929 . S
C280 C279 1.267 . S
C280 C281 1.251 . S
C281 H251 0.929 . S
C281 N277 1.418 . S
C281 C280 1.251 . S
C282 H249 0.930 . S
C282 C284 1.406 . S
C282 C287 1.261 1_455 S
C283 H250 0.930 . S
C283 N285 1.325 1_655 S
C283 C286 1.357 . S
C284 H252 0.928 . S
C284 C282 1.406 . S
C284 N285 1.261 . S
N285 Co236 2.214 . S
N285 C283 1.325 1_455 S
N285 C284 1.261 . S
C286 H256 0.931 . S
C286 C283 1.357 . S
C286 C287 1.312 . S
C287 H258 0.930 . S
C287 C282 1.261 1_655 S
C287 C286 1.312 . S
C288 O260 1.214 1_655 S
C288 O268 1.234 . S
C289 H261 0.929 . S
C289 C292 1.391 . S
C289 C294 1.391 1_554 S
C290 H262 0.929 1_454 S
C290 C291 1.390 . S
C290 N293 1.391 1_554 S
C291 H263 0.930 . S
C291 C290 1.390 . S
C291 C292 1.392 . S
C292 H264 0.929 . S
C292 C289 1.391 . S
C292 C291 1.392 . S
N293 Co237 2.257 . S
N293 C290 1.391 1_556 S
N293 C294 1.388 . S
C294 H265 0.930 . S
C294 C289 1.391 1_556 S
C294 N293 1.388 . S
Co295 O297 2.143 . S
Co295 O303 2.074 . S
Co295 O306 2.093 . S
Co295 O319 2.097 . S
Co295 N336 2.151 . S
Co295 N344 2.214 . S
Co296 O297 2.160 . S
Co296 O302 2.058 . S
Co296 O312 2.057 . S
Co296 O327 2.037 1_545 S
Co296 N331 2.145 . S
Co296 N352 2.257 . S
O297 Co295 2.143 . S
O297 Co296 2.160 . S
C298 O299 1.278 . S
C298 O306 1.224 . S
O299 C298 1.278 . S
C300 O301 1.245 . S
C300 O312 1.232 . S
O301 C300 1.245 . S
O302 Co296 2.058 . S
O302 C328 1.269 . S
O303 Co295 2.074 . S
O303 C328 1.257 . S
H304 C329 0.930 . S
H305 C335 0.930 . S
O306 Co295 2.093 . S
O306 C298 1.224 . S
H307 C339 0.929 . S
H308 C341 0.930 . S
H309 C342 0.930 . S
H310 C340 0.929 . S
H311 C343 0.928 . S
O312 Co296 2.057 . S
O312 C300 1.232 . S
H313 C332 0.929 . S
H314 C333 0.929 . S
H315 C345 0.931 . S
H316 C337 0.929 . S
H317 C346 0.930 . S
H318 C338 0.931 . S
O319 Co295 2.097 . S
O319 C347 1.214 1_545 S
H320 C348 0.929 . S
H321 C349 0.929 1_566 S
H322 C350 0.930 . S
H323 C351 0.929 . S
H324 C353 0.930 . S
H325 C330 0.930 1_545 S
H326 C334 0.930 . S
O327 Co296 2.037 1_565 S
O327 C347 1.234 . S
C328 O302 1.269 . S
C328 O303 1.257 . S
C329 H304 0.930 . S
C329 C332 1.388 . S
C329 C334 1.418 . S
C330 H325 0.930 1_565 S
C330 C333 1.404 1_565 S
C330 C334 1.353 . S
N331 Co296 2.145 . S
N331 C332 1.397 1_545 S
N331 C333 1.334 . S
C332 H313 0.929 . S
C332 C329 1.388 . S
C332 N331 1.397 1_565 S
C333 H314 0.929 . S
C333 C330 1.404 1_545 S
C333 N331 1.334 . S
C334 H326 0.930 . S
C334 C329 1.418 . S
C334 C330 1.353 . S
C335 H305 0.930 . S
C335 N336 1.330 . S
C335 C337 1.446 . S
N336 Co295 2.151 . S
N336 C335 1.330 . S
N336 C340 1.418 . S
C337 H316 0.929 . S
C337 C335 1.446 . S
C337 C338 1.332 . S
C338 H318 0.931 . S
C338 C337 1.332 . S
C338 C339 1.267 . S
C339 H307 0.929 . S
C339 C338 1.267 . S
C339 C340 1.251 . S
C340 H310 0.929 . S
C340 N336 1.418 . S
C340 C339 1.251 . S
C341 H308 0.930 . S
C341 C343 1.406 . S
C341 C346 1.261 1_545 S
C342 H309 0.930 . S
C342 N344 1.325 1_565 S
C342 C345 1.357 . S
C343 H311 0.928 . S
C343 C341 1.406 . S
C343 N344 1.261 . S
N344 Co295 2.214 . S
N344 C342 1.325 1_545 S
N344 C343 1.261 . S
C345 H315 0.931 . S
C345 C342 1.357 . S
C345 C346 1.312 . S
C346 H317 0.930 . S
C346 C341 1.261 1_565 S
C346 C345 1.312 . S
C347 O319 1.214 1_565 S
C347 O327 1.234 . S
C348 H320 0.929 . S
C348 C351 1.391 . S
C348 C353 1.391 1_554 S
C349 H321 0.929 1_544 S
C349 C350 1.390 . S
C349 N352 1.391 1_554 S
C350 H322 0.930 . S
C350 C349 1.390 . S
C350 C351 1.392 . S
C351 H323 0.929 . S
C351 C348 1.391 . S
C351 C350 1.392 . S
N352 Co296 2.257 . S
N352 C349 1.391 1_556 S
N352 C353 1.388 . S
C353 H324 0.930 . S
C353 C348 1.391 1_556 S
C353 N352 1.388 . S
Co354 O356 2.143 . S
Co354 O362 2.074 . S
Co354 O365 2.093 . S
Co354 O378 2.097 . S
Co354 N395 2.151 . S
Co354 N403 2.214 . S
Co355 O356 2.160 . S
Co355 O361 2.058 . S
Co355 O371 2.057 . S
Co355 O386 2.037 1_655 S
Co355 N390 2.145 . S
Co355 N411 2.257 . S
O356 Co354 2.143 . S
O356 Co355 2.160 . S
C357 O358 1.278 . S
C357 O365 1.224 . S
O358 C357 1.278 . S
C359 O360 1.245 . S
C359 O371 1.232 . S
O360 C359 1.245 . S
O361 Co355 2.058 . S
O361 C387 1.269 . S
O362 Co354 2.074 . S
O362 C387 1.257 . S
H363 C388 0.930 . S
H364 C394 0.930 . S
O365 Co354 2.093 . S
O365 C357 1.224 . S
H366 C398 0.929 . S
H367 C400 0.930 . S
H368 C401 0.930 . S
H369 C399 0.929 . S
H370 C402 0.928 . S
O371 Co355 2.057 . S
O371 C359 1.232 . S
H372 C391 0.929 . S
H373 C392 0.929 . S
H374 C404 0.931 . S
H375 C396 0.929 . S
H376 C405 0.930 . S
H377 C397 0.931 . S
O378 Co354 2.097 . S
O378 C406 1.214 1_655 S
H379 C407 0.929 . S
H380 C408 0.929 1_456 S
H381 C409 0.930 . S
H382 C410 0.929 . S
H383 C412 0.930 . S
H384 C389 0.930 1_655 S
H385 C393 0.930 . S
O386 Co355 2.037 1_455 S
O386 C406 1.234 . S
C387 O361 1.269 . S
C387 O362 1.257 . S
C388 H363 0.930 . S
C388 C391 1.388 . S
C388 C393 1.418 . S
C389 H384 0.930 1_455 S
C389 C392 1.404 1_455 S
C389 C393 1.353 . S
N390 Co355 2.145 . S
N390 C391 1.397 1_655 S
N390 C392 1.334 . S
C391 H372 0.929 . S
C391 C388 1.388 . S
C391 N390 1.397 1_455 S
C392 H373 0.929 . S
C392 C389 1.404 1_655 S
C392 N390 1.334 . S
C393 H385 0.930 . S
C393 C388 1.418 . S
C393 C389 1.353 . S
C394 H364 0.930 . S
C394 N395 1.330 . S
C394 C396 1.446 . S
N395 Co354 2.151 . S
N395 C394 1.330 . S
N395 C399 1.418 . S
C396 H375 0.929 . S
C396 C394 1.446 . S
C396 C397 1.332 . S
C397 H377 0.931 . S
C397 C396 1.332 . S
C397 C398 1.267 . S
C398 H366 0.929 . S
C398 C397 1.267 . S
C398 C399 1.251 . S
C399 H369 0.929 . S
C399 N395 1.418 . S
C399 C398 1.251 . S
C400 H367 0.930 . S
C400 C402 1.406 . S
C400 C405 1.261 1_655 S
C401 H368 0.930 . S
C401 N403 1.325 1_455 S
C401 C404 1.357 . S
C402 H370 0.928 . S
C402 C400 1.406 . S
C402 N403 1.261 . S
N403 Co354 2.214 . S
N403 C401 1.325 1_655 S
N403 C402 1.261 . S
C404 H374 0.931 . S
C404 C401 1.357 . S
C404 C405 1.312 . S
C405 H376 0.930 . S
C405 C400 1.261 1_455 S
C405 C404 1.312 . S
C406 O378 1.214 1_455 S
C406 O386 1.234 . S
C407 H379 0.929 . S
C407 C410 1.391 . S
C407 C412 1.391 1_554 S
C408 H380 0.929 1_654 S
C408 C409 1.390 . S
C408 N411 1.391 1_554 S
C409 H381 0.930 . S
C409 C408 1.390 . S
C409 C410 1.392 . S
C410 H382 0.929 . S
C410 C407 1.391 . S
C410 C409 1.392 . S
N411 Co355 2.257 . S
N411 C408 1.391 1_556 S
N411 C412 1.388 . S
C412 H383 0.930 . S
C412 C407 1.391 1_556 S
C412 N411 1.388 . S
Co413 O415 2.143 . S
Co413 O421 2.074 . S
Co413 O424 2.093 . S
Co413 O437 2.097 . S
Co413 N454 2.151 . S
Co413 N462 2.214 . S
Co414 O415 2.160 . S
Co414 O420 2.058 . S
Co414 O430 2.057 . S
Co414 O445 2.037 1_565 S
Co414 N449 2.145 . S
Co414 N470 2.257 . S
O415 Co413 2.143 . S
O415 Co414 2.160 . S
C416 O417 1.278 . S
C416 O424 1.224 . S
O417 C416 1.278 . S
C418 O419 1.245 . S
C418 O430 1.232 . S
O419 C418 1.245 . S
O420 Co414 2.058 . S
O420 C446 1.269 . S
O421 Co413 2.074 . S
O421 C446 1.257 . S
H422 C447 0.930 . S
H423 C453 0.930 . S
O424 Co413 2.093 . S
O424 C416 1.224 . S
H425 C457 0.929 . S
H426 C459 0.930 . S
H427 C460 0.930 . S
H428 C458 0.929 . S
H429 C461 0.928 . S
O430 Co414 2.057 . S
O430 C418 1.232 . S
H431 C450 0.929 . S
H432 C451 0.929 . S
H433 C463 0.931 . S
H434 C455 0.929 . S
H435 C464 0.930 . S
H436 C456 0.931 . S
O437 Co413 2.097 . S
O437 C465 1.214 1_565 S
H438 C466 0.929 . S
H439 C467 0.929 1_546 S
H440 C468 0.930 . S
H441 C469 0.929 . S
H442 C471 0.930 . S
H443 C448 0.930 1_565 S
H444 C452 0.930 . S
O445 Co414 2.037 1_545 S
O445 C465 1.234 . S
C446 O420 1.269 . S
C446 O421 1.257 . S
C447 H422 0.930 . S
C447 C450 1.388 . S
C447 C452 1.418 . S
C448 H443 0.930 1_545 S
C448 C451 1.404 1_545 S
C448 C452 1.353 . S
N449 Co414 2.145 . S
N449 C450 1.397 1_565 S
N449 C451 1.334 . S
C450 H431 0.929 . S
C450 C447 1.388 . S
C450 N449 1.397 1_545 S
C451 H432 0.929 . S
C451 C448 1.404 1_565 S
C451 N449 1.334 . S
C452 H444 0.930 . S
C452 C447 1.418 . S
C452 C448 1.353 . S
C453 H423 0.930 . S
C453 N454 1.330 . S
C453 C455 1.446 . S
N454 Co413 2.151 . S
N454 C453 1.330 . S
N454 C458 1.418 . S
C455 H434 0.929 . S
C455 C453 1.446 . S
C455 C456 1.332 . S
C456 H436 0.931 . S
C456 C455 1.332 . S
C456 C457 1.267 . S
C457 H425 0.929 . S
C457 C456 1.267 . S
C457 C458 1.251 . S
C458 H428 0.929 . S
C458 N454 1.418 . S
C458 C457 1.251 . S
C459 H426 0.930 . S
C459 C461 1.406 . S
C459 C464 1.261 1_565 S
C460 H427 0.930 . S
C460 N462 1.325 1_545 S
C460 C463 1.357 . S
C461 H429 0.928 . S
C461 C459 1.406 . S
C461 N462 1.261 . S
N462 Co413 2.214 . S
N462 C460 1.325 1_565 S
N462 C461 1.261 . S
C463 H433 0.931 . S
C463 C460 1.357 . S
C463 C464 1.312 . S
C464 H435 0.930 . S
C464 C459 1.261 1_545 S
C464 C463 1.312 . S
C465 O437 1.214 1_545 S
C465 O445 1.234 . S
C466 H438 0.929 . S
C466 C469 1.391 . S
C466 C471 1.391 1_554 S
C467 H439 0.929 1_564 S
C467 C468 1.390 . S
C467 N470 1.391 1_554 S
C468 H440 0.930 . S
C468 C467 1.390 . S
C468 C469 1.392 . S
C469 H441 0.929 . S
C469 C466 1.391 . S
C469 C468 1.392 . S
N470 Co414 2.257 . S
N470 C467 1.391 1_556 S
N470 C471 1.388 . S
C471 H442 0.930 . S
C471 C466 1.391 1_556 S
C471 N470 1.388 . S
Co472 O474 2.143 . S
Co472 O480 2.074 . S
Co472 O483 2.093 . S
Co472 O496 2.097 . S
Co472 N513 2.151 . S
Co472 N521 2.214 . S
Co473 O474 2.160 . S
Co473 O479 2.058 . S
Co473 O489 2.057 . S
Co473 O504 2.037 . S
Co473 N508 2.145 . S
Co473 N529 2.257 . S
O474 Co472 2.143 . S
O474 Co473 2.160 . S
C475 O476 1.278 . S
C475 O483 1.224 . S
O476 C475 1.278 . S
C477 O478 1.245 . S
C477 O489 1.232 . S
O478 C477 1.245 . S
O479 Co473 2.058 . S
O479 C505 1.269 . S
O480 Co472 2.074 . S
O480 C505 1.257 . S
H481 C506 0.930 . S
H482 C512 0.930 . S
O483 Co472 2.093 . S
O483 C475 1.224 . S
H484 C516 0.929 1_554 S
H485 C518 0.930 . S
H486 C519 0.930 . S
H487 C517 0.929 . S
H488 C520 0.928 . S
O489 Co473 2.057 . S
O489 C477 1.232 . S
H490 C509 0.929 . S
H491 C510 0.929 . S
H492 C522 0.931 . S
H493 C514 0.929 . S
H494 C523 0.930 . S
H495 C515 0.931 . S
O496 Co472 2.097 . S
O496 C524 1.214 . S
H497 C525 0.929 . S
H498 C526 0.929 . S
H499 C527 0.930 . S
H500 C528 0.929 . S
H501 C530 0.930 . S
H502 C507 0.930 . S
H503 C511 0.930 . S
O504 Co473 2.037 . S
O504 C524 1.234 . S
C505 O479 1.269 . S
C505 O480 1.257 . S
C506 H481 0.930 . S
C506 C509 1.388 . S
C506 C511 1.418 . S
C507 H502 0.930 . S
C507 C510 1.404 . S
C507 C511 1.353 . S
N508 Co473 2.145 . S
N508 C509 1.397 . S
N508 C510 1.334 . S
C509 H490 0.929 . S
C509 C506 1.388 . S
C509 N508 1.397 . S
C510 H491 0.929 . S
C510 C507 1.404 . S
C510 N508 1.334 . S
C511 H503 0.930 . S
C511 C506 1.418 . S
C511 C507 1.353 . S
C512 H482 0.930 . S
C512 N513 1.330 . S
C512 C514 1.446 . S
N513 Co472 2.151 . S
N513 C512 1.330 . S
N513 C517 1.418 . S
C514 H493 0.929 . S
C514 C512 1.446 . S
C514 C515 1.332 . S
C515 H495 0.931 . S
C515 C514 1.332 . S
C515 C516 1.267 . S
C516 H484 0.929 1_556 S
C516 C515 1.267 . S
C516 C517 1.251 . S
C517 H487 0.929 . S
C517 N513 1.418 . S
C517 C516 1.251 . S
C518 H485 0.930 . S
C518 C520 1.406 . S
C518 C523 1.261 . S
C519 H486 0.930 . S
C519 N521 1.325 . S
C519 C522 1.357 . S
C520 H488 0.928 . S
C520 C518 1.406 . S
C520 N521 1.261 . S
N521 Co472 2.214 . S
N521 C519 1.325 . S
N521 C520 1.261 . S
C522 H492 0.931 . S
C522 C519 1.357 . S
C522 C523 1.312 . S
C523 H494 0.930 . S
C523 C518 1.261 . S
C523 C522 1.312 . S
C524 O496 1.214 . S
C524 O504 1.234 . S
C525 H497 0.929 . S
C525 C528 1.391 . S
C525 C530 1.391 . S
C526 H498 0.929 . S
C526 C527 1.390 . S
C526 N529 1.391 . S
C527 H499 0.930 . S
C527 C526 1.390 . S
C527 C528 1.392 . S
C528 H500 0.929 . S
C528 C525 1.391 . S
C528 C527 1.392 . S
N529 Co473 2.257 . S
N529 C526 1.391 . S
N529 C530 1.388 . S
C530 H501 0.930 . S
C530 C525 1.391 . S
C530 N529 1.388 . S
Co531 O533 2.143 . S
Co531 O539 2.074 . S
Co531 O542 2.093 . S
Co531 O555 2.097 . S
Co531 N572 2.151 . S
Co531 N580 2.214 . S
Co532 O533 2.160 . S
Co532 O538 2.058 . S
Co532 O548 2.057 . S
Co532 O563 2.037 . S
Co532 N567 2.145 . S
Co532 N588 2.257 . S
O533 Co531 2.143 . S
O533 Co532 2.160 . S
C534 O535 1.278 . S
C534 O542 1.224 . S
O535 C534 1.278 . S
C536 O537 1.245 . S
C536 O548 1.232 . S
O537 C536 1.245 . S
O538 Co532 2.058 . S
O538 C564 1.269 . S
O539 Co531 2.074 . S
O539 C564 1.257 . S
H540 C565 0.930 . S
H541 C571 0.930 . S
O542 Co531 2.093 . S
O542 C534 1.224 . S
H543 C575 0.929 1_554 S
H544 C577 0.930 . S
H545 C578 0.930 . S
H546 C576 0.929 . S
H547 C579 0.928 . S
O548 Co532 2.057 . S
O548 C536 1.232 . S
H549 C568 0.929 . S
H550 C569 0.929 . S
H551 C581 0.931 . S
H552 C573 0.929 . S
H553 C582 0.930 . S
H554 C574 0.931 . S
O555 Co531 2.097 . S
O555 C583 1.214 . S
H556 C584 0.929 . S
H557 C585 0.929 . S
H558 C586 0.930 . S
H559 C587 0.929 . S
H560 C589 0.930 . S
H561 C566 0.930 . S
H562 C570 0.930 . S
O563 Co532 2.037 . S
O563 C583 1.234 . S
C564 O538 1.269 . S
C564 O539 1.257 . S
C565 H540 0.930 . S
C565 C568 1.388 . S
C565 C570 1.418 . S
C566 H561 0.930 . S
C566 C569 1.404 . S
C566 C570 1.353 . S
N567 Co532 2.145 . S
N567 C568 1.397 . S
N567 C569 1.334 . S
C568 H549 0.929 . S
C568 C565 1.388 . S
C568 N567 1.397 . S
C569 H550 0.929 . S
C569 C566 1.404 . S
C569 N567 1.334 . S
C570 H562 0.930 . S
C570 C565 1.418 . S
C570 C566 1.353 . S
C571 H541 0.930 . S
C571 N572 1.330 . S
C571 C573 1.446 . S
N572 Co531 2.151 . S
N572 C571 1.330 . S
N572 C576 1.418 . S
C573 H552 0.929 . S
C573 C571 1.446 . S
C573 C574 1.332 . S
C574 H554 0.931 . S
C574 C573 1.332 . S
C574 C575 1.267 . S
C575 H543 0.929 1_556 S
C575 C574 1.267 . S
C575 C576 1.251 . S
C576 H546 0.929 . S
C576 N572 1.418 . S
C576 C575 1.251 . S
C577 H544 0.930 . S
C577 C579 1.406 . S
C577 C582 1.261 . S
C578 H545 0.930 . S
C578 N580 1.325 . S
C578 C581 1.357 . S
C579 H547 0.928 . S
C579 C577 1.406 . S
C579 N580 1.261 . S
N580 Co531 2.214 . S
N580 C578 1.325 . S
N580 C579 1.261 . S
C581 H551 0.931 . S
C581 C578 1.357 . S
C581 C582 1.312 . S
C582 H553 0.930 . S
C582 C577 1.261 . S
C582 C581 1.312 . S
C583 O555 1.214 . S
C583 O563 1.234 . S
C584 H556 0.929 . S
C584 C587 1.391 . S
C584 C589 1.391 . S
C585 H557 0.929 . S
C585 C586 1.390 . S
C585 N588 1.391 . S
C586 H558 0.930 . S
C586 C585 1.390 . S
C586 C587 1.392 . S
C587 H559 0.929 . S
C587 C584 1.391 . S
C587 C586 1.392 . S
N588 Co532 2.257 . S
N588 C585 1.391 . S
N588 C589 1.388 . S
C589 H560 0.930 . S
C589 C584 1.391 . S
C589 N588 1.388 . S
Co590 O592 2.143 . S
Co590 O598 2.074 . S
Co590 O601 2.093 . S
Co590 O614 2.097 . S
Co590 N631 2.151 . S
Co590 N639 2.214 . S
Co591 O592 2.160 . S
Co591 O597 2.058 . S
Co591 O607 2.057 . S
Co591 O622 2.037 . S
Co591 N626 2.145 . S
Co591 N647 2.257 . S
O592 Co590 2.143 . S
O592 Co591 2.160 . S
C593 O594 1.278 . S
C593 O601 1.224 . S
O594 C593 1.278 . S
C595 O596 1.245 . S
C595 O607 1.232 . S
O596 C595 1.245 . S
O597 Co591 2.058 . S
O597 C623 1.269 . S
O598 Co590 2.074 . S
O598 C623 1.257 . S
H599 C624 0.930 . S
H600 C630 0.930 . S
O601 Co590 2.093 . S
O601 C593 1.224 . S
H602 C634 0.929 1_554 S
H603 C636 0.930 . S
H604 C637 0.930 . S
H605 C635 0.929 . S
H606 C638 0.928 . S
O607 Co591 2.057 . S
O607 C595 1.232 . S
H608 C627 0.929 . S
H609 C628 0.929 . S
H610 C640 0.931 . S
H611 C632 0.929 . S
H612 C641 0.930 . S
H613 C633 0.931 . S
O614 Co590 2.097 . S
O614 C642 1.214 . S
H615 C643 0.929 . S
H616 C644 0.929 . S
H617 C645 0.930 . S
H618 C646 0.929 . S
H619 C648 0.930 . S
H620 C625 0.930 . S
H621 C629 0.930 . S
O622 Co591 2.037 . S
O622 C642 1.234 . S
C623 O597 1.269 . S
C623 O598 1.257 . S
C624 H599 0.930 . S
C624 C627 1.388 . S
C624 C629 1.418 . S
C625 H620 0.930 . S
C625 C628 1.404 . S
C625 C629 1.353 . S
N626 Co591 2.145 . S
N626 C627 1.397 . S
N626 C628 1.334 . S
C627 H608 0.929 . S
C627 C624 1.388 . S
C627 N626 1.397 . S
C628 H609 0.929 . S
C628 C625 1.404 . S
C628 N626 1.334 . S
C629 H621 0.930 . S
C629 C624 1.418 . S
C629 C625 1.353 . S
C630 H600 0.930 . S
C630 N631 1.330 . S
C630 C632 1.446 . S
N631 Co590 2.151 . S
N631 C630 1.330 . S
N631 C635 1.418 . S
C632 H611 0.929 . S
C632 C630 1.446 . S
C632 C633 1.332 . S
C633 H613 0.931 . S
C633 C632 1.332 . S
C633 C634 1.267 . S
C634 H602 0.929 1_556 S
C634 C633 1.267 . S
C634 C635 1.251 . S
C635 H605 0.929 . S
C635 N631 1.418 . S
C635 C634 1.251 . S
C636 H603 0.930 . S
C636 C638 1.406 . S
C636 C641 1.261 . S
C637 H604 0.930 . S
C637 N639 1.325 . S
C637 C640 1.357 . S
C638 H606 0.928 . S
C638 C636 1.406 . S
C638 N639 1.261 . S
N639 Co590 2.214 . S
N639 C637 1.325 . S
N639 C638 1.261 . S
C640 H610 0.931 . S
C640 C637 1.357 . S
C640 C641 1.312 . S
C641 H612 0.930 . S
C641 C636 1.261 . S
C641 C640 1.312 . S
C642 O614 1.214 . S
C642 O622 1.234 . S
C643 H615 0.929 . S
C643 C646 1.391 . S
C643 C648 1.391 . S
C644 H616 0.929 . S
C644 C645 1.390 . S
C644 N647 1.391 . S
C645 H617 0.930 . S
C645 C644 1.390 . S
C645 C646 1.392 . S
C646 H618 0.929 . S
C646 C643 1.391 . S
C646 C645 1.392 . S
N647 Co591 2.257 . S
N647 C644 1.391 . S
N647 C648 1.388 . S
C648 H619 0.930 . S
C648 C643 1.391 . S
C648 N647 1.388 . S
Co649 O651 2.143 . S
Co649 O657 2.074 . S
Co649 O660 2.093 . S
Co649 O673 2.097 . S
Co649 N690 2.151 . S
Co649 N698 2.214 . S
Co650 O651 2.160 . S
Co650 O656 2.058 . S
Co650 O666 2.057 . S
Co650 O681 2.037 . S
Co650 N685 2.145 . S
Co650 N706 2.257 . S
O651 Co649 2.143 . S
O651 Co650 2.160 . S
C652 O653 1.278 . S
C652 O660 1.224 . S
O653 C652 1.278 . S
C654 O655 1.245 . S
C654 O666 1.232 . S
O655 C654 1.245 . S
O656 Co650 2.058 . S
O656 C682 1.269 . S
O657 Co649 2.074 . S
O657 C682 1.257 . S
H658 C683 0.930 . S
H659 C689 0.930 . S
O660 Co649 2.093 . S
O660 C652 1.224 . S
H661 C693 0.929 1_554 S
H662 C695 0.930 . S
H663 C696 0.930 . S
H664 C694 0.929 . S
H665 C697 0.928 . S
O666 Co650 2.057 . S
O666 C654 1.232 . S
H667 C686 0.929 . S
H668 C687 0.929 . S
H669 C699 0.931 . S
H670 C691 0.929 . S
H671 C700 0.930 . S
H672 C692 0.931 . S
O673 Co649 2.097 . S
O673 C701 1.214 . S
H674 C702 0.929 . S
H675 C703 0.929 . S
H676 C704 0.930 . S
H677 C705 0.929 . S
H678 C707 0.930 . S
H679 C684 0.930 . S
H680 C688 0.930 . S
O681 Co650 2.037 . S
O681 C701 1.234 . S
C682 O656 1.269 . S
C682 O657 1.257 . S
C683 H658 0.930 . S
C683 C686 1.388 . S
C683 C688 1.418 . S
C684 H679 0.930 . S
C684 C687 1.404 . S
C684 C688 1.353 . S
N685 Co650 2.145 . S
N685 C686 1.397 . S
N685 C687 1.334 . S
C686 H667 0.929 . S
C686 C683 1.388 . S
C686 N685 1.397 . S
C687 H668 0.929 . S
C687 C684 1.404 . S
C687 N685 1.334 . S
C688 H680 0.930 . S
C688 C683 1.418 . S
C688 C684 1.353 . S
C689 H659 0.930 . S
C689 N690 1.330 . S
C689 C691 1.446 . S
N690 Co649 2.151 . S
N690 C689 1.330 . S
N690 C694 1.418 . S
C691 H670 0.929 . S
C691 C689 1.446 . S
C691 C692 1.332 . S
C692 H672 0.931 . S
C692 C691 1.332 . S
C692 C693 1.267 . S
C693 H661 0.929 1_556 S
C693 C692 1.267 . S
C693 C694 1.251 . S
C694 H664 0.929 . S
C694 N690 1.418 . S
C694 C693 1.251 . S
C695 H662 0.930 . S
C695 C697 1.406 . S
C695 C700 1.261 . S
C696 H663 0.930 . S
C696 N698 1.325 . S
C696 C699 1.357 . S
C697 H665 0.928 . S
C697 C695 1.406 . S
C697 N698 1.261 . S
N698 Co649 2.214 . S
N698 C696 1.325 . S
N698 C697 1.261 . S
C699 H669 0.931 . S
C699 C696 1.357 . S
C699 C700 1.312 . S
C700 H671 0.930 . S
C700 C695 1.261 . S
C700 C699 1.312 . S
C701 O673 1.214 . S
C701 O681 1.234 . S
C702 H674 0.929 . S
C702 C705 1.391 . S
C702 C707 1.391 . S
C703 H675 0.929 . S
C703 C704 1.390 . S
C703 N706 1.391 . S
C704 H676 0.930 . S
C704 C703 1.390 . S
C704 C705 1.392 . S
C705 H677 0.929 . S
C705 C702 1.391 . S
C705 C704 1.392 . S
N706 Co650 2.257 . S
N706 C703 1.391 . S
N706 C707 1.388 . S
C707 H678 0.930 . S
C707 C702 1.391 . S
C707 N706 1.388 . S
Co708 O710 2.143 . S
Co708 O716 2.074 . S
Co708 O719 2.093 . S
Co708 O732 2.097 . S
Co708 N749 2.151 . S
Co708 N757 2.214 . S
Co709 O710 2.160 . S
Co709 O715 2.058 . S
Co709 O725 2.057 . S
Co709 O740 2.037 . S
Co709 N744 2.145 . S
Co709 N765 2.257 . S
O710 Co708 2.143 . S
O710 Co709 2.160 . S
C711 O712 1.278 . S
C711 O719 1.224 . S
O712 C711 1.278 . S
C713 O714 1.245 . S
C713 O725 1.232 . S
O714 C713 1.245 . S
O715 Co709 2.058 . S
O715 C741 1.269 . S
O716 Co708 2.074 . S
O716 C741 1.257 . S
H717 C742 0.930 . S
H718 C748 0.930 . S
O719 Co708 2.093 . S
O719 C711 1.224 . S
H720 C752 0.929 1_556 S
H721 C754 0.930 . S
H722 C755 0.930 . S
H723 C753 0.929 . S
H724 C756 0.928 . S
O725 Co709 2.057 . S
O725 C713 1.232 . S
H726 C745 0.929 . S
H727 C746 0.929 . S
H728 C758 0.931 . S
H729 C750 0.929 . S
H730 C759 0.930 . S
H731 C751 0.931 . S
O732 Co708 2.097 . S
O732 C760 1.214 . S
H733 C761 0.929 . S
H734 C762 0.929 . S
H735 C763 0.930 . S
H736 C764 0.929 . S
H737 C766 0.930 . S
H738 C743 0.930 . S
H739 C747 0.930 . S
O740 Co709 2.037 . S
O740 C760 1.234 . S
C741 O715 1.269 . S
C741 O716 1.257 . S
C742 H717 0.930 . S
C742 C745 1.388 . S
C742 C747 1.418 . S
C743 H738 0.930 . S
C743 C746 1.404 . S
C743 C747 1.353 . S
N744 Co709 2.145 . S
N744 C745 1.397 . S
N744 C746 1.334 . S
C745 H726 0.929 . S
C745 C742 1.388 . S
C745 N744 1.397 . S
C746 H727 0.929 . S
C746 C743 1.404 . S
C746 N744 1.334 . S
C747 H739 0.930 . S
C747 C742 1.418 . S
C747 C743 1.353 . S
C748 H718 0.930 . S
C748 N749 1.330 . S
C748 C750 1.446 . S
N749 Co708 2.151 . S
N749 C748 1.330 . S
N749 C753 1.418 . S
C750 H729 0.929 . S
C750 C748 1.446 . S
C750 C751 1.332 . S
C751 H731 0.931 . S
C751 C750 1.332 . S
C751 C752 1.267 . S
C752 H720 0.929 1_554 S
C752 C751 1.267 . S
C752 C753 1.251 . S
C753 H723 0.929 . S
C753 N749 1.418 . S
C753 C752 1.251 . S
C754 H721 0.930 . S
C754 C756 1.406 . S
C754 C759 1.261 . S
C755 H722 0.930 . S
C755 N757 1.325 . S
C755 C758 1.357 . S
C756 H724 0.928 . S
C756 C754 1.406 . S
C756 N757 1.261 . S
N757 Co708 2.214 . S
N757 C755 1.325 . S
N757 C756 1.261 . S
C758 H728 0.931 . S
C758 C755 1.357 . S
C758 C759 1.312 . S
C759 H730 0.930 . S
C759 C754 1.261 . S
C759 C758 1.312 . S
C760 O732 1.214 . S
C760 O740 1.234 . S
C761 H733 0.929 . S
C761 C764 1.391 . S
C761 C766 1.391 . S
C762 H734 0.929 . S
C762 C763 1.390 . S
C762 N765 1.391 . S
C763 H735 0.930 . S
C763 C762 1.390 . S
C763 C764 1.392 . S
C764 H736 0.929 . S
C764 C761 1.391 . S
C764 C763 1.392 . S
N765 Co709 2.257 . S
N765 C762 1.391 . S
N765 C766 1.388 . S
C766 H737 0.930 . S
C766 C761 1.391 . S
C766 N765 1.388 . S
Co767 O769 2.143 . S
Co767 O775 2.074 . S
Co767 O778 2.093 . S
Co767 O791 2.097 . S
Co767 N808 2.151 . S
Co767 N816 2.214 . S
Co768 O769 2.160 . S
Co768 O774 2.058 . S
Co768 O784 2.057 . S
Co768 O799 2.037 . S
Co768 N803 2.145 . S
Co768 N824 2.257 . S
O769 Co767 2.143 . S
O769 Co768 2.160 . S
C770 O771 1.278 . S
C770 O778 1.224 . S
O771 C770 1.278 . S
C772 O773 1.245 . S
C772 O784 1.232 . S
O773 C772 1.245 . S
O774 Co768 2.058 . S
O774 C800 1.269 . S
O775 Co767 2.074 . S
O775 C800 1.257 . S
H776 C801 0.930 . S
H777 C807 0.930 . S
O778 Co767 2.093 . S
O778 C770 1.224 . S
H779 C811 0.929 1_556 S
H780 C813 0.930 . S
H781 C814 0.930 . S
H782 C812 0.929 . S
H783 C815 0.928 . S
O784 Co768 2.057 . S
O784 C772 1.232 . S
H785 C804 0.929 . S
H786 C805 0.929 . S
H787 C817 0.931 . S
H788 C809 0.929 . S
H789 C818 0.930 . S
H790 C810 0.931 . S
O791 Co767 2.097 . S
O791 C819 1.214 . S
H792 C820 0.929 . S
H793 C821 0.929 . S
H794 C822 0.930 . S
H795 C823 0.929 . S
H796 C825 0.930 . S
H797 C802 0.930 . S
H798 C806 0.930 . S
O799 Co768 2.037 . S
O799 C819 1.234 . S
C800 O774 1.269 . S
C800 O775 1.257 . S
C801 H776 0.930 . S
C801 C804 1.388 . S
C801 C806 1.418 . S
C802 H797 0.930 . S
C802 C805 1.404 . S
C802 C806 1.353 . S
N803 Co768 2.145 . S
N803 C804 1.397 . S
N803 C805 1.334 . S
C804 H785 0.929 . S
C804 C801 1.388 . S
C804 N803 1.397 . S
C805 H786 0.929 . S
C805 C802 1.404 . S
C805 N803 1.334 . S
C806 H798 0.930 . S
C806 C801 1.418 . S
C806 C802 1.353 . S
C807 H777 0.930 . S
C807 N808 1.330 . S
C807 C809 1.446 . S
N808 Co767 2.151 . S
N808 C807 1.330 . S
N808 C812 1.418 . S
C809 H788 0.929 . S
C809 C807 1.446 . S
C809 C810 1.332 . S
C810 H790 0.931 . S
C810 C809 1.332 . S
C810 C811 1.267 . S
C811 H779 0.929 1_554 S
C811 C810 1.267 . S
C811 C812 1.251 . S
C812 H782 0.929 . S
C812 N808 1.418 . S
C812 C811 1.251 . S
C813 H780 0.930 . S
C813 C815 1.406 . S
C813 C818 1.261 . S
C814 H781 0.930 . S
C814 N816 1.325 . S
C814 C817 1.357 . S
C815 H783 0.928 . S
C815 C813 1.406 . S
C815 N816 1.261 . S
N816 Co767 2.214 . S
N816 C814 1.325 . S
N816 C815 1.261 . S
C817 H787 0.931 . S
C817 C814 1.357 . S
C817 C818 1.312 . S
C818 H789 0.930 . S
C818 C813 1.261 . S
C818 C817 1.312 . S
C819 O791 1.214 . S
C819 O799 1.234 . S
C820 H792 0.929 . S
C820 C823 1.391 . S
C820 C825 1.391 . S
C821 H793 0.929 . S
C821 C822 1.390 . S
C821 N824 1.391 . S
C822 H794 0.930 . S
C822 C821 1.390 . S
C822 C823 1.392 . S
C823 H795 0.929 . S
C823 C820 1.391 . S
C823 C822 1.392 . S
N824 Co768 2.257 . S
N824 C821 1.391 . S
N824 C825 1.388 . S
C825 H796 0.930 . S
C825 C820 1.391 . S
C825 N824 1.388 . S
Co826 O828 2.143 . S
Co826 O834 2.074 . S
Co826 O837 2.093 . S
Co826 O850 2.097 . S
Co826 N867 2.151 . S
Co826 N875 2.214 . S
Co827 O828 2.160 . S
Co827 O833 2.058 . S
Co827 O843 2.057 . S
Co827 O858 2.037 . S
Co827 N862 2.145 . S
Co827 N883 2.257 . S
O828 Co826 2.143 . S
O828 Co827 2.160 . S
C829 O830 1.278 . S
C829 O837 1.224 . S
O830 C829 1.278 . S
C831 O832 1.245 . S
C831 O843 1.232 . S
O832 C831 1.245 . S
O833 Co827 2.058 . S
O833 C859 1.269 . S
O834 Co826 2.074 . S
O834 C859 1.257 . S
H835 C860 0.930 . S
H836 C866 0.930 . S
O837 Co826 2.093 . S
O837 C829 1.224 . S
H838 C870 0.929 1_556 S
H839 C872 0.930 . S
H840 C873 0.930 . S
H841 C871 0.929 . S
H842 C874 0.928 . S
O843 Co827 2.057 . S
O843 C831 1.232 . S
H844 C863 0.929 . S
H845 C864 0.929 . S
H846 C876 0.931 . S
H847 C868 0.929 . S
H848 C877 0.930 . S
H849 C869 0.931 . S
O850 Co826 2.097 . S
O850 C878 1.214 . S
H851 C879 0.929 . S
H852 C880 0.929 . S
H853 C881 0.930 . S
H854 C882 0.929 . S
H855 C884 0.930 . S
H856 C861 0.930 . S
H857 C865 0.930 . S
O858 Co827 2.037 . S
O858 C878 1.234 . S
C859 O833 1.269 . S
C859 O834 1.257 . S
C860 H835 0.930 . S
C860 C863 1.388 . S
C860 C865 1.418 . S
C861 H856 0.930 . S
C861 C864 1.404 . S
C861 C865 1.353 . S
N862 Co827 2.145 . S
N862 C863 1.397 . S
N862 C864 1.334 . S
C863 H844 0.929 . S
C863 C860 1.388 . S
C863 N862 1.397 . S
C864 H845 0.929 . S
C864 C861 1.404 . S
C864 N862 1.334 . S
C865 H857 0.930 . S
C865 C860 1.418 . S
C865 C861 1.353 . S
C866 H836 0.930 . S
C866 N867 1.330 . S
C866 C868 1.446 . S
N867 Co826 2.151 . S
N867 C866 1.330 . S
N867 C871 1.418 . S
C868 H847 0.929 . S
C868 C866 1.446 . S
C868 C869 1.332 . S
C869 H849 0.931 . S
C869 C868 1.332 . S
C869 C870 1.267 . S
C870 H838 0.929 1_554 S
C870 C869 1.267 . S
C870 C871 1.251 . S
C871 H841 0.929 . S
C871 N867 1.418 . S
C871 C870 1.251 . S
C872 H839 0.930 . S
C872 C874 1.406 . S
C872 C877 1.261 . S
C873 H840 0.930 . S
C873 N875 1.325 . S
C873 C876 1.357 . S
C874 H842 0.928 . S
C874 C872 1.406 . S
C874 N875 1.261 . S
N875 Co826 2.214 . S
N875 C873 1.325 . S
N875 C874 1.261 . S
C876 H846 0.931 . S
C876 C873 1.357 . S
C876 C877 1.312 . S
C877 H848 0.930 . S
C877 C872 1.261 . S
C877 C876 1.312 . S
C878 O850 1.214 . S
C878 O858 1.234 . S
C879 H851 0.929 . S
C879 C882 1.391 . S
C879 C884 1.391 . S
C880 H852 0.929 . S
C880 C881 1.390 . S
C880 N883 1.391 . S
C881 H853 0.930 . S
C881 C880 1.390 . S
C881 C882 1.392 . S
C882 H854 0.929 . S
C882 C879 1.391 . S
C882 C881 1.392 . S
N883 Co827 2.257 . S
N883 C880 1.391 . S
N883 C884 1.388 . S
C884 H855 0.930 . S
C884 C879 1.391 . S
C884 N883 1.388 . S
Co885 O887 2.143 . S
Co885 O893 2.074 . S
Co885 O896 2.093 . S
Co885 O909 2.097 . S
Co885 N926 2.151 . S
Co885 N934 2.214 . S
Co886 O887 2.160 . S
Co886 O892 2.058 . S
Co886 O902 2.057 . S
Co886 O917 2.037 . S
Co886 N921 2.145 . S
Co886 N942 2.257 . S
O887 Co885 2.143 . S
O887 Co886 2.160 . S
C888 O889 1.278 . S
C888 O896 1.224 . S
O889 C888 1.278 . S
C890 O891 1.245 . S
C890 O902 1.232 . S
O891 C890 1.245 . S
O892 Co886 2.058 . S
O892 C918 1.269 . S
O893 Co885 2.074 . S
O893 C918 1.257 . S
H894 C919 0.930 . S
H895 C925 0.930 . S
O896 Co885 2.093 . S
O896 C888 1.224 . S
H897 C929 0.929 1_556 S
H898 C931 0.930 . S
H899 C932 0.930 . S
H900 C930 0.929 . S
H901 C933 0.928 . S
O902 Co886 2.057 . S
O902 C890 1.232 . S
H903 C922 0.929 . S
H904 C923 0.929 . S
H905 C935 0.931 . S
H906 C927 0.929 . S
H907 C936 0.930 . S
H908 C928 0.931 . S
O909 Co885 2.097 . S
O909 C937 1.214 . S
H910 C938 0.929 . S
H911 C939 0.929 . S
H912 C940 0.930 . S
H913 C941 0.929 . S
H914 C943 0.930 . S
H915 C920 0.930 . S
H916 C924 0.930 . S
O917 Co886 2.037 . S
O917 C937 1.234 . S
C918 O892 1.269 . S
C918 O893 1.257 . S
C919 H894 0.930 . S
C919 C922 1.388 . S
C919 C924 1.418 . S
C920 H915 0.930 . S
C920 C923 1.404 . S
C920 C924 1.353 . S
N921 Co886 2.145 . S
N921 C922 1.397 . S
N921 C923 1.334 . S
C922 H903 0.929 . S
C922 C919 1.388 . S
C922 N921 1.397 . S
C923 H904 0.929 . S
C923 C920 1.404 . S
C923 N921 1.334 . S
C924 H916 0.930 . S
C924 C919 1.418 . S
C924 C920 1.353 . S
C925 H895 0.930 . S
C925 N926 1.330 . S
C925 C927 1.446 . S
N926 Co885 2.151 . S
N926 C925 1.330 . S
N926 C930 1.418 . S
C927 H906 0.929 . S
C927 C925 1.446 . S
C927 C928 1.332 . S
C928 H908 0.931 . S
C928 C927 1.332 . S
C928 C929 1.267 . S
C929 H897 0.929 1_554 S
C929 C928 1.267 . S
C929 C930 1.251 . S
C930 H900 0.929 . S
C930 N926 1.418 . S
C930 C929 1.251 . S
C931 H898 0.930 . S
C931 C933 1.406 . S
C931 C936 1.261 . S
C932 H899 0.930 . S
C932 N934 1.325 . S
C932 C935 1.357 . S
C933 H901 0.928 . S
C933 C931 1.406 . S
C933 N934 1.261 . S
N934 Co885 2.214 . S
N934 C932 1.325 . S
N934 C933 1.261 . S
C935 H905 0.931 . S
C935 C932 1.357 . S
C935 C936 1.312 . S
C936 H907 0.930 . S
C936 C931 1.261 . S
C936 C935 1.312 . S
C937 O909 1.214 . S
C937 O917 1.234 . S
C938 H910 0.929 . S
C938 C941 1.391 . S
C938 C943 1.391 . S
C939 H911 0.929 . S
C939 C940 1.390 . S
C939 N942 1.391 . S
C940 H912 0.930 . S
C940 C939 1.390 . S
C940 C941 1.392 . S
C941 H913 0.929 . S
C941 C938 1.391 . S
C941 C940 1.392 . S
N942 Co886 2.257 . S
N942 C939 1.391 . S
N942 C943 1.388 . S
C943 H914 0.930 . S
C943 C938 1.391 . S
C943 N942 1.388 . S
C944 C945 1.369 . S
C944 C946 1.419 . S
C944 H948 0.930 . S
C945 C944 1.369 . S
C945 C954 1.429 . S
C946 C944 1.419 . S
C946 C947 1.363 . S
C946 H949 0.929 . S
C947 C946 1.363 . S
C947 C953 1.428 . S
H948 C944 0.930 . S
H949 C946 0.929 . S
S950 N951 1.613 . S
S950 N952 1.610 . S
N951 S950 1.613 . S
N951 C954 1.350 . S
N952 S950 1.610 . S
N952 C953 1.351 . S
C953 C947 1.428 . S
C953 N952 1.351 . S
C953 C954 1.434 . S
C954 C945 1.429 . S
C954 N951 1.350 . S
C954 C953 1.434 . S
C955 C956 1.369 . S
C955 C957 1.419 . S
C955 H959 0.930 . S
C956 C955 1.369 . S
C956 C965 1.429 . S
C957 C955 1.419 . S
C957 C958 1.363 . S
C957 H960 0.929 . S
C958 C957 1.363 . S
C958 C964 1.428 . S
H959 C955 0.930 . S
H960 C957 0.929 . S
S961 N962 1.613 1_556 S
S961 N963 1.610 1_556 S
N962 S961 1.613 1_554 S
N962 C965 1.350 . S
N963 S961 1.610 1_554 S
N963 C964 1.351 . S
C964 C958 1.428 . S
C964 N963 1.351 . S
C964 C965 1.434 . S
C965 C956 1.429 . S
C965 N962 1.350 . S
C965 C964 1.434 . S
C966 C967 1.369 . S
C966 C968 1.419 . S
C966 H970 0.930 . S
C967 C966 1.369 . S
C967 C976 1.429 . S
C968 C966 1.419 . S
C968 C969 1.363 . S
C968 H971 0.929 . S
C969 C968 1.363 . S
C969 C975 1.428 . S
H970 C966 0.930 . S
H971 C968 0.929 . S
S972 N973 1.613 . S
S972 N974 1.610 . S
N973 S972 1.613 . S
N973 C976 1.350 . S
N974 S972 1.610 . S
N974 C975 1.351 . S
C975 C969 1.428 . S
C975 N974 1.351 . S
C975 C976 1.434 . S
C976 C967 1.429 . S
C976 N973 1.350 . S
C976 C975 1.434 . S
C977 C978 1.369 . S
C977 C979 1.419 . S
C977 H981 0.930 . S
C978 C977 1.369 . S
C978 C987 1.429 . S
C979 C977 1.419 . S
C979 C980 1.363 . S
C979 H982 0.929 . S
C980 C979 1.363 . S
C980 C986 1.428 . S
H981 C977 0.930 . S
H982 C979 0.929 . S
S983 N984 1.613 . S
S983 N985 1.610 . S
N984 S983 1.613 . S
N984 C987 1.350 . S
N985 S983 1.610 . S
N985 C986 1.351 . S
C986 C980 1.428 . S
C986 N985 1.351 . S
C986 C987 1.434 . S
C987 C978 1.429 . S
C987 N984 1.350 . S
C987 C986 1.434 . S
C988 C989 1.369 . S
C988 C990 1.419 . S
C988 H992 0.930 . S
C989 C988 1.369 . S
C989 C998 1.429 . S
C990 C988 1.419 . S
C990 C991 1.363 . S
C990 H993 0.929 . S
C991 C990 1.363 . S
C991 C997 1.428 . S
H992 C988 0.930 . S
H993 C990 0.929 . S
S994 N995 1.613 . S
S994 N996 1.610 . S
N995 S994 1.613 . S
N995 C998 1.350 . S
N996 S994 1.610 . S
N996 C997 1.351 . S
C997 C991 1.428 . S
C997 N996 1.351 . S
C997 C998 1.434 . S
C998 C989 1.429 . S
C998 N995 1.350 . S
C998 C997 1.434 . S
C999 C1000 1.369 . S
C999 C1001 1.419 . S
C999 H1003 0.930 . S
C1000 C999 1.369 . S
C1000 C1009 1.429 . S
C1001 C999 1.419 . S
C1001 C1002 1.363 . S
C1001 H1004 0.929 . S
C1002 C1001 1.363 . S
C1002 C1008 1.428 . S
H1003 C999 0.930 . S
H1004 C1001 0.929 . S
S1005 N1006 1.613 . S
S1005 N1007 1.610 . S
N1006 S1005 1.613 . S
N1006 C1009 1.350 . S
N1007 S1005 1.610 . S
N1007 C1008 1.351 . S
C1008 C1002 1.428 . S
C1008 N1007 1.351 . S
C1008 C1009 1.434 . S
C1009 C1000 1.429 . S
C1009 N1006 1.350 . S
C1009 C1008 1.434 . S
C1010 C1011 1.369 . S
C1010 C1012 1.419 . S
C1010 H1014 0.930 . S
C1011 C1010 1.369 . S
C1011 C1020 1.429 . S
C1012 C1010 1.419 . S
C1012 C1013 1.363 . S
C1012 H1015 0.929 . S
C1013 C1012 1.363 . S
C1013 C1019 1.428 . S
H1014 C1010 0.930 . S
H1015 C1012 0.929 . S
S1016 N1017 1.613 . S
S1016 N1018 1.610 . S
N1017 S1016 1.613 . S
N1017 C1020 1.350 . S
N1018 S1016 1.610 . S
N1018 C1019 1.351 . S
C1019 C1013 1.428 . S
C1019 N1018 1.351 . S
C1019 C1020 1.434 . S
C1020 C1011 1.429 . S
C1020 N1017 1.350 . S
C1020 C1019 1.434 . S
C1021 C1022 1.369 . S
C1021 C1023 1.419 . S
C1021 H1025 0.930 . S
C1022 C1021 1.369 . S
C1022 C1031 1.429 . S
C1023 C1021 1.419 . S
C1023 C1024 1.363 . S
C1023 H1026 0.929 . S
C1024 C1023 1.363 . S
C1024 C1030 1.428 . S
H1025 C1021 0.930 . S
H1026 C1023 0.929 . S
S1027 N1028 1.613 . S
S1027 N1029 1.610 . S
N1028 S1027 1.613 . S
N1028 C1031 1.350 1_554 S
N1029 S1027 1.610 . S
N1029 C1030 1.351 1_554 S
C1030 C1024 1.428 . S
C1030 N1029 1.351 1_556 S
C1030 C1031 1.434 . S
C1031 C1022 1.429 . S
C1031 N1028 1.350 1_556 S
C1031 C1030 1.434 . S
C1032 C1033 1.369 . S
C1032 C1034 1.419 . S
C1032 H1036 0.930 . S
C1033 C1032 1.369 . S
C1033 C1042 1.429 . S
C1034 C1032 1.419 . S
C1034 C1035 1.363 . S
C1034 H1037 0.929 . S
C1035 C1034 1.363 . S
C1035 C1041 1.428 . S
H1036 C1032 0.930 . S
H1037 C1034 0.929 . S
S1038 N1039 1.613 . S
S1038 N1040 1.610 . S
N1039 S1038 1.613 . S
N1039 C1042 1.350 . S
N1040 S1038 1.610 . S
N1040 C1041 1.351 . S
C1041 C1035 1.428 . S
C1041 N1040 1.351 . S
C1041 C1042 1.434 . S
C1042 C1033 1.429 . S
C1042 N1039 1.350 . S
C1042 C1041 1.434 . S
C1043 C1044 1.369 . S
C1043 C1045 1.419 . S
C1043 H1047 0.930 . S
C1044 C1043 1.369 . S
C1044 C1053 1.429 . S
C1045 C1043 1.419 . S
C1045 C1046 1.363 . S
C1045 H1048 0.929 . S
C1046 C1045 1.363 . S
C1046 C1052 1.428 . S
H1047 C1043 0.930 . S
H1048 C1045 0.929 . S
S1049 N1050 1.613 . S
S1049 N1051 1.610 . S
N1050 S1049 1.613 . S
N1050 C1053 1.350 . S
N1051 S1049 1.610 . S
N1051 C1052 1.351 . S
C1052 C1046 1.428 . S
C1052 N1051 1.351 . S
C1052 C1053 1.434 . S
C1053 C1044 1.429 . S
C1053 N1050 1.350 . S
C1053 C1052 1.434 . S
C1054 C1055 1.369 . S
C1054 C1056 1.419 . S
C1054 H1058 0.930 . S
C1055 C1054 1.369 . S
C1055 C1064 1.429 . S
C1056 C1054 1.419 . S
C1056 C1057 1.363 . S
C1056 H1059 0.929 . S
C1057 C1056 1.363 . S
C1057 C1063 1.428 . S
H1058 C1054 0.930 . S
H1059 C1056 0.929 . S
S1060 N1061 1.613 . S
S1060 N1062 1.610 . S
N1061 S1060 1.613 . S
N1061 C1064 1.350 . S
N1062 S1060 1.610 . S
N1062 C1063 1.351 . S
C1063 C1057 1.428 . S
C1063 N1062 1.351 . S
C1063 C1064 1.434 . S
C1064 C1055 1.429 . S
C1064 N1061 1.350 . S
C1064 C1063 1.434 . S
C1065 C1066 1.369 . S
C1065 C1067 1.419 . S
C1065 H1069 0.930 . S
C1066 C1065 1.369 . S
C1066 C1075 1.429 . S
C1067 C1065 1.419 . S
C1067 C1068 1.363 . S
C1067 H1070 0.929 . S
C1068 C1067 1.363 . S
C1068 C1074 1.428 . S
H1069 C1065 0.930 . S
H1070 C1067 0.929 . S
S1071 N1072 1.613 . S
S1071 N1073 1.610 . S
N1072 S1071 1.613 . S
N1072 C1075 1.350 . S
N1073 S1071 1.610 . S
N1073 C1074 1.351 . S
C1074 C1068 1.428 . S
C1074 N1073 1.351 . S
C1074 C1075 1.434 . S
C1075 C1066 1.429 . S
C1075 N1072 1.350 . S
C1075 C1074 1.434 . S
C1076 C1077 1.369 . S
C1076 C1078 1.419 . S
C1076 H1080 0.930 . S
C1077 C1076 1.369 . S
C1077 C1086 1.429 . S
C1078 C1076 1.419 . S
C1078 C1079 1.363 . S
C1078 H1081 0.929 . S
C1079 C1078 1.363 . S
C1079 C1085 1.428 . S
H1080 C1076 0.930 . S
H1081 C1078 0.929 . S
S1082 N1083 1.613 . S
S1082 N1084 1.610 . S
N1083 S1082 1.613 . S
N1083 C1086 1.350 . S
N1084 S1082 1.610 . S
N1084 C1085 1.351 . S
C1085 C1079 1.428 . S
C1085 N1084 1.351 . S
C1085 C1086 1.434 . S
C1086 C1077 1.429 . S
C1086 N1083 1.350 . S
C1086 C1085 1.434 . S
C1087 C1088 1.369 . S
C1087 C1089 1.419 . S
C1087 H1091 0.930 . S
C1088 C1087 1.369 . S
C1088 C1097 1.429 . S
C1089 C1087 1.419 . S
C1089 C1090 1.363 . S
C1089 H1092 0.929 . S
C1090 C1089 1.363 . S
C1090 C1096 1.428 . S
H1091 C1087 0.930 . S
H1092 C1089 0.929 . S
S1093 N1094 1.613 . S
S1093 N1095 1.610 . S
N1094 S1093 1.613 . S
N1094 C1097 1.350 . S
N1095 S1093 1.610 . S
N1095 C1096 1.351 . S
C1096 C1090 1.428 . S
C1096 N1095 1.351 . S
C1096 C1097 1.434 . S
C1097 C1088 1.429 . S
C1097 N1094 1.350 . S
C1097 C1096 1.434 . S
C1098 C1099 1.369 . S
C1098 C1100 1.419 . S
C1098 H1102 0.930 . S
C1099 C1098 1.369 . S
C1099 C1108 1.429 . S
C1100 C1098 1.419 . S
C1100 C1101 1.363 . S
C1100 H1103 0.929 . S
C1101 C1100 1.363 . S
C1101 C1107 1.428 . S
H1102 C1098 0.930 . S
H1103 C1100 0.929 . S
S1104 N1105 1.613 . S
S1104 N1106 1.610 . S
N1105 S1104 1.613 . S
N1105 C1108 1.350 . S
N1106 S1104 1.610 . S
N1106 C1107 1.351 . S
C1107 C1101 1.428 . S
C1107 N1106 1.351 . S
C1107 C1108 1.434 . S
C1108 C1099 1.429 . S
C1108 N1105 1.350 . S
C1108 C1107 1.434 . S
C1109 C1110 1.369 . S
C1109 C1111 1.419 . S
C1109 H1113 0.930 . S
C1110 C1109 1.369 . S
C1110 C1119 1.429 . S
C1111 C1109 1.419 . S
C1111 C1112 1.363 . S
C1111 H1114 0.929 . S
C1112 C1111 1.363 . S
C1112 C1118 1.428 . S
H1113 C1109 0.930 . S
H1114 C1111 0.929 . S
S1115 N1116 1.613 . S
S1115 N1117 1.610 . S
N1116 S1115 1.613 . S
N1116 C1119 1.350 . S
N1117 S1115 1.610 . S
N1117 C1118 1.351 . S
C1118 C1112 1.428 . S
C1118 N1117 1.351 . S
C1118 C1119 1.434 . S
C1119 C1110 1.429 . S
C1119 N1116 1.350 . S
C1119 C1118 1.434 . S
C1120 C1121 1.369 . S
C1120 C1122 1.419 . S
C1120 H1124 0.930 . S
C1121 C1120 1.369 . S
C1121 C1130 1.429 . S
C1122 C1120 1.419 . S
C1122 C1123 1.363 . S
C1122 H1125 0.929 . S
C1123 C1122 1.363 . S
C1123 C1129 1.428 . S
H1124 C1120 0.930 . S
H1125 C1122 0.929 . S
S1126 N1127 1.613 . S
S1126 N1128 1.610 . S
N1127 S1126 1.613 . S
N1127 C1130 1.350 . S
N1128 S1126 1.610 . S
N1128 C1129 1.351 . S
C1129 C1123 1.428 . S
C1129 N1128 1.351 . S
C1129 C1130 1.434 . S
C1130 C1121 1.429 . S
C1130 N1127 1.350 . S
C1130 C1129 1.434 . S
C1131 C1132 1.369 . S
C1131 C1133 1.419 . S
C1131 H1135 0.930 . S
C1132 C1131 1.369 . S
C1132 C1141 1.429 . S
C1133 C1131 1.419 . S
C1133 C1134 1.363 . S
C1133 H1136 0.929 . S
C1134 C1133 1.363 . S
C1134 C1140 1.428 . S
H1135 C1131 0.930 . S
H1136 C1133 0.929 . S
S1137 N1138 1.613 . S
S1137 N1139 1.610 . S
N1138 S1137 1.613 . S
N1138 C1141 1.350 . S
N1139 S1137 1.610 . S
N1139 C1140 1.351 . S
C1140 C1134 1.428 . S
C1140 N1139 1.351 . S
C1140 C1141 1.434 . S
C1141 C1132 1.429 . S
C1141 N1138 1.350 . S
C1141 C1140 1.434 . S
C1142 C1143 1.369 . S
C1142 C1144 1.419 . S
C1142 H1146 0.930 . S
C1143 C1142 1.369 . S
C1143 C1152 1.429 . S
C1144 C1142 1.419 . S
C1144 C1145 1.363 . S
C1144 H1147 0.929 . S
C1145 C1144 1.363 . S
C1145 C1151 1.428 . S
H1146 C1142 0.930 . S
H1147 C1144 0.929 . S
S1148 N1149 1.613 . S
S1148 N1150 1.610 . S
N1149 S1148 1.613 . S
N1149 C1152 1.350 . S
N1150 S1148 1.610 . S
N1150 C1151 1.351 . S
C1151 C1145 1.428 . S
C1151 N1150 1.351 . S
C1151 C1152 1.434 . S
C1152 C1143 1.429 . S
C1152 N1149 1.350 . S
C1152 C1151 1.434 . S
C1153 C1154 1.369 . S
C1153 C1155 1.419 . S
C1153 H1157 0.930 . S
C1154 C1153 1.369 . S
C1154 C1163 1.429 . S
C1155 C1153 1.419 . S
C1155 C1156 1.363 . S
C1155 H1158 0.929 . S
C1156 C1155 1.363 . S
C1156 C1162 1.428 . S
H1157 C1153 0.930 . S
H1158 C1155 0.929 . S
S1159 N1160 1.613 . S
S1159 N1161 1.610 . S
N1160 S1159 1.613 . S
N1160 C1163 1.350 . S
N1161 S1159 1.610 . S
N1161 C1162 1.351 . S
C1162 C1156 1.428 . S
C1162 N1161 1.351 . S
C1162 C1163 1.434 . S
C1163 C1154 1.429 . S
C1163 N1160 1.350 . S
C1163 C1162 1.434 . S
C1164 C1165 1.369 . S
C1164 C1166 1.419 . S
C1164 H1168 0.930 . S
C1165 C1164 1.369 . S
C1165 C1174 1.429 . S
C1166 C1164 1.419 . S
C1166 C1167 1.363 . S
C1166 H1169 0.929 . S
C1167 C1166 1.363 . S
C1167 C1173 1.428 . S
H1168 C1164 0.930 . S
H1169 C1166 0.929 . S
S1170 N1171 1.613 . S
S1170 N1172 1.610 . S
N1171 S1170 1.613 . S
N1171 C1174 1.350 . S
N1172 S1170 1.610 . S
N1172 C1173 1.351 . S
C1173 C1167 1.428 . S
C1173 N1172 1.351 . S
C1173 C1174 1.434 . S
C1174 C1165 1.429 . S
C1174 N1171 1.350 . S
C1174 C1173 1.434 . S
C1175 C1176 1.369 . S
C1175 C1177 1.419 . S
C1175 H1179 0.930 . S
C1176 C1175 1.369 . S
C1176 C1185 1.429 . S
C1177 C1175 1.419 . S
C1177 C1178 1.363 . S
C1177 H1180 0.929 . S
C1178 C1177 1.363 . S
C1178 C1184 1.428 . S
H1179 C1175 0.930 . S
H1180 C1177 0.929 . S
S1181 N1182 1.613 . S
S1181 N1183 1.610 . S
N1182 S1181 1.613 . S
N1182 C1185 1.350 . S
N1183 S1181 1.610 . S
N1183 C1184 1.351 . S
C1184 C1178 1.428 . S
C1184 N1183 1.351 . S
C1184 C1185 1.434 . S
C1185 C1176 1.429 . S
C1185 N1182 1.350 . S
C1185 C1184 1.434 . S
C1186 C1187 1.369 . S
C1186 C1188 1.419 . S
C1186 H1190 0.930 . S
C1187 C1186 1.369 . S
C1187 C1196 1.429 . S
C1188 C1186 1.419 . S
C1188 C1189 1.363 . S
C1188 H1191 0.929 . S
C1189 C1188 1.363 . S
C1189 C1195 1.428 . S
H1190 C1186 0.930 . S
H1191 C1188 0.929 . S
S1192 N1193 1.613 . S
S1192 N1194 1.610 . S
N1193 S1192 1.613 . S
N1193 C1196 1.350 . S
N1194 S1192 1.610 . S
N1194 C1195 1.351 . S
C1195 C1189 1.428 . S
C1195 N1194 1.351 . S
C1195 C1196 1.434 . S
C1196 C1187 1.429 . S
C1196 N1193 1.350 . S
C1196 C1195 1.434 . S
C1197 C1198 1.369 . S
C1197 C1199 1.419 . S
C1197 H1201 0.930 . S
C1198 C1197 1.369 . S
C1198 C1207 1.429 . S
C1199 C1197 1.419 . S
C1199 C1200 1.363 . S
C1199 H1202 0.929 . S
C1200 C1199 1.363 . S
C1200 C1206 1.428 . S
H1201 C1197 0.930 . S
H1202 C1199 0.929 . S
S1203 N1204 1.613 . S
S1203 N1205 1.610 . S
N1204 S1203 1.613 . S
N1204 C1207 1.350 . S
N1205 S1203 1.610 . S
N1205 C1206 1.351 . S
C1206 C1200 1.428 . S
C1206 N1205 1.351 . S
C1206 C1207 1.434 . S
C1207 C1198 1.429 . S
C1207 N1204 1.350 . S
C1207 C1206 1.434 . S
C1208 C1209 1.369 1_655 S
C1208 C1210 1.419 . S
C1208 H1212 0.930 . S
C1209 C1208 1.369 1_455 S
C1209 C1218 1.429 . S
C1210 C1208 1.419 . S
C1210 C1211 1.363 . S
C1210 H1213 0.929 . S
C1211 C1210 1.363 . S
C1211 C1217 1.428 1_655 S
H1212 C1208 0.930 . S
H1213 C1210 0.929 . S
S1214 N1215 1.613 . S
S1214 N1216 1.610 . S
N1215 S1214 1.613 . S
N1215 C1218 1.350 . S
N1216 S1214 1.610 . S
N1216 C1217 1.351 . S
C1217 C1211 1.428 1_455 S
C1217 N1216 1.351 . S
C1217 C1218 1.434 . S
C1218 C1209 1.429 . S
C1218 N1215 1.350 . S
C1218 C1217 1.434 . S
C1219 C1220 1.369 . S
C1219 C1221 1.419 . S
C1219 H1223 0.930 . S
C1220 C1219 1.369 . S
C1220 C1229 1.429 1_565 S
C1221 C1219 1.419 . S
C1221 C1222 1.363 1_565 S
C1221 H1224 0.929 . S
C1222 C1221 1.363 1_545 S
C1222 C1228 1.428 . S
H1223 C1219 0.930 . S
H1224 C1221 0.929 . S
S1225 N1226 1.613 . S
S1225 N1227 1.610 . S
N1226 S1225 1.613 . S
N1226 C1229 1.350 . S
N1227 S1225 1.610 . S
N1227 C1228 1.351 . S
C1228 C1222 1.428 . S
C1228 N1227 1.351 . S
C1228 C1229 1.434 . S
C1229 C1220 1.429 1_545 S
C1229 N1226 1.350 . S
C1229 C1228 1.434 . S
C1230 C1231 1.369 . S
C1230 C1232 1.416 1_455 S
C1230 H1234 0.930 . S
C1231 C1230 1.369 . S
C1231 C1240 1.424 1_455 S
C1232 C1230 1.416 1_655 S
C1232 C1233 1.366 . S
C1232 H1235 0.929 . S
C1233 C1232 1.366 . S
C1233 C1239 1.428 . S
H1234 C1230 0.930 . S
H1235 C1232 0.929 . S
S1236 N1237 1.613 . S
S1236 N1238 1.610 . S
N1237 S1236 1.613 . S
N1237 C1240 1.352 . S
N1238 S1236 1.610 . S
N1238 C1239 1.351 . S
C1239 C1233 1.428 . S
C1239 N1238 1.351 . S
C1239 C1240 1.438 . S
C1240 C1231 1.424 1_655 S
C1240 N1237 1.352 . S
C1240 C1239 1.438 . S
C1241 C1242 1.369 1_565 S
C1241 C1243 1.419 . S
C1241 H1245 0.930 . S
C1242 C1241 1.369 1_545 S
C1242 C1251 1.429 . S
C1243 C1241 1.419 . S
C1243 C1244 1.363 . S
C1243 H1246 0.929 . S
C1244 C1243 1.363 . S
C1244 C1250 1.428 1_565 S
H1245 C1241 0.930 . S
H1246 C1243 0.929 . S
S1247 N1248 1.613 . S
S1247 N1249 1.610 . S
N1248 S1247 1.613 . S
N1248 C1251 1.350 . S
N1249 S1247 1.610 . S
N1249 C1250 1.351 . S
C1250 C1244 1.428 1_545 S
C1250 N1249 1.351 . S
C1250 C1251 1.434 . S
C1251 C1242 1.429 . S
C1251 N1248 1.350 . S
C1251 C1250 1.434 . S
C1252 C1253 1.369 . S
C1252 C1254 1.419 1_556 S
C1252 H1256 0.930 . S
C1253 C1252 1.369 . S
C1253 C1262 1.429 . S
C1254 C1252 1.419 1_554 S
C1254 C1255 1.363 . S
C1254 H1257 0.929 . S
C1255 C1254 1.363 . S
C1255 C1261 1.428 . S
H1256 C1252 0.930 . S
H1257 C1254 0.929 . S
S1258 N1259 1.613 . S
S1258 N1260 1.610 1_556 S
N1259 S1258 1.613 . S
N1259 C1262 1.350 . S
N1260 S1258 1.610 1_554 S
N1260 C1261 1.351 . S
C1261 C1255 1.428 . S
C1261 N1260 1.351 . S
C1261 C1262 1.434 1_554 S
C1262 C1253 1.429 . S
C1262 N1259 1.350 . S
C1262 C1261 1.434 1_556 S
C1263 C1264 1.369 . S
C1263 C1265 1.419 1_556 S
C1263 H1267 0.930 . S
C1264 C1263 1.369 . S
C1264 C1273 1.429 . S
C1265 C1263 1.419 1_554 S
C1265 C1266 1.363 . S
C1265 H1268 0.929 . S
C1266 C1265 1.363 . S
C1266 C1272 1.428 . S
H1267 C1263 0.930 . S
H1268 C1265 0.929 . S
S1269 N1270 1.613 1_554 S
S1269 N1271 1.610 . S
N1270 S1269 1.613 1_556 S
N1270 C1273 1.350 . S
N1271 S1269 1.610 . S
N1271 C1272 1.351 . S
C1272 C1266 1.428 . S
C1272 N1271 1.351 . S
C1272 C1273 1.434 1_554 S
C1273 C1264 1.429 . S
C1273 N1270 1.350 . S
C1273 C1272 1.434 1_556 S
C1274 C1275 1.369 . S
C1274 C1276 1.419 1_554 S
C1274 H1278 0.930 . S
C1275 C1274 1.369 . S
C1275 C1284 1.429 . S
C1276 C1274 1.419 1_556 S
C1276 C1277 1.363 . S
C1276 H1279 0.929 . S
C1277 C1276 1.363 . S
C1277 C1283 1.428 . S
H1278 C1274 0.930 . S
H1279 C1276 0.929 . S
S1280 N1281 1.613 . S
S1280 N1282 1.610 1_554 S
N1281 S1280 1.613 . S
N1281 C1284 1.350 . S
N1282 S1280 1.610 1_556 S
N1282 C1283 1.351 . S
C1283 C1277 1.428 . S
C1283 N1282 1.351 . S
C1283 C1284 1.434 1_556 S
C1284 C1275 1.429 . S
C1284 N1281 1.350 . S
C1284 C1283 1.434 1_554 S
C1285 C1286 1.369 . S
C1285 C1287 1.419 1_556 S
C1285 H1289 0.930 . S
C1286 C1285 1.369 . S
C1286 C1295 1.429 . S
C1287 C1285 1.419 1_554 S
C1287 C1288 1.363 . S
C1287 H1290 0.929 . S
C1288 C1287 1.363 . S
C1288 C1294 1.428 . S
H1289 C1285 0.930 . S
H1290 C1287 0.929 . S
S1291 N1292 1.613 . S
S1291 N1293 1.610 1_556 S
N1292 S1291 1.613 . S
N1292 C1295 1.350 . S
N1293 S1291 1.610 1_554 S
N1293 C1294 1.351 . S
C1294 C1288 1.428 . S
C1294 N1293 1.351 . S
C1294 C1295 1.434 1_554 S
C1295 C1286 1.429 . S
C1295 N1292 1.350 . S
C1295 C1294 1.434 1_556 S
C945 C3 1.642 . S
C947 C229 1.668 . S
C956 C52 1.669 . S
C958 C62 1.643 . S
C967 C111 1.664 . S
C969 C121 1.637 . S
C978 C170 1.668 . S
C980 C180 1.642 . S
C989 C239 1.637 . S
C991 C347 1.665 . S
C1000 C298 1.640 . S
C1002 C406 1.667 . S
C1011 C357 1.636 . S
C1013 C465 1.665 . S
C1022 C416 1.642 . S
C1024 C288 1.667 . S
C1033 C475 1.643 . S
C1035 C701 1.668 . S
C1044 C524 1.669 . S
C1046 C534 1.643 . S
C1055 C583 1.667 . S
C1057 C593 1.640 . S
C1066 C652 1.644 . S
C1068 C642 1.668 . S
C1077 C819 1.667 . S
C1079 C711 1.641 . S
C1088 C878 1.668 . S
C1090 C770 1.642 . S
C1099 C829 1.641 . S
C1101 C937 1.667 . S
C1110 C888 1.637 . S
C1112 C760 1.665 . S
C1121 C5 1.559 . S
C1123 C890 1.565 . S
C1132 C64 1.569 . S
C1134 C713 1.560 . S
C1143 C772 1.561 . S
C1145 C123 1.567 . S
C1154 C182 1.565 . S
C1156 C831 1.561 . S
C1165 C536 1.565 . S
C1167 C241 1.564 . S
C1176 C595 1.565 . S
C1178 C300 1.561 . S
C1187 C359 1.569 . S
C1189 C654 1.560 . S
C1198 C418 1.569 . S
C1200 C477 1.559 . S
C1209 C33 1.696 . S
C1211 C387 1.699 . S
C1220 C446 1.701 . S
C1222 C92 1.697 . S
C1231 C269 1.698 . S
C1233 C151 1.697 . S
C1242 C328 1.698 . S
C1244 C210 1.697 . S
C1253 C505 1.702 . S
C1255 C859 1.698 . S
C1264 C564 1.698 . S
C1266 C918 1.701 . S
C1275 C741 1.702 . S
C1277 C623 1.699 . S
C1286 C682 1.701 . S
C1288 C800 1.697 . S
