# Generated by pormake.
# Topology unl, (4)-cn, num edge types: 1
# Building blocks:
#     Node 0, Type 0, BuildingBlock: CEKHIL_clean_sbu_0, # of connection points: 4
#     Node 1, Type 0, BuildingBlock: CEKHIL_clean_sbu_0, # of connection points: 4
#     Node 2, Type 0, BuildingBlock: CEKHIL_clean_sbu_0, # of connection points: 4
#     Node 3, Type 0, BuildingBlock: CEKHIL_clean_sbu_0, # of connection points: 4
#     Node 4, Type 0, BuildingBlock: CEKHIL_clean_sbu_0, # of connection points: 4
#     Node 5, Type 0, BuildingBlock: CEKHIL_clean_sbu_0, # of connection points: 4
#     Node 6, Type 0, BuildingBlock: CEKHIL_clean_sbu_0, # of connection points: 4
#     Node 7, Type 0, BuildingBlock: CEKHIL_clean_sbu_0, # of connection points: 4
#     Node 8, Type 0, BuildingBlock: CEKHIL_clean_sbu_0, # of connection points: 4
#     Node 9, Type 0, BuildingBlock: CEKHIL_clean_sbu_0, # of connection points: 4
#     Node 10, Type 0, BuildingBlock: CEKHIL_clean_sbu_0, # of connection points: 4
#     Node 11, Type 0, BuildingBlock: CEKHIL_clean_sbu_0, # of connection points: 4
#     Node 12, Type 0, BuildingBlock: CEKHIL_clean_sbu_0, # of connection points: 4
#     Node 13, Type 0, BuildingBlock: CEKHIL_clean_sbu_0, # of connection points: 4
#     Node 14, Type 0, BuildingBlock: CEKHIL_clean_sbu_0, # of connection points: 4
#     Node 15, Type 0, BuildingBlock: CEKHIL_clean_sbu_0, # of connection points: 4
#     Node 16, Type 0, BuildingBlock: CEKHIL_clean_sbu_0, # of connection points: 4
#     Node 17, Type 0, BuildingBlock: CEKHIL_clean_sbu_0, # of connection points: 4
#     Node 18, Type 0, BuildingBlock: CEKHIL_clean_sbu_0, # of connection points: 4
#     Node 19, Type 0, BuildingBlock: CEKHIL_clean_sbu_0, # of connection points: 4
#     Node 20, Type 0, BuildingBlock: CEKHIL_clean_sbu_0, # of connection points: 4
#     Node 21, Type 0, BuildingBlock: CEKHIL_clean_sbu_0, # of connection points: 4
#     Node 22, Type 0, BuildingBlock: CEKHIL_clean_sbu_0, # of connection points: 4
#     Node 23, Type 0, BuildingBlock: CEKHIL_clean_sbu_0, # of connection points: 4
#     Node 24, Type 0, BuildingBlock: CEKHIL_clean_sbu_0, # of connection points: 4
#     Node 25, Type 0, BuildingBlock: CEKHIL_clean_sbu_0, # of connection points: 4
#     Node 26, Type 0, BuildingBlock: CEKHIL_clean_sbu_0, # of connection points: 4
#     Node 27, Type 0, BuildingBlock: CEKHIL_clean_sbu_0, # of connection points: 4
#     Node 28, Type 0, BuildingBlock: CEKHIL_clean_sbu_0, # of connection points: 4
#     Node 29, Type 0, BuildingBlock: CEKHIL_clean_sbu_0, # of connection points: 4
#     Node 30, Type 0, BuildingBlock: CEKHIL_clean_sbu_0, # of connection points: 4
#     Node 31, Type 0, BuildingBlock: CEKHIL_clean_sbu_0, # of connection points: 4
#     Node 32, Type 0, BuildingBlock: CEKHIL_clean_sbu_0, # of connection points: 4
#     Node 33, Type 0, BuildingBlock: CEKHIL_clean_sbu_0, # of connection points: 4
#     Node 34, Type 0, BuildingBlock: CEKHIL_clean_sbu_0, # of connection points: 4
#     Node 35, Type 0, BuildingBlock: CEKHIL_clean_sbu_0, # of connection points: 4
#     Edge 36, Type (0, 0), BuildingBlock: EZIPEK_clean_linker_0, # of connection points: 2
#     Edge 37, Type (0, 0), BuildingBlock: EZIPEK_clean_linker_0, # of connection points: 2
#     Edge 38, Type (0, 0), BuildingBlock: EZIPEK_clean_linker_0, # of connection points: 2
#     Edge 39, Type (0, 0), BuildingBlock: EZIPEK_clean_linker_0, # of connection points: 2
#     Edge 40, Type (0, 0), BuildingBlock: EZIPEK_clean_linker_0, # of connection points: 2
#     Edge 41, Type (0, 0), BuildingBlock: EZIPEK_clean_linker_0, # of connection points: 2
#     Edge 42, Type (0, 0), BuildingBlock: EZIPEK_clean_linker_0, # of connection points: 2
#     Edge 43, Type (0, 0), BuildingBlock: EZIPEK_clean_linker_0, # of connection points: 2
#     Edge 44, Type (0, 0), BuildingBlock: EZIPEK_clean_linker_0, # of connection points: 2
#     Edge 45, Type (0, 0), BuildingBlock: EZIPEK_clean_linker_0, # of connection points: 2
#     Edge 46, Type (0, 0), BuildingBlock: EZIPEK_clean_linker_0, # of connection points: 2
#     Edge 47, Type (0, 0), BuildingBlock: EZIPEK_clean_linker_0, # of connection points: 2
#     Edge 48, Type (0, 0), BuildingBlock: EZIPEK_clean_linker_0, # of connection points: 2
#     Edge 49, Type (0, 0), BuildingBlock: EZIPEK_clean_linker_0, # of connection points: 2
#     Edge 50, Type (0, 0), BuildingBlock: EZIPEK_clean_linker_0, # of connection points: 2
#     Edge 51, Type (0, 0), BuildingBlock: EZIPEK_clean_linker_0, # of connection points: 2
#     Edge 52, Type (0, 0), BuildingBlock: EZIPEK_clean_linker_0, # of connection points: 2
#     Edge 53, Type (0, 0), BuildingBlock: EZIPEK_clean_linker_0, # of connection points: 2
#     Edge 54, Type (0, 0), BuildingBlock: EZIPEK_clean_linker_0, # of connection points: 2
#     Edge 55, Type (0, 0), BuildingBlock: EZIPEK_clean_linker_0, # of connection points: 2
#     Edge 56, Type (0, 0), BuildingBlock: EZIPEK_clean_linker_0, # of connection points: 2
#     Edge 57, Type (0, 0), BuildingBlock: EZIPEK_clean_linker_0, # of connection points: 2
#     Edge 58, Type (0, 0), BuildingBlock: EZIPEK_clean_linker_0, # of connection points: 2
#     Edge 59, Type (0, 0), BuildingBlock: EZIPEK_clean_linker_0, # of connection points: 2
#     Edge 60, Type (0, 0), BuildingBlock: EZIPEK_clean_linker_0, # of connection points: 2
#     Edge 61, Type (0, 0), BuildingBlock: EZIPEK_clean_linker_0, # of connection points: 2
#     Edge 62, Type (0, 0), BuildingBlock: EZIPEK_clean_linker_0, # of connection points: 2
#     Edge 63, Type (0, 0), BuildingBlock: EZIPEK_clean_linker_0, # of connection points: 2
#     Edge 64, Type (0, 0), BuildingBlock: EZIPEK_clean_linker_0, # of connection points: 2
#     Edge 65, Type (0, 0), BuildingBlock: EZIPEK_clean_linker_0, # of connection points: 2
#     Edge 66, Type (0, 0), BuildingBlock: EZIPEK_clean_linker_0, # of connection points: 2
#     Edge 67, Type (0, 0), BuildingBlock: EZIPEK_clean_linker_0, # of connection points: 2
#     Edge 68, Type (0, 0), BuildingBlock: EZIPEK_clean_linker_0, # of connection points: 2
#     Edge 69, Type (0, 0), BuildingBlock: EZIPEK_clean_linker_0, # of connection points: 2
#     Edge 70, Type (0, 0), BuildingBlock: EZIPEK_clean_linker_0, # of connection points: 2
#     Edge 71, Type (0, 0), BuildingBlock: EZIPEK_clean_linker_0, # of connection points: 2
#     Edge 72, Type (0, 0), BuildingBlock: EZIPEK_clean_linker_0, # of connection points: 2
#     Edge 73, Type (0, 0), BuildingBlock: EZIPEK_clean_linker_0, # of connection points: 2
#     Edge 74, Type (0, 0), BuildingBlock: EZIPEK_clean_linker_0, # of connection points: 2
#     Edge 75, Type (0, 0), BuildingBlock: EZIPEK_clean_linker_0, # of connection points: 2
#     Edge 76, Type (0, 0), BuildingBlock: EZIPEK_clean_linker_0, # of connection points: 2
#     Edge 77, Type (0, 0), BuildingBlock: EZIPEK_clean_linker_0, # of connection points: 2
#     Edge 78, Type (0, 0), BuildingBlock: EZIPEK_clean_linker_0, # of connection points: 2
#     Edge 79, Type (0, 0), BuildingBlock: EZIPEK_clean_linker_0, # of connection points: 2
#     Edge 80, Type (0, 0), BuildingBlock: EZIPEK_clean_linker_0, # of connection points: 2
#     Edge 81, Type (0, 0), BuildingBlock: EZIPEK_clean_linker_0, # of connection points: 2
#     Edge 82, Type (0, 0), BuildingBlock: EZIPEK_clean_linker_0, # of connection points: 2
#     Edge 83, Type (0, 0), BuildingBlock: EZIPEK_clean_linker_0, # of connection points: 2
#     Edge 84, Type (0, 0), BuildingBlock: EZIPEK_clean_linker_0, # of connection points: 2
#     Edge 85, Type (0, 0), BuildingBlock: EZIPEK_clean_linker_0, # of connection points: 2
#     Edge 86, Type (0, 0), BuildingBlock: EZIPEK_clean_linker_0, # of connection points: 2
#     Edge 87, Type (0, 0), BuildingBlock: EZIPEK_clean_linker_0, # of connection points: 2
#     Edge 88, Type (0, 0), BuildingBlock: EZIPEK_clean_linker_0, # of connection points: 2
#     Edge 89, Type (0, 0), BuildingBlock: EZIPEK_clean_linker_0, # of connection points: 2
#     Edge 90, Type (0, 0), BuildingBlock: EZIPEK_clean_linker_0, # of connection points: 2
#     Edge 91, Type (0, 0), BuildingBlock: EZIPEK_clean_linker_0, # of connection points: 2
#     Edge 92, Type (0, 0), BuildingBlock: EZIPEK_clean_linker_0, # of connection points: 2
#     Edge 93, Type (0, 0), BuildingBlock: EZIPEK_clean_linker_0, # of connection points: 2
#     Edge 94, Type (0, 0), BuildingBlock: EZIPEK_clean_linker_0, # of connection points: 2
#     Edge 95, Type (0, 0), BuildingBlock: EZIPEK_clean_linker_0, # of connection points: 2
#     Edge 96, Type (0, 0), BuildingBlock: EZIPEK_clean_linker_0, # of connection points: 2
#     Edge 97, Type (0, 0), BuildingBlock: EZIPEK_clean_linker_0, # of connection points: 2
#     Edge 98, Type (0, 0), BuildingBlock: EZIPEK_clean_linker_0, # of connection points: 2
#     Edge 99, Type (0, 0), BuildingBlock: EZIPEK_clean_linker_0, # of connection points: 2
#     Edge 100, Type (0, 0), BuildingBlock: EZIPEK_clean_linker_0, # of connection points: 2
#     Edge 101, Type (0, 0), BuildingBlock: EZIPEK_clean_linker_0, # of connection points: 2
#     Edge 102, Type (0, 0), BuildingBlock: EZIPEK_clean_linker_0, # of connection points: 2
#     Edge 103, Type (0, 0), BuildingBlock: EZIPEK_clean_linker_0, # of connection points: 2
#     Edge 104, Type (0, 0), BuildingBlock: EZIPEK_clean_linker_0, # of connection points: 2
#     Edge 105, Type (0, 0), BuildingBlock: EZIPEK_clean_linker_0, # of connection points: 2
#     Edge 106, Type (0, 0), BuildingBlock: EZIPEK_clean_linker_0, # of connection points: 2
#     Edge 107, Type (0, 0), BuildingBlock: EZIPEK_clean_linker_0, # of connection points: 2
# Relax obj value: 0.039
# Max RMSD: 0.121
# Mean RMSD: 0.121
data_MOF--net-unl--node1-CEKHIL_clean_sbu_0--edge1-EZIPEK_clean_linker_0
_symmetry_space_group_name_H-M    P1
_symmetry_Int_Tables_number       1
_symmetry_cell_setting            triclinic
loop_
_symmetry_equiv_pos_as_xyz
'x, y, z'
_cell_length_a     47.256028
_cell_length_b     47.282668
_cell_length_c     29.865403
_cell_angle_alpha  90.013711
_cell_angle_beta   90.000948
_cell_angle_gamma 120.0214
loop_
_atom_site_label
_atom_site_type_symbol
_atom_site_fract_x
_atom_site_fract_y
_atom_site_fract_z
_atom_type_partial_charge
Co0 Co 0.21467 0.12296 0.09921 0.0
O1 O 0.24098 0.11293 0.13867 0.0
O2 O 0.25825 0.1602 0.10395 0.0
C3 C 0.19384 0.07549 0.05973 0.0
O4 O 0.19702 0.14351 0.05521 0.0
Co5 Co 0.13933 0.08096 0.09415 0.0
O6 O 0.14271 0.11201 0.04671 0.0
C7 C 0.16983 0.12639 0.16986 0.0
C8 C 0.26482 0.14205 0.12955 0.0
C9 C 0.16979 0.13749 0.03746 0.0
O10 O 0.19828 0.13865 0.15128 0.0
O11 O 0.14442 0.10093 0.15509 0.0
O12 O 0.2224 0.10008 0.05006 0.0
O13 O 0.17951 0.07953 0.09385 0.0
Co14 Co 0.87888 0.08956 0.10338 0.0
O15 O 0.88688 0.12566 0.14185 0.0
O16 O 0.84071 0.09467 0.10511 0.0
C17 C 0.92706 0.11707 0.06519 0.0
O18 O 0.86151 0.05148 0.05944 0.0
Co19 Co 0.92241 0.05858 0.10802 0.0
O20 O 0.89235 0.02759 0.06225 0.0
C21 C 0.87395 0.04281 0.1779 0.0
C22 C 0.85773 0.11951 0.13125 0.0
C23 C 0.86837 0.02962 0.04681 0.0
O24 O 0.86194 0.05784 0.15586 0.0
O25 O 0.90043 0.04354 0.16705 0.0
O26 O 0.90184 0.11957 0.05419 0.0
O27 O 0.92323 0.09982 0.10077 0.0
Co28 Co 0.90977 0.78744 0.11266 0.0
O29 O 0.87283 0.76023 0.15067 0.0
O30 O 0.9028 0.7434 0.11498 0.0
C31 C 0.88427 0.80988 0.07317 0.0
O32 O 0.94801 0.80687 0.06869 0.0
Co33 Co 0.94403 0.86159 0.11772 0.0
O34 O 0.97292 0.86163 0.06955 0.0
C35 C 0.95725 0.82755 0.18795 0.0
C36 C 0.87806 0.73651 0.14088 0.0
C37 C 0.97015 0.83515 0.05478 0.0
O38 O 0.9408 0.80068 0.16596 0.0
O39 O 0.95913 0.85438 0.17639 0.0
O40 O 0.88073 0.78164 0.06284 0.0
O41 O 0.9012 0.82286 0.10927 0.0
Co42 Co 0.13077 0.22269 0.38962 0.0
O43 O 0.12809 0.25408 0.35132 0.0
O44 O 0.1719 0.2639 0.39042 0.0
C45 C 0.08136 0.20708 0.42224 0.0
O46 O 0.14207 0.19649 0.43362 0.0
Co47 Co 0.0785 0.14897 0.38577 0.0
O48 O 0.09621 0.14869 0.4458 0.0
C49 C 0.13266 0.17721 0.31928 0.0
C50 C 0.15765 0.27467 0.36366 0.0
C51 C 0.12586 0.16931 0.45503 0.0
O52 O 0.14577 0.20557 0.33806 0.0
O53 O 0.10556 0.15263 0.3318 0.0
O54 O 0.10799 0.23218 0.43684 0.0
O55 O 0.08573 0.19278 0.38841 0.0
Co56 Co 0.79491 0.9061 0.39831 0.0
O57 O 0.76736 0.86985 0.35995 0.0
O58 O 0.7507 0.89867 0.39916 0.0
C59 C 0.81909 0.88108 0.43445 0.0
O60 O 0.81573 0.94396 0.44266 0.0
Co61 Co 0.86886 0.94012 0.38554 0.0
O62 O 0.87009 0.97053 0.43216 0.0
C63 C 0.83154 0.95449 0.32225 0.0
C64 C 0.74376 0.87477 0.37157 0.0
C65 C 0.84473 0.96722 0.45183 0.0
O66 O 0.80588 0.93763 0.3463 0.0
O67 O 0.85888 0.95621 0.32981 0.0
O68 O 0.79084 0.87673 0.44669 0.0
O69 O 0.83055 0.89787 0.3979 0.0
Co70 Co 0.09734 0.87501 0.40018 0.0
O71 O 0.12976 0.87946 0.35729 0.0
O72 O 0.09977 0.83531 0.39842 0.0
C73 C 0.13109 0.92468 0.43173 0.0
O74 O 0.06249 0.86172 0.44866 0.0
Co75 Co 0.07174 0.92401 0.40256 0.0
O76 O 0.04759 0.89983 0.45679 0.0
C77 C 0.04671 0.87142 0.33422 0.0
C78 C 0.12319 0.85051 0.36947 0.0
C79 C 0.04573 0.87294 0.46786 0.0
O80 O 0.06231 0.8585 0.35242 0.0
O81 O 0.04955 0.89863 0.34685 0.0
O82 O 0.13171 0.89872 0.44419 0.0
O83 O 0.11021 0.91958 0.40043 0.0
Co84 Co 0.77778 0.87029 0.8945 0.0
O85 O 0.7488 0.87587 0.85475 0.0
O86 O 0.7351 0.83121 0.89446 0.0
C87 C 0.79777 0.91881 0.93034 0.0
O88 O 0.80065 0.85668 0.94075 0.0
Co89 Co 0.85314 0.91809 0.8868 0.0
O90 O 0.85459 0.89326 0.93917 0.0
C91 C 0.8206 0.8635 0.82305 0.0
C92 C 0.7264 0.84695 0.86721 0.0
C93 C 0.83008 0.86769 0.95505 0.0
O94 O 0.79329 0.85234 0.84424 0.0
O95 O 0.84637 0.89043 0.83271 0.0
O96 O 0.76949 0.89427 0.94089 0.0
O97 O 0.81094 0.91439 0.89508 0.0
Co98 Co 0.12507 0.90173 0.89774 0.0
O99 O 0.12096 0.86536 0.86333 0.0
O100 O 0.16488 0.89949 0.90224 0.0
C101 C 0.07478 0.87185 0.93032 0.0
O102 O 0.1379 0.94122 0.93834 0.0
Co103 Co 0.07676 0.92746 0.88561 0.0
O104 O 0.09716 0.9528 0.94063 0.0
C105 C 0.13178 0.94767 0.8219 0.0
C106 C 0.15014 0.87369 0.87695 0.0
C107 C 0.12475 0.9574 0.95386 0.0
O108 O 0.1428 0.93181 0.844 0.0
O109 O 0.10514 0.9472 0.83147 0.0
O110 O 0.10039 0.87206 0.9466 0.0
O111 O 0.08047 0.88897 0.89437 0.0
Co112 Co 0.09849 0.23011 0.89775 0.0
O113 O 0.13281 0.25985 0.85883 0.0
O114 O 0.1006 0.27197 0.89879 0.0
C115 C 0.12777 0.21098 0.93287 0.0
O116 O 0.06165 0.20587 0.94283 0.0
Co117 Co 0.07275 0.15552 0.88711 0.0
O118 O 0.04426 0.15211 0.93766 0.0
C119 C 0.05017 0.18816 0.82473 0.0
C120 C 0.12518 0.28141 0.8715 0.0
C121 C 0.04275 0.17601 0.95485 0.0
O122 O 0.06583 0.21502 0.84683 0.0
O123 O 0.05163 0.16244 0.83337 0.0
O124 O 0.1304 0.23859 0.9447 0.0
O125 O 0.11076 0.19795 0.89709 0.0
Co126 Co 0.88298 0.77955 0.61499 0.0
O127 O 0.88795 0.75071 0.65569 0.0
O128 O 0.84468 0.7366 0.61248 0.0
C129 C 0.93279 0.80136 0.58213 0.0
O130 O 0.86982 0.80188 0.56752 0.0
Co131 Co 0.928 0.85498 0.62475 0.0
O132 O 0.90407 0.85621 0.57112 0.0
C133 C 0.87203 0.82014 0.68565 0.0
C134 C 0.85972 0.72806 0.64118 0.0
C135 C 0.87976 0.8312 0.55381 0.0
O136 O 0.86244 0.79338 0.66375 0.0
O137 O 0.8987 0.84662 0.67755 0.0
O138 O 0.90922 0.77274 0.5706 0.0
O139 O 0.92677 0.81379 0.61694 0.0
Co140 Co 0.20986 0.09118 0.60985 0.0
O141 O 0.23469 0.12684 0.65128 0.0
O142 O 0.25468 0.10084 0.61253 0.0
C143 C 0.18504 0.11506 0.57221 0.0
O144 O 0.1943 0.05515 0.56288 0.0
Co145 Co 0.13487 0.05174 0.60945 0.0
O146 O 0.13972 0.02293 0.56539 0.0
C147 C 0.16952 0.03741 0.67861 0.0
C148 C 0.25977 0.12392 0.64051 0.0
C149 C 0.16757 0.0301 0.54995 0.0
O150 O 0.19703 0.05749 0.65991 0.0
O151 O 0.14213 0.03378 0.6658 0.0
O152 O 0.21475 0.12231 0.56303 0.0
O153 O 0.17204 0.09601 0.60644 0.0
Co154 Co 0.91506 0.1293 0.60234 0.0
O155 O 0.87766 0.11953 0.63944 0.0
O156 O 0.90611 0.16502 0.60038 0.0
C157 C 0.89189 0.07991 0.56648 0.0
O158 O 0.95329 0.1479 0.55839 0.0
Co159 Co 0.95271 0.09302 0.61327 0.0
O160 O 0.98181 0.12183 0.56515 0.0
C161 C 0.96331 0.14223 0.67919 0.0
C162 C 0.8817 0.14761 0.62697 0.0
C163 C 0.97703 0.14342 0.54711 0.0
O164 O 0.94588 0.15049 0.65529 0.0
O165 O 0.96672 0.11776 0.67029 0.0
O166 O 0.88651 0.10304 0.55367 0.0
O167 O 0.90892 0.08613 0.603 0.0
Co168 Co 0.89375 0.45993 0.42245 0.0
O169 O 0.92353 0.45368 0.45937 0.0
O170 O 0.93601 0.49952 0.42344 0.0
C171 C 0.87427 0.41272 0.38383 0.0
O172 O 0.86939 0.47454 0.3801 0.0
Co173 Co 0.81926 0.41107 0.4323 0.0
O174 O 0.81541 0.43988 0.38776 0.0
C175 C 0.85203 0.46383 0.4981 0.0
C176 C 0.94525 0.4834 0.44917 0.0
C177 C 0.83936 0.46526 0.37057 0.0
O178 O 0.87895 0.4757 0.4759 0.0
O179 O 0.82627 0.43701 0.48821 0.0
O180 O 0.90172 0.43814 0.37247 0.0
O181 O 0.86149 0.41543 0.42067 0.0
Co182 Co 0.53666 0.42665 0.43733 0.0
O183 O 0.54575 0.4614 0.47888 0.0
O184 O 0.49865 0.43167 0.44342 0.0
C185 C 0.58378 0.45497 0.39765 0.0
O186 O 0.51878 0.38976 0.39133 0.0
Co187 Co 0.58227 0.3966 0.4345 0.0
O188 O 0.55378 0.37064 0.38408 0.0
C189 C 0.53184 0.37594 0.50497 0.0
C190 C 0.51651 0.45583 0.4702 0.0
C191 C 0.52748 0.37038 0.3738 0.0
O192 O 0.52045 0.39291 0.48683 0.0
O193 O 0.55806 0.37678 0.49181 0.0
O194 O 0.55901 0.45904 0.39037 0.0
O195 O 0.58028 0.43635 0.43136 0.0
Co196 Co 0.57307 0.11647 0.4331 0.0
O197 O 0.53837 0.09011 0.47441 0.0
O198 O 0.56898 0.07384 0.43904 0.0
C199 C 0.54354 0.13374 0.39364 0.0
O200 O 0.61016 0.13617 0.38728 0.0
Co201 Co 0.60131 0.19155 0.42885 0.0
O202 O 0.62821 0.18994 0.37894 0.0
C203 C 0.62213 0.16358 0.50145 0.0
C204 C 0.54441 0.06683 0.46542 0.0
C205 C 0.62912 0.16417 0.36921 0.0
O206 O 0.60667 0.1351 0.48303 0.0
O207 O 0.61972 0.18801 0.48794 0.0
O208 O 0.54067 0.10547 0.38579 0.0
O209 O 0.56197 0.14939 0.42728 0.0
Co210 Co 0.7952 0.54302 0.71929 0.0
O211 O 0.7861 0.57094 0.6822 0.0
O212 O 0.83252 0.58673 0.71866 0.0
C213 C 0.74713 0.52057 0.75794 0.0
O214 O 0.81332 0.52304 0.76294 0.0
Co215 Co 0.75526 0.46911 0.7128 0.0
O216 O 0.78341 0.46833 0.76144 0.0
C217 C 0.80429 0.5035 0.64455 0.0
C218 C 0.81494 0.59433 0.69338 0.0
C219 C 0.80695 0.49473 0.77671 0.0
O220 O 0.81353 0.53041 0.66597 0.0
O221 O 0.77966 0.47635 0.6559 0.0
O222 O 0.77192 0.54856 0.76895 0.0
O223 O 0.751 0.50775 0.72158 0.0
Co224 Co 0.44494 0.23847 0.72555 0.0
O225 O 0.41426 0.20182 0.68982 0.0
O226 O 0.40219 0.23469 0.72772 0.0
C227 C 0.46718 0.21167 0.76278 0.0
O228 O 0.46873 0.27705 0.76806 0.0
Co229 Co 0.51796 0.26781 0.71026 0.0
O230 O 0.52272 0.3 0.75659 0.0
C231 C 0.48246 0.28337 0.64607 0.0
C232 C 0.39246 0.20931 0.70196 0.0
C233 C 0.49843 0.29882 0.77672 0.0
O234 O 0.45707 0.269 0.67155 0.0
O235 O 0.50867 0.28269 0.65315 0.0
O236 O 0.44001 0.20973 0.77554 0.0
O237 O 0.47846 0.22706 0.72517 0.0
Co238 Co 0.76406 0.21315 0.71654 0.0
O239 O 0.79937 0.221 0.67659 0.0
O240 O 0.76879 0.17477 0.71332 0.0
C241 C 0.79173 0.26078 0.75519 0.0
O242 O 0.72698 0.19683 0.76245 0.0
Co243 Co 0.73472 0.25941 0.71349 0.0
O244 O 0.70776 0.23183 0.76366 0.0
C245 C 0.71506 0.20811 0.64515 0.0
C246 C 0.7934 0.19186 0.68682 0.0
C247 C 0.7075 0.20623 0.77771 0.0
O248 O 0.73123 0.19652 0.66529 0.0
O249 O 0.71566 0.23441 0.65689 0.0
O250 O 0.7957 0.23616 0.76423 0.0
O251 O 0.77409 0.257 0.72019 0.0
Co252 Co 0.44656 0.20971 0.22404 0.0
O253 O 0.41913 0.2173 0.18365 0.0
O254 O 0.40528 0.16988 0.21588 0.0
C255 C 0.46127 0.25532 0.26537 0.0
O256 O 0.46675 0.19193 0.26894 0.0
Co257 Co 0.52055 0.25749 0.23766 0.0
O258 O 0.51746 0.23038 0.28931 0.0
C259 C 0.49732 0.20783 0.16393 0.0
C260 C 0.39702 0.18709 0.1909 0.0
C261 C 0.4929 0.20182 0.29254 0.0
O262 O 0.46718 0.1986 0.17239 0.0
O263 O 0.52088 0.22948 0.18745 0.0
O264 O 0.4336 0.2288 0.27237 0.0
O265 O 0.47826 0.25398 0.23247 0.0
Co266 Co 0.79219 0.23636 0.22215 0.0
O267 O 0.78375 0.19956 0.18506 0.0
O268 O 0.83117 0.23278 0.21771 0.0
C269 C 0.74575 0.20889 0.26329 0.0
O270 O 0.80997 0.27632 0.26345 0.0
Co271 Co 0.74496 0.26441 0.22233 0.0
O272 O 0.77226 0.29173 0.27253 0.0
C273 C 0.79415 0.28276 0.14997 0.0
C274 C 0.81364 0.20703 0.19327 0.0
C275 C 0.79996 0.29463 0.28125 0.0
O276 O 0.80591 0.26619 0.16825 0.0
O277 O 0.76894 0.28328 0.16463 0.0
O278 O 0.7714 0.2067 0.27265 0.0
O279 O 0.7482 0.22545 0.22766 0.0
Co280 Co 0.75847 0.55335 0.23031 0.0
O281 O 0.79516 0.58182 0.19269 0.0
O282 O 0.76478 0.5972 0.23036 0.0
C283 C 0.78461 0.53053 0.26726 0.0
O284 O 0.71979 0.53213 0.2736 0.0
Co285 Co 0.72593 0.47867 0.22173 0.0
O286 O 0.69343 0.47752 0.26502 0.0
C287 C 0.71172 0.51413 0.15403 0.0
C288 C 0.78951 0.60501 0.20401 0.0
C289 C 0.6964 0.50323 0.28301 0.0
O290 O 0.7272 0.54053 0.17737 0.0
O291 O 0.71139 0.48765 0.16356 0.0
O292 O 0.78809 0.55843 0.27955 0.0
O293 O 0.76748 0.51842 0.23122 0.0
Co294 Co 0.54915 0.12226 0.9394 0.0
O295 O 0.56092 0.09605 0.97623 0.0
O296 O 0.5124 0.07828 0.94505 0.0
C297 C 0.59552 0.14397 0.89597 0.0
O298 O 0.52763 0.14009 0.89685 0.0
Co299 Co 0.58919 0.19662 0.93827 0.0
O300 O 0.55716 0.1948 0.89454 0.0
C301 C 0.54375 0.16515 0.01264 0.0
C302 C 0.53157 0.07204 0.96903 0.0
C303 C 0.53294 0.1679 0.88202 0.0
O304 O 0.53455 0.13683 0.99524 0.0
O305 O 0.56569 0.19162 0.99486 0.0
O306 O 0.57039 0.11554 0.88737 0.0
O307 O 0.59279 0.15767 0.93202 0.0
Co308 Co 0.88687 0.42463 0.93943 0.0
O309 O 0.91515 0.4581 0.98103 0.0
O310 O 0.92884 0.42654 0.94303 0.0
C311 C 0.87174 0.45793 0.90474 0.0
O312 O 0.86491 0.38872 0.89226 0.0
Co313 Co 0.81231 0.40055 0.9358 0.0
O314 O 0.81246 0.37569 0.88242 0.0
C315 C 0.8384 0.37508 0.00564 0.0
C316 C 0.93749 0.45114 0.97005 0.0
C317 C 0.83698 0.37257 0.87259 0.0
O318 O 0.86738 0.39055 0.98853 0.0
O319 O 0.8145 0.37837 0.99198 0.0
O320 O 0.89831 0.45801 0.89353 0.0
O321 O 0.85574 0.43811 0.9369 0.0
Co322 Co 0.57742 0.45891 0.93101 0.0
O323 O 0.54077 0.45158 0.96754 0.0
O324 O 0.57146 0.49656 0.92822 0.0
C325 C 0.55172 0.40941 0.89574 0.0
O326 O 0.6157 0.47431 0.88759 0.0
Co327 Co 0.60936 0.41769 0.94771 0.0
O328 O 0.63965 0.44417 0.89927 0.0
C329 C 0.6248 0.47074 0.00883 0.0
C330 C 0.54675 0.48026 0.95494 0.0
C331 C 0.63763 0.46662 0.87863 0.0
O332 O 0.60842 0.47953 0.98375 0.0
O333 O 0.62599 0.44471 0.00253 0.0
O334 O 0.54846 0.43371 0.88228 0.0
O335 O 0.56772 0.41454 0.93303 0.0
Co336 Co 0.54325 0.7848 0.7802 0.0
O337 O 0.5693 0.77312 0.81752 0.0
O338 O 0.58761 0.82084 0.78362 0.0
C339 C 0.51939 0.7381 0.73804 0.0
O340 O 0.52559 0.80573 0.73752 0.0
Co341 Co 0.46864 0.74661 0.78487 0.0
O342 O 0.47075 0.77937 0.7413 0.0
C343 C 0.50347 0.79273 0.85593 0.0
C344 C 0.59368 0.80195 0.80849 0.0
C345 C 0.49773 0.80176 0.7257 0.0
O346 O 0.53037 0.80252 0.83412 0.0
O347 O 0.47635 0.76819 0.84417 0.0
O348 O 0.54849 0.76203 0.72925 0.0
O349 O 0.50665 0.74161 0.77467 0.0
Co350 Co 0.21995 0.76149 0.78266 0.0
O351 O 0.22852 0.79467 0.82688 0.0
O352 O 0.18211 0.76676 0.78935 0.0
C353 C 0.26703 0.79038 0.74406 0.0
O354 O 0.20294 0.72697 0.7331 0.0
Co355 Co 0.26443 0.73037 0.7761 0.0
O356 O 0.2372 0.70723 0.72349 0.0
C357 C 0.21442 0.70855 0.84694 0.0
C358 C 0.19965 0.78996 0.8176 0.0
C359 C 0.21172 0.70845 0.7129 0.0
O360 O 0.20327 0.72625 0.83045 0.0
O361 O 0.2399 0.70867 0.83223 0.0
O362 O 0.24275 0.79542 0.73791 0.0
O363 O 0.26342 0.77082 0.77668 0.0
Co364 Co 0.23929 0.46185 0.77655 0.0
O365 O 0.20669 0.43643 0.8207 0.0
O366 O 0.23324 0.41842 0.77873 0.0
C367 C 0.21128 0.48275 0.74185 0.0
O368 O 0.27306 0.48018 0.72634 0.0
Co369 Co 0.27205 0.53783 0.7769 0.0
O370 O 0.29419 0.53465 0.72257 0.0
C371 C 0.29422 0.50574 0.84119 0.0
C372 C 0.21089 0.41243 0.80856 0.0
C373 C 0.29224 0.50824 0.70864 0.0
O374 O 0.27527 0.47772 0.82315 0.0
O375 O 0.29492 0.53213 0.82961 0.0
O376 O 0.20491 0.45323 0.73354 0.0
O377 O 0.23115 0.49695 0.77487 0.0
Co378 Co 0.46559 0.89204 0.07091 0.0
O379 O 0.45802 0.91914 0.02977 0.0
O380 O 0.505 0.93408 0.06405 0.0
C381 C 0.41941 0.87551 0.11153 0.0
O382 O 0.48266 0.87176 0.11643 0.0
Co383 Co 0.41749 0.81693 0.07724 0.0
O384 O 0.44629 0.81834 0.12638 0.0
C385 C 0.46615 0.84345 0.00403 0.0
C386 C 0.48789 0.94176 0.03786 0.0
C387 C 0.47351 0.84384 0.13489 0.0
O388 O 0.479 0.87257 0.02033 0.0
O389 O 0.44041 0.81886 0.0198 0.0
O390 O 0.44508 0.9038 0.11878 0.0
O391 O 0.42142 0.85962 0.07767 0.0
Co392 Co 0.11864 0.57132 0.06289 0.0
O393 O 0.09182 0.53542 0.02339 0.0
O394 O 0.07658 0.56839 0.054 0.0
C395 C 0.13431 0.54295 0.10772 0.0
O396 O 0.13935 0.61007 0.10634 0.0
Co397 Co 0.19364 0.59701 0.06905 0.0
O398 O 0.19245 0.62543 0.11692 0.0
C399 C 0.16766 0.61751 0.99353 0.0
C400 C 0.06908 0.54268 0.02981 0.0
C401 C 0.1675 0.62829 0.12476 0.0
O402 O 0.13871 0.60267 0.01069 0.0
O403 O 0.19183 0.61565 0.00945 0.0
O404 O 0.10604 0.54067 0.11286 0.0
O405 O 0.15044 0.55924 0.07287 0.0
Co406 Co 0.43639 0.55146 0.05244 0.0
O407 O 0.47115 0.55808 0.0125 0.0
O408 O 0.43931 0.51205 0.04906 0.0
C409 C 0.46519 0.59836 0.09156 0.0
O410 O 0.39913 0.53657 0.09797 0.0
Co411 Co 0.40994 0.59977 0.04786 0.0
O412 O 0.37997 0.57156 0.09539 0.0
C413 C 0.38863 0.54811 0.98023 0.0
C414 C 0.46394 0.52851 0.02226 0.0
C415 C 0.37932 0.54619 0.11119 0.0
O416 O 0.40394 0.53588 0.00096 0.0
O417 O 0.39013 0.57491 0.99141 0.0
O418 O 0.46789 0.57301 0.10069 0.0
O419 O 0.44846 0.59589 0.05601 0.0
Co420 Co 0.12542 0.5569 0.55287 0.0
O421 O 0.09929 0.56241 0.50794 0.0
O422 O 0.08274 0.51794 0.54929 0.0
C423 C 0.14243 0.60669 0.58518 0.0
O424 O 0.14492 0.54291 0.60303 0.0
Co425 Co 0.20047 0.60429 0.5562 0.0
O426 O 0.19844 0.57974 0.61112 0.0
C427 C 0.17286 0.54961 0.49108 0.0
C428 C 0.07605 0.53357 0.51909 0.0
C429 C 0.17272 0.55352 0.6225 0.0
O430 O 0.14401 0.53866 0.50757 0.0
O431 O 0.1976 0.57682 0.503 0.0
O432 O 0.11474 0.58129 0.59571 0.0
O433 O 0.15819 0.60123 0.55419 0.0
Co434 Co 0.45061 0.57407 0.55407 0.0
O435 O 0.44347 0.53783 0.51668 0.0
O436 O 0.48705 0.56647 0.55952 0.0
C437 C 0.39992 0.54947 0.58667 0.0
O438 O 0.46591 0.61127 0.59885 0.0
Co439 Co 0.41263 0.60907 0.53605 0.0
O440 O 0.43823 0.63767 0.58661 0.0
C441 C 0.46702 0.62415 0.47811 0.0
C442 C 0.47124 0.54246 0.53166 0.0
C443 C 0.4594 0.63395 0.60802 0.0
O444 O 0.4741 0.60641 0.50326 0.0
O445 O 0.44122 0.62598 0.48293 0.0
O446 O 0.42305 0.54458 0.6009 0.0
O447 O 0.40677 0.56622 0.5498 0.0
Co448 Co 0.43067 0.88467 0.55921 0.0
O449 O 0.46495 0.91148 0.51766 0.0
O450 O 0.43332 0.92666 0.5526 0.0
C451 C 0.46042 0.86873 0.60027 0.0
O452 O 0.39405 0.86387 0.60556 0.0
Co453 Co 0.40515 0.8095 0.56308 0.0
O454 O 0.38018 0.81108 0.61536 0.0
C455 C 0.38154 0.8361 0.49195 0.0
C456 C 0.45811 0.93426 0.52636 0.0
C457 C 0.37743 0.83586 0.62496 0.0
O458 O 0.39714 0.86488 0.50943 0.0
O459 O 0.38401 0.81182 0.50597 0.0
O460 O 0.4632 0.89712 0.60642 0.0
O461 O 0.44279 0.85276 0.56619 0.0
Co462 Co 0.22255 0.45824 0.27632 0.0
O463 O 0.23428 0.43079 0.31036 0.0
O464 O 0.18583 0.41405 0.27947 0.0
C465 C 0.26872 0.48198 0.23293 0.0
O466 O 0.20141 0.47807 0.23726 0.0
Co467 Co 0.26269 0.53284 0.28301 0.0
O468 O 0.22886 0.53282 0.24373 0.0
C469 C 0.21637 0.49717 0.35459 0.0
C470 C 0.20489 0.40708 0.30247 0.0
C471 C 0.20564 0.50649 0.22781 0.0
O472 O 0.20677 0.47026 0.33299 0.0
O473 O 0.24032 0.52448 0.34196 0.0
O474 O 0.24399 0.4536 0.22307 0.0
O475 O 0.26601 0.49416 0.27055 0.0
Co476 Co 0.56383 0.76523 0.26944 0.0
O477 O 0.59238 0.79923 0.31 0.0
O478 O 0.60627 0.76829 0.27053 0.0
C479 C 0.54486 0.79524 0.2346 0.0
O480 O 0.54048 0.72813 0.22368 0.0
Co481 Co 0.48867 0.73786 0.27463 0.0
O482 O 0.48746 0.71452 0.21904 0.0
C483 C 0.52082 0.71582 0.33996 0.0
C484 C 0.61457 0.79211 0.29884 0.0
C485 C 0.51165 0.71172 0.20625 0.0
O486 O 0.5483 0.7322 0.31958 0.0
O487 O 0.49506 0.71682 0.32939 0.0
O488 O 0.57274 0.79813 0.22363 0.0
O489 O 0.53105 0.77667 0.26889 0.0
Co490 Co 0.24335 0.7905 0.27486 0.0
O491 O 0.20618 0.78008 0.31223 0.0
O492 O 0.23836 0.82852 0.28143 0.0
C493 C 0.21659 0.74484 0.2321 0.0
O494 O 0.28346 0.81007 0.23375 0.0
Co495 Co 0.27316 0.74491 0.27142 0.0
O496 O 0.29937 0.77309 0.22116 0.0
C497 C 0.2904 0.79228 0.34597 0.0
C498 C 0.21266 0.80979 0.30533 0.0
C499 C 0.30193 0.80087 0.21442 0.0
O500 O 0.27318 0.8037 0.32877 0.0
O501 O 0.29173 0.76785 0.32992 0.0
O502 O 0.21394 0.77037 0.22396 0.0
O503 O 0.2335 0.74702 0.26728 0.0
C504 C 0.17142 0.01481 0.05101 0.0
C505 C 0.17791 0.04512 0.03222 0.0
C506 C 0.1549 0.01798 0.96056 0.0
C507 C 0.145 0.98725 0.98068 0.0
N508 N 0.14147 0.95547 0.04554 0.0
N509 N 0.17131 0.07463 0.97137 0.0
C510 C 0.1528 0.98537 0.02603 0.0
C511 C 0.16866 0.04645 0.98747 0.0
N512 N 0.18387 0.01435 0.09214 0.0
N513 N 0.15171 0.02009 0.91533 0.0
H514 H 0.18095 0.09566 0.99056 0.0
H515 H 0.16126 0.07631 0.94113 0.0
H516 H 0.14131 0.9998 0.89426 0.0
H517 H 0.16205 0.04215 0.898 0.0
H518 H 0.18289 0.99366 0.10591 0.0
H519 H 0.19758 0.03541 0.11117 0.0
H520 H 0.14317 0.95216 0.07968 0.0
H521 H 0.12839 0.93364 0.02782 0.0
C522 C 0.98011 0.12227 0.03714 0.0
C523 C 0.95903 0.13542 0.04094 0.0
C524 C 0.99559 0.17988 0.99054 0.0
C525 C 0.01768 0.16765 0.99038 0.0
N526 N 0.03591 0.13485 0.02932 0.0
N527 N 0.95456 0.18413 0.03365 0.0
C528 C 0.0118 0.14179 0.01971 0.0
C529 C 0.96913 0.16658 0.02156 0.0
N530 N 0.96893 0.09005 0.04469 0.0
N531 N 0.99834 0.20267 0.96011 0.0
H532 H 0.93718 0.17678 0.05906 0.0
H533 H 0.96293 0.20794 0.0226 0.0
H534 H 0.0167 0.21298 0.93612 0.0
H535 H 0.98047 0.20928 0.95642 0.0
H536 H 0.98323 0.07918 0.04004 0.0
H537 H 0.94413 0.0737 0.04657 0.0
H538 H 0.03283 0.1172 0.05283 0.0
H539 H 0.05975 0.14914 0.0175 0.0
C540 C 0.82523 0.81663 0.99199 0.0
C541 C 0.83719 0.85086 0.99191 0.0
C542 C 0.87993 0.85846 0.04425 0.0
C543 C 0.86686 0.82414 0.04759 0.0
N544 N 0.81831 0.77114 0.03695 0.0
N545 N 0.86733 0.90144 0.03276 0.0
C546 C 0.83673 0.80328 0.02534 0.0
C547 C 0.8613 0.87063 0.02359 0.0
N548 N 0.80441 0.79688 0.95947 0.0
N549 N 0.91142 0.87973 0.05575 0.0
H550 H 0.85351 0.91085 0.01879 0.0
H551 H 0.88345 0.91585 0.0579 0.0
H552 H 0.92787 0.87176 0.06106 0.0
H553 H 0.92231 0.90493 0.0514 0.0
H554 H 0.79805 0.77244 0.95618 0.0
H555 H 0.79579 0.80523 0.93356 0.0
H556 H 0.7952 0.75584 0.02347 0.0
H557 H 0.82387 0.76105 0.06424 0.0
C558 C 0.99879 0.14524 0.47016 0.0
C559 C 0.99857 0.16224 0.50923 0.0
C560 C 0.04507 0.21256 0.47996 0.0
C561 C 0.0491 0.19394 0.44585 0.0
N562 N 0.0187 0.14929 0.39451 0.0
N563 N 0.01902 0.21289 0.5498 0.0
C564 C 0.02274 0.1621 0.43658 0.0
C565 C 0.02061 0.19633 0.5133 0.0
N566 N 0.97621 0.11285 0.46531 0.0
N567 N 0.06265 0.2459 0.47804 0.0
H568 H 0.99992 0.20259 0.5728 0.0
H569 H 0.03717 0.23644 0.55823 0.0
H570 H 0.07736 0.25832 0.45068 0.0
H571 H 0.05938 0.26118 0.49987 0.0
H572 H 0.97796 0.09793 0.44112 0.0
H573 H 0.95626 0.10051 0.48673 0.0
H574 H 0.99885 0.12697 0.38502 0.0
H575 H 0.03211 0.16314 0.36713 0.0
C576 C 0.81471 0.83403 0.48027 0.0
C577 C 0.83475 0.86464 0.45884 0.0
C578 C 0.88256 0.86216 0.48504 0.0
C579 C 0.86296 0.8374 0.51605 0.0
N580 N 0.8086 0.80169 0.54587 0.0
N581 N 0.88948 0.91091 0.45095 0.0
C582 C 0.82843 0.82346 0.51424 0.0
C583 C 0.86925 0.87934 0.46309 0.0
N584 N 0.78295 0.8145 0.46745 0.0
N585 N 0.91419 0.87007 0.47758 0.0
H586 H 0.88049 0.92615 0.44305 0.0
H587 H 0.91465 0.92312 0.45643 0.0
H588 H 0.92454 0.85748 0.49266 0.0
H589 H 0.92859 0.88652 0.45275 0.0
H590 H 0.76829 0.79101 0.48016 0.0
H591 H 0.77278 0.81985 0.44003 0.0
H592 H 0.78373 0.79389 0.54796 0.0
H593 H 0.81708 0.79363 0.57228 0.0
C594 C 0.14911 0.98498 0.44006 0.0
C595 C 0.15115 0.95727 0.45409 0.0
C596 C 0.17642 0.98457 0.52465 0.0
C597 C 0.16855 0.009 0.51423 0.0
N598 N 0.159 0.03951 0.45813 0.0
N599 N 0.18498 0.94164 0.49576 0.0
C600 C 0.15842 0.0114 0.4705 0.0
C601 C 0.17039 0.96022 0.49226 0.0
N602 N 0.13983 0.9866 0.39727 0.0
N603 N 0.18906 0.98429 0.56564 0.0
H604 H 0.1853 0.9274 0.46932 0.0
H605 H 0.2009 0.94417 0.52157 0.0
H606 H 0.19631 0.00332 0.5886 0.0
H607 H 0.19116 0.96468 0.5774 0.0
H608 H 0.13377 0.00371 0.38607 0.0
H609 H 0.14022 0.97174 0.37177 0.0
H610 H 0.15219 0.04373 0.42686 0.0
H611 H 0.16882 0.05999 0.47889 0.0
C612 C 0.85403 0.00695 0.96873 0.0
C613 C 0.84655 0.00408 0.01497 0.0
C614 C 0.80964 0.94568 0.00635 0.0
C615 C 0.8146 0.94849 0.95915 0.0
N616 N 0.83471 0.9846 0.89486 0.0
N617 N 0.8086 0.97351 0.0736 0.0
C618 C 0.83489 0.97996 0.93998 0.0
C619 C 0.82136 0.97438 0.03232 0.0
N620 N 0.87944 0.03525 0.95235 0.0
N621 N 0.79618 0.91604 0.02729 0.0
H622 H 0.81584 0.99464 0.09246 0.0
H623 H 0.78843 0.95263 0.08638 0.0
H624 H 0.79098 0.89451 0.01098 0.0
H625 H 0.79465 0.91366 0.06204 0.0
H626 H 0.88827 0.03743 0.91981 0.0
H627 H 0.89287 0.05592 0.97225 0.0
H628 H 0.84708 0.00759 0.87997 0.0
H629 H 0.81921 0.96623 0.87288 0.0
C630 C 0.99163 0.85342 0.97732 0.0
C631 C 0.99204 0.8376 0.01749 0.0
C632 C 0.03696 0.83157 0.98761 0.0
C633 C 0.0421 0.85459 0.95353 0.0
N634 N 0.01769 0.87879 0.9073 0.0
N635 N 0.01405 0.80971 0.06037 0.0
C636 C 0.01733 0.86282 0.94552 0.0
C637 C 0.01408 0.82568 0.02226 0.0
N638 N 0.96564 0.85785 0.96875 0.0
N639 N 0.0523 0.81363 0.98505 0.0
H640 H 0.99658 0.80316 0.08546 0.0
H641 H 0.03246 0.80449 0.06808 0.0
H642 H 0.06603 0.81456 0.95717 0.0
H643 H 0.04765 0.79466 0.00698 0.0
H644 H 0.96208 0.86683 0.93878 0.0
H645 H 0.94581 0.84988 0.9905 0.0
H646 H 0.00511 0.89149 0.90361 0.0
H647 H 0.02896 0.87755 0.87805 0.0
C648 C 0.1403 0.19454 0.00707 0.0
C649 C 0.14272 0.19532 0.95956 0.0
C650 C 0.17246 0.16504 0.96371 0.0
C651 C 0.1684 0.16325 0.01071 0.0
N652 N 0.16346 0.1893 0.07661 0.0
N653 N 0.16914 0.18943 0.89374 0.0
C654 C 0.1571 0.18221 0.03223 0.0
C655 C 0.16105 0.18278 0.93798 0.0
N656 N 0.12036 0.20346 0.0284 0.0
N657 N 0.18827 0.15082 0.94413 0.0
H658 H 0.16301 0.204 0.87457 0.0
H659 H 0.18435 0.18303 0.87678 0.0
H660 H 0.20253 0.14414 0.96297 0.0
H661 H 0.18805 0.14663 0.90988 0.0
H662 H 0.11565 0.20019 0.06267 0.0
H663 H 0.10551 0.21045 0.01168 0.0
H664 H 0.15841 0.20561 0.09339 0.0
H665 H 0.1774 0.18185 0.09494 0.0
C666 C 0.96039 0.81514 0.50674 0.0
C667 C 0.9628 0.81942 0.55403 0.0
C668 C 0.02149 0.85893 0.54549 0.0
C669 C 0.01917 0.85167 0.49915 0.0
N670 N 0.9881 0.8151 0.43899 0.0
N671 N 0.99813 0.8397 0.61903 0.0
C672 C 0.98925 0.82705 0.48099 0.0
C673 C 0.99407 0.8398 0.57375 0.0
N674 N 0.93082 0.802 0.48556 0.0
N675 N 0.0498 0.88396 0.56252 0.0
H676 H 0.97936 0.82456 0.64075 0.0
H677 H 0.02093 0.85194 0.63451 0.0
H678 H 0.0708 0.89716 0.54313 0.0
H679 H 0.05175 0.89273 0.59505 0.0
H680 H 0.92855 0.80122 0.45079 0.0
H681 H 0.90915 0.7963 0.5019 0.0
H682 H 0.96718 0.79503 0.42608 0.0
H683 H 0.00872 0.82297 0.4189 0.0
C684 C 0.13777 0.12574 0.47807 0.0
C685 C 0.14323 0.15771 0.485 0.0
C686 C 0.17817 0.16309 0.54939 0.0
C687 C 0.16823 0.12934 0.54584 0.0
N688 N 0.12927 0.07716 0.51471 0.0
N689 N 0.16575 0.20593 0.53139 0.0
C690 C 0.14525 0.11026 0.51259 0.0
C691 C 0.16283 0.17636 0.52175 0.0
N692 N 0.12657 0.11036 0.43781 0.0
N693 N 0.20203 0.18236 0.57918 0.0
H694 H 0.15455 0.21604 0.5123 0.0
H695 H 0.17706 0.21915 0.56025 0.0
H696 H 0.21238 0.17308 0.60144 0.0
H697 H 0.21274 0.2077 0.57999 0.0
H698 H 0.12484 0.08797 0.43048 0.0
H699 H 0.12307 0.12171 0.41011 0.0
H700 H 0.11043 0.06217 0.49288 0.0
H701 H 0.13197 0.06535 0.54199 0.0
C702 C 0.89238 0.02887 0.53921 0.0
C703 C 0.87637 0.04747 0.5428 0.0
C704 C 0.83475 0.00966 0.48975 0.0
C705 C 0.8503 0.99064 0.48853 0.0
N706 N 0.88538 0.97526 0.52699 0.0
N707 N 0.82474 0.04618 0.53479 0.0
C708 C 0.87599 0.99778 0.5188 0.0
C709 C 0.84515 0.03503 0.52214 0.0
N710 N 0.92436 0.04186 0.55044 0.0
N711 N 0.81116 0.00472 0.45932 0.0
H712 H 0.82992 0.0619 0.56187 0.0
H713 H 0.80092 0.03623 0.52275 0.0
H714 H 0.80265 0.98645 0.43508 0.0
H715 H 0.80186 0.0205 0.45623 0.0
H716 H 0.93744 0.02972 0.5455 0.0
H717 H 0.93887 0.06647 0.55674 0.0
H718 H 0.90272 0.97874 0.55125 0.0
H719 H 0.87302 0.95179 0.51332 0.0
C720 C 0.83288 0.32297 0.35037 0.0
C721 C 0.82353 0.32461 0.30579 0.0
C722 C 0.8501 0.38437 0.31084 0.0
C723 C 0.85852 0.38269 0.35603 0.0
N724 N 0.86522 0.35206 0.41548 0.0
N725 N 0.82964 0.35658 0.23987 0.0
C726 C 0.85197 0.35241 0.37491 0.0
C727 C 0.83425 0.35531 0.2849 0.0
N728 N 0.82287 0.29321 0.36945 0.0
N729 N 0.85576 0.41348 0.29328 0.0
H730 H 0.81749 0.33576 0.21998 0.0
H731 H 0.84016 0.37806 0.22126 0.0
H732 H 0.86724 0.43544 0.31081 0.0
H733 H 0.84691 0.41577 0.26241 0.0
H734 H 0.82495 0.28971 0.40342 0.0
H735 H 0.81138 0.27164 0.35105 0.0
H736 H 0.8641 0.33135 0.42941 0.0
H737 H 0.87992 0.37321 0.43385 0.0
C738 C 0.64525 0.48109 0.38906 0.0
C739 C 0.61406 0.47114 0.36961 0.0
C740 C 0.64172 0.4962 0.29898 0.0
C741 C 0.67087 0.49879 0.31546 0.0
N742 N 0.70059 0.49221 0.37615 0.0
N743 N 0.5831 0.46435 0.30134 0.0
C744 C 0.67274 0.49079 0.36057 0.0
C745 C 0.61234 0.47765 0.32334 0.0
N746 N 0.64922 0.48318 0.43447 0.0
N747 N 0.64207 0.51143 0.26002 0.0
H748 H 0.56085 0.44784 0.31583 0.0
H749 H 0.58144 0.46642 0.26681 0.0
H750 H 0.6637 0.5262 0.24257 0.0
H751 H 0.62179 0.51234 0.24819 0.0
H752 H 0.67199 0.49267 0.44983 0.0
H753 H 0.6307 0.47962 0.45663 0.0
H754 H 0.70196 0.48308 0.40734 0.0
H755 H 0.72168 0.50086 0.35672 0.0
C756 C 0.52366 0.14434 0.32004 0.0
C757 C 0.52532 0.14644 0.36763 0.0
C758 C 0.49951 0.18041 0.36631 0.0
C759 C 0.49768 0.17807 0.31904 0.0
N760 N 0.49974 0.15083 0.25182 0.0
N761 N 0.50427 0.15671 0.43571 0.0
C762 C 0.50674 0.15745 0.29632 0.0
C763 C 0.51007 0.16157 0.39074 0.0
N764 N 0.53999 0.1319 0.29699 0.0
N765 N 0.49174 0.2011 0.38784 0.0
H766 H 0.50958 0.14125 0.45425 0.0
H767 H 0.49073 0.16481 0.45351 0.0
H768 H 0.48234 0.21395 0.37107 0.0
H769 H 0.49635 0.20685 0.42172 0.0
H770 H 0.54309 0.13374 0.26239 0.0
H771 H 0.55312 0.12229 0.31217 0.0
H772 H 0.50253 0.13322 0.2346 0.0
H773 H 0.48809 0.16052 0.23296 0.0
C774 C 0.66429 0.46091 0.81068 0.0
C775 C 0.66032 0.48191 0.84039 0.0
C776 C 0.70617 0.52833 0.80331 0.0
C777 C 0.7154 0.5068 0.78301 0.0
N778 N 0.70449 0.45109 0.77735 0.0
N779 N 0.67943 0.53689 0.86675 0.0
C780 C 0.69449 0.47257 0.78854 0.0
C781 C 0.68157 0.5161 0.83704 0.0
N782 N 0.63954 0.42955 0.80461 0.0
N783 N 0.71971 0.55998 0.78931 0.0
H784 H 0.66173 0.52907 0.89176 0.0
H785 H 0.69684 0.56167 0.8684 0.0
H786 H 0.73533 0.56907 0.76182 0.0
H787 H 0.71195 0.57574 0.80109 0.0
H788 H 0.64067 0.41397 0.78084 0.0
H789 H 0.61666 0.42071 0.81954 0.0
H790 H 0.69068 0.4261 0.78384 0.0
H791 H 0.72844 0.45887 0.76902 0.0
C792 C 0.46333 0.16799 0.81694 0.0
C793 C 0.48269 0.1955 0.78878 0.0
C794 C 0.53001 0.18999 0.80852 0.0
C795 C 0.51292 0.16997 0.84524 0.0
N796 N 0.46225 0.14042 0.88599 0.0
N797 N 0.53787 0.23735 0.76986 0.0
C798 C 0.47911 0.15874 0.84984 0.0
C799 C 0.51693 0.20735 0.78675 0.0
N800 N 0.43028 0.14976 0.81129 0.0
N801 N 0.55967 0.19407 0.79638 0.0
H802 H 0.5305 0.25433 0.76609 0.0
H803 H 0.56318 0.2474 0.76956 0.0
H804 H 0.56966 0.18125 0.81191 0.0
H805 H 0.57217 0.2072 0.76795 0.0
H806 H 0.41575 0.12841 0.8293 0.0
H807 H 0.41815 0.15324 0.78459 0.0
H808 H 0.43835 0.13466 0.89306 0.0
H809 H 0.47289 0.1329 0.91033 0.0
C810 C 0.82417 0.31541 0.85837 0.0
C811 C 0.83122 0.34607 0.84088 0.0
C812 C 0.81824 0.32218 0.76558 0.0
C813 C 0.80541 0.29039 0.78442 0.0
N814 N 0.78931 0.25719 0.85171 0.0
N815 N 0.8325 0.37855 0.778 0.0
C816 C 0.80669 0.28706 0.83162 0.0
C817 C 0.8274 0.34942 0.79448 0.0
N818 N 0.83389 0.31316 0.90063 0.0
N819 N 0.82345 0.32682 0.7205 0.0
H820 H 0.84101 0.39942 0.79786 0.0
H821 H 0.82646 0.38137 0.74539 0.0
H822 H 0.81945 0.30813 0.6984 0.0
H823 H 0.83533 0.34986 0.70572 0.0
H824 H 0.83179 0.29165 0.91333 0.0
H825 H 0.84707 0.33344 0.92118 0.0
H826 H 0.78728 0.25425 0.88637 0.0
H827 H 0.77334 0.23595 0.83447 0.0
C828 C 0.47986 0.31443 0.36356 0.0
C829 C 0.50459 0.34368 0.34399 0.0
C830 C 0.49176 0.31659 0.27114 0.0
C831 C 0.47312 0.28571 0.29254 0.0
N832 N 0.45336 0.2557 0.36239 0.0
N833 N 0.53572 0.3725 0.2789 0.0
C834 C 0.46769 0.28463 0.33959 0.0
C835 C 0.51098 0.34479 0.29761 0.0
N836 N 0.46829 0.31496 0.40525 0.0
N837 N 0.49007 0.31931 0.22581 0.0
H838 H 0.54955 0.39388 0.2972 0.0
H839 H 0.54371 0.37343 0.24611 0.0
H840 H 0.47407 0.2998 0.20563 0.0
H841 H 0.50132 0.34169 0.20919 0.0
H842 H 0.44824 0.2947 0.41944 0.0
H843 H 0.47663 0.33643 0.42364 0.0
H844 H 0.45231 0.25445 0.39724 0.0
H845 H 0.44577 0.23316 0.34753 0.0
C846 C 0.71612 0.19189 0.33811 0.0
C847 C 0.71512 0.19266 0.29048 0.0
C848 C 0.65574 0.17028 0.29387 0.0
C849 C 0.65682 0.16841 0.34105 0.0
N850 N 0.68615 0.16675 0.40604 0.0
N851 N 0.68188 0.17101 0.22392 0.0
C852 C 0.68638 0.17553 0.36243 0.0
C853 C 0.68426 0.17836 0.26851 0.0
N854 N 0.74502 0.20849 0.3607 0.0
N855 N 0.62772 0.1649 0.27325 0.0
H856 H 0.70173 0.17408 0.20491 0.0
H857 H 0.65958 0.15809 0.20729 0.0
H858 H 0.60635 0.15833 0.29098 0.0
H859 H 0.62651 0.16919 0.23926 0.0
H860 H 0.74633 0.21169 0.39532 0.0
H861 H 0.76747 0.2219 0.34499 0.0
H862 H 0.70671 0.16886 0.42209 0.0
H863 H 0.66468 0.15425 0.42465 0.0
C864 C 0.80294 0.46551 0.31042 0.0
C865 C 0.8308 0.48375 0.33781 0.0
C866 C 0.83318 0.53374 0.30929 0.0
C867 C 0.80116 0.51479 0.29113 0.0
N868 N 0.75247 0.46175 0.28924 0.0
N869 N 0.87028 0.53707 0.36747 0.0
C870 C 0.78529 0.48036 0.29511 0.0
C871 C 0.84564 0.51848 0.33827 0.0
N872 N 0.79262 0.4337 0.29991 0.0
N873 N 0.85228 0.56585 0.2979 0.0
H874 H 0.88014 0.52757 0.38997 0.0
H875 H 0.87899 0.56195 0.37196 0.0
H876 H 0.84518 0.57742 0.27447 0.0
H877 H 0.8767 0.57974 0.30754 0.0
H878 H 0.77355 0.42044 0.27747 0.0
H879 H 0.80533 0.42198 0.30962 0.0
H880 H 0.73954 0.43655 0.29444 0.0
H881 H 0.73806 0.47247 0.28773 0.0
C882 C 0.64676 0.19306 0.86557 0.0
C883 C 0.62631 0.15863 0.86826 0.0
C884 C 0.66201 0.15336 0.81281 0.0
C885 C 0.68359 0.18779 0.81408 0.0
N886 N 0.70204 0.23723 0.85707 0.0
N887 N 0.62288 0.10632 0.85522 0.0
C888 C 0.67806 0.20634 0.84638 0.0
C889 C 0.63641 0.13871 0.84522 0.0
N890 N 0.6351 0.21335 0.87556 0.0
N891 N 0.66458 0.13464 0.78008 0.0
H892 H 0.60647 0.09518 0.88146 0.0
H893 H 0.63135 0.09169 0.84137 0.0
H894 H 0.68259 0.14386 0.75552 0.0
H895 H 0.64701 0.11015 0.77543 0.0
H896 H 0.64897 0.23868 0.8722 0.0
H897 H 0.6102 0.20431 0.87729 0.0
H898 H 0.69917 0.25076 0.88245 0.0
H899 H 0.72564 0.24753 0.84402 0.0
C900 C 0.82771 0.47233 0.8892 0.0
C901 C 0.85895 0.47653 0.87931 0.0
C902 C 0.85997 0.50315 0.80845 0.0
C903 C 0.82625 0.49247 0.81411 0.0
N904 N 0.77838 0.46987 0.86132 0.0
N905 N 0.91027 0.51277 0.84348 0.0
C906 C 0.81028 0.47814 0.85511 0.0
C907 C 0.87689 0.49695 0.84293 0.0
N908 N 0.81622 0.46606 0.93215 0.0
N909 N 0.8755 0.51795 0.76952 0.0
H910 H 0.92338 0.51259 0.87144 0.0
H911 H 0.92495 0.52987 0.81958 0.0
H912 H 0.86477 0.52498 0.74474 0.0
H913 H 0.89853 0.52188 0.76079 0.0
H914 H 0.79454 0.4648 0.94222 0.0
H915 H 0.83076 0.4672 0.95911 0.0
H916 H 0.764 0.45519 0.88752 0.0
H917 H 0.76577 0.47667 0.83915 0.0
C918 C 0.54807 0.35638 0.86781 0.0
C919 C 0.53431 0.37703 0.87207 0.0
C920 C 0.49225 0.34285 0.81701 0.0
C921 C 0.50586 0.32213 0.8142 0.0
N922 N 0.53728 0.30181 0.85158 0.0
N923 N 0.48504 0.38034 0.86414 0.0
C924 C 0.53045 0.32635 0.84484 0.0
C925 C 0.50376 0.36732 0.85083 0.0
N926 N 0.57904 0.36625 0.88161 0.0
N927 N 0.46945 0.34032 0.78675 0.0
H928 H 0.49105 0.39585 0.89171 0.0
H929 H 0.46159 0.37228 0.85179 0.0
H930 H 0.46005 0.32266 0.76168 0.0
H931 H 0.46169 0.3574 0.78472 0.0
H932 H 0.5908 0.35294 0.87554 0.0
H933 H 0.59442 0.38963 0.89276 0.0
H934 H 0.55345 0.30293 0.87623 0.0
H935 H 0.52382 0.27898 0.83634 0.0
C936 C 0.50975 0.67449 0.65132 0.0
C937 C 0.4753 0.65583 0.64676 0.0
C938 C 0.46921 0.69027 0.70177 0.0
C939 C 0.50354 0.70793 0.70928 0.0
N940 N 0.55402 0.70677 0.70229 0.0
N941 N 0.42288 0.6384 0.68093 0.0
C942 C 0.52318 0.69701 0.68744 0.0
C943 C 0.4553 0.661 0.67687 0.0
N944 N 0.5298 0.67198 0.62063 0.0
N945 N 0.45008 0.70293 0.71359 0.0
H946 H 0.41216 0.6161 0.66398 0.0
H947 H 0.40792 0.64034 0.70497 0.0
H948 H 0.46035 0.72707 0.72274 0.0
H949 H 0.42521 0.69169 0.70616 0.0
H950 H 0.55503 0.6877 0.62045 0.0
H951 H 0.52115 0.65621 0.59328 0.0
H952 H 0.56832 0.69766 0.6892 0.0
H953 H 0.56326 0.72016 0.73164 0.0
C954 C 0.35452 0.8245 0.70298 0.0
C955 C 0.35142 0.83043 0.65722 0.0
C956 C 0.29278 0.80845 0.66751 0.0
C957 C 0.29624 0.80508 0.71429 0.0
N958 N 0.33293 0.81987 0.77764 0.0
N959 N 0.3193 0.83616 0.59886 0.0
C960 C 0.32787 0.81603 0.73246 0.0
C961 C 0.32119 0.82544 0.64063 0.0
N962 N 0.38264 0.82636 0.71825 0.0
N963 N 0.26263 0.79337 0.64774 0.0
H964 H 0.33944 0.8483 0.57777 0.0
H965 H 0.29839 0.83581 0.58698 0.0
H966 H 0.2411 0.77787 0.66471 0.0
H967 H 0.25934 0.79259 0.61317 0.0
H968 H 0.38486 0.81886 0.75023 0.0
H969 H 0.40285 0.83302 0.69776 0.0
H970 H 0.3561 0.83044 0.79205 0.0
H971 H 0.31466 0.81628 0.80033 0.0
C972 C 0.18039 0.50617 0.63841 0.0
C973 C 0.17674 0.53221 0.65502 0.0
C974 C 0.18958 0.5216 0.7305 0.0
C975 C 0.1991 0.49977 0.71226 0.0
N976 N 0.21061 0.47791 0.64545 0.0
N977 N 0.18002 0.56672 0.71642 0.0
C978 C 0.19617 0.49356 0.66534 0.0
C979 C 0.18208 0.54062 0.70098 0.0
N980 N 0.16932 0.49369 0.59667 0.0
N981 N 0.186 0.52302 0.7757 0.0
H982 H 0.17275 0.57993 0.69612 0.0
H983 H 0.18729 0.5763 0.74851 0.0
H984 H 0.18907 0.50802 0.79835 0.0
H985 H 0.17639 0.53641 0.79032 0.0
H986 H 0.1686 0.47257 0.58497 0.0
H987 H 0.15795 0.50242 0.5754 0.0
H988 H 0.21159 0.47574 0.61083 0.0
H989 H 0.22568 0.4713 0.66234 0.0
C990 C 0.35852 0.85087 0.1194 0.0
C991 C 0.38952 0.86185 0.13991 0.0
C992 C 0.36256 0.83734 0.21113 0.0
C993 C 0.33161 0.8253 0.19022 0.0
N994 N 0.29967 0.82662 0.12857 0.0
N995 N 0.42109 0.8733 0.20813 0.0
C996 C 0.32946 0.83407 0.14558 0.0
C997 C 0.39158 0.85778 0.18671 0.0
N998 N 0.35693 0.85652 0.07481 0.0
N999 N 0.36429 0.82805 0.25398 0.0
H1000 H 0.44342 0.88639 0.19181 0.0
H1001 H 0.42349 0.87493 0.24284 0.0
H1002 H 0.34378 0.8146 0.27403 0.0
H1003 H 0.38586 0.83198 0.26897 0.0
H1004 H 0.33541 0.84573 0.05627 0.0
H1005 H 0.37753 0.87164 0.05571 0.0
H1006 H 0.29629 0.83447 0.09754 0.0
H1007 H 0.27826 0.81464 0.14735 0.0
C1008 C 0.16438 0.51269 0.12205 0.0
C1009 C 0.14758 0.52818 0.13955 0.0
C1010 C 0.16072 0.51881 0.2158 0.0
C1011 C 0.18245 0.50939 0.19763 0.0
N1012 N 0.20663 0.49865 0.13356 0.0
N1013 N 0.12973 0.54618 0.20445 0.0
C1014 C 0.18451 0.50634 0.15078 0.0
C1015 C 0.1451 0.53071 0.18685 0.0
N1016 N 0.15994 0.5027 0.07837 0.0
N1017 N 0.15527 0.51652 0.26095 0.0
H1018 H 0.11904 0.55674 0.18548 0.0
H1019 H 0.13022 0.55165 0.23829 0.0
H1020 H 0.16747 0.50917 0.28296 0.0
H1021 H 0.13689 0.51908 0.27623 0.0
H1022 H 0.16922 0.4887 0.06484 0.0
H1023 H 0.14375 0.50503 0.05701 0.0
H1024 H 0.21207 0.50004 0.09955 0.0
H1025 H 0.22121 0.49298 0.15359 0.0
C1026 C 0.51034 0.68719 0.1306 0.0
C1027 C 0.50367 0.68324 0.17712 0.0
C1028 C 0.47187 0.62365 0.16782 0.0
C1029 C 0.47924 0.6275 0.12128 0.0
N1030 N 0.51151 0.66208 0.06029 0.0
N1031 N 0.48297 0.6481 0.24169 0.0
C1032 C 0.50017 0.65907 0.10315 0.0
C1033 C 0.48607 0.65153 0.19618 0.0
N1034 N 0.52547 0.71779 0.11245 0.0
N1035 N 0.44988 0.59364 0.18472 0.0
H1036 H 0.49149 0.6679 0.2635 0.0
H1037 H 0.47425 0.62591 0.25826 0.0
H1038 H 0.43825 0.5725 0.1655 0.0
H1039 H 0.44056 0.58989 0.21711 0.0
H1040 H 0.52761 0.72232 0.07815 0.0
H1041 H 0.53409 0.73873 0.13201 0.0
H1042 H 0.52939 0.68408 0.0466 0.0
H1043 H 0.50536 0.64207 0.03956 0.0
C1044 C 0.13982 0.64111 0.64839 0.0
C1045 C 0.15649 0.63827 0.61072 0.0
C1046 C 0.20611 0.6884 0.63351 0.0
C1047 C 0.19137 0.68695 0.67572 0.0
N1048 N 0.14402 0.6604 0.72424 0.0
N1049 N 0.19845 0.66936 0.5566 0.0
C1050 C 0.158 0.6633 0.68317 0.0
C1051 C 0.18776 0.66489 0.59992 0.0
N1052 N 0.10644 0.62471 0.64929 0.0
N1053 N 0.23789 0.71183 0.62586 0.0
H1054 H 0.18342 0.65541 0.53031 0.0
H1055 H 0.22 0.68948 0.54552 0.0
H1056 H 0.25139 0.73101 0.64794 0.0
H1057 H 0.25147 0.71153 0.59861 0.0
H1058 H 0.09295 0.62783 0.67442 0.0
H1059 H 0.09238 0.61226 0.62149 0.0
H1060 H 0.12127 0.64076 0.73289 0.0
H1061 H 0.15595 0.67598 0.75099 0.0
C1062 C 0.33394 0.49704 0.67054 0.0
C1063 C 0.31357 0.51119 0.67019 0.0
C1064 C 0.34745 0.54895 0.61187 0.0
C1065 C 0.36741 0.53424 0.61044 0.0
N1066 N 0.36836 0.48434 0.62505 0.0
N1067 N 0.29367 0.54072 0.62693 0.0
C1068 C 0.35705 0.50503 0.63546 0.0
C1069 C 0.31761 0.53336 0.63566 0.0
N1070 N 0.33303 0.47768 0.70506 0.0
N1071 N 0.35812 0.57942 0.59551 0.0
H1072 H 0.27148 0.52974 0.64408 0.0
H1073 H 0.29466 0.55492 0.59959 0.0
H1074 H 0.38208 0.59431 0.5865 0.0
H1075 H 0.34508 0.59173 0.59877 0.0
H1076 H 0.35002 0.46985 0.70818 0.0
H1077 H 0.31753 0.47181 0.7325 0.0
H1078 H 0.3598 0.46181 0.64077 0.0
H1079 H 0.38252 0.48757 0.59669 0.0
C1080 C 0.49114 0.81396 0.64618 0.0
C1081 C 0.49629 0.82349 0.69166 0.0
C1082 C 0.4789 0.86319 0.67808 0.0
C1083 C 0.47485 0.85485 0.63161 0.0
N1084 N 0.48944 0.83088 0.57042 0.0
N1085 N 0.50773 0.86523 0.74608 0.0
C1086 C 0.48465 0.83276 0.61519 0.0
C1087 C 0.49457 0.85096 0.70591 0.0
N1088 N 0.49207 0.78684 0.63266 0.0
N1089 N 0.46577 0.8804 0.69692 0.0
H1090 H 0.52059 0.85734 0.76601 0.0
H1091 H 0.5093 0.88699 0.75663 0.0
H1092 H 0.4505 0.88674 0.6801 0.0
H1093 H 0.46617 0.88433 0.73131 0.0
H1094 H 0.4848 0.77671 0.60082 0.0
H1095 H 0.49834 0.77345 0.6542 0.0
H1096 H 0.4989 0.81686 0.55743 0.0
H1097 H 0.48813 0.84647 0.54691 0.0
C1098 C 0.31687 0.53226 0.19897 0.0
C1099 C 0.29907 0.49789 0.20454 0.0
C1100 C 0.33527 0.49366 0.14892 0.0
C1101 C 0.3548 0.52838 0.14736 0.0
N1102 N 0.36978 0.57914 0.18573 0.0
N1103 N 0.29956 0.44728 0.19505 0.0
C1104 C 0.34762 0.54707 0.17766 0.0
C1105 C 0.31073 0.47891 0.18266 0.0
N1106 N 0.30324 0.55078 0.20954 0.0
N1107 N 0.33858 0.47456 0.11747 0.0
H1108 H 0.28387 0.43645 0.22209 0.0
H1109 H 0.30928 0.4334 0.18232 0.0
H1110 H 0.35533 0.48373 0.09135 0.0
H1111 H 0.32235 0.44951 0.11507 0.0
H1112 H 0.31469 0.57583 0.20334 0.0
H1113 H 0.27858 0.54001 0.21647 0.0
H1114 H 0.36603 0.59271 0.21014 0.0
H1115 H 0.39315 0.59089 0.17189 0.0
C1116 C 0.536 0.82002 0.16368 0.0
C1117 C 0.53016 0.81254 0.21026 0.0
C1118 C 0.48937 0.83023 0.20894 0.0
C1119 C 0.49672 0.83936 0.16342 0.0
N1120 N 0.53547 0.85351 0.10296 0.0
N1121 N 0.51055 0.82367 0.27931 0.0
C1122 C 0.52305 0.83809 0.14281 0.0
C1123 C 0.5096 0.82156 0.23366 0.0
N1124 N 0.5516 0.80808 0.138 0.0
N1125 N 0.463 0.82956 0.22865 0.0
H1126 H 0.5275 0.82109 0.29861 0.0
H1127 H 0.4977 0.83247 0.2974 0.0
H1128 H 0.44827 0.83671 0.2119 0.0
H1129 H 0.45464 0.81979 0.26042 0.0
H1130 H 0.55291 0.81014 0.1032 0.0
H1131 H 0.55988 0.7929 0.14987 0.0
H1132 H 0.55669 0.85573 0.08891 0.0
H1133 H 0.52662 0.86678 0.08614 0.0
C1134 C 0.19621 0.71523 0.15766 0.0
C1135 C 0.19955 0.71427 0.20495 0.0
C1136 C 0.17828 0.65531 0.20034 0.0
C1137 C 0.1728 0.65598 0.15383 0.0
N1138 N 0.16701 0.68515 0.09155 0.0
N1139 N 0.18126 0.68065 0.27165 0.0
C1140 C 0.17832 0.68543 0.1337 0.0
C1141 C 0.18676 0.68346 0.22653 0.0
N1142 N 0.21195 0.74408 0.13481 0.0
N1143 N 0.17627 0.62819 0.21951 0.0
H1144 H 0.18421 0.70005 0.29157 0.0
H1145 H 0.16962 0.65817 0.28804 0.0
H1146 H 0.17066 0.60735 0.2011 0.0
H1147 H 0.18302 0.62764 0.2526 0.0
H1148 H 0.21274 0.74532 0.09995 0.0
H1149 H 0.22735 0.76639 0.15001 0.0
H1150 H 0.16813 0.70569 0.07688 0.0
H1151 H 0.15362 0.66371 0.07317 0.0
C1152 C 0.13923 0.17446 0.2372 0.0
C1153 C 0.14915 0.1718 0.28078 0.0
C1154 C 0.17856 0.1453 0.25052 0.0
C1155 C 0.16477 0.14395 0.20772 0.0
N1156 N 0.12795 0.15335 0.1618 0.0
N1157 N 0.17804 0.15507 0.33055 0.0
C1158 C 0.14421 0.1577 0.20136 0.0
C1159 C 0.16923 0.15776 0.28783 0.0
N1160 N 0.125 0.19312 0.23015 0.0
N1161 N 0.19965 0.13368 0.25573 0.0
H1162 H 0.17282 0.16532 0.35805 0.0
H1163 H 0.18935 0.14179 0.33919 0.0
H1164 H 0.20462 0.12177 0.23019 0.0
H1165 H 0.21335 0.13702 0.28455 0.0
H1166 H 0.12025 0.19891 0.19842 0.0
H1167 H 0.12101 0.20559 0.256 0.0
H1168 H 0.10969 0.15928 0.15728 0.0
H1169 H 0.13076 0.14156 0.13417 0.0
C1170 C 0.84236 0.00858 0.29365 0.0
C1171 C 0.83094 0.975 0.28546 0.0
C1172 C 0.84124 0.98536 0.20554 0.0
C1173 C 0.85448 0.01939 0.21365 0.0
N1174 N 0.8629 0.06314 0.26309 0.0
N1175 N 0.81031 0.92997 0.23429 0.0
C1176 C 0.85296 0.03085 0.25696 0.0
C1177 C 0.82706 0.96294 0.24142 0.0
N1178 N 0.84479 0.01919 0.33682 0.0
N1179 N 0.84422 0.9747 0.16419 0.0
H1180 H 0.80022 0.91323 0.26051 0.0
H1181 H 0.8038 0.91934 0.20267 0.0
H1182 H 0.8545 0.99025 0.13689 0.0
H1183 H 0.83855 0.95084 0.15742 0.0
H1184 H 0.85609 0.04363 0.3462 0.0
H1185 H 0.836 0.00311 0.36389 0.0
H1186 H 0.85985 0.07281 0.29278 0.0
H1187 H 0.87287 0.08026 0.23735 0.0
C1188 C 0.01179 0.84062 0.21821 0.0
C1189 C 0.97816 0.82939 0.22599 0.0
C1190 C 0.9889 0.84182 0.30573 0.0
C1191 C 0.02274 0.85352 0.29807 0.0
N1192 N 0.06571 0.85875 0.2491 0.0
N1193 N 0.93331 0.81144 0.27718 0.0
C1194 C 0.03386 0.85072 0.25505 0.0
C1195 C 0.96628 0.82722 0.26995 0.0
N1196 N 0.02288 0.84363 0.17522 0.0
N1197 N 0.97857 0.84604 0.34666 0.0
H1198 H 0.91642 0.80087 0.25119 0.0
H1199 H 0.92272 0.80619 0.30887 0.0
H1200 H 0.99417 0.85629 0.37395 0.0
H1201 H 0.95497 0.84143 0.353 0.0
H1202 H 0.04748 0.85526 0.16646 0.0
H1203 H 0.00723 0.83596 0.1477 0.0
H1204 H 0.07445 0.85372 0.21995 0.0
H1205 H 0.0832 0.86869 0.2744 0.0
C1206 C 0.85391 0.8149 0.76538 0.0
C1207 C 0.85042 0.82179 0.72027 0.0
C1208 C 0.81584 0.84434 0.74377 0.0
C1209 C 0.82443 0.84298 0.78877 0.0
N1210 N 0.84895 0.82486 0.84409 0.0
N1211 N 0.82659 0.84066 0.66496 0.0
C1212 C 0.84218 0.82702 0.80011 0.0
C1213 C 0.83037 0.83525 0.70896 0.0
N1214 N 0.86874 0.79709 0.7747 0.0
N1215 N 0.79415 0.85469 0.73463 0.0
H1216 H 0.83585 0.83304 0.63881 0.0
H1217 H 0.81537 0.85357 0.65417 0.0
H1218 H 0.78344 0.86153 0.75981 0.0
H1219 H 0.78474 0.85409 0.70293 0.0
H1220 H 0.87 0.78886 0.80653 0.0
H1221 H 0.87773 0.7883 0.74965 0.0
H1222 H 0.86483 0.81702 0.85486 0.0
H1223 H 0.83923 0.83198 0.87024 0.0
C1224 C 0.18053 0.02502 0.75697 0.0
C1225 C 0.16796 0.01412 0.71331 0.0
C1226 C 0.13919 0.95719 0.73948 0.0
C1227 C 0.15047 0.96834 0.78337 0.0
N1228 N 0.18974 0.01045 0.83142 0.0
N1229 N 0.14247 0.96978 0.66029 0.0
C1230 C 0.17403 1.00152 0.79114 0.0
C1231 C 0.14976 0.98008 0.7037 0.0
N1232 N 0.19641 0.05763 0.76662 0.0
N1233 N 0.11718 0.92488 0.73257 0.0
H1234 H 0.14914 0.98595 0.63346 0.0
H1235 H 0.13213 0.94549 0.65045 0.0
H1236 H 0.1106 0.90741 0.75782 0.0
H1237 H 0.10463 0.91552 0.70265 0.0
H1238 H 0.20311 0.06695 0.7989 0.0
H1239 H 0.20071 0.07536 0.74265 0.0
H1240 H 0.20903 0.03381 0.83821 0.0
H1241 H 0.18542 0.99346 0.85661 0.0
C1242 C 0.01792 0.18395 0.70754 0.0
C1243 C 0.984 0.16362 0.71589 0.0
C1244 C 0.994 0.1706 0.79668 0.0
C1245 C 0.02806 0.18584 0.78809 0.0
N1246 N 0.07334 0.20967 0.73684 0.0
N1247 N 0.93871 0.13944 0.76694 0.0
C1248 C 0.04033 0.194 0.7439 0.0
C1249 C 0.97165 0.1581 0.76014 0.0
N1250 N 0.02847 0.1929 0.66453 0.0
N1251 N 0.98331 0.16788 0.83984 0.0
H1252 H 0.92199 0.13134 0.74053 0.0
H1253 H 0.92792 0.13127 0.79815 0.0
H1254 H 0.99934 0.17672 0.86699 0.0
H1255 H 0.95905 0.15914 0.84875 0.0
H1256 H 0.05243 0.20968 0.65572 0.0
H1257 H 0.01239 0.18503 0.6375 0.0
H1258 H 0.08418 0.21342 0.70546 0.0
H1259 H 0.09023 0.21818 0.76303 0.0
C1260 C 0.82215 0.51168 0.56407 0.0
C1261 C 0.82484 0.50214 0.60811 0.0
C1262 C 0.85415 0.47503 0.58011 0.0
C1263 C 0.84938 0.48258 0.53592 0.0
N1264 N 0.83662 0.51423 0.4854 0.0
N1265 N 0.84895 0.48121 0.65992 0.0
C1266 C 0.83614 0.50323 0.52787 0.0
C1267 C 0.84295 0.48611 0.61667 0.0
N1268 N 0.80447 0.52693 0.55674 0.0
N1269 N 0.86792 0.45589 0.58671 0.0
H1270 H 0.84002 0.48805 0.68724 0.0
H1271 H 0.86435 0.47238 0.66906 0.0
H1272 H 0.87775 0.44889 0.56055 0.0
H1273 H 0.86885 0.4461 0.61749 0.0
H1274 H 0.79842 0.53153 0.52514 0.0
H1275 H 0.79441 0.53378 0.58276 0.0
H1276 H 0.82984 0.53141 0.47733 0.0
H1277 H 0.84638 0.50795 0.45842 0.0
C1278 C 0.49407 0.33792 0.61769 0.0
C1279 C 0.48376 0.30464 0.60882 0.0
C1280 C 0.49999 0.31748 0.5304 0.0
C1281 C 0.512 0.35122 0.53955 0.0
N1282 N 0.51391 0.39268 0.58871 0.0
N1283 N 0.46793 0.26122 0.55598 0.0
C1284 C 0.50649 0.36109 0.58205 0.0
C1285 C 0.48366 0.29398 0.56469 0.0
N1286 N 0.49401 0.34761 0.6608 0.0
N1287 N 0.50522 0.30799 0.48941 0.0
H1288 H 0.4558 0.24383 0.58098 0.0
H1289 H 0.4642 0.25133 0.52393 0.0
H1290 H 0.51571 0.324 0.4626 0.0
H1291 H 0.50064 0.28452 0.48233 0.0
H1292 H 0.505 0.3719 0.67091 0.0
H1293 H 0.48395 0.33103 0.68715 0.0
H1294 H 0.50723 0.40057 0.61725 0.0
H1295 H 0.52497 0.41082 0.56444 0.0
C1296 C 0.63778 0.15376 0.57869 0.0
C1297 C 0.64707 0.17011 0.53671 0.0
C1298 C 0.7039 0.20257 0.5633 0.0
C1299 C 0.69346 0.19016 0.60688 0.0
N1300 N 0.65111 0.15403 0.65745 0.0
N1301 N 0.68931 0.21052 0.48867 0.0
C1302 C 0.66068 0.16528 0.6148 0.0
C1303 C 0.68033 0.19443 0.52879 0.0
N1304 N 0.60697 0.12777 0.58437 0.0
N1305 N 0.73659 0.22194 0.55503 0.0
H1306 H 0.67371 0.20423 0.46123 0.0
H1307 H 0.71188 0.23131 0.48299 0.0
H1308 H 0.75424 0.22802 0.5799 0.0
H1309 H 0.74646 0.22935 0.52316 0.0
H1310 H 0.5998 0.11255 0.61227 0.0
H1311 H 0.58886 0.11997 0.55992 0.0
H1312 H 0.62691 0.13891 0.667 0.0
H1313 H 0.66752 0.16116 0.68412 0.0
C1314 C 0.55177 0.19684 0.08207 0.0
C1315 C 0.53033 0.16936 0.05604 0.0
C1316 C 0.4863 0.16178 0.10741 0.0
C1317 C 0.50667 0.19394 0.12501 0.0
N1318 N 0.55625 0.24586 0.11148 0.0
N1319 N 0.47413 0.12753 0.04163 0.0
C1320 C 0.53875 0.21266 0.10733 0.0
C1321 C 0.4966 0.15208 0.06797 0.0
N1322 N 0.58466 0.20851 0.08187 0.0
N1323 N 0.4582 0.1399 0.12866 0.0
H1324 H 0.48013 0.11975 0.01241 0.0
H1325 H 0.44905 0.11676 0.04715 0.0
H1326 H 0.45091 0.14446 0.15939 0.0
H1327 H 0.4443 0.11564 0.11836 0.0
H1328 H 0.60066 0.22798 0.10217 0.0
H1329 H 0.59496 0.19625 0.06564 0.0
H1330 H 0.57924 0.25986 0.09682 0.0
H1331 H 0.54599 0.25953 0.12316 0.0
C1332 C 0.80504 0.31725 0.03265 0.0
C1333 C 0.83082 0.34979 0.04049 0.0
C1334 C 0.83945 0.33341 0.11491 0.0
C1335 C 0.81027 0.30292 0.10984 0.0
N1336 N 0.76519 0.26499 0.06425 0.0
N1337 N 0.87014 0.38993 0.09117 0.0
C1338 C 0.79323 0.29451 0.06859 0.0
C1339 C 0.84781 0.35808 0.08192 0.0
N1340 N 0.79223 0.30791 0.9906 0.0
N1341 N 0.85895 0.33893 0.15142 0.0
H1342 H 0.87573 0.40889 0.06872 0.0
H1343 H 0.88079 0.39802 0.12254 0.0
H1344 H 0.85343 0.32148 0.17631 0.0
H1345 H 0.882 0.35954 0.15491 0.0
H1346 H 0.77615 0.28378 0.98158 0.0
H1347 H 0.79964 0.32385 0.96345 0.0
H1348 H 0.74908 0.25897 0.03745 0.0
H1349 H 0.75724 0.24683 0.08872 0.0
C1350 C 0.67939 0.51303 0.03765 0.0
C1351 C 0.64544 0.49226 0.04533 0.0
C1352 C 0.65478 0.49263 0.12559 0.0
C1353 C 0.68907 0.51186 0.11804 0.0
N1354 N 0.73388 0.54584 0.06921 0.0
N1355 N 0.59993 0.47103 0.09568 0.0
C1356 C 0.7013 0.52431 0.07479 0.0
C1357 C 0.63288 0.4853 0.08921 0.0
N1358 N 0.6906 0.52025 0.99461 0.0
N1359 N 0.64326 0.4795 0.16693 0.0
H1360 H 0.58368 0.46551 0.06903 0.0
H1361 H 0.58914 0.4677 0.12708 0.0
H1362 H 0.6585 0.48407 0.19442 0.0
H1363 H 0.61894 0.46236 0.17343 0.0
H1364 H 0.71519 0.53216 0.9858 0.0
H1365 H 0.67482 0.51331 0.9672 0.0
H1366 H 0.74416 0.55807 0.0394 0.0
H1367 H 0.75056 0.55305 0.09556 0.0
C1368 C 0.47844 0.84537 0.92214 0.0
C1369 C 0.48243 0.83692 0.96621 0.0
C1370 C 0.5108 0.80918 0.93666 0.0
C1371 C 0.50181 0.81283 0.89284 0.0
N1372 N 0.47506 0.83245 0.8432 0.0
N1373 N 0.50018 0.80865 0.01611 0.0
C1374 C 0.48554 0.83088 0.88531 0.0
C1375 C 0.4984 0.81857 0.97374 0.0
N1376 N 0.46701 0.86649 0.91551 0.0
N1377 N 0.53066 0.79619 0.94274 0.0
H1378 H 0.49128 0.81491 0.04406 0.0
H1379 H 0.5083 0.79235 0.02332 0.0
H1380 H 0.53961 0.78873 0.91604 0.0
H1381 H 0.54058 0.79556 0.9736 0.0
H1382 H 0.46696 0.87644 0.88442 0.0
H1383 H 0.45986 0.87611 0.94171 0.0
H1384 H 0.45978 0.84184 0.83617 0.0
H1385 H 0.47982 0.82221 0.81537 0.0
C1386 C 0.17668 0.65194 0.87578 0.0
C1387 C 0.1968 0.68591 0.88437 0.0
C1388 C 0.19545 0.6751 0.96469 0.0
C1389 C 0.17494 0.64107 0.95635 0.0
N1390 N 0.14111 0.59752 0.90555 0.0
N1391 N 0.219 0.73057 0.93667 0.0
C1392 C 0.1637 0.62967 0.91237 0.0
C1393 C 0.20396 0.69771 0.92882 0.0
N1394 N 0.1712 0.64091 0.83257 0.0
N1395 N 0.20793 0.68577 0.0066 0.0
H1396 H 0.22599 0.74774 0.91098 0.0
H1397 H 0.22191 0.74069 0.96848 0.0
H1398 H 0.20187 0.67031 0.03416 0.0
H1399 H 0.22602 0.70965 0.01367 0.0
H1400 H 0.15997 0.61634 0.8238 0.0
H1401 H 0.17967 0.65659 0.80508 0.0
H1402 H 0.12928 0.58828 0.87513 0.0
H1403 H 0.1324 0.5803 0.93127 0.0
C1404 C 0.33266 0.50732 0.95379 0.0
C1405 C 0.36589 0.52951 0.94337 0.0
C1406 C 0.35205 0.52594 0.86374 0.0
C1407 C 0.31839 0.50875 0.87524 0.0
N1408 N 0.2759 0.48217 0.93034 0.0
N1409 N 0.40816 0.55924 0.88916 0.0
C1410 C 0.30843 0.49852 0.91993 0.0
C1411 C 0.37594 0.53821 0.89838 0.0
N1412 N 0.32441 0.49516 0.99626 0.0
N1413 N 0.36096 0.53025 0.81961 0.0
H1414 H 0.42632 0.5672 0.91366 0.0
H1415 H 0.4168 0.56979 0.85791 0.0
H1416 H 0.34387 0.52124 0.79366 0.0
H1417 H 0.38497 0.54013 0.80862 0.0
H1418 H 0.30119 0.47671 0.00545 0.0
H1419 H 0.34167 0.50171 0.02174 0.0
H1420 H 0.26689 0.4771 0.96291 0.0
H1421 H 0.25762 0.47502 0.9062 0.0
C1422 C 0.16003 0.51468 0.42095 0.0
C1423 C 0.17916 0.52854 0.46014 0.0
C1424 C 0.21719 0.5104 0.43559 0.0
C1425 C 0.19903 0.49821 0.39558 0.0
N1426 N 0.14705 0.47707 0.35877 0.0
N1427 N 0.21922 0.52937 0.51145 0.0
C1428 C 0.16825 0.49627 0.39129 0.0
C1429 C 0.20561 0.52308 0.46964 0.0
N1430 N 0.13561 0.52096 0.41015 0.0
N1431 N 0.24614 0.51079 0.44027 0.0
H1432 H 0.21124 0.53825 0.53756 0.0
H1433 H 0.23626 0.52283 0.52161 0.0
H1434 H 0.2539 0.49944 0.41727 0.0
H1435 H 0.26286 0.52328 0.46574 0.0
H1436 H 0.12335 0.51441 0.37958 0.0
H1437 H 0.1294 0.53522 0.42988 0.0
H1438 H 0.12312 0.47247 0.35637 0.0
H1439 H 0.15234 0.46304 0.33712 0.0
C1440 C 0.50445 0.6819 0.45752 0.0
C1441 C 0.49175 0.6484 0.44723 0.0
C1442 C 0.51342 0.66327 0.37119 0.0
C1443 C 0.51843 0.69511 0.37862 0.0
N1444 N 0.52271 0.73654 0.42941 0.0
N1445 N 0.48607 0.60668 0.39595 0.0
C1446 C 0.5157 0.70514 0.42226 0.0
C1447 C 0.49746 0.63894 0.40477 0.0
N1448 N 0.50542 0.69115 0.50111 0.0
N1449 N 0.52393 0.6565 0.33224 0.0
H1450 H 0.47536 0.58869 0.42056 0.0
H1451 H 0.48602 0.59766 0.36413 0.0
H1452 H 0.53651 0.67431 0.30795 0.0
H1453 H 0.52307 0.63443 0.32593 0.0
H1454 H 0.51656 0.71537 0.51162 0.0
H1455 H 0.49765 0.67439 0.52742 0.0
H1456 H 0.51755 0.74457 0.45913 0.0
H1457 H 0.53285 0.75449 0.40465 0.0
C1458 C 0.36521 0.84638 0.4155 0.0
C1459 C 0.35658 0.82912 0.45674 0.0
C1460 C 0.3017 0.79124 0.42759 0.0
C1461 C 0.31053 0.80813 0.38625 0.0
N1462 N 0.34678 0.8566 0.34459 0.0
N1463 N 0.31395 0.79134 0.50634 0.0
C1464 C 0.34098 0.83745 0.38157 0.0
C1465 C 0.32394 0.80345 0.46411 0.0
N1466 N 0.39694 0.8698 0.40756 0.0
N1467 N 0.2723 0.76303 0.43158 0.0
H1468 H 0.32937 0.79981 0.5341 0.0
H1469 H 0.28972 0.77512 0.51476 0.0
H1470 H 0.25452 0.75463 0.40652 0.0
H1471 H 0.26611 0.74718 0.45871 0.0
H1472 H 0.40549 0.88057 0.37638 0.0
H1473 H 0.41548 0.87681 0.43121 0.0
H1474 H 0.3672 0.87976 0.3411 0.0
H1475 H 0.32967 0.85061 0.31903 0.0
C1476 C 0.30618 0.15941 0.19142 0.0
C1477 C 0.29862 0.15331 0.14527 0.0
C1478 C 0.35588 0.17005 0.12865 0.0
C1479 C 0.36292 0.17404 0.17517 0.0
N1480 N 0.34439 0.16933 0.25169 0.0
N1481 N 0.31454 0.148 0.0704 0.0
C1482 C 0.33787 0.16752 0.20683 0.0
C1483 C 0.32304 0.15745 0.11393 0.0
N1484 N 0.28354 0.15921 0.22015 0.0
N1485 N 0.38063 0.17845 0.09853 0.0
H1486 H 0.29083 0.13875 0.05828 0.0
H1487 H 0.33025 0.1469 0.04695 0.0
H1488 H 0.40454 0.18564 0.10806 0.0
H1489 H 0.378 0.18008 0.06418 0.0
H1490 H 0.28842 0.16684 0.25335 0.0
H1491 H 0.26044 0.15413 0.20967 0.0
H1492 H 0.32637 0.1609 0.27628 0.0
H1493 H 0.36766 0.17742 0.26468 0.0
C1494 C 0.82962 0.16471 0.20834 0.0
C1495 C 0.82621 0.18566 0.17744 0.0
C1496 C 0.84417 0.16365 0.11618 0.0
C1497 C 0.84535 0.14117 0.14657 0.0
N1498 N 0.83379 0.11605 0.21933 0.0
N1499 N 0.82645 0.20292 0.10143 0.0
C1500 C 0.83672 0.14063 0.19213 0.0
C1501 C 0.83228 0.18441 0.13114 0.0
N1502 N 0.826 0.16779 0.25321 0.0
N1503 N 0.85564 0.16606 0.07349 0.0
H1504 H 0.81963 0.21982 0.11135 0.0
H1505 H 0.82652 0.20026 0.06684 0.0
H1506 H 0.86403 0.15095 0.06108 0.0
H1507 H 0.85904 0.18444 0.05123 0.0
H1508 H 0.83185 0.15593 0.27776 0.0
H1509 H 0.81926 0.184 0.26634 0.0
H1510 H 0.82454 0.11219 0.25177 0.0
H1511 H 0.83771 0.09746 0.20788 0.0
C1512 C 0.80868 0.64791 0.14404 0.0
C1513 C 0.81126 0.63912 0.18862 0.0
C1514 C 0.85658 0.6948 0.20275 0.0
C1515 C 0.85571 0.70276 0.15712 0.0
N1516 N 0.83334 0.68644 0.08282 0.0
N1517 N 0.83961 0.65243 0.25933 0.0
C1518 C 0.83251 0.6791 0.12727 0.0
C1519 C 0.83566 0.66215 0.21779 0.0
N1520 N 0.78258 0.62686 0.11839 0.0
N1521 N 0.87729 0.71855 0.23178 0.0
H1522 H 0.82436 0.62899 0.27182 0.0
H1523 H 0.85921 0.66676 0.28036 0.0
H1524 H 0.89422 0.74218 0.22153 0.0
H1525 H 0.8765 0.71553 0.26637 0.0
H1526 H 0.77728 0.63277 0.08712 0.0
H1527 H 0.76437 0.60425 0.13018 0.0
H1528 H 0.8197 0.66924 0.05841 0.0
H1529 H 0.84934 0.70944 0.06961 0.0
C1530 C 0.17256 0.36131 0.35642 0.0
C1531 C 0.19377 0.37345 0.31893 0.0
C1532 C 0.19289 0.32112 0.31199 0.0
C1533 C 0.1728 0.30954 0.35056 0.0
N1534 N 0.14774 0.31972 0.41406 0.0
N1535 N 0.22717 0.36692 0.2635 0.0
C1536 C 0.16386 0.33 0.3741 0.0
C1537 C 0.20498 0.35397 0.29759 0.0
N1538 N 0.16038 0.37955 0.37474 0.0
N1539 N 0.19935 0.30025 0.28822 0.0
H1540 H 0.2349 0.39003 0.2502 0.0
H1541 H 0.23925 0.35563 0.24984 0.0
H1542 H 0.19178 0.27647 0.29872 0.0
H1543 H 0.21058 0.30569 0.25697 0.0
H1544 H 0.14187 0.37073 0.39862 0.0
H1545 H 0.1673 0.40313 0.36403 0.0
H1546 H 0.14318 0.33445 0.43527 0.0
H1547 H 0.14126 0.29709 0.4281 0.0
C1548 C 0.65434 0.80832 0.36244 0.0
C1549 C 0.64817 0.81156 0.31674 0.0
C1550 C 0.70364 0.85835 0.30862 0.0
C1551 C 0.71044 0.85386 0.35349 0.0
N1552 N 0.69452 0.82225 0.42152 0.0
N1553 N 0.66748 0.83661 0.24444 0.0
C1554 C 0.68637 0.82823 0.38005 0.0
C1555 C 0.67307 0.83558 0.28919 0.0
N1556 N 0.62943 0.78644 0.38909 0.0
N1557 N 0.72597 0.88519 0.28525 0.0
H1558 H 0.64502 0.82121 0.22931 0.0
H1559 H 0.68562 0.85107 0.22157 0.0
H1560 H 0.74841 0.90251 0.29869 0.0
H1561 H 0.72139 0.8919 0.25409 0.0
H1562 H 0.63117 0.78555 0.42375 0.0
H1563 H 0.60619 0.7701 0.37681 0.0
H1564 H 0.67937 0.80175 0.4406 0.0
H1565 H 0.71753 0.83674 0.43582 0.0
C1566 C 0.16808 0.8228 0.29163 0.0
C1567 C 0.1902 0.82076 0.32189 0.0
C1568 C 0.16749 0.83713 0.38399 0.0
C1569 C 0.14416 0.83734 0.35419 0.0
N1570 N 0.11819 0.82506 0.28199 0.0
N1571 N 0.20862 0.82167 0.39741 0.0
C1572 C 0.14338 0.82875 0.30858 0.0
C1573 C 0.1891 0.82652 0.3683 0.0
N1574 N 0.17079 0.81917 0.24667 0.0
N1575 N 0.17005 0.84854 0.42676 0.0
H1576 H 0.22611 0.81578 0.38693 0.0
H1577 H 0.20623 0.82155 0.43207 0.0
H1578 H 0.15427 0.8558 0.43997 0.0
H1579 H 0.18912 0.85293 0.44834 0.0
H1580 H 0.15789 0.82393 0.22245 0.0
H1581 H 0.18766 0.81349 0.23308 0.0
H1582 H 0.11421 0.81587 0.24952 0.0
H1583 H 0.09931 0.82838 0.29397 0.0
C1584 C 0.67754 0.80915 0.82093 0.0
C1585 C 0.69185 0.83396 0.85385 0.0
C1586 C 0.64216 0.83836 0.8563 0.0
C1587 C 0.62726 0.81256 0.82475 0.0
N1588 N 0.62907 0.7712 0.77953 0.0
N1589 N 0.68672 0.86878 0.90832 0.0
C1590 C 0.64442 0.79716 0.80805 0.0
C1591 C 0.67388 0.84771 0.87295 0.0
N1592 N 0.69618 0.79817 0.80055 0.0
N1593 N 0.626 0.85405 0.87024 0.0
H1594 H 0.70976 0.87608 0.92154 0.0
H1595 H 0.67373 0.87704 0.92707 0.0
H1596 H 0.60187 0.84644 0.86148 0.0
H1597 H 0.63693 0.87569 0.88852 0.0
H1598 H 0.68867 0.78285 0.77276 0.0
H1599 H 0.72032 0.80608 0.80967 0.0
H1600 H 0.63841 0.75623 0.77045 0.0
H1601 H 0.60597 0.76356 0.76636 0.0
C1602 C 0.2046 0.84544 0.82187 0.0
C1603 C 0.1884 0.81206 0.83535 0.0
C1604 C 0.15096 0.8212 0.88208 0.0
C1605 C 0.16506 0.85353 0.86514 0.0
N1606 N 0.20283 0.89576 0.81563 0.0
N1607 N 0.14504 0.76727 0.87589 0.0
C1608 C 0.19148 0.86562 0.83452 0.0
C1609 C 0.16119 0.79967 0.86473 0.0
N1610 N 0.23245 0.85788 0.79665 0.0
N1611 N 0.12864 0.81155 0.91608 0.0
H1612 H 0.15307 0.75125 0.86633 0.0
H1613 H 0.12271 0.75577 0.89257 0.0
H1614 H 0.12115 0.82693 0.93012 0.0
H1615 H 0.11967 0.78953 0.93315 0.0
H1616 H 0.24766 0.88272 0.79066 0.0
H1617 H 0.24168 0.84369 0.78367 0.0
H1618 H 0.21917 0.9045 0.78894 0.0
H1619 H 0.19416 0.9114 0.82449 0.0
C1620 C 0.165 0.35557 0.79535 0.0
C1621 C 0.18879 0.37894 0.82485 0.0
C1622 C 0.16697 0.33972 0.88676 0.0
C1623 C 0.14495 0.3156 0.85639 0.0
N1624 N 0.1241 0.29901 0.78153 0.0
N1625 N 0.21559 0.39289 0.89658 0.0
C1626 C 0.14432 0.32309 0.81057 0.0
C1627 C 0.1905 0.371 0.87015 0.0
N1628 N 0.1613 0.36479 0.75333 0.0
N1629 N 0.1655 0.33263 0.93139 0.0
H1630 H 0.2334 0.41584 0.88519 0.0
H1631 H 0.22046 0.38758 0.9285 0.0
H1632 H 0.14971 0.30958 0.94459 0.0
H1633 H 0.17833 0.35003 0.95595 0.0
H1634 H 0.14201 0.35009 0.73207 0.0
H1635 H 0.17622 0.38819 0.74059 0.0
H1636 H 0.12549 0.30162 0.74687 0.0
H1637 H 0.10676 0.27559 0.792 0.0
C1638 C 0.83827 0.68399 0.69937 0.0
C1639 C 0.84673 0.69349 0.65411 0.0
C1640 C 0.83243 0.63749 0.63407 0.0
C1641 C 0.82637 0.62856 0.67991 0.0
N1642 N 0.82542 0.64324 0.75713 0.0
N1643 N 0.85647 0.68107 0.57924 0.0
C1644 C 0.82999 0.65186 0.71288 0.0
C1645 C 0.84479 0.67066 0.62156 0.0
N1646 N 0.83679 0.70533 0.72894 0.0
N1647 N 0.82646 0.61422 0.60244 0.0
H1648 H 0.86572 0.70509 0.56858 0.0
H1649 H 0.8594 0.66663 0.55549 0.0
H1650 H 0.81989 0.59025 0.61047 0.0
H1651 H 0.82622 0.61808 0.56817 0.0
H1652 H 0.82761 0.6991 0.76132 0.0
H1653 H 0.84231 0.72887 0.71994 0.0
H1654 H 0.83156 0.6599 0.78322 0.0
H1655 H 0.81702 0.61946 0.76827 0.0
C1656 C 0.30133 0.14664 0.7027 0.0
C1657 C 0.29324 0.14711 0.65706 0.0
C1658 C 0.35018 0.18877 0.64095 0.0
C1659 C 0.35794 0.18936 0.68701 0.0
N1660 N 0.34051 0.17228 0.76304 0.0
N1661 N 0.30804 0.17225 0.58417 0.0
C1662 C 0.3333 0.16951 0.71834 0.0
C1663 C 0.31718 0.16915 0.62653 0.0
N1664 N 0.27898 0.1231 0.73051 0.0
N1665 N 0.37445 0.20684 0.61088 0.0
H1666 H 0.28412 0.15845 0.57246 0.0
H1667 H 0.32337 0.19026 0.56171 0.0
H1668 H 0.3984 0.22337 0.6204 0.0
H1669 H 0.37138 0.20431 0.57632 0.0
H1670 H 0.28423 0.11892 0.76286 0.0
H1671 H 0.25561 0.10579 0.71992 0.0
H1672 H 0.32292 0.16142 0.788 0.0
H1673 H 0.36397 0.18721 0.77565 0.0
C1674 C 0.82597 0.14244 0.62725 0.0
C1675 C 0.85905 0.15902 0.64199 0.0
C1676 C 0.84813 0.19527 0.68867 0.0
C1677 C 0.81562 0.17997 0.67189 0.0
N1678 N 0.77428 0.14179 0.62174 0.0
N1679 N 0.90287 0.20316 0.68294 0.0
C1680 C 0.80462 0.15412 0.64047 0.0
C1681 C 0.87051 0.18611 0.67143 0.0
N1682 N 0.81504 0.11562 0.6003 0.0
N1683 N 0.85714 0.21748 0.72274 0.0
H1684 H 0.91961 0.19597 0.67367 0.0
H1685 H 0.91371 0.22555 0.69945 0.0
H1686 H 0.8415 0.22473 0.73646 0.0
H1687 H 0.87911 0.22683 0.74009 0.0
H1688 H 0.79052 0.09984 0.59292 0.0
H1689 H 0.83057 0.10825 0.58659 0.0
H1690 H 0.76585 0.12542 0.59509 0.0
H1691 H 0.75801 0.14964 0.63085 0.0
C1692 C 0.02398 0.53535 0.51454 0.0
C1693 C 0.04259 0.52069 0.50099 0.0
C1694 C 0.99821 0.48328 0.45124 0.0
C1695 C 0.97933 0.49746 0.46542 0.0
N1696 N 0.97402 0.53802 0.5075 0.0
N1697 N 0.04724 0.47925 0.46033 0.0
C1698 C 0.99224 0.52392 0.4961 0.0
C1699 C 0.02961 0.49419 0.47044 0.0
N1700 N 0.0361 0.55902 0.54694 0.0
N1701 N 0.98669 0.46055 0.4176 0.0
H1702 H 0.07091 0.4876 0.47206 0.0
H1703 H 0.03806 0.45756 0.44239 0.0
H1704 H 0.96416 0.45247 0.4021 0.0
H1705 H 1.00019 0.45134 0.40238 0.0
H1706 H 0.02323 0.56913 0.56154 0.0
H1707 H 0.05896 0.5677 0.56157 0.0
H1708 H 0.98268 0.55938 0.52602 0.0
H1709 H 0.94998 0.529 0.49694 0.0
C1710 C 0.51099 0.53269 0.48843 0.0
C1711 C 0.48389 0.52074 0.51788 0.0
C1712 C 0.47993 0.46685 0.51917 0.0
C1713 C 0.50529 0.47808 0.48695 0.0
N1714 N 0.54237 0.52006 0.43623 0.0
N1715 N 0.44103 0.47642 0.55982 0.0
C1716 C 0.52032 0.51066 0.47056 0.0
C1717 C 0.46787 0.48775 0.53276 0.0
N1718 N 0.5278 0.56514 0.47748 0.0
N1719 N 0.46835 0.43668 0.53807 0.0
H1720 H 0.43305 0.49157 0.57326 0.0
H1721 H 0.42573 0.45186 0.56741 0.0
H1722 H 0.47655 0.42074 0.5287 0.0
H1723 H 0.45242 0.42822 0.56522 0.0
H1724 H 0.55009 0.57625 0.46069 0.0
H1725 H 0.52064 0.58171 0.48774 0.0
H1726 H 0.55136 0.54207 0.4191 0.0
H1727 H 0.54992 0.50478 0.42217 0.0
C1728 C 0.48935 0.01569 0.46588 0.0
C1729 C 0.52227 0.03301 0.48143 0.0
C1730 C 0.51285 0.98575 0.52664 0.0
C1731 C 0.48 0.96829 0.51085 0.0
N1732 N 0.43565 0.96679 0.46923 0.0
N1733 N 0.56661 0.03446 0.52301 0.0
C1734 C 0.46786 0.98338 0.48163 0.0
C1735 C 0.53437 0.01796 0.51073 0.0
N1736 N 0.47928 0.02944 0.43387 0.0
N1737 N 0.52287 0.97225 0.55908 0.0
H1738 H 0.58245 0.05889 0.51495 0.0
H1739 H 0.57836 0.02378 0.53932 0.0
H1740 H 0.50801 0.94895 0.57197 0.0
H1741 H 0.54504 0.98471 0.57594 0.0
H1742 H 0.45695 0.01724 0.41735 0.0
H1743 H 0.49417 0.05281 0.42115 0.0
H1744 H 0.42386 0.97732 0.45266 0.0
H1745 H 0.41985 0.94236 0.47737 0.0
C1746 C 0.51533 0.01319 0.95658 0.0
C1747 C 0.52083 0.03876 0.98668 0.0
C1748 C 0.50672 1.00122 0.05058 0.0
C1749 C 0.50077 0.97551 0.02044 0.0
N1750 N 0.50333 0.95714 0.94624 0.0
N1751 N 0.51855 0.05717 0.06105 0.0
C1752 C 0.50591 0.98149 0.97373 0.0
C1753 C 0.51602 0.03287 0.03344 0.0
N1754 N 0.51896 0.01932 0.91153 0.0
N1755 N 0.50357 0.99531 0.09569 0.0
H1756 H 0.5251 0.08051 0.04965 0.0
H1757 H 0.51225 0.05406 0.09476 0.0
H1758 H 0.49477 0.97216 0.10947 0.0
H1759 H 0.51105 0.01338 0.12003 0.0
H1760 H 0.51224 1.00148 0.88702 0.0
H1761 H 0.5277 0.04255 0.89799 0.0
H1762 H 0.509 0.95993 0.91233 0.0
H1763 H 0.49738 0.93407 0.95804 0.0
C1764 C 0.9792 0.47616 0.0314 0.0
C1765 C 0.97187 0.47266 0.98493 0.0
C1766 C 0.02748 0.51758 0.96836 0.0
C1767 C 0.03512 0.52005 0.01461 0.0
N1768 N 0.02014 0.49964 0.08999 0.0
N1769 N 0.98931 0.48794 0.90834 0.0
C1770 C 0.01142 0.4989 0.04613 0.0
C1771 C 0.9962 0.49263 0.95313 0.0
N1772 N 0.95516 0.45771 0.06153 0.0
N1773 N 0.04976 0.54013 0.93936 0.0
H1774 H 0.96624 0.47163 0.8957 0.0
H1775 H 0.00678 0.49883 0.88329 0.0
H1776 H 0.07263 0.55882 0.94968 0.0
H1777 H 0.04501 0.54212 0.90586 0.0
H1778 H 0.95717 0.46195 0.09588 0.0
H1779 H 0.93236 0.43861 0.05188 0.0
H1780 H 0.00554 0.48233 0.1137 0.0
H1781 H 0.04301 0.51662 0.10253 0.0
C1782 C 0.53769 0.51723 0.00553 0.0
C1783 C 0.52607 0.49353 0.97095 0.0
C1784 C 0.47241 0.49004 0.97345 0.0
C1785 C 0.48474 0.51539 0.00585 0.0
N1786 N 0.52969 0.55535 0.05046 0.0
N1787 N 0.48439 0.4601 0.91761 0.0
C1788 C 0.5176 0.5297 0.02111 0.0
C1789 C 0.4939 0.48056 0.95382 0.0
N1790 N 0.56738 0.52672 0.02487 0.0
N1791 N 0.44016 0.47506 0.9615 0.0
H1792 H 0.49963 0.45293 0.90226 0.0
H1793 H 0.46255 0.45221 0.90045 0.0
H1794 H 0.42413 0.48244 0.97345 0.0
H1795 H 0.42865 0.45405 0.94196 0.0
H1796 H 0.57566 0.54078 0.05384 0.0
H1797 H 0.58305 0.51864 0.01379 0.0
H1798 H 0.55438 0.56964 0.05825 0.0
H1799 H 0.51527 0.56358 0.06559 0.0
loop_
_geom_bond_atom_site_label_1
_geom_bond_atom_site_label_2
_geom_bond_distance
_geom_bond_site_symmetry_2
_ccdc_geom_bond_type
Co0 O1 2.216 . S
Co0 O2 2.091 . S
Co0 O4 2.004 . S
Co0 O10 2.021 . S
Co0 O12 2.137 . S
Co0 O13 2.244 . S
O1 Co0 2.216 . S
O1 C8 1.247 . S
O2 Co0 2.091 . S
O2 C8 1.261 . S
C3 O12 1.247 . S
C3 O13 1.272 . S
O4 Co0 2.004 . S
O4 C9 1.259 . S
Co5 O6 2.061 . S
Co5 O11 2.052 . S
Co5 O13 2.135 . S
O6 Co5 2.061 . S
O6 C9 1.235 . S
C7 O10 1.238 . S
C7 O11 1.241 . S
C8 O1 1.247 . S
C8 O2 1.261 . S
C9 O4 1.259 . S
C9 O6 1.235 . S
O10 Co0 2.021 . S
O10 C7 1.238 . S
O11 Co5 2.052 . S
O11 C7 1.241 . S
O12 Co0 2.137 . S
O12 C3 1.247 . S
O13 Co0 2.244 . S
O13 C3 1.272 . S
O13 Co5 2.135 . S
Co14 O15 2.216 . S
Co14 O16 2.091 . S
Co14 O18 2.004 . S
Co14 O24 2.021 . S
Co14 O26 2.137 . S
Co14 O27 2.244 . S
O15 Co14 2.216 . S
O15 C22 1.247 . S
O16 Co14 2.091 . S
O16 C22 1.261 . S
C17 O26 1.247 . S
C17 O27 1.272 . S
O18 Co14 2.004 . S
O18 C23 1.259 . S
Co19 O20 2.061 . S
Co19 O25 2.052 . S
Co19 O27 2.135 . S
O20 Co19 2.061 . S
O20 C23 1.235 . S
C21 O24 1.238 . S
C21 O25 1.241 . S
C22 O15 1.247 . S
C22 O16 1.261 . S
C23 O18 1.259 . S
C23 O20 1.235 . S
O24 Co14 2.021 . S
O24 C21 1.238 . S
O25 Co19 2.052 . S
O25 C21 1.241 . S
O26 Co14 2.137 . S
O26 C17 1.247 . S
O27 Co14 2.244 . S
O27 C17 1.272 . S
O27 Co19 2.135 . S
Co28 O29 2.216 . S
Co28 O30 2.091 . S
Co28 O32 2.004 . S
Co28 O38 2.021 . S
Co28 O40 2.137 . S
Co28 O41 2.244 . S
O29 Co28 2.216 . S
O29 C36 1.247 . S
O30 Co28 2.091 . S
O30 C36 1.261 . S
C31 O40 1.247 . S
C31 O41 1.272 . S
O32 Co28 2.004 . S
O32 C37 1.259 . S
Co33 O34 2.061 . S
Co33 O39 2.052 . S
Co33 O41 2.135 . S
O34 Co33 2.061 . S
O34 C37 1.235 . S
C35 O38 1.238 . S
C35 O39 1.241 . S
C36 O29 1.247 . S
C36 O30 1.261 . S
C37 O32 1.259 . S
C37 O34 1.235 . S
O38 Co28 2.021 . S
O38 C35 1.238 . S
O39 Co33 2.052 . S
O39 C35 1.241 . S
O40 Co28 2.137 . S
O40 C31 1.247 . S
O41 Co28 2.244 . S
O41 C31 1.272 . S
O41 Co33 2.135 . S
Co42 O43 2.216 . S
Co42 O44 2.091 . S
Co42 O46 2.004 . S
Co42 O52 2.021 . S
Co42 O54 2.137 . S
Co42 O55 2.244 . S
O43 Co42 2.216 . S
O43 C50 1.247 . S
O44 Co42 2.091 . S
O44 C50 1.261 . S
C45 O54 1.247 . S
C45 O55 1.272 . S
O46 Co42 2.004 . S
O46 C51 1.259 . S
Co47 O48 2.061 . S
Co47 O53 2.052 . S
Co47 O55 2.135 . S
O48 Co47 2.061 . S
O48 C51 1.235 . S
C49 O52 1.238 . S
C49 O53 1.241 . S
C50 O43 1.247 . S
C50 O44 1.261 . S
C51 O46 1.259 . S
C51 O48 1.235 . S
O52 Co42 2.021 . S
O52 C49 1.238 . S
O53 Co47 2.052 . S
O53 C49 1.241 . S
O54 Co42 2.137 . S
O54 C45 1.247 . S
O55 Co42 2.244 . S
O55 C45 1.272 . S
O55 Co47 2.135 . S
Co56 O57 2.216 . S
Co56 O58 2.091 . S
Co56 O60 2.004 . S
Co56 O66 2.021 . S
Co56 O68 2.137 . S
Co56 O69 2.244 . S
O57 Co56 2.216 . S
O57 C64 1.247 . S
O58 Co56 2.091 . S
O58 C64 1.261 . S
C59 O68 1.247 . S
C59 O69 1.272 . S
O60 Co56 2.004 . S
O60 C65 1.259 . S
Co61 O62 2.061 . S
Co61 O67 2.052 . S
Co61 O69 2.135 . S
O62 Co61 2.061 . S
O62 C65 1.235 . S
C63 O66 1.238 . S
C63 O67 1.241 . S
C64 O57 1.247 . S
C64 O58 1.261 . S
C65 O60 1.259 . S
C65 O62 1.235 . S
O66 Co56 2.021 . S
O66 C63 1.238 . S
O67 Co61 2.052 . S
O67 C63 1.241 . S
O68 Co56 2.137 . S
O68 C59 1.247 . S
O69 Co56 2.244 . S
O69 C59 1.272 . S
O69 Co61 2.135 . S
Co70 O71 2.216 . S
Co70 O72 2.091 . S
Co70 O74 2.004 . S
Co70 O80 2.021 . S
Co70 O82 2.137 . S
Co70 O83 2.244 . S
O71 Co70 2.216 . S
O71 C78 1.247 . S
O72 Co70 2.091 . S
O72 C78 1.261 . S
C73 O82 1.247 . S
C73 O83 1.272 . S
O74 Co70 2.004 . S
O74 C79 1.259 . S
Co75 O76 2.061 . S
Co75 O81 2.052 . S
Co75 O83 2.135 . S
O76 Co75 2.061 . S
O76 C79 1.235 . S
C77 O80 1.238 . S
C77 O81 1.241 . S
C78 O71 1.247 . S
C78 O72 1.261 . S
C79 O74 1.259 . S
C79 O76 1.235 . S
O80 Co70 2.021 . S
O80 C77 1.238 . S
O81 Co75 2.052 . S
O81 C77 1.241 . S
O82 Co70 2.137 . S
O82 C73 1.247 . S
O83 Co70 2.244 . S
O83 C73 1.272 . S
O83 Co75 2.135 . S
Co84 O85 2.216 . S
Co84 O86 2.091 . S
Co84 O88 2.004 . S
Co84 O94 2.021 . S
Co84 O96 2.137 . S
Co84 O97 2.244 . S
O85 Co84 2.216 . S
O85 C92 1.247 . S
O86 Co84 2.091 . S
O86 C92 1.261 . S
C87 O96 1.247 . S
C87 O97 1.272 . S
O88 Co84 2.004 . S
O88 C93 1.259 . S
Co89 O90 2.061 . S
Co89 O95 2.052 . S
Co89 O97 2.135 . S
O90 Co89 2.061 . S
O90 C93 1.235 . S
C91 O94 1.238 . S
C91 O95 1.241 . S
C92 O85 1.247 . S
C92 O86 1.261 . S
C93 O88 1.259 . S
C93 O90 1.235 . S
O94 Co84 2.021 . S
O94 C91 1.238 . S
O95 Co89 2.052 . S
O95 C91 1.241 . S
O96 Co84 2.137 . S
O96 C87 1.247 . S
O97 Co84 2.244 . S
O97 C87 1.272 . S
O97 Co89 2.135 . S
Co98 O99 2.216 . S
Co98 O100 2.091 . S
Co98 O102 2.004 . S
Co98 O108 2.021 . S
Co98 O110 2.137 . S
Co98 O111 2.244 . S
O99 Co98 2.216 . S
O99 C106 1.247 . S
O100 Co98 2.091 . S
O100 C106 1.261 . S
C101 O110 1.247 . S
C101 O111 1.272 . S
O102 Co98 2.004 . S
O102 C107 1.259 . S
Co103 O104 2.061 . S
Co103 O109 2.052 . S
Co103 O111 2.135 . S
O104 Co103 2.061 . S
O104 C107 1.235 . S
C105 O108 1.238 . S
C105 O109 1.241 . S
C106 O99 1.247 . S
C106 O100 1.261 . S
C107 O102 1.259 . S
C107 O104 1.235 . S
O108 Co98 2.021 . S
O108 C105 1.238 . S
O109 Co103 2.052 . S
O109 C105 1.241 . S
O110 Co98 2.137 . S
O110 C101 1.247 . S
O111 Co98 2.244 . S
O111 C101 1.272 . S
O111 Co103 2.135 . S
Co112 O113 2.216 . S
Co112 O114 2.091 . S
Co112 O116 2.004 . S
Co112 O122 2.021 . S
Co112 O124 2.137 . S
Co112 O125 2.244 . S
O113 Co112 2.216 . S
O113 C120 1.247 . S
O114 Co112 2.091 . S
O114 C120 1.261 . S
C115 O124 1.247 . S
C115 O125 1.272 . S
O116 Co112 2.004 . S
O116 C121 1.259 . S
Co117 O118 2.061 . S
Co117 O123 2.052 . S
Co117 O125 2.135 . S
O118 Co117 2.061 . S
O118 C121 1.235 . S
C119 O122 1.238 . S
C119 O123 1.241 . S
C120 O113 1.247 . S
C120 O114 1.261 . S
C121 O116 1.259 . S
C121 O118 1.235 . S
O122 Co112 2.021 . S
O122 C119 1.238 . S
O123 Co117 2.052 . S
O123 C119 1.241 . S
O124 Co112 2.137 . S
O124 C115 1.247 . S
O125 Co112 2.244 . S
O125 C115 1.272 . S
O125 Co117 2.135 . S
Co126 O127 2.216 . S
Co126 O128 2.091 . S
Co126 O130 2.004 . S
Co126 O136 2.021 . S
Co126 O138 2.137 . S
Co126 O139 2.244 . S
O127 Co126 2.216 . S
O127 C134 1.247 . S
O128 Co126 2.091 . S
O128 C134 1.261 . S
C129 O138 1.247 . S
C129 O139 1.272 . S
O130 Co126 2.004 . S
O130 C135 1.259 . S
Co131 O132 2.061 . S
Co131 O137 2.052 . S
Co131 O139 2.135 . S
O132 Co131 2.061 . S
O132 C135 1.235 . S
C133 O136 1.238 . S
C133 O137 1.241 . S
C134 O127 1.247 . S
C134 O128 1.261 . S
C135 O130 1.259 . S
C135 O132 1.235 . S
O136 Co126 2.021 . S
O136 C133 1.238 . S
O137 Co131 2.052 . S
O137 C133 1.241 . S
O138 Co126 2.137 . S
O138 C129 1.247 . S
O139 Co126 2.244 . S
O139 C129 1.272 . S
O139 Co131 2.135 . S
Co140 O141 2.216 . S
Co140 O142 2.091 . S
Co140 O144 2.004 . S
Co140 O150 2.021 . S
Co140 O152 2.137 . S
Co140 O153 2.244 . S
O141 Co140 2.216 . S
O141 C148 1.247 . S
O142 Co140 2.091 . S
O142 C148 1.261 . S
C143 O152 1.247 . S
C143 O153 1.272 . S
O144 Co140 2.004 . S
O144 C149 1.259 . S
Co145 O146 2.061 . S
Co145 O151 2.052 . S
Co145 O153 2.135 . S
O146 Co145 2.061 . S
O146 C149 1.235 . S
C147 O150 1.238 . S
C147 O151 1.241 . S
C148 O141 1.247 . S
C148 O142 1.261 . S
C149 O144 1.259 . S
C149 O146 1.235 . S
O150 Co140 2.021 . S
O150 C147 1.238 . S
O151 Co145 2.052 . S
O151 C147 1.241 . S
O152 Co140 2.137 . S
O152 C143 1.247 . S
O153 Co140 2.244 . S
O153 C143 1.272 . S
O153 Co145 2.135 . S
Co154 O155 2.216 . S
Co154 O156 2.091 . S
Co154 O158 2.004 . S
Co154 O164 2.021 . S
Co154 O166 2.137 . S
Co154 O167 2.244 . S
O155 Co154 2.216 . S
O155 C162 1.247 . S
O156 Co154 2.091 . S
O156 C162 1.261 . S
C157 O166 1.247 . S
C157 O167 1.272 . S
O158 Co154 2.004 . S
O158 C163 1.259 . S
Co159 O160 2.061 . S
Co159 O165 2.052 . S
Co159 O167 2.135 . S
O160 Co159 2.061 . S
O160 C163 1.235 . S
C161 O164 1.238 . S
C161 O165 1.241 . S
C162 O155 1.247 . S
C162 O156 1.261 . S
C163 O158 1.259 . S
C163 O160 1.235 . S
O164 Co154 2.021 . S
O164 C161 1.238 . S
O165 Co159 2.052 . S
O165 C161 1.241 . S
O166 Co154 2.137 . S
O166 C157 1.247 . S
O167 Co154 2.244 . S
O167 C157 1.272 . S
O167 Co159 2.135 . S
Co168 O169 2.216 . S
Co168 O170 2.091 . S
Co168 O172 2.004 . S
Co168 O178 2.021 . S
Co168 O180 2.137 . S
Co168 O181 2.244 . S
O169 Co168 2.216 . S
O169 C176 1.247 . S
O170 Co168 2.091 . S
O170 C176 1.261 . S
C171 O180 1.247 . S
C171 O181 1.272 . S
O172 Co168 2.004 . S
O172 C177 1.259 . S
Co173 O174 2.061 . S
Co173 O179 2.052 . S
Co173 O181 2.135 . S
O174 Co173 2.061 . S
O174 C177 1.235 . S
C175 O178 1.238 . S
C175 O179 1.241 . S
C176 O169 1.247 . S
C176 O170 1.261 . S
C177 O172 1.259 . S
C177 O174 1.235 . S
O178 Co168 2.021 . S
O178 C175 1.238 . S
O179 Co173 2.052 . S
O179 C175 1.241 . S
O180 Co168 2.137 . S
O180 C171 1.247 . S
O181 Co168 2.244 . S
O181 C171 1.272 . S
O181 Co173 2.135 . S
Co182 O183 2.216 . S
Co182 O184 2.091 . S
Co182 O186 2.004 . S
Co182 O192 2.021 . S
Co182 O194 2.137 . S
Co182 O195 2.244 . S
O183 Co182 2.216 . S
O183 C190 1.247 . S
O184 Co182 2.091 . S
O184 C190 1.261 . S
C185 O194 1.247 . S
C185 O195 1.272 . S
O186 Co182 2.004 . S
O186 C191 1.259 . S
Co187 O188 2.061 . S
Co187 O193 2.052 . S
Co187 O195 2.135 . S
O188 Co187 2.061 . S
O188 C191 1.235 . S
C189 O192 1.238 . S
C189 O193 1.241 . S
C190 O183 1.247 . S
C190 O184 1.261 . S
C191 O186 1.259 . S
C191 O188 1.235 . S
O192 Co182 2.021 . S
O192 C189 1.238 . S
O193 Co187 2.052 . S
O193 C189 1.241 . S
O194 Co182 2.137 . S
O194 C185 1.247 . S
O195 Co182 2.244 . S
O195 C185 1.272 . S
O195 Co187 2.135 . S
Co196 O197 2.216 . S
Co196 O198 2.091 . S
Co196 O200 2.004 . S
Co196 O206 2.021 . S
Co196 O208 2.137 . S
Co196 O209 2.244 . S
O197 Co196 2.216 . S
O197 C204 1.247 . S
O198 Co196 2.091 . S
O198 C204 1.261 . S
C199 O208 1.247 . S
C199 O209 1.272 . S
O200 Co196 2.004 . S
O200 C205 1.259 . S
Co201 O202 2.061 . S
Co201 O207 2.052 . S
Co201 O209 2.135 . S
O202 Co201 2.061 . S
O202 C205 1.235 . S
C203 O206 1.238 . S
C203 O207 1.241 . S
C204 O197 1.247 . S
C204 O198 1.261 . S
C205 O200 1.259 . S
C205 O202 1.235 . S
O206 Co196 2.021 . S
O206 C203 1.238 . S
O207 Co201 2.052 . S
O207 C203 1.241 . S
O208 Co196 2.137 . S
O208 C199 1.247 . S
O209 Co196 2.244 . S
O209 C199 1.272 . S
O209 Co201 2.135 . S
Co210 O211 2.216 . S
Co210 O212 2.091 . S
Co210 O214 2.004 . S
Co210 O220 2.021 . S
Co210 O222 2.137 . S
Co210 O223 2.244 . S
O211 Co210 2.216 . S
O211 C218 1.247 . S
O212 Co210 2.091 . S
O212 C218 1.261 . S
C213 O222 1.247 . S
C213 O223 1.272 . S
O214 Co210 2.004 . S
O214 C219 1.259 . S
Co215 O216 2.061 . S
Co215 O221 2.052 . S
Co215 O223 2.135 . S
O216 Co215 2.061 . S
O216 C219 1.235 . S
C217 O220 1.238 . S
C217 O221 1.241 . S
C218 O211 1.247 . S
C218 O212 1.261 . S
C219 O214 1.259 . S
C219 O216 1.235 . S
O220 Co210 2.021 . S
O220 C217 1.238 . S
O221 Co215 2.052 . S
O221 C217 1.241 . S
O222 Co210 2.137 . S
O222 C213 1.247 . S
O223 Co210 2.244 . S
O223 C213 1.272 . S
O223 Co215 2.135 . S
Co224 O225 2.216 . S
Co224 O226 2.091 . S
Co224 O228 2.004 . S
Co224 O234 2.021 . S
Co224 O236 2.137 . S
Co224 O237 2.244 . S
O225 Co224 2.216 . S
O225 C232 1.247 . S
O226 Co224 2.091 . S
O226 C232 1.261 . S
C227 O236 1.247 . S
C227 O237 1.272 . S
O228 Co224 2.004 . S
O228 C233 1.259 . S
Co229 O230 2.061 . S
Co229 O235 2.052 . S
Co229 O237 2.135 . S
O230 Co229 2.061 . S
O230 C233 1.235 . S
C231 O234 1.238 . S
C231 O235 1.241 . S
C232 O225 1.247 . S
C232 O226 1.261 . S
C233 O228 1.259 . S
C233 O230 1.235 . S
O234 Co224 2.021 . S
O234 C231 1.238 . S
O235 Co229 2.052 . S
O235 C231 1.241 . S
O236 Co224 2.137 . S
O236 C227 1.247 . S
O237 Co224 2.244 . S
O237 C227 1.272 . S
O237 Co229 2.135 . S
Co238 O239 2.216 . S
Co238 O240 2.091 . S
Co238 O242 2.004 . S
Co238 O248 2.021 . S
Co238 O250 2.137 . S
Co238 O251 2.244 . S
O239 Co238 2.216 . S
O239 C246 1.247 . S
O240 Co238 2.091 . S
O240 C246 1.261 . S
C241 O250 1.247 . S
C241 O251 1.272 . S
O242 Co238 2.004 . S
O242 C247 1.259 . S
Co243 O244 2.061 . S
Co243 O249 2.052 . S
Co243 O251 2.135 . S
O244 Co243 2.061 . S
O244 C247 1.235 . S
C245 O248 1.238 . S
C245 O249 1.241 . S
C246 O239 1.247 . S
C246 O240 1.261 . S
C247 O242 1.259 . S
C247 O244 1.235 . S
O248 Co238 2.021 . S
O248 C245 1.238 . S
O249 Co243 2.052 . S
O249 C245 1.241 . S
O250 Co238 2.137 . S
O250 C241 1.247 . S
O251 Co238 2.244 . S
O251 C241 1.272 . S
O251 Co243 2.135 . S
Co252 O253 2.216 . S
Co252 O254 2.091 . S
Co252 O256 2.004 . S
Co252 O262 2.021 . S
Co252 O264 2.137 . S
Co252 O265 2.244 . S
O253 Co252 2.216 . S
O253 C260 1.247 . S
O254 Co252 2.091 . S
O254 C260 1.261 . S
C255 O264 1.247 . S
C255 O265 1.272 . S
O256 Co252 2.004 . S
O256 C261 1.259 . S
Co257 O258 2.061 . S
Co257 O263 2.052 . S
Co257 O265 2.135 . S
O258 Co257 2.061 . S
O258 C261 1.235 . S
C259 O262 1.238 . S
C259 O263 1.241 . S
C260 O253 1.247 . S
C260 O254 1.261 . S
C261 O256 1.259 . S
C261 O258 1.235 . S
O262 Co252 2.021 . S
O262 C259 1.238 . S
O263 Co257 2.052 . S
O263 C259 1.241 . S
O264 Co252 2.137 . S
O264 C255 1.247 . S
O265 Co252 2.244 . S
O265 C255 1.272 . S
O265 Co257 2.135 . S
Co266 O267 2.216 . S
Co266 O268 2.091 . S
Co266 O270 2.004 . S
Co266 O276 2.021 . S
Co266 O278 2.137 . S
Co266 O279 2.244 . S
O267 Co266 2.216 . S
O267 C274 1.247 . S
O268 Co266 2.091 . S
O268 C274 1.261 . S
C269 O278 1.247 . S
C269 O279 1.272 . S
O270 Co266 2.004 . S
O270 C275 1.259 . S
Co271 O272 2.061 . S
Co271 O277 2.052 . S
Co271 O279 2.135 . S
O272 Co271 2.061 . S
O272 C275 1.235 . S
C273 O276 1.238 . S
C273 O277 1.241 . S
C274 O267 1.247 . S
C274 O268 1.261 . S
C275 O270 1.259 . S
C275 O272 1.235 . S
O276 Co266 2.021 . S
O276 C273 1.238 . S
O277 Co271 2.052 . S
O277 C273 1.241 . S
O278 Co266 2.137 . S
O278 C269 1.247 . S
O279 Co266 2.244 . S
O279 C269 1.272 . S
O279 Co271 2.135 . S
Co280 O281 2.216 . S
Co280 O282 2.091 . S
Co280 O284 2.004 . S
Co280 O290 2.021 . S
Co280 O292 2.137 . S
Co280 O293 2.244 . S
O281 Co280 2.216 . S
O281 C288 1.247 . S
O282 Co280 2.091 . S
O282 C288 1.261 . S
C283 O292 1.247 . S
C283 O293 1.272 . S
O284 Co280 2.004 . S
O284 C289 1.259 . S
Co285 O286 2.061 . S
Co285 O291 2.052 . S
Co285 O293 2.135 . S
O286 Co285 2.061 . S
O286 C289 1.235 . S
C287 O290 1.238 . S
C287 O291 1.241 . S
C288 O281 1.247 . S
C288 O282 1.261 . S
C289 O284 1.259 . S
C289 O286 1.235 . S
O290 Co280 2.021 . S
O290 C287 1.238 . S
O291 Co285 2.052 . S
O291 C287 1.241 . S
O292 Co280 2.137 . S
O292 C283 1.247 . S
O293 Co280 2.244 . S
O293 C283 1.272 . S
O293 Co285 2.135 . S
Co294 O295 2.216 . S
Co294 O296 2.091 . S
Co294 O298 2.004 . S
Co294 O304 2.021 . S
Co294 O306 2.137 . S
Co294 O307 2.244 . S
O295 Co294 2.216 . S
O295 C302 1.247 . S
O296 Co294 2.091 . S
O296 C302 1.261 . S
C297 O306 1.247 . S
C297 O307 1.272 . S
O298 Co294 2.004 . S
O298 C303 1.259 . S
Co299 O300 2.061 . S
Co299 O305 2.052 . S
Co299 O307 2.135 . S
O300 Co299 2.061 . S
O300 C303 1.235 . S
C301 O304 1.238 1_554 S
C301 O305 1.241 1_554 S
C302 O295 1.247 . S
C302 O296 1.261 . S
C303 O298 1.259 . S
C303 O300 1.235 . S
O304 Co294 2.021 . S
O304 C301 1.238 1_556 S
O305 Co299 2.052 . S
O305 C301 1.241 1_556 S
O306 Co294 2.137 . S
O306 C297 1.247 . S
O307 Co294 2.244 . S
O307 C297 1.272 . S
O307 Co299 2.135 . S
Co308 O309 2.216 . S
Co308 O310 2.091 . S
Co308 O312 2.004 . S
Co308 O318 2.021 . S
Co308 O320 2.137 . S
Co308 O321 2.244 . S
O309 Co308 2.216 . S
O309 C316 1.247 . S
O310 Co308 2.091 . S
O310 C316 1.261 . S
C311 O320 1.247 . S
C311 O321 1.272 . S
O312 Co308 2.004 . S
O312 C317 1.259 . S
Co313 O314 2.061 . S
Co313 O319 2.052 . S
Co313 O321 2.135 . S
O314 Co313 2.061 . S
O314 C317 1.235 . S
C315 O318 1.238 1_554 S
C315 O319 1.241 1_554 S
C316 O309 1.247 . S
C316 O310 1.261 . S
C317 O312 1.259 . S
C317 O314 1.235 . S
O318 Co308 2.021 . S
O318 C315 1.238 1_556 S
O319 Co313 2.052 . S
O319 C315 1.241 1_556 S
O320 Co308 2.137 . S
O320 C311 1.247 . S
O321 Co308 2.244 . S
O321 C311 1.272 . S
O321 Co313 2.135 . S
Co322 O323 2.216 . S
Co322 O324 2.091 . S
Co322 O326 2.004 . S
Co322 O332 2.021 . S
Co322 O334 2.137 . S
Co322 O335 2.244 . S
O323 Co322 2.216 . S
O323 C330 1.247 . S
O324 Co322 2.091 . S
O324 C330 1.261 . S
C325 O334 1.247 . S
C325 O335 1.272 . S
O326 Co322 2.004 . S
O326 C331 1.259 . S
Co327 O328 2.061 . S
Co327 O333 2.052 . S
Co327 O335 2.135 . S
O328 Co327 2.061 . S
O328 C331 1.235 . S
C329 O332 1.238 1_554 S
C329 O333 1.241 1_554 S
C330 O323 1.247 . S
C330 O324 1.261 . S
C331 O326 1.259 . S
C331 O328 1.235 . S
O332 Co322 2.021 . S
O332 C329 1.238 1_556 S
O333 Co327 2.052 . S
O333 C329 1.241 1_556 S
O334 Co322 2.137 . S
O334 C325 1.247 . S
O335 Co322 2.244 . S
O335 C325 1.272 . S
O335 Co327 2.135 . S
Co336 O337 2.216 . S
Co336 O338 2.091 . S
Co336 O340 2.004 . S
Co336 O346 2.021 . S
Co336 O348 2.137 . S
Co336 O349 2.244 . S
O337 Co336 2.216 . S
O337 C344 1.247 . S
O338 Co336 2.091 . S
O338 C344 1.261 . S
C339 O348 1.247 . S
C339 O349 1.272 . S
O340 Co336 2.004 . S
O340 C345 1.259 . S
Co341 O342 2.061 . S
Co341 O347 2.052 . S
Co341 O349 2.135 . S
O342 Co341 2.061 . S
O342 C345 1.235 . S
C343 O346 1.238 . S
C343 O347 1.241 . S
C344 O337 1.247 . S
C344 O338 1.261 . S
C345 O340 1.259 . S
C345 O342 1.235 . S
O346 Co336 2.021 . S
O346 C343 1.238 . S
O347 Co341 2.052 . S
O347 C343 1.241 . S
O348 Co336 2.137 . S
O348 C339 1.247 . S
O349 Co336 2.244 . S
O349 C339 1.272 . S
O349 Co341 2.135 . S
Co350 O351 2.216 . S
Co350 O352 2.091 . S
Co350 O354 2.004 . S
Co350 O360 2.021 . S
Co350 O362 2.137 . S
Co350 O363 2.244 . S
O351 Co350 2.216 . S
O351 C358 1.247 . S
O352 Co350 2.091 . S
O352 C358 1.261 . S
C353 O362 1.247 . S
C353 O363 1.272 . S
O354 Co350 2.004 . S
O354 C359 1.259 . S
Co355 O356 2.061 . S
Co355 O361 2.052 . S
Co355 O363 2.135 . S
O356 Co355 2.061 . S
O356 C359 1.235 . S
C357 O360 1.238 . S
C357 O361 1.241 . S
C358 O351 1.247 . S
C358 O352 1.261 . S
C359 O354 1.259 . S
C359 O356 1.235 . S
O360 Co350 2.021 . S
O360 C357 1.238 . S
O361 Co355 2.052 . S
O361 C357 1.241 . S
O362 Co350 2.137 . S
O362 C353 1.247 . S
O363 Co350 2.244 . S
O363 C353 1.272 . S
O363 Co355 2.135 . S
Co364 O365 2.216 . S
Co364 O366 2.091 . S
Co364 O368 2.004 . S
Co364 O374 2.021 . S
Co364 O376 2.137 . S
Co364 O377 2.244 . S
O365 Co364 2.216 . S
O365 C372 1.247 . S
O366 Co364 2.091 . S
O366 C372 1.261 . S
C367 O376 1.247 . S
C367 O377 1.272 . S
O368 Co364 2.004 . S
O368 C373 1.259 . S
Co369 O370 2.061 . S
Co369 O375 2.052 . S
Co369 O377 2.135 . S
O370 Co369 2.061 . S
O370 C373 1.235 . S
C371 O374 1.238 . S
C371 O375 1.241 . S
C372 O365 1.247 . S
C372 O366 1.261 . S
C373 O368 1.259 . S
C373 O370 1.235 . S
O374 Co364 2.021 . S
O374 C371 1.238 . S
O375 Co369 2.052 . S
O375 C371 1.241 . S
O376 Co364 2.137 . S
O376 C367 1.247 . S
O377 Co364 2.244 . S
O377 C367 1.272 . S
O377 Co369 2.135 . S
Co378 O379 2.216 . S
Co378 O380 2.091 . S
Co378 O382 2.004 . S
Co378 O388 2.021 . S
Co378 O390 2.137 . S
Co378 O391 2.244 . S
O379 Co378 2.216 . S
O379 C386 1.247 . S
O380 Co378 2.091 . S
O380 C386 1.261 . S
C381 O390 1.247 . S
C381 O391 1.272 . S
O382 Co378 2.004 . S
O382 C387 1.259 . S
Co383 O384 2.061 . S
Co383 O389 2.052 . S
Co383 O391 2.135 . S
O384 Co383 2.061 . S
O384 C387 1.235 . S
C385 O388 1.238 1_556 S
C385 O389 1.241 1_556 S
C386 O379 1.247 . S
C386 O380 1.261 . S
C387 O382 1.259 . S
C387 O384 1.235 . S
O388 Co378 2.021 . S
O388 C385 1.238 1_554 S
O389 Co383 2.052 . S
O389 C385 1.241 1_554 S
O390 Co378 2.137 . S
O390 C381 1.247 . S
O391 Co378 2.244 . S
O391 C381 1.272 . S
O391 Co383 2.135 . S
Co392 O393 2.216 . S
Co392 O394 2.091 . S
Co392 O396 2.004 . S
Co392 O402 2.021 . S
Co392 O404 2.137 . S
Co392 O405 2.244 . S
O393 Co392 2.216 . S
O393 C400 1.247 . S
O394 Co392 2.091 . S
O394 C400 1.261 . S
C395 O404 1.247 . S
C395 O405 1.272 . S
O396 Co392 2.004 . S
O396 C401 1.259 . S
Co397 O398 2.061 . S
Co397 O403 2.052 . S
Co397 O405 2.135 . S
O398 Co397 2.061 . S
O398 C401 1.235 . S
C399 O402 1.238 1_556 S
C399 O403 1.241 1_556 S
C400 O393 1.247 . S
C400 O394 1.261 . S
C401 O396 1.259 . S
C401 O398 1.235 . S
O402 Co392 2.021 . S
O402 C399 1.238 1_554 S
O403 Co397 2.052 . S
O403 C399 1.241 1_554 S
O404 Co392 2.137 . S
O404 C395 1.247 . S
O405 Co392 2.244 . S
O405 C395 1.272 . S
O405 Co397 2.135 . S
Co406 O407 2.216 . S
Co406 O408 2.091 . S
Co406 O410 2.004 . S
Co406 O416 2.021 . S
Co406 O418 2.137 . S
Co406 O419 2.244 . S
O407 Co406 2.216 . S
O407 C414 1.247 . S
O408 Co406 2.091 . S
O408 C414 1.261 . S
C409 O418 1.247 . S
C409 O419 1.272 . S
O410 Co406 2.004 . S
O410 C415 1.259 . S
Co411 O412 2.061 . S
Co411 O417 2.052 . S
Co411 O419 2.135 . S
O412 Co411 2.061 . S
O412 C415 1.235 . S
C413 O416 1.238 1_556 S
C413 O417 1.241 1_556 S
C414 O407 1.247 . S
C414 O408 1.261 . S
C415 O410 1.259 . S
C415 O412 1.235 . S
O416 Co406 2.021 . S
O416 C413 1.238 1_554 S
O417 Co411 2.052 . S
O417 C413 1.241 1_554 S
O418 Co406 2.137 . S
O418 C409 1.247 . S
O419 Co406 2.244 . S
O419 C409 1.272 . S
O419 Co411 2.135 . S
Co420 O421 2.216 . S
Co420 O422 2.091 . S
Co420 O424 2.004 . S
Co420 O430 2.021 . S
Co420 O432 2.137 . S
Co420 O433 2.244 . S
O421 Co420 2.216 . S
O421 C428 1.247 . S
O422 Co420 2.091 . S
O422 C428 1.261 . S
C423 O432 1.247 . S
C423 O433 1.272 . S
O424 Co420 2.004 . S
O424 C429 1.259 . S
Co425 O426 2.061 . S
Co425 O431 2.052 . S
Co425 O433 2.135 . S
O426 Co425 2.061 . S
O426 C429 1.235 . S
C427 O430 1.238 . S
C427 O431 1.241 . S
C428 O421 1.247 . S
C428 O422 1.261 . S
C429 O424 1.259 . S
C429 O426 1.235 . S
O430 Co420 2.021 . S
O430 C427 1.238 . S
O431 Co425 2.052 . S
O431 C427 1.241 . S
O432 Co420 2.137 . S
O432 C423 1.247 . S
O433 Co420 2.244 . S
O433 C423 1.272 . S
O433 Co425 2.135 . S
Co434 O435 2.216 . S
Co434 O436 2.091 . S
Co434 O438 2.004 . S
Co434 O444 2.021 . S
Co434 O446 2.137 . S
Co434 O447 2.244 . S
O435 Co434 2.216 . S
O435 C442 1.247 . S
O436 Co434 2.091 . S
O436 C442 1.261 . S
C437 O446 1.247 . S
C437 O447 1.272 . S
O438 Co434 2.004 . S
O438 C443 1.259 . S
Co439 O440 2.061 . S
Co439 O445 2.052 . S
Co439 O447 2.135 . S
O440 Co439 2.061 . S
O440 C443 1.235 . S
C441 O444 1.238 . S
C441 O445 1.241 . S
C442 O435 1.247 . S
C442 O436 1.261 . S
C443 O438 1.259 . S
C443 O440 1.235 . S
O444 Co434 2.021 . S
O444 C441 1.238 . S
O445 Co439 2.052 . S
O445 C441 1.241 . S
O446 Co434 2.137 . S
O446 C437 1.247 . S
O447 Co434 2.244 . S
O447 C437 1.272 . S
O447 Co439 2.135 . S
Co448 O449 2.216 . S
Co448 O450 2.091 . S
Co448 O452 2.004 . S
Co448 O458 2.021 . S
Co448 O460 2.137 . S
Co448 O461 2.244 . S
O449 Co448 2.216 . S
O449 C456 1.247 . S
O450 Co448 2.091 . S
O450 C456 1.261 . S
C451 O460 1.247 . S
C451 O461 1.272 . S
O452 Co448 2.004 . S
O452 C457 1.259 . S
Co453 O454 2.061 . S
Co453 O459 2.052 . S
Co453 O461 2.135 . S
O454 Co453 2.061 . S
O454 C457 1.235 . S
C455 O458 1.238 . S
C455 O459 1.241 . S
C456 O449 1.247 . S
C456 O450 1.261 . S
C457 O452 1.259 . S
C457 O454 1.235 . S
O458 Co448 2.021 . S
O458 C455 1.238 . S
O459 Co453 2.052 . S
O459 C455 1.241 . S
O460 Co448 2.137 . S
O460 C451 1.247 . S
O461 Co448 2.244 . S
O461 C451 1.272 . S
O461 Co453 2.135 . S
Co462 O463 2.216 . S
Co462 O464 2.091 . S
Co462 O466 2.004 . S
Co462 O472 2.021 . S
Co462 O474 2.137 . S
Co462 O475 2.244 . S
O463 Co462 2.216 . S
O463 C470 1.247 . S
O464 Co462 2.091 . S
O464 C470 1.261 . S
C465 O474 1.247 . S
C465 O475 1.272 . S
O466 Co462 2.004 . S
O466 C471 1.259 . S
Co467 O468 2.061 . S
Co467 O473 2.052 . S
Co467 O475 2.135 . S
O468 Co467 2.061 . S
O468 C471 1.235 . S
C469 O472 1.238 . S
C469 O473 1.241 . S
C470 O463 1.247 . S
C470 O464 1.261 . S
C471 O466 1.259 . S
C471 O468 1.235 . S
O472 Co462 2.021 . S
O472 C469 1.238 . S
O473 Co467 2.052 . S
O473 C469 1.241 . S
O474 Co462 2.137 . S
O474 C465 1.247 . S
O475 Co462 2.244 . S
O475 C465 1.272 . S
O475 Co467 2.135 . S
Co476 O477 2.216 . S
Co476 O478 2.091 . S
Co476 O480 2.004 . S
Co476 O486 2.021 . S
Co476 O488 2.137 . S
Co476 O489 2.244 . S
O477 Co476 2.216 . S
O477 C484 1.247 . S
O478 Co476 2.091 . S
O478 C484 1.261 . S
C479 O488 1.247 . S
C479 O489 1.272 . S
O480 Co476 2.004 . S
O480 C485 1.259 . S
Co481 O482 2.061 . S
Co481 O487 2.052 . S
Co481 O489 2.135 . S
O482 Co481 2.061 . S
O482 C485 1.235 . S
C483 O486 1.238 . S
C483 O487 1.241 . S
C484 O477 1.247 . S
C484 O478 1.261 . S
C485 O480 1.259 . S
C485 O482 1.235 . S
O486 Co476 2.021 . S
O486 C483 1.238 . S
O487 Co481 2.052 . S
O487 C483 1.241 . S
O488 Co476 2.137 . S
O488 C479 1.247 . S
O489 Co476 2.244 . S
O489 C479 1.272 . S
O489 Co481 2.135 . S
Co490 O491 2.216 . S
Co490 O492 2.091 . S
Co490 O494 2.004 . S
Co490 O500 2.021 . S
Co490 O502 2.137 . S
Co490 O503 2.244 . S
O491 Co490 2.216 . S
O491 C498 1.247 . S
O492 Co490 2.091 . S
O492 C498 1.261 . S
C493 O502 1.247 . S
C493 O503 1.272 . S
O494 Co490 2.004 . S
O494 C499 1.259 . S
Co495 O496 2.061 . S
Co495 O501 2.052 . S
Co495 O503 2.135 . S
O496 Co495 2.061 . S
O496 C499 1.235 . S
C497 O500 1.238 . S
C497 O501 1.241 . S
C498 O491 1.247 . S
C498 O492 1.261 . S
C499 O494 1.259 . S
C499 O496 1.235 . S
O500 Co490 2.021 . S
O500 C497 1.238 . S
O501 Co495 2.052 . S
O501 C497 1.241 . S
O502 Co490 2.137 . S
O502 C493 1.247 . S
O503 Co490 2.244 . S
O503 C493 1.272 . S
O503 Co495 2.135 . S
C504 C505 1.363 . S
C504 C510 1.379 . S
C504 N512 1.356 . S
C505 C504 1.363 . S
C505 C511 1.363 . S
C506 C507 1.363 . S
C506 C511 1.379 1_556 S
C506 N513 1.356 . S
C507 C506 1.363 . S
C507 C510 1.363 1_556 S
N508 C510 1.356 1_565 S
N508 H520 0.984 . S
N508 H521 0.985 1_554 S
N509 C511 1.356 . S
N509 H514 0.984 . S
N509 H515 0.985 1_554 S
C510 C504 1.379 . S
C510 C507 1.363 1_554 S
C510 N508 1.356 1_545 S
C511 C505 1.363 . S
C511 C506 1.379 1_554 S
C511 N509 1.356 . S
N512 C504 1.356 . S
N512 H518 0.984 . S
N512 H519 0.984 . S
N513 C506 1.356 . S
N513 H516 0.984 1_545 S
N513 H517 0.985 . S
H514 N509 0.984 . S
H515 N509 0.985 1_556 S
H516 N513 0.984 1_565 S
H517 N513 0.985 . S
H518 N512 0.984 . S
H519 N512 0.984 . S
H520 N508 0.984 . S
H521 N508 0.985 1_556 S
C522 C523 1.363 . S
C522 C528 1.379 1_554 S
C522 N530 1.356 . S
C523 C522 1.363 . S
C523 C529 1.363 . S
C524 C525 1.363 1_554 S
C524 C529 1.379 . S
C524 N531 1.356 1_554 S
C525 C524 1.363 1_556 S
C525 C528 1.363 . S
N526 C528 1.356 1_455 S
N526 H538 0.984 . S
N526 H539 0.985 . S
N527 C529 1.356 . S
N527 H532 0.984 . S
N527 H533 0.985 . S
C528 C522 1.379 1_556 S
C528 C525 1.363 . S
C528 N526 1.356 1_655 S
C529 C523 1.363 . S
C529 C524 1.379 . S
C529 N527 1.356 . S
N530 C522 1.356 . S
N530 H536 0.984 . S
N530 H537 0.984 . S
N531 C524 1.356 1_556 S
N531 H534 0.984 1_655 S
N531 H535 0.985 1_556 S
H532 N527 0.984 . S
H533 N527 0.985 . S
H534 N531 0.984 1_455 S
H535 N531 0.985 1_554 S
H536 N530 0.984 . S
H537 N530 0.984 . S
H538 N526 0.984 . S
H539 N526 0.985 . S
C540 C541 1.363 1_554 S
C540 C546 1.379 . S
C540 N548 1.356 . S
C541 C540 1.363 1_556 S
C541 C547 1.363 . S
C542 C543 1.363 . S
C542 C547 1.379 1_554 S
C542 N549 1.356 . S
C543 C542 1.363 . S
C543 C546 1.363 . S
N544 C546 1.356 . S
N544 H556 0.984 . S
N544 H557 0.985 . S
N545 C547 1.356 . S
N545 H550 0.984 . S
N545 H551 0.985 . S
C546 C540 1.379 . S
C546 C543 1.363 . S
C546 N544 1.356 . S
C547 C541 1.363 . S
C547 C542 1.379 1_556 S
C547 N545 1.356 . S
N548 C540 1.356 . S
N548 H554 0.984 . S
N548 H555 0.984 1_554 S
N549 C542 1.356 . S
N549 H552 0.984 . S
N549 H553 0.995 . S
H550 N545 0.984 . S
H551 N545 0.985 . S
H552 N549 0.984 . S
H553 N549 0.995 . S
H554 N548 0.984 . S
H555 N548 0.984 1_556 S
H556 N544 0.984 . S
H557 N544 0.985 . S
C558 C559 1.363 . S
C558 C564 1.379 . S
C558 N566 1.356 1_455 S
C559 C558 1.363 . S
C559 C565 1.363 . S
C560 C561 1.363 . S
C560 C565 1.379 . S
C560 N567 1.356 . S
C561 C560 1.363 . S
C561 C564 1.363 . S
N562 C564 1.356 . S
N562 H574 0.984 . S
N562 H575 0.985 . S
N563 C565 1.356 . S
N563 H568 0.984 1_455 S
N563 H569 0.985 . S
C564 C558 1.379 . S
C564 C561 1.363 . S
C564 N562 1.356 . S
C565 C559 1.363 . S
C565 C560 1.379 . S
C565 N563 1.356 . S
N566 C558 1.356 1_655 S
N566 H572 0.984 . S
N566 H573 0.984 . S
N567 C560 1.356 . S
N567 H570 0.984 . S
N567 H571 0.985 . S
H568 N563 0.984 1_655 S
H569 N563 0.985 . S
H570 N567 0.984 . S
H571 N567 0.985 . S
H572 N566 0.984 . S
H573 N566 0.984 . S
H574 N562 0.984 . S
H575 N562 0.985 . S
C576 C577 1.363 . S
C576 C582 1.379 . S
C576 N584 1.356 . S
C577 C576 1.363 . S
C577 C583 1.363 . S
C578 C579 1.363 . S
C578 C583 1.379 . S
C578 N585 1.356 . S
C579 C578 1.363 . S
C579 C582 1.363 . S
N580 C582 1.356 . S
N580 H592 0.984 . S
N580 H593 0.985 . S
N581 C583 1.356 . S
N581 H586 0.984 . S
N581 H587 0.985 . S
C582 C576 1.379 . S
C582 C579 1.363 . S
C582 N580 1.356 . S
C583 C577 1.363 . S
C583 C578 1.379 . S
C583 N581 1.356 . S
N584 C576 1.356 . S
N584 H590 0.984 . S
N584 H591 0.984 . S
N585 C578 1.356 . S
N585 H588 0.984 . S
N585 H589 0.985 . S
H586 N581 0.984 . S
H587 N581 0.985 . S
H588 N585 0.984 . S
H589 N585 0.985 . S
H590 N584 0.984 . S
H591 N584 0.984 . S
H592 N580 0.984 . S
H593 N580 0.985 . S
C594 C595 1.363 . S
C594 C600 1.379 . S
C594 N602 1.356 . S
C595 C594 1.363 . S
C595 C601 1.363 . S
C596 C597 1.363 . S
C596 C601 1.379 . S
C596 N603 1.356 . S
C597 C596 1.363 . S
C597 C600 1.363 . S
N598 C600 1.356 1_545 S
N598 H610 0.984 . S
N598 H611 0.985 . S
N599 C601 1.356 . S
N599 H604 0.984 . S
N599 H605 0.985 . S
C600 C594 1.379 . S
C600 C597 1.363 . S
C600 N598 1.356 1_565 S
C601 C595 1.363 . S
C601 C596 1.379 . S
C601 N599 1.356 . S
N602 C594 1.356 . S
N602 H608 0.984 . S
N602 H609 0.984 . S
N603 C596 1.356 . S
N603 H606 0.984 . S
N603 H607 0.985 . S
H604 N599 0.984 . S
H605 N599 0.985 . S
H606 N603 0.984 . S
H607 N603 0.985 . S
H608 N602 0.984 . S
H609 N602 0.984 . S
H610 N598 0.984 . S
H611 N598 0.985 . S
C612 C613 1.363 1_556 S
C612 C618 1.379 . S
C612 N620 1.356 1_565 S
C613 C612 1.363 1_554 S
C613 C619 1.363 . S
C614 C615 1.363 1_554 S
C614 C619 1.379 . S
C614 N621 1.356 . S
C615 C614 1.363 1_556 S
C615 C618 1.363 . S
N616 C618 1.356 . S
N616 H628 0.984 . S
N616 H629 0.985 . S
N617 C619 1.356 . S
N617 H622 0.981 1_565 S
N617 H623 0.985 . S
C618 C612 1.379 . S
C618 C615 1.363 . S
C618 N616 1.356 . S
C619 C613 1.363 . S
C619 C614 1.379 . S
C619 N617 1.356 . S
N620 C612 1.356 1_545 S
N620 H626 0.984 . S
N620 H627 0.984 . S
N621 C614 1.356 . S
N621 H624 0.984 1_554 S
N621 H625 0.985 . S
H622 N617 0.981 1_545 S
H623 N617 0.985 . S
H624 N621 0.984 1_556 S
H625 N621 0.985 . S
H626 N620 0.984 . S
H627 N620 0.984 . S
H628 N616 0.984 . S
H629 N616 0.985 . S
C630 C631 1.363 . S
C630 C636 1.379 1_554 S
C630 N638 1.356 1_455 S
C631 C630 1.363 . S
C631 C637 1.363 1_554 S
C632 C633 1.363 . S
C632 C637 1.379 . S
C632 N639 1.356 . S
C633 C632 1.363 . S
C633 C636 1.363 . S
N634 C636 1.356 . S
N634 H646 0.984 . S
N634 H647 0.985 . S
N635 C637 1.356 1_554 S
N635 H640 0.984 1_455 S
N635 H641 0.985 1_554 S
C636 C630 1.379 1_556 S
C636 C633 1.363 . S
C636 N634 1.356 . S
C637 C631 1.363 1_556 S
C637 C632 1.379 . S
C637 N635 1.356 1_556 S
N638 C630 1.356 1_655 S
N638 H644 0.984 . S
N638 H645 0.984 . S
N639 C632 1.356 . S
N639 H642 0.984 . S
N639 H643 0.985 . S
H640 N635 0.984 1_655 S
H641 N635 0.985 1_556 S
H642 N639 0.984 . S
H643 N639 0.985 . S
H644 N638 0.984 . S
H645 N638 0.984 . S
H646 N634 0.984 . S
H647 N634 0.985 . S
C648 C649 1.363 . S
C648 C654 1.379 1_556 S
C648 N656 1.356 . S
C649 C648 1.363 . S
C649 C655 1.363 . S
C650 C651 1.363 1_556 S
C650 C655 1.379 . S
C650 N657 1.356 . S
C651 C650 1.363 1_554 S
C651 C654 1.363 . S
N652 C654 1.356 . S
N652 H664 0.984 . S
N652 H665 0.985 . S
N653 C655 1.356 . S
N653 H658 0.984 . S
N653 H659 0.985 . S
C654 C648 1.379 1_554 S
C654 C651 1.363 . S
C654 N652 1.356 . S
C655 C649 1.363 . S
C655 C650 1.379 . S
C655 N653 1.356 . S
N656 C648 1.356 . S
N656 H662 0.984 1_556 S
N656 H663 0.984 . S
N657 C650 1.356 . S
N657 H660 0.984 1_556 S
N657 H661 0.985 . S
H658 N653 0.984 . S
H659 N653 0.985 . S
H660 N657 0.984 1_554 S
H661 N657 0.985 . S
H662 N656 0.984 1_554 S
H663 N656 0.984 . S
H664 N652 0.984 . S
H665 N652 0.985 . S
C666 C667 1.363 . S
C666 C672 1.379 . S
C666 N674 1.356 . S
C667 C666 1.363 . S
C667 C673 1.363 . S
C668 C669 1.363 . S
C668 C673 1.379 . S
C668 N675 1.356 1_655 S
C669 C668 1.363 . S
C669 C672 1.363 . S
N670 C672 1.356 . S
N670 H682 0.984 . S
N670 H683 0.985 . S
N671 C673 1.356 . S
N671 H676 0.984 . S
N671 H677 0.985 . S
C672 C666 1.379 . S
C672 C669 1.363 . S
C672 N670 1.356 . S
C673 C667 1.363 . S
C673 C668 1.379 . S
C673 N671 1.356 . S
N674 C666 1.356 . S
N674 H680 0.984 . S
N674 H681 0.984 . S
N675 C668 1.356 1_455 S
N675 H678 0.984 . S
N675 H679 0.985 . S
H676 N671 0.984 . S
H677 N671 0.985 . S
H678 N675 0.984 . S
H679 N675 0.985 . S
H680 N674 0.984 . S
H681 N674 0.984 . S
H682 N670 0.984 . S
H683 N670 0.985 . S
C684 C685 1.363 . S
C684 C690 1.379 . S
C684 N692 1.356 . S
C685 C684 1.363 . S
C685 C691 1.363 . S
C686 C687 1.363 . S
C686 C691 1.379 . S
C686 N693 1.356 . S
C687 C686 1.363 . S
C687 C690 1.363 . S
N688 C690 1.356 . S
N688 H700 0.984 . S
N688 H701 0.985 . S
N689 C691 1.356 . S
N689 H694 0.984 . S
N689 H695 0.985 . S
C690 C684 1.379 . S
C690 C687 1.363 . S
C690 N688 1.356 . S
C691 C685 1.363 . S
C691 C686 1.379 . S
C691 N689 1.356 . S
N692 C684 1.356 . S
N692 H698 0.984 . S
N692 H699 0.984 . S
N693 C686 1.356 . S
N693 H696 0.984 . S
N693 H697 0.985 . S
H694 N689 0.984 . S
H695 N689 0.985 . S
H696 N693 0.984 . S
H697 N693 0.985 . S
H698 N692 0.984 . S
H699 N692 0.984 . S
H700 N688 0.984 . S
H701 N688 0.985 . S
C702 C703 1.363 . S
C702 C708 1.379 . S
C702 N710 1.356 . S
C703 C702 1.363 . S
C703 C709 1.363 . S
C704 C705 1.363 . S
C704 C709 1.379 . S
C704 N711 1.356 . S
C705 C704 1.363 . S
C705 C708 1.363 . S
N706 C708 1.356 1_565 S
N706 H718 0.984 . S
N706 H719 0.985 . S
N707 C709 1.356 . S
N707 H712 0.984 . S
N707 H713 0.985 . S
C708 C702 1.379 . S
C708 C705 1.363 . S
C708 N706 1.356 1_545 S
C709 C703 1.363 . S
C709 C704 1.379 . S
C709 N707 1.356 . S
N710 C702 1.356 . S
N710 H716 0.984 . S
N710 H717 0.984 . S
N711 C704 1.356 . S
N711 H714 0.984 . S
N711 H715 0.985 . S
H712 N707 0.984 . S
H713 N707 0.985 . S
H714 N711 0.984 . S
H715 N711 0.985 . S
H716 N710 0.984 . S
H717 N710 0.984 . S
H718 N706 0.984 . S
H719 N706 0.985 . S
C720 C721 1.363 . S
C720 C726 1.379 . S
C720 N728 1.356 . S
C721 C720 1.363 . S
C721 C727 1.363 . S
C722 C723 1.363 . S
C722 C727 1.379 . S
C722 N729 1.356 . S
C723 C722 1.363 . S
C723 C726 1.363 . S
N724 C726 1.356 . S
N724 H736 0.984 . S
N724 H737 0.985 . S
N725 C727 1.356 . S
N725 H730 0.984 . S
N725 H731 0.985 . S
C726 C720 1.379 . S
C726 C723 1.363 . S
C726 N724 1.356 . S
C727 C721 1.363 . S
C727 C722 1.379 . S
C727 N725 1.356 . S
N728 C720 1.356 . S
N728 H734 0.984 . S
N728 H735 0.984 . S
N729 C722 1.356 . S
N729 H732 0.984 . S
N729 H733 0.985 . S
H730 N725 0.984 . S
H731 N725 0.985 . S
H732 N729 0.984 . S
H733 N729 0.985 . S
H734 N728 0.984 . S
H735 N728 0.984 . S
H736 N724 0.984 . S
H737 N724 0.985 . S
C738 C739 1.363 . S
C738 C744 1.379 . S
C738 N746 1.356 . S
C739 C738 1.363 . S
C739 C745 1.363 . S
C740 C741 1.363 . S
C740 C745 1.379 . S
C740 N747 1.356 . S
C741 C740 1.363 . S
C741 C744 1.363 . S
N742 C744 1.356 . S
N742 H754 0.984 . S
N742 H755 0.985 . S
N743 C745 1.356 . S
N743 H748 0.984 . S
N743 H749 0.985 . S
C744 C738 1.379 . S
C744 C741 1.363 . S
C744 N742 1.356 . S
C745 C739 1.363 . S
C745 C740 1.379 . S
C745 N743 1.356 . S
N746 C738 1.356 . S
N746 H752 0.984 . S
N746 H753 0.984 . S
N747 C740 1.356 . S
N747 H750 0.984 . S
N747 H751 0.985 . S
H748 N743 0.984 . S
H749 N743 0.985 . S
H750 N747 0.984 . S
H751 N747 0.985 . S
H752 N746 0.984 . S
H753 N746 0.984 . S
H754 N742 0.984 . S
H755 N742 0.985 . S
C756 C757 1.363 . S
C756 C762 1.379 . S
C756 N764 1.356 . S
C757 C756 1.363 . S
C757 C763 1.363 . S
C758 C759 1.363 . S
C758 C763 1.379 . S
C758 N765 1.356 . S
C759 C758 1.363 . S
C759 C762 1.363 . S
N760 C762 1.356 . S
N760 H772 0.984 . S
N760 H773 0.985 . S
N761 C763 1.356 . S
N761 H766 0.984 . S
N761 H767 0.985 . S
C762 C756 1.379 . S
C762 C759 1.363 . S
C762 N760 1.356 . S
C763 C757 1.363 . S
C763 C758 1.379 . S
C763 N761 1.356 . S
N764 C756 1.356 . S
N764 H770 0.984 . S
N764 H771 0.984 . S
N765 C758 1.356 . S
N765 H768 0.984 . S
N765 H769 0.985 . S
H766 N761 0.984 . S
H767 N761 0.985 . S
H768 N765 0.984 . S
H769 N765 0.985 . S
H770 N764 0.984 . S
H771 N764 0.984 . S
H772 N760 0.984 . S
H773 N760 0.985 . S
C774 C775 1.363 . S
C774 C780 1.379 . S
C774 N782 1.356 . S
C775 C774 1.363 . S
C775 C781 1.363 . S
C776 C777 1.363 . S
C776 C781 1.379 . S
C776 N783 1.356 . S
C777 C776 1.363 . S
C777 C780 1.363 . S
N778 C780 1.356 . S
N778 H790 0.984 . S
N778 H791 0.985 . S
N779 C781 1.356 . S
N779 H784 0.984 . S
N779 H785 0.985 . S
C780 C774 1.379 . S
C780 C777 1.363 . S
C780 N778 1.356 . S
C781 C775 1.363 . S
C781 C776 1.379 . S
C781 N779 1.356 . S
N782 C774 1.356 . S
N782 H788 0.984 . S
N782 H789 0.984 . S
N783 C776 1.356 . S
N783 H786 0.984 . S
N783 H787 0.985 . S
H784 N779 0.984 . S
H785 N779 0.985 . S
H786 N783 0.984 . S
H787 N783 0.985 . S
H788 N782 0.984 . S
H789 N782 0.984 . S
H790 N778 0.984 . S
H791 N778 0.985 . S
C792 C793 1.363 . S
C792 C798 1.379 . S
C792 N800 1.356 . S
C793 C792 1.363 . S
C793 C799 1.363 . S
C794 C795 1.363 . S
C794 C799 1.379 . S
C794 N801 1.356 . S
C795 C794 1.363 . S
C795 C798 1.363 . S
N796 C798 1.356 . S
N796 H808 0.984 . S
N796 H809 0.985 . S
N797 C799 1.356 . S
N797 H802 0.984 . S
N797 H803 0.985 . S
C798 C792 1.379 . S
C798 C795 1.363 . S
C798 N796 1.356 . S
C799 C793 1.363 . S
C799 C794 1.379 . S
C799 N797 1.356 . S
N800 C792 1.356 . S
N800 H806 0.984 . S
N800 H807 0.984 . S
N801 C794 1.356 . S
N801 H804 0.984 . S
N801 H805 0.985 . S
H802 N797 0.984 . S
H803 N797 0.985 . S
H804 N801 0.984 . S
H805 N801 0.985 . S
H806 N800 0.984 . S
H807 N800 0.984 . S
H808 N796 0.984 . S
H809 N796 0.985 . S
C810 C811 1.363 . S
C810 C816 1.379 . S
C810 N818 1.356 . S
C811 C810 1.363 . S
C811 C817 1.363 . S
C812 C813 1.363 . S
C812 C817 1.379 . S
C812 N819 1.356 . S
C813 C812 1.363 . S
C813 C816 1.363 . S
N814 C816 1.356 . S
N814 H826 0.984 . S
N814 H827 0.985 . S
N815 C817 1.356 . S
N815 H820 0.984 . S
N815 H821 0.985 . S
C816 C810 1.379 . S
C816 C813 1.363 . S
C816 N814 1.356 . S
C817 C811 1.363 . S
C817 C812 1.379 . S
C817 N815 1.356 . S
N818 C810 1.356 . S
N818 H824 0.984 . S
N818 H825 0.984 . S
N819 C812 1.356 . S
N819 H822 0.984 . S
N819 H823 0.985 . S
H820 N815 0.984 . S
H821 N815 0.985 . S
H822 N819 0.984 . S
H823 N819 0.985 . S
H824 N818 0.984 . S
H825 N818 0.984 . S
H826 N814 0.984 . S
H827 N814 0.985 . S
C828 C829 1.363 . S
C828 C834 1.379 . S
C828 N836 1.356 . S
C829 C828 1.363 . S
C829 C835 1.363 . S
C830 C831 1.363 . S
C830 C835 1.379 . S
C830 N837 1.356 . S
C831 C830 1.363 . S
C831 C834 1.363 . S
N832 C834 1.356 . S
N832 H844 0.984 . S
N832 H845 0.985 . S
N833 C835 1.356 . S
N833 H838 0.984 . S
N833 H839 0.985 . S
C834 C828 1.379 . S
C834 C831 1.363 . S
C834 N832 1.356 . S
C835 C829 1.363 . S
C835 C830 1.379 . S
C835 N833 1.356 . S
N836 C828 1.356 . S
N836 H842 0.984 . S
N836 H843 0.984 . S
N837 C830 1.356 . S
N837 H840 0.984 . S
N837 H841 0.985 . S
H838 N833 0.984 . S
H839 N833 0.985 . S
H840 N837 0.984 . S
H841 N837 0.985 . S
H842 N836 0.984 . S
H843 N836 0.984 . S
H844 N832 0.984 . S
H845 N832 0.985 . S
C846 C847 1.363 . S
C846 C852 1.379 . S
C846 N854 1.356 . S
C847 C846 1.363 . S
C847 C853 1.363 . S
C848 C849 1.363 . S
C848 C853 1.379 . S
C848 N855 1.356 . S
C849 C848 1.363 . S
C849 C852 1.363 . S
N850 C852 1.356 . S
N850 H862 0.984 . S
N850 H863 0.985 . S
N851 C853 1.356 . S
N851 H856 0.984 . S
N851 H857 0.985 . S
C852 C846 1.379 . S
C852 C849 1.363 . S
C852 N850 1.356 . S
C853 C847 1.363 . S
C853 C848 1.379 . S
C853 N851 1.356 . S
N854 C846 1.356 . S
N854 H860 0.984 . S
N854 H861 0.984 . S
N855 C848 1.356 . S
N855 H858 0.984 . S
N855 H859 0.985 . S
H856 N851 0.984 . S
H857 N851 0.985 . S
H858 N855 0.984 . S
H859 N855 0.985 . S
H860 N854 0.984 . S
H861 N854 0.984 . S
H862 N850 0.984 . S
H863 N850 0.985 . S
C864 C865 1.363 . S
C864 C870 1.379 . S
C864 N872 1.356 . S
C865 C864 1.363 . S
C865 C871 1.363 . S
C866 C867 1.363 . S
C866 C871 1.379 . S
C866 N873 1.356 . S
C867 C866 1.363 . S
C867 C870 1.363 . S
N868 C870 1.356 . S
N868 H880 0.984 . S
N868 H881 0.985 . S
N869 C871 1.356 . S
N869 H874 0.984 . S
N869 H875 0.985 . S
C870 C864 1.379 . S
C870 C867 1.363 . S
C870 N868 1.356 . S
C871 C865 1.363 . S
C871 C866 1.379 . S
C871 N869 1.356 . S
N872 C864 1.356 . S
N872 H878 0.984 . S
N872 H879 0.984 . S
N873 C866 1.356 . S
N873 H876 0.984 . S
N873 H877 0.985 . S
H874 N869 0.984 . S
H875 N869 0.985 . S
H876 N873 0.984 . S
H877 N873 0.985 . S
H878 N872 0.984 . S
H879 N872 0.984 . S
H880 N868 0.984 . S
H881 N868 0.985 . S
C882 C883 1.363 . S
C882 C888 1.379 . S
C882 N890 1.356 . S
C883 C882 1.363 . S
C883 C889 1.363 . S
C884 C885 1.363 . S
C884 C889 1.379 . S
C884 N891 1.356 . S
C885 C884 1.363 . S
C885 C888 1.363 . S
N886 C888 1.356 . S
N886 H898 0.984 . S
N886 H899 0.985 . S
N887 C889 1.356 . S
N887 H892 0.984 . S
N887 H893 0.985 . S
C888 C882 1.379 . S
C888 C885 1.363 . S
C888 N886 1.356 . S
C889 C883 1.363 . S
C889 C884 1.379 . S
C889 N887 1.356 . S
N890 C882 1.356 . S
N890 H896 0.984 . S
N890 H897 0.984 . S
N891 C884 1.356 . S
N891 H894 0.984 . S
N891 H895 0.985 . S
H892 N887 0.984 . S
H893 N887 0.985 . S
H894 N891 0.984 . S
H895 N891 0.985 . S
H896 N890 0.984 . S
H897 N890 0.984 . S
H898 N886 0.984 . S
H899 N886 0.985 . S
C900 C901 1.363 . S
C900 C906 1.379 . S
C900 N908 1.356 . S
C901 C900 1.363 . S
C901 C907 1.363 . S
C902 C903 1.363 . S
C902 C907 1.379 . S
C902 N909 1.356 . S
C903 C902 1.363 . S
C903 C906 1.363 . S
N904 C906 1.356 . S
N904 H916 0.984 . S
N904 H917 0.985 . S
N905 C907 1.356 . S
N905 H910 0.984 . S
N905 H911 0.985 . S
C906 C900 1.379 . S
C906 C903 1.363 . S
C906 N904 1.356 . S
C907 C901 1.363 . S
C907 C902 1.379 . S
C907 N905 1.356 . S
N908 C900 1.356 . S
N908 H914 0.984 . S
N908 H915 0.984 . S
N909 C902 1.356 . S
N909 H912 0.984 . S
N909 H913 0.985 . S
H910 N905 0.984 . S
H911 N905 0.985 . S
H912 N909 0.984 . S
H913 N909 0.985 . S
H914 N908 0.984 . S
H915 N908 0.984 . S
H916 N904 0.984 . S
H917 N904 0.985 . S
C918 C919 1.363 . S
C918 C924 1.379 . S
C918 N926 1.356 . S
C919 C918 1.363 . S
C919 C925 1.363 . S
C920 C921 1.363 . S
C920 C925 1.379 . S
C920 N927 1.356 . S
C921 C920 1.363 . S
C921 C924 1.363 . S
N922 C924 1.356 . S
N922 H934 0.984 . S
N922 H935 0.985 . S
N923 C925 1.356 . S
N923 H928 0.984 . S
N923 H929 0.985 . S
C924 C918 1.379 . S
C924 C921 1.363 . S
C924 N922 1.356 . S
C925 C919 1.363 . S
C925 C920 1.379 . S
C925 N923 1.356 . S
N926 C918 1.356 . S
N926 H932 0.984 . S
N926 H933 0.984 . S
N927 C920 1.356 . S
N927 H930 0.984 . S
N927 H931 0.985 . S
H928 N923 0.984 . S
H929 N923 0.985 . S
H930 N927 0.984 . S
H931 N927 0.985 . S
H932 N926 0.984 . S
H933 N926 0.984 . S
H934 N922 0.984 . S
H935 N922 0.985 . S
C936 C937 1.363 . S
C936 C942 1.379 . S
C936 N944 1.356 . S
C937 C936 1.363 . S
C937 C943 1.363 . S
C938 C939 1.363 . S
C938 C943 1.379 . S
C938 N945 1.356 . S
C939 C938 1.363 . S
C939 C942 1.363 . S
N940 C942 1.356 . S
N940 H952 0.984 . S
N940 H953 0.985 . S
N941 C943 1.356 . S
N941 H946 0.984 . S
N941 H947 0.985 . S
C942 C936 1.379 . S
C942 C939 1.363 . S
C942 N940 1.356 . S
C943 C937 1.363 . S
C943 C938 1.379 . S
C943 N941 1.356 . S
N944 C936 1.356 . S
N944 H950 0.984 . S
N944 H951 0.984 . S
N945 C938 1.356 . S
N945 H948 0.984 . S
N945 H949 0.985 . S
H946 N941 0.984 . S
H947 N941 0.985 . S
H948 N945 0.984 . S
H949 N945 0.985 . S
H950 N944 0.984 . S
H951 N944 0.984 . S
H952 N940 0.984 . S
H953 N940 0.985 . S
C954 C955 1.363 . S
C954 C960 1.379 . S
C954 N962 1.356 . S
C955 C954 1.363 . S
C955 C961 1.363 . S
C956 C957 1.363 . S
C956 C961 1.379 . S
C956 N963 1.356 . S
C957 C956 1.363 . S
C957 C960 1.363 . S
N958 C960 1.356 . S
N958 H970 0.984 . S
N958 H971 0.985 . S
N959 C961 1.356 . S
N959 H964 0.984 . S
N959 H965 0.985 . S
C960 C954 1.379 . S
C960 C957 1.363 . S
C960 N958 1.356 . S
C961 C955 1.363 . S
C961 C956 1.379 . S
C961 N959 1.356 . S
N962 C954 1.356 . S
N962 H968 0.984 . S
N962 H969 0.984 . S
N963 C956 1.356 . S
N963 H966 0.984 . S
N963 H967 0.985 . S
H964 N959 0.984 . S
H965 N959 0.985 . S
H966 N963 0.984 . S
H967 N963 0.985 . S
H968 N962 0.984 . S
H969 N962 0.984 . S
H970 N958 0.984 . S
H971 N958 0.985 . S
C972 C973 1.363 . S
C972 C978 1.379 . S
C972 N980 1.356 . S
C973 C972 1.363 . S
C973 C979 1.363 . S
C974 C975 1.363 . S
C974 C979 1.379 . S
C974 N981 1.356 . S
C975 C974 1.363 . S
C975 C978 1.363 . S
N976 C978 1.356 . S
N976 H988 0.984 . S
N976 H989 0.985 . S
N977 C979 1.356 . S
N977 H982 0.984 . S
N977 H983 0.985 . S
C978 C972 1.379 . S
C978 C975 1.363 . S
C978 N976 1.356 . S
C979 C973 1.363 . S
C979 C974 1.379 . S
C979 N977 1.356 . S
N980 C972 1.356 . S
N980 H986 0.984 . S
N980 H987 0.984 . S
N981 C974 1.356 . S
N981 H984 0.984 . S
N981 H985 0.985 . S
H982 N977 0.984 . S
H983 N977 0.985 . S
H984 N981 0.984 . S
H985 N981 0.985 . S
H986 N980 0.984 . S
H987 N980 0.984 . S
H988 N976 0.984 . S
H989 N976 0.985 . S
C990 C991 1.363 . S
C990 C996 1.379 . S
C990 N998 1.356 . S
C991 C990 1.363 . S
C991 C997 1.363 . S
C992 C993 1.363 . S
C992 C997 1.379 . S
C992 N999 1.356 . S
C993 C992 1.363 . S
C993 C996 1.363 . S
N994 C996 1.356 . S
N994 H1006 0.984 . S
N994 H1007 0.985 . S
N995 C997 1.356 . S
N995 H1000 0.984 . S
N995 H1001 0.985 . S
C996 C990 1.379 . S
C996 C993 1.363 . S
C996 N994 1.356 . S
C997 C991 1.363 . S
C997 C992 1.379 . S
C997 N995 1.356 . S
N998 C990 1.356 . S
N998 H1004 0.984 . S
N998 H1005 0.984 . S
N999 C992 1.356 . S
N999 H1002 0.984 . S
N999 H1003 0.985 . S
H1000 N995 0.984 . S
H1001 N995 0.985 . S
H1002 N999 0.984 . S
H1003 N999 0.985 . S
H1004 N998 0.984 . S
H1005 N998 0.984 . S
H1006 N994 0.984 . S
H1007 N994 0.985 . S
C1008 C1009 1.363 . S
C1008 C1014 1.379 . S
C1008 N1016 1.356 . S
C1009 C1008 1.363 . S
C1009 C1015 1.363 . S
C1010 C1011 1.363 . S
C1010 C1015 1.379 . S
C1010 N1017 1.356 . S
C1011 C1010 1.363 . S
C1011 C1014 1.363 . S
N1012 C1014 1.356 . S
N1012 H1024 0.984 . S
N1012 H1025 0.985 . S
N1013 C1015 1.356 . S
N1013 H1018 0.984 . S
N1013 H1019 0.985 . S
C1014 C1008 1.379 . S
C1014 C1011 1.363 . S
C1014 N1012 1.356 . S
C1015 C1009 1.363 . S
C1015 C1010 1.379 . S
C1015 N1013 1.356 . S
N1016 C1008 1.356 . S
N1016 H1022 0.984 . S
N1016 H1023 0.984 . S
N1017 C1010 1.356 . S
N1017 H1020 0.984 . S
N1017 H1021 0.985 . S
H1018 N1013 0.984 . S
H1019 N1013 0.985 . S
H1020 N1017 0.984 . S
H1021 N1017 0.985 . S
H1022 N1016 0.984 . S
H1023 N1016 0.984 . S
H1024 N1012 0.984 . S
H1025 N1012 0.985 . S
C1026 C1027 1.363 . S
C1026 C1032 1.379 . S
C1026 N1034 1.356 . S
C1027 C1026 1.363 . S
C1027 C1033 1.363 . S
C1028 C1029 1.363 . S
C1028 C1033 1.379 . S
C1028 N1035 1.356 . S
C1029 C1028 1.363 . S
C1029 C1032 1.363 . S
N1030 C1032 1.356 . S
N1030 H1042 0.984 . S
N1030 H1043 0.985 . S
N1031 C1033 1.356 . S
N1031 H1036 0.984 . S
N1031 H1037 0.985 . S
C1032 C1026 1.379 . S
C1032 C1029 1.363 . S
C1032 N1030 1.356 . S
C1033 C1027 1.363 . S
C1033 C1028 1.379 . S
C1033 N1031 1.356 . S
N1034 C1026 1.356 . S
N1034 H1040 0.984 . S
N1034 H1041 0.984 . S
N1035 C1028 1.356 . S
N1035 H1038 0.984 . S
N1035 H1039 0.985 . S
H1036 N1031 0.984 . S
H1037 N1031 0.985 . S
H1038 N1035 0.984 . S
H1039 N1035 0.985 . S
H1040 N1034 0.984 . S
H1041 N1034 0.984 . S
H1042 N1030 0.984 . S
H1043 N1030 0.985 . S
C1044 C1045 1.363 . S
C1044 C1050 1.379 . S
C1044 N1052 1.356 . S
C1045 C1044 1.363 . S
C1045 C1051 1.363 . S
C1046 C1047 1.363 . S
C1046 C1051 1.379 . S
C1046 N1053 1.356 . S
C1047 C1046 1.363 . S
C1047 C1050 1.363 . S
N1048 C1050 1.356 . S
N1048 H1060 0.984 . S
N1048 H1061 0.985 . S
N1049 C1051 1.356 . S
N1049 H1054 0.984 . S
N1049 H1055 0.985 . S
C1050 C1044 1.379 . S
C1050 C1047 1.363 . S
C1050 N1048 1.356 . S
C1051 C1045 1.363 . S
C1051 C1046 1.379 . S
C1051 N1049 1.356 . S
N1052 C1044 1.356 . S
N1052 H1058 0.984 . S
N1052 H1059 0.984 . S
N1053 C1046 1.356 . S
N1053 H1056 0.984 . S
N1053 H1057 0.985 . S
H1054 N1049 0.984 . S
H1055 N1049 0.985 . S
H1056 N1053 0.984 . S
H1057 N1053 0.985 . S
H1058 N1052 0.984 . S
H1059 N1052 0.984 . S
H1060 N1048 0.984 . S
H1061 N1048 0.985 . S
C1062 C1063 1.363 . S
C1062 C1068 1.379 . S
C1062 N1070 1.356 . S
C1063 C1062 1.363 . S
C1063 C1069 1.363 . S
C1064 C1065 1.363 . S
C1064 C1069 1.379 . S
C1064 N1071 1.356 . S
C1065 C1064 1.363 . S
C1065 C1068 1.363 . S
N1066 C1068 1.356 . S
N1066 H1078 0.984 . S
N1066 H1079 0.985 . S
N1067 C1069 1.356 . S
N1067 H1072 0.984 . S
N1067 H1073 0.985 . S
C1068 C1062 1.379 . S
C1068 C1065 1.363 . S
C1068 N1066 1.356 . S
C1069 C1063 1.363 . S
C1069 C1064 1.379 . S
C1069 N1067 1.356 . S
N1070 C1062 1.356 . S
N1070 H1076 0.984 . S
N1070 H1077 0.984 . S
N1071 C1064 1.356 . S
N1071 H1074 0.984 . S
N1071 H1075 0.985 . S
H1072 N1067 0.984 . S
H1073 N1067 0.985 . S
H1074 N1071 0.984 . S
H1075 N1071 0.985 . S
H1076 N1070 0.984 . S
H1077 N1070 0.984 . S
H1078 N1066 0.984 . S
H1079 N1066 0.985 . S
C1080 C1081 1.363 . S
C1080 C1086 1.379 . S
C1080 N1088 1.356 . S
C1081 C1080 1.363 . S
C1081 C1087 1.363 . S
C1082 C1083 1.363 . S
C1082 C1087 1.379 . S
C1082 N1089 1.356 . S
C1083 C1082 1.363 . S
C1083 C1086 1.363 . S
N1084 C1086 1.356 . S
N1084 H1096 0.984 . S
N1084 H1097 0.985 . S
N1085 C1087 1.356 . S
N1085 H1090 0.984 . S
N1085 H1091 0.985 . S
C1086 C1080 1.379 . S
C1086 C1083 1.363 . S
C1086 N1084 1.356 . S
C1087 C1081 1.363 . S
C1087 C1082 1.379 . S
C1087 N1085 1.356 . S
N1088 C1080 1.356 . S
N1088 H1094 0.984 . S
N1088 H1095 0.984 . S
N1089 C1082 1.356 . S
N1089 H1092 0.984 . S
N1089 H1093 0.985 . S
H1090 N1085 0.984 . S
H1091 N1085 0.985 . S
H1092 N1089 0.984 . S
H1093 N1089 0.985 . S
H1094 N1088 0.984 . S
H1095 N1088 0.984 . S
H1096 N1084 0.984 . S
H1097 N1084 0.985 . S
C1098 C1099 1.363 . S
C1098 C1104 1.379 . S
C1098 N1106 1.356 . S
C1099 C1098 1.363 . S
C1099 C1105 1.363 . S
C1100 C1101 1.363 . S
C1100 C1105 1.379 . S
C1100 N1107 1.356 . S
C1101 C1100 1.363 . S
C1101 C1104 1.363 . S
N1102 C1104 1.356 . S
N1102 H1114 0.984 . S
N1102 H1115 0.985 . S
N1103 C1105 1.356 . S
N1103 H1108 0.984 . S
N1103 H1109 0.985 . S
C1104 C1098 1.379 . S
C1104 C1101 1.363 . S
C1104 N1102 1.356 . S
C1105 C1099 1.363 . S
C1105 C1100 1.379 . S
C1105 N1103 1.356 . S
N1106 C1098 1.356 . S
N1106 H1112 0.984 . S
N1106 H1113 0.984 . S
N1107 C1100 1.356 . S
N1107 H1110 0.984 . S
N1107 H1111 0.985 . S
H1108 N1103 0.984 . S
H1109 N1103 0.985 . S
H1110 N1107 0.984 . S
H1111 N1107 0.985 . S
H1112 N1106 0.984 . S
H1113 N1106 0.984 . S
H1114 N1102 0.984 . S
H1115 N1102 0.985 . S
C1116 C1117 1.363 . S
C1116 C1122 1.379 . S
C1116 N1124 1.356 . S
C1117 C1116 1.363 . S
C1117 C1123 1.363 . S
C1118 C1119 1.363 . S
C1118 C1123 1.379 . S
C1118 N1125 1.356 . S
C1119 C1118 1.363 . S
C1119 C1122 1.363 . S
N1120 C1122 1.356 . S
N1120 H1132 0.984 . S
N1120 H1133 0.985 . S
N1121 C1123 1.356 . S
N1121 H1126 0.984 . S
N1121 H1127 0.985 . S
C1122 C1116 1.379 . S
C1122 C1119 1.363 . S
C1122 N1120 1.356 . S
C1123 C1117 1.363 . S
C1123 C1118 1.379 . S
C1123 N1121 1.356 . S
N1124 C1116 1.356 . S
N1124 H1130 0.984 . S
N1124 H1131 0.984 . S
N1125 C1118 1.356 . S
N1125 H1128 0.984 . S
N1125 H1129 0.985 . S
H1126 N1121 0.984 . S
H1127 N1121 0.985 . S
H1128 N1125 0.984 . S
H1129 N1125 0.985 . S
H1130 N1124 0.984 . S
H1131 N1124 0.984 . S
H1132 N1120 0.984 . S
H1133 N1120 0.985 . S
C1134 C1135 1.363 . S
C1134 C1140 1.379 . S
C1134 N1142 1.356 . S
C1135 C1134 1.363 . S
C1135 C1141 1.363 . S
C1136 C1137 1.363 . S
C1136 C1141 1.379 . S
C1136 N1143 1.356 . S
C1137 C1136 1.363 . S
C1137 C1140 1.363 . S
N1138 C1140 1.356 . S
N1138 H1150 0.984 . S
N1138 H1151 0.985 . S
N1139 C1141 1.356 . S
N1139 H1144 0.984 . S
N1139 H1145 0.985 . S
C1140 C1134 1.379 . S
C1140 C1137 1.363 . S
C1140 N1138 1.356 . S
C1141 C1135 1.363 . S
C1141 C1136 1.379 . S
C1141 N1139 1.356 . S
N1142 C1134 1.356 . S
N1142 H1148 0.984 . S
N1142 H1149 0.984 . S
N1143 C1136 1.356 . S
N1143 H1146 0.984 . S
N1143 H1147 0.985 . S
H1144 N1139 0.984 . S
H1145 N1139 0.985 . S
H1146 N1143 0.984 . S
H1147 N1143 0.985 . S
H1148 N1142 0.984 . S
H1149 N1142 0.984 . S
H1150 N1138 0.984 . S
H1151 N1138 0.985 . S
C1152 C1153 1.363 . S
C1152 C1158 1.379 . S
C1152 N1160 1.356 . S
C1153 C1152 1.363 . S
C1153 C1159 1.363 . S
C1154 C1155 1.363 . S
C1154 C1159 1.379 . S
C1154 N1161 1.356 . S
C1155 C1154 1.363 . S
C1155 C1158 1.363 . S
N1156 C1158 1.356 . S
N1156 H1168 0.984 . S
N1156 H1169 0.985 . S
N1157 C1159 1.356 . S
N1157 H1162 0.984 . S
N1157 H1163 0.985 . S
C1158 C1152 1.379 . S
C1158 C1155 1.363 . S
C1158 N1156 1.356 . S
C1159 C1153 1.363 . S
C1159 C1154 1.379 . S
C1159 N1157 1.356 . S
N1160 C1152 1.356 . S
N1160 H1166 0.984 . S
N1160 H1167 0.984 . S
N1161 C1154 1.356 . S
N1161 H1164 0.984 . S
N1161 H1165 0.985 . S
H1162 N1157 0.984 . S
H1163 N1157 0.985 . S
H1164 N1161 0.984 . S
H1165 N1161 0.985 . S
H1166 N1160 0.984 . S
H1167 N1160 0.984 . S
H1168 N1156 0.984 . S
H1169 N1156 0.985 . S
C1170 C1171 1.363 1_545 S
C1170 C1176 1.379 . S
C1170 N1178 1.356 . S
C1171 C1170 1.363 1_565 S
C1171 C1177 1.363 . S
C1172 C1173 1.363 1_565 S
C1172 C1177 1.379 . S
C1172 N1179 1.356 . S
C1173 C1172 1.363 1_545 S
C1173 C1176 1.363 . S
N1174 C1176 1.356 . S
N1174 H1186 0.984 . S
N1174 H1187 0.985 . S
N1175 C1177 1.356 . S
N1175 H1180 0.984 . S
N1175 H1181 0.985 . S
C1176 C1170 1.379 . S
C1176 C1173 1.363 . S
C1176 N1174 1.356 . S
C1177 C1171 1.363 . S
C1177 C1172 1.379 . S
C1177 N1175 1.356 . S
N1178 C1170 1.356 . S
N1178 H1184 0.984 . S
N1178 H1185 0.984 1_545 S
N1179 C1172 1.356 . S
N1179 H1182 0.984 1_565 S
N1179 H1183 0.985 . S
H1180 N1175 0.984 . S
H1181 N1175 0.985 . S
H1182 N1179 0.984 1_545 S
H1183 N1179 0.985 . S
H1184 N1178 0.984 . S
H1185 N1178 0.984 1_565 S
H1186 N1174 0.984 . S
H1187 N1174 0.985 . S
C1188 C1189 1.363 1_455 S
C1188 C1194 1.379 . S
C1188 N1196 1.356 . S
C1189 C1188 1.363 1_655 S
C1189 C1195 1.363 . S
C1190 C1191 1.363 1_655 S
C1190 C1195 1.379 . S
C1190 N1197 1.356 . S
C1191 C1190 1.363 1_455 S
C1191 C1194 1.363 . S
N1192 C1194 1.356 . S
N1192 H1204 0.984 . S
N1192 H1205 0.985 . S
N1193 C1195 1.356 . S
N1193 H1198 0.984 . S
N1193 H1199 0.985 . S
C1194 C1188 1.379 . S
C1194 C1191 1.363 . S
C1194 N1192 1.356 . S
C1195 C1189 1.363 . S
C1195 C1190 1.379 . S
C1195 N1193 1.356 . S
N1196 C1188 1.356 . S
N1196 H1202 0.984 . S
N1196 H1203 0.984 1_455 S
N1197 C1190 1.356 . S
N1197 H1200 0.984 1_655 S
N1197 H1201 0.985 . S
H1198 N1193 0.984 . S
H1199 N1193 0.985 . S
H1200 N1197 0.984 1_455 S
H1201 N1197 0.985 . S
H1202 N1196 0.984 . S
H1203 N1196 0.984 1_655 S
H1204 N1192 0.984 . S
H1205 N1192 0.985 . S
C1206 C1207 1.363 . S
C1206 C1212 1.379 . S
C1206 N1214 1.356 . S
C1207 C1206 1.363 . S
C1207 C1213 1.363 . S
C1208 C1209 1.363 . S
C1208 C1213 1.379 . S
C1208 N1215 1.356 . S
C1209 C1208 1.363 . S
C1209 C1212 1.363 . S
N1210 C1212 1.356 . S
N1210 H1222 0.984 . S
N1210 H1223 0.985 . S
N1211 C1213 1.356 . S
N1211 H1216 0.984 . S
N1211 H1217 0.985 . S
C1212 C1206 1.379 . S
C1212 C1209 1.363 . S
C1212 N1210 1.356 . S
C1213 C1207 1.363 . S
C1213 C1208 1.379 . S
C1213 N1211 1.356 . S
N1214 C1206 1.356 . S
N1214 H1220 0.984 . S
N1214 H1221 0.984 . S
N1215 C1208 1.356 . S
N1215 H1218 0.984 . S
N1215 H1219 0.985 . S
H1216 N1211 0.984 . S
H1217 N1211 0.985 . S
H1218 N1215 0.984 . S
H1219 N1215 0.985 . S
H1220 N1214 0.984 . S
H1221 N1214 0.984 . S
H1222 N1210 0.984 . S
H1223 N1210 0.985 . S
C1224 C1225 1.363 . S
C1224 C1230 1.379 . S
C1224 N1232 1.356 . S
C1225 C1224 1.363 . S
C1225 C1231 1.363 1_545 S
C1226 C1227 1.363 . S
C1226 C1231 1.379 . S
C1226 N1233 1.356 . S
C1227 C1226 1.363 . S
C1227 C1230 1.363 1_565 S
N1228 C1230 1.356 . S
N1228 H1240 0.984 . S
N1228 H1241 0.985 1_545 S
N1229 C1231 1.356 . S
N1229 H1234 0.984 1_565 S
N1229 H1235 0.985 . S
C1230 C1224 1.379 . S
C1230 C1227 1.363 1_545 S
C1230 N1228 1.356 . S
C1231 C1225 1.363 1_565 S
C1231 C1226 1.379 . S
C1231 N1229 1.356 . S
N1232 C1224 1.356 . S
N1232 H1238 0.984 . S
N1232 H1239 0.984 . S
N1233 C1226 1.356 . S
N1233 H1236 0.984 . S
N1233 H1237 0.985 . S
H1234 N1229 0.984 1_545 S
H1235 N1229 0.985 . S
H1236 N1233 0.984 . S
H1237 N1233 0.985 . S
H1238 N1232 0.984 . S
H1239 N1232 0.984 . S
H1240 N1228 0.984 . S
H1241 N1228 0.985 1_565 S
C1242 C1243 1.363 1_455 S
C1242 C1248 1.379 . S
C1242 N1250 1.356 . S
C1243 C1242 1.363 1_655 S
C1243 C1249 1.363 . S
C1244 C1245 1.363 1_655 S
C1244 C1249 1.379 . S
C1244 N1251 1.356 . S
C1245 C1244 1.363 1_455 S
C1245 C1248 1.363 . S
N1246 C1248 1.356 . S
N1246 H1258 0.984 . S
N1246 H1259 0.985 . S
N1247 C1249 1.356 . S
N1247 H1252 0.984 . S
N1247 H1253 0.985 . S
C1248 C1242 1.379 . S
C1248 C1245 1.363 . S
C1248 N1246 1.356 . S
C1249 C1243 1.363 . S
C1249 C1244 1.379 . S
C1249 N1247 1.356 . S
N1250 C1242 1.356 . S
N1250 H1256 0.984 . S
N1250 H1257 0.984 1_455 S
N1251 C1244 1.356 . S
N1251 H1254 0.984 1_655 S
N1251 H1255 0.985 . S
H1252 N1247 0.984 . S
H1253 N1247 0.985 . S
H1254 N1251 0.984 1_455 S
H1255 N1251 0.985 . S
H1256 N1250 0.984 . S
H1257 N1250 0.984 1_655 S
H1258 N1246 0.984 . S
H1259 N1246 0.985 . S
C1260 C1261 1.363 . S
C1260 C1266 1.379 . S
C1260 N1268 1.356 . S
C1261 C1260 1.363 . S
C1261 C1267 1.363 . S
C1262 C1263 1.363 . S
C1262 C1267 1.379 . S
C1262 N1269 1.356 . S
C1263 C1262 1.363 . S
C1263 C1266 1.363 . S
N1264 C1266 1.356 . S
N1264 H1276 0.984 . S
N1264 H1277 0.985 . S
N1265 C1267 1.356 . S
N1265 H1270 0.984 . S
N1265 H1271 0.985 . S
C1266 C1260 1.379 . S
C1266 C1263 1.363 . S
C1266 N1264 1.356 . S
C1267 C1261 1.363 . S
C1267 C1262 1.379 . S
C1267 N1265 1.356 . S
N1268 C1260 1.356 . S
N1268 H1274 0.984 . S
N1268 H1275 0.984 . S
N1269 C1262 1.356 . S
N1269 H1272 0.984 . S
N1269 H1273 0.985 . S
H1270 N1265 0.984 . S
H1271 N1265 0.985 . S
H1272 N1269 0.984 . S
H1273 N1269 0.985 . S
H1274 N1268 0.984 . S
H1275 N1268 0.984 . S
H1276 N1264 0.984 . S
H1277 N1264 0.985 . S
C1278 C1279 1.363 . S
C1278 C1284 1.379 . S
C1278 N1286 1.356 . S
C1279 C1278 1.363 . S
C1279 C1285 1.363 . S
C1280 C1281 1.363 . S
C1280 C1285 1.379 . S
C1280 N1287 1.356 . S
C1281 C1280 1.363 . S
C1281 C1284 1.363 . S
N1282 C1284 1.356 . S
N1282 H1294 0.984 . S
N1282 H1295 0.985 . S
N1283 C1285 1.356 . S
N1283 H1288 0.984 . S
N1283 H1289 0.985 . S
C1284 C1278 1.379 . S
C1284 C1281 1.363 . S
C1284 N1282 1.356 . S
C1285 C1279 1.363 . S
C1285 C1280 1.379 . S
C1285 N1283 1.356 . S
N1286 C1278 1.356 . S
N1286 H1292 0.984 . S
N1286 H1293 0.984 . S
N1287 C1280 1.356 . S
N1287 H1290 0.984 . S
N1287 H1291 0.985 . S
H1288 N1283 0.984 . S
H1289 N1283 0.985 . S
H1290 N1287 0.984 . S
H1291 N1287 0.985 . S
H1292 N1286 0.984 . S
H1293 N1286 0.984 . S
H1294 N1282 0.984 . S
H1295 N1282 0.985 . S
C1296 C1297 1.363 . S
C1296 C1302 1.379 . S
C1296 N1304 1.356 . S
C1297 C1296 1.363 . S
C1297 C1303 1.363 . S
C1298 C1299 1.363 . S
C1298 C1303 1.379 . S
C1298 N1305 1.356 . S
C1299 C1298 1.363 . S
C1299 C1302 1.363 . S
N1300 C1302 1.356 . S
N1300 H1312 0.984 . S
N1300 H1313 0.985 . S
N1301 C1303 1.356 . S
N1301 H1306 0.984 . S
N1301 H1307 0.985 . S
C1302 C1296 1.379 . S
C1302 C1299 1.363 . S
C1302 N1300 1.356 . S
C1303 C1297 1.363 . S
C1303 C1298 1.379 . S
C1303 N1301 1.356 . S
N1304 C1296 1.356 . S
N1304 H1310 0.984 . S
N1304 H1311 0.984 . S
N1305 C1298 1.356 . S
N1305 H1308 0.984 . S
N1305 H1309 0.985 . S
H1306 N1301 0.984 . S
H1307 N1301 0.985 . S
H1308 N1305 0.984 . S
H1309 N1305 0.985 . S
H1310 N1304 0.984 . S
H1311 N1304 0.984 . S
H1312 N1300 0.984 . S
H1313 N1300 0.985 . S
C1314 C1315 1.363 . S
C1314 C1320 1.379 . S
C1314 N1322 1.356 . S
C1315 C1314 1.363 . S
C1315 C1321 1.363 . S
C1316 C1317 1.363 . S
C1316 C1321 1.379 . S
C1316 N1323 1.356 . S
C1317 C1316 1.363 . S
C1317 C1320 1.363 . S
N1318 C1320 1.356 . S
N1318 H1330 0.984 . S
N1318 H1331 0.985 . S
N1319 C1321 1.356 . S
N1319 H1324 0.984 . S
N1319 H1325 0.985 . S
C1320 C1314 1.379 . S
C1320 C1317 1.363 . S
C1320 N1318 1.356 . S
C1321 C1315 1.363 . S
C1321 C1316 1.379 . S
C1321 N1319 1.356 . S
N1322 C1314 1.356 . S
N1322 H1328 0.984 . S
N1322 H1329 0.984 . S
N1323 C1316 1.356 . S
N1323 H1326 0.984 . S
N1323 H1327 0.985 . S
H1324 N1319 0.984 . S
H1325 N1319 0.985 . S
H1326 N1323 0.984 . S
H1327 N1323 0.985 . S
H1328 N1322 0.984 . S
H1329 N1322 0.984 . S
H1330 N1318 0.984 . S
H1331 N1318 0.985 . S
C1332 C1333 1.363 . S
C1332 C1338 1.379 . S
C1332 N1340 1.356 . S
C1333 C1332 1.363 . S
C1333 C1339 1.363 . S
C1334 C1335 1.363 . S
C1334 C1339 1.379 . S
C1334 N1341 1.356 . S
C1335 C1334 1.363 . S
C1335 C1338 1.363 . S
N1336 C1338 1.356 . S
N1336 H1348 0.984 . S
N1336 H1349 0.985 . S
N1337 C1339 1.356 . S
N1337 H1342 0.984 . S
N1337 H1343 0.985 . S
C1338 C1332 1.379 . S
C1338 C1335 1.363 . S
C1338 N1336 1.356 . S
C1339 C1333 1.363 . S
C1339 C1334 1.379 . S
C1339 N1337 1.356 . S
N1340 C1332 1.356 . S
N1340 H1346 0.984 1_554 S
N1340 H1347 0.984 1_554 S
N1341 C1334 1.356 . S
N1341 H1344 0.984 . S
N1341 H1345 0.985 . S
H1342 N1337 0.984 . S
H1343 N1337 0.985 . S
H1344 N1341 0.984 . S
H1345 N1341 0.985 . S
H1346 N1340 0.984 1_556 S
H1347 N1340 0.984 1_556 S
H1348 N1336 0.984 . S
H1349 N1336 0.985 . S
C1350 C1351 1.363 . S
C1350 C1356 1.379 . S
C1350 N1358 1.356 1_554 S
C1351 C1350 1.363 . S
C1351 C1357 1.363 . S
C1352 C1353 1.363 . S
C1352 C1357 1.379 . S
C1352 N1359 1.356 . S
C1353 C1352 1.363 . S
C1353 C1356 1.363 . S
N1354 C1356 1.356 . S
N1354 H1366 0.984 . S
N1354 H1367 0.985 . S
N1355 C1357 1.356 . S
N1355 H1360 0.984 . S
N1355 H1361 0.985 . S
C1356 C1350 1.379 . S
C1356 C1353 1.363 . S
C1356 N1354 1.356 . S
C1357 C1351 1.363 . S
C1357 C1352 1.379 . S
C1357 N1355 1.356 . S
N1358 C1350 1.356 1_556 S
N1358 H1364 0.984 . S
N1358 H1365 0.984 . S
N1359 C1352 1.356 . S
N1359 H1362 0.984 . S
N1359 H1363 0.985 . S
H1360 N1355 0.984 . S
H1361 N1355 0.985 . S
H1362 N1359 0.984 . S
H1363 N1359 0.985 . S
H1364 N1358 0.984 . S
H1365 N1358 0.984 . S
H1366 N1354 0.984 . S
H1367 N1354 0.985 . S
C1368 C1369 1.363 . S
C1368 C1374 1.379 . S
C1368 N1376 1.356 . S
C1369 C1368 1.363 . S
C1369 C1375 1.363 . S
C1370 C1371 1.363 . S
C1370 C1375 1.379 . S
C1370 N1377 1.356 . S
C1371 C1370 1.363 . S
C1371 C1374 1.363 . S
N1372 C1374 1.356 . S
N1372 H1384 0.984 . S
N1372 H1385 0.985 . S
N1373 C1375 1.356 1_554 S
N1373 H1378 0.984 . S
N1373 H1379 0.985 . S
C1374 C1368 1.379 . S
C1374 C1371 1.363 . S
C1374 N1372 1.356 . S
C1375 C1369 1.363 . S
C1375 C1370 1.379 . S
C1375 N1373 1.356 1_556 S
N1376 C1368 1.356 . S
N1376 H1382 0.984 . S
N1376 H1383 0.984 . S
N1377 C1370 1.356 . S
N1377 H1380 0.984 . S
N1377 H1381 0.985 . S
H1378 N1373 0.984 . S
H1379 N1373 0.985 . S
H1380 N1377 0.984 . S
H1381 N1377 0.985 . S
H1382 N1376 0.984 . S
H1383 N1376 0.984 . S
H1384 N1372 0.984 . S
H1385 N1372 0.985 . S
C1386 C1387 1.363 . S
C1386 C1392 1.379 . S
C1386 N1394 1.356 . S
C1387 C1386 1.363 . S
C1387 C1393 1.363 . S
C1388 C1389 1.363 . S
C1388 C1393 1.379 . S
C1388 N1395 1.356 1_556 S
C1389 C1388 1.363 . S
C1389 C1392 1.363 . S
N1390 C1392 1.356 . S
N1390 H1402 0.984 . S
N1390 H1403 0.985 . S
N1391 C1393 1.356 . S
N1391 H1396 0.984 . S
N1391 H1397 0.985 . S
C1392 C1386 1.379 . S
C1392 C1389 1.363 . S
C1392 N1390 1.356 . S
C1393 C1387 1.363 . S
C1393 C1388 1.379 . S
C1393 N1391 1.356 . S
N1394 C1386 1.356 . S
N1394 H1400 0.984 . S
N1394 H1401 0.984 . S
N1395 C1388 1.356 1_554 S
N1395 H1398 0.984 . S
N1395 H1399 0.985 . S
H1396 N1391 0.984 . S
H1397 N1391 0.985 . S
H1398 N1395 0.984 . S
H1399 N1395 0.985 . S
H1400 N1394 0.984 . S
H1401 N1394 0.984 . S
H1402 N1390 0.984 . S
H1403 N1390 0.985 . S
C1404 C1405 1.363 . S
C1404 C1410 1.379 . S
C1404 N1412 1.356 . S
C1405 C1404 1.363 . S
C1405 C1411 1.363 . S
C1406 C1407 1.363 . S
C1406 C1411 1.379 . S
C1406 N1413 1.356 . S
C1407 C1406 1.363 . S
C1407 C1410 1.363 . S
N1408 C1410 1.356 . S
N1408 H1420 0.984 . S
N1408 H1421 0.985 . S
N1409 C1411 1.356 . S
N1409 H1414 0.984 . S
N1409 H1415 0.985 . S
C1410 C1404 1.379 . S
C1410 C1407 1.363 . S
C1410 N1408 1.356 . S
C1411 C1405 1.363 . S
C1411 C1406 1.379 . S
C1411 N1409 1.356 . S
N1412 C1404 1.356 . S
N1412 H1418 0.984 . S
N1412 H1419 0.984 1_556 S
N1413 C1406 1.356 . S
N1413 H1416 0.984 . S
N1413 H1417 0.985 . S
H1414 N1409 0.984 . S
H1415 N1409 0.985 . S
H1416 N1413 0.984 . S
H1417 N1413 0.985 . S
H1418 N1412 0.984 . S
H1419 N1412 0.984 1_554 S
H1420 N1408 0.984 . S
H1421 N1408 0.985 . S
C1422 C1423 1.363 . S
C1422 C1428 1.379 . S
C1422 N1430 1.356 . S
C1423 C1422 1.363 . S
C1423 C1429 1.363 . S
C1424 C1425 1.363 . S
C1424 C1429 1.379 . S
C1424 N1431 1.356 . S
C1425 C1424 1.363 . S
C1425 C1428 1.363 . S
N1426 C1428 1.356 . S
N1426 H1438 0.984 . S
N1426 H1439 0.985 . S
N1427 C1429 1.356 . S
N1427 H1432 0.984 . S
N1427 H1433 0.985 . S
C1428 C1422 1.379 . S
C1428 C1425 1.363 . S
C1428 N1426 1.356 . S
C1429 C1423 1.363 . S
C1429 C1424 1.379 . S
C1429 N1427 1.356 . S
N1430 C1422 1.356 . S
N1430 H1436 0.984 . S
N1430 H1437 0.984 . S
N1431 C1424 1.356 . S
N1431 H1434 0.984 . S
N1431 H1435 0.985 . S
H1432 N1427 0.984 . S
H1433 N1427 0.985 . S
H1434 N1431 0.984 . S
H1435 N1431 0.985 . S
H1436 N1430 0.984 . S
H1437 N1430 0.984 . S
H1438 N1426 0.984 . S
H1439 N1426 0.985 . S
C1440 C1441 1.363 . S
C1440 C1446 1.379 . S
C1440 N1448 1.356 . S
C1441 C1440 1.363 . S
C1441 C1447 1.363 . S
C1442 C1443 1.363 . S
C1442 C1447 1.379 . S
C1442 N1449 1.356 . S
C1443 C1442 1.363 . S
C1443 C1446 1.363 . S
N1444 C1446 1.356 . S
N1444 H1456 0.984 . S
N1444 H1457 0.985 . S
N1445 C1447 1.356 . S
N1445 H1450 0.984 . S
N1445 H1451 0.985 . S
C1446 C1440 1.379 . S
C1446 C1443 1.363 . S
C1446 N1444 1.356 . S
C1447 C1441 1.363 . S
C1447 C1442 1.379 . S
C1447 N1445 1.356 . S
N1448 C1440 1.356 . S
N1448 H1454 0.984 . S
N1448 H1455 0.984 . S
N1449 C1442 1.356 . S
N1449 H1452 0.984 . S
N1449 H1453 0.985 . S
H1450 N1445 0.984 . S
H1451 N1445 0.985 . S
H1452 N1449 0.984 . S
H1453 N1449 0.985 . S
H1454 N1448 0.984 . S
H1455 N1448 0.984 . S
H1456 N1444 0.984 . S
H1457 N1444 0.985 . S
C1458 C1459 1.363 . S
C1458 C1464 1.379 . S
C1458 N1466 1.356 . S
C1459 C1458 1.363 . S
C1459 C1465 1.363 . S
C1460 C1461 1.363 . S
C1460 C1465 1.379 . S
C1460 N1467 1.356 . S
C1461 C1460 1.363 . S
C1461 C1464 1.363 . S
N1462 C1464 1.356 . S
N1462 H1474 0.984 . S
N1462 H1475 0.985 . S
N1463 C1465 1.356 . S
N1463 H1468 0.984 . S
N1463 H1469 0.985 . S
C1464 C1458 1.379 . S
C1464 C1461 1.363 . S
C1464 N1462 1.356 . S
C1465 C1459 1.363 . S
C1465 C1460 1.379 . S
C1465 N1463 1.356 . S
N1466 C1458 1.356 . S
N1466 H1472 0.984 . S
N1466 H1473 0.984 . S
N1467 C1460 1.356 . S
N1467 H1470 0.984 . S
N1467 H1471 0.985 . S
H1468 N1463 0.984 . S
H1469 N1463 0.985 . S
H1470 N1467 0.984 . S
H1471 N1467 0.985 . S
H1472 N1466 0.984 . S
H1473 N1466 0.984 . S
H1474 N1462 0.984 . S
H1475 N1462 0.985 . S
C1476 C1477 1.363 . S
C1476 C1482 1.379 . S
C1476 N1484 1.356 . S
C1477 C1476 1.363 . S
C1477 C1483 1.363 . S
C1478 C1479 1.363 . S
C1478 C1483 1.379 . S
C1478 N1485 1.356 . S
C1479 C1478 1.363 . S
C1479 C1482 1.363 . S
N1480 C1482 1.356 . S
N1480 H1492 0.984 . S
N1480 H1493 0.985 . S
N1481 C1483 1.356 . S
N1481 H1486 0.984 . S
N1481 H1487 0.985 . S
C1482 C1476 1.379 . S
C1482 C1479 1.363 . S
C1482 N1480 1.356 . S
C1483 C1477 1.363 . S
C1483 C1478 1.379 . S
C1483 N1481 1.356 . S
N1484 C1476 1.356 . S
N1484 H1490 0.984 . S
N1484 H1491 0.984 . S
N1485 C1478 1.356 . S
N1485 H1488 0.984 . S
N1485 H1489 0.985 . S
H1486 N1481 0.984 . S
H1487 N1481 0.985 . S
H1488 N1485 0.984 . S
H1489 N1485 0.985 . S
H1490 N1484 0.984 . S
H1491 N1484 0.984 . S
H1492 N1480 0.984 . S
H1493 N1480 0.985 . S
C1494 C1495 1.363 . S
C1494 C1500 1.379 . S
C1494 N1502 1.356 . S
C1495 C1494 1.363 . S
C1495 C1501 1.363 . S
C1496 C1497 1.363 . S
C1496 C1501 1.379 . S
C1496 N1503 1.356 . S
C1497 C1496 1.363 . S
C1497 C1500 1.363 . S
N1498 C1500 1.356 . S
N1498 H1510 0.984 . S
N1498 H1511 0.985 . S
N1499 C1501 1.356 . S
N1499 H1504 0.984 . S
N1499 H1505 0.985 . S
C1500 C1494 1.379 . S
C1500 C1497 1.363 . S
C1500 N1498 1.356 . S
C1501 C1495 1.363 . S
C1501 C1496 1.379 . S
C1501 N1499 1.356 . S
N1502 C1494 1.356 . S
N1502 H1508 0.984 . S
N1502 H1509 0.984 . S
N1503 C1496 1.356 . S
N1503 H1506 0.984 . S
N1503 H1507 0.985 . S
H1504 N1499 0.984 . S
H1505 N1499 0.985 . S
H1506 N1503 0.984 . S
H1507 N1503 0.985 . S
H1508 N1502 0.984 . S
H1509 N1502 0.984 . S
H1510 N1498 0.984 . S
H1511 N1498 0.985 . S
C1512 C1513 1.363 . S
C1512 C1518 1.379 . S
C1512 N1520 1.356 . S
C1513 C1512 1.363 . S
C1513 C1519 1.363 . S
C1514 C1515 1.363 . S
C1514 C1519 1.379 . S
C1514 N1521 1.356 . S
C1515 C1514 1.363 . S
C1515 C1518 1.363 . S
N1516 C1518 1.356 . S
N1516 H1528 0.984 . S
N1516 H1529 0.985 . S
N1517 C1519 1.356 . S
N1517 H1522 0.984 . S
N1517 H1523 0.985 . S
C1518 C1512 1.379 . S
C1518 C1515 1.363 . S
C1518 N1516 1.356 . S
C1519 C1513 1.363 . S
C1519 C1514 1.379 . S
C1519 N1517 1.356 . S
N1520 C1512 1.356 . S
N1520 H1526 0.984 . S
N1520 H1527 0.984 . S
N1521 C1514 1.356 . S
N1521 H1524 0.984 . S
N1521 H1525 0.985 . S
H1522 N1517 0.984 . S
H1523 N1517 0.985 . S
H1524 N1521 0.984 . S
H1525 N1521 0.985 . S
H1526 N1520 0.984 . S
H1527 N1520 0.984 . S
H1528 N1516 0.984 . S
H1529 N1516 0.985 . S
C1530 C1531 1.363 . S
C1530 C1536 1.379 . S
C1530 N1538 1.356 . S
C1531 C1530 1.363 . S
C1531 C1537 1.363 . S
C1532 C1533 1.363 . S
C1532 C1537 1.379 . S
C1532 N1539 1.356 . S
C1533 C1532 1.363 . S
C1533 C1536 1.363 . S
N1534 C1536 1.356 . S
N1534 H1546 0.984 . S
N1534 H1547 0.985 . S
N1535 C1537 1.356 . S
N1535 H1540 0.984 . S
N1535 H1541 0.985 . S
C1536 C1530 1.379 . S
C1536 C1533 1.363 . S
C1536 N1534 1.356 . S
C1537 C1531 1.363 . S
C1537 C1532 1.379 . S
C1537 N1535 1.356 . S
N1538 C1530 1.356 . S
N1538 H1544 0.984 . S
N1538 H1545 0.984 . S
N1539 C1532 1.356 . S
N1539 H1542 0.984 . S
N1539 H1543 0.985 . S
H1540 N1535 0.984 . S
H1541 N1535 0.985 . S
H1542 N1539 0.984 . S
H1543 N1539 0.985 . S
H1544 N1538 0.984 . S
H1545 N1538 0.984 . S
H1546 N1534 0.984 . S
H1547 N1534 0.985 . S
C1548 C1549 1.363 . S
C1548 C1554 1.379 . S
C1548 N1556 1.356 . S
C1549 C1548 1.363 . S
C1549 C1555 1.363 . S
C1550 C1551 1.363 . S
C1550 C1555 1.379 . S
C1550 N1557 1.356 . S
C1551 C1550 1.363 . S
C1551 C1554 1.363 . S
N1552 C1554 1.356 . S
N1552 H1564 0.984 . S
N1552 H1565 0.985 . S
N1553 C1555 1.356 . S
N1553 H1558 0.984 . S
N1553 H1559 0.985 . S
C1554 C1548 1.379 . S
C1554 C1551 1.363 . S
C1554 N1552 1.356 . S
C1555 C1549 1.363 . S
C1555 C1550 1.379 . S
C1555 N1553 1.356 . S
N1556 C1548 1.356 . S
N1556 H1562 0.984 . S
N1556 H1563 0.984 . S
N1557 C1550 1.356 . S
N1557 H1560 0.984 . S
N1557 H1561 0.985 . S
H1558 N1553 0.984 . S
H1559 N1553 0.985 . S
H1560 N1557 0.984 . S
H1561 N1557 0.985 . S
H1562 N1556 0.984 . S
H1563 N1556 0.984 . S
H1564 N1552 0.984 . S
H1565 N1552 0.985 . S
C1566 C1567 1.363 . S
C1566 C1572 1.379 . S
C1566 N1574 1.356 . S
C1567 C1566 1.363 . S
C1567 C1573 1.363 . S
C1568 C1569 1.363 . S
C1568 C1573 1.379 . S
C1568 N1575 1.356 . S
C1569 C1568 1.363 . S
C1569 C1572 1.363 . S
N1570 C1572 1.356 . S
N1570 H1582 0.984 . S
N1570 H1583 0.985 . S
N1571 C1573 1.356 . S
N1571 H1576 0.984 . S
N1571 H1577 0.985 . S
C1572 C1566 1.379 . S
C1572 C1569 1.363 . S
C1572 N1570 1.356 . S
C1573 C1567 1.363 . S
C1573 C1568 1.379 . S
C1573 N1571 1.356 . S
N1574 C1566 1.356 . S
N1574 H1580 0.984 . S
N1574 H1581 0.984 . S
N1575 C1568 1.356 . S
N1575 H1578 0.984 . S
N1575 H1579 0.985 . S
H1576 N1571 0.984 . S
H1577 N1571 0.985 . S
H1578 N1575 0.984 . S
H1579 N1575 0.985 . S
H1580 N1574 0.984 . S
H1581 N1574 0.984 . S
H1582 N1570 0.984 . S
H1583 N1570 0.985 . S
C1584 C1585 1.363 . S
C1584 C1590 1.379 . S
C1584 N1592 1.356 . S
C1585 C1584 1.363 . S
C1585 C1591 1.363 . S
C1586 C1587 1.363 . S
C1586 C1591 1.379 . S
C1586 N1593 1.356 . S
C1587 C1586 1.363 . S
C1587 C1590 1.363 . S
N1588 C1590 1.356 . S
N1588 H1600 0.984 . S
N1588 H1601 0.985 . S
N1589 C1591 1.356 . S
N1589 H1594 0.984 . S
N1589 H1595 0.985 . S
C1590 C1584 1.379 . S
C1590 C1587 1.363 . S
C1590 N1588 1.356 . S
C1591 C1585 1.363 . S
C1591 C1586 1.379 . S
C1591 N1589 1.356 . S
N1592 C1584 1.356 . S
N1592 H1598 0.984 . S
N1592 H1599 0.984 . S
N1593 C1586 1.356 . S
N1593 H1596 0.984 . S
N1593 H1597 0.985 . S
H1594 N1589 0.984 . S
H1595 N1589 0.985 . S
H1596 N1593 0.984 . S
H1597 N1593 0.985 . S
H1598 N1592 0.984 . S
H1599 N1592 0.984 . S
H1600 N1588 0.984 . S
H1601 N1588 0.985 . S
C1602 C1603 1.363 . S
C1602 C1608 1.379 . S
C1602 N1610 1.356 . S
C1603 C1602 1.363 . S
C1603 C1609 1.363 . S
C1604 C1605 1.363 . S
C1604 C1609 1.379 . S
C1604 N1611 1.356 . S
C1605 C1604 1.363 . S
C1605 C1608 1.363 . S
N1606 C1608 1.356 . S
N1606 H1618 0.984 . S
N1606 H1619 0.985 . S
N1607 C1609 1.356 . S
N1607 H1612 0.984 . S
N1607 H1613 0.985 . S
C1608 C1602 1.379 . S
C1608 C1605 1.363 . S
C1608 N1606 1.356 . S
C1609 C1603 1.363 . S
C1609 C1604 1.379 . S
C1609 N1607 1.356 . S
N1610 C1602 1.356 . S
N1610 H1616 0.984 . S
N1610 H1617 0.984 . S
N1611 C1604 1.356 . S
N1611 H1614 0.984 . S
N1611 H1615 0.985 . S
H1612 N1607 0.984 . S
H1613 N1607 0.985 . S
H1614 N1611 0.984 . S
H1615 N1611 0.985 . S
H1616 N1610 0.984 . S
H1617 N1610 0.984 . S
H1618 N1606 0.984 . S
H1619 N1606 0.985 . S
C1620 C1621 1.363 . S
C1620 C1626 1.379 . S
C1620 N1628 1.356 . S
C1621 C1620 1.363 . S
C1621 C1627 1.363 . S
C1622 C1623 1.363 . S
C1622 C1627 1.379 . S
C1622 N1629 1.356 . S
C1623 C1622 1.363 . S
C1623 C1626 1.363 . S
N1624 C1626 1.356 . S
N1624 H1636 0.984 . S
N1624 H1637 0.985 . S
N1625 C1627 1.356 . S
N1625 H1630 0.984 . S
N1625 H1631 0.985 . S
C1626 C1620 1.379 . S
C1626 C1623 1.363 . S
C1626 N1624 1.356 . S
C1627 C1621 1.363 . S
C1627 C1622 1.379 . S
C1627 N1625 1.356 . S
N1628 C1620 1.356 . S
N1628 H1634 0.984 . S
N1628 H1635 0.984 . S
N1629 C1622 1.356 . S
N1629 H1632 0.984 . S
N1629 H1633 0.985 . S
H1630 N1625 0.984 . S
H1631 N1625 0.985 . S
H1632 N1629 0.984 . S
H1633 N1629 0.985 . S
H1634 N1628 0.984 . S
H1635 N1628 0.984 . S
H1636 N1624 0.984 . S
H1637 N1624 0.985 . S
C1638 C1639 1.363 . S
C1638 C1644 1.379 . S
C1638 N1646 1.356 . S
C1639 C1638 1.363 . S
C1639 C1645 1.363 . S
C1640 C1641 1.363 . S
C1640 C1645 1.379 . S
C1640 N1647 1.356 . S
C1641 C1640 1.363 . S
C1641 C1644 1.363 . S
N1642 C1644 1.356 . S
N1642 H1654 0.984 . S
N1642 H1655 0.985 . S
N1643 C1645 1.356 . S
N1643 H1648 0.984 . S
N1643 H1649 0.985 . S
C1644 C1638 1.379 . S
C1644 C1641 1.363 . S
C1644 N1642 1.356 . S
C1645 C1639 1.363 . S
C1645 C1640 1.379 . S
C1645 N1643 1.356 . S
N1646 C1638 1.356 . S
N1646 H1652 0.984 . S
N1646 H1653 0.984 . S
N1647 C1640 1.356 . S
N1647 H1650 0.984 . S
N1647 H1651 0.985 . S
H1648 N1643 0.984 . S
H1649 N1643 0.985 . S
H1650 N1647 0.984 . S
H1651 N1647 0.985 . S
H1652 N1646 0.984 . S
H1653 N1646 0.984 . S
H1654 N1642 0.984 . S
H1655 N1642 0.985 . S
C1656 C1657 1.363 . S
C1656 C1662 1.379 . S
C1656 N1664 1.356 . S
C1657 C1656 1.363 . S
C1657 C1663 1.363 . S
C1658 C1659 1.363 . S
C1658 C1663 1.379 . S
C1658 N1665 1.356 . S
C1659 C1658 1.363 . S
C1659 C1662 1.363 . S
N1660 C1662 1.356 . S
N1660 H1672 0.984 . S
N1660 H1673 0.985 . S
N1661 C1663 1.356 . S
N1661 H1666 0.984 . S
N1661 H1667 0.985 . S
C1662 C1656 1.379 . S
C1662 C1659 1.363 . S
C1662 N1660 1.356 . S
C1663 C1657 1.363 . S
C1663 C1658 1.379 . S
C1663 N1661 1.356 . S
N1664 C1656 1.356 . S
N1664 H1670 0.984 . S
N1664 H1671 0.984 . S
N1665 C1658 1.356 . S
N1665 H1668 0.984 . S
N1665 H1669 0.985 . S
H1666 N1661 0.984 . S
H1667 N1661 0.985 . S
H1668 N1665 0.984 . S
H1669 N1665 0.985 . S
H1670 N1664 0.984 . S
H1671 N1664 0.984 . S
H1672 N1660 0.984 . S
H1673 N1660 0.985 . S
C1674 C1675 1.363 . S
C1674 C1680 1.379 . S
C1674 N1682 1.356 . S
C1675 C1674 1.363 . S
C1675 C1681 1.363 . S
C1676 C1677 1.363 . S
C1676 C1681 1.379 . S
C1676 N1683 1.356 . S
C1677 C1676 1.363 . S
C1677 C1680 1.363 . S
N1678 C1680 1.356 . S
N1678 H1690 0.984 . S
N1678 H1691 0.985 . S
N1679 C1681 1.356 . S
N1679 H1684 0.984 . S
N1679 H1685 0.985 . S
C1680 C1674 1.379 . S
C1680 C1677 1.363 . S
C1680 N1678 1.356 . S
C1681 C1675 1.363 . S
C1681 C1676 1.379 . S
C1681 N1679 1.356 . S
N1682 C1674 1.356 . S
N1682 H1688 0.984 . S
N1682 H1689 0.984 . S
N1683 C1676 1.356 . S
N1683 H1686 0.984 . S
N1683 H1687 0.985 . S
H1684 N1679 0.984 . S
H1685 N1679 0.985 . S
H1686 N1683 0.984 . S
H1687 N1683 0.985 . S
H1688 N1682 0.984 . S
H1689 N1682 0.984 . S
H1690 N1678 0.984 . S
H1691 N1678 0.985 . S
C1692 C1693 1.363 . S
C1692 C1698 1.379 1_455 S
C1692 N1700 1.356 . S
C1693 C1692 1.363 . S
C1693 C1699 1.363 . S
C1694 C1695 1.363 . S
C1694 C1699 1.379 1_655 S
C1694 N1701 1.356 . S
C1695 C1694 1.363 . S
C1695 C1698 1.363 . S
N1696 C1698 1.356 . S
N1696 H1708 0.984 . S
N1696 H1709 0.985 . S
N1697 C1699 1.356 . S
N1697 H1702 0.984 . S
N1697 H1703 0.985 . S
C1698 C1692 1.379 1_655 S
C1698 C1695 1.363 . S
C1698 N1696 1.356 . S
C1699 C1693 1.363 . S
C1699 C1694 1.379 1_455 S
C1699 N1697 1.356 . S
N1700 C1692 1.356 . S
N1700 H1706 0.984 . S
N1700 H1707 0.984 . S
N1701 C1694 1.356 . S
N1701 H1704 0.984 . S
N1701 H1705 0.985 . S
H1702 N1697 0.984 . S
H1703 N1697 0.985 . S
H1704 N1701 0.984 . S
H1705 N1701 0.985 . S
H1706 N1700 0.984 . S
H1707 N1700 0.984 . S
H1708 N1696 0.984 . S
H1709 N1696 0.985 . S
C1710 C1711 1.363 . S
C1710 C1716 1.379 . S
C1710 N1718 1.356 . S
C1711 C1710 1.363 . S
C1711 C1717 1.363 . S
C1712 C1713 1.363 . S
C1712 C1717 1.379 . S
C1712 N1719 1.356 . S
C1713 C1712 1.363 . S
C1713 C1716 1.363 . S
N1714 C1716 1.356 . S
N1714 H1726 0.984 . S
N1714 H1727 0.985 . S
N1715 C1717 1.356 . S
N1715 H1720 0.984 . S
N1715 H1721 0.985 . S
C1716 C1710 1.379 . S
C1716 C1713 1.363 . S
C1716 N1714 1.356 . S
C1717 C1711 1.363 . S
C1717 C1712 1.379 . S
C1717 N1715 1.356 . S
N1718 C1710 1.356 . S
N1718 H1724 0.984 . S
N1718 H1725 0.984 . S
N1719 C1712 1.356 . S
N1719 H1722 0.984 . S
N1719 H1723 0.985 . S
H1720 N1715 0.984 . S
H1721 N1715 0.985 . S
H1722 N1719 0.984 . S
H1723 N1719 0.985 . S
H1724 N1718 0.984 . S
H1725 N1718 0.984 . S
H1726 N1714 0.984 . S
H1727 N1714 0.985 . S
C1728 C1729 1.363 . S
C1728 C1734 1.379 1_545 S
C1728 N1736 1.356 . S
C1729 C1728 1.363 . S
C1729 C1735 1.363 . S
C1730 C1731 1.363 . S
C1730 C1735 1.379 1_565 S
C1730 N1737 1.356 . S
C1731 C1730 1.363 . S
C1731 C1734 1.363 . S
N1732 C1734 1.356 . S
N1732 H1744 0.984 . S
N1732 H1745 0.985 . S
N1733 C1735 1.356 . S
N1733 H1738 0.984 . S
N1733 H1739 0.985 . S
C1734 C1728 1.379 1_565 S
C1734 C1731 1.363 . S
C1734 N1732 1.356 . S
C1735 C1729 1.363 . S
C1735 C1730 1.379 1_545 S
C1735 N1733 1.356 . S
N1736 C1728 1.356 . S
N1736 H1742 0.984 . S
N1736 H1743 0.984 . S
N1737 C1730 1.356 . S
N1737 H1740 0.984 . S
N1737 H1741 0.985 . S
H1738 N1733 0.984 . S
H1739 N1733 0.985 . S
H1740 N1737 0.984 . S
H1741 N1737 0.985 . S
H1742 N1736 0.984 . S
H1743 N1736 0.984 . S
H1744 N1732 0.984 . S
H1745 N1732 0.985 . S
C1746 C1747 1.363 1_565 S
C1746 C1752 1.379 . S
C1746 N1754 1.356 1_565 S
C1747 C1746 1.363 1_545 S
C1747 C1753 1.363 1_556 S
C1748 C1749 1.363 1_545 S
C1748 C1753 1.379 . S
C1748 N1755 1.356 1_545 S
C1749 C1748 1.363 1_565 S
C1749 C1752 1.363 1_554 S
N1750 C1752 1.356 . S
N1750 H1762 0.984 . S
N1750 H1763 0.985 . S
N1751 C1753 1.356 . S
N1751 H1756 0.984 . S
N1751 H1757 0.985 . S
C1752 C1746 1.379 . S
C1752 C1749 1.363 1_556 S
C1752 N1750 1.356 . S
C1753 C1747 1.363 1_554 S
C1753 C1748 1.379 . S
C1753 N1751 1.356 . S
N1754 C1746 1.356 1_545 S
N1754 H1760 0.984 1_545 S
N1754 H1761 0.984 . S
N1755 C1748 1.356 1_565 S
N1755 H1758 0.984 . S
N1755 H1759 0.985 1_565 S
H1756 N1751 0.984 . S
H1757 N1751 0.985 . S
H1758 N1755 0.984 . S
H1759 N1755 0.985 1_545 S
H1760 N1754 0.984 1_565 S
H1761 N1754 0.984 . S
H1762 N1750 0.984 . S
H1763 N1750 0.985 . S
C1764 C1765 1.363 1_554 S
C1764 C1770 1.379 . S
C1764 N1772 1.356 . S
C1765 C1764 1.363 1_556 S
C1765 C1771 1.363 1_655 S
C1766 C1767 1.363 1_556 S
C1766 C1771 1.379 . S
C1766 N1773 1.356 . S
C1767 C1766 1.363 1_554 S
C1767 C1770 1.363 1_455 S
N1768 C1770 1.356 1_455 S
N1768 H1780 0.984 1_455 S
N1768 H1781 0.985 . S
N1769 C1771 1.356 1_655 S
N1769 H1774 0.984 . S
N1769 H1775 0.985 1_655 S
C1770 C1764 1.379 . S
C1770 C1767 1.363 1_655 S
C1770 N1768 1.356 1_655 S
C1771 C1765 1.363 1_455 S
C1771 C1766 1.379 . S
C1771 N1769 1.356 1_455 S
N1772 C1764 1.356 . S
N1772 H1778 0.984 . S
N1772 H1779 0.984 . S
N1773 C1766 1.356 . S
N1773 H1776 0.984 . S
N1773 H1777 0.985 . S
H1774 N1769 0.984 . S
H1775 N1769 0.985 1_455 S
H1776 N1773 0.984 . S
H1777 N1773 0.985 . S
H1778 N1772 0.984 . S
H1779 N1772 0.984 . S
H1780 N1768 0.984 1_655 S
H1781 N1768 0.985 . S
C1782 C1783 1.363 1_554 S
C1782 C1788 1.379 . S
C1782 N1790 1.356 . S
C1783 C1782 1.363 1_556 S
C1783 C1789 1.363 . S
C1784 C1785 1.363 1_556 S
C1784 C1789 1.379 . S
C1784 N1791 1.356 . S
C1785 C1784 1.363 1_554 S
C1785 C1788 1.363 . S
N1786 C1788 1.356 . S
N1786 H1798 0.984 . S
N1786 H1799 0.985 . S
N1787 C1789 1.356 . S
N1787 H1792 0.984 . S
N1787 H1793 0.985 . S
C1788 C1782 1.379 . S
C1788 C1785 1.363 . S
C1788 N1786 1.356 . S
C1789 C1783 1.363 . S
C1789 C1784 1.379 . S
C1789 N1787 1.356 . S
N1790 C1782 1.356 . S
N1790 H1796 0.984 . S
N1790 H1797 0.984 1_554 S
N1791 C1784 1.356 . S
N1791 H1794 0.984 1_556 S
N1791 H1795 0.985 . S
H1792 N1787 0.984 . S
H1793 N1787 0.985 . S
H1794 N1791 0.984 1_554 S
H1795 N1791 0.985 . S
H1796 N1790 0.984 . S
H1797 N1790 0.984 1_556 S
H1798 N1786 0.984 . S
H1799 N1786 0.985 . S
C505 C3 1.369 . S
C507 C107 1.336 1_545 S
C523 C17 1.369 . S
C525 C121 1.336 1_655 S
C541 C93 1.336 . S
C543 C31 1.368 . S
C559 C163 1.336 1_455 S
C561 C45 1.369 . S
C577 C59 1.368 . S
C579 C135 1.336 . S
C595 C73 1.369 . S
C597 C149 1.336 1_565 S
C613 C23 1.336 1_565 S
C615 C87 1.369 . S
C631 C37 1.336 1_455 S
C633 C101 1.369 . S
C649 C115 1.368 . S
C651 C9 1.336 . S
C667 C129 1.369 . S
C669 C79 1.336 1_655 S
C685 C51 1.336 . S
C687 C143 1.368 . S
C703 C157 1.369 . S
C705 C65 1.336 1_545 S
C721 C275 1.336 . S
C723 C171 1.369 . S
C739 C185 1.369 . S
C741 C289 1.336 . S
C757 C199 1.368 . S
C759 C261 1.336 . S
C775 C331 1.336 . S
C777 C213 1.368 . S
C793 C227 1.368 . S
C795 C303 1.336 . S
C811 C317 1.336 . S
C813 C241 1.369 . S
C829 C191 1.336 . S
C831 C255 1.369 . S
C847 C269 1.369 . S
C849 C205 1.336 . S
C865 C177 1.336 . S
C867 C283 1.368 . S
C883 C297 1.368 . S
C885 C247 1.336 . S
C901 C311 1.368 . S
C903 C219 1.336 . S
C919 C325 1.369 . S
C921 C233 1.336 . S
C937 C443 1.336 . S
C939 C339 1.369 . S
C955 C457 1.336 . S
C957 C353 1.369 . S
C973 C429 1.336 . S
C975 C367 1.368 . S
C991 C381 1.368 . S
C993 C499 1.336 . S
C1009 C395 1.368 . S
C1011 C471 1.336 . S
C1027 C485 1.336 . S
C1029 C409 1.369 . S
C1045 C423 1.369 . S
C1047 C359 1.336 . S
C1063 C373 1.336 . S
C1065 C437 1.369 . S
C1081 C345 1.336 . S
C1083 C451 1.368 . S
C1099 C465 1.368 . S
C1101 C415 1.336 . S
C1117 C479 1.368 . S
C1119 C387 1.336 . S
C1135 C493 1.369 . S
C1137 C401 1.336 . S
C1153 C49 1.390 . S
C1155 C7 1.390 . S
C1171 C63 1.390 . S
C1173 C21 1.390 . S
C1189 C35 1.390 . S
C1191 C77 1.390 . S
C1207 C133 1.390 . S
C1209 C91 1.390 . S
C1225 C147 1.390 . S
C1227 C105 1.390 . S
C1243 C161 1.390 . S
C1245 C119 1.390 . S
C1261 C217 1.390 . S
C1263 C175 1.390 . S
C1279 C231 1.390 . S
C1281 C189 1.390 . S
C1297 C203 1.390 . S
C1299 C245 1.390 . S
C1315 C301 1.390 . S
C1317 C259 1.390 . S
C1333 C315 1.390 . S
C1335 C273 1.390 . S
C1351 C329 1.390 . S
C1353 C287 1.390 . S
C1369 C385 1.390 . S
C1371 C343 1.390 . S
C1387 C357 1.390 . S
C1389 C399 1.390 . S
C1405 C413 1.390 . S
C1407 C371 1.390 . S
C1423 C427 1.390 . S
C1425 C469 1.390 . S
C1441 C441 1.390 . S
C1443 C483 1.390 . S
C1459 C455 1.390 . S
C1461 C497 1.390 . S
C1477 C8 1.470 . S
C1479 C260 1.470 . S
C1495 C274 1.470 . S
C1497 C22 1.470 . S
C1513 C288 1.470 . S
C1515 C36 1.470 . S
C1531 C470 1.470 . S
C1533 C50 1.470 . S
C1549 C484 1.470 . S
C1551 C64 1.470 . S
C1567 C498 1.470 . S
C1569 C78 1.470 . S
C1585 C92 1.470 . S
C1587 C344 1.470 . S
C1603 C358 1.470 . S
C1605 C106 1.470 . S
C1621 C372 1.470 . S
C1623 C120 1.470 . S
C1639 C134 1.470 . S
C1641 C218 1.470 . S
C1657 C148 1.470 . S
C1659 C232 1.470 . S
C1675 C162 1.470 . S
C1677 C246 1.470 . S
C1693 C428 1.470 . S
C1695 C176 1.470 . S
C1711 C442 1.470 . S
C1713 C190 1.470 . S
C1729 C204 1.470 . S
C1731 C456 1.470 . S
C1747 C302 1.470 . S
C1749 C386 1.470 . S
C1765 C316 1.470 . S
C1767 C400 1.470 . S
C1783 C330 1.470 . S
C1785 C414 1.470 . S
