# Generated by pormake.
# Topology lcy-a, (4)-cn, num edge types: 1
# Building blocks:
#     Node 0, Type 0, BuildingBlock: QUQFOY_clean_sbu_3, # of connection points: 4
#     Node 1, Type 0, BuildingBlock: QUQFOY_clean_sbu_3, # of connection points: 4
#     Node 2, Type 0, BuildingBlock: QUQFOY_clean_sbu_3, # of connection points: 4
#     Node 3, Type 0, BuildingBlock: QUQFOY_clean_sbu_3, # of connection points: 4
#     Node 4, Type 0, BuildingBlock: QUQFOY_clean_sbu_3, # of connection points: 4
#     Node 5, Type 0, BuildingBlock: QUQFOY_clean_sbu_3, # of connection points: 4
#     Node 6, Type 0, BuildingBlock: QUQFOY_clean_sbu_3, # of connection points: 4
#     Node 7, Type 0, BuildingBlock: QUQFOY_clean_sbu_3, # of connection points: 4
#     Node 8, Type 0, BuildingBlock: QUQFOY_clean_sbu_3, # of connection points: 4
#     Node 9, Type 0, BuildingBlock: QUQFOY_clean_sbu_3, # of connection points: 4
#     Node 10, Type 0, BuildingBlock: QUQFOY_clean_sbu_3, # of connection points: 4
#     Node 11, Type 0, BuildingBlock: QUQFOY_clean_sbu_3, # of connection points: 4
#     Node 12, Type 0, BuildingBlock: QUQFOY_clean_sbu_3, # of connection points: 4
#     Node 13, Type 0, BuildingBlock: QUQFOY_clean_sbu_3, # of connection points: 4
#     Node 14, Type 0, BuildingBlock: QUQFOY_clean_sbu_3, # of connection points: 4
#     Node 15, Type 0, BuildingBlock: QUQFOY_clean_sbu_3, # of connection points: 4
#     Node 16, Type 0, BuildingBlock: QUQFOY_clean_sbu_3, # of connection points: 4
#     Node 17, Type 0, BuildingBlock: QUQFOY_clean_sbu_3, # of connection points: 4
#     Node 18, Type 0, BuildingBlock: QUQFOY_clean_sbu_3, # of connection points: 4
#     Node 19, Type 0, BuildingBlock: QUQFOY_clean_sbu_3, # of connection points: 4
#     Node 20, Type 0, BuildingBlock: QUQFOY_clean_sbu_3, # of connection points: 4
#     Node 21, Type 0, BuildingBlock: QUQFOY_clean_sbu_3, # of connection points: 4
#     Node 22, Type 0, BuildingBlock: QUQFOY_clean_sbu_3, # of connection points: 4
#     Node 23, Type 0, BuildingBlock: QUQFOY_clean_sbu_3, # of connection points: 4
#     Edge 24, Type (0, 0), None
#     Edge 25, Type (0, 0), None
#     Edge 26, Type (0, 0), None
#     Edge 27, Type (0, 0), None
#     Edge 28, Type (0, 0), None
#     Edge 29, Type (0, 0), None
#     Edge 30, Type (0, 0), None
#     Edge 31, Type (0, 0), None
#     Edge 32, Type (0, 0), None
#     Edge 33, Type (0, 0), None
#     Edge 34, Type (0, 0), None
#     Edge 35, Type (0, 0), None
#     Edge 36, Type (0, 0), None
#     Edge 37, Type (0, 0), None
#     Edge 38, Type (0, 0), None
#     Edge 39, Type (0, 0), None
#     Edge 40, Type (0, 0), None
#     Edge 41, Type (0, 0), None
#     Edge 42, Type (0, 0), None
#     Edge 43, Type (0, 0), None
#     Edge 44, Type (0, 0), None
#     Edge 45, Type (0, 0), None
#     Edge 46, Type (0, 0), None
#     Edge 47, Type (0, 0), None
#     Edge 48, Type (0, 0), None
#     Edge 49, Type (0, 0), None
#     Edge 50, Type (0, 0), None
#     Edge 51, Type (0, 0), None
#     Edge 52, Type (0, 0), None
#     Edge 53, Type (0, 0), None
#     Edge 54, Type (0, 0), None
#     Edge 55, Type (0, 0), None
#     Edge 56, Type (0, 0), None
#     Edge 57, Type (0, 0), None
#     Edge 58, Type (0, 0), None
#     Edge 59, Type (0, 0), None
#     Edge 60, Type (0, 0), None
#     Edge 61, Type (0, 0), None
#     Edge 62, Type (0, 0), None
#     Edge 63, Type (0, 0), None
#     Edge 64, Type (0, 0), None
#     Edge 65, Type (0, 0), None
#     Edge 66, Type (0, 0), None
#     Edge 67, Type (0, 0), None
#     Edge 68, Type (0, 0), None
#     Edge 69, Type (0, 0), None
#     Edge 70, Type (0, 0), None
#     Edge 71, Type (0, 0), None
# Relax obj value: 0.395
# Max RMSD: 0.187
# Mean RMSD: 0.187
data_MOF--net-lcy-a--node1-QUQFOY_clean_sbu_3--edge1-none
_symmetry_space_group_name_H-M    P1
_symmetry_Int_Tables_number       1
_symmetry_cell_setting            triclinic
loop_
_symmetry_equiv_pos_as_xyz
'x, y, z'
_cell_length_a     29.719878
_cell_length_b     29.719288
_cell_length_c     29.718795
_cell_angle_alpha  89.999667
_cell_angle_beta   89.999362
_cell_angle_gamma 90.000034
loop_
_atom_site_label
_atom_site_type_symbol
_atom_site_fract_x
_atom_site_fract_y
_atom_site_fract_z
_atom_type_partial_charge
C0 C 0.24721 0.18832 0.31607 0.0
O1 O 0.25596 0.23009 0.31504 0.0
Cd2 Cd 0.2197 0.28753 0.35838 0.0
O3 O 0.21313 0.1739 0.33761 0.0
Cd4 Cd 0.15179 0.22444 0.36509 0.0
C5 C 0.15813 0.29953 0.28229 0.0
O6 O 0.19384 0.25747 0.42784 0.0
O7 O 0.13842 0.29733 0.40524 0.0
O8 O 0.12116 0.1609 0.40642 0.0
C9 C 0.17 0.29228 0.43353 0.0
O10 O 0.159 0.32273 0.31784 0.0
C11 C 0.08063 0.16815 0.39516 0.0
O12 O 0.15621 0.25701 0.28723 0.0
O13 O 0.07322 0.20021 0.36776 0.0
C14 C 0.93592 -0.00282 0.56605 0.0
O15 O 0.89415 0.00594 0.56502 0.0
Cd16 Cd 0.8367 -0.03032 0.60834 0.0
O17 O -0.04967 -0.03691 0.58759 0.0
Cd18 Cd 0.89978 0.90176 0.61506 0.0
C19 C 0.82471 0.90812 0.53225 0.0
O20 O 0.86674 -0.05619 0.67781 0.0
O21 O 0.82689 0.88839 0.6552 0.0
O22 O -0.03668 0.87112 0.65639 0.0
C23 C 0.83194 0.91997 0.68349 0.0
O24 O 0.80151 0.90899 0.5678 0.0
C25 C -0.04393 0.8306 0.64514 0.0
O26 O 0.86722 0.90619 0.53719 0.0
O27 O 0.92401 0.82318 0.61773 0.0
C28 C 0.12703 0.68593 0.81606 0.0
O29 O 0.11828 0.64417 0.81504 0.0
Cd30 Cd 0.15452 0.58672 0.85837 0.0
O31 O 0.1611 0.70035 0.8376 0.0
Cd32 Cd 0.22244 0.64981 0.86509 0.0
C33 C 0.2161 0.57472 0.7823 0.0
O34 O 0.18039 0.61678 0.92784 0.0
O35 O 0.23581 0.57693 0.90524 0.0
O36 O 0.25307 0.71335 0.90642 0.0
C37 C 0.20422 0.58197 0.93353 0.0
O38 O 0.21523 0.55152 0.81785 0.0
C39 C 0.2936 0.7061 0.89516 0.0
O40 O 0.21802 0.61724 0.78723 0.0
O41 O 0.30101 0.67404 0.86776 0.0
C42 C 0.43831 0.87707 0.06605 0.0
O43 O 0.48007 0.86831 0.06503 0.0
Cd44 Cd 0.53753 0.90455 0.10835 0.0
O45 O 0.4239 0.91115 0.08759 0.0
Cd46 Cd 0.47445 -0.02751 0.11506 0.0
C47 C 0.54952 -0.03387 0.03226 0.0
O48 O 0.50748 0.93044 0.17781 0.0
O49 O 0.54733 -0.01414 0.1552 0.0
O50 O 0.41091 0.00312 0.1564 0.0
C51 C 0.54229 -0.04573 0.18349 0.0
O52 O 0.57272 -0.03474 0.0678 0.0
C53 C 0.41816 0.04365 0.14514 0.0
O54 O 0.50701 -0.03194 0.03719 0.0
O55 O 0.45022 0.05106 0.11774 0.0
C56 C 0.74721 0.18592 0.5582 0.0
O57 O 0.75596 0.14415 0.55922 0.0
Cd58 Cd 0.71971 0.0867 0.51589 0.0
O59 O 0.71313 0.20034 0.53667 0.0
Cd60 Cd 0.65179 0.1498 0.50918 0.0
C61 C 0.65813 0.07471 0.59197 0.0
O62 O 0.69384 0.11677 0.44643 0.0
O63 O 0.63842 0.07692 0.46902 0.0
O64 O 0.62116 0.21335 0.46785 0.0
C65 C 0.67001 0.08197 0.44074 0.0
O66 O 0.659 0.05152 0.55642 0.0
C67 C 0.58063 0.2061 0.47911 0.0
O68 O 0.65621 0.11723 0.58704 0.0
O69 O 0.57322 0.17403 0.50651 0.0
C70 C -0.06167 0.49719 0.80821 0.0
O71 O -0.01991 0.50594 0.80923 0.0
Cd72 Cd 0.03755 0.46969 0.76592 0.0
O73 O 0.92391 0.46309 0.78668 0.0
Cd74 Cd -0.02554 0.40175 0.75921 0.0
C75 C 0.04952 0.40812 0.84201 0.0
O76 O 0.00749 0.44381 0.69646 0.0
O77 O 0.04734 0.38839 0.71907 0.0
O78 O 0.91092 0.37113 0.71787 0.0
C79 C 0.04229 0.41997 0.69078 0.0
O80 O 0.07273 0.40899 0.80646 0.0
C81 C 0.91816 0.3306 0.72913 0.0
O82 O 0.00701 0.40619 0.83708 0.0
O83 O -0.04978 0.32318 0.75653 0.0
C84 C 0.62702 0.68833 0.0582 0.0
O85 O 0.61827 0.7301 0.05922 0.0
Cd86 Cd 0.65453 0.78755 0.01589 0.0
O87 O 0.6611 0.67391 0.03666 0.0
Cd88 Cd 0.72244 0.72445 0.00918 0.0
C89 C 0.7161 0.79953 0.09197 0.0
O90 O 0.68039 0.75748 -0.05357 0.0
O91 O 0.73581 0.79733 -0.03098 0.0
O92 O 0.75307 0.6609 -0.03215 0.0
C93 C 0.70422 0.79228 -0.05926 0.0
O94 O 0.71524 0.82273 0.05642 0.0
C95 C 0.7936 0.66815 -0.02089 0.0
O96 O 0.71802 0.75702 0.08704 0.0
O97 O 0.80101 0.70021 0.0065 0.0
C98 C 0.43591 0.37706 0.30821 0.0
O99 O 0.39415 0.36831 0.30924 0.0
Cd100 Cd 0.33669 0.40456 0.26592 0.0
O101 O 0.45032 0.41115 0.28668 0.0
Cd102 Cd 0.39978 0.47249 0.25921 0.0
C103 C 0.32471 0.46613 0.34201 0.0
O104 O 0.36674 0.43044 0.19646 0.0
O105 O 0.3269 0.48586 0.21906 0.0
O106 O 0.46332 0.50312 0.21787 0.0
C107 C 0.33194 0.45427 0.19077 0.0
O108 O 0.30151 0.46527 0.30647 0.0
C109 C 0.45607 0.54364 0.22913 0.0
O110 O 0.36722 0.46806 0.33708 0.0
O111 O 0.42401 0.55106 0.25653 0.0
C112 C 0.31607 0.24722 0.18838 0.0
O113 O 0.31508 0.25599 0.23015 0.0
Cd114 Cd 0.3584 0.21973 0.28761 0.0
O115 O 0.33756 0.21312 0.17396 0.0
Cd116 Cd 0.36507 0.15177 0.22448 0.0
C117 C 0.28233 0.15808 0.2996 0.0
O118 O 0.42782 0.19381 0.2575 0.0
O119 O 0.40522 0.13839 0.29736 0.0
O120 O 0.40639 0.12114 0.16092 0.0
C121 C 0.43351 0.16998 0.2923 0.0
O122 O 0.31784 0.15906 0.32285 0.0
C123 C 0.39514 0.08062 0.16818 0.0
O124 O 0.28723 0.15616 0.25708 0.0
O125 O 0.36774 0.0732 0.20024 0.0
C126 C 0.87705 0.06607 0.43837 0.0
O127 O 0.86827 0.06508 0.48013 0.0
Cd128 Cd 0.90452 0.10838 0.53761 0.0
O129 O 0.91117 0.08755 0.42396 0.0
Cd130 Cd -0.02749 0.11505 0.47448 0.0
C131 C -0.03383 0.0323 0.5496 0.0
O132 O 0.93046 0.1778 0.50751 0.0
O133 O -0.01412 0.1552 0.54737 0.0
O134 O 0.00314 0.15638 0.41094 0.0
C135 C -0.04571 0.18349 0.54231 0.0
O136 O -0.03481 0.06782 0.57284 0.0
C137 C 0.04366 0.14512 0.41819 0.0
O138 O -0.0319 0.0372 0.50708 0.0
O139 O 0.05108 0.11772 0.45025 0.0
C140 C 0.05817 0.62703 0.68838 0.0
O141 O 0.05916 0.61827 0.73015 0.0
Cd142 Cd 0.01584 0.65452 0.7876 0.0
O143 O 0.03667 0.66113 0.67396 0.0
Cd144 Cd 0.00916 0.72248 0.72448 0.0
C145 C 0.09191 0.71617 0.7996 0.0
O146 O -0.05358 0.68043 0.7575 0.0
O147 O -0.03099 0.73585 0.79735 0.0
O148 O -0.03216 0.75311 0.66092 0.0
C149 C -0.05928 0.70426 0.7923 0.0
O150 O 0.05639 0.7152 0.82284 0.0
C151 C -0.02091 0.79363 0.66817 0.0
O152 O 0.08701 0.71809 0.75708 0.0
O153 O 0.00649 0.80105 0.70024 0.0
C154 C 0.49718 0.80818 -0.06162 0.0
O155 O 0.50595 0.80917 -0.01986 0.0
Cd156 Cd 0.4697 0.76587 0.03761 0.0
O157 O 0.46306 0.78669 0.92396 0.0
Cd158 Cd 0.40172 0.7592 -0.02551 0.0
C159 C 0.40806 0.84195 0.0496 0.0
O160 O 0.44376 0.69645 0.00751 0.0
O161 O 0.38835 0.71905 0.04737 0.0
O162 O 0.37109 0.71787 0.91094 0.0
C163 C 0.41994 0.69076 0.04232 0.0
O164 O 0.40903 0.80643 0.07285 0.0
C165 C 0.33057 0.72912 0.9182 0.0
O166 O 0.40613 0.83705 0.00708 0.0
O167 O 0.32315 0.75653 -0.04974 0.0
C168 C 0.81609 0.12702 0.68586 0.0
O169 O 0.81512 0.11824 0.6441 0.0
Cd170 Cd 0.85842 0.15451 0.58664 0.0
O171 O 0.83756 0.16114 0.70029 0.0
Cd172 Cd 0.86507 0.22249 0.64978 0.0
C173 C 0.78233 0.21616 0.57466 0.0
O174 O 0.92783 0.18045 0.61677 0.0
O175 O 0.9052 0.23588 0.57689 0.0
O176 O 0.9064 0.25311 0.71334 0.0
C177 C 0.93347 0.20428 0.58196 0.0
O178 O 0.81784 0.21518 0.55142 0.0
C179 C 0.89514 0.29363 0.70609 0.0
O180 O 0.78723 0.21808 0.61718 0.0
O181 O 0.86774 0.30106 0.67403 0.0
C182 C -0.00281 0.56608 0.93588 0.0
O183 O 0.00598 0.56512 0.89411 0.0
Cd184 Cd -0.03028 0.60841 0.83664 0.0
O185 O -0.03694 0.58754 -0.04971 0.0
Cd186 Cd 0.90171 0.61505 0.89977 0.0
C187 C 0.90808 0.5323 0.82466 0.0
O188 O -0.05624 0.67781 0.86676 0.0
O189 O 0.88833 0.65517 0.82688 0.0
O190 O 0.87109 0.65638 -0.03668 0.0
C191 C 0.91992 0.68345 0.83194 0.0
O192 O 0.90906 0.56782 0.80141 0.0
C193 C 0.83056 0.64512 -0.04393 0.0
O194 O 0.90613 0.5372 0.86718 0.0
O195 O 0.82314 0.61772 0.92402 0.0
C196 C 0.55814 0.74723 0.18587 0.0
O197 O 0.55911 0.75601 0.14411 0.0
Cd198 Cd 0.5158 0.71974 0.08664 0.0
O199 O 0.53668 0.71311 0.20029 0.0
Cd200 Cd 0.50916 0.65176 0.14978 0.0
C201 C 0.5919 0.6581 0.07466 0.0
O202 O 0.4464 0.6938 0.11677 0.0
O203 O 0.46903 0.63837 0.0769 0.0
O204 O 0.46784 0.62114 0.21334 0.0
C205 C 0.44075 0.66997 0.08196 0.0
O206 O 0.55638 0.65908 0.05142 0.0
C207 C 0.47909 0.58061 0.20609 0.0
O208 O 0.587 0.65617 0.11718 0.0
O209 O 0.5065 0.57319 0.17403 0.0
C210 C 0.37704 0.30816 0.43588 0.0
O211 O 0.36826 0.30912 0.39411 0.0
Cd212 Cd 0.40452 0.26583 0.33664 0.0
O213 O 0.41117 0.2867 0.4503 0.0
Cd214 Cd 0.47252 0.25919 0.39977 0.0
C215 C 0.46616 0.34194 0.32467 0.0
O216 O 0.43048 0.19643 0.36676 0.0
O217 O 0.4859 0.21907 0.32688 0.0
O218 O 0.50314 0.21786 0.46332 0.0
C219 C 0.45431 0.1908 0.33195 0.0
O220 O 0.46518 0.30643 0.30142 0.0
C221 C 0.54367 0.22912 0.45607 0.0
O222 O 0.4681 0.33704 0.36718 0.0
O223 O 0.55109 0.25653 0.42402 0.0
C224 C 0.18839 0.31604 0.24721 0.0
O225 O 0.23014 0.31512 0.25603 0.0
Cd226 Cd 0.28764 0.35844 0.21984 0.0
O227 O 0.17396 0.3375 0.21308 0.0
Cd228 Cd 0.22448 0.36506 0.15176 0.0
C229 C 0.29962 0.28235 0.15814 0.0
O230 O 0.2575 0.4278 0.19383 0.0
O231 O 0.29735 0.40521 0.13836 0.0
O232 O 0.16092 0.4064 0.12116 0.0
C233 C 0.29229 0.43346 0.16998 0.0
O234 O 0.32285 0.31787 0.15916 0.0
C235 C 0.16815 0.39515 0.08063 0.0
O236 O 0.25711 0.28723 0.15616 0.0
O237 O 0.20021 0.36775 0.07319 0.0
C238 C 0.68839 0.0582 0.62705 0.0
O239 O 0.73014 0.05912 0.61822 0.0
Cd240 Cd 0.78764 0.0158 0.65441 0.0
O241 O 0.67396 0.03675 0.66119 0.0
Cd242 Cd 0.72448 0.00919 0.72251 0.0
C243 C 0.79963 0.09189 0.71611 0.0
O244 O 0.75749 -0.05355 0.68044 0.0
O245 O 0.79735 -0.03096 0.7359 0.0
O246 O 0.66093 -0.03214 0.7531 0.0
C247 C 0.79229 -0.05922 0.70429 0.0
O248 O 0.82286 0.05636 0.71509 0.0
C249 C 0.66815 -0.02089 0.79363 0.0
O250 O 0.75712 0.08702 0.71809 0.0
O251 O 0.70022 0.0065 0.80107 0.0
C252 C 0.06602 0.43839 0.87709 0.0
O253 O 0.0651 0.48014 0.86826 0.0
Cd254 Cd 0.1084 0.53765 0.90443 0.0
O255 O 0.08747 0.42397 0.91123 0.0
Cd256 Cd 0.11502 0.4745 -0.02745 0.0
C257 C 0.03231 0.54964 -0.03387 0.0
O258 O 0.17775 0.50753 0.93048 0.0
O259 O 0.15516 0.54738 -0.01406 0.0
O260 O 0.15636 0.41095 0.00315 0.0
C261 C 0.18342 0.54233 -0.04567 0.0
O262 O 0.06783 0.57287 -0.03489 0.0
C263 C 0.14512 0.41819 0.04368 0.0
O264 O 0.03718 0.50712 -0.03188 0.0
O265 O 0.11771 0.45024 0.05111 0.0
C266 C 0.68585 0.81604 0.12705 0.0
O267 O 0.64409 0.81512 0.11823 0.0
Cd268 Cd 0.58659 0.85844 0.15441 0.0
O269 O 0.70027 0.8375 0.16119 0.0
Cd270 Cd 0.64975 0.86506 0.22251 0.0
C271 C 0.5746 0.78235 0.21611 0.0
O272 O 0.61673 0.9278 0.18044 0.0
O273 O 0.57688 0.90521 0.2359 0.0
O274 O 0.7133 0.90639 0.2531 0.0
C275 C 0.58193 0.93346 0.20429 0.0
O276 O 0.55137 0.81788 0.21509 0.0
C277 C 0.70607 0.89514 0.29363 0.0
O278 O 0.61711 0.78722 0.2181 0.0
O279 O 0.67401 0.86774 0.30107 0.0
C280 C 0.30821 0.43586 0.37709 0.0
O281 O 0.30913 0.39411 0.36826 0.0
Cd282 Cd 0.26583 0.3366 0.40443 0.0
O283 O 0.28676 0.45028 0.41123 0.0
Cd284 Cd 0.25921 0.39974 0.47255 0.0
C285 C 0.34192 0.3246 0.46613 0.0
O286 O 0.19647 0.36673 0.43048 0.0
O287 O 0.21907 0.32687 0.48594 0.0
O288 O 0.21787 0.46329 0.50315 0.0
C289 C 0.19081 0.33193 0.45433 0.0
O290 O 0.30639 0.30137 0.46511 0.0
C291 C 0.22912 0.45606 0.54368 0.0
O292 O 0.33705 0.36712 0.46812 0.0
O293 O 0.25652 0.424 0.55111 0.0
C294 C 0.18585 0.55821 0.74721 0.0
O295 O 0.1441 0.55914 0.75603 0.0
Cd296 Cd 0.0866 0.51582 0.71984 0.0
O297 O 0.20028 0.53675 0.71308 0.0
Cd298 Cd 0.14976 0.50919 0.65176 0.0
C299 C 0.07462 0.5919 0.65814 0.0
O300 O 0.11674 0.44645 0.69383 0.0
O301 O 0.07689 0.46904 0.63837 0.0
O302 O 0.21331 0.46785 0.62117 0.0
C303 C 0.08194 0.44078 0.66998 0.0
O304 O 0.05139 0.55638 0.65915 0.0
C305 C 0.20608 0.47909 0.58064 0.0
O306 O 0.11714 0.58702 0.65617 0.0
O307 O 0.17402 0.5065 0.5732 0.0
C308 C 0.56602 0.93586 -0.00283 0.0
O309 O 0.56509 0.89411 0.006 0.0
Cd310 Cd 0.60839 0.8366 -0.03018 0.0
O311 O 0.58747 -0.04972 -0.03696 0.0
Cd312 Cd 0.61502 0.89975 0.90172 0.0
C313 C 0.5323 0.82462 0.90812 0.0
O314 O 0.67775 0.86673 -0.05621 0.0
O315 O 0.65516 0.82687 0.88833 0.0
O316 O 0.65636 -0.0367 0.87112 0.0
C317 C 0.68342 0.83193 0.91994 0.0
O318 O 0.56782 0.80139 0.90914 0.0
C319 C 0.64512 -0.04394 0.83059 0.0
O320 O 0.53718 0.86714 0.90614 0.0
O321 O 0.61771 0.92401 0.82315 0.0
C322 C 0.80821 -0.06162 0.49717 0.0
O323 O 0.80915 -0.01986 0.50599 0.0
Cd324 Cd 0.76584 0.03765 0.46981 0.0
O325 O 0.78676 0.92397 0.46303 0.0
Cd326 Cd 0.75921 -0.0255 0.40172 0.0
C327 C 0.84193 0.04963 0.40812 0.0
O328 O 0.69648 0.00752 0.44379 0.0
O329 O 0.71907 0.04738 0.38833 0.0
O330 O 0.71786 0.91095 0.37112 0.0
C331 C 0.69081 0.04232 0.41994 0.0
O332 O 0.80641 0.07286 0.40913 0.0
C333 C 0.72911 0.91819 0.33059 0.0
O334 O 0.83705 0.00711 0.40613 0.0
O335 O 0.75652 -0.04976 0.32315 0.0
loop_
_geom_bond_atom_site_label_1
_geom_bond_atom_site_label_2
_geom_bond_distance
_geom_bond_site_symmetry_2
_ccdc_geom_bond_type
C0 O1 1.306 . S
C0 O3 1.160 . S
O1 C0 1.306 . S
O1 Cd2 2.228 . S
Cd2 O1 2.228 . S
Cd2 O6 2.273 . S
Cd2 O10 2.277 . S
O3 C0 1.160 . S
O3 Cd4 2.203 . S
Cd4 O3 2.203 . S
Cd4 O6 2.411 . S
Cd4 O7 2.333 . S
Cd4 O8 2.352 . S
Cd4 O12 2.277 . S
Cd4 O13 2.356 . S
C5 O10 1.209 . S
C5 O12 1.226 . S
O6 Cd2 2.273 . S
O6 Cd4 2.411 . S
O6 C9 1.320 . S
O7 Cd4 2.333 . S
O7 C9 1.214 . S
O8 Cd4 2.352 . S
O8 C11 1.258 . S
C9 O6 1.320 . S
C9 O7 1.214 . S
O10 Cd2 2.277 . S
O10 C5 1.209 . S
C11 O8 1.258 . S
C11 O13 1.282 . S
O12 Cd4 2.277 . S
O12 C5 1.226 . S
O13 Cd4 2.356 . S
O13 C11 1.282 . S
C14 O15 1.306 1_455 S
C14 O17 1.160 1_545 S
O15 C14 1.306 1_655 S
O15 Cd16 2.228 . S
Cd16 O15 2.228 . S
Cd16 O20 2.273 . S
Cd16 O24 2.277 1_545 S
O17 C14 1.160 1_565 S
O17 Cd18 2.203 1_455 S
Cd18 O17 2.203 1_655 S
Cd18 O20 2.411 1_565 S
Cd18 O21 2.333 . S
Cd18 O22 2.352 1_655 S
Cd18 O26 2.277 . S
Cd18 O27 2.356 . S
C19 O24 1.209 . S
C19 O26 1.226 . S
O20 Cd16 2.273 . S
O20 Cd18 2.411 1_545 S
O20 C23 1.320 1_545 S
O21 Cd18 2.333 . S
O21 C23 1.214 . S
O22 Cd18 2.352 1_455 S
O22 C25 1.258 1_455 S
C23 O20 1.320 1_565 S
C23 O21 1.214 . S
O24 Cd16 2.277 1_565 S
O24 C19 1.209 . S
C25 O22 1.258 1_655 S
C25 O27 1.282 . S
O26 Cd18 2.277 . S
O26 C19 1.226 . S
O27 Cd18 2.356 . S
O27 C25 1.282 . S
C28 O29 1.306 . S
C28 O31 1.160 . S
O29 C28 1.306 . S
O29 Cd30 2.228 . S
Cd30 O29 2.228 . S
Cd30 O34 2.273 . S
Cd30 O38 2.277 . S
O31 C28 1.160 . S
O31 Cd32 2.203 . S
Cd32 O31 2.203 . S
Cd32 O34 2.411 . S
Cd32 O35 2.333 . S
Cd32 O36 2.352 . S
Cd32 O40 2.277 . S
Cd32 O41 2.356 . S
C33 O38 1.209 . S
C33 O40 1.226 . S
O34 Cd30 2.273 . S
O34 Cd32 2.411 . S
O34 C37 1.320 . S
O35 Cd32 2.333 . S
O35 C37 1.214 . S
O36 Cd32 2.352 . S
O36 C39 1.258 . S
C37 O34 1.320 . S
C37 O35 1.214 . S
O38 Cd30 2.277 . S
O38 C33 1.209 . S
C39 O36 1.258 . S
C39 O41 1.282 . S
O40 Cd32 2.277 . S
O40 C33 1.226 . S
O41 Cd32 2.356 . S
O41 C39 1.282 . S
C42 O43 1.306 . S
C42 O45 1.160 1_565 S
O43 C42 1.306 . S
O43 Cd44 2.228 . S
Cd44 O43 2.228 . S
Cd44 O48 2.273 . S
Cd44 O52 2.277 1_565 S
O45 C42 1.160 1_545 S
O45 Cd46 2.203 . S
Cd46 O45 2.203 . S
Cd46 O48 2.411 1_545 S
Cd46 O49 2.333 . S
Cd46 O50 2.352 . S
Cd46 O54 2.277 . S
Cd46 O55 2.356 . S
C47 O52 1.209 . S
C47 O54 1.226 . S
O48 Cd44 2.273 . S
O48 Cd46 2.411 1_565 S
O48 C51 1.320 1_565 S
O49 Cd46 2.333 . S
O49 C51 1.214 . S
O50 Cd46 2.352 . S
O50 C53 1.258 . S
C51 O48 1.320 1_545 S
C51 O49 1.214 . S
O52 Cd44 2.277 1_545 S
O52 C47 1.209 . S
C53 O50 1.258 . S
C53 O55 1.282 . S
O54 Cd46 2.277 . S
O54 C47 1.226 . S
O55 Cd46 2.356 . S
O55 C53 1.282 . S
C56 O57 1.306 . S
C56 O59 1.160 . S
O57 C56 1.306 . S
O57 Cd58 2.228 . S
Cd58 O57 2.228 . S
Cd58 O62 2.273 . S
Cd58 O66 2.277 . S
O59 C56 1.160 . S
O59 Cd60 2.203 . S
Cd60 O59 2.203 . S
Cd60 O62 2.411 . S
Cd60 O63 2.333 . S
Cd60 O64 2.352 . S
Cd60 O68 2.277 . S
Cd60 O69 2.356 . S
C61 O66 1.209 . S
C61 O68 1.226 . S
O62 Cd58 2.273 . S
O62 Cd60 2.411 . S
O62 C65 1.320 . S
O63 Cd60 2.333 . S
O63 C65 1.214 . S
O64 Cd60 2.352 . S
O64 C67 1.258 . S
C65 O62 1.320 . S
C65 O63 1.214 . S
O66 Cd58 2.277 . S
O66 C61 1.209 . S
C67 O64 1.258 . S
C67 O69 1.282 . S
O68 Cd60 2.277 . S
O68 C61 1.226 . S
O69 Cd60 2.356 . S
O69 C67 1.282 . S
C70 O71 1.306 1_655 S
C70 O73 1.160 . S
O71 C70 1.306 1_455 S
O71 Cd72 2.228 . S
Cd72 O71 2.228 . S
Cd72 O76 2.273 . S
Cd72 O80 2.277 . S
O73 C70 1.160 . S
O73 Cd74 2.203 1_655 S
Cd74 O73 2.203 1_455 S
Cd74 O76 2.411 . S
Cd74 O77 2.333 . S
Cd74 O78 2.352 1_455 S
Cd74 O82 2.277 . S
Cd74 O83 2.356 . S
C75 O80 1.209 . S
C75 O82 1.226 . S
O76 Cd72 2.273 . S
O76 Cd74 2.411 . S
O76 C79 1.320 . S
O77 Cd74 2.333 . S
O77 C79 1.214 . S
O78 Cd74 2.352 1_655 S
O78 C81 1.258 1_655 S
C79 O76 1.320 . S
C79 O77 1.214 . S
O80 Cd72 2.277 . S
O80 C75 1.209 . S
C81 O78 1.258 1_455 S
C81 O83 1.282 . S
O82 Cd74 2.277 . S
O82 C75 1.226 . S
O83 Cd74 2.356 . S
O83 C81 1.282 . S
C84 O85 1.306 . S
C84 O87 1.160 . S
O85 C84 1.306 . S
O85 Cd86 2.228 . S
Cd86 O85 2.228 . S
Cd86 O90 2.273 . S
Cd86 O94 2.277 . S
O87 C84 1.160 . S
O87 Cd88 2.203 . S
Cd88 O87 2.203 . S
Cd88 O90 2.411 . S
Cd88 O91 2.333 . S
Cd88 O92 2.352 . S
Cd88 O96 2.277 . S
Cd88 O97 2.356 . S
C89 O94 1.209 . S
C89 O96 1.226 . S
O90 Cd86 2.273 . S
O90 Cd88 2.411 . S
O90 C93 1.320 . S
O91 Cd88 2.333 . S
O91 C93 1.214 . S
O92 Cd88 2.352 . S
O92 C95 1.258 . S
C93 O90 1.320 . S
C93 O91 1.214 . S
O94 Cd86 2.277 . S
O94 C89 1.209 . S
C95 O92 1.258 . S
C95 O97 1.282 . S
O96 Cd88 2.277 . S
O96 C89 1.226 . S
O97 Cd88 2.356 . S
O97 C95 1.282 . S
C98 O99 1.306 . S
C98 O101 1.160 . S
O99 C98 1.306 . S
O99 Cd100 2.228 . S
Cd100 O99 2.228 . S
Cd100 O104 2.273 . S
Cd100 O108 2.277 . S
O101 C98 1.160 . S
O101 Cd102 2.203 . S
Cd102 O101 2.203 . S
Cd102 O104 2.411 . S
Cd102 O105 2.333 . S
Cd102 O106 2.352 . S
Cd102 O110 2.277 . S
Cd102 O111 2.356 . S
C103 O108 1.209 . S
C103 O110 1.226 . S
O104 Cd100 2.273 . S
O104 Cd102 2.411 . S
O104 C107 1.320 . S
O105 Cd102 2.333 . S
O105 C107 1.214 . S
O106 Cd102 2.352 . S
O106 C109 1.258 . S
C107 O104 1.320 . S
C107 O105 1.214 . S
O108 Cd100 2.277 . S
O108 C103 1.209 . S
C109 O106 1.258 . S
C109 O111 1.282 . S
O110 Cd102 2.277 . S
O110 C103 1.226 . S
O111 Cd102 2.356 . S
O111 C109 1.282 . S
C112 O113 1.306 . S
C112 O115 1.160 . S
O113 C112 1.306 . S
O113 Cd114 2.228 . S
Cd114 O113 2.228 . S
Cd114 O118 2.273 . S
Cd114 O122 2.277 . S
O115 C112 1.160 . S
O115 Cd116 2.203 . S
Cd116 O115 2.203 . S
Cd116 O118 2.411 . S
Cd116 O119 2.333 . S
Cd116 O120 2.352 . S
Cd116 O124 2.277 . S
Cd116 O125 2.356 . S
C117 O122 1.209 . S
C117 O124 1.226 . S
O118 Cd114 2.273 . S
O118 Cd116 2.411 . S
O118 C121 1.320 . S
O119 Cd116 2.333 . S
O119 C121 1.214 . S
O120 Cd116 2.352 . S
O120 C123 1.258 . S
C121 O118 1.320 . S
C121 O119 1.214 . S
O122 Cd114 2.277 . S
O122 C117 1.209 . S
C123 O120 1.258 . S
C123 O125 1.282 . S
O124 Cd116 2.277 . S
O124 C117 1.226 . S
O125 Cd116 2.356 . S
O125 C123 1.282 . S
C126 O127 1.306 . S
C126 O129 1.160 1_655 S
O127 C126 1.306 . S
O127 Cd128 2.228 . S
Cd128 O127 2.228 . S
Cd128 O132 2.273 . S
Cd128 O136 2.277 1_655 S
O129 C126 1.160 1_455 S
O129 Cd130 2.203 . S
Cd130 O129 2.203 . S
Cd130 O132 2.411 1_455 S
Cd130 O133 2.333 . S
Cd130 O134 2.352 . S
Cd130 O138 2.277 . S
Cd130 O139 2.356 . S
C131 O136 1.209 . S
C131 O138 1.226 . S
O132 Cd128 2.273 . S
O132 Cd130 2.411 1_655 S
O132 C135 1.320 1_655 S
O133 Cd130 2.333 . S
O133 C135 1.214 . S
O134 Cd130 2.352 . S
O134 C137 1.258 . S
C135 O132 1.320 1_455 S
C135 O133 1.214 . S
O136 Cd128 2.277 1_455 S
O136 C131 1.209 . S
C137 O134 1.258 . S
C137 O139 1.282 . S
O138 Cd130 2.277 . S
O138 C131 1.226 . S
O139 Cd130 2.356 . S
O139 C137 1.282 . S
C140 O141 1.306 . S
C140 O143 1.160 . S
O141 C140 1.306 . S
O141 Cd142 2.228 . S
Cd142 O141 2.228 . S
Cd142 O146 2.273 . S
Cd142 O150 2.277 . S
O143 C140 1.160 . S
O143 Cd144 2.203 . S
Cd144 O143 2.203 . S
Cd144 O146 2.411 . S
Cd144 O147 2.333 . S
Cd144 O148 2.352 . S
Cd144 O152 2.277 . S
Cd144 O153 2.356 . S
C145 O150 1.209 . S
C145 O152 1.226 . S
O146 Cd142 2.273 . S
O146 Cd144 2.411 . S
O146 C149 1.320 . S
O147 Cd144 2.333 . S
O147 C149 1.214 . S
O148 Cd144 2.352 . S
O148 C151 1.258 . S
C149 O146 1.320 . S
C149 O147 1.214 . S
O150 Cd142 2.277 . S
O150 C145 1.209 . S
C151 O148 1.258 . S
C151 O153 1.282 . S
O152 Cd144 2.277 . S
O152 C145 1.226 . S
O153 Cd144 2.356 . S
O153 C151 1.282 . S
C154 O155 1.306 1_556 S
C154 O157 1.160 . S
O155 C154 1.306 1_554 S
O155 Cd156 2.228 . S
Cd156 O155 2.228 . S
Cd156 O160 2.273 . S
Cd156 O164 2.277 . S
O157 C154 1.160 . S
O157 Cd158 2.203 1_556 S
Cd158 O157 2.203 1_554 S
Cd158 O160 2.411 . S
Cd158 O161 2.333 . S
Cd158 O162 2.352 1_554 S
Cd158 O166 2.277 . S
Cd158 O167 2.356 . S
C159 O164 1.209 . S
C159 O166 1.226 . S
O160 Cd156 2.273 . S
O160 Cd158 2.411 . S
O160 C163 1.320 . S
O161 Cd158 2.333 . S
O161 C163 1.214 . S
O162 Cd158 2.352 1_556 S
O162 C165 1.258 1_556 S
C163 O160 1.320 . S
C163 O161 1.214 . S
O164 Cd156 2.277 . S
O164 C159 1.209 . S
C165 O162 1.258 1_554 S
C165 O167 1.282 . S
O166 Cd158 2.277 . S
O166 C159 1.226 . S
O167 Cd158 2.356 . S
O167 C165 1.282 . S
C168 O169 1.306 . S
C168 O171 1.160 . S
O169 C168 1.306 . S
O169 Cd170 2.228 . S
Cd170 O169 2.228 . S
Cd170 O174 2.273 . S
Cd170 O178 2.277 . S
O171 C168 1.160 . S
O171 Cd172 2.203 . S
Cd172 O171 2.203 . S
Cd172 O174 2.411 . S
Cd172 O175 2.333 . S
Cd172 O176 2.352 . S
Cd172 O180 2.277 . S
Cd172 O181 2.356 . S
C173 O178 1.209 . S
C173 O180 1.226 . S
O174 Cd170 2.273 . S
O174 Cd172 2.411 . S
O174 C177 1.320 . S
O175 Cd172 2.333 . S
O175 C177 1.214 . S
O176 Cd172 2.352 . S
O176 C179 1.258 . S
C177 O174 1.320 . S
C177 O175 1.214 . S
O178 Cd170 2.277 . S
O178 C173 1.209 . S
C179 O176 1.258 . S
C179 O181 1.282 . S
O180 Cd172 2.277 . S
O180 C173 1.226 . S
O181 Cd172 2.356 . S
O181 C179 1.282 . S
C182 O183 1.306 1_554 S
C182 O185 1.160 1_455 S
O183 C182 1.306 1_556 S
O183 Cd184 2.228 . S
Cd184 O183 2.228 . S
Cd184 O188 2.273 . S
Cd184 O192 2.277 1_455 S
O185 C182 1.160 1_655 S
O185 Cd186 2.203 1_554 S
Cd186 O185 2.203 1_556 S
Cd186 O188 2.411 1_655 S
Cd186 O189 2.333 . S
Cd186 O190 2.352 1_556 S
Cd186 O194 2.277 . S
Cd186 O195 2.356 . S
C187 O192 1.209 . S
C187 O194 1.226 . S
O188 Cd184 2.273 . S
O188 Cd186 2.411 1_455 S
O188 C191 1.320 1_455 S
O189 Cd186 2.333 . S
O189 C191 1.214 . S
O190 Cd186 2.352 1_554 S
O190 C193 1.258 1_554 S
C191 O188 1.320 1_655 S
C191 O189 1.214 . S
O192 Cd184 2.277 1_655 S
O192 C187 1.209 . S
C193 O190 1.258 1_556 S
C193 O195 1.282 . S
O194 Cd186 2.277 . S
O194 C187 1.226 . S
O195 Cd186 2.356 . S
O195 C193 1.282 . S
C196 O197 1.306 . S
C196 O199 1.160 . S
O197 C196 1.306 . S
O197 Cd198 2.228 . S
Cd198 O197 2.228 . S
Cd198 O202 2.273 . S
Cd198 O206 2.277 . S
O199 C196 1.160 . S
O199 Cd200 2.203 . S
Cd200 O199 2.203 . S
Cd200 O202 2.411 . S
Cd200 O203 2.333 . S
Cd200 O204 2.352 . S
Cd200 O208 2.277 . S
Cd200 O209 2.356 . S
C201 O206 1.209 . S
C201 O208 1.226 . S
O202 Cd198 2.273 . S
O202 Cd200 2.411 . S
O202 C205 1.320 . S
O203 Cd200 2.333 . S
O203 C205 1.214 . S
O204 Cd200 2.352 . S
O204 C207 1.258 . S
C205 O202 1.320 . S
C205 O203 1.214 . S
O206 Cd198 2.277 . S
O206 C201 1.209 . S
C207 O204 1.258 . S
C207 O209 1.282 . S
O208 Cd200 2.277 . S
O208 C201 1.226 . S
O209 Cd200 2.356 . S
O209 C207 1.282 . S
C210 O211 1.306 . S
C210 O213 1.160 . S
O211 C210 1.306 . S
O211 Cd212 2.228 . S
Cd212 O211 2.228 . S
Cd212 O216 2.273 . S
Cd212 O220 2.277 . S
O213 C210 1.160 . S
O213 Cd214 2.203 . S
Cd214 O213 2.203 . S
Cd214 O216 2.411 . S
Cd214 O217 2.333 . S
Cd214 O218 2.352 . S
Cd214 O222 2.277 . S
Cd214 O223 2.356 . S
C215 O220 1.209 . S
C215 O222 1.226 . S
O216 Cd212 2.273 . S
O216 Cd214 2.411 . S
O216 C219 1.320 . S
O217 Cd214 2.333 . S
O217 C219 1.214 . S
O218 Cd214 2.352 . S
O218 C221 1.258 . S
C219 O216 1.320 . S
C219 O217 1.214 . S
O220 Cd212 2.277 . S
O220 C215 1.209 . S
C221 O218 1.258 . S
C221 O223 1.282 . S
O222 Cd214 2.277 . S
O222 C215 1.226 . S
O223 Cd214 2.356 . S
O223 C221 1.282 . S
C224 O225 1.306 . S
C224 O227 1.160 . S
O225 C224 1.306 . S
O225 Cd226 2.228 . S
Cd226 O225 2.228 . S
Cd226 O230 2.273 . S
Cd226 O234 2.277 . S
O227 C224 1.160 . S
O227 Cd228 2.203 . S
Cd228 O227 2.203 . S
Cd228 O230 2.411 . S
Cd228 O231 2.333 . S
Cd228 O232 2.352 . S
Cd228 O236 2.277 . S
Cd228 O237 2.356 . S
C229 O234 1.209 . S
C229 O236 1.226 . S
O230 Cd226 2.273 . S
O230 Cd228 2.411 . S
O230 C233 1.320 . S
O231 Cd228 2.333 . S
O231 C233 1.214 . S
O232 Cd228 2.352 . S
O232 C235 1.258 . S
C233 O230 1.320 . S
C233 O231 1.214 . S
O234 Cd226 2.277 . S
O234 C229 1.209 . S
C235 O232 1.258 . S
C235 O237 1.282 . S
O236 Cd228 2.277 . S
O236 C229 1.226 . S
O237 Cd228 2.356 . S
O237 C235 1.282 . S
C238 O239 1.306 . S
C238 O241 1.160 . S
O239 C238 1.306 . S
O239 Cd240 2.228 . S
Cd240 O239 2.228 . S
Cd240 O244 2.273 . S
Cd240 O248 2.277 . S
O241 C238 1.160 . S
O241 Cd242 2.203 . S
Cd242 O241 2.203 . S
Cd242 O244 2.411 . S
Cd242 O245 2.333 . S
Cd242 O246 2.352 . S
Cd242 O250 2.277 . S
Cd242 O251 2.356 . S
C243 O248 1.209 . S
C243 O250 1.226 . S
O244 Cd240 2.273 . S
O244 Cd242 2.411 . S
O244 C247 1.320 . S
O245 Cd242 2.333 . S
O245 C247 1.214 . S
O246 Cd242 2.352 . S
O246 C249 1.258 . S
C247 O244 1.320 . S
C247 O245 1.214 . S
O248 Cd240 2.277 . S
O248 C243 1.209 . S
C249 O246 1.258 . S
C249 O251 1.282 . S
O250 Cd242 2.277 . S
O250 C243 1.226 . S
O251 Cd242 2.356 . S
O251 C249 1.282 . S
C252 O253 1.306 . S
C252 O255 1.160 1_556 S
O253 C252 1.306 . S
O253 Cd254 2.228 . S
Cd254 O253 2.228 . S
Cd254 O258 2.273 . S
Cd254 O262 2.277 1_556 S
O255 C252 1.160 1_554 S
O255 Cd256 2.203 . S
Cd256 O255 2.203 . S
Cd256 O258 2.411 1_554 S
Cd256 O259 2.333 . S
Cd256 O260 2.352 . S
Cd256 O264 2.277 . S
Cd256 O265 2.356 . S
C257 O262 1.209 . S
C257 O264 1.226 . S
O258 Cd254 2.273 . S
O258 Cd256 2.411 1_556 S
O258 C261 1.320 1_556 S
O259 Cd256 2.333 . S
O259 C261 1.214 . S
O260 Cd256 2.352 . S
O260 C263 1.258 . S
C261 O258 1.320 1_554 S
C261 O259 1.214 . S
O262 Cd254 2.277 1_554 S
O262 C257 1.209 . S
C263 O260 1.258 . S
C263 O265 1.282 . S
O264 Cd256 2.277 . S
O264 C257 1.226 . S
O265 Cd256 2.356 . S
O265 C263 1.282 . S
C266 O267 1.306 . S
C266 O269 1.160 . S
O267 C266 1.306 . S
O267 Cd268 2.228 . S
Cd268 O267 2.228 . S
Cd268 O272 2.273 . S
Cd268 O276 2.277 . S
O269 C266 1.160 . S
O269 Cd270 2.203 . S
Cd270 O269 2.203 . S
Cd270 O272 2.411 . S
Cd270 O273 2.333 . S
Cd270 O274 2.352 . S
Cd270 O278 2.277 . S
Cd270 O279 2.356 . S
C271 O276 1.209 . S
C271 O278 1.226 . S
O272 Cd268 2.273 . S
O272 Cd270 2.411 . S
O272 C275 1.320 . S
O273 Cd270 2.333 . S
O273 C275 1.214 . S
O274 Cd270 2.352 . S
O274 C277 1.258 . S
C275 O272 1.320 . S
C275 O273 1.214 . S
O276 Cd268 2.277 . S
O276 C271 1.209 . S
C277 O274 1.258 . S
C277 O279 1.282 . S
O278 Cd270 2.277 . S
O278 C271 1.226 . S
O279 Cd270 2.356 . S
O279 C277 1.282 . S
C280 O281 1.306 . S
C280 O283 1.160 . S
O281 C280 1.306 . S
O281 Cd282 2.228 . S
Cd282 O281 2.228 . S
Cd282 O286 2.273 . S
Cd282 O290 2.277 . S
O283 C280 1.160 . S
O283 Cd284 2.203 . S
Cd284 O283 2.203 . S
Cd284 O286 2.411 . S
Cd284 O287 2.333 . S
Cd284 O288 2.352 . S
Cd284 O292 2.277 . S
Cd284 O293 2.356 . S
C285 O290 1.209 . S
C285 O292 1.226 . S
O286 Cd282 2.273 . S
O286 Cd284 2.411 . S
O286 C289 1.320 . S
O287 Cd284 2.333 . S
O287 C289 1.214 . S
O288 Cd284 2.352 . S
O288 C291 1.258 . S
C289 O286 1.320 . S
C289 O287 1.214 . S
O290 Cd282 2.277 . S
O290 C285 1.209 . S
C291 O288 1.258 . S
C291 O293 1.282 . S
O292 Cd284 2.277 . S
O292 C285 1.226 . S
O293 Cd284 2.356 . S
O293 C291 1.282 . S
C294 O295 1.306 . S
C294 O297 1.160 . S
O295 C294 1.306 . S
O295 Cd296 2.228 . S
Cd296 O295 2.228 . S
Cd296 O300 2.273 . S
Cd296 O304 2.277 . S
O297 C294 1.160 . S
O297 Cd298 2.203 . S
Cd298 O297 2.203 . S
Cd298 O300 2.411 . S
Cd298 O301 2.333 . S
Cd298 O302 2.352 . S
Cd298 O306 2.277 . S
Cd298 O307 2.356 . S
C299 O304 1.209 . S
C299 O306 1.226 . S
O300 Cd296 2.273 . S
O300 Cd298 2.411 . S
O300 C303 1.320 . S
O301 Cd298 2.333 . S
O301 C303 1.214 . S
O302 Cd298 2.352 . S
O302 C305 1.258 . S
C303 O300 1.320 . S
C303 O301 1.214 . S
O304 Cd296 2.277 . S
O304 C299 1.209 . S
C305 O302 1.258 . S
C305 O307 1.282 . S
O306 Cd298 2.277 . S
O306 C299 1.226 . S
O307 Cd298 2.356 . S
O307 C305 1.282 . S
C308 O309 1.306 1_545 S
C308 O311 1.160 1_554 S
O309 C308 1.306 1_565 S
O309 Cd310 2.228 . S
Cd310 O309 2.228 . S
Cd310 O314 2.273 . S
Cd310 O318 2.277 1_554 S
O311 C308 1.160 1_556 S
O311 Cd312 2.203 1_545 S
Cd312 O311 2.203 1_565 S
Cd312 O314 2.411 1_556 S
Cd312 O315 2.333 . S
Cd312 O316 2.352 1_565 S
Cd312 O320 2.277 . S
Cd312 O321 2.356 . S
C313 O318 1.209 . S
C313 O320 1.226 . S
O314 Cd310 2.273 . S
O314 Cd312 2.411 1_554 S
O314 C317 1.320 1_554 S
O315 Cd312 2.333 . S
O315 C317 1.214 . S
O316 Cd312 2.352 1_545 S
O316 C319 1.258 1_545 S
C317 O314 1.320 1_556 S
C317 O315 1.214 . S
O318 Cd310 2.277 1_556 S
O318 C313 1.209 . S
C319 O316 1.258 1_565 S
C319 O321 1.282 . S
O320 Cd312 2.277 . S
O320 C313 1.226 . S
O321 Cd312 2.356 . S
O321 C319 1.282 . S
C322 O323 1.306 1_565 S
C322 O325 1.160 . S
O323 C322 1.306 1_545 S
O323 Cd324 2.228 . S
Cd324 O323 2.228 . S
Cd324 O328 2.273 . S
Cd324 O332 2.277 . S
O325 C322 1.160 . S
O325 Cd326 2.203 1_565 S
Cd326 O325 2.203 1_545 S
Cd326 O328 2.411 . S
Cd326 O329 2.333 . S
Cd326 O330 2.352 1_545 S
Cd326 O334 2.277 . S
Cd326 O335 2.356 . S
C327 O332 1.209 . S
C327 O334 1.226 . S
O328 Cd324 2.273 . S
O328 Cd326 2.411 . S
O328 C331 1.320 . S
O329 Cd326 2.333 . S
O329 C331 1.214 . S
O330 Cd326 2.352 1_565 S
O330 C333 1.258 1_565 S
C331 O328 1.320 . S
C331 O329 1.214 . S
O332 Cd324 2.277 . S
O332 C327 1.209 . S
C333 O330 1.258 1_545 S
C333 O335 1.282 . S
O334 Cd326 2.277 . S
O334 C327 1.226 . S
O335 Cd326 2.356 . S
O335 C333 1.282 . S
C137 C11 1.901 . S
C25 C151 1.901 1_655 S
C39 C165 1.900 1_556 S
C53 C123 1.901 . S
C67 C221 1.900 . S
C179 C81 1.900 1_655 S
C95 C193 1.901 1_554 S
C207 C109 1.900 . S
C235 C263 1.901 . S
C319 C249 1.901 1_565 S
C277 C333 1.900 1_565 S
C305 C291 1.900 . S
C289 C9 2.328 . S
C23 C247 2.328 1_565 S
C37 C261 2.328 1_556 S
C51 C275 2.328 1_545 S
C65 C331 2.328 . S
C303 C79 2.328 . S
C317 C93 2.328 1_556 S
C233 C107 2.328 . S
C219 C121 2.328 . S
C135 C177 2.328 1_455 S
C191 C149 2.328 1_655 S
C205 C163 2.328 . S
C5 C224 1.585 . S
C322 C19 1.585 . S
C294 C33 1.584 . S
C47 C308 1.585 . S
C61 C238 1.585 . S
C252 C75 1.585 . S
C266 C89 1.585 . S
C280 C103 1.585 . S
C0 C117 1.585 . S
C14 C131 1.585 . S
C28 C145 1.585 . S
C42 C159 1.585 . S
C56 C173 1.585 . S
C70 C187 1.585 . S
C201 C84 1.585 . S
C98 C215 1.585 . S
C112 C229 1.585 . S
C243 C168 1.585 . S
C182 C257 1.585 . S
C271 C196 1.585 . S
C285 C210 1.585 . S
C299 C140 1.585 . S
C154 C313 1.585 . S
C327 C126 1.585 . S
