# Generated by pormake.
# Topology umb, (4)-cn, num edge types: 1
# Building blocks:
#     Node 0, Type 0, BuildingBlock: ICAMEG_clean_sbu_1, # of connection points: 4
#     Node 1, Type 0, BuildingBlock: ICAMEG_clean_sbu_1, # of connection points: 4
#     Node 2, Type 0, BuildingBlock: ICAMEG_clean_sbu_1, # of connection points: 4
#     Node 3, Type 0, BuildingBlock: ICAMEG_clean_sbu_1, # of connection points: 4
#     Node 4, Type 0, BuildingBlock: ICAMEG_clean_sbu_1, # of connection points: 4
#     Node 5, Type 0, BuildingBlock: ICAMEG_clean_sbu_1, # of connection points: 4
#     Node 6, Type 0, BuildingBlock: ICAMEG_clean_sbu_1, # of connection points: 4
#     Node 7, Type 0, BuildingBlock: ICAMEG_clean_sbu_1, # of connection points: 4
#     Node 8, Type 0, BuildingBlock: ICAMEG_clean_sbu_1, # of connection points: 4
#     Node 9, Type 0, BuildingBlock: ICAMEG_clean_sbu_1, # of connection points: 4
#     Node 10, Type 0, BuildingBlock: ICAMEG_clean_sbu_1, # of connection points: 4
#     Node 11, Type 0, BuildingBlock: ICAMEG_clean_sbu_1, # of connection points: 4
#     Edge 12, Type (0, 0), BuildingBlock: ZUJKAS_clean_linker_0, # of connection points: 2
#     Edge 13, Type (0, 0), BuildingBlock: ZUJKAS_clean_linker_0, # of connection points: 2
#     Edge 14, Type (0, 0), BuildingBlock: ZUJKAS_clean_linker_0, # of connection points: 2
#     Edge 15, Type (0, 0), BuildingBlock: ZUJKAS_clean_linker_0, # of connection points: 2
#     Edge 16, Type (0, 0), BuildingBlock: ZUJKAS_clean_linker_0, # of connection points: 2
#     Edge 17, Type (0, 0), BuildingBlock: ZUJKAS_clean_linker_0, # of connection points: 2
#     Edge 18, Type (0, 0), BuildingBlock: ZUJKAS_clean_linker_0, # of connection points: 2
#     Edge 19, Type (0, 0), BuildingBlock: ZUJKAS_clean_linker_0, # of connection points: 2
#     Edge 20, Type (0, 0), BuildingBlock: ZUJKAS_clean_linker_0, # of connection points: 2
#     Edge 21, Type (0, 0), BuildingBlock: ZUJKAS_clean_linker_0, # of connection points: 2
#     Edge 22, Type (0, 0), BuildingBlock: ZUJKAS_clean_linker_0, # of connection points: 2
#     Edge 23, Type (0, 0), BuildingBlock: ZUJKAS_clean_linker_0, # of connection points: 2
#     Edge 24, Type (0, 0), BuildingBlock: ZUJKAS_clean_linker_0, # of connection points: 2
#     Edge 25, Type (0, 0), BuildingBlock: ZUJKAS_clean_linker_0, # of connection points: 2
#     Edge 26, Type (0, 0), BuildingBlock: ZUJKAS_clean_linker_0, # of connection points: 2
#     Edge 27, Type (0, 0), BuildingBlock: ZUJKAS_clean_linker_0, # of connection points: 2
#     Edge 28, Type (0, 0), BuildingBlock: ZUJKAS_clean_linker_0, # of connection points: 2
#     Edge 29, Type (0, 0), BuildingBlock: ZUJKAS_clean_linker_0, # of connection points: 2
#     Edge 30, Type (0, 0), BuildingBlock: ZUJKAS_clean_linker_0, # of connection points: 2
#     Edge 31, Type (0, 0), BuildingBlock: ZUJKAS_clean_linker_0, # of connection points: 2
#     Edge 32, Type (0, 0), BuildingBlock: ZUJKAS_clean_linker_0, # of connection points: 2
#     Edge 33, Type (0, 0), BuildingBlock: ZUJKAS_clean_linker_0, # of connection points: 2
#     Edge 34, Type (0, 0), BuildingBlock: ZUJKAS_clean_linker_0, # of connection points: 2
#     Edge 35, Type (0, 0), BuildingBlock: ZUJKAS_clean_linker_0, # of connection points: 2
# Relax obj value: 0.163
# Max RMSD: 0.171
# Mean RMSD: 0.171
data_MOF--net-umb--node1-ICAMEG_clean_sbu_1--edge1-ZUJKAS_clean_linker_0
_symmetry_space_group_name_H-M    P1
_symmetry_Int_Tables_number       1
_symmetry_cell_setting            triclinic
loop_
_symmetry_equiv_pos_as_xyz
'x, y, z'
_cell_length_a     64.428758
_cell_length_b     64.421487
_cell_length_c     52.530665
_cell_angle_alpha  89.954445
_cell_angle_beta   90.01671
_cell_angle_gamma 120.02308
loop_
_atom_site_label
_atom_site_type_symbol
_atom_site_fract_x
_atom_site_fract_y
_atom_site_fract_z
_atom_type_partial_charge
Co0 Co 0.51532 0.18334 0.34626 0.0
Co1 Co 0.56753 0.18288 0.33171 0.0
O2 O 0.53365 0.17209 0.32674 0.0
C3 C 0.51555 0.19846 0.2933 0.0
O4 O 0.53815 0.20425 0.29379 0.0
C5 C 0.54284 0.13102 0.34085 0.0
O6 O 0.52683 0.13388 0.3534 0.0
O7 O 0.56325 0.17968 0.36918 0.0
O8 O 0.5287 0.17864 0.37935 0.0
H9 H 0.64852 0.23207 0.37215 0.0
H10 H 0.49053 0.14495 0.30788 0.0
O11 O 0.50256 0.18909 0.31311 0.0
H12 H 0.45214 0.10877 0.38986 0.0
H13 H 0.44192 0.18921 0.36524 0.0
H14 H 0.52485 0.21474 0.39119 0.0
H15 H 0.48449 0.15103 0.38767 0.0
H16 H 0.46584 0.17537 0.3416 0.0
O17 O 0.56046 0.1489 0.33016 0.0
H18 H 0.60571 0.21851 0.36529 0.0
H19 H 0.60143 0.16926 0.30896 0.0
H20 H 0.50154 0.22887 0.41551 0.0
H21 H 0.45812 0.10267 0.30915 0.0
H22 H 0.45975 0.21609 0.40255 0.0
H23 H 0.43876 0.08431 0.35039 0.0
O24 O 0.54169 0.2171 0.34514 0.0
H25 H 0.54578 0.15511 0.24127 0.0
H26 H 0.60234 0.22095 0.29678 0.0
H27 H 0.60696 0.2255 0.25016 0.0
H28 H 0.57854 0.19242 0.22207 0.0
H29 H 0.5417 0.15142 0.28801 0.0
H30 H 0.64414 0.18212 0.31536 0.0
H31 H 0.668 0.21382 0.34707 0.0
O32 O 0.57518 0.21688 0.33372 0.0
C33 C 0.54772 0.17804 0.38533 0.0
C34 C 0.63834 0.2183 0.35821 0.0
C35 C 0.63587 0.19025 0.32636 0.0
N36 N 0.60117 0.19328 0.33659 0.0
C37 C 0.61412 0.21061 0.35419 0.0
C38 C 0.61169 0.183 0.32286 0.0
C39 C 0.64925 0.20804 0.34415 0.0
C40 C 0.48201 0.13713 0.32584 0.0
N41 N 0.48927 0.15044 0.34764 0.0
C42 C 0.46375 0.11317 0.32647 0.0
C43 C 0.45291 0.10286 0.34962 0.0
C44 C 0.46042 0.11658 0.37178 0.0
C45 C 0.47877 0.14047 0.37043 0.0
C46 C 0.46008 0.19485 0.37112 0.0
C47 C 0.50662 0.20895 0.38558 0.0
C48 C 0.47371 0.1871 0.35779 0.0
N49 N 0.49661 0.19406 0.36519 0.0
C50 C 0.49353 0.21708 0.39936 0.0
C51 C 0.4701 0.20993 0.39205 0.0
C52 C 0.56391 0.22776 0.33972 0.0
C53 C 0.55831 0.16963 0.25331 0.0
C54 C 0.58989 0.2065 0.28468 0.0
C55 C 0.59262 0.20916 0.2583 0.0
C56 C 0.57668 0.19058 0.24255 0.0
N57 N 0.57181 0.18591 0.29508 0.0
C58 C 0.55615 0.16759 0.27978 0.0
Co59 Co 0.32835 0.51508 0.68256 0.0
Co60 Co 0.38453 0.56337 0.66946 0.0
O61 O 0.3587 0.53062 0.66394 0.0
C62 C 0.31568 0.51769 0.62916 0.0
O63 O 0.33391 0.53961 0.63022 0.0
C64 C 0.40711 0.53435 0.67979 0.0
O65 O 0.38782 0.51997 0.69288 0.0
O66 O 0.38224 0.55855 0.70692 0.0
O67 O 0.34603 0.52671 0.71619 0.0
H68 H 0.42446 0.64445 0.71108 0.0
H69 H 0.3386 0.48714 0.64487 0.0
O70 O 0.3104 0.50417 0.64882 0.0
H71 H 0.32896 0.4462 0.72705 0.0
H72 H 0.24454 0.44776 0.69934 0.0
H73 H 0.30817 0.52784 0.72665 0.0
H74 H 0.32448 0.48201 0.72426 0.0
H75 H 0.28337 0.46821 0.67684 0.0
O76 O 0.40849 0.55235 0.66816 0.0
H77 H 0.39164 0.60312 0.70349 0.0
H78 H 0.43342 0.5932 0.64748 0.0
H79 H 0.26971 0.50799 0.74983 0.0
H80 H 0.34304 0.45127 0.64673 0.0
H81 H 0.23757 0.46766 0.73618 0.0
H82 H 0.33826 0.4306 0.68807 0.0
O83 O 0.32509 0.54405 0.6811 0.0
H84 H 0.38868 0.54057 0.57897 0.0
H85 H 0.38662 0.60106 0.63474 0.0
H86 H 0.38804 0.60647 0.58815 0.0
H87 H 0.38906 0.57607 0.55994 0.0
H88 H 0.38705 0.53578 0.62567 0.0
H89 H 0.46677 0.63436 0.65462 0.0
H90 H 0.46235 0.66031 0.68654 0.0
O91 O 0.3613 0.57509 0.67128 0.0
C92 C 0.36671 0.54402 0.72273 0.0
C93 C 0.42656 0.63335 0.69705 0.0
C94 C 0.45032 0.62767 0.66538 0.0
N95 N 0.41053 0.59586 0.6749 0.0
C96 C 0.40802 0.60996 0.69261 0.0
C97 C 0.4314 0.60437 0.66146 0.0
C98 C 0.44783 0.64223 0.6833 0.0
C99 C 0.33629 0.4781 0.66287 0.0
N100 N 0.33115 0.48654 0.6844 0.0
C101 C 0.33892 0.45786 0.66383 0.0
C102 C 0.33626 0.44629 0.68704 0.0
C103 C 0.33106 0.45504 0.70893 0.0
C104 C 0.32859 0.47534 0.70724 0.0
C105 C 0.25843 0.46531 0.70551 0.0
C106 C 0.29434 0.51021 0.72075 0.0
C107 C 0.28042 0.47697 0.69282 0.0
N108 N 0.29807 0.49907 0.7006 0.0
C109 C 0.27257 0.4991 0.73388 0.0
C110 C 0.25453 0.47648 0.72619 0.0
C111 C 0.33914 0.56618 0.67654 0.0
C112 C 0.38829 0.55397 0.59107 0.0
C113 C 0.38705 0.58776 0.62258 0.0
C114 C 0.38789 0.59093 0.59622 0.0
C115 C 0.38848 0.57388 0.5804 0.0
N116 N 0.38684 0.56817 0.63289 0.0
C117 C 0.38748 0.5514 0.61751 0.0
Co118 Co 0.81161 0.34047 1.00696 0.0
Co119 Co 0.81027 0.39242 0.99389 0.0
O120 O 0.82265 0.37066 0.98875 0.0
C121 C 0.79873 0.32739 0.95316 0.0
O122 O 0.79245 0.34383 0.95385 0.0
C123 C 0.86125 0.42064 1.00719 0.0
O124 O 0.85809 0.40156 0.01954 0.0
O125 O 0.81087 0.38921 0.03145 0.0
O126 O 0.81453 0.35703 0.04065 0.0
H127 H 0.75613 0.41917 0.03239 0.0
H128 H 0.85158 0.35685 0.97004 0.0
O129 O 0.80767 0.32344 0.97311 0.0
H130 H 0.88544 0.35258 0.05279 0.0
H131 H 0.80789 0.26173 0.02331 0.0
H132 H 0.77901 0.31614 0.0505 0.0
H133 H 0.8429 0.3414 0.0492 0.0
H134 H 0.82137 0.3002 1.00116 0.0
O135 O 0.84386 0.42019 0.99514 0.0
H136 H 0.77161 0.3915 0.02537 0.0
H137 H 0.8236 0.44074 0.97359 0.0
H138 H 0.76522 0.27795 0.07333 0.0
H139 H 0.89418 0.36803 0.97271 0.0
H140 H 0.77969 0.25045 0.05974 0.0
H141 H 0.91137 0.36599 0.01435 0.0
O142 O 0.77752 0.33199 1.00473 0.0
H143 H 0.84429 0.40483 0.90552 0.0
H144 H 0.77389 0.38952 0.95676 0.0
H145 H 0.77231 0.39213 0.91001 0.0
H146 H 0.8077 0.39983 0.88407 0.0
H147 H 0.845 0.40187 0.95231 0.0
H148 H 0.80881 0.46903 0.9802 0.0
H149 H 0.77478 0.45825 1.00971 0.0
O150 O 0.77669 0.36514 0.9931 0.0
C151 C 0.81294 0.37535 0.04734 0.0
C152 C 0.77091 0.42403 0.01941 0.0
C153 C 0.80051 0.45203 0.99015 0.0
N154 N 0.79833 0.41442 0.99891 0.0
C155 C 0.7797 0.40841 0.0153 0.0
C156 C 0.80883 0.43596 0.98651 0.0
C157 C 0.7814 0.44597 1.0067 0.0
C158 C 0.8589 0.3557 0.98816 0.0
N159 N 0.84478 0.34836 1.0094 0.0
C160 C 0.88304 0.36215 0.98959 0.0
C161 C 0.89268 0.36103 0.01296 0.0
C162 C 0.87815 0.35352 0.03454 0.0
C163 C 0.8541 0.34725 0.0324 0.0
C164 C 0.8015 0.27358 0.02944 0.0
C165 C 0.78551 0.30433 0.04461 0.0
C166 C 0.80903 0.29535 0.01695 0.0
N167 N 0.80113 0.31045 0.02468 0.0
C168 C 0.77758 0.2827 0.05754 0.0
C169 C 0.78568 0.26727 0.04989 0.0
C170 C 0.76633 0.34289 0.99865 0.0
C171 C 0.82878 0.40153 0.91662 0.0
C172 C 0.78934 0.39286 0.94559 0.0
C173 C 0.78836 0.39435 0.91914 0.0
C174 C 0.80823 0.39869 0.9046 0.0
N175 N 0.80955 0.39564 0.95724 0.0
C176 C 0.82912 0.39994 0.94312 0.0
Co177 Co 0.47782 0.81307 0.35179 0.0
Co178 Co 0.44342 0.83934 0.3395 0.0
O179 O 0.47124 0.83564 0.33372 0.0
C180 C 0.47363 0.79888 0.29791 0.0
O181 O 0.45427 0.80075 0.29827 0.0
C182 C 0.48465 0.88782 0.34731 0.0
O183 O 0.49434 0.87801 0.3613 0.0
O184 O 0.4486 0.84121 0.37689 0.0
O185 O 0.46832 0.82131 0.38546 0.0
H186 H 0.3669 0.8226 0.38251 0.0
H187 H 0.51474 0.84904 0.31731 0.0
O188 O 0.4864 0.80376 0.31808 0.0
H189 H 0.55223 0.86609 0.40231 0.0
H190 H 0.52547 0.77217 0.3693 0.0
H191 H 0.45397 0.7771 0.39282 0.0
H192 H 0.51096 0.83262 0.39607 0.0
H193 H 0.51644 0.80073 0.3476 0.0
O194 O 0.46428 0.87482 0.33695 0.0
H195 H 0.40181 0.81746 0.37465 0.0
H196 H 0.42644 0.87064 0.31679 0.0
H197 H 0.4624 0.74843 0.41517 0.0
H198 H 0.55612 0.88257 0.32263 0.0
H199 H 0.49839 0.74584 0.40343 0.0
H200 H 0.57509 0.89131 0.3654 0.0
O201 O 0.44442 0.78663 0.34756 0.0
H202 H 0.46872 0.8596 0.24816 0.0
H203 H 0.401 0.81138 0.30592 0.0
H204 H 0.39443 0.80765 0.25949 0.0
H205 H 0.42845 0.83187 0.23027 0.0
H206 H 0.47454 0.86262 0.29471 0.0
H207 H 0.3919 0.8765 0.32416 0.0
H208 H 0.36178 0.85231 0.35716 0.0
O209 O 0.42199 0.80405 0.34235 0.0
C210 C 0.45731 0.83234 0.39245 0.0
C211 C 0.37986 0.83319 0.36801 0.0
C212 C 0.3939 0.86347 0.33528 0.0
N213 N 0.41602 0.84358 0.34512 0.0
C214 C 0.39962 0.83031 0.36342 0.0
C215 C 0.41344 0.8601 0.33123 0.0
C216 C 0.37701 0.84988 0.3538 0.0
C217 C 0.52298 0.8526 0.33592 0.0
N218 N 0.51053 0.83884 0.35633 0.0
C219 C 0.54636 0.87167 0.33884 0.0
C220 C 0.55699 0.87658 0.36285 0.0
C221 C 0.54416 0.86245 0.38357 0.0
C222 C 0.52079 0.84356 0.37994 0.0
C223 C 0.50979 0.77319 0.37465 0.0
C224 C 0.46978 0.77623 0.38779 0.0
C225 C 0.50457 0.7893 0.36242 0.0
N226 N 0.48488 0.79078 0.36919 0.0
C227 C 0.47441 0.75989 0.40043 0.0
C228 C 0.49459 0.75843 0.39381 0.0
C229 C 0.4243 0.78565 0.34505 0.0
C230 C 0.45374 0.849 0.26069 0.0
C231 C 0.4159 0.82197 0.29333 0.0
C232 C 0.41206 0.81981 0.26706 0.0
C233 C 0.43115 0.83341 0.25067 0.0
N234 N 0.43812 0.8373 0.30301 0.0
C235 C 0.45691 0.85072 0.28707 0.0
Co236 Co 0.66942 0.47949 0.68442 0.0
Co237 Co 0.60924 0.45025 0.66896 0.0
O238 O 0.64196 0.47679 0.66581 0.0
C239 C 0.68112 0.47867 0.63042 0.0
O240 O 0.65925 0.46034 0.62897 0.0
C241 C 0.60372 0.49189 0.68151 0.0
O242 O 0.62088 0.49841 0.69843 0.0
O243 O 0.61103 0.45245 0.70674 0.0
O244 O 0.65012 0.46865 0.71699 0.0
H245 H 0.54324 0.37301 0.70511 0.0
H246 H 0.67512 0.52049 0.65339 0.0
O247 O 0.68878 0.48949 0.65171 0.0
H248 H 0.69452 0.55091 0.74137 0.0
H249 H 0.75711 0.51927 0.70622 0.0
H250 H 0.67677 0.4503 0.72324 0.0
H251 H 0.68342 0.50917 0.73148 0.0
H252 H 0.7216 0.51521 0.68379 0.0
O253 O 0.59733 0.4734 0.6678 0.0
H254 H 0.58489 0.40614 0.70047 0.0
H255 H 0.56297 0.43881 0.64445 0.0
H256 H 0.71172 0.45372 0.74626 0.0
H257 H 0.68633 0.56242 0.66238 0.0
H258 H 0.75226 0.48841 0.73779 0.0
H259 H 0.69608 0.57785 0.70665 0.0
O260 O 0.65997 0.44571 0.67731 0.0
H261 H 0.62084 0.48295 0.57998 0.0
H262 H 0.59343 0.41002 0.63195 0.0
H263 H 0.59244 0.40693 0.58512 0.0
H264 H 0.60622 0.44358 0.55881 0.0
H265 H 0.62171 0.48525 0.62688 0.0
H266 H 0.52105 0.40615 0.64866 0.0
H267 H 0.51098 0.37289 0.67909 0.0
O268 O 0.62028 0.42649 0.67035 0.0
C269 C 0.62787 0.45871 0.723 0.0
C270 C 0.54742 0.38735 0.69171 0.0
C271 C 0.53496 0.40596 0.66005 0.0
N272 N 0.5764 0.42425 0.67202 0.0
C273 C 0.57098 0.40612 0.68893 0.0
C274 C 0.55872 0.42442 0.65777 0.0
C275 C 0.52932 0.38731 0.67712 0.0
C276 C 0.67953 0.52716 0.67266 0.0
N277 N 0.67877 0.51249 0.69187 0.0
C278 C 0.68578 0.55088 0.67765 0.0
C279 C 0.69122 0.55951 0.70251 0.0
C280 C 0.69034 0.5444 0.722 0.0
C281 C 0.68399 0.52078 0.7163 0.0
C282 C 0.73953 0.50412 0.71015 0.0
C283 C 0.69431 0.46556 0.71965 0.0
C284 C 0.71938 0.50172 0.69749 0.0
N285 N 0.69712 0.4827 0.70246 0.0
C286 C 0.71405 0.46735 0.73265 0.0
C287 C 0.73679 0.4868 0.72786 0.0
C288 C 0.64 0.42672 0.67336 0.0
C289 C 0.61473 0.46684 0.59124 0.0
C290 C 0.59948 0.42605 0.62063 0.0
C291 C 0.59884 0.42419 0.59412 0.0
C292 C 0.60656 0.44475 0.57937 0.0
N293 N 0.60752 0.44779 0.63213 0.0
C294 C 0.61508 0.46802 0.6178 0.0
Co295 Co 0.18351 0.66661 0.0203 0.0
Co296 Co 0.14808 0.60698 1.00409 0.0
O297 O 0.15715 0.64062 1.00165 0.0
C298 C 0.19533 0.67847 0.96609 0.0
O299 O 0.18942 0.65589 0.96392 0.0
C300 C 0.1028 0.60586 0.01686 0.0
O301 O 0.11412 0.62158 0.03496 0.0
O302 O 0.14798 0.60831 0.04193 0.0
O303 O 0.17401 0.64665 0.05259 0.0
H304 H 0.15212 0.53625 0.03846 0.0
H305 H 0.15015 0.67643 0.99077 0.0
O306 O 0.19393 0.68657 0.98788 0.0
H307 H 0.14284 0.69631 0.07975 0.0
H308 H 0.2379 0.7532 0.04333 0.0
H309 H 0.21921 0.67001 0.05823 0.0
H310 H 0.1707 0.68197 0.06838 0.0
H311 H 0.20431 0.71955 0.02079 0.0
O312 O 0.11373 0.59819 1.00301 0.0
H313 H 0.16434 0.57903 0.03471 0.0
H314 H 0.11043 0.56244 0.97904 0.0
H315 H 0.25282 0.70306 0.08134 0.0
H316 H 0.12219 0.69087 1.00123 0.0
H317 H 0.26235 0.74502 0.07393 0.0
H318 H 0.11839 0.70088 0.04602 0.0
O319 O 0.20549 0.65454 0.01187 0.0
H320 H 0.12899 0.62233 0.91568 0.0
H321 H 0.16955 0.58857 0.96635 0.0
H322 H 0.17125 0.58787 0.91947 0.0
H323 H 0.15086 0.60484 0.89382 0.0
H324 H 0.12793 0.62287 0.9626 0.0
H325 H 0.09751 0.51944 0.98232 0.0
H326 H 0.11847 0.50612 0.01213 0.0
O327 O 0.18218 0.61502 1.00515 0.0
C328 C 0.16006 0.62453 0.05839 0.0
C329 C 0.14291 0.54184 0.02532 0.0
C330 C 0.11224 0.53241 0.99384 0.0
N331 N 0.13828 0.57325 1.00648 0.0
C332 C 0.1498 0.56605 0.02306 0.0
C333 C 0.11961 0.55677 0.99209 0.0
C334 C 0.12401 0.52494 1.01056 0.0
C335 C 0.14871 0.68094 1.01026 0.0
N336 N 0.16212 0.67852 0.02892 0.0
C337 C 0.1328 0.68902 0.01609 0.0
C338 C 0.13065 0.6946 0.04122 0.0
C339 C 0.14436 0.69203 0.06016 0.0
C340 C 0.16006 0.68386 0.05363 0.0
C341 C 0.23387 0.73499 0.04679 0.0
C342 C 0.22312 0.6882 0.05509 0.0
C343 C 0.21491 0.71589 0.03406 0.0
N344 N 0.20966 0.69285 0.03843 0.0
C345 C 0.24223 0.70685 0.06815 0.0
C346 C 0.24759 0.73039 0.06395 0.0
C347 C 0.20261 0.63381 1.00766 0.0
C348 C 0.13788 0.61482 0.92665 0.0
C349 C 0.16067 0.59602 0.95532 0.0
C350 C 0.16165 0.59553 0.92878 0.0
C351 C 0.15019 0.60503 0.9144 0.0
N352 N 0.14856 0.60565 0.9672 0.0
C353 C 0.13724 0.61497 0.95323 0.0
Co354 Co 0.81038 0.47214 0.35214 0.0
Co355 Co 0.80939 0.41895 0.3648 0.0
O356 O 0.8216 0.45305 0.37013 0.0
C357 C 0.79749 0.47182 0.40601 0.0
O358 O 0.79163 0.44921 0.40516 0.0
C359 C 0.86042 0.44211 0.35156 0.0
O360 O 0.85708 0.45776 0.3389 0.0
O361 O 0.80999 0.42296 0.32726 0.0
O362 O 0.81346 0.45878 0.31834 0.0
H363 H 0.75564 0.33812 0.32592 0.0
H364 H 0.85026 0.49574 0.38915 0.0
O365 O 0.8062 0.48488 0.38611 0.0
H366 H 0.88408 0.53452 0.30663 0.0
H367 H 0.80604 0.54691 0.33646 0.0
H368 H 0.77779 0.46389 0.30861 0.0
H369 H 0.84162 0.50291 0.31007 0.0
H370 H 0.81975 0.522 0.35835 0.0
O371 O 0.84309 0.42509 0.36359 0.0
H372 H 0.77088 0.3812 0.33319 0.0
H373 H 0.82304 0.38411 0.38478 0.0
H374 H 0.76377 0.48821 0.28604 0.0
H375 H 0.89278 0.5274 0.38662 0.0
H376 H 0.77792 0.53004 0.29996 0.0
H377 H 0.90996 0.54696 0.34511 0.0
O378 O 0.77639 0.44636 0.35428 0.0
H379 H 0.84328 0.44024 0.45325 0.0
H380 H 0.77309 0.38508 0.40178 0.0
H381 H 0.77149 0.38062 0.44849 0.0
H382 H 0.80678 0.40834 0.47455 0.0
H383 H 0.84402 0.4442 0.40649 0.0
H384 H 0.8085 0.3411 0.37792 0.0
H385 H 0.7745 0.3178 0.34838 0.0
O386 O 0.77573 0.41241 0.36566 0.0
C387 C 0.81197 0.43894 0.31149 0.0
C388 C 0.77041 0.34806 0.33891 0.0
C389 C 0.8001 0.34974 0.36807 0.0
N390 N 0.79767 0.38508 0.35957 0.0
C391 C 0.77906 0.37244 0.34317 0.0
C392 C 0.80828 0.37409 0.37184 0.0
C393 C 0.78102 0.33668 0.3515 0.0
C394 C 0.85757 0.50435 0.37108 0.0
N395 N 0.84348 0.49762 0.34982 0.0
C396 C 0.88167 0.52218 0.36974 0.0
C397 C 0.89131 0.53313 0.34643 0.0
C398 C 0.8768 0.52615 0.32483 0.0
C399 C 0.85279 0.50823 0.32688 0.0
C400 C 0.79979 0.52873 0.33018 0.0
C401 C 0.78415 0.48214 0.31465 0.0
C402 C 0.80745 0.51454 0.34253 0.0
N403 N 0.79972 0.49161 0.33461 0.0
C404 C 0.77609 0.49579 0.30186 0.0
C405 C 0.78402 0.51925 0.30969 0.0
C406 C 0.76529 0.42425 0.36028 0.0
C407 C 0.82782 0.42802 0.4421 0.0
C408 C 0.7885 0.39722 0.41299 0.0
C409 C 0.78751 0.39458 0.43943 0.0
C410 C 0.80732 0.41013 0.45404 0.0
N411 N 0.80867 0.41482 0.40143 0.0
C412 C 0.82818 0.4301 0.41561 0.0
Co413 Co 0.33436 0.81822 0.68875 0.0
Co414 Co 0.39063 0.8265 0.70225 0.0
O415 O 0.36521 0.8343 0.70658 0.0
C416 C 0.32314 0.80644 0.74321 0.0
O417 O 0.34272 0.80504 0.74344 0.0
C418 C 0.41332 0.87695 0.68616 0.0
O419 O 0.39319 0.87141 0.67447 0.0
O420 O 0.38689 0.82542 0.66466 0.0
O421 O 0.35153 0.82285 0.65504 0.0
H422 H 0.42793 0.78054 0.66628 0.0
H423 H 0.34476 0.858 0.72421 0.0
O424 O 0.31673 0.81232 0.72259 0.0
H425 H 0.33333 0.88505 0.64021 0.0
H426 H 0.24998 0.79993 0.672 0.0
H427 H 0.31376 0.78308 0.64656 0.0
H428 H 0.32945 0.84517 0.6453 0.0
H429 H 0.28918 0.81983 0.69378 0.0
O430 O 0.41498 0.86131 0.69945 0.0
H431 H 0.3958 0.79029 0.67242 0.0
H432 H 0.44035 0.84711 0.72244 0.0
H433 H 0.27491 0.76292 0.62412 0.0
H434 H 0.34861 0.89796 0.72005 0.0
H435 H 0.2427 0.77132 0.63683 0.0
H436 H 0.34294 0.91172 0.67778 0.0
O437 O 0.33135 0.78628 0.69234 0.0
H438 H 0.3996 0.863 0.78887 0.0
H439 H 0.39363 0.79431 0.74117 0.0
H440 H 0.3973 0.79524 0.78796 0.0
H441 H 0.4003 0.82977 0.81212 0.0
H442 H 0.3957 0.86124 0.74208 0.0
H443 H 0.47304 0.83812 0.71666 0.0
H444 H 0.46689 0.80455 0.68849 0.0
O445 O 0.36706 0.7916 0.70451 0.0
C446 C 0.3716 0.82463 0.64867 0.0
C447 C 0.43079 0.79515 0.67868 0.0
C448 C 0.45613 0.82749 0.70693 0.0
N449 N 0.41612 0.81909 0.69796 0.0
C450 C 0.41264 0.8007 0.6823 0.0
C451 C 0.43757 0.83252 0.7101 0.0
C452 C 0.45266 0.80865 0.69113 0.0
C453 C 0.34207 0.86382 0.70582 0.0
N454 N 0.33676 0.84927 0.68506 0.0
C455 C 0.34436 0.88648 0.70355 0.0
C456 C 0.3412 0.8942 0.67982 0.0
C457 C 0.33583 0.87925 0.65873 0.0
C458 C 0.3337 0.85672 0.66171 0.0
C459 C 0.2639 0.79618 0.66624 0.0
C460 C 0.29989 0.78696 0.65204 0.0
C461 C 0.2861 0.80736 0.67852 0.0
N462 N 0.30378 0.80278 0.67126 0.0
C463 C 0.2779 0.77543 0.63934 0.0
C464 C 0.25983 0.78013 0.6465 0.0
C465 C 0.34493 0.77826 0.69922 0.0
C466 C 0.39836 0.84789 0.77855 0.0
C467 C 0.39492 0.80939 0.75156 0.0
C468 C 0.39703 0.80983 0.77804 0.0
C469 C 0.39873 0.82922 0.79158 0.0
N470 N 0.39456 0.82776 0.73892 0.0
C471 C 0.39627 0.84685 0.75206 0.0
Co472 Co 0.51352 0.33033 0.016 0.0
Co473 Co 0.56499 0.38387 0.03012 0.0
O474 O 0.53125 0.36025 0.03514 0.0
C475 C 0.51406 0.31617 0.0692 0.0
O476 O 0.53649 0.33341 0.06869 0.0
C477 C 0.53983 0.41044 0.01985 0.0
O478 O 0.52434 0.39163 1.00683 0.0
O479 O 0.5607 0.38232 0.99261 0.0
O480 O 0.52661 0.34817 0.98276 0.0
H481 H 0.64622 0.41704 0.98984 0.0
H482 H 0.48799 0.3435 0.0539 0.0
O483 O 0.50104 0.31207 0.04933 0.0
H484 H 0.44917 0.3392 0.97161 0.0
H485 H 0.44132 0.24988 0.99772 0.0
H486 H 0.52383 0.30855 0.97156 0.0
H487 H 0.48228 0.33045 0.97428 0.0
H488 H 0.4645 0.28806 0.02092 0.0
O489 O 0.55716 0.41025 0.03128 0.0
H490 H 0.60361 0.38711 0.99676 0.0
H491 H 0.59809 0.43185 0.05248 0.0
H492 H 0.50126 0.2707 0.94768 0.0
H493 H 0.45482 0.35221 0.05215 0.0
H494 H 0.45969 0.24106 0.96075 0.0
H495 H 0.43523 0.35014 1.01075 0.0
O496 O 0.54043 0.32377 0.0175 0.0
H497 H 0.54277 0.39016 0.12027 0.0
H498 H 0.60025 0.38183 0.06538 0.0
H499 H 0.60489 0.38249 0.11204 0.0
H500 H 0.57601 0.38668 0.13981 0.0
H501 H 0.53868 0.3892 0.07352 0.0
H502 H 0.64058 0.46235 0.04601 0.0
H503 H 0.66496 0.45498 0.01457 0.0
O504 O 0.57344 0.35808 0.02854 0.0
C505 C 0.54533 0.36798 0.97659 0.0
C506 C 0.6358 0.42042 1.00366 0.0
C507 C 0.63263 0.44587 0.03516 0.0
N508 N 0.59846 0.40764 0.02517 0.0
C509 C 0.6117 0.40351 1.00772 0.0
C510 C 0.60858 0.42855 0.03871 0.0
C511 C 0.6463 0.44172 0.01752 0.0
C512 C 0.47939 0.34235 0.03587 0.0
N513 N 0.48694 0.33635 0.01425 0.0
C514 C 0.46069 0.34739 0.03497 0.0
C515 C 0.44973 0.34626 0.01173 0.0
C516 C 0.45755 0.34013 0.98976 0.0
C517 C 0.47632 0.33524 0.99137 0.0
C518 C 0.4594 0.26268 0.9918 0.0
C519 C 0.50568 0.29581 0.97721 0.0
C520 C 0.4726 0.28429 1.00488 0.0
N521 N 0.49538 0.30058 0.99742 0.0
C522 C 0.49302 0.27438 0.96369 0.0
C523 C 0.46971 0.25774 0.97105 0.0
C524 C 0.56264 0.33586 0.02286 0.0
C525 C 0.5555 0.38838 0.10837 0.0
C526 C 0.58759 0.38362 0.07735 0.0
C527 C 0.59034 0.38403 0.10375 0.0
C528 C 0.57413 0.3864 0.11932 0.0
N529 N 0.56925 0.38554 0.06676 0.0
C530 C 0.55333 0.38793 0.08189 0.0
Co531 Co 0.18022 0.50946 0.34781 0.0
Co532 Co 0.15136 0.54054 0.36422 0.0
O533 O 0.15634 0.51322 0.36686 0.0
C534 C 0.19327 0.51053 0.40175 0.0
O535 O 0.18994 0.52898 0.403 0.0
C536 C 0.10384 0.49934 0.35195 0.0
O537 O 0.1143 0.49258 0.3351 0.0
O538 O 0.15098 0.53881 0.32642 0.0
O539 O 0.1716 0.52043 0.31525 0.0
H540 H 0.16579 0.6194 0.32952 0.0
H541 H 0.14477 0.46933 0.37965 0.0
O542 O 0.18978 0.49943 0.38055 0.0
H543 H 0.13111 0.43783 0.292 0.0
H544 H 0.22561 0.46724 0.3254 0.0
H545 H 0.21614 0.53728 0.30791 0.0
H546 H 0.1629 0.4793 0.30115 0.0
H547 H 0.19534 0.47274 0.34847 0.0
O548 O 0.11606 0.51816 0.36519 0.0
H549 H 0.17269 0.58517 0.33348 0.0
H550 H 0.11755 0.55321 0.38899 0.0
H551 H 0.2465 0.5324 0.28424 0.0
H552 H 0.1129 0.42768 0.37141 0.0
H553 H 0.25137 0.49716 0.29295 0.0
H554 H 0.10588 0.41171 0.32729 0.0
O555 O 0.20542 0.54298 0.35446 0.0
H556 H 0.12918 0.50686 0.45274 0.0
H557 H 0.17668 0.5801 0.4018 0.0
H558 H 0.17873 0.58254 0.44867 0.0
H559 H 0.15488 0.54573 0.47446 0.0
H560 H 0.12781 0.50518 0.40582 0.0
H561 H 0.10993 0.58702 0.3855 0.0
H562 H 0.13422 0.62047 0.35566 0.0
O563 O 0.18648 0.56341 0.36321 0.0
C564 C 0.16029 0.53155 0.30971 0.0
C565 C 0.15516 0.60498 0.34266 0.0
C566 C 0.12378 0.58679 0.37406 0.0
N567 N 0.14571 0.56734 0.36163 0.0
C568 C 0.15903 0.58559 0.34504 0.0
C569 C 0.12816 0.56768 0.37593 0.0
C570 C 0.13742 0.60555 0.35731 0.0
C571 C 0.14194 0.46242 0.36045 0.0
N572 N 0.15574 0.47664 0.34093 0.0
C573 C 0.12381 0.43887 0.35588 0.0
C574 C 0.11987 0.42993 0.33112 0.0
C575 C 0.13401 0.44458 0.3113 0.0
C576 C 0.15194 0.46805 0.31659 0.0
C577 C 0.2236 0.48262 0.32138 0.0
C578 C 0.21803 0.5218 0.31163 0.0
C579 C 0.20652 0.48585 0.3344 0.0
N580 N 0.20382 0.50516 0.32932 0.0
C581 C 0.2353 0.51918 0.29825 0.0
C582 C 0.23805 0.49942 0.30317 0.0
C583 C 0.20544 0.5623 0.35952 0.0
C584 C 0.13961 0.52303 0.44171 0.0
C585 C 0.16625 0.564 0.41289 0.0
C586 C 0.16746 0.5655 0.43942 0.0
C587 C 0.15405 0.54484 0.45388 0.0
N588 N 0.15204 0.54253 0.40109 0.0
C589 C 0.13881 0.52221 0.41514 0.0
Co590 Co 0.67733 0.19021 0.67435 0.0
Co591 Co 0.61758 0.15447 0.69027 0.0
O592 O 0.65108 0.16281 0.69165 0.0
C593 C 0.68871 0.19935 0.72886 0.0
O594 O 0.66601 0.19294 0.73119 0.0
C595 C 0.61434 0.10972 0.67087 0.0
O596 O 0.63023 0.12218 0.65328 0.0
O597 O 0.61896 0.1577 0.65255 0.0
O598 O 0.65768 0.18256 0.64207 0.0
H599 H 0.54772 0.16278 0.66131 0.0
H600 H 0.68687 0.15528 0.70102 0.0
O601 O 0.69697 0.19882 0.70687 0.0
H602 H 0.70739 0.15278 0.61106 0.0
H603 H 0.76416 0.24554 0.65292 0.0
H604 H 0.68123 0.22809 0.63923 0.0
H605 H 0.69296 0.17995 0.62492 0.0
H606 H 0.73024 0.2108 0.67382 0.0
O607 O 0.60799 0.12002 0.68722 0.0
H608 H 0.59033 0.17411 0.66397 0.0
H609 H 0.57265 0.11509 0.71303 0.0
H610 H 0.71455 0.26288 0.61778 0.0
H611 H 0.70142 0.12796 0.68806 0.0
H612 H 0.75638 0.2718 0.62458 0.0
H613 H 0.71176 0.12659 0.64277 0.0
O614 O 0.66539 0.21187 0.68478 0.0
H615 H 0.63235 0.12705 0.77446 0.0
H616 H 0.59961 0.1728 0.73196 0.0
H617 H 0.59891 0.17023 0.77884 0.0
H618 H 0.61536 0.14723 0.80038 0.0
H619 H 0.63288 0.13024 0.72764 0.0
H620 H 0.52983 0.10298 0.71067 0.0
H621 H 0.51713 0.12697 0.68476 0.0
O622 O 0.62621 0.18861 0.69331 0.0
C623 C 0.6354 0.16982 0.63631 0.0
C624 C 0.55304 0.15225 0.67276 0.0
C625 C 0.54299 0.11867 0.70044 0.0
N626 N 0.584 0.14544 0.68886 0.0
C627 C 0.57715 0.15863 0.67441 0.0
C628 C 0.56727 0.1256 0.70167 0.0
C629 C 0.53588 0.13213 0.68589 0.0
C630 C 0.6915 0.15488 0.68132 0.0
N631 N 0.68922 0.16926 0.66377 0.0
C632 C 0.69965 0.13934 0.67408 0.0
C633 C 0.70542 0.13855 0.64866 0.0
C634 C 0.70297 0.15323 0.63085 0.0
C635 C 0.69474 0.16853 0.63879 0.0
C636 C 0.74601 0.24179 0.64973 0.0
C637 C 0.69936 0.23173 0.64207 0.0
C638 C 0.72675 0.22217 0.66153 0.0
N639 N 0.70378 0.21728 0.65748 0.0
C640 C 0.71816 0.25151 0.62997 0.0
C641 C 0.74163 0.25652 0.63383 0.0
C642 C 0.64503 0.20902 0.69095 0.0
C643 C 0.62507 0.13708 0.76529 0.0
C644 C 0.60683 0.16278 0.7412 0.0
C645 C 0.60635 0.16135 0.76774 0.0
C646 C 0.61557 0.14843 0.77982 0.0
N647 N 0.61619 0.15159 0.72708 0.0
C648 C 0.62522 0.13885 0.73878 0.0
Co649 Co 0.47319 0.66413 0.0178 0.0
Co650 Co 0.44814 0.60398 0.03205 0.0
O651 O 0.47306 0.63741 0.03541 0.0
C652 C 0.47259 0.67475 0.07225 0.0
O653 O 0.45542 0.6523 0.07378 0.0
C654 C 0.49164 0.60202 0.01796 0.0
O655 O 0.49631 0.61821 1.0003 0.0
O656 O 0.44961 0.6064 0.99424 0.0
O657 O 0.46268 0.64519 0.98494 0.0
H658 H 0.3728 0.53494 0.99638 0.0
H659 H 0.51604 0.67254 0.04706 0.0
O660 O 0.48281 0.6831 0.0508 0.0
H661 H 0.54381 0.69474 0.9585 0.0
H662 H 0.50676 0.75153 0.99759 0.0
H663 H 0.44133 0.66922 0.98062 0.0
H664 H 0.50165 0.68057 0.96991 0.0
H665 H 0.506 0.71697 0.01883 0.0
O666 O 0.47329 0.59461 0.03217 0.0
H667 H 0.40383 0.57744 1.00126 0.0
H668 H 0.44053 0.55847 0.05536 0.0
H669 H 0.44146 0.70321 0.95881 0.0
H670 H 0.55842 0.6868 0.03656 0.0
H671 H 0.47436 0.74473 0.96725 0.0
H672 H 0.57252 0.69798 0.99198 0.0
O673 O 0.43912 0.65223 0.02623 0.0
H674 H 0.4826 0.6166 0.12026 0.0
H675 H 0.40827 0.58488 0.06989 0.0
H676 H 0.40591 0.58297 0.11677 0.0
H677 H 0.44326 0.5989 0.14227 0.0
H678 H 0.48417 0.61834 0.07335 0.0
H679 H 0.40999 0.51574 0.05091 0.0
H680 H 0.37577 0.50375 0.02132 0.0
O681 O 0.42246 0.61252 0.03197 0.0
C682 C 0.4542 0.62322 0.9784 0.0
C683 C 0.38757 0.53994 1.00941 0.0
C684 C 0.40847 0.52917 0.03999 0.0
N685 N 0.42383 0.57045 0.02876 0.0
C686 C 0.40516 0.56399 0.01231 0.0
C687 C 0.42572 0.55339 0.0424 0.0
C688 C 0.38927 0.52245 0.02339 0.0
C689 C 0.52211 0.67755 0.02767 0.0
N690 N 0.50647 0.67588 1.00915 0.0
C691 C 0.54609 0.68553 0.02182 0.0
C692 C 0.55399 0.69177 0.99679 0.0
C693 C 0.53788 0.68995 0.978 0.0
C694 C 0.51403 0.68187 0.98455 0.0
C695 C 0.49237 0.73352 0.99368 0.0
C696 C 0.45581 0.68721 0.98421 0.0
C697 C 0.49184 0.7139 1.00567 0.0
N698 N 0.4738 0.6911 1.00071 0.0
C699 C 0.45574 0.7064 0.97188 0.0
C700 C 0.47419 0.72969 0.97666 0.0
C701 C 0.42111 0.63151 0.03017 0.0
C702 C 0.4662 0.60954 0.10936 0.0
C703 C 0.42461 0.59188 0.08086 0.0
C704 C 0.42315 0.59071 0.10739 0.0
C705 C 0.44412 0.59964 0.12169 0.0
N706 N 0.44633 0.60161 0.06889 0.0
C707 C 0.46696 0.61037 0.08279 0.0
H708 H 0.56568 0.15071 0.40277 0.0
H709 H 0.57869 0.14871 0.44583 0.0
H710 H 0.55574 0.19766 0.47156 0.0
H711 H 0.54149 0.19867 0.42841 0.0
H712 H 0.6127 0.18187 0.47174 0.0
H713 H 0.52966 0.15065 0.52807 0.0
H714 H 0.52955 0.15036 0.49376 0.0
H715 H 0.53781 0.17767 0.51079 0.0
C716 C 0.56293 0.16067 0.41774 0.0
C717 C 0.55244 0.17475 0.41225 0.0
C718 C 0.57051 0.15962 0.44238 0.0
C719 C 0.56818 0.17292 0.46223 0.0
C720 C 0.55727 0.18672 0.45689 0.0
H721 H 0.65753 0.20469 0.59978 0.0
H722 H 0.64187 0.2065 0.55789 0.0
C723 C 0.54916 0.18737 0.43218 0.0
C724 C 0.57854 0.1732 0.48786 0.0
H725 H 0.56577 0.16433 0.55148 0.0
C726 C 0.60233 0.17791 0.48915 0.0
C727 C 0.56511 0.16785 0.5107 0.0
C728 C 0.53906 0.16111 0.5108 0.0
C729 C 0.61293 0.17718 0.51231 0.0
C730 C 0.59977 0.17257 0.53526 0.0
C731 C 0.57603 0.16804 0.53402 0.0
C732 C 0.60987 0.17153 0.56061 0.0
C733 C 0.63784 0.1805 0.51168 0.0
C734 C 0.59701 0.15158 0.57659 0.0
C735 C 0.60569 0.15078 0.60079 0.0
C736 C 0.62764 0.1698 0.60961 0.0
C737 C 0.64079 0.18956 0.59345 0.0
C738 C 0.63184 0.19056 0.56939 0.0
H739 H 0.64217 0.17619 0.49263 0.0
H740 H 0.65111 0.19952 0.51581 0.0
H741 H 0.63994 0.16903 0.52604 0.0
H742 H 0.58006 0.13662 0.57042 0.0
H743 H 0.59505 0.13528 0.61273 0.0
H744 H 0.41106 0.55937 0.74206 0.0
H745 H 0.4248 0.57098 0.78572 0.0
H746 H 0.35295 0.55141 0.80858 0.0
H747 H 0.33889 0.53864 0.76482 0.0
H748 H 0.42684 0.60543 0.81207 0.0
H749 H 0.36941 0.52181 0.86557 0.0
H750 H 0.37094 0.52252 0.83129 0.0
H751 H 0.35231 0.53174 0.84764 0.0
C752 C 0.39806 0.55709 0.75649 0.0
C753 C 0.37384 0.54798 0.74999 0.0
C754 C 0.40598 0.56386 0.7815 0.0
C755 C 0.39001 0.56204 0.80075 0.0
C756 C 0.36563 0.55251 0.79439 0.0
H757 H 0.44463 0.64726 0.94113 0.0
H758 H 0.42891 0.63305 0.89838 0.0
C759 C 0.35757 0.54525 0.76931 0.0
C760 C 0.39943 0.57145 0.82685 0.0
H761 H 0.39231 0.55705 0.89018 0.0
C762 C 0.4193 0.59474 0.82911 0.0
C763 C 0.38989 0.55759 0.84925 0.0
C764 C 0.36963 0.53195 0.84836 0.0
C765 C 0.42992 0.60444 0.85282 0.0
C766 C 0.4199 0.59088 0.87531 0.0
C767 C 0.39998 0.56762 0.87309 0.0
C768 C 0.43012 0.60011 0.90122 0.0
C769 C 0.45229 0.62881 0.85329 0.0
C770 C 0.43567 0.58627 0.91755 0.0
C771 C 0.44421 0.59416 0.94223 0.0
C772 C 0.44766 0.61625 0.95125 0.0
C773 C 0.44259 0.63036 0.93474 0.0
C774 C 0.43364 0.62225 0.91016 0.0
H775 H 0.46176 0.63319 0.83468 0.0
H776 H 0.44728 0.64266 0.85718 0.0
H777 H 0.46493 0.62987 0.86829 0.0
H778 H 0.4332 0.56916 0.91126 0.0
H779 H 0.44785 0.58276 0.95438 0.0
H780 H 0.81425 0.46593 0.26938 0.0
H781 H 0.81547 0.45621 0.22435 0.0
H782 H 0.81324 0.39066 0.24638 0.0
H783 H 0.81231 0.40015 0.29095 0.0
H784 H 0.84737 0.41554 0.20928 0.0
H785 H 0.75928 0.40525 0.18246 0.0
H786 H 0.77999 0.43346 0.19683 0.0
H787 H 0.76833 0.40636 0.21518 0.0
C788 C 0.81403 0.44946 0.26463 0.0
C789 C 0.81308 0.43385 0.28396 0.0
C790 C 0.81459 0.44385 0.23886 0.0
C791 C 0.81414 0.42252 0.23192 0.0
C792 C 0.81354 0.40717 0.25117 0.0
H793 H 0.81431 0.35043 0.08972 0.0
H794 H 0.81495 0.36135 0.13466 0.0
C795 C 0.81295 0.41268 0.27677 0.0
C796 C 0.81437 0.41594 0.20473 0.0
H797 H 0.78218 0.40172 0.1494 0.0
C798 C 0.83312 0.41252 0.19617 0.0
C799 C 0.7957 0.41184 0.18765 0.0
C800 C 0.77455 0.41419 0.19595 0.0
C801 C 0.83393 0.40553 0.17096 0.0
C802 C 0.81523 0.40137 0.15389 0.0
C803 C 0.79649 0.40482 0.16247 0.0
C804 C 0.81518 0.39447 0.12676 0.0
C805 C 0.85511 0.40324 0.16268 0.0
C806 C 0.81467 0.40913 0.10734 0.0
C807 C 0.81412 0.40289 0.0818 0.0
C808 C 0.81401 0.38169 0.07482 0.0
C809 C 0.81454 0.36694 0.09431 0.0
C810 C 0.81503 0.37323 0.12003 0.0
H811 H 0.87054 0.41268 0.17589 0.0
H812 H 0.84988 0.38401 0.16242 0.0
H813 H 0.86101 0.41057 0.14321 0.0
H814 H 0.81474 0.42556 0.11196 0.0
H815 H 0.81374 0.41482 0.0675 0.0
H816 H 0.45051 0.86601 0.4165 0.0
H817 H 0.43676 0.86506 0.46002 0.0
H818 H 0.43648 0.79885 0.4735 0.0
H819 H 0.45144 0.80042 0.43032 0.0
H820 H 0.39687 0.83545 0.48138 0.0
H821 H 0.46821 0.83245 0.53701 0.0
H822 H 0.47105 0.83856 0.50333 0.0
H823 H 0.45441 0.80815 0.51482 0.0
C824 C 0.44806 0.85152 0.42893 0.0
C825 C 0.45233 0.83341 0.41995 0.0
C826 C 0.44001 0.8509 0.45383 0.0
C827 C 0.43569 0.832 0.4704 0.0
C828 C 0.44025 0.81403 0.46154 0.0
H829 H 0.34397 0.80088 0.60687 0.0
H830 H 0.35818 0.80181 0.56322 0.0
C831 C 0.44879 0.8149 0.43674 0.0
C832 C 0.42536 0.83069 0.49632 0.0
H833 H 0.43282 0.82385 0.55962 0.0
C834 C 0.40486 0.83307 0.4985 0.0
C835 C 0.43576 0.82778 0.51885 0.0
C836 C 0.4587 0.82684 0.51845 0.0
C837 C 0.39463 0.83276 0.52231 0.0
C838 C 0.40457 0.82905 0.54475 0.0
C839 C 0.42497 0.82651 0.54255 0.0
C840 C 0.39506 0.82893 0.57085 0.0
C841 C 0.37381 0.83727 0.5231 0.0
C842 C 0.4109 0.84351 0.58998 0.0
C843 C 0.40291 0.8425 0.61492 0.0
C844 C 0.37875 0.82716 0.62147 0.0
C845 C 0.3626 0.81311 0.6023 0.0
C846 C 0.37075 0.81373 0.57729 0.0
H847 H 0.37321 0.84691 0.50581 0.0
H848 H 0.35681 0.81984 0.52388 0.0
H849 H 0.37474 0.84795 0.54008 0.0
H850 H 0.42966 0.8555 0.5857 0.0
H851 H 0.4158 0.85363 0.62925 0.0
H852 H 0.5617 0.41287 0.95859 0.0
H853 H 0.57375 0.42754 0.91524 0.0
H854 H 0.5532 0.3559 0.89049 0.0
H855 H 0.53983 0.34094 0.93391 0.0
H856 H 0.60795 0.42979 0.88888 0.0
H857 H 0.52482 0.37409 0.83406 0.0
H858 H 0.52517 0.37471 0.86837 0.0
H859 H 0.53427 0.35629 0.85139 0.0
C860 C 0.55929 0.40014 0.94378 0.0
C861 C 0.5497 0.37573 0.94959 0.0
C862 C 0.56631 0.40858 0.91897 0.0
C863 C 0.56433 0.39292 0.8993 0.0
C864 C 0.55439 0.36836 0.90501 0.0
H865 H 0.65157 0.44939 0.7607 0.0
H866 H 0.63675 0.43341 0.80322 0.0
C867 C 0.54681 0.35978 0.92987 0.0
C868 C 0.57407 0.40284 0.87344 0.0
H869 H 0.56049 0.39692 0.80996 0.0
C870 C 0.59744 0.42264 0.87166 0.0
C871 C 0.56045 0.39381 0.85083 0.0
C872 C 0.53471 0.37373 0.85123 0.0
C873 C 0.60747 0.43368 0.84821 0.0
C874 C 0.5942 0.42411 0.8255 0.0
C875 C 0.57084 0.40425 0.82724 0.0
C876 C 0.60385 0.43463 0.79982 0.0
C877 C 0.63188 0.45601 0.84829 0.0
C878 C 0.59023 0.44026 0.78325 0.0
C879 C 0.59844 0.44888 0.75867 0.0
C880 C 0.62066 0.45239 0.75007 0.0
C881 C 0.6346 0.44734 0.76683 0.0
C882 C 0.62613 0.43824 0.79127 0.0
H883 H 0.6359 0.46525 0.86701 0.0
H884 H 0.64576 0.45099 0.84469 0.0
H885 H 0.63329 0.46887 0.83336 0.0
H886 H 0.57302 0.43773 0.78924 0.0
H887 H 0.58721 0.45251 0.74625 0.0
H888 H 0.12885 0.54371 0.28923 0.0
H889 H 0.12892 0.55863 0.24657 0.0
H890 H 0.18929 0.5504 0.22638 0.0
H891 H 0.18882 0.53465 0.26902 0.0
H892 H 0.1618 0.59791 0.22433 0.0
H893 H 0.14785 0.52076 0.16526 0.0
H894 H 0.14398 0.51863 0.19935 0.0
H895 H 0.17351 0.53168 0.1857 0.0
C896 C 0.14194 0.54467 0.27564 0.0
C897 C 0.15879 0.53784 0.28266 0.0
C898 C 0.14202 0.55335 0.25118 0.0
C899 C 0.15899 0.55558 0.23297 0.0
C900 C 0.17563 0.54841 0.23975 0.0
H901 H 0.19134 0.64826 0.09779 0.0
H902 H 0.19188 0.63251 0.14008 0.0
C903 C 0.17539 0.53942 0.26424 0.0
C904 C 0.15972 0.56645 0.20749 0.0
H905 H 0.1579 0.5568 0.14328 0.0
C906 C 0.16089 0.58885 0.20662 0.0
C907 C 0.1583 0.55466 0.18425 0.0
C908 C 0.1556 0.53001 0.1836 0.0
C909 C 0.16061 0.59968 0.18339 0.0
C910 C 0.15981 0.58818 0.16013 0.0
C911 C 0.15869 0.5658 0.161 0.0
C912 C 0.15924 0.5985 0.13471 0.0
C913 C 0.16039 0.62299 0.18415 0.0
C914 C 0.14094 0.58469 0.11724 0.0
C915 C 0.14078 0.59353 0.09292 0.0
C916 C 0.15888 0.61654 0.08532 0.0
C917 C 0.17693 0.63062 0.10302 0.0
C918 C 0.17722 0.62162 0.12732 0.0
H919 H 0.15393 0.62566 0.2028 0.0
H920 H 0.1789 0.63811 0.18129 0.0
H921 H 0.14881 0.6237 0.16891 0.0
H922 H 0.12682 0.56685 0.12234 0.0
H923 H 0.12659 0.58209 0.07989 0.0
H924 H 0.73569 0.44089 0.34447 0.0
H925 H 0.69181 0.41897 0.34414 0.0
H926 H 0.69161 0.358 0.37844 0.0
H927 H 0.73512 0.37955 0.37898 0.0
H928 H 0.66564 0.3777 0.31724 0.0
H929 H 0.63824 0.35991 0.41754 0.0
H930 H 0.66719 0.38433 0.4079 0.0
H931 H 0.66269 0.35459 0.41252 0.0
C932 C 0.72628 0.42295 0.35237 0.0
C933 C 0.7389 0.41188 0.36163 0.0
C934 C 0.70123 0.41057 0.35228 0.0
C935 C 0.68851 0.38713 0.36181 0.0
C936 C 0.70109 0.37637 0.37173 0.0
H937 H 0.6087 0.25749 0.32107 0.0
H938 H 0.63165 0.30091 0.32372 0.0
C939 C 0.72601 0.3886 0.37168 0.0
C940 C 0.66245 0.37213 0.35789 0.0
H941 H 0.61521 0.32572 0.38776 0.0
C942 C 0.65414 0.36694 0.33272 0.0
C943 C 0.64712 0.35861 0.37806 0.0
C944 C 0.65425 0.3649 0.40553 0.0
C945 C 0.63251 0.34613 0.32706 0.0
C946 C 0.61937 0.33029 0.34704 0.0
C947 C 0.62568 0.33761 0.37237 0.0
C948 C 0.60355 0.3045 0.34222 0.0
C949 C 0.62512 0.34011 0.29961 0.0
C950 C 0.58025 0.29209 0.35211 0.0
C951 C 0.56704 0.26709 0.35074 0.0
C952 C 0.57717 0.25419 0.33987 0.0
C953 C 0.60036 0.26681 0.32959 0.0
C954 C 0.61339 0.29169 0.33077 0.0
H955 H 0.63041 0.35666 0.28841 0.0
H956 H 0.63444 0.33118 0.29124 0.0
H957 H 0.60547 0.32791 0.29779 0.0
H958 H 0.57257 0.30169 0.36143 0.0
H959 H 0.5492 0.25787 0.35888 0.0
H960 H 0.36765 0.75355 0.71192 0.0
H961 H 0.35112 0.71031 0.71081 0.0
H962 H 0.28197 0.70017 0.68961 0.0
H963 H 0.29834 0.74357 0.69036 0.0
H964 H 0.31004 0.67093 0.73602 0.0
H965 H 0.30218 0.67124 0.63017 0.0
H966 H 0.31963 0.69866 0.64777 0.0
H967 H 0.28751 0.68332 0.64926 0.0
C968 C 0.34886 0.7422 0.70726 0.0
C969 C 0.33442 0.75204 0.70087 0.0
C970 C 0.33942 0.71749 0.70679 0.0
C971 C 0.31542 0.70222 0.69995 0.0
C972 C 0.30059 0.71179 0.69471 0.0
H973 H 0.29459 0.55605 0.69287 0.0
H974 H 0.27995 0.58437 0.69782 0.0
C975 C 0.31003 0.73657 0.69514 0.0
C976 C 0.30708 0.67662 0.69614 0.0
H977 H 0.30172 0.63808 0.64885 0.0
C978 C 0.30737 0.66328 0.71709 0.0
C979 C 0.30359 0.66691 0.67135 0.0
C980 C 0.30324 0.68068 0.64824 0.0
C981 C 0.30658 0.64135 0.71364 0.0
C982 C 0.30534 0.63274 0.68865 0.0
C983 C 0.30263 0.6449 0.66795 0.0
C984 C 0.31235 0.6147 0.68332 0.0
C985 C 0.30949 0.62873 0.73642 0.0
C986 C 0.33514 0.62247 0.67304 0.0
C987 C 0.34359 0.60654 0.67025 0.0
C988 C 0.32932 0.58248 0.67763 0.0
C989 C 0.30605 0.57451 0.68706 0.0
C990 C 0.29763 0.59059 0.68993 0.0
H991 H 0.3108 0.6382 0.75455 0.0
H992 H 0.29394 0.61026 0.73769 0.0
H993 H 0.32588 0.62733 0.73422 0.0
H994 H 0.34673 0.64113 0.66793 0.0
H995 H 0.36152 0.61327 0.66283 0.0
H996 H 0.54886 0.29089 1.00471 0.0
H997 H 0.57334 0.27165 1.00204 0.0
H998 H 0.63204 0.3333 0.03793 0.0
H999 H 0.60798 0.35257 0.04072 0.0
H1000 H 0.61539 0.29082 0.97475 0.0
H1001 H 0.63356 0.27812 0.07409 0.0
H1002 H 0.60803 0.28108 0.06512 0.0
H1003 H 0.63691 0.30732 0.07055 0.0
C1004 C 0.56686 0.30017 0.01244 0.0
C1005 C 0.57654 0.32334 0.02283 0.0
C1006 C 0.58071 0.28907 1.01099 0.0
C1007 C 0.60424 0.30082 0.02032 0.0
C1008 C 0.61365 0.32361 0.03132 0.0
H1009 H 0.73601 0.35707 0.97967 0.0
H1010 H 0.69253 0.33546 0.98144 0.0
C1011 C 0.59996 0.33477 0.03259 0.0
C1012 C 0.62058 0.29148 0.01537 0.0
H1013 H 0.66791 0.29173 0.04428 0.0
C1014 C 0.62635 0.28998 0.98995 0.0
C1015 C 0.6344 0.28959 0.03515 0.0
C1016 C 0.62768 0.28883 0.06276 0.0
C1017 C 0.64775 0.2905 0.98384 0.0
C1018 C 0.66362 0.29291 1.00366 0.0
C1019 C 0.65598 0.29049 0.02904 0.0
C1020 C 0.68954 0.30361 0.99897 0.0
C1021 C 0.65416 0.29064 0.95622 0.0
C1022 C 0.70233 0.29299 1.00853 0.0
C1023 C 0.72736 0.30545 1.00772 0.0
C1024 C 0.73992 0.32887 0.99771 0.0
C1025 C 0.72696 0.33912 0.98755 0.0
C1026 C 0.70204 0.32663 0.98822 0.0
H1027 H 0.63785 0.27931 0.94473 0.0
H1028 H 0.66244 0.30921 0.94872 0.0
H1029 H 0.66703 0.28408 0.95372 0.0
H1030 H 0.69298 0.27541 0.01728 0.0
H1031 H 0.73684 0.29704 0.01572 0.0
H1032 H 0.42116 0.74179 0.34831 0.0
H1033 H 0.38474 0.7027 0.35181 0.0
H1034 H 0.34165 0.73659 0.34737 0.0
H1035 H 0.37783 0.7758 0.34385 0.0
H1036 H 0.33229 0.70248 0.3902 0.0
H1037 H 0.33348 0.66702 0.29381 0.0
H1038 H 0.36096 0.68028 0.31177 0.0
H1039 H 0.34918 0.69872 0.30086 0.0
C1040 C 0.40396 0.74096 0.34788 0.0
C1041 C 0.4024 0.76192 0.34579 0.0
C1042 C 0.38323 0.71863 0.34983 0.0
C1043 C 0.36072 0.71696 0.3497 0.0
C1044 C 0.359 0.7377 0.34744 0.0
H1045 H 0.21349 0.60791 0.36532 0.0
H1046 H 0.25202 0.64503 0.36492 0.0
C1047 C 0.37969 0.76004 0.34538 0.0
C1048 C 0.33886 0.69359 0.35268 0.0
H1049 H 0.30283 0.64114 0.32185 0.0
C1050 C 0.32579 0.68898 0.37534 0.0
C1051 C 0.33077 0.67619 0.33324 0.0
C1052 C 0.34417 0.6807 0.30843 0.0
C1053 C 0.30457 0.66719 0.37908 0.0
C1054 C 0.29613 0.64996 0.35938 0.0
C1055 C 0.30945 0.65446 0.33688 0.0
C1056 C 0.27304 0.62747 0.36123 0.0
C1057 C 0.29153 0.66272 0.40412 0.0
C1058 C 0.2722 0.60541 0.35888 0.0
C1059 C 0.25022 0.58415 0.3588 0.0
C1060 C 0.22873 0.58467 0.36099 0.0
C1061 C 0.2297 0.60686 0.36372 0.0
C1062 C 0.2517 0.62809 0.36367 0.0
H1063 H 0.30368 0.67423 0.4195 0.0
H1064 H 0.27694 0.66701 0.40207 0.0
H1065 H 0.28341 0.64366 0.40999 0.0
H1066 H 0.28856 0.60468 0.35683 0.0
H1067 H 0.25011 0.56737 0.35669 0.0
H1068 H 0.60068 0.38191 0.66932 0.0
H1069 H 0.59916 0.34363 0.67535 0.0
H1070 H 0.67598 0.38049 0.68446 0.0
H1071 H 0.67778 0.41896 0.67899 0.0
H1072 H 0.6211 0.32285 0.64865 0.0
H1073 H 0.65156 0.33983 0.74914 0.0
H1074 H 0.64176 0.35789 0.73239 0.0
H1075 H 0.67158 0.36292 0.7277 0.0
C1076 C 0.61731 0.38193 0.67247 0.0
C1077 C 0.63934 0.40353 0.67396 0.0
C1078 C 0.61635 0.36004 0.67596 0.0
C1079 C 0.63737 0.3594 0.68096 0.0
C1080 C 0.6595 0.38077 0.68129 0.0
H1081 H 0.68113 0.25572 0.69087 0.0
H1082 H 0.67706 0.29138 0.69117 0.0
C1083 C 0.66049 0.40269 0.67793 0.0
C1084 C 0.63623 0.33633 0.68565 0.0
H1085 H 0.65112 0.30639 0.72884 0.0
C1086 C 0.62737 0.31908 0.66627 0.0
C1087 C 0.64427 0.33155 0.7088 0.0
C1088 C 0.65261 0.34893 0.73081 0.0
C1089 C 0.62731 0.29745 0.66902 0.0
C1090 C 0.63616 0.29308 0.69178 0.0
C1091 C 0.64441 0.31 0.71144 0.0
C1092 C 0.63845 0.27166 0.69467 0.0
C1093 C 0.6186 0.27976 0.64729 0.0
C1094 C 0.61804 0.24899 0.69732 0.0
C1095 C 0.62024 0.22854 0.69722 0.0
C1096 C 0.64291 0.23058 0.69433 0.0
C1097 C 0.66341 0.2535 0.69292 0.0
C1098 C 0.66116 0.2739 0.69314 0.0
H1099 H 0.61518 0.28725 0.62976 0.0
H1100 H 0.63196 0.27417 0.64288 0.0
H1101 H 0.60167 0.26348 0.65289 0.0
H1102 H 0.60041 0.24712 0.69872 0.0
H1103 H 0.60412 0.21117 0.6985 0.0
H1104 H 0.24942 0.66944 1.01003 0.0
H1105 H 0.28458 0.66487 0.01439 0.0
H1106 H 0.23977 0.58801 1.00981 0.0
H1107 H 0.2044 0.59229 1.00499 0.0
H1108 H 0.29051 0.6393 0.05469 0.0
H1109 H 0.29475 0.60311 0.9598 0.0
H1110 H 0.27758 0.61784 0.96534 0.0
H1111 H 0.2664 0.58759 0.97599 0.0
C1112 C 0.24701 0.65155 1.00954 0.0
C1113 C 0.22407 0.63122 1.00727 0.0
C1114 C 0.26711 0.649 0.01209 0.0
C1115 C 0.26466 0.62614 0.01233 0.0
C1116 C 0.24197 0.60582 1.00931 0.0
H1117 H 0.37755 0.59027 0.03255 0.0
H1118 H 0.33799 0.58673 0.03123 0.0
C1119 C 0.2218 0.60833 1.00664 0.0
C1120 C 0.2858 0.62371 0.01735 0.0
H1121 H 0.32327 0.60695 0.99041 0.0
C1122 C 0.29765 0.63214 0.0407 0.0
C1123 C 0.29477 0.61411 0.99911 0.0
C1124 C 0.28288 0.60528 0.97355 0.0
C1125 C 0.31871 0.63175 0.04609 0.0
C1126 C 0.32813 0.62293 0.02752 0.0
C1127 C 0.31584 0.61367 1.00455 0.0
C1128 C 0.35174 0.62498 0.03064 0.0
C1129 C 0.33088 0.641 0.07144 0.0
C1130 C 0.37236 0.6477 0.03085 0.0
C1131 C 0.39496 0.64985 0.03147 0.0
C1132 C 0.39724 0.62926 0.03182 0.0
C1133 C 0.37643 0.60649 0.0323 0.0
C1134 C 0.35383 0.60439 0.03153 0.0
H1135 H 0.31834 0.64115 0.08587 0.0
H1136 H 0.33839 0.62993 0.07872 0.0
H1137 H 0.34588 0.65965 0.06908 0.0
H1138 H 0.37098 0.66376 0.02978 0.0
H1139 H 0.41059 0.66764 0.03109 0.0
H1140 H 0.57607 0.11984 0.32339 0.0
H1141 H 0.57319 0.08048 0.32373 0.0
H1142 H 0.5025 0.04925 0.35666 0.0
H1143 H 0.50536 0.08849 0.35686 0.0
H1144 H 0.53199 0.03556 0.38106 0.0
H1145 H 0.53263 0.02438 0.27606 0.0
H1146 H 0.55744 0.05114 0.28895 0.0
H1147 H 0.52776 0.04702 0.29044 0.0
C1148 C 0.55985 0.10455 0.33056 0.0
C1149 C 0.5409 0.10723 0.34004 0.0
C1150 C 0.55823 0.08209 0.33068 0.0
C1151 C 0.53755 0.06197 0.33999 0.0
C1152 C 0.51863 0.06461 0.34941 0.0
H1153 H 0.4682 0.91315 0.32112 0.0
H1154 H 0.48567 0.95644 0.31922 0.0
C1155 C 0.52027 0.08702 0.34945 0.0
C1156 C 0.53542 0.03804 0.34027 0.0
H1157 H 0.52945 0.99288 0.30155 0.0
C1158 C 0.53169 0.02627 0.36373 0.0
C1159 C 0.53504 0.02608 0.31756 0.0
C1160 C 0.53824 0.03765 0.29177 0.0
C1161 C 0.52655 0.00243 0.36506 0.0
C1162 C 0.52564 0.99027 0.34231 0.0
C1163 C 0.53036 0.00238 0.31893 0.0
C1164 C 0.51669 0.96421 0.34205 0.0
C1165 C 0.52082 0.99005 0.39063 0.0
C1166 C 0.52865 0.95424 0.35511 0.0
C1167 C 0.51857 0.92933 0.35643 0.0
C1168 C 0.49649 0.91412 0.34456 0.0
C1169 C 0.48515 0.9243 0.33064 0.0
C1170 C 0.49515 0.94907 0.32943 0.0
H1171 H 0.51823 0.00071 0.40562 0.0
H1172 H 0.50435 0.97218 0.38947 0.0
H1173 H 0.53583 0.98734 0.39657 0.0
H1174 H 0.54552 0.96568 0.36461 0.0
H1175 H 0.52784 0.92201 0.36709 0.0
H1176 H 0.41438 0.50413 0.71015 0.0
H1177 H 0.45042 0.50067 0.71273 0.0
H1178 H 0.48313 0.55319 0.65291 0.0
H1179 H 0.44747 0.55724 0.65065 0.0
H1180 H 0.47058 0.48662 0.67747 0.0
H1181 H 0.53527 0.57978 0.70625 0.0
H1182 H 0.50326 0.56777 0.70697 0.0
H1183 H 0.51956 0.57849 0.67756 0.0
C1184 C 0.42924 0.51494 0.69753 0.0
C1185 C 0.42814 0.53103 0.68027 0.0
C1186 C 0.44984 0.51301 0.69911 0.0
C1187 C 0.46964 0.52709 0.68343 0.0
C1188 C 0.46834 0.54271 0.66572 0.0
H1189 H 0.57747 0.49281 0.64169 0.0
H1190 H 0.54652 0.5041 0.64272 0.0
C1191 C 0.44785 0.54481 0.66428 0.0
C1192 C 0.4912 0.52457 0.68471 0.0
H1193 H 0.55209 0.55609 0.69159 0.0
C1194 C 0.48837 0.50178 0.68076 0.0
C1195 C 0.51435 0.54431 0.68944 0.0
C1196 C 0.5183 0.56891 0.69557 0.0
C1197 C 0.50812 0.49828 0.68063 0.0
C1198 C 0.5314 0.51826 0.68383 0.0
C1199 C 0.53423 0.54093 0.68866 0.0
C1200 C 0.55287 0.51568 0.68201 0.0
C1201 C 0.50384 0.47315 0.67722 0.0
C1202 C 0.56773 0.52009 0.70325 0.0
C1203 C 0.58576 0.51402 0.70258 0.0
C1204 C 0.5889 0.50335 0.68071 0.0
C1205 C 0.57518 0.50072 0.6589 0.0
C1206 C 0.55745 0.50704 0.65949 0.0
H1207 H 0.48516 0.45943 0.68224 0.0
H1208 H 0.50683 0.47045 0.65698 0.0
H1209 H 0.51634 0.47013 0.68912 0.0
H1210 H 0.56455 0.52697 0.72073 0.0
H1211 H 0.59609 0.51621 0.71965 0.0
H1212 H 0.87513 0.46268 0.98167 0.0
H1213 H 0.91497 0.49864 0.98146 0.0
H1214 H 0.94043 0.46449 0.03348 0.0
H1215 H 0.90096 0.42843 0.03351 0.0
H1216 H 0.94378 0.5288 0.02171 0.0
H1217 H 0.9864 0.48341 0.97278 0.0
H1218 H 0.95431 0.47063 0.97436 0.0
H1219 H 0.97041 0.46813 1.00106 0.0
C1220 C 0.88922 0.46284 0.99306 0.0
C1221 C 0.88498 0.44263 1.0074 0.0
C1222 C 0.9119 0.48341 0.99298 0.0
C1223 C 0.93063 0.48402 1.00718 0.0
C1224 C 0.92627 0.46415 0.02205 0.0
H1225 H 0.06938 0.59683 0.05367 0.0
H1226 H 0.02598 0.5703 0.04965 0.0
C1227 C 0.90369 0.44359 0.02206 0.0
C1228 C 0.95501 0.50511 1.00599 0.0
H1229 H 0.01265 0.52132 0.99141 0.0
C1230 C 0.95887 0.52732 0.01486 0.0
C1231 C 0.9745 0.50314 0.99664 0.0
C1232 C 0.97122 0.48011 0.98543 0.0
C1233 C 0.982 0.54752 0.01542 0.0
C1234 C 0.00166 0.54519 1.00728 0.0
C1235 C -0.00241 0.52311 0.99774 0.0
C1236 C 0.02683 0.56495 1.00902 0.0
C1237 C 0.98513 0.5711 0.02458 0.0
C1238 C 0.04166 0.57105 0.98751 0.0
C1239 C 0.06638 0.58567 0.9899 0.0
C1240 C 0.0767 0.59472 0.0138 0.0
C1241 C 0.06178 0.59021 0.03501 0.0
C1242 C 0.03698 0.57516 0.03269 0.0
H1243 H 0.96837 0.57183 0.02223 0.0
H1244 H 0.98965 0.57317 0.04515 0.0
H1245 H -0.00017 0.58643 0.01421 0.0
H1246 H 0.03421 0.56342 0.96908 0.0
H1247 H 0.07754 0.58904 0.97323 0.0
H1248 H 0.07811 0.49804 0.39335 0.0
H1249 H 0.03491 0.48195 0.39586 0.0
H1250 H 0.02723 0.45699 0.31833 0.0
H1251 H 0.07046 0.47227 0.31607 0.0
H1252 H 0.01285 0.49877 0.36809 0.0
H1253 H 0.97012 0.40112 0.35083 0.0
H1254 H 0.00153 0.41941 0.35851 0.0
H1255 H 0.99124 0.41844 0.32644 0.0
C1256 C 0.06712 0.48862 0.37703 0.0
C1257 C 0.07757 0.4865 0.35445 0.0
C1258 C 0.04246 0.47942 0.3785 0.0
C1259 C 0.0278 0.46816 0.35734 0.0
C1260 C 0.03808 0.46511 0.33509 0.0
H1261 H 0.8994 0.47235 0.32322 0.0
H1262 H 0.93944 0.47719 0.32483 0.0
C1263 C 0.06279 0.47398 0.33375 0.0
C1264 C 0.00251 0.4625 0.35763 0.0
H1265 H 0.9449 0.4185 0.34606 0.0
C1266 C -0.00201 0.48112 0.36354 0.0
C1267 C 0.98312 0.43945 0.35188 0.0
C1268 C 0.9867 0.41841 0.34682 0.0
C1269 C 0.9747 0.4775 0.3634 0.0
C1270 C 0.95544 0.45481 0.35639 0.0
C1271 C 0.95979 0.43596 0.35108 0.0
C1272 C 0.93074 0.45054 0.35425 0.0
C1273 C 0.97095 0.49799 0.37101 0.0
C1274 C 0.91238 0.43329 0.36959 0.0
C1275 C 0.88936 0.43027 0.36853 0.0
C1276 C 0.88441 0.44451 0.35211 0.0
C1277 C 0.90271 0.46132 0.33629 0.0
C1278 C 0.92562 0.46416 0.33723 0.0
H1279 H 0.98602 0.5114 0.38282 0.0
H1280 H 0.96996 0.50725 0.35362 0.0
H1281 H 0.95401 0.49148 0.38184 0.0
H1282 H 0.916 0.42253 0.38276 0.0
H1283 H 0.87559 0.41711 0.38087 0.0
H1284 H 0.60315 0.08123 0.62863 0.0
H1285 H 0.57096 0.03917 0.62576 0.0
H1286 H 0.5611 0.03734 0.70708 0.0
H1287 H 0.59285 0.07917 0.71008 0.0
H1288 H 0.55911 0.99296 0.65449 0.0
H1289 H 0.49802 0.02903 0.67144 0.0
H1290 H 0.52865 0.04757 0.661 0.0
H1291 H 0.52223 0.03899 0.69387 0.0
C1292 C 0.59465 0.07157 0.64595 0.0
C1293 C 0.6002 0.08343 0.66954 0.0
C1294 C 0.57625 0.04764 0.64426 0.0
C1295 C 0.56351 0.03548 0.66617 0.0
C1296 C 0.57062 0.04663 0.68997 0.0
H1297 H 0.45677 0.89501 0.70951 0.0
H1298 H 0.49314 0.93299 0.70082 0.0
C1299 C 0.58875 0.07046 0.69164 0.0
C1300 C 0.54104 0.01233 0.66425 0.0
H1301 H 0.48113 0.98683 0.67573 0.0
C1302 C 0.54198 0.99154 0.6588 0.0
C1303 C 0.51875 0.01075 0.66935 0.0
C1304 C 0.51671 0.03278 0.67402 0.0
C1305 C 0.52116 0.96889 0.65967 0.0
C1306 C 0.49912 0.96719 0.66663 0.0
C1307 C 0.49808 0.98815 0.67069 0.0
C1308 C 0.47718 0.94391 0.67124 0.0
C1309 C 0.52299 0.94702 0.65335 0.0
C1310 C 0.45588 0.9379 0.65821 0.0
C1311 C 0.43491 0.91635 0.66343 0.0
C1312 C 0.43492 0.9005 0.68183 0.0
C1313 C 0.4562 0.90678 0.69513 0.0
C1314 C 0.47709 0.92835 0.68997 0.0
H1315 H 0.53854 0.95163 0.64072 0.0
H1316 H 0.52561 0.93938 0.67118 0.0
H1317 H 0.50643 0.93306 0.64391 0.0
H1318 H 0.45554 0.94985 0.6439 0.0
H1319 H 0.41882 0.91199 0.65281 0.0
H1320 H 0.4993 0.58277 0.0602 0.0
H1321 H 0.51462 0.55499 0.06201 0.0
H1322 H 0.52899 0.56409 0.9813 0.0
H1323 H 0.51442 0.59266 0.97961 0.0
H1324 H 0.49157 0.51358 0.03733 0.0
H1325 H 0.58676 0.56135 1.00704 0.0
H1326 H 0.57131 0.57693 0.01679 0.0
H1327 H 0.56734 0.56485 0.98515 0.0
C1328 C 0.50644 0.57941 0.043 0.0
C1329 C 0.50559 0.58969 0.01973 0.0
C1330 C 0.51516 0.56354 0.04405 0.0
C1331 C 0.52295 0.55746 0.02181 0.0
C1332 C 0.52351 0.56887 0.99879 0.0
H1333 H 0.50765 0.41848 0.99424 0.0
H1334 H 0.50465 0.4548 0.99462 0.0
C1335 C 0.51512 0.58512 0.99781 0.0
C1336 C 0.52695 0.53675 0.02219 0.0
H1337 H 0.56676 0.5184 1.00703 0.0
C1338 C 0.50813 0.51472 0.03093 0.0
C1339 C 0.54855 0.53828 0.01391 0.0
C1340 C 0.56973 0.56168 1.00542 0.0
C1341 C 0.51017 0.49411 0.03134 0.0
C1342 C 0.53138 0.49539 0.02214 0.0
C1343 C 0.55042 0.51747 0.01381 0.0
C1344 C 0.53397 0.47389 0.02105 0.0
C1345 C 0.48965 0.47119 0.0419 0.0
C1346 C 0.55185 0.47288 0.03529 0.0
C1347 C 0.55372 0.4522 0.03501 0.0
C1348 C 0.53774 0.43222 0.02041 0.0
C1349 C 0.52007 0.43346 1.00588 0.0
C1350 C 0.5183 0.45417 1.0061 0.0
H1351 H 0.47785 0.47473 0.05438 0.0
H1352 H 0.47861 0.45973 0.02591 0.0
H1353 H 0.49633 0.46103 0.05298 0.0
H1354 H 0.56414 0.48797 0.04689 0.0
H1355 H 0.56761 0.45185 0.04631 0.0
H1356 H 0.53752 0.21166 0.24733 0.0
H1357 H 0.52573 0.2256 0.21011 0.0
H1358 H 0.46085 0.21224 0.24811 0.0
H1359 H 0.47296 0.19859 0.28622 0.0
H1360 H 0.48733 0.20501 0.17821 0.0
H1361 H 0.49087 0.28271 0.22868 0.0
H1362 H 0.50231 0.26488 0.24276 0.0
H1363 H 0.47056 0.25343 0.24118 0.0
C1364 C 0.52066 0.21155 0.24792 0.0
C1365 C 0.50634 0.20427 0.26999 0.0
C1366 C 0.51387 0.21945 0.22645 0.0
C1367 C 0.49258 0.22037 0.22631 0.0
C1368 C 0.47761 0.21215 0.24789 0.0
H1369 H 0.47206 0.2729 0.07635 0.0
H1370 H 0.46046 0.24725 0.11452 0.0
C1371 C 0.48444 0.20418 0.2696 0.0
C1372 C 0.48722 0.23103 0.20377 0.0
H1373 H 0.4863 0.28126 0.18444 0.0
C1374 C 0.48662 0.22145 0.17956 0.0
C1375 C 0.48643 0.25256 0.20553 0.0
C1376 C 0.48772 0.26419 0.23086 0.0
C1377 C 0.48673 0.23347 0.15712 0.0
C1378 C 0.48694 0.25551 0.15888 0.0
C1379 C 0.48604 0.26433 0.18309 0.0
C1380 C 0.49193 0.27146 0.13633 0.0
C1381 C 0.48837 0.22333 0.1318 0.0
C1382 C 0.51289 0.29396 0.13618 0.0
C1383 C 0.51938 0.3086 0.11466 0.0
C1384 C 0.5051 0.30119 0.09258 0.0
C1385 C 0.48351 0.27908 0.09299 0.0
C1386 C 0.47697 0.26433 0.11473 0.0
H1387 H 0.49202 0.20829 0.13399 0.0
H1388 H 0.47115 0.2165 0.12146 0.0
H1389 H 0.50276 0.23745 0.1199 0.0
H1390 H 0.52473 0.29996 0.15253 0.0
H1391 H 0.53602 0.32559 0.11523 0.0
H1392 H 0.20633 0.47579 0.40741 0.0
H1393 H 0.2227 0.46725 0.44582 0.0
H1394 H 0.21727 0.52255 0.4863 0.0
H1395 H 0.20052 0.53064 0.44877 0.0
H1396 H 0.26311 0.49522 0.47128 0.0
H1397 H 0.18824 0.47009 0.53787 0.0
H1398 H 0.18495 0.47206 0.50397 0.0
H1399 H 0.19668 0.49851 0.52363 0.0
C1400 C 0.2083 0.48584 0.42464 0.0
C1401 C 0.202 0.50385 0.42492 0.0
C1402 C 0.2177 0.48098 0.44659 0.0
C1403 C 0.22079 0.49389 0.46927 0.0
C1404 C 0.21442 0.51177 0.46945 0.0
H1405 H 0.32533 0.54243 0.5847 0.0
H1406 H 0.30137 0.53194 0.54625 0.0
C1407 C 0.20502 0.51656 0.44772 0.0
C1408 C 0.23224 0.49021 0.49231 0.0
H1409 H 0.22765 0.48606 0.55724 0.0
C1410 C 0.25511 0.49273 0.49 0.0
C1411 C 0.22175 0.48637 0.51686 0.0
C1412 C 0.19644 0.48133 0.52068 0.0
C1413 C 0.26838 0.49329 0.51156 0.0
C1414 C 0.25884 0.49191 0.53624 0.0
C1415 C 0.23527 0.48758 0.53846 0.0
C1416 C 0.27376 0.49725 0.55976 0.0
C1417 C 0.29269 0.49573 0.5076 0.0
C1418 C 0.26606 0.48157 0.58082 0.0
C1419 C 0.27976 0.48772 0.60333 0.0
C1420 C 0.30131 0.50977 0.60525 0.0
C1421 C 0.30892 0.52524 0.58404 0.0
C1422 C 0.29529 0.51915 0.56177 0.0
H1423 H 0.29339 0.48747 0.48929 0.0
H1424 H 0.30647 0.51503 0.50675 0.0
H1425 H 0.29734 0.48722 0.52329 0.0
H1426 H 0.24938 0.46465 0.57989 0.0
H1427 H 0.2733 0.47544 0.6193 0.0
H1428 H 0.80439 0.28813 0.94389 0.0
H1429 H 0.7936 0.26385 0.90476 0.0
H1430 H 0.77045 0.30969 0.8704 0.0
H1431 H 0.78168 0.33409 0.90849 0.0
H1432 H 0.75097 0.23772 0.88263 0.0
H1433 H 0.80929 0.30626 0.81334 0.0
H1434 H 0.81364 0.31108 0.84724 0.0
H1435 H 0.79254 0.31691 0.83066 0.0
C1436 C 0.79739 0.29322 0.92779 0.0
C1437 C 0.794 0.31313 0.92939 0.0
C1438 C 0.79118 0.27931 0.90545 0.0
C1439 C 0.78167 0.28519 0.8843 0.0
C1440 C 0.77845 0.30513 0.88599 0.0
H1441 H 0.67545 0.20293 0.77709 0.0
H1442 H 0.70076 0.22109 0.814 0.0
C1443 C 0.78469 0.31898 0.90806 0.0
C1444 C 0.77323 0.26979 0.86106 0.0
H1445 H 0.77208 0.27337 0.79619 0.0
C1446 C 0.756 0.24541 0.86372 0.0
C1447 C 0.78011 0.27947 0.83622 0.0
C1448 C 0.80013 0.3048 0.83173 0.0
C1449 C 0.74417 0.23108 0.84243 0.0
C1450 C 0.74916 0.24153 0.8178 0.0
C1451 C 0.76777 0.26535 0.815 0.0
C1452 C 0.73383 0.22894 0.79526 0.0
C1453 C 0.72616 0.20494 0.84669 0.0
C1454 C 0.74389 0.22777 0.77187 0.0
C1455 C 0.72933 0.21764 0.75029 0.0
C1456 C 0.70445 0.20861 0.75169 0.0
C1457 C 0.69449 0.20955 0.77521 0.0
C1458 C 0.70898 0.21975 0.79657 0.0
H1459 H 0.73122 0.19782 0.86339 0.0
H1460 H 0.70837 0.20298 0.85078 0.0
H1461 H 0.72455 0.19391 0.82978 0.0
H1462 H 0.76304 0.23494 0.77023 0.0
H1463 H 0.7376 0.2173 0.73247 0.0
H1464 H 0.50757 0.72229 0.07813 0.0
H1465 H 0.51596 0.74725 0.11637 0.0
H1466 H 0.45904 0.68716 0.15619 0.0
H1467 H 0.45117 0.66217 0.11879 0.0
H1468 H 0.4893 0.76107 0.1409 0.0
H1469 H 0.51009 0.70884 0.20879 0.0
H1470 H 0.50824 0.70336 0.17495 0.0
H1471 H 0.48153 0.68987 0.19432 0.0
C1472 C 0.49709 0.71435 0.09517 0.0
C1473 C 0.47879 0.69015 0.09534 0.0
C1474 C 0.50188 0.72864 0.11704 0.0
C1475 C 0.48851 0.71902 0.1395 0.0
C1476 C 0.47019 0.69491 0.13953 0.0
H1477 H 0.44749 0.78422 0.2542 0.0
H1478 H 0.45502 0.7677 0.21611 0.0
C1479 C 0.46555 0.68064 0.1179 0.0
C1480 C 0.49238 0.73428 0.16245 0.0
H1481 H 0.49622 0.73421 0.22742 0.0
C1482 C 0.49123 0.75538 0.15976 0.0
C1483 C 0.49552 0.72737 0.18716 0.0
C1484 C 0.4992 0.70627 0.19143 0.0
C1485 C 0.49159 0.7688 0.18106 0.0
C1486 C 0.49239 0.76058 0.2059 0.0
C1487 C 0.49512 0.74037 0.20851 0.0
C1488 C 0.48861 0.77155 0.22925 0.0
C1489 C 0.49096 0.79163 0.17662 0.0
C1490 C 0.50452 0.77857 0.25004 0.0
C1491 C 0.50002 0.78776 0.27235 0.0
C1492 C 0.47945 0.79002 0.2743 0.0
C1493 C 0.46364 0.78297 0.25343 0.0
C1494 C 0.46804 0.77369 0.23138 0.0
H1495 H 0.49945 0.79997 0.15814 0.0
H1496 H 0.47203 0.78741 0.17583 0.0
H1497 H 0.50028 0.80487 0.19204 0.0
H1498 H 0.52041 0.77689 0.24905 0.0
H1499 H 0.51251 0.7929 0.28807 0.0
H1500 H 0.72827 0.51473 0.62515 0.0
H1501 H 0.75375 0.52417 0.58716 0.0
H1502 H 0.69483 0.46693 0.54637 0.0
H1503 H 0.66935 0.45795 0.58355 0.0
H1504 H 0.76837 0.49781 0.56279 0.0
H1505 H 0.71675 0.51873 0.49428 0.0
H1506 H 0.71092 0.51671 0.52806 0.0
H1507 H 0.69759 0.4901 0.50856 0.0
C1508 C 0.72069 0.50442 0.60794 0.0
C1509 C 0.69671 0.48563 0.60745 0.0
C1510 C 0.73528 0.50981 0.58623 0.0
C1511 C 0.72613 0.49663 0.5636 0.0
C1512 C 0.7022 0.47793 0.5632 0.0
H1513 H 0.78511 0.44934 0.45179 0.0
H1514 H 0.77206 0.46081 0.48982 0.0
C1515 C 0.68765 0.47263 0.5847 0.0
C1516 C 0.74175 0.5009 0.54091 0.0
H1517 H 0.74177 0.50407 0.47592 0.0
C1518 C 0.76279 0.49969 0.54386 0.0
C1519 C 0.735 0.50401 0.51612 0.0
C1520 C 0.71397 0.50774 0.51162 0.0
C1521 C 0.77611 0.49961 0.52268 0.0
C1522 C 0.76787 0.5001 0.49778 0.0
C1523 C 0.74794 0.50324 0.4949 0.0
C1524 C 0.77787 0.4946 0.47478 0.0
C1525 C 0.79865 0.49851 0.52727 0.0
C1526 C 0.78515 0.5095 0.45311 0.0
C1527 C 0.79248 0.50278 0.43085 0.0
C1528 C 0.79236 0.4809 0.42985 0.0
C1529 C 0.78549 0.46635 0.45176 0.0
C1530 C 0.77821 0.47301 0.47377 0.0
H1531 H 0.80737 0.50757 0.54539 0.0
H1532 H 0.79399 0.47948 0.52894 0.0
H1533 H 0.81173 0.50698 0.51151 0.0
H1534 H 0.78483 0.52615 0.45329 0.0
H1535 H 0.79751 0.51432 0.41428 0.0
H1536 H 0.22149 0.72793 0.96361 0.0
H1537 H 0.24029 0.75266 0.92567 0.0
H1538 H 0.20867 0.68907 0.87902 0.0
H1539 H 0.19045 0.66442 0.91662 0.0
H1540 H 0.25527 0.71537 0.87016 0.0
H1541 H 0.21585 0.77456 0.86623 0.0
H1542 H 0.22968 0.77541 0.89619 0.0
H1543 H 0.20367 0.74813 0.88606 0.0
C1544 C 0.21825 0.7193 0.94519 0.0
C1545 C 0.20458 0.69417 0.94322 0.0
C1546 C 0.22891 0.73348 0.92345 0.0
C1547 C 0.22579 0.72281 0.8993 0.0
C1548 C 0.21142 0.6978 0.89733 0.0
H1549 H 0.27424 0.78807 0.74773 0.0
H1550 H 0.2496 0.76911 0.78586 0.0
C1551 C 0.201 0.68369 0.91894 0.0
C1552 C 0.23901 0.73712 0.87637 0.0
H1553 H 0.24882 0.78445 0.83835 0.0
C1554 C 0.25371 0.73039 0.86322 0.0
C1555 C 0.23688 0.75661 0.86699 0.0
C1556 C 0.22049 0.76401 0.87942 0.0
C1557 C 0.26651 0.74267 0.84134 0.0
C1558 C 0.2651 0.7627 0.83247 0.0
C1559 C 0.25008 0.76925 0.84526 0.0
C1560 C 0.27973 0.77716 0.81035 0.0
C1561 C 0.28129 0.73388 0.82772 0.0
C1562 C 0.30482 0.78885 0.8117 0.0
C1563 C 0.3188 0.79947 0.79009 0.0
C1564 C 0.30809 0.79898 0.76657 0.0
C1565 C 0.28302 0.7888 0.76557 0.0
C1566 C 0.26894 0.77792 0.78732 0.0
H1567 H 0.27546 0.71497 0.83266 0.0
H1568 H 0.28014 0.73527 0.80675 0.0
H1569 H 0.30035 0.74508 0.83341 0.0
H1570 H 0.3136 0.78893 0.82932 0.0
H1571 H 0.33807 0.80741 0.79163 0.0
loop_
_geom_bond_atom_site_label_1
_geom_bond_atom_site_label_2
_geom_bond_distance
_geom_bond_site_symmetry_2
_ccdc_geom_bond_type
Co0 O2 2.143 . S
Co0 O8 2.074 . S
Co0 O11 2.093 . S
Co0 O24 2.097 . S
Co0 N41 2.151 . S
Co0 N49 2.214 . S
Co1 O2 2.160 . S
Co1 O7 2.058 . S
Co1 O17 2.057 . S
Co1 O32 2.037 . S
Co1 N36 2.145 . S
Co1 N57 2.257 . S
O2 Co0 2.143 . S
O2 Co1 2.160 . S
C3 O4 1.278 . S
C3 O11 1.224 . S
O4 C3 1.278 . S
C5 O6 1.245 . S
C5 O17 1.232 . S
O6 C5 1.245 . S
O7 Co1 2.058 . S
O7 C33 1.269 . S
O8 Co0 2.074 . S
O8 C33 1.257 . S
H9 C34 0.930 . S
H10 C40 0.930 . S
O11 Co0 2.093 . S
O11 C3 1.224 . S
H12 C44 0.929 . S
H13 C46 0.930 . S
H14 C47 0.930 . S
H15 C45 0.929 . S
H16 C48 0.928 . S
O17 Co1 2.057 . S
O17 C5 1.232 . S
H18 C37 0.929 . S
H19 C38 0.929 . S
H20 C50 0.931 . S
H21 C42 0.929 . S
H22 C51 0.930 . S
H23 C43 0.931 . S
O24 Co0 2.097 . S
O24 C52 1.214 . S
H25 C53 0.929 . S
H26 C54 0.929 . S
H27 C55 0.930 . S
H28 C56 0.929 . S
H29 C58 0.930 . S
H30 C35 0.930 . S
H31 C39 0.930 . S
O32 Co1 2.037 . S
O32 C52 1.234 . S
C33 O7 1.269 . S
C33 O8 1.257 . S
C34 H9 0.930 . S
C34 C37 1.388 . S
C34 C39 1.418 . S
C35 H30 0.930 . S
C35 C38 1.404 . S
C35 C39 1.353 . S
N36 Co1 2.145 . S
N36 C37 1.397 . S
N36 C38 1.334 . S
C37 H18 0.929 . S
C37 C34 1.388 . S
C37 N36 1.397 . S
C38 H19 0.929 . S
C38 C35 1.404 . S
C38 N36 1.334 . S
C39 H31 0.930 . S
C39 C34 1.418 . S
C39 C35 1.353 . S
C40 H10 0.930 . S
C40 N41 1.330 . S
C40 C42 1.446 . S
N41 Co0 2.151 . S
N41 C40 1.330 . S
N41 C45 1.418 . S
C42 H21 0.929 . S
C42 C40 1.446 . S
C42 C43 1.332 . S
C43 H23 0.931 . S
C43 C42 1.332 . S
C43 C44 1.267 . S
C44 H12 0.929 . S
C44 C43 1.267 . S
C44 C45 1.251 . S
C45 H15 0.929 . S
C45 N41 1.418 . S
C45 C44 1.251 . S
C46 H13 0.930 . S
C46 C48 1.406 . S
C46 C51 1.261 . S
C47 H14 0.930 . S
C47 N49 1.325 . S
C47 C50 1.357 . S
C48 H16 0.928 . S
C48 C46 1.406 . S
C48 N49 1.261 . S
N49 Co0 2.214 . S
N49 C47 1.325 . S
N49 C48 1.261 . S
C50 H20 0.931 . S
C50 C47 1.357 . S
C50 C51 1.312 . S
C51 H22 0.930 . S
C51 C46 1.261 . S
C51 C50 1.312 . S
C52 O24 1.214 . S
C52 O32 1.234 . S
C53 H25 0.929 . S
C53 C56 1.391 . S
C53 C58 1.391 . S
C54 H26 0.929 . S
C54 C55 1.390 . S
C54 N57 1.391 . S
C55 H27 0.930 . S
C55 C54 1.390 . S
C55 C56 1.392 . S
C56 H28 0.929 . S
C56 C53 1.391 . S
C56 C55 1.392 . S
N57 Co1 2.257 . S
N57 C54 1.391 . S
N57 C58 1.388 . S
C58 H29 0.930 . S
C58 C53 1.391 . S
C58 N57 1.388 . S
Co59 O61 2.143 . S
Co59 O67 2.074 . S
Co59 O70 2.093 . S
Co59 O83 2.097 . S
Co59 N100 2.151 . S
Co59 N108 2.214 . S
Co60 O61 2.160 . S
Co60 O66 2.058 . S
Co60 O76 2.057 . S
Co60 O91 2.037 . S
Co60 N95 2.145 . S
Co60 N116 2.257 . S
O61 Co59 2.143 . S
O61 Co60 2.160 . S
C62 O63 1.278 . S
C62 O70 1.224 . S
O63 C62 1.278 . S
C64 O65 1.245 . S
C64 O76 1.232 . S
O65 C64 1.245 . S
O66 Co60 2.058 . S
O66 C92 1.269 . S
O67 Co59 2.074 . S
O67 C92 1.257 . S
H68 C93 0.930 . S
H69 C99 0.930 . S
O70 Co59 2.093 . S
O70 C62 1.224 . S
H71 C103 0.929 . S
H72 C105 0.930 . S
H73 C106 0.930 . S
H74 C104 0.929 . S
H75 C107 0.928 . S
O76 Co60 2.057 . S
O76 C64 1.232 . S
H77 C96 0.929 . S
H78 C97 0.929 . S
H79 C109 0.931 . S
H80 C101 0.929 . S
H81 C110 0.930 . S
H82 C102 0.931 . S
O83 Co59 2.097 . S
O83 C111 1.214 . S
H84 C112 0.929 . S
H85 C113 0.929 . S
H86 C114 0.930 . S
H87 C115 0.929 . S
H88 C117 0.930 . S
H89 C94 0.930 . S
H90 C98 0.930 . S
O91 Co60 2.037 . S
O91 C111 1.234 . S
C92 O66 1.269 . S
C92 O67 1.257 . S
C93 H68 0.930 . S
C93 C96 1.388 . S
C93 C98 1.418 . S
C94 H89 0.930 . S
C94 C97 1.404 . S
C94 C98 1.353 . S
N95 Co60 2.145 . S
N95 C96 1.397 . S
N95 C97 1.334 . S
C96 H77 0.929 . S
C96 C93 1.388 . S
C96 N95 1.397 . S
C97 H78 0.929 . S
C97 C94 1.404 . S
C97 N95 1.334 . S
C98 H90 0.930 . S
C98 C93 1.418 . S
C98 C94 1.353 . S
C99 H69 0.930 . S
C99 N100 1.330 . S
C99 C101 1.446 . S
N100 Co59 2.151 . S
N100 C99 1.330 . S
N100 C104 1.418 . S
C101 H80 0.929 . S
C101 C99 1.446 . S
C101 C102 1.332 . S
C102 H82 0.931 . S
C102 C101 1.332 . S
C102 C103 1.267 . S
C103 H71 0.929 . S
C103 C102 1.267 . S
C103 C104 1.251 . S
C104 H74 0.929 . S
C104 N100 1.418 . S
C104 C103 1.251 . S
C105 H72 0.930 . S
C105 C107 1.406 . S
C105 C110 1.261 . S
C106 H73 0.930 . S
C106 N108 1.325 . S
C106 C109 1.357 . S
C107 H75 0.928 . S
C107 C105 1.406 . S
C107 N108 1.261 . S
N108 Co59 2.214 . S
N108 C106 1.325 . S
N108 C107 1.261 . S
C109 H79 0.931 . S
C109 C106 1.357 . S
C109 C110 1.312 . S
C110 H81 0.930 . S
C110 C105 1.261 . S
C110 C109 1.312 . S
C111 O83 1.214 . S
C111 O91 1.234 . S
C112 H84 0.929 . S
C112 C115 1.391 . S
C112 C117 1.391 . S
C113 H85 0.929 . S
C113 C114 1.390 . S
C113 N116 1.391 . S
C114 H86 0.930 . S
C114 C113 1.390 . S
C114 C115 1.392 . S
C115 H87 0.929 . S
C115 C112 1.391 . S
C115 C114 1.392 . S
N116 Co60 2.257 . S
N116 C113 1.391 . S
N116 C117 1.388 . S
C117 H88 0.930 . S
C117 C112 1.391 . S
C117 N116 1.388 . S
Co118 O120 2.143 . S
Co118 O126 2.074 1_556 S
Co118 O129 2.093 . S
Co118 O142 2.097 . S
Co118 N159 2.151 1_556 S
Co118 N167 2.214 1_556 S
Co119 O120 2.176 . S
Co119 O125 2.020 1_556 S
Co119 O135 2.067 . S
Co119 O150 2.035 1_556 S
Co119 N154 2.132 1_556 S
Co119 N175 2.296 . S
O120 Co118 2.143 . S
O120 Co119 2.176 . S
C121 O122 1.278 . S
C121 O129 1.224 . S
O122 C121 1.278 . S
C123 O124 1.245 . S
C123 O135 1.232 . S
O124 C123 1.245 . S
O125 Co119 2.020 1_554 S
O125 C151 1.269 . S
O126 Co118 2.074 1_554 S
O126 C151 1.257 . S
H127 C152 0.930 . S
H128 C158 0.930 . S
O129 Co118 2.093 . S
O129 C121 1.224 . S
H130 C162 0.929 . S
H131 C164 0.930 . S
H132 C165 0.930 . S
H133 C163 0.929 . S
H134 C166 0.904 1_556 S
O135 Co119 2.067 . S
O135 C123 1.232 . S
H136 C155 0.929 . S
H137 C156 0.929 1_556 S
H138 C168 0.931 . S
H139 C160 0.929 . S
H140 C169 0.930 . S
H141 C161 0.931 . S
O142 Co118 2.097 . S
O142 C170 1.214 . S
H143 C171 0.929 . S
H144 C172 0.929 . S
H145 C173 0.930 . S
H146 C174 0.929 . S
H147 C176 0.930 . S
H148 C153 0.930 . S
H149 C157 0.930 . S
O150 Co119 2.035 1_554 S
O150 C170 1.228 1_554 S
C151 O125 1.269 . S
C151 O126 1.257 . S
C152 H127 0.930 . S
C152 C155 1.388 . S
C152 C157 1.418 . S
C153 H148 0.930 . S
C153 C156 1.404 . S
C153 C157 1.353 . S
N154 Co119 2.132 1_554 S
N154 C155 1.397 . S
N154 C156 1.334 . S
C155 H136 0.929 . S
C155 C152 1.388 . S
C155 N154 1.397 . S
C156 H137 0.929 1_554 S
C156 C153 1.404 . S
C156 N154 1.334 . S
C157 H149 0.930 . S
C157 C152 1.418 . S
C157 C153 1.353 . S
C158 H128 0.930 . S
C158 N159 1.330 1_556 S
C158 C160 1.446 . S
N159 Co118 2.151 1_554 S
N159 C158 1.330 1_554 S
N159 C163 1.418 . S
C160 H139 0.929 . S
C160 C158 1.446 . S
C160 C161 1.332 1_556 S
C161 H141 0.931 . S
C161 C160 1.332 1_554 S
C161 C162 1.267 . S
C162 H130 0.929 . S
C162 C161 1.267 . S
C162 C163 1.251 . S
C163 H133 0.929 . S
C163 N159 1.418 . S
C163 C162 1.251 . S
C164 H131 0.930 . S
C164 C166 1.406 . S
C164 C169 1.261 . S
C165 H132 0.930 . S
C165 N167 1.325 . S
C165 C168 1.357 . S
C166 H134 0.904 1_554 S
C166 C164 1.406 . S
C166 N167 1.261 . S
N167 Co118 2.214 1_554 S
N167 C165 1.325 . S
N167 C166 1.261 . S
C168 H138 0.931 . S
C168 C165 1.357 . S
C168 C169 1.312 . S
C169 H140 0.930 . S
C169 C164 1.261 . S
C169 C168 1.312 . S
C170 O142 1.214 . S
C170 O150 1.228 1_556 S
C171 H143 0.929 . S
C171 C174 1.391 . S
C171 C176 1.391 . S
C172 H144 0.929 . S
C172 C173 1.390 . S
C172 N175 1.391 . S
C173 H145 0.930 . S
C173 C172 1.390 . S
C173 C174 1.392 . S
C174 H146 0.929 . S
C174 C171 1.391 . S
C174 C173 1.392 . S
N175 Co119 2.296 . S
N175 C172 1.391 . S
N175 C176 1.388 . S
C176 H147 0.930 . S
C176 C171 1.391 . S
C176 N175 1.388 . S
Co177 O179 2.143 . S
Co177 O185 2.074 . S
Co177 O188 2.093 . S
Co177 O201 2.097 . S
Co177 N218 2.151 . S
Co177 N226 2.214 . S
Co178 O179 2.160 . S
Co178 O184 2.058 . S
Co178 O194 2.057 . S
Co178 O209 2.037 . S
Co178 N213 2.145 . S
Co178 N234 2.257 . S
O179 Co177 2.143 . S
O179 Co178 2.160 . S
C180 O181 1.278 . S
C180 O188 1.224 . S
O181 C180 1.278 . S
C182 O183 1.245 . S
C182 O194 1.232 . S
O183 C182 1.245 . S
O184 Co178 2.058 . S
O184 C210 1.269 . S
O185 Co177 2.074 . S
O185 C210 1.257 . S
H186 C211 0.930 . S
H187 C217 0.930 . S
O188 Co177 2.093 . S
O188 C180 1.224 . S
H189 C221 0.929 . S
H190 C223 0.930 . S
H191 C224 0.930 . S
H192 C222 0.929 . S
H193 C225 0.928 . S
O194 Co178 2.057 . S
O194 C182 1.232 . S
H195 C214 0.929 . S
H196 C215 0.929 . S
H197 C227 0.931 . S
H198 C219 0.929 . S
H199 C228 0.930 . S
H200 C220 0.931 . S
O201 Co177 2.097 . S
O201 C229 1.214 . S
H202 C230 0.929 . S
H203 C231 0.929 . S
H204 C232 0.930 . S
H205 C233 0.929 . S
H206 C235 0.930 . S
H207 C212 0.930 . S
H208 C216 0.930 . S
O209 Co178 2.037 . S
O209 C229 1.234 . S
C210 O184 1.269 . S
C210 O185 1.257 . S
C211 H186 0.930 . S
C211 C214 1.388 . S
C211 C216 1.418 . S
C212 H207 0.930 . S
C212 C215 1.404 . S
C212 C216 1.353 . S
N213 Co178 2.145 . S
N213 C214 1.397 . S
N213 C215 1.334 . S
C214 H195 0.929 . S
C214 C211 1.388 . S
C214 N213 1.397 . S
C215 H196 0.929 . S
C215 C212 1.404 . S
C215 N213 1.334 . S
C216 H208 0.930 . S
C216 C211 1.418 . S
C216 C212 1.353 . S
C217 H187 0.930 . S
C217 N218 1.330 . S
C217 C219 1.446 . S
N218 Co177 2.151 . S
N218 C217 1.330 . S
N218 C222 1.418 . S
C219 H198 0.929 . S
C219 C217 1.446 . S
C219 C220 1.332 . S
C220 H200 0.931 . S
C220 C219 1.332 . S
C220 C221 1.267 . S
C221 H189 0.929 . S
C221 C220 1.267 . S
C221 C222 1.251 . S
C222 H192 0.929 . S
C222 N218 1.418 . S
C222 C221 1.251 . S
C223 H190 0.930 . S
C223 C225 1.406 . S
C223 C228 1.261 . S
C224 H191 0.930 . S
C224 N226 1.325 . S
C224 C227 1.357 . S
C225 H193 0.928 . S
C225 C223 1.406 . S
C225 N226 1.261 . S
N226 Co177 2.214 . S
N226 C224 1.325 . S
N226 C225 1.261 . S
C227 H197 0.931 . S
C227 C224 1.357 . S
C227 C228 1.312 . S
C228 H199 0.930 . S
C228 C223 1.261 . S
C228 C227 1.312 . S
C229 O201 1.214 . S
C229 O209 1.234 . S
C230 H202 0.929 . S
C230 C233 1.391 . S
C230 C235 1.391 . S
C231 H203 0.929 . S
C231 C232 1.390 . S
C231 N234 1.391 . S
C232 H204 0.930 . S
C232 C231 1.390 . S
C232 C233 1.392 . S
C233 H205 0.929 . S
C233 C230 1.391 . S
C233 C232 1.392 . S
N234 Co178 2.257 . S
N234 C231 1.391 . S
N234 C235 1.388 . S
C235 H206 0.930 . S
C235 C230 1.391 . S
C235 N234 1.388 . S
Co236 O238 2.143 . S
Co236 O244 2.074 . S
Co236 O247 2.093 . S
Co236 O260 2.097 . S
Co236 N277 2.151 . S
Co236 N285 2.214 . S
Co237 O238 2.160 . S
Co237 O243 2.058 . S
Co237 O253 2.057 . S
Co237 O268 2.037 . S
Co237 N272 2.145 . S
Co237 N293 2.257 . S
O238 Co236 2.143 . S
O238 Co237 2.160 . S
C239 O240 1.278 . S
C239 O247 1.224 . S
O240 C239 1.278 . S
C241 O242 1.245 . S
C241 O253 1.232 . S
O242 C241 1.245 . S
O243 Co237 2.058 . S
O243 C269 1.269 . S
O244 Co236 2.074 . S
O244 C269 1.257 . S
H245 C270 0.930 . S
H246 C276 0.930 . S
O247 Co236 2.093 . S
O247 C239 1.224 . S
H248 C280 0.929 . S
H249 C282 0.930 . S
H250 C283 0.930 . S
H251 C281 0.929 . S
H252 C284 0.928 . S
O253 Co237 2.057 . S
O253 C241 1.232 . S
H254 C273 0.929 . S
H255 C274 0.929 . S
H256 C286 0.931 . S
H257 C278 0.929 . S
H258 C287 0.930 . S
H259 C279 0.931 . S
O260 Co236 2.097 . S
O260 C288 1.214 . S
H261 C289 0.929 . S
H262 C290 0.929 . S
H263 C291 0.930 . S
H264 C292 0.929 . S
H265 C294 0.930 . S
H266 C271 0.930 . S
H267 C275 0.930 . S
O268 Co237 2.037 . S
O268 C288 1.234 . S
C269 O243 1.269 . S
C269 O244 1.257 . S
C270 H245 0.930 . S
C270 C273 1.388 . S
C270 C275 1.418 . S
C271 H266 0.930 . S
C271 C274 1.404 . S
C271 C275 1.353 . S
N272 Co237 2.145 . S
N272 C273 1.397 . S
N272 C274 1.334 . S
C273 H254 0.929 . S
C273 C270 1.388 . S
C273 N272 1.397 . S
C274 H255 0.929 . S
C274 C271 1.404 . S
C274 N272 1.334 . S
C275 H267 0.930 . S
C275 C270 1.418 . S
C275 C271 1.353 . S
C276 H246 0.930 . S
C276 N277 1.330 . S
C276 C278 1.446 . S
N277 Co236 2.151 . S
N277 C276 1.330 . S
N277 C281 1.418 . S
C278 H257 0.929 . S
C278 C276 1.446 . S
C278 C279 1.332 . S
C279 H259 0.931 . S
C279 C278 1.332 . S
C279 C280 1.267 . S
C280 H248 0.929 . S
C280 C279 1.267 . S
C280 C281 1.251 . S
C281 H251 0.929 . S
C281 N277 1.418 . S
C281 C280 1.251 . S
C282 H249 0.930 . S
C282 C284 1.406 . S
C282 C287 1.261 . S
C283 H250 0.930 . S
C283 N285 1.325 . S
C283 C286 1.357 . S
C284 H252 0.928 . S
C284 C282 1.406 . S
C284 N285 1.261 . S
N285 Co236 2.214 . S
N285 C283 1.325 . S
N285 C284 1.261 . S
C286 H256 0.931 . S
C286 C283 1.357 . S
C286 C287 1.312 . S
C287 H258 0.930 . S
C287 C282 1.261 . S
C287 C286 1.312 . S
C288 O260 1.214 . S
C288 O268 1.234 . S
C289 H261 0.929 . S
C289 C292 1.391 . S
C289 C294 1.391 . S
C290 H262 0.929 . S
C290 C291 1.390 . S
C290 N293 1.391 . S
C291 H263 0.930 . S
C291 C290 1.390 . S
C291 C292 1.392 . S
C292 H264 0.929 . S
C292 C289 1.391 . S
C292 C291 1.392 . S
N293 Co237 2.257 . S
N293 C290 1.391 . S
N293 C294 1.388 . S
C294 H265 0.930 . S
C294 C289 1.391 . S
C294 N293 1.388 . S
Co295 O297 2.143 . S
Co295 O303 2.074 1_556 S
Co295 O306 2.093 . S
Co295 O319 2.097 . S
Co295 N336 2.151 1_556 S
Co295 N344 2.214 1_556 S
Co296 O297 2.176 . S
Co296 O302 2.020 1_556 S
Co296 O312 2.067 . S
Co296 O327 2.035 1_556 S
Co296 N331 2.132 1_556 S
Co296 N352 2.296 . S
O297 Co295 2.143 . S
O297 Co296 2.176 . S
C298 O299 1.278 . S
C298 O306 1.224 . S
O299 C298 1.278 . S
C300 O301 1.245 . S
C300 O312 1.232 . S
O301 C300 1.245 . S
O302 Co296 2.020 1_554 S
O302 C328 1.269 . S
O303 Co295 2.074 1_554 S
O303 C328 1.257 . S
H304 C329 0.930 . S
H305 C335 0.930 . S
O306 Co295 2.093 . S
O306 C298 1.224 . S
H307 C339 0.929 . S
H308 C341 0.930 . S
H309 C342 0.930 . S
H310 C340 0.929 . S
H311 C343 0.904 1_556 S
O312 Co296 2.067 . S
O312 C300 1.232 . S
H313 C332 0.929 . S
H314 C333 0.929 1_556 S
H315 C345 0.931 . S
H316 C337 0.929 . S
H317 C346 0.930 . S
H318 C338 0.931 . S
O319 Co295 2.097 . S
O319 C347 1.214 . S
H320 C348 0.929 . S
H321 C349 0.929 . S
H322 C350 0.930 . S
H323 C351 0.929 . S
H324 C353 0.930 . S
H325 C330 0.930 . S
H326 C334 0.930 . S
O327 Co296 2.035 1_554 S
O327 C347 1.228 1_554 S
C328 O302 1.269 . S
C328 O303 1.257 . S
C329 H304 0.930 . S
C329 C332 1.388 . S
C329 C334 1.418 . S
C330 H325 0.930 . S
C330 C333 1.404 . S
C330 C334 1.353 . S
N331 Co296 2.132 1_554 S
N331 C332 1.397 . S
N331 C333 1.334 . S
C332 H313 0.929 . S
C332 C329 1.388 . S
C332 N331 1.397 . S
C333 H314 0.929 1_554 S
C333 C330 1.404 . S
C333 N331 1.334 . S
C334 H326 0.930 . S
C334 C329 1.418 . S
C334 C330 1.353 . S
C335 H305 0.930 . S
C335 N336 1.330 1_556 S
C335 C337 1.446 . S
N336 Co295 2.151 1_554 S
N336 C335 1.330 1_554 S
N336 C340 1.418 . S
C337 H316 0.929 . S
C337 C335 1.446 . S
C337 C338 1.332 1_556 S
C338 H318 0.931 . S
C338 C337 1.332 1_554 S
C338 C339 1.267 . S
C339 H307 0.929 . S
C339 C338 1.267 . S
C339 C340 1.251 . S
C340 H310 0.929 . S
C340 N336 1.418 . S
C340 C339 1.251 . S
C341 H308 0.930 . S
C341 C343 1.406 . S
C341 C346 1.261 . S
C342 H309 0.930 . S
C342 N344 1.325 . S
C342 C345 1.357 . S
C343 H311 0.904 1_554 S
C343 C341 1.406 . S
C343 N344 1.261 . S
N344 Co295 2.214 1_554 S
N344 C342 1.325 . S
N344 C343 1.261 . S
C345 H315 0.931 . S
C345 C342 1.357 . S
C345 C346 1.312 . S
C346 H317 0.930 . S
C346 C341 1.261 . S
C346 C345 1.312 . S
C347 O319 1.214 . S
C347 O327 1.228 1_556 S
C348 H320 0.929 . S
C348 C351 1.391 . S
C348 C353 1.391 . S
C349 H321 0.929 . S
C349 C350 1.390 . S
C349 N352 1.391 . S
C350 H322 0.930 . S
C350 C349 1.390 . S
C350 C351 1.392 . S
C351 H323 0.929 . S
C351 C348 1.391 . S
C351 C350 1.392 . S
N352 Co296 2.296 . S
N352 C349 1.391 . S
N352 C353 1.388 . S
C353 H324 0.930 . S
C353 C348 1.391 . S
C353 N352 1.388 . S
Co354 O356 2.143 . S
Co354 O362 2.074 . S
Co354 O365 2.093 . S
Co354 O378 2.097 . S
Co354 N395 2.151 . S
Co354 N403 2.214 . S
Co355 O356 2.160 . S
Co355 O361 2.058 . S
Co355 O371 2.057 . S
Co355 O386 2.037 . S
Co355 N390 2.145 . S
Co355 N411 2.257 . S
O356 Co354 2.143 . S
O356 Co355 2.160 . S
C357 O358 1.278 . S
C357 O365 1.224 . S
O358 C357 1.278 . S
C359 O360 1.245 . S
C359 O371 1.232 . S
O360 C359 1.245 . S
O361 Co355 2.058 . S
O361 C387 1.269 . S
O362 Co354 2.074 . S
O362 C387 1.257 . S
H363 C388 0.930 . S
H364 C394 0.930 . S
O365 Co354 2.093 . S
O365 C357 1.224 . S
H366 C398 0.929 . S
H367 C400 0.930 . S
H368 C401 0.930 . S
H369 C399 0.929 . S
H370 C402 0.928 . S
O371 Co355 2.057 . S
O371 C359 1.232 . S
H372 C391 0.929 . S
H373 C392 0.929 . S
H374 C404 0.931 . S
H375 C396 0.929 . S
H376 C405 0.930 . S
H377 C397 0.931 . S
O378 Co354 2.097 . S
O378 C406 1.214 . S
H379 C407 0.929 . S
H380 C408 0.929 . S
H381 C409 0.930 . S
H382 C410 0.929 . S
H383 C412 0.930 . S
H384 C389 0.930 . S
H385 C393 0.930 . S
O386 Co355 2.037 . S
O386 C406 1.234 . S
C387 O361 1.269 . S
C387 O362 1.257 . S
C388 H363 0.930 . S
C388 C391 1.388 . S
C388 C393 1.418 . S
C389 H384 0.930 . S
C389 C392 1.404 . S
C389 C393 1.353 . S
N390 Co355 2.145 . S
N390 C391 1.397 . S
N390 C392 1.334 . S
C391 H372 0.929 . S
C391 C388 1.388 . S
C391 N390 1.397 . S
C392 H373 0.929 . S
C392 C389 1.404 . S
C392 N390 1.334 . S
C393 H385 0.930 . S
C393 C388 1.418 . S
C393 C389 1.353 . S
C394 H364 0.930 . S
C394 N395 1.330 . S
C394 C396 1.446 . S
N395 Co354 2.151 . S
N395 C394 1.330 . S
N395 C399 1.418 . S
C396 H375 0.929 . S
C396 C394 1.446 . S
C396 C397 1.332 . S
C397 H377 0.931 . S
C397 C396 1.332 . S
C397 C398 1.267 . S
C398 H366 0.929 . S
C398 C397 1.267 . S
C398 C399 1.251 . S
C399 H369 0.929 . S
C399 N395 1.418 . S
C399 C398 1.251 . S
C400 H367 0.930 . S
C400 C402 1.406 . S
C400 C405 1.261 . S
C401 H368 0.930 . S
C401 N403 1.325 . S
C401 C404 1.357 . S
C402 H370 0.928 . S
C402 C400 1.406 . S
C402 N403 1.261 . S
N403 Co354 2.214 . S
N403 C401 1.325 . S
N403 C402 1.261 . S
C404 H374 0.931 . S
C404 C401 1.357 . S
C404 C405 1.312 . S
C405 H376 0.930 . S
C405 C400 1.261 . S
C405 C404 1.312 . S
C406 O378 1.214 . S
C406 O386 1.234 . S
C407 H379 0.929 . S
C407 C410 1.391 . S
C407 C412 1.391 . S
C408 H380 0.929 . S
C408 C409 1.390 . S
C408 N411 1.391 . S
C409 H381 0.930 . S
C409 C408 1.390 . S
C409 C410 1.392 . S
C410 H382 0.929 . S
C410 C407 1.391 . S
C410 C409 1.392 . S
N411 Co355 2.257 . S
N411 C408 1.391 . S
N411 C412 1.388 . S
C412 H383 0.930 . S
C412 C407 1.391 . S
C412 N411 1.388 . S
Co413 O415 2.143 . S
Co413 O421 2.074 . S
Co413 O424 2.093 . S
Co413 O437 2.097 . S
Co413 N454 2.151 . S
Co413 N462 2.214 . S
Co414 O415 2.160 . S
Co414 O420 2.058 . S
Co414 O430 2.057 . S
Co414 O445 2.037 . S
Co414 N449 2.145 . S
Co414 N470 2.257 . S
O415 Co413 2.143 . S
O415 Co414 2.160 . S
C416 O417 1.278 . S
C416 O424 1.224 . S
O417 C416 1.278 . S
C418 O419 1.245 . S
C418 O430 1.232 . S
O419 C418 1.245 . S
O420 Co414 2.058 . S
O420 C446 1.269 . S
O421 Co413 2.074 . S
O421 C446 1.257 . S
H422 C447 0.930 . S
H423 C453 0.930 . S
O424 Co413 2.093 . S
O424 C416 1.224 . S
H425 C457 0.929 . S
H426 C459 0.930 . S
H427 C460 0.930 . S
H428 C458 0.929 . S
H429 C461 0.928 . S
O430 Co414 2.057 . S
O430 C418 1.232 . S
H431 C450 0.929 . S
H432 C451 0.929 . S
H433 C463 0.931 . S
H434 C455 0.929 . S
H435 C464 0.930 . S
H436 C456 0.931 . S
O437 Co413 2.097 . S
O437 C465 1.214 . S
H438 C466 0.929 . S
H439 C467 0.929 . S
H440 C468 0.930 . S
H441 C469 0.929 . S
H442 C471 0.930 . S
H443 C448 0.930 . S
H444 C452 0.930 . S
O445 Co414 2.037 . S
O445 C465 1.234 . S
C446 O420 1.269 . S
C446 O421 1.257 . S
C447 H422 0.930 . S
C447 C450 1.388 . S
C447 C452 1.418 . S
C448 H443 0.930 . S
C448 C451 1.404 . S
C448 C452 1.353 . S
N449 Co414 2.145 . S
N449 C450 1.397 . S
N449 C451 1.334 . S
C450 H431 0.929 . S
C450 C447 1.388 . S
C450 N449 1.397 . S
C451 H432 0.929 . S
C451 C448 1.404 . S
C451 N449 1.334 . S
C452 H444 0.930 . S
C452 C447 1.418 . S
C452 C448 1.353 . S
C453 H423 0.930 . S
C453 N454 1.330 . S
C453 C455 1.446 . S
N454 Co413 2.151 . S
N454 C453 1.330 . S
N454 C458 1.418 . S
C455 H434 0.929 . S
C455 C453 1.446 . S
C455 C456 1.332 . S
C456 H436 0.931 . S
C456 C455 1.332 . S
C456 C457 1.267 . S
C457 H425 0.929 . S
C457 C456 1.267 . S
C457 C458 1.251 . S
C458 H428 0.929 . S
C458 N454 1.418 . S
C458 C457 1.251 . S
C459 H426 0.930 . S
C459 C461 1.406 . S
C459 C464 1.261 . S
C460 H427 0.930 . S
C460 N462 1.325 . S
C460 C463 1.357 . S
C461 H429 0.928 . S
C461 C459 1.406 . S
C461 N462 1.261 . S
N462 Co413 2.214 . S
N462 C460 1.325 . S
N462 C461 1.261 . S
C463 H433 0.931 . S
C463 C460 1.357 . S
C463 C464 1.312 . S
C464 H435 0.930 . S
C464 C459 1.261 . S
C464 C463 1.312 . S
C465 O437 1.214 . S
C465 O445 1.234 . S
C466 H438 0.929 . S
C466 C469 1.391 . S
C466 C471 1.391 . S
C467 H439 0.929 . S
C467 C468 1.390 . S
C467 N470 1.391 . S
C468 H440 0.930 . S
C468 C467 1.390 . S
C468 C469 1.392 . S
C469 H441 0.929 . S
C469 C466 1.391 . S
C469 C468 1.392 . S
N470 Co414 2.257 . S
N470 C467 1.391 . S
N470 C471 1.388 . S
C471 H442 0.930 . S
C471 C466 1.391 . S
C471 N470 1.388 . S
Co472 O474 2.143 . S
Co472 O480 2.074 1_554 S
Co472 O483 2.093 . S
Co472 O496 2.097 . S
Co472 N513 2.151 . S
Co472 N521 2.214 1_554 S
Co473 O474 2.160 . S
Co473 O479 2.058 1_554 S
Co473 O489 2.057 . S
Co473 O504 2.037 . S
Co473 N508 2.145 1_554 S
Co473 N529 2.257 . S
O474 Co472 2.143 . S
O474 Co473 2.160 . S
C475 O476 1.278 . S
C475 O483 1.224 . S
O476 C475 1.278 . S
C477 O478 1.245 . S
C477 O489 1.232 . S
O478 C477 1.245 . S
O479 Co473 2.058 1_556 S
O479 C505 1.269 . S
O480 Co472 2.074 1_556 S
O480 C505 1.257 . S
H481 C506 0.930 . S
H482 C512 0.930 . S
O483 Co472 2.093 . S
O483 C475 1.224 . S
H484 C516 0.929 . S
H485 C518 0.930 . S
H486 C519 0.930 . S
H487 C517 0.929 . S
H488 C520 0.907 1_554 S
O489 Co473 2.057 . S
O489 C477 1.232 . S
H490 C509 0.929 . S
H491 C510 0.929 . S
H492 C522 0.931 . S
H493 C514 0.929 . S
H494 C523 0.930 . S
H495 C515 0.931 . S
O496 Co472 2.097 . S
O496 C524 1.214 . S
H497 C525 0.929 . S
H498 C526 0.929 . S
H499 C527 0.930 . S
H500 C528 0.929 . S
H501 C530 0.930 . S
H502 C507 0.930 . S
H503 C511 0.930 . S
O504 Co473 2.037 . S
O504 C524 1.234 . S
C505 O479 1.269 . S
C505 O480 1.257 . S
C506 H481 0.930 . S
C506 C509 1.388 . S
C506 C511 1.418 . S
C507 H502 0.930 . S
C507 C510 1.404 1_556 S
C507 C511 1.353 . S
N508 Co473 2.145 1_556 S
N508 C509 1.397 . S
N508 C510 1.334 1_556 S
C509 H490 0.929 . S
C509 C506 1.388 . S
C509 N508 1.397 . S
C510 H491 0.929 . S
C510 C507 1.404 1_554 S
C510 N508 1.334 1_554 S
C511 H503 0.930 . S
C511 C506 1.418 . S
C511 C507 1.353 . S
C512 H482 0.930 . S
C512 N513 1.330 . S
C512 C514 1.446 . S
N513 Co472 2.151 . S
N513 C512 1.330 . S
N513 C517 1.418 1_554 S
C514 H493 0.929 . S
C514 C512 1.446 . S
C514 C515 1.332 1_554 S
C515 H495 0.931 . S
C515 C514 1.332 1_556 S
C515 C516 1.267 . S
C516 H484 0.929 . S
C516 C515 1.267 . S
C516 C517 1.251 . S
C517 H487 0.929 . S
C517 N513 1.418 1_556 S
C517 C516 1.251 . S
C518 H485 0.930 . S
C518 C520 1.421 . S
C518 C523 1.261 . S
C519 H486 0.930 . S
C519 N521 1.325 . S
C519 C522 1.357 . S
C520 H488 0.907 1_556 S
C520 C518 1.421 . S
C520 N521 1.268 . S
N521 Co472 2.214 1_556 S
N521 C519 1.325 . S
N521 C520 1.268 . S
C522 H492 0.931 . S
C522 C519 1.357 . S
C522 C523 1.312 . S
C523 H494 0.930 . S
C523 C518 1.261 . S
C523 C522 1.312 . S
C524 O496 1.214 . S
C524 O504 1.234 . S
C525 H497 0.929 . S
C525 C528 1.391 . S
C525 C530 1.391 . S
C526 H498 0.929 . S
C526 C527 1.390 . S
C526 N529 1.391 . S
C527 H499 0.930 . S
C527 C526 1.390 . S
C527 C528 1.392 . S
C528 H500 0.929 . S
C528 C525 1.391 . S
C528 C527 1.392 . S
N529 Co473 2.257 . S
N529 C526 1.391 . S
N529 C530 1.388 . S
C530 H501 0.930 . S
C530 C525 1.391 . S
C530 N529 1.388 . S
Co531 O533 2.143 . S
Co531 O539 2.074 . S
Co531 O542 2.093 . S
Co531 O555 2.097 . S
Co531 N572 2.151 . S
Co531 N580 2.214 . S
Co532 O533 2.160 . S
Co532 O538 2.058 . S
Co532 O548 2.057 . S
Co532 O563 2.037 . S
Co532 N567 2.145 . S
Co532 N588 2.257 . S
O533 Co531 2.143 . S
O533 Co532 2.160 . S
C534 O535 1.278 . S
C534 O542 1.224 . S
O535 C534 1.278 . S
C536 O537 1.245 . S
C536 O548 1.232 . S
O537 C536 1.245 . S
O538 Co532 2.058 . S
O538 C564 1.269 . S
O539 Co531 2.074 . S
O539 C564 1.257 . S
H540 C565 0.930 . S
H541 C571 0.930 . S
O542 Co531 2.093 . S
O542 C534 1.224 . S
H543 C575 0.929 . S
H544 C577 0.930 . S
H545 C578 0.930 . S
H546 C576 0.929 . S
H547 C579 0.928 . S
O548 Co532 2.057 . S
O548 C536 1.232 . S
H549 C568 0.929 . S
H550 C569 0.929 . S
H551 C581 0.931 . S
H552 C573 0.929 . S
H553 C582 0.930 . S
H554 C574 0.931 . S
O555 Co531 2.097 . S
O555 C583 1.214 . S
H556 C584 0.929 . S
H557 C585 0.929 . S
H558 C586 0.930 . S
H559 C587 0.929 . S
H560 C589 0.930 . S
H561 C566 0.930 . S
H562 C570 0.930 . S
O563 Co532 2.037 . S
O563 C583 1.234 . S
C564 O538 1.269 . S
C564 O539 1.257 . S
C565 H540 0.930 . S
C565 C568 1.388 . S
C565 C570 1.418 . S
C566 H561 0.930 . S
C566 C569 1.404 . S
C566 C570 1.353 . S
N567 Co532 2.145 . S
N567 C568 1.397 . S
N567 C569 1.334 . S
C568 H549 0.929 . S
C568 C565 1.388 . S
C568 N567 1.397 . S
C569 H550 0.929 . S
C569 C566 1.404 . S
C569 N567 1.334 . S
C570 H562 0.930 . S
C570 C565 1.418 . S
C570 C566 1.353 . S
C571 H541 0.930 . S
C571 N572 1.330 . S
C571 C573 1.446 . S
N572 Co531 2.151 . S
N572 C571 1.330 . S
N572 C576 1.418 . S
C573 H552 0.929 . S
C573 C571 1.446 . S
C573 C574 1.332 . S
C574 H554 0.931 . S
C574 C573 1.332 . S
C574 C575 1.267 . S
C575 H543 0.929 . S
C575 C574 1.267 . S
C575 C576 1.251 . S
C576 H546 0.929 . S
C576 N572 1.418 . S
C576 C575 1.251 . S
C577 H544 0.930 . S
C577 C579 1.406 . S
C577 C582 1.261 . S
C578 H545 0.930 . S
C578 N580 1.325 . S
C578 C581 1.357 . S
C579 H547 0.928 . S
C579 C577 1.406 . S
C579 N580 1.261 . S
N580 Co531 2.214 . S
N580 C578 1.325 . S
N580 C579 1.261 . S
C581 H551 0.931 . S
C581 C578 1.357 . S
C581 C582 1.312 . S
C582 H553 0.930 . S
C582 C577 1.261 . S
C582 C581 1.312 . S
C583 O555 1.214 . S
C583 O563 1.234 . S
C584 H556 0.929 . S
C584 C587 1.391 . S
C584 C589 1.391 . S
C585 H557 0.929 . S
C585 C586 1.390 . S
C585 N588 1.391 . S
C586 H558 0.930 . S
C586 C585 1.390 . S
C586 C587 1.392 . S
C587 H559 0.929 . S
C587 C584 1.391 . S
C587 C586 1.392 . S
N588 Co532 2.257 . S
N588 C585 1.391 . S
N588 C589 1.388 . S
C589 H560 0.930 . S
C589 C584 1.391 . S
C589 N588 1.388 . S
Co590 O592 2.143 . S
Co590 O598 2.074 . S
Co590 O601 2.093 . S
Co590 O614 2.097 . S
Co590 N631 2.151 . S
Co590 N639 2.214 . S
Co591 O592 2.160 . S
Co591 O597 2.058 . S
Co591 O607 2.057 . S
Co591 O622 2.037 . S
Co591 N626 2.145 . S
Co591 N647 2.257 . S
O592 Co590 2.143 . S
O592 Co591 2.160 . S
C593 O594 1.278 . S
C593 O601 1.224 . S
O594 C593 1.278 . S
C595 O596 1.245 . S
C595 O607 1.232 . S
O596 C595 1.245 . S
O597 Co591 2.058 . S
O597 C623 1.269 . S
O598 Co590 2.074 . S
O598 C623 1.257 . S
H599 C624 0.930 . S
H600 C630 0.930 . S
O601 Co590 2.093 . S
O601 C593 1.224 . S
H602 C634 0.929 . S
H603 C636 0.930 . S
H604 C637 0.930 . S
H605 C635 0.929 . S
H606 C638 0.928 . S
O607 Co591 2.057 . S
O607 C595 1.232 . S
H608 C627 0.929 . S
H609 C628 0.929 . S
H610 C640 0.931 . S
H611 C632 0.929 . S
H612 C641 0.930 . S
H613 C633 0.931 . S
O614 Co590 2.097 . S
O614 C642 1.214 . S
H615 C643 0.929 . S
H616 C644 0.929 . S
H617 C645 0.930 . S
H618 C646 0.929 . S
H619 C648 0.930 . S
H620 C625 0.930 . S
H621 C629 0.930 . S
O622 Co591 2.037 . S
O622 C642 1.234 . S
C623 O597 1.269 . S
C623 O598 1.257 . S
C624 H599 0.930 . S
C624 C627 1.388 . S
C624 C629 1.418 . S
C625 H620 0.930 . S
C625 C628 1.404 . S
C625 C629 1.353 . S
N626 Co591 2.145 . S
N626 C627 1.397 . S
N626 C628 1.334 . S
C627 H608 0.929 . S
C627 C624 1.388 . S
C627 N626 1.397 . S
C628 H609 0.929 . S
C628 C625 1.404 . S
C628 N626 1.334 . S
C629 H621 0.930 . S
C629 C624 1.418 . S
C629 C625 1.353 . S
C630 H600 0.930 . S
C630 N631 1.330 . S
C630 C632 1.446 . S
N631 Co590 2.151 . S
N631 C630 1.330 . S
N631 C635 1.418 . S
C632 H611 0.929 . S
C632 C630 1.446 . S
C632 C633 1.332 . S
C633 H613 0.931 . S
C633 C632 1.332 . S
C633 C634 1.267 . S
C634 H602 0.929 . S
C634 C633 1.267 . S
C634 C635 1.251 . S
C635 H605 0.929 . S
C635 N631 1.418 . S
C635 C634 1.251 . S
C636 H603 0.930 . S
C636 C638 1.406 . S
C636 C641 1.261 . S
C637 H604 0.930 . S
C637 N639 1.325 . S
C637 C640 1.357 . S
C638 H606 0.928 . S
C638 C636 1.406 . S
C638 N639 1.261 . S
N639 Co590 2.214 . S
N639 C637 1.325 . S
N639 C638 1.261 . S
C640 H610 0.931 . S
C640 C637 1.357 . S
C640 C641 1.312 . S
C641 H612 0.930 . S
C641 C636 1.261 . S
C641 C640 1.312 . S
C642 O614 1.214 . S
C642 O622 1.234 . S
C643 H615 0.929 . S
C643 C646 1.391 . S
C643 C648 1.391 . S
C644 H616 0.929 . S
C644 C645 1.390 . S
C644 N647 1.391 . S
C645 H617 0.930 . S
C645 C644 1.390 . S
C645 C646 1.392 . S
C646 H618 0.929 . S
C646 C643 1.391 . S
C646 C645 1.392 . S
N647 Co591 2.257 . S
N647 C644 1.391 . S
N647 C648 1.388 . S
C648 H619 0.930 . S
C648 C643 1.391 . S
C648 N647 1.388 . S
Co649 O651 2.143 . S
Co649 O657 2.074 1_554 S
Co649 O660 2.093 . S
Co649 O673 2.097 . S
Co649 N690 2.151 . S
Co649 N698 2.214 1_554 S
Co650 O651 2.160 . S
Co650 O656 2.058 1_554 S
Co650 O666 2.057 . S
Co650 O681 2.037 . S
Co650 N685 2.145 1_554 S
Co650 N706 2.257 . S
O651 Co649 2.143 . S
O651 Co650 2.160 . S
C652 O653 1.278 . S
C652 O660 1.224 . S
O653 C652 1.278 . S
C654 O655 1.245 . S
C654 O666 1.232 . S
O655 C654 1.245 . S
O656 Co650 2.058 1_556 S
O656 C682 1.269 . S
O657 Co649 2.074 1_556 S
O657 C682 1.257 . S
H658 C683 0.930 . S
H659 C689 0.930 . S
O660 Co649 2.093 . S
O660 C652 1.224 . S
H661 C693 0.929 . S
H662 C695 0.930 . S
H663 C696 0.930 . S
H664 C694 0.929 . S
H665 C697 0.907 1_554 S
O666 Co650 2.057 . S
O666 C654 1.232 . S
H667 C686 0.929 . S
H668 C687 0.929 . S
H669 C699 0.931 . S
H670 C691 0.929 . S
H671 C700 0.930 . S
H672 C692 0.931 . S
O673 Co649 2.097 . S
O673 C701 1.214 . S
H674 C702 0.929 . S
H675 C703 0.929 . S
H676 C704 0.930 . S
H677 C705 0.929 . S
H678 C707 0.930 . S
H679 C684 0.930 . S
H680 C688 0.930 . S
O681 Co650 2.037 . S
O681 C701 1.234 . S
C682 O656 1.269 . S
C682 O657 1.257 . S
C683 H658 0.930 . S
C683 C686 1.388 . S
C683 C688 1.418 . S
C684 H679 0.930 . S
C684 C687 1.404 1_556 S
C684 C688 1.353 . S
N685 Co650 2.145 1_556 S
N685 C686 1.397 . S
N685 C687 1.334 1_556 S
C686 H667 0.929 . S
C686 C683 1.388 . S
C686 N685 1.397 . S
C687 H668 0.929 . S
C687 C684 1.404 1_554 S
C687 N685 1.334 1_554 S
C688 H680 0.930 . S
C688 C683 1.418 . S
C688 C684 1.353 . S
C689 H659 0.930 . S
C689 N690 1.330 . S
C689 C691 1.446 . S
N690 Co649 2.151 . S
N690 C689 1.330 . S
N690 C694 1.418 1_554 S
C691 H670 0.929 . S
C691 C689 1.446 . S
C691 C692 1.332 1_554 S
C692 H672 0.931 . S
C692 C691 1.332 1_556 S
C692 C693 1.267 . S
C693 H661 0.929 . S
C693 C692 1.267 . S
C693 C694 1.251 . S
C694 H664 0.929 . S
C694 N690 1.418 1_556 S
C694 C693 1.251 . S
C695 H662 0.930 . S
C695 C697 1.421 . S
C695 C700 1.261 . S
C696 H663 0.930 . S
C696 N698 1.325 . S
C696 C699 1.357 . S
C697 H665 0.907 1_556 S
C697 C695 1.421 . S
C697 N698 1.268 . S
N698 Co649 2.214 1_556 S
N698 C696 1.325 . S
N698 C697 1.268 . S
C699 H669 0.931 . S
C699 C696 1.357 . S
C699 C700 1.312 . S
C700 H671 0.930 . S
C700 C695 1.261 . S
C700 C699 1.312 . S
C701 O673 1.214 . S
C701 O681 1.234 . S
C702 H674 0.929 . S
C702 C705 1.391 . S
C702 C707 1.391 . S
C703 H675 0.929 . S
C703 C704 1.390 . S
C703 N706 1.391 . S
C704 H676 0.930 . S
C704 C703 1.390 . S
C704 C705 1.392 . S
C705 H677 0.929 . S
C705 C702 1.391 . S
C705 C704 1.392 . S
N706 Co650 2.257 . S
N706 C703 1.391 . S
N706 C707 1.388 . S
C707 H678 0.930 . S
C707 C702 1.391 . S
C707 N706 1.388 . S
H708 C716 0.929 . S
H709 C718 0.930 . S
H710 C720 0.930 . S
H711 C723 0.929 . S
H712 C726 0.930 . S
H713 C728 0.960 . S
H714 C728 0.960 . S
H715 C728 0.960 . S
C716 H708 0.929 . S
C716 C717 1.377 . S
C716 C718 1.384 . S
C717 C716 1.377 . S
C717 C723 1.390 . S
C718 H709 0.930 . S
C718 C716 1.384 . S
C718 C719 1.372 . S
C719 C718 1.372 . S
C719 C720 1.400 . S
C719 C724 1.490 . S
C720 H710 0.930 . S
C720 C719 1.400 . S
C720 C723 1.386 . S
H721 C737 0.930 . S
H722 C738 0.931 . S
C723 H711 0.929 . S
C723 C717 1.390 . S
C723 C720 1.386 . S
C724 C719 1.490 . S
C724 C726 1.395 . S
C724 C727 1.403 . S
H725 C731 0.930 . S
C726 H712 0.930 . S
C726 C724 1.395 . S
C726 C729 1.403 . S
C727 C724 1.403 . S
C727 C728 1.524 . S
C727 C731 1.400 . S
C728 H713 0.960 . S
C728 H714 0.960 . S
C728 H715 0.960 . S
C728 C727 1.524 . S
C729 C726 1.403 . S
C729 C730 1.392 . S
C729 C733 1.495 . S
C730 C729 1.392 . S
C730 C731 1.385 . S
C730 C732 1.478 . S
C731 H725 0.930 . S
C731 C727 1.400 . S
C731 C730 1.385 . S
C732 C730 1.478 . S
C732 C734 1.381 . S
C732 C738 1.383 . S
C733 C729 1.495 . S
C733 H739 0.959 . S
C733 H740 0.961 . S
C733 H741 0.960 . S
C734 C732 1.381 . S
C734 C735 1.394 . S
C734 H742 0.930 . S
C735 C734 1.394 . S
C735 C736 1.383 . S
C735 H743 0.929 . S
C736 C735 1.383 . S
C736 C737 1.377 . S
C737 H721 0.930 . S
C737 C736 1.377 . S
C737 C738 1.379 . S
C738 H722 0.931 . S
C738 C732 1.383 . S
C738 C737 1.379 . S
H739 C733 0.959 . S
H740 C733 0.961 . S
H741 C733 0.960 . S
H742 C734 0.930 . S
H743 C735 0.929 . S
H744 C752 0.929 . S
H745 C754 0.930 . S
H746 C756 0.930 . S
H747 C759 0.929 . S
H748 C762 0.930 . S
H749 C764 0.960 . S
H750 C764 0.960 . S
H751 C764 0.960 . S
C752 H744 0.929 . S
C752 C753 1.377 . S
C752 C754 1.384 . S
C753 C752 1.377 . S
C753 C759 1.390 . S
C754 H745 0.930 . S
C754 C752 1.384 . S
C754 C755 1.372 . S
C755 C754 1.372 . S
C755 C756 1.400 . S
C755 C760 1.490 . S
C756 H746 0.930 . S
C756 C755 1.400 . S
C756 C759 1.386 . S
H757 C773 0.930 . S
H758 C774 0.931 . S
C759 H747 0.929 . S
C759 C753 1.390 . S
C759 C756 1.386 . S
C760 C755 1.490 . S
C760 C762 1.395 . S
C760 C763 1.403 . S
H761 C767 0.930 . S
C762 H748 0.930 . S
C762 C760 1.395 . S
C762 C765 1.403 . S
C763 C760 1.403 . S
C763 C764 1.524 . S
C763 C767 1.400 . S
C764 H749 0.960 . S
C764 H750 0.960 . S
C764 H751 0.960 . S
C764 C763 1.524 . S
C765 C762 1.403 . S
C765 C766 1.392 . S
C765 C769 1.495 . S
C766 C765 1.392 . S
C766 C767 1.385 . S
C766 C768 1.478 . S
C767 H761 0.930 . S
C767 C763 1.400 . S
C767 C766 1.385 . S
C768 C766 1.478 . S
C768 C770 1.381 . S
C768 C774 1.383 . S
C769 C765 1.495 . S
C769 H775 0.959 . S
C769 H776 0.961 . S
C769 H777 0.960 . S
C770 C768 1.381 . S
C770 C771 1.394 . S
C770 H778 0.930 . S
C771 C770 1.394 . S
C771 C772 1.383 . S
C771 H779 0.929 . S
C772 C771 1.383 . S
C772 C773 1.377 . S
C773 H757 0.930 . S
C773 C772 1.377 . S
C773 C774 1.379 . S
C774 H758 0.931 . S
C774 C768 1.383 . S
C774 C773 1.379 . S
H775 C769 0.959 . S
H776 C769 0.961 . S
H777 C769 0.960 . S
H778 C770 0.930 . S
H779 C771 0.929 . S
H780 C788 0.929 . S
H781 C790 0.930 . S
H782 C792 0.930 . S
H783 C795 0.929 . S
H784 C798 0.930 . S
H785 C800 0.960 . S
H786 C800 0.960 . S
H787 C800 0.960 . S
C788 H780 0.929 . S
C788 C789 1.377 . S
C788 C790 1.384 . S
C789 C788 1.377 . S
C789 C795 1.390 . S
C790 H781 0.930 . S
C790 C788 1.384 . S
C790 C791 1.372 . S
C791 C790 1.372 . S
C791 C792 1.400 . S
C791 C796 1.490 . S
C792 H782 0.930 . S
C792 C791 1.400 . S
C792 C795 1.386 . S
H793 C809 0.930 . S
H794 C810 0.931 . S
C795 H783 0.929 . S
C795 C789 1.390 . S
C795 C792 1.386 . S
C796 C791 1.490 . S
C796 C798 1.395 . S
C796 C799 1.403 . S
H797 C803 0.930 . S
C798 H784 0.930 . S
C798 C796 1.395 . S
C798 C801 1.403 . S
C799 C796 1.403 . S
C799 C800 1.524 . S
C799 C803 1.400 . S
C800 H785 0.960 . S
C800 H786 0.960 . S
C800 H787 0.960 . S
C800 C799 1.524 . S
C801 C798 1.403 . S
C801 C802 1.392 . S
C801 C805 1.495 . S
C802 C801 1.392 . S
C802 C803 1.385 . S
C802 C804 1.478 . S
C803 H797 0.930 . S
C803 C799 1.400 . S
C803 C802 1.385 . S
C804 C802 1.478 . S
C804 C806 1.381 . S
C804 C810 1.383 . S
C805 C801 1.495 . S
C805 H811 0.959 . S
C805 H812 0.961 . S
C805 H813 0.960 . S
C806 C804 1.381 . S
C806 C807 1.394 . S
C806 H814 0.930 . S
C807 C806 1.394 . S
C807 C808 1.383 . S
C807 H815 0.929 . S
C808 C807 1.383 . S
C808 C809 1.377 . S
C809 H793 0.930 . S
C809 C808 1.377 . S
C809 C810 1.379 . S
C810 H794 0.931 . S
C810 C804 1.383 . S
C810 C809 1.379 . S
H811 C805 0.959 . S
H812 C805 0.961 . S
H813 C805 0.960 . S
H814 C806 0.930 . S
H815 C807 0.929 . S
H816 C824 0.929 . S
H817 C826 0.930 . S
H818 C828 0.930 . S
H819 C831 0.929 . S
H820 C834 0.930 . S
H821 C836 0.960 . S
H822 C836 0.960 . S
H823 C836 0.960 . S
C824 H816 0.929 . S
C824 C825 1.377 . S
C824 C826 1.384 . S
C825 C824 1.377 . S
C825 C831 1.390 . S
C826 H817 0.930 . S
C826 C824 1.384 . S
C826 C827 1.372 . S
C827 C826 1.372 . S
C827 C828 1.400 . S
C827 C832 1.490 . S
C828 H818 0.930 . S
C828 C827 1.400 . S
C828 C831 1.386 . S
H829 C845 0.930 . S
H830 C846 0.931 . S
C831 H819 0.929 . S
C831 C825 1.390 . S
C831 C828 1.386 . S
C832 C827 1.490 . S
C832 C834 1.395 . S
C832 C835 1.403 . S
H833 C839 0.930 . S
C834 H820 0.930 . S
C834 C832 1.395 . S
C834 C837 1.403 . S
C835 C832 1.403 . S
C835 C836 1.524 . S
C835 C839 1.400 . S
C836 H821 0.960 . S
C836 H822 0.960 . S
C836 H823 0.960 . S
C836 C835 1.524 . S
C837 C834 1.403 . S
C837 C838 1.392 . S
C837 C841 1.495 . S
C838 C837 1.392 . S
C838 C839 1.385 . S
C838 C840 1.478 . S
C839 H833 0.930 . S
C839 C835 1.400 . S
C839 C838 1.385 . S
C840 C838 1.478 . S
C840 C842 1.381 . S
C840 C846 1.383 . S
C841 C837 1.495 . S
C841 H847 0.959 . S
C841 H848 0.961 . S
C841 H849 0.960 . S
C842 C840 1.381 . S
C842 C843 1.394 . S
C842 H850 0.930 . S
C843 C842 1.394 . S
C843 C844 1.383 . S
C843 H851 0.929 . S
C844 C843 1.383 . S
C844 C845 1.377 . S
C845 H829 0.930 . S
C845 C844 1.377 . S
C845 C846 1.379 . S
C846 H830 0.931 . S
C846 C840 1.383 . S
C846 C845 1.379 . S
H847 C841 0.959 . S
H848 C841 0.961 . S
H849 C841 0.960 . S
H850 C842 0.930 . S
H851 C843 0.929 . S
H852 C860 0.929 . S
H853 C862 0.930 . S
H854 C864 0.930 . S
H855 C867 0.929 . S
H856 C870 0.930 . S
H857 C872 0.960 . S
H858 C872 0.960 . S
H859 C872 0.960 . S
C860 H852 0.929 . S
C860 C861 1.377 . S
C860 C862 1.384 . S
C861 C860 1.377 . S
C861 C867 1.390 . S
C862 H853 0.930 . S
C862 C860 1.384 . S
C862 C863 1.372 . S
C863 C862 1.372 . S
C863 C864 1.400 . S
C863 C868 1.490 . S
C864 H854 0.930 . S
C864 C863 1.400 . S
C864 C867 1.386 . S
H865 C881 0.930 . S
H866 C882 0.931 . S
C867 H855 0.929 . S
C867 C861 1.390 . S
C867 C864 1.386 . S
C868 C863 1.490 . S
C868 C870 1.395 . S
C868 C871 1.403 . S
H869 C875 0.930 . S
C870 H856 0.930 . S
C870 C868 1.395 . S
C870 C873 1.403 . S
C871 C868 1.403 . S
C871 C872 1.524 . S
C871 C875 1.400 . S
C872 H857 0.960 . S
C872 H858 0.960 . S
C872 H859 0.960 . S
C872 C871 1.524 . S
C873 C870 1.403 . S
C873 C874 1.392 . S
C873 C877 1.495 . S
C874 C873 1.392 . S
C874 C875 1.385 . S
C874 C876 1.478 . S
C875 H869 0.930 . S
C875 C871 1.400 . S
C875 C874 1.385 . S
C876 C874 1.478 . S
C876 C878 1.381 . S
C876 C882 1.383 . S
C877 C873 1.495 . S
C877 H883 0.959 . S
C877 H884 0.961 . S
C877 H885 0.960 . S
C878 C876 1.381 . S
C878 C879 1.394 . S
C878 H886 0.930 . S
C879 C878 1.394 . S
C879 C880 1.383 . S
C879 H887 0.929 . S
C880 C879 1.383 . S
C880 C881 1.377 . S
C881 H865 0.930 . S
C881 C880 1.377 . S
C881 C882 1.379 . S
C882 H866 0.931 . S
C882 C876 1.383 . S
C882 C881 1.379 . S
H883 C877 0.959 . S
H884 C877 0.961 . S
H885 C877 0.960 . S
H886 C878 0.930 . S
H887 C879 0.929 . S
H888 C896 0.929 . S
H889 C898 0.930 . S
H890 C900 0.930 . S
H891 C903 0.929 . S
H892 C906 0.930 . S
H893 C908 0.960 . S
H894 C908 0.960 . S
H895 C908 0.960 . S
C896 H888 0.929 . S
C896 C897 1.377 . S
C896 C898 1.384 . S
C897 C896 1.377 . S
C897 C903 1.390 . S
C898 H889 0.930 . S
C898 C896 1.384 . S
C898 C899 1.372 . S
C899 C898 1.372 . S
C899 C900 1.400 . S
C899 C904 1.490 . S
C900 H890 0.930 . S
C900 C899 1.400 . S
C900 C903 1.386 . S
H901 C917 0.930 . S
H902 C918 0.931 . S
C903 H891 0.929 . S
C903 C897 1.390 . S
C903 C900 1.386 . S
C904 C899 1.490 . S
C904 C906 1.395 . S
C904 C907 1.403 . S
H905 C911 0.930 . S
C906 H892 0.930 . S
C906 C904 1.395 . S
C906 C909 1.403 . S
C907 C904 1.403 . S
C907 C908 1.524 . S
C907 C911 1.400 . S
C908 H893 0.960 . S
C908 H894 0.960 . S
C908 H895 0.960 . S
C908 C907 1.524 . S
C909 C906 1.403 . S
C909 C910 1.392 . S
C909 C913 1.495 . S
C910 C909 1.392 . S
C910 C911 1.385 . S
C910 C912 1.478 . S
C911 H905 0.930 . S
C911 C907 1.400 . S
C911 C910 1.385 . S
C912 C910 1.478 . S
C912 C914 1.381 . S
C912 C918 1.383 . S
C913 C909 1.495 . S
C913 H919 0.959 . S
C913 H920 0.961 . S
C913 H921 0.960 . S
C914 C912 1.381 . S
C914 C915 1.394 . S
C914 H922 0.930 . S
C915 C914 1.394 . S
C915 C916 1.383 . S
C915 H923 0.929 . S
C916 C915 1.383 . S
C916 C917 1.377 . S
C917 H901 0.930 . S
C917 C916 1.377 . S
C917 C918 1.379 . S
C918 H902 0.931 . S
C918 C912 1.383 . S
C918 C917 1.379 . S
H919 C913 0.959 . S
H920 C913 0.961 . S
H921 C913 0.960 . S
H922 C914 0.930 . S
H923 C915 0.929 . S
H924 C932 0.929 . S
H925 C934 0.930 . S
H926 C936 0.930 . S
H927 C939 0.929 . S
H928 C942 0.930 . S
H929 C944 0.960 . S
H930 C944 0.960 . S
H931 C944 0.960 . S
C932 H924 0.929 . S
C932 C933 1.377 . S
C932 C934 1.384 . S
C933 C932 1.377 . S
C933 C939 1.390 . S
C934 H925 0.930 . S
C934 C932 1.384 . S
C934 C935 1.372 . S
C935 C934 1.372 . S
C935 C936 1.400 . S
C935 C940 1.490 . S
C936 H926 0.930 . S
C936 C935 1.400 . S
C936 C939 1.386 . S
H937 C953 0.930 . S
H938 C954 0.931 . S
C939 H927 0.929 . S
C939 C933 1.390 . S
C939 C936 1.386 . S
C940 C935 1.490 . S
C940 C942 1.395 . S
C940 C943 1.403 . S
H941 C947 0.930 . S
C942 H928 0.930 . S
C942 C940 1.395 . S
C942 C945 1.403 . S
C943 C940 1.403 . S
C943 C944 1.524 . S
C943 C947 1.400 . S
C944 H929 0.960 . S
C944 H930 0.960 . S
C944 H931 0.960 . S
C944 C943 1.524 . S
C945 C942 1.403 . S
C945 C946 1.392 . S
C945 C949 1.495 . S
C946 C945 1.392 . S
C946 C947 1.385 . S
C946 C948 1.478 . S
C947 H941 0.930 . S
C947 C943 1.400 . S
C947 C946 1.385 . S
C948 C946 1.478 . S
C948 C950 1.381 . S
C948 C954 1.383 . S
C949 C945 1.495 . S
C949 H955 0.959 . S
C949 H956 0.961 . S
C949 H957 0.960 . S
C950 C948 1.381 . S
C950 C951 1.394 . S
C950 H958 0.930 . S
C951 C950 1.394 . S
C951 C952 1.383 . S
C951 H959 0.929 . S
C952 C951 1.383 . S
C952 C953 1.377 . S
C953 H937 0.930 . S
C953 C952 1.377 . S
C953 C954 1.379 . S
C954 H938 0.931 . S
C954 C948 1.383 . S
C954 C953 1.379 . S
H955 C949 0.959 . S
H956 C949 0.961 . S
H957 C949 0.960 . S
H958 C950 0.930 . S
H959 C951 0.929 . S
H960 C968 0.929 . S
H961 C970 0.930 . S
H962 C972 0.930 . S
H963 C975 0.929 . S
H964 C978 0.930 . S
H965 C980 0.960 . S
H966 C980 0.960 . S
H967 C980 0.960 . S
C968 H960 0.929 . S
C968 C969 1.377 . S
C968 C970 1.384 . S
C969 C968 1.377 . S
C969 C975 1.390 . S
C970 H961 0.930 . S
C970 C968 1.384 . S
C970 C971 1.372 . S
C971 C970 1.372 . S
C971 C972 1.400 . S
C971 C976 1.490 . S
C972 H962 0.930 . S
C972 C971 1.400 . S
C972 C975 1.386 . S
H973 C989 0.930 . S
H974 C990 0.931 . S
C975 H963 0.929 . S
C975 C969 1.390 . S
C975 C972 1.386 . S
C976 C971 1.490 . S
C976 C978 1.395 . S
C976 C979 1.403 . S
H977 C983 0.930 . S
C978 H964 0.930 . S
C978 C976 1.395 . S
C978 C981 1.403 . S
C979 C976 1.403 . S
C979 C980 1.524 . S
C979 C983 1.400 . S
C980 H965 0.960 . S
C980 H966 0.960 . S
C980 H967 0.960 . S
C980 C979 1.524 . S
C981 C978 1.403 . S
C981 C982 1.392 . S
C981 C985 1.495 . S
C982 C981 1.392 . S
C982 C983 1.385 . S
C982 C984 1.478 . S
C983 H977 0.930 . S
C983 C979 1.400 . S
C983 C982 1.385 . S
C984 C982 1.478 . S
C984 C986 1.381 . S
C984 C990 1.383 . S
C985 C981 1.495 . S
C985 H991 0.959 . S
C985 H992 0.961 . S
C985 H993 0.960 . S
C986 C984 1.381 . S
C986 C987 1.394 . S
C986 H994 0.930 . S
C987 C986 1.394 . S
C987 C988 1.383 . S
C987 H995 0.929 . S
C988 C987 1.383 . S
C988 C989 1.377 . S
C989 H973 0.930 . S
C989 C988 1.377 . S
C989 C990 1.379 . S
C990 H974 0.931 . S
C990 C984 1.383 . S
C990 C989 1.379 . S
H991 C985 0.959 . S
H992 C985 0.961 . S
H993 C985 0.960 . S
H994 C986 0.930 . S
H995 C987 0.929 . S
H996 C1004 0.929 . S
H997 C1006 0.930 . S
H998 C1008 0.930 . S
H999 C1011 0.929 . S
H1000 C1014 0.930 . S
H1001 C1016 0.960 . S
H1002 C1016 0.960 . S
H1003 C1016 0.960 1_556 S
C1004 H996 0.929 . S
C1004 C1005 1.377 . S
C1004 C1006 1.384 . S
C1005 C1004 1.377 . S
C1005 C1011 1.390 1_554 S
C1006 H997 0.930 . S
C1006 C1004 1.384 . S
C1006 C1007 1.372 . S
C1007 C1006 1.372 . S
C1007 C1008 1.400 1_554 S
C1007 C1012 1.490 . S
C1008 H998 0.930 . S
C1008 C1007 1.400 1_556 S
C1008 C1011 1.386 . S
H1009 C1025 0.930 . S
H1010 C1026 0.931 . S
C1011 H999 0.929 . S
C1011 C1005 1.390 1_556 S
C1011 C1008 1.386 . S
C1012 C1007 1.490 . S
C1012 C1014 1.395 . S
C1012 C1015 1.403 . S
H1013 C1019 0.937 . S
C1014 H1000 0.930 . S
C1014 C1012 1.395 . S
C1014 C1017 1.403 . S
C1015 C1012 1.403 . S
C1015 C1016 1.524 . S
C1015 C1019 1.400 . S
C1016 H1001 0.960 . S
C1016 H1002 0.960 . S
C1016 H1003 0.960 1_554 S
C1016 C1015 1.524 . S
C1017 C1014 1.403 . S
C1017 C1018 1.392 . S
C1017 C1021 1.495 . S
C1018 C1017 1.392 . S
C1018 C1019 1.385 . S
C1018 C1020 1.478 . S
C1019 H1013 0.937 . S
C1019 C1015 1.400 . S
C1019 C1018 1.385 . S
C1020 C1018 1.478 . S
C1020 C1022 1.381 . S
C1020 C1026 1.383 1_554 S
C1021 C1017 1.495 . S
C1021 H1027 0.959 . S
C1021 H1028 0.961 1_554 S
C1021 H1029 0.960 . S
C1022 C1020 1.381 . S
C1022 C1023 1.394 . S
C1022 H1030 0.930 . S
C1023 C1022 1.394 . S
C1023 C1024 1.383 1_554 S
C1023 H1031 0.929 . S
C1024 C1023 1.383 1_556 S
C1024 C1025 1.377 . S
C1025 H1009 0.930 . S
C1025 C1024 1.377 . S
C1025 C1026 1.379 . S
C1026 H1010 0.931 . S
C1026 C1020 1.383 1_556 S
C1026 C1025 1.379 . S
H1027 C1021 0.959 . S
H1028 C1021 0.961 1_556 S
H1029 C1021 0.960 . S
H1030 C1022 0.930 . S
H1031 C1023 0.929 . S
H1032 C1040 0.929 . S
H1033 C1042 0.930 . S
H1034 C1044 0.930 . S
H1035 C1047 0.929 . S
H1036 C1050 0.930 . S
H1037 C1052 0.960 . S
H1038 C1052 0.960 . S
H1039 C1052 0.960 . S
C1040 H1032 0.929 . S
C1040 C1041 1.377 . S
C1040 C1042 1.384 . S
C1041 C1040 1.377 . S
C1041 C1047 1.390 . S
C1042 H1033 0.930 . S
C1042 C1040 1.384 . S
C1042 C1043 1.372 . S
C1043 C1042 1.372 . S
C1043 C1044 1.400 . S
C1043 C1048 1.490 . S
C1044 H1034 0.930 . S
C1044 C1043 1.400 . S
C1044 C1047 1.386 . S
H1045 C1061 0.930 . S
H1046 C1062 0.931 . S
C1047 H1035 0.929 . S
C1047 C1041 1.390 . S
C1047 C1044 1.386 . S
C1048 C1043 1.490 . S
C1048 C1050 1.395 . S
C1048 C1051 1.403 . S
H1049 C1055 0.930 . S
C1050 H1036 0.930 . S
C1050 C1048 1.395 . S
C1050 C1053 1.403 . S
C1051 C1048 1.403 . S
C1051 C1052 1.524 . S
C1051 C1055 1.400 . S
C1052 H1037 0.960 . S
C1052 H1038 0.960 . S
C1052 H1039 0.960 . S
C1052 C1051 1.524 . S
C1053 C1050 1.403 . S
C1053 C1054 1.392 . S
C1053 C1057 1.495 . S
C1054 C1053 1.392 . S
C1054 C1055 1.385 . S
C1054 C1056 1.478 . S
C1055 H1049 0.930 . S
C1055 C1051 1.400 . S
C1055 C1054 1.385 . S
C1056 C1054 1.478 . S
C1056 C1058 1.381 . S
C1056 C1062 1.383 . S
C1057 C1053 1.495 . S
C1057 H1063 0.959 . S
C1057 H1064 0.961 . S
C1057 H1065 0.960 . S
C1058 C1056 1.381 . S
C1058 C1059 1.394 . S
C1058 H1066 0.930 . S
C1059 C1058 1.394 . S
C1059 C1060 1.383 . S
C1059 H1067 0.929 . S
C1060 C1059 1.383 . S
C1060 C1061 1.377 . S
C1061 H1045 0.930 . S
C1061 C1060 1.377 . S
C1061 C1062 1.379 . S
C1062 H1046 0.931 . S
C1062 C1056 1.383 . S
C1062 C1061 1.379 . S
H1063 C1057 0.959 . S
H1064 C1057 0.961 . S
H1065 C1057 0.960 . S
H1066 C1058 0.930 . S
H1067 C1059 0.929 . S
H1068 C1076 0.929 . S
H1069 C1078 0.930 . S
H1070 C1080 0.930 . S
H1071 C1083 0.929 . S
H1072 C1086 0.930 . S
H1073 C1088 0.960 . S
H1074 C1088 0.960 . S
H1075 C1088 0.960 . S
C1076 H1068 0.929 . S
C1076 C1077 1.377 . S
C1076 C1078 1.384 . S
C1077 C1076 1.377 . S
C1077 C1083 1.390 . S
C1078 H1069 0.930 . S
C1078 C1076 1.384 . S
C1078 C1079 1.372 . S
C1079 C1078 1.372 . S
C1079 C1080 1.400 . S
C1079 C1084 1.490 . S
C1080 H1070 0.930 . S
C1080 C1079 1.400 . S
C1080 C1083 1.386 . S
H1081 C1097 0.930 . S
H1082 C1098 0.931 . S
C1083 H1071 0.929 . S
C1083 C1077 1.390 . S
C1083 C1080 1.386 . S
C1084 C1079 1.490 . S
C1084 C1086 1.395 . S
C1084 C1087 1.403 . S
H1085 C1091 0.930 . S
C1086 H1072 0.930 . S
C1086 C1084 1.395 . S
C1086 C1089 1.403 . S
C1087 C1084 1.403 . S
C1087 C1088 1.524 . S
C1087 C1091 1.400 . S
C1088 H1073 0.960 . S
C1088 H1074 0.960 . S
C1088 H1075 0.960 . S
C1088 C1087 1.524 . S
C1089 C1086 1.403 . S
C1089 C1090 1.392 . S
C1089 C1093 1.495 . S
C1090 C1089 1.392 . S
C1090 C1091 1.385 . S
C1090 C1092 1.478 . S
C1091 H1085 0.930 . S
C1091 C1087 1.400 . S
C1091 C1090 1.385 . S
C1092 C1090 1.478 . S
C1092 C1094 1.381 . S
C1092 C1098 1.383 . S
C1093 C1089 1.495 . S
C1093 H1099 0.959 . S
C1093 H1100 0.961 . S
C1093 H1101 0.960 . S
C1094 C1092 1.381 . S
C1094 C1095 1.394 . S
C1094 H1102 0.930 . S
C1095 C1094 1.394 . S
C1095 C1096 1.383 . S
C1095 H1103 0.929 . S
C1096 C1095 1.383 . S
C1096 C1097 1.377 . S
C1097 H1081 0.930 . S
C1097 C1096 1.377 . S
C1097 C1098 1.379 . S
C1098 H1082 0.931 . S
C1098 C1092 1.383 . S
C1098 C1097 1.379 . S
H1099 C1093 0.959 . S
H1100 C1093 0.961 . S
H1101 C1093 0.960 . S
H1102 C1094 0.930 . S
H1103 C1095 0.929 . S
H1104 C1112 0.929 . S
H1105 C1114 0.930 . S
H1106 C1116 0.930 . S
H1107 C1119 0.929 . S
H1108 C1122 0.930 . S
H1109 C1124 0.960 . S
H1110 C1124 0.960 . S
H1111 C1124 0.960 . S
C1112 H1104 0.929 . S
C1112 C1113 1.377 . S
C1112 C1114 1.384 . S
C1113 C1112 1.377 . S
C1113 C1119 1.390 1_556 S
C1114 H1105 0.930 . S
C1114 C1112 1.384 . S
C1114 C1115 1.372 1_556 S
C1115 C1114 1.372 1_554 S
C1115 C1116 1.400 . S
C1115 C1120 1.490 . S
C1116 H1106 0.930 . S
C1116 C1115 1.400 . S
C1116 C1119 1.386 . S
H1117 C1133 0.930 . S
H1118 C1134 0.931 . S
C1119 H1107 0.929 . S
C1119 C1113 1.390 1_554 S
C1119 C1116 1.386 . S
C1120 C1115 1.490 . S
C1120 C1122 1.395 . S
C1120 C1123 1.403 1_554 S
H1121 C1127 0.930 . S
C1122 H1108 0.930 . S
C1122 C1120 1.395 . S
C1122 C1125 1.403 . S
C1123 C1120 1.403 1_556 S
C1123 C1124 1.524 . S
C1123 C1127 1.400 . S
C1124 H1109 0.960 . S
C1124 H1110 0.960 . S
C1124 H1111 0.960 . S
C1124 C1123 1.524 . S
C1125 C1122 1.403 . S
C1125 C1126 1.392 . S
C1125 C1129 1.495 . S
C1126 C1125 1.392 . S
C1126 C1127 1.385 1_554 S
C1126 C1128 1.478 . S
C1127 H1121 0.930 . S
C1127 C1123 1.400 . S
C1127 C1126 1.385 1_556 S
C1128 C1126 1.478 . S
C1128 C1130 1.381 . S
C1128 C1134 1.383 . S
C1129 C1125 1.495 . S
C1129 H1135 0.959 . S
C1129 H1136 0.961 . S
C1129 H1137 0.960 . S
C1130 C1128 1.381 . S
C1130 C1131 1.394 . S
C1130 H1138 0.933 . S
C1131 C1130 1.394 . S
C1131 C1132 1.383 . S
C1131 H1139 0.933 . S
C1132 C1131 1.383 . S
C1132 C1133 1.377 . S
C1133 H1117 0.930 . S
C1133 C1132 1.377 . S
C1133 C1134 1.379 . S
C1134 H1118 0.931 . S
C1134 C1128 1.383 . S
C1134 C1133 1.379 . S
H1135 C1129 0.959 . S
H1136 C1129 0.961 . S
H1137 C1129 0.960 . S
H1138 C1130 0.933 . S
H1139 C1131 0.933 . S
H1140 C1148 0.929 . S
H1141 C1150 0.930 . S
H1142 C1152 0.930 . S
H1143 C1155 0.929 . S
H1144 C1158 0.930 . S
H1145 C1160 0.960 1_565 S
H1146 C1160 0.960 . S
H1147 C1160 0.960 . S
C1148 H1140 0.929 . S
C1148 C1149 1.377 . S
C1148 C1150 1.384 . S
C1149 C1148 1.377 . S
C1149 C1155 1.390 . S
C1150 H1141 0.930 . S
C1150 C1148 1.384 . S
C1150 C1151 1.372 . S
C1151 C1150 1.372 . S
C1151 C1152 1.400 . S
C1151 C1156 1.490 . S
C1152 H1142 0.930 . S
C1152 C1151 1.400 . S
C1152 C1155 1.386 . S
H1153 C1169 0.930 . S
H1154 C1170 0.931 . S
C1155 H1143 0.929 . S
C1155 C1149 1.390 . S
C1155 C1152 1.386 . S
C1156 C1151 1.490 . S
C1156 C1158 1.395 . S
C1156 C1159 1.403 . S
H1157 C1163 0.930 . S
C1158 H1144 0.930 . S
C1158 C1156 1.395 . S
C1158 C1161 1.403 1_545 S
C1159 C1156 1.403 . S
C1159 C1160 1.524 . S
C1159 C1163 1.400 1_545 S
C1160 H1145 0.960 1_545 S
C1160 H1146 0.960 . S
C1160 H1147 0.960 . S
C1160 C1159 1.524 . S
C1161 C1158 1.403 1_565 S
C1161 C1162 1.392 . S
C1161 C1165 1.495 . S
C1162 C1161 1.392 . S
C1162 C1163 1.385 . S
C1162 C1164 1.478 . S
C1163 H1157 0.930 . S
C1163 C1159 1.400 1_565 S
C1163 C1162 1.385 . S
C1164 C1162 1.478 . S
C1164 C1166 1.381 . S
C1164 C1170 1.383 . S
C1165 C1161 1.495 . S
C1165 H1171 0.959 1_565 S
C1165 H1172 0.961 . S
C1165 H1173 0.960 . S
C1166 C1164 1.381 . S
C1166 C1167 1.394 . S
C1166 H1174 0.930 . S
C1167 C1166 1.394 . S
C1167 C1168 1.383 . S
C1167 H1175 0.929 . S
C1168 C1167 1.383 . S
C1168 C1169 1.377 . S
C1169 H1153 0.930 . S
C1169 C1168 1.377 . S
C1169 C1170 1.379 . S
C1170 H1154 0.931 . S
C1170 C1164 1.383 . S
C1170 C1169 1.379 . S
H1171 C1165 0.959 1_545 S
H1172 C1165 0.961 . S
H1173 C1165 0.960 . S
H1174 C1166 0.930 . S
H1175 C1167 0.929 . S
H1176 C1184 0.929 . S
H1177 C1186 0.930 . S
H1178 C1188 0.930 . S
H1179 C1191 0.929 . S
H1180 C1194 0.930 . S
H1181 C1196 0.960 . S
H1182 C1196 0.960 . S
H1183 C1196 0.960 . S
C1184 H1176 0.929 . S
C1184 C1185 1.377 . S
C1184 C1186 1.384 . S
C1185 C1184 1.377 . S
C1185 C1191 1.390 . S
C1186 H1177 0.930 . S
C1186 C1184 1.384 . S
C1186 C1187 1.372 . S
C1187 C1186 1.372 . S
C1187 C1188 1.400 . S
C1187 C1192 1.490 . S
C1188 H1178 0.930 . S
C1188 C1187 1.400 . S
C1188 C1191 1.386 . S
H1189 C1205 0.930 . S
H1190 C1206 0.931 . S
C1191 H1179 0.929 . S
C1191 C1185 1.390 . S
C1191 C1188 1.386 . S
C1192 C1187 1.490 . S
C1192 C1194 1.395 . S
C1192 C1195 1.403 . S
H1193 C1199 0.930 . S
C1194 H1180 0.930 . S
C1194 C1192 1.395 . S
C1194 C1197 1.403 . S
C1195 C1192 1.403 . S
C1195 C1196 1.524 . S
C1195 C1199 1.400 . S
C1196 H1181 0.960 . S
C1196 H1182 0.960 . S
C1196 H1183 0.960 . S
C1196 C1195 1.524 . S
C1197 C1194 1.403 . S
C1197 C1198 1.392 . S
C1197 C1201 1.495 . S
C1198 C1197 1.392 . S
C1198 C1199 1.385 . S
C1198 C1200 1.478 . S
C1199 H1193 0.930 . S
C1199 C1195 1.400 . S
C1199 C1198 1.385 . S
C1200 C1198 1.478 . S
C1200 C1202 1.381 . S
C1200 C1206 1.383 . S
C1201 C1197 1.495 . S
C1201 H1207 0.959 . S
C1201 H1208 0.961 . S
C1201 H1209 0.960 . S
C1202 C1200 1.381 . S
C1202 C1203 1.394 . S
C1202 H1210 0.930 . S
C1203 C1202 1.394 . S
C1203 C1204 1.383 . S
C1203 H1211 0.929 . S
C1204 C1203 1.383 . S
C1204 C1205 1.377 . S
C1205 H1189 0.930 . S
C1205 C1204 1.377 . S
C1205 C1206 1.379 . S
C1206 H1190 0.931 . S
C1206 C1200 1.383 . S
C1206 C1205 1.379 . S
H1207 C1201 0.959 . S
H1208 C1201 0.961 . S
H1209 C1201 0.960 . S
H1210 C1202 0.930 . S
H1211 C1203 0.929 . S
H1212 C1220 0.929 . S
H1213 C1222 0.930 . S
H1214 C1224 0.930 . S
H1215 C1227 0.929 . S
H1216 C1230 0.930 . S
H1217 C1232 0.960 1_455 S
H1218 C1232 0.960 . S
H1219 C1232 0.960 1_554 S
C1220 H1212 0.929 . S
C1220 C1221 1.377 . S
C1220 C1222 1.384 . S
C1221 C1220 1.377 . S
C1221 C1227 1.390 1_556 S
C1222 H1213 0.930 . S
C1222 C1220 1.384 . S
C1222 C1223 1.372 . S
C1223 C1222 1.372 . S
C1223 C1224 1.400 1_556 S
C1223 C1228 1.490 . S
C1224 H1214 0.930 . S
C1224 C1223 1.400 1_554 S
C1224 C1227 1.386 . S
H1225 C1241 0.930 . S
H1226 C1242 0.931 . S
C1227 H1215 0.929 . S
C1227 C1221 1.390 1_554 S
C1227 C1224 1.386 . S
C1228 C1223 1.490 . S
C1228 C1230 1.395 . S
C1228 C1231 1.403 . S
H1229 C1235 0.930 . S
C1230 H1216 0.930 . S
C1230 C1228 1.395 . S
C1230 C1233 1.403 1_655 S
C1231 C1228 1.403 . S
C1231 C1232 1.524 . S
C1231 C1235 1.400 1_655 S
C1232 H1217 0.960 1_655 S
C1232 H1218 0.960 . S
C1232 H1219 0.960 1_556 S
C1232 C1231 1.524 . S
C1233 C1230 1.403 1_455 S
C1233 C1234 1.392 . S
C1233 C1237 1.495 . S
C1234 C1233 1.392 . S
C1234 C1235 1.385 . S
C1234 C1236 1.478 . S
C1235 H1229 0.930 . S
C1235 C1231 1.400 1_455 S
C1235 C1234 1.385 . S
C1236 C1234 1.478 . S
C1236 C1238 1.381 . S
C1236 C1242 1.383 1_556 S
C1237 C1233 1.495 . S
C1237 H1243 0.959 1_455 S
C1237 H1244 0.961 . S
C1237 H1245 0.960 . S
C1238 C1236 1.381 . S
C1238 C1239 1.394 . S
C1238 H1246 0.930 . S
C1239 C1238 1.394 . S
C1239 C1240 1.383 . S
C1239 H1247 0.929 . S
C1240 C1239 1.383 . S
C1240 C1241 1.377 1_556 S
C1241 H1225 0.930 . S
C1241 C1240 1.377 1_554 S
C1241 C1242 1.379 . S
C1242 H1226 0.931 . S
C1242 C1236 1.383 1_554 S
C1242 C1241 1.379 . S
H1243 C1237 0.959 1_655 S
H1244 C1237 0.961 . S
H1245 C1237 0.960 . S
H1246 C1238 0.930 . S
H1247 C1239 0.929 . S
H1248 C1256 0.929 . S
H1249 C1258 0.930 . S
H1250 C1260 0.930 . S
H1251 C1263 0.929 . S
H1252 C1266 0.930 . S
H1253 C1268 0.960 1_655 S
H1254 C1268 0.960 . S
H1255 C1268 0.960 . S
C1256 H1248 0.929 . S
C1256 C1257 1.377 . S
C1256 C1258 1.384 . S
C1257 C1256 1.377 . S
C1257 C1263 1.390 . S
C1258 H1249 0.930 . S
C1258 C1256 1.384 . S
C1258 C1259 1.372 . S
C1259 C1258 1.372 . S
C1259 C1260 1.400 . S
C1259 C1264 1.490 . S
C1260 H1250 0.930 . S
C1260 C1259 1.400 . S
C1260 C1263 1.386 . S
H1261 C1277 0.930 . S
H1262 C1278 0.931 . S
C1263 H1251 0.929 . S
C1263 C1257 1.390 . S
C1263 C1260 1.386 . S
C1264 C1259 1.490 . S
C1264 C1266 1.395 . S
C1264 C1267 1.403 . S
H1265 C1271 0.930 . S
C1266 H1252 0.930 . S
C1266 C1264 1.395 . S
C1266 C1269 1.403 1_455 S
C1267 C1264 1.403 . S
C1267 C1268 1.524 . S
C1267 C1271 1.400 1_455 S
C1268 H1253 0.960 1_455 S
C1268 H1254 0.960 . S
C1268 H1255 0.960 . S
C1268 C1267 1.524 . S
C1269 C1266 1.403 1_655 S
C1269 C1270 1.392 . S
C1269 C1273 1.495 . S
C1270 C1269 1.392 . S
C1270 C1271 1.385 . S
C1270 C1272 1.478 . S
C1271 H1265 0.930 . S
C1271 C1267 1.400 1_655 S
C1271 C1270 1.385 . S
C1272 C1270 1.478 . S
C1272 C1274 1.381 . S
C1272 C1278 1.383 . S
C1273 C1269 1.495 . S
C1273 H1279 0.959 1_655 S
C1273 H1280 0.961 . S
C1273 H1281 0.960 . S
C1274 C1272 1.381 . S
C1274 C1275 1.394 . S
C1274 H1282 0.930 . S
C1275 C1274 1.394 . S
C1275 C1276 1.383 . S
C1275 H1283 0.929 . S
C1276 C1275 1.383 . S
C1276 C1277 1.377 . S
C1277 H1261 0.930 . S
C1277 C1276 1.377 . S
C1277 C1278 1.379 . S
C1278 H1262 0.931 . S
C1278 C1272 1.383 . S
C1278 C1277 1.379 . S
H1279 C1273 0.959 1_455 S
H1280 C1273 0.961 . S
H1281 C1273 0.960 . S
H1282 C1274 0.930 . S
H1283 C1275 0.929 . S
H1284 C1292 0.929 . S
H1285 C1294 0.930 . S
H1286 C1296 0.930 . S
H1287 C1299 0.929 . S
H1288 C1302 0.930 . S
H1289 C1304 0.960 . S
H1290 C1304 0.960 . S
H1291 C1304 0.960 . S
C1292 H1284 0.929 . S
C1292 C1293 1.377 . S
C1292 C1294 1.384 . S
C1293 C1292 1.377 . S
C1293 C1299 1.390 . S
C1294 H1285 0.930 . S
C1294 C1292 1.384 . S
C1294 C1295 1.372 . S
C1295 C1294 1.372 . S
C1295 C1296 1.400 . S
C1295 C1300 1.490 . S
C1296 H1286 0.930 . S
C1296 C1295 1.400 . S
C1296 C1299 1.386 . S
H1297 C1313 0.930 . S
H1298 C1314 0.931 . S
C1299 H1287 0.929 . S
C1299 C1293 1.390 . S
C1299 C1296 1.386 . S
C1300 C1295 1.490 . S
C1300 C1302 1.395 . S
C1300 C1303 1.403 . S
H1301 C1307 0.930 . S
C1302 H1288 0.930 . S
C1302 C1300 1.395 . S
C1302 C1305 1.403 1_545 S
C1303 C1300 1.403 . S
C1303 C1304 1.524 . S
C1303 C1307 1.400 1_545 S
C1304 H1289 0.960 . S
C1304 H1290 0.960 . S
C1304 H1291 0.960 . S
C1304 C1303 1.524 . S
C1305 C1302 1.403 1_565 S
C1305 C1306 1.392 . S
C1305 C1309 1.495 . S
C1306 C1305 1.392 . S
C1306 C1307 1.385 . S
C1306 C1308 1.478 . S
C1307 H1301 0.930 . S
C1307 C1303 1.400 1_565 S
C1307 C1306 1.385 . S
C1308 C1306 1.478 . S
C1308 C1310 1.381 . S
C1308 C1314 1.383 . S
C1309 C1305 1.495 . S
C1309 H1315 0.959 . S
C1309 H1316 0.961 . S
C1309 H1317 0.960 . S
C1310 C1308 1.381 . S
C1310 C1311 1.394 . S
C1310 H1318 0.930 . S
C1311 C1310 1.394 . S
C1311 C1312 1.383 . S
C1311 H1319 0.929 . S
C1312 C1311 1.383 . S
C1312 C1313 1.377 . S
C1313 H1297 0.930 . S
C1313 C1312 1.377 . S
C1313 C1314 1.379 . S
C1314 H1298 0.931 . S
C1314 C1308 1.383 . S
C1314 C1313 1.379 . S
H1315 C1309 0.959 . S
H1316 C1309 0.961 . S
H1317 C1309 0.960 . S
H1318 C1310 0.930 . S
H1319 C1311 0.929 . S
H1320 C1328 0.929 . S
H1321 C1330 0.930 . S
H1322 C1332 0.930 1_556 S
H1323 C1335 0.929 1_556 S
H1324 C1338 0.930 . S
H1325 C1340 0.960 . S
H1326 C1340 0.960 . S
H1327 C1340 0.960 . S
C1328 H1320 0.929 . S
C1328 C1329 1.377 . S
C1328 C1330 1.384 . S
C1329 C1328 1.377 . S
C1329 C1335 1.390 . S
C1330 H1321 0.930 . S
C1330 C1328 1.384 . S
C1330 C1331 1.372 . S
C1331 C1330 1.372 . S
C1331 C1332 1.400 . S
C1331 C1336 1.490 . S
C1332 H1322 0.930 1_554 S
C1332 C1331 1.400 . S
C1332 C1335 1.386 . S
H1333 C1349 0.930 1_556 S
H1334 C1350 0.951 . S
C1335 H1323 0.929 1_554 S
C1335 C1329 1.390 . S
C1335 C1332 1.386 . S
C1336 C1331 1.490 . S
C1336 C1338 1.395 . S
C1336 C1339 1.403 . S
H1337 C1343 0.930 . S
C1338 H1324 0.930 . S
C1338 C1336 1.395 . S
C1338 C1341 1.403 . S
C1339 C1336 1.403 . S
C1339 C1340 1.524 1_554 S
C1339 C1343 1.400 . S
C1340 H1325 0.960 . S
C1340 H1326 0.960 . S
C1340 H1327 0.960 . S
C1340 C1339 1.524 1_556 S
C1341 C1338 1.403 . S
C1341 C1342 1.392 . S
C1341 C1345 1.495 . S
C1342 C1341 1.392 . S
C1342 C1343 1.385 . S
C1342 C1344 1.478 . S
C1343 H1337 0.930 . S
C1343 C1339 1.400 . S
C1343 C1342 1.385 . S
C1344 C1342 1.478 . S
C1344 C1346 1.381 . S
C1344 C1350 1.383 . S
C1345 C1341 1.495 . S
C1345 H1351 0.959 . S
C1345 H1352 0.961 . S
C1345 H1353 0.960 . S
C1346 C1344 1.381 . S
C1346 C1347 1.394 . S
C1346 H1354 0.930 . S
C1347 C1346 1.394 . S
C1347 C1348 1.383 . S
C1347 H1355 0.929 . S
C1348 C1347 1.383 . S
C1348 C1349 1.377 . S
C1349 H1333 0.930 1_554 S
C1349 C1348 1.377 . S
C1349 C1350 1.379 . S
C1350 H1334 0.951 . S
C1350 C1344 1.383 . S
C1350 C1349 1.379 . S
H1351 C1345 0.959 . S
H1352 C1345 0.961 . S
H1353 C1345 0.960 . S
H1354 C1346 0.930 . S
H1355 C1347 0.929 . S
H1356 C1364 0.929 . S
H1357 C1366 0.930 . S
H1358 C1368 0.930 . S
H1359 C1371 0.929 . S
H1360 C1374 0.930 . S
H1361 C1376 0.960 . S
H1362 C1376 0.960 . S
H1363 C1376 0.960 . S
C1364 H1356 0.929 . S
C1364 C1365 1.377 . S
C1364 C1366 1.384 . S
C1365 C1364 1.377 . S
C1365 C1371 1.390 . S
C1366 H1357 0.930 . S
C1366 C1364 1.384 . S
C1366 C1367 1.372 . S
C1367 C1366 1.372 . S
C1367 C1368 1.400 . S
C1367 C1372 1.490 . S
C1368 H1358 0.930 . S
C1368 C1367 1.400 . S
C1368 C1371 1.386 . S
H1369 C1385 0.930 . S
H1370 C1386 0.931 . S
C1371 H1359 0.929 . S
C1371 C1365 1.390 . S
C1371 C1368 1.386 . S
C1372 C1367 1.490 . S
C1372 C1374 1.395 . S
C1372 C1375 1.403 . S
H1373 C1379 0.930 . S
C1374 H1360 0.930 . S
C1374 C1372 1.395 . S
C1374 C1377 1.403 . S
C1375 C1372 1.403 . S
C1375 C1376 1.524 . S
C1375 C1379 1.400 . S
C1376 H1361 0.960 . S
C1376 H1362 0.960 . S
C1376 H1363 0.960 . S
C1376 C1375 1.524 . S
C1377 C1374 1.403 . S
C1377 C1378 1.392 . S
C1377 C1381 1.495 . S
C1378 C1377 1.392 . S
C1378 C1379 1.385 . S
C1378 C1380 1.478 . S
C1379 H1373 0.930 . S
C1379 C1375 1.400 . S
C1379 C1378 1.385 . S
C1380 C1378 1.478 . S
C1380 C1382 1.381 . S
C1380 C1386 1.383 . S
C1381 C1377 1.495 . S
C1381 H1387 0.959 . S
C1381 H1388 0.961 . S
C1381 H1389 0.960 . S
C1382 C1380 1.381 . S
C1382 C1383 1.394 . S
C1382 H1390 0.930 . S
C1383 C1382 1.394 . S
C1383 C1384 1.383 . S
C1383 H1391 0.929 . S
C1384 C1383 1.383 . S
C1384 C1385 1.377 . S
C1385 H1369 0.930 . S
C1385 C1384 1.377 . S
C1385 C1386 1.379 . S
C1386 H1370 0.931 . S
C1386 C1380 1.383 . S
C1386 C1385 1.379 . S
H1387 C1381 0.959 . S
H1388 C1381 0.961 . S
H1389 C1381 0.960 . S
H1390 C1382 0.930 . S
H1391 C1383 0.929 . S
H1392 C1400 0.929 . S
H1393 C1402 0.930 . S
H1394 C1404 0.930 . S
H1395 C1407 0.929 . S
H1396 C1410 0.930 . S
H1397 C1412 0.960 . S
H1398 C1412 0.960 . S
H1399 C1412 0.960 . S
C1400 H1392 0.929 . S
C1400 C1401 1.377 . S
C1400 C1402 1.384 . S
C1401 C1400 1.377 . S
C1401 C1407 1.390 . S
C1402 H1393 0.930 . S
C1402 C1400 1.384 . S
C1402 C1403 1.372 . S
C1403 C1402 1.372 . S
C1403 C1404 1.400 . S
C1403 C1408 1.490 . S
C1404 H1394 0.930 . S
C1404 C1403 1.400 . S
C1404 C1407 1.386 . S
H1405 C1421 0.930 . S
H1406 C1422 0.931 . S
C1407 H1395 0.929 . S
C1407 C1401 1.390 . S
C1407 C1404 1.386 . S
C1408 C1403 1.490 . S
C1408 C1410 1.395 . S
C1408 C1411 1.403 . S
H1409 C1415 0.930 . S
C1410 H1396 0.930 . S
C1410 C1408 1.395 . S
C1410 C1413 1.403 . S
C1411 C1408 1.403 . S
C1411 C1412 1.524 . S
C1411 C1415 1.400 . S
C1412 H1397 0.960 . S
C1412 H1398 0.960 . S
C1412 H1399 0.960 . S
C1412 C1411 1.524 . S
C1413 C1410 1.403 . S
C1413 C1414 1.392 . S
C1413 C1417 1.495 . S
C1414 C1413 1.392 . S
C1414 C1415 1.385 . S
C1414 C1416 1.478 . S
C1415 H1409 0.930 . S
C1415 C1411 1.400 . S
C1415 C1414 1.385 . S
C1416 C1414 1.478 . S
C1416 C1418 1.381 . S
C1416 C1422 1.383 . S
C1417 C1413 1.495 . S
C1417 H1423 0.959 . S
C1417 H1424 0.961 . S
C1417 H1425 0.960 . S
C1418 C1416 1.381 . S
C1418 C1419 1.394 . S
C1418 H1426 0.930 . S
C1419 C1418 1.394 . S
C1419 C1420 1.383 . S
C1419 H1427 0.929 . S
C1420 C1419 1.383 . S
C1420 C1421 1.377 . S
C1421 H1405 0.930 . S
C1421 C1420 1.377 . S
C1421 C1422 1.379 . S
C1422 H1406 0.931 . S
C1422 C1416 1.383 . S
C1422 C1421 1.379 . S
H1423 C1417 0.959 . S
H1424 C1417 0.961 . S
H1425 C1417 0.960 . S
H1426 C1418 0.930 . S
H1427 C1419 0.929 . S
H1428 C1436 0.929 . S
H1429 C1438 0.930 . S
H1430 C1440 0.930 . S
H1431 C1443 0.929 . S
H1432 C1446 0.930 . S
H1433 C1448 0.960 . S
H1434 C1448 0.960 . S
H1435 C1448 0.960 . S
C1436 H1428 0.929 . S
C1436 C1437 1.377 . S
C1436 C1438 1.384 . S
C1437 C1436 1.377 . S
C1437 C1443 1.390 . S
C1438 H1429 0.930 . S
C1438 C1436 1.384 . S
C1438 C1439 1.372 . S
C1439 C1438 1.372 . S
C1439 C1440 1.400 . S
C1439 C1444 1.490 . S
C1440 H1430 0.930 . S
C1440 C1439 1.400 . S
C1440 C1443 1.386 . S
H1441 C1457 0.930 . S
H1442 C1458 0.931 . S
C1443 H1431 0.929 . S
C1443 C1437 1.390 . S
C1443 C1440 1.386 . S
C1444 C1439 1.490 . S
C1444 C1446 1.395 . S
C1444 C1447 1.403 . S
H1445 C1451 0.930 . S
C1446 H1432 0.930 . S
C1446 C1444 1.395 . S
C1446 C1449 1.403 . S
C1447 C1444 1.403 . S
C1447 C1448 1.524 . S
C1447 C1451 1.400 . S
C1448 H1433 0.960 . S
C1448 H1434 0.960 . S
C1448 H1435 0.960 . S
C1448 C1447 1.524 . S
C1449 C1446 1.403 . S
C1449 C1450 1.392 . S
C1449 C1453 1.495 . S
C1450 C1449 1.392 . S
C1450 C1451 1.385 . S
C1450 C1452 1.478 . S
C1451 H1445 0.930 . S
C1451 C1447 1.400 . S
C1451 C1450 1.385 . S
C1452 C1450 1.478 . S
C1452 C1454 1.381 . S
C1452 C1458 1.383 . S
C1453 C1449 1.495 . S
C1453 H1459 0.959 . S
C1453 H1460 0.961 . S
C1453 H1461 0.960 . S
C1454 C1452 1.381 . S
C1454 C1455 1.394 . S
C1454 H1462 0.930 . S
C1455 C1454 1.394 . S
C1455 C1456 1.383 . S
C1455 H1463 0.929 . S
C1456 C1455 1.383 . S
C1456 C1457 1.377 . S
C1457 H1441 0.930 . S
C1457 C1456 1.377 . S
C1457 C1458 1.379 . S
C1458 H1442 0.931 . S
C1458 C1452 1.383 . S
C1458 C1457 1.379 . S
H1459 C1453 0.959 . S
H1460 C1453 0.961 . S
H1461 C1453 0.960 . S
H1462 C1454 0.930 . S
H1463 C1455 0.929 . S
H1464 C1472 0.929 . S
H1465 C1474 0.930 . S
H1466 C1476 0.930 . S
H1467 C1479 0.929 . S
H1468 C1482 0.930 . S
H1469 C1484 0.960 . S
H1470 C1484 0.960 . S
H1471 C1484 0.960 . S
C1472 H1464 0.929 . S
C1472 C1473 1.377 . S
C1472 C1474 1.384 . S
C1473 C1472 1.377 . S
C1473 C1479 1.390 . S
C1474 H1465 0.930 . S
C1474 C1472 1.384 . S
C1474 C1475 1.372 . S
C1475 C1474 1.372 . S
C1475 C1476 1.400 . S
C1475 C1480 1.490 . S
C1476 H1466 0.930 . S
C1476 C1475 1.400 . S
C1476 C1479 1.386 . S
H1477 C1493 0.930 . S
H1478 C1494 0.931 . S
C1479 H1467 0.929 . S
C1479 C1473 1.390 . S
C1479 C1476 1.386 . S
C1480 C1475 1.490 . S
C1480 C1482 1.395 . S
C1480 C1483 1.403 . S
H1481 C1487 0.930 . S
C1482 H1468 0.930 . S
C1482 C1480 1.395 . S
C1482 C1485 1.403 . S
C1483 C1480 1.403 . S
C1483 C1484 1.524 . S
C1483 C1487 1.400 . S
C1484 H1469 0.960 . S
C1484 H1470 0.960 . S
C1484 H1471 0.960 . S
C1484 C1483 1.524 . S
C1485 C1482 1.403 . S
C1485 C1486 1.392 . S
C1485 C1489 1.495 . S
C1486 C1485 1.392 . S
C1486 C1487 1.385 . S
C1486 C1488 1.478 . S
C1487 H1481 0.930 . S
C1487 C1483 1.400 . S
C1487 C1486 1.385 . S
C1488 C1486 1.478 . S
C1488 C1490 1.381 . S
C1488 C1494 1.383 . S
C1489 C1485 1.495 . S
C1489 H1495 0.959 . S
C1489 H1496 0.961 . S
C1489 H1497 0.960 . S
C1490 C1488 1.381 . S
C1490 C1491 1.394 . S
C1490 H1498 0.930 . S
C1491 C1490 1.394 . S
C1491 C1492 1.383 . S
C1491 H1499 0.929 . S
C1492 C1491 1.383 . S
C1492 C1493 1.377 . S
C1493 H1477 0.930 . S
C1493 C1492 1.377 . S
C1493 C1494 1.379 . S
C1494 H1478 0.931 . S
C1494 C1488 1.383 . S
C1494 C1493 1.379 . S
H1495 C1489 0.959 . S
H1496 C1489 0.961 . S
H1497 C1489 0.960 . S
H1498 C1490 0.930 . S
H1499 C1491 0.929 . S
H1500 C1508 0.929 . S
H1501 C1510 0.930 . S
H1502 C1512 0.930 . S
H1503 C1515 0.929 . S
H1504 C1518 0.930 . S
H1505 C1520 0.960 . S
H1506 C1520 0.960 . S
H1507 C1520 0.960 . S
C1508 H1500 0.929 . S
C1508 C1509 1.377 . S
C1508 C1510 1.384 . S
C1509 C1508 1.377 . S
C1509 C1515 1.390 . S
C1510 H1501 0.930 . S
C1510 C1508 1.384 . S
C1510 C1511 1.372 . S
C1511 C1510 1.372 . S
C1511 C1512 1.400 . S
C1511 C1516 1.490 . S
C1512 H1502 0.930 . S
C1512 C1511 1.400 . S
C1512 C1515 1.386 . S
H1513 C1529 0.930 . S
H1514 C1530 0.931 . S
C1515 H1503 0.929 . S
C1515 C1509 1.390 . S
C1515 C1512 1.386 . S
C1516 C1511 1.490 . S
C1516 C1518 1.395 . S
C1516 C1519 1.403 . S
H1517 C1523 0.930 . S
C1518 H1504 0.930 . S
C1518 C1516 1.395 . S
C1518 C1521 1.403 . S
C1519 C1516 1.403 . S
C1519 C1520 1.524 . S
C1519 C1523 1.400 . S
C1520 H1505 0.960 . S
C1520 H1506 0.960 . S
C1520 H1507 0.960 . S
C1520 C1519 1.524 . S
C1521 C1518 1.403 . S
C1521 C1522 1.392 . S
C1521 C1525 1.495 . S
C1522 C1521 1.392 . S
C1522 C1523 1.385 . S
C1522 C1524 1.478 . S
C1523 H1517 0.930 . S
C1523 C1519 1.400 . S
C1523 C1522 1.385 . S
C1524 C1522 1.478 . S
C1524 C1526 1.381 . S
C1524 C1530 1.383 . S
C1525 C1521 1.495 . S
C1525 H1531 0.959 . S
C1525 H1532 0.961 . S
C1525 H1533 0.960 . S
C1526 C1524 1.381 . S
C1526 C1527 1.394 . S
C1526 H1534 0.930 . S
C1527 C1526 1.394 . S
C1527 C1528 1.383 . S
C1527 H1535 0.929 . S
C1528 C1527 1.383 . S
C1528 C1529 1.377 . S
C1529 H1513 0.930 . S
C1529 C1528 1.377 . S
C1529 C1530 1.379 . S
C1530 H1514 0.931 . S
C1530 C1524 1.383 . S
C1530 C1529 1.379 . S
H1531 C1525 0.959 . S
H1532 C1525 0.961 . S
H1533 C1525 0.960 . S
H1534 C1526 0.930 . S
H1535 C1527 0.929 . S
H1536 C1544 0.929 . S
H1537 C1546 0.930 . S
H1538 C1548 0.930 . S
H1539 C1551 0.929 . S
H1540 C1554 0.930 . S
H1541 C1556 0.960 . S
H1542 C1556 0.960 . S
H1543 C1556 0.960 . S
C1544 H1536 0.929 . S
C1544 C1545 1.377 . S
C1544 C1546 1.384 . S
C1545 C1544 1.377 . S
C1545 C1551 1.390 . S
C1546 H1537 0.930 . S
C1546 C1544 1.384 . S
C1546 C1547 1.372 . S
C1547 C1546 1.372 . S
C1547 C1548 1.400 . S
C1547 C1552 1.490 . S
C1548 H1538 0.930 . S
C1548 C1547 1.400 . S
C1548 C1551 1.386 . S
H1549 C1565 0.930 . S
H1550 C1566 0.931 . S
C1551 H1539 0.929 . S
C1551 C1545 1.390 . S
C1551 C1548 1.386 . S
C1552 C1547 1.490 . S
C1552 C1554 1.395 . S
C1552 C1555 1.403 . S
H1553 C1559 0.930 . S
C1554 H1540 0.930 . S
C1554 C1552 1.395 . S
C1554 C1557 1.403 . S
C1555 C1552 1.403 . S
C1555 C1556 1.524 . S
C1555 C1559 1.400 . S
C1556 H1541 0.960 . S
C1556 H1542 0.960 . S
C1556 H1543 0.960 . S
C1556 C1555 1.524 . S
C1557 C1554 1.403 . S
C1557 C1558 1.392 . S
C1557 C1561 1.495 . S
C1558 C1557 1.392 . S
C1558 C1559 1.385 . S
C1558 C1560 1.478 . S
C1559 H1553 0.930 . S
C1559 C1555 1.400 . S
C1559 C1558 1.385 . S
C1560 C1558 1.478 . S
C1560 C1562 1.381 . S
C1560 C1566 1.383 . S
C1561 C1557 1.495 . S
C1561 H1567 0.959 . S
C1561 H1568 0.961 . S
C1561 H1569 0.960 . S
C1562 C1560 1.381 . S
C1562 C1563 1.394 . S
C1562 H1570 0.930 . S
C1563 C1562 1.394 . S
C1563 C1564 1.383 . S
C1563 H1571 0.929 . S
C1564 C1563 1.383 . S
C1564 C1565 1.377 . S
C1565 H1549 0.930 . S
C1565 C1564 1.377 . S
C1565 C1566 1.379 . S
C1566 H1550 0.931 . S
C1566 C1560 1.383 . S
C1566 C1565 1.379 . S
H1567 C1561 0.959 . S
H1568 C1561 0.961 . S
H1569 C1561 0.960 . S
H1570 C1562 0.930 . S
H1571 C1563 0.929 . S
C717 C33 1.786 . S
C736 C623 1.800 . S
C753 C92 1.790 . S
C772 C682 1.792 . S
C789 C387 1.788 . S
C808 C151 1.776 . S
C825 C210 1.787 . S
C844 C446 1.803 . S
C861 C505 1.785 . S
C880 C269 1.799 . S
C897 C564 1.787 . S
C916 C328 1.802 . S
C933 C406 0.352 . S
C952 C52 0.352 . S
C969 C465 0.359 . S
C988 C111 0.378 . S
C1005 C524 0.353 . S
C1024 C170 0.357 . S
C1041 C229 0.357 . S
C1060 C583 0.367 . S
C1077 C288 0.359 . S
C1096 C642 0.379 . S
C1113 C347 0.352 . S
C1132 C701 0.346 . S
C1149 C5 1.512 . S
C1168 C182 1.510 . S
C1185 C64 1.509 . S
C1204 C241 1.505 . S
C1221 C123 1.512 . S
C1240 C300 1.517 . S
C1257 C536 1.514 . S
C1276 C359 1.513 . S
C1293 C595 1.507 . S
C1312 C418 1.493 . S
C1329 C654 1.512 . S
C1348 C477 1.521 . S
C1365 C3 1.282 . S
C1384 C475 1.250 . S
C1401 C534 1.293 . S
C1420 C62 1.294 . S
C1437 C121 1.289 . S
C1456 C593 1.310 . S
C1473 C652 1.289 . S
C1492 C180 1.310 . S
C1509 C239 1.293 . S
C1528 C357 1.292 . S
C1545 C298 1.287 . S
C1564 C416 1.251 . S
