# Generated by pormake.
# Topology pem, (4)-cn, num edge types: 1
# Building blocks:
#     Node 0, Type 0, BuildingBlock: CEKHIL_clean_sbu_0, # of connection points: 4
#     Node 1, Type 0, BuildingBlock: CEKHIL_clean_sbu_0, # of connection points: 4
#     Node 2, Type 0, BuildingBlock: CEKHIL_clean_sbu_0, # of connection points: 4
#     Node 3, Type 0, BuildingBlock: CEKHIL_clean_sbu_0, # of connection points: 4
#     Node 4, Type 0, BuildingBlock: CEKHIL_clean_sbu_0, # of connection points: 4
#     Node 5, Type 0, BuildingBlock: CEKHIL_clean_sbu_0, # of connection points: 4
#     Node 6, Type 0, BuildingBlock: CEKHIL_clean_sbu_0, # of connection points: 4
#     Node 7, Type 0, BuildingBlock: CEKHIL_clean_sbu_0, # of connection points: 4
#     Node 8, Type 0, BuildingBlock: CEKHIL_clean_sbu_0, # of connection points: 4
#     Node 9, Type 0, BuildingBlock: CEKHIL_clean_sbu_0, # of connection points: 4
#     Node 10, Type 0, BuildingBlock: CEKHIL_clean_sbu_0, # of connection points: 4
#     Node 11, Type 0, BuildingBlock: CEKHIL_clean_sbu_0, # of connection points: 4
#     Node 12, Type 0, BuildingBlock: CEKHIL_clean_sbu_0, # of connection points: 4
#     Node 13, Type 0, BuildingBlock: CEKHIL_clean_sbu_0, # of connection points: 4
#     Node 14, Type 0, BuildingBlock: CEKHIL_clean_sbu_0, # of connection points: 4
#     Node 15, Type 0, BuildingBlock: CEKHIL_clean_sbu_0, # of connection points: 4
#     Node 16, Type 0, BuildingBlock: CEKHIL_clean_sbu_0, # of connection points: 4
#     Node 17, Type 0, BuildingBlock: CEKHIL_clean_sbu_0, # of connection points: 4
#     Node 18, Type 0, BuildingBlock: CEKHIL_clean_sbu_0, # of connection points: 4
#     Node 19, Type 0, BuildingBlock: CEKHIL_clean_sbu_0, # of connection points: 4
#     Node 20, Type 0, BuildingBlock: CEKHIL_clean_sbu_0, # of connection points: 4
#     Node 21, Type 0, BuildingBlock: CEKHIL_clean_sbu_0, # of connection points: 4
#     Node 22, Type 0, BuildingBlock: CEKHIL_clean_sbu_0, # of connection points: 4
#     Node 23, Type 0, BuildingBlock: CEKHIL_clean_sbu_0, # of connection points: 4
#     Node 24, Type 0, BuildingBlock: CEKHIL_clean_sbu_0, # of connection points: 4
#     Node 25, Type 0, BuildingBlock: CEKHIL_clean_sbu_0, # of connection points: 4
#     Node 26, Type 0, BuildingBlock: CEKHIL_clean_sbu_0, # of connection points: 4
#     Node 27, Type 0, BuildingBlock: CEKHIL_clean_sbu_0, # of connection points: 4
#     Node 28, Type 0, BuildingBlock: CEKHIL_clean_sbu_0, # of connection points: 4
#     Node 29, Type 0, BuildingBlock: CEKHIL_clean_sbu_0, # of connection points: 4
#     Node 30, Type 0, BuildingBlock: CEKHIL_clean_sbu_0, # of connection points: 4
#     Node 31, Type 0, BuildingBlock: CEKHIL_clean_sbu_0, # of connection points: 4
#     Edge 32, Type (0, 0), BuildingBlock: MIFKUJ_clean_linker_0, # of connection points: 2
#     Edge 33, Type (0, 0), BuildingBlock: MIFKUJ_clean_linker_0, # of connection points: 2
#     Edge 34, Type (0, 0), BuildingBlock: MIFKUJ_clean_linker_0, # of connection points: 2
#     Edge 35, Type (0, 0), BuildingBlock: MIFKUJ_clean_linker_0, # of connection points: 2
#     Edge 36, Type (0, 0), BuildingBlock: MIFKUJ_clean_linker_0, # of connection points: 2
#     Edge 37, Type (0, 0), BuildingBlock: MIFKUJ_clean_linker_0, # of connection points: 2
#     Edge 38, Type (0, 0), BuildingBlock: MIFKUJ_clean_linker_0, # of connection points: 2
#     Edge 39, Type (0, 0), BuildingBlock: MIFKUJ_clean_linker_0, # of connection points: 2
#     Edge 40, Type (0, 0), BuildingBlock: MIFKUJ_clean_linker_0, # of connection points: 2
#     Edge 41, Type (0, 0), BuildingBlock: MIFKUJ_clean_linker_0, # of connection points: 2
#     Edge 42, Type (0, 0), BuildingBlock: MIFKUJ_clean_linker_0, # of connection points: 2
#     Edge 43, Type (0, 0), BuildingBlock: MIFKUJ_clean_linker_0, # of connection points: 2
#     Edge 44, Type (0, 0), BuildingBlock: MIFKUJ_clean_linker_0, # of connection points: 2
#     Edge 45, Type (0, 0), BuildingBlock: MIFKUJ_clean_linker_0, # of connection points: 2
#     Edge 46, Type (0, 0), BuildingBlock: MIFKUJ_clean_linker_0, # of connection points: 2
#     Edge 47, Type (0, 0), BuildingBlock: MIFKUJ_clean_linker_0, # of connection points: 2
#     Edge 48, Type (0, 0), BuildingBlock: MIFKUJ_clean_linker_0, # of connection points: 2
#     Edge 49, Type (0, 0), BuildingBlock: MIFKUJ_clean_linker_0, # of connection points: 2
#     Edge 50, Type (0, 0), BuildingBlock: MIFKUJ_clean_linker_0, # of connection points: 2
#     Edge 51, Type (0, 0), BuildingBlock: MIFKUJ_clean_linker_0, # of connection points: 2
#     Edge 52, Type (0, 0), BuildingBlock: MIFKUJ_clean_linker_0, # of connection points: 2
#     Edge 53, Type (0, 0), BuildingBlock: MIFKUJ_clean_linker_0, # of connection points: 2
#     Edge 54, Type (0, 0), BuildingBlock: MIFKUJ_clean_linker_0, # of connection points: 2
#     Edge 55, Type (0, 0), BuildingBlock: MIFKUJ_clean_linker_0, # of connection points: 2
#     Edge 56, Type (0, 0), BuildingBlock: MIFKUJ_clean_linker_0, # of connection points: 2
#     Edge 57, Type (0, 0), BuildingBlock: MIFKUJ_clean_linker_0, # of connection points: 2
#     Edge 58, Type (0, 0), BuildingBlock: MIFKUJ_clean_linker_0, # of connection points: 2
#     Edge 59, Type (0, 0), BuildingBlock: MIFKUJ_clean_linker_0, # of connection points: 2
#     Edge 60, Type (0, 0), BuildingBlock: MIFKUJ_clean_linker_0, # of connection points: 2
#     Edge 61, Type (0, 0), BuildingBlock: MIFKUJ_clean_linker_0, # of connection points: 2
#     Edge 62, Type (0, 0), BuildingBlock: MIFKUJ_clean_linker_0, # of connection points: 2
#     Edge 63, Type (0, 0), BuildingBlock: MIFKUJ_clean_linker_0, # of connection points: 2
#     Edge 64, Type (0, 0), BuildingBlock: MIFKUJ_clean_linker_0, # of connection points: 2
#     Edge 65, Type (0, 0), BuildingBlock: MIFKUJ_clean_linker_0, # of connection points: 2
#     Edge 66, Type (0, 0), BuildingBlock: MIFKUJ_clean_linker_0, # of connection points: 2
#     Edge 67, Type (0, 0), BuildingBlock: MIFKUJ_clean_linker_0, # of connection points: 2
#     Edge 68, Type (0, 0), BuildingBlock: MIFKUJ_clean_linker_0, # of connection points: 2
#     Edge 69, Type (0, 0), BuildingBlock: MIFKUJ_clean_linker_0, # of connection points: 2
#     Edge 70, Type (0, 0), BuildingBlock: MIFKUJ_clean_linker_0, # of connection points: 2
#     Edge 71, Type (0, 0), BuildingBlock: MIFKUJ_clean_linker_0, # of connection points: 2
#     Edge 72, Type (0, 0), BuildingBlock: MIFKUJ_clean_linker_0, # of connection points: 2
#     Edge 73, Type (0, 0), BuildingBlock: MIFKUJ_clean_linker_0, # of connection points: 2
#     Edge 74, Type (0, 0), BuildingBlock: MIFKUJ_clean_linker_0, # of connection points: 2
#     Edge 75, Type (0, 0), BuildingBlock: MIFKUJ_clean_linker_0, # of connection points: 2
#     Edge 76, Type (0, 0), BuildingBlock: MIFKUJ_clean_linker_0, # of connection points: 2
#     Edge 77, Type (0, 0), BuildingBlock: MIFKUJ_clean_linker_0, # of connection points: 2
#     Edge 78, Type (0, 0), BuildingBlock: MIFKUJ_clean_linker_0, # of connection points: 2
#     Edge 79, Type (0, 0), BuildingBlock: MIFKUJ_clean_linker_0, # of connection points: 2
#     Edge 80, Type (0, 0), BuildingBlock: MIFKUJ_clean_linker_0, # of connection points: 2
#     Edge 81, Type (0, 0), BuildingBlock: MIFKUJ_clean_linker_0, # of connection points: 2
#     Edge 82, Type (0, 0), BuildingBlock: MIFKUJ_clean_linker_0, # of connection points: 2
#     Edge 83, Type (0, 0), BuildingBlock: MIFKUJ_clean_linker_0, # of connection points: 2
#     Edge 84, Type (0, 0), BuildingBlock: MIFKUJ_clean_linker_0, # of connection points: 2
#     Edge 85, Type (0, 0), BuildingBlock: MIFKUJ_clean_linker_0, # of connection points: 2
#     Edge 86, Type (0, 0), BuildingBlock: MIFKUJ_clean_linker_0, # of connection points: 2
#     Edge 87, Type (0, 0), BuildingBlock: MIFKUJ_clean_linker_0, # of connection points: 2
#     Edge 88, Type (0, 0), BuildingBlock: MIFKUJ_clean_linker_0, # of connection points: 2
#     Edge 89, Type (0, 0), BuildingBlock: MIFKUJ_clean_linker_0, # of connection points: 2
#     Edge 90, Type (0, 0), BuildingBlock: MIFKUJ_clean_linker_0, # of connection points: 2
#     Edge 91, Type (0, 0), BuildingBlock: MIFKUJ_clean_linker_0, # of connection points: 2
#     Edge 92, Type (0, 0), BuildingBlock: MIFKUJ_clean_linker_0, # of connection points: 2
#     Edge 93, Type (0, 0), BuildingBlock: MIFKUJ_clean_linker_0, # of connection points: 2
#     Edge 94, Type (0, 0), BuildingBlock: MIFKUJ_clean_linker_0, # of connection points: 2
#     Edge 95, Type (0, 0), BuildingBlock: MIFKUJ_clean_linker_0, # of connection points: 2
# Relax obj value: 0.214
# Max RMSD: 0.174
# Mean RMSD: 0.151
data_MOF--net-pem--node1-CEKHIL_clean_sbu_0--edge1-MIFKUJ_clean_linker_0
_symmetry_space_group_name_H-M    P1
_symmetry_Int_Tables_number       1
_symmetry_cell_setting            triclinic
loop_
_symmetry_equiv_pos_as_xyz
'x, y, z'
_cell_length_a     60.840289
_cell_length_b     50.705889
_cell_length_c     50.716885
_cell_angle_alpha  93.797993
_cell_angle_beta   91.610471
_cell_angle_gamma 91.638951
loop_
_atom_site_label
_atom_site_type_symbol
_atom_site_fract_x
_atom_site_fract_y
_atom_site_fract_z
_atom_type_partial_charge
Co0 Co 0.10931 0.08574 0.11308 0.0
O1 O 0.13347 0.07018 0.09353 0.0
O2 O 0.12679 0.11267 0.0964 0.0
C3 C 0.11447 0.06039 0.14891 0.0
O4 O 0.0854 0.11015 0.13038 0.0
Co5 Co 0.06911 0.05285 0.13166 0.0
O6 O 0.05845 0.08614 0.14785 0.0
C7 C 0.07233 0.06786 0.07584 0.0
C8 C 0.13858 0.09366 0.08648 0.0
C9 C 0.06674 0.10833 0.14228 0.0
O10 O 0.09021 0.08135 0.08059 0.0
O11 O 0.06248 0.05466 0.0929 0.0
O12 O 0.12632 0.08174 0.14642 0.0
O13 O 0.10065 0.05466 0.12964 0.0
Co14 Co 0.16627 0.82633 0.36795 0.0
O15 O 0.18387 0.81048 0.39505 0.0
O16 O 0.18692 0.85224 0.38569 0.0
C17 C 0.13352 0.80707 0.37735 0.0
O18 O 0.15105 0.84979 0.34123 0.0
Co19 Co 0.14296 0.79065 0.32226 0.0
O20 O 0.13079 0.82404 0.31117 0.0
C21 C 0.19068 0.80221 0.32188 0.0
C22 C 0.19414 0.8332 0.39927 0.0
C23 C 0.13785 0.84671 0.3206 0.0
O24 O 0.18921 0.81841 0.34203 0.0
O25 O 0.17452 0.78778 0.31187 0.0
O26 O 0.14115 0.8279 0.39123 0.0
O27 O 0.14674 0.79721 0.36018 0.0
Co28 Co 0.42144 0.8772 0.59537 0.0
O29 O 0.39325 0.88875 0.58253 0.0
O30 O 0.40499 0.84828 0.57547 0.0
C31 C 0.41984 0.89682 0.63655 0.0
O32 O 0.4492 0.85805 0.60644 0.0
Co33 Co 0.45932 0.91727 0.61494 0.0
O34 O 0.47011 0.88668 0.6329 0.0
C35 C 0.44897 0.9066 0.55768 0.0
C36 C 0.38967 0.86515 0.57152 0.0
C37 C 0.46524 0.86333 0.62343 0.0
O38 O 0.435 0.88798 0.56186 0.0
O39 O 0.45924 0.92096 0.57603 0.0
O40 O 0.40993 0.87404 0.63078 0.0
O41 O 0.42856 0.90773 0.61707 0.0
Co42 Co 0.34588 0.14742 0.8596 0.0
O43 O 0.37102 0.16308 0.84241 0.0
O44 O 0.36512 0.16887 0.88486 0.0
C45 C 0.34864 0.10665 0.83777 0.0
O46 O 0.32205 0.13503 0.88558 0.0
Co47 Co 0.30421 0.12326 0.82907 0.0
O48 O 0.29314 0.11434 0.8635 0.0
C49 C 0.31254 0.18144 0.83522 0.0
C50 C 0.3774 0.17427 0.8652 0.0
C51 C 0.3029 0.12291 0.88501 0.0
O52 O 0.32846 0.1792 0.85201 0.0
O53 O 0.30226 0.16172 0.82293 0.0
O54 O 0.36065 0.11339 0.85895 0.0
O55 O 0.33596 0.12465 0.83012 0.0
Co56 Co 0.09492 0.88048 0.42094 0.0
O57 O 0.0845 0.84796 0.43454 0.0
O58 O 0.07641 0.85871 0.39437 0.0
C59 C 0.12956 0.87957 0.43967 0.0
O60 O 0.10324 0.91323 0.40048 0.0
Co61 Co 0.10961 0.92716 0.46173 0.0
O62 O 0.11424 0.94694 0.42979 0.0
C63 C 0.06451 0.90537 0.45745 0.0
C64 C 0.07286 0.84267 0.413 0.0
C65 C 0.1102 0.93744 0.40617 0.0
O66 O 0.06765 0.89743 0.43345 0.0
O67 O 0.08005 0.91447 0.4733 0.0
O68 O 0.12494 0.86693 0.41692 0.0
O69 O 0.11312 0.89059 0.4504 0.0
Co70 Co 0.35578 0.84451 0.64762 0.0
O71 O 0.38264 0.83223 0.66483 0.0
O72 O 0.37571 0.82808 0.62204 0.0
C73 C 0.35383 0.8844 0.6721 0.0
O74 O 0.33078 0.85446 0.62172 0.0
Co75 Co 0.31259 0.85696 0.6768 0.0
O76 O 0.3037 0.8738 0.64443 0.0
C77 C 0.32512 0.80144 0.66454 0.0
C78 C 0.38863 0.82279 0.64176 0.0
C79 C 0.31258 0.86713 0.62268 0.0
O80 O 0.34163 0.80869 0.6513 0.0
O81 O 0.31247 0.81756 0.67668 0.0
O82 O 0.36656 0.88206 0.65188 0.0
O83 O 0.34412 0.86276 0.67764 0.0
Co84 Co 0.39706 0.10448 0.94666 0.0
O85 O 0.37447 0.08681 0.96558 0.0
O86 O 0.37861 0.13023 0.96487 0.0
C87 C 0.39207 0.07735 0.90951 0.0
O88 O 0.41888 0.13003 0.92983 0.0
Co89 Co 0.43771 0.07674 0.92346 0.0
O90 O 0.44021 0.10718 0.9017 0.0
C91 C 0.43524 0.09166 0.98136 0.0
C92 C 0.36796 0.11006 0.97348 0.0
C93 C 0.43334 0.12893 0.9116 0.0
O94 O 0.41715 0.10372 0.97857 0.0
O95 O 0.44493 0.07946 0.96228 0.0
O96 O 0.37971 0.09767 0.91352 0.0
O97 O 0.40648 0.07389 0.92787 0.0
Co98 Co 0.15038 0.14807 0.17253 0.0
O99 O 0.13047 0.17416 0.18608 0.0
O100 O 0.13453 0.16302 0.14359 0.0
C101 C 0.14129 0.11772 0.20182 0.0
O102 O 0.17027 0.12333 0.15046 0.0
Co103 Co 0.18842 0.12762 0.20764 0.0
O104 O 0.19687 0.10669 0.17569 0.0
C105 C 0.19245 0.17937 0.183 0.0
C106 C 0.12523 0.17789 0.16165 0.0
C107 C 0.18805 0.11017 0.1532 0.0
O108 O 0.17367 0.17599 0.17121 0.0
O109 O 0.2004 0.16337 0.19908 0.0
O110 O 0.1293 0.12009 0.18065 0.0
O111 O 0.15748 0.1346 0.20558 0.0
Co112 Co 0.59107 0.39075 0.91816 0.0
O113 O 0.57265 0.36368 0.93258 0.0
O114 O 0.57474 0.36988 0.89009 0.0
C115 C 0.62128 0.38358 0.94435 0.0
O116 O 0.60737 0.41652 0.89489 0.0
Co117 Co 0.61101 0.43939 0.95152 0.0
O118 O 0.62448 0.45038 0.91886 0.0
C119 C 0.56318 0.43451 0.93824 0.0
C120 C 0.5656 0.35715 0.90855 0.0
C121 C 0.61933 0.43812 0.89679 0.0
O122 O 0.56622 0.41526 0.9213 0.0
O123 O 0.57851 0.44531 0.9535 0.0
O124 O 0.61697 0.36935 0.92247 0.0
O125 O 0.607 0.4012 0.95015 0.0
Co126 Co 0.85134 0.31188 0.13704 0.0
O127 O 0.87564 0.29682 0.15598 0.0
O128 O 0.87202 0.29474 0.11262 0.0
C129 C 0.85254 0.3506 0.16251 0.0
O130 O 0.8278 0.3252 0.11042 0.0
Co131 Co 0.80865 0.32941 0.165 0.0
O132 O 0.80341 0.34905 0.13366 0.0
C133 C 0.81839 0.27248 0.15457 0.0
C134 C 0.8832 0.28841 0.13344 0.0
C135 C 0.81126 0.34091 0.11177 0.0
O136 O 0.83442 0.27758 0.13958 0.0
O137 O 0.80738 0.29026 0.16688 0.0
O138 O 0.86551 0.34733 0.14265 0.0
O139 O 0.8402 0.33051 0.16683 0.0
Co140 Co 0.90327 0.60517 0.40799 0.0
O141 O 0.87941 0.58537 0.42363 0.0
O142 O 0.8828 0.6287 0.42626 0.0
C143 C 0.90165 0.57911 0.36887 0.0
O144 O 0.92512 0.63412 0.39576 0.0
Co145 Co 0.94649 0.58264 0.38692 0.0
O146 O 0.95324 0.6173 0.37319 0.0
C147 C 0.94038 0.5939 0.44491 0.0
C148 C 0.87187 0.6078 0.43269 0.0
C149 C 0.94291 0.63701 0.3826 0.0
O150 O 0.92145 0.60381 0.44132 0.0
O151 O 0.95179 0.58374 0.42618 0.0
O152 O 0.88853 0.59875 0.37287 0.0
O153 O 0.91518 0.57577 0.38818 0.0
Co154 Co 0.82134 0.65799 0.36942 0.0
O155 O 0.84858 0.671 0.35551 0.0
O156 O 0.83855 0.67853 0.3968 0.0
C157 C 0.82351 0.61711 0.34988 0.0
O158 O 0.79514 0.64663 0.39145 0.0
Co159 Co 0.78186 0.63751 0.33233 0.0
O160 O 0.76807 0.62738 0.36493 0.0
C161 C 0.79839 0.69279 0.33498 0.0
C162 C 0.85308 0.68205 0.3789 0.0
C163 C 0.77627 0.63435 0.38778 0.0
O164 O 0.8067 0.69054 0.35823 0.0
O165 O 0.79 0.67327 0.32049 0.0
O166 O 0.83409 0.6234 0.37222 0.0
O167 O 0.81312 0.63583 0.33974 0.0
Co168 Co 0.66837 0.32875 0.88086 0.0
O169 O 0.68456 0.32051 0.91307 0.0
O170 O 0.68701 0.35861 0.89475 0.0
C171 C 0.63475 0.31083 0.89004 0.0
O172 O 0.65493 0.3457 0.84865 0.0
Co173 Co 0.64768 0.28553 0.84013 0.0
O174 O 0.6367 0.31558 0.82104 0.0
C175 C 0.6957 0.29546 0.84396 0.0
C176 C 0.69421 0.34375 0.91286 0.0
C177 C 0.643 0.33935 0.82758 0.0
O178 O 0.69353 0.31585 0.85977 0.0
O179 O 0.67982 0.27988 0.83532 0.0
O180 O 0.64099 0.3343 0.89965 0.0
O181 O 0.64947 0.29823 0.87705 0.0
Co182 Co 0.93078 0.91698 0.86296 0.0
O183 O 0.96086 0.91107 0.85252 0.0
O184 O 0.93664 0.87939 0.85983 0.0
C185 C 0.92342 0.94942 0.83493 0.0
O186 O 0.89898 0.91475 0.87533 0.0
Co187 Co 0.91592 0.97137 0.88767 0.0
O188 O 0.88599 0.95525 0.88475 0.0
C189 C 0.93991 0.93422 0.92022 0.0
C190 C 0.95692 0.88607 0.85519 0.0
C191 C 0.88353 0.9302 0.88291 0.0
O192 O 0.94062 0.9172 0.90056 0.0
O193 O 0.93173 0.95712 0.91879 0.0
O194 O 0.92146 0.92453 0.82662 0.0
O195 O 0.93093 0.95366 0.85882 0.0
Co196 Co 0.84016 0.16646 0.62305 0.0
O197 O 0.86172 0.16249 0.65129 0.0
O198 O 0.84246 0.12939 0.63095 0.0
C199 C 0.86289 0.19537 0.60311 0.0
O200 O 0.81609 0.16218 0.5932 0.0
Co201 Co 0.82037 0.21909 0.61149 0.0
O202 O 0.80573 0.20132 0.57978 0.0
C203 C 0.80654 0.19088 0.65779 0.0
C204 C 0.85677 0.13742 0.64956 0.0
C205 C 0.80451 0.17622 0.57793 0.0
O206 O 0.81711 0.17062 0.64977 0.0
O207 O 0.80689 0.21264 0.64632 0.0
O208 O 0.8636 0.17006 0.59799 0.0
O209 O 0.84796 0.20264 0.61944 0.0
Co210 Co 0.55734 0.13306 0.40564 0.0
O211 O 0.53023 0.14169 0.38761 0.0
O212 O 0.55071 0.17008 0.41337 0.0
C213 C 0.57109 0.10938 0.37068 0.0
O214 O 0.58654 0.13216 0.42723 0.0
Co215 Co 0.57038 0.07452 0.41259 0.0
O216 O 0.59796 0.09037 0.42868 0.0
C217 C 0.53577 0.09959 0.44489 0.0
C218 C 0.53299 0.1654 0.39866 0.0
C219 C 0.60058 0.11512 0.43433 0.0
O220 O 0.53987 0.12264 0.43671 0.0
O221 O 0.54486 0.07846 0.43612 0.0
O222 O 0.57377 0.13503 0.37274 0.0
O223 O 0.55965 0.0994 0.38857 0.0
Co224 Co 0.6799 0.88096 0.14081 0.0
O225 O 0.70628 0.90118 0.1337 0.0
O226 O 0.68541 0.87882 0.10309 0.0
C227 C 0.66669 0.91284 0.16944 0.0
O228 O 0.65154 0.857 0.14006 0.0
Co229 Co 0.67006 0.86482 0.19752 0.0
O230 O 0.64502 0.84378 0.18074 0.0
C231 C 0.70813 0.84524 0.16813 0.0
C232 C 0.70304 0.89337 0.10899 0.0
C233 C 0.64057 0.84297 0.156 0.0
O234 O 0.69871 0.84986 0.14607 0.0
O235 O 0.70064 0.85281 0.19062 0.0
O236 O 0.66324 0.91371 0.14406 0.0
O237 O 0.67834 0.89365 0.17646 0.0
Co238 Co 0.90871 0.10884 0.59398 0.0
O239 O 0.89519 0.07382 0.59502 0.0
O240 O 0.90895 0.0971 0.63009 0.0
C241 C 0.88201 0.12261 0.56657 0.0
O242 O 0.92477 0.14564 0.5999 0.0
Co243 Co 0.92272 0.13298 0.54128 0.0
O244 O 0.91652 0.16535 0.5635 0.0
C245 C 0.95109 0.09511 0.56837 0.0
C246 C 0.89912 0.07529 0.62029 0.0
C247 C 0.92607 0.1661 0.58605 0.0
O248 O 0.93794 0.09353 0.58762 0.0
O249 O 0.94747 0.10882 0.54839 0.0
O250 O 0.87926 0.12314 0.59194 0.0
O251 O 0.90032 0.11337 0.55863 0.0
Co252 Co 0.67582 0.16232 0.35132 0.0
O253 O 0.70497 0.1484 0.35516 0.0
O254 O 0.68562 0.16452 0.38837 0.0
C255 C 0.66293 0.12868 0.32261 0.0
O256 O 0.6454 0.17924 0.35556 0.0
Co257 Co 0.65603 0.17716 0.29715 0.0
O258 O 0.62844 0.18236 0.31594 0.0
C259 C 0.69249 0.20934 0.32497 0.0
C260 C 0.70391 0.15452 0.38033 0.0
C261 C 0.62863 0.18517 0.34106 0.0
O262 O 0.68978 0.19776 0.34642 0.0
O263 O 0.68185 0.20258 0.30329 0.0
O264 O 0.6629 0.12623 0.348 0.0
O265 O 0.67123 0.15057 0.31543 0.0
Co266 Co 0.57661 0.88546 0.07932 0.0
O267 O 0.54738 0.88241 0.09336 0.0
O268 O 0.5657 0.84878 0.07639 0.0
C269 C 0.58954 0.91291 0.11371 0.0
O270 O 0.60711 0.88135 0.0619 0.0
Co271 Co 0.59595 0.94058 0.06641 0.0
O272 O 0.623 0.9217 0.05883 0.0
C273 C 0.56048 0.91283 0.0327 0.0
C274 C 0.54772 0.85733 0.08688 0.0
C275 C 0.62317 0.89665 0.05506 0.0
O276 O 0.56287 0.8913 0.04416 0.0
O277 O 0.57088 0.93455 0.04001 0.0
O278 O 0.58959 0.88744 0.11538 0.0
O279 O 0.58126 0.92079 0.09216 0.0
Co280 Co 0.82373 0.86919 0.84669 0.0
O281 O 0.79901 0.88961 0.85906 0.0
O282 O 0.82273 0.8709 0.88511 0.0
C283 C 0.83457 0.89614 0.81445 0.0
O284 O 0.85102 0.8462 0.84103 0.0
Co285 Co 0.82258 0.84474 0.78822 0.0
O286 O 0.85241 0.83367 0.79764 0.0
C287 C 0.79347 0.82395 0.82804 0.0
C288 C 0.80433 0.88321 0.88272 0.0
C289 C 0.86034 0.83406 0.8212 0.0
O290 O 0.80439 0.83675 0.84679 0.0
O291 O 0.79684 0.82635 0.80351 0.0
O292 O 0.84088 0.90169 0.83902 0.0
O293 O 0.82078 0.8765 0.81101 0.0
Co294 Co 0.42091 0.61785 0.0834 0.0
O295 O 0.39954 0.58908 0.08611 0.0
O296 O 0.41624 0.61111 0.12027 0.0
C297 C 0.40015 0.63645 0.05172 0.0
O298 O 0.44411 0.64886 0.08906 0.0
Co299 Co 0.4445 0.62766 0.03274 0.0
O300 O 0.45664 0.66098 0.05035 0.0
C301 C 0.45771 0.58396 0.06499 0.0
C302 C 0.40281 0.59184 0.11149 0.0
C303 C 0.45611 0.66411 0.07538 0.0
O304 O 0.4448 0.59202 0.08301 0.0
O305 O 0.45909 0.59445 0.04278 0.0
O306 O 0.3973 0.64174 0.0767 0.0
O307 O 0.4156 0.62013 0.04633 0.0
Co308 Co 0.17875 0.67842 0.85914 0.0
O309 O 0.20563 0.65912 0.86061 0.0
O310 O 0.19129 0.68057 0.89502 0.0
C311 C 0.16057 0.64583 0.83394 0.0
O312 O 0.15112 0.70101 0.86467 0.0
Co313 Co 0.15996 0.69344 0.80457 0.0
O314 O 0.13613 0.70932 0.82495 0.0
C315 C 0.20105 0.71847 0.82812 0.0
C316 C 0.20729 0.66665 0.88546 0.0
C317 C 0.13641 0.71164 0.85009 0.0
O318 O 0.19665 0.71025 0.85079 0.0
O319 O 0.18952 0.71204 0.80704 0.0
O320 O 0.1613 0.64538 0.85959 0.0
O321 O 0.17106 0.66541 0.82471 0.0
Co322 Co 0.08091 0.40077 0.58889 0.0
O323 O 0.05186 0.39533 0.60316 0.0
O324 O 0.07192 0.36378 0.58507 0.0
C325 C 0.09389 0.42907 0.62318 0.0
O326 O 0.11083 0.39668 0.57114 0.0
Co327 Co 0.10118 0.45489 0.57515 0.0
O328 O 0.1274 0.43565 0.56418 0.0
C329 C 0.06431 0.42837 0.54275 0.0
C330 C 0.05346 0.37049 0.59541 0.0
C331 C 0.12689 0.41055 0.56256 0.0
O332 O 0.06645 0.40666 0.55401 0.0
O333 O 0.07536 0.44969 0.54978 0.0
O334 O 0.09433 0.40356 0.6249 0.0
O335 O 0.08545 0.43661 0.60154 0.0
Co336 Co 0.19062 0.34682 0.6234 0.0
O337 O 0.2162 0.36768 0.61456 0.0
O338 O 0.19678 0.34135 0.58579 0.0
C339 C 0.17583 0.37954 0.64857 0.0
O340 O 0.16231 0.32323 0.62551 0.0
Co341 Co 0.18138 0.3369 0.68239 0.0
O342 O 0.15238 0.32374 0.66803 0.0
C343 C 0.21641 0.3086 0.65394 0.0
C344 C 0.2136 0.35767 0.59049 0.0
C345 C 0.14861 0.31737 0.64357 0.0
O346 O 0.21027 0.31694 0.6316 0.0
O347 O 0.2081 0.31582 0.67605 0.0
O348 O 0.17235 0.37814 0.62308 0.0
O349 O 0.18881 0.36254 0.65751 0.0
Co350 Co 0.3404 0.64793 0.13378 0.0
O351 O 0.36159 0.64433 0.16269 0.0
O352 O 0.34177 0.61122 0.14316 0.0
C353 C 0.3633 0.67551 0.11289 0.0
O354 O 0.31652 0.64378 0.10314 0.0
Co355 Co 0.32199 0.70181 0.12015 0.0
O356 O 0.30904 0.6833 0.08783 0.0
C357 C 0.30768 0.67497 0.16742 0.0
C358 C 0.35611 0.61943 0.16168 0.0
C359 C 0.3065 0.65829 0.08665 0.0
O360 O 0.31714 0.65374 0.15994 0.0
O361 O 0.30896 0.69639 0.15543 0.0
O362 O 0.36464 0.64994 0.1095 0.0
O363 O 0.34843 0.68357 0.1288 0.0
Co364 Co 0.59363 0.56879 0.615 0.0
O365 O 0.61908 0.55405 0.5977 0.0
O366 O 0.61128 0.5965 0.60104 0.0
C367 C 0.59617 0.54468 0.65094 0.0
O368 O 0.56995 0.59247 0.6302 0.0
Co369 Co 0.55144 0.53889 0.62854 0.0
O370 O 0.53745 0.57289 0.63749 0.0
C371 C 0.55826 0.55414 0.5739 0.0
C372 C 0.62391 0.57809 0.59182 0.0
C373 C 0.54949 0.59352 0.63603 0.0
O374 O 0.57676 0.56532 0.5808 0.0
O375 O 0.54629 0.54161 0.58956 0.0
O376 O 0.60803 0.56619 0.64936 0.0
O377 O 0.58354 0.53768 0.6306 0.0
Co378 Co 0.91987 0.39723 0.11342 0.0
O379 O 0.89557 0.41436 0.09618 0.0
O380 O 0.90208 0.37185 0.09081 0.0
C381 C 0.91516 0.41771 0.15407 0.0
O382 O 0.94252 0.37127 0.12702 0.0
Co383 Co 0.96002 0.42656 0.14294 0.0
O384 O 0.96786 0.39177 0.15483 0.0
C385 C 0.95487 0.42396 0.08411 0.0
C386 C 0.88982 0.39132 0.08495 0.0
C387 C 0.95933 0.37081 0.14313 0.0
O388 O 0.93933 0.40613 0.08365 0.0
O389 O 0.96329 0.43539 0.10546 0.0
O390 O 0.90333 0.39672 0.14616 0.0
O391 O 0.92862 0.42601 0.13727 0.0
Co392 Co 0.65927 0.63868 0.65473 0.0
O393 O 0.63572 0.6573 0.67251 0.0
O394 O 0.64147 0.65841 0.63008 0.0
C395 C 0.65374 0.60066 0.67627 0.0
O396 O 0.68283 0.62262 0.62942 0.0
Co397 Co 0.69893 0.61881 0.68768 0.0
O398 O 0.70994 0.60533 0.65343 0.0
C399 C 0.69573 0.67544 0.67702 0.0
C400 C 0.63024 0.66688 0.6503 0.0
C401 C 0.7017 0.61122 0.63131 0.0
O402 O 0.67891 0.67055 0.66157 0.0
O403 O 0.7049 0.65802 0.69045 0.0
O404 O 0.64203 0.605 0.6552 0.0
O405 O 0.66739 0.61955 0.68401 0.0
Co406 Co 0.42738 0.39661 0.37528 0.0
O407 O 0.45605 0.39272 0.3596 0.0
O408 O 0.43504 0.35949 0.37068 0.0
C409 C 0.41547 0.42797 0.34803 0.0
O410 O 0.3973 0.3935 0.39362 0.0
Co411 Co 0.41562 0.4514 0.40199 0.0
O412 O 0.38599 0.4349 0.40201 0.0
C413 C 0.44287 0.41444 0.43078 0.0
C414 C 0.45397 0.36755 0.36224 0.0
C415 C 0.38316 0.41003 0.40308 0.0
O416 O 0.44182 0.39754 0.41094 0.0
O417 O 0.43435 0.43726 0.43077 0.0
O418 O 0.41351 0.40292 0.34055 0.0
O419 O 0.42569 0.43302 0.37043 0.0
Co420 Co 0.07583 0.61526 0.87515 0.0
O421 O 0.04737 0.62085 0.85815 0.0
O422 O 0.06806 0.65226 0.87939 0.0
C423 C 0.08743 0.58894 0.84025 0.0
O424 O 0.10591 0.61862 0.89613 0.0
Co425 Co 0.09477 0.561 0.88691 0.0
O426 O 0.12242 0.57985 0.89925 0.0
C427 C 0.05604 0.5829 0.91469 0.0
C428 C 0.04993 0.64561 0.86621 0.0
C429 C 0.12228 0.60481 0.90371 0.0
O430 O 0.0602 0.6064 0.90779 0.0
O431 O 0.06649 0.56255 0.90642 0.0
O432 O 0.08954 0.61459 0.84023 0.0
O433 O 0.07904 0.58025 0.86106 0.0
Co434 Co 0.32941 0.38448 0.33593 0.0
O435 O 0.30116 0.40146 0.3383 0.0
O436 O 0.3227 0.39284 0.37238 0.0
C437 C 0.34227 0.40872 0.30293 0.0
O438 O 0.35868 0.36603 0.34215 0.0
Co439 Co 0.34349 0.35346 0.2846 0.0
O440 O 0.37117 0.34789 0.304 0.0
C441 C 0.31327 0.32878 0.32182 0.0
C442 C 0.30418 0.40173 0.36375 0.0
C443 C 0.37279 0.35235 0.32896 0.0
O444 O 0.314 0.34956 0.33752 0.0
O445 O 0.32293 0.32703 0.29966 0.0
O446 O 0.34412 0.41776 0.32753 0.0
O447 O 0.33191 0.38621 0.29893 0.0
H448 H 0.03151 0.07479 0.05595 0.0
H449 H 0.01474 0.04346 0.02224 0.0
H450 H 0.07883 0.01508 0.00277 0.0
H451 H 0.09575 0.04721 0.03582 0.0
H452 H 0.03791 0.00805 0.961 0.0
H453 H 0.0659 0.98386 0.04892 0.0
H454 H 0.07197 0.99321 0.09704 0.0
H455 H 1.00315 0.0071 0.10556 0.0
H456 H 0.9967 0.9976 0.05754 0.0
H457 H 0.97446 0.90156 0.92369 0.0
H458 H 0.00579 0.9122 0.95365 0.0
H459 H 0.96642 0.96589 1.00036 0.0
H460 H 0.93512 0.95583 0.97024 0.0
H461 H 0.00566 0.95074 0.02679 0.0
H462 H 0.97885 0.98667 0.94222 0.0
H463 H 0.96884 0.9798 0.89464 0.0
H464 H 0.0322 0.94777 0.87959 0.0
H465 H 0.04256 0.95501 0.92712 0.0
C466 C 0.04207 0.0633 0.04304 0.0
C467 C 0.0647 0.06273 0.04857 0.0
C468 C 0.03253 0.04533 0.02396 0.0
C469 C 0.04566 0.02661 0.01095 0.0
C470 C 0.06859 0.02938 0.01293 0.0
C471 C 0.0782 0.04781 0.03168 0.0
C472 C 0.03545 1.00099 0.00214 0.0
C473 C 0.03146 0.99496 0.9752 0.0
C474 C 0.027 0.98425 0.02094 0.0
C475 C 0.03086 0.99004 0.04974 0.0
C476 C 0.0521 0.98892 0.0611 0.0
C477 C 0.05558 0.9941 0.08834 0.0
C478 C 0.03794 1.00065 0.10436 0.0
C479 C 0.01678 0.00193 0.09316 0.0
C480 C 0.01319 0.99651 0.06597 0.0
C481 C 0.97205 0.91443 0.94123 0.0
C482 C 0.95292 0.92922 0.94398 0.0
C483 C 0.99001 0.92036 0.95839 0.0
C484 C 0.98851 0.94068 0.97825 0.0
C485 C 0.96789 0.95055 0.98464 0.0
C486 C 0.95003 0.94496 0.96731 0.0
C487 C 0.00776 0.95785 0.98558 0.0
C488 C 0.01326 0.96273 0.01239 0.0
C489 C 0.01732 0.97376 0.96666 0.0
C490 C 0.01123 0.97045 0.93815 0.0
C491 C 0.99055 0.97799 0.92874 0.0
C492 C 0.98484 0.97416 0.90182 0.0
C493 C 0.99975 0.96301 0.88416 0.0
C494 C 0.02056 0.95613 0.89332 0.0
C495 C 0.02636 0.9601 0.92019 0.0
H496 H 0.99525 0.95991 0.86336 0.0
H497 H 0.04069 0.00485 0.12541 0.0
H498 H 0.3295 0.66587 0.21256 0.0
H499 H 0.32241 0.68969 0.25495 0.0
H500 H 0.25956 0.71242 0.22372 0.0
H501 H 0.26713 0.69002 0.18104 0.0
H502 H 0.29921 0.75216 0.23095 0.0
H503 H 0.25517 0.6824 0.27185 0.0
H504 H 0.25142 0.64011 0.29296 0.0
H505 H 0.30171 0.66617 0.35071 0.0
H506 H 0.30591 0.70853 0.3297 0.0
H507 H 0.2009 0.78479 0.27199 0.0
H508 H 0.23714 0.77253 0.25708 0.0
H509 H 0.26606 0.79983 0.33307 0.0
H510 H 0.22986 0.81271 0.34802 0.0
H511 H 0.26792 0.74468 0.31931 0.0
H512 H 0.29213 0.82368 0.28385 0.0
H513 H 0.28874 0.86489 0.26102 0.0
H514 H 0.2684 0.82019 0.18921 0.0
H515 H 0.27133 0.77878 0.21157 0.0
C516 C 0.31365 0.67473 0.21535 0.0
C517 C 0.29893 0.6768 0.19378 0.0
C518 C 0.3097 0.68829 0.23949 0.0
C519 C 0.29077 0.7031 0.24195 0.0
C520 C 0.27436 0.70111 0.22182 0.0
C521 C 0.27859 0.68833 0.19755 0.0
C522 C 0.29037 0.726 0.26096 0.0
C523 C 0.29272 0.75085 0.25055 0.0
C524 C 0.28328 0.72403 0.28689 0.0
C525 C 0.28114 0.69836 0.29895 0.0
C526 C 0.26564 0.67894 0.28881 0.0
C527 C 0.26335 0.65503 0.30084 0.0
C528 C 0.27635 0.65044 0.32314 0.0
C529 C 0.29168 0.66974 0.33343 0.0
C530 C 0.29403 0.69368 0.32146 0.0
C531 C 0.21506 0.78884 0.28523 0.0
C532 C 0.2126 0.79906 0.31123 0.0
C533 C 0.23578 0.78227 0.27662 0.0
C534 C 0.25419 0.78552 0.29404 0.0
C535 C 0.25204 0.79757 0.31937 0.0
C536 C 0.23134 0.80463 0.32784 0.0
C537 C 0.27358 0.77021 0.28758 0.0
C538 C 0.27565 0.74667 0.30049 0.0
C539 C 0.28377 0.77312 0.26329 0.0
C540 C 0.28224 0.79801 0.24942 0.0
C541 C 0.28694 0.82261 0.26319 0.0
C542 C 0.28507 0.84603 0.25031 0.0
C543 C 0.27845 0.84515 0.22366 0.0
C544 C 0.27366 0.82085 0.20981 0.0
C545 C 0.27552 0.79737 0.22257 0.0
H546 H 0.27697 0.86331 0.21375 0.0
H547 H 0.27454 0.63192 0.33243 0.0
H548 H 0.41572 0.92199 0.52647 0.0
H549 H 0.42033 0.95996 0.49954 0.0
H550 H 0.49066 0.95198 0.5039 0.0
H551 H 0.48614 0.91448 0.53113 0.0
H552 H 0.4645 0.99597 0.53803 0.0
H553 H 0.47861 0.95316 0.45044 0.0
H554 H 0.46671 0.925 0.4108 0.0
H555 H 0.41268 0.97568 0.39764 0.0
H556 H 0.42412 0.00395 0.43745 0.0
H557 H 0.54163 0.07968 0.49193 0.0
H558 H 0.51453 0.05131 0.51063 0.0
H559 H 0.46414 0.08028 0.45919 0.0
H560 H 0.49205 0.10796 0.43935 0.0
H561 H 0.46646 0.03084 0.44914 0.0
H562 H 0.4599 0.08045 0.53123 0.0
H563 H 0.47224 0.1078 0.57122 0.0
H564 H 0.51139 0.0445 0.59651 0.0
H565 H 0.49957 0.0169 0.55659 0.0
C566 C 0.43204 0.92717 0.52004 0.0
C567 C 0.45066 0.91584 0.53113 0.0
C568 C 0.43464 0.94898 0.50482 0.0
C569 C 0.45583 0.95889 0.50029 0.0
C570 C 0.47419 0.9445 0.50731 0.0
C571 C 0.47161 0.92298 0.5227 0.0
C572 C 0.45934 0.98711 0.49622 0.0
C573 C 0.46489 0.00385 0.51866 0.0
C574 C 0.45868 0.99726 0.47111 0.0
C575 C 0.45203 0.98045 0.44708 0.0
C576 C 0.46406 0.95814 0.43924 0.0
C577 C 0.45744 0.94221 0.41671 0.0
C578 C 0.4389 0.94849 0.40176 0.0
C579 C 0.42701 0.9708 0.40926 0.0
C580 C 0.43357 0.9868 0.43179 0.0
C581 C 0.52453 0.08124 0.48581 0.0
C582 C 0.51884 0.09575 0.46423 0.0
C583 C 0.50888 0.06494 0.49654 0.0
C584 C 0.48714 0.06344 0.4863 0.0
C585 C 0.48082 0.081 0.46732 0.0
C586 C 0.49667 0.09713 0.45627 0.0
C587 C 0.47319 0.03981 0.49099 0.0
C588 C 0.46541 0.02367 0.46876 0.0
C589 C 0.47185 0.03013 0.51646 0.0
C590 C 0.47873 0.04654 0.54087 0.0
C591 C 0.47117 0.07237 0.54529 0.0
C592 C 0.47809 0.08792 0.56796 0.0
C593 C 0.49256 0.07788 0.58641 0.0
C594 C 0.50011 0.05223 0.58226 0.0
C595 C 0.49324 0.03658 0.55965 0.0
H596 H 0.49794 0.08998 0.60391 0.0
H597 H 0.43379 0.93612 0.38434 0.0
H598 H 0.27267 0.20078 0.82397 0.0
H599 H 0.2662 0.23161 0.78989 0.0
H600 H 0.33576 0.25004 0.78875 0.0
H601 H 0.34234 0.21935 0.82327 0.0
H602 H 0.29455 0.29172 0.77229 0.0
H603 H 0.33251 0.20668 0.75181 0.0
H604 H 0.33605 0.15982 0.76127 0.0
H605 H 0.26727 0.14536 0.74281 0.0
H606 H 0.26328 0.19223 0.73372 0.0
H607 H 0.2593 0.32161 0.64828 0.0
H608 H 0.28858 0.30257 0.67443 0.0
H609 H 0.24381 0.23915 0.69254 0.0
H610 H 0.2149 0.25796 0.66629 0.0
H611 H 0.28438 0.22361 0.69753 0.0
H612 H 0.24217 0.29983 0.72635 0.0
H613 H 0.22935 0.34535 0.72376 0.0
H614 H 0.29609 0.37543 0.73146 0.0
H615 H 0.30929 0.32999 0.73377 0.0
C616 C 0.28642 0.21261 0.81762 0.0
C617 C 0.308 0.20747 0.82576 0.0
C618 C 0.28272 0.23019 0.79817 0.0
C619 C 0.30059 0.24252 0.78659 0.0
C620 C 0.32183 0.2406 0.79757 0.0
C621 C 0.32554 0.22314 0.81733 0.0
C622 C 0.29747 0.25077 0.75952 0.0
C623 C 0.29314 0.27715 0.75563 0.0
C624 C 0.29489 0.23137 0.73819 0.0
C625 C 0.29762 0.20291 0.74213 0.0
C626 C 0.31816 0.19348 0.74978 0.0
C627 C 0.32024 0.16694 0.75512 0.0
C628 C 0.3019 0.14962 0.75263 0.0
C629 C 0.28147 0.15878 0.74469 0.0
C630 C 0.2793 0.18531 0.73941 0.0
C631 C 0.25628 0.30262 0.65633 0.0
C632 C 0.23498 0.29119 0.65557 0.0
C633 C 0.27291 0.29194 0.67155 0.0
C634 C 0.2681 0.26999 0.68612 0.0
C635 C 0.24785 0.25623 0.68165 0.0
C636 C 0.23132 0.26687 0.66649 0.0
C637 C 0.28138 0.26476 0.70999 0.0
C638 C 0.28723 0.23869 0.71356 0.0
C639 C 0.2846 0.28432 0.73125 0.0
C640 C 0.27673 0.31157 0.7298 0.0
C641 C 0.2541 0.31616 0.72728 0.0
C642 C 0.24677 0.34192 0.72589 0.0
C643 C 0.2619 0.36326 0.72732 0.0
C644 C 0.2844 0.35887 0.73024 0.0
C645 C 0.29182 0.33313 0.73157 0.0
H646 H 0.2562 0.38319 0.72626 0.0
H647 H 0.30352 0.12911 0.75687 0.0
H648 H 0.04812 0.89095 0.50335 0.0
H649 H 0.01939 0.91494 0.52633 0.0
H650 H 0.00345 0.95341 0.45524 0.0
H651 H 0.03155 0.9286 0.43186 0.0
H652 H 0.03747 0.97598 0.50371 0.0
H653 H 0.96463 0.94491 0.47429 0.0
H654 H 0.93422 0.91179 0.4676 0.0
H655 H 0.93199 0.90494 0.55142 0.0
H656 H 0.9627 0.93773 0.55858 0.0
H657 H 0.98301 0.09245 0.53179 0.0
H658 H 1.00255 0.05297 0.51914 0.0
H659 H 0.98091 0.01685 0.58907 0.0
H660 H 0.96035 0.05608 0.6014 0.0
H661 H 0.96594 0.98941 0.54618 0.0
H662 H 0.03646 0.02525 0.57563 0.0
H663 H 0.06623 0.05936 0.5814 0.0
H664 H 0.07331 0.05753 0.49732 0.0
H665 H 0.04336 0.02374 0.49098 0.0
C666 C 0.03743 0.90319 0.49224 0.0
C667 C 0.04221 0.90877 0.46629 0.0
C668 C 0.0209 0.91664 0.50526 0.0
C669 C 0.0098 0.93619 0.4925 0.0
C670 C 0.0119 0.93821 0.46524 0.0
C671 C 0.02806 0.92422 0.45198 0.0
C672 C 0.0047 0.96006 0.50858 0.0
C673 C 0.02178 0.97919 0.5129 0.0
C674 C 0.9846 0.96324 0.52118 0.0
C675 C 0.96621 0.94346 0.51694 0.0
C676 C 0.95789 0.93606 0.49127 0.0
C677 C 0.94053 0.91742 0.4874 0.0
C678 C 0.93124 0.90617 0.50907 0.0
C679 C 0.93925 0.91361 0.53466 0.0
C680 C 0.95662 0.93224 0.53863 0.0
C681 C 0.98295 0.0765 0.54499 0.0
C682 C 0.96934 0.07682 0.56689 0.0
C683 C 0.99435 0.05396 0.53785 0.0
C684 C 0.9928 0.03184 0.55298 0.0
C685 C 0.98196 0.03366 0.577 0.0
C686 C 0.9703 0.05614 0.58402 0.0
C687 C 0.99863 0.00588 0.54102 0.0
C688 C 0.98182 0.98617 0.53749 0.0
C689 C 0.01906 0.00212 0.52907 0.0
C690 C 0.03758 0.02195 0.53284 0.0
C691 C 0.0443 0.03217 0.55835 0.0
C692 C 0.06121 0.05147 0.56172 0.0
C693 C 0.07164 0.06062 0.53974 0.0
C694 C 0.06524 0.05041 0.51434 0.0
C695 C 0.04832 0.03113 0.51085 0.0
H696 H 0.08468 0.07562 0.54239 0.0
H697 H 0.91779 0.89175 0.50603 0.0
H698 H 0.28795 0.77068 0.66203 0.0
H699 H 0.28 0.74133 0.69679 0.0
H700 H 0.34882 0.74241 0.71956 0.0
H701 H 0.35689 0.77161 0.68443 0.0
H702 H 0.29693 0.6966 0.73059 0.0
H703 H 0.34863 0.7794 0.75763 0.0
H704 H 0.36143 0.82411 0.74703 0.0
H705 H 0.29477 0.84492 0.73045 0.0
H706 H 0.28172 0.80019 0.74029 0.0
H707 H 0.23982 0.70437 0.8494 0.0
H708 H 0.2754 0.71092 0.82905 0.0
H709 H 0.24638 0.76621 0.77816 0.0
H710 H 0.21072 0.75891 0.7977 0.0
H711 H 0.29172 0.77685 0.79152 0.0
H712 H 0.23919 0.70653 0.75733 0.0
H713 H 0.21604 0.66678 0.76349 0.0
H714 H 0.2731 0.62569 0.78797 0.0
H715 H 0.29652 0.66545 0.78235 0.0
C716 C 0.30158 0.76302 0.6731 0.0
C717 C 0.32288 0.77388 0.67122 0.0
C718 C 0.29704 0.74626 0.69305 0.0
C719 C 0.31377 0.74059 0.71121 0.0
C720 C 0.3357 0.74691 0.70584 0.0
C721 C 0.3403 0.76349 0.68562 0.0
C722 C 0.30729 0.73736 0.7386 0.0
C723 C 0.29672 0.71369 0.74462 0.0
C724 C 0.3062 0.76009 0.75631 0.0
C725 C 0.31429 0.78649 0.74943 0.0
C726 C 0.33679 0.79347 0.75145 0.0
C727 C 0.34406 0.81878 0.74559 0.0
C728 C 0.3289 0.83731 0.7381 0.0
C729 C 0.30648 0.83055 0.73627 0.0
C730 C 0.29916 0.80521 0.74183 0.0
C731 C 0.24136 0.71893 0.83482 0.0
C732 C 0.22265 0.73093 0.82473 0.0
C733 C 0.26163 0.72253 0.82317 0.0
C734 C 0.26329 0.73867 0.80191 0.0
C735 C 0.24532 0.75363 0.79457 0.0
C736 C 0.22499 0.74953 0.80572 0.0
C737 C 0.28155 0.73613 0.78362 0.0
C738 C 0.29374 0.75898 0.77892 0.0
C739 C 0.28346 0.71296 0.76674 0.0
C740 C 0.26953 0.68897 0.76972 0.0
C741 C 0.24676 0.68906 0.76418 0.0
C742 C 0.23359 0.66655 0.76756 0.0
C743 C 0.24308 0.64373 0.77616 0.0
C744 C 0.26577 0.6434 0.78136 0.0
C745 C 0.27899 0.66591 0.77811 0.0
H746 H 0.23288 0.62631 0.77873 0.0
H747 H 0.33448 0.85694 0.73377 0.0
H748 H 0.47613 0.09778 0.00443 0.0
H749 H 0.49146 0.05832 0.02168 0.0
H750 H 0.42596 0.02671 0.03171 0.0
H751 H 0.41064 0.06671 0.01571 0.0
H752 H 0.47426 0.0079 0.0638 0.0
H753 H 0.43295 0.99649 0.96398 0.0
H754 H 0.42931 0.01324 0.9195 0.0
H755 H 0.49296 0.05203 0.92994 0.0
H756 H 0.49698 0.03518 0.97429 0.0
H757 H 0.52057 0.88856 0.03682 0.0
H758 H 0.48703 0.91264 0.02978 0.0
H759 H 0.52298 0.96691 0.98361 0.0
H760 H 0.55638 0.94306 0.99078 0.0
H761 H 0.48039 0.96773 0.97232 0.0
H762 H 0.52945 0.97585 0.05174 0.0
H763 H 0.54802 0.95624 0.08933 0.0
H764 H 0.4856 0.92877 0.11609 0.0
H765 H 0.46668 0.94843 0.07867 0.0
C766 C 0.46506 0.08355 0.01262 0.0
C767 C 0.44229 0.08449 0.00763 0.0
C768 C 0.47383 0.06075 0.02206 0.0
C769 C 0.45972 0.03935 0.02678 0.0
C770 C 0.43703 0.04299 0.02773 0.0
C771 C 0.42831 0.0661 0.01891 0.0
C772 C 0.46777 0.01243 0.02245 0.0
C773 C 0.47514 0.99879 0.04391 0.0
C774 C 0.46938 1.00086 0.99644 0.0
C775 C 0.46495 0.01526 0.97262 0.0
C776 C 0.44586 0.00918 0.957 0.0
C777 C 0.44387 0.0184 0.93168 0.0
C778 C 0.46097 0.03359 0.92184 0.0
C779 C 0.47978 0.04023 0.93756 0.0
C780 C 0.48185 0.03099 0.96282 0.0
C781 C 0.52097 0.90454 0.02369 0.0
C782 C 0.5411 0.91491 0.01535 0.0
C783 C 0.5018 0.91843 0.01992 0.0
C784 C 0.50291 0.9422 0.00735 0.0
C785 C 0.52194 0.94888 0.99391 0.0
C786 C 0.54105 0.93515 0.99786 0.0
C787 C 0.48733 0.96326 0.01348 0.0
C788 C 0.47836 0.97602 0.99238 0.0
C789 C 0.48556 0.97462 0.03965 0.0
C790 C 0.49672 0.9634 0.06245 0.0
C791 C 0.51973 0.96565 0.0657 0.0
C792 C 0.5303 0.9545 0.08692 0.0
C793 C 0.51801 0.94114 0.10501 0.0
C794 C 0.4951 0.93908 0.10202 0.0
C795 C 0.48443 0.95027 0.08087 0.0
H796 H 0.52622 0.93243 0.12137 0.0
H797 H 0.45969 0.04027 0.90206 0.0
H798 H 0.27239 0.33529 0.34049 0.0
H799 H 0.24183 0.30996 0.31859 0.0
H800 H 0.28627 0.24983 0.29185 0.0
H801 H 0.31706 0.27569 0.31263 0.0
H802 H 0.27758 0.29244 0.25702 0.0
H803 H 0.23962 0.22942 0.30908 0.0
H804 H 0.21904 0.2163 0.34756 0.0
H805 H 0.16856 0.2705 0.32993 0.0
H806 H 0.18897 0.28414 0.29145 0.0
H807 H 0.23646 0.18883 0.18386 0.0
H808 H 0.25382 0.22983 0.20193 0.0
H809 H 0.19149 0.26824 0.19805 0.0
H810 H 0.17413 0.22715 0.179 0.0
H811 H 0.20212 0.25329 0.24713 0.0
H812 H 0.23756 0.30495 0.18635 0.0
H813 H 0.25869 0.31461 0.14718 0.0
H814 H 0.31523 0.27841 0.18007 0.0
H815 H 0.29443 0.26818 0.21926 0.0
C816 C 0.27545 0.31579 0.33153 0.0
C817 C 0.29699 0.30803 0.32646 0.0
C818 C 0.25789 0.30125 0.31909 0.0
C819 C 0.26225 0.27901 0.30244 0.0
C820 C 0.2829 0.26751 0.30408 0.0
C821 C 0.30051 0.28232 0.31589 0.0
C822 C 0.25016 0.2756 0.27698 0.0
C823 C 0.26113 0.28359 0.25465 0.0
C824 C 0.22822 0.26623 0.27453 0.0
C825 C 0.21595 0.25806 0.29762 0.0
C826 C 0.22424 0.23874 0.31357 0.0
C827 C 0.21258 0.23115 0.33533 0.0
C828 C 0.19255 0.24264 0.34125 0.0
C829 C 0.1841 0.26166 0.32535 0.0
C830 C 0.19569 0.2693 0.30354 0.0
C831 C 0.22678 0.20645 0.18532 0.0
C832 C 0.20394 0.20481 0.18132 0.0
C833 C 0.23674 0.23009 0.19536 0.0
C834 C 0.22367 0.25174 0.20225 0.0
C835 C 0.2017 0.25156 0.19316 0.0
C836 C 0.1918 0.22798 0.18249 0.0
C837 C 0.23034 0.26762 0.22658 0.0
C838 C 0.21834 0.26278 0.24926 0.0
C839 C 0.25155 0.27952 0.22933 0.0
C840 C 0.26438 0.28591 0.2059 0.0
C841 C 0.25448 0.29898 0.18523 0.0
C842 C 0.26642 0.30456 0.163 0.0
C843 C 0.2883 0.29717 0.16116 0.0
C844 C 0.2983 0.28422 0.18156 0.0
C845 C 0.28646 0.27861 0.20385 0.0
H846 H 0.29749 0.30147 0.14391 0.0
H847 H 0.18354 0.23674 0.35811 0.0
H848 H 0.49616 0.56829 0.04386 0.0
H849 H 0.50703 0.52258 0.03713 0.0
H850 H 0.45468 0.49772 0.0863 0.0
H851 H 0.4441 0.54355 0.09388 0.0
H852 H 0.5107 0.46871 0.06323 0.0
H853 H 0.42707 0.47236 0.04798 0.0
H854 H 0.3959 0.50256 0.04802 0.0
H855 H 0.43007 0.55183 0.99586 0.0
H856 H 0.46138 0.52186 0.99554 0.0
H857 H 0.52809 0.40045 0.93873 0.0
H858 H 0.49622 0.40781 0.9663 0.0
H859 H 0.5154 0.49032 0.97864 0.0
H860 H 0.54769 0.48293 0.95207 0.0
H861 H 0.46243 0.46402 0.98234 0.0
H862 H 0.54518 0.47765 0.03217 0.0
H863 H 0.58215 0.45934 0.0278 0.0
H864 H 0.5533 0.38195 0.00851 0.0
H865 H 0.51616 0.39978 0.01315 0.0
C866 C 0.48769 0.55325 0.0543 0.0
C867 C 0.4689 0.55918 0.06857 0.0
C868 C 0.49408 0.52719 0.05079 0.0
C869 C 0.48131 0.50685 0.06086 0.0
C870 C 0.46469 0.51318 0.07848 0.0
C871 C 0.45855 0.5394 0.08249 0.0
C872 C 0.48064 0.48129 0.04541 0.0
C873 C 0.49941 0.46609 0.04625 0.0
C874 C 0.46587 0.47813 0.02324 0.0
C875 C 0.44634 0.49476 0.02147 0.0
C876 C 0.42773 0.48943 0.03622 0.0
C877 C 0.41012 0.50657 0.0364 0.0
C878 C 0.41097 0.52905 0.02187 0.0
C879 C 0.42937 0.53433 0.00697 0.0
C880 C 0.447 0.51723 0.00668 0.0
C881 C 0.52481 0.42045 0.94614 0.0
C882 C 0.5405 0.44109 0.94403 0.0
C883 C 0.50654 0.42457 0.96176 0.0
C884 C 0.50387 0.44942 0.97475 0.0
C885 C 0.51739 0.47097 0.96872 0.0
C886 C 0.53588 0.46675 0.95373 0.0
C887 C 0.49271 0.45185 1.00002 0.0
C888 C 0.47217 0.46346 1.00054 0.0
C889 C 0.50569 0.45128 0.0236 0.0
C890 C 0.52793 0.43999 0.0232 0.0
C891 C 0.54675 0.45664 0.02747 0.0
C892 C 0.56772 0.44638 0.0248 0.0
C893 C 0.57008 0.41949 0.01792 0.0
C894 C 0.55146 0.40276 0.01391 0.0
C895 C 0.53045 0.41292 0.01661 0.0
H896 H 0.58632 0.41163 0.01564 0.0
H897 H 0.3974 0.54241 0.02222 0.0
H898 H 0.78214 0.23976 0.15369 0.0
H899 H 0.77125 0.22635 0.1968 0.0
H900 H 0.83843 0.2365 0.22575 0.0
H901 H 0.84947 0.24872 0.18225 0.0
H902 H 0.80179 0.19705 0.25244 0.0
H903 H 0.81866 0.30065 0.24668 0.0
H904 H 0.81517 0.34135 0.22275 0.0
H905 H 0.75172 0.31372 0.19134 0.0
H906 H 0.7548 0.27313 0.21537 0.0
H907 H 0.73074 0.21195 0.35519 0.0
H908 H 0.76625 0.22695 0.33928 0.0
H909 H 0.73265 0.26042 0.27367 0.0
H910 H 0.69766 0.2473 0.29045 0.0
H911 H 0.76889 0.28303 0.27851 0.0
H912 H 0.74831 0.18294 0.28014 0.0
H913 H 0.74435 0.14421 0.30702 0.0
H914 H 0.80754 0.16301 0.34454 0.0
H915 H 0.81177 0.20182 0.31791 0.0
C916 C 0.79488 0.23678 0.16848 0.0
C917 C 0.8164 0.24649 0.16524 0.0
C918 C 0.78857 0.22969 0.19334 0.0
C919 C 0.80395 0.23169 0.21456 0.0
C920 C 0.82631 0.23535 0.20962 0.0
C921 C 0.83264 0.24184 0.18452 0.0
C922 C 0.79601 0.2366 0.24153 0.0
C923 C 0.79483 0.21592 0.25839 0.0
C924 C 0.78752 0.26141 0.24959 0.0
C925 C 0.78714 0.2838 0.23239 0.0
C926 C 0.80416 0.30315 0.23432 0.0
C927 C 0.80213 0.32631 0.22102 0.0
C928 C 0.78314 0.33022 0.20575 0.0
C929 C 0.76635 0.31075 0.2033 0.0
C930 C 0.76824 0.28768 0.21671 0.0
C931 C 0.73098 0.22381 0.3382 0.0
C932 C 0.71158 0.22755 0.32331 0.0
C933 C 0.75133 0.23199 0.32886 0.0
C934 C 0.75229 0.24337 0.30439 0.0
C935 C 0.73262 0.25113 0.2923 0.0
C936 C 0.71243 0.24351 0.30185 0.0
C937 C 0.77228 0.24264 0.28824 0.0
C938 C 0.77654 0.26438 0.27332 0.0
C939 C 0.78284 0.21856 0.28162 0.0
C940 C 0.78031 0.19516 0.2972 0.0
C941 C 0.76135 0.17867 0.29407 0.0
C942 C 0.75906 0.15677 0.30926 0.0
C943 C 0.77572 0.1511 0.32739 0.0
C944 C 0.79469 0.16737 0.33044 0.0
C945 C 0.79704 0.1893 0.31532 0.0
H946 H 0.77391 0.13418 0.33917 0.0
H947 H 0.78153 0.34822 0.19561 0.0
H948 H 0.02275 0.41184 0.55168 0.0
H949 H 0.99162 0.43947 0.54225 0.0
H950 H 0.03077 0.48105 0.48783 0.0
H951 H 0.06201 0.45392 0.4976 0.0
H952 H 0.02167 0.50781 0.5404 0.0
H953 H 0.98608 0.45638 0.46497 0.0
H954 H 0.96709 0.41632 0.44421 0.0
H955 H 0.91682 0.42267 0.50186 0.0
H956 H 0.93568 0.46262 0.52316 0.0
H957 H 0.98246 0.59826 0.46296 0.0
H958 H 0.99725 0.57069 0.49555 0.0
H959 H 0.93155 0.55252 0.52075 0.0
H960 H 0.9166 0.5795 0.48669 0.0
H961 H 0.94675 0.51076 0.50021 0.0
H962 H 0.97791 0.57051 0.56694 0.0
H963 H 0.99712 0.61046 0.58755 0.0
H964 H 0.05623 0.58928 0.54812 0.0
H965 H 0.03738 0.54948 0.52693 0.0
C966 C 0.02422 0.42562 0.53632 0.0
C967 C 0.04482 0.43147 0.52587 0.0
C968 C 0.00647 0.44155 0.53117 0.0
C969 C 0.00931 0.46268 0.51505 0.0
C970 C 0.02853 0.46496 0.50064 0.0
C971 C 0.04629 0.44931 0.506 0.0
C972 C 0.99555 0.48592 0.51847 0.0
C973 C 0.00527 0.50874 0.53159 0.0
C974 C 0.97372 0.48619 0.50874 0.0
C975 C 0.96243 0.46225 0.49586 0.0
C976 C 0.9711 0.44907 0.47338 0.0
C977 C 0.96033 0.42643 0.46147 0.0
C978 C 0.94081 0.4169 0.47177 0.0
C979 C 0.93197 0.43004 0.49394 0.0
C980 C 0.94268 0.45269 0.50592 0.0
C981 C 0.97124 0.58957 0.47643 0.0
C982 C 0.94846 0.5901 0.47182 0.0
C983 C 0.97973 0.57388 0.49543 0.0
C984 C 0.9655 0.55892 0.51039 0.0
C985 C 0.94282 0.56356 0.50915 0.0
C986 C 0.93428 0.57913 0.4898 0.0
C987 C 0.97359 0.5339 0.52005 0.0
C988 C 0.96284 0.5102 0.50989 0.0
C989 C 0.99459 0.53284 0.53259 0.0
C990 C 0.00616 0.55683 0.54542 0.0
C991 C 0.99498 0.57439 0.56257 0.0
C992 C 0.00583 0.59704 0.57437 0.0
C993 C 0.02789 0.60237 0.5692 0.0
C994 C 0.03916 0.58507 0.55221 0.0
C995 C 0.02841 0.56241 0.54037 0.0
H996 H 0.03624 0.61993 0.57833 0.0
H997 H 0.9325 0.39936 0.46253 0.0
H998 H 0.82472 0.70025 0.2949 0.0
H999 H 0.81964 0.73272 0.26227 0.0
H1000 H 0.77311 0.77271 0.31249 0.0
H1001 H 0.77765 0.73921 0.34486 0.0
H1002 H 0.75421 0.75588 0.26854 0.0
H1003 H 0.82134 0.80451 0.28993 0.0
H1004 H 0.86108 0.81151 0.29972 0.0
H1005 H 0.87541 0.77619 0.22308 0.0
H1006 H 0.83574 0.76873 0.21291 0.0
H1007 H 0.74686 0.86596 0.18656 0.0
H1008 H 0.77464 0.84059 0.20806 0.0
H1009 H 0.7437 0.76822 0.17362 0.0
H1010 H 0.71529 0.79384 0.15269 0.0
H1011 H 0.80326 0.8016 0.20844 0.0
H1012 H 0.73023 0.73189 0.22244 0.0
H1013 H 0.68989 0.72918 0.21522 0.0
H1014 H 0.68709 0.8136 0.22762 0.0
H1015 H 0.72739 0.81674 0.23512 0.0
C1016 C 0.8142 0.71673 0.29946 0.0
C1017 C 0.80146 0.71741 0.32209 0.0
C1018 C 0.81137 0.73537 0.28085 0.0
C1019 C 0.79588 0.75506 0.28482 0.0
C1020 C 0.78509 0.75756 0.30904 0.0
C1021 C 0.78777 0.73864 0.3276 0.0
C1022 C 0.7876 0.76878 0.26188 0.0
C1023 C 0.76502 0.76607 0.25562 0.0
C1024 C 0.80167 0.78159 0.24463 0.0
C1025 C 0.82555 0.78592 0.25073 0.0
C1026 C 0.83296 0.79805 0.27524 0.0
C1027 C 0.85547 0.80216 0.28083 0.0
C1028 C 0.87075 0.7943 0.26204 0.0
C1029 C 0.86355 0.7823 0.23761 0.0
C1030 C 0.84105 0.77818 0.2319 0.0
C1031 C 0.74676 0.8447 0.18239 0.0
C1032 C 0.7289 0.83164 0.1686 0.0
C1033 C 0.76268 0.8302 0.19462 0.0
C1034 C 0.76068 0.80255 0.19321 0.0
C1035 C 0.74518 0.78961 0.17531 0.0
C1036 C 0.72904 0.8042 0.16323 0.0
C1037 C 0.77004 0.78869 0.21543 0.0
C1038 C 0.79269 0.79124 0.22147 0.0
C1039 C 0.75603 0.77623 0.23299 0.0
C1040 C 0.73178 0.77454 0.22902 0.0
C1041 C 0.72097 0.74984 0.22368 0.0
C1042 C 0.69813 0.74823 0.21952 0.0
C1043 C 0.68595 0.77122 0.22085 0.0
C1044 C 0.69656 0.79583 0.2265 0.0
C1045 C 0.71938 0.79754 0.23071 0.0
H1046 H 0.66828 0.76994 0.21755 0.0
H1047 H 0.88817 0.79755 0.26639 0.0
H1048 H 0.77127 0.21832 0.67422 0.0
H1049 H 0.76152 0.2276 0.72016 0.0
H1050 H 0.8095 0.17281 0.74532 0.0
H1051 H 0.81892 0.16267 0.69922 0.0
H1052 H 0.76313 0.18433 0.77673 0.0
H1053 H 0.83364 0.22145 0.7509 0.0
H1054 H 0.85655 0.2379 0.71574 0.0
H1055 H 0.81106 0.29953 0.70389 0.0
H1056 H 0.7877 0.28317 0.73867 0.0
H1057 H 0.72944 0.27868 0.87369 0.0
H1058 H 0.76281 0.25821 0.85653 0.0
H1059 H 0.74393 0.27867 0.77794 0.0
H1060 H 0.7105 0.29821 0.79488 0.0
H1061 H 0.79215 0.27702 0.78986 0.0
H1062 H 0.71917 0.22261 0.78955 0.0
H1063 H 0.68848 0.2088 0.81692 0.0
H1064 H 0.73461 0.18365 0.87512 0.0
H1065 H 0.76553 0.19758 0.84809 0.0
C1066 C 0.77907 0.20746 0.68942 0.0
C1067 C 0.79614 0.19033 0.68341 0.0
C1068 C 0.77343 0.21261 0.71555 0.0
C1069 C 0.78516 0.20113 0.73583 0.0
C1070 C 0.80035 0.18167 0.72974 0.0
C1071 C 0.80573 0.17608 0.70345 0.0
C1072 C 0.78476 0.21415 0.76244 0.0
C1073 C 0.77042 0.20405 0.78054 0.0
C1074 C 0.79417 0.23997 0.76695 0.0
C1075 C 0.80903 0.25119 0.74753 0.0
C1076 C 0.8286 0.23859 0.74089 0.0
C1077 C 0.84162 0.24785 0.72096 0.0
C1078 C 0.83529 0.26979 0.70764 0.0
C1079 C 0.81599 0.28261 0.71431 0.0
C1080 C 0.8029 0.2734 0.73419 0.0
C1081 C 0.733 0.27952 0.85294 0.0
C1082 C 0.71763 0.28944 0.83531 0.0
C1083 C 0.75203 0.26812 0.84328 0.0
C1084 C 0.7557 0.26704 0.81608 0.0
C1085 C 0.74143 0.27964 0.79906 0.0
C1086 C 0.72228 0.29048 0.80859 0.0
C1087 C 0.77017 0.2474 0.80389 0.0
C1088 C 0.78677 0.25638 0.78787 0.0
C1089 C 0.7629 0.22057 0.80129 0.0
C1090 C 0.74453 0.21089 0.81684 0.0
C1091 C 0.72269 0.21391 0.80809 0.0
C1092 C 0.70529 0.2062 0.82357 0.0
C1093 C 0.70959 0.19529 0.84772 0.0
C1094 C 0.73131 0.19205 0.8564 0.0
C1095 C 0.74877 0.19984 0.84102 0.0
H1096 H 0.6961 0.18938 0.85971 0.0
H1097 H 0.84532 0.27683 0.69211 0.0
H1098 H 0.75624 0.84675 0.84261 0.0
H1099 H 0.72238 0.83109 0.81923 0.0
H1100 H 0.75047 0.75483 0.80346 0.0
H1101 H 0.78486 0.77109 0.82495 0.0
H1102 H 0.7547 0.80622 0.76664 0.0
H1103 H 0.70742 0.74444 0.81461 0.0
H1104 H 0.68108 0.73706 0.84969 0.0
H1105 H 0.63829 0.79401 0.81836 0.0
H1106 H 0.66454 0.80188 0.78324 0.0
H1107 H 0.736 0.6935 0.69532 0.0
H1108 H 0.74389 0.73623 0.71806 0.0
H1109 H 0.68022 0.76293 0.69332 0.0
H1110 H 0.67204 0.71959 0.67069 0.0
H1111 H 0.68293 0.76028 0.74498 0.0
H1112 H 0.72757 0.8031 0.68515 0.0
H1113 H 0.75524 0.80678 0.65087 0.0
H1114 H 0.80549 0.78298 0.70466 0.0
H1115 H 0.7782 0.77877 0.73913 0.0
C1116 C 0.75454 0.82601 0.83594 0.0
C1117 C 0.77315 0.81032 0.83427 0.0
C1118 C 0.73511 0.81709 0.82264 0.0
C1119 C 0.73447 0.79229 0.80878 0.0
C1120 C 0.75094 0.77426 0.81381 0.0
C1121 C 0.77066 0.7835 0.82611 0.0
C1122 C 0.72481 0.79025 0.78193 0.0
C1123 C 0.73889 0.79645 0.7616 0.0
C1124 C 0.7038 0.7791 0.77578 0.0
C1125 C 0.688 0.77397 0.79657 0.0
C1126 C 0.69248 0.75553 0.81536 0.0
C1127 C 0.67754 0.75121 0.83519 0.0
C1128 C 0.65805 0.76512 0.83631 0.0
C1129 C 0.6534 0.78328 0.8175 0.0
C1130 C 0.66828 0.78765 0.79762 0.0
C1131 C 0.72403 0.70879 0.69382 0.0
C1132 C 0.70317 0.70307 0.68216 0.0
C1133 C 0.72866 0.73347 0.70649 0.0
C1134 C 0.71252 0.75277 0.70755 0.0
C1135 C 0.69283 0.74827 0.69272 0.0
C1136 C 0.68819 0.72348 0.6799 0.0
C1137 C 0.71404 0.77314 0.72965 0.0
C1138 C 0.69833 0.7712 0.7494 0.0
C1139 C 0.73395 0.78765 0.73537 0.0
C1140 C 0.75075 0.7909 0.7149 0.0
C1141 C 0.74452 0.79869 0.68972 0.0
C1142 C 0.76016 0.80083 0.67021 0.0
C1143 C 0.78211 0.79521 0.67561 0.0
C1144 C 0.7885 0.78748 0.70054 0.0
C1145 C 0.77295 0.78534 0.72013 0.0
H1146 H 0.79417 0.79679 0.66046 0.0
H1147 H 0.64653 0.76179 0.85171 0.0
H1148 H 0.4808 0.3877 0.42729 0.0
H1149 H 0.51359 0.40539 0.45138 0.0
H1150 H 0.47323 0.44716 0.50765 0.0
H1151 H 0.44034 0.4308 0.48285 0.0
H1152 H 0.48696 0.47082 0.45462 0.0
H1153 H 0.51231 0.4299 0.53398 0.0
H1154 H 0.52746 0.39317 0.55756 0.0
H1155 H 0.58436 0.39365 0.50934 0.0
H1156 H 0.56939 0.43025 0.48528 0.0
H1157 H 0.51698 0.55568 0.55302 0.0
H1158 H 0.50545 0.53318 0.51126 0.0
H1159 H 0.57333 0.52592 0.48981 0.0
H1160 H 0.58494 0.54887 0.53191 0.0
H1161 H 0.55697 0.48122 0.50679 0.0
H1162 H 0.53305 0.53574 0.44008 0.0
H1163 H 0.51592 0.57391 0.42095 0.0
H1164 H 0.45329 0.55028 0.45006 0.0
H1165 H 0.46998 0.51219 0.46962 0.0
C1166 C 0.47883 0.39928 0.44577 0.0
C1167 C 0.45838 0.4097 0.45236 0.0
C1168 C 0.49768 0.40915 0.45969 0.0
C1169 C 0.49558 0.42875 0.48011 0.0
C1170 C 0.47497 0.43259 0.49127 0.0
C1171 C 0.45614 0.42346 0.47695 0.0
C1172 C 0.51011 0.45224 0.47992 0.0
C1173 C 0.50232 0.47336 0.46604 0.0
C1174 C 0.53066 0.45448 0.49319 0.0
C1175 C 0.5396 0.43251 0.50759 0.0
C1176 C 0.52793 0.42197 0.52821 0.0
C1177 C 0.53652 0.40124 0.54173 0.0
C1178 C 0.55682 0.391 0.53488 0.0
C1179 C 0.56861 0.40155 0.51458 0.0
C1180 C 0.5601 0.4223 0.50102 0.0
C1181 C 0.52936 0.55059 0.53875 0.0
C1182 C 0.55173 0.55259 0.54592 0.0
C1183 C 0.5228 0.53807 0.51455 0.0
C1184 C 0.53864 0.52695 0.49785 0.0
C1185 C 0.56092 0.53401 0.50267 0.0
C1186 C 0.56751 0.54689 0.52685 0.0
C1187 C 0.53263 0.50121 0.48399 0.0
C1188 C 0.54208 0.47889 0.49448 0.0
C1189 C 0.51315 0.49808 0.46822 0.0
C1190 C 0.50283 0.52089 0.45618 0.0
C1191 C 0.51563 0.53868 0.44245 0.0
C1192 C 0.50598 0.56033 0.43152 0.0
C1193 C 0.48353 0.56448 0.43423 0.0
C1194 C 0.47066 0.54697 0.44785 0.0
C1195 C 0.4802 0.52527 0.45877 0.0
H1196 H 0.47611 0.58128 0.4258 0.0
H1197 H 0.56345 0.37495 0.54536 0.0
H1198 H 0.01537 0.56836 0.89656 0.0
H1199 H 0.99032 0.53968 0.91954 0.0
H1200 H 0.03014 0.55424 0.99104 0.0
H1201 H 0.05543 0.58239 0.96784 0.0
H1202 H 0.02969 0.50221 0.96871 0.0
H1203 H 0.97641 0.57148 0.98773 0.0
H1204 H 0.95015 0.6044 0.97378 0.0
H1205 H 0.91314 0.54368 0.92735 0.0
H1206 H 0.93934 0.51045 0.94077 0.0
H1207 H 0.99289 0.45121 0.0783 0.0
H1208 H 0.00345 0.47556 0.0414 0.0
H1209 H 0.94666 0.44352 0.99586 0.0
H1210 H 0.93489 0.41988 0.03427 0.0
H1211 H 0.95109 0.4957 0.99156 0.0
H1212 H 0.9993 0.42524 0.97844 0.0
H1213 H 0.02471 0.39112 0.99166 0.0
H1214 H 0.07108 0.45142 0.02288 0.0
H1215 H 0.04587 0.4859 0.01026 0.0
C1216 C 0.01796 0.56662 0.9176 0.0
C1217 C 0.03708 0.57758 0.93066 0.0
C1218 C 0.00374 0.55012 0.93063 0.0
C1219 C 0.00859 0.54465 0.95683 0.0
C1220 C 0.02623 0.55824 0.97074 0.0
C1221 C 0.04052 0.57454 0.95765 0.0
C1222 C 0.9985 0.52124 0.96804 0.0
C1223 C 0.01252 0.50081 0.97386 0.0
C1224 C 0.9758 0.51854 0.97272 0.0
C1225 C 0.95996 0.53854 0.96504 0.0
C1226 C 0.96277 0.56519 0.97439 0.0
C1227 C 0.94787 0.58389 0.96661 0.0
C1228 C 0.93003 0.57615 0.94963 0.0
C1229 C 0.92698 0.54966 0.94048 0.0
C1230 C 0.94183 0.53089 0.94819 0.0
C1231 C 0.98265 0.44891 0.06042 0.0
C1232 C 0.96295 0.43371 0.0593 0.0
C1233 C 0.98889 0.46272 0.03912 0.0
C1234 C 0.97612 0.46097 0.01562 0.0
C1235 C 0.95682 0.44494 0.0138 0.0
C1236 C 0.95027 0.43127 0.03558 0.0
C1237 C 0.98274 0.47775 0.99426 0.0
C1238 C 0.96814 0.49673 0.98592 0.0
C1239 C 0.00492 0.47891 0.98664 0.0
C1240 C 0.02067 0.45821 0.99325 0.0
C1241 C 0.01493 0.43124 0.98808 0.0
C1242 C 0.02929 0.41183 0.99553 0.0
C1243 C 0.04951 0.4191 0.00805 0.0
C1244 C 0.05545 0.44581 0.01308 0.0
C1245 C 0.04115 0.46531 0.00569 0.0
H1246 H 0.06056 0.40404 0.0139 0.0
H1247 H 0.91853 0.59067 0.9436 0.0
H1248 H 0.15298 0.04595 0.17363 0.0
H1249 H 0.15741 0.01006 0.20385 0.0
H1250 H 0.0871 0.9973 0.20268 0.0
H1251 H 0.0827 0.0322 0.17223 0.0
H1252 H 0.11379 0.9972 0.25674 0.0
H1253 H 0.11189 0.95936 0.16419 0.0
H1254 H 0.12785 0.95512 0.12001 0.0
H1255 H 0.18988 0.9352 0.15474 0.0
H1256 H 0.17434 0.93974 0.19921 0.0
H1257 H 0.10496 0.84913 0.28279 0.0
H1258 H 0.09875 0.88393 0.25239 0.0
H1259 H 0.15258 0.93034 0.29026 0.0
H1260 H 0.15889 0.89567 0.32097 0.0
H1261 H 0.14063 0.91322 0.22067 0.0
H1262 H 0.08903 0.92819 0.31999 0.0
H1263 H 0.08205 0.91253 0.34922 0.0
H1264 H 0.02168 0.9605 0.31868 0.0
H1265 H 0.03847 0.98011 0.275 0.0
C1266 C 0.13847 0.03579 0.18029 0.0
C1267 C 0.11744 0.04208 0.17061 0.0
C1268 C 0.14103 0.01516 0.19748 0.0
C1269 C 0.12257 1.00084 0.20578 0.0
C1270 C 0.10161 0.00805 0.19697 0.0
C1271 C 0.0991 0.02807 0.17942 0.0
C1272 C 0.12455 0.97711 0.22197 0.0
C1273 C 0.11573 0.97787 0.24729 0.0
C1274 C 0.13264 0.95291 0.21163 0.0
C1275 C 0.14204 0.9502 0.18501 0.0
C1276 C 0.129 0.95435 0.16242 0.0
C1277 C 0.13795 0.95184 0.13733 0.0
C1278 C 0.15989 0.94498 0.13458 0.0
C1279 C 0.1729 0.94057 0.15691 0.0
C1280 C 0.16403 0.9431 0.18206 0.0
C1281 C 0.11544 0.86682 0.28487 0.0
C1282 C 0.13237 0.8696 0.30465 0.0
C1283 C 0.11197 0.88654 0.26717 0.0
C1284 C 0.12528 0.90963 0.26886 0.0
C1285 C 0.14217 0.91258 0.28853 0.0
C1286 C 0.14555 0.89292 0.30637 0.0
C1287 C 0.12116 0.93153 0.25132 0.0
C1288 C 0.1324 0.93104 0.22737 0.0
C1289 C 0.10919 0.95439 0.25949 0.0
C1290 C 0.0906 0.95278 0.28043 0.0
C1291 C 0.09786 0.93323 0.30575 0.0
C1292 C 0.07913 0.9258 0.33085 0.0
C1293 C 0.05264 0.93641 0.33359 0.0
C1294 C 0.0384 0.95586 0.31389 0.0
C1295 C 0.04939 0.96824 0.28667 0.0
H1296 H 0.04386 0.92974 0.35029 0.0
H1297 H 0.16679 0.94301 0.11513 0.0
H1298 H 0.3803 0.82064 0.53818 0.0
H1299 H 0.34917 0.81304 0.5064 0.0
H1300 H 0.32278 0.88771 0.53369 0.0
H1301 H 0.35391 0.89558 0.56472 0.0
H1302 H 0.30801 0.80602 0.50555 0.0
H1303 H 0.29593 0.9178 0.48727 0.0
H1304 H 0.31896 0.95829 0.48443 0.0
H1305 H 0.37514 0.91133 0.46761 0.0
H1306 H 0.35237 0.87057 0.46988 0.0
H1307 H 0.20148 0.81508 0.44844 0.0
H1308 H 0.2353 0.81936 0.47593 0.0
H1309 H 0.26752 0.85951 0.41444 0.0
H1310 H 0.23297 0.85784 0.38858 0.0
H1311 H 0.28499 0.87937 0.45237 0.0
H1312 H 0.27261 0.78915 0.43156 0.0
H1313 H 0.25354 0.74547 0.42702 0.0
H1314 H 0.25221 0.74377 0.51149 0.0
H1315 H 0.27127 0.78738 0.5165 0.0
C1316 C 0.36779 0.83537 0.53746 0.0
C1317 C 0.36981 0.85886 0.55389 0.0
C1318 C 0.34993 0.83101 0.51923 0.0
C1319 C 0.33365 0.85004 0.51695 0.0
C1320 C 0.33531 0.873 0.53418 0.0
C1321 C 0.35312 0.8774 0.55222 0.0
C1322 C 0.31498 0.84624 0.49674 0.0
C1323 C 0.30278 0.82218 0.49414 0.0
C1324 C 0.30868 0.86665 0.48054 0.0
C1325 C 0.32246 0.89112 0.47902 0.0
C1326 C 0.31317 0.91611 0.48286 0.0
C1327 C 0.32618 0.93911 0.48135 0.0
C1328 C 0.34851 0.93738 0.47593 0.0
C1329 C 0.35786 0.91264 0.47191 0.0
C1330 C 0.34491 0.88959 0.47332 0.0
C1331 C 0.2158 0.82499 0.44097 0.0
C1332 C 0.21453 0.8362 0.41637 0.0
C1333 C 0.23534 0.82716 0.45658 0.0
C1334 C 0.25466 0.83903 0.44726 0.0
C1335 C 0.25319 0.85027 0.42255 0.0
C1336 C 0.23335 0.84925 0.40758 0.0
C1337 C 0.27613 0.84016 0.46327 0.0
C1338 C 0.28942 0.86344 0.46442 0.0
C1339 C 0.28373 0.81868 0.47745 0.0
C1340 C 0.27282 0.79199 0.47444 0.0
C1341 C 0.26807 0.7796 0.44918 0.0
C1342 C 0.25733 0.75478 0.44651 0.0
C1343 C 0.25149 0.74195 0.46895 0.0
C1344 C 0.25658 0.7538 0.49411 0.0
C1345 C 0.26733 0.7786 0.49687 0.0
H1346 H 0.24315 0.72275 0.46684 0.0
H1347 H 0.35857 0.9552 0.4748 0.0
H1348 H 0.31991 0.06797 0.81492 0.0
H1349 H 0.32942 0.02857 0.78652 0.0
H1350 H 0.39646 0.05818 0.78634 0.0
H1351 H 0.38764 0.09529 0.81663 0.0
H1352 H 0.36978 0.03713 0.73361 0.0
H1353 H 0.42073 0.96971 0.82438 0.0
H1354 H 0.42387 0.94117 0.86103 0.0
H1355 H 0.36408 0.89955 0.83471 0.0
H1356 H 0.36031 0.92801 0.79798 0.0
H1357 H 0.44021 0.89885 0.68637 0.0
H1358 H 0.43286 0.931 0.72361 0.0
H1359 H 0.38193 0.96245 0.67557 0.0
H1360 H 0.39005 0.93323 0.63922 0.0
H1361 H 0.40766 0.93437 0.75725 0.0
H1362 H 0.36023 0.99527 0.67414 0.0
H1363 H 0.36291 0.02079 0.63551 0.0
H1364 H 0.41714 0.06621 0.67224 0.0
H1365 H 0.41447 0.04098 0.71141 0.0
C1366 C 0.33682 0.06541 0.80938 0.0
C1367 C 0.35343 0.08356 0.81955 0.0
C1368 C 0.34222 0.04286 0.79323 0.0
C1369 C 0.36424 0.03852 0.78671 0.0
C1370 C 0.37987 0.05917 0.7934 0.0
C1371 C 0.37481 0.0807 0.81055 0.0
C1372 C 0.37181 0.01295 0.77192 0.0
C1373 C 0.37529 0.01854 0.74042 0.0
C1374 C 0.38865 0.96802 0.7837 0.0
C1375 C 0.39036 0.95136 0.80765 0.0
C1376 C 0.4083 0.95449 0.82586 0.0
C1377 C 0.41012 0.93828 0.84702 0.0
C1378 C 0.39424 0.91845 0.85017 0.0
C1379 C 0.37649 0.91482 0.83218 0.0
C1380 C 0.37458 0.93103 0.81105 0.0
C1381 C 0.42744 0.91307 0.6842 0.0
C1382 C 0.41522 0.91341 0.66031 0.0
C1383 C 0.42328 0.93158 0.70537 0.0
C1384 C 0.40688 0.9505 0.70277 0.0
C1385 C 0.39546 0.95036 0.67843 0.0
C1386 C 0.39957 0.93247 0.65756 0.0
C1387 C 0.39946 0.96786 0.72577 0.0
C1388 C 0.40039 0.95346 0.75582 0.0
C1389 C 0.38793 0.99803 0.71951 0.0
C1390 C 0.39011 0.01194 0.69422 0.0
C1391 C 0.37394 0.00899 0.67358 0.0
C1392 C 0.37498 0.02413 0.65156 0.0
C1393 C 0.39109 0.04409 0.6506 0.0
C1394 C 0.40552 0.04964 0.67217 0.0
C1395 C 0.40445 0.03443 0.69412 0.0
H1396 H 0.39177 0.05598 0.63367 0.0
H1397 H 0.39566 0.90595 0.86659 0.0
H1398 H 0.31069 0.10097 0.93347 0.0
H1399 H 0.28399 0.09647 0.96889 0.0
H1400 H 0.23678 0.13919 0.92484 0.0
H1401 H 0.26302 0.14356 0.88995 0.0
H1402 H 0.2337 0.15521 0.97259 0.0
H1403 H 0.23881 0.07111 0.92738 0.0
H1404 H 0.25453 0.02932 0.91055 0.0
H1405 H 0.26507 0.00691 0.98994 0.0
H1406 H 0.25034 0.04911 0.00736 0.0
H1407 H 0.13792 0.12757 0.0466 0.0
H1408 H 0.1644 0.13218 0.01195 0.0
H1409 H 0.20558 0.07556 0.04789 0.0
H1410 H 0.17731 0.06819 0.0799 0.0
H1411 H 0.21277 0.06793 0.00387 0.0
H1412 H 0.2069 0.16098 0.04557 0.0
H1413 H 0.18691 0.20182 0.05511 0.0
H1414 H 0.17007 0.2045 0.97257 0.0
H1415 H 0.18997 0.16348 0.96277 0.0
C1416 C 0.29477 0.10983 0.93172 0.0
C1417 C 0.28907 0.12284 0.90895 0.0
C1418 C 0.27939 0.10705 0.95188 0.0
C1419 C 0.25812 0.11741 0.94982 0.0
C1420 C 0.25293 0.13109 0.92736 0.0
C1421 C 0.26804 0.13359 0.90729 0.0
C1422 C 0.24084 0.11386 0.97028 0.0
C1423 C 0.22926 0.13606 0.97958 0.0
C1424 C 0.23454 0.08892 0.97932 0.0
C1425 C 0.24407 0.06381 0.96875 0.0
C1426 C 0.24498 0.05764 0.94133 0.0
C1427 C 0.25367 0.03379 0.93166 0.0
C1428 C 0.26103 0.0156 0.94917 0.0
C1429 C 0.25957 0.02114 0.97639 0.0
C1430 C 0.25115 0.04509 0.98617 0.0
C1431 C 0.15275 0.11626 0.04712 0.0
C1432 C 0.15572 0.09799 0.06649 0.0
C1433 C 0.16832 0.11928 0.02741 0.0
C1434 C 0.18821 0.10552 0.02748 0.0
C1435 C 0.19076 0.0868 0.04676 0.0
C1436 C 0.17461 0.08271 0.06551 0.0
C1437 C 0.20608 0.10952 0.00748 0.0
C1438 C 0.21768 0.08729 0.99787 0.0
C1439 C 0.21187 0.13434 0.99737 0.0
C1440 C 0.19988 0.15897 0.00359 0.0
C1441 C 0.19895 0.17018 0.02956 0.0
C1442 C 0.18759 0.1934 0.03498 0.0
C1443 C 0.17716 0.20575 0.01446 0.0
C1444 C 0.17813 0.19492 0.98848 0.0
C1445 C 0.18947 0.17169 0.98302 0.0
H1446 H 0.16836 0.22372 0.01867 0.0
H1447 H 0.26769 0.99711 0.94165 0.0
H1448 H 0.10315 0.11507 0.22833 0.0
H1449 H 0.09522 0.08858 0.26594 0.0
H1450 H 0.15759 0.05093 0.25653 0.0
H1451 H 0.16631 0.07945 0.221 0.0
H1452 H 0.08853 0.04282 0.27562 0.0
H1453 H 0.17964 0.02927 0.30897 0.0
H1454 H 0.21485 0.05471 0.31045 0.0
H1455 H 0.18012 0.12728 0.31124 0.0
H1456 H 0.14467 0.10229 0.31007 0.0
H1457 H 0.13202 0.93233 0.3591 0.0
H1458 H 0.13513 0.96544 0.32564 0.0
H1459 H 0.09615 0.01877 0.37305 0.0
H1460 H 0.09371 0.98642 0.40677 0.0
H1461 H 0.14721 0.02741 0.34163 0.0
H1462 H 0.0778 0.97356 0.33711 0.0
H1463 H 0.05642 0.90884 0.29281 0.0
H1464 H 0.06397 0.96657 0.22367 0.0
H1465 H 0.07825 0.00882 0.25141 0.0
C1466 C 0.11513 0.10115 0.23452 0.0
C1467 C 0.13541 0.09937 0.22207 0.0
C1468 C 0.11062 0.086 0.25602 0.0
C1469 C 0.12611 0.06829 0.26504 0.0
C1470 C 0.14578 0.06539 0.2512 0.0
C1471 C 0.15067 0.08135 0.23054 0.0
C1472 C 0.12172 0.05235 0.28837 0.0
C1473 C 0.10143 0.03844 0.28954 0.0
C1474 C 0.13826 0.04851 0.30779 0.0
C1475 C 0.15948 0.06388 0.30937 0.0
C1476 C 0.1795 0.05067 0.30971 0.0
C1477 C 0.19951 0.065 0.31041 0.0
C1478 C 0.19972 0.09259 0.31091 0.0
C1479 C 0.17992 0.1059 0.31081 0.0
C1480 C 0.15986 0.09166 0.31012 0.0
C1481 C 0.12398 0.95102 0.3622 0.0
C1482 C 0.11199 0.95643 0.38512 0.0
C1483 C 0.12578 0.96991 0.34315 0.0
C1484 C 0.11475 0.99393 0.34612 0.0
C1485 C 0.10398 0.99997 0.36978 0.0
C1486 C 0.10256 0.9814 0.38898 0.0
C1487 C 0.11556 0.01353 0.32553 0.0
C1488 C 0.13462 0.02983 0.32645 0.0
C1489 C 0.09856 0.01702 0.30583 0.0
C1490 C 0.08146 0.99575 0.29657 0.0
C1491 C 0.07597 0.97008 0.31587 0.0
C1492 C 0.06158 0.92864 0.28761 0.0
C1493 C 0.05963 0.93461 0.25517 0.0
C1494 C 0.06616 0.96459 0.24466 0.0
C1495 C 0.07532 0.99222 0.2632 0.0
H1496 H 0.05382 0.91895 0.24096 0.0
H1497 H 0.21522 0.10364 0.31138 0.0
H1498 H 0.28363 0.90612 0.615 0.0
H1499 H 0.25625 0.90808 0.57899 0.0
H1500 H 0.2828 0.83888 0.53958 0.0
H1501 H 0.31053 0.83675 0.57551 0.0
H1502 H 0.26206 0.90524 0.51641 0.0
H1503 H 0.25126 0.8105 0.54709 0.0
H1504 H 0.24829 0.7827 0.58505 0.0
H1505 H 0.20065 0.8347 0.61908 0.0
H1506 H 0.20384 0.863 0.58148 0.0
H1507 H 0.17194 0.88277 0.42202 0.0
H1508 H 0.20632 0.88159 0.44866 0.0
H1509 H 0.16853 0.87509 0.51881 0.0
H1510 H 0.13467 0.87575 0.49222 0.0
H1511 H 0.19781 0.84407 0.52384 0.0
H1512 H 0.19984 0.93362 0.50196 0.0
H1513 H 0.19861 0.97092 0.47314 0.0
H1514 H 0.25602 0.94316 0.4339 0.0
H1515 H 0.25727 0.90562 0.46233 0.0
C1516 C 0.28406 0.89165 0.59833 0.0
C1517 C 0.29939 0.8713 0.59816 0.0
C1518 C 0.26835 0.89282 0.57775 0.0
C1519 C 0.26743 0.8736 0.55655 0.0
C1520 C 0.28331 0.85399 0.55562 0.0
C1521 C 0.29921 0.85286 0.57617 0.0
C1522 C 0.24868 0.8729 0.53688 0.0
C1523 C 0.24816 0.89152 0.51755 0.0
C1524 C 0.23001 0.85612 0.53934 0.0
C1525 C 0.22808 0.83897 0.56172 0.0
C1526 C 0.2404 0.81609 0.56281 0.0
C1527 C 0.23863 0.80025 0.58423 0.0
C1528 C 0.22435 0.80699 0.60454 0.0
C1529 C 0.21178 0.82955 0.60341 0.0
C1530 C 0.2136 0.8455 0.58207 0.0
C1531 C 0.17117 0.88033 0.44298 0.0
C1532 C 0.15071 0.87847 0.45484 0.0
C1533 C 0.19078 0.88005 0.45836 0.0
C1534 C 0.1903 0.8777 0.48592 0.0
C1535 C 0.16967 0.87632 0.49765 0.0
C1536 C 0.15022 0.87683 0.48239 0.0
C1537 C 0.21095 0.87634 0.50275 0.0
C1538 C 0.21178 0.85749 0.5219 0.0
C1539 C 0.22934 0.89399 0.50104 0.0
C1540 C 0.22861 0.91666 0.48406 0.0
C1541 C 0.21212 0.9354 0.48707 0.0
C1542 C 0.2114 0.95662 0.47083 0.0
C1543 C 0.22719 0.95939 0.45165 0.0
C1544 C 0.24377 0.941 0.44873 0.0
C1545 C 0.24451 0.91978 0.46492 0.0
H1546 H 0.22661 0.97581 0.43908 0.0
H1547 H 0.22297 0.79469 0.6211 0.0
H1548 H 0.35451 0.06268 0.88124 0.0
H1549 H 0.35034 0.03078 0.84392 0.0
H1550 H 0.41964 0.01469 0.84945 0.0
H1551 H 0.4237 0.04775 0.88645 0.0
H1552 H 0.41873 0.02147 0.80506 0.0
H1553 H 0.36783 0.97123 0.85691 0.0
H1554 H 0.34175 0.96235 0.89156 0.0
H1555 H 0.28796 0.98224 0.84078 0.0
H1556 H 0.31364 0.9914 0.80578 0.0
H1557 H 0.36543 0.88441 0.72316 0.0
H1558 H 0.36761 0.92029 0.75638 0.0
H1559 H 0.34228 0.97345 0.70165 0.0
H1560 H 0.3396 0.93618 0.66683 0.0
H1561 H 0.33498 0.96307 0.77544 0.0
H1562 H 0.4289 0.00268 0.71352 0.0
H1563 H 0.46709 0.00127 0.7066 0.0
H1564 H 0.47888 0.98367 0.78684 0.0
H1565 H 0.44039 0.986 0.79511 0.0
C1566 C 0.36887 0.05251 0.87425 0.0
C1567 C 0.38953 0.05821 0.8863 0.0
C1568 C 0.3665 0.03362 0.85294 0.0
C1569 C 0.38472 0.02008 0.84279 0.0
C1570 C 0.40523 0.025 0.85594 0.0
C1571 C 0.40759 0.0439 0.87731 0.0
C1572 C 0.38307 0.00434 0.81657 0.0
C1573 C 0.40465 0.00998 0.79677 0.0
C1574 C 0.35852 0.98798 0.80754 0.0
C1575 C 0.34287 0.98236 0.82862 0.0
C1576 C 0.35049 0.9739 0.85304 0.0
C1577 C 0.33572 0.96875 0.87281 0.0
C1578 C 0.31321 0.97182 0.86843 0.0
C1579 C 0.30542 0.97992 0.84419 0.0
C1580 C 0.32012 0.98505 0.82433 0.0
C1581 C 0.36059 0.90377 0.71774 0.0
C1582 C 0.35408 0.90774 0.69171 0.0
C1583 C 0.36194 0.92475 0.73697 0.0
C1584 C 0.35851 0.95108 0.73065 0.0
C1585 C 0.34823 0.95433 0.7059 0.0
C1586 C 0.3464 0.93291 0.68626 0.0
C1587 C 0.36658 0.97444 0.75055 0.0
C1588 C 0.35038 0.97436 0.77735 0.0
C1589 C 0.40474 0.99938 0.76369 0.0
C1590 C 0.42965 0.99717 0.75598 0.0
C1591 C 0.43857 1.00052 0.73076 0.0
C1592 C 0.46104 0.99874 0.72618 0.0
C1593 C 0.47563 0.99309 0.7464 0.0
C1594 C 0.46766 0.98869 0.77112 0.0
C1595 C 0.44521 0.99044 0.77572 0.0
H1596 H 0.49301 0.99159 0.74277 0.0
H1597 H 0.3018 0.96787 0.88378 0.0
H1598 H 0.36452 0.08672 0.01964 0.0
H1599 H 0.33389 0.08803 0.04983 0.0
H1600 H 0.29956 0.1395 0.99929 0.0
H1601 H 0.33122 0.13989 0.97024 0.0
H1602 H 0.28992 0.15253 0.04619 0.0
H1603 H 0.29525 0.06662 1.00003 0.0
H1604 H 0.3135 0.02516 0.98751 0.0
H1605 H 0.31541 0.00555 0.06858 0.0
H1606 H 0.29757 0.04722 0.08168 0.0
H1607 H 0.18769 0.13415 0.10627 0.0
H1608 H 0.21678 0.13379 0.07422 0.0
H1609 H 0.25165 0.077 0.11726 0.0
H1610 H 0.22207 0.07596 0.14862 0.0
H1611 H 0.25962 0.06619 0.07107 0.0
H1612 H 0.26078 0.15174 0.11942 0.0
H1613 H 0.24683 0.19492 0.13538 0.0
H1614 H 0.23712 0.21601 0.05541 0.0
H1615 H 0.25093 0.17293 0.03892 0.0
C1616 C 0.35049 0.09853 0.01518 0.0
C1617 C 0.35003 0.1129 0.99247 0.0
C1618 C 0.33286 0.09909 0.03232 0.0
C1619 C 0.31375 0.11279 0.02631 0.0
C1620 C 0.31382 0.12831 0.00424 0.0
C1621 C 0.33189 0.12853 0.98759 0.0
C1622 C 0.29359 0.11043 0.04254 0.0
C1623 C 0.28315 0.13359 0.05133 0.0
C1624 C 0.28494 0.08575 0.05 0.0
C1625 C 0.29501 0.06019 0.04184 0.0
C1626 C 0.29956 0.05354 0.01522 0.0
C1627 C 0.30993 0.03001 0.00802 0.0
C1628 C 0.31561 0.01271 0.02723 0.0
C1629 C 0.31095 0.01893 0.05369 0.0
C1630 C 0.3007 0.04253 0.061 0.0
C1631 C 0.20117 0.12089 0.1085 0.0
C1632 C 0.20227 0.10485 0.13004 0.0
C1633 C 0.21818 0.12129 0.0904 0.0
C1634 C 0.237 0.10617 0.09342 0.0
C1635 C 0.23752 0.08905 0.11415 0.0
C1636 C 0.22042 0.08835 0.13213 0.0
C1637 C 0.25623 0.10842 0.07547 0.0
C1638 C 0.26636 0.08517 0.06602 0.0
C1639 C 0.26497 0.13306 0.06794 0.0
C1640 C 0.2565 0.15888 0.07794 0.0
C1641 C 0.25547 0.16548 0.10524 0.0
C1642 C 0.24761 0.18996 0.11438 0.0
C1643 C 0.24091 0.20811 0.09644 0.0
C1644 C 0.24225 0.20192 0.0693 0.0
C1645 C 0.25013 0.17749 0.06005 0.0
H1646 H 0.23479 0.22703 0.10359 0.0
H1647 H 0.32363 0.99449 0.02162 0.0
H1648 H 0.91929 0.28883 0.10117 0.0
H1649 H 0.95142 0.2607 0.10285 0.0
H1650 H 0.92126 0.21794 0.16397 0.0
H1651 H 0.89038 0.24735 0.16365 0.0
H1652 H 0.9582 0.22139 0.1783 0.0
H1653 H 0.93049 0.19493 0.09075 0.0
H1654 H 0.91828 0.2012 0.04484 0.0
H1655 H 0.98177 0.23486 0.02908 0.0
H1656 H 0.99425 0.22886 0.07498 0.0
H1657 H 0.03221 0.11287 0.17528 0.0
H1658 H 1.00192 0.1419 0.1731 0.0
H1659 H 0.03536 0.18662 0.11631 0.0
H1660 H 0.06488 0.15454 0.1156 0.0
H1661 H 0.99752 0.18436 0.10089 0.0
H1662 H 0.00533 0.22827 0.20296 0.0
H1663 H 0.00971 0.22143 0.25055 0.0
H1664 H 0.97283 0.148 0.23883 0.0
H1665 H 0.96822 0.15485 0.19129 0.0
C1666 C 0.91961 0.27333 0.11487 0.0
C1667 C 0.90227 0.2704 0.13234 0.0
C1668 C 0.93803 0.257 0.11579 0.0
C1669 C 0.93926 0.23664 0.13352 0.0
C1670 C 0.92141 0.23348 0.15032 0.0
C1671 C 0.9035 0.25029 0.15004 0.0
C1672 C 0.95915 0.2193 0.13584 0.0
C1673 C 0.96649 0.21306 0.16115 0.0
C1674 C 0.97069 0.20839 0.11392 0.0
C1675 C 0.96323 0.21177 0.08633 0.0
C1676 C 0.94179 0.20379 0.07751 0.0
C1677 C 0.93483 0.20726 0.0515 0.0
C1678 C 0.94921 0.2185 0.03407 0.0
C1679 C 0.97062 0.2262 0.0426 0.0
C1680 C 0.97766 0.22275 0.06859 0.0
C1681 C 0.03364 0.12932 0.16279 0.0
C1682 C 0.05173 0.13148 0.14615 0.0
C1683 C 0.01611 0.14674 0.16211 0.0
C1684 C 0.01614 0.16813 0.14579 0.0
C1685 C 0.03462 0.17085 0.12964 0.0
C1686 C 0.05198 0.15276 0.12966 0.0
C1687 C 0.99639 0.18594 0.14346 0.0
C1688 C 0.98921 0.19261 0.11804 0.0
C1689 C 0.98414 0.19621 0.16528 0.0
C1690 C 0.98868 0.19064 0.19313 0.0
C1691 C 0.99935 0.21 0.21035 0.0
C1692 C 1.00141 0.20642 0.2374 0.0
C1693 C 0.9923 0.18377 0.24757 0.0
C1694 C 0.98051 0.16513 0.23083 0.0
C1695 C 0.97819 0.16889 0.20385 0.0
H1696 H 0.9939 0.18102 0.26851 0.0
H1697 H 0.94378 0.22118 0.01395 0.0
H1698 H 0.5385 0.33556 0.94395 0.0
H1699 H 0.50724 0.30457 0.93496 0.0
H1700 H 0.51913 0.30299 0.85153 0.0
H1701 H 0.54932 0.33603 0.86024 0.0
H1702 H 0.47011 0.31033 0.90506 0.0
H1703 H 0.50118 0.24767 0.82314 0.0
H1704 H 0.52036 0.22178 0.82558 0.0
H1705 H 0.56483 0.17378 0.8806 0.0
H1706 H 0.5452 0.20715 0.91225 0.0
H1707 H 0.40497 0.19017 0.82674 0.0
H1708 H 0.43603 0.22218 0.8312 0.0
H1709 H 0.42571 0.23312 0.9149 0.0
H1710 H 0.39454 0.20137 0.91046 0.0
H1711 H 0.47372 0.22398 0.85522 0.0
H1712 H 0.44187 0.29411 0.93997 0.0
H1713 H 0.40656 0.31171 0.95478 0.0
H1714 H 0.37893 0.29803 0.87605 0.0
H1715 H 0.41413 0.2807 0.86069 0.0
C1716 C 0.53453 0.32867 0.92366 0.0
C1717 C 0.5469 0.33774 0.90287 0.0
C1718 C 0.51659 0.31095 0.91853 0.0
C1719 C 0.51128 0.30061 0.89263 0.0
C1720 C 0.5233 0.30998 0.87174 0.0
C1721 C 0.54055 0.32889 0.87678 0.0
C1722 C 0.49202 0.28186 0.88759 0.0
C1723 C 0.47122 0.29076 0.89526 0.0
C1724 C 0.49327 0.25613 0.87476 0.0
C1725 C 0.51442 0.24127 0.86783 0.0
C1726 C 0.51365 0.23371 0.83373 0.0
C1727 C 0.52906 0.20749 0.81923 0.0
C1728 C 0.54626 0.18729 0.83472 0.0
C1729 C 0.55295 0.18763 0.86909 0.0
C1730 C 0.54133 0.20984 0.89138 0.0
C1731 C 0.40925 0.19942 0.84613 0.0
C1732 C 0.397 0.19316 0.86821 0.0
C1733 C 0.42709 0.21787 0.84865 0.0
C1734 C 0.43319 0.23085 0.87329 0.0
C1735 C 0.4212 0.22419 0.89545 0.0
C1736 C 0.40337 0.20573 0.89294 0.0
C1737 C 0.45264 0.25025 0.87619 0.0
C1738 C 0.47319 0.24232 0.86712 0.0
C1739 C 0.45175 0.27519 0.89031 0.0
C1740 C 0.4306 0.28594 0.89924 0.0
C1741 C 0.42829 0.295 0.92579 0.0
C1742 C 0.40828 0.30489 0.93429 0.0
C1743 C 0.3905 0.30593 0.91638 0.0
C1744 C 0.39269 0.29714 0.88992 0.0
C1745 C 0.41266 0.28725 0.88132 0.0
H1746 H 0.37502 0.31358 0.92301 0.0
H1747 H 0.55067 0.18623 0.85278 0.0
H1748 H 0.95804 0.66354 0.34105 0.0
H1749 H 0.98668 0.69862 0.34297 0.0
H1750 H 0.98733 0.70111 0.42812 0.0
H1751 H 0.95725 0.66783 0.42609 0.0
H1752 H 1.00066 0.74576 0.41817 0.0
H1753 H 0.02454 0.66389 0.38964 0.0
H1754 H 0.02619 0.62074 0.36448 0.0
H1755 H 0.03819 0.65984 0.29348 0.0
H1756 H 0.03627 0.70329 0.31818 0.0
H1757 H 0.11352 0.79566 0.4231 0.0
H1758 H 0.07764 0.77273 0.42725 0.0
H1759 H 0.06742 0.77093 0.34259 0.0
H1760 H 0.10357 0.79209 0.33844 0.0
H1761 H 0.06111 0.72458 0.35885 0.0
H1762 H 0.00928 0.84621 0.40628 0.0
H1763 H 0.00587 0.86962 0.45554 0.0
H1764 H 0.03314 0.79854 0.50385 0.0
H1765 H 0.03399 0.78149 0.44065 0.0
C1766 C 0.96362 0.67244 0.36016 0.0
C1767 C 0.95509 0.66308 0.38338 0.0
C1768 C 0.98037 0.69224 0.36133 0.0
C1769 C 0.99 0.70225 0.38575 0.0
C1770 C 0.98043 0.69411 0.40898 0.0
C1771 C 0.96307 0.67499 0.40779 0.0
C1772 C 0.01091 0.71938 0.38674 0.0
C1773 C 0.01317 0.74234 0.40396 0.0
C1774 C 0.02889 0.71289 0.37072 0.0
C1775 C 0.03 0.68685 0.3557 0.0
C1776 C 0.02735 0.66329 0.36862 0.0
C1777 C 0.02835 0.63878 0.35445 0.0
C1778 C 0.03222 0.63755 0.32738 0.0
C1779 C 0.03514 0.66084 0.31444 0.0
C1780 C 0.0341 0.68542 0.32851 0.0
C1781 C 0.10342 0.79049 0.40549 0.0
C1782 C 0.11121 0.79562 0.38043 0.0
C1783 C 0.08288 0.77756 0.40788 0.0
C1784 C 0.06951 0.77048 0.38529 0.0
C1785 C 0.07726 0.77631 0.36037 0.0
C1786 C 0.09793 0.78842 0.35796 0.0
C1787 C 0.04879 0.75426 0.38664 0.0
C1788 C 0.04727 0.73033 0.37075 0.0
C1789 C 0.03108 0.76099 0.40325 0.0
C1790 C 0.03098 0.7871 0.42504 0.0
C1791 C 0.01521 0.83511 0.42273 0.0
C1792 C 0.01264 0.85014 0.45364 0.0
C1793 C 0.01966 0.83499 0.48142 0.0
C1794 C 0.02988 0.80413 0.48394 0.0
C1795 C 0.03568 0.78096 0.45945 0.0
H1796 H 0.01721 0.84624 0.49991 0.0
H1797 H 0.03302 0.61855 0.31644 0.0
H1798 H 0.98898 0.36024 0.18203 0.0
H1799 H 0.01471 0.32445 0.18196 0.0
H1800 H 0.98378 0.28892 0.11019 0.0
H1801 H 0.95789 0.32522 0.10991 0.0
H1802 H 0.01451 0.2739 0.18442 0.0
H1803 H 0.0251 0.25867 0.07186 0.0
H1804 H 0.01844 0.28213 0.03146 0.0
H1805 H 0.02601 0.35674 0.07651 0.0
H1806 H 0.03275 0.33368 0.11715 0.0
H1807 H 0.09883 0.18029 0.11718 0.0
H1808 H 0.06935 0.21156 0.11046 0.0
H1809 H 0.09001 0.25572 0.183 0.0
H1810 H 0.11797 0.2234 0.19077 0.0
H1811 H 0.06072 0.26065 0.10586 0.0
H1812 H 0.0476 0.27758 0.21842 0.0
H1813 H 0.05681 0.25596 0.25927 0.0
H1814 H 0.0578 0.18066 0.21535 0.0
H1815 H 0.0484 0.20179 0.17442 0.0
C1816 C 0.9873 0.34461 0.1664 0.0
C1817 C 0.97145 0.3459 0.14579 0.0
C1818 C 1.00208 0.32402 0.16643 0.0
C1819 C 1.00154 0.30408 0.14583 0.0
C1820 C 0.98476 0.30422 0.12614 0.0
C1821 C 0.96984 0.32492 0.12611 0.0
C1822 C 0.01948 0.28445 0.14454 0.0
C1823 C 0.02464 0.27112 0.16725 0.0
C1824 C 0.03255 0.28022 0.12197 0.0
C1825 C 0.02887 0.29439 0.09764 0.0
C1826 C 0.02519 0.28006 0.07316 0.0
C1827 C 0.02146 0.2933 0.05021 0.0
C1828 C 0.02165 0.32092 0.05144 0.0
C1829 C 0.02571 0.33535 0.07561 0.0
C1830 C 0.02944 0.32219 0.09862 0.0
C1831 C 0.09684 0.19659 0.13173 0.0
C1832 C 0.10983 0.19869 0.15514 0.0
C1833 C 0.08012 0.21457 0.12781 0.0
C1834 C 0.07653 0.23518 0.14702 0.0
C1835 C 0.09155 0.23917 0.1686 0.0
C1836 C 0.10759 0.2207 0.17303 0.0
C1837 C 0.05615 0.25093 0.14604 0.0
C1838 C 0.05043 0.26321 0.12291 0.0
C1839 C 0.0427 0.25448 0.16835 0.0
C1840 C 0.04735 0.24133 0.19321 0.0
C1841 C 0.04959 0.25639 0.21749 0.0
C1842 C 0.05496 0.24423 0.24068 0.0
C1843 C 0.05803 0.21698 0.2399 0.0
C1844 C 0.05557 0.20179 0.21595 0.0
C1845 C 0.05017 0.21384 0.19274 0.0
H1846 H 0.06218 0.20762 0.25787 0.0
H1847 H 0.01877 0.33114 0.03365 0.0
H1848 H 0.60122 0.68222 0.68831 0.0
H1849 H 0.57479 0.71774 0.68814 0.0
H1850 H 0.59478 0.73605 0.61049 0.0
H1851 H 0.62144 0.70035 0.6105 0.0
H1852 H 0.58805 0.78252 0.65863 0.0
H1853 H 0.5318 0.72336 0.58971 0.0
H1854 H 0.5242 0.67453 0.56701 0.0
H1855 H 0.53017 0.64668 0.67391 0.0
H1856 H 0.53253 0.67892 0.66275 0.0
H1857 H 0.47581 0.81984 0.59243 0.0
H1858 H 0.50596 0.79029 0.60005 0.0
H1859 H 0.51988 0.83053 0.67668 0.0
H1860 H 0.49031 0.86096 0.66853 0.0
H1861 H 0.51048 0.75722 0.63381 0.0
H1862 H 0.57464 0.81957 0.69628 0.0
H1863 H 0.58601 0.8664 0.70576 0.0
H1864 H 0.56391 0.884 0.62789 0.0
H1865 H 0.55265 0.8372 0.61784 0.0
C1866 C 0.59999 0.69365 0.67106 0.0
C1867 C 0.61334 0.68795 0.64921 0.0
C1868 C 0.58483 0.7141 0.67106 0.0
C1869 C 0.58242 0.72951 0.64918 0.0
C1870 C 0.59616 0.72444 0.6276 0.0
C1871 C 0.61126 0.70377 0.62749 0.0
C1872 C 0.56509 0.75009 0.64842 0.0
C1873 C 0.57106 0.777 0.65337 0.0
C1874 C 0.54271 0.74351 0.64183 0.0
C1875 C 0.53476 0.71656 0.63582 0.0
C1876 C 0.53042 0.70761 0.60301 0.0
C1877 C 0.52576 0.677 0.58832 0.0
C1878 C 0.52438 0.64985 0.6061 0.0
C1879 C 0.53027 0.66247 0.65668 0.0
C1880 C 0.5346 0.69747 0.66185 0.0
C1881 C 0.48518 0.82225 0.61096 0.0
C1882 C 0.48081 0.84274 0.62979 0.0
C1883 C 0.50259 0.80557 0.61524 0.0
C1884 C 0.51571 0.80868 0.63865 0.0
C1885 C 0.51062 0.82834 0.65807 0.0
C1886 C 0.49348 0.84541 0.65355 0.0
C1887 C 0.53333 0.78965 0.64323 0.0
C1888 C 0.5274 0.76298 0.63923 0.0
C1889 C 0.55541 0.79693 0.65101 0.0
C1890 C 0.56267 0.82494 0.6564 0.0
C1891 C 0.57234 0.83341 0.68113 0.0
C1892 C 0.57873 0.85995 0.68662 0.0
C1893 C 0.57564 0.87818 0.66746 0.0
C1894 C 0.56624 0.86987 0.64273 0.0
C1895 C 0.55984 0.84334 0.63713 0.0
H1896 H 0.58055 0.89873 0.67177 0.0
H1897 H 0.5215 0.63084 0.59482 0.0
H1898 H 0.86063 0.72126 0.41793 0.0
H1899 H 0.89331 0.75028 0.42531 0.0
H1900 H 0.92457 0.70857 0.36025 0.0
H1901 H 0.89139 0.68046 0.35199 0.0
H1902 H 0.93175 0.74242 0.43971 0.0
H1903 H 0.96428 0.74634 0.33468 0.0
H1904 H 0.94995 0.74326 0.28854 0.0
H1905 H 0.88794 0.77227 0.31427 0.0
H1906 H 0.90203 0.776 0.36045 0.0
H1907 H 0.04586 0.8191 0.36854 0.0
H1908 H 0.02284 0.80814 0.38666 0.0
H1909 H 0.99365 0.80276 0.46373 0.0
H1910 H 0.05485 0.83209 0.46146 0.0
H1911 H 0.9697 0.78809 0.36988 0.0
H1912 H 0.94203 0.80165 0.4687 0.0
H1913 H 0.95053 0.80462 0.51674 0.0
H1914 H 0.99557 0.74132 0.50649 0.0
H1915 H 0.98719 0.73787 0.45861 0.0
C1916 C 0.87446 0.71832 0.40519 0.0
C1917 C 0.87339 0.69866 0.38434 0.0
C1918 C 0.89318 0.73496 0.40937 0.0
C1919 C 0.91147 0.73206 0.3931 0.0
C1920 C 0.91059 0.71188 0.37265 0.0
C1921 C 0.89165 0.69562 0.36809 0.0
C1922 C 0.93166 0.74942 0.39852 0.0
C1923 C 0.94006 0.7526 0.42446 0.0
C1924 C 0.94262 0.76269 0.37879 0.0
C1925 C 0.93417 0.76126 0.35102 0.0
C1926 C 0.94765 0.75224 0.33044 0.0
C1927 C 0.93956 0.75037 0.30429 0.0
C1928 C 0.91804 0.75754 0.29846 0.0
C1929 C 0.9046 0.76673 0.31877 0.0
C1930 C 0.91262 0.76872 0.34495 0.0
C1931 C 0.03583 0.81465 0.38762 0.0
C1932 C 0.0524 0.82552 0.41447 0.0
C1933 C 0.00817 0.80099 0.38835 0.0
C1934 C 0.99314 0.79576 0.4159 0.0
C1935 C 0.004 0.80428 0.44701 0.0
C1936 C 0.04359 0.82384 0.4456 0.0
C1937 C 0.97083 0.78127 0.41164 0.0
C1938 C 0.96187 0.77816 0.38553 0.0
C1939 C 0.95901 0.76822 0.43144 0.0
C1940 C 0.96456 0.77012 0.45996 0.0
C1941 C 0.95382 0.78847 0.47674 0.0
C1942 C 0.95858 0.7902 0.50394 0.0
C1943 C 0.97375 0.77334 0.51461 0.0
C1944 C 0.98399 0.75453 0.49815 0.0
C1945 C 0.97927 0.75269 0.47094 0.0
H1946 H 0.97745 0.77474 0.53567 0.0
H1947 H 0.91178 0.75598 0.27821 0.0
H1948 H 0.45968 0.15626 0.94797 0.0
H1949 H 0.49122 0.18472 0.93933 0.0
H1950 H 0.47194 0.18036 0.85648 0.0
H1951 H 0.44156 0.15043 0.86512 0.0
H1952 H 0.50934 0.18136 0.84982 0.0
H1953 H 0.46742 0.23469 0.92182 0.0
H1954 H 0.44939 0.24534 0.96368 0.0
H1955 H 0.51208 0.24791 0.00495 0.0
H1956 H 0.53046 0.23747 0.96305 0.0
H1957 H 0.60201 0.31367 0.85279 0.0
H1958 H 0.56625 0.29032 0.85046 0.0
H1959 H 0.58009 0.2593 0.92601 0.0
H1960 H 0.61592 0.28328 0.92858 0.0
H1961 H 0.53698 0.26649 0.92654 0.0
H1962 H 0.59074 0.21774 0.86268 0.0
H1963 H 0.62159 0.22592 0.83368 0.0
H1964 H 0.5787 0.26494 0.78121 0.0
H1965 H 0.54767 0.25739 0.80997 0.0
C1966 C 0.46165 0.16256 0.92814 0.0
C1967 C 0.44751 0.15226 0.90738 0.0
C1968 C 0.47979 0.17897 0.92314 0.0
C1969 C 0.48359 0.18667 0.89748 0.0
C1970 C 0.46932 0.1761 0.87676 0.0
C1971 C 0.45159 0.1591 0.88164 0.0
C1972 C 0.50267 0.20465 0.89181 0.0
C1973 C 0.51548 0.19855 0.86233 0.0
C1974 C 0.51163 0.23058 0.91373 0.0
C1975 C 0.50033 0.23555 0.93901 0.0
C1976 C 0.4774 0.23784 0.93962 0.0
C1977 C 0.46709 0.2437 0.96347 0.0
C1978 C 0.47958 0.24739 0.987 0.0
C1979 C 0.5024 0.24512 0.98669 0.0
C1980 C 0.51276 0.23926 0.96284 0.0
C1981 C 0.59731 0.30216 0.86906 0.0
C1982 C 0.61178 0.30022 0.89081 0.0
C1983 C 0.57688 0.28851 0.86761 0.0
C1984 C 0.57041 0.27238 0.88773 0.0
C1985 C 0.58445 0.2716 0.91019 0.0
C1986 C 0.60498 0.28528 0.91165 0.0
C1987 C 0.55041 0.25432 0.88429 0.0
C1988 C 0.53309 0.25263 0.90986 0.0
C1989 C 0.5479 0.23204 0.85717 0.0
C1990 C 0.56638 0.23536 0.83781 0.0
C1991 C 0.58767 0.22733 0.84456 0.0
C1992 C 0.6053 0.2322 0.8283 0.0
C1993 C 0.60202 0.24549 0.80534 0.0
C1994 C 0.58113 0.25416 0.79872 0.0
C1995 C 0.56344 0.2494 0.81494 0.0
H1996 H 0.61573 0.24939 0.79287 0.0
H1997 H 0.47159 0.25194 0.00548 0.0
H1998 H 0.84253 0.08708 0.65923 0.0
H1999 H 0.85485 0.06045 0.69506 0.0
H2000 H 0.90258 0.12125 0.72171 0.0
H2001 H 0.8905 0.14812 0.68591 0.0
H2002 H 0.92032 0.07385 0.7231 0.0
H2003 H 0.85487 0.11233 0.75178 0.0
H2004 H 0.81606 0.12468 0.75117 0.0
H2005 H 0.7957 0.04318 0.75368 0.0
H2006 H 0.83434 0.03016 0.75374 0.0
H2007 H 0.92662 0.00255 0.84931 0.0
H2008 H 0.91686 0.03959 0.82284 0.0
H2009 H 0.89674 0.98505 0.75805 0.0
H2010 H 0.90622 0.94737 0.78423 0.0
H2011 H 0.86674 0.03595 0.78327 0.0
H2012 H 0.93686 0.01852 0.71727 0.0
H2013 H 0.97546 0.005 0.71908 0.0
H2014 H 0.98507 0.04687 0.79515 0.0
H2015 H 0.94648 0.06066 0.79367 0.0
C2016 C 0.8557 0.0948 0.67263 0.0
C2017 C 0.86544 0.11984 0.66966 0.0
C2018 C 0.86248 0.07966 0.69342 0.0
C2019 C 0.87924 0.08893 0.71166 0.0
C2020 C 0.88951 0.11358 0.70815 0.0
C2021 C 0.88258 0.12892 0.68757 0.0
C2022 C 0.88627 0.07265 0.73395 0.0
C2023 C 0.90852 0.066 0.73641 0.0
C2024 C 0.87108 0.06232 0.75175 0.0
C2025 C 0.84767 0.07016 0.75207 0.0
C2026 C 0.84217 0.09693 0.75177 0.0
C2027 C 0.82015 0.10409 0.75163 0.0
C2028 C 0.80341 0.08472 0.7522 0.0
C2029 C 0.80867 0.05817 0.75317 0.0
C2030 C 0.83066 0.05091 0.75333 0.0
C2031 C 0.92013 0.99826 0.82935 0.0
C2032 C 0.9173 0.97183 0.8188 0.0
C2033 C 0.91461 0.01953 0.81425 0.0
C2034 C 0.90635 0.01485 0.78822 0.0
C2035 C 0.90356 0.98871 0.77781 0.0
C2036 C 0.90887 0.96736 0.79284 0.0
C2037 C 0.90031 0.03682 0.77149 0.0
C2038 C 0.87834 0.04437 0.77005 0.0
C2039 C 0.91559 0.04811 0.75475 0.0
C2040 C 0.93885 0.04054 0.75538 0.0
C2041 C 0.94725 0.02496 0.73429 0.0
C2042 C 0.9691 0.01719 0.73528 0.0
C2043 C 0.98272 0.02506 0.75722 0.0
C2044 C 0.9745 0.04073 0.77819 0.0
C2045 C 0.95264 0.04848 0.77731 0.0
H2046 H 0.99963 0.01903 0.75796 0.0
H2047 H 0.78638 0.09031 0.75204 0.0
H2048 H 0.61611 0.09026 0.47597 0.0
H2049 H 0.6495 0.10025 0.50266 0.0
H2050 H 0.66298 0.16835 0.45827 0.0
H2051 H 0.62861 0.15885 0.432 0.0
H2052 H 0.6881 0.09737 0.48829 0.0
H2053 H 0.69841 0.21269 0.49581 0.0
H2054 H 0.67549 0.25185 0.50209 0.0
H2055 H 0.62523 0.20467 0.53592 0.0
H2056 H 0.64796 0.16535 0.53022 0.0
H2057 H 0.78756 0.19322 0.53161 0.0
H2058 H 0.75444 0.17724 0.50709 0.0
H2059 H 0.74375 0.11968 0.56458 0.0
H2060 H 0.77876 0.13273 0.58655 0.0
H2061 H 0.71609 0.18298 0.53058 0.0
H2062 H 0.71981 0.08727 0.55255 0.0
H2063 H 0.73393 0.04229 0.55243 0.0
H2064 H 0.74174 0.04165 0.46878 0.0
H2065 H 0.73104 0.08817 0.46909 0.0
C2066 C 0.62603 0.10757 0.47206 0.0
C2067 C 0.61987 0.12361 0.4517 0.0
C2068 C 0.64519 0.11327 0.48735 0.0
C2069 C 0.65902 0.13493 0.48248 0.0
C2070 C 0.65254 0.15166 0.4627 0.0
C2071 C 0.63296 0.1462 0.4476 0.0
C2072 C 0.68091 0.1383 0.49672 0.0
C2073 C 0.69415 0.11615 0.49767 0.0
C2074 C 0.68879 0.16256 0.50937 0.0
C2075 C 0.67477 0.18598 0.51217 0.0
C2076 C 0.68245 0.21066 0.50452 0.0
C2077 C 0.6695 0.2329 0.50802 0.0
C2078 C 0.64887 0.23072 0.51926 0.0
C2079 C 0.64115 0.2063 0.52705 0.0
C2080 C 0.65404 0.18402 0.52363 0.0
C2081 C 0.77908 0.17583 0.53792 0.0
C2082 C 0.78648 0.1636 0.56051 0.0
C2083 C 0.75979 0.1669 0.52406 0.0
C2084 C 0.74651 0.14647 0.53319 0.0
C2085 C 0.75398 0.13407 0.55567 0.0
C2086 C 0.77401 0.14201 0.56871 0.0
C2087 C 0.72357 0.14207 0.52177 0.0
C2088 C 0.7101 0.16423 0.52113 0.0
C2089 C 0.71497 0.11742 0.51049 0.0
C2090 C 0.72646 0.09218 0.51137 0.0
C2091 C 0.72648 0.07849 0.53459 0.0
C2092 C 0.73377 0.05259 0.53441 0.0
C2093 C 0.73972 0.0395 0.51073 0.0
C2094 C 0.73848 0.05236 0.48729 0.0
C2095 C 0.73235 0.07874 0.4876 0.0
H2096 H 0.74464 0.01913 0.5104 0.0
H2097 H 0.6389 0.24797 0.52203 0.0
H2098 H 0.67968 0.96487 0.17075 0.0
H2099 H 0.66808 1.00097 0.20145 0.0
H2100 H 0.63185 0.9448 0.24474 0.0
H2101 H 0.64369 0.90868 0.21424 0.0
H2102 H 0.59112 0.03075 0.21274 0.0
H2103 H 0.64366 0.97043 0.31458 0.0
H2104 H 0.67566 0.9471 0.33148 0.0
H2105 H 0.71519 0.97636 0.2703 0.0
H2106 H 0.68361 1.00031 0.25349 0.0
H2107 H 0.54933 0.0711 0.34013 0.0
H2108 H 0.56432 0.03998 0.3067 0.0
H2109 H 0.62918 0.07308 0.32512 0.0
H2110 H 0.6141 0.10589 0.35686 0.0
H2111 H 0.63421 0.02093 0.31489 0.0
H2112 H 0.58879 0.09553 0.27847 0.0
H2113 H 0.55597 0.12232 0.27525 0.0
H2114 H 0.5211 0.05767 0.23207 0.0
H2115 H 0.55376 0.03026 0.23521 0.0
C2116 C 0.66894 0.96037 0.18663 0.0
C2117 C 0.661 0.93436 0.18893 0.0
C2118 C 0.6622 0.98102 0.20414 0.0
C2119 C 0.64676 0.97599 0.22356 0.0
C2120 C 0.64199 0.94948 0.22838 0.0
C2121 C 0.64878 0.92883 0.21102 0.0
C2122 C 0.63471 0.99788 0.23921 0.0
C2123 C 0.60104 0.02768 0.23058 0.0
C2124 C 0.64219 1.00088 0.27247 0.0
C2125 C 0.66115 0.98661 0.28242 0.0
C2126 C 0.65919 0.97187 0.30475 0.0
C2127 C 0.67726 0.95857 0.31435 0.0
C2128 C 0.6974 0.96008 0.30185 0.0
C2129 C 0.69954 0.97499 0.27982 0.0
C2130 C 0.68152 0.98832 0.27018 0.0
C2131 C 0.56677 0.07218 0.33642 0.0
C2132 C 0.58044 0.09178 0.3499 0.0
C2133 C 0.57535 0.05421 0.31757 0.0
C2134 C 0.59782 0.0553 0.31208 0.0
C2135 C 0.61171 0.0732 0.32746 0.0
C2136 C 0.60308 0.09189 0.34565 0.0
C2137 C 0.60626 0.03995 0.28871 0.0
C2138 C 0.62826 0.02052 0.29455 0.0
C2139 C 0.59318 0.04394 0.25901 0.0
C2140 C 0.57382 0.06075 0.25707 0.0
C2141 C 0.57424 0.08694 0.26818 0.0
C2142 C 0.55559 0.10227 0.26645 0.0
C2143 C 0.53645 0.09172 0.25345 0.0
C2144 C 0.53595 0.06583 0.24211 0.0
C2145 C 0.55455 0.05041 0.24383 0.0
H2146 H 0.52201 0.10361 0.25217 0.0
H2147 H 0.71138 0.9498 0.30933 0.0
H2148 H 0.84087 0.94556 0.88309 0.0
H2149 H 0.81413 0.93698 0.91653 0.0
H2150 H 0.8599 0.88595 0.95337 0.0
H2151 H 0.88549 0.89249 0.91827 0.0
H2152 H 0.82649 0.86948 0.96572 0.0
H2153 H 0.85045 0.95769 0.9737 0.0
H2154 H 0.85915 0.00261 0.96033 0.0
H2155 H 0.79084 0.01346 0.94175 0.0
H2156 H 0.78175 0.96846 0.95472 0.0
H2157 H 0.74696 0.89384 0.11592 0.0
H2158 H 0.7739 0.89957 0.08738 0.0
H2159 H 0.72211 0.91471 0.02774 0.0
H2160 H 0.69722 0.90664 0.05828 0.0
H2161 H 0.78989 0.91791 0.00311 0.0
H2162 H 0.79053 0.83115 0.98467 0.0
H2163 H 0.80483 0.79096 0.00263 0.0
H2164 H 0.85206 0.83797 0.05113 0.0
H2165 H 0.83788 0.87856 0.0334 0.0
C2166 C 0.84477 0.93169 0.89777 0.0
C2167 C 0.86513 0.91942 0.89779 0.0
C2168 C 0.82972 0.92733 0.91749 0.0
C2169 C 0.83499 0.91152 0.93854 0.0
C2170 C 0.85495 0.8981 0.93761 0.0
C2171 C 0.86967 0.90171 0.91729 0.0
C2172 C 0.8203 0.91008 0.96195 0.0
C2173 C 0.81762 0.88622 0.97399 0.0
C2174 C 0.81009 0.93261 0.97279 0.0
C2175 C 0.81547 0.95959 0.96486 0.0
C2176 C 0.83731 0.9696 0.9666 0.0
C2177 C 0.8423 0.99507 0.95911 0.0
C2178 C 0.82556 0.01084 0.95011 0.0
C2179 C 0.80379 0.0012 0.94866 0.0
C2180 C 0.7987 0.97573 0.9561 0.0
C2181 C 0.74194 0.89764 0.09585 0.0
C2182 C 0.71989 0.89854 0.08922 0.0
C2183 C 0.75814 0.90076 0.07712 0.0
C2184 C 0.75509 0.90498 0.04802 0.0
C2185 C 0.73066 0.90903 0.04534 0.0
C2186 C 0.71441 0.90462 0.06389 0.0
C2187 C 0.78885 0.90659 0.00782 0.0
C2188 C 0.79517 0.93153 0.99288 0.0
C2189 C 0.8051 0.88277 0.99668 0.0
C2190 C 0.81206 0.85812 0.00903 0.0
C2191 C 0.80355 0.83305 0.99962 0.0
C2192 C 0.81175 0.81014 0.00964 0.0
C2193 C 0.82905 0.81193 0.02842 0.0
C2194 C 0.83838 0.83662 0.03696 0.0
C2195 C 0.83021 0.85957 0.02699 0.0
H2196 H 0.83543 0.79416 0.03609 0.0
H2197 H 0.82947 0.03056 0.94433 0.0
H2198 H 0.86995 0.03428 0.6067 0.0
H2199 H 0.85922 0.99738 0.63256 0.0
H2200 H 0.90257 0.02804 0.69642 0.0
H2201 H 0.91392 0.06496 0.67033 0.0
H2202 H 0.90534 0.9761 0.68991 0.0
H2203 H 0.83013 0.02912 0.70411 0.0
H2204 H 0.79935 0.04916 0.68064 0.0
H2205 H 0.79636 0.98279 0.62328 0.0
H2206 H 0.82742 0.96294 0.64646 0.0
H2207 H 0.85308 0.94647 0.81432 0.0
H2208 H 0.86239 0.97073 0.77562 0.0
H2209 H 0.84305 0.90294 0.72398 0.0
H2210 H 0.83225 0.87916 0.76218 0.0
H2211 H 0.82804 0.96388 0.71616 0.0
H2212 H 0.88274 0.90113 0.71894 0.0
H2213 H 0.91202 0.87431 0.73643 0.0
H2214 H 0.95521 0.94288 0.74594 0.0
H2215 H 0.92596 0.97034 0.72948 0.0
C2216 C 0.87713 0.03337 0.62639 0.0
C2217 C 0.89254 0.05299 0.63658 0.0
C2218 C 0.87065 0.01232 0.64142 0.0
C2219 C 0.87926 0.01034 0.66721 0.0
C2220 C 0.89529 0.02939 0.67693 0.0
C2221 C 0.90176 0.05053 0.66197 0.0
C2222 C 0.87223 0.98852 0.68422 0.0
C2223 C 0.88849 0.9735 0.69589 0.0
C2224 C 0.84999 0.98333 0.69039 0.0
C2225 C 0.8315 0.99523 0.67648 0.0
C2226 C 0.82314 0.01925 0.68626 0.0
C2227 C 0.80559 0.03045 0.67309 0.0
C2228 C 0.79602 0.01739 0.65028 0.0
C2229 C 0.80388 0.99302 0.64081 0.0
C2230 C 0.82146 0.98183 0.65397 0.0
C2231 C 0.85131 0.93649 0.79479 0.0
C2232 C 0.84239 0.91057 0.79154 0.0
C2233 C 0.8571 0.95024 0.77265 0.0
C2234 C 0.85524 0.93801 0.7469 0.0
C2235 C 0.84568 0.91246 0.74362 0.0
C2236 C 0.83947 0.89888 0.7656 0.0
C2237 C 0.86145 0.95282 0.72344 0.0
C2238 C 0.84499 0.96635 0.71042 0.0
C2239 C 0.88341 0.95493 0.7146 0.0
C2240 C 0.90139 0.93828 0.7244 0.0
C2241 C 0.89806 0.91083 0.72579 0.0
C2242 C 0.91485 0.89537 0.73522 0.0
C2243 C 0.93536 0.90695 0.74275 0.0
C2244 C 0.93924 0.93393 0.7404 0.0
C2245 C 0.9225 0.94946 0.73098 0.0
H2246 H 0.94832 0.89495 0.75008 0.0
H2247 H 0.78243 0.02604 0.64008 0.0
H2248 H 0.88822 0.14453 0.51964 0.0
H2249 H 0.86031 0.15221 0.48534 0.0
H2250 H 0.80988 0.12234 0.53443 0.0
H2251 H 0.83759 0.11584 0.56933 0.0
H2252 H 0.81174 0.09984 0.47928 0.0
H2253 H 0.82505 0.18585 0.52853 0.0
H2254 H 0.847 0.22627 0.54036 0.0
H2255 H 0.84658 0.24493 0.45906 0.0
H2256 H 0.82477 0.20425 0.44646 0.0
H2257 H 0.70517 0.13961 0.43158 0.0
H2258 H 0.73809 0.13526 0.46027 0.0
H2259 H 0.77914 0.16213 0.39894 0.0
H2260 H 0.74651 0.16532 0.36991 0.0
H2261 H 0.78634 0.18721 0.45502 0.0
H2262 H 0.78557 0.11216 0.40042 0.0
H2263 H 0.77696 0.07068 0.37413 0.0
H2264 H 0.77413 0.02909 0.4449 0.0
H2265 H 0.78081 0.07083 0.47192 0.0
C2266 C 0.8711 0.14018 0.52334 0.0
C2267 C 0.86497 0.13004 0.54732 0.0
C2268 C 0.85522 0.14448 0.50369 0.0
C2269 C 0.83297 0.13829 0.50754 0.0
C2270 C 0.82689 0.12788 0.53137 0.0
C2271 C 0.84268 0.12425 0.5513 0.0
C2272 C 0.81592 0.14176 0.48662 0.0
C2273 C 0.80573 0.11887 0.47429 0.0
C2274 C 0.81 0.16682 0.47826 0.0
C2275 C 0.82293 0.19168 0.48647 0.0
C2276 C 0.82949 0.19834 0.51301 0.0
C2277 C 0.84202 0.22142 0.51991 0.0
C2278 C 0.84815 0.23821 0.50049 0.0
C2279 C 0.84175 0.23195 0.47413 0.0
C2280 C 0.82924 0.20887 0.46712 0.0
C2281 C 0.72125 0.1443 0.42418 0.0
C2282 C 0.72336 0.15227 0.39831 0.0
C2283 C 0.74003 0.14171 0.44051 0.0
C2284 C 0.76113 0.14778 0.43154 0.0
C2285 C 0.7631 0.15691 0.40615 0.0
C2286 C 0.74447 0.15858 0.38953 0.0
C2287 C 0.78104 0.14509 0.44888 0.0
C2288 C 0.79194 0.16808 0.46029 0.0
C2289 C 0.78917 0.12008 0.45449 0.0
C2290 C 0.78255 0.09525 0.43845 0.0
C2291 C 0.78185 0.09461 0.41061 0.0
C2292 C 0.7775 0.07089 0.39549 0.0
C2293 C 0.77452 0.04733 0.40786 0.0
C2294 C 0.77592 0.04748 0.43536 0.0
C2295 C 0.77974 0.07126 0.45061 0.0
H2296 H 0.77148 0.02891 0.39612 0.0
H2297 H 0.85789 0.25606 0.50587 0.0
H2298 H 0.62743 0.94094 0.12518 0.0
H2299 H 0.63444 0.97487 0.16061 0.0
H2300 H 0.56784 0.96532 0.18604 0.0
H2301 H 0.56108 0.93055 0.15057 0.0
H2302 H 0.63021 0.01728 0.17657 0.0
H2303 H 0.55957 0.9807 0.25805 0.0
H2304 H 0.53504 0.94242 0.26476 0.0
H2305 H 0.57735 0.89157 0.21972 0.0
H2306 H 0.60206 0.92931 0.21275 0.0
H2307 H 0.63235 0.12882 0.28218 0.0
H2308 H 0.6201 0.0912 0.25163 0.0
H2309 H 0.66916 0.04322 0.28596 0.0
H2310 H 0.68087 0.08031 0.31684 0.0
H2311 H 0.59686 0.9935 0.27869 0.0
H2312 H 0.67956 0.05135 0.23473 0.0
H2313 H 0.70357 0.08625 0.21817 0.0
H2314 H 0.65232 0.10547 0.16335 0.0
H2315 H 0.6279 0.071 0.18003 0.0
C2316 C 0.61463 0.94539 0.13907 0.0
C2317 C 0.59427 0.93196 0.1364 0.0
C2318 C 0.61858 0.9649 0.15956 0.0
C2319 C 0.60245 0.97115 0.1782 0.0
C2320 C 0.5813 0.95949 0.17366 0.0
C2321 C 0.57737 0.93967 0.1533 0.0
C2322 C 0.60815 0.9891 0.20228 0.0
C2323 C 0.62582 0.01511 0.19684 0.0
C2324 C 0.59785 0.98121 0.23213 0.0
C2325 C 0.58282 0.95808 0.23489 0.0
C2326 C 0.56373 0.96135 0.24962 0.0
C2327 C 0.54971 0.9397 0.25344 0.0
C2328 C 0.55463 0.91456 0.24269 0.0
C2329 C 0.57356 0.91104 0.22809 0.0
C2330 C 0.58764 0.93263 0.22428 0.0
C2331 C 0.6402 0.11002 0.2834 0.0
C2332 C 0.65657 0.10685 0.3029 0.0
C2333 C 0.63308 0.08849 0.26613 0.0
C2334 C 0.64191 0.06336 0.26834 0.0
C2335 C 0.66048 0.06145 0.28535 0.0
C2336 C 0.66737 0.08278 0.30291 0.0
C2337 C 0.63149 0.03932 0.25205 0.0
C2338 C 0.60445 0.99977 0.2607 0.0
C2339 C 0.63723 0.03859 0.21896 0.0
C2340 C 0.65184 0.05902 0.20893 0.0
C2341 C 0.67333 0.06332 0.21945 0.0
C2342 C 0.68704 0.08293 0.20996 0.0
C2343 C 0.67945 0.09817 0.1898 0.0
C2344 C 0.65817 0.09371 0.17901 0.0
C2345 C 0.6444 0.07413 0.18846 0.0
H2346 H 0.69008 0.11334 0.18248 0.0
H2347 H 0.54376 0.89781 0.24567 0.0
H2348 H 0.63593 0.91948 0.01178 0.0
H2349 H 0.6658 0.90894 0.98305 0.0
H2350 H 0.68005 0.84096 0.02671 0.0
H2351 H 0.64956 0.85203 0.05656 0.0
H2352 H 0.71654 0.867 0.01885 0.0
H2353 H 0.66191 0.83408 0.9595 0.0
H2354 H 0.62651 0.83034 0.93452 0.0
H2355 H 0.64291 0.9009 0.89606 0.0
H2356 H 0.67827 0.90534 0.92107 0.0
H2357 H 0.79954 0.85164 0.92398 0.0
H2358 H 0.76974 0.85134 0.95553 0.0
H2359 H 0.74247 0.9194 0.92222 0.0
H2360 H 0.77191 0.91948 0.89002 0.0
H2361 H 0.71286 0.87873 0.92294 0.0
H2362 H 0.74439 0.93927 0.99801 0.0
H2363 H 0.77447 0.96273 0.03839 0.0
H2364 H 0.79818 0.87318 0.05916 0.0
H2365 H 0.76592 0.84965 0.02083 0.0
C2366 C 0.64518 0.90203 0.0153 0.0
C2367 C 0.64035 0.88673 0.03671 0.0
C2368 C 0.66219 0.89575 0.99842 0.0
C2369 C 0.67509 0.87371 0.00199 0.0
C2370 C 0.67018 0.85787 0.02314 0.0
C2371 C 0.65275 0.86414 0.0402 0.0
C2372 C 0.69497 0.87002 0.98529 0.0
C2373 C 0.71572 0.87035 0.99803 0.0
C2374 C 0.69401 0.87275 0.95762 0.0
C2375 C 0.67281 0.87005 0.94224 0.0
C2376 C 0.65795 0.84889 0.94582 0.0
C2377 C 0.63787 0.84664 0.93163 0.0
C2378 C 0.63246 0.86537 0.91371 0.0
C2379 C 0.64714 0.88637 0.90991 0.0
C2380 C 0.66724 0.88873 0.92405 0.0
C2381 C 0.7876 0.86707 0.92384 0.0
C2382 C 0.78834 0.8858 0.9046 0.0
C2383 C 0.7707 0.86703 0.94221 0.0
C2384 C 0.75417 0.88577 0.94206 0.0
C2385 C 0.7552 0.90498 0.92326 0.0
C2386 C 0.77202 0.90495 0.90473 0.0
C2387 C 0.73397 0.88201 0.95792 0.0
C2388 C 0.71357 0.87782 0.94426 0.0
C2389 C 0.7347 0.87939 0.9856 0.0
C2390 C 0.75274 0.89134 0.00312 0.0
C2391 C 0.75484 0.92681 0.00912 0.0
C2392 C 0.77351 0.94149 0.03448 0.0
C2393 C 0.79134 0.92104 0.05193 0.0
C2394 C 0.78893 0.88551 0.04653 0.0
C2395 C 0.76895 0.87081 0.02251 0.0
H2396 H 0.80294 0.92988 0.06673 0.0
H2397 H 0.6169 0.8636 0.90277 0.0
H2398 H 0.95659 0.83958 0.87986 0.0
H2399 H 0.98772 0.81226 0.89003 0.0
H2400 H 0.03003 0.86218 0.84629 0.0
H2401 H 0.99919 0.89062 0.83793 0.0
H2402 H 0.01135 0.78205 0.86775 0.0
H2403 H 0.08271 0.85989 0.85983 0.0
H2404 H 0.09159 0.90687 0.87247 0.0
H2405 H 0.04273 0.9067 0.93195 0.0
H2406 H 0.03343 0.85985 0.91952 0.0
H2407 H 0.13091 0.76082 0.83553 0.0
H2408 H 0.10159 0.79075 0.84672 0.0
H2409 H 0.07662 0.73634 0.90141 0.0
H2410 H 0.10628 0.70577 0.88974 0.0
H2411 H 0.08679 0.81846 0.88728 0.0
H2412 H 0.02206 0.73655 0.90548 0.0
H2413 H 0.99983 0.69047 0.88917 0.0
H2414 H 0.04 0.70784 0.79262 0.0
H2415 H 0.05595 0.75042 0.82255 0.0
C2416 C 0.97253 0.8447 0.87232 0.0
C2417 C 0.97529 0.86733 0.85796 0.0
C2418 C 0.99049 0.82904 0.87827 0.0
C2419 C 0.01178 0.83521 0.86968 0.0
C2420 C 0.01426 0.85728 0.85434 0.0
C2421 C 0.99641 0.87335 0.84901 0.0
C2422 C 0.03093 0.8178 0.87542 0.0
C2423 C 0.02773 0.79016 0.87256 0.0
C2424 C 0.05258 0.82792 0.8819 0.0
C2425 C 0.05732 0.85641 0.88866 0.0
C2426 C 0.07382 0.86993 0.87555 0.0
C2427 C 0.07889 0.89655 0.88263 0.0
C2428 C 0.06771 0.9098 0.90295 0.0
C2429 C 0.05127 0.89652 0.91607 0.0
C2430 C 0.04602 0.86995 0.90894 0.0
C2431 C 0.11941 0.75539 0.85033 0.0
C2432 C 0.12083 0.73089 0.86167 0.0
C2433 C 0.10264 0.77262 0.8568 0.0
C2434 C 0.0866 0.76584 0.87468 0.0
C2435 C 0.08863 0.74196 0.88729 0.0
C2436 C 0.10567 0.72458 0.88085 0.0
C2437 C 0.06709 0.783 0.87799 0.0
C2438 C 0.07026 0.81049 0.88289 0.0
C2439 C 0.04545 0.77283 0.87346 0.0
C2440 C 0.04068 0.74491 0.86504 0.0
C2441 C 0.02447 0.72819 0.88564 0.0
C2442 C 0.01017 0.69977 0.87489 0.0
C2443 C 0.01753 0.68752 0.82507 0.0
C2444 C 0.03541 0.71016 0.81306 0.0
C2445 C 0.04579 0.73652 0.83246 0.0
H2446 H 0.01136 0.67128 0.81131 0.0
H2447 H 0.07191 0.93031 0.90855 0.0
H2448 H 0.48375 0.65765 0.118 0.0
H2449 H 0.5163 0.68487 0.13212 0.0
H2450 H 0.49835 0.742 0.07668 0.0
H2451 H 0.46676 0.71378 0.06121 0.0
H2452 H 0.53848 0.73439 0.07134 0.0
H2453 H 0.50679 0.76849 0.1629 0.0
H2454 H 0.48943 0.7597 0.20502 0.0
H2455 H 0.52698 0.6897 0.21023 0.0
H2456 H 0.5449 0.6986 0.16848 0.0
H2457 H 0.61322 0.84321 0.11112 0.0
H2458 H 0.58341 0.81149 0.0974 0.0
H2459 H 0.60035 0.76452 0.16243 0.0
H2460 H 0.62883 0.79698 0.17713 0.0
H2461 H 0.56176 0.76387 0.16308 0.0
H2462 H 0.60585 0.75037 0.0845 0.0
H2463 H 0.62535 0.76527 0.04586 0.0
H2464 H 0.56563 0.79679 0.01568 0.0
H2465 H 0.54582 0.7822 0.05412 0.0
C2466 C 0.4864 0.67643 0.10941 0.0
C2467 C 0.47249 0.68359 0.0886 0.0
C2468 C 0.50509 0.69225 0.11768 0.0
C2469 C 0.50998 0.71614 0.106 0.0
C2470 C 0.49528 0.72383 0.08616 0.0
C2471 C 0.47701 0.70773 0.07741 0.0
C2472 C 0.53105 0.73212 0.11243 0.0
C2473 C 0.54359 0.74073 0.09148 0.0
C2474 C 0.53842 0.7403 0.13854 0.0
C2475 C 0.52634 0.73353 0.16209 0.0
C2476 C 0.51094 0.75096 0.17281 0.0
C2477 C 0.50129 0.74619 0.19679 0.0
C2478 C 0.50689 0.72397 0.21014 0.0
C2479 C 0.52244 0.70672 0.19973 0.0
C2480 C 0.53241 0.71168 0.17598 0.0
C2481 C 0.61039 0.82623 0.12258 0.0
C2482 C 0.6231 0.82321 0.14568 0.0
C2483 C 0.59334 0.80774 0.11454 0.0
C2484 C 0.58897 0.78518 0.12878 0.0
C2485 C 0.60257 0.78173 0.15113 0.0
C2486 C 0.61906 0.80047 0.15958 0.0
C2487 C 0.56964 0.76607 0.12202 0.0
C2488 C 0.55723 0.75705 0.14288 0.0
C2489 C 0.56262 0.75735 0.09579 0.0
C2490 C 0.57442 0.76535 0.0723 0.0
C2491 C 0.5969 0.76049 0.06962 0.0
C2492 C 0.608 0.76889 0.04775 0.0
C2493 C 0.59675 0.78202 0.02836 0.0
C2494 C 0.57433 0.78664 0.03071 0.0
C2495 C 0.56316 0.77825 0.0525 0.0
H2496 H 0.60539 0.78859 0.0115 0.0
H2497 H 0.49929 0.72022 0.22862 0.0
H2498 H 0.01019 0.37983 0.60583 0.0
H2499 H 0.97983 0.34772 0.60665 0.0
H2500 H 0.0247 0.28475 0.58918 0.0
H2501 H 0.05402 0.31697 0.58528 0.0
H2502 H 0.99429 0.26325 0.57658 0.0
H2503 H 0.99708 0.31031 0.65914 0.0
H2504 H 0.99827 0.34768 0.69299 0.0
H2505 H 0.93454 0.37083 0.66626 0.0
H2506 H 0.93305 0.33378 0.63214 0.0
H2507 H 0.88601 0.21595 0.64574 0.0
H2508 H 0.92148 0.23962 0.64759 0.0
H2509 H 0.92229 0.23466 0.56233 0.0
H2510 H 0.88661 0.20998 0.56055 0.0
H2511 H 0.93238 0.2838 0.63439 0.0
H2512 H 0.96505 0.24244 0.53741 0.0
H2513 H 0.98138 0.20515 0.50391 0.0
H2514 H 1.00067 0.13896 0.56312 0.0
H2515 H 0.9882 0.16548 0.6085 0.0
C2516 C 0.01352 0.35903 0.60252 0.0
C2517 C 0.03483 0.35095 0.59671 0.0
C2518 C 0.99611 0.34037 0.60354 0.0
C2519 C 0.99969 0.3129 0.60052 0.0
C2520 C 0.02089 0.30523 0.59307 0.0
C2521 C 0.03801 0.32392 0.59082 0.0
C2522 C 0.98153 0.29246 0.60455 0.0
C2523 C 0.98137 0.26758 0.59027 0.0
C2524 C 0.96432 0.29697 0.62256 0.0
C2525 C 0.96504 0.31934 0.64301 0.0
C2526 C 0.98337 0.32342 0.66047 0.0
C2527 C 0.9841 0.34455 0.67967 0.0
C2528 C 0.96652 0.36163 0.68173 0.0
C2529 C 0.94815 0.35759 0.66464 0.0
C2530 C 0.94734 0.3365 0.64539 0.0
C2531 C 0.89368 0.22005 0.62736 0.0
C2532 C 0.88356 0.21135 0.60299 0.0
C2533 C 0.91404 0.23346 0.62843 0.0
C2534 C 0.92486 0.23867 0.60514 0.0
C2535 C 0.91456 0.23042 0.58061 0.0
C2536 C 0.8941 0.21662 0.57955 0.0
C2537 C 0.94581 0.25481 0.60682 0.0
C2538 C 0.94626 0.27897 0.62221 0.0
C2539 C 0.96498 0.24766 0.59317 0.0
C2540 C 0.96871 0.22069 0.5789 0.0
C2541 C 0.97023 0.22425 0.54534 0.0
C2542 C 0.98098 0.20073 0.52446 0.0
C2543 C 0.9915 0.17116 0.53191 0.0
C2544 C 0.99361 0.15817 0.56181 0.0
C2545 C 0.98501 0.1747 0.5899 0.0
H2546 H 0.99759 0.15914 0.51544 0.0
H2547 H 0.96713 0.37799 0.6966 0.0
H2548 H 0.05925 0.70253 0.85989 0.0
H2549 H 0.00731 0.74632 0.83839 0.0
H2550 H 0.96851 0.66407 0.8444 0.0
H2551 H 1.00229 0.6349 0.85768 0.0
H2552 H 0.94807 0.70805 0.86891 0.0
H2553 H 0.98926 0.7809 0.80001 0.0
H2554 H 0.01654 0.77995 0.76493 0.0
H2555 H 1.00198 0.69724 0.74694 0.0
H2556 H 0.9746 0.6977 0.78191 0.0
H2557 H 0.88468 0.82598 0.86738 0.0
H2558 H 0.91419 0.79424 0.87244 0.0
H2559 H 0.90772 0.77051 0.78923 0.0
H2560 H 0.87985 0.80254 0.78379 0.0
H2561 H 0.94704 0.77252 0.79953 0.0
H2562 H 0.88628 0.73318 0.84219 0.0
H2563 H 0.85682 0.73103 0.87448 0.0
H2564 H 0.90485 0.74008 0.93836 0.0
H2565 H 0.93458 0.74266 0.90644 0.0
C2566 C 0.04177 0.69747 0.85652 0.0
C2567 C 0.0333 0.6653 0.86017 0.0
C2568 C 0.00845 0.72556 0.84257 0.0
C2569 C 0.98468 0.70702 0.8401 0.0
C2570 C 0.98439 0.67425 0.84613 0.0
C2571 C 0.00622 0.65548 0.85506 0.0
C2572 C 0.96432 0.72166 0.83497 0.0
C2573 C 0.94753 0.72179 0.85342 0.0
C2574 C 0.96357 0.73968 0.81485 0.0
C2575 C 0.97988 0.73934 0.7936 0.0
C2576 C 0.99175 0.76256 0.78843 0.0
C2577 C 0.0073 0.76208 0.76864 0.0
C2578 C 0.01096 0.73856 0.75369 0.0
C2579 C 0.99911 0.71545 0.75852 0.0
C2580 C 0.98364 0.71578 0.7784 0.0
C2581 C 0.88981 0.81422 0.85016 0.0
C2582 C 0.87969 0.81701 0.82521 0.0
C2583 C 0.90652 0.79579 0.85311 0.0
C2584 C 0.91308 0.77942 0.83128 0.0
C2585 C 0.9032 0.78271 0.80646 0.0
C2586 C 0.88704 0.80125 0.80342 0.0
C2587 C 0.93044 0.75916 0.83344 0.0
C2588 C 0.94702 0.75838 0.81466 0.0
C2589 C 0.93042 0.74005 0.85269 0.0
C2590 C 0.91263 0.73835 0.87193 0.0
C2591 C 0.89054 0.73488 0.86313 0.0
C2592 C 0.8738 0.73357 0.88136 0.0
C2593 C 0.87896 0.73548 0.90846 0.0
C2594 C 0.90088 0.73864 0.91737 0.0
C2595 C 0.91768 0.74001 0.89921 0.0
H2596 H 0.86597 0.73446 0.92254 0.0
H2597 H 0.02302 0.73822 0.73839 0.0
H2598 H 0.37004 0.33281 0.37815 0.0
H2599 H 0.39218 0.29809 0.39589 0.0
H2600 H 0.43251 0.2986 0.3271 0.0
H2601 H 0.4107 0.33298 0.30989 0.0
H2602 H 0.42592 0.25252 0.33386 0.0
H2603 H 0.44747 0.32601 0.4083 0.0
H2604 H 0.4367 0.35456 0.44631 0.0
H2605 H 0.40371 0.28858 0.47852 0.0
H2606 H 0.41401 0.25956 0.44012 0.0
H2607 H 0.528 0.19989 0.36018 0.0
H2608 H 0.4978 0.23016 0.35412 0.0
H2609 H 0.46812 0.20432 0.42469 0.0
H2610 H 0.49892 0.17479 0.43114 0.0
H2611 H 0.4613 0.25431 0.42306 0.0
H2612 H 0.44801 0.18136 0.36267 0.0
H2613 H 0.4554 0.14656 0.32805 0.0
H2614 H 0.46798 0.20562 0.27303 0.0
H2615 H 0.46097 0.24083 0.30745 0.0
C2616 C 0.38429 0.32629 0.36752 0.0
C2617 C 0.38893 0.33628 0.34293 0.0
C2618 C 0.39688 0.30609 0.37755 0.0
C2619 C 0.41444 0.29546 0.36319 0.0
C2620 C 0.41905 0.30591 0.33877 0.0
C2621 C 0.40673 0.32605 0.32899 0.0
C2622 C 0.42825 0.2734 0.37236 0.0
C2623 C 0.43394 0.25347 0.35329 0.0
C2624 C 0.43762 0.27275 0.39834 0.0
C2625 C 0.43105 0.29068 0.42083 0.0
C2626 C 0.43758 0.31757 0.42301 0.0
C2627 C 0.43164 0.33388 0.44478 0.0
C2628 C 0.41939 0.32347 0.46472 0.0
C2629 C 0.41307 0.29669 0.46296 0.0
C2630 C 0.41893 0.28031 0.44116 0.0
C2631 C 0.51518 0.20104 0.37453 0.0
C2632 C 0.5158 0.18523 0.39616 0.0
C2633 C 0.49775 0.21808 0.37094 0.0
C2634 C 0.48024 0.2192 0.38861 0.0
C2635 C 0.48124 0.20384 0.41069 0.0
C2636 C 0.49884 0.18698 0.41438 0.0
C2637 C 0.46086 0.23599 0.38351 0.0
C2638 C 0.45376 0.25412 0.40346 0.0
C2639 C 0.44983 0.23479 0.35852 0.0
C2640 C 0.4541 0.21374 0.3377 0.0
C2641 C 0.4525 0.18694 0.34324 0.0
C2642 C 0.4566 0.16714 0.32365 0.0
C2643 C 0.46219 0.17388 0.29837 0.0
C2644 C 0.46366 0.20044 0.29263 0.0
C2645 C 0.4596 0.22033 0.31216 0.0
H2646 H 0.46535 0.15852 0.28322 0.0
H2647 H 0.41497 0.33613 0.48162 0.0
H2648 H 0.95277 0.17249 0.54158 0.0
H2649 H 0.01295 0.20848 0.55345 0.0
H2650 H 0.98774 0.21838 0.64216 0.0
H2651 H 0.9485 0.19501 0.6339 0.0
H2652 H 0.0113 0.2561 0.63671 0.0
H2653 H 0.03599 0.17235 0.6142 0.0
H2654 H 0.04135 0.12893 0.59071 0.0
H2655 H 0.06644 0.16727 0.52431 0.0
H2656 H 0.06151 0.21093 0.54759 0.0
H2657 H 0.12264 0.29164 0.6772 0.0
H2658 H 0.08817 0.26704 0.66773 0.0
H2659 H 0.09188 0.28279 0.58547 0.0
H2660 H 0.12706 0.30734 0.59474 0.0
H2661 H 0.08027 0.23063 0.59337 0.0
H2662 H 0.06278 0.31641 0.63368 0.0
H2663 H 0.0609 0.35201 0.6685 0.0
H2664 H 0.02658 0.29973 0.7175 0.0
H2665 H 0.0281 0.26358 0.6828 0.0
C2666 C 0.96093 0.18215 0.55933 0.0
C2667 C 0.94686 0.18248 0.58781 0.0
C2668 C 0.99981 0.20466 0.56707 0.0
C2669 C 0.00402 0.21559 0.59961 0.0
C2670 C 0.98385 0.21133 0.62193 0.0
C2671 C 0.95827 0.19651 0.61655 0.0
C2672 C 0.02574 0.22869 0.60839 0.0
C2673 C 0.02642 0.25012 0.62757 0.0
C2674 C 0.04582 0.22091 0.5971 0.0
C2675 C 0.04804 0.19489 0.58245 0.0
C2676 C 0.0425 0.17151 0.5945 0.0
C2677 C 0.04563 0.14686 0.58133 0.0
C2678 C 0.05413 0.14534 0.55598 0.0
C2679 C 0.05977 0.16847 0.5439 0.0
C2680 C 0.05694 0.19317 0.55713 0.0
C2681 C 0.11625 0.29004 0.65699 0.0
C2682 C 0.12773 0.30177 0.63673 0.0
C2683 C 0.09638 0.27591 0.65167 0.0
C2684 C 0.08709 0.27339 0.626 0.0
C2685 C 0.09863 0.28459 0.60552 0.0
C2686 C 0.11876 0.29863 0.61081 0.0
C2687 C 0.06555 0.25875 0.62053 0.0
C2688 C 0.06507 0.23662 0.60238 0.0
C2689 C 0.04608 0.26501 0.63424 0.0
C2690 C 0.04542 0.28705 0.65525 0.0
C2691 C 0.05467 0.31232 0.65166 0.0
C2692 C 0.05373 0.33269 0.67151 0.0
C2693 C 0.04366 0.32814 0.69524 0.0
C2694 C 0.03442 0.30322 0.69911 0.0
C2695 C 0.03526 0.28279 0.67927 0.0
H2696 H 0.04299 0.34394 0.71061 0.0
H2697 H 0.0564 0.12624 0.54575 0.0
H2698 H 0.40699 0.66964 0.12172 0.0
H2699 H 0.43688 0.70152 0.11601 0.0
H2700 H 0.39068 0.75628 0.08673 0.0
H2701 H 0.36045 0.72384 0.09213 0.0
H2702 H 0.42873 0.75682 0.05845 0.0
H2703 H 0.41425 0.77218 0.15382 0.0
H2704 H 0.40532 0.75361 0.19619 0.0
H2705 H 0.46166 0.70466 0.19056 0.0
H2706 H 0.47111 0.72344 0.14845 0.0
H2707 H 0.50489 0.86756 0.07515 0.0
H2708 H 0.47233 0.83845 0.07892 0.0
H2709 H 0.51313 0.78018 0.11179 0.0
H2710 H 0.54571 0.80893 0.10724 0.0
H2711 H 0.47625 0.78288 0.13753 0.0
H2712 H 0.49491 0.77594 0.04579 0.0
H2713 H 0.50227 0.79259 0.00229 0.0
H2714 H 0.43698 0.82233 0.99785 0.0
H2715 H 0.42931 0.80615 0.04159 0.0
C2716 C 0.40326 0.68813 0.11328 0.0
C2717 C 0.38149 0.69391 0.10656 0.0
C2718 C 0.42038 0.70657 0.11033 0.0
C2719 C 0.41621 0.73149 0.10099 0.0
C2720 C 0.39443 0.73719 0.09385 0.0
C2721 C 0.37718 0.71869 0.09694 0.0
C2722 C 0.43452 0.75173 0.09982 0.0
C2723 C 0.43894 0.76283 0.07581 0.0
C2724 C 0.44819 0.75928 0.12223 0.0
C2725 C 0.44352 0.74941 0.14832 0.0
C2726 C 0.42486 0.75773 0.16187 0.0
C2727 C 0.41971 0.74717 0.1858 0.0
C2728 C 0.43301 0.7281 0.19616 0.0
C2729 C 0.45152 0.71963 0.18266 0.0
C2730 C 0.45691 0.73042 0.15892 0.0
C2731 C 0.50693 0.84833 0.08286 0.0
C2732 C 0.52801 0.83998 0.09 0.0
C2733 C 0.48829 0.83169 0.08501 0.0
C2734 C 0.4903 0.80653 0.09484 0.0
C2735 C 0.51123 0.79895 0.10332 0.0
C2736 C 0.52989 0.8153 0.10058 0.0
C2737 C 0.47082 0.78789 0.096 0.0
C2738 C 0.46613 0.77704 0.1201 0.0
C2739 C 0.45703 0.78051 0.07351 0.0
C2740 C 0.46159 0.79003 0.04711 0.0
C2741 C 0.48214 0.78614 0.03565 0.0
C2742 C 0.48637 0.7955 0.01093 0.0
C2743 C 0.47012 0.80856 0.99734 0.0
C2744 C 0.44957 0.81224 0.00842 0.0
C2745 C 0.44526 0.80297 0.03317 0.0
H2746 H 0.47343 0.8158 0.9782 0.0
H2747 H 0.42891 0.71979 0.21458 0.0
H2748 H 0.62199 0.33264 0.77889 0.0
H2749 H 0.61538 0.36571 0.74711 0.0
H2750 H 0.64424 0.42607 0.80223 0.0
H2751 H 0.65147 0.39305 0.834 0.0
H2752 H 0.59279 0.40426 0.74211 0.0
H2753 H 0.6685 0.47666 0.77323 0.0
H2754 H 0.70699 0.47286 0.78876 0.0
H2755 H 0.70674 0.39236 0.75678 0.0
H2756 H 0.66831 0.3957 0.74105 0.0
H2757 H 0.56938 0.52412 0.68705 0.0
H2758 H 0.57783 0.48913 0.71644 0.0
H2759 H 0.64298 0.4845 0.68481 0.0
H2760 H 0.63503 0.5212 0.65759 0.0
H2761 H 0.64883 0.47465 0.7289 0.0
H2762 H 0.59418 0.43833 0.66806 0.0
H2763 H 0.55895 0.4355 0.64262 0.0
H2764 H 0.52378 0.43078 0.71447 0.0
H2765 H 0.55877 0.43365 0.74024 0.0
C2766 C 0.62689 0.353 0.78441 0.0
C2767 C 0.63742 0.36005 0.80911 0.0
C2768 C 0.62303 0.37199 0.76611 0.0
C2769 C 0.6295 0.39859 0.77198 0.0
C2770 C 0.63941 0.40574 0.79694 0.0
C2771 C 0.64344 0.38678 0.81521 0.0
C2772 C 0.62575 0.41892 0.75226 0.0
C2773 C 0.60516 0.41947 0.73902 0.0
C2774 C 0.64204 0.43835 0.7472 0.0
C2775 C 0.6653 0.43634 0.75647 0.0
C2776 C 0.67661 0.45816 0.76962 0.0
C2777 C 0.69844 0.45609 0.77841 0.0
C2778 C 0.70926 0.43237 0.77387 0.0
C2779 C 0.6983 0.41068 0.76045 0.0
C2780 C 0.67646 0.41264 0.75167 0.0
C2781 C 0.58557 0.51578 0.68683 0.0
C2782 C 0.60161 0.52532 0.67032 0.0
C2783 C 0.59031 0.49535 0.7032 0.0
C2784 C 0.61089 0.48319 0.70248 0.0
C2785 C 0.627 0.49326 0.68609 0.0
C2786 C 0.62248 0.51428 0.67044 0.0
C2787 C 0.61574 0.46025 0.71882 0.0
C2788 C 0.63654 0.45923 0.73155 0.0
C2789 C 0.60022 0.43924 0.72174 0.0
C2790 C 0.57912 0.43666 0.70618 0.0
C2791 C 0.57893 0.4368 0.67844 0.0
C2792 C 0.55899 0.43515 0.66394 0.0
C2793 C 0.53913 0.43309 0.67692 0.0
C2794 C 0.53917 0.43247 0.70442 0.0
C2795 C 0.55906 0.43409 0.71899 0.0
H2796 H 0.52371 0.43188 0.66568 0.0
H2797 H 0.72617 0.43082 0.78066 0.0
H2798 H 0.86176 0.34816 0.07715 0.0
H2799 H 0.82991 0.34214 0.04699 0.0
H2800 H 0.84347 0.41912 0.01826 0.0
H2801 H 0.87418 0.42583 0.05019 0.0
H2802 H 0.80583 0.41735 0.01507 0.0
H2803 H 0.85123 0.3498 0.98403 0.0
H2804 H 0.87507 0.31131 0.98426 0.0
H2805 H 0.82102 0.26297 0.00808 0.0
H2806 H 0.7969 0.30118 0.00815 0.0
H2807 H 0.72508 0.38272 0.90555 0.0
H2808 H 0.75926 0.39287 0.93003 0.0
H2809 H 0.74335 0.33367 0.98409 0.0
H2810 H 0.71027 0.32104 0.95733 0.0
H2811 H 0.78359 0.33019 0.97134 0.0
H2812 H 0.76295 0.43306 0.02032 0.0
H2813 H 0.75158 0.47732 0.01 0.0
H2814 H 0.77487 0.46444 0.93135 0.0
H2815 H 0.78753 0.42055 0.9419 0.0
C2816 C 0.85781 0.36384 0.06446 0.0
C2817 C 0.8705 0.3875 0.06615 0.0
C2818 C 0.83952 0.36034 0.04688 0.0
C2819 C 0.83379 0.37995 0.02959 0.0
C2820 C 0.84682 0.40355 0.03128 0.0
C2821 C 0.86464 0.40742 0.04954 0.0
C2822 C 0.81412 0.37629 0.01038 0.0
C2823 C 0.80126 0.3982 0.00539 0.0
C2824 C 0.80795 0.3517 0.99667 0.0
C2825 C 0.82233 0.32853 0.99656 0.0
C2826 C 0.84446 0.33102 0.98952 0.0
C2827 C 0.85802 0.30922 0.98954 0.0
C2828 C 0.8496 0.28474 0.99632 0.0
C2829 C 0.82756 0.28197 0.00295 0.0
C2830 C 0.81392 0.3037 0.00296 0.0
C2831 C 0.72856 0.37221 0.92303 0.0
C2832 C 0.71418 0.35172 0.92997 0.0
C2833 C 0.74816 0.37871 0.93776 0.0
C2834 C 0.75373 0.36578 0.96068 0.0
C2835 C 0.73942 0.34495 0.96727 0.0
C2836 C 0.72022 0.33777 0.952 0.0
C2837 C 0.77528 0.37115 0.97626 0.0
C2838 C 0.78833 0.34932 0.981 0.0
C2839 C 0.78286 0.39641 0.98766 0.0
C2840 C 0.77355 0.42189 0.98076 0.0
C2841 C 0.76448 0.43888 1.00036 0.0
C2842 C 0.7584 0.46434 0.99474 0.0
C2843 C 0.76149 0.47324 0.96963 0.0
C2844 C 0.77162 0.45714 0.95048 0.0
C2845 C 0.77824 0.43195 0.9563 0.0
H2846 H 0.75666 0.49291 0.96528 0.0
H2847 H 0.86012 0.26789 0.99632 0.0
H2848 H 0.79664 0.57973 0.32302 0.0
H2849 H 0.80812 0.54487 0.29057 0.0
H2850 H 0.87501 0.57469 0.30112 0.0
H2851 H 0.86373 0.60845 0.33309 0.0
H2852 H 0.87664 0.55877 0.25819 0.0
H2853 H 0.83467 0.52168 0.33858 0.0
H2854 H 0.80226 0.51498 0.36528 0.0
H2855 H 0.77141 0.46589 0.30177 0.0
H2856 H 0.80379 0.47219 0.27454 0.0
H2857 H 0.93235 0.4203 0.20511 0.0
H2858 H 0.91997 0.44901 0.24282 0.0
H2859 H 0.87656 0.48729 0.18982 0.0
H2860 H 0.88813 0.45819 0.15289 0.0
H2861 H 0.84307 0.45396 0.27802 0.0
H2862 H 0.88615 0.55587 0.20812 0.0
H2863 H 0.91684 0.57417 0.18344 0.0
H2864 H 0.96105 0.52074 0.2181 0.0
H2865 H 0.93075 0.5026 0.24335 0.0
C2866 C 0.81394 0.57784 0.31899 0.0
C2867 C 0.82978 0.59483 0.33236 0.0
C2868 C 0.82049 0.55809 0.30043 0.0
C2869 C 0.84294 0.55507 0.29547 0.0
C2870 C 0.85804 0.57447 0.3064 0.0
C2871 C 0.85166 0.59377 0.32503 0.0
C2872 C 0.85135 0.5314 0.28064 0.0
C2873 C 0.87246 0.53812 0.26009 0.0
C2874 C 0.84107 0.5008 0.28757 0.0
C2875 C 0.82184 0.49737 0.30441 0.0
C2876 C 0.82122 0.50917 0.33027 0.0
C2877 C 0.80272 0.50557 0.34553 0.0
C2878 C 0.78478 0.49 0.33526 0.0
C2879 C 0.78532 0.47795 0.30973 0.0
C2880 C 0.80377 0.48153 0.29439 0.0
C2881 C 0.9198 0.43456 0.20185 0.0
C2882 C 0.90954 0.43554 0.17677 0.0
C2883 C 0.91272 0.45092 0.22333 0.0
C2884 C 0.89531 0.4682 0.21964 0.0
C2885 C 0.88834 0.4723 0.19364 0.0
C2886 C 0.89495 0.45572 0.17251 0.0
C2887 C 0.8835 0.48296 0.24213 0.0
C2888 C 0.8514 0.4725 0.27353 0.0
C2889 C 0.88798 0.51664 0.24218 0.0
C2890 C 0.90612 0.52753 0.22714 0.0
C2891 C 0.90243 0.54807 0.21047 0.0
C2892 C 0.91976 0.55843 0.19641 0.0
C2893 C 0.94085 0.54851 0.19906 0.0
C2894 C 0.94468 0.52828 0.21588 0.0
C2895 C 0.92741 0.51788 0.22997 0.0
H2896 H 0.95424 0.55656 0.18818 0.0
H2897 H 0.77045 0.4873 0.34708 0.0
H2898 H 0.78908 0.61803 0.43663 0.0
H2899 H 0.76464 0.60574 0.47217 0.0
H2900 H 0.70828 0.62639 0.42539 0.0
H2901 H 0.73218 0.63742 0.38977 0.0
H2902 H 0.70678 0.64879 0.47375 0.0
H2903 H 0.72322 0.56378 0.4339 0.0
H2904 H 0.74574 0.52615 0.41972 0.0
H2905 H 0.76439 0.51565 0.50042 0.0
H2906 H 0.74323 0.55446 0.51512 0.0
H2907 H 0.61895 0.60778 0.55003 0.0
H2908 H 0.64478 0.61533 0.51555 0.0
H2909 H 0.693 0.57 0.55565 0.0
H2910 H 0.66593 0.56014 0.58865 0.0
H2911 H 0.70105 0.56144 0.51162 0.0
H2912 H 0.69342 0.65551 0.54885 0.0
H2913 H 0.67203 0.69434 0.56232 0.0
H2914 H 0.63837 0.68901 0.4865 0.0
H2915 H 0.65931 0.64962 0.47297 0.0
C2916 C 0.77149 0.62013 0.43416 0.0
C2917 C 0.76252 0.62887 0.41054 0.0
C2918 C 0.75759 0.61309 0.45441 0.0
C2919 C 0.73466 0.61549 0.45164 0.0
C2920 C 0.72588 0.62451 0.42813 0.0
C2921 C 0.73959 0.63084 0.40777 0.0
C2922 C 0.71952 0.60968 0.47324 0.0
C2923 C 0.70553 0.62965 0.4821 0.0
C2924 C 0.71817 0.58492 0.48453 0.0
C2925 C 0.7319 0.56244 0.47559 0.0
C2926 C 0.7326 0.55398 0.44863 0.0
C2927 C 0.74519 0.53245 0.44049 0.0
C2928 C 0.75677 0.5188 0.45916 0.0
C2929 C 0.75583 0.52668 0.48599 0.0
C2930 C 0.74363 0.54852 0.49422 0.0
C2931 C 0.63522 0.59975 0.55159 0.0
C2932 C 0.64065 0.58386 0.57228 0.0
C2933 C 0.65028 0.6045 0.532 0.0
C2934 C 0.67171 0.59479 0.53334 0.0
C2935 C 0.67686 0.57829 0.55392 0.0
C2936 C 0.66145 0.57273 0.57304 0.0
C2937 C 0.68836 0.60086 0.51296 0.0
C2938 C 0.70259 0.58087 0.50404 0.0
C2939 C 0.69032 0.62587 0.50185 0.0
C2940 C 0.67732 0.64899 0.51036 0.0
C2941 C 0.681 0.66206 0.53543 0.0
C2942 C 0.6691 0.68436 0.54296 0.0
C2943 C 0.65364 0.69397 0.52539 0.0
C2944 C 0.6502 0.68141 0.50019 0.0
C2945 C 0.66208 0.65911 0.4926 0.0
H2946 H 0.64448 0.71128 0.53122 0.0
H2947 H 0.76631 0.50195 0.45285 0.0
H2948 H 0.59185 0.47273 0.87698 0.0
H2949 H 0.59758 0.50115 0.84054 0.0
H2950 H 0.66068 0.46675 0.82718 0.0
H2951 H 0.65516 0.43886 0.86461 0.0
H2952 H 0.66359 0.51737 0.82009 0.0
H2953 H 0.60879 0.44942 0.79408 0.0
H2954 H 0.57359 0.42506 0.79758 0.0
H2955 H 0.53859 0.49525 0.78308 0.0
H2956 H 0.57368 0.52016 0.77999 0.0
H2957 H 0.68089 0.56348 0.69427 0.0
H2958 H 0.67432 0.53448 0.73025 0.0
H2959 H 0.6089 0.56432 0.73778 0.0
H2960 H 0.61513 0.592 0.70074 0.0
H2961 H 0.60587 0.51811 0.74942 0.0
H2962 H 0.65599 0.58638 0.77999 0.0
H2963 H 0.68906 0.61573 0.78084 0.0
H2964 H 0.73016 0.54912 0.78898 0.0
H2965 H 0.69731 0.51935 0.78782 0.0
C2966 C 0.6068 0.47096 0.86596 0.0
C2967 C 0.6227 0.45293 0.87293 0.0
C2968 C 0.61012 0.4873 0.84514 0.0
C2969 C 0.62922 0.48556 0.8302 0.0
C2970 C 0.64558 0.4682 0.8379 0.0
C2971 C 0.64234 0.452 0.85906 0.0
C2972 C 0.63187 0.50136 0.80635 0.0
C2973 C 0.65117 0.51693 0.8043 0.0
C2974 C 0.6152 0.50206 0.78618 0.0
C2975 C 0.59402 0.48671 0.78691 0.0
C2976 C 0.59364 0.45967 0.79158 0.0
C2977 C 0.57367 0.4458 0.79371 0.0
C2978 C 0.55384 0.45865 0.79076 0.0
C2979 C 0.55397 0.48534 0.78547 0.0
C2980 C 0.57393 0.49934 0.78355 0.0
C2981 C 0.66491 0.56324 0.70318 0.0
C2982 C 0.6484 0.57964 0.69437 0.0
C2983 C 0.66125 0.54699 0.72412 0.0
C2984 C 0.64131 0.54763 0.73764 0.0
C2985 C 0.6245 0.56334 0.72806 0.0
C2986 C 0.628 0.57911 0.70669 0.0
C2987 C 0.63822 0.53258 0.76203 0.0
C2988 C 0.61861 0.51777 0.76463 0.0
C2989 C 0.65441 0.53275 0.78278 0.0
C2990 C 0.6742 0.55058 0.78352 0.0
C2991 C 0.67209 0.57797 0.78176 0.0
C2992 C 0.69079 0.59469 0.78233 0.0
C2993 C 0.7117 0.58429 0.78488 0.0
C2994 C 0.71395 0.55715 0.78695 0.0
C2995 C 0.6953 0.54034 0.78635 0.0
H2996 H 0.72616 0.59727 0.78533 0.0
H2997 H 0.53838 0.44788 0.79238 0.0
H2998 H 0.79132 0.3867 0.10367 0.0
H2999 H 0.75939 0.39252 0.07526 0.0
H3000 H 0.76736 0.31476 0.0374 0.0
H3001 H 0.79868 0.30812 0.06771 0.0
H3002 H 0.74681 0.39668 0.0313 0.0
H3003 H 0.71955 0.28694 0.01256 0.0
H3004 H 0.72318 0.24474 0.03371 0.0
H3005 H 0.73219 0.2869 0.10969 0.0
H3006 H 0.72832 0.32929 0.08903 0.0
H3007 H 0.64485 0.33834 0.94697 0.0
H3008 H 0.67676 0.3309 0.97491 0.0
H3009 H 0.66896 0.40698 0.01623 0.0
H3010 H 0.63818 0.41546 0.9863 0.0
H3011 H 0.68944 0.32548 0.02046 0.0
H3012 H 0.71337 0.43289 0.04424 0.0
H3013 H 0.70576 0.47656 0.02779 0.0
H3014 H 0.70149 0.44204 0.94809 0.0
H3015 H 0.70833 0.39817 0.96432 0.0
C3016 C 0.78661 0.37097 0.0889 0.0
C3017 C 0.79757 0.34688 0.08816 0.0
C3018 C 0.76815 0.3743 0.07255 0.0
C3019 C 0.76014 0.35379 0.05448 0.0
C3020 C 0.77246 0.33061 0.05178 0.0
C3021 C 0.79076 0.327 0.06873 0.0
C3022 C 0.73861 0.35678 0.03953 0.0
C3023 C 0.73435 0.38114 0.02904 0.0
C3024 C 0.72186 0.33661 0.03656 0.0
C3025 C 0.72386 0.31124 0.04921 0.0
C3026 C 0.72221 0.28716 0.03379 0.0
C3027 C 0.72433 0.26323 0.04569 0.0
C3028 C 0.72798 0.26314 0.07301 0.0
C3029 C 0.72942 0.28699 0.08852 0.0
C3030 C 0.72727 0.31097 0.07673 0.0
C3031 C 0.65065 0.35413 0.96092 0.0
C3032 C 0.63996 0.37836 0.96281 0.0
C3033 C 0.66878 0.34962 0.97748 0.0
C3034 C 0.6767 0.36912 0.99669 0.0
C3035 C 0.66448 0.39224 1.00044 0.0
C3036 C 0.64663 0.39702 0.98343 0.0
C3037 C 0.69797 0.3655 0.01185 0.0
C3038 C 0.7021 0.34104 0.02243 0.0
C3039 C 0.7145 0.38584 0.01549 0.0
C3040 C 0.71162 0.41232 0.00539 0.0
C3041 C 0.71097 0.4347 0.0232 0.0
C3042 C 0.70651 0.45943 0.01397 0.0
C3043 C 0.70313 0.46209 0.98691 0.0
C3044 C 0.70416 0.44 0.96904 0.0
C3045 C 0.70831 0.4152 0.97823 0.0
H3046 H 0.69978 0.48126 0.97979 0.0
H3047 H 0.72966 0.2446 0.08218 0.0
H3048 H 0.87438 0.5359 0.36931 0.0
H3049 H 0.86752 0.50051 0.33434 0.0
H3050 H 0.91444 0.53757 0.28566 0.0
H3051 H 0.92267 0.57192 0.32154 0.0
H3052 H 0.84178 0.51626 0.23549 0.0
H3053 H 0.92932 0.48906 0.29699 0.0
H3054 H 0.95422 0.47876 0.33393 0.0
H3055 H 0.908 0.41924 0.35629 0.0
H3056 H 0.88269 0.42962 0.31977 0.0
H3057 H 0.88871 0.36991 0.18985 0.0
H3058 H 0.89118 0.40517 0.22443 0.0
H3059 H 0.82174 0.41748 0.21572 0.0
H3060 H 0.81895 0.38024 0.18205 0.0
H3061 H 0.88563 0.4225 0.26653 0.0
H3062 H 0.80632 0.48973 0.22682 0.0
H3063 H 0.77941 0.48937 0.18963 0.0
H3064 H 0.82374 0.44658 0.13957 0.0
H3065 H 0.8508 0.44665 0.17622 0.0
C3066 C 0.883 0.53671 0.35097 0.0
C3067 C 0.89789 0.55778 0.34739 0.0
C3068 C 0.87887 0.51662 0.33085 0.0
C3069 C 0.88834 0.51789 0.30598 0.0
C3070 C 0.90539 0.53709 0.30367 0.0
C3071 C 0.91013 0.55682 0.32422 0.0
C3072 C 0.87984 0.4986 0.28272 0.0
C3073 C 0.85133 0.50019 0.24294 0.0
C3074 C 0.88877 0.46679 0.2845 0.0
C3075 C 0.90405 0.46037 0.30598 0.0
C3076 C 0.92437 0.47404 0.31002 0.0
C3077 C 0.93858 0.46812 0.33081 0.0
C3078 C 0.93266 0.44843 0.34752 0.0
C3079 C 0.91256 0.43452 0.34338 0.0
C3080 C 0.89831 0.44039 0.32261 0.0
C3081 C 0.87411 0.38077 0.19463 0.0
C3082 C 0.85397 0.37373 0.18182 0.0
C3083 C 0.87551 0.40131 0.21441 0.0
C3084 C 0.85723 0.41668 0.22064 0.0
C3085 C 0.83657 0.4077 0.20982 0.0
C3086 C 0.83497 0.38645 0.19049 0.0
C3087 C 0.86043 0.4424 0.23702 0.0
C3088 C 0.87918 0.44163 0.26295 0.0
C3089 C 0.84707 0.46966 0.22697 0.0
C3090 C 0.83078 0.46823 0.20454 0.0
C3091 C 0.81042 0.48029 0.20788 0.0
C3092 C 0.79505 0.4801 0.18684 0.0
C3093 C 0.79985 0.46798 0.16223 0.0
C3094 C 0.82003 0.45603 0.15862 0.0
C3095 C 0.83546 0.45625 0.17958 0.0
H3096 H 0.78793 0.46783 0.14597 0.0
H3097 H 0.94367 0.44389 0.36363 0.0
H3098 H 0.85881 0.65033 0.46452 0.0
H3099 H 0.82983 0.65145 0.49716 0.0
H3100 H 0.81187 0.57014 0.47394 0.0
H3101 H 0.84151 0.56865 0.44231 0.0
H3102 H 0.78927 0.64863 0.50121 0.0
H3103 H 0.79327 0.53614 0.52539 0.0
H3104 H 0.82158 0.50255 0.52818 0.0
H3105 H 0.872 0.56377 0.5368 0.0
H3106 H 0.84396 0.59766 0.53423 0.0
H3107 H 0.69592 0.62601 0.57996 0.0
H3108 H 0.72308 0.62497 0.54469 0.0
H3109 H 0.76987 0.59126 0.59717 0.0
H3110 H 0.74255 0.58978 0.63058 0.0
H3111 H 0.77996 0.57249 0.55663 0.0
H3112 H 0.7651 0.66267 0.57809 0.0
H3113 H 0.74235 0.70194 0.58431 0.0
H3114 H 0.72509 0.6967 0.50141 0.0
H3115 H 0.74776 0.65744 0.49474 0.0
C3116 C 0.84865 0.63268 0.46631 0.0
C3117 C 0.85277 0.6093 0.45087 0.0
C3118 C 0.83193 0.63336 0.48504 0.0
C3119 C 0.81867 0.61072 0.48879 0.0
C3120 C 0.82213 0.58774 0.47235 0.0
C3121 C 0.83907 0.58694 0.45399 0.0
C3122 C 0.80168 0.61079 0.5101 0.0
C3123 C 0.78732 0.632 0.51341 0.0
C3124 C 0.79946 0.58983 0.52716 0.0
C3125 C 0.81644 0.56943 0.52886 0.0
C3126 C 0.81037 0.54242 0.52766 0.0
C3127 C 0.82639 0.52332 0.5293 0.0
C3128 C 0.8486 0.53101 0.53245 0.0
C3129 C 0.85481 0.55781 0.53414 0.0
C3130 C 0.83884 0.57697 0.53252 0.0
C3131 C 0.71185 0.61785 0.58354 0.0
C3132 C 0.71668 0.60792 0.60816 0.0
C3133 C 0.7276 0.61759 0.5635 0.0
C3134 C 0.7491 0.60861 0.56792 0.0
C3135 C 0.75366 0.59823 0.59247 0.0
C3136 C 0.73778 0.59756 0.61195 0.0
C3137 C 0.767 0.61013 0.54762 0.0
C3138 C 0.78178 0.58925 0.54461 0.0
C3139 C 0.77051 0.6323 0.53221 0.0
C3140 C 0.75768 0.65666 0.53601 0.0
C3141 C 0.75637 0.66981 0.56121 0.0
C3142 C 0.74353 0.69212 0.56481 0.0
C3143 C 0.73217 0.70172 0.5433 0.0
C3144 C 0.73383 0.6892 0.51809 0.0
C3145 C 0.74666 0.6669 0.51439 0.0
H3146 H 0.72214 0.71891 0.54614 0.0
H3147 H 0.86098 0.5162 0.53374 0.0
H3148 H 0.50228 0.60445 0.6431 0.0
H3149 H 0.47838 0.64837 0.63934 0.0
H3150 H 0.56359 0.68851 0.61978 0.0
H3151 H 0.57515 0.63984 0.62784 0.0
H3152 H 0.4912 0.70638 0.67225 0.0
H3153 H 0.4928 0.73306 0.56215 0.0
H3154 H 0.49436 0.71089 0.51745 0.0
H3155 H 0.47042 0.63826 0.54681 0.0
H3156 H 0.46839 0.66013 0.59156 0.0
H3157 H 0.42802 0.82285 0.67059 0.0
H3158 H 0.45752 0.79094 0.66668 0.0
H3159 H 0.42057 0.74742 0.60328 0.0
H3160 H 0.39231 0.78063 0.60568 0.0
H3161 H 0.45702 0.73931 0.59157 0.0
H3162 H 0.42669 0.7298 0.67515 0.0
H3163 H 0.4144 0.7427 0.71998 0.0
H3164 H 0.48055 0.76702 0.74402 0.0
H3165 H 0.49319 0.75456 0.69917 0.0
C3166 C 0.51137 0.62237 0.63927 0.0
C3167 C 0.53947 0.61977 0.63623 0.0
C3168 C 0.4959 0.64993 0.63648 0.0
C3169 C 0.50764 0.68015 0.62936 0.0
C3170 C 0.55042 0.67498 0.6248 0.0
C3171 C 0.5579 0.644 0.62967 0.0
C3172 C 0.49086 0.70292 0.62973 0.0
C3173 C 0.48434 0.71402 0.65445 0.0
C3174 C 0.47945 0.71147 0.60696 0.0
C3175 C 0.48107 0.69801 0.58034 0.0
C3176 C 0.48793 0.71233 0.55905 0.0
C3177 C 0.48884 0.69985 0.53371 0.0
C3178 C 0.48265 0.67313 0.52934 0.0
C3179 C 0.47539 0.65889 0.55028 0.0
C3180 C 0.47443 0.6713 0.57567 0.0
C3181 C 0.42634 0.80661 0.65562 0.0
C3182 C 0.40762 0.80443 0.6385 0.0
C3183 C 0.44319 0.78796 0.65358 0.0
C3184 C 0.44147 0.7657 0.63518 0.0
C3185 C 0.42287 0.76402 0.61774 0.0
C3186 C 0.40646 0.78316 0.61915 0.0
C3187 C 0.45863 0.74415 0.63405 0.0
C3188 C 0.46463 0.73253 0.60938 0.0
C3189 C 0.46832 0.73381 0.65692 0.0
C3190 C 0.46082 0.74154 0.68378 0.0
C3191 C 0.43858 0.73808 0.68996 0.0
C3192 C 0.43156 0.74529 0.71536 0.0
C3193 C 0.44668 0.75575 0.73481 0.0
C3194 C 0.46886 0.75898 0.72891 0.0
C3195 C 0.47596 0.75184 0.70351 0.0
H3196 H 0.44121 0.76129 0.75448 0.0
H3197 H 0.48339 0.66349 0.50971 0.0
H3198 H 0.33259 0.58185 0.18559 0.0
H3199 H 0.34419 0.55641 0.2223 0.0
H3200 H 0.40925 0.59193 0.22169 0.0
H3201 H 0.39702 0.61943 0.18612 0.0
H3202 H 0.41374 0.54107 0.22571 0.0
H3203 H 0.37594 0.60602 0.26916 0.0
H3204 H 0.34777 0.63791 0.28173 0.0
H3205 H 0.30494 0.57472 0.30338 0.0
H3206 H 0.33264 0.54228 0.29054 0.0
H3207 H 0.4082 0.47956 0.36388 0.0
H3208 H 0.40026 0.51622 0.33627 0.0
H3209 H 0.40053 0.46249 0.26673 0.0
H3210 H 0.40789 0.42576 0.2943 0.0
H3211 H 0.36899 0.52979 0.30453 0.0
H3212 H 0.4199 0.48121 0.22347 0.0
H3213 H 0.45537 0.45918 0.21877 0.0
H3214 H 0.48141 0.50495 0.28751 0.0
H3215 H 0.44612 0.52752 0.29196 0.0
C3216 C 0.34941 0.58418 0.19316 0.0
C3217 C 0.36398 0.60229 0.18255 0.0
C3218 C 0.35608 0.56956 0.21434 0.0
C3219 C 0.37779 0.57148 0.22473 0.0
C3220 C 0.39246 0.58964 0.21405 0.0
C3221 C 0.38547 0.60532 0.19363 0.0
C3222 C 0.38499 0.55411 0.24621 0.0
C3223 C 0.40355 0.53846 0.24251 0.0
C3224 C 0.37317 0.55203 0.26985 0.0
C3225 C 0.35622 0.57144 0.27785 0.0
C3226 C 0.36036 0.59874 0.27603 0.0
C3227 C 0.3445 0.617 0.2834 0.0
C3228 C 0.32449 0.60832 0.29307 0.0
C3229 C 0.32039 0.58139 0.29565 0.0
C3230 C 0.33619 0.56303 0.28828 0.0
C3231 C 0.40632 0.47551 0.34269 0.0
C3232 C 0.40866 0.44965 0.33131 0.0
C3233 C 0.40178 0.49656 0.32689 0.0
C3234 C 0.39998 0.49245 0.29922 0.0
C3235 C 0.40214 0.46651 0.28792 0.0
C3236 C 0.40614 0.44535 0.30375 0.0
C3237 C 0.39598 0.51503 0.28204 0.0
C3238 C 0.37849 0.53207 0.28703 0.0
C3239 C 0.40941 0.51961 0.26044 0.0
C3240 C 0.43061 0.50634 0.25756 0.0
C3241 C 0.43337 0.4869 0.23709 0.0
C3242 C 0.45337 0.4742 0.23463 0.0
C3243 C 0.47071 0.48076 0.25276 0.0
C3244 C 0.46801 0.49996 0.2734 0.0
C3245 C 0.44802 0.51271 0.27585 0.0
H3246 H 0.48618 0.47089 0.25088 0.0
H3247 H 0.31225 0.62249 0.29874 0.0
H3248 H 0.27069 0.6275 0.09808 0.0
H3249 H 0.23637 0.62058 0.07151 0.0
H3250 H 0.26649 0.65886 0.00756 0.0
H3251 H 0.30006 0.66706 0.03462 0.0
H3252 H 0.22749 0.67843 0.01576 0.0
H3253 H 0.25466 0.58651 0.01687 0.0
H3254 H 0.26241 0.54632 0.03961 0.0
H3255 H 0.19595 0.54272 0.06572 0.0
H3256 H 0.18775 0.58299 0.04312 0.0
H3257 H 0.16702 0.60123 0.90006 0.0
H3258 H 0.19524 0.61314 0.93472 0.0
H3259 H 0.14501 0.64215 0.98623 0.0
H3260 H 0.1172 0.63255 0.9509 0.0
H3261 H 0.18907 0.59253 0.99123 0.0
H3262 H 0.16 0.68067 1.00011 0.0
H3263 H 0.1468 0.72201 0.98352 0.0
H3264 H 0.21086 0.73918 0.95454 0.0
H3265 H 0.22418 0.69765 0.97046 0.0
C3266 C 0.27021 0.63356 0.07799 0.0
C3267 C 0.28844 0.64719 0.06825 0.0
C3268 C 0.25043 0.62981 0.06281 0.0
C3269 C 0.24857 0.63895 0.03717 0.0
C3270 C 0.26719 0.65156 0.02714 0.0
C3271 C 0.28666 0.65586 0.04251 0.0
C3272 C 0.22733 0.63664 0.0209 0.0
C3273 C 0.21914 0.65959 0.01035 0.0
C3274 C 0.21533 0.61241 0.01508 0.0
C3275 C 0.22056 0.58788 0.02816 0.0
C3276 C 0.24162 0.57716 0.02726 0.0
C3277 C 0.24612 0.55435 0.04023 0.0
C3278 C 0.22968 0.54195 0.05408 0.0
C3279 C 0.20867 0.5523 0.05494 0.0
C3280 C 0.20409 0.5751 0.04201 0.0
C3281 C 0.1622 0.61154 0.91828 0.0
C3282 C 0.13992 0.61697 0.92222 0.0
C3283 C 0.17837 0.61831 0.93821 0.0
C3284 C 0.17275 0.63033 0.96287 0.0
C3285 C 0.15038 0.63517 0.96695 0.0
C3286 C 0.1343 0.62929 0.94669 0.0
C3287 C 0.18992 0.63408 0.98501 0.0
C3288 C 0.19733 0.61142 0.99673 0.0
C3289 C 0.20034 0.6589 0.99322 0.0
C3290 C 0.19248 0.68446 0.98415 0.0
C3291 C 0.17091 0.69238 0.98884 0.0
C3292 C 0.16352 0.71624 0.98006 0.0
C3293 C 0.17779 0.73287 0.96725 0.0
C3294 C 0.19963 0.72599 0.96385 0.0
C3295 C 0.20705 0.70219 0.97269 0.0
H3296 H 0.17206 0.75134 0.96047 0.0
H3297 H 0.23323 0.52434 0.06418 0.0
H3298 H 0.1003 0.53817 0.84168 0.0
H3299 H 0.11098 0.50824 0.80498 0.0
H3300 H 0.08981 0.56453 0.75012 0.0
H3301 H 0.08218 0.59598 0.78715 0.0
H3302 H 0.09129 0.48105 0.76227 0.0
H3303 H 0.15352 0.56394 0.69227 0.0
H3304 H 0.18175 0.59886 0.68793 0.0
H3305 H 0.22254 0.5652 0.74656 0.0
H3306 H 0.19443 0.5298 0.7508 0.0
H3307 H 0.13279 0.39144 0.65528 0.0
H3308 H 0.11863 0.42441 0.68743 0.0
H3309 H 0.18495 0.44569 0.71494 0.0
H3310 H 0.19887 0.41165 0.68401 0.0
H3311 H 0.15762 0.50702 0.71974 0.0
H3312 H 0.14056 0.41733 0.75088 0.0
H3313 H 0.12497 0.37266 0.75579 0.0
H3314 H 0.06052 0.39889 0.73591 0.0
H3315 H 0.07562 0.4436 0.73077 0.0
C3316 C 0.09848 0.54444 0.82175 0.0
C3317 C 0.09211 0.57026 0.81739 0.0
C3318 C 0.1044 0.52712 0.80062 0.0
C3319 C 0.10359 0.53483 0.77447 0.0
C3320 C 0.09323 0.55886 0.76995 0.0
C3321 C 0.08862 0.57692 0.7912 0.0
C3322 C 0.1157 0.51779 0.75329 0.0
C3323 C 0.10579 0.48567 0.75138 0.0
C3324 C 0.1528 0.5213 0.72722 0.0
C3325 C 0.17086 0.54571 0.72398 0.0
C3326 C 0.16811 0.56441 0.7049 0.0
C3327 C 0.18425 0.58415 0.70215 0.0
C3328 C 0.20367 0.58478 0.71756 0.0
C3329 C 0.20722 0.56522 0.73519 0.0
C3330 C 0.19112 0.54545 0.73789 0.0
C3331 C 0.14421 0.40333 0.6682 0.0
C3332 C 0.16687 0.39986 0.66672 0.0
C3333 C 0.13615 0.42203 0.68675 0.0
C3334 C 0.15069 0.43825 0.70319 0.0
C3335 C 0.17333 0.43385 0.70224 0.0
C3336 C 0.18131 0.41459 0.68443 0.0
C3337 C 0.14302 0.46215 0.71823 0.0
C3338 C 0.15923 0.4891 0.71356 0.0
C3339 C 0.11897 0.46045 0.73538 0.0
C3340 C 0.10947 0.43377 0.73931 0.0
C3341 C 0.12311 0.41354 0.74708 0.0
C3342 C 0.11432 0.38818 0.75009 0.0
C3343 C 0.09181 0.38284 0.74584 0.0
C3344 C 0.078 0.40297 0.73893 0.0
C3345 C 0.08672 0.42838 0.73593 0.0
H3346 H 0.08503 0.36318 0.7481 0.0
H3347 H 0.21614 0.60009 0.71545 0.0
H3348 H 0.23758 0.40359 0.58694 0.0
H3349 H 0.26618 0.4131 0.55535 0.0
H3350 H 0.25618 0.33472 0.51785 0.0
H3351 H 0.22678 0.32562 0.54856 0.0
H3352 H 0.3017 0.34994 0.53309 0.0
H3353 H 0.23433 0.3835 0.4977 0.0
H3354 H 0.19095 0.42313 0.45533 0.0
H3355 H 0.25903 0.48152 0.45268 0.0
H3356 H 0.28453 0.45357 0.48267 0.0
H3357 H 0.3702 0.35954 0.4181 0.0
H3358 H 0.34293 0.34925 0.45136 0.0
H3359 H 0.3325 0.43276 0.46596 0.0
H3360 H 0.35652 0.44246 0.43136 0.0
H3361 H 0.29799 0.4134 0.46454 0.0
H3362 H 0.36023 0.38893 0.5108 0.0
H3363 H 0.39419 0.36562 0.52052 0.0
H3364 H 0.35796 0.29145 0.51529 0.0
H3365 H 0.32374 0.31431 0.50522 0.0
C3366 C 0.24134 0.38847 0.57177 0.0
C3367 C 0.22991 0.36382 0.57023 0.0
C3368 C 0.25768 0.39397 0.55371 0.0
C3369 C 0.26346 0.37462 0.53426 0.0
C3370 C 0.25206 0.34996 0.53272 0.0
C3371 C 0.23517 0.34481 0.55017 0.0
C3372 C 0.28184 0.37949 0.51613 0.0
C3373 C 0.30078 0.36403 0.51795 0.0
C3374 C 0.28132 0.39905 0.49738 0.0
C3375 C 0.2623 0.41627 0.49181 0.0
C3376 C 0.23668 0.40248 0.48909 0.0
C3377 C 0.2102 0.42924 0.46058 0.0
C3378 C 0.22478 0.45785 0.44998 0.0
C3379 C 0.25152 0.46368 0.4594 0.0
C3380 C 0.26806 0.44538 0.47855 0.0
C3381 C 0.3614 0.37549 0.42775 0.0
C3382 C 0.36534 0.40177 0.4211 0.0
C3383 C 0.3462 0.36968 0.44741 0.0
C3384 C 0.33533 0.39015 0.46164 0.0
C3385 C 0.33997 0.41625 0.45533 0.0
C3386 C 0.35403 0.42184 0.43515 0.0
C3387 C 0.31771 0.38537 0.48144 0.0
C3388 C 0.29893 0.40054 0.48016 0.0
C3389 C 0.31896 0.36731 0.50145 0.0
C3390 C 0.33946 0.3533 0.50694 0.0
C3391 C 0.35952 0.36761 0.51144 0.0
C3392 C 0.3788 0.35449 0.51711 0.0
C3393 C 0.37822 0.32707 0.51852 0.0
C3394 C 0.35836 0.3127 0.51419 0.0
C3395 C 0.33901 0.32573 0.50852 0.0
H3396 H 0.39317 0.31695 0.52298 0.0
H3397 H 0.21463 0.444 0.45364 0.0
H3398 H 0.34603 0.46241 0.30246 0.0
H3399 H 0.35331 0.48859 0.26479 0.0
H3400 H 0.36007 0.41733 0.21489 0.0
H3401 H 0.35231 0.39085 0.25264 0.0
H3402 H 0.39059 0.45202 0.20231 0.0
H3403 H 0.31195 0.45687 0.19412 0.0
H3404 H 0.27501 0.4567 0.21319 0.0
H3405 H 0.29373 0.52528 0.26399 0.0
H3406 H 0.33079 0.52515 0.24552 0.0
H3407 H 0.36356 0.56368 0.10609 0.0
H3408 H 0.35064 0.52784 0.13285 0.0
H3409 H 0.41001 0.53776 0.18118 0.0
H3410 H 0.42262 0.57368 0.15517 0.0
H3411 H 0.34057 0.52446 0.18362 0.0
H3412 H 0.42975 0.49824 0.18415 0.0
H3413 H 0.4582 0.48485 0.15281 0.0
H3414 H 0.40891 0.44521 0.10107 0.0
H3415 H 0.38018 0.45806 0.13245 0.0
C3416 C 0.34915 0.45228 0.28352 0.0
C3417 C 0.34866 0.42456 0.28058 0.0
C3418 C 0.35309 0.4673 0.26184 0.0
C3419 C 0.35703 0.45509 0.23676 0.0
C3420 C 0.35711 0.42733 0.23394 0.0
C3421 C 0.35269 0.41222 0.25555 0.0
C3422 C 0.36101 0.47163 0.21385 0.0
C3423 C 0.37995 0.46831 0.19886 0.0
C3424 C 0.34615 0.49119 0.20706 0.0
C3425 C 0.32385 0.49162 0.21795 0.0
C3426 C 0.30805 0.47203 0.20919 0.0
C3427 C 0.28715 0.47185 0.21998 0.0
C3428 C 0.28194 0.49113 0.23961 0.0
C3429 C 0.29765 0.51055 0.24854 0.0
C3430 C 0.31854 0.51076 0.23777 0.0
C3431 C 0.37372 0.55828 0.12265 0.0
C3432 C 0.39399 0.57173 0.12877 0.0
C3433 C 0.36636 0.53773 0.13786 0.0
C3434 C 0.37947 0.52964 0.15895 0.0
C3435 C 0.39969 0.54315 0.1649 0.0
C3436 C 0.40681 0.56399 0.15016 0.0
C3437 C 0.3721 0.5078 0.17549 0.0
C3438 C 0.35191 0.50923 0.18827 0.0
C3439 C 0.38538 0.48588 0.17946 0.0
C3440 C 0.40287 0.47877 0.16083 0.0
C3441 C 0.42499 0.48635 0.16635 0.0
C3442 C 0.44117 0.47896 0.14849 0.0
C3443 C 0.43539 0.464 0.12506 0.0
C3444 C 0.41339 0.45666 0.1193 0.0
C3445 C 0.39717 0.46399 0.1371 0.0
H3446 H 0.44795 0.45814 0.11135 0.0
H3447 H 0.26578 0.49091 0.24802 0.0
H3448 H 0.39104 0.60938 0.00393 0.0
H3449 H 0.35912 0.61378 0.97417 0.0
H3450 H 0.33703 0.67843 0.02533 0.0
H3451 H 0.36871 0.67392 0.05507 0.0
H3452 H 0.31594 0.60738 0.98117 0.0
H3453 H 0.31018 0.72184 0.98993 0.0
H3454 H 0.33513 0.76112 0.99662 0.0
H3455 H 0.38801 0.71668 0.96366 0.0
H3456 H 0.36332 0.67731 0.95642 0.0
H3457 H 0.21082 0.65986 0.93795 0.0
H3458 H 0.24453 0.65478 0.96484 0.0
H3459 H 0.28281 0.65528 0.89479 0.0
H3460 H 0.24914 0.66093 0.86808 0.0
H3461 H 0.29633 0.69292 0.94589 0.0
H3462 H 0.30048 0.58833 0.92081 0.0
H3463 H 0.27701 0.54863 0.90824 0.0
H3464 H 0.23056 0.57325 0.96646 0.0
H3465 H 0.25395 0.61286 0.97936 0.0
C3466 C 0.37954 0.6248 0.00864 0.0
C3467 C 0.3825 0.6414 0.03192 0.0
C3468 C 0.36113 0.62709 0.99173 0.0
C3469 C 0.34545 0.64632 0.99745 0.0
C3470 C 0.34873 0.66335 0.02036 0.0
C3471 C 0.36696 0.66084 0.0374 0.0
C3472 C 0.32567 0.64854 0.97961 0.0
C3473 C 0.3118 0.62613 0.97348 0.0
C3474 C 0.32012 0.67282 0.96913 0.0
C3475 C 0.33494 0.69658 0.97288 0.0
C3476 C 0.3271 0.72051 0.98399 0.0
C3477 C 0.34121 0.74278 0.9879 0.0
C3478 C 0.36316 0.74137 0.98065 0.0
C3479 C 0.37103 0.71773 0.96936 0.0
C3480 C 0.35699 0.69543 0.96537 0.0
C3481 C 0.22646 0.6591 0.92852 0.0
C3482 C 0.22738 0.66138 0.90125 0.0
C3483 C 0.24565 0.65589 0.94373 0.0
C3484 C 0.26617 0.65463 0.93187 0.0
C3485 C 0.26715 0.65627 0.90441 0.0
C3486 C 0.24789 0.6594 0.88919 0.0
C3487 C 0.28658 0.65207 0.94826 0.0
C3488 C 0.30055 0.67433 0.95387 0.0
C3489 C 0.29243 0.62767 0.95791 0.0
C3490 C 0.27888 0.60342 0.95107 0.0
C3491 C 0.28534 0.58509 0.93103 0.0
C3492 C 0.27205 0.56265 0.92381 0.0
C3493 C 0.25232 0.55839 0.93657 0.0
C3494 C 0.24585 0.57653 0.9566 0.0
C3495 C 0.25911 0.59894 0.96388 0.0
H3496 H 0.24202 0.54106 0.93092 0.0
H3497 H 0.37406 0.75861 0.98374 0.0
H3498 H 0.13073 0.461 0.62819 0.0
H3499 H 0.14179 0.4925 0.66521 0.0
H3500 H 0.08077 0.47653 0.70286 0.0
H3501 H 0.0701 0.4438 0.66628 0.0
H3502 H 0.15021 0.47508 0.76399 0.0
H3503 H 0.13081 0.54 0.65927 0.0
H3504 H 0.10818 0.55069 0.62043 0.0
H3505 H 0.05146 0.55722 0.66874 0.0
H3506 H 0.07391 0.54637 0.70773 0.0
H3507 H 0.1468 0.59694 0.84773 0.0
H3508 H 0.14126 0.55726 0.81879 0.0
H3509 H 0.1553 0.60164 0.75111 0.0
H3510 H 0.16069 0.64152 0.78017 0.0
H3511 H 0.12287 0.54704 0.72227 0.0
H3512 H 0.14585 0.48566 0.81095 0.0
H3513 H 0.16813 0.48116 0.85148 0.0
H3514 H 0.20954 0.54707 0.83336 0.0
H3515 H 0.1877 0.55197 0.79268 0.0
C3516 C 0.11993 0.46374 0.64472 0.0
C3517 C 0.10028 0.44867 0.64528 0.0
C3518 C 0.12623 0.48176 0.66599 0.0
C3519 C 0.11312 0.48496 0.68847 0.0
C3520 C 0.09212 0.47253 0.68719 0.0
C3521 C 0.08597 0.45404 0.66615 0.0
C3522 C 0.12171 0.50175 0.71334 0.0
C3523 C 0.14412 0.49324 0.75622 0.0
C3524 C 0.11812 0.53543 0.71112 0.0
C3525 C 0.10396 0.54265 0.68627 0.0
C3526 C 0.11354 0.54386 0.66154 0.0
C3527 C 0.10076 0.54985 0.63951 0.0
C3528 C 0.07839 0.5547 0.64211 0.0
C3529 C 0.06879 0.55354 0.66675 0.0
C3530 C 0.08154 0.54751 0.6888 0.0
C3531 C 0.14844 0.59828 0.82665 0.0
C3532 C 0.15408 0.6224 0.81629 0.0
C3533 C 0.14554 0.57535 0.80992 0.0
C3534 C 0.14819 0.5759 0.78245 0.0
C3535 C 0.15327 0.60027 0.77211 0.0
C3536 C 0.15621 0.62322 0.7888 0.0
C3537 C 0.14387 0.55192 0.76419 0.0
C3538 C 0.1292 0.5585 0.73624 0.0
C3539 C 0.15135 0.52179 0.7741 0.0
C3540 C 0.16494 0.51922 0.79851 0.0
C3541 C 0.15978 0.49914 0.81539 0.0
C3542 C 0.17233 0.49655 0.83853 0.0
C3543 C 0.19024 0.51382 0.84501 0.0
C3544 C 0.19566 0.53368 0.82832 0.0
C3545 C 0.18317 0.53634 0.80515 0.0
H3546 H 0.19992 0.51181 0.86297 0.0
H3547 H 0.0685 0.55933 0.62505 0.0
H3548 H 0.16858 0.39803 0.57688 0.0
H3549 H 0.199 0.3927 0.54689 0.0
H3550 H 0.15412 0.39329 0.47994 0.0
H3551 H 0.12331 0.39734 0.51004 0.0
H3552 H 0.19481 0.3646 0.46351 0.0
H3553 H 0.1687 0.45035 0.50907 0.0
H3554 H 0.15282 0.47736 0.54563 0.0
H3555 H 0.21328 0.47444 0.591 0.0
H3556 H 0.2295 0.44747 0.55454 0.0
H3557 H 0.25877 0.39316 0.36141 0.0
H3558 H 0.23344 0.40333 0.39697 0.0
H3559 H 0.2878 0.44493 0.4401 0.0
H3560 H 0.3112 0.4337 0.40708 0.0
H3561 H 0.23743 0.46372 0.50272 0.0
H3562 H 0.26533 0.36643 0.44158 0.0
H3563 H 0.27494 0.32761 0.41284 0.0
H3564 H 0.2079 0.31844 0.38412 0.0
H3565 H 0.19797 0.35761 0.41238 0.0
C3566 C 0.16501 0.39509 0.55586 0.0
C3567 C 0.14359 0.39774 0.54583 0.0
C3568 C 0.18245 0.39194 0.53861 0.0
C3569 C 0.17899 0.39268 0.51111 0.0
C3570 C 0.1573 0.39241 0.50098 0.0
C3571 C 0.1397 0.39489 0.51826 0.0
C3572 C 0.19745 0.40185 0.49504 0.0
C3573 C 0.20424 0.38295 0.46724 0.0
C3574 C 0.20975 0.43072 0.50751 0.0
C3575 C 0.20011 0.44654 0.52942 0.0
C3576 C 0.1785 0.45526 0.52697 0.0
C3577 C 0.16947 0.47064 0.54761 0.0
C3578 C 0.18196 0.47741 0.57074 0.0
C3579 C 0.20358 0.46904 0.57315 0.0
C3580 C 0.21272 0.45379 0.55247 0.0
C3581 C 0.26498 0.40385 0.37941 0.0
C3582 C 0.2874 0.41097 0.3825 0.0
C3583 C 0.25058 0.40909 0.40039 0.0
C3584 C 0.25825 0.42007 0.42564 0.0
C3585 C 0.28 0.43168 0.42537 0.0
C3586 C 0.29433 0.42615 0.40501 0.0
C3587 C 0.243 0.41669 0.45037 0.0
C3588 C 0.2316 0.44454 0.49344 0.0
C3589 C 0.2252 0.38846 0.44601 0.0
C3590 C 0.23101 0.36529 0.42862 0.0
C3591 C 0.25269 0.35636 0.42887 0.0
C3592 C 0.25819 0.33426 0.41272 0.0
C3593 C 0.24207 0.32067 0.39652 0.0
C3594 C 0.22039 0.3291 0.39656 0.0
C3595 C 0.21482 0.35127 0.41263 0.0
H3596 H 0.24634 0.30353 0.38406 0.0
H3597 H 0.17492 0.48926 0.58673 0.0
H3598 H 0.45531 0.31432 0.36676 0.0
H3599 H 0.48671 0.28612 0.36845 0.0
H3600 H 0.52935 0.35288 0.35492 0.0
H3601 H 0.49726 0.38117 0.35308 0.0
H3602 H 0.54263 0.30957 0.32745 0.0
H3603 H 0.52337 0.33218 0.41332 0.0
H3604 H 0.50125 0.33916 0.45282 0.0
H3605 H 0.49441 0.25527 0.45849 0.0
H3606 H 0.51561 0.24767 0.41836 0.0
H3607 H 0.63054 0.22372 0.38186 0.0
H3608 H 0.60276 0.25725 0.39104 0.0
H3609 H 0.55807 0.2157 0.33428 0.0
H3610 H 0.58556 0.18241 0.325 0.0
H3611 H 0.55189 0.25307 0.40306 0.0
H3612 H 0.55909 0.24752 0.29785 0.0
H3613 H 0.58635 0.24636 0.2626 0.0
H3614 H 0.62513 0.30765 0.306 0.0
H3615 H 0.59828 0.30872 0.34167 0.0
C3616 C 0.47109 0.32293 0.36369 0.0
C3617 C 0.47332 0.34995 0.35974 0.0
C3618 C 0.48929 0.30681 0.36496 0.0
C3619 C 0.5106 0.31734 0.36233 0.0
C3620 C 0.5131 0.34421 0.35719 0.0
C3621 C 0.49468 0.36037 0.35605 0.0
C3622 C 0.52997 0.30005 0.36508 0.0
C3623 C 0.5445 0.29739 0.34412 0.0
C3624 C 0.5333 0.28478 0.38738 0.0
C3625 C 0.52053 0.28927 0.41193 0.0
C3626 C 0.5167 0.31511 0.42246 0.0
C3627 C 0.50435 0.31923 0.44512 0.0
C3628 C 0.49619 0.29768 0.45799 0.0
C3629 C 0.50055 0.27198 0.44836 0.0
C3630 C 0.5126 0.26776 0.42548 0.0
C3631 C 0.61446 0.22117 0.37215 0.0
C3632 C 0.61025 0.20033 0.35272 0.0
C3633 C 0.59867 0.2405 0.37723 0.0
C3634 C 0.57842 0.23917 0.36309 0.0
C3635 C 0.5736 0.21725 0.34532 0.0
C3636 C 0.58932 0.19812 0.34013 0.0
C3637 C 0.56299 0.26155 0.36469 0.0
C3638 C 0.54955 0.26534 0.38656 0.0
C3639 C 0.56104 0.27862 0.34391 0.0
C3640 C 0.57686 0.27805 0.32236 0.0
C3641 C 0.57349 0.26063 0.29985 0.0
C3642 C 0.58887 0.25997 0.27985 0.0
C3643 C 0.60748 0.27688 0.28208 0.0
C3644 C 0.61076 0.29449 0.30433 0.0
C3645 C 0.59552 0.29507 0.32446 0.0
H3646 H 0.61934 0.27639 0.26655 0.0
H3647 H 0.48665 0.30088 0.47554 0.0
loop_
_geom_bond_atom_site_label_1
_geom_bond_atom_site_label_2
_geom_bond_distance
_geom_bond_site_symmetry_2
_ccdc_geom_bond_type
Co0 O1 2.216 . S
Co0 O2 2.091 . S
Co0 O4 2.004 . S
Co0 O10 2.021 . S
Co0 O12 2.137 . S
Co0 O13 2.244 . S
O1 Co0 2.216 . S
O1 C8 1.247 . S
O2 Co0 2.091 . S
O2 C8 1.261 . S
C3 O12 1.247 . S
C3 O13 1.272 . S
O4 Co0 2.004 . S
O4 C9 1.259 . S
Co5 O6 2.061 . S
Co5 O11 2.052 . S
Co5 O13 2.135 . S
O6 Co5 2.061 . S
O6 C9 1.235 . S
C7 O10 1.238 . S
C7 O11 1.241 . S
C8 O1 1.247 . S
C8 O2 1.261 . S
C9 O4 1.259 . S
C9 O6 1.235 . S
O10 Co0 2.021 . S
O10 C7 1.238 . S
O11 Co5 2.052 . S
O11 C7 1.241 . S
O12 Co0 2.137 . S
O12 C3 1.247 . S
O13 Co0 2.244 . S
O13 C3 1.272 . S
O13 Co5 2.135 . S
Co14 O15 2.216 . S
Co14 O16 2.091 . S
Co14 O18 2.004 . S
Co14 O24 2.021 . S
Co14 O26 2.137 . S
Co14 O27 2.244 . S
O15 Co14 2.216 . S
O15 C22 1.247 . S
O16 Co14 2.091 . S
O16 C22 1.261 . S
C17 O26 1.247 . S
C17 O27 1.272 . S
O18 Co14 2.004 . S
O18 C23 1.259 . S
Co19 O20 2.061 . S
Co19 O25 2.052 . S
Co19 O27 2.135 . S
O20 Co19 2.061 . S
O20 C23 1.235 . S
C21 O24 1.238 . S
C21 O25 1.241 . S
C22 O15 1.247 . S
C22 O16 1.261 . S
C23 O18 1.259 . S
C23 O20 1.235 . S
O24 Co14 2.021 . S
O24 C21 1.238 . S
O25 Co19 2.052 . S
O25 C21 1.241 . S
O26 Co14 2.137 . S
O26 C17 1.247 . S
O27 Co14 2.244 . S
O27 C17 1.272 . S
O27 Co19 2.135 . S
Co28 O29 2.216 . S
Co28 O30 2.091 . S
Co28 O32 2.004 . S
Co28 O38 2.021 . S
Co28 O40 2.137 . S
Co28 O41 2.244 . S
O29 Co28 2.216 . S
O29 C36 1.247 . S
O30 Co28 2.091 . S
O30 C36 1.261 . S
C31 O40 1.247 . S
C31 O41 1.272 . S
O32 Co28 2.004 . S
O32 C37 1.259 . S
Co33 O34 2.061 . S
Co33 O39 2.052 . S
Co33 O41 2.135 . S
O34 Co33 2.061 . S
O34 C37 1.235 . S
C35 O38 1.238 . S
C35 O39 1.241 . S
C36 O29 1.247 . S
C36 O30 1.261 . S
C37 O32 1.259 . S
C37 O34 1.235 . S
O38 Co28 2.021 . S
O38 C35 1.238 . S
O39 Co33 2.052 . S
O39 C35 1.241 . S
O40 Co28 2.137 . S
O40 C31 1.247 . S
O41 Co28 2.244 . S
O41 C31 1.272 . S
O41 Co33 2.135 . S
Co42 O43 2.216 . S
Co42 O44 2.091 . S
Co42 O46 2.004 . S
Co42 O52 2.021 . S
Co42 O54 2.137 . S
Co42 O55 2.244 . S
O43 Co42 2.216 . S
O43 C50 1.247 . S
O44 Co42 2.091 . S
O44 C50 1.261 . S
C45 O54 1.247 . S
C45 O55 1.272 . S
O46 Co42 2.004 . S
O46 C51 1.259 . S
Co47 O48 2.061 . S
Co47 O53 2.052 . S
Co47 O55 2.135 . S
O48 Co47 2.061 . S
O48 C51 1.235 . S
C49 O52 1.238 . S
C49 O53 1.241 . S
C50 O43 1.247 . S
C50 O44 1.261 . S
C51 O46 1.259 . S
C51 O48 1.235 . S
O52 Co42 2.021 . S
O52 C49 1.238 . S
O53 Co47 2.052 . S
O53 C49 1.241 . S
O54 Co42 2.137 . S
O54 C45 1.247 . S
O55 Co42 2.244 . S
O55 C45 1.272 . S
O55 Co47 2.135 . S
Co56 O57 2.216 . S
Co56 O58 2.091 . S
Co56 O60 2.004 . S
Co56 O66 2.021 . S
Co56 O68 2.137 . S
Co56 O69 2.244 . S
O57 Co56 2.216 . S
O57 C64 1.247 . S
O58 Co56 2.091 . S
O58 C64 1.261 . S
C59 O68 1.247 . S
C59 O69 1.272 . S
O60 Co56 2.004 . S
O60 C65 1.259 . S
Co61 O62 2.061 . S
Co61 O67 2.052 . S
Co61 O69 2.135 . S
O62 Co61 2.061 . S
O62 C65 1.235 . S
C63 O66 1.238 . S
C63 O67 1.241 . S
C64 O57 1.247 . S
C64 O58 1.261 . S
C65 O60 1.259 . S
C65 O62 1.235 . S
O66 Co56 2.021 . S
O66 C63 1.238 . S
O67 Co61 2.052 . S
O67 C63 1.241 . S
O68 Co56 2.137 . S
O68 C59 1.247 . S
O69 Co56 2.244 . S
O69 C59 1.272 . S
O69 Co61 2.135 . S
Co70 O71 2.216 . S
Co70 O72 2.091 . S
Co70 O74 2.004 . S
Co70 O80 2.021 . S
Co70 O82 2.137 . S
Co70 O83 2.244 . S
O71 Co70 2.216 . S
O71 C78 1.247 . S
O72 Co70 2.091 . S
O72 C78 1.261 . S
C73 O82 1.247 . S
C73 O83 1.272 . S
O74 Co70 2.004 . S
O74 C79 1.259 . S
Co75 O76 2.061 . S
Co75 O81 2.052 . S
Co75 O83 2.135 . S
O76 Co75 2.061 . S
O76 C79 1.235 . S
C77 O80 1.238 . S
C77 O81 1.241 . S
C78 O71 1.247 . S
C78 O72 1.261 . S
C79 O74 1.259 . S
C79 O76 1.235 . S
O80 Co70 2.021 . S
O80 C77 1.238 . S
O81 Co75 2.052 . S
O81 C77 1.241 . S
O82 Co70 2.137 . S
O82 C73 1.247 . S
O83 Co70 2.244 . S
O83 C73 1.272 . S
O83 Co75 2.135 . S
Co84 O85 2.216 . S
Co84 O86 2.091 . S
Co84 O88 2.004 . S
Co84 O94 2.021 . S
Co84 O96 2.137 . S
Co84 O97 2.244 . S
O85 Co84 2.216 . S
O85 C92 1.247 . S
O86 Co84 2.091 . S
O86 C92 1.261 . S
C87 O96 1.247 . S
C87 O97 1.272 . S
O88 Co84 2.004 . S
O88 C93 1.259 . S
Co89 O90 2.061 . S
Co89 O95 2.052 . S
Co89 O97 2.135 . S
O90 Co89 2.061 . S
O90 C93 1.235 . S
C91 O94 1.238 . S
C91 O95 1.241 . S
C92 O85 1.247 . S
C92 O86 1.261 . S
C93 O88 1.259 . S
C93 O90 1.235 . S
O94 Co84 2.021 . S
O94 C91 1.238 . S
O95 Co89 2.052 . S
O95 C91 1.241 . S
O96 Co84 2.137 . S
O96 C87 1.247 . S
O97 Co84 2.244 . S
O97 C87 1.272 . S
O97 Co89 2.135 . S
Co98 O99 2.216 . S
Co98 O100 2.091 . S
Co98 O102 2.004 . S
Co98 O108 2.021 . S
Co98 O110 2.137 . S
Co98 O111 2.244 . S
O99 Co98 2.216 . S
O99 C106 1.247 . S
O100 Co98 2.091 . S
O100 C106 1.261 . S
C101 O110 1.247 . S
C101 O111 1.272 . S
O102 Co98 2.004 . S
O102 C107 1.259 . S
Co103 O104 2.061 . S
Co103 O109 2.052 . S
Co103 O111 2.135 . S
O104 Co103 2.061 . S
O104 C107 1.235 . S
C105 O108 1.238 . S
C105 O109 1.241 . S
C106 O99 1.247 . S
C106 O100 1.261 . S
C107 O102 1.259 . S
C107 O104 1.235 . S
O108 Co98 2.021 . S
O108 C105 1.238 . S
O109 Co103 2.052 . S
O109 C105 1.241 . S
O110 Co98 2.137 . S
O110 C101 1.247 . S
O111 Co98 2.244 . S
O111 C101 1.272 . S
O111 Co103 2.135 . S
Co112 O113 2.216 . S
Co112 O114 2.091 . S
Co112 O116 2.004 . S
Co112 O122 2.021 . S
Co112 O124 2.137 . S
Co112 O125 2.244 . S
O113 Co112 2.216 . S
O113 C120 1.247 . S
O114 Co112 2.091 . S
O114 C120 1.261 . S
C115 O124 1.247 . S
C115 O125 1.272 . S
O116 Co112 2.004 . S
O116 C121 1.259 . S
Co117 O118 2.061 . S
Co117 O123 2.052 . S
Co117 O125 2.135 . S
O118 Co117 2.061 . S
O118 C121 1.235 . S
C119 O122 1.238 . S
C119 O123 1.241 . S
C120 O113 1.247 . S
C120 O114 1.261 . S
C121 O116 1.259 . S
C121 O118 1.235 . S
O122 Co112 2.021 . S
O122 C119 1.238 . S
O123 Co117 2.052 . S
O123 C119 1.241 . S
O124 Co112 2.137 . S
O124 C115 1.247 . S
O125 Co112 2.244 . S
O125 C115 1.272 . S
O125 Co117 2.135 . S
Co126 O127 2.216 . S
Co126 O128 2.091 . S
Co126 O130 2.004 . S
Co126 O136 2.021 . S
Co126 O138 2.137 . S
Co126 O139 2.244 . S
O127 Co126 2.216 . S
O127 C134 1.247 . S
O128 Co126 2.091 . S
O128 C134 1.261 . S
C129 O138 1.247 . S
C129 O139 1.272 . S
O130 Co126 2.004 . S
O130 C135 1.259 . S
Co131 O132 2.061 . S
Co131 O137 2.052 . S
Co131 O139 2.135 . S
O132 Co131 2.061 . S
O132 C135 1.235 . S
C133 O136 1.238 . S
C133 O137 1.241 . S
C134 O127 1.247 . S
C134 O128 1.261 . S
C135 O130 1.259 . S
C135 O132 1.235 . S
O136 Co126 2.021 . S
O136 C133 1.238 . S
O137 Co131 2.052 . S
O137 C133 1.241 . S
O138 Co126 2.137 . S
O138 C129 1.247 . S
O139 Co126 2.244 . S
O139 C129 1.272 . S
O139 Co131 2.135 . S
Co140 O141 2.216 . S
Co140 O142 2.091 . S
Co140 O144 2.004 . S
Co140 O150 2.021 . S
Co140 O152 2.137 . S
Co140 O153 2.244 . S
O141 Co140 2.216 . S
O141 C148 1.247 . S
O142 Co140 2.091 . S
O142 C148 1.261 . S
C143 O152 1.247 . S
C143 O153 1.272 . S
O144 Co140 2.004 . S
O144 C149 1.259 . S
Co145 O146 2.061 . S
Co145 O151 2.052 . S
Co145 O153 2.135 . S
O146 Co145 2.061 . S
O146 C149 1.235 . S
C147 O150 1.238 . S
C147 O151 1.241 . S
C148 O141 1.247 . S
C148 O142 1.261 . S
C149 O144 1.259 . S
C149 O146 1.235 . S
O150 Co140 2.021 . S
O150 C147 1.238 . S
O151 Co145 2.052 . S
O151 C147 1.241 . S
O152 Co140 2.137 . S
O152 C143 1.247 . S
O153 Co140 2.244 . S
O153 C143 1.272 . S
O153 Co145 2.135 . S
Co154 O155 2.216 . S
Co154 O156 2.091 . S
Co154 O158 2.004 . S
Co154 O164 2.021 . S
Co154 O166 2.137 . S
Co154 O167 2.244 . S
O155 Co154 2.216 . S
O155 C162 1.247 . S
O156 Co154 2.091 . S
O156 C162 1.261 . S
C157 O166 1.247 . S
C157 O167 1.272 . S
O158 Co154 2.004 . S
O158 C163 1.259 . S
Co159 O160 2.061 . S
Co159 O165 2.052 . S
Co159 O167 2.135 . S
O160 Co159 2.061 . S
O160 C163 1.235 . S
C161 O164 1.238 . S
C161 O165 1.241 . S
C162 O155 1.247 . S
C162 O156 1.261 . S
C163 O158 1.259 . S
C163 O160 1.235 . S
O164 Co154 2.021 . S
O164 C161 1.238 . S
O165 Co159 2.052 . S
O165 C161 1.241 . S
O166 Co154 2.137 . S
O166 C157 1.247 . S
O167 Co154 2.244 . S
O167 C157 1.272 . S
O167 Co159 2.135 . S
Co168 O169 2.216 . S
Co168 O170 2.091 . S
Co168 O172 2.004 . S
Co168 O178 2.021 . S
Co168 O180 2.137 . S
Co168 O181 2.244 . S
O169 Co168 2.216 . S
O169 C176 1.247 . S
O170 Co168 2.091 . S
O170 C176 1.261 . S
C171 O180 1.247 . S
C171 O181 1.272 . S
O172 Co168 2.004 . S
O172 C177 1.259 . S
Co173 O174 2.061 . S
Co173 O179 2.052 . S
Co173 O181 2.135 . S
O174 Co173 2.061 . S
O174 C177 1.235 . S
C175 O178 1.238 . S
C175 O179 1.241 . S
C176 O169 1.247 . S
C176 O170 1.261 . S
C177 O172 1.259 . S
C177 O174 1.235 . S
O178 Co168 2.021 . S
O178 C175 1.238 . S
O179 Co173 2.052 . S
O179 C175 1.241 . S
O180 Co168 2.137 . S
O180 C171 1.247 . S
O181 Co168 2.244 . S
O181 C171 1.272 . S
O181 Co173 2.135 . S
Co182 O183 2.216 . S
Co182 O184 2.091 . S
Co182 O186 2.004 . S
Co182 O192 2.021 . S
Co182 O194 2.137 . S
Co182 O195 2.244 . S
O183 Co182 2.216 . S
O183 C190 1.247 . S
O184 Co182 2.091 . S
O184 C190 1.261 . S
C185 O194 1.247 . S
C185 O195 1.272 . S
O186 Co182 2.004 . S
O186 C191 1.259 . S
Co187 O188 2.061 . S
Co187 O193 2.052 . S
Co187 O195 2.135 . S
O188 Co187 2.061 . S
O188 C191 1.235 . S
C189 O192 1.238 . S
C189 O193 1.241 . S
C190 O183 1.247 . S
C190 O184 1.261 . S
C191 O186 1.259 . S
C191 O188 1.235 . S
O192 Co182 2.021 . S
O192 C189 1.238 . S
O193 Co187 2.052 . S
O193 C189 1.241 . S
O194 Co182 2.137 . S
O194 C185 1.247 . S
O195 Co182 2.244 . S
O195 C185 1.272 . S
O195 Co187 2.135 . S
Co196 O197 2.216 . S
Co196 O198 2.091 . S
Co196 O200 2.004 . S
Co196 O206 2.021 . S
Co196 O208 2.137 . S
Co196 O209 2.244 . S
O197 Co196 2.216 . S
O197 C204 1.247 . S
O198 Co196 2.091 . S
O198 C204 1.261 . S
C199 O208 1.247 . S
C199 O209 1.272 . S
O200 Co196 2.004 . S
O200 C205 1.259 . S
Co201 O202 2.061 . S
Co201 O207 2.052 . S
Co201 O209 2.135 . S
O202 Co201 2.061 . S
O202 C205 1.235 . S
C203 O206 1.238 . S
C203 O207 1.241 . S
C204 O197 1.247 . S
C204 O198 1.261 . S
C205 O200 1.259 . S
C205 O202 1.235 . S
O206 Co196 2.021 . S
O206 C203 1.238 . S
O207 Co201 2.052 . S
O207 C203 1.241 . S
O208 Co196 2.137 . S
O208 C199 1.247 . S
O209 Co196 2.244 . S
O209 C199 1.272 . S
O209 Co201 2.135 . S
Co210 O211 2.216 . S
Co210 O212 2.091 . S
Co210 O214 2.004 . S
Co210 O220 2.021 . S
Co210 O222 2.137 . S
Co210 O223 2.244 . S
O211 Co210 2.216 . S
O211 C218 1.247 . S
O212 Co210 2.091 . S
O212 C218 1.261 . S
C213 O222 1.247 . S
C213 O223 1.272 . S
O214 Co210 2.004 . S
O214 C219 1.259 . S
Co215 O216 2.061 . S
Co215 O221 2.052 . S
Co215 O223 2.135 . S
O216 Co215 2.061 . S
O216 C219 1.235 . S
C217 O220 1.238 . S
C217 O221 1.241 . S
C218 O211 1.247 . S
C218 O212 1.261 . S
C219 O214 1.259 . S
C219 O216 1.235 . S
O220 Co210 2.021 . S
O220 C217 1.238 . S
O221 Co215 2.052 . S
O221 C217 1.241 . S
O222 Co210 2.137 . S
O222 C213 1.247 . S
O223 Co210 2.244 . S
O223 C213 1.272 . S
O223 Co215 2.135 . S
Co224 O225 2.216 . S
Co224 O226 2.091 . S
Co224 O228 2.004 . S
Co224 O234 2.021 . S
Co224 O236 2.137 . S
Co224 O237 2.244 . S
O225 Co224 2.216 . S
O225 C232 1.247 . S
O226 Co224 2.091 . S
O226 C232 1.261 . S
C227 O236 1.247 . S
C227 O237 1.272 . S
O228 Co224 2.004 . S
O228 C233 1.259 . S
Co229 O230 2.061 . S
Co229 O235 2.052 . S
Co229 O237 2.135 . S
O230 Co229 2.061 . S
O230 C233 1.235 . S
C231 O234 1.238 . S
C231 O235 1.241 . S
C232 O225 1.247 . S
C232 O226 1.261 . S
C233 O228 1.259 . S
C233 O230 1.235 . S
O234 Co224 2.021 . S
O234 C231 1.238 . S
O235 Co229 2.052 . S
O235 C231 1.241 . S
O236 Co224 2.137 . S
O236 C227 1.247 . S
O237 Co224 2.244 . S
O237 C227 1.272 . S
O237 Co229 2.135 . S
Co238 O239 2.216 . S
Co238 O240 2.091 . S
Co238 O242 2.004 . S
Co238 O248 2.021 . S
Co238 O250 2.137 . S
Co238 O251 2.244 . S
O239 Co238 2.216 . S
O239 C246 1.247 . S
O240 Co238 2.091 . S
O240 C246 1.261 . S
C241 O250 1.247 . S
C241 O251 1.272 . S
O242 Co238 2.004 . S
O242 C247 1.259 . S
Co243 O244 2.061 . S
Co243 O249 2.052 . S
Co243 O251 2.135 . S
O244 Co243 2.061 . S
O244 C247 1.235 . S
C245 O248 1.238 . S
C245 O249 1.241 . S
C246 O239 1.247 . S
C246 O240 1.261 . S
C247 O242 1.259 . S
C247 O244 1.235 . S
O248 Co238 2.021 . S
O248 C245 1.238 . S
O249 Co243 2.052 . S
O249 C245 1.241 . S
O250 Co238 2.137 . S
O250 C241 1.247 . S
O251 Co238 2.244 . S
O251 C241 1.272 . S
O251 Co243 2.135 . S
Co252 O253 2.216 . S
Co252 O254 2.091 . S
Co252 O256 2.004 . S
Co252 O262 2.021 . S
Co252 O264 2.137 . S
Co252 O265 2.244 . S
O253 Co252 2.216 . S
O253 C260 1.247 . S
O254 Co252 2.091 . S
O254 C260 1.261 . S
C255 O264 1.247 . S
C255 O265 1.272 . S
O256 Co252 2.004 . S
O256 C261 1.259 . S
Co257 O258 2.061 . S
Co257 O263 2.052 . S
Co257 O265 2.135 . S
O258 Co257 2.061 . S
O258 C261 1.235 . S
C259 O262 1.238 . S
C259 O263 1.241 . S
C260 O253 1.247 . S
C260 O254 1.261 . S
C261 O256 1.259 . S
C261 O258 1.235 . S
O262 Co252 2.021 . S
O262 C259 1.238 . S
O263 Co257 2.052 . S
O263 C259 1.241 . S
O264 Co252 2.137 . S
O264 C255 1.247 . S
O265 Co252 2.244 . S
O265 C255 1.272 . S
O265 Co257 2.135 . S
Co266 O267 2.216 . S
Co266 O268 2.091 . S
Co266 O270 2.004 . S
Co266 O276 2.021 . S
Co266 O278 2.137 . S
Co266 O279 2.244 . S
O267 Co266 2.216 . S
O267 C274 1.247 . S
O268 Co266 2.091 . S
O268 C274 1.261 . S
C269 O278 1.247 . S
C269 O279 1.272 . S
O270 Co266 2.004 . S
O270 C275 1.259 . S
Co271 O272 2.061 . S
Co271 O277 2.052 . S
Co271 O279 2.135 . S
O272 Co271 2.061 . S
O272 C275 1.235 . S
C273 O276 1.238 . S
C273 O277 1.241 . S
C274 O267 1.247 . S
C274 O268 1.261 . S
C275 O270 1.259 . S
C275 O272 1.235 . S
O276 Co266 2.021 . S
O276 C273 1.238 . S
O277 Co271 2.052 . S
O277 C273 1.241 . S
O278 Co266 2.137 . S
O278 C269 1.247 . S
O279 Co266 2.244 . S
O279 C269 1.272 . S
O279 Co271 2.135 . S
Co280 O281 2.216 . S
Co280 O282 2.091 . S
Co280 O284 2.004 . S
Co280 O290 2.021 . S
Co280 O292 2.137 . S
Co280 O293 2.244 . S
O281 Co280 2.216 . S
O281 C288 1.247 . S
O282 Co280 2.091 . S
O282 C288 1.261 . S
C283 O292 1.247 . S
C283 O293 1.272 . S
O284 Co280 2.004 . S
O284 C289 1.259 . S
Co285 O286 2.061 . S
Co285 O291 2.052 . S
Co285 O293 2.135 . S
O286 Co285 2.061 . S
O286 C289 1.235 . S
C287 O290 1.238 . S
C287 O291 1.241 . S
C288 O281 1.247 . S
C288 O282 1.261 . S
C289 O284 1.259 . S
C289 O286 1.235 . S
O290 Co280 2.021 . S
O290 C287 1.238 . S
O291 Co285 2.052 . S
O291 C287 1.241 . S
O292 Co280 2.137 . S
O292 C283 1.247 . S
O293 Co280 2.244 . S
O293 C283 1.272 . S
O293 Co285 2.135 . S
Co294 O295 2.216 . S
Co294 O296 2.091 . S
Co294 O298 2.004 . S
Co294 O304 2.021 . S
Co294 O306 2.137 . S
Co294 O307 2.244 . S
O295 Co294 2.216 . S
O295 C302 1.247 . S
O296 Co294 2.091 . S
O296 C302 1.261 . S
C297 O306 1.247 . S
C297 O307 1.272 . S
O298 Co294 2.004 . S
O298 C303 1.259 . S
Co299 O300 2.061 . S
Co299 O305 2.052 . S
Co299 O307 2.135 . S
O300 Co299 2.061 . S
O300 C303 1.235 . S
C301 O304 1.238 . S
C301 O305 1.241 . S
C302 O295 1.247 . S
C302 O296 1.261 . S
C303 O298 1.259 . S
C303 O300 1.235 . S
O304 Co294 2.021 . S
O304 C301 1.238 . S
O305 Co299 2.052 . S
O305 C301 1.241 . S
O306 Co294 2.137 . S
O306 C297 1.247 . S
O307 Co294 2.244 . S
O307 C297 1.272 . S
O307 Co299 2.135 . S
Co308 O309 2.216 . S
Co308 O310 2.091 . S
Co308 O312 2.004 . S
Co308 O318 2.021 . S
Co308 O320 2.137 . S
Co308 O321 2.244 . S
O309 Co308 2.216 . S
O309 C316 1.247 . S
O310 Co308 2.091 . S
O310 C316 1.261 . S
C311 O320 1.247 . S
C311 O321 1.272 . S
O312 Co308 2.004 . S
O312 C317 1.259 . S
Co313 O314 2.061 . S
Co313 O319 2.052 . S
Co313 O321 2.135 . S
O314 Co313 2.061 . S
O314 C317 1.235 . S
C315 O318 1.238 . S
C315 O319 1.241 . S
C316 O309 1.247 . S
C316 O310 1.261 . S
C317 O312 1.259 . S
C317 O314 1.235 . S
O318 Co308 2.021 . S
O318 C315 1.238 . S
O319 Co313 2.052 . S
O319 C315 1.241 . S
O320 Co308 2.137 . S
O320 C311 1.247 . S
O321 Co308 2.244 . S
O321 C311 1.272 . S
O321 Co313 2.135 . S
Co322 O323 2.216 . S
Co322 O324 2.091 . S
Co322 O326 2.004 . S
Co322 O332 2.021 . S
Co322 O334 2.137 . S
Co322 O335 2.244 . S
O323 Co322 2.216 . S
O323 C330 1.247 . S
O324 Co322 2.091 . S
O324 C330 1.261 . S
C325 O334 1.247 . S
C325 O335 1.272 . S
O326 Co322 2.004 . S
O326 C331 1.259 . S
Co327 O328 2.061 . S
Co327 O333 2.052 . S
Co327 O335 2.135 . S
O328 Co327 2.061 . S
O328 C331 1.235 . S
C329 O332 1.238 . S
C329 O333 1.241 . S
C330 O323 1.247 . S
C330 O324 1.261 . S
C331 O326 1.259 . S
C331 O328 1.235 . S
O332 Co322 2.021 . S
O332 C329 1.238 . S
O333 Co327 2.052 . S
O333 C329 1.241 . S
O334 Co322 2.137 . S
O334 C325 1.247 . S
O335 Co322 2.244 . S
O335 C325 1.272 . S
O335 Co327 2.135 . S
Co336 O337 2.216 . S
Co336 O338 2.091 . S
Co336 O340 2.004 . S
Co336 O346 2.021 . S
Co336 O348 2.137 . S
Co336 O349 2.244 . S
O337 Co336 2.216 . S
O337 C344 1.247 . S
O338 Co336 2.091 . S
O338 C344 1.261 . S
C339 O348 1.247 . S
C339 O349 1.272 . S
O340 Co336 2.004 . S
O340 C345 1.259 . S
Co341 O342 2.061 . S
Co341 O347 2.052 . S
Co341 O349 2.135 . S
O342 Co341 2.061 . S
O342 C345 1.235 . S
C343 O346 1.238 . S
C343 O347 1.241 . S
C344 O337 1.247 . S
C344 O338 1.261 . S
C345 O340 1.259 . S
C345 O342 1.235 . S
O346 Co336 2.021 . S
O346 C343 1.238 . S
O347 Co341 2.052 . S
O347 C343 1.241 . S
O348 Co336 2.137 . S
O348 C339 1.247 . S
O349 Co336 2.244 . S
O349 C339 1.272 . S
O349 Co341 2.135 . S
Co350 O351 2.216 . S
Co350 O352 2.091 . S
Co350 O354 2.004 . S
Co350 O360 2.021 . S
Co350 O362 2.137 . S
Co350 O363 2.244 . S
O351 Co350 2.216 . S
O351 C358 1.247 . S
O352 Co350 2.091 . S
O352 C358 1.261 . S
C353 O362 1.247 . S
C353 O363 1.272 . S
O354 Co350 2.004 . S
O354 C359 1.259 . S
Co355 O356 2.061 . S
Co355 O361 2.052 . S
Co355 O363 2.135 . S
O356 Co355 2.061 . S
O356 C359 1.235 . S
C357 O360 1.238 . S
C357 O361 1.241 . S
C358 O351 1.247 . S
C358 O352 1.261 . S
C359 O354 1.259 . S
C359 O356 1.235 . S
O360 Co350 2.021 . S
O360 C357 1.238 . S
O361 Co355 2.052 . S
O361 C357 1.241 . S
O362 Co350 2.137 . S
O362 C353 1.247 . S
O363 Co350 2.244 . S
O363 C353 1.272 . S
O363 Co355 2.135 . S
Co364 O365 2.216 . S
Co364 O366 2.091 . S
Co364 O368 2.004 . S
Co364 O374 2.021 . S
Co364 O376 2.137 . S
Co364 O377 2.244 . S
O365 Co364 2.216 . S
O365 C372 1.247 . S
O366 Co364 2.091 . S
O366 C372 1.261 . S
C367 O376 1.247 . S
C367 O377 1.272 . S
O368 Co364 2.004 . S
O368 C373 1.259 . S
Co369 O370 2.061 . S
Co369 O375 2.052 . S
Co369 O377 2.135 . S
O370 Co369 2.061 . S
O370 C373 1.235 . S
C371 O374 1.238 . S
C371 O375 1.241 . S
C372 O365 1.247 . S
C372 O366 1.261 . S
C373 O368 1.259 . S
C373 O370 1.235 . S
O374 Co364 2.021 . S
O374 C371 1.238 . S
O375 Co369 2.052 . S
O375 C371 1.241 . S
O376 Co364 2.137 . S
O376 C367 1.247 . S
O377 Co364 2.244 . S
O377 C367 1.272 . S
O377 Co369 2.135 . S
Co378 O379 2.216 . S
Co378 O380 2.091 . S
Co378 O382 2.004 . S
Co378 O388 2.021 . S
Co378 O390 2.137 . S
Co378 O391 2.244 . S
O379 Co378 2.216 . S
O379 C386 1.247 . S
O380 Co378 2.091 . S
O380 C386 1.261 . S
C381 O390 1.247 . S
C381 O391 1.272 . S
O382 Co378 2.004 . S
O382 C387 1.259 . S
Co383 O384 2.061 . S
Co383 O389 2.052 . S
Co383 O391 2.135 . S
O384 Co383 2.061 . S
O384 C387 1.235 . S
C385 O388 1.238 . S
C385 O389 1.241 . S
C386 O379 1.247 . S
C386 O380 1.261 . S
C387 O382 1.259 . S
C387 O384 1.235 . S
O388 Co378 2.021 . S
O388 C385 1.238 . S
O389 Co383 2.052 . S
O389 C385 1.241 . S
O390 Co378 2.137 . S
O390 C381 1.247 . S
O391 Co378 2.244 . S
O391 C381 1.272 . S
O391 Co383 2.135 . S
Co392 O393 2.216 . S
Co392 O394 2.091 . S
Co392 O396 2.004 . S
Co392 O402 2.021 . S
Co392 O404 2.137 . S
Co392 O405 2.244 . S
O393 Co392 2.216 . S
O393 C400 1.247 . S
O394 Co392 2.091 . S
O394 C400 1.261 . S
C395 O404 1.247 . S
C395 O405 1.272 . S
O396 Co392 2.004 . S
O396 C401 1.259 . S
Co397 O398 2.061 . S
Co397 O403 2.052 . S
Co397 O405 2.135 . S
O398 Co397 2.061 . S
O398 C401 1.235 . S
C399 O402 1.238 . S
C399 O403 1.241 . S
C400 O393 1.247 . S
C400 O394 1.261 . S
C401 O396 1.259 . S
C401 O398 1.235 . S
O402 Co392 2.021 . S
O402 C399 1.238 . S
O403 Co397 2.052 . S
O403 C399 1.241 . S
O404 Co392 2.137 . S
O404 C395 1.247 . S
O405 Co392 2.244 . S
O405 C395 1.272 . S
O405 Co397 2.135 . S
Co406 O407 2.216 . S
Co406 O408 2.091 . S
Co406 O410 2.004 . S
Co406 O416 2.021 . S
Co406 O418 2.137 . S
Co406 O419 2.244 . S
O407 Co406 2.216 . S
O407 C414 1.247 . S
O408 Co406 2.091 . S
O408 C414 1.261 . S
C409 O418 1.247 . S
C409 O419 1.272 . S
O410 Co406 2.004 . S
O410 C415 1.259 . S
Co411 O412 2.061 . S
Co411 O417 2.052 . S
Co411 O419 2.135 . S
O412 Co411 2.061 . S
O412 C415 1.235 . S
C413 O416 1.238 . S
C413 O417 1.241 . S
C414 O407 1.247 . S
C414 O408 1.261 . S
C415 O410 1.259 . S
C415 O412 1.235 . S
O416 Co406 2.021 . S
O416 C413 1.238 . S
O417 Co411 2.052 . S
O417 C413 1.241 . S
O418 Co406 2.137 . S
O418 C409 1.247 . S
O419 Co406 2.244 . S
O419 C409 1.272 . S
O419 Co411 2.135 . S
Co420 O421 2.216 . S
Co420 O422 2.091 . S
Co420 O424 2.004 . S
Co420 O430 2.021 . S
Co420 O432 2.137 . S
Co420 O433 2.244 . S
O421 Co420 2.216 . S
O421 C428 1.247 . S
O422 Co420 2.091 . S
O422 C428 1.261 . S
C423 O432 1.247 . S
C423 O433 1.272 . S
O424 Co420 2.004 . S
O424 C429 1.259 . S
Co425 O426 2.061 . S
Co425 O431 2.052 . S
Co425 O433 2.135 . S
O426 Co425 2.061 . S
O426 C429 1.235 . S
C427 O430 1.238 . S
C427 O431 1.241 . S
C428 O421 1.247 . S
C428 O422 1.261 . S
C429 O424 1.259 . S
C429 O426 1.235 . S
O430 Co420 2.021 . S
O430 C427 1.238 . S
O431 Co425 2.052 . S
O431 C427 1.241 . S
O432 Co420 2.137 . S
O432 C423 1.247 . S
O433 Co420 2.244 . S
O433 C423 1.272 . S
O433 Co425 2.135 . S
Co434 O435 2.216 . S
Co434 O436 2.091 . S
Co434 O438 2.004 . S
Co434 O444 2.021 . S
Co434 O446 2.137 . S
Co434 O447 2.244 . S
O435 Co434 2.216 . S
O435 C442 1.247 . S
O436 Co434 2.091 . S
O436 C442 1.261 . S
C437 O446 1.247 . S
C437 O447 1.272 . S
O438 Co434 2.004 . S
O438 C443 1.259 . S
Co439 O440 2.061 . S
Co439 O445 2.052 . S
Co439 O447 2.135 . S
O440 Co439 2.061 . S
O440 C443 1.235 . S
C441 O444 1.238 . S
C441 O445 1.241 . S
C442 O435 1.247 . S
C442 O436 1.261 . S
C443 O438 1.259 . S
C443 O440 1.235 . S
O444 Co434 2.021 . S
O444 C441 1.238 . S
O445 Co439 2.052 . S
O445 C441 1.241 . S
O446 Co434 2.137 . S
O446 C437 1.247 . S
O447 Co434 2.244 . S
O447 C437 1.272 . S
O447 Co439 2.135 . S
H448 C466 0.951 . S
H449 C468 0.951 . S
H450 C470 0.950 . S
H451 C471 0.950 . S
H452 C473 0.959 . S
H453 C476 0.950 1_455 S
H454 C477 0.950 1_465 S
H455 C479 0.950 . S
H456 C480 0.950 . S
H457 C481 0.951 . S
H458 C483 0.951 . S
H459 C485 0.950 . S
H460 C486 0.950 . S
H461 C488 0.950 . S
H462 C491 0.950 1_655 S
H463 C492 0.950 . S
H464 C494 0.950 . S
H465 C495 0.950 . S
C466 H448 0.951 . S
C466 C467 1.366 . S
C466 C468 1.388 . S
C467 C466 1.366 . S
C467 C471 1.385 . S
C468 H449 0.951 . S
C468 C466 1.388 . S
C468 C469 1.366 . S
C469 C468 1.366 . S
C469 C470 1.414 . S
C469 C472 1.499 . S
C470 H450 0.950 . S
C470 C469 1.414 . S
C470 C471 1.374 . S
C471 H451 0.950 . S
C471 C467 1.385 . S
C471 C470 1.374 . S
C472 C469 1.499 . S
C472 C473 1.382 1_554 S
C472 C474 1.389 1_455 S
C473 H452 0.959 . S
C473 C472 1.382 1_556 S
C473 C489 1.361 1_545 S
C474 C472 1.389 1_655 S
C474 C475 1.524 . S
C474 C488 1.377 1_545 S
C475 C474 1.524 . S
C475 C476 1.397 1_545 S
C475 C480 1.363 . S
C476 H453 0.950 1_655 S
C476 C475 1.397 1_565 S
C476 C477 1.334 1_565 S
C477 H454 0.950 1_645 S
C477 C476 1.334 1_545 S
C477 C478 1.287 . S
C478 C477 1.287 . S
C478 C479 1.524 . S
C478 H497 0.913 . S
C479 H455 0.950 . S
C479 C478 1.524 . S
C479 C480 1.415 . S
C480 H456 0.950 . S
C480 C475 1.363 . S
C480 C479 1.415 . S
C481 H457 0.951 . S
C481 C482 1.366 . S
C481 C483 1.388 . S
C482 C481 1.366 . S
C482 C486 1.385 . S
C483 H458 0.951 . S
C483 C481 1.388 . S
C483 C484 1.366 . S
C484 C483 1.366 . S
C484 C485 1.414 . S
C484 C487 1.499 . S
C485 H459 0.950 . S
C485 C484 1.414 . S
C485 C486 1.374 . S
C486 H460 0.950 . S
C486 C482 1.385 . S
C486 C485 1.374 . S
C487 C484 1.499 . S
C487 C488 1.373 1_556 S
C487 C489 1.389 1_655 S
C488 H461 0.950 . S
C488 C474 1.377 1_565 S
C488 C487 1.373 1_554 S
C489 C473 1.361 1_565 S
C489 C487 1.389 1_455 S
C489 C490 1.524 . S
C490 C489 1.524 . S
C490 C491 1.397 . S
C490 C495 1.363 . S
C491 H462 0.950 1_455 S
C491 C490 1.397 . S
C491 C492 1.334 . S
C492 H463 0.950 . S
C492 C491 1.334 . S
C492 C493 1.287 . S
C493 C492 1.287 . S
C493 C494 1.524 . S
C493 H496 0.999 . S
C494 H464 0.950 . S
C494 C493 1.524 . S
C494 C495 1.415 . S
C495 H465 0.950 . S
C495 C490 1.363 . S
C495 C494 1.415 . S
H496 C493 0.999 . S
H497 C478 0.913 . S
H498 C516 0.951 . S
H499 C518 0.951 . S
H500 C520 0.950 . S
H501 C521 0.950 . S
H502 C523 0.950 . S
H503 C526 0.950 . S
H504 C527 0.950 . S
H505 C529 0.950 . S
H506 C530 0.950 . S
H507 C531 0.951 . S
H508 C533 0.951 . S
H509 C535 0.950 . S
H510 C536 0.950 . S
H511 C538 0.950 . S
H512 C541 0.950 . S
H513 C542 0.950 . S
H514 C544 0.950 . S
H515 C545 0.950 . S
C516 H498 0.951 . S
C516 C517 1.366 . S
C516 C518 1.388 . S
C517 C516 1.366 . S
C517 C521 1.385 . S
C518 H499 0.951 . S
C518 C516 1.388 . S
C518 C519 1.366 . S
C519 C518 1.366 . S
C519 C520 1.414 . S
C519 C522 1.499 . S
C520 H500 0.950 . S
C520 C519 1.414 . S
C520 C521 1.374 . S
C521 H501 0.950 . S
C521 C517 1.385 . S
C521 C520 1.374 . S
C522 C519 1.499 . S
C522 C523 1.373 . S
C522 C524 1.389 . S
C523 H502 0.950 . S
C523 C522 1.373 . S
C523 C539 1.377 . S
C524 C522 1.389 . S
C524 C525 1.524 . S
C524 C538 1.377 . S
C525 C524 1.524 . S
C525 C526 1.397 . S
C525 C530 1.363 . S
C526 H503 0.950 . S
C526 C525 1.397 . S
C526 C527 1.334 . S
C527 H504 0.950 . S
C527 C526 1.334 . S
C527 C528 1.287 . S
C528 C527 1.287 . S
C528 C529 1.524 . S
C528 H547 0.913 . S
C529 H505 0.950 . S
C529 C528 1.524 . S
C529 C530 1.415 . S
C530 H506 0.950 . S
C530 C525 1.363 . S
C530 C529 1.415 . S
C531 H507 0.951 . S
C531 C532 1.366 . S
C531 C533 1.388 . S
C532 C531 1.366 . S
C532 C536 1.385 . S
C533 H508 0.951 . S
C533 C531 1.388 . S
C533 C534 1.366 . S
C534 C533 1.366 . S
C534 C535 1.414 . S
C534 C537 1.499 . S
C535 H509 0.950 . S
C535 C534 1.414 . S
C535 C536 1.374 . S
C536 H510 0.950 . S
C536 C532 1.385 . S
C536 C535 1.374 . S
C537 C534 1.499 . S
C537 C538 1.373 . S
C537 C539 1.389 . S
C538 H511 0.950 . S
C538 C524 1.377 . S
C538 C537 1.373 . S
C539 C523 1.377 . S
C539 C537 1.389 . S
C539 C540 1.524 . S
C540 C539 1.524 . S
C540 C541 1.397 . S
C540 C545 1.363 . S
C541 H512 0.950 . S
C541 C540 1.397 . S
C541 C542 1.334 . S
C542 H513 0.950 . S
C542 C541 1.334 . S
C542 C543 1.287 . S
C543 C542 1.287 . S
C543 C544 1.524 . S
C543 H546 0.999 . S
C544 H514 0.950 . S
C544 C543 1.524 . S
C544 C545 1.415 . S
C545 H515 0.950 . S
C545 C540 1.363 . S
C545 C544 1.415 . S
H546 C543 0.999 . S
H547 C528 0.913 . S
H548 C566 0.951 . S
H549 C568 0.951 . S
H550 C570 0.950 . S
H551 C571 0.950 . S
H552 C573 0.950 . S
H553 C576 0.950 . S
H554 C577 0.950 . S
H555 C579 0.950 . S
H556 C580 0.950 . S
H557 C581 0.951 . S
H558 C583 0.951 . S
H559 C585 0.950 . S
H560 C586 0.950 . S
H561 C588 0.950 . S
H562 C591 0.950 . S
H563 C592 0.950 . S
H564 C594 0.950 . S
H565 C595 0.950 . S
C566 H548 0.951 . S
C566 C567 1.366 . S
C566 C568 1.388 . S
C567 C566 1.366 . S
C567 C571 1.385 . S
C568 H549 0.951 . S
C568 C566 1.388 . S
C568 C569 1.366 . S
C569 C568 1.366 . S
C569 C570 1.414 . S
C569 C572 1.499 . S
C570 H550 0.950 . S
C570 C569 1.414 . S
C570 C571 1.374 . S
C571 H551 0.950 . S
C571 C567 1.385 . S
C571 C570 1.374 . S
C572 C569 1.499 . S
C572 C573 1.373 . S
C572 C574 1.389 . S
C573 H552 0.950 . S
C573 C572 1.373 . S
C573 C589 1.377 1_565 S
C574 C572 1.389 . S
C574 C575 1.524 . S
C574 C588 1.377 1_565 S
C575 C574 1.524 . S
C575 C576 1.397 . S
C575 C580 1.363 . S
C576 H553 0.950 . S
C576 C575 1.397 . S
C576 C577 1.334 . S
C577 H554 0.950 . S
C577 C576 1.334 . S
C577 C578 1.287 . S
C578 C577 1.287 . S
C578 C579 1.524 . S
C578 H597 0.913 . S
C579 H555 0.950 . S
C579 C578 1.524 . S
C579 C580 1.415 . S
C580 H556 0.950 . S
C580 C575 1.363 . S
C580 C579 1.415 . S
C581 H557 0.951 . S
C581 C582 1.366 . S
C581 C583 1.388 . S
C582 C581 1.366 . S
C582 C586 1.385 . S
C583 H558 0.951 . S
C583 C581 1.388 . S
C583 C584 1.366 . S
C584 C583 1.366 . S
C584 C585 1.414 . S
C584 C587 1.499 . S
C585 H559 0.950 . S
C585 C584 1.414 . S
C585 C586 1.374 . S
C586 H560 0.950 . S
C586 C582 1.385 . S
C586 C585 1.374 . S
C587 C584 1.499 . S
C587 C588 1.373 . S
C587 C589 1.389 . S
C588 H561 0.950 . S
C588 C574 1.377 1_545 S
C588 C587 1.373 . S
C589 C573 1.377 1_545 S
C589 C587 1.389 . S
C589 C590 1.524 . S
C590 C589 1.524 . S
C590 C591 1.397 . S
C590 C595 1.363 . S
C591 H562 0.950 . S
C591 C590 1.397 . S
C591 C592 1.334 . S
C592 H563 0.950 . S
C592 C591 1.334 . S
C592 C593 1.287 . S
C593 C592 1.287 . S
C593 C594 1.524 . S
C593 H596 0.999 . S
C594 H564 0.950 . S
C594 C593 1.524 . S
C594 C595 1.415 . S
C595 H565 0.950 . S
C595 C590 1.363 . S
C595 C594 1.415 . S
H596 C593 0.999 . S
H597 C578 0.913 . S
H598 C616 0.951 . S
H599 C618 0.951 . S
H600 C620 0.950 . S
H601 C621 0.950 . S
H602 C623 0.950 . S
H603 C626 0.950 . S
H604 C627 0.950 . S
H605 C629 0.950 . S
H606 C630 0.950 . S
H607 C631 0.951 . S
H608 C633 0.951 . S
H609 C635 0.950 . S
H610 C636 0.950 . S
H611 C638 0.950 . S
H612 C641 0.950 . S
H613 C642 0.950 . S
H614 C644 0.950 . S
H615 C645 0.950 . S
C616 H598 0.951 . S
C616 C617 1.366 . S
C616 C618 1.388 . S
C617 C616 1.366 . S
C617 C621 1.385 . S
C618 H599 0.951 . S
C618 C616 1.388 . S
C618 C619 1.366 . S
C619 C618 1.366 . S
C619 C620 1.414 . S
C619 C622 1.499 . S
C620 H600 0.950 . S
C620 C619 1.414 . S
C620 C621 1.374 . S
C621 H601 0.950 . S
C621 C617 1.385 . S
C621 C620 1.374 . S
C622 C619 1.499 . S
C622 C623 1.373 . S
C622 C624 1.389 . S
C623 H602 0.950 . S
C623 C622 1.373 . S
C623 C639 1.377 . S
C624 C622 1.389 . S
C624 C625 1.524 . S
C624 C638 1.377 . S
C625 C624 1.524 . S
C625 C626 1.397 . S
C625 C630 1.363 . S
C626 H603 0.950 . S
C626 C625 1.397 . S
C626 C627 1.334 . S
C627 H604 0.950 . S
C627 C626 1.334 . S
C627 C628 1.287 . S
C628 C627 1.287 . S
C628 C629 1.524 . S
C628 H647 0.913 . S
C629 H605 0.950 . S
C629 C628 1.524 . S
C629 C630 1.415 . S
C630 H606 0.950 . S
C630 C625 1.363 . S
C630 C629 1.415 . S
C631 H607 0.951 . S
C631 C632 1.366 . S
C631 C633 1.388 . S
C632 C631 1.366 . S
C632 C636 1.385 . S
C633 H608 0.951 . S
C633 C631 1.388 . S
C633 C634 1.366 . S
C634 C633 1.366 . S
C634 C635 1.414 . S
C634 C637 1.499 . S
C635 H609 0.950 . S
C635 C634 1.414 . S
C635 C636 1.374 . S
C636 H610 0.950 . S
C636 C632 1.385 . S
C636 C635 1.374 . S
C637 C634 1.499 . S
C637 C638 1.373 . S
C637 C639 1.389 . S
C638 H611 0.950 . S
C638 C624 1.377 . S
C638 C637 1.373 . S
C639 C623 1.377 . S
C639 C637 1.389 . S
C639 C640 1.524 . S
C640 C639 1.524 . S
C640 C641 1.397 . S
C640 C645 1.363 . S
C641 H612 0.950 . S
C641 C640 1.397 . S
C641 C642 1.334 . S
C642 H613 0.950 . S
C642 C641 1.334 . S
C642 C643 1.287 . S
C643 C642 1.287 . S
C643 C644 1.524 . S
C643 H646 0.999 . S
C644 H614 0.950 . S
C644 C643 1.524 . S
C644 C645 1.415 . S
C645 H615 0.950 . S
C645 C640 1.363 . S
C645 C644 1.415 . S
H646 C643 0.999 . S
H647 C628 0.913 . S
H648 C666 0.951 . S
H649 C668 0.951 . S
H650 C670 0.950 . S
H651 C671 0.950 . S
H652 C673 0.950 . S
H653 C676 0.950 . S
H654 C677 0.950 . S
H655 C679 0.950 . S
H656 C680 0.950 . S
H657 C681 0.951 . S
H658 C683 0.951 . S
H659 C685 0.950 . S
H660 C686 0.950 . S
H661 C688 0.950 . S
H662 C691 0.950 . S
H663 C692 0.950 . S
H664 C694 0.950 . S
H665 C695 0.950 . S
C666 H648 0.951 . S
C666 C667 1.366 . S
C666 C668 1.388 . S
C667 C666 1.366 . S
C667 C671 1.385 . S
C668 H649 0.951 . S
C668 C666 1.388 . S
C668 C669 1.366 . S
C669 C668 1.366 . S
C669 C670 1.414 . S
C669 C672 1.499 . S
C670 H650 0.950 . S
C670 C669 1.414 . S
C670 C671 1.374 . S
C671 H651 0.950 . S
C671 C667 1.385 . S
C671 C670 1.374 . S
C672 C669 1.499 . S
C672 C673 1.373 1_565 S
C672 C674 1.389 1_455 S
C673 H652 0.950 . S
C673 C672 1.373 1_545 S
C673 C689 1.377 . S
C674 C672 1.389 1_655 S
C674 C675 1.524 . S
C674 C688 1.377 . S
C675 C674 1.524 . S
C675 C676 1.397 . S
C675 C680 1.363 . S
C676 H653 0.950 . S
C676 C675 1.397 . S
C676 C677 1.334 . S
C677 H654 0.950 . S
C677 C676 1.334 . S
C677 C678 1.287 . S
C678 C677 1.287 . S
C678 C679 1.524 . S
C678 H697 0.913 . S
C679 H655 0.950 . S
C679 C678 1.524 . S
C679 C680 1.415 . S
C680 H656 0.950 . S
C680 C675 1.363 . S
C680 C679 1.415 . S
C681 H657 0.951 . S
C681 C682 1.366 . S
C681 C683 1.388 . S
C682 C681 1.366 . S
C682 C686 1.385 . S
C683 H658 0.951 . S
C683 C681 1.388 . S
C683 C684 1.366 . S
C684 C683 1.366 . S
C684 C685 1.414 . S
C684 C687 1.499 . S
C685 H659 0.950 . S
C685 C684 1.414 . S
C685 C686 1.374 . S
C686 H660 0.950 . S
C686 C682 1.385 . S
C686 C685 1.374 . S
C687 C684 1.499 . S
C687 C688 1.373 1_545 S
C687 C689 1.389 1_655 S
C688 H661 0.950 . S
C688 C674 1.377 . S
C688 C687 1.373 1_565 S
C689 C673 1.377 . S
C689 C687 1.389 1_455 S
C689 C690 1.524 . S
C690 C689 1.524 . S
C690 C691 1.397 . S
C690 C695 1.363 . S
C691 H662 0.950 . S
C691 C690 1.397 . S
C691 C692 1.334 . S
C692 H663 0.950 . S
C692 C691 1.334 . S
C692 C693 1.287 . S
C693 C692 1.287 . S
C693 C694 1.524 . S
C693 H696 0.999 . S
C694 H664 0.950 . S
C694 C693 1.524 . S
C694 C695 1.415 . S
C695 H665 0.950 . S
C695 C690 1.363 . S
C695 C694 1.415 . S
H696 C693 0.999 . S
H697 C678 0.913 . S
H698 C716 0.951 . S
H699 C718 0.951 . S
H700 C720 0.950 . S
H701 C721 0.950 . S
H702 C723 0.950 . S
H703 C726 0.950 . S
H704 C727 0.950 . S
H705 C729 0.950 . S
H706 C730 0.950 . S
H707 C731 0.951 . S
H708 C733 0.951 . S
H709 C735 0.950 . S
H710 C736 0.950 . S
H711 C738 0.950 . S
H712 C741 0.950 . S
H713 C742 0.950 . S
H714 C744 0.950 . S
H715 C745 0.950 . S
C716 H698 0.951 . S
C716 C717 1.366 . S
C716 C718 1.388 . S
C717 C716 1.366 . S
C717 C721 1.385 . S
C718 H699 0.951 . S
C718 C716 1.388 . S
C718 C719 1.366 . S
C719 C718 1.366 . S
C719 C720 1.414 . S
C719 C722 1.499 . S
C720 H700 0.950 . S
C720 C719 1.414 . S
C720 C721 1.374 . S
C721 H701 0.950 . S
C721 C717 1.385 . S
C721 C720 1.374 . S
C722 C719 1.499 . S
C722 C723 1.373 . S
C722 C724 1.389 . S
C723 H702 0.950 . S
C723 C722 1.373 . S
C723 C739 1.377 . S
C724 C722 1.389 . S
C724 C725 1.524 . S
C724 C738 1.377 . S
C725 C724 1.524 . S
C725 C726 1.397 . S
C725 C730 1.363 . S
C726 H703 0.950 . S
C726 C725 1.397 . S
C726 C727 1.334 . S
C727 H704 0.950 . S
C727 C726 1.334 . S
C727 C728 1.287 . S
C728 C727 1.287 . S
C728 C729 1.524 . S
C728 H747 0.913 . S
C729 H705 0.950 . S
C729 C728 1.524 . S
C729 C730 1.415 . S
C730 H706 0.950 . S
C730 C725 1.363 . S
C730 C729 1.415 . S
C731 H707 0.951 . S
C731 C732 1.366 . S
C731 C733 1.388 . S
C732 C731 1.366 . S
C732 C736 1.385 . S
C733 H708 0.951 . S
C733 C731 1.388 . S
C733 C734 1.366 . S
C734 C733 1.366 . S
C734 C735 1.414 . S
C734 C737 1.499 . S
C735 H709 0.950 . S
C735 C734 1.414 . S
C735 C736 1.374 . S
C736 H710 0.950 . S
C736 C732 1.385 . S
C736 C735 1.374 . S
C737 C734 1.499 . S
C737 C738 1.373 . S
C737 C739 1.389 . S
C738 H711 0.950 . S
C738 C724 1.377 . S
C738 C737 1.373 . S
C739 C723 1.377 . S
C739 C737 1.389 . S
C739 C740 1.524 . S
C740 C739 1.524 . S
C740 C741 1.397 . S
C740 C745 1.363 . S
C741 H712 0.950 . S
C741 C740 1.397 . S
C741 C742 1.334 . S
C742 H713 0.950 . S
C742 C741 1.334 . S
C742 C743 1.287 . S
C743 C742 1.287 . S
C743 C744 1.524 . S
C743 H746 0.999 . S
C744 H714 0.950 . S
C744 C743 1.524 . S
C744 C745 1.415 . S
C745 H715 0.950 . S
C745 C740 1.363 . S
C745 C744 1.415 . S
H746 C743 0.999 . S
H747 C728 0.913 . S
H748 C766 0.951 . S
H749 C768 0.951 . S
H750 C770 0.950 . S
H751 C771 0.950 . S
H752 C773 0.950 . S
H753 C776 0.950 . S
H754 C777 0.950 . S
H755 C779 0.950 . S
H756 C780 0.950 . S
H757 C781 0.951 . S
H758 C783 0.951 . S
H759 C785 0.950 . S
H760 C786 0.950 . S
H761 C788 0.950 . S
H762 C791 0.950 . S
H763 C792 0.950 . S
H764 C794 0.950 . S
H765 C795 0.950 . S
C766 H748 0.951 . S
C766 C767 1.366 . S
C766 C768 1.388 . S
C767 C766 1.366 . S
C767 C771 1.385 . S
C768 H749 0.951 . S
C768 C766 1.388 . S
C768 C769 1.366 . S
C769 C768 1.366 . S
C769 C770 1.414 . S
C769 C772 1.499 . S
C770 H750 0.950 . S
C770 C769 1.414 . S
C770 C771 1.374 . S
C771 H751 0.950 . S
C771 C767 1.385 . S
C771 C770 1.374 . S
C772 C769 1.499 . S
C772 C773 1.373 1_556 S
C772 C774 1.389 . S
C773 H752 0.950 . S
C773 C772 1.373 1_554 S
C773 C789 1.377 1_545 S
C774 C772 1.389 . S
C774 C775 1.524 . S
C774 C788 1.377 1_545 S
C775 C774 1.524 . S
C775 C776 1.397 1_545 S
C775 C780 1.363 . S
C776 H753 0.950 . S
C776 C775 1.397 1_565 S
C776 C777 1.334 . S
C777 H754 0.950 . S
C777 C776 1.334 . S
C777 C778 1.287 1_565 S
C778 C777 1.287 1_545 S
C778 C779 1.524 . S
C778 H797 0.913 . S
C779 H755 0.950 . S
C779 C778 1.524 . S
C779 C780 1.415 . S
C780 H756 0.950 . S
C780 C775 1.363 . S
C780 C779 1.415 . S
C781 H757 0.951 . S
C781 C782 1.366 . S
C781 C783 1.388 . S
C782 C781 1.366 . S
C782 C786 1.385 . S
C783 H758 0.951 . S
C783 C781 1.388 . S
C783 C784 1.366 . S
C784 C783 1.366 . S
C784 C785 1.414 . S
C784 C787 1.499 . S
C785 H759 0.950 . S
C785 C784 1.414 . S
C785 C786 1.374 . S
C786 H760 0.950 . S
C786 C782 1.385 . S
C786 C785 1.374 . S
C787 C784 1.499 . S
C787 C788 1.373 1_554 S
C787 C789 1.389 . S
C788 H761 0.950 . S
C788 C774 1.377 1_565 S
C788 C787 1.373 1_556 S
C789 C773 1.377 1_565 S
C789 C787 1.389 . S
C789 C790 1.524 . S
C790 C789 1.524 . S
C790 C791 1.397 1_565 S
C790 C795 1.363 . S
C791 H762 0.950 . S
C791 C790 1.397 1_545 S
C791 C792 1.334 . S
C792 H763 0.950 . S
C792 C791 1.334 . S
C792 C793 1.287 . S
C793 C792 1.287 . S
C793 C794 1.524 1_545 S
C793 H796 0.999 . S
C794 H764 0.950 . S
C794 C793 1.524 1_565 S
C794 C795 1.415 . S
C795 H765 0.950 . S
C795 C790 1.363 . S
C795 C794 1.415 . S
H796 C793 0.999 . S
H797 C778 0.913 . S
H798 C816 0.951 . S
H799 C818 0.951 . S
H800 C820 0.950 . S
H801 C821 0.950 . S
H802 C823 0.950 . S
H803 C826 0.950 . S
H804 C827 0.950 . S
H805 C829 0.950 . S
H806 C830 0.950 . S
H807 C831 0.951 . S
H808 C833 0.951 . S
H809 C835 0.950 . S
H810 C836 0.950 . S
H811 C838 0.950 . S
H812 C841 0.950 . S
H813 C842 0.950 . S
H814 C844 0.950 . S
H815 C845 0.950 . S
C816 H798 0.951 . S
C816 C817 1.366 . S
C816 C818 1.388 . S
C817 C816 1.366 . S
C817 C821 1.385 . S
C818 H799 0.951 . S
C818 C816 1.388 . S
C818 C819 1.366 . S
C819 C818 1.366 . S
C819 C820 1.414 . S
C819 C822 1.499 . S
C820 H800 0.950 . S
C820 C819 1.414 . S
C820 C821 1.374 . S
C821 H801 0.950 . S
C821 C817 1.385 . S
C821 C820 1.374 . S
C822 C819 1.499 . S
C822 C823 1.373 . S
C822 C824 1.389 . S
C823 H802 0.950 . S
C823 C822 1.373 . S
C823 C839 1.377 . S
C824 C822 1.389 . S
C824 C825 1.524 . S
C824 C838 1.377 . S
C825 C824 1.524 . S
C825 C826 1.397 . S
C825 C830 1.363 . S
C826 H803 0.950 . S
C826 C825 1.397 . S
C826 C827 1.334 . S
C827 H804 0.950 . S
C827 C826 1.334 . S
C827 C828 1.287 . S
C828 C827 1.287 . S
C828 C829 1.524 . S
C828 H847 0.913 . S
C829 H805 0.950 . S
C829 C828 1.524 . S
C829 C830 1.415 . S
C830 H806 0.950 . S
C830 C825 1.363 . S
C830 C829 1.415 . S
C831 H807 0.951 . S
C831 C832 1.366 . S
C831 C833 1.388 . S
C832 C831 1.366 . S
C832 C836 1.385 . S
C833 H808 0.951 . S
C833 C831 1.388 . S
C833 C834 1.366 . S
C834 C833 1.366 . S
C834 C835 1.414 . S
C834 C837 1.499 . S
C835 H809 0.950 . S
C835 C834 1.414 . S
C835 C836 1.374 . S
C836 H810 0.950 . S
C836 C832 1.385 . S
C836 C835 1.374 . S
C837 C834 1.499 . S
C837 C838 1.373 . S
C837 C839 1.389 . S
C838 H811 0.950 . S
C838 C824 1.377 . S
C838 C837 1.373 . S
C839 C823 1.377 . S
C839 C837 1.389 . S
C839 C840 1.524 . S
C840 C839 1.524 . S
C840 C841 1.397 . S
C840 C845 1.363 . S
C841 H812 0.950 . S
C841 C840 1.397 . S
C841 C842 1.334 . S
C842 H813 0.950 . S
C842 C841 1.334 . S
C842 C843 1.287 . S
C843 C842 1.287 . S
C843 C844 1.524 . S
C843 H846 0.999 . S
C844 H814 0.950 . S
C844 C843 1.524 . S
C844 C845 1.415 . S
C845 H815 0.950 . S
C845 C840 1.363 . S
C845 C844 1.415 . S
H846 C843 0.999 . S
H847 C828 0.913 . S
H848 C866 0.951 . S
H849 C868 0.951 . S
H850 C870 0.950 . S
H851 C871 0.950 . S
H852 C873 0.950 . S
H853 C876 0.950 1_554 S
H854 C877 0.950 . S
H855 C879 0.950 . S
H856 C880 0.950 . S
H857 C881 0.951 . S
H858 C883 0.951 . S
H859 C885 0.950 . S
H860 C886 0.950 . S
H861 C888 0.950 . S
H862 C891 0.950 1_556 S
H863 C892 0.950 . S
H864 C894 0.950 . S
H865 C895 0.950 . S
C866 H848 0.951 . S
C866 C867 1.366 . S
C866 C868 1.388 . S
C867 C866 1.366 . S
C867 C871 1.385 . S
C868 H849 0.951 . S
C868 C866 1.388 . S
C868 C869 1.366 . S
C869 C868 1.366 . S
C869 C870 1.414 . S
C869 C872 1.499 . S
C870 H850 0.950 . S
C870 C869 1.414 . S
C870 C871 1.374 . S
C871 H851 0.950 . S
C871 C867 1.385 . S
C871 C870 1.374 . S
C872 C869 1.499 . S
C872 C873 1.373 . S
C872 C874 1.389 1_554 S
C873 H852 0.950 . S
C873 C872 1.373 . S
C873 C889 1.377 . S
C874 C872 1.389 1_556 S
C874 C875 1.524 . S
C874 C888 1.377 . S
C875 C874 1.524 . S
C875 C876 1.397 . S
C875 C880 1.363 . S
C876 H853 0.950 1_556 S
C876 C875 1.397 . S
C876 C877 1.334 . S
C877 H854 0.950 . S
C877 C876 1.334 . S
C877 C878 1.287 . S
C878 C877 1.287 . S
C878 C879 1.524 . S
C878 H897 0.913 . S
C879 H855 0.950 . S
C879 C878 1.524 . S
C879 C880 1.415 . S
C880 H856 0.950 . S
C880 C875 1.363 . S
C880 C879 1.415 . S
C881 H857 0.951 . S
C881 C882 1.366 . S
C881 C883 1.388 . S
C882 C881 1.366 . S
C882 C886 1.385 . S
C883 H858 0.951 . S
C883 C881 1.388 . S
C883 C884 1.366 . S
C884 C883 1.366 . S
C884 C885 1.414 . S
C884 C887 1.499 . S
C885 H859 0.950 . S
C885 C884 1.414 . S
C885 C886 1.374 . S
C886 H860 0.950 . S
C886 C882 1.385 . S
C886 C885 1.374 . S
C887 C884 1.499 . S
C887 C888 1.373 . S
C887 C889 1.389 1_556 S
C888 H861 0.950 . S
C888 C874 1.377 . S
C888 C887 1.373 . S
C889 C873 1.377 . S
C889 C887 1.389 1_554 S
C889 C890 1.524 . S
C890 C889 1.524 . S
C890 C891 1.397 . S
C890 C895 1.363 . S
C891 H862 0.950 1_554 S
C891 C890 1.397 . S
C891 C892 1.334 . S
C892 H863 0.950 . S
C892 C891 1.334 . S
C892 C893 1.287 . S
C893 C892 1.287 . S
C893 C894 1.524 . S
C893 H896 0.999 . S
C894 H864 0.950 . S
C894 C893 1.524 . S
C894 C895 1.415 . S
C895 H865 0.950 . S
C895 C890 1.363 . S
C895 C894 1.415 . S
H896 C893 0.999 . S
H897 C878 0.913 . S
H898 C916 0.951 . S
H899 C918 0.951 . S
H900 C920 0.950 . S
H901 C921 0.950 . S
H902 C923 0.950 . S
H903 C926 0.950 . S
H904 C927 0.950 . S
H905 C929 0.950 . S
H906 C930 0.950 . S
H907 C931 0.951 . S
H908 C933 0.951 . S
H909 C935 0.950 . S
H910 C936 0.950 . S
H911 C938 0.950 . S
H912 C941 0.950 . S
H913 C942 0.950 . S
H914 C944 0.950 . S
H915 C945 0.950 . S
C916 H898 0.951 . S
C916 C917 1.366 . S
C916 C918 1.388 . S
C917 C916 1.366 . S
C917 C921 1.385 . S
C918 H899 0.951 . S
C918 C916 1.388 . S
C918 C919 1.366 . S
C919 C918 1.366 . S
C919 C920 1.414 . S
C919 C922 1.499 . S
C920 H900 0.950 . S
C920 C919 1.414 . S
C920 C921 1.374 . S
C921 H901 0.950 . S
C921 C917 1.385 . S
C921 C920 1.374 . S
C922 C919 1.499 . S
C922 C923 1.373 . S
C922 C924 1.389 . S
C923 H902 0.950 . S
C923 C922 1.373 . S
C923 C939 1.377 . S
C924 C922 1.389 . S
C924 C925 1.524 . S
C924 C938 1.377 . S
C925 C924 1.524 . S
C925 C926 1.397 . S
C925 C930 1.363 . S
C926 H903 0.950 . S
C926 C925 1.397 . S
C926 C927 1.334 . S
C927 H904 0.950 . S
C927 C926 1.334 . S
C927 C928 1.287 . S
C928 C927 1.287 . S
C928 C929 1.524 . S
C928 H947 0.913 . S
C929 H905 0.950 . S
C929 C928 1.524 . S
C929 C930 1.415 . S
C930 H906 0.950 . S
C930 C925 1.363 . S
C930 C929 1.415 . S
C931 H907 0.951 . S
C931 C932 1.366 . S
C931 C933 1.388 . S
C932 C931 1.366 . S
C932 C936 1.385 . S
C933 H908 0.951 . S
C933 C931 1.388 . S
C933 C934 1.366 . S
C934 C933 1.366 . S
C934 C935 1.414 . S
C934 C937 1.499 . S
C935 H909 0.950 . S
C935 C934 1.414 . S
C935 C936 1.374 . S
C936 H910 0.950 . S
C936 C932 1.385 . S
C936 C935 1.374 . S
C937 C934 1.499 . S
C937 C938 1.373 . S
C937 C939 1.389 . S
C938 H911 0.950 . S
C938 C924 1.377 . S
C938 C937 1.373 . S
C939 C923 1.377 . S
C939 C937 1.389 . S
C939 C940 1.524 . S
C940 C939 1.524 . S
C940 C941 1.397 . S
C940 C945 1.363 . S
C941 H912 0.950 . S
C941 C940 1.397 . S
C941 C942 1.334 . S
C942 H913 0.950 . S
C942 C941 1.334 . S
C942 C943 1.287 . S
C943 C942 1.287 . S
C943 C944 1.524 . S
C943 H946 0.999 . S
C944 H914 0.950 . S
C944 C943 1.524 . S
C944 C945 1.415 . S
C945 H915 0.950 . S
C945 C940 1.363 . S
C945 C944 1.415 . S
H946 C943 0.999 . S
H947 C928 0.913 . S
H948 C966 0.951 . S
H949 C968 0.951 . S
H950 C970 0.950 . S
H951 C971 0.950 . S
H952 C973 0.950 . S
H953 C976 0.950 . S
H954 C977 0.950 . S
H955 C979 0.950 . S
H956 C980 0.950 . S
H957 C981 0.951 . S
H958 C983 0.951 . S
H959 C985 0.950 . S
H960 C986 0.950 . S
H961 C988 0.950 . S
H962 C991 0.950 1_655 S
H963 C992 0.950 . S
H964 C994 0.950 . S
H965 C995 0.950 . S
C966 H948 0.951 . S
C966 C967 1.366 . S
C966 C968 1.388 . S
C967 C966 1.366 . S
C967 C971 1.385 . S
C968 H949 0.951 . S
C968 C966 1.388 . S
C968 C969 1.366 . S
C969 C968 1.366 . S
C969 C970 1.414 . S
C969 C972 1.499 . S
C970 H950 0.950 . S
C970 C969 1.414 . S
C970 C971 1.374 . S
C971 H951 0.950 . S
C971 C967 1.385 . S
C971 C970 1.374 . S
C972 C969 1.499 . S
C972 C973 1.373 . S
C972 C974 1.389 1_455 S
C973 H952 0.950 . S
C973 C972 1.373 . S
C973 C989 1.377 . S
C974 C972 1.389 1_655 S
C974 C975 1.524 . S
C974 C988 1.377 . S
C975 C974 1.524 . S
C975 C976 1.397 . S
C975 C980 1.363 . S
C976 H953 0.950 . S
C976 C975 1.397 . S
C976 C977 1.334 . S
C977 H954 0.950 . S
C977 C976 1.334 . S
C977 C978 1.287 . S
C978 C977 1.287 . S
C978 C979 1.524 . S
C978 H997 0.913 . S
C979 H955 0.950 . S
C979 C978 1.524 . S
C979 C980 1.415 . S
C980 H956 0.950 . S
C980 C975 1.363 . S
C980 C979 1.415 . S
C981 H957 0.951 . S
C981 C982 1.366 . S
C981 C983 1.388 . S
C982 C981 1.366 . S
C982 C986 1.385 . S
C983 H958 0.951 . S
C983 C981 1.388 . S
C983 C984 1.366 . S
C984 C983 1.366 . S
C984 C985 1.414 . S
C984 C987 1.499 . S
C985 H959 0.950 . S
C985 C984 1.414 . S
C985 C986 1.374 . S
C986 H960 0.950 . S
C986 C982 1.385 . S
C986 C985 1.374 . S
C987 C984 1.499 . S
C987 C988 1.373 . S
C987 C989 1.389 1_655 S
C988 H961 0.950 . S
C988 C974 1.377 . S
C988 C987 1.373 . S
C989 C973 1.377 . S
C989 C987 1.389 1_455 S
C989 C990 1.524 . S
C990 C989 1.524 . S
C990 C991 1.397 . S
C990 C995 1.363 . S
C991 H962 0.950 1_455 S
C991 C990 1.397 . S
C991 C992 1.334 . S
C992 H963 0.950 . S
C992 C991 1.334 . S
C992 C993 1.287 . S
C993 C992 1.287 . S
C993 C994 1.524 . S
C993 H996 0.999 . S
C994 H964 0.950 . S
C994 C993 1.524 . S
C994 C995 1.415 . S
C995 H965 0.950 . S
C995 C990 1.363 . S
C995 C994 1.415 . S
H996 C993 0.999 . S
H997 C978 0.913 . S
H998 C1016 0.951 . S
H999 C1018 0.951 . S
H1000 C1020 0.950 . S
H1001 C1021 0.950 . S
H1002 C1023 0.950 . S
H1003 C1026 0.950 . S
H1004 C1027 0.950 . S
H1005 C1029 0.950 . S
H1006 C1030 0.950 . S
H1007 C1031 0.951 . S
H1008 C1033 0.951 . S
H1009 C1035 0.950 . S
H1010 C1036 0.950 . S
H1011 C1038 0.950 . S
H1012 C1041 0.950 . S
H1013 C1042 0.950 . S
H1014 C1044 0.950 . S
H1015 C1045 0.950 . S
C1016 H998 0.951 . S
C1016 C1017 1.366 . S
C1016 C1018 1.388 . S
C1017 C1016 1.366 . S
C1017 C1021 1.385 . S
C1018 H999 0.951 . S
C1018 C1016 1.388 . S
C1018 C1019 1.366 . S
C1019 C1018 1.366 . S
C1019 C1020 1.414 . S
C1019 C1022 1.499 . S
C1020 H1000 0.950 . S
C1020 C1019 1.414 . S
C1020 C1021 1.374 . S
C1021 H1001 0.950 . S
C1021 C1017 1.385 . S
C1021 C1020 1.374 . S
C1022 C1019 1.499 . S
C1022 C1023 1.373 . S
C1022 C1024 1.389 . S
C1023 H1002 0.950 . S
C1023 C1022 1.373 . S
C1023 C1039 1.377 . S
C1024 C1022 1.389 . S
C1024 C1025 1.524 . S
C1024 C1038 1.377 . S
C1025 C1024 1.524 . S
C1025 C1026 1.397 . S
C1025 C1030 1.363 . S
C1026 H1003 0.950 . S
C1026 C1025 1.397 . S
C1026 C1027 1.334 . S
C1027 H1004 0.950 . S
C1027 C1026 1.334 . S
C1027 C1028 1.287 . S
C1028 C1027 1.287 . S
C1028 C1029 1.524 . S
C1028 H1047 0.913 . S
C1029 H1005 0.950 . S
C1029 C1028 1.524 . S
C1029 C1030 1.415 . S
C1030 H1006 0.950 . S
C1030 C1025 1.363 . S
C1030 C1029 1.415 . S
C1031 H1007 0.951 . S
C1031 C1032 1.366 . S
C1031 C1033 1.388 . S
C1032 C1031 1.366 . S
C1032 C1036 1.385 . S
C1033 H1008 0.951 . S
C1033 C1031 1.388 . S
C1033 C1034 1.366 . S
C1034 C1033 1.366 . S
C1034 C1035 1.414 . S
C1034 C1037 1.499 . S
C1035 H1009 0.950 . S
C1035 C1034 1.414 . S
C1035 C1036 1.374 . S
C1036 H1010 0.950 . S
C1036 C1032 1.385 . S
C1036 C1035 1.374 . S
C1037 C1034 1.499 . S
C1037 C1038 1.373 . S
C1037 C1039 1.389 . S
C1038 H1011 0.950 . S
C1038 C1024 1.377 . S
C1038 C1037 1.373 . S
C1039 C1023 1.377 . S
C1039 C1037 1.389 . S
C1039 C1040 1.524 . S
C1040 C1039 1.524 . S
C1040 C1041 1.397 . S
C1040 C1045 1.363 . S
C1041 H1012 0.950 . S
C1041 C1040 1.397 . S
C1041 C1042 1.334 . S
C1042 H1013 0.950 . S
C1042 C1041 1.334 . S
C1042 C1043 1.287 . S
C1043 C1042 1.287 . S
C1043 C1044 1.524 . S
C1043 H1046 0.999 . S
C1044 H1014 0.950 . S
C1044 C1043 1.524 . S
C1044 C1045 1.415 . S
C1045 H1015 0.950 . S
C1045 C1040 1.363 . S
C1045 C1044 1.415 . S
H1046 C1043 0.999 . S
H1047 C1028 0.913 . S
H1048 C1066 0.951 . S
H1049 C1068 0.951 . S
H1050 C1070 0.950 . S
H1051 C1071 0.950 . S
H1052 C1073 0.950 . S
H1053 C1076 0.950 . S
H1054 C1077 0.950 . S
H1055 C1079 0.950 . S
H1056 C1080 0.950 . S
H1057 C1081 0.951 . S
H1058 C1083 0.951 . S
H1059 C1085 0.950 . S
H1060 C1086 0.950 . S
H1061 C1088 0.950 . S
H1062 C1091 0.950 . S
H1063 C1092 0.950 . S
H1064 C1094 0.950 . S
H1065 C1095 0.950 . S
C1066 H1048 0.951 . S
C1066 C1067 1.366 . S
C1066 C1068 1.388 . S
C1067 C1066 1.366 . S
C1067 C1071 1.385 . S
C1068 H1049 0.951 . S
C1068 C1066 1.388 . S
C1068 C1069 1.366 . S
C1069 C1068 1.366 . S
C1069 C1070 1.414 . S
C1069 C1072 1.499 . S
C1070 H1050 0.950 . S
C1070 C1069 1.414 . S
C1070 C1071 1.374 . S
C1071 H1051 0.950 . S
C1071 C1067 1.385 . S
C1071 C1070 1.374 . S
C1072 C1069 1.499 . S
C1072 C1073 1.373 . S
C1072 C1074 1.389 . S
C1073 H1052 0.950 . S
C1073 C1072 1.373 . S
C1073 C1089 1.377 . S
C1074 C1072 1.389 . S
C1074 C1075 1.524 . S
C1074 C1088 1.377 . S
C1075 C1074 1.524 . S
C1075 C1076 1.397 . S
C1075 C1080 1.363 . S
C1076 H1053 0.950 . S
C1076 C1075 1.397 . S
C1076 C1077 1.334 . S
C1077 H1054 0.950 . S
C1077 C1076 1.334 . S
C1077 C1078 1.287 . S
C1078 C1077 1.287 . S
C1078 C1079 1.524 . S
C1078 H1097 0.913 . S
C1079 H1055 0.950 . S
C1079 C1078 1.524 . S
C1079 C1080 1.415 . S
C1080 H1056 0.950 . S
C1080 C1075 1.363 . S
C1080 C1079 1.415 . S
C1081 H1057 0.951 . S
C1081 C1082 1.366 . S
C1081 C1083 1.388 . S
C1082 C1081 1.366 . S
C1082 C1086 1.385 . S
C1083 H1058 0.951 . S
C1083 C1081 1.388 . S
C1083 C1084 1.366 . S
C1084 C1083 1.366 . S
C1084 C1085 1.414 . S
C1084 C1087 1.499 . S
C1085 H1059 0.950 . S
C1085 C1084 1.414 . S
C1085 C1086 1.374 . S
C1086 H1060 0.950 . S
C1086 C1082 1.385 . S
C1086 C1085 1.374 . S
C1087 C1084 1.499 . S
C1087 C1088 1.373 . S
C1087 C1089 1.389 . S
C1088 H1061 0.950 . S
C1088 C1074 1.377 . S
C1088 C1087 1.373 . S
C1089 C1073 1.377 . S
C1089 C1087 1.389 . S
C1089 C1090 1.524 . S
C1090 C1089 1.524 . S
C1090 C1091 1.397 . S
C1090 C1095 1.363 . S
C1091 H1062 0.950 . S
C1091 C1090 1.397 . S
C1091 C1092 1.334 . S
C1092 H1063 0.950 . S
C1092 C1091 1.334 . S
C1092 C1093 1.287 . S
C1093 C1092 1.287 . S
C1093 C1094 1.524 . S
C1093 H1096 0.999 . S
C1094 H1064 0.950 . S
C1094 C1093 1.524 . S
C1094 C1095 1.415 . S
C1095 H1065 0.950 . S
C1095 C1090 1.363 . S
C1095 C1094 1.415 . S
H1096 C1093 0.999 . S
H1097 C1078 0.913 . S
H1098 C1116 0.951 . S
H1099 C1118 0.951 . S
H1100 C1120 0.950 . S
H1101 C1121 0.950 . S
H1102 C1123 0.950 . S
H1103 C1126 0.950 . S
H1104 C1127 0.950 . S
H1105 C1129 0.950 . S
H1106 C1130 0.950 . S
H1107 C1131 0.951 . S
H1108 C1133 0.951 . S
H1109 C1135 0.950 . S
H1110 C1136 0.950 . S
H1111 C1138 0.950 . S
H1112 C1141 0.950 . S
H1113 C1142 0.950 . S
H1114 C1144 0.950 . S
H1115 C1145 0.950 . S
C1116 H1098 0.951 . S
C1116 C1117 1.366 . S
C1116 C1118 1.388 . S
C1117 C1116 1.366 . S
C1117 C1121 1.385 . S
C1118 H1099 0.951 . S
C1118 C1116 1.388 . S
C1118 C1119 1.366 . S
C1119 C1118 1.366 . S
C1119 C1120 1.414 . S
C1119 C1122 1.499 . S
C1120 H1100 0.950 . S
C1120 C1119 1.414 . S
C1120 C1121 1.374 . S
C1121 H1101 0.950 . S
C1121 C1117 1.385 . S
C1121 C1120 1.374 . S
C1122 C1119 1.499 . S
C1122 C1123 1.373 . S
C1122 C1124 1.389 . S
C1123 H1102 0.950 . S
C1123 C1122 1.373 . S
C1123 C1139 1.377 . S
C1124 C1122 1.389 . S
C1124 C1125 1.524 . S
C1124 C1138 1.377 . S
C1125 C1124 1.524 . S
C1125 C1126 1.397 . S
C1125 C1130 1.363 . S
C1126 H1103 0.950 . S
C1126 C1125 1.397 . S
C1126 C1127 1.334 . S
C1127 H1104 0.950 . S
C1127 C1126 1.334 . S
C1127 C1128 1.287 . S
C1128 C1127 1.287 . S
C1128 C1129 1.524 . S
C1128 H1147 0.913 . S
C1129 H1105 0.950 . S
C1129 C1128 1.524 . S
C1129 C1130 1.415 . S
C1130 H1106 0.950 . S
C1130 C1125 1.363 . S
C1130 C1129 1.415 . S
C1131 H1107 0.951 . S
C1131 C1132 1.366 . S
C1131 C1133 1.388 . S
C1132 C1131 1.366 . S
C1132 C1136 1.385 . S
C1133 H1108 0.951 . S
C1133 C1131 1.388 . S
C1133 C1134 1.366 . S
C1134 C1133 1.366 . S
C1134 C1135 1.414 . S
C1134 C1137 1.499 . S
C1135 H1109 0.950 . S
C1135 C1134 1.414 . S
C1135 C1136 1.374 . S
C1136 H1110 0.950 . S
C1136 C1132 1.385 . S
C1136 C1135 1.374 . S
C1137 C1134 1.499 . S
C1137 C1138 1.373 . S
C1137 C1139 1.389 . S
C1138 H1111 0.950 . S
C1138 C1124 1.377 . S
C1138 C1137 1.373 . S
C1139 C1123 1.377 . S
C1139 C1137 1.389 . S
C1139 C1140 1.524 . S
C1140 C1139 1.524 . S
C1140 C1141 1.397 . S
C1140 C1145 1.363 . S
C1141 H1112 0.950 . S
C1141 C1140 1.397 . S
C1141 C1142 1.334 . S
C1142 H1113 0.950 . S
C1142 C1141 1.334 . S
C1142 C1143 1.287 . S
C1143 C1142 1.287 . S
C1143 C1144 1.524 . S
C1143 H1146 0.999 . S
C1144 H1114 0.950 . S
C1144 C1143 1.524 . S
C1144 C1145 1.415 . S
C1145 H1115 0.950 . S
C1145 C1140 1.363 . S
C1145 C1144 1.415 . S
H1146 C1143 0.999 . S
H1147 C1128 0.913 . S
H1148 C1166 0.951 . S
H1149 C1168 0.951 . S
H1150 C1170 0.950 . S
H1151 C1171 0.950 . S
H1152 C1173 0.950 . S
H1153 C1176 0.950 . S
H1154 C1177 0.950 . S
H1155 C1179 0.950 . S
H1156 C1180 0.950 . S
H1157 C1181 0.951 . S
H1158 C1183 0.951 . S
H1159 C1185 0.950 . S
H1160 C1186 0.950 . S
H1161 C1188 0.950 . S
H1162 C1191 0.950 . S
H1163 C1192 0.950 . S
H1164 C1194 0.950 . S
H1165 C1195 0.950 . S
C1166 H1148 0.951 . S
C1166 C1167 1.366 . S
C1166 C1168 1.388 . S
C1167 C1166 1.366 . S
C1167 C1171 1.385 . S
C1168 H1149 0.951 . S
C1168 C1166 1.388 . S
C1168 C1169 1.366 . S
C1169 C1168 1.366 . S
C1169 C1170 1.414 . S
C1169 C1172 1.499 . S
C1170 H1150 0.950 . S
C1170 C1169 1.414 . S
C1170 C1171 1.374 . S
C1171 H1151 0.950 . S
C1171 C1167 1.385 . S
C1171 C1170 1.374 . S
C1172 C1169 1.499 . S
C1172 C1173 1.373 . S
C1172 C1174 1.389 . S
C1173 H1152 0.950 . S
C1173 C1172 1.373 . S
C1173 C1189 1.377 . S
C1174 C1172 1.389 . S
C1174 C1175 1.524 . S
C1174 C1188 1.377 . S
C1175 C1174 1.524 . S
C1175 C1176 1.397 . S
C1175 C1180 1.363 . S
C1176 H1153 0.950 . S
C1176 C1175 1.397 . S
C1176 C1177 1.334 . S
C1177 H1154 0.950 . S
C1177 C1176 1.334 . S
C1177 C1178 1.287 . S
C1178 C1177 1.287 . S
C1178 C1179 1.524 . S
C1178 H1197 0.913 . S
C1179 H1155 0.950 . S
C1179 C1178 1.524 . S
C1179 C1180 1.415 . S
C1180 H1156 0.950 . S
C1180 C1175 1.363 . S
C1180 C1179 1.415 . S
C1181 H1157 0.951 . S
C1181 C1182 1.366 . S
C1181 C1183 1.388 . S
C1182 C1181 1.366 . S
C1182 C1186 1.385 . S
C1183 H1158 0.951 . S
C1183 C1181 1.388 . S
C1183 C1184 1.366 . S
C1184 C1183 1.366 . S
C1184 C1185 1.414 . S
C1184 C1187 1.499 . S
C1185 H1159 0.950 . S
C1185 C1184 1.414 . S
C1185 C1186 1.374 . S
C1186 H1160 0.950 . S
C1186 C1182 1.385 . S
C1186 C1185 1.374 . S
C1187 C1184 1.499 . S
C1187 C1188 1.373 . S
C1187 C1189 1.389 . S
C1188 H1161 0.950 . S
C1188 C1174 1.377 . S
C1188 C1187 1.373 . S
C1189 C1173 1.377 . S
C1189 C1187 1.389 . S
C1189 C1190 1.524 . S
C1190 C1189 1.524 . S
C1190 C1191 1.397 . S
C1190 C1195 1.363 . S
C1191 H1162 0.950 . S
C1191 C1190 1.397 . S
C1191 C1192 1.334 . S
C1192 H1163 0.950 . S
C1192 C1191 1.334 . S
C1192 C1193 1.287 . S
C1193 C1192 1.287 . S
C1193 C1194 1.524 . S
C1193 H1196 0.999 . S
C1194 H1164 0.950 . S
C1194 C1193 1.524 . S
C1194 C1195 1.415 . S
C1195 H1165 0.950 . S
C1195 C1190 1.363 . S
C1195 C1194 1.415 . S
H1196 C1193 0.999 . S
H1197 C1178 0.913 . S
H1198 C1216 0.951 . S
H1199 C1218 0.951 . S
H1200 C1220 0.950 . S
H1201 C1221 0.950 . S
H1202 C1223 0.950 . S
H1203 C1226 0.950 . S
H1204 C1227 0.950 . S
H1205 C1229 0.950 . S
H1206 C1230 0.950 . S
H1207 C1231 0.951 . S
H1208 C1233 0.951 . S
H1209 C1235 0.948 1_556 S
H1210 C1236 0.950 . S
H1211 C1238 0.950 . S
H1212 C1241 0.950 . S
H1213 C1242 0.950 . S
H1214 C1244 0.950 . S
H1215 C1245 0.950 . S
C1216 H1198 0.951 . S
C1216 C1217 1.366 . S
C1216 C1218 1.388 . S
C1217 C1216 1.366 . S
C1217 C1221 1.385 . S
C1218 H1199 0.951 . S
C1218 C1216 1.388 . S
C1218 C1219 1.366 . S
C1219 C1218 1.366 . S
C1219 C1220 1.414 . S
C1219 C1222 1.499 . S
C1220 H1200 0.950 . S
C1220 C1219 1.414 . S
C1220 C1221 1.374 . S
C1221 H1201 0.950 . S
C1221 C1217 1.385 . S
C1221 C1220 1.374 . S
C1222 C1219 1.499 . S
C1222 C1223 1.373 1_556 S
C1222 C1224 1.389 1_455 S
C1223 H1202 0.950 . S
C1223 C1222 1.373 1_554 S
C1223 C1239 1.377 . S
C1224 C1222 1.389 1_655 S
C1224 C1225 1.524 . S
C1224 C1238 1.377 . S
C1225 C1224 1.524 . S
C1225 C1226 1.397 . S
C1225 C1230 1.363 . S
C1226 H1203 0.950 . S
C1226 C1225 1.397 . S
C1226 C1227 1.334 . S
C1227 H1204 0.950 . S
C1227 C1226 1.334 . S
C1227 C1228 1.287 . S
C1228 C1227 1.287 . S
C1228 C1229 1.524 . S
C1228 H1247 0.913 . S
C1229 H1205 0.950 . S
C1229 C1228 1.524 . S
C1229 C1230 1.415 . S
C1230 H1206 0.950 . S
C1230 C1225 1.363 . S
C1230 C1229 1.415 . S
C1231 H1207 0.951 . S
C1231 C1232 1.366 . S
C1231 C1233 1.388 . S
C1232 C1231 1.366 . S
C1232 C1236 1.385 . S
C1233 H1208 0.951 . S
C1233 C1231 1.388 . S
C1233 C1234 1.366 . S
C1234 C1233 1.366 . S
C1234 C1235 1.414 . S
C1234 C1237 1.499 . S
C1235 H1209 0.948 1_554 S
C1235 C1234 1.414 . S
C1235 C1236 1.374 . S
C1236 H1210 0.950 . S
C1236 C1232 1.385 . S
C1236 C1235 1.374 . S
C1237 C1234 1.499 . S
C1237 C1238 1.373 1_554 S
C1237 C1239 1.389 1_655 S
C1238 H1211 0.950 . S
C1238 C1224 1.377 . S
C1238 C1237 1.373 1_556 S
C1239 C1223 1.377 . S
C1239 C1237 1.389 1_455 S
C1239 C1240 1.524 . S
C1240 C1239 1.524 . S
C1240 C1241 1.397 . S
C1240 C1245 1.363 . S
C1241 H1212 0.950 . S
C1241 C1240 1.397 . S
C1241 C1242 1.334 . S
C1242 H1213 0.950 . S
C1242 C1241 1.334 . S
C1242 C1243 1.287 . S
C1243 C1242 1.287 . S
C1243 C1244 1.524 . S
C1243 H1246 0.999 . S
C1244 H1214 0.950 . S
C1244 C1243 1.524 . S
C1244 C1245 1.415 . S
C1245 H1215 0.950 . S
C1245 C1240 1.363 . S
C1245 C1244 1.415 . S
H1246 C1243 0.999 . S
H1247 C1228 0.913 . S
H1248 C1266 0.951 . S
H1249 C1268 0.951 . S
H1250 C1270 0.975 . S
H1251 C1271 0.950 . S
H1252 C1273 0.950 . S
H1253 C1276 0.950 . S
H1254 C1277 0.950 . S
H1255 C1279 0.950 . S
H1256 C1280 0.950 . S
H1257 C1281 0.951 . S
H1258 C1283 0.951 . S
H1259 C1285 0.950 . S
H1260 C1286 0.950 . S
H1261 C1288 0.950 . S
H1262 C1291 0.950 . S
H1263 C1292 0.950 . S
H1264 C1294 0.950 . S
H1265 C1295 0.950 . S
C1266 H1248 0.951 . S
C1266 C1267 1.366 . S
C1266 C1268 1.388 . S
C1267 C1266 1.366 . S
C1267 C1271 1.385 . S
C1268 H1249 0.951 . S
C1268 C1266 1.388 . S
C1268 C1269 1.366 . S
C1269 C1268 1.366 . S
C1269 C1270 1.414 . S
C1269 C1272 1.499 1_545 S
C1270 H1250 0.975 . S
C1270 C1269 1.414 . S
C1270 C1271 1.374 . S
C1271 H1251 0.950 . S
C1271 C1267 1.385 . S
C1271 C1270 1.374 . S
C1272 C1269 1.499 1_565 S
C1272 C1273 1.373 . S
C1272 C1274 1.389 . S
C1273 H1252 0.950 . S
C1273 C1272 1.373 . S
C1273 C1289 1.377 . S
C1274 C1272 1.389 . S
C1274 C1275 1.524 . S
C1274 C1288 1.377 . S
C1275 C1274 1.524 . S
C1275 C1276 1.397 . S
C1275 C1280 1.363 . S
C1276 H1253 0.950 . S
C1276 C1275 1.397 . S
C1276 C1277 1.334 . S
C1277 H1254 0.950 . S
C1277 C1276 1.334 . S
C1277 C1278 1.287 . S
C1278 C1277 1.287 . S
C1278 C1279 1.524 . S
C1278 H1297 0.913 . S
C1279 H1255 0.950 . S
C1279 C1278 1.524 . S
C1279 C1280 1.415 . S
C1280 H1256 0.950 . S
C1280 C1275 1.363 . S
C1280 C1279 1.415 . S
C1281 H1257 0.951 . S
C1281 C1282 1.366 . S
C1281 C1283 1.388 . S
C1282 C1281 1.366 . S
C1282 C1286 1.385 . S
C1283 H1258 0.951 . S
C1283 C1281 1.388 . S
C1283 C1284 1.366 . S
C1284 C1283 1.366 . S
C1284 C1285 1.414 . S
C1284 C1287 1.499 . S
C1285 H1259 0.950 . S
C1285 C1284 1.414 . S
C1285 C1286 1.374 . S
C1286 H1260 0.950 . S
C1286 C1282 1.385 . S
C1286 C1285 1.374 . S
C1287 C1284 1.499 . S
C1287 C1288 1.373 . S
C1287 C1289 1.389 . S
C1288 H1261 0.950 . S
C1288 C1274 1.377 . S
C1288 C1287 1.373 . S
C1289 C1273 1.377 . S
C1289 C1287 1.389 . S
C1289 C1290 1.524 . S
C1290 C1289 1.524 . S
C1290 C1291 1.397 . S
C1290 C1295 1.363 . S
C1291 H1262 0.950 . S
C1291 C1290 1.397 . S
C1291 C1292 1.334 . S
C1292 H1263 0.950 . S
C1292 C1291 1.334 . S
C1292 C1293 1.287 . S
C1293 C1292 1.287 . S
C1293 C1294 1.524 . S
C1293 H1296 0.999 . S
C1294 H1264 0.950 . S
C1294 C1293 1.524 . S
C1294 C1295 1.415 . S
C1295 H1265 0.950 . S
C1295 C1290 1.363 . S
C1295 C1294 1.415 . S
H1296 C1293 0.999 . S
H1297 C1278 0.913 . S
H1298 C1316 0.951 . S
H1299 C1318 0.951 . S
H1300 C1320 0.950 . S
H1301 C1321 0.950 . S
H1302 C1323 0.950 . S
H1303 C1326 0.950 . S
H1304 C1327 0.950 . S
H1305 C1329 0.950 . S
H1306 C1330 0.950 . S
H1307 C1331 0.951 . S
H1308 C1333 0.951 . S
H1309 C1335 0.950 . S
H1310 C1336 0.950 . S
H1311 C1338 0.950 . S
H1312 C1341 0.950 . S
H1313 C1342 0.950 . S
H1314 C1344 0.950 . S
H1315 C1345 0.950 . S
C1316 H1298 0.951 . S
C1316 C1317 1.366 . S
C1316 C1318 1.388 . S
C1317 C1316 1.366 . S
C1317 C1321 1.385 . S
C1318 H1299 0.951 . S
C1318 C1316 1.388 . S
C1318 C1319 1.366 . S
C1319 C1318 1.366 . S
C1319 C1320 1.414 . S
C1319 C1322 1.499 . S
C1320 H1300 0.950 . S
C1320 C1319 1.414 . S
C1320 C1321 1.374 . S
C1321 H1301 0.950 . S
C1321 C1317 1.385 . S
C1321 C1320 1.374 . S
C1322 C1319 1.499 . S
C1322 C1323 1.373 . S
C1322 C1324 1.389 . S
C1323 H1302 0.950 . S
C1323 C1322 1.373 . S
C1323 C1339 1.377 . S
C1324 C1322 1.389 . S
C1324 C1325 1.524 . S
C1324 C1338 1.377 . S
C1325 C1324 1.524 . S
C1325 C1326 1.397 . S
C1325 C1330 1.363 . S
C1326 H1303 0.950 . S
C1326 C1325 1.397 . S
C1326 C1327 1.334 . S
C1327 H1304 0.950 . S
C1327 C1326 1.334 . S
C1327 C1328 1.287 . S
C1328 C1327 1.287 . S
C1328 C1329 1.524 . S
C1328 H1347 0.913 . S
C1329 H1305 0.950 . S
C1329 C1328 1.524 . S
C1329 C1330 1.415 . S
C1330 H1306 0.950 . S
C1330 C1325 1.363 . S
C1330 C1329 1.415 . S
C1331 H1307 0.951 . S
C1331 C1332 1.366 . S
C1331 C1333 1.388 . S
C1332 C1331 1.366 . S
C1332 C1336 1.385 . S
C1333 H1308 0.951 . S
C1333 C1331 1.388 . S
C1333 C1334 1.366 . S
C1334 C1333 1.366 . S
C1334 C1335 1.414 . S
C1334 C1337 1.499 . S
C1335 H1309 0.950 . S
C1335 C1334 1.414 . S
C1335 C1336 1.374 . S
C1336 H1310 0.950 . S
C1336 C1332 1.385 . S
C1336 C1335 1.374 . S
C1337 C1334 1.499 . S
C1337 C1338 1.373 . S
C1337 C1339 1.389 . S
C1338 H1311 0.950 . S
C1338 C1324 1.377 . S
C1338 C1337 1.373 . S
C1339 C1323 1.377 . S
C1339 C1337 1.389 . S
C1339 C1340 1.524 . S
C1340 C1339 1.524 . S
C1340 C1341 1.397 . S
C1340 C1345 1.363 . S
C1341 H1312 0.950 . S
C1341 C1340 1.397 . S
C1341 C1342 1.334 . S
C1342 H1313 0.950 . S
C1342 C1341 1.334 . S
C1342 C1343 1.287 . S
C1343 C1342 1.287 . S
C1343 C1344 1.524 . S
C1343 H1346 0.999 . S
C1344 H1314 0.950 . S
C1344 C1343 1.524 . S
C1344 C1345 1.415 . S
C1345 H1315 0.950 . S
C1345 C1340 1.363 . S
C1345 C1344 1.415 . S
H1346 C1343 0.999 . S
H1347 C1328 0.913 . S
H1348 C1366 0.951 . S
H1349 C1368 0.951 . S
H1350 C1370 0.950 . S
H1351 C1371 0.950 . S
H1352 C1373 0.950 . S
H1353 C1376 0.950 . S
H1354 C1377 0.950 . S
H1355 C1379 0.950 . S
H1356 C1380 0.950 . S
H1357 C1381 0.951 . S
H1358 C1383 0.951 . S
H1359 C1385 0.950 . S
H1360 C1386 0.950 . S
H1361 C1388 0.950 . S
H1362 C1391 0.950 1_565 S
H1363 C1392 0.950 . S
H1364 C1394 0.950 . S
H1365 C1395 0.950 . S
C1366 H1348 0.951 . S
C1366 C1367 1.366 . S
C1366 C1368 1.388 . S
C1367 C1366 1.366 . S
C1367 C1371 1.385 . S
C1368 H1349 0.951 . S
C1368 C1366 1.388 . S
C1368 C1369 1.366 . S
C1369 C1368 1.366 . S
C1369 C1370 1.414 . S
C1369 C1372 1.499 . S
C1370 H1350 0.950 . S
C1370 C1369 1.414 . S
C1370 C1371 1.374 . S
C1371 H1351 0.950 . S
C1371 C1367 1.385 . S
C1371 C1370 1.374 . S
C1372 C1369 1.499 . S
C1372 C1373 1.373 . S
C1372 C1374 1.389 1_545 S
C1373 H1352 0.950 . S
C1373 C1372 1.373 . S
C1373 C1389 1.355 1_545 S
C1374 C1372 1.389 1_565 S
C1374 C1375 1.524 . S
C1374 C1388 1.377 . S
C1375 C1374 1.524 . S
C1375 C1376 1.397 . S
C1375 C1380 1.363 . S
C1376 H1353 0.950 . S
C1376 C1375 1.397 . S
C1376 C1377 1.334 . S
C1377 H1354 0.950 . S
C1377 C1376 1.334 . S
C1377 C1378 1.287 . S
C1378 C1377 1.287 . S
C1378 C1379 1.524 . S
C1378 H1397 0.913 . S
C1379 H1355 0.950 . S
C1379 C1378 1.524 . S
C1379 C1380 1.415 . S
C1380 H1356 0.950 . S
C1380 C1375 1.363 . S
C1380 C1379 1.415 . S
C1381 H1357 0.951 . S
C1381 C1382 1.366 . S
C1381 C1383 1.388 . S
C1382 C1381 1.366 . S
C1382 C1386 1.385 . S
C1383 H1358 0.951 . S
C1383 C1381 1.388 . S
C1383 C1384 1.366 . S
C1384 C1383 1.366 . S
C1384 C1385 1.414 . S
C1384 C1387 1.499 . S
C1385 H1359 0.950 . S
C1385 C1384 1.414 . S
C1385 C1386 1.374 . S
C1386 H1360 0.950 . S
C1386 C1382 1.385 . S
C1386 C1385 1.374 . S
C1387 C1384 1.499 . S
C1387 C1388 1.373 . S
C1387 C1389 1.423 . S
C1388 H1361 0.950 . S
C1388 C1374 1.377 . S
C1388 C1387 1.373 . S
C1389 C1373 1.355 1_565 S
C1389 C1387 1.423 . S
C1389 C1390 1.511 1_565 S
C1390 C1389 1.511 1_545 S
C1390 C1391 1.397 . S
C1390 C1395 1.363 . S
C1391 H1362 0.950 1_545 S
C1391 C1390 1.397 . S
C1391 C1392 1.334 . S
C1392 H1363 0.950 . S
C1392 C1391 1.334 . S
C1392 C1393 1.287 . S
C1393 C1392 1.287 . S
C1393 C1394 1.524 . S
C1393 H1396 0.999 . S
C1394 H1364 0.950 . S
C1394 C1393 1.524 . S
C1394 C1395 1.415 . S
C1395 H1365 0.950 . S
C1395 C1390 1.363 . S
C1395 C1394 1.415 . S
H1396 C1393 0.999 . S
H1397 C1378 0.913 . S
H1398 C1416 0.951 . S
H1399 C1418 0.951 . S
H1400 C1420 0.950 . S
H1401 C1421 0.950 . S
H1402 C1423 0.950 . S
H1403 C1426 0.950 . S
H1404 C1427 0.950 . S
H1405 C1429 0.950 . S
H1406 C1430 0.950 . S
H1407 C1431 0.951 . S
H1408 C1433 0.951 1_556 S
H1409 C1435 0.950 . S
H1410 C1436 0.950 . S
H1411 C1438 0.950 . S
H1412 C1441 0.950 . S
H1413 C1442 0.950 . S
H1414 C1444 0.950 . S
H1415 C1445 0.950 . S
C1416 H1398 0.951 . S
C1416 C1417 1.366 . S
C1416 C1418 1.388 . S
C1417 C1416 1.366 . S
C1417 C1421 1.385 . S
C1418 H1399 0.951 . S
C1418 C1416 1.388 . S
C1418 C1419 1.366 . S
C1419 C1418 1.366 . S
C1419 C1420 1.414 . S
C1419 C1422 1.499 . S
C1420 H1400 0.950 . S
C1420 C1419 1.414 . S
C1420 C1421 1.374 . S
C1421 H1401 0.950 . S
C1421 C1417 1.385 . S
C1421 C1420 1.374 . S
C1422 C1419 1.499 . S
C1422 C1423 1.373 . S
C1422 C1424 1.389 . S
C1423 H1402 0.950 . S
C1423 C1422 1.373 . S
C1423 C1439 1.377 . S
C1424 C1422 1.389 . S
C1424 C1425 1.524 . S
C1424 C1438 1.377 1_556 S
C1425 C1424 1.524 . S
C1425 C1426 1.397 . S
C1425 C1430 1.363 1_556 S
C1426 H1403 0.950 . S
C1426 C1425 1.397 . S
C1426 C1427 1.334 . S
C1427 H1404 0.950 . S
C1427 C1426 1.334 . S
C1427 C1428 1.287 . S
C1428 C1427 1.287 . S
C1428 C1429 1.524 1_556 S
C1428 H1447 0.913 1_545 S
C1429 H1405 0.950 . S
C1429 C1428 1.524 1_554 S
C1429 C1430 1.415 . S
C1430 H1406 0.950 . S
C1430 C1425 1.363 1_554 S
C1430 C1429 1.415 . S
C1431 H1407 0.951 . S
C1431 C1432 1.366 . S
C1431 C1433 1.388 . S
C1432 C1431 1.366 . S
C1432 C1436 1.385 . S
C1433 H1408 0.951 1_554 S
C1433 C1431 1.388 . S
C1433 C1434 1.366 . S
C1434 C1433 1.366 . S
C1434 C1435 1.414 . S
C1434 C1437 1.499 . S
C1435 H1409 0.950 . S
C1435 C1434 1.414 . S
C1435 C1436 1.374 . S
C1436 H1410 0.950 . S
C1436 C1432 1.385 . S
C1436 C1435 1.374 . S
C1437 C1434 1.499 . S
C1437 C1438 1.373 . S
C1437 C1439 1.389 1_554 S
C1438 H1411 0.950 . S
C1438 C1424 1.377 1_554 S
C1438 C1437 1.373 . S
C1439 C1423 1.377 . S
C1439 C1437 1.389 1_556 S
C1439 C1440 1.524 . S
C1440 C1439 1.524 . S
C1440 C1441 1.397 1_556 S
C1440 C1445 1.363 . S
C1441 H1412 0.950 . S
C1441 C1440 1.397 1_554 S
C1441 C1442 1.334 . S
C1442 H1413 0.950 . S
C1442 C1441 1.334 . S
C1442 C1443 1.287 1_554 S
C1443 C1442 1.287 1_556 S
C1443 C1444 1.524 . S
C1443 H1446 0.999 . S
C1444 H1414 0.950 . S
C1444 C1443 1.524 . S
C1444 C1445 1.415 . S
C1445 H1415 0.950 . S
C1445 C1440 1.363 . S
C1445 C1444 1.415 . S
H1446 C1443 0.999 . S
H1447 C1428 0.913 1_565 S
H1448 C1466 0.951 . S
H1449 C1468 0.951 . S
H1450 C1470 0.950 . S
H1451 C1471 0.950 . S
H1452 C1473 0.950 . S
H1453 C1476 0.950 . S
H1454 C1477 0.950 . S
H1455 C1479 0.950 . S
H1456 C1480 0.950 . S
H1457 C1481 0.951 . S
H1458 C1483 0.951 . S
H1459 C1485 0.974 . S
H1460 C1486 0.950 . S
H1461 C1488 0.950 . S
H1462 C1491 0.950 . S
H1463 C1492 0.950 . S
H1464 C1494 0.950 . S
H1465 C1495 0.950 . S
C1466 H1448 0.951 . S
C1466 C1467 1.366 . S
C1466 C1468 1.388 . S
C1467 C1466 1.366 . S
C1467 C1471 1.385 . S
C1468 H1449 0.951 . S
C1468 C1466 1.388 . S
C1468 C1469 1.366 . S
C1469 C1468 1.366 . S
C1469 C1470 1.414 . S
C1469 C1472 1.499 . S
C1470 H1450 0.950 . S
C1470 C1469 1.414 . S
C1470 C1471 1.374 . S
C1471 H1451 0.950 . S
C1471 C1467 1.385 . S
C1471 C1470 1.374 . S
C1472 C1469 1.499 . S
C1472 C1473 1.373 . S
C1472 C1474 1.389 . S
C1473 H1452 0.950 . S
C1473 C1472 1.373 . S
C1473 C1489 1.377 1_545 S
C1474 C1472 1.389 . S
C1474 C1475 1.524 . S
C1474 C1488 1.377 . S
C1475 C1474 1.524 . S
C1475 C1476 1.397 . S
C1475 C1480 1.363 . S
C1476 H1453 0.950 . S
C1476 C1475 1.397 . S
C1476 C1477 1.334 . S
C1477 H1454 0.950 . S
C1477 C1476 1.334 . S
C1477 C1478 1.287 . S
C1478 C1477 1.287 . S
C1478 C1479 1.524 . S
C1478 H1497 0.913 . S
C1479 H1455 0.950 . S
C1479 C1478 1.524 . S
C1479 C1480 1.415 . S
C1480 H1456 0.950 . S
C1480 C1475 1.363 . S
C1480 C1479 1.415 . S
C1481 H1457 0.951 . S
C1481 C1482 1.366 . S
C1481 C1483 1.388 . S
C1482 C1481 1.366 . S
C1482 C1486 1.385 . S
C1483 H1458 0.951 . S
C1483 C1481 1.388 . S
C1483 C1484 1.366 . S
C1484 C1483 1.366 . S
C1484 C1485 1.414 . S
C1484 C1487 1.499 . S
C1485 H1459 0.974 . S
C1485 C1484 1.414 . S
C1485 C1486 1.374 . S
C1486 H1460 0.950 . S
C1486 C1482 1.385 . S
C1486 C1485 1.374 . S
C1487 C1484 1.499 . S
C1487 C1488 1.373 1_565 S
C1487 C1489 1.389 . S
C1488 H1461 0.950 . S
C1488 C1474 1.377 . S
C1488 C1487 1.373 1_545 S
C1489 C1473 1.377 1_565 S
C1489 C1487 1.389 . S
C1489 C1490 1.524 . S
C1490 C1489 1.524 . S
C1490 C1491 1.397 . S
C1490 C1495 1.363 . S
C1491 H1462 0.950 . S
C1491 C1490 1.397 . S
C1491 C1492 1.334 . S
C1492 H1463 0.950 . S
C1492 C1491 1.334 . S
C1492 C1493 1.287 . S
C1493 C1492 1.287 . S
C1493 C1494 1.524 . S
C1493 H1496 0.999 . S
C1494 H1464 0.950 . S
C1494 C1493 1.524 . S
C1494 C1495 1.415 . S
C1495 H1465 0.950 . S
C1495 C1490 1.363 . S
C1495 C1494 1.415 . S
H1496 C1493 0.999 . S
H1497 C1478 0.913 . S
H1498 C1516 0.951 . S
H1499 C1518 0.951 . S
H1500 C1520 0.950 . S
H1501 C1521 0.950 . S
H1502 C1523 0.950 . S
H1503 C1526 0.950 . S
H1504 C1527 0.950 . S
H1505 C1529 0.950 . S
H1506 C1530 0.950 . S
H1507 C1531 0.951 . S
H1508 C1533 0.951 . S
H1509 C1535 0.950 . S
H1510 C1536 0.950 . S
H1511 C1538 0.950 . S
H1512 C1541 0.950 . S
H1513 C1542 0.950 . S
H1514 C1544 0.950 . S
H1515 C1545 0.950 . S
C1516 H1498 0.951 . S
C1516 C1517 1.366 . S
C1516 C1518 1.388 . S
C1517 C1516 1.366 . S
C1517 C1521 1.385 . S
C1518 H1499 0.951 . S
C1518 C1516 1.388 . S
C1518 C1519 1.366 . S
C1519 C1518 1.366 . S
C1519 C1520 1.414 . S
C1519 C1522 1.499 . S
C1520 H1500 0.950 . S
C1520 C1519 1.414 . S
C1520 C1521 1.374 . S
C1521 H1501 0.950 . S
C1521 C1517 1.385 . S
C1521 C1520 1.374 . S
C1522 C1519 1.499 . S
C1522 C1523 1.373 . S
C1522 C1524 1.389 . S
C1523 H1502 0.950 . S
C1523 C1522 1.373 . S
C1523 C1539 1.377 . S
C1524 C1522 1.389 . S
C1524 C1525 1.524 . S
C1524 C1538 1.377 . S
C1525 C1524 1.524 . S
C1525 C1526 1.397 . S
C1525 C1530 1.363 . S
C1526 H1503 0.950 . S
C1526 C1525 1.397 . S
C1526 C1527 1.334 . S
C1527 H1504 0.950 . S
C1527 C1526 1.334 . S
C1527 C1528 1.287 . S
C1528 C1527 1.287 . S
C1528 C1529 1.524 . S
C1528 H1547 0.913 . S
C1529 H1505 0.950 . S
C1529 C1528 1.524 . S
C1529 C1530 1.415 . S
C1530 H1506 0.950 . S
C1530 C1525 1.363 . S
C1530 C1529 1.415 . S
C1531 H1507 0.951 . S
C1531 C1532 1.366 . S
C1531 C1533 1.388 . S
C1532 C1531 1.366 . S
C1532 C1536 1.385 . S
C1533 H1508 0.951 . S
C1533 C1531 1.388 . S
C1533 C1534 1.366 . S
C1534 C1533 1.366 . S
C1534 C1535 1.414 . S
C1534 C1537 1.499 . S
C1535 H1509 0.950 . S
C1535 C1534 1.414 . S
C1535 C1536 1.374 . S
C1536 H1510 0.950 . S
C1536 C1532 1.385 . S
C1536 C1535 1.374 . S
C1537 C1534 1.499 . S
C1537 C1538 1.373 . S
C1537 C1539 1.389 . S
C1538 H1511 0.950 . S
C1538 C1524 1.377 . S
C1538 C1537 1.373 . S
C1539 C1523 1.377 . S
C1539 C1537 1.389 . S
C1539 C1540 1.524 . S
C1540 C1539 1.524 . S
C1540 C1541 1.397 . S
C1540 C1545 1.363 . S
C1541 H1512 0.950 . S
C1541 C1540 1.397 . S
C1541 C1542 1.334 . S
C1542 H1513 0.950 . S
C1542 C1541 1.334 . S
C1542 C1543 1.287 . S
C1543 C1542 1.287 . S
C1543 C1544 1.524 . S
C1543 H1546 0.999 . S
C1544 H1514 0.950 . S
C1544 C1543 1.524 . S
C1544 C1545 1.415 . S
C1545 H1515 0.950 . S
C1545 C1540 1.363 . S
C1545 C1544 1.415 . S
H1546 C1543 0.999 . S
H1547 C1528 0.913 . S
H1548 C1566 0.951 . S
H1549 C1568 0.951 . S
H1550 C1570 0.950 . S
H1551 C1571 0.950 . S
H1552 C1573 0.950 1_545 S
H1553 C1576 0.950 . S
H1554 C1577 0.950 . S
H1555 C1579 0.947 1_545 S
H1556 C1580 0.950 . S
H1557 C1581 0.951 . S
H1558 C1583 0.951 . S
H1559 C1585 0.950 . S
H1560 C1586 0.950 . S
H1561 C1588 0.950 . S
H1562 C1591 0.950 . S
H1563 C1592 0.950 . S
H1564 C1594 0.950 . S
H1565 C1595 0.950 . S
C1566 H1548 0.951 . S
C1566 C1567 1.366 . S
C1566 C1568 1.388 . S
C1567 C1566 1.366 . S
C1567 C1571 1.385 . S
C1568 H1549 0.951 . S
C1568 C1566 1.388 . S
C1568 C1569 1.366 . S
C1569 C1568 1.366 . S
C1569 C1570 1.414 . S
C1569 C1572 1.499 . S
C1570 H1550 0.950 . S
C1570 C1569 1.414 . S
C1570 C1571 1.374 . S
C1571 H1551 0.950 . S
C1571 C1567 1.385 . S
C1571 C1570 1.374 . S
C1572 C1569 1.499 . S
C1572 C1573 1.373 1_545 S
C1572 C1574 1.389 1_545 S
C1573 H1552 0.950 1_565 S
C1573 C1572 1.373 1_565 S
C1573 C1589 1.376 . S
C1574 C1572 1.389 1_565 S
C1574 C1575 1.524 . S
C1574 C1588 1.377 . S
C1575 C1574 1.524 . S
C1575 C1576 1.397 . S
C1575 C1580 1.363 . S
C1576 H1553 0.950 . S
C1576 C1575 1.397 . S
C1576 C1577 1.334 . S
C1577 H1554 0.950 . S
C1577 C1576 1.334 . S
C1577 C1578 1.287 . S
C1578 C1577 1.287 . S
C1578 C1579 1.524 . S
C1578 H1597 0.913 . S
C1579 H1555 0.947 1_565 S
C1579 C1578 1.524 . S
C1579 C1580 1.415 . S
C1580 H1556 0.950 . S
C1580 C1575 1.363 . S
C1580 C1579 1.415 . S
C1581 H1557 0.951 . S
C1581 C1582 1.366 . S
C1581 C1583 1.388 . S
C1582 C1581 1.366 . S
C1582 C1586 1.385 . S
C1583 H1558 0.951 . S
C1583 C1581 1.388 . S
C1583 C1584 1.366 . S
C1584 C1583 1.366 . S
C1584 C1585 1.414 . S
C1584 C1587 1.499 . S
C1585 H1559 0.950 . S
C1585 C1584 1.414 . S
C1585 C1586 1.374 . S
C1586 H1560 0.950 . S
C1586 C1582 1.385 . S
C1586 C1585 1.374 . S
C1587 C1584 1.499 . S
C1587 C1588 1.373 . S
C1587 C1589 1.389 . S
C1588 H1561 0.950 . S
C1588 C1574 1.377 . S
C1588 C1587 1.373 . S
C1589 C1573 1.376 . S
C1589 C1587 1.389 . S
C1589 C1590 1.524 . S
C1590 C1589 1.524 . S
C1590 C1591 1.397 . S
C1590 C1595 1.363 . S
C1591 H1562 0.950 . S
C1591 C1590 1.397 . S
C1591 C1592 1.334 . S
C1592 H1563 0.950 . S
C1592 C1591 1.334 . S
C1592 C1593 1.287 . S
C1593 C1592 1.287 . S
C1593 C1594 1.524 . S
C1593 H1596 0.999 . S
C1594 H1564 0.950 . S
C1594 C1593 1.524 . S
C1594 C1595 1.415 . S
C1595 H1565 0.950 . S
C1595 C1590 1.363 . S
C1595 C1594 1.415 . S
H1596 C1593 0.999 . S
H1597 C1578 0.913 . S
H1598 C1616 0.951 . S
H1599 C1618 0.951 . S
H1600 C1620 0.950 . S
H1601 C1621 0.950 . S
H1602 C1623 0.950 1_556 S
H1603 C1626 0.950 . S
H1604 C1627 0.950 . S
H1605 C1629 0.950 . S
H1606 C1630 0.950 . S
H1607 C1631 0.951 . S
H1608 C1633 0.951 . S
H1609 C1635 0.950 . S
H1610 C1636 0.950 . S
H1611 C1638 0.950 . S
H1612 C1641 0.950 . S
H1613 C1642 0.950 . S
H1614 C1644 0.950 . S
H1615 C1645 0.950 1_556 S
C1616 H1598 0.951 . S
C1616 C1617 1.366 . S
C1616 C1618 1.388 1_556 S
C1617 C1616 1.366 . S
C1617 C1621 1.385 . S
C1618 H1599 0.951 . S
C1618 C1616 1.388 1_554 S
C1618 C1619 1.366 1_554 S
C1619 C1618 1.366 1_556 S
C1619 C1620 1.414 . S
C1619 C1622 1.499 1_556 S
C1620 H1600 0.950 . S
C1620 C1619 1.414 . S
C1620 C1621 1.374 . S
C1621 H1601 0.950 . S
C1621 C1617 1.385 . S
C1621 C1620 1.374 . S
C1622 C1619 1.499 1_554 S
C1622 C1623 1.373 . S
C1622 C1624 1.389 . S
C1623 H1602 0.950 1_554 S
C1623 C1622 1.373 . S
C1623 C1639 1.377 . S
C1624 C1622 1.389 . S
C1624 C1625 1.524 . S
C1624 C1638 1.377 . S
C1625 C1624 1.524 . S
C1625 C1626 1.397 . S
C1625 C1630 1.363 . S
C1626 H1603 0.950 . S
C1626 C1625 1.397 . S
C1626 C1627 1.334 . S
C1627 H1604 0.950 . S
C1627 C1626 1.334 . S
C1627 C1628 1.287 . S
C1628 C1627 1.287 . S
C1628 C1629 1.524 . S
C1628 H1647 0.913 . S
C1629 H1605 0.950 . S
C1629 C1628 1.524 . S
C1629 C1630 1.415 . S
C1630 H1606 0.950 . S
C1630 C1625 1.363 . S
C1630 C1629 1.415 . S
C1631 H1607 0.951 . S
C1631 C1632 1.366 . S
C1631 C1633 1.388 . S
C1632 C1631 1.366 . S
C1632 C1636 1.385 . S
C1633 H1608 0.951 . S
C1633 C1631 1.388 . S
C1633 C1634 1.366 . S
C1634 C1633 1.366 . S
C1634 C1635 1.414 . S
C1634 C1637 1.499 . S
C1635 H1609 0.950 . S
C1635 C1634 1.414 . S
C1635 C1636 1.374 . S
C1636 H1610 0.950 . S
C1636 C1632 1.385 . S
C1636 C1635 1.374 . S
C1637 C1634 1.499 . S
C1637 C1638 1.373 . S
C1637 C1639 1.389 . S
C1638 H1611 0.950 . S
C1638 C1624 1.377 . S
C1638 C1637 1.373 . S
C1639 C1623 1.377 . S
C1639 C1637 1.389 . S
C1639 C1640 1.524 . S
C1640 C1639 1.524 . S
C1640 C1641 1.397 . S
C1640 C1645 1.363 . S
C1641 H1612 0.950 . S
C1641 C1640 1.397 . S
C1641 C1642 1.334 . S
C1642 H1613 0.950 . S
C1642 C1641 1.334 . S
C1642 C1643 1.287 . S
C1643 C1642 1.287 . S
C1643 C1644 1.524 1_554 S
C1643 H1646 0.999 . S
C1644 H1614 0.950 . S
C1644 C1643 1.524 1_556 S
C1644 C1645 1.415 1_556 S
C1645 H1615 0.950 1_554 S
C1645 C1640 1.363 . S
C1645 C1644 1.415 1_554 S
H1646 C1643 0.999 . S
H1647 C1628 0.913 . S
H1648 C1666 0.951 . S
H1649 C1668 0.951 . S
H1650 C1670 0.950 . S
H1651 C1671 0.950 . S
H1652 C1673 0.950 . S
H1653 C1676 0.950 . S
H1654 C1677 0.950 . S
H1655 C1679 0.950 . S
H1656 C1680 0.950 . S
H1657 C1681 0.951 . S
H1658 C1683 0.951 1_655 S
H1659 C1685 0.950 . S
H1660 C1686 0.950 . S
H1661 C1688 0.950 . S
H1662 C1691 0.950 . S
H1663 C1692 0.950 . S
H1664 C1694 0.950 1_655 S
H1665 C1695 0.950 . S
C1666 H1648 0.951 . S
C1666 C1667 1.366 . S
C1666 C1668 1.388 . S
C1667 C1666 1.366 . S
C1667 C1671 1.385 . S
C1668 H1649 0.951 . S
C1668 C1666 1.388 . S
C1668 C1669 1.366 . S
C1669 C1668 1.366 . S
C1669 C1670 1.414 . S
C1669 C1672 1.499 . S
C1670 H1650 0.950 . S
C1670 C1669 1.414 . S
C1670 C1671 1.374 . S
C1671 H1651 0.950 . S
C1671 C1667 1.385 . S
C1671 C1670 1.374 . S
C1672 C1669 1.499 . S
C1672 C1673 1.373 . S
C1672 C1674 1.389 . S
C1673 H1652 0.950 . S
C1673 C1672 1.373 . S
C1673 C1689 1.377 . S
C1674 C1672 1.389 . S
C1674 C1675 1.524 . S
C1674 C1688 1.377 . S
C1675 C1674 1.524 . S
C1675 C1676 1.397 . S
C1675 C1680 1.363 . S
C1676 H1653 0.950 . S
C1676 C1675 1.397 . S
C1676 C1677 1.334 . S
C1677 H1654 0.950 . S
C1677 C1676 1.334 . S
C1677 C1678 1.287 . S
C1678 C1677 1.287 . S
C1678 C1679 1.524 . S
C1678 H1697 0.913 . S
C1679 H1655 0.950 . S
C1679 C1678 1.524 . S
C1679 C1680 1.415 . S
C1680 H1656 0.950 . S
C1680 C1675 1.363 . S
C1680 C1679 1.415 . S
C1681 H1657 0.951 . S
C1681 C1682 1.366 . S
C1681 C1683 1.388 . S
C1682 C1681 1.366 . S
C1682 C1686 1.385 . S
C1683 H1658 0.951 1_455 S
C1683 C1681 1.388 . S
C1683 C1684 1.366 . S
C1684 C1683 1.366 . S
C1684 C1685 1.414 . S
C1684 C1687 1.499 1_455 S
C1685 H1659 0.950 . S
C1685 C1684 1.414 . S
C1685 C1686 1.374 . S
C1686 H1660 0.950 . S
C1686 C1682 1.385 . S
C1686 C1685 1.374 . S
C1687 C1684 1.499 1_655 S
C1687 C1688 1.373 . S
C1687 C1689 1.389 . S
C1688 H1661 0.950 . S
C1688 C1674 1.377 . S
C1688 C1687 1.373 . S
C1689 C1673 1.377 . S
C1689 C1687 1.389 . S
C1689 C1690 1.524 . S
C1690 C1689 1.524 . S
C1690 C1691 1.397 1_655 S
C1690 C1695 1.363 . S
C1691 H1662 0.950 . S
C1691 C1690 1.397 1_455 S
C1691 C1692 1.334 . S
C1692 H1663 0.950 . S
C1692 C1691 1.334 . S
C1692 C1693 1.287 . S
C1693 C1692 1.287 . S
C1693 C1694 1.524 . S
C1693 H1696 0.999 . S
C1694 H1664 0.950 1_455 S
C1694 C1693 1.524 . S
C1694 C1695 1.415 1_455 S
C1695 H1665 0.950 . S
C1695 C1690 1.363 . S
C1695 C1694 1.415 1_655 S
H1696 C1693 0.999 . S
H1697 C1678 0.913 . S
H1698 C1716 0.951 . S
H1699 C1718 0.951 . S
H1700 C1720 0.950 . S
H1701 C1721 0.950 . S
H1702 C1723 0.950 . S
H1703 C1726 0.950 . S
H1704 C1727 0.950 . S
H1705 C1729 0.950 . S
H1706 C1730 0.950 . S
H1707 C1731 0.951 . S
H1708 C1733 0.951 . S
H1709 C1735 0.950 . S
H1710 C1736 0.950 . S
H1711 C1738 0.950 . S
H1712 C1741 0.950 . S
H1713 C1742 0.950 . S
H1714 C1744 0.950 . S
H1715 C1745 0.950 . S
C1716 H1698 0.951 . S
C1716 C1717 1.366 . S
C1716 C1718 1.388 . S
C1717 C1716 1.366 . S
C1717 C1721 1.385 . S
C1718 H1699 0.951 . S
C1718 C1716 1.388 . S
C1718 C1719 1.366 . S
C1719 C1718 1.366 . S
C1719 C1720 1.414 . S
C1719 C1722 1.499 . S
C1720 H1700 0.950 . S
C1720 C1719 1.414 . S
C1720 C1721 1.374 . S
C1721 H1701 0.950 . S
C1721 C1717 1.385 . S
C1721 C1720 1.374 . S
C1722 C1719 1.499 . S
C1722 C1723 1.373 . S
C1722 C1724 1.389 . S
C1723 H1702 0.950 . S
C1723 C1722 1.373 . S
C1723 C1739 1.377 . S
C1724 C1722 1.389 . S
C1724 C1725 1.524 . S
C1724 C1738 1.377 . S
C1725 C1724 1.524 . S
C1725 C1726 1.397 . S
C1725 C1730 1.363 . S
C1726 H1703 0.950 . S
C1726 C1725 1.397 . S
C1726 C1727 1.334 . S
C1727 H1704 0.950 . S
C1727 C1726 1.334 . S
C1727 C1728 1.287 . S
C1728 C1727 1.287 . S
C1728 C1729 1.524 . S
C1728 H1747 0.913 . S
C1729 H1705 0.950 . S
C1729 C1728 1.524 . S
C1729 C1730 1.415 . S
C1730 H1706 0.950 . S
C1730 C1725 1.363 . S
C1730 C1729 1.415 . S
C1731 H1707 0.951 . S
C1731 C1732 1.366 . S
C1731 C1733 1.388 . S
C1732 C1731 1.366 . S
C1732 C1736 1.385 . S
C1733 H1708 0.951 . S
C1733 C1731 1.388 . S
C1733 C1734 1.366 . S
C1734 C1733 1.366 . S
C1734 C1735 1.414 . S
C1734 C1737 1.499 . S
C1735 H1709 0.950 . S
C1735 C1734 1.414 . S
C1735 C1736 1.374 . S
C1736 H1710 0.950 . S
C1736 C1732 1.385 . S
C1736 C1735 1.374 . S
C1737 C1734 1.499 . S
C1737 C1738 1.373 . S
C1737 C1739 1.389 . S
C1738 H1711 0.950 . S
C1738 C1724 1.377 . S
C1738 C1737 1.373 . S
C1739 C1723 1.377 . S
C1739 C1737 1.389 . S
C1739 C1740 1.524 . S
C1740 C1739 1.524 . S
C1740 C1741 1.397 . S
C1740 C1745 1.363 . S
C1741 H1712 0.950 . S
C1741 C1740 1.397 . S
C1741 C1742 1.334 . S
C1742 H1713 0.950 . S
C1742 C1741 1.334 . S
C1742 C1743 1.287 . S
C1743 C1742 1.287 . S
C1743 C1744 1.524 . S
C1743 H1746 0.999 . S
C1744 H1714 0.950 . S
C1744 C1743 1.524 . S
C1744 C1745 1.415 . S
C1745 H1715 0.950 . S
C1745 C1740 1.363 . S
C1745 C1744 1.415 . S
H1746 C1743 0.999 . S
H1747 C1728 0.913 . S
H1748 C1766 0.951 . S
H1749 C1768 0.951 . S
H1750 C1770 0.950 . S
H1751 C1771 0.950 . S
H1752 C1773 0.950 1_655 S
H1753 C1776 0.950 . S
H1754 C1777 0.950 . S
H1755 C1779 0.950 . S
H1756 C1780 0.950 . S
H1757 C1781 0.951 . S
H1758 C1783 0.951 . S
H1759 C1785 0.950 . S
H1760 C1786 0.950 . S
H1761 C1788 0.950 . S
H1762 C1791 0.950 . S
H1763 C1792 0.950 . S
H1764 C1794 0.971 . S
H1765 C1795 0.950 . S
C1766 H1748 0.951 . S
C1766 C1767 1.366 . S
C1766 C1768 1.388 . S
C1767 C1766 1.366 . S
C1767 C1771 1.385 . S
C1768 H1749 0.951 . S
C1768 C1766 1.388 . S
C1768 C1769 1.366 . S
C1769 C1768 1.366 . S
C1769 C1770 1.414 . S
C1769 C1772 1.499 1_655 S
C1770 H1750 0.950 . S
C1770 C1769 1.414 . S
C1770 C1771 1.374 . S
C1771 H1751 0.950 . S
C1771 C1767 1.385 . S
C1771 C1770 1.374 . S
C1772 C1769 1.499 1_455 S
C1772 C1773 1.373 . S
C1772 C1774 1.389 . S
C1773 H1752 0.950 1_455 S
C1773 C1772 1.373 . S
C1773 C1789 1.377 . S
C1774 C1772 1.389 . S
C1774 C1775 1.524 . S
C1774 C1788 1.377 . S
C1775 C1774 1.524 . S
C1775 C1776 1.397 . S
C1775 C1780 1.363 . S
C1776 H1753 0.950 . S
C1776 C1775 1.397 . S
C1776 C1777 1.334 . S
C1777 H1754 0.950 . S
C1777 C1776 1.334 . S
C1777 C1778 1.287 . S
C1778 C1777 1.287 . S
C1778 C1779 1.524 . S
C1778 H1797 0.913 . S
C1779 H1755 0.950 . S
C1779 C1778 1.524 . S
C1779 C1780 1.415 . S
C1780 H1756 0.950 . S
C1780 C1775 1.363 . S
C1780 C1779 1.415 . S
C1781 H1757 0.951 . S
C1781 C1782 1.366 . S
C1781 C1783 1.388 . S
C1782 C1781 1.366 . S
C1782 C1786 1.385 . S
C1783 H1758 0.951 . S
C1783 C1781 1.388 . S
C1783 C1784 1.366 . S
C1784 C1783 1.366 . S
C1784 C1785 1.414 . S
C1784 C1787 1.499 . S
C1785 H1759 0.950 . S
C1785 C1784 1.414 . S
C1785 C1786 1.374 . S
C1786 H1760 0.950 . S
C1786 C1782 1.385 . S
C1786 C1785 1.374 . S
C1787 C1784 1.499 . S
C1787 C1788 1.373 . S
C1787 C1789 1.389 . S
C1788 H1761 0.950 . S
C1788 C1774 1.377 . S
C1788 C1787 1.373 . S
C1789 C1773 1.377 . S
C1789 C1787 1.389 . S
C1789 C1790 1.524 . S
C1790 C1789 1.524 . S
C1790 C1791 1.397 . S
C1790 C1795 1.363 . S
C1791 H1762 0.950 . S
C1791 C1790 1.397 . S
C1791 C1792 1.334 . S
C1792 H1763 0.950 . S
C1792 C1791 1.334 . S
C1792 C1793 1.287 . S
C1793 C1792 1.287 . S
C1793 C1794 1.524 . S
C1793 H1796 0.999 . S
C1794 H1764 0.971 . S
C1794 C1793 1.524 . S
C1794 C1795 1.415 . S
C1795 H1765 0.950 . S
C1795 C1790 1.363 . S
C1795 C1794 1.415 . S
H1796 C1793 0.999 . S
H1797 C1778 0.913 . S
H1798 C1816 0.951 . S
H1799 C1818 0.954 . S
H1800 C1820 0.950 . S
H1801 C1821 0.950 . S
H1802 C1823 0.906 1_655 S
H1803 C1826 0.950 . S
H1804 C1827 0.950 . S
H1805 C1829 0.950 . S
H1806 C1830 0.950 . S
H1807 C1831 0.951 . S
H1808 C1833 0.951 . S
H1809 C1835 0.950 . S
H1810 C1836 0.950 . S
H1811 C1838 0.950 . S
H1812 C1841 0.950 . S
H1813 C1842 0.950 . S
H1814 C1844 0.950 1_655 S
H1815 C1845 0.950 1_655 S
C1816 H1798 0.951 . S
C1816 C1817 1.366 . S
C1816 C1818 1.385 1_655 S
C1817 C1816 1.366 . S
C1817 C1821 1.385 . S
C1818 H1799 0.954 . S
C1818 C1816 1.385 1_455 S
C1818 C1819 1.365 1_455 S
C1819 C1818 1.365 1_655 S
C1819 C1820 1.414 . S
C1819 C1822 1.499 1_655 S
C1820 H1800 0.950 . S
C1820 C1819 1.414 . S
C1820 C1821 1.374 . S
C1821 H1801 0.950 . S
C1821 C1817 1.385 . S
C1821 C1820 1.374 . S
C1822 C1819 1.499 1_455 S
C1822 C1823 1.373 . S
C1822 C1824 1.389 . S
C1823 H1802 0.906 1_455 S
C1823 C1822 1.373 . S
C1823 C1839 1.377 . S
C1824 C1822 1.389 . S
C1824 C1825 1.524 . S
C1824 C1838 1.377 . S
C1825 C1824 1.524 . S
C1825 C1826 1.397 . S
C1825 C1830 1.363 . S
C1826 H1803 0.950 . S
C1826 C1825 1.397 . S
C1826 C1827 1.334 . S
C1827 H1804 0.950 . S
C1827 C1826 1.334 . S
C1827 C1828 1.287 . S
C1828 C1827 1.287 . S
C1828 C1829 1.524 . S
C1828 H1847 0.913 . S
C1829 H1805 0.950 . S
C1829 C1828 1.524 . S
C1829 C1830 1.415 . S
C1830 H1806 0.950 . S
C1830 C1825 1.363 . S
C1830 C1829 1.415 . S
C1831 H1807 0.951 . S
C1831 C1832 1.366 . S
C1831 C1833 1.388 . S
C1832 C1831 1.366 . S
C1832 C1836 1.385 . S
C1833 H1808 0.951 . S
C1833 C1831 1.388 . S
C1833 C1834 1.366 . S
C1834 C1833 1.366 . S
C1834 C1835 1.414 . S
C1834 C1837 1.499 . S
C1835 H1809 0.950 . S
C1835 C1834 1.414 . S
C1835 C1836 1.374 . S
C1836 H1810 0.950 . S
C1836 C1832 1.385 . S
C1836 C1835 1.374 . S
C1837 C1834 1.499 . S
C1837 C1838 1.373 . S
C1837 C1839 1.389 . S
C1838 H1811 0.950 . S
C1838 C1824 1.377 . S
C1838 C1837 1.373 . S
C1839 C1823 1.377 . S
C1839 C1837 1.389 . S
C1839 C1840 1.524 . S
C1840 C1839 1.524 . S
C1840 C1841 1.397 . S
C1840 C1845 1.363 . S
C1841 H1812 0.950 . S
C1841 C1840 1.397 . S
C1841 C1842 1.334 . S
C1842 H1813 0.950 . S
C1842 C1841 1.334 . S
C1842 C1843 1.287 . S
C1843 C1842 1.287 . S
C1843 C1844 1.524 . S
C1843 H1846 0.999 . S
C1844 H1814 0.950 1_455 S
C1844 C1843 1.524 . S
C1844 C1845 1.415 . S
C1845 H1815 0.950 1_455 S
C1845 C1840 1.363 . S
C1845 C1844 1.415 . S
H1846 C1843 0.999 . S
H1847 C1828 0.913 . S
H1848 C1866 0.951 . S
H1849 C1868 0.951 . S
H1850 C1870 0.950 . S
H1851 C1871 0.950 . S
H1852 C1873 0.950 . S
H1853 C1876 0.950 . S
H1854 C1877 0.950 . S
H1855 C1879 0.950 . S
H1856 C1880 0.950 . S
H1857 C1881 0.951 . S
H1858 C1883 0.951 . S
H1859 C1885 0.950 . S
H1860 C1886 0.950 . S
H1861 C1888 0.950 . S
H1862 C1891 0.950 . S
H1863 C1892 0.950 . S
H1864 C1894 0.950 . S
H1865 C1895 0.950 . S
C1866 H1848 0.951 . S
C1866 C1867 1.366 . S
C1866 C1868 1.388 . S
C1867 C1866 1.366 . S
C1867 C1871 1.385 . S
C1868 H1849 0.951 . S
C1868 C1866 1.388 . S
C1868 C1869 1.366 . S
C1869 C1868 1.366 . S
C1869 C1870 1.414 . S
C1869 C1872 1.499 . S
C1870 H1850 0.950 . S
C1870 C1869 1.414 . S
C1870 C1871 1.374 . S
C1871 H1851 0.950 . S
C1871 C1867 1.385 . S
C1871 C1870 1.374 . S
C1872 C1869 1.499 . S
C1872 C1873 1.373 . S
C1872 C1874 1.389 . S
C1873 H1852 0.950 . S
C1873 C1872 1.373 . S
C1873 C1889 1.377 . S
C1874 C1872 1.389 . S
C1874 C1875 1.524 . S
C1874 C1888 1.377 . S
C1875 C1874 1.524 . S
C1875 C1876 1.397 . S
C1875 C1880 1.363 . S
C1876 H1853 0.950 . S
C1876 C1875 1.397 . S
C1876 C1877 1.334 . S
C1877 H1854 0.950 . S
C1877 C1876 1.334 . S
C1877 C1878 1.287 . S
C1878 C1877 1.287 . S
C1878 C1879 1.524 . S
C1878 H1897 0.913 . S
C1879 H1855 0.950 . S
C1879 C1878 1.524 . S
C1879 C1880 1.415 . S
C1880 H1856 0.950 . S
C1880 C1875 1.363 . S
C1880 C1879 1.415 . S
C1881 H1857 0.951 . S
C1881 C1882 1.366 . S
C1881 C1883 1.388 . S
C1882 C1881 1.366 . S
C1882 C1886 1.385 . S
C1883 H1858 0.951 . S
C1883 C1881 1.388 . S
C1883 C1884 1.366 . S
C1884 C1883 1.366 . S
C1884 C1885 1.414 . S
C1884 C1887 1.499 . S
C1885 H1859 0.950 . S
C1885 C1884 1.414 . S
C1885 C1886 1.374 . S
C1886 H1860 0.950 . S
C1886 C1882 1.385 . S
C1886 C1885 1.374 . S
C1887 C1884 1.499 . S
C1887 C1888 1.373 . S
C1887 C1889 1.389 . S
C1888 H1861 0.950 . S
C1888 C1874 1.377 . S
C1888 C1887 1.373 . S
C1889 C1873 1.377 . S
C1889 C1887 1.389 . S
C1889 C1890 1.524 . S
C1890 C1889 1.524 . S
C1890 C1891 1.397 . S
C1890 C1895 1.363 . S
C1891 H1862 0.950 . S
C1891 C1890 1.397 . S
C1891 C1892 1.334 . S
C1892 H1863 0.950 . S
C1892 C1891 1.334 . S
C1892 C1893 1.287 . S
C1893 C1892 1.287 . S
C1893 C1894 1.524 . S
C1893 H1896 0.999 . S
C1894 H1864 0.950 . S
C1894 C1893 1.524 . S
C1894 C1895 1.415 . S
C1895 H1865 0.950 . S
C1895 C1890 1.363 . S
C1895 C1894 1.415 . S
H1896 C1893 0.999 . S
H1897 C1878 0.913 . S
H1898 C1916 0.951 . S
H1899 C1918 0.951 . S
H1900 C1920 0.950 . S
H1901 C1921 0.950 . S
H1902 C1923 0.950 . S
H1903 C1926 0.950 . S
H1904 C1927 0.950 . S
H1905 C1929 0.950 . S
H1906 C1930 0.950 . S
H1907 C1931 0.951 . S
H1908 C1933 0.951 . S
H1909 C1935 0.950 1_655 S
H1910 C1936 0.950 . S
H1911 C1938 0.950 . S
H1912 C1941 0.950 . S
H1913 C1942 0.950 . S
H1914 C1944 0.950 . S
H1915 C1945 0.950 . S
C1916 H1898 0.951 . S
C1916 C1917 1.366 . S
C1916 C1918 1.388 . S
C1917 C1916 1.366 . S
C1917 C1921 1.385 . S
C1918 H1899 0.951 . S
C1918 C1916 1.388 . S
C1918 C1919 1.366 . S
C1919 C1918 1.366 . S
C1919 C1920 1.414 . S
C1919 C1922 1.499 . S
C1920 H1900 0.950 . S
C1920 C1919 1.414 . S
C1920 C1921 1.374 . S
C1921 H1901 0.950 . S
C1921 C1917 1.385 . S
C1921 C1920 1.374 . S
C1922 C1919 1.499 . S
C1922 C1923 1.373 . S
C1922 C1924 1.389 . S
C1923 H1902 0.950 . S
C1923 C1922 1.373 . S
C1923 C1939 1.377 . S
C1924 C1922 1.389 . S
C1924 C1925 1.524 . S
C1924 C1938 1.377 . S
C1925 C1924 1.524 . S
C1925 C1926 1.397 . S
C1925 C1930 1.363 . S
C1926 H1903 0.950 . S
C1926 C1925 1.397 . S
C1926 C1927 1.334 . S
C1927 H1904 0.950 . S
C1927 C1926 1.334 . S
C1927 C1928 1.287 . S
C1928 C1927 1.287 . S
C1928 C1929 1.524 . S
C1928 H1947 0.913 . S
C1929 H1905 0.950 . S
C1929 C1928 1.524 . S
C1929 C1930 1.415 . S
C1930 H1906 0.950 . S
C1930 C1925 1.363 . S
C1930 C1929 1.415 . S
C1931 H1907 0.951 . S
C1931 C1932 1.366 . S
C1931 C1933 1.388 . S
C1932 C1931 1.366 . S
C1932 C1936 1.385 . S
C1933 H1908 0.951 . S
C1933 C1931 1.388 . S
C1933 C1934 1.366 . S
C1934 C1933 1.366 . S
C1934 C1935 1.414 . S
C1934 C1937 1.499 1_455 S
C1935 H1909 0.950 1_455 S
C1935 C1934 1.414 . S
C1935 C1936 1.374 . S
C1936 H1910 0.950 . S
C1936 C1932 1.385 . S
C1936 C1935 1.374 . S
C1937 C1934 1.499 1_655 S
C1937 C1938 1.373 . S
C1937 C1939 1.389 . S
C1938 H1911 0.950 . S
C1938 C1924 1.377 . S
C1938 C1937 1.373 . S
C1939 C1923 1.377 . S
C1939 C1937 1.389 . S
C1939 C1940 1.524 1_655 S
C1940 C1939 1.524 1_455 S
C1940 C1941 1.397 . S
C1940 C1945 1.363 . S
C1941 H1912 0.950 . S
C1941 C1940 1.397 . S
C1941 C1942 1.334 . S
C1942 H1913 0.950 . S
C1942 C1941 1.334 . S
C1942 C1943 1.287 . S
C1943 C1942 1.287 . S
C1943 C1944 1.524 . S
C1943 H1946 0.999 . S
C1944 H1914 0.950 . S
C1944 C1943 1.524 . S
C1944 C1945 1.415 . S
C1945 H1915 0.950 . S
C1945 C1940 1.363 . S
C1945 C1944 1.415 . S
H1946 C1943 0.999 . S
H1947 C1928 0.913 . S
H1948 C1966 0.951 . S
H1949 C1968 0.951 . S
H1950 C1970 0.950 . S
H1951 C1971 0.950 . S
H1952 C1973 0.950 . S
H1953 C1976 0.950 . S
H1954 C1977 0.950 . S
H1955 C1979 0.950 . S
H1956 C1980 0.950 . S
H1957 C1981 0.951 . S
H1958 C1983 0.951 . S
H1959 C1985 0.950 . S
H1960 C1986 0.950 . S
H1961 C1988 0.950 . S
H1962 C1991 0.950 . S
H1963 C1992 0.950 . S
H1964 C1994 0.950 . S
H1965 C1995 0.950 . S
C1966 H1948 0.951 . S
C1966 C1967 1.366 . S
C1966 C1968 1.388 . S
C1967 C1966 1.366 . S
C1967 C1971 1.385 . S
C1968 H1949 0.951 . S
C1968 C1966 1.388 . S
C1968 C1969 1.366 . S
C1969 C1968 1.366 . S
C1969 C1970 1.414 . S
C1969 C1972 1.499 . S
C1970 H1950 0.950 . S
C1970 C1969 1.414 . S
C1970 C1971 1.374 . S
C1971 H1951 0.950 . S
C1971 C1967 1.385 . S
C1971 C1970 1.374 . S
C1972 C1969 1.499 . S
C1972 C1973 1.373 . S
C1972 C1974 1.389 . S
C1973 H1952 0.950 . S
C1973 C1972 1.373 . S
C1973 C1989 1.377 . S
C1974 C1972 1.389 . S
C1974 C1975 1.524 . S
C1974 C1988 1.377 . S
C1975 C1974 1.524 . S
C1975 C1976 1.397 . S
C1975 C1980 1.363 . S
C1976 H1953 0.950 . S
C1976 C1975 1.397 . S
C1976 C1977 1.334 . S
C1977 H1954 0.950 . S
C1977 C1976 1.334 . S
C1977 C1978 1.287 . S
C1978 C1977 1.287 . S
C1978 C1979 1.524 . S
C1978 H1997 0.913 . S
C1979 H1955 0.950 . S
C1979 C1978 1.524 . S
C1979 C1980 1.415 . S
C1980 H1956 0.950 . S
C1980 C1975 1.363 . S
C1980 C1979 1.415 . S
C1981 H1957 0.951 . S
C1981 C1982 1.366 . S
C1981 C1983 1.388 . S
C1982 C1981 1.366 . S
C1982 C1986 1.385 . S
C1983 H1958 0.951 . S
C1983 C1981 1.388 . S
C1983 C1984 1.366 . S
C1984 C1983 1.366 . S
C1984 C1985 1.414 . S
C1984 C1987 1.499 . S
C1985 H1959 0.950 . S
C1985 C1984 1.414 . S
C1985 C1986 1.374 . S
C1986 H1960 0.950 . S
C1986 C1982 1.385 . S
C1986 C1985 1.374 . S
C1987 C1984 1.499 . S
C1987 C1988 1.373 . S
C1987 C1989 1.389 . S
C1988 H1961 0.950 . S
C1988 C1974 1.377 . S
C1988 C1987 1.373 . S
C1989 C1973 1.377 . S
C1989 C1987 1.389 . S
C1989 C1990 1.524 . S
C1990 C1989 1.524 . S
C1990 C1991 1.397 . S
C1990 C1995 1.363 . S
C1991 H1962 0.950 . S
C1991 C1990 1.397 . S
C1991 C1992 1.334 . S
C1992 H1963 0.950 . S
C1992 C1991 1.334 . S
C1992 C1993 1.287 . S
C1993 C1992 1.287 . S
C1993 C1994 1.524 . S
C1993 H1996 0.999 . S
C1994 H1964 0.950 . S
C1994 C1993 1.524 . S
C1994 C1995 1.415 . S
C1995 H1965 0.950 . S
C1995 C1990 1.363 . S
C1995 C1994 1.415 . S
H1996 C1993 0.999 . S
H1997 C1978 0.913 . S
H1998 C2016 0.951 . S
H1999 C2018 0.951 . S
H2000 C2020 0.950 . S
H2001 C2021 0.950 . S
H2002 C2023 0.950 . S
H2003 C2026 0.950 . S
H2004 C2027 0.950 . S
H2005 C2029 0.950 . S
H2006 C2030 0.950 1_565 S
H2007 C2031 0.951 . S
H2008 C2033 0.951 . S
H2009 C2035 0.950 . S
H2010 C2036 0.950 . S
H2011 C2038 0.950 1_565 S
H2012 C2041 0.950 . S
H2013 C2042 0.950 . S
H2014 C2044 0.950 . S
H2015 C2045 0.950 . S
C2016 H1998 0.951 . S
C2016 C2017 1.366 . S
C2016 C2018 1.388 . S
C2017 C2016 1.366 . S
C2017 C2021 1.385 . S
C2018 H1999 0.951 . S
C2018 C2016 1.388 . S
C2018 C2019 1.366 . S
C2019 C2018 1.366 . S
C2019 C2020 1.414 . S
C2019 C2022 1.499 . S
C2020 H2000 0.950 . S
C2020 C2019 1.414 . S
C2020 C2021 1.374 . S
C2021 H2001 0.950 . S
C2021 C2017 1.385 . S
C2021 C2020 1.374 . S
C2022 C2019 1.499 . S
C2022 C2023 1.373 . S
C2022 C2024 1.389 . S
C2023 H2002 0.950 . S
C2023 C2022 1.373 . S
C2023 C2039 1.377 . S
C2024 C2022 1.389 . S
C2024 C2025 1.524 . S
C2024 C2038 1.377 . S
C2025 C2024 1.524 . S
C2025 C2026 1.397 . S
C2025 C2030 1.363 . S
C2026 H2003 0.950 . S
C2026 C2025 1.397 . S
C2026 C2027 1.334 . S
C2027 H2004 0.950 . S
C2027 C2026 1.334 . S
C2027 C2028 1.287 . S
C2028 C2027 1.287 . S
C2028 C2029 1.524 . S
C2028 H2047 0.913 . S
C2029 H2005 0.950 . S
C2029 C2028 1.524 . S
C2029 C2030 1.415 . S
C2030 H2006 0.950 1_545 S
C2030 C2025 1.363 . S
C2030 C2029 1.415 . S
C2031 H2007 0.951 . S
C2031 C2032 1.366 . S
C2031 C2033 1.388 . S
C2032 C2031 1.366 . S
C2032 C2036 1.385 . S
C2033 H2008 0.951 . S
C2033 C2031 1.388 . S
C2033 C2034 1.366 . S
C2034 C2033 1.366 . S
C2034 C2035 1.414 . S
C2034 C2037 1.499 . S
C2035 H2009 0.950 . S
C2035 C2034 1.414 . S
C2035 C2036 1.374 . S
C2036 H2010 0.950 . S
C2036 C2032 1.385 . S
C2036 C2035 1.374 . S
C2037 C2034 1.499 . S
C2037 C2038 1.373 1_565 S
C2037 C2039 1.389 1_565 S
C2038 H2011 0.950 1_545 S
C2038 C2024 1.377 . S
C2038 C2037 1.373 1_545 S
C2039 C2023 1.377 . S
C2039 C2037 1.389 1_545 S
C2039 C2040 1.524 . S
C2040 C2039 1.524 . S
C2040 C2041 1.397 1_545 S
C2040 C2045 1.363 . S
C2041 H2012 0.950 . S
C2041 C2040 1.397 1_565 S
C2041 C2042 1.334 . S
C2042 H2013 0.950 . S
C2042 C2041 1.334 . S
C2042 C2043 1.287 . S
C2043 C2042 1.287 . S
C2043 C2044 1.524 1_565 S
C2043 H2046 0.999 . S
C2044 H2014 0.950 . S
C2044 C2043 1.524 1_545 S
C2044 C2045 1.415 . S
C2045 H2015 0.950 . S
C2045 C2040 1.363 . S
C2045 C2044 1.415 . S
H2046 C2043 0.999 . S
H2047 C2028 0.913 . S
H2048 C2066 0.951 . S
H2049 C2068 0.951 . S
H2050 C2070 0.950 . S
H2051 C2071 0.950 . S
H2052 C2073 0.950 . S
H2053 C2076 0.950 . S
H2054 C2077 0.950 . S
H2055 C2079 0.950 . S
H2056 C2080 0.950 . S
H2057 C2081 0.951 . S
H2058 C2083 0.951 . S
H2059 C2085 0.950 . S
H2060 C2086 0.950 . S
H2061 C2088 0.950 . S
H2062 C2091 0.950 . S
H2063 C2092 0.950 . S
H2064 C2094 0.950 . S
H2065 C2095 0.950 . S
C2066 H2048 0.951 . S
C2066 C2067 1.366 . S
C2066 C2068 1.388 . S
C2067 C2066 1.366 . S
C2067 C2071 1.385 . S
C2068 H2049 0.951 . S
C2068 C2066 1.388 . S
C2068 C2069 1.366 . S
C2069 C2068 1.366 . S
C2069 C2070 1.414 . S
C2069 C2072 1.499 . S
C2070 H2050 0.950 . S
C2070 C2069 1.414 . S
C2070 C2071 1.374 . S
C2071 H2051 0.950 . S
C2071 C2067 1.385 . S
C2071 C2070 1.374 . S
C2072 C2069 1.499 . S
C2072 C2073 1.373 . S
C2072 C2074 1.389 . S
C2073 H2052 0.950 . S
C2073 C2072 1.373 . S
C2073 C2089 1.377 . S
C2074 C2072 1.389 . S
C2074 C2075 1.524 . S
C2074 C2088 1.377 . S
C2075 C2074 1.524 . S
C2075 C2076 1.397 . S
C2075 C2080 1.363 . S
C2076 H2053 0.950 . S
C2076 C2075 1.397 . S
C2076 C2077 1.334 . S
C2077 H2054 0.950 . S
C2077 C2076 1.334 . S
C2077 C2078 1.287 . S
C2078 C2077 1.287 . S
C2078 C2079 1.524 . S
C2078 H2097 0.913 . S
C2079 H2055 0.950 . S
C2079 C2078 1.524 . S
C2079 C2080 1.415 . S
C2080 H2056 0.950 . S
C2080 C2075 1.363 . S
C2080 C2079 1.415 . S
C2081 H2057 0.951 . S
C2081 C2082 1.366 . S
C2081 C2083 1.388 . S
C2082 C2081 1.366 . S
C2082 C2086 1.385 . S
C2083 H2058 0.951 . S
C2083 C2081 1.388 . S
C2083 C2084 1.366 . S
C2084 C2083 1.366 . S
C2084 C2085 1.414 . S
C2084 C2087 1.499 . S
C2085 H2059 0.950 . S
C2085 C2084 1.414 . S
C2085 C2086 1.374 . S
C2086 H2060 0.950 . S
C2086 C2082 1.385 . S
C2086 C2085 1.374 . S
C2087 C2084 1.499 . S
C2087 C2088 1.373 . S
C2087 C2089 1.389 . S
C2088 H2061 0.950 . S
C2088 C2074 1.377 . S
C2088 C2087 1.373 . S
C2089 C2073 1.377 . S
C2089 C2087 1.389 . S
C2089 C2090 1.524 . S
C2090 C2089 1.524 . S
C2090 C2091 1.397 . S
C2090 C2095 1.363 . S
C2091 H2062 0.950 . S
C2091 C2090 1.397 . S
C2091 C2092 1.334 . S
C2092 H2063 0.950 . S
C2092 C2091 1.334 . S
C2092 C2093 1.287 . S
C2093 C2092 1.287 . S
C2093 C2094 1.524 . S
C2093 H2096 0.999 . S
C2094 H2064 0.950 . S
C2094 C2093 1.524 . S
C2094 C2095 1.415 . S
C2095 H2065 0.950 . S
C2095 C2090 1.363 . S
C2095 C2094 1.415 . S
H2096 C2093 0.999 . S
H2097 C2078 0.913 . S
H2098 C2116 0.951 . S
H2099 C2118 0.951 . S
H2100 C2120 0.950 . S
H2101 C2121 0.950 . S
H2102 C2123 0.950 . S
H2103 C2126 0.950 . S
H2104 C2127 0.950 . S
H2105 C2129 0.950 1_545 S
H2106 C2130 0.950 . S
H2107 C2131 0.951 . S
H2108 C2133 0.951 . S
H2109 C2135 0.950 . S
H2110 C2136 0.950 . S
H2111 C2138 0.950 . S
H2112 C2141 0.950 . S
H2113 C2142 0.950 . S
H2114 C2144 0.950 . S
H2115 C2145 0.950 1_565 S
C2116 H2098 0.951 . S
C2116 C2117 1.366 . S
C2116 C2118 1.388 . S
C2117 C2116 1.366 . S
C2117 C2121 1.385 . S
C2118 H2099 0.951 . S
C2118 C2116 1.388 . S
C2118 C2119 1.366 . S
C2119 C2118 1.366 . S
C2119 C2120 1.414 . S
C2119 C2122 1.499 . S
C2120 H2100 0.950 . S
C2120 C2119 1.414 . S
C2120 C2121 1.374 . S
C2121 H2101 0.950 . S
C2121 C2117 1.385 . S
C2121 C2120 1.374 . S
C2122 C2119 1.499 . S
C2122 C2123 1.373 . S
C2122 C2124 1.389 . S
C2123 H2102 0.950 . S
C2123 C2122 1.373 . S
C2123 C2139 1.377 1_565 S
C2124 C2122 1.389 . S
C2124 C2125 1.524 . S
C2124 C2138 1.377 1_565 S
C2125 C2124 1.524 . S
C2125 C2126 1.397 . S
C2125 C2130 1.363 1_565 S
C2126 H2103 0.950 . S
C2126 C2125 1.397 . S
C2126 C2127 1.334 . S
C2127 H2104 0.950 . S
C2127 C2126 1.334 . S
C2127 C2128 1.287 . S
C2128 C2127 1.287 . S
C2128 C2129 1.524 . S
C2128 H2147 0.913 . S
C2129 H2105 0.950 1_565 S
C2129 C2128 1.524 . S
C2129 C2130 1.415 1_565 S
C2130 H2106 0.950 . S
C2130 C2125 1.363 1_545 S
C2130 C2129 1.415 1_545 S
C2131 H2107 0.951 . S
C2131 C2132 1.366 . S
C2131 C2133 1.388 . S
C2132 C2131 1.366 . S
C2132 C2136 1.385 . S
C2133 H2108 0.951 . S
C2133 C2131 1.388 . S
C2133 C2134 1.366 . S
C2134 C2133 1.366 . S
C2134 C2135 1.414 . S
C2134 C2137 1.499 . S
C2135 H2109 0.950 . S
C2135 C2134 1.414 . S
C2135 C2136 1.374 . S
C2136 H2110 0.950 . S
C2136 C2132 1.385 . S
C2136 C2135 1.374 . S
C2137 C2134 1.499 . S
C2137 C2138 1.373 . S
C2137 C2139 1.389 . S
C2138 H2111 0.950 . S
C2138 C2124 1.377 1_545 S
C2138 C2137 1.373 . S
C2139 C2123 1.377 1_545 S
C2139 C2137 1.389 . S
C2139 C2140 1.524 . S
C2140 C2139 1.524 . S
C2140 C2141 1.397 . S
C2140 C2145 1.363 . S
C2141 H2112 0.950 . S
C2141 C2140 1.397 . S
C2141 C2142 1.334 . S
C2142 H2113 0.950 . S
C2142 C2141 1.334 . S
C2142 C2143 1.287 . S
C2143 C2142 1.287 . S
C2143 C2144 1.524 . S
C2143 H2146 0.999 . S
C2144 H2114 0.950 . S
C2144 C2143 1.524 . S
C2144 C2145 1.415 . S
C2145 H2115 0.950 1_545 S
C2145 C2140 1.363 . S
C2145 C2144 1.415 . S
H2146 C2143 0.999 . S
H2147 C2128 0.913 . S
H2148 C2166 0.951 . S
H2149 C2168 0.951 . S
H2150 C2170 0.950 . S
H2151 C2171 0.950 . S
H2152 C2173 0.950 . S
H2153 C2176 0.950 . S
H2154 C2177 0.950 . S
H2155 C2179 0.950 . S
H2156 C2180 0.950 . S
H2157 C2181 0.951 . S
H2158 C2183 0.951 . S
H2159 C2185 0.950 . S
H2160 C2186 0.950 . S
H2161 C2188 0.954 . S
H2162 C2191 0.950 . S
H2163 C2192 0.950 . S
H2164 C2194 0.950 . S
H2165 C2195 0.950 . S
C2166 H2148 0.951 . S
C2166 C2167 1.366 . S
C2166 C2168 1.388 . S
C2167 C2166 1.366 . S
C2167 C2171 1.385 . S
C2168 H2149 0.951 . S
C2168 C2166 1.388 . S
C2168 C2169 1.366 . S
C2169 C2168 1.366 . S
C2169 C2170 1.414 . S
C2169 C2172 1.499 . S
C2170 H2150 0.950 . S
C2170 C2169 1.414 . S
C2170 C2171 1.374 . S
C2171 H2151 0.950 . S
C2171 C2167 1.385 . S
C2171 C2170 1.374 . S
C2172 C2169 1.499 . S
C2172 C2173 1.373 1_556 S
C2172 C2174 1.389 . S
C2173 H2152 0.950 . S
C2173 C2172 1.373 1_554 S
C2173 C2189 1.377 . S
C2174 C2172 1.389 . S
C2174 C2175 1.524 . S
C2174 C2188 1.377 1_556 S
C2175 C2174 1.524 . S
C2175 C2176 1.397 . S
C2175 C2180 1.363 . S
C2176 H2153 0.950 . S
C2176 C2175 1.397 . S
C2176 C2177 1.334 . S
C2177 H2154 0.950 . S
C2177 C2176 1.334 . S
C2177 C2178 1.287 . S
C2178 C2177 1.287 . S
C2178 C2179 1.524 . S
C2178 H2197 0.913 . S
C2179 H2155 0.950 . S
C2179 C2178 1.524 . S
C2179 C2180 1.415 . S
C2180 H2156 0.950 . S
C2180 C2175 1.363 . S
C2180 C2179 1.415 . S
C2181 H2157 0.951 . S
C2181 C2182 1.366 . S
C2181 C2183 1.388 . S
C2182 C2181 1.366 . S
C2182 C2186 1.385 . S
C2183 H2158 0.951 . S
C2183 C2181 1.388 . S
C2183 C2184 1.366 . S
C2184 C2183 1.366 . S
C2184 C2185 1.414 . S
C2184 C2187 1.499 . S
C2185 H2159 0.950 . S
C2185 C2184 1.414 . S
C2185 C2186 1.374 . S
C2186 H2160 0.950 . S
C2186 C2182 1.385 . S
C2186 C2185 1.374 . S
C2187 C2184 1.499 . S
C2187 C2188 1.373 . S
C2187 C2189 1.389 . S
C2188 H2161 0.954 . S
C2188 C2174 1.377 1_554 S
C2188 C2187 1.373 . S
C2189 C2173 1.377 . S
C2189 C2187 1.389 . S
C2189 C2190 1.524 . S
C2190 C2189 1.524 . S
C2190 C2191 1.397 . S
C2190 C2195 1.363 . S
C2191 H2162 0.950 . S
C2191 C2190 1.397 . S
C2191 C2192 1.334 . S
C2192 H2163 0.950 . S
C2192 C2191 1.334 . S
C2192 C2193 1.287 . S
C2193 C2192 1.287 . S
C2193 C2194 1.524 . S
C2193 H2196 0.999 . S
C2194 H2164 0.950 . S
C2194 C2193 1.524 . S
C2194 C2195 1.415 . S
C2195 H2165 0.950 . S
C2195 C2190 1.363 . S
C2195 C2194 1.415 . S
H2196 C2193 0.999 . S
H2197 C2178 0.913 . S
H2198 C2216 0.951 . S
H2199 C2218 0.951 . S
H2200 C2220 0.950 . S
H2201 C2221 0.950 . S
H2202 C2223 0.950 . S
H2203 C2226 0.950 . S
H2204 C2227 0.950 . S
H2205 C2229 0.950 . S
H2206 C2230 0.950 . S
H2207 C2231 0.951 . S
H2208 C2233 0.951 . S
H2209 C2235 0.950 . S
H2210 C2236 0.950 . S
H2211 C2238 0.950 . S
H2212 C2241 0.950 . S
H2213 C2242 0.950 . S
H2214 C2244 0.950 . S
H2215 C2245 0.950 . S
C2216 H2198 0.951 . S
C2216 C2217 1.366 . S
C2216 C2218 1.388 . S
C2217 C2216 1.366 . S
C2217 C2221 1.385 . S
C2218 H2199 0.951 . S
C2218 C2216 1.388 . S
C2218 C2219 1.366 . S
C2219 C2218 1.366 . S
C2219 C2220 1.414 . S
C2219 C2222 1.499 . S
C2220 H2200 0.950 . S
C2220 C2219 1.414 . S
C2220 C2221 1.374 . S
C2221 H2201 0.950 . S
C2221 C2217 1.385 . S
C2221 C2220 1.374 . S
C2222 C2219 1.499 . S
C2222 C2223 1.373 . S
C2222 C2224 1.389 1_545 S
C2223 H2202 0.950 . S
C2223 C2222 1.373 . S
C2223 C2239 1.377 1_545 S
C2224 C2222 1.389 1_565 S
C2224 C2225 1.524 1_565 S
C2224 C2238 1.377 . S
C2225 C2224 1.524 1_545 S
C2225 C2226 1.397 . S
C2225 C2230 1.363 1_545 S
C2226 H2203 0.950 . S
C2226 C2225 1.397 . S
C2226 C2227 1.334 . S
C2227 H2204 0.950 . S
C2227 C2226 1.334 . S
C2227 C2228 1.287 . S
C2228 C2227 1.287 . S
C2228 C2229 1.524 1_545 S
C2228 H2247 0.913 . S
C2229 H2205 0.950 . S
C2229 C2228 1.524 1_565 S
C2229 C2230 1.415 . S
C2230 H2206 0.950 . S
C2230 C2225 1.363 1_565 S
C2230 C2229 1.415 . S
C2231 H2207 0.951 . S
C2231 C2232 1.366 . S
C2231 C2233 1.388 . S
C2232 C2231 1.366 . S
C2232 C2236 1.385 . S
C2233 H2208 0.951 . S
C2233 C2231 1.388 . S
C2233 C2234 1.366 . S
C2234 C2233 1.366 . S
C2234 C2235 1.414 . S
C2234 C2237 1.499 . S
C2235 H2209 0.950 . S
C2235 C2234 1.414 . S
C2235 C2236 1.374 . S
C2236 H2210 0.950 . S
C2236 C2232 1.385 . S
C2236 C2235 1.374 . S
C2237 C2234 1.499 . S
C2237 C2238 1.373 . S
C2237 C2239 1.389 . S
C2238 H2211 0.950 . S
C2238 C2224 1.377 . S
C2238 C2237 1.373 . S
C2239 C2223 1.377 1_565 S
C2239 C2237 1.389 . S
C2239 C2240 1.524 . S
C2240 C2239 1.524 . S
C2240 C2241 1.397 . S
C2240 C2245 1.363 1_565 S
C2241 H2212 0.950 . S
C2241 C2240 1.397 . S
C2241 C2242 1.334 . S
C2242 H2213 0.950 . S
C2242 C2241 1.334 . S
C2242 C2243 1.287 . S
C2243 C2242 1.287 . S
C2243 C2244 1.524 1_565 S
C2243 H2246 0.999 . S
C2244 H2214 0.950 . S
C2244 C2243 1.524 1_545 S
C2244 C2245 1.415 . S
C2245 H2215 0.950 . S
C2245 C2240 1.363 1_545 S
C2245 C2244 1.415 . S
H2246 C2243 0.999 . S
H2247 C2228 0.913 . S
H2248 C2266 0.951 . S
H2249 C2268 0.951 . S
H2250 C2270 0.950 . S
H2251 C2271 0.950 . S
H2252 C2273 0.950 . S
H2253 C2276 0.950 . S
H2254 C2277 0.950 . S
H2255 C2279 0.950 . S
H2256 C2280 0.950 . S
H2257 C2281 0.951 . S
H2258 C2283 0.951 . S
H2259 C2285 0.950 . S
H2260 C2286 0.950 . S
H2261 C2288 0.950 . S
H2262 C2291 0.950 . S
H2263 C2292 0.950 . S
H2264 C2294 0.950 . S
H2265 C2295 0.950 . S
C2266 H2248 0.951 . S
C2266 C2267 1.366 . S
C2266 C2268 1.388 . S
C2267 C2266 1.366 . S
C2267 C2271 1.385 . S
C2268 H2249 0.951 . S
C2268 C2266 1.388 . S
C2268 C2269 1.366 . S
C2269 C2268 1.366 . S
C2269 C2270 1.414 . S
C2269 C2272 1.499 . S
C2270 H2250 0.950 . S
C2270 C2269 1.414 . S
C2270 C2271 1.374 . S
C2271 H2251 0.950 . S
C2271 C2267 1.385 . S
C2271 C2270 1.374 . S
C2272 C2269 1.499 . S
C2272 C2273 1.373 . S
C2272 C2274 1.389 . S
C2273 H2252 0.950 . S
C2273 C2272 1.373 . S
C2273 C2289 1.377 . S
C2274 C2272 1.389 . S
C2274 C2275 1.524 . S
C2274 C2288 1.377 . S
C2275 C2274 1.524 . S
C2275 C2276 1.397 . S
C2275 C2280 1.363 . S
C2276 H2253 0.950 . S
C2276 C2275 1.397 . S
C2276 C2277 1.334 . S
C2277 H2254 0.950 . S
C2277 C2276 1.334 . S
C2277 C2278 1.287 . S
C2278 C2277 1.287 . S
C2278 C2279 1.524 . S
C2278 H2297 0.913 . S
C2279 H2255 0.950 . S
C2279 C2278 1.524 . S
C2279 C2280 1.415 . S
C2280 H2256 0.950 . S
C2280 C2275 1.363 . S
C2280 C2279 1.415 . S
C2281 H2257 0.951 . S
C2281 C2282 1.366 . S
C2281 C2283 1.388 . S
C2282 C2281 1.366 . S
C2282 C2286 1.385 . S
C2283 H2258 0.951 . S
C2283 C2281 1.388 . S
C2283 C2284 1.366 . S
C2284 C2283 1.366 . S
C2284 C2285 1.414 . S
C2284 C2287 1.499 . S
C2285 H2259 0.950 . S
C2285 C2284 1.414 . S
C2285 C2286 1.374 . S
C2286 H2260 0.950 . S
C2286 C2282 1.385 . S
C2286 C2285 1.374 . S
C2287 C2284 1.499 . S
C2287 C2288 1.373 . S
C2287 C2289 1.389 . S
C2288 H2261 0.950 . S
C2288 C2274 1.377 . S
C2288 C2287 1.373 . S
C2289 C2273 1.377 . S
C2289 C2287 1.389 . S
C2289 C2290 1.524 . S
C2290 C2289 1.524 . S
C2290 C2291 1.397 . S
C2290 C2295 1.363 . S
C2291 H2262 0.950 . S
C2291 C2290 1.397 . S
C2291 C2292 1.334 . S
C2292 H2263 0.950 . S
C2292 C2291 1.334 . S
C2292 C2293 1.287 . S
C2293 C2292 1.287 . S
C2293 C2294 1.524 . S
C2293 H2296 0.999 . S
C2294 H2264 0.950 . S
C2294 C2293 1.524 . S
C2294 C2295 1.415 . S
C2295 H2265 0.950 . S
C2295 C2290 1.363 . S
C2295 C2294 1.415 . S
H2296 C2293 0.999 . S
H2297 C2278 0.913 . S
H2298 C2316 0.951 . S
H2299 C2318 0.951 . S
H2300 C2320 0.950 . S
H2301 C2321 0.950 . S
H2302 C2323 0.950 . S
H2303 C2326 0.950 . S
H2304 C2327 0.950 . S
H2305 C2329 0.950 . S
H2306 C2330 0.950 . S
H2307 C2331 0.951 . S
H2308 C2333 0.951 . S
H2309 C2335 0.950 . S
H2310 C2336 0.950 . S
H2311 C2338 0.950 . S
H2312 C2341 0.950 . S
H2313 C2342 0.950 . S
H2314 C2344 0.950 . S
H2315 C2345 0.950 . S
C2316 H2298 0.951 . S
C2316 C2317 1.366 . S
C2316 C2318 1.388 . S
C2317 C2316 1.366 . S
C2317 C2321 1.385 . S
C2318 H2299 0.951 . S
C2318 C2316 1.388 . S
C2318 C2319 1.366 . S
C2319 C2318 1.366 . S
C2319 C2320 1.414 . S
C2319 C2322 1.499 . S
C2320 H2300 0.950 . S
C2320 C2319 1.414 . S
C2320 C2321 1.374 . S
C2321 H2301 0.950 . S
C2321 C2317 1.385 . S
C2321 C2320 1.374 . S
C2322 C2319 1.499 . S
C2322 C2323 1.373 1_565 S
C2322 C2324 1.389 . S
C2323 H2302 0.950 . S
C2323 C2322 1.373 1_545 S
C2323 C2339 1.377 . S
C2324 C2322 1.389 . S
C2324 C2325 1.524 . S
C2324 C2338 1.377 1_565 S
C2325 C2324 1.524 . S
C2325 C2326 1.397 . S
C2325 C2330 1.363 . S
C2326 H2303 0.950 . S
C2326 C2325 1.397 . S
C2326 C2327 1.334 . S
C2327 H2304 0.950 . S
C2327 C2326 1.334 . S
C2327 C2328 1.287 . S
C2328 C2327 1.287 . S
C2328 C2329 1.524 . S
C2328 H2347 0.913 . S
C2329 H2305 0.950 . S
C2329 C2328 1.524 . S
C2329 C2330 1.415 . S
C2330 H2306 0.950 . S
C2330 C2325 1.363 . S
C2330 C2329 1.415 . S
C2331 H2307 0.951 . S
C2331 C2332 1.366 . S
C2331 C2333 1.388 . S
C2332 C2331 1.366 . S
C2332 C2336 1.385 . S
C2333 H2308 0.951 . S
C2333 C2331 1.388 . S
C2333 C2334 1.366 . S
C2334 C2333 1.366 . S
C2334 C2335 1.414 . S
C2334 C2337 1.499 . S
C2335 H2309 0.950 . S
C2335 C2334 1.414 . S
C2335 C2336 1.374 . S
C2336 H2310 0.950 . S
C2336 C2332 1.385 . S
C2336 C2335 1.374 . S
C2337 C2334 1.499 . S
C2337 C2338 1.373 . S
C2337 C2339 1.389 . S
C2338 H2311 0.950 . S
C2338 C2324 1.377 1_545 S
C2338 C2337 1.373 . S
C2339 C2323 1.377 . S
C2339 C2337 1.389 . S
C2339 C2340 1.524 . S
C2340 C2339 1.524 . S
C2340 C2341 1.397 . S
C2340 C2345 1.363 . S
C2341 H2312 0.950 . S
C2341 C2340 1.397 . S
C2341 C2342 1.334 . S
C2342 H2313 0.950 . S
C2342 C2341 1.334 . S
C2342 C2343 1.287 . S
C2343 C2342 1.287 . S
C2343 C2344 1.524 . S
C2343 H2346 0.999 . S
C2344 H2314 0.950 . S
C2344 C2343 1.524 . S
C2344 C2345 1.415 . S
C2345 H2315 0.950 . S
C2345 C2340 1.363 . S
C2345 C2344 1.415 . S
H2346 C2343 0.999 . S
H2347 C2328 0.913 . S
H2348 C2366 0.951 . S
H2349 C2368 0.951 1_556 S
H2350 C2370 0.950 . S
H2351 C2371 0.950 . S
H2352 C2373 0.950 1_554 S
H2353 C2376 0.950 . S
H2354 C2377 0.950 . S
H2355 C2379 0.950 . S
H2356 C2380 0.950 . S
H2357 C2381 0.951 . S
H2358 C2383 0.951 . S
H2359 C2385 0.950 . S
H2360 C2386 0.950 . S
H2361 C2388 0.950 . S
H2362 C2391 0.950 . S
H2363 C2392 0.950 1_556 S
H2364 C2394 0.950 . S
H2365 C2395 0.950 . S
C2366 H2348 0.951 . S
C2366 C2367 1.366 . S
C2366 C2368 1.388 . S
C2367 C2366 1.366 . S
C2367 C2371 1.385 . S
C2368 H2349 0.951 1_554 S
C2368 C2366 1.388 . S
C2368 C2369 1.366 . S
C2369 C2368 1.366 . S
C2369 C2370 1.414 . S
C2369 C2372 1.499 1_554 S
C2370 H2350 0.950 . S
C2370 C2369 1.414 . S
C2370 C2371 1.374 . S
C2371 H2351 0.950 . S
C2371 C2367 1.385 . S
C2371 C2370 1.374 . S
C2372 C2369 1.499 1_556 S
C2372 C2373 1.373 . S
C2372 C2374 1.389 . S
C2373 H2352 0.950 1_556 S
C2373 C2372 1.373 . S
C2373 C2389 1.377 . S
C2374 C2372 1.389 . S
C2374 C2375 1.524 . S
C2374 C2388 1.377 . S
C2375 C2374 1.524 . S
C2375 C2376 1.397 . S
C2375 C2380 1.363 . S
C2376 H2353 0.950 . S
C2376 C2375 1.397 . S
C2376 C2377 1.334 . S
C2377 H2354 0.950 . S
C2377 C2376 1.334 . S
C2377 C2378 1.287 . S
C2378 C2377 1.287 . S
C2378 C2379 1.524 . S
C2378 H2397 0.913 . S
C2379 H2355 0.950 . S
C2379 C2378 1.524 . S
C2379 C2380 1.415 . S
C2380 H2356 0.950 . S
C2380 C2375 1.363 . S
C2380 C2379 1.415 . S
C2381 H2357 0.951 . S
C2381 C2382 1.366 . S
C2381 C2383 1.388 . S
C2382 C2381 1.366 . S
C2382 C2386 1.385 . S
C2383 H2358 0.951 . S
C2383 C2381 1.388 . S
C2383 C2384 1.366 . S
C2384 C2383 1.366 . S
C2384 C2385 1.414 . S
C2384 C2387 1.499 . S
C2385 H2359 0.950 . S
C2385 C2384 1.414 . S
C2385 C2386 1.374 . S
C2386 H2360 0.950 . S
C2386 C2382 1.385 . S
C2386 C2385 1.374 . S
C2387 C2384 1.499 . S
C2387 C2388 1.373 . S
C2387 C2389 1.389 . S
C2388 H2361 0.950 . S
C2388 C2374 1.377 . S
C2388 C2387 1.373 . S
C2389 C2373 1.377 . S
C2389 C2387 1.389 . S
C2389 C2390 1.524 . S
C2390 C2389 1.524 . S
C2390 C2391 1.397 . S
C2390 C2395 1.363 1_556 S
C2391 H2362 0.950 . S
C2391 C2390 1.397 . S
C2391 C2392 1.334 1_556 S
C2392 H2363 0.950 1_554 S
C2392 C2391 1.334 1_554 S
C2392 C2393 1.287 . S
C2393 C2392 1.287 . S
C2393 C2394 1.524 . S
C2393 H2396 0.999 . S
C2394 H2364 0.950 . S
C2394 C2393 1.524 . S
C2394 C2395 1.415 . S
C2395 H2365 0.950 . S
C2395 C2390 1.363 1_554 S
C2395 C2394 1.415 . S
H2396 C2393 0.999 . S
H2397 C2378 0.913 . S
H2398 C2416 0.951 . S
H2399 C2418 0.951 . S
H2400 C2420 0.950 . S
H2401 C2421 0.950 . S
H2402 C2423 0.950 . S
H2403 C2426 0.950 . S
H2404 C2427 0.950 . S
H2405 C2429 0.950 . S
H2406 C2430 0.950 . S
H2407 C2431 0.951 . S
H2408 C2433 0.951 . S
H2409 C2435 0.950 . S
H2410 C2436 0.950 . S
H2411 C2438 0.950 . S
H2412 C2441 0.950 . S
H2413 C2442 0.950 . S
H2414 C2444 0.950 1_655 S
H2415 C2445 0.950 . S
C2416 H2398 0.951 . S
C2416 C2417 1.366 . S
C2416 C2418 1.388 1_655 S
C2417 C2416 1.366 . S
C2417 C2421 1.385 . S
C2418 H2399 0.951 . S
C2418 C2416 1.388 1_455 S
C2418 C2419 1.366 . S
C2419 C2418 1.366 . S
C2419 C2420 1.414 1_455 S
C2419 C2422 1.499 . S
C2420 H2400 0.950 . S
C2420 C2419 1.414 1_655 S
C2420 C2421 1.374 . S
C2421 H2401 0.950 . S
C2421 C2417 1.385 . S
C2421 C2420 1.374 . S
C2422 C2419 1.499 . S
C2422 C2423 1.373 . S
C2422 C2424 1.389 . S
C2423 H2402 0.950 . S
C2423 C2422 1.373 . S
C2423 C2439 1.377 . S
C2424 C2422 1.389 . S
C2424 C2425 1.524 . S
C2424 C2438 1.377 . S
C2425 C2424 1.524 . S
C2425 C2426 1.397 . S
C2425 C2430 1.363 . S
C2426 H2403 0.950 . S
C2426 C2425 1.397 . S
C2426 C2427 1.334 . S
C2427 H2404 0.950 . S
C2427 C2426 1.334 . S
C2427 C2428 1.287 . S
C2428 C2427 1.287 . S
C2428 C2429 1.524 . S
C2428 H2447 0.913 . S
C2429 H2405 0.950 . S
C2429 C2428 1.524 . S
C2429 C2430 1.415 . S
C2430 H2406 0.950 . S
C2430 C2425 1.363 . S
C2430 C2429 1.415 . S
C2431 H2407 0.951 . S
C2431 C2432 1.366 . S
C2431 C2433 1.388 . S
C2432 C2431 1.366 . S
C2432 C2436 1.385 . S
C2433 H2408 0.951 . S
C2433 C2431 1.388 . S
C2433 C2434 1.366 . S
C2434 C2433 1.366 . S
C2434 C2435 1.414 . S
C2434 C2437 1.499 . S
C2435 H2409 0.950 . S
C2435 C2434 1.414 . S
C2435 C2436 1.374 . S
C2436 H2410 0.950 . S
C2436 C2432 1.385 . S
C2436 C2435 1.374 . S
C2437 C2434 1.499 . S
C2437 C2438 1.373 . S
C2437 C2439 1.389 . S
C2438 H2411 0.950 . S
C2438 C2424 1.377 . S
C2438 C2437 1.373 . S
C2439 C2423 1.377 . S
C2439 C2437 1.389 . S
C2439 C2440 1.524 . S
C2440 C2439 1.524 . S
C2440 C2441 1.397 . S
C2440 C2445 1.363 . S
C2441 H2412 0.950 . S
C2441 C2440 1.397 . S
C2441 C2442 1.334 . S
C2442 H2413 0.950 . S
C2442 C2441 1.334 . S
C2442 C2443 1.287 . S
C2443 C2442 1.287 . S
C2443 C2444 1.524 . S
C2443 H2446 0.999 . S
C2444 H2414 0.950 1_455 S
C2444 C2443 1.524 . S
C2444 C2445 1.415 . S
C2445 H2415 0.950 . S
C2445 C2440 1.363 . S
C2445 C2444 1.415 . S
H2446 C2443 0.999 . S
H2447 C2428 0.913 . S
H2448 C2466 0.951 . S
H2449 C2468 0.951 . S
H2450 C2470 0.950 . S
H2451 C2471 0.950 . S
H2452 C2473 0.950 . S
H2453 C2476 0.950 . S
H2454 C2477 0.950 . S
H2455 C2479 0.950 . S
H2456 C2480 0.950 . S
H2457 C2481 0.951 . S
H2458 C2483 0.951 . S
H2459 C2485 0.950 . S
H2460 C2486 0.950 . S
H2461 C2488 0.950 . S
H2462 C2491 0.950 . S
H2463 C2492 0.950 . S
H2464 C2494 0.950 . S
H2465 C2495 0.950 . S
C2466 H2448 0.951 . S
C2466 C2467 1.366 . S
C2466 C2468 1.388 . S
C2467 C2466 1.366 . S
C2467 C2471 1.385 . S
C2468 H2449 0.951 . S
C2468 C2466 1.388 . S
C2468 C2469 1.366 . S
C2469 C2468 1.366 . S
C2469 C2470 1.414 . S
C2469 C2472 1.499 . S
C2470 H2450 0.950 . S
C2470 C2469 1.414 . S
C2470 C2471 1.374 . S
C2471 H2451 0.950 . S
C2471 C2467 1.385 . S
C2471 C2470 1.374 . S
C2472 C2469 1.499 . S
C2472 C2473 1.373 . S
C2472 C2474 1.389 . S
C2473 H2452 0.950 . S
C2473 C2472 1.373 . S
C2473 C2489 1.377 . S
C2474 C2472 1.389 . S
C2474 C2475 1.524 . S
C2474 C2488 1.377 . S
C2475 C2474 1.524 . S
C2475 C2476 1.397 . S
C2475 C2480 1.363 . S
C2476 H2453 0.950 . S
C2476 C2475 1.397 . S
C2476 C2477 1.334 . S
C2477 H2454 0.950 . S
C2477 C2476 1.334 . S
C2477 C2478 1.287 . S
C2478 C2477 1.287 . S
C2478 C2479 1.524 . S
C2478 H2497 0.913 . S
C2479 H2455 0.950 . S
C2479 C2478 1.524 . S
C2479 C2480 1.415 . S
C2480 H2456 0.950 . S
C2480 C2475 1.363 . S
C2480 C2479 1.415 . S
C2481 H2457 0.951 . S
C2481 C2482 1.366 . S
C2481 C2483 1.388 . S
C2482 C2481 1.366 . S
C2482 C2486 1.385 . S
C2483 H2458 0.951 . S
C2483 C2481 1.388 . S
C2483 C2484 1.366 . S
C2484 C2483 1.366 . S
C2484 C2485 1.414 . S
C2484 C2487 1.499 . S
C2485 H2459 0.950 . S
C2485 C2484 1.414 . S
C2485 C2486 1.374 . S
C2486 H2460 0.950 . S
C2486 C2482 1.385 . S
C2486 C2485 1.374 . S
C2487 C2484 1.499 . S
C2487 C2488 1.373 . S
C2487 C2489 1.389 . S
C2488 H2461 0.950 . S
C2488 C2474 1.377 . S
C2488 C2487 1.373 . S
C2489 C2473 1.377 . S
C2489 C2487 1.389 . S
C2489 C2490 1.524 . S
C2490 C2489 1.524 . S
C2490 C2491 1.397 . S
C2490 C2495 1.363 . S
C2491 H2462 0.950 . S
C2491 C2490 1.397 . S
C2491 C2492 1.334 . S
C2492 H2463 0.950 . S
C2492 C2491 1.334 . S
C2492 C2493 1.287 . S
C2493 C2492 1.287 . S
C2493 C2494 1.524 . S
C2493 H2496 0.999 . S
C2494 H2464 0.950 . S
C2494 C2493 1.524 . S
C2494 C2495 1.415 . S
C2495 H2465 0.950 . S
C2495 C2490 1.363 . S
C2495 C2494 1.415 . S
H2496 C2493 0.999 . S
H2497 C2478 0.913 . S
H2498 C2516 0.951 . S
H2499 C2518 0.951 . S
H2500 C2520 0.950 . S
H2501 C2521 0.950 . S
H2502 C2523 0.950 . S
H2503 C2526 0.950 . S
H2504 C2527 0.950 . S
H2505 C2529 0.950 . S
H2506 C2530 0.950 . S
H2507 C2531 0.951 . S
H2508 C2533 0.951 . S
H2509 C2535 0.950 . S
H2510 C2536 0.950 . S
H2511 C2538 0.950 . S
H2512 C2541 0.950 . S
H2513 C2542 0.950 . S
H2514 C2544 0.950 1_455 S
H2515 C2545 0.950 . S
C2516 H2498 0.951 . S
C2516 C2517 1.366 . S
C2516 C2518 1.388 1_455 S
C2517 C2516 1.366 . S
C2517 C2521 1.385 . S
C2518 H2499 0.951 . S
C2518 C2516 1.388 1_655 S
C2518 C2519 1.366 . S
C2519 C2518 1.366 . S
C2519 C2520 1.414 1_655 S
C2519 C2522 1.499 . S
C2520 H2500 0.950 . S
C2520 C2519 1.414 1_455 S
C2520 C2521 1.374 . S
C2521 H2501 0.950 . S
C2521 C2517 1.385 . S
C2521 C2520 1.374 . S
C2522 C2519 1.499 . S
C2522 C2523 1.373 . S
C2522 C2524 1.389 . S
C2523 H2502 0.950 . S
C2523 C2522 1.373 . S
C2523 C2539 1.377 . S
C2524 C2522 1.389 . S
C2524 C2525 1.524 . S
C2524 C2538 1.377 . S
C2525 C2524 1.524 . S
C2525 C2526 1.397 . S
C2525 C2530 1.363 . S
C2526 H2503 0.950 . S
C2526 C2525 1.397 . S
C2526 C2527 1.334 . S
C2527 H2504 0.950 . S
C2527 C2526 1.334 . S
C2527 C2528 1.287 . S
C2528 C2527 1.287 . S
C2528 C2529 1.524 . S
C2528 H2547 0.913 . S
C2529 H2505 0.950 . S
C2529 C2528 1.524 . S
C2529 C2530 1.415 . S
C2530 H2506 0.950 . S
C2530 C2525 1.363 . S
C2530 C2529 1.415 . S
C2531 H2507 0.951 . S
C2531 C2532 1.366 . S
C2531 C2533 1.388 . S
C2532 C2531 1.366 . S
C2532 C2536 1.385 . S
C2533 H2508 0.951 . S
C2533 C2531 1.388 . S
C2533 C2534 1.366 . S
C2534 C2533 1.366 . S
C2534 C2535 1.414 . S
C2534 C2537 1.499 . S
C2535 H2509 0.950 . S
C2535 C2534 1.414 . S
C2535 C2536 1.374 . S
C2536 H2510 0.950 . S
C2536 C2532 1.385 . S
C2536 C2535 1.374 . S
C2537 C2534 1.499 . S
C2537 C2538 1.373 . S
C2537 C2539 1.389 . S
C2538 H2511 0.950 . S
C2538 C2524 1.377 . S
C2538 C2537 1.373 . S
C2539 C2523 1.377 . S
C2539 C2537 1.389 . S
C2539 C2540 1.524 . S
C2540 C2539 1.524 . S
C2540 C2541 1.397 . S
C2540 C2545 1.363 . S
C2541 H2512 0.950 . S
C2541 C2540 1.397 . S
C2541 C2542 1.334 . S
C2542 H2513 0.950 . S
C2542 C2541 1.334 . S
C2542 C2543 1.287 . S
C2543 C2542 1.287 . S
C2543 C2544 1.524 . S
C2543 H2546 0.999 . S
C2544 H2514 0.950 1_655 S
C2544 C2543 1.524 . S
C2544 C2545 1.415 . S
C2545 H2515 0.950 . S
C2545 C2540 1.363 . S
C2545 C2544 1.415 . S
H2546 C2543 0.999 . S
H2547 C2528 0.913 . S
H2548 C2566 0.951 . S
H2549 C2568 0.951 . S
H2550 C2570 0.950 1_655 S
H2551 C2571 0.950 . S
H2552 C2573 0.950 . S
H2553 C2576 0.950 . S
H2554 C2577 0.950 . S
H2555 C2579 0.950 . S
H2556 C2580 0.950 1_655 S
H2557 C2581 0.951 . S
H2558 C2583 0.951 . S
H2559 C2585 0.950 . S
H2560 C2586 0.950 . S
H2561 C2588 0.950 . S
H2562 C2591 0.950 . S
H2563 C2592 0.950 . S
H2564 C2594 0.950 . S
H2565 C2595 0.950 . S
C2566 H2548 0.951 . S
C2566 C2567 1.366 . S
C2566 C2568 1.388 . S
C2567 C2566 1.366 . S
C2567 C2571 1.385 . S
C2568 H2549 0.951 . S
C2568 C2566 1.388 . S
C2568 C2569 1.366 1_455 S
C2569 C2568 1.366 1_655 S
C2569 C2570 1.414 1_655 S
C2569 C2572 1.499 . S
C2570 H2550 0.950 1_455 S
C2570 C2569 1.414 1_455 S
C2570 C2571 1.374 . S
C2571 H2551 0.950 . S
C2571 C2567 1.385 . S
C2571 C2570 1.374 . S
C2572 C2569 1.499 . S
C2572 C2573 1.373 . S
C2572 C2574 1.389 . S
C2573 H2552 0.950 . S
C2573 C2572 1.373 . S
C2573 C2589 1.377 . S
C2574 C2572 1.389 . S
C2574 C2575 1.524 1_655 S
C2574 C2588 1.377 . S
C2575 C2574 1.524 1_455 S
C2575 C2576 1.397 . S
C2575 C2580 1.363 . S
C2576 H2553 0.950 . S
C2576 C2575 1.397 . S
C2576 C2577 1.334 . S
C2577 H2554 0.950 . S
C2577 C2576 1.334 . S
C2577 C2578 1.287 . S
C2578 C2577 1.287 . S
C2578 C2579 1.524 . S
C2578 H2597 0.913 . S
C2579 H2555 0.950 . S
C2579 C2578 1.524 . S
C2579 C2580 1.415 . S
C2580 H2556 0.950 1_455 S
C2580 C2575 1.363 . S
C2580 C2579 1.415 . S
C2581 H2557 0.951 . S
C2581 C2582 1.366 . S
C2581 C2583 1.388 . S
C2582 C2581 1.366 . S
C2582 C2586 1.385 . S
C2583 H2558 0.951 . S
C2583 C2581 1.388 . S
C2583 C2584 1.366 . S
C2584 C2583 1.366 . S
C2584 C2585 1.414 . S
C2584 C2587 1.499 . S
C2585 H2559 0.950 . S
C2585 C2584 1.414 . S
C2585 C2586 1.374 . S
C2586 H2560 0.950 . S
C2586 C2582 1.385 . S
C2586 C2585 1.374 . S
C2587 C2584 1.499 . S
C2587 C2588 1.373 . S
C2587 C2589 1.389 . S
C2588 H2561 0.950 . S
C2588 C2574 1.377 . S
C2588 C2587 1.373 . S
C2589 C2573 1.377 . S
C2589 C2587 1.389 . S
C2589 C2590 1.524 . S
C2590 C2589 1.524 . S
C2590 C2591 1.397 . S
C2590 C2595 1.363 . S
C2591 H2562 0.950 . S
C2591 C2590 1.397 . S
C2591 C2592 1.334 . S
C2592 H2563 0.950 . S
C2592 C2591 1.334 . S
C2592 C2593 1.287 . S
C2593 C2592 1.287 . S
C2593 C2594 1.524 . S
C2593 H2596 0.999 . S
C2594 H2564 0.950 . S
C2594 C2593 1.524 . S
C2594 C2595 1.415 . S
C2595 H2565 0.950 . S
C2595 C2590 1.363 . S
C2595 C2594 1.415 . S
H2596 C2593 0.999 . S
H2597 C2578 0.913 . S
H2598 C2616 0.951 . S
H2599 C2618 0.951 . S
H2600 C2620 0.950 . S
H2601 C2621 0.950 . S
H2602 C2623 0.950 . S
H2603 C2626 0.950 . S
H2604 C2627 0.950 . S
H2605 C2629 0.950 . S
H2606 C2630 0.950 . S
H2607 C2631 0.951 . S
H2608 C2633 0.951 . S
H2609 C2635 0.950 . S
H2610 C2636 0.950 . S
H2611 C2638 0.950 . S
H2612 C2641 0.950 . S
H2613 C2642 0.950 . S
H2614 C2644 0.950 . S
H2615 C2645 0.950 . S
C2616 H2598 0.951 . S
C2616 C2617 1.366 . S
C2616 C2618 1.388 . S
C2617 C2616 1.366 . S
C2617 C2621 1.385 . S
C2618 H2599 0.951 . S
C2618 C2616 1.388 . S
C2618 C2619 1.366 . S
C2619 C2618 1.366 . S
C2619 C2620 1.414 . S
C2619 C2622 1.499 . S
C2620 H2600 0.950 . S
C2620 C2619 1.414 . S
C2620 C2621 1.374 . S
C2621 H2601 0.950 . S
C2621 C2617 1.385 . S
C2621 C2620 1.374 . S
C2622 C2619 1.499 . S
C2622 C2623 1.373 . S
C2622 C2624 1.389 . S
C2623 H2602 0.950 . S
C2623 C2622 1.373 . S
C2623 C2639 1.377 . S
C2624 C2622 1.389 . S
C2624 C2625 1.524 . S
C2624 C2638 1.377 . S
C2625 C2624 1.524 . S
C2625 C2626 1.397 . S
C2625 C2630 1.363 . S
C2626 H2603 0.950 . S
C2626 C2625 1.397 . S
C2626 C2627 1.334 . S
C2627 H2604 0.950 . S
C2627 C2626 1.334 . S
C2627 C2628 1.287 . S
C2628 C2627 1.287 . S
C2628 C2629 1.524 . S
C2628 H2647 0.913 . S
C2629 H2605 0.950 . S
C2629 C2628 1.524 . S
C2629 C2630 1.415 . S
C2630 H2606 0.950 . S
C2630 C2625 1.363 . S
C2630 C2629 1.415 . S
C2631 H2607 0.951 . S
C2631 C2632 1.366 . S
C2631 C2633 1.388 . S
C2632 C2631 1.366 . S
C2632 C2636 1.385 . S
C2633 H2608 0.951 . S
C2633 C2631 1.388 . S
C2633 C2634 1.366 . S
C2634 C2633 1.366 . S
C2634 C2635 1.414 . S
C2634 C2637 1.499 . S
C2635 H2609 0.950 . S
C2635 C2634 1.414 . S
C2635 C2636 1.374 . S
C2636 H2610 0.950 . S
C2636 C2632 1.385 . S
C2636 C2635 1.374 . S
C2637 C2634 1.499 . S
C2637 C2638 1.373 . S
C2637 C2639 1.389 . S
C2638 H2611 0.950 . S
C2638 C2624 1.377 . S
C2638 C2637 1.373 . S
C2639 C2623 1.377 . S
C2639 C2637 1.389 . S
C2639 C2640 1.524 . S
C2640 C2639 1.524 . S
C2640 C2641 1.397 . S
C2640 C2645 1.363 . S
C2641 H2612 0.950 . S
C2641 C2640 1.397 . S
C2641 C2642 1.334 . S
C2642 H2613 0.950 . S
C2642 C2641 1.334 . S
C2642 C2643 1.287 . S
C2643 C2642 1.287 . S
C2643 C2644 1.524 . S
C2643 H2646 0.999 . S
C2644 H2614 0.950 . S
C2644 C2643 1.524 . S
C2644 C2645 1.415 . S
C2645 H2615 0.950 . S
C2645 C2640 1.363 . S
C2645 C2644 1.415 . S
H2646 C2643 0.999 . S
H2647 C2628 0.913 . S
H2648 C2666 0.951 . S
H2649 C2668 0.951 . S
H2650 C2670 0.950 . S
H2651 C2671 0.950 . S
H2652 C2673 0.950 1_655 S
H2653 C2676 0.950 . S
H2654 C2677 0.950 . S
H2655 C2679 0.950 . S
H2656 C2680 0.950 . S
H2657 C2681 0.951 . S
H2658 C2683 0.951 . S
H2659 C2685 0.950 . S
H2660 C2686 0.950 . S
H2661 C2688 0.950 . S
H2662 C2691 0.950 . S
H2663 C2692 0.950 . S
H2664 C2694 0.950 . S
H2665 C2695 0.950 . S
C2666 H2648 0.951 . S
C2666 C2667 1.366 . S
C2666 C2668 1.388 . S
C2667 C2666 1.366 . S
C2667 C2671 1.385 . S
C2668 H2649 0.951 . S
C2668 C2666 1.388 . S
C2668 C2669 1.366 . S
C2669 C2668 1.366 . S
C2669 C2670 1.414 . S
C2669 C2672 1.499 1_655 S
C2670 H2650 0.950 . S
C2670 C2669 1.414 . S
C2670 C2671 1.374 . S
C2671 H2651 0.950 . S
C2671 C2667 1.385 . S
C2671 C2670 1.374 . S
C2672 C2669 1.499 1_455 S
C2672 C2673 1.373 . S
C2672 C2674 1.389 . S
C2673 H2652 0.950 1_455 S
C2673 C2672 1.373 . S
C2673 C2689 1.377 . S
C2674 C2672 1.389 . S
C2674 C2675 1.524 . S
C2674 C2688 1.377 . S
C2675 C2674 1.524 . S
C2675 C2676 1.397 . S
C2675 C2680 1.363 . S
C2676 H2653 0.950 . S
C2676 C2675 1.397 . S
C2676 C2677 1.334 . S
C2677 H2654 0.950 . S
C2677 C2676 1.334 . S
C2677 C2678 1.287 . S
C2678 C2677 1.287 . S
C2678 C2679 1.524 . S
C2678 H2697 0.913 . S
C2679 H2655 0.950 . S
C2679 C2678 1.524 . S
C2679 C2680 1.415 . S
C2680 H2656 0.950 . S
C2680 C2675 1.363 . S
C2680 C2679 1.415 . S
C2681 H2657 0.951 . S
C2681 C2682 1.366 . S
C2681 C2683 1.388 . S
C2682 C2681 1.366 . S
C2682 C2686 1.385 . S
C2683 H2658 0.951 . S
C2683 C2681 1.388 . S
C2683 C2684 1.366 . S
C2684 C2683 1.366 . S
C2684 C2685 1.414 . S
C2684 C2687 1.499 . S
C2685 H2659 0.950 . S
C2685 C2684 1.414 . S
C2685 C2686 1.374 . S
C2686 H2660 0.950 . S
C2686 C2682 1.385 . S
C2686 C2685 1.374 . S
C2687 C2684 1.499 . S
C2687 C2688 1.373 . S
C2687 C2689 1.389 . S
C2688 H2661 0.950 . S
C2688 C2674 1.377 . S
C2688 C2687 1.373 . S
C2689 C2673 1.377 . S
C2689 C2687 1.389 . S
C2689 C2690 1.524 . S
C2690 C2689 1.524 . S
C2690 C2691 1.397 . S
C2690 C2695 1.363 . S
C2691 H2662 0.950 . S
C2691 C2690 1.397 . S
C2691 C2692 1.334 . S
C2692 H2663 0.950 . S
C2692 C2691 1.334 . S
C2692 C2693 1.287 . S
C2693 C2692 1.287 . S
C2693 C2694 1.524 . S
C2693 H2696 0.999 . S
C2694 H2664 0.950 . S
C2694 C2693 1.524 . S
C2694 C2695 1.415 . S
C2695 H2665 0.950 . S
C2695 C2690 1.363 . S
C2695 C2694 1.415 . S
H2696 C2693 0.999 . S
H2697 C2678 0.913 . S
H2698 C2716 0.951 . S
H2699 C2718 0.951 . S
H2700 C2720 0.950 . S
H2701 C2721 0.950 . S
H2702 C2723 0.950 . S
H2703 C2726 0.950 . S
H2704 C2727 0.950 . S
H2705 C2729 0.950 . S
H2706 C2730 0.950 . S
H2707 C2731 0.951 . S
H2708 C2733 0.951 . S
H2709 C2735 0.950 . S
H2710 C2736 0.950 . S
H2711 C2738 0.950 . S
H2712 C2741 0.950 . S
H2713 C2742 0.950 . S
H2714 C2744 0.950 . S
H2715 C2745 0.950 . S
C2716 H2698 0.951 . S
C2716 C2717 1.366 . S
C2716 C2718 1.388 . S
C2717 C2716 1.366 . S
C2717 C2721 1.385 . S
C2718 H2699 0.951 . S
C2718 C2716 1.388 . S
C2718 C2719 1.366 . S
C2719 C2718 1.366 . S
C2719 C2720 1.414 . S
C2719 C2722 1.499 . S
C2720 H2700 0.950 . S
C2720 C2719 1.414 . S
C2720 C2721 1.374 . S
C2721 H2701 0.950 . S
C2721 C2717 1.385 . S
C2721 C2720 1.374 . S
C2722 C2719 1.499 . S
C2722 C2723 1.373 . S
C2722 C2724 1.389 . S
C2723 H2702 0.950 . S
C2723 C2722 1.373 . S
C2723 C2739 1.377 . S
C2724 C2722 1.389 . S
C2724 C2725 1.524 . S
C2724 C2738 1.377 . S
C2725 C2724 1.524 . S
C2725 C2726 1.397 . S
C2725 C2730 1.363 . S
C2726 H2703 0.950 . S
C2726 C2725 1.397 . S
C2726 C2727 1.334 . S
C2727 H2704 0.950 . S
C2727 C2726 1.334 . S
C2727 C2728 1.287 . S
C2728 C2727 1.287 . S
C2728 C2729 1.524 . S
C2728 H2747 0.913 . S
C2729 H2705 0.950 . S
C2729 C2728 1.524 . S
C2729 C2730 1.415 . S
C2730 H2706 0.950 . S
C2730 C2725 1.363 . S
C2730 C2729 1.415 . S
C2731 H2707 0.951 . S
C2731 C2732 1.366 . S
C2731 C2733 1.388 . S
C2732 C2731 1.366 . S
C2732 C2736 1.385 . S
C2733 H2708 0.951 . S
C2733 C2731 1.388 . S
C2733 C2734 1.366 . S
C2734 C2733 1.366 . S
C2734 C2735 1.414 . S
C2734 C2737 1.499 . S
C2735 H2709 0.950 . S
C2735 C2734 1.414 . S
C2735 C2736 1.374 . S
C2736 H2710 0.950 . S
C2736 C2732 1.385 . S
C2736 C2735 1.374 . S
C2737 C2734 1.499 . S
C2737 C2738 1.373 . S
C2737 C2739 1.389 . S
C2738 H2711 0.950 . S
C2738 C2724 1.377 . S
C2738 C2737 1.373 . S
C2739 C2723 1.377 . S
C2739 C2737 1.389 . S
C2739 C2740 1.524 . S
C2740 C2739 1.524 . S
C2740 C2741 1.397 . S
C2740 C2745 1.363 . S
C2741 H2712 0.950 . S
C2741 C2740 1.397 . S
C2741 C2742 1.334 . S
C2742 H2713 0.950 . S
C2742 C2741 1.334 . S
C2742 C2743 1.287 . S
C2743 C2742 1.287 . S
C2743 C2744 1.524 . S
C2743 H2746 0.995 . S
C2744 H2714 0.950 . S
C2744 C2743 1.524 . S
C2744 C2745 1.415 . S
C2745 H2715 0.950 . S
C2745 C2740 1.363 . S
C2745 C2744 1.415 . S
H2746 C2743 0.995 . S
H2747 C2728 0.913 . S
H2748 C2766 0.951 . S
H2749 C2768 0.951 . S
H2750 C2770 0.950 . S
H2751 C2771 0.950 . S
H2752 C2773 0.950 . S
H2753 C2776 0.950 . S
H2754 C2777 0.950 . S
H2755 C2779 0.950 . S
H2756 C2780 0.950 . S
H2757 C2781 0.951 . S
H2758 C2783 0.951 . S
H2759 C2785 0.950 . S
H2760 C2786 0.950 . S
H2761 C2788 0.950 . S
H2762 C2791 0.950 . S
H2763 C2792 0.950 . S
H2764 C2794 0.950 . S
H2765 C2795 0.950 . S
C2766 H2748 0.951 . S
C2766 C2767 1.366 . S
C2766 C2768 1.388 . S
C2767 C2766 1.366 . S
C2767 C2771 1.385 . S
C2768 H2749 0.951 . S
C2768 C2766 1.388 . S
C2768 C2769 1.366 . S
C2769 C2768 1.366 . S
C2769 C2770 1.414 . S
C2769 C2772 1.499 . S
C2770 H2750 0.950 . S
C2770 C2769 1.414 . S
C2770 C2771 1.374 . S
C2771 H2751 0.950 . S
C2771 C2767 1.385 . S
C2771 C2770 1.374 . S
C2772 C2769 1.499 . S
C2772 C2773 1.373 . S
C2772 C2774 1.389 . S
C2773 H2752 0.950 . S
C2773 C2772 1.373 . S
C2773 C2789 1.377 . S
C2774 C2772 1.389 . S
C2774 C2775 1.524 . S
C2774 C2788 1.377 . S
C2775 C2774 1.524 . S
C2775 C2776 1.397 . S
C2775 C2780 1.363 . S
C2776 H2753 0.950 . S
C2776 C2775 1.397 . S
C2776 C2777 1.334 . S
C2777 H2754 0.950 . S
C2777 C2776 1.334 . S
C2777 C2778 1.287 . S
C2778 C2777 1.287 . S
C2778 C2779 1.524 . S
C2778 H2797 0.913 . S
C2779 H2755 0.950 . S
C2779 C2778 1.524 . S
C2779 C2780 1.415 . S
C2780 H2756 0.950 . S
C2780 C2775 1.363 . S
C2780 C2779 1.415 . S
C2781 H2757 0.951 . S
C2781 C2782 1.366 . S
C2781 C2783 1.388 . S
C2782 C2781 1.366 . S
C2782 C2786 1.385 . S
C2783 H2758 0.951 . S
C2783 C2781 1.388 . S
C2783 C2784 1.366 . S
C2784 C2783 1.366 . S
C2784 C2785 1.414 . S
C2784 C2787 1.499 . S
C2785 H2759 0.950 . S
C2785 C2784 1.414 . S
C2785 C2786 1.374 . S
C2786 H2760 0.950 . S
C2786 C2782 1.385 . S
C2786 C2785 1.374 . S
C2787 C2784 1.499 . S
C2787 C2788 1.373 . S
C2787 C2789 1.389 . S
C2788 H2761 0.950 . S
C2788 C2774 1.377 . S
C2788 C2787 1.373 . S
C2789 C2773 1.377 . S
C2789 C2787 1.389 . S
C2789 C2790 1.524 . S
C2790 C2789 1.524 . S
C2790 C2791 1.397 . S
C2790 C2795 1.363 . S
C2791 H2762 0.950 . S
C2791 C2790 1.397 . S
C2791 C2792 1.334 . S
C2792 H2763 0.950 . S
C2792 C2791 1.334 . S
C2792 C2793 1.287 . S
C2793 C2792 1.287 . S
C2793 C2794 1.524 . S
C2793 H2796 0.999 . S
C2794 H2764 0.950 . S
C2794 C2793 1.524 . S
C2794 C2795 1.415 . S
C2795 H2765 0.950 . S
C2795 C2790 1.363 . S
C2795 C2794 1.415 . S
H2796 C2793 0.999 . S
H2797 C2778 0.913 . S
H2798 C2816 0.951 . S
H2799 C2818 0.951 . S
H2800 C2820 0.950 . S
H2801 C2821 0.950 . S
H2802 C2823 0.950 . S
H2803 C2826 0.950 . S
H2804 C2827 0.950 . S
H2805 C2829 0.950 . S
H2806 C2830 0.950 . S
H2807 C2831 0.951 . S
H2808 C2833 0.951 . S
H2809 C2835 0.950 . S
H2810 C2836 0.950 . S
H2811 C2838 0.950 . S
H2812 C2841 0.950 . S
H2813 C2842 0.950 . S
H2814 C2844 0.950 . S
H2815 C2845 0.950 . S
C2816 H2798 0.951 . S
C2816 C2817 1.366 . S
C2816 C2818 1.388 . S
C2817 C2816 1.366 . S
C2817 C2821 1.385 . S
C2818 H2799 0.951 . S
C2818 C2816 1.388 . S
C2818 C2819 1.366 . S
C2819 C2818 1.366 . S
C2819 C2820 1.414 . S
C2819 C2822 1.499 . S
C2820 H2800 0.950 . S
C2820 C2819 1.414 . S
C2820 C2821 1.374 . S
C2821 H2801 0.950 . S
C2821 C2817 1.385 . S
C2821 C2820 1.374 . S
C2822 C2819 1.499 . S
C2822 C2823 1.373 . S
C2822 C2824 1.389 1_554 S
C2823 H2802 0.950 . S
C2823 C2822 1.373 . S
C2823 C2839 1.377 . S
C2824 C2822 1.389 1_556 S
C2824 C2825 1.524 . S
C2824 C2838 1.377 . S
C2825 C2824 1.524 . S
C2825 C2826 1.397 . S
C2825 C2830 1.363 . S
C2826 H2803 0.950 . S
C2826 C2825 1.397 . S
C2826 C2827 1.334 . S
C2827 H2804 0.950 . S
C2827 C2826 1.334 . S
C2827 C2828 1.287 . S
C2828 C2827 1.287 . S
C2828 C2829 1.524 . S
C2828 H2847 0.913 . S
C2829 H2805 0.950 . S
C2829 C2828 1.524 . S
C2829 C2830 1.415 . S
C2830 H2806 0.950 . S
C2830 C2825 1.363 . S
C2830 C2829 1.415 . S
C2831 H2807 0.951 . S
C2831 C2832 1.366 . S
C2831 C2833 1.388 . S
C2832 C2831 1.366 . S
C2832 C2836 1.385 . S
C2833 H2808 0.951 . S
C2833 C2831 1.388 . S
C2833 C2834 1.366 . S
C2834 C2833 1.366 . S
C2834 C2835 1.414 . S
C2834 C2837 1.499 . S
C2835 H2809 0.950 . S
C2835 C2834 1.414 . S
C2835 C2836 1.374 . S
C2836 H2810 0.950 . S
C2836 C2832 1.385 . S
C2836 C2835 1.374 . S
C2837 C2834 1.499 . S
C2837 C2838 1.373 . S
C2837 C2839 1.389 1_556 S
C2838 H2811 0.950 . S
C2838 C2824 1.377 . S
C2838 C2837 1.373 . S
C2839 C2823 1.377 . S
C2839 C2837 1.389 1_554 S
C2839 C2840 1.524 . S
C2840 C2839 1.524 . S
C2840 C2841 1.397 . S
C2840 C2845 1.363 . S
C2841 H2812 0.950 . S
C2841 C2840 1.397 . S
C2841 C2842 1.334 . S
C2842 H2813 0.950 . S
C2842 C2841 1.334 . S
C2842 C2843 1.287 . S
C2843 C2842 1.287 . S
C2843 C2844 1.524 . S
C2843 H2846 0.999 . S
C2844 H2814 0.950 . S
C2844 C2843 1.524 . S
C2844 C2845 1.415 . S
C2845 H2815 0.950 . S
C2845 C2840 1.363 . S
C2845 C2844 1.415 . S
H2846 C2843 0.999 . S
H2847 C2828 0.913 . S
H2848 C2866 0.951 . S
H2849 C2868 0.951 . S
H2850 C2870 0.950 . S
H2851 C2871 0.950 . S
H2852 C2873 0.950 . S
H2853 C2876 0.950 . S
H2854 C2877 0.950 . S
H2855 C2879 0.950 . S
H2856 C2880 0.950 . S
H2857 C2881 0.951 . S
H2858 C2883 0.951 . S
H2859 C2885 0.950 . S
H2860 C2886 0.950 . S
H2861 C2888 0.950 . S
H2862 C2891 0.950 . S
H2863 C2892 0.950 . S
H2864 C2894 0.950 . S
H2865 C2895 0.950 . S
C2866 H2848 0.951 . S
C2866 C2867 1.366 . S
C2866 C2868 1.388 . S
C2867 C2866 1.366 . S
C2867 C2871 1.385 . S
C2868 H2849 0.951 . S
C2868 C2866 1.388 . S
C2868 C2869 1.366 . S
C2869 C2868 1.366 . S
C2869 C2870 1.414 . S
C2869 C2872 1.499 . S
C2870 H2850 0.950 . S
C2870 C2869 1.414 . S
C2870 C2871 1.374 . S
C2871 H2851 0.950 . S
C2871 C2867 1.385 . S
C2871 C2870 1.374 . S
C2872 C2869 1.499 . S
C2872 C2873 1.373 . S
C2872 C2874 1.389 . S
C2873 H2852 0.950 . S
C2873 C2872 1.373 . S
C2873 C2889 1.377 . S
C2874 C2872 1.389 . S
C2874 C2875 1.524 . S
C2874 C2888 1.377 . S
C2875 C2874 1.524 . S
C2875 C2876 1.397 . S
C2875 C2880 1.363 . S
C2876 H2853 0.950 . S
C2876 C2875 1.397 . S
C2876 C2877 1.334 . S
C2877 H2854 0.950 . S
C2877 C2876 1.334 . S
C2877 C2878 1.287 . S
C2878 C2877 1.287 . S
C2878 C2879 1.524 . S
C2878 H2897 0.913 . S
C2879 H2855 0.950 . S
C2879 C2878 1.524 . S
C2879 C2880 1.415 . S
C2880 H2856 0.950 . S
C2880 C2875 1.363 . S
C2880 C2879 1.415 . S
C2881 H2857 0.951 . S
C2881 C2882 1.366 . S
C2881 C2883 1.388 . S
C2882 C2881 1.366 . S
C2882 C2886 1.385 . S
C2883 H2858 0.951 . S
C2883 C2881 1.388 . S
C2883 C2884 1.366 . S
C2884 C2883 1.366 . S
C2884 C2885 1.414 . S
C2884 C2887 1.499 . S
C2885 H2859 0.950 . S
C2885 C2884 1.414 . S
C2885 C2886 1.374 . S
C2886 H2860 0.950 . S
C2886 C2882 1.385 . S
C2886 C2885 1.374 . S
C2887 C2884 1.499 . S
C2887 C2888 1.373 . S
C2887 C2889 1.389 . S
C2888 H2861 0.950 . S
C2888 C2874 1.377 . S
C2888 C2887 1.373 . S
C2889 C2873 1.377 . S
C2889 C2887 1.389 . S
C2889 C2890 1.524 . S
C2890 C2889 1.524 . S
C2890 C2891 1.397 . S
C2890 C2895 1.363 . S
C2891 H2862 0.950 . S
C2891 C2890 1.397 . S
C2891 C2892 1.334 . S
C2892 H2863 0.950 . S
C2892 C2891 1.334 . S
C2892 C2893 1.287 . S
C2893 C2892 1.287 . S
C2893 C2894 1.524 . S
C2893 H2896 0.999 . S
C2894 H2864 0.950 . S
C2894 C2893 1.524 . S
C2894 C2895 1.415 . S
C2895 H2865 0.950 . S
C2895 C2890 1.363 . S
C2895 C2894 1.415 . S
H2896 C2893 0.999 . S
H2897 C2878 0.913 . S
H2898 C2916 0.951 . S
H2899 C2918 0.951 . S
H2900 C2920 0.950 . S
H2901 C2921 0.950 . S
H2902 C2923 0.950 . S
H2903 C2926 0.950 . S
H2904 C2927 0.950 . S
H2905 C2929 0.950 . S
H2906 C2930 0.950 . S
H2907 C2931 0.951 . S
H2908 C2933 0.951 . S
H2909 C2935 0.950 . S
H2910 C2936 0.950 . S
H2911 C2938 0.950 . S
H2912 C2941 0.950 . S
H2913 C2942 0.950 . S
H2914 C2944 0.950 . S
H2915 C2945 0.950 . S
C2916 H2898 0.951 . S
C2916 C2917 1.366 . S
C2916 C2918 1.388 . S
C2917 C2916 1.366 . S
C2917 C2921 1.385 . S
C2918 H2899 0.951 . S
C2918 C2916 1.388 . S
C2918 C2919 1.366 . S
C2919 C2918 1.366 . S
C2919 C2920 1.414 . S
C2919 C2922 1.499 . S
C2920 H2900 0.950 . S
C2920 C2919 1.414 . S
C2920 C2921 1.374 . S
C2921 H2901 0.950 . S
C2921 C2917 1.385 . S
C2921 C2920 1.374 . S
C2922 C2919 1.499 . S
C2922 C2923 1.373 . S
C2922 C2924 1.389 . S
C2923 H2902 0.950 . S
C2923 C2922 1.373 . S
C2923 C2939 1.377 . S
C2924 C2922 1.389 . S
C2924 C2925 1.524 . S
C2924 C2938 1.377 . S
C2925 C2924 1.524 . S
C2925 C2926 1.397 . S
C2925 C2930 1.363 . S
C2926 H2903 0.950 . S
C2926 C2925 1.397 . S
C2926 C2927 1.334 . S
C2927 H2904 0.950 . S
C2927 C2926 1.334 . S
C2927 C2928 1.287 . S
C2928 C2927 1.287 . S
C2928 C2929 1.524 . S
C2928 H2947 0.913 . S
C2929 H2905 0.950 . S
C2929 C2928 1.524 . S
C2929 C2930 1.415 . S
C2930 H2906 0.950 . S
C2930 C2925 1.363 . S
C2930 C2929 1.415 . S
C2931 H2907 0.951 . S
C2931 C2932 1.366 . S
C2931 C2933 1.388 . S
C2932 C2931 1.366 . S
C2932 C2936 1.385 . S
C2933 H2908 0.951 . S
C2933 C2931 1.388 . S
C2933 C2934 1.366 . S
C2934 C2933 1.366 . S
C2934 C2935 1.414 . S
C2934 C2937 1.499 . S
C2935 H2909 0.950 . S
C2935 C2934 1.414 . S
C2935 C2936 1.374 . S
C2936 H2910 0.950 . S
C2936 C2932 1.385 . S
C2936 C2935 1.374 . S
C2937 C2934 1.499 . S
C2937 C2938 1.373 . S
C2937 C2939 1.389 . S
C2938 H2911 0.950 . S
C2938 C2924 1.377 . S
C2938 C2937 1.373 . S
C2939 C2923 1.377 . S
C2939 C2937 1.389 . S
C2939 C2940 1.524 . S
C2940 C2939 1.524 . S
C2940 C2941 1.397 . S
C2940 C2945 1.363 . S
C2941 H2912 0.950 . S
C2941 C2940 1.397 . S
C2941 C2942 1.334 . S
C2942 H2913 0.950 . S
C2942 C2941 1.334 . S
C2942 C2943 1.287 . S
C2943 C2942 1.287 . S
C2943 C2944 1.524 . S
C2943 H2946 0.999 . S
C2944 H2914 0.950 . S
C2944 C2943 1.524 . S
C2944 C2945 1.415 . S
C2945 H2915 0.950 . S
C2945 C2940 1.363 . S
C2945 C2944 1.415 . S
H2946 C2943 0.999 . S
H2947 C2928 0.913 . S
H2948 C2966 0.951 . S
H2949 C2968 0.951 . S
H2950 C2970 0.950 . S
H2951 C2971 0.950 . S
H2952 C2973 0.950 . S
H2953 C2976 0.950 . S
H2954 C2977 0.950 . S
H2955 C2979 0.950 . S
H2956 C2980 0.950 . S
H2957 C2981 0.951 . S
H2958 C2983 0.951 . S
H2959 C2985 0.950 . S
H2960 C2986 0.950 . S
H2961 C2988 0.950 . S
H2962 C2991 0.950 . S
H2963 C2992 0.950 . S
H2964 C2994 0.950 . S
H2965 C2995 0.950 . S
C2966 H2948 0.951 . S
C2966 C2967 1.366 . S
C2966 C2968 1.388 . S
C2967 C2966 1.366 . S
C2967 C2971 1.385 . S
C2968 H2949 0.951 . S
C2968 C2966 1.388 . S
C2968 C2969 1.366 . S
C2969 C2968 1.366 . S
C2969 C2970 1.414 . S
C2969 C2972 1.499 . S
C2970 H2950 0.950 . S
C2970 C2969 1.414 . S
C2970 C2971 1.374 . S
C2971 H2951 0.950 . S
C2971 C2967 1.385 . S
C2971 C2970 1.374 . S
C2972 C2969 1.499 . S
C2972 C2973 1.373 . S
C2972 C2974 1.389 . S
C2973 H2952 0.950 . S
C2973 C2972 1.373 . S
C2973 C2989 1.377 . S
C2974 C2972 1.389 . S
C2974 C2975 1.524 . S
C2974 C2988 1.377 . S
C2975 C2974 1.524 . S
C2975 C2976 1.397 . S
C2975 C2980 1.363 . S
C2976 H2953 0.950 . S
C2976 C2975 1.397 . S
C2976 C2977 1.334 . S
C2977 H2954 0.950 . S
C2977 C2976 1.334 . S
C2977 C2978 1.287 . S
C2978 C2977 1.287 . S
C2978 C2979 1.524 . S
C2978 H2997 0.913 . S
C2979 H2955 0.950 . S
C2979 C2978 1.524 . S
C2979 C2980 1.415 . S
C2980 H2956 0.950 . S
C2980 C2975 1.363 . S
C2980 C2979 1.415 . S
C2981 H2957 0.951 . S
C2981 C2982 1.366 . S
C2981 C2983 1.388 . S
C2982 C2981 1.366 . S
C2982 C2986 1.385 . S
C2983 H2958 0.951 . S
C2983 C2981 1.388 . S
C2983 C2984 1.366 . S
C2984 C2983 1.366 . S
C2984 C2985 1.414 . S
C2984 C2987 1.499 . S
C2985 H2959 0.950 . S
C2985 C2984 1.414 . S
C2985 C2986 1.374 . S
C2986 H2960 0.950 . S
C2986 C2982 1.385 . S
C2986 C2985 1.374 . S
C2987 C2984 1.499 . S
C2987 C2988 1.373 . S
C2987 C2989 1.389 . S
C2988 H2961 0.950 . S
C2988 C2974 1.377 . S
C2988 C2987 1.373 . S
C2989 C2973 1.377 . S
C2989 C2987 1.389 . S
C2989 C2990 1.524 . S
C2990 C2989 1.524 . S
C2990 C2991 1.397 . S
C2990 C2995 1.363 . S
C2991 H2962 0.950 . S
C2991 C2990 1.397 . S
C2991 C2992 1.334 . S
C2992 H2963 0.950 . S
C2992 C2991 1.334 . S
C2992 C2993 1.287 . S
C2993 C2992 1.287 . S
C2993 C2994 1.524 . S
C2993 H2996 0.999 . S
C2994 H2964 0.950 . S
C2994 C2993 1.524 . S
C2994 C2995 1.415 . S
C2995 H2965 0.950 . S
C2995 C2990 1.363 . S
C2995 C2994 1.415 . S
H2996 C2993 0.999 . S
H2997 C2978 0.913 . S
H2998 C3016 0.951 . S
H2999 C3018 0.951 . S
H3000 C3020 0.950 . S
H3001 C3021 0.950 . S
H3002 C3023 0.950 . S
H3003 C3026 0.950 . S
H3004 C3027 0.950 . S
H3005 C3029 0.950 . S
H3006 C3030 0.950 . S
H3007 C3031 0.951 . S
H3008 C3033 0.951 . S
H3009 C3035 0.950 1_554 S
H3010 C3036 0.950 . S
H3011 C3038 0.950 . S
H3012 C3041 0.950 . S
H3013 C3042 0.950 . S
H3014 C3044 0.950 . S
H3015 C3045 0.950 . S
C3016 H2998 0.951 . S
C3016 C3017 1.366 . S
C3016 C3018 1.388 . S
C3017 C3016 1.366 . S
C3017 C3021 1.385 . S
C3018 H2999 0.951 . S
C3018 C3016 1.388 . S
C3018 C3019 1.366 . S
C3019 C3018 1.366 . S
C3019 C3020 1.414 . S
C3019 C3022 1.499 . S
C3020 H3000 0.950 . S
C3020 C3019 1.414 . S
C3020 C3021 1.374 . S
C3021 H3001 0.950 . S
C3021 C3017 1.385 . S
C3021 C3020 1.374 . S
C3022 C3019 1.499 . S
C3022 C3023 1.373 . S
C3022 C3024 1.389 . S
C3023 H3002 0.950 . S
C3023 C3022 1.373 . S
C3023 C3039 1.362 1_554 S
C3024 C3022 1.389 . S
C3024 C3025 1.524 . S
C3024 C3038 1.377 . S
C3025 C3024 1.524 . S
C3025 C3026 1.397 . S
C3025 C3030 1.363 . S
C3026 H3003 0.950 . S
C3026 C3025 1.397 . S
C3026 C3027 1.334 . S
C3027 H3004 0.950 . S
C3027 C3026 1.334 . S
C3027 C3028 1.287 . S
C3028 C3027 1.287 . S
C3028 C3029 1.524 . S
C3028 H3047 0.913 . S
C3029 H3005 0.950 . S
C3029 C3028 1.524 . S
C3029 C3030 1.415 . S
C3030 H3006 0.950 . S
C3030 C3025 1.363 . S
C3030 C3029 1.415 . S
C3031 H3007 0.951 . S
C3031 C3032 1.366 . S
C3031 C3033 1.388 . S
C3032 C3031 1.366 . S
C3032 C3036 1.385 . S
C3033 H3008 0.951 . S
C3033 C3031 1.388 . S
C3033 C3034 1.366 . S
C3034 C3033 1.366 . S
C3034 C3035 1.414 . S
C3034 C3037 1.499 1_556 S
C3035 H3009 0.950 1_556 S
C3035 C3034 1.414 . S
C3035 C3036 1.374 . S
C3036 H3010 0.950 . S
C3036 C3032 1.385 . S
C3036 C3035 1.374 . S
C3037 C3034 1.499 1_554 S
C3037 C3038 1.373 . S
C3037 C3039 1.385 1_554 S
C3038 H3011 0.950 . S
C3038 C3024 1.377 . S
C3038 C3037 1.373 . S
C3039 C3023 1.362 1_556 S
C3039 C3037 1.385 1_556 S
C3039 C3040 1.542 . S
C3040 C3039 1.542 . S
C3040 C3041 1.397 . S
C3040 C3045 1.363 . S
C3041 H3012 0.950 . S
C3041 C3040 1.397 . S
C3041 C3042 1.334 . S
C3042 H3013 0.950 . S
C3042 C3041 1.334 . S
C3042 C3043 1.287 . S
C3043 C3042 1.287 . S
C3043 C3044 1.524 . S
C3043 H3046 0.999 . S
C3044 H3014 0.950 . S
C3044 C3043 1.524 . S
C3044 C3045 1.415 . S
C3045 H3015 0.950 . S
C3045 C3040 1.363 . S
C3045 C3044 1.415 . S
H3046 C3043 0.999 . S
H3047 C3028 0.913 . S
H3048 C3066 0.951 . S
H3049 C3068 0.951 . S
H3050 C3070 0.950 . S
H3051 C3071 0.950 . S
H3052 C3073 0.950 . S
H3053 C3076 0.950 . S
H3054 C3077 0.950 . S
H3055 C3079 0.950 . S
H3056 C3080 0.950 . S
H3057 C3081 0.951 . S
H3058 C3083 0.951 . S
H3059 C3085 0.950 . S
H3060 C3086 0.950 . S
H3061 C3088 0.950 . S
H3062 C3091 0.950 . S
H3063 C3092 0.950 . S
H3064 C3094 0.950 . S
H3065 C3095 0.950 . S
C3066 H3048 0.951 . S
C3066 C3067 1.366 . S
C3066 C3068 1.388 . S
C3067 C3066 1.366 . S
C3067 C3071 1.385 . S
C3068 H3049 0.951 . S
C3068 C3066 1.388 . S
C3068 C3069 1.366 . S
C3069 C3068 1.366 . S
C3069 C3070 1.414 . S
C3069 C3072 1.499 . S
C3070 H3050 0.950 . S
C3070 C3069 1.414 . S
C3070 C3071 1.374 . S
C3071 H3051 0.950 . S
C3071 C3067 1.385 . S
C3071 C3070 1.374 . S
C3072 C3069 1.499 . S
C3072 C3073 1.373 . S
C3072 C3074 1.389 . S
C3073 H3052 0.950 . S
C3073 C3072 1.373 . S
C3073 C3089 1.377 . S
C3074 C3072 1.389 . S
C3074 C3075 1.524 . S
C3074 C3088 1.377 . S
C3075 C3074 1.524 . S
C3075 C3076 1.397 . S
C3075 C3080 1.363 . S
C3076 H3053 0.950 . S
C3076 C3075 1.397 . S
C3076 C3077 1.334 . S
C3077 H3054 0.950 . S
C3077 C3076 1.334 . S
C3077 C3078 1.287 . S
C3078 C3077 1.287 . S
C3078 C3079 1.524 . S
C3078 H3097 0.913 . S
C3079 H3055 0.950 . S
C3079 C3078 1.524 . S
C3079 C3080 1.415 . S
C3080 H3056 0.950 . S
C3080 C3075 1.363 . S
C3080 C3079 1.415 . S
C3081 H3057 0.951 . S
C3081 C3082 1.366 . S
C3081 C3083 1.388 . S
C3082 C3081 1.366 . S
C3082 C3086 1.385 . S
C3083 H3058 0.951 . S
C3083 C3081 1.388 . S
C3083 C3084 1.366 . S
C3084 C3083 1.366 . S
C3084 C3085 1.414 . S
C3084 C3087 1.499 . S
C3085 H3059 0.950 . S
C3085 C3084 1.414 . S
C3085 C3086 1.374 . S
C3086 H3060 0.950 . S
C3086 C3082 1.385 . S
C3086 C3085 1.374 . S
C3087 C3084 1.499 . S
C3087 C3088 1.373 . S
C3087 C3089 1.389 . S
C3088 H3061 0.950 . S
C3088 C3074 1.377 . S
C3088 C3087 1.373 . S
C3089 C3073 1.377 . S
C3089 C3087 1.389 . S
C3089 C3090 1.524 . S
C3090 C3089 1.524 . S
C3090 C3091 1.397 . S
C3090 C3095 1.363 . S
C3091 H3062 0.950 . S
C3091 C3090 1.397 . S
C3091 C3092 1.334 . S
C3092 H3063 0.950 . S
C3092 C3091 1.334 . S
C3092 C3093 1.287 . S
C3093 C3092 1.287 . S
C3093 C3094 1.524 . S
C3093 H3096 0.999 . S
C3094 H3064 0.950 . S
C3094 C3093 1.524 . S
C3094 C3095 1.415 . S
C3095 H3065 0.950 . S
C3095 C3090 1.363 . S
C3095 C3094 1.415 . S
H3096 C3093 0.999 . S
H3097 C3078 0.913 . S
H3098 C3116 0.951 . S
H3099 C3118 0.951 . S
H3100 C3120 0.950 . S
H3101 C3121 0.950 . S
H3102 C3123 0.950 . S
H3103 C3126 0.950 . S
H3104 C3127 0.950 . S
H3105 C3129 0.950 . S
H3106 C3130 0.950 . S
H3107 C3131 0.951 . S
H3108 C3133 0.951 . S
H3109 C3135 0.950 . S
H3110 C3136 0.950 . S
H3111 C3138 0.950 . S
H3112 C3141 0.950 . S
H3113 C3142 0.950 . S
H3114 C3144 0.950 . S
H3115 C3145 0.950 . S
C3116 H3098 0.951 . S
C3116 C3117 1.366 . S
C3116 C3118 1.388 . S
C3117 C3116 1.366 . S
C3117 C3121 1.385 . S
C3118 H3099 0.951 . S
C3118 C3116 1.388 . S
C3118 C3119 1.366 . S
C3119 C3118 1.366 . S
C3119 C3120 1.414 . S
C3119 C3122 1.499 . S
C3120 H3100 0.950 . S
C3120 C3119 1.414 . S
C3120 C3121 1.374 . S
C3121 H3101 0.950 . S
C3121 C3117 1.385 . S
C3121 C3120 1.374 . S
C3122 C3119 1.499 . S
C3122 C3123 1.373 . S
C3122 C3124 1.389 . S
C3123 H3102 0.950 . S
C3123 C3122 1.373 . S
C3123 C3139 1.377 . S
C3124 C3122 1.389 . S
C3124 C3125 1.524 . S
C3124 C3138 1.377 . S
C3125 C3124 1.524 . S
C3125 C3126 1.397 . S
C3125 C3130 1.363 . S
C3126 H3103 0.950 . S
C3126 C3125 1.397 . S
C3126 C3127 1.334 . S
C3127 H3104 0.950 . S
C3127 C3126 1.334 . S
C3127 C3128 1.287 . S
C3128 C3127 1.287 . S
C3128 C3129 1.524 . S
C3128 H3147 0.913 . S
C3129 H3105 0.950 . S
C3129 C3128 1.524 . S
C3129 C3130 1.415 . S
C3130 H3106 0.950 . S
C3130 C3125 1.363 . S
C3130 C3129 1.415 . S
C3131 H3107 0.951 . S
C3131 C3132 1.366 . S
C3131 C3133 1.388 . S
C3132 C3131 1.366 . S
C3132 C3136 1.385 . S
C3133 H3108 0.951 . S
C3133 C3131 1.388 . S
C3133 C3134 1.366 . S
C3134 C3133 1.366 . S
C3134 C3135 1.414 . S
C3134 C3137 1.499 . S
C3135 H3109 0.950 . S
C3135 C3134 1.414 . S
C3135 C3136 1.374 . S
C3136 H3110 0.950 . S
C3136 C3132 1.385 . S
C3136 C3135 1.374 . S
C3137 C3134 1.499 . S
C3137 C3138 1.373 . S
C3137 C3139 1.389 . S
C3138 H3111 0.950 . S
C3138 C3124 1.377 . S
C3138 C3137 1.373 . S
C3139 C3123 1.377 . S
C3139 C3137 1.389 . S
C3139 C3140 1.524 . S
C3140 C3139 1.524 . S
C3140 C3141 1.397 . S
C3140 C3145 1.363 . S
C3141 H3112 0.950 . S
C3141 C3140 1.397 . S
C3141 C3142 1.334 . S
C3142 H3113 0.950 . S
C3142 C3141 1.334 . S
C3142 C3143 1.287 . S
C3143 C3142 1.287 . S
C3143 C3144 1.524 . S
C3143 H3146 0.999 . S
C3144 H3114 0.950 . S
C3144 C3143 1.524 . S
C3144 C3145 1.415 . S
C3145 H3115 0.950 . S
C3145 C3140 1.363 . S
C3145 C3144 1.415 . S
H3146 C3143 0.999 . S
H3147 C3128 0.913 . S
H3148 C3166 0.951 . S
H3149 C3168 0.951 . S
H3150 C3170 0.950 . S
H3151 C3171 0.950 . S
H3152 C3173 0.950 . S
H3153 C3176 0.950 . S
H3154 C3177 0.950 . S
H3155 C3179 0.950 . S
H3156 C3180 0.950 . S
H3157 C3181 0.951 . S
H3158 C3183 0.951 . S
H3159 C3185 0.950 . S
H3160 C3186 0.950 . S
H3161 C3188 0.950 . S
H3162 C3191 0.950 . S
H3163 C3192 0.950 . S
H3164 C3194 0.950 . S
H3165 C3195 0.950 . S
C3166 H3148 0.951 . S
C3166 C3167 1.366 . S
C3166 C3168 1.388 . S
C3167 C3166 1.366 . S
C3167 C3171 1.385 . S
C3168 H3149 0.951 . S
C3168 C3166 1.388 . S
C3168 C3169 1.366 . S
C3169 C3168 1.366 . S
C3169 C3170 1.414 . S
C3169 C3172 1.499 . S
C3170 H3150 0.950 . S
C3170 C3169 1.414 . S
C3170 C3171 1.374 . S
C3171 H3151 0.950 . S
C3171 C3167 1.385 . S
C3171 C3170 1.374 . S
C3172 C3169 1.499 . S
C3172 C3173 1.373 . S
C3172 C3174 1.389 . S
C3173 H3152 0.950 . S
C3173 C3172 1.373 . S
C3173 C3189 1.377 . S
C3174 C3172 1.389 . S
C3174 C3175 1.524 . S
C3174 C3188 1.377 . S
C3175 C3174 1.524 . S
C3175 C3176 1.397 . S
C3175 C3180 1.363 . S
C3176 H3153 0.950 . S
C3176 C3175 1.397 . S
C3176 C3177 1.334 . S
C3177 H3154 0.950 . S
C3177 C3176 1.334 . S
C3177 C3178 1.287 . S
C3178 C3177 1.287 . S
C3178 C3179 1.524 . S
C3178 H3197 0.913 . S
C3179 H3155 0.950 . S
C3179 C3178 1.524 . S
C3179 C3180 1.415 . S
C3180 H3156 0.950 . S
C3180 C3175 1.363 . S
C3180 C3179 1.415 . S
C3181 H3157 0.951 . S
C3181 C3182 1.366 . S
C3181 C3183 1.388 . S
C3182 C3181 1.366 . S
C3182 C3186 1.385 . S
C3183 H3158 0.951 . S
C3183 C3181 1.388 . S
C3183 C3184 1.366 . S
C3184 C3183 1.366 . S
C3184 C3185 1.414 . S
C3184 C3187 1.499 . S
C3185 H3159 0.950 . S
C3185 C3184 1.414 . S
C3185 C3186 1.374 . S
C3186 H3160 0.950 . S
C3186 C3182 1.385 . S
C3186 C3185 1.374 . S
C3187 C3184 1.499 . S
C3187 C3188 1.373 . S
C3187 C3189 1.389 . S
C3188 H3161 0.950 . S
C3188 C3174 1.377 . S
C3188 C3187 1.373 . S
C3189 C3173 1.377 . S
C3189 C3187 1.389 . S
C3189 C3190 1.524 . S
C3190 C3189 1.524 . S
C3190 C3191 1.397 . S
C3190 C3195 1.363 . S
C3191 H3162 0.950 . S
C3191 C3190 1.397 . S
C3191 C3192 1.334 . S
C3192 H3163 0.950 . S
C3192 C3191 1.334 . S
C3192 C3193 1.287 . S
C3193 C3192 1.287 . S
C3193 C3194 1.524 . S
C3193 H3196 0.999 . S
C3194 H3164 0.950 . S
C3194 C3193 1.524 . S
C3194 C3195 1.415 . S
C3195 H3165 0.950 . S
C3195 C3190 1.363 . S
C3195 C3194 1.415 . S
H3196 C3193 0.999 . S
H3197 C3178 0.913 . S
H3198 C3216 0.951 . S
H3199 C3218 0.951 . S
H3200 C3220 0.950 . S
H3201 C3221 0.950 . S
H3202 C3223 0.950 . S
H3203 C3226 0.950 . S
H3204 C3227 0.950 . S
H3205 C3229 0.950 . S
H3206 C3230 0.950 . S
H3207 C3231 0.951 . S
H3208 C3233 0.951 . S
H3209 C3235 0.950 . S
H3210 C3236 0.950 . S
H3211 C3238 0.950 . S
H3212 C3241 0.950 . S
H3213 C3242 0.950 . S
H3214 C3244 0.950 . S
H3215 C3245 0.950 . S
C3216 H3198 0.951 . S
C3216 C3217 1.366 . S
C3216 C3218 1.388 . S
C3217 C3216 1.366 . S
C3217 C3221 1.385 . S
C3218 H3199 0.951 . S
C3218 C3216 1.388 . S
C3218 C3219 1.366 . S
C3219 C3218 1.366 . S
C3219 C3220 1.414 . S
C3219 C3222 1.499 . S
C3220 H3200 0.950 . S
C3220 C3219 1.414 . S
C3220 C3221 1.374 . S
C3221 H3201 0.950 . S
C3221 C3217 1.385 . S
C3221 C3220 1.374 . S
C3222 C3219 1.499 . S
C3222 C3223 1.373 . S
C3222 C3224 1.389 . S
C3223 H3202 0.950 . S
C3223 C3222 1.373 . S
C3223 C3239 1.377 . S
C3224 C3222 1.389 . S
C3224 C3225 1.524 . S
C3224 C3238 1.377 . S
C3225 C3224 1.524 . S
C3225 C3226 1.397 . S
C3225 C3230 1.363 . S
C3226 H3203 0.950 . S
C3226 C3225 1.397 . S
C3226 C3227 1.334 . S
C3227 H3204 0.950 . S
C3227 C3226 1.334 . S
C3227 C3228 1.287 . S
C3228 C3227 1.287 . S
C3228 C3229 1.524 . S
C3228 H3247 0.913 . S
C3229 H3205 0.950 . S
C3229 C3228 1.524 . S
C3229 C3230 1.415 . S
C3230 H3206 0.950 . S
C3230 C3225 1.363 . S
C3230 C3229 1.415 . S
C3231 H3207 0.951 . S
C3231 C3232 1.366 . S
C3231 C3233 1.388 . S
C3232 C3231 1.366 . S
C3232 C3236 1.385 . S
C3233 H3208 0.951 . S
C3233 C3231 1.388 . S
C3233 C3234 1.366 . S
C3234 C3233 1.366 . S
C3234 C3235 1.414 . S
C3234 C3237 1.499 . S
C3235 H3209 0.950 . S
C3235 C3234 1.414 . S
C3235 C3236 1.374 . S
C3236 H3210 0.950 . S
C3236 C3232 1.385 . S
C3236 C3235 1.374 . S
C3237 C3234 1.499 . S
C3237 C3238 1.373 . S
C3237 C3239 1.389 . S
C3238 H3211 0.950 . S
C3238 C3224 1.377 . S
C3238 C3237 1.373 . S
C3239 C3223 1.377 . S
C3239 C3237 1.389 . S
C3239 C3240 1.524 . S
C3240 C3239 1.524 . S
C3240 C3241 1.397 . S
C3240 C3245 1.363 . S
C3241 H3212 0.950 . S
C3241 C3240 1.397 . S
C3241 C3242 1.334 . S
C3242 H3213 0.950 . S
C3242 C3241 1.334 . S
C3242 C3243 1.287 . S
C3243 C3242 1.287 . S
C3243 C3244 1.524 . S
C3243 H3246 0.999 . S
C3244 H3214 0.950 . S
C3244 C3243 1.524 . S
C3244 C3245 1.415 . S
C3245 H3215 0.950 . S
C3245 C3240 1.363 . S
C3245 C3244 1.415 . S
H3246 C3243 0.999 . S
H3247 C3228 0.913 . S
H3248 C3266 0.951 . S
H3249 C3268 0.951 . S
H3250 C3270 0.950 . S
H3251 C3271 0.950 . S
H3252 C3273 0.950 . S
H3253 C3276 0.950 . S
H3254 C3277 0.950 . S
H3255 C3279 0.950 . S
H3256 C3280 0.950 . S
H3257 C3281 0.951 . S
H3258 C3283 0.951 . S
H3259 C3285 0.950 . S
H3260 C3286 0.950 . S
H3261 C3288 0.950 . S
H3262 C3291 0.950 . S
H3263 C3292 0.950 . S
H3264 C3294 0.950 . S
H3265 C3295 0.950 . S
C3266 H3248 0.951 . S
C3266 C3267 1.366 . S
C3266 C3268 1.388 . S
C3267 C3266 1.366 . S
C3267 C3271 1.385 . S
C3268 H3249 0.951 . S
C3268 C3266 1.388 . S
C3268 C3269 1.366 . S
C3269 C3268 1.366 . S
C3269 C3270 1.414 . S
C3269 C3272 1.499 . S
C3270 H3250 0.950 . S
C3270 C3269 1.414 . S
C3270 C3271 1.374 . S
C3271 H3251 0.950 . S
C3271 C3267 1.385 . S
C3271 C3270 1.374 . S
C3272 C3269 1.499 . S
C3272 C3273 1.373 1_554 S
C3272 C3274 1.389 . S
C3273 H3252 0.950 . S
C3273 C3272 1.373 1_556 S
C3273 C3289 1.377 . S
C3274 C3272 1.389 . S
C3274 C3275 1.524 . S
C3274 C3288 1.377 . S
C3275 C3274 1.524 . S
C3275 C3276 1.397 . S
C3275 C3280 1.363 . S
C3276 H3253 0.950 . S
C3276 C3275 1.397 . S
C3276 C3277 1.334 . S
C3277 H3254 0.950 . S
C3277 C3276 1.334 . S
C3277 C3278 1.287 . S
C3278 C3277 1.287 . S
C3278 C3279 1.524 . S
C3278 H3297 0.913 . S
C3279 H3255 0.950 . S
C3279 C3278 1.524 . S
C3279 C3280 1.415 . S
C3280 H3256 0.950 . S
C3280 C3275 1.363 . S
C3280 C3279 1.415 . S
C3281 H3257 0.951 . S
C3281 C3282 1.366 . S
C3281 C3283 1.388 . S
C3282 C3281 1.366 . S
C3282 C3286 1.385 . S
C3283 H3258 0.951 . S
C3283 C3281 1.388 . S
C3283 C3284 1.366 . S
C3284 C3283 1.366 . S
C3284 C3285 1.414 . S
C3284 C3287 1.499 . S
C3285 H3259 0.950 . S
C3285 C3284 1.414 . S
C3285 C3286 1.374 . S
C3286 H3260 0.950 . S
C3286 C3282 1.385 . S
C3286 C3285 1.374 . S
C3287 C3284 1.499 . S
C3287 C3288 1.373 1_556 S
C3287 C3289 1.389 . S
C3288 H3261 0.950 . S
C3288 C3274 1.377 . S
C3288 C3287 1.373 1_554 S
C3289 C3273 1.377 . S
C3289 C3287 1.389 . S
C3289 C3290 1.524 . S
C3290 C3289 1.524 . S
C3290 C3291 1.397 . S
C3290 C3295 1.363 . S
C3291 H3262 0.950 . S
C3291 C3290 1.397 . S
C3291 C3292 1.334 . S
C3292 H3263 0.950 . S
C3292 C3291 1.334 . S
C3292 C3293 1.287 . S
C3293 C3292 1.287 . S
C3293 C3294 1.524 . S
C3293 H3296 0.999 . S
C3294 H3264 0.950 . S
C3294 C3293 1.524 . S
C3294 C3295 1.415 . S
C3295 H3265 0.950 . S
C3295 C3290 1.363 . S
C3295 C3294 1.415 . S
H3296 C3293 0.999 . S
H3297 C3278 0.913 . S
H3298 C3316 0.951 . S
H3299 C3318 0.951 . S
H3300 C3320 0.950 . S
H3301 C3321 0.950 . S
H3302 C3323 0.950 . S
H3303 C3326 0.950 . S
H3304 C3327 0.950 . S
H3305 C3329 0.950 . S
H3306 C3330 0.950 . S
H3307 C3331 0.951 . S
H3308 C3333 0.951 . S
H3309 C3335 0.950 . S
H3310 C3336 0.950 . S
H3311 C3338 0.950 . S
H3312 C3341 0.950 . S
H3313 C3342 0.950 . S
H3314 C3344 0.950 . S
H3315 C3345 0.950 . S
C3316 H3298 0.951 . S
C3316 C3317 1.366 . S
C3316 C3318 1.388 . S
C3317 C3316 1.366 . S
C3317 C3321 1.385 . S
C3318 H3299 0.951 . S
C3318 C3316 1.388 . S
C3318 C3319 1.366 . S
C3319 C3318 1.366 . S
C3319 C3320 1.414 . S
C3319 C3322 1.499 . S
C3320 H3300 0.950 . S
C3320 C3319 1.414 . S
C3320 C3321 1.374 . S
C3321 H3301 0.950 . S
C3321 C3317 1.385 . S
C3321 C3320 1.374 . S
C3322 C3319 1.499 . S
C3322 C3323 1.373 . S
C3322 C3324 1.389 . S
C3323 H3302 0.950 . S
C3323 C3322 1.373 . S
C3323 C3339 1.377 . S
C3324 C3322 1.389 . S
C3324 C3325 1.524 . S
C3324 C3338 1.377 . S
C3325 C3324 1.524 . S
C3325 C3326 1.397 . S
C3325 C3330 1.363 . S
C3326 H3303 0.950 . S
C3326 C3325 1.397 . S
C3326 C3327 1.334 . S
C3327 H3304 0.950 . S
C3327 C3326 1.334 . S
C3327 C3328 1.287 . S
C3328 C3327 1.287 . S
C3328 C3329 1.524 . S
C3328 H3347 0.913 . S
C3329 H3305 0.950 . S
C3329 C3328 1.524 . S
C3329 C3330 1.415 . S
C3330 H3306 0.950 . S
C3330 C3325 1.363 . S
C3330 C3329 1.415 . S
C3331 H3307 0.951 . S
C3331 C3332 1.366 . S
C3331 C3333 1.388 . S
C3332 C3331 1.366 . S
C3332 C3336 1.385 . S
C3333 H3308 0.951 . S
C3333 C3331 1.388 . S
C3333 C3334 1.366 . S
C3334 C3333 1.366 . S
C3334 C3335 1.414 . S
C3334 C3337 1.499 . S
C3335 H3309 0.950 . S
C3335 C3334 1.414 . S
C3335 C3336 1.374 . S
C3336 H3310 0.950 . S
C3336 C3332 1.385 . S
C3336 C3335 1.374 . S
C3337 C3334 1.499 . S
C3337 C3338 1.373 . S
C3337 C3339 1.389 . S
C3338 H3311 0.950 . S
C3338 C3324 1.377 . S
C3338 C3337 1.373 . S
C3339 C3323 1.377 . S
C3339 C3337 1.389 . S
C3339 C3340 1.524 . S
C3340 C3339 1.524 . S
C3340 C3341 1.397 . S
C3340 C3345 1.363 . S
C3341 H3312 0.950 . S
C3341 C3340 1.397 . S
C3341 C3342 1.334 . S
C3342 H3313 0.950 . S
C3342 C3341 1.334 . S
C3342 C3343 1.287 . S
C3343 C3342 1.287 . S
C3343 C3344 1.524 . S
C3343 H3346 0.999 . S
C3344 H3314 0.950 . S
C3344 C3343 1.524 . S
C3344 C3345 1.415 . S
C3345 H3315 0.950 . S
C3345 C3340 1.363 . S
C3345 C3344 1.415 . S
H3346 C3343 0.999 . S
H3347 C3328 0.913 . S
H3348 C3366 0.951 . S
H3349 C3368 0.951 . S
H3350 C3370 0.950 . S
H3351 C3371 0.950 . S
H3352 C3373 0.950 . S
H3353 C3376 0.950 . S
H3354 C3377 0.950 . S
H3355 C3379 0.950 . S
H3356 C3380 0.950 . S
H3357 C3381 0.951 . S
H3358 C3383 0.951 . S
H3359 C3385 0.950 . S
H3360 C3386 0.950 . S
H3361 C3388 0.950 . S
H3362 C3391 0.950 . S
H3363 C3392 0.950 . S
H3364 C3394 0.950 . S
H3365 C3395 0.950 . S
C3366 H3348 0.951 . S
C3366 C3367 1.366 . S
C3366 C3368 1.388 . S
C3367 C3366 1.366 . S
C3367 C3371 1.385 . S
C3368 H3349 0.951 . S
C3368 C3366 1.388 . S
C3368 C3369 1.366 . S
C3369 C3368 1.366 . S
C3369 C3370 1.414 . S
C3369 C3372 1.499 . S
C3370 H3350 0.950 . S
C3370 C3369 1.414 . S
C3370 C3371 1.374 . S
C3371 H3351 0.950 . S
C3371 C3367 1.385 . S
C3371 C3370 1.374 . S
C3372 C3369 1.499 . S
C3372 C3373 1.373 . S
C3372 C3374 1.389 . S
C3373 H3352 0.950 . S
C3373 C3372 1.373 . S
C3373 C3389 1.377 . S
C3374 C3372 1.389 . S
C3374 C3375 1.524 . S
C3374 C3388 1.377 . S
C3375 C3374 1.524 . S
C3375 C3376 1.397 . S
C3375 C3380 1.363 . S
C3376 H3353 0.950 . S
C3376 C3375 1.397 . S
C3376 C3377 1.334 . S
C3377 H3354 0.950 . S
C3377 C3376 1.334 . S
C3377 C3378 1.287 . S
C3378 C3377 1.287 . S
C3378 C3379 1.524 . S
C3378 H3397 0.913 . S
C3379 H3355 0.950 . S
C3379 C3378 1.524 . S
C3379 C3380 1.415 . S
C3380 H3356 0.950 . S
C3380 C3375 1.363 . S
C3380 C3379 1.415 . S
C3381 H3357 0.951 . S
C3381 C3382 1.366 . S
C3381 C3383 1.388 . S
C3382 C3381 1.366 . S
C3382 C3386 1.385 . S
C3383 H3358 0.951 . S
C3383 C3381 1.388 . S
C3383 C3384 1.366 . S
C3384 C3383 1.366 . S
C3384 C3385 1.414 . S
C3384 C3387 1.499 . S
C3385 H3359 0.950 . S
C3385 C3384 1.414 . S
C3385 C3386 1.374 . S
C3386 H3360 0.950 . S
C3386 C3382 1.385 . S
C3386 C3385 1.374 . S
C3387 C3384 1.499 . S
C3387 C3388 1.373 . S
C3387 C3389 1.389 . S
C3388 H3361 0.950 . S
C3388 C3374 1.377 . S
C3388 C3387 1.373 . S
C3389 C3373 1.377 . S
C3389 C3387 1.389 . S
C3389 C3390 1.524 . S
C3390 C3389 1.524 . S
C3390 C3391 1.397 . S
C3390 C3395 1.363 . S
C3391 H3362 0.950 . S
C3391 C3390 1.397 . S
C3391 C3392 1.334 . S
C3392 H3363 0.950 . S
C3392 C3391 1.334 . S
C3392 C3393 1.287 . S
C3393 C3392 1.287 . S
C3393 C3394 1.524 . S
C3393 H3396 0.999 . S
C3394 H3364 0.950 . S
C3394 C3393 1.524 . S
C3394 C3395 1.415 . S
C3395 H3365 0.950 . S
C3395 C3390 1.363 . S
C3395 C3394 1.415 . S
H3396 C3393 0.999 . S
H3397 C3378 0.913 . S
H3398 C3416 0.951 . S
H3399 C3418 0.951 . S
H3400 C3420 0.950 . S
H3401 C3421 0.950 . S
H3402 C3423 0.950 . S
H3403 C3426 0.950 . S
H3404 C3427 0.950 . S
H3405 C3429 0.950 . S
H3406 C3430 0.950 . S
H3407 C3431 0.951 . S
H3408 C3433 0.951 . S
H3409 C3435 0.950 . S
H3410 C3436 0.950 . S
H3411 C3438 0.950 . S
H3412 C3441 0.950 . S
H3413 C3442 0.950 . S
H3414 C3444 0.950 . S
H3415 C3445 0.950 . S
C3416 H3398 0.951 . S
C3416 C3417 1.366 . S
C3416 C3418 1.388 . S
C3417 C3416 1.366 . S
C3417 C3421 1.385 . S
C3418 H3399 0.951 . S
C3418 C3416 1.388 . S
C3418 C3419 1.366 . S
C3419 C3418 1.366 . S
C3419 C3420 1.414 . S
C3419 C3422 1.499 . S
C3420 H3400 0.950 . S
C3420 C3419 1.414 . S
C3420 C3421 1.374 . S
C3421 H3401 0.950 . S
C3421 C3417 1.385 . S
C3421 C3420 1.374 . S
C3422 C3419 1.499 . S
C3422 C3423 1.373 . S
C3422 C3424 1.389 . S
C3423 H3402 0.950 . S
C3423 C3422 1.373 . S
C3423 C3439 1.377 . S
C3424 C3422 1.389 . S
C3424 C3425 1.524 . S
C3424 C3438 1.377 . S
C3425 C3424 1.524 . S
C3425 C3426 1.397 . S
C3425 C3430 1.363 . S
C3426 H3403 0.950 . S
C3426 C3425 1.397 . S
C3426 C3427 1.334 . S
C3427 H3404 0.950 . S
C3427 C3426 1.334 . S
C3427 C3428 1.287 . S
C3428 C3427 1.287 . S
C3428 C3429 1.524 . S
C3428 H3447 0.913 . S
C3429 H3405 0.950 . S
C3429 C3428 1.524 . S
C3429 C3430 1.415 . S
C3430 H3406 0.950 . S
C3430 C3425 1.363 . S
C3430 C3429 1.415 . S
C3431 H3407 0.951 . S
C3431 C3432 1.366 . S
C3431 C3433 1.388 . S
C3432 C3431 1.366 . S
C3432 C3436 1.385 . S
C3433 H3408 0.951 . S
C3433 C3431 1.388 . S
C3433 C3434 1.366 . S
C3434 C3433 1.366 . S
C3434 C3435 1.414 . S
C3434 C3437 1.499 . S
C3435 H3409 0.950 . S
C3435 C3434 1.414 . S
C3435 C3436 1.374 . S
C3436 H3410 0.950 . S
C3436 C3432 1.385 . S
C3436 C3435 1.374 . S
C3437 C3434 1.499 . S
C3437 C3438 1.373 . S
C3437 C3439 1.389 . S
C3438 H3411 0.950 . S
C3438 C3424 1.377 . S
C3438 C3437 1.373 . S
C3439 C3423 1.377 . S
C3439 C3437 1.389 . S
C3439 C3440 1.524 . S
C3440 C3439 1.524 . S
C3440 C3441 1.397 . S
C3440 C3445 1.363 . S
C3441 H3412 0.950 . S
C3441 C3440 1.397 . S
C3441 C3442 1.334 . S
C3442 H3413 0.950 . S
C3442 C3441 1.334 . S
C3442 C3443 1.287 . S
C3443 C3442 1.287 . S
C3443 C3444 1.524 . S
C3443 H3446 0.999 . S
C3444 H3414 0.950 . S
C3444 C3443 1.524 . S
C3444 C3445 1.415 . S
C3445 H3415 0.950 . S
C3445 C3440 1.363 . S
C3445 C3444 1.415 . S
H3446 C3443 0.999 . S
H3447 C3428 0.913 . S
H3448 C3466 0.951 . S
H3449 C3468 0.951 1_556 S
H3450 C3470 0.950 . S
H3451 C3471 0.950 . S
H3452 C3473 0.950 . S
H3453 C3476 0.950 1_554 S
H3454 C3477 0.950 . S
H3455 C3479 0.950 . S
H3456 C3480 0.950 . S
H3457 C3481 0.951 . S
H3458 C3483 0.951 . S
H3459 C3485 0.950 . S
H3460 C3486 0.950 . S
H3461 C3488 0.950 . S
H3462 C3491 0.950 . S
H3463 C3492 0.950 . S
H3464 C3494 0.950 . S
H3465 C3495 0.950 . S
C3466 H3448 0.951 . S
C3466 C3467 1.366 . S
C3466 C3468 1.388 . S
C3467 C3466 1.366 . S
C3467 C3471 1.385 . S
C3468 H3449 0.951 1_554 S
C3468 C3466 1.388 . S
C3468 C3469 1.366 . S
C3469 C3468 1.366 . S
C3469 C3470 1.414 . S
C3469 C3472 1.490 1_554 S
C3470 H3450 0.950 . S
C3470 C3469 1.414 . S
C3470 C3471 1.374 . S
C3471 H3451 0.950 . S
C3471 C3467 1.385 . S
C3471 C3470 1.374 . S
C3472 C3469 1.490 1_556 S
C3472 C3473 1.370 1_556 S
C3472 C3474 1.402 . S
C3473 H3452 0.950 . S
C3473 C3472 1.370 1_554 S
C3473 C3489 1.377 1_554 S
C3474 C3472 1.402 . S
C3474 C3475 1.524 . S
C3474 C3488 1.377 . S
C3475 C3474 1.524 . S
C3475 C3476 1.397 . S
C3475 C3480 1.363 . S
C3476 H3453 0.950 1_556 S
C3476 C3475 1.397 . S
C3476 C3477 1.334 . S
C3477 H3454 0.950 . S
C3477 C3476 1.334 . S
C3477 C3478 1.287 . S
C3478 C3477 1.287 . S
C3478 C3479 1.524 . S
C3478 H3497 0.913 . S
C3479 H3455 0.950 . S
C3479 C3478 1.524 . S
C3479 C3480 1.415 . S
C3480 H3456 0.950 . S
C3480 C3475 1.363 . S
C3480 C3479 1.415 . S
C3481 H3457 0.951 . S
C3481 C3482 1.366 . S
C3481 C3483 1.388 . S
C3482 C3481 1.366 . S
C3482 C3486 1.385 . S
C3483 H3458 0.951 . S
C3483 C3481 1.388 . S
C3483 C3484 1.366 . S
C3484 C3483 1.366 . S
C3484 C3485 1.414 . S
C3484 C3487 1.499 . S
C3485 H3459 0.950 . S
C3485 C3484 1.414 . S
C3485 C3486 1.374 . S
C3486 H3460 0.950 . S
C3486 C3482 1.385 . S
C3486 C3485 1.374 . S
C3487 C3484 1.499 . S
C3487 C3488 1.373 . S
C3487 C3489 1.389 . S
C3488 H3461 0.950 . S
C3488 C3474 1.377 . S
C3488 C3487 1.373 . S
C3489 C3473 1.377 1_556 S
C3489 C3487 1.389 . S
C3489 C3490 1.524 . S
C3490 C3489 1.524 . S
C3490 C3491 1.397 . S
C3490 C3495 1.363 1_556 S
C3491 H3462 0.950 . S
C3491 C3490 1.397 . S
C3491 C3492 1.334 . S
C3492 H3463 0.950 . S
C3492 C3491 1.334 . S
C3492 C3493 1.287 1_556 S
C3493 C3492 1.287 1_554 S
C3493 C3494 1.524 . S
C3493 H3496 0.999 . S
C3494 H3464 0.950 . S
C3494 C3493 1.524 . S
C3494 C3495 1.415 . S
C3495 H3465 0.950 . S
C3495 C3490 1.363 1_554 S
C3495 C3494 1.415 . S
H3496 C3493 0.999 . S
H3497 C3478 0.913 . S
H3498 C3516 0.951 . S
H3499 C3518 0.951 . S
H3500 C3520 0.950 . S
H3501 C3521 0.950 . S
H3502 C3523 0.950 . S
H3503 C3526 0.950 . S
H3504 C3527 0.950 . S
H3505 C3529 0.950 . S
H3506 C3530 0.950 . S
H3507 C3531 0.951 . S
H3508 C3533 0.951 . S
H3509 C3535 0.950 . S
H3510 C3536 0.950 . S
H3511 C3538 0.950 . S
H3512 C3541 0.950 . S
H3513 C3542 0.950 . S
H3514 C3544 0.950 . S
H3515 C3545 0.950 . S
C3516 H3498 0.951 . S
C3516 C3517 1.366 . S
C3516 C3518 1.388 . S
C3517 C3516 1.366 . S
C3517 C3521 1.385 . S
C3518 H3499 0.951 . S
C3518 C3516 1.388 . S
C3518 C3519 1.366 . S
C3519 C3518 1.366 . S
C3519 C3520 1.414 . S
C3519 C3522 1.499 . S
C3520 H3500 0.950 . S
C3520 C3519 1.414 . S
C3520 C3521 1.374 . S
C3521 H3501 0.950 . S
C3521 C3517 1.385 . S
C3521 C3520 1.374 . S
C3522 C3519 1.499 . S
C3522 C3523 1.373 . S
C3522 C3524 1.389 . S
C3523 H3502 0.950 . S
C3523 C3522 1.373 . S
C3523 C3539 1.377 . S
C3524 C3522 1.389 . S
C3524 C3525 1.524 . S
C3524 C3538 1.377 . S
C3525 C3524 1.524 . S
C3525 C3526 1.397 . S
C3525 C3530 1.363 . S
C3526 H3503 0.950 . S
C3526 C3525 1.397 . S
C3526 C3527 1.334 . S
C3527 H3504 0.950 . S
C3527 C3526 1.334 . S
C3527 C3528 1.287 . S
C3528 C3527 1.287 . S
C3528 C3529 1.524 . S
C3528 H3547 0.913 . S
C3529 H3505 0.950 . S
C3529 C3528 1.524 . S
C3529 C3530 1.415 . S
C3530 H3506 0.950 . S
C3530 C3525 1.363 . S
C3530 C3529 1.415 . S
C3531 H3507 0.951 . S
C3531 C3532 1.366 . S
C3531 C3533 1.388 . S
C3532 C3531 1.366 . S
C3532 C3536 1.385 . S
C3533 H3508 0.951 . S
C3533 C3531 1.388 . S
C3533 C3534 1.366 . S
C3534 C3533 1.366 . S
C3534 C3535 1.414 . S
C3534 C3537 1.499 . S
C3535 H3509 0.950 . S
C3535 C3534 1.414 . S
C3535 C3536 1.374 . S
C3536 H3510 0.950 . S
C3536 C3532 1.385 . S
C3536 C3535 1.374 . S
C3537 C3534 1.499 . S
C3537 C3538 1.373 . S
C3537 C3539 1.389 . S
C3538 H3511 0.950 . S
C3538 C3524 1.377 . S
C3538 C3537 1.373 . S
C3539 C3523 1.377 . S
C3539 C3537 1.389 . S
C3539 C3540 1.524 . S
C3540 C3539 1.524 . S
C3540 C3541 1.397 . S
C3540 C3545 1.363 . S
C3541 H3512 0.950 . S
C3541 C3540 1.397 . S
C3541 C3542 1.334 . S
C3542 H3513 0.950 . S
C3542 C3541 1.334 . S
C3542 C3543 1.287 . S
C3543 C3542 1.287 . S
C3543 C3544 1.524 . S
C3543 H3546 0.999 . S
C3544 H3514 0.950 . S
C3544 C3543 1.524 . S
C3544 C3545 1.415 . S
C3545 H3515 0.950 . S
C3545 C3540 1.363 . S
C3545 C3544 1.415 . S
H3546 C3543 0.999 . S
H3547 C3528 0.913 . S
H3548 C3566 0.951 . S
H3549 C3568 0.951 . S
H3550 C3570 0.950 . S
H3551 C3571 0.950 . S
H3552 C3573 0.950 . S
H3553 C3576 0.950 . S
H3554 C3577 0.950 . S
H3555 C3579 0.950 . S
H3556 C3580 0.950 . S
H3557 C3581 0.951 . S
H3558 C3583 0.951 . S
H3559 C3585 0.950 . S
H3560 C3586 0.950 . S
H3561 C3588 0.950 . S
H3562 C3591 0.950 . S
H3563 C3592 0.950 . S
H3564 C3594 0.950 . S
H3565 C3595 0.950 . S
C3566 H3548 0.951 . S
C3566 C3567 1.366 . S
C3566 C3568 1.388 . S
C3567 C3566 1.366 . S
C3567 C3571 1.385 . S
C3568 H3549 0.951 . S
C3568 C3566 1.388 . S
C3568 C3569 1.366 . S
C3569 C3568 1.366 . S
C3569 C3570 1.414 . S
C3569 C3572 1.499 . S
C3570 H3550 0.950 . S
C3570 C3569 1.414 . S
C3570 C3571 1.374 . S
C3571 H3551 0.950 . S
C3571 C3567 1.385 . S
C3571 C3570 1.374 . S
C3572 C3569 1.499 . S
C3572 C3573 1.373 . S
C3572 C3574 1.389 . S
C3573 H3552 0.950 . S
C3573 C3572 1.373 . S
C3573 C3589 1.377 . S
C3574 C3572 1.389 . S
C3574 C3575 1.524 . S
C3574 C3588 1.377 . S
C3575 C3574 1.524 . S
C3575 C3576 1.397 . S
C3575 C3580 1.363 . S
C3576 H3553 0.950 . S
C3576 C3575 1.397 . S
C3576 C3577 1.334 . S
C3577 H3554 0.950 . S
C3577 C3576 1.334 . S
C3577 C3578 1.287 . S
C3578 C3577 1.287 . S
C3578 C3579 1.524 . S
C3578 H3597 0.913 . S
C3579 H3555 0.950 . S
C3579 C3578 1.524 . S
C3579 C3580 1.415 . S
C3580 H3556 0.950 . S
C3580 C3575 1.363 . S
C3580 C3579 1.415 . S
C3581 H3557 0.951 . S
C3581 C3582 1.366 . S
C3581 C3583 1.388 . S
C3582 C3581 1.366 . S
C3582 C3586 1.385 . S
C3583 H3558 0.951 . S
C3583 C3581 1.388 . S
C3583 C3584 1.366 . S
C3584 C3583 1.366 . S
C3584 C3585 1.414 . S
C3584 C3587 1.499 . S
C3585 H3559 0.950 . S
C3585 C3584 1.414 . S
C3585 C3586 1.374 . S
C3586 H3560 0.950 . S
C3586 C3582 1.385 . S
C3586 C3585 1.374 . S
C3587 C3584 1.499 . S
C3587 C3588 1.373 . S
C3587 C3589 1.389 . S
C3588 H3561 0.950 . S
C3588 C3574 1.377 . S
C3588 C3587 1.373 . S
C3589 C3573 1.377 . S
C3589 C3587 1.389 . S
C3589 C3590 1.524 . S
C3590 C3589 1.524 . S
C3590 C3591 1.397 . S
C3590 C3595 1.363 . S
C3591 H3562 0.950 . S
C3591 C3590 1.397 . S
C3591 C3592 1.334 . S
C3592 H3563 0.950 . S
C3592 C3591 1.334 . S
C3592 C3593 1.287 . S
C3593 C3592 1.287 . S
C3593 C3594 1.524 . S
C3593 H3596 0.999 . S
C3594 H3564 0.950 . S
C3594 C3593 1.524 . S
C3594 C3595 1.415 . S
C3595 H3565 0.950 . S
C3595 C3590 1.363 . S
C3595 C3594 1.415 . S
H3596 C3593 0.999 . S
H3597 C3578 0.913 . S
H3598 C3616 0.951 . S
H3599 C3618 0.951 . S
H3600 C3620 0.950 . S
H3601 C3621 0.950 . S
H3602 C3623 0.950 . S
H3603 C3626 0.950 . S
H3604 C3627 0.950 . S
H3605 C3629 0.950 . S
H3606 C3630 0.950 . S
H3607 C3631 0.951 . S
H3608 C3633 0.951 . S
H3609 C3635 0.950 . S
H3610 C3636 0.950 . S
H3611 C3638 0.950 . S
H3612 C3641 0.950 . S
H3613 C3642 0.950 . S
H3614 C3644 0.950 . S
H3615 C3645 0.950 . S
C3616 H3598 0.951 . S
C3616 C3617 1.366 . S
C3616 C3618 1.388 . S
C3617 C3616 1.366 . S
C3617 C3621 1.385 . S
C3618 H3599 0.951 . S
C3618 C3616 1.388 . S
C3618 C3619 1.366 . S
C3619 C3618 1.366 . S
C3619 C3620 1.414 . S
C3619 C3622 1.499 . S
C3620 H3600 0.950 . S
C3620 C3619 1.414 . S
C3620 C3621 1.374 . S
C3621 H3601 0.950 . S
C3621 C3617 1.385 . S
C3621 C3620 1.374 . S
C3622 C3619 1.499 . S
C3622 C3623 1.373 . S
C3622 C3624 1.389 . S
C3623 H3602 0.950 . S
C3623 C3622 1.373 . S
C3623 C3639 1.377 . S
C3624 C3622 1.389 . S
C3624 C3625 1.524 . S
C3624 C3638 1.377 . S
C3625 C3624 1.524 . S
C3625 C3626 1.397 . S
C3625 C3630 1.363 . S
C3626 H3603 0.950 . S
C3626 C3625 1.397 . S
C3626 C3627 1.334 . S
C3627 H3604 0.950 . S
C3627 C3626 1.334 . S
C3627 C3628 1.287 . S
C3628 C3627 1.287 . S
C3628 C3629 1.524 . S
C3628 H3647 0.913 . S
C3629 H3605 0.950 . S
C3629 C3628 1.524 . S
C3629 C3630 1.415 . S
C3630 H3606 0.950 . S
C3630 C3625 1.363 . S
C3630 C3629 1.415 . S
C3631 H3607 0.951 . S
C3631 C3632 1.366 . S
C3631 C3633 1.388 . S
C3632 C3631 1.366 . S
C3632 C3636 1.385 . S
C3633 H3608 0.951 . S
C3633 C3631 1.388 . S
C3633 C3634 1.366 . S
C3634 C3633 1.366 . S
C3634 C3635 1.414 . S
C3634 C3637 1.499 . S
C3635 H3609 0.950 . S
C3635 C3634 1.414 . S
C3635 C3636 1.374 . S
C3636 H3610 0.950 . S
C3636 C3632 1.385 . S
C3636 C3635 1.374 . S
C3637 C3634 1.499 . S
C3637 C3638 1.373 . S
C3637 C3639 1.389 . S
C3638 H3611 0.950 . S
C3638 C3624 1.377 . S
C3638 C3637 1.373 . S
C3639 C3623 1.377 . S
C3639 C3637 1.389 . S
C3639 C3640 1.524 . S
C3640 C3639 1.524 . S
C3640 C3641 1.397 . S
C3640 C3645 1.363 . S
C3641 H3612 0.950 . S
C3641 C3640 1.397 . S
C3641 C3642 1.334 . S
C3642 H3613 0.950 . S
C3642 C3641 1.334 . S
C3642 C3643 1.287 . S
C3643 C3642 1.287 . S
C3643 C3644 1.524 . S
C3643 H3646 0.999 . S
C3644 H3614 0.950 . S
C3644 C3643 1.524 . S
C3644 C3645 1.415 . S
C3645 H3615 0.950 . S
C3645 C3640 1.363 . S
C3645 C3644 1.415 . S
H3646 C3643 0.999 . S
H3647 C3628 0.913 . S
C467 C7 0.430 . S
C482 C189 0.394 . S
C517 C357 1.032 . S
C532 C21 1.040 . S
C567 C35 2.042 . S
C582 C217 2.033 . S
C617 C49 2.043 . S
C632 C343 2.034 . S
C667 C63 1.040 . S
C682 C245 1.033 . S
C717 C77 0.721 . S
C732 C315 0.720 . S
C767 C91 0.721 . S
C782 C273 0.719 . S
C817 C441 0.392 . S
C832 C105 0.427 . S
C867 C301 1.034 . S
C882 C119 1.041 . S
C917 C133 0.721 . S
C932 C259 0.718 . S
C967 C329 0.717 . S
C982 C147 0.720 . S
C1017 C161 2.042 . S
C1032 C231 2.034 . S
C1067 C203 1.034 . S
C1082 C175 1.041 . S
C1117 C287 0.392 . S
C1132 C399 0.428 . S
C1167 C413 0.392 . S
C1182 C371 0.427 . S
C1217 C427 2.033 . S
C1232 C385 2.042 . S
C1267 C3 1.351 . S
C1282 C23 1.355 . S
C1317 C36 1.586 . S
C1332 C22 1.574 . S
C1367 C45 1.024 . S
C1382 C31 1.025 . S
C1417 C51 1.742 . S
C1432 C8 1.762 . S
C1467 C101 1.351 . S
C1482 C65 1.355 . S
C1517 C79 1.648 . S
C1532 C59 1.655 . S
C1567 C87 1.203 . S
C1582 C73 1.203 . S
C1617 C92 1.785 . S
C1632 C107 1.761 . S
C1667 C134 1.785 . S
C1682 C9 1.761 . S
C1717 C120 1.574 . S
C1732 C50 1.586 . S
C1767 C149 1.648 . S
C1782 C17 1.654 . S
C1817 C387 1.742 . S
C1832 C106 1.761 . S
C1867 C400 1.761 . S
C1882 C37 1.742 . S
C1917 C162 1.586 . S
C1932 C64 1.574 . S
C1967 C93 1.647 . S
C1982 C171 1.655 . S
C2017 C204 1.341 . S
C2032 C185 1.332 . S
C2067 C219 1.645 . S
C2082 C205 1.638 . S
C2117 C227 1.125 . S
C2132 C213 1.124 . S
C2167 C191 1.754 . S
C2182 C232 1.767 . S
C2217 C246 1.341 . S
C2232 C283 1.332 . S
C2267 C241 1.633 . S
C2282 C260 1.642 . S
C2317 C269 1.196 . S
C2332 C255 1.197 . S
C2367 C275 1.740 . S
C2382 C288 1.745 . S
C2417 C190 1.745 . S
C2432 C317 1.739 . S
C2467 C303 1.638 . S
C2482 C233 1.645 . S
C2517 C330 1.642 . S
C2532 C199 1.633 . S
C2567 C428 1.767 . S
C2582 C289 1.754 . S
C2617 C443 1.753 . S
C2632 C218 1.767 . S
C2667 C247 1.638 . S
C2682 C345 1.645 . S
C2717 C353 1.634 . S
C2732 C274 1.642 . S
C2767 C177 1.355 . S
C2782 C367 1.351 . S
C2817 C386 1.586 . S
C2832 C176 1.574 . S
C2867 C157 1.024 . S
C2882 C381 1.025 . S
C2917 C163 1.742 . S
C2932 C372 1.762 . S
C2967 C121 1.355 . S
C2982 C395 1.351 . S
C3017 C135 1.648 . S
C3032 C115 1.655 . S
C3067 C143 1.204 . S
C3082 C129 1.203 . S
C3117 C148 1.785 . S
C3132 C401 1.761 . S
C3167 C373 1.761 . S
C3182 C78 1.785 . S
C3217 C358 1.341 . S
C3232 C409 1.332 . S
C3267 C359 1.638 . S
C3282 C429 1.645 . S
C3317 C423 1.124 . S
C3332 C339 1.125 . S
C3367 C344 1.767 . S
C3382 C415 1.754 . S
C3417 C437 1.332 . S
C3432 C302 1.341 . S
C3467 C297 1.633 . S
C3482 C316 1.642 . S
C3517 C325 1.197 . S
C3532 C311 1.196 . S
C3567 C331 1.740 . S
C3582 C442 1.745 . S
C3617 C414 1.745 . S
C3632 C261 1.740 . S
