# Generated by pormake.
# Topology whw, (6)-cn, num edge types: 1
# Building blocks:
#     Node 0, Type 0, BuildingBlock: BETFAJ_clean_sbu_0, # of connection points: 6
#     Node 1, Type 0, BuildingBlock: BETFAJ_clean_sbu_0, # of connection points: 6
#     Node 2, Type 0, BuildingBlock: BETFAJ_clean_sbu_0, # of connection points: 6
#     Node 3, Type 0, BuildingBlock: BETFAJ_clean_sbu_0, # of connection points: 6
#     Node 4, Type 0, BuildingBlock: BETFAJ_clean_sbu_0, # of connection points: 6
#     Node 5, Type 0, BuildingBlock: BETFAJ_clean_sbu_0, # of connection points: 6
#     Node 6, Type 0, BuildingBlock: BETFAJ_clean_sbu_0, # of connection points: 6
#     Node 7, Type 0, BuildingBlock: BETFAJ_clean_sbu_0, # of connection points: 6
#     Node 8, Type 0, BuildingBlock: BETFAJ_clean_sbu_0, # of connection points: 6
#     Node 9, Type 0, BuildingBlock: BETFAJ_clean_sbu_0, # of connection points: 6
#     Node 10, Type 0, BuildingBlock: BETFAJ_clean_sbu_0, # of connection points: 6
#     Node 11, Type 0, BuildingBlock: BETFAJ_clean_sbu_0, # of connection points: 6
#     Node 12, Type 0, BuildingBlock: BETFAJ_clean_sbu_0, # of connection points: 6
#     Node 13, Type 0, BuildingBlock: BETFAJ_clean_sbu_0, # of connection points: 6
#     Node 14, Type 0, BuildingBlock: BETFAJ_clean_sbu_0, # of connection points: 6
#     Node 15, Type 0, BuildingBlock: BETFAJ_clean_sbu_0, # of connection points: 6
#     Edge 16, Type (0, 0), BuildingBlock: AJUNOK_clean_linker_0, # of connection points: 2
#     Edge 17, Type (0, 0), BuildingBlock: AJUNOK_clean_linker_0, # of connection points: 2
#     Edge 18, Type (0, 0), BuildingBlock: AJUNOK_clean_linker_0, # of connection points: 2
#     Edge 19, Type (0, 0), BuildingBlock: AJUNOK_clean_linker_0, # of connection points: 2
#     Edge 20, Type (0, 0), BuildingBlock: AJUNOK_clean_linker_0, # of connection points: 2
#     Edge 21, Type (0, 0), BuildingBlock: AJUNOK_clean_linker_0, # of connection points: 2
#     Edge 22, Type (0, 0), BuildingBlock: AJUNOK_clean_linker_0, # of connection points: 2
#     Edge 23, Type (0, 0), BuildingBlock: AJUNOK_clean_linker_0, # of connection points: 2
#     Edge 24, Type (0, 0), BuildingBlock: AJUNOK_clean_linker_0, # of connection points: 2
#     Edge 25, Type (0, 0), BuildingBlock: AJUNOK_clean_linker_0, # of connection points: 2
#     Edge 26, Type (0, 0), BuildingBlock: AJUNOK_clean_linker_0, # of connection points: 2
#     Edge 27, Type (0, 0), BuildingBlock: AJUNOK_clean_linker_0, # of connection points: 2
#     Edge 28, Type (0, 0), BuildingBlock: AJUNOK_clean_linker_0, # of connection points: 2
#     Edge 29, Type (0, 0), BuildingBlock: AJUNOK_clean_linker_0, # of connection points: 2
#     Edge 30, Type (0, 0), BuildingBlock: AJUNOK_clean_linker_0, # of connection points: 2
#     Edge 31, Type (0, 0), BuildingBlock: AJUNOK_clean_linker_0, # of connection points: 2
#     Edge 32, Type (0, 0), BuildingBlock: AJUNOK_clean_linker_0, # of connection points: 2
#     Edge 33, Type (0, 0), BuildingBlock: AJUNOK_clean_linker_0, # of connection points: 2
#     Edge 34, Type (0, 0), BuildingBlock: AJUNOK_clean_linker_0, # of connection points: 2
#     Edge 35, Type (0, 0), BuildingBlock: AJUNOK_clean_linker_0, # of connection points: 2
#     Edge 36, Type (0, 0), BuildingBlock: AJUNOK_clean_linker_0, # of connection points: 2
#     Edge 37, Type (0, 0), BuildingBlock: AJUNOK_clean_linker_0, # of connection points: 2
#     Edge 38, Type (0, 0), BuildingBlock: AJUNOK_clean_linker_0, # of connection points: 2
#     Edge 39, Type (0, 0), BuildingBlock: AJUNOK_clean_linker_0, # of connection points: 2
#     Edge 40, Type (0, 0), BuildingBlock: AJUNOK_clean_linker_0, # of connection points: 2
#     Edge 41, Type (0, 0), BuildingBlock: AJUNOK_clean_linker_0, # of connection points: 2
#     Edge 42, Type (0, 0), BuildingBlock: AJUNOK_clean_linker_0, # of connection points: 2
#     Edge 43, Type (0, 0), BuildingBlock: AJUNOK_clean_linker_0, # of connection points: 2
#     Edge 44, Type (0, 0), BuildingBlock: AJUNOK_clean_linker_0, # of connection points: 2
#     Edge 45, Type (0, 0), BuildingBlock: AJUNOK_clean_linker_0, # of connection points: 2
#     Edge 46, Type (0, 0), BuildingBlock: AJUNOK_clean_linker_0, # of connection points: 2
#     Edge 47, Type (0, 0), BuildingBlock: AJUNOK_clean_linker_0, # of connection points: 2
#     Edge 48, Type (0, 0), BuildingBlock: AJUNOK_clean_linker_0, # of connection points: 2
#     Edge 49, Type (0, 0), BuildingBlock: AJUNOK_clean_linker_0, # of connection points: 2
#     Edge 50, Type (0, 0), BuildingBlock: AJUNOK_clean_linker_0, # of connection points: 2
#     Edge 51, Type (0, 0), BuildingBlock: AJUNOK_clean_linker_0, # of connection points: 2
#     Edge 52, Type (0, 0), BuildingBlock: AJUNOK_clean_linker_0, # of connection points: 2
#     Edge 53, Type (0, 0), BuildingBlock: AJUNOK_clean_linker_0, # of connection points: 2
#     Edge 54, Type (0, 0), BuildingBlock: AJUNOK_clean_linker_0, # of connection points: 2
#     Edge 55, Type (0, 0), BuildingBlock: AJUNOK_clean_linker_0, # of connection points: 2
#     Edge 56, Type (0, 0), BuildingBlock: AJUNOK_clean_linker_0, # of connection points: 2
#     Edge 57, Type (0, 0), BuildingBlock: AJUNOK_clean_linker_0, # of connection points: 2
#     Edge 58, Type (0, 0), BuildingBlock: AJUNOK_clean_linker_0, # of connection points: 2
#     Edge 59, Type (0, 0), BuildingBlock: AJUNOK_clean_linker_0, # of connection points: 2
#     Edge 60, Type (0, 0), BuildingBlock: AJUNOK_clean_linker_0, # of connection points: 2
#     Edge 61, Type (0, 0), BuildingBlock: AJUNOK_clean_linker_0, # of connection points: 2
#     Edge 62, Type (0, 0), BuildingBlock: AJUNOK_clean_linker_0, # of connection points: 2
#     Edge 63, Type (0, 0), BuildingBlock: AJUNOK_clean_linker_0, # of connection points: 2
# Relax obj value: 0.405
# Max RMSD: 0.270
# Mean RMSD: 0.227
data_MOF--net-whw--node1-BETFAJ_clean_sbu_0--edge1-AJUNOK_clean_linker_0
_symmetry_space_group_name_H-M    P1
_symmetry_Int_Tables_number       1
_symmetry_cell_setting            triclinic
loop_
_symmetry_equiv_pos_as_xyz
'x, y, z'
_cell_length_a     33.994872
_cell_length_b     33.995518
_cell_length_c     27.449598
_cell_angle_alpha  89.56795
_cell_angle_beta   98.410319
_cell_angle_gamma 94.285926
loop_
_atom_site_label
_atom_site_type_symbol
_atom_site_fract_x
_atom_site_fract_y
_atom_site_fract_z
_atom_type_partial_charge
Sm0 Sm 0.06965 0.15485 0.16592 0.0
Sm1 Sm 0.99418 0.11424 0.176 0.0
C2 C 0.13729 0.17774 0.13393 0.0
C3 C 0.14615 0.17099 0.08436 0.0
C4 C 0.11671 0.14996 0.05205 0.0
C5 C 0.12261 0.142 1.00468 0.0
C6 C 0.15886 0.15365 0.98838 0.0
C7 C 0.18896 0.1748 1.02079 0.0
C8 C 0.18244 0.18383 0.06874 0.0
C9 C 0.02002 0.19791 0.21118 0.0
C10 C 0.99443 0.16493 0.07291 0.0
C11 C 0.93276 0.07483 0.20724 0.0
C12 C 0.91846 0.07482 0.25522 0.0
C13 C 0.9206 0.11006 0.28214 0.0
C14 C 0.91154 0.10954 0.32998 0.0
C15 C 0.90054 0.07379 0.35201 0.0
C16 C 0.89821 0.03851 0.32515 0.0
C17 C 0.90692 0.03906 0.27686 0.0
C18 C 0.03177 0.07403 0.11185 0.0
C19 C 0.06234 0.13645 0.2805 0.0
O20 O 0.13257 0.14539 0.15932 0.0
O21 O 0.10873 0.2012 0.13562 0.0
O22 O 0.01069 0.17693 0.17388 0.0
O23 O 0.05851 0.20205 0.22289 0.0
O24 O 0.03354 0.16716 0.08744 0.0
O25 O 0.97037 0.14891 0.1033 0.0
O26 O 0.92953 0.10728 0.18155 0.0
O27 O 0.96725 0.06009 0.20754 0.0
O28 O 0.0496 0.08809 0.15336 0.0
O29 O 0.9955 0.0837 0.10438 0.0
O30 O 0.02463 0.12561 0.261 0.0
O31 O 0.08842 0.14463 0.24986 0.0
H32 H 0.08942 0.13812 0.06398 0.0
H33 H 0.09908 0.1247 0.98178 0.0
H34 H 0.21731 0.18411 1.00918 0.0
H35 H 0.20563 0.20004 0.09355 0.0
H36 H 0.93051 0.1379 0.26685 0.0
H37 H 0.91456 0.13699 0.35047 0.0
H38 H 0.89016 0.0106 0.34174 0.0
H39 H 0.90583 0.01151 0.25694 0.0
Sm40 Sm 0.16687 0.80279 0.46883 0.0
Sm41 Sm 0.16998 0.72395 0.42255 0.0
C42 C 0.16321 0.86697 0.52134 0.0
C43 C 0.15177 0.87886 0.56835 0.0
C44 C 0.15961 0.85585 0.61083 0.0
C45 C 0.1485 0.86772 0.65514 0.0
C46 C 0.12949 0.90282 0.65769 0.0
C47 C 0.12172 0.92579 0.61512 0.0
C48 C 0.13291 0.91393 0.57081 0.0
C49 C 0.2342 0.79415 0.42545 0.0
C50 C 0.17369 0.72443 0.54117 0.0
C51 C 0.18425 0.6612 0.37406 0.0
C52 C 0.16633 0.64808 0.32389 0.0
C53 C 0.19051 0.6365 0.29005 0.0
C54 C 0.17434 0.62938 0.24062 0.0
C55 C 0.13375 0.63406 0.22413 0.0
C56 C 0.10948 0.6446 0.25845 0.0
C57 C 0.12556 0.6516 0.30766 0.0
C58 C 0.09313 0.74269 0.4257 0.0
C59 C 0.1434 0.79879 0.3538 0.0
O60 O 0.13425 0.85369 0.48729 0.0
O61 O 0.19515 0.8473 0.52383 0.0
O62 O 0.21894 0.76906 0.4527 0.0
O63 O 0.2139 0.82487 0.42004 0.0
O64 O 0.16719 0.76216 0.53633 0.0
O65 O 0.1801 0.70322 0.50333 0.0
O66 O 0.20717 0.69404 0.37599 0.0
O67 O 0.16046 0.65954 0.40766 0.0
O68 O 0.12176 0.74966 0.46017 0.0
O69 O 0.10467 0.72518 0.38916 0.0
O70 O 0.16384 0.76708 0.35728 0.0
O71 O 0.13285 0.81447 0.39311 0.0
H72 H 0.17408 0.82863 0.60973 0.0
H73 H 0.15394 0.84898 0.68715 0.0
H74 H 0.10692 0.95285 0.61615 0.0
H75 H 0.12669 0.93207 0.53836 0.0
H76 H 0.22208 0.63393 0.30157 0.0
H77 H 0.19365 0.62054 0.21524 0.0
H78 H 0.07818 0.64865 0.24693 0.0
H79 H 0.10618 0.66092 0.33265 0.0
Sm80 Sm 0.47539 0.90074 0.71843 0.0
Sm81 Sm 0.51265 0.865 0.61814 0.0
C82 C 0.44997 0.89219 0.80762 0.0
C83 C 0.44778 0.88039 0.86175 0.0
C84 C 0.45999 0.84398 0.88198 0.0
C85 C 0.45388 0.83177 0.93046 0.0
C86 C 0.43461 0.8549 0.96146 0.0
C87 C 0.42203 0.89113 0.9406 0.0
C88 C 0.42871 0.90356 0.8925 0.0
C89 C 0.50025 0.95249 0.64852 0.0
C90 C 0.57311 0.88777 0.72008 0.0
C91 C 0.5359 0.84962 0.53026 0.0
C92 C 0.55047 0.84053 0.48126 0.0
C93 C 0.52539 0.84173 0.43543 0.0
C94 C 0.53818 0.83062 0.39054 0.0
C95 C 0.57679 0.81799 0.38893 0.0
C96 C 0.60242 0.81856 0.43466 0.0
C97 C 0.58941 0.82899 0.47965 0.0
C98 C 0.48219 0.81444 0.68417 0.0
C99 C 0.41658 0.8897 0.61448 0.0
O100 O 0.4469 0.86458 0.77394 0.0
O101 O 0.46687 0.92575 0.7934 0.0
O102 O 0.51512 0.92075 0.66241 0.0
O103 O 0.47317 0.9609 0.67599 0.0
O104 O 0.54209 0.89268 0.74331 0.0
O105 O 0.57043 0.88104 0.67199 0.0
O106 O 0.51315 0.87823 0.53668 0.0
O107 O 0.54627 0.82979 0.57073 0.0
O108 O 0.47111 0.84735 0.67184 0.0
O109 O 0.50818 0.80427 0.65695 0.0
O110 O 0.44685 0.87932 0.59228 0.0
O111 O 0.41871 0.89751 0.66211 0.0
H112 H 0.47395 0.82438 0.86003 0.0
H113 H 0.46445 0.8038 0.94359 0.0
H114 H 0.4056 0.90983 0.96065 0.0
H115 H 0.4176 0.93116 0.87867 0.0
H116 H 0.49522 0.85024 0.4344 0.0
H117 H 0.51723 0.83076 0.35689 0.0
H118 H 0.63268 0.81029 0.43607 0.0
H119 H 0.61006 0.82779 0.51353 0.0
Sm120 Sm 0.35642 0.18699 0.91504 0.0
Sm121 Sm 0.36169 0.26659 0.86938 0.0
C122 C 0.35591 0.12335 0.97148 0.0
C123 C 0.36913 0.11099 1.02269 0.0
C124 C 0.39965 0.08509 1.03194 0.0
C125 C 0.41398 0.07423 0.08008 0.0
C126 C 0.39788 0.08881 0.12006 0.0
C127 C 0.36638 0.11365 0.11071 0.0
C128 C 0.35205 0.12458 0.06248 0.0
C129 C 0.29395 0.19921 0.84108 0.0
C130 C 0.35031 0.2663 0.98225 0.0
C131 C 0.35611 0.32606 0.80634 0.0
C132 C 0.36846 0.33315 0.75752 0.0
C133 C 0.36232 0.30368 0.72094 0.0
C134 C 0.37856 0.30935 0.67718 0.0
C135 C 0.40159 0.34434 0.66955 0.0
C136 C 0.40667 0.37414 0.70563 0.0
C137 C 0.39016 0.36863 0.74911 0.0
C138 C 0.43175 0.25113 0.92859 0.0
C139 C 0.38763 0.1889 0.81189 0.0
O140 O 0.38412 0.13319 0.94498 0.0
O141 O 0.32602 0.14593 0.96348 0.0
O142 O 0.3086 0.22398 0.87461 0.0
O143 O 0.31017 0.16615 0.84879 0.0
O144 O 0.36204 0.23021 0.98087 0.0
O145 O 0.34029 0.28565 0.94089 0.0
O146 O 0.32687 0.2993 0.80929 0.0
O147 O 0.38525 0.3242 0.8427 0.0
O148 O 0.41015 0.22649 0.90012 0.0
O149 O 0.41666 0.28516 0.92548 0.0
O150 O 0.37695 0.22555 0.80883 0.0
O151 O 0.38746 0.1681 0.85243 0.0
H152 H 0.41292 0.07369 1.00189 0.0
H153 H 0.43806 0.0548 0.08614 0.0
H154 H 0.35373 0.12578 0.14079 0.0
H155 H 0.32818 0.14425 0.05655 0.0
H156 H 0.34607 0.2758 0.72673 0.0
H157 H 0.37447 0.28573 0.65025 0.0
H158 H 0.42398 0.40154 0.70051 0.0
H159 H 0.39541 0.39164 0.7769 0.0
Sm160 Sm 0.06648 0.89996 0.95065 0.0
Sm161 Sm 0.98343 0.90009 0.89046 0.0
C162 C 0.13074 0.90979 1.01741 0.0
C163 C 0.13699 0.90621 0.07095 0.0
C164 C 0.10681 0.91478 0.09825 0.0
C165 C 0.10875 0.90266 0.14709 0.0
C166 C 0.14062 0.88149 0.16883 0.0
C167 C 0.17222 0.87573 0.14254 0.0
C168 C 0.17039 0.88803 0.09381 0.0
C169 C 0.04464 0.83287 0.89465 0.0
C170 C 0.98614 0.87092 1.00226 0.0
C171 C 0.92003 0.89115 0.82083 0.0
C172 C 0.90936 0.87551 0.76973 0.0
C173 C 0.92741 0.84299 0.7538 0.0
C174 C 0.91502 0.82689 0.7066 0.0
C175 C 0.8845 0.84304 0.67395 0.0
C176 C 0.86704 0.87609 0.68971 0.0
C177 C 0.87933 0.89208 0.73704 0.0
C178 C 0.00534 0.96333 0.95467 0.0
C179 C 0.06357 0.92055 0.83758 0.0
O180 O 0.11034 0.93894 0.99926 0.0
O181 O 0.11991 0.87659 0.99386 0.0
O182 O 0.02186 0.85076 0.91793 0.0
O183 O 0.08042 0.85006 0.90156 0.0
O184 O 0.02424 0.88424 1.00866 0.0
O185 O 0.96423 0.86953 0.95834 0.0
O186 O 0.92886 0.86534 0.85561 0.0
O187 O 0.94298 0.92396 0.82723 0.0
O188 O 0.02725 0.94843 0.9275 0.0
O189 O 0.96911 0.94755 0.94403 0.0
O190 O 0.02669 0.9045 0.83317 0.0
O191 O 0.08449 0.92851 0.88105 0.0
H192 H 0.08056 0.92857 0.08104 0.0
H193 H 0.08394 0.90731 0.1665 0.0
H194 H 0.19736 0.85991 0.1589 0.0
H195 H 0.19382 0.88114 0.0731 0.0
H196 H 0.95075 0.82966 0.77808 0.0
H197 H 0.92934 0.80165 0.69562 0.0
H198 H 0.84311 0.88896 0.66594 0.0
H199 H 0.8648 0.91703 0.74847 0.0
Sm200 Sm 0.42734 0.80934 0.28874 0.0
Sm201 Sm 0.40846 0.72565 0.25344 0.0
C202 C 0.4192 0.87984 0.32453 0.0
C203 C 0.39422 0.89551 0.35793 0.0
C204 C 0.35503 0.87931 0.35857 0.0
C205 C 0.33439 0.88842 0.39683 0.0
C206 C 0.353 0.9134 0.43521 0.0
C207 C 0.3901 0.93356 0.43068 0.0
C208 C 0.41067 0.92441 0.39241 0.0
C209 C 0.48626 0.78287 0.24215 0.0
C210 C 0.4501 0.73434 0.36958 0.0
C211 C 0.39189 0.65687 0.20752 0.0
C212 C 0.39206 0.64407 0.15675 0.0
C213 C 0.40873 0.66978 0.12399 0.0
C214 C 0.40596 0.65986 0.07455 0.0
C215 C 0.38606 0.62405 0.05677 0.0
C216 C 0.36991 0.59776 0.0897 0.0
C217 C 0.37286 0.60781 0.13957 0.0
C218 C 0.35377 0.75427 0.30681 0.0
C219 C 0.41024 0.79813 0.16708 0.0
O220 O 0.40005 0.86635 0.28259 0.0
O221 O 0.44667 0.85706 0.34422 0.0
O222 O 0.46602 0.76263 0.2697 0.0
O223 O 0.48095 0.81996 0.247 0.0
O224 O 0.44366 0.77271 0.3634 0.0
O225 O 0.44267 0.71001 0.331 0.0
O226 O 0.42676 0.66732 0.23289 0.0
O227 O 0.36496 0.68143 0.21273 0.0
O228 O 0.36888 0.77285 0.27313 0.0
O229 O 0.36673 0.71952 0.31232 0.0
O230 O 0.40861 0.75966 0.177 0.0
O231 O 0.41325 0.8235 0.2042 0.0
H232 H 0.34148 0.85753 0.33152 0.0
H233 H 0.30593 0.87254 0.39944 0.0
H234 H 0.4056 0.95269 0.45982 0.0
H235 H 0.44064 0.93763 0.39199 0.0
H236 H 0.42317 0.69795 0.13642 0.0
H237 H 0.41905 0.68045 0.05002 0.0
H238 H 0.35416 0.5701 0.07666 0.0
H239 H 0.3594 0.58781 0.16438 0.0
Sm240 Sm 0.47474 0.09549 0.43569 0.0
Sm241 Sm 0.55545 0.08713 0.40429 0.0
C242 C 0.40989 0.09792 0.47815 0.0
C243 C 0.403 0.09729 0.52937 0.0
C244 C 0.43391 0.08864 0.56674 0.0
C245 C 0.43159 0.09768 0.61559 0.0
C246 C 0.39826 0.1153 0.62728 0.0
C247 C 0.3661 0.12137 0.59049 0.0
C248 C 0.3685 0.11242 0.54155 0.0
C249 C 0.50506 0.16209 0.39087 0.0
C250 C 0.55644 0.11291 0.51609 0.0
C251 C 0.61963 0.09232 0.35944 0.0
C252 C 0.63186 0.10823 0.31311 0.0
C253 C 0.66371 0.13729 0.31545 0.0
C254 C 0.67515 0.15384 0.27238 0.0
C255 C 0.6553 0.14127 0.22601 0.0
C256 C 0.62371 0.11184 0.22356 0.0
C257 C 0.61202 0.09551 0.26669 0.0
C258 C 0.53308 0.02557 0.46318 0.0
C259 C 0.47385 0.07498 0.32301 0.0
O260 O 0.42062 0.06547 0.46049 0.0
O261 O 0.43102 0.12926 0.4665 0.0
O262 O 0.52431 0.14029 0.42147 0.0
O263 O 0.46829 0.14783 0.38161 0.0
O264 O 0.51794 0.10146 0.50925 0.0
O265 O 0.577 0.11605 0.47893 0.0
O266 O 0.61266 0.11841 0.39131 0.0
O267 O 0.59434 0.06106 0.35662 0.0
O268 O 0.50953 0.04211 0.43032 0.0
O269 O 0.56959 0.03784 0.4599 0.0
O270 O 0.51196 0.08728 0.33152 0.0
O271 O 0.45306 0.06894 0.35953 0.0
H272 H 0.46088 0.07738 0.55787 0.0
H273 H 0.45672 0.09316 0.64373 0.0
H274 H 0.34033 0.13529 0.59923 0.0
H275 H 0.34464 0.11968 0.513 0.0
H276 H 0.67954 0.14754 0.35075 0.0
H277 H 0.69956 0.17649 0.27529 0.0
H278 H 0.60744 0.10212 0.18829 0.0
H279 H 0.58719 0.07334 0.26361 0.0
Sm280 Sm 0.1199 0.17247 0.61715 0.0
Sm281 Sm 0.13467 0.25539 0.58382 0.0
C282 C 0.12986 0.10137 0.65519 0.0
C283 C 0.1513 0.08607 0.70078 0.0
C284 C 0.18754 0.10537 0.72204 0.0
C285 C 0.19912 0.10395 0.77278 0.0
C286 C 0.17434 0.0831 0.80204 0.0
C287 C 0.14319 0.05681 0.77949 0.0
C288 C 0.13116 0.05888 0.72877 0.0
C289 C 0.04936 0.2065 0.58517 0.0
C290 C 0.10854 0.24539 0.69605 0.0
C291 C 0.14461 0.32366 0.53963 0.0
C292 C 0.14541 0.33379 0.48784 0.0
C293 C 0.12069 0.31194 0.45074 0.0
C294 C 0.12414 0.31893 0.40153 0.0
C295 C 0.15269 0.34762 0.38836 0.0
C296 C 0.17775 0.36923 0.42561 0.0
C297 C 0.17424 0.36219 0.4751 0.0
C298 C 0.19561 0.23322 0.65273 0.0
C299 C 0.11145 0.18385 0.49567 0.0
O300 O 0.15172 0.11754 0.62379 0.0
O301 O 0.09998 0.12203 0.6614 0.0
O302 O 0.08154 0.22295 0.60583 0.0
O303 O 0.05512 0.16994 0.5765 0.0
O304 O 0.11595 0.20743 0.69144 0.0
O305 O 0.10892 0.26922 0.65695 0.0
O306 O 0.11014 0.31026 0.55191 0.0
O307 O 0.17424 0.30344 0.55879 0.0
O308 O 0.17794 0.21049 0.61766 0.0
O309 O 0.1842 0.26847 0.64687 0.0
O310 O 0.12132 0.2217 0.50658 0.0
O311 O 0.11098 0.15814 0.53218 0.0
H312 H 0.20417 0.12515 0.7004 0.0
H313 H 0.22375 0.12373 0.78951 0.0
H314 H 0.1242 0.03983 0.80167 0.0
H315 H 0.1035 0.04305 0.71272 0.0
H316 H 0.09859 0.28949 0.45971 0.0
H317 H 0.10331 0.30282 0.37372 0.0
H318 H 0.19952 0.39191 0.41636 0.0
H319 H 0.19412 0.37873 0.50343 0.0
Sm320 Sm 0.91999 0.29345 0.78212 0.0
Sm321 Sm 0.90766 0.20821 0.74699 0.0
C322 C 0.9078 0.36242 0.81874 0.0
C323 C 0.8868 0.37622 0.85801 0.0
C324 C 0.8453 0.36836 0.8564 0.0
C325 C 0.82726 0.37452 0.89805 0.0
C326 C 0.85035 0.38963 0.94108 0.0
C327 C 0.89092 0.40124 0.94089 0.0
C328 C 0.90898 0.39465 0.89967 0.0
C329 C 0.98313 0.26785 0.74172 0.0
C330 C 0.94254 0.22148 0.86562 0.0
C331 C 0.8974 0.13796 0.70393 0.0
C332 C 0.90147 0.12211 0.65567 0.0
C333 C 0.91855 0.14622 0.62158 0.0
C334 C 0.9182 0.13289 0.57366 0.0
C335 C 0.9 0.09566 0.55898 0.0
C336 C 0.88423 0.07084 0.59348 0.0
C337 C 0.88498 0.08408 0.64178 0.0
C338 C 0.84981 0.23127 0.7984 0.0
C339 C 0.90799 0.28144 0.66064 0.0
O340 O 0.88533 0.34596 0.78041 0.0
O341 O 0.94006 0.34394 0.83296 0.0
O342 O 0.96216 0.24821 0.76878 0.0
O343 O 0.97481 0.30454 0.74173 0.0
O344 O 0.93269 0.25868 0.85799 0.0
O345 O 0.9404 0.19715 0.82716 0.0
O346 O 0.93037 0.1507 0.73176 0.0
O347 O 0.86886 0.16175 0.70369 0.0
O348 O 0.86468 0.25206 0.76605 0.0
O349 O 0.8635 0.19684 0.80132 0.0
O350 O 0.9083 0.24294 0.67086 0.0
O351 O 0.90847 0.30693 0.69722 0.0
H352 H 0.82715 0.35558 0.82395 0.0
H353 H 0.79603 0.36535 0.89773 0.0
H354 H 0.90955 0.41206 0.97422 0.0
H355 H 0.94079 0.40164 0.90152 0.0
H356 H 0.93086 0.17581 0.63156 0.0
H357 H 0.93101 0.15209 0.54751 0.0
H358 H 0.87006 0.04201 0.58257 0.0
H359 H 0.87143 0.06526 0.66772 0.0
Sm360 Sm 0.61466 0.68057 0.11753 0.0
Sm361 Sm 0.63952 0.76149 0.08339 0.0
C362 C 0.61323 0.61138 0.1622 0.0
C363 C 0.63266 0.5958 0.20908 0.0
C364 C 0.67422 0.60073 0.2223 0.0
C365 C 0.6917 0.59294 0.27022 0.0
C366 C 0.66788 0.57954 0.30534 0.0
C367 C 0.6267 0.57135 0.29107 0.0
C368 C 0.60918 0.5795 0.2432 0.0
C369 C 0.54988 0.72269 0.08357 0.0
C370 C 0.61453 0.75653 0.19602 0.0
C371 C 0.65766 0.82895 1.04008 0.0
C372 C 0.66291 0.84036 0.98969 0.0
C373 C 0.65084 0.81357 0.95108 0.0
C374 C 0.65515 0.82405 0.90302 0.0
C375 C 0.67097 0.86197 0.89214 0.0
C376 C 0.68548 0.88799 0.93151 0.0
C377 C 0.68151 0.87719 0.98002 0.0
C378 C 0.69705 0.7319 0.15126 0.0
C379 C 0.61163 0.68875 0.99657 0.0
O380 O 0.63622 0.62082 0.12887 0.0
O381 O 0.58725 0.63732 0.16599 0.0
O382 O 0.58314 0.73575 0.10548 0.0
O383 O 0.55125 0.68521 0.07535 0.0
O384 O 0.61797 0.71784 0.19116 0.0
O385 O 0.61601 0.77991 0.1567 0.0
O386 O 0.62128 0.81756 1.04759 0.0
O387 O 0.68424 0.80608 0.06129 0.0
O388 O 0.67615 0.7112 0.11644 0.0
O389 O 0.69037 0.76865 0.14617 0.0
O390 O 0.62477 0.72603 1.00732 0.0
O391 O 0.60695 0.66396 1.03322 0.0
H392 H 0.69294 0.61244 0.19632 0.0
H393 H 0.72349 0.59929 0.28064 0.0
H394 H 0.60767 0.5615 0.31786 0.0
H395 H 0.57707 0.57525 0.23368 0.0
H396 H 0.63678 0.78494 0.95771 0.0
H397 H 0.64331 0.80313 0.87427 0.0
H398 H 0.69806 0.91736 0.92456 0.0
H399 H 0.69192 0.89793 1.0097 0.0
Sm400 Sm 0.67799 0.29713 0.97245 0.0
Sm401 Sm 0.67246 0.2166 0.92712 0.0
C402 C 0.67817 0.36094 1.02728 0.0
C403 C 0.66439 0.37124 0.07344 0.0
C404 C 0.63276 0.3488 0.09021 0.0
C405 C 0.61927 0.35937 0.13357 0.0
C406 C 0.63744 0.39227 0.16111 0.0
C407 C 0.66953 0.41432 0.14467 0.0
C408 C 0.68287 0.40386 0.10101 0.0
C409 C 0.74413 0.27968 0.9321 0.0
C410 C 0.6844 0.21866 1.0432 0.0
C411 C 0.67879 0.15522 0.87092 0.0
C412 C 0.66639 0.14664 0.81811 0.0
C413 C 0.67883 0.17209 0.78176 0.0
C414 C 0.66323 0.16593 0.73224 0.0
C415 C 0.63465 0.13453 0.71825 0.0
C416 C 0.62301 0.10856 0.75443 0.0
C417 C 0.63892 0.11445 0.8039 0.0
C418 C 0.60201 0.23435 0.95737 0.0
C419 C 0.65509 0.29454 0.85556 0.0
O420 O 0.65036 0.35116 0.99028 0.0
O421 O 0.70794 0.3383 1.03128 0.0
O422 O 0.72514 0.25668 0.95829 0.0
O423 O 0.72966 0.31386 0.92896 0.0
O424 O 0.67086 0.25403 1.03671 0.0
O425 O 0.69556 0.19991 1.00629 0.0
O426 O 0.70777 0.18255 0.88257 0.0
O427 O 0.64973 0.15753 0.89682 0.0
O428 O 0.62451 0.2584 0.93657 0.0
O429 O 0.616 0.19982 0.96113 0.0
O430 O 0.6634 0.25716 0.85889 0.0
O431 O 0.65424 0.3163 0.89483 0.0
H432 H 0.61838 0.32326 0.06965 0.0
H433 H 0.59469 0.34172 0.14576 0.0
H434 H 0.68376 0.43997 0.16507 0.0
H435 H 0.70742 0.42139 0.08857 0.0
H436 H 0.69966 0.19745 0.79158 0.0
H437 H 0.67237 0.18662 0.70511 0.0
H438 H 0.60124 0.08396 0.74447 0.0
H439 H 0.62885 0.09452 0.83129 0.0
Sm440 Sm 0.84719 0.68289 0.41791 0.0
Sm441 Sm 0.85263 0.76249 0.36978 0.0
C442 C 0.84898 0.62073 0.4769 0.0
C443 C 0.86335 0.61059 0.52842 0.0
C444 C 0.86036 0.63616 0.56743 0.0
C445 C 0.8766 0.627 0.61564 0.0
C446 C 0.89629 0.59225 0.62557 0.0
C447 C 0.89822 0.5662 0.58663 0.0
C448 C 0.88191 0.57534 0.53849 0.0
C449 C 0.78425 0.69414 0.34458 0.0
C450 C 0.84148 0.76439 0.48196 0.0
C451 C 0.85037 0.82046 0.30449 0.0
C452 C 0.86855 0.82761 0.25887 0.0
C453 C 0.85328 0.80752 0.21465 0.0
C454 C 0.87225 0.81302 0.17282 0.0
C455 C 0.90702 0.83839 0.17446 0.0
C456 C 0.92184 0.85895 0.21828 0.0
C457 C 0.90273 0.85377 0.2599 0.0
C458 C 0.92345 0.74479 0.42644 0.0
C459 C 0.87578 0.68318 0.31259 0.0
O460 O 0.8766 0.6304 0.44952 0.0
O461 O 0.81856 0.64264 0.46875 0.0
O462 O 0.79967 0.71991 0.37664 0.0
O463 O 0.79895 0.6606 0.35493 0.0
O464 O 0.85326 0.72818 0.48196 0.0
O465 O 0.83053 0.78255 0.44 0.0
O466 O 0.82206 0.79211 0.30364 0.0
O467 O 0.87507 0.82142 0.34569 0.0
O468 O 0.89995 0.72124 0.39882 0.0
O469 O 0.90955 0.77934 0.42445 0.0
O470 O 0.86578 0.72005 0.31005 0.0
O471 O 0.87628 0.66271 0.35358 0.0
H472 H 0.84612 0.66347 0.56052 0.0
H473 H 0.8748 0.64764 0.64498 0.0
H474 H 0.91266 0.53894 0.59338 0.0
H475 H 0.88436 0.55514 0.50892 0.0
H476 H 0.82699 0.78718 0.21242 0.0
H477 H 0.86015 0.79693 0.1394 0.0
H478 H 0.94814 0.87929 0.22024 0.0
H479 H 0.91504 0.86995 0.29319 0.0
Sm480 Sm 0.57949 0.65037 0.66535 0.0
Sm481 Sm 0.49488 0.62412 0.6772 0.0
C482 C 0.65144 0.65344 0.63915 0.0
C483 C 0.66639 0.63532 0.59797 0.0
C484 C 0.64329 0.60418 0.57251 0.0
C485 C 0.65396 0.58936 0.52969 0.0
C486 C 0.68882 0.60461 0.51212 0.0
C487 C 0.71342 0.63428 0.53966 0.0
C488 C 0.70205 0.6498 0.58219 0.0
C489 C 0.54052 0.7042 0.70865 0.0
C490 C 0.50545 0.66977 0.57258 0.0
C491 C 0.42695 0.59984 0.70722 0.0
C492 C 0.41212 0.60341 0.75434 0.0
C493 C 0.42608 0.6355 0.78555 0.0
C494 C 0.41582 0.63674 0.83274 0.0
C495 C 0.39189 0.60567 0.84973 0.0
C496 C 0.37734 0.57383 0.81826 0.0
C497 C 0.38739 0.57276 0.7707 0.0
C498 C 0.5256 0.57702 0.61406 0.0
C499 C 0.56475 0.63988 0.78118 0.0
O500 O 0.63952 0.62829 0.6713 0.0
O501 O 0.62651 0.68072 0.62712 0.0
O502 O 0.52654 0.68222 0.6733 0.0
O503 O 0.57905 0.70359 0.71825 0.0
O504 O 0.54434 0.66584 0.58704 0.0
O505 O 0.47939 0.65969 0.60345 0.0
O506 O 0.43156 0.63261 0.68253 0.0
O507 O 0.4569 0.57757 0.70842 0.0
O508 O 0.5454 0.58962 0.655 0.0
O509 O 0.48928 0.58645 0.60898 0.0
O510 O 0.52631 0.63373 0.76163 0.0
O511 O 0.59206 0.64197 0.75105 0.0
H512 H 0.61606 0.59234 0.58492 0.0
H513 H 0.63343 0.56757 0.50904 0.0
H514 H 0.74056 0.64655 0.52726 0.0
H515 H 0.72041 0.6737 0.60185 0.0
H516 H 0.44593 0.65903 0.77406 0.0
H517 H 0.42778 0.66133 0.85665 0.0
H518 H 0.35874 0.54966 0.83072 0.0
H519 H 0.37683 0.54754 0.74721 0.0
Sm520 Sm 0.97501 0.39857 0.2187 0.0
Sm521 Sm 0.00442 0.3633 0.11277 0.0
C522 C 0.9514 0.39177 0.30906 0.0
C523 C 0.95001 0.37593 0.3618 0.0
C524 C 0.95658 0.33643 0.37546 0.0
C525 C 0.95045 0.32117 0.42269 0.0
C526 C 0.93643 0.34419 0.4588 0.0
C527 C 0.93065 0.38397 0.44511 0.0
C528 C 0.93723 0.3993 0.39813 0.0
C529 C 0.992 0.45109 0.14523 0.0
C530 C 0.06966 0.38174 0.21422 0.0
C531 C 0.03666 0.34525 1.03202 0.0
C532 C 0.0431 0.32873 0.98202 0.0
C533 C 0.02394 0.34231 0.93645 0.0
C534 C 0.03348 0.32922 0.89062 0.0
C535 C 0.06314 0.30234 0.88777 0.0
C536 C 0.08159 0.28827 0.93364 0.0
C537 C 0.07185 0.30111 0.97933 0.0
C538 C 0.96573 0.31593 0.17506 0.0
C539 C 0.912 0.3841 0.11621 0.0
O540 O 0.93841 0.36837 0.2714 0.0
O541 O 0.97733 0.42013 0.298 0.0
O542 O 0.00829 0.4197 0.15668 0.0
O543 O 0.96752 0.45863 0.17644 0.0
O544 O 0.04148 0.39072 0.24019 0.0
O545 O 0.06356 0.37197 0.16671 0.0
O546 O 0.01712 0.37693 1.03566 0.0
O547 O 0.03855 0.32326 0.07179 0.0
O548 O 0.99067 0.34403 0.18611 0.0
O549 O 0.96356 0.30762 0.12831 0.0
O550 O 0.94157 0.38336 0.08936 0.0
O551 O 0.91657 0.38499 0.16508 0.0
H552 H 0.96617 0.3169 0.34934 0.0
H553 H 0.95712 0.291 0.4307 0.0
H554 H 0.91986 0.40345 0.47035 0.0
H555 H 0.93107 0.42959 0.38968 0.0
H556 H 0.00165 0.36348 0.93608 0.0
H557 H 0.01715 0.34028 0.85727 0.0
H558 H 0.10466 0.26788 0.93463 0.0
H559 H 0.08783 0.28994 1.01303 0.0
Sm560 Sm 0.56602 0.40379 0.45524 0.0
Sm561 Sm 0.48626 0.40329 0.38987 0.0
C562 C 0.6308 0.4192 0.51928 0.0
C563 C 0.64106 0.40461 0.57019 0.0
C564 C 0.62856 0.42388 0.60982 0.0
C565 C 0.63182 0.4066 0.65639 0.0
C566 C 0.64779 0.3698 0.66436 0.0
C567 C 0.6626 0.35169 0.62567 0.0
C568 C 0.65929 0.36893 0.57902 0.0
C569 C 0.53596 0.32897 0.42669 0.0
C570 C 0.48485 0.37404 0.50026 0.0
C571 C 0.42416 0.39822 0.31816 0.0
C572 C 0.41429 0.38264 0.26708 0.0
C573 C 0.43812 0.35586 0.2488 0.0
C574 C 0.42653 0.33856 0.20214 0.0
C575 C 0.39109 0.34801 0.17243 0.0
C576 C 0.36826 0.3762 0.1899 0.0
C577 C 0.37962 0.39313 0.2369 0.0
C578 C 0.50608 0.46786 0.45341 0.0
C579 C 0.56873 0.41577 0.33884 0.0
O580 O 0.60157 0.44263 0.51236 0.0
O581 O 0.62892 0.39323 0.48376 0.0
O582 O 0.53347 0.35883 0.39882 0.0
O583 O 0.55579 0.33806 0.46963 0.0
O584 O 0.52061 0.39294 0.50948 0.0
O585 O 0.46739 0.36739 0.45461 0.0
O586 O 0.4302 0.372 0.35313 0.0
O587 O 0.44935 0.42942 0.32536 0.0
O588 O 0.52858 0.45269 0.42745 0.0
O589 O 0.471 0.4494 0.44542 0.0
O590 O 0.52959 0.40917 0.333 0.0
O591 O 0.59019 0.41762 0.3829 0.0
H592 H 0.61469 0.45158 0.60447 0.0
H593 H 0.62046 0.42131 0.68572 0.0
H594 H 0.67611 0.32384 0.63128 0.0
H595 H 0.66971 0.35355 0.5495 0.0
H596 H 0.46532 0.34775 0.27098 0.0
H597 H 0.44512 0.31743 0.18942 0.0
H598 H 0.34091 0.38414 0.16788 0.0
H599 H 0.36084 0.41385 0.2501 0.0
Sm600 Sm 0.97825 0.60184 0.93745 0.0
Sm601 Sm 0.05776 0.58976 0.90761 0.0
C602 C 0.91343 0.60922 0.97839 0.0
C603 C 0.90268 0.60424 1.02765 0.0
C604 C 0.93066 0.59204 0.06652 0.0
C605 C 0.92443 0.59705 0.11514 0.0
C606 C 0.8903 0.61448 0.12493 0.0
C607 C 0.86078 0.62333 0.08589 0.0
C608 C 0.86699 0.61824 1.03739 0.0
C609 C 0.0082 0.66506 0.88656 0.0
C610 C 0.05901 0.61552 1.01935 0.0
C611 C 0.12057 0.59136 0.86022 0.0
C612 C 0.13176 0.60906 0.81391 0.0
C613 C 0.15115 0.64713 0.81442 0.0
C614 C 0.15993 0.66488 0.77079 0.0
C615 C 0.14996 0.64491 0.72554 0.0
C616 C 0.13219 0.60622 0.72508 0.0
C617 C 0.12309 0.58848 0.76881 0.0
C618 C 0.03241 0.52945 0.96674 0.0
C619 C 0.97606 0.57717 0.82632 0.0
O620 O 0.91959 0.57738 0.95527 0.0
O621 O 0.94014 0.63824 0.97435 0.0
O622 O 0.02814 0.6455 0.91937 0.0
O623 O 0.97145 0.65083 0.87947 0.0
O624 O 0.02051 0.60441 1.01159 0.0
O625 O 0.08008 0.61881 0.98258 0.0
O626 O 0.11735 0.61589 0.89569 0.0
O627 O 0.09283 0.56219 0.85621 0.0
O628 O 0.01015 0.54647 0.93313 0.0
O629 O 0.06944 0.54049 0.96456 0.0
O630 O 0.01432 0.58889 0.83443 0.0
O631 O 0.95522 0.57305 0.86301 0.0
H632 H 0.95843 0.58125 0.05936 0.0
H633 H 0.94765 0.59038 0.14481 0.0
H634 H 0.83424 0.63678 0.09295 0.0
H635 H 0.84527 0.62788 1.00766 0.0
H636 H 0.15914 0.66352 0.84853 0.0
H637 H 0.17428 0.69449 0.77234 0.0
H638 H 0.12424 0.59015 0.69069 0.0
H639 H 0.10871 0.55891 0.76711 0.0
C640 C 0.20019 0.12254 0.93272 0.0
C641 C 0.1651 0.14032 0.93903 0.0
C642 C 0.20329 0.10325 0.88851 0.0
C643 C 0.17099 0.10034 0.85013 0.0
H644 H 0.22479 0.12228 0.9626 0.0
H645 H 0.23069 0.09004 0.88457 0.0
S646 S 0.07445 0.14525 0.84616 0.0
N647 N 0.09937 0.15743 0.90072 0.0
N648 N 0.1044 0.11939 0.81936 0.0
C649 C 0.13649 0.11922 0.85536 0.0
C650 C 0.13378 0.13973 0.89933 0.0
C651 C 0.14472 0.80048 0.2637 0.0
C652 C 0.1377 0.81975 0.30637 0.0
C653 C 0.14518 0.82077 0.21944 0.0
C654 C 0.13878 0.86113 0.21615 0.0
H655 H 0.15072 0.7696 0.26458 0.0
H656 H 0.15082 0.80472 0.18751 0.0
S657 S 0.11722 0.92503 0.31625 0.0
N658 N 0.12243 0.88131 0.34201 0.0
N659 N 0.12376 0.91949 0.25835 0.0
C660 C 0.13031 0.88055 0.25788 0.0
C661 C 0.12966 0.85984 0.30314 0.0
C662 C 0.34512 0.86848 0.50362 0.0
C663 C 0.34288 0.90723 0.4854 0.0
C664 C 0.36391 0.8619 0.55133 0.0
C665 C 0.37897 0.89383 0.58221 0.0
H666 H 0.33954 0.84343 0.47878 0.0
H667 H 0.37177 0.83228 0.56135 0.0
S668 S 0.36145 -0.00114 0.55966 0.0
N669 N 0.34368 0.97651 0.50689 0.0
N670 N 0.3774 0.96383 0.59807 0.0
C671 C 0.36762 0.93161 0.56862 0.0
C672 C 0.34934 0.93842 0.51956 0.0
C673 C 0.38023 0.12992 0.75786 0.0
C674 C 0.39526 0.16929 0.76721 0.0
C675 C 0.38201 0.11198 0.7126 0.0
C676 C 0.39943 0.13279 0.67603 0.0
H677 H 0.36538 0.11347 0.78477 0.0
H678 H 0.36894 0.08213 0.70572 0.0
S679 S 0.44679 0.23467 0.68411 0.0
N680 N 0.43033 0.22749 0.73745 0.0
N681 N 0.4344 0.19328 0.65256 0.0
C682 C 0.4161 0.17143 0.6856 0.0
C683 C 0.41381 0.18987 0.73128 0.0
C684 C 0.90605 0.85519 0.08523 0.0
C685 C 0.92748 0.84413 0.13034 0.0
C686 C 0.92519 0.86292 1.04383 0.0
C687 C 0.96652 0.85987 1.04589 0.0
H688 H 0.87441 0.85887 0.08225 0.0
H689 H 0.90753 0.87236 1.0103 0.0
S690 S 0.0349 0.82641 0.15363 0.0
N691 N 0.99139 0.82687 0.17353 0.0
N692 N 0.02749 0.84143 0.09585 0.0
C693 C 0.98803 0.84748 0.09039 0.0
C694 C 0.96848 0.83959 0.13253 0.0
C695 C 0.94925 0.22774 0.96097 0.0
C696 C 0.95532 0.2064 0.91863 0.0
C697 C 0.96038 0.21396 1.0102 0.0
C698 C 0.97875 0.17812 1.02037 0.0
H699 H 0.93551 0.25551 0.95618 0.0
H700 H 0.95519 0.23202 1.04063 0.0
S701 S 0.00192 0.11025 0.92481 0.0
N702 N 0.9811 0.14638 0.89238 0.0
N703 N 0.00258 0.12189 0.98321 0.0
C704 C 0.98518 0.15668 0.97872 0.0
C705 C 0.97335 0.17027 0.92871 0.0
C706 C 0.57384 0.12572 0.65504 0.0
C707 C 0.61563 0.12977 0.66634 0.0
C708 C 0.55503 0.12105 0.60632 0.0
C709 C 0.57727 0.12017 0.56696 0.0
H710 H 0.55549 0.12642 0.6841 0.0
H711 H 0.52277 0.11802 0.59965 0.0
S712 S 0.68791 0.12851 0.57763 0.0
N713 N 0.67886 0.13196 0.63483 0.0
N714 N 0.64379 0.12336 0.54311 0.0
C715 C 0.61923 0.12441 0.57789 0.0
C716 C 0.63832 0.12918 0.62759 0.0
C717 C 0.57894 0.8227 0.29484 0.0
C718 C 0.58925 0.80326 0.34038 0.0
C719 C 0.58854 0.80869 0.24933 0.0
C720 C 0.60713 0.77311 0.24569 0.0
H721 H 0.5635 0.84946 0.29425 0.0
H722 H 0.58044 0.82563 0.21639 0.0
S723 S 0.64413 0.7118 0.35309 0.0
N724 N 0.62398 0.74805 0.37781 0.0
N725 N 0.63752 0.72001 0.29326 0.0
C726 C 0.61816 0.75368 0.29081 0.0
C727 C 0.61038 0.76904 0.33745 0.0
C728 C 0.69963 0.6183 0.3784 0.0
C729 C 0.68402 0.58161 0.35811 0.0
C730 C 0.70491 0.62459 0.42925 0.0
C731 C 0.69525 0.59417 0.46155 0.0
H732 H 0.70445 0.64326 0.35464 0.0
H733 H 0.71322 0.65437 0.44263 0.0
S734 S 0.66343 0.49008 0.42666 0.0
N735 N 0.66527 0.51293 0.37363 0.0
N736 N 0.6775 0.52388 0.46986 0.0
C737 C 0.68444 0.55606 0.44181 0.0
C738 C 0.67814 0.54999 0.38988 0.0
C739 C 0.66397 0.35323 0.80244 0.0
C740 C 0.65036 0.31344 0.80673 0.0
C741 C 0.66302 0.37123 0.75628 0.0
C742 C 0.64826 0.35013 0.71278 0.0
H743 H 0.67654 0.37035 0.83489 0.0
H744 H 0.67459 0.40171 0.75458 0.0
S745 S 0.60453 0.24664 0.70447 0.0
N746 N 0.61908 0.25424 0.76396 0.0
N747 N 0.61651 0.28835 0.67711 0.0
C748 C 0.6334 0.31065 0.71665 0.0
C749 C 0.63464 0.29223 0.76366 0.0
C750 C 0.85622 0.4158 0.06925 0.0
C751 C 0.87189 0.38087 0.08814 0.0
C752 C 0.83874 0.4175 1.0198 0.0
C753 C 0.83678 0.38419 0.9893 0.0
H754 H 0.86337 0.44308 0.08983 0.0
H755 H 0.83325 0.44608 1.0036 0.0
S756 S 0.85756 0.28273 1.02878 0.0
N757 N 0.87192 0.31013 0.07852 0.0
N758 N 0.83873 0.31309 0.98578 0.0
C759 C 0.8426 0.34745 1.01165 0.0
C760 C 0.8606 0.34584 0.06161 0.0
C761 C 0.88436 0.68799 0.22456 0.0
C762 C 0.88386 0.66458 0.267 0.0
C763 C 0.88664 0.67123 0.17907 0.0
C764 C 0.8888 0.63045 0.17415 0.0
H765 H 0.88203 0.71956 0.22596 0.0
H766 H 0.88649 0.69037 0.14729 0.0
S767 S 0.89065 0.55603 0.27334 0.0
N768 N 0.8872 0.59827 0.30124 0.0
N769 N 0.89207 0.56696 0.21485 0.0
C770 C 0.88988 0.60667 0.21614 0.0
C771 C 0.88727 0.6237 0.26282 0.0
C772 C 0.48307 0.36856 0.59084 0.0
C773 C 0.46325 0.363 0.54233 0.0
C774 C 0.46298 0.3619 0.6315 0.0
C775 C 0.42221 0.34929 0.62552 0.0
H776 H 0.51435 0.37877 0.59771 0.0
H777 H 0.47952 0.36684 0.66804 0.0
S778 S 0.35638 0.32933 0.50687 0.0
N779 N 0.40035 0.34304 0.49092 0.0
N780 N 0.3627 0.33079 0.56764 0.0
C781 C 0.40213 0.3426 0.57747 0.0
C782 C 0.4226 0.3494 0.53585 0.0
C783 C 0.45094 0.68265 0.4983 0.0
C784 C 0.49138 0.68604 0.52066 0.0
C785 C 0.43831 0.69692 0.4497 0.0
C786 C 0.46468 0.71769 0.4212 0.0
H787 H 0.42875 0.66783 0.51795 0.0
H788 H 0.40749 0.69081 0.43406 0.0
S789 S 0.57441 0.72748 0.45788 0.0
N790 N 0.55827 0.70658 0.5061 0.0
N791 N 0.53458 0.73476 0.41749 0.0
C792 C 0.50528 0.7197 0.44233 0.0
C793 C 0.51837 0.70396 0.49104 0.0
C794 C 0.07966 0.60661 0.15861 0.0
C795 C 0.11637 0.62872 0.17131 0.0
C796 C 0.06141 0.60278 0.10952 0.0
C797 C 0.07914 0.62082 0.07091 0.0
H798 H 0.06487 0.592 0.18692 0.0
H799 H 0.03332 0.58513 0.10185 0.0
S800 S 0.17442 0.68332 0.08448 0.0
N801 N 0.16922 0.67 0.14131 0.0
N802 N 0.13527 0.66225 0.04887 0.0
C803 C 0.11595 0.64289 0.08296 0.0
C804 C 0.13447 0.64695 0.13313 0.0
C805 C 0.09809 0.23697 0.78706 0.0
C806 C 0.09747 0.26093 0.74462 0.0
C807 C 0.08723 0.25045 0.83208 0.0
C808 C 0.07485 0.28884 0.83814 0.0
H809 H 0.10726 0.20728 0.78556 0.0
H810 H 0.08824 0.23021 0.86259 0.0
S811 S 0.07062 0.36526 0.7397 0.0
N812 N 0.08477 0.32641 0.71305 0.0
N813 N 0.06547 0.35155 0.79637 0.0
C814 C 0.07494 0.31347 0.7961 0.0
C815 C 0.08597 0.29971 0.75019 0.0
C816 C 0.98376 0.28706 0.25454 0.0
C817 C 0.95403 0.28916 0.21312 0.0
C818 C 0.00425 0.25289 0.26108 0.0
C819 C 0.99085 0.22048 0.2304 0.0
H820 H 0.9984 0.31381 0.27205 0.0
H821 H 0.03331 0.25423 0.28358 0.0
S822 S 0.89321 0.20577 0.15013 0.0
N823 N 0.89812 0.25314 0.16444 0.0
N824 N 0.93296 0.18673 0.18036 0.0
C825 C 0.95163 0.21894 0.20486 0.0
C826 C 0.93262 0.25436 0.19654 0.0
C827 C 0.98255 0.71391 0.40474 0.0
C828 C 0.96695 0.74103 0.43382 0.0
C829 C 0.02346 0.7145 0.40322 0.0
C830 C 0.0506 0.74154 0.43162 0.0
H831 H 0.96293 0.69328 0.3809 0.0
H832 H 0.03378 0.69387 0.37887 0.0
S833 S 0.02564 0.81547 0.51851 0.0
N834 N 0.982 0.79384 0.49449 0.0
N835 N 0.05953 0.79377 0.49302 0.0
C836 C 0.03582 0.76715 0.4633 0.0
C837 C 0.99383 0.76717 0.46406 0.0
C838 C 0.47399 0.72498 0.71513 0.0
C839 C 0.51512 0.72748 0.73323 0.0
C840 C 0.45241 0.7581 0.71671 0.0
C841 C 0.47405 0.794 0.72903 0.0
H842 H 0.46007 0.70024 0.69314 0.0
H843 H 0.42309 0.75768 0.69493 0.0
S844 S 0.56718 0.80535 0.81644 0.0
N845 N 0.56698 0.76083 0.79249 0.0
N846 N 0.52496 0.82345 0.79215 0.0
C847 C 0.50815 0.7923 0.76415 0.0
C848 C 0.53063 0.75889 0.7643 0.0
C849 C 0.53141 0.20595 0.95075 0.0
C850 C 0.55904 0.23918 0.95713 0.0
C851 C 0.4902 0.21 0.94371 0.0
C852 C 0.47503 0.24735 0.94373 0.0
H853 H 0.54158 0.17663 0.94887 0.0
H854 H 0.47008 0.18374 0.93668 0.0
S855 S 0.5351 0.34318 0.96573 0.0
N856 N 0.56852 0.3102 0.96723 0.0
N857 N 0.49119 0.31802 0.95569 0.0
C858 C 0.50241 0.28062 0.95339 0.0
C859 C 0.54438 0.27647 0.95958 0.0
C860 C 0.99721 0.77443 0.87164 0.0
C861 C 0.03678 0.79054 0.88214 0.0
C862 C 0.98833 0.73352 0.86908 0.0
C863 C 0.01872 0.70727 0.87807 0.0
H864 H 0.97281 0.79352 0.86754 0.0
H865 H 0.95726 0.72252 0.86319 0.0
S866 S 0.12742 0.73442 0.90075 0.0
N867 N 0.10694 0.77709 0.89591 0.0
N868 N 0.08997 0.70017 0.8927 0.0
C869 C 0.05849 0.72298 0.88526 0.0
C870 C 0.06762 0.76467 0.88688 0.0
C871 C 0.50583 0.71087 0.14561 0.0
C872 C 0.51773 0.73568 0.10823 0.0
C873 C 0.49674 0.72649 0.18928 0.0
C874 C 0.49765 0.76734 0.19646 0.0
H875 H 0.50799 0.67929 0.14377 0.0
H876 H 0.49042 0.70643 0.21835 0.0
S877 S 0.5233 0.84476 0.10766 0.0
N878 N 0.52711 0.80277 0.07956 0.0
N879 N 0.5088 0.83246 0.16091 0.0
C880 C 0.50654 0.79244 0.15779 0.0
C881 C 0.51591 0.77646 0.11342 0.0
C882 C 0.55066 0.22042 0.41992 0.0
C883 C 0.51582 0.20511 0.38996 0.0
C884 C 0.55745 0.2608 0.42987 0.0
C885 C 0.53023 0.28767 0.40932 0.0
H886 H 0.57183 0.20089 0.43834 0.0
H887 H 0.58377 0.27089 0.45511 0.0
S888 S 0.43752 0.26376 0.3226 0.0
N889 N 0.45574 0.22057 0.33567 0.0
N890 N 0.46935 0.29694 0.35363 0.0
C891 C 0.497 0.27337 0.37609 0.0
C892 C 0.48962 0.23195 0.36651 0.0
C893 C 0.00819 0.25466 0.61318 0.0
C894 C 0.01715 0.21498 0.61274 0.0
C895 C -0.00054 0.2721 0.65599 0.0
C896 C 0.99718 0.25004 0.69916 0.0
H897 H 0.01251 0.27349 0.58206 0.0
H898 H 0.99488 0.30327 0.65535 0.0
S899 S 0.01925 0.1456 0.71803 0.0
N900 N 0.02278 0.15408 0.65954 0.0
N901 N 0.00674 0.18728 0.73986 0.0
C902 C 0.00468 0.21014 0.69887 0.0
C903 C 0.01354 0.19228 0.65534 0.0
C904 C 0.00614 0.00768 0.08161 0.0
C905 C 0.03843 0.03679 0.08648 0.0
C906 C 0.99657 0.98355 1.03965 0.0
C907 C 0.01967 0.98615 1.00111 0.0
H908 H 0.98523 0.0066 0.10796 0.0
H909 H 0.96978 0.96381 1.03661 0.0
S910 S 0.11603 0.04535 1.00429 0.0
N911 N 0.09946 0.05873 0.055 0.0
N912 N 0.08172 0.01305 0.97602 0.0
C913 C 0.05519 0.01083 1.00854 0.0
C914 C 0.06467 0.03598 0.05135 0.0
C915 C 0.26236 0.79671 0.34565 0.0
C916 C 0.26594 0.78663 0.39598 0.0
C917 C 0.29164 0.78772 0.3168 0.0
C918 C 0.32568 0.76915 0.33775 0.0
H919 H 0.2362 0.81043 0.32813 0.0
H920 H 0.28705 0.79425 0.27778 0.0
S921 S 0.35226 0.74429 0.46974 0.0
N922 N 0.30776 0.76132 0.46633 0.0
N923 N 0.36344 0.74631 0.41315 0.0
C924 C 0.33042 0.76136 0.38859 0.0
C925 C 0.30041 0.76965 0.41749 0.0
C926 C 0.48549 0.00514 0.52393 0.0
C927 C 0.52283 0.00383 0.50786 0.0
C928 C 0.47855 0.99028 0.57042 0.0
C929 C 0.50829 0.97205 0.60176 0.0
H930 H 0.46172 0.01831 0.50099 0.0
H931 H 0.44963 0.99254 0.58149 0.0
S932 S 0.61014 0.95706 0.57519 0.0
N933 N 0.58923 0.98044 0.52638 0.0
N934 N 0.57598 0.95174 0.61214 0.0
C935 C 0.54523 0.96911 0.58522 0.0
C936 C 0.55248 0.9849 0.53866 0.0
C937 C 0.27056 0.18587 0.75049 0.0
C938 C 0.26861 0.20799 0.79352 0.0
C939 C 0.2468 0.19332 0.70501 0.0
C940 C 0.21958 0.22269 0.70091 0.0
H941 H 0.29098 0.16278 0.75178 0.0
H942 H 0.25009 0.17627 0.67288 0.0
S943 S 0.20375 0.28947 0.80254 0.0
N944 N 0.23787 0.26081 0.82857 0.0
N945 N 0.19342 0.27502 0.74454 0.0
C946 C 0.21791 0.24527 0.74383 0.0
C947 C 0.24221 0.23782 0.78969 0.0
C948 C 0.77368 0.28679 0.85378 0.0
C949 C 0.7715 0.26715 0.89887 0.0
C950 C 0.79931 0.2755 0.82139 0.0
C951 C 0.82373 0.24429 0.83308 0.0
H952 H 0.75506 0.31083 0.84308 0.0
H953 H 0.7996 0.29093 0.78677 0.0
S954 S 0.82995 0.1841 0.94736 0.0
N955 N 0.79601 0.21527 0.95356 0.0
N956 N 0.84472 0.1944 0.89371 0.0
C957 C 0.82186 0.22452 0.87823 0.0
C958 C 0.79556 0.23582 0.91084 0.0
C959 C 0.73741 0.73406 0.28838 0.0
C960 C 0.76125 0.70206 0.29515 0.0
C961 C 0.71611 0.74209 0.24198 0.0
C962 C 0.71739 0.71851 0.19996 0.0
H963 H 0.73517 0.75312 0.31915 0.0
H964 H 0.69863 0.76757 0.23908 0.0
S965 S 0.77963 0.63414 0.19634 0.0
N966 N 0.78717 0.64792 0.25476 0.0
N967 N 0.74773 0.66403 0.16764 0.0
C968 C 0.74172 0.68687 0.20587 0.0
C969 C 0.7634 0.67841 0.25337 0.0
C970 C 0.52402 0.50812 0.585 0.0
C971 C 0.53622 0.54807 0.57891 0.0
C972 C 0.51536 0.48208 0.54452 0.0
C973 C 0.52006 0.49445 0.49643 0.0
H974 H 0.51724 0.4978 0.62051 0.0
H975 H 0.50299 0.45264 0.55088 0.0
S976 S 0.55038 0.59598 0.45993 0.0
N977 N 0.55062 0.59894 0.52002 0.0
N978 N 0.53848 0.54912 0.44521 0.0
C979 C 0.53437 0.53366 0.49014 0.0
C980 C 0.54145 0.56062 0.53099 0.0
C981 C 0.04979 0.49797 0.04906 0.0
C982 C 0.02003 0.50879 1.01105 0.0
C983 C 0.04019 0.48059 0.09278 0.0
C984 C 0.00046 0.47442 0.10143 0.0
H985 H 0.08102 0.50277 1.04508 0.0
H986 H 0.06422 0.47179 0.12016 0.0
S987 S 0.91119 0.49497 1.01342 0.0
N988 N 0.94889 0.50852 0.98381 0.0
N989 N 0.93106 0.47961 0.06811 0.0
C990 C 0.97038 0.4853 0.06426 0.0
C991 C 0.9801 0.50146 1.01859 0.0
C992 C 0.10578 0.17623 0.35174 0.0
C993 C 0.07465 0.14668 0.33608 0.0
C994 C 0.1171 0.18807 0.40216 0.0
C995 C 0.09913 0.17031 0.44119 0.0
H996 H 0.12127 0.19129 0.32439 0.0
H997 H 0.14062 0.21133 0.41063 0.0
S998 S 0.01515 0.09243 0.42208 0.0
N999 N 0.02495 0.10134 0.36565 0.0
N1000 N 0.04716 0.12167 0.45904 0.0
C1001 C 0.06807 0.14061 0.4262 0.0
C1002 C 0.05567 0.12943 0.37456 0.0
C1003 C 0.07484 0.92079 0.7028 0.0
C1004 C 0.11514 0.91374 0.70379 0.0
C1005 C 0.05897 0.92545 0.74646 0.0
C1006 C 0.08291 0.92365 0.79271 0.0
H1007 H 0.05492 0.92064 0.66816 0.0
H1008 H 0.02731 0.92893 0.74398 0.0
S1009 S 0.19149 0.91059 0.81472 0.0
N1010 N 0.17955 0.90881 0.75422 0.0
N1011 N 0.1498 0.91765 0.83657 0.0
C1012 C 0.12387 0.91924 0.79406 0.0
C1013 C 0.13995 0.91412 0.74951 0.0
C1014 C 0.41379 0.78718 0.07397 0.0
C1015 C 0.41356 0.81326 0.11409 0.0
C1016 C 0.42033 0.80053 1.02593 0.0
C1017 C 0.42719 0.84108 1.01408 0.0
H1018 H 0.4094 0.75574 0.07973 0.0
H1019 H 0.41976 0.77843 0.99762 0.0
S1020 S 0.43233 0.92238 0.10597 0.0
N1021 N 0.42201 0.88243 0.13762 0.0
N1022 N 0.43509 0.90698 0.04978 0.0
C1023 C 0.42712 0.86747 0.05407 0.0
C1024 C 0.4202 0.85385 0.10287 0.0
C1025 C 0.47616 0.08279 0.23285 0.0
C1026 C 0.45363 0.07331 0.27111 0.0
C1027 C 0.4579 0.0865 0.18412 0.0
C1028 C 0.41629 0.08086 0.17137 0.0
H1029 H 0.50822 0.08866 0.24059 0.0
H1030 H 0.4765 0.0953 0.15648 0.0
S1031 S 0.34381 0.05109 0.25599 0.0
N1032 N 0.38738 0.05524 0.29187 0.0
N1033 N 0.35321 0.06194 0.1999 0.0
C1034 C 0.39343 0.06963 0.20862 0.0
C1035 C 0.41204 0.0658 0.25849 0.0
C1036 C 0.85094 0.76461 0.57449 0.0
C1037 C 0.84712 0.78609 0.53011 0.0
C1038 C 0.86226 0.78328 0.62045 0.0
C1039 C 0.87032 0.82446 0.62443 0.0
H1040 H 0.84594 0.73281 0.5738 0.0
H1041 H 0.86506 0.76517 0.65324 0.0
S1042 S 0.86496 0.8948 0.51993 0.0
N1043 N 0.85213 0.85133 0.49349 0.0
N1044 N 0.87346 0.88632 0.57973 0.0
C1045 C 0.86566 0.84656 0.58056 0.0
C1046 C 0.85407 0.82747 0.53356 0.0
C1047 C 0.91855 0.05732 0.48963 0.0
C1048 C 0.89475 0.08475 0.50657 0.0
C1049 C 0.91823 0.05172 0.43897 0.0
C1050 C 0.89443 0.07375 0.40417 0.0
H1051 H 0.93884 0.04161 0.51558 0.0
H1052 H 0.93843 0.03185 0.42704 0.0
S1053 S 0.82226 0.14433 0.43054 0.0
N1054 N 0.84333 0.13033 0.48536 0.0
N1055 N 0.84309 0.12028 0.39016 0.0
C1056 C 0.86861 0.09922 0.42091 0.0
C1057 C 0.86874 0.10466 0.47222 0.0
C1058 C 0.67466 0.22015 0.13184 0.0
C1059 C 0.68173 0.1983 0.09095 0.0
C1060 C 0.6673 0.20154 0.17573 0.0
C1061 C 0.66624 0.16029 0.18041 0.0
H1062 H 0.67396 0.25193 0.12972 0.0
H1063 H 0.66109 0.21954 0.20571 0.0
S1064 S 0.68556 0.08944 0.08621 0.0
N1065 N 0.68936 0.13293 0.05938 0.0
N1066 N 0.67524 0.09819 0.14189 0.0
C1067 C 0.67444 0.13809 0.14059 0.0
C1068 C 0.68236 0.15703 0.09595 0.0
C1069 C 0.61879 0.91853 0.78914 0.0
C1070 C 0.61201 0.88997 0.75159 0.0
C1071 C 0.64385 0.91208 0.83299 0.0
C1072 C 0.66278 0.87666 0.84069 0.0
H1073 H 0.60094 0.94378 0.78705 0.0
H1074 H 0.64381 0.93257 0.86299 0.0
S1075 S 0.66496 0.79922 0.74677 0.0
N1076 N 0.63327 0.82997 0.71959 0.0
N1077 N 0.68189 0.81823 0.80175 0.0
C1078 C 0.66198 0.85154 0.7998 0.0
C1079 C 0.63607 0.85808 0.7551 0.0
C1080 C 0.55526 0.6377 0.87445 0.0
C1081 C 0.57752 0.65083 0.83664 0.0
C1082 C 0.56688 0.6488 0.92532 0.0
C1083 C 0.60076 0.67504 0.94191 0.0
H1084 H 0.52853 0.61832 0.86478 0.0
H1085 H 0.54833 0.63738 0.95186 0.0
S1086 S 0.66921 0.71954 0.85906 0.0
N1087 N 0.63588 0.69226 0.82142 0.0
N1088 N 0.656 0.71387 0.91438 0.0
C1089 C 0.62281 0.6888 0.90441 0.0
C1090 C 0.61176 0.67663 0.85304 0.0
C1091 C 0.5647 0.41411 0.24739 0.0
C1092 C 0.58851 0.41607 0.29401 0.0
C1093 C 0.5811 0.40777 0.20455 0.0
C1094 C 0.62203 0.40352 0.20638 0.0
H1095 H 0.53274 0.41603 0.24384 0.0
H1096 H 0.56138 0.40527 0.16975 0.0
S1097 S 0.69826 0.40941 0.31792 0.0
N1098 N 0.65593 0.41561 0.33869 0.0
N1099 N 0.68664 0.404 0.25768 0.0
C1100 C 0.64668 0.40754 0.2521 0.0
C1101 C 0.62996 0.41377 0.29602 0.0
C1102 C 0.93344 0.35135 0.55293 0.0
C1103 C 0.9279 0.32743 0.50982 0.0
C1104 C 0.92587 0.33679 0.60004 0.0
C1105 C 0.9124 0.29702 0.6081 0.0
H1106 H 0.94458 0.38188 0.55076 0.0
H1107 H 0.93175 0.35702 0.63097 0.0
S1108 S 0.8889 0.22191 0.50824 0.0
N1109 N 0.90448 0.26155 0.47945 0.0
N1110 N 0.89188 0.23454 0.56667 0.0
C1111 C 0.90607 0.27286 0.56539 0.0
C1112 C 0.91338 0.28778 0.51719 0.0
C1113 C 0.91429 0.58153 0.76491 0.0
C1114 C 0.95523 0.57544 0.77484 0.0
C1115 C 0.89521 0.58613 0.7165 0.0
C1116 C 0.91617 0.58419 0.67615 0.0
H1117 H 0.89713 0.58449 0.7948 0.0
H1118 H 0.86395 0.59184 0.71063 0.0
S1119 S 0.0231 0.56644 0.68173 0.0
N1120 N 0.01559 0.56582 0.73982 0.0
N1121 N 0.97968 0.57439 0.64905 0.0
C1122 C 0.95667 0.57658 0.68536 0.0
C1123 C 0.9762 0.57223 0.73461 0.0
C1124 C 0.36851 0.34814 0.08019 0.0
C1125 C 0.3773 0.32712 0.12443 0.0
C1126 C 0.35791 0.32843 1.03448 0.0
C1127 C 0.35531 0.28685 1.03124 0.0
H1128 H 0.37114 0.38009 0.0807 0.0
H1129 H 0.35314 0.34598 1.00135 0.0
S1130 S 0.37003 0.21834 0.13761 0.0
N1131 N 0.37901 0.26265 0.16267 0.0
N1132 N 0.35886 0.22562 0.07782 0.0
C1133 C 0.36206 0.26567 0.07578 0.0
C1134 C 0.37312 0.28573 0.12199 0.0
C1135 C 0.36809 0.64425 0.96958 0.0
C1136 C 0.38181 0.61537 1.00355 0.0
C1137 C 0.36938 0.63981 0.91931 0.0
C1138 C 0.38424 0.60626 0.90124 0.0
H1139 H 0.35755 0.67114 0.98222 0.0
H1140 H 0.35998 0.66342 0.89457 0.0
S1141 S 0.42213 0.52139 0.97455 0.0
N1142 N 0.40924 0.55143 1.01555 0.0
N1143 N 0.41149 0.54294 0.92058 0.0
C1144 C 0.3962 0.57623 0.93439 0.0
C1145 C 0.39499 0.58081 0.98574 0.0
C1146 C 0.18377 0.66789 0.6009 0.0
C1147 C 0.16881 0.70488 0.58901 0.0
C1148 C 0.1776 0.64847 0.64499 0.0
C1149 C 0.15632 0.66536 0.67885 0.0
H1150 H 0.20036 0.6538 0.576 0.0
H1151 H 0.18982 0.62019 0.65285 0.0
S1152 S 0.10711 0.7593 0.66324 0.0
N1153 N 0.12899 0.75598 0.61374 0.0
N1154 N 0.11797 0.71967 0.69607 0.0
C1155 C 0.14064 0.70187 0.66708 0.0
C1156 C 0.14674 0.72156 0.62238 0.0
C1157 C 0.12298 0.40779 0.27788 0.0
C1158 C 0.10874 0.37788 0.24336 0.0
C1159 C 0.14374 0.39861 0.3238 0.0
C1160 C 0.15059 0.35925 0.3361 0.0
H1161 H 0.11306 0.43727 0.27221 0.0
H1162 H 0.14922 0.42149 0.35174 0.0
S1163 S 0.13149 0.27314 0.25185 0.0
N1164 N 0.11174 0.30974 0.21929 0.0
N1165 N 0.15168 0.29242 0.30562 0.0
C1166 C 0.14329 0.33068 0.29843 0.0
C1167 C 0.12209 0.34008 0.25169 0.0
loop_
_geom_bond_atom_site_label_1
_geom_bond_atom_site_label_2
_geom_bond_distance
_geom_bond_site_symmetry_2
_ccdc_geom_bond_type
Sm0 C2 2.846 1_554 S
Sm0 O20 2.543 . S
Sm0 O21 2.450 . S
Sm0 O22 2.681 1_455 S
Sm0 O23 2.464 . S
Sm0 O24 2.396 1_455 S
Sm0 O28 2.386 . S
Sm0 O31 2.408 . S
Sm1 C11 2.846 . S
Sm1 O22 2.386 . S
Sm1 O25 2.408 . S
Sm1 O26 2.543 . S
Sm1 O27 2.450 . S
Sm1 O28 2.681 1_655 S
Sm1 O29 2.464 . S
Sm1 O30 2.396 1_655 S
C2 Sm0 2.846 1_556 S
C2 C3 1.506 . S
C2 O20 1.261 1_556 S
C2 O21 1.242 1_556 S
C3 C2 1.506 . S
C3 C4 1.358 . S
C3 C8 1.382 . S
C4 C3 1.358 . S
C4 C5 1.385 . S
C4 H32 0.930 . S
C5 C4 1.385 . S
C5 C6 1.395 . S
C5 H33 0.929 . S
C6 C5 1.395 . S
C6 C7 1.335 . S
C7 C6 1.335 . S
C7 C8 1.398 . S
C7 H34 0.930 . S
C8 C3 1.382 . S
C8 C7 1.398 . S
C8 H35 0.929 . S
C9 O22 1.271 1_455 S
C9 O23 1.251 . S
C10 O24 1.252 . S
C10 O25 1.272 . S
C11 Sm1 2.846 . S
C11 C12 1.506 . S
C11 O26 1.261 . S
C11 O27 1.242 . S
C12 C11 1.506 . S
C12 C13 1.358 . S
C12 C17 1.382 . S
C13 C12 1.358 . S
C13 C14 1.385 . S
C13 H36 0.930 . S
C14 C13 1.385 . S
C14 C15 1.395 . S
C14 H37 0.929 . S
C15 C14 1.395 . S
C15 C16 1.335 . S
C16 C15 1.335 . S
C16 C17 1.398 . S
C16 H38 0.930 . S
C17 C12 1.382 . S
C17 C16 1.398 . S
C17 H39 0.929 . S
C18 O28 1.271 1_655 S
C18 O29 1.251 . S
C19 O30 1.252 . S
C19 O31 1.272 . S
O20 Sm0 2.543 . S
O20 C2 1.261 1_554 S
O21 Sm0 2.450 . S
O21 C2 1.242 1_554 S
O22 Sm0 2.681 1_655 S
O22 Sm1 2.386 . S
O22 C9 1.271 1_655 S
O23 Sm0 2.464 . S
O23 C9 1.251 . S
O24 Sm0 2.396 1_655 S
O24 C10 1.252 . S
O25 Sm1 2.408 . S
O25 C10 1.272 . S
O26 Sm1 2.543 . S
O26 C11 1.261 . S
O27 Sm1 2.450 . S
O27 C11 1.242 . S
O28 Sm0 2.386 . S
O28 Sm1 2.681 1_455 S
O28 C18 1.271 1_455 S
O29 Sm1 2.464 . S
O29 C18 1.251 . S
O30 Sm1 2.396 1_455 S
O30 C19 1.252 . S
O31 Sm0 2.408 . S
O31 C19 1.272 . S
H32 C4 0.930 . S
H33 C5 0.929 . S
H34 C7 0.930 . S
H35 C8 0.929 . S
H36 C13 0.930 . S
H37 C14 0.929 . S
H38 C16 0.930 . S
H39 C17 0.929 . S
Sm40 C42 2.846 . S
Sm40 O60 2.543 . S
Sm40 O61 2.450 . S
Sm40 O62 2.681 . S
Sm40 O63 2.464 . S
Sm40 O64 2.396 . S
Sm40 O68 2.386 . S
Sm40 O71 2.408 . S
Sm41 C51 2.846 . S
Sm41 O62 2.386 . S
Sm41 O65 2.408 . S
Sm41 O66 2.543 . S
Sm41 O67 2.450 . S
Sm41 O68 2.681 . S
Sm41 O69 2.464 . S
Sm41 O70 2.396 . S
C42 Sm40 2.846 . S
C42 C43 1.506 . S
C42 O60 1.261 . S
C42 O61 1.242 . S
C43 C42 1.506 . S
C43 C44 1.358 . S
C43 C48 1.382 . S
C44 C43 1.358 . S
C44 C45 1.385 . S
C44 H72 0.930 . S
C45 C44 1.385 . S
C45 C46 1.395 . S
C45 H73 0.929 . S
C46 C45 1.395 . S
C46 C47 1.335 . S
C47 C46 1.335 . S
C47 C48 1.398 . S
C47 H74 0.930 . S
C48 C43 1.382 . S
C48 C47 1.398 . S
C48 H75 0.929 . S
C49 O62 1.271 . S
C49 O63 1.251 . S
C50 O64 1.252 . S
C50 O65 1.272 . S
C51 Sm41 2.846 . S
C51 C52 1.506 . S
C51 O66 1.261 . S
C51 O67 1.242 . S
C52 C51 1.506 . S
C52 C53 1.358 . S
C52 C57 1.382 . S
C53 C52 1.358 . S
C53 C54 1.385 . S
C53 H76 0.930 . S
C54 C53 1.385 . S
C54 C55 1.395 . S
C54 H77 0.929 . S
C55 C54 1.395 . S
C55 C56 1.335 . S
C56 C55 1.335 . S
C56 C57 1.398 . S
C56 H78 0.930 . S
C57 C52 1.382 . S
C57 C56 1.398 . S
C57 H79 0.929 . S
C58 O68 1.271 . S
C58 O69 1.251 . S
C59 O70 1.252 . S
C59 O71 1.272 . S
O60 Sm40 2.543 . S
O60 C42 1.261 . S
O61 Sm40 2.450 . S
O61 C42 1.242 . S
O62 Sm40 2.681 . S
O62 Sm41 2.386 . S
O62 C49 1.271 . S
O63 Sm40 2.464 . S
O63 C49 1.251 . S
O64 Sm40 2.396 . S
O64 C50 1.252 . S
O65 Sm41 2.408 . S
O65 C50 1.272 . S
O66 Sm41 2.543 . S
O66 C51 1.261 . S
O67 Sm41 2.450 . S
O67 C51 1.242 . S
O68 Sm40 2.386 . S
O68 Sm41 2.681 . S
O68 C58 1.271 . S
O69 Sm41 2.464 . S
O69 C58 1.251 . S
O70 Sm41 2.396 . S
O70 C59 1.252 . S
O71 Sm40 2.408 . S
O71 C59 1.272 . S
H72 C44 0.930 . S
H73 C45 0.929 . S
H74 C47 0.930 . S
H75 C48 0.929 . S
H76 C53 0.930 . S
H77 C54 0.929 . S
H78 C56 0.930 . S
H79 C57 0.929 . S
Sm80 C82 2.846 . S
Sm80 O100 2.543 . S
Sm80 O101 2.450 . S
Sm80 O102 2.681 . S
Sm80 O103 2.464 . S
Sm80 O104 2.396 . S
Sm80 O108 2.386 . S
Sm80 O111 2.408 . S
Sm81 C91 2.846 . S
Sm81 O102 2.386 . S
Sm81 O105 2.408 . S
Sm81 O106 2.543 . S
Sm81 O107 2.450 . S
Sm81 O108 2.681 . S
Sm81 O109 2.464 . S
Sm81 O110 2.396 . S
C82 Sm80 2.846 . S
C82 C83 1.506 . S
C82 O100 1.261 . S
C82 O101 1.242 . S
C83 C82 1.506 . S
C83 C84 1.358 . S
C83 C88 1.382 . S
C84 C83 1.358 . S
C84 C85 1.385 . S
C84 H112 0.930 . S
C85 C84 1.385 . S
C85 C86 1.395 . S
C85 H113 0.929 . S
C86 C85 1.395 . S
C86 C87 1.335 . S
C87 C86 1.335 . S
C87 C88 1.398 . S
C87 H114 0.930 . S
C88 C83 1.382 . S
C88 C87 1.398 . S
C88 H115 0.929 . S
C89 O102 1.271 . S
C89 O103 1.251 . S
C90 O104 1.252 . S
C90 O105 1.272 . S
C91 Sm81 2.846 . S
C91 C92 1.506 . S
C91 O106 1.261 . S
C91 O107 1.242 . S
C92 C91 1.506 . S
C92 C93 1.358 . S
C92 C97 1.382 . S
C93 C92 1.358 . S
C93 C94 1.385 . S
C93 H116 0.930 . S
C94 C93 1.385 . S
C94 C95 1.395 . S
C94 H117 0.929 . S
C95 C94 1.395 . S
C95 C96 1.335 . S
C96 C95 1.335 . S
C96 C97 1.398 . S
C96 H118 0.930 . S
C97 C92 1.382 . S
C97 C96 1.398 . S
C97 H119 0.929 . S
C98 O108 1.271 . S
C98 O109 1.251 . S
C99 O110 1.252 . S
C99 O111 1.272 . S
O100 Sm80 2.543 . S
O100 C82 1.261 . S
O101 Sm80 2.450 . S
O101 C82 1.242 . S
O102 Sm80 2.681 . S
O102 Sm81 2.386 . S
O102 C89 1.271 . S
O103 Sm80 2.464 . S
O103 C89 1.251 . S
O104 Sm80 2.396 . S
O104 C90 1.252 . S
O105 Sm81 2.408 . S
O105 C90 1.272 . S
O106 Sm81 2.543 . S
O106 C91 1.261 . S
O107 Sm81 2.450 . S
O107 C91 1.242 . S
O108 Sm80 2.386 . S
O108 Sm81 2.681 . S
O108 C98 1.271 . S
O109 Sm81 2.464 . S
O109 C98 1.251 . S
O110 Sm81 2.396 . S
O110 C99 1.252 . S
O111 Sm80 2.408 . S
O111 C99 1.272 . S
H112 C84 0.930 . S
H113 C85 0.929 . S
H114 C87 0.930 . S
H115 C88 0.929 . S
H116 C93 0.930 . S
H117 C94 0.929 . S
H118 C96 0.930 . S
H119 C97 0.929 . S
Sm120 C122 2.846 . S
Sm120 O140 2.543 . S
Sm120 O141 2.450 . S
Sm120 O142 2.681 . S
Sm120 O143 2.464 . S
Sm120 O144 2.396 . S
Sm120 O148 2.386 . S
Sm120 O151 2.408 . S
Sm121 C131 2.846 . S
Sm121 O142 2.386 . S
Sm121 O145 2.408 . S
Sm121 O146 2.543 . S
Sm121 O147 2.450 . S
Sm121 O148 2.681 . S
Sm121 O149 2.464 . S
Sm121 O150 2.396 . S
C122 Sm120 2.846 . S
C122 C123 1.506 1_556 S
C122 O140 1.261 . S
C122 O141 1.242 . S
C123 C122 1.506 1_554 S
C123 C124 1.358 . S
C123 C128 1.382 . S
C124 C123 1.358 . S
C124 C125 1.385 . S
C124 H152 0.930 . S
C125 C124 1.385 . S
C125 C126 1.395 . S
C125 H153 0.929 . S
C126 C125 1.395 . S
C126 C127 1.335 . S
C127 C126 1.335 . S
C127 C128 1.398 . S
C127 H154 0.930 . S
C128 C123 1.382 . S
C128 C127 1.398 . S
C128 H155 0.929 1_554 S
C129 O142 1.271 . S
C129 O143 1.251 . S
C130 O144 1.252 . S
C130 O145 1.272 . S
C131 Sm121 2.846 . S
C131 C132 1.506 . S
C131 O146 1.261 . S
C131 O147 1.242 . S
C132 C131 1.506 . S
C132 C133 1.358 . S
C132 C137 1.382 . S
C133 C132 1.358 . S
C133 C134 1.385 . S
C133 H156 0.930 . S
C134 C133 1.385 . S
C134 C135 1.395 . S
C134 H157 0.929 . S
C135 C134 1.395 . S
C135 C136 1.335 . S
C136 C135 1.335 . S
C136 C137 1.398 . S
C136 H158 0.930 . S
C137 C132 1.382 . S
C137 C136 1.398 . S
C137 H159 0.929 . S
C138 O148 1.271 . S
C138 O149 1.251 . S
C139 O150 1.252 . S
C139 O151 1.272 . S
O140 Sm120 2.543 . S
O140 C122 1.261 . S
O141 Sm120 2.450 . S
O141 C122 1.242 . S
O142 Sm120 2.681 . S
O142 Sm121 2.386 . S
O142 C129 1.271 . S
O143 Sm120 2.464 . S
O143 C129 1.251 . S
O144 Sm120 2.396 . S
O144 C130 1.252 . S
O145 Sm121 2.408 . S
O145 C130 1.272 . S
O146 Sm121 2.543 . S
O146 C131 1.261 . S
O147 Sm121 2.450 . S
O147 C131 1.242 . S
O148 Sm120 2.386 . S
O148 Sm121 2.681 . S
O148 C138 1.271 . S
O149 Sm121 2.464 . S
O149 C138 1.251 . S
O150 Sm121 2.396 . S
O150 C139 1.252 . S
O151 Sm120 2.408 . S
O151 C139 1.272 . S
H152 C124 0.930 . S
H153 C125 0.929 . S
H154 C127 0.930 . S
H155 C128 0.929 1_556 S
H156 C133 0.930 . S
H157 C134 0.929 . S
H158 C136 0.930 . S
H159 C137 0.929 . S
Sm160 C162 2.846 1_556 S
Sm160 O180 2.543 1_556 S
Sm160 O181 2.450 . S
Sm160 O182 2.681 . S
Sm160 O183 2.464 . S
Sm160 O184 2.396 . S
Sm160 O188 2.386 . S
Sm160 O191 2.408 . S
Sm161 C171 2.846 . S
Sm161 O182 2.386 1_655 S
Sm161 O185 2.408 . S
Sm161 O186 2.543 . S
Sm161 O187 2.450 . S
Sm161 O188 2.681 1_655 S
Sm161 O189 2.464 . S
Sm161 O190 2.396 1_655 S
C162 Sm160 2.846 1_554 S
C162 C163 1.506 . S
C162 O180 1.261 . S
C162 O181 1.242 1_554 S
C163 C162 1.506 . S
C163 C164 1.358 . S
C163 C168 1.382 . S
C164 C163 1.358 . S
C164 C165 1.385 . S
C164 H192 0.930 . S
C165 C164 1.385 . S
C165 C166 1.395 . S
C165 H193 0.929 . S
C166 C165 1.395 . S
C166 C167 1.335 . S
C167 C166 1.335 . S
C167 C168 1.398 . S
C167 H194 0.930 . S
C168 C163 1.382 . S
C168 C167 1.398 . S
C168 H195 0.929 . S
C169 O182 1.271 . S
C169 O183 1.251 . S
C170 O184 1.252 1_655 S
C170 O185 1.272 . S
C171 Sm161 2.846 . S
C171 C172 1.506 . S
C171 O186 1.261 . S
C171 O187 1.242 . S
C172 C171 1.506 . S
C172 C173 1.358 . S
C172 C177 1.382 . S
C173 C172 1.358 . S
C173 C174 1.385 . S
C173 H196 0.930 . S
C174 C173 1.385 . S
C174 C175 1.395 . S
C174 H197 0.929 . S
C175 C174 1.395 . S
C175 C176 1.335 . S
C176 C175 1.335 . S
C176 C177 1.398 . S
C176 H198 0.930 . S
C177 C172 1.382 . S
C177 C176 1.398 . S
C177 H199 0.929 . S
C178 O188 1.271 . S
C178 O189 1.251 1_455 S
C179 O190 1.252 . S
C179 O191 1.272 . S
O180 Sm160 2.543 1_554 S
O180 C162 1.261 . S
O181 Sm160 2.450 . S
O181 C162 1.242 1_556 S
O182 Sm160 2.681 . S
O182 Sm161 2.386 1_455 S
O182 C169 1.271 . S
O183 Sm160 2.464 . S
O183 C169 1.251 . S
O184 Sm160 2.396 . S
O184 C170 1.252 1_455 S
O185 Sm161 2.408 . S
O185 C170 1.272 . S
O186 Sm161 2.543 . S
O186 C171 1.261 . S
O187 Sm161 2.450 . S
O187 C171 1.242 . S
O188 Sm160 2.386 . S
O188 Sm161 2.681 1_455 S
O188 C178 1.271 . S
O189 Sm161 2.464 . S
O189 C178 1.251 1_655 S
O190 Sm161 2.396 1_455 S
O190 C179 1.252 . S
O191 Sm160 2.408 . S
O191 C179 1.272 . S
H192 C164 0.930 . S
H193 C165 0.929 . S
H194 C167 0.930 . S
H195 C168 0.929 . S
H196 C173 0.930 . S
H197 C174 0.929 . S
H198 C176 0.930 . S
H199 C177 0.929 . S
Sm200 C202 2.846 . S
Sm200 O220 2.543 . S
Sm200 O221 2.450 . S
Sm200 O222 2.681 . S
Sm200 O223 2.464 . S
Sm200 O224 2.396 . S
Sm200 O228 2.386 . S
Sm200 O231 2.408 . S
Sm201 C211 2.846 . S
Sm201 O222 2.386 . S
Sm201 O225 2.408 . S
Sm201 O226 2.543 . S
Sm201 O227 2.450 . S
Sm201 O228 2.681 . S
Sm201 O229 2.464 . S
Sm201 O230 2.396 . S
C202 Sm200 2.846 . S
C202 C203 1.506 . S
C202 O220 1.261 . S
C202 O221 1.242 . S
C203 C202 1.506 . S
C203 C204 1.358 . S
C203 C208 1.382 . S
C204 C203 1.358 . S
C204 C205 1.385 . S
C204 H232 0.930 . S
C205 C204 1.385 . S
C205 C206 1.395 . S
C205 H233 0.929 . S
C206 C205 1.395 . S
C206 C207 1.335 . S
C207 C206 1.335 . S
C207 C208 1.398 . S
C207 H234 0.930 . S
C208 C203 1.382 . S
C208 C207 1.398 . S
C208 H235 0.929 . S
C209 O222 1.271 . S
C209 O223 1.251 . S
C210 O224 1.252 . S
C210 O225 1.272 . S
C211 Sm201 2.846 . S
C211 C212 1.506 . S
C211 O226 1.261 . S
C211 O227 1.242 . S
C212 C211 1.506 . S
C212 C213 1.358 1_554 S
C212 C217 1.382 . S
C213 C212 1.358 1_556 S
C213 C214 1.385 . S
C213 H236 0.930 1_556 S
C214 C213 1.385 . S
C214 C215 1.395 . S
C214 H237 0.929 . S
C215 C214 1.395 . S
C215 C216 1.335 . S
C216 C215 1.335 . S
C216 C217 1.398 1_556 S
C216 H238 0.930 . S
C217 C212 1.382 . S
C217 C216 1.398 1_554 S
C217 H239 0.929 . S
C218 O228 1.271 . S
C218 O229 1.251 . S
C219 O230 1.252 . S
C219 O231 1.272 . S
O220 Sm200 2.543 . S
O220 C202 1.261 . S
O221 Sm200 2.450 . S
O221 C202 1.242 . S
O222 Sm200 2.681 . S
O222 Sm201 2.386 . S
O222 C209 1.271 . S
O223 Sm200 2.464 . S
O223 C209 1.251 . S
O224 Sm200 2.396 . S
O224 C210 1.252 . S
O225 Sm201 2.408 . S
O225 C210 1.272 . S
O226 Sm201 2.543 . S
O226 C211 1.261 . S
O227 Sm201 2.450 . S
O227 C211 1.242 . S
O228 Sm200 2.386 . S
O228 Sm201 2.681 . S
O228 C218 1.271 . S
O229 Sm201 2.464 . S
O229 C218 1.251 . S
O230 Sm201 2.396 . S
O230 C219 1.252 . S
O231 Sm200 2.408 . S
O231 C219 1.272 . S
H232 C204 0.930 . S
H233 C205 0.929 . S
H234 C207 0.930 . S
H235 C208 0.929 . S
H236 C213 0.930 1_554 S
H237 C214 0.929 . S
H238 C216 0.930 . S
H239 C217 0.929 . S
Sm240 C242 2.846 . S
Sm240 O260 2.543 . S
Sm240 O261 2.450 . S
Sm240 O262 2.681 . S
Sm240 O263 2.464 . S
Sm240 O264 2.396 . S
Sm240 O268 2.386 . S
Sm240 O271 2.408 . S
Sm241 C251 2.846 . S
Sm241 O262 2.386 . S
Sm241 O265 2.408 . S
Sm241 O266 2.543 . S
Sm241 O267 2.450 . S
Sm241 O268 2.681 . S
Sm241 O269 2.464 . S
Sm241 O270 2.396 . S
C242 Sm240 2.846 . S
C242 C243 1.506 . S
C242 O260 1.261 . S
C242 O261 1.242 . S
C243 C242 1.506 . S
C243 C244 1.358 . S
C243 C248 1.382 . S
C244 C243 1.358 . S
C244 C245 1.385 . S
C244 H272 0.930 . S
C245 C244 1.385 . S
C245 C246 1.395 . S
C245 H273 0.929 . S
C246 C245 1.395 . S
C246 C247 1.335 . S
C247 C246 1.335 . S
C247 C248 1.398 . S
C247 H274 0.930 . S
C248 C243 1.382 . S
C248 C247 1.398 . S
C248 H275 0.929 . S
C249 O262 1.271 . S
C249 O263 1.251 . S
C250 O264 1.252 . S
C250 O265 1.272 . S
C251 Sm241 2.846 . S
C251 C252 1.506 . S
C251 O266 1.261 . S
C251 O267 1.242 . S
C252 C251 1.506 . S
C252 C253 1.358 . S
C252 C257 1.382 . S
C253 C252 1.358 . S
C253 C254 1.385 . S
C253 H276 0.930 . S
C254 C253 1.385 . S
C254 C255 1.395 . S
C254 H277 0.929 . S
C255 C254 1.395 . S
C255 C256 1.335 . S
C256 C255 1.335 . S
C256 C257 1.398 . S
C256 H278 0.930 . S
C257 C252 1.382 . S
C257 C256 1.398 . S
C257 H279 0.929 . S
C258 O268 1.271 . S
C258 O269 1.251 . S
C259 O270 1.252 . S
C259 O271 1.272 . S
O260 Sm240 2.543 . S
O260 C242 1.261 . S
O261 Sm240 2.450 . S
O261 C242 1.242 . S
O262 Sm240 2.681 . S
O262 Sm241 2.386 . S
O262 C249 1.271 . S
O263 Sm240 2.464 . S
O263 C249 1.251 . S
O264 Sm240 2.396 . S
O264 C250 1.252 . S
O265 Sm241 2.408 . S
O265 C250 1.272 . S
O266 Sm241 2.543 . S
O266 C251 1.261 . S
O267 Sm241 2.450 . S
O267 C251 1.242 . S
O268 Sm240 2.386 . S
O268 Sm241 2.681 . S
O268 C258 1.271 . S
O269 Sm241 2.464 . S
O269 C258 1.251 . S
O270 Sm241 2.396 . S
O270 C259 1.252 . S
O271 Sm240 2.408 . S
O271 C259 1.272 . S
H272 C244 0.930 . S
H273 C245 0.929 . S
H274 C247 0.930 . S
H275 C248 0.929 . S
H276 C253 0.930 . S
H277 C254 0.929 . S
H278 C256 0.930 . S
H279 C257 0.929 . S
Sm280 C282 2.846 . S
Sm280 O300 2.543 . S
Sm280 O301 2.450 . S
Sm280 O302 2.681 . S
Sm280 O303 2.464 . S
Sm280 O304 2.396 . S
Sm280 O308 2.386 . S
Sm280 O311 2.408 . S
Sm281 C291 2.846 . S
Sm281 O302 2.386 . S
Sm281 O305 2.408 . S
Sm281 O306 2.543 . S
Sm281 O307 2.450 . S
Sm281 O308 2.681 . S
Sm281 O309 2.464 . S
Sm281 O310 2.396 . S
C282 Sm280 2.846 . S
C282 C283 1.506 . S
C282 O300 1.261 . S
C282 O301 1.242 . S
C283 C282 1.506 . S
C283 C284 1.358 . S
C283 C288 1.382 . S
C284 C283 1.358 . S
C284 C285 1.385 . S
C284 H312 0.930 . S
C285 C284 1.385 . S
C285 C286 1.395 . S
C285 H313 0.929 . S
C286 C285 1.395 . S
C286 C287 1.335 . S
C287 C286 1.335 . S
C287 C288 1.398 . S
C287 H314 0.930 . S
C288 C283 1.382 . S
C288 C287 1.398 . S
C288 H315 0.929 . S
C289 O302 1.271 . S
C289 O303 1.251 . S
C290 O304 1.252 . S
C290 O305 1.272 . S
C291 Sm281 2.846 . S
C291 C292 1.506 . S
C291 O306 1.261 . S
C291 O307 1.242 . S
C292 C291 1.506 . S
C292 C293 1.358 . S
C292 C297 1.382 . S
C293 C292 1.358 . S
C293 C294 1.385 . S
C293 H316 0.930 . S
C294 C293 1.385 . S
C294 C295 1.395 . S
C294 H317 0.929 . S
C295 C294 1.395 . S
C295 C296 1.335 . S
C296 C295 1.335 . S
C296 C297 1.398 . S
C296 H318 0.930 . S
C297 C292 1.382 . S
C297 C296 1.398 . S
C297 H319 0.929 . S
C298 O308 1.271 . S
C298 O309 1.251 . S
C299 O310 1.252 . S
C299 O311 1.272 . S
O300 Sm280 2.543 . S
O300 C282 1.261 . S
O301 Sm280 2.450 . S
O301 C282 1.242 . S
O302 Sm280 2.681 . S
O302 Sm281 2.386 . S
O302 C289 1.271 . S
O303 Sm280 2.464 . S
O303 C289 1.251 . S
O304 Sm280 2.396 . S
O304 C290 1.252 . S
O305 Sm281 2.408 . S
O305 C290 1.272 . S
O306 Sm281 2.543 . S
O306 C291 1.261 . S
O307 Sm281 2.450 . S
O307 C291 1.242 . S
O308 Sm280 2.386 . S
O308 Sm281 2.681 . S
O308 C298 1.271 . S
O309 Sm281 2.464 . S
O309 C298 1.251 . S
O310 Sm281 2.396 . S
O310 C299 1.252 . S
O311 Sm280 2.408 . S
O311 C299 1.272 . S
H312 C284 0.930 . S
H313 C285 0.929 . S
H314 C287 0.930 . S
H315 C288 0.929 . S
H316 C293 0.930 . S
H317 C294 0.929 . S
H318 C296 0.930 . S
H319 C297 0.929 . S
Sm320 C322 2.846 . S
Sm320 O340 2.543 . S
Sm320 O341 2.450 . S
Sm320 O342 2.681 . S
Sm320 O343 2.464 . S
Sm320 O344 2.396 . S
Sm320 O348 2.386 . S
Sm320 O351 2.408 . S
Sm321 C331 2.846 . S
Sm321 O342 2.386 . S
Sm321 O345 2.408 . S
Sm321 O346 2.543 . S
Sm321 O347 2.450 . S
Sm321 O348 2.681 . S
Sm321 O349 2.464 . S
Sm321 O350 2.396 . S
C322 Sm320 2.846 . S
C322 C323 1.506 . S
C322 O340 1.261 . S
C322 O341 1.242 . S
C323 C322 1.506 . S
C323 C324 1.358 . S
C323 C328 1.382 . S
C324 C323 1.358 . S
C324 C325 1.385 . S
C324 H352 0.930 . S
C325 C324 1.385 . S
C325 C326 1.395 . S
C325 H353 0.929 . S
C326 C325 1.395 . S
C326 C327 1.335 . S
C327 C326 1.335 . S
C327 C328 1.398 . S
C327 H354 0.930 . S
C328 C323 1.382 . S
C328 C327 1.398 . S
C328 H355 0.929 . S
C329 O342 1.271 . S
C329 O343 1.251 . S
C330 O344 1.252 . S
C330 O345 1.272 . S
C331 Sm321 2.846 . S
C331 C332 1.506 . S
C331 O346 1.261 . S
C331 O347 1.242 . S
C332 C331 1.506 . S
C332 C333 1.358 . S
C332 C337 1.382 . S
C333 C332 1.358 . S
C333 C334 1.385 . S
C333 H356 0.930 . S
C334 C333 1.385 . S
C334 C335 1.395 . S
C334 H357 0.929 . S
C335 C334 1.395 . S
C335 C336 1.335 . S
C336 C335 1.335 . S
C336 C337 1.398 . S
C336 H358 0.930 . S
C337 C332 1.382 . S
C337 C336 1.398 . S
C337 H359 0.929 . S
C338 O348 1.271 . S
C338 O349 1.251 . S
C339 O350 1.252 . S
C339 O351 1.272 . S
O340 Sm320 2.543 . S
O340 C322 1.261 . S
O341 Sm320 2.450 . S
O341 C322 1.242 . S
O342 Sm320 2.681 . S
O342 Sm321 2.386 . S
O342 C329 1.271 . S
O343 Sm320 2.464 . S
O343 C329 1.251 . S
O344 Sm320 2.396 . S
O344 C330 1.252 . S
O345 Sm321 2.408 . S
O345 C330 1.272 . S
O346 Sm321 2.543 . S
O346 C331 1.261 . S
O347 Sm321 2.450 . S
O347 C331 1.242 . S
O348 Sm320 2.386 . S
O348 Sm321 2.681 . S
O348 C338 1.271 . S
O349 Sm321 2.464 . S
O349 C338 1.251 . S
O350 Sm321 2.396 . S
O350 C339 1.252 . S
O351 Sm320 2.408 . S
O351 C339 1.272 . S
H352 C324 0.930 . S
H353 C325 0.929 . S
H354 C327 0.930 . S
H355 C328 0.929 . S
H356 C333 0.930 . S
H357 C334 0.929 . S
H358 C336 0.930 . S
H359 C337 0.929 . S
Sm360 C362 2.846 . S
Sm360 O380 2.543 . S
Sm360 O381 2.450 . S
Sm360 O382 2.681 . S
Sm360 O383 2.464 . S
Sm360 O384 2.396 . S
Sm360 O388 2.386 . S
Sm360 O391 2.408 . S
Sm361 C371 2.846 1_554 S
Sm361 O382 2.386 . S
Sm361 O385 2.408 . S
Sm361 O386 2.543 1_554 S
Sm361 O387 2.450 1_554 S
Sm361 O388 2.681 . S
Sm361 O389 2.464 . S
Sm361 O390 2.396 . S
C362 Sm360 2.846 . S
C362 C363 1.506 . S
C362 O380 1.261 . S
C362 O381 1.242 . S
C363 C362 1.506 . S
C363 C364 1.358 . S
C363 C368 1.382 . S
C364 C363 1.358 . S
C364 C365 1.385 . S
C364 H392 0.930 . S
C365 C364 1.385 . S
C365 C366 1.395 . S
C365 H393 0.929 . S
C366 C365 1.395 . S
C366 C367 1.335 . S
C367 C366 1.335 . S
C367 C368 1.398 . S
C367 H394 0.930 . S
C368 C363 1.382 . S
C368 C367 1.398 . S
C368 H395 0.929 . S
C369 O382 1.271 . S
C369 O383 1.251 . S
C370 O384 1.252 . S
C370 O385 1.272 . S
C371 Sm361 2.846 1_556 S
C371 C372 1.506 . S
C371 O386 1.261 . S
C371 O387 1.242 . S
C372 C371 1.506 . S
C372 C373 1.358 . S
C372 C377 1.382 . S
C373 C372 1.358 . S
C373 C374 1.385 . S
C373 H396 0.930 . S
C374 C373 1.385 . S
C374 C375 1.395 . S
C374 H397 0.929 . S
C375 C374 1.395 . S
C375 C376 1.335 . S
C376 C375 1.335 . S
C376 C377 1.398 . S
C376 H398 0.930 . S
C377 C372 1.382 . S
C377 C376 1.398 . S
C377 H399 0.929 . S
C378 O388 1.271 . S
C378 O389 1.251 . S
C379 O390 1.252 . S
C379 O391 1.272 . S
O380 Sm360 2.543 . S
O380 C362 1.261 . S
O381 Sm360 2.450 . S
O381 C362 1.242 . S
O382 Sm360 2.681 . S
O382 Sm361 2.386 . S
O382 C369 1.271 . S
O383 Sm360 2.464 . S
O383 C369 1.251 . S
O384 Sm360 2.396 . S
O384 C370 1.252 . S
O385 Sm361 2.408 . S
O385 C370 1.272 . S
O386 Sm361 2.543 1_556 S
O386 C371 1.261 . S
O387 Sm361 2.450 1_556 S
O387 C371 1.242 . S
O388 Sm360 2.386 . S
O388 Sm361 2.681 . S
O388 C378 1.271 . S
O389 Sm361 2.464 . S
O389 C378 1.251 . S
O390 Sm361 2.396 . S
O390 C379 1.252 . S
O391 Sm360 2.408 . S
O391 C379 1.272 . S
H392 C364 0.930 . S
H393 C365 0.929 . S
H394 C367 0.930 . S
H395 C368 0.929 . S
H396 C373 0.930 . S
H397 C374 0.929 . S
H398 C376 0.930 . S
H399 C377 0.929 . S
Sm400 C402 2.846 1_556 S
Sm400 O420 2.543 . S
Sm400 O421 2.450 . S
Sm400 O422 2.681 . S
Sm400 O423 2.464 . S
Sm400 O424 2.396 . S
Sm400 O428 2.386 . S
Sm400 O431 2.408 . S
Sm401 C411 2.846 . S
Sm401 O422 2.386 . S
Sm401 O425 2.408 . S
Sm401 O426 2.543 . S
Sm401 O427 2.450 . S
Sm401 O428 2.681 . S
Sm401 O429 2.464 . S
Sm401 O430 2.396 . S
C402 Sm400 2.846 1_554 S
C402 C403 1.506 . S
C402 O420 1.261 1_554 S
C402 O421 1.242 1_554 S
C403 C402 1.506 . S
C403 C404 1.358 . S
C403 C408 1.382 . S
C404 C403 1.358 . S
C404 C405 1.385 . S
C404 H432 0.930 . S
C405 C404 1.385 . S
C405 C406 1.395 . S
C405 H433 0.929 . S
C406 C405 1.395 . S
C406 C407 1.335 . S
C407 C406 1.335 . S
C407 C408 1.398 . S
C407 H434 0.930 . S
C408 C403 1.382 . S
C408 C407 1.398 . S
C408 H435 0.929 . S
C409 O422 1.271 . S
C409 O423 1.251 . S
C410 O424 1.252 . S
C410 O425 1.272 . S
C411 Sm401 2.846 . S
C411 C412 1.506 . S
C411 O426 1.261 . S
C411 O427 1.242 . S
C412 C411 1.506 . S
C412 C413 1.358 . S
C412 C417 1.382 . S
C413 C412 1.358 . S
C413 C414 1.385 . S
C413 H436 0.930 . S
C414 C413 1.385 . S
C414 C415 1.395 . S
C414 H437 0.929 . S
C415 C414 1.395 . S
C415 C416 1.335 . S
C416 C415 1.335 . S
C416 C417 1.398 . S
C416 H438 0.930 . S
C417 C412 1.382 . S
C417 C416 1.398 . S
C417 H439 0.929 . S
C418 O428 1.271 . S
C418 O429 1.251 . S
C419 O430 1.252 . S
C419 O431 1.272 . S
O420 Sm400 2.543 . S
O420 C402 1.261 1_556 S
O421 Sm400 2.450 . S
O421 C402 1.242 1_556 S
O422 Sm400 2.681 . S
O422 Sm401 2.386 . S
O422 C409 1.271 . S
O423 Sm400 2.464 . S
O423 C409 1.251 . S
O424 Sm400 2.396 . S
O424 C410 1.252 . S
O425 Sm401 2.408 . S
O425 C410 1.272 . S
O426 Sm401 2.543 . S
O426 C411 1.261 . S
O427 Sm401 2.450 . S
O427 C411 1.242 . S
O428 Sm400 2.386 . S
O428 Sm401 2.681 . S
O428 C418 1.271 . S
O429 Sm401 2.464 . S
O429 C418 1.251 . S
O430 Sm401 2.396 . S
O430 C419 1.252 . S
O431 Sm400 2.408 . S
O431 C419 1.272 . S
H432 C404 0.930 . S
H433 C405 0.929 . S
H434 C407 0.930 . S
H435 C408 0.929 . S
H436 C413 0.930 . S
H437 C414 0.929 . S
H438 C416 0.930 . S
H439 C417 0.929 . S
Sm440 C442 2.846 . S
Sm440 O460 2.543 . S
Sm440 O461 2.450 . S
Sm440 O462 2.681 . S
Sm440 O463 2.464 . S
Sm440 O464 2.396 . S
Sm440 O468 2.386 . S
Sm440 O471 2.408 . S
Sm441 C451 2.846 . S
Sm441 O462 2.386 . S
Sm441 O465 2.408 . S
Sm441 O466 2.543 . S
Sm441 O467 2.450 . S
Sm441 O468 2.681 . S
Sm441 O469 2.464 . S
Sm441 O470 2.396 . S
C442 Sm440 2.846 . S
C442 C443 1.506 . S
C442 O460 1.261 . S
C442 O461 1.242 . S
C443 C442 1.506 . S
C443 C444 1.358 . S
C443 C448 1.382 . S
C444 C443 1.358 . S
C444 C445 1.385 . S
C444 H472 0.930 . S
C445 C444 1.385 . S
C445 C446 1.395 . S
C445 H473 0.929 . S
C446 C445 1.395 . S
C446 C447 1.335 . S
C447 C446 1.335 . S
C447 C448 1.398 . S
C447 H474 0.930 . S
C448 C443 1.382 . S
C448 C447 1.398 . S
C448 H475 0.929 . S
C449 O462 1.271 . S
C449 O463 1.251 . S
C450 O464 1.252 . S
C450 O465 1.272 . S
C451 Sm441 2.846 . S
C451 C452 1.506 . S
C451 O466 1.261 . S
C451 O467 1.242 . S
C452 C451 1.506 . S
C452 C453 1.358 . S
C452 C457 1.382 . S
C453 C452 1.358 . S
C453 C454 1.385 . S
C453 H476 0.930 . S
C454 C453 1.385 . S
C454 C455 1.395 . S
C454 H477 0.929 . S
C455 C454 1.395 . S
C455 C456 1.335 . S
C456 C455 1.335 . S
C456 C457 1.398 . S
C456 H478 0.930 . S
C457 C452 1.382 . S
C457 C456 1.398 . S
C457 H479 0.929 . S
C458 O468 1.271 . S
C458 O469 1.251 . S
C459 O470 1.252 . S
C459 O471 1.272 . S
O460 Sm440 2.543 . S
O460 C442 1.261 . S
O461 Sm440 2.450 . S
O461 C442 1.242 . S
O462 Sm440 2.681 . S
O462 Sm441 2.386 . S
O462 C449 1.271 . S
O463 Sm440 2.464 . S
O463 C449 1.251 . S
O464 Sm440 2.396 . S
O464 C450 1.252 . S
O465 Sm441 2.408 . S
O465 C450 1.272 . S
O466 Sm441 2.543 . S
O466 C451 1.261 . S
O467 Sm441 2.450 . S
O467 C451 1.242 . S
O468 Sm440 2.386 . S
O468 Sm441 2.681 . S
O468 C458 1.271 . S
O469 Sm441 2.464 . S
O469 C458 1.251 . S
O470 Sm441 2.396 . S
O470 C459 1.252 . S
O471 Sm440 2.408 . S
O471 C459 1.272 . S
H472 C444 0.930 . S
H473 C445 0.929 . S
H474 C447 0.930 . S
H475 C448 0.929 . S
H476 C453 0.930 . S
H477 C454 0.929 . S
H478 C456 0.930 . S
H479 C457 0.929 . S
Sm480 C482 2.846 . S
Sm480 O500 2.543 . S
Sm480 O501 2.450 . S
Sm480 O502 2.681 . S
Sm480 O503 2.464 . S
Sm480 O504 2.396 . S
Sm480 O508 2.386 . S
Sm480 O511 2.408 . S
Sm481 C491 2.846 . S
Sm481 O502 2.386 . S
Sm481 O505 2.408 . S
Sm481 O506 2.543 . S
Sm481 O507 2.450 . S
Sm481 O508 2.681 . S
Sm481 O509 2.464 . S
Sm481 O510 2.396 . S
C482 Sm480 2.846 . S
C482 C483 1.506 . S
C482 O500 1.261 . S
C482 O501 1.242 . S
C483 C482 1.506 . S
C483 C484 1.358 . S
C483 C488 1.382 . S
C484 C483 1.358 . S
C484 C485 1.385 . S
C484 H512 0.930 . S
C485 C484 1.385 . S
C485 C486 1.395 . S
C485 H513 0.929 . S
C486 C485 1.395 . S
C486 C487 1.335 . S
C487 C486 1.335 . S
C487 C488 1.398 . S
C487 H514 0.930 . S
C488 C483 1.382 . S
C488 C487 1.398 . S
C488 H515 0.929 . S
C489 O502 1.271 . S
C489 O503 1.251 . S
C490 O504 1.252 . S
C490 O505 1.272 . S
C491 Sm481 2.846 . S
C491 C492 1.506 . S
C491 O506 1.261 . S
C491 O507 1.242 . S
C492 C491 1.506 . S
C492 C493 1.358 . S
C492 C497 1.382 . S
C493 C492 1.358 . S
C493 C494 1.385 . S
C493 H516 0.930 . S
C494 C493 1.385 . S
C494 C495 1.395 . S
C494 H517 0.929 . S
C495 C494 1.395 . S
C495 C496 1.335 . S
C496 C495 1.335 . S
C496 C497 1.398 . S
C496 H518 0.930 . S
C497 C492 1.382 . S
C497 C496 1.398 . S
C497 H519 0.929 . S
C498 O508 1.271 . S
C498 O509 1.251 . S
C499 O510 1.252 . S
C499 O511 1.272 . S
O500 Sm480 2.543 . S
O500 C482 1.261 . S
O501 Sm480 2.450 . S
O501 C482 1.242 . S
O502 Sm480 2.681 . S
O502 Sm481 2.386 . S
O502 C489 1.271 . S
O503 Sm480 2.464 . S
O503 C489 1.251 . S
O504 Sm480 2.396 . S
O504 C490 1.252 . S
O505 Sm481 2.408 . S
O505 C490 1.272 . S
O506 Sm481 2.543 . S
O506 C491 1.261 . S
O507 Sm481 2.450 . S
O507 C491 1.242 . S
O508 Sm480 2.386 . S
O508 Sm481 2.681 . S
O508 C498 1.271 . S
O509 Sm481 2.464 . S
O509 C498 1.251 . S
O510 Sm481 2.396 . S
O510 C499 1.252 . S
O511 Sm480 2.408 . S
O511 C499 1.272 . S
H512 C484 0.930 . S
H513 C485 0.929 . S
H514 C487 0.930 . S
H515 C488 0.929 . S
H516 C493 0.930 . S
H517 C494 0.929 . S
H518 C496 0.930 . S
H519 C497 0.929 . S
Sm520 C522 2.846 . S
Sm520 O540 2.543 . S
Sm520 O541 2.450 . S
Sm520 O542 2.681 1_655 S
Sm520 O543 2.464 . S
Sm520 O544 2.396 1_655 S
Sm520 O548 2.386 1_655 S
Sm520 O551 2.408 . S
Sm521 C531 2.839 1_554 S
Sm521 O542 2.386 . S
Sm521 O545 2.408 . S
Sm521 O546 2.543 . S
Sm521 O547 2.450 . S
Sm521 O548 2.681 . S
Sm521 O549 2.464 . S
Sm521 O550 2.396 . S
C522 Sm520 2.846 . S
C522 C523 1.506 . S
C522 O540 1.261 . S
C522 O541 1.242 . S
C523 C522 1.506 . S
C523 C524 1.358 . S
C523 C528 1.382 . S
C524 C523 1.358 . S
C524 C525 1.385 . S
C524 H552 0.930 . S
C525 C524 1.385 . S
C525 C526 1.395 . S
C525 H553 0.929 . S
C526 C525 1.395 . S
C526 C527 1.335 . S
C527 C526 1.335 . S
C527 C528 1.398 . S
C527 H554 0.930 . S
C528 C523 1.382 . S
C528 C527 1.398 . S
C528 H555 0.929 . S
C529 O542 1.271 . S
C529 O543 1.251 1_455 S
C530 O544 1.252 . S
C530 O545 1.272 . S
C531 Sm521 2.839 1_556 S
C531 C532 1.513 . S
C531 O546 1.259 1_556 S
C531 O547 1.237 1_556 S
C532 C531 1.513 . S
C532 C533 1.358 . S
C532 C537 1.382 . S
C533 C532 1.358 . S
C533 C534 1.385 . S
C533 H556 0.930 . S
C534 C533 1.385 . S
C534 C535 1.395 . S
C534 H557 0.929 . S
C535 C534 1.395 . S
C535 C536 1.335 . S
C536 C535 1.335 . S
C536 C537 1.398 . S
C536 H558 0.930 . S
C537 C532 1.382 . S
C537 C536 1.398 . S
C537 H559 0.929 . S
C538 O548 1.271 . S
C538 O549 1.251 . S
C539 O550 1.252 1_655 S
C539 O551 1.272 . S
O540 Sm520 2.543 . S
O540 C522 1.261 . S
O541 Sm520 2.450 . S
O541 C522 1.242 . S
O542 Sm520 2.681 1_455 S
O542 Sm521 2.386 . S
O542 C529 1.271 . S
O543 Sm520 2.464 . S
O543 C529 1.251 1_655 S
O544 Sm520 2.396 1_455 S
O544 C530 1.252 . S
O545 Sm521 2.408 . S
O545 C530 1.272 . S
O546 Sm521 2.543 . S
O546 C531 1.259 1_554 S
O547 Sm521 2.450 . S
O547 C531 1.237 1_554 S
O548 Sm520 2.386 1_455 S
O548 Sm521 2.681 . S
O548 C538 1.271 . S
O549 Sm521 2.464 . S
O549 C538 1.251 . S
O550 Sm521 2.396 . S
O550 C539 1.252 1_455 S
O551 Sm520 2.408 . S
O551 C539 1.272 . S
H552 C524 0.930 . S
H553 C525 0.929 . S
H554 C527 0.930 . S
H555 C528 0.929 . S
H556 C533 0.930 . S
H557 C534 0.929 . S
H558 C536 0.930 . S
H559 C537 0.929 . S
Sm560 C562 2.846 . S
Sm560 O580 2.543 . S
Sm560 O581 2.450 . S
Sm560 O582 2.681 . S
Sm560 O583 2.464 . S
Sm560 O584 2.396 . S
Sm560 O588 2.386 . S
Sm560 O591 2.408 . S
Sm561 C571 2.846 . S
Sm561 O582 2.386 . S
Sm561 O585 2.408 . S
Sm561 O586 2.543 . S
Sm561 O587 2.450 . S
Sm561 O588 2.681 . S
Sm561 O589 2.464 . S
Sm561 O590 2.396 . S
C562 Sm560 2.846 . S
C562 C563 1.506 . S
C562 O580 1.261 . S
C562 O581 1.242 . S
C563 C562 1.506 . S
C563 C564 1.358 . S
C563 C568 1.382 . S
C564 C563 1.358 . S
C564 C565 1.385 . S
C564 H592 0.930 . S
C565 C564 1.385 . S
C565 C566 1.395 . S
C565 H593 0.929 . S
C566 C565 1.395 . S
C566 C567 1.335 . S
C567 C566 1.335 . S
C567 C568 1.398 . S
C567 H594 0.930 . S
C568 C563 1.382 . S
C568 C567 1.398 . S
C568 H595 0.929 . S
C569 O582 1.271 . S
C569 O583 1.251 . S
C570 O584 1.252 . S
C570 O585 1.272 . S
C571 Sm561 2.846 . S
C571 C572 1.506 . S
C571 O586 1.261 . S
C571 O587 1.242 . S
C572 C571 1.506 . S
C572 C573 1.358 . S
C572 C577 1.382 . S
C573 C572 1.358 . S
C573 C574 1.385 . S
C573 H596 0.930 . S
C574 C573 1.385 . S
C574 C575 1.395 . S
C574 H597 0.929 . S
C575 C574 1.395 . S
C575 C576 1.335 . S
C576 C575 1.335 . S
C576 C577 1.398 . S
C576 H598 0.930 . S
C577 C572 1.382 . S
C577 C576 1.398 . S
C577 H599 0.929 . S
C578 O588 1.271 . S
C578 O589 1.251 . S
C579 O590 1.252 . S
C579 O591 1.272 . S
O580 Sm560 2.543 . S
O580 C562 1.261 . S
O581 Sm560 2.450 . S
O581 C562 1.242 . S
O582 Sm560 2.681 . S
O582 Sm561 2.386 . S
O582 C569 1.271 . S
O583 Sm560 2.464 . S
O583 C569 1.251 . S
O584 Sm560 2.396 . S
O584 C570 1.252 . S
O585 Sm561 2.408 . S
O585 C570 1.272 . S
O586 Sm561 2.543 . S
O586 C571 1.261 . S
O587 Sm561 2.450 . S
O587 C571 1.242 . S
O588 Sm560 2.386 . S
O588 Sm561 2.681 . S
O588 C578 1.271 . S
O589 Sm561 2.464 . S
O589 C578 1.251 . S
O590 Sm561 2.396 . S
O590 C579 1.252 . S
O591 Sm560 2.408 . S
O591 C579 1.272 . S
H592 C564 0.930 . S
H593 C565 0.929 . S
H594 C567 0.930 . S
H595 C568 0.929 . S
H596 C573 0.930 . S
H597 C574 0.929 . S
H598 C576 0.930 . S
H599 C577 0.929 . S
Sm600 C602 2.846 . S
Sm600 O620 2.543 . S
Sm600 O621 2.450 . S
Sm600 O622 2.681 1_655 S
Sm600 O623 2.464 . S
Sm600 O624 2.396 1_655 S
Sm600 O628 2.386 1_655 S
Sm600 O631 2.408 . S
Sm601 C611 2.846 . S
Sm601 O622 2.386 . S
Sm601 O625 2.408 . S
Sm601 O626 2.543 . S
Sm601 O627 2.450 . S
Sm601 O628 2.681 . S
Sm601 O629 2.464 . S
Sm601 O630 2.396 . S
C602 Sm600 2.846 . S
C602 C603 1.506 1_556 S
C602 O620 1.261 . S
C602 O621 1.242 . S
C603 C602 1.506 1_554 S
C603 C604 1.358 . S
C603 C608 1.382 . S
C604 C603 1.358 . S
C604 C605 1.385 . S
C604 H632 0.930 . S
C605 C604 1.385 . S
C605 C606 1.395 . S
C605 H633 0.929 . S
C606 C605 1.395 . S
C606 C607 1.335 . S
C607 C606 1.335 . S
C607 C608 1.398 . S
C607 H634 0.930 . S
C608 C603 1.382 . S
C608 C607 1.398 . S
C608 H635 0.929 . S
C609 O622 1.271 . S
C609 O623 1.251 1_455 S
C610 O624 1.252 . S
C610 O625 1.272 . S
C611 Sm601 2.846 . S
C611 C612 1.506 . S
C611 O626 1.261 . S
C611 O627 1.242 . S
C612 C611 1.506 . S
C612 C613 1.358 . S
C612 C617 1.382 . S
C613 C612 1.358 . S
C613 C614 1.385 . S
C613 H636 0.930 . S
C614 C613 1.385 . S
C614 C615 1.395 . S
C614 H637 0.929 . S
C615 C614 1.395 . S
C615 C616 1.335 . S
C616 C615 1.335 . S
C616 C617 1.398 . S
C616 H638 0.930 . S
C617 C612 1.382 . S
C617 C616 1.398 . S
C617 H639 0.929 . S
C618 O628 1.271 . S
C618 O629 1.251 . S
C619 O630 1.252 1_655 S
C619 O631 1.272 . S
O620 Sm600 2.543 . S
O620 C602 1.261 . S
O621 Sm600 2.450 . S
O621 C602 1.242 . S
O622 Sm600 2.681 1_455 S
O622 Sm601 2.386 . S
O622 C609 1.271 . S
O623 Sm600 2.464 . S
O623 C609 1.251 1_655 S
O624 Sm600 2.396 1_455 S
O624 C610 1.252 . S
O625 Sm601 2.408 . S
O625 C610 1.272 . S
O626 Sm601 2.543 . S
O626 C611 1.261 . S
O627 Sm601 2.450 . S
O627 C611 1.242 . S
O628 Sm600 2.386 1_455 S
O628 Sm601 2.681 . S
O628 C618 1.271 . S
O629 Sm601 2.464 . S
O629 C618 1.251 . S
O630 Sm601 2.396 . S
O630 C619 1.252 1_455 S
O631 Sm600 2.408 . S
O631 C619 1.272 . S
H632 C604 0.930 . S
H633 C605 0.929 . S
H634 C607 0.930 . S
H635 C608 0.929 . S
H636 C613 0.930 . S
H637 C614 0.929 . S
H638 C616 0.930 . S
H639 C617 0.929 . S
C640 C641 1.369 . S
C640 C642 1.419 . S
C640 H644 0.930 . S
C641 C640 1.369 . S
C641 C650 1.429 . S
C642 C640 1.419 . S
C642 C643 1.363 . S
C642 H645 0.929 . S
C643 C642 1.363 . S
C643 C649 1.428 . S
H644 C640 0.930 . S
H645 C642 0.929 . S
S646 N647 1.613 . S
S646 N648 1.610 . S
N647 S646 1.613 . S
N647 C650 1.350 . S
N648 S646 1.610 . S
N648 C649 1.351 . S
C649 C643 1.428 . S
C649 N648 1.351 . S
C649 C650 1.434 . S
C650 C641 1.429 . S
C650 N647 1.350 . S
C650 C649 1.434 . S
C651 C652 1.369 . S
C651 C653 1.419 . S
C651 H655 0.930 . S
C652 C651 1.369 . S
C652 C661 1.429 . S
C653 C651 1.419 . S
C653 C654 1.363 . S
C653 H656 0.929 . S
C654 C653 1.363 . S
C654 C660 1.428 . S
H655 C651 0.930 . S
H656 C653 0.929 . S
S657 N658 1.613 . S
S657 N659 1.610 . S
N658 S657 1.613 . S
N658 C661 1.350 . S
N659 S657 1.610 . S
N659 C660 1.351 . S
C660 C654 1.428 . S
C660 N659 1.351 . S
C660 C661 1.434 . S
C661 C652 1.429 . S
C661 N658 1.350 . S
C661 C660 1.434 . S
C662 C663 1.369 . S
C662 C664 1.419 . S
C662 H666 0.930 . S
C663 C662 1.369 . S
C663 C672 1.429 . S
C664 C662 1.419 . S
C664 C665 1.363 . S
C664 H667 0.929 . S
C665 C664 1.363 . S
C665 C671 1.428 . S
H666 C662 0.930 . S
H667 C664 0.929 . S
S668 N669 1.613 . S
S668 N670 1.610 . S
N669 S668 1.613 . S
N669 C672 1.350 . S
N670 S668 1.610 . S
N670 C671 1.351 . S
C671 C665 1.428 . S
C671 N670 1.351 . S
C671 C672 1.434 . S
C672 C663 1.429 . S
C672 N669 1.350 . S
C672 C671 1.434 . S
C673 C674 1.369 . S
C673 C675 1.419 . S
C673 H677 0.930 . S
C674 C673 1.369 . S
C674 C683 1.429 . S
C675 C673 1.419 . S
C675 C676 1.363 . S
C675 H678 0.929 . S
C676 C675 1.363 . S
C676 C682 1.428 . S
H677 C673 0.930 . S
H678 C675 0.929 . S
S679 N680 1.613 . S
S679 N681 1.610 . S
N680 S679 1.613 . S
N680 C683 1.350 . S
N681 S679 1.610 . S
N681 C682 1.351 . S
C682 C676 1.428 . S
C682 N681 1.351 . S
C682 C683 1.434 . S
C683 C674 1.429 . S
C683 N680 1.350 . S
C683 C682 1.434 . S
C684 C685 1.369 . S
C684 C686 1.419 1_554 S
C684 H688 0.930 . S
C685 C684 1.369 . S
C685 C694 1.429 . S
C686 C684 1.419 1_556 S
C686 C687 1.363 . S
C686 H689 0.929 . S
C687 C686 1.363 . S
C687 C693 1.428 1_556 S
H688 C684 0.930 . S
H689 C686 0.929 . S
S690 N691 1.613 1_455 S
S690 N692 1.610 . S
N691 S690 1.613 1_655 S
N691 C694 1.350 . S
N692 S690 1.610 . S
N692 C693 1.351 1_455 S
C693 C687 1.428 1_554 S
C693 N692 1.351 1_655 S
C693 C694 1.434 . S
C694 C685 1.429 . S
C694 N691 1.350 . S
C694 C693 1.434 . S
C695 C696 1.369 . S
C695 C697 1.419 . S
C695 H699 0.930 . S
C696 C695 1.369 . S
C696 C705 1.429 . S
C697 C695 1.419 . S
C697 C698 1.363 . S
C697 H700 0.929 . S
C698 C697 1.363 . S
C698 C704 1.428 . S
H699 C695 0.930 . S
H700 C697 0.929 . S
S701 N702 1.613 . S
S701 N703 1.610 . S
N702 S701 1.613 . S
N702 C705 1.350 . S
N703 S701 1.610 . S
N703 C704 1.351 . S
C704 C698 1.428 . S
C704 N703 1.351 . S
C704 C705 1.434 . S
C705 C696 1.429 . S
C705 N702 1.350 . S
C705 C704 1.434 . S
C706 C707 1.369 . S
C706 C708 1.419 . S
C706 H710 0.930 . S
C707 C706 1.369 . S
C707 C716 1.429 . S
C708 C706 1.419 . S
C708 C709 1.363 . S
C708 H711 0.929 . S
C709 C708 1.363 . S
C709 C715 1.428 . S
H710 C706 0.930 . S
H711 C708 0.929 . S
S712 N713 1.613 . S
S712 N714 1.610 . S
N713 S712 1.613 . S
N713 C716 1.350 . S
N714 S712 1.610 . S
N714 C715 1.351 . S
C715 C709 1.428 . S
C715 N714 1.351 . S
C715 C716 1.434 . S
C716 C707 1.429 . S
C716 N713 1.350 . S
C716 C715 1.434 . S
C717 C718 1.369 . S
C717 C719 1.419 . S
C717 H721 0.930 . S
C718 C717 1.369 . S
C718 C727 1.429 . S
C719 C717 1.419 . S
C719 C720 1.363 . S
C719 H722 0.929 . S
C720 C719 1.363 . S
C720 C726 1.428 . S
H721 C717 0.930 . S
H722 C719 0.929 . S
S723 N724 1.613 . S
S723 N725 1.610 . S
N724 S723 1.613 . S
N724 C727 1.350 . S
N725 S723 1.610 . S
N725 C726 1.351 . S
C726 C720 1.428 . S
C726 N725 1.351 . S
C726 C727 1.434 . S
C727 C718 1.429 . S
C727 N724 1.350 . S
C727 C726 1.434 . S
C728 C729 1.369 . S
C728 C730 1.419 . S
C728 H732 0.930 . S
C729 C728 1.369 . S
C729 C738 1.429 . S
C730 C728 1.419 . S
C730 C731 1.363 . S
C730 H733 0.929 . S
C731 C730 1.363 . S
C731 C737 1.428 . S
H732 C728 0.930 . S
H733 C730 0.929 . S
S734 N735 1.613 . S
S734 N736 1.610 . S
N735 S734 1.613 . S
N735 C738 1.350 . S
N736 S734 1.610 . S
N736 C737 1.351 . S
C737 C731 1.428 . S
C737 N736 1.351 . S
C737 C738 1.434 . S
C738 C729 1.429 . S
C738 N735 1.350 . S
C738 C737 1.434 . S
C739 C740 1.369 . S
C739 C741 1.419 . S
C739 H743 0.930 . S
C740 C739 1.369 . S
C740 C749 1.429 . S
C741 C739 1.419 . S
C741 C742 1.363 . S
C741 H744 0.929 . S
C742 C741 1.363 . S
C742 C748 1.428 . S
H743 C739 0.930 . S
H744 C741 0.929 . S
S745 N746 1.613 . S
S745 N747 1.610 . S
N746 S745 1.613 . S
N746 C749 1.350 . S
N747 S745 1.610 . S
N747 C748 1.351 . S
C748 C742 1.428 . S
C748 N747 1.351 . S
C748 C749 1.434 . S
C749 C740 1.429 . S
C749 N746 1.350 . S
C749 C748 1.434 . S
C750 C751 1.369 . S
C750 C752 1.419 1_554 S
C750 H754 0.930 . S
C751 C750 1.369 . S
C751 C760 1.429 1_554 S
C752 C750 1.419 1_556 S
C752 C753 1.363 . S
C752 H755 0.929 . S
C753 C752 1.363 . S
C753 C759 1.428 . S
H754 C750 0.930 . S
H755 C752 0.929 . S
S756 N757 1.613 . S
S756 N758 1.610 . S
N757 S756 1.613 . S
N757 C760 1.350 . S
N758 S756 1.610 . S
N758 C759 1.351 . S
C759 C753 1.428 . S
C759 N758 1.351 . S
C759 C760 1.434 . S
C760 C751 1.429 1_556 S
C760 N757 1.350 . S
C760 C759 1.434 . S
C761 C762 1.369 . S
C761 C763 1.419 . S
C761 H765 0.930 . S
C762 C761 1.369 . S
C762 C771 1.429 . S
C763 C761 1.419 . S
C763 C764 1.363 . S
C763 H766 0.929 . S
C764 C763 1.363 . S
C764 C770 1.428 . S
H765 C761 0.930 . S
H766 C763 0.929 . S
S767 N768 1.613 . S
S767 N769 1.610 . S
N768 S767 1.613 . S
N768 C771 1.350 . S
N769 S767 1.610 . S
N769 C770 1.351 . S
C770 C764 1.428 . S
C770 N769 1.351 . S
C770 C771 1.434 . S
C771 C762 1.429 . S
C771 N768 1.350 . S
C771 C770 1.434 . S
C772 C773 1.369 . S
C772 C774 1.419 . S
C772 H776 0.930 . S
C773 C772 1.369 . S
C773 C782 1.429 . S
C774 C772 1.419 . S
C774 C775 1.363 . S
C774 H777 0.929 . S
C775 C774 1.363 . S
C775 C781 1.428 . S
H776 C772 0.930 . S
H777 C774 0.929 . S
S778 N779 1.613 . S
S778 N780 1.610 . S
N779 S778 1.613 . S
N779 C782 1.350 . S
N780 S778 1.610 . S
N780 C781 1.351 . S
C781 C775 1.428 . S
C781 N780 1.351 . S
C781 C782 1.434 . S
C782 C773 1.429 . S
C782 N779 1.350 . S
C782 C781 1.434 . S
C783 C784 1.369 . S
C783 C785 1.419 . S
C783 H787 0.930 . S
C784 C783 1.369 . S
C784 C793 1.429 . S
C785 C783 1.419 . S
C785 C786 1.363 . S
C785 H788 0.929 . S
C786 C785 1.363 . S
C786 C792 1.428 . S
H787 C783 0.930 . S
H788 C785 0.929 . S
S789 N790 1.613 . S
S789 N791 1.610 . S
N790 S789 1.613 . S
N790 C793 1.350 . S
N791 S789 1.610 . S
N791 C792 1.351 . S
C792 C786 1.428 . S
C792 N791 1.351 . S
C792 C793 1.434 . S
C793 C784 1.429 . S
C793 N790 1.350 . S
C793 C792 1.434 . S
C794 C795 1.369 . S
C794 C796 1.419 . S
C794 H798 0.930 . S
C795 C794 1.369 . S
C795 C804 1.429 . S
C796 C794 1.419 . S
C796 C797 1.363 . S
C796 H799 0.929 . S
C797 C796 1.363 . S
C797 C803 1.428 . S
H798 C794 0.930 . S
H799 C796 0.929 . S
S800 N801 1.613 . S
S800 N802 1.610 1_554 S
N801 S800 1.613 . S
N801 C804 1.350 . S
N802 S800 1.610 1_556 S
N802 C803 1.351 1_556 S
C803 C797 1.428 . S
C803 N802 1.351 1_554 S
C803 C804 1.434 . S
C804 C795 1.429 . S
C804 N801 1.350 . S
C804 C803 1.434 . S
C805 C806 1.369 . S
C805 C807 1.419 . S
C805 H809 0.930 . S
C806 C805 1.369 . S
C806 C815 1.429 . S
C807 C805 1.419 . S
C807 C808 1.363 . S
C807 H810 0.929 . S
C808 C807 1.363 . S
C808 C814 1.428 . S
H809 C805 0.930 . S
H810 C807 0.929 . S
S811 N812 1.613 . S
S811 N813 1.610 . S
N812 S811 1.613 . S
N812 C815 1.350 . S
N813 S811 1.610 . S
N813 C814 1.351 . S
C814 C808 1.428 . S
C814 N813 1.351 . S
C814 C815 1.434 . S
C815 C806 1.429 . S
C815 N812 1.350 . S
C815 C814 1.434 . S
C816 C817 1.369 . S
C816 C818 1.419 . S
C816 H820 0.930 . S
C817 C816 1.369 . S
C817 C826 1.429 1_455 S
C818 C816 1.419 . S
C818 C819 1.363 . S
C818 H821 0.929 . S
C819 C818 1.363 . S
C819 C825 1.428 1_455 S
H820 C816 0.930 . S
H821 C818 0.929 . S
S822 N823 1.613 . S
S822 N824 1.610 . S
N823 S822 1.613 . S
N823 C826 1.350 . S
N824 S822 1.610 . S
N824 C825 1.351 . S
C825 C819 1.428 1_655 S
C825 N824 1.351 . S
C825 C826 1.434 . S
C826 C817 1.429 1_655 S
C826 N823 1.350 . S
C826 C825 1.434 . S
C827 C828 1.369 1_455 S
C827 C829 1.419 . S
C827 H831 0.930 . S
C828 C827 1.369 1_655 S
C828 C837 1.429 . S
C829 C827 1.419 . S
C829 C830 1.363 . S
C829 H832 0.929 . S
C830 C829 1.363 . S
C830 C836 1.428 . S
H831 C827 0.930 . S
H832 C829 0.929 . S
S833 N834 1.613 1_455 S
S833 N835 1.610 . S
N834 S833 1.613 1_655 S
N834 C837 1.350 . S
N835 S833 1.610 . S
N835 C836 1.351 . S
C836 C830 1.428 . S
C836 N835 1.351 . S
C836 C837 1.434 1_455 S
C837 C828 1.429 . S
C837 N834 1.350 . S
C837 C836 1.434 1_655 S
C838 C839 1.369 . S
C838 C840 1.419 . S
C838 H842 0.930 . S
C839 C838 1.369 . S
C839 C848 1.429 . S
C840 C838 1.419 . S
C840 C841 1.363 . S
C840 H843 0.929 . S
C841 C840 1.363 . S
C841 C847 1.428 . S
H842 C838 0.930 . S
H843 C840 0.929 . S
S844 N845 1.613 . S
S844 N846 1.610 . S
N845 S844 1.613 . S
N845 C848 1.350 . S
N846 S844 1.610 . S
N846 C847 1.351 . S
C847 C841 1.428 . S
C847 N846 1.351 . S
C847 C848 1.434 . S
C848 C839 1.429 . S
C848 N845 1.350 . S
C848 C847 1.434 . S
C849 C850 1.369 . S
C849 C851 1.419 . S
C849 H853 0.930 . S
C850 C849 1.369 . S
C850 C859 1.429 . S
C851 C849 1.419 . S
C851 C852 1.363 . S
C851 H854 0.929 . S
C852 C851 1.363 . S
C852 C858 1.428 . S
H853 C849 0.930 . S
H854 C851 0.929 . S
S855 N856 1.613 . S
S855 N857 1.610 . S
N856 S855 1.613 . S
N856 C859 1.350 . S
N857 S855 1.610 . S
N857 C858 1.351 . S
C858 C852 1.428 . S
C858 N857 1.351 . S
C858 C859 1.434 . S
C859 C850 1.429 . S
C859 N856 1.350 . S
C859 C858 1.434 . S
C860 C861 1.361 1_655 S
C860 C862 1.415 1_655 S
C860 H864 0.943 . S
C861 C860 1.361 1_455 S
C861 C870 1.429 . S
C862 C860 1.415 1_455 S
C862 C863 1.363 . S
C862 H865 0.929 1_455 S
C863 C862 1.363 . S
C863 C869 1.428 . S
H864 C860 0.943 . S
H865 C862 0.929 1_655 S
S866 N867 1.613 . S
S866 N868 1.610 . S
N867 S866 1.613 . S
N867 C870 1.350 . S
N868 S866 1.610 . S
N868 C869 1.351 . S
C869 C863 1.428 . S
C869 N868 1.351 . S
C869 C870 1.434 . S
C870 C861 1.429 . S
C870 N867 1.350 . S
C870 C869 1.434 . S
C871 C872 1.369 . S
C871 C873 1.419 . S
C871 H875 0.930 . S
C872 C871 1.369 . S
C872 C881 1.429 . S
C873 C871 1.419 . S
C873 C874 1.363 . S
C873 H876 0.929 . S
C874 C873 1.363 . S
C874 C880 1.428 . S
H875 C871 0.930 . S
H876 C873 0.929 . S
S877 N878 1.613 . S
S877 N879 1.610 . S
N878 S877 1.613 . S
N878 C881 1.350 . S
N879 S877 1.610 . S
N879 C880 1.351 . S
C880 C874 1.428 . S
C880 N879 1.351 . S
C880 C881 1.434 . S
C881 C872 1.429 . S
C881 N878 1.350 . S
C881 C880 1.434 . S
C882 C883 1.369 . S
C882 C884 1.419 . S
C882 H886 0.930 . S
C883 C882 1.369 . S
C883 C892 1.429 . S
C884 C882 1.419 . S
C884 C885 1.363 . S
C884 H887 0.929 . S
C885 C884 1.363 . S
C885 C891 1.428 . S
H886 C882 0.930 . S
H887 C884 0.929 . S
S888 N889 1.613 . S
S888 N890 1.610 . S
N889 S888 1.613 . S
N889 C892 1.350 . S
N890 S888 1.610 . S
N890 C891 1.351 . S
C891 C885 1.428 . S
C891 N890 1.351 . S
C891 C892 1.434 . S
C892 C883 1.429 . S
C892 N889 1.350 . S
C892 C891 1.434 . S
C893 C894 1.369 . S
C893 C895 1.419 . S
C893 H897 0.930 . S
C894 C893 1.369 . S
C894 C903 1.429 . S
C895 C893 1.419 . S
C895 C896 1.363 1_455 S
C895 H898 0.929 . S
C896 C895 1.363 1_655 S
C896 C902 1.428 . S
H897 C893 0.930 . S
H898 C895 0.929 . S
S899 N900 1.613 . S
S899 N901 1.610 . S
N900 S899 1.613 . S
N900 C903 1.350 1_655 S
N901 S899 1.610 . S
N901 C902 1.351 . S
C902 C896 1.428 . S
C902 N901 1.351 . S
C902 C903 1.434 1_655 S
C903 C894 1.429 . S
C903 N900 1.350 1_455 S
C903 C902 1.434 1_455 S
C904 C905 1.369 1_655 S
C904 C906 1.419 1_554 S
C904 H908 0.930 . S
C905 C904 1.369 1_455 S
C905 C914 1.429 1_565 S
C906 C904 1.419 1_556 S
C906 C907 1.363 1_655 S
C906 H909 0.929 . S
C907 C906 1.363 1_455 S
C907 C913 1.428 1_565 S
H908 C904 0.930 . S
H909 C906 0.929 . S
S910 N911 1.613 . S
S910 N912 1.610 1_554 S
N911 S910 1.613 . S
N911 C914 1.350 . S
N912 S910 1.610 1_556 S
N912 C913 1.351 . S
C913 C907 1.428 1_545 S
C913 N912 1.351 . S
C913 C914 1.434 1_556 S
C914 C905 1.429 1_545 S
C914 N911 1.350 . S
C914 C913 1.434 1_554 S
C915 C916 1.369 . S
C915 C917 1.419 . S
C915 H919 0.930 . S
C916 C915 1.369 . S
C916 C925 1.429 . S
C917 C915 1.419 . S
C917 C918 1.363 . S
C917 H920 0.929 . S
C918 C917 1.363 . S
C918 C924 1.428 . S
H919 C915 0.930 . S
H920 C917 0.929 . S
S921 N922 1.613 . S
S921 N923 1.610 . S
N922 S921 1.613 . S
N922 C925 1.350 . S
N923 S921 1.610 . S
N923 C924 1.351 . S
C924 C918 1.428 . S
C924 N923 1.351 . S
C924 C925 1.434 . S
C925 C916 1.429 . S
C925 N922 1.350 . S
C925 C924 1.434 . S
C926 C927 1.369 . S
C926 C928 1.419 . S
C926 H930 0.930 . S
C927 C926 1.369 . S
C927 C936 1.429 1_545 S
C928 C926 1.419 . S
C928 C929 1.363 1_545 S
C928 H931 0.929 . S
C929 C928 1.363 1_565 S
C929 C935 1.428 . S
H930 C926 0.930 . S
H931 C928 0.929 . S
S932 N933 1.613 . S
S932 N934 1.610 . S
N933 S932 1.613 . S
N933 C936 1.350 . S
N934 S932 1.610 . S
N934 C935 1.351 . S
C935 C929 1.428 . S
C935 N934 1.351 . S
C935 C936 1.434 . S
C936 C927 1.429 1_565 S
C936 N933 1.350 . S
C936 C935 1.434 . S
C937 C938 1.369 . S
C937 C939 1.419 . S
C937 H941 0.930 . S
C938 C937 1.369 . S
C938 C947 1.429 . S
C939 C937 1.419 . S
C939 C940 1.363 . S
C939 H942 0.929 . S
C940 C939 1.363 . S
C940 C946 1.428 . S
H941 C937 0.930 . S
H942 C939 0.929 . S
S943 N944 1.613 . S
S943 N945 1.610 . S
N944 S943 1.613 . S
N944 C947 1.350 . S
N945 S943 1.610 . S
N945 C946 1.351 . S
C946 C940 1.428 . S
C946 N945 1.351 . S
C946 C947 1.434 . S
C947 C938 1.429 . S
C947 N944 1.350 . S
C947 C946 1.434 . S
C948 C949 1.369 . S
C948 C950 1.419 . S
C948 H952 0.930 . S
C949 C948 1.369 . S
C949 C958 1.429 . S
C950 C948 1.419 . S
C950 C951 1.363 . S
C950 H953 0.929 . S
C951 C950 1.363 . S
C951 C957 1.428 . S
H952 C948 0.930 . S
H953 C950 0.929 . S
S954 N955 1.613 . S
S954 N956 1.610 . S
N955 S954 1.613 . S
N955 C958 1.350 . S
N956 S954 1.610 . S
N956 C957 1.351 . S
C957 C951 1.428 . S
C957 N956 1.351 . S
C957 C958 1.434 . S
C958 C949 1.429 . S
C958 N955 1.350 . S
C958 C957 1.434 . S
C959 C960 1.369 . S
C959 C961 1.419 . S
C959 H963 0.930 . S
C960 C959 1.369 . S
C960 C969 1.429 . S
C961 C959 1.419 . S
C961 C962 1.363 . S
C961 H964 0.929 . S
C962 C961 1.363 . S
C962 C968 1.428 . S
H963 C959 0.930 . S
H964 C961 0.929 . S
S965 N966 1.613 . S
S965 N967 1.610 . S
N966 S965 1.613 . S
N966 C969 1.350 . S
N967 S965 1.610 . S
N967 C968 1.351 . S
C968 C962 1.428 . S
C968 N967 1.351 . S
C968 C969 1.434 . S
C969 C960 1.429 . S
C969 N966 1.350 . S
C969 C968 1.434 . S
C970 C971 1.369 . S
C970 C972 1.419 . S
C970 H974 0.930 . S
C971 C970 1.369 . S
C971 C980 1.429 . S
C972 C970 1.419 . S
C972 C973 1.363 . S
C972 H975 0.929 . S
C973 C972 1.363 . S
C973 C979 1.428 . S
H974 C970 0.930 . S
H975 C972 0.929 . S
S976 N977 1.613 . S
S976 N978 1.610 . S
N977 S976 1.613 . S
N977 C980 1.350 . S
N978 S976 1.610 . S
N978 C979 1.351 . S
C979 C973 1.428 . S
C979 N978 1.351 . S
C979 C980 1.434 . S
C980 C971 1.429 . S
C980 N977 1.350 . S
C980 C979 1.434 . S
C981 C982 1.369 . S
C981 C983 1.419 1_556 S
C981 H985 0.930 . S
C982 C981 1.369 . S
C982 C991 1.429 1_455 S
C983 C981 1.419 1_554 S
C983 C984 1.363 . S
C983 H986 0.929 . S
C984 C983 1.363 . S
C984 C990 1.428 1_455 S
H985 C981 0.930 . S
H986 C983 0.929 . S
S987 N988 1.613 . S
S987 N989 1.610 1_556 S
N988 S987 1.613 . S
N988 C991 1.350 . S
N989 S987 1.610 1_554 S
N989 C990 1.351 . S
C990 C984 1.428 1_655 S
C990 N989 1.351 . S
C990 C991 1.434 1_554 S
C991 C982 1.429 1_655 S
C991 N988 1.350 . S
C991 C990 1.434 1_556 S
C992 C993 1.369 . S
C992 C994 1.419 . S
C992 H996 0.930 . S
C993 C992 1.369 . S
C993 C1002 1.429 . S
C994 C992 1.419 . S
C994 C995 1.363 . S
C994 H997 0.929 . S
C995 C994 1.363 . S
C995 C1001 1.428 . S
H996 C992 0.930 . S
H997 C994 0.929 . S
S998 N999 1.613 . S
S998 N1000 1.610 . S
N999 S998 1.613 . S
N999 C1002 1.350 . S
N1000 S998 1.610 . S
N1000 C1001 1.351 . S
C1001 C995 1.428 . S
C1001 N1000 1.351 . S
C1001 C1002 1.434 . S
C1002 C993 1.429 . S
C1002 N999 1.350 . S
C1002 C1001 1.434 . S
C1003 C1004 1.369 . S
C1003 C1005 1.419 . S
C1003 H1007 0.930 . S
C1004 C1003 1.369 . S
C1004 C1013 1.429 . S
C1005 C1003 1.419 . S
C1005 C1006 1.363 . S
C1005 H1008 0.929 . S
C1006 C1005 1.363 . S
C1006 C1012 1.428 . S
H1007 C1003 0.930 . S
H1008 C1005 0.929 . S
S1009 N1010 1.613 . S
S1009 N1011 1.610 . S
N1010 S1009 1.613 . S
N1010 C1013 1.350 . S
N1011 S1009 1.610 . S
N1011 C1012 1.351 . S
C1012 C1006 1.428 . S
C1012 N1011 1.351 . S
C1012 C1013 1.434 . S
C1013 C1004 1.429 . S
C1013 N1010 1.350 . S
C1013 C1012 1.434 . S
C1014 C1015 1.369 1_556 S
C1014 C1016 1.419 . S
C1014 H1018 0.930 . S
C1015 C1014 1.369 1_554 S
C1015 C1024 1.429 . S
C1016 C1014 1.419 . S
C1016 C1017 1.363 . S
C1016 H1019 0.929 . S
C1017 C1016 1.363 . S
C1017 C1023 1.428 . S
H1018 C1014 0.930 . S
H1019 C1016 0.929 . S
S1020 N1021 1.613 . S
S1020 N1022 1.610 1_554 S
N1021 S1020 1.613 . S
N1021 C1024 1.350 . S
N1022 S1020 1.610 1_556 S
N1022 C1023 1.351 . S
C1023 C1017 1.428 . S
C1023 N1022 1.351 . S
C1023 C1024 1.434 1_556 S
C1024 C1015 1.429 . S
C1024 N1021 1.350 . S
C1024 C1023 1.434 1_554 S
C1025 C1026 1.369 . S
C1025 C1027 1.419 . S
C1025 H1029 0.930 . S
C1026 C1025 1.369 . S
C1026 C1035 1.429 . S
C1027 C1025 1.419 . S
C1027 C1028 1.363 . S
C1027 H1030 0.929 . S
C1028 C1027 1.363 . S
C1028 C1034 1.428 . S
H1029 C1025 0.930 . S
H1030 C1027 0.929 . S
S1031 N1032 1.613 . S
S1031 N1033 1.610 . S
N1032 S1031 1.613 . S
N1032 C1035 1.350 . S
N1033 S1031 1.610 . S
N1033 C1034 1.351 . S
C1034 C1028 1.428 . S
C1034 N1033 1.351 . S
C1034 C1035 1.434 . S
C1035 C1026 1.429 . S
C1035 N1032 1.350 . S
C1035 C1034 1.434 . S
C1036 C1037 1.369 . S
C1036 C1038 1.419 . S
C1036 H1040 0.930 . S
C1037 C1036 1.369 . S
C1037 C1046 1.429 . S
C1038 C1036 1.419 . S
C1038 C1039 1.363 . S
C1038 H1041 0.929 . S
C1039 C1038 1.363 . S
C1039 C1045 1.428 . S
H1040 C1036 0.930 . S
H1041 C1038 0.929 . S
S1042 N1043 1.613 . S
S1042 N1044 1.610 . S
N1043 S1042 1.613 . S
N1043 C1046 1.350 . S
N1044 S1042 1.610 . S
N1044 C1045 1.351 . S
C1045 C1039 1.428 . S
C1045 N1044 1.351 . S
C1045 C1046 1.434 . S
C1046 C1037 1.429 . S
C1046 N1043 1.350 . S
C1046 C1045 1.434 . S
C1047 C1048 1.369 . S
C1047 C1049 1.419 . S
C1047 H1051 0.930 . S
C1048 C1047 1.369 . S
C1048 C1057 1.429 . S
C1049 C1047 1.419 . S
C1049 C1050 1.363 . S
C1049 H1052 0.929 . S
C1050 C1049 1.363 . S
C1050 C1056 1.428 . S
H1051 C1047 0.930 . S
H1052 C1049 0.929 . S
S1053 N1054 1.613 . S
S1053 N1055 1.610 . S
N1054 S1053 1.613 . S
N1054 C1057 1.350 . S
N1055 S1053 1.610 . S
N1055 C1056 1.351 . S
C1056 C1050 1.428 . S
C1056 N1055 1.351 . S
C1056 C1057 1.434 . S
C1057 C1048 1.429 . S
C1057 N1054 1.350 . S
C1057 C1056 1.434 . S
C1058 C1059 1.369 . S
C1058 C1060 1.419 . S
C1058 H1062 0.930 . S
C1059 C1058 1.369 . S
C1059 C1068 1.429 . S
C1060 C1058 1.419 . S
C1060 C1061 1.363 . S
C1060 H1063 0.929 . S
C1061 C1060 1.363 . S
C1061 C1067 1.428 . S
H1062 C1058 0.930 . S
H1063 C1060 0.929 . S
S1064 N1065 1.613 . S
S1064 N1066 1.610 . S
N1065 S1064 1.613 . S
N1065 C1068 1.350 . S
N1066 S1064 1.610 . S
N1066 C1067 1.351 . S
C1067 C1061 1.428 . S
C1067 N1066 1.351 . S
C1067 C1068 1.434 . S
C1068 C1059 1.429 . S
C1068 N1065 1.350 . S
C1068 C1067 1.434 . S
C1069 C1070 1.369 . S
C1069 C1071 1.419 . S
C1069 H1073 0.930 . S
C1070 C1069 1.369 . S
C1070 C1079 1.429 . S
C1071 C1069 1.419 . S
C1071 C1072 1.363 . S
C1071 H1074 0.929 . S
C1072 C1071 1.363 . S
C1072 C1078 1.428 . S
H1073 C1069 0.930 . S
H1074 C1071 0.929 . S
S1075 N1076 1.613 . S
S1075 N1077 1.610 . S
N1076 S1075 1.613 . S
N1076 C1079 1.350 . S
N1077 S1075 1.610 . S
N1077 C1078 1.351 . S
C1078 C1072 1.428 . S
C1078 N1077 1.351 . S
C1078 C1079 1.434 . S
C1079 C1070 1.429 . S
C1079 N1076 1.350 . S
C1079 C1078 1.434 . S
C1080 C1081 1.369 . S
C1080 C1082 1.419 . S
C1080 H1084 0.930 . S
C1081 C1080 1.369 . S
C1081 C1090 1.429 . S
C1082 C1080 1.419 . S
C1082 C1083 1.363 . S
C1082 H1085 0.929 . S
C1083 C1082 1.363 . S
C1083 C1089 1.428 . S
H1084 C1080 0.930 . S
H1085 C1082 0.929 . S
S1086 N1087 1.613 . S
S1086 N1088 1.610 . S
N1087 S1086 1.613 . S
N1087 C1090 1.350 . S
N1088 S1086 1.610 . S
N1088 C1089 1.351 . S
C1089 C1083 1.428 . S
C1089 N1088 1.351 . S
C1089 C1090 1.434 . S
C1090 C1081 1.429 . S
C1090 N1087 1.350 . S
C1090 C1089 1.434 . S
C1091 C1092 1.369 . S
C1091 C1093 1.419 . S
C1091 H1095 0.930 . S
C1092 C1091 1.369 . S
C1092 C1101 1.429 . S
C1093 C1091 1.419 . S
C1093 C1094 1.363 . S
C1093 H1096 0.929 . S
C1094 C1093 1.363 . S
C1094 C1100 1.428 . S
H1095 C1091 0.930 . S
H1096 C1093 0.929 . S
S1097 N1098 1.613 . S
S1097 N1099 1.610 . S
N1098 S1097 1.613 . S
N1098 C1101 1.350 . S
N1099 S1097 1.610 . S
N1099 C1100 1.351 . S
C1100 C1094 1.428 . S
C1100 N1099 1.351 . S
C1100 C1101 1.434 . S
C1101 C1092 1.429 . S
C1101 N1098 1.350 . S
C1101 C1100 1.434 . S
C1102 C1103 1.369 . S
C1102 C1104 1.419 . S
C1102 H1106 0.930 . S
C1103 C1102 1.369 . S
C1103 C1112 1.429 . S
C1104 C1102 1.419 . S
C1104 C1105 1.363 . S
C1104 H1107 0.929 . S
C1105 C1104 1.363 . S
C1105 C1111 1.428 . S
H1106 C1102 0.930 . S
H1107 C1104 0.929 . S
S1108 N1109 1.613 . S
S1108 N1110 1.610 . S
N1109 S1108 1.613 . S
N1109 C1112 1.350 . S
N1110 S1108 1.610 . S
N1110 C1111 1.351 . S
C1111 C1105 1.428 . S
C1111 N1110 1.351 . S
C1111 C1112 1.434 . S
C1112 C1103 1.429 . S
C1112 N1109 1.350 . S
C1112 C1111 1.434 . S
C1113 C1114 1.369 . S
C1113 C1115 1.419 . S
C1113 H1117 0.930 . S
C1114 C1113 1.369 . S
C1114 C1123 1.429 . S
C1115 C1113 1.419 . S
C1115 C1116 1.363 . S
C1115 H1118 0.929 . S
C1116 C1115 1.363 . S
C1116 C1122 1.428 . S
H1117 C1113 0.930 . S
H1118 C1115 0.929 . S
S1119 N1120 1.613 . S
S1119 N1121 1.610 . S
N1120 S1119 1.613 . S
N1120 C1123 1.350 . S
N1121 S1119 1.610 . S
N1121 C1122 1.351 . S
C1122 C1116 1.428 . S
C1122 N1121 1.351 . S
C1122 C1123 1.434 . S
C1123 C1114 1.429 . S
C1123 N1120 1.350 . S
C1123 C1122 1.434 . S
C1124 C1125 1.369 . S
C1124 C1126 1.419 1_554 S
C1124 H1128 0.930 . S
C1125 C1124 1.369 . S
C1125 C1134 1.429 . S
C1126 C1124 1.419 1_556 S
C1126 C1127 1.363 . S
C1126 H1129 0.929 . S
C1127 C1126 1.363 . S
C1127 C1133 1.428 1_556 S
H1128 C1124 0.930 . S
H1129 C1126 0.929 . S
S1130 N1131 1.613 . S
S1130 N1132 1.610 . S
N1131 S1130 1.613 . S
N1131 C1134 1.350 . S
N1132 S1130 1.610 . S
N1132 C1133 1.351 . S
C1133 C1127 1.428 1_554 S
C1133 N1132 1.351 . S
C1133 C1134 1.434 . S
C1134 C1125 1.429 . S
C1134 N1131 1.350 . S
C1134 C1133 1.434 . S
C1135 C1136 1.369 . S
C1135 C1137 1.419 . S
C1135 H1139 0.930 . S
C1136 C1135 1.369 . S
C1136 C1145 1.429 . S
C1137 C1135 1.419 . S
C1137 C1138 1.363 . S
C1137 H1140 0.929 . S
C1138 C1137 1.363 . S
C1138 C1144 1.428 . S
H1139 C1135 0.930 . S
H1140 C1137 0.929 . S
S1141 N1142 1.613 . S
S1141 N1143 1.610 . S
N1142 S1141 1.613 . S
N1142 C1145 1.350 . S
N1143 S1141 1.610 . S
N1143 C1144 1.351 . S
C1144 C1138 1.428 . S
C1144 N1143 1.351 . S
C1144 C1145 1.434 . S
C1145 C1136 1.429 . S
C1145 N1142 1.350 . S
C1145 C1144 1.434 . S
C1146 C1147 1.369 . S
C1146 C1148 1.419 . S
C1146 H1150 0.930 . S
C1147 C1146 1.369 . S
C1147 C1156 1.429 . S
C1148 C1146 1.419 . S
C1148 C1149 1.363 . S
C1148 H1151 0.929 . S
C1149 C1148 1.363 . S
C1149 C1155 1.428 . S
H1150 C1146 0.930 . S
H1151 C1148 0.929 . S
S1152 N1153 1.613 . S
S1152 N1154 1.610 . S
N1153 S1152 1.613 . S
N1153 C1156 1.350 . S
N1154 S1152 1.610 . S
N1154 C1155 1.351 . S
C1155 C1149 1.428 . S
C1155 N1154 1.351 . S
C1155 C1156 1.434 . S
C1156 C1147 1.429 . S
C1156 N1153 1.350 . S
C1156 C1155 1.434 . S
C1157 C1158 1.369 . S
C1157 C1159 1.419 . S
C1157 H1161 0.930 . S
C1158 C1157 1.369 . S
C1158 C1167 1.429 . S
C1159 C1157 1.419 . S
C1159 C1160 1.363 . S
C1159 H1162 0.929 . S
C1160 C1159 1.363 . S
C1160 C1166 1.428 . S
H1161 C1157 0.930 . S
H1162 C1159 0.929 . S
S1163 N1164 1.613 . S
S1163 N1165 1.610 . S
N1164 S1163 1.613 . S
N1164 C1167 1.350 . S
N1165 S1163 1.610 . S
N1165 C1166 1.351 . S
C1166 C1160 1.428 . S
C1166 N1165 1.351 . S
C1166 C1167 1.434 . S
C1167 C1158 1.429 . S
C1167 N1164 1.350 . S
C1167 C1166 1.434 . S
C641 C6 1.166 . S
C643 C286 1.334 . S
C652 C59 1.160 . S
C654 C166 1.116 . S
C663 C206 0.786 . S
C665 C99 0.433 . S
C674 C139 1.072 . S
C676 C246 1.027 . S
C685 C455 1.020 . S
C687 C170 1.062 . S
C696 C330 2.888 . S
C698 C10 2.799 1_556 S
C707 C415 1.089 . S
C709 C250 1.131 . S
C718 C95 2.037 . S
C720 C370 2.022 . S
C729 C366 1.346 . S
C731 C486 1.152 . S
C740 C419 1.170 . S
C742 C566 1.108 . S
C751 C539 0.441 . S
C753 C326 0.775 . S
C762 C459 1.066 . S
C764 C606 1.036 . S
C773 C570 1.063 . S
C775 C135 1.029 . S
C784 C490 2.794 . S
C786 C210 2.889 . S
C795 C55 1.085 . S
C797 C610 1.133 1_554 S
C806 C290 2.024 . S
C808 C535 2.041 . S
C817 C538 0.921 . S
C819 C9 0.922 . S
C828 C458 0.752 . S
C830 C58 0.771 . S
C839 C489 0.929 . S
C841 C98 0.929 . S
C850 C418 0.768 . S
C852 C138 0.753 . S
C861 C169 0.738 . S
C863 C609 0.752 . S
C872 C369 1.330 . S
C874 C209 1.624 . S
C883 C249 0.746 . S
C885 C569 0.756 . S
C894 C289 1.345 . S
C896 C329 1.621 . S
C905 C18 1.929 1_465 S
C907 C178 1.903 . S
C916 C49 1.763 . S
C918 C218 1.795 . S
C927 C258 1.964 . S
C929 C89 1.964 . S
C938 C129 2.187 . S
C940 C298 2.139 . S
C949 C409 1.766 . S
C951 C338 1.795 . S
C960 C449 2.183 . S
C962 C378 2.143 . S
C971 C498 1.935 . S
C973 C578 1.894 . S
C982 C618 1.957 . S
C984 C529 1.966 . S
C993 C19 3.685 . S
C995 C299 3.710 . S
C1004 C46 2.077 . S
C1006 C179 2.205 . S
C1015 C219 2.962 . S
C1017 C86 2.883 . S
C1026 C259 2.176 . S
C1028 C126 2.046 . S
C1037 C450 2.158 . S
C1039 C175 2.040 . S
C1048 C335 0.824 . S
C1050 C15 0.806 . S
C1059 C410 2.165 1_554 S
C1061 C255 2.047 . S
C1070 C90 1.149 . S
C1072 C375 1.073 . S
C1081 C499 3.687 . S
C1083 C379 3.710 1_556 S
C1092 C579 2.204 . S
C1094 C406 2.083 . S
C1103 C526 2.882 . S
C1105 C339 2.963 . S
C1114 C619 2.178 . S
C1116 C446 2.043 . S
C1125 C575 2.033 . S
C1127 C130 2.159 . S
C1136 C215 0.805 . S
C1138 C495 0.824 . S
C1147 C50 2.167 . S
C1149 C615 2.040 . S
C1158 C530 1.150 . S
C1160 C295 1.071 . S
