# Generated by pormake.
# Topology sma, (6)-cn, num edge types: 1
# Building blocks:
#     Node 0, Type 0, BuildingBlock: GEDQOX_clean_sbu_0, # of connection points: 6
#     Node 1, Type 0, BuildingBlock: GEDQOX_clean_sbu_0, # of connection points: 6
#     Node 2, Type 0, BuildingBlock: GEDQOX_clean_sbu_0, # of connection points: 6
#     Edge 3, Type (0, 0), BuildingBlock: XUDNAN_clean_linker_2, # of connection points: 2
#     Edge 4, Type (0, 0), BuildingBlock: XUDNAN_clean_linker_2, # of connection points: 2
#     Edge 5, Type (0, 0), BuildingBlock: XUDNAN_clean_linker_2, # of connection points: 2
#     Edge 6, Type (0, 0), BuildingBlock: XUDNAN_clean_linker_2, # of connection points: 2
#     Edge 7, Type (0, 0), BuildingBlock: XUDNAN_clean_linker_2, # of connection points: 2
#     Edge 8, Type (0, 0), BuildingBlock: XUDNAN_clean_linker_2, # of connection points: 2
#     Edge 9, Type (0, 0), BuildingBlock: XUDNAN_clean_linker_2, # of connection points: 2
#     Edge 10, Type (0, 0), BuildingBlock: XUDNAN_clean_linker_2, # of connection points: 2
#     Edge 11, Type (0, 0), BuildingBlock: XUDNAN_clean_linker_2, # of connection points: 2
# Relax obj value: 0.127
# Max RMSD: 0.260
# Mean RMSD: 0.205
data_MOF--net-sma--node1-GEDQOX_clean_sbu_0--edge1-XUDNAN_clean_linker_2
_symmetry_space_group_name_H-M    P1
_symmetry_Int_Tables_number       1
_symmetry_cell_setting            triclinic
loop_
_symmetry_equiv_pos_as_xyz
'x, y, z'
_cell_length_a     40.282897
_cell_length_b     30.665235
_cell_length_c     14.182443
_cell_angle_alpha  96.433308
_cell_angle_beta   90.981324
_cell_angle_gamma 98.673806
loop_
_atom_site_label
_atom_site_type_symbol
_atom_site_fract_x
_atom_site_fract_y
_atom_site_fract_z
_atom_type_partial_charge
Nd0 Nd 0.05458 0.62046 0.03626 0.0
Nd1 Nd 0.04579 0.52082 0.05973 0.0
C2 C 0.07713 0.70239 0.00184 0.0
C3 C 0.10669 0.73512 0.03955 0.0
C4 C 0.13026 0.75305 -0.0229 0.0
C5 C 0.15887 0.78276 0.01183 0.0
C6 C 0.16457 0.79557 0.11011 0.0
C7 C 0.14091 0.77741 0.17253 0.0
C8 C 0.11242 0.74748 0.13779 0.0
C9 C 0.05518 0.59971 0.21927 0.0
C10 C 0.12147 0.56758 0.03154 0.0
C11 C 1.02695 0.44391 0.12628 0.0
C12 C 0.99602 0.41389 0.14646 0.0
C13 C 0.97366 0.42643 0.21608 0.0
C14 C 0.94605 0.39599 0.23838 0.0
C15 C 0.94029 0.35236 0.19182 0.0
C16 C 0.96207 0.3406 0.11995 0.0
C17 C 0.9896 0.37087 0.09796 0.0
C18 C 0.05313 0.53817 0.87796 0.0
C19 C 0.97867 0.57028 0.02905 0.0
O20 O 0.08353 0.66735 0.94778 0.0
O21 O 0.05318 0.69279 0.06083 0.0
O22 O 1.04035 0.63142 0.19409 0.0
O23 O 0.06919 0.58184 0.15056 0.0
O24 O 0.1078 0.60252 0.01347 0.0
O25 O 0.10362 0.53209 0.06111 0.0
O26 O 1.03478 0.48166 0.1809 0.0
O27 O 1.03327 0.44733 0.03691 0.0
O28 O 0.06379 0.50484 0.91156 0.0
O29 O 1.03592 0.55866 0.93679 0.0
O30 O 0.99179 0.53848 0.06554 0.0
O31 O 0.99805 0.60433 -0.00118 0.0
H32 H 0.12669 0.74375 0.90121 0.0
H33 H 0.17674 0.79525 -0.03859 0.0
H34 H 0.14408 0.78676 0.24843 0.0
H35 H 0.09494 0.734 0.18816 0.0
H36 H 0.97783 0.4594 0.25477 0.0
H37 H 0.92995 0.40616 0.29441 0.0
H38 H 0.9581 0.30765 0.08117 0.0
H39 H 1.00631 0.36029 0.04387 0.0
Nd40 Nd 0.51212 0.07068 0.5743 0.0
Nd41 Nd 0.58693 0.07018 0.53322 0.0
C42 C 0.44792 1.0535 0.6157 0.0
C43 C 0.41914 1.02722 0.55871 0.0
C44 C 0.38865 1.0131 0.60054 0.0
C45 C 0.36122 0.98946 0.54453 0.0
C46 C 0.36382 0.97997 0.44567 0.0
C47 C 0.39474 0.99329 0.40478 0.0
C48 C 0.42209 1.01642 0.46067 0.0
C49 C 0.52763 0.07344 0.38879 0.0
C50 C 0.54325 0.97576 0.55747 0.0
C51 C 0.64689 0.08174 0.45699 0.0
C52 C 0.67742 0.11383 0.4427 0.0
C53 C 0.67774 0.14484 0.37642 0.0
C54 C 0.70806 0.17021 0.35442 0.0
C55 C 0.73867 0.16473 0.39744 0.0
C56 C 0.73798 0.13515 0.46663 0.0
C57 C 0.70782 0.10998 0.48868 0.0
C58 C 0.57209 0.07079 0.72106 0.0
C59 C 0.55842 0.16647 0.5881 0.0
O60 O 0.47064 1.03118 0.64432 0.0
O61 O 0.46129 0.09 0.58253 0.0
O62 O 0.50482 0.09342 0.42949 0.0
O63 O 0.53968 1.04967 0.44331 0.0
O64 O 0.51981 0.99887 0.58943 0.0
O65 O 0.57081 0.99453 0.51983 0.0
O66 O 0.61892 0.08428 0.41086 0.0
O67 O 0.64198 0.0701 0.54224 0.0
O68 O 0.59517 1.04996 0.68257 0.0
O69 O 0.55963 0.09229 0.66276 0.0
O70 O 0.5814 0.14525 0.5449 0.0
O71 O 0.53107 0.14447 0.62139 0.0
H72 H 0.38591 1.02084 0.67615 0.0
H73 H 0.33772 0.97976 0.57806 0.0
H74 H 0.39777 0.98591 0.3292 0.0
H75 H 0.44553 1.02642 0.42699 0.0
H76 H 0.65481 0.14844 0.33909 0.0
H77 H 0.70772 0.19252 0.30048 0.0
H78 H 0.761 0.13058 0.50222 0.0
H79 H 0.7085 0.08624 0.53954 0.0
Nd80 Nd 0.50697 0.56231 0.70983 0.0
Nd81 Nd 0.58087 0.59756 0.77043 0.0
C82 C 0.44261 0.54409 0.65346 0.0
C83 C 0.40979 0.54976 0.69673 0.0
C84 C 0.39833 0.59109 0.70522 0.0
C85 C 0.36804 0.59643 0.749 0.0
C86 C 0.34827 0.56065 0.78573 0.0
C87 C 0.35929 0.519 0.77482 0.0
C88 C 0.38959 0.51363 0.73077 0.0
C89 C 0.52117 0.57648 0.902 0.0
C90 C 0.53485 0.66951 0.71871 0.0
C91 C 0.63923 0.61923 0.86702 0.0
C92 C 0.67259 0.60652 0.88336 0.0
C93 C 0.69765 0.63781 0.93292 0.0
C94 C 0.72993 0.62766 0.9476 0.0
C95 C 0.73793 0.58582 0.91305 0.0
C96 C 0.71262 0.55441 0.86322 0.0
C97 C 0.68026 0.56471 0.84828 0.0
C98 C 0.56901 0.59434 0.58108 0.0
C99 C 0.5568 0.48929 0.70937 0.0
O100 O 0.45909 0.51529 0.68697 0.0
O101 O 0.46254 0.57983 0.6356 0.0
O102 O 0.50051 0.54298 0.86224 0.0
O103 O 0.53234 0.60135 0.84208 0.0
O104 O 0.5133 0.63522 0.67912 0.0
O105 O 0.56062 0.6641 0.77313 0.0
O106 O 0.6129 0.59541 0.89883 0.0
O107 O 0.63344 0.6321 0.78434 0.0
O108 O 0.59254 0.62205 0.62867 0.0
O109 O 0.55534 0.56501 0.63043 0.0
O110 O 0.57889 0.52084 0.75732 0.0
O111 O 0.52896 0.49837 0.67049 0.0
H112 H 0.41287 0.61957 0.67877 0.0
H113 H 0.36011 0.62879 0.75398 0.0
H114 H 0.34496 0.49073 0.80249 0.0
H115 H 0.39746 0.48121 0.72457 0.0
H116 H 0.69224 0.67032 -0.03963 0.0
H117 H 0.74849 0.65242 -0.01257 0.0
H118 H 0.71793 0.52202 0.8347 0.0
H119 H 0.66134 0.54021 0.80906 0.0
H120 H 0.15539 0.50547 0.93514 0.0
H121 H 0.16948 0.63692 0.09215 0.0
H122 H 0.22951 0.64733 0.05388 0.0
H123 H 0.23924 0.47673 -0.00919 0.0
H124 H 0.24316 0.44958 0.87295 0.0
H125 H 0.20221 0.45008 0.92193 0.0
H126 H 0.18303 0.48521 0.77646 0.0
H127 H 0.22395 0.48508 0.72736 0.0
H128 H 0.20674 0.53619 0.7465 0.0
H129 H 0.28688 0.64566 -0.00804 0.0
H130 H 0.33819 0.63269 0.90858 0.0
H131 H 0.28737 0.50381 0.78214 0.0
C132 C 0.17147 0.53578 -0.03628 0.0
C133 C 0.15807 0.57006 0.01852 0.0
C134 C 0.17944 0.61007 0.05138 0.0
C135 C 0.21354 0.61628 0.02988 0.0
C136 C 0.22595 0.58237 -0.02581 0.0
C137 C 0.20566 0.54288 0.9413 0.0
C138 C 0.22492 0.51344 0.87638 0.0
C139 C 0.22754 0.46987 0.91803 0.0
C140 C 0.20869 0.50446 0.77572 0.0
C141 C 0.25904 0.54265 0.87777 0.0
C142 C 0.25901 0.58209 0.93524 0.0
C143 C 0.28721 0.61488 0.94672 0.0
C144 C 0.31622 0.60732 0.89816 0.0
C145 C 0.31702 0.56738 0.83775 0.0
C146 C 0.28789 0.53454 0.82826 0.0
H147 H 0.75702 0.2521 0.36058 0.0
H148 H 0.79463 0.12665 0.36035 0.0
H149 H 0.84944 0.16119 0.30874 0.0
H150 H 0.8003 0.28619 0.15252 0.0
H151 H 0.80948 0.34401 0.19917 0.0
H152 H 0.77281 0.30971 0.23622 0.0
H153 H 0.79297 0.33107 0.41197 0.0
H154 H 0.82974 0.36536 0.37543 0.0
H155 H 0.83423 0.32204 0.44858 0.0
H156 H 0.90004 0.20825 0.25795 0.0
H157 H 0.94411 0.26561 0.21112 0.0
H158 H 0.87498 0.36179 0.24099 0.0
C159 C 0.77678 0.23194 0.34926 0.0
C160 C 0.77153 0.18666 0.36555 0.0
C161 C 0.79813 0.16151 0.35023 0.0
C162 C 0.82935 0.18077 0.32028 0.0
C163 C 0.83381 0.22538 0.30576 0.0
C164 C 0.80838 0.2508 0.31968 0.0
C165 C 0.82026 0.29823 0.2995 0.0
C166 C 0.79948 0.31022 0.21693 0.0
C167 C 0.81924 0.33111 0.38922 0.0
C168 C 0.85623 0.29526 0.27178 0.0
C169 C 0.86335 0.25284 0.27591 0.0
C170 C 0.89473 0.24156 0.25391 0.0
C171 C 0.91957 0.27441 0.22666 0.0
C172 C 0.91308 0.31827 0.22117 0.0
C173 C 0.88088 0.32872 0.24471 0.0
H174 H 0.58882 0.92271 0.60998 0.0
H175 H 0.48404 0.9207 0.53107 0.0
H176 H 0.47108 0.84286 0.56424 0.0
H177 H 0.59386 0.80657 0.51804 0.0
H178 H 0.62036 0.79815 0.616 0.0
H179 H 0.62218 0.85272 0.57872 0.0
H180 H 0.60983 0.8838 0.7498 0.0
H181 H 0.60751 0.82922 0.78726 0.0
H182 H 0.57269 0.85952 0.80536 0.0
H183 H 0.46856 0.76671 0.60943 0.0
H184 H 0.47672 0.69516 0.6621 0.0
H185 H 0.58263 0.74507 0.72036 0.0
C186 C 0.56337 0.90539 0.59764 0.0
C187 C 0.53746 0.92752 0.5666 0.0
C188 C 0.50426 0.90428 0.55409 0.0
C189 C 0.49663 0.86008 0.57292 0.0
C190 C 0.52241 0.83947 0.60549 0.0
C191 C 0.55514 0.86113 0.61776 0.0
C192 C 0.57759 0.83145 0.65801 0.0
C193 C 0.60513 0.82165 0.58853 0.0
C194 C 0.5928 0.85225 0.75592 0.0
C195 C 0.55233 0.78992 0.66618 0.0
C196 C 0.52072 0.79546 0.63499 0.0
C197 C 0.49319 0.76195 0.63407 0.0
C198 C 0.4981 0.72138 0.66435 0.0
C199 C 0.53024 0.71446 0.6961 0.0
C200 C 0.55766 0.74952 0.6979 0.0
H201 H 0.79941 0.6394 0.9058 0.0
H202 H 0.75436 0.50754 -0.03762 0.0
H203 H 0.8107 0.48977 -0.00261 0.0
H204 H 0.8733 0.60708 0.79357 0.0
H205 H 0.90092 0.65608 0.84501 0.0
H206 H 0.85707 0.6584 0.82307 0.0
H207 H 0.85153 0.68771 -0.0003 0.0
H208 H 0.89534 0.68537 0.02224 0.0
H209 H 0.86386 0.65635 0.09104 0.0
H210 H 0.87155 0.48695 0.03175 0.0
H211 H 0.933 0.49758 0.05535 0.0
H212 H 0.93962 0.63117 -0.02495 0.0
C213 C 0.80134 0.60682 0.92587 0.0
C214 C 0.77225 0.57484 0.93112 0.0
C215 C 0.77612 0.53243 -0.04348 0.0
C216 C 0.80806 0.52211 -0.02277 0.0
C217 C 0.83607 0.55445 -0.02798 0.0
C218 C 0.83311 0.59587 0.94643 0.0
C219 C 0.86736 0.6245 0.94593 0.0
C220 C 0.87511 0.63725 0.84593 0.0
C221 C 0.86965 0.66593 0.01909 0.0
C222 C 0.89005 0.59271 -0.02462 0.0
C223 C 0.87137 0.5526 -0.00945 0.0
C224 C 0.88643 0.51816 0.01971 0.0
C225 C 0.92148 0.52465 0.03319 0.0
C226 C 0.9414 0.56524 0.01702 0.0
C227 C 0.92526 0.59971 -0.01224 0.0
H228 H 0.31831 0.90557 0.47261 0.0
H229 H 0.34249 1.00486 0.27903 0.0
H230 H 0.29451 0.96877 0.1735 0.0
H231 H 0.2939 0.81321 0.29146 0.0
H232 H 0.26028 0.78689 0.35758 0.0
H233 H 0.29618 0.8209 0.41944 0.0
H234 H 0.25691 0.8692 0.51043 0.0
H235 H 0.2209 0.83532 0.44885 0.0
H236 H 0.22776 0.89452 0.4447 0.0
H237 H 0.24374 0.92269 0.08934 0.0
H238 H 0.19408 0.86888 0.03039 0.0
H239 H 0.20341 0.79705 0.2744 0.0
C240 C 0.3133 0.91984 0.40836 0.0
C241 C 0.33425 0.95805 0.38402 0.0
C242 C 0.32707 0.97539 0.29869 0.0
C243 C 0.29976 0.95523 0.23845 0.0
C244 C 0.27979 0.91751 0.26399 0.0
C245 C 0.28622 0.89981 0.34667 0.0
C246 C 0.26112 0.85839 0.35604 0.0
C247 C 0.27894 0.81743 0.35611 0.0
C248 C 0.24045 0.86476 0.44531 0.0
C249 C 0.23952 0.85584 0.26614 0.0
C250 C 0.25075 0.89034 0.21428 0.0
C251 C 0.23484 0.89534 0.12903 0.0
C252 C 0.20673 0.86427 0.09569 0.0
C253 C 0.1947 0.82826 0.14695 0.0
C254 C 0.21154 0.82427 0.23357 0.0
H255 H 0.51157 0.41234 0.67622 0.0
H256 H 0.61836 0.46149 0.71053 0.0
H257 H 0.63044 0.38443 0.68142 0.0
H258 H 0.51423 0.31495 0.79727 0.0
H259 H 0.48225 0.28047 0.72042 0.0
H260 H 0.48216 0.33948 0.74156 0.0
H261 H 0.48303 0.34434 0.5604 0.0
H262 H 0.48322 0.28537 0.5387 0.0
H263 H 0.51578 0.32331 0.49228 0.0
H264 H 0.6308 0.3019 0.63997 0.0
H265 H 0.61943 0.22008 0.60585 0.0
H266 H 0.51229 0.22413 0.611 0.0
C267 C 0.53751 0.40689 0.67739 0.0
C268 C 0.56407 0.44299 0.69484 0.0
C269 C 0.59763 0.43439 0.6973 0.0
C270 C 0.60473 0.39073 0.68051 0.0
C271 C 0.57797 0.35591 0.663 0.0
C272 C 0.54501 0.36346 0.66278 0.0
C273 C 0.52081 0.32013 0.64551 0.0
C274 C 0.49856 0.31337 0.73131 0.0
C275 C 0.49946 0.31819 0.55376 0.0
C276 C 0.54529 0.28698 0.63506 0.0
C277 C 0.57815 0.30835 0.64426 0.0
C278 C 0.60517 0.28485 0.63363 0.0
C279 C 0.59846 0.23837 0.61386 0.0
C280 C 0.565 0.21568 0.60644 0.0
C281 C 0.53814 0.24049 0.61742 0.0
H282 H 1.022 0.59112 0.7712 0.0
H283 H 0.10158 0.50998 0.76989 0.0
H284 H 0.11297 0.52225 0.60466 0.0
H285 H 0.98996 0.5517 0.54131 0.0
H286 H 0.98078 0.60411 0.51005 0.0
H287 H 0.98093 0.59376 0.63249 0.0
H288 H 1.02479 0.66448 0.67617 0.0
H289 H 1.0246 0.67527 0.5538 0.0
H290 H 0.06357 0.67111 0.61402 0.0
H291 H 0.11211 0.53527 0.43918 0.0
H292 H 0.10112 0.55223 0.27761 0.0
H293 H 1.02275 0.62664 0.38008 0.0
C294 C 1.04217 0.57675 0.73621 0.0
C295 C 0.06084 0.54947 0.78241 0.0
C296 C 0.08683 0.53068 0.73501 0.0
C297 C 0.09363 0.53762 0.64145 0.0
C298 C 0.07428 0.56358 0.59665 0.0
C299 C 0.04926 0.58323 0.64201 0.0
C300 C 1.03105 0.60734 0.57444 0.0
C301 C 0.99346 0.58806 0.56398 0.0
C302 C 1.03633 0.65754 0.60653 0.0
C303 C 0.04916 0.59685 0.48376 0.0
C304 C 0.07411 0.57181 0.49907 0.0
C305 C 0.09307 0.55549 0.4262 0.0
C306 C 0.08648 0.56511 0.33469 0.0
C307 C 0.06125 0.59094 0.317 0.0
C308 C 1.04245 0.60729 0.3924 0.0
H309 H 0.55978 1.0219 0.25954 0.0
H310 H 0.52365 0.14852 0.31172 0.0
H311 H 0.53814 0.16484 0.15076 0.0
H312 H 0.62915 1.0605 0.09619 0.0
H313 H 0.62178 1.00851 0.02031 0.0
H314 H 0.61446 1.0097 0.14562 0.0
H315 H 0.55349 0.97007 0.10721 0.0
H316 H 0.56043 0.96919 -0.01788 0.0
H317 H 0.5262 0.99437 0.03308 0.0
H318 H 0.54667 0.16286 -0.0176 0.0
H319 H 0.55283 0.14474 0.81124 0.0
H320 H 0.58486 1.02 0.86088 0.0
C321 C 0.55595 1.05349 0.23738 0.0
C322 C 0.54064 0.08399 0.29713 0.0
C323 C 0.53523 0.12469 0.26627 0.0
C324 C 0.54358 0.13442 0.17534 0.0
C325 C 0.55743 0.10314 0.11642 0.0
C326 C 0.56399 1.06368 0.14582 0.0
C327 C 0.57594 1.03425 0.06424 0.0
C328 C 0.61251 1.02787 0.0827 0.0
C329 C 0.55261 0.98933 0.0456 0.0
C330 C 0.57323 1.06245 -0.01599 0.0
C331 C 0.56293 0.10227 0.01661 0.0
C332 C 0.55552 0.13233 -0.04408 0.0
C333 C 0.55876 0.12152 0.85882 0.0
C334 C 0.56945 0.08112 0.82362 0.0
C335 C 0.57717 1.0514 0.88682 0.0
H336 H 0.53301 0.53286 0.445 0.0
H337 H 0.58297 0.66944 0.49945 0.0
H338 H 0.572 0.68059 0.334 0.0
H339 H 0.56519 0.51042 0.22046 0.0
H340 H 0.52758 0.47701 0.16638 0.0
H341 H 0.53543 0.48033 0.29249 0.0
H342 H 0.47807 0.50688 0.32324 0.0
H343 H 0.46989 0.50329 0.19701 0.0
H344 H 0.46838 0.55465 0.27112 0.0
H345 H 0.56247 0.67556 0.16319 0.0
H346 H 0.55103 0.65548 -0.00842 0.0
H347 H 0.50573 0.5228 0.04216 0.0
C348 C 0.54096 0.5652 0.42198 0.0
C349 C 0.55901 0.60018 0.48415 0.0
C350 C 0.56942 0.64205 0.45226 0.0
C351 C 0.56315 0.64887 0.35864 0.0
C352 C 0.54628 0.61354 0.29798 0.0
C353 C 0.53497 0.57263 0.32787 0.0
C354 C 0.51926 0.53979 0.2455 0.0
C355 C 0.538 0.49952 0.23034 0.0
C356 C 0.48166 0.5253 0.2601 0.0
C357 C 0.52465 0.56839 0.16487 0.0
C358 C 0.54009 0.61086 0.1974 0.0
C359 C 0.54979 0.64271 0.13662 0.0
C360 C 0.54337 0.63093 0.03944 0.0
C361 C 0.5273 0.58781 0.00444 0.0
C362 C 0.51765 0.55619 0.06778 0.0
loop_
_geom_bond_atom_site_label_1
_geom_bond_atom_site_label_2
_geom_bond_distance
_geom_bond_site_symmetry_2
_ccdc_geom_bond_type
Nd0 C2 2.836 . S
Nd0 O20 2.500 . S
Nd0 O21 2.492 . S
Nd0 O22 2.487 . S
Nd0 O23 2.682 1_455 S
Nd0 O24 2.410 . S
Nd0 O29 2.414 . S
Nd0 O31 2.424 1_455 S
Nd1 C11 2.836 . S
Nd1 O23 2.414 . S
Nd1 O25 2.424 1_655 S
Nd1 O26 2.500 . S
Nd1 O27 2.492 . S
Nd1 O28 2.487 1_554 S
Nd1 O29 2.682 1_655 S
Nd1 O30 2.410 . S
C2 Nd0 2.836 . S
C2 C3 1.498 . S
C2 O20 1.258 . S
C2 O21 1.239 . S
C3 C2 1.498 . S
C3 C4 1.366 . S
C3 C8 1.407 . S
C4 C3 1.366 . S
C4 C5 1.392 . S
C4 H32 0.930 . S
C5 C4 1.392 . S
C5 C6 1.398 . S
C5 H33 0.929 . S
C6 C5 1.398 . S
C6 C7 1.352 . S
C7 C6 1.352 . S
C7 C8 1.384 . S
C7 H34 0.930 . S
C8 C3 1.407 . S
C8 C7 1.384 . S
C8 H35 0.929 . S
C9 O22 1.241 . S
C9 O23 1.273 1_455 S
C10 O24 1.251 . S
C10 O25 1.268 . S
C11 Nd1 2.836 . S
C11 C12 1.498 . S
C11 O26 1.258 . S
C11 O27 1.239 . S
C12 C11 1.498 . S
C12 C13 1.366 . S
C12 C17 1.407 . S
C13 C12 1.366 . S
C13 C14 1.392 . S
C13 H36 0.930 . S
C14 C13 1.392 . S
C14 C15 1.398 . S
C14 H37 0.929 . S
C15 C14 1.398 . S
C15 C16 1.352 . S
C16 C15 1.352 . S
C16 C17 1.384 . S
C16 H38 0.930 1_554 S
C17 C12 1.407 . S
C17 C16 1.384 . S
C17 H39 0.929 1_554 S
C18 O28 1.241 1_455 S
C18 O29 1.273 1_556 S
C19 O30 1.251 . S
C19 O31 1.268 . S
O20 Nd0 2.500 . S
O20 C2 1.258 . S
O21 Nd0 2.492 . S
O21 C2 1.239 . S
O22 Nd0 2.487 . S
O22 C9 1.241 . S
O23 Nd0 2.682 1_655 S
O23 Nd1 2.414 . S
O23 C9 1.273 1_655 S
O24 Nd0 2.410 . S
O24 C10 1.251 . S
O25 Nd1 2.424 1_455 S
O25 C10 1.268 . S
O26 Nd1 2.500 . S
O26 C11 1.258 . S
O27 Nd1 2.492 . S
O27 C11 1.239 . S
O28 Nd1 2.487 1_556 S
O28 C18 1.241 1_655 S
O29 Nd0 2.414 . S
O29 Nd1 2.682 1_455 S
O29 C18 1.273 1_554 S
O30 Nd1 2.410 . S
O30 C19 1.251 . S
O31 Nd0 2.424 1_655 S
O31 C19 1.268 . S
H32 C4 0.930 . S
H33 C5 0.929 . S
H34 C7 0.930 . S
H35 C8 0.929 . S
H36 C13 0.930 . S
H37 C14 0.929 . S
H38 C16 0.930 1_556 S
H39 C17 0.929 1_556 S
Nd40 C42 2.836 1_545 S
Nd40 O60 2.500 1_545 S
Nd40 O61 2.492 1_545 S
Nd40 O62 2.487 1_545 S
Nd40 O63 2.682 . S
Nd40 O64 2.410 1_545 S
Nd40 O69 2.414 . S
Nd40 O71 2.424 . S
Nd41 C51 2.836 . S
Nd41 O63 2.414 . S
Nd41 O65 2.424 1_545 S
Nd41 O66 2.500 . S
Nd41 O67 2.492 . S
Nd41 O68 2.487 . S
Nd41 O69 2.682 . S
Nd41 O70 2.410 . S
C42 Nd40 2.836 1_565 S
C42 C43 1.498 . S
C42 O60 1.258 . S
C42 O61 1.239 . S
C43 C42 1.498 . S
C43 C44 1.366 . S
C43 C48 1.407 . S
C44 C43 1.366 . S
C44 C45 1.392 . S
C44 H72 0.930 . S
C45 C44 1.392 . S
C45 C46 1.398 . S
C45 H73 0.929 . S
C46 C45 1.398 . S
C46 C47 1.352 . S
C47 C46 1.352 . S
C47 C48 1.384 . S
C47 H74 0.930 . S
C48 C43 1.407 . S
C48 C47 1.384 . S
C48 H75 0.929 . S
C49 O62 1.241 1_545 S
C49 O63 1.273 . S
C50 O64 1.251 . S
C50 O65 1.268 . S
C51 Nd41 2.836 . S
C51 C52 1.498 . S
C51 O66 1.258 . S
C51 O67 1.239 . S
C52 C51 1.498 . S
C52 C53 1.366 . S
C52 C57 1.407 . S
C53 C52 1.366 . S
C53 C54 1.392 . S
C53 H76 0.930 . S
C54 C53 1.392 . S
C54 C55 1.398 . S
C54 H77 0.929 . S
C55 C54 1.398 . S
C55 C56 1.352 . S
C56 C55 1.352 . S
C56 C57 1.384 . S
C56 H78 0.930 . S
C57 C52 1.407 . S
C57 C56 1.384 . S
C57 H79 0.929 . S
C58 O68 1.241 . S
C58 O69 1.273 . S
C59 O70 1.251 . S
C59 O71 1.268 . S
O60 Nd40 2.500 1_565 S
O60 C42 1.258 . S
O61 Nd40 2.492 1_565 S
O61 C42 1.239 . S
O62 Nd40 2.487 1_565 S
O62 C49 1.241 1_565 S
O63 Nd40 2.682 . S
O63 Nd41 2.414 . S
O63 C49 1.273 . S
O64 Nd40 2.410 1_565 S
O64 C50 1.251 . S
O65 Nd41 2.424 1_565 S
O65 C50 1.268 . S
O66 Nd41 2.500 . S
O66 C51 1.258 . S
O67 Nd41 2.492 . S
O67 C51 1.239 . S
O68 Nd41 2.487 . S
O68 C58 1.241 . S
O69 Nd40 2.414 . S
O69 Nd41 2.682 . S
O69 C58 1.273 . S
O70 Nd41 2.410 . S
O70 C59 1.251 . S
O71 Nd40 2.424 . S
O71 C59 1.268 . S
H72 C44 0.930 . S
H73 C45 0.929 . S
H74 C47 0.930 . S
H75 C48 0.929 . S
H76 C53 0.930 . S
H77 C54 0.929 . S
H78 C56 0.930 . S
H79 C57 0.929 . S
Nd80 C82 2.836 . S
Nd80 O100 2.500 . S
Nd80 O101 2.492 . S
Nd80 O102 2.487 1_556 S
Nd80 O103 2.682 . S
Nd80 O104 2.410 . S
Nd80 O109 2.414 . S
Nd80 O111 2.424 . S
Nd81 C91 2.836 . S
Nd81 O103 2.414 . S
Nd81 O105 2.424 . S
Nd81 O106 2.500 . S
Nd81 O107 2.492 . S
Nd81 O108 2.487 . S
Nd81 O109 2.682 . S
Nd81 O110 2.410 . S
C82 Nd80 2.836 . S
C82 C83 1.498 . S
C82 O100 1.258 . S
C82 O101 1.239 . S
C83 C82 1.498 . S
C83 C84 1.366 . S
C83 C88 1.407 . S
C84 C83 1.366 . S
C84 C85 1.392 . S
C84 H112 0.930 . S
C85 C84 1.392 . S
C85 C86 1.398 . S
C85 H113 0.929 . S
C86 C85 1.398 . S
C86 C87 1.352 . S
C87 C86 1.352 . S
C87 C88 1.384 . S
C87 H114 0.930 . S
C88 C83 1.407 . S
C88 C87 1.384 . S
C88 H115 0.929 . S
C89 O102 1.241 . S
C89 O103 1.273 1_554 S
C90 O104 1.251 . S
C90 O105 1.268 . S
C91 Nd81 2.836 . S
C91 C92 1.498 . S
C91 O106 1.258 . S
C91 O107 1.239 . S
C92 C91 1.498 . S
C92 C93 1.366 . S
C92 C97 1.407 . S
C93 C92 1.366 . S
C93 C94 1.392 . S
C93 H116 0.930 . S
C94 C93 1.392 . S
C94 C95 1.398 . S
C94 H117 0.929 . S
C95 C94 1.398 . S
C95 C96 1.352 . S
C96 C95 1.352 . S
C96 C97 1.384 . S
C96 H118 0.930 . S
C97 C92 1.407 . S
C97 C96 1.384 . S
C97 H119 0.929 . S
C98 O108 1.241 . S
C98 O109 1.273 . S
C99 O110 1.251 . S
C99 O111 1.268 . S
O100 Nd80 2.500 . S
O100 C82 1.258 . S
O101 Nd80 2.492 . S
O101 C82 1.239 . S
O102 Nd80 2.487 1_554 S
O102 C89 1.241 . S
O103 Nd80 2.682 . S
O103 Nd81 2.414 . S
O103 C89 1.273 1_556 S
O104 Nd80 2.410 . S
O104 C90 1.251 . S
O105 Nd81 2.424 . S
O105 C90 1.268 . S
O106 Nd81 2.500 . S
O106 C91 1.258 . S
O107 Nd81 2.492 . S
O107 C91 1.239 . S
O108 Nd81 2.487 . S
O108 C98 1.241 . S
O109 Nd80 2.414 . S
O109 Nd81 2.682 . S
O109 C98 1.273 . S
O110 Nd81 2.410 . S
O110 C99 1.251 . S
O111 Nd80 2.424 . S
O111 C99 1.268 . S
H112 C84 0.930 . S
H113 C85 0.929 . S
H114 C87 0.930 . S
H115 C88 0.929 . S
H116 C93 0.930 . S
H117 C94 0.929 . S
H118 C96 0.930 . S
H119 C97 0.929 . S
H120 C132 0.930 . S
H121 C134 0.930 . S
H122 C135 0.930 . S
H123 C139 0.959 . S
H124 C139 0.959 . S
H125 C139 0.961 . S
H126 C140 0.960 . S
H127 C140 0.961 . S
H128 C140 0.959 . S
H129 C143 0.929 . S
H130 C144 0.931 . S
H131 C146 0.930 . S
C132 H120 0.930 . S
C132 C133 1.399 . S
C132 C137 1.399 1_554 S
C133 C132 1.399 . S
C133 C134 1.376 . S
C134 H121 0.930 . S
C134 C133 1.376 . S
C134 C135 1.388 1_554 S
C135 H122 0.930 . S
C135 C134 1.388 1_556 S
C135 C136 1.390 . S
C136 C135 1.390 . S
C136 C137 1.394 . S
C136 C142 1.465 . S
C137 C132 1.399 1_556 S
C137 C136 1.394 . S
C137 C138 1.516 . S
C138 C137 1.516 . S
C138 C139 1.502 1_556 S
C138 C140 1.561 . S
C138 C141 1.526 . S
C139 H123 0.959 . S
C139 H124 0.959 . S
C139 H125 0.961 . S
C139 C138 1.502 1_554 S
C140 H126 0.960 . S
C140 H127 0.961 . S
C140 H128 0.959 . S
C140 C138 1.561 . S
C141 C138 1.526 . S
C141 C142 1.396 . S
C141 C146 1.390 . S
C142 C136 1.465 . S
C142 C141 1.396 . S
C142 C143 1.399 . S
C143 H129 0.929 . S
C143 C142 1.399 . S
C143 C144 1.385 . S
C144 H130 0.931 . S
C144 C143 1.385 . S
C144 C145 1.389 . S
C145 C144 1.389 . S
C145 C146 1.387 . S
C146 H131 0.930 . S
C146 C141 1.390 . S
C146 C145 1.387 . S
H147 C159 0.930 . S
H148 C161 0.930 . S
H149 C162 0.930 . S
H150 C166 0.959 . S
H151 C166 0.959 . S
H152 C166 0.961 . S
H153 C167 0.960 . S
H154 C167 0.961 . S
H155 C167 0.959 . S
H156 C170 0.929 . S
H157 C171 0.931 . S
H158 C173 0.930 . S
C159 H147 0.930 . S
C159 C160 1.399 . S
C159 C164 1.399 . S
C160 C159 1.399 . S
C160 C161 1.376 . S
C161 H148 0.930 . S
C161 C160 1.376 . S
C161 C162 1.388 . S
C162 H149 0.930 . S
C162 C161 1.388 . S
C162 C163 1.390 . S
C163 C162 1.390 . S
C163 C164 1.394 . S
C163 C169 1.465 . S
C164 C159 1.399 . S
C164 C163 1.394 . S
C164 C165 1.516 . S
C165 C164 1.516 . S
C165 C166 1.502 . S
C165 C167 1.561 . S
C165 C168 1.526 . S
C166 H150 0.959 . S
C166 H151 0.959 . S
C166 H152 0.961 . S
C166 C165 1.502 . S
C167 H153 0.960 . S
C167 H154 0.961 . S
C167 H155 0.959 . S
C167 C165 1.561 . S
C168 C165 1.526 . S
C168 C169 1.396 . S
C168 C173 1.390 . S
C169 C163 1.465 . S
C169 C168 1.396 . S
C169 C170 1.399 . S
C170 H156 0.929 . S
C170 C169 1.399 . S
C170 C171 1.385 . S
C171 H157 0.931 . S
C171 C170 1.385 . S
C171 C172 1.389 . S
C172 C171 1.389 . S
C172 C173 1.387 . S
C173 H158 0.930 . S
C173 C168 1.390 . S
C173 C172 1.387 . S
H174 C186 0.930 . S
H175 C188 0.930 . S
H176 C189 0.930 . S
H177 C193 0.959 . S
H178 C193 0.959 . S
H179 C193 0.961 . S
H180 C194 0.960 . S
H181 C194 0.961 . S
H182 C194 0.959 . S
H183 C197 0.929 . S
H184 C198 0.931 . S
H185 C200 0.930 . S
C186 H174 0.930 . S
C186 C187 1.399 . S
C186 C191 1.399 . S
C187 C186 1.399 . S
C187 C188 1.376 . S
C188 H175 0.930 . S
C188 C187 1.376 . S
C188 C189 1.388 . S
C189 H176 0.930 . S
C189 C188 1.388 . S
C189 C190 1.390 . S
C190 C189 1.390 . S
C190 C191 1.394 . S
C190 C196 1.465 . S
C191 C186 1.399 . S
C191 C190 1.394 . S
C191 C192 1.516 . S
C192 C191 1.516 . S
C192 C193 1.502 . S
C192 C194 1.561 . S
C192 C195 1.526 . S
C193 H177 0.959 . S
C193 H178 0.959 . S
C193 H179 0.961 . S
C193 C192 1.502 . S
C194 H180 0.960 . S
C194 H181 0.961 . S
C194 H182 0.959 . S
C194 C192 1.561 . S
C195 C192 1.526 . S
C195 C196 1.396 . S
C195 C200 1.390 . S
C196 C190 1.465 . S
C196 C195 1.396 . S
C196 C197 1.399 . S
C197 H183 0.929 . S
C197 C196 1.399 . S
C197 C198 1.385 . S
C198 H184 0.931 . S
C198 C197 1.385 . S
C198 C199 1.389 . S
C199 C198 1.389 . S
C199 C200 1.387 . S
C200 H185 0.930 . S
C200 C195 1.390 . S
C200 C199 1.387 . S
H201 C213 0.930 . S
H202 C215 0.930 . S
H203 C216 0.930 . S
H204 C220 0.959 . S
H205 C220 0.959 . S
H206 C220 0.961 . S
H207 C221 0.960 . S
H208 C221 0.961 . S
H209 C221 0.959 . S
H210 C224 0.929 . S
H211 C225 0.931 . S
H212 C227 0.930 . S
C213 H201 0.930 . S
C213 C214 1.399 . S
C213 C218 1.399 1_556 S
C214 C213 1.399 . S
C214 C215 1.376 . S
C215 H202 0.930 . S
C215 C214 1.376 . S
C215 C216 1.388 . S
C216 H203 0.930 . S
C216 C215 1.388 . S
C216 C217 1.390 . S
C217 C216 1.390 . S
C217 C218 1.394 1_556 S
C217 C223 1.465 1_556 S
C218 C213 1.399 1_554 S
C218 C217 1.394 1_554 S
C218 C219 1.516 . S
C219 C218 1.516 . S
C219 C220 1.502 . S
C219 C221 1.561 . S
C219 C222 1.526 . S
C220 H204 0.959 . S
C220 H205 0.959 . S
C220 H206 0.961 . S
C220 C219 1.502 . S
C221 H207 0.960 . S
C221 H208 0.961 . S
C221 H209 0.959 . S
C221 C219 1.561 . S
C222 C219 1.526 . S
C222 C223 1.396 . S
C222 C227 1.390 . S
C223 C217 1.465 1_554 S
C223 C222 1.396 . S
C223 C224 1.399 1_554 S
C224 H210 0.929 . S
C224 C223 1.399 1_556 S
C224 C225 1.385 1_556 S
C225 H211 0.931 . S
C225 C224 1.385 1_554 S
C225 C226 1.389 . S
C226 C225 1.389 . S
C226 C227 1.387 . S
C227 H212 0.930 . S
C227 C222 1.390 . S
C227 C226 1.387 . S
H228 C240 0.930 . S
H229 C242 0.930 . S
H230 C243 0.930 . S
H231 C247 0.959 . S
H232 C247 0.959 . S
H233 C247 0.961 . S
H234 C248 0.960 . S
H235 C248 0.961 . S
H236 C248 0.959 . S
H237 C251 0.929 . S
H238 C252 0.931 . S
H239 C254 0.930 . S
C240 H228 0.930 . S
C240 C241 1.399 . S
C240 C245 1.399 . S
C241 C240 1.399 . S
C241 C242 1.376 . S
C242 H229 0.930 . S
C242 C241 1.376 . S
C242 C243 1.388 . S
C243 H230 0.930 . S
C243 C242 1.388 . S
C243 C244 1.390 . S
C244 C243 1.390 . S
C244 C245 1.394 . S
C244 C250 1.465 . S
C245 C240 1.399 . S
C245 C244 1.394 . S
C245 C246 1.516 . S
C246 C245 1.516 . S
C246 C247 1.502 . S
C246 C248 1.561 . S
C246 C249 1.526 . S
C247 H231 0.959 . S
C247 H232 0.959 . S
C247 H233 0.961 . S
C247 C246 1.502 . S
C248 H234 0.960 . S
C248 H235 0.961 . S
C248 H236 0.959 . S
C248 C246 1.561 . S
C249 C246 1.526 . S
C249 C250 1.396 . S
C249 C254 1.390 . S
C250 C244 1.465 . S
C250 C249 1.396 . S
C250 C251 1.399 . S
C251 H237 0.929 . S
C251 C250 1.399 . S
C251 C252 1.385 . S
C252 H238 0.931 . S
C252 C251 1.385 . S
C252 C253 1.389 . S
C253 C252 1.389 . S
C253 C254 1.387 . S
C254 H239 0.930 . S
C254 C249 1.390 . S
C254 C253 1.387 . S
H255 C267 0.930 . S
H256 C269 0.930 . S
H257 C270 0.930 . S
H258 C274 0.959 . S
H259 C274 0.959 . S
H260 C274 0.961 . S
H261 C275 0.960 . S
H262 C275 0.961 . S
H263 C275 0.959 . S
H264 C278 0.929 . S
H265 C279 0.931 . S
H266 C281 0.930 . S
C267 H255 0.930 . S
C267 C268 1.399 . S
C267 C272 1.399 . S
C268 C267 1.399 . S
C268 C269 1.376 . S
C269 H256 0.930 . S
C269 C268 1.376 . S
C269 C270 1.388 . S
C270 H257 0.930 . S
C270 C269 1.388 . S
C270 C271 1.390 . S
C271 C270 1.390 . S
C271 C272 1.394 . S
C271 C277 1.465 . S
C272 C267 1.399 . S
C272 C271 1.394 . S
C272 C273 1.516 . S
C273 C272 1.516 . S
C273 C274 1.502 . S
C273 C275 1.561 . S
C273 C276 1.526 . S
C274 H258 0.959 . S
C274 H259 0.959 . S
C274 H260 0.961 . S
C274 C273 1.502 . S
C275 H261 0.960 . S
C275 H262 0.961 . S
C275 H263 0.959 . S
C275 C273 1.561 . S
C276 C273 1.526 . S
C276 C277 1.396 . S
C276 C281 1.390 . S
C277 C271 1.465 . S
C277 C276 1.396 . S
C277 C278 1.399 . S
C278 H264 0.929 . S
C278 C277 1.399 . S
C278 C279 1.385 . S
C279 H265 0.931 . S
C279 C278 1.385 . S
C279 C280 1.389 . S
C280 C279 1.389 . S
C280 C281 1.387 . S
C281 H266 0.930 . S
C281 C276 1.390 . S
C281 C280 1.387 . S
H282 C294 0.930 . S
H283 C296 0.930 . S
H284 C297 0.930 . S
H285 C301 0.959 . S
H286 C301 0.959 . S
H287 C301 0.961 . S
H288 C302 0.960 . S
H289 C302 0.961 . S
H290 C302 0.959 . S
H291 C305 0.929 . S
H292 C306 0.931 . S
H293 C308 0.921 1_655 S
C294 H282 0.930 . S
C294 C295 1.399 . S
C294 C299 1.399 . S
C295 C294 1.399 . S
C295 C296 1.376 . S
C296 H283 0.930 . S
C296 C295 1.376 . S
C296 C297 1.388 . S
C297 H284 0.930 . S
C297 C296 1.388 . S
C297 C298 1.390 . S
C298 C297 1.390 . S
C298 C299 1.394 . S
C298 C304 1.465 . S
C299 C294 1.399 . S
C299 C298 1.394 . S
C299 C300 1.516 . S
C300 C299 1.516 . S
C300 C301 1.502 1_455 S
C300 C302 1.561 . S
C300 C303 1.526 . S
C301 H285 0.959 . S
C301 H286 0.959 . S
C301 H287 0.961 . S
C301 C300 1.502 1_655 S
C302 H288 0.960 . S
C302 H289 0.961 . S
C302 H290 0.959 . S
C302 C300 1.561 . S
C303 C300 1.526 . S
C303 C304 1.396 . S
C303 C308 1.393 . S
C304 C298 1.465 . S
C304 C303 1.396 . S
C304 C305 1.399 . S
C305 H291 0.929 . S
C305 C304 1.399 . S
C305 C306 1.385 . S
C306 H292 0.931 . S
C306 C305 1.385 . S
C306 C307 1.389 1_455 S
C307 C306 1.389 1_655 S
C307 C308 1.390 1_655 S
C308 H293 0.921 1_455 S
C308 C303 1.393 . S
C308 C307 1.390 1_455 S
H309 C321 0.930 . S
H310 C323 0.930 . S
H311 C324 0.930 . S
H312 C328 0.959 . S
H313 C328 0.959 1_556 S
H314 C328 0.961 . S
H315 C329 0.960 . S
H316 C329 0.961 1_556 S
H317 C329 0.959 . S
H318 C332 0.929 . S
H319 C333 0.931 . S
H320 C335 0.930 . S
C321 H309 0.930 . S
C321 C322 1.399 1_565 S
C321 C326 1.399 . S
C322 C321 1.399 1_545 S
C322 C323 1.376 . S
C323 H310 0.930 . S
C323 C322 1.376 . S
C323 C324 1.388 . S
C324 H311 0.930 . S
C324 C323 1.388 . S
C324 C325 1.390 . S
C325 C324 1.390 . S
C325 C326 1.394 1_545 S
C325 C331 1.465 1_554 S
C326 C321 1.399 . S
C326 C325 1.394 1_565 S
C326 C327 1.516 . S
C327 C326 1.516 . S
C327 C328 1.502 . S
C327 C329 1.561 . S
C327 C330 1.526 1_554 S
C328 H312 0.959 . S
C328 H313 0.959 1_554 S
C328 H314 0.961 . S
C328 C327 1.502 . S
C329 H315 0.960 . S
C329 H316 0.961 1_554 S
C329 H317 0.959 . S
C329 C327 1.561 . S
C330 C327 1.526 1_556 S
C330 C331 1.396 1_565 S
C330 C335 1.390 . S
C331 C325 1.465 1_556 S
C331 C330 1.396 1_545 S
C331 C332 1.399 . S
C332 H318 0.929 . S
C332 C331 1.399 . S
C332 C333 1.385 . S
C333 H319 0.931 . S
C333 C332 1.385 . S
C333 C334 1.389 . S
C334 C333 1.389 . S
C334 C335 1.387 1_545 S
C335 H320 0.930 . S
C335 C330 1.390 . S
C335 C334 1.387 1_565 S
H336 C348 0.930 . S
H337 C350 0.930 . S
H338 C351 0.930 . S
H339 C355 0.959 . S
H340 C355 0.959 . S
H341 C355 0.961 . S
H342 C356 0.960 . S
H343 C356 0.961 . S
H344 C356 0.959 . S
H345 C359 0.929 . S
H346 C360 0.931 . S
H347 C362 0.930 . S
C348 H336 0.930 . S
C348 C349 1.399 . S
C348 C353 1.399 . S
C349 C348 1.399 . S
C349 C350 1.376 . S
C350 H337 0.930 . S
C350 C349 1.376 . S
C350 C351 1.388 . S
C351 H338 0.930 . S
C351 C350 1.388 . S
C351 C352 1.390 . S
C352 C351 1.390 . S
C352 C353 1.394 . S
C352 C358 1.465 . S
C353 C348 1.399 . S
C353 C352 1.394 . S
C353 C354 1.516 . S
C354 C353 1.516 . S
C354 C355 1.502 . S
C354 C356 1.561 . S
C354 C357 1.526 . S
C355 H339 0.959 . S
C355 H340 0.959 . S
C355 H341 0.961 . S
C355 C354 1.502 . S
C356 H342 0.960 . S
C356 H343 0.961 . S
C356 H344 0.959 . S
C356 C354 1.561 . S
C357 C354 1.526 . S
C357 C358 1.396 . S
C357 C362 1.390 . S
C358 C352 1.465 . S
C358 C357 1.396 . S
C358 C359 1.399 . S
C359 H345 0.929 . S
C359 C358 1.399 . S
C359 C360 1.385 . S
C360 H346 0.931 . S
C360 C359 1.385 . S
C360 C361 1.389 . S
C361 C360 1.389 . S
C361 C362 1.387 . S
C362 H347 0.930 . S
C362 C357 1.390 . S
C362 C361 1.387 . S
C133 C10 2.573 . S
C145 C86 2.471 . S
C160 C55 1.660 . S
C172 C15 1.677 . S
C187 C50 3.010 . S
C199 C90 2.961 . S
C214 C95 2.243 . S
C226 C19 2.185 . S
C241 C46 1.407 . S
C253 C6 1.479 . S
C268 C99 2.667 . S
C280 C59 2.664 . S
C295 C18 0.502 . S
C307 C9 0.620 1_655 S
C322 C49 0.515 . S
C334 C58 0.548 . S
C349 C98 0.608 . S
C361 C89 0.557 . S
