# Generated by pormake.
# Topology snz, (6)-cn, num edge types: 1
# Building blocks:
#     Node 0, Type 0, BuildingBlock: PAMTOO_clean_sbu_0, # of connection points: 6
#     Node 1, Type 0, BuildingBlock: PAMTOO_clean_sbu_0, # of connection points: 6
#     Node 2, Type 0, BuildingBlock: PAMTOO_clean_sbu_0, # of connection points: 6
#     Node 3, Type 0, BuildingBlock: PAMTOO_clean_sbu_0, # of connection points: 6
#     Node 4, Type 0, BuildingBlock: PAMTOO_clean_sbu_0, # of connection points: 6
#     Node 5, Type 0, BuildingBlock: PAMTOO_clean_sbu_0, # of connection points: 6
#     Node 6, Type 0, BuildingBlock: PAMTOO_clean_sbu_0, # of connection points: 6
#     Node 7, Type 0, BuildingBlock: PAMTOO_clean_sbu_0, # of connection points: 6
#     Node 8, Type 0, BuildingBlock: PAMTOO_clean_sbu_0, # of connection points: 6
#     Edge 9, Type (0, 0), BuildingBlock: AJUNOK_clean_linker_0, # of connection points: 2
#     Edge 10, Type (0, 0), BuildingBlock: AJUNOK_clean_linker_0, # of connection points: 2
#     Edge 11, Type (0, 0), BuildingBlock: AJUNOK_clean_linker_0, # of connection points: 2
#     Edge 12, Type (0, 0), BuildingBlock: AJUNOK_clean_linker_0, # of connection points: 2
#     Edge 13, Type (0, 0), BuildingBlock: AJUNOK_clean_linker_0, # of connection points: 2
#     Edge 14, Type (0, 0), BuildingBlock: AJUNOK_clean_linker_0, # of connection points: 2
#     Edge 15, Type (0, 0), BuildingBlock: AJUNOK_clean_linker_0, # of connection points: 2
#     Edge 16, Type (0, 0), BuildingBlock: AJUNOK_clean_linker_0, # of connection points: 2
#     Edge 17, Type (0, 0), BuildingBlock: AJUNOK_clean_linker_0, # of connection points: 2
#     Edge 18, Type (0, 0), BuildingBlock: AJUNOK_clean_linker_0, # of connection points: 2
#     Edge 19, Type (0, 0), BuildingBlock: AJUNOK_clean_linker_0, # of connection points: 2
#     Edge 20, Type (0, 0), BuildingBlock: AJUNOK_clean_linker_0, # of connection points: 2
#     Edge 21, Type (0, 0), BuildingBlock: AJUNOK_clean_linker_0, # of connection points: 2
#     Edge 22, Type (0, 0), BuildingBlock: AJUNOK_clean_linker_0, # of connection points: 2
#     Edge 23, Type (0, 0), BuildingBlock: AJUNOK_clean_linker_0, # of connection points: 2
#     Edge 24, Type (0, 0), BuildingBlock: AJUNOK_clean_linker_0, # of connection points: 2
#     Edge 25, Type (0, 0), BuildingBlock: AJUNOK_clean_linker_0, # of connection points: 2
#     Edge 26, Type (0, 0), BuildingBlock: AJUNOK_clean_linker_0, # of connection points: 2
#     Edge 27, Type (0, 0), BuildingBlock: AJUNOK_clean_linker_0, # of connection points: 2
#     Edge 28, Type (0, 0), BuildingBlock: AJUNOK_clean_linker_0, # of connection points: 2
#     Edge 29, Type (0, 0), BuildingBlock: AJUNOK_clean_linker_0, # of connection points: 2
#     Edge 30, Type (0, 0), BuildingBlock: AJUNOK_clean_linker_0, # of connection points: 2
#     Edge 31, Type (0, 0), BuildingBlock: AJUNOK_clean_linker_0, # of connection points: 2
#     Edge 32, Type (0, 0), BuildingBlock: AJUNOK_clean_linker_0, # of connection points: 2
#     Edge 33, Type (0, 0), BuildingBlock: AJUNOK_clean_linker_0, # of connection points: 2
#     Edge 34, Type (0, 0), BuildingBlock: AJUNOK_clean_linker_0, # of connection points: 2
#     Edge 35, Type (0, 0), BuildingBlock: AJUNOK_clean_linker_0, # of connection points: 2
# Relax obj value: 0.128
# Max RMSD: 0.272
# Mean RMSD: 0.174
data_MOF--net-snz--node1-PAMTOO_clean_sbu_0--edge1-AJUNOK_clean_linker_0
_symmetry_space_group_name_H-M    P1
_symmetry_Int_Tables_number       1
_symmetry_cell_setting            triclinic
loop_
_symmetry_equiv_pos_as_xyz
'x, y, z'
_cell_length_a     67.066274
_cell_length_b     42.968632
_cell_length_c     11.140665
_cell_angle_alpha  101.16801
_cell_angle_beta   103.56947
_cell_angle_gamma 123.65342
loop_
_atom_site_label
_atom_site_type_symbol
_atom_site_fract_x
_atom_site_fract_y
_atom_site_fract_z
_atom_type_partial_charge
Dy0 Dy 0.07416 0.55656 0.93821 0.0
Dy1 Dy 0.11994 0.54375 -0.01362 0.0
C2 C 0.09461 0.54726 0.71356 0.0
O3 O 0.05467 0.49332 0.92965 0.0
O4 O 0.08102 0.48106 0.87052 0.0
O5 O 1.03504 0.53616 0.82935 0.0
O6 O 0.06194 0.59018 0.01692 0.0
O7 O 0.10497 0.53115 0.14285 0.0
O8 O 0.09418 0.57324 0.15571 0.0
O9 O 0.14095 0.61074 0.07798 0.0
O10 O 0.11009 0.61419 0.95409 0.0
O11 O 0.15529 0.55739 0.12187 0.0
O12 O 0.13819 0.52161 0.90769 0.0
C13 C 0.05872 0.46793 0.88035 0.0
O14 O 0.07422 0.53861 0.73734 0.0
O15 O 0.11596 0.55772 0.80515 0.0
C16 C 1.02692 0.58403 0.86752 0.0
C17 C 0.99907 0.61137 0.77232 0.0
C18 C 1.00833 0.59808 0.69115 0.0
C19 C 1.02209 0.58436 0.73823 0.0
C20 C 1.01851 0.59861 0.9499 0.0
C21 C 1.00477 0.61215 0.90304 0.0
C22 C 0.03863 0.56585 0.91686 0.0
C23 C 0.09888 0.55159 0.20511 0.0
C24 C 0.1346 0.6313 0.03082 0.0
C25 C 0.16391 0.51115 0.05541 0.0
C26 C 0.18309 0.46867 0.10772 0.0
C27 C 0.18863 0.49994 0.21412 0.0
C28 C 0.17915 0.52101 0.18823 0.0
C29 C 0.15841 0.47982 0.94923 0.0
C30 C 0.16788 0.45884 -0.02488 0.0
C31 C 0.15657 0.53651 0.02615 0.0
H32 H 1.00472 0.59793 0.59099 0.0
H33 H 1.0285 0.57337 0.67301 0.0
H34 H 1.02192 0.59841 0.0497 0.0
H35 H 0.99781 0.62196 0.96778 0.0
H36 H 0.20035 0.50814 0.3172 0.0
H37 H 0.1842 0.54556 0.27204 0.0
H38 H 0.14733 0.47211 0.8455 0.0
H39 H 0.16382 0.4355 0.89083 0.0
Dy40 Dy 0.58164 0.55517 0.04089 0.0
Dy41 Dy 0.62679 0.5404 0.08514 0.0
C42 C 0.60559 0.5468 0.30612 0.0
O43 O 0.61889 0.61312 0.06598 0.0
O44 O 0.64771 0.60673 0.19226 0.0
O45 O 0.56905 0.58908 0.11305 0.0
O46 O 0.54357 0.53673 0.92212 0.0
O47 O 0.62403 0.55787 0.91241 0.0
O48 O 0.58173 0.5361 0.83997 0.0
O49 O 0.58722 0.47883 0.96682 0.0
O50 O 0.56128 0.49171 0.02864 0.0
O51 O 0.63921 0.50725 0.00727 0.0
O52 O 0.66511 0.55861 0.20048 0.0
C53 C 0.64295 0.62883 0.14553 0.0
O54 O 0.59888 0.56664 0.25651 0.0
O55 O 0.61268 0.52806 0.24377 0.0
C56 C 0.52255 0.54878 0.04915 0.0
C57 C 0.47807 0.52294 0.10746 0.0
C58 C 0.50176 0.56324 0.1784 0.0
C59 C 0.52366 0.57605 0.14905 0.0
C60 C 0.49897 0.50823 -0.0204 0.0
C61 C 0.47703 0.49549 0.00858 0.0
C62 C 0.54551 0.56346 0.01417 0.0
C63 C 0.60233 0.54514 0.81772 0.0
C64 C 0.56507 0.46622 -0.02272 0.0
C65 C 0.6844 0.54915 0.05914 0.0
C66 C 0.72145 0.57339 0.94545 0.0
C67 C 0.70681 0.58751 0.93678 0.0
C68 C 0.68846 0.57551 -0.00684 0.0
C69 C 0.69959 0.53615 0.07223 0.0
C70 C 0.71807 0.54832 0.01643 0.0
C71 C 0.66292 0.53258 0.10409 0.0
H72 H 0.50317 0.58515 0.25485 0.0
H73 H 0.54141 0.60753 0.2036 0.0
H74 H 0.49731 0.4863 0.90189 0.0
H75 H 0.45925 0.46405 0.95382 0.0
H76 H 0.70932 0.60744 0.88491 0.0
H77 H 0.67696 0.58598 -0.01765 0.0
H78 H 0.69668 0.51572 0.12249 0.0
H79 H 0.72907 0.53699 0.02472 0.0
Dy80 Dy 0.64921 0.12398 0.1428 0.0
Dy81 Dy 0.58605 0.03857 0.00596 0.0
C82 C 0.61751 0.07605 0.83205 0.0
O83 O 0.62286 0.13954 0.07413 0.0
O84 O 0.58808 0.09105 0.1054 0.0
O85 O 0.67753 0.18062 0.13059 0.0
O86 O 0.69047 0.16292 0.28084 0.0
O87 O 0.60213 0.05217 0.22335 0.0
O88 O 0.63775 0.12103 0.31546 0.0
O89 O 0.60895 1.01633 -0.01652 0.0
O90 O 0.65013 0.07318 0.1466 0.0
O91 O 0.55477 0.97814 -0.01558 0.0
O92 O 0.54558 1.00799 0.87393 0.0
C93 C 0.60064 0.12488 0.08638 0.0
O94 O 0.6389 0.09014 0.93274 0.0
O95 O 0.59518 0.06 0.84418 0.0
C96 C 0.71851 0.19445 0.17175 0.0
C97 C 0.75523 0.20412 0.06557 0.0
C98 C 0.74415 0.22348 0.04491 0.0
C99 C 0.72608 0.21879 0.09761 0.0
C100 C 0.73009 0.17587 0.19531 0.0
C101 C 0.74813 0.1805 0.14231 0.0
C102 C 0.69769 0.18716 0.21733 0.0
C103 C 0.62026 0.08741 0.32649 0.0
C104 C 0.6336 0.03453 0.0632 0.0
C105 C 0.51489 0.96716 0.95381 0.0
C106 C 0.47373 0.94779 0.03457 0.0
C107 C 0.50006 0.98231 0.11969 0.0
C108 C 0.52043 0.99191 0.07965 0.0
C109 C 0.48869 0.93291 0.86837 0.0
C110 C 0.46832 0.92334 0.90815 0.0
C111 C 0.53615 0.97727 0.90982 0.0
H112 H 0.74935 0.24212 -0.01289 0.0
H113 H 0.71762 0.23365 0.07813 0.0
H114 H 0.72488 0.15714 0.25269 0.0
H115 H 0.75604 0.16477 0.15879 0.0
H116 H 0.50487 1.00228 0.21639 0.0
H117 H 0.5405 1.01878 0.14651 0.0
H118 H 0.48398 0.91355 0.77059 0.0
H119 H 0.44829 0.89653 0.84034 0.0
Dy120 Dy 0.74492 0.88614 0.30933 0.0
Dy121 Dy 0.79004 0.87164 0.35622 0.0
C122 C 0.76581 0.87793 0.09089 0.0
O123 O 0.72398 0.81893 0.2179 0.0
O124 O 0.75424 0.81511 0.34498 0.0
O125 O 0.70846 0.86925 0.17463 0.0
O126 O 0.72731 0.91063 0.38423 0.0
O127 O 0.79045 0.89001 0.558 0.0
O128 O 0.74944 0.87369 0.49364 0.0
O129 O 0.81028 0.93511 0.36843 0.0
O130 O 0.78403 0.9492 0.41983 0.0
O131 O 0.82888 0.89083 0.46391 0.0
O132 O 0.80173 0.83756 0.27406 0.0
C133 C 0.72987 0.79813 0.26707 0.0
O134 O 0.75998 0.89874 0.15351 0.0
O135 O 0.76989 0.85555 0.13914 0.0
C136 C 0.69767 0.91288 0.22718 0.0
C137 C 0.6754 0.94903 0.14507 0.0
C138 C 0.69181 0.94729 0.09002 0.0
C139 C 0.70289 0.92934 0.13084 0.0
C140 C 0.68131 0.91457 0.28181 0.0
C141 C 0.67025 0.9324 0.24114 0.0
C142 C 0.70746 0.89148 0.26727 0.0
C143 C 0.77051 0.88292 0.58356 0.0
C144 C 0.80666 0.96115 0.41633 0.0
C145 C 0.83717 0.84337 0.41737 0.0
C146 C 0.86395 0.81342 0.50014 0.0
C147 C 0.85231 0.8217 0.57761 0.0
C148 C 0.83894 0.83654 0.53638 0.0
C149 C 0.84864 0.83493 0.34019 0.0
C150 C 0.86199 0.82036 0.38128 0.0
C151 C 0.82513 0.86157 0.37326 0.0
H152 H 0.69589 0.95948 0.01468 0.0
H153 H 0.7153 0.92802 0.08652 0.0
H154 H 0.6769 0.90176 0.35559 0.0
H155 H 0.65791 0.93366 0.2862 0.0
H156 H 0.85362 0.8168 0.66998 0.0
H157 H 0.83033 0.8431 0.59783 0.0
H158 H 0.84778 0.84051 0.24899 0.0
H159 H 0.87139 0.81552 0.32146 0.0
Dy160 Dy 0.23894 0.88994 0.20844 0.0
Dy161 Dy 0.28249 0.87171 0.24753 0.0
C162 C 0.26429 0.8854 0.47689 0.0
O163 O 0.27581 0.94684 0.22962 0.0
O164 O 0.30552 0.93944 0.34176 0.0
O165 O 0.22803 0.92668 0.27627 0.0
O166 O 0.1998 0.86962 0.1007 0.0
O167 O 0.27952 0.88758 0.07082 0.0
O168 O 0.23841 0.87072 0.00623 0.0
O169 O 0.24186 0.81072 0.13987 0.0
O170 O 0.21891 0.82855 0.21256 0.0
O171 O 0.29411 0.83785 0.16406 0.0
O172 O 0.31907 0.88519 0.36608 0.0
C173 C 0.29996 0.96201 0.3044 0.0
O174 O 0.25908 0.9064 0.42571 0.0
O175 O 0.26995 0.86414 0.4145 0.0
C176 C 0.18372 0.88643 0.24635 0.0
C177 C 0.14731 0.86444 0.36371 0.0
C178 C 0.1622 0.85076 0.37639 0.0
C179 C 0.18023 0.86165 0.31825 0.0
C180 C 0.16857 0.89949 0.23109 0.0
C181 C 0.15043 0.88847 0.28887 0.0
C182 C 0.20342 0.8991 0.18944 0.0
C183 C 0.25855 0.87857 -0.01874 0.0
C184 C 0.22063 0.80084 0.15727 0.0
C185 C 0.34049 0.87544 0.23534 0.0
C186 C 0.38512 0.9018 0.17752 0.0
C187 C 0.35969 0.86675 0.08358 0.0
C188 C 0.33772 0.85364 0.11231 0.0
C189 C 0.36593 0.91068 0.32926 0.0
C190 C 0.38795 0.92377 0.30048 0.0
C191 C 0.31704 0.86019 0.2665 0.0
H192 H 0.15987 0.83156 0.43111 0.0
H193 H 0.1916 0.85097 0.33019 0.0
H194 H 0.17092 0.91849 0.17549 0.0
H195 H 0.13921 0.8994 0.27732 0.0
H196 H 0.35682 0.84896 -0.01163 0.0
H197 H 0.31854 0.8261 0.03819 0.0
H198 H 0.36888 0.92813 0.42538 0.0
H199 H 0.40718 0.95128 0.37421 0.0
Dy200 Dy 0.27366 0.3812 0.24624 0.0
Dy201 Dy 0.21118 0.29574 0.11269 0.0
C202 C 0.23948 0.33006 0.92393 0.0
O203 O 0.24959 0.40152 0.26531 0.0
O204 O 0.21126 0.34565 0.08644 0.0
O205 O 0.30441 0.44158 0.26434 0.0
O206 O 0.31409 0.41378 0.38341 0.0
O207 O 0.22178 0.33046 0.32318 0.0
O208 O 0.26516 0.35908 0.40814 0.0
O209 O 0.23756 0.27974 0.17474 0.0
O210 O 0.27256 0.32977 0.14776 0.0
O211 O 0.18258 0.23756 0.11543 0.0
O212 O 0.16943 0.26058 -0.01097 0.0
C213 C 0.2257 0.38318 0.17485 0.0
O214 O 0.25812 0.36552 0.02587 0.0
O215 O 0.22155 0.29697 0.93601 0.0
C216 C 0.34512 0.4545 0.30488 0.0
C217 C 0.38758 0.4752 0.23434 0.0
C218 C 0.36295 0.43581 0.16547 0.0
C219 C 0.34192 0.42561 0.20013 0.0
C220 C 0.36961 0.49368 0.37412 0.0
C221 C 0.39063 0.50394 0.33939 0.0
C222 C 0.32326 0.44383 0.34421 0.0
C223 C 0.24327 0.34473 0.42365 0.0
C224 C 0.25964 0.29491 0.16024 0.0
C225 C 0.14397 0.22893 0.1057 0.0
C226 C 0.10931 0.22257 0.22295 0.0
C227 C 0.13508 0.23882 0.30392 0.0
C228 C 0.15226 0.24223 0.24626 0.0
C229 C 0.11807 0.212 0.02426 0.0
C230 C 0.10086 0.2087 0.08223 0.0
C231 C 0.16253 0.23432 0.04462 0.0
H232 H 0.36004 0.41266 0.08609 0.0
H233 H 0.32319 0.39508 0.14584 0.0
H234 H 0.37251 0.51637 0.45541 0.0
H235 H 0.40927 0.53454 0.39411 0.0
H236 H 0.14188 0.24862 0.41215 0.0
H237 H 0.1721 0.25548 0.31207 0.0
H238 H 0.11123 0.20172 0.91582 0.0
H239 H 0.08108 0.19592 0.01725 0.0
Dy240 Dy 0.45077 0.20004 0.64122 0.0
Dy241 Dy 0.41293 0.22833 0.61105 0.0
C242 C 0.38822 0.13478 0.50034 0.0
O243 O 0.4493 0.21756 0.46637 0.0
O244 O 0.40968 0.20558 0.40586 0.0
O245 O 0.45501 0.15407 0.6484 0.0
O246 O 0.48694 0.21118 0.65208 0.0
O247 O 0.45418 0.28261 0.66607 0.0
O248 O 0.4774 0.26577 0.7807 0.0
O249 O 0.42983 0.24034 0.82606 0.0
O250 O 0.43736 0.19389 0.80563 0.0
O251 O 0.40798 0.27253 0.58708 0.0
O252 O 0.37826 0.22039 0.6146 0.0
C253 C 0.42924 0.21147 0.37909 0.0
O254 O 0.41014 0.14555 0.49073 0.0
O255 O 0.38672 0.16178 0.56559 0.0
C256 C 0.4983 0.1757 0.75415 0.0
C257 C 0.53546 0.16961 0.90335 0.0
C258 C 0.50877 0.13506 0.83023 0.0
C259 C 0.49045 0.13806 0.7562 0.0
C260 C 0.52482 0.21069 0.83138 0.0
C261 C 0.54322 0.20766 0.90568 0.0
C262 C 0.47917 0.17652 0.65937 0.0
C263 C 0.47603 0.29303 0.75273 0.0
C264 C 0.43309 0.21684 0.87145 0.0
C265 C 0.36445 0.25033 0.49304 0.0
C266 C 0.32567 0.25194 0.33446 0.0
C267 C 0.35248 0.2863 0.39265 0.0
C268 C 0.37161 0.28547 0.47077 0.0
C269 C 0.33768 0.21553 0.43273 0.0
C270 C 0.31845 0.21637 0.35419 0.0
C271 C 0.38494 0.25259 0.59048 0.0
H272 H 0.50222 0.10527 0.82546 0.0
H273 H 0.47025 0.11051 0.69636 0.0
H274 H 0.53152 0.24016 0.83157 0.0
H275 H 0.56359 0.23491 0.96279 0.0
H276 H 0.35865 0.31458 0.38305 0.0
H277 H 0.392 0.31298 0.51803 0.0
H278 H 0.33151 0.18808 0.44912 0.0
H279 H 0.29789 0.18955 0.31119 0.0
Dy280 Dy 0.95459 0.20433 0.66602 0.0
Dy281 Dy 0.91224 0.22451 0.63373 0.0
C282 C 0.97417 0.29423 0.72511 0.0
O283 O 0.95634 0.22438 0.87157 0.0
O284 O 0.91588 0.20982 0.81239 0.0
O285 O 0.99357 0.22248 0.75939 0.0
O286 O 0.96237 0.1632 0.59588 0.0
O287 O 0.88794 0.15634 0.53879 0.0
O288 O 0.91757 0.14937 0.65336 0.0
O289 O 0.92395 0.23148 0.46393 0.0
O290 O 0.9341 0.18832 0.44992 0.0
O291 O 0.87397 0.20908 0.53668 0.0
O292 O 0.90507 0.26573 0.71009 0.0
C293 C 0.93681 0.21824 0.90007 0.0
O294 O 0.97554 0.26648 0.66531 0.0
O295 O 0.95347 0.28386 0.74917 0.0
C296 C 1.00548 0.19621 0.60824 0.0
C297 C 0.03917 0.20654 0.47943 0.0
C298 C 1.03317 0.23321 0.50026 0.0
C299 C 1.01642 0.22802 0.56368 0.0
C300 C 1.01133 0.16947 0.58695 0.0
C301 C 1.02792 0.17448 0.52284 0.0
C302 C 0.98754 0.18988 0.67402 0.0
C303 C 0.89333 0.1339 0.57883 0.0
C304 C 0.92963 0.21031 0.40114 0.0
C305 C 0.8615 0.23352 0.69281 0.0
C306 C 0.82664 0.22148 0.8162 0.0
C307 C 0.81762 0.19233 0.69038 0.0
C308 C 0.83485 0.19824 0.6294 0.0
C309 C 0.87032 0.26294 0.81746 0.0
C310 C 0.85315 0.25697 0.87832 0.0
C311 C 0.88006 0.24052 0.62921 0.0
H312 H 0.04109 0.25771 0.46561 0.0
H313 H 1.01184 0.24862 0.57691 0.0
H314 H 1.003 0.1446 0.61985 0.0
H315 H 1.03223 0.15352 0.50854 0.0
H316 H 0.79725 0.16477 0.63961 0.0
H317 H 0.82727 0.17519 0.53263 0.0
H318 H 0.89055 0.29086 0.86822 0.0
H319 H 0.86056 0.28055 -0.0267 0.0
Dy320 Dy 0.89403 0.66709 0.55302 0.0
Dy321 Dy 0.96861 0.75722 0.72065 0.0
C322 C 0.93073 0.76967 0.66869 0.0
O323 O 0.9076 0.67909 0.3897 0.0
O324 O 0.9528 0.73882 0.4979 0.0
O325 O 0.86335 0.67273 0.51376 0.0
O326 O 0.85329 0.61299 0.47218 0.0
O327 O 0.93915 0.69052 0.63121 0.0
O328 O 0.90593 0.62706 0.54456 0.0
O329 O 0.95528 0.74302 0.88246 0.0
O330 O 0.91 0.68354 0.77495 0.0
O331 O 1.00003 0.75321 0.76133 0.0
O332 O 1.00907 0.8123 0.8044 0.0
C333 C 0.93045 0.7083 0.39067 0.0
O334 O 0.92381 0.73344 0.64313 0.0
O335 O 0.9563 0.79687 0.72616 0.0
C336 C 0.82688 0.62505 0.54977 0.0
C337 C 0.79266 0.60961 0.6792 0.0
C338 C 0.79514 0.63107 0.59563 0.0
C339 C 0.81193 0.63846 0.53108 0.0
C340 C 0.82487 0.60429 0.63525 0.0
C341 C 0.8079 0.59659 0.69904 0.0
C342 C 0.84485 0.63411 0.48213 0.0
C343 C 0.93157 0.65376 0.60129 0.0
C344 C 0.93278 0.71296 0.88171 0.0
C345 C 0.0368 0.80284 0.73112 0.0
C346 C 0.07294 0.8226 0.61206 0.0
C347 C 0.07041 0.80061 0.69384 0.0
C348 C 0.05266 0.79108 0.75324 0.0
C349 C 0.03883 0.82406 0.64716 0.0
C350 C 0.05676 0.83389 0.58848 0.0
C351 C 1.01816 0.79211 0.79516 0.0
H352 H 0.78429 0.64255 0.58107 0.0
H353 H 0.8134 0.655 0.46707 0.0
H354 H 0.8364 0.59399 0.65293 0.0
H355 H 0.80646 0.58 0.76276 0.0
H356 H 0.082 0.79042 0.71108 0.0
H357 H 0.05123 0.77428 0.8163 0.0
H358 H 1.02663 0.83312 0.62688 0.0
H359 H 0.05817 0.85075 0.52575 0.0
C360 C 0.10999 0.54008 0.53595 0.0
C361 C 0.09434 0.54696 0.58119 0.0
C362 C 0.11115 0.54126 0.41333 0.0
C363 C 0.09703 0.55002 0.33287 0.0
H364 H 0.12143 0.53364 0.59562 0.0
H365 H 0.12353 0.53591 0.38256 0.0
S366 S 0.05269 0.56947 0.40481 0.0
N367 N 0.06403 0.56208 0.53544 0.0
N368 N 0.0663 0.56457 0.30452 0.0
C369 C 0.0811 0.55662 0.37624 0.0
C370 C 0.07968 0.55494 0.50052 0.0
C371 C 0.58814 0.55209 0.60435 0.0
C372 C 0.60193 0.54285 0.68426 0.0
C373 C 0.58952 0.5534 0.48202 0.0
C374 C 0.60448 0.54497 0.4351 0.0
H375 H 0.5768 0.55944 0.63813 0.0
H376 H 0.57876 0.56104 0.42396 0.0
S377 S 0.64254 0.51602 0.60416 0.0
N378 N 0.62978 0.52294 0.70621 0.0
N379 N 0.63245 0.52536 0.47614 0.0
C380 C 0.61775 0.53451 0.51276 0.0
C381 C 0.61647 0.53349 0.63756 0.0
C382 C 0.59559 0.0591 0.58903 0.0
C383 C 0.61897 0.08024 0.70523 0.0
C384 C 0.59632 0.06263 0.46785 0.0
C385 C 0.62044 0.08792 0.45886 0.0
H386 H 0.57652 0.03919 0.59079 0.0
H387 H 0.57781 0.04516 0.3801 0.0
S388 S 0.68729 0.15055 0.73318 0.0
N389 N 0.66713 0.12808 0.80377 0.0
N390 N 0.66819 0.13471 0.57485 0.0
C391 C 0.64397 0.10996 0.57424 0.0
C392 C 0.64331 0.10602 0.6977 0.0
C393 C 0.75588 0.89148 0.76334 0.0
C394 C 0.77082 0.88322 0.716 0.0
C395 C 0.75455 0.89001 0.88545 0.0
C396 C 0.76778 0.87962 0.9634 0.0
H397 H 0.74509 0.89916 0.70562 0.0
H398 H 0.74272 0.89646 0.91776 0.0
S399 S 0.81006 0.85615 0.88542 0.0
N400 N 0.79952 0.86504 0.75713 0.0
N401 N 0.79696 0.86206 -0.0128 0.0
C402 C 0.78303 0.87166 0.91802 0.0
C403 C 0.78461 0.87361 0.79419 0.0
C404 C 0.27422 0.87104 0.67887 0.0
C405 C 0.26254 0.88421 0.60543 0.0
C406 C 0.27244 0.8688 0.79962 0.0
C407 C 0.25856 0.87898 0.85005 0.0
H408 H 0.28505 0.86276 0.64376 0.0
H409 H 0.28199 0.85891 0.85379 0.0
S410 S 0.22435 0.91509 0.69667 0.0
N411 N 0.23657 0.90766 0.59216 0.0
N412 N 0.23302 0.9028 0.81907 0.0
C413 C 0.24651 0.89172 0.77736 0.0
C414 C 0.24862 0.89461 0.65514 0.0
C415 C 0.26009 0.33936 0.63778 0.0
C416 C 0.24192 0.34091 0.5512 0.0
C417 C 0.25843 0.33385 0.75609 0.0
C418 C 0.23835 0.32911 0.79039 0.0
H419 H 0.27566 0.34228 0.61396 0.0
H420 H 0.27315 0.33386 0.82218 0.0
S421 S 0.18782 0.33533 0.60789 0.0
N422 N 0.20436 0.34019 0.51446 0.0
N423 N 0.20125 0.32924 0.73621 0.0
C424 C 0.22027 0.33098 0.70633 0.0
C425 C 0.22203 0.33696 0.58662 0.0
C426 C 0.44368 0.20326 0.19832 0.0
C427 C 0.42923 0.21217 0.24805 0.0
C428 C 0.44477 0.20478 0.07598 0.0
C429 C 0.43175 0.21585 0.00025 0.0
H430 H 0.45416 0.19482 0.25391 0.0
H431 H 0.45614 0.19767 0.04139 0.0
S432 S 0.39106 0.24181 0.08605 0.0
N433 N 0.40146 0.2322 0.21247 0.0
N434 N 0.40357 0.23524 -0.01821 0.0
C435 C 0.41717 0.22481 0.04857 0.0
C436 C 0.41583 0.22283 0.17266 0.0
C437 C 0.9202 0.22493 0.19946 0.0
C438 C 0.93223 0.21262 0.27505 0.0
C439 C 0.92246 0.22763 0.07996 0.0
C440 C 0.93711 0.21861 0.03254 0.0
H441 H 0.9086 0.23197 0.23155 0.0
H442 H 0.91247 0.23664 0.02383 0.0
S443 S 0.97365 0.18706 0.19685 0.0
N444 N 0.96027 0.19283 0.29715 0.0
N445 N 0.96447 0.19806 0.07156 0.0
C446 C 0.94986 0.20732 0.10868 0.0
C447 C 0.94736 0.20415 0.23006 0.0
C448 C 0.90838 0.69242 0.1505 0.0
C449 C 0.93123 0.70785 0.26035 0.0
C450 C 0.90914 0.69436 0.02816 0.0
C451 C 0.93276 0.71163 0.01182 0.0
H452 H 0.88991 0.6796 0.15972 0.0
H453 H 0.89115 0.68279 0.94655 0.0
S454 S 0.99729 0.75176 0.26434 0.0
N455 N 0.97766 0.73793 0.34274 0.0
N456 N 0.97901 0.74144 0.11154 0.0
C457 C 0.95559 0.72605 0.11961 0.0
C458 C 0.95483 0.72411 0.2443 0.0
C459 C 0.23077 0.44758 0.22812 0.0
C460 C 0.21446 0.40475 0.16666 0.0
C461 C 0.22042 0.46814 0.21187 0.0
C462 C 0.19342 0.44659 0.13359 0.0
H463 H 0.25178 0.46542 0.28606 0.0
H464 H 0.23378 0.50118 0.25744 0.0
S465 S 0.14168 0.33419 0.96555 0.0
N466 N 0.16933 0.34144 0.03418 0.0
N467 N 0.15025 0.38022 0.00437 0.0
C468 C 0.17676 0.40382 0.07644 0.0
C469 C 0.18717 0.38289 0.09287 0.0
C470 C 0.66081 0.69831 0.14945 0.0
C471 C 0.66548 0.67198 0.17939 0.0
C472 C 0.68169 0.73878 0.17714 0.0
C473 C 0.70819 0.75472 0.23583 0.0
H474 H 0.64084 0.68772 0.10453 0.0
H475 H 0.67692 0.75776 0.15311 0.0
S476 S 0.73123 0.69783 0.32705 0.0
N477 N 0.69881 0.6645 0.26677 0.0
N478 N 0.73787 0.74031 0.31885 0.0
C479 C 0.71318 0.72862 0.26519 0.0
C480 C 0.69191 0.68739 0.237 0.0
C481 C 0.42857 0.92745 -0.01478 0.0
C482 C 0.45181 0.9374 0.07569 0.0
C483 C 0.40737 0.91654 0.01962 0.0
C484 C 0.40843 0.91508 0.14605 0.0
H485 H 0.42678 0.92829 0.88691 0.0
H486 H 0.38999 0.90931 0.94652 0.0
S487 S 0.46413 0.93607 0.41674 0.0
N488 N 0.4742 0.9437 0.29591 0.0
N489 N 0.43442 0.9232 0.36039 0.0
C490 C 0.43155 0.92496 0.2376 0.0
C491 C 0.45317 0.93609 0.20253 0.0
C492 C 0.56549 0.13027 0.08989 0.0
C493 C 0.58734 0.14284 0.05924 0.0
C494 C 0.54968 0.14099 0.0455 0.0
C495 C 0.55502 0.16469 0.96856 0.0
H496 H 0.55992 0.11072 0.14459 0.0
H497 H 0.53258 0.12946 0.06781 0.0
S498 S 0.61053 0.20712 0.86595 0.0
N499 N 0.61425 0.1822 0.95263 0.0
N500 N 0.58427 0.20176 0.86781 0.0
C501 C 0.57752 0.17916 0.94267 0.0
C502 C 0.59373 0.16838 -0.01165 0.0
C503 C 0.99414 0.36809 0.8199 0.0
C504 C 0.9962 0.33821 0.76426 0.0
C505 C 1.01435 0.40964 0.85643 0.0
C506 C 0.03766 0.42339 0.83937 0.0
H507 H 0.9767 0.35946 0.83526 0.0
H508 H 1.01156 0.43111 0.89868 0.0
S509 S 0.05319 0.35768 0.69873 0.0
N510 N 1.02372 0.32549 0.69441 0.0
N511 N 0.0616 0.40336 0.76297 0.0
C512 C 0.04007 0.39386 0.78407 0.0
C513 C 1.01942 0.35143 0.74662 0.0
C514 C 0.78257 0.60715 0.88273 0.0
C515 C 0.7743 0.60083 0.7457 0.0
C516 C 0.76549 0.59854 0.94686 0.0
C517 C 0.73952 0.58351 0.87682 0.0
H518 H 0.80248 0.61913 0.94132 0.0
H519 H 0.77274 0.60395 0.05242 0.0
S520 S 0.70752 0.55907 0.5147 0.0
N521 N 0.73784 0.57665 0.54069 0.0
N522 N 0.70603 0.56115 0.6616 0.0
C523 C 0.73097 0.57695 0.73985 0.0
C524 C 0.74826 0.58544 0.6743 0.0
C525 C 0.97142 0.66838 0.76309 0.0
C526 C 0.94926 0.64364 0.63867 0.0
C527 C 0.9879 0.65847 0.80343 0.0
C528 C 0.98269 0.62316 0.72127 0.0
H529 H 0.97552 0.6948 0.83209 0.0
H530 H 1.00464 0.6783 0.90083 0.0
S531 S 0.92634 0.54747 0.38755 0.0
N532 N 0.92261 0.58217 0.43415 0.0
N533 N 0.95319 0.56288 0.51051 0.0
C534 C 0.9605 0.59814 0.59633 0.0
C535 C 0.94378 0.60837 0.55537 0.0
C536 C 0.51708 0.40788 0.88553 0.0
C537 C 0.54313 0.42189 0.9259 0.0
C538 C 0.49569 0.36623 0.83155 0.0
C539 C 0.49943 0.3368 0.81767 0.0
H540 H 0.51304 0.42918 0.89277 0.0
H541 H 0.476 0.35706 0.80013 0.0
S542 S 0.56373 0.35741 0.91403 0.0
N543 N 0.57157 0.40303 0.9519 0.0
N544 N 0.53121 0.32452 0.85203 0.0
C545 C 0.52538 0.3503 0.86077 0.0
C546 C 0.54725 0.39287 0.91411 0.0
C547 C 0.78391 0.20526 0.80671 0.0
C548 C 0.80836 0.21564 0.8809 0.0
C549 C 0.76695 0.20165 0.86717 0.0
C550 C 0.77359 0.20783 0.004 0.0
H551 H 0.77804 0.20068 0.70159 0.0
H552 H 0.7484 0.19377 0.80591 0.0
S553 S 0.83494 0.2342 0.2417 0.0
N554 N 0.83798 0.23079 0.09781 0.0
N555 N 0.80632 0.2245 0.21156 0.0
C556 C 0.79781 0.21762 0.07884 0.0
C557 C 0.81513 0.22148 0.01743 0.0
C558 C 0.62708 0.97039 0.05085 0.0
C559 C 0.6435 1.01111 0.06488 0.0
C560 C 0.63736 0.94999 0.0728 0.0
C561 C 0.6643 0.96939 0.10737 0.0
H562 H 0.60646 0.95482 0.02901 0.0
H563 H 0.62424 0.91908 0.06543 0.0
S564 S 0.71498 0.07452 0.14412 0.0
N565 N 0.6876 0.06906 0.10586 0.0
N566 N 0.7068 1.03082 0.14749 0.0
C567 C 0.68059 1.00938 0.11517 0.0
C568 C 0.67022 1.03021 0.09395 0.0
C569 C 0.20253 0.72885 0.11727 0.0
C570 C 0.19828 0.75749 0.11992 0.0
C571 C 0.18186 0.68826 0.08973 0.0
C572 C 0.15603 0.67456 0.06138 0.0
H573 H 0.22208 0.73798 0.13928 0.0
H574 H 0.18615 0.66738 0.0895 0.0
S575 S 0.13429 0.73719 0.05172 0.0
N576 N 0.16611 0.7691 0.08942 0.0
N577 N 0.12734 0.69286 0.03612 0.0
C578 C 0.15142 0.70272 0.06147 0.0
C579 C 0.17251 0.74415 0.09125 0.0
C580 C 0.45718 0.51875 0.27055 0.0
C581 C 0.45457 0.50978 0.1367 0.0
C582 C 0.43547 0.50726 0.30088 0.0
C583 C 0.4102 0.48639 0.1987 0.0
H584 H 0.47616 0.53452 0.35269 0.0
H585 H 0.43848 0.51453 0.40541 0.0
S586 S 0.39319 0.45829 0.83247 0.0
N587 N 0.42489 0.48033 0.90144 0.0
N588 N 0.38421 0.45897 0.95826 0.0
C589 C 0.40736 0.47751 0.06443 0.0
C590 C 0.42947 0.48914 0.03355 0.0
C591 C 0.91572 0.81062 0.71615 0.0
C592 C 0.91262 0.7788 0.62611 0.0
C593 C 0.89917 0.82057 0.67657 0.0
C594 C 0.87922 0.7994 0.54482 0.0
H595 H 0.93109 0.82802 0.81778 0.0
H596 H 0.90259 0.84586 0.74828 0.0
S597 S 0.86363 0.7142 0.27007 0.0
N598 N 0.88884 0.72722 0.39859 0.0
N599 N 0.85708 0.74456 0.32547 0.0
C600 C 0.87584 0.76722 0.45448 0.0
C601 C 0.89273 0.7573 0.49472 0.0
C602 C 0.369 0.06156 0.42756 0.0
C603 C 0.36515 0.09087 0.44277 0.0
C604 C 0.3478 1.02003 0.38248 0.0
C605 C 0.32183 1.00605 0.3486 0.0
H606 H 0.38865 0.07081 0.45395 0.0
H607 H 0.35184 0.99873 0.37408 0.0
S608 S 0.30099 0.07025 0.36479 0.0
N609 N 0.33329 0.10296 0.41678 0.0
N610 N 0.29338 1.02487 0.33032 0.0
C611 C 0.3176 0.03494 0.36019 0.0
C612 C 0.33927 0.07733 0.40788 0.0
C613 C 0.04927 0.1784 0.30448 0.0
C614 C 0.05701 0.21181 0.41228 0.0
C615 C 0.066 0.18233 0.24182 0.0
C616 C 0.09129 0.21968 0.28566 0.0
H617 H 1.03008 0.14896 0.26809 0.0
H618 H 0.05931 0.15568 0.16033 0.0
S619 S 0.12087 0.31664 0.56219 0.0
N620 N 0.09163 0.28359 0.55916 0.0
N621 N 0.12288 0.29106 0.44086 0.0
C622 C 0.09914 0.25342 0.39227 0.0
C623 C 0.08206 0.24949 0.45548 0.0
C624 C 0.28472 0.24418 0.30486 0.0
C625 C 0.30545 0.25521 0.26568 0.0
C626 C 0.26853 0.25445 0.26195 0.0
C627 C 0.27263 0.2763 0.17904 0.0
H628 H 0.28203 0.22984 0.376 0.0
H629 H 0.25391 0.24758 0.30137 0.0
S630 S 0.32097 0.30547 0.02815 0.0
N631 N 0.32663 0.28378 0.12349 0.0
N632 N 0.29655 0.30364 0.04455 0.0
C633 C 0.29191 0.2846 0.13068 0.0
C634 C 0.30824 0.27394 0.17362 0.0
C635 C 0.82414 1.03322 0.45676 0.0
C636 C 0.82885 1.00534 0.46289 0.0
C637 C 0.84502 0.07464 0.49367 0.0
C638 C 0.87146 0.08993 0.54015 0.0
H639 H 0.80414 1.02285 0.42057 0.0
H640 H 0.84036 0.09483 0.48612 0.0
S641 S 0.8944 1.02968 0.58116 0.0
N642 N 0.86203 0.99625 0.52333 0.0
N643 N 0.90103 0.07357 0.59272 0.0
C644 C 0.8764 0.06238 0.54909 0.0
C645 C 0.85518 1.02029 0.51046 0.0
C646 C 0.08471 0.82762 0.41425 0.0
C647 C 0.09228 0.83356 0.55097 0.0
C648 C 0.10257 0.83769 0.35457 0.0
C649 C 0.12868 0.85392 0.429 0.0
H650 H 0.06471 0.81463 0.35229 0.0
H651 H 0.09579 0.83225 0.24881 0.0
S652 S 0.15908 0.87841 0.79274 0.0
N653 N 0.12825 0.85898 0.7608 0.0
N654 N 0.16158 0.87734 0.64827 0.0
C655 C 0.13659 0.86039 0.56598 0.0
C656 C 0.11848 0.85036 0.62696 0.0
loop_
_geom_bond_atom_site_label_1
_geom_bond_atom_site_label_2
_geom_bond_distance
_geom_bond_site_symmetry_2
_ccdc_geom_bond_type
Dy0 O3 2.307 . S
Dy0 O5 2.395 . S
Dy0 O6 2.379 1_556 S
Dy0 O8 2.339 1_556 S
Dy0 O10 2.298 1_556 S
Dy0 O14 2.275 . S
Dy0 C22 2.738 . S
Dy1 O4 2.298 1_554 S
Dy1 O7 2.275 . S
Dy1 O9 2.307 . S
Dy1 O11 2.395 . S
Dy1 O12 2.379 1_554 S
Dy1 O15 2.339 1_554 S
Dy1 C31 2.738 . S
C2 O14 1.254 . S
C2 O15 1.257 . S
O3 Dy0 2.307 . S
O3 C13 1.266 . S
O4 Dy1 2.298 1_556 S
O4 C13 1.236 . S
O5 Dy0 2.395 . S
O5 C22 1.255 . S
O6 Dy0 2.379 1_554 S
O6 C22 1.249 1_554 S
O7 Dy1 2.275 . S
O7 C23 1.254 . S
O8 Dy0 2.339 1_554 S
O8 C23 1.257 . S
O9 Dy1 2.307 . S
O9 C24 1.266 . S
O10 Dy0 2.298 1_554 S
O10 C24 1.236 . S
O11 Dy1 2.395 . S
O11 C31 1.255 . S
O12 Dy1 2.379 1_556 S
O12 C31 1.249 1_556 S
C13 O3 1.266 . S
C13 O4 1.236 . S
O14 Dy0 2.275 . S
O14 C2 1.254 . S
O15 Dy1 2.339 1_556 S
O15 C2 1.257 . S
C16 C19 1.344 . S
C16 C20 1.328 1_456 S
C16 C22 1.516 . S
C17 C18 1.304 1_655 S
C17 C21 1.323 . S
C18 C17 1.304 1_455 S
C18 C19 1.371 . S
C18 H32 0.930 . S
C19 C16 1.344 . S
C19 C18 1.371 . S
C19 H33 0.931 . S
C20 C16 1.328 1_654 S
C20 C21 1.433 1_554 S
C20 H34 0.931 . S
C21 C17 1.323 . S
C21 C20 1.433 1_556 S
C21 H35 0.933 1_556 S
C22 Dy0 2.738 . S
C22 O5 1.255 . S
C22 O6 1.249 1_556 S
C22 C16 1.516 . S
C23 O7 1.254 . S
C23 O8 1.257 . S
C24 O9 1.266 . S
C24 O10 1.236 . S
C25 C28 1.344 . S
C25 C29 1.328 1_554 S
C25 C31 1.516 . S
C26 C27 1.304 . S
C26 C30 1.323 . S
C27 C26 1.304 . S
C27 C28 1.371 . S
C27 H36 0.930 . S
C28 C25 1.344 . S
C28 C27 1.371 . S
C28 H37 0.931 . S
C29 C25 1.328 1_556 S
C29 C30 1.433 1_556 S
C29 H38 0.931 . S
C30 C26 1.323 . S
C30 C29 1.433 1_554 S
C30 H39 0.933 1_554 S
C31 Dy1 2.738 . S
C31 O11 1.255 . S
C31 O12 1.249 1_554 S
C31 C25 1.516 . S
H32 C18 0.930 . S
H33 C19 0.931 . S
H34 C20 0.931 . S
H35 C21 0.933 1_554 S
H36 C27 0.930 . S
H37 C28 0.931 . S
H38 C29 0.931 . S
H39 C30 0.933 1_556 S
Dy40 O43 2.307 . S
Dy40 O45 2.395 . S
Dy40 O46 2.379 1_554 S
Dy40 O48 2.339 1_554 S
Dy40 O50 2.298 1_554 S
Dy40 O54 2.275 . S
Dy40 C62 2.738 . S
Dy41 O44 2.298 . S
Dy41 O47 2.275 1_554 S
Dy41 O49 2.307 . S
Dy41 O51 2.395 . S
Dy41 O52 2.379 . S
Dy41 O55 2.339 . S
Dy41 C71 2.738 . S
C42 O54 1.254 . S
C42 O55 1.257 . S
O43 Dy40 2.307 . S
O43 C53 1.266 . S
O44 Dy41 2.298 . S
O44 C53 1.236 . S
O45 Dy40 2.395 . S
O45 C62 1.255 . S
O46 Dy40 2.379 1_556 S
O46 C62 1.249 1_556 S
O47 Dy41 2.275 1_556 S
O47 C63 1.254 . S
O48 Dy40 2.339 1_556 S
O48 C63 1.257 . S
O49 Dy41 2.307 . S
O49 C64 1.266 . S
O50 Dy40 2.298 1_556 S
O50 C64 1.236 1_556 S
O51 Dy41 2.395 . S
O51 C71 1.255 . S
O52 Dy41 2.379 . S
O52 C71 1.249 . S
C53 O43 1.266 . S
C53 O44 1.236 . S
O54 Dy40 2.275 . S
O54 C42 1.254 . S
O55 Dy41 2.339 . S
O55 C42 1.257 . S
C56 C59 1.344 . S
C56 C60 1.328 1_554 S
C56 C62 1.516 . S
C57 C58 1.304 . S
C57 C61 1.323 1_554 S
C58 C57 1.304 . S
C58 C59 1.371 . S
C58 H72 0.930 . S
C59 C56 1.344 . S
C59 C58 1.371 . S
C59 H73 0.931 . S
C60 C56 1.328 1_556 S
C60 C61 1.433 . S
C60 H74 0.931 . S
C61 C57 1.323 1_556 S
C61 C60 1.433 . S
C61 H75 0.933 . S
C62 Dy40 2.738 . S
C62 O45 1.255 . S
C62 O46 1.249 1_554 S
C62 C56 1.516 . S
C63 O47 1.254 . S
C63 O48 1.257 . S
C64 O49 1.266 . S
C64 O50 1.236 1_554 S
C65 C68 1.344 . S
C65 C69 1.328 . S
C65 C71 1.516 . S
C66 C67 1.304 . S
C66 C70 1.323 . S
C67 C66 1.304 . S
C67 C68 1.371 . S
C67 H76 0.930 1_554 S
C68 C65 1.344 . S
C68 C67 1.371 . S
C68 H77 0.931 1_554 S
C69 C65 1.328 . S
C69 C70 1.433 . S
C69 H78 0.931 . S
C70 C66 1.323 . S
C70 C69 1.433 . S
C70 H79 0.933 . S
C71 Dy41 2.738 . S
C71 O51 1.255 . S
C71 O52 1.249 . S
C71 C65 1.516 . S
H72 C58 0.930 . S
H73 C59 0.931 . S
H74 C60 0.931 . S
H75 C61 0.933 . S
H76 C67 0.930 1_556 S
H77 C68 0.931 1_556 S
H78 C69 0.931 . S
H79 C70 0.933 . S
Dy80 O83 2.307 . S
Dy80 O85 2.395 . S
Dy80 O86 2.379 . S
Dy80 O88 2.339 . S
Dy80 O90 2.298 . S
Dy80 O94 2.275 . S
Dy80 C102 2.738 . S
Dy81 O84 2.298 . S
Dy81 O87 2.275 . S
Dy81 O89 2.307 . S
Dy81 O91 2.395 . S
Dy81 O92 2.379 1_545 S
Dy81 O95 2.339 1_554 S
Dy81 C111 2.730 . S
C82 O94 1.254 . S
C82 O95 1.257 1_554 S
O83 Dy80 2.307 . S
O83 C93 1.266 . S
O84 Dy81 2.298 . S
O84 C93 1.236 . S
O85 Dy80 2.395 . S
O85 C102 1.255 . S
O86 Dy80 2.379 . S
O86 C102 1.249 . S
O87 Dy81 2.275 . S
O87 C103 1.254 . S
O88 Dy80 2.339 . S
O88 C103 1.257 . S
O89 Dy81 2.307 . S
O89 C104 1.266 . S
O90 Dy80 2.298 . S
O90 C104 1.236 . S
O91 Dy81 2.395 . S
O91 C111 1.253 . S
O92 Dy81 2.379 1_565 S
O92 C111 1.245 1_565 S
C93 O83 1.266 . S
C93 O84 1.236 . S
O94 Dy80 2.275 . S
O94 C82 1.254 . S
O95 Dy81 2.339 1_556 S
O95 C82 1.257 1_556 S
C96 C99 1.344 . S
C96 C100 1.328 . S
C96 C102 1.516 . S
C97 C98 1.304 . S
C97 C101 1.323 . S
C98 C97 1.304 . S
C98 C99 1.371 . S
C98 H112 0.930 . S
C99 C96 1.344 . S
C99 C98 1.371 . S
C99 H113 0.931 . S
C100 C96 1.328 . S
C100 C101 1.433 . S
C100 H114 0.931 . S
C101 C97 1.323 . S
C101 C100 1.433 . S
C101 H115 0.933 . S
C102 Dy80 2.738 . S
C102 O85 1.255 . S
C102 O86 1.249 . S
C102 C96 1.516 . S
C103 O87 1.254 . S
C103 O88 1.257 . S
C104 O89 1.266 . S
C104 O90 1.236 . S
C105 C108 1.353 . S
C105 C109 1.328 . S
C105 C111 1.524 1_565 S
C106 C107 1.304 . S
C106 C110 1.323 . S
C107 C106 1.304 . S
C107 C108 1.367 . S
C107 H116 0.930 . S
C108 C105 1.353 . S
C108 C107 1.367 . S
C108 H117 0.926 1_565 S
C109 C105 1.328 . S
C109 C110 1.433 . S
C109 H118 0.931 1_554 S
C110 C106 1.323 . S
C110 C109 1.433 . S
C110 H119 0.933 1_554 S
C111 Dy81 2.730 . S
C111 O91 1.253 . S
C111 O92 1.245 1_545 S
C111 C105 1.524 1_545 S
H112 C98 0.930 . S
H113 C99 0.931 . S
H114 C100 0.931 . S
H115 C101 0.933 . S
H116 C107 0.930 . S
H117 C108 0.926 1_545 S
H118 C109 0.931 1_556 S
H119 C110 0.933 1_556 S
Dy120 O123 2.307 . S
Dy120 O125 2.395 . S
Dy120 O126 2.379 . S
Dy120 O128 2.339 . S
Dy120 O130 2.298 . S
Dy120 O134 2.275 . S
Dy120 C142 2.738 . S
Dy121 O124 2.298 . S
Dy121 O127 2.275 . S
Dy121 O129 2.307 . S
Dy121 O131 2.395 . S
Dy121 O132 2.379 . S
Dy121 O135 2.339 . S
Dy121 C151 2.738 . S
C122 O134 1.254 . S
C122 O135 1.257 . S
O123 Dy120 2.307 . S
O123 C133 1.266 . S
O124 Dy121 2.298 . S
O124 C133 1.236 . S
O125 Dy120 2.395 . S
O125 C142 1.255 . S
O126 Dy120 2.379 . S
O126 C142 1.249 . S
O127 Dy121 2.275 . S
O127 C143 1.254 . S
O128 Dy120 2.339 . S
O128 C143 1.257 . S
O129 Dy121 2.307 . S
O129 C144 1.266 . S
O130 Dy120 2.298 . S
O130 C144 1.236 . S
O131 Dy121 2.395 . S
O131 C151 1.255 . S
O132 Dy121 2.379 . S
O132 C151 1.249 . S
C133 O123 1.266 . S
C133 O124 1.236 . S
O134 Dy120 2.275 . S
O134 C122 1.254 . S
O135 Dy121 2.339 . S
O135 C122 1.257 . S
C136 C139 1.344 . S
C136 C140 1.328 . S
C136 C142 1.516 . S
C137 C138 1.304 . S
C137 C141 1.323 . S
C138 C137 1.304 . S
C138 C139 1.371 . S
C138 H152 0.930 . S
C139 C136 1.344 . S
C139 C138 1.371 . S
C139 H153 0.931 . S
C140 C136 1.328 . S
C140 C141 1.433 . S
C140 H154 0.931 . S
C141 C137 1.323 . S
C141 C140 1.433 . S
C141 H155 0.933 . S
C142 Dy120 2.738 . S
C142 O125 1.255 . S
C142 O126 1.249 . S
C142 C136 1.516 . S
C143 O127 1.254 . S
C143 O128 1.257 . S
C144 O129 1.266 . S
C144 O130 1.236 . S
C145 C148 1.344 . S
C145 C149 1.328 . S
C145 C151 1.516 . S
C146 C147 1.304 . S
C146 C150 1.323 . S
C147 C146 1.304 . S
C147 C148 1.371 . S
C147 H156 0.930 . S
C148 C145 1.344 . S
C148 C147 1.371 . S
C148 H157 0.931 . S
C149 C145 1.328 . S
C149 C150 1.433 . S
C149 H158 0.931 . S
C150 C146 1.323 . S
C150 C149 1.433 . S
C150 H159 0.933 . S
C151 Dy121 2.738 . S
C151 O131 1.255 . S
C151 O132 1.249 . S
C151 C145 1.516 . S
H152 C138 0.930 . S
H153 C139 0.931 . S
H154 C140 0.931 . S
H155 C141 0.933 . S
H156 C147 0.930 . S
H157 C148 0.931 . S
H158 C149 0.931 . S
H159 C150 0.933 . S
Dy160 O163 2.307 . S
Dy160 O165 2.395 . S
Dy160 O166 2.379 . S
Dy160 O168 2.339 1_554 S
Dy160 O170 2.298 . S
Dy160 O174 2.275 . S
Dy160 C182 2.738 . S
Dy161 O164 2.298 . S
Dy161 O167 2.275 . S
Dy161 O169 2.307 . S
Dy161 O171 2.395 . S
Dy161 O172 2.379 . S
Dy161 O175 2.339 . S
Dy161 C191 2.738 . S
C162 O174 1.254 . S
C162 O175 1.257 . S
O163 Dy160 2.307 . S
O163 C173 1.266 . S
O164 Dy161 2.298 . S
O164 C173 1.236 . S
O165 Dy160 2.395 . S
O165 C182 1.255 . S
O166 Dy160 2.379 . S
O166 C182 1.249 . S
O167 Dy161 2.275 . S
O167 C183 1.254 1_554 S
O168 Dy160 2.339 1_556 S
O168 C183 1.257 . S
O169 Dy161 2.307 . S
O169 C184 1.266 . S
O170 Dy160 2.298 . S
O170 C184 1.236 . S
O171 Dy161 2.395 . S
O171 C191 1.255 . S
O172 Dy161 2.379 . S
O172 C191 1.249 . S
C173 O163 1.266 . S
C173 O164 1.236 . S
O174 Dy160 2.275 . S
O174 C162 1.254 . S
O175 Dy161 2.339 . S
O175 C162 1.257 . S
C176 C179 1.344 . S
C176 C180 1.328 . S
C176 C182 1.516 . S
C177 C178 1.304 . S
C177 C181 1.323 . S
C178 C177 1.304 . S
C178 C179 1.371 . S
C178 H192 0.930 . S
C179 C176 1.344 . S
C179 C178 1.371 . S
C179 H193 0.931 . S
C180 C176 1.328 . S
C180 C181 1.433 . S
C180 H194 0.931 . S
C181 C177 1.323 . S
C181 C180 1.433 . S
C181 H195 0.933 . S
C182 Dy160 2.738 . S
C182 O165 1.255 . S
C182 O166 1.249 . S
C182 C176 1.516 . S
C183 O167 1.254 1_556 S
C183 O168 1.257 . S
C184 O169 1.266 . S
C184 O170 1.236 . S
C185 C188 1.344 . S
C185 C189 1.328 . S
C185 C191 1.516 . S
C186 C187 1.304 . S
C186 C190 1.323 . S
C187 C186 1.304 . S
C187 C188 1.371 . S
C187 H196 0.930 . S
C188 C185 1.344 . S
C188 C187 1.371 . S
C188 H197 0.931 . S
C189 C185 1.328 . S
C189 C190 1.433 . S
C189 H198 0.931 . S
C190 C186 1.323 . S
C190 C189 1.433 . S
C190 H199 0.933 . S
C191 Dy161 2.738 . S
C191 O171 1.255 . S
C191 O172 1.249 . S
C191 C185 1.516 . S
H192 C178 0.930 . S
H193 C179 0.931 . S
H194 C180 0.931 . S
H195 C181 0.933 . S
H196 C187 0.930 . S
H197 C188 0.931 . S
H198 C189 0.931 . S
H199 C190 0.933 . S
Dy200 O203 2.307 . S
Dy200 O205 2.395 . S
Dy200 O206 2.379 . S
Dy200 O208 2.339 . S
Dy200 O210 2.298 . S
Dy200 O214 2.275 1_554 S
Dy200 C222 2.738 . S
Dy201 O204 2.298 . S
Dy201 O207 2.275 1_556 S
Dy201 O209 2.307 1_556 S
Dy201 O211 2.395 1_556 S
Dy201 O212 2.379 . S
Dy201 O215 2.339 . S
Dy201 C231 2.738 . S
C202 O214 1.254 . S
C202 O215 1.257 . S
O203 Dy200 2.307 . S
O203 C213 1.266 . S
O204 Dy201 2.298 . S
O204 C213 1.236 1_556 S
O205 Dy200 2.395 . S
O205 C222 1.255 . S
O206 Dy200 2.379 . S
O206 C222 1.249 . S
O207 Dy201 2.275 1_554 S
O207 C223 1.254 . S
O208 Dy200 2.339 . S
O208 C223 1.257 . S
O209 Dy201 2.307 1_554 S
O209 C224 1.266 . S
O210 Dy200 2.298 . S
O210 C224 1.236 . S
O211 Dy201 2.395 1_554 S
O211 C231 1.255 1_554 S
O212 Dy201 2.379 . S
O212 C231 1.249 . S
C213 O203 1.266 . S
C213 O204 1.236 1_554 S
O214 Dy200 2.275 1_556 S
O214 C202 1.254 . S
O215 Dy201 2.339 . S
O215 C202 1.257 . S
C216 C219 1.344 . S
C216 C220 1.328 . S
C216 C222 1.516 . S
C217 C218 1.304 . S
C217 C221 1.323 . S
C218 C217 1.304 . S
C218 C219 1.371 . S
C218 H232 0.930 1_554 S
C219 C216 1.344 . S
C219 C218 1.371 . S
C219 H233 0.931 1_554 S
C220 C216 1.328 . S
C220 C221 1.433 . S
C220 H234 0.931 . S
C221 C217 1.323 . S
C221 C220 1.433 . S
C221 H235 0.933 . S
C222 Dy200 2.738 . S
C222 O205 1.255 . S
C222 O206 1.249 . S
C222 C216 1.516 . S
C223 O207 1.254 . S
C223 O208 1.257 . S
C224 O209 1.266 . S
C224 O210 1.236 . S
C225 C228 1.344 1_556 S
C225 C229 1.328 . S
C225 C231 1.516 . S
C226 C227 1.304 1_556 S
C226 C230 1.323 . S
C227 C226 1.304 1_554 S
C227 C228 1.371 . S
C227 H236 0.930 . S
C228 C225 1.344 1_554 S
C228 C227 1.371 . S
C228 H237 0.931 . S
C229 C225 1.328 . S
C229 C230 1.433 . S
C229 H238 0.931 . S
C230 C226 1.323 . S
C230 C229 1.433 . S
C230 H239 0.933 . S
C231 Dy201 2.738 . S
C231 O211 1.255 1_556 S
C231 O212 1.249 . S
C231 C225 1.516 . S
H232 C218 0.930 1_556 S
H233 C219 0.931 1_556 S
H234 C220 0.931 . S
H235 C221 0.933 . S
H236 C227 0.930 . S
H237 C228 0.931 . S
H238 C229 0.931 . S
H239 C230 0.933 . S
Dy240 O243 2.307 . S
Dy240 O245 2.395 . S
Dy240 O246 2.379 . S
Dy240 O248 2.339 . S
Dy240 O250 2.298 . S
Dy240 O254 2.275 . S
Dy240 C262 2.738 . S
Dy241 O244 2.298 . S
Dy241 O247 2.275 . S
Dy241 O249 2.307 . S
Dy241 O251 2.395 . S
Dy241 O252 2.379 . S
Dy241 O255 2.339 . S
Dy241 C271 2.738 . S
C242 O254 1.254 . S
C242 O255 1.257 . S
O243 Dy240 2.307 . S
O243 C253 1.266 . S
O244 Dy241 2.298 . S
O244 C253 1.236 . S
O245 Dy240 2.395 . S
O245 C262 1.255 . S
O246 Dy240 2.379 . S
O246 C262 1.249 . S
O247 Dy241 2.275 . S
O247 C263 1.254 . S
O248 Dy240 2.339 . S
O248 C263 1.257 . S
O249 Dy241 2.307 . S
O249 C264 1.266 . S
O250 Dy240 2.298 . S
O250 C264 1.236 . S
O251 Dy241 2.395 . S
O251 C271 1.255 . S
O252 Dy241 2.379 . S
O252 C271 1.249 . S
C253 O243 1.266 . S
C253 O244 1.236 . S
O254 Dy240 2.275 . S
O254 C242 1.254 . S
O255 Dy241 2.339 . S
O255 C242 1.257 . S
C256 C259 1.344 . S
C256 C260 1.328 . S
C256 C262 1.516 . S
C257 C258 1.304 1_554 S
C257 C261 1.323 . S
C258 C257 1.304 1_556 S
C258 C259 1.371 . S
C258 H272 0.930 . S
C259 C256 1.344 . S
C259 C258 1.371 . S
C259 H273 0.931 . S
C260 C256 1.328 . S
C260 C261 1.433 1_556 S
C260 H274 0.931 . S
C261 C257 1.323 . S
C261 C260 1.433 1_554 S
C261 H275 0.933 . S
C262 Dy240 2.738 . S
C262 O245 1.255 . S
C262 O246 1.249 . S
C262 C256 1.516 . S
C263 O247 1.254 . S
C263 O248 1.257 . S
C264 O249 1.266 . S
C264 O250 1.236 . S
C265 C268 1.344 . S
C265 C269 1.328 . S
C265 C271 1.516 . S
C266 C267 1.304 . S
C266 C270 1.323 . S
C267 C266 1.304 . S
C267 C268 1.371 . S
C267 H276 0.930 . S
C268 C265 1.344 . S
C268 C267 1.371 . S
C268 H277 0.931 . S
C269 C265 1.328 . S
C269 C270 1.433 . S
C269 H278 0.931 . S
C270 C266 1.323 . S
C270 C269 1.433 . S
C270 H279 0.933 . S
C271 Dy241 2.738 . S
C271 O251 1.255 . S
C271 O252 1.249 . S
C271 C265 1.516 . S
H272 C258 0.930 . S
H273 C259 0.931 . S
H274 C260 0.931 . S
H275 C261 0.933 . S
H276 C267 0.930 . S
H277 C268 0.931 . S
H278 C269 0.931 . S
H279 C270 0.933 . S
Dy280 O283 2.307 . S
Dy280 O285 2.395 . S
Dy280 O286 2.379 . S
Dy280 O288 2.339 . S
Dy280 O290 2.298 . S
Dy280 O294 2.275 . S
Dy280 C302 2.738 . S
Dy281 O284 2.298 . S
Dy281 O287 2.275 . S
Dy281 O289 2.307 . S
Dy281 O291 2.395 . S
Dy281 O292 2.379 . S
Dy281 O295 2.339 . S
Dy281 C311 2.738 . S
C282 O294 1.254 . S
C282 O295 1.257 . S
O283 Dy280 2.307 . S
O283 C293 1.266 . S
O284 Dy281 2.298 . S
O284 C293 1.236 . S
O285 Dy280 2.395 . S
O285 C302 1.255 . S
O286 Dy280 2.379 . S
O286 C302 1.249 . S
O287 Dy281 2.275 . S
O287 C303 1.254 . S
O288 Dy280 2.339 . S
O288 C303 1.257 . S
O289 Dy281 2.307 . S
O289 C304 1.266 . S
O290 Dy280 2.298 . S
O290 C304 1.236 . S
O291 Dy281 2.395 . S
O291 C311 1.255 . S
O292 Dy281 2.379 . S
O292 C311 1.249 . S
C293 O283 1.266 . S
C293 O284 1.236 . S
O294 Dy280 2.275 . S
O294 C282 1.254 . S
O295 Dy281 2.339 . S
O295 C282 1.257 . S
C296 C299 1.344 . S
C296 C300 1.328 . S
C296 C302 1.516 . S
C297 C298 1.304 . S
C297 C301 1.323 1_455 S
C298 C297 1.304 . S
C298 C299 1.371 1_455 S
C298 H312 0.930 . S
C299 C296 1.344 . S
C299 C298 1.371 1_655 S
C299 H313 0.931 . S
C300 C296 1.328 . S
C300 C301 1.433 . S
C300 H314 0.931 . S
C301 C297 1.323 1_655 S
C301 C300 1.433 . S
C301 H315 0.933 . S
C302 Dy280 2.738 . S
C302 O285 1.255 . S
C302 O286 1.249 . S
C302 C296 1.516 . S
C303 O287 1.254 . S
C303 O288 1.257 . S
C304 O289 1.266 . S
C304 O290 1.236 . S
C305 C308 1.344 . S
C305 C309 1.328 . S
C305 C311 1.516 . S
C306 C307 1.304 . S
C306 C310 1.323 . S
C307 C306 1.304 . S
C307 C308 1.371 . S
C307 H316 0.930 . S
C308 C305 1.344 . S
C308 C307 1.371 . S
C308 H317 0.931 . S
C309 C305 1.328 . S
C309 C310 1.433 . S
C309 H318 0.931 . S
C310 C306 1.323 . S
C310 C309 1.433 . S
C310 H319 0.933 . S
C311 Dy281 2.738 . S
C311 O291 1.255 . S
C311 O292 1.249 . S
C311 C305 1.516 . S
H312 C298 0.930 . S
H313 C299 0.931 . S
H314 C300 0.931 . S
H315 C301 0.933 . S
H316 C307 0.930 . S
H317 C308 0.931 . S
H318 C309 0.931 . S
H319 C310 0.933 . S
Dy320 O323 2.307 . S
Dy320 O325 2.395 . S
Dy320 O326 2.379 . S
Dy320 O328 2.339 . S
Dy320 O330 2.298 . S
Dy320 O334 2.275 . S
Dy320 C342 2.738 . S
Dy321 O324 2.298 . S
Dy321 O327 2.275 . S
Dy321 O329 2.307 . S
Dy321 O331 2.395 . S
Dy321 O332 2.379 . S
Dy321 O335 2.339 . S
Dy321 C351 2.738 . S
C322 O334 1.254 . S
C322 O335 1.257 . S
O323 Dy320 2.307 . S
O323 C333 1.266 . S
O324 Dy321 2.298 . S
O324 C333 1.236 . S
O325 Dy320 2.395 . S
O325 C342 1.255 . S
O326 Dy320 2.379 . S
O326 C342 1.249 . S
O327 Dy321 2.275 . S
O327 C343 1.254 . S
O328 Dy320 2.339 . S
O328 C343 1.257 . S
O329 Dy321 2.307 . S
O329 C344 1.266 . S
O330 Dy320 2.298 . S
O330 C344 1.236 . S
O331 Dy321 2.395 . S
O331 C351 1.255 . S
O332 Dy321 2.379 . S
O332 C351 1.249 . S
C333 O323 1.266 . S
C333 O324 1.236 . S
O334 Dy320 2.275 . S
O334 C322 1.254 . S
O335 Dy321 2.339 . S
O335 C322 1.257 . S
C336 C339 1.344 . S
C336 C340 1.328 . S
C336 C342 1.516 . S
C337 C338 1.304 . S
C337 C341 1.323 . S
C338 C337 1.304 . S
C338 C339 1.371 . S
C338 H352 0.930 . S
C339 C336 1.344 . S
C339 C338 1.371 . S
C339 H353 0.931 . S
C340 C336 1.328 . S
C340 C341 1.433 . S
C340 H354 0.931 . S
C341 C337 1.323 . S
C341 C340 1.433 . S
C341 H355 0.933 . S
C342 Dy320 2.738 . S
C342 O325 1.255 . S
C342 O326 1.249 . S
C342 C336 1.516 . S
C343 O327 1.254 . S
C343 O328 1.257 . S
C344 O329 1.266 . S
C344 O330 1.236 . S
C345 C348 1.344 . S
C345 C349 1.328 1_655 S
C345 C351 1.516 . S
C346 C347 1.304 . S
C346 C350 1.323 . S
C347 C346 1.304 . S
C347 C348 1.371 1_455 S
C347 H356 0.930 . S
C348 C345 1.344 . S
C348 C347 1.371 1_655 S
C348 H357 0.931 . S
C349 C345 1.328 1_455 S
C349 C350 1.433 . S
C349 H358 0.931 1_455 S
C350 C346 1.323 . S
C350 C349 1.433 . S
C350 H359 0.933 . S
C351 Dy321 2.738 . S
C351 O331 1.255 . S
C351 O332 1.249 . S
C351 C345 1.516 . S
H352 C338 0.930 . S
H353 C339 0.931 . S
H354 C340 0.931 . S
H355 C341 0.933 . S
H356 C347 0.930 . S
H357 C348 0.931 . S
H358 C349 0.931 1_655 S
H359 C350 0.933 . S
C360 C361 1.369 . S
C360 C362 1.419 . S
C360 H364 0.930 . S
C361 C360 1.369 . S
C361 C370 1.429 . S
C362 C360 1.419 . S
C362 C363 1.363 . S
C362 H365 0.929 . S
C363 C362 1.363 . S
C363 C369 1.428 . S
H364 C360 0.930 . S
H365 C362 0.929 . S
S366 N367 1.613 1_655 S
S366 N368 1.610 1_655 S
N367 S366 1.613 1_455 S
N367 C370 1.350 . S
N368 S366 1.610 1_455 S
N368 C369 1.351 . S
C369 C363 1.428 . S
C369 N368 1.351 . S
C369 C370 1.434 . S
C370 C361 1.429 . S
C370 N367 1.350 . S
C370 C369 1.434 . S
C371 C372 1.369 . S
C371 C373 1.419 . S
C371 H375 0.930 . S
C372 C371 1.369 . S
C372 C381 1.429 . S
C373 C371 1.419 . S
C373 C374 1.363 . S
C373 H376 0.929 . S
C374 C373 1.363 . S
C374 C380 1.428 . S
H375 C371 0.930 . S
H376 C373 0.929 . S
S377 N378 1.613 . S
S377 N379 1.610 . S
N378 S377 1.613 . S
N378 C381 1.350 . S
N379 S377 1.610 . S
N379 C380 1.351 . S
C380 C374 1.428 . S
C380 N379 1.351 . S
C380 C381 1.434 . S
C381 C372 1.429 . S
C381 N378 1.350 . S
C381 C380 1.434 . S
C382 C383 1.369 . S
C382 C384 1.419 . S
C382 H386 0.930 . S
C383 C382 1.369 . S
C383 C392 1.429 . S
C384 C382 1.419 . S
C384 C385 1.363 . S
C384 H387 0.929 . S
C385 C384 1.363 . S
C385 C391 1.428 . S
H386 C382 0.930 . S
H387 C384 0.929 . S
S388 N389 1.613 . S
S388 N390 1.610 . S
N389 S388 1.613 . S
N389 C392 1.350 . S
N390 S388 1.610 . S
N390 C391 1.351 . S
C391 C385 1.428 . S
C391 N390 1.351 . S
C391 C392 1.434 . S
C392 C383 1.429 . S
C392 N389 1.350 . S
C392 C391 1.434 . S
C393 C394 1.369 . S
C393 C395 1.419 . S
C393 H397 0.930 . S
C394 C393 1.369 . S
C394 C403 1.429 . S
C395 C393 1.419 . S
C395 C396 1.363 . S
C395 H398 0.929 . S
C396 C395 1.363 . S
C396 C402 1.428 . S
H397 C393 0.930 . S
H398 C395 0.929 . S
S399 N400 1.620 . S
S399 N401 1.605 1_556 S
N400 S399 1.620 . S
N400 C403 1.350 . S
N401 S399 1.605 1_554 S
N401 C402 1.351 1_554 S
C402 C396 1.428 . S
C402 N401 1.351 1_556 S
C402 C403 1.434 . S
C403 C394 1.429 . S
C403 N400 1.350 . S
C403 C402 1.434 . S
C404 C405 1.369 . S
C404 C406 1.419 . S
C404 H408 0.930 . S
C405 C404 1.369 . S
C405 C414 1.429 . S
C406 C404 1.419 . S
C406 C407 1.363 . S
C406 H409 0.929 . S
C407 C406 1.363 . S
C407 C413 1.428 . S
H408 C404 0.930 . S
H409 C406 0.929 . S
S410 N411 1.613 . S
S410 N412 1.610 . S
N411 S410 1.613 . S
N411 C414 1.350 . S
N412 S410 1.610 . S
N412 C413 1.351 . S
C413 C407 1.428 . S
C413 N412 1.351 . S
C413 C414 1.434 . S
C414 C405 1.429 . S
C414 N411 1.350 . S
C414 C413 1.434 . S
C415 C416 1.369 . S
C415 C417 1.419 . S
C415 H419 0.930 . S
C416 C415 1.369 . S
C416 C425 1.429 . S
C417 C415 1.419 . S
C417 C418 1.363 . S
C417 H420 0.929 . S
C418 C417 1.363 . S
C418 C424 1.428 . S
H419 C415 0.930 . S
H420 C417 0.929 . S
S421 N422 1.613 . S
S421 N423 1.610 . S
N422 S421 1.613 . S
N422 C425 1.350 . S
N423 S421 1.610 . S
N423 C424 1.351 . S
C424 C418 1.428 . S
C424 N423 1.351 . S
C424 C425 1.434 . S
C425 C416 1.429 . S
C425 N422 1.350 . S
C425 C424 1.434 . S
C426 C427 1.369 . S
C426 C428 1.419 . S
C426 H430 0.930 . S
C427 C426 1.369 . S
C427 C436 1.429 . S
C428 C426 1.419 . S
C428 C429 1.363 . S
C428 H431 0.929 . S
C429 C428 1.363 . S
C429 C435 1.428 . S
H430 C426 0.930 . S
H431 C428 0.929 . S
S432 N433 1.613 . S
S432 N434 1.610 . S
N433 S432 1.613 . S
N433 C436 1.350 . S
N434 S432 1.610 . S
N434 C435 1.351 . S
C435 C429 1.428 . S
C435 N434 1.351 . S
C435 C436 1.434 . S
C436 C427 1.429 . S
C436 N433 1.350 . S
C436 C435 1.434 . S
C437 C438 1.369 . S
C437 C439 1.419 . S
C437 H441 0.930 . S
C438 C437 1.369 . S
C438 C447 1.429 . S
C439 C437 1.419 . S
C439 C440 1.363 . S
C439 H442 0.929 . S
C440 C439 1.363 . S
C440 C446 1.428 . S
H441 C437 0.930 . S
H442 C439 0.929 . S
S443 N444 1.613 . S
S443 N445 1.610 1_554 S
N444 S443 1.613 . S
N444 C447 1.350 . S
N445 S443 1.610 1_556 S
N445 C446 1.351 1_556 S
C446 C440 1.428 . S
C446 N445 1.351 1_554 S
C446 C447 1.434 . S
C447 C438 1.429 . S
C447 N444 1.350 . S
C447 C446 1.434 . S
C448 C449 1.369 . S
C448 C450 1.419 . S
C448 H452 0.930 . S
C449 C448 1.369 . S
C449 C458 1.429 . S
C450 C448 1.419 . S
C450 C451 1.363 . S
C450 H453 0.929 1_554 S
C451 C450 1.363 . S
C451 C457 1.428 . S
H452 C448 0.930 . S
H453 C450 0.929 1_556 S
S454 N455 1.613 . S
S454 N456 1.610 . S
N455 S454 1.613 . S
N455 C458 1.350 . S
N456 S454 1.610 . S
N456 C457 1.351 . S
C457 C451 1.428 . S
C457 N456 1.351 . S
C457 C458 1.434 . S
C458 C449 1.429 . S
C458 N455 1.350 . S
C458 C457 1.434 . S
C459 C460 1.369 . S
C459 C461 1.419 . S
C459 H463 0.930 . S
C460 C459 1.369 . S
C460 C469 1.429 1_554 S
C461 C459 1.419 . S
C461 C462 1.363 . S
C461 H464 0.929 . S
C462 C461 1.363 . S
C462 C468 1.428 1_554 S
H463 C459 0.930 . S
H464 C461 0.929 . S
S465 N466 1.613 . S
S465 N467 1.610 . S
N466 S465 1.613 . S
N466 C469 1.350 . S
N467 S465 1.610 . S
N467 C468 1.351 . S
C468 C462 1.428 1_556 S
C468 N467 1.351 . S
C468 C469 1.434 . S
C469 C460 1.429 1_556 S
C469 N466 1.350 . S
C469 C468 1.434 . S
C470 C471 1.369 . S
C470 C472 1.419 . S
C470 H474 0.930 . S
C471 C470 1.369 . S
C471 C480 1.429 . S
C472 C470 1.419 . S
C472 C473 1.363 . S
C472 H475 0.929 . S
C473 C472 1.363 . S
C473 C479 1.428 . S
H474 C470 0.930 . S
H475 C472 0.929 . S
S476 N477 1.613 . S
S476 N478 1.610 . S
N477 S476 1.613 . S
N477 C480 1.350 . S
N478 S476 1.610 . S
N478 C479 1.351 . S
C479 C473 1.428 . S
C479 N478 1.351 . S
C479 C480 1.434 . S
C480 C471 1.429 . S
C480 N477 1.350 . S
C480 C479 1.434 . S
C481 C482 1.369 . S
C481 C483 1.419 . S
C481 H485 0.930 . S
C482 C481 1.369 . S
C482 C491 1.429 . S
C483 C481 1.419 . S
C483 C484 1.363 . S
C483 H486 0.929 . S
C484 C483 1.363 . S
C484 C490 1.428 . S
H485 C481 0.930 . S
H486 C483 0.929 . S
S487 N488 1.613 . S
S487 N489 1.610 . S
N488 S487 1.613 . S
N488 C491 1.350 . S
N489 S487 1.610 . S
N489 C490 1.351 . S
C490 C484 1.428 . S
C490 N489 1.351 . S
C490 C491 1.434 . S
C491 C482 1.429 . S
C491 N488 1.350 . S
C491 C490 1.434 . S
C492 C493 1.369 . S
C492 C494 1.419 . S
C492 H496 0.930 . S
C493 C492 1.369 . S
C493 C502 1.429 . S
C494 C492 1.419 . S
C494 C495 1.363 . S
C494 H497 0.929 . S
C495 C494 1.363 . S
C495 C501 1.428 . S
H496 C492 0.930 . S
H497 C494 0.929 . S
S498 N499 1.613 1_556 S
S498 N500 1.610 . S
N499 S498 1.613 1_554 S
N499 C502 1.350 . S
N500 S498 1.610 . S
N500 C501 1.351 1_556 S
C501 C495 1.428 . S
C501 N500 1.351 1_554 S
C501 C502 1.434 . S
C502 C493 1.429 . S
C502 N499 1.350 . S
C502 C501 1.434 . S
C503 C504 1.369 . S
C503 C505 1.419 . S
C503 H507 0.930 . S
C504 C503 1.369 . S
C504 C513 1.429 . S
C505 C503 1.419 . S
C505 C506 1.363 . S
C505 H508 0.929 . S
C506 C505 1.363 . S
C506 C512 1.428 . S
H507 C503 0.930 . S
H508 C505 0.929 . S
S509 N510 1.613 1_455 S
S509 N511 1.610 . S
N510 S509 1.613 1_655 S
N510 C513 1.350 . S
N511 S509 1.610 . S
N511 C512 1.351 1_455 S
C512 C506 1.428 . S
C512 N511 1.351 1_655 S
C512 C513 1.434 . S
C513 C504 1.429 . S
C513 N510 1.350 . S
C513 C512 1.434 . S
C514 C515 1.369 . S
C514 C516 1.419 1_556 S
C514 H518 0.930 . S
C515 C514 1.369 . S
C515 C524 1.429 . S
C516 C514 1.419 1_554 S
C516 C517 1.363 . S
C516 H519 0.929 . S
C517 C516 1.363 . S
C517 C523 1.428 1_554 S
H518 C514 0.930 . S
H519 C516 0.929 . S
S520 N521 1.613 . S
S520 N522 1.610 . S
N521 S520 1.613 . S
N521 C524 1.350 . S
N522 S520 1.610 . S
N522 C523 1.351 . S
C523 C517 1.428 1_556 S
C523 N522 1.351 . S
C523 C524 1.434 . S
C524 C515 1.429 . S
C524 N521 1.350 . S
C524 C523 1.434 . S
C525 C526 1.369 . S
C525 C527 1.419 . S
C525 H529 0.930 . S
C526 C525 1.369 . S
C526 C535 1.429 . S
C527 C525 1.419 . S
C527 C528 1.363 . S
C527 H530 0.929 1_556 S
C528 C527 1.363 . S
C528 C534 1.428 . S
H529 C525 0.930 . S
H530 C527 0.929 1_554 S
S531 N532 1.613 . S
S531 N533 1.610 . S
N532 S531 1.613 . S
N532 C535 1.350 . S
N533 S531 1.610 . S
N533 C534 1.351 . S
C534 C528 1.428 . S
C534 N533 1.351 . S
C534 C535 1.434 . S
C535 C526 1.429 . S
C535 N532 1.350 . S
C535 C534 1.434 . S
C536 C537 1.369 . S
C536 C538 1.419 . S
C536 H540 0.930 . S
C537 C536 1.369 . S
C537 C546 1.429 . S
C538 C536 1.419 . S
C538 C539 1.363 . S
C538 H541 0.929 . S
C539 C538 1.363 . S
C539 C545 1.428 . S
H540 C536 0.930 . S
H541 C538 0.929 . S
S542 N543 1.613 . S
S542 N544 1.610 . S
N543 S542 1.613 . S
N543 C546 1.350 . S
N544 S542 1.610 . S
N544 C545 1.351 . S
C545 C539 1.428 . S
C545 N544 1.351 . S
C545 C546 1.434 . S
C546 C537 1.429 . S
C546 N543 1.350 . S
C546 C545 1.434 . S
C547 C548 1.369 . S
C547 C549 1.419 . S
C547 H551 0.930 1_554 S
C548 C547 1.369 . S
C548 C557 1.429 . S
C549 C547 1.419 . S
C549 C550 1.363 . S
C549 H552 0.929 . S
C550 C549 1.363 . S
C550 C556 1.428 . S
H551 C547 0.930 1_556 S
H552 C549 0.929 . S
S553 N554 1.613 . S
S553 N555 1.610 . S
N554 S553 1.613 . S
N554 C557 1.350 . S
N555 S553 1.610 . S
N555 C556 1.351 . S
C556 C550 1.428 . S
C556 N555 1.351 . S
C556 C557 1.434 . S
C557 C548 1.429 . S
C557 N554 1.350 . S
C557 C556 1.434 . S
C558 C559 1.369 1_565 S
C558 C560 1.419 . S
C558 H562 0.930 . S
C559 C558 1.369 1_545 S
C559 C568 1.429 . S
C560 C558 1.419 . S
C560 C561 1.363 . S
C560 H563 0.929 . S
C561 C560 1.363 . S
C561 C567 1.428 1_565 S
H562 C558 0.930 . S
H563 C560 0.929 . S
S564 N565 1.613 . S
S564 N566 1.610 . S
N565 S564 1.613 . S
N565 C568 1.350 . S
N566 S564 1.610 . S
N566 C567 1.351 . S
C567 C561 1.428 1_545 S
C567 N566 1.351 . S
C567 C568 1.434 . S
C568 C559 1.429 . S
C568 N565 1.350 . S
C568 C567 1.434 . S
C569 C570 1.369 . S
C569 C571 1.419 . S
C569 H573 0.930 . S
C570 C569 1.369 . S
C570 C579 1.429 . S
C571 C569 1.419 . S
C571 C572 1.363 . S
C571 H574 0.929 . S
C572 C571 1.363 . S
C572 C578 1.428 . S
H573 C569 0.930 . S
H574 C571 0.929 . S
S575 N576 1.613 . S
S575 N577 1.610 . S
N576 S575 1.613 . S
N576 C579 1.350 . S
N577 S575 1.610 . S
N577 C578 1.351 . S
C578 C572 1.428 . S
C578 N577 1.351 . S
C578 C579 1.434 . S
C579 C570 1.429 . S
C579 N576 1.350 . S
C579 C578 1.434 . S
C580 C581 1.369 . S
C580 C582 1.419 . S
C580 H584 0.930 . S
C581 C580 1.369 . S
C581 C590 1.429 . S
C582 C580 1.419 . S
C582 C583 1.363 . S
C582 H585 0.929 . S
C583 C582 1.363 . S
C583 C589 1.428 . S
H584 C580 0.930 . S
H585 C582 0.929 . S
S586 N587 1.613 . S
S586 N588 1.610 . S
N587 S586 1.613 . S
N587 C590 1.350 1_556 S
N588 S586 1.610 . S
N588 C589 1.351 1_556 S
C589 C583 1.428 . S
C589 N588 1.351 1_554 S
C589 C590 1.434 . S
C590 C581 1.429 . S
C590 N587 1.350 1_554 S
C590 C589 1.434 . S
C591 C592 1.369 . S
C591 C593 1.419 . S
C591 H595 0.930 . S
C592 C591 1.369 . S
C592 C601 1.429 . S
C593 C591 1.419 . S
C593 C594 1.363 . S
C593 H596 0.929 . S
C594 C593 1.363 . S
C594 C600 1.428 . S
H595 C591 0.930 . S
H596 C593 0.929 . S
S597 N598 1.613 . S
S597 N599 1.610 . S
N598 S597 1.613 . S
N598 C601 1.350 . S
N599 S597 1.610 . S
N599 C600 1.351 . S
C600 C594 1.428 . S
C600 N599 1.351 . S
C600 C601 1.434 . S
C601 C592 1.429 . S
C601 N598 1.350 . S
C601 C600 1.434 . S
C602 C603 1.369 . S
C602 C604 1.419 1_545 S
C602 H606 0.930 . S
C603 C602 1.369 . S
C603 C612 1.429 . S
C604 C602 1.419 1_565 S
C604 C605 1.363 . S
C604 H607 0.929 . S
C605 C604 1.363 . S
C605 C611 1.428 1_565 S
H606 C602 0.930 . S
H607 C604 0.929 . S
S608 N609 1.613 . S
S608 N610 1.610 . S
N609 S608 1.613 . S
N609 C612 1.350 . S
N610 S608 1.610 . S
N610 C611 1.351 . S
C611 C605 1.428 1_545 S
C611 N610 1.351 . S
C611 C612 1.434 . S
C612 C603 1.429 . S
C612 N609 1.350 . S
C612 C611 1.434 . S
C613 C614 1.369 . S
C613 C615 1.419 . S
C613 H617 0.930 1_455 S
C614 C613 1.369 . S
C614 C623 1.429 . S
C615 C613 1.419 . S
C615 C616 1.363 . S
C615 H618 0.929 . S
C616 C615 1.363 . S
C616 C622 1.428 . S
H617 C613 0.930 1_655 S
H618 C615 0.929 . S
S619 N620 1.613 . S
S619 N621 1.610 . S
N620 S619 1.613 . S
N620 C623 1.350 . S
N621 S619 1.610 . S
N621 C622 1.351 . S
C622 C616 1.428 . S
C622 N621 1.351 . S
C622 C623 1.434 . S
C623 C614 1.429 . S
C623 N620 1.350 . S
C623 C622 1.434 . S
C624 C625 1.369 . S
C624 C626 1.419 . S
C624 H628 0.930 . S
C625 C624 1.369 . S
C625 C634 1.429 . S
C626 C624 1.419 . S
C626 C627 1.363 . S
C626 H629 0.929 . S
C627 C626 1.363 . S
C627 C633 1.428 . S
H628 C624 0.930 . S
H629 C626 0.929 . S
S630 N631 1.613 . S
S630 N632 1.610 . S
N631 S630 1.613 . S
N631 C634 1.350 1_556 S
N632 S630 1.610 . S
N632 C633 1.351 1_556 S
C633 C627 1.428 . S
C633 N632 1.351 1_554 S
C633 C634 1.434 . S
C634 C625 1.429 . S
C634 N631 1.350 1_554 S
C634 C633 1.434 . S
C635 C636 1.369 1_545 S
C635 C637 1.419 . S
C635 H639 0.930 1_545 S
C636 C635 1.369 1_565 S
C636 C645 1.429 . S
C637 C635 1.419 . S
C637 C638 1.363 . S
C637 H640 0.929 . S
C638 C637 1.363 . S
C638 C644 1.428 . S
H639 C635 0.930 1_565 S
H640 C637 0.929 . S
S641 N642 1.613 1_545 S
S641 N643 1.610 . S
N642 S641 1.613 1_565 S
N642 C645 1.350 . S
N643 S641 1.610 . S
N643 C644 1.351 . S
C644 C638 1.428 . S
C644 N643 1.351 . S
C644 C645 1.434 1_545 S
C645 C636 1.429 . S
C645 N642 1.350 . S
C645 C644 1.434 1_565 S
C646 C647 1.369 . S
C646 C648 1.419 . S
C646 H650 0.930 . S
C647 C646 1.369 . S
C647 C656 1.429 . S
C648 C646 1.419 . S
C648 C649 1.363 . S
C648 H651 0.929 . S
C649 C648 1.363 . S
C649 C655 1.428 . S
H650 C646 0.930 . S
H651 C648 0.929 . S
S652 N653 1.613 . S
S652 N654 1.610 . S
N653 S652 1.613 . S
N653 C656 1.350 . S
N654 S652 1.610 . S
N654 C655 1.351 . S
C655 C649 1.428 . S
C655 N654 1.351 . S
C655 C656 1.434 . S
C656 C647 1.429 . S
C656 N653 1.350 . S
C656 C655 1.434 . S
C361 C2 1.352 . S
C363 C23 1.345 . S
C372 C63 1.470 . S
C374 C42 1.468 . S
C383 C82 1.537 1_556 S
C385 C103 1.535 . S
C394 C143 1.353 . S
C396 C122 1.344 1_556 S
C405 C162 1.469 . S
C407 C183 1.468 . S
C416 C223 1.538 . S
C418 C202 1.534 . S
C427 C253 1.274 . S
C429 C264 1.267 1_554 S
C438 C304 1.217 . S
C440 C293 1.217 1_554 S
C449 C333 1.359 . S
C451 C344 1.365 1_554 S
C460 C213 1.969 . S
C462 C26 1.956 . S
C471 C53 2.577 . S
C473 C133 2.567 . S
C482 C106 1.324 . S
C484 C186 1.354 . S
C493 C93 1.755 . S
C495 C257 1.835 . S
C504 C282 1.822 . S
C506 C13 1.813 1_655 S
C515 C337 1.567 . S
C517 C66 1.590 . S
C526 C343 1.582 . S
C528 C17 1.542 . S
C537 C64 1.851 1_556 S
C539 C263 1.782 . S
C548 C306 1.958 1_554 S
C550 C97 1.745 . S
C559 C104 1.967 . S
C561 C137 1.959 . S
C570 C184 2.577 . S
C572 C24 2.568 . S
C581 C57 1.356 . S
C583 C217 1.322 . S
C592 C322 1.572 . S
C594 C146 1.546 . S
C603 C242 1.787 . S
C605 C173 1.850 . S
C614 C297 1.962 . S
C616 C226 1.738 1_554 S
C625 C266 1.839 . S
C627 C224 1.754 . S
C636 C144 1.811 . S
C638 C303 1.821 . S
C647 C346 1.573 . S
C649 C177 1.584 . S
