# Generated by pormake.
# Topology ilc, (8)-cn, num edge types: 1
# Building blocks:
#     Node 0, Type 0, BuildingBlock: EBIMEJ_clean_sbu_0, # of connection points: 8
#     Node 1, Type 0, BuildingBlock: EBIMEJ_clean_sbu_0, # of connection points: 8
#     Node 2, Type 0, BuildingBlock: EBIMEJ_clean_sbu_0, # of connection points: 8
#     Edge 3, Type (0, 0), BuildingBlock: FUNLAD_clean_linker_1, # of connection points: 2
#     Edge 4, Type (0, 0), BuildingBlock: FUNLAD_clean_linker_1, # of connection points: 2
#     Edge 5, Type (0, 0), BuildingBlock: FUNLAD_clean_linker_1, # of connection points: 2
#     Edge 6, Type (0, 0), BuildingBlock: FUNLAD_clean_linker_1, # of connection points: 2
#     Edge 7, Type (0, 0), BuildingBlock: FUNLAD_clean_linker_1, # of connection points: 2
#     Edge 8, Type (0, 0), BuildingBlock: FUNLAD_clean_linker_1, # of connection points: 2
#     Edge 9, Type (0, 0), BuildingBlock: FUNLAD_clean_linker_1, # of connection points: 2
#     Edge 10, Type (0, 0), BuildingBlock: FUNLAD_clean_linker_1, # of connection points: 2
#     Edge 11, Type (0, 0), BuildingBlock: FUNLAD_clean_linker_1, # of connection points: 2
#     Edge 12, Type (0, 0), BuildingBlock: FUNLAD_clean_linker_1, # of connection points: 2
#     Edge 13, Type (0, 0), BuildingBlock: FUNLAD_clean_linker_1, # of connection points: 2
#     Edge 14, Type (0, 0), BuildingBlock: FUNLAD_clean_linker_1, # of connection points: 2
# Relax obj value: 0.142
# Max RMSD: 0.227
# Mean RMSD: 0.227
data_MOF--net-ilc--node1-EBIMEJ_clean_sbu_0--edge1-FUNLAD_clean_linker_1
_symmetry_space_group_name_H-M    P1
_symmetry_Int_Tables_number       1
_symmetry_cell_setting            triclinic
loop_
_symmetry_equiv_pos_as_xyz
'x, y, z'
_cell_length_a     26.319857
_cell_length_b     23.863051
_cell_length_c     17.702207
_cell_angle_alpha  86.352284
_cell_angle_beta   96.774118
_cell_angle_gamma 136.00922
loop_
_atom_site_label
_atom_site_type_symbol
_atom_site_fract_x
_atom_site_fract_y
_atom_site_fract_z
_atom_type_partial_charge
Co0 Co 1.02553 0.96715 0.17282 0.0
Co1 Co 0.07285 0.97544 0.01682 0.0
Co2 Co 0.95304 0.96933 0.02215 0.0
H3 H 0.98528 0.95065 0.08523 0.0
O4 O 0.98508 0.91674 0.07046 0.0
H5 H 0.05899 0.01911 0.96236 0.0
O6 O 0.05156 0.04331 0.98499 0.0
Co7 Co 0.05712 0.05477 0.87655 0.0
O8 O 0.13303 0.06059 0.84683 0.0
O9 O 0.16176 0.03358 0.95774 0.0
O10 O 0.96992 0.03902 0.84597 0.0
O11 O 0.91774 0.00992 0.95381 0.0
O12 O 0.118 0.03706 0.25016 0.0
O13 O 1.01663 0.98378 0.27921 0.0
O14 O 0.99829 0.9447 0.83339 0.0
O15 O 1.00908 0.88965 0.93316 0.0
C16 C 0.86112 0.87758 0.14901 0.0
C17 C 0.08553 0.89778 0.14473 0.0
C18 C 0.13618 0.19145 0.82177 0.0
C19 C 0.05691 0.10608 0.13482 0.0
C20 C 0.17311 0.05611 0.88819 0.0
C21 C 0.92489 0.02877 0.88318 0.0
C22 C 0.08351 0.02826 0.30105 0.0
C23 C 0.98644 0.88689 0.86394 0.0
O24 O 0.91713 0.89727 0.18692 0.0
O25 O 0.86194 0.89764 0.07904 0.0
O26 O 0.09015 0.9127 0.07296 0.0
O27 O 0.06308 0.91598 0.18789 0.0
O28 O 0.07573 0.15302 0.84631 0.0
O29 O 0.15268 0.15353 0.83305 0.0
O30 O 0.08909 0.08547 0.15595 0.0
O31 O 0.99522 0.05772 0.09503 0.0
Co32 Co 0.67954 0.28261 0.49807 0.0
Co33 Co 0.73101 0.2937 0.33744 0.0
Co34 Co 0.62401 0.3064 0.3451 0.0
H35 H 0.64816 0.27805 0.40808 0.0
O36 O 0.64469 0.24195 0.39173 0.0
H37 H 0.7172 0.3357 0.28047 0.0
O38 O 0.71714 0.36694 0.3021 0.0
Co39 Co 0.70732 0.36081 0.19238 0.0
O40 O 0.77721 0.35673 0.16233 0.0
O41 O 0.81687 0.34617 0.27627 0.0
O42 O 0.61924 0.34323 0.16334 0.0
O43 O 0.59865 0.35735 0.27693 0.0
O44 O 0.75685 0.3326 0.59063 0.0
O45 O 0.64921 0.27185 0.60301 0.0
O46 O 0.62499 0.24207 0.17001 0.0
O47 O 0.66224 0.20286 0.25764 0.0
C48 C 0.53109 0.22999 0.47439 0.0
C49 C 0.74062 0.21403 0.46731 0.0
C50 C 0.79089 0.49199 0.12771 0.0
C51 C 0.741 0.438 0.46059 0.0
C52 C 0.82177 0.35903 0.2043 0.0
C53 C 0.59123 0.35656 0.20346 0.0
C54 C 0.71204 0.31023 0.6358 0.0
C55 C 0.62187 0.18938 0.19769 0.0
O56 O 0.58019 0.23872 0.51521 0.0
O57 O 0.53643 0.24886 0.40367 0.0
O58 O 0.74685 0.23075 0.39606 0.0
O59 O 0.71636 0.23036 0.5101 0.0
O60 O 0.72266 0.44484 0.12547 0.0
O61 O 0.81165 0.46645 0.17026 0.0
O62 O 0.75888 0.40256 0.48526 0.0
O63 O 0.682 0.40112 0.41717 0.0
Co64 Co 0.33567 0.58387 0.82523 0.0
Co65 Co 0.40762 0.63488 0.66526 0.0
Co66 Co 0.29743 0.64136 0.68534 0.0
H67 H 0.31681 0.6026 0.7386 0.0
O68 O 0.31661 0.5721 0.71469 0.0
H69 H 0.39103 0.67775 0.61478 0.0
O70 O 0.39123 0.70768 0.63995 0.0
Co71 Co 0.37214 0.69923 0.52979 0.0
O72 O 0.44972 0.70955 0.49701 0.0
O73 O 0.49547 0.69623 0.60324 0.0
O74 O 0.29686 0.70264 0.51506 0.0
O75 O 0.27267 0.69928 0.63348 0.0
O76 O 0.25803 0.501 0.8969 0.0
O77 O 0.36533 0.55859 0.92306 0.0
O78 O 0.28184 0.58001 0.53156 0.0
O79 O 0.3417 0.55115 0.58212 0.0
C80 C 0.20307 0.56014 0.81177 0.0
C81 C 0.42428 0.55264 0.78405 0.0
C82 C 0.41238 0.78642 0.41789 0.0
C83 C 0.41509 0.74979 0.81012 0.0
C84 C 0.49701 0.71296 0.53216 0.0
C85 C 0.26842 0.71005 0.5616 0.0
C86 C 0.30273 0.51093 0.9459 0.0
C87 C 0.28618 0.53056 0.54372 0.0
O88 O 0.25235 0.56928 0.85272 0.0
O89 O 0.20677 0.57447 0.74043 0.0
O90 O 0.42434 0.56886 0.7131 0.0
O91 O 0.39959 0.56386 0.83238 0.0
O92 O 0.45007 0.77853 0.45614 0.0
O93 O 0.35407 0.74813 0.44669 0.0
O94 O 0.4236 0.70388 0.8209 0.0
O95 O 0.35792 0.72535 0.77079 0.0
H96 H 0.12676 0.25458 0.73649 0.0
C97 C 0.15874 0.24231 0.75497 0.0
H98 H 0.22161 0.22678 0.721 0.0
H99 H 0.97234 0.97429 0.46962 0.0
H100 H 0.88895 0.90451 0.56565 0.0
H101 H 0.92136 0.97243 0.68733 0.0
H102 H 0.0346 0.11126 0.71039 0.0
C103 C 0.18663 0.23515 0.70239 0.0
C104 C 0.15305 0.20775 0.62218 0.0
C105 C 0.08036 0.12874 0.60549 0.0
C106 C 0.06007 0.09005 0.53424 0.0
C107 C 0.99032 0.0084 0.52143 0.0
C108 C 0.94142 0.96678 0.57635 0.0
C109 C 0.95987 0.00505 0.6448 0.0
C110 C 1.02737 0.08504 0.65867 0.0
H111 H 0.17373 0.10634 0.39389 0.0
C112 C 0.1191 0.07735 0.37145 0.0
H113 H 0.03013 0.05978 0.37869 0.0
H114 H 0.29107 0.36144 0.63255 0.0
H115 H 0.37156 0.43504 0.5315 0.0
H116 H 0.33088 0.37242 0.4032 0.0
H117 H 0.21167 0.23522 0.37658 0.0
C118 C 0.08447 0.08986 0.40373 0.0
C119 C 0.10966 0.13196 0.4779 0.0
C120 C 0.17871 0.21339 0.49132 0.0
C121 C 0.20098 0.25048 0.56425 0.0
C122 C 0.2717 0.33047 0.57796 0.0
C123 C 0.31814 0.37352 0.5204 0.0
C124 C 0.29525 0.33831 0.44822 0.0
C125 C 0.22654 0.25922 0.43365 0.0
H126 H 0.68896 0.3198 0.7448 0.0
C127 C 0.73143 0.33428 0.71612 0.0
H128 H 0.84223 0.3961 0.72244 0.0
H129 H 0.91881 0.65023 0.94562 0.0
H130 H 1.01845 0.73405 0.86456 0.0
H131 H 1.02659 0.67259 0.76642 0.0
H132 H 0.93636 0.52693 0.74988 0.0
C133 C 0.79924 0.37912 0.75229 0.0
C134 C 0.81666 0.4148 0.82908 0.0
C135 C 0.87192 0.49978 0.84019 0.0
C136 C 0.86722 0.53519 0.89693 0.0
C137 C 0.92062 0.6203 0.90433 0.0
C138 C 0.97761 0.66902 0.85774 0.0
C139 C 0.98223 0.6344 0.80246 0.0
C140 C 0.92993 0.55075 0.79329 0.0
H141 H 0.88866 0.57169 0.06946 0.0
C142 C 0.83288 0.5438 0.06455 0.0
H143 H 0.7412 0.49537 0.99 0.0
H144 H 0.72551 0.25343 0.84373 0.0
H145 H 0.62315 0.16604 0.92215 0.0
H146 H 0.60199 0.22384 1.00751 0.0
H147 H 0.68089 0.36707 0.01398 0.0
C148 C 0.796 0.52038 0.99509 0.0
C149 C 0.80672 0.48507 0.94108 0.0
C150 C 0.75616 0.39964 0.93496 0.0
C151 C 0.76514 0.36545 0.8828 0.0
C152 C 0.71831 0.28105 0.88111 0.0
C153 C 0.66031 0.23071 0.92614 0.0
C154 C 0.64841 0.26327 0.97418 0.0
C155 C 0.69517 0.34641 0.97826 0.0
H156 H 0.3432 0.53005 0.06524 0.0
C157 C 0.29709 0.51054 0.02701 0.0
H158 H 0.21432 0.50675 1.00956 0.0
H159 H 0.27644 0.64832 0.33698 0.0
H160 H 0.14605 0.52698 0.33022 0.0
H161 H 0.08208 0.4315 0.22027 0.0
H162 H 0.14877 0.45863 0.1161 0.0
C163 C 0.26125 0.52719 0.04636 0.0
C164 C 0.29551 0.59132 0.10401 0.0
C165 C 0.25536 0.57476 0.16337 0.0
C166 C 0.29234 0.62996 0.22627 0.0
C167 C 0.25165 0.6101 0.28697 0.0
C168 C 0.17642 0.53997 0.28394 0.0
C169 C 0.14038 0.4863 0.22208 0.0
C170 C 0.17932 0.50271 0.16266 0.0
H171 H 0.3829 0.80561 0.30596 0.0
C172 C 0.41078 0.79126 0.33551 0.0
H173 H 0.43651 0.72574 0.33129 0.0
H174 H 0.37737 0.66145 0.98146 0.0
H175 H 0.50862 0.78274 0.98633 0.0
H176 H 0.57587 0.87352 0.09996 0.0
H177 H 0.51292 0.83932 0.21119 0.0
C178 C 0.41296 0.74496 0.30082 0.0
C179 C 0.36917 0.7014 0.22826 0.0
C180 C 0.40666 0.72248 0.16457 0.0
C181 C 0.36883 0.66892 0.1006 0.0
C182 C 0.40579 0.69478 0.03478 0.0
C183 C 0.48031 0.76638 0.03573 0.0
C184 C 0.51833 0.81713 0.09996 0.0
C185 C 0.48181 0.79642 0.1635 0.0
H186 H 0.17966 0.70497 0.55318 0.0
C187 C 0.22728 0.72902 0.5273 0.0
H188 H 0.29393 0.79283 0.43775 0.0
H189 H 0.10435 0.88301 0.37606 0.0
H190 H 0.11482 0.90102 0.51222 0.0
H191 H 0.17591 0.87732 0.60167 0.0
H192 H 0.22145 0.82818 0.55686 0.0
C193 C 0.24554 0.76949 0.46091 0.0
C194 C 0.20357 0.78152 0.40997 0.0
C195 C 0.18482 0.81912 0.43628 0.0
C196 C 0.15696 0.84186 0.38322 0.0
C197 C 0.13025 0.86962 0.41263 0.0
C198 C 0.13544 0.87987 0.4907 0.0
C199 C 0.16942 0.8659 0.54131 0.0
C200 C 0.19451 0.83654 0.51469 0.0
H201 H 0.07808 0.79876 0.15526 0.0
C202 C 0.10378 0.85502 0.18161 0.0
H203 H 0.1679 0.93796 0.27325 0.0
H204 H 0.21074 0.6897 0.3391 0.0
H205 H 0.20819 0.67804 0.2027 0.0
H206 H 0.19822 0.75342 0.11321 0.0
H207 H 0.18204 0.83287 0.15702 0.0
C208 C 0.14467 0.88134 0.25059 0.0
C209 C 0.15752 0.83832 0.3029 0.0
C210 C 0.17722 0.8013 0.27683 0.0
C211 C 0.19387 0.76728 0.33005 0.0
C212 C 0.20284 0.72098 0.30155 0.0
C213 C 0.20114 0.71345 0.22374 0.0
C214 C 0.19444 0.75502 0.17304 0.0
C215 C 0.18361 0.79934 0.19899 0.0
H216 H 0.23819 0.41192 0.5138 0.0
C217 C 0.23435 0.45387 0.50075 0.0
H218 H 0.19481 0.48689 0.41984 0.0
H219 H 0.25395 0.34933 0.18747 0.0
H220 H 0.3685 0.4934 0.18775 0.0
H221 H 0.39269 0.58951 0.27274 0.0
H222 H 0.30476 0.54331 0.35931 0.0
C223 C 0.19556 0.44296 0.43651 0.0
C224 C 0.1741 0.38637 0.37776 0.0
C225 C 0.22402 0.41539 0.32425 0.0
C226 C 0.20954 0.36021 0.27431 0.0
C227 C 0.26252 0.38973 0.22521 0.0
C228 C 0.32797 0.47167 0.225 0.0
C229 C 0.34183 0.52593 0.27313 0.0
C230 C 0.29072 0.49851 0.32238 0.0
H231 H 0.05001 0.19105 0.15192 0.0
C232 C 0.08135 0.1777 0.16943 0.0
H233 H 0.16452 0.20598 0.24754 0.0
H234 H 0.07369 0.31192 0.48094 0.0
H235 H 0.96885 0.1671 0.49197 0.0
H236 H 0.94025 0.07231 0.39939 0.0
H237 H 1.01124 0.12099 0.2929 0.0
C238 C 0.13262 0.21836 0.22916 0.0
C239 C 0.14378 0.27685 0.27559 0.0
C240 C 0.09326 0.24839 0.32842 0.0
C241 C 0.10987 0.30306 0.38143 0.0
C242 C 0.06302 0.27257 0.43914 0.0
C243 C 1.00258 0.1899 0.44577 0.0
C244 C 0.98566 0.1366 0.39305 0.0
C245 C 1.02823 0.16539 0.33301 0.0
H246 H 0.57813 0.80477 0.45649 0.0
C247 C 0.56062 0.75347 0.48787 0.0
H248 H 0.56084 0.66564 0.4918 0.0
H249 H 0.64819 0.69645 0.16303 0.0
H250 H 0.53664 0.55403 0.17061 0.0
H251 H 0.46578 0.50173 0.28118 0.0
H252 H 0.50581 0.59081 0.38508 0.0
C253 C 0.58351 0.72158 0.46659 0.0
C254 C 0.62963 0.75413 0.39962 0.0
C255 C 0.60623 0.70102 0.33866 0.0
C256 C 0.64739 0.73139 0.2739 0.0
C257 C 0.62081 0.67663 0.21409 0.0
C258 C 0.5563 0.59475 0.21729 0.0
C259 C 0.51634 0.56533 0.27954 0.0
C260 C 0.54046 0.61741 0.33933 0.0
H261 H 0.78489 0.78435 0.22947 0.0
C262 C 0.79469 0.82855 0.19187 0.0
H263 H 0.77296 0.89747 0.16986 0.0
H264 H 0.70231 0.87468 0.50816 0.0
H265 H 0.79397 0.01831 0.48664 0.0
H266 H 0.84425 0.07022 0.36284 0.0
H267 H 0.81355 0.98075 0.2653 0.0
C268 C 0.75912 0.84863 0.2025 0.0
C269 C 0.7112 0.81552 0.26762 0.0
C270 C 0.73006 0.86898 0.32478 0.0
C271 C 0.69324 0.83838 0.39264 0.0
C272 C 0.72169 0.89404 0.45245 0.0
C273 C 0.77533 0.97676 0.44139 0.0
C274 C 0.80442 0.00603 0.37209 0.0
C275 C 0.78537 0.95361 0.31597 0.0
H276 H 0.78603 0.16276 0.46899 0.0
C277 C 0.76567 0.17762 0.50414 0.0
H278 H 0.74565 0.18069 0.61522 0.0
H279 H 0.74327 0.94322 0.78961 0.0
H280 H 0.61433 0.86653 0.77917 0.0
H281 H 0.56708 0.91158 0.69808 0.0
H282 H 0.6484 0.03335 0.62599 0.0
C283 C 0.76738 0.1671 0.58067 0.0
C284 C 0.79617 0.13613 0.62362 0.0
C285 C 0.74867 0.06526 0.66699 0.0
C286 C 0.77641 0.03987 0.71545 0.0
C287 C 0.7262 0.96695 0.75441 0.0
C288 C 0.65173 0.92184 0.74843 0.0
C289 C 0.62509 0.94717 0.70269 0.0
C290 C 0.67254 0.01755 0.66199 0.0
H291 H 0.85542 0.05143 0.87685 0.0
C292 C 0.88338 0.04561 0.84309 0.0
H293 H 0.91225 0.05278 0.73466 0.0
H294 H 0.90534 0.27876 0.5558 0.0
H295 H 0.0345 0.35705 0.56842 0.0
H296 H 0.08224 0.3131 0.65071 0.0
H297 H 1.00119 0.19155 0.72252 0.0
C298 C 0.88294 0.05745 0.76685 0.0
C299 C 0.85256 0.08625 0.72257 0.0
C300 C 0.90012 0.15742 0.67947 0.0
C301 C 0.87226 0.18242 0.63065 0.0
C302 C 0.92247 0.25546 0.59173 0.0
C303 C 0.99715 0.30151 0.59884 0.0
C304 C 1.02405 0.27682 0.64524 0.0
C305 C 0.97659 0.20624 0.68558 0.0
H306 H 0.7596 0.54273 0.47457 0.0
C307 C 0.78068 0.51761 0.49281 0.0
H308 H 0.85324 0.52737 0.5724 0.0
H309 H 0.98683 0.88848 0.62234 0.0
H310 H 1.01797 0.91386 0.4924 0.0
H311 H 0.977 0.80587 0.41004 0.0
H312 H 0.90682 0.6719 0.45769 0.0
C313 C 0.83434 0.55405 0.55049 0.0
C314 C 0.85541 0.61887 0.59732 0.0
C315 C 0.89861 0.69758 0.56966 0.0
C316 C 0.92024 0.75934 0.61683 0.0
C317 C 0.96571 0.83815 0.58834 0.0
C318 C 0.98449 0.85386 0.51398 0.0
C319 C 0.96171 0.79304 0.46754 0.0
C320 C 0.92104 0.71628 0.49545 0.0
H321 H 0.95456 0.77566 0.83764 0.0
C322 C 0.95248 0.81739 0.81493 0.0
H323 H 0.92225 0.84949 0.71993 0.0
H324 H 0.7636 0.4713 0.66268 0.0
H325 H 0.71319 0.43875 0.78247 0.0
H326 H 0.74308 0.54415 0.85976 0.0
H327 H 0.81896 0.67858 0.81597 0.0
C328 C 0.92339 0.80701 0.74265 0.0
C329 C 0.89633 0.74121 0.69073 0.0
C330 C 0.84629 0.66014 0.71433 0.0
C331 C 0.82797 0.59967 0.66886 0.0
C332 C 0.77951 0.51972 0.69488 0.0
C333 C 0.74936 0.49995 0.76316 0.0
C334 C 0.76574 0.55869 0.8064 0.0
C335 C 0.81191 0.63713 0.78172 0.0
H336 H 0.44669 0.22707 0.49051 0.0
C337 C 0.47086 0.20659 0.51425 0.0
H338 H 0.47669 0.1488 0.60356 0.0
H339 H 0.37533 0.17854 0.88375 0.0
H340 H 0.49456 0.23368 0.92958 0.0
H341 H 0.57547 0.26162 0.84057 0.0
H342 H 0.53624 0.23015 0.70671 0.0
C343 C 0.45123 0.16832 0.58184 0.0
C344 C 0.40211 0.15693 0.63377 0.0
C345 C 0.4259 0.17718 0.71316 0.0
C346 C 0.37939 0.16273 0.76479 0.0
C347 C 0.40641 0.18517 0.8426 0.0
C348 C 0.47549 0.21819 0.86964 0.0
C349 C 0.52087 0.23339 0.81974 0.0
C350 C 0.49713 0.21424 0.74257 0.0
H351 H 0.24963 0.04606 0.87366 0.0
C352 C 0.23241 0.07435 0.85158 0.0
H353 H 0.24293 0.14848 0.76913 0.0
H354 H 0.32989 0.09557 0.49038 0.0
H355 H 0.21542 0.04988 0.44284 0.0
H356 H 0.14119 0.03851 0.52873 0.0
H357 H 0.18012 0.0701 0.66258 0.0
C358 C 0.26079 0.1204 0.78881 0.0
C359 C 0.30884 0.12939 0.73767 0.0
C360 C 0.28603 0.11152 0.65804 0.0
C361 C 0.33105 0.12246 0.60704 0.0
C362 C 0.30236 0.0964 0.53012 0.0
C363 C 0.23567 0.06863 0.50213 0.0
C364 C 0.19366 0.06158 0.55052 0.0
C365 C 0.21726 0.08072 0.62765 0.0
H366 H 0.56337 0.42589 0.18957 0.0
C367 C 0.55781 0.38224 0.16167 0.0
H368 H 0.52132 0.3129 0.06332 0.0
H369 H 0.37824 0.45823 0.97656 0.0
H370 H 0.31448 0.39437 0.08695 0.0
H371 H 0.34197 0.33479 0.18007 0.0
H372 H 0.43048 0.33432 0.1568 0.0
C373 C 0.52808 0.35872 0.08786 0.0
C374 C 0.51046 0.3966 0.03436 0.0
C375 C 0.46188 0.40094 0.05124 0.0
C376 C 0.4471 0.43748 0.99933 0.0
C377 C 0.39412 0.43494 0.01509 0.0
C378 C 0.35661 0.39782 0.079 0.0
C379 C 0.37176 0.36389 0.13038 0.0
C380 C 0.42353 0.36496 0.11678 0.0
H381 H 0.43509 0.46868 0.77622 0.0
C382 C 0.4477 0.51281 0.81305 0.0
H383 H 0.48668 0.56861 0.92134 0.0
H384 H 0.58953 0.37977 0.9711 0.0
H385 H 0.62279 0.40908 0.8439 0.0
H386 H 0.60857 0.48477 0.76023 0.0
H387 H 0.55123 0.52158 0.80191 0.0
C388 C 0.47577 0.52416 0.88686 0.0
C389 C 0.48162 0.47196 0.93096 0.0
C390 C 0.52425 0.46059 0.91047 0.0
C391 C 0.53697 0.42131 0.96103 0.0
C392 C 0.57616 0.40716 0.93605 0.0
C393 C 0.59754 0.42571 0.86302 0.0
C394 C 0.58866 0.46734 0.81582 0.0
C395 C 0.55462 0.4871 0.84008 0.0
H396 H 0.51743 0.84699 0.8813 0.0
C397 C 0.4664 0.82589 0.85544 0.0
H398 H 0.39476 0.83815 0.85312 0.0
H399 H 0.47215 0.9533 0.19313 0.0
H400 H 0.34432 0.82547 0.18876 0.0
H401 H 0.27992 0.73571 0.07408 0.0
H402 H 0.3431 0.77485 0.96261 0.0
C403 C 0.44721 0.8612 0.87648 0.0
C404 C 0.48681 0.91666 0.94501 0.0
C405 C 0.44845 0.89271 1.00977 0.0
C406 C 0.4853 0.94373 0.07631 0.0
C407 C 0.44625 0.91779 0.1405 0.0
C408 C 0.37284 0.84398 0.13901 0.0
C409 C 0.33672 0.79373 0.07443 0.0
C410 C 0.37379 0.81731 1.01053 0.0
H411 H 0.52987 0.09636 0.11415 0.0
C412 C 0.57555 0.11417 0.1519 0.0
H413 H 0.64561 0.09919 0.17554 0.0
H414 H 0.57636 0.9837 0.8303 0.0
H415 H 0.70714 0.10632 0.83916 0.0
H416 H 0.77278 0.18942 0.958 0.0
H417 H 0.70766 0.15132 0.06801 0.0
C418 C 0.59623 0.07755 0.14311 0.0
C419 C 0.56044 0.01832 0.07849 0.0
C420 C 0.60007 0.03983 0.01577 0.0
C421 C 0.5628 0.99024 0.94812 0.0
C422 C 0.60256 0.01671 0.8843 0.0
C423 C 0.6776 0.08747 0.88838 0.0
C424 C 0.71455 0.13427 0.95528 0.0
C425 C 0.67641 0.11157 0.0181 0.0
H426 H 0.08602 0.49383 0.81226 0.0
C427 C 0.13761 0.52763 0.84795 0.0
H428 H 0.19342 0.57824 0.95734 0.0
H429 H 0.9637 0.55159 0.08721 0.0
H430 H 0.04364 0.68724 0.03947 0.0
H431 H 0.13766 0.73882 0.95582 0.0
H432 H 0.15364 0.65584 0.92084 0.0
C433 C 0.14051 0.53849 0.92324 0.0
C434 C 0.07496 0.50187 0.96339 0.0
C435 C 0.06537 0.5503 0.98317 0.0
C436 C 1.00917 0.51941 0.02963 0.0
C437 C 1.00323 0.57079 0.04986 0.0
C438 C 0.04921 0.64897 0.02338 0.0
C439 C 0.10233 0.6781 0.97648 0.0
C440 C 0.11102 0.62993 0.95699 0.0
H441 H 0.92445 0.38935 0.20387 0.0
C442 C 0.88456 0.38416 0.16837 0.0
H443 H 0.85602 0.40168 0.05947 0.0
H444 H 0.0784 0.39289 0.93983 0.0
H445 H 0.99549 0.25562 0.98384 0.0
H446 H 0.89499 0.20028 0.05883 0.0
H447 H 0.87741 0.28219 0.0918 0.0
C448 C 0.89464 0.40413 0.09392 0.0
C449 C 0.9607 0.43906 0.05576 0.0
C450 C 0.97001 0.39035 0.03564 0.0
C451 C 1.02738 0.42193 0.99041 0.0
C452 C 0.03568 0.37196 0.97307 0.0
C453 C 0.98843 0.29304 0.99793 0.0
C454 C 0.93186 0.26189 0.04027 0.0
C455 C 0.92243 0.30961 0.05894 0.0
loop_
_geom_bond_atom_site_label_1
_geom_bond_atom_site_label_2
_geom_bond_distance
_geom_bond_site_symmetry_2
_ccdc_geom_bond_type
Co0 H3 2.400 . S
Co0 O4 2.009 . S
Co0 O12 2.115 . S
Co0 O13 2.315 . S
Co0 O24 2.053 . S
Co0 O27 2.094 1_655 S
Co0 O30 2.122 1_665 S
Co1 O4 2.126 1_456 S
Co1 H5 2.388 1_565 S
Co1 O6 2.053 1_565 S
Co1 O9 2.047 1_565 S
Co1 O15 2.113 1_455 S
Co1 O26 2.063 1_556 S
Co2 H3 2.388 1_545 S
Co2 O4 2.053 1_545 S
Co2 O6 2.126 1_654 S
Co2 O11 2.063 1_554 S
Co2 O25 2.047 1_545 S
Co2 O31 2.113 1_655 S
H3 Co0 2.400 . S
H3 Co2 2.388 1_565 S
H3 O4 0.760 . S
O4 Co0 2.009 . S
O4 Co1 2.126 1_654 S
O4 Co2 2.053 1_565 S
O4 H3 0.760 . S
H5 Co1 2.388 1_545 S
H5 O6 0.760 . S
H5 Co7 2.400 . S
O6 Co1 2.053 1_545 S
O6 Co2 2.126 1_456 S
O6 H5 0.760 . S
O6 Co7 2.009 . S
Co7 H5 2.400 . S
Co7 O6 2.009 . S
Co7 O8 2.053 . S
Co7 O10 2.094 1_455 S
Co7 O14 2.122 1_445 S
Co7 O28 2.115 . S
Co7 O29 2.315 . S
O8 Co7 2.053 . S
O8 C20 1.259 . S
O9 Co1 2.047 1_545 S
O9 C20 1.257 . S
O10 Co7 2.094 1_655 S
O10 C21 1.253 . S
O11 Co2 2.063 1_556 S
O11 C21 1.268 . S
O12 Co0 2.115 . S
O12 C22 1.281 . S
O13 Co0 2.315 . S
O13 C22 1.252 . S
O14 Co7 2.122 1_665 S
O14 C23 1.272 . S
O15 Co1 2.113 1_655 S
O15 C23 1.245 . S
C16 O24 1.259 . S
C16 O25 1.257 . S
C17 O26 1.268 . S
C17 O27 1.253 . S
C18 O28 1.281 . S
C18 O29 1.252 . S
C19 O30 1.272 . S
C19 O31 1.245 . S
C20 O8 1.259 . S
C20 O9 1.257 . S
C21 O10 1.253 . S
C21 O11 1.268 . S
C22 O12 1.281 . S
C22 O13 1.252 . S
C23 O14 1.272 . S
C23 O15 1.245 . S
O24 Co0 2.053 . S
O24 C16 1.259 . S
O25 Co2 2.047 1_565 S
O25 C16 1.257 . S
O26 Co1 2.063 1_554 S
O26 C17 1.268 . S
O27 Co0 2.094 1_455 S
O27 C17 1.253 . S
O28 Co7 2.115 . S
O28 C18 1.281 . S
O29 Co7 2.315 . S
O29 C18 1.252 . S
O30 Co0 2.122 1_445 S
O30 C19 1.272 . S
O31 Co2 2.113 1_455 S
O31 C19 1.245 . S
Co32 H35 2.400 . S
Co32 O36 2.009 . S
Co32 O44 2.115 . S
Co32 O45 2.315 . S
Co32 O56 2.053 . S
Co32 O59 2.094 . S
Co32 O62 2.122 . S
Co33 O36 2.126 . S
Co33 H37 2.388 . S
Co33 O38 2.053 . S
Co33 O41 2.047 . S
Co33 O47 2.113 . S
Co33 O58 2.063 . S
Co34 H35 2.388 . S
Co34 O36 2.053 . S
Co34 O38 2.126 . S
Co34 O43 2.063 . S
Co34 O57 2.047 . S
Co34 O63 2.113 . S
H35 Co32 2.400 . S
H35 Co34 2.388 . S
H35 O36 0.760 . S
O36 Co32 2.009 . S
O36 Co33 2.126 . S
O36 Co34 2.053 . S
O36 H35 0.760 . S
H37 Co33 2.388 . S
H37 O38 0.760 . S
H37 Co39 2.400 . S
O38 Co33 2.053 . S
O38 Co34 2.126 . S
O38 H37 0.760 . S
O38 Co39 2.009 . S
Co39 H37 2.400 . S
Co39 O38 2.009 . S
Co39 O40 2.053 . S
Co39 O42 2.094 . S
Co39 O46 2.122 . S
Co39 O60 2.115 . S
Co39 O61 2.315 . S
O40 Co39 2.053 . S
O40 C52 1.259 . S
O41 Co33 2.047 . S
O41 C52 1.257 . S
O42 Co39 2.094 . S
O42 C53 1.253 . S
O43 Co34 2.063 . S
O43 C53 1.268 . S
O44 Co32 2.115 . S
O44 C54 1.281 . S
O45 Co32 2.315 . S
O45 C54 1.252 . S
O46 Co39 2.122 . S
O46 C55 1.272 . S
O47 Co33 2.113 . S
O47 C55 1.245 . S
C48 O56 1.259 . S
C48 O57 1.257 . S
C49 O58 1.268 . S
C49 O59 1.253 . S
C50 O60 1.281 . S
C50 O61 1.252 . S
C51 O62 1.272 . S
C51 O63 1.245 . S
C52 O40 1.259 . S
C52 O41 1.257 . S
C53 O42 1.253 . S
C53 O43 1.268 . S
C54 O44 1.281 . S
C54 O45 1.252 . S
C55 O46 1.272 . S
C55 O47 1.245 . S
O56 Co32 2.053 . S
O56 C48 1.259 . S
O57 Co34 2.047 . S
O57 C48 1.257 . S
O58 Co33 2.063 . S
O58 C49 1.268 . S
O59 Co32 2.094 . S
O59 C49 1.253 . S
O60 Co39 2.115 . S
O60 C50 1.281 . S
O61 Co39 2.315 . S
O61 C50 1.252 . S
O62 Co32 2.122 . S
O62 C51 1.272 . S
O63 Co34 2.113 . S
O63 C51 1.245 . S
Co64 H67 2.400 . S
Co64 O68 2.009 . S
Co64 O76 2.115 . S
Co64 O77 2.315 . S
Co64 O88 2.053 . S
Co64 O91 2.094 . S
Co64 O94 2.122 . S
Co65 O68 2.126 . S
Co65 H69 2.388 . S
Co65 O70 2.053 . S
Co65 O73 2.047 . S
Co65 O79 2.113 . S
Co65 O90 2.063 . S
Co66 H67 2.388 . S
Co66 O68 2.053 . S
Co66 O70 2.126 . S
Co66 O75 2.063 . S
Co66 O89 2.047 . S
Co66 O95 2.113 . S
H67 Co64 2.400 . S
H67 Co66 2.388 . S
H67 O68 0.760 . S
O68 Co64 2.009 . S
O68 Co65 2.126 . S
O68 Co66 2.053 . S
O68 H67 0.760 . S
H69 Co65 2.388 . S
H69 O70 0.760 . S
H69 Co71 2.400 . S
O70 Co65 2.053 . S
O70 Co66 2.126 . S
O70 H69 0.760 . S
O70 Co71 2.009 . S
Co71 H69 2.400 . S
Co71 O70 2.009 . S
Co71 O72 2.053 . S
Co71 O74 2.094 . S
Co71 O78 2.122 . S
Co71 O92 2.115 . S
Co71 O93 2.315 . S
O72 Co71 2.053 . S
O72 C84 1.259 . S
O73 Co65 2.047 . S
O73 C84 1.257 . S
O74 Co71 2.094 . S
O74 C85 1.253 . S
O75 Co66 2.063 . S
O75 C85 1.268 . S
O76 Co64 2.115 . S
O76 C86 1.281 . S
O77 Co64 2.315 . S
O77 C86 1.252 . S
O78 Co71 2.122 . S
O78 C87 1.272 . S
O79 Co65 2.113 . S
O79 C87 1.245 . S
C80 O88 1.259 . S
C80 O89 1.257 . S
C81 O90 1.268 . S
C81 O91 1.253 . S
C82 O92 1.281 . S
C82 O93 1.252 . S
C83 O94 1.272 . S
C83 O95 1.245 . S
C84 O72 1.259 . S
C84 O73 1.257 . S
C85 O74 1.253 . S
C85 O75 1.268 . S
C86 O76 1.281 . S
C86 O77 1.252 . S
C87 O78 1.272 . S
C87 O79 1.245 . S
O88 Co64 2.053 . S
O88 C80 1.259 . S
O89 Co66 2.047 . S
O89 C80 1.257 . S
O90 Co65 2.063 . S
O90 C81 1.268 . S
O91 Co64 2.094 . S
O91 C81 1.253 . S
O92 Co71 2.115 . S
O92 C82 1.281 . S
O93 Co71 2.315 . S
O93 C82 1.252 . S
O94 Co64 2.122 . S
O94 C83 1.272 . S
O95 Co66 2.113 . S
O95 C83 1.245 . S
H96 C97 0.951 . S
C97 H96 0.951 . S
C97 C103 1.265 . S
H98 C103 0.950 . S
H99 C107 0.949 . S
H100 C108 0.950 . S
H101 C109 0.951 . S
H102 C110 0.951 . S
C103 C97 1.265 . S
C103 H98 0.950 . S
C103 C104 1.478 . S
C104 C103 1.478 . S
C104 C105 1.397 1_445 S
C104 C121 1.394 . S
C105 C104 1.397 1_665 S
C105 C106 1.438 . S
C105 C110 1.429 . S
C106 C105 1.438 . S
C106 C107 1.428 . S
C106 C119 1.394 . S
C107 H99 0.949 . S
C107 C106 1.428 . S
C107 C108 1.345 . S
C108 H100 0.950 . S
C108 C107 1.345 . S
C108 C109 1.424 . S
C109 H101 0.951 . S
C109 C108 1.424 . S
C109 C110 1.347 . S
C110 H102 0.951 . S
C110 C105 1.429 . S
C110 C109 1.347 . S
H111 C112 0.951 . S
C112 H111 0.951 . S
C112 C118 1.265 . S
H113 C118 0.950 . S
H114 C122 0.949 . S
H115 C123 0.950 . S
H116 C124 0.951 . S
H117 C125 0.951 . S
C118 C112 1.265 . S
C118 H113 0.950 . S
C118 C119 1.478 . S
C119 C106 1.394 . S
C119 C118 1.478 . S
C119 C120 1.397 1_665 S
C120 C119 1.397 1_445 S
C120 C121 1.438 . S
C120 C125 1.429 . S
C121 C104 1.394 . S
C121 C120 1.438 . S
C121 C122 1.428 . S
C122 H114 0.949 . S
C122 C121 1.428 . S
C122 C123 1.345 . S
C123 H115 0.950 . S
C123 C122 1.345 . S
C123 C124 1.424 . S
C124 H116 0.951 . S
C124 C123 1.424 . S
C124 C125 1.347 . S
C125 H117 0.951 . S
C125 C120 1.429 . S
C125 C124 1.347 . S
H126 C127 0.951 . S
C127 H126 0.951 . S
C127 C133 1.265 . S
H128 C133 0.950 . S
H129 C137 0.949 . S
H130 C138 0.950 . S
H131 C139 0.951 . S
H132 C140 0.951 . S
C133 C127 1.265 . S
C133 H128 0.950 . S
C133 C134 1.478 . S
C134 C133 1.478 . S
C134 C135 1.397 . S
C134 C151 1.394 . S
C135 C134 1.397 . S
C135 C136 1.438 . S
C135 C140 1.429 . S
C136 C135 1.438 . S
C136 C137 1.428 . S
C136 C149 1.394 . S
C137 H129 0.949 . S
C137 C136 1.428 . S
C137 C138 1.345 . S
C138 H130 0.950 . S
C138 C137 1.345 . S
C138 C139 1.424 . S
C139 H131 0.951 . S
C139 C138 1.424 . S
C139 C140 1.347 . S
C140 H132 0.951 . S
C140 C135 1.429 . S
C140 C139 1.347 . S
H141 C142 0.951 . S
C142 H141 0.951 . S
C142 C148 1.265 1_554 S
H143 C148 0.950 . S
H144 C152 0.949 . S
H145 C153 0.950 . S
H146 C154 0.951 . S
H147 C155 0.951 . S
C148 C142 1.265 1_556 S
C148 H143 0.950 . S
C148 C149 1.478 . S
C149 C136 1.394 . S
C149 C148 1.478 . S
C149 C150 1.397 . S
C150 C149 1.397 . S
C150 C151 1.438 . S
C150 C155 1.429 . S
C151 C134 1.394 . S
C151 C150 1.438 . S
C151 C152 1.428 . S
C152 H144 0.949 . S
C152 C151 1.428 . S
C152 C153 1.345 . S
C153 H145 0.950 . S
C153 C152 1.345 . S
C153 C154 1.424 . S
C154 H146 0.951 . S
C154 C153 1.424 . S
C154 C155 1.347 . S
C155 H147 0.951 . S
C155 C150 1.429 . S
C155 C154 1.347 . S
H156 C157 0.951 1_554 S
C157 H156 0.951 1_556 S
C157 C163 1.265 1_556 S
H158 C163 0.950 1_556 S
H159 C167 0.949 . S
H160 C168 0.950 . S
H161 C169 0.951 . S
H162 C170 0.951 . S
C163 C157 1.265 1_554 S
C163 H158 0.950 1_554 S
C163 C164 1.478 . S
C164 C163 1.478 . S
C164 C165 1.397 . S
C164 C181 1.394 . S
C165 C164 1.397 . S
C165 C166 1.438 . S
C165 C170 1.429 . S
C166 C165 1.438 . S
C166 C167 1.428 . S
C166 C179 1.394 . S
C167 H159 0.949 . S
C167 C166 1.428 . S
C167 C168 1.345 . S
C168 H160 0.950 . S
C168 C167 1.345 . S
C168 C169 1.424 . S
C169 H161 0.951 . S
C169 C168 1.424 . S
C169 C170 1.347 . S
C170 H162 0.951 . S
C170 C165 1.429 . S
C170 C169 1.347 . S
H171 C172 0.951 . S
C172 H171 0.951 . S
C172 C178 1.265 . S
H173 C178 0.950 . S
H174 C182 0.956 . S
H175 C183 0.950 . S
H176 C184 0.951 . S
H177 C185 0.951 . S
C178 C172 1.265 . S
C178 H173 0.950 . S
C178 C179 1.478 . S
C179 C166 1.394 . S
C179 C178 1.478 . S
C179 C180 1.397 . S
C180 C179 1.397 . S
C180 C181 1.438 . S
C180 C185 1.429 . S
C181 C164 1.394 . S
C181 C180 1.438 . S
C181 C182 1.428 . S
C182 H174 0.956 . S
C182 C181 1.428 . S
C182 C183 1.345 . S
C183 H175 0.950 . S
C183 C182 1.345 . S
C183 C184 1.424 . S
C184 H176 0.951 . S
C184 C183 1.424 . S
C184 C185 1.347 . S
C185 H177 0.951 . S
C185 C180 1.429 . S
C185 C184 1.347 . S
H186 C187 0.951 . S
C187 H186 0.951 . S
C187 C193 1.265 . S
H188 C193 0.950 . S
H189 C197 0.949 . S
H190 C198 0.950 1_545 S
H191 C199 0.951 . S
H192 C200 0.951 . S
C193 C187 1.265 . S
C193 H188 0.950 . S
C193 C194 1.478 . S
C194 C193 1.478 . S
C194 C195 1.397 . S
C194 C211 1.394 . S
C195 C194 1.397 . S
C195 C196 1.438 . S
C195 C200 1.429 . S
C196 C195 1.438 . S
C196 C197 1.428 . S
C196 C209 1.394 . S
C197 H189 0.949 . S
C197 C196 1.428 . S
C197 C198 1.345 . S
C198 H190 0.950 1_565 S
C198 C197 1.345 . S
C198 C199 1.424 . S
C199 H191 0.951 . S
C199 C198 1.424 . S
C199 C200 1.347 . S
C200 H192 0.951 . S
C200 C195 1.429 . S
C200 C199 1.347 . S
H201 C202 0.951 . S
C202 H201 0.951 . S
C202 C208 1.265 . S
H203 C208 0.950 . S
H204 C212 0.949 . S
H205 C213 0.950 . S
H206 C214 0.951 . S
H207 C215 0.951 . S
C208 C202 1.265 . S
C208 H203 0.950 . S
C208 C209 1.478 . S
C209 C196 1.394 . S
C209 C208 1.478 . S
C209 C210 1.397 . S
C210 C209 1.397 . S
C210 C211 1.438 . S
C210 C215 1.429 . S
C211 C194 1.394 . S
C211 C210 1.438 . S
C211 C212 1.428 . S
C212 H204 0.949 . S
C212 C211 1.428 . S
C212 C213 1.345 . S
C213 H205 0.950 . S
C213 C212 1.345 . S
C213 C214 1.424 . S
C214 H206 0.951 . S
C214 C213 1.424 . S
C214 C215 1.347 . S
C215 H207 0.951 . S
C215 C210 1.429 . S
C215 C214 1.347 . S
H216 C217 0.951 . S
C217 H216 0.951 . S
C217 C223 1.265 . S
H218 C223 0.950 . S
H219 C227 0.949 . S
H220 C228 0.950 . S
H221 C229 0.951 . S
H222 C230 0.951 . S
C223 C217 1.265 . S
C223 H218 0.950 . S
C223 C224 1.478 . S
C224 C223 1.478 . S
C224 C225 1.397 . S
C224 C241 1.394 . S
C225 C224 1.397 . S
C225 C226 1.438 . S
C225 C230 1.429 . S
C226 C225 1.438 . S
C226 C227 1.428 . S
C226 C239 1.394 . S
C227 H219 0.949 . S
C227 C226 1.428 . S
C227 C228 1.345 . S
C228 H220 0.950 . S
C228 C227 1.345 . S
C228 C229 1.424 . S
C229 H221 0.951 . S
C229 C228 1.424 . S
C229 C230 1.347 . S
C230 H222 0.951 . S
C230 C225 1.429 . S
C230 C229 1.347 . S
H231 C232 0.951 . S
C232 H231 0.951 . S
C232 C238 1.265 . S
H233 C238 0.950 . S
H234 C242 0.949 . S
H235 C243 0.950 . S
H236 C244 0.951 . S
H237 C245 0.951 . S
C238 C232 1.265 . S
C238 H233 0.950 . S
C238 C239 1.478 . S
C239 C226 1.394 . S
C239 C238 1.478 . S
C239 C240 1.397 . S
C240 C239 1.397 . S
C240 C241 1.438 . S
C240 C245 1.429 . S
C241 C224 1.394 . S
C241 C240 1.438 . S
C241 C242 1.428 . S
C242 H234 0.949 . S
C242 C241 1.428 . S
C242 C243 1.345 . S
C243 H235 0.950 . S
C243 C242 1.345 . S
C243 C244 1.424 . S
C244 H236 0.951 . S
C244 C243 1.424 . S
C244 C245 1.347 . S
C245 H237 0.951 . S
C245 C240 1.429 . S
C245 C244 1.347 . S
H246 C247 0.951 . S
C247 H246 0.951 . S
C247 C253 1.265 . S
H248 C253 0.950 . S
H249 C257 0.949 . S
H250 C258 0.950 . S
H251 C259 0.951 . S
H252 C260 0.951 . S
C253 C247 1.265 . S
C253 H248 0.950 . S
C253 C254 1.478 . S
C254 C253 1.478 . S
C254 C255 1.397 . S
C254 C271 1.394 . S
C255 C254 1.397 . S
C255 C256 1.438 . S
C255 C260 1.429 . S
C256 C255 1.438 . S
C256 C257 1.428 . S
C256 C269 1.394 . S
C257 H249 0.949 . S
C257 C256 1.428 . S
C257 C258 1.345 . S
C258 H250 0.950 . S
C258 C257 1.345 . S
C258 C259 1.424 . S
C259 H251 0.951 . S
C259 C258 1.424 . S
C259 C260 1.347 . S
C260 H252 0.951 . S
C260 C255 1.429 . S
C260 C259 1.347 . S
H261 C262 0.951 . S
C262 H261 0.951 . S
C262 C268 1.265 . S
H263 C268 0.950 . S
H264 C272 0.949 . S
H265 C273 0.950 . S
H266 C274 0.951 . S
H267 C275 0.951 . S
C268 C262 1.265 . S
C268 H263 0.950 . S
C268 C269 1.478 . S
C269 C256 1.394 . S
C269 C268 1.478 . S
C269 C270 1.397 . S
C270 C269 1.397 . S
C270 C271 1.438 . S
C270 C275 1.429 1_565 S
C271 C254 1.394 . S
C271 C270 1.438 . S
C271 C272 1.428 . S
C272 H264 0.949 . S
C272 C271 1.428 . S
C272 C273 1.345 1_565 S
C273 H265 0.950 . S
C273 C272 1.345 1_545 S
C273 C274 1.424 . S
C274 H266 0.951 . S
C274 C273 1.424 . S
C274 C275 1.347 . S
C275 H267 0.951 . S
C275 C270 1.429 1_545 S
C275 C274 1.347 . S
H276 C277 0.951 . S
C277 H276 0.951 . S
C277 C283 1.265 . S
H278 C283 0.950 . S
H279 C287 0.949 . S
H280 C288 0.950 . S
H281 C289 0.951 . S
H282 C290 0.951 . S
C283 C277 1.265 . S
C283 H278 0.950 . S
C283 C284 1.478 . S
C284 C283 1.478 . S
C284 C285 1.397 . S
C284 C301 1.394 . S
C285 C284 1.397 . S
C285 C286 1.438 . S
C285 C290 1.429 . S
C286 C285 1.438 . S
C286 C287 1.428 . S
C286 C299 1.394 . S
C287 H279 0.949 . S
C287 C286 1.428 . S
C287 C288 1.345 . S
C288 H280 0.950 . S
C288 C287 1.345 . S
C288 C289 1.424 . S
C289 H281 0.951 . S
C289 C288 1.424 . S
C289 C290 1.347 . S
C290 H282 0.951 . S
C290 C285 1.429 . S
C290 C289 1.347 . S
H291 C292 0.951 . S
C292 H291 0.951 . S
C292 C298 1.265 . S
H293 C298 0.950 . S
H294 C302 0.949 . S
H295 C303 0.950 1_455 S
H296 C304 0.951 1_455 S
H297 C305 0.951 . S
C298 C292 1.265 . S
C298 H293 0.950 . S
C298 C299 1.478 . S
C299 C286 1.394 . S
C299 C298 1.478 . S
C299 C300 1.397 . S
C300 C299 1.397 . S
C300 C301 1.438 . S
C300 C305 1.429 . S
C301 C284 1.394 . S
C301 C300 1.438 . S
C301 C302 1.428 . S
C302 H294 0.949 . S
C302 C301 1.428 . S
C302 C303 1.345 . S
C303 H295 0.950 1_655 S
C303 C302 1.345 . S
C303 C304 1.424 . S
C304 H296 0.951 1_655 S
C304 C303 1.424 . S
C304 C305 1.347 . S
C305 H297 0.951 . S
C305 C300 1.429 . S
C305 C304 1.347 . S
H306 C307 0.951 . S
C307 H306 0.951 . S
C307 C313 1.265 . S
H308 C313 0.950 . S
H309 C317 0.949 . S
H310 C318 0.950 1_455 S
H311 C319 0.951 1_455 S
H312 C320 0.951 . S
C313 C307 1.265 . S
C313 H308 0.950 . S
C313 C314 1.478 . S
C314 C313 1.478 . S
C314 C315 1.397 . S
C314 C331 1.394 . S
C315 C314 1.397 . S
C315 C316 1.438 . S
C315 C320 1.429 . S
C316 C315 1.438 . S
C316 C317 1.428 . S
C316 C329 1.394 . S
C317 H309 0.949 . S
C317 C316 1.428 . S
C317 C318 1.345 . S
C318 H310 0.950 1_655 S
C318 C317 1.345 . S
C318 C319 1.424 . S
C319 H311 0.951 1_655 S
C319 C318 1.424 . S
C319 C320 1.347 . S
C320 H312 0.951 . S
C320 C315 1.429 . S
C320 C319 1.347 . S
H321 C322 0.951 . S
C322 H321 0.951 . S
C322 C328 1.265 . S
H323 C328 0.950 . S
H324 C332 0.949 . S
H325 C333 0.950 . S
H326 C334 0.951 . S
H327 C335 0.951 . S
C328 C322 1.265 . S
C328 H323 0.950 . S
C328 C329 1.478 . S
C329 C316 1.394 . S
C329 C328 1.478 . S
C329 C330 1.397 . S
C330 C329 1.397 . S
C330 C331 1.438 . S
C330 C335 1.429 . S
C331 C314 1.394 . S
C331 C330 1.438 . S
C331 C332 1.428 . S
C332 H324 0.949 . S
C332 C331 1.428 . S
C332 C333 1.345 . S
C333 H325 0.950 . S
C333 C332 1.345 . S
C333 C334 1.424 . S
C334 H326 0.951 . S
C334 C333 1.424 . S
C334 C335 1.347 . S
C335 H327 0.951 . S
C335 C330 1.429 . S
C335 C334 1.347 . S
H336 C337 0.951 . S
C337 H336 0.951 . S
C337 C343 1.265 . S
H338 C343 0.950 . S
H339 C347 0.949 . S
H340 C348 0.950 . S
H341 C349 0.951 . S
H342 C350 0.951 . S
C343 C337 1.265 . S
C343 H338 0.950 . S
C343 C344 1.478 . S
C344 C343 1.478 . S
C344 C345 1.397 . S
C344 C361 1.394 . S
C345 C344 1.397 . S
C345 C346 1.438 . S
C345 C350 1.429 . S
C346 C345 1.438 . S
C346 C347 1.428 . S
C346 C359 1.394 . S
C347 H339 0.949 . S
C347 C346 1.428 . S
C347 C348 1.345 . S
C348 H340 0.950 . S
C348 C347 1.345 . S
C348 C349 1.424 . S
C349 H341 0.951 . S
C349 C348 1.424 . S
C349 C350 1.347 . S
C350 H342 0.951 . S
C350 C345 1.429 . S
C350 C349 1.347 . S
H351 C352 0.951 . S
C352 H351 0.951 . S
C352 C358 1.265 . S
H353 C358 0.950 . S
H354 C362 0.949 . S
H355 C363 0.950 . S
H356 C364 0.951 1_565 S
H357 C365 0.951 . S
C358 C352 1.265 . S
C358 H353 0.950 . S
C358 C359 1.478 . S
C359 C346 1.394 . S
C359 C358 1.478 . S
C359 C360 1.397 . S
C360 C359 1.397 . S
C360 C361 1.438 . S
C360 C365 1.429 . S
C361 C344 1.394 . S
C361 C360 1.438 . S
C361 C362 1.428 . S
C362 H354 0.949 . S
C362 C361 1.428 . S
C362 C363 1.345 . S
C363 H355 0.950 . S
C363 C362 1.345 . S
C363 C364 1.424 . S
C364 H356 0.951 1_545 S
C364 C363 1.424 . S
C364 C365 1.347 . S
C365 H357 0.951 . S
C365 C360 1.429 . S
C365 C364 1.347 . S
H366 C367 0.951 . S
C367 H366 0.951 . S
C367 C373 1.265 . S
H368 C373 0.950 . S
H369 C377 0.949 . S
H370 C378 0.950 . S
H371 C379 0.951 . S
H372 C380 0.951 . S
C373 C367 1.265 . S
C373 H368 0.950 . S
C373 C374 1.478 . S
C374 C373 1.478 . S
C374 C375 1.397 . S
C374 C391 1.394 1_554 S
C375 C374 1.397 . S
C375 C376 1.438 . S
C375 C380 1.429 . S
C376 C375 1.438 . S
C376 C377 1.428 . S
C376 C389 1.394 1_554 S
C377 H369 0.949 . S
C377 C376 1.428 . S
C377 C378 1.345 . S
C378 H370 0.950 . S
C378 C377 1.345 . S
C378 C379 1.424 . S
C379 H371 0.951 . S
C379 C378 1.424 . S
C379 C380 1.347 . S
C380 H372 0.951 . S
C380 C375 1.429 . S
C380 C379 1.347 . S
H381 C382 0.951 . S
C382 H381 0.951 . S
C382 C388 1.265 . S
H383 C388 0.950 . S
H384 C392 0.949 . S
H385 C393 0.950 . S
H386 C394 0.951 . S
H387 C395 0.951 . S
C388 C382 1.265 . S
C388 H383 0.950 . S
C388 C389 1.478 . S
C389 C376 1.394 1_556 S
C389 C388 1.478 . S
C389 C390 1.397 . S
C390 C389 1.397 . S
C390 C391 1.438 . S
C390 C395 1.429 . S
C391 C374 1.394 1_556 S
C391 C390 1.438 . S
C391 C392 1.428 . S
C392 H384 0.949 . S
C392 C391 1.428 . S
C392 C393 1.345 . S
C393 H385 0.950 . S
C393 C392 1.345 . S
C393 C394 1.424 . S
C394 H386 0.951 . S
C394 C393 1.424 . S
C394 C395 1.347 . S
C395 H387 0.951 . S
C395 C390 1.429 . S
C395 C394 1.347 . S
H396 C397 0.951 . S
C397 H396 0.951 . S
C397 C403 1.265 . S
H398 C403 0.950 . S
H399 C407 0.949 . S
H400 C408 0.950 . S
H401 C409 0.951 . S
H402 C410 0.951 . S
C403 C397 1.265 . S
C403 H398 0.950 . S
C403 C404 1.478 . S
C404 C403 1.478 . S
C404 C405 1.397 . S
C404 C421 1.394 1_565 S
C405 C404 1.397 . S
C405 C406 1.438 1_556 S
C405 C410 1.429 . S
C406 C405 1.438 1_554 S
C406 C407 1.428 . S
C406 C419 1.394 1_565 S
C407 H399 0.949 . S
C407 C406 1.428 . S
C407 C408 1.345 . S
C408 H400 0.950 . S
C408 C407 1.345 . S
C408 C409 1.424 . S
C409 H401 0.951 . S
C409 C408 1.424 . S
C409 C410 1.347 1_554 S
C410 H402 0.951 . S
C410 C405 1.429 . S
C410 C409 1.347 1_556 S
H411 C412 0.951 . S
C412 H411 0.951 . S
C412 C418 1.265 . S
H413 C418 0.950 . S
H414 C422 0.949 . S
H415 C423 0.950 . S
H416 C424 0.951 . S
H417 C425 0.951 . S
C418 C412 1.265 . S
C418 H413 0.950 . S
C418 C419 1.478 . S
C419 C406 1.394 1_545 S
C419 C418 1.478 . S
C419 C420 1.397 . S
C420 C419 1.397 . S
C420 C421 1.438 1_554 S
C420 C425 1.429 . S
C421 C404 1.394 1_545 S
C421 C420 1.438 1_556 S
C421 C422 1.428 . S
C422 H414 0.949 . S
C422 C421 1.428 . S
C422 C423 1.345 . S
C423 H415 0.950 . S
C423 C422 1.345 . S
C423 C424 1.424 . S
C424 H416 0.951 . S
C424 C423 1.424 . S
C424 C425 1.347 1_556 S
C425 H417 0.951 . S
C425 C420 1.429 . S
C425 C424 1.347 1_554 S
H426 C427 0.951 . S
C427 H426 0.951 . S
C427 C433 1.265 . S
H428 C433 0.950 . S
H429 C437 0.949 . S
H430 C438 0.950 . S
H431 C439 0.951 . S
H432 C440 0.958 . S
C433 C427 1.265 . S
C433 H428 0.950 . S
C433 C434 1.478 . S
C434 C433 1.478 . S
C434 C435 1.401 . S
C434 C451 1.394 . S
C435 C434 1.401 . S
C435 C436 1.432 1_456 S
C435 C440 1.429 . S
C436 C435 1.432 1_654 S
C436 C437 1.428 . S
C436 C449 1.394 . S
C437 H429 0.949 . S
C437 C436 1.428 . S
C437 C438 1.345 1_655 S
C438 H430 0.950 . S
C438 C437 1.345 1_455 S
C438 C439 1.424 . S
C439 H431 0.951 . S
C439 C438 1.424 . S
C439 C440 1.341 1_554 S
C440 H432 0.958 . S
C440 C435 1.429 . S
C440 C439 1.341 1_556 S
H441 C442 0.951 . S
C442 H441 0.951 . S
C442 C448 1.265 . S
H443 C448 0.950 . S
H444 C452 0.949 . S
H445 C453 0.950 . S
H446 C454 0.951 . S
H447 C455 0.958 . S
C448 C442 1.265 . S
C448 H443 0.950 . S
C448 C449 1.478 . S
C449 C436 1.394 . S
C449 C448 1.478 . S
C449 C450 1.401 . S
C450 C449 1.401 . S
C450 C451 1.432 1_654 S
C450 C455 1.429 . S
C451 C434 1.394 . S
C451 C450 1.432 1_456 S
C451 C452 1.428 . S
C452 H444 0.949 . S
C452 C451 1.428 . S
C452 C453 1.345 1_455 S
C453 H445 0.950 . S
C453 C452 1.345 1_655 S
C453 C454 1.424 . S
C454 H446 0.951 . S
C454 C453 1.424 . S
C454 C455 1.341 1_556 S
C455 H447 0.958 . S
C455 C450 1.429 . S
C455 C454 1.341 1_554 S
C97 C18 0.960 . S
C112 C22 0.960 . S
C127 C54 0.754 . S
C142 C50 0.754 . S
C157 C86 0.905 . S
C172 C82 0.905 . S
C187 C85 2.512 . S
C202 C17 2.511 . S
C217 C87 0.962 . S
C232 C19 0.960 . S
C247 C84 1.706 . S
C262 C16 1.706 . S
C277 C49 2.527 . S
C292 C21 2.528 . S
C307 C51 0.944 . S
C322 C23 0.945 . S
C337 C48 1.781 . S
C352 C20 1.781 . S
C367 C53 2.512 . S
C382 C81 2.512 . S
C397 C83 0.893 . S
C412 C55 0.893 . S
C427 C80 1.752 . S
C442 C52 1.752 . S
