# Generated by pormake.
# Topology uoi, (4)-cn, num edge types: 1
# Building blocks:
#     Node 0, Type 0, BuildingBlock: NAHDIM_clean_sbu_0, # of connection points: 4
#     Node 1, Type 0, BuildingBlock: NAHDIM_clean_sbu_0, # of connection points: 4
#     Node 2, Type 0, BuildingBlock: NAHDIM_clean_sbu_0, # of connection points: 4
#     Node 3, Type 0, BuildingBlock: NAHDIM_clean_sbu_0, # of connection points: 4
#     Node 4, Type 0, BuildingBlock: NAHDIM_clean_sbu_0, # of connection points: 4
#     Node 5, Type 0, BuildingBlock: NAHDIM_clean_sbu_0, # of connection points: 4
#     Node 6, Type 0, BuildingBlock: NAHDIM_clean_sbu_0, # of connection points: 4
#     Node 7, Type 0, BuildingBlock: NAHDIM_clean_sbu_0, # of connection points: 4
#     Node 8, Type 0, BuildingBlock: NAHDIM_clean_sbu_0, # of connection points: 4
#     Node 9, Type 0, BuildingBlock: NAHDIM_clean_sbu_0, # of connection points: 4
#     Node 10, Type 0, BuildingBlock: NAHDIM_clean_sbu_0, # of connection points: 4
#     Node 11, Type 0, BuildingBlock: NAHDIM_clean_sbu_0, # of connection points: 4
#     Node 12, Type 0, BuildingBlock: NAHDIM_clean_sbu_0, # of connection points: 4
#     Node 13, Type 0, BuildingBlock: NAHDIM_clean_sbu_0, # of connection points: 4
#     Node 14, Type 0, BuildingBlock: NAHDIM_clean_sbu_0, # of connection points: 4
#     Node 15, Type 0, BuildingBlock: NAHDIM_clean_sbu_0, # of connection points: 4
#     Node 16, Type 0, BuildingBlock: NAHDIM_clean_sbu_0, # of connection points: 4
#     Node 17, Type 0, BuildingBlock: NAHDIM_clean_sbu_0, # of connection points: 4
#     Node 18, Type 0, BuildingBlock: NAHDIM_clean_sbu_0, # of connection points: 4
#     Node 19, Type 0, BuildingBlock: NAHDIM_clean_sbu_0, # of connection points: 4
#     Node 20, Type 0, BuildingBlock: NAHDIM_clean_sbu_0, # of connection points: 4
#     Node 21, Type 0, BuildingBlock: NAHDIM_clean_sbu_0, # of connection points: 4
#     Node 22, Type 0, BuildingBlock: NAHDIM_clean_sbu_0, # of connection points: 4
#     Node 23, Type 0, BuildingBlock: NAHDIM_clean_sbu_0, # of connection points: 4
#     Node 24, Type 0, BuildingBlock: NAHDIM_clean_sbu_0, # of connection points: 4
#     Node 25, Type 0, BuildingBlock: NAHDIM_clean_sbu_0, # of connection points: 4
#     Node 26, Type 0, BuildingBlock: NAHDIM_clean_sbu_0, # of connection points: 4
#     Node 27, Type 0, BuildingBlock: NAHDIM_clean_sbu_0, # of connection points: 4
#     Node 28, Type 0, BuildingBlock: NAHDIM_clean_sbu_0, # of connection points: 4
#     Node 29, Type 0, BuildingBlock: NAHDIM_clean_sbu_0, # of connection points: 4
#     Node 30, Type 0, BuildingBlock: NAHDIM_clean_sbu_0, # of connection points: 4
#     Node 31, Type 0, BuildingBlock: NAHDIM_clean_sbu_0, # of connection points: 4
#     Edge 32, Type (0, 0), BuildingBlock: EZIPEK_clean_linker_0, # of connection points: 2
#     Edge 33, Type (0, 0), BuildingBlock: EZIPEK_clean_linker_0, # of connection points: 2
#     Edge 34, Type (0, 0), BuildingBlock: EZIPEK_clean_linker_0, # of connection points: 2
#     Edge 35, Type (0, 0), BuildingBlock: EZIPEK_clean_linker_0, # of connection points: 2
#     Edge 36, Type (0, 0), BuildingBlock: EZIPEK_clean_linker_0, # of connection points: 2
#     Edge 37, Type (0, 0), BuildingBlock: EZIPEK_clean_linker_0, # of connection points: 2
#     Edge 38, Type (0, 0), BuildingBlock: EZIPEK_clean_linker_0, # of connection points: 2
#     Edge 39, Type (0, 0), BuildingBlock: EZIPEK_clean_linker_0, # of connection points: 2
#     Edge 40, Type (0, 0), BuildingBlock: EZIPEK_clean_linker_0, # of connection points: 2
#     Edge 41, Type (0, 0), BuildingBlock: EZIPEK_clean_linker_0, # of connection points: 2
#     Edge 42, Type (0, 0), BuildingBlock: EZIPEK_clean_linker_0, # of connection points: 2
#     Edge 43, Type (0, 0), BuildingBlock: EZIPEK_clean_linker_0, # of connection points: 2
#     Edge 44, Type (0, 0), BuildingBlock: EZIPEK_clean_linker_0, # of connection points: 2
#     Edge 45, Type (0, 0), BuildingBlock: EZIPEK_clean_linker_0, # of connection points: 2
#     Edge 46, Type (0, 0), BuildingBlock: EZIPEK_clean_linker_0, # of connection points: 2
#     Edge 47, Type (0, 0), BuildingBlock: EZIPEK_clean_linker_0, # of connection points: 2
#     Edge 48, Type (0, 0), BuildingBlock: EZIPEK_clean_linker_0, # of connection points: 2
#     Edge 49, Type (0, 0), BuildingBlock: EZIPEK_clean_linker_0, # of connection points: 2
#     Edge 50, Type (0, 0), BuildingBlock: EZIPEK_clean_linker_0, # of connection points: 2
#     Edge 51, Type (0, 0), BuildingBlock: EZIPEK_clean_linker_0, # of connection points: 2
#     Edge 52, Type (0, 0), BuildingBlock: EZIPEK_clean_linker_0, # of connection points: 2
#     Edge 53, Type (0, 0), BuildingBlock: EZIPEK_clean_linker_0, # of connection points: 2
#     Edge 54, Type (0, 0), BuildingBlock: EZIPEK_clean_linker_0, # of connection points: 2
#     Edge 55, Type (0, 0), BuildingBlock: EZIPEK_clean_linker_0, # of connection points: 2
#     Edge 56, Type (0, 0), BuildingBlock: EZIPEK_clean_linker_0, # of connection points: 2
#     Edge 57, Type (0, 0), BuildingBlock: EZIPEK_clean_linker_0, # of connection points: 2
#     Edge 58, Type (0, 0), BuildingBlock: EZIPEK_clean_linker_0, # of connection points: 2
#     Edge 59, Type (0, 0), BuildingBlock: EZIPEK_clean_linker_0, # of connection points: 2
#     Edge 60, Type (0, 0), BuildingBlock: EZIPEK_clean_linker_0, # of connection points: 2
#     Edge 61, Type (0, 0), BuildingBlock: EZIPEK_clean_linker_0, # of connection points: 2
#     Edge 62, Type (0, 0), BuildingBlock: EZIPEK_clean_linker_0, # of connection points: 2
#     Edge 63, Type (0, 0), BuildingBlock: EZIPEK_clean_linker_0, # of connection points: 2
#     Edge 64, Type (0, 0), BuildingBlock: EZIPEK_clean_linker_0, # of connection points: 2
#     Edge 65, Type (0, 0), BuildingBlock: EZIPEK_clean_linker_0, # of connection points: 2
#     Edge 66, Type (0, 0), BuildingBlock: EZIPEK_clean_linker_0, # of connection points: 2
#     Edge 67, Type (0, 0), BuildingBlock: EZIPEK_clean_linker_0, # of connection points: 2
#     Edge 68, Type (0, 0), BuildingBlock: EZIPEK_clean_linker_0, # of connection points: 2
#     Edge 69, Type (0, 0), BuildingBlock: EZIPEK_clean_linker_0, # of connection points: 2
#     Edge 70, Type (0, 0), BuildingBlock: EZIPEK_clean_linker_0, # of connection points: 2
#     Edge 71, Type (0, 0), BuildingBlock: EZIPEK_clean_linker_0, # of connection points: 2
#     Edge 72, Type (0, 0), BuildingBlock: EZIPEK_clean_linker_0, # of connection points: 2
#     Edge 73, Type (0, 0), BuildingBlock: EZIPEK_clean_linker_0, # of connection points: 2
#     Edge 74, Type (0, 0), BuildingBlock: EZIPEK_clean_linker_0, # of connection points: 2
#     Edge 75, Type (0, 0), BuildingBlock: EZIPEK_clean_linker_0, # of connection points: 2
#     Edge 76, Type (0, 0), BuildingBlock: EZIPEK_clean_linker_0, # of connection points: 2
#     Edge 77, Type (0, 0), BuildingBlock: EZIPEK_clean_linker_0, # of connection points: 2
#     Edge 78, Type (0, 0), BuildingBlock: EZIPEK_clean_linker_0, # of connection points: 2
#     Edge 79, Type (0, 0), BuildingBlock: EZIPEK_clean_linker_0, # of connection points: 2
#     Edge 80, Type (0, 0), BuildingBlock: EZIPEK_clean_linker_0, # of connection points: 2
#     Edge 81, Type (0, 0), BuildingBlock: EZIPEK_clean_linker_0, # of connection points: 2
#     Edge 82, Type (0, 0), BuildingBlock: EZIPEK_clean_linker_0, # of connection points: 2
#     Edge 83, Type (0, 0), BuildingBlock: EZIPEK_clean_linker_0, # of connection points: 2
#     Edge 84, Type (0, 0), BuildingBlock: EZIPEK_clean_linker_0, # of connection points: 2
#     Edge 85, Type (0, 0), BuildingBlock: EZIPEK_clean_linker_0, # of connection points: 2
#     Edge 86, Type (0, 0), BuildingBlock: EZIPEK_clean_linker_0, # of connection points: 2
#     Edge 87, Type (0, 0), BuildingBlock: EZIPEK_clean_linker_0, # of connection points: 2
#     Edge 88, Type (0, 0), BuildingBlock: EZIPEK_clean_linker_0, # of connection points: 2
#     Edge 89, Type (0, 0), BuildingBlock: EZIPEK_clean_linker_0, # of connection points: 2
#     Edge 90, Type (0, 0), BuildingBlock: EZIPEK_clean_linker_0, # of connection points: 2
#     Edge 91, Type (0, 0), BuildingBlock: EZIPEK_clean_linker_0, # of connection points: 2
#     Edge 92, Type (0, 0), BuildingBlock: EZIPEK_clean_linker_0, # of connection points: 2
#     Edge 93, Type (0, 0), BuildingBlock: EZIPEK_clean_linker_0, # of connection points: 2
#     Edge 94, Type (0, 0), BuildingBlock: EZIPEK_clean_linker_0, # of connection points: 2
#     Edge 95, Type (0, 0), BuildingBlock: EZIPEK_clean_linker_0, # of connection points: 2
# Relax obj value: 0.311
# Max RMSD: 0.189
# Mean RMSD: 0.189
data_MOF--net-uoi--node1-NAHDIM_clean_sbu_0--edge1-EZIPEK_clean_linker_0
_symmetry_space_group_name_H-M    P1
_symmetry_Int_Tables_number       1
_symmetry_cell_setting            triclinic
loop_
_symmetry_equiv_pos_as_xyz
'x, y, z'
_cell_length_a     59.188539
_cell_length_b     59.191156
_cell_length_c     13.917864
_cell_angle_alpha  90.015665
_cell_angle_beta   89.963633
_cell_angle_gamma 90.01931
loop_
_atom_site_label
_atom_site_type_symbol
_atom_site_fract_x
_atom_site_fract_y
_atom_site_fract_z
_atom_type_partial_charge
C0 C 0.13568 0.15684 0.24412 0.0
O1 O 0.15473 0.16554 0.21283 0.0
O2 O 0.17881 0.16435 0.45274 0.0
Zn3 Zn 0.15052 0.18067 0.40734 0.0
O4 O 0.15779 0.20753 0.32292 0.0
C5 C 0.14932 0.2094 0.5606 0.0
O6 O 0.17017 0.21051 0.52877 0.0
O7 O 0.12982 0.16009 0.33104 0.0
C8 C 0.14085 0.21943 0.29854 0.0
O9 O 0.1205 0.21301 0.32409 0.0
C10 C 0.19822 0.1717 0.42919 0.0
O11 O 0.1998 0.18826 0.3668 0.0
O12 O 0.13578 0.19527 0.52272 0.0
C13 C 0.09207 0.90778 0.53284 0.0
O14 O 0.08529 0.92819 0.50976 0.0
O15 O 0.07281 0.9481 0.71436 0.0
Zn16 Zn 0.06304 0.91592 0.69278 0.0
O17 O 0.03336 0.91557 0.62242 0.0
C18 C 0.04873 0.88231 0.82757 0.0
O19 O 0.04427 0.87155 0.74721 0.0
O20 O 0.08536 0.89888 0.61094 0.0
C21 C 0.01393 0.91434 0.66136 0.0
O22 O 0.01193 0.91437 0.75532 0.0
C23 C 0.06089 0.96014 0.77055 0.0
O24 O 0.04303 0.9513 0.81203 0.0
O25 O 0.05815 0.90151 0.82111 0.0
C26 C 0.35173 0.85277 0.74573 0.0
O27 O 0.32992 0.85106 0.72983 0.0
O28 O 0.31084 0.83846 0.93648 0.0
Zn29 Zn 0.33966 0.82256 0.89503 0.0
O30 O 0.33407 0.79556 0.81034 0.0
C31 C 0.34179 0.79442 0.05272 0.0
O32 O 0.32088 0.79227 0.02296 0.0
O33 O 0.3602 0.84304 0.81879 0.0
C34 C 0.35218 0.78571 0.78428 0.0
O35 O 0.37176 0.79439 0.80892 0.0
C36 C 0.29155 0.82917 0.92889 0.0
O37 O 0.2897 0.80972 0.88414 0.0
O38 O 0.35459 0.80883 0.01218 0.0
C39 C 0.41413 0.08996 0.93336 0.0
O40 O 0.42475 0.07203 0.90096 0.0
O41 O 0.43518 0.04643 0.09436 0.0
Zn42 Zn 0.44199 0.07993 0.0912 0.0
O43 O 0.47165 0.08607 0.02605 0.0
C44 C 0.43841 0.08505 0.3046 0.0
O45 O 0.41992 0.07278 0.30421 0.0
O46 O 0.41811 0.09697 0.01813 0.0
C47 C 0.4811 0.10482 0.04602 0.0
O48 O 0.4711 0.11906 0.10463 0.0
C49 C 0.45051 0.03353 0.12696 0.0
O50 O 0.47009 0.04218 0.15179 0.0
O51 O 0.44783 0.09049 0.22617 0.0
C52 C 0.14587 0.85311 0.27539 0.0
O53 O 0.16436 0.84474 0.3134 0.0
O54 O 0.18998 0.8408 0.07377 0.0
Zn55 Zn 0.16146 0.82588 0.12182 0.0
O56 O 0.16798 0.80011 0.21263 0.0
C57 C 0.16129 0.79578 0.97491 0.0
O58 O 0.18203 0.79542 0.00834 0.0
O59 O 0.14071 0.84801 0.1893 0.0
C60 C 0.15051 0.78905 0.23753 0.0
O61 O 0.13052 0.79597 0.20949 0.0
C62 C 0.20839 0.84116 0.12034 0.0
O63 O 0.20877 0.83135 0.20503 0.0
O64 O 0.1474 0.81016 0.00853 0.0
C65 C 0.41037 0.89564 0.46551 0.0
O66 O 0.41363 0.91759 0.46626 0.0
O67 O 0.43658 0.92857 0.27409 0.0
Zn68 Zn 0.44478 0.89703 0.31869 0.0
O69 O 0.47442 0.89884 0.39052 0.0
C70 C 0.44231 0.88329 0.12125 0.0
O71 O 0.42726 0.89953 0.11787 0.0
O72 O 0.42128 0.88343 0.40638 0.0
C73 C 0.49345 0.89352 0.35407 0.0
O74 O 0.49463 0.88665 0.26448 0.0
C75 C 0.45177 0.93948 0.22892 0.0
O76 O 0.4712 0.92958 0.21171 0.0
O77 O 0.4502 0.87789 0.20291 0.0
C78 C 0.35385 0.14172 0.69325 0.0
O79 O 0.33498 0.14739 0.73668 0.0
O80 O 0.30413 0.16011 0.56594 0.0
Zn81 Zn 0.33587 0.17409 0.57415 0.0
O82 O 0.34158 0.1989 0.66946 0.0
C83 C 0.32692 0.2012 0.40759 0.0
O84 O 0.30644 0.1931 0.41657 0.0
O85 O 0.35847 0.15033 0.61178 0.0
C86 C 0.33056 0.20852 0.73562 0.0
O87 O 0.31102 0.20024 0.76312 0.0
C88 C 0.28581 0.17098 0.57738 0.0
O89 O 0.28661 0.19203 0.60626 0.0
O90 O 0.34305 0.1922 0.45431 0.0
C91 C 0.08655 0.11408 0.93518 0.0
O92 O 0.09812 0.10582 0.86263 0.0
O93 O 0.05954 0.0675 0.79822 0.0
Zn94 Zn 0.04697 0.0983 0.82914 0.0
O95 O 0.01518 0.0954 0.87905 0.0
C96 C 0.04822 0.10905 0.62692 0.0
O97 O 0.05604 0.08833 0.62185 0.0
O98 O 0.06512 0.11299 0.93437 0.0
C99 C 0.99759 0.10146 0.83313 0.0
O100 O 0.99918 0.10853 0.74402 0.0
C101 C 0.06558 0.05359 0.8627 0.0
O102 O 0.06166 0.05907 0.95265 0.0
O103 O 0.04495 0.11741 0.70987 0.0
C104 C 0.85655 0.84648 0.7651 0.0
O105 O 0.84084 0.83406 0.80584 0.0
O106 O 0.80868 0.83699 0.57158 0.0
Zn107 Zn 0.83935 0.82338 0.60305 0.0
O108 O 0.83631 0.7954 0.68476 0.0
C109 C 0.83961 0.79717 0.44218 0.0
O110 O 0.81984 0.79369 0.48206 0.0
O111 O 0.8592 0.84551 0.67441 0.0
C112 C 0.85418 0.78422 0.70176 0.0
O113 O 0.87371 0.79168 0.67027 0.0
C114 C 0.79077 0.82637 0.59409 0.0
O115 O 0.79224 0.80825 0.64808 0.0
O116 O 0.853 0.81148 0.4797 0.0
C117 C 0.91085 0.1033 0.48464 0.0
O118 O 0.92205 0.08511 0.51002 0.0
O119 O 0.92935 0.0622 0.29105 0.0
Zn120 Zn 0.9356 0.09516 0.31565 0.0
O121 O 0.96558 0.09899 0.38122 0.0
C122 C 0.9287 0.10032 0.11286 0.0
O123 O 0.91067 0.08784 0.12745 0.0
O124 O 0.91257 0.11063 0.39906 0.0
C125 C 0.97593 0.11775 0.37522 0.0
O126 O 0.96716 0.13435 0.32499 0.0
C127 C 0.94263 0.04681 0.32006 0.0
O128 O 0.9588 0.05191 0.38093 0.0
O129 O 0.9395 0.10824 0.18417 0.0
C130 C 0.65425 0.14694 0.24328 0.0
O131 O 0.67468 0.15273 0.27092 0.0
O132 O 0.69692 0.16906 0.07065 0.0
Zn133 Zn 0.66439 0.17873 0.09588 0.0
O134 O 0.66378 0.20645 0.1812 0.0
C135 C 0.65571 0.18572 0.88852 0.0
O136 O 0.67312 0.17242 0.87429 0.0
O137 O 0.64638 0.15496 0.16551 0.0
C138 C 0.66291 0.22628 0.1459 0.0
O139 O 0.66347 0.22909 0.05246 0.0
C140 C 0.71001 0.18328 0.03062 0.0
O141 O 0.70226 0.20341 0.00894 0.0
O142 O 0.64894 0.1886 0.97423 0.0
C143 C 0.58229 0.89788 0.01046 0.0
O144 O 0.57016 0.91492 0.04211 0.0
O145 O 0.56645 0.94328 0.84193 0.0
Zn146 Zn 0.55852 0.91004 0.84572 0.0
O147 O 0.52856 0.90519 0.90972 0.0
C148 C 0.56306 0.90401 0.63359 0.0
O149 O 0.58162 0.91613 0.63601 0.0
O150 O 0.58116 0.89234 0.92228 0.0
C151 C 0.51951 0.88596 0.89608 0.0
O152 O 0.52998 0.8708 0.84347 0.0
C153 C 0.55074 0.95704 0.82103 0.0
O154 O 0.53012 0.94939 0.80849 0.0
O155 O 0.55297 0.899 0.71111 0.0
C156 C 0.86379 0.15984 0.75816 0.0
O157 O 0.85097 0.17553 0.71989 0.0
O158 O 0.81967 0.17518 0.97007 0.0
Zn159 Zn 0.85128 0.18345 0.92891 0.0
O160 O 0.84939 0.21195 0.85057 0.0
C161 C 0.86147 0.19186 0.12886 0.0
O162 O 0.8416 0.18237 0.1409 0.0
O163 O 0.86623 0.15911 0.84896 0.0
C164 C 0.84948 0.23144 0.88915 0.0
O165 O 0.85001 0.23343 0.98307 0.0
C166 C 0.80299 0.17612 0.91284 0.0
O167 O 0.80641 0.18047 0.8215 0.0
O168 O 0.86968 0.1922 0.04454 0.0
C169 C 0.59438 0.09608 0.49208 0.0
O170 O 0.59464 0.07393 0.49779 0.0
O171 O 0.56502 0.06154 0.66936 0.0
Zn172 Zn 0.5564 0.09285 0.62489 0.0
O173 O 0.52705 0.0905 0.55075 0.0
C174 C 0.55829 0.10704 0.82335 0.0
O175 O 0.57351 0.09099 0.82955 0.0
O176 O 0.58007 0.10727 0.54079 0.0
C177 C 0.50814 0.09738 0.58324 0.0
O178 O 0.5069 0.1064 0.66928 0.0
C179 C 0.55004 0.05085 0.71662 0.0
O180 O 0.53078 0.0609 0.73572 0.0
O181 O 0.55035 0.11173 0.74097 0.0
C182 C 0.63643 0.84356 0.26746 0.0
O183 O 0.65223 0.83134 0.22635 0.0
O184 O 0.68347 0.8338 0.4643 0.0
Zn185 Zn 0.65331 0.81983 0.42816 0.0
O186 O 0.65716 0.79225 0.34418 0.0
C187 C 0.65162 0.79233 0.58583 0.0
O188 O 0.672 0.7893 0.55107 0.0
O189 O 0.63356 0.84219 0.35789 0.0
C190 C 0.63936 0.78145 0.32155 0.0
O191 O 0.61957 0.78919 0.34851 0.0
C192 C 0.70176 0.82377 0.44268 0.0
O193 O 0.70105 0.80566 0.38824 0.0
O194 O 0.63889 0.80716 0.54795 0.0
C195 C 0.91326 0.89943 0.01807 0.0
O196 O 0.92471 0.91669 0.98418 0.0
O197 O 0.93494 0.94274 0.18859 0.0
Zn198 Zn 0.94146 0.90959 0.1728 0.0
O199 O 0.96954 0.90474 0.09427 0.0
C200 C 0.9432 0.90975 0.37908 0.0
O201 O 0.92743 0.92518 0.36994 0.0
O202 O 0.91648 0.89306 0.10429 0.0
C203 C 0.9791 0.88556 0.10098 0.0
O204 O 0.97072 0.87022 0.15913 0.0
C205 C 0.94363 0.9586 0.13963 0.0
O206 O 0.95567 0.9538 0.06297 0.0
O207 O 0.94934 0.89852 0.30572 0.0
C208 C 0.64982 0.64061 0.79841 0.0
O209 O 0.67156 0.63689 0.80885 0.0
O210 O 0.68989 0.66482 0.96052 0.0
Zn211 Zn 0.65914 0.67768 0.92632 0.0
O212 O 0.66164 0.70569 0.84503 0.0
C213 C 0.65563 0.70489 0.08346 0.0
O214 O 0.67577 0.70918 0.04831 0.0
O215 O 0.64038 0.65603 0.84772 0.0
C216 C 0.6429 0.71441 0.8202 0.0
O217 O 0.62395 0.70433 0.84412 0.0
C218 C 0.70784 0.67443 0.93137 0.0
O219 O 0.70638 0.69206 0.87452 0.0
O220 O 0.64394 0.68909 0.04653 0.0
C221 C 0.59601 0.39873 0.003 0.0
O222 O 0.5918 0.42021 0.98747 0.0
O223 O 0.57025 0.43894 0.16535 0.0
Zn224 Zn 0.56338 0.40537 0.15278 0.0
O225 O 0.53396 0.39938 0.08555 0.0
C226 C 0.57032 0.39664 0.35898 0.0
O227 O 0.589 0.40837 0.34945 0.0
O228 O 0.58689 0.38893 0.07455 0.0
C229 C 0.51883 0.41349 0.06195 0.0
O230 O 0.52139 0.43498 0.08254 0.0
C231 C 0.55921 0.45052 0.22646 0.0
O232 O 0.54363 0.44057 0.27875 0.0
O233 O 0.55871 0.39245 0.28436 0.0
C234 C 0.85158 0.33529 0.25321 0.0
O235 O 0.83922 0.31938 0.21365 0.0
O236 O 0.80723 0.3137 0.44811 0.0
Zn237 Zn 0.84021 0.30967 0.41823 0.0
O238 O 0.84442 0.28095 0.34323 0.0
C239 C 0.84421 0.30584 0.62298 0.0
O240 O 0.82678 0.31955 0.62306 0.0
O241 O 0.85415 0.33551 0.34404 0.0
C242 C 0.86407 0.27225 0.34278 0.0
O243 O 0.88073 0.2826 0.38685 0.0
C244 C 0.79165 0.3269 0.42047 0.0
O245 O 0.79558 0.34186 0.35281 0.0
O246 O 0.85495 0.30252 0.54518 0.0
C247 C 0.90269 0.59733 0.51656 0.0
O248 O 0.91134 0.57744 0.49664 0.0
O249 O 0.92162 0.56042 0.72006 0.0
Zn250 Zn 0.93059 0.5922 0.68128 0.0
O251 O 0.95958 0.59055 0.60542 0.0
C252 C 0.93198 0.60515 0.88217 0.0
O253 O 0.91582 0.59009 0.89119 0.0
O254 O 0.90771 0.60702 0.59526 0.0
C255 C 0.97908 0.5927 0.64292 0.0
O256 O 0.98107 0.59541 0.73607 0.0
C257 C 0.93554 0.54896 0.76983 0.0
O258 O 0.95459 0.55825 0.79741 0.0
O259 O 0.938 0.61055 0.79769 0.0
C260 C 0.64876 0.34545 0.73364 0.0
O261 O 0.67047 0.3424 0.748 0.0
O262 O 0.68936 0.31881 0.57228 0.0
Zn263 Zn 0.65668 0.31049 0.597 0.0
O264 O 0.6529 0.28236 0.67477 0.0
C265 C 0.65518 0.30437 0.39304 0.0
O266 O 0.66907 0.32167 0.38937 0.0
O267 O 0.639 0.33474 0.66608 0.0
C268 C 0.66449 0.26457 0.66211 0.0
O269 O 0.68125 0.26498 0.60043 0.0
C270 C 0.70693 0.31466 0.62145 0.0
O271 O 0.70514 0.30514 0.70634 0.0
O272 O 0.64451 0.30025 0.4702 0.0
C273 C 0.89944 0.39509 0.99426 0.0
O274 O 0.90803 0.4143 0.0243 0.0
O275 O 0.92168 0.43861 0.8254 0.0
Zn276 Zn 0.92903 0.40499 0.84146 0.0
O277 O 0.95729 0.40084 0.91973 0.0
C278 C 0.9359 0.40447 0.63801 0.0
O279 O 0.91978 0.41967 0.6354 0.0
O280 O 0.90478 0.38765 0.91154 0.0
C281 C 0.96908 0.38303 0.90931 0.0
O282 O 0.96244 0.36704 0.85035 0.0
C283 C 0.93396 0.45399 0.86241 0.0
O284 O 0.95069 0.44833 0.91942 0.0
O285 O 0.93813 0.39237 0.71264 0.0
C286 C 0.85136 0.64895 0.24079 0.0
O287 O 0.83324 0.65879 0.27564 0.0
O288 O 0.808 0.67425 0.08641 0.0
Zn289 Zn 0.84145 0.68018 0.09777 0.0
O290 O 0.84763 0.70698 0.18181 0.0
C291 C 0.84031 0.70654 0.9374 0.0
O292 O 0.8208 0.71037 0.97892 0.0
O293 O 0.85829 0.65428 0.15731 0.0
C294 C 0.83286 0.72147 0.2053 0.0
O295 O 0.81176 0.71864 0.17878 0.0
C296 C 0.80006 0.65762 0.0397 0.0
O297 O 0.81376 0.64194 0.00703 0.0
O298 O 0.85308 0.69104 0.97007 0.0
C299 C 0.59905 0.59711 0.49352 0.0
O300 O 0.58804 0.57823 0.51003 0.0
O301 O 0.57979 0.5598 0.2971 0.0
Zn302 Zn 0.57381 0.59305 0.32397 0.0
O303 O 0.54443 0.59699 0.39337 0.0
C304 C 0.55308 0.60098 0.15274 0.0
O305 O 0.54377 0.5824 0.18547 0.0
O306 O 0.59702 0.60668 0.41212 0.0
C307 C 0.53739 0.61693 0.40886 0.0
O308 O 0.54939 0.63427 0.37963 0.0
C309 C 0.56424 0.54535 0.31158 0.0
O310 O 0.54494 0.5518 0.34907 0.0
O311 O 0.56932 0.60979 0.19924 0.0
C312 C 0.36515 0.35688 0.19488 0.0
O313 O 0.34535 0.35505 0.23676 0.0
O314 O 0.31527 0.33517 0.06037 0.0
Zn315 Zn 0.34594 0.32107 0.0948 0.0
O316 O 0.34429 0.30219 0.21521 0.0
C317 C 0.34922 0.29438 0.91414 0.0
O318 O 0.33916 0.31114 0.86964 0.0
O319 O 0.36959 0.34457 0.12242 0.0
C320 C 0.32794 0.28875 0.22915 0.0
O321 O 0.30911 0.29142 0.18092 0.0
C322 C 0.30001 0.32398 0.01675 0.0
O323 O 0.30374 0.30296 0.99201 0.0
O324 O 0.35602 0.29708 -0.00021 0.0
C325 C 0.40949 0.6022 0.972 0.0
O326 O 0.41502 0.58098 0.9862 0.0
O327 O 0.43457 0.56608 0.78414 0.0
Zn328 Zn 0.44236 0.59851 0.82121 0.0
O329 O 0.47136 0.59968 0.89658 0.0
C330 C 0.4647 0.60647 0.65222 0.0
O331 O 0.47262 0.58704 0.68222 0.0
O332 O 0.41839 0.61311 0.903 0.0
C333 C 0.48094 0.61863 0.91063 0.0
O334 O 0.47146 0.63716 0.87827 0.0
C335 C 0.44926 0.55057 0.79462 0.0
O336 O 0.46829 0.55518 0.83893 0.0
O337 O 0.44918 0.61612 0.70012 0.0
C338 C 0.14596 0.64708 0.75728 0.0
O339 O 0.16793 0.64613 0.77012 0.0
O340 O 0.18756 0.66423 0.57382 0.0
Zn341 Zn 0.15978 0.68042 0.6224 0.0
O342 O 0.16732 0.70584 0.71311 0.0
C343 C 0.16063 0.71041 0.47506 0.0
O344 O 0.18149 0.70989 0.50714 0.0
O345 O 0.13805 0.65991 0.69225 0.0
C346 C 0.14997 0.71652 0.74223 0.0
O347 O 0.12979 0.70914 0.71867 0.0
C348 C 0.20649 0.66512 0.61622 0.0
O349 O 0.20771 0.6766 0.6969 0.0
O350 O 0.14622 0.6967 0.50966 0.0
C351 C 0.0928 0.40284 0.48716 0.0
O352 O 0.08775 0.42433 0.49692 0.0
O353 O 0.067 0.43919 0.31355 0.0
Zn354 Zn 0.0602 0.4063 0.33697 0.0
O355 O 0.03104 0.4043 0.41028 0.0
C356 C 0.04086 0.40006 0.15796 0.0
O357 O 0.03651 0.42145 0.17392 0.0
O358 O 0.08385 0.39153 0.41942 0.0
C359 C 0.01467 0.41796 0.39945 0.0
O360 O 0.01676 0.43551 0.34251 0.0
C361 C 0.07898 0.4476 0.24683 0.0
O362 O 0.08764 0.43374 0.18294 0.0
O363 O 0.05387 0.38946 0.2147 0.0
C364 C 0.35451 0.65391 0.23581 0.0
O365 O 0.3371 0.66412 0.19664 0.0
O366 O 0.30898 0.66418 0.43402 0.0
Zn367 Zn 0.3385 0.6791 0.39524 0.0
O368 O 0.33405 0.70632 0.31002 0.0
C369 C 0.3407 0.70732 0.55303 0.0
O370 O 0.32011 0.71031 0.52068 0.0
O371 O 0.35872 0.65706 0.32449 0.0
C372 C 0.35222 0.7167 0.28911 0.0
O373 O 0.37163 0.70863 0.31883 0.0
C374 C 0.29003 0.6741 0.42596 0.0
O375 O 0.28893 0.69368 0.38187 0.0
O376 O 0.35313 0.69237 0.51406 0.0
C377 C 0.08815 0.59691 0.01798 0.0
O378 O 0.0823 0.57632 0.9934 0.0
O379 O 0.06288 0.55443 0.17715 0.0
Zn380 Zn 0.05614 0.58816 0.16825 0.0
O381 O 0.02676 0.59564 0.10422 0.0
C382 C 0.05339 0.58727 0.37545 0.0
O383 O 0.06553 0.56882 0.36699 0.0
O384 O 0.08011 0.60545 0.09467 0.0
C385 C 0.00936 0.58342 0.09276 0.0
O386 O 0.0096 0.56226 0.12089 0.0
C387 C 0.0599 0.53807 0.11921 0.0
O388 O 0.05062 0.54149 0.03479 0.0
O389 O 0.05059 0.59982 0.30242 0.0
C390 C 0.14982 0.35695 0.76388 0.0
O391 O 0.17169 0.35522 0.74938 0.0
O392 O 0.19121 0.3372 0.93778 0.0
Zn393 Zn 0.16046 0.32416 0.90458 0.0
O394 O 0.16266 0.29675 0.81898 0.0
C395 C 0.15823 0.29602 0.05996 0.0
O396 O 0.17821 0.29202 0.02268 0.0
O397 O 0.14086 0.34625 0.83328 0.0
C398 C 0.14384 0.28834 0.79307 0.0
O399 O 0.12498 0.29848 0.81775 0.0
C400 C 0.209 0.32742 0.90816 0.0
O401 O 0.20726 0.31025 0.8489 0.0
O402 O 0.14621 0.31181 0.02507 0.0
C403 C 0.4267 0.40767 0.43036 0.0
O404 O 0.43966 0.42457 0.40375 0.0
O405 O 0.44242 0.44534 0.64772 0.0
Zn406 Zn 0.44994 0.41334 0.60995 0.0
O407 O 0.48112 0.41082 0.55289 0.0
C408 C 0.44615 0.40241 0.8121 0.0
O409 O 0.43382 0.42085 0.81478 0.0
O410 O 0.42777 0.40025 0.51595 0.0
C411 C 0.49857 0.41103 0.6063 0.0
O412 O 0.49641 0.41453 0.69899 0.0
C413 C 0.454 0.4623 0.62155 0.0
O414 O 0.47075 0.45968 0.56068 0.0
O415 O 0.45194 0.39489 0.73023 0.0
C416 C 0.25941 0.15556 0.45008 0.0
C417 C 0.26357 0.16166 0.54742 0.0
C418 C 0.22301 0.16665 0.5752 0.0
C419 C 0.21913 0.16314 0.47553 0.0
N420 N 0.23159 0.14678 0.32692 0.0
N421 N 0.24946 0.16451 0.70848 0.0
C422 C 0.23674 0.15505 0.41596 0.0
C423 C 0.24528 0.16425 0.61193 0.0
N424 N 0.277 0.15157 0.38879 0.0
N425 N 0.20585 0.17371 0.63351 0.0
H426 H 0.26573 0.16249 0.73616 0.0
H427 H 0.23684 0.16444 0.76062 0.0
H428 H 0.18911 0.17448 0.6112 0.0
H429 H 0.20827 0.17961 0.70321 0.0
H430 H 0.27523 0.15053 0.31452 0.0
H431 H 0.29363 0.14976 0.41145 0.0
H432 H 0.24319 0.13873 0.28236 0.0
H433 H 0.21501 0.14604 0.30152 0.0
C434 C 0.07258 0.99031 0.88698 0.0
C435 C 0.06722 0.98384 0.79128 0.0
C436 C 0.07218 0.02297 0.73855 0.0
C437 C 0.07244 0.02996 0.836 0.0
N438 N 0.08593 0.02 0.99328 0.0
N439 N 0.0612 0.99407 0.62508 0.0
C440 C 0.07647 0.01353 0.9081 0.0
C441 C 0.06725 0.0001 0.71634 0.0
N442 N 0.07357 0.97433 0.95775 0.0
N443 N 0.07835 0.03775 0.66795 0.0
H444 H 0.05722 0.97755 0.60536 0.0
H445 H 0.05832 0.00581 0.57066 0.0
H446 H 0.08515 0.05359 0.68363 0.0
H447 H 0.08006 0.03315 0.59606 0.0
H448 H 0.07439 0.97816 0.03065 0.0
H449 H 0.07264 0.95703 0.94384 0.0
H450 H 0.09074 0.0088 0.04712 0.0
H451 H 0.09192 0.03636 0.00451 0.0
C452 C 0.23143 0.84987 0.97037 0.0
C453 C 0.23016 0.84745 0.07167 0.0
C454 C 0.27101 0.84134 0.07914 0.0
C455 C 0.27144 0.83899 0.9773 0.0
N456 N 0.25275 0.84292 0.82429 0.0
N457 N 0.2501 0.85418 0.21894 0.0
C458 C 0.25188 0.84409 0.9223 0.0
C459 C 0.25045 0.84735 0.12523 0.0
N460 N 0.21382 0.85935 0.92155 0.0
N461 N 0.28965 0.83622 0.13272 0.0
H462 H 0.23547 0.86055 0.25094 0.0
H463 H 0.26459 0.85639 0.26033 0.0
H464 H 0.3052 0.83204 0.10293 0.0
H465 H 0.28932 0.83467 0.20724 0.0
H466 H 0.21412 0.86284 0.84828 0.0
H467 H 0.2002 0.86684 0.95683 0.0
H468 H 0.2385 0.8434 0.78052 0.0
H469 H 0.26781 0.84053 0.78661 0.0
C470 C 0.4578 0.99319 0.08148 0.0
C471 C 0.4465 0.00905 0.14059 0.0
C472 C 0.43761 0.97935 0.25648 0.0
C473 C 0.44803 0.96309 0.19561 0.0
N474 N 0.46148 0.95389 0.03618 0.0
N475 N 0.41899 0.01563 0.26523 0.0
C476 C 0.45616 0.9698 0.10364 0.0
C477 C 0.43407 0.00156 0.22143 0.0
N478 N 0.47023 0.00044 0.00468 0.0
N479 N 0.43269 0.97437 0.35009 0.0
H480 H 0.41563 0.03183 0.23981 0.0
H481 H 0.40814 0.01029 0.31972 0.0
H482 H 0.43657 0.95899 0.38236 0.0
H483 H 0.42716 0.9865 0.39904 0.0
H484 H 0.48094 0.98988 0.96577 0.0
H485 H 0.47073 0.01732 0.98317 0.0
H486 H 0.46568 0.95785 0.96545 0.0
H487 H 0.45918 0.93665 0.04766 0.0
C488 C 0.72759 0.83162 0.58346 0.0
C489 C 0.72381 0.83117 0.48258 0.0
C490 C 0.76458 0.83308 0.4532 0.0
C491 C 0.7684 0.83274 0.55416 0.0
N492 N 0.75389 0.83936 0.71305 0.0
N493 N 0.73778 0.83903 0.32382 0.0
C494 C 0.74994 0.83461 0.61843 0.0
C495 C 0.74207 0.83445 0.41831 0.0
N496 N 0.71024 0.82769 0.64609 0.0
N497 N 0.78214 0.83057 0.39034 0.0
H498 H 0.72138 0.84047 0.29689 0.0
H499 H 0.75025 0.84373 0.27491 0.0
H500 H 0.79899 0.83021 0.41116 0.0
H501 H 0.77992 0.8275 0.31725 0.0
H502 H 0.71264 0.8248 0.71919 0.0
H503 H 0.69351 0.82587 0.62478 0.0
H504 H 0.74111 0.84303 0.7621 0.0
H505 H 0.77014 0.84198 0.73995 0.0
C506 C 0.96274 0.01636 0.22855 0.0
C507 C 0.94254 0.02452 0.27128 0.0
C508 C 0.92226 0.99149 0.20893 0.0
C509 C 0.94311 0.98187 0.17933 0.0
N510 N 0.98402 0.98327 0.18401 0.0
N511 N 0.90352 0.01823 0.31409 0.0
C512 C 0.96361 0.99377 0.19519 0.0
C513 C 0.92235 0.01168 0.26452 0.0
N514 N 0.98085 0.03038 0.21562 0.0
N515 N 0.90235 0.98171 0.1817 0.0
H516 H 0.90307 0.03263 0.35721 0.0
H517 H 0.88907 0.00827 0.31965 0.0
H518 H 0.90163 0.96726 0.13889 0.0
H519 H 0.88664 0.98917 0.19333 0.0
H520 H 0.9951 0.02566 0.17639 0.0
H521 H 0.9806 0.04748 0.23351 0.0
H522 H 0.99924 0.99074 0.20433 0.0
H523 H 0.98571 0.96631 0.16529 0.0
C524 C 0.76411 0.1592 0.92109 0.0
C525 C 0.77967 0.17598 0.95146 0.0
C526 C 0.75063 0.19273 0.05457 0.0
C527 C 0.73425 0.17824 0.01317 0.0
N528 N 0.72491 0.14794 0.90414 0.0
N529 N 0.78704 0.21075 0.03732 0.0
C530 C 0.74087 0.16132 0.94644 0.0
C531 C 0.77283 0.19319 0.01632 0.0
N532 N 0.77168 0.141 0.86986 0.0
N533 N 0.74503 0.20568 0.13227 0.0
H534 H 0.80333 0.21218 0.00955 0.0
H535 H 0.78195 0.22503 0.07534 0.0
H536 H 0.72907 0.20507 0.16387 0.0
H537 H 0.75677 0.21499 0.17157 0.0
H538 H 0.76171 0.12701 0.85388 0.0
H539 H 0.78858 0.13899 0.85019 0.0
H540 H 0.72824 0.13738 0.84601 0.0
H541 H 0.70795 0.14821 0.92392 0.0
C542 C 0.54544 0.99761 0.86779 0.0
C543 C 0.55534 0.9814 0.80584 0.0
C544 C 0.56293 0.01074 0.68659 0.0
C545 C 0.55383 0.02727 0.74979 0.0
N546 N 0.54295 0.03711 0.91193 0.0
N547 N 0.58048 0.97405 0.67284 0.0
C548 C 0.54704 0.02092 0.84407 0.0
C549 C 0.56654 0.98849 0.72105 0.0
N550 N 0.53436 0.99076 0.94888 0.0
N551 N 0.56651 0.01557 0.59172 0.0
H552 H 0.58393 0.95778 0.69711 0.0
H553 H 0.59051 0.9791 0.61511 0.0
H554 H 0.56265 0.03108 0.56053 0.0
H555 H 0.57089 0.00329 0.54138 0.0
H556 H 0.5245 0.00155 0.99061 0.0
H557 H 0.53414 0.97397 0.97171 0.0
H558 H 0.53983 0.03343 0.98391 0.0
H559 H 0.54518 0.05429 0.89871 0.0
C560 C 0.74639 0.66058 0.88898 0.0
C561 C 0.73042 0.66614 0.96101 0.0
C562 C 0.75917 0.65961 0.08485 0.0
C563 C 0.77587 0.65788 0.01211 0.0
N564 N 0.78576 0.65979 0.84348 0.0
N565 N 0.72192 0.673 0.12844 0.0
C566 C 0.7696 0.65889 0.91361 0.0
C567 C 0.73677 0.66593 0.05948 0.0
N568 N 0.73931 0.65655 0.79708 0.0
N569 N 0.76471 0.65491 0.17806 0.0
H570 H 0.70536 0.67776 0.11348 0.0
H571 H 0.72651 0.67582 0.19967 0.0
H572 H 0.78092 0.64998 0.19867 0.0
H573 H 0.75282 0.65372 0.23306 0.0
H574 H 0.74988 0.65024 0.74357 0.0
H575 H 0.72233 0.65725 0.777 0.0
H576 H 0.78211 0.66328 0.77178 0.0
H577 H 0.80303 0.65911 0.85743 0.0
C578 C 0.56945 0.50519 0.36156 0.0
C579 C 0.56744 0.52127 0.2868 0.0
C580 C 0.56238 0.49089 0.16868 0.0
C581 C 0.56447 0.47474 0.24369 0.0
N582 N 0.57637 0.46626 0.40514 0.0
N583 N 0.56725 0.5298 0.11743 0.0
C584 C 0.56991 0.48185 0.33835 0.0
C585 C 0.56577 0.51421 0.1896 0.0
N586 N 0.57055 0.51222 0.45505 0.0
N587 N 0.55579 0.48418 0.07897 0.0
H588 H 0.56936 0.54702 0.13025 0.0
H589 H 0.56842 0.52555 0.04501 0.0
H590 H 0.55327 0.46734 0.06019 0.0
H591 H 0.55123 0.49538 0.02466 0.0
H592 H 0.56904 0.50134 0.51348 0.0
H593 H 0.5718 0.5292 0.47449 0.0
H594 H 0.58265 0.47042 0.47273 0.0
H595 H 0.57772 0.44916 0.38895 0.0
C596 C 0.75949 0.30281 0.47493 0.0
C597 C 0.76909 0.32468 0.46634 0.0
C598 C 0.73732 0.34038 0.55823 0.0
C599 C 0.72932 0.31815 0.57598 0.0
N600 N 0.73561 0.27785 0.56717 0.0
N601 N 0.76928 0.36388 0.51515 0.0
C602 C 0.74132 0.29925 0.53958 0.0
C603 C 0.75853 0.34345 0.51158 0.0
N604 N 0.76712 0.28556 0.41811 0.0
N605 N 0.72471 0.35856 0.58628 0.0
H606 H 0.78505 0.36678 0.4843 0.0
H607 H 0.7635 0.37742 0.55612 0.0
H608 H 0.70981 0.35701 0.62587 0.0
H609 H 0.72831 0.37506 0.56522 0.0
H610 H 0.75924 0.26984 0.41439 0.0
H611 H 0.77974 0.28772 0.36652 0.0
H612 H 0.74527 0.2637 0.55017 0.0
H613 H 0.72259 0.27442 0.61519 0.0
C614 C 0.92701 0.49425 0.90986 0.0
C615 C 0.93082 0.47815 0.83615 0.0
C616 C 0.93204 0.5087 0.71651 0.0
C617 C 0.93136 0.52482 0.79186 0.0
N618 N 0.92976 0.53327 0.9614 0.0
N619 N 0.94032 0.47028 0.67069 0.0
C620 C 0.92922 0.51769 0.88894 0.0
C621 C 0.93385 0.48539 0.73951 0.0
N622 N 0.92068 0.4871 -0.00067 0.0
N623 N 0.93159 0.51561 0.62273 0.0
H624 H 0.94243 0.45322 0.68465 0.0
H625 H 0.94565 0.47485 0.60208 0.0
H626 H 0.93199 0.53249 0.60181 0.0
H627 H 0.92915 0.50457 0.56535 0.0
H628 H 0.91548 0.49797 0.05382 0.0
H629 H 0.91857 0.47006 0.01647 0.0
H630 H 0.93117 0.52903 0.03375 0.0
H631 H 0.93014 0.55062 0.949 0.0
C632 C 0.24841 0.33989 0.87412 0.0
C633 C 0.2317 0.33418 0.94293 0.0
C634 C 0.26076 0.33276 0.06855 0.0
C635 C 0.27751 0.33363 0.99618 0.0
N636 N 0.28825 0.34033 0.8322 0.0
N637 N 0.22146 0.32599 0.10752 0.0
C638 C 0.2716 0.3383 0.89966 0.0
C639 C 0.23762 0.33146 0.04135 0.0
N640 N 0.24192 0.34693 0.78477 0.0
N641 N 0.2671 0.33273 0.16294 0.0
H642 H 0.20429 0.32558 0.09181 0.0
H643 H 0.22504 0.32078 0.17727 0.0
H644 H 0.28398 0.33351 0.18411 0.0
H645 H 0.25578 0.33407 0.21991 0.0
H646 H 0.25306 0.35299 0.73296 0.0
H647 H 0.22496 0.3486 0.76545 0.0
H648 H 0.28531 0.3409 0.75854 0.0
H649 H 0.30532 0.34089 0.85076 0.0
C650 C 0.44308 0.50308 0.61027 0.0
C651 C 0.45011 0.48454 0.66714 0.0
C652 C 0.44973 0.50859 0.81048 0.0
C653 C 0.4462 0.5278 0.75155 0.0
N654 N 0.44147 0.54366 0.59236 0.0
N655 N 0.46305 0.46999 0.81968 0.0
C656 C 0.4431 0.52516 0.65068 0.0
C657 C 0.45403 0.4873 0.76708 0.0
N658 N 0.43594 0.49952 0.51808 0.0
N659 N 0.44857 0.51066 0.90818 0.0
H660 H 0.46704 0.45428 0.79035 0.0
H661 H 0.4685 0.47182 0.89039 0.0
H662 H 0.44492 0.52596 0.9421 0.0
H663 H 0.44884 0.4969 0.95481 0.0
H664 H 0.42829 0.51195 0.47634 0.0
H665 H 0.43576 0.48356 0.48621 0.0
H666 H 0.4423 0.54276 0.5177 0.0
H667 H 0.44082 0.56014 0.61785 0.0
C668 C 0.26891 0.66213 0.57508 0.0
C669 C 0.2695 0.66488 0.47342 0.0
C670 C 0.22902 0.65585 0.46529 0.0
C671 C 0.22783 0.65789 0.56679 0.0
N672 N 0.24722 0.65022 0.71434 0.0
N673 N 0.25077 0.66241 0.31996 0.0
C674 C 0.24805 0.65699 0.62058 0.0
C675 C 0.24976 0.66089 0.41788 0.0
N676 N 0.28774 0.66616 0.62918 0.0
N677 N 0.21101 0.64747 0.41539 0.0
H678 H 0.26596 0.66419 0.28264 0.0
H679 H 0.23656 0.66281 0.27595 0.0
H680 H 0.19708 0.64032 0.4496 0.0
H681 H 0.21117 0.6444 0.34178 0.0
H682 H 0.28746 0.66742 0.70379 0.0
H683 H 0.30351 0.66971 0.59996 0.0
H684 H 0.2615 0.64721 0.75608 0.0
H685 H 0.23217 0.64487 0.74631 0.0
C686 C 0.09164 0.4824 0.15363 0.0
C687 C 0.07851 0.47265 0.22867 0.0
C688 C 0.05368 0.50551 0.22929 0.0
C689 C 0.06576 0.51492 0.15132 0.0
N690 N 0.09623 0.51282 0.03695 0.0
N691 N 0.05634 0.48195 0.36941 0.0
C692 C 0.08486 0.50353 0.11285 0.0
C693 C 0.0623 0.48626 0.27639 0.0
N694 N 0.11157 0.47242 0.12807 0.0
N695 N 0.03323 0.5142 0.25528 0.0
H696 H 0.06506 0.47039 0.41203 0.0
H697 H 0.04555 0.49241 0.40851 0.0
H698 H 0.02548 0.5271 0.2165 0.0
H699 H 0.02287 0.5067 0.30682 0.0
H700 H 0.12264 0.47871 0.07661 0.0
H701 H 0.11839 0.45898 0.16685 0.0
H702 H 0.10904 0.50473 -0.00078 0.0
H703 H 0.09205 0.52851 0.00793 0.0
C704 C 0.092 0.14613 0.05154 0.0
C705 C 0.09832 0.1243 0.01883 0.0
C706 C 0.12839 0.12298 0.14015 0.0
C707 C 0.12113 0.1442 0.1761 0.0
N708 N 0.09246 0.17312 0.18207 0.0
N709 N 0.11875 0.08964 0.04774 0.0
C710 C 0.1017 0.15479 0.13728 0.0
C711 C 0.11549 0.11203 0.06751 0.0
N712 N 0.07779 0.15924 0.99778 0.0
N713 N 0.14769 0.11333 0.17501 0.0
H714 H 0.10908 0.08076 0.99777 0.0
H715 H 0.12946 0.07929 0.08755 0.0
H716 H 0.15675 0.12011 0.23251 0.0
H717 H 0.15536 0.09933 0.14354 0.0
H718 H 0.07457 0.17616 0.01305 0.0
H719 H 0.07106 0.15404 0.93219 0.0
H720 H 0.07703 0.18016 0.1621 0.0
H721 H 0.09903 0.17988 0.24516 0.0
C722 C 0.10893 0.86136 0.35819 0.0
C723 C 0.13126 0.86811 0.33407 0.0
C724 C 0.12817 0.90055 0.4433 0.0
C725 C 0.1055 0.8944 0.46349 0.0
N726 N 0.07267 0.87199 0.42534 0.0
N727 N 0.16054 0.89642 0.33777 0.0
C728 C 0.09539 0.87568 0.41657 0.0
C729 C 0.14043 0.8884 0.37211 0.0
N730 N 0.10097 0.84078 0.32929 0.0
N731 N 0.13823 0.91749 0.49461 0.0
H732 H 0.16978 0.88815 0.28444 0.0
H733 H 0.16705 0.91223 0.3553 0.0
H734 H 0.12971 0.92687 0.54677 0.0
H735 H 0.15542 0.9211 0.49105 0.0
H736 H 0.08599 0.83373 0.35469 0.0
H737 H 0.11014 0.82986 0.28558 0.0
H738 H 0.06388 0.86019 0.38429 0.0
H739 H 0.06215 0.8821 0.46742 0.0
C740 C 0.37768 0.87021 0.50613 0.0
C741 C 0.3951 0.88497 0.53705 0.0
C742 C 0.38231 0.88068 0.70378 0.0
C743 C 0.36657 0.864 0.67403 0.0
N744 N 0.35313 0.83913 0.54835 0.0
N745 N 0.41724 0.90012 0.66784 0.0
C746 C 0.36527 0.85772 0.57552 0.0
C747 C 0.39831 0.88912 0.63661 0.0
N748 N 0.37242 0.86865 0.41074 0.0
N749 N 0.38151 0.8891 0.79516 0.0
H750 H 0.42989 0.90587 0.62179 0.0
H751 H 0.42153 0.90135 0.74012 0.0
H752 H 0.36971 0.88378 0.84603 0.0
H753 H 0.39103 0.90297 0.81729 0.0
H754 H 0.35834 0.85991 0.38542 0.0
H755 H 0.38073 0.87792 0.3577 0.0
H756 H 0.35362 0.83249 0.47902 0.0
H757 H 0.34452 0.82883 0.59683 0.0
C758 C 0.36531 0.10497 0.76709 0.0
C759 C 0.37053 0.1278 0.74571 0.0
C760 C 0.40569 0.12479 0.83771 0.0
C761 C 0.39916 0.10287 0.86828 0.0
N762 N 0.37183 0.07267 0.87078 0.0
N763 N 0.39395 0.16069 0.77114 0.0
C764 C 0.37877 0.09303 0.83484 0.0
C765 C 0.39032 0.13805 0.78334 0.0
N766 N 0.34774 0.09461 0.72094 0.0
N767 N 0.4269 0.13263 0.85784 0.0
H768 H 0.38321 0.17106 0.73141 0.0
H769 H 0.40662 0.16958 0.8067 0.0
H770 H 0.4387 0.1233 0.89674 0.0
H771 H 0.43352 0.14742 0.82862 0.0
H772 H 0.34441 0.07738 0.72576 0.0
H773 H 0.33762 0.10293 0.67079 0.0
H774 H 0.35598 0.06572 0.85736 0.0
H775 H 0.38124 0.06345 0.9205 0.0
C776 C 0.87493 0.88752 0.96043 0.0
C777 C 0.89876 0.88612 0.95262 0.0
C778 C 0.89509 0.85821 0.82325 0.0
C779 C 0.87125 0.86092 0.82583 0.0
N780 N 0.83875 0.88154 0.88304 0.0
N781 N 0.93179 0.8731 0.86684 0.0
C782 C 0.86122 0.87648 0.89087 0.0
C783 C 0.90891 0.87248 0.88059 0.0
N784 N 0.86539 0.89939 0.03434 0.0
N785 N 0.90453 0.8411 0.77072 0.0
H786 H 0.94274 0.88229 0.91057 0.0
H787 H 0.93979 0.86576 0.8079 0.0
H788 H 0.8951 0.82984 0.72959 0.0
H789 H 0.92154 0.8367 0.77482 0.0
H790 H 0.84822 0.89888 0.0504 0.0
H791 H 0.87488 0.90854 0.0841 0.0
H792 H 0.83091 0.89438 0.92182 0.0
H793 H 0.82831 0.87444 0.83074 0.0
C794 C 0.89989 0.14328 0.69374 0.0
C795 C 0.8759 0.14381 0.69444 0.0
C796 C 0.87482 0.11822 0.5556 0.0
C797 C 0.89873 0.11673 0.55819 0.0
N798 N 0.93411 0.12515 0.63718 0.0
N799 N 0.84042 0.12853 0.6397 0.0
C800 C 0.91127 0.12828 0.63018 0.0
C801 C 0.86332 0.13037 0.62902 0.0
N802 N 0.91187 0.15818 0.74908 0.0
N803 N 0.86312 0.10813 0.48257 0.0
H804 H 0.8315 0.13674 0.69415 0.0
H805 H 0.83049 0.11728 0.6007 0.0
H806 H 0.87081 0.09804 0.43052 0.0
H807 H 0.846 0.11087 0.4699 0.0
H808 H 0.92926 0.16045 0.74357 0.0
H809 H 0.90431 0.16977 0.79539 0.0
H810 H 0.94367 0.13067 0.69542 0.0
H811 H 0.9435 0.11584 0.58769 0.0
C812 C 0.62386 0.12595 0.46733 0.0
C813 C 0.61059 0.10816 0.42891 0.0
C814 C 0.62855 0.11371 0.27168 0.0
C815 C 0.63959 0.13327 0.30741 0.0
N816 N 0.64335 0.16094 0.43443 0.0
N817 N 0.59709 0.08792 0.28937 0.0
C818 C 0.63611 0.1402 0.40404 0.0
C819 C 0.61209 0.10271 0.32965 0.0
N820 N 0.62537 0.12888 0.56455 0.0
N821 N 0.63423 0.10523 0.18357 0.0
H822 H 0.58427 0.08002 0.32826 0.0
H823 H 0.59595 0.0852 0.21558 0.0
H824 H 0.64651 0.11256 0.13975 0.0
H825 H 0.62837 0.08974 0.15814 0.0
H826 H 0.63659 0.14019 0.59633 0.0
H827 H 0.61723 0.11836 0.61376 0.0
H828 H 0.63901 0.1677 0.50107 0.0
H829 H 0.65151 0.17248 0.38971 0.0
C830 C 0.58513 0.87065 0.14777 0.0
C831 C 0.59604 0.88454 0.0786 0.0
C832 C 0.63292 0.87458 0.14615 0.0
C833 C 0.62224 0.85868 0.20762 0.0
N834 N 0.58837 0.83913 0.25775 0.0
N835 N 0.63023 0.89841 0.00497 0.0
C836 C 0.59836 0.85619 0.20682 0.0
C837 C 0.61993 0.88604 0.0755 0.0
N838 N 0.56212 0.87115 0.15677 0.0
N839 N 0.65531 0.87952 0.1585 0.0
H840 H 0.62132 0.90806 0.95508 0.0
H841 H 0.64755 0.89793 0.99185 0.0
H842 H 0.6652 0.8721 0.21186 0.0
H843 H 0.66357 0.89257 0.12263 0.0
H844 H 0.55346 0.86368 0.21365 0.0
H845 H 0.55164 0.88034 0.11101 0.0
H846 H 0.57137 0.83486 0.25138 0.0
H847 H 0.59734 0.82787 0.3006 0.0
C848 C 0.63458 0.61547 0.55477 0.0
C849 C 0.61217 0.60801 0.57178 0.0
C850 C 0.61565 0.61916 0.74096 0.0
C851 C 0.637 0.62902 0.72102 0.0
N852 N 0.66382 0.64173 0.60119 0.0
N853 N 0.57944 0.60805 0.6762 0.0
C854 C 0.64571 0.6286 0.62577 0.0
C855 C 0.60212 0.61128 0.66361 0.0
N856 N 0.6456 0.60947 0.47231 0.0
N857 N 0.60852 0.61665 0.83377 0.0
H858 H 0.56858 0.60347 0.62056 0.0
H859 H 0.57099 0.6124 0.73928 0.0
H860 H 0.61821 0.62161 0.8927 0.0
H861 H 0.59408 0.60757 0.8524 0.0
H862 H 0.66272 0.61264 0.46111 0.0
H863 H 0.63834 0.59927 0.4196 0.0
H864 H 0.66933 0.64362 0.53051 0.0
H865 H 0.67172 0.65276 0.64892 0.0
C866 C 0.62716 0.37101 0.96762 0.0
C867 C 0.60988 0.38556 0.93366 0.0
C868 C 0.62014 0.37592 0.76771 0.0
C869 C 0.63539 0.35934 0.80214 0.0
N870 N 0.64878 0.33718 0.93673 0.0
N871 N 0.58629 0.39734 0.8006 0.0
C872 C 0.63767 0.35577 0.90269 0.0
C873 C 0.60535 0.38683 0.8334 0.0
N874 N 0.63415 0.37218 0.06107 0.0
N875 N 0.62022 0.38188 0.67292 0.0
H876 H 0.57427 0.40456 0.84587 0.0
H877 H 0.58114 0.39664 0.72906 0.0
H878 H 0.63119 0.37478 0.62265 0.0
H879 H 0.61107 0.39556 0.64667 0.0
H880 H 0.64817 0.3634 0.08671 0.0
H881 H 0.62753 0.3837 0.11026 0.0
H882 H 0.64896 0.33277 0.00922 0.0
H883 H 0.65556 0.32475 0.89213 0.0
C884 C 0.88765 0.35301 0.19444 0.0
C885 C 0.86371 0.35164 0.19085 0.0
C886 C 0.86329 0.37771 0.05345 0.0
C887 C 0.88698 0.38047 0.06246 0.0
N888 N 0.9214 0.37375 0.15107 0.0
N889 N 0.82835 0.36567 0.12888 0.0
C890 C 0.89903 0.36915 0.13635 0.0
C891 C 0.8514 0.36479 0.12342 0.0
N892 N 0.89969 0.33793 0.24851 0.0
N893 N 0.85218 0.38732 0.97769 0.0
H894 H 0.8191 0.35689 0.18061 0.0
H895 H 0.81851 0.37667 0.08825 0.0
H896 H 0.8602 0.39765 0.92743 0.0
H897 H 0.8354 0.38382 0.96085 0.0
H898 H 0.91721 0.33644 0.24523 0.0
H899 H 0.89219 0.32532 0.28985 0.0
H900 H 0.93036 0.36801 0.21062 0.0
H901 H 0.93076 0.3846 0.10749 0.0
C902 C 0.85648 0.61396 0.3396 0.0
C903 C 0.8653 0.63468 0.30473 0.0
C904 C 0.89983 0.62903 0.39864 0.0
C905 C 0.88993 0.60973 0.44199 0.0
N906 N 0.85817 0.58466 0.46151 0.0
N907 N 0.89367 0.66399 0.31266 0.0
C908 C 0.8681 0.60231 0.41419 0.0
C909 C 0.88658 0.64274 0.33688 0.0
N910 N 0.83727 0.6052 0.29972 0.0
N911 N 0.92213 0.63389 0.41412 0.0
H912 H 0.88447 0.67479 0.26832 0.0
H913 H 0.90775 0.67172 0.34331 0.0
H914 H 0.93249 0.62417 0.45841 0.0
H915 H 0.93089 0.64626 0.37607 0.0
H916 H 0.83116 0.5891 0.31493 0.0
H917 H 0.82841 0.61333 0.24493 0.0
H918 H 0.84137 0.57998 0.4521 0.0
H919 H 0.86629 0.57565 0.51585 0.0
C920 C 0.4178 0.37295 0.33598 0.0
C921 C 0.41263 0.3957 0.35882 0.0
C922 C 0.37969 0.39421 0.25224 0.0
C923 C 0.38294 0.3706 0.24163 0.0
N924 N 0.40363 0.33673 0.28287 0.0
N925 N 0.38814 0.42806 0.34388 0.0
C926 C 0.40176 0.35976 0.28501 0.0
C927 C 0.39357 0.40648 0.31744 0.0
N928 N 0.43827 0.36409 0.36141 0.0
N929 N 0.36355 0.40489 0.19874 0.0
H930 H 0.39803 0.43763 0.39069 0.0
H931 H 0.37308 0.43595 0.32488 0.0
H932 H 0.35324 0.39631 0.15003 0.0
H933 H 0.36173 0.42237 0.19598 0.0
H934 H 0.44396 0.34837 0.33797 0.0
H935 H 0.45055 0.37336 0.39805 0.0
H936 H 0.41549 0.32783 0.32312 0.0
H937 H 0.39222 0.32624 0.24739 0.0
C938 C 0.37215 0.6099 0.05129 0.0
C939 C 0.39563 0.61426 0.04411 0.0
C940 C 0.39249 0.64428 0.1646 0.0
C941 C 0.36914 0.63926 0.17547 0.0
N942 N 0.33787 0.6141 0.1452 0.0
N943 N 0.42915 0.63149 0.10968 0.0
C944 C 0.35928 0.62112 0.12336 0.0
C945 C 0.4061 0.63022 0.10558 0.0
N946 N 0.36202 0.5956 0.98732 0.0
N947 N 0.40149 0.66314 0.20634 0.0
H948 H 0.43972 0.62135 0.06796 0.0
H949 H 0.43779 0.64099 0.16087 0.0
H950 H 0.39224 0.674 0.24997 0.0
H951 H 0.41767 0.66909 0.19117 0.0
H952 H 0.34458 0.5937 0.98172 0.0
H953 H 0.371 0.58683 0.93464 0.0
H954 H 0.33055 0.5996 0.11652 0.0
H955 H 0.32817 0.62153 0.19925 0.0
C956 C 0.13383 0.63677 0.9248 0.0
C957 C 0.13059 0.63487 0.82391 0.0
C958 C 0.097 0.61167 0.85277 0.0
C959 C 0.10246 0.61056 0.95216 0.0
N960 N 0.12885 0.61898 0.0797 0.0
N961 N 0.11114 0.61705 0.69135 0.0
C962 C 0.12164 0.62229 0.98753 0.0
C963 C 0.11271 0.62139 0.78757 0.0
N964 N 0.14773 0.65309 0.96137 0.0
N965 N 0.0764 0.6044 0.82084 0.0
H966 H 0.1227 0.62318 0.6412 0.0
H967 H 0.0997 0.60549 0.66261 0.0
H968 H 0.06388 0.59827 0.86663 0.0
H969 H 0.0708 0.60687 0.75065 0.0
H970 H 0.14892 0.65653 0.03465 0.0
H971 H 0.15604 0.66492 0.91854 0.0
H972 H 0.14407 0.62541 0.10555 0.0
H973 H 0.1209 0.60796 0.12736 0.0
C974 C 0.13762 0.36426 0.59372 0.0
C975 C 0.13542 0.36904 0.69338 0.0
C976 C 0.10334 0.39381 0.65819 0.0
C977 C 0.10767 0.39149 0.55817 0.0
N978 N 0.13234 0.37813 0.43199 0.0
N979 N 0.11886 0.39191 0.81875 0.0
C980 C 0.12582 0.37777 0.52619 0.0
C981 C 0.11905 0.38486 0.72525 0.0
N982 N 0.14995 0.34609 0.56326 0.0
N983 N 0.08369 0.40345 0.6896 0.0
H984 H 0.13048 0.38625 0.86962 0.0
H985 H 0.10867 0.40506 0.84325 0.0
H986 H 0.07108 0.40915 0.64334 0.0
H987 H 0.0788 0.40345 0.76152 0.0
H988 H 0.15016 0.34068 0.49199 0.0
H989 H 0.15781 0.33483 0.61014 0.0
H990 H 0.14687 0.37006 0.40726 0.0
H991 H 0.12468 0.3884 0.38061 0.0
C992 C 0.15616 0.2588 0.28045 0.0
C993 C 0.14372 0.24037 0.24202 0.0
C994 C 0.1337 0.26326 0.10208 0.0
C995 C 0.14936 0.27995 0.13197 0.0
N996 N 0.17568 0.29407 0.24921 0.0
N997 N 0.12315 0.22383 0.10985 0.0
C998 C 0.16057 0.27789 0.22146 0.0
C999 C 0.13294 0.24233 0.1515 0.0
N1000 N 0.16302 0.25841 0.37413 0.0
N1001 N 0.11964 0.26729 0.0263 0.0
H1002 H 0.12306 0.20793 0.142 0.0
H1003 H 0.11723 0.22367 0.0394 0.0
H1004 H 0.11942 0.28261 0.98973 0.0
H1005 H 0.10658 0.25645 0.00655 0.0
H1006 H 0.17009 0.27227 0.40909 0.0
H1007 H 0.15977 0.24485 0.41968 0.0
H1008 H 0.1866 0.2922 0.30733 0.0
H1009 H 0.17784 0.30912 0.21128 0.0
C1010 C 0.96004 0.89567 0.53358 0.0
C1011 C 0.95952 0.91191 0.45888 0.0
C1012 C 0.99091 0.93236 0.53348 0.0
C1013 C 0.99366 0.9144 0.59947 0.0
N1014 N 0.98194 0.87801 0.66035 0.0
N1015 N 0.97631 0.94425 0.37988 0.0
C1016 C 0.97835 0.89588 0.60004 0.0
C1017 C 0.97536 0.92996 0.45697 0.0
N1018 N 0.94296 0.88023 0.54121 0.0
N1019 N 0.00277 0.952 0.54551 0.0
H1020 H 0.96531 0.94321 0.32179 0.0
H1021 H 0.98925 0.95593 0.36951 0.0
H1022 H 0.01396 0.95457 0.60241 0.0
H1023 H 0.99978 0.96654 0.50535 0.0
H1024 H 0.94106 0.8694 0.59962 0.0
H1025 H 0.92958 0.87954 0.4925 0.0
H1026 H 0.97283 0.86299 0.65699 0.0
H1027 H 0.99512 0.8775 0.70995 0.0
C1028 C 0.36397 0.74099 0.59477 0.0
C1029 C 0.34932 0.72351 0.62533 0.0
C1030 C 0.34051 0.74501 0.77109 0.0
C1031 C 0.35155 0.76411 0.7308 0.0
N1032 N 0.37218 0.78099 0.59924 0.0
N1033 N 0.32458 0.70777 0.74463 0.0
C1034 C 0.36311 0.76224 0.64177 0.0
C1035 C 0.338 0.72516 0.71468 0.0
N1036 N 0.37874 0.73728 0.52112 0.0
N1037 N 0.33317 0.74554 0.86416 0.0
H1038 H 0.32439 0.69221 0.70944 0.0
H1039 H 0.31336 0.70892 0.80209 0.0
H1040 H 0.33497 0.75967 0.90794 0.0
H1041 H 0.32713 0.73144 0.90075 0.0
H1042 H 0.39105 0.74887 0.50031 0.0
H1043 H 0.38053 0.72153 0.48889 0.0
H1044 H 0.37839 0.78109 0.52919 0.0
H1045 H 0.37165 0.79701 0.63029 0.0
C1046 C 0.52804 0.13076 0.89649 0.0
C1047 C 0.54467 0.1139 0.9087 0.0
C1048 C 0.5225 0.09648 0.03646 0.0
C1049 C 0.50383 0.11005 0.00841 0.0
N1050 N 0.48901 0.14184 0.91944 0.0
N1051 N 0.56301 0.09026 0.02498 0.0
C1052 C 0.50681 0.12819 0.94271 0.0
C1053 C 0.54364 0.09966 0.99002 0.0
N1054 N 0.53294 0.14917 0.84124 0.0
N1055 N 0.51983 0.08027 0.10546 0.0
H1056 H 0.57885 0.09464 0.99777 0.0
H1057 H 0.56374 0.08062 0.08742 0.0
H1058 H 0.50502 0.07855 0.14552 0.0
H1059 H 0.53193 0.06802 0.12062 0.0
H1060 H 0.52232 0.16307 0.83376 0.0
H1061 H 0.54893 0.15136 0.81076 0.0
H1062 H 0.48938 0.15356 0.86372 0.0
H1063 H 0.47332 0.14078 0.95301 0.0
C1064 C 0.14095 0.74683 0.43831 0.0
C1065 C 0.15433 0.72839 0.40634 0.0
C1066 C 0.16292 0.74876 0.25742 0.0
C1067 C 0.1523 0.76828 0.29588 0.0
N1068 N 0.13381 0.78706 0.42801 0.0
N1069 N 0.17872 0.71164 0.28732 0.0
C1070 C 0.14184 0.76759 0.38742 0.0
C1071 C 0.16546 0.72931 0.31618 0.0
N1072 N 0.12741 0.74461 0.51724 0.0
N1073 N 0.16978 0.7485 0.16369 0.0
H1074 H 0.17953 0.69639 0.32479 0.0
H1075 H 0.18965 0.71243 0.22874 0.0
H1076 H 0.16826 0.76243 0.11869 0.0
H1077 H 0.17521 0.734 0.12816 0.0
H1078 H 0.11567 0.75674 0.53827 0.0
H1079 H 0.12621 0.72975 0.55655 0.0
H1080 H 0.12837 0.78815 0.49903 0.0
H1081 H 0.13456 0.80271 0.39377 0.0
C1082 C 0.51887 0.91884 0.44797 0.0
C1083 C 0.51434 0.89703 0.41061 0.0
C1084 C 0.54767 0.88218 0.49448 0.0
C1085 C 0.54945 0.90288 0.54478 0.0
N1086 N 0.53641 0.94093 0.57313 0.0
N1087 N 0.52407 0.8575 0.39807 0.0
C1088 C 0.53519 0.92134 0.52149 0.0
C1089 C 0.52891 0.87861 0.43216 0.0
N1090 N 0.50789 0.93726 0.41164 0.0
N1091 N 0.56389 0.86604 0.50687 0.0
H1092 H 0.51044 0.85414 0.3529 0.0
H1093 H 0.53264 0.84299 0.41938 0.0
H1094 H 0.57767 0.86843 0.55259 0.0
H1095 H 0.56487 0.85136 0.46587 0.0
H1096 H 0.51216 0.95385 0.42881 0.0
H1097 H 0.49601 0.93611 0.35678 0.0
H1098 H 0.52444 0.95379 0.56884 0.0
H1099 H 0.5487 0.94379 0.625 0.0
C1100 C 0.33839 0.23106 0.88275 0.0
C1101 C 0.33977 0.22921 0.78187 0.0
C1102 C 0.35467 0.268 0.77496 0.0
C1103 C 0.34832 0.27124 0.87207 0.0
N1104 N 0.3302 0.25571 0.01446 0.0
N1105 N 0.34896 0.24685 0.62886 0.0
C1106 C 0.33942 0.25269 0.92558 0.0
C1107 C 0.34814 0.2478 0.72688 0.0
N1108 N 0.33641 0.21211 0.93818 0.0
N1109 N 0.36736 0.28401 0.72917 0.0
H1110 H 0.34534 0.23248 0.58902 0.0
H1111 H 0.35185 0.26099 0.58598 0.0
H1112 H 0.37285 0.29874 0.76317 0.0
H1113 H 0.37446 0.28159 0.66141 0.0
H1114 H 0.33747 0.21247 0.01296 0.0
H1115 H 0.3365 0.19585 0.90913 0.0
H1116 H 0.32135 0.2431 0.05071 0.0
H1117 H 0.32923 0.27126 0.048 0.0
C1118 C 0.96782 0.07945 0.91675 0.0
C1119 C 0.97546 0.10055 0.88204 0.0
C1120 C 0.94515 0.11967 0.97023 0.0
C1121 C 0.94081 0.09929 0.02008 0.0
N1122 N 0.94825 0.05938 0.04274 0.0
N1123 N 0.97138 0.14107 0.87204 0.0
C1124 C 0.9518 0.07891 0.99246 0.0
C1125 C 0.96379 0.12076 0.90581 0.0
N1126 N 0.97597 0.05997 0.87698 0.0
N1127 N 0.93148 0.13791 0.98558 0.0
H1128 H 0.98479 0.14256 0.82387 0.0
H1129 H 0.96521 0.15659 0.89546 0.0
H1130 H 0.91771 0.13728 0.03243 0.0
H1131 H 0.93244 0.15281 0.94603 0.0
H1132 H 0.96952 0.04401 0.89264 0.0
H1133 H 0.98765 0.05999 0.82076 0.0
H1134 H 0.95804 0.04491 0.03396 0.0
H1135 H 0.93641 0.05783 0.09755 0.0
C1136 C 0.84165 0.74397 0.71788 0.0
C1137 C 0.85308 0.76295 0.75702 0.0
C1138 C 0.86251 0.74119 0.90122 0.0
C1139 C 0.84853 0.72339 0.86763 0.0
N1140 N 0.82442 0.70737 0.74645 0.0
N1141 N 0.87277 0.78075 0.88855 0.0
C1142 C 0.83817 0.72456 0.7761 0.0
C1143 C 0.8634 0.76177 0.84884 0.0
N1144 N 0.83455 0.74435 0.62446 0.0
N1145 N 0.87465 0.73854 0.98403 0.0
H1146 H 0.87364 0.79621 0.85286 0.0
H1147 H 0.87809 0.78179 0.95967 0.0
H1148 H 0.87401 0.72394 0.02569 0.0
H1149 H 0.88685 0.74995 0.00741 0.0
H1150 H 0.82835 0.73028 0.58819 0.0
H1151 H 0.83644 0.75844 0.58046 0.0
H1152 H 0.81396 0.7083 0.68646 0.0
H1153 H 0.82281 0.6923 0.78475 0.0
C1154 C 0.03638 0.10706 0.45371 0.0
C1155 C 0.0362 0.11887 0.54209 0.0
C1156 C 0.99989 0.13597 0.50217 0.0
C1157 C 0.99791 0.12067 0.42397 0.0
N1158 N 0.01502 0.09381 0.31569 0.0
N1159 N 0.02502 0.15362 0.6176 0.0
C1160 C 0.01659 0.10712 0.39573 0.0
C1161 C 0.02025 0.13635 0.55588 0.0
N1162 N 0.05583 0.09675 0.42445 0.0
N1163 N 0.98188 0.1489 0.52964 0.0
H1164 H 0.04081 0.15511 0.65036 0.0
H1165 H 0.01473 0.16775 0.62601 0.0
H1166 H 0.9666 0.14916 0.49249 0.0
H1167 H 0.98154 0.15813 0.59336 0.0
H1168 H 0.05785 0.08884 0.35825 0.0
H1169 H 0.07083 0.09838 0.46333 0.0
H1170 H 0.0269 0.08162 0.29696 0.0
H1171 H 0.00129 0.09453 0.26876 0.0
C1172 C 0.6393 0.27938 0.2644 0.0
C1173 C 0.65773 0.28554 0.32385 0.0
C1174 C 0.67884 0.25189 0.27209 0.0
C1175 C 0.66085 0.24627 0.20927 0.0
N1176 N 0.62421 0.25438 0.14183 0.0
N1177 N 0.69599 0.27913 0.37907 0.0
C1178 C 0.64118 0.26003 0.204 0.0
C1179 C 0.67779 0.27224 0.32599 0.0
N1180 N 0.6198 0.29178 0.26785 0.0
N1181 N 0.69676 0.23747 0.28185 0.0
H1182 H 0.69565 0.29281 0.42576 0.0
H1183 H 0.71205 0.27213 0.37314 0.0
H1184 H 0.69889 0.22309 0.23979 0.0
H1185 H 0.7089 0.2388 0.33558 0.0
H1186 H 0.60476 0.28706 0.23495 0.0
H1187 H 0.61832 0.30666 0.30758 0.0
H1188 H 0.61075 0.26492 0.12466 0.0
H1189 H 0.62382 0.2391 0.10466 0.0
C1190 C 0.45717 0.89185 0.95489 0.0
C1191 C 0.45593 0.87703 0.03476 0.0
C1192 C 0.49412 0.86342 0.00365 0.0
C1193 C 0.49689 0.88101 0.9354 0.0
N1194 N 0.48006 0.90762 0.82567 0.0
N1195 N 0.46771 0.84135 0.0986 0.0
C1196 C 0.47801 0.89391 0.90434 0.0
C1197 C 0.47262 0.8602 0.04619 0.0
N1198 N 0.43848 0.90378 0.92822 0.0
N1199 N 0.51224 0.85089 0.03298 0.0
H1200 H 0.45161 0.83872 0.1273 0.0
H1201 H 0.47854 0.82754 0.10432 0.0
H1202 H 0.5284 0.85277 0.00427 0.0
H1203 H 0.51161 0.83972 0.09074 0.0
H1204 H 0.43867 0.91742 0.88122 0.0
H1205 H 0.42236 0.89923 0.95154 0.0
H1206 H 0.46691 0.91697 0.79622 0.0
H1207 H 0.49496 0.90881 0.78585 0.0
C1208 C 0.86252 0.28754 0.76595 0.0
C1209 C 0.84509 0.28782 0.69629 0.0
C1210 C 0.82853 0.25369 0.76642 0.0
C1211 C 0.84744 0.25173 0.82797 0.0
N1212 N 0.88377 0.26538 0.88149 0.0
N1213 N 0.81363 0.26904 0.61901 0.0
C1214 C 0.86476 0.26839 0.82723 0.0
C1215 C 0.82862 0.27035 0.69354 0.0
N1216 N 0.87671 0.30566 0.77406 0.0
N1217 N 0.81008 0.24012 0.77974 0.0
H1218 H 0.81315 0.28068 0.56304 0.0
H1219 H 0.80305 0.25521 0.60778 0.0
H1220 H 0.8091 0.22812 0.83444 0.0
H1221 H 0.79487 0.24238 0.74336 0.0
H1222 H 0.88829 0.30758 0.82974 0.0
H1223 H 0.87565 0.31969 0.72892 0.0
H1224 H 0.89799 0.27568 0.87645 0.0
H1225 H 0.88609 0.25155 0.92677 0.0
C1226 C 0.46423 0.06864 0.42854 0.0
C1227 C 0.45204 0.08753 0.39292 0.0
C1228 C 0.47523 0.11307 0.49032 0.0
C1229 C 0.4874 0.09413 0.52558 0.0
N1230 N 0.48941 0.05388 0.55009 0.0
N1231 N 0.44212 0.12677 0.40497 0.0
C1232 C 0.48056 0.0719 0.50166 0.0
C1233 C 0.45628 0.10947 0.42923 0.0
N1234 N 0.4613 0.04777 0.38841 0.0
N1235 N 0.48253 0.13446 0.51065 0.0
H1236 H 0.42814 0.12441 0.36037 0.0
H1237 H 0.44293 0.1428 0.43553 0.0
H1238 H 0.49631 0.1378 0.55508 0.0
H1239 H 0.47594 0.1489 0.47849 0.0
H1240 H 0.47184 0.03406 0.40226 0.0
H1241 H 0.44929 0.04446 0.33585 0.0
H1242 H 0.48336 0.03743 0.543 0.0
H1243 H 0.50131 0.05567 0.60462 0.0
C1244 C 0.65335 0.74163 0.30501 0.0
C1245 C 0.64085 0.76005 0.26703 0.0
C1246 C 0.63043 0.73702 0.12787 0.0
C1247 C 0.64641 0.72052 0.15657 0.0
N1248 N 0.67303 0.7065 0.27272 0.0
N1249 N 0.61924 0.77627 0.13706 0.0
C1250 C 0.65773 0.72258 0.24577 0.0
C1251 C 0.62957 0.75794 0.17759 0.0
N1252 N 0.66039 0.74204 0.39846 0.0
N1253 N 0.6162 0.7328 0.05285 0.0
H1254 H 0.61867 0.79211 0.16977 0.0
H1255 H 0.61307 0.77637 0.06699 0.0
H1256 H 0.61594 0.7174 0.01692 0.0
H1257 H 0.60298 0.74349 0.03365 0.0
H1258 H 0.66763 0.72823 0.43307 0.0
H1259 H 0.657 0.75551 0.44435 0.0
H1260 H 0.68401 0.7084 0.3306 0.0
H1261 H 0.67529 0.69152 0.23427 0.0
C1262 C 0.03855 0.89068 -0.00031 0.0
C1263 C 0.03645 0.87645 0.91831 0.0
C1264 C 0.99966 0.86329 0.97469 0.0
C1265 C 0.9998 0.88068 0.0452 0.0
N1266 N 0.02004 0.90931 0.13382 0.0
N1267 N 0.02188 0.8408 0.86382 0.0
C1268 C 0.01961 0.89371 0.06132 0.0
C1269 C 0.01912 0.86002 0.91671 0.0
N1270 N 0.05904 0.90014 0.02006 0.0
N1271 N 0.98055 0.85089 0.95865 0.0
H1272 H 0.03713 0.83709 0.82961 0.0
H1273 H 0.01055 0.82735 0.865 0.0
H1274 H 0.96589 0.85259 -0.0005 0.0
H1275 H 0.97865 0.84009 0.90013 0.0
H1276 H 0.0624 0.90966 0.08125 0.0
H1277 H 0.07348 0.89614 0.98038 0.0
H1278 H 0.03279 0.92125 0.14232 0.0
H1279 H 0.0071 0.91084 0.18436 0.0
C1280 C 0.65454 0.77528 0.74875 0.0
C1281 C 0.64341 0.7762 0.6589 0.0
C1282 C 0.63099 0.73707 0.67687 0.0
C1283 C 0.64224 0.73598 0.76675 0.0
N1284 N 0.65918 0.75575 0.90031 0.0
N1285 N 0.61485 0.76104 0.55403 0.0
C1286 C 0.65235 0.75564 0.80658 0.0
C1287 C 0.62945 0.75812 0.62878 0.0
N1288 N 0.66757 0.79308 0.77759 0.0
N1289 N 0.62305 0.71781 0.63437 0.0
H1290 H 0.61267 0.77661 0.52067 0.0
H1291 H 0.60303 0.74895 0.53331 0.0
H1292 H 0.62445 0.70186 0.66555 0.0
H1293 H 0.61702 0.71732 0.5641 0.0
H1294 H 0.67855 0.79242 0.83597 0.0
H1295 H 0.66784 0.80838 0.74037 0.0
H1296 H 0.66464 0.7702 0.93611 0.0
H1297 H 0.65738 0.74179 0.94514 0.0
C1298 C 0.45733 0.40766 0.98598 0.0
C1299 C 0.46027 0.39623 0.89735 0.0
C1300 C 0.50042 0.39169 0.92798 0.0
C1301 C 0.49834 0.40559 0.01081 0.0
N1302 N 0.47421 0.41997 0.13665 0.0
N1303 N 0.48086 0.3661 0.82114 0.0
C1304 C 0.47652 0.41146 0.04585 0.0
C1305 C 0.48058 0.38431 0.88116 0.0
N1306 N 0.43625 0.41472 0.01206 0.0
N1307 N 0.52109 0.38686 0.88925 0.0
H1308 H 0.46599 0.35954 0.79189 0.0
H1309 H 0.49512 0.35603 0.81121 0.0
H1310 H 0.53624 0.39299 0.91695 0.0
H1311 H 0.52296 0.37865 0.82342 0.0
H1312 H 0.43298 0.42545 0.06966 0.0
H1313 H 0.42186 0.40942 0.97496 0.0
H1314 H 0.45873 0.42323 0.16923 0.0
H1315 H 0.4879 0.42205 0.18303 0.0
C1316 C 0.88204 0.24746 0.21829 0.0
C1317 C 0.86781 0.24973 0.29984 0.0
C1318 C 0.85906 0.20924 0.2934 0.0
C1319 C 0.86991 0.20818 0.20284 0.0
N1320 N 0.90196 0.22164 0.11302 0.0
N1321 N 0.84507 0.23263 0.42418 0.0
C1322 C 0.88471 0.22586 0.17562 0.0
C1323 C 0.85723 0.23045 0.34108 0.0
N1324 N 0.8919 0.26609 0.17807 0.0
N1325 N 0.85167 0.18969 0.33496 0.0
H1326 H 0.84463 0.24756 0.46402 0.0
H1327 H 0.83491 0.21996 0.45275 0.0
H1328 H 0.85487 0.17395 0.30386 0.0
H1329 H 0.84467 0.18866 0.40338 0.0
H1330 H 0.90018 0.26575 0.11202 0.0
H1331 H 0.89033 0.28228 0.2069 0.0
H1332 H 0.91425 0.23352 0.09523 0.0
H1333 H 0.90576 0.20529 0.09 0.0
C1334 C 0.00112 0.57193 0.51857 0.0
C1335 C 0.99948 0.59055 0.58197 0.0
C1336 C 0.03592 0.60479 0.52259 0.0
C1337 C 0.03563 0.588 0.45017 0.0
N1338 N 0.01508 0.55878 0.36607 0.0
N1339 N 0.0139 0.62659 0.63649 0.0
C1340 C 0.01748 0.57238 0.44466 0.0
C1341 C 0.01662 0.60744 0.58282 0.0
N1342 N 0.98752 0.55346 0.53047 0.0
N1343 N 0.05461 0.61806 0.53391 0.0
H1344 H 0.99969 0.62962 0.67877 0.0
H1345 H 0.02477 0.64039 0.63253 0.0
H1346 H 0.06881 0.61662 0.48977 0.0
H1347 H 0.05678 0.62908 0.59155 0.0
H1348 H 0.98957 0.53859 0.49127 0.0
H1349 H 0.97593 0.55199 0.58666 0.0
H1350 H 0.00083 0.54882 0.35416 0.0
H1351 H 0.0261 0.55936 0.30782 0.0
C1352 C 0.66019 0.22194 0.66439 0.0
C1353 C 0.65809 0.24322 0.71201 0.0
C1354 C 0.64009 0.22359 0.84543 0.0
C1355 C 0.64952 0.20295 0.81425 0.0
N1356 N 0.66384 0.18125 0.68115 0.0
N1357 N 0.64823 0.2631 0.85955 0.0
C1358 C 0.65814 0.2017 0.7193 0.0
C1359 C 0.64835 0.24384 0.80542 0.0
N1360 N 0.66267 0.22099 0.56682 0.0
N1361 N 0.62317 0.22392 0.91181 0.0
H1362 H 0.65658 0.27786 0.8397 0.0
H1363 H 0.64231 0.26332 0.93019 0.0
H1364 H 0.61546 0.2091 0.93593 0.0
H1365 H 0.61493 0.23882 0.93129 0.0
H1366 H 0.66274 0.20593 0.52813 0.0
H1367 H 0.6618 0.23523 0.52296 0.0
H1368 H 0.67306 0.17947 0.6178 0.0
H1369 H 0.65929 0.16608 0.71407 0.0
C1370 C 0.01057 0.38921 0.92601 0.0
C1371 C 0.99021 0.38048 0.96404 0.0
C1372 C 0.00772 0.3755 0.12139 0.0
C1373 C 0.02668 0.388 0.08767 0.0
N1374 N 0.04771 0.40489 0.95851 0.0
N1375 N 0.97146 0.35818 0.08388 0.0
C1376 C 0.02878 0.39382 0.98937 0.0
C1377 C 0.98949 0.37122 0.0575 0.0
N1378 N 0.01248 0.39251 0.82925 0.0
N1379 N 0.00642 0.36932 0.21592 0.0
H1380 H 0.95816 0.35466 0.037 0.0
H1381 H 0.97036 0.34937 0.14833 0.0
H1382 H 0.01969 0.37142 0.26417 0.0
H1383 H 0.99201 0.36274 0.24825 0.0
H1384 H 0.02748 0.39697 0.79518 0.0
H1385 H 0.99944 0.38855 0.78176 0.0
H1386 H 0.0493 0.41227 0.891 0.0
H1387 H 0.06178 0.40727 0.00266 0.0
C1388 C 0.85235 0.74139 0.34221 0.0
C1389 C 0.83978 0.74242 0.25536 0.0
C1390 C 0.835 0.78322 0.27529 0.0
C1391 C 0.84648 0.78183 0.36404 0.0
N1392 N 0.87362 0.76238 0.46144 0.0
N1393 N 0.82657 0.76526 0.12299 0.0
C1394 C 0.85791 0.76182 0.3899 0.0
C1395 C 0.83346 0.76369 0.21644 0.0
N1396 N 0.85753 0.72104 0.3831 0.0
N1397 N 0.82495 0.80304 0.24935 0.0
H1398 H 0.82615 0.75136 0.07693 0.0
H1399 H 0.82356 0.78058 0.08853 0.0
H1400 H 0.82729 0.81789 0.28864 0.0
H1401 H 0.81388 0.80452 0.19153 0.0
H1402 H 0.86454 0.71953 0.45144 0.0
H1403 H 0.85303 0.70556 0.35309 0.0
H1404 H 0.88372 0.74861 0.47953 0.0
H1405 H 0.8782 0.77746 0.4948 0.0
C1406 C 0.49596 0.6097 0.42107 0.0
C1407 C 0.51558 0.62036 0.45821 0.0
C1408 C 0.49382 0.6332 0.59695 0.0
C1409 C 0.4767 0.61765 0.57256 0.0
N1410 N 0.45948 0.59296 0.45736 0.0
N1411 N 0.53353 0.64213 0.58423 0.0
C1412 C 0.47698 0.6068 0.48217 0.0
C1413 C 0.51453 0.6326 0.54588 0.0
N1414 N 0.49554 0.60259 0.3277 0.0
N1415 N 0.49033 0.64814 0.67001 0.0
H1416 H 0.54925 0.64172 0.55059 0.0
H1417 H 0.53409 0.64888 0.65332 0.0
H1418 H 0.47469 0.64942 0.70396 0.0
H1419 H 0.50171 0.6609 0.68785 0.0
H1420 H 0.48115 0.59621 0.2943 0.0
H1421 H 0.50908 0.60515 0.28094 0.0
H1422 H 0.45973 0.58228 0.39791 0.0
H1423 H 0.44485 0.59187 0.49915 0.0
C1424 C 0.31676 0.24226 0.40994 0.0
C1425 C 0.32964 0.22437 0.36904 0.0
C1426 C 0.34654 0.25095 0.25507 0.0
C1427 C 0.33101 0.26787 0.2862 0.0
N1428 N 0.30085 0.27968 0.39119 0.0
N1429 N 0.35541 0.21095 0.24809 0.0
C1430 C 0.31599 0.26351 0.36315 0.0
C1431 C 0.34442 0.22857 0.2912 0.0
N1432 N 0.30607 0.23924 0.49606 0.0
N1433 N 0.36321 0.25604 0.19052 0.0
H1434 H 0.35437 0.19437 0.27305 0.0
H1435 H 0.3641 0.21237 0.18329 0.0
H1436 H 0.36505 0.27174 0.15812 0.0
H1437 H 0.37644 0.2451 0.1742 0.0
H1438 H 0.29826 0.2522 0.53419 0.0
H1439 H 0.30741 0.2244 0.53558 0.0
H1440 H 0.28736 0.27649 0.43733 0.0
H1441 H 0.30109 0.29616 0.36458 0.0
C1442 C 0.527 0.63057 0.09449 0.0
C1443 C 0.54175 0.61256 0.07227 0.0
C1444 C 0.52107 0.60588 0.92313 0.0
C1445 C 0.5032 0.61948 0.95889 0.0
N1446 N 0.48906 0.64524 0.07993 0.0
N1447 N 0.55484 0.58442 0.96128 0.0
C1448 C 0.50629 0.63244 0.04381 0.0
C1449 C 0.53961 0.60089 0.98414 0.0
N1450 N 0.53266 0.64556 0.16487 0.0
N1451 N 0.52037 0.5981 0.83079 0.0
H1452 H 0.56924 0.58151 0.00282 0.0
H1453 H 0.55284 0.57334 0.90375 0.0
H1454 H 0.50737 0.60239 0.7837 0.0
H1455 H 0.53366 0.58949 0.79816 0.0
H1456 H 0.52326 0.65999 0.18035 0.0
H1457 H 0.54829 0.64499 0.19916 0.0
H1458 H 0.48953 0.65267 0.14775 0.0
H1459 H 0.47358 0.64719 0.0455 0.0
C1460 C 0.16641 0.77622 0.81764 0.0
C1461 C 0.15449 0.77806 0.90567 0.0
C1462 C 0.14096 0.73918 0.88877 0.0
C1463 C 0.15209 0.73758 0.79885 0.0
N1464 N 0.17106 0.75627 0.66723 0.0
N1465 N 0.12543 0.76364 0.01105 0.0
C1466 C 0.16361 0.75659 0.76013 0.0
C1467 C 0.14006 0.76034 0.9365 0.0
N1468 N 0.18063 0.79319 0.78954 0.0
N1469 N 0.13227 0.72023 0.93119 0.0
H1470 H 0.12372 0.77908 0.04573 0.0
H1471 H 0.11318 0.75191 0.03109 0.0
H1472 H 0.13313 0.70424 0.89983 0.0
H1473 H 0.12628 0.71991 0.00158 0.0
H1474 H 0.19208 0.79163 0.73305 0.0
H1475 H 0.18167 0.80861 0.82571 0.0
H1476 H 0.17722 0.77045 0.63157 0.0
H1477 H 0.16924 0.74229 0.6227 0.0
C1478 C 0.97354 0.4084 0.41624 0.0
C1479 C 0.99422 0.41531 0.459 0.0
C1480 C 0.97614 0.41691 0.61687 0.0
C1481 C 0.956 0.40783 0.57601 0.0
N1482 N 0.93577 0.39317 0.43964 0.0
N1483 N 0.01605 0.42509 0.5992 0.0
C1484 C 0.95472 0.40321 0.47622 0.0
C1485 C 0.99576 0.41916 0.55915 0.0
N1486 N 0.9719 0.40702 0.31839 0.0
N1487 N 0.97622 0.42457 0.70961 0.0
H1488 H 0.03045 0.42876 0.55891 0.0
H1489 H 0.01906 0.42542 0.6728 0.0
H1490 H 0.96243 0.42325 0.75543 0.0
H1491 H 0.98924 0.43405 0.7395 0.0
H1492 H 0.95682 0.40425 0.28187 0.0
H1493 H 0.98549 0.41015 0.27255 0.0
H1494 H 0.93448 0.38719 0.36958 0.0
H1495 H 0.92167 0.38934 0.48164 0.0
C1496 C 0.36227 0.73859 0.14159 0.0
C1497 C 0.35183 0.73791 0.23327 0.0
C1498 C 0.34016 0.77742 0.21623 0.0
C1499 C 0.35024 0.7779 0.12392 0.0
N1500 N 0.37676 0.76175 0.01205 0.0
N1501 N 0.3357 0.75784 0.36807 0.0
C1502 C 0.36333 0.7594 0.09119 0.0
C1503 C 0.34222 0.75771 0.27385 0.0
N1504 N 0.37009 0.71911 0.10039 0.0
N1505 N 0.3283 0.79578 0.24769 0.0
H1506 H 0.33688 0.74366 0.412 0.0
H1507 H 0.33079 0.77234 0.40492 0.0
H1508 H 0.3285 0.81112 0.21086 0.0
H1509 H 0.31797 0.79569 0.30824 0.0
H1510 H 0.37547 0.71808 0.02927 0.0
H1511 H 0.36939 0.70343 0.13447 0.0
H1512 H 0.38811 0.74945 0.98899 0.0
H1513 H 0.3784 0.777 0.97567 0.0
C1514 C 0.96977 0.61837 0.93713 0.0
C1515 C 0.94881 0.6085 0.96128 0.0
C1516 C 0.96722 0.58991 0.09774 0.0
C1517 C 0.9885 0.59359 0.05223 0.0
N1518 N 0.00958 0.61107 0.92206 0.0
N1519 N 0.92623 0.59115 0.08446 0.0
C1520 C 0.98979 0.60818 0.97125 0.0
C1521 C 0.94706 0.5963 0.0486 0.0
N1522 N 0.97043 0.63713 0.88038 0.0
N1523 N 0.96642 0.5814 0.18897 0.0
H1524 H 0.91159 0.59873 0.05792 0.0
H1525 H 0.9235 0.57972 0.14011 0.0
H1526 H 0.9809 0.57802 0.22908 0.0
H1527 H 0.95161 0.57975 0.22868 0.0
H1528 H 0.98534 0.64582 0.86525 0.0
H1529 H 0.95564 0.64533 0.85893 0.0
H1530 H 0.0106 0.62029 0.85841 0.0
H1531 H 0.02437 0.60232 0.93795 0.0
C1532 C 0.13195 0.2663 0.64806 0.0
C1533 C 0.1429 0.26688 0.73868 0.0
C1534 C 0.15281 0.22682 0.72264 0.0
C1535 C 0.142 0.2264 0.63199 0.0
N1536 N 0.11514 0.24318 0.52369 0.0
N1537 N 0.15896 0.24658 0.87275 0.0
C1538 C 0.12946 0.24531 0.59992 0.0
C1539 C 0.15192 0.24678 0.77929 0.0
N1540 N 0.1251 0.28593 0.6053 0.0
N1541 N 0.16424 0.20815 0.75351 0.0
H1542 H 0.15859 0.26085 0.91624 0.0
H1543 H 0.16342 0.23196 0.9097 0.0
H1544 H 0.16317 0.19268 0.71782 0.0
H1545 H 0.17512 0.20811 0.81225 0.0
H1546 H 0.1194 0.28678 0.5346 0.0
H1547 H 0.12706 0.30177 0.63706 0.0
H1548 H 0.10424 0.25594 0.50127 0.0
H1549 H 0.11216 0.22771 0.49055 0.0
C1550 C 0.53957 0.41854 0.56915 0.0
C1551 C 0.5206 0.40391 0.56613 0.0
C1552 C 0.54131 0.37779 0.46196 0.0
C1553 C 0.5587 0.39414 0.45371 0.0
N1554 N 0.57982 0.42211 0.54145 0.0
N1555 N 0.50642 0.36622 0.54021 0.0
C1556 C 0.5597 0.41197 0.52124 0.0
C1557 C 0.52247 0.3823 0.52253 0.0
N1558 N 0.53805 0.43919 0.6125 0.0
N1559 N 0.54273 0.35839 0.40921 0.0
H1560 H 0.49285 0.36897 0.5867 0.0
H1561 H 0.5074 0.34964 0.5157 0.0
H1562 H 0.55737 0.35421 0.37118 0.0
H1563 H 0.52966 0.34675 0.40209 0.0
H1564 H 0.55064 0.45143 0.60695 0.0
H1565 H 0.52357 0.44471 0.64812 0.0
H1566 H 0.58173 0.43413 0.59555 0.0
H1567 H 0.59501 0.41627 0.51285 0.0
loop_
_geom_bond_atom_site_label_1
_geom_bond_atom_site_label_2
_geom_bond_distance
_geom_bond_site_symmetry_2
_ccdc_geom_bond_type
C0 O1 1.160 . S
C0 O7 1.185 . S
O1 C0 1.160 . S
O2 Zn3 1.899 . S
O2 C10 1.284 . S
Zn3 O2 1.899 . S
Zn3 O4 2.032 . S
Zn3 O7 2.086 . S
Zn3 O12 1.977 . S
O4 Zn3 2.032 . S
O4 C8 1.278 . S
C5 O6 1.203 . S
C5 O12 1.267 . S
O6 C5 1.203 . S
O7 C0 1.185 . S
O7 Zn3 2.086 . S
C8 O4 1.278 . S
C8 O9 1.211 . S
O9 C8 1.211 . S
C10 O2 1.284 . S
C10 O11 1.273 . S
O11 C10 1.273 . S
O12 Zn3 1.977 . S
O12 C5 1.267 . S
C13 O14 1.160 . S
C13 O20 1.185 . S
O14 C13 1.160 . S
O15 Zn16 1.899 . S
O15 C23 1.284 . S
Zn16 O15 1.899 . S
Zn16 O17 2.032 . S
Zn16 O20 2.086 . S
Zn16 O25 1.977 . S
O17 Zn16 2.032 . S
O17 C21 1.278 . S
C18 O19 1.203 . S
C18 O25 1.267 . S
O19 C18 1.203 . S
O20 C13 1.185 . S
O20 Zn16 2.086 . S
C21 O17 1.278 . S
C21 O22 1.211 . S
O22 C21 1.211 . S
C23 O15 1.284 . S
C23 O24 1.273 . S
O24 C23 1.273 . S
O25 Zn16 1.977 . S
O25 C18 1.267 . S
C26 O27 1.160 . S
C26 O33 1.185 . S
O27 C26 1.160 . S
O28 Zn29 1.899 . S
O28 C36 1.284 . S
Zn29 O28 1.899 . S
Zn29 O30 2.032 . S
Zn29 O33 2.086 . S
Zn29 O38 1.977 . S
O30 Zn29 2.032 . S
O30 C34 1.278 . S
C31 O32 1.203 . S
C31 O38 1.267 1_554 S
O32 C31 1.203 . S
O33 C26 1.185 . S
O33 Zn29 2.086 . S
C34 O30 1.278 . S
C34 O35 1.211 . S
O35 C34 1.211 . S
C36 O28 1.284 . S
C36 O37 1.273 . S
O37 C36 1.273 . S
O38 Zn29 1.977 . S
O38 C31 1.267 1_556 S
C39 O40 1.160 . S
C39 O46 1.185 . S
O40 C39 1.160 . S
O41 Zn42 1.899 . S
O41 C49 1.284 . S
Zn42 O41 1.899 . S
Zn42 O43 2.042 . S
Zn42 O46 2.086 . S
Zn42 O51 1.977 . S
O43 Zn42 2.042 . S
O43 C47 1.277 1_554 S
C44 O45 1.203 . S
C44 O51 1.267 . S
O45 C44 1.203 . S
O46 C39 1.185 . S
O46 Zn42 2.086 . S
C47 O43 1.277 1_556 S
C47 O48 1.211 1_556 S
O48 C47 1.211 1_554 S
C49 O41 1.284 . S
C49 O50 1.273 . S
O50 C49 1.273 . S
O51 Zn42 1.977 . S
O51 C44 1.267 . S
C52 O53 1.160 . S
C52 O59 1.185 . S
O53 C52 1.160 . S
O54 Zn55 1.899 . S
O54 C62 1.284 . S
Zn55 O54 1.899 . S
Zn55 O56 2.032 . S
Zn55 O59 2.086 . S
Zn55 O64 1.977 . S
O56 Zn55 2.032 . S
O56 C60 1.278 . S
C57 O58 1.203 . S
C57 O64 1.267 1_556 S
O58 C57 1.203 . S
O59 C52 1.185 . S
O59 Zn55 2.086 . S
C60 O56 1.278 . S
C60 O61 1.211 . S
O61 C60 1.211 . S
C62 O54 1.284 . S
C62 O63 1.273 . S
O63 C62 1.273 . S
O64 Zn55 1.977 . S
O64 C57 1.267 1_554 S
C65 O66 1.160 . S
C65 O72 1.185 . S
O66 C65 1.160 . S
O67 Zn68 1.899 . S
O67 C75 1.284 . S
Zn68 O67 1.899 . S
Zn68 O69 2.032 . S
Zn68 O72 2.086 . S
Zn68 O77 1.977 . S
O69 Zn68 2.032 . S
O69 C73 1.278 . S
C70 O71 1.203 . S
C70 O77 1.267 . S
O71 C70 1.203 . S
O72 C65 1.185 . S
O72 Zn68 2.086 . S
C73 O69 1.278 . S
C73 O74 1.211 . S
O74 C73 1.211 . S
C75 O67 1.284 . S
C75 O76 1.273 . S
O76 C75 1.273 . S
O77 Zn68 1.977 . S
O77 C70 1.267 . S
C78 O79 1.160 . S
C78 O85 1.185 . S
O79 C78 1.160 . S
O80 Zn81 1.899 . S
O80 C88 1.284 . S
Zn81 O80 1.899 . S
Zn81 O82 2.032 . S
Zn81 O85 2.086 . S
Zn81 O90 1.977 . S
O82 Zn81 2.032 . S
O82 C86 1.278 . S
C83 O84 1.203 . S
C83 O90 1.267 . S
O84 C83 1.203 . S
O85 C78 1.185 . S
O85 Zn81 2.086 . S
C86 O82 1.278 . S
C86 O87 1.211 . S
O87 C86 1.211 . S
C88 O80 1.284 . S
C88 O89 1.273 . S
O89 C88 1.273 . S
O90 Zn81 1.977 . S
O90 C83 1.267 . S
C91 O92 1.160 . S
C91 O98 1.185 . S
O92 C91 1.160 . S
O93 Zn94 1.899 . S
O93 C101 1.284 . S
Zn94 O93 1.899 . S
Zn94 O95 2.042 . S
Zn94 O98 2.086 . S
Zn94 O103 1.977 . S
O95 Zn94 2.042 . S
O95 C99 1.277 1_556 S
C96 O97 1.203 . S
C96 O103 1.267 . S
O97 C96 1.203 . S
O98 C91 1.185 . S
O98 Zn94 2.086 . S
C99 O95 1.277 1_554 S
C99 O100 1.211 1_554 S
O100 C99 1.211 1_556 S
C101 O93 1.284 . S
C101 O102 1.273 . S
O102 C101 1.273 . S
O103 Zn94 1.977 . S
O103 C96 1.267 . S
C104 O105 1.160 . S
C104 O111 1.185 . S
O105 C104 1.160 . S
O106 Zn107 1.899 . S
O106 C114 1.284 . S
Zn107 O106 1.899 . S
Zn107 O108 2.032 . S
Zn107 O111 2.086 . S
Zn107 O116 1.977 . S
O108 Zn107 2.032 . S
O108 C112 1.278 . S
C109 O110 1.203 . S
C109 O116 1.267 . S
O110 C109 1.203 . S
O111 C104 1.185 . S
O111 Zn107 2.086 . S
C112 O108 1.278 . S
C112 O113 1.211 . S
O113 C112 1.211 . S
C114 O106 1.284 . S
C114 O115 1.273 . S
O115 C114 1.273 . S
O116 Zn107 1.977 . S
O116 C109 1.267 . S
C117 O118 1.160 . S
C117 O124 1.185 . S
O118 C117 1.160 . S
O119 Zn120 1.899 . S
O119 C127 1.284 . S
Zn120 O119 1.899 . S
Zn120 O121 2.032 . S
Zn120 O124 2.086 . S
Zn120 O129 1.977 . S
O121 Zn120 2.032 . S
O121 C125 1.278 . S
C122 O123 1.203 . S
C122 O129 1.267 . S
O123 C122 1.203 . S
O124 C117 1.185 . S
O124 Zn120 2.086 . S
C125 O121 1.278 . S
C125 O126 1.211 . S
O126 C125 1.211 . S
C127 O119 1.284 . S
C127 O128 1.273 . S
O128 C127 1.273 . S
O129 Zn120 1.977 . S
O129 C122 1.267 . S
C130 O131 1.160 . S
C130 O137 1.185 . S
O131 C130 1.160 . S
O132 Zn133 1.899 . S
O132 C140 1.284 . S
Zn133 O132 1.899 . S
Zn133 O134 2.032 . S
Zn133 O137 2.086 . S
Zn133 O142 1.977 . S
O134 Zn133 2.032 . S
O134 C138 1.278 . S
C135 O136 1.203 . S
C135 O142 1.267 1_556 S
O136 C135 1.203 . S
O137 C130 1.185 . S
O137 Zn133 2.086 . S
C138 O134 1.278 . S
C138 O139 1.211 . S
O139 C138 1.211 . S
C140 O132 1.284 . S
C140 O141 1.273 . S
O141 C140 1.273 . S
O142 Zn133 1.977 . S
O142 C135 1.267 1_554 S
C143 O144 1.160 . S
C143 O150 1.185 . S
O144 C143 1.160 . S
O145 Zn146 1.899 . S
O145 C153 1.284 . S
Zn146 O145 1.899 . S
Zn146 O147 2.042 . S
Zn146 O150 2.086 . S
Zn146 O155 1.977 . S
O147 Zn146 2.042 . S
O147 C151 1.277 1_556 S
C148 O149 1.203 . S
C148 O155 1.267 . S
O149 C148 1.203 . S
O150 C143 1.185 . S
O150 Zn146 2.086 . S
C151 O147 1.277 1_554 S
C151 O152 1.211 1_554 S
O152 C151 1.211 1_556 S
C153 O145 1.284 . S
C153 O154 1.273 . S
O154 C153 1.273 . S
O155 Zn146 1.977 . S
O155 C148 1.267 . S
C156 O157 1.160 . S
C156 O163 1.185 . S
O157 C156 1.160 . S
O158 Zn159 1.899 . S
O158 C166 1.284 . S
Zn159 O158 1.899 . S
Zn159 O160 2.032 . S
Zn159 O163 2.086 . S
Zn159 O168 1.977 . S
O160 Zn159 2.032 . S
O160 C164 1.278 . S
C161 O162 1.203 . S
C161 O168 1.267 1_554 S
O162 C161 1.203 . S
O163 C156 1.185 . S
O163 Zn159 2.086 . S
C164 O160 1.278 . S
C164 O165 1.211 . S
O165 C164 1.211 . S
C166 O158 1.284 . S
C166 O167 1.273 . S
O167 C166 1.273 . S
O168 Zn159 1.977 . S
O168 C161 1.267 1_556 S
C169 O170 1.160 . S
C169 O176 1.185 . S
O170 C169 1.160 . S
O171 Zn172 1.899 . S
O171 C179 1.284 . S
Zn172 O171 1.899 . S
Zn172 O173 2.032 . S
Zn172 O176 2.086 . S
Zn172 O181 1.977 . S
O173 Zn172 2.032 . S
O173 C177 1.278 . S
C174 O175 1.203 . S
C174 O181 1.267 . S
O175 C174 1.203 . S
O176 C169 1.185 . S
O176 Zn172 2.086 . S
C177 O173 1.278 . S
C177 O178 1.211 . S
O178 C177 1.211 . S
C179 O171 1.284 . S
C179 O180 1.273 . S
O180 C179 1.273 . S
O181 Zn172 1.977 . S
O181 C174 1.267 . S
C182 O183 1.160 . S
C182 O189 1.185 . S
O183 C182 1.160 . S
O184 Zn185 1.899 . S
O184 C192 1.284 . S
Zn185 O184 1.899 . S
Zn185 O186 2.032 . S
Zn185 O189 2.086 . S
Zn185 O194 1.977 . S
O186 Zn185 2.032 . S
O186 C190 1.278 . S
C187 O188 1.203 . S
C187 O194 1.267 . S
O188 C187 1.203 . S
O189 C182 1.185 . S
O189 Zn185 2.086 . S
C190 O186 1.278 . S
C190 O191 1.211 . S
O191 C190 1.211 . S
C192 O184 1.284 . S
C192 O193 1.273 . S
O193 C192 1.273 . S
O194 Zn185 1.977 . S
O194 C187 1.267 . S
C195 O196 1.160 . S
C195 O202 1.185 . S
O196 C195 1.160 . S
O197 Zn198 1.899 . S
O197 C205 1.284 . S
Zn198 O197 1.899 . S
Zn198 O199 2.042 . S
Zn198 O202 2.086 . S
Zn198 O207 1.977 . S
O199 Zn198 2.042 . S
O199 C203 1.277 1_554 S
C200 O201 1.203 . S
C200 O207 1.267 . S
O201 C200 1.203 . S
O202 C195 1.185 . S
O202 Zn198 2.086 . S
C203 O199 1.277 1_556 S
C203 O204 1.211 1_556 S
O204 C203 1.211 1_554 S
C205 O197 1.284 . S
C205 O206 1.273 . S
O206 C205 1.273 . S
O207 Zn198 1.977 . S
O207 C200 1.267 . S
C208 O209 1.160 . S
C208 O215 1.185 . S
O209 C208 1.160 . S
O210 Zn211 1.899 . S
O210 C218 1.284 . S
Zn211 O210 1.899 . S
Zn211 O212 2.032 . S
Zn211 O215 2.086 . S
Zn211 O220 1.977 . S
O212 Zn211 2.032 . S
O212 C216 1.278 . S
C213 O214 1.203 . S
C213 O220 1.267 1_554 S
O214 C213 1.203 . S
O215 C208 1.185 . S
O215 Zn211 2.086 . S
C216 O212 1.278 . S
C216 O217 1.211 . S
O217 C216 1.211 . S
C218 O210 1.284 . S
C218 O219 1.273 . S
O219 C218 1.273 . S
O220 Zn211 1.977 . S
O220 C213 1.267 1_556 S
C221 O222 1.160 . S
C221 O228 1.185 . S
O222 C221 1.160 . S
O223 Zn224 1.899 . S
O223 C231 1.284 . S
Zn224 O223 1.899 . S
Zn224 O225 2.042 . S
Zn224 O228 2.086 . S
Zn224 O233 1.977 . S
O225 Zn224 2.042 . S
O225 C229 1.277 1_554 S
C226 O227 1.203 . S
C226 O233 1.267 . S
O227 C226 1.203 . S
O228 C221 1.185 . S
O228 Zn224 2.086 . S
C229 O225 1.277 1_556 S
C229 O230 1.211 1_556 S
O230 C229 1.211 1_554 S
C231 O223 1.284 . S
C231 O232 1.273 . S
O232 C231 1.273 . S
O233 Zn224 1.977 . S
O233 C226 1.267 . S
C234 O235 1.160 . S
C234 O241 1.185 . S
O235 C234 1.160 . S
O236 Zn237 1.899 . S
O236 C244 1.284 . S
Zn237 O236 1.899 . S
Zn237 O238 2.032 . S
Zn237 O241 2.086 . S
Zn237 O246 1.977 . S
O238 Zn237 2.032 . S
O238 C242 1.278 . S
C239 O240 1.203 . S
C239 O246 1.267 . S
O240 C239 1.203 . S
O241 C234 1.185 . S
O241 Zn237 2.086 . S
C242 O238 1.278 . S
C242 O243 1.211 . S
O243 C242 1.211 . S
C244 O236 1.284 . S
C244 O245 1.273 . S
O245 C244 1.273 . S
O246 Zn237 1.977 . S
O246 C239 1.267 . S
C247 O248 1.160 . S
C247 O254 1.185 . S
O248 C247 1.160 . S
O249 Zn250 1.899 . S
O249 C257 1.284 . S
Zn250 O249 1.899 . S
Zn250 O251 2.032 . S
Zn250 O254 2.086 . S
Zn250 O259 1.977 . S
O251 Zn250 2.032 . S
O251 C255 1.278 . S
C252 O253 1.203 . S
C252 O259 1.267 . S
O253 C252 1.203 . S
O254 C247 1.185 . S
O254 Zn250 2.086 . S
C255 O251 1.278 . S
C255 O256 1.211 . S
O256 C255 1.211 . S
C257 O249 1.284 . S
C257 O258 1.273 . S
O258 C257 1.273 . S
O259 Zn250 1.977 . S
O259 C252 1.267 . S
C260 O261 1.160 . S
C260 O267 1.185 . S
O261 C260 1.160 . S
O262 Zn263 1.899 . S
O262 C270 1.284 . S
Zn263 O262 1.899 . S
Zn263 O264 2.032 . S
Zn263 O267 2.086 . S
Zn263 O272 1.977 . S
O264 Zn263 2.032 . S
O264 C268 1.278 . S
C265 O266 1.203 . S
C265 O272 1.267 . S
O266 C265 1.203 . S
O267 C260 1.185 . S
O267 Zn263 2.086 . S
C268 O264 1.278 . S
C268 O269 1.211 . S
O269 C268 1.211 . S
C270 O262 1.284 . S
C270 O271 1.273 . S
O271 C270 1.273 . S
O272 Zn263 1.977 . S
O272 C265 1.267 . S
C273 O274 1.160 . S
C273 O280 1.185 . S
O274 C273 1.160 . S
O275 Zn276 1.899 . S
O275 C283 1.284 . S
Zn276 O275 1.899 . S
Zn276 O277 2.042 . S
Zn276 O280 2.086 . S
Zn276 O285 1.977 . S
O277 Zn276 2.042 . S
O277 C281 1.277 1_556 S
C278 O279 1.203 . S
C278 O285 1.267 . S
O279 C278 1.203 . S
O280 C273 1.185 . S
O280 Zn276 2.086 . S
C281 O277 1.277 1_554 S
C281 O282 1.211 1_554 S
O282 C281 1.211 1_556 S
C283 O275 1.284 . S
C283 O284 1.273 . S
O284 C283 1.273 . S
O285 Zn276 1.977 . S
O285 C278 1.267 . S
C286 O287 1.160 . S
C286 O293 1.185 . S
O287 C286 1.160 . S
O288 Zn289 1.899 . S
O288 C296 1.284 . S
Zn289 O288 1.899 . S
Zn289 O290 2.032 . S
Zn289 O293 2.086 . S
Zn289 O298 1.977 . S
O290 Zn289 2.032 . S
O290 C294 1.278 . S
C291 O292 1.203 . S
C291 O298 1.267 1_556 S
O292 C291 1.203 . S
O293 C286 1.185 . S
O293 Zn289 2.086 . S
C294 O290 1.278 . S
C294 O295 1.211 . S
O295 C294 1.211 . S
C296 O288 1.284 . S
C296 O297 1.273 . S
O297 C296 1.273 . S
O298 Zn289 1.977 . S
O298 C291 1.267 1_554 S
C299 O300 1.160 . S
C299 O306 1.185 . S
O300 C299 1.160 . S
O301 Zn302 1.899 . S
O301 C309 1.284 . S
Zn302 O301 1.899 . S
Zn302 O303 2.032 . S
Zn302 O306 2.086 . S
Zn302 O311 1.977 . S
O303 Zn302 2.032 . S
O303 C307 1.278 . S
C304 O305 1.203 . S
C304 O311 1.267 . S
O305 C304 1.203 . S
O306 C299 1.185 . S
O306 Zn302 2.086 . S
C307 O303 1.278 . S
C307 O308 1.211 . S
O308 C307 1.211 . S
C309 O301 1.284 . S
C309 O310 1.273 . S
O310 C309 1.273 . S
O311 Zn302 1.977 . S
O311 C304 1.267 . S
C312 O313 1.160 . S
C312 O319 1.185 . S
O313 C312 1.160 . S
O314 Zn315 1.899 . S
O314 C322 1.284 . S
Zn315 O314 1.899 . S
Zn315 O316 2.032 . S
Zn315 O319 2.086 . S
Zn315 O324 1.977 . S
O316 Zn315 2.032 . S
O316 C320 1.278 . S
C317 O318 1.203 . S
C317 O324 1.267 1_556 S
O318 C317 1.203 . S
O319 C312 1.185 . S
O319 Zn315 2.086 . S
C320 O316 1.278 . S
C320 O321 1.211 . S
O321 C320 1.211 . S
C322 O314 1.284 . S
C322 O323 1.273 . S
O323 C322 1.273 . S
O324 Zn315 1.977 . S
O324 C317 1.267 1_554 S
C325 O326 1.160 . S
C325 O332 1.185 . S
O326 C325 1.160 . S
O327 Zn328 1.899 . S
O327 C335 1.284 . S
Zn328 O327 1.899 . S
Zn328 O329 2.042 . S
Zn328 O332 2.086 . S
Zn328 O337 1.977 . S
O329 Zn328 2.042 . S
O329 C333 1.277 1_556 S
C330 O331 1.203 . S
C330 O337 1.267 . S
O331 C330 1.203 . S
O332 C325 1.185 . S
O332 Zn328 2.086 . S
C333 O329 1.277 1_554 S
C333 O334 1.211 1_554 S
O334 C333 1.211 1_556 S
C335 O327 1.284 . S
C335 O336 1.273 . S
O336 C335 1.273 . S
O337 Zn328 1.977 . S
O337 C330 1.267 . S
C338 O339 1.160 . S
C338 O345 1.185 . S
O339 C338 1.160 . S
O340 Zn341 1.899 . S
O340 C348 1.284 . S
Zn341 O340 1.899 . S
Zn341 O342 2.032 . S
Zn341 O345 2.086 . S
Zn341 O350 1.977 . S
O342 Zn341 2.032 . S
O342 C346 1.278 . S
C343 O344 1.203 . S
C343 O350 1.267 . S
O344 C343 1.203 . S
O345 C338 1.185 . S
O345 Zn341 2.086 . S
C346 O342 1.278 . S
C346 O347 1.211 . S
O347 C346 1.211 . S
C348 O340 1.284 . S
C348 O349 1.273 . S
O349 C348 1.273 . S
O350 Zn341 1.977 . S
O350 C343 1.267 . S
C351 O352 1.160 . S
C351 O358 1.185 . S
O352 C351 1.160 . S
O353 Zn354 1.899 . S
O353 C361 1.284 . S
Zn354 O353 1.899 . S
Zn354 O355 2.032 . S
Zn354 O358 2.086 . S
Zn354 O363 1.977 . S
O355 Zn354 2.032 . S
O355 C359 1.278 . S
C356 O357 1.203 . S
C356 O363 1.267 . S
O357 C356 1.203 . S
O358 C351 1.185 . S
O358 Zn354 2.086 . S
C359 O355 1.278 . S
C359 O360 1.211 . S
O360 C359 1.211 . S
C361 O353 1.284 . S
C361 O362 1.273 . S
O362 C361 1.273 . S
O363 Zn354 1.977 . S
O363 C356 1.267 . S
C364 O365 1.160 . S
C364 O371 1.185 . S
O365 C364 1.160 . S
O366 Zn367 1.899 . S
O366 C374 1.284 . S
Zn367 O366 1.899 . S
Zn367 O368 2.032 . S
Zn367 O371 2.086 . S
Zn367 O376 1.977 . S
O368 Zn367 2.032 . S
O368 C372 1.278 . S
C369 O370 1.203 . S
C369 O376 1.267 . S
O370 C369 1.203 . S
O371 C364 1.185 . S
O371 Zn367 2.086 . S
C372 O368 1.278 . S
C372 O373 1.211 . S
O373 C372 1.211 . S
C374 O366 1.284 . S
C374 O375 1.273 . S
O375 C374 1.273 . S
O376 Zn367 1.977 . S
O376 C369 1.267 . S
C377 O378 1.160 . S
C377 O384 1.185 . S
O378 C377 1.160 . S
O379 Zn380 1.899 . S
O379 C387 1.284 . S
Zn380 O379 1.899 . S
Zn380 O381 2.042 . S
Zn380 O384 2.086 . S
Zn380 O389 1.977 . S
O381 Zn380 2.042 . S
O381 C385 1.277 1_554 S
C382 O383 1.203 . S
C382 O389 1.267 . S
O383 C382 1.203 . S
O384 C377 1.185 . S
O384 Zn380 2.086 . S
C385 O381 1.277 1_556 S
C385 O386 1.211 1_556 S
O386 C385 1.211 1_554 S
C387 O379 1.284 . S
C387 O388 1.273 . S
O388 C387 1.273 . S
O389 Zn380 1.977 . S
O389 C382 1.267 . S
C390 O391 1.160 . S
C390 O397 1.185 . S
O391 C390 1.160 . S
O392 Zn393 1.899 . S
O392 C400 1.284 . S
Zn393 O392 1.899 . S
Zn393 O394 2.032 . S
Zn393 O397 2.086 . S
Zn393 O402 1.977 . S
O394 Zn393 2.032 . S
O394 C398 1.278 . S
C395 O396 1.203 . S
C395 O402 1.267 1_554 S
O396 C395 1.203 . S
O397 C390 1.185 . S
O397 Zn393 2.086 . S
C398 O394 1.278 . S
C398 O399 1.211 . S
O399 C398 1.211 . S
C400 O392 1.284 . S
C400 O401 1.273 . S
O401 C400 1.273 . S
O402 Zn393 1.977 . S
O402 C395 1.267 1_556 S
C403 O404 1.160 . S
C403 O410 1.185 . S
O404 C403 1.160 . S
O405 Zn406 1.899 . S
O405 C413 1.284 . S
Zn406 O405 1.899 . S
Zn406 O407 2.032 . S
Zn406 O410 2.086 . S
Zn406 O415 1.977 . S
O407 Zn406 2.032 . S
O407 C411 1.278 . S
C408 O409 1.203 . S
C408 O415 1.267 . S
O409 C408 1.203 . S
O410 C403 1.185 . S
O410 Zn406 2.086 . S
C411 O407 1.278 . S
C411 O412 1.211 . S
O412 C411 1.211 . S
C413 O405 1.284 . S
C413 O414 1.273 . S
O414 C413 1.273 . S
O415 Zn406 1.977 . S
O415 C408 1.267 . S
C416 C417 1.363 . S
C416 C422 1.379 . S
C416 N424 1.356 . S
C417 C416 1.363 . S
C417 C423 1.363 . S
C418 C419 1.363 . S
C418 C423 1.379 . S
C418 N425 1.356 . S
C419 C418 1.363 . S
C419 C422 1.363 . S
N420 C422 1.356 . S
N420 H432 0.984 . S
N420 H433 0.985 . S
N421 C423 1.356 . S
N421 H426 0.984 . S
N421 H427 0.985 . S
C422 C416 1.379 . S
C422 C419 1.363 . S
C422 N420 1.356 . S
C423 C417 1.363 . S
C423 C418 1.379 . S
C423 N421 1.356 . S
N424 C416 1.356 . S
N424 H430 0.984 . S
N424 H431 0.984 . S
N425 C418 1.356 . S
N425 H428 0.984 . S
N425 H429 0.985 . S
H426 N421 0.984 . S
H427 N421 0.985 . S
H428 N425 0.984 . S
H429 N425 0.985 . S
H430 N424 0.984 . S
H431 N424 0.984 . S
H432 N420 0.984 . S
H433 N420 0.985 . S
C434 C435 1.363 . S
C434 C440 1.379 1_565 S
C434 N442 1.356 . S
C435 C434 1.363 . S
C435 C441 1.363 . S
C436 C437 1.363 . S
C436 C441 1.379 1_545 S
C436 N443 1.356 . S
C437 C436 1.363 . S
C437 C440 1.363 . S
N438 C440 1.356 . S
N438 H450 0.984 . S
N438 H451 0.985 . S
N439 C441 1.356 . S
N439 H444 0.984 . S
N439 H445 0.985 . S
C440 C434 1.379 1_545 S
C440 C437 1.363 . S
C440 N438 1.356 . S
C441 C435 1.363 . S
C441 C436 1.379 1_565 S
C441 N439 1.356 . S
N442 C434 1.356 . S
N442 H448 0.984 . S
N442 H449 0.984 . S
N443 C436 1.356 . S
N443 H446 0.984 . S
N443 H447 0.985 . S
H444 N439 0.984 . S
H445 N439 0.985 . S
H446 N443 0.984 . S
H447 N443 0.985 . S
H448 N442 0.984 . S
H449 N442 0.984 . S
H450 N438 0.984 . S
H451 N438 0.985 . S
C452 C453 1.363 1_556 S
C452 C458 1.379 . S
C452 N460 1.356 . S
C453 C452 1.363 1_554 S
C453 C459 1.363 . S
C454 C455 1.363 1_554 S
C454 C459 1.379 . S
C454 N461 1.356 . S
C455 C454 1.363 1_556 S
C455 C458 1.363 . S
N456 C458 1.356 . S
N456 H468 0.984 . S
N456 H469 0.985 . S
N457 C459 1.356 . S
N457 H462 0.984 . S
N457 H463 0.985 . S
C458 C452 1.379 . S
C458 C455 1.363 . S
C458 N456 1.356 . S
C459 C453 1.363 . S
C459 C454 1.379 . S
C459 N457 1.356 . S
N460 C452 1.356 . S
N460 H466 0.984 . S
N460 H467 0.984 1_556 S
N461 C454 1.356 . S
N461 H464 0.984 1_554 S
N461 H465 0.985 . S
H462 N457 0.984 . S
H463 N457 0.985 . S
H464 N461 0.984 1_556 S
H465 N461 0.985 . S
H466 N460 0.984 . S
H467 N460 0.984 1_554 S
H468 N456 0.984 . S
H469 N456 0.985 . S
C470 C471 1.363 . S
C470 C476 1.379 1_545 S
C470 N478 1.356 . S
C471 C470 1.363 . S
C471 C477 1.363 . S
C472 C473 1.363 . S
C472 C477 1.379 1_565 S
C472 N479 1.356 . S
C473 C472 1.363 . S
C473 C476 1.363 . S
N474 C476 1.356 . S
N474 H486 0.984 . S
N474 H487 0.985 . S
N475 C477 1.356 . S
N475 H480 0.984 . S
N475 H481 0.985 . S
C476 C470 1.379 1_565 S
C476 C473 1.363 . S
C476 N474 1.356 . S
C477 C471 1.363 . S
C477 C472 1.379 1_545 S
C477 N475 1.356 . S
N478 C470 1.356 . S
N478 H484 0.969 1_545 S
N478 H485 0.984 . S
N479 C472 1.356 . S
N479 H482 0.984 . S
N479 H483 0.969 1_565 S
H480 N475 0.984 . S
H481 N475 0.985 . S
H482 N479 0.984 . S
H483 N479 0.969 1_545 S
H484 N478 0.969 1_565 S
H485 N478 0.984 . S
H486 N474 0.984 . S
H487 N474 0.985 . S
C488 C489 1.363 . S
C488 C494 1.379 . S
C488 N496 1.356 . S
C489 C488 1.363 . S
C489 C495 1.363 . S
C490 C491 1.363 . S
C490 C495 1.379 . S
C490 N497 1.356 . S
C491 C490 1.363 . S
C491 C494 1.363 . S
N492 C494 1.356 . S
N492 H504 0.984 . S
N492 H505 0.985 . S
N493 C495 1.356 . S
N493 H498 0.984 . S
N493 H499 0.985 . S
C494 C488 1.379 . S
C494 C491 1.363 . S
C494 N492 1.356 . S
C495 C489 1.363 . S
C495 C490 1.379 . S
C495 N493 1.356 . S
N496 C488 1.356 . S
N496 H502 0.984 . S
N496 H503 0.984 . S
N497 C490 1.356 . S
N497 H500 0.984 . S
N497 H501 0.985 . S
H498 N493 0.984 . S
H499 N493 0.985 . S
H500 N497 0.984 . S
H501 N497 0.985 . S
H502 N496 0.984 . S
H503 N496 0.984 . S
H504 N492 0.984 . S
H505 N492 0.985 . S
C506 C507 1.363 . S
C506 C512 1.379 1_545 S
C506 N514 1.356 . S
C507 C506 1.363 . S
C507 C513 1.363 . S
C508 C509 1.363 . S
C508 C513 1.379 1_565 S
C508 N515 1.356 . S
C509 C508 1.363 . S
C509 C512 1.363 . S
N510 C512 1.356 . S
N510 H522 0.984 . S
N510 H523 0.985 . S
N511 C513 1.356 . S
N511 H516 0.984 . S
N511 H517 0.985 . S
C512 C506 1.379 1_565 S
C512 C509 1.363 . S
C512 N510 1.356 . S
C513 C507 1.363 . S
C513 C508 1.379 1_545 S
C513 N511 1.356 . S
N514 C506 1.356 . S
N514 H520 0.984 . S
N514 H521 0.984 . S
N515 C508 1.356 . S
N515 H518 0.984 . S
N515 H519 0.985 . S
H516 N511 0.984 . S
H517 N511 0.985 . S
H518 N515 0.984 . S
H519 N515 0.985 . S
H520 N514 0.984 . S
H521 N514 0.984 . S
H522 N510 0.984 . S
H523 N510 0.985 . S
C524 C525 1.363 . S
C524 C530 1.379 . S
C524 N532 1.356 . S
C525 C524 1.363 . S
C525 C531 1.363 1_556 S
C526 C527 1.363 . S
C526 C531 1.379 . S
C526 N533 1.356 . S
C527 C526 1.363 . S
C527 C530 1.363 1_554 S
N528 C530 1.356 . S
N528 H540 0.984 . S
N528 H541 0.985 1_556 S
N529 C531 1.356 . S
N529 H534 0.984 1_554 S
N529 H535 0.985 . S
C530 C524 1.379 . S
C530 C527 1.363 1_556 S
C530 N528 1.356 . S
C531 C525 1.363 1_554 S
C531 C526 1.379 . S
C531 N529 1.356 . S
N532 C524 1.356 . S
N532 H538 0.984 . S
N532 H539 0.984 . S
N533 C526 1.356 . S
N533 H536 0.984 . S
N533 H537 0.985 . S
H534 N529 0.984 1_556 S
H535 N529 0.985 . S
H536 N533 0.984 . S
H537 N533 0.985 . S
H538 N532 0.984 . S
H539 N532 0.984 . S
H540 N528 0.984 . S
H541 N528 0.985 1_554 S
C542 C543 1.363 . S
C542 C548 1.379 1_565 S
C542 N550 1.356 . S
C543 C542 1.363 . S
C543 C549 1.363 . S
C544 C545 1.363 . S
C544 C549 1.379 1_545 S
C544 N551 1.356 . S
C545 C544 1.363 . S
C545 C548 1.363 . S
N546 C548 1.356 . S
N546 H558 0.984 . S
N546 H559 0.985 . S
N547 C549 1.356 . S
N547 H552 0.984 . S
N547 H553 0.985 . S
C548 C542 1.379 1_545 S
C548 C545 1.363 . S
C548 N546 1.356 . S
C549 C543 1.363 . S
C549 C544 1.379 1_565 S
C549 N547 1.356 . S
N550 C542 1.356 . S
N550 H556 0.984 . S
N550 H557 0.984 . S
N551 C544 1.356 . S
N551 H554 0.984 . S
N551 H555 0.985 . S
H552 N547 0.984 . S
H553 N547 0.985 . S
H554 N551 0.984 . S
H555 N551 0.985 . S
H556 N550 0.984 . S
H557 N550 0.984 . S
H558 N546 0.984 . S
H559 N546 0.985 . S
C560 C561 1.363 1_554 S
C560 C566 1.379 . S
C560 N568 1.356 . S
C561 C560 1.363 1_556 S
C561 C567 1.363 . S
C562 C563 1.363 1_556 S
C562 C567 1.379 . S
C562 N569 1.356 . S
C563 C562 1.363 1_554 S
C563 C566 1.363 . S
N564 C566 1.356 . S
N564 H576 0.984 . S
N564 H577 0.985 . S
N565 C567 1.356 . S
N565 H570 0.984 . S
N565 H571 0.985 . S
C566 C560 1.379 . S
C566 C563 1.363 . S
C566 N564 1.356 . S
C567 C561 1.363 . S
C567 C562 1.379 . S
C567 N565 1.356 . S
N568 C560 1.356 . S
N568 H574 0.984 . S
N568 H575 0.984 1_554 S
N569 C562 1.356 . S
N569 H572 0.984 1_556 S
N569 H573 0.985 . S
H570 N565 0.984 . S
H571 N565 0.985 . S
H572 N569 0.984 1_554 S
H573 N569 0.985 . S
H574 N568 0.984 . S
H575 N568 0.984 1_556 S
H576 N564 0.984 . S
H577 N564 0.985 . S
C578 C579 1.363 . S
C578 C584 1.379 . S
C578 N586 1.356 . S
C579 C578 1.363 . S
C579 C585 1.363 . S
C580 C581 1.363 . S
C580 C585 1.379 . S
C580 N587 1.356 . S
C581 C580 1.363 . S
C581 C584 1.363 . S
N582 C584 1.356 . S
N582 H594 0.984 . S
N582 H595 0.985 . S
N583 C585 1.356 . S
N583 H588 0.984 . S
N583 H589 0.985 . S
C584 C578 1.379 . S
C584 C581 1.363 . S
C584 N582 1.356 . S
C585 C579 1.363 . S
C585 C580 1.379 . S
C585 N583 1.356 . S
N586 C578 1.356 . S
N586 H592 0.984 . S
N586 H593 0.984 . S
N587 C580 1.356 . S
N587 H590 0.984 . S
N587 H591 0.985 . S
H588 N583 0.984 . S
H589 N583 0.985 . S
H590 N587 0.984 . S
H591 N587 0.985 . S
H592 N586 0.984 . S
H593 N586 0.984 . S
H594 N582 0.984 . S
H595 N582 0.985 . S
C596 C597 1.363 . S
C596 C602 1.379 . S
C596 N604 1.356 . S
C597 C596 1.363 . S
C597 C603 1.363 . S
C598 C599 1.363 . S
C598 C603 1.379 . S
C598 N605 1.356 . S
C599 C598 1.363 . S
C599 C602 1.363 . S
N600 C602 1.356 . S
N600 H612 0.984 . S
N600 H613 0.985 . S
N601 C603 1.356 . S
N601 H606 0.984 . S
N601 H607 0.985 . S
C602 C596 1.379 . S
C602 C599 1.363 . S
C602 N600 1.356 . S
C603 C597 1.363 . S
C603 C598 1.379 . S
C603 N601 1.356 . S
N604 C596 1.356 . S
N604 H610 0.984 . S
N604 H611 0.984 . S
N605 C598 1.356 . S
N605 H608 0.984 . S
N605 H609 0.985 . S
H606 N601 0.984 . S
H607 N601 0.985 . S
H608 N605 0.984 . S
H609 N605 0.985 . S
H610 N604 0.984 . S
H611 N604 0.984 . S
H612 N600 0.984 . S
H613 N600 0.985 . S
C614 C615 1.363 . S
C614 C620 1.379 . S
C614 N622 1.356 . S
C615 C614 1.363 . S
C615 C621 1.363 . S
C616 C617 1.363 . S
C616 C621 1.379 . S
C616 N623 1.356 . S
C617 C616 1.363 . S
C617 C620 1.363 . S
N618 C620 1.356 . S
N618 H630 0.984 . S
N618 H631 0.985 . S
N619 C621 1.356 . S
N619 H624 0.984 . S
N619 H625 0.985 . S
C620 C614 1.379 . S
C620 C617 1.363 . S
C620 N618 1.356 . S
C621 C615 1.363 . S
C621 C616 1.379 . S
C621 N619 1.356 . S
N622 C614 1.356 . S
N622 H628 0.984 . S
N622 H629 0.984 . S
N623 C616 1.356 . S
N623 H626 0.984 . S
N623 H627 0.985 . S
H624 N619 0.984 . S
H625 N619 0.985 . S
H626 N623 0.984 . S
H627 N623 0.985 . S
H628 N622 0.984 . S
H629 N622 0.984 . S
H630 N618 0.984 . S
H631 N618 0.985 . S
C632 C633 1.363 . S
C632 C638 1.379 . S
C632 N640 1.356 . S
C633 C632 1.363 . S
C633 C639 1.363 1_556 S
C634 C635 1.363 . S
C634 C639 1.379 . S
C634 N641 1.356 . S
C635 C634 1.363 . S
C635 C638 1.363 1_554 S
N636 C638 1.356 . S
N636 H648 0.984 . S
N636 H649 0.985 1_556 S
N637 C639 1.356 . S
N637 H642 0.984 1_554 S
N637 H643 0.985 . S
C638 C632 1.379 . S
C638 C635 1.363 1_556 S
C638 N636 1.356 . S
C639 C633 1.363 1_554 S
C639 C634 1.379 . S
C639 N637 1.356 . S
N640 C632 1.356 . S
N640 H646 0.984 . S
N640 H647 0.984 . S
N641 C634 1.356 . S
N641 H644 0.984 . S
N641 H645 0.985 . S
H642 N637 0.984 1_556 S
H643 N637 0.985 . S
H644 N641 0.984 . S
H645 N641 0.985 . S
H646 N640 0.984 . S
H647 N640 0.984 . S
H648 N636 0.984 . S
H649 N636 0.985 1_554 S
C650 C651 1.363 . S
C650 C656 1.379 . S
C650 N658 1.356 . S
C651 C650 1.363 . S
C651 C657 1.363 . S
C652 C653 1.363 . S
C652 C657 1.379 . S
C652 N659 1.356 . S
C653 C652 1.363 . S
C653 C656 1.363 . S
N654 C656 1.356 . S
N654 H666 0.984 . S
N654 H667 0.985 . S
N655 C657 1.356 . S
N655 H660 0.984 . S
N655 H661 0.985 . S
C656 C650 1.379 . S
C656 C653 1.363 . S
C656 N654 1.356 . S
C657 C651 1.363 . S
C657 C652 1.379 . S
C657 N655 1.356 . S
N658 C650 1.356 . S
N658 H664 0.984 . S
N658 H665 0.984 . S
N659 C652 1.356 . S
N659 H662 0.984 . S
N659 H663 0.985 . S
H660 N655 0.984 . S
H661 N655 0.985 . S
H662 N659 0.984 . S
H663 N659 0.985 . S
H664 N658 0.984 . S
H665 N658 0.984 . S
H666 N654 0.984 . S
H667 N654 0.985 . S
C668 C669 1.363 . S
C668 C674 1.379 . S
C668 N676 1.356 . S
C669 C668 1.363 . S
C669 C675 1.363 . S
C670 C671 1.363 . S
C670 C675 1.379 . S
C670 N677 1.356 . S
C671 C670 1.363 . S
C671 C674 1.363 . S
N672 C674 1.356 . S
N672 H684 0.984 . S
N672 H685 0.985 . S
N673 C675 1.356 . S
N673 H678 0.984 . S
N673 H679 0.985 . S
C674 C668 1.379 . S
C674 C671 1.363 . S
C674 N672 1.356 . S
C675 C669 1.363 . S
C675 C670 1.379 . S
C675 N673 1.356 . S
N676 C668 1.356 . S
N676 H682 0.984 . S
N676 H683 0.984 . S
N677 C670 1.356 . S
N677 H680 0.984 . S
N677 H681 0.985 . S
H678 N673 0.984 . S
H679 N673 0.985 . S
H680 N677 0.984 . S
H681 N677 0.985 . S
H682 N676 0.984 . S
H683 N676 0.984 . S
H684 N672 0.984 . S
H685 N672 0.985 . S
C686 C687 1.363 . S
C686 C692 1.379 . S
C686 N694 1.356 . S
C687 C686 1.363 . S
C687 C693 1.363 . S
C688 C689 1.363 . S
C688 C693 1.379 . S
C688 N695 1.356 . S
C689 C688 1.363 . S
C689 C692 1.363 . S
N690 C692 1.356 . S
N690 H702 0.984 . S
N690 H703 0.985 . S
N691 C693 1.356 . S
N691 H696 0.984 . S
N691 H697 0.985 . S
C692 C686 1.379 . S
C692 C689 1.363 . S
C692 N690 1.356 . S
C693 C687 1.363 . S
C693 C688 1.379 . S
C693 N691 1.356 . S
N694 C686 1.356 . S
N694 H700 0.984 . S
N694 H701 0.984 . S
N695 C688 1.356 . S
N695 H698 0.984 . S
N695 H699 0.985 . S
H696 N691 0.984 . S
H697 N691 0.985 . S
H698 N695 0.984 . S
H699 N695 0.985 . S
H700 N694 0.984 . S
H701 N694 0.984 . S
H702 N690 0.984 . S
H703 N690 0.985 . S
C704 C705 1.363 . S
C704 C710 1.379 . S
C704 N712 1.356 1_554 S
C705 C704 1.363 . S
C705 C711 1.363 . S
C706 C707 1.363 . S
C706 C711 1.379 . S
C706 N713 1.356 . S
C707 C706 1.363 . S
C707 C710 1.363 . S
N708 C710 1.356 . S
N708 H720 0.984 . S
N708 H721 0.985 . S
N709 C711 1.356 . S
N709 H714 0.994 . S
N709 H715 0.985 . S
C710 C704 1.379 . S
C710 C707 1.363 . S
C710 N708 1.356 . S
C711 C705 1.363 . S
C711 C706 1.379 . S
C711 N709 1.356 . S
N712 C704 1.356 1_556 S
N712 H718 0.984 . S
N712 H719 0.984 . S
N713 C706 1.356 . S
N713 H716 0.984 . S
N713 H717 0.985 . S
H714 N709 0.994 . S
H715 N709 0.985 . S
H716 N713 0.984 . S
H717 N713 0.985 . S
H718 N712 0.984 . S
H719 N712 0.984 . S
H720 N708 0.984 . S
H721 N708 0.985 . S
C722 C723 1.363 . S
C722 C728 1.379 . S
C722 N730 1.356 . S
C723 C722 1.363 . S
C723 C729 1.363 . S
C724 C725 1.363 . S
C724 C729 1.379 . S
C724 N731 1.356 . S
C725 C724 1.363 . S
C725 C728 1.363 . S
N726 C728 1.356 . S
N726 H738 0.984 . S
N726 H739 0.985 . S
N727 C729 1.356 . S
N727 H732 0.984 . S
N727 H733 0.985 . S
C728 C722 1.379 . S
C728 C725 1.363 . S
C728 N726 1.356 . S
C729 C723 1.363 . S
C729 C724 1.379 . S
C729 N727 1.356 . S
N730 C722 1.356 . S
N730 H736 0.984 . S
N730 H737 0.984 . S
N731 C724 1.356 . S
N731 H734 0.984 . S
N731 H735 0.985 . S
H732 N727 0.984 . S
H733 N727 0.985 . S
H734 N731 0.984 . S
H735 N731 0.985 . S
H736 N730 0.984 . S
H737 N730 0.984 . S
H738 N726 0.984 . S
H739 N726 0.985 . S
C740 C741 1.363 . S
C740 C746 1.379 . S
C740 N748 1.356 . S
C741 C740 1.363 . S
C741 C747 1.363 . S
C742 C743 1.363 . S
C742 C747 1.379 . S
C742 N749 1.356 . S
C743 C742 1.363 . S
C743 C746 1.363 . S
N744 C746 1.356 . S
N744 H756 0.984 . S
N744 H757 0.985 . S
N745 C747 1.356 . S
N745 H750 0.984 . S
N745 H751 0.985 . S
C746 C740 1.379 . S
C746 C743 1.363 . S
C746 N744 1.356 . S
C747 C741 1.363 . S
C747 C742 1.379 . S
C747 N745 1.356 . S
N748 C740 1.356 . S
N748 H754 0.984 . S
N748 H755 0.984 . S
N749 C742 1.356 . S
N749 H752 0.984 . S
N749 H753 0.985 . S
H750 N745 0.984 . S
H751 N745 0.985 . S
H752 N749 0.984 . S
H753 N749 0.985 . S
H754 N748 0.984 . S
H755 N748 0.984 . S
H756 N744 0.984 . S
H757 N744 0.985 . S
C758 C759 1.363 . S
C758 C764 1.379 . S
C758 N766 1.356 . S
C759 C758 1.363 . S
C759 C765 1.363 . S
C760 C761 1.363 . S
C760 C765 1.379 . S
C760 N767 1.356 . S
C761 C760 1.363 . S
C761 C764 1.363 . S
N762 C764 1.356 . S
N762 H774 0.984 . S
N762 H775 0.985 1_556 S
N763 C765 1.356 . S
N763 H768 0.984 . S
N763 H769 0.985 . S
C764 C758 1.379 . S
C764 C761 1.363 . S
C764 N762 1.356 . S
C765 C759 1.363 . S
C765 C760 1.379 . S
C765 N763 1.356 . S
N766 C758 1.356 . S
N766 H772 0.984 . S
N766 H773 0.984 . S
N767 C760 1.356 . S
N767 H770 0.984 1_556 S
N767 H771 0.985 . S
H768 N763 0.984 . S
H769 N763 0.985 . S
H770 N767 0.984 1_554 S
H771 N767 0.985 . S
H772 N766 0.984 . S
H773 N766 0.984 . S
H774 N762 0.984 . S
H775 N762 0.985 1_554 S
C776 C777 1.363 . S
C776 C782 1.379 . S
C776 N784 1.356 . S
C777 C776 1.363 . S
C777 C783 1.363 . S
C778 C779 1.363 . S
C778 C783 1.379 . S
C778 N785 1.356 . S
C779 C778 1.363 . S
C779 C782 1.363 . S
N780 C782 1.356 . S
N780 H792 0.984 . S
N780 H793 0.985 . S
N781 C783 1.356 1_554 S
N781 H786 0.984 . S
N781 H787 0.985 . S
C782 C776 1.379 . S
C782 C779 1.363 . S
C782 N780 1.356 . S
C783 C777 1.363 . S
C783 C778 1.379 . S
C783 N781 1.356 1_556 S
N784 C776 1.356 . S
N784 H790 0.984 . S
N784 H791 0.984 1_556 S
N785 C778 1.356 . S
N785 H788 0.984 . S
N785 H789 0.985 . S
H786 N781 0.984 . S
H787 N781 0.985 . S
H788 N785 0.984 . S
H789 N785 0.985 . S
H790 N784 0.984 . S
H791 N784 0.984 1_554 S
H792 N780 0.984 . S
H793 N780 0.985 . S
C794 C795 1.363 . S
C794 C800 1.379 . S
C794 N802 1.356 . S
C795 C794 1.363 . S
C795 C801 1.363 . S
C796 C797 1.363 . S
C796 C801 1.379 . S
C796 N803 1.356 . S
C797 C796 1.363 . S
C797 C800 1.363 . S
N798 C800 1.356 . S
N798 H810 0.984 . S
N798 H811 0.985 . S
N799 C801 1.356 . S
N799 H804 0.984 . S
N799 H805 0.985 . S
C800 C794 1.379 . S
C800 C797 1.363 . S
C800 N798 1.356 . S
C801 C795 1.363 . S
C801 C796 1.379 . S
C801 N799 1.356 . S
N802 C794 1.356 . S
N802 H808 0.984 . S
N802 H809 0.984 . S
N803 C796 1.356 . S
N803 H806 0.984 . S
N803 H807 0.985 . S
H804 N799 0.984 . S
H805 N799 0.985 . S
H806 N803 0.984 . S
H807 N803 0.985 . S
H808 N802 0.984 . S
H809 N802 0.984 . S
H810 N798 0.984 . S
H811 N798 0.985 . S
C812 C813 1.363 . S
C812 C818 1.379 . S
C812 N820 1.356 . S
C813 C812 1.363 . S
C813 C819 1.363 . S
C814 C815 1.363 . S
C814 C819 1.379 . S
C814 N821 1.356 . S
C815 C814 1.363 . S
C815 C818 1.363 . S
N816 C818 1.356 . S
N816 H828 0.984 . S
N816 H829 0.985 . S
N817 C819 1.356 . S
N817 H822 0.984 . S
N817 H823 0.985 . S
C818 C812 1.379 . S
C818 C815 1.363 . S
C818 N816 1.356 . S
C819 C813 1.363 . S
C819 C814 1.379 . S
C819 N817 1.356 . S
N820 C812 1.356 . S
N820 H826 0.984 . S
N820 H827 0.984 . S
N821 C814 1.356 . S
N821 H824 0.984 . S
N821 H825 0.985 . S
H822 N817 0.984 . S
H823 N817 0.985 . S
H824 N821 0.984 . S
H825 N821 0.985 . S
H826 N820 0.984 . S
H827 N820 0.984 . S
H828 N816 0.984 . S
H829 N816 0.985 . S
C830 C831 1.363 . S
C830 C836 1.379 . S
C830 N838 1.356 1_554 S
C831 C830 1.363 . S
C831 C837 1.363 . S
C832 C833 1.363 . S
C832 C837 1.379 . S
C832 N839 1.356 . S
C833 C832 1.363 . S
C833 C836 1.363 . S
N834 C836 1.356 . S
N834 H846 0.984 . S
N834 H847 0.985 . S
N835 C837 1.356 . S
N835 H840 0.984 1_554 S
N835 H841 0.985 . S
C836 C830 1.379 . S
C836 C833 1.363 . S
C836 N834 1.356 . S
C837 C831 1.363 . S
C837 C832 1.379 . S
C837 N835 1.356 . S
N838 C830 1.356 1_556 S
N838 H844 0.984 . S
N838 H845 0.984 . S
N839 C832 1.356 . S
N839 H842 0.984 . S
N839 H843 0.985 . S
H840 N835 0.984 1_556 S
H841 N835 0.985 . S
H842 N839 0.984 . S
H843 N839 0.985 . S
H844 N838 0.984 . S
H845 N838 0.984 . S
H846 N834 0.984 . S
H847 N834 0.985 . S
C848 C849 1.363 . S
C848 C854 1.379 . S
C848 N856 1.356 . S
C849 C848 1.363 . S
C849 C855 1.363 . S
C850 C851 1.363 . S
C850 C855 1.379 . S
C850 N857 1.356 . S
C851 C850 1.363 . S
C851 C854 1.363 . S
N852 C854 1.356 . S
N852 H864 0.984 . S
N852 H865 0.985 . S
N853 C855 1.356 . S
N853 H858 0.984 . S
N853 H859 0.985 . S
C854 C848 1.379 . S
C854 C851 1.363 . S
C854 N852 1.356 . S
C855 C849 1.363 . S
C855 C850 1.379 . S
C855 N853 1.356 . S
N856 C848 1.356 . S
N856 H862 0.984 . S
N856 H863 0.984 . S
N857 C850 1.356 . S
N857 H860 0.984 . S
N857 H861 0.985 . S
H858 N853 0.984 . S
H859 N853 0.985 . S
H860 N857 0.984 . S
H861 N857 0.985 . S
H862 N856 0.984 . S
H863 N856 0.984 . S
H864 N852 0.984 . S
H865 N852 0.985 . S
C866 C867 1.363 . S
C866 C872 1.379 . S
C866 N874 1.356 1_556 S
C867 C866 1.363 . S
C867 C873 1.363 . S
C868 C869 1.363 . S
C868 C873 1.379 . S
C868 N875 1.356 . S
C869 C868 1.363 . S
C869 C872 1.363 . S
N870 C872 1.356 . S
N870 H882 0.984 . S
N870 H883 0.985 . S
N871 C873 1.356 . S
N871 H876 0.991 . S
N871 H877 0.985 . S
C872 C866 1.379 . S
C872 C869 1.363 . S
C872 N870 1.356 . S
C873 C867 1.363 . S
C873 C868 1.379 . S
C873 N871 1.356 . S
N874 C866 1.356 1_554 S
N874 H880 0.984 . S
N874 H881 0.984 . S
N875 C868 1.356 . S
N875 H878 0.984 . S
N875 H879 0.985 . S
H876 N871 0.991 . S
H877 N871 0.985 . S
H878 N875 0.984 . S
H879 N875 0.985 . S
H880 N874 0.984 . S
H881 N874 0.984 . S
H882 N870 0.984 . S
H883 N870 0.985 . S
C884 C885 1.363 . S
C884 C890 1.379 . S
C884 N892 1.356 . S
C885 C884 1.363 . S
C885 C891 1.363 . S
C886 C887 1.363 . S
C886 C891 1.379 . S
C886 N893 1.356 . S
C887 C886 1.363 . S
C887 C890 1.363 . S
N888 C890 1.356 . S
N888 H900 0.984 . S
N888 H901 0.985 1_554 S
N889 C891 1.356 . S
N889 H894 0.984 . S
N889 H895 0.985 . S
C890 C884 1.379 . S
C890 C887 1.363 . S
C890 N888 1.356 . S
C891 C885 1.363 . S
C891 C886 1.379 . S
C891 N889 1.356 . S
N892 C884 1.356 . S
N892 H898 0.984 . S
N892 H899 0.984 . S
N893 C886 1.356 . S
N893 H896 0.984 1_554 S
N893 H897 0.985 . S
H894 N889 0.984 . S
H895 N889 0.985 . S
H896 N893 0.984 1_556 S
H897 N893 0.985 . S
H898 N892 0.984 . S
H899 N892 0.984 . S
H900 N888 0.984 . S
H901 N888 0.985 1_556 S
C902 C903 1.363 . S
C902 C908 1.379 . S
C902 N910 1.356 . S
C903 C902 1.363 . S
C903 C909 1.363 . S
C904 C905 1.363 . S
C904 C909 1.379 . S
C904 N911 1.356 . S
C905 C904 1.363 . S
C905 C908 1.363 . S
N906 C908 1.356 . S
N906 H918 0.984 . S
N906 H919 0.985 . S
N907 C909 1.356 . S
N907 H912 0.984 . S
N907 H913 0.985 . S
C908 C902 1.379 . S
C908 C905 1.363 . S
C908 N906 1.356 . S
C909 C903 1.363 . S
C909 C904 1.379 . S
C909 N907 1.356 . S
N910 C902 1.356 . S
N910 H916 0.984 . S
N910 H917 0.984 . S
N911 C904 1.356 . S
N911 H914 0.984 . S
N911 H915 0.985 . S
H912 N907 0.984 . S
H913 N907 0.985 . S
H914 N911 0.984 . S
H915 N911 0.985 . S
H916 N910 0.984 . S
H917 N910 0.984 . S
H918 N906 0.984 . S
H919 N906 0.985 . S
C920 C921 1.363 . S
C920 C926 1.379 . S
C920 N928 1.356 . S
C921 C920 1.363 . S
C921 C927 1.363 . S
C922 C923 1.363 . S
C922 C927 1.379 . S
C922 N929 1.356 . S
C923 C922 1.363 . S
C923 C926 1.363 . S
N924 C926 1.356 . S
N924 H936 0.984 . S
N924 H937 0.985 . S
N925 C927 1.356 . S
N925 H930 0.984 . S
N925 H931 0.985 . S
C926 C920 1.379 . S
C926 C923 1.363 . S
C926 N924 1.356 . S
C927 C921 1.363 . S
C927 C922 1.379 . S
C927 N925 1.356 . S
N928 C920 1.356 . S
N928 H934 0.984 . S
N928 H935 0.984 . S
N929 C922 1.356 . S
N929 H932 0.984 . S
N929 H933 0.985 . S
H930 N925 0.984 . S
H931 N925 0.985 . S
H932 N929 0.984 . S
H933 N929 0.985 . S
H934 N928 0.984 . S
H935 N928 0.984 . S
H936 N924 0.984 . S
H937 N924 0.985 . S
C938 C939 1.363 . S
C938 C944 1.379 . S
C938 N946 1.356 . S
C939 C938 1.363 . S
C939 C945 1.363 . S
C940 C941 1.363 . S
C940 C945 1.379 . S
C940 N947 1.356 . S
C941 C940 1.363 . S
C941 C944 1.363 . S
N942 C944 1.356 . S
N942 H954 0.984 . S
N942 H955 0.985 . S
N943 C945 1.356 . S
N943 H948 0.984 1_554 S
N943 H949 0.985 . S
C944 C938 1.379 . S
C944 C941 1.363 . S
C944 N942 1.356 . S
C945 C939 1.363 . S
C945 C940 1.379 . S
C945 N943 1.356 . S
N946 C938 1.356 . S
N946 H952 0.984 . S
N946 H953 0.984 1_554 S
N947 C940 1.356 . S
N947 H950 0.984 . S
N947 H951 0.985 . S
H948 N943 0.984 1_556 S
H949 N943 0.985 . S
H950 N947 0.984 . S
H951 N947 0.985 . S
H952 N946 0.984 . S
H953 N946 0.984 1_556 S
H954 N942 0.984 . S
H955 N942 0.985 . S
C956 C957 1.363 . S
C956 C962 1.379 . S
C956 N964 1.356 . S
C957 C956 1.363 . S
C957 C963 1.363 . S
C958 C959 1.363 . S
C958 C963 1.379 . S
C958 N965 1.356 . S
C959 C958 1.363 . S
C959 C962 1.363 . S
N960 C962 1.356 1_554 S
N960 H972 0.984 . S
N960 H973 0.985 . S
N961 C963 1.356 . S
N961 H966 0.984 . S
N961 H967 0.985 . S
C962 C956 1.379 . S
C962 C959 1.363 . S
C962 N960 1.356 1_556 S
C963 C957 1.363 . S
C963 C958 1.379 . S
C963 N961 1.356 . S
N964 C956 1.356 . S
N964 H970 0.984 . S
N964 H971 0.984 . S
N965 C958 1.356 . S
N965 H968 0.984 . S
N965 H969 0.985 . S
H966 N961 0.984 . S
H967 N961 0.985 . S
H968 N965 0.984 . S
H969 N965 0.985 . S
H970 N964 0.984 . S
H971 N964 0.984 . S
H972 N960 0.984 . S
H973 N960 0.985 . S
C974 C975 1.363 . S
C974 C980 1.379 . S
C974 N982 1.356 . S
C975 C974 1.363 . S
C975 C981 1.363 . S
C976 C977 1.363 . S
C976 C981 1.379 . S
C976 N983 1.356 . S
C977 C976 1.363 . S
C977 C980 1.363 . S
N978 C980 1.356 . S
N978 H990 0.984 . S
N978 H991 0.985 . S
N979 C981 1.356 . S
N979 H984 0.984 . S
N979 H985 0.985 . S
C980 C974 1.379 . S
C980 C977 1.363 . S
C980 N978 1.356 . S
C981 C975 1.363 . S
C981 C976 1.379 . S
C981 N979 1.356 . S
N982 C974 1.356 . S
N982 H988 0.984 . S
N982 H989 0.984 . S
N983 C976 1.356 . S
N983 H986 0.984 . S
N983 H987 0.985 . S
H984 N979 0.984 . S
H985 N979 0.985 . S
H986 N983 0.984 . S
H987 N983 0.985 . S
H988 N982 0.984 . S
H989 N982 0.984 . S
H990 N978 0.984 . S
H991 N978 0.985 . S
C992 C993 1.363 . S
C992 C998 1.379 . S
C992 N1000 1.356 . S
C993 C992 1.363 . S
C993 C999 1.363 . S
C994 C995 1.363 . S
C994 C999 1.379 . S
C994 N1001 1.356 1_554 S
C995 C994 1.363 . S
C995 C998 1.363 . S
N996 C998 1.356 . S
N996 H1008 0.984 . S
N996 H1009 0.985 . S
N997 C999 1.356 . S
N997 H1002 0.984 . S
N997 H1003 0.985 . S
C998 C992 1.379 . S
C998 C995 1.363 . S
C998 N996 1.356 . S
C999 C993 1.363 . S
C999 C994 1.379 . S
C999 N997 1.356 . S
N1000 C992 1.356 . S
N1000 H1006 0.984 . S
N1000 H1007 0.984 . S
N1001 C994 1.356 1_556 S
N1001 H1004 0.984 . S
N1001 H1005 0.985 . S
H1002 N997 0.984 . S
H1003 N997 0.985 . S
H1004 N1001 0.984 . S
H1005 N1001 0.985 . S
H1006 N1000 0.984 . S
H1007 N1000 0.984 . S
H1008 N996 0.984 . S
H1009 N996 0.985 . S
C1010 C1011 1.363 . S
C1010 C1016 1.379 1_655 S
C1010 N1018 1.356 . S
C1011 C1010 1.363 . S
C1011 C1017 1.363 . S
C1012 C1013 1.363 . S
C1012 C1017 1.379 1_455 S
C1012 N1019 1.356 . S
C1013 C1012 1.363 . S
C1013 C1016 1.363 . S
N1014 C1016 1.356 . S
N1014 H1026 0.984 . S
N1014 H1027 0.985 . S
N1015 C1017 1.356 . S
N1015 H1020 0.984 . S
N1015 H1021 0.985 . S
C1016 C1010 1.379 1_455 S
C1016 C1013 1.363 . S
C1016 N1014 1.356 . S
C1017 C1011 1.363 . S
C1017 C1012 1.379 1_655 S
C1017 N1015 1.356 . S
N1018 C1010 1.356 . S
N1018 H1024 0.984 . S
N1018 H1025 0.984 . S
N1019 C1012 1.356 . S
N1019 H1022 0.984 . S
N1019 H1023 0.985 . S
H1020 N1015 0.984 . S
H1021 N1015 0.985 . S
H1022 N1019 0.984 . S
H1023 N1019 0.985 . S
H1024 N1018 0.984 . S
H1025 N1018 0.984 . S
H1026 N1014 0.984 . S
H1027 N1014 0.985 . S
C1028 C1029 1.363 . S
C1028 C1034 1.379 . S
C1028 N1036 1.356 . S
C1029 C1028 1.363 . S
C1029 C1035 1.363 . S
C1030 C1031 1.363 . S
C1030 C1035 1.379 . S
C1030 N1037 1.356 . S
C1031 C1030 1.363 . S
C1031 C1034 1.363 . S
N1032 C1034 1.356 . S
N1032 H1044 0.984 . S
N1032 H1045 0.985 . S
N1033 C1035 1.356 . S
N1033 H1038 0.984 . S
N1033 H1039 0.985 . S
C1034 C1028 1.379 . S
C1034 C1031 1.363 . S
C1034 N1032 1.356 . S
C1035 C1029 1.363 . S
C1035 C1030 1.379 . S
C1035 N1033 1.356 . S
N1036 C1028 1.356 . S
N1036 H1042 0.984 . S
N1036 H1043 0.984 . S
N1037 C1030 1.356 . S
N1037 H1040 0.984 . S
N1037 H1041 0.985 . S
H1038 N1033 0.984 . S
H1039 N1033 0.985 . S
H1040 N1037 0.984 . S
H1041 N1037 0.985 . S
H1042 N1036 0.984 . S
H1043 N1036 0.984 . S
H1044 N1032 0.984 . S
H1045 N1032 0.985 . S
C1046 C1047 1.363 . S
C1046 C1052 1.379 . S
C1046 N1054 1.356 . S
C1047 C1046 1.363 . S
C1047 C1053 1.363 . S
C1048 C1049 1.363 . S
C1048 C1053 1.379 . S
C1048 N1055 1.356 . S
C1049 C1048 1.363 . S
C1049 C1052 1.363 . S
N1050 C1052 1.356 . S
N1050 H1062 0.984 1_556 S
N1050 H1063 0.985 1_556 S
N1051 C1053 1.356 . S
N1051 H1056 0.984 . S
N1051 H1057 0.985 . S
C1052 C1046 1.379 . S
C1052 C1049 1.363 . S
C1052 N1050 1.356 . S
C1053 C1047 1.363 . S
C1053 C1048 1.379 . S
C1053 N1051 1.356 . S
N1054 C1046 1.356 . S
N1054 H1060 0.984 . S
N1054 H1061 0.984 . S
N1055 C1048 1.356 . S
N1055 H1058 0.984 . S
N1055 H1059 0.985 . S
H1056 N1051 0.984 . S
H1057 N1051 0.985 . S
H1058 N1055 0.984 . S
H1059 N1055 0.985 . S
H1060 N1054 0.984 . S
H1061 N1054 0.984 . S
H1062 N1050 0.984 1_554 S
H1063 N1050 0.985 1_554 S
C1064 C1065 1.363 . S
C1064 C1070 1.379 . S
C1064 N1072 1.356 . S
C1065 C1064 1.363 . S
C1065 C1071 1.363 . S
C1066 C1067 1.363 . S
C1066 C1071 1.379 . S
C1066 N1073 1.356 . S
C1067 C1066 1.363 . S
C1067 C1070 1.363 . S
N1068 C1070 1.356 . S
N1068 H1080 0.984 . S
N1068 H1081 0.985 . S
N1069 C1071 1.356 . S
N1069 H1074 0.984 . S
N1069 H1075 0.985 . S
C1070 C1064 1.379 . S
C1070 C1067 1.363 . S
C1070 N1068 1.356 . S
C1071 C1065 1.363 . S
C1071 C1066 1.379 . S
C1071 N1069 1.356 . S
N1072 C1064 1.356 . S
N1072 H1078 0.984 . S
N1072 H1079 0.984 . S
N1073 C1066 1.356 . S
N1073 H1076 0.984 . S
N1073 H1077 0.985 . S
H1074 N1069 0.984 . S
H1075 N1069 0.985 . S
H1076 N1073 0.984 . S
H1077 N1073 0.985 . S
H1078 N1072 0.984 . S
H1079 N1072 0.984 . S
H1080 N1068 0.984 . S
H1081 N1068 0.985 . S
C1082 C1083 1.363 . S
C1082 C1088 1.379 . S
C1082 N1090 1.356 . S
C1083 C1082 1.363 . S
C1083 C1089 1.363 . S
C1084 C1085 1.363 . S
C1084 C1089 1.379 . S
C1084 N1091 1.356 . S
C1085 C1084 1.363 . S
C1085 C1088 1.363 . S
N1086 C1088 1.356 . S
N1086 H1098 0.984 . S
N1086 H1099 0.985 . S
N1087 C1089 1.356 . S
N1087 H1092 0.984 . S
N1087 H1093 0.985 . S
C1088 C1082 1.379 . S
C1088 C1085 1.363 . S
C1088 N1086 1.356 . S
C1089 C1083 1.363 . S
C1089 C1084 1.379 . S
C1089 N1087 1.356 . S
N1090 C1082 1.356 . S
N1090 H1096 0.984 . S
N1090 H1097 0.984 . S
N1091 C1084 1.356 . S
N1091 H1094 0.984 . S
N1091 H1095 0.985 . S
H1092 N1087 0.984 . S
H1093 N1087 0.985 . S
H1094 N1091 0.984 . S
H1095 N1091 0.985 . S
H1096 N1090 0.984 . S
H1097 N1090 0.984 . S
H1098 N1086 0.984 . S
H1099 N1086 0.985 . S
C1100 C1101 1.363 . S
C1100 C1106 1.379 . S
C1100 N1108 1.356 . S
C1101 C1100 1.363 . S
C1101 C1107 1.363 . S
C1102 C1103 1.363 . S
C1102 C1107 1.379 . S
C1102 N1109 1.356 . S
C1103 C1102 1.363 . S
C1103 C1106 1.363 . S
N1104 C1106 1.356 1_554 S
N1104 H1116 0.984 . S
N1104 H1117 0.985 . S
N1105 C1107 1.356 . S
N1105 H1110 0.984 . S
N1105 H1111 0.985 . S
C1106 C1100 1.379 . S
C1106 C1103 1.363 . S
C1106 N1104 1.356 1_556 S
C1107 C1101 1.363 . S
C1107 C1102 1.379 . S
C1107 N1105 1.356 . S
N1108 C1100 1.356 . S
N1108 H1114 0.984 1_556 S
N1108 H1115 0.984 . S
N1109 C1102 1.356 . S
N1109 H1112 0.984 . S
N1109 H1113 0.985 . S
H1110 N1105 0.984 . S
H1111 N1105 0.985 . S
H1112 N1109 0.984 . S
H1113 N1109 0.985 . S
H1114 N1108 0.984 1_554 S
H1115 N1108 0.984 . S
H1116 N1104 0.984 . S
H1117 N1104 0.985 . S
C1118 C1119 1.363 . S
C1118 C1124 1.379 1_455 S
C1118 N1126 1.356 . S
C1119 C1118 1.363 . S
C1119 C1125 1.363 . S
C1120 C1121 1.363 . S
C1120 C1125 1.379 1_655 S
C1120 N1127 1.356 . S
C1121 C1120 1.363 . S
C1121 C1124 1.363 . S
N1122 C1124 1.356 . S
N1122 H1134 0.984 . S
N1122 H1135 0.985 . S
N1123 C1125 1.356 . S
N1123 H1128 0.982 1_554 S
N1123 H1129 0.985 . S
C1124 C1118 1.379 1_655 S
C1124 C1121 1.363 . S
C1124 N1122 1.356 . S
C1125 C1119 1.363 . S
C1125 C1120 1.379 1_455 S
C1125 N1123 1.356 . S
N1126 C1118 1.356 . S
N1126 H1132 0.984 . S
N1126 H1133 0.984 . S
N1127 C1120 1.356 . S
N1127 H1130 0.984 . S
N1127 H1131 0.985 . S
H1128 N1123 0.982 1_556 S
H1129 N1123 0.985 . S
H1130 N1127 0.984 . S
H1131 N1127 0.985 . S
H1132 N1126 0.984 . S
H1133 N1126 0.984 . S
H1134 N1122 0.984 . S
H1135 N1122 0.985 . S
C1136 C1137 1.363 . S
C1136 C1142 1.379 . S
C1136 N1144 1.356 . S
C1137 C1136 1.363 . S
C1137 C1143 1.363 . S
C1138 C1139 1.363 . S
C1138 C1143 1.379 . S
C1138 N1145 1.356 1_556 S
C1139 C1138 1.363 . S
C1139 C1142 1.363 . S
N1140 C1142 1.356 . S
N1140 H1152 0.984 . S
N1140 H1153 0.985 . S
N1141 C1143 1.356 . S
N1141 H1146 0.984 . S
N1141 H1147 0.985 1_556 S
C1142 C1136 1.379 . S
C1142 C1139 1.363 . S
C1142 N1140 1.356 . S
C1143 C1137 1.363 . S
C1143 C1138 1.379 . S
C1143 N1141 1.356 . S
N1144 C1136 1.356 . S
N1144 H1150 0.984 . S
N1144 H1151 0.984 . S
N1145 C1138 1.356 1_554 S
N1145 H1148 0.984 . S
N1145 H1149 0.985 . S
H1146 N1141 0.984 . S
H1147 N1141 0.985 1_554 S
H1148 N1145 0.984 . S
H1149 N1145 0.985 . S
H1150 N1144 0.984 . S
H1151 N1144 0.984 . S
H1152 N1140 0.984 . S
H1153 N1140 0.985 . S
C1154 C1155 1.363 . S
C1154 C1160 1.379 . S
C1154 N1162 1.356 . S
C1155 C1154 1.363 . S
C1155 C1161 1.363 . S
C1156 C1157 1.363 . S
C1156 C1161 1.379 1_655 S
C1156 N1163 1.356 . S
C1157 C1156 1.363 . S
C1157 C1160 1.363 1_655 S
N1158 C1160 1.356 1_655 S
N1158 H1170 0.984 1_655 S
N1158 H1171 0.985 . S
N1159 C1161 1.356 . S
N1159 H1164 0.984 . S
N1159 H1165 0.985 . S
C1160 C1154 1.379 . S
C1160 C1157 1.363 1_455 S
C1160 N1158 1.356 1_455 S
C1161 C1155 1.363 . S
C1161 C1156 1.379 1_455 S
C1161 N1159 1.356 . S
N1162 C1154 1.356 . S
N1162 H1168 0.984 . S
N1162 H1169 0.984 . S
N1163 C1156 1.356 . S
N1163 H1166 0.984 . S
N1163 H1167 0.985 . S
H1164 N1159 0.984 . S
H1165 N1159 0.985 . S
H1166 N1163 0.984 . S
H1167 N1163 0.985 . S
H1168 N1162 0.984 . S
H1169 N1162 0.984 . S
H1170 N1158 0.984 1_455 S
H1171 N1158 0.985 . S
C1172 C1173 1.363 . S
C1172 C1178 1.379 . S
C1172 N1180 1.356 . S
C1173 C1172 1.363 . S
C1173 C1179 1.363 . S
C1174 C1175 1.363 . S
C1174 C1179 1.379 . S
C1174 N1181 1.356 . S
C1175 C1174 1.363 . S
C1175 C1178 1.363 . S
N1176 C1178 1.356 . S
N1176 H1188 0.984 . S
N1176 H1189 0.985 . S
N1177 C1179 1.356 . S
N1177 H1182 0.984 . S
N1177 H1183 0.985 . S
C1178 C1172 1.379 . S
C1178 C1175 1.363 . S
C1178 N1176 1.356 . S
C1179 C1173 1.363 . S
C1179 C1174 1.379 . S
C1179 N1177 1.356 . S
N1180 C1172 1.356 . S
N1180 H1186 0.984 . S
N1180 H1187 0.984 . S
N1181 C1174 1.356 . S
N1181 H1184 0.984 . S
N1181 H1185 0.985 . S
H1182 N1177 0.984 . S
H1183 N1177 0.985 . S
H1184 N1181 0.984 . S
H1185 N1181 0.985 . S
H1186 N1180 0.984 . S
H1187 N1180 0.984 . S
H1188 N1176 0.984 . S
H1189 N1176 0.985 . S
C1190 C1191 1.363 . S
C1190 C1196 1.379 . S
C1190 N1198 1.356 . S
C1191 C1190 1.363 . S
C1191 C1197 1.363 . S
C1192 C1193 1.363 . S
C1192 C1197 1.379 . S
C1192 N1199 1.356 . S
C1193 C1192 1.363 . S
C1193 C1196 1.363 . S
N1194 C1196 1.356 1_556 S
N1194 H1206 0.984 . S
N1194 H1207 0.985 . S
N1195 C1197 1.356 . S
N1195 H1200 0.984 . S
N1195 H1201 0.985 . S
C1196 C1190 1.379 . S
C1196 C1193 1.363 . S
C1196 N1194 1.356 1_554 S
C1197 C1191 1.363 . S
C1197 C1192 1.379 . S
C1197 N1195 1.356 . S
N1198 C1190 1.356 . S
N1198 H1204 0.984 1_554 S
N1198 H1205 0.984 . S
N1199 C1192 1.356 . S
N1199 H1202 0.984 . S
N1199 H1203 0.985 . S
H1200 N1195 0.984 . S
H1201 N1195 0.985 . S
H1202 N1199 0.984 . S
H1203 N1199 0.985 . S
H1204 N1198 0.984 1_556 S
H1205 N1198 0.984 . S
H1206 N1194 0.984 . S
H1207 N1194 0.985 . S
C1208 C1209 1.363 . S
C1208 C1214 1.379 . S
C1208 N1216 1.356 . S
C1209 C1208 1.363 . S
C1209 C1215 1.363 . S
C1210 C1211 1.363 . S
C1210 C1215 1.379 . S
C1210 N1217 1.356 . S
C1211 C1210 1.363 . S
C1211 C1214 1.363 . S
N1212 C1214 1.356 . S
N1212 H1224 0.984 . S
N1212 H1225 0.985 . S
N1213 C1215 1.356 . S
N1213 H1218 0.984 . S
N1213 H1219 0.985 . S
C1214 C1208 1.379 . S
C1214 C1211 1.363 . S
C1214 N1212 1.356 . S
C1215 C1209 1.363 . S
C1215 C1210 1.379 . S
C1215 N1213 1.356 . S
N1216 C1208 1.356 . S
N1216 H1222 0.984 . S
N1216 H1223 0.984 . S
N1217 C1210 1.356 . S
N1217 H1220 0.984 . S
N1217 H1221 0.985 . S
H1218 N1213 0.984 . S
H1219 N1213 0.985 . S
H1220 N1217 0.984 . S
H1221 N1217 0.985 . S
H1222 N1216 0.984 . S
H1223 N1216 0.984 . S
H1224 N1212 0.984 . S
H1225 N1212 0.985 . S
C1226 C1227 1.363 . S
C1226 C1232 1.379 . S
C1226 N1234 1.356 . S
C1227 C1226 1.363 . S
C1227 C1233 1.363 . S
C1228 C1229 1.363 . S
C1228 C1233 1.379 . S
C1228 N1235 1.356 . S
C1229 C1228 1.363 . S
C1229 C1232 1.363 . S
N1230 C1232 1.356 . S
N1230 H1242 0.984 . S
N1230 H1243 0.985 . S
N1231 C1233 1.356 . S
N1231 H1236 0.984 . S
N1231 H1237 0.985 . S
C1232 C1226 1.379 . S
C1232 C1229 1.363 . S
C1232 N1230 1.356 . S
C1233 C1227 1.363 . S
C1233 C1228 1.379 . S
C1233 N1231 1.356 . S
N1234 C1226 1.356 . S
N1234 H1240 0.984 . S
N1234 H1241 0.984 . S
N1235 C1228 1.356 . S
N1235 H1238 0.984 . S
N1235 H1239 0.985 . S
H1236 N1231 0.984 . S
H1237 N1231 0.985 . S
H1238 N1235 0.984 . S
H1239 N1235 0.985 . S
H1240 N1234 0.984 . S
H1241 N1234 0.984 . S
H1242 N1230 0.984 . S
H1243 N1230 0.985 . S
C1244 C1245 1.363 . S
C1244 C1250 1.379 . S
C1244 N1252 1.356 . S
C1245 C1244 1.363 . S
C1245 C1251 1.363 . S
C1246 C1247 1.363 . S
C1246 C1251 1.379 . S
C1246 N1253 1.356 . S
C1247 C1246 1.363 . S
C1247 C1250 1.363 . S
N1248 C1250 1.356 . S
N1248 H1260 0.984 . S
N1248 H1261 0.985 . S
N1249 C1251 1.356 . S
N1249 H1254 0.984 . S
N1249 H1255 0.985 . S
C1250 C1244 1.379 . S
C1250 C1247 1.363 . S
C1250 N1248 1.356 . S
C1251 C1245 1.363 . S
C1251 C1246 1.379 . S
C1251 N1249 1.356 . S
N1252 C1244 1.356 . S
N1252 H1258 0.984 . S
N1252 H1259 0.984 . S
N1253 C1246 1.356 . S
N1253 H1256 0.984 . S
N1253 H1257 0.985 1_554 S
H1254 N1249 0.984 . S
H1255 N1249 0.985 . S
H1256 N1253 0.984 . S
H1257 N1253 0.985 1_556 S
H1258 N1252 0.984 . S
H1259 N1252 0.984 . S
H1260 N1248 0.984 . S
H1261 N1248 0.985 . S
C1262 C1263 1.363 . S
C1262 C1268 1.379 1_455 S
C1262 N1270 1.356 . S
C1263 C1262 1.363 . S
C1263 C1269 1.363 . S
C1264 C1265 1.363 . S
C1264 C1269 1.379 1_655 S
C1264 N1271 1.356 . S
C1265 C1264 1.363 . S
C1265 C1268 1.363 . S
N1266 C1268 1.356 . S
N1266 H1278 0.984 . S
N1266 H1279 0.985 . S
N1267 C1269 1.356 . S
N1267 H1272 0.984 . S
N1267 H1273 0.985 . S
C1268 C1262 1.379 1_655 S
C1268 C1265 1.363 . S
C1268 N1266 1.356 . S
C1269 C1263 1.363 . S
C1269 C1264 1.379 1_455 S
C1269 N1267 1.356 . S
N1270 C1262 1.356 . S
N1270 H1276 0.984 . S
N1270 H1277 0.984 . S
N1271 C1264 1.356 . S
N1271 H1274 0.984 . S
N1271 H1275 0.985 . S
H1272 N1267 0.984 . S
H1273 N1267 0.985 . S
H1274 N1271 0.984 . S
H1275 N1271 0.985 . S
H1276 N1270 0.984 . S
H1277 N1270 0.984 . S
H1278 N1266 0.984 . S
H1279 N1266 0.985 . S
C1280 C1281 1.363 . S
C1280 C1286 1.379 . S
C1280 N1288 1.356 . S
C1281 C1280 1.363 . S
C1281 C1287 1.363 . S
C1282 C1283 1.363 . S
C1282 C1287 1.379 . S
C1282 N1289 1.356 . S
C1283 C1282 1.363 . S
C1283 C1286 1.363 . S
N1284 C1286 1.356 . S
N1284 H1296 0.984 . S
N1284 H1297 0.985 . S
N1285 C1287 1.356 . S
N1285 H1290 0.984 . S
N1285 H1291 0.985 . S
C1286 C1280 1.379 . S
C1286 C1283 1.363 . S
C1286 N1284 1.356 . S
C1287 C1281 1.363 . S
C1287 C1282 1.379 . S
C1287 N1285 1.356 . S
N1288 C1280 1.356 . S
N1288 H1294 0.984 . S
N1288 H1295 0.984 . S
N1289 C1282 1.356 . S
N1289 H1292 0.984 . S
N1289 H1293 0.985 . S
H1290 N1285 0.984 . S
H1291 N1285 0.985 . S
H1292 N1289 0.984 . S
H1293 N1289 0.985 . S
H1294 N1288 0.984 . S
H1295 N1288 0.984 . S
H1296 N1284 0.984 . S
H1297 N1284 0.985 . S
C1298 C1299 1.363 . S
C1298 C1304 1.379 . S
C1298 N1306 1.356 . S
C1299 C1298 1.363 . S
C1299 C1305 1.363 . S
C1300 C1301 1.363 . S
C1300 C1305 1.379 . S
C1300 N1307 1.356 . S
C1301 C1300 1.363 . S
C1301 C1304 1.363 . S
N1302 C1304 1.356 1_554 S
N1302 H1314 0.984 . S
N1302 H1315 0.985 . S
N1303 C1305 1.356 . S
N1303 H1308 0.984 . S
N1303 H1309 0.985 . S
C1304 C1298 1.379 . S
C1304 C1301 1.363 . S
C1304 N1302 1.356 1_556 S
C1305 C1299 1.363 . S
C1305 C1300 1.379 . S
C1305 N1303 1.356 . S
N1306 C1298 1.356 . S
N1306 H1312 0.984 1_556 S
N1306 H1313 0.984 . S
N1307 C1300 1.356 . S
N1307 H1310 0.984 . S
N1307 H1311 0.985 . S
H1308 N1303 0.984 . S
H1309 N1303 0.985 . S
H1310 N1307 0.984 . S
H1311 N1307 0.985 . S
H1312 N1306 0.984 1_554 S
H1313 N1306 0.984 . S
H1314 N1302 0.984 . S
H1315 N1302 0.985 . S
C1316 C1317 1.363 . S
C1316 C1322 1.379 . S
C1316 N1324 1.356 . S
C1317 C1316 1.363 . S
C1317 C1323 1.363 . S
C1318 C1319 1.363 . S
C1318 C1323 1.379 . S
C1318 N1325 1.356 . S
C1319 C1318 1.363 . S
C1319 C1322 1.363 . S
N1320 C1322 1.356 1_556 S
N1320 H1332 0.984 . S
N1320 H1333 0.985 . S
N1321 C1323 1.356 . S
N1321 H1326 0.984 . S
N1321 H1327 0.985 . S
C1322 C1316 1.379 . S
C1322 C1319 1.363 . S
C1322 N1320 1.356 1_554 S
C1323 C1317 1.363 . S
C1323 C1318 1.379 . S
C1323 N1321 1.356 . S
N1324 C1316 1.356 . S
N1324 H1330 0.984 . S
N1324 H1331 0.984 . S
N1325 C1318 1.356 . S
N1325 H1328 0.984 . S
N1325 H1329 0.985 . S
H1326 N1321 0.984 . S
H1327 N1321 0.985 . S
H1328 N1325 0.984 . S
H1329 N1325 0.985 . S
H1330 N1324 0.984 . S
H1331 N1324 0.984 . S
H1332 N1320 0.984 . S
H1333 N1320 0.985 . S
C1334 C1335 1.363 . S
C1334 C1340 1.379 1_655 S
C1334 N1342 1.356 . S
C1335 C1334 1.363 . S
C1335 C1341 1.363 . S
C1336 C1337 1.363 . S
C1336 C1341 1.379 1_455 S
C1336 N1343 1.356 . S
C1337 C1336 1.363 . S
C1337 C1340 1.363 . S
N1338 C1340 1.356 . S
N1338 H1350 0.984 . S
N1338 H1351 0.985 . S
N1339 C1341 1.356 . S
N1339 H1344 0.984 . S
N1339 H1345 0.985 . S
C1340 C1334 1.379 1_455 S
C1340 C1337 1.363 . S
C1340 N1338 1.356 . S
C1341 C1335 1.363 . S
C1341 C1336 1.379 1_655 S
C1341 N1339 1.356 . S
N1342 C1334 1.356 . S
N1342 H1348 0.984 . S
N1342 H1349 0.984 . S
N1343 C1336 1.356 . S
N1343 H1346 0.984 . S
N1343 H1347 0.985 . S
H1344 N1339 0.984 . S
H1345 N1339 0.985 . S
H1346 N1343 0.984 . S
H1347 N1343 0.985 . S
H1348 N1342 0.984 . S
H1349 N1342 0.984 . S
H1350 N1338 0.984 . S
H1351 N1338 0.985 . S
C1352 C1353 1.363 . S
C1352 C1358 1.379 . S
C1352 N1360 1.356 . S
C1353 C1352 1.363 . S
C1353 C1359 1.363 . S
C1354 C1355 1.363 . S
C1354 C1359 1.379 . S
C1354 N1361 1.356 1_556 S
C1355 C1354 1.363 . S
C1355 C1358 1.363 . S
N1356 C1358 1.356 . S
N1356 H1368 0.984 . S
N1356 H1369 0.985 . S
N1357 C1359 1.356 . S
N1357 H1362 0.984 . S
N1357 H1363 0.985 . S
C1358 C1352 1.379 . S
C1358 C1355 1.363 . S
C1358 N1356 1.356 . S
C1359 C1353 1.363 . S
C1359 C1354 1.379 . S
C1359 N1357 1.356 . S
N1360 C1352 1.356 . S
N1360 H1366 0.984 . S
N1360 H1367 0.984 . S
N1361 C1354 1.356 1_554 S
N1361 H1364 0.984 . S
N1361 H1365 0.985 . S
H1362 N1357 0.984 . S
H1363 N1357 0.985 . S
H1364 N1361 0.984 . S
H1365 N1361 0.985 . S
H1366 N1360 0.984 . S
H1367 N1360 0.984 . S
H1368 N1356 0.984 . S
H1369 N1356 0.985 . S
C1370 C1371 1.363 1_455 S
C1370 C1376 1.379 . S
C1370 N1378 1.356 1_455 S
C1371 C1370 1.363 1_655 S
C1371 C1377 1.363 . S
C1372 C1373 1.363 . S
C1372 C1377 1.379 1_455 S
C1372 N1379 1.356 . S
C1373 C1372 1.363 . S
C1373 C1376 1.363 . S
N1374 C1376 1.356 . S
N1374 H1386 0.984 . S
N1374 H1387 0.985 . S
N1375 C1377 1.356 . S
N1375 H1380 0.984 . S
N1375 H1381 0.985 . S
C1376 C1370 1.379 . S
C1376 C1373 1.363 . S
C1376 N1374 1.356 . S
C1377 C1371 1.363 . S
C1377 C1372 1.379 1_655 S
C1377 N1375 1.356 . S
N1378 C1370 1.356 1_655 S
N1378 H1384 0.984 1_654 S
N1378 H1385 0.984 1_554 S
N1379 C1372 1.356 . S
N1379 H1382 0.984 . S
N1379 H1383 0.985 . S
H1380 N1375 0.984 . S
H1381 N1375 0.985 . S
H1382 N1379 0.984 . S
H1383 N1379 0.985 . S
H1384 N1378 0.984 1_456 S
H1385 N1378 0.984 1_556 S
H1386 N1374 0.984 . S
H1387 N1374 0.985 . S
C1388 C1389 1.363 . S
C1388 C1394 1.379 . S
C1388 N1396 1.356 . S
C1389 C1388 1.363 . S
C1389 C1395 1.363 . S
C1390 C1391 1.363 . S
C1390 C1395 1.379 . S
C1390 N1397 1.356 . S
C1391 C1390 1.363 . S
C1391 C1394 1.363 . S
N1392 C1394 1.356 . S
N1392 H1404 0.984 . S
N1392 H1405 0.985 . S
N1393 C1395 1.356 . S
N1393 H1398 0.984 . S
N1393 H1399 0.985 . S
C1394 C1388 1.379 . S
C1394 C1391 1.363 . S
C1394 N1392 1.356 . S
C1395 C1389 1.363 . S
C1395 C1390 1.379 . S
C1395 N1393 1.356 . S
N1396 C1388 1.356 . S
N1396 H1402 0.984 . S
N1396 H1403 0.984 . S
N1397 C1390 1.356 . S
N1397 H1400 0.984 . S
N1397 H1401 0.985 . S
H1398 N1393 0.984 . S
H1399 N1393 0.985 . S
H1400 N1397 0.984 . S
H1401 N1397 0.985 . S
H1402 N1396 0.984 . S
H1403 N1396 0.984 . S
H1404 N1392 0.984 . S
H1405 N1392 0.985 . S
C1406 C1407 1.363 . S
C1406 C1412 1.379 . S
C1406 N1414 1.356 . S
C1407 C1406 1.363 . S
C1407 C1413 1.363 . S
C1408 C1409 1.363 . S
C1408 C1413 1.379 . S
C1408 N1415 1.356 . S
C1409 C1408 1.363 . S
C1409 C1412 1.363 . S
N1410 C1412 1.356 . S
N1410 H1422 0.984 . S
N1410 H1423 0.985 . S
N1411 C1413 1.356 . S
N1411 H1416 0.984 . S
N1411 H1417 0.985 . S
C1412 C1406 1.379 . S
C1412 C1409 1.363 . S
C1412 N1410 1.356 . S
C1413 C1407 1.363 . S
C1413 C1408 1.379 . S
C1413 N1411 1.356 . S
N1414 C1406 1.356 . S
N1414 H1420 0.984 . S
N1414 H1421 0.984 . S
N1415 C1408 1.356 . S
N1415 H1418 0.984 . S
N1415 H1419 0.985 . S
H1416 N1411 0.984 . S
H1417 N1411 0.985 . S
H1418 N1415 0.984 . S
H1419 N1415 0.985 . S
H1420 N1414 0.984 . S
H1421 N1414 0.984 . S
H1422 N1410 0.984 . S
H1423 N1410 0.985 . S
C1424 C1425 1.363 . S
C1424 C1430 1.379 . S
C1424 N1432 1.356 . S
C1425 C1424 1.363 . S
C1425 C1431 1.363 . S
C1426 C1427 1.363 . S
C1426 C1431 1.379 . S
C1426 N1433 1.356 . S
C1427 C1426 1.363 . S
C1427 C1430 1.363 . S
N1428 C1430 1.356 . S
N1428 H1440 0.984 . S
N1428 H1441 0.985 . S
N1429 C1431 1.356 . S
N1429 H1434 0.984 . S
N1429 H1435 0.985 . S
C1430 C1424 1.379 . S
C1430 C1427 1.363 . S
C1430 N1428 1.356 . S
C1431 C1425 1.363 . S
C1431 C1426 1.379 . S
C1431 N1429 1.356 . S
N1432 C1424 1.356 . S
N1432 H1438 0.984 . S
N1432 H1439 0.984 . S
N1433 C1426 1.356 . S
N1433 H1436 0.984 . S
N1433 H1437 0.985 . S
H1434 N1429 0.984 . S
H1435 N1429 0.985 . S
H1436 N1433 0.984 . S
H1437 N1433 0.985 . S
H1438 N1432 0.984 . S
H1439 N1432 0.984 . S
H1440 N1428 0.984 . S
H1441 N1428 0.985 . S
C1442 C1443 1.363 . S
C1442 C1448 1.379 . S
C1442 N1450 1.356 . S
C1443 C1442 1.363 . S
C1443 C1449 1.363 . S
C1444 C1445 1.363 . S
C1444 C1449 1.379 . S
C1444 N1451 1.356 . S
C1445 C1444 1.363 . S
C1445 C1448 1.363 . S
N1446 C1448 1.356 . S
N1446 H1458 0.984 . S
N1446 H1459 0.985 . S
N1447 C1449 1.356 . S
N1447 H1452 0.984 . S
N1447 H1453 0.985 . S
C1448 C1442 1.379 . S
C1448 C1445 1.363 . S
C1448 N1446 1.356 . S
C1449 C1443 1.363 . S
C1449 C1444 1.379 . S
C1449 N1447 1.356 . S
N1450 C1442 1.356 . S
N1450 H1456 0.984 . S
N1450 H1457 0.984 . S
N1451 C1444 1.356 . S
N1451 H1454 0.984 . S
N1451 H1455 0.985 . S
H1452 N1447 0.984 . S
H1453 N1447 0.985 . S
H1454 N1451 0.984 . S
H1455 N1451 0.985 . S
H1456 N1450 0.984 . S
H1457 N1450 0.984 . S
H1458 N1446 0.984 . S
H1459 N1446 0.985 . S
C1460 C1461 1.363 . S
C1460 C1466 1.379 . S
C1460 N1468 1.356 . S
C1461 C1460 1.363 . S
C1461 C1467 1.363 . S
C1462 C1463 1.363 . S
C1462 C1467 1.379 . S
C1462 N1469 1.356 . S
C1463 C1462 1.363 . S
C1463 C1466 1.363 . S
N1464 C1466 1.356 . S
N1464 H1476 0.984 . S
N1464 H1477 0.985 . S
N1465 C1467 1.356 1_554 S
N1465 H1470 0.984 . S
N1465 H1471 0.985 . S
C1466 C1460 1.379 . S
C1466 C1463 1.363 . S
C1466 N1464 1.356 . S
C1467 C1461 1.363 . S
C1467 C1462 1.379 . S
C1467 N1465 1.356 1_556 S
N1468 C1460 1.356 . S
N1468 H1474 0.984 . S
N1468 H1475 0.984 . S
N1469 C1462 1.356 . S
N1469 H1472 0.984 . S
N1469 H1473 0.985 . S
H1470 N1465 0.984 . S
H1471 N1465 0.985 . S
H1472 N1469 0.984 . S
H1473 N1469 0.985 . S
H1474 N1468 0.984 . S
H1475 N1468 0.984 . S
H1476 N1464 0.984 . S
H1477 N1464 0.985 . S
C1478 C1479 1.363 . S
C1478 C1484 1.379 1_455 S
C1478 N1486 1.356 . S
C1479 C1478 1.363 . S
C1479 C1485 1.363 . S
C1480 C1481 1.363 . S
C1480 C1485 1.379 1_655 S
C1480 N1487 1.356 . S
C1481 C1480 1.363 . S
C1481 C1484 1.363 . S
N1482 C1484 1.356 . S
N1482 H1494 0.984 . S
N1482 H1495 0.985 . S
N1483 C1485 1.356 . S
N1483 H1488 0.984 . S
N1483 H1489 0.985 . S
C1484 C1478 1.379 1_655 S
C1484 C1481 1.363 . S
C1484 N1482 1.356 . S
C1485 C1479 1.363 . S
C1485 C1480 1.379 1_455 S
C1485 N1483 1.356 . S
N1486 C1478 1.356 . S
N1486 H1492 0.984 . S
N1486 H1493 0.984 . S
N1487 C1480 1.356 . S
N1487 H1490 0.984 . S
N1487 H1491 0.985 . S
H1488 N1483 0.984 . S
H1489 N1483 0.985 . S
H1490 N1487 0.984 . S
H1491 N1487 0.985 . S
H1492 N1486 0.984 . S
H1493 N1486 0.984 . S
H1494 N1482 0.984 . S
H1495 N1482 0.985 . S
C1496 C1497 1.363 . S
C1496 C1502 1.379 . S
C1496 N1504 1.356 . S
C1497 C1496 1.363 . S
C1497 C1503 1.363 . S
C1498 C1499 1.363 . S
C1498 C1503 1.379 . S
C1498 N1505 1.356 . S
C1499 C1498 1.363 . S
C1499 C1502 1.363 . S
N1500 C1502 1.356 1_556 S
N1500 H1512 0.984 . S
N1500 H1513 0.985 . S
N1501 C1503 1.356 . S
N1501 H1506 0.984 . S
N1501 H1507 0.985 . S
C1502 C1496 1.379 . S
C1502 C1499 1.363 . S
C1502 N1500 1.356 1_554 S
C1503 C1497 1.363 . S
C1503 C1498 1.379 . S
C1503 N1501 1.356 . S
N1504 C1496 1.356 . S
N1504 H1510 0.984 . S
N1504 H1511 0.984 . S
N1505 C1498 1.356 . S
N1505 H1508 0.984 . S
N1505 H1509 0.985 . S
H1506 N1501 0.984 . S
H1507 N1501 0.985 . S
H1508 N1505 0.984 . S
H1509 N1505 0.985 . S
H1510 N1504 0.984 . S
H1511 N1504 0.984 . S
H1512 N1500 0.984 . S
H1513 N1500 0.985 . S
C1514 C1515 1.363 . S
C1514 C1520 1.379 1_655 S
C1514 N1522 1.356 . S
C1515 C1514 1.363 . S
C1515 C1521 1.363 . S
C1516 C1517 1.400 . S
C1516 C1521 1.335 1_455 S
C1516 N1523 1.379 1_556 S
C1517 C1516 1.400 . S
C1517 C1520 1.363 . S
N1518 C1520 1.356 . S
N1518 H1530 0.984 . S
N1518 H1531 0.985 . S
N1519 C1521 1.356 . S
N1519 H1524 0.984 . S
N1519 H1525 0.985 1_556 S
C1520 C1514 1.379 1_455 S
C1520 C1517 1.363 . S
C1520 N1518 1.356 . S
C1521 C1515 1.363 . S
C1521 C1516 1.335 1_655 S
C1521 N1519 1.356 . S
N1522 C1514 1.356 . S
N1522 H1528 0.984 . S
N1522 H1529 0.984 . S
N1523 C1516 1.379 1_554 S
N1523 H1526 0.984 . S
N1523 H1527 0.985 . S
H1524 N1519 0.984 . S
H1525 N1519 0.985 1_554 S
H1526 N1523 0.984 . S
H1527 N1523 0.985 . S
H1528 N1522 0.984 . S
H1529 N1522 0.984 . S
H1530 N1518 0.984 . S
H1531 N1518 0.985 . S
C1532 C1533 1.363 . S
C1532 C1538 1.379 . S
C1532 N1540 1.356 . S
C1533 C1532 1.363 . S
C1533 C1539 1.363 . S
C1534 C1535 1.363 . S
C1534 C1539 1.379 . S
C1534 N1541 1.356 . S
C1535 C1534 1.363 . S
C1535 C1538 1.363 . S
N1536 C1538 1.356 . S
N1536 H1548 0.984 . S
N1536 H1549 0.985 . S
N1537 C1539 1.356 . S
N1537 H1542 0.984 . S
N1537 H1543 0.985 . S
C1538 C1532 1.379 . S
C1538 C1535 1.363 . S
C1538 N1536 1.356 . S
C1539 C1533 1.363 . S
C1539 C1534 1.379 . S
C1539 N1537 1.356 . S
N1540 C1532 1.356 . S
N1540 H1546 0.984 . S
N1540 H1547 0.984 . S
N1541 C1534 1.356 . S
N1541 H1544 0.984 . S
N1541 H1545 0.985 . S
H1542 N1537 0.984 . S
H1543 N1537 0.985 . S
H1544 N1541 0.984 . S
H1545 N1541 0.985 . S
H1546 N1540 0.984 . S
H1547 N1540 0.984 . S
H1548 N1536 0.984 . S
H1549 N1536 0.985 . S
C1550 C1551 1.363 . S
C1550 C1556 1.379 . S
C1550 N1558 1.356 . S
C1551 C1550 1.363 . S
C1551 C1557 1.363 . S
C1552 C1553 1.363 . S
C1552 C1557 1.379 . S
C1552 N1559 1.356 . S
C1553 C1552 1.363 . S
C1553 C1556 1.363 . S
N1554 C1556 1.356 . S
N1554 H1566 0.984 . S
N1554 H1567 0.985 . S
N1555 C1557 1.356 . S
N1555 H1560 0.984 . S
N1555 H1561 0.985 . S
C1556 C1550 1.379 . S
C1556 C1553 1.363 . S
C1556 N1554 1.356 . S
C1557 C1551 1.363 . S
C1557 C1552 1.379 . S
C1557 N1555 1.356 . S
N1558 C1550 1.356 . S
N1558 H1564 0.984 . S
N1558 H1565 0.984 . S
N1559 C1552 1.356 . S
N1559 H1562 0.984 . S
N1559 H1563 0.985 . S
H1560 N1555 0.984 . S
H1561 N1555 0.985 . S
H1562 N1559 0.984 . S
H1563 N1559 0.985 . S
H1564 N1558 0.984 . S
H1565 N1558 0.984 . S
H1566 N1554 0.984 . S
H1567 N1554 0.985 . S
C417 C88 1.367 . S
C419 C10 1.367 . S
C435 C23 1.367 . S
C437 C101 1.367 . S
C453 C62 1.367 . S
C455 C36 1.367 . S
C471 C49 1.367 . S
C473 C75 1.367 . S
C489 C192 1.367 . S
C491 C114 1.367 . S
C507 C127 1.367 . S
C509 C205 1.367 . S
C525 C166 1.367 . S
C527 C140 1.367 . S
C543 C153 1.367 . S
C545 C179 1.367 . S
C561 C218 1.367 . S
C563 C296 1.367 . S
C579 C309 1.367 . S
C581 C231 1.367 . S
C597 C244 1.367 . S
C599 C270 1.367 . S
C615 C283 1.367 . S
C617 C257 1.367 . S
C633 C400 1.367 . S
C635 C322 1.367 . S
C651 C413 1.367 . S
C653 C335 1.367 . S
C669 C374 1.367 . S
C671 C348 1.367 . S
C687 C361 1.367 . S
C689 C387 1.367 . S
C705 C91 1.574 1_554 S
C707 C0 1.574 . S
C723 C52 1.575 . S
C725 C13 1.575 . S
C741 C65 1.575 . S
C743 C26 1.575 . S
C759 C78 1.574 . S
C761 C39 1.574 1_556 S
C777 C195 1.574 1_556 S
C779 C104 1.575 . S
C795 C156 1.575 . S
C797 C117 1.575 . S
C813 C169 1.575 . S
C815 C130 1.575 . S
C831 C143 1.574 1_554 S
C833 C182 1.574 . S
C849 C299 1.574 . S
C851 C208 1.575 . S
C867 C221 1.575 1_556 S
C869 C260 1.575 . S
C885 C234 1.574 . S
C887 C273 1.574 1_554 S
C903 C286 1.574 . S
C905 C247 1.574 . S
C921 C403 1.575 . S
C923 C312 1.575 . S
C939 C325 1.575 1_554 S
C941 C364 1.575 . S
C957 C338 1.574 . S
C959 C377 1.574 1_556 S
C975 C390 1.574 . S
C977 C351 1.574 . S
C993 C8 1.216 . S
C995 C395 1.137 . S
C1011 C200 1.137 . S
C1013 C21 1.216 . S
C1029 C369 1.137 . S
C1031 C34 1.216 . S
C1047 C174 1.137 . S
C1049 C47 1.216 . S
C1065 C343 1.137 . S
C1067 C60 1.215 . S
C1083 C73 1.216 . S
C1085 C148 1.137 . S
C1101 C86 1.215 . S
C1103 C317 1.137 . S
C1119 C99 1.216 . S
C1121 C122 1.137 . S
C1137 C112 1.215 . S
C1139 C291 1.137 . S
C1155 C96 1.137 . S
C1157 C125 1.216 . S
C1173 C265 1.137 . S
C1175 C138 1.216 . S
C1191 C70 1.137 . S
C1193 C151 1.216 . S
C1209 C239 1.137 . S
C1211 C164 1.215 . S
C1227 C44 1.137 . S
C1229 C177 1.215 . S
C1245 C190 1.216 . S
C1247 C213 1.137 . S
C1263 C18 1.137 . S
C1265 C203 1.216 . S
C1281 C187 1.137 . S
C1283 C216 1.216 . S
C1299 C408 1.137 . S
C1301 C229 1.216 . S
C1317 C242 1.216 . S
C1319 C161 1.137 . S
C1335 C255 1.216 . S
C1337 C382 1.137 . S
C1353 C268 1.215 . S
C1355 C135 1.137 . S
C1371 C281 1.216 . S
C1373 C356 1.137 . S
C1389 C294 1.216 . S
C1391 C109 1.137 . S
C1407 C307 1.216 . S
C1409 C330 1.137 . S
C1425 C83 1.137 . S
C1427 C320 1.215 . S
C1443 C304 1.137 . S
C1445 C333 1.216 . S
C1461 C57 1.137 . S
C1463 C346 1.216 . S
C1479 C359 1.216 . S
C1481 C278 1.137 . S
C1497 C372 1.215 . S
C1499 C31 1.137 . S
C1515 C252 1.137 . S
C1517 C385 1.215 . S
C1533 C398 1.216 . S
C1535 C5 1.137 . S
C1551 C411 1.215 . S
C1553 C226 1.137 . S
