# Generated by pormake.
# Topology upb, (4)-cn, num edge types: 1
# Building blocks:
#     Node 0, Type 0, BuildingBlock: CEKHIL_clean_sbu_0, # of connection points: 4
#     Node 1, Type 0, BuildingBlock: CEKHIL_clean_sbu_0, # of connection points: 4
#     Node 2, Type 0, BuildingBlock: CEKHIL_clean_sbu_0, # of connection points: 4
#     Node 3, Type 0, BuildingBlock: CEKHIL_clean_sbu_0, # of connection points: 4
#     Node 4, Type 0, BuildingBlock: CEKHIL_clean_sbu_0, # of connection points: 4
#     Node 5, Type 0, BuildingBlock: CEKHIL_clean_sbu_0, # of connection points: 4
#     Node 6, Type 0, BuildingBlock: CEKHIL_clean_sbu_0, # of connection points: 4
#     Node 7, Type 0, BuildingBlock: CEKHIL_clean_sbu_0, # of connection points: 4
#     Node 8, Type 0, BuildingBlock: CEKHIL_clean_sbu_0, # of connection points: 4
#     Node 9, Type 0, BuildingBlock: CEKHIL_clean_sbu_0, # of connection points: 4
#     Node 10, Type 0, BuildingBlock: CEKHIL_clean_sbu_0, # of connection points: 4
#     Node 11, Type 0, BuildingBlock: CEKHIL_clean_sbu_0, # of connection points: 4
#     Node 12, Type 0, BuildingBlock: CEKHIL_clean_sbu_0, # of connection points: 4
#     Node 13, Type 0, BuildingBlock: CEKHIL_clean_sbu_0, # of connection points: 4
#     Node 14, Type 0, BuildingBlock: CEKHIL_clean_sbu_0, # of connection points: 4
#     Node 15, Type 0, BuildingBlock: CEKHIL_clean_sbu_0, # of connection points: 4
#     Edge 16, Type (0, 0), BuildingBlock: OJICUG_clean_linker_0, # of connection points: 2
#     Edge 17, Type (0, 0), BuildingBlock: OJICUG_clean_linker_0, # of connection points: 2
#     Edge 18, Type (0, 0), BuildingBlock: OJICUG_clean_linker_0, # of connection points: 2
#     Edge 19, Type (0, 0), BuildingBlock: OJICUG_clean_linker_0, # of connection points: 2
#     Edge 20, Type (0, 0), BuildingBlock: OJICUG_clean_linker_0, # of connection points: 2
#     Edge 21, Type (0, 0), BuildingBlock: OJICUG_clean_linker_0, # of connection points: 2
#     Edge 22, Type (0, 0), BuildingBlock: OJICUG_clean_linker_0, # of connection points: 2
#     Edge 23, Type (0, 0), BuildingBlock: OJICUG_clean_linker_0, # of connection points: 2
#     Edge 24, Type (0, 0), BuildingBlock: OJICUG_clean_linker_0, # of connection points: 2
#     Edge 25, Type (0, 0), BuildingBlock: OJICUG_clean_linker_0, # of connection points: 2
#     Edge 26, Type (0, 0), BuildingBlock: OJICUG_clean_linker_0, # of connection points: 2
#     Edge 27, Type (0, 0), BuildingBlock: OJICUG_clean_linker_0, # of connection points: 2
#     Edge 28, Type (0, 0), BuildingBlock: OJICUG_clean_linker_0, # of connection points: 2
#     Edge 29, Type (0, 0), BuildingBlock: OJICUG_clean_linker_0, # of connection points: 2
#     Edge 30, Type (0, 0), BuildingBlock: OJICUG_clean_linker_0, # of connection points: 2
#     Edge 31, Type (0, 0), BuildingBlock: OJICUG_clean_linker_0, # of connection points: 2
#     Edge 32, Type (0, 0), BuildingBlock: OJICUG_clean_linker_0, # of connection points: 2
#     Edge 33, Type (0, 0), BuildingBlock: OJICUG_clean_linker_0, # of connection points: 2
#     Edge 34, Type (0, 0), BuildingBlock: OJICUG_clean_linker_0, # of connection points: 2
#     Edge 35, Type (0, 0), BuildingBlock: OJICUG_clean_linker_0, # of connection points: 2
#     Edge 36, Type (0, 0), BuildingBlock: OJICUG_clean_linker_0, # of connection points: 2
#     Edge 37, Type (0, 0), BuildingBlock: OJICUG_clean_linker_0, # of connection points: 2
#     Edge 38, Type (0, 0), BuildingBlock: OJICUG_clean_linker_0, # of connection points: 2
#     Edge 39, Type (0, 0), BuildingBlock: OJICUG_clean_linker_0, # of connection points: 2
#     Edge 40, Type (0, 0), BuildingBlock: OJICUG_clean_linker_0, # of connection points: 2
#     Edge 41, Type (0, 0), BuildingBlock: OJICUG_clean_linker_0, # of connection points: 2
#     Edge 42, Type (0, 0), BuildingBlock: OJICUG_clean_linker_0, # of connection points: 2
#     Edge 43, Type (0, 0), BuildingBlock: OJICUG_clean_linker_0, # of connection points: 2
#     Edge 44, Type (0, 0), BuildingBlock: OJICUG_clean_linker_0, # of connection points: 2
#     Edge 45, Type (0, 0), BuildingBlock: OJICUG_clean_linker_0, # of connection points: 2
#     Edge 46, Type (0, 0), BuildingBlock: OJICUG_clean_linker_0, # of connection points: 2
#     Edge 47, Type (0, 0), BuildingBlock: OJICUG_clean_linker_0, # of connection points: 2
# Relax obj value: 0.214
# Max RMSD: 0.064
# Mean RMSD: 0.064
data_MOF--net-upb--node1-CEKHIL_clean_sbu_0--edge1-OJICUG_clean_linker_0
_symmetry_space_group_name_H-M    P1
_symmetry_Int_Tables_number       1
_symmetry_cell_setting            triclinic
loop_
_symmetry_equiv_pos_as_xyz
'x, y, z'
_cell_length_a     32.87746
_cell_length_b     32.875039
_cell_length_c     23.452045
_cell_angle_alpha  89.974563
_cell_angle_beta   89.964291
_cell_angle_gamma 90.015042
loop_
_atom_site_label
_atom_site_type_symbol
_atom_site_fract_x
_atom_site_fract_y
_atom_site_fract_z
_atom_type_partial_charge
Co0 Co 0.04725 0.22553 0.29105 0.0
O1 O 0.09711 0.25187 0.30995 0.0
O2 O 0.05933 0.26544 0.23335 0.0
C3 C 0.02292 0.23025 0.38018 0.0
O4 O -0.00714 0.20538 0.25957 0.0
Co5 Co 0.02164 0.14501 0.35085 0.0
O6 O 0.96728 0.16213 0.32459 0.0
C7 C 0.08445 0.14473 0.25976 0.0
C8 C 0.0912 0.27323 0.26435 0.0
C9 C 0.96328 0.18483 0.28101 0.0
O10 O 0.07842 0.18244 0.24807 0.0
O11 O 0.06669 0.12569 0.30038 0.0
O12 O 0.01891 0.26072 0.34532 0.0
O13 O 0.04254 0.19924 0.36097 0.0
Co14 Co 0.75963 0.04831 0.29454 0.0
O15 O 0.72865 0.09439 0.31768 0.0
O16 O 0.71898 0.05958 0.23751 0.0
C17 C 0.75668 0.01917 0.3809 0.0
O18 O 0.7848 -0.00249 0.25886 0.0
Co19 Co 0.84225 0.02962 0.35467 0.0
O20 O 0.83492 0.97639 0.31741 0.0
C21 C 0.83556 0.09676 0.27089 0.0
C22 C 0.70787 0.0889 0.27146 0.0
C23 C 0.81127 0.97113 0.27509 0.0
O24 O 0.7999 0.08532 0.25514 0.0
O25 O 0.85537 0.08056 0.31199 0.0
O26 O 0.72687 0.01425 0.34525 0.0
O27 O 0.78565 0.04276 0.36441 0.0
Co28 Co 0.9377 0.76079 0.29475 0.0
O29 O 0.88915 0.73319 0.31652 0.0
O30 O 0.92468 0.72074 0.23766 0.0
C31 C 0.96472 0.7562 0.38229 0.0
O32 O 0.99071 0.78221 0.26037 0.0
Co33 Co 0.96279 0.8417 0.35402 0.0
O34 O 0.01667 0.82647 0.32375 0.0
C35 C 0.89794 0.84092 0.26597 0.0
C36 C 0.89412 0.71179 0.27072 0.0
C37 C 0.02015 0.8038 0.28006 0.0
O38 O 0.90449 0.80338 0.25375 0.0
O39 O 0.91615 0.86018 0.30594 0.0
O40 O 0.96836 0.72599 0.34696 0.0
O41 O 0.94384 0.78682 0.36458 0.0
Co42 Co 0.22419 0.93895 0.293 0.0
O43 O 0.25494 0.89281 0.31649 0.0
O44 O 0.26496 0.92742 0.23618 0.0
C45 C 0.22714 0.96804 0.37941 0.0
O46 O 0.19922 0.98966 0.25673 0.0
Co47 Co 0.14169 0.9587 0.3527 0.0
O48 O 0.14978 0.01187 0.31557 0.0
C49 C 0.14747 0.89206 0.26783 0.0
C50 C 0.27589 0.89815 0.27035 0.0
C51 C 0.17317 0.01649 0.27279 0.0
O52 O 0.18386 0.90213 0.25356 0.0
O53 O 0.12742 0.90887 0.30824 0.0
O54 O 0.25696 0.97293 0.3437 0.0
O55 O 0.19802 0.9447 0.36283 0.0
Co56 Co 0.04804 0.75907 0.70096 0.0
O57 O 0.09555 0.73001 0.67856 0.0
O58 O 0.06024 0.7186 0.75791 0.0
C59 C 0.02018 0.75536 0.61383 0.0
O60 O -0.00407 0.78211 0.73594 0.0
Co61 Co 0.02564 0.84089 0.6415 0.0
O62 O 0.97177 0.82874 0.67433 0.0
C63 C 0.09132 0.83762 0.72811 0.0
C64 C 0.09028 0.70874 0.72444 0.0
C65 C 0.96761 0.80569 0.71755 0.0
O66 O 0.0829 0.80062 0.74141 0.0
O67 O 0.0739 0.85729 0.68785 0.0
O68 O 0.01591 0.72524 0.64922 0.0
O69 O 0.04223 0.78526 0.63117 0.0
Co70 Co 0.22494 0.04711 0.70009 0.0
O71 O 0.25392 0.09475 0.67782 0.0
O72 O 0.26591 0.05883 0.75645 0.0
C73 C 0.22789 0.02003 0.61244 0.0
O74 O 0.20219 -0.00522 0.73489 0.0
Co75 Co 0.14267 0.02484 0.64215 0.0
O76 O 0.15518 0.97074 0.67385 0.0
C77 C 0.14661 0.08993 0.72968 0.0
C78 C 0.27555 0.0891 0.72324 0.0
C79 C 0.17857 0.96645 0.71664 0.0
O80 O 0.18385 0.08175 0.74178 0.0
O81 O 0.12652 0.07255 0.6898 0.0
O82 O 0.25824 0.01538 0.64728 0.0
O83 O 0.19809 0.04186 0.63068 0.0
Co84 Co 0.93935 0.22536 0.69874 0.0
O85 O 0.89205 0.2545 0.67562 0.0
O86 O 0.92648 0.26551 0.75577 0.0
C87 C 0.96823 0.22955 0.61225 0.0
O88 O 0.99104 0.20224 0.73467 0.0
Co89 Co 0.96262 0.1439 0.63929 0.0
O90 O 0.01619 0.1563 0.67288 0.0
C91 C 0.89606 0.14651 0.72472 0.0
C92 C 0.89679 0.27552 0.72181 0.0
C93 C 0.01975 0.17905 0.71648 0.0
O94 O 0.90409 0.18356 0.73816 0.0
O95 O 0.91406 0.12698 0.68481 0.0
O96 O 0.97203 0.2595 0.64798 0.0
O97 O 0.94602 0.19953 0.62886 0.0
Co98 Co 0.76094 0.93689 0.70006 0.0
O99 O 0.7317 0.88928 0.67853 0.0
O100 O 0.72047 0.92519 0.75734 0.0
C101 C 0.75713 0.96405 0.61252 0.0
O102 O 0.78422 0.98926 0.73401 0.0
Co103 Co 0.84272 0.95852 0.63995 0.0
O104 O 0.83069 0.01276 0.67157 0.0
C105 C 0.83933 0.89353 0.72768 0.0
C106 C 0.71049 0.89493 0.72435 0.0
C107 C 0.80777 0.01739 0.71483 0.0
O108 O 0.8024 0.90223 0.74098 0.0
O109 O 0.859 0.91054 0.68704 0.0
O110 O 0.72711 0.96867 0.64797 0.0
O111 O 0.78701 0.94206 0.63006 0.0
Co112 Co 0.54767 0.72447 0.79561 0.0
O113 O 0.59538 0.75333 0.81789 0.0
O114 O 0.55978 0.76523 0.73901 0.0
C115 C 0.52017 0.72776 0.883 0.0
O116 O 0.49536 0.70182 0.76075 0.0
Co117 Co 0.52481 0.64245 0.85393 0.0
O118 O 0.47071 0.65579 0.82284 0.0
C119 C 0.58999 0.64574 0.76638 0.0
C120 C 0.58999 0.77486 0.77227 0.0
C121 C 0.46667 0.67886 0.77963 0.0
O122 O 0.58221 0.68309 0.75432 0.0
O123 O 0.57233 0.62576 0.80618 0.0
O124 O 0.51589 0.75807 0.84796 0.0
O125 O 0.542 0.69783 0.8652 0.0
Co126 Co 0.26087 0.54574 0.79341 0.0
O127 O 0.23143 0.59277 0.81695 0.0
O128 O 0.22025 0.55828 0.7369 0.0
C129 C 0.25761 0.51675 0.87989 0.0
O130 O 0.28421 0.49425 0.75717 0.0
Co131 Co 0.34302 0.5234 0.85185 0.0
O132 O 0.33135 0.46984 0.8178 0.0
C133 C 0.33898 0.59005 0.76672 0.0
C134 C 0.21022 0.58792 0.77095 0.0
C135 C 0.30815 0.46596 0.77473 0.0
O136 O 0.30203 0.58144 0.75348 0.0
O137 O 0.35891 0.57235 0.80649 0.0
O138 O 0.22744 0.5127 0.84459 0.0
O139 O 0.28725 0.53931 0.86291 0.0
Co140 Co 0.43826 0.25955 0.79341 0.0
O141 O 0.3904 0.23083 0.81533 0.0
O142 O 0.4265 0.21866 0.73691 0.0
C143 C 0.46502 0.25639 0.88124 0.0
O144 O 0.49081 0.2821 0.75903 0.0
Co145 Co 0.46069 0.34166 0.8517 0.0
O146 O 0.51489 0.32871 0.82063 0.0
C147 C 0.39601 0.33815 0.76356 0.0
C148 C 0.39608 0.20917 0.76994 0.0
C149 C 0.51923 0.30544 0.77773 0.0
O150 O 0.404 0.30085 0.75153 0.0
O151 O 0.41333 0.35814 0.80359 0.0
O152 O 0.46963 0.22603 0.84638 0.0
O153 O 0.4434 0.2863 0.8629 0.0
Co154 Co 0.72582 0.43765 0.79258 0.0
O155 O 0.75526 0.39041 0.81507 0.0
O156 O 0.76616 0.42552 0.7354 0.0
C157 C 0.72964 0.46587 0.87945 0.0
O158 O 0.70228 0.4895 0.75753 0.0
Co159 Co 0.644 0.45934 0.85261 0.0
O160 O 0.65533 0.51318 0.8191 0.0
C161 C 0.64765 0.39335 0.76653 0.0
C162 C 0.7763 0.39563 0.76898 0.0
C163 C 0.67832 0.51753 0.77584 0.0
O164 O 0.6844 0.40234 0.75262 0.0
O165 O 0.62803 0.41056 0.80703 0.0
O166 O 0.75962 0.4702 0.84384 0.0
O167 O 0.69988 0.44349 0.86251 0.0
Co168 Co 0.54742 0.26083 0.19996 0.0
O169 O 0.59332 0.22962 0.17672 0.0
O170 O 0.55886 0.22046 0.25737 0.0
C171 C 0.51809 0.25739 0.11375 0.0
O172 O 0.49704 0.28646 0.23615 0.0
Co173 Co 0.52785 0.34293 0.139 0.0
O174 O 0.47464 0.33512 0.17621 0.0
C175 C 0.59467 0.33753 0.22369 0.0
C176 C 0.58798 0.20909 0.22324 0.0
C177 C 0.47014 0.31228 0.2196 0.0
O178 O 0.58452 0.30129 0.23858 0.0
O179 O 0.57783 0.35731 0.18305 0.0
O180 O 0.51311 0.22784 0.14989 0.0
O181 O 0.54163 0.28648 0.1298 0.0
Co182 Co 0.72412 0.54877 0.19838 0.0
O183 O 0.75153 0.59758 0.17726 0.0
O184 O 0.76404 0.5616 0.25569 0.0
C185 C 0.72899 0.52224 0.11055 0.0
O186 O 0.70298 0.49545 0.23207 0.0
Co187 Co 0.64347 0.52353 0.13844 0.0
O188 O 0.65884 0.46959 0.16842 0.0
C189 C 0.6437 0.58789 0.22724 0.0
C190 C 0.77298 0.59234 0.22295 0.0
C191 C 0.68153 0.46602 0.21208 0.0
O192 O 0.68124 0.58147 0.23966 0.0
O193 O 0.62468 0.56985 0.1869 0.0
O194 O 0.75917 0.51859 0.14591 0.0
O195 O 0.69824 0.54288 0.12841 0.0
Co196 Co 0.43522 0.72492 0.20078 0.0
O197 O 0.38953 0.75635 0.17745 0.0
O198 O 0.42438 0.76585 0.25761 0.0
C199 C 0.46457 0.72737 0.11449 0.0
O200 O 0.4858 0.69933 0.23651 0.0
Co201 Co 0.45246 0.64186 0.14111 0.0
O202 O 0.50543 0.64764 0.17957 0.0
C203 C 0.38529 0.64992 0.22444 0.0
C204 C 0.39524 0.77721 0.22354 0.0
C205 C 0.51133 0.67176 0.2212 0.0
O206 O 0.39769 0.6852 0.24044 0.0
O207 O 0.40096 0.62987 0.18316 0.0
O208 O 0.46971 0.75718 0.1501 0.0
O209 O 0.44055 0.69873 0.13091 0.0
Co210 Co 0.26192 0.43762 0.20098 0.0
O211 O 0.23871 0.38678 0.17958 0.0
O212 O 0.22057 0.42283 0.25554 0.0
C213 C 0.2581 0.46272 0.11223 0.0
O214 O 0.2788 0.49253 0.2347 0.0
Co215 Co 0.34251 0.46753 0.14595 0.0
O216 O 0.32165 0.52074 0.17137 0.0
C217 C 0.34341 0.4038 0.23583 0.0
C218 C 0.21516 0.39095 0.22343 0.0
C219 C 0.29815 0.52331 0.21431 0.0
O220 O 0.30514 0.40782 0.2454 0.0
O221 O 0.36272 0.42308 0.19683 0.0
O222 O 0.22681 0.46497 0.1459 0.0
O223 O 0.28962 0.44434 0.13232 0.0
C224 C 0.10602 0.08702 0.20097 0.0
C225 C 0.11691 0.1222 0.23108 0.0
H226 H 0.11858 0.02387 0.18835 0.0
C227 C 0.15596 0.12495 0.25488 0.0
H228 H 0.07587 0.08422 0.18274 0.0
C229 C 0.18014 0.0901 0.25909 0.0
C230 C 0.16553 0.05284 0.23845 0.0
H231 H 0.16476 0.15177 0.27875 0.0
H232 H 0.20685 0.09098 0.28612 0.0
C233 C 0.13055 0.05243 0.20422 0.0
C234 C 0.92286 0.14846 0.21008 0.0
C235 C 0.9249 0.1801 0.25013 0.0
H236 H 0.88963 0.09567 0.1839 0.0
C237 C 0.88921 0.19245 0.27794 0.0
H238 H 0.95019 0.13825 0.18853 0.0
C239 C 0.85425 0.16843 0.27446 0.0
C240 C 0.85527 0.13174 0.24399 0.0
H241 H 0.89023 0.21661 0.30934 0.0
H242 H 0.82928 0.1748 0.30332 0.0
C243 C 0.88811 0.12402 0.20737 0.0
C244 C 0.80314 0.89737 0.26552 0.0
C245 C 0.81809 0.93381 0.2425 0.0
H246 H 0.81779 0.83605 0.28822 0.0
C247 C 0.85266 0.93273 0.20744 0.0
H248 H 0.77676 0.89768 0.29325 0.0
C249 C 0.87647 0.8976 0.20521 0.0
C250 C 0.86539 0.86341 0.23745 0.0
H251 H 0.86488 0.96065 0.18977 0.0
H252 H 0.90638 0.89936 0.18591 0.0
C253 C 0.8267 0.86203 0.26263 0.0
C254 C 0.05898 0.84155 0.2088 0.0
C255 C 0.0578 0.80906 0.24759 0.0
H256 H 0.09162 0.89489 0.18336 0.0
C257 C 0.09407 0.79614 0.2733 0.0
H258 H 0.03121 0.8522 0.18889 0.0
C259 C 0.12894 0.82027 0.26932 0.0
C260 C 0.12725 0.85759 0.24044 0.0
H261 H 0.09371 0.77132 0.30373 0.0
H262 H 0.15451 0.81333 0.29682 0.0
C263 C 0.09365 0.86605 0.20558 0.0
C264 C 0.16283 0.85744 0.72825 0.0
C265 C 0.12499 0.85891 0.75586 0.0
H266 H 0.21198 0.89295 0.69496 0.0
C267 C 0.11543 0.89278 0.78963 0.0
H268 H 0.17057 0.83168 0.70154 0.0
C269 C 0.13957 0.9277 0.78664 0.0
C270 C 0.17284 0.9289 0.74918 0.0
H271 H 0.08618 0.89463 0.81081 0.0
H272 H 0.12822 0.95552 0.80568 0.0
C273 C 0.18661 0.89258 0.72449 0.0
C274 C 0.09133 0.11452 0.79062 0.0
C275 C 0.12575 0.12376 0.75771 0.0
H276 H 0.02863 0.12821 0.80542 0.0
C277 C 0.12825 0.16181 0.73085 0.0
H278 H 0.08872 0.08514 0.81129 0.0
C279 C 0.09354 0.18615 0.72656 0.0
C280 C 0.05668 0.17274 0.7501 0.0
H281 H 0.15447 0.16934 0.70486 0.0
H282 H 0.09396 0.21173 0.69739 0.0
C283 C 0.05687 0.13926 0.78721 0.0
C284 C 0.82453 0.12641 0.72432 0.0
C285 C 0.8623 0.12495 0.752 0.0
H286 H 0.77507 0.091 0.69185 0.0
C287 C 0.87172 0.09121 0.78614 0.0
H288 H 0.81692 0.15205 0.69727 0.0
C289 C 0.84733 0.05644 0.78383 0.0
C290 C 0.81396 0.0552 0.74659 0.0
H291 H 0.90095 0.08936 0.80733 0.0
H292 H 0.85848 0.02869 0.80329 0.0
C293 C 0.80048 0.09142 0.72126 0.0
C294 C 0.89434 0.86963 0.78958 0.0
C295 C 0.86045 0.85996 0.75593 0.0
H296 H 0.95698 0.85664 0.80596 0.0
C297 C 0.85878 0.8219 0.72902 0.0
H298 H 0.89634 0.89904 0.81025 0.0
C299 C 0.89377 0.7979 0.72575 0.0
C300 C 0.93016 0.81171 0.7502 0.0
H301 H 0.83299 0.81406 0.70241 0.0
H302 H 0.89402 0.77228 0.69667 0.0
C303 C 0.92912 0.84527 0.78711 0.0
C304 C 0.66164 0.62633 0.76446 0.0
C305 C 0.62343 0.62448 0.738 0.0
H306 H 0.71159 0.59129 0.79622 0.0
C307 C 0.61367 0.5905 0.70457 0.0
H308 H 0.66955 0.65218 0.79089 0.0
C309 C 0.63817 0.55582 0.70679 0.0
C310 C 0.67198 0.55495 0.74324 0.0
H311 H 0.58414 0.58838 0.68426 0.0
H312 H 0.62679 0.5279 0.68812 0.0
C313 C 0.6858 0.59142 0.76747 0.0
C314 C 0.42839 0.64016 0.7089 0.0
C315 C 0.42918 0.67301 0.74705 0.0
H316 H 0.39605 0.58658 0.68379 0.0
C317 C 0.3927 0.68601 0.77213 0.0
H318 H 0.45635 0.62943 0.68954 0.0
C319 C 0.35788 0.66181 0.76799 0.0
C320 C 0.35984 0.6243 0.73963 0.0
H321 H 0.39277 0.71106 0.80216 0.0
H322 H 0.33205 0.66893 0.79495 0.0
C323 C 0.3938 0.61557 0.70556 0.0
C324 C 0.34799 0.4282 0.70477 0.0
C325 C 0.31422 0.42886 0.74137 0.0
H326 H 0.40194 0.39575 0.68168 0.0
C327 C 0.30028 0.39222 0.76499 0.0
H328 H 0.35942 0.45627 0.68652 0.0
C329 C 0.32434 0.35728 0.76137 0.0
C330 C 0.3626 0.35929 0.735 0.0
H331 H 0.27449 0.39218 0.7938 0.0
H332 H 0.31636 0.33125 0.78748 0.0
C333 C 0.37239 0.39349 0.70196 0.0
C334 C 0.5929 0.36861 0.70482 0.0
C335 C 0.62663 0.35941 0.73904 0.0
H336 H 0.53033 0.35537 0.68821 0.0
C337 C 0.62816 0.32173 0.76704 0.0
H338 H 0.591 0.39775 0.68334 0.0
C339 C 0.59315 0.29776 0.77064 0.0
C340 C 0.55689 0.31119 0.74543 0.0
H341 H 0.65382 0.31426 0.79409 0.0
H342 H 0.59275 0.27253 0.8004 0.0
C343 C 0.5581 0.34427 0.70764 0.0
C344 C 0.68989 0.39214 0.21789 0.0
C345 C 0.67662 0.42811 0.24407 0.0
H346 H 0.67338 0.3316 0.19393 0.0
C347 C 0.64428 0.42636 0.28307 0.0
H348 H 0.71459 0.39296 0.18729 0.0
C349 C 0.62025 0.39136 0.28619 0.0
C350 C 0.62901 0.35803 0.25094 0.0
H351 H 0.63336 0.45391 0.30333 0.0
H352 H 0.59148 0.3929 0.30868 0.0
C353 C 0.66623 0.35695 0.22173 0.0
C354 C 0.55113 0.63035 0.28729 0.0
C355 C 0.54905 0.66525 0.253 0.0
H356 H 0.58596 0.57736 0.30771 0.0
C357 C 0.58501 0.68132 0.22995 0.0
H358 H 0.5236 0.61726 0.30495 0.0
C359 C 0.62093 0.65859 0.23203 0.0
C360 C 0.62065 0.61967 0.2566 0.0
H361 H 0.58393 0.70796 0.20276 0.0
H362 H 0.64656 0.66836 0.20636 0.0
C363 C 0.58689 0.60747 0.28892 0.0
C364 C 0.31339 0.63188 0.22116 0.0
C365 C 0.35006 0.63082 0.25168 0.0
H366 H 0.2651 0.59598 0.18659 0.0
C367 C 0.35738 0.5983 0.28901 0.0
H368 H 0.30729 0.65665 0.19188 0.0
C369 C 0.33266 0.5637 0.28678 0.0
C370 C 0.30131 0.56143 0.24629 0.0
H371 H 0.38566 0.59678 0.31264 0.0
H372 H 0.34274 0.53649 0.30872 0.0
C373 C 0.28909 0.59708 0.21823 0.0
C374 C 0.36223 0.33197 0.24026 0.0
C375 C 0.36618 0.37108 0.26359 0.0
H376 H 0.39466 0.28026 0.2084 0.0
C377 C 0.40206 0.3814 0.29242 0.0
H378 H 0.33484 0.3236 0.21738 0.0
C379 C 0.43604 0.3561 0.28845 0.0
C380 C 0.43435 0.32096 0.25462 0.0
H381 H 0.40576 0.41157 0.3103 0.0
H382 H 0.46507 0.3675 0.30342 0.0
C383 C 0.3965 0.30707 0.23515 0.0
C384 C 0.15089 0.29675 0.21056 0.0
C385 C 0.11993 0.30501 0.24961 0.0
H386 H 0.20606 0.31752 0.17256 0.0
C387 C 0.12004 0.34144 0.28057 0.0
H388 H 0.15161 0.26813 0.18764 0.0
C389 C 0.1512 0.36967 0.27249 0.0
C390 C 0.18263 0.36133 0.23373 0.0
H391 H 0.09641 0.34769 0.3116 0.0
H392 H 0.15072 0.39782 0.29647 0.0
C393 C 0.18208 0.32478 0.20258 0.0
C394 C 0.65304 0.13509 0.30382 0.0
C395 C 0.6735 0.11558 0.25885 0.0
H396 H 0.60881 0.17982 0.32761 0.0
C397 C 0.66274 0.12408 0.2024 0.0
H398 H 0.66064 0.12852 0.34781 0.0
C399 C 0.63373 0.15385 0.19099 0.0
C400 C 0.61458 0.17467 0.23594 0.0
H401 H 0.67809 0.10925 0.1672 0.0
H402 H 0.62694 0.16124 0.14698 0.0
C403 C 0.62336 0.16419 0.29242 0.0
C404 C 0.82692 0.63952 0.19045 0.0
C405 C 0.80653 0.62004 0.23552 0.0
H406 H 0.87182 0.68359 0.16646 0.0
C407 C 0.81727 0.62864 0.29193 0.0
H408 H 0.81932 0.63283 0.14649 0.0
C409 C 0.84655 0.65818 0.30319 0.0
C410 C 0.86608 0.67854 0.25813 0.0
H411 H 0.80196 0.61379 0.32717 0.0
H412 H 0.85359 0.66545 0.34716 0.0
C413 C 0.85697 0.66827 0.2017 0.0
C414 C 0.32103 0.86254 0.20172 0.0
C415 C 0.31025 0.87137 0.25807 0.0
H416 H 0.35671 0.82493 0.14674 0.0
C417 C 0.33063 0.85205 0.30326 0.0
H418 H 0.30575 0.87723 0.16635 0.0
C419 C 0.36021 0.82278 0.29221 0.0
C420 C 0.36895 0.81194 0.23586 0.0
H421 H 0.323 0.85889 0.34718 0.0
H422 H 0.37466 0.80727 0.32757 0.0
C423 C 0.34993 0.83261 0.19067 0.0
C424 C 0.16575 0.62448 0.70247 0.0
C425 C 0.1764 0.61542 0.75879 0.0
H426 H 0.12996 0.66206 0.6476 0.0
C427 C 0.1561 0.63475 0.80405 0.0
H428 H 0.181 0.60981 0.66706 0.0
C429 C 0.12642 0.66395 0.79307 0.0
C430 C 0.11755 0.67477 0.73675 0.0
H431 H 0.16366 0.62777 0.84794 0.0
H432 H 0.11178 0.67926 0.82847 0.0
C433 C 0.13681 0.65439 0.6915 0.0
C434 C 0.35987 0.16457 0.70128 0.0
C435 C 0.3688 0.17523 0.75762 0.0
H436 H 0.32234 0.12873 0.64636 0.0
C437 C 0.34946 0.15487 0.80284 0.0
H438 H 0.37456 0.17988 0.66591 0.0
C439 C 0.32034 0.12513 0.79183 0.0
C440 C 0.30959 0.11628 0.73549 0.0
H441 H 0.35637 0.16246 0.84674 0.0
H442 H 0.305 0.11047 0.8272 0.0
C443 C 0.32999 0.13558 0.69026 0.0
C444 C 0.86056 0.32014 0.79047 0.0
C445 C 0.86928 0.30929 0.73411 0.0
H446 H 0.82338 0.3562 0.84554 0.0
C447 C 0.84975 0.32951 0.68895 0.0
H448 H 0.87541 0.30498 0.82581 0.0
C449 C 0.82069 0.3593 0.70007 0.0
C450 C 0.81022 0.36836 0.75646 0.0
H451 H 0.85649 0.32183 0.64502 0.0
H452 H 0.80521 0.37385 0.66476 0.0
C453 C 0.83079 0.3492 0.8016 0.0
C454 C 0.66615 0.85869 0.79356 0.0
C455 C 0.67648 0.86777 0.73711 0.0
H456 H 0.63049 0.82116 0.84882 0.0
C457 C 0.65572 0.84866 0.69211 0.0
H458 H 0.68178 0.87321 0.82877 0.0
C459 C 0.62592 0.81964 0.70342 0.0
C460 C 0.61739 0.80873 0.75982 0.0
H461 H 0.66303 0.85567 0.64812 0.0
H462 H 0.61095 0.8045 0.66817 0.0
C463 C 0.63709 0.8289 0.80486 0.0
C464 C 0.00222 0.2678 0.46818 0.0
C465 C 0.00818 0.23093 0.43918 0.0
H466 H 0.986 0.2963 0.54736 0.0
C467 C 0.00259 0.19404 0.46818 0.0
H468 H 0.00689 0.29662 0.44674 0.0
C469 C 0.99056 0.19386 0.52497 0.0
C470 C 0.98464 0.23056 0.55418 0.0
H471 H 0.00721 0.16518 0.44688 0.0
H472 H 0.98577 0.1649 0.54596 0.0
C473 C 0.9909 0.26761 0.5257 0.0
C474 C 0.71935 0.98532 0.52528 0.0
C475 C 0.75634 0.97951 0.55397 0.0
H476 H 0.69046 0.00121 0.44632 0.0
C477 C 0.79312 0.98539 0.52482 0.0
H478 H 0.69063 0.98038 0.54689 0.0
C479 C 0.79302 -0.00254 0.468 0.0
C480 C 0.75615 0.00297 0.43904 0.0
H481 H 0.82203 0.98088 0.54599 0.0
H482 H 0.82185 0.00245 0.44673 0.0
C483 C 0.71925 -0.00345 0.46779 0.0
C484 C -0.00232 0.71792 0.52678 0.0
C485 C 0.0042 0.75479 0.55555 0.0
H486 H 0.98117 0.68943 0.44775 0.0
C487 C -0.00131 0.79168 0.5266 0.0
H488 H 0.0023 0.6891 0.54821 0.0
C489 C 0.98651 0.79188 0.46989 0.0
C490 C 0.9804 0.75517 0.44073 0.0
H491 H 0.00372 0.82051 0.54781 0.0
H492 H 0.98201 0.82085 0.44883 0.0
C493 C 0.98624 0.71811 0.46935 0.0
C494 C 0.26525 -0.00017 0.52425 0.0
C495 C 0.2284 0.00525 0.55353 0.0
H496 H 0.29373 0.98505 0.44454 0.0
C497 C 0.19148 -0.00014 0.52462 0.0
H498 H 0.29408 0.00442 0.54566 0.0
C499 C 0.19129 0.98868 0.46746 0.0
C500 C 0.228 0.98355 0.43791 0.0
H501 H 0.16267 0.00411 0.54624 0.0
H502 H 0.16235 0.98404 0.44639 0.0
C503 C 0.26505 0.98946 0.46645 0.0
C504 C 0.49799 0.69136 0.97006 0.0
C505 C 0.50447 0.72826 0.94145 0.0
H506 H 0.4803 0.66233 0.04772 0.0
C507 C 0.49904 0.76513 0.97061 0.0
H508 H 0.50221 0.66254 0.94849 0.0
C509 C 0.48765 0.76497 0.02803 0.0
C510 C 0.48067 0.72796 0.05627 0.0
H511 H 0.50443 0.79393 0.94945 0.0
H512 H 0.48336 0.79368 0.04986 0.0
C513 C 0.48573 0.69122 0.02683 0.0
C514 C 0.29395 0.49551 0.96728 0.0
C515 C 0.2571 0.50041 0.93801 0.0
H516 H 0.32298 0.47982 0.04561 0.0
C517 C 0.22023 0.49323 0.96646 0.0
H518 H 0.32278 0.50102 0.94629 0.0
C519 C 0.22031 0.48204 0.02397 0.0
C520 C 0.25729 0.47714 0.0531 0.0
H521 H 0.19143 0.49732 0.94477 0.0
H522 H 0.19158 0.47669 0.04536 0.0
C523 C 0.29406 0.48362 0.02417 0.0
C524 C 0.49684 0.2931 0.02594 0.0
C525 C 0.50216 0.25642 0.05549 0.0
H526 H 0.48105 0.32165 0.94728 0.0
C527 C 0.49609 0.21934 0.0271 0.0
H528 H 0.50159 0.32207 0.0469 0.0
C529 C 0.48542 0.21908 0.96939 0.0
C530 C 0.47988 0.25591 0.94009 0.0
H531 H 0.50063 0.19068 0.04901 0.0
H532 H 0.48076 0.19023 0.94806 0.0
C533 C 0.48539 0.29285 0.9689 0.0
C534 C 0.6934 0.48772 0.96655 0.0
C535 C 0.73026 0.48216 0.93755 0.0
H536 H 0.6643 0.50465 0.04426 0.0
C537 C 0.76715 0.48893 0.96614 0.0
H538 H 0.66456 0.48251 0.94548 0.0
C539 C 0.76702 0.50062 0.02348 0.0
C540 C 0.72999 0.50648 0.05215 0.0
H541 H 0.79595 0.48427 0.94466 0.0
H542 H 0.79571 0.50584 0.04496 0.0
C543 C 0.69326 0.50015 0.02316 0.0
loop_
_geom_bond_atom_site_label_1
_geom_bond_atom_site_label_2
_geom_bond_distance
_geom_bond_site_symmetry_2
_ccdc_geom_bond_type
Co0 O1 2.216 . S
Co0 O2 2.091 . S
Co0 O4 2.004 1_455 S
Co0 O10 2.021 . S
Co0 O12 2.137 . S
Co0 O13 2.244 . S
O1 Co0 2.216 . S
O1 C8 1.247 . S
O2 Co0 2.091 . S
O2 C8 1.261 . S
C3 O12 1.247 . S
C3 O13 1.272 . S
O4 Co0 2.004 1_655 S
O4 C9 1.259 . S
Co5 O6 2.061 1_455 S
Co5 O11 2.052 . S
Co5 O13 2.135 . S
O6 Co5 2.061 1_655 S
O6 C9 1.235 . S
C7 O10 1.238 . S
C7 O11 1.241 . S
C8 O1 1.247 . S
C8 O2 1.261 . S
C9 O4 1.259 . S
C9 O6 1.235 . S
O10 Co0 2.021 . S
O10 C7 1.238 . S
O11 Co5 2.052 . S
O11 C7 1.241 . S
O12 Co0 2.137 . S
O12 C3 1.247 . S
O13 Co0 2.244 . S
O13 C3 1.272 . S
O13 Co5 2.135 . S
Co14 O15 2.216 . S
Co14 O16 2.091 . S
Co14 O18 2.004 1_545 S
Co14 O24 2.021 . S
Co14 O26 2.137 . S
Co14 O27 2.244 . S
O15 Co14 2.216 . S
O15 C22 1.247 . S
O16 Co14 2.091 . S
O16 C22 1.261 . S
C17 O26 1.247 . S
C17 O27 1.272 . S
O18 Co14 2.004 1_565 S
O18 C23 1.259 . S
Co19 O20 2.061 1_545 S
Co19 O25 2.052 . S
Co19 O27 2.135 . S
O20 Co19 2.061 1_565 S
O20 C23 1.235 . S
C21 O24 1.238 . S
C21 O25 1.241 . S
C22 O15 1.247 . S
C22 O16 1.261 . S
C23 O18 1.259 . S
C23 O20 1.235 . S
O24 Co14 2.021 . S
O24 C21 1.238 . S
O25 Co19 2.052 . S
O25 C21 1.241 . S
O26 Co14 2.137 . S
O26 C17 1.247 . S
O27 Co14 2.244 . S
O27 C17 1.272 . S
O27 Co19 2.135 . S
Co28 O29 2.216 . S
Co28 O30 2.091 . S
Co28 O32 2.004 1_655 S
Co28 O38 2.021 . S
Co28 O40 2.137 . S
Co28 O41 2.244 . S
O29 Co28 2.216 . S
O29 C36 1.247 . S
O30 Co28 2.091 . S
O30 C36 1.261 . S
C31 O40 1.247 . S
C31 O41 1.272 . S
O32 Co28 2.004 1_455 S
O32 C37 1.259 . S
Co33 O34 2.061 1_655 S
Co33 O39 2.052 . S
Co33 O41 2.135 . S
O34 Co33 2.061 1_455 S
O34 C37 1.235 . S
C35 O38 1.238 . S
C35 O39 1.241 . S
C36 O29 1.247 . S
C36 O30 1.261 . S
C37 O32 1.259 . S
C37 O34 1.235 . S
O38 Co28 2.021 . S
O38 C35 1.238 . S
O39 Co33 2.052 . S
O39 C35 1.241 . S
O40 Co28 2.137 . S
O40 C31 1.247 . S
O41 Co28 2.244 . S
O41 C31 1.272 . S
O41 Co33 2.135 . S
Co42 O43 2.216 . S
Co42 O44 2.091 . S
Co42 O46 2.004 1_565 S
Co42 O52 2.021 . S
Co42 O54 2.137 . S
Co42 O55 2.244 . S
O43 Co42 2.216 . S
O43 C50 1.247 . S
O44 Co42 2.091 . S
O44 C50 1.261 . S
C45 O54 1.247 . S
C45 O55 1.272 . S
O46 Co42 2.004 1_545 S
O46 C51 1.259 . S
Co47 O48 2.061 1_565 S
Co47 O53 2.052 . S
Co47 O55 2.135 . S
O48 Co47 2.061 1_545 S
O48 C51 1.235 . S
C49 O52 1.238 . S
C49 O53 1.241 . S
C50 O43 1.247 . S
C50 O44 1.261 . S
C51 O46 1.259 . S
C51 O48 1.235 . S
O52 Co42 2.021 . S
O52 C49 1.238 . S
O53 Co47 2.052 . S
O53 C49 1.241 . S
O54 Co42 2.137 . S
O54 C45 1.247 . S
O55 Co42 2.244 . S
O55 C45 1.272 . S
O55 Co47 2.135 . S
Co56 O57 2.216 . S
Co56 O58 2.091 . S
Co56 O60 2.004 1_455 S
Co56 O66 2.021 . S
Co56 O68 2.137 . S
Co56 O69 2.244 . S
O57 Co56 2.216 . S
O57 C64 1.247 . S
O58 Co56 2.091 . S
O58 C64 1.261 . S
C59 O68 1.247 . S
C59 O69 1.272 . S
O60 Co56 2.004 1_655 S
O60 C65 1.259 . S
Co61 O62 2.061 1_455 S
Co61 O67 2.052 . S
Co61 O69 2.135 . S
O62 Co61 2.061 1_655 S
O62 C65 1.235 . S
C63 O66 1.238 . S
C63 O67 1.241 . S
C64 O57 1.247 . S
C64 O58 1.261 . S
C65 O60 1.259 . S
C65 O62 1.235 . S
O66 Co56 2.021 . S
O66 C63 1.238 . S
O67 Co61 2.052 . S
O67 C63 1.241 . S
O68 Co56 2.137 . S
O68 C59 1.247 . S
O69 Co56 2.244 . S
O69 C59 1.272 . S
O69 Co61 2.135 . S
Co70 O71 2.216 . S
Co70 O72 2.091 . S
Co70 O74 2.004 1_545 S
Co70 O80 2.021 . S
Co70 O82 2.137 . S
Co70 O83 2.244 . S
O71 Co70 2.216 . S
O71 C78 1.247 . S
O72 Co70 2.091 . S
O72 C78 1.261 . S
C73 O82 1.247 . S
C73 O83 1.272 . S
O74 Co70 2.004 1_565 S
O74 C79 1.259 . S
Co75 O76 2.061 1_545 S
Co75 O81 2.052 . S
Co75 O83 2.135 . S
O76 Co75 2.061 1_565 S
O76 C79 1.235 . S
C77 O80 1.238 . S
C77 O81 1.241 . S
C78 O71 1.247 . S
C78 O72 1.261 . S
C79 O74 1.259 . S
C79 O76 1.235 . S
O80 Co70 2.021 . S
O80 C77 1.238 . S
O81 Co75 2.052 . S
O81 C77 1.241 . S
O82 Co70 2.137 . S
O82 C73 1.247 . S
O83 Co70 2.244 . S
O83 C73 1.272 . S
O83 Co75 2.135 . S
Co84 O85 2.216 . S
Co84 O86 2.091 . S
Co84 O88 2.004 1_655 S
Co84 O94 2.021 . S
Co84 O96 2.137 . S
Co84 O97 2.244 . S
O85 Co84 2.216 . S
O85 C92 1.247 . S
O86 Co84 2.091 . S
O86 C92 1.261 . S
C87 O96 1.247 . S
C87 O97 1.272 . S
O88 Co84 2.004 1_455 S
O88 C93 1.259 . S
Co89 O90 2.061 1_655 S
Co89 O95 2.052 . S
Co89 O97 2.135 . S
O90 Co89 2.061 1_455 S
O90 C93 1.235 . S
C91 O94 1.238 . S
C91 O95 1.241 . S
C92 O85 1.247 . S
C92 O86 1.261 . S
C93 O88 1.259 . S
C93 O90 1.235 . S
O94 Co84 2.021 . S
O94 C91 1.238 . S
O95 Co89 2.052 . S
O95 C91 1.241 . S
O96 Co84 2.137 . S
O96 C87 1.247 . S
O97 Co84 2.244 . S
O97 C87 1.272 . S
O97 Co89 2.135 . S
Co98 O99 2.216 . S
Co98 O100 2.091 . S
Co98 O102 2.004 1_565 S
Co98 O108 2.021 . S
Co98 O110 2.137 . S
Co98 O111 2.244 . S
O99 Co98 2.216 . S
O99 C106 1.247 . S
O100 Co98 2.091 . S
O100 C106 1.261 . S
C101 O110 1.247 . S
C101 O111 1.272 . S
O102 Co98 2.004 1_545 S
O102 C107 1.259 . S
Co103 O104 2.061 1_565 S
Co103 O109 2.052 . S
Co103 O111 2.135 . S
O104 Co103 2.061 1_545 S
O104 C107 1.235 . S
C105 O108 1.238 . S
C105 O109 1.241 . S
C106 O99 1.247 . S
C106 O100 1.261 . S
C107 O102 1.259 . S
C107 O104 1.235 . S
O108 Co98 2.021 . S
O108 C105 1.238 . S
O109 Co103 2.052 . S
O109 C105 1.241 . S
O110 Co98 2.137 . S
O110 C101 1.247 . S
O111 Co98 2.244 . S
O111 C101 1.272 . S
O111 Co103 2.135 . S
Co112 O113 2.216 . S
Co112 O114 2.091 . S
Co112 O116 2.004 . S
Co112 O122 2.021 . S
Co112 O124 2.137 . S
Co112 O125 2.244 . S
O113 Co112 2.216 . S
O113 C120 1.247 . S
O114 Co112 2.091 . S
O114 C120 1.261 . S
C115 O124 1.247 . S
C115 O125 1.272 . S
O116 Co112 2.004 . S
O116 C121 1.259 . S
Co117 O118 2.061 . S
Co117 O123 2.052 . S
Co117 O125 2.135 . S
O118 Co117 2.061 . S
O118 C121 1.235 . S
C119 O122 1.238 . S
C119 O123 1.241 . S
C120 O113 1.247 . S
C120 O114 1.261 . S
C121 O116 1.259 . S
C121 O118 1.235 . S
O122 Co112 2.021 . S
O122 C119 1.238 . S
O123 Co117 2.052 . S
O123 C119 1.241 . S
O124 Co112 2.137 . S
O124 C115 1.247 . S
O125 Co112 2.244 . S
O125 C115 1.272 . S
O125 Co117 2.135 . S
Co126 O127 2.216 . S
Co126 O128 2.091 . S
Co126 O130 2.004 . S
Co126 O136 2.021 . S
Co126 O138 2.137 . S
Co126 O139 2.244 . S
O127 Co126 2.216 . S
O127 C134 1.247 . S
O128 Co126 2.091 . S
O128 C134 1.261 . S
C129 O138 1.247 . S
C129 O139 1.272 . S
O130 Co126 2.004 . S
O130 C135 1.259 . S
Co131 O132 2.061 . S
Co131 O137 2.052 . S
Co131 O139 2.135 . S
O132 Co131 2.061 . S
O132 C135 1.235 . S
C133 O136 1.238 . S
C133 O137 1.241 . S
C134 O127 1.247 . S
C134 O128 1.261 . S
C135 O130 1.259 . S
C135 O132 1.235 . S
O136 Co126 2.021 . S
O136 C133 1.238 . S
O137 Co131 2.052 . S
O137 C133 1.241 . S
O138 Co126 2.137 . S
O138 C129 1.247 . S
O139 Co126 2.244 . S
O139 C129 1.272 . S
O139 Co131 2.135 . S
Co140 O141 2.216 . S
Co140 O142 2.091 . S
Co140 O144 2.004 . S
Co140 O150 2.021 . S
Co140 O152 2.137 . S
Co140 O153 2.244 . S
O141 Co140 2.216 . S
O141 C148 1.247 . S
O142 Co140 2.091 . S
O142 C148 1.261 . S
C143 O152 1.247 . S
C143 O153 1.272 . S
O144 Co140 2.004 . S
O144 C149 1.259 . S
Co145 O146 2.061 . S
Co145 O151 2.052 . S
Co145 O153 2.135 . S
O146 Co145 2.061 . S
O146 C149 1.235 . S
C147 O150 1.238 . S
C147 O151 1.241 . S
C148 O141 1.247 . S
C148 O142 1.261 . S
C149 O144 1.259 . S
C149 O146 1.235 . S
O150 Co140 2.021 . S
O150 C147 1.238 . S
O151 Co145 2.052 . S
O151 C147 1.241 . S
O152 Co140 2.137 . S
O152 C143 1.247 . S
O153 Co140 2.244 . S
O153 C143 1.272 . S
O153 Co145 2.135 . S
Co154 O155 2.216 . S
Co154 O156 2.091 . S
Co154 O158 2.004 . S
Co154 O164 2.021 . S
Co154 O166 2.137 . S
Co154 O167 2.244 . S
O155 Co154 2.216 . S
O155 C162 1.247 . S
O156 Co154 2.091 . S
O156 C162 1.261 . S
C157 O166 1.247 . S
C157 O167 1.272 . S
O158 Co154 2.004 . S
O158 C163 1.259 . S
Co159 O160 2.061 . S
Co159 O165 2.052 . S
Co159 O167 2.135 . S
O160 Co159 2.061 . S
O160 C163 1.235 . S
C161 O164 1.238 . S
C161 O165 1.241 . S
C162 O155 1.247 . S
C162 O156 1.261 . S
C163 O158 1.259 . S
C163 O160 1.235 . S
O164 Co154 2.021 . S
O164 C161 1.238 . S
O165 Co159 2.052 . S
O165 C161 1.241 . S
O166 Co154 2.137 . S
O166 C157 1.247 . S
O167 Co154 2.244 . S
O167 C157 1.272 . S
O167 Co159 2.135 . S
Co168 O169 2.216 . S
Co168 O170 2.091 . S
Co168 O172 2.004 . S
Co168 O178 2.021 . S
Co168 O180 2.137 . S
Co168 O181 2.244 . S
O169 Co168 2.216 . S
O169 C176 1.247 . S
O170 Co168 2.091 . S
O170 C176 1.261 . S
C171 O180 1.247 . S
C171 O181 1.272 . S
O172 Co168 2.004 . S
O172 C177 1.259 . S
Co173 O174 2.061 . S
Co173 O179 2.052 . S
Co173 O181 2.135 . S
O174 Co173 2.061 . S
O174 C177 1.235 . S
C175 O178 1.238 . S
C175 O179 1.241 . S
C176 O169 1.247 . S
C176 O170 1.261 . S
C177 O172 1.259 . S
C177 O174 1.235 . S
O178 Co168 2.021 . S
O178 C175 1.238 . S
O179 Co173 2.052 . S
O179 C175 1.241 . S
O180 Co168 2.137 . S
O180 C171 1.247 . S
O181 Co168 2.244 . S
O181 C171 1.272 . S
O181 Co173 2.135 . S
Co182 O183 2.216 . S
Co182 O184 2.091 . S
Co182 O186 2.004 . S
Co182 O192 2.021 . S
Co182 O194 2.137 . S
Co182 O195 2.244 . S
O183 Co182 2.216 . S
O183 C190 1.247 . S
O184 Co182 2.091 . S
O184 C190 1.261 . S
C185 O194 1.247 . S
C185 O195 1.272 . S
O186 Co182 2.004 . S
O186 C191 1.259 . S
Co187 O188 2.061 . S
Co187 O193 2.052 . S
Co187 O195 2.135 . S
O188 Co187 2.061 . S
O188 C191 1.235 . S
C189 O192 1.238 . S
C189 O193 1.241 . S
C190 O183 1.247 . S
C190 O184 1.261 . S
C191 O186 1.259 . S
C191 O188 1.235 . S
O192 Co182 2.021 . S
O192 C189 1.238 . S
O193 Co187 2.052 . S
O193 C189 1.241 . S
O194 Co182 2.137 . S
O194 C185 1.247 . S
O195 Co182 2.244 . S
O195 C185 1.272 . S
O195 Co187 2.135 . S
Co196 O197 2.216 . S
Co196 O198 2.091 . S
Co196 O200 2.004 . S
Co196 O206 2.021 . S
Co196 O208 2.137 . S
Co196 O209 2.244 . S
O197 Co196 2.216 . S
O197 C204 1.247 . S
O198 Co196 2.091 . S
O198 C204 1.261 . S
C199 O208 1.247 . S
C199 O209 1.272 . S
O200 Co196 2.004 . S
O200 C205 1.259 . S
Co201 O202 2.061 . S
Co201 O207 2.052 . S
Co201 O209 2.135 . S
O202 Co201 2.061 . S
O202 C205 1.235 . S
C203 O206 1.238 . S
C203 O207 1.241 . S
C204 O197 1.247 . S
C204 O198 1.261 . S
C205 O200 1.259 . S
C205 O202 1.235 . S
O206 Co196 2.021 . S
O206 C203 1.238 . S
O207 Co201 2.052 . S
O207 C203 1.241 . S
O208 Co196 2.137 . S
O208 C199 1.247 . S
O209 Co196 2.244 . S
O209 C199 1.272 . S
O209 Co201 2.135 . S
Co210 O211 2.216 . S
Co210 O212 2.091 . S
Co210 O214 2.004 . S
Co210 O220 2.021 . S
Co210 O222 2.137 . S
Co210 O223 2.244 . S
O211 Co210 2.216 . S
O211 C218 1.247 . S
O212 Co210 2.091 . S
O212 C218 1.261 . S
C213 O222 1.247 . S
C213 O223 1.272 . S
O214 Co210 2.004 . S
O214 C219 1.259 . S
Co215 O216 2.061 . S
Co215 O221 2.052 . S
Co215 O223 2.135 . S
O216 Co215 2.061 . S
O216 C219 1.235 . S
C217 O220 1.238 . S
C217 O221 1.241 . S
C218 O211 1.247 . S
C218 O212 1.261 . S
C219 O214 1.259 . S
C219 O216 1.235 . S
O220 Co210 2.021 . S
O220 C217 1.238 . S
O221 Co215 2.052 . S
O221 C217 1.241 . S
O222 Co210 2.137 . S
O222 C213 1.247 . S
O223 Co210 2.244 . S
O223 C213 1.272 . S
O223 Co215 2.135 . S
C224 C225 1.387 . S
C224 H228 0.950 . S
C224 C233 1.390 . S
C225 C224 1.387 . S
C225 C227 1.387 . S
H226 C233 0.950 . S
C227 C225 1.387 . S
C227 C229 1.390 . S
C227 H231 0.950 . S
H228 C224 0.950 . S
C229 C227 1.390 . S
C229 C230 1.387 . S
C229 H232 0.950 . S
C230 C229 1.387 . S
C230 C233 1.387 . S
H231 C227 0.950 . S
H232 C229 0.950 . S
C233 C224 1.390 . S
C233 H226 0.950 . S
C233 C230 1.387 . S
C234 C235 1.387 . S
C234 H238 0.950 . S
C234 C243 1.390 . S
C235 C234 1.387 . S
C235 C237 1.387 . S
H236 C243 0.950 . S
C237 C235 1.387 . S
C237 C239 1.390 . S
C237 H241 0.950 . S
H238 C234 0.950 . S
C239 C237 1.390 . S
C239 C240 1.387 . S
C239 H242 0.950 . S
C240 C239 1.387 . S
C240 C243 1.387 . S
H241 C237 0.950 . S
H242 C239 0.950 . S
C243 C234 1.390 . S
C243 H236 0.950 . S
C243 C240 1.387 . S
C244 C245 1.387 . S
C244 H248 0.950 . S
C244 C253 1.390 . S
C245 C244 1.387 . S
C245 C247 1.387 . S
H246 C253 0.950 . S
C247 C245 1.387 . S
C247 C249 1.390 . S
C247 H251 0.950 . S
H248 C244 0.950 . S
C249 C247 1.390 . S
C249 C250 1.387 . S
C249 H252 0.950 . S
C250 C249 1.387 . S
C250 C253 1.387 . S
H251 C247 0.950 . S
H252 C249 0.950 . S
C253 C244 1.390 . S
C253 H246 0.950 . S
C253 C250 1.387 . S
C254 C255 1.387 . S
C254 H258 0.950 . S
C254 C263 1.390 . S
C255 C254 1.387 . S
C255 C257 1.387 . S
H256 C263 0.950 . S
C257 C255 1.387 . S
C257 C259 1.390 . S
C257 H261 0.950 . S
H258 C254 0.950 . S
C259 C257 1.390 . S
C259 C260 1.387 . S
C259 H262 0.950 . S
C260 C259 1.387 . S
C260 C263 1.387 . S
H261 C257 0.950 . S
H262 C259 0.950 . S
C263 C254 1.390 . S
C263 H256 0.950 . S
C263 C260 1.387 . S
C264 C265 1.387 . S
C264 H268 0.950 . S
C264 C273 1.390 . S
C265 C264 1.387 . S
C265 C267 1.387 . S
H266 C273 0.950 . S
C267 C265 1.387 . S
C267 C269 1.390 . S
C267 H271 0.950 . S
H268 C264 0.950 . S
C269 C267 1.390 . S
C269 C270 1.387 . S
C269 H272 0.950 . S
C270 C269 1.387 . S
C270 C273 1.387 . S
H271 C267 0.950 . S
H272 C269 0.950 . S
C273 C264 1.390 . S
C273 H266 0.950 . S
C273 C270 1.387 . S
C274 C275 1.387 . S
C274 H278 0.950 . S
C274 C283 1.390 . S
C275 C274 1.387 . S
C275 C277 1.387 . S
H276 C283 0.950 . S
C277 C275 1.387 . S
C277 C279 1.390 . S
C277 H281 0.950 . S
H278 C274 0.950 . S
C279 C277 1.390 . S
C279 C280 1.387 . S
C279 H282 0.950 . S
C280 C279 1.387 . S
C280 C283 1.387 . S
H281 C277 0.950 . S
H282 C279 0.950 . S
C283 C274 1.390 . S
C283 H276 0.950 . S
C283 C280 1.387 . S
C284 C285 1.387 . S
C284 H288 0.950 . S
C284 C293 1.390 . S
C285 C284 1.387 . S
C285 C287 1.387 . S
H286 C293 0.950 . S
C287 C285 1.387 . S
C287 C289 1.390 . S
C287 H291 0.950 . S
H288 C284 0.950 . S
C289 C287 1.390 . S
C289 C290 1.387 . S
C289 H292 0.950 . S
C290 C289 1.387 . S
C290 C293 1.387 . S
H291 C287 0.950 . S
H292 C289 0.950 . S
C293 C284 1.390 . S
C293 H286 0.950 . S
C293 C290 1.387 . S
C294 C295 1.387 . S
C294 H298 0.950 . S
C294 C303 1.390 . S
C295 C294 1.387 . S
C295 C297 1.387 . S
H296 C303 0.950 . S
C297 C295 1.387 . S
C297 C299 1.390 . S
C297 H301 0.950 . S
H298 C294 0.950 . S
C299 C297 1.390 . S
C299 C300 1.387 . S
C299 H302 0.950 . S
C300 C299 1.387 . S
C300 C303 1.387 . S
H301 C297 0.950 . S
H302 C299 0.950 . S
C303 C294 1.390 . S
C303 H296 0.950 . S
C303 C300 1.387 . S
C304 C305 1.387 . S
C304 H308 0.950 . S
C304 C313 1.390 . S
C305 C304 1.387 . S
C305 C307 1.387 . S
H306 C313 0.950 . S
C307 C305 1.387 . S
C307 C309 1.390 . S
C307 H311 0.950 . S
H308 C304 0.950 . S
C309 C307 1.390 . S
C309 C310 1.387 . S
C309 H312 0.950 . S
C310 C309 1.387 . S
C310 C313 1.387 . S
H311 C307 0.950 . S
H312 C309 0.950 . S
C313 C304 1.390 . S
C313 H306 0.950 . S
C313 C310 1.387 . S
C314 C315 1.387 . S
C314 H318 0.950 . S
C314 C323 1.390 . S
C315 C314 1.387 . S
C315 C317 1.387 . S
H316 C323 0.950 . S
C317 C315 1.387 . S
C317 C319 1.390 . S
C317 H321 0.950 . S
H318 C314 0.950 . S
C319 C317 1.390 . S
C319 C320 1.387 . S
C319 H322 0.950 . S
C320 C319 1.387 . S
C320 C323 1.387 . S
H321 C317 0.950 . S
H322 C319 0.950 . S
C323 C314 1.390 . S
C323 H316 0.950 . S
C323 C320 1.387 . S
C324 C325 1.387 . S
C324 H328 0.950 . S
C324 C333 1.390 . S
C325 C324 1.387 . S
C325 C327 1.387 . S
H326 C333 0.950 . S
C327 C325 1.387 . S
C327 C329 1.390 . S
C327 H331 0.950 . S
H328 C324 0.950 . S
C329 C327 1.390 . S
C329 C330 1.387 . S
C329 H332 0.950 . S
C330 C329 1.387 . S
C330 C333 1.387 . S
H331 C327 0.950 . S
H332 C329 0.950 . S
C333 C324 1.390 . S
C333 H326 0.950 . S
C333 C330 1.387 . S
C334 C335 1.387 . S
C334 H338 0.950 . S
C334 C343 1.390 . S
C335 C334 1.387 . S
C335 C337 1.387 . S
H336 C343 0.950 . S
C337 C335 1.387 . S
C337 C339 1.390 . S
C337 H341 0.950 . S
H338 C334 0.950 . S
C339 C337 1.390 . S
C339 C340 1.387 . S
C339 H342 0.950 . S
C340 C339 1.387 . S
C340 C343 1.387 . S
H341 C337 0.950 . S
H342 C339 0.950 . S
C343 C334 1.390 . S
C343 H336 0.950 . S
C343 C340 1.387 . S
C344 C345 1.387 . S
C344 H348 0.950 . S
C344 C353 1.390 . S
C345 C344 1.387 . S
C345 C347 1.387 . S
H346 C353 0.950 . S
C347 C345 1.387 . S
C347 C349 1.390 . S
C347 H351 0.950 . S
H348 C344 0.950 . S
C349 C347 1.390 . S
C349 C350 1.387 . S
C349 H352 0.950 . S
C350 C349 1.387 . S
C350 C353 1.387 . S
H351 C347 0.950 . S
H352 C349 0.950 . S
C353 C344 1.390 . S
C353 H346 0.950 . S
C353 C350 1.387 . S
C354 C355 1.387 . S
C354 H358 0.950 . S
C354 C363 1.390 . S
C355 C354 1.387 . S
C355 C357 1.387 . S
H356 C363 0.950 . S
C357 C355 1.387 . S
C357 C359 1.390 . S
C357 H361 0.950 . S
H358 C354 0.950 . S
C359 C357 1.390 . S
C359 C360 1.387 . S
C359 H362 0.950 . S
C360 C359 1.387 . S
C360 C363 1.387 . S
H361 C357 0.950 . S
H362 C359 0.950 . S
C363 C354 1.390 . S
C363 H356 0.950 . S
C363 C360 1.387 . S
C364 C365 1.387 . S
C364 H368 0.950 . S
C364 C373 1.390 . S
C365 C364 1.387 . S
C365 C367 1.387 . S
H366 C373 0.950 . S
C367 C365 1.387 . S
C367 C369 1.390 . S
C367 H371 0.950 . S
H368 C364 0.950 . S
C369 C367 1.390 . S
C369 C370 1.387 . S
C369 H372 0.950 . S
C370 C369 1.387 . S
C370 C373 1.387 . S
H371 C367 0.950 . S
H372 C369 0.950 . S
C373 C364 1.390 . S
C373 H366 0.950 . S
C373 C370 1.387 . S
C374 C375 1.387 . S
C374 H378 0.950 . S
C374 C383 1.390 . S
C375 C374 1.387 . S
C375 C377 1.387 . S
H376 C383 0.950 . S
C377 C375 1.387 . S
C377 C379 1.390 . S
C377 H381 0.950 . S
H378 C374 0.950 . S
C379 C377 1.390 . S
C379 C380 1.387 . S
C379 H382 0.950 . S
C380 C379 1.387 . S
C380 C383 1.387 . S
H381 C377 0.950 . S
H382 C379 0.950 . S
C383 C374 1.390 . S
C383 H376 0.950 . S
C383 C380 1.387 . S
C384 C385 1.387 . S
C384 H388 0.950 . S
C384 C393 1.390 . S
C385 C384 1.387 . S
C385 C387 1.387 . S
H386 C393 0.950 . S
C387 C385 1.387 . S
C387 C389 1.390 . S
C387 H391 0.950 . S
H388 C384 0.950 . S
C389 C387 1.390 . S
C389 C390 1.387 . S
C389 H392 0.950 . S
C390 C389 1.387 . S
C390 C393 1.387 . S
H391 C387 0.950 . S
H392 C389 0.950 . S
C393 C384 1.390 . S
C393 H386 0.950 . S
C393 C390 1.387 . S
C394 C395 1.387 . S
C394 H398 0.950 . S
C394 C403 1.390 . S
C395 C394 1.387 . S
C395 C397 1.387 . S
H396 C403 0.950 . S
C397 C395 1.387 . S
C397 C399 1.390 . S
C397 H401 0.950 . S
H398 C394 0.950 . S
C399 C397 1.390 . S
C399 C400 1.387 . S
C399 H402 0.950 . S
C400 C399 1.387 . S
C400 C403 1.387 . S
H401 C397 0.950 . S
H402 C399 0.950 . S
C403 C394 1.390 . S
C403 H396 0.950 . S
C403 C400 1.387 . S
C404 C405 1.387 . S
C404 H408 0.950 . S
C404 C413 1.390 . S
C405 C404 1.387 . S
C405 C407 1.387 . S
H406 C413 0.950 . S
C407 C405 1.387 . S
C407 C409 1.390 . S
C407 H411 0.950 . S
H408 C404 0.950 . S
C409 C407 1.390 . S
C409 C410 1.387 . S
C409 H412 0.950 . S
C410 C409 1.387 . S
C410 C413 1.387 . S
H411 C407 0.950 . S
H412 C409 0.950 . S
C413 C404 1.390 . S
C413 H406 0.950 . S
C413 C410 1.387 . S
C414 C415 1.387 . S
C414 H418 0.950 . S
C414 C423 1.390 . S
C415 C414 1.387 . S
C415 C417 1.387 . S
H416 C423 0.950 . S
C417 C415 1.387 . S
C417 C419 1.390 . S
C417 H421 0.950 . S
H418 C414 0.950 . S
C419 C417 1.390 . S
C419 C420 1.387 . S
C419 H422 0.950 . S
C420 C419 1.387 . S
C420 C423 1.387 . S
H421 C417 0.950 . S
H422 C419 0.950 . S
C423 C414 1.390 . S
C423 H416 0.950 . S
C423 C420 1.387 . S
C424 C425 1.387 . S
C424 H428 0.950 . S
C424 C433 1.390 . S
C425 C424 1.387 . S
C425 C427 1.387 . S
H426 C433 0.950 . S
C427 C425 1.387 . S
C427 C429 1.390 . S
C427 H431 0.950 . S
H428 C424 0.950 . S
C429 C427 1.390 . S
C429 C430 1.387 . S
C429 H432 0.950 . S
C430 C429 1.387 . S
C430 C433 1.387 . S
H431 C427 0.950 . S
H432 C429 0.950 . S
C433 C424 1.390 . S
C433 H426 0.950 . S
C433 C430 1.387 . S
C434 C435 1.387 . S
C434 H438 0.950 . S
C434 C443 1.390 . S
C435 C434 1.387 . S
C435 C437 1.387 . S
H436 C443 0.950 . S
C437 C435 1.387 . S
C437 C439 1.390 . S
C437 H441 0.950 . S
H438 C434 0.950 . S
C439 C437 1.390 . S
C439 C440 1.387 . S
C439 H442 0.950 . S
C440 C439 1.387 . S
C440 C443 1.387 . S
H441 C437 0.950 . S
H442 C439 0.950 . S
C443 C434 1.390 . S
C443 H436 0.950 . S
C443 C440 1.387 . S
C444 C445 1.387 . S
C444 H448 0.950 . S
C444 C453 1.390 . S
C445 C444 1.387 . S
C445 C447 1.387 . S
H446 C453 0.950 . S
C447 C445 1.387 . S
C447 C449 1.390 . S
C447 H451 0.950 . S
H448 C444 0.950 . S
C449 C447 1.390 . S
C449 C450 1.387 . S
C449 H452 0.950 . S
C450 C449 1.387 . S
C450 C453 1.387 . S
H451 C447 0.950 . S
H452 C449 0.950 . S
C453 C444 1.390 . S
C453 H446 0.950 . S
C453 C450 1.387 . S
C454 C455 1.387 . S
C454 H458 0.950 . S
C454 C463 1.390 . S
C455 C454 1.387 . S
C455 C457 1.387 . S
H456 C463 0.950 . S
C457 C455 1.387 . S
C457 C459 1.390 . S
C457 H461 0.950 . S
H458 C454 0.950 . S
C459 C457 1.390 . S
C459 C460 1.387 . S
C459 H462 0.950 . S
C460 C459 1.387 . S
C460 C463 1.387 . S
H461 C457 0.950 . S
H462 C459 0.950 . S
C463 C454 1.390 . S
C463 H456 0.950 . S
C463 C460 1.387 . S
C464 C465 1.387 . S
C464 H468 0.950 . S
C464 C473 1.390 1_455 S
C465 C464 1.387 . S
C465 C467 1.387 . S
H466 C473 0.950 . S
C467 C465 1.387 . S
C467 C469 1.390 1_455 S
C467 H471 0.950 . S
H468 C464 0.950 . S
C469 C467 1.390 1_655 S
C469 C470 1.387 . S
C469 H472 0.950 . S
C470 C469 1.387 . S
C470 C473 1.387 . S
H471 C467 0.950 . S
H472 C469 0.950 . S
C473 C464 1.390 1_655 S
C473 H466 0.950 . S
C473 C470 1.387 . S
C474 C475 1.387 . S
C474 H478 0.950 . S
C474 C483 1.390 1_565 S
C475 C474 1.387 . S
C475 C477 1.387 . S
H476 C483 0.950 . S
C477 C475 1.387 . S
C477 C479 1.390 1_565 S
C477 H481 0.950 . S
H478 C474 0.950 . S
C479 C477 1.390 1_545 S
C479 C480 1.387 . S
C479 H482 0.950 . S
C480 C479 1.387 . S
C480 C483 1.387 . S
H481 C477 0.950 . S
H482 C479 0.950 . S
C483 C474 1.390 1_545 S
C483 H476 0.950 . S
C483 C480 1.387 . S
C484 C485 1.387 . S
C484 H488 0.950 . S
C484 C493 1.390 1_455 S
C485 C484 1.387 . S
C485 C487 1.387 . S
H486 C493 0.950 . S
C487 C485 1.387 . S
C487 C489 1.390 1_455 S
C487 H491 0.950 . S
H488 C484 0.950 . S
C489 C487 1.390 1_655 S
C489 C490 1.387 . S
C489 H492 0.950 . S
C490 C489 1.387 . S
C490 C493 1.387 . S
H491 C487 0.950 . S
H492 C489 0.950 . S
C493 C484 1.390 1_655 S
C493 H486 0.950 . S
C493 C490 1.387 . S
C494 C495 1.387 . S
C494 H498 0.950 . S
C494 C503 1.390 1_545 S
C495 C494 1.387 . S
C495 C497 1.387 . S
H496 C503 0.950 . S
C497 C495 1.387 . S
C497 C499 1.390 1_545 S
C497 H501 0.950 . S
H498 C494 0.950 . S
C499 C497 1.390 1_565 S
C499 C500 1.387 . S
C499 H502 0.950 . S
C500 C499 1.387 . S
C500 C503 1.387 . S
H501 C497 0.950 . S
H502 C499 0.950 . S
C503 C494 1.390 1_565 S
C503 H496 0.950 . S
C503 C500 1.387 . S
C504 C505 1.387 . S
C504 H508 0.950 . S
C504 C513 1.390 1_556 S
C505 C504 1.387 . S
C505 C507 1.387 . S
H506 C513 0.950 . S
C507 C505 1.387 . S
C507 C509 1.390 1_556 S
C507 H511 0.950 . S
H508 C504 0.950 . S
C509 C507 1.390 1_554 S
C509 C510 1.387 . S
C509 H512 0.950 . S
C510 C509 1.387 . S
C510 C513 1.387 . S
H511 C507 0.950 . S
H512 C509 0.950 . S
C513 C504 1.390 1_554 S
C513 H506 0.950 . S
C513 C510 1.387 . S
C514 C515 1.387 . S
C514 H518 0.950 . S
C514 C523 1.390 1_556 S
C515 C514 1.387 . S
C515 C517 1.387 . S
H516 C523 0.950 . S
C517 C515 1.387 . S
C517 C519 1.390 1_556 S
C517 H521 0.950 . S
H518 C514 0.950 . S
C519 C517 1.390 1_554 S
C519 C520 1.387 . S
C519 H522 0.950 . S
C520 C519 1.387 . S
C520 C523 1.387 . S
H521 C517 0.950 . S
H522 C519 0.950 . S
C523 C514 1.390 1_554 S
C523 H516 0.950 . S
C523 C520 1.387 . S
C524 C525 1.387 . S
C524 H528 0.950 . S
C524 C533 1.390 1_554 S
C525 C524 1.387 . S
C525 C527 1.387 . S
H526 C533 0.950 . S
C527 C525 1.387 . S
C527 C529 1.390 1_554 S
C527 H531 0.950 . S
H528 C524 0.950 . S
C529 C527 1.390 1_556 S
C529 C530 1.387 . S
C529 H532 0.950 . S
C530 C529 1.387 . S
C530 C533 1.387 . S
H531 C527 0.950 . S
H532 C529 0.950 . S
C533 C524 1.390 1_556 S
C533 H526 0.950 . S
C533 C530 1.387 . S
C534 C535 1.387 . S
C534 H538 0.950 . S
C534 C543 1.390 1_556 S
C535 C534 1.387 . S
C535 C537 1.387 . S
H536 C543 0.950 . S
C537 C535 1.387 . S
C537 C539 1.390 1_556 S
C537 H541 0.950 . S
H538 C534 0.950 . S
C539 C537 1.390 1_554 S
C539 C540 1.387 . S
C539 H542 0.950 . S
C540 C539 1.387 . S
C540 C543 1.387 . S
H541 C537 0.950 . S
H542 C539 0.950 . S
C543 C534 1.390 1_554 S
C543 H536 0.950 . S
C543 C540 1.387 . S
C225 C7 1.498 . S
C230 C51 1.451 . S
C235 C9 1.451 . S
C240 C21 1.498 . S
C245 C23 1.449 . S
C250 C35 1.499 . S
C255 C37 1.451 . S
C260 C49 1.498 . S
C265 C63 1.499 . S
C270 C79 1.449 . S
C275 C77 1.498 . S
C280 C93 1.451 . S
C285 C91 1.499 . S
C290 C107 1.449 . S
C295 C105 1.497 . S
C300 C65 1.451 . S
C305 C119 1.499 . S
C310 C163 1.449 . S
C315 C121 1.451 . S
C320 C133 1.498 . S
C325 C135 1.451 . S
C330 C147 1.497 . S
C335 C161 1.498 . S
C340 C149 1.451 . S
C345 C191 1.449 . S
C350 C175 1.499 . S
C355 C205 1.451 . S
C360 C189 1.498 . S
C365 C203 1.499 . S
C370 C219 1.449 . S
C375 C217 1.499 . S
C380 C177 1.449 . S
C385 C8 1.392 . S
C390 C218 1.392 . S
C395 C22 1.393 . S
C400 C176 1.393 . S
C405 C190 1.394 . S
C410 C36 1.393 . S
C415 C50 1.393 . S
C420 C204 1.394 . S
C425 C134 1.393 . S
C430 C64 1.393 . S
C435 C148 1.393 . S
C440 C78 1.394 . S
C445 C92 1.394 . S
C450 C162 1.394 . S
C455 C106 1.393 . S
C460 C120 1.394 . S
C465 C3 1.633 . S
C470 C87 1.633 . S
C475 C101 1.633 . S
C480 C17 1.633 . S
C485 C59 1.633 . S
C490 C31 1.633 . S
C495 C73 1.633 . S
C500 C45 1.633 . S
C505 C115 1.634 . S
C510 C199 1.634 . S
C515 C129 1.634 . S
C520 C213 1.634 . S
C525 C171 1.634 . S
C530 C143 1.634 . S
C535 C157 1.634 . S
C540 C185 1.634 . S
