# Generated by pormake.
# Topology wna, (6)-cn, num edge types: 1
# Building blocks:
#     Node 0, Type 0, BuildingBlock: CIFDUS_clean_sbu_1, # of connection points: 6
#     Node 1, Type 0, BuildingBlock: CIFDUS_clean_sbu_1, # of connection points: 6
#     Node 2, Type 0, BuildingBlock: CIFDUS_clean_sbu_1, # of connection points: 6
#     Node 3, Type 0, BuildingBlock: CIFDUS_clean_sbu_1, # of connection points: 6
#     Node 4, Type 0, BuildingBlock: CIFDUS_clean_sbu_1, # of connection points: 6
#     Node 5, Type 0, BuildingBlock: CIFDUS_clean_sbu_1, # of connection points: 6
#     Node 6, Type 0, BuildingBlock: CIFDUS_clean_sbu_1, # of connection points: 6
#     Node 7, Type 0, BuildingBlock: CIFDUS_clean_sbu_1, # of connection points: 6
#     Node 8, Type 0, BuildingBlock: CIFDUS_clean_sbu_1, # of connection points: 6
#     Node 9, Type 0, BuildingBlock: CIFDUS_clean_sbu_1, # of connection points: 6
#     Node 10, Type 0, BuildingBlock: CIFDUS_clean_sbu_1, # of connection points: 6
#     Node 11, Type 0, BuildingBlock: CIFDUS_clean_sbu_1, # of connection points: 6
#     Node 12, Type 0, BuildingBlock: CIFDUS_clean_sbu_1, # of connection points: 6
#     Node 13, Type 0, BuildingBlock: CIFDUS_clean_sbu_1, # of connection points: 6
#     Node 14, Type 0, BuildingBlock: CIFDUS_clean_sbu_1, # of connection points: 6
#     Node 15, Type 0, BuildingBlock: CIFDUS_clean_sbu_1, # of connection points: 6
#     Node 16, Type 0, BuildingBlock: CIFDUS_clean_sbu_1, # of connection points: 6
#     Node 17, Type 0, BuildingBlock: CIFDUS_clean_sbu_1, # of connection points: 6
#     Node 18, Type 0, BuildingBlock: CIFDUS_clean_sbu_1, # of connection points: 6
#     Node 19, Type 0, BuildingBlock: CIFDUS_clean_sbu_1, # of connection points: 6
#     Node 20, Type 0, BuildingBlock: CIFDUS_clean_sbu_1, # of connection points: 6
#     Node 21, Type 0, BuildingBlock: CIFDUS_clean_sbu_1, # of connection points: 6
#     Node 22, Type 0, BuildingBlock: CIFDUS_clean_sbu_1, # of connection points: 6
#     Node 23, Type 0, BuildingBlock: CIFDUS_clean_sbu_1, # of connection points: 6
#     Node 24, Type 0, BuildingBlock: CIFDUS_clean_sbu_1, # of connection points: 6
#     Node 25, Type 0, BuildingBlock: CIFDUS_clean_sbu_1, # of connection points: 6
#     Node 26, Type 0, BuildingBlock: CIFDUS_clean_sbu_1, # of connection points: 6
#     Node 27, Type 0, BuildingBlock: CIFDUS_clean_sbu_1, # of connection points: 6
#     Node 28, Type 0, BuildingBlock: CIFDUS_clean_sbu_1, # of connection points: 6
#     Node 29, Type 0, BuildingBlock: CIFDUS_clean_sbu_1, # of connection points: 6
#     Node 30, Type 0, BuildingBlock: CIFDUS_clean_sbu_1, # of connection points: 6
#     Node 31, Type 0, BuildingBlock: CIFDUS_clean_sbu_1, # of connection points: 6
#     Node 32, Type 0, BuildingBlock: CIFDUS_clean_sbu_1, # of connection points: 6
#     Node 33, Type 0, BuildingBlock: CIFDUS_clean_sbu_1, # of connection points: 6
#     Node 34, Type 0, BuildingBlock: CIFDUS_clean_sbu_1, # of connection points: 6
#     Node 35, Type 0, BuildingBlock: CIFDUS_clean_sbu_1, # of connection points: 6
#     Edge 36, Type (0, 0), BuildingBlock: OJICUG_clean_linker_0, # of connection points: 2
#     Edge 37, Type (0, 0), BuildingBlock: OJICUG_clean_linker_0, # of connection points: 2
#     Edge 38, Type (0, 0), BuildingBlock: OJICUG_clean_linker_0, # of connection points: 2
#     Edge 39, Type (0, 0), BuildingBlock: OJICUG_clean_linker_0, # of connection points: 2
#     Edge 40, Type (0, 0), BuildingBlock: OJICUG_clean_linker_0, # of connection points: 2
#     Edge 41, Type (0, 0), BuildingBlock: OJICUG_clean_linker_0, # of connection points: 2
#     Edge 42, Type (0, 0), BuildingBlock: OJICUG_clean_linker_0, # of connection points: 2
#     Edge 43, Type (0, 0), BuildingBlock: OJICUG_clean_linker_0, # of connection points: 2
#     Edge 44, Type (0, 0), BuildingBlock: OJICUG_clean_linker_0, # of connection points: 2
#     Edge 45, Type (0, 0), BuildingBlock: OJICUG_clean_linker_0, # of connection points: 2
#     Edge 46, Type (0, 0), BuildingBlock: OJICUG_clean_linker_0, # of connection points: 2
#     Edge 47, Type (0, 0), BuildingBlock: OJICUG_clean_linker_0, # of connection points: 2
#     Edge 48, Type (0, 0), BuildingBlock: OJICUG_clean_linker_0, # of connection points: 2
#     Edge 49, Type (0, 0), BuildingBlock: OJICUG_clean_linker_0, # of connection points: 2
#     Edge 50, Type (0, 0), BuildingBlock: OJICUG_clean_linker_0, # of connection points: 2
#     Edge 51, Type (0, 0), BuildingBlock: OJICUG_clean_linker_0, # of connection points: 2
#     Edge 52, Type (0, 0), BuildingBlock: OJICUG_clean_linker_0, # of connection points: 2
#     Edge 53, Type (0, 0), BuildingBlock: OJICUG_clean_linker_0, # of connection points: 2
#     Edge 54, Type (0, 0), BuildingBlock: OJICUG_clean_linker_0, # of connection points: 2
#     Edge 55, Type (0, 0), BuildingBlock: OJICUG_clean_linker_0, # of connection points: 2
#     Edge 56, Type (0, 0), BuildingBlock: OJICUG_clean_linker_0, # of connection points: 2
#     Edge 57, Type (0, 0), BuildingBlock: OJICUG_clean_linker_0, # of connection points: 2
#     Edge 58, Type (0, 0), BuildingBlock: OJICUG_clean_linker_0, # of connection points: 2
#     Edge 59, Type (0, 0), BuildingBlock: OJICUG_clean_linker_0, # of connection points: 2
#     Edge 60, Type (0, 0), BuildingBlock: OJICUG_clean_linker_0, # of connection points: 2
#     Edge 61, Type (0, 0), BuildingBlock: OJICUG_clean_linker_0, # of connection points: 2
#     Edge 62, Type (0, 0), BuildingBlock: OJICUG_clean_linker_0, # of connection points: 2
#     Edge 63, Type (0, 0), BuildingBlock: OJICUG_clean_linker_0, # of connection points: 2
#     Edge 64, Type (0, 0), BuildingBlock: OJICUG_clean_linker_0, # of connection points: 2
#     Edge 65, Type (0, 0), BuildingBlock: OJICUG_clean_linker_0, # of connection points: 2
#     Edge 66, Type (0, 0), BuildingBlock: OJICUG_clean_linker_0, # of connection points: 2
#     Edge 67, Type (0, 0), BuildingBlock: OJICUG_clean_linker_0, # of connection points: 2
#     Edge 68, Type (0, 0), BuildingBlock: OJICUG_clean_linker_0, # of connection points: 2
#     Edge 69, Type (0, 0), BuildingBlock: OJICUG_clean_linker_0, # of connection points: 2
#     Edge 70, Type (0, 0), BuildingBlock: OJICUG_clean_linker_0, # of connection points: 2
#     Edge 71, Type (0, 0), BuildingBlock: OJICUG_clean_linker_0, # of connection points: 2
#     Edge 72, Type (0, 0), BuildingBlock: OJICUG_clean_linker_0, # of connection points: 2
#     Edge 73, Type (0, 0), BuildingBlock: OJICUG_clean_linker_0, # of connection points: 2
#     Edge 74, Type (0, 0), BuildingBlock: OJICUG_clean_linker_0, # of connection points: 2
#     Edge 75, Type (0, 0), BuildingBlock: OJICUG_clean_linker_0, # of connection points: 2
#     Edge 76, Type (0, 0), BuildingBlock: OJICUG_clean_linker_0, # of connection points: 2
#     Edge 77, Type (0, 0), BuildingBlock: OJICUG_clean_linker_0, # of connection points: 2
#     Edge 78, Type (0, 0), BuildingBlock: OJICUG_clean_linker_0, # of connection points: 2
#     Edge 79, Type (0, 0), BuildingBlock: OJICUG_clean_linker_0, # of connection points: 2
#     Edge 80, Type (0, 0), BuildingBlock: OJICUG_clean_linker_0, # of connection points: 2
#     Edge 81, Type (0, 0), BuildingBlock: OJICUG_clean_linker_0, # of connection points: 2
#     Edge 82, Type (0, 0), BuildingBlock: OJICUG_clean_linker_0, # of connection points: 2
#     Edge 83, Type (0, 0), BuildingBlock: OJICUG_clean_linker_0, # of connection points: 2
#     Edge 84, Type (0, 0), BuildingBlock: OJICUG_clean_linker_0, # of connection points: 2
#     Edge 85, Type (0, 0), BuildingBlock: OJICUG_clean_linker_0, # of connection points: 2
#     Edge 86, Type (0, 0), BuildingBlock: OJICUG_clean_linker_0, # of connection points: 2
#     Edge 87, Type (0, 0), BuildingBlock: OJICUG_clean_linker_0, # of connection points: 2
#     Edge 88, Type (0, 0), BuildingBlock: OJICUG_clean_linker_0, # of connection points: 2
#     Edge 89, Type (0, 0), BuildingBlock: OJICUG_clean_linker_0, # of connection points: 2
#     Edge 90, Type (0, 0), BuildingBlock: OJICUG_clean_linker_0, # of connection points: 2
#     Edge 91, Type (0, 0), BuildingBlock: OJICUG_clean_linker_0, # of connection points: 2
#     Edge 92, Type (0, 0), BuildingBlock: OJICUG_clean_linker_0, # of connection points: 2
#     Edge 93, Type (0, 0), BuildingBlock: OJICUG_clean_linker_0, # of connection points: 2
#     Edge 94, Type (0, 0), BuildingBlock: OJICUG_clean_linker_0, # of connection points: 2
#     Edge 95, Type (0, 0), BuildingBlock: OJICUG_clean_linker_0, # of connection points: 2
#     Edge 96, Type (0, 0), BuildingBlock: OJICUG_clean_linker_0, # of connection points: 2
#     Edge 97, Type (0, 0), BuildingBlock: OJICUG_clean_linker_0, # of connection points: 2
#     Edge 98, Type (0, 0), BuildingBlock: OJICUG_clean_linker_0, # of connection points: 2
#     Edge 99, Type (0, 0), BuildingBlock: OJICUG_clean_linker_0, # of connection points: 2
#     Edge 100, Type (0, 0), BuildingBlock: OJICUG_clean_linker_0, # of connection points: 2
#     Edge 101, Type (0, 0), BuildingBlock: OJICUG_clean_linker_0, # of connection points: 2
#     Edge 102, Type (0, 0), BuildingBlock: OJICUG_clean_linker_0, # of connection points: 2
#     Edge 103, Type (0, 0), BuildingBlock: OJICUG_clean_linker_0, # of connection points: 2
#     Edge 104, Type (0, 0), BuildingBlock: OJICUG_clean_linker_0, # of connection points: 2
#     Edge 105, Type (0, 0), BuildingBlock: OJICUG_clean_linker_0, # of connection points: 2
#     Edge 106, Type (0, 0), BuildingBlock: OJICUG_clean_linker_0, # of connection points: 2
#     Edge 107, Type (0, 0), BuildingBlock: OJICUG_clean_linker_0, # of connection points: 2
#     Edge 108, Type (0, 0), BuildingBlock: OJICUG_clean_linker_0, # of connection points: 2
#     Edge 109, Type (0, 0), BuildingBlock: OJICUG_clean_linker_0, # of connection points: 2
#     Edge 110, Type (0, 0), BuildingBlock: OJICUG_clean_linker_0, # of connection points: 2
#     Edge 111, Type (0, 0), BuildingBlock: OJICUG_clean_linker_0, # of connection points: 2
#     Edge 112, Type (0, 0), BuildingBlock: OJICUG_clean_linker_0, # of connection points: 2
#     Edge 113, Type (0, 0), BuildingBlock: OJICUG_clean_linker_0, # of connection points: 2
#     Edge 114, Type (0, 0), BuildingBlock: OJICUG_clean_linker_0, # of connection points: 2
#     Edge 115, Type (0, 0), BuildingBlock: OJICUG_clean_linker_0, # of connection points: 2
#     Edge 116, Type (0, 0), BuildingBlock: OJICUG_clean_linker_0, # of connection points: 2
#     Edge 117, Type (0, 0), BuildingBlock: OJICUG_clean_linker_0, # of connection points: 2
#     Edge 118, Type (0, 0), BuildingBlock: OJICUG_clean_linker_0, # of connection points: 2
#     Edge 119, Type (0, 0), BuildingBlock: OJICUG_clean_linker_0, # of connection points: 2
#     Edge 120, Type (0, 0), BuildingBlock: OJICUG_clean_linker_0, # of connection points: 2
#     Edge 121, Type (0, 0), BuildingBlock: OJICUG_clean_linker_0, # of connection points: 2
#     Edge 122, Type (0, 0), BuildingBlock: OJICUG_clean_linker_0, # of connection points: 2
#     Edge 123, Type (0, 0), BuildingBlock: OJICUG_clean_linker_0, # of connection points: 2
#     Edge 124, Type (0, 0), BuildingBlock: OJICUG_clean_linker_0, # of connection points: 2
#     Edge 125, Type (0, 0), BuildingBlock: OJICUG_clean_linker_0, # of connection points: 2
#     Edge 126, Type (0, 0), BuildingBlock: OJICUG_clean_linker_0, # of connection points: 2
#     Edge 127, Type (0, 0), BuildingBlock: OJICUG_clean_linker_0, # of connection points: 2
#     Edge 128, Type (0, 0), BuildingBlock: OJICUG_clean_linker_0, # of connection points: 2
#     Edge 129, Type (0, 0), BuildingBlock: OJICUG_clean_linker_0, # of connection points: 2
#     Edge 130, Type (0, 0), BuildingBlock: OJICUG_clean_linker_0, # of connection points: 2
#     Edge 131, Type (0, 0), BuildingBlock: OJICUG_clean_linker_0, # of connection points: 2
#     Edge 132, Type (0, 0), BuildingBlock: OJICUG_clean_linker_0, # of connection points: 2
#     Edge 133, Type (0, 0), BuildingBlock: OJICUG_clean_linker_0, # of connection points: 2
#     Edge 134, Type (0, 0), BuildingBlock: OJICUG_clean_linker_0, # of connection points: 2
#     Edge 135, Type (0, 0), BuildingBlock: OJICUG_clean_linker_0, # of connection points: 2
#     Edge 136, Type (0, 0), BuildingBlock: OJICUG_clean_linker_0, # of connection points: 2
#     Edge 137, Type (0, 0), BuildingBlock: OJICUG_clean_linker_0, # of connection points: 2
#     Edge 138, Type (0, 0), BuildingBlock: OJICUG_clean_linker_0, # of connection points: 2
#     Edge 139, Type (0, 0), BuildingBlock: OJICUG_clean_linker_0, # of connection points: 2
#     Edge 140, Type (0, 0), BuildingBlock: OJICUG_clean_linker_0, # of connection points: 2
#     Edge 141, Type (0, 0), BuildingBlock: OJICUG_clean_linker_0, # of connection points: 2
#     Edge 142, Type (0, 0), BuildingBlock: OJICUG_clean_linker_0, # of connection points: 2
#     Edge 143, Type (0, 0), BuildingBlock: OJICUG_clean_linker_0, # of connection points: 2
# Relax obj value: 0.247
# Max RMSD: 0.221
# Mean RMSD: 0.221
data_MOF--net-wna--node1-CIFDUS_clean_sbu_1--edge1-OJICUG_clean_linker_0
_symmetry_space_group_name_H-M    P1
_symmetry_Int_Tables_number       1
_symmetry_cell_setting            triclinic
loop_
_symmetry_equiv_pos_as_xyz
'x, y, z'
_cell_length_a     30.014658
_cell_length_b     30.01479
_cell_length_c     63.345968
_cell_angle_alpha  89.998041
_cell_angle_beta   89.998896
_cell_angle_gamma 119.99759
loop_
_atom_site_label
_atom_site_type_symbol
_atom_site_fract_x
_atom_site_fract_y
_atom_site_fract_z
_atom_type_partial_charge
O0 O 0.11264 0.18149 0.18932 0.0
Mn1 Mn 0.10418 0.24607 0.19148 0.0
O2 O 0.16032 0.18415 0.21731 0.0
Mn3 Mn 0.17239 0.24711 0.2282 0.0
O4 O 0.09587 0.31122 0.1943 0.0
O5 O 0.03631 0.20559 0.17624 0.0
Mn6 Mn 0.03015 0.24476 0.15723 0.0
O7 O 0.14375 0.27444 0.16226 0.0
O8 O 0.03084 0.29757 0.17252 0.0
O9 O 0.06428 0.22082 0.22075 0.0
O10 O 0.12347 0.24412 0.24635 0.0
O11 O 0.97169 0.18136 0.15479 0.0
O12 O 0.08353 0.26367 0.13832 0.0
C13 C 0.21959 0.31596 0.21039 0.0
C14 C 0.13441 0.16226 0.20067 0.0
C15 C 0.0632 0.32305 0.18699 0.0
C16 C 0.9923 0.16855 0.16982 0.0
C17 C 0.12976 0.27721 0.1432 0.0
C18 C 0.07743 0.22776 0.24047 0.0
O19 O 0.17202 0.28359 0.20636 0.0
O20 O 0.23686 0.3048 0.2271 0.0
O21 O 0.82168 0.93183 0.18929 0.0
Mn22 Mn 0.7571 0.85879 0.19146 0.0
O23 O 0.819 0.97685 0.21728 0.0
Mn24 Mn 0.75604 0.92598 0.22817 0.0
O25 O 0.69196 0.78533 0.19429 0.0
O26 O 0.79759 0.8314 0.17623 0.0
Mn27 Mn 0.75844 0.78606 0.15722 0.0
O28 O 0.72874 0.86997 0.16223 0.0
O29 O 0.70563 0.73394 0.17252 0.0
O30 O 0.78234 0.84415 0.22074 0.0
O31 O 0.75903 0.88005 0.24633 0.0
O32 O 0.82185 0.79102 0.15479 0.0
O33 O 0.73953 0.82052 0.1383 0.0
C34 C 0.68719 0.90431 0.21035 0.0
C35 C 0.8409 0.97283 0.20064 0.0
C36 C 0.68014 0.74082 0.18699 0.0
C37 C 0.83464 0.82443 0.16982 0.0
C38 C 0.72598 0.8532 0.14318 0.0
C39 C 0.77539 0.85038 0.24045 0.0
O40 O 0.71956 0.8891 0.20634 0.0
O41 O 0.69834 0.93275 0.22706 0.0
O42 O 0.07135 0.89052 0.18931 0.0
Mn43 Mn 0.1444 0.89898 0.19148 0.0
O44 O 0.02631 0.84281 0.21729 0.0
Mn45 Mn 0.07719 0.83074 0.22819 0.0
O46 O 0.21785 0.90731 0.19431 0.0
O47 O 0.17178 0.96686 0.17625 0.0
Mn48 Mn 0.21713 0.97306 0.15724 0.0
O49 O 0.13322 0.85945 0.16226 0.0
O50 O 0.26924 0.97237 0.17254 0.0
O51 O 0.15902 0.93886 0.22076 0.0
O52 O 0.1231 0.87965 0.24635 0.0
O53 O 0.21216 0.03151 0.15481 0.0
O54 O 0.18267 0.91969 0.13833 0.0
C55 C 0.09886 0.78355 0.21038 0.0
C56 C 0.03034 0.86874 0.20066 0.0
C57 C 0.26236 0.93999 0.18701 0.0
C58 C 0.17874 0.01088 0.16984 0.0
C59 C 0.15 0.87346 0.1432 0.0
C60 C 0.15278 0.92569 0.24047 0.0
O61 O 0.11408 0.83113 0.20636 0.0
O62 O 0.07043 0.76627 0.22709 0.0
O63 O 0.18196 0.11199 0.35902 0.0
Mn64 Mn 0.24659 0.1036 0.3568 0.0
O65 O 0.18442 0.15952 0.33101 0.0
Mn66 Mn 0.24735 0.17164 0.32007 0.0
O67 O 0.31176 0.09537 0.35391 0.0
O68 O 0.20624 0.03575 0.37207 0.0
Mn69 Mn 0.24553 0.02965 0.39104 0.0
O70 O 0.27505 0.14322 0.386 0.0
O71 O 0.29829 0.03038 0.37569 0.0
O72 O 0.22126 0.06362 0.32755 0.0
O73 O 0.24438 0.12273 0.30193 0.0
O74 O 0.18215 0.97117 0.39353 0.0
O75 O 0.26448 0.08305 0.40994 0.0
C76 C 0.31629 0.21897 0.3378 0.0
C77 C 0.16264 0.13367 0.34767 0.0
C78 C 0.32368 0.06274 0.3612 0.0
C79 C 0.16925 0.99175 0.37852 0.0
C80 C 0.27794 0.12926 0.40506 0.0
C81 C 0.22813 0.07672 0.30783 0.0
O82 O 0.28398 0.17141 0.34188 0.0
O83 O 0.30498 0.23615 0.3211 0.0
O84 O 0.89112 0.07067 0.35901 0.0
Mn85 Mn 0.8995 0.14368 0.35679 0.0
O86 O 0.84357 0.02558 0.33101 0.0
Mn87 Mn 0.83144 0.07639 0.32006 0.0
O88 O 0.90772 0.21708 0.35389 0.0
O89 O 0.96735 0.17118 0.37205 0.0
Mn90 Mn 0.97345 0.21658 0.39101 0.0
O91 O 0.85988 0.13252 0.38599 0.0
O92 O 0.97271 0.2686 0.37566 0.0
O93 O 0.93947 0.15831 0.32753 0.0
O94 O 0.88036 0.12232 0.30191 0.0
O95 O 0.03194 0.21169 0.3935 0.0
O96 O 0.92006 0.18213 0.40992 0.0
C97 C 0.78413 0.09801 0.3378 0.0
C98 C 0.86943 0.02965 0.34766 0.0
C99 C 0.94035 0.26162 0.36117 0.0
C100 C 0.01137 0.1782 0.37849 0.0
C101 C 0.87385 0.14938 0.40504 0.0
C102 C 0.92636 0.15207 0.30781 0.0
O103 O 0.83169 0.11326 0.34187 0.0
O104 O 0.76694 0.06953 0.3211 0.0
O105 O 0.93245 0.82118 0.35901 0.0
Mn106 Mn 0.85945 0.75654 0.35679 0.0
O107 O 0.97756 0.81876 0.33101 0.0
Mn108 Mn 0.92677 0.75582 0.32007 0.0
O109 O 0.78606 0.69136 0.35389 0.0
O110 O 0.83192 0.79687 0.37205 0.0
Mn111 Mn 0.78652 0.75757 0.39102 0.0
O112 O 0.8706 0.72808 0.38599 0.0
O113 O 0.73451 0.7048 0.37566 0.0
O114 O 0.84481 0.78188 0.32753 0.0
O115 O 0.88084 0.75879 0.30191 0.0
O116 O 0.79139 0.82093 0.3935 0.0
O117 O 0.82097 0.73862 0.40992 0.0
C118 C 0.90517 0.68688 0.33779 0.0
C119 C 0.97347 0.84052 0.34767 0.0
C120 C 0.74151 0.67942 0.36117 0.0
C121 C 0.82489 0.83385 0.37849 0.0
C122 C 0.85373 0.72517 0.40504 0.0
C123 C 0.85106 0.77502 0.30781 0.0
O124 O 0.8899 0.71918 0.34187 0.0
O125 O 0.93367 0.6982 0.3211 0.0
O126 O 0.89121 0.82107 0.85867 0.0
Mn127 Mn 0.89966 0.75647 0.85651 0.0
O128 O 0.84353 0.81841 0.83069 0.0
Mn129 Mn 0.83144 0.75545 0.81979 0.0
O130 O 0.90796 0.69133 0.85368 0.0
O131 O 0.96754 0.79695 0.87174 0.0
Mn132 Mn 0.9737 0.75778 0.89075 0.0
O133 O 0.8601 0.72812 0.88573 0.0
O134 O 0.97301 0.70497 0.87545 0.0
O135 O 0.93955 0.78172 0.82723 0.0
O136 O 0.88036 0.75843 0.80164 0.0
O137 O 0.03216 0.82118 0.89319 0.0
O138 O 0.92032 0.73887 0.90966 0.0
C139 C 0.78424 0.68661 0.8376 0.0
C140 C 0.86944 0.8403 0.84732 0.0
C141 C 0.94064 0.67949 0.86098 0.0
C142 C 0.01155 0.83398 0.87816 0.0
C143 C 0.8741 0.72534 0.90479 0.0
C144 C 0.92639 0.77478 0.80752 0.0
O145 O 0.83182 0.71896 0.84162 0.0
O146 O 0.76697 0.69777 0.82089 0.0
O147 O 0.18215 0.07071 0.85868 0.0
Mn148 Mn 0.24673 0.14377 0.85652 0.0
O149 O 0.18484 0.02569 0.8307 0.0
Mn150 Mn 0.2478 0.07657 0.81981 0.0
O151 O 0.31186 0.21722 0.85369 0.0
O152 O 0.20622 0.17115 0.87174 0.0
Mn153 Mn 0.24538 0.2165 0.89075 0.0
O154 O 0.27508 0.13259 0.88574 0.0
O155 O 0.29818 0.26862 0.87544 0.0
O156 O 0.22148 0.15839 0.82723 0.0
O157 O 0.24481 0.12249 0.80165 0.0
O158 O 0.18196 0.21154 0.89318 0.0
O159 O 0.26429 0.18205 0.90967 0.0
C160 C 0.31664 0.09824 0.83763 0.0
C161 C 0.16293 0.02971 0.84733 0.0
C162 C 0.32368 0.26173 0.86098 0.0
C163 C 0.16918 0.17812 0.87815 0.0
C164 C 0.27785 0.14937 0.9048 0.0
C165 C 0.22844 0.15216 0.80752 0.0
O166 O 0.28427 0.11345 0.84164 0.0
O167 O 0.30549 0.0698 0.82092 0.0
O168 O 0.93247 0.11202 0.85867 0.0
Mn169 Mn 0.85941 0.10354 0.85651 0.0
O170 O 0.97748 0.15971 0.83068 0.0
Mn171 Mn 0.92659 0.17178 0.81979 0.0
O172 O 0.78595 0.0952 0.85368 0.0
O173 O 0.83204 0.03567 0.87175 0.0
Mn174 Mn 0.7867 0.02948 0.89076 0.0
O175 O 0.87059 0.14309 0.88573 0.0
O176 O 0.73458 0.03015 0.87546 0.0
O177 O 0.84478 0.06365 0.82723 0.0
O178 O 0.88067 0.12285 0.80163 0.0
O179 O 0.79168 0.97104 0.89319 0.0
O180 O 0.82116 0.08286 0.90967 0.0
C181 C 0.90492 0.21896 0.8376 0.0
C182 C 0.97346 0.13379 0.84732 0.0
C183 C 0.74144 0.06252 0.86099 0.0
C184 C 0.82509 0.99166 0.87816 0.0
C185 C 0.85383 0.12909 0.90479 0.0
C186 C 0.851 0.07681 0.80752 0.0
O187 O 0.88971 0.17138 0.84162 0.0
O188 O 0.93335 0.23624 0.82089 0.0
O189 O 0.82182 0.8905 0.68897 0.0
Mn190 Mn 0.7572 0.89889 0.69119 0.0
O191 O 0.81937 0.84296 0.71698 0.0
Mn192 Mn 0.75643 0.83084 0.72792 0.0
O193 O 0.69203 0.90712 0.69408 0.0
O194 O 0.79755 0.96673 0.67592 0.0
Mn195 Mn 0.75826 0.97285 0.65696 0.0
O196 O 0.72873 0.85927 0.66199 0.0
O197 O 0.7055 0.97211 0.67231 0.0
O198 O 0.78253 0.93886 0.72045 0.0
O199 O 0.75942 0.87976 0.74607 0.0
O200 O 0.82164 0.03132 0.65447 0.0
O201 O 0.7393 0.91945 0.63806 0.0
C202 C 0.68749 0.78352 0.71019 0.0
C203 C 0.84114 0.86881 0.70032 0.0
C204 C 0.6801 0.93975 0.6868 0.0
C205 C 0.83454 0.01074 0.66948 0.0
C206 C 0.72584 0.87324 0.64293 0.0
C207 C 0.77566 0.92576 0.74017 0.0
O208 O 0.7198 0.83108 0.70611 0.0
O209 O 0.6988 0.76634 0.72689 0.0
O210 O 0.11266 0.9318 0.68896 0.0
Mn211 Mn 0.10427 0.85879 0.69119 0.0
O212 O 0.16021 0.9769 0.71696 0.0
Mn213 Mn 0.17235 0.92609 0.7279 0.0
O214 O 0.09605 0.7854 0.69408 0.0
O215 O 0.03642 0.83129 0.67592 0.0
Mn216 Mn 0.03032 0.7859 0.65696 0.0
O217 O 0.14388 0.86995 0.66198 0.0
O218 O 0.03107 0.73387 0.67231 0.0
O219 O 0.06431 0.84416 0.72045 0.0
O220 O 0.12343 0.88016 0.74606 0.0
O221 O 0.97183 0.79078 0.65448 0.0
O222 O 0.08371 0.82035 0.63805 0.0
C223 C 0.21965 0.90446 0.71017 0.0
C224 C 0.13435 0.97282 0.70031 0.0
C225 C 0.06344 0.74085 0.68679 0.0
C226 C 0.9924 0.82426 0.66949 0.0
C227 C 0.12991 0.8531 0.64293 0.0
C228 C 0.07743 0.8504 0.74016 0.0
O229 O 0.17209 0.88922 0.7061 0.0
O230 O 0.23685 0.93295 0.72686 0.0
O231 O 0.07134 0.18132 0.68897 0.0
Mn232 Mn 0.14435 0.24595 0.69119 0.0
O233 O 0.02625 0.18377 0.71697 0.0
Mn234 Mn 0.07704 0.2467 0.72791 0.0
O235 O 0.21774 0.31112 0.69408 0.0
O236 O 0.17186 0.20561 0.67592 0.0
Mn237 Mn 0.21726 0.2449 0.65695 0.0
O238 O 0.13319 0.27441 0.66198 0.0
O239 O 0.26927 0.29766 0.67231 0.0
O240 O 0.15899 0.22061 0.72044 0.0
O241 O 0.12298 0.24373 0.74606 0.0
O242 O 0.21237 0.18153 0.65447 0.0
O243 O 0.18281 0.26386 0.63805 0.0
C244 C 0.09866 0.31564 0.71018 0.0
C245 C 0.03033 0.16199 0.70031 0.0
C246 C 0.26229 0.32305 0.6868 0.0
C247 C 0.17888 0.16862 0.66948 0.0
C248 C 0.15005 0.27731 0.64293 0.0
C249 C 0.15275 0.22749 0.74016 0.0
O250 O 0.11392 0.28333 0.7061 0.0
O251 O 0.07017 0.30434 0.72687 0.0
O252 O 0.77934 0.51481 0.52264 0.0
Mn253 Mn 0.77086 0.57939 0.5248 0.0
O254 O 0.82704 0.51748 0.55062 0.0
Mn255 Mn 0.83912 0.58044 0.56151 0.0
O256 O 0.76254 0.64452 0.52764 0.0
O257 O 0.70298 0.53889 0.50958 0.0
Mn258 Mn 0.69678 0.57805 0.49057 0.0
O259 O 0.81039 0.60775 0.49558 0.0
O260 O 0.69747 0.63085 0.50588 0.0
O261 O 0.731 0.55414 0.55409 0.0
O262 O 0.79021 0.57745 0.57967 0.0
O263 O 0.63833 0.51464 0.48814 0.0
O264 O 0.75015 0.59697 0.47165 0.0
C265 C 0.8863 0.64929 0.5437 0.0
C266 C 0.80112 0.49559 0.53399 0.0
C267 C 0.72985 0.65634 0.52034 0.0
C268 C 0.65896 0.50185 0.50317 0.0
C269 C 0.79638 0.61052 0.47652 0.0
C270 C 0.74417 0.56108 0.5738 0.0
O271 O 0.83872 0.61692 0.53968 0.0
O272 O 0.90358 0.63814 0.5604 0.0
O273 O 0.48835 0.26513 0.52264 0.0
Mn274 Mn 0.42377 0.19208 0.5248 0.0
O275 O 0.48567 0.31014 0.55063 0.0
Mn276 Mn 0.42271 0.25925 0.56152 0.0
O277 O 0.35864 0.11862 0.52762 0.0
O278 O 0.46426 0.16471 0.50956 0.0
Mn279 Mn 0.42512 0.11938 0.49054 0.0
O280 O 0.39541 0.20328 0.49558 0.0
O281 O 0.3723 0.06725 0.50584 0.0
O282 O 0.44902 0.17743 0.55408 0.0
O283 O 0.42571 0.21332 0.57967 0.0
O284 O 0.48853 0.12435 0.48811 0.0
O285 O 0.40621 0.15386 0.47164 0.0
C286 C 0.35386 0.23759 0.54371 0.0
C287 C 0.50757 0.30612 0.53399 0.0
C288 C 0.34681 0.07412 0.52031 0.0
C289 C 0.50131 0.15775 0.50315 0.0
C290 C 0.39264 0.18653 0.47652 0.0
C291 C 0.44208 0.18365 0.57379 0.0
O292 O 0.38624 0.22238 0.53969 0.0
O293 O 0.36501 0.26601 0.56042 0.0
O294 O 0.73802 0.22385 0.52264 0.0
Mn295 Mn 0.81106 0.23229 0.5248 0.0
O296 O 0.69298 0.17615 0.55062 0.0
Mn297 Mn 0.74385 0.16406 0.56152 0.0
O298 O 0.88451 0.24059 0.52763 0.0
O299 O 0.83846 0.30017 0.50957 0.0
Mn300 Mn 0.8838 0.30634 0.49056 0.0
O301 O 0.79986 0.19275 0.49558 0.0
O302 O 0.93591 0.30564 0.50586 0.0
O303 O 0.8257 0.27217 0.55409 0.0
O304 O 0.78978 0.21296 0.57968 0.0
O305 O 0.87885 0.3648 0.48813 0.0
O306 O 0.84933 0.25298 0.47165 0.0
C307 C 0.76551 0.11686 0.54371 0.0
C308 C 0.69702 0.20208 0.53399 0.0
C309 C 0.92902 0.27326 0.52033 0.0
C310 C 0.84544 0.34419 0.50316 0.0
C311 C 0.81663 0.20675 0.47652 0.0
C312 C 0.81947 0.259 0.5738 0.0
O313 O 0.78073 0.16444 0.53969 0.0
O314 O 0.73707 0.09958 0.56041 0.0
O315 O 0.8487 0.44524 0.69235 0.0
Mn316 Mn 0.91333 0.43686 0.69013 0.0
O317 O 0.85115 0.49279 0.66435 0.0
Mn318 Mn 0.91409 0.50493 0.65341 0.0
O319 O 0.9785 0.42864 0.68723 0.0
O320 O 0.87298 0.36901 0.70539 0.0
Mn321 Mn 0.91228 0.36289 0.72435 0.0
O322 O 0.94179 0.47647 0.71933 0.0
O323 O 0.96504 0.36364 0.70899 0.0
O324 O 0.888 0.3969 0.66087 0.0
O325 O 0.91112 0.45602 0.63526 0.0
O326 O 0.84891 0.30441 0.72684 0.0
O327 O 0.93123 0.41629 0.74326 0.0
C328 C 0.98303 0.55224 0.67114 0.0
C329 C 0.82938 0.46693 0.68101 0.0
C330 C 0.99043 0.39601 0.69451 0.0
C331 C 0.83599 0.32499 0.71183 0.0
C332 C 0.94469 0.46249 0.73838 0.0
C333 C 0.89487 0.41002 0.64115 0.0
O334 O 0.95072 0.50468 0.67522 0.0
O335 O 0.97172 0.56943 0.65444 0.0
O336 O 0.55789 0.40396 0.69235 0.0
Mn337 Mn 0.56627 0.47697 0.69013 0.0
O338 O 0.51036 0.35888 0.66434 0.0
Mn339 Mn 0.49822 0.40969 0.65341 0.0
O340 O 0.57449 0.55037 0.68724 0.0
O341 O 0.63412 0.50446 0.7054 0.0
Mn342 Mn 0.64021 0.54985 0.72437 0.0
O343 O 0.52665 0.4658 0.71934 0.0
O344 O 0.63948 0.60188 0.70901 0.0
O345 O 0.60625 0.49161 0.66088 0.0
O346 O 0.54714 0.45564 0.63526 0.0
O347 O 0.6987 0.54496 0.72685 0.0
O348 O 0.58681 0.5154 0.74327 0.0
C349 C 0.4509 0.4313 0.67114 0.0
C350 C 0.53621 0.36295 0.681 0.0
C351 C 0.60712 0.59491 0.69453 0.0
C352 C 0.67813 0.51148 0.71184 0.0
C353 C 0.54061 0.48265 0.73839 0.0
C354 C 0.59314 0.48539 0.64116 0.0
O355 O 0.49846 0.44655 0.67522 0.0
O356 O 0.43372 0.40282 0.65444 0.0
O357 O 0.59918 0.15444 0.69234 0.0
Mn358 Mn 0.52618 0.08981 0.69011 0.0
O359 O 0.64428 0.152 0.66433 0.0
Mn360 Mn 0.59349 0.08907 0.65339 0.0
O361 O 0.45279 0.02464 0.68722 0.0
O362 O 0.49866 0.13015 0.70538 0.0
Mn363 Mn 0.45325 0.09085 0.72434 0.0
O364 O 0.53732 0.06134 0.71932 0.0
O365 O 0.40124 0.0381 0.70897 0.0
O366 O 0.51155 0.11515 0.66085 0.0
O367 O 0.54755 0.09205 0.63524 0.0
O368 O 0.45815 0.15423 0.72682 0.0
O369 O 0.48767 0.07187 0.74324 0.0
C370 C 0.57187 0.02013 0.67112 0.0
C371 C 0.6402 0.17377 0.68099 0.0
C372 C 0.40823 0.01272 0.69449 0.0
C373 C 0.49164 0.16714 0.71182 0.0
C374 C 0.52044 0.05843 0.73837 0.0
C375 C 0.51779 0.10829 0.64114 0.0
O376 O 0.55661 0.05243 0.6752 0.0
O377 O 0.60037 0.03143 0.65442 0.0
O378 O 0.5578 0.15441 0.19201 0.0
Mn379 Mn 0.56627 0.08983 0.18984 0.0
O380 O 0.51011 0.15175 0.16403 0.0
Mn381 Mn 0.49803 0.0888 0.15313 0.0
O382 O 0.57458 0.02469 0.18701 0.0
O383 O 0.63414 0.13031 0.20507 0.0
Mn384 Mn 0.64033 0.09115 0.22408 0.0
O385 O 0.52672 0.06146 0.21907 0.0
O386 O 0.63964 0.03835 0.20877 0.0
O387 O 0.60615 0.11508 0.16056 0.0
O388 O 0.54694 0.09179 0.13497 0.0
O389 O 0.69878 0.15456 0.22651 0.0
O390 O 0.58696 0.07223 0.24299 0.0
C391 C 0.45084 0.01994 0.17094 0.0
C392 C 0.53603 0.17364 0.18066 0.0
C393 C 0.60726 0.01286 0.19431 0.0
C394 C 0.67816 0.16735 0.21148 0.0
C395 C 0.54073 0.05868 0.23812 0.0
C396 C 0.59298 0.10815 0.14085 0.0
O397 O 0.49842 0.05231 0.17496 0.0
O398 O 0.43356 0.0311 0.15423 0.0
O399 O 0.84876 0.40407 0.192 0.0
Mn400 Mn 0.91335 0.47712 0.18984 0.0
O401 O 0.85143 0.35905 0.16402 0.0
Mn402 Mn 0.91439 0.40993 0.15312 0.0
O403 O 0.97848 0.55057 0.18701 0.0
O404 O 0.87286 0.50451 0.20507 0.0
Mn405 Mn 0.91202 0.54984 0.22408 0.0
O406 O 0.9417 0.46592 0.21906 0.0
O407 O 0.96482 0.60196 0.20878 0.0
O408 O 0.8881 0.49176 0.16056 0.0
O409 O 0.9114 0.45585 0.13497 0.0
O410 O 0.84861 0.54489 0.22652 0.0
O411 O 0.93093 0.51538 0.24299 0.0
C412 C 0.98324 0.43158 0.17094 0.0
C413 C 0.82954 0.36307 0.18065 0.0
C414 C 0.99031 0.59508 0.19431 0.0
C415 C 0.83581 0.51148 0.21149 0.0
C416 C 0.94447 0.48269 0.23812 0.0
C417 C 0.89504 0.48553 0.14085 0.0
O418 O 0.95087 0.4468 0.17496 0.0
O419 O 0.97208 0.40315 0.15423 0.0
O420 O 0.5991 0.44538 0.19201 0.0
Mn421 Mn 0.52605 0.43692 0.18985 0.0
O422 O 0.64412 0.49307 0.16402 0.0
Mn423 Mn 0.59323 0.50514 0.15313 0.0
O424 O 0.4526 0.42861 0.18702 0.0
O425 O 0.49867 0.36904 0.20508 0.0
Mn426 Mn 0.45334 0.36287 0.2241 0.0
O427 O 0.53725 0.47647 0.21907 0.0
O428 O 0.40122 0.36357 0.2088 0.0
O429 O 0.51141 0.39703 0.16057 0.0
O430 O 0.54731 0.45623 0.13497 0.0
O431 O 0.45829 0.30442 0.22653 0.0
O432 O 0.48781 0.41625 0.24301 0.0
C433 C 0.57158 0.55234 0.17093 0.0
C434 C 0.6401 0.46715 0.18065 0.0
C435 C 0.40809 0.39593 0.19433 0.0
C436 C 0.49169 0.32503 0.2115 0.0
C437 C 0.52049 0.46247 0.23813 0.0
C438 C 0.51763 0.41019 0.14086 0.0
O439 O 0.55637 0.50476 0.17496 0.0
O440 O 0.60001 0.56961 0.15422 0.0
O441 O 0.48847 0.22392 1.02231 0.0
Mn442 Mn 0.42384 0.2323 0.02453 0.0
O443 O 0.48603 0.17638 0.05031 0.0
Mn444 Mn 0.4231 0.16423 0.06125 0.0
O445 O 0.35866 0.24051 0.02743 0.0
O446 O 0.46417 0.30015 1.00927 0.0
Mn447 Mn 0.42487 0.30625 0.9903 0.0
O448 O 0.39538 0.19268 0.99533 0.0
O449 O 0.37211 0.3055 1.00567 0.0
O450 O 0.44917 0.27226 0.05379 0.0
O451 O 0.42607 0.21314 0.07941 0.0
O452 O 0.48824 0.36473 0.98782 0.0
O453 O 0.40592 0.25285 0.9714 0.0
C454 C 0.35416 0.11692 0.04352 0.0
C455 C 0.50781 0.20224 0.03365 0.0
C456 C 0.34673 0.27313 1.02015 0.0
C457 C 0.50116 0.34416 1.00282 0.0
C458 C 0.39248 0.20665 0.97628 0.0
C459 C 0.4423 0.25915 0.07351 0.0
O460 O 0.38647 0.16448 0.03945 0.0
O461 O 0.36547 0.09973 0.06022 0.0
O462 O 0.77929 0.26522 1.0223 0.0
Mn463 Mn 0.77091 0.19221 0.02452 0.0
O464 O 0.82682 0.3103 0.0503 0.0
Mn465 Mn 0.83895 0.2595 0.06124 0.0
O466 O 0.76269 0.11882 0.02741 0.0
O467 O 0.70307 0.16471 1.00925 0.0
Mn468 Mn 0.69697 0.11932 0.99029 0.0
O469 O 0.81054 0.20337 0.99532 0.0
O470 O 0.69771 0.06729 1.00564 0.0
O471 O 0.73093 0.17757 0.05378 0.0
O472 O 0.79003 0.21356 0.07939 0.0
O473 O 0.63848 0.12421 0.9878 0.0
O474 O 0.75037 0.15377 0.97139 0.0
C475 C 0.88628 0.23789 0.04352 0.0
C476 C 0.80097 0.30623 0.03364 0.0
C477 C 0.73008 0.07427 1.02013 0.0
C478 C 0.65906 0.15769 1.00281 0.0
C479 C 0.79657 0.18651 0.97626 0.0
C480 C 0.74403 0.18381 0.07349 0.0
O481 O 0.83872 0.22264 0.03944 0.0
O482 O 0.90346 0.26638 0.06022 0.0
O483 O 0.73797 0.51474 1.0223 0.0
Mn484 Mn 0.81098 0.57936 0.02452 0.0
O485 O 0.69288 0.51719 0.0503 0.0
Mn486 Mn 0.74368 0.58013 0.06124 0.0
O487 O 0.88437 0.64454 0.02741 0.0
O488 O 0.83849 0.53902 1.00925 0.0
Mn489 Mn 0.88389 0.57831 0.99029 0.0
O490 O 0.79982 0.60782 0.99531 0.0
O491 O 0.93591 0.63107 1.00564 0.0
O492 O 0.82561 0.55403 0.05378 0.0
O493 O 0.78962 0.57716 0.07939 0.0
O494 O 0.879 0.51494 0.9878 0.0
O495 O 0.84944 0.59727 0.97139 0.0
C496 C 0.7653 0.64906 0.0435 0.0
C497 C 0.69696 0.49541 0.03364 0.0
C498 C 0.92892 0.65646 1.02013 0.0
C499 C 0.84551 0.50203 1.00281 0.0
C500 C 0.81669 0.61071 0.97626 0.0
C501 C 0.81937 0.56091 0.07349 0.0
O502 O 0.78055 0.61675 0.03943 0.0
O503 O 0.73681 0.63777 0.0602 0.0
O504 O 0.44596 0.84808 0.85597 0.0
Mn505 Mn 0.43752 0.91268 0.85813 0.0
O506 O 0.49365 0.85073 0.88395 0.0
Mn507 Mn 0.50575 0.91369 0.89485 0.0
O508 O 0.42923 0.97784 0.86097 0.0
O509 O 0.36964 0.87221 0.8429 0.0
Mn510 Mn 0.36346 0.91139 0.8239 0.0
O511 O 0.47706 0.94103 0.82891 0.0
O512 O 0.36417 0.96419 0.83921 0.0
O513 O 0.39764 0.88744 0.88742 0.0
O514 O 0.45684 0.91071 0.91301 0.0
O515 O 0.305 0.84799 0.82147 0.0
O516 O 0.41683 0.9303 0.80498 0.0
C517 C 0.55295 0.98254 0.87704 0.0
C518 C 0.46773 0.82885 0.86732 0.0
C519 C 0.39655 0.98967 0.85367 0.0
C520 C 0.32562 0.83518 0.83649 0.0
C521 C 0.46306 0.94382 0.80985 0.0
C522 C 0.4108 0.89437 0.90713 0.0
O523 O 0.50537 0.95019 0.87301 0.0
O524 O 0.57022 0.97137 0.89375 0.0
O525 O 0.15503 0.59844 0.85597 0.0
Mn526 Mn 0.09045 0.52539 0.85814 0.0
O527 O 0.15235 0.64348 0.88395 0.0
Mn528 Mn 0.08939 0.5926 0.89485 0.0
O529 O 0.02532 0.45194 0.86097 0.0
O530 O 0.13096 0.498 0.84292 0.0
Mn531 Mn 0.0918 0.45265 0.82391 0.0
O532 O 0.0621 0.53657 0.82892 0.0
O533 O 0.039 0.40054 0.83922 0.0
O534 O 0.1157 0.51078 0.88743 0.0
O535 O 0.09239 0.54669 0.91301 0.0
O536 O 0.15521 0.45761 0.82148 0.0
O537 O 0.07289 0.4871 0.80499 0.0
C538 C 0.02055 0.57093 0.87703 0.0
C539 C 0.17425 0.63945 0.86732 0.0
C540 C 0.0135 0.40743 0.85368 0.0
C541 C 0.168 0.49103 0.83651 0.0
C542 C 0.05934 0.51978 0.80986 0.0
C543 C 0.10875 0.51701 0.90714 0.0
O544 O 0.05292 0.55572 0.87302 0.0
O545 O 0.0317 0.59936 0.89374 0.0
O546 O 0.40472 0.55713 0.85598 0.0
Mn547 Mn 0.47777 0.56561 0.85814 0.0
O548 O 0.35971 0.50945 0.88397 0.0
Mn549 Mn 0.41061 0.49739 0.89486 0.0
O550 O 0.55123 0.57394 0.86096 0.0
O551 O 0.50513 0.63348 0.8429 0.0
Mn552 Mn 0.55046 0.63965 0.82388 0.0
O553 O 0.46657 0.52605 0.82892 0.0
O554 O 0.6026 0.63898 0.83918 0.0
O555 O 0.49241 0.60551 0.88742 0.0
O556 O 0.45653 0.54632 0.91301 0.0
O557 O 0.5455 0.6981 0.82144 0.0
O558 O 0.516 0.58627 0.80498 0.0
C559 C 0.43227 0.4502 0.87705 0.0
C560 C 0.36372 0.53536 0.86734 0.0
C561 C 0.59573 0.60662 0.85365 0.0
C562 C 0.51209 0.67749 0.83648 0.0
C563 C 0.48333 0.54004 0.80986 0.0
C564 C 0.4862 0.59236 0.90713 0.0
O565 O 0.44747 0.49778 0.87303 0.0
O566 O 0.40385 0.43293 0.89377 0.0
O567 O 0.51536 0.77867 0.02567 0.0
Mn568 Mn 0.57999 0.77029 1.02344 0.0
O569 O 0.51779 0.82621 0.99766 0.0
Mn570 Mn 0.58073 0.83835 0.98672 0.0
O571 O 0.64517 0.76208 1.02055 0.0
O572 O 0.53966 0.70245 0.03871 0.0
Mn573 Mn 0.57895 0.69635 0.05767 0.0
O574 O 0.60845 0.80992 0.05264 0.0
O575 O 0.63172 0.6971 0.04232 0.0
O576 O 0.55465 0.73032 0.99419 0.0
O577 O 0.57775 0.78943 0.96857 0.0
O578 O 0.51558 0.63786 0.06016 0.0
O579 O 0.5979 0.74975 0.07657 0.0
C580 C 0.64967 0.88566 1.00445 0.0
C581 C 0.49602 0.80035 1.01432 0.0
C582 C 0.6571 0.72947 0.02783 0.0
C583 C 0.50267 0.65843 0.04515 0.0
C584 C 0.61135 0.79595 0.0717 0.0
C585 C 0.56152 0.74343 0.97447 0.0
O586 O 0.61736 0.8381 1.00852 0.0
O587 O 0.63836 0.90285 0.98775 0.0
O588 O 0.22453 0.73737 0.02569 0.0
Mn589 Mn 0.23291 0.81037 1.02346 0.0
O590 O 0.17699 0.69227 0.99769 0.0
Mn591 Mn 0.16486 0.74307 0.98675 0.0
O592 O 0.24113 0.88377 1.02057 0.0
O593 O 0.30076 0.83788 0.03873 0.0
Mn594 Mn 0.30687 0.88327 0.05769 0.0
O595 O 0.1933 0.79922 0.05267 0.0
O596 O 0.30611 0.93529 0.04234 0.0
O597 O 0.27288 0.82501 0.9942 0.0
O598 O 0.21377 0.789 0.96859 0.0
O599 O 0.36535 0.87838 0.06017 0.0
O600 O 0.25347 0.84882 0.0766 0.0
C601 C 0.11753 0.76469 1.00447 0.0
C602 C 0.20285 0.69635 1.01434 0.0
C603 C 0.27375 0.92831 0.02786 0.0
C604 C 0.34478 0.8449 0.04517 0.0
C605 C 0.20726 0.81607 0.07172 0.0
C606 C 0.25977 0.81876 0.97449 0.0
O607 O 0.16509 0.77994 1.00855 0.0
O608 O 0.10035 0.7362 0.98777 0.0
O609 O 0.26586 0.48784 0.02569 0.0
Mn610 Mn 0.19285 0.42322 1.02347 0.0
O611 O 0.31094 0.48538 0.99768 0.0
Mn612 Mn 0.26014 0.42244 0.98675 0.0
O613 O 0.11945 0.35805 1.02058 0.0
O614 O 0.16535 0.46357 0.03874 0.0
Mn615 Mn 0.11996 0.42428 0.05771 0.0
O616 O 0.20401 0.39476 0.05267 0.0
O617 O 0.06793 0.37152 0.04235 0.0
O618 O 0.17821 0.44855 0.99421 0.0
O619 O 0.21419 0.42542 0.9686 0.0
O620 O 0.12485 0.48766 0.06019 0.0
O621 O 0.15441 0.40533 0.07661 0.0
C622 C 0.23851 0.35351 1.00448 0.0
C623 C 0.30687 0.50716 1.01434 0.0
C624 C 0.07491 0.34613 0.02787 0.0
C625 C 0.15833 0.50056 0.04518 0.0
C626 C 0.18716 0.39187 0.07173 0.0
C627 C 0.18444 0.44167 0.9745 0.0
O628 O 0.22327 0.38582 1.00856 0.0
O629 O 0.267 0.3648 0.98778 0.0
O630 O 0.22444 0.48768 0.52534 0.0
Mn631 Mn 0.23292 0.4231 0.52317 0.0
O632 O 0.17675 0.485 0.49735 0.0
Mn633 Mn 0.16467 0.42204 0.48646 0.0
O634 O 0.24124 0.35797 0.52034 0.0
O635 O 0.3008 0.4636 0.5384 0.0
Mn636 Mn 0.30699 0.42444 0.55741 0.0
O637 O 0.19338 0.39473 0.55239 0.0
O638 O 0.30631 0.37164 0.5421 0.0
O639 O 0.2728 0.44836 0.49389 0.0
O640 O 0.21359 0.42504 0.4683 0.0
O641 O 0.36544 0.48784 0.55984 0.0
O642 O 0.25362 0.40551 0.57632 0.0
C643 C 0.11749 0.35319 0.50427 0.0
C644 C 0.20266 0.5069 0.51398 0.0
C645 C 0.27394 0.34615 0.52764 0.0
C646 C 0.34481 0.50064 0.54481 0.0
C647 C 0.20739 0.39196 0.57145 0.0
C648 C 0.25963 0.44141 0.47418 0.0
O649 O 0.16507 0.38556 0.50829 0.0
O650 O 0.10021 0.36435 0.48756 0.0
O651 O 0.51543 0.73736 0.52535 0.0
Mn652 Mn 0.58001 0.81041 0.52319 0.0
O653 O 0.51811 0.69235 0.49736 0.0
Mn654 Mn 0.58107 0.74324 0.48647 0.0
O655 O 0.64514 0.88387 0.52036 0.0
O656 O 0.53952 0.83779 0.53842 0.0
Mn657 Mn 0.57867 0.88312 0.55743 0.0
O658 O 0.60838 0.79922 0.55241 0.0
O659 O 0.63147 0.93524 0.54213 0.0
O660 O 0.55476 0.82505 0.49391 0.0
O661 O 0.57807 0.78917 0.46831 0.0
O662 O 0.51525 0.87815 0.55987 0.0
O663 O 0.59759 0.84866 0.57634 0.0
C664 C 0.64991 0.76489 0.50428 0.0
C665 C 0.49621 0.69637 0.51399 0.0
C666 C 0.65697 0.92837 0.52766 0.0
C667 C 0.50246 0.84474 0.54484 0.0
C668 C 0.61115 0.81598 0.57147 0.0
C669 C 0.5617 0.81884 0.47419 0.0
O670 O 0.61754 0.7801 0.5083 0.0
O671 O 0.63876 0.73647 0.48757 0.0
O672 O 0.26576 0.77863 0.52533 0.0
Mn673 Mn 0.19272 0.77019 0.52316 0.0
O674 O 0.3108 0.82632 0.49735 0.0
Mn675 Mn 0.25994 0.83842 0.48645 0.0
O676 O 0.11928 0.76191 0.52033 0.0
O677 O 0.16531 0.70231 0.5384 0.0
Mn678 Mn 0.11997 0.69614 0.5574 0.0
O679 O 0.20392 0.80974 0.55239 0.0
O680 O 0.06787 0.69686 0.5421 0.0
O681 O 0.17808 0.73031 0.49388 0.0
O682 O 0.21401 0.78952 0.46829 0.0
O683 O 0.12491 0.63767 0.55984 0.0
O684 O 0.15444 0.7495 0.57632 0.0
C685 C 0.23829 0.88563 0.50426 0.0
C686 C 0.30676 0.8004 0.51398 0.0
C687 C 0.07476 0.72924 0.52763 0.0
C688 C 0.15833 0.65829 0.54481 0.0
C689 C 0.18714 0.79573 0.57144 0.0
C690 C 0.18432 0.74348 0.47417 0.0
O691 O 0.22306 0.83804 0.50828 0.0
O692 O 0.26673 0.9029 0.48755 0.0
O693 O 0.15509 0.55721 0.35563 0.0
Mn694 Mn 0.09046 0.5656 0.35785 0.0
O695 O 0.15263 0.50966 0.38363 0.0
Mn696 Mn 0.0897 0.49753 0.39457 0.0
O697 O 0.02529 0.57382 0.36074 0.0
O698 O 0.13081 0.63345 0.34258 0.0
Mn699 Mn 0.09152 0.63955 0.32361 0.0
O700 O 0.062 0.52598 0.32864 0.0
O701 O 0.03874 0.6388 0.33896 0.0
O702 O 0.11579 0.60556 0.3871 0.0
O703 O 0.09267 0.54645 0.41272 0.0
O704 O 0.15489 0.69803 0.32113 0.0
O705 O 0.07258 0.58615 0.30471 0.0
C706 C 0.02076 0.45022 0.37684 0.0
C707 C 0.17441 0.53552 0.36697 0.0
C708 C 0.01336 0.60644 0.35345 0.0
C709 C 0.1678 0.67746 0.33614 0.0
C710 C 0.05912 0.53994 0.30959 0.0
C711 C 0.10892 0.59245 0.40682 0.0
O712 O 0.05307 0.49778 0.37276 0.0
O713 O 0.03206 0.43303 0.39354 0.0
O714 O 0.44592 0.59853 0.35563 0.0
Mn715 Mn 0.43754 0.52552 0.35785 0.0
O716 O 0.49346 0.64361 0.38364 0.0
Mn717 Mn 0.5056 0.59281 0.39457 0.0
O718 O 0.42932 0.45213 0.36074 0.0
O719 O 0.3697 0.49802 0.34258 0.0
Mn720 Mn 0.36361 0.45264 0.32361 0.0
O721 O 0.47717 0.53669 0.32865 0.0
O722 O 0.36435 0.40061 0.33897 0.0
O723 O 0.39757 0.51088 0.38711 0.0
O724 O 0.45668 0.54686 0.41272 0.0
O725 O 0.30512 0.45752 0.32113 0.0
O726 O 0.41701 0.4871 0.30472 0.0
C727 C 0.55291 0.57119 0.37684 0.0
C728 C 0.46761 0.63954 0.36698 0.0
C729 C 0.39671 0.40758 0.35345 0.0
C730 C 0.32568 0.491 0.33614 0.0
C731 C 0.46321 0.51985 0.30959 0.0
C732 C 0.41068 0.51711 0.40682 0.0
O733 O 0.50535 0.55594 0.37277 0.0
O734 O 0.5701 0.59968 0.39354 0.0
O735 O 0.4046 0.84804 0.35564 0.0
Mn736 Mn 0.47761 0.91267 0.35787 0.0
O737 O 0.35949 0.85047 0.38364 0.0
Mn738 Mn 0.41029 0.9134 0.39458 0.0
O739 O 0.551 0.97784 0.36076 0.0
O740 O 0.50512 0.87233 0.3426 0.0
Mn741 Mn 0.55053 0.91163 0.32364 0.0
O742 O 0.46647 0.94114 0.32866 0.0
O743 O 0.60254 0.96438 0.339 0.0
O744 O 0.49223 0.88732 0.38712 0.0
O745 O 0.45622 0.91041 0.41274 0.0
O746 O 0.54564 0.84826 0.32115 0.0
O747 O 0.5161 0.9306 0.30474 0.0
C748 C 0.43191 0.98234 0.37686 0.0
C749 C 0.36358 0.8287 0.36698 0.0
C750 C 0.59555 0.98977 0.35349 0.0
C751 C 0.51215 0.83534 0.33616 0.0
C752 C 0.48334 0.94405 0.30961 0.0
C753 C 0.48598 0.89418 0.40684 0.0
O754 O 0.44717 0.95004 0.37278 0.0
O755 O 0.40341 0.97103 0.39356 0.0
C756 C 0.14037 0.0828 0.20739 0.0
C757 C 0.13365 0.11514 0.19321 0.0
H758 H 0.15677 0.02133 0.21092 0.0
C759 C 0.13171 0.10516 0.17149 0.0
H760 H 0.14123 0.08911 0.22426 0.0
C761 C 0.14191 0.06741 0.16403 0.0
C762 C 0.15278 0.03792 0.17811 0.0
H763 H 0.12632 0.12911 0.16016 0.0
H764 H 0.14442 0.06343 0.14713 0.0
C765 C 0.149 0.04383 0.19984 0.0
C766 C 0.93572 0.07519 0.164 0.0
C767 C 0.96524 0.11554 0.17809 0.0
H768 H 0.87401 0.99793 0.16013 0.0
C769 C 0.95934 0.10583 0.19982 0.0
H770 H 0.93969 0.0817 0.1471 0.0
C771 C 0.92037 0.05822 0.20736 0.0
C772 C 0.88801 0.01919 0.19318 0.0
H773 H 0.98188 0.13609 0.2109 0.0
H774 H 0.91409 0.05277 0.22423 0.0
C775 C 0.89797 0.02725 0.17146 0.0
C776 C 0.94494 0.86281 0.20737 0.0
C777 C 0.98399 0.8695 0.19319 0.0
H778 H 0.86707 0.84644 0.2109 0.0
C779 C 0.97595 0.87141 0.17147 0.0
H780 H 0.95037 0.86196 0.22424 0.0
C781 C 0.92801 0.86122 0.16401 0.0
C782 C 0.88765 0.85038 0.17809 0.0
H783 H 0.00528 0.87678 0.16015 0.0
H784 H 0.92152 0.8587 0.14711 0.0
C785 C 0.89734 0.85418 0.19982 0.0
C786 C 0.10589 0.13144 0.3769 0.0
C787 C 0.11556 0.13293 0.35517 0.0
H788 H 0.06444 0.14456 0.40126 0.0
C789 C 0.08299 0.1393 0.341 0.0
H790 H 0.13004 0.12633 0.38822 0.0
C791 C 0.04407 0.148 0.34855 0.0
C792 C 0.03846 0.15224 0.37028 0.0
H793 H 0.08906 0.13982 0.32412 0.0
H794 H 0.02136 0.15546 0.33746 0.0
C795 C 0.0682 0.14172 0.38437 0.0
C796 C 0.86133 0.92716 0.38437 0.0
C797 C 0.85085 0.88692 0.37027 0.0
H798 H 0.87668 0.00437 0.38822 0.0
C799 C 0.85512 0.89677 0.34855 0.0
H800 H 0.85846 0.92055 0.40126 0.0
C801 C 0.86383 0.9444 0.341 0.0
C802 C 0.87016 0.98332 0.35517 0.0
H803 H 0.8477 0.86661 0.33746 0.0
H804 H 0.86333 0.94995 0.32412 0.0
C805 C 0.87161 0.97513 0.3769 0.0
C806 C 0.02796 0.89721 0.37692 0.0
C807 C 0.01979 0.88758 0.35518 0.0
H808 H 0.08252 0.93861 0.40128 0.0
C809 C 0.05872 0.92019 0.34102 0.0
H810 H 0.99871 0.87304 0.38823 0.0
C811 C 0.10634 0.9591 0.34857 0.0
C812 C 0.11618 0.96466 0.3703 0.0
H813 H 0.05318 0.91415 0.32414 0.0
H814 H 0.13651 0.98184 0.33749 0.0
C815 C 0.07593 0.93489 0.38439 0.0
C816 C 0.8635 0.91977 0.84061 0.0
C817 C 0.87021 0.88741 0.85479 0.0
H818 H 0.84711 0.98125 0.83708 0.0
C819 C 0.87211 0.89737 0.87651 0.0
H820 H 0.86266 0.91348 0.82374 0.0
C821 C 0.86191 0.93511 0.88397 0.0
C822 C 0.85106 0.96462 0.86989 0.0
H823 H 0.87749 0.87341 0.88783 0.0
H824 H 0.85939 0.93908 0.90087 0.0
C825 C 0.85487 0.95873 0.84816 0.0
C826 C 0.10586 0.9753 0.87652 0.0
C827 C 0.11582 0.98336 0.8548 0.0
H828 H 0.06415 0.92085 0.90088 0.0
C829 C 0.08347 0.94432 0.84062 0.0
H830 H 0.12983 0.00463 0.88784 0.0
C831 C 0.0445 0.89671 0.84816 0.0
C832 C 0.03861 0.887 0.8699 0.0
H833 H 0.08975 0.94977 0.82375 0.0
H834 H 0.02198 0.86645 0.83708 0.0
C835 C 0.06812 0.92735 0.88398 0.0
C836 C 0.02786 0.1311 0.8765 0.0
C837 C 0.01982 0.13304 0.85478 0.0
H838 H 0.08229 0.1438 0.90086 0.0
C839 C 0.05888 0.13976 0.8406 0.0
H840 H 0.99852 0.12571 0.88783 0.0
C841 C 0.10648 0.14838 0.84815 0.0
C842 C 0.11617 0.15216 0.86988 0.0
H843 H 0.05345 0.14062 0.82373 0.0
H844 H 0.13676 0.15615 0.83707 0.0
C845 C 0.0758 0.14129 0.88397 0.0
C846 C 0.89787 0.87102 0.67108 0.0
C847 C 0.88821 0.86954 0.69281 0.0
H848 H 0.93931 0.85789 0.64672 0.0
C849 C 0.92079 0.86318 0.70698 0.0
H850 H 0.87372 0.87613 0.65976 0.0
C851 C 0.95971 0.85447 0.69943 0.0
C852 C 0.9653 0.85023 0.6777 0.0
H853 H 0.91473 0.86266 0.72386 0.0
H854 H 0.98243 0.84702 0.71051 0.0
C855 C 0.93556 0.86074 0.66361 0.0
C856 C 0.14243 0.07531 0.66361 0.0
C857 C 0.15292 0.11555 0.6777 0.0
H858 H 0.12706 0.9981 0.65975 0.0
C859 C 0.14866 0.1057 0.69942 0.0
H860 H 0.14529 0.08191 0.64671 0.0
C861 C 0.13995 0.05808 0.70697 0.0
C862 C 0.13361 0.01915 0.6928 0.0
H863 H 0.15609 0.13587 0.71051 0.0
H864 H 0.14046 0.05253 0.72385 0.0
C865 C 0.13214 0.02734 0.67107 0.0
C866 C 0.92786 0.06758 0.66361 0.0
C867 C 0.8876 0.03783 0.6777 0.0
H868 H 0.00507 0.12941 0.65975 0.0
C869 C 0.89744 0.04343 0.69943 0.0
H870 H 0.92126 0.06382 0.64672 0.0
C871 C 0.94507 0.08234 0.70698 0.0
C872 C 0.984 0.11492 0.6928 0.0
H873 H 0.86727 0.0207 0.71051 0.0
H874 H 0.95061 0.0884 0.72386 0.0
C875 C 0.97582 0.10526 0.67107 0.0
C876 C 0.80864 0.40076 0.49734 0.0
C877 C 0.81948 0.37125 0.51143 0.0
H878 H 0.79308 0.46247 0.49348 0.0
C879 C 0.81568 0.37714 0.53316 0.0
H880 H 0.81117 0.39678 0.48044 0.0
C881 C 0.80705 0.41612 0.5407 0.0
C882 C 0.80036 0.44847 0.52652 0.0
H883 H 0.82342 0.35462 0.54424 0.0
H884 H 0.8079 0.42241 0.55757 0.0
C885 C 0.79845 0.43851 0.5048 0.0
C886 C 0.58702 0.39153 0.54071 0.0
C887 C 0.55468 0.35248 0.52653 0.0
H888 H 0.6485 0.4694 0.54425 0.0
C889 C 0.56467 0.36054 0.50481 0.0
H890 H 0.58071 0.38609 0.55758 0.0
C891 C 0.60242 0.40848 0.49735 0.0
C892 C 0.63192 0.44884 0.51144 0.0
H893 H 0.54073 0.3312 0.49349 0.0
H894 H 0.60641 0.41498 0.48046 0.0
C895 C 0.62599 0.43914 0.53317 0.0
C896 C 0.59468 0.19455 0.49733 0.0
C897 C 0.55432 0.18371 0.51142 0.0
H898 H 0.67196 0.21012 0.49348 0.0
C899 C 0.56401 0.18751 0.53315 0.0
H900 H 0.58819 0.19202 0.48044 0.0
C901 C 0.61162 0.19615 0.5407 0.0
C902 C 0.65067 0.20284 0.52652 0.0
H903 H 0.53374 0.17977 0.54423 0.0
H904 H 0.61705 0.1953 0.55757 0.0
C905 C 0.64262 0.20475 0.5048 0.0
C906 C 0.77266 0.46473 0.71025 0.0
C907 C 0.78231 0.4662 0.68852 0.0
H908 H 0.73124 0.47787 0.73461 0.0
C909 C 0.74972 0.47254 0.67435 0.0
H910 H 0.79682 0.45964 0.72157 0.0
C911 C 0.7108 0.48125 0.6819 0.0
C912 C 0.70522 0.48551 0.70363 0.0
H913 H 0.75577 0.47304 0.65747 0.0
H914 H 0.68807 0.48868 0.67082 0.0
C915 C 0.73498 0.47501 0.71772 0.0
C916 C 0.52813 0.26045 0.7177 0.0
C917 C 0.51763 0.2202 0.7036 0.0
H918 H 0.5435 0.33766 0.72156 0.0
C919 C 0.52188 0.23006 0.68188 0.0
H920 H 0.52527 0.25384 0.73459 0.0
C921 C 0.53059 0.27769 0.67433 0.0
C922 C 0.53694 0.31662 0.68851 0.0
H923 H 0.51444 0.19989 0.67079 0.0
H924 H 0.53008 0.28324 0.65745 0.0
C925 C 0.53842 0.30842 0.71024 0.0
C926 C 0.77309 0.29233 0.68189 0.0
C927 C 0.78293 0.2979 0.70361 0.0
H928 H 0.71992 0.24738 0.65746 0.0
C929 C 0.74268 0.26814 0.7177 0.0
H930 H 0.80326 0.31507 0.67081 0.0
C931 C 0.69471 0.23047 0.71024 0.0
C932 C 0.68653 0.22083 0.6885 0.0
H933 H 0.74927 0.27187 0.7346 0.0
H934 H 0.66546 0.2063 0.72155 0.0
C935 C 0.72547 0.25342 0.67433 0.0
C936 C 0.53868 0.2307 0.20985 0.0
C937 C 0.53679 0.22075 0.18813 0.0
H938 H 0.52595 0.2724 0.23421 0.0
C939 C 0.5301 0.25312 0.17395 0.0
H940 H 0.54405 0.20673 0.22117 0.0
C941 C 0.52147 0.29209 0.1815 0.0
C942 C 0.51765 0.29797 0.20323 0.0
H943 H 0.52927 0.24684 0.15708 0.0
H944 H 0.51374 0.31462 0.17042 0.0
C945 C 0.52849 0.26845 0.21731 0.0
C946 C 0.75007 0.27768 0.17394 0.0
C947 C 0.78242 0.31672 0.18812 0.0
H948 H 0.68858 0.19981 0.1704 0.0
C949 C 0.77246 0.30866 0.20984 0.0
H950 H 0.75636 0.28312 0.15707 0.0
C951 C 0.73472 0.26072 0.2173 0.0
C952 C 0.70521 0.22037 0.20322 0.0
H953 H 0.79643 0.33799 0.22116 0.0
H954 H 0.73075 0.25422 0.2342 0.0
C955 C 0.7111 0.23007 0.18148 0.0
C956 C 0.77311 0.48173 0.18149 0.0
C957 C 0.7828 0.48553 0.20322 0.0
H958 H 0.72007 0.47395 0.15707 0.0
C959 C 0.74244 0.47467 0.2173 0.0
H960 H 0.80338 0.48948 0.17041 0.0
C961 C 0.6945 0.46447 0.20984 0.0
C962 C 0.68645 0.46639 0.18812 0.0
H963 H 0.74894 0.47719 0.2342 0.0
H964 H 0.66516 0.4591 0.22117 0.0
C965 C 0.72551 0.4731 0.17394 0.0
C966 C 0.6022 0.19415 0.99694 0.0
C967 C 0.63196 0.18366 1.01103 0.0
H968 H 0.54035 0.20951 0.99309 0.0
C969 C 0.62638 0.18793 0.03276 0.0
H970 H 0.60594 0.19129 0.98005 0.0
C971 C 0.58747 0.19664 0.04031 0.0
C972 C 0.55487 0.20298 0.02614 0.0
H973 H 0.64912 0.1805 0.04384 0.0
H974 H 0.58142 0.19614 0.05719 0.0
C975 C 0.56452 0.20444 1.00441 0.0
C976 C 0.79876 0.36074 1.0044 0.0
C977 C 0.80023 0.35256 0.02613 0.0
H978 H 0.8119 0.41531 0.98005 0.0
C979 C 0.80658 0.39149 0.04031 0.0
H980 H 0.79367 0.3315 0.99309 0.0
C981 C 0.81528 0.43912 0.03275 0.0
C982 C 0.81955 0.44896 1.01103 0.0
H983 H 0.80708 0.38594 0.05718 0.0
H984 H 0.82272 0.46929 0.04384 0.0
C985 C 0.80904 0.40871 0.99694 0.0
C986 C 0.56407 0.37685 0.03276 0.0
C987 C 0.55422 0.37126 1.01104 0.0
H988 H 0.61724 0.42183 0.05719 0.0
C989 C 0.59448 0.401 0.99695 0.0
H990 H 0.5339 0.35413 0.04385 0.0
C991 C 0.64245 0.43868 1.00441 0.0
C992 C 0.65063 0.44835 0.02614 0.0
H993 H 0.58787 0.39725 0.98005 0.0
H994 H 0.67169 0.46284 0.99309 0.0
C995 C 0.61169 0.41577 0.04031 0.0
C996 C 0.46509 0.7718 0.83813 0.0
C997 C 0.46696 0.78173 0.85985 0.0
H998 H 0.47784 0.73011 0.81376 0.0
C999 C 0.47364 0.74936 0.87402 0.0
H1000 H 0.45973 0.79577 0.8268 0.0
C1001 C 0.48229 0.7104 0.86648 0.0
C1002 C 0.48613 0.70454 0.84474 0.0
H1003 H 0.47447 0.75563 0.8909 0.0
H1004 H 0.49001 0.68786 0.87755 0.0
C1005 C 0.47529 0.73406 0.83066 0.0
C1006 C 0.23131 0.69387 0.83813 0.0
C1007 C 0.22136 0.6858 0.85985 0.0
H1008 H 0.27301 0.74832 0.81377 0.0
C1009 C 0.25372 0.72484 0.87403 0.0
H1010 H 0.20734 0.66453 0.82681 0.0
C1011 C 0.29269 0.77245 0.86649 0.0
C1012 C 0.29856 0.78216 0.84475 0.0
H1013 H 0.24744 0.71939 0.8909 0.0
H1014 H 0.31521 0.80271 0.87757 0.0
C1015 C 0.26905 0.74181 0.83067 0.0
C1016 C 0.30931 0.53805 0.83816 0.0
C1017 C 0.31736 0.53611 0.85987 0.0
H1018 H 0.25488 0.52535 0.8138 0.0
C1019 C 0.2783 0.52939 0.87405 0.0
H1020 H 0.33866 0.54344 0.82683 0.0
C1021 C 0.2307 0.52076 0.86651 0.0
C1022 C 0.22101 0.51698 0.84478 0.0
H1023 H 0.28374 0.52853 0.89092 0.0
H1024 H 0.20043 0.513 0.87759 0.0
C1025 C 0.26137 0.52786 0.83069 0.0
C1026 C 0.41636 0.80596 1.00767 0.0
C1027 C 0.44896 0.79962 1.02183 0.0
H1028 H 0.35471 0.8221 1.00413 0.0
C1029 C 0.43932 0.79815 0.04357 0.0
H1030 H 0.42241 0.80646 0.99079 0.0
C1031 C 0.40163 0.80844 0.05103 0.0
C1032 C 0.37187 0.81893 0.03694 0.0
H1033 H 0.46348 0.79307 0.05488 0.0
H1034 H 0.3979 0.8113 0.06793 0.0
C1035 C 0.37745 0.81466 1.01522 0.0
C1036 C 0.19726 0.61109 1.00768 0.0
C1037 C 0.20359 0.65002 1.02185 0.0
H1038 H 0.18113 0.53331 1.00415 0.0
C1039 C 0.20506 0.64184 0.04359 0.0
H1040 H 0.19675 0.61664 0.9908 0.0
C1041 C 0.19479 0.59387 0.05105 0.0
C1042 C 0.1843 0.55363 0.03696 0.0
H1043 H 0.21014 0.67109 0.0549 0.0
H1044 H 0.19193 0.58727 0.06794 0.0
C1045 C 0.18856 0.56347 1.01523 0.0
C1046 C 0.39214 0.5868 1.00766 0.0
C1047 C 0.3532 0.55423 1.02184 0.0
H1048 H 0.46993 0.64843 1.00412 0.0
C1049 C 0.36139 0.56391 0.04357 0.0
H1050 H 0.38659 0.58073 0.99079 0.0
C1051 C 0.40936 0.6016 0.05103 0.0
C1052 C 0.44961 0.63134 0.03694 0.0
H1053 H 0.33214 0.53977 0.05489 0.0
H1054 H 0.41596 0.60537 0.06792 0.0
C1055 C 0.43976 0.62572 1.01521 0.0
C1056 C 0.19672 0.58636 0.50727 0.0
C1057 C 0.20342 0.55401 0.52145 0.0
H1058 H 0.18035 0.64785 0.50373 0.0
C1059 C 0.20532 0.56397 0.54317 0.0
H1060 H 0.19588 0.58007 0.4904 0.0
C1061 C 0.19513 0.60172 0.55063 0.0
C1062 C 0.18428 0.63123 0.53654 0.0
H1063 H 0.21069 0.54001 0.55449 0.0
H1064 H 0.1926 0.6057 0.56752 0.0
C1065 C 0.18809 0.62533 0.51481 0.0
C1066 C 0.41675 0.61097 0.50727 0.0
C1067 C 0.44909 0.65001 0.52146 0.0
H1068 H 0.35526 0.5331 0.50373 0.0
C1069 C 0.43912 0.64195 0.54317 0.0
H1070 H 0.42305 0.61642 0.4904 0.0
C1071 C 0.40136 0.59401 0.55063 0.0
C1072 C 0.37186 0.55366 0.53655 0.0
H1073 H 0.46307 0.67128 0.5545 0.0
H1074 H 0.39738 0.5875 0.56753 0.0
C1075 C 0.37777 0.56336 0.51481 0.0
C1076 C 0.4091 0.80795 0.55065 0.0
C1077 C 0.44946 0.81878 0.53657 0.0
H1078 H 0.33183 0.7924 0.5545 0.0
C1079 C 0.43976 0.81495 0.51483 0.0
H1080 H 0.41559 0.8105 0.56754 0.0
C1081 C 0.39216 0.80631 0.50728 0.0
C1082 C 0.35311 0.79963 0.52146 0.0
H1083 H 0.47003 0.82267 0.50376 0.0
H1084 H 0.38672 0.80714 0.49041 0.0
C1085 C 0.36116 0.79775 0.54318 0.0
C1086 C 0.23114 0.53775 0.33773 0.0
C1087 C 0.22148 0.53626 0.35946 0.0
H1088 H 0.27259 0.52463 0.31338 0.0
C1089 C 0.25406 0.5299 0.37364 0.0
H1090 H 0.20699 0.54285 0.32642 0.0
C1091 C 0.29298 0.5212 0.36609 0.0
C1092 C 0.29858 0.51696 0.34436 0.0
H1093 H 0.248 0.52938 0.39051 0.0
H1094 H 0.31571 0.51375 0.37717 0.0
C1095 C 0.26884 0.52747 0.33027 0.0
C1096 C 0.47322 0.7248 0.37365 0.0
C1097 C 0.46687 0.68587 0.35948 0.0
H1098 H 0.48938 0.80259 0.37719 0.0
C1099 C 0.46539 0.69406 0.33775 0.0
H1100 H 0.47374 0.71925 0.39053 0.0
C1101 C 0.47567 0.74203 0.33028 0.0
C1102 C 0.48617 0.78228 0.34438 0.0
H1103 H 0.46029 0.66482 0.32642 0.0
H1104 H 0.47851 0.74864 0.31339 0.0
C1105 C 0.48193 0.77243 0.3661 0.0
C1106 C 0.26111 0.73433 0.33027 0.0
C1107 C 0.22086 0.70456 0.34436 0.0
H1108 H 0.33832 0.79619 0.32642 0.0
C1109 C 0.23071 0.71012 0.36608 0.0
H1110 H 0.25451 0.7306 0.31338 0.0
C1111 C 0.27833 0.74903 0.37364 0.0
C1112 C 0.31726 0.78164 0.35947 0.0
H1113 H 0.20054 0.68737 0.37717 0.0
H1114 H 0.28387 0.75507 0.39052 0.0
C1115 C 0.30908 0.77201 0.33774 0.0
C1116 C 0.29192 0.4018 0.20382 0.0
C1117 C 0.25673 0.3534 0.19546 0.0
H1118 H 0.37156 0.45559 0.20924 0.0
C1119 C 0.27303 0.33323 0.17915 0.0
H1120 H 0.28015 0.41818 0.21639 0.0
C1121 C 0.32571 0.35419 0.17532 0.0
C1122 C 0.3617 0.39625 0.18729 0.0
H1123 H 0.24662 0.29593 0.17245 0.0
H1124 H 0.33818 0.33271 0.16562 0.0
C1125 C 0.34449 0.42317 0.19979 0.0
C1126 C 0.649 0.97221 0.17529 0.0
C1127 C 0.60694 0.96615 0.18726 0.0
H1128 H 0.70725 0.9514 0.17241 0.0
C1129 C 0.58 0.922 0.19975 0.0
H1130 H 0.67049 0.00618 0.1656 0.0
C1131 C 0.60135 0.89078 0.20377 0.0
C1132 C 0.64976 0.904 0.19542 0.0
H1133 H 0.54757 0.91667 0.20919 0.0
H1134 H 0.58494 0.86263 0.21635 0.0
C1135 C 0.66994 0.94047 0.17911 0.0
C1136 C 0.06271 0.73016 0.17915 0.0
C1137 C 0.09919 0.74642 0.19545 0.0
H1138 H 0.99701 0.66507 0.16561 0.0
C1139 C 0.11237 0.7112 0.2038 0.0
H1140 H 0.05184 0.75661 0.17246 0.0
C1141 C 0.08115 0.65864 0.19976 0.0
C1142 C 0.03701 0.64147 0.18726 0.0
H1143 H 0.14053 0.72293 0.21637 0.0
H1144 H 0.08648 0.63153 0.2092 0.0
C1145 C 0.03097 0.6775 0.1753 0.0
C1146 C 0.33399 0.27272 0.36894 0.0
C1147 C 0.35396 0.25617 0.35264 0.0
H1148 H 0.33368 0.33807 0.38235 0.0
C1149 C 0.4023 0.2912 0.34419 0.0
H1150 H 0.29674 0.24642 0.37572 0.0
C1151 C 0.42376 0.34383 0.3481 0.0
C1152 C 0.397 0.36125 0.36059 0.0
H1153 H 0.41854 0.27924 0.33162 0.0
H1154 H 0.45611 0.37075 0.33858 0.0
C1155 C 0.35505 0.32544 0.37266 0.0
C1156 C 0.65927 0.08059 0.34813 0.0
C1157 C 0.64188 0.03641 0.36062 0.0
H1158 H 0.72379 0.13995 0.33164 0.0
C1159 C 0.67771 0.03028 0.37268 0.0
H1160 H 0.6323 0.08597 0.33862 0.0
C1161 C 0.73043 0.06197 0.36895 0.0
C1162 C 0.74694 0.09847 0.35265 0.0
H1163 H 0.66508 0.99628 0.38237 0.0
H1164 H 0.75672 0.051 0.37573 0.0
C1165 C 0.71189 0.11178 0.34421 0.0
C1166 C 0.89139 0.60089 0.34417 0.0
C1167 C 0.90471 0.64922 0.35264 0.0
H1168 H 0.91711 0.54707 0.33854 0.0
C1169 C 0.94121 0.66914 0.36894 0.0
H1170 H 0.8632 0.58469 0.33161 0.0
C1171 C 0.97287 0.64807 0.37266 0.0
C1172 C 0.96671 0.60613 0.36057 0.0
H1173 H 0.95217 0.70638 0.37573 0.0
H1174 H 0.00686 0.6694 0.38235 0.0
C1175 C 0.92253 0.5794 0.34808 0.0
C1176 C 0.67812 0.64838 0.87266 0.0
C1177 C 0.64213 0.60632 0.86069 0.0
H1178 H 0.75717 0.70664 0.87554 0.0
C1179 C 0.65935 0.57939 0.8482 0.0
H1180 H 0.66563 0.66985 0.88236 0.0
C1181 C 0.71192 0.60076 0.84417 0.0
C1182 C 0.7471 0.64916 0.85253 0.0
H1183 H 0.63226 0.54697 0.83875 0.0
H1184 H 0.72367 0.58435 0.8316 0.0
C1185 C 0.7308 0.66933 0.86884 0.0
C1186 C 0.40247 0.11175 0.84421 0.0
C1187 C 0.35408 0.09855 0.85256 0.0
H1188 H 0.45625 0.08587 0.83878 0.0
C1189 C 0.33389 0.06207 0.86887 0.0
H1190 H 0.41887 0.13991 0.83164 0.0
C1191 C 0.35483 0.03033 0.8727 0.0
C1192 C 0.39688 0.03639 0.86073 0.0
H1193 H 0.29658 0.05118 0.87557 0.0
H1194 H 0.33332 0.99637 0.88239 0.0
C1195 C 0.42383 0.08053 0.84823 0.0
C1196 C 0.89144 0.2913 0.84419 0.0
C1197 C 0.90463 0.25609 0.85254 0.0
H1198 H 0.91731 0.37095 0.83878 0.0
C1199 C 0.9411 0.27236 0.86885 0.0
H1200 H 0.86328 0.27955 0.83162 0.0
C1201 C 0.97283 0.32503 0.87269 0.0
C1202 C 0.96678 0.36104 0.86072 0.0
H1203 H 0.95198 0.24593 0.87554 0.0
H1204 H 0.00679 0.33747 0.88238 0.0
C1205 C 0.92264 0.34386 0.84823 0.0
C1206 C 0.58005 0.65866 0.69989 0.0
C1207 C 0.60682 0.64125 0.6874 0.0
H1208 H 0.58523 0.7232 0.71637 0.0
C1209 C 0.64877 0.67706 0.67533 0.0
H1210 H 0.54771 0.6317 0.7094 0.0
C1211 C 0.66981 0.72979 0.67905 0.0
C1212 C 0.64983 0.74632 0.69535 0.0
H1213 H 0.67012 0.66442 0.66564 0.0
H1214 H 0.70706 0.75607 0.67227 0.0
C1215 C 0.60149 0.71129 0.70379 0.0
C1216 C 0.34451 0.92189 0.69984 0.0
C1217 C 0.3619 0.96608 0.68735 0.0
H1218 H 0.27998 0.86252 0.71632 0.0
C1219 C 0.32608 0.97221 0.67529 0.0
H1220 H 0.37148 0.91651 0.70935 0.0
C1221 C 0.27335 0.94051 0.67902 0.0
C1222 C 0.25684 0.904 0.69531 0.0
H1223 H 0.33871 0.00621 0.6656 0.0
H1224 H 0.24707 0.95148 0.67224 0.0
C1225 C 0.29189 0.8907 0.70375 0.0
C1226 C 0.08125 0.42308 0.69986 0.0
C1227 C 0.03706 0.39631 0.68738 0.0
H1228 H 0.14061 0.4179 0.71634 0.0
C1229 C 0.03093 0.35436 0.67531 0.0
H1230 H 0.08663 0.45543 0.70938 0.0
C1231 C 0.06262 0.33332 0.67903 0.0
C1232 C 0.09913 0.3533 0.69533 0.0
H1233 H 0.99693 0.333 0.66562 0.0
H1234 H 0.05165 0.29607 0.67225 0.0
C1235 C 0.11244 0.40165 0.70377 0.0
C1236 C 0.95861 0.73513 0.53712 0.0
C1237 C 0.92342 0.68673 0.52876 0.0
H1238 H 0.03825 0.78892 0.54254 0.0
C1239 C 0.93971 0.66656 0.51245 0.0
H1240 H 0.94684 0.75152 0.54969 0.0
C1241 C 0.99238 0.68751 0.50862 0.0
C1242 C 0.02838 0.72957 0.52059 0.0
H1243 H 0.9133 0.62926 0.50575 0.0
H1244 H 0.00485 0.66602 0.49892 0.0
C1245 C 0.01118 0.7565 0.53308 0.0
C1246 C 0.26803 0.22409 0.53712 0.0
C1247 C 0.31643 0.23729 0.52877 0.0
H1248 H 0.21424 0.24995 0.54253 0.0
C1249 C 0.33663 0.27377 0.51246 0.0
H1250 H 0.25163 0.19593 0.54969 0.0
C1251 C 0.31568 0.30549 0.50863 0.0
C1252 C 0.27361 0.29944 0.52059 0.0
H1253 H 0.37394 0.28466 0.50576 0.0
H1254 H 0.33718 0.33946 0.49893 0.0
C1255 C 0.24667 0.25529 0.53309 0.0
C1256 C 0.69761 0.01076 0.50865 0.0
C1257 C 0.70367 0.97476 0.52062 0.0
H1258 H 0.71841 0.08982 0.50577 0.0
C1259 C 0.74781 0.99197 0.53311 0.0
H1260 H 0.66364 0.99827 0.49896 0.0
C1261 C 0.77903 0.04454 0.53713 0.0
C1262 C 0.76582 0.07973 0.52877 0.0
H1263 H 0.75315 0.96487 0.54256 0.0
H1264 H 0.80718 0.05628 0.5497 0.0
C1265 C 0.72934 0.06343 0.51247 0.0
C1266 C 0.02181 0.65873 0.706 0.0
C1267 C 0.06375 0.69452 0.69392 0.0
H1268 H 0.9635 0.57975 0.70908 0.0
C1269 C 0.09049 0.67707 0.68143 0.0
H1270 H 1.00048 0.67141 0.71569 0.0
C1271 C 0.06902 0.62444 0.67753 0.0
C1272 C 0.02068 0.58943 0.68599 0.0
H1273 H 0.12283 0.704 0.6719 0.0
H1274 H 0.08525 0.61249 0.66496 0.0
C1275 C 1.00075 0.606 0.70229 0.0
C1276 C 0.32603 0.41387 0.68145 0.0
C1277 C 0.30862 0.36968 0.69393 0.0
H1278 H 0.39057 0.47324 0.66497 0.0
C1279 C 0.34443 0.36354 0.706 0.0
H1280 H 0.29907 0.41926 0.67193 0.0
C1281 C 0.39716 0.39524 0.70228 0.0
C1282 C 0.41369 0.43175 0.68599 0.0
H1283 H 0.3318 0.32954 0.71569 0.0
H1284 H 0.42344 0.38426 0.70906 0.0
C1285 C 0.37866 0.44506 0.67754 0.0
C1286 C 0.6396 0.98138 0.70599 0.0
C1287 C 0.63346 0.93943 0.69392 0.0
H1288 H 0.61892 0.03969 0.70906 0.0
C1289 C 0.58928 0.91268 0.68143 0.0
H1290 H 0.6736 0.00271 0.71568 0.0
C1291 C 0.55811 0.93415 0.67752 0.0
C1292 C 0.57143 0.98249 0.68597 0.0
H1293 H 0.58387 0.88034 0.67191 0.0
H1294 H 0.52993 0.91791 0.66495 0.0
C1295 C 0.60792 0.00243 0.70228 0.0
C1296 C 0.32594 0.91274 0.18156 0.0
C1297 C 0.30876 0.93969 0.19406 0.0
H1298 H 0.39021 0.91765 0.16494 0.0
C1299 C 0.34478 0.98175 0.20602 0.0
H1300 H 0.29882 0.88031 0.17212 0.0
C1301 C 0.39745 0.00269 0.20218 0.0
C1302 C 0.41371 0.98248 0.18587 0.0
H1303 H 0.33232 0.00325 0.21571 0.0
H1304 H 0.42385 0.04 0.20887 0.0
C1305 C 0.3785 0.93408 0.17752 0.0
C1306 C 0.06908 0.4451 0.17751 0.0
C1307 C 0.02068 0.43189 0.18587 0.0
H1308 H 0.12287 0.41925 0.17209 0.0
C1309 C 1.0005 0.39542 0.20218 0.0
H1310 H 0.08547 0.47326 0.16494 0.0
C1311 C 0.02146 0.3637 0.20601 0.0
C1312 C 0.06352 0.36976 0.19404 0.0
H1313 H 0.9632 0.38453 0.20888 0.0
H1314 H 0.99996 0.32974 0.2157 0.0
C1315 C 0.09045 0.4139 0.18154 0.0
C1316 C 0.60775 0.60575 0.20216 0.0
C1317 C 0.57126 0.58948 0.18586 0.0
H1318 H 0.67345 0.67084 0.21569 0.0
C1319 C 0.55807 0.6247 0.17751 0.0
H1320 H 0.61862 0.57931 0.20885 0.0
C1321 C 0.5893 0.67726 0.18155 0.0
C1322 C 0.63344 0.69443 0.19404 0.0
H1323 H 0.52991 0.61296 0.16495 0.0
H1324 H 0.58397 0.70436 0.17211 0.0
C1325 C 0.63948 0.65841 0.206 0.0
C1326 C 0.31537 0.01043 1.00865 0.0
C1327 C 0.27343 0.97465 1.02073 0.0
H1328 H 0.37369 0.08941 1.00558 0.0
C1329 C 0.24669 0.99209 0.03323 0.0
H1330 H 0.3367 0.99776 0.99896 0.0
C1331 C 0.26817 0.04472 0.03713 0.0
C1332 C 0.31651 0.07973 0.02867 0.0
H1333 H 0.21435 0.96515 0.04275 0.0
H1334 H 0.25194 0.05667 0.04971 0.0
C1335 C 0.33644 0.06317 1.01237 0.0
C1336 C 0.01116 0.25532 0.03323 0.0
C1337 C 0.02857 0.2995 1.02074 0.0
H1338 H 0.94661 0.19595 0.0497 0.0
C1339 C 0.99276 0.30564 1.00866 0.0
H1340 H 0.03811 0.24993 0.04274 0.0
C1341 C 0.94003 0.27395 1.01238 0.0
C1342 C 0.92349 0.23743 0.02868 0.0
H1343 H 0.00541 0.33964 0.99897 0.0
H1344 H 0.91376 0.28492 1.0056 0.0
C1345 C 0.95853 0.22413 0.03713 0.0
C1346 C 0.77908 0.73505 0.0371 0.0
C1347 C 0.76576 0.68671 0.02865 0.0
H1348 H 0.75335 0.78887 0.04272 0.0
C1349 C 0.72926 0.66677 1.01235 0.0
H1350 H 0.80727 0.75126 0.04967 0.0
C1351 C 0.69759 0.68784 1.00862 0.0
C1352 C 0.70375 0.72979 1.0207 0.0
H1353 H 0.71829 0.62952 1.00556 0.0
H1354 H 0.6636 0.66649 0.99893 0.0
C1355 C 0.74793 0.75653 0.03319 0.0
C1356 C 0.67785 0.08975 0.86644 0.0
C1357 C 0.69504 0.06281 0.85394 0.0
H1358 H 0.61357 0.08483 0.88304 0.0
C1359 C 0.65903 0.02075 0.84197 0.0
H1360 H 0.70496 0.12218 0.87587 0.0
C1361 C 0.60636 0.99981 0.84581 0.0
C1362 C 0.59008 0.02001 0.86211 0.0
H1363 H 0.6715 0.99925 0.83228 0.0
H1364 H 0.57996 0.9625 0.83911 0.0
C1365 C 0.62528 0.06841 0.87046 0.0
C1366 C 0.91336 0.58865 0.86642 0.0
C1367 C 0.94033 0.63279 0.85393 0.0
H1368 H 0.91825 0.52927 0.88303 0.0
C1369 C 0.98239 0.63882 0.84197 0.0
H1370 H 0.88093 0.58334 0.87586 0.0
C1371 C 0.0033 0.60707 0.8458 0.0
C1372 C 0.98309 0.57059 0.86211 0.0
H1373 H 0.00389 0.67279 0.83227 0.0
H1374 H 0.04062 0.61797 0.8391 0.0
C1375 C 0.93468 0.5574 0.87045 0.0
C1376 C 0.41452 0.32528 0.86643 0.0
C1377 C 0.37038 0.30812 0.85393 0.0
H1378 H 0.4739 0.38953 0.88304 0.0
C1379 C 0.36435 0.34416 0.84198 0.0
H1380 H 0.41982 0.29815 0.87586 0.0
C1381 C 0.3961 0.39682 0.84582 0.0
C1382 C 0.43258 0.41307 0.86212 0.0
H1383 H 0.33039 0.33172 0.83229 0.0
H1384 H 0.38521 0.42325 0.83913 0.0
C1385 C 0.44576 0.37784 0.87046 0.0
C1386 C 0.73565 0.95788 1.01084 0.0
C1387 C 0.68731 0.92286 1.0193 0.0
H1388 H 0.78947 0.03742 1.00522 0.0
C1389 C 0.66737 0.93941 0.0356 0.0
H1390 H 0.75186 0.9459 0.99827 0.0
C1391 C 0.68845 0.99215 0.03933 0.0
C1392 C 0.73039 0.02794 0.02725 0.0
H1393 H 0.63013 0.91313 0.04239 0.0
H1394 H 0.66711 0.00479 0.04902 0.0
C1395 C 0.75713 0.0105 1.01476 0.0
C1396 C 0.99267 0.74728 1.01477 0.0
C1397 C 0.97526 0.70309 0.02726 0.0
H1398 H 0.05721 0.80664 0.99829 0.0
C1399 C 0.01107 0.69696 0.03933 0.0
H1400 H 0.96572 0.75266 1.00525 0.0
C1401 C 0.0638 0.72865 0.03561 0.0
C1402 C 0.08033 0.76516 1.01931 0.0
H1403 H 0.99842 0.66296 0.04902 0.0
H1404 H 0.09007 0.71768 0.0424 0.0
C1405 C 0.0453 0.77846 1.01087 0.0
C1406 C 0.27456 0.33583 0.03563 0.0
C1407 C 0.23805 0.31585 1.01933 0.0
H1408 H 0.34023 0.33616 0.04904 0.0
C1409 C 0.22474 0.2675 1.01089 0.0
H1410 H 0.28551 0.37308 0.0424 0.0
C1411 C 0.25591 0.24605 1.0148 0.0
C1412 C 0.3001 0.27282 0.02729 0.0
H1413 H 0.19654 0.25125 0.99832 0.0
H1414 H 0.2505 0.2137 1.00528 0.0
C1415 C 0.30624 0.31478 0.03936 0.0
C1416 C 0.06409 0.33594 0.5355 0.0
C1417 C 0.08036 0.31573 0.5192 0.0
H1418 H 0.99899 0.33653 0.54903 0.0
C1419 C 0.04515 0.26733 0.51085 0.0
H1420 H 0.09053 0.37325 0.54219 0.0
C1421 C 0.99258 0.24599 0.51489 0.0
C1422 C 0.9754 0.27295 0.52738 0.0
H1423 H 0.05689 0.25091 0.49828 0.0
H1424 H 0.96549 0.21356 0.50544 0.0
C1425 C 0.01143 0.31501 0.53934 0.0
C1426 C 0.73575 0.7784 0.51086 0.0
C1427 C 0.68735 0.76519 0.51921 0.0
H1428 H 0.78953 0.75254 0.50544 0.0
C1429 C 0.66716 0.72872 0.53552 0.0
H1430 H 0.75214 0.80656 0.49829 0.0
C1431 C 0.68811 0.69699 0.53935 0.0
C1432 C 0.73017 0.70305 0.52739 0.0
H1433 H 0.62985 0.71783 0.54222 0.0
H1434 H 0.66661 0.66303 0.54905 0.0
C1435 C 0.75711 0.7472 0.51489 0.0
C1436 C 0.22477 0.95795 0.51083 0.0
C1437 C 0.23798 0.92276 0.51919 0.0
H1438 H 0.25062 0.03759 0.5054 0.0
C1439 C 0.27445 0.93906 0.5355 0.0
H1440 H 0.19662 0.94618 0.49825 0.0
C1441 C 0.30617 0.99173 0.53933 0.0
C1442 C 0.3001 0.02773 0.52735 0.0
H1443 H 0.28534 0.91265 0.5422 0.0
H1444 H 0.34012 0.0042 0.54902 0.0
C1445 C 0.25597 0.01052 0.51486 0.0
C1446 C 0.00306 0.39649 0.3457 0.0
C1447 C 0.98309 0.41303 0.362 0.0
H1448 H 0.00337 0.33114 0.33228 0.0
C1449 C 0.93474 0.378 0.37044 0.0
H1450 H 0.04031 0.42279 0.33892 0.0
C1451 C 0.91328 0.32537 0.36653 0.0
C1452 C 0.94005 0.30796 0.35404 0.0
H1453 H 0.9185 0.38995 0.38301 0.0
H1454 H 0.88094 0.29844 0.37605 0.0
C1455 C 0.982 0.34376 0.34197 0.0
C1456 C 0.65939 0.63893 0.34197 0.0
C1457 C 0.69519 0.63277 0.35404 0.0
H1458 H 0.5804 0.61825 0.3389 0.0
C1459 C 0.67776 0.58859 0.36653 0.0
H1460 H 0.67205 0.67293 0.33228 0.0
C1461 C 0.62513 0.55742 0.37044 0.0
C1462 C 0.59011 0.57075 0.36198 0.0
H1463 H 0.70469 0.58318 0.37605 0.0
H1464 H 0.61318 0.52923 0.38301 0.0
C1465 C 0.60666 0.60725 0.34568 0.0
C1466 C 0.41449 0.0898 0.36656 0.0
C1467 C 0.37032 0.06304 0.35407 0.0
H1468 H 0.47384 0.0846 0.38304 0.0
C1469 C 0.36418 0.02109 0.342 0.0
H1470 H 0.41988 0.12214 0.37608 0.0
C1471 C 0.39587 1.00005 0.34572 0.0
C1472 C 0.43237 0.02002 0.36202 0.0
H1473 H 0.33019 0.99975 0.33231 0.0
H1474 H 0.3849 0.9628 0.33894 0.0
C1475 C 0.44568 0.06836 0.37047 0.0
C1476 C 0.21273 0.38805 0.10878 0.0
C1477 C 0.19792 0.36458 0.08878 0.0
H1478 H 0.20479 0.37756 0.14238 0.0
C1479 C 0.17458 0.31078 0.08762 0.0
H1480 H 0.2299 0.42939 0.11019 0.0
C1481 C 0.15911 0.28099 0.10614 0.0
C1482 C 0.16779 0.30446 0.12614 0.0
H1483 H 0.1617 0.29149 0.07253 0.0
H1484 H 0.13486 0.23965 0.10472 0.0
C1485 C 0.19835 0.35825 0.12729 0.0
C1486 C 0.61515 0.82535 0.10874 0.0
C1487 C 0.63863 0.83399 0.08874 0.0
H1488 H 0.62562 0.82789 0.14235 0.0
C1489 C 0.69243 0.86444 0.0876 0.0
H1490 H 0.57381 0.80117 0.11016 0.0
C1491 C 0.72222 0.87876 0.10612 0.0
C1492 C 0.69873 0.86397 0.12612 0.0
H1493 H 0.71173 0.87084 0.07251 0.0
H1494 H 0.76355 0.89584 0.10469 0.0
C1495 C 0.64494 0.84075 0.12726 0.0
C1496 C 0.16246 0.80489 0.12729 0.0
C1497 C 0.13922 0.83545 0.12613 0.0
H1498 H 0.20204 0.77333 0.11021 0.0
C1499 C 0.12445 0.84414 0.10613 0.0
H1500 H 0.1753 0.79845 0.14239 0.0
C1501 C 0.13878 0.82866 0.08762 0.0
C1502 C 0.16923 0.80531 0.08877 0.0
H1503 H 0.10736 0.86838 0.10471 0.0
H1504 H 0.13238 0.84155 0.07253 0.0
C1505 C 0.17786 0.79049 0.10878 0.0
C1506 C 0.31161 0.17408 0.46062 0.0
C1507 C 0.36539 0.19731 0.45946 0.0
H1508 H 0.24045 0.13449 0.44355 0.0
C1509 C 0.38884 0.21208 0.43945 0.0
H1510 H 0.29233 0.16123 0.47572 0.0
C1511 C 0.35903 0.19775 0.42094 0.0
C1512 C 0.30523 0.1673 0.42211 0.0
H1513 H 0.43018 0.22917 0.43802 0.0
H1514 H 0.37831 0.20415 0.40585 0.0
C1515 C 0.28179 0.15867 0.44211 0.0
C1516 C 0.80537 0.16196 0.42094 0.0
C1517 C 0.83581 0.1386 0.42209 0.0
H1518 H 0.77398 0.2017 0.43804 0.0
C1519 C 0.84445 0.12377 0.44209 0.0
H1520 H 0.79898 0.17486 0.40585 0.0
C1521 C 0.82905 0.13816 0.46061 0.0
C1522 C 0.80583 0.16873 0.45946 0.0
H1523 H 0.86862 0.10659 0.44351 0.0
H1524 H 0.8419 0.1317 0.4757 0.0
C1525 C 0.79105 0.17743 0.43946 0.0
C1526 C 0.87932 0.72136 0.44209 0.0
C1527 C 0.86449 0.69789 0.42209 0.0
H1528 H 0.87139 0.71088 0.4757 0.0
C1529 C 0.84115 0.64409 0.42094 0.0
H1530 H 0.89648 0.7627 0.44351 0.0
C1531 C 0.82569 0.6143 0.43946 0.0
C1532 C 0.83439 0.63778 0.45946 0.0
H1533 H 0.82827 0.6248 0.40585 0.0
H1534 H 0.80145 0.57296 0.43804 0.0
C1535 C 0.86495 0.69157 0.46061 0.0
C1536 C 0.80551 0.64433 0.92069 0.0
C1537 C 0.83607 0.69812 0.92185 0.0
H1538 H 0.77393 0.57319 0.93778 0.0
C1539 C 0.84476 0.72159 0.94185 0.0
H1540 H 0.79907 0.62504 0.9056 0.0
C1541 C 0.82927 0.69179 0.96037 0.0
C1542 C 0.80592 0.63799 0.95921 0.0
H1543 H 0.86901 0.76292 0.94327 0.0
H1544 H 0.84216 0.71108 0.97545 0.0
C1545 C 0.7911 0.61453 0.93921 0.0
C1546 C 0.35887 0.16184 0.92071 0.0
C1547 C 0.30508 0.1386 0.92187 0.0
H1548 H 0.43002 0.20143 0.9378 0.0
C1549 C 0.28161 0.12383 0.94187 0.0
H1550 H 0.37816 0.17468 0.90562 0.0
C1551 C 0.31141 0.13815 0.96039 0.0
C1552 C 0.36521 0.16861 0.95923 0.0
H1553 H 0.24028 0.10673 0.94329 0.0
H1554 H 0.29212 0.13175 0.97547 0.0
C1555 C 0.38867 0.17725 0.93922 0.0
C1556 C 0.87937 0.15842 0.94185 0.0
C1557 C 0.86459 0.16712 0.92185 0.0
H1558 H 0.87146 0.161 0.97545 0.0
C1559 C 0.84137 0.19768 0.92069 0.0
H1560 H 0.89645 0.13417 0.94327 0.0
C1561 C 0.82597 0.21208 0.93921 0.0
C1562 C 0.83461 0.19726 0.95921 0.0
H1563 H 0.82852 0.20413 0.9056 0.0
H1564 H 0.8018 0.22926 0.93779 0.0
C1565 C 0.86506 0.17391 0.96037 0.0
C1566 C 0.61494 0.79044 0.60853 0.0
C1567 C 0.63841 0.80522 0.58852 0.0
H1568 H 0.62544 0.79835 0.64213 0.0
C1569 C 0.6922 0.82844 0.58737 0.0
H1570 H 0.5736 0.77336 0.60995 0.0
C1571 C 0.722 0.84384 0.60588 0.0
C1572 C 0.69854 0.8352 0.62589 0.0
H1573 H 0.71149 0.84128 0.57228 0.0
H1574 H 0.76334 0.86801 0.60446 0.0
C1575 C 0.64474 0.80475 0.62704 0.0
C1576 C 0.17471 0.86431 0.58736 0.0
C1577 C 0.19793 0.83375 0.58851 0.0
H1578 H 0.13513 0.89587 0.60445 0.0
C1579 C 0.21272 0.82505 0.60851 0.0
H1580 H 0.16186 0.87076 0.57226 0.0
C1581 C 0.1984 0.84052 0.62703 0.0
C1582 C 0.16795 0.86388 0.62587 0.0
H1583 H 0.2298 0.8008 0.60993 0.0
H1584 H 0.2048 0.82762 0.64211 0.0
C1585 C 0.15931 0.87871 0.60587 0.0
C1586 C 0.17807 0.38817 0.60851 0.0
C1587 C 0.16938 0.3647 0.58851 0.0
H1588 H 0.17551 0.37769 0.64212 0.0
C1589 C 0.13883 0.3109 0.58736 0.0
H1590 H 0.2023 0.42951 0.60993 0.0
C1591 C 0.12446 0.28111 0.60588 0.0
C1592 C 0.13929 0.30459 0.62588 0.0
H1593 H 0.13239 0.29161 0.57227 0.0
H1594 H 0.10731 0.23977 0.60446 0.0
C1595 C 0.16261 0.35838 0.62703 0.0
C1596 C 0.02576 0.53098 0.75428 0.0
C1597 C 0.97196 0.50053 0.75543 0.0
H1598 H 0.09689 0.5624 0.77136 0.0
C1599 C 0.9485 0.49189 0.77544 0.0
H1600 H 0.04503 0.53737 0.73918 0.0
C1601 C 0.9783 0.50731 0.79395 0.0
C1602 C 0.03209 0.53055 0.79279 0.0
H1603 H 0.90716 0.46772 0.77686 0.0
H1604 H 0.959 0.49447 0.80904 0.0
C1605 C 0.05556 0.54532 0.77279 0.0
C1606 C 0.51121 0.45708 0.77544 0.0
C1607 C 0.50256 0.47189 0.75544 0.0
H1608 H 0.50867 0.46502 0.80904 0.0
C1609 C 0.47209 0.49522 0.75429 0.0
H1610 H 0.5354 0.43992 0.77686 0.0
C1611 C 0.45777 0.51069 0.7728 0.0
C1612 C 0.47256 0.50201 0.7928 0.0
H1613 H 0.46568 0.5081 0.73919 0.0
H1614 H 0.44067 0.53493 0.77138 0.0
C1615 C 0.4958 0.47146 0.79396 0.0
C1616 C 0.50784 0.97736 0.75427 0.0
C1617 C 0.5312 0.03116 0.75542 0.0
H1618 H 0.4681 0.90623 0.77136 0.0
C1619 C 0.54603 0.05462 0.77542 0.0
H1620 H 0.49494 0.95807 0.73918 0.0
C1621 C 0.53164 0.02483 0.79394 0.0
C1622 C 0.50107 0.97104 0.79279 0.0
H1623 H 0.56321 0.09597 0.77684 0.0
H1624 H 0.5381 0.04414 0.80903 0.0
C1625 C 0.49237 0.94756 0.77279 0.0
C1626 C 0.51142 0.05492 0.27519 0.0
C1627 C 0.50272 0.03144 0.25519 0.0
H1628 H 0.50885 0.04445 0.30879 0.0
C1629 C 0.47215 0.97765 0.25404 0.0
H1630 H 0.53567 0.09626 0.2766 0.0
C1631 C 0.45776 0.94786 0.27256 0.0
C1632 C 0.47259 0.97134 0.29256 0.0
H1633 H 0.4657 0.95834 0.23895 0.0
H1634 H 0.44059 0.90652 0.27114 0.0
C1635 C 0.49594 0.02514 0.29371 0.0
C1636 C 0.0553 0.51055 0.27254 0.0
C1637 C 0.03183 0.5019 0.29254 0.0
H1638 H 0.04483 0.50801 0.23894 0.0
C1639 C 0.97803 0.47145 0.2937 0.0
H1640 H 0.09665 0.53472 0.27112 0.0
C1641 C 0.94824 0.45713 0.27518 0.0
C1642 C 0.97172 0.47192 0.25518 0.0
H1643 H 0.95874 0.46505 0.30879 0.0
H1644 H 0.90691 0.44005 0.2766 0.0
C1645 C 0.02551 0.49514 0.25402 0.0
C1646 C 0.50803 0.53105 0.25403 0.0
C1647 C 0.53127 0.5005 0.25519 0.0
H1648 H 0.46843 0.5626 0.27111 0.0
C1649 C 0.54605 0.49181 0.27519 0.0
H1650 H 0.49519 0.53748 0.23893 0.0
C1651 C 0.53172 0.50729 0.2937 0.0
C1652 C 0.50126 0.53063 0.29255 0.0
H1653 H 0.56315 0.46757 0.27661 0.0
H1654 H 0.53812 0.4944 0.30879 0.0
C1655 C 0.49262 0.54544 0.27254 0.0
C1656 C 0.01812 0.20489 0.29526 0.0
C1657 C 0.96538 0.17684 0.29078 0.0
H1658 H 0.09456 0.24248 0.28303 0.0
C1659 C 0.94966 0.17045 0.26944 0.0
H1660 H 0.03177 0.21239 0.31137 0.0
C1661 C 0.9857 0.18896 0.25304 0.0
C1662 C 0.03843 0.21344 0.25751 0.0
H1663 H 0.90925 0.15022 0.26527 0.0
H1664 H 0.97205 0.18307 0.23693 0.0
C1665 C 0.05416 0.22249 0.27886 0.0
C1666 C 0.83267 0.7799 0.26944 0.0
C1667 C 0.8263 0.78926 0.29078 0.0
H1668 H 0.82005 0.78965 0.23693 0.0
C1669 C 0.79827 0.81398 0.29525 0.0
H1670 H 0.85289 0.75971 0.26527 0.0
C1671 C 0.78067 0.83241 0.27885 0.0
C1672 C 0.78971 0.82571 0.2575 0.0
H1673 H 0.79077 0.82015 0.31136 0.0
H1674 H 0.7607 0.85285 0.28302 0.0
C1675 C 0.81416 0.79742 0.25304 0.0
C1676 C 0.22328 0.05344 0.26946 0.0
C1677 C 0.21388 0.03771 0.2908 0.0
H1678 H 0.21356 0.03106 0.23695 0.0
C1679 C 0.18912 0.98496 0.29527 0.0
H1680 H 0.2435 0.09385 0.26529 0.0
C1681 C 0.17069 0.94893 0.27887 0.0
C1682 C 0.17744 0.96467 0.25752 0.0
H1683 H 0.18292 0.9713 0.31138 0.0
H1684 H 0.15023 0.90853 0.28304 0.0
C1685 C 0.20576 0.01741 0.25306 0.0
C1686 C 0.01812 0.81355 0.79494 0.0
C1687 C 0.96538 0.78908 0.79047 0.0
H1688 H 0.09456 0.85228 0.78271 0.0
C1689 C 0.94964 0.78002 0.76912 0.0
H1690 H 0.03177 0.81945 0.81104 0.0
C1691 C 0.98567 0.79761 0.75272 0.0
C1692 C 0.03842 0.82565 0.75719 0.0
H1693 H 0.90924 0.76004 0.76495 0.0
H1694 H 0.97202 0.79009 0.73661 0.0
C1695 C 0.05415 0.83204 0.77854 0.0
C1696 C 0.20553 0.18851 0.75272 0.0
C1697 C 0.17752 0.21325 0.75719 0.0
H1698 H 0.24309 0.14964 0.76496 0.0
C1699 C 0.17117 0.22264 0.77853 0.0
H1700 H 0.21301 0.18233 0.73661 0.0
C1701 C 0.18968 0.20512 0.79493 0.0
C1702 C 0.21411 0.17682 0.79048 0.0
H1703 H 0.15096 0.24285 0.7827 0.0
H1704 H 0.18381 0.21291 0.81104 0.0
C1705 C 0.22313 0.17009 0.76913 0.0
C1706 C 0.83305 0.05355 0.76912 0.0
C1707 C 0.82635 0.03782 0.79047 0.0
H1708 H 0.8208 0.03117 0.73661 0.0
C1709 C 0.79807 0.98508 0.79494 0.0
H1710 H 0.85348 0.09396 0.76495 0.0
C1711 C 0.78055 0.94905 0.77854 0.0
C1712 C 0.78992 0.96478 0.75719 0.0
H1713 H 0.7903 0.97143 0.81105 0.0
H1714 H 0.76037 0.90864 0.78271 0.0
C1715 C 0.81463 0.01752 0.75272 0.0
C1716 C 0.6849 0.53815 0.6286 0.0
C1717 C 0.63216 0.51016 0.62413 0.0
H1718 H 0.76134 0.5757 0.61637 0.0
C1719 C 0.61642 0.50383 0.60279 0.0
H1720 H 0.69856 0.54562 0.64471 0.0
C1721 C 0.65245 0.52233 0.58639 0.0
C1722 C 0.70519 0.54675 0.59085 0.0
H1723 H 0.57601 0.48364 0.59862 0.0
H1724 H 0.6388 0.51648 0.57028 0.0
C1725 C 0.72093 0.55576 0.6122 0.0
C1726 C 0.4994 0.11319 0.60276 0.0
C1727 C 0.49302 0.12254 0.62411 0.0
H1728 H 0.48676 0.12295 0.57026 0.0
C1729 C 0.46498 0.14725 0.62858 0.0
H1730 H 0.51962 0.09301 0.59859 0.0
C1731 C 0.44737 0.16567 0.61218 0.0
C1732 C 0.45641 0.15898 0.59083 0.0
H1733 H 0.45749 0.15341 0.64469 0.0
H1734 H 0.42739 0.1861 0.61636 0.0
C1735 C 0.48088 0.13071 0.58637 0.0
C1736 C 0.85589 0.31826 0.62859 0.0
C1737 C 0.88061 0.37101 0.62412 0.0
H1738 H 0.81701 0.24183 0.61636 0.0
C1739 C 0.88998 0.38675 0.60278 0.0
H1740 H 0.84973 0.3046 0.6447 0.0
C1741 C 0.87244 0.35072 0.58638 0.0
C1742 C 0.84415 0.29798 0.59084 0.0
H1743 H 0.91017 0.42716 0.59861 0.0
H1744 H 0.88021 0.36437 0.57027 0.0
C1745 C 0.83745 0.28224 0.61219 0.0
C1746 C 0.72074 0.16541 0.11187 0.0
C1747 C 0.70501 0.15905 0.09052 0.0
H1748 H 0.69836 0.15278 0.14437 0.0
C1749 C 0.65227 0.13103 0.08605 0.0
H1750 H 0.76115 0.18561 0.11604 0.0
C1751 C 0.61623 0.11344 0.10245 0.0
C1752 C 0.63197 0.12247 0.1238 0.0
H1753 H 0.63861 0.12355 0.06994 0.0
H1754 H 0.57583 0.09348 0.09828 0.0
C1755 C 0.68471 0.14691 0.12827 0.0
C1756 C 0.88976 0.5035 0.10245 0.0
C1757 C 0.88072 0.5102 0.1238 0.0
H1758 H 0.87965 0.51577 0.06994 0.0
C1759 C 0.85627 0.53849 0.12827 0.0
H1760 H 0.90973 0.48306 0.09828 0.0
C1761 C 0.83777 0.55602 0.11187 0.0
C1762 C 0.84414 0.54666 0.09052 0.0
H1763 H 0.85039 0.54626 0.14437 0.0
H1764 H 0.81755 0.57621 0.11603 0.0
C1765 C 0.87216 0.52194 0.08605 0.0
C1766 C 0.49966 0.38693 0.10246 0.0
C1767 C 0.49297 0.3712 0.12381 0.0
H1768 H 0.4874 0.36456 0.06995 0.0
C1769 C 0.4647 0.31846 0.12828 0.0
H1770 H 0.52008 0.42734 0.09829 0.0
C1771 C 0.44719 0.28243 0.11188 0.0
C1772 C 0.45654 0.29816 0.09053 0.0
H1773 H 0.45694 0.30481 0.14439 0.0
H1774 H 0.42701 0.24202 0.11605 0.0
C1775 C 0.48124 0.3509 0.08606 0.0
C1776 C 0.38756 0.88912 0.94552 0.0
C1777 C 0.37182 0.88007 0.92417 0.0
H1778 H 0.36519 0.87904 0.97803 0.0
C1779 C 0.31908 0.85562 0.91971 0.0
H1780 H 0.42796 0.90909 0.94969 0.0
C1781 C 0.28305 0.83713 0.93611 0.0
C1782 C 0.29878 0.84351 0.95746 0.0
H1783 H 0.30543 0.84972 0.9036 0.0
H1784 H 0.24264 0.81691 0.93194 0.0
C1785 C 0.35153 0.87154 0.96193 0.0
C1786 C 0.13167 0.48066 0.96194 0.0
C1787 C 0.15967 0.45591 0.95747 0.0
H1788 H 0.09413 0.51955 0.9497 0.0
C1789 C 0.16601 0.44651 0.93613 0.0
H1790 H 0.12421 0.48686 0.97805 0.0
C1791 C 0.1475 0.46403 0.91972 0.0
C1792 C 0.12308 0.49235 0.92418 0.0
H1793 H 0.1862 0.42629 0.93196 0.0
H1794 H 0.15335 0.45623 0.90362 0.0
C1795 C 0.11407 0.49909 0.94553 0.0
C1796 C 0.53909 0.6841 0.9197 0.0
C1797 C 0.51086 0.63136 0.92417 0.0
H1798 H 0.57676 0.76054 0.93192 0.0
C1799 C 0.50419 0.61563 0.94552 0.0
H1800 H 0.54684 0.69774 0.90359 0.0
C1801 C 0.5226 0.65167 0.96192 0.0
C1802 C 0.54727 0.70441 0.95744 0.0
H1803 H 0.48379 0.57523 0.94969 0.0
H1804 H 0.51647 0.63802 0.97803 0.0
C1805 C 0.55661 0.72014 0.9361 0.0
C1806 C 0.28288 0.44671 0.43578 0.0
C1807 C 0.29862 0.45574 0.45713 0.0
H1808 H 0.30526 0.45683 0.40327 0.0
C1809 C 0.35136 0.48019 0.4616 0.0
H1810 H 0.24248 0.42674 0.43161 0.0
C1811 C 0.38739 0.4987 0.4452 0.0
C1812 C 0.37166 0.49234 0.42385 0.0
H1813 H 0.36501 0.48606 0.4777 0.0
H1814 H 0.4278 0.51892 0.44937 0.0
C1815 C 0.31892 0.46431 0.41938 0.0
C1816 C 0.53881 0.85524 0.4194 0.0
C1817 C 0.51075 0.87993 0.42387 0.0
H1818 H 0.57641 0.81641 0.43163 0.0
C1819 C 0.50436 0.88927 0.44522 0.0
H1820 H 0.54631 0.84909 0.40329 0.0
C1821 C 0.52288 0.87175 0.46161 0.0
C1822 C 0.54736 0.8435 0.45715 0.0
H1823 H 0.48412 0.90943 0.44939 0.0
H1824 H 0.51698 0.8795 0.47772 0.0
C1825 C 0.55642 0.83682 0.4358 0.0
C1826 C 0.13133 0.65177 0.46159 0.0
C1827 C 0.15964 0.7045 0.45713 0.0
H1828 H 0.09359 0.57533 0.44936 0.0
C1829 C 0.16635 0.72024 0.43578 0.0
H1830 H 0.12355 0.63812 0.4777 0.0
C1831 C 0.14791 0.68421 0.41938 0.0
C1832 C 0.12317 0.63147 0.42385 0.0
H1833 H 0.18681 0.76065 0.43161 0.0
H1834 H 0.15409 0.69787 0.40327 0.0
C1835 C 0.11379 0.61573 0.44519 0.0
loop_
_geom_bond_atom_site_label_1
_geom_bond_atom_site_label_2
_geom_bond_distance
_geom_bond_site_symmetry_2
_ccdc_geom_bond_type
O0 Mn1 2.163 . S
O0 C14 1.244 . S
Mn1 O0 2.163 . S
Mn1 O4 2.160 . S
Mn1 O5 2.221 . S
Mn1 O7 2.163 . S
Mn1 O9 2.160 . S
Mn1 O19 2.221 . S
O2 Mn3 2.087 . S
O2 C14 1.256 . S
Mn3 O2 2.087 . S
Mn3 O10 2.089 . S
Mn3 O19 2.290 . S
Mn3 O20 2.251 . S
O4 Mn1 2.160 . S
O4 C15 1.239 . S
O5 Mn1 2.221 . S
O5 Mn6 2.295 . S
O5 C16 1.278 1_455 S
Mn6 O5 2.295 . S
Mn6 O8 2.089 . S
Mn6 O11 2.253 1_455 S
Mn6 O12 2.096 . S
O7 Mn1 2.163 . S
O7 C17 1.244 . S
O8 Mn6 2.089 . S
O8 C15 1.256 . S
O9 Mn1 2.160 . S
O9 C18 1.239 . S
O10 Mn3 2.089 . S
O10 C18 1.256 . S
O11 Mn6 2.253 1_655 S
O11 C16 1.241 . S
O12 Mn6 2.096 . S
O12 C17 1.256 . S
C13 O19 1.278 . S
C13 O20 1.241 . S
C14 O0 1.244 . S
C14 O2 1.256 . S
C15 O4 1.239 . S
C15 O8 1.256 . S
C16 O5 1.278 1_655 S
C16 O11 1.241 . S
C17 O7 1.244 . S
C17 O12 1.256 . S
C18 O9 1.239 . S
C18 O10 1.256 . S
O19 Mn1 2.221 . S
O19 Mn3 2.290 . S
O19 C13 1.278 . S
O20 Mn3 2.251 . S
O20 C13 1.241 . S
O21 Mn22 2.163 . S
O21 C35 1.244 . S
Mn22 O21 2.163 . S
Mn22 O25 2.160 . S
Mn22 O26 2.221 . S
Mn22 O28 2.163 . S
Mn22 O30 2.160 . S
Mn22 O40 2.221 . S
O23 Mn24 2.087 . S
O23 C35 1.256 . S
Mn24 O23 2.087 . S
Mn24 O31 2.089 . S
Mn24 O40 2.290 . S
Mn24 O41 2.251 . S
O25 Mn22 2.160 . S
O25 C36 1.239 . S
O26 Mn22 2.221 . S
O26 Mn27 2.290 . S
O26 C37 1.278 . S
Mn27 O26 2.290 . S
Mn27 O29 2.089 . S
Mn27 O32 2.251 . S
Mn27 O33 2.087 . S
O28 Mn22 2.163 . S
O28 C38 1.244 . S
O29 Mn27 2.089 . S
O29 C36 1.256 . S
O30 Mn22 2.160 . S
O30 C39 1.239 . S
O31 Mn24 2.089 . S
O31 C39 1.256 . S
O32 Mn27 2.251 . S
O32 C37 1.241 . S
O33 Mn27 2.087 . S
O33 C38 1.256 . S
C34 O40 1.278 . S
C34 O41 1.241 . S
C35 O21 1.244 . S
C35 O23 1.256 . S
C36 O25 1.239 . S
C36 O29 1.256 . S
C37 O26 1.278 . S
C37 O32 1.241 . S
C38 O28 1.244 . S
C38 O33 1.256 . S
C39 O30 1.239 . S
C39 O31 1.256 . S
O40 Mn22 2.221 . S
O40 Mn24 2.290 . S
O40 C34 1.278 . S
O41 Mn24 2.251 . S
O41 C34 1.241 . S
O42 Mn43 2.163 . S
O42 C56 1.244 . S
Mn43 O42 2.163 . S
Mn43 O46 2.160 . S
Mn43 O47 2.221 . S
Mn43 O49 2.163 . S
Mn43 O51 2.160 . S
Mn43 O61 2.221 . S
O44 Mn45 2.087 . S
O44 C56 1.256 . S
Mn45 O44 2.087 . S
Mn45 O52 2.089 . S
Mn45 O61 2.290 . S
Mn45 O62 2.251 . S
O46 Mn43 2.160 . S
O46 C57 1.239 . S
O47 Mn43 2.221 . S
O47 Mn48 2.289 . S
O47 C58 1.278 1_565 S
Mn48 O47 2.289 . S
Mn48 O50 2.097 . S
Mn48 O53 2.243 1_565 S
Mn48 O54 2.093 . S
O49 Mn43 2.163 . S
O49 C59 1.244 . S
O50 Mn48 2.097 . S
O50 C57 1.256 . S
O51 Mn43 2.160 . S
O51 C60 1.239 . S
O52 Mn45 2.089 . S
O52 C60 1.256 . S
O53 Mn48 2.243 1_545 S
O53 C58 1.241 . S
O54 Mn48 2.093 . S
O54 C59 1.256 . S
C55 O61 1.278 . S
C55 O62 1.241 . S
C56 O42 1.244 . S
C56 O44 1.256 . S
C57 O46 1.239 . S
C57 O50 1.256 . S
C58 O47 1.278 1_545 S
C58 O53 1.241 . S
C59 O49 1.244 . S
C59 O54 1.256 . S
C60 O51 1.239 . S
C60 O52 1.256 . S
O61 Mn43 2.221 . S
O61 Mn45 2.290 . S
O61 C55 1.278 . S
O62 Mn45 2.251 . S
O62 C55 1.241 . S
O63 Mn64 2.163 . S
O63 C77 1.244 . S
Mn64 O63 2.163 . S
Mn64 O67 2.160 . S
Mn64 O68 2.221 . S
Mn64 O70 2.163 . S
Mn64 O72 2.160 . S
Mn64 O82 2.221 . S
O65 Mn66 2.087 . S
O65 C77 1.256 . S
Mn66 O65 2.087 . S
Mn66 O73 2.089 . S
Mn66 O82 2.290 . S
Mn66 O83 2.251 . S
O67 Mn64 2.160 . S
O67 C78 1.239 . S
O68 Mn64 2.221 . S
O68 Mn69 2.297 . S
O68 C79 1.278 1_545 S
Mn69 O68 2.297 . S
Mn69 O71 2.089 . S
Mn69 O74 2.253 1_545 S
Mn69 O75 2.100 . S
O70 Mn64 2.163 . S
O70 C80 1.244 . S
O71 Mn69 2.089 . S
O71 C78 1.256 . S
O72 Mn64 2.160 . S
O72 C81 1.239 . S
O73 Mn66 2.089 . S
O73 C81 1.256 . S
O74 Mn69 2.253 1_565 S
O74 C79 1.241 . S
O75 Mn69 2.100 . S
O75 C80 1.256 . S
C76 O82 1.278 . S
C76 O83 1.241 . S
C77 O63 1.244 . S
C77 O65 1.256 . S
C78 O67 1.239 . S
C78 O71 1.256 . S
C79 O68 1.278 1_565 S
C79 O74 1.241 . S
C80 O70 1.244 . S
C80 O75 1.256 . S
C81 O72 1.239 . S
C81 O73 1.256 . S
O82 Mn64 2.221 . S
O82 Mn66 2.290 . S
O82 C76 1.278 . S
O83 Mn66 2.251 . S
O83 C76 1.241 . S
O84 Mn85 2.163 . S
O84 C98 1.244 . S
Mn85 O84 2.163 . S
Mn85 O88 2.160 . S
Mn85 O89 2.221 . S
Mn85 O91 2.163 . S
Mn85 O93 2.160 . S
Mn85 O103 2.221 . S
O86 Mn87 2.087 . S
O86 C98 1.256 . S
Mn87 O86 2.087 . S
Mn87 O94 2.089 . S
Mn87 O103 2.290 . S
Mn87 O104 2.251 . S
O88 Mn85 2.160 . S
O88 C99 1.239 . S
O89 Mn85 2.221 . S
O89 Mn90 2.288 . S
O89 C100 1.278 1_655 S
Mn90 O89 2.288 . S
Mn90 O92 2.101 . S
Mn90 O95 2.240 1_655 S
Mn90 O96 2.095 . S
O91 Mn85 2.163 . S
O91 C101 1.244 . S
O92 Mn90 2.101 . S
O92 C99 1.256 . S
O93 Mn85 2.160 . S
O93 C102 1.239 . S
O94 Mn87 2.089 . S
O94 C102 1.256 . S
O95 Mn90 2.240 1_455 S
O95 C100 1.241 . S
O96 Mn90 2.095 . S
O96 C101 1.256 . S
C97 O103 1.278 . S
C97 O104 1.241 . S
C98 O84 1.244 . S
C98 O86 1.256 . S
C99 O88 1.239 . S
C99 O92 1.256 . S
C100 O89 1.278 1_455 S
C100 O95 1.241 . S
C101 O91 1.244 . S
C101 O96 1.256 . S
C102 O93 1.239 . S
C102 O94 1.256 . S
O103 Mn85 2.221 . S
O103 Mn87 2.290 . S
O103 C97 1.278 . S
O104 Mn87 2.251 . S
O104 C97 1.241 . S
O105 Mn106 2.163 . S
O105 C119 1.244 . S
Mn106 O105 2.163 . S
Mn106 O109 2.160 . S
Mn106 O110 2.221 . S
Mn106 O112 2.163 . S
Mn106 O114 2.160 . S
Mn106 O124 2.221 . S
O107 Mn108 2.087 . S
O107 C119 1.256 . S
Mn108 O107 2.087 . S
Mn108 O115 2.089 . S
Mn108 O124 2.290 . S
Mn108 O125 2.251 . S
O109 Mn106 2.160 . S
O109 C120 1.239 . S
O110 Mn106 2.221 . S
O110 Mn111 2.290 . S
O110 C121 1.278 . S
Mn111 O110 2.290 . S
Mn111 O113 2.089 . S
Mn111 O116 2.251 . S
Mn111 O117 2.087 . S
O112 Mn106 2.163 . S
O112 C122 1.244 . S
O113 Mn111 2.089 . S
O113 C120 1.256 . S
O114 Mn106 2.160 . S
O114 C123 1.239 . S
O115 Mn108 2.089 . S
O115 C123 1.256 . S
O116 Mn111 2.251 . S
O116 C121 1.241 . S
O117 Mn111 2.087 . S
O117 C122 1.256 . S
C118 O124 1.278 . S
C118 O125 1.241 . S
C119 O105 1.244 . S
C119 O107 1.256 . S
C120 O109 1.239 . S
C120 O113 1.256 . S
C121 O110 1.278 . S
C121 O116 1.241 . S
C122 O112 1.244 . S
C122 O117 1.256 . S
C123 O114 1.239 . S
C123 O115 1.256 . S
O124 Mn106 2.221 . S
O124 Mn108 2.290 . S
O124 C118 1.278 . S
O125 Mn108 2.251 . S
O125 C118 1.241 . S
O126 Mn127 2.163 . S
O126 C140 1.244 . S
Mn127 O126 2.163 . S
Mn127 O130 2.160 . S
Mn127 O131 2.221 . S
Mn127 O133 2.163 . S
Mn127 O135 2.160 . S
Mn127 O145 2.221 . S
O128 Mn129 2.087 . S
O128 C140 1.256 . S
Mn129 O128 2.087 . S
Mn129 O136 2.089 . S
Mn129 O145 2.290 . S
Mn129 O146 2.251 . S
O130 Mn127 2.160 . S
O130 C141 1.239 . S
O131 Mn127 2.221 . S
O131 Mn132 2.295 . S
O131 C142 1.278 1_655 S
Mn132 O131 2.295 . S
Mn132 O134 2.089 . S
Mn132 O137 2.253 1_655 S
Mn132 O138 2.096 . S
O133 Mn127 2.163 . S
O133 C143 1.244 . S
O134 Mn132 2.089 . S
O134 C141 1.256 . S
O135 Mn127 2.160 . S
O135 C144 1.239 . S
O136 Mn129 2.089 . S
O136 C144 1.256 . S
O137 Mn132 2.253 1_455 S
O137 C142 1.241 . S
O138 Mn132 2.096 . S
O138 C143 1.256 . S
C139 O145 1.278 . S
C139 O146 1.241 . S
C140 O126 1.244 . S
C140 O128 1.256 . S
C141 O130 1.239 . S
C141 O134 1.256 . S
C142 O131 1.278 1_455 S
C142 O137 1.241 . S
C143 O133 1.244 . S
C143 O138 1.256 . S
C144 O135 1.239 . S
C144 O136 1.256 . S
O145 Mn127 2.221 . S
O145 Mn129 2.290 . S
O145 C139 1.278 . S
O146 Mn129 2.251 . S
O146 C139 1.241 . S
O147 Mn148 2.163 . S
O147 C161 1.244 . S
Mn148 O147 2.163 . S
Mn148 O151 2.160 . S
Mn148 O152 2.221 . S
Mn148 O154 2.163 . S
Mn148 O156 2.160 . S
Mn148 O166 2.221 . S
O149 Mn150 2.087 . S
O149 C161 1.256 . S
Mn150 O149 2.087 . S
Mn150 O157 2.089 . S
Mn150 O166 2.290 . S
Mn150 O167 2.251 . S
O151 Mn148 2.160 . S
O151 C162 1.239 . S
O152 Mn148 2.221 . S
O152 Mn153 2.290 . S
O152 C163 1.278 . S
Mn153 O152 2.290 . S
Mn153 O155 2.089 . S
Mn153 O158 2.251 . S
Mn153 O159 2.087 . S
O154 Mn148 2.163 . S
O154 C164 1.244 . S
O155 Mn153 2.089 . S
O155 C162 1.256 . S
O156 Mn148 2.160 . S
O156 C165 1.239 . S
O157 Mn150 2.089 . S
O157 C165 1.256 . S
O158 Mn153 2.251 . S
O158 C163 1.241 . S
O159 Mn153 2.087 . S
O159 C164 1.256 . S
C160 O166 1.278 . S
C160 O167 1.241 . S
C161 O147 1.244 . S
C161 O149 1.256 . S
C162 O151 1.239 . S
C162 O155 1.256 . S
C163 O152 1.278 . S
C163 O158 1.241 . S
C164 O154 1.244 . S
C164 O159 1.256 . S
C165 O156 1.239 . S
C165 O157 1.256 . S
O166 Mn148 2.221 . S
O166 Mn150 2.290 . S
O166 C160 1.278 . S
O167 Mn150 2.251 . S
O167 C160 1.241 . S
O168 Mn169 2.163 . S
O168 C182 1.244 . S
Mn169 O168 2.163 . S
Mn169 O172 2.160 . S
Mn169 O173 2.221 . S
Mn169 O175 2.163 . S
Mn169 O177 2.160 . S
Mn169 O187 2.221 . S
O170 Mn171 2.087 . S
O170 C182 1.256 . S
Mn171 O170 2.087 . S
Mn171 O178 2.089 . S
Mn171 O187 2.290 . S
Mn171 O188 2.251 . S
O172 Mn169 2.160 . S
O172 C183 1.239 . S
O173 Mn169 2.221 . S
O173 Mn174 2.289 . S
O173 C184 1.278 1_545 S
Mn174 O173 2.289 . S
Mn174 O176 2.097 . S
Mn174 O179 2.243 1_545 S
Mn174 O180 2.093 . S
O175 Mn169 2.163 . S
O175 C185 1.244 . S
O176 Mn174 2.097 . S
O176 C183 1.256 . S
O177 Mn169 2.160 . S
O177 C186 1.239 . S
O178 Mn171 2.089 . S
O178 C186 1.256 . S
O179 Mn174 2.243 1_565 S
O179 C184 1.241 . S
O180 Mn174 2.093 . S
O180 C185 1.256 . S
C181 O187 1.278 . S
C181 O188 1.241 . S
C182 O168 1.244 . S
C182 O170 1.256 . S
C183 O172 1.239 . S
C183 O176 1.256 . S
C184 O173 1.278 1_565 S
C184 O179 1.241 . S
C185 O175 1.244 . S
C185 O180 1.256 . S
C186 O177 1.239 . S
C186 O178 1.256 . S
O187 Mn169 2.221 . S
O187 Mn171 2.290 . S
O187 C181 1.278 . S
O188 Mn171 2.251 . S
O188 C181 1.241 . S
O189 Mn190 2.163 . S
O189 C203 1.244 . S
Mn190 O189 2.163 . S
Mn190 O193 2.160 . S
Mn190 O194 2.221 . S
Mn190 O196 2.163 . S
Mn190 O198 2.160 . S
Mn190 O208 2.221 . S
O191 Mn192 2.087 . S
O191 C203 1.256 . S
Mn192 O191 2.087 . S
Mn192 O199 2.089 . S
Mn192 O208 2.290 . S
Mn192 O209 2.251 . S
O193 Mn190 2.160 . S
O193 C204 1.239 . S
O194 Mn190 2.221 . S
O194 Mn195 2.297 . S
O194 C205 1.278 1_565 S
Mn195 O194 2.297 . S
Mn195 O197 2.089 . S
Mn195 O200 2.253 1_565 S
Mn195 O201 2.100 . S
O196 Mn190 2.163 . S
O196 C206 1.244 . S
O197 Mn195 2.089 . S
O197 C204 1.256 . S
O198 Mn190 2.160 . S
O198 C207 1.239 . S
O199 Mn192 2.089 . S
O199 C207 1.256 . S
O200 Mn195 2.253 1_545 S
O200 C205 1.241 . S
O201 Mn195 2.100 . S
O201 C206 1.256 . S
C202 O208 1.278 . S
C202 O209 1.241 . S
C203 O189 1.244 . S
C203 O191 1.256 . S
C204 O193 1.239 . S
C204 O197 1.256 . S
C205 O194 1.278 1_545 S
C205 O200 1.241 . S
C206 O196 1.244 . S
C206 O201 1.256 . S
C207 O198 1.239 . S
C207 O199 1.256 . S
O208 Mn190 2.221 . S
O208 Mn192 2.290 . S
O208 C202 1.278 . S
O209 Mn192 2.251 . S
O209 C202 1.241 . S
O210 Mn211 2.163 . S
O210 C224 1.244 . S
Mn211 O210 2.163 . S
Mn211 O214 2.160 . S
Mn211 O215 2.221 . S
Mn211 O217 2.163 . S
Mn211 O219 2.160 . S
Mn211 O229 2.221 . S
O212 Mn213 2.087 . S
O212 C224 1.256 . S
Mn213 O212 2.087 . S
Mn213 O220 2.089 . S
Mn213 O229 2.290 . S
Mn213 O230 2.251 . S
O214 Mn211 2.160 . S
O214 C225 1.239 . S
O215 Mn211 2.221 . S
O215 Mn216 2.288 . S
O215 C226 1.278 1_455 S
Mn216 O215 2.288 . S
Mn216 O218 2.101 . S
Mn216 O221 2.240 1_455 S
Mn216 O222 2.095 . S
O217 Mn211 2.163 . S
O217 C227 1.244 . S
O218 Mn216 2.101 . S
O218 C225 1.256 . S
O219 Mn211 2.160 . S
O219 C228 1.239 . S
O220 Mn213 2.089 . S
O220 C228 1.256 . S
O221 Mn216 2.240 1_655 S
O221 C226 1.241 . S
O222 Mn216 2.095 . S
O222 C227 1.256 . S
C223 O229 1.278 . S
C223 O230 1.241 . S
C224 O210 1.244 . S
C224 O212 1.256 . S
C225 O214 1.239 . S
C225 O218 1.256 . S
C226 O215 1.278 1_655 S
C226 O221 1.241 . S
C227 O217 1.244 . S
C227 O222 1.256 . S
C228 O219 1.239 . S
C228 O220 1.256 . S
O229 Mn211 2.221 . S
O229 Mn213 2.290 . S
O229 C223 1.278 . S
O230 Mn213 2.251 . S
O230 C223 1.241 . S
O231 Mn232 2.163 . S
O231 C245 1.244 . S
Mn232 O231 2.163 . S
Mn232 O235 2.160 . S
Mn232 O236 2.221 . S
Mn232 O238 2.163 . S
Mn232 O240 2.160 . S
Mn232 O250 2.221 . S
O233 Mn234 2.087 . S
O233 C245 1.256 . S
Mn234 O233 2.087 . S
Mn234 O241 2.089 . S
Mn234 O250 2.290 . S
Mn234 O251 2.251 . S
O235 Mn232 2.160 . S
O235 C246 1.239 . S
O236 Mn232 2.221 . S
O236 Mn237 2.290 . S
O236 C247 1.278 . S
Mn237 O236 2.290 . S
Mn237 O239 2.089 . S
Mn237 O242 2.251 . S
Mn237 O243 2.087 . S
O238 Mn232 2.163 . S
O238 C248 1.244 . S
O239 Mn237 2.089 . S
O239 C246 1.256 . S
O240 Mn232 2.160 . S
O240 C249 1.239 . S
O241 Mn234 2.089 . S
O241 C249 1.256 . S
O242 Mn237 2.251 . S
O242 C247 1.241 . S
O243 Mn237 2.087 . S
O243 C248 1.256 . S
C244 O250 1.278 . S
C244 O251 1.241 . S
C245 O231 1.244 . S
C245 O233 1.256 . S
C246 O235 1.239 . S
C246 O239 1.256 . S
C247 O236 1.278 . S
C247 O242 1.241 . S
C248 O238 1.244 . S
C248 O243 1.256 . S
C249 O240 1.239 . S
C249 O241 1.256 . S
O250 Mn232 2.221 . S
O250 Mn234 2.290 . S
O250 C244 1.278 . S
O251 Mn234 2.251 . S
O251 C244 1.241 . S
O252 Mn253 2.163 . S
O252 C266 1.244 . S
Mn253 O252 2.163 . S
Mn253 O256 2.160 . S
Mn253 O257 2.221 . S
Mn253 O259 2.163 . S
Mn253 O261 2.160 . S
Mn253 O271 2.221 . S
O254 Mn255 2.087 . S
O254 C266 1.256 . S
Mn255 O254 2.087 . S
Mn255 O262 2.089 . S
Mn255 O271 2.290 . S
Mn255 O272 2.251 . S
O256 Mn253 2.160 . S
O256 C267 1.239 . S
O257 Mn253 2.221 . S
O257 Mn258 2.290 . S
O257 C268 1.278 . S
Mn258 O257 2.290 . S
Mn258 O260 2.089 . S
Mn258 O263 2.251 . S
Mn258 O264 2.087 . S
O259 Mn253 2.163 . S
O259 C269 1.244 . S
O260 Mn258 2.089 . S
O260 C267 1.256 . S
O261 Mn253 2.160 . S
O261 C270 1.239 . S
O262 Mn255 2.089 . S
O262 C270 1.256 . S
O263 Mn258 2.251 . S
O263 C268 1.241 . S
O264 Mn258 2.087 . S
O264 C269 1.256 . S
C265 O271 1.278 . S
C265 O272 1.241 . S
C266 O252 1.244 . S
C266 O254 1.256 . S
C267 O256 1.239 . S
C267 O260 1.256 . S
C268 O257 1.278 . S
C268 O263 1.241 . S
C269 O259 1.244 . S
C269 O264 1.256 . S
C270 O261 1.239 . S
C270 O262 1.256 . S
O271 Mn253 2.221 . S
O271 Mn255 2.290 . S
O271 C265 1.278 . S
O272 Mn255 2.251 . S
O272 C265 1.241 . S
O273 Mn274 2.163 . S
O273 C287 1.244 . S
Mn274 O273 2.163 . S
Mn274 O277 2.160 . S
Mn274 O278 2.221 . S
Mn274 O280 2.163 . S
Mn274 O282 2.160 . S
Mn274 O292 2.221 . S
O275 Mn276 2.087 . S
O275 C287 1.256 . S
Mn276 O275 2.087 . S
Mn276 O283 2.089 . S
Mn276 O292 2.290 . S
Mn276 O293 2.251 . S
O277 Mn274 2.160 . S
O277 C288 1.239 . S
O278 Mn274 2.221 . S
O278 Mn279 2.290 . S
O278 C289 1.278 . S
Mn279 O278 2.290 . S
Mn279 O281 2.089 . S
Mn279 O284 2.251 . S
Mn279 O285 2.087 . S
O280 Mn274 2.163 . S
O280 C290 1.244 . S
O281 Mn279 2.089 . S
O281 C288 1.256 . S
O282 Mn274 2.160 . S
O282 C291 1.239 . S
O283 Mn276 2.089 . S
O283 C291 1.256 . S
O284 Mn279 2.251 . S
O284 C289 1.241 . S
O285 Mn279 2.087 . S
O285 C290 1.256 . S
C286 O292 1.278 . S
C286 O293 1.241 . S
C287 O273 1.244 . S
C287 O275 1.256 . S
C288 O277 1.239 . S
C288 O281 1.256 . S
C289 O278 1.278 . S
C289 O284 1.241 . S
C290 O280 1.244 . S
C290 O285 1.256 . S
C291 O282 1.239 . S
C291 O283 1.256 . S
O292 Mn274 2.221 . S
O292 Mn276 2.290 . S
O292 C286 1.278 . S
O293 Mn276 2.251 . S
O293 C286 1.241 . S
O294 Mn295 2.163 . S
O294 C308 1.244 . S
Mn295 O294 2.163 . S
Mn295 O298 2.160 . S
Mn295 O299 2.221 . S
Mn295 O301 2.163 . S
Mn295 O303 2.160 . S
Mn295 O313 2.221 . S
O296 Mn297 2.087 . S
O296 C308 1.256 . S
Mn297 O296 2.087 . S
Mn297 O304 2.089 . S
Mn297 O313 2.290 . S
Mn297 O314 2.251 . S
O298 Mn295 2.160 . S
O298 C309 1.239 . S
O299 Mn295 2.221 . S
O299 Mn300 2.290 . S
O299 C310 1.278 . S
Mn300 O299 2.290 . S
Mn300 O302 2.089 . S
Mn300 O305 2.251 . S
Mn300 O306 2.087 . S
O301 Mn295 2.163 . S
O301 C311 1.244 . S
O302 Mn300 2.089 . S
O302 C309 1.256 . S
O303 Mn295 2.160 . S
O303 C312 1.239 . S
O304 Mn297 2.089 . S
O304 C312 1.256 . S
O305 Mn300 2.251 . S
O305 C310 1.241 . S
O306 Mn300 2.087 . S
O306 C311 1.256 . S
C307 O313 1.278 . S
C307 O314 1.241 . S
C308 O294 1.244 . S
C308 O296 1.256 . S
C309 O298 1.239 . S
C309 O302 1.256 . S
C310 O299 1.278 . S
C310 O305 1.241 . S
C311 O301 1.244 . S
C311 O306 1.256 . S
C312 O303 1.239 . S
C312 O304 1.256 . S
O313 Mn295 2.221 . S
O313 Mn297 2.290 . S
O313 C307 1.278 . S
O314 Mn297 2.251 . S
O314 C307 1.241 . S
O315 Mn316 2.163 . S
O315 C329 1.244 . S
Mn316 O315 2.163 . S
Mn316 O319 2.160 . S
Mn316 O320 2.221 . S
Mn316 O322 2.163 . S
Mn316 O324 2.160 . S
Mn316 O334 2.221 . S
O317 Mn318 2.087 . S
O317 C329 1.256 . S
Mn318 O317 2.087 . S
Mn318 O325 2.089 . S
Mn318 O334 2.290 . S
Mn318 O335 2.251 . S
O319 Mn316 2.160 . S
O319 C330 1.226 1_655 S
O320 Mn316 2.221 . S
O320 Mn321 2.290 . S
O320 C331 1.278 . S
Mn321 O320 2.290 . S
Mn321 O323 2.089 . S
Mn321 O326 2.251 . S
Mn321 O327 2.087 . S
O322 Mn316 2.163 . S
O322 C332 1.244 . S
O323 Mn321 2.089 . S
O323 C330 1.253 1_655 S
O324 Mn316 2.160 . S
O324 C333 1.239 . S
O325 Mn318 2.089 . S
O325 C333 1.256 . S
O326 Mn321 2.251 . S
O326 C331 1.241 . S
O327 Mn321 2.087 . S
O327 C332 1.256 . S
C328 O334 1.278 . S
C328 O335 1.241 . S
C329 O315 1.244 . S
C329 O317 1.256 . S
C330 O319 1.226 1_455 S
C330 O323 1.253 1_455 S
C331 O320 1.278 . S
C331 O326 1.241 . S
C332 O322 1.244 . S
C332 O327 1.256 . S
C333 O324 1.239 . S
C333 O325 1.256 . S
O334 Mn316 2.221 . S
O334 Mn318 2.290 . S
O334 C328 1.278 . S
O335 Mn318 2.251 . S
O335 C328 1.241 . S
O336 Mn337 2.163 . S
O336 C350 1.244 . S
Mn337 O336 2.163 . S
Mn337 O340 2.160 . S
Mn337 O341 2.221 . S
Mn337 O343 2.163 . S
Mn337 O345 2.160 . S
Mn337 O355 2.221 . S
O338 Mn339 2.087 . S
O338 C350 1.256 . S
Mn339 O338 2.087 . S
Mn339 O346 2.089 . S
Mn339 O355 2.290 . S
Mn339 O356 2.251 . S
O340 Mn337 2.160 . S
O340 C351 1.239 . S
O341 Mn337 2.221 . S
O341 Mn342 2.290 . S
O341 C352 1.278 . S
Mn342 O341 2.290 . S
Mn342 O344 2.089 . S
Mn342 O347 2.251 . S
Mn342 O348 2.087 . S
O343 Mn337 2.163 . S
O343 C353 1.244 . S
O344 Mn342 2.089 . S
O344 C351 1.256 . S
O345 Mn337 2.160 . S
O345 C354 1.239 . S
O346 Mn339 2.089 . S
O346 C354 1.256 . S
O347 Mn342 2.251 . S
O347 C352 1.241 . S
O348 Mn342 2.087 . S
O348 C353 1.256 . S
C349 O355 1.278 . S
C349 O356 1.241 . S
C350 O336 1.244 . S
C350 O338 1.256 . S
C351 O340 1.239 . S
C351 O344 1.256 . S
C352 O341 1.278 . S
C352 O347 1.241 . S
C353 O343 1.244 . S
C353 O348 1.256 . S
C354 O345 1.239 . S
C354 O346 1.256 . S
O355 Mn337 2.221 . S
O355 Mn339 2.290 . S
O355 C349 1.278 . S
O356 Mn339 2.251 . S
O356 C349 1.241 . S
O357 Mn358 2.163 . S
O357 C371 1.244 . S
Mn358 O357 2.163 . S
Mn358 O361 2.160 . S
Mn358 O362 2.221 . S
Mn358 O364 2.163 . S
Mn358 O366 2.160 . S
Mn358 O376 2.221 . S
O359 Mn360 2.087 . S
O359 C371 1.256 . S
Mn360 O359 2.087 . S
Mn360 O367 2.089 . S
Mn360 O376 2.290 . S
Mn360 O377 2.251 . S
O361 Mn358 2.160 . S
O361 C372 1.239 1_545 S
O362 Mn358 2.221 . S
O362 Mn363 2.290 . S
O362 C373 1.278 . S
Mn363 O362 2.290 . S
Mn363 O365 2.089 . S
Mn363 O368 2.251 . S
Mn363 O369 2.087 . S
O364 Mn358 2.163 . S
O364 C374 1.244 . S
O365 Mn363 2.089 . S
O365 C372 1.246 1_545 S
O366 Mn358 2.160 . S
O366 C375 1.239 . S
O367 Mn360 2.089 . S
O367 C375 1.256 . S
O368 Mn363 2.251 . S
O368 C373 1.241 . S
O369 Mn363 2.087 . S
O369 C374 1.256 . S
C370 O376 1.278 . S
C370 O377 1.241 . S
C371 O357 1.244 . S
C371 O359 1.256 . S
C372 O361 1.239 1_565 S
C372 O365 1.246 1_565 S
C373 O362 1.278 . S
C373 O368 1.241 . S
C374 O364 1.244 . S
C374 O369 1.256 . S
C375 O366 1.239 . S
C375 O367 1.256 . S
O376 Mn358 2.221 . S
O376 Mn360 2.290 . S
O376 C370 1.278 . S
O377 Mn360 2.251 . S
O377 C370 1.241 . S
O378 Mn379 2.163 . S
O378 C392 1.244 . S
Mn379 O378 2.163 . S
Mn379 O382 2.160 . S
Mn379 O383 2.221 . S
Mn379 O385 2.163 . S
Mn379 O387 2.160 . S
Mn379 O397 2.221 . S
O380 Mn381 2.087 . S
O380 C392 1.256 . S
Mn381 O380 2.087 . S
Mn381 O388 2.089 . S
Mn381 O397 2.290 . S
Mn381 O398 2.251 . S
O382 Mn379 2.160 . S
O382 C393 1.229 1_545 S
O383 Mn379 2.221 . S
O383 Mn384 2.290 . S
O383 C394 1.278 . S
Mn384 O383 2.290 . S
Mn384 O386 2.089 . S
Mn384 O389 2.251 . S
Mn384 O390 2.087 . S
O385 Mn379 2.163 . S
O385 C395 1.244 . S
O386 Mn384 2.089 . S
O386 C393 1.254 1_545 S
O387 Mn379 2.160 . S
O387 C396 1.239 . S
O388 Mn381 2.089 . S
O388 C396 1.256 . S
O389 Mn384 2.251 . S
O389 C394 1.241 . S
O390 Mn384 2.087 . S
O390 C395 1.256 . S
C391 O397 1.278 . S
C391 O398 1.241 . S
C392 O378 1.244 . S
C392 O380 1.256 . S
C393 O382 1.229 1_565 S
C393 O386 1.254 1_565 S
C394 O383 1.278 . S
C394 O389 1.241 . S
C395 O385 1.244 . S
C395 O390 1.256 . S
C396 O387 1.239 . S
C396 O388 1.256 . S
O397 Mn379 2.221 . S
O397 Mn381 2.290 . S
O397 C391 1.278 . S
O398 Mn381 2.251 . S
O398 C391 1.241 . S
O399 Mn400 2.163 . S
O399 C413 1.244 . S
Mn400 O399 2.163 . S
Mn400 O403 2.160 . S
Mn400 O404 2.221 . S
Mn400 O406 2.163 . S
Mn400 O408 2.160 . S
Mn400 O418 2.221 . S
O401 Mn402 2.087 . S
O401 C413 1.256 . S
Mn402 O401 2.087 . S
Mn402 O409 2.089 . S
Mn402 O418 2.290 . S
Mn402 O419 2.251 . S
O403 Mn400 2.160 . S
O403 C414 1.239 1_655 S
O404 Mn400 2.221 . S
O404 Mn405 2.290 . S
O404 C415 1.278 . S
Mn405 O404 2.290 . S
Mn405 O407 2.089 . S
Mn405 O410 2.251 . S
Mn405 O411 2.087 . S
O406 Mn400 2.163 . S
O406 C416 1.244 . S
O407 Mn405 2.089 . S
O407 C414 1.249 1_655 S
O408 Mn400 2.160 . S
O408 C417 1.239 . S
O409 Mn402 2.089 . S
O409 C417 1.256 . S
O410 Mn405 2.251 . S
O410 C415 1.241 . S
O411 Mn405 2.087 . S
O411 C416 1.256 . S
C412 O418 1.278 . S
C412 O419 1.241 . S
C413 O399 1.244 . S
C413 O401 1.256 . S
C414 O403 1.239 1_455 S
C414 O407 1.249 1_455 S
C415 O404 1.278 . S
C415 O410 1.241 . S
C416 O406 1.244 . S
C416 O411 1.256 . S
C417 O408 1.239 . S
C417 O409 1.256 . S
O418 Mn400 2.221 . S
O418 Mn402 2.290 . S
O418 C412 1.278 . S
O419 Mn402 2.251 . S
O419 C412 1.241 . S
O420 Mn421 2.163 . S
O420 C434 1.244 . S
Mn421 O420 2.163 . S
Mn421 O424 2.160 . S
Mn421 O425 2.221 . S
Mn421 O427 2.163 . S
Mn421 O429 2.160 . S
Mn421 O439 2.221 . S
O422 Mn423 2.087 . S
O422 C434 1.256 . S
Mn423 O422 2.087 . S
Mn423 O430 2.089 . S
Mn423 O439 2.290 . S
Mn423 O440 2.251 . S
O424 Mn421 2.160 . S
O424 C435 1.239 . S
O425 Mn421 2.221 . S
O425 Mn426 2.290 . S
O425 C436 1.278 . S
Mn426 O425 2.290 . S
Mn426 O428 2.089 . S
Mn426 O431 2.251 . S
Mn426 O432 2.087 . S
O427 Mn421 2.163 . S
O427 C437 1.244 . S
O428 Mn426 2.089 . S
O428 C435 1.256 . S
O429 Mn421 2.160 . S
O429 C438 1.239 . S
O430 Mn423 2.089 . S
O430 C438 1.256 . S
O431 Mn426 2.251 . S
O431 C436 1.241 . S
O432 Mn426 2.087 . S
O432 C437 1.256 . S
C433 O439 1.278 . S
C433 O440 1.241 . S
C434 O420 1.244 . S
C434 O422 1.256 . S
C435 O424 1.239 . S
C435 O428 1.256 . S
C436 O425 1.278 . S
C436 O431 1.241 . S
C437 O427 1.244 . S
C437 O432 1.256 . S
C438 O429 1.239 . S
C438 O430 1.256 . S
O439 Mn421 2.221 . S
O439 Mn423 2.290 . S
O439 C433 1.278 . S
O440 Mn423 2.251 . S
O440 C433 1.241 . S
O441 Mn442 2.164 . S
O441 C455 1.250 . S
Mn442 O441 2.164 . S
Mn442 O445 2.160 . S
Mn442 O446 2.221 1_554 S
Mn442 O448 2.163 1_554 S
Mn442 O450 2.160 . S
Mn442 O460 2.221 . S
O443 Mn444 2.087 . S
O443 C455 1.256 . S
Mn444 O443 2.087 . S
Mn444 O451 2.089 . S
Mn444 O460 2.290 . S
Mn444 O461 2.251 . S
O445 Mn442 2.160 . S
O445 C456 1.239 1_554 S
O446 Mn442 2.221 1_556 S
O446 Mn447 2.290 . S
O446 C457 1.278 . S
Mn447 O446 2.290 . S
Mn447 O449 2.089 . S
Mn447 O452 2.251 . S
Mn447 O453 2.087 . S
O448 Mn442 2.163 1_556 S
O448 C458 1.244 . S
O449 Mn447 2.089 . S
O449 C456 1.256 . S
O450 Mn442 2.160 . S
O450 C459 1.239 . S
O451 Mn444 2.089 . S
O451 C459 1.256 . S
O452 Mn447 2.251 . S
O452 C457 1.241 . S
O453 Mn447 2.087 . S
O453 C458 1.256 . S
C454 O460 1.278 . S
C454 O461 1.241 . S
C455 O441 1.250 . S
C455 O443 1.256 . S
C456 O445 1.239 1_556 S
C456 O449 1.256 . S
C457 O446 1.278 . S
C457 O452 1.241 . S
C458 O448 1.244 . S
C458 O453 1.256 . S
C459 O450 1.239 . S
C459 O451 1.256 . S
O460 Mn442 2.221 . S
O460 Mn444 2.290 . S
O460 C454 1.278 . S
O461 Mn444 2.251 . S
O461 C454 1.241 . S
O462 Mn463 2.164 . S
O462 C476 1.250 . S
Mn463 O462 2.164 . S
Mn463 O466 2.160 . S
Mn463 O467 2.221 1_554 S
Mn463 O469 2.163 1_554 S
Mn463 O471 2.160 . S
Mn463 O481 2.221 . S
O464 Mn465 2.087 . S
O464 C476 1.256 . S
Mn465 O464 2.087 . S
Mn465 O472 2.089 . S
Mn465 O481 2.290 . S
Mn465 O482 2.251 . S
O466 Mn463 2.160 . S
O466 C477 1.239 1_554 S
O467 Mn463 2.221 1_556 S
O467 Mn468 2.290 . S
O467 C478 1.278 . S
Mn468 O467 2.290 . S
Mn468 O470 2.089 . S
Mn468 O473 2.251 . S
Mn468 O474 2.087 . S
O469 Mn463 2.163 1_556 S
O469 C479 1.244 . S
O470 Mn468 2.089 . S
O470 C477 1.256 . S
O471 Mn463 2.160 . S
O471 C480 1.239 . S
O472 Mn465 2.089 . S
O472 C480 1.256 . S
O473 Mn468 2.251 . S
O473 C478 1.241 . S
O474 Mn468 2.087 . S
O474 C479 1.256 . S
C475 O481 1.278 . S
C475 O482 1.241 . S
C476 O462 1.250 . S
C476 O464 1.256 . S
C477 O466 1.239 1_556 S
C477 O470 1.256 . S
C478 O467 1.278 . S
C478 O473 1.241 . S
C479 O469 1.244 . S
C479 O474 1.256 . S
C480 O471 1.239 . S
C480 O472 1.256 . S
O481 Mn463 2.221 . S
O481 Mn465 2.290 . S
O481 C475 1.278 . S
O482 Mn465 2.251 . S
O482 C475 1.241 . S
O483 Mn484 2.164 . S
O483 C497 1.250 . S
Mn484 O483 2.164 . S
Mn484 O487 2.160 . S
Mn484 O488 2.221 1_554 S
Mn484 O490 2.163 1_554 S
Mn484 O492 2.160 . S
Mn484 O502 2.221 . S
O485 Mn486 2.087 . S
O485 C497 1.256 . S
Mn486 O485 2.087 . S
Mn486 O493 2.089 . S
Mn486 O502 2.290 . S
Mn486 O503 2.251 . S
O487 Mn484 2.160 . S
O487 C498 1.239 1_554 S
O488 Mn484 2.221 1_556 S
O488 Mn489 2.290 . S
O488 C499 1.278 . S
Mn489 O488 2.290 . S
Mn489 O491 2.089 . S
Mn489 O494 2.251 . S
Mn489 O495 2.087 . S
O490 Mn484 2.163 1_556 S
O490 C500 1.244 . S
O491 Mn489 2.089 . S
O491 C498 1.256 . S
O492 Mn484 2.160 . S
O492 C501 1.239 . S
O493 Mn486 2.089 . S
O493 C501 1.256 . S
O494 Mn489 2.251 . S
O494 C499 1.241 . S
O495 Mn489 2.087 . S
O495 C500 1.256 . S
C496 O502 1.278 . S
C496 O503 1.241 . S
C497 O483 1.250 . S
C497 O485 1.256 . S
C498 O487 1.239 1_556 S
C498 O491 1.256 . S
C499 O488 1.278 . S
C499 O494 1.241 . S
C500 O490 1.244 . S
C500 O495 1.256 . S
C501 O492 1.239 . S
C501 O493 1.256 . S
O502 Mn484 2.221 . S
O502 Mn486 2.290 . S
O502 C496 1.278 . S
O503 Mn486 2.251 . S
O503 C496 1.241 . S
O504 Mn505 2.163 . S
O504 C518 1.244 . S
Mn505 O504 2.163 . S
Mn505 O508 2.160 . S
Mn505 O509 2.221 . S
Mn505 O511 2.163 . S
Mn505 O513 2.160 . S
Mn505 O523 2.221 . S
O506 Mn507 2.087 . S
O506 C518 1.256 . S
Mn507 O506 2.087 . S
Mn507 O514 2.089 . S
Mn507 O523 2.290 . S
Mn507 O524 2.251 . S
O508 Mn505 2.160 . S
O508 C519 1.229 1_565 S
O509 Mn505 2.221 . S
O509 Mn510 2.290 . S
O509 C520 1.278 . S
Mn510 O509 2.290 . S
Mn510 O512 2.089 . S
Mn510 O515 2.251 . S
Mn510 O516 2.087 . S
O511 Mn505 2.163 . S
O511 C521 1.244 . S
O512 Mn510 2.089 . S
O512 C519 1.254 1_565 S
O513 Mn505 2.160 . S
O513 C522 1.239 . S
O514 Mn507 2.089 . S
O514 C522 1.256 . S
O515 Mn510 2.251 . S
O515 C520 1.241 . S
O516 Mn510 2.087 . S
O516 C521 1.256 . S
C517 O523 1.278 . S
C517 O524 1.241 . S
C518 O504 1.244 . S
C518 O506 1.256 . S
C519 O508 1.229 1_545 S
C519 O512 1.254 1_545 S
C520 O509 1.278 . S
C520 O515 1.241 . S
C521 O511 1.244 . S
C521 O516 1.256 . S
C522 O513 1.239 . S
C522 O514 1.256 . S
O523 Mn505 2.221 . S
O523 Mn507 2.290 . S
O523 C517 1.278 . S
O524 Mn507 2.251 . S
O524 C517 1.241 . S
O525 Mn526 2.163 . S
O525 C539 1.244 . S
Mn526 O525 2.163 . S
Mn526 O529 2.160 . S
Mn526 O530 2.221 . S
Mn526 O532 2.163 . S
Mn526 O534 2.160 . S
Mn526 O544 2.221 . S
O527 Mn528 2.087 . S
O527 C539 1.256 . S
Mn528 O527 2.087 . S
Mn528 O535 2.089 . S
Mn528 O544 2.290 . S
Mn528 O545 2.251 . S
O529 Mn526 2.160 . S
O529 C540 1.239 1_455 S
O530 Mn526 2.221 . S
O530 Mn531 2.290 . S
O530 C541 1.278 . S
Mn531 O530 2.290 . S
Mn531 O533 2.089 . S
Mn531 O536 2.251 . S
Mn531 O537 2.087 . S
O532 Mn526 2.163 . S
O532 C542 1.244 . S
O533 Mn531 2.089 . S
O533 C540 1.249 1_455 S
O534 Mn526 2.160 . S
O534 C543 1.239 . S
O535 Mn528 2.089 . S
O535 C543 1.256 . S
O536 Mn531 2.251 . S
O536 C541 1.241 . S
O537 Mn531 2.087 . S
O537 C542 1.256 . S
C538 O544 1.278 . S
C538 O545 1.241 . S
C539 O525 1.244 . S
C539 O527 1.256 . S
C540 O529 1.239 1_655 S
C540 O533 1.249 1_655 S
C541 O530 1.278 . S
C541 O536 1.241 . S
C542 O532 1.244 . S
C542 O537 1.256 . S
C543 O534 1.239 . S
C543 O535 1.256 . S
O544 Mn526 2.221 . S
O544 Mn528 2.290 . S
O544 C538 1.278 . S
O545 Mn528 2.251 . S
O545 C538 1.241 . S
O546 Mn547 2.163 . S
O546 C560 1.244 . S
Mn547 O546 2.163 . S
Mn547 O550 2.160 . S
Mn547 O551 2.221 . S
Mn547 O553 2.163 . S
Mn547 O555 2.160 . S
Mn547 O565 2.221 . S
O548 Mn549 2.087 . S
O548 C560 1.256 . S
Mn549 O548 2.087 . S
Mn549 O556 2.089 . S
Mn549 O565 2.290 . S
Mn549 O566 2.251 . S
O550 Mn547 2.160 . S
O550 C561 1.239 . S
O551 Mn547 2.221 . S
O551 Mn552 2.290 . S
O551 C562 1.278 . S
Mn552 O551 2.290 . S
Mn552 O554 2.089 . S
Mn552 O557 2.251 . S
Mn552 O558 2.087 . S
O553 Mn547 2.163 . S
O553 C563 1.244 . S
O554 Mn552 2.089 . S
O554 C561 1.256 . S
O555 Mn547 2.160 . S
O555 C564 1.239 . S
O556 Mn549 2.089 . S
O556 C564 1.256 . S
O557 Mn552 2.251 . S
O557 C562 1.241 . S
O558 Mn552 2.087 . S
O558 C563 1.256 . S
C559 O565 1.278 . S
C559 O566 1.241 . S
C560 O546 1.244 . S
C560 O548 1.256 . S
C561 O550 1.239 . S
C561 O554 1.256 . S
C562 O551 1.278 . S
C562 O557 1.241 . S
C563 O553 1.244 . S
C563 O558 1.256 . S
C564 O555 1.239 . S
C564 O556 1.256 . S
O565 Mn547 2.221 . S
O565 Mn549 2.290 . S
O565 C559 1.278 . S
O566 Mn549 2.251 . S
O566 C559 1.241 . S
O567 Mn568 2.164 . S
O567 C581 1.250 . S
Mn568 O567 2.164 . S
Mn568 O571 2.160 . S
Mn568 O572 2.221 1_556 S
Mn568 O574 2.163 1_556 S
Mn568 O576 2.160 . S
Mn568 O586 2.221 . S
O569 Mn570 2.087 . S
O569 C581 1.256 . S
Mn570 O569 2.087 . S
Mn570 O577 2.089 . S
Mn570 O586 2.290 . S
Mn570 O587 2.251 . S
O571 Mn568 2.160 . S
O571 C582 1.239 1_556 S
O572 Mn568 2.221 1_554 S
O572 Mn573 2.290 . S
O572 C583 1.278 . S
Mn573 O572 2.290 . S
Mn573 O575 2.089 . S
Mn573 O578 2.251 . S
Mn573 O579 2.087 . S
O574 Mn568 2.163 1_554 S
O574 C584 1.244 . S
O575 Mn573 2.089 . S
O575 C582 1.256 . S
O576 Mn568 2.160 . S
O576 C585 1.239 . S
O577 Mn570 2.089 . S
O577 C585 1.256 . S
O578 Mn573 2.251 . S
O578 C583 1.241 . S
O579 Mn573 2.087 . S
O579 C584 1.256 . S
C580 O586 1.278 . S
C580 O587 1.241 . S
C581 O567 1.250 . S
C581 O569 1.256 . S
C582 O571 1.239 1_554 S
C582 O575 1.256 . S
C583 O572 1.278 . S
C583 O578 1.241 . S
C584 O574 1.244 . S
C584 O579 1.256 . S
C585 O576 1.239 . S
C585 O577 1.256 . S
O586 Mn568 2.221 . S
O586 Mn570 2.290 . S
O586 C580 1.278 . S
O587 Mn570 2.251 . S
O587 C580 1.241 . S
O588 Mn589 2.164 . S
O588 C602 1.250 . S
Mn589 O588 2.164 . S
Mn589 O592 2.160 . S
Mn589 O593 2.221 1_556 S
Mn589 O595 2.163 1_556 S
Mn589 O597 2.160 . S
Mn589 O607 2.221 . S
O590 Mn591 2.087 . S
O590 C602 1.256 . S
Mn591 O590 2.087 . S
Mn591 O598 2.089 . S
Mn591 O607 2.290 . S
Mn591 O608 2.251 . S
O592 Mn589 2.160 . S
O592 C603 1.239 1_556 S
O593 Mn589 2.221 1_554 S
O593 Mn594 2.290 . S
O593 C604 1.278 . S
Mn594 O593 2.290 . S
Mn594 O596 2.089 . S
Mn594 O599 2.251 . S
Mn594 O600 2.087 . S
O595 Mn589 2.163 1_554 S
O595 C605 1.244 . S
O596 Mn594 2.089 . S
O596 C603 1.256 . S
O597 Mn589 2.160 . S
O597 C606 1.239 . S
O598 Mn591 2.089 . S
O598 C606 1.256 . S
O599 Mn594 2.251 . S
O599 C604 1.241 . S
O600 Mn594 2.087 . S
O600 C605 1.256 . S
C601 O607 1.278 . S
C601 O608 1.241 . S
C602 O588 1.250 . S
C602 O590 1.256 . S
C603 O592 1.239 1_554 S
C603 O596 1.256 . S
C604 O593 1.278 . S
C604 O599 1.241 . S
C605 O595 1.244 . S
C605 O600 1.256 . S
C606 O597 1.239 . S
C606 O598 1.256 . S
O607 Mn589 2.221 . S
O607 Mn591 2.290 . S
O607 C601 1.278 . S
O608 Mn591 2.251 . S
O608 C601 1.241 . S
O609 Mn610 2.164 . S
O609 C623 1.250 . S
Mn610 O609 2.164 . S
Mn610 O613 2.160 . S
Mn610 O614 2.221 1_556 S
Mn610 O616 2.163 1_556 S
Mn610 O618 2.160 . S
Mn610 O628 2.221 . S
O611 Mn612 2.087 . S
O611 C623 1.256 . S
Mn612 O611 2.087 . S
Mn612 O619 2.089 . S
Mn612 O628 2.290 . S
Mn612 O629 2.251 . S
O613 Mn610 2.160 . S
O613 C624 1.239 1_556 S
O614 Mn610 2.221 1_554 S
O614 Mn615 2.290 . S
O614 C625 1.278 . S
Mn615 O614 2.290 . S
Mn615 O617 2.089 . S
Mn615 O620 2.251 . S
Mn615 O621 2.087 . S
O616 Mn610 2.163 1_554 S
O616 C626 1.244 . S
O617 Mn615 2.089 . S
O617 C624 1.256 . S
O618 Mn610 2.160 . S
O618 C627 1.239 . S
O619 Mn612 2.089 . S
O619 C627 1.256 . S
O620 Mn615 2.251 . S
O620 C625 1.241 . S
O621 Mn615 2.087 . S
O621 C626 1.256 . S
C622 O628 1.278 . S
C622 O629 1.241 . S
C623 O609 1.250 . S
C623 O611 1.256 . S
C624 O613 1.239 1_554 S
C624 O617 1.256 . S
C625 O614 1.278 . S
C625 O620 1.241 . S
C626 O616 1.244 . S
C626 O621 1.256 . S
C627 O618 1.239 . S
C627 O619 1.256 . S
O628 Mn610 2.221 . S
O628 Mn612 2.290 . S
O628 C622 1.278 . S
O629 Mn612 2.251 . S
O629 C622 1.241 . S
O630 Mn631 2.163 . S
O630 C644 1.244 . S
Mn631 O630 2.163 . S
Mn631 O634 2.160 . S
Mn631 O635 2.221 . S
Mn631 O637 2.163 . S
Mn631 O639 2.160 . S
Mn631 O649 2.221 . S
O632 Mn633 2.087 . S
O632 C644 1.256 . S
Mn633 O632 2.087 . S
Mn633 O640 2.089 . S
Mn633 O649 2.290 . S
Mn633 O650 2.251 . S
O634 Mn631 2.160 . S
O634 C645 1.239 . S
O635 Mn631 2.221 . S
O635 Mn636 2.290 . S
O635 C646 1.278 . S
Mn636 O635 2.290 . S
Mn636 O638 2.089 . S
Mn636 O641 2.251 . S
Mn636 O642 2.087 . S
O637 Mn631 2.163 . S
O637 C647 1.244 . S
O638 Mn636 2.089 . S
O638 C645 1.256 . S
O639 Mn631 2.160 . S
O639 C648 1.239 . S
O640 Mn633 2.089 . S
O640 C648 1.256 . S
O641 Mn636 2.251 . S
O641 C646 1.241 . S
O642 Mn636 2.087 . S
O642 C647 1.256 . S
C643 O649 1.278 . S
C643 O650 1.241 . S
C644 O630 1.244 . S
C644 O632 1.256 . S
C645 O634 1.239 . S
C645 O638 1.256 . S
C646 O635 1.278 . S
C646 O641 1.241 . S
C647 O637 1.244 . S
C647 O642 1.256 . S
C648 O639 1.239 . S
C648 O640 1.256 . S
O649 Mn631 2.221 . S
O649 Mn633 2.290 . S
O649 C643 1.278 . S
O650 Mn633 2.251 . S
O650 C643 1.241 . S
O651 Mn652 2.163 . S
O651 C665 1.244 . S
Mn652 O651 2.163 . S
Mn652 O655 2.160 . S
Mn652 O656 2.221 . S
Mn652 O658 2.163 . S
Mn652 O660 2.160 . S
Mn652 O670 2.221 . S
O653 Mn654 2.087 . S
O653 C665 1.256 . S
Mn654 O653 2.087 . S
Mn654 O661 2.089 . S
Mn654 O670 2.290 . S
Mn654 O671 2.251 . S
O655 Mn652 2.160 . S
O655 C666 1.239 . S
O656 Mn652 2.221 . S
O656 Mn657 2.290 . S
O656 C667 1.278 . S
Mn657 O656 2.290 . S
Mn657 O659 2.089 . S
Mn657 O662 2.251 . S
Mn657 O663 2.087 . S
O658 Mn652 2.163 . S
O658 C668 1.244 . S
O659 Mn657 2.089 . S
O659 C666 1.256 . S
O660 Mn652 2.160 . S
O660 C669 1.239 . S
O661 Mn654 2.089 . S
O661 C669 1.256 . S
O662 Mn657 2.251 . S
O662 C667 1.241 . S
O663 Mn657 2.087 . S
O663 C668 1.256 . S
C664 O670 1.278 . S
C664 O671 1.241 . S
C665 O651 1.244 . S
C665 O653 1.256 . S
C666 O655 1.239 . S
C666 O659 1.256 . S
C667 O656 1.278 . S
C667 O662 1.241 . S
C668 O658 1.244 . S
C668 O663 1.256 . S
C669 O660 1.239 . S
C669 O661 1.256 . S
O670 Mn652 2.221 . S
O670 Mn654 2.290 . S
O670 C664 1.278 . S
O671 Mn654 2.251 . S
O671 C664 1.241 . S
O672 Mn673 2.163 . S
O672 C686 1.244 . S
Mn673 O672 2.163 . S
Mn673 O676 2.160 . S
Mn673 O677 2.221 . S
Mn673 O679 2.163 . S
Mn673 O681 2.160 . S
Mn673 O691 2.221 . S
O674 Mn675 2.087 . S
O674 C686 1.256 . S
Mn675 O674 2.087 . S
Mn675 O682 2.089 . S
Mn675 O691 2.290 . S
Mn675 O692 2.251 . S
O676 Mn673 2.160 . S
O676 C687 1.239 . S
O677 Mn673 2.221 . S
O677 Mn678 2.290 . S
O677 C688 1.278 . S
Mn678 O677 2.290 . S
Mn678 O680 2.089 . S
Mn678 O683 2.251 . S
Mn678 O684 2.087 . S
O679 Mn673 2.163 . S
O679 C689 1.244 . S
O680 Mn678 2.089 . S
O680 C687 1.256 . S
O681 Mn673 2.160 . S
O681 C690 1.239 . S
O682 Mn675 2.089 . S
O682 C690 1.256 . S
O683 Mn678 2.251 . S
O683 C688 1.241 . S
O684 Mn678 2.087 . S
O684 C689 1.256 . S
C685 O691 1.278 . S
C685 O692 1.241 . S
C686 O672 1.244 . S
C686 O674 1.256 . S
C687 O676 1.239 . S
C687 O680 1.256 . S
C688 O677 1.278 . S
C688 O683 1.241 . S
C689 O679 1.244 . S
C689 O684 1.256 . S
C690 O681 1.239 . S
C690 O682 1.256 . S
O691 Mn673 2.221 . S
O691 Mn675 2.290 . S
O691 C685 1.278 . S
O692 Mn675 2.251 . S
O692 C685 1.241 . S
O693 Mn694 2.163 . S
O693 C707 1.244 . S
Mn694 O693 2.163 . S
Mn694 O697 2.160 . S
Mn694 O698 2.221 . S
Mn694 O700 2.163 . S
Mn694 O702 2.160 . S
Mn694 O712 2.221 . S
O695 Mn696 2.087 . S
O695 C707 1.256 . S
Mn696 O695 2.087 . S
Mn696 O703 2.089 . S
Mn696 O712 2.290 . S
Mn696 O713 2.251 . S
O697 Mn694 2.160 . S
O697 C708 1.226 1_455 S
O698 Mn694 2.221 . S
O698 Mn699 2.290 . S
O698 C709 1.278 . S
Mn699 O698 2.290 . S
Mn699 O701 2.089 . S
Mn699 O704 2.251 . S
Mn699 O705 2.087 . S
O700 Mn694 2.163 . S
O700 C710 1.244 . S
O701 Mn699 2.089 . S
O701 C708 1.253 1_455 S
O702 Mn694 2.160 . S
O702 C711 1.239 . S
O703 Mn696 2.089 . S
O703 C711 1.256 . S
O704 Mn699 2.251 . S
O704 C709 1.241 . S
O705 Mn699 2.087 . S
O705 C710 1.256 . S
C706 O712 1.278 . S
C706 O713 1.241 . S
C707 O693 1.244 . S
C707 O695 1.256 . S
C708 O697 1.226 1_655 S
C708 O701 1.253 1_655 S
C709 O698 1.278 . S
C709 O704 1.241 . S
C710 O700 1.244 . S
C710 O705 1.256 . S
C711 O702 1.239 . S
C711 O703 1.256 . S
O712 Mn694 2.221 . S
O712 Mn696 2.290 . S
O712 C706 1.278 . S
O713 Mn696 2.251 . S
O713 C706 1.241 . S
O714 Mn715 2.163 . S
O714 C728 1.244 . S
Mn715 O714 2.163 . S
Mn715 O718 2.160 . S
Mn715 O719 2.221 . S
Mn715 O721 2.163 . S
Mn715 O723 2.160 . S
Mn715 O733 2.221 . S
O716 Mn717 2.087 . S
O716 C728 1.256 . S
Mn717 O716 2.087 . S
Mn717 O724 2.089 . S
Mn717 O733 2.290 . S
Mn717 O734 2.251 . S
O718 Mn715 2.160 . S
O718 C729 1.239 . S
O719 Mn715 2.221 . S
O719 Mn720 2.290 . S
O719 C730 1.278 . S
Mn720 O719 2.290 . S
Mn720 O722 2.089 . S
Mn720 O725 2.251 . S
Mn720 O726 2.087 . S
O721 Mn715 2.163 . S
O721 C731 1.244 . S
O722 Mn720 2.089 . S
O722 C729 1.256 . S
O723 Mn715 2.160 . S
O723 C732 1.239 . S
O724 Mn717 2.089 . S
O724 C732 1.256 . S
O725 Mn720 2.251 . S
O725 C730 1.241 . S
O726 Mn720 2.087 . S
O726 C731 1.256 . S
C727 O733 1.278 . S
C727 O734 1.241 . S
C728 O714 1.244 . S
C728 O716 1.256 . S
C729 O718 1.239 . S
C729 O722 1.256 . S
C730 O719 1.278 . S
C730 O725 1.241 . S
C731 O721 1.244 . S
C731 O726 1.256 . S
C732 O723 1.239 . S
C732 O724 1.256 . S
O733 Mn715 2.221 . S
O733 Mn717 2.290 . S
O733 C727 1.278 . S
O734 Mn717 2.251 . S
O734 C727 1.241 . S
O735 Mn736 2.163 . S
O735 C749 1.244 . S
Mn736 O735 2.163 . S
Mn736 O739 2.160 . S
Mn736 O740 2.221 . S
Mn736 O742 2.163 . S
Mn736 O744 2.160 . S
Mn736 O754 2.221 . S
O737 Mn738 2.087 . S
O737 C749 1.256 . S
Mn738 O737 2.087 . S
Mn738 O745 2.089 . S
Mn738 O754 2.290 . S
Mn738 O755 2.251 . S
O739 Mn736 2.160 . S
O739 C750 1.239 1_565 S
O740 Mn736 2.221 . S
O740 Mn741 2.290 . S
O740 C751 1.278 . S
Mn741 O740 2.290 . S
Mn741 O743 2.089 . S
Mn741 O746 2.251 . S
Mn741 O747 2.087 . S
O742 Mn736 2.163 . S
O742 C752 1.244 . S
O743 Mn741 2.089 . S
O743 C750 1.246 1_565 S
O744 Mn736 2.160 . S
O744 C753 1.239 . S
O745 Mn738 2.089 . S
O745 C753 1.256 . S
O746 Mn741 2.251 . S
O746 C751 1.241 . S
O747 Mn741 2.087 . S
O747 C752 1.256 . S
C748 O754 1.278 . S
C748 O755 1.241 . S
C749 O735 1.244 . S
C749 O737 1.256 . S
C750 O739 1.239 1_545 S
C750 O743 1.246 1_545 S
C751 O740 1.278 . S
C751 O746 1.241 . S
C752 O742 1.244 . S
C752 O747 1.256 . S
C753 O744 1.239 . S
C753 O745 1.256 . S
O754 Mn736 2.221 . S
O754 Mn738 2.290 . S
O754 C748 1.278 . S
O755 Mn738 2.251 . S
O755 C748 1.241 . S
C756 C757 1.387 . S
C756 H760 0.950 . S
C756 C765 1.390 . S
C757 C756 1.387 . S
C757 C759 1.387 . S
H758 C765 0.950 . S
C759 C757 1.387 . S
C759 C761 1.390 . S
C759 H763 0.950 . S
H760 C756 0.950 . S
C761 C759 1.390 . S
C761 C762 1.387 . S
C761 H764 0.950 . S
C762 C761 1.387 . S
C762 C765 1.387 . S
H763 C759 0.950 . S
H764 C761 0.950 . S
C765 C756 1.390 . S
C765 H758 0.950 . S
C765 C762 1.387 . S
C766 C767 1.387 . S
C766 H770 0.950 . S
C766 C775 1.390 . S
C767 C766 1.387 . S
C767 C769 1.387 . S
H768 C775 0.950 1_565 S
C769 C767 1.387 . S
C769 C771 1.390 . S
C769 H773 0.950 . S
H770 C766 0.950 . S
C771 C769 1.390 . S
C771 C772 1.387 . S
C771 H774 0.950 . S
C772 C771 1.387 . S
C772 C775 1.387 . S
H773 C769 0.950 . S
H774 C771 0.950 . S
C775 C766 1.390 . S
C775 H768 0.950 1_545 S
C775 C772 1.387 . S
C776 C777 1.387 . S
C776 H780 0.950 . S
C776 C785 1.390 . S
C777 C776 1.387 . S
C777 C779 1.387 . S
H778 C785 0.950 . S
C779 C777 1.387 . S
C779 C781 1.390 . S
C779 H783 0.950 1_655 S
H780 C776 0.950 . S
C781 C779 1.390 . S
C781 C782 1.387 . S
C781 H784 0.950 . S
C782 C781 1.387 . S
C782 C785 1.387 . S
H783 C779 0.950 1_455 S
H784 C781 0.950 . S
C785 C776 1.390 . S
C785 H778 0.950 . S
C785 C782 1.387 . S
C786 C787 1.387 . S
C786 H790 0.950 . S
C786 C795 1.390 . S
C787 C786 1.387 . S
C787 C789 1.387 . S
H788 C795 0.950 . S
C789 C787 1.387 . S
C789 C791 1.390 . S
C789 H793 0.950 . S
H790 C786 0.950 . S
C791 C789 1.390 . S
C791 C792 1.387 . S
C791 H794 0.950 . S
C792 C791 1.387 . S
C792 C795 1.387 . S
H793 C789 0.950 . S
H794 C791 0.950 . S
C795 C786 1.390 . S
C795 H788 0.950 . S
C795 C792 1.387 . S
C796 C797 1.387 . S
C796 H800 0.950 . S
C796 C805 1.390 . S
C797 C796 1.387 . S
C797 C799 1.387 . S
H798 C805 0.950 . S
C799 C797 1.387 . S
C799 C801 1.390 . S
C799 H803 0.950 . S
H800 C796 0.950 . S
C801 C799 1.390 . S
C801 C802 1.387 . S
C801 H804 0.950 . S
C802 C801 1.387 . S
C802 C805 1.387 . S
H803 C799 0.950 . S
H804 C801 0.950 . S
C805 C796 1.390 . S
C805 H798 0.950 . S
C805 C802 1.387 . S
C806 C807 1.387 . S
C806 H810 0.950 . S
C806 C815 1.390 . S
C807 C806 1.387 . S
C807 C809 1.387 . S
H808 C815 0.950 . S
C809 C807 1.387 . S
C809 C811 1.390 . S
C809 H813 0.950 . S
H810 C806 0.950 . S
C811 C809 1.390 . S
C811 C812 1.387 . S
C811 H814 0.950 . S
C812 C811 1.387 . S
C812 C815 1.387 . S
H813 C809 0.950 . S
H814 C811 0.950 . S
C815 C806 1.390 . S
C815 H808 0.950 . S
C815 C812 1.387 . S
C816 C817 1.387 . S
C816 H820 0.950 . S
C816 C825 1.390 . S
C817 C816 1.387 . S
C817 C819 1.387 . S
H818 C825 0.950 . S
C819 C817 1.387 . S
C819 C821 1.390 . S
C819 H823 0.950 . S
H820 C816 0.950 . S
C821 C819 1.390 . S
C821 C822 1.387 . S
C821 H824 0.950 . S
C822 C821 1.387 . S
C822 C825 1.387 . S
H823 C819 0.950 . S
H824 C821 0.950 . S
C825 C816 1.390 . S
C825 H818 0.950 . S
C825 C822 1.387 . S
C826 C827 1.387 . S
C826 H830 0.942 1_565 S
C826 C835 1.390 . S
C827 C826 1.387 . S
C827 C829 1.387 . S
H828 C835 0.950 . S
C829 C827 1.387 . S
C829 C831 1.390 . S
C829 H833 0.950 . S
H830 C826 0.942 1_545 S
C831 C829 1.390 . S
C831 C832 1.387 . S
C831 H834 0.950 . S
C832 C831 1.387 . S
C832 C835 1.387 . S
H833 C829 0.950 . S
H834 C831 0.950 . S
C835 C826 1.390 . S
C835 H828 0.950 . S
C835 C832 1.387 . S
C836 C837 1.387 . S
C836 H840 0.950 1_455 S
C836 C845 1.390 . S
C837 C836 1.387 . S
C837 C839 1.387 . S
H838 C845 0.950 . S
C839 C837 1.387 . S
C839 C841 1.390 . S
C839 H843 0.950 . S
H840 C836 0.950 1_655 S
C841 C839 1.390 . S
C841 C842 1.387 . S
C841 H844 0.950 . S
C842 C841 1.387 . S
C842 C845 1.387 . S
H843 C839 0.950 . S
H844 C841 0.950 . S
C845 C836 1.390 . S
C845 H838 0.950 . S
C845 C842 1.387 . S
C846 C847 1.387 . S
C846 H850 0.950 . S
C846 C855 1.390 . S
C847 C846 1.387 . S
C847 C849 1.387 . S
H848 C855 0.950 . S
C849 C847 1.387 . S
C849 C851 1.390 . S
C849 H853 0.950 . S
H850 C846 0.950 . S
C851 C849 1.390 . S
C851 C852 1.387 . S
C851 H854 0.950 . S
C852 C851 1.387 . S
C852 C855 1.387 . S
H853 C849 0.950 . S
H854 C851 0.950 . S
C855 C846 1.390 . S
C855 H848 0.950 . S
C855 C852 1.387 . S
C856 C857 1.387 . S
C856 H860 0.950 . S
C856 C865 1.390 . S
C857 C856 1.387 . S
C857 C859 1.387 . S
H858 C865 0.950 1_565 S
C859 C857 1.387 . S
C859 C861 1.390 . S
C859 H863 0.950 . S
H860 C856 0.950 . S
C861 C859 1.390 . S
C861 C862 1.387 . S
C861 H864 0.950 . S
C862 C861 1.387 . S
C862 C865 1.387 . S
H863 C859 0.950 . S
H864 C861 0.950 . S
C865 C856 1.390 . S
C865 H858 0.950 1_545 S
C865 C862 1.387 . S
C866 C867 1.387 . S
C866 H870 0.950 . S
C866 C875 1.390 . S
C867 C866 1.387 . S
C867 C869 1.387 . S
H868 C875 0.950 . S
C869 C867 1.387 . S
C869 C871 1.390 . S
C869 H873 0.950 . S
H870 C866 0.950 . S
C871 C869 1.390 . S
C871 C872 1.387 . S
C871 H874 0.950 . S
C872 C871 1.387 . S
C872 C875 1.387 . S
H873 C869 0.950 . S
H874 C871 0.950 . S
C875 C866 1.390 . S
C875 H868 0.950 . S
C875 C872 1.387 . S
C876 C877 1.387 . S
C876 H880 0.950 . S
C876 C885 1.390 . S
C877 C876 1.387 . S
C877 C879 1.387 . S
H878 C885 0.950 . S
C879 C877 1.387 . S
C879 C881 1.390 . S
C879 H883 0.950 . S
H880 C876 0.950 . S
C881 C879 1.390 . S
C881 C882 1.387 . S
C881 H884 0.950 . S
C882 C881 1.387 . S
C882 C885 1.387 . S
H883 C879 0.950 . S
H884 C881 0.950 . S
C885 C876 1.390 . S
C885 H878 0.950 . S
C885 C882 1.387 . S
C886 C887 1.387 . S
C886 H890 0.950 . S
C886 C895 1.390 . S
C887 C886 1.387 . S
C887 C889 1.387 . S
H888 C895 0.950 . S
C889 C887 1.387 . S
C889 C891 1.390 . S
C889 H893 0.950 . S
H890 C886 0.950 . S
C891 C889 1.390 . S
C891 C892 1.387 . S
C891 H894 0.950 . S
C892 C891 1.387 . S
C892 C895 1.387 . S
H893 C889 0.950 . S
H894 C891 0.950 . S
C895 C886 1.390 . S
C895 H888 0.950 . S
C895 C892 1.387 . S
C896 C897 1.387 . S
C896 H900 0.950 . S
C896 C905 1.390 . S
C897 C896 1.387 . S
C897 C899 1.387 . S
H898 C905 0.950 . S
C899 C897 1.387 . S
C899 C901 1.390 . S
C899 H903 0.950 . S
H900 C896 0.950 . S
C901 C899 1.390 . S
C901 C902 1.387 . S
C901 H904 0.950 . S
C902 C901 1.387 . S
C902 C905 1.387 . S
H903 C899 0.950 . S
H904 C901 0.950 . S
C905 C896 1.390 . S
C905 H898 0.950 . S
C905 C902 1.387 . S
C906 C907 1.387 . S
C906 H910 0.950 . S
C906 C915 1.390 . S
C907 C906 1.387 . S
C907 C909 1.387 . S
H908 C915 0.950 . S
C909 C907 1.387 . S
C909 C911 1.390 . S
C909 H913 0.950 . S
H910 C906 0.950 . S
C911 C909 1.390 . S
C911 C912 1.387 . S
C911 H914 0.950 . S
C912 C911 1.387 . S
C912 C915 1.387 . S
H913 C909 0.950 . S
H914 C911 0.950 . S
C915 C906 1.390 . S
C915 H908 0.950 . S
C915 C912 1.387 . S
C916 C917 1.387 . S
C916 H920 0.950 . S
C916 C925 1.390 . S
C917 C916 1.387 . S
C917 C919 1.387 . S
H918 C925 0.950 . S
C919 C917 1.387 . S
C919 C921 1.390 . S
C919 H923 0.950 . S
H920 C916 0.950 . S
C921 C919 1.390 . S
C921 C922 1.387 . S
C921 H924 0.950 . S
C922 C921 1.387 . S
C922 C925 1.387 . S
H923 C919 0.950 . S
H924 C921 0.950 . S
C925 C916 1.390 . S
C925 H918 0.950 . S
C925 C922 1.387 . S
C926 C927 1.387 . S
C926 H930 0.950 . S
C926 C935 1.390 . S
C927 C926 1.387 . S
C927 C929 1.387 . S
H928 C935 0.950 . S
C929 C927 1.387 . S
C929 C931 1.390 . S
C929 H933 0.950 . S
H930 C926 0.950 . S
C931 C929 1.390 . S
C931 C932 1.387 . S
C931 H934 0.950 . S
C932 C931 1.387 . S
C932 C935 1.387 . S
H933 C929 0.950 . S
H934 C931 0.950 . S
C935 C926 1.390 . S
C935 H928 0.950 . S
C935 C932 1.387 . S
C936 C937 1.387 . S
C936 H940 0.950 . S
C936 C945 1.390 . S
C937 C936 1.387 . S
C937 C939 1.387 . S
H938 C945 0.950 . S
C939 C937 1.387 . S
C939 C941 1.390 . S
C939 H943 0.950 . S
H940 C936 0.950 . S
C941 C939 1.390 . S
C941 C942 1.387 . S
C941 H944 0.950 . S
C942 C941 1.387 . S
C942 C945 1.387 . S
H943 C939 0.950 . S
H944 C941 0.950 . S
C945 C936 1.390 . S
C945 H938 0.950 . S
C945 C942 1.387 . S
C946 C947 1.387 . S
C946 H950 0.950 . S
C946 C955 1.390 . S
C947 C946 1.387 . S
C947 C949 1.387 . S
H948 C955 0.950 . S
C949 C947 1.387 . S
C949 C951 1.390 . S
C949 H953 0.950 . S
H950 C946 0.950 . S
C951 C949 1.390 . S
C951 C952 1.387 . S
C951 H954 0.950 . S
C952 C951 1.387 . S
C952 C955 1.387 . S
H953 C949 0.950 . S
H954 C951 0.950 . S
C955 C946 1.390 . S
C955 H948 0.950 . S
C955 C952 1.387 . S
C956 C957 1.387 . S
C956 H960 0.950 . S
C956 C965 1.390 . S
C957 C956 1.387 . S
C957 C959 1.387 . S
H958 C965 0.950 . S
C959 C957 1.387 . S
C959 C961 1.390 . S
C959 H963 0.950 . S
H960 C956 0.950 . S
C961 C959 1.390 . S
C961 C962 1.387 . S
C961 H964 0.950 . S
C962 C961 1.387 . S
C962 C965 1.387 . S
H963 C959 0.950 . S
H964 C961 0.950 . S
C965 C956 1.390 . S
C965 H958 0.950 . S
C965 C962 1.387 . S
C966 C967 1.387 . S
C966 H970 0.950 . S
C966 C975 1.390 . S
C967 C966 1.387 . S
C967 C969 1.387 1_556 S
H968 C975 0.950 . S
C969 C967 1.387 1_554 S
C969 C971 1.390 . S
C969 H973 0.950 . S
H970 C966 0.950 . S
C971 C969 1.390 . S
C971 C972 1.387 . S
C971 H974 0.950 . S
C972 C971 1.387 . S
C972 C975 1.387 1_554 S
H973 C969 0.950 . S
H974 C971 0.950 . S
C975 C966 1.390 . S
C975 H968 0.950 . S
C975 C972 1.387 1_556 S
C976 C977 1.387 1_556 S
C976 H980 0.950 . S
C976 C985 1.390 . S
C977 C976 1.387 1_554 S
C977 C979 1.387 . S
H978 C985 0.950 . S
C979 C977 1.387 . S
C979 C981 1.390 . S
C979 H983 0.950 . S
H980 C976 0.950 . S
C981 C979 1.390 . S
C981 C982 1.387 1_554 S
C981 H984 0.950 . S
C982 C981 1.387 1_556 S
C982 C985 1.387 . S
H983 C979 0.950 . S
H984 C981 0.950 . S
C985 C976 1.390 . S
C985 H978 0.950 . S
C985 C982 1.387 . S
C986 C987 1.387 1_554 S
C986 H990 0.950 . S
C986 C995 1.390 . S
C987 C986 1.387 1_556 S
C987 C989 1.387 . S
H988 C995 0.950 . S
C989 C987 1.387 . S
C989 C991 1.390 . S
C989 H993 0.950 . S
H990 C986 0.950 . S
C991 C989 1.390 . S
C991 C992 1.387 1_556 S
C991 H994 0.950 . S
C992 C991 1.387 1_554 S
C992 C995 1.387 . S
H993 C989 0.950 . S
H994 C991 0.950 . S
C995 C986 1.390 . S
C995 H988 0.950 . S
C995 C992 1.387 . S
C996 C997 1.387 . S
C996 H1000 0.950 . S
C996 C1005 1.390 . S
C997 C996 1.387 . S
C997 C999 1.387 . S
H998 C1005 0.950 . S
C999 C997 1.387 . S
C999 C1001 1.390 . S
C999 H1003 0.950 . S
H1000 C996 0.950 . S
C1001 C999 1.390 . S
C1001 C1002 1.387 . S
C1001 H1004 0.950 . S
C1002 C1001 1.387 . S
C1002 C1005 1.387 . S
H1003 C999 0.950 . S
H1004 C1001 0.950 . S
C1005 C996 1.390 . S
C1005 H998 0.950 . S
C1005 C1002 1.387 . S
C1006 C1007 1.387 . S
C1006 H1010 0.950 . S
C1006 C1015 1.390 . S
C1007 C1006 1.387 . S
C1007 C1009 1.387 . S
H1008 C1015 0.950 . S
C1009 C1007 1.387 . S
C1009 C1011 1.390 . S
C1009 H1013 0.950 . S
H1010 C1006 0.950 . S
C1011 C1009 1.390 . S
C1011 C1012 1.387 . S
C1011 H1014 0.950 . S
C1012 C1011 1.387 . S
C1012 C1015 1.387 . S
H1013 C1009 0.950 . S
H1014 C1011 0.950 . S
C1015 C1006 1.390 . S
C1015 H1008 0.950 . S
C1015 C1012 1.387 . S
C1016 C1017 1.387 . S
C1016 H1020 0.950 . S
C1016 C1025 1.390 . S
C1017 C1016 1.387 . S
C1017 C1019 1.387 . S
H1018 C1025 0.950 . S
C1019 C1017 1.387 . S
C1019 C1021 1.390 . S
C1019 H1023 0.950 . S
H1020 C1016 0.950 . S
C1021 C1019 1.390 . S
C1021 C1022 1.387 . S
C1021 H1024 0.950 . S
C1022 C1021 1.387 . S
C1022 C1025 1.387 . S
H1023 C1019 0.950 . S
H1024 C1021 0.950 . S
C1025 C1016 1.390 . S
C1025 H1018 0.950 . S
C1025 C1022 1.387 . S
C1026 C1027 1.387 . S
C1026 H1030 0.950 . S
C1026 C1035 1.390 . S
C1027 C1026 1.387 . S
C1027 C1029 1.387 1_556 S
H1028 C1035 0.950 . S
C1029 C1027 1.387 1_554 S
C1029 C1031 1.390 . S
C1029 H1033 0.950 . S
H1030 C1026 0.950 . S
C1031 C1029 1.390 . S
C1031 C1032 1.387 . S
C1031 H1034 0.950 . S
C1032 C1031 1.387 . S
C1032 C1035 1.387 1_554 S
H1033 C1029 0.950 . S
H1034 C1031 0.950 . S
C1035 C1026 1.390 . S
C1035 H1028 0.950 . S
C1035 C1032 1.387 1_556 S
C1036 C1037 1.387 . S
C1036 H1040 0.950 . S
C1036 C1045 1.390 . S
C1037 C1036 1.387 . S
C1037 C1039 1.387 1_556 S
H1038 C1045 0.950 . S
C1039 C1037 1.387 1_554 S
C1039 C1041 1.390 . S
C1039 H1043 0.950 . S
H1040 C1036 0.950 . S
C1041 C1039 1.390 . S
C1041 C1042 1.387 . S
C1041 H1044 0.950 . S
C1042 C1041 1.387 . S
C1042 C1045 1.387 1_554 S
H1043 C1039 0.950 . S
H1044 C1041 0.950 . S
C1045 C1036 1.390 . S
C1045 H1038 0.950 . S
C1045 C1042 1.387 1_556 S
C1046 C1047 1.387 . S
C1046 H1050 0.950 . S
C1046 C1055 1.390 . S
C1047 C1046 1.387 . S
C1047 C1049 1.387 1_556 S
H1048 C1055 0.950 . S
C1049 C1047 1.387 1_554 S
C1049 C1051 1.390 . S
C1049 H1053 0.950 . S
H1050 C1046 0.950 . S
C1051 C1049 1.390 . S
C1051 C1052 1.387 . S
C1051 H1054 0.950 . S
C1052 C1051 1.387 . S
C1052 C1055 1.387 1_554 S
H1053 C1049 0.950 . S
H1054 C1051 0.950 . S
C1055 C1046 1.390 . S
C1055 H1048 0.950 . S
C1055 C1052 1.387 1_556 S
C1056 C1057 1.387 . S
C1056 H1060 0.950 . S
C1056 C1065 1.390 . S
C1057 C1056 1.387 . S
C1057 C1059 1.387 . S
H1058 C1065 0.950 . S
C1059 C1057 1.387 . S
C1059 C1061 1.390 . S
C1059 H1063 0.950 . S
H1060 C1056 0.950 . S
C1061 C1059 1.390 . S
C1061 C1062 1.387 . S
C1061 H1064 0.950 . S
C1062 C1061 1.387 . S
C1062 C1065 1.387 . S
H1063 C1059 0.950 . S
H1064 C1061 0.950 . S
C1065 C1056 1.390 . S
C1065 H1058 0.950 . S
C1065 C1062 1.387 . S
C1066 C1067 1.387 . S
C1066 H1070 0.950 . S
C1066 C1075 1.390 . S
C1067 C1066 1.387 . S
C1067 C1069 1.387 . S
H1068 C1075 0.950 . S
C1069 C1067 1.387 . S
C1069 C1071 1.390 . S
C1069 H1073 0.950 . S
H1070 C1066 0.950 . S
C1071 C1069 1.390 . S
C1071 C1072 1.387 . S
C1071 H1074 0.950 . S
C1072 C1071 1.387 . S
C1072 C1075 1.387 . S
H1073 C1069 0.950 . S
H1074 C1071 0.950 . S
C1075 C1066 1.390 . S
C1075 H1068 0.950 . S
C1075 C1072 1.387 . S
C1076 C1077 1.387 . S
C1076 H1080 0.950 . S
C1076 C1085 1.390 . S
C1077 C1076 1.387 . S
C1077 C1079 1.387 . S
H1078 C1085 0.950 . S
C1079 C1077 1.387 . S
C1079 C1081 1.390 . S
C1079 H1083 0.950 . S
H1080 C1076 0.950 . S
C1081 C1079 1.390 . S
C1081 C1082 1.387 . S
C1081 H1084 0.950 . S
C1082 C1081 1.387 . S
C1082 C1085 1.387 . S
H1083 C1079 0.950 . S
H1084 C1081 0.950 . S
C1085 C1076 1.390 . S
C1085 H1078 0.950 . S
C1085 C1082 1.387 . S
C1086 C1087 1.387 . S
C1086 H1090 0.950 . S
C1086 C1095 1.390 . S
C1087 C1086 1.387 . S
C1087 C1089 1.387 . S
H1088 C1095 0.950 . S
C1089 C1087 1.387 . S
C1089 C1091 1.390 . S
C1089 H1093 0.950 . S
H1090 C1086 0.950 . S
C1091 C1089 1.390 . S
C1091 C1092 1.387 . S
C1091 H1094 0.950 . S
C1092 C1091 1.387 . S
C1092 C1095 1.387 . S
H1093 C1089 0.950 . S
H1094 C1091 0.950 . S
C1095 C1086 1.390 . S
C1095 H1088 0.950 . S
C1095 C1092 1.387 . S
C1096 C1097 1.387 . S
C1096 H1100 0.950 . S
C1096 C1105 1.390 . S
C1097 C1096 1.387 . S
C1097 C1099 1.387 . S
H1098 C1105 0.950 . S
C1099 C1097 1.387 . S
C1099 C1101 1.390 . S
C1099 H1103 0.950 . S
H1100 C1096 0.950 . S
C1101 C1099 1.390 . S
C1101 C1102 1.387 . S
C1101 H1104 0.950 . S
C1102 C1101 1.387 . S
C1102 C1105 1.387 . S
H1103 C1099 0.950 . S
H1104 C1101 0.950 . S
C1105 C1096 1.390 . S
C1105 H1098 0.950 . S
C1105 C1102 1.387 . S
C1106 C1107 1.387 . S
C1106 H1110 0.950 . S
C1106 C1115 1.390 . S
C1107 C1106 1.387 . S
C1107 C1109 1.387 . S
H1108 C1115 0.950 . S
C1109 C1107 1.387 . S
C1109 C1111 1.390 . S
C1109 H1113 0.950 . S
H1110 C1106 0.950 . S
C1111 C1109 1.390 . S
C1111 C1112 1.387 . S
C1111 H1114 0.950 . S
C1112 C1111 1.387 . S
C1112 C1115 1.387 . S
H1113 C1109 0.950 . S
H1114 C1111 0.950 . S
C1115 C1106 1.390 . S
C1115 H1108 0.950 . S
C1115 C1112 1.387 . S
C1116 C1117 1.387 . S
C1116 H1120 0.950 . S
C1116 C1125 1.390 . S
C1117 C1116 1.387 . S
C1117 C1119 1.387 . S
H1118 C1125 0.950 . S
C1119 C1117 1.387 . S
C1119 C1121 1.390 . S
C1119 H1123 0.950 . S
H1120 C1116 0.950 . S
C1121 C1119 1.390 . S
C1121 C1122 1.387 . S
C1121 H1124 0.950 . S
C1122 C1121 1.387 . S
C1122 C1125 1.387 . S
H1123 C1119 0.950 . S
H1124 C1121 0.950 . S
C1125 C1116 1.390 . S
C1125 H1118 0.950 . S
C1125 C1122 1.387 . S
C1126 C1127 1.387 . S
C1126 H1130 0.950 . S
C1126 C1135 1.390 . S
C1127 C1126 1.387 . S
C1127 C1129 1.387 . S
H1128 C1135 0.950 . S
C1129 C1127 1.387 . S
C1129 C1131 1.390 . S
C1129 H1133 0.950 . S
H1130 C1126 0.950 . S
C1131 C1129 1.390 . S
C1131 C1132 1.387 . S
C1131 H1134 0.950 . S
C1132 C1131 1.387 . S
C1132 C1135 1.387 . S
H1133 C1129 0.950 . S
H1134 C1131 0.950 . S
C1135 C1126 1.390 . S
C1135 H1128 0.950 . S
C1135 C1132 1.387 . S
C1136 C1137 1.387 . S
C1136 H1140 0.950 . S
C1136 C1145 1.390 . S
C1137 C1136 1.387 . S
C1137 C1139 1.387 . S
H1138 C1145 0.950 . S
C1139 C1137 1.387 . S
C1139 C1141 1.390 . S
C1139 H1143 0.950 . S
H1140 C1136 0.950 . S
C1141 C1139 1.390 . S
C1141 C1142 1.387 . S
C1141 H1144 0.950 . S
C1142 C1141 1.387 . S
C1142 C1145 1.387 . S
H1143 C1139 0.950 . S
H1144 C1141 0.950 . S
C1145 C1136 1.390 . S
C1145 H1138 0.950 . S
C1145 C1142 1.387 . S
C1146 C1147 1.387 . S
C1146 H1150 0.950 . S
C1146 C1155 1.390 . S
C1147 C1146 1.387 . S
C1147 C1149 1.387 . S
H1148 C1155 0.950 . S
C1149 C1147 1.387 . S
C1149 C1151 1.390 . S
C1149 H1153 0.950 . S
H1150 C1146 0.950 . S
C1151 C1149 1.390 . S
C1151 C1152 1.387 . S
C1151 H1154 0.950 . S
C1152 C1151 1.387 . S
C1152 C1155 1.387 . S
H1153 C1149 0.950 . S
H1154 C1151 0.950 . S
C1155 C1146 1.390 . S
C1155 H1148 0.950 . S
C1155 C1152 1.387 . S
C1156 C1157 1.387 . S
C1156 H1160 0.950 . S
C1156 C1165 1.390 . S
C1157 C1156 1.387 . S
C1157 C1159 1.387 . S
H1158 C1165 0.950 . S
C1159 C1157 1.387 . S
C1159 C1161 1.390 . S
C1159 H1163 0.950 . S
H1160 C1156 0.950 . S
C1161 C1159 1.390 . S
C1161 C1162 1.387 . S
C1161 H1164 0.950 . S
C1162 C1161 1.387 . S
C1162 C1165 1.387 . S
H1163 C1159 0.950 . S
H1164 C1161 0.950 . S
C1165 C1156 1.390 . S
C1165 H1158 0.950 . S
C1165 C1162 1.387 . S
C1166 C1167 1.387 . S
C1166 H1170 0.950 . S
C1166 C1175 1.390 . S
C1167 C1166 1.387 . S
C1167 C1169 1.387 . S
H1168 C1175 0.950 . S
C1169 C1167 1.387 . S
C1169 C1171 1.390 . S
C1169 H1173 0.950 . S
H1170 C1166 0.950 . S
C1171 C1169 1.390 . S
C1171 C1172 1.387 . S
C1171 H1174 0.950 . S
C1172 C1171 1.387 . S
C1172 C1175 1.387 . S
H1173 C1169 0.950 . S
H1174 C1171 0.950 . S
C1175 C1166 1.390 . S
C1175 H1168 0.950 . S
C1175 C1172 1.387 . S
C1176 C1177 1.387 . S
C1176 H1180 0.950 . S
C1176 C1185 1.390 . S
C1177 C1176 1.387 . S
C1177 C1179 1.387 . S
H1178 C1185 0.950 . S
C1179 C1177 1.387 . S
C1179 C1181 1.390 . S
C1179 H1183 0.950 . S
H1180 C1176 0.950 . S
C1181 C1179 1.390 . S
C1181 C1182 1.387 . S
C1181 H1184 0.950 . S
C1182 C1181 1.387 . S
C1182 C1185 1.387 . S
H1183 C1179 0.950 . S
H1184 C1181 0.950 . S
C1185 C1176 1.390 . S
C1185 H1178 0.950 . S
C1185 C1182 1.387 . S
C1186 C1187 1.387 . S
C1186 H1190 0.950 . S
C1186 C1195 1.390 . S
C1187 C1186 1.387 . S
C1187 C1189 1.387 . S
H1188 C1195 0.950 . S
C1189 C1187 1.387 . S
C1189 C1191 1.390 . S
C1189 H1193 0.950 . S
H1190 C1186 0.950 . S
C1191 C1189 1.390 . S
C1191 C1192 1.387 . S
C1191 H1194 0.950 . S
C1192 C1191 1.387 . S
C1192 C1195 1.387 . S
H1193 C1189 0.950 . S
H1194 C1191 0.950 . S
C1195 C1186 1.390 . S
C1195 H1188 0.950 . S
C1195 C1192 1.387 . S
C1196 C1197 1.387 . S
C1196 H1200 0.950 . S
C1196 C1205 1.390 . S
C1197 C1196 1.387 . S
C1197 C1199 1.387 . S
H1198 C1205 0.950 . S
C1199 C1197 1.387 . S
C1199 C1201 1.390 . S
C1199 H1203 0.950 . S
H1200 C1196 0.950 . S
C1201 C1199 1.390 . S
C1201 C1202 1.387 . S
C1201 H1204 0.950 . S
C1202 C1201 1.387 . S
C1202 C1205 1.387 . S
H1203 C1199 0.950 . S
H1204 C1201 0.950 . S
C1205 C1196 1.390 . S
C1205 H1198 0.950 . S
C1205 C1202 1.387 . S
C1206 C1207 1.387 . S
C1206 H1210 0.950 . S
C1206 C1215 1.390 . S
C1207 C1206 1.387 . S
C1207 C1209 1.387 . S
H1208 C1215 0.950 . S
C1209 C1207 1.387 . S
C1209 C1211 1.390 . S
C1209 H1213 0.950 . S
H1210 C1206 0.950 . S
C1211 C1209 1.390 . S
C1211 C1212 1.387 . S
C1211 H1214 0.950 . S
C1212 C1211 1.387 . S
C1212 C1215 1.387 . S
H1213 C1209 0.950 . S
H1214 C1211 0.950 . S
C1215 C1206 1.390 . S
C1215 H1208 0.950 . S
C1215 C1212 1.387 . S
C1216 C1217 1.387 . S
C1216 H1220 0.950 . S
C1216 C1225 1.390 . S
C1217 C1216 1.387 . S
C1217 C1219 1.387 . S
H1218 C1225 0.950 . S
C1219 C1217 1.387 . S
C1219 C1221 1.390 . S
C1219 H1223 0.950 . S
H1220 C1216 0.950 . S
C1221 C1219 1.390 . S
C1221 C1222 1.387 . S
C1221 H1224 0.950 . S
C1222 C1221 1.387 . S
C1222 C1225 1.387 . S
H1223 C1219 0.950 . S
H1224 C1221 0.950 . S
C1225 C1216 1.390 . S
C1225 H1218 0.950 . S
C1225 C1222 1.387 . S
C1226 C1227 1.387 . S
C1226 H1230 0.950 . S
C1226 C1235 1.390 . S
C1227 C1226 1.387 . S
C1227 C1229 1.387 . S
H1228 C1235 0.950 . S
C1229 C1227 1.387 . S
C1229 C1231 1.390 . S
C1229 H1233 0.950 . S
H1230 C1226 0.950 . S
C1231 C1229 1.390 . S
C1231 C1232 1.387 . S
C1231 H1234 0.950 . S
C1232 C1231 1.387 . S
C1232 C1235 1.387 . S
H1233 C1229 0.950 . S
H1234 C1231 0.950 . S
C1235 C1226 1.390 . S
C1235 H1228 0.950 . S
C1235 C1232 1.387 . S
C1236 C1237 1.387 . S
C1236 H1240 0.950 . S
C1236 C1245 1.390 . S
C1237 C1236 1.387 . S
C1237 C1239 1.387 . S
H1238 C1245 0.950 1_455 S
C1239 C1237 1.387 . S
C1239 C1241 1.390 . S
C1239 H1243 0.950 . S
H1240 C1236 0.950 . S
C1241 C1239 1.390 . S
C1241 C1242 1.387 1_655 S
C1241 H1244 0.950 1_655 S
C1242 C1241 1.387 1_455 S
C1242 C1245 1.387 1_455 S
H1243 C1239 0.950 . S
H1244 C1241 0.950 1_455 S
C1245 C1236 1.390 . S
C1245 H1238 0.950 1_655 S
C1245 C1242 1.387 1_655 S
C1246 C1247 1.387 . S
C1246 H1250 0.950 . S
C1246 C1255 1.390 . S
C1247 C1246 1.387 . S
C1247 C1249 1.387 . S
H1248 C1255 0.950 . S
C1249 C1247 1.387 . S
C1249 C1251 1.390 . S
C1249 H1253 0.950 . S
H1250 C1246 0.950 . S
C1251 C1249 1.390 . S
C1251 C1252 1.387 . S
C1251 H1254 0.950 . S
C1252 C1251 1.387 . S
C1252 C1255 1.387 . S
H1253 C1249 0.950 . S
H1254 C1251 0.950 . S
C1255 C1246 1.390 . S
C1255 H1248 0.950 . S
C1255 C1252 1.387 . S
C1256 C1257 1.387 1_545 S
C1256 H1260 0.950 1_545 S
C1256 C1265 1.390 . S
C1257 C1256 1.387 1_565 S
C1257 C1259 1.387 1_565 S
H1258 C1265 0.950 . S
C1259 C1257 1.387 1_545 S
C1259 C1261 1.390 . S
C1259 H1263 0.950 1_545 S
H1260 C1256 0.950 1_565 S
C1261 C1259 1.390 . S
C1261 C1262 1.387 . S
C1261 H1264 0.950 . S
C1262 C1261 1.387 . S
C1262 C1265 1.387 . S
H1263 C1259 0.950 1_565 S
H1264 C1261 0.950 . S
C1265 C1256 1.390 . S
C1265 H1258 0.950 . S
C1265 C1262 1.387 . S
C1266 C1267 1.387 . S
C1266 H1270 0.950 . S
C1266 C1275 1.390 . S
C1267 C1266 1.387 . S
C1267 C1269 1.387 . S
H1268 C1275 0.950 . S
C1269 C1267 1.387 . S
C1269 C1271 1.390 . S
C1269 H1273 0.950 . S
H1270 C1266 0.950 . S
C1271 C1269 1.390 . S
C1271 C1272 1.387 . S
C1271 H1274 0.950 . S
C1272 C1271 1.387 . S
C1272 C1275 1.387 . S
H1273 C1269 0.950 . S
H1274 C1271 0.950 . S
C1275 C1266 1.390 . S
C1275 H1268 0.950 . S
C1275 C1272 1.387 . S
C1276 C1277 1.387 . S
C1276 H1280 0.950 . S
C1276 C1285 1.390 . S
C1277 C1276 1.387 . S
C1277 C1279 1.387 . S
H1278 C1285 0.950 . S
C1279 C1277 1.387 . S
C1279 C1281 1.390 . S
C1279 H1283 0.950 . S
H1280 C1276 0.950 . S
C1281 C1279 1.390 . S
C1281 C1282 1.387 . S
C1281 H1284 0.950 . S
C1282 C1281 1.387 . S
C1282 C1285 1.387 . S
H1283 C1279 0.950 . S
H1284 C1281 0.950 . S
C1285 C1276 1.390 . S
C1285 H1278 0.950 . S
C1285 C1282 1.387 . S
C1286 C1287 1.387 . S
C1286 H1290 0.950 . S
C1286 C1295 1.390 . S
C1287 C1286 1.387 . S
C1287 C1289 1.387 . S
H1288 C1295 0.950 . S
C1289 C1287 1.387 . S
C1289 C1291 1.390 . S
C1289 H1293 0.950 . S
H1290 C1286 0.950 . S
C1291 C1289 1.390 . S
C1291 C1292 1.387 . S
C1291 H1294 0.950 . S
C1292 C1291 1.387 . S
C1292 C1295 1.387 . S
H1293 C1289 0.950 . S
H1294 C1291 0.950 . S
C1295 C1286 1.390 . S
C1295 H1288 0.950 . S
C1295 C1292 1.387 . S
C1296 C1297 1.387 . S
C1296 H1300 0.950 . S
C1296 C1305 1.390 . S
C1297 C1296 1.387 . S
C1297 C1299 1.387 . S
H1298 C1305 0.950 . S
C1299 C1297 1.387 . S
C1299 C1301 1.390 . S
C1299 H1303 0.950 . S
H1300 C1296 0.950 . S
C1301 C1299 1.390 . S
C1301 C1302 1.387 . S
C1301 H1304 0.950 . S
C1302 C1301 1.387 . S
C1302 C1305 1.387 . S
H1303 C1299 0.950 . S
H1304 C1301 0.950 . S
C1305 C1296 1.390 . S
C1305 H1298 0.950 . S
C1305 C1302 1.387 . S
C1306 C1307 1.387 . S
C1306 H1310 0.950 . S
C1306 C1315 1.390 . S
C1307 C1306 1.387 . S
C1307 C1309 1.387 . S
H1308 C1315 0.950 . S
C1309 C1307 1.387 . S
C1309 C1311 1.390 . S
C1309 H1313 0.950 . S
H1310 C1306 0.950 . S
C1311 C1309 1.390 . S
C1311 C1312 1.387 . S
C1311 H1314 0.950 . S
C1312 C1311 1.387 . S
C1312 C1315 1.387 . S
H1313 C1309 0.950 . S
H1314 C1311 0.950 . S
C1315 C1306 1.390 . S
C1315 H1308 0.950 . S
C1315 C1312 1.387 . S
C1316 C1317 1.387 . S
C1316 H1320 0.950 . S
C1316 C1325 1.390 . S
C1317 C1316 1.387 . S
C1317 C1319 1.387 . S
H1318 C1325 0.950 . S
C1319 C1317 1.387 . S
C1319 C1321 1.390 . S
C1319 H1323 0.950 . S
H1320 C1316 0.950 . S
C1321 C1319 1.390 . S
C1321 C1322 1.387 . S
C1321 H1324 0.950 . S
C1322 C1321 1.387 . S
C1322 C1325 1.387 . S
H1323 C1319 0.950 . S
H1324 C1321 0.950 . S
C1325 C1316 1.390 . S
C1325 H1318 0.950 . S
C1325 C1322 1.387 . S
C1326 C1327 1.387 1_546 S
C1326 H1330 0.950 1_545 S
C1326 C1335 1.390 . S
C1327 C1326 1.387 1_564 S
C1327 C1329 1.387 1_565 S
H1328 C1335 0.950 . S
C1329 C1327 1.387 1_545 S
C1329 C1331 1.390 . S
C1329 H1333 0.950 1_545 S
H1330 C1326 0.950 1_565 S
C1331 C1329 1.390 . S
C1331 C1332 1.387 . S
C1331 H1334 0.950 . S
C1332 C1331 1.387 . S
C1332 C1335 1.387 1_554 S
H1333 C1329 0.950 1_565 S
H1334 C1331 0.950 . S
C1335 C1326 1.390 . S
C1335 H1328 0.950 . S
C1335 C1332 1.387 1_556 S
C1336 C1337 1.387 1_655 S
C1336 H1340 0.950 1_655 S
C1336 C1345 1.390 . S
C1337 C1336 1.387 1_455 S
C1337 C1339 1.387 1_454 S
H1338 C1345 0.950 . S
C1339 C1337 1.387 1_656 S
C1339 C1341 1.390 . S
C1339 H1343 0.950 1_655 S
H1340 C1336 0.950 1_455 S
C1341 C1339 1.390 . S
C1341 C1342 1.387 1_556 S
C1341 H1344 0.950 . S
C1342 C1341 1.387 1_554 S
C1342 C1345 1.387 . S
H1343 C1339 0.950 1_455 S
H1344 C1341 0.950 . S
C1345 C1336 1.390 . S
C1345 H1338 0.950 . S
C1345 C1342 1.387 . S
C1346 C1347 1.387 . S
C1346 H1350 0.950 . S
C1346 C1355 1.390 . S
C1347 C1346 1.387 . S
C1347 C1349 1.387 1_554 S
H1348 C1355 0.950 . S
C1349 C1347 1.387 1_556 S
C1349 C1351 1.390 . S
C1349 H1353 0.950 . S
H1350 C1346 0.950 . S
C1351 C1349 1.390 . S
C1351 C1352 1.387 1_556 S
C1351 H1354 0.950 . S
C1352 C1351 1.387 1_554 S
C1352 C1355 1.387 . S
H1353 C1349 0.950 . S
H1354 C1351 0.950 . S
C1355 C1346 1.390 . S
C1355 H1348 0.950 . S
C1355 C1352 1.387 . S
C1356 C1357 1.387 . S
C1356 H1360 0.950 . S
C1356 C1365 1.390 . S
C1357 C1356 1.387 . S
C1357 C1359 1.387 . S
H1358 C1365 0.950 . S
C1359 C1357 1.387 . S
C1359 C1361 1.390 . S
C1359 H1363 0.950 . S
H1360 C1356 0.950 . S
C1361 C1359 1.390 . S
C1361 C1362 1.387 . S
C1361 H1364 0.950 . S
C1362 C1361 1.387 . S
C1362 C1365 1.387 . S
H1363 C1359 0.950 . S
H1364 C1361 0.950 . S
C1365 C1356 1.390 . S
C1365 H1358 0.950 . S
C1365 C1362 1.387 . S
C1366 C1367 1.387 . S
C1366 H1370 0.950 . S
C1366 C1375 1.390 . S
C1367 C1366 1.387 . S
C1367 C1369 1.387 . S
H1368 C1375 0.950 . S
C1369 C1367 1.387 . S
C1369 C1371 1.390 . S
C1369 H1373 0.950 . S
H1370 C1366 0.950 . S
C1371 C1369 1.390 . S
C1371 C1372 1.387 . S
C1371 H1374 0.950 . S
C1372 C1371 1.387 . S
C1372 C1375 1.387 . S
H1373 C1369 0.950 . S
H1374 C1371 0.950 . S
C1375 C1366 1.390 . S
C1375 H1368 0.950 . S
C1375 C1372 1.387 . S
C1376 C1377 1.387 . S
C1376 H1380 0.950 . S
C1376 C1385 1.390 . S
C1377 C1376 1.387 . S
C1377 C1379 1.387 . S
H1378 C1385 0.950 . S
C1379 C1377 1.387 . S
C1379 C1381 1.390 . S
C1379 H1383 0.950 . S
H1380 C1376 0.950 . S
C1381 C1379 1.390 . S
C1381 C1382 1.387 . S
C1381 H1384 0.950 . S
C1382 C1381 1.387 . S
C1382 C1385 1.387 . S
H1383 C1379 0.950 . S
H1384 C1381 0.950 . S
C1385 C1376 1.390 . S
C1385 H1378 0.950 . S
C1385 C1382 1.387 . S
C1386 C1387 1.387 . S
C1386 H1390 0.950 . S
C1386 C1395 1.390 . S
C1387 C1386 1.387 . S
C1387 C1389 1.387 1_556 S
H1388 C1395 0.950 1_545 S
C1389 C1387 1.387 1_554 S
C1389 C1391 1.390 . S
C1389 H1393 0.950 . S
H1390 C1386 0.950 . S
C1391 C1389 1.390 . S
C1391 C1392 1.387 1_564 S
C1391 H1394 0.950 1_565 S
C1392 C1391 1.387 1_546 S
C1392 C1395 1.387 1_545 S
H1393 C1389 0.950 . S
H1394 C1391 0.950 1_545 S
C1395 C1386 1.390 . S
C1395 H1388 0.950 1_565 S
C1395 C1392 1.387 1_565 S
C1396 C1397 1.387 1_455 S
C1396 H1400 0.950 1_455 S
C1396 C1405 1.390 . S
C1397 C1396 1.387 1_655 S
C1397 C1399 1.387 1_656 S
H1398 C1405 0.950 . S
C1399 C1397 1.387 1_454 S
C1399 C1401 1.390 . S
C1399 H1403 0.950 1_455 S
H1400 C1396 0.950 1_655 S
C1401 C1399 1.390 . S
C1401 C1402 1.387 1_554 S
C1401 H1404 0.950 . S
C1402 C1401 1.387 1_556 S
C1402 C1405 1.387 . S
H1403 C1399 0.950 1_655 S
H1404 C1401 0.950 . S
C1405 C1396 1.390 . S
C1405 H1398 0.950 . S
C1405 C1402 1.387 . S
C1406 C1407 1.387 1_554 S
C1406 H1410 0.950 . S
C1406 C1415 1.390 . S
C1407 C1406 1.387 1_556 S
C1407 C1409 1.387 . S
H1408 C1415 0.950 . S
C1409 C1407 1.387 . S
C1409 C1411 1.390 . S
C1409 H1413 0.950 . S
H1410 C1406 0.950 . S
C1411 C1409 1.390 . S
C1411 C1412 1.387 . S
C1411 H1414 0.950 . S
C1412 C1411 1.387 . S
C1412 C1415 1.387 1_556 S
H1413 C1409 0.950 . S
H1414 C1411 0.950 . S
C1415 C1406 1.390 . S
C1415 H1408 0.950 . S
C1415 C1412 1.387 1_554 S
C1416 C1417 1.387 . S
C1416 H1420 0.950 . S
C1416 C1425 1.390 . S
C1417 C1416 1.387 . S
C1417 C1419 1.387 . S
H1418 C1425 0.950 1_655 S
C1419 C1417 1.387 . S
C1419 C1421 1.390 . S
C1419 H1423 0.950 . S
H1420 C1416 0.950 . S
C1421 C1419 1.390 . S
C1421 C1422 1.387 1_455 S
C1421 H1424 0.950 1_455 S
C1422 C1421 1.387 1_655 S
C1422 C1425 1.387 1_655 S
H1423 C1419 0.950 . S
H1424 C1421 0.950 1_655 S
C1425 C1416 1.390 . S
C1425 H1418 0.950 1_455 S
C1425 C1422 1.387 1_455 S
C1426 C1427 1.387 . S
C1426 H1430 0.950 . S
C1426 C1435 1.390 . S
C1427 C1426 1.387 . S
C1427 C1429 1.387 . S
H1428 C1435 0.950 . S
C1429 C1427 1.387 . S
C1429 C1431 1.390 . S
C1429 H1433 0.950 . S
H1430 C1426 0.950 . S
C1431 C1429 1.390 . S
C1431 C1432 1.387 . S
C1431 H1434 0.950 . S
C1432 C1431 1.387 . S
C1432 C1435 1.387 . S
H1433 C1429 0.950 . S
H1434 C1431 0.950 . S
C1435 C1426 1.390 . S
C1435 H1428 0.950 . S
C1435 C1432 1.387 . S
C1436 C1437 1.387 . S
C1436 H1440 0.950 . S
C1436 C1445 1.390 . S
C1437 C1436 1.387 . S
C1437 C1439 1.387 . S
H1438 C1445 0.950 1_545 S
C1439 C1437 1.387 . S
C1439 C1441 1.390 . S
C1439 H1443 0.950 . S
H1440 C1436 0.950 . S
C1441 C1439 1.390 . S
C1441 C1442 1.387 1_565 S
C1441 H1444 0.950 1_565 S
C1442 C1441 1.387 1_545 S
C1442 C1445 1.387 1_545 S
H1443 C1439 0.950 . S
H1444 C1441 0.950 1_545 S
C1445 C1436 1.390 . S
C1445 H1438 0.950 1_565 S
C1445 C1442 1.387 1_565 S
C1446 C1447 1.387 . S
C1446 H1450 0.950 . S
C1446 C1455 1.390 . S
C1447 C1446 1.387 . S
C1447 C1449 1.387 . S
H1448 C1455 0.950 . S
C1449 C1447 1.387 . S
C1449 C1451 1.390 . S
C1449 H1453 0.950 . S
H1450 C1446 0.950 . S
C1451 C1449 1.390 . S
C1451 C1452 1.387 . S
C1451 H1454 0.950 . S
C1452 C1451 1.387 . S
C1452 C1455 1.387 . S
H1453 C1449 0.950 . S
H1454 C1451 0.950 . S
C1455 C1446 1.390 . S
C1455 H1448 0.950 . S
C1455 C1452 1.387 . S
C1456 C1457 1.387 . S
C1456 H1460 0.950 . S
C1456 C1465 1.390 . S
C1457 C1456 1.387 . S
C1457 C1459 1.387 . S
H1458 C1465 0.950 . S
C1459 C1457 1.387 . S
C1459 C1461 1.390 . S
C1459 H1463 0.950 . S
H1460 C1456 0.950 . S
C1461 C1459 1.390 . S
C1461 C1462 1.387 . S
C1461 H1464 0.950 . S
C1462 C1461 1.387 . S
C1462 C1465 1.387 . S
H1463 C1459 0.950 . S
H1464 C1461 0.950 . S
C1465 C1456 1.390 . S
C1465 H1458 0.950 . S
C1465 C1462 1.387 . S
C1466 C1467 1.387 . S
C1466 H1470 0.950 . S
C1466 C1475 1.390 . S
C1467 C1466 1.387 . S
C1467 C1469 1.387 . S
H1468 C1475 0.950 . S
C1469 C1467 1.387 . S
C1469 C1471 1.390 . S
C1469 H1473 0.950 . S
H1470 C1466 0.950 . S
C1471 C1469 1.390 . S
C1471 C1472 1.387 . S
C1471 H1474 0.950 . S
C1472 C1471 1.387 . S
C1472 C1475 1.387 . S
H1473 C1469 0.950 . S
H1474 C1471 0.950 . S
C1475 C1466 1.390 . S
C1475 H1468 0.950 . S
C1475 C1472 1.387 . S
C1476 C1477 1.387 . S
C1476 H1480 0.950 . S
C1476 C1485 1.390 . S
C1477 C1476 1.387 . S
C1477 C1479 1.387 . S
H1478 C1485 0.950 . S
C1479 C1477 1.387 . S
C1479 C1481 1.390 . S
C1479 H1483 0.950 . S
H1480 C1476 0.950 . S
C1481 C1479 1.390 . S
C1481 C1482 1.387 . S
C1481 H1484 0.950 . S
C1482 C1481 1.387 . S
C1482 C1485 1.387 . S
H1483 C1479 0.950 . S
H1484 C1481 0.950 . S
C1485 C1476 1.390 . S
C1485 H1478 0.950 . S
C1485 C1482 1.387 . S
C1486 C1487 1.387 . S
C1486 H1490 0.950 . S
C1486 C1495 1.390 . S
C1487 C1486 1.387 . S
C1487 C1489 1.387 . S
H1488 C1495 0.950 . S
C1489 C1487 1.387 . S
C1489 C1491 1.390 . S
C1489 H1493 0.950 . S
H1490 C1486 0.950 . S
C1491 C1489 1.390 . S
C1491 C1492 1.387 . S
C1491 H1494 0.950 . S
C1492 C1491 1.387 . S
C1492 C1495 1.387 . S
H1493 C1489 0.950 . S
H1494 C1491 0.950 . S
C1495 C1486 1.390 . S
C1495 H1488 0.950 . S
C1495 C1492 1.387 . S
C1496 C1497 1.387 . S
C1496 H1500 0.950 . S
C1496 C1505 1.390 . S
C1497 C1496 1.387 . S
C1497 C1499 1.387 . S
H1498 C1505 0.950 . S
C1499 C1497 1.387 . S
C1499 C1501 1.390 . S
C1499 H1503 0.950 . S
H1500 C1496 0.950 . S
C1501 C1499 1.390 . S
C1501 C1502 1.387 . S
C1501 H1504 0.950 . S
C1502 C1501 1.387 . S
C1502 C1505 1.387 . S
H1503 C1499 0.950 . S
H1504 C1501 0.950 . S
C1505 C1496 1.390 . S
C1505 H1498 0.950 . S
C1505 C1502 1.387 . S
C1506 C1507 1.387 . S
C1506 H1510 0.950 . S
C1506 C1515 1.390 . S
C1507 C1506 1.387 . S
C1507 C1509 1.387 . S
H1508 C1515 0.950 . S
C1509 C1507 1.387 . S
C1509 C1511 1.390 . S
C1509 H1513 0.950 . S
H1510 C1506 0.950 . S
C1511 C1509 1.390 . S
C1511 C1512 1.387 . S
C1511 H1514 0.950 . S
C1512 C1511 1.387 . S
C1512 C1515 1.387 . S
H1513 C1509 0.950 . S
H1514 C1511 0.950 . S
C1515 C1506 1.390 . S
C1515 H1508 0.950 . S
C1515 C1512 1.387 . S
C1516 C1517 1.387 . S
C1516 H1520 0.950 . S
C1516 C1525 1.390 . S
C1517 C1516 1.387 . S
C1517 C1519 1.387 . S
H1518 C1525 0.950 . S
C1519 C1517 1.387 . S
C1519 C1521 1.390 . S
C1519 H1523 0.950 . S
H1520 C1516 0.950 . S
C1521 C1519 1.390 . S
C1521 C1522 1.387 . S
C1521 H1524 0.950 . S
C1522 C1521 1.387 . S
C1522 C1525 1.387 . S
H1523 C1519 0.950 . S
H1524 C1521 0.950 . S
C1525 C1516 1.390 . S
C1525 H1518 0.950 . S
C1525 C1522 1.387 . S
C1526 C1527 1.387 . S
C1526 H1530 0.950 . S
C1526 C1535 1.390 . S
C1527 C1526 1.387 . S
C1527 C1529 1.387 . S
H1528 C1535 0.950 . S
C1529 C1527 1.387 . S
C1529 C1531 1.390 . S
C1529 H1533 0.950 . S
H1530 C1526 0.950 . S
C1531 C1529 1.390 . S
C1531 C1532 1.387 . S
C1531 H1534 0.950 . S
C1532 C1531 1.387 . S
C1532 C1535 1.387 . S
H1533 C1529 0.950 . S
H1534 C1531 0.950 . S
C1535 C1526 1.390 . S
C1535 H1528 0.950 . S
C1535 C1532 1.387 . S
C1536 C1537 1.387 . S
C1536 H1540 0.950 . S
C1536 C1545 1.390 . S
C1537 C1536 1.387 . S
C1537 C1539 1.387 . S
H1538 C1545 0.950 . S
C1539 C1537 1.387 . S
C1539 C1541 1.390 . S
C1539 H1543 0.950 . S
H1540 C1536 0.950 . S
C1541 C1539 1.390 . S
C1541 C1542 1.387 . S
C1541 H1544 0.950 . S
C1542 C1541 1.387 . S
C1542 C1545 1.387 . S
H1543 C1539 0.950 . S
H1544 C1541 0.950 . S
C1545 C1536 1.390 . S
C1545 H1538 0.950 . S
C1545 C1542 1.387 . S
C1546 C1547 1.387 . S
C1546 H1550 0.950 . S
C1546 C1555 1.390 . S
C1547 C1546 1.387 . S
C1547 C1549 1.387 . S
H1548 C1555 0.950 . S
C1549 C1547 1.387 . S
C1549 C1551 1.390 . S
C1549 H1553 0.950 . S
H1550 C1546 0.950 . S
C1551 C1549 1.390 . S
C1551 C1552 1.387 . S
C1551 H1554 0.950 . S
C1552 C1551 1.387 . S
C1552 C1555 1.387 . S
H1553 C1549 0.950 . S
H1554 C1551 0.950 . S
C1555 C1546 1.390 . S
C1555 H1548 0.950 . S
C1555 C1552 1.387 . S
C1556 C1557 1.387 . S
C1556 H1560 0.950 . S
C1556 C1565 1.390 . S
C1557 C1556 1.387 . S
C1557 C1559 1.387 . S
H1558 C1565 0.950 . S
C1559 C1557 1.387 . S
C1559 C1561 1.390 . S
C1559 H1563 0.950 . S
H1560 C1556 0.950 . S
C1561 C1559 1.390 . S
C1561 C1562 1.387 . S
C1561 H1564 0.950 . S
C1562 C1561 1.387 . S
C1562 C1565 1.387 . S
H1563 C1559 0.950 . S
H1564 C1561 0.950 . S
C1565 C1556 1.390 . S
C1565 H1558 0.950 . S
C1565 C1562 1.387 . S
C1566 C1567 1.387 . S
C1566 H1570 0.950 . S
C1566 C1575 1.390 . S
C1567 C1566 1.387 . S
C1567 C1569 1.387 . S
H1568 C1575 0.950 . S
C1569 C1567 1.387 . S
C1569 C1571 1.390 . S
C1569 H1573 0.950 . S
H1570 C1566 0.950 . S
C1571 C1569 1.390 . S
C1571 C1572 1.387 . S
C1571 H1574 0.950 . S
C1572 C1571 1.387 . S
C1572 C1575 1.387 . S
H1573 C1569 0.950 . S
H1574 C1571 0.950 . S
C1575 C1566 1.390 . S
C1575 H1568 0.950 . S
C1575 C1572 1.387 . S
C1576 C1577 1.387 . S
C1576 H1580 0.950 . S
C1576 C1585 1.390 . S
C1577 C1576 1.387 . S
C1577 C1579 1.387 . S
H1578 C1585 0.950 . S
C1579 C1577 1.387 . S
C1579 C1581 1.390 . S
C1579 H1583 0.950 . S
H1580 C1576 0.950 . S
C1581 C1579 1.390 . S
C1581 C1582 1.387 . S
C1581 H1584 0.950 . S
C1582 C1581 1.387 . S
C1582 C1585 1.387 . S
H1583 C1579 0.950 . S
H1584 C1581 0.950 . S
C1585 C1576 1.390 . S
C1585 H1578 0.950 . S
C1585 C1582 1.387 . S
C1586 C1587 1.387 . S
C1586 H1590 0.950 . S
C1586 C1595 1.390 . S
C1587 C1586 1.387 . S
C1587 C1589 1.387 . S
H1588 C1595 0.950 . S
C1589 C1587 1.387 . S
C1589 C1591 1.390 . S
C1589 H1593 0.950 . S
H1590 C1586 0.950 . S
C1591 C1589 1.390 . S
C1591 C1592 1.387 . S
C1591 H1594 0.950 . S
C1592 C1591 1.387 . S
C1592 C1595 1.387 . S
H1593 C1589 0.950 . S
H1594 C1591 0.950 . S
C1595 C1586 1.390 . S
C1595 H1588 0.950 . S
C1595 C1592 1.387 . S
C1596 C1597 1.387 . S
C1596 H1600 0.950 . S
C1596 C1605 1.390 1_655 S
C1597 C1596 1.387 . S
C1597 C1599 1.387 . S
H1598 C1605 0.950 . S
C1599 C1597 1.387 . S
C1599 C1601 1.390 1_655 S
C1599 H1603 0.950 . S
H1600 C1596 0.950 . S
C1601 C1599 1.390 1_455 S
C1601 C1602 1.387 . S
C1601 H1604 0.950 . S
C1602 C1601 1.387 . S
C1602 C1605 1.387 . S
H1603 C1599 0.950 . S
H1604 C1601 0.950 . S
C1605 C1596 1.390 1_455 S
C1605 H1598 0.950 . S
C1605 C1602 1.387 . S
C1606 C1607 1.387 . S
C1606 H1610 0.950 . S
C1606 C1615 1.390 . S
C1607 C1606 1.387 . S
C1607 C1609 1.387 . S
H1608 C1615 0.950 . S
C1609 C1607 1.387 . S
C1609 C1611 1.390 . S
C1609 H1613 0.950 . S
H1610 C1606 0.950 . S
C1611 C1609 1.390 . S
C1611 C1612 1.387 . S
C1611 H1614 0.950 . S
C1612 C1611 1.387 . S
C1612 C1615 1.387 . S
H1613 C1609 0.950 . S
H1614 C1611 0.950 . S
C1615 C1606 1.390 . S
C1615 H1608 0.950 . S
C1615 C1612 1.387 . S
C1616 C1617 1.387 . S
C1616 H1620 0.950 . S
C1616 C1625 1.390 1_545 S
C1617 C1616 1.387 . S
C1617 C1619 1.387 . S
H1618 C1625 0.950 . S
C1619 C1617 1.387 . S
C1619 C1621 1.390 1_545 S
C1619 H1623 0.950 . S
H1620 C1616 0.950 . S
C1621 C1619 1.390 1_565 S
C1621 C1622 1.387 . S
C1621 H1624 0.950 . S
C1622 C1621 1.387 . S
C1622 C1625 1.387 . S
H1623 C1619 0.950 . S
H1624 C1621 0.950 . S
C1625 C1616 1.390 1_565 S
C1625 H1618 0.950 . S
C1625 C1622 1.387 . S
C1626 C1627 1.387 . S
C1626 H1630 0.950 . S
C1626 C1635 1.390 1_545 S
C1627 C1626 1.387 . S
C1627 C1629 1.387 . S
H1628 C1635 0.950 . S
C1629 C1627 1.387 . S
C1629 C1631 1.390 1_545 S
C1629 H1633 0.950 . S
H1630 C1626 0.950 . S
C1631 C1629 1.390 1_565 S
C1631 C1632 1.387 . S
C1631 H1634 0.950 . S
C1632 C1631 1.387 . S
C1632 C1635 1.387 . S
H1633 C1629 0.950 . S
H1634 C1631 0.950 . S
C1635 C1626 1.390 1_565 S
C1635 H1628 0.950 . S
C1635 C1632 1.387 . S
C1636 C1637 1.387 . S
C1636 H1640 0.950 . S
C1636 C1645 1.390 1_455 S
C1637 C1636 1.387 . S
C1637 C1639 1.387 . S
H1638 C1645 0.950 . S
C1639 C1637 1.387 . S
C1639 C1641 1.390 1_455 S
C1639 H1643 0.950 . S
H1640 C1636 0.950 . S
C1641 C1639 1.390 1_655 S
C1641 C1642 1.387 . S
C1641 H1644 0.950 . S
C1642 C1641 1.387 . S
C1642 C1645 1.387 . S
H1643 C1639 0.950 . S
H1644 C1641 0.950 . S
C1645 C1636 1.390 1_655 S
C1645 H1638 0.950 . S
C1645 C1642 1.387 . S
C1646 C1647 1.387 . S
C1646 H1650 0.950 . S
C1646 C1655 1.390 . S
C1647 C1646 1.387 . S
C1647 C1649 1.387 . S
H1648 C1655 0.950 . S
C1649 C1647 1.387 . S
C1649 C1651 1.390 . S
C1649 H1653 0.950 . S
H1650 C1646 0.950 . S
C1651 C1649 1.390 . S
C1651 C1652 1.387 . S
C1651 H1654 0.950 . S
C1652 C1651 1.387 . S
C1652 C1655 1.387 . S
H1653 C1649 0.950 . S
H1654 C1651 0.950 . S
C1655 C1646 1.390 . S
C1655 H1648 0.950 . S
C1655 C1652 1.387 . S
C1656 C1657 1.387 1_455 S
C1656 H1660 0.950 . S
C1656 C1665 1.390 . S
C1657 C1656 1.387 1_655 S
C1657 C1659 1.387 . S
H1658 C1665 0.950 . S
C1659 C1657 1.387 . S
C1659 C1661 1.390 . S
C1659 H1663 0.950 . S
H1660 C1656 0.950 . S
C1661 C1659 1.390 . S
C1661 C1662 1.387 1_655 S
C1661 H1664 0.950 . S
C1662 C1661 1.387 1_455 S
C1662 C1665 1.387 . S
H1663 C1659 0.950 . S
H1664 C1661 0.950 . S
C1665 C1656 1.390 . S
C1665 H1658 0.950 . S
C1665 C1662 1.387 . S
C1666 C1667 1.387 . S
C1666 H1670 0.950 . S
C1666 C1675 1.390 . S
C1667 C1666 1.387 . S
C1667 C1669 1.387 . S
H1668 C1675 0.950 . S
C1669 C1667 1.387 . S
C1669 C1671 1.390 . S
C1669 H1673 0.950 . S
H1670 C1666 0.950 . S
C1671 C1669 1.390 . S
C1671 C1672 1.387 . S
C1671 H1674 0.950 . S
C1672 C1671 1.387 . S
C1672 C1675 1.387 . S
H1673 C1669 0.950 . S
H1674 C1671 0.950 . S
C1675 C1666 1.390 . S
C1675 H1668 0.950 . S
C1675 C1672 1.387 . S
C1676 C1677 1.387 . S
C1676 H1680 0.950 . S
C1676 C1685 1.390 1_545 S
C1677 C1676 1.387 . S
C1677 C1679 1.387 . S
H1678 C1685 0.950 . S
C1679 C1677 1.387 . S
C1679 C1681 1.390 1_545 S
C1679 H1683 0.950 . S
H1680 C1676 0.950 . S
C1681 C1679 1.390 1_565 S
C1681 C1682 1.387 . S
C1681 H1684 0.950 . S
C1682 C1681 1.387 . S
C1682 C1685 1.387 . S
H1683 C1679 0.950 . S
H1684 C1681 0.950 . S
C1685 C1676 1.390 1_565 S
C1685 H1678 0.950 . S
C1685 C1682 1.387 . S
C1686 C1687 1.395 . S
C1686 H1690 0.959 . S
C1686 C1695 1.374 1_655 S
C1687 C1686 1.395 . S
C1687 C1689 1.387 . S
H1688 C1695 0.950 . S
C1689 C1687 1.387 . S
C1689 C1691 1.377 1_655 S
C1689 H1693 0.950 . S
H1690 C1686 0.959 . S
C1691 C1689 1.377 1_455 S
C1691 C1692 1.394 . S
C1691 H1694 0.957 . S
C1692 C1691 1.394 . S
C1692 C1695 1.387 . S
H1693 C1689 0.950 . S
H1694 C1691 0.957 . S
C1695 C1686 1.374 1_455 S
C1695 H1688 0.950 . S
C1695 C1692 1.387 . S
C1696 C1697 1.387 . S
C1696 H1700 0.950 . S
C1696 C1705 1.390 . S
C1697 C1696 1.387 . S
C1697 C1699 1.387 . S
H1698 C1705 0.950 . S
C1699 C1697 1.387 . S
C1699 C1701 1.390 . S
C1699 H1703 0.950 . S
H1700 C1696 0.950 . S
C1701 C1699 1.390 . S
C1701 C1702 1.387 . S
C1701 H1704 0.950 . S
C1702 C1701 1.387 . S
C1702 C1705 1.387 . S
H1703 C1699 0.950 . S
H1704 C1701 0.950 . S
C1705 C1696 1.390 . S
C1705 H1698 0.950 . S
C1705 C1702 1.387 . S
C1706 C1707 1.387 . S
C1706 H1710 0.950 . S
C1706 C1715 1.390 1_545 S
C1707 C1706 1.387 . S
C1707 C1709 1.387 . S
H1708 C1715 0.950 . S
C1709 C1707 1.387 . S
C1709 C1711 1.390 1_545 S
C1709 H1713 0.950 . S
H1710 C1706 0.950 . S
C1711 C1709 1.390 1_565 S
C1711 C1712 1.387 . S
C1711 H1714 0.950 . S
C1712 C1711 1.387 . S
C1712 C1715 1.387 . S
H1713 C1709 0.950 . S
H1714 C1711 0.950 . S
C1715 C1706 1.390 1_565 S
C1715 H1708 0.950 . S
C1715 C1712 1.387 . S
C1716 C1717 1.387 . S
C1716 H1720 0.950 . S
C1716 C1725 1.390 . S
C1717 C1716 1.387 . S
C1717 C1719 1.387 . S
H1718 C1725 0.950 . S
C1719 C1717 1.387 . S
C1719 C1721 1.390 . S
C1719 H1723 0.950 . S
H1720 C1716 0.950 . S
C1721 C1719 1.390 . S
C1721 C1722 1.387 . S
C1721 H1724 0.950 . S
C1722 C1721 1.387 . S
C1722 C1725 1.387 . S
H1723 C1719 0.950 . S
H1724 C1721 0.950 . S
C1725 C1716 1.390 . S
C1725 H1718 0.950 . S
C1725 C1722 1.387 . S
C1726 C1727 1.387 . S
C1726 H1730 0.950 . S
C1726 C1735 1.390 . S
C1727 C1726 1.387 . S
C1727 C1729 1.387 . S
H1728 C1735 0.950 . S
C1729 C1727 1.387 . S
C1729 C1731 1.390 . S
C1729 H1733 0.950 . S
H1730 C1726 0.950 . S
C1731 C1729 1.390 . S
C1731 C1732 1.387 . S
C1731 H1734 0.950 . S
C1732 C1731 1.387 . S
C1732 C1735 1.387 . S
H1733 C1729 0.950 . S
H1734 C1731 0.950 . S
C1735 C1726 1.390 . S
C1735 H1728 0.950 . S
C1735 C1732 1.387 . S
C1736 C1737 1.387 . S
C1736 H1740 0.950 . S
C1736 C1745 1.390 . S
C1737 C1736 1.387 . S
C1737 C1739 1.387 . S
H1738 C1745 0.950 . S
C1739 C1737 1.387 . S
C1739 C1741 1.390 . S
C1739 H1743 0.950 . S
H1740 C1736 0.950 . S
C1741 C1739 1.390 . S
C1741 C1742 1.387 . S
C1741 H1744 0.950 . S
C1742 C1741 1.387 . S
C1742 C1745 1.387 . S
H1743 C1739 0.950 . S
H1744 C1741 0.950 . S
C1745 C1736 1.390 . S
C1745 H1738 0.950 . S
C1745 C1742 1.387 . S
C1746 C1747 1.387 . S
C1746 H1750 0.950 . S
C1746 C1755 1.390 . S
C1747 C1746 1.387 . S
C1747 C1749 1.387 . S
H1748 C1755 0.950 . S
C1749 C1747 1.387 . S
C1749 C1751 1.390 . S
C1749 H1753 0.950 . S
H1750 C1746 0.950 . S
C1751 C1749 1.390 . S
C1751 C1752 1.387 . S
C1751 H1754 0.950 . S
C1752 C1751 1.387 . S
C1752 C1755 1.387 . S
H1753 C1749 0.950 . S
H1754 C1751 0.950 . S
C1755 C1746 1.390 . S
C1755 H1748 0.950 . S
C1755 C1752 1.387 . S
C1756 C1757 1.387 . S
C1756 H1760 0.950 . S
C1756 C1765 1.390 . S
C1757 C1756 1.387 . S
C1757 C1759 1.387 . S
H1758 C1765 0.950 . S
C1759 C1757 1.387 . S
C1759 C1761 1.390 . S
C1759 H1763 0.950 . S
H1760 C1756 0.950 . S
C1761 C1759 1.390 . S
C1761 C1762 1.387 . S
C1761 H1764 0.950 . S
C1762 C1761 1.387 . S
C1762 C1765 1.387 . S
H1763 C1759 0.950 . S
H1764 C1761 0.950 . S
C1765 C1756 1.390 . S
C1765 H1758 0.950 . S
C1765 C1762 1.387 . S
C1766 C1767 1.387 . S
C1766 H1770 0.950 . S
C1766 C1775 1.390 . S
C1767 C1766 1.387 . S
C1767 C1769 1.387 . S
H1768 C1775 0.950 . S
C1769 C1767 1.387 . S
C1769 C1771 1.390 . S
C1769 H1773 0.950 . S
H1770 C1766 0.950 . S
C1771 C1769 1.390 . S
C1771 C1772 1.387 . S
C1771 H1774 0.950 . S
C1772 C1771 1.387 . S
C1772 C1775 1.387 . S
H1773 C1769 0.950 . S
H1774 C1771 0.950 . S
C1775 C1766 1.390 . S
C1775 H1768 0.950 . S
C1775 C1772 1.387 . S
C1776 C1777 1.387 . S
C1776 H1780 0.950 . S
C1776 C1785 1.390 . S
C1777 C1776 1.387 . S
C1777 C1779 1.387 . S
H1778 C1785 0.950 . S
C1779 C1777 1.387 . S
C1779 C1781 1.390 . S
C1779 H1783 0.950 . S
H1780 C1776 0.950 . S
C1781 C1779 1.390 . S
C1781 C1782 1.387 . S
C1781 H1784 0.950 . S
C1782 C1781 1.387 . S
C1782 C1785 1.387 . S
H1783 C1779 0.950 . S
H1784 C1781 0.950 . S
C1785 C1776 1.390 . S
C1785 H1778 0.950 . S
C1785 C1782 1.387 . S
C1786 C1787 1.387 . S
C1786 H1790 0.950 . S
C1786 C1795 1.390 . S
C1787 C1786 1.387 . S
C1787 C1789 1.387 . S
H1788 C1795 0.950 . S
C1789 C1787 1.387 . S
C1789 C1791 1.390 . S
C1789 H1793 0.950 . S
H1790 C1786 0.950 . S
C1791 C1789 1.390 . S
C1791 C1792 1.387 . S
C1791 H1794 0.950 . S
C1792 C1791 1.387 . S
C1792 C1795 1.387 . S
H1793 C1789 0.950 . S
H1794 C1791 0.950 . S
C1795 C1786 1.390 . S
C1795 H1788 0.950 . S
C1795 C1792 1.387 . S
C1796 C1797 1.387 . S
C1796 H1800 0.950 . S
C1796 C1805 1.390 . S
C1797 C1796 1.387 . S
C1797 C1799 1.387 . S
H1798 C1805 0.950 . S
C1799 C1797 1.387 . S
C1799 C1801 1.390 . S
C1799 H1803 0.950 . S
H1800 C1796 0.950 . S
C1801 C1799 1.390 . S
C1801 C1802 1.387 . S
C1801 H1804 0.950 . S
C1802 C1801 1.387 . S
C1802 C1805 1.387 . S
H1803 C1799 0.950 . S
H1804 C1801 0.950 . S
C1805 C1796 1.390 . S
C1805 H1798 0.950 . S
C1805 C1802 1.387 . S
C1806 C1807 1.387 . S
C1806 H1810 0.950 . S
C1806 C1815 1.390 . S
C1807 C1806 1.387 . S
C1807 C1809 1.387 . S
H1808 C1815 0.950 . S
C1809 C1807 1.387 . S
C1809 C1811 1.390 . S
C1809 H1813 0.950 . S
H1810 C1806 0.950 . S
C1811 C1809 1.390 . S
C1811 C1812 1.387 . S
C1811 H1814 0.950 . S
C1812 C1811 1.387 . S
C1812 C1815 1.387 . S
H1813 C1809 0.950 . S
H1814 C1811 0.950 . S
C1815 C1806 1.390 . S
C1815 H1808 0.950 . S
C1815 C1812 1.387 . S
C1816 C1817 1.387 . S
C1816 H1820 0.950 . S
C1816 C1825 1.390 . S
C1817 C1816 1.387 . S
C1817 C1819 1.387 . S
H1818 C1825 0.950 . S
C1819 C1817 1.387 . S
C1819 C1821 1.390 . S
C1819 H1823 0.950 . S
H1820 C1816 0.950 . S
C1821 C1819 1.390 . S
C1821 C1822 1.387 . S
C1821 H1824 0.950 . S
C1822 C1821 1.387 . S
C1822 C1825 1.387 . S
H1823 C1819 0.950 . S
H1824 C1821 0.950 . S
C1825 C1816 1.390 . S
C1825 H1818 0.950 . S
C1825 C1822 1.387 . S
C1826 C1827 1.387 . S
C1826 H1830 0.950 . S
C1826 C1835 1.390 . S
C1827 C1826 1.387 . S
C1827 C1829 1.387 . S
H1828 C1835 0.950 . S
C1829 C1827 1.387 . S
C1829 C1831 1.390 . S
C1829 H1833 0.950 . S
H1830 C1826 0.950 . S
C1831 C1829 1.390 . S
C1831 C1832 1.387 . S
C1831 H1834 0.950 . S
C1832 C1831 1.387 . S
C1832 C1835 1.387 . S
H1833 C1829 0.950 . S
H1834 C1831 0.950 . S
C1835 C1826 1.390 . S
C1835 H1828 0.950 . S
C1835 C1832 1.387 . S
C757 C14 1.421 . S
C762 C58 1.410 . S
C767 C16 1.408 . S
C772 C35 1.423 1_545 S
C777 C56 1.421 1_655 S
C782 C37 1.410 . S
C787 C77 1.427 . S
C792 C100 1.412 . S
C797 C121 1.413 . S
C802 C98 1.428 1_565 S
C807 C119 1.428 1_455 S
C812 C79 1.412 . S
C817 C140 1.423 . S
C822 C184 1.408 . S
C827 C161 1.421 1_565 S
C832 C142 1.410 . S
C837 C182 1.421 1_455 S
C842 C163 1.410 . S
C847 C203 1.425 . S
C852 C226 1.415 . S
C857 C247 1.415 . S
C862 C224 1.425 1_545 S
C867 C205 1.414 . S
C872 C245 1.425 1_655 S
C877 C310 1.411 . S
C882 C266 1.426 . S
C887 C287 1.424 . S
C892 C268 1.413 . S
C897 C289 1.410 . S
C902 C308 1.426 . S
C907 C329 1.429 . S
C912 C352 1.413 . S
C917 C373 1.413 . S
C922 C350 1.429 . S
C927 C331 1.415 . S
C932 C371 1.426 . S
C937 C392 1.422 . S
C942 C436 1.411 . S
C947 C413 1.425 . S
C952 C394 1.409 . S
C957 C415 1.408 . S
C962 C434 1.424 . S
C967 C478 1.414 . S
C972 C455 1.422 . S
C977 C476 1.422 . S
C982 C499 1.414 . S
C987 C457 1.412 . S
C992 C497 1.424 . S
C997 C518 1.425 . S
C1002 C562 1.409 . S
C1007 C539 1.425 . S
C1012 C520 1.409 . S
C1017 C560 1.425 . S
C1022 C541 1.408 . S
C1027 C581 1.422 . S
C1032 C604 1.414 . S
C1037 C602 1.422 . S
C1042 C625 1.412 . S
C1047 C623 1.422 . S
C1052 C583 1.413 . S
C1057 C644 1.426 . S
C1062 C688 1.411 . S
C1067 C665 1.426 . S
C1072 C646 1.411 . S
C1077 C667 1.414 . S
C1082 C686 1.424 . S
C1087 C707 1.427 . S
C1092 C730 1.416 . S
C1097 C728 1.428 . S
C1102 C751 1.415 . S
C1107 C709 1.415 . S
C1112 C749 1.426 . S
C1117 C13 0.983 . S
C1122 C435 1.188 . S
C1127 C393 1.204 . S
C1132 C34 0.975 . S
C1137 C55 0.975 . S
C1142 C414 1.198 . S
C1147 C76 0.969 . S
C1152 C729 1.190 . S
C1157 C750 1.195 . S
C1162 C97 0.976 . S
C1167 C118 0.977 . S
C1172 C708 1.204 . S
C1177 C561 1.188 . S
C1182 C139 0.983 . S
C1187 C160 0.975 . S
C1192 C519 1.204 . S
C1197 C181 0.975 . S
C1202 C540 1.198 . S
C1207 C351 1.190 . S
C1212 C202 0.969 . S
C1217 C372 1.198 . S
C1222 C223 0.970 . S
C1227 C330 1.208 . S
C1232 C244 0.969 . S
C1237 C265 0.980 . S
C1242 C687 1.187 . S
C1247 C286 0.980 . S
C1252 C645 1.187 . S
C1257 C666 1.191 . S
C1262 C307 0.973 . S
C1267 C225 1.191 . S
C1272 C328 0.970 1_455 S
C1277 C246 1.188 . S
C1282 C349 0.977 . S
C1287 C204 1.191 . S
C1292 C370 0.970 1_565 S
C1297 C57 1.191 . S
C1302 C391 0.974 1_565 S
C1307 C412 0.974 1_455 S
C1312 C15 1.191 . S
C1317 C433 0.982 . S
C1322 C36 1.188 . S
C1327 C603 1.192 . S
C1332 C454 0.969 . S
C1337 C624 1.196 . S
C1342 C475 0.961 . S
C1347 C496 0.967 . S
C1352 C582 1.198 . S
C1357 C183 1.188 . S
C1362 C517 0.982 1_545 S
C1367 C141 1.188 . S
C1372 C538 0.982 1_655 S
C1377 C162 1.188 . S
C1382 C559 0.982 . S
C1387 C580 0.974 . S
C1392 C477 1.195 . S
C1397 C498 1.192 . S
C1402 C601 0.968 . S
C1407 C622 0.967 . S
C1412 C456 1.198 . S
C1417 C643 0.980 . S
C1422 C309 1.187 . S
C1427 C664 0.973 . S
C1432 C267 1.190 . S
C1437 C685 0.973 . S
C1442 C288 1.191 . S
C1447 C706 0.977 1_655 S
C1452 C99 1.188 . S
C1457 C120 1.187 . S
C1462 C727 0.978 . S
C1467 C78 1.191 . S
C1472 C748 0.970 1_545 S
C1477 C626 1.695 . S
C1482 C17 1.689 . S
C1487 C584 1.696 . S
C1492 C38 1.688 . S
C1497 C59 1.694 . S
C1502 C605 1.691 . S
C1507 C290 1.711 . S
C1512 C80 1.711 . S
C1517 C101 1.709 . S
C1522 C311 1.712 . S
C1527 C122 1.711 . S
C1532 C269 1.711 . S
C1537 C143 1.695 . S
C1542 C500 1.690 . S
C1547 C164 1.696 . S
C1552 C458 1.689 . S
C1557 C185 1.694 . S
C1562 C479 1.691 . S
C1567 C668 1.710 . S
C1572 C206 1.712 . S
C1577 C689 1.712 . S
C1582 C227 1.709 . S
C1587 C647 1.711 . S
C1592 C248 1.711 . S
C1597 C332 1.718 . S
C1602 C542 1.718 . S
C1607 C353 1.719 . S
C1612 C563 1.717 . S
C1617 C374 1.718 . S
C1622 C521 1.718 . S
C1627 C395 1.718 . S
C1632 C752 1.718 . S
C1637 C710 1.718 . S
C1642 C416 1.719 . S
C1647 C437 1.718 . S
C1652 C731 1.717 . S
C1657 C102 1.768 . S
C1662 C18 1.768 . S
C1667 C123 1.768 . S
C1672 C39 1.768 . S
C1677 C81 1.768 . S
C1682 C60 1.768 . S
C1687 C144 1.768 . S
C1692 C228 1.768 . S
C1697 C249 1.768 . S
C1702 C165 1.768 . S
C1707 C186 1.768 . S
C1712 C207 1.768 . S
C1717 C354 1.774 . S
C1722 C270 1.774 . S
C1727 C375 1.773 . S
C1732 C291 1.773 . S
C1737 C333 1.774 . S
C1742 C312 1.773 . S
C1747 C480 1.785 . S
C1752 C396 1.789 . S
C1757 C417 1.784 . S
C1762 C501 1.789 . S
C1767 C438 1.784 . S
C1772 C459 1.789 . S
C1777 C522 1.784 . S
C1782 C606 1.789 . S
C1787 C627 1.784 . S
C1792 C543 1.788 . S
C1797 C564 1.784 . S
C1802 C585 1.789 . S
C1807 C648 1.773 . S
C1812 C732 1.773 . S
C1817 C753 1.774 . S
C1822 C669 1.774 . S
C1827 C690 1.773 . S
C1832 C711 1.773 . S
