# Generated by pormake.
# Topology snp, (6)-cn, num edge types: 1
# Building blocks:
#     Node 0, Type 0, BuildingBlock: INOVEN_clean_sbu_0, # of connection points: 6
#     Node 1, Type 0, BuildingBlock: INOVEN_clean_sbu_0, # of connection points: 6
#     Node 2, Type 0, BuildingBlock: INOVEN_clean_sbu_0, # of connection points: 6
#     Node 3, Type 0, BuildingBlock: INOVEN_clean_sbu_0, # of connection points: 6
#     Edge 4, Type (0, 0), BuildingBlock: CIFDUS_clean_linker_0, # of connection points: 2
#     Edge 5, Type (0, 0), BuildingBlock: CIFDUS_clean_linker_0, # of connection points: 2
#     Edge 6, Type (0, 0), BuildingBlock: CIFDUS_clean_linker_0, # of connection points: 2
#     Edge 7, Type (0, 0), BuildingBlock: CIFDUS_clean_linker_0, # of connection points: 2
#     Edge 8, Type (0, 0), BuildingBlock: CIFDUS_clean_linker_0, # of connection points: 2
#     Edge 9, Type (0, 0), BuildingBlock: CIFDUS_clean_linker_0, # of connection points: 2
#     Edge 10, Type (0, 0), BuildingBlock: CIFDUS_clean_linker_0, # of connection points: 2
#     Edge 11, Type (0, 0), BuildingBlock: CIFDUS_clean_linker_0, # of connection points: 2
#     Edge 12, Type (0, 0), BuildingBlock: CIFDUS_clean_linker_0, # of connection points: 2
#     Edge 13, Type (0, 0), BuildingBlock: CIFDUS_clean_linker_0, # of connection points: 2
#     Edge 14, Type (0, 0), BuildingBlock: CIFDUS_clean_linker_0, # of connection points: 2
#     Edge 15, Type (0, 0), BuildingBlock: CIFDUS_clean_linker_0, # of connection points: 2
# Relax obj value: 0.212
# Max RMSD: 0.232
# Mean RMSD: 0.223
data_MOF--net-snp--node1-INOVEN_clean_sbu_0--edge1-CIFDUS_clean_linker_0
_symmetry_space_group_name_H-M    P1
_symmetry_Int_Tables_number       1
_symmetry_cell_setting            triclinic
loop_
_symmetry_equiv_pos_as_xyz
'x, y, z'
_cell_length_a     22.646953
_cell_length_b     22.967608
_cell_length_c     32.482779
_cell_angle_alpha  84.489652
_cell_angle_beta   105.48812
_cell_angle_gamma 96.925271
loop_
_atom_site_label
_atom_site_type_symbol
_atom_site_fract_x
_atom_site_fract_y
_atom_site_fract_z
_atom_type_partial_charge
Gd0 Gd 0.2519 0.104 0.15013 0.0
Gd1 Gd 0.26602 -0.0027 0.10246 0.0
C2 C 0.24995 -0.02654 0.19789 0.0
C3 C 0.2196 0.17699 0.1941 0.0
C4 C 0.22338 0.18675 0.23882 0.0
C5 C 0.273 0.17018 0.27248 0.0
C6 C 0.17631 0.21358 0.24782 0.0
C7 C 0.22903 0.20904 0.32371 0.0
C8 C 0.17902 0.22462 0.28984 0.0
C9 C 0.27593 0.18148 0.31461 0.0
C10 C 0.36822 0.08202 0.1546 0.0
C11 C 0.24218 0.12792 0.05093 0.0
C12 C 0.30249 0.92883 0.05759 0.0
C13 C 0.28486 0.91527 1.01183 0.0
C14 C 0.22433 0.8931 0.99176 0.0
C15 C 0.32883 0.9238 0.98785 0.0
C16 C 0.25236 0.88742 0.92493 0.0
C17 C 0.31271 0.91032 0.94479 0.0
C18 C 0.2084 0.87921 0.94895 0.0
C19 C 0.14969 0.01285 0.0991 0.0
O20 O 0.23299 0.0271 0.19398 0.0
O21 O 0.27555 0.95438 0.16994 0.0
O22 O 0.27109 0.18506 0.1823 0.0
O23 O 0.18392 0.13094 0.17845 0.0
O24 O 0.35202 0.13457 0.15305 0.0
O25 O 0.32385 0.04463 0.15638 0.0
O26 O 0.26223 0.07545 0.05171 0.0
O27 O 0.2289 0.1458 0.08445 0.0
O28 O 0.26173 0.91149 0.07937 0.0
O29 O 0.33075 -0.01887 0.06685 0.0
O30 O 0.1674 0.96182 0.09686 0.0
O31 O 0.19282 0.05239 0.09827 0.0
H32 H 0.30952 0.14882 0.26619 0.0
H33 H 0.13759 0.22651 0.22221 0.0
H34 H 0.14253 0.24646 0.2957 0.0
H35 H 0.31464 0.16833 0.3401 0.0
H36 H 0.18901 0.88636 1.00906 0.0
H37 H 0.37579 0.9407 1.0025 0.0
H38 H 0.34772 0.9169 0.92723 0.0
H39 H 0.16128 0.8626 0.93447 0.0
Gd40 Gd 0.98497 0.24691 0.74436 0.0
Gd41 Gd 0.10469 0.2795 0.71661 0.0
C42 C 0.12026 0.263 0.8143 0.0
C43 C 0.90225 0.20603 0.78469 0.0
C44 C 0.89875 0.19264 0.8295 0.0
C45 C 0.95201 0.1864 0.86296 0.0
C46 C 0.84131 0.18598 0.83902 0.0
C47 C 0.8901 0.16422 0.91476 0.0
C48 C 0.83695 0.17187 0.88117 0.0
C49 C 0.9478 0.1726 0.90509 0.0
C50 C 0.01048 0.36099 0.72245 0.0
C51 C 0.9737 0.24245 0.64478 0.0
C52 C 0.18237 0.32408 0.67423 0.0
C53 C 0.18769 0.30733 0.63291 0.0
C54 C 0.16074 0.25219 0.61853 0.0
C55 C 0.21615 0.34659 0.60663 0.0
C56 C 0.18877 0.27616 0.55131 0.0
C57 C 0.21703 0.33097 0.56614 0.0
C58 C 0.16106 0.23681 0.57811 0.0
C59 C 0.07926 0.16304 0.73357 0.0
O60 O 0.0628 0.23816 0.80449 0.0
O61 O 0.14542 0.29263 0.78551 0.0
O62 O 0.91199 0.26159 0.77287 0.0
O63 O 0.93395 0.17259 0.77006 0.0
O64 O 0.95539 0.33391 0.71268 0.0
O65 O 0.04866 0.32727 0.74434 0.0
O66 O 0.03159 0.26667 0.65376 0.0
O67 O 0.94483 0.22634 0.67521 0.0
O68 O 0.19542 0.28405 0.70594 0.0
O69 O 0.13208 0.34805 0.67264 0.0
O70 O 0.1345 0.18983 0.74105 0.0
O71 O 0.04145 0.19947 0.71603 0.0
H72 H 0.99683 0.19145 0.85649 0.0
H73 H 0.7996 0.19077 0.81369 0.0
H74 H 0.79174 0.16509 0.88716 0.0
H75 H 0.98986 0.16793 0.93007 0.0
H76 H 0.13876 0.22119 0.6385 0.0
H77 H 0.2368 0.38948 0.61713 0.0
H78 H 0.23833 0.3623 0.54599 0.0
H79 H 0.1396 0.19404 0.56783 0.0
Gd80 Gd 0.79016 0.03161 0.23007 0.0
Gd81 Gd 0.79772 0.92114 0.18369 0.0
C82 C 0.81099 0.90137 0.28365 0.0
C83 C 0.75657 0.10343 0.27418 0.0
C84 C 0.77494 0.11931 0.31949 0.0
C85 C 0.8352 0.14328 0.33836 0.0
C86 C 0.73181 0.11158 0.34414 0.0
C87 C 0.80898 0.15118 0.4057 0.0
C88 C 0.74861 0.12718 0.38676 0.0
C89 C 0.85185 0.1592 0.38072 0.0
C90 C 0.9044 0.01276 0.23071 0.0
C91 C 0.80575 0.05024 0.13467 0.0
C92 C 0.81948 0.84276 0.13869 0.0
C93 C 0.83189 0.83717 0.09711 0.0
C94 C 0.82285 0.78146 0.08106 0.0
C95 C 0.85156 0.88608 0.07298 0.0
C96 C 0.85158 0.82321 1.01646 0.0
C97 C 0.86142 0.87916 1.03296 0.0
C98 C 0.83269 0.77446 0.04127 0.0
C99 C 0.68463 0.94602 0.1847 0.0
O100 O 0.79653 0.95617 0.28282 0.0
O101 O 0.81795 0.87909 0.24949 0.0
O102 O 0.79695 0.11869 0.25179 0.0
O103 O 0.72752 0.05107 0.26632 0.0
O104 O 0.88862 0.06452 0.23339 0.0
O105 O 0.86098 -0.02591 0.2331 0.0
O106 O 0.82199 -0.0038 0.14017 0.0
O107 O 0.78027 0.07145 0.16184 0.0
O108 O 0.76407 0.85475 0.13757 0.0
O109 O 0.86247 0.87136 0.16704 0.0
O110 O 0.7005 0.89291 0.18887 0.0
O111 O 0.72799 -0.01759 0.17886 0.0
H112 H 0.86973 0.15016 0.3204 0.0
H113 H 0.685 0.09336 0.33042 0.0
H114 H 0.71443 0.11977 0.40499 0.0
H115 H 0.89838 0.17863 0.39364 0.0
H116 H 0.80794 0.74319 0.09934 0.0
H117 H 0.8588 0.92948 0.08488 0.0
H118 H 0.8756 0.91771 1.01466 0.0
H119 H 0.82587 0.73062 1.03007 0.0
Gd120 Gd 0.96401 0.75285 0.62187 0.0
Gd121 Gd 0.07806 0.79163 0.59013 0.0
C122 C 0.09895 0.77697 0.69076 0.0
C123 C 0.8859 0.70376 0.66307 0.0
C124 C 0.87709 0.71034 0.70577 0.0
C125 C 0.81757 0.7131 0.71008 0.0
C126 C 0.92751 0.71838 0.74162 0.0
C127 C 0.8588 0.73234 0.7855 0.0
C128 C 0.91848 0.72909 0.7811 0.0
C129 C 0.80846 0.72403 0.74946 0.0
C130 C 0.98972 0.87059 0.61328 0.0
C131 C 0.94074 0.78006 0.52333 0.0
C132 C 0.1581 0.83886 0.54934 0.0
C133 C 0.16237 0.84518 0.50448 0.0
C134 C 0.21944 0.86192 0.49537 0.0
C135 C 0.1098 0.83532 0.47049 0.0
C136 C 0.17067 0.86274 0.41862 0.0
C137 C 0.11385 0.84405 0.42805 0.0
C138 C 0.22364 0.87054 0.45285 0.0
C139 C 0.05165 0.67474 0.60246 0.0
O140 O 0.04322 0.74793 0.68217 0.0
O141 O 0.1209 0.80588 0.65988 0.0
O142 O 0.87542 0.74951 0.63599 0.0
O143 O 0.93481 0.67957 0.66169 0.0
O144 O 0.93471 0.84375 0.60503 0.0
O145 O 0.0283 0.83371 0.62707 0.0
O146 O 0.99823 0.80453 0.53199 0.0
O147 O 0.91806 0.74767 0.55232 0.0
O148 O 0.15903 0.78561 0.56756 0.0
O149 O 0.11728 0.868 0.55825 0.0
O150 O 0.10706 0.70094 0.61207 0.0
O151 O 0.01357 0.7111 0.58555 0.0
H152 H 0.77809 0.70789 0.68271 0.0
H153 H 0.97396 0.71703 0.73908 0.0
H154 H 0.95826 0.7345 0.80821 0.0
H155 H 0.76196 0.72715 0.7514 0.0
H156 H 0.26065 0.86949 0.52115 0.0
H157 H 0.06543 0.82182 0.47671 0.0
H158 H 0.07222 0.83695 0.40254 0.0
H159 H 0.26795 0.88551 0.44681 0.0
H160 H 0.9564 0.09242 0.18189 0.0
H161 H 0.95919 0.913 0.235 0.0
H162 H 0.03204 0.89531 0.19481 0.0
H163 H 0.09445 0.93159 0.14508 0.0
H164 H 0.09216 0.11131 0.09253 0.0
H165 H 0.01715 0.12812 0.13115 0.0
C166 C 0.97369 0.04972 0.18507 0.0
C167 C 0.95317 0.00393 0.21114 0.0
C168 C 0.01412 0.03982 0.16139 0.0
C169 C 0.97478 0.94857 0.21478 0.0
C170 C 0.01582 0.93844 0.19169 0.0
C171 C 0.07661 -0.02592 0.14156 0.0
C172 C 0.09826 0.02034 0.11637 0.0
C173 C 0.03525 -0.01635 0.16464 0.0
C174 C 0.0757 0.07537 0.11207 0.0
C175 C 0.03351 0.08504 0.13434 0.0
H176 H 0.08826 0.91493 0.67285 0.0
H177 H 0.91418 0.95737 0.58859 0.0
H178 H 0.92369 0.0498 0.62255 0.0
H179 H 0.97963 0.11574 0.67704 0.0
H180 H 0.15549 0.07593 0.76002 0.0
H181 H 0.14527 -0.0178 0.72723 0.0
C182 C 0.05285 0.94478 0.66155 0.0
C183 C 0.00065 0.92987 0.62831 0.0
C184 C 0.05785 -0.00335 0.68193 0.0
C185 C 0.9548 -0.03153 0.61409 0.0
C186 C 0.95988 0.02073 0.63376 0.0
C187 C 0.01551 0.08641 0.68836 0.0
C188 C 0.06827 0.10243 0.72082 0.0
C189 C 0.01065 0.03459 0.66814 0.0
C190 C 0.11435 0.06403 0.73515 0.0
C191 C 0.10889 0.01105 0.71608 0.0
H192 H 0.64788 0.05525 0.17369 0.0
H193 H 0.58252 0.87202 0.1884 0.0
H194 H 0.47818 0.89845 0.17978 0.0
H195 H 0.4059 -0.0266 0.1671 0.0
H196 H 0.47097 0.15678 0.15306 0.0
H197 H 0.57566 0.13053 0.16218 0.0
C198 C 0.61077 0.02116 0.17515 0.0
C199 C 0.62251 0.9618 0.18157 0.0
C200 C 0.55117 0.03669 0.1701 0.0
C201 C 0.57433 0.91799 0.1835 0.0
C202 C 0.5148 0.93306 0.17848 0.0
C203 C 0.44302 0.00762 0.16602 0.0
C204 C 0.43106 0.0669 0.15938 0.0
C205 C 0.50272 -0.00779 0.17155 0.0
C206 C 0.47934 0.11086 0.1581 0.0
C207 C 0.53904 0.09587 0.16336 0.0
H208 H 0.93641 0.42985 0.66389 0.0
H209 H 0.12322 0.42293 0.74089 0.0
H210 H 0.15318 0.51887 0.70889 0.0
H211 H 0.12601 0.6046 0.65933 0.0
H212 H 0.93895 0.6126 0.58314 0.0
H213 H 0.90917 0.51585 0.61429 0.0
C214 C 0.98358 0.44956 0.67373 0.0
C215 C 0.02764 0.41971 0.70454 0.0
C216 C 0.00039 0.50451 0.65518 0.0
C217 C 0.08861 0.44537 0.71712 0.0
C218 C 0.10577 0.50003 0.6988 0.0
C219 C 0.07887 0.58486 0.64934 0.0
C220 C 0.03467 0.61519 0.61903 0.0
C221 C 0.06207 0.52986 0.66774 0.0
C222 C 0.97366 0.58966 0.60646 0.0
C223 C 0.95662 0.5346 0.62432 0.0
H224 H 0.28264 0.28877 0.51238 0.0
H225 H 0.0901 0.22723 0.49261 0.0
H226 H 0.08601 0.19955 0.42111 0.0
H227 H 0.13679 0.1935 0.36395 0.0
H228 H 0.32915 0.25533 0.38316 0.0
H229 H 0.33385 0.28165 0.45521 0.0
C230 C 0.23975 0.26968 0.49224 0.0
C231 C 0.18678 0.26016 0.50773 0.0
C232 C 0.23777 0.25361 0.45118 0.0
C233 C 0.13167 0.23455 0.48156 0.0
C234 C 0.12922 0.21888 0.44063 0.0
C235 C 0.17966 0.21302 0.38384 0.0
C236 C 0.23246 0.22263 0.36814 0.0
C237 C 0.18194 0.22828 0.42509 0.0
C238 C 0.28797 0.24696 0.39461 0.0
C239 C 0.29059 0.2624 0.4357 0.0
H240 H 0.81251 0.19622 0.95967 0.0
H241 H 0.95644 0.08399 0.9695 0.0
H242 H 0.94628 0.04422 0.03956 0.0
H243 H 0.89284 0.03574 0.09554 0.0
H244 H 0.74671 0.14377 0.08776 0.0
H245 H 0.76171 0.19111 1.01947 0.0
C246 C 0.84163 0.16308 0.97715 0.0
C247 C 0.88529 0.14334 0.95896 0.0
C248 C 0.8351 0.13955 1.0177 0.0
C249 C 0.92316 0.1009 0.98258 0.0
C250 C 0.9171 0.07768 1.02266 0.0
C251 C 0.86423 0.06988 0.07917 0.0
C252 C 0.81811 0.08564 0.09653 0.0
C253 C 0.87273 0.09601 0.04015 0.0
C254 C 0.78248 0.13077 0.07514 0.0
C255 C 0.79086 0.15749 0.03597 0.0
H256 H 0.96246 0.76674 0.44785 0.0
H257 H 0.83144 0.8273 0.50443 0.0
H258 H 0.77692 0.87024 0.43438 0.0
H259 H 0.7731 0.89816 0.35771 0.0
H260 H 0.90302 0.8315 0.30246 0.0
H261 H 0.95132 0.78368 0.37099 0.0
C262 C 0.92123 0.78836 0.44451 0.0
C263 C 0.90073 0.79408 0.48076 0.0
C264 C 0.89038 0.81249 0.40443 0.0
C265 C 0.84732 0.82192 0.4765 0.0
C266 C 0.81665 0.84696 0.43663 0.0
C267 C 0.81143 0.87253 0.36076 0.0
C268 C 0.83437 0.86853 0.32507 0.0
C269 C 0.83871 0.84379 0.40046 0.0
C270 C 0.88396 0.83491 0.3293 0.0
C271 C 0.91196 0.80763 0.36856 0.0
H272 H 0.18413 0.86646 0.72417 0.0
H273 H 0.08546 0.70525 0.75995 0.0
H274 H 0.1256 0.72434 0.83543 0.0
H275 H 0.1838 0.78939 0.89119 0.0
H276 H 0.28134 0.95155 0.85611 0.0
H277 H 0.2473 0.92928 0.7807 0.0
C278 C 0.17235 0.83499 0.74852 0.0
C279 C 0.13147 0.78463 0.73634 0.0
C280 C 0.19508 0.84665 0.79206 0.0
C281 C 0.11628 0.74462 0.76837 0.0
C282 C 0.13921 0.75552 0.81159 0.0
C283 C 0.1976 0.81989 0.86704 0.0
C284 C 0.23475 0.87226 0.87932 0.0
C285 C 0.17761 0.80694 0.82377 0.0
C286 C 0.25311 0.91077 0.84764 0.0
C287 C 0.23342 0.89816 0.80446 0.0
H288 H 0.78001 0.7526 0.95586 0.0
H289 H 0.94304 0.87586 0.98036 0.0
H290 H 0.95913 0.85959 0.91099 0.0
H291 H 0.92784 0.80871 0.84386 0.0
H292 H 0.76711 0.68232 0.82161 0.0
H293 H 0.74946 0.70144 0.88963 0.0
C294 C 0.81946 0.77556 0.94629 0.0
C295 C 0.86044 0.81513 0.97356 0.0
C296 C 0.82888 0.76544 0.90668 0.0
C297 C 0.91041 0.84554 0.95998 0.0
C298 C 0.91989 0.83594 0.9204 0.0
C299 C 0.88929 0.78489 0.85405 0.0
C300 C 0.84887 0.74411 0.82741 0.0
C301 C 0.87964 0.79566 0.89359 0.0
C302 C 0.79853 0.71452 0.84098 0.0
C303 C 0.78855 0.72516 0.88007 0.0
H304 H 0.15502 -0.02557 0.23186 0.0
H305 H 0.32163 0.89152 0.24956 0.0
H306 H 0.31032 0.84665 0.31941 0.0
H307 H 0.25704 0.83915 0.37813 0.0
H308 H 0.09078 0.92457 0.35768 0.0
H309 H 0.09777 0.95996 0.28603 0.0
C310 C 0.18841 0.94566 0.2506 0.0
C311 C 0.23927 0.93651 0.23571 0.0
C312 C 0.18182 0.92093 0.29042 0.0
C313 C 0.28192 0.89894 0.26024 0.0
C314 C 0.27567 0.87382 0.30031 0.0
C315 C 0.22222 0.86521 0.35783 0.0
C316 C 0.17348 0.87922 0.37353 0.0
C317 C 0.22657 0.88583 0.31624 0.0
C318 C 0.12833 0.91245 0.34652 0.0
C319 C 0.13244 0.93306 0.30551 0.0
H320 H 0.08868 0.26276 0.88803 0.0
H321 H 0.23637 0.22906 0.83604 0.0
H322 H 0.28961 0.18378 0.90552 0.0
H323 H 0.28845 0.14555 0.97986 0.0
H324 H 0.14009 0.18415 1.0301 0.0
H325 H 0.09289 0.23513 0.96278 0.0
C326 C 0.13313 0.2465 0.89227 0.0
C327 C 0.15871 0.24897 0.8574 0.0
C328 C 0.16293 0.22051 0.93189 0.0
C329 C 0.21636 0.22816 0.86293 0.0
C330 C 0.24635 0.20163 0.90242 0.0
C331 C 0.24615 0.16558 0.97594 0.0
C332 C 0.21793 0.161 1.00987 0.0
C333 C 0.21921 0.19612 0.93693 0.0
C334 C 0.1632 0.18744 1.00462 0.0
C335 C 0.13584 0.21656 0.96605 0.0
H336 H 0.9187 0.139 0.46441 0.0
H337 H 0.74139 0.20107 0.44984 0.0
H338 H 0.7744 0.23194 0.52322 0.0
H339 H 0.85645 0.24563 0.59127 0.0
H340 H 0.03431 0.18751 0.60206 0.0
H341 H -0.00113 0.15211 0.5306 0.0
C342 C 0.88727 0.15989 0.47691 0.0
C343 C 0.82772 0.16798 0.45115 0.0
C344 C 0.90699 0.17884 0.51867 0.0
C345 C 0.78735 0.19364 0.4688 0.0
C346 C 0.80637 0.21178 0.51078 0.0
C347 C 0.88711 0.22516 0.5778 0.0
C348 C 0.94837 0.22041 0.60155 0.0
C349 C 0.86641 0.20519 0.53599 0.0
C350 C 0.98759 0.19335 0.58393 0.0
C351 C 0.96718 0.17254 0.54315 0.0
loop_
_geom_bond_atom_site_label_1
_geom_bond_atom_site_label_2
_geom_bond_distance
_geom_bond_site_symmetry_2
_ccdc_geom_bond_type
Gd0 C3 2.818 . S
Gd0 O20 2.377 . S
Gd0 O22 2.448 . S
Gd0 O23 2.506 . S
Gd0 O24 2.435 . S
Gd0 O25 2.717 . S
Gd0 O27 2.395 . S
Gd0 O31 2.327 . S
Gd1 C12 2.818 1_544 S
Gd1 O21 2.396 . S
Gd1 O25 2.327 . S
Gd1 O26 2.377 . S
Gd1 O28 2.448 1_545 S
Gd1 O29 2.506 . S
Gd1 O30 2.435 . S
Gd1 O31 2.717 . S
C2 O20 1.240 . S
C2 O21 1.248 . S
C3 Gd0 2.818 . S
C3 C4 1.510 . S
C3 O22 1.249 . S
C3 O23 1.252 . S
C4 C3 1.510 . S
C4 C5 1.404 . S
C4 C6 1.352 . S
C5 C4 1.404 . S
C5 C9 1.389 . S
C5 H32 0.930 . S
C6 C4 1.352 . S
C6 C8 1.374 . S
C6 H33 0.931 . S
C7 C8 1.359 . S
C7 C9 1.364 . S
C8 C6 1.374 . S
C8 C7 1.359 . S
C8 H34 0.931 . S
C9 C5 1.389 . S
C9 C7 1.364 . S
C9 H35 0.931 . S
C10 O24 1.256 . S
C10 O25 1.257 . S
C11 O26 1.240 . S
C11 O27 1.240 . S
C12 Gd1 2.818 1_566 S
C12 C13 1.510 . S
C12 O28 1.249 1_556 S
C12 O29 1.252 1_566 S
C13 C12 1.510 . S
C13 C14 1.404 . S
C13 C15 1.352 . S
C14 C13 1.404 . S
C14 C18 1.389 . S
C14 H36 0.930 . S
C15 C13 1.352 . S
C15 C17 1.374 . S
C15 H37 0.931 . S
C16 C17 1.359 . S
C16 C18 1.364 . S
C17 C15 1.374 . S
C17 C16 1.359 . S
C17 H38 0.931 . S
C18 C14 1.389 . S
C18 C16 1.364 . S
C18 H39 0.931 . S
C19 O30 1.256 . S
C19 O31 1.257 . S
O20 Gd0 2.377 . S
O20 C2 1.240 . S
O21 Gd1 2.396 . S
O21 C2 1.248 . S
O22 Gd0 2.448 . S
O22 C3 1.249 . S
O23 Gd0 2.506 . S
O23 C3 1.252 . S
O24 Gd0 2.435 . S
O24 C10 1.256 . S
O25 Gd0 2.717 . S
O25 Gd1 2.327 . S
O25 C10 1.257 . S
O26 Gd1 2.377 . S
O26 C11 1.240 . S
O27 Gd0 2.395 . S
O27 C11 1.240 . S
O28 Gd1 2.448 1_565 S
O28 C12 1.249 1_554 S
O29 Gd1 2.506 . S
O29 C12 1.252 1_544 S
O30 Gd1 2.435 . S
O30 C19 1.256 . S
O31 Gd0 2.327 . S
O31 Gd1 2.717 . S
O31 C19 1.257 . S
H32 C5 0.930 . S
H33 C6 0.931 . S
H34 C8 0.931 . S
H35 C9 0.931 . S
H36 C14 0.930 . S
H37 C15 0.931 . S
H38 C17 0.931 . S
H39 C18 0.931 . S
Gd40 C43 2.818 . S
Gd40 O60 2.377 1_655 S
Gd40 O62 2.448 . S
Gd40 O63 2.506 . S
Gd40 O64 2.435 . S
Gd40 O65 2.717 1_655 S
Gd40 O67 2.395 . S
Gd40 O71 2.327 1_655 S
Gd41 C52 2.818 . S
Gd41 O61 2.395 . S
Gd41 O65 2.327 . S
Gd41 O66 2.377 . S
Gd41 O68 2.448 . S
Gd41 O69 2.506 . S
Gd41 O70 2.435 . S
Gd41 O71 2.717 . S
C42 O60 1.240 . S
C42 O61 1.240 . S
C43 Gd40 2.818 . S
C43 C44 1.510 . S
C43 O62 1.249 . S
C43 O63 1.252 . S
C44 C43 1.510 . S
C44 C45 1.404 . S
C44 C46 1.352 . S
C45 C44 1.404 . S
C45 C49 1.389 . S
C45 H72 0.930 . S
C46 C44 1.352 . S
C46 C48 1.374 . S
C46 H73 0.931 . S
C47 C48 1.359 . S
C47 C49 1.364 . S
C48 C46 1.374 . S
C48 C47 1.359 . S
C48 H74 0.931 . S
C49 C45 1.389 . S
C49 C47 1.364 . S
C49 H75 0.931 . S
C50 O64 1.256 1_455 S
C50 O65 1.257 . S
C51 O66 1.240 1_655 S
C51 O67 1.240 . S
C52 Gd41 2.818 . S
C52 C53 1.510 . S
C52 O68 1.249 . S
C52 O69 1.252 . S
C53 C52 1.510 . S
C53 C54 1.404 . S
C53 C55 1.352 . S
C54 C53 1.404 . S
C54 C58 1.389 . S
C54 H76 0.930 . S
C55 C53 1.352 . S
C55 C57 1.374 . S
C55 H77 0.931 . S
C56 C57 1.359 . S
C56 C58 1.364 . S
C57 C55 1.374 . S
C57 C56 1.359 . S
C57 H78 0.931 . S
C58 C54 1.389 . S
C58 C56 1.364 . S
C58 H79 0.931 . S
C59 O70 1.256 . S
C59 O71 1.257 . S
O60 Gd40 2.377 1_455 S
O60 C42 1.240 . S
O61 Gd41 2.395 . S
O61 C42 1.240 . S
O62 Gd40 2.448 . S
O62 C43 1.249 . S
O63 Gd40 2.506 . S
O63 C43 1.252 . S
O64 Gd40 2.435 . S
O64 C50 1.256 1_655 S
O65 Gd40 2.717 1_455 S
O65 Gd41 2.327 . S
O65 C50 1.257 . S
O66 Gd41 2.377 . S
O66 C51 1.240 1_455 S
O67 Gd40 2.395 . S
O67 C51 1.240 . S
O68 Gd41 2.448 . S
O68 C52 1.249 . S
O69 Gd41 2.506 . S
O69 C52 1.252 . S
O70 Gd41 2.435 . S
O70 C59 1.256 . S
O71 Gd40 2.327 1_455 S
O71 Gd41 2.717 . S
O71 C59 1.257 . S
H72 C45 0.930 . S
H73 C46 0.931 . S
H74 C48 0.931 . S
H75 C49 0.931 . S
H76 C54 0.930 . S
H77 C55 0.931 . S
H78 C57 0.931 . S
H79 C58 0.931 . S
Gd80 C83 2.818 . S
Gd80 O100 2.377 1_545 S
Gd80 O102 2.448 . S
Gd80 O103 2.506 . S
Gd80 O104 2.435 . S
Gd80 O105 2.717 1_545 S
Gd80 O107 2.395 . S
Gd80 O111 2.327 . S
Gd81 C92 2.818 . S
Gd81 O101 2.395 . S
Gd81 O105 2.327 . S
Gd81 O106 2.377 1_565 S
Gd81 O108 2.448 . S
Gd81 O109 2.506 . S
Gd81 O110 2.435 . S
Gd81 O111 2.717 1_565 S
C82 O100 1.240 . S
C82 O101 1.240 . S
C83 Gd80 2.818 . S
C83 C84 1.510 . S
C83 O102 1.249 . S
C83 O103 1.252 . S
C84 C83 1.510 . S
C84 C85 1.404 . S
C84 C86 1.352 . S
C85 C84 1.404 . S
C85 C89 1.389 . S
C85 H112 0.930 . S
C86 C84 1.352 . S
C86 C88 1.374 . S
C86 H113 0.931 . S
C87 C88 1.359 . S
C87 C89 1.364 . S
C88 C86 1.374 . S
C88 C87 1.359 . S
C88 H114 0.931 . S
C89 C85 1.389 . S
C89 C87 1.364 . S
C89 H115 0.931 . S
C90 O104 1.256 . S
C90 O105 1.257 1_545 S
C91 O106 1.240 . S
C91 O107 1.240 . S
C92 Gd81 2.818 . S
C92 C93 1.510 . S
C92 O108 1.249 . S
C92 O109 1.252 . S
C93 C92 1.510 . S
C93 C94 1.404 . S
C93 C95 1.352 . S
C94 C93 1.404 . S
C94 C98 1.389 1_554 S
C94 H116 0.930 . S
C95 C93 1.352 . S
C95 C97 1.374 1_554 S
C95 H117 0.931 . S
C96 C97 1.359 . S
C96 C98 1.364 . S
C97 C95 1.374 1_556 S
C97 C96 1.359 . S
C97 H118 0.931 . S
C98 C94 1.389 1_556 S
C98 C96 1.364 . S
C98 H119 0.931 . S
C99 O110 1.256 . S
C99 O111 1.257 1_565 S
O100 Gd80 2.377 1_565 S
O100 C82 1.240 . S
O101 Gd81 2.395 . S
O101 C82 1.240 . S
O102 Gd80 2.448 . S
O102 C83 1.249 . S
O103 Gd80 2.506 . S
O103 C83 1.252 . S
O104 Gd80 2.435 . S
O104 C90 1.256 . S
O105 Gd80 2.717 1_565 S
O105 Gd81 2.327 . S
O105 C90 1.257 1_565 S
O106 Gd81 2.377 1_545 S
O106 C91 1.240 . S
O107 Gd80 2.395 . S
O107 C91 1.240 . S
O108 Gd81 2.448 . S
O108 C92 1.249 . S
O109 Gd81 2.506 . S
O109 C92 1.252 . S
O110 Gd81 2.435 . S
O110 C99 1.256 . S
O111 Gd80 2.327 . S
O111 Gd81 2.717 1_545 S
O111 C99 1.257 1_545 S
H112 C85 0.930 . S
H113 C86 0.931 . S
H114 C88 0.931 . S
H115 C89 0.931 . S
H116 C94 0.930 . S
H117 C95 0.931 . S
H118 C97 0.931 . S
H119 C98 0.931 . S
Gd120 C123 2.818 . S
Gd120 O140 2.377 1_655 S
Gd120 O142 2.448 . S
Gd120 O143 2.506 . S
Gd120 O144 2.435 . S
Gd120 O145 2.717 1_655 S
Gd120 O147 2.395 . S
Gd120 O151 2.327 1_655 S
Gd121 C132 2.818 . S
Gd121 O141 2.395 . S
Gd121 O145 2.327 . S
Gd121 O146 2.377 . S
Gd121 O148 2.448 . S
Gd121 O149 2.506 . S
Gd121 O150 2.435 . S
Gd121 O151 2.717 . S
C122 O140 1.240 . S
C122 O141 1.240 . S
C123 Gd120 2.818 . S
C123 C124 1.510 . S
C123 O142 1.249 . S
C123 O143 1.252 . S
C124 C123 1.510 . S
C124 C125 1.404 . S
C124 C126 1.352 . S
C125 C124 1.404 . S
C125 C129 1.389 . S
C125 H152 0.930 . S
C126 C124 1.352 . S
C126 C128 1.374 . S
C126 H153 0.931 . S
C127 C128 1.359 . S
C127 C129 1.364 . S
C128 C126 1.374 . S
C128 C127 1.359 . S
C128 H154 0.931 . S
C129 C125 1.389 . S
C129 C127 1.364 . S
C129 H155 0.931 . S
C130 O144 1.256 1_455 S
C130 O145 1.257 . S
C131 O146 1.240 1_655 S
C131 O147 1.240 . S
C132 Gd121 2.818 . S
C132 C133 1.510 . S
C132 O148 1.249 . S
C132 O149 1.252 . S
C133 C132 1.510 . S
C133 C134 1.404 . S
C133 C135 1.352 . S
C134 C133 1.404 . S
C134 C138 1.389 . S
C134 H156 0.930 . S
C135 C133 1.352 . S
C135 C137 1.374 . S
C135 H157 0.931 . S
C136 C137 1.359 . S
C136 C138 1.364 . S
C137 C135 1.374 . S
C137 C136 1.359 . S
C137 H158 0.931 . S
C138 C134 1.389 . S
C138 C136 1.364 . S
C138 H159 0.931 . S
C139 O150 1.256 . S
C139 O151 1.257 . S
O140 Gd120 2.377 1_455 S
O140 C122 1.240 . S
O141 Gd121 2.395 . S
O141 C122 1.240 . S
O142 Gd120 2.448 . S
O142 C123 1.249 . S
O143 Gd120 2.506 . S
O143 C123 1.252 . S
O144 Gd120 2.435 . S
O144 C130 1.256 1_655 S
O145 Gd120 2.717 1_455 S
O145 Gd121 2.327 . S
O145 C130 1.257 . S
O146 Gd121 2.377 . S
O146 C131 1.240 1_455 S
O147 Gd120 2.395 . S
O147 C131 1.240 . S
O148 Gd121 2.448 . S
O148 C132 1.249 . S
O149 Gd121 2.506 . S
O149 C132 1.252 . S
O150 Gd121 2.435 . S
O150 C139 1.256 . S
O151 Gd120 2.327 1_455 S
O151 Gd121 2.717 . S
O151 C139 1.257 . S
H152 C125 0.930 . S
H153 C126 0.931 . S
H154 C128 0.931 . S
H155 C129 0.931 . S
H156 C134 0.930 . S
H157 C135 0.931 . S
H158 C137 0.931 . S
H159 C138 0.931 . S
H160 C166 0.930 1_565 S
H161 C169 0.930 . S
H162 C170 0.930 . S
H163 C171 0.930 . S
H164 C174 0.930 . S
H165 C175 0.930 . S
C166 H160 0.930 1_545 S
C166 C167 1.355 1_455 S
C166 C168 1.415 . S
C167 C166 1.355 1_655 S
C167 C169 1.419 . S
C168 C166 1.415 . S
C168 C173 1.425 . S
C168 C175 1.409 . S
C169 H161 0.930 . S
C169 C167 1.419 . S
C169 C170 1.362 . S
C170 H162 0.930 . S
C170 C169 1.362 . S
C170 C173 1.409 1_655 S
C171 H163 0.930 . S
C171 C172 1.355 . S
C171 C173 1.415 . S
C172 C171 1.355 . S
C172 C174 1.419 . S
C173 C168 1.425 . S
C173 C170 1.409 1_455 S
C173 C171 1.415 . S
C174 H164 0.930 . S
C174 C172 1.419 . S
C174 C175 1.362 . S
C175 H165 0.930 . S
C175 C168 1.409 . S
C175 C174 1.362 . S
H176 C182 0.930 . S
H177 C185 0.930 . S
H178 C186 0.930 . S
H179 C187 0.930 . S
H180 C190 0.930 . S
H181 C191 0.930 . S
C182 H176 0.930 . S
C182 C183 1.355 . S
C182 C184 1.415 1_565 S
C183 C182 1.355 . S
C183 C185 1.419 1_465 S
C184 C182 1.415 1_545 S
C184 C189 1.425 . S
C184 C191 1.409 . S
C185 H177 0.930 . S
C185 C183 1.419 1_645 S
C185 C186 1.362 . S
C186 H178 0.930 . S
C186 C185 1.362 . S
C186 C189 1.409 1_655 S
C187 H179 0.930 . S
C187 C188 1.355 1_655 S
C187 C189 1.415 1_655 S
C188 C187 1.355 1_455 S
C188 C190 1.419 . S
C189 C184 1.425 . S
C189 C186 1.409 1_455 S
C189 C187 1.415 1_455 S
C190 H180 0.930 . S
C190 C188 1.419 . S
C190 C191 1.362 . S
C191 H181 0.930 . S
C191 C184 1.409 . S
C191 C190 1.362 . S
H192 C198 0.930 . S
H193 C201 0.930 . S
H194 C202 0.930 . S
H195 C203 0.930 . S
H196 C206 0.930 . S
H197 C207 0.930 . S
C198 H192 0.930 . S
C198 C199 1.355 1_545 S
C198 C200 1.415 . S
C199 C198 1.355 1_565 S
C199 C201 1.419 . S
C200 C198 1.415 . S
C200 C205 1.425 . S
C200 C207 1.409 . S
C201 H193 0.930 . S
C201 C199 1.419 . S
C201 C202 1.362 . S
C202 H194 0.930 . S
C202 C201 1.362 . S
C202 C205 1.409 1_565 S
C203 H195 0.930 . S
C203 C204 1.355 . S
C203 C205 1.415 . S
C204 C203 1.355 . S
C204 C206 1.419 . S
C205 C200 1.425 . S
C205 C202 1.409 1_545 S
C205 C203 1.415 . S
C206 H196 0.930 . S
C206 C204 1.419 . S
C206 C207 1.362 . S
C207 H197 0.930 . S
C207 C200 1.409 . S
C207 C206 1.362 . S
H208 C214 0.930 . S
H209 C217 0.930 . S
H210 C218 0.930 . S
H211 C219 0.930 . S
H212 C222 0.930 1_655 S
H213 C223 0.930 1_655 S
C214 H208 0.930 . S
C214 C215 1.355 . S
C214 C216 1.415 . S
C215 C214 1.355 . S
C215 C217 1.419 . S
C216 C214 1.415 . S
C216 C221 1.425 . S
C216 C223 1.409 . S
C217 H209 0.930 . S
C217 C215 1.419 . S
C217 C218 1.362 . S
C218 H210 0.930 . S
C218 C217 1.362 . S
C218 C221 1.409 . S
C219 H211 0.930 . S
C219 C220 1.355 . S
C219 C221 1.415 . S
C220 C219 1.355 . S
C220 C222 1.419 . S
C221 C216 1.425 . S
C221 C218 1.409 . S
C221 C219 1.415 . S
C222 H212 0.930 1_455 S
C222 C220 1.419 . S
C222 C223 1.362 . S
C223 H213 0.930 1_455 S
C223 C216 1.409 . S
C223 C222 1.362 . S
H224 C230 0.930 . S
H225 C233 0.930 . S
H226 C234 0.930 . S
H227 C235 0.930 . S
H228 C238 0.930 . S
H229 C239 0.930 . S
C230 H224 0.930 . S
C230 C231 1.355 . S
C230 C232 1.415 . S
C231 C230 1.355 . S
C231 C233 1.419 . S
C232 C230 1.415 . S
C232 C237 1.425 . S
C232 C239 1.409 . S
C233 H225 0.930 . S
C233 C231 1.419 . S
C233 C234 1.362 . S
C234 H226 0.930 . S
C234 C233 1.362 . S
C234 C237 1.409 . S
C235 H227 0.930 . S
C235 C236 1.355 . S
C235 C237 1.415 . S
C236 C235 1.355 . S
C236 C238 1.419 . S
C237 C232 1.425 . S
C237 C234 1.409 . S
C237 C235 1.415 . S
C238 H228 0.930 . S
C238 C236 1.419 . S
C238 C239 1.362 . S
C239 H229 0.930 . S
C239 C232 1.409 . S
C239 C238 1.362 . S
H240 C246 0.930 . S
H241 C249 0.930 . S
H242 C250 0.930 . S
H243 C251 0.930 . S
H244 C254 0.930 1_565 S
H245 C255 0.930 . S
C246 H240 0.930 . S
C246 C247 1.355 . S
C246 C248 1.415 . S
C247 C246 1.355 . S
C247 C249 1.419 . S
C248 C246 1.415 . S
C248 C253 1.425 . S
C248 C255 1.409 . S
C249 H241 0.930 . S
C249 C247 1.419 . S
C249 C250 1.362 . S
C250 H242 0.930 . S
C250 C249 1.362 . S
C250 C253 1.409 . S
C251 H243 0.930 . S
C251 C252 1.355 . S
C251 C253 1.415 1_554 S
C252 C251 1.355 . S
C252 C254 1.419 . S
C253 C248 1.425 . S
C253 C250 1.409 . S
C253 C251 1.415 1_556 S
C254 H244 0.930 1_545 S
C254 C252 1.419 . S
C254 C255 1.362 1_554 S
C255 H245 0.930 . S
C255 C248 1.409 . S
C255 C254 1.362 1_556 S
H256 C262 0.930 . S
H257 C265 0.930 1_455 S
H258 C266 0.930 . S
H259 C267 0.930 . S
H260 C270 0.930 . S
H261 C271 0.930 . S
C262 H256 0.930 . S
C262 C263 1.355 . S
C262 C264 1.415 . S
C263 C262 1.355 . S
C263 C265 1.419 . S
C264 C262 1.415 . S
C264 C269 1.425 . S
C264 C271 1.409 . S
C265 H257 0.930 1_655 S
C265 C263 1.419 . S
C265 C266 1.362 . S
C266 H258 0.930 . S
C266 C265 1.362 . S
C266 C269 1.409 . S
C267 H259 0.930 . S
C267 C268 1.355 . S
C267 C269 1.415 . S
C268 C267 1.355 . S
C268 C270 1.419 . S
C269 C264 1.425 . S
C269 C266 1.409 . S
C269 C267 1.415 . S
C270 H260 0.930 . S
C270 C268 1.419 . S
C270 C271 1.362 . S
C271 H261 0.930 . S
C271 C264 1.409 . S
C271 C270 1.362 . S
H272 C278 0.930 . S
H273 C281 0.930 . S
H274 C282 0.930 . S
H275 C283 0.930 . S
H276 C286 0.930 1_545 S
H277 C287 0.930 . S
C278 H272 0.930 . S
C278 C279 1.355 . S
C278 C280 1.415 . S
C279 C278 1.355 . S
C279 C281 1.419 . S
C280 C278 1.415 . S
C280 C285 1.425 . S
C280 C287 1.409 . S
C281 H273 0.930 . S
C281 C279 1.419 . S
C281 C282 1.362 . S
C282 H274 0.930 . S
C282 C281 1.362 . S
C282 C285 1.409 . S
C283 H275 0.930 . S
C283 C284 1.355 . S
C283 C285 1.415 . S
C284 C283 1.355 . S
C284 C286 1.419 . S
C285 C280 1.425 . S
C285 C282 1.409 . S
C285 C283 1.415 . S
C286 H276 0.930 1_565 S
C286 C284 1.419 . S
C286 C287 1.362 . S
C287 H277 0.930 . S
C287 C280 1.409 . S
C287 C286 1.362 . S
H288 C294 0.930 . S
H289 C297 0.930 . S
H290 C298 0.930 . S
H291 C299 0.930 . S
H292 C302 0.930 . S
H293 C303 0.930 . S
C294 H288 0.930 . S
C294 C295 1.355 . S
C294 C296 1.415 . S
C295 C294 1.355 . S
C295 C297 1.419 . S
C296 C294 1.415 . S
C296 C301 1.425 . S
C296 C303 1.409 . S
C297 H289 0.930 . S
C297 C295 1.419 . S
C297 C298 1.362 . S
C298 H290 0.930 . S
C298 C297 1.362 . S
C298 C301 1.409 . S
C299 H291 0.930 . S
C299 C300 1.355 . S
C299 C301 1.415 . S
C300 C299 1.355 . S
C300 C302 1.419 . S
C301 C296 1.425 . S
C301 C298 1.409 . S
C301 C299 1.415 . S
C302 H292 0.930 . S
C302 C300 1.419 . S
C302 C303 1.362 . S
C303 H293 0.930 . S
C303 C296 1.409 . S
C303 C302 1.362 . S
H304 C310 0.930 . S
H305 C313 0.930 . S
H306 C314 0.930 . S
H307 C315 0.930 . S
H308 C318 0.930 1_545 S
H309 C319 0.930 . S
C310 H304 0.930 . S
C310 C311 1.355 1_545 S
C310 C312 1.415 1_545 S
C311 C310 1.355 1_565 S
C311 C313 1.419 . S
C312 C310 1.415 1_565 S
C312 C317 1.425 . S
C312 C319 1.409 1_565 S
C313 H305 0.930 . S
C313 C311 1.419 . S
C313 C314 1.362 . S
C314 H306 0.930 . S
C314 C313 1.362 . S
C314 C317 1.409 . S
C315 H307 0.930 . S
C315 C316 1.355 . S
C315 C317 1.415 . S
C316 C315 1.355 . S
C316 C318 1.419 . S
C317 C312 1.425 . S
C317 C314 1.409 . S
C317 C315 1.415 . S
C318 H308 0.930 1_565 S
C318 C316 1.419 . S
C318 C319 1.362 1_565 S
C319 H309 0.930 . S
C319 C312 1.409 1_545 S
C319 C318 1.362 1_545 S
H320 C326 0.930 . S
H321 C329 0.930 . S
H322 C330 0.930 . S
H323 C331 0.930 . S
H324 C334 0.930 . S
H325 C335 0.930 . S
C326 H320 0.930 . S
C326 C327 1.355 . S
C326 C328 1.415 . S
C327 C326 1.355 . S
C327 C329 1.419 . S
C328 C326 1.415 . S
C328 C333 1.425 . S
C328 C335 1.409 . S
C329 H321 0.930 . S
C329 C327 1.419 . S
C329 C330 1.362 . S
C330 H322 0.930 . S
C330 C329 1.362 . S
C330 C333 1.409 . S
C331 H323 0.930 . S
C331 C332 1.355 . S
C331 C333 1.415 . S
C332 C331 1.355 . S
C332 C334 1.419 . S
C333 C328 1.425 . S
C333 C330 1.409 . S
C333 C331 1.415 . S
C334 H324 0.930 . S
C334 C332 1.419 . S
C334 C335 1.362 . S
C335 H325 0.930 . S
C335 C328 1.409 . S
C335 C334 1.362 . S
H336 C342 0.930 . S
H337 C345 0.930 . S
H338 C346 0.930 . S
H339 C347 0.930 . S
H340 C350 0.933 . S
H341 C351 0.930 1_455 S
C342 H336 0.930 . S
C342 C343 1.355 . S
C342 C344 1.415 . S
C343 C342 1.355 . S
C343 C345 1.419 . S
C344 C342 1.415 . S
C344 C349 1.425 . S
C344 C351 1.409 . S
C345 H337 0.930 . S
C345 C343 1.419 . S
C345 C346 1.362 . S
C346 H338 0.930 . S
C346 C345 1.362 . S
C346 C349 1.409 . S
C347 H339 0.930 . S
C347 C348 1.355 . S
C347 C349 1.415 . S
C348 C347 1.355 . S
C348 C350 1.415 1_655 S
C349 C344 1.425 . S
C349 C346 1.409 . S
C349 C347 1.415 . S
C350 H340 0.933 . S
C350 C348 1.415 1_455 S
C350 C351 1.363 1_455 S
C351 H341 0.930 1_655 S
C351 C344 1.409 . S
C351 C350 1.363 1_655 S
C167 C90 0.738 . S
C172 C19 0.738 . S
C183 C130 0.810 . S
C188 C59 0.810 . S
C199 C99 1.210 . S
C204 C10 1.210 . S
C215 C50 1.126 . S
C220 C139 1.126 . S
C231 C56 1.046 . S
C236 C7 1.092 . S
C247 C47 1.699 . S
C252 C91 1.701 . S
C263 C131 2.136 . S
C268 C82 2.109 . S
C279 C122 1.370 . S
C284 C16 1.344 . S
C295 C96 1.048 . S
C300 C127 1.064 . S
C311 C2 1.709 1_565 S
C316 C136 1.661 . S
C327 C42 2.134 . S
C332 C11 2.078 1_556 S
C343 C87 1.375 . S
C348 C51 1.340 . S
