# Generated by pormake.
# Topology gsi, (4)-cn, num edge types: 1
# Building blocks:
#     Node 0, Type 0, BuildingBlock: UXUYUI_clean_sbu_0, # of connection points: 4
#     Node 1, Type 0, BuildingBlock: UXUYUI_clean_sbu_0, # of connection points: 4
#     Node 2, Type 0, BuildingBlock: UXUYUI_clean_sbu_0, # of connection points: 4
#     Node 3, Type 0, BuildingBlock: UXUYUI_clean_sbu_0, # of connection points: 4
#     Node 4, Type 0, BuildingBlock: UXUYUI_clean_sbu_0, # of connection points: 4
#     Node 5, Type 0, BuildingBlock: UXUYUI_clean_sbu_0, # of connection points: 4
#     Node 6, Type 0, BuildingBlock: UXUYUI_clean_sbu_0, # of connection points: 4
#     Node 7, Type 0, BuildingBlock: UXUYUI_clean_sbu_0, # of connection points: 4
#     Node 8, Type 0, BuildingBlock: UXUYUI_clean_sbu_0, # of connection points: 4
#     Node 9, Type 0, BuildingBlock: UXUYUI_clean_sbu_0, # of connection points: 4
#     Node 10, Type 0, BuildingBlock: UXUYUI_clean_sbu_0, # of connection points: 4
#     Node 11, Type 0, BuildingBlock: UXUYUI_clean_sbu_0, # of connection points: 4
#     Node 12, Type 0, BuildingBlock: UXUYUI_clean_sbu_0, # of connection points: 4
#     Node 13, Type 0, BuildingBlock: UXUYUI_clean_sbu_0, # of connection points: 4
#     Node 14, Type 0, BuildingBlock: UXUYUI_clean_sbu_0, # of connection points: 4
#     Node 15, Type 0, BuildingBlock: UXUYUI_clean_sbu_0, # of connection points: 4
#     Edge 16, Type (0, 0), BuildingBlock: MIFKUJ_clean_linker_0, # of connection points: 2
#     Edge 17, Type (0, 0), BuildingBlock: MIFKUJ_clean_linker_0, # of connection points: 2
#     Edge 18, Type (0, 0), BuildingBlock: MIFKUJ_clean_linker_0, # of connection points: 2
#     Edge 19, Type (0, 0), BuildingBlock: MIFKUJ_clean_linker_0, # of connection points: 2
#     Edge 20, Type (0, 0), BuildingBlock: MIFKUJ_clean_linker_0, # of connection points: 2
#     Edge 21, Type (0, 0), BuildingBlock: MIFKUJ_clean_linker_0, # of connection points: 2
#     Edge 22, Type (0, 0), BuildingBlock: MIFKUJ_clean_linker_0, # of connection points: 2
#     Edge 23, Type (0, 0), BuildingBlock: MIFKUJ_clean_linker_0, # of connection points: 2
#     Edge 24, Type (0, 0), BuildingBlock: MIFKUJ_clean_linker_0, # of connection points: 2
#     Edge 25, Type (0, 0), BuildingBlock: MIFKUJ_clean_linker_0, # of connection points: 2
#     Edge 26, Type (0, 0), BuildingBlock: MIFKUJ_clean_linker_0, # of connection points: 2
#     Edge 27, Type (0, 0), BuildingBlock: MIFKUJ_clean_linker_0, # of connection points: 2
#     Edge 28, Type (0, 0), BuildingBlock: MIFKUJ_clean_linker_0, # of connection points: 2
#     Edge 29, Type (0, 0), BuildingBlock: MIFKUJ_clean_linker_0, # of connection points: 2
#     Edge 30, Type (0, 0), BuildingBlock: MIFKUJ_clean_linker_0, # of connection points: 2
#     Edge 31, Type (0, 0), BuildingBlock: MIFKUJ_clean_linker_0, # of connection points: 2
#     Edge 32, Type (0, 0), BuildingBlock: MIFKUJ_clean_linker_0, # of connection points: 2
#     Edge 33, Type (0, 0), BuildingBlock: MIFKUJ_clean_linker_0, # of connection points: 2
#     Edge 34, Type (0, 0), BuildingBlock: MIFKUJ_clean_linker_0, # of connection points: 2
#     Edge 35, Type (0, 0), BuildingBlock: MIFKUJ_clean_linker_0, # of connection points: 2
#     Edge 36, Type (0, 0), BuildingBlock: MIFKUJ_clean_linker_0, # of connection points: 2
#     Edge 37, Type (0, 0), BuildingBlock: MIFKUJ_clean_linker_0, # of connection points: 2
#     Edge 38, Type (0, 0), BuildingBlock: MIFKUJ_clean_linker_0, # of connection points: 2
#     Edge 39, Type (0, 0), BuildingBlock: MIFKUJ_clean_linker_0, # of connection points: 2
#     Edge 40, Type (0, 0), BuildingBlock: MIFKUJ_clean_linker_0, # of connection points: 2
#     Edge 41, Type (0, 0), BuildingBlock: MIFKUJ_clean_linker_0, # of connection points: 2
#     Edge 42, Type (0, 0), BuildingBlock: MIFKUJ_clean_linker_0, # of connection points: 2
#     Edge 43, Type (0, 0), BuildingBlock: MIFKUJ_clean_linker_0, # of connection points: 2
#     Edge 44, Type (0, 0), BuildingBlock: MIFKUJ_clean_linker_0, # of connection points: 2
#     Edge 45, Type (0, 0), BuildingBlock: MIFKUJ_clean_linker_0, # of connection points: 2
#     Edge 46, Type (0, 0), BuildingBlock: MIFKUJ_clean_linker_0, # of connection points: 2
#     Edge 47, Type (0, 0), BuildingBlock: MIFKUJ_clean_linker_0, # of connection points: 2
# Relax obj value: 0.073
# Max RMSD: 0.058
# Mean RMSD: 0.058
data_MOF--net-gsi--node1-UXUYUI_clean_sbu_0--edge1-MIFKUJ_clean_linker_0
_symmetry_space_group_name_H-M    P1
_symmetry_Int_Tables_number       1
_symmetry_cell_setting            triclinic
loop_
_symmetry_equiv_pos_as_xyz
'x, y, z'
_cell_length_a     74.697056
_cell_length_b     74.495223
_cell_length_c     74.533837
_cell_angle_alpha  89.954128
_cell_angle_beta   89.988225
_cell_angle_gamma 90.175852
loop_
_atom_site_label
_atom_site_type_symbol
_atom_site_fract_x
_atom_site_fract_y
_atom_site_fract_z
_atom_type_partial_charge
Li0 Li 0.13696 0.16538 0.15054 0.0
Li1 Li 0.16564 0.16389 0.16466 0.0
Li2 Li 0.16311 0.15153 0.13554 0.0
Li3 Li 0.14996 0.13582 0.16285 0.0
C4 C 0.15571 0.18667 0.12725 0.0
N5 N 0.14791 0.20604 0.09659 0.0
C6 C 0.16263 0.20398 0.12496 0.0
C7 C 0.14481 0.17923 0.11392 0.0
C8 C 0.15853 0.21355 0.10937 0.0
C9 C 0.14103 0.18923 0.09853 0.0
C10 C 0.14105 0.16734 0.19112 0.0
C11 C 0.13962 0.16855 0.22343 0.0
N12 N 0.13941 0.18679 0.22263 0.0
C13 C 0.14077 0.18609 0.19062 0.0
C14 C 0.14044 0.15847 0.20765 0.0
C15 C 0.13997 0.19568 0.2067 0.0
C16 C 0.09922 0.17149 0.14601 0.0
N17 N 0.11556 0.17939 0.14776 0.0
C18 C 0.10224 0.20856 0.14723 0.0
C19 C 0.11729 0.19756 0.14827 0.0
C20 C 0.08512 0.20086 0.14568 0.0
C21 C 0.08373 0.18202 0.14488 0.0
H22 H 0.09818 0.157 0.14576 0.0
H23 H 0.13038 0.20359 0.14969 0.0
C24 C 0.19022 0.19148 0.17253 0.0
N25 N 0.18156 0.17717 0.17984 0.0
C26 C 0.20165 0.202 0.183 0.0
C27 C 0.19526 0.18268 0.20829 0.0
C28 C 0.18407 0.17248 0.19729 0.0
C29 C 0.20412 0.19773 0.20118 0.0
H30 H 0.18819 0.19477 0.15856 0.0
H31 H 0.17737 0.16082 0.20272 0.0
C32 C 0.133 0.12787 0.12744 0.0
N33 N 0.12224 0.10074 0.10459 0.0
C34 C 0.14178 0.11134 0.12765 0.0
C35 C 0.11873 0.13061 0.11565 0.0
C36 C 0.13614 0.09779 0.11599 0.0
C37 C 0.1135 0.11673 0.10418 0.0
C38 C 0.19094 0.13973 0.16565 0.0
C39 C 0.20633 0.14777 0.15857 0.0
C40 C 0.19168 0.1314 0.18244 0.0
C41 C 0.22219 0.14749 0.1685 0.0
C42 C 0.2078 0.13136 0.19194 0.0
N43 N 0.22259 0.13936 0.18485 0.0
C44 C 0.18952 0.16111 0.11114 0.0
C45 C 0.17242 0.13663 0.10029 0.0
C46 C 0.20044 0.1607 0.09595 0.0
N47 N 0.17593 0.14909 0.11317 0.0
C48 C 0.18308 0.1357 0.08485 0.0
C49 C 0.19745 0.14774 0.08258 0.0
H50 H 0.19193 0.17105 0.12142 0.0
H51 H 0.16151 0.1273 0.10194 0.0
C52 C 0.13127 0.11269 0.18679 0.0
N53 N 0.14509 0.11357 0.17493 0.0
C54 C 0.12894 0.0975 0.19761 0.0
C55 C 0.15452 0.08399 0.18315 0.0
C56 C 0.15655 0.09956 0.17285 0.0
C57 C 0.14078 0.08298 0.19597 0.0
H58 H 0.12239 0.12404 0.18824 0.0
H59 H 0.1677 0.10072 0.16366 0.0
O60 O 0.15967 0.17719 0.14251 0.0
O61 O 0.14204 0.15772 0.17553 0.0
O62 O 0.1381 0.14124 0.13894 0.0
O63 O 0.17519 0.14018 0.15628 0.0
H64 H 0.17103 0.21 0.13514 0.0
H65 H 0.13932 0.1659 0.11536 0.0
H66 H 0.16379 0.22696 0.10745 0.0
H67 H 0.13262 0.18361 0.08812 0.0
H68 H 0.13921 0.16187 0.23632 0.0
H69 H 0.14156 0.19315 0.17799 0.0
H70 H 0.14082 0.14397 0.20831 0.0
H71 H 0.13988 0.2102 0.2065 0.0
H72 H 0.10402 0.22299 0.1476 0.0
H73 H 0.07081 0.17549 0.14384 0.0
H74 H 0.20818 0.21354 0.17702 0.0
H75 H 0.19705 0.17876 0.22217 0.0
H76 H 0.15305 0.10915 0.13642 0.0
H77 H 0.11176 0.14333 0.11537 0.0
H78 H 0.14289 0.08496 0.11593 0.0
H79 H 0.10248 0.11865 0.09497 0.0
H80 H 0.20602 0.1543 0.14563 0.0
H81 H 0.17986 0.12535 0.18827 0.0
H82 H 0.23417 0.15376 0.16323 0.0
H83 H 0.20853 0.12508 0.20501 0.0
H84 H 0.21108 0.17053 0.09467 0.0
H85 H 0.18029 0.1254 0.07498 0.0
H86 H 0.11813 0.09718 0.2073 0.0
H87 H 0.16406 0.07317 0.18164 0.0
Li88 Li 0.84819 0.34839 0.16376 0.0
Li89 Li 0.87792 0.35079 0.14725 0.0
Li90 Li 0.86229 0.37857 0.16111 0.0
Li91 Li 0.85046 0.36305 0.13546 0.0
C92 C 0.87934 0.35075 0.18862 0.0
N93 N 0.89469 0.33885 0.22023 0.0
C94 C 0.88911 0.33477 0.18894 0.0
C95 C 0.87755 0.36076 0.20439 0.0
C96 C 0.89671 0.32896 0.20505 0.0
C97 C 0.88535 0.3545 0.22023 0.0
C98 C 0.8487 0.32916 0.1264 0.0
C99 C 0.85137 0.31782 0.09623 0.0
N100 N 0.83367 0.31348 0.09637 0.0
C101 C 0.83057 0.32449 0.12631 0.0
C102 C 0.85923 0.32575 0.11128 0.0
C103 C 0.8232 0.31662 0.11097 0.0
C104 C 0.81587 0.33361 0.17643 0.0
N105 N 0.83395 0.33295 0.17848 0.0
C106 C 0.83105 0.31035 0.20108 0.0
C107 C 0.84165 0.32148 0.19036 0.0
C108 C 0.81234 0.31088 0.19939 0.0
C109 C 0.80476 0.32266 0.18681 0.0
H110 H 0.81008 0.3427 0.16673 0.0
H111 H 0.856 0.3208 0.19145 0.0
C112 C 0.91615 0.34633 0.14513 0.0
N113 N 0.89992 0.33817 0.1436 0.0
C114 C 0.9319 0.33621 0.1439 0.0
C115 C 0.91388 0.30963 0.13935 0.0
C116 C 0.89855 0.32021 0.14068 0.0
C117 C 0.93089 0.31754 0.1411 0.0
H118 H 0.91686 0.36062 0.14762 0.0
H119 H 0.88548 0.31397 0.13993 0.0
C120 C 0.82628 0.37796 0.17015 0.0
N121 N 0.80518 0.39133 0.1975 0.0
C122 C 0.81098 0.38798 0.16617 0.0
C123 C 0.83078 0.37472 0.18805 0.0
C124 C 0.80051 0.39464 0.18018 0.0
C125 C 0.81996 0.38158 0.20169 0.0
C126 C 0.87474 0.38633 0.12266 0.0
C127 C 0.86296 0.40082 0.12149 0.0
C128 C 0.88684 0.38306 0.10875 0.0
C129 C 0.86331 0.4117 0.10622 0.0
C130 C 0.88679 0.39428 0.09372 0.0
N131 N 0.87512 0.40823 0.09277 0.0
C132 C 0.88127 0.40339 0.18342 0.0
C133 C 0.853 0.4135 0.17325 0.0
C134 C 0.88323 0.41869 0.19416 0.0
N135 N 0.86612 0.40088 0.17357 0.0
C136 C 0.85425 0.42879 0.18401 0.0
C137 C 0.86938 0.43139 0.19486 0.0
H138 H 0.8916 0.39325 0.18333 0.0
H139 H 0.84132 0.41154 0.16493 0.0
C140 C 0.81897 0.36841 0.11559 0.0
N141 N 0.8369 0.36614 0.11352 0.0
C142 C 0.80774 0.36955 0.10065 0.0
C143 C 0.83358 0.36593 0.08155 0.0
C144 C 0.84432 0.36486 0.09689 0.0
C145 C 0.81497 0.36825 0.0833 0.0
H146 H 0.81328 0.36883 0.1289 0.0
H147 H 0.85852 0.36255 0.0955 0.0
O148 O 0.87206 0.35681 0.17287 0.0
O149 O 0.85604 0.33729 0.14112 0.0
O150 O 0.83674 0.3715 0.15652 0.0
O151 O 0.8745 0.37546 0.13741 0.0
H152 H 0.89057 0.32676 0.17697 0.0
H153 H 0.87025 0.37327 0.20446 0.0
H154 H 0.90419 0.31655 0.20548 0.0
H155 H 0.88402 0.3621 0.23251 0.0
H156 H 0.85932 0.31521 0.08439 0.0
H157 H 0.82222 0.32712 0.13787 0.0
H158 H 0.87324 0.32946 0.11107 0.0
H159 H 0.80916 0.31306 0.11065 0.0
H160 H 0.83745 0.30122 0.21039 0.0
H161 H 0.79038 0.32356 0.18516 0.0
H162 H 0.94471 0.34293 0.14518 0.0
H163 H 0.91236 0.29528 0.13756 0.0
H164 H 0.80733 0.39075 0.1524 0.0
H165 H 0.84238 0.36684 0.19138 0.0
H166 H 0.78868 0.40247 0.17728 0.0
H167 H 0.82331 0.37913 0.21559 0.0
H168 H 0.85352 0.40349 0.13218 0.0
H169 H 0.89606 0.3719 0.10953 0.0
H170 H 0.8542 0.42289 0.10505 0.0
H171 H 0.89601 0.39187 0.08279 0.0
H172 H 0.89512 0.42025 0.20233 0.0
H173 H 0.84343 0.43845 0.18395 0.0
H174 H 0.79346 0.37092 0.10272 0.0
H175 H 0.83979 0.36492 0.06846 0.0
Li176 Li 0.14938 0.87812 0.34959 0.0
Li177 Li 0.16159 0.86374 0.37707 0.0
Li178 Li 0.16493 0.85023 0.34762 0.0
Li179 Li 0.13506 0.85093 0.36179 0.0
C180 C 0.1914 0.87374 0.34887 0.0
N181 N 0.22528 0.87318 0.33396 0.0
C182 C 0.20643 0.87163 0.35982 0.0
C183 C 0.19363 0.87587 0.33037 0.0
C184 C 0.22344 0.87131 0.35202 0.0
C185 C 0.21085 0.87546 0.32307 0.0
C186 C 0.13553 0.89085 0.3825 0.0
C187 C 0.11936 0.91049 0.40241 0.0
N188 N 0.13219 0.92328 0.40013 0.0
C189 C 0.14855 0.9042 0.38034 0.0
C190 C 0.12079 0.89401 0.39359 0.0
C191 C 0.14662 0.92051 0.38936 0.0
C192 C 0.12911 0.90511 0.33078 0.0
N193 N 0.14559 0.90052 0.33706 0.0
C194 C 0.15852 0.92671 0.32359 0.0
C195 C 0.1601 0.91115 0.33394 0.0
C196 C 0.1419 0.93122 0.31614 0.0
C197 C 0.12701 0.92032 0.31996 0.0
H198 H 0.11767 0.89672 0.33379 0.0
H199 H 0.17301 0.90745 0.33929 0.0
C200 C 0.18702 0.85277 0.40193 0.0
N201 N 0.17439 0.86567 0.39955 0.0
C202 C 0.19793 0.85277 0.41713 0.0
C203 C 0.18277 0.8794 0.4274 0.0
C204 C 0.17192 0.87871 0.41208 0.0
C205 C 0.19615 0.86638 0.43007 0.0
H206 H 0.1888 0.84254 0.39181 0.0
H207 H 0.16172 0.88874 0.41022 0.0
C208 C 0.13248 0.8618 0.32194 0.0
N209 N 0.11362 0.87399 0.29247 0.0
C210 C 0.11378 0.86103 0.3218 0.0
C211 C 0.14159 0.86857 0.30699 0.0
C212 C 0.10449 0.86729 0.30678 0.0
C213 C 0.13181 0.87474 0.29226 0.0
C214 C 0.15319 0.82839 0.38502 0.0
C215 C 0.16026 0.81116 0.38692 0.0
C216 C 0.14205 0.83534 0.39838 0.0
C217 C 0.15606 0.80112 0.4022 0.0
C218 C 0.13817 0.82488 0.41345 0.0
N219 N 0.14519 0.80813 0.41503 0.0
C220 C 0.196 0.82985 0.34015 0.0
C221 C 0.17471 0.83111 0.31659 0.0
C222 C 0.20735 0.8193 0.32967 0.0
N223 N 0.18015 0.83568 0.33337 0.0
C224 C 0.18552 0.82043 0.30574 0.0
C225 C 0.2021 0.81445 0.31224 0.0
H226 H 0.19981 0.83341 0.35369 0.0
H227 H 0.16192 0.83569 0.31165 0.0
C228 C 0.09762 0.84421 0.36902 0.0
N229 N 0.11368 0.83695 0.36452 0.0
C230 C 0.08229 0.83335 0.36999 0.0
C231 C 0.10048 0.80776 0.36219 0.0
C232 C 0.11534 0.81912 0.36114 0.0
C233 C 0.08355 0.81481 0.36645 0.0
H234 H 0.09665 0.85848 0.37152 0.0
H235 H 0.12827 0.8137 0.35753 0.0
O236 O 0.1746 0.87379 0.35622 0.0
O237 O 0.13684 0.87493 0.37349 0.0
O238 O 0.1418 0.8558 0.33657 0.0
O239 O 0.15725 0.83835 0.37012 0.0
H240 H 0.20501 0.87024 0.37418 0.0
H241 H 0.18217 0.87769 0.32172 0.0
H242 H 0.23518 0.86958 0.36033 0.0
H243 H 0.21275 0.87693 0.30876 0.0
H244 H 0.10803 0.91311 0.41106 0.0
H245 H 0.16015 0.90195 0.37199 0.0
H246 H 0.11055 0.88384 0.39533 0.0
H247 H 0.15662 0.93093 0.38785 0.0
H248 H 0.1703 0.93481 0.32094 0.0
H249 H 0.11393 0.92352 0.31459 0.0
H250 H 0.20767 0.84215 0.41865 0.0
H251 H 0.18089 0.89028 0.43682 0.0
H252 H 0.10649 0.85577 0.33317 0.0
H253 H 0.15604 0.86914 0.30679 0.0
H254 H 0.09001 0.86686 0.30653 0.0
H255 H 0.1387 0.88013 0.28067 0.0
H256 H 0.16892 0.80561 0.37669 0.0
H257 H 0.13647 0.84866 0.39716 0.0
H258 H 0.16144 0.78775 0.40385 0.0
H259 H 0.12957 0.83008 0.42389 0.0
H260 H 0.21993 0.81474 0.33524 0.0
H261 H 0.18104 0.81703 0.29234 0.0
H262 H 0.06956 0.8395 0.37309 0.0
H263 H 0.10233 0.79357 0.35972 0.0
Li264 Li 0.85013 0.65018 0.37669 0.0
Li265 Li 0.86183 0.63646 0.34896 0.0
Li266 Li 0.87702 0.66258 0.36182 0.0
Li267 Li 0.84724 0.66479 0.34761 0.0
C268 C 0.87487 0.62208 0.38133 0.0
N269 N 0.87609 0.58905 0.39817 0.0
C270 C 0.86077 0.60986 0.37926 0.0
C271 C 0.88959 0.61749 0.39191 0.0
C272 C 0.86164 0.59323 0.38789 0.0
C273 C 0.88995 0.60073 0.40034 0.0
C274 C 0.81977 0.64208 0.34844 0.0
C275 C 0.79998 0.64382 0.3229 0.0
N276 N 0.78565 0.64388 0.33416 0.0
C277 C 0.80483 0.6419 0.35973 0.0
C278 C 0.81731 0.64281 0.32986 0.0
C279 C 0.7877 0.6429 0.35227 0.0
C280 C 0.82354 0.6595 0.40078 0.0
N281 N 0.83763 0.6481 0.39923 0.0
C282 C 0.83175 0.63626 0.42855 0.0
C283 C 0.84205 0.63676 0.41284 0.0
C284 C 0.81688 0.64767 0.43036 0.0
C285 C 0.81292 0.65947 0.41619 0.0
H286 H 0.8204 0.66852 0.38985 0.0
H287 H 0.85356 0.62813 0.41164 0.0
C288 C 0.88162 0.60712 0.33324 0.0
N289 N 0.86508 0.61424 0.33601 0.0
C290 C 0.88364 0.59166 0.32273 0.0
C291 C 0.85159 0.59079 0.31869 0.0
C292 C 0.8502 0.60621 0.32921 0.0
C293 C 0.86848 0.58333 0.31517 0.0
H294 H 0.89326 0.61359 0.33899 0.0
H295 H 0.83719 0.61185 0.33179 0.0
C296 C 0.85887 0.68494 0.38578 0.0
N297 N 0.86589 0.70401 0.41677 0.0
C298 C 0.85081 0.7016 0.38861 0.0
C299 C 0.87046 0.67794 0.39873 0.0
C300 C 0.85454 0.71105 0.40436 0.0
C301 C 0.87385 0.6878 0.4143 0.0
C302 C 0.87935 0.65152 0.32218 0.0
C303 C 0.89791 0.64935 0.32308 0.0
C304 C 0.87013 0.64613 0.30677 0.0
C305 C 0.90692 0.64164 0.3086 0.0
C306 C 0.87962 0.63843 0.29259 0.0
N307 N 0.89767 0.63635 0.29379 0.0
C308 C 0.91468 0.66803 0.36893 0.0
C309 C 0.89747 0.69399 0.36277 0.0
C310 C 0.93026 0.67847 0.37038 0.0
N311 N 0.89874 0.67593 0.36506 0.0
C312 C 0.91259 0.70493 0.36441 0.0
C313 C 0.92929 0.69719 0.36813 0.0
H314 H 0.91533 0.65362 0.37063 0.0
H315 H 0.88467 0.6999 0.35951 0.0
C316 C 0.81676 0.6862 0.34125 0.0
N317 N 0.83253 0.68053 0.33414 0.0
C318 C 0.80549 0.69733 0.33131 0.0
C319 C 0.82728 0.69721 0.3073 0.0
C320 C 0.83802 0.68589 0.3176 0.0
C321 C 0.81073 0.70294 0.31411 0.0
H322 H 0.81288 0.68189 0.35456 0.0
H323 H 0.85071 0.68132 0.31238 0.0
O324 O 0.87449 0.63839 0.3729 0.0
O325 O 0.83667 0.64131 0.35554 0.0
O326 O 0.85518 0.67548 0.3705 0.0
O327 O 0.87025 0.65877 0.33636 0.0
H328 H 0.84923 0.61314 0.37117 0.0
H329 H 0.90063 0.62679 0.3936 0.0
H330 H 0.85083 0.58366 0.38643 0.0
H331 H 0.90126 0.59701 0.4086 0.0
H332 H 0.79792 0.6446 0.30856 0.0
H333 H 0.80639 0.64083 0.3741 0.0
H334 H 0.82868 0.64282 0.3209 0.0
H335 H 0.77604 0.64285 0.36087 0.0
H336 H 0.83551 0.62718 0.43924 0.0
H337 H 0.80151 0.66837 0.41682 0.0
H338 H 0.89692 0.58626 0.32063 0.0
H339 H 0.83952 0.58503 0.31305 0.0
H340 H 0.84175 0.70714 0.37873 0.0
H341 H 0.87674 0.66502 0.39682 0.0
H342 H 0.8484 0.72396 0.40673 0.0
H343 H 0.88278 0.68256 0.42443 0.0
H344 H 0.90526 0.65341 0.33489 0.0
H345 H 0.8558 0.64778 0.30578 0.0
H346 H 0.92127 0.63979 0.30915 0.0
H347 H 0.87264 0.6341 0.28063 0.0
H348 H 0.94289 0.67201 0.37333 0.0
H349 H 0.9113 0.71926 0.36236 0.0
H350 H 0.79291 0.70164 0.33708 0.0
H351 H 0.83173 0.70119 0.29404 0.0
Li352 Li 0.35019 0.84866 0.66511 0.0
Li353 Li 0.37881 0.85013 0.64927 0.0
Li354 Li 0.36309 0.87806 0.66224 0.0
Li355 Li 0.35019 0.86301 0.63576 0.0
C356 C 0.37589 0.84919 0.69114 0.0
N357 N 0.38036 0.83388 0.72463 0.0
C358 C 0.38771 0.83485 0.69345 0.0
C359 C 0.36649 0.85585 0.70591 0.0
C360 C 0.38975 0.82727 0.71048 0.0
C361 C 0.36888 0.84789 0.72271 0.0
C362 C 0.34849 0.82148 0.64293 0.0
C363 C 0.32211 0.80294 0.64019 0.0
N364 N 0.33127 0.78891 0.64737 0.0
C365 C 0.35766 0.80687 0.65024 0.0
C366 C 0.3306 0.81951 0.6378 0.0
C367 C 0.34871 0.79051 0.65238 0.0
C368 C 0.31766 0.83669 0.68001 0.0
N369 N 0.33559 0.83356 0.68007 0.0
C370 C 0.33168 0.80893 0.7003 0.0
C371 C 0.34266 0.81976 0.68968 0.0
C372 C 0.31318 0.81205 0.70068 0.0
C373 C 0.30614 0.82602 0.69024 0.0
H374 H 0.31227 0.8474 0.67186 0.0
H375 H 0.35676 0.81687 0.68886 0.0
C376 C 0.416 0.8428 0.65375 0.0
N377 N 0.40088 0.838 0.64476 0.0
C378 C 0.43148 0.83234 0.65238 0.0
C379 C 0.41574 0.81262 0.63202 0.0
C380 C 0.40062 0.8235 0.6337 0.0
C381 C 0.43135 0.81677 0.64171 0.0
H382 H 0.41579 0.85433 0.66257 0.0
H383 H 0.38846 0.82004 0.62662 0.0
C384 C 0.32745 0.88383 0.66491 0.0
N385 N 0.30653 0.91058 0.67959 0.0
C386 C 0.31996 0.89701 0.65389 0.0
C387 C 0.32414 0.88414 0.68336 0.0
C388 C 0.30945 0.91045 0.66158 0.0
C389 C 0.31358 0.89781 0.69054 0.0
C390 C 0.37739 0.88463 0.62317 0.0
C391 C 0.36643 0.89936 0.61956 0.0
C392 C 0.39099 0.88004 0.61116 0.0
C393 C 0.36922 0.90926 0.60388 0.0
C394 C 0.39338 0.89031 0.59565 0.0
N395 N 0.38253 0.90458 0.59235 0.0
C396 C 0.37707 0.89998 0.68986 0.0
C397 C 0.359 0.91599 0.6693 0.0
C398 C 0.37868 0.91515 0.70077 0.0
N399 N 0.36696 0.90049 0.67469 0.0
C400 C 0.36025 0.9315 0.67982 0.0
C401 C 0.36991 0.93112 0.696 0.0
H402 H 0.38367 0.8877 0.69369 0.0
H403 H 0.35126 0.91627 0.65709 0.0
C404 C 0.31836 0.866 0.61611 0.0
N405 N 0.33644 0.86561 0.61409 0.0
C406 C 0.30714 0.86698 0.60116 0.0
C407 C 0.3333 0.86716 0.58214 0.0
C408 C 0.34403 0.86595 0.5975 0.0
C409 C 0.31453 0.86763 0.58381 0.0
H410 H 0.31261 0.86517 0.62941 0.0
H411 H 0.3584 0.86511 0.59612 0.0
O412 O 0.37381 0.85685 0.67458 0.0
O413 O 0.35685 0.83774 0.64119 0.0
O414 O 0.33784 0.8706 0.65765 0.0
O415 O 0.37477 0.87466 0.63834 0.0
H416 H 0.39502 0.82942 0.68218 0.0
H417 H 0.35748 0.86707 0.70443 0.0
H418 H 0.39875 0.81609 0.71243 0.0
H419 H 0.36164 0.85288 0.73424 0.0
H420 H 0.30824 0.80125 0.63638 0.0
H421 H 0.37142 0.80824 0.65455 0.0
H422 H 0.32328 0.83072 0.63224 0.0
H423 H 0.35559 0.77913 0.65814 0.0
H424 H 0.33755 0.798 0.70785 0.0
H425 H 0.29191 0.82878 0.69015 0.0
H426 H 0.44317 0.83598 0.66019 0.0
H427 H 0.41513 0.80093 0.62342 0.0
H428 H 0.32244 0.89702 0.63959 0.0
H429 H 0.3296 0.8739 0.69203 0.0
H430 H 0.30367 0.9208 0.65323 0.0
H431 H 0.31096 0.89825 0.7048 0.0
H432 H 0.35569 0.9029 0.6286 0.0
H433 H 0.39956 0.86864 0.61379 0.0
H434 H 0.36077 0.92064 0.60084 0.0
H435 H 0.40383 0.88692 0.5862 0.0
H436 H 0.38664 0.91432 0.71288 0.0
H437 H 0.35323 0.94348 0.6756 0.0
H438 H 0.29279 0.86682 0.60322 0.0
H439 H 0.3397 0.86774 0.56912 0.0
Li440 Li 0.85132 0.86445 0.87859 0.0
Li441 Li 0.86322 0.87799 0.8517 0.0
Li442 Li 0.84847 0.84974 0.8489 0.0
Li443 Li 0.87954 0.8522 0.86263 0.0
C444 C 0.8199 0.87194 0.86074 0.0
N445 N 0.7838 0.8704 0.86882 0.0
C446 C 0.80934 0.88736 0.85945 0.0
C447 C 0.81208 0.85578 0.86618 0.0
C448 C 0.79112 0.8863 0.86358 0.0
C449 C 0.79382 0.85525 0.87018 0.0
C450 C 0.88271 0.89204 0.8783 0.0
C451 C 0.90811 0.91195 0.8805 0.0
N452 N 0.89682 0.92591 0.88359 0.0
C453 C 0.87136 0.90653 0.88164 0.0
C454 C 0.90123 0.89469 0.87782 0.0
C455 C 0.87876 0.92358 0.88421 0.0
C456 C 0.84108 0.8546 0.91411 0.0
N457 N 0.83948 0.86744 0.90124 0.0
C458 C 0.81787 0.88312 0.91896 0.0
C459 C 0.82849 0.88178 0.90359 0.0
C460 C 0.81864 0.86966 0.93216 0.0
C461 C 0.83073 0.85543 0.92974 0.0
H462 H 0.85002 0.84341 0.912 0.0
H463 H 0.82763 0.89197 0.89331 0.0
C464 C 0.85066 0.90634 0.83048 0.0
N465 N 0.86579 0.90033 0.83862 0.0
C466 C 0.85118 0.92139 0.81932 0.0
C467 C 0.88288 0.92402 0.82509 0.0
C468 C 0.88175 0.90885 0.83614 0.0
C469 C 0.86747 0.93037 0.81633 0.0
H470 H 0.83823 0.89912 0.83224 0.0
H471 H 0.89375 0.90354 0.8422 0.0
C472 C 0.85448 0.82153 0.87515 0.0
N473 N 0.8485 0.78549 0.88195 0.0
C474 C 0.86656 0.80862 0.86898 0.0
C475 C 0.83949 0.81607 0.88502 0.0
C476 C 0.86326 0.79048 0.87248 0.0
C477 C 0.83667 0.7978 0.88825 0.0
C478 C 0.8764 0.86453 0.82208 0.0
C479 C 0.86367 0.86752 0.80867 0.0
C480 C 0.89408 0.87016 0.81947 0.0
C481 C 0.86883 0.87624 0.79289 0.0
C482 C 0.89871 0.8788 0.80348 0.0
N483 N 0.8861 0.88166 0.79064 0.0
C484 C 0.81967 0.8425 0.82509 0.0
C485 C 0.83824 0.81751 0.83116 0.0
C486 C 0.8088 0.83208 0.81396 0.0
N487 N 0.83386 0.83502 0.83372 0.0
C488 C 0.82772 0.80658 0.82018 0.0
C489 C 0.8127 0.81381 0.81149 0.0
H490 H 0.8168 0.8566 0.82679 0.0
H491 H 0.85004 0.81206 0.8374 0.0
C492 C 0.90847 0.83577 0.88178 0.0
N493 N 0.90159 0.83946 0.8653 0.0
C494 C 0.92357 0.82475 0.88345 0.0
C495 C 0.92434 0.8219 0.85118 0.0
C496 C 0.90925 0.83286 0.85014 0.0
C497 C 0.93158 0.81744 0.86801 0.0
H498 H 0.90194 0.84095 0.89364 0.0
H499 H 0.90331 0.83567 0.83722 0.0
O500 O 0.83786 0.87289 0.85717 0.0
O501 O 0.87574 0.87528 0.87566 0.0
O502 O 0.85768 0.8394 0.87208 0.0
O503 O 0.87148 0.85646 0.83781 0.0
H504 H 0.81519 0.90006 0.85549 0.0
H505 H 0.82 0.84375 0.86712 0.0
H506 H 0.78282 0.89813 0.86269 0.0
H507 H 0.78762 0.84279 0.87437 0.0
H508 H 0.92241 0.91425 0.88008 0.0
H509 H 0.857 0.90465 0.88203 0.0
H510 H 0.91016 0.88356 0.87529 0.0
H511 H 0.87015 0.93496 0.88668 0.0
H512 H 0.80902 0.89452 0.9204 0.0
H513 H 0.83173 0.84471 0.9395 0.0
H514 H 0.83892 0.92587 0.813 0.0
H515 H 0.89579 0.93032 0.82295 0.0
H516 H 0.8782 0.81249 0.86129 0.0
H517 H 0.83014 0.82579 0.89026 0.0
H518 H 0.87244 0.78037 0.86764 0.0
H519 H 0.82509 0.79342 0.89582 0.0
H520 H 0.84991 0.86336 0.81053 0.0
H521 H 0.90404 0.86818 0.82982 0.0
H522 H 0.8591 0.87876 0.78245 0.0
H523 H 0.91232 0.88334 0.80132 0.0
H524 H 0.79735 0.83822 0.80752 0.0
H525 H 0.8315 0.79269 0.81827 0.0
H526 H 0.92851 0.82153 0.89672 0.0
H527 H 0.93015 0.81684 0.83888 0.0
Li528 Li 0.13419 0.66184 0.86281 0.0
Li529 Li 0.16385 0.66572 0.84863 0.0
Li530 Li 0.15048 0.6364 0.85107 0.0
Li531 Li 0.1615 0.6508 0.87759 0.0
C532 C 0.13074 0.64912 0.8251 0.0
N533 N 0.11014 0.63082 0.80029 0.0
C534 C 0.13625 0.64806 0.80721 0.0
C535 C 0.1147 0.64092 0.83035 0.0
C536 C 0.12567 0.63872 0.79488 0.0
C537 C 0.10448 0.63174 0.81761 0.0
C538 C 0.1511 0.69385 0.87077 0.0
C539 C 0.14899 0.72313 0.88436 0.0
N540 N 0.1424 0.72982 0.86873 0.0
C541 C 0.14431 0.70102 0.85482 0.0
C542 C 0.15346 0.70498 0.88567 0.0
C543 C 0.13999 0.71924 0.85406 0.0
C544 C 0.10497 0.6772 0.88246 0.0
N545 N 0.11175 0.67403 0.86582 0.0
C546 C 0.08841 0.69135 0.85234 0.0
C547 C 0.10381 0.6809 0.85091 0.0
C548 C 0.08114 0.69503 0.86932 0.0
C549 C 0.08959 0.68775 0.88453 0.0
H550 H 0.11173 0.67187 0.89413 0.0
H551 H 0.10975 0.67874 0.83788 0.0
C552 C 0.18257 0.67456 0.81728 0.0
N553 N 0.17878 0.68056 0.83405 0.0
C554 C 0.19354 0.68462 0.80589 0.0
C555 C 0.19696 0.70661 0.82947 0.0
C556 C 0.18596 0.69611 0.8404 0.0
C557 C 0.20082 0.70095 0.81192 0.0
H558 H 0.17727 0.66181 0.81285 0.0
H559 H 0.18328 0.70034 0.85399 0.0
C560 C 0.13871 0.62211 0.88378 0.0
N561 N 0.14043 0.58995 0.9022 0.0
C562 C 0.15325 0.6106 0.88127 0.0
C563 C 0.12505 0.61725 0.89564 0.0
C564 C 0.15387 0.59441 0.89071 0.0
C565 C 0.12615 0.60093 0.90483 0.0
C566 C 0.19337 0.64633 0.8585 0.0
C567 C 0.20589 0.63428 0.85156 0.0
C568 C 0.19927 0.66155 0.86776 0.0
C569 C 0.22413 0.63765 0.85404 0.0
C570 C 0.21762 0.66444 0.86996 0.0
N571 N 0.22957 0.65253 0.86311 0.0
C572 C 0.1615 0.61192 0.82506 0.0
C573 C 0.13516 0.60237 0.84004 0.0
C574 C 0.16093 0.59694 0.81384 0.0
N575 N 0.14871 0.6144 0.83777 0.0
C576 C 0.13407 0.58714 0.82908 0.0
C577 C 0.14701 0.58432 0.81566 0.0
H578 H 0.17204 0.62179 0.82347 0.0
H579 H 0.12501 0.60477 0.85009 0.0
C580 C 0.1704 0.6591 0.91385 0.0
N581 N 0.1738 0.64765 0.90007 0.0
C582 C 0.18063 0.65837 0.92958 0.0
C583 C 0.19741 0.63385 0.91679 0.0
C584 C 0.18677 0.63494 0.90142 0.0
C585 C 0.19459 0.64584 0.93104 0.0
H586 H 0.16004 0.66911 0.91244 0.0
H587 H 0.18926 0.62593 0.89034 0.0
O588 O 0.14117 0.65768 0.83755 0.0
O589 O 0.15512 0.67598 0.87197 0.0
O590 O 0.13775 0.63808 0.87477 0.0
O591 O 0.17548 0.64316 0.85607 0.0
H592 H 0.14858 0.65431 0.80288 0.0
H593 H 0.11035 0.6414 0.84419 0.0
H594 H 0.12981 0.63774 0.78101 0.0
H595 H 0.0921 0.62525 0.82151 0.0
H596 H 0.15075 0.7319 0.8958 0.0
H597 H 0.14242 0.69265 0.84313 0.0
H598 H 0.15867 0.69965 0.89811 0.0
H599 H 0.13472 0.72495 0.84182 0.0
H600 H 0.08261 0.697 0.84029 0.0
H601 H 0.08442 0.69023 0.89787 0.0
H602 H 0.19651 0.67953 0.79262 0.0
H603 H 0.20225 0.71912 0.83468 0.0
H604 H 0.16393 0.61407 0.87211 0.0
H605 H 0.1137 0.62601 0.89773 0.0
H606 H 0.16505 0.58539 0.88889 0.0
H607 H 0.11567 0.597 0.91406 0.0
H608 H 0.20154 0.62244 0.84435 0.0
H609 H 0.18981 0.67102 0.87326 0.0
H610 H 0.23397 0.62843 0.84875 0.0
H611 H 0.22236 0.67615 0.87712 0.0
H612 H 0.17135 0.59523 0.80388 0.0
H613 H 0.12298 0.57791 0.83084 0.0
H614 H 0.17806 0.66793 0.94021 0.0
H615 H 0.20786 0.62382 0.91745 0.0
Li616 Li 0.84762 0.1653 0.66328 0.0
Li617 Li 0.86193 0.13482 0.66148 0.0
Li618 Li 0.87704 0.16347 0.65039 0.0
Li619 Li 0.85193 0.15106 0.63451 0.0
C620 C 0.86674 0.16189 0.69258 0.0
N621 N 0.85913 0.17258 0.72727 0.0
C622 C 0.86276 0.14912 0.70575 0.0
C623 C 0.86692 0.18012 0.69711 0.0
C624 C 0.85895 0.15479 0.7232 0.0
C625 C 0.863 0.18525 0.71469 0.0
C626 C 0.82215 0.13658 0.64718 0.0
C627 C 0.80556 0.11419 0.63073 0.0
N628 N 0.79164 0.12582 0.62919 0.0
C629 C 0.80766 0.14829 0.64552 0.0
C630 C 0.82111 0.11937 0.6398 0.0
C631 C 0.79235 0.14259 0.63635 0.0
C632 C 0.82926 0.19681 0.67359 0.0
N633 N 0.83146 0.17909 0.67725 0.0
C634 C 0.81131 0.18096 0.70206 0.0
C635 C 0.82256 0.17098 0.69096 0.0
C636 C 0.80908 0.19941 0.69887 0.0
C637 C 0.81812 0.2073 0.68431 0.0
H638 H 0.8363 0.20285 0.66245 0.0
H639 H 0.82443 0.15679 0.6934 0.0
C640 C 0.88088 0.10685 0.67932 0.0
N641 N 0.86443 0.11258 0.67404 0.0
C642 C 0.88255 0.09146 0.68998 0.0
C643 C 0.85039 0.088 0.68925 0.0
C644 C 0.84933 0.10351 0.67876 0.0
C645 C 0.86715 0.08187 0.69518 0.0
H646 H 0.89266 0.11445 0.67555 0.0
H647 H 0.83639 0.10859 0.67478 0.0
C648 C 0.86455 0.1901 0.63228 0.0
N649 N 0.88333 0.21716 0.61515 0.0
C650 C 0.86845 0.18875 0.61398 0.0
C651 C 0.87019 0.20524 0.64185 0.0
C652 C 0.87794 0.20259 0.60556 0.0
C653 C 0.87969 0.21875 0.63295 0.0
C654 C 0.87828 0.12821 0.62435 0.0
C655 C 0.8836 0.13543 0.60787 0.0
C656 C 0.87589 0.10967 0.62608 0.0
C657 C 0.88636 0.12395 0.59332 0.0
C658 C 0.87881 0.09864 0.61122 0.0
N659 N 0.88393 0.10595 0.59529 0.0
C660 C 0.90539 0.18503 0.66359 0.0
C661 C 0.90891 0.17697 0.63308 0.0
C662 C 0.92045 0.19615 0.66275 0.0
N663 N 0.89967 0.17602 0.64879 0.0
C664 C 0.92421 0.18779 0.63169 0.0
C665 C 0.92995 0.19782 0.64659 0.0
H666 H 0.89805 0.18391 0.67598 0.0
H667 H 0.90412 0.16978 0.62146 0.0
C668 C 0.82835 0.16281 0.60809 0.0
N669 N 0.83914 0.14863 0.61195 0.0
C670 C 0.81683 0.16228 0.59335 0.0
C671 C 0.82789 0.13268 0.58638 0.0
C672 C 0.83896 0.13363 0.60151 0.0
C673 C 0.81649 0.14707 0.5823 0.0
H674 H 0.82831 0.17439 0.61682 0.0
H675 H 0.84686 0.12212 0.60518 0.0
O676 O 0.8702 0.1566 0.67533 0.0
O677 O 0.83745 0.14212 0.6556 0.0
O678 O 0.85569 0.17648 0.64087 0.0
O679 O 0.87579 0.13916 0.63884 0.0
H680 H 0.86252 0.13497 0.70256 0.0
H681 H 0.86959 0.19025 0.68704 0.0
H682 H 0.85581 0.14504 0.7335 0.0
H683 H 0.8629 0.19931 0.71831 0.0
H684 H 0.80461 0.10096 0.62482 0.0
H685 H 0.80831 0.1617 0.65107 0.0
H686 H 0.83231 0.11024 0.64079 0.0
H687 H 0.78107 0.15154 0.63485 0.0
H688 H 0.80437 0.17429 0.71296 0.0
H689 H 0.8169 0.22149 0.68144 0.0
H690 H 0.89574 0.08715 0.69417 0.0
H691 H 0.83815 0.08122 0.69318 0.0
H692 H 0.8644 0.17706 0.6064 0.0
H693 H 0.86758 0.20637 0.65608 0.0
H694 H 0.8811 0.20169 0.59143 0.0
H695 H 0.88427 0.23045 0.64023 0.0
H696 H 0.88535 0.14974 0.60624 0.0
H697 H 0.8718 0.10386 0.63873 0.0
H698 H 0.89038 0.12935 0.58046 0.0
H699 H 0.87699 0.08427 0.61235 0.0
H700 H 0.92459 0.20343 0.67463 0.0
H701 H 0.93113 0.18877 0.61895 0.0
H702 H 0.80822 0.17364 0.59066 0.0
H703 H 0.82775 0.12058 0.57834 0.0
Li704 Li 0.15037 0.37798 0.66292 0.0
Li705 Li 0.16388 0.34792 0.66431 0.0
Li706 Li 0.1624 0.36483 0.63589 0.0
Li707 Li 0.13501 0.35156 0.64948 0.0
C708 C 0.18491 0.3836 0.66707 0.0
N709 N 0.20248 0.40992 0.68639 0.0
C710 C 0.19212 0.37965 0.6839 0.0
C711 C 0.18674 0.40089 0.65998 0.0
C712 C 0.20095 0.39315 0.69347 0.0
C713 C 0.19563 0.41403 0.66999 0.0
C714 C 0.12726 0.35078 0.68535 0.0
C715 C 0.10881 0.32741 0.69812 0.0
N716 N 0.09802 0.34011 0.70547 0.0
C717 C 0.11602 0.36361 0.69306 0.0
C718 C 0.12367 0.33253 0.68794 0.0
C719 C 0.10131 0.35794 0.70319 0.0
C720 C 0.14235 0.4152 0.6697 0.0
N721 N 0.14759 0.39932 0.67697 0.0
C722 C 0.15086 0.41295 0.70584 0.0
C723 C 0.15171 0.39794 0.69468 0.0
C724 C 0.14556 0.42962 0.69879 0.0
C725 C 0.14122 0.43059 0.68042 0.0
H726 H 0.13913 0.41594 0.65558 0.0
H727 H 0.15589 0.38514 0.70009 0.0
C728 C 0.19453 0.32724 0.67218 0.0
N729 N 0.17827 0.33241 0.67847 0.0
C730 C 0.20536 0.31589 0.68236 0.0
C731 C 0.18281 0.316 0.70562 0.0
C732 C 0.17237 0.32722 0.69492 0.0
C733 C 0.19953 0.31009 0.69935 0.0
H734 H 0.1991 0.33197 0.65925 0.0
H735 H 0.15966 0.33199 0.69987 0.0
C736 C 0.13557 0.38323 0.62261 0.0
N737 N 0.13121 0.39664 0.58834 0.0
C738 C 0.12395 0.37471 0.61062 0.0
C739 C 0.14487 0.39863 0.61725 0.0
C740 C 0.12194 0.3817 0.59333 0.0
C741 C 0.14252 0.40517 0.59984 0.0
C742 C 0.16451 0.32302 0.6386 0.0
C743 C 0.17995 0.32128 0.62815 0.0
C744 C 0.15773 0.30811 0.64777 0.0
C745 C 0.18847 0.30464 0.62721 0.0
C746 C 0.16665 0.29171 0.6465 0.0
N747 N 0.18171 0.29033 0.63635 0.0
C748 C 0.19243 0.37543 0.61552 0.0
C749 C 0.16912 0.3628 0.59801 0.0
C750 C 0.20355 0.37654 0.60049 0.0
N751 N 0.17561 0.36857 0.61408 0.0
C752 C 0.17974 0.36385 0.58256 0.0
C753 C 0.19732 0.37054 0.58375 0.0
H754 H 0.19745 0.37955 0.62847 0.0
H755 H 0.15591 0.35688 0.59729 0.0
C756 C 0.09734 0.34443 0.65333 0.0
N757 N 0.11275 0.33925 0.64514 0.0
C758 C 0.08191 0.3338 0.6521 0.0
C759 C 0.09796 0.31365 0.63256 0.0
C760 C 0.11317 0.32444 0.63453 0.0
C761 C 0.08211 0.31793 0.64183 0.0
H762 H 0.09717 0.35649 0.66136 0.0
H763 H 0.12546 0.32078 0.62781 0.0
O764 O 0.17584 0.3707 0.65768 0.0
O765 O 0.14169 0.35607 0.67533 0.0
O766 O 0.13788 0.37648 0.6395 0.0
O767 O 0.15612 0.33926 0.6399 0.0
H768 H 0.19077 0.36635 0.68961 0.0
H769 H 0.18116 0.40418 0.647 0.0
H770 H 0.20652 0.39031 0.70656 0.0
H771 H 0.19703 0.4275 0.66474 0.0
H772 H 0.10583 0.31334 0.70016 0.0
H773 H 0.11851 0.37779 0.69112 0.0
H774 H 0.13221 0.32243 0.68204 0.0
H775 H 0.09246 0.36772 0.70919 0.0
H776 H 0.15464 0.41153 0.71979 0.0
H777 H 0.13686 0.44307 0.67441 0.0
H778 H 0.21809 0.31163 0.67691 0.0
H779 H 0.17795 0.31226 0.7188 0.0
H780 H 0.11666 0.36278 0.61458 0.0
H781 H 0.15395 0.40534 0.62638 0.0
H782 H 0.11305 0.37521 0.58388 0.0
H783 H 0.14972 0.41701 0.59545 0.0
H784 H 0.1854 0.33269 0.62098 0.0
H785 H 0.14576 0.30922 0.65585 0.0
H786 H 0.20048 0.30311 0.61925 0.0
H787 H 0.16161 0.28008 0.65361 0.0
H788 H 0.21697 0.38188 0.60199 0.0
H789 H 0.1745 0.35885 0.56997 0.0
H790 H 0.0702 0.33776 0.65964 0.0
H791 H 0.09875 0.30197 0.62397 0.0
Li792 Li 0.63509 0.16347 0.36341 0.0
Li793 Li 0.6645 0.16469 0.34873 0.0
Li794 Li 0.6488 0.13625 0.35088 0.0
Li795 Li 0.66199 0.15099 0.37762 0.0
C796 C 0.62585 0.1548 0.32854 0.0
N797 N 0.59484 0.14805 0.30949 0.0
C798 C 0.62366 0.16192 0.31134 0.0
C799 C 0.6123 0.14422 0.33606 0.0
C800 C 0.60788 0.15835 0.30192 0.0
C801 C 0.59671 0.14098 0.32621 0.0
C802 C 0.66026 0.18622 0.38623 0.0
C803 C 0.68087 0.20091 0.40642 0.0
N804 N 0.66691 0.20575 0.41706 0.0
C805 C 0.64611 0.19142 0.39734 0.0
C806 C 0.67778 0.1911 0.39075 0.0
C807 C 0.64975 0.20127 0.41287 0.0
C808 C 0.59864 0.17067 0.37434 0.0
N809 N 0.6135 0.17697 0.36584 0.0
C810 C 0.59883 0.20465 0.3591 0.0
C811 C 0.61382 0.19355 0.35824 0.0
C812 C 0.58324 0.19864 0.36785 0.0
C813 C 0.58326 0.18134 0.37548 0.0
H814 H 0.59874 0.1574 0.38022 0.0
H815 H 0.62581 0.19813 0.35146 0.0
C816 C 0.68289 0.1727 0.31664 0.0
N817 N 0.67898 0.17889 0.33332 0.0
C818 C 0.69384 0.18272 0.3052 0.0
C819 C 0.69615 0.20548 0.32821 0.0
C820 C 0.68521 0.19499 0.33921 0.0
C821 C 0.70067 0.19935 0.31097 0.0
H822 H 0.67761 0.15987 0.3123 0.0
H823 H 0.68163 0.19971 0.35242 0.0
C824 C 0.63688 0.12375 0.38467 0.0
N825 N 0.63582 0.09182 0.40355 0.0
C826 C 0.65199 0.11272 0.38535 0.0
C827 C 0.62126 0.11855 0.39362 0.0
C828 C 0.65117 0.09663 0.39497 0.0
C829 C 0.62098 0.10235 0.40307 0.0
C830 C 0.69104 0.14188 0.34894 0.0
C831 C 0.69547 0.13093 0.3344 0.0
C832 C 0.70377 0.15384 0.35577 0.0
C833 C 0.71247 0.1324 0.3267 0.0
C834 C 0.72061 0.15494 0.34769 0.0
N835 N 0.72457 0.1443 0.33342 0.0
C836 C 0.65018 0.11595 0.31974 0.0
C837 C 0.63715 0.09933 0.34349 0.0
C838 C 0.64879 0.10123 0.30823 0.0
N839 N 0.64469 0.11472 0.33709 0.0
C840 C 0.63558 0.0842 0.33245 0.0
C841 C 0.64159 0.08498 0.31457 0.0
H842 H 0.65594 0.12839 0.3149 0.0
H843 H 0.63235 0.09868 0.35713 0.0
C844 C 0.66873 0.15401 0.41568 0.0
N845 N 0.67479 0.14724 0.39987 0.0
C846 C 0.67931 0.15304 0.43116 0.0
C847 C 0.70141 0.13667 0.41423 0.0
C848 C 0.69059 0.13827 0.39905 0.0
C849 C 0.69611 0.14454 0.43054 0.0
H850 H 0.6559 0.16063 0.41621 0.0
H851 H 0.69494 0.13248 0.38651 0.0
O852 O 0.64128 0.15816 0.33786 0.0
O853 O 0.65697 0.17658 0.37094 0.0
O854 O 0.63734 0.1397 0.37557 0.0
O855 O 0.67432 0.14095 0.35643 0.0
H856 H 0.63407 0.1701 0.30533 0.0
H857 H 0.61377 0.13855 0.34933 0.0
H858 H 0.60599 0.16378 0.28859 0.0
H859 H 0.58611 0.13282 0.33187 0.0
H860 H 0.69438 0.20467 0.41012 0.0
H861 H 0.63248 0.18774 0.39417 0.0
H862 H 0.68891 0.18727 0.38233 0.0
H863 H 0.63894 0.2053 0.42162 0.0
H864 H 0.59937 0.21772 0.35276 0.0
H865 H 0.57161 0.1762 0.38246 0.0
H866 H 0.69711 0.1774 0.29209 0.0
H867 H 0.70082 0.21836 0.33308 0.0
H868 H 0.66415 0.11639 0.37843 0.0
H869 H 0.60948 0.12696 0.39326 0.0
H870 H 0.66274 0.08796 0.39558 0.0
H871 H 0.60897 0.09816 0.41004 0.0
H872 H 0.68593 0.12139 0.3291 0.0
H873 H 0.70061 0.16232 0.36708 0.0
H874 H 0.71605 0.12407 0.31537 0.0
H875 H 0.73052 0.16426 0.35275 0.0
H876 H 0.65372 0.10245 0.29462 0.0
H877 H 0.62964 0.07206 0.33782 0.0
H878 H 0.67453 0.15939 0.4433 0.0
H879 H 0.71388 0.12939 0.4131 0.0
Li880 Li 0.63544 0.66281 0.64994 0.0
Li881 Li 0.66321 0.66475 0.66619 0.0
Li882 Li 0.66351 0.65181 0.6363 0.0
Li883 Li 0.64998 0.63512 0.66281 0.0
C884 C 0.65469 0.6946 0.64389 0.0
N885 N 0.64904 0.7312 0.64522 0.0
C886 C 0.64742 0.70242 0.65926 0.0
C887 C 0.65914 0.70539 0.62919 0.0
C888 C 0.64465 0.72095 0.65968 0.0
C889 C 0.65616 0.72387 0.63012 0.0
C890 C 0.63561 0.65853 0.69288 0.0
C891 C 0.63671 0.6487 0.72372 0.0
N892 N 0.62681 0.66319 0.72861 0.0
C893 C 0.62531 0.67324 0.69821 0.0
C894 C 0.64124 0.64608 0.70573 0.0
C895 C 0.62107 0.6754 0.71633 0.0
C896 C 0.59927 0.67205 0.65716 0.0
N897 N 0.61315 0.67495 0.64571 0.0
C898 C 0.59683 0.69824 0.63087 0.0
C899 C 0.61202 0.68745 0.63244 0.0
C900 C 0.58256 0.69609 0.64298 0.0
C901 C 0.58376 0.6825 0.65602 0.0
H902 H 0.60048 0.66204 0.6676 0.0
H903 H 0.62313 0.68945 0.62337 0.0
C904 C 0.68983 0.69049 0.6729 0.0
N905 N 0.67765 0.67986 0.68139 0.0
C906 C 0.70123 0.70163 0.68274 0.0
C907 C 0.68746 0.69066 0.70995 0.0
C908 C 0.67636 0.67972 0.69959 0.0
C909 C 0.70013 0.70181 0.70155 0.0
H910 H 0.69083 0.69014 0.65843 0.0
H911 H 0.66695 0.67101 0.70619 0.0
C912 C 0.63083 0.6387 0.62176 0.0
N913 N 0.61299 0.6384 0.5893 0.0
C914 C 0.61921 0.62459 0.61756 0.0
C915 C 0.63338 0.65267 0.60948 0.0
C916 C 0.61032 0.62468 0.60107 0.0
C917 C 0.62423 0.65227 0.59314 0.0
C918 C 0.69111 0.64391 0.66708 0.0
C919 C 0.7062 0.65056 0.65816 0.0
C920 C 0.69222 0.63962 0.68531 0.0
C921 C 0.72212 0.653 0.66769 0.0
C922 C 0.70839 0.64226 0.69437 0.0
N923 N 0.72287 0.64886 0.68545 0.0
C924 C 0.68866 0.66365 0.61104 0.0
C925 C 0.67609 0.63536 0.60372 0.0
C926 C 0.69954 0.66317 0.59581 0.0
N927 N 0.67729 0.64986 0.61474 0.0
C928 C 0.68665 0.63438 0.58822 0.0
C929 C 0.69867 0.6484 0.58409 0.0
H930 H 0.68946 0.67494 0.62013 0.0
H931 H 0.66692 0.62457 0.60696 0.0
C932 C 0.63049 0.60719 0.68076 0.0
N933 N 0.64674 0.61229 0.67424 0.0
C934 C 0.62889 0.5917 0.69132 0.0
C935 C 0.66067 0.58683 0.68787 0.0
C936 C 0.66162 0.60225 0.67724 0.0
C937 C 0.64421 0.58153 0.69533 0.0
H938 H 0.61891 0.61554 0.67834 0.0
H939 H 0.67437 0.60654 0.67186 0.0
O940 O 0.65737 0.67646 0.64309 0.0
O941 O 0.63964 0.65604 0.67513 0.0
O942 O 0.63955 0.63884 0.63789 0.0
O943 O 0.67524 0.64197 0.65811 0.0
H944 H 0.64404 0.69428 0.67076 0.0
H945 H 0.66472 0.69952 0.61715 0.0
H946 H 0.63903 0.72717 0.67151 0.0
H947 H 0.6595 0.73238 0.61883 0.0
H948 H 0.64109 0.63923 0.73381 0.0
H949 H 0.62055 0.68288 0.68848 0.0
H950 H 0.64925 0.63465 0.70196 0.0
H951 H 0.61316 0.68675 0.72063 0.0
H952 H 0.59637 0.70832 0.6204 0.0
H953 H 0.57315 0.68042 0.66571 0.0
H954 H 0.71099 0.70978 0.67569 0.0
H955 H 0.68602 0.69047 0.72441 0.0
H956 H 0.61709 0.6137 0.62695 0.0
H957 H 0.6423 0.66371 0.61251 0.0
H958 H 0.60128 0.61384 0.59762 0.0
H959 H 0.62607 0.663 0.58351 0.0
H960 H 0.70558 0.65395 0.64407 0.0
H961 H 0.68066 0.63457 0.69245 0.0
H962 H 0.73387 0.65823 0.66098 0.0
H963 H 0.70939 0.63915 0.70851 0.0
H964 H 0.70878 0.67415 0.59347 0.0
H965 H 0.6853 0.62283 0.57952 0.0
H966 H 0.61597 0.58813 0.69691 0.0
H967 H 0.67275 0.57924 0.69042 0.0
Li968 Li 0.65069 0.37752 0.85081 0.0
Li969 Li 0.66155 0.36199 0.87808 0.0
Li970 Li 0.66521 0.34864 0.84804 0.0
Li971 Li 0.63563 0.35017 0.86238 0.0
C972 C 0.69289 0.3704 0.85196 0.0
N973 N 0.72794 0.367 0.84064 0.0
C974 C 0.70644 0.36678 0.86437 0.0
C975 C 0.69718 0.37239 0.83381 0.0
C976 C 0.72408 0.3651 0.85837 0.0
C977 C 0.71498 0.37058 0.82834 0.0
C978 C 0.6363 0.38407 0.8892 0.0
C979 C 0.6308 0.38647 0.92098 0.0
N980 N 0.63452 0.40434 0.92015 0.0
C981 C 0.63999 0.40246 0.88863 0.0
C982 C 0.63157 0.37599 0.90546 0.0
C983 C 0.63904 0.41248 0.90444 0.0
C984 C 0.63117 0.40661 0.8347 0.0
N985 N 0.64772 0.40016 0.83869 0.0
C986 C 0.66154 0.42438 0.82271 0.0
C987 C 0.66276 0.40891 0.83323 0.0
C988 C 0.64465 0.43104 0.81777 0.0
C989 C 0.62932 0.42203 0.82411 0.0
H990 H 0.6194 0.39952 0.83937 0.0
H991 H 0.67576 0.4037 0.83673 0.0
C992 C 0.67831 0.3491 0.9094 0.0
N993 N 0.67367 0.36445 0.9007 0.0
C994 C 0.68898 0.34976 0.92477 0.0
C995 C 0.68968 0.38208 0.92229 0.0
C996 C 0.67912 0.38078 0.90682 0.0
C997 C 0.69499 0.36639 0.93132 0.0
H998 H 0.67421 0.33625 0.90408 0.0
H999 H 0.67577 0.39276 0.89938 0.0
C1000 C 0.63372 0.36307 0.82298 0.0
N1001 N 0.61608 0.37877 0.79445 0.0
C1002 C 0.61504 0.36416 0.82298 0.0
C1003 C 0.64342 0.36986 0.80842 0.0
C1004 C 0.60637 0.37215 0.80842 0.0
C1005 C 0.63426 0.3778 0.79415 0.0
C1006 C 0.65074 0.32081 0.87555 0.0
C1007 C 0.6529 0.3059 0.86439 0.0
C1008 C 0.64125 0.31906 0.89162 0.0
C1009 C 0.64533 0.28948 0.86944 0.0
C1010 C 0.63386 0.30242 0.89617 0.0
N1011 N 0.63603 0.2881 0.88507 0.0
C1012 C 0.69536 0.32702 0.84036 0.0
C1013 C 0.67456 0.33002 0.81656 0.0
C1014 C 0.70633 0.3162 0.82978 0.0
N1015 N 0.67997 0.33388 0.83351 0.0
C1016 C 0.68498 0.31907 0.80558 0.0
C1017 C 0.7012 0.31207 0.8121 0.0
H1018 H 0.69914 0.33002 0.85404 0.0
H1019 H 0.66204 0.33527 0.81161 0.0
C1020 C 0.60045 0.34103 0.87591 0.0
N1021 N 0.61367 0.3369 0.8641 0.0
C1022 C 0.58496 0.3304 0.87684 0.0
C1023 C 0.59712 0.31149 0.85356 0.0
C1024 C 0.61216 0.32262 0.85288 0.0
C1025 C 0.58314 0.31527 0.86563 0.0
H1026 H 0.60193 0.35255 0.88462 0.0
H1027 H 0.62285 0.3197 0.84355 0.0
O1028 O 0.6755 0.37189 0.85754 0.0
O1029 O 0.63733 0.37401 0.87392 0.0
O1030 O 0.64247 0.35556 0.83722 0.0
O1031 O 0.65772 0.33709 0.87067 0.0
H1032 H 0.70339 0.36516 0.87846 0.0
H1033 H 0.68685 0.37506 0.824 0.0
H1034 H 0.73469 0.36224 0.86782 0.0
H1035 H 0.71847 0.37196 0.81432 0.0
H1036 H 0.62726 0.38039 0.93369 0.0
H1037 H 0.64367 0.4089 0.87613 0.0
H1038 H 0.62866 0.36177 0.9061 0.0
H1039 H 0.64193 0.42671 0.90422 0.0
H1040 H 0.67374 0.43074 0.81805 0.0
H1041 H 0.61603 0.42681 0.82087 0.0
H1042 H 0.69265 0.33734 0.93136 0.0
H1043 H 0.69423 0.39516 0.92673 0.0
H1044 H 0.60732 0.35905 0.83417 0.0
H1045 H 0.65789 0.3692 0.80826 0.0
H1046 H 0.59193 0.37316 0.80827 0.0
H1047 H 0.6416 0.38323 0.78286 0.0
H1048 H 0.66018 0.30703 0.85189 0.0
H1049 H 0.63945 0.33048 0.90038 0.0
H1050 H 0.6468 0.27784 0.8609 0.0
H1051 H 0.62637 0.30089 0.9085 0.0
H1052 H 0.71876 0.31128 0.83537 0.0
H1053 H 0.68022 0.31591 0.79223 0.0
H1054 H 0.5745 0.33412 0.88616 0.0
H1055 H 0.59668 0.29986 0.84488 0.0
Li1056 Li 0.35007 0.1497 0.87623 0.0
Li1057 Li 0.3631 0.13575 0.85035 0.0
Li1058 Li 0.37718 0.16251 0.8637 0.0
Li1059 Li 0.34831 0.16452 0.84758 0.0
C1060 C 0.37447 0.12174 0.88286 0.0
N1061 N 0.37497 0.08834 0.899 0.0
C1062 C 0.35883 0.11143 0.8838 0.0
C1063 C 0.39036 0.11507 0.89012 0.0
C1064 C 0.35936 0.09458 0.89202 0.0
C1065 C 0.39034 0.09815 0.89823 0.0
C1066 C 0.32698 0.13518 0.84086 0.0
C1067 C 0.32226 0.12922 0.80941 0.0
N1068 N 0.3057 0.12261 0.81325 0.0
C1069 C 0.30992 0.12834 0.8445 0.0
C1070 C 0.33321 0.13565 0.82318 0.0
C1071 C 0.29936 0.12205 0.83035 0.0
C1072 C 0.31854 0.15097 0.89618 0.0
N1073 N 0.33611 0.14654 0.89768 0.0
C1074 C 0.33234 0.14019 0.92894 0.0
C1075 C 0.34317 0.14123 0.91364 0.0
C1076 C 0.3141 0.14482 0.92785 0.0
C1077 C 0.30729 0.15027 0.91113 0.0
H1078 H 0.31335 0.15542 0.88338 0.0
H1079 H 0.35725 0.13803 0.91456 0.0
C1080 C 0.38056 0.11277 0.82551 0.0
N1081 N 0.36703 0.1136 0.83768 0.0
C1082 C 0.38241 0.09773 0.81444 0.0
C1083 C 0.35677 0.08437 0.82907 0.0
C1084 C 0.35533 0.09972 0.83974 0.0
C1085 C 0.37028 0.08334 0.816 0.0
H1086 H 0.38966 0.12399 0.82411 0.0
H1087 H 0.34445 0.10078 0.84924 0.0
C1088 C 0.35216 0.18298 0.88721 0.0
N1089 N 0.34549 0.19702 0.92085 0.0
C1090 C 0.33718 0.1938 0.89007 0.0
C1091 C 0.36379 0.17937 0.90144 0.0
C1092 C 0.33402 0.20075 0.90718 0.0
C1093 C 0.36019 0.18658 0.91835 0.0
C1094 C 0.37982 0.17085 0.82775 0.0
C1095 C 0.37724 0.18883 0.83247 0.0
C1096 C 0.39033 0.16668 0.81281 0.0
C1097 C 0.38525 0.20232 0.82218 0.0
C1098 C 0.3981 0.18056 0.80285 0.0
N1099 N 0.39543 0.19794 0.80771 0.0
C1100 C 0.41504 0.16796 0.86269 0.0
C1101 C 0.39826 0.19273 0.87326 0.0
C1102 C 0.43088 0.17804 0.86358 0.0
N1103 N 0.39915 0.17544 0.86746 0.0
C1104 C 0.41374 0.20319 0.87455 0.0
C1105 C 0.43033 0.19594 0.86953 0.0
H1106 H 0.41533 0.1543 0.85778 0.0
H1107 H 0.38545 0.19864 0.87636 0.0
C1108 C 0.31836 0.18585 0.83973 0.0
N1109 N 0.33336 0.17864 0.83241 0.0
C1110 C 0.30685 0.19625 0.82927 0.0
C1111 C 0.32618 0.19116 0.80378 0.0
C1112 C 0.33724 0.18079 0.8147 0.0
C1113 C 0.31081 0.19914 0.81107 0.0
H1114 H 0.31528 0.18341 0.85369 0.0
H1115 H 0.34881 0.17433 0.80895 0.0
O1116 O 0.37438 0.13826 0.87483 0.0
O1117 O 0.33739 0.14139 0.85464 0.0
O1118 O 0.35521 0.17555 0.87071 0.0
O1119 O 0.37233 0.15735 0.83775 0.0
H1120 H 0.34639 0.11636 0.87831 0.0
H1121 H 0.40258 0.1229 0.88948 0.0
H1122 H 0.34735 0.08646 0.89284 0.0
H1123 H 0.40255 0.09282 0.90391 0.0
H1124 H 0.32693 0.12949 0.79567 0.0
H1125 H 0.3049 0.1279 0.85812 0.0
H1126 H 0.34638 0.14086 0.82009 0.0
H1127 H 0.28613 0.11671 0.83297 0.0
H1128 H 0.33821 0.13575 0.94145 0.0
H1129 H 0.29347 0.15435 0.90963 0.0
H1130 H 0.39314 0.09742 0.80467 0.0
H1131 H 0.34698 0.07373 0.83058 0.0
H1132 H 0.32805 0.19679 0.87923 0.0
H1133 H 0.37535 0.17086 0.8995 0.0
H1134 H 0.32245 0.20909 0.9096 0.0
H1135 H 0.36902 0.1838 0.92951 0.0
H1136 H 0.36912 0.19239 0.84391 0.0
H1137 H 0.39246 0.15286 0.80893 0.0
H1138 H 0.38337 0.21627 0.8257 0.0
H1139 H 0.40626 0.17751 0.79126 0.0
H1140 H 0.4434 0.17193 0.85959 0.0
H1141 H 0.41264 0.21703 0.87884 0.0
H1142 H 0.2951 0.20213 0.8354 0.0
H1143 H 0.32948 0.19269 0.78971 0.0
Li1144 Li 0.36282 0.37841 0.35062 0.0
Li1145 Li 0.34997 0.3645 0.37757 0.0
Li1146 Li 0.37742 0.35093 0.36223 0.0
Li1147 Li 0.34753 0.34928 0.34912 0.0
C1148 C 0.38159 0.39063 0.38073 0.0
N1149 N 0.39537 0.42284 0.39297 0.0
C1150 C 0.37023 0.40512 0.38397 0.0
C1151 C 0.39999 0.39253 0.38363 0.0
C1152 C 0.37744 0.42129 0.39017 0.0
C1153 C 0.40669 0.40892 0.38985 0.0
C1154 C 0.32293 0.38258 0.36107 0.0
C1155 C 0.29324 0.38426 0.37374 0.0
N1156 N 0.29387 0.40247 0.37245 0.0
C1157 C 0.32324 0.40132 0.35982 0.0
C1158 C 0.30777 0.37398 0.36801 0.0
C1159 C 0.30843 0.41112 0.36566 0.0
C1160 C 0.3547 0.40138 0.3227 0.0
N1161 N 0.36633 0.39986 0.33662 0.0
C1162 C 0.38049 0.42754 0.32829 0.0
C1163 C 0.37932 0.41241 0.33941 0.0
C1164 C 0.36837 0.42966 0.31398 0.0
C1165 C 0.35547 0.41616 0.3112 0.0
H1166 H 0.34474 0.39103 0.32055 0.0
H1167 H 0.38883 0.41073 0.35017 0.0
C1168 C 0.33661 0.35305 0.41123 0.0
N1169 N 0.33791 0.36771 0.4004 0.0
C1170 C 0.32623 0.35357 0.42685 0.0
C1171 C 0.31918 0.38449 0.42035 0.0
C1172 C 0.32982 0.38342 0.40496 0.0
C1173 C 0.31701 0.36934 0.43138 0.0
H1174 H 0.34326 0.34074 0.4075 0.0
H1175 H 0.33103 0.39501 0.3964 0.0
C1176 C 0.38464 0.36019 0.32671 0.0
N1177 N 0.41376 0.36802 0.30521 0.0
C1178 C 0.38478 0.35484 0.30875 0.0
C1179 C 0.39931 0.36951 0.33375 0.0
C1180 C 0.39964 0.35892 0.29809 0.0
C1181 C 0.4139 0.37334 0.32266 0.0
C1182 C 0.34727 0.32263 0.37159 0.0
C1183 C 0.35671 0.30726 0.36659 0.0
C1184 C 0.329 0.32136 0.37546 0.0
C1185 C 0.34763 0.29088 0.36529 0.0
C1186 C 0.3204 0.30475 0.37398 0.0
N1187 N 0.32981 0.28999 0.36896 0.0
C1188 C 0.4106 0.33947 0.37851 0.0
C1189 C 0.4022 0.32514 0.35141 0.0
C1190 C 0.42593 0.32873 0.37974 0.0
N1191 N 0.39912 0.33746 0.36449 0.0
C1192 C 0.4172 0.31403 0.3522 0.0
C1193 C 0.42927 0.31566 0.36655 0.0
H1194 H 0.40774 0.34922 0.38885 0.0
H1195 H 0.39281 0.32375 0.34045 0.0
C1196 C 0.31536 0.33723 0.33255 0.0
N1197 N 0.33321 0.33426 0.33433 0.0
C1198 C 0.30494 0.32591 0.32188 0.0
C1199 C 0.33154 0.30892 0.31478 0.0
C1200 C 0.34144 0.32055 0.32562 0.0
C1201 C 0.31302 0.3115 0.31285 0.0
H1202 H 0.30922 0.34841 0.33935 0.0
H1203 H 0.3557 0.31861 0.32722 0.0
O1204 O 0.37482 0.37473 0.37452 0.0
O1205 O 0.3373 0.37274 0.35536 0.0
O1206 O 0.37014 0.35636 0.33725 0.0
O1207 O 0.3558 0.3389 0.37243 0.0
H1208 H 0.35608 0.40401 0.38135 0.0
H1209 H 0.40901 0.38151 0.38102 0.0
H1210 H 0.36879 0.43264 0.39266 0.0
H1211 H 0.4209 0.41058 0.39215 0.0
H1212 H 0.28149 0.37777 0.37925 0.0
H1213 H 0.33483 0.40826 0.35457 0.0
H1214 H 0.30729 0.35954 0.36921 0.0
H1215 H 0.30853 0.42562 0.36483 0.0
H1216 H 0.39065 0.43755 0.33106 0.0
H1217 H 0.34613 0.41686 0.30011 0.0
H1218 H 0.32491 0.34154 0.43492 0.0
H1219 H 0.31256 0.39701 0.42349 0.0
H1220 H 0.3735 0.34762 0.30311 0.0
H1221 H 0.39942 0.37375 0.34761 0.0
H1222 H 0.39993 0.35487 0.28416 0.0
H1223 H 0.42533 0.38056 0.32793 0.0
H1224 H 0.37085 0.30796 0.36364 0.0
H1225 H 0.32152 0.3331 0.37941 0.0
H1226 H 0.35474 0.2789 0.36134 0.0
H1227 H 0.30624 0.30361 0.37681 0.0
H1228 H 0.43482 0.33032 0.39111 0.0
H1229 H 0.41935 0.3043 0.34164 0.0
H1230 H 0.29076 0.32858 0.3205 0.0
H1231 H 0.33828 0.29789 0.30817 0.0
Li1232 Li 0.34785 0.66489 0.16542 0.0
Li1233 Li 0.36121 0.63633 0.16176 0.0
Li1234 Li 0.37737 0.66242 0.15062 0.0
Li1235 Li 0.34932 0.65133 0.13589 0.0
C1236 C 0.37424 0.64888 0.19183 0.0
N1237 N 0.38088 0.63088 0.22359 0.0
C1238 C 0.36067 0.64685 0.20461 0.0
C1239 C 0.39118 0.64173 0.19522 0.0
C1240 C 0.3643 0.63774 0.22058 0.0
C1241 C 0.39427 0.63267 0.21134 0.0
C1242 C 0.32603 0.62827 0.15228 0.0
C1243 C 0.32321 0.59999 0.13679 0.0
N1244 N 0.30585 0.59881 0.14221 0.0
C1245 C 0.30817 0.6268 0.15767 0.0
C1246 C 0.33363 0.61477 0.14173 0.0
C1247 C 0.29819 0.6118 0.15245 0.0
C1248 C 0.31607 0.68229 0.17558 0.0
N1249 N 0.33351 0.67988 0.1801 0.0
C1250 C 0.33057 0.6997 0.20507 0.0
C1251 C 0.34092 0.68834 0.19445 0.0
C1252 C 0.31247 0.70251 0.20077 0.0
C1253 C 0.30525 0.69365 0.18575 0.0
H1254 H 0.31066 0.67554 0.16393 0.0
H1255 H 0.3549 0.68632 0.19759 0.0
C1256 C 0.37813 0.60303 0.17203 0.0
N1257 N 0.36347 0.61364 0.17393 0.0
C1258 C 0.37975 0.58725 0.18216 0.0
C1259 C 0.35112 0.59359 0.19578 0.0
C1260 C 0.35005 0.60915 0.18542 0.0
C1261 C 0.36614 0.58237 0.19431 0.0
H1262 H 0.38868 0.60697 0.16288 0.0
H1263 H 0.33867 0.61795 0.18694 0.0
C1264 C 0.35135 0.69367 0.14537 0.0
N1265 N 0.34142 0.72868 0.15237 0.0
C1266 C 0.33706 0.70139 0.1361 0.0
C1267 C 0.36071 0.70381 0.15809 0.0
C1268 C 0.33221 0.71909 0.13986 0.0
C1269 C 0.35545 0.72147 0.16146 0.0
C1270 C 0.38226 0.6392 0.12203 0.0
C1271 C 0.38185 0.65461 0.1113 0.0
C1272 C 0.3919 0.62421 0.11633 0.0
C1273 C 0.3911 0.65472 0.09501 0.0
C1274 C 0.40097 0.62486 0.09994 0.0
N1275 N 0.40039 0.63997 0.08972 0.0
C1276 C 0.41529 0.66871 0.15404 0.0
C1277 C 0.39923 0.69066 0.1377 0.0
C1278 C 0.43094 0.67908 0.15299 0.0
N1279 N 0.39973 0.67486 0.14685 0.0
C1280 C 0.41445 0.70152 0.13651 0.0
C1281 C 0.43049 0.69595 0.14455 0.0
H1282 H 0.41549 0.65596 0.16092 0.0
H1283 H 0.38688 0.6951 0.13165 0.0
C1284 C 0.31958 0.65774 0.11448 0.0
N1285 N 0.33552 0.649 0.11422 0.0
C1286 C 0.30807 0.65696 0.09975 0.0
C1287 C 0.32926 0.63765 0.08482 0.0
C1288 C 0.34041 0.63884 0.09988 0.0
C1289 C 0.31282 0.64684 0.08457 0.0
H1290 H 0.31574 0.66523 0.12628 0.0
H1291 H 0.35281 0.63144 0.10015 0.0
O1292 O 0.3708 0.65737 0.1759 0.0
O1293 O 0.33585 0.64299 0.15723 0.0
O1294 O 0.35602 0.67618 0.14229 0.0
O1295 O 0.37344 0.63868 0.13812 0.0
H1296 H 0.34735 0.65187 0.20207 0.0
H1297 H 0.40178 0.64294 0.18544 0.0
H1298 H 0.35389 0.63598 0.23052 0.0
H1299 H 0.4073 0.627 0.21409 0.0
H1300 H 0.32891 0.58945 0.12863 0.0
H1301 H 0.30209 0.63717 0.1658 0.0
H1302 H 0.3474 0.61566 0.13738 0.0
H1303 H 0.28435 0.61048 0.15653 0.0
H1304 H 0.33666 0.70604 0.21663 0.0
H1305 H 0.29147 0.69565 0.18173 0.0
H1306 H 0.39151 0.57896 0.18046 0.0
H1307 H 0.34047 0.59068 0.2052 0.0
H1308 H 0.32979 0.69385 0.12608 0.0
H1309 H 0.37172 0.698 0.1655 0.0
H1310 H 0.32113 0.72522 0.13282 0.0
H1311 H 0.36247 0.72942 0.17137 0.0
H1312 H 0.37439 0.66631 0.11537 0.0
H1313 H 0.39236 0.6122 0.1245 0.0
H1314 H 0.39088 0.66654 0.08657 0.0
H1315 H 0.40848 0.61334 0.09536 0.0
H1316 H 0.44307 0.67426 0.1593 0.0
H1317 H 0.41362 0.71424 0.12953 0.0
H1318 H 0.29563 0.66438 0.10021 0.0
H1319 H 0.33334 0.62936 0.07362 0.0
Li1320 Li 0.65074 0.87816 0.16259 0.0
Li1321 Li 0.6633 0.84787 0.16452 0.0
Li1322 Li 0.66194 0.86289 0.13531 0.0
Li1323 Li 0.63494 0.85066 0.14936 0.0
C1324 C 0.6867 0.88419 0.15301 0.0
N1325 N 0.70964 0.91197 0.14418 0.0
C1326 C 0.70493 0.88293 0.15698 0.0
C1327 C 0.68013 0.89955 0.14453 0.0
C1328 C 0.71632 0.89713 0.15242 0.0
C1329 C 0.69194 0.91346 0.14018 0.0
C1330 C 0.64141 0.84873 0.1914 0.0
C1331 C 0.63886 0.82251 0.21026 0.0
N1332 N 0.6448 0.83229 0.22448 0.0
C1333 C 0.64736 0.85855 0.20623 0.0
C1334 C 0.637 0.83059 0.19345 0.0
C1335 C 0.64902 0.84998 0.22283 0.0
C1336 C 0.63405 0.91091 0.17441 0.0
N1337 N 0.64865 0.90014 0.17579 0.0
C1338 C 0.66134 0.91932 0.1982 0.0
C1339 C 0.66221 0.90411 0.18731 0.0
C1340 C 0.64635 0.93064 0.19728 0.0
C1341 C 0.63266 0.92637 0.18503 0.0
H1342 H 0.62335 0.90734 0.16529 0.0
H1343 H 0.67361 0.89525 0.18827 0.0
C1344 C 0.67837 0.81532 0.17745 0.0
N1345 N 0.67785 0.83342 0.1796 0.0
C1346 C 0.68874 0.80478 0.18889 0.0
C1347 C 0.69822 0.83176 0.20425 0.0
C1348 C 0.68759 0.84177 0.19256 0.0
C1349 C 0.69881 0.813 0.20253 0.0
H1350 H 0.67078 0.80906 0.16686 0.0
H1351 H 0.68695 0.85622 0.19389 0.0
C1352 C 0.63309 0.8826 0.1229 0.0
N1353 N 0.62279 0.89732 0.09049 0.0
C1354 C 0.63003 0.87154 0.10809 0.0
C1355 C 0.63093 0.90116 0.12124 0.0
C1356 C 0.62484 0.87923 0.09181 0.0
C1357 C 0.6257 0.90834 0.10474 0.0
C1358 C 0.65035 0.82297 0.13177 0.0
C1359 C 0.65136 0.82268 0.11304 0.0
C1360 C 0.64281 0.80834 0.14085 0.0
C1361 C 0.64479 0.80779 0.10371 0.0
C1362 C 0.63636 0.79372 0.13104 0.0
N1363 N 0.63747 0.79375 0.11283 0.0
C1364 C 0.68853 0.85321 0.11126 0.0
C1365 C 0.67463 0.88035 0.10248 0.0
C1366 C 0.70011 0.85404 0.09658 0.0
N1367 N 0.67596 0.86611 0.11385 0.0
C1368 C 0.68594 0.8817 0.08755 0.0
C1369 C 0.69893 0.86842 0.08444 0.0
H1370 H 0.68954 0.8422 0.12068 0.0
H1371 H 0.66505 0.89084 0.1051 0.0
C1372 C 0.60134 0.83743 0.16101 0.0
N1373 N 0.61195 0.83899 0.14624 0.0
C1374 C 0.58574 0.82701 0.16048 0.0
C1375 C 0.59179 0.8205 0.12935 0.0
C1376 C 0.60712 0.83126 0.1304 0.0
C1377 C 0.58106 0.818 0.14461 0.0
H1378 H 0.60527 0.84383 0.17341 0.0
H1379 H 0.61549 0.83279 0.11872 0.0
O1380 O 0.67544 0.87031 0.15722 0.0
O1381 O 0.64025 0.85672 0.17491 0.0
O1382 O 0.63831 0.87536 0.13892 0.0
O1383 O 0.65678 0.83742 0.14115 0.0
H1384 H 0.71021 0.87108 0.16351 0.0
H1385 H 0.66607 0.90071 0.1413 0.0
H1386 H 0.73046 0.89635 0.15541 0.0
H1387 H 0.68704 0.92542 0.13359 0.0
H1388 H 0.63562 0.80845 0.21199 0.0
H1389 H 0.6508 0.87258 0.20492 0.0
H1390 H 0.63236 0.82279 0.18213 0.0
H1391 H 0.65371 0.8574 0.23439 0.0
H1392 H 0.67231 0.92217 0.20726 0.0
H1393 H 0.62079 0.93461 0.18399 0.0
H1394 H 0.68906 0.79038 0.18693 0.0
H1395 H 0.7057 0.8386 0.21467 0.0
H1396 H 0.63198 0.85723 0.10906 0.0
H1397 H 0.63332 0.90993 0.13256 0.0
H1398 H 0.62252 0.87082 0.08021 0.0
H1399 H 0.62399 0.92268 0.10325 0.0
H1400 H 0.65696 0.83388 0.10571 0.0
H1401 H 0.64165 0.80838 0.1553 0.0
H1402 H 0.64544 0.80743 0.08922 0.0
H1403 H 0.63038 0.78239 0.1379 0.0
H1404 H 0.70979 0.84342 0.09469 0.0
H1405 H 0.68478 0.89321 0.07874 0.0
H1406 H 0.57782 0.82543 0.17256 0.0
H1407 H 0.58851 0.81398 0.11678 0.0
H1408 H 0.23716 0.21159 0.19333 0.0
H1409 H 0.25595 0.23068 0.21236 0.0
H1410 H 0.21604 0.22843 0.25416 0.0
H1411 H 0.19707 0.20958 0.23509 0.0
H1412 H 0.2285 0.26268 0.24826 0.0
H1413 H 0.253 0.20389 0.25792 0.0
H1414 H 0.26582 0.17483 0.2488 0.0
H1415 H 0.31012 0.20206 0.22397 0.0
H1416 H 0.29741 0.23131 0.23272 0.0
H1417 H 0.27993 0.29745 0.32001 0.0
H1418 H 0.26179 0.27797 0.30085 0.0
H1419 H 0.30341 0.27849 0.26071 0.0
H1420 H 0.32164 0.29801 0.27982 0.0
H1421 H 0.29025 0.24521 0.26538 0.0
H1422 H 0.26613 0.30388 0.25553 0.0
H1423 H 0.25341 0.33312 0.26417 0.0
H1424 H 0.20856 0.3065 0.28865 0.0
H1425 H 0.22115 0.27706 0.28038 0.0
C1426 C 0.23237 0.21524 0.20654 0.0
C1427 C 0.21568 0.20906 0.21275 0.0
C1428 C 0.24316 0.22602 0.21744 0.0
C1429 C 0.23743 0.23083 0.23471 0.0
C1430 C 0.22071 0.22482 0.24088 0.0
C1431 C 0.20997 0.21395 0.23004 0.0
C1432 C 0.24879 0.2423 0.2463 0.0
C1433 C 0.24192 0.25877 0.25221 0.0
C1434 C 0.26645 0.23737 0.25103 0.0
C1435 C 0.27416 0.2198 0.24582 0.0
C1436 C 0.2654 0.20369 0.25039 0.0
C1437 C 0.27266 0.18718 0.24531 0.0
C1438 C 0.28875 0.1866 0.23577 0.0
C1439 C 0.29764 0.20253 0.23134 0.0
C1440 C 0.29042 0.21908 0.23636 0.0
C1441 C 0.28517 0.29352 0.30705 0.0
C1442 C 0.30217 0.29935 0.30138 0.0
C1443 C 0.2748 0.28237 0.29613 0.0
C1444 C 0.28116 0.27697 0.27926 0.0
C1445 C 0.29826 0.2825 0.27368 0.0
C1446 C 0.30866 0.29361 0.28463 0.0
C1447 C 0.26994 0.26559 0.26741 0.0
C1448 C 0.27684 0.24914 0.26143 0.0
C1449 C 0.25232 0.27057 0.26255 0.0
C1450 C 0.24468 0.28826 0.26749 0.0
C1451 C 0.25363 0.30425 0.26288 0.0
C1452 C 0.24643 0.32086 0.26769 0.0
C1453 C 0.23021 0.32167 0.27699 0.0
C1454 C 0.22113 0.30585 0.28147 0.0
C1455 C 0.22829 0.2892 0.27671 0.0
H1456 H 0.22465 0.33454 0.2807 0.0
H1457 H 0.29435 0.17381 0.23185 0.0
H1458 H 0.78315 0.29127 0.18895 0.0
H1459 H 0.76421 0.27197 0.20757 0.0
H1460 H 0.79654 0.28474 0.25384 0.0
H1461 H 0.8156 0.30396 0.23524 0.0
H1462 H 0.78951 0.24972 0.25263 0.0
H1463 H 0.75524 0.30394 0.24732 0.0
H1464 H 0.74022 0.32859 0.23123 0.0
H1465 H 0.70596 0.29061 0.20467 0.0
H1466 H 0.72096 0.2657 0.22043 0.0
H1467 H 0.73052 0.21859 0.3203 0.0
H1468 H 0.74934 0.23716 0.30092 0.0
H1469 H 0.71659 0.22305 0.25536 0.0
H1470 H 0.69726 0.20498 0.2748 0.0
H1471 H 0.72374 0.2583 0.25575 0.0
H1472 H 0.75778 0.20407 0.26167 0.0
H1473 H 0.77278 0.17959 0.27804 0.0
H1474 H 0.80745 0.21777 0.30375 0.0
H1475 H 0.79249 0.24252 0.28771 0.0
C1476 C 0.78613 0.29007 0.20312 0.0
C1477 C 0.80082 0.29917 0.21065 0.0
C1478 C 0.77531 0.27903 0.21374 0.0
C1479 C 0.77884 0.27708 0.23214 0.0
C1480 C 0.79359 0.28603 0.23966 0.0
C1481 C 0.80448 0.29698 0.22902 0.0
C1482 C 0.76722 0.26561 0.24356 0.0
C1483 C 0.77516 0.25174 0.25349 0.0
C1484 C 0.74844 0.26798 0.24435 0.0
C1485 C 0.73934 0.28295 0.23493 0.0
C1486 C 0.7446 0.30084 0.23795 0.0
C1487 C 0.73607 0.31486 0.2289 0.0
C1488 C 0.72218 0.31117 0.2169 0.0
C1489 C 0.71675 0.29345 0.21395 0.0
C1490 C 0.72524 0.27937 0.22295 0.0
C1491 C 0.72722 0.21954 0.30618 0.0
C1492 C 0.71238 0.21029 0.2991 0.0
C1493 C 0.73811 0.23002 0.29509 0.0
C1494 C 0.7345 0.23131 0.27665 0.0
C1495 C 0.71966 0.22217 0.26954 0.0
C1496 C 0.70873 0.21172 0.28064 0.0
C1497 C 0.74603 0.24245 0.26485 0.0
C1498 C 0.73809 0.25626 0.25485 0.0
C1499 C 0.76481 0.24005 0.26403 0.0
C1500 C 0.7739 0.22517 0.2736 0.0
C1501 C 0.76852 0.20726 0.27091 0.0
C1502 C 0.77702 0.19333 0.28011 0.0
C1503 C 0.79103 0.19712 0.29196 0.0
C1504 C 0.79659 0.21485 0.29458 0.0
C1505 C 0.78811 0.22884 0.28543 0.0
H1506 H 0.7976 0.18632 0.29907 0.0
H1507 H 0.71559 0.32204 0.20991 0.0
H1508 H 0.27732 0.69793 0.21039 0.0
H1509 H 0.25891 0.71772 0.22883 0.0
H1510 H 0.30369 0.75378 0.2354 0.0
H1511 H 0.32209 0.73437 0.21653 0.0
H1512 H 0.28605 0.74573 0.26758 0.0
H1513 H 0.27164 0.76541 0.20788 0.0
H1514 H 0.26201 0.76146 0.17649 0.0
H1515 H 0.2115 0.74037 0.19437 0.0
H1516 H 0.22094 0.74395 0.22589 0.0
H1517 H 0.23803 0.81804 0.30645 0.0
H1518 H 0.2571 0.79945 0.28734 0.0
H1519 H 0.2115 0.76648 0.27362 0.0
H1520 H 0.19235 0.78527 0.29241 0.0
H1521 H 0.23013 0.77334 0.24475 0.0
H1522 H 0.24407 0.75259 0.30403 0.0
H1523 H 0.25333 0.75546 0.33565 0.0
H1524 H 0.30406 0.77712 0.3191 0.0
H1525 H 0.295 0.77461 0.28736 0.0
C1526 C 0.28321 0.71019 0.21552 0.0
C1527 C 0.3012 0.71456 0.21193 0.0
C1528 C 0.27269 0.72143 0.22614 0.0
C1529 C 0.27994 0.73723 0.23339 0.0
C1530 C 0.29788 0.7416 0.22996 0.0
C1531 C 0.30839 0.73044 0.21924 0.0
C1532 C 0.26881 0.74911 0.24469 0.0
C1533 C 0.27395 0.752 0.26255 0.0
C1534 C 0.25281 0.75685 0.23819 0.0
C1535 C 0.24707 0.75479 0.21925 0.0
C1536 C 0.25854 0.75979 0.20512 0.0
C1537 C 0.2531 0.75765 0.1873 0.0
C1538 C 0.23617 0.75063 0.18344 0.0
C1539 C 0.22462 0.74579 0.19739 0.0
C1540 C 0.23 0.74788 0.21523 0.0
C1541 C 0.23213 0.80674 0.29944 0.0
C1542 C 0.21374 0.80306 0.30092 0.0
C1543 C 0.24303 0.79612 0.28855 0.0
C1544 C 0.23578 0.78142 0.27921 0.0
C1545 C 0.21738 0.77777 0.28066 0.0
C1546 C 0.20646 0.7885 0.29139 0.0
C1547 C 0.24728 0.76995 0.26776 0.0
C1548 C 0.24223 0.76713 0.24983 0.0
C1549 C 0.26328 0.76212 0.27425 0.0
C1550 C 0.26878 0.76358 0.29333 0.0
C1551 C 0.25715 0.7581 0.30713 0.0
C1552 C 0.26237 0.75963 0.32508 0.0
C1553 C 0.27925 0.76651 0.32938 0.0
C1554 C 0.29097 0.77182 0.31575 0.0
C1555 C 0.28581 0.77033 0.29778 0.0
H1556 H 0.28327 0.76769 0.34329 0.0
H1557 H 0.23199 0.74898 0.16963 0.0
H1558 H 0.77494 0.69895 0.30798 0.0
H1559 H 0.75563 0.71799 0.28945 0.0
H1560 H 0.80068 0.75224 0.27722 0.0
H1561 H 0.82006 0.73325 0.29574 0.0
H1562 H 0.76919 0.77102 0.28684 0.0
H1563 H 0.78805 0.72406 0.24681 0.0
H1564 H 0.79241 0.69268 0.23733 0.0
H1565 H 0.7357 0.68344 0.24007 0.0
H1566 H 0.73103 0.71472 0.24984 0.0
H1567 H 0.73308 0.81965 0.21356 0.0
H1568 H 0.75163 0.80121 0.23329 0.0
H1569 H 0.70829 0.76318 0.23889 0.0
H1570 H 0.68974 0.7815 0.21902 0.0
H1571 H 0.73867 0.74616 0.23316 0.0
H1572 H 0.71925 0.79265 0.27277 0.0
H1573 H 0.71429 0.82375 0.28286 0.0
H1574 H 0.77095 0.83365 0.28183 0.0
H1575 H 0.77623 0.80266 0.27149 0.0
C1576 C 0.78067 0.71062 0.30143 0.0
C1577 C 0.79898 0.71464 0.30324 0.0
C1578 C 0.76968 0.7214 0.2908 0.0
C1579 C 0.77679 0.73643 0.28192 0.0
C1580 C 0.79498 0.74067 0.28397 0.0
C1581 C 0.80602 0.72978 0.29443 0.0
C1582 C 0.76527 0.74765 0.27034 0.0
C1583 C 0.76267 0.76569 0.27497 0.0
C1584 C 0.75643 0.74048 0.25516 0.0
C1585 C 0.75921 0.72168 0.24925 0.0
C1586 C 0.77652 0.71529 0.24556 0.0
C1587 C 0.77905 0.69753 0.24009 0.0
C1588 C 0.76434 0.68606 0.23815 0.0
C1589 C 0.74708 0.69234 0.24161 0.0
C1590 C 0.74448 0.71008 0.2471 0.0
C1591 C 0.72745 0.80745 0.21915 0.0
C1592 C 0.70995 0.80203 0.21478 0.0
C1593 C 0.73806 0.79693 0.23042 0.0
C1594 C 0.73128 0.78091 0.23773 0.0
C1595 C 0.7138 0.77547 0.23338 0.0
C1596 C 0.70324 0.78592 0.22201 0.0
C1597 C 0.74254 0.76964 0.24962 0.0
C1598 C 0.74511 0.75155 0.24505 0.0
C1599 C 0.75124 0.77674 0.26494 0.0
C1600 C 0.74812 0.79538 0.27119 0.0
C1601 C 0.73064 0.8015 0.27456 0.0
C1602 C 0.72778 0.8191 0.28034 0.0
C1603 C 0.74229 0.83069 0.28294 0.0
C1604 C 0.75971 0.82467 0.27979 0.0
C1605 C 0.76265 0.80708 0.27398 0.0
H1606 H 0.74004 0.84431 0.28742 0.0
H1607 H 0.76633 0.67231 0.2339 0.0
H1608 H 0.31762 0.80287 0.73576 0.0
H1609 H 0.29825 0.78379 0.75416 0.0
H1610 H 0.26289 0.7761 0.70898 0.0
H1611 H 0.28201 0.79567 0.6907 0.0
H1612 H 0.24398 0.78126 0.73793 0.0
H1613 H 0.29346 0.74331 0.72292 0.0
H1614 H 0.32527 0.73491 0.72043 0.0
H1615 H 0.33102 0.7386 0.77763 0.0
H1616 H 0.2993 0.74726 0.78044 0.0
H1617 H 0.1965 0.70769 0.77606 0.0
H1618 H 0.21556 0.72601 0.7566 0.0
H1619 H 0.2501 0.73787 0.80146 0.0
H1620 H 0.23149 0.71905 0.82085 0.0
H1621 H 0.26915 0.7299 0.7719 0.0
H1622 H 0.21942 0.7684 0.78644 0.0
H1623 H 0.18749 0.77647 0.78851 0.0
H1624 H 0.18212 0.77101 0.73141 0.0
H1625 H 0.21397 0.76267 0.72904 0.0
C1626 C 0.30573 0.79705 0.72977 0.0
C1627 C 0.30133 0.80064 0.71181 0.0
C1628 C 0.29471 0.78611 0.74026 0.0
C1629 C 0.27928 0.77822 0.73286 0.0
C1630 C 0.27474 0.782 0.71497 0.0
C1631 C 0.28564 0.79317 0.70455 0.0
C1632 C 0.26782 0.76614 0.74384 0.0
C1633 C 0.24945 0.76987 0.74514 0.0
C1634 C 0.27499 0.75145 0.75351 0.0
C1635 C 0.29404 0.74608 0.75187 0.0
C1636 C 0.30154 0.74244 0.73496 0.0
C1637 C 0.31955 0.73762 0.73349 0.0
C1638 C 0.33017 0.73626 0.74886 0.0
C1639 C 0.32278 0.73967 0.76573 0.0
C1640 C 0.30478 0.74452 0.76728 0.0
C1641 C 0.20826 0.71404 0.78174 0.0
C1642 C 0.21244 0.71197 0.80003 0.0
C1643 C 0.21903 0.72465 0.77064 0.0
C1644 C 0.23411 0.73349 0.77764 0.0
C1645 C 0.23847 0.73123 0.79581 0.0
C1646 C 0.22773 0.72061 0.80691 0.0
C1647 C 0.24539 0.7451 0.76605 0.0
C1648 C 0.26371 0.74126 0.76463 0.0
C1649 C 0.23816 0.75961 0.75618 0.0
C1650 C 0.21904 0.76475 0.75759 0.0
C1651 C 0.2114 0.7688 0.77434 0.0
C1652 C 0.19332 0.77344 0.77557 0.0
C1653 C 0.18277 0.77421 0.76011 0.0
C1654 C 0.1903 0.77039 0.74338 0.0
C1655 C 0.20837 0.76572 0.74208 0.0
H1656 H 0.16878 0.7778 0.76108 0.0
H1657 H 0.34412 0.73253 0.74769 0.0
H1658 H 0.71697 0.69355 0.73309 0.0
H1659 H 0.73598 0.71302 0.75135 0.0
H1660 H 0.72987 0.7557 0.71273 0.0
H1661 H 0.71059 0.73639 0.69446 0.0
H1662 H 0.76467 0.75197 0.72383 0.0
H1663 H 0.70669 0.75703 0.75094 0.0
H1664 H 0.67865 0.74581 0.76439 0.0
H1665 H 0.70845 0.72062 0.80669 0.0
H1666 H 0.73671 0.73148 0.79333 0.0
H1667 H 0.79799 0.82238 0.77894 0.0
H1668 H 0.77893 0.80354 0.76 0.0
H1669 H 0.7828 0.7605 0.79855 0.0
H1670 H 0.80142 0.77943 0.81781 0.0
H1671 H 0.74886 0.76486 0.78718 0.0
H1672 H 0.80682 0.7594 0.76001 0.0
H1673 H 0.83496 0.77036 0.74653 0.0
H1674 H 0.80533 0.79609 0.70442 0.0
H1675 H 0.77699 0.78548 0.7178 0.0
C1676 C 0.71952 0.70713 0.72854 0.0
C1677 C 0.71214 0.71346 0.71237 0.0
C1678 C 0.73044 0.71822 0.73897 0.0
C1679 C 0.73416 0.73586 0.73348 0.0
C1680 C 0.72715 0.74212 0.71719 0.0
C1681 C 0.71619 0.73105 0.70675 0.0
C1682 C 0.7453 0.74778 0.74484 0.0
C1683 C 0.7611 0.75501 0.7376 0.0
C1684 C 0.74081 0.7514 0.76292 0.0
C1685 C 0.72383 0.74492 0.77103 0.0
C1686 C 0.70728 0.74898 0.76303 0.0
C1687 C 0.69134 0.7427 0.77065 0.0
C1688 C 0.69177 0.73247 0.78636 0.0
C1689 C 0.70814 0.72853 0.79451 0.0
C1690 C 0.72412 0.73475 0.78692 0.0
C1691 C 0.79466 0.80895 0.78346 0.0
C1692 C 0.80124 0.80238 0.79987 0.0
C1693 C 0.78391 0.79815 0.77254 0.0
C1694 C 0.77961 0.78055 0.77778 0.0
C1695 C 0.78601 0.77402 0.79423 0.0
C1696 C 0.79677 0.7848 0.80514 0.0
C1697 C 0.76829 0.769 0.76621 0.0
C1698 C 0.75243 0.76185 0.7734 0.0
C1699 C 0.77275 0.76544 0.7481 0.0
C1700 C 0.78977 0.7718 0.74001 0.0
C1701 C 0.8063 0.76752 0.74796 0.0
C1702 C 0.82228 0.77365 0.74032 0.0
C1703 C 0.82193 0.78396 0.72466 0.0
C1704 C 0.80559 0.78812 0.71657 0.0
C1705 C 0.78955 0.78205 0.72416 0.0
H1706 H 0.83432 0.78868 0.71877 0.0
H1707 H 0.67942 0.72763 0.79224 0.0
H1708 H 0.72091 0.28265 0.82212 0.0
H1709 H 0.73952 0.26363 0.80309 0.0
H1710 H 0.72527 0.29538 0.7569 0.0
H1711 H 0.7072 0.31497 0.77588 0.0
H1712 H 0.72209 0.25772 0.75173 0.0
H1713 H 0.76461 0.30124 0.77327 0.0
H1714 H 0.78053 0.31877 0.79636 0.0
H1715 H 0.8006 0.27014 0.81975 0.0
H1716 H 0.78455 0.25228 0.79694 0.0
H1717 H 0.78567 0.22588 0.68915 0.0
H1718 H 0.76741 0.2446 0.7088 0.0
H1719 H 0.78779 0.21639 0.75503 0.0
H1720 H 0.8066 0.19802 0.73548 0.0
H1721 H 0.78763 0.25183 0.76073 0.0
H1722 H 0.74579 0.20812 0.73951 0.0
H1723 H 0.72961 0.19006 0.717 0.0
H1724 H 0.70791 0.23807 0.69378 0.0
H1725 H 0.72417 0.25644 0.71601 0.0
C1726 C 0.72193 0.28581 0.80797 0.0
C1727 C 0.71254 0.30041 0.80057 0.0
C1728 C 0.73248 0.27483 0.79711 0.0
C1729 C 0.73377 0.27816 0.77863 0.0
C1730 C 0.72435 0.29258 0.77114 0.0
C1731 C 0.71396 0.30369 0.78202 0.0
C1732 C 0.74488 0.26652 0.76708 0.0
C1733 C 0.73645 0.25658 0.75352 0.0
C1734 C 0.76352 0.26471 0.76982 0.0
C1735 C 0.77321 0.27541 0.78352 0.0
C1736 C 0.77227 0.29427 0.78344 0.0
C1737 C 0.78135 0.30427 0.79645 0.0
C1738 C 0.79153 0.29557 0.80955 0.0
C1739 C 0.79268 0.27685 0.80962 0.0
C1740 C 0.78361 0.26679 0.79664 0.0
C1741 C 0.78636 0.22373 0.70351 0.0
C1742 C 0.79757 0.21044 0.71075 0.0
C1743 C 0.77578 0.23432 0.71471 0.0
C1744 C 0.77608 0.23175 0.73337 0.0
C1745 C 0.78731 0.21855 0.74066 0.0
C1746 C 0.79792 0.20796 0.72946 0.0
C1747 C 0.76487 0.24302 0.74526 0.0
C1748 C 0.77326 0.2529 0.75893 0.0
C1749 C 0.74617 0.24467 0.7427 0.0
C1750 C 0.73634 0.23367 0.72932 0.0
C1751 C 0.73768 0.21484 0.72951 0.0
C1752 C 0.72848 0.20454 0.71682 0.0
C1753 C 0.71777 0.21291 0.70394 0.0
C1754 C 0.71622 0.2316 0.70375 0.0
C1755 C 0.72542 0.24197 0.7164 0.0
H1756 H 0.71065 0.20492 0.69413 0.0
H1757 H 0.79855 0.30334 0.81961 0.0
H1758 H 0.18881 0.28215 0.72079 0.0
H1759 H 0.20745 0.26317 0.73988 0.0
H1760 H 0.25457 0.29168 0.72215 0.0
H1761 H 0.23602 0.31106 0.70337 0.0
H1762 H 0.25875 0.25457 0.72196 0.0
H1763 H 0.2381 0.30064 0.76213 0.0
H1764 H 0.21539 0.31931 0.77714 0.0
H1765 H 0.19124 0.27212 0.79988 0.0
H1766 H 0.21367 0.25313 0.78479 0.0
H1767 H 0.32083 0.22474 0.78684 0.0
H1768 H 0.3015 0.24301 0.76776 0.0
H1769 H 0.25489 0.21722 0.79045 0.0
H1770 H 0.2742 0.19899 0.80971 0.0
H1771 H 0.24981 0.25238 0.78791 0.0
H1772 H 0.27022 0.20616 0.74847 0.0
H1773 H 0.29241 0.187 0.73331 0.0
H1774 H 0.31626 0.23348 0.70887 0.0
H1775 H 0.29436 0.25297 0.7241 0.0
C1776 C 0.20311 0.28453 0.72108 0.0
C1777 C 0.21089 0.2982 0.71058 0.0
C1778 C 0.21374 0.27361 0.73193 0.0
C1779 C 0.23235 0.27612 0.7325 0.0
C1780 C 0.24022 0.28952 0.72184 0.0
C1781 C 0.22959 0.30052 0.71106 0.0
C1782 C 0.24362 0.26482 0.74427 0.0
C1783 C 0.25697 0.25423 0.7364 0.0
C1784 C 0.24091 0.26406 0.76304 0.0
C1785 C 0.22745 0.27545 0.77218 0.0
C1786 C 0.22786 0.29423 0.77021 0.0
C1787 C 0.21505 0.30487 0.77875 0.0
C1788 C 0.20185 0.2969 0.78942 0.0
C1789 C 0.20145 0.27827 0.7916 0.0
C1790 C 0.21422 0.26757 0.78306 0.0
C1791 C 0.30646 0.22288 0.78767 0.0
C1792 C 0.29902 0.21037 0.79969 0.0
C1793 C 0.29543 0.23331 0.77676 0.0
C1794 C 0.27675 0.23129 0.77748 0.0
C1795 C 0.26927 0.21899 0.78966 0.0
C1796 C 0.2803 0.20861 0.80067 0.0
C1797 C 0.26505 0.24212 0.76562 0.0
C1798 C 0.2516 0.25264 0.77346 0.0
C1799 C 0.26759 0.24272 0.7468 0.0
C1800 C 0.28075 0.23104 0.73756 0.0
C1801 C 0.28028 0.21231 0.73997 0.0
C1802 C 0.29279 0.20139 0.73135 0.0
C1803 C 0.30577 0.20902 0.72017 0.0
C1804 C 0.30622 0.22759 0.71755 0.0
C1805 C 0.29375 0.23858 0.72616 0.0
H1806 H 0.31544 0.20054 0.7135 0.0
H1807 H 0.19195 0.30516 0.79602 0.0
H1808 H 0.15182 0.9659 0.32273 0.0
H1809 H 0.15022 0.99159 0.30208 0.0
H1810 H 0.12769 0.95736 0.26126 0.0
H1811 H 0.12876 0.93174 0.28205 0.0
H1812 H 0.16093 0.98202 0.25263 0.0
H1813 H 0.09987 0.98079 0.27549 0.0
H1814 H 0.07757 0.98035 0.29989 0.0
H1815 H 0.09858 0.03003 0.32027 0.0
H1816 H 0.1212 0.0306 0.29613 0.0
H1817 H 0.14081 0.0474 0.18697 0.0
H1818 H 0.13977 0.02151 0.20719 0.0
H1819 H 0.13766 0.05721 0.25274 0.0
H1820 H 0.13789 0.08306 0.23246 0.0
H1821 H 0.11681 0.03121 0.25934 0.0
H1822 H 0.17715 0.03413 0.23879 0.0
H1823 H 0.20186 0.03562 0.2169 0.0
H1824 H 0.18592 0.98468 0.19512 0.0
H1825 H 0.16095 0.983 0.21674 0.0
C1826 C 0.14642 0.96392 0.30939 0.0
C1827 C 0.14032 0.9469 0.30397 0.0
C1828 C 0.14552 0.97856 0.29764 0.0
C1829 C 0.13886 0.97632 0.28017 0.0
C1830 C 0.13286 0.95932 0.27469 0.0
C1831 C 0.13338 0.94477 0.28658 0.0
C1832 C 0.13835 0.99173 0.26759 0.0
C1833 C 0.15114 0.99267 0.25386 0.0
C1834 C 0.12601 1.0059 0.26972 0.0
C1835 C 0.11235 1.00563 0.28414 0.0
C1836 C 0.09985 0.99152 0.28528 0.0
C1837 C 0.08713 0.99127 0.29904 0.0
C1838 C 0.08669 1.00513 0.31166 0.0
C1839 C 0.09895 0.01929 0.31051 0.0
C1840 C 0.11171 0.01959 0.29678 0.0
C1841 C 0.14006 0.04968 0.2013 0.0
C1842 C 0.13945 0.06723 0.20815 0.0
C1843 C 0.13958 0.03488 0.21288 0.0
C1844 C 0.13901 0.03732 0.23159 0.0
C1845 C 0.1381 0.05489 0.2384 0.0
C1846 C 0.13823 0.06968 0.2268 0.0
C1847 C 0.13938 0.02161 0.24406 0.0
C1848 C 0.12661 0.0206 0.25791 0.0
C1849 C 0.15207 0.00757 0.2423 0.0
C1850 C 0.16706 0.00853 0.22926 0.0
C1851 C 0.17883 0.02331 0.22924 0.0
C1852 C 0.1929 0.02418 0.2169 0.0
C1853 C 0.19543 0.01028 0.20459 0.0
C1854 C 0.18392 0.99545 0.20464 0.0
C1855 C 0.16981 0.99453 0.21694 0.0
H1856 H 0.20633 0.01097 0.19505 0.0
H1857 H 0.07683 1.00491 0.3223 0.0
H1858 H 0.84425 0.44193 0.21905 0.0
H1859 H 0.84541 0.46751 0.23951 0.0
H1860 H 0.89752 0.4819 0.21887 0.0
H1861 H 0.89669 0.4557 0.19892 0.0
H1862 H 0.89782 0.48685 0.25289 0.0
H1863 H 0.85709 0.50459 0.20677 0.0
H1864 H 0.831 0.50185 0.18668 0.0
H1865 H 0.79583 0.50039 0.23224 0.0
H1866 H 0.82174 0.50287 0.25262 0.0
H1867 H 0.89417 0.57609 0.28976 0.0
H1868 H 0.89568 0.55028 0.26949 0.0
H1869 H 0.84779 0.5284 0.29341 0.0
H1870 H 0.84636 0.5539 0.31391 0.0
H1871 H 0.84621 0.52843 0.25669 0.0
H1872 H 0.88818 0.51041 0.30255 0.0
H1873 H 0.91479 0.51422 0.32177 0.0
H1874 H 0.94827 0.5179 0.27507 0.0
H1875 H 0.92182 0.51436 0.25555 0.0
C1876 C 0.85593 0.4506 0.21886 0.0
C1877 C 0.87031 0.44695 0.20729 0.0
C1878 C 0.85656 0.46528 0.2305 0.0
C1879 C 0.87136 0.47699 0.23049 0.0
C1880 C 0.8859 0.47317 0.21912 0.0
C1881 C 0.88542 0.45823 0.2077 0.0
C1882 C 0.87167 0.49311 0.24241 0.0
C1883 C 0.88663 0.49608 0.25348 0.0
C1884 C 0.85701 0.50513 0.24345 0.0
C1885 C 0.84138 0.50377 0.23122 0.0
C1886 C 0.8438 0.50357 0.21251 0.0
C1887 C 0.82904 0.50208 0.20107 0.0
C1888 C 0.81177 0.50091 0.20818 0.0
C1889 C 0.80922 0.50128 0.22675 0.0
C1890 C 0.82393 0.50275 0.23825 0.0
C1891 C 0.88412 0.56565 0.29093 0.0
C1892 C 0.87011 0.56716 0.30347 0.0
C1893 C 0.88497 0.55092 0.27927 0.0
C1894 C 0.87185 0.53738 0.27993 0.0
C1895 C 0.85799 0.53874 0.29256 0.0
C1896 C 0.85717 0.55338 0.30424 0.0
C1897 C 0.87223 0.52198 0.26722 0.0
C1898 C 0.8574 0.5192 0.25599 0.0
C1899 C 0.88709 0.51031 0.26587 0.0
C1900 C 0.903 0.51229 0.27759 0.0
C1901 C 0.9012 0.51216 0.29638 0.0
C1902 C 0.91626 0.51425 0.30733 0.0
C1903 C 0.9332 0.51635 0.29965 0.0
C1904 C 0.93513 0.5163 0.281 0.0
C1905 C 0.92012 0.51424 0.26999 0.0
H1906 H 0.94484 0.51797 0.30815 0.0
H1907 H 0.80036 0.49975 0.1993 0.0
H1908 H 0.2787 0.13485 0.92978 0.0
H1909 H 0.25906 0.13524 0.95596 0.0
H1910 H 0.30293 0.15334 0.98893 0.0
H1911 H 0.32261 0.15355 0.96271 0.0
H1912 H 0.28313 0.12577 1.00478 0.0
H1913 H 0.27246 0.18263 0.97647 0.0
H1914 H 0.26497 0.20285 0.95139 0.0
H1915 H 0.21358 0.17743 0.94607 0.0
H1916 H 0.22088 0.15685 0.97096 0.0
H1917 H 0.23384 0.15258 0.08125 0.0
H1918 H 0.25335 0.15167 0.05504 0.0
H1919 H 0.20802 0.13907 0.02144 0.0
H1920 H 0.18823 0.14072 0.04755 0.0
H1921 H 0.22854 0.16355 1.00567 0.0
H1922 H 0.2388 0.10678 0.03386 0.0
H1923 H 0.24615 0.08617 0.05867 0.0
H1924 H 0.29797 0.11073 0.06391 0.0
H1925 H 0.29083 0.13167 0.03928 0.0
C1926 C 0.28419 0.13912 0.94253 0.0
C1927 C 0.30229 0.14428 0.94402 0.0
C1928 C 0.27293 0.13924 0.95752 0.0
C1929 C 0.27949 0.14446 0.97437 0.0
C1930 C 0.2976 0.14924 0.97605 0.0
C1931 C 0.30886 0.14925 0.96103 0.0
C1932 C 0.26739 0.14504 0.99021 0.0
C1933 C 0.27131 0.1342 1.00509 0.0
C1934 C 0.25173 0.1557 0.99041 0.0
C1935 C 0.2473 0.16807 0.97546 0.0
C1936 C 0.25963 0.18124 0.96985 0.0
C1937 C 0.25541 0.19279 0.95569 0.0
C1938 C 0.23883 0.19139 0.94711 0.0
C1939 C 0.22643 0.17847 0.95271 0.0
C1940 C 0.23059 0.16687 0.96685 0.0
C1941 C 0.22794 0.14979 0.06828 0.0
C1942 C 0.2094 0.14675 0.06656 0.0
C1943 C 0.23918 0.14906 0.0533 0.0
C1944 C 0.23223 0.14506 0.03626 0.0
C1945 C 0.21373 0.14211 0.03445 0.0
C1946 C 0.20244 0.14289 0.04944 0.0
C1947 C 0.24423 0.14424 0.02031 0.0
C1948 C 0.24032 0.15507 1.00539 0.0
C1949 C 0.25986 0.1335 0.02004 0.0
C1950 C 0.26421 0.1209 0.03483 0.0
C1951 C 0.25171 0.10788 0.04039 0.0
C1952 C 0.25585 0.09612 0.05441 0.0
C1953 C 0.2725 0.09717 0.06289 0.0
C1954 C 0.28506 0.10995 0.05734 0.0
C1955 C 0.28099 0.12176 0.04334 0.0
H1956 H 0.27568 0.08805 0.07373 0.0
H1957 H 0.23558 0.20035 0.93615 0.0
H1958 H 0.78583 0.38984 0.07758 0.0
H1959 H 0.76561 0.38996 0.05182 0.0
H1960 H 0.79686 0.34835 0.02676 0.0
H1961 H 0.81708 0.34802 0.05258 0.0
H1962 H 0.78793 0.37382 1.00281 0.0
H1963 H 0.75721 0.33859 0.04686 0.0
H1964 H 0.74414 0.33179 0.07648 0.0
H1965 H 0.70832 0.37645 0.07113 0.0
H1966 H 0.72137 0.38369 0.04157 0.0
H1967 H 0.72421 0.3454 0.93789 0.0
H1968 H 0.74458 0.34665 0.96354 0.0
H1969 H 0.71439 0.3906 0.98573 0.0
H1970 H 0.69379 0.38932 0.9601 0.0
H1971 H 0.72264 0.36449 0.01109 0.0
H1972 H 0.75341 0.39904 0.9663 0.0
H1973 H 0.76647 0.40498 0.9365 0.0
H1974 H 0.80221 0.36042 0.94309 0.0
H1975 H 0.78917 0.35405 0.97285 0.0
C1976 C 0.78836 0.38061 0.06666 0.0
C1977 C 0.80307 0.36886 0.06723 0.0
C1978 C 0.77678 0.38072 0.05191 0.0
C1979 C 0.77957 0.36901 0.03742 0.0
C1980 C 0.79444 0.35752 0.03777 0.0
C1981 C 0.80604 0.3574 0.05252 0.0
C1982 C 0.76693 0.3687 0.02197 0.0
C1983 C 0.77369 0.37155 1.00461 0.0
C1984 C 0.74827 0.3661 0.02431 0.0
C1985 C 0.7404 0.3618 0.04209 0.0
C1986 C 0.74665 0.34706 0.05207 0.0
C1987 C 0.73923 0.34311 0.06883 0.0
C1988 C 0.72545 0.35371 0.07571 0.0
C1989 C 0.71903 0.36827 0.06581 0.0
C1990 C 0.72642 0.3723 0.04904 0.0
C1991 C 0.72182 0.35526 0.94828 0.0
C1992 C 0.70735 0.36724 0.94698 0.0
C1993 C 0.73357 0.35605 0.96287 0.0
C1994 C 0.7311 0.36881 0.97649 0.0
C1995 C 0.71657 0.38068 0.97534 0.0
C1996 C 0.70488 0.38 0.96065 0.0
C1997 C 0.74365 0.36961 0.99197 0.0
C1998 C 0.73687 0.36682 0.00932 0.0
C1999 C 0.7623 0.37215 0.98961 0.0
C2000 C 0.77018 0.37596 0.97173 0.0
C2001 C 0.76394 0.39041 0.96133 0.0
C2002 C 0.77137 0.39387 0.94446 0.0
C2003 C 0.78513 0.38306 0.93788 0.0
C2004 C 0.79153 0.36877 0.94819 0.0
C2005 C 0.78414 0.36524 0.96507 0.0
H2006 H 0.79087 0.38576 0.92482 0.0
H2007 H 0.71971 0.35062 0.08869 0.0
H2008 H 0.28241 0.88522 0.57994 0.0
H2009 H 0.26242 0.8852 0.55403 0.0
H2010 H 0.2998 0.85237 0.5248 0.0
H2011 H 0.31962 0.85169 0.55086 0.0
H2012 H 0.28627 0.88171 0.5048 0.0
H2013 H 0.26427 0.83306 0.54144 0.0
H2014 H 0.25313 0.81926 0.5694 0.0
H2015 H 0.20879 0.8558 0.57003 0.0
H2016 H 0.21981 0.87 0.5422 0.0
H2017 H 0.23159 0.8565 0.43198 0.0
H2018 H 0.25125 0.85688 0.45794 0.0
H2019 H 0.20893 0.87954 0.49006 0.0
H2020 H 0.18865 0.87785 0.46446 0.0
H2021 H 0.22506 0.85599 0.50903 0.0
H2022 H 0.24603 0.90489 0.47304 0.0
H2023 H 0.25692 0.92001 0.44567 0.0
H2024 H 0.30266 0.88527 0.44438 0.0
H2025 H 0.29193 0.86978 0.47162 0.0
C2026 C 0.28636 0.87779 0.56812 0.0
C2027 C 0.30268 0.86836 0.56765 0.0
C2028 C 0.27492 0.8779 0.55325 0.0
C2029 C 0.27956 0.86868 0.53752 0.0
C2030 C 0.29598 0.85961 0.5368 0.0
C2031 C 0.30735 0.85933 0.55172 0.0
C2032 C 0.26721 0.86838 0.52189 0.0
C2033 C 0.27295 0.8759 0.50562 0.0
C2034 C 0.24966 0.86129 0.52316 0.0
C2035 C 0.24297 0.85271 0.53984 0.0
C2036 C 0.25223 0.83826 0.54763 0.0
C2037 C 0.24592 0.83034 0.56343 0.0
C2038 C 0.23029 0.83669 0.57151 0.0
C2039 C 0.22091 0.85092 0.56377 0.0
C2040 C 0.22717 0.8589 0.54798 0.0
C2041 C 0.22627 0.8613 0.44459 0.0
C2042 C 0.20838 0.8671 0.44598 0.0
C2043 C 0.2377 0.86181 0.45943 0.0
C2044 C 0.23177 0.86859 0.47597 0.0
C2045 C 0.21393 0.87434 0.47746 0.0
C2046 C 0.20236 0.87356 0.46268 0.0
C2047 C 0.24406 0.86935 0.49176 0.0
C2048 C 0.23833 0.86189 0.50812 0.0
C2049 C 0.26156 0.87674 0.49063 0.0
C2050 C 0.26808 0.88607 0.47428 0.0
C2051 C 0.25835 0.90039 0.46685 0.0
C2052 C 0.2645 0.90905 0.45137 0.0
C2053 C 0.28045 0.90358 0.44327 0.0
C2054 C 0.2903 0.88948 0.45066 0.0
C2055 C 0.2842 0.88077 0.46613 0.0
H2056 H 0.28519 0.9103 0.43129 0.0
H2057 H 0.22542 0.83054 0.58375 0.0
H2058 H 0.71525 0.61895 0.56931 0.0
H2059 H 0.73482 0.61797 0.54309 0.0
H2060 H 0.72897 0.67515 0.53626 0.0
H2061 H 0.70863 0.6761 0.56183 0.0
H2062 H 0.72755 0.65966 0.50496 0.0
H2063 H 0.76716 0.65556 0.55556 0.0
H2064 H 0.77875 0.64298 0.58387 0.0
H2065 H 0.78788 0.59236 0.55796 0.0
H2066 H 0.77612 0.60458 0.52953 0.0
H2067 H 0.80174 0.6761 0.44808 0.0
H2068 H 0.78159 0.67528 0.47388 0.0
H2069 H 0.78588 0.6176 0.4758 0.0
H2070 H 0.80594 0.61827 0.44982 0.0
H2071 H 0.78787 0.63229 0.50916 0.0
H2072 H 0.74898 0.63729 0.45812 0.0
H2073 H 0.73788 0.65055 0.42993 0.0
H2074 H 0.72788 0.70038 0.45698 0.0
H2075 H 0.73916 0.6875 0.4853 0.0
C2076 C 0.71789 0.6313 0.56211 0.0
C2077 C 0.71037 0.64763 0.56784 0.0
C2078 C 0.72931 0.63075 0.54721 0.0
C2079 C 0.73368 0.64654 0.53783 0.0
C2080 C 0.72593 0.66279 0.5433 0.0
C2081 C 0.71441 0.66333 0.55809 0.0
C2082 C 0.74628 0.64621 0.5223 0.0
C2083 C 0.74082 0.65386 0.50598 0.0
C2084 C 0.76349 0.63829 0.52341 0.0
C2085 C 0.77059 0.63093 0.54047 0.0
C2086 C 0.77152 0.64171 0.55593 0.0
C2087 C 0.77813 0.63465 0.57199 0.0
C2088 C 0.784 0.61687 0.57272 0.0
C2089 C 0.7833 0.60612 0.55738 0.0
C2090 C 0.77668 0.61311 0.54129 0.0
C2091 C 0.79832 0.66321 0.45388 0.0
C2092 C 0.80537 0.64723 0.44673 0.0
C2093 C 0.78681 0.66277 0.46868 0.0
C2094 C 0.78199 0.64636 0.47663 0.0
C2095 C 0.78937 0.63043 0.46987 0.0
C2096 C 0.80091 0.63084 0.45505 0.0
C2097 C 0.76916 0.64586 0.49192 0.0
C2098 C 0.77458 0.63804 0.50817 0.0
C2099 C 0.75196 0.65372 0.49078 0.0
C2100 C 0.74507 0.66147 0.47379 0.0
C2101 C 0.74454 0.65112 0.45803 0.0
C2102 C 0.7382 0.65856 0.44203 0.0
C2103 C 0.73222 0.67631 0.44165 0.0
C2104 C 0.73253 0.68664 0.45729 0.0
C2105 C 0.73889 0.67927 0.47332 0.0
H2106 H 0.72731 0.68205 0.42926 0.0
H2107 H 0.78912 0.61143 0.58517 0.0
H2108 H 0.96106 0.32032 0.16199 0.0
H2109 H 0.98726 0.30073 0.16207 0.0
H2110 H 0.96405 0.26919 0.11948 0.0
H2111 H 0.93789 0.28882 0.11916 0.0
H2112 H 0.97706 0.24795 0.14574 0.0
H2113 H 0.99852 0.29803 0.11122 0.0
H2114 H 1.00483 0.32996 0.1051 0.0
H2115 H 0.03914 0.33238 0.15126 0.0
H2116 H 0.03284 0.30051 0.1578 0.0
H2117 H 0.0552 0.19733 0.1245 0.0
H2118 H 0.02905 0.21704 0.12336 0.0
H2119 H 0.05224 0.25041 0.16458 0.0
H2120 H 0.07836 0.23082 0.16578 0.0
H2121 H 0.03913 0.2707 0.13855 0.0
H2122 H 0.01755 0.22112 0.17354 0.0
H2123 H 0.01118 0.18932 0.18024 0.0
H2124 H 0.97708 0.18605 0.13398 0.0
H2125 H 0.98344 0.21779 0.12686 0.0
C2126 C 0.96163 0.3094 0.15243 0.0
C2127 C 0.94732 0.3062 0.14056 0.0
C2128 C 0.97661 0.29815 0.15254 0.0
C2129 C 0.97769 0.28351 0.14071 0.0
C2130 C 0.9635 0.28034 0.12878 0.0
C2131 C 0.94852 0.29158 0.12865 0.0
C2132 C 0.99345 0.27131 0.14099 0.0
C2133 C 0.99062 0.25289 0.1439 0.0
C2134 C 0.01119 0.27778 0.13905 0.0
C2135 C 0.01507 0.29692 0.13509 0.0
C2136 C 0.00731 0.3054 0.12014 0.0
C2137 C 0.0109 0.32349 0.11659 0.0
C2138 C 0.02234 0.33321 0.12781 0.0
C2139 C 0.03026 0.32484 0.14259 0.0
C2140 C 0.0267 0.30676 0.14622 0.0
C2141 C 0.05464 0.20876 0.13345 0.0
C2142 C 0.06892 0.21249 0.1452 0.0
C2143 C 0.03968 0.22004 0.13278 0.0
C2144 C 0.03858 0.23518 0.14398 0.0
C2145 C 0.05279 0.23889 0.15574 0.0
C2146 C 0.06775 0.22768 0.15637 0.0
C2147 C 0.02276 0.24732 0.14333 0.0
C2148 C 0.02558 0.26574 0.14035 0.0
C2149 C 1.00502 0.24085 0.14529 0.0
C2150 C 1.00112 0.22178 0.14957 0.0
C2151 C 0.00881 0.21358 0.16472 0.0
C2152 C 1.00518 0.19558 0.1686 0.0
C2153 C 0.99377 0.18566 0.15752 0.0
C2154 C 0.98593 0.19374 0.14254 0.0
C2155 C 0.98953 0.21174 0.13858 0.0
H2156 H 0.99098 0.17172 0.16055 0.0
H2157 H 0.02511 0.34721 0.12503 0.0
H2158 H 0.96163 0.69193 0.3518 0.0
H2159 H 0.98778 0.71179 0.35214 0.0
H2160 H 0.95994 0.74812 0.38748 0.0
H2161 H 0.93356 0.72857 0.38662 0.0
H2162 H 0.97594 0.76681 0.36345 0.0
H2163 H 0.99495 0.71898 0.40181 0.0
H2164 H 1.00082 0.6876 0.41051 0.0
H2165 H 0.03815 0.68239 0.36702 0.0
H2166 H 0.03232 0.71368 0.35791 0.0
H2167 H 0.0543 0.81665 0.38896 0.0
H2168 H 0.0281 0.79687 0.38962 0.0
H2169 H 0.05016 0.76573 0.34628 0.0
H2170 H 0.07601 0.78576 0.34495 0.0
H2171 H 0.0374 0.74467 0.37515 0.0
H2172 H 0.01761 0.79306 0.33715 0.0
H2173 H 0.01185 0.82475 0.32957 0.0
H2174 H 0.97602 0.82911 0.3744 0.0
H2175 H 0.98178 0.7975 0.38241 0.0
C2176 C 0.96119 0.70406 0.35979 0.0
C2177 C 0.94558 0.70866 0.36923 0.0
C2178 C 0.97616 0.71541 0.36002 0.0
C2179 C 0.97602 0.7314 0.37005 0.0
C2180 C 0.96045 0.73591 0.37961 0.0
C2181 C 0.94538 0.72471 0.37915 0.0
C2182 C 0.99187 0.74367 0.37021 0.0
C2183 C 0.98932 0.76196 0.36631 0.0
C2184 C 0.00946 0.73742 0.37359 0.0
C2185 C 0.01307 0.71863 0.37909 0.0
C2186 C 1.00432 0.71111 0.39403 0.0
C2187 C 0.00765 0.69334 0.39904 0.0
C2188 C 0.01982 0.683 0.3893 0.0
C2189 C 0.02871 0.69041 0.37454 0.0
C2190 C 0.02541 0.70817 0.36946 0.0
C2191 C 0.05352 0.80577 0.37937 0.0
C2192 C 0.06742 0.80287 0.36694 0.0
C2193 C 0.03855 0.7944 0.37986 0.0
C2194 C 0.03719 0.77982 0.368 0.0
C2195 C 0.051 0.77681 0.35564 0.0
C2196 C 0.06585 0.78827 0.355 0.0
C2197 C 0.02137 0.76766 0.36844 0.0
C2198 C 0.02397 0.74944 0.37241 0.0
C2199 C 1.00381 0.774 0.36533 0.0
C2200 C 1.00027 0.79297 0.36049 0.0
C2201 C 0.00863 0.80082 0.34548 0.0
C2202 C 1.00534 0.81876 0.34109 0.0
C2203 C 0.99362 0.82895 0.35152 0.0
C2204 C 0.98512 0.82121 0.36635 0.0
C2205 C 0.98838 0.80328 0.37081 0.0
H2206 H 0.99109 0.84283 0.3481 0.0
H2207 H 0.02238 0.66924 0.3932 0.0
H2208 H 0.54694 0.6877 0.64699 0.0
H2209 H 0.5214 0.70824 0.64664 0.0
H2210 H 0.55713 0.75287 0.63736 0.0
H2211 H 0.58273 0.73249 0.63804 0.0
H2212 H 0.53228 0.76053 0.66307 0.0
H2213 H 0.5325 0.73596 0.60338 0.0
H2214 H 0.53244 0.71167 0.58092 0.0
H2215 H 0.48221 0.69231 0.60136 0.0
H2216 H 0.48209 0.71635 0.62411 0.0
H2217 H 0.467 0.82557 0.63932 0.0
H2218 H 0.49266 0.8052 0.6393 0.0
H2219 H 0.45686 0.75984 0.64364 0.0
H2220 H 0.43121 0.78011 0.64341 0.0
H2221 H 0.48193 0.75246 0.62041 0.0
H2222 H 0.48132 0.77623 0.68012 0.0
H2223 H 0.48109 0.79984 0.70329 0.0
H2224 H 0.53149 0.81989 0.68395 0.0
H2225 H 0.5319 0.79653 0.66049 0.0
C2226 C 0.54937 0.70189 0.64494 0.0
C2227 C 0.56689 0.70842 0.64243 0.0
C2228 C 0.53474 0.71361 0.64462 0.0
C2229 C 0.53732 0.73209 0.64181 0.0
C2230 C 0.5548 0.73866 0.6395 0.0
C2231 C 0.56941 0.72696 0.63972 0.0
C2232 C 0.52184 0.74461 0.64135 0.0
C2233 C 0.52137 0.75892 0.65359 0.0
C2234 C 0.50738 0.74225 0.62929 0.0
C2235 C 0.50738 0.72785 0.61556 0.0
C2236 C 0.52151 0.72644 0.60317 0.0
C2237 C 0.5215 0.71273 0.59037 0.0
C2238 C 0.50736 0.70043 0.58974 0.0
C2239 C 0.49317 0.70184 0.60188 0.0
C2240 C 0.49313 0.71551 0.61472 0.0
C2241 C 0.46461 0.81126 0.64033 0.0
C2242 C 0.44705 0.80448 0.64135 0.0
C2243 C 0.4793 0.79961 0.64035 0.0
C2244 C 0.47675 0.78094 0.6417 0.0
C2245 C 0.45921 0.77416 0.64254 0.0
C2246 C 0.44454 0.78578 0.64237 0.0
C2247 C 0.49231 0.76844 0.64216 0.0
C2248 C 0.49281 0.75412 0.62991 0.0
C2249 C 0.50673 0.77071 0.65432 0.0
C2250 C 0.50655 0.78474 0.66843 0.0
C2251 C 0.49229 0.78576 0.68072 0.0
C2252 C 0.49214 0.79908 0.69392 0.0
C2253 C 0.50624 0.81139 0.69506 0.0
C2254 C 0.52056 0.81036 0.68303 0.0
C2255 C 0.52076 0.79708 0.66979 0.0
H2256 H 0.50611 0.82169 0.70528 0.0
H2257 H 0.50737 0.68983 0.57982 0.0
H2258 H 0.88772 0.07786 0.72533 0.0
H2259 H 0.88865 0.0522 0.7458 0.0
H2260 H 0.85033 0.02418 0.71269 0.0
H2261 H 0.84917 0.04991 0.69233 0.0
H2262 H 0.8413 0.02086 0.74645 0.0
H2263 H 0.89598 0.0133 0.71347 0.0
H2264 H 0.92525 0.02245 0.70113 0.0
H2265 H 0.94517 0.03148 0.75441 0.0
H2266 H 0.91593 0.0226 0.76707 0.0
H2267 H 0.85068 0.93412 0.7839 0.0
H2268 H 0.85143 0.95986 0.76363 0.0
H2269 H 0.88722 0.98754 0.79968 0.0
H2270 H 0.88648 0.96179 0.82015 0.0
H2271 H 0.89778 0.99139 0.76512 0.0
H2272 H 0.84299 0.99838 0.79796 0.0
H2273 H 0.81373 0.98888 0.81006 0.0
H2274 H 0.79402 0.98058 0.75658 0.0
H2275 H 0.82326 0.9898 0.74416 0.0
C2276 C 0.87967 0.06614 0.72228 0.0
C2277 C 0.86841 0.06591 0.70716 0.0
C2278 C 0.88021 0.05146 0.73401 0.0
C2279 C 0.8697 0.03612 0.73073 0.0
C2280 C 0.85853 0.03584 0.71557 0.0
C2281 C 0.85787 0.05057 0.70393 0.0
C2282 C 0.86997 0.02054 0.7433 0.0
C2283 C 0.85365 0.01427 0.75032 0.0
C2284 C 0.88609 0.01219 0.74878 0.0
C2285 C 0.90371 0.01745 0.7412 0.0
C2286 C 0.90656 0.01736 0.72255 0.0
C2287 C 0.92315 0.02248 0.7155 0.0
C2288 C 0.93705 0.02759 0.72698 0.0
C2289 C 0.93439 0.02754 0.74554 0.0
C2290 C 0.91782 0.02245 0.75265 0.0
C2291 C 0.85859 0.94574 0.78764 0.0
C2292 C 0.86837 0.94595 0.80378 0.0
C2293 C 0.85904 0.96045 0.77599 0.0
C2294 C 0.86917 0.97577 0.78024 0.0
C2295 C 0.87928 0.97589 0.79613 0.0
C2296 C 0.87887 0.96114 0.8078 0.0
C2297 C 0.86912 0.99166 0.76811 0.0
C2298 C 0.88546 0.998 0.76123 0.0
C2299 C 0.85301 1.00006 0.7627 0.0
C2300 C 0.83537 0.99463 0.77013 0.0
C2301 C 0.83246 0.99441 0.78878 0.0
C2302 C 0.81587 0.98909 0.7957 0.0
C2303 C 0.80204 0.98409 0.7841 0.0
C2304 C 0.80475 0.98444 0.76555 0.0
C2305 C 0.82132 0.98972 0.75856 0.0
H2306 H 0.7892 0.97998 0.78948 0.0
H2307 H 0.94988 0.03155 0.72149 0.0
H2308 H 0.13768 0.54963 0.82411 0.0
H2309 H 0.13657 0.52363 0.80412 0.0
H2310 H 0.15342 0.55692 0.75982 0.0
H2311 H 0.15392 0.58309 0.77955 0.0
H2312 H 0.12749 0.53479 0.74941 0.0
H2313 H 0.18281 0.52881 0.78127 0.0
H2314 H 0.20233 0.52707 0.80789 0.0
H2315 H 0.17405 0.48014 0.82595 0.0
H2316 H 0.15419 0.48175 0.79954 0.0
H2317 H 0.15492 0.46438 0.69051 0.0
H2318 H 0.15416 0.49067 0.71012 0.0
H2319 H 0.1341 0.45788 0.75341 0.0
H2320 H 0.13442 0.43161 0.73384 0.0
H2321 H 0.16158 0.47969 0.76427 0.0
H2322 H 0.10646 0.48582 0.73164 0.0
H2323 H 0.08762 0.48772 0.70455 0.0
H2324 H 0.11649 0.53461 0.68735 0.0
H2325 H 0.13568 0.53284 0.71424 0.0
C2326 C 0.14096 0.55147 0.81008 0.0
C2327 C 0.14601 0.56846 0.80349 0.0
C2328 C 0.14049 0.53655 0.79869 0.0
C2329 C 0.14516 0.53824 0.78049 0.0
C2330 C 0.14984 0.55524 0.77381 0.0
C2331 C 0.15029 0.57017 0.78517 0.0
C2332 C 0.14525 0.52231 0.76843 0.0
C2333 C 0.13513 0.52283 0.75256 0.0
C2334 C 0.15496 0.50655 0.77265 0.0
C2335 C 0.1669 0.50552 0.78852 0.0
C2336 C 0.18066 0.51821 0.79099 0.0
C2337 C 0.1918 0.51723 0.80602 0.0
C2338 C 0.1894 0.50353 0.81862 0.0
C2339 C 0.17588 0.49076 0.81619 0.0
C2340 C 0.16468 0.49169 0.80118 0.0
C2341 C 0.15009 0.46278 0.70412 0.0
C2342 C 0.14473 0.44581 0.71054 0.0
C2343 C 0.14974 0.47783 0.71534 0.0
C2344 C 0.144 0.47627 0.73323 0.0
C2345 C 0.13866 0.4594 0.73969 0.0
C2346 C 0.13892 0.44436 0.72847 0.0
C2347 C 0.14379 0.49217 0.74529 0.0
C2348 C 0.15392 0.49164 0.76115 0.0
C2349 C 0.13419 0.50795 0.741 0.0
C2350 C 0.12262 0.50909 0.72486 0.0
C2351 C 0.10889 0.49645 0.72201 0.0
C2352 C 0.09813 0.49752 0.7067 0.0
C2353 C 0.10089 0.51125 0.69421 0.0
C2354 C 0.11439 0.52397 0.69703 0.0
C2355 C 0.1252 0.52295 0.7123 0.0
H2356 H 0.09255 0.51205 0.68237 0.0
H2357 H 0.19804 0.50279 0.83025 0.0
H2358 H 0.73481 0.86093 0.0835 0.0
H2359 H 0.75488 0.86176 0.05764 0.0
H2360 H 0.71139 0.87963 0.02409 0.0
H2361 H 0.69106 0.87835 0.04987 0.0
H2362 H 0.73036 0.85339 0.00793 0.0
H2363 H 0.74377 0.90876 0.03772 0.0
H2364 H 0.75203 0.9281 0.06326 0.0
H2365 H 0.80203 0.9003 0.06853 0.0
H2366 H 0.79395 0.88061 0.04317 0.0
H2367 H 0.78321 0.87899 0.933 0.0
H2368 H 0.76309 0.87942 0.95883 0.0
H2369 H 0.80605 0.86139 0.99297 0.0
H2370 H 0.82643 0.86138 0.96722 0.0
H2371 H 0.78719 0.88804 0.00871 0.0
H2372 H 0.7737 0.83248 0.97921 0.0
H2373 H 0.76545 0.81298 0.95378 0.0
H2374 H 0.71563 0.841 0.94806 0.0
H2375 H 0.72369 0.86085 0.97331 0.0
C2376 C 0.72946 0.86494 0.07061 0.0
C2377 C 0.71129 0.86955 0.06877 0.0
C2378 C 0.74101 0.86557 0.05585 0.0
C2379 C 0.7347 0.87093 0.03893 0.0
C2380 C 0.71658 0.87551 0.03702 0.0
C2381 C 0.705 0.87492 0.0518 0.0
C2382 C 0.74698 0.87144 0.0232 0.0
C2383 C 0.74265 0.86119 0.008 0.0
C2384 C 0.76325 0.88125 0.02343 0.0
C2385 C 0.76818 0.8931 0.03865 0.0
C2386 C 0.75646 0.90668 0.04442 0.0
C2387 C 0.76113 0.91772 0.05885 0.0
C2388 C 0.77753 0.9154 0.06754 0.0
C2389 C 0.78932 0.90206 0.0618 0.0
C2390 C 0.78471 0.89097 0.04739 0.0
C2391 C 0.78846 0.87531 0.94603 0.0
C2392 C 0.80647 0.87016 0.94802 0.0
C2393 C 0.77687 0.87539 0.96077 0.0
C2394 C 0.78299 0.87024 0.97783 0.0
C2395 C 0.80101 0.86535 0.97993 0.0
C2396 C 0.81262 0.86523 0.96517 0.0
C2397 C 0.77057 0.86999 0.99345 0.0
C2398 C 0.77488 0.88027 0.00863 0.0
C2399 C 0.75428 0.8602 0.99321 0.0
C2400 C 0.74939 0.84827 0.97803 0.0
C2401 C 0.76105 0.83458 0.97243 0.0
C2402 C 0.7564 0.82345 0.95807 0.0
C2403 C 0.74005 0.82579 0.94928 0.0
C2404 C 0.7283 0.83923 0.95486 0.0
C2405 C 0.7329 0.85041 0.96921 0.0
H2406 H 0.73647 0.81715 0.93816 0.0
H2407 H 0.78111 0.92397 0.07871 0.0
H2408 H 0.23107 0.64352 0.93152 0.0
H2409 H 0.25091 0.64331 0.95756 0.0
H2410 H 0.20518 0.64741 0.9927 0.0
H2411 H 0.18527 0.64801 0.96657 0.0
H2412 H 0.23045 0.66876 1.00414 0.0
H2413 H 0.22876 0.60705 0.98616 0.0
H2414 H 0.23134 0.58155 0.96525 0.0
H2415 H 0.2867 0.59435 0.95622 0.0
H2416 H 0.28439 0.62009 0.97689 0.0
H2417 H 0.27611 0.64478 0.08427 0.0
H2418 H 0.25618 0.64447 0.05831 0.0
H2419 H 0.30181 0.64606 0.0229 0.0
H2420 H 0.3219 0.6467 0.04883 0.0
H2421 H 0.27658 0.62159 0.01187 0.0
H2422 H 0.27781 0.68345 0.03015 0.0
H2423 H 0.27493 0.70853 0.05151 0.0
H2424 H 0.21981 0.6947 0.06055 0.0
H2425 H 0.22244 0.66936 0.03943 0.0
C2426 C 0.22522 0.64422 0.9448 0.0
C2427 C 0.20657 0.64563 0.94699 0.0
C2428 C 0.23659 0.64408 0.95971 0.0
C2429 C 0.22957 0.64501 0.97718 0.0
C2430 C 0.21095 0.64663 0.97938 0.0
C2431 C 0.19957 0.64698 0.96445 0.0
C2432 C 0.24167 0.64455 0.99309 0.0
C2433 C 0.24034 0.65827 1.00594 0.0
C2434 C 0.2549 0.63112 0.99533 0.0
C2435 C 0.25635 0.6156 0.98295 0.0
C2436 C 0.24145 0.6045 0.97962 0.0
C2437 C 0.24287 0.58999 0.96782 0.0
C2438 C 0.25916 0.58636 0.95938 0.0
C2439 C 0.27408 0.5972 0.96275 0.0
C2440 C 0.27273 0.61174 0.97452 0.0
C2441 C 0.28195 0.64524 0.07098 0.0
C2442 C 0.30066 0.64591 0.0687 0.0
C2443 C 0.27051 0.645 0.05614 0.0
C2444 C 0.27748 0.64545 0.03865 0.0
C2445 C 0.29613 0.6457 0.03627 0.0
C2446 C 0.3076 0.646 0.05113 0.0
C2447 C 0.2653 0.64576 0.02285 0.0
C2448 C 0.26664 0.63203 0.01005 0.0
C2449 C 0.25201 0.65911 0.02071 0.0
C2450 C 0.25038 0.6744 0.03334 0.0
C2451 C 0.26512 0.68567 0.0368 0.0
C2452 C 0.26352 0.69995 0.04885 0.0
C2453 C 0.24721 0.70318 0.05742 0.0
C2454 C 0.23245 0.69217 0.05392 0.0
C2455 C 0.23398 0.67785 0.0419 0.0
H2456 H 0.246 0.71425 0.06674 0.0
H2457 H 0.26023 0.57512 0.95025 0.0
H2458 H 0.68702 0.14275 0.46645 0.0
H2459 H 0.70709 0.14314 0.49236 0.0
H2460 H 0.75275 0.1452 0.4571 0.0
H2461 H 0.73294 0.14582 0.43113 0.0
H2462 H 0.75461 0.11863 0.48589 0.0
H2463 H 0.7425 0.1816 0.47581 0.0
H2464 H 0.72283 0.20782 0.47183 0.0
H2465 H 0.69997 0.19877 0.52394 0.0
H2466 H 0.71933 0.17231 0.52811 0.0
H2467 H 0.82405 0.13857 0.54747 0.0
H2468 H 0.80337 0.13781 0.522 0.0
H2469 H 0.75972 0.15192 0.55721 0.0
H2470 H 0.78058 0.15349 0.58249 0.0
H2471 H 0.7559 0.16973 0.52851 0.0
H2472 H 0.76693 0.10762 0.53976 0.0
H2473 H 0.78499 0.08037 0.54454 0.0
H2474 H 0.80763 0.08594 0.49187 0.0
H2475 H 0.78988 0.11336 0.48686 0.0
C2476 C 0.7013 0.14354 0.46412 0.0
C2477 C 0.70824 0.14422 0.44653 0.0
C2478 C 0.71276 0.14362 0.47899 0.0
C2479 C 0.73139 0.14418 0.47663 0.0
C2480 C 0.7384 0.14462 0.4592 0.0
C2481 C 0.72699 0.14484 0.44434 0.0
C2482 C 0.74363 0.14449 0.49233 0.0
C2483 C 0.75507 0.12986 0.49514 0.0
C2484 C 0.74379 0.1589 0.50464 0.0
C2485 C 0.73222 0.17486 0.50219 0.0
C2486 C 0.73316 0.1851 0.48635 0.0
C2487 C 0.72209 0.20002 0.48407 0.0
C2488 C 0.71012 0.20493 0.4976 0.0
C2489 C 0.70923 0.19494 0.51346 0.0
C2490 C 0.72025 0.17998 0.51579 0.0
C2491 C 0.81002 0.14143 0.54973 0.0
C2492 C 0.8039 0.14607 0.56692 0.0
C2493 C 0.79816 0.14091 0.53519 0.0
C2494 C 0.77983 0.1445 0.53764 0.0
C2495 C 0.77375 0.14911 0.55488 0.0
C2496 C 0.78566 0.14998 0.56934 0.0
C2497 C 0.76707 0.1438 0.52223 0.0
C2498 C 0.75549 0.15839 0.5194 0.0
C2499 C 0.76655 0.12916 0.51007 0.0
C2500 C 0.7772 0.11264 0.513 0.0
C2501 C 0.77585 0.1031 0.52925 0.0
C2502 C 0.78602 0.08762 0.53199 0.0
C2503 C 0.79748 0.08145 0.51853 0.0
C2504 C 0.79876 0.09074 0.50228 0.0
C2505 C 0.78864 0.10624 0.49948 0.0
H2506 H 0.80535 0.06946 0.52068 0.0
H2507 H 0.70156 0.21649 0.49582 0.0
H2508 H 0.1898 0.3814 0.54941 0.0
H2509 H 0.20988 0.38147 0.52344 0.0
H2510 H 0.25205 0.35933 0.55617 0.0
H2511 H 0.23217 0.35965 0.5822 0.0
H2512 H 0.2655 0.38424 0.5361 0.0
H2513 H 0.22729 0.33366 0.52502 0.0
H2514 H 0.19861 0.31765 0.52119 0.0
H2515 H 0.18545 0.35161 0.47655 0.0
H2516 H 0.21397 0.36799 0.48026 0.0
H2517 H 0.32258 0.35549 0.46504 0.0
H2518 H 0.30204 0.35587 0.49067 0.0
H2519 H 0.26318 0.38456 0.459 0.0
H2520 H 0.28354 0.38403 0.43327 0.0
H2521 H 0.24804 0.35658 0.47814 0.0
H2522 H 0.28727 0.40666 0.48958 0.0
H2523 H 0.31653 0.42155 0.49355 0.0
H2524 H 0.32837 0.38676 0.53792 0.0
H2525 H 0.29927 0.37149 0.53405 0.0
C2526 C 0.20333 0.37648 0.55102 0.0
C2527 C 0.2094 0.37055 0.56786 0.0
C2528 C 0.21481 0.37647 0.53615 0.0
C2529 C 0.23248 0.37018 0.53772 0.0
C2530 C 0.23853 0.3643 0.55457 0.0
C2531 C 0.22715 0.36451 0.56946 0.0
C2532 C 0.24476 0.3699 0.52194 0.0
C2533 C 0.26172 0.37796 0.52352 0.0
C2534 C 0.23982 0.36203 0.50534 0.0
C2535 C 0.22269 0.35217 0.50303 0.0
C2536 C 0.21822 0.3378 0.51447 0.0
C2537 C 0.202 0.32865 0.5123 0.0
C2538 C 0.19019 0.33364 0.49866 0.0
C2539 C 0.1946 0.34777 0.48712 0.0
C2540 C 0.2108 0.35699 0.48924 0.0
C2541 C 0.30964 0.36183 0.46352 0.0
C2542 C 0.30474 0.36981 0.44714 0.0
C2543 C 0.29795 0.36213 0.47821 0.0
C2544 C 0.28111 0.37037 0.4768 0.0
C2545 C 0.27611 0.37817 0.46041 0.0
C2546 C 0.28784 0.37799 0.44577 0.0
C2547 C 0.2687 0.37084 0.49241 0.0
C2548 C 0.25174 0.36283 0.49076 0.0
C2549 C 0.27371 0.37858 0.509 0.0
C2550 C 0.29116 0.38782 0.51142 0.0
C2551 C 0.29617 0.40209 0.50009 0.0
C2552 C 0.31271 0.41062 0.50234 0.0
C2553 C 0.32432 0.40507 0.51595 0.0
C2554 C 0.31938 0.39102 0.52737 0.0
C2555 C 0.30285 0.38244 0.52517 0.0
H2556 H 0.33713 0.41169 0.51766 0.0
H2557 H 0.17764 0.32654 0.49701 0.0
H2558 H 0.05085 0.69493 0.84869 0.0
H2559 H 0.02574 0.71582 0.84984 0.0
H2560 H 0.05022 0.74308 0.89464 0.0
H2561 H 0.0754 0.72209 0.89362 0.0
H2562 H 0.01485 0.73997 0.8997 0.0
H2563 H 0.05272 0.76047 0.85212 0.0
H2564 H 0.07044 0.75794 0.82432 0.0
H2565 H 0.0231 0.74337 0.79501 0.0
H2566 H 1.00513 0.74557 0.8227 0.0
H2567 H 0.96033 0.81878 0.89112 0.0
H2568 H 0.98565 0.79803 0.89282 0.0
H2569 H 0.96321 0.76687 0.84954 0.0
H2570 H 0.93778 0.78727 0.84795 0.0
H2571 H 0.99854 0.77319 0.84438 0.0
H2572 H 0.96092 0.75205 0.89247 0.0
H2573 H 0.94341 0.75489 0.92037 0.0
H2574 H 0.99067 0.77138 0.9488 0.0
H2575 H 0.00842 0.76887 0.92099 0.0
C2576 C 0.05091 0.70537 0.85879 0.0
C2577 C 0.06521 0.70692 0.87097 0.0
C2578 C 0.03654 0.71733 0.85943 0.0
C2579 C 0.03622 0.73126 0.87211 0.0
C2580 C 0.05018 0.73248 0.8847 0.0
C2581 C 0.06454 0.72043 0.88413 0.0
C2582 C 0.02149 0.74471 0.87197 0.0
C2583 C 0.01146 0.74743 0.88768 0.0
C2584 C 0.01685 0.75429 0.85622 0.0
C2585 C 0.0276 0.75303 0.83952 0.0
C2586 C 0.04611 0.7566 0.83977 0.0
C2587 C 0.05619 0.75524 0.82403 0.0
C2588 C 0.0479 0.75046 0.80792 0.0
C2589 C 0.0295 0.74706 0.80751 0.0
C2590 C 0.01936 0.74837 0.82322 0.0
C2591 C 0.96067 0.8074 0.88209 0.0
C2592 C 0.947 0.8048 0.86933 0.0
C2593 C 0.97519 0.79557 0.88305 0.0
C2594 C 0.97631 0.78084 0.87134 0.0
C2595 C 0.9627 0.77819 0.85865 0.0
C2596 C 0.94819 0.78996 0.8577 0.0
C2597 C 0.99177 0.76828 0.87204 0.0
C2598 C 1.00197 0.76578 0.85643 0.0
C2599 C 0.9966 0.75898 0.88788 0.0
C2600 C 0.98596 0.76046 0.90461 0.0
C2601 C 0.96755 0.75643 0.90464 0.0
C2602 C 0.95759 0.75795 0.92044 0.0
C2603 C 0.96591 0.76336 0.93634 0.0
C2604 C 0.98423 0.76721 0.93647 0.0
C2605 C 0.99425 0.76574 0.9207 0.0
H2606 H 0.95818 0.76452 0.94856 0.0
H2607 H 0.05574 0.74942 0.79575 0.0
H2608 H 0.04621 0.32669 0.64391 0.0
H2609 H 0.02054 0.30631 0.64458 0.0
H2610 H 0.0557 0.26108 0.63809 0.0
H2611 H 0.08159 0.28106 0.63862 0.0
H2612 H 0.02277 0.26339 0.61403 0.0
H2613 H 0.04259 0.26464 0.67595 0.0
H2614 H 0.05104 0.27978 0.70412 0.0
H2615 H 0.9991 0.30414 0.70697 0.0
H2616 H 0.99043 0.28936 0.67863 0.0
H2617 H 0.96297 0.19134 0.63204 0.0
H2618 H 0.98863 0.21182 0.63057 0.0
H2619 H 0.95735 0.25312 0.65623 0.0
H2620 H 0.93191 0.23248 0.65822 0.0
H2621 H 0.98855 0.25345 0.67025 0.0
H2622 H 0.96762 0.2531 0.60978 0.0
H2623 H 0.95813 0.24 0.58093 0.0
H2624 H 0.01016 0.21662 0.57407 0.0
H2625 H 0.01989 0.22939 0.60302 0.0
C2626 C 0.04863 0.31242 0.64288 0.0
C2627 C 0.06618 0.30567 0.64124 0.0
C2628 C 0.03386 0.3008 0.64309 0.0
C2629 C 0.03625 0.28222 0.64136 0.0
C2630 C 0.05359 0.27541 0.63932 0.0
C2631 C 0.06839 0.28695 0.63948 0.0
C2632 C 0.02068 0.26985 0.64206 0.0
C2633 C 0.01537 0.261 0.62633 0.0
C2634 C 0.01078 0.26723 0.658 0.0
C2635 C 0.01595 0.27607 0.67506 0.0
C2636 C 0.03303 0.27338 0.68248 0.0
C2637 C 0.03785 0.28186 0.6985 0.0
C2638 C 0.02564 0.29296 0.7073 0.0
C2639 C 0.00856 0.29557 0.70012 0.0
C2640 C 1.00369 0.28713 0.68408 0.0
C2641 C 0.96158 0.20483 0.63727 0.0
C2642 C 0.94545 0.21031 0.64526 0.0
C2643 C 0.97623 0.21657 0.63638 0.0
C2644 C 0.97493 0.23417 0.64307 0.0
C2645 C 0.95878 0.23963 0.65101 0.0
C2646 C 0.94423 0.22782 0.65214 0.0
C2647 C 0.99046 0.2468 0.64214 0.0
C2648 C 0.99583 0.25575 0.65786 0.0
C2649 C 1.00021 0.24976 0.62607 0.0
C2650 C 0.99442 0.24205 0.60866 0.0
C2651 C 0.97699 0.24505 0.60219 0.0
C2652 C 0.97158 0.2377 0.58581 0.0
C2653 C 0.98352 0.22744 0.5757 0.0
C2654 C 1.00091 0.22455 0.58193 0.0
C2655 C 0.00639 0.23185 0.59832 0.0
H2656 H 0.9793 0.22177 0.56301 0.0
H2657 H 0.02938 0.29951 0.71971 0.0
H2658 H 0.58208 0.23487 0.37411 0.0
H2659 H 0.55587 0.25438 0.37455 0.0
H2660 H 0.52166 0.2087 0.36473 0.0
H2661 H 0.54793 0.18913 0.36374 0.0
H2662 H 0.5127 0.23674 0.34358 0.0
H2663 H 0.52433 0.22786 0.40638 0.0
H2664 H 0.54279 0.22777 0.43381 0.0
H2665 H 0.55208 0.28441 0.42816 0.0
H2666 H 0.53386 0.28479 0.40055 0.0
H2667 H 0.43016 0.2794 0.36117 0.0
H2668 H 0.45609 0.25952 0.36224 0.0
H2669 H 0.49004 0.30455 0.37552 0.0
H2670 H 0.46398 0.32447 0.37482 0.0
H2671 H 0.49923 0.27675 0.39499 0.0
H2672 H 0.48835 0.28602 0.33233 0.0
H2673 H 0.4705 0.28663 0.30451 0.0
H2674 H 0.4606 0.23001 0.30923 0.0
H2675 H 0.47818 0.22911 0.33723 0.0
C2676 C 0.569 0.22896 0.37195 0.0
C2677 C 0.56714 0.2104 0.36887 0.0
C2678 C 0.55399 0.24013 0.37238 0.0
C2679 C 0.53675 0.23301 0.36986 0.0
C2680 C 0.53482 0.2145 0.36677 0.0
C2681 C 0.54984 0.2033 0.36636 0.0
C2682 C 0.52078 0.24494 0.37006 0.0
C2683 C 0.5096 0.24529 0.35493 0.0
C2684 C 0.51701 0.25651 0.38465 0.0
C2685 C 0.52787 0.25632 0.40131 0.0
C2686 C 0.53042 0.24027 0.41092 0.0
C2687 C 0.54082 0.24017 0.42651 0.0
C2688 C 0.54864 0.25607 0.4327 0.0
C2689 C 0.54603 0.27211 0.42334 0.0
C2690 C 0.53565 0.27228 0.40773 0.0
C2691 C 0.44317 0.28509 0.36425 0.0
C2692 C 0.44504 0.30355 0.36776 0.0
C2693 C 0.458 0.27371 0.36482 0.0
C2694 C 0.47514 0.28055 0.36861 0.0
C2695 C 0.47699 0.29893 0.37251 0.0
C2696 C 0.46209 0.31031 0.37213 0.0
C2697 C 0.49108 0.26854 0.36851 0.0
C2698 C 0.50229 0.26819 0.38364 0.0
C2699 C 0.49496 0.25705 0.35386 0.0
C2700 C 0.48444 0.25754 0.33697 0.0
C2701 C 0.48226 0.27373 0.32751 0.0
C2702 C 0.4722 0.27412 0.31169 0.0
C2703 C 0.46438 0.25838 0.30513 0.0
C2704 C 0.46664 0.2422 0.31434 0.0
C2705 C 0.47666 0.24174 0.33018 0.0
H2706 H 0.45661 0.25871 0.29288 0.0
H2707 H 0.55669 0.25596 0.44477 0.0
H2708 H 0.66647 0.57421 0.72335 0.0
H2709 H 0.66539 0.5487 0.74391 0.0
H2710 H 0.619 0.52804 0.71618 0.0
H2711 H 0.61976 0.55394 0.69583 0.0
H2712 H 0.61446 0.52397 0.75066 0.0
H2713 H 0.66225 0.51015 0.71028 0.0
H2714 H 0.69027 0.51553 0.69359 0.0
H2715 H 0.71901 0.52097 0.74318 0.0
H2716 H 0.69111 0.51586 0.76018 0.0
H2717 H 0.62124 0.43629 0.78987 0.0
H2718 H 0.62 0.46174 0.76914 0.0
H2719 H 0.66371 0.48708 0.79728 0.0
H2720 H 0.66494 0.46179 0.81813 0.0
H2721 H 0.66905 0.48781 0.76158 0.0
H2722 H 0.62053 0.50197 0.80175 0.0
H2723 H 0.59234 0.49598 0.81794 0.0
H2724 H 0.56482 0.48888 0.76786 0.0
H2725 H 0.59292 0.49459 0.75136 0.0
C2726 C 0.6561 0.56417 0.72156 0.0
C2727 C 0.64331 0.56598 0.70784 0.0
C2728 C 0.65551 0.54955 0.73331 0.0
C2729 C 0.64234 0.53617 0.73141 0.0
C2730 C 0.62934 0.53812 0.71791 0.0
C2731 C 0.62978 0.55291 0.70628 0.0
C2732 C 0.64217 0.52024 0.74357 0.0
C2733 C 0.62634 0.51591 0.75282 0.0
C2734 C 0.65772 0.50981 0.74668 0.0
C2735 C 0.67455 0.51277 0.7365 0.0
C2736 C 0.67452 0.51261 0.71762 0.0
C2737 C 0.69038 0.5156 0.70811 0.0
C2738 C 0.7064 0.51863 0.71732 0.0
C2739 C 0.70659 0.51864 0.73607 0.0
C2740 C 0.69076 0.51568 0.74565 0.0
C2741 C 0.6304 0.44741 0.79184 0.0
C2742 C 0.64319 0.44696 0.8057 0.0
C2743 C 0.62971 0.46194 0.77992 0.0
C2744 C 0.6417 0.4764 0.78168 0.0
C2745 C 0.65437 0.47606 0.79559 0.0
C2746 C 0.65508 0.46155 0.80749 0.0
C2747 C 0.64142 0.49169 0.76879 0.0
C2748 C 0.65717 0.49586 0.75937 0.0
C2749 C 0.62578 0.50185 0.76543 0.0
C2750 C 0.60886 0.49853 0.77533 0.0
C2751 C 0.6085 0.499 0.79419 0.0
C2752 C 0.59253 0.49567 0.80342 0.0
C2753 C 0.57681 0.492 0.79393 0.0
C2754 C 0.57702 0.4917 0.77519 0.0
C2755 C 0.59295 0.495 0.76589 0.0
H2756 H 0.56447 0.48943 0.80111 0.0
H2757 H 0.71867 0.52095 0.70993 0.0
H2758 H 0.37591 0.08359 0.7797 0.0
H2759 H 0.37635 0.05794 0.75921 0.0
H2760 H 0.36685 0.02206 0.80366 0.0
H2761 H 0.36662 0.04766 0.82428 0.0
H2762 H 0.39297 0.00949 0.78088 0.0
H2763 H 0.33325 0.03262 0.77627 0.0
H2764 H 0.3103 0.05582 0.77131 0.0
H2765 H 0.32991 0.06439 0.71782 0.0
H2766 H 0.35317 0.04141 0.72256 0.0
H2767 H 0.36743 0.93165 0.73264 0.0
H2768 H 0.36822 0.95763 0.75256 0.0
H2769 H 0.37412 0.99272 0.70688 0.0
H2770 H 0.37335 0.96672 0.68681 0.0
H2771 H 0.35031 1.00608 0.72997 0.0
H2772 H 0.40982 0.98283 0.73427 0.0
H2773 H 0.43291 0.95976 0.73912 0.0
H2774 H 0.41406 0.95161 0.79295 0.0
H2775 H 0.39067 0.97447 0.78834 0.0
C2776 C 0.37411 0.07023 0.78515 0.0
C2777 C 0.37122 0.06767 0.80364 0.0
C2778 C 0.37421 0.05559 0.7734 0.0
C2779 C 0.37146 0.03809 0.77987 0.0
C2780 C 0.36895 0.03545 0.79836 0.0
C2781 C 0.36871 0.0501 0.81011 0.0
C2782 C 0.37113 0.02254 0.76736 0.0
C2783 C 0.3835 0.00863 0.76988 0.0
C2784 C 0.35906 0.02163 0.75273 0.0
C2785 C 0.34508 0.03544 0.74984 0.0
C2786 C 0.33278 0.03957 0.76351 0.0
C2787 C 0.31969 0.05265 0.76073 0.0
C2788 C 0.31868 0.06161 0.74428 0.0
C2789 C 0.33073 0.05746 0.73056 0.0
C2790 C 0.34386 0.0444 0.73329 0.0
C2791 C 0.36912 0.94487 0.72681 0.0
C2792 C 0.37048 0.94705 0.7081 0.0
C2793 C 0.36953 0.95974 0.73824 0.0
C2794 C 0.37148 0.97715 0.73127 0.0
C2795 C 0.37262 0.97943 0.71259 0.0
C2796 C 0.37215 0.96454 0.70112 0.0
C2797 C 0.37215 0.99297 0.74348 0.0
C2798 C 0.35983 1.00694 0.74092 0.0
C2799 C 0.3843 0.99396 0.75806 0.0
C2800 C 0.39838 0.98024 0.7609 0.0
C2801 C 0.4105 0.97602 0.7471 0.0
C2802 C 0.42366 0.963 0.74981 0.0
C2803 C 0.42493 0.95419 0.76632 0.0
C2804 C 0.41305 0.95843 0.78017 0.0
C2805 C 0.39985 0.97142 0.77751 0.0
H2806 H 0.43513 0.94412 0.7684 0.0
H2807 H 0.30853 0.07173 0.74215 0.0
H2808 H 0.44131 0.21884 0.89604 0.0
H2809 H 0.46734 0.2388 0.89596 0.0
H2810 H 0.48227 0.21912 0.84363 0.0
H2811 H 0.4564 0.19886 0.84384 0.0
H2812 H 0.51102 0.22283 0.863 0.0
H2813 H 0.46115 0.26044 0.84979 0.0
H2814 H 0.43134 0.2739 0.85407 0.0
H2815 H 0.44828 0.29621 0.9044 0.0
H2816 H 0.47813 0.28266 0.90054 0.0
H2817 H 0.56674 0.29694 0.83804 0.0
H2818 H 0.54145 0.27624 0.83977 0.0
H2819 H 0.5366 0.28648 0.89643 0.0
H2820 H 0.56257 0.30652 0.89515 0.0
H2821 H 0.50313 0.2878 0.87524 0.0
H2822 H 0.55401 0.24979 0.88675 0.0
H2823 H 0.58376 0.2371 0.88026 0.0
H2824 H 0.5644 0.21648 0.83008 0.0
H2825 H 0.53459 0.22931 0.83614 0.0
C2826 C 0.45015 0.21876 0.88452 0.0
C2827 C 0.44675 0.20732 0.86991 0.0
C2828 C 0.46501 0.23023 0.88446 0.0
C2829 C 0.47664 0.23076 0.86964 0.0
C2830 C 0.47351 0.21901 0.85522 0.0
C2831 C 0.45874 0.20739 0.85536 0.0
C2832 C 0.49197 0.24363 0.86913 0.0
C2833 C 0.50921 0.23706 0.86548 0.0
C2834 C 0.48976 0.26222 0.87257 0.0
C2835 C 0.47182 0.27037 0.87496 0.0
C2836 C 0.45847 0.26809 0.86184 0.0
C2837 C 0.44157 0.27576 0.86418 0.0
C2838 C 0.4379 0.28586 0.87952 0.0
C2839 C 0.45114 0.28835 0.89254 0.0
C2840 C 0.46805 0.28069 0.89028 0.0
C2841 C 0.56056 0.29466 0.85098 0.0
C2842 C 0.56696 0.30339 0.8665 0.0
C2843 C 0.54596 0.2829 0.85188 0.0
C2844 C 0.53723 0.27977 0.86823 0.0
C2845 C 0.54316 0.28876 0.88366 0.0
C2846 C 0.55797 0.30032 0.88285 0.0
C2847 C 0.52201 0.26694 0.86918 0.0
C2848 C 0.50485 0.27355 0.87285 0.0
C2849 C 0.52423 0.24846 0.86546 0.0
C2850 C 0.54212 0.24068 0.86182 0.0
C2851 C 0.55614 0.2427 0.87425 0.0
C2852 C 0.57301 0.23545 0.87067 0.0
C2853 C 0.57598 0.22603 0.85474 0.0
C2854 C 0.56208 0.22381 0.84239 0.0
C2855 C 0.54519 0.23105 0.8459 0.0
H2856 H 0.58904 0.22042 0.852 0.0
H2857 H 0.42481 0.2918 0.8813 0.0
H2858 H 0.33949 0.55875 0.20365 0.0
H2859 H 0.3413 0.53329 0.22419 0.0
H2860 H 0.39779 0.54298 0.23129 0.0
H2861 H 0.39605 0.56881 0.21099 0.0
H2862 H 0.38958 0.50668 0.22696 0.0
H2863 H 0.36973 0.55618 0.26303 0.0
H2864 H 0.3504 0.58179 0.27078 0.0
H2865 H 0.30465 0.5468 0.27283 0.0
H2866 H 0.32368 0.52101 0.26482 0.0
H2867 H 0.39806 0.44825 0.30205 0.0
H2868 H 0.39895 0.47442 0.28232 0.0
H2869 H 0.34135 0.47323 0.27823 0.0
H2870 H 0.34026 0.44781 0.29878 0.0
H2871 H 0.35163 0.50616 0.2816 0.0
H2872 H 0.37019 0.45711 0.24419 0.0
H2873 H 0.38864 0.43114 0.23549 0.0
H2874 H 0.4356 0.46453 0.23495 0.0
H2875 H 0.41745 0.49067 0.24388 0.0
C2876 C 0.35231 0.55558 0.20964 0.0
C2877 C 0.36759 0.566 0.20577 0.0
C2878 C 0.35332 0.54096 0.22135 0.0
C2879 C 0.36963 0.53637 0.22947 0.0
C2880 C 0.38506 0.54631 0.22519 0.0
C2881 C 0.38404 0.56102 0.21351 0.0
C2882 C 0.37042 0.5214 0.24265 0.0
C2883 C 0.38149 0.50666 0.23906 0.0
C2884 C 0.35956 0.52121 0.25823 0.0
C2885 C 0.34811 0.53668 0.26317 0.0
C2886 C 0.35553 0.55396 0.265 0.0
C2887 C 0.34463 0.56851 0.26946 0.0
C2888 C 0.3263 0.56593 0.27226 0.0
C2889 C 0.31885 0.54878 0.27064 0.0
C2890 C 0.32969 0.53419 0.26616 0.0
C2891 C 0.38554 0.45367 0.29717 0.0
C2892 C 0.36909 0.44575 0.30199 0.0
C2893 C 0.38609 0.46854 0.28566 0.0
C2894 C 0.37023 0.47567 0.27848 0.0
C2895 C 0.3538 0.46796 0.28348 0.0
C2896 C 0.35322 0.45324 0.29511 0.0
C2897 C 0.37063 0.49122 0.26585 0.0
C2898 C 0.35979 0.50613 0.26956 0.0
C2899 C 0.38157 0.49148 0.25029 0.0
C2900 C 0.3925 0.47579 0.24489 0.0
C2901 C 0.38447 0.45888 0.24235 0.0
C2902 C 0.39487 0.44414 0.23736 0.0
C2903 C 0.41329 0.44617 0.23472 0.0
C2904 C 0.42134 0.46297 0.23703 0.0
C2905 C 0.411 0.47775 0.24204 0.0
H2906 H 0.42131 0.43474 0.23085 0.0
H2907 H 0.31789 0.57722 0.27571 0.0
H2908 H 0.64936 0.05005 0.32309 0.0
H2909 H 0.64927 0.02394 0.30319 0.0
H2910 H 0.63234 0.05742 0.25916 0.0
H2911 H 0.632 0.08352 0.27907 0.0
H2912 H 0.61417 0.02571 0.25963 0.0
H2913 H 0.67556 0.04479 0.26278 0.0
H2914 H 0.70376 0.05313 0.27785 0.0
H2915 H 0.70661 1.00079 0.30184 0.0
H2916 H 0.67827 0.99221 0.2871 0.0
H2917 H 0.63464 0.96456 0.18898 0.0
H2918 H 0.633 0.99069 0.2088 0.0
H2919 H 0.65319 0.9588 0.25265 0.0
H2920 H 0.65497 0.93272 0.23291 0.0
H2921 H 0.66964 0.99004 0.25208 0.0
H2922 H 0.60831 0.97085 0.24929 0.0
H2923 H 0.58002 0.96235 0.23447 0.0
H2924 H 0.57688 0.01454 0.2102 0.0
H2925 H 0.6053 0.02327 0.22469 0.0
C2926 C 0.64539 0.05183 0.30923 0.0
C2927 C 0.64076 0.06891 0.30268 0.0
C2928 C 0.64551 0.03691 0.29782 0.0
C2929 C 0.64102 0.03874 0.2796 0.0
C2930 C 0.63593 0.05568 0.27313 0.0
C2931 C 0.63588 0.07061 0.28451 0.0
C2932 C 0.64184 0.02306 0.26726 0.0
C2933 C 0.62636 0.01804 0.25781 0.0
C2934 C 0.65763 0.01281 0.26514 0.0
C2935 C 0.67469 0.01792 0.27398 0.0
C2936 C 0.68212 0.03511 0.27139 0.0
C2937 C 0.69814 0.03987 0.27985 0.0
C2938 C 0.70694 0.02752 0.29083 0.0
C2939 C 0.69976 0.01036 0.29334 0.0
C2940 C 0.68373 1.00553 0.28493 0.0
C2941 C 0.63857 0.96308 0.20289 0.0
C2942 C 0.64496 0.94654 0.20933 0.0
C2943 C 0.63763 0.97804 0.21422 0.0
C2944 C 0.64282 0.97672 0.23232 0.0
C2945 C 0.64917 0.96021 0.23876 0.0
C2946 C 0.65021 0.9453 0.22742 0.0
C2947 C 0.64193 0.99257 0.2445 0.0
C2948 C 0.65742 0.99767 0.25391 0.0
C2949 C 0.62613 1.00284 0.24661 0.0
C2950 C 0.60902 0.99765 0.23793 0.0
C2951 C 0.60166 0.98046 0.24068 0.0
C2952 C 0.58559 0.97561 0.23236 0.0
C2953 C 0.57668 0.98788 0.22136 0.0
C2954 C 0.58381 1.00504 0.2187 0.0
C2955 C 0.59989 0.00996 0.22698 0.0
H2956 H 0.56424 0.9841 0.21494 0.0
H2957 H 0.71935 0.03123 0.29737 0.0
H2958 H 0.54711 0.82368 0.15722 0.0
H2959 H 0.52188 0.80264 0.15714 0.0
H2960 H 0.55503 0.7627 0.13169 0.0
H2961 H 0.58007 0.78394 0.13121 0.0
H2962 H 0.52403 0.76152 0.11707 0.0
H2963 H 0.54383 0.76188 0.17804 0.0
H2964 H 0.55231 0.77512 0.20714 0.0
H2965 H 0.49946 0.79685 0.21301 0.0
H2966 H 0.49073 0.78394 0.18381 0.0
H2967 H 0.46549 0.68756 0.13714 0.0
H2968 H 0.49145 0.70787 0.13721 0.0
H2969 H 0.45729 0.75185 0.15248 0.0
H2970 H 0.43137 0.73168 0.15243 0.0
H2971 H 0.48914 0.74998 0.17256 0.0
H2972 H 0.47021 0.74904 0.11058 0.0
H2973 H 0.46248 0.73439 0.08194 0.0
H2974 H 0.51519 0.71174 0.07896 0.0
H2975 H 0.52315 0.72606 0.10773 0.0
C2976 C 0.54898 0.8104 0.15161 0.0
C2977 C 0.56555 0.80545 0.14422 0.0
C2978 C 0.53458 0.79834 0.15165 0.0
C2979 C 0.53657 0.7809 0.14471 0.0
C2980 C 0.55309 0.77604 0.13713 0.0
C2981 C 0.5674 0.78819 0.13684 0.0
C2982 C 0.52144 0.76777 0.1452 0.0
C2983 C 0.51661 0.75884 0.1293 0.0
C2984 C 0.5115 0.76433 0.16106 0.0
C2985 C 0.51668 0.77208 0.17865 0.0
C2986 C 0.53406 0.76959 0.18547 0.0
C2987 C 0.5389 0.77702 0.202 0.0
C2988 C 0.52645 0.78686 0.2119 0.0
C2989 C 0.5091 0.78925 0.20531 0.0
C2990 C 0.50419 0.78186 0.18879 0.0
C2991 C 0.46355 0.70154 0.14057 0.0
C2992 C 0.44638 0.70805 0.14466 0.0
C2993 C 0.47836 0.71314 0.14053 0.0
C2994 C 0.47627 0.7314 0.14475 0.0
C2995 C 0.4592 0.73783 0.14916 0.0
C2996 C 0.44439 0.72632 0.14899 0.0
C2997 C 0.49182 0.74389 0.14448 0.0
C2998 C 0.49668 0.75267 0.1604 0.0
C2999 C 0.50195 0.74699 0.12874 0.0
C3000 C 0.49721 0.73846 0.1114 0.0
C3001 C 0.4801 0.74081 0.10389 0.0
C3002 C 0.47569 0.73259 0.08762 0.0
C3003 C 0.48832 0.7221 0.07866 0.0
C3004 C 0.50541 0.71985 0.08593 0.0
C3005 C 0.50988 0.72802 0.10221 0.0
H3006 H 0.48488 0.71575 0.06606 0.0
H3007 H 0.53022 0.7926 0.22469 0.0
loop_
_geom_bond_atom_site_label_1
_geom_bond_atom_site_label_2
_geom_bond_distance
_geom_bond_site_symmetry_2
_ccdc_geom_bond_type
Li0 N17 1.990 . S
Li0 O60 1.956 . S
Li0 O61 1.970 . S
Li0 O62 1.961 . S
Li1 N25 1.990 . S
Li1 O60 1.970 . S
Li1 O61 1.956 . S
Li1 O63 1.961 . S
Li2 N47 1.990 . S
Li2 O60 1.961 . S
Li2 O62 1.956 . S
Li2 O63 1.970 . S
Li3 N53 1.990 . S
Li3 O61 1.961 . S
Li3 O62 1.970 . S
Li3 O63 1.956 . S
C4 C6 1.348 . S
C4 C7 1.356 . S
C4 O60 1.325 . S
N5 C8 1.314 . S
N5 C9 1.279 . S
C6 C4 1.348 . S
C6 C8 1.353 . S
C6 H64 0.929 . S
C7 C4 1.356 . S
C7 C9 1.358 . S
C7 H65 0.930 . S
C8 N5 1.314 . S
C8 C6 1.353 . S
C8 H66 0.930 . S
C9 N5 1.279 . S
C9 C7 1.358 . S
C9 H67 0.930 . S
C10 C13 1.348 . S
C10 C14 1.356 . S
C10 O61 1.325 . S
C11 N12 1.279 . S
C11 C14 1.358 . S
C11 H68 0.930 . S
N12 C11 1.279 . S
N12 C15 1.314 . S
C13 C10 1.348 . S
C13 C15 1.353 . S
C13 H69 0.929 . S
C14 C10 1.356 . S
C14 C11 1.358 . S
C14 H70 0.930 . S
C15 N12 1.314 . S
C15 C13 1.353 . S
C15 H71 0.930 . S
C16 N17 1.314 . S
C16 C21 1.353 . S
C16 H22 0.930 . S
N17 Li0 1.990 . S
N17 C16 1.314 . S
N17 C19 1.279 . S
C18 C19 1.358 . S
C18 C20 1.356 . S
C18 H72 0.930 . S
C19 N17 1.279 . S
C19 C18 1.358 . S
C19 H23 0.930 . S
C20 C18 1.356 . S
C20 C21 1.348 . S
C21 C16 1.353 . S
C21 C20 1.348 . S
C21 H73 0.929 . S
H22 C16 0.930 . S
H23 C19 0.930 . S
C24 N25 1.314 . S
C24 C26 1.353 . S
C24 H30 0.930 . S
N25 Li1 1.990 . S
N25 C24 1.314 . S
N25 C28 1.279 . S
C26 C24 1.353 . S
C26 C29 1.348 . S
C26 H74 0.929 . S
C27 C28 1.358 . S
C27 C29 1.356 . S
C27 H75 0.930 . S
C28 N25 1.279 . S
C28 C27 1.358 . S
C28 H31 0.930 . S
C29 C26 1.348 . S
C29 C27 1.356 . S
H30 C24 0.930 . S
H31 C28 0.930 . S
C32 C34 1.348 . S
C32 C35 1.356 . S
C32 O62 1.325 . S
N33 C36 1.314 . S
N33 C37 1.279 . S
C34 C32 1.348 . S
C34 C36 1.353 . S
C34 H76 0.929 . S
C35 C32 1.356 . S
C35 C37 1.358 . S
C35 H77 0.930 . S
C36 N33 1.314 . S
C36 C34 1.353 . S
C36 H78 0.930 . S
C37 N33 1.279 . S
C37 C35 1.358 . S
C37 H79 0.930 . S
C38 C39 1.348 . S
C38 C40 1.356 . S
C38 O63 1.325 . S
C39 C38 1.348 . S
C39 C41 1.353 . S
C39 H80 0.929 . S
C40 C38 1.356 . S
C40 C42 1.358 . S
C40 H81 0.930 . S
C41 C39 1.353 . S
C41 N43 1.314 . S
C41 H82 0.930 . S
C42 C40 1.358 . S
C42 N43 1.279 . S
C42 H83 0.930 . S
N43 C41 1.314 . S
N43 C42 1.279 . S
C44 C46 1.353 . S
C44 N47 1.314 . S
C44 H50 0.930 . S
C45 N47 1.279 . S
C45 C48 1.358 . S
C45 H51 0.930 . S
C46 C44 1.353 . S
C46 C49 1.348 . S
C46 H84 0.929 . S
N47 Li2 1.990 . S
N47 C44 1.314 . S
N47 C45 1.279 . S
C48 C45 1.358 . S
C48 C49 1.356 . S
C48 H85 0.930 . S
C49 C46 1.348 . S
C49 C48 1.356 . S
H50 C44 0.930 . S
H51 C45 0.930 . S
C52 N53 1.314 . S
C52 C54 1.353 . S
C52 H58 0.930 . S
N53 Li3 1.990 . S
N53 C52 1.314 . S
N53 C56 1.279 . S
C54 C52 1.353 . S
C54 C57 1.348 . S
C54 H86 0.929 . S
C55 C56 1.358 . S
C55 C57 1.356 . S
C55 H87 0.930 . S
C56 N53 1.279 . S
C56 C55 1.358 . S
C56 H59 0.930 . S
C57 C54 1.348 . S
C57 C55 1.356 . S
H58 C52 0.930 . S
H59 C56 0.930 . S
O60 Li0 1.956 . S
O60 Li1 1.970 . S
O60 Li2 1.961 . S
O60 C4 1.325 . S
O61 Li0 1.970 . S
O61 Li1 1.956 . S
O61 Li3 1.961 . S
O61 C10 1.325 . S
O62 Li0 1.961 . S
O62 Li2 1.956 . S
O62 Li3 1.970 . S
O62 C32 1.325 . S
O63 Li1 1.961 . S
O63 Li2 1.970 . S
O63 Li3 1.956 . S
O63 C38 1.325 . S
H64 C6 0.929 . S
H65 C7 0.930 . S
H66 C8 0.930 . S
H67 C9 0.930 . S
H68 C11 0.930 . S
H69 C13 0.929 . S
H70 C14 0.930 . S
H71 C15 0.930 . S
H72 C18 0.930 . S
H73 C21 0.929 . S
H74 C26 0.929 . S
H75 C27 0.930 . S
H76 C34 0.929 . S
H77 C35 0.930 . S
H78 C36 0.930 . S
H79 C37 0.930 . S
H80 C39 0.929 . S
H81 C40 0.930 . S
H82 C41 0.930 . S
H83 C42 0.930 . S
H84 C46 0.929 . S
H85 C48 0.930 . S
H86 C54 0.929 . S
H87 C55 0.930 . S
Li88 N105 1.990 . S
Li88 O148 1.956 . S
Li88 O149 1.970 . S
Li88 O150 1.961 . S
Li89 N113 1.990 . S
Li89 O148 1.970 . S
Li89 O149 1.956 . S
Li89 O151 1.961 . S
Li90 N135 1.990 . S
Li90 O148 1.961 . S
Li90 O150 1.956 . S
Li90 O151 1.970 . S
Li91 N141 1.990 . S
Li91 O149 1.961 . S
Li91 O150 1.970 . S
Li91 O151 1.956 . S
C92 C94 1.348 . S
C92 C95 1.356 . S
C92 O148 1.325 . S
N93 C96 1.314 . S
N93 C97 1.279 . S
C94 C92 1.348 . S
C94 C96 1.353 . S
C94 H152 0.929 . S
C95 C92 1.356 . S
C95 C97 1.358 . S
C95 H153 0.930 . S
C96 N93 1.314 . S
C96 C94 1.353 . S
C96 H154 0.930 . S
C97 N93 1.279 . S
C97 C95 1.358 . S
C97 H155 0.930 . S
C98 C101 1.348 . S
C98 C102 1.356 . S
C98 O149 1.325 . S
C99 N100 1.279 . S
C99 C102 1.358 . S
C99 H156 0.930 . S
N100 C99 1.279 . S
N100 C103 1.314 . S
C101 C98 1.348 . S
C101 C103 1.353 . S
C101 H157 0.929 . S
C102 C98 1.356 . S
C102 C99 1.358 . S
C102 H158 0.930 . S
C103 N100 1.314 . S
C103 C101 1.353 . S
C103 H159 0.930 . S
C104 N105 1.314 . S
C104 C109 1.353 . S
C104 H110 0.930 . S
N105 Li88 1.990 . S
N105 C104 1.314 . S
N105 C107 1.279 . S
C106 C107 1.358 . S
C106 C108 1.356 . S
C106 H160 0.930 . S
C107 N105 1.279 . S
C107 C106 1.358 . S
C107 H111 0.930 . S
C108 C106 1.356 . S
C108 C109 1.348 . S
C109 C104 1.353 . S
C109 C108 1.348 . S
C109 H161 0.929 . S
H110 C104 0.930 . S
H111 C107 0.930 . S
C112 N113 1.314 . S
C112 C114 1.353 . S
C112 H118 0.930 . S
N113 Li89 1.990 . S
N113 C112 1.314 . S
N113 C116 1.279 . S
C114 C112 1.353 . S
C114 C117 1.348 . S
C114 H162 0.929 . S
C115 C116 1.358 . S
C115 C117 1.356 . S
C115 H163 0.930 . S
C116 N113 1.279 . S
C116 C115 1.358 . S
C116 H119 0.930 . S
C117 C114 1.348 . S
C117 C115 1.356 . S
H118 C112 0.930 . S
H119 C116 0.930 . S
C120 C122 1.348 . S
C120 C123 1.356 . S
C120 O150 1.325 . S
N121 C124 1.314 . S
N121 C125 1.279 . S
C122 C120 1.348 . S
C122 C124 1.353 . S
C122 H164 0.929 . S
C123 C120 1.356 . S
C123 C125 1.358 . S
C123 H165 0.930 . S
C124 N121 1.314 . S
C124 C122 1.353 . S
C124 H166 0.930 . S
C125 N121 1.279 . S
C125 C123 1.358 . S
C125 H167 0.930 . S
C126 C127 1.348 . S
C126 C128 1.356 . S
C126 O151 1.325 . S
C127 C126 1.348 . S
C127 C129 1.353 . S
C127 H168 0.929 . S
C128 C126 1.356 . S
C128 C130 1.358 . S
C128 H169 0.930 . S
C129 C127 1.353 . S
C129 N131 1.314 . S
C129 H170 0.930 . S
C130 C128 1.358 . S
C130 N131 1.279 . S
C130 H171 0.930 . S
N131 C129 1.314 . S
N131 C130 1.279 . S
C132 C134 1.353 . S
C132 N135 1.314 . S
C132 H138 0.930 . S
C133 N135 1.279 . S
C133 C136 1.358 . S
C133 H139 0.930 . S
C134 C132 1.353 . S
C134 C137 1.348 . S
C134 H172 0.929 . S
N135 Li90 1.990 . S
N135 C132 1.314 . S
N135 C133 1.279 . S
C136 C133 1.358 . S
C136 C137 1.356 . S
C136 H173 0.930 . S
C137 C134 1.348 . S
C137 C136 1.356 . S
H138 C132 0.930 . S
H139 C133 0.930 . S
C140 N141 1.314 . S
C140 C142 1.353 . S
C140 H146 0.930 . S
N141 Li91 1.990 . S
N141 C140 1.314 . S
N141 C144 1.279 . S
C142 C140 1.353 . S
C142 C145 1.348 . S
C142 H174 0.929 . S
C143 C144 1.358 . S
C143 C145 1.356 . S
C143 H175 0.930 . S
C144 N141 1.279 . S
C144 C143 1.358 . S
C144 H147 0.930 . S
C145 C142 1.348 . S
C145 C143 1.356 . S
H146 C140 0.930 . S
H147 C144 0.930 . S
O148 Li88 1.956 . S
O148 Li89 1.970 . S
O148 Li90 1.961 . S
O148 C92 1.325 . S
O149 Li88 1.970 . S
O149 Li89 1.956 . S
O149 Li91 1.961 . S
O149 C98 1.325 . S
O150 Li88 1.961 . S
O150 Li90 1.956 . S
O150 Li91 1.970 . S
O150 C120 1.325 . S
O151 Li89 1.961 . S
O151 Li90 1.970 . S
O151 Li91 1.956 . S
O151 C126 1.325 . S
H152 C94 0.929 . S
H153 C95 0.930 . S
H154 C96 0.930 . S
H155 C97 0.930 . S
H156 C99 0.930 . S
H157 C101 0.929 . S
H158 C102 0.930 . S
H159 C103 0.930 . S
H160 C106 0.930 . S
H161 C109 0.929 . S
H162 C114 0.929 . S
H163 C115 0.930 . S
H164 C122 0.929 . S
H165 C123 0.930 . S
H166 C124 0.930 . S
H167 C125 0.930 . S
H168 C127 0.929 . S
H169 C128 0.930 . S
H170 C129 0.930 . S
H171 C130 0.930 . S
H172 C134 0.929 . S
H173 C136 0.930 . S
H174 C142 0.929 . S
H175 C143 0.930 . S
Li176 N193 1.990 . S
Li176 O236 1.956 . S
Li176 O237 1.970 . S
Li176 O238 1.961 . S
Li177 N201 1.990 . S
Li177 O236 1.970 . S
Li177 O237 1.956 . S
Li177 O239 1.961 . S
Li178 N223 1.990 . S
Li178 O236 1.961 . S
Li178 O238 1.956 . S
Li178 O239 1.970 . S
Li179 N229 1.990 . S
Li179 O237 1.961 . S
Li179 O238 1.970 . S
Li179 O239 1.956 . S
C180 C182 1.348 . S
C180 C183 1.356 . S
C180 O236 1.325 . S
N181 C184 1.314 . S
N181 C185 1.279 . S
C182 C180 1.348 . S
C182 C184 1.353 . S
C182 H240 0.929 . S
C183 C180 1.356 . S
C183 C185 1.358 . S
C183 H241 0.930 . S
C184 N181 1.314 . S
C184 C182 1.353 . S
C184 H242 0.930 . S
C185 N181 1.279 . S
C185 C183 1.358 . S
C185 H243 0.930 . S
C186 C189 1.348 . S
C186 C190 1.356 . S
C186 O237 1.325 . S
C187 N188 1.279 . S
C187 C190 1.358 . S
C187 H244 0.930 . S
N188 C187 1.279 . S
N188 C191 1.314 . S
C189 C186 1.348 . S
C189 C191 1.353 . S
C189 H245 0.929 . S
C190 C186 1.356 . S
C190 C187 1.358 . S
C190 H246 0.930 . S
C191 N188 1.314 . S
C191 C189 1.353 . S
C191 H247 0.930 . S
C192 N193 1.314 . S
C192 C197 1.353 . S
C192 H198 0.930 . S
N193 Li176 1.990 . S
N193 C192 1.314 . S
N193 C195 1.279 . S
C194 C195 1.358 . S
C194 C196 1.356 . S
C194 H248 0.930 . S
C195 N193 1.279 . S
C195 C194 1.358 . S
C195 H199 0.930 . S
C196 C194 1.356 . S
C196 C197 1.348 . S
C197 C192 1.353 . S
C197 C196 1.348 . S
C197 H249 0.929 . S
H198 C192 0.930 . S
H199 C195 0.930 . S
C200 N201 1.314 . S
C200 C202 1.353 . S
C200 H206 0.930 . S
N201 Li177 1.990 . S
N201 C200 1.314 . S
N201 C204 1.279 . S
C202 C200 1.353 . S
C202 C205 1.348 . S
C202 H250 0.929 . S
C203 C204 1.358 . S
C203 C205 1.356 . S
C203 H251 0.930 . S
C204 N201 1.279 . S
C204 C203 1.358 . S
C204 H207 0.930 . S
C205 C202 1.348 . S
C205 C203 1.356 . S
H206 C200 0.930 . S
H207 C204 0.930 . S
C208 C210 1.348 . S
C208 C211 1.356 . S
C208 O238 1.325 . S
N209 C212 1.314 . S
N209 C213 1.279 . S
C210 C208 1.348 . S
C210 C212 1.353 . S
C210 H252 0.929 . S
C211 C208 1.356 . S
C211 C213 1.358 . S
C211 H253 0.930 . S
C212 N209 1.314 . S
C212 C210 1.353 . S
C212 H254 0.930 . S
C213 N209 1.279 . S
C213 C211 1.358 . S
C213 H255 0.930 . S
C214 C215 1.348 . S
C214 C216 1.356 . S
C214 O239 1.325 . S
C215 C214 1.348 . S
C215 C217 1.353 . S
C215 H256 0.929 . S
C216 C214 1.356 . S
C216 C218 1.358 . S
C216 H257 0.930 . S
C217 C215 1.353 . S
C217 N219 1.314 . S
C217 H258 0.930 . S
C218 C216 1.358 . S
C218 N219 1.279 . S
C218 H259 0.930 . S
N219 C217 1.314 . S
N219 C218 1.279 . S
C220 C222 1.353 . S
C220 N223 1.314 . S
C220 H226 0.930 . S
C221 N223 1.279 . S
C221 C224 1.358 . S
C221 H227 0.930 . S
C222 C220 1.353 . S
C222 C225 1.348 . S
C222 H260 0.929 . S
N223 Li178 1.990 . S
N223 C220 1.314 . S
N223 C221 1.279 . S
C224 C221 1.358 . S
C224 C225 1.356 . S
C224 H261 0.930 . S
C225 C222 1.348 . S
C225 C224 1.356 . S
H226 C220 0.930 . S
H227 C221 0.930 . S
C228 N229 1.314 . S
C228 C230 1.353 . S
C228 H234 0.930 . S
N229 Li179 1.990 . S
N229 C228 1.314 . S
N229 C232 1.279 . S
C230 C228 1.353 . S
C230 C233 1.348 . S
C230 H262 0.929 . S
C231 C232 1.358 . S
C231 C233 1.356 . S
C231 H263 0.930 . S
C232 N229 1.279 . S
C232 C231 1.358 . S
C232 H235 0.930 . S
C233 C230 1.348 . S
C233 C231 1.356 . S
H234 C228 0.930 . S
H235 C232 0.930 . S
O236 Li176 1.956 . S
O236 Li177 1.970 . S
O236 Li178 1.961 . S
O236 C180 1.325 . S
O237 Li176 1.970 . S
O237 Li177 1.956 . S
O237 Li179 1.961 . S
O237 C186 1.325 . S
O238 Li176 1.961 . S
O238 Li178 1.956 . S
O238 Li179 1.970 . S
O238 C208 1.325 . S
O239 Li177 1.961 . S
O239 Li178 1.970 . S
O239 Li179 1.956 . S
O239 C214 1.325 . S
H240 C182 0.929 . S
H241 C183 0.930 . S
H242 C184 0.930 . S
H243 C185 0.930 . S
H244 C187 0.930 . S
H245 C189 0.929 . S
H246 C190 0.930 . S
H247 C191 0.930 . S
H248 C194 0.930 . S
H249 C197 0.929 . S
H250 C202 0.929 . S
H251 C203 0.930 . S
H252 C210 0.929 . S
H253 C211 0.930 . S
H254 C212 0.930 . S
H255 C213 0.930 . S
H256 C215 0.929 . S
H257 C216 0.930 . S
H258 C217 0.930 . S
H259 C218 0.930 . S
H260 C222 0.929 . S
H261 C224 0.930 . S
H262 C230 0.929 . S
H263 C231 0.930 . S
Li264 N281 1.990 . S
Li264 O324 1.956 . S
Li264 O325 1.970 . S
Li264 O326 1.961 . S
Li265 N289 1.990 . S
Li265 O324 1.970 . S
Li265 O325 1.956 . S
Li265 O327 1.961 . S
Li266 N311 1.990 . S
Li266 O324 1.961 . S
Li266 O326 1.956 . S
Li266 O327 1.970 . S
Li267 N317 1.990 . S
Li267 O325 1.961 . S
Li267 O326 1.970 . S
Li267 O327 1.956 . S
C268 C270 1.348 . S
C268 C271 1.356 . S
C268 O324 1.325 . S
N269 C272 1.314 . S
N269 C273 1.279 . S
C270 C268 1.348 . S
C270 C272 1.353 . S
C270 H328 0.929 . S
C271 C268 1.356 . S
C271 C273 1.358 . S
C271 H329 0.930 . S
C272 N269 1.314 . S
C272 C270 1.353 . S
C272 H330 0.930 . S
C273 N269 1.279 . S
C273 C271 1.358 . S
C273 H331 0.930 . S
C274 C277 1.348 . S
C274 C278 1.356 . S
C274 O325 1.325 . S
C275 N276 1.279 . S
C275 C278 1.358 . S
C275 H332 0.930 . S
N276 C275 1.279 . S
N276 C279 1.314 . S
C277 C274 1.348 . S
C277 C279 1.353 . S
C277 H333 0.929 . S
C278 C274 1.356 . S
C278 C275 1.358 . S
C278 H334 0.930 . S
C279 N276 1.314 . S
C279 C277 1.353 . S
C279 H335 0.930 . S
C280 N281 1.314 . S
C280 C285 1.353 . S
C280 H286 0.930 . S
N281 Li264 1.990 . S
N281 C280 1.314 . S
N281 C283 1.279 . S
C282 C283 1.358 . S
C282 C284 1.356 . S
C282 H336 0.930 . S
C283 N281 1.279 . S
C283 C282 1.358 . S
C283 H287 0.930 . S
C284 C282 1.356 . S
C284 C285 1.348 . S
C285 C280 1.353 . S
C285 C284 1.348 . S
C285 H337 0.929 . S
H286 C280 0.930 . S
H287 C283 0.930 . S
C288 N289 1.314 . S
C288 C290 1.353 . S
C288 H294 0.930 . S
N289 Li265 1.990 . S
N289 C288 1.314 . S
N289 C292 1.279 . S
C290 C288 1.353 . S
C290 C293 1.348 . S
C290 H338 0.929 . S
C291 C292 1.358 . S
C291 C293 1.356 . S
C291 H339 0.930 . S
C292 N289 1.279 . S
C292 C291 1.358 . S
C292 H295 0.930 . S
C293 C290 1.348 . S
C293 C291 1.356 . S
H294 C288 0.930 . S
H295 C292 0.930 . S
C296 C298 1.348 . S
C296 C299 1.356 . S
C296 O326 1.325 . S
N297 C300 1.314 . S
N297 C301 1.279 . S
C298 C296 1.348 . S
C298 C300 1.353 . S
C298 H340 0.929 . S
C299 C296 1.356 . S
C299 C301 1.358 . S
C299 H341 0.930 . S
C300 N297 1.314 . S
C300 C298 1.353 . S
C300 H342 0.930 . S
C301 N297 1.279 . S
C301 C299 1.358 . S
C301 H343 0.930 . S
C302 C303 1.348 . S
C302 C304 1.356 . S
C302 O327 1.325 . S
C303 C302 1.348 . S
C303 C305 1.353 . S
C303 H344 0.929 . S
C304 C302 1.356 . S
C304 C306 1.358 . S
C304 H345 0.930 . S
C305 C303 1.353 . S
C305 N307 1.314 . S
C305 H346 0.930 . S
C306 C304 1.358 . S
C306 N307 1.279 . S
C306 H347 0.930 . S
N307 C305 1.314 . S
N307 C306 1.279 . S
C308 C310 1.353 . S
C308 N311 1.314 . S
C308 H314 0.930 . S
C309 N311 1.279 . S
C309 C312 1.358 . S
C309 H315 0.930 . S
C310 C308 1.353 . S
C310 C313 1.348 . S
C310 H348 0.929 . S
N311 Li266 1.990 . S
N311 C308 1.314 . S
N311 C309 1.279 . S
C312 C309 1.358 . S
C312 C313 1.356 . S
C312 H349 0.930 . S
C313 C310 1.348 . S
C313 C312 1.356 . S
H314 C308 0.930 . S
H315 C309 0.930 . S
C316 N317 1.314 . S
C316 C318 1.353 . S
C316 H322 0.930 . S
N317 Li267 1.990 . S
N317 C316 1.314 . S
N317 C320 1.279 . S
C318 C316 1.353 . S
C318 C321 1.348 . S
C318 H350 0.929 . S
C319 C320 1.358 . S
C319 C321 1.356 . S
C319 H351 0.930 . S
C320 N317 1.279 . S
C320 C319 1.358 . S
C320 H323 0.930 . S
C321 C318 1.348 . S
C321 C319 1.356 . S
H322 C316 0.930 . S
H323 C320 0.930 . S
O324 Li264 1.956 . S
O324 Li265 1.970 . S
O324 Li266 1.961 . S
O324 C268 1.325 . S
O325 Li264 1.970 . S
O325 Li265 1.956 . S
O325 Li267 1.961 . S
O325 C274 1.325 . S
O326 Li264 1.961 . S
O326 Li266 1.956 . S
O326 Li267 1.970 . S
O326 C296 1.325 . S
O327 Li265 1.961 . S
O327 Li266 1.970 . S
O327 Li267 1.956 . S
O327 C302 1.325 . S
H328 C270 0.929 . S
H329 C271 0.930 . S
H330 C272 0.930 . S
H331 C273 0.930 . S
H332 C275 0.930 . S
H333 C277 0.929 . S
H334 C278 0.930 . S
H335 C279 0.930 . S
H336 C282 0.930 . S
H337 C285 0.929 . S
H338 C290 0.929 . S
H339 C291 0.930 . S
H340 C298 0.929 . S
H341 C299 0.930 . S
H342 C300 0.930 . S
H343 C301 0.930 . S
H344 C303 0.929 . S
H345 C304 0.930 . S
H346 C305 0.930 . S
H347 C306 0.930 . S
H348 C310 0.929 . S
H349 C312 0.930 . S
H350 C318 0.929 . S
H351 C319 0.930 . S
Li352 N369 1.990 . S
Li352 O412 1.956 . S
Li352 O413 1.970 . S
Li352 O414 1.961 . S
Li353 N377 1.990 . S
Li353 O412 1.970 . S
Li353 O413 1.956 . S
Li353 O415 1.961 . S
Li354 N399 1.990 . S
Li354 O412 1.961 . S
Li354 O414 1.956 . S
Li354 O415 1.970 . S
Li355 N405 1.990 . S
Li355 O413 1.961 . S
Li355 O414 1.970 . S
Li355 O415 1.956 . S
C356 C358 1.348 . S
C356 C359 1.356 . S
C356 O412 1.325 . S
N357 C360 1.314 . S
N357 C361 1.279 . S
C358 C356 1.348 . S
C358 C360 1.353 . S
C358 H416 0.929 . S
C359 C356 1.356 . S
C359 C361 1.358 . S
C359 H417 0.930 . S
C360 N357 1.314 . S
C360 C358 1.353 . S
C360 H418 0.930 . S
C361 N357 1.279 . S
C361 C359 1.358 . S
C361 H419 0.930 . S
C362 C365 1.348 . S
C362 C366 1.356 . S
C362 O413 1.325 . S
C363 N364 1.279 . S
C363 C366 1.358 . S
C363 H420 0.930 . S
N364 C363 1.279 . S
N364 C367 1.314 . S
C365 C362 1.348 . S
C365 C367 1.353 . S
C365 H421 0.929 . S
C366 C362 1.356 . S
C366 C363 1.358 . S
C366 H422 0.930 . S
C367 N364 1.314 . S
C367 C365 1.353 . S
C367 H423 0.930 . S
C368 N369 1.314 . S
C368 C373 1.353 . S
C368 H374 0.930 . S
N369 Li352 1.990 . S
N369 C368 1.314 . S
N369 C371 1.279 . S
C370 C371 1.358 . S
C370 C372 1.356 . S
C370 H424 0.930 . S
C371 N369 1.279 . S
C371 C370 1.358 . S
C371 H375 0.930 . S
C372 C370 1.356 . S
C372 C373 1.348 . S
C373 C368 1.353 . S
C373 C372 1.348 . S
C373 H425 0.929 . S
H374 C368 0.930 . S
H375 C371 0.930 . S
C376 N377 1.314 . S
C376 C378 1.353 . S
C376 H382 0.930 . S
N377 Li353 1.990 . S
N377 C376 1.314 . S
N377 C380 1.279 . S
C378 C376 1.353 . S
C378 C381 1.348 . S
C378 H426 0.929 . S
C379 C380 1.358 . S
C379 C381 1.356 . S
C379 H427 0.930 . S
C380 N377 1.279 . S
C380 C379 1.358 . S
C380 H383 0.930 . S
C381 C378 1.348 . S
C381 C379 1.356 . S
H382 C376 0.930 . S
H383 C380 0.930 . S
C384 C386 1.348 . S
C384 C387 1.356 . S
C384 O414 1.325 . S
N385 C388 1.314 . S
N385 C389 1.279 . S
C386 C384 1.348 . S
C386 C388 1.353 . S
C386 H428 0.929 . S
C387 C384 1.356 . S
C387 C389 1.358 . S
C387 H429 0.930 . S
C388 N385 1.314 . S
C388 C386 1.353 . S
C388 H430 0.930 . S
C389 N385 1.279 . S
C389 C387 1.358 . S
C389 H431 0.930 . S
C390 C391 1.348 . S
C390 C392 1.356 . S
C390 O415 1.325 . S
C391 C390 1.348 . S
C391 C393 1.353 . S
C391 H432 0.929 . S
C392 C390 1.356 . S
C392 C394 1.358 . S
C392 H433 0.930 . S
C393 C391 1.353 . S
C393 N395 1.314 . S
C393 H434 0.930 . S
C394 C392 1.358 . S
C394 N395 1.279 . S
C394 H435 0.930 . S
N395 C393 1.314 . S
N395 C394 1.279 . S
C396 C398 1.353 . S
C396 N399 1.314 . S
C396 H402 0.930 . S
C397 N399 1.279 . S
C397 C400 1.358 . S
C397 H403 0.930 . S
C398 C396 1.353 . S
C398 C401 1.348 . S
C398 H436 0.929 . S
N399 Li354 1.990 . S
N399 C396 1.314 . S
N399 C397 1.279 . S
C400 C397 1.358 . S
C400 C401 1.356 . S
C400 H437 0.930 . S
C401 C398 1.348 . S
C401 C400 1.356 . S
H402 C396 0.930 . S
H403 C397 0.930 . S
C404 N405 1.314 . S
C404 C406 1.353 . S
C404 H410 0.930 . S
N405 Li355 1.990 . S
N405 C404 1.314 . S
N405 C408 1.279 . S
C406 C404 1.353 . S
C406 C409 1.348 . S
C406 H438 0.929 . S
C407 C408 1.358 . S
C407 C409 1.356 . S
C407 H439 0.930 . S
C408 N405 1.279 . S
C408 C407 1.358 . S
C408 H411 0.930 . S
C409 C406 1.348 . S
C409 C407 1.356 . S
H410 C404 0.930 . S
H411 C408 0.930 . S
O412 Li352 1.956 . S
O412 Li353 1.970 . S
O412 Li354 1.961 . S
O412 C356 1.325 . S
O413 Li352 1.970 . S
O413 Li353 1.956 . S
O413 Li355 1.961 . S
O413 C362 1.325 . S
O414 Li352 1.961 . S
O414 Li354 1.956 . S
O414 Li355 1.970 . S
O414 C384 1.325 . S
O415 Li353 1.961 . S
O415 Li354 1.970 . S
O415 Li355 1.956 . S
O415 C390 1.325 . S
H416 C358 0.929 . S
H417 C359 0.930 . S
H418 C360 0.930 . S
H419 C361 0.930 . S
H420 C363 0.930 . S
H421 C365 0.929 . S
H422 C366 0.930 . S
H423 C367 0.930 . S
H424 C370 0.930 . S
H425 C373 0.929 . S
H426 C378 0.929 . S
H427 C379 0.930 . S
H428 C386 0.929 . S
H429 C387 0.930 . S
H430 C388 0.930 . S
H431 C389 0.930 . S
H432 C391 0.929 . S
H433 C392 0.930 . S
H434 C393 0.930 . S
H435 C394 0.930 . S
H436 C398 0.929 . S
H437 C400 0.930 . S
H438 C406 0.929 . S
H439 C407 0.930 . S
Li440 N457 1.990 . S
Li440 O500 1.956 . S
Li440 O501 1.970 . S
Li440 O502 1.961 . S
Li441 N465 1.990 . S
Li441 O500 1.970 . S
Li441 O501 1.956 . S
Li441 O503 1.961 . S
Li442 N487 1.990 . S
Li442 O500 1.961 . S
Li442 O502 1.956 . S
Li442 O503 1.970 . S
Li443 N493 1.990 . S
Li443 O501 1.961 . S
Li443 O502 1.970 . S
Li443 O503 1.956 . S
C444 C446 1.348 . S
C444 C447 1.356 . S
C444 O500 1.325 . S
N445 C448 1.314 . S
N445 C449 1.279 . S
C446 C444 1.348 . S
C446 C448 1.353 . S
C446 H504 0.929 . S
C447 C444 1.356 . S
C447 C449 1.358 . S
C447 H505 0.930 . S
C448 N445 1.314 . S
C448 C446 1.353 . S
C448 H506 0.930 . S
C449 N445 1.279 . S
C449 C447 1.358 . S
C449 H507 0.930 . S
C450 C453 1.348 . S
C450 C454 1.356 . S
C450 O501 1.325 . S
C451 N452 1.279 . S
C451 C454 1.358 . S
C451 H508 0.930 . S
N452 C451 1.279 . S
N452 C455 1.314 . S
C453 C450 1.348 . S
C453 C455 1.353 . S
C453 H509 0.929 . S
C454 C450 1.356 . S
C454 C451 1.358 . S
C454 H510 0.930 . S
C455 N452 1.314 . S
C455 C453 1.353 . S
C455 H511 0.930 . S
C456 N457 1.314 . S
C456 C461 1.353 . S
C456 H462 0.930 . S
N457 Li440 1.990 . S
N457 C456 1.314 . S
N457 C459 1.279 . S
C458 C459 1.358 . S
C458 C460 1.356 . S
C458 H512 0.930 . S
C459 N457 1.279 . S
C459 C458 1.358 . S
C459 H463 0.930 . S
C460 C458 1.356 . S
C460 C461 1.348 . S
C461 C456 1.353 . S
C461 C460 1.348 . S
C461 H513 0.929 . S
H462 C456 0.930 . S
H463 C459 0.930 . S
C464 N465 1.314 . S
C464 C466 1.353 . S
C464 H470 0.930 . S
N465 Li441 1.990 . S
N465 C464 1.314 . S
N465 C468 1.279 . S
C466 C464 1.353 . S
C466 C469 1.348 . S
C466 H514 0.929 . S
C467 C468 1.358 . S
C467 C469 1.356 . S
C467 H515 0.930 . S
C468 N465 1.279 . S
C468 C467 1.358 . S
C468 H471 0.930 . S
C469 C466 1.348 . S
C469 C467 1.356 . S
H470 C464 0.930 . S
H471 C468 0.930 . S
C472 C474 1.348 . S
C472 C475 1.356 . S
C472 O502 1.325 . S
N473 C476 1.314 . S
N473 C477 1.279 . S
C474 C472 1.348 . S
C474 C476 1.353 . S
C474 H516 0.929 . S
C475 C472 1.356 . S
C475 C477 1.358 . S
C475 H517 0.930 . S
C476 N473 1.314 . S
C476 C474 1.353 . S
C476 H518 0.930 . S
C477 N473 1.279 . S
C477 C475 1.358 . S
C477 H519 0.930 . S
C478 C479 1.348 . S
C478 C480 1.356 . S
C478 O503 1.325 . S
C479 C478 1.348 . S
C479 C481 1.353 . S
C479 H520 0.929 . S
C480 C478 1.356 . S
C480 C482 1.358 . S
C480 H521 0.930 . S
C481 C479 1.353 . S
C481 N483 1.314 . S
C481 H522 0.930 . S
C482 C480 1.358 . S
C482 N483 1.279 . S
C482 H523 0.930 . S
N483 C481 1.314 . S
N483 C482 1.279 . S
C484 C486 1.353 . S
C484 N487 1.314 . S
C484 H490 0.930 . S
C485 N487 1.279 . S
C485 C488 1.358 . S
C485 H491 0.930 . S
C486 C484 1.353 . S
C486 C489 1.348 . S
C486 H524 0.929 . S
N487 Li442 1.990 . S
N487 C484 1.314 . S
N487 C485 1.279 . S
C488 C485 1.358 . S
C488 C489 1.356 . S
C488 H525 0.930 . S
C489 C486 1.348 . S
C489 C488 1.356 . S
H490 C484 0.930 . S
H491 C485 0.930 . S
C492 N493 1.314 . S
C492 C494 1.353 . S
C492 H498 0.930 . S
N493 Li443 1.990 . S
N493 C492 1.314 . S
N493 C496 1.279 . S
C494 C492 1.353 . S
C494 C497 1.348 . S
C494 H526 0.929 . S
C495 C496 1.358 . S
C495 C497 1.356 . S
C495 H527 0.930 . S
C496 N493 1.279 . S
C496 C495 1.358 . S
C496 H499 0.930 . S
C497 C494 1.348 . S
C497 C495 1.356 . S
H498 C492 0.930 . S
H499 C496 0.930 . S
O500 Li440 1.956 . S
O500 Li441 1.970 . S
O500 Li442 1.961 . S
O500 C444 1.325 . S
O501 Li440 1.970 . S
O501 Li441 1.956 . S
O501 Li443 1.961 . S
O501 C450 1.325 . S
O502 Li440 1.961 . S
O502 Li442 1.956 . S
O502 Li443 1.970 . S
O502 C472 1.325 . S
O503 Li441 1.961 . S
O503 Li442 1.970 . S
O503 Li443 1.956 . S
O503 C478 1.325 . S
H504 C446 0.929 . S
H505 C447 0.930 . S
H506 C448 0.930 . S
H507 C449 0.930 . S
H508 C451 0.930 . S
H509 C453 0.929 . S
H510 C454 0.930 . S
H511 C455 0.930 . S
H512 C458 0.930 . S
H513 C461 0.929 . S
H514 C466 0.929 . S
H515 C467 0.930 . S
H516 C474 0.929 . S
H517 C475 0.930 . S
H518 C476 0.930 . S
H519 C477 0.930 . S
H520 C479 0.929 . S
H521 C480 0.930 . S
H522 C481 0.930 . S
H523 C482 0.930 . S
H524 C486 0.929 . S
H525 C488 0.930 . S
H526 C494 0.929 . S
H527 C495 0.930 . S
Li528 N545 1.990 . S
Li528 O588 1.956 . S
Li528 O589 1.970 . S
Li528 O590 1.961 . S
Li529 N553 1.990 . S
Li529 O588 1.970 . S
Li529 O589 1.956 . S
Li529 O591 1.961 . S
Li530 N575 1.990 . S
Li530 O588 1.961 . S
Li530 O590 1.956 . S
Li530 O591 1.970 . S
Li531 N581 1.990 . S
Li531 O589 1.961 . S
Li531 O590 1.970 . S
Li531 O591 1.956 . S
C532 C534 1.348 . S
C532 C535 1.356 . S
C532 O588 1.325 . S
N533 C536 1.314 . S
N533 C537 1.279 . S
C534 C532 1.348 . S
C534 C536 1.353 . S
C534 H592 0.929 . S
C535 C532 1.356 . S
C535 C537 1.358 . S
C535 H593 0.930 . S
C536 N533 1.314 . S
C536 C534 1.353 . S
C536 H594 0.930 . S
C537 N533 1.279 . S
C537 C535 1.358 . S
C537 H595 0.930 . S
C538 C541 1.348 . S
C538 C542 1.356 . S
C538 O589 1.325 . S
C539 N540 1.279 . S
C539 C542 1.358 . S
C539 H596 0.930 . S
N540 C539 1.279 . S
N540 C543 1.314 . S
C541 C538 1.348 . S
C541 C543 1.353 . S
C541 H597 0.929 . S
C542 C538 1.356 . S
C542 C539 1.358 . S
C542 H598 0.930 . S
C543 N540 1.314 . S
C543 C541 1.353 . S
C543 H599 0.930 . S
C544 N545 1.314 . S
C544 C549 1.353 . S
C544 H550 0.930 . S
N545 Li528 1.990 . S
N545 C544 1.314 . S
N545 C547 1.279 . S
C546 C547 1.358 . S
C546 C548 1.356 . S
C546 H600 0.930 . S
C547 N545 1.279 . S
C547 C546 1.358 . S
C547 H551 0.930 . S
C548 C546 1.356 . S
C548 C549 1.348 . S
C549 C544 1.353 . S
C549 C548 1.348 . S
C549 H601 0.929 . S
H550 C544 0.930 . S
H551 C547 0.930 . S
C552 N553 1.314 . S
C552 C554 1.353 . S
C552 H558 0.930 . S
N553 Li529 1.990 . S
N553 C552 1.314 . S
N553 C556 1.279 . S
C554 C552 1.353 . S
C554 C557 1.348 . S
C554 H602 0.929 . S
C555 C556 1.358 . S
C555 C557 1.356 . S
C555 H603 0.930 . S
C556 N553 1.279 . S
C556 C555 1.358 . S
C556 H559 0.930 . S
C557 C554 1.348 . S
C557 C555 1.356 . S
H558 C552 0.930 . S
H559 C556 0.930 . S
C560 C562 1.348 . S
C560 C563 1.356 . S
C560 O590 1.325 . S
N561 C564 1.314 . S
N561 C565 1.279 . S
C562 C560 1.348 . S
C562 C564 1.353 . S
C562 H604 0.929 . S
C563 C560 1.356 . S
C563 C565 1.358 . S
C563 H605 0.930 . S
C564 N561 1.314 . S
C564 C562 1.353 . S
C564 H606 0.930 . S
C565 N561 1.279 . S
C565 C563 1.358 . S
C565 H607 0.930 . S
C566 C567 1.348 . S
C566 C568 1.356 . S
C566 O591 1.325 . S
C567 C566 1.348 . S
C567 C569 1.353 . S
C567 H608 0.929 . S
C568 C566 1.356 . S
C568 C570 1.358 . S
C568 H609 0.930 . S
C569 C567 1.353 . S
C569 N571 1.314 . S
C569 H610 0.930 . S
C570 C568 1.358 . S
C570 N571 1.279 . S
C570 H611 0.930 . S
N571 C569 1.314 . S
N571 C570 1.279 . S
C572 C574 1.353 . S
C572 N575 1.314 . S
C572 H578 0.930 . S
C573 N575 1.279 . S
C573 C576 1.358 . S
C573 H579 0.930 . S
C574 C572 1.353 . S
C574 C577 1.348 . S
C574 H612 0.929 . S
N575 Li530 1.990 . S
N575 C572 1.314 . S
N575 C573 1.279 . S
C576 C573 1.358 . S
C576 C577 1.356 . S
C576 H613 0.930 . S
C577 C574 1.348 . S
C577 C576 1.356 . S
H578 C572 0.930 . S
H579 C573 0.930 . S
C580 N581 1.314 . S
C580 C582 1.353 . S
C580 H586 0.930 . S
N581 Li531 1.990 . S
N581 C580 1.314 . S
N581 C584 1.279 . S
C582 C580 1.353 . S
C582 C585 1.348 . S
C582 H614 0.929 . S
C583 C584 1.358 . S
C583 C585 1.356 . S
C583 H615 0.930 . S
C584 N581 1.279 . S
C584 C583 1.358 . S
C584 H587 0.930 . S
C585 C582 1.348 . S
C585 C583 1.356 . S
H586 C580 0.930 . S
H587 C584 0.930 . S
O588 Li528 1.956 . S
O588 Li529 1.970 . S
O588 Li530 1.961 . S
O588 C532 1.325 . S
O589 Li528 1.970 . S
O589 Li529 1.956 . S
O589 Li531 1.961 . S
O589 C538 1.325 . S
O590 Li528 1.961 . S
O590 Li530 1.956 . S
O590 Li531 1.970 . S
O590 C560 1.325 . S
O591 Li529 1.961 . S
O591 Li530 1.970 . S
O591 Li531 1.956 . S
O591 C566 1.325 . S
H592 C534 0.929 . S
H593 C535 0.930 . S
H594 C536 0.930 . S
H595 C537 0.930 . S
H596 C539 0.930 . S
H597 C541 0.929 . S
H598 C542 0.930 . S
H599 C543 0.930 . S
H600 C546 0.930 . S
H601 C549 0.929 . S
H602 C554 0.929 . S
H603 C555 0.930 . S
H604 C562 0.929 . S
H605 C563 0.930 . S
H606 C564 0.930 . S
H607 C565 0.930 . S
H608 C567 0.929 . S
H609 C568 0.930 . S
H610 C569 0.930 . S
H611 C570 0.930 . S
H612 C574 0.929 . S
H613 C576 0.930 . S
H614 C582 0.929 . S
H615 C583 0.930 . S
Li616 N633 1.990 . S
Li616 O676 1.956 . S
Li616 O677 1.970 . S
Li616 O678 1.961 . S
Li617 N641 1.990 . S
Li617 O676 1.970 . S
Li617 O677 1.956 . S
Li617 O679 1.961 . S
Li618 N663 1.990 . S
Li618 O676 1.961 . S
Li618 O678 1.956 . S
Li618 O679 1.970 . S
Li619 N669 1.990 . S
Li619 O677 1.961 . S
Li619 O678 1.970 . S
Li619 O679 1.956 . S
C620 C622 1.348 . S
C620 C623 1.356 . S
C620 O676 1.325 . S
N621 C624 1.314 . S
N621 C625 1.279 . S
C622 C620 1.348 . S
C622 C624 1.353 . S
C622 H680 0.929 . S
C623 C620 1.356 . S
C623 C625 1.358 . S
C623 H681 0.930 . S
C624 N621 1.314 . S
C624 C622 1.353 . S
C624 H682 0.930 . S
C625 N621 1.279 . S
C625 C623 1.358 . S
C625 H683 0.930 . S
C626 C629 1.348 . S
C626 C630 1.356 . S
C626 O677 1.325 . S
C627 N628 1.279 . S
C627 C630 1.358 . S
C627 H684 0.930 . S
N628 C627 1.279 . S
N628 C631 1.314 . S
C629 C626 1.348 . S
C629 C631 1.353 . S
C629 H685 0.929 . S
C630 C626 1.356 . S
C630 C627 1.358 . S
C630 H686 0.930 . S
C631 N628 1.314 . S
C631 C629 1.353 . S
C631 H687 0.930 . S
C632 N633 1.314 . S
C632 C637 1.353 . S
C632 H638 0.930 . S
N633 Li616 1.990 . S
N633 C632 1.314 . S
N633 C635 1.279 . S
C634 C635 1.358 . S
C634 C636 1.356 . S
C634 H688 0.930 . S
C635 N633 1.279 . S
C635 C634 1.358 . S
C635 H639 0.930 . S
C636 C634 1.356 . S
C636 C637 1.348 . S
C637 C632 1.353 . S
C637 C636 1.348 . S
C637 H689 0.929 . S
H638 C632 0.930 . S
H639 C635 0.930 . S
C640 N641 1.314 . S
C640 C642 1.353 . S
C640 H646 0.930 . S
N641 Li617 1.990 . S
N641 C640 1.314 . S
N641 C644 1.279 . S
C642 C640 1.353 . S
C642 C645 1.348 . S
C642 H690 0.929 . S
C643 C644 1.358 . S
C643 C645 1.356 . S
C643 H691 0.930 . S
C644 N641 1.279 . S
C644 C643 1.358 . S
C644 H647 0.930 . S
C645 C642 1.348 . S
C645 C643 1.356 . S
H646 C640 0.930 . S
H647 C644 0.930 . S
C648 C650 1.348 . S
C648 C651 1.356 . S
C648 O678 1.325 . S
N649 C652 1.314 . S
N649 C653 1.279 . S
C650 C648 1.348 . S
C650 C652 1.353 . S
C650 H692 0.929 . S
C651 C648 1.356 . S
C651 C653 1.358 . S
C651 H693 0.930 . S
C652 N649 1.314 . S
C652 C650 1.353 . S
C652 H694 0.930 . S
C653 N649 1.279 . S
C653 C651 1.358 . S
C653 H695 0.930 . S
C654 C655 1.348 . S
C654 C656 1.356 . S
C654 O679 1.325 . S
C655 C654 1.348 . S
C655 C657 1.353 . S
C655 H696 0.929 . S
C656 C654 1.356 . S
C656 C658 1.358 . S
C656 H697 0.930 . S
C657 C655 1.353 . S
C657 N659 1.314 . S
C657 H698 0.930 . S
C658 C656 1.358 . S
C658 N659 1.279 . S
C658 H699 0.930 . S
N659 C657 1.314 . S
N659 C658 1.279 . S
C660 C662 1.353 . S
C660 N663 1.314 . S
C660 H666 0.930 . S
C661 N663 1.279 . S
C661 C664 1.358 . S
C661 H667 0.930 . S
C662 C660 1.353 . S
C662 C665 1.348 . S
C662 H700 0.929 . S
N663 Li618 1.990 . S
N663 C660 1.314 . S
N663 C661 1.279 . S
C664 C661 1.358 . S
C664 C665 1.356 . S
C664 H701 0.930 . S
C665 C662 1.348 . S
C665 C664 1.356 . S
H666 C660 0.930 . S
H667 C661 0.930 . S
C668 N669 1.314 . S
C668 C670 1.353 . S
C668 H674 0.930 . S
N669 Li619 1.990 . S
N669 C668 1.314 . S
N669 C672 1.279 . S
C670 C668 1.353 . S
C670 C673 1.348 . S
C670 H702 0.929 . S
C671 C672 1.358 . S
C671 C673 1.356 . S
C671 H703 0.930 . S
C672 N669 1.279 . S
C672 C671 1.358 . S
C672 H675 0.930 . S
C673 C670 1.348 . S
C673 C671 1.356 . S
H674 C668 0.930 . S
H675 C672 0.930 . S
O676 Li616 1.956 . S
O676 Li617 1.970 . S
O676 Li618 1.961 . S
O676 C620 1.325 . S
O677 Li616 1.970 . S
O677 Li617 1.956 . S
O677 Li619 1.961 . S
O677 C626 1.325 . S
O678 Li616 1.961 . S
O678 Li618 1.956 . S
O678 Li619 1.970 . S
O678 C648 1.325 . S
O679 Li617 1.961 . S
O679 Li618 1.970 . S
O679 Li619 1.956 . S
O679 C654 1.325 . S
H680 C622 0.929 . S
H681 C623 0.930 . S
H682 C624 0.930 . S
H683 C625 0.930 . S
H684 C627 0.930 . S
H685 C629 0.929 . S
H686 C630 0.930 . S
H687 C631 0.930 . S
H688 C634 0.930 . S
H689 C637 0.929 . S
H690 C642 0.929 . S
H691 C643 0.930 . S
H692 C650 0.929 . S
H693 C651 0.930 . S
H694 C652 0.930 . S
H695 C653 0.930 . S
H696 C655 0.929 . S
H697 C656 0.930 . S
H698 C657 0.930 . S
H699 C658 0.930 . S
H700 C662 0.929 . S
H701 C664 0.930 . S
H702 C670 0.929 . S
H703 C671 0.930 . S
Li704 N721 1.990 . S
Li704 O764 1.956 . S
Li704 O765 1.970 . S
Li704 O766 1.961 . S
Li705 N729 1.990 . S
Li705 O764 1.970 . S
Li705 O765 1.956 . S
Li705 O767 1.961 . S
Li706 N751 1.990 . S
Li706 O764 1.961 . S
Li706 O766 1.956 . S
Li706 O767 1.970 . S
Li707 N757 1.990 . S
Li707 O765 1.961 . S
Li707 O766 1.970 . S
Li707 O767 1.956 . S
C708 C710 1.348 . S
C708 C711 1.356 . S
C708 O764 1.325 . S
N709 C712 1.314 . S
N709 C713 1.279 . S
C710 C708 1.348 . S
C710 C712 1.353 . S
C710 H768 0.929 . S
C711 C708 1.356 . S
C711 C713 1.358 . S
C711 H769 0.930 . S
C712 N709 1.314 . S
C712 C710 1.353 . S
C712 H770 0.930 . S
C713 N709 1.279 . S
C713 C711 1.358 . S
C713 H771 0.930 . S
C714 C717 1.348 . S
C714 C718 1.356 . S
C714 O765 1.325 . S
C715 N716 1.279 . S
C715 C718 1.358 . S
C715 H772 0.930 . S
N716 C715 1.279 . S
N716 C719 1.314 . S
C717 C714 1.348 . S
C717 C719 1.353 . S
C717 H773 0.929 . S
C718 C714 1.356 . S
C718 C715 1.358 . S
C718 H774 0.930 . S
C719 N716 1.314 . S
C719 C717 1.353 . S
C719 H775 0.930 . S
C720 N721 1.314 . S
C720 C725 1.353 . S
C720 H726 0.930 . S
N721 Li704 1.990 . S
N721 C720 1.314 . S
N721 C723 1.279 . S
C722 C723 1.358 . S
C722 C724 1.356 . S
C722 H776 0.930 . S
C723 N721 1.279 . S
C723 C722 1.358 . S
C723 H727 0.930 . S
C724 C722 1.356 . S
C724 C725 1.348 . S
C725 C720 1.353 . S
C725 C724 1.348 . S
C725 H777 0.929 . S
H726 C720 0.930 . S
H727 C723 0.930 . S
C728 N729 1.314 . S
C728 C730 1.353 . S
C728 H734 0.930 . S
N729 Li705 1.990 . S
N729 C728 1.314 . S
N729 C732 1.279 . S
C730 C728 1.353 . S
C730 C733 1.348 . S
C730 H778 0.929 . S
C731 C732 1.358 . S
C731 C733 1.356 . S
C731 H779 0.930 . S
C732 N729 1.279 . S
C732 C731 1.358 . S
C732 H735 0.930 . S
C733 C730 1.348 . S
C733 C731 1.356 . S
H734 C728 0.930 . S
H735 C732 0.930 . S
C736 C738 1.348 . S
C736 C739 1.356 . S
C736 O766 1.325 . S
N737 C740 1.314 . S
N737 C741 1.279 . S
C738 C736 1.348 . S
C738 C740 1.353 . S
C738 H780 0.929 . S
C739 C736 1.356 . S
C739 C741 1.358 . S
C739 H781 0.930 . S
C740 N737 1.314 . S
C740 C738 1.353 . S
C740 H782 0.930 . S
C741 N737 1.279 . S
C741 C739 1.358 . S
C741 H783 0.930 . S
C742 C743 1.348 . S
C742 C744 1.356 . S
C742 O767 1.325 . S
C743 C742 1.348 . S
C743 C745 1.353 . S
C743 H784 0.929 . S
C744 C742 1.356 . S
C744 C746 1.358 . S
C744 H785 0.930 . S
C745 C743 1.353 . S
C745 N747 1.314 . S
C745 H786 0.930 . S
C746 C744 1.358 . S
C746 N747 1.279 . S
C746 H787 0.930 . S
N747 C745 1.314 . S
N747 C746 1.279 . S
C748 C750 1.353 . S
C748 N751 1.314 . S
C748 H754 0.930 . S
C749 N751 1.279 . S
C749 C752 1.358 . S
C749 H755 0.930 . S
C750 C748 1.353 . S
C750 C753 1.348 . S
C750 H788 0.929 . S
N751 Li706 1.990 . S
N751 C748 1.314 . S
N751 C749 1.279 . S
C752 C749 1.358 . S
C752 C753 1.356 . S
C752 H789 0.930 . S
C753 C750 1.348 . S
C753 C752 1.356 . S
H754 C748 0.930 . S
H755 C749 0.930 . S
C756 N757 1.314 . S
C756 C758 1.353 . S
C756 H762 0.930 . S
N757 Li707 1.990 . S
N757 C756 1.314 . S
N757 C760 1.279 . S
C758 C756 1.353 . S
C758 C761 1.348 . S
C758 H790 0.929 . S
C759 C760 1.358 . S
C759 C761 1.356 . S
C759 H791 0.930 . S
C760 N757 1.279 . S
C760 C759 1.358 . S
C760 H763 0.930 . S
C761 C758 1.348 . S
C761 C759 1.356 . S
H762 C756 0.930 . S
H763 C760 0.930 . S
O764 Li704 1.956 . S
O764 Li705 1.970 . S
O764 Li706 1.961 . S
O764 C708 1.325 . S
O765 Li704 1.970 . S
O765 Li705 1.956 . S
O765 Li707 1.961 . S
O765 C714 1.325 . S
O766 Li704 1.961 . S
O766 Li706 1.956 . S
O766 Li707 1.970 . S
O766 C736 1.325 . S
O767 Li705 1.961 . S
O767 Li706 1.970 . S
O767 Li707 1.956 . S
O767 C742 1.325 . S
H768 C710 0.929 . S
H769 C711 0.930 . S
H770 C712 0.930 . S
H771 C713 0.930 . S
H772 C715 0.930 . S
H773 C717 0.929 . S
H774 C718 0.930 . S
H775 C719 0.930 . S
H776 C722 0.930 . S
H777 C725 0.929 . S
H778 C730 0.929 . S
H779 C731 0.930 . S
H780 C738 0.929 . S
H781 C739 0.930 . S
H782 C740 0.930 . S
H783 C741 0.930 . S
H784 C743 0.929 . S
H785 C744 0.930 . S
H786 C745 0.930 . S
H787 C746 0.930 . S
H788 C750 0.929 . S
H789 C752 0.930 . S
H790 C758 0.929 . S
H791 C759 0.930 . S
Li792 N809 1.990 . S
Li792 O852 1.956 . S
Li792 O853 1.970 . S
Li792 O854 1.961 . S
Li793 N817 1.990 . S
Li793 O852 1.970 . S
Li793 O853 1.956 . S
Li793 O855 1.961 . S
Li794 N839 1.990 . S
Li794 O852 1.961 . S
Li794 O854 1.956 . S
Li794 O855 1.970 . S
Li795 N845 1.990 . S
Li795 O853 1.961 . S
Li795 O854 1.970 . S
Li795 O855 1.956 . S
C796 C798 1.348 . S
C796 C799 1.356 . S
C796 O852 1.325 . S
N797 C800 1.314 . S
N797 C801 1.279 . S
C798 C796 1.348 . S
C798 C800 1.353 . S
C798 H856 0.929 . S
C799 C796 1.356 . S
C799 C801 1.358 . S
C799 H857 0.930 . S
C800 N797 1.314 . S
C800 C798 1.353 . S
C800 H858 0.930 . S
C801 N797 1.279 . S
C801 C799 1.358 . S
C801 H859 0.930 . S
C802 C805 1.348 . S
C802 C806 1.356 . S
C802 O853 1.325 . S
C803 N804 1.279 . S
C803 C806 1.358 . S
C803 H860 0.930 . S
N804 C803 1.279 . S
N804 C807 1.314 . S
C805 C802 1.348 . S
C805 C807 1.353 . S
C805 H861 0.929 . S
C806 C802 1.356 . S
C806 C803 1.358 . S
C806 H862 0.930 . S
C807 N804 1.314 . S
C807 C805 1.353 . S
C807 H863 0.930 . S
C808 N809 1.314 . S
C808 C813 1.353 . S
C808 H814 0.930 . S
N809 Li792 1.990 . S
N809 C808 1.314 . S
N809 C811 1.279 . S
C810 C811 1.358 . S
C810 C812 1.356 . S
C810 H864 0.930 . S
C811 N809 1.279 . S
C811 C810 1.358 . S
C811 H815 0.930 . S
C812 C810 1.356 . S
C812 C813 1.348 . S
C813 C808 1.353 . S
C813 C812 1.348 . S
C813 H865 0.929 . S
H814 C808 0.930 . S
H815 C811 0.930 . S
C816 N817 1.314 . S
C816 C818 1.353 . S
C816 H822 0.930 . S
N817 Li793 1.990 . S
N817 C816 1.314 . S
N817 C820 1.279 . S
C818 C816 1.353 . S
C818 C821 1.348 . S
C818 H866 0.929 . S
C819 C820 1.358 . S
C819 C821 1.356 . S
C819 H867 0.930 . S
C820 N817 1.279 . S
C820 C819 1.358 . S
C820 H823 0.930 . S
C821 C818 1.348 . S
C821 C819 1.356 . S
H822 C816 0.930 . S
H823 C820 0.930 . S
C824 C826 1.348 . S
C824 C827 1.356 . S
C824 O854 1.325 . S
N825 C828 1.314 . S
N825 C829 1.279 . S
C826 C824 1.348 . S
C826 C828 1.353 . S
C826 H868 0.929 . S
C827 C824 1.356 . S
C827 C829 1.358 . S
C827 H869 0.930 . S
C828 N825 1.314 . S
C828 C826 1.353 . S
C828 H870 0.930 . S
C829 N825 1.279 . S
C829 C827 1.358 . S
C829 H871 0.930 . S
C830 C831 1.348 . S
C830 C832 1.356 . S
C830 O855 1.325 . S
C831 C830 1.348 . S
C831 C833 1.353 . S
C831 H872 0.929 . S
C832 C830 1.356 . S
C832 C834 1.358 . S
C832 H873 0.930 . S
C833 C831 1.353 . S
C833 N835 1.314 . S
C833 H874 0.930 . S
C834 C832 1.358 . S
C834 N835 1.279 . S
C834 H875 0.930 . S
N835 C833 1.314 . S
N835 C834 1.279 . S
C836 C838 1.353 . S
C836 N839 1.314 . S
C836 H842 0.930 . S
C837 N839 1.279 . S
C837 C840 1.358 . S
C837 H843 0.930 . S
C838 C836 1.353 . S
C838 C841 1.348 . S
C838 H876 0.929 . S
N839 Li794 1.990 . S
N839 C836 1.314 . S
N839 C837 1.279 . S
C840 C837 1.358 . S
C840 C841 1.356 . S
C840 H877 0.930 . S
C841 C838 1.348 . S
C841 C840 1.356 . S
H842 C836 0.930 . S
H843 C837 0.930 . S
C844 N845 1.314 . S
C844 C846 1.353 . S
C844 H850 0.930 . S
N845 Li795 1.990 . S
N845 C844 1.314 . S
N845 C848 1.279 . S
C846 C844 1.353 . S
C846 C849 1.348 . S
C846 H878 0.929 . S
C847 C848 1.358 . S
C847 C849 1.356 . S
C847 H879 0.930 . S
C848 N845 1.279 . S
C848 C847 1.358 . S
C848 H851 0.930 . S
C849 C846 1.348 . S
C849 C847 1.356 . S
H850 C844 0.930 . S
H851 C848 0.930 . S
O852 Li792 1.956 . S
O852 Li793 1.970 . S
O852 Li794 1.961 . S
O852 C796 1.325 . S
O853 Li792 1.970 . S
O853 Li793 1.956 . S
O853 Li795 1.961 . S
O853 C802 1.325 . S
O854 Li792 1.961 . S
O854 Li794 1.956 . S
O854 Li795 1.970 . S
O854 C824 1.325 . S
O855 Li793 1.961 . S
O855 Li794 1.970 . S
O855 Li795 1.956 . S
O855 C830 1.325 . S
H856 C798 0.929 . S
H857 C799 0.930 . S
H858 C800 0.930 . S
H859 C801 0.930 . S
H860 C803 0.930 . S
H861 C805 0.929 . S
H862 C806 0.930 . S
H863 C807 0.930 . S
H864 C810 0.930 . S
H865 C813 0.929 . S
H866 C818 0.929 . S
H867 C819 0.930 . S
H868 C826 0.929 . S
H869 C827 0.930 . S
H870 C828 0.930 . S
H871 C829 0.930 . S
H872 C831 0.929 . S
H873 C832 0.930 . S
H874 C833 0.930 . S
H875 C834 0.930 . S
H876 C838 0.929 . S
H877 C840 0.930 . S
H878 C846 0.929 . S
H879 C847 0.930 . S
Li880 N897 1.990 . S
Li880 O940 1.956 . S
Li880 O941 1.970 . S
Li880 O942 1.961 . S
Li881 N905 1.990 . S
Li881 O940 1.970 . S
Li881 O941 1.956 . S
Li881 O943 1.961 . S
Li882 N927 1.990 . S
Li882 O940 1.961 . S
Li882 O942 1.956 . S
Li882 O943 1.970 . S
Li883 N933 1.990 . S
Li883 O941 1.961 . S
Li883 O942 1.970 . S
Li883 O943 1.956 . S
C884 C886 1.348 . S
C884 C887 1.356 . S
C884 O940 1.325 . S
N885 C888 1.314 . S
N885 C889 1.279 . S
C886 C884 1.348 . S
C886 C888 1.353 . S
C886 H944 0.929 . S
C887 C884 1.356 . S
C887 C889 1.358 . S
C887 H945 0.930 . S
C888 N885 1.314 . S
C888 C886 1.353 . S
C888 H946 0.930 . S
C889 N885 1.279 . S
C889 C887 1.358 . S
C889 H947 0.930 . S
C890 C893 1.348 . S
C890 C894 1.356 . S
C890 O941 1.325 . S
C891 N892 1.279 . S
C891 C894 1.358 . S
C891 H948 0.930 . S
N892 C891 1.279 . S
N892 C895 1.314 . S
C893 C890 1.348 . S
C893 C895 1.353 . S
C893 H949 0.929 . S
C894 C890 1.356 . S
C894 C891 1.358 . S
C894 H950 0.930 . S
C895 N892 1.314 . S
C895 C893 1.353 . S
C895 H951 0.930 . S
C896 N897 1.314 . S
C896 C901 1.353 . S
C896 H902 0.930 . S
N897 Li880 1.990 . S
N897 C896 1.314 . S
N897 C899 1.279 . S
C898 C899 1.358 . S
C898 C900 1.356 . S
C898 H952 0.930 . S
C899 N897 1.279 . S
C899 C898 1.358 . S
C899 H903 0.930 . S
C900 C898 1.356 . S
C900 C901 1.348 . S
C901 C896 1.353 . S
C901 C900 1.348 . S
C901 H953 0.929 . S
H902 C896 0.930 . S
H903 C899 0.930 . S
C904 N905 1.314 . S
C904 C906 1.353 . S
C904 H910 0.930 . S
N905 Li881 1.990 . S
N905 C904 1.314 . S
N905 C908 1.279 . S
C906 C904 1.353 . S
C906 C909 1.348 . S
C906 H954 0.929 . S
C907 C908 1.358 . S
C907 C909 1.356 . S
C907 H955 0.930 . S
C908 N905 1.279 . S
C908 C907 1.358 . S
C908 H911 0.930 . S
C909 C906 1.348 . S
C909 C907 1.356 . S
H910 C904 0.930 . S
H911 C908 0.930 . S
C912 C914 1.348 . S
C912 C915 1.356 . S
C912 O942 1.325 . S
N913 C916 1.314 . S
N913 C917 1.279 . S
C914 C912 1.348 . S
C914 C916 1.353 . S
C914 H956 0.929 . S
C915 C912 1.356 . S
C915 C917 1.358 . S
C915 H957 0.930 . S
C916 N913 1.314 . S
C916 C914 1.353 . S
C916 H958 0.930 . S
C917 N913 1.279 . S
C917 C915 1.358 . S
C917 H959 0.930 . S
C918 C919 1.348 . S
C918 C920 1.356 . S
C918 O943 1.325 . S
C919 C918 1.348 . S
C919 C921 1.353 . S
C919 H960 0.929 . S
C920 C918 1.356 . S
C920 C922 1.358 . S
C920 H961 0.930 . S
C921 C919 1.353 . S
C921 N923 1.314 . S
C921 H962 0.930 . S
C922 C920 1.358 . S
C922 N923 1.279 . S
C922 H963 0.930 . S
N923 C921 1.314 . S
N923 C922 1.279 . S
C924 C926 1.353 . S
C924 N927 1.314 . S
C924 H930 0.930 . S
C925 N927 1.279 . S
C925 C928 1.358 . S
C925 H931 0.930 . S
C926 C924 1.353 . S
C926 C929 1.348 . S
C926 H964 0.929 . S
N927 Li882 1.990 . S
N927 C924 1.314 . S
N927 C925 1.279 . S
C928 C925 1.358 . S
C928 C929 1.356 . S
C928 H965 0.930 . S
C929 C926 1.348 . S
C929 C928 1.356 . S
H930 C924 0.930 . S
H931 C925 0.930 . S
C932 N933 1.314 . S
C932 C934 1.353 . S
C932 H938 0.930 . S
N933 Li883 1.990 . S
N933 C932 1.314 . S
N933 C936 1.279 . S
C934 C932 1.353 . S
C934 C937 1.348 . S
C934 H966 0.929 . S
C935 C936 1.358 . S
C935 C937 1.356 . S
C935 H967 0.930 . S
C936 N933 1.279 . S
C936 C935 1.358 . S
C936 H939 0.930 . S
C937 C934 1.348 . S
C937 C935 1.356 . S
H938 C932 0.930 . S
H939 C936 0.930 . S
O940 Li880 1.956 . S
O940 Li881 1.970 . S
O940 Li882 1.961 . S
O940 C884 1.325 . S
O941 Li880 1.970 . S
O941 Li881 1.956 . S
O941 Li883 1.961 . S
O941 C890 1.325 . S
O942 Li880 1.961 . S
O942 Li882 1.956 . S
O942 Li883 1.970 . S
O942 C912 1.325 . S
O943 Li881 1.961 . S
O943 Li882 1.970 . S
O943 Li883 1.956 . S
O943 C918 1.325 . S
H944 C886 0.929 . S
H945 C887 0.930 . S
H946 C888 0.930 . S
H947 C889 0.930 . S
H948 C891 0.930 . S
H949 C893 0.929 . S
H950 C894 0.930 . S
H951 C895 0.930 . S
H952 C898 0.930 . S
H953 C901 0.929 . S
H954 C906 0.929 . S
H955 C907 0.930 . S
H956 C914 0.929 . S
H957 C915 0.930 . S
H958 C916 0.930 . S
H959 C917 0.930 . S
H960 C919 0.929 . S
H961 C920 0.930 . S
H962 C921 0.930 . S
H963 C922 0.930 . S
H964 C926 0.929 . S
H965 C928 0.930 . S
H966 C934 0.929 . S
H967 C935 0.930 . S
Li968 N985 1.990 . S
Li968 O1028 1.956 . S
Li968 O1029 1.970 . S
Li968 O1030 1.961 . S
Li969 N993 1.990 . S
Li969 O1028 1.970 . S
Li969 O1029 1.956 . S
Li969 O1031 1.961 . S
Li970 N1015 1.990 . S
Li970 O1028 1.961 . S
Li970 O1030 1.956 . S
Li970 O1031 1.970 . S
Li971 N1021 1.990 . S
Li971 O1029 1.961 . S
Li971 O1030 1.970 . S
Li971 O1031 1.956 . S
C972 C974 1.348 . S
C972 C975 1.356 . S
C972 O1028 1.325 . S
N973 C976 1.314 . S
N973 C977 1.279 . S
C974 C972 1.348 . S
C974 C976 1.353 . S
C974 H1032 0.929 . S
C975 C972 1.356 . S
C975 C977 1.358 . S
C975 H1033 0.930 . S
C976 N973 1.314 . S
C976 C974 1.353 . S
C976 H1034 0.930 . S
C977 N973 1.279 . S
C977 C975 1.358 . S
C977 H1035 0.930 . S
C978 C981 1.348 . S
C978 C982 1.356 . S
C978 O1029 1.325 . S
C979 N980 1.279 . S
C979 C982 1.358 . S
C979 H1036 0.930 . S
N980 C979 1.279 . S
N980 C983 1.314 . S
C981 C978 1.348 . S
C981 C983 1.353 . S
C981 H1037 0.929 . S
C982 C978 1.356 . S
C982 C979 1.358 . S
C982 H1038 0.930 . S
C983 N980 1.314 . S
C983 C981 1.353 . S
C983 H1039 0.930 . S
C984 N985 1.314 . S
C984 C989 1.353 . S
C984 H990 0.930 . S
N985 Li968 1.990 . S
N985 C984 1.314 . S
N985 C987 1.279 . S
C986 C987 1.358 . S
C986 C988 1.356 . S
C986 H1040 0.930 . S
C987 N985 1.279 . S
C987 C986 1.358 . S
C987 H991 0.930 . S
C988 C986 1.356 . S
C988 C989 1.348 . S
C989 C984 1.353 . S
C989 C988 1.348 . S
C989 H1041 0.929 . S
H990 C984 0.930 . S
H991 C987 0.930 . S
C992 N993 1.314 . S
C992 C994 1.353 . S
C992 H998 0.930 . S
N993 Li969 1.990 . S
N993 C992 1.314 . S
N993 C996 1.279 . S
C994 C992 1.353 . S
C994 C997 1.348 . S
C994 H1042 0.929 . S
C995 C996 1.358 . S
C995 C997 1.356 . S
C995 H1043 0.930 . S
C996 N993 1.279 . S
C996 C995 1.358 . S
C996 H999 0.930 . S
C997 C994 1.348 . S
C997 C995 1.356 . S
H998 C992 0.930 . S
H999 C996 0.930 . S
C1000 C1002 1.348 . S
C1000 C1003 1.356 . S
C1000 O1030 1.325 . S
N1001 C1004 1.314 . S
N1001 C1005 1.279 . S
C1002 C1000 1.348 . S
C1002 C1004 1.353 . S
C1002 H1044 0.929 . S
C1003 C1000 1.356 . S
C1003 C1005 1.358 . S
C1003 H1045 0.930 . S
C1004 N1001 1.314 . S
C1004 C1002 1.353 . S
C1004 H1046 0.930 . S
C1005 N1001 1.279 . S
C1005 C1003 1.358 . S
C1005 H1047 0.930 . S
C1006 C1007 1.348 . S
C1006 C1008 1.356 . S
C1006 O1031 1.325 . S
C1007 C1006 1.348 . S
C1007 C1009 1.353 . S
C1007 H1048 0.929 . S
C1008 C1006 1.356 . S
C1008 C1010 1.358 . S
C1008 H1049 0.930 . S
C1009 C1007 1.353 . S
C1009 N1011 1.314 . S
C1009 H1050 0.930 . S
C1010 C1008 1.358 . S
C1010 N1011 1.279 . S
C1010 H1051 0.930 . S
N1011 C1009 1.314 . S
N1011 C1010 1.279 . S
C1012 C1014 1.353 . S
C1012 N1015 1.314 . S
C1012 H1018 0.930 . S
C1013 N1015 1.279 . S
C1013 C1016 1.358 . S
C1013 H1019 0.930 . S
C1014 C1012 1.353 . S
C1014 C1017 1.348 . S
C1014 H1052 0.929 . S
N1015 Li970 1.990 . S
N1015 C1012 1.314 . S
N1015 C1013 1.279 . S
C1016 C1013 1.358 . S
C1016 C1017 1.356 . S
C1016 H1053 0.930 . S
C1017 C1014 1.348 . S
C1017 C1016 1.356 . S
H1018 C1012 0.930 . S
H1019 C1013 0.930 . S
C1020 N1021 1.314 . S
C1020 C1022 1.353 . S
C1020 H1026 0.930 . S
N1021 Li971 1.990 . S
N1021 C1020 1.314 . S
N1021 C1024 1.279 . S
C1022 C1020 1.353 . S
C1022 C1025 1.348 . S
C1022 H1054 0.929 . S
C1023 C1024 1.358 . S
C1023 C1025 1.356 . S
C1023 H1055 0.930 . S
C1024 N1021 1.279 . S
C1024 C1023 1.358 . S
C1024 H1027 0.930 . S
C1025 C1022 1.348 . S
C1025 C1023 1.356 . S
H1026 C1020 0.930 . S
H1027 C1024 0.930 . S
O1028 Li968 1.956 . S
O1028 Li969 1.970 . S
O1028 Li970 1.961 . S
O1028 C972 1.325 . S
O1029 Li968 1.970 . S
O1029 Li969 1.956 . S
O1029 Li971 1.961 . S
O1029 C978 1.325 . S
O1030 Li968 1.961 . S
O1030 Li970 1.956 . S
O1030 Li971 1.970 . S
O1030 C1000 1.325 . S
O1031 Li969 1.961 . S
O1031 Li970 1.970 . S
O1031 Li971 1.956 . S
O1031 C1006 1.325 . S
H1032 C974 0.929 . S
H1033 C975 0.930 . S
H1034 C976 0.930 . S
H1035 C977 0.930 . S
H1036 C979 0.930 . S
H1037 C981 0.929 . S
H1038 C982 0.930 . S
H1039 C983 0.930 . S
H1040 C986 0.930 . S
H1041 C989 0.929 . S
H1042 C994 0.929 . S
H1043 C995 0.930 . S
H1044 C1002 0.929 . S
H1045 C1003 0.930 . S
H1046 C1004 0.930 . S
H1047 C1005 0.930 . S
H1048 C1007 0.929 . S
H1049 C1008 0.930 . S
H1050 C1009 0.930 . S
H1051 C1010 0.930 . S
H1052 C1014 0.929 . S
H1053 C1016 0.930 . S
H1054 C1022 0.929 . S
H1055 C1023 0.930 . S
Li1056 N1073 1.990 . S
Li1056 O1116 1.956 . S
Li1056 O1117 1.970 . S
Li1056 O1118 1.961 . S
Li1057 N1081 1.990 . S
Li1057 O1116 1.970 . S
Li1057 O1117 1.956 . S
Li1057 O1119 1.961 . S
Li1058 N1103 1.990 . S
Li1058 O1116 1.961 . S
Li1058 O1118 1.956 . S
Li1058 O1119 1.970 . S
Li1059 N1109 1.990 . S
Li1059 O1117 1.961 . S
Li1059 O1118 1.970 . S
Li1059 O1119 1.956 . S
C1060 C1062 1.348 . S
C1060 C1063 1.356 . S
C1060 O1116 1.325 . S
N1061 C1064 1.314 . S
N1061 C1065 1.279 . S
C1062 C1060 1.348 . S
C1062 C1064 1.353 . S
C1062 H1120 0.929 . S
C1063 C1060 1.356 . S
C1063 C1065 1.358 . S
C1063 H1121 0.930 . S
C1064 N1061 1.314 . S
C1064 C1062 1.353 . S
C1064 H1122 0.930 . S
C1065 N1061 1.279 . S
C1065 C1063 1.358 . S
C1065 H1123 0.930 . S
C1066 C1069 1.348 . S
C1066 C1070 1.356 . S
C1066 O1117 1.325 . S
C1067 N1068 1.279 . S
C1067 C1070 1.358 . S
C1067 H1124 0.930 . S
N1068 C1067 1.279 . S
N1068 C1071 1.314 . S
C1069 C1066 1.348 . S
C1069 C1071 1.353 . S
C1069 H1125 0.929 . S
C1070 C1066 1.356 . S
C1070 C1067 1.358 . S
C1070 H1126 0.930 . S
C1071 N1068 1.314 . S
C1071 C1069 1.353 . S
C1071 H1127 0.930 . S
C1072 N1073 1.314 . S
C1072 C1077 1.353 . S
C1072 H1078 0.930 . S
N1073 Li1056 1.990 . S
N1073 C1072 1.314 . S
N1073 C1075 1.279 . S
C1074 C1075 1.358 . S
C1074 C1076 1.356 . S
C1074 H1128 0.930 . S
C1075 N1073 1.279 . S
C1075 C1074 1.358 . S
C1075 H1079 0.930 . S
C1076 C1074 1.356 . S
C1076 C1077 1.348 . S
C1077 C1072 1.353 . S
C1077 C1076 1.348 . S
C1077 H1129 0.929 . S
H1078 C1072 0.930 . S
H1079 C1075 0.930 . S
C1080 N1081 1.314 . S
C1080 C1082 1.353 . S
C1080 H1086 0.930 . S
N1081 Li1057 1.990 . S
N1081 C1080 1.314 . S
N1081 C1084 1.279 . S
C1082 C1080 1.353 . S
C1082 C1085 1.348 . S
C1082 H1130 0.929 . S
C1083 C1084 1.358 . S
C1083 C1085 1.356 . S
C1083 H1131 0.930 . S
C1084 N1081 1.279 . S
C1084 C1083 1.358 . S
C1084 H1087 0.930 . S
C1085 C1082 1.348 . S
C1085 C1083 1.356 . S
H1086 C1080 0.930 . S
H1087 C1084 0.930 . S
C1088 C1090 1.348 . S
C1088 C1091 1.356 . S
C1088 O1118 1.325 . S
N1089 C1092 1.314 . S
N1089 C1093 1.279 . S
C1090 C1088 1.348 . S
C1090 C1092 1.353 . S
C1090 H1132 0.929 . S
C1091 C1088 1.356 . S
C1091 C1093 1.358 . S
C1091 H1133 0.930 . S
C1092 N1089 1.314 . S
C1092 C1090 1.353 . S
C1092 H1134 0.930 . S
C1093 N1089 1.279 . S
C1093 C1091 1.358 . S
C1093 H1135 0.930 . S
C1094 C1095 1.348 . S
C1094 C1096 1.356 . S
C1094 O1119 1.325 . S
C1095 C1094 1.348 . S
C1095 C1097 1.353 . S
C1095 H1136 0.929 . S
C1096 C1094 1.356 . S
C1096 C1098 1.358 . S
C1096 H1137 0.930 . S
C1097 C1095 1.353 . S
C1097 N1099 1.314 . S
C1097 H1138 0.930 . S
C1098 C1096 1.358 . S
C1098 N1099 1.279 . S
C1098 H1139 0.930 . S
N1099 C1097 1.314 . S
N1099 C1098 1.279 . S
C1100 C1102 1.353 . S
C1100 N1103 1.314 . S
C1100 H1106 0.930 . S
C1101 N1103 1.279 . S
C1101 C1104 1.358 . S
C1101 H1107 0.930 . S
C1102 C1100 1.353 . S
C1102 C1105 1.348 . S
C1102 H1140 0.929 . S
N1103 Li1058 1.990 . S
N1103 C1100 1.314 . S
N1103 C1101 1.279 . S
C1104 C1101 1.358 . S
C1104 C1105 1.356 . S
C1104 H1141 0.930 . S
C1105 C1102 1.348 . S
C1105 C1104 1.356 . S
H1106 C1100 0.930 . S
H1107 C1101 0.930 . S
C1108 N1109 1.314 . S
C1108 C1110 1.353 . S
C1108 H1114 0.930 . S
N1109 Li1059 1.990 . S
N1109 C1108 1.314 . S
N1109 C1112 1.279 . S
C1110 C1108 1.353 . S
C1110 C1113 1.348 . S
C1110 H1142 0.929 . S
C1111 C1112 1.358 . S
C1111 C1113 1.356 . S
C1111 H1143 0.930 . S
C1112 N1109 1.279 . S
C1112 C1111 1.358 . S
C1112 H1115 0.930 . S
C1113 C1110 1.348 . S
C1113 C1111 1.356 . S
H1114 C1108 0.930 . S
H1115 C1112 0.930 . S
O1116 Li1056 1.956 . S
O1116 Li1057 1.970 . S
O1116 Li1058 1.961 . S
O1116 C1060 1.325 . S
O1117 Li1056 1.970 . S
O1117 Li1057 1.956 . S
O1117 Li1059 1.961 . S
O1117 C1066 1.325 . S
O1118 Li1056 1.961 . S
O1118 Li1058 1.956 . S
O1118 Li1059 1.970 . S
O1118 C1088 1.325 . S
O1119 Li1057 1.961 . S
O1119 Li1058 1.970 . S
O1119 Li1059 1.956 . S
O1119 C1094 1.325 . S
H1120 C1062 0.929 . S
H1121 C1063 0.930 . S
H1122 C1064 0.930 . S
H1123 C1065 0.930 . S
H1124 C1067 0.930 . S
H1125 C1069 0.929 . S
H1126 C1070 0.930 . S
H1127 C1071 0.930 . S
H1128 C1074 0.930 . S
H1129 C1077 0.929 . S
H1130 C1082 0.929 . S
H1131 C1083 0.930 . S
H1132 C1090 0.929 . S
H1133 C1091 0.930 . S
H1134 C1092 0.930 . S
H1135 C1093 0.930 . S
H1136 C1095 0.929 . S
H1137 C1096 0.930 . S
H1138 C1097 0.930 . S
H1139 C1098 0.930 . S
H1140 C1102 0.929 . S
H1141 C1104 0.930 . S
H1142 C1110 0.929 . S
H1143 C1111 0.930 . S
Li1144 N1161 1.990 . S
Li1144 O1204 1.956 . S
Li1144 O1205 1.970 . S
Li1144 O1206 1.961 . S
Li1145 N1169 1.990 . S
Li1145 O1204 1.970 . S
Li1145 O1205 1.956 . S
Li1145 O1207 1.961 . S
Li1146 N1191 1.990 . S
Li1146 O1204 1.961 . S
Li1146 O1206 1.956 . S
Li1146 O1207 1.970 . S
Li1147 N1197 1.990 . S
Li1147 O1205 1.961 . S
Li1147 O1206 1.970 . S
Li1147 O1207 1.956 . S
C1148 C1150 1.348 . S
C1148 C1151 1.356 . S
C1148 O1204 1.325 . S
N1149 C1152 1.314 . S
N1149 C1153 1.279 . S
C1150 C1148 1.348 . S
C1150 C1152 1.353 . S
C1150 H1208 0.929 . S
C1151 C1148 1.356 . S
C1151 C1153 1.358 . S
C1151 H1209 0.930 . S
C1152 N1149 1.314 . S
C1152 C1150 1.353 . S
C1152 H1210 0.930 . S
C1153 N1149 1.279 . S
C1153 C1151 1.358 . S
C1153 H1211 0.930 . S
C1154 C1157 1.348 . S
C1154 C1158 1.356 . S
C1154 O1205 1.325 . S
C1155 N1156 1.279 . S
C1155 C1158 1.358 . S
C1155 H1212 0.930 . S
N1156 C1155 1.279 . S
N1156 C1159 1.314 . S
C1157 C1154 1.348 . S
C1157 C1159 1.353 . S
C1157 H1213 0.929 . S
C1158 C1154 1.356 . S
C1158 C1155 1.358 . S
C1158 H1214 0.930 . S
C1159 N1156 1.314 . S
C1159 C1157 1.353 . S
C1159 H1215 0.930 . S
C1160 N1161 1.314 . S
C1160 C1165 1.353 . S
C1160 H1166 0.930 . S
N1161 Li1144 1.990 . S
N1161 C1160 1.314 . S
N1161 C1163 1.279 . S
C1162 C1163 1.358 . S
C1162 C1164 1.356 . S
C1162 H1216 0.930 . S
C1163 N1161 1.279 . S
C1163 C1162 1.358 . S
C1163 H1167 0.930 . S
C1164 C1162 1.356 . S
C1164 C1165 1.348 . S
C1165 C1160 1.353 . S
C1165 C1164 1.348 . S
C1165 H1217 0.929 . S
H1166 C1160 0.930 . S
H1167 C1163 0.930 . S
C1168 N1169 1.314 . S
C1168 C1170 1.353 . S
C1168 H1174 0.930 . S
N1169 Li1145 1.990 . S
N1169 C1168 1.314 . S
N1169 C1172 1.279 . S
C1170 C1168 1.353 . S
C1170 C1173 1.348 . S
C1170 H1218 0.929 . S
C1171 C1172 1.358 . S
C1171 C1173 1.356 . S
C1171 H1219 0.930 . S
C1172 N1169 1.279 . S
C1172 C1171 1.358 . S
C1172 H1175 0.930 . S
C1173 C1170 1.348 . S
C1173 C1171 1.356 . S
H1174 C1168 0.930 . S
H1175 C1172 0.930 . S
C1176 C1178 1.348 . S
C1176 C1179 1.356 . S
C1176 O1206 1.325 . S
N1177 C1180 1.314 . S
N1177 C1181 1.279 . S
C1178 C1176 1.348 . S
C1178 C1180 1.353 . S
C1178 H1220 0.929 . S
C1179 C1176 1.356 . S
C1179 C1181 1.358 . S
C1179 H1221 0.930 . S
C1180 N1177 1.314 . S
C1180 C1178 1.353 . S
C1180 H1222 0.930 . S
C1181 N1177 1.279 . S
C1181 C1179 1.358 . S
C1181 H1223 0.930 . S
C1182 C1183 1.348 . S
C1182 C1184 1.356 . S
C1182 O1207 1.325 . S
C1183 C1182 1.348 . S
C1183 C1185 1.353 . S
C1183 H1224 0.929 . S
C1184 C1182 1.356 . S
C1184 C1186 1.358 . S
C1184 H1225 0.930 . S
C1185 C1183 1.353 . S
C1185 N1187 1.314 . S
C1185 H1226 0.930 . S
C1186 C1184 1.358 . S
C1186 N1187 1.279 . S
C1186 H1227 0.930 . S
N1187 C1185 1.314 . S
N1187 C1186 1.279 . S
C1188 C1190 1.353 . S
C1188 N1191 1.314 . S
C1188 H1194 0.930 . S
C1189 N1191 1.279 . S
C1189 C1192 1.358 . S
C1189 H1195 0.930 . S
C1190 C1188 1.353 . S
C1190 C1193 1.348 . S
C1190 H1228 0.929 . S
N1191 Li1146 1.990 . S
N1191 C1188 1.314 . S
N1191 C1189 1.279 . S
C1192 C1189 1.358 . S
C1192 C1193 1.356 . S
C1192 H1229 0.930 . S
C1193 C1190 1.348 . S
C1193 C1192 1.356 . S
H1194 C1188 0.930 . S
H1195 C1189 0.930 . S
C1196 N1197 1.314 . S
C1196 C1198 1.353 . S
C1196 H1202 0.930 . S
N1197 Li1147 1.990 . S
N1197 C1196 1.314 . S
N1197 C1200 1.279 . S
C1198 C1196 1.353 . S
C1198 C1201 1.348 . S
C1198 H1230 0.929 . S
C1199 C1200 1.358 . S
C1199 C1201 1.356 . S
C1199 H1231 0.930 . S
C1200 N1197 1.279 . S
C1200 C1199 1.358 . S
C1200 H1203 0.930 . S
C1201 C1198 1.348 . S
C1201 C1199 1.356 . S
H1202 C1196 0.930 . S
H1203 C1200 0.930 . S
O1204 Li1144 1.956 . S
O1204 Li1145 1.970 . S
O1204 Li1146 1.961 . S
O1204 C1148 1.325 . S
O1205 Li1144 1.970 . S
O1205 Li1145 1.956 . S
O1205 Li1147 1.961 . S
O1205 C1154 1.325 . S
O1206 Li1144 1.961 . S
O1206 Li1146 1.956 . S
O1206 Li1147 1.970 . S
O1206 C1176 1.325 . S
O1207 Li1145 1.961 . S
O1207 Li1146 1.970 . S
O1207 Li1147 1.956 . S
O1207 C1182 1.325 . S
H1208 C1150 0.929 . S
H1209 C1151 0.930 . S
H1210 C1152 0.930 . S
H1211 C1153 0.930 . S
H1212 C1155 0.930 . S
H1213 C1157 0.929 . S
H1214 C1158 0.930 . S
H1215 C1159 0.930 . S
H1216 C1162 0.930 . S
H1217 C1165 0.929 . S
H1218 C1170 0.929 . S
H1219 C1171 0.930 . S
H1220 C1178 0.929 . S
H1221 C1179 0.930 . S
H1222 C1180 0.930 . S
H1223 C1181 0.930 . S
H1224 C1183 0.929 . S
H1225 C1184 0.930 . S
H1226 C1185 0.930 . S
H1227 C1186 0.930 . S
H1228 C1190 0.929 . S
H1229 C1192 0.930 . S
H1230 C1198 0.929 . S
H1231 C1199 0.930 . S
Li1232 N1249 1.990 . S
Li1232 O1292 1.956 . S
Li1232 O1293 1.970 . S
Li1232 O1294 1.961 . S
Li1233 N1257 1.990 . S
Li1233 O1292 1.970 . S
Li1233 O1293 1.956 . S
Li1233 O1295 1.961 . S
Li1234 N1279 1.990 . S
Li1234 O1292 1.961 . S
Li1234 O1294 1.956 . S
Li1234 O1295 1.970 . S
Li1235 N1285 1.990 . S
Li1235 O1293 1.961 . S
Li1235 O1294 1.970 . S
Li1235 O1295 1.956 . S
C1236 C1238 1.348 . S
C1236 C1239 1.356 . S
C1236 O1292 1.325 . S
N1237 C1240 1.314 . S
N1237 C1241 1.279 . S
C1238 C1236 1.348 . S
C1238 C1240 1.353 . S
C1238 H1296 0.929 . S
C1239 C1236 1.356 . S
C1239 C1241 1.358 . S
C1239 H1297 0.930 . S
C1240 N1237 1.314 . S
C1240 C1238 1.353 . S
C1240 H1298 0.930 . S
C1241 N1237 1.279 . S
C1241 C1239 1.358 . S
C1241 H1299 0.930 . S
C1242 C1245 1.348 . S
C1242 C1246 1.356 . S
C1242 O1293 1.325 . S
C1243 N1244 1.279 . S
C1243 C1246 1.358 . S
C1243 H1300 0.930 . S
N1244 C1243 1.279 . S
N1244 C1247 1.314 . S
C1245 C1242 1.348 . S
C1245 C1247 1.353 . S
C1245 H1301 0.929 . S
C1246 C1242 1.356 . S
C1246 C1243 1.358 . S
C1246 H1302 0.930 . S
C1247 N1244 1.314 . S
C1247 C1245 1.353 . S
C1247 H1303 0.930 . S
C1248 N1249 1.314 . S
C1248 C1253 1.353 . S
C1248 H1254 0.930 . S
N1249 Li1232 1.990 . S
N1249 C1248 1.314 . S
N1249 C1251 1.279 . S
C1250 C1251 1.358 . S
C1250 C1252 1.356 . S
C1250 H1304 0.930 . S
C1251 N1249 1.279 . S
C1251 C1250 1.358 . S
C1251 H1255 0.930 . S
C1252 C1250 1.356 . S
C1252 C1253 1.348 . S
C1253 C1248 1.353 . S
C1253 C1252 1.348 . S
C1253 H1305 0.929 . S
H1254 C1248 0.930 . S
H1255 C1251 0.930 . S
C1256 N1257 1.314 . S
C1256 C1258 1.353 . S
C1256 H1262 0.930 . S
N1257 Li1233 1.990 . S
N1257 C1256 1.314 . S
N1257 C1260 1.279 . S
C1258 C1256 1.353 . S
C1258 C1261 1.348 . S
C1258 H1306 0.929 . S
C1259 C1260 1.358 . S
C1259 C1261 1.356 . S
C1259 H1307 0.930 . S
C1260 N1257 1.279 . S
C1260 C1259 1.358 . S
C1260 H1263 0.930 . S
C1261 C1258 1.348 . S
C1261 C1259 1.356 . S
H1262 C1256 0.930 . S
H1263 C1260 0.930 . S
C1264 C1266 1.348 . S
C1264 C1267 1.356 . S
C1264 O1294 1.325 . S
N1265 C1268 1.314 . S
N1265 C1269 1.279 . S
C1266 C1264 1.348 . S
C1266 C1268 1.353 . S
C1266 H1308 0.929 . S
C1267 C1264 1.356 . S
C1267 C1269 1.358 . S
C1267 H1309 0.930 . S
C1268 N1265 1.314 . S
C1268 C1266 1.353 . S
C1268 H1310 0.930 . S
C1269 N1265 1.279 . S
C1269 C1267 1.358 . S
C1269 H1311 0.930 . S
C1270 C1271 1.348 . S
C1270 C1272 1.356 . S
C1270 O1295 1.325 . S
C1271 C1270 1.348 . S
C1271 C1273 1.353 . S
C1271 H1312 0.929 . S
C1272 C1270 1.356 . S
C1272 C1274 1.358 . S
C1272 H1313 0.930 . S
C1273 C1271 1.353 . S
C1273 N1275 1.314 . S
C1273 H1314 0.930 . S
C1274 C1272 1.358 . S
C1274 N1275 1.279 . S
C1274 H1315 0.930 . S
N1275 C1273 1.314 . S
N1275 C1274 1.279 . S
C1276 C1278 1.353 . S
C1276 N1279 1.314 . S
C1276 H1282 0.930 . S
C1277 N1279 1.279 . S
C1277 C1280 1.358 . S
C1277 H1283 0.930 . S
C1278 C1276 1.353 . S
C1278 C1281 1.348 . S
C1278 H1316 0.929 . S
N1279 Li1234 1.990 . S
N1279 C1276 1.314 . S
N1279 C1277 1.279 . S
C1280 C1277 1.358 . S
C1280 C1281 1.356 . S
C1280 H1317 0.930 . S
C1281 C1278 1.348 . S
C1281 C1280 1.356 . S
H1282 C1276 0.930 . S
H1283 C1277 0.930 . S
C1284 N1285 1.314 . S
C1284 C1286 1.353 . S
C1284 H1290 0.930 . S
N1285 Li1235 1.990 . S
N1285 C1284 1.314 . S
N1285 C1288 1.279 . S
C1286 C1284 1.353 . S
C1286 C1289 1.348 . S
C1286 H1318 0.929 . S
C1287 C1288 1.358 . S
C1287 C1289 1.356 . S
C1287 H1319 0.930 . S
C1288 N1285 1.279 . S
C1288 C1287 1.358 . S
C1288 H1291 0.930 . S
C1289 C1286 1.348 . S
C1289 C1287 1.356 . S
H1290 C1284 0.930 . S
H1291 C1288 0.930 . S
O1292 Li1232 1.956 . S
O1292 Li1233 1.970 . S
O1292 Li1234 1.961 . S
O1292 C1236 1.325 . S
O1293 Li1232 1.970 . S
O1293 Li1233 1.956 . S
O1293 Li1235 1.961 . S
O1293 C1242 1.325 . S
O1294 Li1232 1.961 . S
O1294 Li1234 1.956 . S
O1294 Li1235 1.970 . S
O1294 C1264 1.325 . S
O1295 Li1233 1.961 . S
O1295 Li1234 1.970 . S
O1295 Li1235 1.956 . S
O1295 C1270 1.325 . S
H1296 C1238 0.929 . S
H1297 C1239 0.930 . S
H1298 C1240 0.930 . S
H1299 C1241 0.930 . S
H1300 C1243 0.930 . S
H1301 C1245 0.929 . S
H1302 C1246 0.930 . S
H1303 C1247 0.930 . S
H1304 C1250 0.930 . S
H1305 C1253 0.929 . S
H1306 C1258 0.929 . S
H1307 C1259 0.930 . S
H1308 C1266 0.929 . S
H1309 C1267 0.930 . S
H1310 C1268 0.930 . S
H1311 C1269 0.930 . S
H1312 C1271 0.929 . S
H1313 C1272 0.930 . S
H1314 C1273 0.930 . S
H1315 C1274 0.930 . S
H1316 C1278 0.929 . S
H1317 C1280 0.930 . S
H1318 C1286 0.929 . S
H1319 C1287 0.930 . S
Li1320 N1337 1.990 . S
Li1320 O1380 1.956 . S
Li1320 O1381 1.970 . S
Li1320 O1382 1.961 . S
Li1321 N1345 1.990 . S
Li1321 O1380 1.970 . S
Li1321 O1381 1.956 . S
Li1321 O1383 1.961 . S
Li1322 N1367 1.990 . S
Li1322 O1380 1.961 . S
Li1322 O1382 1.956 . S
Li1322 O1383 1.970 . S
Li1323 N1373 1.990 . S
Li1323 O1381 1.961 . S
Li1323 O1382 1.970 . S
Li1323 O1383 1.956 . S
C1324 C1326 1.348 . S
C1324 C1327 1.356 . S
C1324 O1380 1.325 . S
N1325 C1328 1.314 . S
N1325 C1329 1.279 . S
C1326 C1324 1.348 . S
C1326 C1328 1.353 . S
C1326 H1384 0.929 . S
C1327 C1324 1.356 . S
C1327 C1329 1.358 . S
C1327 H1385 0.930 . S
C1328 N1325 1.314 . S
C1328 C1326 1.353 . S
C1328 H1386 0.930 . S
C1329 N1325 1.279 . S
C1329 C1327 1.358 . S
C1329 H1387 0.930 . S
C1330 C1333 1.348 . S
C1330 C1334 1.356 . S
C1330 O1381 1.325 . S
C1331 N1332 1.279 . S
C1331 C1334 1.358 . S
C1331 H1388 0.930 . S
N1332 C1331 1.279 . S
N1332 C1335 1.314 . S
C1333 C1330 1.348 . S
C1333 C1335 1.353 . S
C1333 H1389 0.929 . S
C1334 C1330 1.356 . S
C1334 C1331 1.358 . S
C1334 H1390 0.930 . S
C1335 N1332 1.314 . S
C1335 C1333 1.353 . S
C1335 H1391 0.930 . S
C1336 N1337 1.314 . S
C1336 C1341 1.353 . S
C1336 H1342 0.930 . S
N1337 Li1320 1.990 . S
N1337 C1336 1.314 . S
N1337 C1339 1.279 . S
C1338 C1339 1.358 . S
C1338 C1340 1.356 . S
C1338 H1392 0.930 . S
C1339 N1337 1.279 . S
C1339 C1338 1.358 . S
C1339 H1343 0.930 . S
C1340 C1338 1.356 . S
C1340 C1341 1.348 . S
C1341 C1336 1.353 . S
C1341 C1340 1.348 . S
C1341 H1393 0.929 . S
H1342 C1336 0.930 . S
H1343 C1339 0.930 . S
C1344 N1345 1.314 . S
C1344 C1346 1.353 . S
C1344 H1350 0.930 . S
N1345 Li1321 1.990 . S
N1345 C1344 1.314 . S
N1345 C1348 1.279 . S
C1346 C1344 1.353 . S
C1346 C1349 1.348 . S
C1346 H1394 0.929 . S
C1347 C1348 1.358 . S
C1347 C1349 1.356 . S
C1347 H1395 0.930 . S
C1348 N1345 1.279 . S
C1348 C1347 1.358 . S
C1348 H1351 0.930 . S
C1349 C1346 1.348 . S
C1349 C1347 1.356 . S
H1350 C1344 0.930 . S
H1351 C1348 0.930 . S
C1352 C1354 1.348 . S
C1352 C1355 1.356 . S
C1352 O1382 1.325 . S
N1353 C1356 1.314 . S
N1353 C1357 1.279 . S
C1354 C1352 1.348 . S
C1354 C1356 1.353 . S
C1354 H1396 0.929 . S
C1355 C1352 1.356 . S
C1355 C1357 1.358 . S
C1355 H1397 0.930 . S
C1356 N1353 1.314 . S
C1356 C1354 1.353 . S
C1356 H1398 0.930 . S
C1357 N1353 1.279 . S
C1357 C1355 1.358 . S
C1357 H1399 0.930 . S
C1358 C1359 1.348 . S
C1358 C1360 1.356 . S
C1358 O1383 1.325 . S
C1359 C1358 1.348 . S
C1359 C1361 1.353 . S
C1359 H1400 0.929 . S
C1360 C1358 1.356 . S
C1360 C1362 1.358 . S
C1360 H1401 0.930 . S
C1361 C1359 1.353 . S
C1361 N1363 1.314 . S
C1361 H1402 0.930 . S
C1362 C1360 1.358 . S
C1362 N1363 1.279 . S
C1362 H1403 0.930 . S
N1363 C1361 1.314 . S
N1363 C1362 1.279 . S
C1364 C1366 1.353 . S
C1364 N1367 1.314 . S
C1364 H1370 0.930 . S
C1365 N1367 1.279 . S
C1365 C1368 1.358 . S
C1365 H1371 0.930 . S
C1366 C1364 1.353 . S
C1366 C1369 1.348 . S
C1366 H1404 0.929 . S
N1367 Li1322 1.990 . S
N1367 C1364 1.314 . S
N1367 C1365 1.279 . S
C1368 C1365 1.358 . S
C1368 C1369 1.356 . S
C1368 H1405 0.930 . S
C1369 C1366 1.348 . S
C1369 C1368 1.356 . S
H1370 C1364 0.930 . S
H1371 C1365 0.930 . S
C1372 N1373 1.314 . S
C1372 C1374 1.353 . S
C1372 H1378 0.930 . S
N1373 Li1323 1.990 . S
N1373 C1372 1.314 . S
N1373 C1376 1.279 . S
C1374 C1372 1.353 . S
C1374 C1377 1.348 . S
C1374 H1406 0.929 . S
C1375 C1376 1.358 . S
C1375 C1377 1.356 . S
C1375 H1407 0.930 . S
C1376 N1373 1.279 . S
C1376 C1375 1.358 . S
C1376 H1379 0.930 . S
C1377 C1374 1.348 . S
C1377 C1375 1.356 . S
H1378 C1372 0.930 . S
H1379 C1376 0.930 . S
O1380 Li1320 1.956 . S
O1380 Li1321 1.970 . S
O1380 Li1322 1.961 . S
O1380 C1324 1.325 . S
O1381 Li1320 1.970 . S
O1381 Li1321 1.956 . S
O1381 Li1323 1.961 . S
O1381 C1330 1.325 . S
O1382 Li1320 1.961 . S
O1382 Li1322 1.956 . S
O1382 Li1323 1.970 . S
O1382 C1352 1.325 . S
O1383 Li1321 1.961 . S
O1383 Li1322 1.970 . S
O1383 Li1323 1.956 . S
O1383 C1358 1.325 . S
H1384 C1326 0.929 . S
H1385 C1327 0.930 . S
H1386 C1328 0.930 . S
H1387 C1329 0.930 . S
H1388 C1331 0.930 . S
H1389 C1333 0.929 . S
H1390 C1334 0.930 . S
H1391 C1335 0.930 . S
H1392 C1338 0.930 . S
H1393 C1341 0.929 . S
H1394 C1346 0.929 . S
H1395 C1347 0.930 . S
H1396 C1354 0.929 . S
H1397 C1355 0.930 . S
H1398 C1356 0.930 . S
H1399 C1357 0.930 . S
H1400 C1359 0.929 . S
H1401 C1360 0.930 . S
H1402 C1361 0.930 . S
H1403 C1362 0.930 . S
H1404 C1366 0.929 . S
H1405 C1368 0.930 . S
H1406 C1374 0.929 . S
H1407 C1375 0.930 . S
H1408 C1426 0.951 . S
H1409 C1428 0.951 . S
H1410 C1430 0.950 . S
H1411 C1431 0.950 . S
H1412 C1433 0.950 . S
H1413 C1436 0.950 . S
H1414 C1437 0.950 . S
H1415 C1439 0.950 . S
H1416 C1440 0.950 . S
H1417 C1441 0.951 . S
H1418 C1443 0.951 . S
H1419 C1445 0.950 . S
H1420 C1446 0.950 . S
H1421 C1448 0.950 . S
H1422 C1451 0.950 . S
H1423 C1452 0.950 . S
H1424 C1454 0.950 . S
H1425 C1455 0.950 . S
C1426 H1408 0.951 . S
C1426 C1427 1.366 . S
C1426 C1428 1.388 . S
C1427 C1426 1.366 . S
C1427 C1431 1.385 . S
C1428 H1409 0.951 . S
C1428 C1426 1.388 . S
C1428 C1429 1.366 . S
C1429 C1428 1.366 . S
C1429 C1430 1.414 . S
C1429 C1432 1.499 . S
C1430 H1410 0.950 . S
C1430 C1429 1.414 . S
C1430 C1431 1.374 . S
C1431 H1411 0.950 . S
C1431 C1427 1.385 . S
C1431 C1430 1.374 . S
C1432 C1429 1.499 . S
C1432 C1433 1.373 . S
C1432 C1434 1.389 . S
C1433 H1412 0.950 . S
C1433 C1432 1.373 . S
C1433 C1449 1.377 . S
C1434 C1432 1.389 . S
C1434 C1435 1.524 . S
C1434 C1448 1.377 . S
C1435 C1434 1.524 . S
C1435 C1436 1.397 . S
C1435 C1440 1.363 . S
C1436 H1413 0.950 . S
C1436 C1435 1.397 . S
C1436 C1437 1.334 . S
C1437 H1414 0.950 . S
C1437 C1436 1.334 . S
C1437 C1438 1.287 . S
C1438 C1437 1.287 . S
C1438 C1439 1.524 . S
C1438 H1457 0.913 . S
C1439 H1415 0.950 . S
C1439 C1438 1.524 . S
C1439 C1440 1.415 . S
C1440 H1416 0.950 . S
C1440 C1435 1.363 . S
C1440 C1439 1.415 . S
C1441 H1417 0.951 . S
C1441 C1442 1.366 . S
C1441 C1443 1.388 . S
C1442 C1441 1.366 . S
C1442 C1446 1.385 . S
C1443 H1418 0.951 . S
C1443 C1441 1.388 . S
C1443 C1444 1.366 . S
C1444 C1443 1.366 . S
C1444 C1445 1.414 . S
C1444 C1447 1.499 . S
C1445 H1419 0.950 . S
C1445 C1444 1.414 . S
C1445 C1446 1.374 . S
C1446 H1420 0.950 . S
C1446 C1442 1.385 . S
C1446 C1445 1.374 . S
C1447 C1444 1.499 . S
C1447 C1448 1.373 . S
C1447 C1449 1.389 . S
C1448 H1421 0.950 . S
C1448 C1434 1.377 . S
C1448 C1447 1.373 . S
C1449 C1433 1.377 . S
C1449 C1447 1.389 . S
C1449 C1450 1.524 . S
C1450 C1449 1.524 . S
C1450 C1451 1.397 . S
C1450 C1455 1.363 . S
C1451 H1422 0.950 . S
C1451 C1450 1.397 . S
C1451 C1452 1.334 . S
C1452 H1423 0.950 . S
C1452 C1451 1.334 . S
C1452 C1453 1.287 . S
C1453 C1452 1.287 . S
C1453 C1454 1.524 . S
C1453 H1456 0.999 . S
C1454 H1424 0.950 . S
C1454 C1453 1.524 . S
C1454 C1455 1.415 . S
C1455 H1425 0.950 . S
C1455 C1450 1.363 . S
C1455 C1454 1.415 . S
H1456 C1453 0.999 . S
H1457 C1438 0.913 . S
H1458 C1476 0.951 . S
H1459 C1478 0.951 . S
H1460 C1480 0.950 . S
H1461 C1481 0.950 . S
H1462 C1483 0.950 . S
H1463 C1486 0.950 . S
H1464 C1487 0.950 . S
H1465 C1489 0.950 . S
H1466 C1490 0.950 . S
H1467 C1491 0.951 . S
H1468 C1493 0.951 . S
H1469 C1495 0.950 . S
H1470 C1496 0.950 . S
H1471 C1498 0.950 . S
H1472 C1501 0.950 . S
H1473 C1502 0.950 . S
H1474 C1504 0.950 . S
H1475 C1505 0.950 . S
C1476 H1458 0.951 . S
C1476 C1477 1.366 . S
C1476 C1478 1.388 . S
C1477 C1476 1.366 . S
C1477 C1481 1.385 . S
C1478 H1459 0.951 . S
C1478 C1476 1.388 . S
C1478 C1479 1.366 . S
C1479 C1478 1.366 . S
C1479 C1480 1.414 . S
C1479 C1482 1.499 . S
C1480 H1460 0.950 . S
C1480 C1479 1.414 . S
C1480 C1481 1.374 . S
C1481 H1461 0.950 . S
C1481 C1477 1.385 . S
C1481 C1480 1.374 . S
C1482 C1479 1.499 . S
C1482 C1483 1.373 . S
C1482 C1484 1.389 . S
C1483 H1462 0.950 . S
C1483 C1482 1.373 . S
C1483 C1499 1.377 . S
C1484 C1482 1.389 . S
C1484 C1485 1.524 . S
C1484 C1498 1.377 . S
C1485 C1484 1.524 . S
C1485 C1486 1.397 . S
C1485 C1490 1.363 . S
C1486 H1463 0.950 . S
C1486 C1485 1.397 . S
C1486 C1487 1.334 . S
C1487 H1464 0.950 . S
C1487 C1486 1.334 . S
C1487 C1488 1.287 . S
C1488 C1487 1.287 . S
C1488 C1489 1.524 . S
C1488 H1507 0.913 . S
C1489 H1465 0.950 . S
C1489 C1488 1.524 . S
C1489 C1490 1.415 . S
C1490 H1466 0.950 . S
C1490 C1485 1.363 . S
C1490 C1489 1.415 . S
C1491 H1467 0.951 . S
C1491 C1492 1.366 . S
C1491 C1493 1.388 . S
C1492 C1491 1.366 . S
C1492 C1496 1.385 . S
C1493 H1468 0.951 . S
C1493 C1491 1.388 . S
C1493 C1494 1.366 . S
C1494 C1493 1.366 . S
C1494 C1495 1.414 . S
C1494 C1497 1.499 . S
C1495 H1469 0.950 . S
C1495 C1494 1.414 . S
C1495 C1496 1.374 . S
C1496 H1470 0.950 . S
C1496 C1492 1.385 . S
C1496 C1495 1.374 . S
C1497 C1494 1.499 . S
C1497 C1498 1.373 . S
C1497 C1499 1.389 . S
C1498 H1471 0.950 . S
C1498 C1484 1.377 . S
C1498 C1497 1.373 . S
C1499 C1483 1.377 . S
C1499 C1497 1.389 . S
C1499 C1500 1.524 . S
C1500 C1499 1.524 . S
C1500 C1501 1.397 . S
C1500 C1505 1.363 . S
C1501 H1472 0.950 . S
C1501 C1500 1.397 . S
C1501 C1502 1.334 . S
C1502 H1473 0.950 . S
C1502 C1501 1.334 . S
C1502 C1503 1.287 . S
C1503 C1502 1.287 . S
C1503 C1504 1.524 . S
C1503 H1506 0.999 . S
C1504 H1474 0.950 . S
C1504 C1503 1.524 . S
C1504 C1505 1.415 . S
C1505 H1475 0.950 . S
C1505 C1500 1.363 . S
C1505 C1504 1.415 . S
H1506 C1503 0.999 . S
H1507 C1488 0.913 . S
H1508 C1526 0.951 . S
H1509 C1528 0.951 . S
H1510 C1530 0.950 . S
H1511 C1531 0.950 . S
H1512 C1533 0.950 . S
H1513 C1536 0.950 . S
H1514 C1537 0.950 . S
H1515 C1539 0.950 . S
H1516 C1540 0.950 . S
H1517 C1541 0.951 . S
H1518 C1543 0.951 . S
H1519 C1545 0.950 . S
H1520 C1546 0.950 . S
H1521 C1548 0.950 . S
H1522 C1551 0.950 . S
H1523 C1552 0.950 . S
H1524 C1554 0.950 . S
H1525 C1555 0.950 . S
C1526 H1508 0.951 . S
C1526 C1527 1.366 . S
C1526 C1528 1.388 . S
C1527 C1526 1.366 . S
C1527 C1531 1.385 . S
C1528 H1509 0.951 . S
C1528 C1526 1.388 . S
C1528 C1529 1.366 . S
C1529 C1528 1.366 . S
C1529 C1530 1.414 . S
C1529 C1532 1.499 . S
C1530 H1510 0.950 . S
C1530 C1529 1.414 . S
C1530 C1531 1.374 . S
C1531 H1511 0.950 . S
C1531 C1527 1.385 . S
C1531 C1530 1.374 . S
C1532 C1529 1.499 . S
C1532 C1533 1.373 . S
C1532 C1534 1.389 . S
C1533 H1512 0.950 . S
C1533 C1532 1.373 . S
C1533 C1549 1.377 . S
C1534 C1532 1.389 . S
C1534 C1535 1.524 . S
C1534 C1548 1.377 . S
C1535 C1534 1.524 . S
C1535 C1536 1.397 . S
C1535 C1540 1.363 . S
C1536 H1513 0.950 . S
C1536 C1535 1.397 . S
C1536 C1537 1.334 . S
C1537 H1514 0.950 . S
C1537 C1536 1.334 . S
C1537 C1538 1.287 . S
C1538 C1537 1.287 . S
C1538 C1539 1.524 . S
C1538 H1557 0.913 . S
C1539 H1515 0.950 . S
C1539 C1538 1.524 . S
C1539 C1540 1.415 . S
C1540 H1516 0.950 . S
C1540 C1535 1.363 . S
C1540 C1539 1.415 . S
C1541 H1517 0.951 . S
C1541 C1542 1.366 . S
C1541 C1543 1.388 . S
C1542 C1541 1.366 . S
C1542 C1546 1.385 . S
C1543 H1518 0.951 . S
C1543 C1541 1.388 . S
C1543 C1544 1.366 . S
C1544 C1543 1.366 . S
C1544 C1545 1.414 . S
C1544 C1547 1.499 . S
C1545 H1519 0.950 . S
C1545 C1544 1.414 . S
C1545 C1546 1.374 . S
C1546 H1520 0.950 . S
C1546 C1542 1.385 . S
C1546 C1545 1.374 . S
C1547 C1544 1.499 . S
C1547 C1548 1.373 . S
C1547 C1549 1.389 . S
C1548 H1521 0.950 . S
C1548 C1534 1.377 . S
C1548 C1547 1.373 . S
C1549 C1533 1.377 . S
C1549 C1547 1.389 . S
C1549 C1550 1.524 . S
C1550 C1549 1.524 . S
C1550 C1551 1.397 . S
C1550 C1555 1.363 . S
C1551 H1522 0.950 . S
C1551 C1550 1.397 . S
C1551 C1552 1.334 . S
C1552 H1523 0.950 . S
C1552 C1551 1.334 . S
C1552 C1553 1.287 . S
C1553 C1552 1.287 . S
C1553 C1554 1.524 . S
C1553 H1556 0.999 . S
C1554 H1524 0.950 . S
C1554 C1553 1.524 . S
C1554 C1555 1.415 . S
C1555 H1525 0.950 . S
C1555 C1550 1.363 . S
C1555 C1554 1.415 . S
H1556 C1553 0.999 . S
H1557 C1538 0.913 . S
H1558 C1576 0.951 . S
H1559 C1578 0.951 . S
H1560 C1580 0.950 . S
H1561 C1581 0.950 . S
H1562 C1583 0.950 . S
H1563 C1586 0.950 . S
H1564 C1587 0.950 . S
H1565 C1589 0.950 . S
H1566 C1590 0.950 . S
H1567 C1591 0.951 . S
H1568 C1593 0.951 . S
H1569 C1595 0.950 . S
H1570 C1596 0.950 . S
H1571 C1598 0.950 . S
H1572 C1601 0.950 . S
H1573 C1602 0.950 . S
H1574 C1604 0.950 . S
H1575 C1605 0.950 . S
C1576 H1558 0.951 . S
C1576 C1577 1.366 . S
C1576 C1578 1.388 . S
C1577 C1576 1.366 . S
C1577 C1581 1.385 . S
C1578 H1559 0.951 . S
C1578 C1576 1.388 . S
C1578 C1579 1.366 . S
C1579 C1578 1.366 . S
C1579 C1580 1.414 . S
C1579 C1582 1.499 . S
C1580 H1560 0.950 . S
C1580 C1579 1.414 . S
C1580 C1581 1.374 . S
C1581 H1561 0.950 . S
C1581 C1577 1.385 . S
C1581 C1580 1.374 . S
C1582 C1579 1.499 . S
C1582 C1583 1.373 . S
C1582 C1584 1.389 . S
C1583 H1562 0.950 . S
C1583 C1582 1.373 . S
C1583 C1599 1.377 . S
C1584 C1582 1.389 . S
C1584 C1585 1.524 . S
C1584 C1598 1.377 . S
C1585 C1584 1.524 . S
C1585 C1586 1.397 . S
C1585 C1590 1.363 . S
C1586 H1563 0.950 . S
C1586 C1585 1.397 . S
C1586 C1587 1.334 . S
C1587 H1564 0.950 . S
C1587 C1586 1.334 . S
C1587 C1588 1.287 . S
C1588 C1587 1.287 . S
C1588 C1589 1.524 . S
C1588 H1607 0.913 . S
C1589 H1565 0.950 . S
C1589 C1588 1.524 . S
C1589 C1590 1.415 . S
C1590 H1566 0.950 . S
C1590 C1585 1.363 . S
C1590 C1589 1.415 . S
C1591 H1567 0.951 . S
C1591 C1592 1.366 . S
C1591 C1593 1.388 . S
C1592 C1591 1.366 . S
C1592 C1596 1.385 . S
C1593 H1568 0.951 . S
C1593 C1591 1.388 . S
C1593 C1594 1.366 . S
C1594 C1593 1.366 . S
C1594 C1595 1.414 . S
C1594 C1597 1.499 . S
C1595 H1569 0.950 . S
C1595 C1594 1.414 . S
C1595 C1596 1.374 . S
C1596 H1570 0.950 . S
C1596 C1592 1.385 . S
C1596 C1595 1.374 . S
C1597 C1594 1.499 . S
C1597 C1598 1.373 . S
C1597 C1599 1.389 . S
C1598 H1571 0.950 . S
C1598 C1584 1.377 . S
C1598 C1597 1.373 . S
C1599 C1583 1.377 . S
C1599 C1597 1.389 . S
C1599 C1600 1.524 . S
C1600 C1599 1.524 . S
C1600 C1601 1.397 . S
C1600 C1605 1.363 . S
C1601 H1572 0.950 . S
C1601 C1600 1.397 . S
C1601 C1602 1.334 . S
C1602 H1573 0.950 . S
C1602 C1601 1.334 . S
C1602 C1603 1.287 . S
C1603 C1602 1.287 . S
C1603 C1604 1.524 . S
C1603 H1606 0.999 . S
C1604 H1574 0.950 . S
C1604 C1603 1.524 . S
C1604 C1605 1.415 . S
C1605 H1575 0.950 . S
C1605 C1600 1.363 . S
C1605 C1604 1.415 . S
H1606 C1603 0.999 . S
H1607 C1588 0.913 . S
H1608 C1626 0.951 . S
H1609 C1628 0.951 . S
H1610 C1630 0.950 . S
H1611 C1631 0.950 . S
H1612 C1633 0.950 . S
H1613 C1636 0.950 . S
H1614 C1637 0.950 . S
H1615 C1639 0.950 . S
H1616 C1640 0.950 . S
H1617 C1641 0.951 . S
H1618 C1643 0.951 . S
H1619 C1645 0.950 . S
H1620 C1646 0.950 . S
H1621 C1648 0.950 . S
H1622 C1651 0.950 . S
H1623 C1652 0.950 . S
H1624 C1654 0.950 . S
H1625 C1655 0.950 . S
C1626 H1608 0.951 . S
C1626 C1627 1.366 . S
C1626 C1628 1.388 . S
C1627 C1626 1.366 . S
C1627 C1631 1.385 . S
C1628 H1609 0.951 . S
C1628 C1626 1.388 . S
C1628 C1629 1.366 . S
C1629 C1628 1.366 . S
C1629 C1630 1.414 . S
C1629 C1632 1.499 . S
C1630 H1610 0.950 . S
C1630 C1629 1.414 . S
C1630 C1631 1.374 . S
C1631 H1611 0.950 . S
C1631 C1627 1.385 . S
C1631 C1630 1.374 . S
C1632 C1629 1.499 . S
C1632 C1633 1.373 . S
C1632 C1634 1.389 . S
C1633 H1612 0.950 . S
C1633 C1632 1.373 . S
C1633 C1649 1.377 . S
C1634 C1632 1.389 . S
C1634 C1635 1.524 . S
C1634 C1648 1.377 . S
C1635 C1634 1.524 . S
C1635 C1636 1.397 . S
C1635 C1640 1.363 . S
C1636 H1613 0.950 . S
C1636 C1635 1.397 . S
C1636 C1637 1.334 . S
C1637 H1614 0.950 . S
C1637 C1636 1.334 . S
C1637 C1638 1.287 . S
C1638 C1637 1.287 . S
C1638 C1639 1.524 . S
C1638 H1657 0.913 . S
C1639 H1615 0.950 . S
C1639 C1638 1.524 . S
C1639 C1640 1.415 . S
C1640 H1616 0.950 . S
C1640 C1635 1.363 . S
C1640 C1639 1.415 . S
C1641 H1617 0.951 . S
C1641 C1642 1.366 . S
C1641 C1643 1.388 . S
C1642 C1641 1.366 . S
C1642 C1646 1.385 . S
C1643 H1618 0.951 . S
C1643 C1641 1.388 . S
C1643 C1644 1.366 . S
C1644 C1643 1.366 . S
C1644 C1645 1.414 . S
C1644 C1647 1.499 . S
C1645 H1619 0.950 . S
C1645 C1644 1.414 . S
C1645 C1646 1.374 . S
C1646 H1620 0.950 . S
C1646 C1642 1.385 . S
C1646 C1645 1.374 . S
C1647 C1644 1.499 . S
C1647 C1648 1.373 . S
C1647 C1649 1.389 . S
C1648 H1621 0.950 . S
C1648 C1634 1.377 . S
C1648 C1647 1.373 . S
C1649 C1633 1.377 . S
C1649 C1647 1.389 . S
C1649 C1650 1.524 . S
C1650 C1649 1.524 . S
C1650 C1651 1.397 . S
C1650 C1655 1.363 . S
C1651 H1622 0.950 . S
C1651 C1650 1.397 . S
C1651 C1652 1.334 . S
C1652 H1623 0.950 . S
C1652 C1651 1.334 . S
C1652 C1653 1.287 . S
C1653 C1652 1.287 . S
C1653 C1654 1.524 . S
C1653 H1656 0.999 . S
C1654 H1624 0.950 . S
C1654 C1653 1.524 . S
C1654 C1655 1.415 . S
C1655 H1625 0.950 . S
C1655 C1650 1.363 . S
C1655 C1654 1.415 . S
H1656 C1653 0.999 . S
H1657 C1638 0.913 . S
H1658 C1676 0.951 . S
H1659 C1678 0.951 . S
H1660 C1680 0.950 . S
H1661 C1681 0.950 . S
H1662 C1683 0.950 . S
H1663 C1686 0.950 . S
H1664 C1687 0.950 . S
H1665 C1689 0.950 . S
H1666 C1690 0.950 . S
H1667 C1691 0.951 . S
H1668 C1693 0.951 . S
H1669 C1695 0.950 . S
H1670 C1696 0.950 . S
H1671 C1698 0.950 . S
H1672 C1701 0.950 . S
H1673 C1702 0.950 . S
H1674 C1704 0.950 . S
H1675 C1705 0.950 . S
C1676 H1658 0.951 . S
C1676 C1677 1.366 . S
C1676 C1678 1.388 . S
C1677 C1676 1.366 . S
C1677 C1681 1.385 . S
C1678 H1659 0.951 . S
C1678 C1676 1.388 . S
C1678 C1679 1.366 . S
C1679 C1678 1.366 . S
C1679 C1680 1.414 . S
C1679 C1682 1.499 . S
C1680 H1660 0.950 . S
C1680 C1679 1.414 . S
C1680 C1681 1.374 . S
C1681 H1661 0.950 . S
C1681 C1677 1.385 . S
C1681 C1680 1.374 . S
C1682 C1679 1.499 . S
C1682 C1683 1.373 . S
C1682 C1684 1.389 . S
C1683 H1662 0.950 . S
C1683 C1682 1.373 . S
C1683 C1699 1.377 . S
C1684 C1682 1.389 . S
C1684 C1685 1.524 . S
C1684 C1698 1.377 . S
C1685 C1684 1.524 . S
C1685 C1686 1.397 . S
C1685 C1690 1.363 . S
C1686 H1663 0.950 . S
C1686 C1685 1.397 . S
C1686 C1687 1.334 . S
C1687 H1664 0.950 . S
C1687 C1686 1.334 . S
C1687 C1688 1.287 . S
C1688 C1687 1.287 . S
C1688 C1689 1.524 . S
C1688 H1707 0.913 . S
C1689 H1665 0.950 . S
C1689 C1688 1.524 . S
C1689 C1690 1.415 . S
C1690 H1666 0.950 . S
C1690 C1685 1.363 . S
C1690 C1689 1.415 . S
C1691 H1667 0.951 . S
C1691 C1692 1.366 . S
C1691 C1693 1.388 . S
C1692 C1691 1.366 . S
C1692 C1696 1.385 . S
C1693 H1668 0.951 . S
C1693 C1691 1.388 . S
C1693 C1694 1.366 . S
C1694 C1693 1.366 . S
C1694 C1695 1.414 . S
C1694 C1697 1.499 . S
C1695 H1669 0.950 . S
C1695 C1694 1.414 . S
C1695 C1696 1.374 . S
C1696 H1670 0.950 . S
C1696 C1692 1.385 . S
C1696 C1695 1.374 . S
C1697 C1694 1.499 . S
C1697 C1698 1.373 . S
C1697 C1699 1.389 . S
C1698 H1671 0.950 . S
C1698 C1684 1.377 . S
C1698 C1697 1.373 . S
C1699 C1683 1.377 . S
C1699 C1697 1.389 . S
C1699 C1700 1.524 . S
C1700 C1699 1.524 . S
C1700 C1701 1.397 . S
C1700 C1705 1.363 . S
C1701 H1672 0.950 . S
C1701 C1700 1.397 . S
C1701 C1702 1.334 . S
C1702 H1673 0.950 . S
C1702 C1701 1.334 . S
C1702 C1703 1.287 . S
C1703 C1702 1.287 . S
C1703 C1704 1.524 . S
C1703 H1706 0.999 . S
C1704 H1674 0.950 . S
C1704 C1703 1.524 . S
C1704 C1705 1.415 . S
C1705 H1675 0.950 . S
C1705 C1700 1.363 . S
C1705 C1704 1.415 . S
H1706 C1703 0.999 . S
H1707 C1688 0.913 . S
H1708 C1726 0.951 . S
H1709 C1728 0.951 . S
H1710 C1730 0.950 . S
H1711 C1731 0.950 . S
H1712 C1733 0.950 . S
H1713 C1736 0.950 . S
H1714 C1737 0.950 . S
H1715 C1739 0.950 . S
H1716 C1740 0.950 . S
H1717 C1741 0.951 . S
H1718 C1743 0.951 . S
H1719 C1745 0.950 . S
H1720 C1746 0.950 . S
H1721 C1748 0.950 . S
H1722 C1751 0.950 . S
H1723 C1752 0.950 . S
H1724 C1754 0.950 . S
H1725 C1755 0.950 . S
C1726 H1708 0.951 . S
C1726 C1727 1.366 . S
C1726 C1728 1.388 . S
C1727 C1726 1.366 . S
C1727 C1731 1.385 . S
C1728 H1709 0.951 . S
C1728 C1726 1.388 . S
C1728 C1729 1.366 . S
C1729 C1728 1.366 . S
C1729 C1730 1.414 . S
C1729 C1732 1.499 . S
C1730 H1710 0.950 . S
C1730 C1729 1.414 . S
C1730 C1731 1.374 . S
C1731 H1711 0.950 . S
C1731 C1727 1.385 . S
C1731 C1730 1.374 . S
C1732 C1729 1.499 . S
C1732 C1733 1.373 . S
C1732 C1734 1.389 . S
C1733 H1712 0.950 . S
C1733 C1732 1.373 . S
C1733 C1749 1.377 . S
C1734 C1732 1.389 . S
C1734 C1735 1.524 . S
C1734 C1748 1.377 . S
C1735 C1734 1.524 . S
C1735 C1736 1.397 . S
C1735 C1740 1.363 . S
C1736 H1713 0.950 . S
C1736 C1735 1.397 . S
C1736 C1737 1.334 . S
C1737 H1714 0.950 . S
C1737 C1736 1.334 . S
C1737 C1738 1.287 . S
C1738 C1737 1.287 . S
C1738 C1739 1.524 . S
C1738 H1757 0.913 . S
C1739 H1715 0.950 . S
C1739 C1738 1.524 . S
C1739 C1740 1.415 . S
C1740 H1716 0.950 . S
C1740 C1735 1.363 . S
C1740 C1739 1.415 . S
C1741 H1717 0.951 . S
C1741 C1742 1.366 . S
C1741 C1743 1.388 . S
C1742 C1741 1.366 . S
C1742 C1746 1.385 . S
C1743 H1718 0.951 . S
C1743 C1741 1.388 . S
C1743 C1744 1.366 . S
C1744 C1743 1.366 . S
C1744 C1745 1.414 . S
C1744 C1747 1.499 . S
C1745 H1719 0.950 . S
C1745 C1744 1.414 . S
C1745 C1746 1.374 . S
C1746 H1720 0.950 . S
C1746 C1742 1.385 . S
C1746 C1745 1.374 . S
C1747 C1744 1.499 . S
C1747 C1748 1.373 . S
C1747 C1749 1.389 . S
C1748 H1721 0.950 . S
C1748 C1734 1.377 . S
C1748 C1747 1.373 . S
C1749 C1733 1.377 . S
C1749 C1747 1.389 . S
C1749 C1750 1.524 . S
C1750 C1749 1.524 . S
C1750 C1751 1.397 . S
C1750 C1755 1.363 . S
C1751 H1722 0.950 . S
C1751 C1750 1.397 . S
C1751 C1752 1.334 . S
C1752 H1723 0.950 . S
C1752 C1751 1.334 . S
C1752 C1753 1.287 . S
C1753 C1752 1.287 . S
C1753 C1754 1.524 . S
C1753 H1756 0.999 . S
C1754 H1724 0.950 . S
C1754 C1753 1.524 . S
C1754 C1755 1.415 . S
C1755 H1725 0.950 . S
C1755 C1750 1.363 . S
C1755 C1754 1.415 . S
H1756 C1753 0.999 . S
H1757 C1738 0.913 . S
H1758 C1776 0.951 . S
H1759 C1778 0.951 . S
H1760 C1780 0.950 . S
H1761 C1781 0.950 . S
H1762 C1783 0.950 . S
H1763 C1786 0.950 . S
H1764 C1787 0.950 . S
H1765 C1789 0.950 . S
H1766 C1790 0.950 . S
H1767 C1791 0.951 . S
H1768 C1793 0.951 . S
H1769 C1795 0.950 . S
H1770 C1796 0.950 . S
H1771 C1798 0.950 . S
H1772 C1801 0.950 . S
H1773 C1802 0.950 . S
H1774 C1804 0.950 . S
H1775 C1805 0.950 . S
C1776 H1758 0.951 . S
C1776 C1777 1.366 . S
C1776 C1778 1.388 . S
C1777 C1776 1.366 . S
C1777 C1781 1.385 . S
C1778 H1759 0.951 . S
C1778 C1776 1.388 . S
C1778 C1779 1.366 . S
C1779 C1778 1.366 . S
C1779 C1780 1.414 . S
C1779 C1782 1.499 . S
C1780 H1760 0.950 . S
C1780 C1779 1.414 . S
C1780 C1781 1.374 . S
C1781 H1761 0.950 . S
C1781 C1777 1.385 . S
C1781 C1780 1.374 . S
C1782 C1779 1.499 . S
C1782 C1783 1.373 . S
C1782 C1784 1.389 . S
C1783 H1762 0.950 . S
C1783 C1782 1.373 . S
C1783 C1799 1.377 . S
C1784 C1782 1.389 . S
C1784 C1785 1.524 . S
C1784 C1798 1.377 . S
C1785 C1784 1.524 . S
C1785 C1786 1.397 . S
C1785 C1790 1.363 . S
C1786 H1763 0.950 . S
C1786 C1785 1.397 . S
C1786 C1787 1.334 . S
C1787 H1764 0.950 . S
C1787 C1786 1.334 . S
C1787 C1788 1.287 . S
C1788 C1787 1.287 . S
C1788 C1789 1.524 . S
C1788 H1807 0.913 . S
C1789 H1765 0.950 . S
C1789 C1788 1.524 . S
C1789 C1790 1.415 . S
C1790 H1766 0.950 . S
C1790 C1785 1.363 . S
C1790 C1789 1.415 . S
C1791 H1767 0.951 . S
C1791 C1792 1.366 . S
C1791 C1793 1.388 . S
C1792 C1791 1.366 . S
C1792 C1796 1.385 . S
C1793 H1768 0.951 . S
C1793 C1791 1.388 . S
C1793 C1794 1.366 . S
C1794 C1793 1.366 . S
C1794 C1795 1.414 . S
C1794 C1797 1.499 . S
C1795 H1769 0.950 . S
C1795 C1794 1.414 . S
C1795 C1796 1.374 . S
C1796 H1770 0.950 . S
C1796 C1792 1.385 . S
C1796 C1795 1.374 . S
C1797 C1794 1.499 . S
C1797 C1798 1.373 . S
C1797 C1799 1.389 . S
C1798 H1771 0.950 . S
C1798 C1784 1.377 . S
C1798 C1797 1.373 . S
C1799 C1783 1.377 . S
C1799 C1797 1.389 . S
C1799 C1800 1.524 . S
C1800 C1799 1.524 . S
C1800 C1801 1.397 . S
C1800 C1805 1.363 . S
C1801 H1772 0.950 . S
C1801 C1800 1.397 . S
C1801 C1802 1.334 . S
C1802 H1773 0.950 . S
C1802 C1801 1.334 . S
C1802 C1803 1.287 . S
C1803 C1802 1.287 . S
C1803 C1804 1.524 . S
C1803 H1806 0.999 . S
C1804 H1774 0.950 . S
C1804 C1803 1.524 . S
C1804 C1805 1.415 . S
C1805 H1775 0.950 . S
C1805 C1800 1.363 . S
C1805 C1804 1.415 . S
H1806 C1803 0.999 . S
H1807 C1788 0.913 . S
H1808 C1826 0.951 . S
H1809 C1828 0.951 . S
H1810 C1830 0.950 . S
H1811 C1831 0.950 . S
H1812 C1833 0.950 . S
H1813 C1836 0.950 . S
H1814 C1837 0.950 . S
H1815 C1839 0.950 . S
H1816 C1840 0.950 . S
H1817 C1841 0.951 . S
H1818 C1843 0.951 . S
H1819 C1845 0.950 . S
H1820 C1846 0.950 . S
H1821 C1848 0.950 . S
H1822 C1851 0.950 . S
H1823 C1852 0.950 . S
H1824 C1854 0.950 . S
H1825 C1855 0.950 . S
C1826 H1808 0.951 . S
C1826 C1827 1.366 . S
C1826 C1828 1.388 . S
C1827 C1826 1.366 . S
C1827 C1831 1.385 . S
C1828 H1809 0.951 . S
C1828 C1826 1.388 . S
C1828 C1829 1.366 . S
C1829 C1828 1.366 . S
C1829 C1830 1.414 . S
C1829 C1832 1.499 . S
C1830 H1810 0.950 . S
C1830 C1829 1.414 . S
C1830 C1831 1.374 . S
C1831 H1811 0.950 . S
C1831 C1827 1.385 . S
C1831 C1830 1.374 . S
C1832 C1829 1.499 . S
C1832 C1833 1.373 . S
C1832 C1834 1.389 . S
C1833 H1812 0.950 . S
C1833 C1832 1.373 . S
C1833 C1849 1.377 1_565 S
C1834 C1832 1.389 . S
C1834 C1835 1.524 . S
C1834 C1848 1.377 1_565 S
C1835 C1834 1.524 . S
C1835 C1836 1.397 . S
C1835 C1840 1.363 1_565 S
C1836 H1813 0.950 . S
C1836 C1835 1.397 . S
C1836 C1837 1.334 . S
C1837 H1814 0.950 . S
C1837 C1836 1.334 . S
C1837 C1838 1.287 . S
C1838 C1837 1.287 . S
C1838 C1839 1.524 1_565 S
C1838 H1857 0.913 . S
C1839 H1815 0.950 . S
C1839 C1838 1.524 1_545 S
C1839 C1840 1.415 . S
C1840 H1816 0.950 . S
C1840 C1835 1.363 1_545 S
C1840 C1839 1.415 . S
C1841 H1817 0.951 . S
C1841 C1842 1.366 . S
C1841 C1843 1.388 . S
C1842 C1841 1.366 . S
C1842 C1846 1.385 . S
C1843 H1818 0.951 . S
C1843 C1841 1.388 . S
C1843 C1844 1.366 . S
C1844 C1843 1.366 . S
C1844 C1845 1.414 . S
C1844 C1847 1.499 . S
C1845 H1819 0.950 . S
C1845 C1844 1.414 . S
C1845 C1846 1.374 . S
C1846 H1820 0.950 . S
C1846 C1842 1.385 . S
C1846 C1845 1.374 . S
C1847 C1844 1.499 . S
C1847 C1848 1.373 . S
C1847 C1849 1.389 . S
C1848 H1821 0.950 . S
C1848 C1834 1.377 1_545 S
C1848 C1847 1.373 . S
C1849 C1833 1.377 1_545 S
C1849 C1847 1.389 . S
C1849 C1850 1.524 . S
C1850 C1849 1.524 . S
C1850 C1851 1.397 . S
C1850 C1855 1.363 1_545 S
C1851 H1822 0.950 . S
C1851 C1850 1.397 . S
C1851 C1852 1.334 . S
C1852 H1823 0.950 . S
C1852 C1851 1.334 . S
C1852 C1853 1.287 . S
C1853 C1852 1.287 . S
C1853 C1854 1.524 1_545 S
C1853 H1856 0.999 . S
C1854 H1824 0.950 . S
C1854 C1853 1.524 1_565 S
C1854 C1855 1.415 . S
C1855 H1825 0.950 . S
C1855 C1850 1.363 1_565 S
C1855 C1854 1.415 . S
H1856 C1853 0.999 . S
H1857 C1838 0.913 . S
H1858 C1876 0.951 . S
H1859 C1878 0.951 . S
H1860 C1880 0.950 . S
H1861 C1881 0.950 . S
H1862 C1883 0.950 . S
H1863 C1886 0.950 . S
H1864 C1887 0.950 . S
H1865 C1889 0.950 . S
H1866 C1890 0.950 . S
H1867 C1891 0.951 . S
H1868 C1893 0.951 . S
H1869 C1895 0.950 . S
H1870 C1896 0.950 . S
H1871 C1898 0.950 . S
H1872 C1901 0.950 . S
H1873 C1902 0.950 . S
H1874 C1904 0.950 . S
H1875 C1905 0.950 . S
C1876 H1858 0.951 . S
C1876 C1877 1.366 . S
C1876 C1878 1.388 . S
C1877 C1876 1.366 . S
C1877 C1881 1.385 . S
C1878 H1859 0.951 . S
C1878 C1876 1.388 . S
C1878 C1879 1.366 . S
C1879 C1878 1.366 . S
C1879 C1880 1.414 . S
C1879 C1882 1.499 . S
C1880 H1860 0.950 . S
C1880 C1879 1.414 . S
C1880 C1881 1.374 . S
C1881 H1861 0.950 . S
C1881 C1877 1.385 . S
C1881 C1880 1.374 . S
C1882 C1879 1.499 . S
C1882 C1883 1.373 . S
C1882 C1884 1.389 . S
C1883 H1862 0.950 . S
C1883 C1882 1.373 . S
C1883 C1899 1.377 . S
C1884 C1882 1.389 . S
C1884 C1885 1.524 . S
C1884 C1898 1.377 . S
C1885 C1884 1.524 . S
C1885 C1886 1.397 . S
C1885 C1890 1.363 . S
C1886 H1863 0.950 . S
C1886 C1885 1.397 . S
C1886 C1887 1.334 . S
C1887 H1864 0.950 . S
C1887 C1886 1.334 . S
C1887 C1888 1.287 . S
C1888 C1887 1.287 . S
C1888 C1889 1.524 . S
C1888 H1907 0.913 . S
C1889 H1865 0.950 . S
C1889 C1888 1.524 . S
C1889 C1890 1.415 . S
C1890 H1866 0.950 . S
C1890 C1885 1.363 . S
C1890 C1889 1.415 . S
C1891 H1867 0.951 . S
C1891 C1892 1.366 . S
C1891 C1893 1.388 . S
C1892 C1891 1.366 . S
C1892 C1896 1.385 . S
C1893 H1868 0.951 . S
C1893 C1891 1.388 . S
C1893 C1894 1.366 . S
C1894 C1893 1.366 . S
C1894 C1895 1.414 . S
C1894 C1897 1.499 . S
C1895 H1869 0.950 . S
C1895 C1894 1.414 . S
C1895 C1896 1.374 . S
C1896 H1870 0.950 . S
C1896 C1892 1.385 . S
C1896 C1895 1.374 . S
C1897 C1894 1.499 . S
C1897 C1898 1.373 . S
C1897 C1899 1.389 . S
C1898 H1871 0.950 . S
C1898 C1884 1.377 . S
C1898 C1897 1.373 . S
C1899 C1883 1.377 . S
C1899 C1897 1.389 . S
C1899 C1900 1.524 . S
C1900 C1899 1.524 . S
C1900 C1901 1.397 . S
C1900 C1905 1.363 . S
C1901 H1872 0.950 . S
C1901 C1900 1.397 . S
C1901 C1902 1.334 . S
C1902 H1873 0.950 . S
C1902 C1901 1.334 . S
C1902 C1903 1.287 . S
C1903 C1902 1.287 . S
C1903 C1904 1.524 . S
C1903 H1906 0.999 . S
C1904 H1874 0.950 . S
C1904 C1903 1.524 . S
C1904 C1905 1.415 . S
C1905 H1875 0.950 . S
C1905 C1900 1.363 . S
C1905 C1904 1.415 . S
H1906 C1903 0.999 . S
H1907 C1888 0.913 . S
H1908 C1926 0.951 . S
H1909 C1928 0.951 . S
H1910 C1930 0.950 . S
H1911 C1931 0.950 . S
H1912 C1933 0.950 . S
H1913 C1936 0.950 . S
H1914 C1937 0.950 . S
H1915 C1939 0.950 . S
H1916 C1940 0.950 . S
H1917 C1941 0.951 . S
H1918 C1943 0.951 . S
H1919 C1945 0.950 . S
H1920 C1946 0.950 . S
H1921 C1948 0.950 . S
H1922 C1951 0.950 . S
H1923 C1952 0.950 . S
H1924 C1954 0.950 . S
H1925 C1955 0.950 . S
C1926 H1908 0.951 . S
C1926 C1927 1.366 . S
C1926 C1928 1.388 . S
C1927 C1926 1.366 . S
C1927 C1931 1.385 . S
C1928 H1909 0.951 . S
C1928 C1926 1.388 . S
C1928 C1929 1.366 . S
C1929 C1928 1.366 . S
C1929 C1930 1.414 . S
C1929 C1932 1.499 . S
C1930 H1910 0.950 . S
C1930 C1929 1.414 . S
C1930 C1931 1.374 . S
C1931 H1911 0.950 . S
C1931 C1927 1.385 . S
C1931 C1930 1.374 . S
C1932 C1929 1.499 . S
C1932 C1933 1.413 . S
C1932 C1934 1.389 . S
C1933 H1912 0.950 . S
C1933 C1932 1.413 . S
C1933 C1949 1.337 1_556 S
C1934 C1932 1.389 . S
C1934 C1935 1.524 . S
C1934 C1948 1.367 1_556 S
C1935 C1934 1.524 . S
C1935 C1936 1.397 . S
C1935 C1940 1.363 . S
C1936 H1913 0.950 . S
C1936 C1935 1.397 . S
C1936 C1937 1.334 . S
C1937 H1914 0.950 . S
C1937 C1936 1.334 . S
C1937 C1938 1.287 . S
C1938 C1937 1.287 . S
C1938 C1939 1.524 . S
C1938 H1957 0.913 . S
C1939 H1915 0.950 . S
C1939 C1938 1.524 . S
C1939 C1940 1.415 . S
C1940 H1916 0.950 . S
C1940 C1935 1.363 . S
C1940 C1939 1.415 . S
C1941 H1917 0.951 . S
C1941 C1942 1.366 . S
C1941 C1943 1.388 . S
C1942 C1941 1.366 . S
C1942 C1946 1.385 . S
C1943 H1918 0.951 . S
C1943 C1941 1.388 . S
C1943 C1944 1.366 . S
C1944 C1943 1.366 . S
C1944 C1945 1.414 . S
C1944 C1947 1.499 . S
C1945 H1919 0.950 . S
C1945 C1944 1.414 . S
C1945 C1946 1.374 . S
C1946 H1920 0.950 . S
C1946 C1942 1.385 . S
C1946 C1945 1.374 . S
C1947 C1944 1.499 . S
C1947 C1948 1.383 . S
C1947 C1949 1.389 . S
C1948 H1921 0.950 . S
C1948 C1934 1.367 1_554 S
C1948 C1947 1.383 . S
C1949 C1933 1.337 1_554 S
C1949 C1947 1.389 . S
C1949 C1950 1.524 . S
C1950 C1949 1.524 . S
C1950 C1951 1.397 . S
C1950 C1955 1.363 . S
C1951 H1922 0.950 . S
C1951 C1950 1.397 . S
C1951 C1952 1.334 . S
C1952 H1923 0.950 . S
C1952 C1951 1.334 . S
C1952 C1953 1.287 . S
C1953 C1952 1.287 . S
C1953 C1954 1.524 . S
C1953 H1956 0.999 . S
C1954 H1924 0.950 . S
C1954 C1953 1.524 . S
C1954 C1955 1.415 . S
C1955 H1925 0.950 . S
C1955 C1950 1.363 . S
C1955 C1954 1.415 . S
H1956 C1953 0.999 . S
H1957 C1938 0.913 . S
H1958 C1976 0.951 . S
H1959 C1978 0.951 . S
H1960 C1980 0.950 . S
H1961 C1981 0.950 . S
H1962 C1983 0.950 . S
H1963 C1986 0.950 . S
H1964 C1987 0.950 . S
H1965 C1989 0.950 . S
H1966 C1990 0.950 . S
H1967 C1991 0.951 . S
H1968 C1993 0.951 . S
H1969 C1995 0.950 . S
H1970 C1996 0.950 . S
H1971 C1998 0.950 . S
H1972 C2001 0.950 . S
H1973 C2002 0.950 . S
H1974 C2004 0.950 . S
H1975 C2005 0.950 . S
C1976 H1958 0.951 . S
C1976 C1977 1.366 . S
C1976 C1978 1.388 . S
C1977 C1976 1.366 . S
C1977 C1981 1.385 . S
C1978 H1959 0.951 . S
C1978 C1976 1.388 . S
C1978 C1979 1.366 . S
C1979 C1978 1.366 . S
C1979 C1980 1.414 . S
C1979 C1982 1.499 . S
C1980 H1960 0.950 . S
C1980 C1979 1.414 . S
C1980 C1981 1.374 . S
C1981 H1961 0.950 . S
C1981 C1977 1.385 . S
C1981 C1980 1.374 . S
C1982 C1979 1.499 . S
C1982 C1983 1.373 1_554 S
C1982 C1984 1.389 . S
C1983 H1962 0.950 . S
C1983 C1982 1.373 1_556 S
C1983 C1999 1.377 . S
C1984 C1982 1.389 . S
C1984 C1985 1.524 . S
C1984 C1998 1.377 . S
C1985 C1984 1.524 . S
C1985 C1986 1.397 . S
C1985 C1990 1.363 . S
C1986 H1963 0.950 . S
C1986 C1985 1.397 . S
C1986 C1987 1.334 . S
C1987 H1964 0.950 . S
C1987 C1986 1.334 . S
C1987 C1988 1.287 . S
C1988 C1987 1.287 . S
C1988 C1989 1.524 . S
C1988 H2007 0.913 . S
C1989 H1965 0.950 . S
C1989 C1988 1.524 . S
C1989 C1990 1.415 . S
C1990 H1966 0.950 . S
C1990 C1985 1.363 . S
C1990 C1989 1.415 . S
C1991 H1967 0.951 . S
C1991 C1992 1.366 . S
C1991 C1993 1.388 . S
C1992 C1991 1.366 . S
C1992 C1996 1.385 . S
C1993 H1968 0.951 . S
C1993 C1991 1.388 . S
C1993 C1994 1.366 . S
C1994 C1993 1.366 . S
C1994 C1995 1.414 . S
C1994 C1997 1.499 . S
C1995 H1969 0.950 . S
C1995 C1994 1.414 . S
C1995 C1996 1.374 . S
C1996 H1970 0.950 . S
C1996 C1992 1.385 . S
C1996 C1995 1.374 . S
C1997 C1994 1.499 . S
C1997 C1998 1.373 1_556 S
C1997 C1999 1.389 . S
C1998 H1971 0.950 . S
C1998 C1984 1.377 . S
C1998 C1997 1.373 1_554 S
C1999 C1983 1.377 . S
C1999 C1997 1.389 . S
C1999 C2000 1.524 . S
C2000 C1999 1.524 . S
C2000 C2001 1.397 . S
C2000 C2005 1.363 . S
C2001 H1972 0.950 . S
C2001 C2000 1.397 . S
C2001 C2002 1.334 . S
C2002 H1973 0.950 . S
C2002 C2001 1.334 . S
C2002 C2003 1.287 . S
C2003 C2002 1.287 . S
C2003 C2004 1.524 . S
C2003 H2006 0.999 . S
C2004 H1974 0.950 . S
C2004 C2003 1.524 . S
C2004 C2005 1.415 . S
C2005 H1975 0.950 . S
C2005 C2000 1.363 . S
C2005 C2004 1.415 . S
H2006 C2003 0.999 . S
H2007 C1988 0.913 . S
H2008 C2026 0.951 . S
H2009 C2028 0.951 . S
H2010 C2030 0.950 . S
H2011 C2031 0.950 . S
H2012 C2033 0.950 . S
H2013 C2036 0.950 . S
H2014 C2037 0.950 . S
H2015 C2039 0.950 . S
H2016 C2040 0.950 . S
H2017 C2041 0.951 . S
H2018 C2043 0.951 . S
H2019 C2045 0.950 . S
H2020 C2046 0.950 . S
H2021 C2048 0.950 . S
H2022 C2051 0.950 . S
H2023 C2052 0.950 . S
H2024 C2054 0.950 . S
H2025 C2055 0.950 . S
C2026 H2008 0.951 . S
C2026 C2027 1.366 . S
C2026 C2028 1.388 . S
C2027 C2026 1.366 . S
C2027 C2031 1.385 . S
C2028 H2009 0.951 . S
C2028 C2026 1.388 . S
C2028 C2029 1.366 . S
C2029 C2028 1.366 . S
C2029 C2030 1.414 . S
C2029 C2032 1.499 . S
C2030 H2010 0.950 . S
C2030 C2029 1.414 . S
C2030 C2031 1.374 . S
C2031 H2011 0.950 . S
C2031 C2027 1.385 . S
C2031 C2030 1.374 . S
C2032 C2029 1.499 . S
C2032 C2033 1.373 . S
C2032 C2034 1.389 . S
C2033 H2012 0.950 . S
C2033 C2032 1.373 . S
C2033 C2049 1.377 . S
C2034 C2032 1.389 . S
C2034 C2035 1.524 . S
C2034 C2048 1.377 . S
C2035 C2034 1.524 . S
C2035 C2036 1.397 . S
C2035 C2040 1.363 . S
C2036 H2013 0.950 . S
C2036 C2035 1.397 . S
C2036 C2037 1.334 . S
C2037 H2014 0.950 . S
C2037 C2036 1.334 . S
C2037 C2038 1.287 . S
C2038 C2037 1.287 . S
C2038 C2039 1.524 . S
C2038 H2057 0.913 . S
C2039 H2015 0.950 . S
C2039 C2038 1.524 . S
C2039 C2040 1.415 . S
C2040 H2016 0.950 . S
C2040 C2035 1.363 . S
C2040 C2039 1.415 . S
C2041 H2017 0.951 . S
C2041 C2042 1.366 . S
C2041 C2043 1.388 . S
C2042 C2041 1.366 . S
C2042 C2046 1.385 . S
C2043 H2018 0.951 . S
C2043 C2041 1.388 . S
C2043 C2044 1.366 . S
C2044 C2043 1.366 . S
C2044 C2045 1.414 . S
C2044 C2047 1.499 . S
C2045 H2019 0.950 . S
C2045 C2044 1.414 . S
C2045 C2046 1.374 . S
C2046 H2020 0.950 . S
C2046 C2042 1.385 . S
C2046 C2045 1.374 . S
C2047 C2044 1.499 . S
C2047 C2048 1.373 . S
C2047 C2049 1.389 . S
C2048 H2021 0.950 . S
C2048 C2034 1.377 . S
C2048 C2047 1.373 . S
C2049 C2033 1.377 . S
C2049 C2047 1.389 . S
C2049 C2050 1.524 . S
C2050 C2049 1.524 . S
C2050 C2051 1.397 . S
C2050 C2055 1.363 . S
C2051 H2022 0.950 . S
C2051 C2050 1.397 . S
C2051 C2052 1.334 . S
C2052 H2023 0.950 . S
C2052 C2051 1.334 . S
C2052 C2053 1.287 . S
C2053 C2052 1.287 . S
C2053 C2054 1.524 . S
C2053 H2056 0.999 . S
C2054 H2024 0.950 . S
C2054 C2053 1.524 . S
C2054 C2055 1.415 . S
C2055 H2025 0.950 . S
C2055 C2050 1.363 . S
C2055 C2054 1.415 . S
H2056 C2053 0.999 . S
H2057 C2038 0.913 . S
H2058 C2076 0.951 . S
H2059 C2078 0.951 . S
H2060 C2080 0.950 . S
H2061 C2081 0.950 . S
H2062 C2083 0.950 . S
H2063 C2086 0.950 . S
H2064 C2087 0.950 . S
H2065 C2089 0.950 . S
H2066 C2090 0.950 . S
H2067 C2091 0.951 . S
H2068 C2093 0.951 . S
H2069 C2095 0.950 . S
H2070 C2096 0.950 . S
H2071 C2098 0.950 . S
H2072 C2101 0.950 . S
H2073 C2102 0.950 . S
H2074 C2104 0.950 . S
H2075 C2105 0.950 . S
C2076 H2058 0.951 . S
C2076 C2077 1.366 . S
C2076 C2078 1.388 . S
C2077 C2076 1.366 . S
C2077 C2081 1.385 . S
C2078 H2059 0.951 . S
C2078 C2076 1.388 . S
C2078 C2079 1.366 . S
C2079 C2078 1.366 . S
C2079 C2080 1.414 . S
C2079 C2082 1.499 . S
C2080 H2060 0.950 . S
C2080 C2079 1.414 . S
C2080 C2081 1.374 . S
C2081 H2061 0.950 . S
C2081 C2077 1.385 . S
C2081 C2080 1.374 . S
C2082 C2079 1.499 . S
C2082 C2083 1.373 . S
C2082 C2084 1.389 . S
C2083 H2062 0.950 . S
C2083 C2082 1.373 . S
C2083 C2099 1.377 . S
C2084 C2082 1.389 . S
C2084 C2085 1.524 . S
C2084 C2098 1.377 . S
C2085 C2084 1.524 . S
C2085 C2086 1.397 . S
C2085 C2090 1.363 . S
C2086 H2063 0.950 . S
C2086 C2085 1.397 . S
C2086 C2087 1.334 . S
C2087 H2064 0.950 . S
C2087 C2086 1.334 . S
C2087 C2088 1.287 . S
C2088 C2087 1.287 . S
C2088 C2089 1.524 . S
C2088 H2107 0.913 . S
C2089 H2065 0.950 . S
C2089 C2088 1.524 . S
C2089 C2090 1.415 . S
C2090 H2066 0.950 . S
C2090 C2085 1.363 . S
C2090 C2089 1.415 . S
C2091 H2067 0.951 . S
C2091 C2092 1.366 . S
C2091 C2093 1.388 . S
C2092 C2091 1.366 . S
C2092 C2096 1.385 . S
C2093 H2068 0.951 . S
C2093 C2091 1.388 . S
C2093 C2094 1.366 . S
C2094 C2093 1.366 . S
C2094 C2095 1.414 . S
C2094 C2097 1.499 . S
C2095 H2069 0.950 . S
C2095 C2094 1.414 . S
C2095 C2096 1.374 . S
C2096 H2070 0.950 . S
C2096 C2092 1.385 . S
C2096 C2095 1.374 . S
C2097 C2094 1.499 . S
C2097 C2098 1.373 . S
C2097 C2099 1.389 . S
C2098 H2071 0.950 . S
C2098 C2084 1.377 . S
C2098 C2097 1.373 . S
C2099 C2083 1.377 . S
C2099 C2097 1.389 . S
C2099 C2100 1.524 . S
C2100 C2099 1.524 . S
C2100 C2101 1.397 . S
C2100 C2105 1.363 . S
C2101 H2072 0.950 . S
C2101 C2100 1.397 . S
C2101 C2102 1.334 . S
C2102 H2073 0.950 . S
C2102 C2101 1.334 . S
C2102 C2103 1.287 . S
C2103 C2102 1.287 . S
C2103 C2104 1.524 . S
C2103 H2106 0.999 . S
C2104 H2074 0.950 . S
C2104 C2103 1.524 . S
C2104 C2105 1.415 . S
C2105 H2075 0.950 . S
C2105 C2100 1.363 . S
C2105 C2104 1.415 . S
H2106 C2103 0.999 . S
H2107 C2088 0.913 . S
H2108 C2126 0.951 . S
H2109 C2128 0.951 . S
H2110 C2130 0.950 . S
H2111 C2131 0.950 . S
H2112 C2133 0.950 . S
H2113 C2136 0.950 1_655 S
H2114 C2137 0.933 1_655 S
H2115 C2139 0.950 . S
H2116 C2140 0.950 . S
H2117 C2141 0.951 . S
H2118 C2143 0.951 . S
H2119 C2145 0.950 . S
H2120 C2146 0.950 . S
H2121 C2148 0.950 . S
H2122 C2151 0.950 1_455 S
H2123 C2152 0.933 1_455 S
H2124 C2154 0.950 . S
H2125 C2155 0.950 . S
C2126 H2108 0.951 . S
C2126 C2127 1.366 . S
C2126 C2128 1.388 . S
C2127 C2126 1.366 . S
C2127 C2131 1.385 . S
C2128 H2109 0.951 . S
C2128 C2126 1.388 . S
C2128 C2129 1.366 . S
C2129 C2128 1.366 . S
C2129 C2130 1.414 . S
C2129 C2132 1.499 . S
C2130 H2110 0.950 . S
C2130 C2129 1.414 . S
C2130 C2131 1.374 . S
C2131 H2111 0.950 . S
C2131 C2127 1.385 . S
C2131 C2130 1.374 . S
C2132 C2129 1.499 . S
C2132 C2133 1.373 . S
C2132 C2134 1.389 1_655 S
C2133 H2112 0.950 . S
C2133 C2132 1.373 . S
C2133 C2149 1.377 . S
C2134 C2132 1.389 1_455 S
C2134 C2135 1.524 . S
C2134 C2148 1.377 . S
C2135 C2134 1.524 . S
C2135 C2136 1.397 . S
C2135 C2140 1.363 . S
C2136 H2113 0.950 1_455 S
C2136 C2135 1.397 . S
C2136 C2137 1.334 . S
C2137 H2114 0.933 1_455 S
C2137 C2136 1.334 . S
C2137 C2138 1.287 . S
C2138 C2137 1.287 . S
C2138 C2139 1.524 . S
C2138 H2157 0.913 . S
C2139 H2115 0.950 . S
C2139 C2138 1.524 . S
C2139 C2140 1.415 . S
C2140 H2116 0.950 . S
C2140 C2135 1.363 . S
C2140 C2139 1.415 . S
C2141 H2117 0.951 . S
C2141 C2142 1.366 . S
C2141 C2143 1.388 . S
C2142 C2141 1.366 . S
C2142 C2146 1.385 . S
C2143 H2118 0.951 . S
C2143 C2141 1.388 . S
C2143 C2144 1.366 . S
C2144 C2143 1.366 . S
C2144 C2145 1.414 . S
C2144 C2147 1.499 . S
C2145 H2119 0.950 . S
C2145 C2144 1.414 . S
C2145 C2146 1.374 . S
C2146 H2120 0.950 . S
C2146 C2142 1.385 . S
C2146 C2145 1.374 . S
C2147 C2144 1.499 . S
C2147 C2148 1.373 . S
C2147 C2149 1.389 1_455 S
C2148 H2121 0.950 . S
C2148 C2134 1.377 . S
C2148 C2147 1.373 . S
C2149 C2133 1.377 . S
C2149 C2147 1.389 1_655 S
C2149 C2150 1.524 . S
C2150 C2149 1.524 . S
C2150 C2151 1.397 . S
C2150 C2155 1.363 . S
C2151 H2122 0.950 1_655 S
C2151 C2150 1.397 . S
C2151 C2152 1.334 . S
C2152 H2123 0.933 1_655 S
C2152 C2151 1.334 . S
C2152 C2153 1.287 . S
C2153 C2152 1.287 . S
C2153 C2154 1.524 . S
C2153 H2156 0.999 . S
C2154 H2124 0.950 . S
C2154 C2153 1.524 . S
C2154 C2155 1.415 . S
C2155 H2125 0.950 . S
C2155 C2150 1.363 . S
C2155 C2154 1.415 . S
H2156 C2153 0.999 . S
H2157 C2138 0.913 . S
H2158 C2176 0.951 . S
H2159 C2178 0.951 . S
H2160 C2180 0.950 . S
H2161 C2181 0.950 . S
H2162 C2183 0.950 . S
H2163 C2186 0.996 . S
H2164 C2187 0.950 1_655 S
H2165 C2189 0.950 . S
H2166 C2190 0.950 . S
H2167 C2191 0.951 . S
H2168 C2193 0.951 . S
H2169 C2195 0.950 . S
H2170 C2196 0.950 . S
H2171 C2198 0.950 . S
H2172 C2201 0.996 . S
H2173 C2202 0.950 1_455 S
H2174 C2204 0.950 . S
H2175 C2205 0.950 . S
C2176 H2158 0.951 . S
C2176 C2177 1.366 . S
C2176 C2178 1.388 . S
C2177 C2176 1.366 . S
C2177 C2181 1.385 . S
C2178 H2159 0.951 . S
C2178 C2176 1.388 . S
C2178 C2179 1.366 . S
C2179 C2178 1.366 . S
C2179 C2180 1.414 . S
C2179 C2182 1.499 . S
C2180 H2160 0.950 . S
C2180 C2179 1.414 . S
C2180 C2181 1.374 . S
C2181 H2161 0.950 . S
C2181 C2177 1.385 . S
C2181 C2180 1.374 . S
C2182 C2179 1.499 . S
C2182 C2183 1.373 . S
C2182 C2184 1.389 1_655 S
C2183 H2162 0.950 . S
C2183 C2182 1.373 . S
C2183 C2199 1.377 . S
C2184 C2182 1.389 1_455 S
C2184 C2185 1.524 . S
C2184 C2198 1.377 . S
C2185 C2184 1.524 . S
C2185 C2186 1.367 1_455 S
C2185 C2190 1.363 . S
C2186 H2163 0.996 . S
C2186 C2185 1.367 1_655 S
C2186 C2187 1.322 1_655 S
C2187 H2164 0.950 1_455 S
C2187 C2186 1.322 1_455 S
C2187 C2188 1.287 . S
C2188 C2187 1.287 . S
C2188 C2189 1.524 . S
C2188 H2207 0.913 . S
C2189 H2165 0.950 . S
C2189 C2188 1.524 . S
C2189 C2190 1.415 . S
C2190 H2166 0.950 . S
C2190 C2185 1.363 . S
C2190 C2189 1.415 . S
C2191 H2167 0.951 . S
C2191 C2192 1.366 . S
C2191 C2193 1.388 . S
C2192 C2191 1.366 . S
C2192 C2196 1.385 . S
C2193 H2168 0.951 . S
C2193 C2191 1.388 . S
C2193 C2194 1.366 . S
C2194 C2193 1.366 . S
C2194 C2195 1.414 . S
C2194 C2197 1.499 . S
C2195 H2169 0.950 . S
C2195 C2194 1.414 . S
C2195 C2196 1.374 . S
C2196 H2170 0.950 . S
C2196 C2192 1.385 . S
C2196 C2195 1.374 . S
C2197 C2194 1.499 . S
C2197 C2198 1.373 . S
C2197 C2199 1.389 1_455 S
C2198 H2171 0.950 . S
C2198 C2184 1.377 . S
C2198 C2197 1.373 . S
C2199 C2183 1.377 . S
C2199 C2197 1.389 1_655 S
C2199 C2200 1.524 . S
C2200 C2199 1.524 . S
C2200 C2201 1.367 1_655 S
C2200 C2205 1.363 . S
C2201 H2172 0.996 . S
C2201 C2200 1.367 1_455 S
C2201 C2202 1.322 1_455 S
C2202 H2173 0.950 1_655 S
C2202 C2201 1.322 1_655 S
C2202 C2203 1.287 . S
C2203 C2202 1.287 . S
C2203 C2204 1.524 . S
C2203 H2206 0.999 . S
C2204 H2174 0.950 . S
C2204 C2203 1.524 . S
C2204 C2205 1.415 . S
C2205 H2175 0.950 . S
C2205 C2200 1.363 . S
C2205 C2204 1.415 . S
H2206 C2203 0.999 . S
H2207 C2188 0.913 . S
H2208 C2226 0.951 . S
H2209 C2228 0.951 . S
H2210 C2230 0.950 . S
H2211 C2231 0.950 . S
H2212 C2233 0.950 . S
H2213 C2236 0.950 . S
H2214 C2237 0.950 . S
H2215 C2239 0.950 . S
H2216 C2240 0.950 . S
H2217 C2241 0.951 . S
H2218 C2243 0.951 . S
H2219 C2245 0.950 . S
H2220 C2246 0.950 . S
H2221 C2248 0.950 . S
H2222 C2251 0.950 . S
H2223 C2252 0.950 . S
H2224 C2254 0.950 . S
H2225 C2255 0.950 . S
C2226 H2208 0.951 . S
C2226 C2227 1.366 . S
C2226 C2228 1.388 . S
C2227 C2226 1.366 . S
C2227 C2231 1.385 . S
C2228 H2209 0.951 . S
C2228 C2226 1.388 . S
C2228 C2229 1.366 . S
C2229 C2228 1.366 . S
C2229 C2230 1.414 . S
C2229 C2232 1.499 . S
C2230 H2210 0.950 . S
C2230 C2229 1.414 . S
C2230 C2231 1.374 . S
C2231 H2211 0.950 . S
C2231 C2227 1.385 . S
C2231 C2230 1.374 . S
C2232 C2229 1.499 . S
C2232 C2233 1.373 . S
C2232 C2234 1.389 . S
C2233 H2212 0.950 . S
C2233 C2232 1.373 . S
C2233 C2249 1.377 . S
C2234 C2232 1.389 . S
C2234 C2235 1.524 . S
C2234 C2248 1.377 . S
C2235 C2234 1.524 . S
C2235 C2236 1.397 . S
C2235 C2240 1.363 . S
C2236 H2213 0.950 . S
C2236 C2235 1.397 . S
C2236 C2237 1.334 . S
C2237 H2214 0.950 . S
C2237 C2236 1.334 . S
C2237 C2238 1.287 . S
C2238 C2237 1.287 . S
C2238 C2239 1.524 . S
C2238 H2257 0.913 . S
C2239 H2215 0.950 . S
C2239 C2238 1.524 . S
C2239 C2240 1.415 . S
C2240 H2216 0.950 . S
C2240 C2235 1.363 . S
C2240 C2239 1.415 . S
C2241 H2217 0.951 . S
C2241 C2242 1.366 . S
C2241 C2243 1.388 . S
C2242 C2241 1.366 . S
C2242 C2246 1.385 . S
C2243 H2218 0.951 . S
C2243 C2241 1.388 . S
C2243 C2244 1.366 . S
C2244 C2243 1.366 . S
C2244 C2245 1.414 . S
C2244 C2247 1.499 . S
C2245 H2219 0.950 . S
C2245 C2244 1.414 . S
C2245 C2246 1.374 . S
C2246 H2220 0.950 . S
C2246 C2242 1.385 . S
C2246 C2245 1.374 . S
C2247 C2244 1.499 . S
C2247 C2248 1.373 . S
C2247 C2249 1.389 . S
C2248 H2221 0.950 . S
C2248 C2234 1.377 . S
C2248 C2247 1.373 . S
C2249 C2233 1.377 . S
C2249 C2247 1.389 . S
C2249 C2250 1.524 . S
C2250 C2249 1.524 . S
C2250 C2251 1.397 . S
C2250 C2255 1.363 . S
C2251 H2222 0.950 . S
C2251 C2250 1.397 . S
C2251 C2252 1.334 . S
C2252 H2223 0.950 . S
C2252 C2251 1.334 . S
C2252 C2253 1.287 . S
C2253 C2252 1.287 . S
C2253 C2254 1.524 . S
C2253 H2256 0.999 . S
C2254 H2224 0.950 . S
C2254 C2253 1.524 . S
C2254 C2255 1.415 . S
C2255 H2225 0.950 . S
C2255 C2250 1.363 . S
C2255 C2254 1.415 . S
H2256 C2253 0.999 . S
H2257 C2238 0.913 . S
H2258 C2276 0.951 . S
H2259 C2278 0.951 . S
H2260 C2280 0.950 . S
H2261 C2281 0.950 . S
H2262 C2283 0.950 . S
H2263 C2286 0.950 . S
H2264 C2287 0.950 . S
H2265 C2289 0.950 . S
H2266 C2290 0.950 . S
H2267 C2291 0.951 . S
H2268 C2293 0.951 . S
H2269 C2295 0.950 . S
H2270 C2296 0.950 . S
H2271 C2298 0.950 . S
H2272 C2301 0.950 . S
H2273 C2302 0.950 . S
H2274 C2304 0.950 . S
H2275 C2305 0.950 . S
C2276 H2258 0.951 . S
C2276 C2277 1.366 . S
C2276 C2278 1.388 . S
C2277 C2276 1.366 . S
C2277 C2281 1.385 . S
C2278 H2259 0.951 . S
C2278 C2276 1.388 . S
C2278 C2279 1.366 . S
C2279 C2278 1.366 . S
C2279 C2280 1.414 . S
C2279 C2282 1.499 . S
C2280 H2260 0.950 . S
C2280 C2279 1.414 . S
C2280 C2281 1.374 . S
C2281 H2261 0.950 . S
C2281 C2277 1.385 . S
C2281 C2280 1.374 . S
C2282 C2279 1.499 . S
C2282 C2283 1.373 . S
C2282 C2284 1.389 . S
C2283 H2262 0.950 . S
C2283 C2282 1.373 . S
C2283 C2299 1.377 1_545 S
C2284 C2282 1.389 . S
C2284 C2285 1.524 . S
C2284 C2298 1.377 1_545 S
C2285 C2284 1.524 . S
C2285 C2286 1.397 . S
C2285 C2290 1.363 . S
C2286 H2263 0.950 . S
C2286 C2285 1.397 . S
C2286 C2287 1.334 . S
C2287 H2264 0.950 . S
C2287 C2286 1.334 . S
C2287 C2288 1.287 . S
C2288 C2287 1.287 . S
C2288 C2289 1.524 . S
C2288 H2307 0.913 . S
C2289 H2265 0.950 . S
C2289 C2288 1.524 . S
C2289 C2290 1.415 . S
C2290 H2266 0.950 . S
C2290 C2285 1.363 . S
C2290 C2289 1.415 . S
C2291 H2267 0.951 . S
C2291 C2292 1.366 . S
C2291 C2293 1.388 . S
C2292 C2291 1.366 . S
C2292 C2296 1.385 . S
C2293 H2268 0.951 . S
C2293 C2291 1.388 . S
C2293 C2294 1.366 . S
C2294 C2293 1.366 . S
C2294 C2295 1.414 . S
C2294 C2297 1.499 . S
C2295 H2269 0.950 . S
C2295 C2294 1.414 . S
C2295 C2296 1.374 . S
C2296 H2270 0.950 . S
C2296 C2292 1.385 . S
C2296 C2295 1.374 . S
C2297 C2294 1.499 . S
C2297 C2298 1.373 . S
C2297 C2299 1.389 . S
C2298 H2271 0.950 . S
C2298 C2284 1.377 1_565 S
C2298 C2297 1.373 . S
C2299 C2283 1.377 1_565 S
C2299 C2297 1.389 . S
C2299 C2300 1.524 . S
C2300 C2299 1.524 . S
C2300 C2301 1.397 . S
C2300 C2305 1.363 . S
C2301 H2272 0.950 . S
C2301 C2300 1.397 . S
C2301 C2302 1.334 . S
C2302 H2273 0.950 . S
C2302 C2301 1.334 . S
C2302 C2303 1.287 . S
C2303 C2302 1.287 . S
C2303 C2304 1.524 . S
C2303 H2306 0.999 . S
C2304 H2274 0.950 . S
C2304 C2303 1.524 . S
C2304 C2305 1.415 . S
C2305 H2275 0.950 . S
C2305 C2300 1.363 . S
C2305 C2304 1.415 . S
H2306 C2303 0.999 . S
H2307 C2288 0.913 . S
H2308 C2326 0.951 . S
H2309 C2328 0.951 . S
H2310 C2330 0.950 . S
H2311 C2331 0.950 . S
H2312 C2333 0.950 . S
H2313 C2336 0.950 . S
H2314 C2337 0.950 . S
H2315 C2339 0.950 . S
H2316 C2340 0.950 . S
H2317 C2341 0.951 . S
H2318 C2343 0.951 . S
H2319 C2345 0.950 . S
H2320 C2346 0.950 . S
H2321 C2348 0.950 . S
H2322 C2351 0.950 . S
H2323 C2352 0.950 . S
H2324 C2354 0.950 . S
H2325 C2355 0.950 . S
C2326 H2308 0.951 . S
C2326 C2327 1.366 . S
C2326 C2328 1.388 . S
C2327 C2326 1.366 . S
C2327 C2331 1.385 . S
C2328 H2309 0.951 . S
C2328 C2326 1.388 . S
C2328 C2329 1.366 . S
C2329 C2328 1.366 . S
C2329 C2330 1.414 . S
C2329 C2332 1.499 . S
C2330 H2310 0.950 . S
C2330 C2329 1.414 . S
C2330 C2331 1.374 . S
C2331 H2311 0.950 . S
C2331 C2327 1.385 . S
C2331 C2330 1.374 . S
C2332 C2329 1.499 . S
C2332 C2333 1.373 . S
C2332 C2334 1.389 . S
C2333 H2312 0.950 . S
C2333 C2332 1.373 . S
C2333 C2349 1.377 . S
C2334 C2332 1.389 . S
C2334 C2335 1.524 . S
C2334 C2348 1.377 . S
C2335 C2334 1.524 . S
C2335 C2336 1.397 . S
C2335 C2340 1.363 . S
C2336 H2313 0.950 . S
C2336 C2335 1.397 . S
C2336 C2337 1.334 . S
C2337 H2314 0.950 . S
C2337 C2336 1.334 . S
C2337 C2338 1.287 . S
C2338 C2337 1.287 . S
C2338 C2339 1.524 . S
C2338 H2357 0.913 . S
C2339 H2315 0.950 . S
C2339 C2338 1.524 . S
C2339 C2340 1.415 . S
C2340 H2316 0.950 . S
C2340 C2335 1.363 . S
C2340 C2339 1.415 . S
C2341 H2317 0.951 . S
C2341 C2342 1.366 . S
C2341 C2343 1.388 . S
C2342 C2341 1.366 . S
C2342 C2346 1.385 . S
C2343 H2318 0.951 . S
C2343 C2341 1.388 . S
C2343 C2344 1.366 . S
C2344 C2343 1.366 . S
C2344 C2345 1.414 . S
C2344 C2347 1.499 . S
C2345 H2319 0.950 . S
C2345 C2344 1.414 . S
C2345 C2346 1.374 . S
C2346 H2320 0.950 . S
C2346 C2342 1.385 . S
C2346 C2345 1.374 . S
C2347 C2344 1.499 . S
C2347 C2348 1.373 . S
C2347 C2349 1.389 . S
C2348 H2321 0.950 . S
C2348 C2334 1.377 . S
C2348 C2347 1.373 . S
C2349 C2333 1.377 . S
C2349 C2347 1.389 . S
C2349 C2350 1.524 . S
C2350 C2349 1.524 . S
C2350 C2351 1.397 . S
C2350 C2355 1.363 . S
C2351 H2322 0.950 . S
C2351 C2350 1.397 . S
C2351 C2352 1.334 . S
C2352 H2323 0.950 . S
C2352 C2351 1.334 . S
C2352 C2353 1.287 . S
C2353 C2352 1.287 . S
C2353 C2354 1.524 . S
C2353 H2356 0.999 . S
C2354 H2324 0.950 . S
C2354 C2353 1.524 . S
C2354 C2355 1.415 . S
C2355 H2325 0.950 . S
C2355 C2350 1.363 . S
C2355 C2354 1.415 . S
H2356 C2353 0.999 . S
H2357 C2338 0.913 . S
H2358 C2376 0.951 . S
H2359 C2378 0.951 . S
H2360 C2380 0.950 . S
H2361 C2381 0.950 . S
H2362 C2383 0.950 . S
H2363 C2386 0.950 . S
H2364 C2387 0.950 . S
H2365 C2389 0.950 . S
H2366 C2390 0.950 . S
H2367 C2391 0.951 . S
H2368 C2393 0.951 . S
H2369 C2395 0.950 . S
H2370 C2396 0.950 . S
H2371 C2398 0.950 . S
H2372 C2401 0.950 . S
H2373 C2402 0.950 . S
H2374 C2404 0.950 . S
H2375 C2405 0.950 . S
C2376 H2358 0.951 . S
C2376 C2377 1.366 . S
C2376 C2378 1.388 . S
C2377 C2376 1.366 . S
C2377 C2381 1.385 . S
C2378 H2359 0.951 . S
C2378 C2376 1.388 . S
C2378 C2379 1.366 . S
C2379 C2378 1.366 . S
C2379 C2380 1.414 . S
C2379 C2382 1.499 . S
C2380 H2360 0.950 . S
C2380 C2379 1.414 . S
C2380 C2381 1.374 . S
C2381 H2361 0.950 . S
C2381 C2377 1.385 . S
C2381 C2380 1.374 . S
C2382 C2379 1.499 . S
C2382 C2383 1.373 . S
C2382 C2384 1.389 . S
C2383 H2362 0.950 . S
C2383 C2382 1.373 . S
C2383 C2399 1.377 1_554 S
C2384 C2382 1.389 . S
C2384 C2385 1.524 . S
C2384 C2398 1.377 1_554 S
C2385 C2384 1.524 . S
C2385 C2386 1.397 . S
C2385 C2390 1.363 . S
C2386 H2363 0.950 . S
C2386 C2385 1.397 . S
C2386 C2387 1.334 . S
C2387 H2364 0.950 . S
C2387 C2386 1.334 . S
C2387 C2388 1.287 . S
C2388 C2387 1.287 . S
C2388 C2389 1.524 . S
C2388 H2407 0.913 . S
C2389 H2365 0.950 . S
C2389 C2388 1.524 . S
C2389 C2390 1.415 . S
C2390 H2366 0.950 . S
C2390 C2385 1.363 . S
C2390 C2389 1.415 . S
C2391 H2367 0.951 . S
C2391 C2392 1.366 . S
C2391 C2393 1.388 . S
C2392 C2391 1.366 . S
C2392 C2396 1.385 . S
C2393 H2368 0.951 . S
C2393 C2391 1.388 . S
C2393 C2394 1.366 . S
C2394 C2393 1.366 . S
C2394 C2395 1.414 . S
C2394 C2397 1.499 . S
C2395 H2369 0.950 . S
C2395 C2394 1.414 . S
C2395 C2396 1.374 . S
C2396 H2370 0.950 . S
C2396 C2392 1.385 . S
C2396 C2395 1.374 . S
C2397 C2394 1.499 . S
C2397 C2398 1.373 . S
C2397 C2399 1.389 . S
C2398 H2371 0.950 . S
C2398 C2384 1.377 1_556 S
C2398 C2397 1.373 . S
C2399 C2383 1.377 1_556 S
C2399 C2397 1.389 . S
C2399 C2400 1.524 . S
C2400 C2399 1.524 . S
C2400 C2401 1.397 . S
C2400 C2405 1.363 . S
C2401 H2372 0.950 . S
C2401 C2400 1.397 . S
C2401 C2402 1.334 . S
C2402 H2373 0.950 . S
C2402 C2401 1.334 . S
C2402 C2403 1.287 . S
C2403 C2402 1.287 . S
C2403 C2404 1.524 . S
C2403 H2406 0.999 . S
C2404 H2374 0.950 . S
C2404 C2403 1.524 . S
C2404 C2405 1.415 . S
C2405 H2375 0.950 . S
C2405 C2400 1.363 . S
C2405 C2404 1.415 . S
H2406 C2403 0.999 . S
H2407 C2388 0.913 . S
H2408 C2426 0.951 . S
H2409 C2428 0.951 . S
H2410 C2430 0.950 . S
H2411 C2431 0.950 . S
H2412 C2433 0.950 . S
H2413 C2436 0.950 . S
H2414 C2437 0.950 . S
H2415 C2439 0.950 . S
H2416 C2440 0.950 . S
H2417 C2441 0.951 . S
H2418 C2443 0.951 . S
H2419 C2445 0.950 . S
H2420 C2446 0.950 . S
H2421 C2448 0.952 . S
H2422 C2451 0.950 . S
H2423 C2452 0.950 . S
H2424 C2454 0.950 . S
H2425 C2455 0.950 . S
C2426 H2408 0.951 . S
C2426 C2427 1.366 . S
C2426 C2428 1.388 . S
C2427 C2426 1.366 . S
C2427 C2431 1.385 . S
C2428 H2409 0.951 . S
C2428 C2426 1.388 . S
C2428 C2429 1.366 . S
C2429 C2428 1.366 . S
C2429 C2430 1.414 . S
C2429 C2432 1.499 . S
C2430 H2410 0.950 . S
C2430 C2429 1.414 . S
C2430 C2431 1.374 . S
C2431 H2411 0.950 . S
C2431 C2427 1.385 . S
C2431 C2430 1.374 . S
C2432 C2429 1.499 . S
C2432 C2433 1.373 1_556 S
C2432 C2434 1.389 . S
C2433 H2412 0.950 . S
C2433 C2432 1.373 1_554 S
C2433 C2449 1.377 . S
C2434 C2432 1.389 . S
C2434 C2435 1.524 . S
C2434 C2448 1.394 . S
C2435 C2434 1.524 . S
C2435 C2436 1.397 . S
C2435 C2440 1.363 . S
C2436 H2413 0.950 . S
C2436 C2435 1.397 . S
C2436 C2437 1.334 . S
C2437 H2414 0.950 . S
C2437 C2436 1.334 . S
C2437 C2438 1.287 . S
C2438 C2437 1.287 . S
C2438 C2439 1.524 . S
C2438 H2457 0.913 . S
C2439 H2415 0.950 . S
C2439 C2438 1.524 . S
C2439 C2440 1.415 . S
C2440 H2416 0.950 . S
C2440 C2435 1.363 . S
C2440 C2439 1.415 . S
C2441 H2417 0.951 . S
C2441 C2442 1.366 . S
C2441 C2443 1.388 . S
C2442 C2441 1.366 . S
C2442 C2446 1.385 . S
C2443 H2418 0.951 . S
C2443 C2441 1.388 . S
C2443 C2444 1.366 . S
C2444 C2443 1.366 . S
C2444 C2445 1.414 . S
C2444 C2447 1.499 . S
C2445 H2419 0.950 . S
C2445 C2444 1.414 . S
C2445 C2446 1.374 . S
C2446 H2420 0.950 . S
C2446 C2442 1.385 . S
C2446 C2445 1.374 . S
C2447 C2444 1.499 . S
C2447 C2448 1.355 1_554 S
C2447 C2449 1.389 . S
C2448 H2421 0.952 . S
C2448 C2434 1.394 . S
C2448 C2447 1.355 1_556 S
C2449 C2433 1.377 . S
C2449 C2447 1.389 . S
C2449 C2450 1.524 . S
C2450 C2449 1.524 . S
C2450 C2451 1.397 . S
C2450 C2455 1.363 . S
C2451 H2422 0.950 . S
C2451 C2450 1.397 . S
C2451 C2452 1.334 . S
C2452 H2423 0.950 . S
C2452 C2451 1.334 . S
C2452 C2453 1.287 . S
C2453 C2452 1.287 . S
C2453 C2454 1.524 . S
C2453 H2456 0.999 . S
C2454 H2424 0.950 . S
C2454 C2453 1.524 . S
C2454 C2455 1.415 . S
C2455 H2425 0.950 . S
C2455 C2450 1.363 . S
C2455 C2454 1.415 . S
H2456 C2453 0.999 . S
H2457 C2438 0.913 . S
H2458 C2476 0.951 . S
H2459 C2478 0.951 . S
H2460 C2480 0.950 . S
H2461 C2481 0.950 . S
H2462 C2483 0.950 . S
H2463 C2486 0.950 . S
H2464 C2487 0.950 . S
H2465 C2489 0.950 . S
H2466 C2490 0.950 . S
H2467 C2491 0.951 . S
H2468 C2493 0.951 . S
H2469 C2495 0.950 . S
H2470 C2496 0.950 . S
H2471 C2498 0.950 . S
H2472 C2501 0.950 . S
H2473 C2502 0.950 . S
H2474 C2504 0.950 . S
H2475 C2505 0.950 . S
C2476 H2458 0.951 . S
C2476 C2477 1.366 . S
C2476 C2478 1.388 . S
C2477 C2476 1.366 . S
C2477 C2481 1.385 . S
C2478 H2459 0.951 . S
C2478 C2476 1.388 . S
C2478 C2479 1.366 . S
C2479 C2478 1.366 . S
C2479 C2480 1.414 . S
C2479 C2482 1.499 . S
C2480 H2460 0.950 . S
C2480 C2479 1.414 . S
C2480 C2481 1.374 . S
C2481 H2461 0.950 . S
C2481 C2477 1.385 . S
C2481 C2480 1.374 . S
C2482 C2479 1.499 . S
C2482 C2483 1.373 . S
C2482 C2484 1.389 . S
C2483 H2462 0.950 . S
C2483 C2482 1.373 . S
C2483 C2499 1.377 . S
C2484 C2482 1.389 . S
C2484 C2485 1.524 . S
C2484 C2498 1.377 . S
C2485 C2484 1.524 . S
C2485 C2486 1.397 . S
C2485 C2490 1.363 . S
C2486 H2463 0.950 . S
C2486 C2485 1.397 . S
C2486 C2487 1.334 . S
C2487 H2464 0.950 . S
C2487 C2486 1.334 . S
C2487 C2488 1.287 . S
C2488 C2487 1.287 . S
C2488 C2489 1.524 . S
C2488 H2507 0.913 . S
C2489 H2465 0.950 . S
C2489 C2488 1.524 . S
C2489 C2490 1.415 . S
C2490 H2466 0.950 . S
C2490 C2485 1.363 . S
C2490 C2489 1.415 . S
C2491 H2467 0.951 . S
C2491 C2492 1.366 . S
C2491 C2493 1.388 . S
C2492 C2491 1.366 . S
C2492 C2496 1.385 . S
C2493 H2468 0.951 . S
C2493 C2491 1.388 . S
C2493 C2494 1.366 . S
C2494 C2493 1.366 . S
C2494 C2495 1.414 . S
C2494 C2497 1.499 . S
C2495 H2469 0.950 . S
C2495 C2494 1.414 . S
C2495 C2496 1.374 . S
C2496 H2470 0.950 . S
C2496 C2492 1.385 . S
C2496 C2495 1.374 . S
C2497 C2494 1.499 . S
C2497 C2498 1.373 . S
C2497 C2499 1.389 . S
C2498 H2471 0.950 . S
C2498 C2484 1.377 . S
C2498 C2497 1.373 . S
C2499 C2483 1.377 . S
C2499 C2497 1.389 . S
C2499 C2500 1.524 . S
C2500 C2499 1.524 . S
C2500 C2501 1.397 . S
C2500 C2505 1.363 . S
C2501 H2472 0.950 . S
C2501 C2500 1.397 . S
C2501 C2502 1.334 . S
C2502 H2473 0.950 . S
C2502 C2501 1.334 . S
C2502 C2503 1.287 . S
C2503 C2502 1.287 . S
C2503 C2504 1.524 . S
C2503 H2506 0.999 . S
C2504 H2474 0.950 . S
C2504 C2503 1.524 . S
C2504 C2505 1.415 . S
C2505 H2475 0.950 . S
C2505 C2500 1.363 . S
C2505 C2504 1.415 . S
H2506 C2503 0.999 . S
H2507 C2488 0.913 . S
H2508 C2526 0.951 . S
H2509 C2528 0.951 . S
H2510 C2530 0.950 . S
H2511 C2531 0.950 . S
H2512 C2533 0.950 . S
H2513 C2536 0.950 . S
H2514 C2537 0.950 . S
H2515 C2539 0.950 . S
H2516 C2540 0.950 . S
H2517 C2541 0.951 . S
H2518 C2543 0.951 . S
H2519 C2545 0.950 . S
H2520 C2546 0.950 . S
H2521 C2548 0.950 . S
H2522 C2551 0.950 . S
H2523 C2552 0.950 . S
H2524 C2554 0.950 . S
H2525 C2555 0.950 . S
C2526 H2508 0.951 . S
C2526 C2527 1.366 . S
C2526 C2528 1.388 . S
C2527 C2526 1.366 . S
C2527 C2531 1.385 . S
C2528 H2509 0.951 . S
C2528 C2526 1.388 . S
C2528 C2529 1.366 . S
C2529 C2528 1.366 . S
C2529 C2530 1.414 . S
C2529 C2532 1.499 . S
C2530 H2510 0.950 . S
C2530 C2529 1.414 . S
C2530 C2531 1.374 . S
C2531 H2511 0.950 . S
C2531 C2527 1.385 . S
C2531 C2530 1.374 . S
C2532 C2529 1.499 . S
C2532 C2533 1.373 . S
C2532 C2534 1.389 . S
C2533 H2512 0.950 . S
C2533 C2532 1.373 . S
C2533 C2549 1.377 . S
C2534 C2532 1.389 . S
C2534 C2535 1.524 . S
C2534 C2548 1.377 . S
C2535 C2534 1.524 . S
C2535 C2536 1.397 . S
C2535 C2540 1.363 . S
C2536 H2513 0.950 . S
C2536 C2535 1.397 . S
C2536 C2537 1.334 . S
C2537 H2514 0.950 . S
C2537 C2536 1.334 . S
C2537 C2538 1.287 . S
C2538 C2537 1.287 . S
C2538 C2539 1.524 . S
C2538 H2557 0.913 . S
C2539 H2515 0.950 . S
C2539 C2538 1.524 . S
C2539 C2540 1.415 . S
C2540 H2516 0.950 . S
C2540 C2535 1.363 . S
C2540 C2539 1.415 . S
C2541 H2517 0.951 . S
C2541 C2542 1.366 . S
C2541 C2543 1.388 . S
C2542 C2541 1.366 . S
C2542 C2546 1.385 . S
C2543 H2518 0.951 . S
C2543 C2541 1.388 . S
C2543 C2544 1.366 . S
C2544 C2543 1.366 . S
C2544 C2545 1.414 . S
C2544 C2547 1.499 . S
C2545 H2519 0.950 . S
C2545 C2544 1.414 . S
C2545 C2546 1.374 . S
C2546 H2520 0.950 . S
C2546 C2542 1.385 . S
C2546 C2545 1.374 . S
C2547 C2544 1.499 . S
C2547 C2548 1.373 . S
C2547 C2549 1.389 . S
C2548 H2521 0.950 . S
C2548 C2534 1.377 . S
C2548 C2547 1.373 . S
C2549 C2533 1.377 . S
C2549 C2547 1.389 . S
C2549 C2550 1.524 . S
C2550 C2549 1.524 . S
C2550 C2551 1.397 . S
C2550 C2555 1.363 . S
C2551 H2522 0.950 . S
C2551 C2550 1.397 . S
C2551 C2552 1.334 . S
C2552 H2523 0.950 . S
C2552 C2551 1.334 . S
C2552 C2553 1.287 . S
C2553 C2552 1.287 . S
C2553 C2554 1.524 . S
C2553 H2556 0.999 . S
C2554 H2524 0.950 . S
C2554 C2553 1.524 . S
C2554 C2555 1.415 . S
C2555 H2525 0.950 . S
C2555 C2550 1.363 . S
C2555 C2554 1.415 . S
H2556 C2553 0.999 . S
H2557 C2538 0.913 . S
H2558 C2576 0.951 . S
H2559 C2578 0.951 . S
H2560 C2580 0.950 . S
H2561 C2581 0.950 . S
H2562 C2583 0.950 . S
H2563 C2586 0.950 . S
H2564 C2587 0.950 . S
H2565 C2589 0.950 . S
H2566 C2590 0.950 1_655 S
H2567 C2591 0.951 . S
H2568 C2593 0.951 . S
H2569 C2595 0.950 . S
H2570 C2596 0.950 . S
H2571 C2598 0.950 . S
H2572 C2601 0.950 . S
H2573 C2602 0.950 . S
H2574 C2604 0.950 . S
H2575 C2605 0.950 1_455 S
C2576 H2558 0.951 . S
C2576 C2577 1.366 . S
C2576 C2578 1.388 . S
C2577 C2576 1.366 . S
C2577 C2581 1.385 . S
C2578 H2559 0.951 . S
C2578 C2576 1.388 . S
C2578 C2579 1.366 . S
C2579 C2578 1.366 . S
C2579 C2580 1.414 . S
C2579 C2582 1.499 . S
C2580 H2560 0.950 . S
C2580 C2579 1.414 . S
C2580 C2581 1.374 . S
C2581 H2561 0.950 . S
C2581 C2577 1.385 . S
C2581 C2580 1.374 . S
C2582 C2579 1.499 . S
C2582 C2583 1.373 . S
C2582 C2584 1.389 . S
C2583 H2562 0.950 . S
C2583 C2582 1.373 . S
C2583 C2599 1.377 1_455 S
C2584 C2582 1.389 . S
C2584 C2585 1.524 . S
C2584 C2598 1.377 1_455 S
C2585 C2584 1.524 . S
C2585 C2586 1.397 . S
C2585 C2590 1.363 . S
C2586 H2563 0.950 . S
C2586 C2585 1.397 . S
C2586 C2587 1.334 . S
C2587 H2564 0.950 . S
C2587 C2586 1.334 . S
C2587 C2588 1.287 . S
C2588 C2587 1.287 . S
C2588 C2589 1.524 . S
C2588 H2607 0.913 . S
C2589 H2565 0.950 . S
C2589 C2588 1.524 . S
C2589 C2590 1.415 . S
C2590 H2566 0.950 1_455 S
C2590 C2585 1.363 . S
C2590 C2589 1.415 . S
C2591 H2567 0.951 . S
C2591 C2592 1.366 . S
C2591 C2593 1.388 . S
C2592 C2591 1.366 . S
C2592 C2596 1.385 . S
C2593 H2568 0.951 . S
C2593 C2591 1.388 . S
C2593 C2594 1.366 . S
C2594 C2593 1.366 . S
C2594 C2595 1.414 . S
C2594 C2597 1.499 . S
C2595 H2569 0.950 . S
C2595 C2594 1.414 . S
C2595 C2596 1.374 . S
C2596 H2570 0.950 . S
C2596 C2592 1.385 . S
C2596 C2595 1.374 . S
C2597 C2594 1.499 . S
C2597 C2598 1.373 . S
C2597 C2599 1.389 . S
C2598 H2571 0.950 . S
C2598 C2584 1.377 1_655 S
C2598 C2597 1.373 . S
C2599 C2583 1.377 1_655 S
C2599 C2597 1.389 . S
C2599 C2600 1.524 . S
C2600 C2599 1.524 . S
C2600 C2601 1.397 . S
C2600 C2605 1.363 . S
C2601 H2572 0.950 . S
C2601 C2600 1.397 . S
C2601 C2602 1.334 . S
C2602 H2573 0.950 . S
C2602 C2601 1.334 . S
C2602 C2603 1.287 . S
C2603 C2602 1.287 . S
C2603 C2604 1.524 . S
C2603 H2606 0.999 . S
C2604 H2574 0.950 . S
C2604 C2603 1.524 . S
C2604 C2605 1.415 . S
C2605 H2575 0.950 1_655 S
C2605 C2600 1.363 . S
C2605 C2604 1.415 . S
H2606 C2603 0.999 . S
H2607 C2588 0.913 . S
H2608 C2626 0.951 . S
H2609 C2628 0.951 . S
H2610 C2630 0.950 . S
H2611 C2631 0.950 . S
H2612 C2633 0.950 . S
H2613 C2636 0.950 . S
H2614 C2637 0.950 . S
H2615 C2639 0.950 . S
H2616 C2640 0.950 1_655 S
H2617 C2641 0.951 . S
H2618 C2643 0.951 . S
H2619 C2645 0.950 . S
H2620 C2646 0.950 . S
H2621 C2648 0.950 . S
H2622 C2651 0.950 . S
H2623 C2652 0.950 . S
H2624 C2654 0.950 . S
H2625 C2655 0.950 1_455 S
C2626 H2608 0.951 . S
C2626 C2627 1.366 . S
C2626 C2628 1.388 . S
C2627 C2626 1.366 . S
C2627 C2631 1.385 . S
C2628 H2609 0.951 . S
C2628 C2626 1.388 . S
C2628 C2629 1.366 . S
C2629 C2628 1.366 . S
C2629 C2630 1.414 . S
C2629 C2632 1.499 . S
C2630 H2610 0.950 . S
C2630 C2629 1.414 . S
C2630 C2631 1.374 . S
C2631 H2611 0.950 . S
C2631 C2627 1.385 . S
C2631 C2630 1.374 . S
C2632 C2629 1.499 . S
C2632 C2633 1.373 . S
C2632 C2634 1.389 . S
C2633 H2612 0.950 . S
C2633 C2632 1.373 . S
C2633 C2649 1.377 1_455 S
C2634 C2632 1.389 . S
C2634 C2635 1.524 . S
C2634 C2648 1.377 1_455 S
C2635 C2634 1.524 . S
C2635 C2636 1.397 . S
C2635 C2640 1.363 . S
C2636 H2613 0.950 . S
C2636 C2635 1.397 . S
C2636 C2637 1.334 . S
C2637 H2614 0.950 . S
C2637 C2636 1.334 . S
C2637 C2638 1.287 . S
C2638 C2637 1.287 . S
C2638 C2639 1.524 . S
C2638 H2657 0.913 . S
C2639 H2615 0.950 . S
C2639 C2638 1.524 . S
C2639 C2640 1.415 . S
C2640 H2616 0.950 1_455 S
C2640 C2635 1.363 . S
C2640 C2639 1.415 . S
C2641 H2617 0.951 . S
C2641 C2642 1.366 . S
C2641 C2643 1.388 . S
C2642 C2641 1.366 . S
C2642 C2646 1.385 . S
C2643 H2618 0.951 . S
C2643 C2641 1.388 . S
C2643 C2644 1.366 . S
C2644 C2643 1.366 . S
C2644 C2645 1.414 . S
C2644 C2647 1.499 . S
C2645 H2619 0.950 . S
C2645 C2644 1.414 . S
C2645 C2646 1.374 . S
C2646 H2620 0.950 . S
C2646 C2642 1.385 . S
C2646 C2645 1.374 . S
C2647 C2644 1.499 . S
C2647 C2648 1.373 . S
C2647 C2649 1.389 . S
C2648 H2621 0.950 . S
C2648 C2634 1.377 1_655 S
C2648 C2647 1.373 . S
C2649 C2633 1.377 1_655 S
C2649 C2647 1.389 . S
C2649 C2650 1.524 . S
C2650 C2649 1.524 . S
C2650 C2651 1.397 . S
C2650 C2655 1.363 . S
C2651 H2622 0.950 . S
C2651 C2650 1.397 . S
C2651 C2652 1.334 . S
C2652 H2623 0.950 . S
C2652 C2651 1.334 . S
C2652 C2653 1.287 . S
C2653 C2652 1.287 . S
C2653 C2654 1.524 . S
C2653 H2656 0.999 . S
C2654 H2624 0.950 . S
C2654 C2653 1.524 . S
C2654 C2655 1.415 . S
C2655 H2625 0.950 1_655 S
C2655 C2650 1.363 . S
C2655 C2654 1.415 . S
H2656 C2653 0.999 . S
H2657 C2638 0.913 . S
H2658 C2676 0.951 . S
H2659 C2678 0.951 . S
H2660 C2680 0.950 . S
H2661 C2681 0.950 . S
H2662 C2683 0.950 . S
H2663 C2686 0.950 . S
H2664 C2687 0.950 . S
H2665 C2689 0.950 . S
H2666 C2690 0.950 . S
H2667 C2691 0.951 . S
H2668 C2693 0.951 . S
H2669 C2695 0.950 . S
H2670 C2696 0.950 . S
H2671 C2698 0.950 . S
H2672 C2701 0.950 . S
H2673 C2702 0.950 . S
H2674 C2704 0.950 . S
H2675 C2705 0.950 . S
C2676 H2658 0.951 . S
C2676 C2677 1.366 . S
C2676 C2678 1.388 . S
C2677 C2676 1.366 . S
C2677 C2681 1.385 . S
C2678 H2659 0.951 . S
C2678 C2676 1.388 . S
C2678 C2679 1.366 . S
C2679 C2678 1.366 . S
C2679 C2680 1.414 . S
C2679 C2682 1.499 . S
C2680 H2660 0.950 . S
C2680 C2679 1.414 . S
C2680 C2681 1.374 . S
C2681 H2661 0.950 . S
C2681 C2677 1.385 . S
C2681 C2680 1.374 . S
C2682 C2679 1.499 . S
C2682 C2683 1.373 . S
C2682 C2684 1.389 . S
C2683 H2662 0.950 . S
C2683 C2682 1.373 . S
C2683 C2699 1.377 . S
C2684 C2682 1.389 . S
C2684 C2685 1.524 . S
C2684 C2698 1.377 . S
C2685 C2684 1.524 . S
C2685 C2686 1.397 . S
C2685 C2690 1.363 . S
C2686 H2663 0.950 . S
C2686 C2685 1.397 . S
C2686 C2687 1.334 . S
C2687 H2664 0.950 . S
C2687 C2686 1.334 . S
C2687 C2688 1.287 . S
C2688 C2687 1.287 . S
C2688 C2689 1.524 . S
C2688 H2707 0.913 . S
C2689 H2665 0.950 . S
C2689 C2688 1.524 . S
C2689 C2690 1.415 . S
C2690 H2666 0.950 . S
C2690 C2685 1.363 . S
C2690 C2689 1.415 . S
C2691 H2667 0.951 . S
C2691 C2692 1.366 . S
C2691 C2693 1.388 . S
C2692 C2691 1.366 . S
C2692 C2696 1.385 . S
C2693 H2668 0.951 . S
C2693 C2691 1.388 . S
C2693 C2694 1.366 . S
C2694 C2693 1.366 . S
C2694 C2695 1.414 . S
C2694 C2697 1.499 . S
C2695 H2669 0.950 . S
C2695 C2694 1.414 . S
C2695 C2696 1.374 . S
C2696 H2670 0.950 . S
C2696 C2692 1.385 . S
C2696 C2695 1.374 . S
C2697 C2694 1.499 . S
C2697 C2698 1.373 . S
C2697 C2699 1.389 . S
C2698 H2671 0.950 . S
C2698 C2684 1.377 . S
C2698 C2697 1.373 . S
C2699 C2683 1.377 . S
C2699 C2697 1.389 . S
C2699 C2700 1.524 . S
C2700 C2699 1.524 . S
C2700 C2701 1.397 . S
C2700 C2705 1.363 . S
C2701 H2672 0.950 . S
C2701 C2700 1.397 . S
C2701 C2702 1.334 . S
C2702 H2673 0.950 . S
C2702 C2701 1.334 . S
C2702 C2703 1.287 . S
C2703 C2702 1.287 . S
C2703 C2704 1.524 . S
C2703 H2706 0.999 . S
C2704 H2674 0.950 . S
C2704 C2703 1.524 . S
C2704 C2705 1.415 . S
C2705 H2675 0.950 . S
C2705 C2700 1.363 . S
C2705 C2704 1.415 . S
H2706 C2703 0.999 . S
H2707 C2688 0.913 . S
H2708 C2726 0.951 . S
H2709 C2728 0.951 . S
H2710 C2730 0.950 . S
H2711 C2731 0.950 . S
H2712 C2733 0.950 . S
H2713 C2736 0.950 . S
H2714 C2737 0.950 . S
H2715 C2739 0.950 . S
H2716 C2740 0.950 . S
H2717 C2741 0.951 . S
H2718 C2743 0.951 . S
H2719 C2745 0.950 . S
H2720 C2746 0.950 . S
H2721 C2748 0.950 . S
H2722 C2751 0.950 . S
H2723 C2752 0.950 . S
H2724 C2754 0.950 . S
H2725 C2755 0.950 . S
C2726 H2708 0.951 . S
C2726 C2727 1.366 . S
C2726 C2728 1.388 . S
C2727 C2726 1.366 . S
C2727 C2731 1.385 . S
C2728 H2709 0.951 . S
C2728 C2726 1.388 . S
C2728 C2729 1.366 . S
C2729 C2728 1.366 . S
C2729 C2730 1.414 . S
C2729 C2732 1.499 . S
C2730 H2710 0.950 . S
C2730 C2729 1.414 . S
C2730 C2731 1.374 . S
C2731 H2711 0.950 . S
C2731 C2727 1.385 . S
C2731 C2730 1.374 . S
C2732 C2729 1.499 . S
C2732 C2733 1.373 . S
C2732 C2734 1.389 . S
C2733 H2712 0.950 . S
C2733 C2732 1.373 . S
C2733 C2749 1.377 . S
C2734 C2732 1.389 . S
C2734 C2735 1.524 . S
C2734 C2748 1.377 . S
C2735 C2734 1.524 . S
C2735 C2736 1.397 . S
C2735 C2740 1.363 . S
C2736 H2713 0.950 . S
C2736 C2735 1.397 . S
C2736 C2737 1.334 . S
C2737 H2714 0.950 . S
C2737 C2736 1.334 . S
C2737 C2738 1.287 . S
C2738 C2737 1.287 . S
C2738 C2739 1.524 . S
C2738 H2757 0.913 . S
C2739 H2715 0.950 . S
C2739 C2738 1.524 . S
C2739 C2740 1.415 . S
C2740 H2716 0.950 . S
C2740 C2735 1.363 . S
C2740 C2739 1.415 . S
C2741 H2717 0.951 . S
C2741 C2742 1.366 . S
C2741 C2743 1.388 . S
C2742 C2741 1.366 . S
C2742 C2746 1.385 . S
C2743 H2718 0.951 . S
C2743 C2741 1.388 . S
C2743 C2744 1.366 . S
C2744 C2743 1.366 . S
C2744 C2745 1.414 . S
C2744 C2747 1.499 . S
C2745 H2719 0.950 . S
C2745 C2744 1.414 . S
C2745 C2746 1.374 . S
C2746 H2720 0.950 . S
C2746 C2742 1.385 . S
C2746 C2745 1.374 . S
C2747 C2744 1.499 . S
C2747 C2748 1.373 . S
C2747 C2749 1.389 . S
C2748 H2721 0.950 . S
C2748 C2734 1.377 . S
C2748 C2747 1.373 . S
C2749 C2733 1.377 . S
C2749 C2747 1.389 . S
C2749 C2750 1.524 . S
C2750 C2749 1.524 . S
C2750 C2751 1.397 . S
C2750 C2755 1.363 . S
C2751 H2722 0.950 . S
C2751 C2750 1.397 . S
C2751 C2752 1.334 . S
C2752 H2723 0.950 . S
C2752 C2751 1.334 . S
C2752 C2753 1.287 . S
C2753 C2752 1.287 . S
C2753 C2754 1.524 . S
C2753 H2756 0.999 . S
C2754 H2724 0.950 . S
C2754 C2753 1.524 . S
C2754 C2755 1.415 . S
C2755 H2725 0.950 . S
C2755 C2750 1.363 . S
C2755 C2754 1.415 . S
H2756 C2753 0.999 . S
H2757 C2738 0.913 . S
H2758 C2776 0.951 . S
H2759 C2778 0.951 . S
H2760 C2780 0.950 . S
H2761 C2781 0.950 . S
H2762 C2783 0.950 . S
H2763 C2786 0.950 . S
H2764 C2787 0.950 . S
H2765 C2789 0.950 . S
H2766 C2790 0.950 . S
H2767 C2791 0.951 . S
H2768 C2793 0.951 . S
H2769 C2795 0.950 . S
H2770 C2796 0.950 . S
H2771 C2798 0.950 . S
H2772 C2801 0.950 . S
H2773 C2802 0.950 . S
H2774 C2804 0.950 . S
H2775 C2805 0.950 . S
C2776 H2758 0.951 . S
C2776 C2777 1.366 . S
C2776 C2778 1.388 . S
C2777 C2776 1.366 . S
C2777 C2781 1.385 . S
C2778 H2759 0.951 . S
C2778 C2776 1.388 . S
C2778 C2779 1.366 . S
C2779 C2778 1.366 . S
C2779 C2780 1.414 . S
C2779 C2782 1.499 . S
C2780 H2760 0.950 . S
C2780 C2779 1.414 . S
C2780 C2781 1.374 . S
C2781 H2761 0.950 . S
C2781 C2777 1.385 . S
C2781 C2780 1.374 . S
C2782 C2779 1.499 . S
C2782 C2783 1.373 . S
C2782 C2784 1.389 . S
C2783 H2762 0.950 . S
C2783 C2782 1.373 . S
C2783 C2799 1.377 1_545 S
C2784 C2782 1.389 . S
C2784 C2785 1.524 . S
C2784 C2798 1.377 1_545 S
C2785 C2784 1.524 . S
C2785 C2786 1.397 . S
C2785 C2790 1.363 . S
C2786 H2763 0.950 . S
C2786 C2785 1.397 . S
C2786 C2787 1.334 . S
C2787 H2764 0.950 . S
C2787 C2786 1.334 . S
C2787 C2788 1.287 . S
C2788 C2787 1.287 . S
C2788 C2789 1.524 . S
C2788 H2807 0.913 . S
C2789 H2765 0.950 . S
C2789 C2788 1.524 . S
C2789 C2790 1.415 . S
C2790 H2766 0.950 . S
C2790 C2785 1.363 . S
C2790 C2789 1.415 . S
C2791 H2767 0.951 . S
C2791 C2792 1.366 . S
C2791 C2793 1.388 . S
C2792 C2791 1.366 . S
C2792 C2796 1.385 . S
C2793 H2768 0.951 . S
C2793 C2791 1.388 . S
C2793 C2794 1.366 . S
C2794 C2793 1.366 . S
C2794 C2795 1.414 . S
C2794 C2797 1.499 . S
C2795 H2769 0.950 . S
C2795 C2794 1.414 . S
C2795 C2796 1.374 . S
C2796 H2770 0.950 . S
C2796 C2792 1.385 . S
C2796 C2795 1.374 . S
C2797 C2794 1.499 . S
C2797 C2798 1.373 . S
C2797 C2799 1.389 . S
C2798 H2771 0.950 . S
C2798 C2784 1.377 1_565 S
C2798 C2797 1.373 . S
C2799 C2783 1.377 1_565 S
C2799 C2797 1.389 . S
C2799 C2800 1.524 . S
C2800 C2799 1.524 . S
C2800 C2801 1.397 . S
C2800 C2805 1.363 . S
C2801 H2772 0.950 . S
C2801 C2800 1.397 . S
C2801 C2802 1.334 . S
C2802 H2773 0.950 . S
C2802 C2801 1.334 . S
C2802 C2803 1.287 . S
C2803 C2802 1.287 . S
C2803 C2804 1.524 . S
C2803 H2806 0.999 . S
C2804 H2774 0.950 . S
C2804 C2803 1.524 . S
C2804 C2805 1.415 . S
C2805 H2775 0.950 . S
C2805 C2800 1.363 . S
C2805 C2804 1.415 . S
H2806 C2803 0.999 . S
H2807 C2788 0.913 . S
H2808 C2826 0.951 . S
H2809 C2828 0.951 . S
H2810 C2830 0.950 . S
H2811 C2831 0.950 . S
H2812 C2833 0.950 . S
H2813 C2836 0.950 . S
H2814 C2837 0.950 . S
H2815 C2839 0.950 . S
H2816 C2840 0.950 . S
H2817 C2841 0.951 . S
H2818 C2843 0.951 . S
H2819 C2845 0.950 . S
H2820 C2846 0.950 . S
H2821 C2848 0.950 . S
H2822 C2851 0.950 . S
H2823 C2852 0.950 . S
H2824 C2854 0.950 . S
H2825 C2855 0.950 . S
C2826 H2808 0.951 . S
C2826 C2827 1.366 . S
C2826 C2828 1.388 . S
C2827 C2826 1.366 . S
C2827 C2831 1.385 . S
C2828 H2809 0.951 . S
C2828 C2826 1.388 . S
C2828 C2829 1.366 . S
C2829 C2828 1.366 . S
C2829 C2830 1.414 . S
C2829 C2832 1.499 . S
C2830 H2810 0.950 . S
C2830 C2829 1.414 . S
C2830 C2831 1.374 . S
C2831 H2811 0.950 . S
C2831 C2827 1.385 . S
C2831 C2830 1.374 . S
C2832 C2829 1.499 . S
C2832 C2833 1.373 . S
C2832 C2834 1.389 . S
C2833 H2812 0.950 . S
C2833 C2832 1.373 . S
C2833 C2849 1.377 . S
C2834 C2832 1.389 . S
C2834 C2835 1.524 . S
C2834 C2848 1.377 . S
C2835 C2834 1.524 . S
C2835 C2836 1.397 . S
C2835 C2840 1.363 . S
C2836 H2813 0.950 . S
C2836 C2835 1.397 . S
C2836 C2837 1.334 . S
C2837 H2814 0.950 . S
C2837 C2836 1.334 . S
C2837 C2838 1.287 . S
C2838 C2837 1.287 . S
C2838 C2839 1.524 . S
C2838 H2857 0.913 . S
C2839 H2815 0.950 . S
C2839 C2838 1.524 . S
C2839 C2840 1.415 . S
C2840 H2816 0.950 . S
C2840 C2835 1.363 . S
C2840 C2839 1.415 . S
C2841 H2817 0.951 . S
C2841 C2842 1.366 . S
C2841 C2843 1.388 . S
C2842 C2841 1.366 . S
C2842 C2846 1.385 . S
C2843 H2818 0.951 . S
C2843 C2841 1.388 . S
C2843 C2844 1.366 . S
C2844 C2843 1.366 . S
C2844 C2845 1.414 . S
C2844 C2847 1.499 . S
C2845 H2819 0.950 . S
C2845 C2844 1.414 . S
C2845 C2846 1.374 . S
C2846 H2820 0.950 . S
C2846 C2842 1.385 . S
C2846 C2845 1.374 . S
C2847 C2844 1.499 . S
C2847 C2848 1.373 . S
C2847 C2849 1.389 . S
C2848 H2821 0.950 . S
C2848 C2834 1.377 . S
C2848 C2847 1.373 . S
C2849 C2833 1.377 . S
C2849 C2847 1.389 . S
C2849 C2850 1.524 . S
C2850 C2849 1.524 . S
C2850 C2851 1.397 . S
C2850 C2855 1.363 . S
C2851 H2822 0.950 . S
C2851 C2850 1.397 . S
C2851 C2852 1.334 . S
C2852 H2823 0.950 . S
C2852 C2851 1.334 . S
C2852 C2853 1.287 . S
C2853 C2852 1.287 . S
C2853 C2854 1.524 . S
C2853 H2856 0.999 . S
C2854 H2824 0.950 . S
C2854 C2853 1.524 . S
C2854 C2855 1.415 . S
C2855 H2825 0.950 . S
C2855 C2850 1.363 . S
C2855 C2854 1.415 . S
H2856 C2853 0.999 . S
H2857 C2838 0.913 . S
H2858 C2876 0.951 . S
H2859 C2878 0.951 . S
H2860 C2880 0.950 . S
H2861 C2881 0.950 . S
H2862 C2883 0.950 . S
H2863 C2886 0.950 . S
H2864 C2887 0.950 . S
H2865 C2889 0.950 . S
H2866 C2890 0.950 . S
H2867 C2891 0.951 . S
H2868 C2893 0.951 . S
H2869 C2895 0.950 . S
H2870 C2896 0.950 . S
H2871 C2898 0.950 . S
H2872 C2901 0.950 . S
H2873 C2902 0.950 . S
H2874 C2904 0.950 . S
H2875 C2905 0.950 . S
C2876 H2858 0.951 . S
C2876 C2877 1.366 . S
C2876 C2878 1.388 . S
C2877 C2876 1.366 . S
C2877 C2881 1.385 . S
C2878 H2859 0.951 . S
C2878 C2876 1.388 . S
C2878 C2879 1.366 . S
C2879 C2878 1.366 . S
C2879 C2880 1.414 . S
C2879 C2882 1.499 . S
C2880 H2860 0.950 . S
C2880 C2879 1.414 . S
C2880 C2881 1.374 . S
C2881 H2861 0.950 . S
C2881 C2877 1.385 . S
C2881 C2880 1.374 . S
C2882 C2879 1.499 . S
C2882 C2883 1.373 . S
C2882 C2884 1.389 . S
C2883 H2862 0.950 . S
C2883 C2882 1.373 . S
C2883 C2899 1.377 . S
C2884 C2882 1.389 . S
C2884 C2885 1.524 . S
C2884 C2898 1.377 . S
C2885 C2884 1.524 . S
C2885 C2886 1.397 . S
C2885 C2890 1.363 . S
C2886 H2863 0.950 . S
C2886 C2885 1.397 . S
C2886 C2887 1.334 . S
C2887 H2864 0.950 . S
C2887 C2886 1.334 . S
C2887 C2888 1.287 . S
C2888 C2887 1.287 . S
C2888 C2889 1.524 . S
C2888 H2907 0.913 . S
C2889 H2865 0.950 . S
C2889 C2888 1.524 . S
C2889 C2890 1.415 . S
C2890 H2866 0.950 . S
C2890 C2885 1.363 . S
C2890 C2889 1.415 . S
C2891 H2867 0.951 . S
C2891 C2892 1.366 . S
C2891 C2893 1.388 . S
C2892 C2891 1.366 . S
C2892 C2896 1.385 . S
C2893 H2868 0.951 . S
C2893 C2891 1.388 . S
C2893 C2894 1.366 . S
C2894 C2893 1.366 . S
C2894 C2895 1.414 . S
C2894 C2897 1.499 . S
C2895 H2869 0.950 . S
C2895 C2894 1.414 . S
C2895 C2896 1.374 . S
C2896 H2870 0.950 . S
C2896 C2892 1.385 . S
C2896 C2895 1.374 . S
C2897 C2894 1.499 . S
C2897 C2898 1.373 . S
C2897 C2899 1.389 . S
C2898 H2871 0.950 . S
C2898 C2884 1.377 . S
C2898 C2897 1.373 . S
C2899 C2883 1.377 . S
C2899 C2897 1.389 . S
C2899 C2900 1.524 . S
C2900 C2899 1.524 . S
C2900 C2901 1.397 . S
C2900 C2905 1.363 . S
C2901 H2872 0.950 . S
C2901 C2900 1.397 . S
C2901 C2902 1.334 . S
C2902 H2873 0.950 . S
C2902 C2901 1.334 . S
C2902 C2903 1.287 . S
C2903 C2902 1.287 . S
C2903 C2904 1.524 . S
C2903 H2906 0.999 . S
C2904 H2874 0.950 . S
C2904 C2903 1.524 . S
C2904 C2905 1.415 . S
C2905 H2875 0.950 . S
C2905 C2900 1.363 . S
C2905 C2904 1.415 . S
H2906 C2903 0.999 . S
H2907 C2888 0.913 . S
H2908 C2926 0.951 . S
H2909 C2928 0.951 . S
H2910 C2930 0.950 . S
H2911 C2931 0.950 . S
H2912 C2933 0.950 . S
H2913 C2936 0.950 . S
H2914 C2937 0.950 . S
H2915 C2939 0.950 . S
H2916 C2940 0.950 . S
H2917 C2941 0.951 . S
H2918 C2943 0.951 . S
H2919 C2945 0.950 . S
H2920 C2946 0.950 . S
H2921 C2948 0.950 . S
H2922 C2951 0.950 . S
H2923 C2952 0.950 . S
H2924 C2954 0.950 . S
H2925 C2955 0.950 . S
C2926 H2908 0.951 . S
C2926 C2927 1.366 . S
C2926 C2928 1.388 . S
C2927 C2926 1.366 . S
C2927 C2931 1.385 . S
C2928 H2909 0.951 . S
C2928 C2926 1.388 . S
C2928 C2929 1.366 . S
C2929 C2928 1.366 . S
C2929 C2930 1.414 . S
C2929 C2932 1.499 . S
C2930 H2910 0.950 . S
C2930 C2929 1.414 . S
C2930 C2931 1.374 . S
C2931 H2911 0.950 . S
C2931 C2927 1.385 . S
C2931 C2930 1.374 . S
C2932 C2929 1.499 . S
C2932 C2933 1.373 . S
C2932 C2934 1.389 1_545 S
C2933 H2912 0.950 . S
C2933 C2932 1.373 . S
C2933 C2949 1.406 . S
C2934 C2932 1.389 1_565 S
C2934 C2935 1.524 . S
C2934 C2948 1.377 . S
C2935 C2934 1.524 . S
C2935 C2936 1.397 1_565 S
C2935 C2940 1.363 . S
C2936 H2913 0.950 . S
C2936 C2935 1.397 1_545 S
C2936 C2937 1.334 . S
C2937 H2914 0.950 . S
C2937 C2936 1.334 . S
C2937 C2938 1.287 1_545 S
C2938 C2937 1.287 1_565 S
C2938 C2939 1.524 . S
C2938 H2957 0.913 . S
C2939 H2915 0.950 . S
C2939 C2938 1.524 . S
C2939 C2940 1.415 . S
C2940 H2916 0.950 . S
C2940 C2935 1.363 . S
C2940 C2939 1.415 . S
C2941 H2917 0.951 . S
C2941 C2942 1.366 . S
C2941 C2943 1.388 . S
C2942 C2941 1.366 . S
C2942 C2946 1.385 . S
C2943 H2918 0.951 . S
C2943 C2941 1.388 . S
C2943 C2944 1.366 . S
C2944 C2943 1.366 . S
C2944 C2945 1.414 . S
C2944 C2947 1.499 . S
C2945 H2919 0.950 . S
C2945 C2944 1.414 . S
C2945 C2946 1.374 . S
C2946 H2920 0.950 . S
C2946 C2942 1.385 . S
C2946 C2945 1.374 . S
C2947 C2944 1.499 . S
C2947 C2948 1.373 . S
C2947 C2949 1.358 1_565 S
C2948 H2921 0.950 . S
C2948 C2934 1.377 . S
C2948 C2947 1.373 . S
C2949 C2933 1.406 . S
C2949 C2947 1.358 1_545 S
C2949 C2950 1.528 . S
C2950 C2949 1.528 . S
C2950 C2951 1.397 1_545 S
C2950 C2955 1.363 . S
C2951 H2922 0.950 . S
C2951 C2950 1.397 1_565 S
C2951 C2952 1.334 . S
C2952 H2923 0.950 . S
C2952 C2951 1.334 . S
C2952 C2953 1.287 1_565 S
C2953 C2952 1.287 1_545 S
C2953 C2954 1.524 . S
C2953 H2956 0.999 . S
C2954 H2924 0.950 . S
C2954 C2953 1.524 . S
C2954 C2955 1.415 . S
C2955 H2925 0.950 . S
C2955 C2950 1.363 . S
C2955 C2954 1.415 . S
H2956 C2953 0.999 . S
H2957 C2938 0.913 . S
H2958 C2976 0.951 . S
H2959 C2978 0.951 . S
H2960 C2980 0.950 . S
H2961 C2981 0.950 . S
H2962 C2983 0.950 . S
H2963 C2986 0.950 . S
H2964 C2987 0.950 . S
H2965 C2989 0.950 . S
H2966 C2990 0.950 . S
H2967 C2991 0.951 . S
H2968 C2993 0.951 . S
H2969 C2995 0.950 . S
H2970 C2996 0.950 . S
H2971 C2998 0.950 . S
H2972 C3001 0.950 . S
H2973 C3002 0.950 . S
H2974 C3004 0.950 . S
H2975 C3005 0.950 . S
C2976 H2958 0.951 . S
C2976 C2977 1.366 . S
C2976 C2978 1.388 . S
C2977 C2976 1.366 . S
C2977 C2981 1.385 . S
C2978 H2959 0.951 . S
C2978 C2976 1.388 . S
C2978 C2979 1.366 . S
C2979 C2978 1.366 . S
C2979 C2980 1.414 . S
C2979 C2982 1.499 . S
C2980 H2960 0.950 . S
C2980 C2979 1.414 . S
C2980 C2981 1.374 . S
C2981 H2961 0.950 . S
C2981 C2977 1.385 . S
C2981 C2980 1.374 . S
C2982 C2979 1.499 . S
C2982 C2983 1.373 . S
C2982 C2984 1.389 . S
C2983 H2962 0.950 . S
C2983 C2982 1.373 . S
C2983 C2999 1.377 . S
C2984 C2982 1.389 . S
C2984 C2985 1.524 . S
C2984 C2998 1.377 . S
C2985 C2984 1.524 . S
C2985 C2986 1.397 . S
C2985 C2990 1.363 . S
C2986 H2963 0.950 . S
C2986 C2985 1.397 . S
C2986 C2987 1.334 . S
C2987 H2964 0.950 . S
C2987 C2986 1.334 . S
C2987 C2988 1.287 . S
C2988 C2987 1.287 . S
C2988 C2989 1.524 . S
C2988 H3007 0.913 . S
C2989 H2965 0.950 . S
C2989 C2988 1.524 . S
C2989 C2990 1.415 . S
C2990 H2966 0.950 . S
C2990 C2985 1.363 . S
C2990 C2989 1.415 . S
C2991 H2967 0.951 . S
C2991 C2992 1.366 . S
C2991 C2993 1.388 . S
C2992 C2991 1.366 . S
C2992 C2996 1.385 . S
C2993 H2968 0.951 . S
C2993 C2991 1.388 . S
C2993 C2994 1.366 . S
C2994 C2993 1.366 . S
C2994 C2995 1.414 . S
C2994 C2997 1.499 . S
C2995 H2969 0.950 . S
C2995 C2994 1.414 . S
C2995 C2996 1.374 . S
C2996 H2970 0.950 . S
C2996 C2992 1.385 . S
C2996 C2995 1.374 . S
C2997 C2994 1.499 . S
C2997 C2998 1.373 . S
C2997 C2999 1.389 . S
C2998 H2971 0.950 . S
C2998 C2984 1.377 . S
C2998 C2997 1.373 . S
C2999 C2983 1.377 . S
C2999 C2997 1.389 . S
C2999 C3000 1.524 . S
C3000 C2999 1.524 . S
C3000 C3001 1.397 . S
C3000 C3005 1.363 . S
C3001 H2972 0.950 . S
C3001 C3000 1.397 . S
C3001 C3002 1.334 . S
C3002 H2973 0.950 . S
C3002 C3001 1.334 . S
C3002 C3003 1.287 . S
C3003 C3002 1.287 . S
C3003 C3004 1.524 . S
C3003 H3006 0.999 . S
C3004 H2974 0.950 . S
C3004 C3003 1.524 . S
C3004 C3005 1.415 . S
C3005 H2975 0.950 . S
C3005 C3000 1.363 . S
C3005 C3004 1.415 . S
H3006 C3003 0.999 . S
H3007 C2988 0.913 . S
C1427 C29 0.495 . S
C1442 C1201 0.495 . S
C1477 C108 0.495 . S
C1492 C821 0.495 . S
C1527 C1252 0.478 . S
C1542 C225 0.478 . S
C1577 C321 0.478 . S
C1592 C1349 0.478 . S
C1627 C372 0.495 . S
C1642 C557 0.495 . S
C1677 C909 0.495 . S
C1692 C489 0.495 . S
C1727 C1017 0.478 . S
C1742 C636 0.478 . S
C1777 C733 0.478 . S
C1792 C1113 0.478 . S
C1827 C196 1.721 . S
C1842 C57 1.721 . S
C1877 C137 1.721 . S
C1892 C293 1.721 . S
C1927 C1076 1.731 . S
C1942 C49 1.731 . S
C1977 C145 1.731 . S
C1992 C997 1.731 . S
C2027 C409 1.731 . S
C2042 C205 1.731 . S
C2077 C929 1.731 . S
C2092 C284 1.731 . S
C2127 C117 1.727 . S
C2142 C20 1.727 . S
C2177 C313 1.683 . S
C2192 C233 1.683 . S
C2227 C900 1.727 . S
C2242 C381 1.728 . S
C2277 C645 1.711 . S
C2292 C469 1.712 . S
C2327 C577 1.712 . S
C2342 C724 1.711 . S
C2377 C1369 1.717 . S
C2392 C460 1.710 . S
C2427 C585 1.710 . S
C2442 C1289 1.717 . S
C2477 C849 1.709 . S
C2492 C673 1.717 . S
C2527 C753 1.717 . S
C2542 C1173 1.709 . S
C2577 C548 1.730 . S
C2592 C497 1.730 . S
C2627 C761 1.735 . S
C2642 C665 1.734 . S
C2677 C812 1.730 . S
C2692 C1193 1.730 . S
C2727 C937 1.721 . S
C2742 C988 1.721 . S
C2777 C1085 1.721 . S
C2792 C401 1.721 . S
C2827 C1105 1.683 . S
C2842 C1025 1.683 . S
C2877 C1261 1.712 . S
C2892 C1164 1.712 . S
C2927 C841 1.712 . S
C2942 C1340 1.711 . S
C2977 C1377 1.735 . S
C2992 C1281 1.734 . S
