# Generated by pormake.
# Topology why, (6)-cn, num edge types: 1
# Building blocks:
#     Node 0, Type 0, BuildingBlock: KUMJIN_clean_sbu_1, # of connection points: 6
#     Node 1, Type 0, BuildingBlock: KUMJIN_clean_sbu_1, # of connection points: 6
#     Node 2, Type 0, BuildingBlock: KUMJIN_clean_sbu_1, # of connection points: 6
#     Node 3, Type 0, BuildingBlock: KUMJIN_clean_sbu_1, # of connection points: 6
#     Node 4, Type 0, BuildingBlock: KUMJIN_clean_sbu_1, # of connection points: 6
#     Node 5, Type 0, BuildingBlock: KUMJIN_clean_sbu_1, # of connection points: 6
#     Node 6, Type 0, BuildingBlock: KUMJIN_clean_sbu_1, # of connection points: 6
#     Node 7, Type 0, BuildingBlock: KUMJIN_clean_sbu_1, # of connection points: 6
#     Node 8, Type 0, BuildingBlock: KUMJIN_clean_sbu_1, # of connection points: 6
#     Node 9, Type 0, BuildingBlock: KUMJIN_clean_sbu_1, # of connection points: 6
#     Node 10, Type 0, BuildingBlock: KUMJIN_clean_sbu_1, # of connection points: 6
#     Node 11, Type 0, BuildingBlock: KUMJIN_clean_sbu_1, # of connection points: 6
#     Node 12, Type 0, BuildingBlock: KUMJIN_clean_sbu_1, # of connection points: 6
#     Node 13, Type 0, BuildingBlock: KUMJIN_clean_sbu_1, # of connection points: 6
#     Node 14, Type 0, BuildingBlock: KUMJIN_clean_sbu_1, # of connection points: 6
#     Node 15, Type 0, BuildingBlock: KUMJIN_clean_sbu_1, # of connection points: 6
#     Edge 16, Type (0, 0), BuildingBlock: XIVTED_clean_linker_0, # of connection points: 2
#     Edge 17, Type (0, 0), BuildingBlock: XIVTED_clean_linker_0, # of connection points: 2
#     Edge 18, Type (0, 0), BuildingBlock: XIVTED_clean_linker_0, # of connection points: 2
#     Edge 19, Type (0, 0), BuildingBlock: XIVTED_clean_linker_0, # of connection points: 2
#     Edge 20, Type (0, 0), BuildingBlock: XIVTED_clean_linker_0, # of connection points: 2
#     Edge 21, Type (0, 0), BuildingBlock: XIVTED_clean_linker_0, # of connection points: 2
#     Edge 22, Type (0, 0), BuildingBlock: XIVTED_clean_linker_0, # of connection points: 2
#     Edge 23, Type (0, 0), BuildingBlock: XIVTED_clean_linker_0, # of connection points: 2
#     Edge 24, Type (0, 0), BuildingBlock: XIVTED_clean_linker_0, # of connection points: 2
#     Edge 25, Type (0, 0), BuildingBlock: XIVTED_clean_linker_0, # of connection points: 2
#     Edge 26, Type (0, 0), BuildingBlock: XIVTED_clean_linker_0, # of connection points: 2
#     Edge 27, Type (0, 0), BuildingBlock: XIVTED_clean_linker_0, # of connection points: 2
#     Edge 28, Type (0, 0), BuildingBlock: XIVTED_clean_linker_0, # of connection points: 2
#     Edge 29, Type (0, 0), BuildingBlock: XIVTED_clean_linker_0, # of connection points: 2
#     Edge 30, Type (0, 0), BuildingBlock: XIVTED_clean_linker_0, # of connection points: 2
#     Edge 31, Type (0, 0), BuildingBlock: XIVTED_clean_linker_0, # of connection points: 2
#     Edge 32, Type (0, 0), BuildingBlock: XIVTED_clean_linker_0, # of connection points: 2
#     Edge 33, Type (0, 0), BuildingBlock: XIVTED_clean_linker_0, # of connection points: 2
#     Edge 34, Type (0, 0), BuildingBlock: XIVTED_clean_linker_0, # of connection points: 2
#     Edge 35, Type (0, 0), BuildingBlock: XIVTED_clean_linker_0, # of connection points: 2
#     Edge 36, Type (0, 0), BuildingBlock: XIVTED_clean_linker_0, # of connection points: 2
#     Edge 37, Type (0, 0), BuildingBlock: XIVTED_clean_linker_0, # of connection points: 2
#     Edge 38, Type (0, 0), BuildingBlock: XIVTED_clean_linker_0, # of connection points: 2
#     Edge 39, Type (0, 0), BuildingBlock: XIVTED_clean_linker_0, # of connection points: 2
#     Edge 40, Type (0, 0), BuildingBlock: XIVTED_clean_linker_0, # of connection points: 2
#     Edge 41, Type (0, 0), BuildingBlock: XIVTED_clean_linker_0, # of connection points: 2
#     Edge 42, Type (0, 0), BuildingBlock: XIVTED_clean_linker_0, # of connection points: 2
#     Edge 43, Type (0, 0), BuildingBlock: XIVTED_clean_linker_0, # of connection points: 2
#     Edge 44, Type (0, 0), BuildingBlock: XIVTED_clean_linker_0, # of connection points: 2
#     Edge 45, Type (0, 0), BuildingBlock: XIVTED_clean_linker_0, # of connection points: 2
#     Edge 46, Type (0, 0), BuildingBlock: XIVTED_clean_linker_0, # of connection points: 2
#     Edge 47, Type (0, 0), BuildingBlock: XIVTED_clean_linker_0, # of connection points: 2
#     Edge 48, Type (0, 0), BuildingBlock: XIVTED_clean_linker_0, # of connection points: 2
#     Edge 49, Type (0, 0), BuildingBlock: XIVTED_clean_linker_0, # of connection points: 2
#     Edge 50, Type (0, 0), BuildingBlock: XIVTED_clean_linker_0, # of connection points: 2
#     Edge 51, Type (0, 0), BuildingBlock: XIVTED_clean_linker_0, # of connection points: 2
#     Edge 52, Type (0, 0), BuildingBlock: XIVTED_clean_linker_0, # of connection points: 2
#     Edge 53, Type (0, 0), BuildingBlock: XIVTED_clean_linker_0, # of connection points: 2
#     Edge 54, Type (0, 0), BuildingBlock: XIVTED_clean_linker_0, # of connection points: 2
#     Edge 55, Type (0, 0), BuildingBlock: XIVTED_clean_linker_0, # of connection points: 2
#     Edge 56, Type (0, 0), BuildingBlock: XIVTED_clean_linker_0, # of connection points: 2
#     Edge 57, Type (0, 0), BuildingBlock: XIVTED_clean_linker_0, # of connection points: 2
#     Edge 58, Type (0, 0), BuildingBlock: XIVTED_clean_linker_0, # of connection points: 2
#     Edge 59, Type (0, 0), BuildingBlock: XIVTED_clean_linker_0, # of connection points: 2
#     Edge 60, Type (0, 0), BuildingBlock: XIVTED_clean_linker_0, # of connection points: 2
#     Edge 61, Type (0, 0), BuildingBlock: XIVTED_clean_linker_0, # of connection points: 2
#     Edge 62, Type (0, 0), BuildingBlock: XIVTED_clean_linker_0, # of connection points: 2
#     Edge 63, Type (0, 0), BuildingBlock: XIVTED_clean_linker_0, # of connection points: 2
# Relax obj value: 0.281
# Max RMSD: 0.219
# Mean RMSD: 0.217
data_MOF--net-why--node1-KUMJIN_clean_sbu_1--edge1-XIVTED_clean_linker_0
_symmetry_space_group_name_H-M    P1
_symmetry_Int_Tables_number       1
_symmetry_cell_setting            triclinic
loop_
_symmetry_equiv_pos_as_xyz
'x, y, z'
_cell_length_a     48.612228
_cell_length_b     48.996841
_cell_length_c     41.815076
_cell_angle_alpha  89.787704
_cell_angle_beta   89.604928
_cell_angle_gamma 89.985581
loop_
_atom_site_label
_atom_site_type_symbol
_atom_site_fract_x
_atom_site_fract_y
_atom_site_fract_z
_atom_type_partial_charge
Eu0 Eu 0.41574 0.19906 0.09385 0.0
C1 C 0.44366 0.12272 0.96834 0.0
N2 N 0.43493 0.12239 0.9992 0.0
C3 C 0.4095 0.08121 0.9893 0.0
C4 C 0.43544 0.10238 0.94656 0.0
C5 C 0.41839 0.10168 1.01001 0.0
C6 C 0.41794 0.08162 0.95737 0.0
C7 C 0.47226 0.14337 0.9273 0.0
C8 C 0.46167 0.14292 0.95885 0.0
C9 C 0.46373 0.12355 0.90533 0.0
C10 C 0.44531 0.10311 0.91493 0.0
Eu11 Eu 0.44976 0.1585 0.03301 0.0
N12 N 0.46972 0.16149 0.98083 0.0
C13 C 0.49148 0.16341 0.91892 0.0
C14 C 0.48911 0.18064 0.97287 0.0
C15 C 0.5 0.18206 0.94188 0.0
H16 H 0.41144 0.10098 0.0345 0.0
H17 H 0.51518 0.19742 0.93582 0.0
H18 H 0.36367 0.2386 0.07058 0.0
H19 H 0.48896 0.21658 0.19065 0.0
H20 H 0.49672 0.19482 0.99025 0.0
H21 H 0.50018 0.16439 0.89501 0.0
H22 H 0.46321 0.18915 0.15148 0.0
H23 H 0.39614 0.06511 0.99801 0.0
H24 H 0.47155 0.12365 0.88099 0.0
H25 H 0.43914 0.08773 0.89786 0.0
H26 H 0.34857 0.28664 0.07587 0.0
H27 H 0.41112 0.06566 0.9414 0.0
H28 H 0.48051 0.26624 0.19483 0.0
N29 N 0.39922 0.24403 0.09907 0.0
C30 C 0.41361 0.26091 0.11843 0.0
C31 C 0.36702 0.27973 0.08778 0.0
C32 C 0.40563 0.28835 0.12249 0.0
C33 C 0.37563 0.25262 0.08474 0.0
C34 C 0.3823 0.29779 0.10637 0.0
N35 N 0.44096 0.22311 0.13309 0.0
C36 C 0.45928 0.21078 0.1532 0.0
C37 C 0.4492 0.26651 0.15824 0.0
C38 C 0.43507 0.25011 0.13612 0.0
C39 C 0.46919 0.25433 0.17756 0.0
C40 C 0.47396 0.22628 0.17533 0.0
H41 H 0.37548 0.31873 0.10888 0.0
H42 H 0.41488 0.32635 0.14652 0.0
H43 H 0.45308 0.30723 0.17779 0.0
O44 O 0.39173 0.20614 0.13697 0.0
O45 O 0.46121 0.21523 0.08873 0.0
O46 O 0.47398 0.2007 0.039 0.0
O47 O 0.38275 0.17071 0.10797 0.0
O48 O 0.43721 0.15975 0.11379 0.0
O49 O 0.42681 0.13302 0.0727 0.0
O50 O 0.48065 0.12674 0.03135 0.0
O51 O 0.40284 0.15639 0.02137 0.0
O52 O 0.38478 0.19206 0.05049 0.0
O53 O 0.48145 0.15634 0.07012 0.0
O54 O 0.44117 0.19946 1.0103 0.0
O55 O 0.41153 0.22089 0.04584 0.0
C56 C 0.47801 0.21755 0.06368 0.0
C57 C 0.3455 0.19346 0.13505 0.0
C58 C 0.30966 0.21703 0.16596 0.0
C59 C 0.29131 0.2129 0.14054 0.0
C60 C 0.32688 0.1897 0.10996 0.0
C61 C 0.29987 0.1992 0.1129 0.0
C62 C 0.33662 0.2067 0.16307 0.0
C63 C 0.43192 0.13481 0.10364 0.0
C64 C 0.37486 0.18607 0.13194 0.0
C65 C 0.42053 0.30513 0.14332 0.0
C66 C 0.44228 0.29424 0.16114 0.0
C67 C 0.38227 0.17363 0.02698 0.0
C68 C 0.52391 0.1448 0.04469 0.0
C69 C 0.55783 0.15208 1.00195 0.0
C70 C 0.57512 0.16511 0.02392 0.0
C71 C 0.54159 0.15757 0.06638 0.0
C72 C 0.53271 0.14136 1.01277 0.0
C73 C 0.56719 0.16741 0.05604 0.0
C74 C 0.4241 0.2193 0.01779 0.0
C75 C 0.49528 0.13785 0.05396 0.0
H76 H 0.27053 0.2208 0.1416 0.0
H77 H 0.33324 0.17988 0.08796 0.0
H78 H 0.28563 0.19641 0.09339 0.0
H79 H 0.35103 0.20929 0.18248 0.0
H80 H 0.59464 0.17362 0.0162 0.0
H81 H 0.53532 0.16057 0.09103 0.0
H82 H 0.51926 0.13182 0.99555 0.0
H83 H 0.58061 0.17752 0.07281 0.0
Eu84 Eu 0.65338 0.65077 0.34078 0.0
C85 C 0.73494 0.67038 0.2267 0.0
N86 N 0.73238 0.6669 0.25899 0.0
C87 C 0.7719 0.63747 0.25891 0.0
C88 C 0.75616 0.65736 0.20936 0.0
C89 C 0.75052 0.65067 0.27518 0.0
C90 C 0.77477 0.64084 0.22591 0.0
C91 C 0.71801 0.69072 0.17747 0.0
C92 C 0.71592 0.68668 0.2108 0.0
C93 C 0.73912 0.67774 0.16021 0.0
C94 C 0.75811 0.66109 0.17609 0.0
Eu95 Eu 0.69492 0.69036 0.28343 0.0
N96 N 0.6958 0.69919 0.22807 0.0
C97 C 0.69896 0.70793 0.16251 0.0
C98 C 0.67735 0.71619 0.21375 0.0
C99 C 0.67862 0.72081 0.18077 0.0
H100 H 0.74824 0.64704 0.30045 0.0
H101 H 0.66407 0.73446 0.16951 0.0
H102 H 0.58918 0.62827 0.33248 0.0
H103 H 0.68933 0.74173 0.40603 0.0
H104 H 0.66205 0.72666 0.22802 0.0
H105 H 0.69996 0.71163 0.13697 0.0
H106 H 0.69139 0.70731 0.36393 0.0
H107 H 0.78606 0.62451 0.27184 0.0
H108 H 0.74101 0.68054 0.13457 0.0
H109 H 0.77428 0.65122 0.16242 0.0
H110 H 0.5443 0.63282 0.36066 0.0
H111 H 0.79132 0.63046 0.21342 0.0
H112 H 0.64862 0.74439 0.44154 0.0
N113 N 0.6093 0.65653 0.36261 0.0
C114 C 0.60738 0.67437 0.38745 0.0
C115 C 0.56187 0.6446 0.36837 0.0
C116 C 0.58226 0.67773 0.40397 0.0
C117 C 0.58711 0.64211 0.35243 0.0
C118 C 0.55948 0.66231 0.39441 0.0
N119 N 0.65386 0.68809 0.37709 0.0
C120 C 0.67426 0.70699 0.38002 0.0
C121 C 0.62781 0.71062 0.41888 0.0
C122 C 0.63027 0.69043 0.39503 0.0
C123 C 0.64977 0.72856 0.42355 0.0
C124 C 0.67281 0.72709 0.40359 0.0
H125 H 0.53985 0.66427 0.4066 0.0
H126 H 0.56137 0.69948 0.44205 0.0
H127 H 0.60105 0.72838 0.45489 0.0
O128 O 0.65486 0.60623 0.34373 0.0
O129 O 0.62707 0.69045 0.32853 0.0
O130 O 0.65384 0.71581 0.29367 0.0
O131 O 0.64029 0.6284 0.38416 0.0
O132 O 0.69765 0.65295 0.36244 0.0
O133 O 0.72231 0.68059 0.32857 0.0
O134 O 0.72099 0.72237 0.26337 0.0
O135 O 0.69355 0.64547 0.26348 0.0
O136 O 0.66393 0.62209 0.29674 0.0
O137 O 0.7029 0.72769 0.31041 0.0
O138 O 0.6525 0.68334 0.26306 0.0
O139 O 0.63096 0.64977 0.29354 0.0
C140 C 0.63099 0.71345 0.31173 0.0
C141 C 0.61912 0.58576 0.37443 0.0
C142 C 0.58444 0.56315 0.40798 0.0
C143 C 0.5739 0.55039 0.38059 0.0
C144 C 0.60823 0.57265 0.34745 0.0
C145 C 0.58574 0.55516 0.3506 0.0
C146 C 0.6071 0.58091 0.40462 0.0
C147 C 0.72088 0.6659 0.35541 0.0
C148 C 0.6428 0.60459 0.37138 0.0
C149 C 0.58046 0.69676 0.4289 0.0
C150 C 0.60312 0.71316 0.43629 0.0
C151 C 0.67963 0.62279 0.27036 0.0
C152 C 0.70508 0.76668 0.27626 0.0
C153 C 0.69064 0.79825 0.23396 0.0
C154 C 0.68113 0.81638 0.25759 0.0
C155 C 0.69553 0.78519 0.29934 0.0
C156 C 0.70332 0.7738 0.24361 0.0
C157 C 0.68382 0.80996 0.28999 0.0
C158 C 0.6328 0.66529 0.26782 0.0
C159 C 0.71544 0.7395 0.28622 0.0
H160 H 0.55625 0.53697 0.38228 0.0
H161 H 0.6169 0.57606 0.32384 0.0
H162 H 0.57738 0.54531 0.32968 0.0
H163 H 0.61562 0.59073 0.42552 0.0
H164 H 0.6717 0.83562 0.25105 0.0
H165 H 0.69681 0.78036 0.32459 0.0
H166 H 0.71093 0.7599 0.22557 0.0
H167 H 0.67642 0.82409 0.30794 0.0
Eu168 Eu 0.15922 0.93257 0.53615 0.0
C169 C 0.24759 0.84391 0.59826 0.0
N170 N 0.21989 0.84493 0.59494 0.0
C171 C 0.217 0.79634 0.60064 0.0
C172 C 0.26125 0.81877 0.60247 0.0
C173 C 0.2044 0.82176 0.59655 0.0
C174 C 0.24558 0.7948 0.60342 0.0
C175 C 0.2909 0.86797 0.60303 0.0
C176 C 0.26215 0.86819 0.59874 0.0
C177 C 0.30474 0.84296 0.6064 0.0
C178 C 0.28994 0.81842 0.60619 0.0
Eu179 Eu 0.19994 0.88833 0.58805 0.0
N180 N 0.24809 0.89203 0.59593 0.0
C181 C 0.30485 0.89292 0.60426 0.0
C182 C 0.26155 0.91647 0.5977 0.0
C183 C 0.29008 0.91726 0.60168 0.0
H184 H 0.18229 0.82284 0.59479 0.0
H185 H 0.30067 0.93667 0.60268 0.0
H186 H 0.22283 0.96522 0.53972 0.0
H187 H 0.06056 0.96683 0.58289 0.0
H188 H 0.25055 0.93546 0.5952 0.0
H189 H 0.32694 0.89363 0.60746 0.0
H190 H 0.09428 0.93324 0.56215 0.0
H191 H 0.20467 0.77797 0.60181 0.0
H192 H 0.32683 0.84239 0.60963 0.0
H193 H 0.30083 0.7993 0.60931 0.0
H194 H 0.2399 1.01108 0.54967 0.0
H195 H 0.25529 0.77509 0.60675 0.0
H196 H 0.07463 1.01478 0.59115 0.0
N197 N 0.18055 0.97524 0.54767 0.0
C198 C 0.16258 0.99513 0.55728 0.0
C199 C 0.21808 1.00692 0.55155 0.0
C200 C 0.17193 1.02179 0.56397 0.0
C201 C 0.20808 0.98075 0.54542 0.0
C202 C 0.19995 1.02759 0.56053 0.0
N203 N 0.12678 0.96207 0.55908 0.0
C204 C 0.10051 0.95415 0.5659 0.0
C205 C 0.11651 1.00811 0.57494 0.0
C206 C 0.13502 0.98839 0.56297 0.0
C207 C 0.08943 1.0002 0.58193 0.0
C208 C 0.08143 0.9731 0.57746 0.0
H209 H 0.2079 0.04777 0.56558 0.0
H210 H 0.16019 0.06217 0.58006 0.0
H211 H 0.11175 0.05024 0.58947 0.0
O212 O 0.1234 0.93194 0.50476 0.0
O213 O 0.15684 0.94235 0.59114 0.0
O214 O 0.20125 0.93533 0.5996 0.0
O215 O 0.15744 0.95851 0.49367 0.0
O216 O 0.13038 0.89491 0.54913 0.0
O217 O 0.15788 0.8652 0.57786 0.0
O218 O 0.20892 0.87856 0.63743 0.0
O219 O 0.191 0.86201 0.54487 0.0
O220 O 0.17175 0.89407 0.51115 0.0
O221 O 0.16823 0.89397 0.62489 0.0
O222 O 0.22936 0.90029 0.54554 0.0
O223 O 0.20369 0.92821 0.51257 0.0
C224 C 0.17889 0.94924 0.60759 0.0
C225 C 0.13676 0.93535 0.45103 0.0
C226 C 0.11416 0.92189 0.40184 0.0
C227 C 0.13794 0.90762 0.39246 0.0
C228 C 0.16059 0.92134 0.44109 0.0
C229 C 0.1611 0.90756 0.41196 0.0
C230 C 0.11372 0.93579 0.43118 0.0
C231 C 0.1337 0.87083 0.56404 0.0
C232 C 0.13504 0.94731 0.48318 0.0
C233 C 0.1533 0.04162 0.57496 0.0
C234 C 0.1257 1.03482 0.58037 0.0
C235 C 0.18165 0.86971 0.51685 0.0
C236 C 0.17122 0.86114 0.66731 0.0
C237 C 0.17666 0.82139 0.7023 0.0
C238 C 0.14827 0.82165 0.70858 0.0
C239 C 0.14282 0.86095 0.67375 0.0
C240 C 0.18796 0.84107 0.68157 0.0
C241 C 0.13145 0.84122 0.69413 0.0
C242 C 0.22724 0.91498 0.5188 0.0
C243 C 0.18364 0.8828 0.64708 0.0
H244 H 0.13865 0.89674 0.36996 0.0
H245 H 0.17866 0.92065 0.45601 0.0
H246 H 0.17939 0.89656 0.40464 0.0
H247 H 0.09518 0.94619 0.43901 0.0
H248 H 0.13912 0.80668 0.72453 0.0
H249 H 0.12943 0.87618 0.66327 0.0
H250 H 0.20999 0.84112 0.67731 0.0
H251 H 0.10955 0.84125 0.69901 0.0
Eu252 Eu 0.96072 0.431 0.83389 0.0
C253 C 0.88458 0.40309 0.71661 0.0
N254 N 0.88239 0.40959 0.74816 0.0
C255 C 0.84314 0.4377 0.7372 0.0
C256 C 0.86637 0.41426 0.69397 0.0
C257 C 0.86151 0.42595 0.75886 0.0
C258 C 0.84574 0.43206 0.7046 0.0
C259 C 0.90609 0.37576 0.67506 0.0
C260 C 0.90436 0.38423 0.70721 0.0
C261 C 0.88865 0.38759 0.65225 0.0
C262 C 0.86888 0.40684 0.66166 0.0
Eu263 Eu 0.91575 0.38987 0.78229 0.0
N264 N 0.92069 0.37285 0.72986 0.0
C265 C 0.92471 0.35502 0.66701 0.0
C266 C 0.93802 0.35185 0.72245 0.0
C267 C 0.94048 0.34278 0.6909 0.0
H268 H 0.8595 0.43067 0.78394 0.0
H269 H 0.95444 0.3263 0.68505 0.0
H270 H 1.02696 0.44459 0.81877 0.0
H271 H 0.91914 0.34409 0.90373 0.0
H272 H 0.95008 0.3422 0.74095 0.0
H273 H 0.92655 0.34785 0.64261 0.0
H274 H 0.91877 0.37796 0.86074 0.0
H275 H 0.82699 0.45111 0.74567 0.0
H276 H 0.88985 0.38153 0.62738 0.0
H277 H 0.8552 0.41537 0.64389 0.0
H278 H 0.07199 0.43685 0.84483 0.0
H279 H 0.83138 0.44111 0.68793 0.0
H280 H 0.96037 0.33868 0.93737 0.0
N281 N 1.00494 0.42029 0.85234 0.0
C282 C 1.00593 0.40368 0.87842 0.0
C283 C 0.05359 0.42741 0.85448 0.0
C284 C 1.03112 0.3985 0.89379 0.0
C285 C 1.02821 0.43167 0.83973 0.0
C286 C 0.055 0.41106 0.88187 0.0
N287 N 0.95855 0.39353 0.87048 0.0
C288 C 0.93658 0.37667 0.87542 0.0
C289 C 0.98341 0.37003 0.91229 0.0
C290 C 0.98212 0.38972 0.8876 0.0
C291 C 0.96017 0.35407 0.91869 0.0
C292 C 0.93687 0.35705 0.89975 0.0
H293 H 0.07472 0.40767 0.89313 0.0
H294 H 0.051 0.37625 0.93207 0.0
H295 H 1.00932 0.35123 0.94816 0.0
O296 O 0.98044 0.47087 0.83325 0.0
O297 O 0.98709 0.39247 0.81877 0.0
O298 O 0.95476 0.36295 0.79863 0.0
O299 O 0.96485 0.45544 0.87772 0.0
O300 O 0.91734 0.43009 0.85918 0.0
O301 O 0.88884 0.4083 0.82395 0.0
O302 O 0.88391 0.36128 0.76799 0.0
O303 O 0.91721 0.43444 0.76032 0.0
O304 O 0.94013 0.46111 0.79658 0.0
O305 O 0.90523 0.35473 0.81254 0.0
O306 O 0.9581 0.39346 0.76098 0.0
O307 O 0.97479 0.43344 0.78188 0.0
C308 C 0.98032 0.36723 0.80987 0.0
C309 C 1.00553 0.48289 0.87918 0.0
C310 C 1.03571 0.48557 0.92557 0.0
C311 C 0.05619 0.49743 0.90611 0.0
C312 C 1.02608 0.49569 0.86055 0.0
C313 C 0.0513 0.50254 0.87388 0.0
C314 C 1.01035 0.47826 0.91194 0.0
C315 C 0.89239 0.4211 0.85163 0.0
C316 C 0.97949 0.47434 0.86393 0.0
C317 C 1.0319 0.38025 0.9197 0.0
C318 C 1.00813 0.36602 0.92888 0.0
C319 C 0.92666 0.45885 0.76895 0.0
C320 C 0.89504 0.31568 0.781 0.0
C321 C 0.90138 0.28201 0.73848 0.0
C322 C 0.91167 0.26346 0.76114 0.0
C323 C 0.90505 0.29668 0.80329 0.0
C324 C 0.89247 0.30781 0.74873 0.0
C325 C 0.91315 0.27068 0.79338 0.0
C326 C 0.97358 0.41524 0.75887 0.0
C327 C 0.88916 0.3441 0.79092 0.0
H328 H 0.07573 0.50359 0.91606 0.0
H329 H 1.02287 0.5 0.83543 0.0
H330 H 0.06705 0.51207 0.85922 0.0
H331 H 0.99456 0.46892 0.92677 0.0
H332 H 0.91853 0.24336 0.75392 0.0
H333 H 0.90709 0.3021 0.82826 0.0
H334 H 0.88483 0.32219 0.73114 0.0
H335 H 0.92107 0.25623 0.81066 0.0
Eu336 Eu 0.62974 0.92886 0.99627 0.0
C337 C 0.66402 0.82252 0.91779 0.0
N338 N 0.67872 0.8391 0.93727 0.0
C339 C 0.70751 0.80162 0.95251 0.0
C340 C 0.67015 0.79446 0.91557 0.0
C341 C 0.70085 0.82936 0.95364 0.0
C342 C 0.69189 0.78401 0.9337 0.0
C343 C 0.62982 0.81778 0.87612 0.0
C344 C 0.64411 0.83404 0.89826 0.0
C345 C 0.63498 0.7896 0.8749 0.0
C346 C 0.6551 0.77796 0.89457 0.0
Eu347 Eu 0.66555 0.88541 0.9387 0.0
N348 N 0.63974 0.86145 0.89981 0.0
C349 C 0.61139 0.83046 0.85521 0.0
C350 C 0.62289 0.87411 0.87826 0.0
C351 C 0.60819 0.85877 0.85602 0.0
H352 H 0.71328 0.84305 0.96771 0.0
H353 H 0.59438 0.8688 0.83952 0.0
H354 H 0.66878 0.98591 0.99408 0.0
H355 H 0.56315 0.89242 0.09365 0.0
H356 H 0.62018 0.89596 0.87875 0.0
H357 H 0.60003 0.81866 0.83786 0.0
H358 H 0.58104 0.89484 0.03885 0.0
H359 H 0.72481 0.79386 0.96594 0.0
H360 H 0.62404 0.77673 0.85824 0.0
H361 H 0.65937 0.75632 0.89273 0.0
H362 H 0.68573 1.02107 0.03061 0.0
H363 H 0.69726 0.76257 0.93264 0.0
H364 H 0.5803 0.92416 0.13471 0.0
N365 N 0.64575 0.96461 0.02985 0.0
C366 C 0.6375 0.96427 0.06089 0.0
C367 C 0.67221 1.00518 0.0395 0.0
C368 C 0.64667 0.98418 0.08269 0.0
C369 C 0.66241 0.98513 0.01877 0.0
C370 C 0.6645 1.00459 0.07167 0.0
N371 N 0.60975 0.92666 0.04844 0.0
C372 C 0.58949 0.90842 0.05639 0.0
C373 C 0.6087 0.94432 0.10222 0.0
C374 C 0.61889 0.94464 0.07051 0.0
C375 C 0.58871 0.92503 0.11066 0.0
C376 C 0.57896 0.90712 0.08756 0.0
H377 H 0.67203 1.02022 0.08765 0.0
H378 H 0.64423 0.99848 0.13163 0.0
H379 H 0.61085 0.96353 0.14875 0.0
O380 O 0.5997 0.96138 0.99854 0.0
O381 O 0.67616 0.92995 1.01083 0.0
O382 O 0.69545 0.89419 0.98277 0.0
O383 O 0.59843 0.93271 0.95888 0.0
O384 O 0.63461 0.88715 0.01838 0.0
O385 O 0.66888 0.86636 0.98864 0.0
O386 O 0.70078 0.91042 0.92277 0.0
O387 O 0.61988 0.86974 0.94282 0.0
O388 O 0.60437 0.88725 0.99021 0.0
O389 O 0.68956 0.87409 0.89685 0.0
O390 O 0.64571 0.92471 0.91596 0.0
O391 O 0.65365 0.95316 0.9563 0.0
C392 C 0.69711 0.91294 1.00613 0.0
C393 C 0.55606 0.94499 0.98411 0.0
C394 C 0.5217 0.93706 0.02625 0.0
C395 C 0.504 0.92578 1.00339 0.0
C396 C 0.53801 0.93391 0.96159 0.0
C397 C 0.51199 0.92467 0.97119 0.0
C398 C 0.54721 0.9474 0.01615 0.0
C399 C 0.65318 0.86797 1.01445 0.0
C400 C 0.58498 0.95125 0.97541 0.0
C401 C 0.63731 0.98346 0.11453 0.0
C402 C 0.61832 0.96357 0.12427 0.0
C403 C 0.6016 0.86909 0.96653 0.0
C404 C 0.73639 0.88381 0.89725 0.0
C405 C 0.77084 0.8583 0.86614 0.0
C406 C 0.78879 0.85994 0.89236 0.0
C407 C 0.75461 0.88503 0.92305 0.0
C408 C 0.74475 0.87074 0.86884 0.0
C409 C 0.78075 0.87332 0.92042 0.0
C410 C 0.64995 0.95012 0.92523 0.0
C411 C 0.70762 0.89329 0.90008 0.0
H412 H 0.48413 0.91769 1.01046 0.0
H413 H 0.54429 0.93179 0.93681 0.0
H414 H 0.49825 0.9159 0.95375 0.0
H415 H 0.56089 0.95577 0.03392 0.0
H416 H 0.80884 0.85033 0.89157 0.0
H417 H 0.74852 0.8945 0.94537 0.0
H418 H 0.73058 0.86997 0.84897 0.0
H419 H 0.79466 0.87413 0.9405 0.0
Eu420 Eu 0.38386 0.39635 0.73927 0.0
C421 C 0.47746 0.41769 0.64315 0.0
N422 N 0.47231 0.43437 0.66844 0.0
C423 C 0.51882 0.45017 0.66789 0.0
C424 C 0.50381 0.41698 0.62893 0.0
C425 C 0.49244 0.45005 0.68141 0.0
C426 C 0.52447 0.43376 0.64136 0.0
C427 C 0.46235 0.38134 0.6081 0.0
C428 C 0.4566 0.40032 0.63258 0.0
C429 C 0.48826 0.38143 0.59298 0.0
C430 C 0.50889 0.39922 0.60332 0.0
Eu431 Eu 0.4266 0.43608 0.68618 0.0
N432 N 0.43174 0.40025 0.64816 0.0
C433 C 0.44236 0.36195 0.60051 0.0
C434 C 0.41345 0.37965 0.6428 0.0
C435 C 0.41813 0.36069 0.61847 0.0
H436 H 0.48785 0.46292 0.70171 0.0
H437 H 0.40328 0.34469 0.61408 0.0
H438 H 0.35937 0.45528 0.70216 0.0
H439 H 0.37697 0.37779 0.86763 0.0
H440 H 0.3959 0.37673 0.65798 0.0
H441 H 0.44604 0.34697 0.58196 0.0
H442 H 0.39962 0.37772 0.81441 0.0
H443 H 0.53472 0.46299 0.67783 0.0
H444 H 0.49283 0.36719 0.5739 0.0
H445 H 0.52895 0.39854 0.5919 0.0
H446 H 0.31836 0.48422 0.70645 0.0
H447 H 0.54496 0.43384 0.631 0.0
H448 H 0.33219 0.40106 0.87496 0.0
N449 N 0.34966 0.43119 0.74308 0.0
C450 C 0.3343 0.43011 0.77049 0.0
C451 C 0.32219 0.46859 0.72424 0.0
C452 C 0.31127 0.44727 0.77485 0.0
C453 C 0.34503 0.45142 0.72122 0.0
C454 C 0.30475 0.46596 0.75071 0.0
N455 N 0.3678 0.40054 0.79222 0.0
C456 C 0.38027 0.3883 0.81763 0.0
C457 C 0.33022 0.41502 0.8258 0.0
C458 C 0.34378 0.41437 0.79591 0.0
C459 C 0.34206 0.40116 0.85164 0.0
C460 C 0.36744 0.38816 0.84767 0.0
H461 H 0.2873 0.47957 0.75319 0.0
H462 H 0.27852 0.45914 0.8074 0.0
H463 H 0.295 0.43072 0.85191 0.0
O464 O 0.38386 0.35576 0.76113 0.0
O465 O 0.39177 0.4372 0.76752 0.0
O466 O 0.41237 0.46446 0.7294 0.0
O467 O 0.34787 0.36959 0.73649 0.0
O468 O 0.42547 0.40037 0.76254 0.0
O469 O 0.4478 0.43483 0.73439 0.0
O470 O 0.425 0.48063 0.68566 0.0
O471 O 0.45397 0.39803 0.70067 0.0
O472 O 0.42061 0.36862 0.71886 0.0
O473 O 0.43862 0.45996 0.64354 0.0
O474 O 0.38366 0.4309 0.66083 0.0
O475 O 0.36058 0.39871 0.6902 0.0
C476 C 0.40131 0.46163 0.75866 0.0
C477 C 0.34094 0.34204 0.78288 0.0
C478 C 0.33804 0.3204 0.83559 0.0
C479 C 0.31026 0.32818 0.83778 0.0
C480 C 0.31304 0.34937 0.78541 0.0
C481 C 0.29785 0.3424 0.8127 0.0
C482 C 0.35305 0.32705 0.8078 0.0
C483 C 0.44546 0.41832 0.75927 0.0
C484 C 0.35806 0.35114 0.75542 0.0
C485 C 0.29653 0.44643 0.80386 0.0
C486 C 0.30596 0.4303 0.82927 0.0
C487 C 0.44684 0.37286 0.70976 0.0
C488 C 0.4595 0.50269 0.65446 0.0
C489 C 0.49419 0.52547 0.62106 0.0
C490 C 0.50384 0.53914 0.64829 0.0
C491 C 0.46939 0.51688 0.68122 0.0
C492 C 0.47199 0.50715 0.62442 0.0
C493 C 0.49149 0.53484 0.67808 0.0
C494 C 0.36184 0.41476 0.66455 0.0
C495 C 0.43623 0.48332 0.65761 0.0
H496 H 0.29808 0.32312 0.85876 0.0
H497 H 0.30306 0.36085 0.76659 0.0
H498 H 0.27643 0.34825 0.81455 0.0
H499 H 0.37463 0.32162 0.80617 0.0
H500 H 0.52116 0.55299 0.64664 0.0
H501 H 0.46027 0.51393 0.70469 0.0
H502 H 0.46415 0.49662 0.60364 0.0
H503 H 0.49912 0.54546 0.69887 0.0
Eu504 Eu 0.88109 0.19424 0.4446 0.0
C505 C 0.94914 0.0924 0.47353 0.0
N506 N 0.92808 0.10067 0.49247 0.0
C507 C 0.91971 0.05442 0.5089 0.0
C508 C 0.95672 0.06462 0.47196 0.0
C509 C 0.91289 0.08214 0.50949 0.0
C510 C 0.94196 0.04565 0.49035 0.0
C511 C 0.9819 0.10306 0.43159 0.0
C512 C 0.96157 0.11145 0.45382 0.0
C513 C 0.99067 0.07575 0.43117 0.0
C514 C 0.97807 0.05654 0.45132 0.0
Eu515 Eu 0.9194 0.14798 0.49624 0.0
N516 N 0.95187 0.13752 0.45418 0.0
C517 C 0.99181 0.122 0.40931 0.0
C518 C 0.95983 0.15509 0.4304 0.0
C519 C 0.98021 0.14795 0.40824 0.0
H520 H 0.89543 0.08872 0.52361 0.0
H521 H 0.98647 0.16231 0.38985 0.0
H522 H 0.92323 0.18051 0.38106 0.0
H523 H 0.83173 0.29019 0.47773 0.0
H524 H 0.94983 0.17417 0.42717 0.0
H525 H 1.00731 0.11636 0.39178 0.0
H526 H 0.84115 0.24072 0.48081 0.0
H527 H 0.90775 1.03985 0.52267 0.0
H528 H 1.00644 0.06908 0.41451 0.0
H529 H 0.98438 1.03536 0.45001 0.0
H530 H 0.94635 0.20524 0.33766 0.0
H531 H 0.94711 1.02414 0.48975 0.0
H532 H 0.85469 0.31842 0.43629 0.0
N533 N 0.90468 0.21596 0.40142 0.0
C534 C 0.90023 0.24325 0.39791 0.0
C535 C 0.93359 0.21622 0.35458 0.0
C536 C 0.91301 0.25819 0.373 0.0
C537 C 0.92046 0.20224 0.37957 0.0
C538 C 0.93003 0.24434 0.35141 0.0
N539 N 0.86999 0.24118 0.44229 0.0
C540 C 0.85174 0.25298 0.46305 0.0
C541 C 0.87749 0.28449 0.41624 0.0
C542 C 0.88264 0.25626 0.41919 0.0
C543 C 0.85916 0.29679 0.43777 0.0
C544 C 0.84617 0.28093 0.46121 0.0
H545 H 0.9402 0.25508 0.33196 0.0
H546 H 0.9179 0.29814 0.35128 0.0
H547 H 0.88684 0.32119 0.38919 0.0
O548 O 0.84505 0.20879 0.41925 0.0
O549 O 0.87938 0.20937 0.49611 0.0
O550 O 0.91876 0.19056 0.51573 0.0
O551 O 0.85262 0.16536 0.42251 0.0
O552 O 0.85329 0.18482 0.49006 0.0
O553 O 0.87268 0.14671 0.51279 0.0
O554 O 0.95232 0.13847 0.53046 0.0
O555 O 0.89515 0.12325 0.45833 0.0
O556 O 0.89888 0.15446 0.41903 0.0
O557 O 0.9097 0.13372 0.54406 0.0
O558 O 0.94805 0.18763 0.48608 0.0
O559 O 0.92531 0.21427 0.44873 0.0
C560 C 0.8991 0.2086 0.51733 0.0
C561 C 0.8336 0.18275 0.37399 0.0
C562 C 0.82104 0.2051 0.32373 0.0
C563 C 0.82568 0.18043 0.30751 0.0
C564 C 0.83811 0.15827 0.35734 0.0
C565 C 0.83413 0.15719 0.32429 0.0
C566 C 0.82474 0.20591 0.357 0.0
C567 C 0.85183 0.16441 0.51133 0.0
C568 C 0.83836 0.18472 0.40882 0.0
C569 C 0.9082 0.28636 0.37021 0.0
C570 C 0.89051 0.29948 0.39179 0.0
C571 C 0.89652 0.12824 0.42733 0.0
C572 C 0.93897 0.15108 0.5833 0.0
C573 C 0.96808 0.16583 0.62712 0.0
C574 C 0.94664 0.1824 0.63862 0.0
C575 C 0.91767 0.16778 0.59532 0.0
C576 C 0.96409 0.15002 0.59954 0.0
C577 C 0.9215 0.18311 0.62292 0.0
C578 C 0.94727 0.21026 0.46731 0.0
C579 C 0.93492 0.13486 0.554 0.0
H580 H 0.82317 0.1792 0.28184 0.0
H581 H 0.84482 0.14003 0.36975 0.0
H582 H 0.83778 0.13831 0.3116 0.0
H583 H 0.8206 0.2247 0.36977 0.0
H584 H 0.94921 0.19443 0.66008 0.0
H585 H 0.89798 0.16913 0.58343 0.0
H586 H 0.98059 0.13721 0.59053 0.0
H587 H 0.90494 0.19568 0.6321 0.0
Eu588 Eu 0.16807 0.69136 0.24733 0.0
C589 C 0.07724 0.67942 0.14659 0.0
N590 N 0.07734 0.6644 0.17402 0.0
C591 C 1.02815 0.66125 0.17311 0.0
C592 C 0.05238 0.68511 0.13072 0.0
C593 C 0.05325 0.65633 0.18821 0.0
C594 C 1.02775 0.6752 0.14391 0.0
C595 C 0.10126 0.71098 0.11133 0.0
C596 C 0.10154 0.69232 0.13714 0.0
C597 C 0.07706 0.71469 0.09367 0.0
C598 C 0.05265 0.70184 0.1034 0.0
Eu599 Eu 0.12143 0.65289 0.19354 0.0
N600 N 0.12425 0.68953 0.15595 0.0
C601 C 0.12474 0.72672 0.10533 0.0
C602 C 0.14609 0.70668 0.15181 0.0
C603 C 0.14696 0.72504 0.12616 0.0
H604 H 0.05361 0.6453 0.21067 0.0
H605 H 0.16463 0.73819 0.12277 0.0
H606 H 0.22601 0.65426 0.23564 0.0
H607 H 0.13277 0.74143 0.35647 0.0
H608 H 0.16263 0.70685 0.1684 0.0
H609 H 0.12532 0.74131 0.0858 0.0
H610 H 0.13563 0.7333 0.29818 0.0
H611 H 1.00913 0.65425 0.18397 0.0
H612 H 0.07663 0.72863 0.0735 0.0
H613 H 1.03383 0.70606 0.09056 0.0
H614 H 0.26113 0.63084 0.26805 0.0
H615 H 1.00823 0.67921 0.13245 0.0
H616 H 0.16227 0.715 0.39331 0.0
N617 N 0.20348 0.66879 0.27596 0.0
C618 C 0.20251 0.67114 0.30837 0.0
C619 C 0.24467 0.64199 0.27967 0.0
C620 C 0.22216 0.65808 0.32778 0.0
C621 C 0.22478 0.65537 0.26137 0.0
C622 C 0.24316 0.64304 0.31302 0.0
N623 N 0.16536 0.70173 0.30238 0.0
C624 C 0.14824 0.72139 0.31421 0.0
C625 C 0.18206 0.69215 0.35531 0.0
C626 C 0.18268 0.68793 0.32198 0.0
C627 C 0.16337 0.71115 0.36784 0.0
C628 C 0.1467 0.72614 0.34713 0.0
H629 H 0.25865 0.63271 0.32711 0.0
H630 H 0.23548 0.651 0.37648 0.0
H631 H 0.20038 0.68087 0.40058 0.0
O632 O 0.19815 0.72024 0.26504 0.0
O633 O 0.17007 0.64434 0.26133 0.0
O634 O 0.1335 0.62394 0.23638 0.0
O635 O 0.1793 0.7275 0.21903 0.0
O636 O 0.12508 0.68831 0.26732 0.0
O637 O 0.10666 0.64946 0.2453 0.0
O638 O 0.13099 0.62399 0.15521 0.0
O639 O 0.09925 0.69492 0.20356 0.0
O640 O 0.12785 0.71865 0.23741 0.0
O641 O 0.09357 0.6194 0.18214 0.0
O642 O 0.16603 0.65148 0.17094 0.0
O643 O 0.19304 0.67932 0.20148 0.0
C644 C 0.15351 0.62283 0.25801 0.0
C645 C 0.18791 0.76605 0.25223 0.0
C646 C 0.18113 0.79964 0.29479 0.0
C647 C 0.17346 0.81902 0.27163 0.0
C648 C 0.18042 0.78581 0.22952 0.0
C649 C 0.17332 0.81215 0.23922 0.0
C650 C 0.18871 0.77335 0.28481 0.0
C651 C 0.10797 0.66769 0.26831 0.0
C652 C 0.1941 0.73776 0.24211 0.0
C653 C 0.22074 0.66111 0.36115 0.0
C654 C 0.20072 0.67811 0.37489 0.0
C655 C 0.10467 0.71753 0.21993 0.0
C656 C 0.11253 0.5796 0.16038 0.0
C657 C 0.10152 0.53544 0.13701 0.0
C658 C 0.11787 0.52261 0.16026 0.0
C659 C 0.12866 0.56658 0.18355 0.0
C660 C 0.09898 0.56402 0.13736 0.0
C661 C 0.13124 0.53816 0.18346 0.0
C662 C 0.19005 0.66373 0.17589 0.0
C663 C 0.10903 0.60933 0.15986 0.0
H664 H 0.16775 0.83955 0.27854 0.0
H665 H 0.17983 0.78082 0.20431 0.0
H666 H 0.16747 0.82725 0.22158 0.0
H667 H 0.19444 0.75836 0.30268 0.0
H668 H 0.12018 0.50063 0.16056 0.0
H669 H 0.13923 0.57833 0.20157 0.0
H670 H 0.08686 0.5743 0.11926 0.0
H671 H 0.14371 0.52815 0.20137 0.0
Eu672 Eu 0.9128 0.69706 0.59329 0.0
C673 C 0.94066 0.62152 0.47106 0.0
N674 N 0.93381 0.61951 0.50253 0.0
C675 C 0.90771 0.57895 0.49192 0.0
C676 C 0.93078 0.60253 0.4486 0.0
C677 C 0.91821 0.59809 0.51333 0.0
C678 C 0.91378 0.58133 0.45936 0.0
C679 C 0.96795 0.64339 0.42955 0.0
C680 C 0.95888 0.64172 0.46164 0.0
C681 C 0.95738 0.6252 0.40687 0.0
C682 C 0.93879 0.60484 0.41636 0.0
Eu683 Eu 0.95127 0.65387 0.53691 0.0
N684 N 0.96905 0.65866 0.48424 0.0
C685 C 0.98798 0.66277 0.42142 0.0
C686 C 0.98938 0.67687 0.47664 0.0
C687 C 0.99893 0.67939 0.44516 0.0
H688 H 0.91308 0.59612 0.53835 0.0
H689 H 1.01486 0.69404 0.43928 0.0
H690 H 0.88977 0.76038 0.58306 0.0
H691 H 1.00213 0.66075 0.6628 0.0
H692 H 0.99838 0.68949 0.49484 0.0
H693 H 0.9956 0.6646 0.39709 0.0
H694 H 0.96684 0.65724 0.6218 0.0
H695 H 0.89491 0.56238 0.50055 0.0
H696 H 0.96393 0.6263 0.38207 0.0
H697 H 0.93126 0.59056 0.39874 0.0
H698 H 0.8955 0.80577 0.60841 0.0
H699 H 0.90573 0.56636 0.44285 0.0
H700 H 1.00698 0.70313 0.69398 0.0
N701 N 0.91905 0.74123 0.61304 0.0
C702 C 0.93752 0.74372 0.63725 0.0
C703 C 0.90742 0.7885 0.61666 0.0
C704 C 0.94143 0.7691 0.65226 0.0
C705 C 0.9043 0.76299 0.60228 0.0
C706 C 0.92594 0.79154 0.64185 0.0
N707 N 0.95037 0.69691 0.62969 0.0
C708 C 0.96808 0.67578 0.63512 0.0
C709 C 0.97379 0.72383 0.6696 0.0
C710 C 0.95341 0.72098 0.64594 0.0
C711 C 0.99105 0.70169 0.67606 0.0
C712 C 0.98841 0.67775 0.65847 0.0
H713 H 0.92835 0.81138 0.65286 0.0
H714 H 0.96412 0.79077 0.68861 0.0
H715 H 0.99247 0.75132 0.70365 0.0
O716 O 0.86804 0.69308 0.59891 0.0
O717 O 0.9521 0.72295 0.57925 0.0
O718 O 0.97807 0.69391 0.54809 0.0
O719 O 0.89082 0.7121 0.63593 0.0
O720 O 0.91718 0.65358 0.61694 0.0
O721 O 0.93384 0.62553 0.57781 0.0
O722 O 0.98147 0.62251 0.52654 0.0
O723 O 0.90463 0.65185 0.52227 0.0
O724 O 0.88474 0.68817 0.54823 0.0
O725 O 0.98537 0.64674 0.56974 0.0
O726 O 0.94456 0.69522 0.51423 0.0
O727 O 0.91155 0.71816 0.54431 0.0
C728 C 0.97559 0.7177 0.56383 0.0
C729 C 0.84599 0.72899 0.62782 0.0
C730 C 0.81989 0.76133 0.66084 0.0
C731 C 0.80639 0.77052 0.63318 0.0
C732 C 0.83228 0.7387 0.60058 0.0
C733 C 0.81266 0.75936 0.60334 0.0
C734 C 0.83987 0.74058 0.6579 0.0
C735 C 0.9243 0.62869 0.60738 0.0
C736 C 0.86662 0.70683 0.62532 0.0
C737 C 0.96093 0.77145 0.67667 0.0
C738 C 0.97704 0.74893 0.68529 0.0
C739 C 0.88371 0.66919 0.52535 0.0
C740 C 1.02624 0.63633 0.54062 0.0
C741 C 0.05997 0.64557 0.49832 0.0
C742 C 0.07838 0.65524 0.52142 0.0
C743 C 0.045 0.64574 0.56342 0.0
C744 C 1.03437 0.63539 0.50826 0.0
C745 C 0.07104 0.65488 0.55383 0.0
C746 C 0.927 0.71537 0.51832 0.0
C747 C 0.99754 0.62985 0.54988 0.0
H748 H 0.79117 0.78663 0.63458 0.0
H749 H 0.83674 0.73041 0.57713 0.0
H750 H 0.80222 0.76675 0.58222 0.0
H751 H 0.85032 0.73313 0.67903 0.0
H752 H 0.09833 0.66316 0.51439 0.0
H753 H 1.0393 0.64659 0.58849 0.0
H754 H 1.02015 0.62822 0.49032 0.0
H755 H 0.08533 0.66236 0.57149 0.0
Eu756 Eu 0.15187 0.14513 0.84183 0.0
C757 C 0.24503 0.14449 0.7665 0.0
N758 N 0.22647 0.14581 0.79108 0.0
C759 C 0.24861 0.10771 0.81648 0.0
C760 C 0.26725 0.12594 0.76732 0.0
C761 C 0.22669 0.12607 0.81421 0.0
C762 C 0.26953 0.10829 0.79352 0.0
C763 C 0.25598 0.155 0.71099 0.0
C764 C 0.23934 0.15865 0.73842 0.0
C765 C 0.27961 0.13862 0.71286 0.0
C766 C 0.28523 0.1241 0.74098 0.0
Eu767 Eu 0.19432 0.18262 0.78652 0.0
N768 N 0.21566 0.17331 0.73686 0.0
C769 C 0.24758 0.16675 0.68208 0.0
C770 C 0.20642 0.18325 0.70832 0.0
C771 C 0.22243 0.18048 0.68062 0.0
H772 H 0.20964 0.1236 0.83025 0.0
H773 H 0.21538 0.18895 0.65818 0.0
H774 H 0.09291 0.11352 0.82663 0.0
H775 H 0.16931 0.23828 0.91293 0.0
H776 H 0.18697 0.19389 0.70704 0.0
H777 H 0.25981 0.1644 0.6605 0.0
H778 H 0.17977 0.20525 0.87086 0.0
H779 H 0.24899 0.09268 0.83551 0.0
H780 H 0.29289 0.13593 0.69219 0.0
H781 H 0.30268 0.11033 0.74146 0.0
H782 H 0.04519 0.11243 0.84801 0.0
H783 H 0.28622 0.09369 0.795 0.0
H784 H 0.12511 0.23571 0.94222 0.0
N785 N 0.10578 0.14445 0.85856 0.0
C786 C 0.09885 0.16202 0.88246 0.0
C787 C 0.06008 0.12643 0.85787 0.0
C788 C 0.07196 0.16214 0.89525 0.0
C789 C 0.08694 0.12711 0.84577 0.0
C790 C 0.05259 0.14389 0.88284 0.0
N791 N 0.14402 0.18112 0.87908 0.0
C792 C 0.16152 0.2023 0.88494 0.0
C793 C 0.11111 0.20008 0.91657 0.0
C794 C 0.11855 0.18058 0.8933 0.0
C795 C 0.1301 0.22033 0.92455 0.0
C796 C 0.15514 0.22177 0.90818 0.0
H797 H 1.03173 0.14336 0.89209 0.0
H798 H 0.04457 0.18096 0.92979 0.0
H799 H 0.07868 0.21428 0.94822 0.0
O800 O 0.16245 0.10187 0.84738 0.0
O801 O 0.12511 0.18321 0.82686 0.0
O802 O 0.15832 0.2117 0.80652 0.0
O803 O 0.13756 0.12113 0.88317 0.0
O804 O 0.194 0.1543 0.8677 0.0
O805 O 0.21769 0.18417 0.83556 0.0
O806 O 0.19318 0.21934 0.75738 0.0
O807 O 0.18669 0.14105 0.75979 0.0
O808 O 0.16209 0.11622 0.79723 0.0
O809 O 0.22967 0.21134 0.78598 0.0
O810 O 0.15227 0.17818 0.76424 0.0
O811 O 0.13003 0.14473 0.7941 0.0
C812 C 0.13225 0.20799 0.81657 0.0
C813 C 0.12739 0.07514 0.87243 0.0
C814 C 0.09478 0.04609 0.90168 0.0
C815 C 0.08788 1.03329 0.87278 0.0
C816 C 0.12028 0.06193 0.84389 0.0
C817 C 0.10064 0.04113 0.84416 0.0
C818 C 0.11468 0.06701 0.90123 0.0
C819 C 0.2161 0.16984 0.86257 0.0
C820 C 0.14697 0.09822 0.87252 0.0
C821 C 0.0651 0.18067 0.91953 0.0
C822 C 0.08458 0.19959 0.93012 0.0
C823 C 0.17499 0.11758 0.7687 0.0
C824 C 0.2301 0.25164 0.75071 0.0
C825 C 0.2322 0.28454 0.70674 0.0
C826 C 0.25292 0.29879 0.72296 0.0
C827 C 0.2511 0.26583 0.76635 0.0
C828 C 0.22092 0.26097 0.72081 0.0
C829 C 0.2624 0.28934 0.7525 0.0
C830 C 0.13197 0.16076 0.76876 0.0
C831 C 0.21784 0.2269 0.76489 0.0
H832 H 0.07284 1.017 0.87237 0.0
H833 H 0.12957 0.06789 0.82133 0.0
H834 H 0.09521 1.03112 0.82206 0.0
H835 H 0.11984 0.07745 0.92321 0.0
H836 H 0.26199 0.31702 0.71262 0.0
H837 H 0.25863 0.25887 0.7893 0.0
H838 H 0.20475 0.25002 0.70856 0.0
H839 H 0.27856 0.30025 0.76469 0.0
Eu840 Eu 0.65954 0.43541 0.03556 0.0
C841 C 0.67871 0.34368 0.13694 0.0
N842 N 0.67352 0.37071 0.13208 0.0
C843 C 0.64192 0.37061 0.1765 0.0
C844 C 0.66507 0.32898 0.16143 0.0
C845 C 0.65591 0.38438 0.152 0.0
C846 C 0.6464 0.34278 0.18116 0.0
C847 C 0.70322 0.30254 0.12144 0.0
C848 C 0.69762 0.33058 0.1172 0.0
C849 C 0.68952 0.28787 0.14565 0.0
C850 C 0.67053 0.30105 0.1656 0.0
Eu851 Eu 0.69946 0.39219 0.09064 0.0
N852 N 0.71091 0.34532 0.09424 0.0
C853 C 0.72261 0.29007 0.10135 0.0
C854 C 0.73012 0.33332 0.07483 0.0
C855 C 0.73614 0.30555 0.078 0.0
H856 H 0.65233 0.40591 0.14934 0.0
H857 H 0.7514 0.29616 0.06261 0.0
H858 H 0.68784 0.49339 1.00941 0.0
H859 H 0.5895 0.42259 0.13967 0.0
H860 H 0.74132 0.34531 0.05733 0.0
H861 H 0.72744 0.26859 0.10386 0.0
H862 H 0.62472 0.40853 0.10186 0.0
H863 H 0.62776 0.38154 0.1919 0.0
H864 H 0.69358 0.26633 0.14924 0.0
H865 H 0.66022 0.28947 0.18428 0.0
H866 H 0.67951 0.54305 1.01277 0.0
H867 H 0.63553 0.3322 0.20021 0.0
H868 H 0.57393 0.47052 0.14079 0.0
N869 N 0.65497 0.48311 0.04105 0.0
C870 C 0.63463 0.49231 0.06054 0.0
C871 C 0.66665 0.52902 0.02621 0.0
C872 C 0.62939 0.52054 0.06346 0.0
C873 C 0.67123 0.50092 0.02427 0.0
C874 C 0.64547 0.53888 0.04567 0.0
N875 N 0.62771 0.4467 0.0778 0.0
C876 C 0.61732 0.42886 0.09999 0.0
C877 C 0.60094 0.48295 0.10204 0.0
C878 C 0.62055 0.4736 0.07947 0.0
C879 C 0.58896 0.46415 0.12308 0.0
C880 C 0.59761 0.43709 0.12243 0.0
H881 H 0.64209 0.56069 0.04732 0.0
H882 H 0.60448 0.55122 0.08707 0.0
H883 H 0.57958 0.5183 0.12094 0.0
O884 O 0.62343 0.44198 1.00498 0.0
O885 O 0.68452 0.46078 0.0731 0.0
O886 O 0.67947 0.43144 0.11384 0.0
O887 O 0.66391 0.45224 0.98774 0.0
O888 O 0.63285 0.39493 0.0454 0.0
O889 O 0.65652 0.36964 0.08321 0.0
O890 O 0.73518 0.37763 0.11688 0.0
O891 O 0.70532 0.37723 0.04003 0.0
O892 O 0.66587 0.39273 0.01666 0.0
O893 O 0.72501 0.42046 0.11793 0.0
O894 O 0.72911 0.40663 0.04791 0.0
O895 O 0.70455 0.43525 1.01458 0.0
C896 C 0.68247 0.45716 0.10441 0.0
C897 C 0.63429 0.43228 0.9508 0.0
C898 C 0.60526 0.41791 0.90678 0.0
C899 C 0.62656 0.40107 0.89546 0.0
C900 C 0.65545 0.41532 0.93899 0.0
C901 C 0.6516 0.40004 0.91135 0.0
C902 C 0.60927 0.43367 0.93439 0.0
C903 C 0.63472 0.37239 0.06396 0.0
C904 C 0.63841 0.44836 0.98012 0.0
C905 C 0.60893 0.52965 0.08469 0.0
C906 C 0.59473 0.51089 0.10393 0.0
C907 C 0.68722 0.37653 0.01705 0.0
C908 C 0.74263 0.40048 0.16563 0.0
C909 C 0.7541 0.37541 0.21446 0.0
C910 C 0.74755 0.39868 0.23253 0.0
C911 C 0.73625 0.42354 0.18416 0.0
C912 C 0.75172 0.37658 0.18101 0.0
C913 C 0.73869 0.42256 0.21741 0.0
C914 C 0.72811 0.42283 0.02185 0.0
C915 C 0.73979 0.40097 0.13044 0.0
H916 H 0.62398 0.38907 0.87397 0.0
H917 H 0.67506 0.41385 0.95103 0.0
H918 H 0.66808 0.38739 0.90218 0.0
H919 H 0.5929 0.44669 0.94326 0.0
H920 H 0.74897 0.39833 0.25837 0.0
H921 H 0.72931 0.44229 0.17304 0.0
H922 H 0.75724 0.35887 0.16688 0.0
H923 H 0.73361 0.44036 0.23153 0.0
Eu924 Eu 0.46038 0.93685 0.33107 0.0
C925 C 0.36844 0.92936 0.24064 0.0
N926 N 0.38052 0.93051 0.26999 0.0
C927 C 0.34878 0.96562 0.28583 0.0
C928 C 0.34553 0.94588 0.23325 0.0
C929 C 0.37174 0.94928 0.29187 0.0
C930 C 0.33522 0.96349 0.25667 0.0
C931 C 0.37145 0.91536 0.18501 0.0
C932 C 0.38121 0.91421 0.21668 0.0
C933 C 0.34754 0.93029 0.17819 0.0
C934 C 0.33457 0.94546 0.20227 0.0
Eu935 Eu 0.41546 0.89701 0.27874 0.0
N936 N 0.40477 0.90058 0.22374 0.0
C937 C 0.38666 0.90245 0.16087 0.0
C938 C 0.42038 0.88908 0.20005 0.0
C939 C 0.41146 0.88963 0.16836 0.0
H940 H 0.38293 0.95284 0.31336 0.0
H941 H 0.4236 0.87999 0.14978 0.0
H942 H 0.52316 0.95532 0.30564 0.0
H943 H 0.43553 0.85413 0.41659 0.0
H944 H 0.43915 0.87842 0.20585 0.0
H945 H 0.37985 0.90293 0.13625 0.0
H946 H 0.42857 0.88127 0.36804 0.0
H947 H 0.34186 0.98025 0.30347 0.0
H948 H 0.33951 0.93109 0.15409 0.0
H949 H 0.31678 0.95775 0.19633 0.0
H950 H 0.57061 0.95548 0.32693 0.0
H951 H 0.3177 0.97652 0.2519 0.0
H952 H 0.47878 0.85854 0.44686 0.0
N953 N 0.50691 0.93261 0.34475 0.0
C954 C 0.51188 0.91963 0.3729 0.0
C955 C 0.5543 0.94524 0.34 0.0
C956 C 0.53851 0.91933 0.38598 0.0
C957 C 0.52757 0.94488 0.32785 0.0
C958 C 0.55972 0.93275 0.36941 0.0
N959 N 0.46571 0.90375 0.37244 0.0
C960 C 0.44663 0.88489 0.38183 0.0
C961 C 0.496 0.88882 0.41466 0.0
C962 C 0.49063 0.90481 0.38728 0.0
C963 C 0.47543 0.87126 0.426 0.0
C964 C 0.45095 0.86877 0.40902 0.0
H965 H 0.58044 0.93312 0.37879 0.0
H966 H 0.56352 0.90495 0.42529 0.0
H967 H 0.52642 0.87797 0.45018 0.0
O968 O 0.46317 0.96199 0.37451 0.0
O969 O 0.48427 0.89543 0.32191 0.0
O970 O 0.45303 0.86841 0.29554 0.0
O971 O 0.47623 0.97831 0.32925 0.0
O972 O 0.41595 0.93533 0.35462 0.0
O973 O 0.3949 0.89969 0.32958 0.0
O974 O 0.40783 0.85963 0.25278 0.0
O975 O 0.42292 0.93966 0.25305 0.0
O976 O 0.44177 0.96651 0.29211 0.0
O977 O 0.38004 0.87053 0.29181 0.0
O978 O 0.45868 0.89618 0.2598 0.0
O979 O 0.477 0.93585 0.27968 0.0
C980 C 0.47752 0.87107 0.31018 0.0
C981 C 0.50175 0.99245 0.37384 0.0
C982 C 0.53515 0.99498 0.41712 0.0
C983 C 0.55272 1.01023 0.39707 0.0
C984 C 0.51938 1.0085 0.35467 0.0
C985 C 0.54476 1.01705 0.36615 0.0
C986 C 0.50959 0.98613 0.40538 0.0
C987 C 0.39511 0.91769 0.35322 0.0
C988 C 0.47591 0.98186 0.35996 0.0
C989 C 0.54328 0.90508 0.4146 0.0
C990 C 0.5221 0.88979 0.42884 0.0
C991 C 0.43139 0.96414 0.26277 0.0
C992 C 0.36942 0.82938 0.2607 0.0
C993 C 0.35735 0.79457 0.22165 0.0
C994 C 0.33682 0.78482 0.24254 0.0
C995 C 0.34896 0.81937 0.28146 0.0
C996 C 0.37348 0.81685 0.23096 0.0
C997 C 0.33278 0.79712 0.27237 0.0
C998 C 0.4759 0.91666 0.25771 0.0
C999 C 0.38557 0.85381 0.26852 0.0
H1000 H 0.57232 1.01761 0.40566 0.0
H1001 H 0.51379 1.01404 0.33046 0.0
H1002 H 0.55828 1.02911 0.35105 0.0
H1003 H 0.49611 0.9741 0.42063 0.0
H1004 H 0.32411 0.7676 0.23594 0.0
H1005 H 0.34532 0.82885 0.30446 0.0
H1006 H 0.38874 0.825 0.21447 0.0
H1007 H 0.31698 0.78948 0.28841 0.0
Eu1008 Eu 0.12902 0.42691 0.4886 0.0
C1009 C 0.14082 0.33969 0.3865 0.0
N1010 N 0.15973 0.34131 0.41034 0.0
C1011 C 0.16966 0.29369 0.40591 0.0
C1012 C 0.13585 0.3146 0.37122 0.0
C1013 C 0.17381 0.31891 0.4206 0.0
C1014 C 0.15074 0.29155 0.381 0.0
C1015 C 0.10459 0.36099 0.35536 0.0
C1016 C 0.12544 0.36298 0.37862 0.0
C1017 C 0.10029 0.33618 0.3394 0.0
C1018 C 0.11586 0.31311 0.34727 0.0
Eu1019 Eu 0.16744 0.38497 0.43096 0.0
N1020 N 0.12954 0.38682 0.39505 0.0
C1021 C 0.088 0.38372 0.34945 0.0
C1022 C 0.11251 0.40856 0.39006 0.0
C1023 C 0.09177 0.40744 0.36714 0.0
H1024 H 0.18859 0.3208 0.43967 0.0
H1025 H 0.07857 0.42492 0.36325 0.0
H1026 H 0.16654 0.48489 0.48452 0.0
H1027 H 0.06724 0.38784 0.58833 0.0
H1028 H 0.1144 0.42689 0.40353 0.0
H1029 H 0.07176 0.38295 0.33186 0.0
H1030 H 0.08396 0.39054 0.53275 0.0
H1031 H 0.18107 0.27594 0.41373 0.0
H1032 H 0.08449 0.33446 0.32136 0.0
H1033 H 0.11186 0.29403 0.33514 0.0
H1034 H 0.18379 0.52045 0.52063 0.0
H1035 H 0.1475 0.27193 0.36977 0.0
H1036 H 0.08504 0.41982 0.62884 0.0
N1037 N 0.14578 0.46269 0.52135 0.0
C1038 C 0.13882 0.46173 0.55283 0.0
C1039 C 0.17118 0.50403 0.53002 0.0
C1040 C 0.14814 0.48179 0.57432 0.0
C1041 C 0.16119 0.48387 0.50957 0.0
C1042 C 0.16481 0.50289 0.56259 0.0
N1043 N 0.11172 0.42319 0.54157 0.0
C1044 C 0.09229 0.40435 0.55017 0.0
C1045 C 0.11206 0.44066 0.59535 0.0
C1046 C 0.12117 0.44139 0.56324 0.0
C1047 C 0.09272 0.42091 0.60448 0.0
C1048 C 0.08262 0.40283 0.5817 0.0
H1049 H 0.17244 0.51864 0.57833 0.0
H1050 H 0.14706 0.4957 0.62347 0.0
H1051 H 0.1153 0.45974 0.64186 0.0
O1052 O 0.09785 0.4576 0.49748 0.0
O1053 O 0.17609 0.43018 0.50129 0.0
O1054 O 0.19588 0.3938 0.47536 0.0
O1055 O 0.09418 0.43089 0.45616 0.0
O1056 O 0.13859 0.38669 0.51264 0.0
O1057 O 0.16934 0.36369 0.47952 0.0
O1058 O 0.21211 0.38867 0.42514 0.0
O1059 O 0.12866 0.35855 0.44593 0.0
O1060 O 0.10335 0.38607 0.47955 0.0
O1061 O 0.18927 0.36886 0.38871 0.0
O1062 O 0.16559 0.42919 0.40896 0.0
O1063 O 0.14359 0.45529 0.44651 0.0
C1064 C 0.19708 0.41291 0.49798 0.0
C1065 C 0.05331 0.44201 0.4849 0.0
C1066 C 1.01959 0.43536 0.52786 0.0
C1067 C 1.00094 0.42485 0.50552 0.0
C1068 C 1.03435 0.43174 0.46285 0.0
C1069 C 1.00823 0.42339 0.47314 0.0
C1070 C 0.04541 0.44439 0.51719 0.0
C1071 C 0.15605 0.3667 0.50703 0.0
C1072 C 0.08178 0.44855 0.47491 0.0
C1073 C 0.13999 0.48056 0.60659 0.0
C1074 C 0.12192 0.46007 0.61707 0.0
C1075 C 0.10577 0.36281 0.46295 0.0
C1076 C 0.23365 0.35145 0.39855 0.0
C1077 C 0.25938 0.31738 0.36788 0.0
C1078 C 0.27241 0.30899 0.39617 0.0
C1079 C 0.24678 0.34252 0.42656 0.0
C1080 C 0.23985 0.33859 0.3693 0.0
C1081 C 0.26601 0.3214 0.42528 0.0
C1082 C 0.15617 0.45335 0.41835 0.0
C1083 C 0.21349 0.37404 0.39942 0.0
H1084 H 0.9808 0.4178 0.51308 0.0
H1085 H 1.0399 0.42976 0.43782 0.0
H1086 H 0.99376 0.4153 0.45606 0.0
H1087 H 0.05986 0.45212 0.53455 0.0
H1088 H 0.28736 0.29258 0.39582 0.0
H1089 H 0.24219 0.35179 0.44946 0.0
H1090 H 0.22983 0.3454 0.3476 0.0
H1091 H 0.27603 0.31464 0.44695 0.0
Eu1092 Eu 0.88674 0.89573 0.24742 0.0
C1093 C 0.97362 0.91386 0.14267 0.0
N1094 N 0.97153 0.93082 0.16827 0.0
C1095 C 1.01881 0.9435 0.16289 0.0
C1096 C 0.99873 0.91129 0.12593 0.0
C1097 C 0.99358 0.94514 0.17903 0.0
C1098 C 1.02133 0.92672 0.13603 0.0
C1099 C 0.9538 0.87777 0.11053 0.0
C1100 C 0.95107 0.89752 0.13483 0.0
C1101 C 0.97838 0.87615 0.09275 0.0
C1102 C 1.00074 0.8929 0.10037 0.0
Eu1103 Eu 0.92722 0.93627 0.1895 0.0
N1104 N 0.92767 0.89898 0.15316 0.0
C1105 C 0.93229 0.85929 0.10587 0.0
C1106 C 0.90785 0.87946 0.15039 0.0
C1107 C 0.90954 0.85975 0.12637 0.0
H1108 H 0.99136 0.95844 0.19946 0.0
H1109 H 0.89346 0.84462 0.12403 0.0
H1110 H 0.83696 0.94201 0.22561 0.0
H1111 H 0.91335 0.85823 0.36592 0.0
H1112 H 0.8911 0.8783 0.167 0.0
H1113 H 0.93365 0.84376 0.08755 0.0
H1114 H 0.91848 0.86389 0.30731 0.0
H1115 H 1.03622 0.95528 0.17101 0.0
H1116 H 0.98064 0.86132 0.07375 0.0
H1117 H 1.0198 0.89082 0.08701 0.0
H1118 H 0.79768 0.9652 0.2503 0.0
H1119 H 1.04094 0.92541 0.12367 0.0
H1120 H 0.8747 0.88061 0.39436 0.0
N1121 N 0.8486 0.92081 0.26805 0.0
C1122 C 0.84391 0.91779 0.30014 0.0
C1123 C 0.81034 0.95169 0.26449 0.0
C1124 C 0.82194 0.93149 0.31539 0.0
C1125 C 0.83249 0.93796 0.25036 0.0
C1126 C 0.8049 0.94828 0.29705 0.0
N1127 N 0.88337 0.88941 0.30311 0.0
C1128 C 0.90185 0.87408 0.31977 0.0
C1129 C 0.85825 0.89924 0.35148 0.0
C1130 C 0.86203 0.90204 0.31817 0.0
C1131 C 0.87697 0.88329 0.36874 0.0
C1132 C 0.89887 0.87068 0.35281 0.0
H1133 H 0.78784 0.95916 0.30791 0.0
H1134 H 0.80115 0.93882 0.36058 0.0
H1135 H 0.83279 0.91049 0.39208 0.0
O1136 O 0.86291 0.86301 0.26987 0.0
O1137 O 0.88998 0.93963 0.26949 0.0
O1138 O 0.91281 0.96543 0.23174 0.0
O1139 O 0.87889 0.85762 0.22194 0.0
O1140 O 0.92939 0.90294 0.26708 0.0
O1141 O 0.94922 0.93759 0.23679 0.0
O1142 O 0.9332 0.98026 0.18819 0.0
O1143 O 0.95401 0.89677 0.20136 0.0
O1144 O 0.92806 0.87111 0.23677 0.0
O1145 O 0.93536 0.9585 0.14422 0.0
O1146 O 0.8827 0.9338 0.16869 0.0
O1147 O 0.85963 0.90384 0.2015 0.0
C1148 C 0.90032 0.96353 0.26029 0.0
C1149 C 0.88057 0.8193 0.25711 0.0
C1150 C 0.89782 0.78888 0.29914 0.0
C1151 C 0.90878 0.77172 0.27536 0.0
C1152 C 0.8915 0.80164 0.23389 0.0
C1153 C 0.90536 0.77794 0.24303 0.0
C1154 C 0.88308 0.81226 0.28976 0.0
C1155 C 0.94834 0.92175 0.26223 0.0
C1156 C 0.86821 0.84568 0.24721 0.0
C1157 C 0.81798 0.92851 0.34854 0.0
C1158 C 0.83605 0.91243 0.36651 0.0
C1159 C 0.95059 0.87376 0.21831 0.0
C1160 C 0.96476 0.99741 0.14981 0.0
C1161 C 1.00123 1.01052 0.11199 0.0
C1162 C 1.01304 1.02679 0.1359 0.0
C1163 C 0.97697 1.0142 0.173 0.0
C1164 C 0.9769 0.99588 0.11909 0.0
C1165 C 1.00096 1.0286 0.16608 0.0
C1166 C 0.86037 0.91914 0.17504 0.0
C1167 C 0.93955 0.9817 0.15812 0.0
H1168 H 0.91992 0.75337 0.28179 0.0
H1169 H 0.88971 0.80637 0.20866 0.0
H1170 H 0.91387 0.76455 0.22496 0.0
H1171 H 0.8745 0.82544 0.30799 0.0
H1172 H 1.0314 1.03868 0.13107 0.0
H1173 H 0.96812 1.01614 0.19673 0.0
H1174 H 0.96768 0.98313 0.10096 0.0
H1175 H 1.01017 0.04137 0.18416 0.0
Eu1176 Eu 0.38196 0.6943 0.93545 0.0
C1177 C 0.44697 0.59345 0.96577 0.0
N1178 N 0.42627 0.60217 0.98502 0.0
C1179 C 0.41529 0.55594 0.99928 0.0
C1180 C 0.45285 0.56535 0.96278 0.0
C1181 C 0.41011 0.58394 1.00131 0.0
C1182 C 0.43695 0.5466 0.98019 0.0
C1183 C 0.48087 0.6037 0.92484 0.0
C1184 C 0.46081 0.61251 0.94718 0.0
C1185 C 0.48775 0.57591 0.92291 0.0
C1186 C 0.47376 0.55677 0.94183 0.0
Eu1187 Eu 0.42047 0.64974 0.9908 0.0
N1188 N 0.45299 0.63921 0.94891 0.0
C1189 C 0.49258 0.62284 0.90403 0.0
C1190 C 0.46306 0.65731 0.92684 0.0
C1191 C 0.4832 0.64965 0.90463 0.0
H1192 H 0.3931 0.59102 0.01584 0.0
H1193 H 0.49105 0.66438 0.8875 0.0
H1194 H 0.42855 0.67936 0.87643 0.0
H1195 H 0.33304 0.79169 0.96389 0.0
H1196 H 0.45504 0.67738 0.92485 0.0
H1197 H 0.50793 0.61688 0.88648 0.0
H1198 H 0.34091 0.74204 0.96807 0.0
H1199 H 0.40253 0.54159 1.01237 0.0
H1200 H 0.50326 0.56891 0.90609 0.0
H1201 H 0.47872 0.53531 0.93941 0.0
H1202 H 0.45477 0.70336 0.83495 0.0
H1203 H 0.44081 0.52487 0.97846 0.0
H1204 H 0.35911 0.81903 0.92416 0.0
N1205 N 0.4089 0.71518 0.8944 0.0
C1206 C 0.40496 0.74249 0.89008 0.0
C1207 C 0.44098 0.71465 0.85044 0.0
C1208 C 0.41967 0.75703 0.8663 0.0
C1209 C 0.42606 0.70109 0.87435 0.0
C1210 C 0.43794 0.74276 0.84652 0.0
N1211 N 0.37201 0.74147 0.932 0.0
C1212 C 0.3529 0.75389 0.95117 0.0
C1213 C 0.38212 0.78439 0.90621 0.0
C1214 C 0.38634 0.75605 0.90975 0.0
C1215 C 0.36291 0.7973 0.92615 0.0
C1216 C 0.34817 0.78195 0.94864 0.0
H1217 H 0.44958 0.75319 0.82798 0.0
H1218 H 0.42687 0.79675 0.84484 0.0
H1219 H 0.39405 0.8207 0.87982 0.0
O1220 O 0.34718 0.71001 0.90815 0.0
O1221 O 0.37638 0.70931 0.98605 0.0
O1222 O 0.4147 0.69216 1.01053 0.0
O1223 O 0.35514 0.66668 0.90892 0.0
O1224 O 0.35235 0.68178 0.97891 0.0
O1225 O 0.37453 0.64888 1.00894 0.0
O1226 O 0.45536 0.64217 0.02305 0.0
O1227 O 0.39576 0.62484 0.95294 0.0
O1228 O 0.40143 0.65458 0.91261 0.0
O1229 O 0.41405 0.63296 0.0383 0.0
O1230 O 0.44761 0.69032 0.98221 0.0
O1231 O 0.42504 0.71602 0.94384 0.0
C1232 C 0.39431 0.70951 1.00927 0.0
C1233 C 0.33892 0.68648 0.86063 0.0
C1234 C 0.3154 0.70291 0.81265 0.0
C1235 C 0.33678 0.69174 0.79389 0.0
C1236 C 0.35993 0.67557 0.84139 0.0
C1237 C 0.35869 0.67802 0.8082 0.0
C1238 C 0.31659 0.69978 0.84618 0.0
C1239 C 0.35208 0.66372 1.00324 0.0
C1240 C 0.34125 0.68652 0.89574 0.0
C1241 C 0.41567 0.78527 0.8629 0.0
C1242 C 0.39699 0.79892 0.88283 0.0
C1243 C 0.39807 0.6288 0.92176 0.0
C1244 C 0.44296 0.65145 0.07702 0.0
C1245 C 0.47091 0.66456 0.12255 0.0
C1246 C 0.44939 0.68121 0.13369 0.0
C1247 C 0.42161 0.66827 0.08866 0.0
C1248 C 0.46753 0.64947 0.09429 0.0
C1249 C 0.4248 0.68281 0.11695 0.0
C1250 C 0.44632 0.71301 0.96374 0.0
C1251 C 0.43938 0.63597 0.04713 0.0
H1252 H 0.33707 0.69418 0.76816 0.0
H1253 H 0.37755 0.66564 0.85199 0.0
H1254 H 0.37511 0.66978 0.79352 0.0
H1255 H 0.30042 0.70799 0.86128 0.0
H1256 H 0.45149 0.69274 0.1556 0.0
H1257 H 0.40236 0.67024 0.07595 0.0
H1258 H 0.48408 0.63661 0.08554 0.0
H1259 H 0.40819 0.69543 0.12587 0.0
Eu1260 Eu 0.66195 0.18939 0.75259 0.0
C1261 C 0.57636 0.17606 0.64781 0.0
N1262 N 0.57545 0.15995 0.67436 0.0
C1263 C 0.5269 0.15365 0.66818 0.0
C1264 C 0.55239 0.18101 0.62989 0.0
C1265 C 0.55111 0.14949 0.68537 0.0
C1266 C 0.52763 0.16906 0.64 0.0
C1267 C 0.60087 0.21004 0.61633 0.0
C1268 C 0.60052 0.19039 0.64112 0.0
C1269 C 0.57774 0.21325 0.59673 0.0
C1270 C 0.55354 0.19879 0.60352 0.0
Eu1271 Eu 0.61859 0.14954 0.6969 0.0
N1272 N 0.62217 0.18781 0.66157 0.0
C1273 C 0.62372 0.22721 0.61332 0.0
C1274 C 0.64284 0.20663 0.66077 0.0
C1275 C 0.64438 0.22604 0.63624 0.0
H1276 H 0.55056 0.13743 0.7071 0.0
H1277 H 0.6612 0.24051 0.63548 0.0
H1278 H 0.71602 0.14743 0.73248 0.0
H1279 H 0.62522 0.21899 0.8717 0.0
H1280 H 0.6575 0.20774 0.67955 0.0
H1281 H 0.62474 0.24261 0.59468 0.0
H1282 H 0.62575 0.21852 0.81269 0.0
H1283 H 0.50771 0.14495 0.67662 0.0
H1284 H 0.57787 0.22793 0.57728 0.0
H1285 H 0.53544 0.20249 0.58915 0.0
H1286 H 0.75353 0.12348 0.75911 0.0
H1287 H 0.50878 0.17243 0.62689 0.0
H1288 H 0.66111 0.19425 0.90174 0.0
N1289 N 0.6985 0.16339 0.77549 0.0
C1290 C 0.7006 0.16461 0.80804 0.0
C1291 C 0.7388 0.13501 0.77313 0.0
C1292 C 0.72169 0.1505 0.82424 0.0
C1293 C 0.71742 0.14896 0.75802 0.0
C1294 C 0.74098 0.13577 0.80633 0.0
N1295 N 0.66043 0.19217 0.80931 0.0
C1296 C 0.64085 0.20674 0.8256 0.0
C1297 C 0.68152 0.17918 0.85912 0.0
C1298 C 0.68065 0.17876 0.82538 0.0
C1299 C 0.66115 0.19356 0.87584 0.0
C1300 C 0.64081 0.20747 0.85899 0.0
H1301 H 0.75746 0.1247 0.81791 0.0
H1302 H 0.73873 0.14035 0.87054 0.0
H1303 H 0.7036 0.16543 0.90103 0.0
O1304 O 0.67773 0.22258 0.78037 0.0
O1305 O 0.66046 0.14375 0.77168 0.0
O1306 O 0.63367 0.11895 0.73724 0.0
O1307 O 0.68669 0.2225 0.72919 0.0
O1308 O 0.61751 0.18672 0.7675 0.0
O1309 O 0.6026 0.14572 0.74808 0.0
O1310 O 0.62481 0.12444 0.65434 0.0
O1311 O 0.59273 0.18942 0.70848 0.0
O1312 O 0.62382 0.21717 0.73432 0.0
O1313 O 0.59382 0.11302 0.68865 0.0
O1314 O 0.66376 0.14954 0.67584 0.0
O1315 O 0.68811 0.17977 0.70644 0.0
C1316 C 0.64886 0.12008 0.76375 0.0
C1317 C 0.70417 0.26077 0.76214 0.0
C1318 C 0.71568 0.29748 0.79921 0.0
C1319 C 0.73365 0.30857 0.77616 0.0
C1320 C 0.72181 0.27229 0.73912 0.0
C1321 C 0.7365 0.2961 0.7462 0.0
C1322 C 0.70115 0.27362 0.79194 0.0
C1323 C 0.60252 0.16466 0.77027 0.0
C1324 C 0.68964 0.2348 0.75664 0.0
C1325 C 0.72267 0.15108 0.85777 0.0
C1326 C 0.70262 0.16531 0.87515 0.0
C1327 C 0.59924 0.21409 0.7197 0.0
C1328 C 0.61358 0.07782 0.65817 0.0
C1329 C 0.6073 1.03528 0.62907 0.0
C1330 C 0.62767 1.02302 0.64804 0.0
C1331 C 0.63378 0.06538 0.67704 0.0
C1332 C 0.60035 0.06273 0.63446 0.0
C1333 C 0.64068 1.03801 0.67202 0.0
C1334 C 0.68668 0.1637 0.68092 0.0
C1335 C 0.60617 0.10661 0.66219 0.0
H1336 H 0.74515 0.32698 0.78115 0.0
H1337 H 0.72456 0.26272 0.71601 0.0
H1338 H 0.75025 0.30485 0.72847 0.0
H1339 H 0.68776 0.26471 0.81001 0.0
H1340 H 0.63344 1.00191 0.64437 0.0
H1341 H 0.64428 0.07683 0.69539 0.0
H1342 H 0.58512 0.07268 0.61957 0.0
H1343 H 0.65631 1.02845 0.68658 0.0
H1344 H 0.50412 0.24489 0.115 0.0
H1345 H 0.59603 0.35792 0.01591 0.0
H1346 H 0.50782 0.24373 1.01236 0.0
H1347 H 0.61811 0.33281 0.11087 0.0
H1348 H 0.56049 0.32166 0.01515 0.0
H1349 H 0.54049 0.28016 0.11518 0.0
C1350 C 0.5123 0.2518 0.09225 0.0
C1351 C 0.50185 0.24003 0.06363 0.0
C1352 C 0.57292 0.32393 0.03634 0.0
C1353 C 0.54509 0.28304 0.06366 0.0
C1354 C 0.59359 0.34513 0.0369 0.0
C1355 C 0.6112 0.34958 0.06353 0.0
C1356 C 0.56819 0.30636 0.06299 0.0
C1357 C 0.60587 0.33111 0.08946 0.0
C1358 C 0.53355 0.27237 0.09243 0.0
C1359 C 0.51446 0.25113 0.03539 0.0
N1360 N 0.58527 0.31122 0.0886 0.0
N1361 N 0.53454 0.27158 0.03621 0.0
H1362 H 0.59434 0.73139 0.36063 0.0
H1363 H 0.49174 0.832 0.26244 0.0
H1364 H 0.61331 0.75038 0.26256 0.0
H1365 H 0.51588 0.85375 0.35761 0.0
H1366 H 0.52771 0.79604 0.26209 0.0
H1367 H 0.55927 0.76803 0.36064 0.0
C1368 C 0.59131 0.7429 0.33882 0.0
C1369 C 0.60797 0.7367 0.31159 0.0
C1370 C 0.52521 0.80846 0.28327 0.0
C1371 C 0.56522 0.7801 0.31115 0.0
C1372 C 0.50417 0.82931 0.2836 0.0
C1373 C 0.49961 0.84696 0.31016 0.0
C1374 C 0.54225 0.80345 0.31019 0.0
C1375 C 0.51767 0.84142 0.3363 0.0
C1376 C 0.5709 0.7643 0.33892 0.0
C1377 C 0.60183 0.75354 0.2845 0.0
N1378 N 0.53722 0.82051 0.33576 0.0
N1379 N 0.58129 0.77352 0.28492 0.0
H1380 H 0.09441 0.85739 0.51628 0.0
H1381 H 0.995 0.75212 0.61313 0.0
H1382 H 0.11722 0.83094 0.6105 0.0
H1383 H 1.01239 0.73652 0.51408 0.0
H1384 H 1.03184 0.78679 0.61343 0.0
H1385 H 0.0587 0.82124 0.51526 0.0
C1386 C 0.09207 0.84433 0.53706 0.0
C1387 C 0.10996 0.8483 0.56354 0.0
C1388 C 1.02779 0.77596 0.59144 0.0
C1389 C 0.06662 0.80549 0.56283 0.0
C1390 C 1.00626 0.75573 0.59118 0.0
C1391 C 0.99954 0.74005 0.56365 0.0
C1392 C 0.04324 0.78253 0.56351 0.0
C1393 C 1.01605 0.74705 0.53634 0.0
C1394 C 0.07133 0.82322 0.53634 0.0
C1395 C 0.10474 0.82958 0.58923 0.0
N1396 N 1.03619 0.76746 0.53692 0.0
N1397 N 0.08389 0.80995 0.58836 0.0
H1398 H 1.03811 0.36978 0.81889 0.0
H1399 H 0.07421 0.20575 0.82315 0.0
H1400 H 0.97608 0.30894 0.80302 0.0
H1401 H 0.13702 0.26623 0.80812 0.0
H1402 H 1.039 0.24212 0.82102 0.0
H1403 H 0.07334 0.33342 0.82007 0.0
C1404 C 1.03148 0.3489 0.81563 0.0
C1405 C 1.00296 0.34359 0.81062 0.0
C1406 C 0.06041 0.24774 0.81819 0.0
C1407 C 0.04523 0.29972 0.81264 0.0
C1408 C 0.08102 0.22657 0.81948 0.0
C1409 C 0.10976 0.23177 0.81577 0.0
C1410 C 0.06749 0.27565 0.81374 0.0
C1411 C 0.11578 0.2601 0.81111 0.0
C1412 C 0.05211 0.32772 0.8163 0.0
C1413 C 0.99716 0.31516 0.8068 0.0
N1414 N 0.09542 0.28028 0.81051 0.0
N1415 N 1.01751 0.29499 0.80811 0.0
H1416 H 0.57748 0.84022 0.91521 0.0
H1417 H 0.48326 0.72855 1.01337 0.0
H1418 H 0.57006 0.84425 0.01748 0.0
H1419 H 0.46447 0.7516 0.91675 0.0
H1420 H 0.51843 0.76521 0.01487 0.0
H1421 H 0.5416 0.80452 0.91461 0.0
C1422 C 0.56857 0.83385 0.93779 0.0
C1423 C 0.57782 0.84657 0.96641 0.0
C1424 C 0.5068 0.76238 0.99315 0.0
C1425 C 0.53515 0.80304 0.96594 0.0
C1426 C 0.48638 0.74094 0.99217 0.0
C1427 C 0.4698 0.73581 0.96481 0.0
C1428 C 0.51231 0.77949 0.96626 0.0
C1429 C 0.4759 0.75383 0.93868 0.0
C1430 C 0.5476 0.81303 0.93737 0.0
C1431 C 0.56432 0.83613 0.99444 0.0
N1432 N 0.49623 0.77394 0.93999 0.0
N1433 N 0.54453 0.81541 0.99345 0.0
H1434 H 0.44095 0.31494 0.71491 0.0
H1435 H 0.60424 0.27166 0.73022 0.0
H1436 H 0.50557 0.37445 0.7072 0.0
H1437 H 0.54191 0.21338 0.70565 0.0
H1438 H 0.56925 0.30842 0.72726 0.0
H1439 H 0.47617 0.2784 0.71671 0.0
C1440 C 0.46242 0.32073 0.71361 0.0
C1441 C 0.4692 0.34895 0.71071 0.0
C1442 C 0.56296 0.28764 0.72253 0.0
C1443 C 0.51161 0.30521 0.71356 0.0
C1444 C 0.58333 0.26617 0.7243 0.0
C1445 C 0.57712 0.23821 0.71827 0.0
C1446 C 0.53493 0.28217 0.71523 0.0
C1447 C 0.54877 0.23392 0.71065 0.0
C1448 C 0.48292 0.29939 0.71465 0.0
C1449 C 0.49826 0.35365 0.70929 0.0
N1450 N 0.52941 0.25498 0.70969 0.0
N1451 N 0.51768 0.33266 0.71097 0.0
H1452 H 0.98525 0.22585 0.51581 0.0
H1453 H 0.08637 0.32752 0.41441 0.0
H1454 H 0.96624 0.24672 0.41857 0.0
H1455 H 0.06964 0.34431 0.51336 0.0
H1456 H 0.0497 0.29261 0.41519 0.0
H1457 H 1.02126 0.26172 0.51561 0.0
C1458 C 0.98849 0.23758 0.49414 0.0
C1459 C 0.97157 0.23217 0.46717 0.0
C1460 C 0.0539 0.30373 0.43693 0.0
C1461 C 1.01521 0.27466 0.46651 0.0
C1462 C 0.07536 0.32405 0.43658 0.0
C1463 C 0.08223 0.34008 0.46378 0.0
C1464 C 1.03864 0.29753 0.46514 0.0
C1465 C 0.06592 0.33343 0.49136 0.0
C1466 C 1.00941 0.25855 0.49412 0.0
C1467 C 0.97795 0.24923 0.44027 0.0
N1468 N 0.04581 0.313 0.49135 0.0
N1469 N 0.99888 0.26877 0.44057 0.0
H1470 H 0.0875 0.75354 0.26984 0.0
H1471 H 0.98919 0.85794 0.17045 0.0
H1472 H 0.06949 0.73769 0.1712 0.0
H1473 H 0.96677 0.83563 0.26662 0.0
H1474 H 1.02464 0.82166 0.17069 0.0
H1475 H 0.05136 0.78938 0.2701 0.0
C1476 C 0.07635 0.75748 0.24798 0.0
C1477 C 0.08257 0.74151 0.22044 0.0
C1478 C 1.01217 0.82461 0.19194 0.0
C1479 C 1.03991 0.7848 0.22037 0.0
C1480 C 0.99156 0.84578 0.1919 0.0
C1481 C 0.97389 0.85091 0.21854 0.0
C1482 C 1.01692 0.808 0.2193 0.0
C1483 C 0.97913 0.83331 0.24519 0.0
C1484 C 0.05525 0.77825 0.24822 0.0
C1485 C 0.06624 0.74862 0.19332 0.0
N1486 N 0.99984 0.81354 0.24497 0.0
N1487 N 0.0466 0.76938 0.19392 0.0
H1488 H 0.23474 0.12949 0.9057 0.0
H1489 H 0.34729 0.21675 1.00688 0.0
H1490 H 0.2542 0.21193 0.8784 0.0
H1491 H 0.35762 0.13056 0.99224 0.0
H1492 H 0.30886 0.21647 0.96818 0.0
H1493 H 0.27339 0.13024 0.94391 0.0
C1494 C 0.24677 0.14799 0.90768 0.0
C1495 C 0.24016 0.17068 0.88784 0.0
C1496 C 0.31929 0.19748 0.97346 0.0
C1497 C 0.28585 0.17189 0.93389 0.0
C1498 C 0.3415 0.19756 0.99608 0.0
C1499 C 0.35657 0.1736 1.00401 0.0
C1500 C 0.31053 0.17306 0.95841 0.0
C1501 C 0.34727 0.14975 0.98782 0.0
C1502 C 0.26929 0.14833 0.92979 0.0
C1503 C 0.25769 0.19369 0.89246 0.0
N1504 N 0.32521 0.15009 0.96676 0.0
N1505 N 0.2789 0.19376 0.91473 0.0
H1506 H 0.69366 0.51361 0.09504 0.0
H1507 H 0.65923 0.56851 0.27685 0.0
H1508 H 0.67026 0.45907 0.17119 0.0
H1509 H 0.70124 0.61815 0.20703 0.0
H1510 H 0.65999 0.53003 0.23864 0.0
H1511 H 0.69332 0.55187 0.1335 0.0
C1512 C 0.68839 0.50931 0.11974 0.0
C1513 C 0.68213 0.48195 0.12882 0.0
C1514 C 0.66913 0.54925 0.23142 0.0
C1515 C 0.68137 0.52771 0.1749 0.0
C1516 C 0.66873 0.57168 0.25364 0.0
C1517 C 0.68035 0.59769 0.24636 0.0
C1518 C 0.68085 0.55186 0.20031 0.0
C1519 C 0.69205 0.59916 0.21492 0.0
C1520 C 0.68824 0.53162 0.1421 0.0
C1521 C 0.67544 0.47911 0.162 0.0
N1522 N 0.69181 0.57724 0.19372 0.0
N1523 N 0.67515 0.50111 0.18309 0.0
H1524 H 0.37049 0.96154 0.38755 0.0
H1525 H 0.26837 0.87576 0.50626 0.0
H1526 H 0.36201 0.87469 0.37787 0.0
H1527 H 0.24502 0.9558 0.47402 0.0
H1528 H 0.3071 0.87627 0.46757 0.0
H1529 H 0.33098 0.96149 0.42542 0.0
C1530 C 0.36074 0.94228 0.39336 0.0
C1531 C 0.37067 0.91806 0.37852 0.0
C1532 C 0.29369 0.89388 0.46882 0.0
C1533 C 0.324 0.9178 0.42419 0.0
C1534 C 0.2712 0.89368 0.49136 0.0
C1535 C 0.2523 0.91573 0.49438 0.0
C1536 C 0.299 0.91676 0.4488 0.0
C1537 C 0.25822 0.93804 0.47335 0.0
C1538 C 0.33769 0.94232 0.41524 0.0
C1539 C 0.35591 0.89411 0.38791 0.0
N1540 N 0.28068 0.93806 0.45238 0.0
N1541 N 0.33422 0.8946 0.40985 0.0
H1542 H 0.92057 0.62718 0.67522 0.0
H1543 H 0.91486 0.46093 0.70257 0.0
H1544 H 0.92659 0.57108 0.59672 0.0
H1545 H 0.93489 0.51603 0.77867 0.0
H1546 H 0.91431 0.49998 0.66491 0.0
H1547 H 0.921 0.58806 0.7128 0.0
C1548 C 0.92175 0.60678 0.66544 0.0
C1549 C 0.9234 0.60357 0.63161 0.0
C1550 C 0.91869 0.50382 0.68983 0.0
C1551 C 0.92365 0.55662 0.67653 0.0
C1552 C 0.91888 0.48112 0.71186 0.0
C1553 C 0.92472 0.48408 0.74503 0.0
C1554 C 0.92389 0.53096 0.70005 0.0
C1555 C 0.93007 0.51169 0.75399 0.0
C1556 C 0.92212 0.58404 0.68739 0.0
C1557 C 0.92518 0.57565 0.62197 0.0
N1558 N 0.92929 0.53337 0.73227 0.0
N1559 N 0.92502 0.55397 0.64372 0.0
H1560 H 0.73616 0.87208 0.02306 0.0
H1561 H 0.83949 0.96064 0.13447 0.0
H1562 H 0.71694 0.95542 0.04587 0.0
H1563 H 0.82405 0.87635 0.15689 0.0
H1564 H 0.80147 0.95941 0.09537 0.0
H1565 H 0.77332 0.87304 0.06331 0.0
C1566 C 0.73957 0.89078 0.03612 0.0
C1567 C 0.72229 0.91365 0.03002 0.0
C1568 C 0.80624 0.94106 0.10871 0.0
C1569 C 0.76717 0.91519 0.07731 0.0
C1570 C 0.82834 0.94171 0.13143 0.0
C1571 C 0.8358 0.91868 0.15032 0.0
C1572 C 0.79113 0.91682 0.10281 0.0
C1573 C 0.81966 0.89498 0.14392 0.0
C1574 C 0.76115 0.89127 0.05956 0.0
C1575 C 0.72898 0.93701 0.04879 0.0
N1576 N 0.79894 0.89465 0.12102 0.0
N1577 N 0.75052 0.93721 0.0706 0.0
H1578 H 0.41124 0.62752 0.85548 0.0
H1579 H 0.38351 0.46412 0.82335 0.0
H1580 H 0.38706 0.5721 0.93043 0.0
H1581 H 0.4174 0.51738 0.75127 0.0
H1582 H 0.38303 0.5027 0.8613 0.0
H1583 H 0.41202 0.58893 0.81753 0.0
C1584 C 0.40586 0.60742 0.86432 0.0
C1585 C 0.39878 0.60419 0.89722 0.0
C1586 C 0.39061 0.5062 0.83724 0.0
C1587 C 0.39976 0.55795 0.85197 0.0
C1588 C 0.39088 0.48378 0.81508 0.0
C1589 C 0.40055 0.48641 0.78297 0.0
C1590 C 0.39987 0.53266 0.82823 0.0
C1591 C 0.40967 0.51335 0.77515 0.0
C1592 C 0.40644 0.58497 0.84221 0.0
C1593 C 0.39257 0.57663 0.90587 0.0
N1594 N 0.40901 0.53476 0.79703 0.0
N1595 N 0.39308 0.55529 0.88393 0.0
H1596 H 0.72492 0.20477 0.66409 0.0
H1597 H 0.83033 0.12033 0.54872 0.0
H1598 H 0.7063 0.12193 0.63873 0.0
H1599 H 0.81519 0.20569 0.53271 0.0
H1600 H 0.79154 0.11948 0.58759 0.0
H1601 H 0.76272 0.20483 0.62418 0.0
C1602 C 0.72864 0.18635 0.65051 0.0
C1603 C 0.71133 0.16332 0.65586 0.0
C1604 C 0.7966 0.13852 0.57572 0.0
C1605 C 0.75696 0.16304 0.60876 0.0
C1606 C 0.81916 0.13907 0.55315 0.0
C1607 C 0.82705 0.16313 0.53621 0.0
C1608 C 0.78138 0.16244 0.58332 0.0
C1609 C 0.81075 0.18641 0.5443 0.0
C1610 C 0.75057 0.18648 0.62724 0.0
C1611 C 0.71828 0.14044 0.6363 0.0
N1612 N 0.7896 0.18551 0.56693 0.0
N1613 N 0.7402 0.14083 0.61457 0.0
H1614 H 0.11559 0.49313 0.40651 0.0
H1615 H 0.19704 0.60378 0.29787 0.0
H1616 H 0.19732 0.47299 0.3747 0.0
H1617 H 0.11434 0.58183 0.273 0.0
H1618 H 0.19859 0.56401 0.3347 0.0
H1619 H 0.11521 0.53197 0.36848 0.0
C1620 C 0.13372 0.49676 0.39192 0.0
C1621 C 0.15653 0.47873 0.39481 0.0
C1622 C 0.17998 0.56782 0.32134 0.0
C1623 C 0.15649 0.52552 0.35016 0.0
C1624 C 0.17902 0.59094 0.29996 0.0
C1625 C 0.15545 0.59732 0.28133 0.0
C1626 C 0.15685 0.55049 0.32597 0.0
C1627 C 0.13312 0.57879 0.28627 0.0
C1628 C 0.13339 0.51927 0.36977 0.0
C1629 C 0.17902 0.48555 0.37413 0.0
N1630 N 0.13425 0.55716 0.30789 0.0
N1631 N 0.17854 0.50807 0.35362 0.0
H1632 H 0.74046 0.62396 0.39637 0.0
H1633 H 0.84508 0.71003 0.50814 0.0
H1634 H 0.75864 0.70755 0.37315 0.0
H1635 H 0.86423 0.62685 0.48452 0.0
H1636 H 0.80823 0.70959 0.46763 0.0
H1637 H 0.77859 0.62421 0.43542 0.0
C1638 C 0.75224 0.64253 0.39921 0.0
C1639 C 0.7455 0.66567 0.38011 0.0
C1640 C 0.82031 0.69128 0.4712 0.0
C1641 C 0.79031 0.6664 0.42757 0.0
C1642 C 0.84176 0.69147 0.49478 0.0
C1643 C 0.85896 0.66851 0.50078 0.0
C1644 C 0.81426 0.66756 0.45318 0.0
C1645 C 0.85229 0.64533 0.48169 0.0
C1646 C 0.77441 0.64261 0.4219 0.0
C1647 C 0.76244 0.68886 0.38627 0.0
N1648 N 0.83081 0.64541 0.45973 0.0
N1649 N 0.78317 0.68868 0.40917 0.0
H1650 H 0.13769 0.07329 0.76204 0.0
H1651 H 0.22246 0.98299 0.62931 0.0
H1652 H 0.21286 0.10271 0.71965 0.0
H1653 H 0.13509 0.97441 0.64182 0.0
H1654 H 0.22155 1.02248 0.66617 0.0
H1655 H 0.13834 1.03445 0.72429 0.0
C1656 C 0.15458 0.07177 0.74515 0.0
C1657 C 0.17526 0.09234 0.7451 0.0
C1658 C 0.20246 1.01202 0.66113 0.0
C1659 C 0.1764 0.04579 0.70033 0.0
C1660 C 0.20297 0.98899 0.63982 0.0
C1661 C 0.17886 0.97419 0.63163 0.0
C1662 C 0.17771 1.02094 0.67607 0.0
C1663 C 0.15449 0.98431 0.64674 0.0
C1664 C 0.15485 0.04925 0.72311 0.0
C1665 C 0.19619 0.08815 0.72146 0.0
N1666 N 0.15466 1.00622 0.66788 0.0
N1667 N 0.19631 0.06581 0.70092 0.0
H1668 H 0.78507 0.41167 0.03029 0.0
H1669 H 0.83462 0.4179 0.84271 0.0
H1670 H 0.72956 0.4349 0.95539 0.0
H1671 H 0.89233 0.42722 0.91932 0.0
H1672 H 0.79655 0.41905 0.88228 0.0
H1673 H 0.8234 0.41216 0.99093 0.0
C1674 C 0.7806 0.41699 1.00572 0.0
C1675 C 0.75308 0.42365 0.99731 0.0
C1676 C 0.81747 0.42093 0.8907 0.0
C1677 C 0.79855 0.42345 0.95007 0.0
C1678 C 0.83964 0.42029 0.86773 0.0
C1679 C 0.86776 0.42279 0.87658 0.0
C1680 C 0.82243 0.42334 0.924 0.0
C1681 C 0.8716 0.42555 0.91025 0.0
C1682 C 0.80291 0.41726 0.98288 0.0
C1683 C 0.74987 0.42997 0.96416 0.0
N1684 N 0.84979 0.42547 0.93206 0.0
N1685 N 0.77169 0.42946 0.94241 0.0
H1686 H 0.44619 1.01931 0.27319 0.0
H1687 H 0.41923 0.07912 0.09185 0.0
H1688 H 0.41546 0.96899 0.19739 0.0
H1689 H 0.4436 0.1302 0.17005 0.0
H1690 H 0.41862 1.03943 0.12861 0.0
H1691 H 0.44616 0.05883 0.23634 0.0
C1692 C 0.43928 1.01622 0.24892 0.0
C1693 C 0.43066 0.9897 0.23947 0.0
C1694 C 0.42413 0.05923 0.138 0.0
C1695 C 0.43086 1.03685 0.1952 0.0
C1696 C 0.42451 0.08236 0.11665 0.0
C1697 C 0.43147 0.10916 0.12686 0.0
C1698 C 0.43089 0.06181 0.17085 0.0
C1699 C 0.43802 0.11065 0.16005 0.0
C1700 C 0.43933 1.03926 0.2275 0.0
C1701 C 0.42224 0.98836 0.20684 0.0
N1702 N 0.43761 0.08792 0.18017 0.0
N1703 N 0.42263 1.01099 0.18653 0.0
H1704 H 0.23175 0.37032 0.51891 0.0
H1705 H 0.34274 0.45664 0.62334 0.0
H1706 H 0.22044 0.45629 0.53436 0.0
H1707 H 0.32415 0.37316 0.64674 0.0
H1708 H 0.3041 0.45677 0.58502 0.0
H1709 H 0.26963 0.37052 0.5581 0.0
C1710 C 0.23717 0.38947 0.53007 0.0
C1711 C 0.22198 0.41336 0.52214 0.0
C1712 C 0.30837 0.43828 0.59835 0.0
C1713 C 0.26756 0.41382 0.56837 0.0
C1714 C 0.33088 0.43812 0.62052 0.0
C1715 C 0.33773 0.41484 0.63931 0.0
C1716 C 0.29208 0.41468 0.59314 0.0
C1717 C 0.32046 0.39184 0.63357 0.0
C1718 C 0.25911 0.38949 0.55295 0.0
C1719 C 0.23087 0.43714 0.53876 0.0
N1720 N 0.29928 0.3923 0.6113 0.0
N1721 N 0.25275 0.43677 0.56015 0.0
H1722 H 0.88955 0.0714 0.43629 0.0
H1723 H 0.91542 1.01941 0.25151 0.0
H1724 H 0.90488 0.12791 0.35936 0.0
H1725 H 0.88332 0.96688 0.32539 0.0
H1726 H 0.9144 0.05794 0.28972 0.0
H1727 H 0.89004 1.03357 0.39743 0.0
C1728 C 0.89301 0.07624 0.4113 0.0
C1729 C 0.89697 0.10401 0.40218 0.0
C1730 C 0.9075 1.03807 0.29781 0.0
C1731 C 0.89794 0.05869 0.35555 0.0
C1732 C 0.90804 1.01561 0.2756 0.0
C1733 C 0.8993 0.98876 0.28407 0.0
C1734 C 0.8985 1.03465 0.33002 0.0
C1735 C 0.89025 0.98652 0.31658 0.0
C1736 C 0.89329 0.05415 0.38871 0.0
C1737 C 0.90154 0.10752 0.36861 0.0
N1738 N 0.89026 1.00849 0.33766 0.0
N1739 N 0.90197 0.08569 0.34723 0.0
H1740 H 0.20972 0.61992 0.13727 0.0
H1741 H 0.30994 0.70238 0.01526 0.0
H1742 H 0.22609 0.70491 0.15351 0.0
H1743 H 0.33547 0.62341 0.04892 0.0
H1744 H 0.27294 0.70251 0.05613 0.0
H1745 H 0.2477 0.61913 0.09727 0.0
C1746 C 0.22101 0.63857 0.13262 0.0
C1747 C 0.21391 0.66249 0.15002 0.0
C1748 C 0.28646 0.685 0.05466 0.0
C1749 C 0.25838 0.66191 0.10166 0.0
C1750 C 0.308 0.68486 0.03093 0.0
C1751 C 0.32705 0.66296 0.02771 0.0
C1752 C 0.28218 0.66253 0.07561 0.0
C1753 C 0.32205 0.64102 0.04959 0.0
C1754 C 0.24309 0.63805 0.10945 0.0
C1755 C 0.23022 0.68571 0.14169 0.0
N1756 N 0.30044 0.64127 0.07168 0.0
N1757 N 0.2508 0.68489 0.11841 0.0
H1758 H 0.6682 0.11595 0.82762 0.0
H1759 H 0.63758 0.95257 0.85894 0.0
H1760 H 0.63185 0.0646 0.75632 0.0
H1761 H 0.66246 1.0066 0.93413 0.0
H1762 H 0.63749 0.99171 0.82137 0.0
H1763 H 0.66852 0.07683 0.86505 0.0
C1764 C 0.66049 0.09655 0.81927 0.0
C1765 C 0.65027 0.09467 0.78749 0.0
C1766 C 0.64303 0.99526 0.84603 0.0
C1767 C 0.65045 0.04771 0.83236 0.0
C1768 C 0.64313 0.9725 0.86796 0.0
C1769 C 0.65003 0.97514 0.90087 0.0
C1770 C 0.65016 1.02206 0.85592 0.0
C1771 C 0.6569 1.00248 0.90961 0.0
C1772 C 0.66054 0.07381 0.84122 0.0
C1773 C 0.64024 0.06807 0.77985 0.0
N1774 N 0.65686 1.02413 0.88782 0.0
N1775 N 0.64073 0.04633 0.80149 0.0
H1776 H 0.55399 0.10921 0.9601 0.0
H1777 H 0.57759 0.2034 0.80648 0.0
H1778 H 0.57502 0.19463 0.96455 0.0
H1779 H 0.59465 0.11709 0.80403 0.0
H1780 H 0.56532 0.19934 0.86307 0.0
H1781 H 0.55988 0.11081 0.90171 0.0
C1782 C 0.56007 0.12822 0.9488 0.0
C1783 C 0.56428 0.15179 0.9672 0.0
C1784 C 0.57143 0.18122 0.85007 0.0
C1785 C 0.57034 0.15384 0.90064 0.0
C1786 C 0.57823 0.18347 0.81777 0.0
C1787 C 0.58772 0.16065 0.80084 0.0
C1788 C 0.57379 0.15587 0.86549 0.0
C1789 C 0.58764 0.13521 0.81635 0.0
C1790 C 0.56334 0.1291 0.91557 0.0
C1791 C 0.57205 0.17589 0.95137 0.0
N1792 N 0.58113 0.13352 0.84805 0.0
N1793 N 0.5746 0.17635 0.91899 0.0
H1794 H 0.72583 0.78914 0.183 0.0
H1795 H 0.6997 0.8381 0.02817 0.0
H1796 H 0.64511 0.82044 0.20582 0.0
H1797 H 0.61889 0.85734 0.06479 0.0
H1798 H 0.71097 0.81704 0.0793 0.0
H1799 H 0.71796 0.79954 0.12683 0.0
C1800 C 0.7064 0.7982 0.17618 0.0
C1801 C 0.68628 0.8043 0.19939 0.0
C1802 C 0.69062 0.82545 0.07629 0.0
C1803 C 0.67708 0.81678 0.13469 0.0
C1804 C 0.68417 0.83748 0.04682 0.0
C1805 C 0.65855 0.85009 0.04238 0.0
C1806 C 0.67112 0.82586 0.10141 0.0
C1807 C 0.63914 0.84845 0.0673 0.0
C1808 C 0.70193 0.80435 0.1439 0.0
C1809 C 0.66154 0.81602 0.18903 0.0
N1810 N 0.64593 0.8369 0.0957 0.0
N1811 N 0.65775 0.82192 0.15762 0.0
H1812 H 0.98268 0.96474 0.27322 0.0
H1813 H 0.08879 0.87794 0.37527 0.0
H1814 H 0.96729 0.88117 0.30109 0.0
H1815 H 0.0838 0.96561 0.38234 0.0
H1816 H 0.04743 0.87821 0.34206 0.0
H1817 H 1.02308 0.96513 0.30794 0.0
C1818 C 0.98775 0.94654 0.28676 0.0
C1819 C 0.97164 0.92292 0.28443 0.0
C1820 C 0.05538 0.89736 0.35097 0.0
C1821 C 1.0178 0.92312 0.32357 0.0
C1822 C 0.079 0.89722 0.36966 0.0
C1823 C 0.08955 0.92179 0.38144 0.0
C1824 C 0.04259 0.92228 0.34366 0.0
C1825 C 0.07609 0.94625 0.3738 0.0
C1826 C 1.0107 0.94681 0.30656 0.0
C1827 C 0.97902 0.89989 0.30246 0.0
N1828 N 0.05334 0.94592 0.35517 0.0
N1829 N 1.00175 0.90047 0.32108 0.0
H1830 H 0.85511 0.23393 0.54688 0.0
H1831 H 0.94329 0.26013 0.70341 0.0
H1832 H 0.94318 0.22461 0.55184 0.0
H1833 H 0.85972 0.28867 0.69496 0.0
H1834 H 0.94317 0.24809 0.64688 0.0
H1835 H 0.85571 0.2562 0.59951 0.0
C1836 C 0.87457 0.23707 0.5587 0.0
C1837 C 0.89904 0.22695 0.54531 0.0
C1838 C 0.92484 0.25709 0.65724 0.0
C1839 C 0.89994 0.2522 0.60522 0.0
C1840 C 0.92485 0.26372 0.68961 0.0
C1841 C 0.90137 0.27505 0.70396 0.0
C1842 C 0.90103 0.26143 0.639 0.0
C1843 C 0.87822 0.27987 0.68478 0.0
C1844 C 0.87492 0.2497 0.58874 0.0
C1845 C 0.92376 0.2317 0.56152 0.0
N1846 N 0.8785 0.27273 0.65333 0.0
N1847 N 0.92353 0.24369 0.59068 0.0
H1848 H 0.52852 0.97695 0.07162 0.0
H1849 H 0.49189 0.87659 0.21688 0.0
H1850 H 0.50133 0.89376 0.06028 0.0
H1851 H 0.49184 0.96411 0.22759 0.0
H1852 H 0.50448 0.88215 0.16067 0.0
H1853 H 0.52235 0.97233 0.12969 0.0
C1854 C 0.52104 0.9578 0.08133 0.0
C1855 C 0.51519 0.93576 0.06103 0.0
C1856 C 0.50205 0.90016 0.17536 0.0
C1857 C 0.50858 0.93025 0.12735 0.0
C1858 C 0.49511 0.897 0.20752 0.0
C1859 C 0.49052 0.91993 0.22683 0.0
C1860 C 0.50462 0.92646 0.16231 0.0
C1861 C 0.49522 0.94589 0.21354 0.0
C1862 C 0.51759 0.95519 0.11442 0.0
C1863 C 0.5056 0.91142 0.0749 0.0
N1864 N 0.50173 0.94849 0.18192 0.0
N1865 N 0.50276 0.90929 0.10717 0.0
H1866 H 0.37442 0.27777 0.83265 0.0
H1867 H 0.39087 0.26453 0.02211 0.0
H1868 H 0.33329 0.33088 0.89982 0.0
H1869 H 0.43665 0.21623 0.95393 0.0
H1870 H 0.37081 0.29023 0.97798 0.0
H1871 H 0.39812 0.25571 0.87701 0.0
C1872 C 0.37043 0.28486 0.85675 0.0
C1873 C 0.35179 0.30618 0.86252 0.0
C1874 C 0.38543 0.27416 0.9727 0.0
C1875 C 0.37878 0.28086 0.91355 0.0
C1876 C 0.39694 0.25947 0.99795 0.0
C1877 C 0.41527 0.23794 0.99186 0.0
C1878 C 0.39225 0.26726 0.94107 0.0
C1879 C 0.42257 0.23258 0.95992 0.0
C1880 C 0.38395 0.27221 0.8821 0.0
C1881 C 0.34717 0.31424 0.8943 0.0
N1882 N 0.41085 0.24696 0.93576 0.0
N1883 N 0.36056 0.30156 0.91863 0.0
H1884 H 0.0953 0.1196 0.75813 0.0
H1885 H 0.99951 0.20866 0.6463 0.0
H1886 H 0.11792 0.20043 0.72597 0.0
H1887 H 0.9959 0.12071 0.64753 0.0
H1888 H 0.04137 0.20672 0.67845 0.0
H1889 H 0.05689 0.12001 0.72056 0.0
C1890 C 0.09221 0.13738 0.74309 0.0
C1891 C 0.10969 0.16006 0.74517 0.0
C1892 C 1.03157 0.18784 0.67142 0.0
C1893 C 0.06589 0.16072 0.70252 0.0
C1894 C 1.00769 0.18896 0.65326 0.0
C1895 C 0.99437 0.1648 0.64444 0.0
C1896 C 0.04185 0.16241 0.68126 0.0
C1897 C 1.00576 0.13976 0.65379 0.0
C1898 C 0.07043 0.13754 0.72158 0.0
C1899 C 0.10495 0.18249 0.72502 0.0
N1900 N 1.02874 0.13919 0.67205 0.0
N1901 N 0.0833 0.18238 0.70473 0.0
H1902 H 0.2225 0.83707 0.49182 0.0
H1903 H 0.14106 0.8273 0.32733 0.0
H1904 H 0.138 0.86118 0.47924 0.0
H1905 H 0.21917 0.78725 0.34112 0.0
H1906 H 0.13999 0.83892 0.38392 0.0
H1907 H 0.22184 0.81606 0.4383 0.0
C1908 C 0.2036 0.83706 0.47824 0.0
C1909 C 0.18025 0.85069 0.48979 0.0
C1910 C 0.15733 0.82743 0.37472 0.0
C1911 C 0.17949 0.8277 0.42874 0.0
C1912 C 0.15806 0.82104 0.34228 0.0
C1913 C 0.18034 0.80651 0.32939 0.0
C1914 C 0.17915 0.81944 0.39459 0.0
C1915 C 0.20155 0.79844 0.35011 0.0
C1916 C 0.20328 0.82541 0.44763 0.0
C1917 C 0.15642 0.85078 0.47111 0.0
N1918 N 0.20056 0.80521 0.38166 0.0
N1919 N 0.15674 0.83978 0.44145 0.0
H1920 H 0.08011 0.69005 0.46656 0.0
H1921 H 0.08978 0.61986 0.29572 0.0
H1922 H 0.05253 0.60749 0.45115 0.0
H1923 H 0.09128 0.7069 0.30997 0.0
H1924 H 0.07588 0.61382 0.35187 0.0
H1925 H 0.08657 0.69551 0.40891 0.0
C1926 C 0.07577 0.67295 0.45104 0.0
C1927 C 0.06605 0.6482 0.46365 0.0
C1928 C 0.07895 0.63425 0.34255 0.0
C1929 C 0.07286 0.65443 0.39756 0.0
C1930 C 0.08673 0.63768 0.31048 0.0
C1931 C 0.09258 0.66382 0.29854 0.0
C1932 C 0.0771 0.65719 0.36256 0.0
C1933 C 0.08793 0.6863 0.31856 0.0
C1934 C 0.07907 0.67618 0.4181 0.0
C1935 C 0.0601 0.62691 0.44235 0.0
N1936 N 0.08094 0.68246 0.3497 0.0
N1937 N 0.06375 0.63044 0.41032 0.0
H1938 H 0.22396 0.25508 0.65205 0.0
H1939 H 0.18887 0.32086 0.50752 0.0
H1940 H 0.21618 0.33621 0.69078 0.0
H1941 H 0.14387 0.37509 0.57012 0.0
H1942 H 0.20825 0.29828 0.55468 0.0
H1943 H 0.20437 0.27148 0.60158 0.0
C1944 C 0.21828 0.27639 0.6498 0.0
C1945 C 0.2218 0.2944 0.67551 0.0
C1946 C 0.19364 0.31471 0.558 0.0
C1947 C 0.19953 0.31324 0.61803 0.0
C1948 C 0.18258 0.32764 0.53109 0.0
C1949 C 0.16451 0.34981 0.53474 0.0
C1950 C 0.18679 0.32427 0.58869 0.0
C1951 C 0.15745 0.35795 0.56594 0.0
C1952 C 0.20733 0.28575 0.62095 0.0
C1953 C 0.21411 0.32176 0.67142 0.0
N1954 N 0.16889 0.34544 0.59162 0.0
N1955 N 0.20308 0.33028 0.64333 0.0
H1956 H 0.4575 0.37901 0.80341 0.0
H1957 H 0.57846 0.46328 0.88524 0.0
H1958 H 0.4822 0.45924 0.77115 0.0
H1959 H 0.57317 0.37544 0.88814 0.0
H1960 H 0.53724 0.4645 0.85165 0.0
H1961 H 0.49431 0.37986 0.84285 0.0
C1962 C 0.47055 0.39688 0.80476 0.0
C1963 C 0.46697 0.41902 0.78385 0.0
C1964 C 0.54504 0.44501 0.85986 0.0
C1965 C 0.50888 0.42013 0.82898 0.0
C1966 C 0.56835 0.44432 0.87912 0.0
C1967 C 0.57914 0.41921 0.88917 0.0
C1968 C 0.53236 0.42043 0.8511 0.0
C1969 C 0.56553 0.39517 0.88052 0.0
C1970 C 0.49158 0.39729 0.82719 0.0
C1971 C 0.48449 0.44163 0.78662 0.0
N1972 N 0.54281 0.39635 0.86193 0.0
N1973 N 0.50473 0.44162 0.80883 0.0
H1974 H 0.43218 0.72617 0.05266 0.0
H1975 H 0.31907 0.7801 0.17684 0.0
H1976 H 0.34608 0.73283 0.02971 0.0
H1977 H 0.40648 0.78134 0.19399 0.0
H1978 H 0.3281 0.76274 0.12282 0.0
H1979 H 0.42313 0.74855 0.1036 0.0
C1980 C 0.41136 0.73257 0.05827 0.0
C1981 C 0.3897 0.7271 0.03729 0.0
C1982 C 0.34528 0.76688 0.13842 0.0
C1983 C 0.37906 0.75219 0.09587 0.0
C1984 C 0.34012 0.77649 0.16931 0.0
C1985 C 0.36207 0.78219 0.18983 0.0
C1986 C 0.37257 0.76283 0.12816 0.0
C1987 C 0.38897 0.77748 0.1788 0.0
C1988 C 0.40618 0.74529 0.0874 0.0
C1989 C 0.36324 0.7362 0.04549 0.0
N1990 N 0.39345 0.76807 0.14876 0.0
N1991 N 0.35853 0.74792 0.07443 0.0
H1992 H 1.02974 0.47565 0.57161 0.0
H1993 H 0.98614 0.46458 0.73155 0.0
H1994 H 0.9964 0.39439 0.56344 0.0
H1995 H 0.99052 0.37784 0.71507 0.0
H1996 H 0.9986 0.47255 0.67557 0.0
H1997 H 1.02357 0.47314 0.62953 0.0
C1998 C 1.02077 0.45741 0.58201 0.0
C1999 C 1.0133 0.43529 0.56263 0.0
C2000 C 0.99761 0.45177 0.68431 0.0
C2001 C 1.00574 0.43241 0.62892 0.0
C2002 C 0.99055 0.44723 0.71636 0.0
C2003 C 0.98711 0.42052 0.72783 0.0
C2004 C 1.00136 0.42934 0.66379 0.0
C2005 C 0.99253 0.39876 0.70702 0.0
C2006 C 1.01706 0.45607 0.61511 0.0
C2007 C 1.00191 0.41213 0.57737 0.0
N2008 N 0.99903 0.40365 0.67594 0.0
N2009 N 0.99863 0.41125 0.60963 0.0
H2010 H 0.94601 0.77327 0.32681 0.0
H2011 H 0.8807 0.74364 0.4997 0.0
H2012 H 0.86134 0.79131 0.34993 0.0
H2013 H 0.96553 0.72971 0.47397 0.0
H2014 H 0.87367 0.76586 0.44753 0.0
H2015 H 0.95393 0.76113 0.38252 0.0
C2016 C 0.92902 0.77459 0.34365 0.0
C2017 C 0.90286 0.78287 0.33354 0.0
C2018 C 0.89389 0.75819 0.4535 0.0
C2019 C 0.91183 0.76915 0.39782 0.0
C2020 C 0.89792 0.74563 0.48332 0.0
C2021 C 0.92354 0.73414 0.4908 0.0
C2022 C 0.91574 0.75941 0.43128 0.0
C2023 C 0.94524 0.73755 0.46884 0.0
C2024 C 0.9336 0.76784 0.37558 0.0
C2025 C 0.88182 0.78492 0.35667 0.0
N2026 N 0.94078 0.74957 0.44007 0.0
N2027 N 0.88667 0.77781 0.38768 0.0
H2028 H 0.49807 0.61914 0.14385 0.0
H2029 H 0.61729 0.70528 0.22636 0.0
H2030 H 0.50215 0.70705 0.14255 0.0
H2031 H 0.59728 0.62311 0.25592 0.0
H2032 H 0.57982 0.70398 0.18815 0.0
H2033 H 0.53923 0.61806 0.17772 0.0
C2034 C 0.50787 0.63814 0.15044 0.0
C2035 C 0.4968 0.66323 0.14067 0.0
C2036 C 0.58367 0.68618 0.20289 0.0
C2037 C 0.54347 0.66218 0.17901 0.0
C2038 C 0.6052 0.68683 0.22458 0.0
C2039 C 0.61045 0.66423 0.24427 0.0
C2040 C 0.56733 0.6627 0.20067 0.0
C2041 C 0.59377 0.64103 0.24127 0.0
C2042 C 0.53113 0.63754 0.16985 0.0
C2043 C 0.50999 0.68733 0.1499 0.0
N2044 N 0.5729 0.64081 0.21977 0.0
N2045 N 0.53266 0.68621 0.16855 0.0
H2046 H 0.73706 0.36278 0.99068 0.0
H2047 H 0.66739 0.30748 0.83044 0.0
H2048 H 0.64962 0.35414 0.97722 0.0
H2049 H 0.75521 0.31566 0.84085 0.0
H2050 H 0.66107 0.32366 0.885 0.0
H2051 H 0.74488 0.34322 0.93744 0.0
C2052 C 0.71956 0.35622 0.97678 0.0
C2053 C 0.69264 0.36024 0.98814 0.0
C2054 C 0.68177 0.32195 0.87548 0.0
C2055 C 0.70136 0.33811 0.9274 0.0
C2056 C 0.68537 0.31276 0.84427 0.0
C2057 C 0.71188 0.31008 0.83117 0.0
C2058 C 0.70483 0.32851 0.89396 0.0
C2059 C 0.73442 0.31759 0.85 0.0
C2060 C 0.72401 0.34529 0.94632 0.0
C2061 C 0.67069 0.35156 0.9692 0.0
N2062 N 0.7304 0.32635 0.88057 0.0
N2063 N 0.67553 0.34099 0.93976 0.0
H2064 H 0.25916 0.21773 0.19671 0.0
H2065 H 0.31059 0.30731 0.34346 0.0
H2066 H 0.34062 0.25263 0.20156 0.0
H2067 H 0.22451 0.29705 0.32238 0.0
H2068 H 0.32233 0.28377 0.29372 0.0
H2069 H 0.24621 0.2435 0.24455 0.0
C2070 C 0.27431 0.23087 0.20761 0.0
C2071 C 0.30116 0.23272 0.195 0.0
C2072 C 0.30086 0.28675 0.29986 0.0
C2073 C 0.28648 0.26193 0.25024 0.0
C2074 C 0.29416 0.30007 0.32831 0.0
C2075 C 0.26654 0.30408 0.33705 0.0
C2076 C 0.27981 0.27697 0.28012 0.0
C2077 C 0.24606 0.29452 0.31638 0.0
C2078 C 0.26689 0.2455 0.23503 0.0
C2079 C 0.31991 0.24989 0.21066 0.0
N2080 N 0.2531 0.28119 0.28898 0.0
N2081 N 0.31227 0.26363 0.23747 0.0
H2082 H 0.57319 0.59991 0.45574 0.0
H2083 H 0.5069 0.48831 0.57413 0.0
H2084 H 0.56655 0.51436 0.43285 0.0
H2085 H 0.51132 0.57429 0.59558 0.0
H2086 H 0.52893 0.49733 0.52238 0.0
H2087 H 0.55143 0.59075 0.50759 0.0
C2088 C 0.56734 0.57917 0.4617 0.0
C2089 C 0.57171 0.55788 0.43986 0.0
C2090 C 0.52507 0.51423 0.53841 0.0
C2091 C 0.54648 0.54726 0.4991 0.0
C2092 C 0.51233 0.5091 0.56789 0.0
C2093 C 0.50724 0.53056 0.58929 0.0
C2094 C 0.5328 0.54102 0.53019 0.0
C2095 C 0.51516 0.55705 0.58007 0.0
C2096 C 0.55474 0.57397 0.49124 0.0
C2097 C 0.56329 0.53146 0.44873 0.0
N2098 N 0.52751 0.56151 0.55127 0.0
N2099 N 0.55111 0.52691 0.47763 0.0
H2100 H 0.21455 0.78752 0.67463 0.0
H2101 H 0.28757 0.74771 0.83626 0.0
H2102 H 0.18052 0.81039 0.76617 0.0
H2103 H 0.2913 0.69482 0.7538 0.0
H2104 H 0.25172 0.77422 0.81004 0.0
H2105 H 0.24675 0.7568 0.70193 0.0
C2106 C 0.2138 0.7859 0.70046 0.0
C2107 C 0.19488 0.80138 0.71824 0.0
C2108 C 0.26032 0.75668 0.79785 0.0
C2109 C 0.23178 0.76681 0.74952 0.0
C2110 C 0.28072 0.74134 0.81287 0.0
C2111 C 0.29269 0.71877 0.79738 0.0
C2112 C 0.25213 0.74989 0.7668 0.0
C2113 C 0.28324 0.71227 0.76658 0.0
C2114 C 0.23206 0.76837 0.71598 0.0
C2115 C 0.19467 0.79861 0.75165 0.0
N2116 N 0.26375 0.72789 0.7522 0.0
N2117 N 0.21309 0.7819 0.76627 0.0
H2118 H 0.12356 0.49412 0.10106 0.0
H2119 H 1.00166 0.50098 0.97458 0.0
H2120 H 0.0491 0.5408 0.11426 0.0
H2121 H 0.081 0.46488 0.95561 0.0
H2122 H 1.01409 0.50554 0.03094 0.0
H2123 H 0.10368 0.47351 0.05329 0.0
C2124 C 0.10281 0.49961 0.09428 0.0
C2125 C 0.08814 0.51955 0.1113 0.0
C2126 C 1.0286 0.49618 1.01456 0.0
C2127 C 0.0654 0.49632 0.05653 0.0
C2128 C 1.02143 0.49339 0.98246 0.0
C2129 C 1.04054 0.48298 0.96038 0.0
C2130 C 0.05506 0.48851 0.02456 0.0
C2131 C 0.06591 0.47354 0.97181 0.0
C2132 C 0.09153 0.48797 0.0669 0.0
C2133 C 0.06136 0.52596 0.10137 0.0
N2134 N 0.07259 0.47687 1.00303 0.0
N2135 N 0.05098 0.51464 0.07443 0.0
H2136 H 0.82209 0.85425 0.83742 0.0
H2137 H 0.76871 0.77116 0.68584 0.0
H2138 H 0.73816 0.82694 0.82706 0.0
H2139 H 0.85484 0.7794 0.70778 0.0
H2140 H 0.75713 0.79367 0.73625 0.0
H2141 H 0.83454 0.82893 0.78913 0.0
C2142 C 0.80625 0.84287 0.82521 0.0
C2143 C 0.77891 0.84301 0.83652 0.0
C2144 C 0.77857 0.79047 0.73018 0.0
C2145 C 0.79311 0.81423 0.78063 0.0
C2146 C 0.78521 0.7777 0.70132 0.0
C2147 C 0.8128 0.77348 0.69249 0.0
C2148 C 0.79966 0.79946 0.75039 0.0
C2149 C 0.8333 0.7821 0.71372 0.0
C2150 C 0.81341 0.82848 0.7975 0.0
C2151 C 0.75935 0.8281 0.81911 0.0
N2152 N 0.82634 0.79489 0.74153 0.0
N2153 N 0.7668 0.81448 0.79209 0.0
H2154 H 0.73906 0.32268 0.20134 0.0
H2155 H 0.83925 0.25744 0.33231 0.0
H2156 H 0.79092 0.37013 0.2634 0.0
H2157 H 0.78323 0.20984 0.27547 0.0
H2158 H 0.823 0.29875 0.30572 0.0
H2159 H 0.75611 0.28097 0.22666 0.0
C2160 C 0.75412 0.32432 0.22023 0.0
C2161 C 0.76363 0.34995 0.23025 0.0
C2162 C 0.81425 0.27929 0.29901 0.0
C2163 C 0.78312 0.30228 0.25944 0.0
C2164 C 0.82345 0.25568 0.31428 0.0
C2165 C 0.8124 0.23013 0.30631 0.0
C2166 C 0.79386 0.27743 0.27549 0.0
C2167 C 0.79244 0.22906 0.28224 0.0
C2168 C 0.76375 0.3005 0.23476 0.0
C2169 C 0.78281 0.35085 0.25516 0.0
N2170 N 0.78373 0.25239 0.26777 0.0
N2171 N 0.79196 0.32737 0.26882 0.0
H2172 H 0.11847 1.03789 0.96017 0.0
H2173 H 0.97616 1.01371 0.05329 0.0
H2174 H 1.04004 1.0353 0.91262 0.0
H2175 H 0.05595 1.00642 0.09704 0.0
H2176 H 0.99876 1.01935 1.00107 0.0
H2177 H 0.09565 1.02531 1.01031 0.0
C2178 C 0.09642 1.03473 0.9603 0.0
C2179 C 0.08115 1.03779 0.93216 0.0
C2180 C 1.0113 1.01627 0.02207 0.0
C2181 C 0.05479 1.02316 0.98957 0.0
C2182 C 0.9984 1.01284 0.05186 0.0
C2183 C 1.01419 1.00996 0.07966 0.0
C2184 C 1.04019 1.01686 0.02012 0.0
C2185 C 0.04296 1.00918 0.07636 0.0
C2186 C 0.0834 1.02734 0.98891 0.0
C2187 C 0.05266 1.03298 0.93369 0.0
N2188 N 0.055 1.01287 0.04726 0.0
N2189 N 1.04037 1.02609 0.96193 0.0
H2190 H 0.55276 1.03355 0.61355 0.0
H2191 H 0.58436 0.97635 0.43973 0.0
H2192 H 0.63219 1.00334 0.58371 0.0
H2193 H 0.50422 1.00349 0.47096 0.0
H2194 H 0.60024 0.9782 0.49505 0.0
H2195 H 0.53275 1.01524 0.56468 0.0
C2196 C 0.56592 1.02275 0.59684 0.0
C2197 C 0.59424 1.02032 0.60241 0.0
C2198 C 0.57904 0.98331 0.48995 0.0
C2199 C 0.57155 0.99942 0.54633 0.0
C2200 C 0.57 0.98227 0.45839 0.0
C2201 C 0.54311 0.99025 0.45079 0.0
C2202 C 0.56113 0.9927 0.51402 0.0
C2203 C 0.52516 0.99728 0.47582 0.0
C2204 C 0.55448 1.01222 0.56899 0.0
C2205 C 0.61027 1.00571 0.5803 0.0
N2206 N 0.53463 0.99881 0.50627 0.0
N2207 N 0.59878 0.9962 0.55297 0.0
loop_
_geom_bond_atom_site_label_1
_geom_bond_atom_site_label_2
_geom_bond_distance
_geom_bond_site_symmetry_2
_ccdc_geom_bond_type
Eu0 N29 2.600 . S
Eu0 N35 2.562 . S
Eu0 O44 2.462 . S
Eu0 O45 2.373 . S
Eu0 O47 2.432 . S
Eu0 O48 2.291 . S
Eu0 O52 2.335 . S
Eu0 O55 2.372 . S
Eu0 C64 2.787 . S
C1 N2 1.365 1_556 S
C1 C4 1.405 . S
C1 C8 1.448 . S
N2 C1 1.365 1_554 S
N2 C5 1.319 . S
N2 Eu11 2.600 . S
C3 C5 1.397 . S
C3 C6 1.367 . S
C3 H23 0.931 . S
C4 C1 1.405 . S
C4 C6 1.403 1_556 S
C4 C10 1.439 . S
C5 N2 1.319 . S
C5 C3 1.397 . S
C5 H16 0.930 . S
C6 C3 1.367 . S
C6 C4 1.403 1_554 S
C6 H27 0.929 . S
C7 C8 1.430 . S
C7 C9 1.387 . S
C7 C13 1.404 . S
C8 C1 1.448 . S
C8 C7 1.430 . S
C8 N12 1.351 . S
C9 C7 1.387 . S
C9 C10 1.374 . S
C9 H24 0.931 . S
C10 C4 1.439 . S
C10 C9 1.374 . S
C10 H25 0.931 . S
Eu11 N2 2.600 . S
Eu11 N12 2.562 1_554 S
Eu11 O46 2.335 . S
Eu11 O49 2.372 . S
Eu11 O50 2.462 1_554 S
Eu11 O51 2.373 . S
Eu11 O53 2.432 1_554 S
Eu11 O54 2.291 1_554 S
Eu11 C75 2.787 1_554 S
N12 C8 1.351 . S
N12 Eu11 2.562 1_556 S
N12 C14 1.325 . S
C13 C7 1.404 . S
C13 C15 1.366 . S
C13 H21 0.930 . S
C14 N12 1.325 . S
C14 C15 1.416 . S
C14 H20 0.929 . S
C15 C13 1.366 . S
C15 C14 1.416 . S
C15 H17 0.930 . S
H16 C5 0.930 . S
H17 C15 0.930 . S
H18 C33 0.930 . S
H19 C40 0.930 . S
H20 C14 0.929 . S
H21 C13 0.930 . S
H22 C36 0.929 . S
H23 C3 0.931 . S
H24 C9 0.931 . S
H25 C10 0.931 . S
H26 C31 0.931 . S
H27 C6 0.929 . S
H28 C39 0.930 . S
N29 Eu0 2.600 . S
N29 C30 1.365 . S
N29 C33 1.319 . S
C30 N29 1.365 . S
C30 C32 1.405 . S
C30 C38 1.448 . S
C31 H26 0.931 . S
C31 C33 1.397 . S
C31 C34 1.367 . S
C32 C30 1.405 . S
C32 C34 1.403 . S
C32 C65 1.439 . S
C33 H18 0.930 . S
C33 N29 1.319 . S
C33 C31 1.397 . S
C34 C31 1.367 . S
C34 C32 1.403 . S
C34 H41 0.929 . S
N35 Eu0 2.562 . S
N35 C36 1.325 . S
N35 C38 1.351 . S
C36 H22 0.929 . S
C36 N35 1.325 . S
C36 C40 1.416 . S
C37 C38 1.430 . S
C37 C39 1.404 . S
C37 C66 1.387 . S
C38 C30 1.448 . S
C38 N35 1.351 . S
C38 C37 1.430 . S
C39 H28 0.930 . S
C39 C37 1.404 . S
C39 C40 1.366 . S
C40 H19 0.930 . S
C40 C36 1.416 . S
C40 C39 1.366 . S
H41 C34 0.929 . S
H42 C65 0.931 . S
H43 C66 0.931 . S
O44 Eu0 2.462 . S
O44 C64 1.252 . S
O45 Eu0 2.373 . S
O45 C56 1.249 . S
O46 Eu11 2.335 . S
O46 C56 1.264 . S
O47 Eu0 2.432 . S
O47 C64 1.268 . S
O48 Eu0 2.291 . S
O48 C63 1.255 . S
O49 Eu11 2.372 . S
O49 C63 1.257 . S
O50 Eu11 2.462 1_556 S
O50 C75 1.252 . S
O51 Eu11 2.373 . S
O51 C67 1.249 . S
O52 Eu0 2.335 . S
O52 C67 1.264 . S
O53 Eu11 2.432 1_556 S
O53 C75 1.268 . S
O54 Eu11 2.291 1_556 S
O54 C74 1.255 . S
O55 Eu0 2.372 . S
O55 C74 1.257 1_554 S
C56 O45 1.249 . S
C56 O46 1.264 . S
C57 C60 1.382 . S
C57 C62 1.390 . S
C57 C64 1.506 . S
C58 C59 1.398 . S
C58 C62 1.392 . S
C59 C58 1.398 . S
C59 C61 1.372 . S
C59 H76 0.931 . S
C60 C57 1.382 . S
C60 C61 1.390 . S
C60 H77 0.931 . S
C61 C59 1.372 . S
C61 C60 1.390 . S
C61 H78 0.929 . S
C62 C57 1.390 . S
C62 C58 1.392 . S
C62 H79 0.930 . S
C63 O48 1.255 . S
C63 O49 1.257 . S
C64 Eu0 2.787 . S
C64 O44 1.252 . S
C64 O47 1.268 . S
C64 C57 1.506 . S
C65 C32 1.439 . S
C65 H42 0.931 . S
C65 C66 1.374 . S
C66 C37 1.387 . S
C66 H43 0.931 . S
C66 C65 1.374 . S
C67 O51 1.249 . S
C67 O52 1.264 . S
C68 C71 1.382 . S
C68 C72 1.390 . S
C68 C75 1.506 . S
C69 C70 1.398 . S
C69 C72 1.392 . S
C70 C69 1.398 . S
C70 C73 1.372 . S
C70 H80 0.931 . S
C71 C68 1.382 . S
C71 C73 1.390 . S
C71 H81 0.931 . S
C72 C68 1.390 . S
C72 C69 1.392 . S
C72 H82 0.930 . S
C73 C70 1.372 . S
C73 C71 1.390 . S
C73 H83 0.929 . S
C74 O54 1.255 . S
C74 O55 1.257 1_556 S
C75 Eu11 2.787 1_556 S
C75 O50 1.252 . S
C75 O53 1.268 . S
C75 C68 1.506 . S
H76 C59 0.931 . S
H77 C60 0.931 . S
H78 C61 0.929 . S
H79 C62 0.930 . S
H80 C70 0.931 . S
H81 C71 0.931 . S
H82 C72 0.930 . S
H83 C73 0.929 . S
Eu84 N113 2.600 . S
Eu84 N119 2.562 . S
Eu84 O128 2.462 . S
Eu84 O129 2.373 . S
Eu84 O131 2.432 . S
Eu84 O132 2.291 . S
Eu84 O136 2.335 . S
Eu84 O139 2.372 . S
Eu84 C148 2.787 . S
C85 N86 1.365 . S
C85 C88 1.405 . S
C85 C92 1.448 . S
N86 C85 1.365 . S
N86 C89 1.319 . S
N86 Eu95 2.600 . S
C87 C89 1.397 . S
C87 C90 1.367 . S
C87 H107 0.931 . S
C88 C85 1.405 . S
C88 C90 1.403 . S
C88 C94 1.439 . S
C89 N86 1.319 . S
C89 C87 1.397 . S
C89 H100 0.930 . S
C90 C87 1.367 . S
C90 C88 1.403 . S
C90 H111 0.929 . S
C91 C92 1.430 . S
C91 C93 1.387 . S
C91 C97 1.404 . S
C92 C85 1.448 . S
C92 C91 1.430 . S
C92 N96 1.351 . S
C93 C91 1.387 . S
C93 C94 1.374 . S
C93 H108 0.931 . S
C94 C88 1.439 . S
C94 C93 1.374 . S
C94 H109 0.931 . S
Eu95 N86 2.600 . S
Eu95 N96 2.562 . S
Eu95 O130 2.335 . S
Eu95 O133 2.372 . S
Eu95 O134 2.462 . S
Eu95 O135 2.373 . S
Eu95 O137 2.432 . S
Eu95 O138 2.291 . S
Eu95 C159 2.787 . S
N96 C92 1.351 . S
N96 Eu95 2.562 . S
N96 C98 1.325 . S
C97 C91 1.404 . S
C97 C99 1.366 . S
C97 H105 0.930 . S
C98 N96 1.325 . S
C98 C99 1.416 . S
C98 H104 0.929 . S
C99 C97 1.366 . S
C99 C98 1.416 . S
C99 H101 0.930 . S
H100 C89 0.930 . S
H101 C99 0.930 . S
H102 C117 0.930 . S
H103 C124 0.930 . S
H104 C98 0.929 . S
H105 C97 0.930 . S
H106 C120 0.929 . S
H107 C87 0.931 . S
H108 C93 0.931 . S
H109 C94 0.931 . S
H110 C115 0.931 . S
H111 C90 0.929 . S
H112 C123 0.930 . S
N113 Eu84 2.600 . S
N113 C114 1.365 . S
N113 C117 1.319 . S
C114 N113 1.365 . S
C114 C116 1.405 . S
C114 C122 1.448 . S
C115 H110 0.931 . S
C115 C117 1.397 . S
C115 C118 1.367 . S
C116 C114 1.405 . S
C116 C118 1.403 . S
C116 C149 1.439 . S
C117 H102 0.930 . S
C117 N113 1.319 . S
C117 C115 1.397 . S
C118 C115 1.367 . S
C118 C116 1.403 . S
C118 H125 0.929 . S
N119 Eu84 2.562 . S
N119 C120 1.325 . S
N119 C122 1.351 . S
C120 H106 0.929 . S
C120 N119 1.325 . S
C120 C124 1.416 . S
C121 C122 1.430 . S
C121 C123 1.404 . S
C121 C150 1.387 . S
C122 C114 1.448 . S
C122 N119 1.351 . S
C122 C121 1.430 . S
C123 H112 0.930 . S
C123 C121 1.404 . S
C123 C124 1.366 . S
C124 H103 0.930 . S
C124 C120 1.416 . S
C124 C123 1.366 . S
H125 C118 0.929 . S
H126 C149 0.931 . S
H127 C150 0.931 . S
O128 Eu84 2.462 . S
O128 C148 1.252 . S
O129 Eu84 2.373 . S
O129 C140 1.249 . S
O130 Eu95 2.335 . S
O130 C140 1.264 . S
O131 Eu84 2.432 . S
O131 C148 1.268 . S
O132 Eu84 2.291 . S
O132 C147 1.255 . S
O133 Eu95 2.372 . S
O133 C147 1.257 . S
O134 Eu95 2.462 . S
O134 C159 1.252 . S
O135 Eu95 2.373 . S
O135 C151 1.249 . S
O136 Eu84 2.335 . S
O136 C151 1.264 . S
O137 Eu95 2.432 . S
O137 C159 1.268 . S
O138 Eu95 2.291 . S
O138 C158 1.255 . S
O139 Eu84 2.372 . S
O139 C158 1.257 . S
C140 O129 1.249 . S
C140 O130 1.264 . S
C141 C144 1.382 . S
C141 C146 1.390 . S
C141 C148 1.506 . S
C142 C143 1.398 . S
C142 C146 1.392 . S
C143 C142 1.398 . S
C143 C145 1.372 . S
C143 H160 0.931 . S
C144 C141 1.382 . S
C144 C145 1.390 . S
C144 H161 0.931 . S
C145 C143 1.372 . S
C145 C144 1.390 . S
C145 H162 0.929 . S
C146 C141 1.390 . S
C146 C142 1.392 . S
C146 H163 0.930 . S
C147 O132 1.255 . S
C147 O133 1.257 . S
C148 Eu84 2.787 . S
C148 O128 1.252 . S
C148 O131 1.268 . S
C148 C141 1.506 . S
C149 C116 1.439 . S
C149 H126 0.931 . S
C149 C150 1.374 . S
C150 C121 1.387 . S
C150 H127 0.931 . S
C150 C149 1.374 . S
C151 O135 1.249 . S
C151 O136 1.264 . S
C152 C155 1.382 . S
C152 C156 1.390 . S
C152 C159 1.506 . S
C153 C154 1.398 . S
C153 C156 1.392 . S
C154 C153 1.398 . S
C154 C157 1.372 . S
C154 H164 0.931 . S
C155 C152 1.382 . S
C155 C157 1.390 . S
C155 H165 0.931 . S
C156 C152 1.390 . S
C156 C153 1.392 . S
C156 H166 0.930 . S
C157 C154 1.372 . S
C157 C155 1.390 . S
C157 H167 0.929 . S
C158 O138 1.255 . S
C158 O139 1.257 . S
C159 Eu95 2.787 . S
C159 O134 1.252 . S
C159 O137 1.268 . S
C159 C152 1.506 . S
H160 C143 0.931 . S
H161 C144 0.931 . S
H162 C145 0.929 . S
H163 C146 0.930 . S
H164 C154 0.931 . S
H165 C155 0.931 . S
H166 C156 0.930 . S
H167 C157 0.929 . S
Eu168 N197 2.600 . S
Eu168 N203 2.562 . S
Eu168 O212 2.462 . S
Eu168 O213 2.373 . S
Eu168 O215 2.432 . S
Eu168 O216 2.291 . S
Eu168 O220 2.335 . S
Eu168 O223 2.372 . S
Eu168 C232 2.787 . S
C169 N170 1.365 . S
C169 C172 1.405 . S
C169 C176 1.448 . S
N170 C169 1.365 . S
N170 C173 1.319 . S
N170 Eu179 2.600 . S
C171 C173 1.397 . S
C171 C174 1.367 . S
C171 H191 0.931 . S
C172 C169 1.405 . S
C172 C174 1.403 . S
C172 C178 1.439 . S
C173 N170 1.319 . S
C173 C171 1.397 . S
C173 H184 0.930 . S
C174 C171 1.367 . S
C174 C172 1.403 . S
C174 H195 0.929 . S
C175 C176 1.430 . S
C175 C177 1.387 . S
C175 C181 1.404 . S
C176 C169 1.448 . S
C176 C175 1.430 . S
C176 N180 1.351 . S
C177 C175 1.387 . S
C177 C178 1.374 . S
C177 H192 0.931 . S
C178 C172 1.439 . S
C178 C177 1.374 . S
C178 H193 0.931 . S
Eu179 N170 2.600 . S
Eu179 N180 2.562 . S
Eu179 O214 2.335 . S
Eu179 O217 2.372 . S
Eu179 O218 2.462 . S
Eu179 O219 2.373 . S
Eu179 O221 2.432 . S
Eu179 O222 2.291 . S
Eu179 C243 2.787 . S
N180 C176 1.351 . S
N180 Eu179 2.562 . S
N180 C182 1.325 . S
C181 C175 1.404 . S
C181 C183 1.366 . S
C181 H189 0.930 . S
C182 N180 1.325 . S
C182 C183 1.416 . S
C182 H188 0.929 . S
C183 C181 1.366 . S
C183 C182 1.416 . S
C183 H185 0.930 . S
H184 C173 0.930 . S
H185 C183 0.930 . S
H186 C201 0.930 . S
H187 C208 0.930 . S
H188 C182 0.929 . S
H189 C181 0.930 . S
H190 C204 0.929 . S
H191 C171 0.931 . S
H192 C177 0.931 . S
H193 C178 0.931 . S
H194 C199 0.931 . S
H195 C174 0.929 . S
H196 C207 0.930 . S
N197 Eu168 2.600 . S
N197 C198 1.365 . S
N197 C201 1.319 . S
C198 N197 1.365 . S
C198 C200 1.405 . S
C198 C206 1.448 . S
C199 H194 0.931 . S
C199 C201 1.397 . S
C199 C202 1.367 . S
C200 C198 1.405 . S
C200 C202 1.403 . S
C200 C233 1.439 . S
C201 H186 0.930 . S
C201 N197 1.319 . S
C201 C199 1.397 . S
C202 C199 1.367 . S
C202 C200 1.403 . S
C202 H209 0.929 . S
N203 Eu168 2.562 . S
N203 C204 1.325 . S
N203 C206 1.351 . S
C204 H190 0.929 . S
C204 N203 1.325 . S
C204 C208 1.416 . S
C205 C206 1.430 . S
C205 C207 1.404 . S
C205 C234 1.387 . S
C206 C198 1.448 . S
C206 N203 1.351 . S
C206 C205 1.430 . S
C207 H196 0.930 . S
C207 C205 1.404 . S
C207 C208 1.366 . S
C208 H187 0.930 . S
C208 C204 1.416 . S
C208 C207 1.366 . S
H209 C202 0.929 . S
H210 C233 0.931 . S
H211 C234 0.931 . S
O212 Eu168 2.462 . S
O212 C232 1.252 . S
O213 Eu168 2.373 . S
O213 C224 1.249 . S
O214 Eu179 2.335 . S
O214 C224 1.264 . S
O215 Eu168 2.432 . S
O215 C232 1.268 . S
O216 Eu168 2.291 . S
O216 C231 1.255 . S
O217 Eu179 2.372 . S
O217 C231 1.257 . S
O218 Eu179 2.462 . S
O218 C243 1.252 . S
O219 Eu179 2.373 . S
O219 C235 1.249 . S
O220 Eu168 2.335 . S
O220 C235 1.264 . S
O221 Eu179 2.432 . S
O221 C243 1.268 . S
O222 Eu179 2.291 . S
O222 C242 1.255 . S
O223 Eu168 2.372 . S
O223 C242 1.257 . S
C224 O213 1.249 . S
C224 O214 1.264 . S
C225 C228 1.382 . S
C225 C230 1.390 . S
C225 C232 1.506 . S
C226 C227 1.398 . S
C226 C230 1.392 . S
C227 C226 1.398 . S
C227 C229 1.372 . S
C227 H244 0.931 . S
C228 C225 1.382 . S
C228 C229 1.390 . S
C228 H245 0.931 . S
C229 C227 1.372 . S
C229 C228 1.390 . S
C229 H246 0.929 . S
C230 C225 1.390 . S
C230 C226 1.392 . S
C230 H247 0.930 . S
C231 O216 1.255 . S
C231 O217 1.257 . S
C232 Eu168 2.787 . S
C232 O212 1.252 . S
C232 O215 1.268 . S
C232 C225 1.506 . S
C233 C200 1.439 . S
C233 H210 0.931 . S
C233 C234 1.374 . S
C234 C205 1.387 . S
C234 H211 0.931 . S
C234 C233 1.374 . S
C235 O219 1.249 . S
C235 O220 1.264 . S
C236 C239 1.382 . S
C236 C240 1.390 . S
C236 C243 1.506 . S
C237 C238 1.398 . S
C237 C240 1.392 . S
C238 C237 1.398 . S
C238 C241 1.372 . S
C238 H248 0.931 . S
C239 C236 1.382 . S
C239 C241 1.390 . S
C239 H249 0.931 . S
C240 C236 1.390 . S
C240 C237 1.392 . S
C240 H250 0.930 . S
C241 C238 1.372 . S
C241 C239 1.390 . S
C241 H251 0.929 . S
C242 O222 1.255 . S
C242 O223 1.257 . S
C243 Eu179 2.787 . S
C243 O218 1.252 . S
C243 O221 1.268 . S
C243 C236 1.506 . S
H244 C227 0.931 . S
H245 C228 0.931 . S
H246 C229 0.929 . S
H247 C230 0.930 . S
H248 C238 0.931 . S
H249 C239 0.931 . S
H250 C240 0.930 . S
H251 C241 0.929 . S
Eu252 N281 2.600 . S
Eu252 N287 2.562 . S
Eu252 O296 2.462 . S
Eu252 O297 2.373 . S
Eu252 O299 2.432 . S
Eu252 O300 2.291 . S
Eu252 O304 2.335 . S
Eu252 O307 2.372 . S
Eu252 C316 2.787 . S
C253 N254 1.365 . S
C253 C256 1.405 . S
C253 C260 1.448 . S
N254 C253 1.365 . S
N254 C257 1.319 . S
N254 Eu263 2.600 . S
C255 C257 1.397 . S
C255 C258 1.367 . S
C255 H275 0.931 . S
C256 C253 1.405 . S
C256 C258 1.403 . S
C256 C262 1.439 . S
C257 N254 1.319 . S
C257 C255 1.397 . S
C257 H268 0.930 . S
C258 C255 1.367 . S
C258 C256 1.403 . S
C258 H279 0.929 . S
C259 C260 1.430 . S
C259 C261 1.387 . S
C259 C265 1.404 . S
C260 C253 1.448 . S
C260 C259 1.430 . S
C260 N264 1.351 . S
C261 C259 1.387 . S
C261 C262 1.374 . S
C261 H276 0.931 . S
C262 C256 1.439 . S
C262 C261 1.374 . S
C262 H277 0.931 . S
Eu263 N254 2.600 . S
Eu263 N264 2.562 . S
Eu263 O298 2.335 . S
Eu263 O301 2.372 . S
Eu263 O302 2.462 . S
Eu263 O303 2.373 . S
Eu263 O305 2.432 . S
Eu263 O306 2.291 . S
Eu263 C327 2.787 . S
N264 C260 1.351 . S
N264 Eu263 2.562 . S
N264 C266 1.325 . S
C265 C259 1.404 . S
C265 C267 1.366 . S
C265 H273 0.930 . S
C266 N264 1.325 . S
C266 C267 1.416 . S
C266 H272 0.929 . S
C267 C265 1.366 . S
C267 C266 1.416 . S
C267 H269 0.930 . S
H268 C257 0.930 . S
H269 C267 0.930 . S
H270 C285 0.930 . S
H271 C292 0.930 . S
H272 C266 0.929 . S
H273 C265 0.930 . S
H274 C288 0.929 . S
H275 C255 0.931 . S
H276 C261 0.931 . S
H277 C262 0.931 . S
H278 C283 0.931 . S
H279 C258 0.929 . S
H280 C291 0.930 . S
N281 Eu252 2.600 . S
N281 C282 1.365 . S
N281 C285 1.319 1_655 S
C282 N281 1.365 . S
C282 C284 1.405 1_655 S
C282 C290 1.448 . S
C283 H278 0.931 . S
C283 C285 1.397 . S
C283 C286 1.367 . S
C284 C282 1.405 1_455 S
C284 C286 1.403 . S
C284 C317 1.439 . S
C285 H270 0.930 . S
C285 N281 1.319 1_455 S
C285 C283 1.397 . S
C286 C283 1.367 . S
C286 C284 1.403 . S
C286 H293 0.929 . S
N287 Eu252 2.562 . S
N287 C288 1.325 . S
N287 C290 1.351 . S
C288 H274 0.929 . S
C288 N287 1.325 . S
C288 C292 1.416 . S
C289 C290 1.430 . S
C289 C291 1.404 . S
C289 C318 1.387 1_655 S
C290 C282 1.448 . S
C290 N287 1.351 . S
C290 C289 1.430 . S
C291 H280 0.930 . S
C291 C289 1.404 . S
C291 C292 1.366 . S
C292 H271 0.930 . S
C292 C288 1.416 . S
C292 C291 1.366 . S
H293 C286 0.929 . S
H294 C317 0.931 . S
H295 C318 0.931 . S
O296 Eu252 2.462 . S
O296 C316 1.252 . S
O297 Eu252 2.373 . S
O297 C308 1.249 . S
O298 Eu263 2.335 . S
O298 C308 1.264 . S
O299 Eu252 2.432 . S
O299 C316 1.268 . S
O300 Eu252 2.291 . S
O300 C315 1.255 . S
O301 Eu263 2.372 . S
O301 C315 1.257 . S
O302 Eu263 2.462 . S
O302 C327 1.252 . S
O303 Eu263 2.373 . S
O303 C319 1.249 . S
O304 Eu252 2.335 . S
O304 C319 1.264 . S
O305 Eu263 2.432 . S
O305 C327 1.268 . S
O306 Eu263 2.291 . S
O306 C326 1.255 . S
O307 Eu252 2.372 . S
O307 C326 1.257 . S
C308 O297 1.249 . S
C308 O298 1.264 . S
C309 C312 1.382 . S
C309 C314 1.390 . S
C309 C316 1.506 . S
C310 C311 1.398 . S
C310 C314 1.392 . S
C311 C310 1.398 . S
C311 C313 1.372 . S
C311 H328 0.931 . S
C312 C309 1.382 . S
C312 C313 1.390 . S
C312 H329 0.931 . S
C313 C311 1.372 . S
C313 C312 1.390 . S
C313 H330 0.914 1_655 S
C314 C309 1.390 . S
C314 C310 1.392 . S
C314 H331 0.930 . S
C315 O300 1.255 . S
C315 O301 1.257 . S
C316 Eu252 2.787 . S
C316 O296 1.252 . S
C316 O299 1.268 . S
C316 C309 1.506 . S
C317 C284 1.439 . S
C317 H294 0.931 . S
C317 C318 1.374 . S
C318 C289 1.387 1_455 S
C318 H295 0.931 . S
C318 C317 1.374 . S
C319 O303 1.249 . S
C319 O304 1.264 . S
C320 C323 1.382 . S
C320 C324 1.390 . S
C320 C327 1.506 . S
C321 C322 1.398 . S
C321 C324 1.392 . S
C322 C321 1.398 . S
C322 C325 1.372 . S
C322 H332 0.931 . S
C323 C320 1.382 . S
C323 C325 1.390 . S
C323 H333 0.931 . S
C324 C320 1.390 . S
C324 C321 1.392 . S
C324 H334 0.930 . S
C325 C322 1.372 . S
C325 C323 1.390 . S
C325 H335 0.929 . S
C326 O306 1.255 . S
C326 O307 1.257 . S
C327 Eu263 2.787 . S
C327 O302 1.252 . S
C327 O305 1.268 . S
C327 C320 1.506 . S
H328 C311 0.931 . S
H329 C312 0.931 . S
H330 C313 0.914 1_455 S
H331 C314 0.930 . S
H332 C322 0.931 . S
H333 C323 0.931 . S
H334 C324 0.930 . S
H335 C325 0.929 . S
Eu336 N365 2.600 . S
Eu336 N371 2.562 1_556 S
Eu336 O380 2.462 1_556 S
Eu336 O381 2.373 . S
Eu336 O383 2.432 1_556 S
Eu336 O384 2.291 1_556 S
Eu336 O388 2.335 . S
Eu336 O391 2.372 . S
Eu336 C400 2.787 1_556 S
C337 N338 1.365 . S
C337 C340 1.405 . S
C337 C344 1.448 . S
N338 C337 1.365 . S
N338 C341 1.319 . S
N338 Eu347 2.600 . S
C339 C341 1.397 . S
C339 C342 1.367 . S
C339 H359 0.931 . S
C340 C337 1.405 . S
C340 C342 1.403 . S
C340 C346 1.439 . S
C341 N338 1.319 . S
C341 C339 1.397 . S
C341 H352 0.930 . S
C342 C339 1.367 . S
C342 C340 1.403 . S
C342 H363 0.929 . S
C343 C344 1.430 . S
C343 C345 1.387 . S
C343 C349 1.404 . S
C344 C337 1.448 . S
C344 C343 1.430 . S
C344 N348 1.351 . S
C345 C343 1.387 . S
C345 C346 1.374 . S
C345 H360 0.931 . S
C346 C340 1.439 . S
C346 C345 1.374 . S
C346 H361 0.931 . S
Eu347 N338 2.600 . S
Eu347 N348 2.562 . S
Eu347 O382 2.335 . S
Eu347 O385 2.372 . S
Eu347 O386 2.462 . S
Eu347 O387 2.373 . S
Eu347 O389 2.432 . S
Eu347 O390 2.291 . S
Eu347 C411 2.787 . S
N348 C344 1.351 . S
N348 Eu347 2.562 . S
N348 C350 1.325 . S
C349 C343 1.404 . S
C349 C351 1.366 . S
C349 H357 0.930 . S
C350 N348 1.325 . S
C350 C351 1.416 . S
C350 H356 0.929 . S
C351 C349 1.366 . S
C351 C350 1.416 . S
C351 H353 0.930 . S
H352 C341 0.930 . S
H353 C351 0.930 . S
H354 C369 0.930 . S
H355 C376 0.930 . S
H356 C350 0.929 . S
H357 C349 0.930 . S
H358 C372 0.929 . S
H359 C339 0.931 . S
H360 C345 0.931 . S
H361 C346 0.931 . S
H362 C367 0.931 . S
H363 C342 0.929 . S
H364 C375 0.930 . S
N365 Eu336 2.600 . S
N365 C366 1.365 1_556 S
N365 C369 1.319 . S
C366 N365 1.365 1_554 S
C366 C368 1.405 . S
C366 C374 1.448 . S
C367 H362 0.931 . S
C367 C369 1.397 . S
C367 C370 1.367 . S
C368 C366 1.405 . S
C368 C370 1.403 1_554 S
C368 C401 1.439 . S
C369 H354 0.930 . S
C369 N365 1.319 . S
C369 C367 1.397 . S
C370 C367 1.367 . S
C370 C368 1.403 1_556 S
C370 H377 0.929 . S
N371 Eu336 2.562 1_554 S
N371 C372 1.325 . S
N371 C374 1.351 . S
C372 H358 0.929 . S
C372 N371 1.325 . S
C372 C376 1.416 . S
C373 C374 1.430 . S
C373 C375 1.404 . S
C373 C402 1.387 . S
C374 C366 1.448 . S
C374 N371 1.351 . S
C374 C373 1.430 . S
C375 H364 0.930 . S
C375 C373 1.404 . S
C375 C376 1.366 . S
C376 H355 0.930 . S
C376 C372 1.416 . S
C376 C375 1.366 . S
H377 C370 0.929 . S
H378 C401 0.931 . S
H379 C402 0.931 . S
O380 Eu336 2.462 1_554 S
O380 C400 1.252 . S
O381 Eu336 2.373 . S
O381 C392 1.249 . S
O382 Eu347 2.335 . S
O382 C392 1.264 . S
O383 Eu336 2.432 1_554 S
O383 C400 1.268 . S
O384 Eu336 2.291 1_554 S
O384 C399 1.255 . S
O385 Eu347 2.372 . S
O385 C399 1.257 1_556 S
O386 Eu347 2.462 . S
O386 C411 1.252 . S
O387 Eu347 2.373 . S
O387 C403 1.249 . S
O388 Eu336 2.335 . S
O388 C403 1.264 . S
O389 Eu347 2.432 . S
O389 C411 1.268 . S
O390 Eu347 2.291 . S
O390 C410 1.255 . S
O391 Eu336 2.372 . S
O391 C410 1.257 . S
C392 O381 1.249 . S
C392 O382 1.264 . S
C393 C396 1.382 . S
C393 C398 1.390 . S
C393 C400 1.506 . S
C394 C395 1.398 . S
C394 C398 1.392 . S
C395 C394 1.398 . S
C395 C397 1.372 . S
C395 H412 0.931 . S
C396 C393 1.382 . S
C396 C397 1.390 . S
C396 H413 0.931 . S
C397 C395 1.372 . S
C397 C396 1.390 . S
C397 H414 0.929 . S
C398 C393 1.390 . S
C398 C394 1.392 . S
C398 H415 0.930 . S
C399 O384 1.255 . S
C399 O385 1.257 1_554 S
C400 Eu336 2.787 1_554 S
C400 O380 1.252 . S
C400 O383 1.268 . S
C400 C393 1.506 . S
C401 C368 1.439 . S
C401 H378 0.931 . S
C401 C402 1.374 . S
C402 C373 1.387 . S
C402 H379 0.931 . S
C402 C401 1.374 . S
C403 O387 1.249 . S
C403 O388 1.264 . S
C404 C407 1.382 . S
C404 C408 1.390 . S
C404 C411 1.506 . S
C405 C406 1.398 . S
C405 C408 1.392 . S
C406 C405 1.398 . S
C406 C409 1.372 . S
C406 H416 0.931 . S
C407 C404 1.382 . S
C407 C409 1.390 . S
C407 H417 0.931 . S
C408 C404 1.390 . S
C408 C405 1.392 . S
C408 H418 0.930 . S
C409 C406 1.372 . S
C409 C407 1.390 . S
C409 H419 0.929 . S
C410 O390 1.255 . S
C410 O391 1.257 . S
C411 Eu347 2.787 . S
C411 O386 1.252 . S
C411 O389 1.268 . S
C411 C404 1.506 . S
H412 C395 0.931 . S
H413 C396 0.931 . S
H414 C397 0.929 . S
H415 C398 0.930 . S
H416 C406 0.931 . S
H417 C407 0.931 . S
H418 C408 0.930 . S
H419 C409 0.929 . S
Eu420 N449 2.600 . S
Eu420 N455 2.562 . S
Eu420 O464 2.462 . S
Eu420 O465 2.373 . S
Eu420 O467 2.432 . S
Eu420 O468 2.291 . S
Eu420 O472 2.335 . S
Eu420 O475 2.372 . S
Eu420 C484 2.787 . S
C421 N422 1.365 . S
C421 C424 1.405 . S
C421 C428 1.448 . S
N422 C421 1.365 . S
N422 C425 1.319 . S
N422 Eu431 2.600 . S
C423 C425 1.397 . S
C423 C426 1.367 . S
C423 H443 0.931 . S
C424 C421 1.405 . S
C424 C426 1.403 . S
C424 C430 1.439 . S
C425 N422 1.319 . S
C425 C423 1.397 . S
C425 H436 0.930 . S
C426 C423 1.367 . S
C426 C424 1.403 . S
C426 H447 0.929 . S
C427 C428 1.430 . S
C427 C429 1.387 . S
C427 C433 1.404 . S
C428 C421 1.448 . S
C428 C427 1.430 . S
C428 N432 1.351 . S
C429 C427 1.387 . S
C429 C430 1.374 . S
C429 H444 0.931 . S
C430 C424 1.439 . S
C430 C429 1.374 . S
C430 H445 0.931 . S
Eu431 N422 2.600 . S
Eu431 N432 2.562 . S
Eu431 O466 2.335 . S
Eu431 O469 2.372 . S
Eu431 O470 2.462 . S
Eu431 O471 2.373 . S
Eu431 O473 2.432 . S
Eu431 O474 2.291 . S
Eu431 C495 2.787 . S
N432 C428 1.351 . S
N432 Eu431 2.562 . S
N432 C434 1.325 . S
C433 C427 1.404 . S
C433 C435 1.366 . S
C433 H441 0.930 . S
C434 N432 1.325 . S
C434 C435 1.416 . S
C434 H440 0.929 . S
C435 C433 1.366 . S
C435 C434 1.416 . S
C435 H437 0.930 . S
H436 C425 0.930 . S
H437 C435 0.930 . S
H438 C453 0.930 . S
H439 C460 0.930 . S
H440 C434 0.929 . S
H441 C433 0.930 . S
H442 C456 0.929 . S
H443 C423 0.931 . S
H444 C429 0.931 . S
H445 C430 0.931 . S
H446 C451 0.931 . S
H447 C426 0.929 . S
H448 C459 0.930 . S
N449 Eu420 2.600 . S
N449 C450 1.365 . S
N449 C453 1.319 . S
C450 N449 1.365 . S
C450 C452 1.405 . S
C450 C458 1.448 . S
C451 H446 0.931 . S
C451 C453 1.397 . S
C451 C454 1.367 . S
C452 C450 1.405 . S
C452 C454 1.403 . S
C452 C485 1.439 . S
C453 H438 0.930 . S
C453 N449 1.319 . S
C453 C451 1.397 . S
C454 C451 1.367 . S
C454 C452 1.403 . S
C454 H461 0.929 . S
N455 Eu420 2.562 . S
N455 C456 1.325 . S
N455 C458 1.351 . S
C456 H442 0.929 . S
C456 N455 1.325 . S
C456 C460 1.416 . S
C457 C458 1.430 . S
C457 C459 1.404 . S
C457 C486 1.387 . S
C458 C450 1.448 . S
C458 N455 1.351 . S
C458 C457 1.430 . S
C459 H448 0.930 . S
C459 C457 1.404 . S
C459 C460 1.366 . S
C460 H439 0.930 . S
C460 C456 1.416 . S
C460 C459 1.366 . S
H461 C454 0.929 . S
H462 C485 0.931 . S
H463 C486 0.931 . S
O464 Eu420 2.462 . S
O464 C484 1.252 . S
O465 Eu420 2.373 . S
O465 C476 1.249 . S
O466 Eu431 2.335 . S
O466 C476 1.264 . S
O467 Eu420 2.432 . S
O467 C484 1.268 . S
O468 Eu420 2.291 . S
O468 C483 1.255 . S
O469 Eu431 2.372 . S
O469 C483 1.257 . S
O470 Eu431 2.462 . S
O470 C495 1.252 . S
O471 Eu431 2.373 . S
O471 C487 1.249 . S
O472 Eu420 2.335 . S
O472 C487 1.264 . S
O473 Eu431 2.432 . S
O473 C495 1.268 . S
O474 Eu431 2.291 . S
O474 C494 1.255 . S
O475 Eu420 2.372 . S
O475 C494 1.257 . S
C476 O465 1.249 . S
C476 O466 1.264 . S
C477 C480 1.382 . S
C477 C482 1.390 . S
C477 C484 1.506 . S
C478 C479 1.398 . S
C478 C482 1.392 . S
C479 C478 1.398 . S
C479 C481 1.372 . S
C479 H496 0.931 . S
C480 C477 1.382 . S
C480 C481 1.390 . S
C480 H497 0.931 . S
C481 C479 1.372 . S
C481 C480 1.390 . S
C481 H498 0.929 . S
C482 C477 1.390 . S
C482 C478 1.392 . S
C482 H499 0.930 . S
C483 O468 1.255 . S
C483 O469 1.257 . S
C484 Eu420 2.787 . S
C484 O464 1.252 . S
C484 O467 1.268 . S
C484 C477 1.506 . S
C485 C452 1.439 . S
C485 H462 0.931 . S
C485 C486 1.374 . S
C486 C457 1.387 . S
C486 H463 0.931 . S
C486 C485 1.374 . S
C487 O471 1.249 . S
C487 O472 1.264 . S
C488 C491 1.382 . S
C488 C492 1.390 . S
C488 C495 1.506 . S
C489 C490 1.398 . S
C489 C492 1.392 . S
C490 C489 1.398 . S
C490 C493 1.372 . S
C490 H500 0.931 . S
C491 C488 1.382 . S
C491 C493 1.390 . S
C491 H501 0.931 . S
C492 C488 1.390 . S
C492 C489 1.392 . S
C492 H502 0.930 . S
C493 C490 1.372 . S
C493 C491 1.390 . S
C493 H503 0.929 . S
C494 O474 1.255 . S
C494 O475 1.257 . S
C495 Eu431 2.787 . S
C495 O470 1.252 . S
C495 O473 1.268 . S
C495 C488 1.506 . S
H496 C479 0.931 . S
H497 C480 0.931 . S
H498 C481 0.929 . S
H499 C482 0.930 . S
H500 C490 0.931 . S
H501 C491 0.931 . S
H502 C492 0.930 . S
H503 C493 0.929 . S
Eu504 N533 2.600 . S
Eu504 N539 2.562 . S
Eu504 O548 2.462 . S
Eu504 O549 2.373 . S
Eu504 O551 2.432 . S
Eu504 O552 2.291 . S
Eu504 O556 2.335 . S
Eu504 O559 2.372 . S
Eu504 C568 2.787 . S
C505 N506 1.365 . S
C505 C508 1.405 . S
C505 C512 1.448 . S
N506 C505 1.365 . S
N506 C509 1.319 . S
N506 Eu515 2.600 . S
C507 C509 1.397 . S
C507 C510 1.367 . S
C507 H527 0.931 . S
C508 C505 1.405 . S
C508 C510 1.403 . S
C508 C514 1.439 . S
C509 N506 1.319 . S
C509 C507 1.397 . S
C509 H520 0.930 . S
C510 C507 1.367 . S
C510 C508 1.403 . S
C510 H531 0.929 . S
C511 C512 1.430 . S
C511 C513 1.387 . S
C511 C517 1.404 . S
C512 C505 1.448 . S
C512 C511 1.430 . S
C512 N516 1.351 . S
C513 C511 1.387 . S
C513 C514 1.374 . S
C513 H528 0.931 . S
C514 C508 1.439 . S
C514 C513 1.374 . S
C514 H529 0.931 . S
Eu515 N506 2.600 . S
Eu515 N516 2.562 . S
Eu515 O550 2.335 . S
Eu515 O553 2.372 . S
Eu515 O554 2.462 . S
Eu515 O555 2.373 . S
Eu515 O557 2.432 . S
Eu515 O558 2.291 . S
Eu515 C579 2.787 . S
N516 C512 1.351 . S
N516 Eu515 2.562 . S
N516 C518 1.325 . S
C517 C511 1.404 . S
C517 C519 1.366 . S
C517 H525 0.930 . S
C518 N516 1.325 . S
C518 C519 1.416 . S
C518 H524 0.929 . S
C519 C517 1.366 . S
C519 C518 1.416 . S
C519 H521 0.930 . S
H520 C509 0.930 . S
H521 C519 0.930 . S
H522 C537 0.930 . S
H523 C544 0.930 . S
H524 C518 0.929 . S
H525 C517 0.930 . S
H526 C540 0.929 . S
H527 C507 0.931 . S
H528 C513 0.931 . S
H529 C514 0.931 . S
H530 C535 0.931 . S
H531 C510 0.929 . S
H532 C543 0.930 . S
N533 Eu504 2.600 . S
N533 C534 1.365 . S
N533 C537 1.319 . S
C534 N533 1.365 . S
C534 C536 1.405 . S
C534 C542 1.448 . S
C535 H530 0.931 . S
C535 C537 1.397 . S
C535 C538 1.367 . S
C536 C534 1.405 . S
C536 C538 1.403 . S
C536 C569 1.439 . S
C537 H522 0.930 . S
C537 N533 1.319 . S
C537 C535 1.397 . S
C538 C535 1.367 . S
C538 C536 1.403 . S
C538 H545 0.929 . S
N539 Eu504 2.562 . S
N539 C540 1.325 . S
N539 C542 1.351 . S
C540 H526 0.929 . S
C540 N539 1.325 . S
C540 C544 1.416 . S
C541 C542 1.430 . S
C541 C543 1.404 . S
C541 C570 1.387 . S
C542 C534 1.448 . S
C542 N539 1.351 . S
C542 C541 1.430 . S
C543 H532 0.930 . S
C543 C541 1.404 . S
C543 C544 1.366 . S
C544 H523 0.930 . S
C544 C540 1.416 . S
C544 C543 1.366 . S
H545 C538 0.929 . S
H546 C569 0.931 . S
H547 C570 0.931 . S
O548 Eu504 2.462 . S
O548 C568 1.252 . S
O549 Eu504 2.373 . S
O549 C560 1.249 . S
O550 Eu515 2.335 . S
O550 C560 1.264 . S
O551 Eu504 2.432 . S
O551 C568 1.268 . S
O552 Eu504 2.291 . S
O552 C567 1.255 . S
O553 Eu515 2.372 . S
O553 C567 1.257 . S
O554 Eu515 2.462 . S
O554 C579 1.252 . S
O555 Eu515 2.373 . S
O555 C571 1.249 . S
O556 Eu504 2.335 . S
O556 C571 1.264 . S
O557 Eu515 2.432 . S
O557 C579 1.268 . S
O558 Eu515 2.291 . S
O558 C578 1.255 . S
O559 Eu504 2.372 . S
O559 C578 1.257 . S
C560 O549 1.249 . S
C560 O550 1.264 . S
C561 C564 1.382 . S
C561 C566 1.390 . S
C561 C568 1.506 . S
C562 C563 1.398 . S
C562 C566 1.392 . S
C563 C562 1.398 . S
C563 C565 1.372 . S
C563 H580 0.931 . S
C564 C561 1.382 . S
C564 C565 1.390 . S
C564 H581 0.931 . S
C565 C563 1.372 . S
C565 C564 1.390 . S
C565 H582 0.929 . S
C566 C561 1.390 . S
C566 C562 1.392 . S
C566 H583 0.930 . S
C567 O552 1.255 . S
C567 O553 1.257 . S
C568 Eu504 2.787 . S
C568 O548 1.252 . S
C568 O551 1.268 . S
C568 C561 1.506 . S
C569 C536 1.439 . S
C569 H546 0.931 . S
C569 C570 1.374 . S
C570 C541 1.387 . S
C570 H547 0.931 . S
C570 C569 1.374 . S
C571 O555 1.249 . S
C571 O556 1.264 . S
C572 C575 1.382 . S
C572 C576 1.390 . S
C572 C579 1.506 . S
C573 C574 1.398 . S
C573 C576 1.392 . S
C574 C573 1.398 . S
C574 C577 1.372 . S
C574 H584 0.931 . S
C575 C572 1.382 . S
C575 C577 1.390 . S
C575 H585 0.931 . S
C576 C572 1.390 . S
C576 C573 1.392 . S
C576 H586 0.930 . S
C577 C574 1.372 . S
C577 C575 1.390 . S
C577 H587 0.929 . S
C578 O558 1.255 . S
C578 O559 1.257 . S
C579 Eu515 2.787 . S
C579 O554 1.252 . S
C579 O557 1.268 . S
C579 C572 1.506 . S
H580 C563 0.931 . S
H581 C564 0.931 . S
H582 C565 0.929 . S
H583 C566 0.930 . S
H584 C574 0.931 . S
H585 C575 0.931 . S
H586 C576 0.930 . S
H587 C577 0.929 . S
Eu588 N617 2.600 . S
Eu588 N623 2.562 . S
Eu588 O632 2.462 . S
Eu588 O633 2.373 . S
Eu588 O635 2.432 . S
Eu588 O636 2.291 . S
Eu588 O640 2.335 . S
Eu588 O643 2.372 . S
Eu588 C652 2.787 . S
C589 N590 1.365 . S
C589 C592 1.405 1_455 S
C589 C596 1.448 . S
N590 C589 1.365 . S
N590 C593 1.319 1_455 S
N590 Eu599 2.600 . S
C591 C593 1.397 . S
C591 C594 1.367 . S
C591 H611 0.931 . S
C592 C589 1.405 1_655 S
C592 C594 1.403 . S
C592 C598 1.439 . S
C593 N590 1.319 1_655 S
C593 C591 1.397 . S
C593 H604 0.930 . S
C594 C591 1.367 . S
C594 C592 1.403 . S
C594 H615 0.929 . S
C595 C596 1.430 . S
C595 C597 1.387 1_455 S
C595 C601 1.404 . S
C596 C589 1.448 . S
C596 C595 1.430 . S
C596 N600 1.351 . S
C597 C595 1.387 1_655 S
C597 C598 1.374 . S
C597 H612 0.931 . S
C598 C592 1.439 . S
C598 C597 1.374 . S
C598 H613 0.931 . S
Eu599 N590 2.600 . S
Eu599 N600 2.562 . S
Eu599 O634 2.335 . S
Eu599 O637 2.372 . S
Eu599 O638 2.462 . S
Eu599 O639 2.373 . S
Eu599 O641 2.432 . S
Eu599 O642 2.291 . S
Eu599 C663 2.787 . S
N600 C596 1.351 . S
N600 Eu599 2.562 . S
N600 C602 1.325 . S
C601 C595 1.404 . S
C601 C603 1.366 . S
C601 H609 0.930 . S
C602 N600 1.325 . S
C602 C603 1.416 . S
C602 H608 0.929 . S
C603 C601 1.366 . S
C603 C602 1.416 . S
C603 H605 0.930 . S
H604 C593 0.930 . S
H605 C603 0.930 . S
H606 C621 0.930 . S
H607 C628 0.930 . S
H608 C602 0.929 . S
H609 C601 0.930 . S
H610 C624 0.929 . S
H611 C591 0.931 . S
H612 C597 0.931 . S
H613 C598 0.931 . S
H614 C619 0.931 . S
H615 C594 0.929 . S
H616 C627 0.930 . S
N617 Eu588 2.600 . S
N617 C618 1.365 . S
N617 C621 1.319 . S
C618 N617 1.365 . S
C618 C620 1.405 . S
C618 C626 1.448 . S
C619 H614 0.931 . S
C619 C621 1.397 . S
C619 C622 1.367 . S
C620 C618 1.405 . S
C620 C622 1.403 . S
C620 C653 1.439 . S
C621 H606 0.930 . S
C621 N617 1.319 . S
C621 C619 1.397 . S
C622 C619 1.367 . S
C622 C620 1.403 . S
C622 H629 0.929 . S
N623 Eu588 2.562 . S
N623 C624 1.325 . S
N623 C626 1.351 . S
C624 H610 0.929 . S
C624 N623 1.325 . S
C624 C628 1.416 . S
C625 C626 1.430 . S
C625 C627 1.404 . S
C625 C654 1.387 . S
C626 C618 1.448 . S
C626 N623 1.351 . S
C626 C625 1.430 . S
C627 H616 0.930 . S
C627 C625 1.404 . S
C627 C628 1.366 . S
C628 H607 0.930 . S
C628 C624 1.416 . S
C628 C627 1.366 . S
H629 C622 0.929 . S
H630 C653 0.931 . S
H631 C654 0.931 . S
O632 Eu588 2.462 . S
O632 C652 1.252 . S
O633 Eu588 2.373 . S
O633 C644 1.249 . S
O634 Eu599 2.335 . S
O634 C644 1.264 . S
O635 Eu588 2.432 . S
O635 C652 1.268 . S
O636 Eu588 2.291 . S
O636 C651 1.255 . S
O637 Eu599 2.372 . S
O637 C651 1.257 . S
O638 Eu599 2.462 . S
O638 C663 1.252 . S
O639 Eu599 2.373 . S
O639 C655 1.249 . S
O640 Eu588 2.335 . S
O640 C655 1.264 . S
O641 Eu599 2.432 . S
O641 C663 1.268 . S
O642 Eu599 2.291 . S
O642 C662 1.255 . S
O643 Eu588 2.372 . S
O643 C662 1.257 . S
C644 O633 1.249 . S
C644 O634 1.264 . S
C645 C648 1.382 . S
C645 C650 1.390 . S
C645 C652 1.506 . S
C646 C647 1.398 . S
C646 C650 1.392 . S
C647 C646 1.398 . S
C647 C649 1.372 . S
C647 H664 0.931 . S
C648 C645 1.382 . S
C648 C649 1.390 . S
C648 H665 0.931 . S
C649 C647 1.372 . S
C649 C648 1.390 . S
C649 H666 0.929 . S
C650 C645 1.390 . S
C650 C646 1.392 . S
C650 H667 0.930 . S
C651 O636 1.255 . S
C651 O637 1.257 . S
C652 Eu588 2.787 . S
C652 O632 1.252 . S
C652 O635 1.268 . S
C652 C645 1.506 . S
C653 C620 1.439 . S
C653 H630 0.931 . S
C653 C654 1.374 . S
C654 C625 1.387 . S
C654 H631 0.931 . S
C654 C653 1.374 . S
C655 O639 1.249 . S
C655 O640 1.264 . S
C656 C659 1.382 . S
C656 C660 1.390 . S
C656 C663 1.506 . S
C657 C658 1.398 . S
C657 C660 1.392 . S
C658 C657 1.398 . S
C658 C661 1.372 . S
C658 H668 0.931 . S
C659 C656 1.382 . S
C659 C661 1.390 . S
C659 H669 0.931 . S
C660 C656 1.390 . S
C660 C657 1.392 . S
C660 H670 0.930 . S
C661 C658 1.372 . S
C661 C659 1.390 . S
C661 H671 0.914 1_455 S
C662 O642 1.255 . S
C662 O643 1.257 . S
C663 Eu599 2.787 . S
C663 O638 1.252 . S
C663 O641 1.268 . S
C663 C656 1.506 . S
H664 C647 0.931 . S
H665 C648 0.931 . S
H666 C649 0.929 . S
H667 C650 0.930 . S
H668 C658 0.931 . S
H669 C659 0.931 . S
H670 C660 0.930 . S
H671 C661 0.914 1_655 S
Eu672 N701 2.600 . S
Eu672 N707 2.562 . S
Eu672 O716 2.462 . S
Eu672 O717 2.373 . S
Eu672 O719 2.432 . S
Eu672 O720 2.291 . S
Eu672 O724 2.335 . S
Eu672 O727 2.372 . S
Eu672 C736 2.787 . S
C673 N674 1.365 . S
C673 C676 1.405 . S
C673 C680 1.448 . S
N674 C673 1.365 . S
N674 C677 1.319 . S
N674 Eu683 2.600 . S
C675 C677 1.397 . S
C675 C678 1.367 . S
C675 H695 0.931 . S
C676 C673 1.405 . S
C676 C678 1.403 . S
C676 C682 1.439 . S
C677 N674 1.319 . S
C677 C675 1.397 . S
C677 H688 0.930 . S
C678 C675 1.367 . S
C678 C676 1.403 . S
C678 H699 0.929 . S
C679 C680 1.430 . S
C679 C681 1.387 . S
C679 C685 1.404 . S
C680 C673 1.448 . S
C680 C679 1.430 . S
C680 N684 1.351 . S
C681 C679 1.387 . S
C681 C682 1.374 . S
C681 H696 0.931 . S
C682 C676 1.439 . S
C682 C681 1.374 . S
C682 H697 0.931 . S
Eu683 N674 2.600 . S
Eu683 N684 2.562 . S
Eu683 O718 2.335 . S
Eu683 O721 2.372 . S
Eu683 O722 2.462 . S
Eu683 O723 2.373 . S
Eu683 O725 2.432 . S
Eu683 O726 2.291 . S
Eu683 C747 2.787 . S
N684 C680 1.351 . S
N684 Eu683 2.562 . S
N684 C686 1.325 . S
C685 C679 1.404 . S
C685 C687 1.366 . S
C685 H693 0.930 . S
C686 N684 1.325 . S
C686 C687 1.416 . S
C686 H692 0.929 . S
C687 C685 1.366 . S
C687 C686 1.416 . S
C687 H689 0.930 . S
H688 C677 0.930 . S
H689 C687 0.930 . S
H690 C705 0.930 . S
H691 C712 0.930 . S
H692 C686 0.929 . S
H693 C685 0.930 . S
H694 C708 0.929 . S
H695 C675 0.931 . S
H696 C681 0.931 . S
H697 C682 0.931 . S
H698 C703 0.931 . S
H699 C678 0.929 . S
H700 C711 0.930 . S
N701 Eu672 2.600 . S
N701 C702 1.365 . S
N701 C705 1.319 . S
C702 N701 1.365 . S
C702 C704 1.405 . S
C702 C710 1.448 . S
C703 H698 0.931 . S
C703 C705 1.397 . S
C703 C706 1.367 . S
C704 C702 1.405 . S
C704 C706 1.403 . S
C704 C737 1.439 . S
C705 H690 0.930 . S
C705 N701 1.319 . S
C705 C703 1.397 . S
C706 C703 1.367 . S
C706 C704 1.403 . S
C706 H713 0.929 . S
N707 Eu672 2.562 . S
N707 C708 1.325 . S
N707 C710 1.351 . S
C708 H694 0.929 . S
C708 N707 1.325 . S
C708 C712 1.416 . S
C709 C710 1.430 . S
C709 C711 1.404 . S
C709 C738 1.387 . S
C710 C702 1.448 . S
C710 N707 1.351 . S
C710 C709 1.430 . S
C711 H700 0.930 . S
C711 C709 1.404 . S
C711 C712 1.366 . S
C712 H691 0.930 . S
C712 C708 1.416 . S
C712 C711 1.366 . S
H713 C706 0.929 . S
H714 C737 0.931 . S
H715 C738 0.931 . S
O716 Eu672 2.462 . S
O716 C736 1.252 . S
O717 Eu672 2.373 . S
O717 C728 1.249 . S
O718 Eu683 2.335 . S
O718 C728 1.264 . S
O719 Eu672 2.432 . S
O719 C736 1.268 . S
O720 Eu672 2.291 . S
O720 C735 1.255 . S
O721 Eu683 2.372 . S
O721 C735 1.257 . S
O722 Eu683 2.462 . S
O722 C747 1.252 . S
O723 Eu683 2.373 . S
O723 C739 1.249 . S
O724 Eu672 2.335 . S
O724 C739 1.264 . S
O725 Eu683 2.432 . S
O725 C747 1.268 . S
O726 Eu683 2.291 . S
O726 C746 1.255 . S
O727 Eu672 2.372 . S
O727 C746 1.257 . S
C728 O717 1.249 . S
C728 O718 1.264 . S
C729 C732 1.382 . S
C729 C734 1.390 . S
C729 C736 1.506 . S
C730 C731 1.398 . S
C730 C734 1.392 . S
C731 C730 1.398 . S
C731 C733 1.372 . S
C731 H748 0.931 . S
C732 C729 1.382 . S
C732 C733 1.390 . S
C732 H749 0.931 . S
C733 C731 1.372 . S
C733 C732 1.390 . S
C733 H750 0.929 . S
C734 C729 1.390 . S
C734 C730 1.392 . S
C734 H751 0.930 . S
C735 O720 1.255 . S
C735 O721 1.257 . S
C736 Eu672 2.787 . S
C736 O716 1.252 . S
C736 O719 1.268 . S
C736 C729 1.506 . S
C737 C704 1.439 . S
C737 H714 0.931 . S
C737 C738 1.374 . S
C738 C709 1.387 . S
C738 H715 0.931 . S
C738 C737 1.374 . S
C739 O723 1.249 . S
C739 O724 1.264 . S
C740 C743 1.382 . S
C740 C744 1.390 . S
C740 C747 1.506 . S
C741 C742 1.399 1_655 S
C741 C744 1.392 . S
C742 C741 1.399 1_455 S
C742 C745 1.372 1_455 S
C742 H752 0.929 . S
C743 C740 1.382 . S
C743 C745 1.390 . S
C743 H753 0.931 . S
C744 C740 1.390 . S
C744 C741 1.392 . S
C744 H754 0.930 . S
C745 C742 1.372 1_655 S
C745 C743 1.390 . S
C745 H755 0.929 1_655 S
C746 O726 1.255 . S
C746 O727 1.257 . S
C747 Eu683 2.787 . S
C747 O722 1.252 . S
C747 O725 1.268 . S
C747 C740 1.506 . S
H748 C731 0.931 . S
H749 C732 0.931 . S
H750 C733 0.929 . S
H751 C734 0.930 . S
H752 C742 0.929 . S
H753 C743 0.931 . S
H754 C744 0.930 . S
H755 C745 0.929 1_455 S
Eu756 N785 2.600 . S
Eu756 N791 2.562 . S
Eu756 O800 2.462 . S
Eu756 O801 2.373 . S
Eu756 O803 2.432 . S
Eu756 O804 2.291 . S
Eu756 O808 2.335 . S
Eu756 O811 2.372 . S
Eu756 C820 2.787 . S
C757 N758 1.365 . S
C757 C760 1.405 . S
C757 C764 1.448 . S
N758 C757 1.365 . S
N758 C761 1.319 . S
N758 Eu767 2.600 . S
C759 C761 1.397 . S
C759 C762 1.367 . S
C759 H779 0.931 . S
C760 C757 1.405 . S
C760 C762 1.403 . S
C760 C766 1.439 . S
C761 N758 1.319 . S
C761 C759 1.397 . S
C761 H772 0.930 . S
C762 C759 1.367 . S
C762 C760 1.403 . S
C762 H783 0.929 . S
C763 C764 1.430 . S
C763 C765 1.387 . S
C763 C769 1.404 . S
C764 C757 1.448 . S
C764 C763 1.430 . S
C764 N768 1.351 . S
C765 C763 1.387 . S
C765 C766 1.374 . S
C765 H780 0.931 . S
C766 C760 1.439 . S
C766 C765 1.374 . S
C766 H781 0.931 . S
Eu767 N758 2.600 . S
Eu767 N768 2.562 . S
Eu767 O802 2.335 . S
Eu767 O805 2.372 . S
Eu767 O806 2.462 . S
Eu767 O807 2.373 . S
Eu767 O809 2.432 . S
Eu767 O810 2.291 . S
Eu767 C831 2.787 . S
N768 C764 1.351 . S
N768 Eu767 2.562 . S
N768 C770 1.325 . S
C769 C763 1.404 . S
C769 C771 1.366 . S
C769 H777 0.930 . S
C770 N768 1.325 . S
C770 C771 1.416 . S
C770 H776 0.929 . S
C771 C769 1.366 . S
C771 C770 1.416 . S
C771 H773 0.930 . S
H772 C761 0.930 . S
H773 C771 0.930 . S
H774 C789 0.930 . S
H775 C796 0.930 . S
H776 C770 0.929 . S
H777 C769 0.930 . S
H778 C792 0.929 . S
H779 C759 0.931 . S
H780 C765 0.931 . S
H781 C766 0.931 . S
H782 C787 0.931 . S
H783 C762 0.929 . S
H784 C795 0.930 . S
N785 Eu756 2.600 . S
N785 C786 1.365 . S
N785 C789 1.319 1_455 S
C786 N785 1.365 . S
C786 C788 1.405 1_455 S
C786 C794 1.448 . S
C787 H782 0.931 . S
C787 C789 1.397 . S
C787 C790 1.367 . S
C788 C786 1.405 1_655 S
C788 C790 1.403 . S
C788 C821 1.439 . S
C789 H774 0.930 . S
C789 N785 1.319 1_655 S
C789 C787 1.397 . S
C790 C787 1.367 . S
C790 C788 1.403 . S
C790 H797 0.929 . S
N791 Eu756 2.562 . S
N791 C792 1.325 . S
N791 C794 1.351 . S
C792 H778 0.929 . S
C792 N791 1.325 . S
C792 C796 1.416 . S
C793 C794 1.430 . S
C793 C795 1.404 . S
C793 C822 1.387 1_455 S
C794 C786 1.448 . S
C794 N791 1.351 . S
C794 C793 1.430 . S
C795 H784 0.930 . S
C795 C793 1.404 . S
C795 C796 1.366 . S
C796 H775 0.930 . S
C796 C792 1.416 . S
C796 C795 1.366 . S
H797 C790 0.929 . S
H798 C821 0.931 . S
H799 C822 0.931 . S
O800 Eu756 2.462 . S
O800 C820 1.252 . S
O801 Eu756 2.373 . S
O801 C812 1.249 . S
O802 Eu767 2.335 . S
O802 C812 1.264 . S
O803 Eu756 2.432 . S
O803 C820 1.268 . S
O804 Eu756 2.291 . S
O804 C819 1.255 . S
O805 Eu767 2.372 . S
O805 C819 1.257 . S
O806 Eu767 2.462 . S
O806 C831 1.252 . S
O807 Eu767 2.373 . S
O807 C823 1.249 . S
O808 Eu756 2.335 . S
O808 C823 1.264 . S
O809 Eu767 2.432 . S
O809 C831 1.268 . S
O810 Eu767 2.291 . S
O810 C830 1.255 . S
O811 Eu756 2.372 . S
O811 C830 1.257 . S
C812 O801 1.249 . S
C812 O802 1.264 . S
C813 C816 1.382 . S
C813 C818 1.390 . S
C813 C820 1.506 . S
C814 C815 1.398 . S
C814 C818 1.392 . S
C815 C814 1.398 . S
C815 C817 1.372 . S
C815 H832 0.931 1_545 S
C816 C813 1.382 . S
C816 C817 1.390 . S
C816 H833 0.931 . S
C817 C815 1.372 . S
C817 C816 1.390 . S
C817 H834 0.913 1_455 S
C818 C813 1.390 . S
C818 C814 1.392 . S
C818 H835 0.930 . S
C819 O804 1.255 . S
C819 O805 1.257 . S
C820 Eu756 2.787 . S
C820 O800 1.252 . S
C820 O803 1.268 . S
C820 C813 1.506 . S
C821 C788 1.439 . S
C821 H798 0.931 . S
C821 C822 1.374 . S
C822 C793 1.387 1_655 S
C822 H799 0.931 . S
C822 C821 1.374 . S
C823 O807 1.249 . S
C823 O808 1.264 . S
C824 C827 1.382 . S
C824 C828 1.390 . S
C824 C831 1.506 . S
C825 C826 1.398 . S
C825 C828 1.392 . S
C826 C825 1.398 . S
C826 C829 1.372 . S
C826 H836 0.931 . S
C827 C824 1.382 . S
C827 C829 1.390 . S
C827 H837 0.931 . S
C828 C824 1.390 . S
C828 C825 1.392 . S
C828 H838 0.930 . S
C829 C826 1.372 . S
C829 C827 1.390 . S
C829 H839 0.929 . S
C830 O810 1.255 . S
C830 O811 1.257 . S
C831 Eu767 2.787 . S
C831 O806 1.252 . S
C831 O809 1.268 . S
C831 C824 1.506 . S
H832 C815 0.931 1_565 S
H833 C816 0.931 . S
H834 C817 0.913 1_655 S
H835 C818 0.930 . S
H836 C826 0.931 . S
H837 C827 0.931 . S
H838 C828 0.930 . S
H839 C829 0.929 . S
Eu840 N869 2.604 . S
Eu840 N875 2.562 . S
Eu840 O884 2.462 1_554 S
Eu840 O885 2.373 . S
Eu840 O887 2.432 1_554 S
Eu840 O888 2.291 . S
Eu840 O892 2.335 1_554 S
Eu840 O895 2.372 . S
Eu840 C904 2.787 1_554 S
C841 N842 1.365 . S
C841 C844 1.405 . S
C841 C848 1.448 . S
N842 C841 1.365 . S
N842 C845 1.319 . S
N842 Eu851 2.600 . S
C843 C845 1.397 . S
C843 C846 1.367 . S
C843 H863 0.931 . S
C844 C841 1.405 . S
C844 C846 1.403 . S
C844 C850 1.439 . S
C845 N842 1.319 . S
C845 C843 1.397 . S
C845 H856 0.930 . S
C846 C843 1.367 . S
C846 C844 1.403 . S
C846 H867 0.929 . S
C847 C848 1.430 . S
C847 C849 1.387 . S
C847 C853 1.404 . S
C848 C841 1.448 . S
C848 C847 1.430 . S
C848 N852 1.351 . S
C849 C847 1.387 . S
C849 C850 1.374 . S
C849 H864 0.931 . S
C850 C844 1.439 . S
C850 C849 1.374 . S
C850 H865 0.931 . S
Eu851 N842 2.600 . S
Eu851 N852 2.562 . S
Eu851 O886 2.335 . S
Eu851 O889 2.372 . S
Eu851 O890 2.462 . S
Eu851 O891 2.373 . S
Eu851 O893 2.432 . S
Eu851 O894 2.291 . S
Eu851 C915 2.787 . S
N852 C848 1.351 . S
N852 Eu851 2.562 . S
N852 C854 1.325 . S
C853 C847 1.404 . S
C853 C855 1.366 . S
C853 H861 0.930 . S
C854 N852 1.325 . S
C854 C855 1.416 . S
C854 H860 0.929 . S
C855 C853 1.366 . S
C855 C854 1.416 . S
C855 H857 0.930 . S
H856 C845 0.930 . S
H857 C855 0.930 . S
H858 C873 0.930 . S
H859 C880 0.930 . S
H860 C854 0.929 . S
H861 C853 0.930 . S
H862 C876 0.929 . S
H863 C843 0.931 . S
H864 C849 0.931 . S
H865 C850 0.931 . S
H866 C871 0.931 . S
H867 C846 0.929 . S
H868 C879 0.930 . S
N869 Eu840 2.604 . S
N869 C870 1.377 . S
N869 C873 1.306 1_554 S
C870 N869 1.377 . S
C870 C872 1.405 . S
C870 C878 1.448 . S
C871 H866 0.931 . S
C871 C873 1.397 . S
C871 C874 1.367 . S
C872 C870 1.405 . S
C872 C874 1.403 1_554 S
C872 C905 1.439 . S
C873 H858 0.930 . S
C873 N869 1.306 1_556 S
C873 C871 1.397 . S
C874 C871 1.367 . S
C874 C872 1.403 1_556 S
C874 H881 0.929 . S
N875 Eu840 2.562 . S
N875 C876 1.325 . S
N875 C878 1.351 . S
C876 H862 0.929 . S
C876 N875 1.325 . S
C876 C880 1.416 . S
C877 C878 1.430 . S
C877 C879 1.404 . S
C877 C906 1.387 . S
C878 C870 1.448 . S
C878 N875 1.351 . S
C878 C877 1.430 . S
C879 H868 0.930 . S
C879 C877 1.404 . S
C879 C880 1.366 . S
C880 H859 0.930 . S
C880 C876 1.416 . S
C880 C879 1.366 . S
H881 C874 0.929 . S
H882 C905 0.931 . S
H883 C906 0.931 . S
O884 Eu840 2.462 1_556 S
O884 C904 1.252 . S
O885 Eu840 2.373 . S
O885 C896 1.249 . S
O886 Eu851 2.335 . S
O886 C896 1.264 . S
O887 Eu840 2.432 1_556 S
O887 C904 1.268 . S
O888 Eu840 2.291 . S
O888 C903 1.255 . S
O889 Eu851 2.372 . S
O889 C903 1.257 . S
O890 Eu851 2.462 . S
O890 C915 1.252 . S
O891 Eu851 2.373 . S
O891 C907 1.249 1_554 S
O892 Eu840 2.335 1_556 S
O892 C907 1.264 . S
O893 Eu851 2.432 . S
O893 C915 1.268 . S
O894 Eu851 2.291 . S
O894 C914 1.255 . S
O895 Eu840 2.372 . S
O895 C914 1.257 . S
C896 O885 1.249 . S
C896 O886 1.264 . S
C897 C900 1.382 . S
C897 C902 1.390 . S
C897 C904 1.506 . S
C898 C899 1.398 . S
C898 C902 1.392 . S
C899 C898 1.398 . S
C899 C901 1.372 . S
C899 H916 0.931 . S
C900 C897 1.382 . S
C900 C901 1.390 . S
C900 H917 0.931 . S
C901 C899 1.372 . S
C901 C900 1.390 . S
C901 H918 0.929 . S
C902 C897 1.390 . S
C902 C898 1.392 . S
C902 H919 0.930 . S
C903 O888 1.255 . S
C903 O889 1.257 . S
C904 Eu840 2.787 1_556 S
C904 O884 1.252 . S
C904 O887 1.268 . S
C904 C897 1.506 . S
C905 C872 1.439 . S
C905 H882 0.931 . S
C905 C906 1.374 . S
C906 C877 1.387 . S
C906 H883 0.931 . S
C906 C905 1.374 . S
C907 O891 1.249 1_556 S
C907 O892 1.264 . S
C908 C911 1.382 . S
C908 C912 1.390 . S
C908 C915 1.506 . S
C909 C910 1.398 . S
C909 C912 1.392 . S
C910 C909 1.398 . S
C910 C913 1.372 . S
C910 H920 0.931 . S
C911 C908 1.382 . S
C911 C913 1.390 . S
C911 H921 0.931 . S
C912 C908 1.390 . S
C912 C909 1.392 . S
C912 H922 0.930 . S
C913 C910 1.372 . S
C913 C911 1.390 . S
C913 H923 0.929 . S
C914 O894 1.255 . S
C914 O895 1.257 . S
C915 Eu851 2.787 . S
C915 O890 1.252 . S
C915 O893 1.268 . S
C915 C908 1.506 . S
H916 C899 0.931 . S
H917 C900 0.931 . S
H918 C901 0.929 . S
H919 C902 0.930 . S
H920 C910 0.931 . S
H921 C911 0.931 . S
H922 C912 0.930 . S
H923 C913 0.929 . S
Eu924 N953 2.600 . S
Eu924 N959 2.562 . S
Eu924 O968 2.462 . S
Eu924 O969 2.373 . S
Eu924 O971 2.432 . S
Eu924 O972 2.291 . S
Eu924 O976 2.335 . S
Eu924 O979 2.372 . S
Eu924 C988 2.787 . S
C925 N926 1.365 . S
C925 C928 1.405 . S
C925 C932 1.448 . S
N926 C925 1.365 . S
N926 C929 1.319 . S
N926 Eu935 2.600 . S
C927 C929 1.397 . S
C927 C930 1.367 . S
C927 H947 0.931 . S
C928 C925 1.405 . S
C928 C930 1.403 . S
C928 C934 1.439 . S
C929 N926 1.319 . S
C929 C927 1.397 . S
C929 H940 0.930 . S
C930 C927 1.367 . S
C930 C928 1.403 . S
C930 H951 0.929 . S
C931 C932 1.430 . S
C931 C933 1.387 . S
C931 C937 1.404 . S
C932 C925 1.448 . S
C932 C931 1.430 . S
C932 N936 1.351 . S
C933 C931 1.387 . S
C933 C934 1.374 . S
C933 H948 0.931 . S
C934 C928 1.439 . S
C934 C933 1.374 . S
C934 H949 0.931 . S
Eu935 N926 2.600 . S
Eu935 N936 2.562 . S
Eu935 O970 2.335 . S
Eu935 O973 2.372 . S
Eu935 O974 2.462 . S
Eu935 O975 2.373 . S
Eu935 O977 2.432 . S
Eu935 O978 2.291 . S
Eu935 C999 2.787 . S
N936 C932 1.351 . S
N936 Eu935 2.562 . S
N936 C938 1.325 . S
C937 C931 1.404 . S
C937 C939 1.366 . S
C937 H945 0.930 . S
C938 N936 1.325 . S
C938 C939 1.416 . S
C938 H944 0.929 . S
C939 C937 1.366 . S
C939 C938 1.416 . S
C939 H941 0.930 . S
H940 C929 0.930 . S
H941 C939 0.930 . S
H942 C957 0.930 . S
H943 C964 0.930 . S
H944 C938 0.929 . S
H945 C937 0.930 . S
H946 C960 0.929 . S
H947 C927 0.931 . S
H948 C933 0.931 . S
H949 C934 0.931 . S
H950 C955 0.931 . S
H951 C930 0.929 . S
H952 C963 0.930 . S
N953 Eu924 2.600 . S
N953 C954 1.365 . S
N953 C957 1.319 . S
C954 N953 1.365 . S
C954 C956 1.405 . S
C954 C962 1.448 . S
C955 H950 0.931 . S
C955 C957 1.397 . S
C955 C958 1.367 . S
C956 C954 1.405 . S
C956 C958 1.403 . S
C956 C989 1.439 . S
C957 H942 0.930 . S
C957 N953 1.319 . S
C957 C955 1.397 . S
C958 C955 1.367 . S
C958 C956 1.403 . S
C958 H965 0.929 . S
N959 Eu924 2.562 . S
N959 C960 1.325 . S
N959 C962 1.351 . S
C960 H946 0.929 . S
C960 N959 1.325 . S
C960 C964 1.416 . S
C961 C962 1.430 . S
C961 C963 1.404 . S
C961 C990 1.387 . S
C962 C954 1.448 . S
C962 N959 1.351 . S
C962 C961 1.430 . S
C963 H952 0.930 . S
C963 C961 1.404 . S
C963 C964 1.366 . S
C964 H943 0.930 . S
C964 C960 1.416 . S
C964 C963 1.366 . S
H965 C958 0.929 . S
H966 C989 0.931 . S
H967 C990 0.931 . S
O968 Eu924 2.462 . S
O968 C988 1.252 . S
O969 Eu924 2.373 . S
O969 C980 1.249 . S
O970 Eu935 2.335 . S
O970 C980 1.264 . S
O971 Eu924 2.432 . S
O971 C988 1.268 . S
O972 Eu924 2.291 . S
O972 C987 1.255 . S
O973 Eu935 2.372 . S
O973 C987 1.257 . S
O974 Eu935 2.462 . S
O974 C999 1.252 . S
O975 Eu935 2.373 . S
O975 C991 1.249 . S
O976 Eu924 2.335 . S
O976 C991 1.264 . S
O977 Eu935 2.432 . S
O977 C999 1.268 . S
O978 Eu935 2.291 . S
O978 C998 1.255 . S
O979 Eu924 2.372 . S
O979 C998 1.257 . S
C980 O969 1.249 . S
C980 O970 1.264 . S
C981 C984 1.382 . S
C981 C986 1.390 . S
C981 C988 1.506 . S
C982 C983 1.398 . S
C982 C986 1.392 . S
C983 C982 1.398 . S
C983 C985 1.372 . S
C983 H1000 0.931 1_565 S
C984 C981 1.382 . S
C984 C985 1.390 . S
C984 H1001 0.931 . S
C985 C983 1.372 . S
C985 C984 1.390 . S
C985 H1002 0.929 . S
C986 C981 1.390 . S
C986 C982 1.392 . S
C986 H1003 0.930 . S
C987 O972 1.255 . S
C987 O973 1.257 . S
C988 Eu924 2.787 . S
C988 O968 1.252 . S
C988 O971 1.268 . S
C988 C981 1.506 . S
C989 C956 1.439 . S
C989 H966 0.931 . S
C989 C990 1.374 . S
C990 C961 1.387 . S
C990 H967 0.931 . S
C990 C989 1.374 . S
C991 O975 1.249 . S
C991 O976 1.264 . S
C992 C995 1.382 . S
C992 C996 1.390 . S
C992 C999 1.506 . S
C993 C994 1.398 . S
C993 C996 1.392 . S
C994 C993 1.398 . S
C994 C997 1.372 . S
C994 H1004 0.931 . S
C995 C992 1.382 . S
C995 C997 1.390 . S
C995 H1005 0.931 . S
C996 C992 1.390 . S
C996 C993 1.392 . S
C996 H1006 0.930 . S
C997 C994 1.372 . S
C997 C995 1.390 . S
C997 H1007 0.929 . S
C998 O978 1.255 . S
C998 O979 1.257 . S
C999 Eu935 2.787 . S
C999 O974 1.252 . S
C999 O977 1.268 . S
C999 C992 1.506 . S
H1000 C983 0.931 1_545 S
H1001 C984 0.931 . S
H1002 C985 0.929 . S
H1003 C986 0.930 . S
H1004 C994 0.931 . S
H1005 C995 0.931 . S
H1006 C996 0.930 . S
H1007 C997 0.929 . S
Eu1008 N1037 2.600 . S
Eu1008 N1043 2.562 . S
Eu1008 O1052 2.462 . S
Eu1008 O1053 2.373 . S
Eu1008 O1055 2.432 . S
Eu1008 O1056 2.291 . S
Eu1008 O1060 2.335 . S
Eu1008 O1063 2.372 . S
Eu1008 C1072 2.787 . S
C1009 N1010 1.365 . S
C1009 C1012 1.405 . S
C1009 C1016 1.448 . S
N1010 C1009 1.365 . S
N1010 C1013 1.319 . S
N1010 Eu1019 2.600 . S
C1011 C1013 1.397 . S
C1011 C1014 1.367 . S
C1011 H1031 0.931 . S
C1012 C1009 1.405 . S
C1012 C1014 1.403 . S
C1012 C1018 1.439 . S
C1013 N1010 1.319 . S
C1013 C1011 1.397 . S
C1013 H1024 0.930 . S
C1014 C1011 1.367 . S
C1014 C1012 1.403 . S
C1014 H1035 0.929 . S
C1015 C1016 1.430 . S
C1015 C1017 1.387 . S
C1015 C1021 1.404 . S
C1016 C1009 1.448 . S
C1016 C1015 1.430 . S
C1016 N1020 1.351 . S
C1017 C1015 1.387 . S
C1017 C1018 1.374 . S
C1017 H1032 0.931 . S
C1018 C1012 1.439 . S
C1018 C1017 1.374 . S
C1018 H1033 0.931 . S
Eu1019 N1010 2.600 . S
Eu1019 N1020 2.562 . S
Eu1019 O1054 2.335 . S
Eu1019 O1057 2.372 . S
Eu1019 O1058 2.462 . S
Eu1019 O1059 2.373 . S
Eu1019 O1061 2.432 . S
Eu1019 O1062 2.291 . S
Eu1019 C1083 2.787 . S
N1020 C1016 1.351 . S
N1020 Eu1019 2.562 . S
N1020 C1022 1.325 . S
C1021 C1015 1.404 . S
C1021 C1023 1.366 . S
C1021 H1029 0.930 . S
C1022 N1020 1.325 . S
C1022 C1023 1.416 . S
C1022 H1028 0.929 . S
C1023 C1021 1.366 . S
C1023 C1022 1.416 . S
C1023 H1025 0.930 . S
H1024 C1013 0.930 . S
H1025 C1023 0.930 . S
H1026 C1041 0.930 . S
H1027 C1048 0.930 . S
H1028 C1022 0.929 . S
H1029 C1021 0.930 . S
H1030 C1044 0.929 . S
H1031 C1011 0.931 . S
H1032 C1017 0.931 . S
H1033 C1018 0.931 . S
H1034 C1039 0.931 . S
H1035 C1014 0.929 . S
H1036 C1047 0.930 . S
N1037 Eu1008 2.600 . S
N1037 C1038 1.365 . S
N1037 C1041 1.319 . S
C1038 N1037 1.365 . S
C1038 C1040 1.405 . S
C1038 C1046 1.448 . S
C1039 H1034 0.931 . S
C1039 C1041 1.397 . S
C1039 C1042 1.367 . S
C1040 C1038 1.405 . S
C1040 C1042 1.403 . S
C1040 C1073 1.439 . S
C1041 H1026 0.930 . S
C1041 N1037 1.319 . S
C1041 C1039 1.397 . S
C1042 C1039 1.367 . S
C1042 C1040 1.403 . S
C1042 H1049 0.929 . S
N1043 Eu1008 2.562 . S
N1043 C1044 1.325 . S
N1043 C1046 1.351 . S
C1044 H1030 0.929 . S
C1044 N1043 1.325 . S
C1044 C1048 1.416 . S
C1045 C1046 1.430 . S
C1045 C1047 1.404 . S
C1045 C1074 1.387 . S
C1046 C1038 1.448 . S
C1046 N1043 1.351 . S
C1046 C1045 1.430 . S
C1047 H1036 0.930 . S
C1047 C1045 1.404 . S
C1047 C1048 1.366 . S
C1048 H1027 0.930 . S
C1048 C1044 1.416 . S
C1048 C1047 1.366 . S
H1049 C1042 0.929 . S
H1050 C1073 0.931 . S
H1051 C1074 0.931 . S
O1052 Eu1008 2.462 . S
O1052 C1072 1.252 . S
O1053 Eu1008 2.373 . S
O1053 C1064 1.249 . S
O1054 Eu1019 2.335 . S
O1054 C1064 1.264 . S
O1055 Eu1008 2.432 . S
O1055 C1072 1.268 . S
O1056 Eu1008 2.291 . S
O1056 C1071 1.255 . S
O1057 Eu1019 2.372 . S
O1057 C1071 1.257 . S
O1058 Eu1019 2.462 . S
O1058 C1083 1.252 . S
O1059 Eu1019 2.373 . S
O1059 C1075 1.249 . S
O1060 Eu1008 2.335 . S
O1060 C1075 1.264 . S
O1061 Eu1019 2.432 . S
O1061 C1083 1.268 . S
O1062 Eu1019 2.291 . S
O1062 C1082 1.255 . S
O1063 Eu1008 2.372 . S
O1063 C1082 1.257 . S
C1064 O1053 1.249 . S
C1064 O1054 1.264 . S
C1065 C1068 1.382 . S
C1065 C1070 1.390 . S
C1065 C1072 1.506 . S
C1066 C1067 1.399 1_455 S
C1066 C1070 1.392 . S
C1067 C1066 1.399 1_655 S
C1067 C1069 1.372 1_655 S
C1067 H1084 0.929 . S
C1068 C1065 1.382 . S
C1068 C1069 1.390 . S
C1068 H1085 0.931 . S
C1069 C1067 1.372 1_455 S
C1069 C1068 1.390 . S
C1069 H1086 0.929 1_455 S
C1070 C1065 1.390 . S
C1070 C1066 1.392 . S
C1070 H1087 0.930 . S
C1071 O1056 1.255 . S
C1071 O1057 1.257 . S
C1072 Eu1008 2.787 . S
C1072 O1052 1.252 . S
C1072 O1055 1.268 . S
C1072 C1065 1.506 . S
C1073 C1040 1.439 . S
C1073 H1050 0.931 . S
C1073 C1074 1.374 . S
C1074 C1045 1.387 . S
C1074 H1051 0.931 . S
C1074 C1073 1.374 . S
C1075 O1059 1.249 . S
C1075 O1060 1.264 . S
C1076 C1079 1.382 . S
C1076 C1080 1.390 . S
C1076 C1083 1.506 . S
C1077 C1078 1.398 . S
C1077 C1080 1.392 . S
C1078 C1077 1.398 . S
C1078 C1081 1.372 . S
C1078 H1088 0.931 . S
C1079 C1076 1.382 . S
C1079 C1081 1.390 . S
C1079 H1089 0.931 . S
C1080 C1076 1.390 . S
C1080 C1077 1.392 . S
C1080 H1090 0.930 . S
C1081 C1078 1.372 . S
C1081 C1079 1.390 . S
C1081 H1091 0.929 . S
C1082 O1062 1.255 . S
C1082 O1063 1.257 . S
C1083 Eu1019 2.787 . S
C1083 O1058 1.252 . S
C1083 O1061 1.268 . S
C1083 C1076 1.506 . S
H1084 C1067 0.929 . S
H1085 C1068 0.931 . S
H1086 C1069 0.929 1_655 S
H1087 C1070 0.930 . S
H1088 C1078 0.931 . S
H1089 C1079 0.931 . S
H1090 C1080 0.930 . S
H1091 C1081 0.929 . S
Eu1092 N1121 2.600 . S
Eu1092 N1127 2.562 . S
Eu1092 O1136 2.462 . S
Eu1092 O1137 2.373 . S
Eu1092 O1139 2.432 . S
Eu1092 O1140 2.291 . S
Eu1092 O1144 2.335 . S
Eu1092 O1147 2.372 . S
Eu1092 C1156 2.787 . S
C1093 N1094 1.365 . S
C1093 C1096 1.405 1_655 S
C1093 C1100 1.448 . S
N1094 C1093 1.365 . S
N1094 C1097 1.319 1_655 S
N1094 Eu1103 2.600 . S
C1095 C1097 1.397 . S
C1095 C1098 1.367 . S
C1095 H1115 0.931 . S
C1096 C1093 1.405 1_455 S
C1096 C1098 1.403 . S
C1096 C1102 1.439 . S
C1097 N1094 1.319 1_455 S
C1097 C1095 1.397 . S
C1097 H1108 0.930 . S
C1098 C1095 1.367 . S
C1098 C1096 1.403 . S
C1098 H1119 0.929 . S
C1099 C1100 1.430 . S
C1099 C1101 1.387 1_655 S
C1099 C1105 1.404 . S
C1100 C1093 1.448 . S
C1100 C1099 1.430 . S
C1100 N1104 1.351 . S
C1101 C1099 1.387 1_455 S
C1101 C1102 1.374 . S
C1101 H1116 0.931 . S
C1102 C1096 1.439 . S
C1102 C1101 1.374 . S
C1102 H1117 0.931 . S
Eu1103 N1094 2.600 . S
Eu1103 N1104 2.562 . S
Eu1103 O1138 2.335 . S
Eu1103 O1141 2.372 . S
Eu1103 O1142 2.462 . S
Eu1103 O1143 2.373 . S
Eu1103 O1145 2.432 . S
Eu1103 O1146 2.291 . S
Eu1103 C1167 2.787 . S
N1104 C1100 1.351 . S
N1104 Eu1103 2.562 . S
N1104 C1106 1.325 . S
C1105 C1099 1.404 . S
C1105 C1107 1.366 . S
C1105 H1113 0.930 . S
C1106 N1104 1.325 . S
C1106 C1107 1.416 . S
C1106 H1112 0.929 . S
C1107 C1105 1.366 . S
C1107 C1106 1.416 . S
C1107 H1109 0.930 . S
H1108 C1097 0.930 . S
H1109 C1107 0.930 . S
H1110 C1125 0.930 . S
H1111 C1132 0.930 . S
H1112 C1106 0.929 . S
H1113 C1105 0.930 . S
H1114 C1128 0.929 . S
H1115 C1095 0.931 . S
H1116 C1101 0.931 . S
H1117 C1102 0.931 . S
H1118 C1123 0.931 . S
H1119 C1098 0.929 . S
H1120 C1131 0.930 . S
N1121 Eu1092 2.600 . S
N1121 C1122 1.365 . S
N1121 C1125 1.319 . S
C1122 N1121 1.365 . S
C1122 C1124 1.405 . S
C1122 C1130 1.448 . S
C1123 H1118 0.931 . S
C1123 C1125 1.397 . S
C1123 C1126 1.367 . S
C1124 C1122 1.405 . S
C1124 C1126 1.403 . S
C1124 C1157 1.439 . S
C1125 H1110 0.930 . S
C1125 N1121 1.319 . S
C1125 C1123 1.397 . S
C1126 C1123 1.367 . S
C1126 C1124 1.403 . S
C1126 H1133 0.929 . S
N1127 Eu1092 2.562 . S
N1127 C1128 1.325 . S
N1127 C1130 1.351 . S
C1128 H1114 0.929 . S
C1128 N1127 1.325 . S
C1128 C1132 1.416 . S
C1129 C1130 1.430 . S
C1129 C1131 1.404 . S
C1129 C1158 1.387 . S
C1130 C1122 1.448 . S
C1130 N1127 1.351 . S
C1130 C1129 1.430 . S
C1131 H1120 0.930 . S
C1131 C1129 1.404 . S
C1131 C1132 1.366 . S
C1132 H1111 0.930 . S
C1132 C1128 1.416 . S
C1132 C1131 1.366 . S
H1133 C1126 0.929 . S
H1134 C1157 0.931 . S
H1135 C1158 0.931 . S
O1136 Eu1092 2.462 . S
O1136 C1156 1.252 . S
O1137 Eu1092 2.373 . S
O1137 C1148 1.249 . S
O1138 Eu1103 2.335 . S
O1138 C1148 1.264 . S
O1139 Eu1092 2.432 . S
O1139 C1156 1.268 . S
O1140 Eu1092 2.291 . S
O1140 C1155 1.255 . S
O1141 Eu1103 2.372 . S
O1141 C1155 1.257 . S
O1142 Eu1103 2.462 . S
O1142 C1167 1.252 . S
O1143 Eu1103 2.373 . S
O1143 C1159 1.249 . S
O1144 Eu1092 2.335 . S
O1144 C1159 1.264 . S
O1145 Eu1103 2.432 . S
O1145 C1167 1.268 . S
O1146 Eu1103 2.291 . S
O1146 C1166 1.255 . S
O1147 Eu1092 2.372 . S
O1147 C1166 1.257 . S
C1148 O1137 1.249 . S
C1148 O1138 1.264 . S
C1149 C1152 1.382 . S
C1149 C1154 1.390 . S
C1149 C1156 1.506 . S
C1150 C1151 1.398 . S
C1150 C1154 1.392 . S
C1151 C1150 1.398 . S
C1151 C1153 1.372 . S
C1151 H1168 0.931 . S
C1152 C1149 1.382 . S
C1152 C1153 1.390 . S
C1152 H1169 0.931 . S
C1153 C1151 1.372 . S
C1153 C1152 1.390 . S
C1153 H1170 0.929 . S
C1154 C1149 1.390 . S
C1154 C1150 1.392 . S
C1154 H1171 0.930 . S
C1155 O1140 1.255 . S
C1155 O1141 1.257 . S
C1156 Eu1092 2.787 . S
C1156 O1136 1.252 . S
C1156 O1139 1.268 . S
C1156 C1149 1.506 . S
C1157 C1124 1.439 . S
C1157 H1134 0.931 . S
C1157 C1158 1.374 . S
C1158 C1129 1.387 . S
C1158 H1135 0.931 . S
C1158 C1157 1.374 . S
C1159 O1143 1.249 . S
C1159 O1144 1.264 . S
C1160 C1163 1.382 . S
C1160 C1164 1.390 . S
C1160 C1167 1.506 . S
C1161 C1162 1.398 . S
C1161 C1164 1.392 . S
C1162 C1161 1.398 . S
C1162 C1165 1.372 . S
C1162 H1172 0.931 1_565 S
C1163 C1160 1.382 . S
C1163 C1165 1.390 . S
C1163 H1173 0.931 . S
C1164 C1160 1.390 . S
C1164 C1161 1.392 . S
C1164 H1174 0.930 . S
C1165 C1162 1.372 . S
C1165 C1163 1.390 . S
C1165 H1175 0.913 1_655 S
C1166 O1146 1.255 . S
C1166 O1147 1.257 . S
C1167 Eu1103 2.787 . S
C1167 O1142 1.252 . S
C1167 O1145 1.268 . S
C1167 C1160 1.506 . S
H1168 C1151 0.931 . S
H1169 C1152 0.931 . S
H1170 C1153 0.929 . S
H1171 C1154 0.930 . S
H1172 C1162 0.931 1_545 S
H1173 C1163 0.931 . S
H1174 C1164 0.930 . S
H1175 C1165 0.913 1_455 S
Eu1176 N1205 2.600 . S
Eu1176 N1211 2.562 . S
Eu1176 O1220 2.462 . S
Eu1176 O1221 2.373 . S
Eu1176 O1223 2.432 . S
Eu1176 O1224 2.291 . S
Eu1176 O1228 2.335 . S
Eu1176 O1231 2.372 . S
Eu1176 C1240 2.787 . S
C1177 N1178 1.377 . S
C1177 C1180 1.405 . S
C1177 C1184 1.448 . S
N1178 C1177 1.377 . S
N1178 C1181 1.306 1_556 S
N1178 Eu1187 2.604 . S
C1179 C1181 1.397 . S
C1179 C1182 1.367 . S
C1179 H1199 0.931 . S
C1180 C1177 1.405 . S
C1180 C1182 1.403 1_556 S
C1180 C1186 1.439 . S
C1181 N1178 1.306 1_554 S
C1181 C1179 1.397 . S
C1181 H1192 0.930 . S
C1182 C1179 1.367 . S
C1182 C1180 1.403 1_554 S
C1182 H1203 0.929 . S
C1183 C1184 1.430 . S
C1183 C1185 1.387 . S
C1183 C1189 1.404 . S
C1184 C1177 1.448 . S
C1184 C1183 1.430 . S
C1184 N1188 1.351 . S
C1185 C1183 1.387 . S
C1185 C1186 1.374 . S
C1185 H1200 0.931 . S
C1186 C1180 1.439 . S
C1186 C1185 1.374 . S
C1186 H1201 0.931 . S
Eu1187 N1178 2.604 . S
Eu1187 N1188 2.562 . S
Eu1187 O1222 2.335 1_556 S
Eu1187 O1225 2.372 . S
Eu1187 O1226 2.462 1_556 S
Eu1187 O1227 2.373 . S
Eu1187 O1229 2.432 1_556 S
Eu1187 O1230 2.291 . S
Eu1187 C1251 2.787 1_556 S
N1188 C1184 1.351 . S
N1188 Eu1187 2.562 . S
N1188 C1190 1.325 . S
C1189 C1183 1.404 . S
C1189 C1191 1.366 . S
C1189 H1197 0.930 . S
C1190 N1188 1.325 . S
C1190 C1191 1.416 . S
C1190 H1196 0.929 . S
C1191 C1189 1.366 . S
C1191 C1190 1.416 . S
C1191 H1193 0.930 . S
H1192 C1181 0.930 . S
H1193 C1191 0.930 . S
H1194 C1209 0.930 . S
H1195 C1216 0.930 . S
H1196 C1190 0.929 . S
H1197 C1189 0.930 . S
H1198 C1212 0.929 . S
H1199 C1179 0.931 . S
H1200 C1185 0.931 . S
H1201 C1186 0.931 . S
H1202 C1207 0.931 . S
H1203 C1182 0.929 . S
H1204 C1215 0.930 . S
N1205 Eu1176 2.600 . S
N1205 C1206 1.365 . S
N1205 C1209 1.319 . S
C1206 N1205 1.365 . S
C1206 C1208 1.405 . S
C1206 C1214 1.448 . S
C1207 H1202 0.931 . S
C1207 C1209 1.397 . S
C1207 C1210 1.367 . S
C1208 C1206 1.405 . S
C1208 C1210 1.403 . S
C1208 C1241 1.439 . S
C1209 H1194 0.930 . S
C1209 N1205 1.319 . S
C1209 C1207 1.397 . S
C1210 C1207 1.367 . S
C1210 C1208 1.403 . S
C1210 H1217 0.929 . S
N1211 Eu1176 2.562 . S
N1211 C1212 1.325 . S
N1211 C1214 1.351 . S
C1212 H1198 0.929 . S
C1212 N1211 1.325 . S
C1212 C1216 1.416 . S
C1213 C1214 1.430 . S
C1213 C1215 1.404 . S
C1213 C1242 1.387 . S
C1214 C1206 1.448 . S
C1214 N1211 1.351 . S
C1214 C1213 1.430 . S
C1215 H1204 0.930 . S
C1215 C1213 1.404 . S
C1215 C1216 1.366 . S
C1216 H1195 0.930 . S
C1216 C1212 1.416 . S
C1216 C1215 1.366 . S
H1217 C1210 0.929 . S
H1218 C1241 0.931 . S
H1219 C1242 0.931 . S
O1220 Eu1176 2.462 . S
O1220 C1240 1.252 . S
O1221 Eu1176 2.373 . S
O1221 C1232 1.249 1_556 S
O1222 Eu1187 2.335 1_554 S
O1222 C1232 1.264 . S
O1223 Eu1176 2.432 . S
O1223 C1240 1.268 . S
O1224 Eu1176 2.291 . S
O1224 C1239 1.255 . S
O1225 Eu1187 2.372 . S
O1225 C1239 1.257 . S
O1226 Eu1187 2.462 1_554 S
O1226 C1251 1.252 . S
O1227 Eu1187 2.373 . S
O1227 C1243 1.249 . S
O1228 Eu1176 2.335 . S
O1228 C1243 1.264 . S
O1229 Eu1187 2.432 1_554 S
O1229 C1251 1.268 . S
O1230 Eu1187 2.291 . S
O1230 C1250 1.255 . S
O1231 Eu1176 2.372 . S
O1231 C1250 1.257 . S
C1232 O1221 1.249 1_554 S
C1232 O1222 1.264 . S
C1233 C1236 1.382 . S
C1233 C1238 1.390 . S
C1233 C1240 1.506 . S
C1234 C1235 1.398 . S
C1234 C1238 1.392 . S
C1235 C1234 1.398 . S
C1235 C1237 1.372 . S
C1235 H1252 0.931 . S
C1236 C1233 1.382 . S
C1236 C1237 1.390 . S
C1236 H1253 0.931 . S
C1237 C1235 1.372 . S
C1237 C1236 1.390 . S
C1237 H1254 0.929 . S
C1238 C1233 1.390 . S
C1238 C1234 1.392 . S
C1238 H1255 0.930 . S
C1239 O1224 1.255 . S
C1239 O1225 1.257 . S
C1240 Eu1176 2.787 . S
C1240 O1220 1.252 . S
C1240 O1223 1.268 . S
C1240 C1233 1.506 . S
C1241 C1208 1.439 . S
C1241 H1218 0.931 . S
C1241 C1242 1.374 . S
C1242 C1213 1.387 . S
C1242 H1219 0.931 . S
C1242 C1241 1.374 . S
C1243 O1227 1.249 . S
C1243 O1228 1.264 . S
C1244 C1247 1.382 . S
C1244 C1248 1.390 . S
C1244 C1251 1.506 . S
C1245 C1246 1.398 . S
C1245 C1248 1.392 . S
C1246 C1245 1.398 . S
C1246 C1249 1.372 . S
C1246 H1256 0.931 . S
C1247 C1244 1.382 . S
C1247 C1249 1.390 . S
C1247 H1257 0.931 . S
C1248 C1244 1.390 . S
C1248 C1245 1.392 . S
C1248 H1258 0.930 . S
C1249 C1246 1.372 . S
C1249 C1247 1.390 . S
C1249 H1259 0.929 . S
C1250 O1230 1.255 . S
C1250 O1231 1.257 . S
C1251 Eu1187 2.787 1_554 S
C1251 O1226 1.252 . S
C1251 O1229 1.268 . S
C1251 C1244 1.506 . S
H1252 C1235 0.931 . S
H1253 C1236 0.931 . S
H1254 C1237 0.929 . S
H1255 C1238 0.930 . S
H1256 C1246 0.931 . S
H1257 C1247 0.931 . S
H1258 C1248 0.930 . S
H1259 C1249 0.929 . S
Eu1260 N1289 2.600 . S
Eu1260 N1295 2.562 . S
Eu1260 O1304 2.462 . S
Eu1260 O1305 2.373 . S
Eu1260 O1307 2.432 . S
Eu1260 O1308 2.291 . S
Eu1260 O1312 2.335 . S
Eu1260 O1315 2.372 . S
Eu1260 C1324 2.787 . S
C1261 N1262 1.365 . S
C1261 C1264 1.405 . S
C1261 C1268 1.448 . S
N1262 C1261 1.365 . S
N1262 C1265 1.319 . S
N1262 Eu1271 2.600 . S
C1263 C1265 1.397 . S
C1263 C1266 1.367 . S
C1263 H1283 0.931 . S
C1264 C1261 1.405 . S
C1264 C1266 1.403 . S
C1264 C1270 1.439 . S
C1265 N1262 1.319 . S
C1265 C1263 1.397 . S
C1265 H1276 0.930 . S
C1266 C1263 1.367 . S
C1266 C1264 1.403 . S
C1266 H1287 0.929 . S
C1267 C1268 1.430 . S
C1267 C1269 1.387 . S
C1267 C1273 1.404 . S
C1268 C1261 1.448 . S
C1268 C1267 1.430 . S
C1268 N1272 1.351 . S
C1269 C1267 1.387 . S
C1269 C1270 1.374 . S
C1269 H1284 0.931 . S
C1270 C1264 1.439 . S
C1270 C1269 1.374 . S
C1270 H1285 0.931 . S
Eu1271 N1262 2.600 . S
Eu1271 N1272 2.562 . S
Eu1271 O1306 2.335 . S
Eu1271 O1309 2.372 . S
Eu1271 O1310 2.462 . S
Eu1271 O1311 2.373 . S
Eu1271 O1313 2.432 . S
Eu1271 O1314 2.291 . S
Eu1271 C1335 2.787 . S
N1272 C1268 1.351 . S
N1272 Eu1271 2.562 . S
N1272 C1274 1.325 . S
C1273 C1267 1.404 . S
C1273 C1275 1.366 . S
C1273 H1281 0.930 . S
C1274 N1272 1.325 . S
C1274 C1275 1.416 . S
C1274 H1280 0.929 . S
C1275 C1273 1.366 . S
C1275 C1274 1.416 . S
C1275 H1277 0.930 . S
H1276 C1265 0.930 . S
H1277 C1275 0.930 . S
H1278 C1293 0.930 . S
H1279 C1300 0.930 . S
H1280 C1274 0.929 . S
H1281 C1273 0.930 . S
H1282 C1296 0.929 . S
H1283 C1263 0.931 . S
H1284 C1269 0.931 . S
H1285 C1270 0.931 . S
H1286 C1291 0.931 . S
H1287 C1266 0.929 . S
H1288 C1299 0.930 . S
N1289 Eu1260 2.600 . S
N1289 C1290 1.365 . S
N1289 C1293 1.319 . S
C1290 N1289 1.365 . S
C1290 C1292 1.405 . S
C1290 C1298 1.448 . S
C1291 H1286 0.931 . S
C1291 C1293 1.397 . S
C1291 C1294 1.367 . S
C1292 C1290 1.405 . S
C1292 C1294 1.403 . S
C1292 C1325 1.439 . S
C1293 H1278 0.930 . S
C1293 N1289 1.319 . S
C1293 C1291 1.397 . S
C1294 C1291 1.367 . S
C1294 C1292 1.403 . S
C1294 H1301 0.929 . S
N1295 Eu1260 2.562 . S
N1295 C1296 1.325 . S
N1295 C1298 1.351 . S
C1296 H1282 0.929 . S
C1296 N1295 1.325 . S
C1296 C1300 1.416 . S
C1297 C1298 1.430 . S
C1297 C1299 1.404 . S
C1297 C1326 1.387 . S
C1298 C1290 1.448 . S
C1298 N1295 1.351 . S
C1298 C1297 1.430 . S
C1299 H1288 0.930 . S
C1299 C1297 1.404 . S
C1299 C1300 1.366 . S
C1300 H1279 0.930 . S
C1300 C1296 1.416 . S
C1300 C1299 1.366 . S
H1301 C1294 0.929 . S
H1302 C1325 0.931 . S
H1303 C1326 0.931 . S
O1304 Eu1260 2.462 . S
O1304 C1324 1.252 . S
O1305 Eu1260 2.373 . S
O1305 C1316 1.249 . S
O1306 Eu1271 2.335 . S
O1306 C1316 1.264 . S
O1307 Eu1260 2.432 . S
O1307 C1324 1.268 . S
O1308 Eu1260 2.291 . S
O1308 C1323 1.255 . S
O1309 Eu1271 2.372 . S
O1309 C1323 1.257 . S
O1310 Eu1271 2.462 . S
O1310 C1335 1.252 . S
O1311 Eu1271 2.373 . S
O1311 C1327 1.249 . S
O1312 Eu1260 2.335 . S
O1312 C1327 1.264 . S
O1313 Eu1271 2.432 . S
O1313 C1335 1.268 . S
O1314 Eu1271 2.291 . S
O1314 C1334 1.255 . S
O1315 Eu1260 2.372 . S
O1315 C1334 1.257 . S
C1316 O1305 1.249 . S
C1316 O1306 1.264 . S
C1317 C1320 1.382 . S
C1317 C1322 1.390 . S
C1317 C1324 1.506 . S
C1318 C1319 1.398 . S
C1318 C1322 1.392 . S
C1319 C1318 1.398 . S
C1319 C1321 1.372 . S
C1319 H1336 0.931 . S
C1320 C1317 1.382 . S
C1320 C1321 1.390 . S
C1320 H1337 0.931 . S
C1321 C1319 1.372 . S
C1321 C1320 1.390 . S
C1321 H1338 0.929 . S
C1322 C1317 1.390 . S
C1322 C1318 1.392 . S
C1322 H1339 0.930 . S
C1323 O1308 1.255 . S
C1323 O1309 1.257 . S
C1324 Eu1260 2.787 . S
C1324 O1304 1.252 . S
C1324 O1307 1.268 . S
C1324 C1317 1.506 . S
C1325 C1292 1.439 . S
C1325 H1302 0.931 . S
C1325 C1326 1.374 . S
C1326 C1297 1.387 . S
C1326 H1303 0.931 . S
C1326 C1325 1.374 . S
C1327 O1311 1.249 . S
C1327 O1312 1.264 . S
C1328 C1331 1.382 . S
C1328 C1332 1.390 . S
C1328 C1335 1.506 . S
C1329 C1330 1.398 . S
C1329 C1332 1.392 . S
C1330 C1329 1.398 . S
C1330 C1333 1.372 . S
C1330 H1340 0.931 1_545 S
C1331 C1328 1.382 . S
C1331 C1333 1.390 . S
C1331 H1341 0.931 . S
C1332 C1328 1.390 . S
C1332 C1329 1.392 . S
C1332 H1342 0.930 . S
C1333 C1330 1.372 . S
C1333 C1331 1.390 . S
C1333 H1343 0.929 . S
C1334 O1314 1.255 . S
C1334 O1315 1.257 . S
C1335 Eu1271 2.787 . S
C1335 O1310 1.252 . S
C1335 O1313 1.268 . S
C1335 C1328 1.506 . S
H1336 C1319 0.931 . S
H1337 C1320 0.931 . S
H1338 C1321 0.929 . S
H1339 C1322 0.930 . S
H1340 C1330 0.931 1_565 S
H1341 C1331 0.931 . S
H1342 C1332 0.930 . S
H1343 C1333 0.929 . S
H1344 C1350 0.930 . S
H1345 C1354 0.930 . S
H1346 C1359 0.929 . S
H1347 C1357 0.929 . S
H1348 C1352 0.929 . S
H1349 C1358 0.929 . S
C1350 H1344 0.930 . S
C1350 C1351 1.367 . S
C1350 C1358 1.378 . S
C1351 C1350 1.367 . S
C1351 C1359 1.433 . S
C1352 H1348 0.929 . S
C1352 C1354 1.378 . S
C1352 C1356 1.350 . S
C1353 C1356 1.463 . S
C1353 C1358 1.350 . S
C1353 N1361 1.427 . S
C1354 H1345 0.930 . S
C1354 C1352 1.378 . S
C1354 C1355 1.367 . S
C1355 C1354 1.367 . S
C1355 C1357 1.433 . S
C1356 C1352 1.350 . S
C1356 C1353 1.463 . S
C1356 N1360 1.427 . S
C1357 H1347 0.929 . S
C1357 C1355 1.433 . S
C1357 N1360 1.384 . S
C1358 H1349 0.929 . S
C1358 C1350 1.378 . S
C1358 C1353 1.350 . S
C1359 H1346 0.929 . S
C1359 C1351 1.433 . S
C1359 N1361 1.384 . S
N1360 C1356 1.427 . S
N1360 C1357 1.384 . S
N1361 C1353 1.427 . S
N1361 C1359 1.384 . S
H1362 C1368 0.930 . S
H1363 C1372 0.930 . S
H1364 C1377 0.929 . S
H1365 C1375 0.929 . S
H1366 C1370 0.929 . S
H1367 C1376 0.929 . S
C1368 H1362 0.930 . S
C1368 C1369 1.367 . S
C1368 C1376 1.378 . S
C1369 C1368 1.367 . S
C1369 C1377 1.433 . S
C1370 H1366 0.929 . S
C1370 C1372 1.378 . S
C1370 C1374 1.350 . S
C1371 C1374 1.463 . S
C1371 C1376 1.350 . S
C1371 N1379 1.427 . S
C1372 H1363 0.930 . S
C1372 C1370 1.378 . S
C1372 C1373 1.367 . S
C1373 C1372 1.367 . S
C1373 C1375 1.433 . S
C1374 C1370 1.350 . S
C1374 C1371 1.463 . S
C1374 N1378 1.427 . S
C1375 H1365 0.929 . S
C1375 C1373 1.433 . S
C1375 N1378 1.384 . S
C1376 H1367 0.929 . S
C1376 C1368 1.378 . S
C1376 C1371 1.350 . S
C1377 H1364 0.929 . S
C1377 C1369 1.433 . S
C1377 N1379 1.384 . S
N1378 C1374 1.427 . S
N1378 C1375 1.384 . S
N1379 C1371 1.427 . S
N1379 C1377 1.384 . S
H1380 C1386 0.930 . S
H1381 C1390 0.930 . S
H1382 C1395 0.929 . S
H1383 C1393 0.929 . S
H1384 C1388 0.929 1_455 S
H1385 C1394 0.929 1_655 S
C1386 H1380 0.930 . S
C1386 C1387 1.367 . S
C1386 C1394 1.378 . S
C1387 C1386 1.367 . S
C1387 C1395 1.433 . S
C1388 H1384 0.929 1_655 S
C1388 C1390 1.378 . S
C1388 C1392 1.350 . S
C1389 C1392 1.463 1_455 S
C1389 C1394 1.350 . S
C1389 N1397 1.427 . S
C1390 H1381 0.930 . S
C1390 C1388 1.378 . S
C1390 C1391 1.367 . S
C1391 C1390 1.367 . S
C1391 C1393 1.433 . S
C1392 C1388 1.350 . S
C1392 C1389 1.463 1_655 S
C1392 N1396 1.427 . S
C1393 H1383 0.929 . S
C1393 C1391 1.433 . S
C1393 N1396 1.384 . S
C1394 H1385 0.929 1_455 S
C1394 C1386 1.378 . S
C1394 C1389 1.350 . S
C1395 H1382 0.929 . S
C1395 C1387 1.433 . S
C1395 N1397 1.384 . S
N1396 C1392 1.427 . S
N1396 C1393 1.384 . S
N1397 C1389 1.427 . S
N1397 C1395 1.384 . S
H1398 C1404 0.930 . S
H1399 C1408 0.930 . S
H1400 C1413 0.929 . S
H1401 C1411 0.929 . S
H1402 C1406 0.929 1_655 S
H1403 C1412 0.929 1_455 S
C1404 H1398 0.930 . S
C1404 C1405 1.367 . S
C1404 C1412 1.378 . S
C1405 C1404 1.367 . S
C1405 C1413 1.433 . S
C1406 H1402 0.929 1_455 S
C1406 C1408 1.378 . S
C1406 C1410 1.350 . S
C1407 C1410 1.463 1_655 S
C1407 C1412 1.350 . S
C1407 N1415 1.427 . S
C1408 H1399 0.930 . S
C1408 C1406 1.378 . S
C1408 C1409 1.367 . S
C1409 C1408 1.367 . S
C1409 C1411 1.433 . S
C1410 C1406 1.350 . S
C1410 C1407 1.463 1_455 S
C1410 N1414 1.427 . S
C1411 H1401 0.929 . S
C1411 C1409 1.433 . S
C1411 N1414 1.384 . S
C1412 H1403 0.929 1_655 S
C1412 C1404 1.378 . S
C1412 C1407 1.350 . S
C1413 H1400 0.929 . S
C1413 C1405 1.433 . S
C1413 N1415 1.384 . S
N1414 C1410 1.427 . S
N1414 C1411 1.384 . S
N1415 C1407 1.427 . S
N1415 C1413 1.384 . S
H1416 C1422 0.930 . S
H1417 C1426 0.930 . S
H1418 C1431 0.929 . S
H1419 C1429 0.929 . S
H1420 C1424 0.929 . S
H1421 C1430 0.929 . S
C1422 H1416 0.930 . S
C1422 C1423 1.367 . S
C1422 C1430 1.378 . S
C1423 C1422 1.367 . S
C1423 C1431 1.433 . S
C1424 H1420 0.929 . S
C1424 C1426 1.378 . S
C1424 C1428 1.350 . S
C1425 C1428 1.463 . S
C1425 C1430 1.350 . S
C1425 N1433 1.427 . S
C1426 H1417 0.930 . S
C1426 C1424 1.378 . S
C1426 C1427 1.367 . S
C1427 C1426 1.367 . S
C1427 C1429 1.433 . S
C1428 C1424 1.350 . S
C1428 C1425 1.463 . S
C1428 N1432 1.427 . S
C1429 H1419 0.929 . S
C1429 C1427 1.433 . S
C1429 N1432 1.384 . S
C1430 H1421 0.929 . S
C1430 C1422 1.378 . S
C1430 C1425 1.350 . S
C1431 H1418 0.929 . S
C1431 C1423 1.433 . S
C1431 N1433 1.384 . S
N1432 C1428 1.427 . S
N1432 C1429 1.384 . S
N1433 C1425 1.427 . S
N1433 C1431 1.384 . S
H1434 C1440 0.930 . S
H1435 C1444 0.930 . S
H1436 C1449 0.929 . S
H1437 C1447 0.929 . S
H1438 C1442 0.929 . S
H1439 C1448 0.929 . S
C1440 H1434 0.930 . S
C1440 C1441 1.367 . S
C1440 C1448 1.378 . S
C1441 C1440 1.367 . S
C1441 C1449 1.433 . S
C1442 H1438 0.929 . S
C1442 C1444 1.378 . S
C1442 C1446 1.350 . S
C1443 C1446 1.463 . S
C1443 C1448 1.350 . S
C1443 N1451 1.427 . S
C1444 H1435 0.930 . S
C1444 C1442 1.378 . S
C1444 C1445 1.367 . S
C1445 C1444 1.367 . S
C1445 C1447 1.433 . S
C1446 C1442 1.350 . S
C1446 C1443 1.463 . S
C1446 N1450 1.427 . S
C1447 H1437 0.929 . S
C1447 C1445 1.433 . S
C1447 N1450 1.384 . S
C1448 H1439 0.929 . S
C1448 C1440 1.378 . S
C1448 C1443 1.350 . S
C1449 H1436 0.929 . S
C1449 C1441 1.433 . S
C1449 N1451 1.384 . S
N1450 C1446 1.427 . S
N1450 C1447 1.384 . S
N1451 C1443 1.427 . S
N1451 C1449 1.384 . S
H1452 C1458 0.930 . S
H1453 C1462 0.930 . S
H1454 C1467 0.929 . S
H1455 C1465 0.929 . S
H1456 C1460 0.929 1_655 S
H1457 C1466 0.929 1_455 S
C1458 H1452 0.930 . S
C1458 C1459 1.367 . S
C1458 C1466 1.378 . S
C1459 C1458 1.367 . S
C1459 C1467 1.433 . S
C1460 H1456 0.929 1_455 S
C1460 C1462 1.378 . S
C1460 C1464 1.350 . S
C1461 C1464 1.463 1_655 S
C1461 C1466 1.350 . S
C1461 N1469 1.427 . S
C1462 H1453 0.930 . S
C1462 C1460 1.378 . S
C1462 C1463 1.367 . S
C1463 C1462 1.367 . S
C1463 C1465 1.433 . S
C1464 C1460 1.350 . S
C1464 C1461 1.463 1_455 S
C1464 N1468 1.427 . S
C1465 H1455 0.929 . S
C1465 C1463 1.433 . S
C1465 N1468 1.384 . S
C1466 H1457 0.929 1_655 S
C1466 C1458 1.378 . S
C1466 C1461 1.350 . S
C1467 H1454 0.929 . S
C1467 C1459 1.433 . S
C1467 N1469 1.384 . S
N1468 C1464 1.427 . S
N1468 C1465 1.384 . S
N1469 C1461 1.427 . S
N1469 C1467 1.384 . S
H1470 C1476 0.930 . S
H1471 C1480 0.930 . S
H1472 C1485 0.929 . S
H1473 C1483 0.929 . S
H1474 C1478 0.929 1_455 S
H1475 C1484 0.929 1_655 S
C1476 H1470 0.930 . S
C1476 C1477 1.367 . S
C1476 C1484 1.378 . S
C1477 C1476 1.367 . S
C1477 C1485 1.433 . S
C1478 H1474 0.929 1_655 S
C1478 C1480 1.378 . S
C1478 C1482 1.350 . S
C1479 C1482 1.463 1_455 S
C1479 C1484 1.350 . S
C1479 N1487 1.427 . S
C1480 H1471 0.930 . S
C1480 C1478 1.378 . S
C1480 C1481 1.367 . S
C1481 C1480 1.367 . S
C1481 C1483 1.433 . S
C1482 C1478 1.350 . S
C1482 C1479 1.463 1_655 S
C1482 N1486 1.427 . S
C1483 H1473 0.929 . S
C1483 C1481 1.433 . S
C1483 N1486 1.384 . S
C1484 H1475 0.929 1_455 S
C1484 C1476 1.378 . S
C1484 C1479 1.350 . S
C1485 H1472 0.929 . S
C1485 C1477 1.433 . S
C1485 N1487 1.384 . S
N1486 C1482 1.427 . S
N1486 C1483 1.384 . S
N1487 C1479 1.427 . S
N1487 C1485 1.384 . S
H1488 C1494 0.930 . S
H1489 C1498 0.930 . S
H1490 C1503 0.929 . S
H1491 C1501 0.929 . S
H1492 C1496 0.929 . S
H1493 C1502 0.929 . S
C1494 H1488 0.930 . S
C1494 C1495 1.367 . S
C1494 C1502 1.378 . S
C1495 C1494 1.367 . S
C1495 C1503 1.433 . S
C1496 H1492 0.929 . S
C1496 C1498 1.378 . S
C1496 C1500 1.350 . S
C1497 C1500 1.463 . S
C1497 C1502 1.350 . S
C1497 N1505 1.427 . S
C1498 H1489 0.930 . S
C1498 C1496 1.378 . S
C1498 C1499 1.367 . S
C1499 C1498 1.367 . S
C1499 C1501 1.433 . S
C1500 C1496 1.350 . S
C1500 C1497 1.463 . S
C1500 N1504 1.427 . S
C1501 H1491 0.929 . S
C1501 C1499 1.433 . S
C1501 N1504 1.384 . S
C1502 H1493 0.929 . S
C1502 C1494 1.378 . S
C1502 C1497 1.350 . S
C1503 H1490 0.929 . S
C1503 C1495 1.433 . S
C1503 N1505 1.384 . S
N1504 C1500 1.427 . S
N1504 C1501 1.384 . S
N1505 C1497 1.427 . S
N1505 C1503 1.384 . S
H1506 C1512 0.930 . S
H1507 C1516 0.930 . S
H1508 C1521 0.929 . S
H1509 C1519 0.929 . S
H1510 C1514 0.929 . S
H1511 C1520 0.929 . S
C1512 H1506 0.930 . S
C1512 C1513 1.367 . S
C1512 C1520 1.378 . S
C1513 C1512 1.367 . S
C1513 C1521 1.433 . S
C1514 H1510 0.929 . S
C1514 C1516 1.378 . S
C1514 C1518 1.350 . S
C1515 C1518 1.463 . S
C1515 C1520 1.350 . S
C1515 N1523 1.427 . S
C1516 H1507 0.930 . S
C1516 C1514 1.378 . S
C1516 C1517 1.367 . S
C1517 C1516 1.367 . S
C1517 C1519 1.433 . S
C1518 C1514 1.350 . S
C1518 C1515 1.463 . S
C1518 N1522 1.427 . S
C1519 H1509 0.929 . S
C1519 C1517 1.433 . S
C1519 N1522 1.384 . S
C1520 H1511 0.929 . S
C1520 C1512 1.378 . S
C1520 C1515 1.350 . S
C1521 H1508 0.929 . S
C1521 C1513 1.433 . S
C1521 N1523 1.384 . S
N1522 C1518 1.427 . S
N1522 C1519 1.384 . S
N1523 C1515 1.427 . S
N1523 C1521 1.384 . S
H1524 C1530 0.930 . S
H1525 C1534 0.930 . S
H1526 C1539 0.929 . S
H1527 C1537 0.929 . S
H1528 C1532 0.929 . S
H1529 C1538 0.929 . S
C1530 H1524 0.930 . S
C1530 C1531 1.367 . S
C1530 C1538 1.378 . S
C1531 C1530 1.367 . S
C1531 C1539 1.433 . S
C1532 H1528 0.929 . S
C1532 C1534 1.378 . S
C1532 C1536 1.350 . S
C1533 C1536 1.463 . S
C1533 C1538 1.350 . S
C1533 N1541 1.427 . S
C1534 H1525 0.930 . S
C1534 C1532 1.378 . S
C1534 C1535 1.367 . S
C1535 C1534 1.367 . S
C1535 C1537 1.433 . S
C1536 C1532 1.350 . S
C1536 C1533 1.463 . S
C1536 N1540 1.427 . S
C1537 H1527 0.929 . S
C1537 C1535 1.433 . S
C1537 N1540 1.384 . S
C1538 H1529 0.929 . S
C1538 C1530 1.378 . S
C1538 C1533 1.350 . S
C1539 H1526 0.929 . S
C1539 C1531 1.433 . S
C1539 N1541 1.384 . S
N1540 C1536 1.427 . S
N1540 C1537 1.384 . S
N1541 C1533 1.427 . S
N1541 C1539 1.384 . S
H1542 C1548 0.930 . S
H1543 C1552 0.930 . S
H1544 C1557 0.929 . S
H1545 C1555 0.929 . S
H1546 C1550 0.929 . S
H1547 C1556 0.929 . S
C1548 H1542 0.930 . S
C1548 C1549 1.367 . S
C1548 C1556 1.378 . S
C1549 C1548 1.367 . S
C1549 C1557 1.433 . S
C1550 H1546 0.929 . S
C1550 C1552 1.378 . S
C1550 C1554 1.350 . S
C1551 C1554 1.463 . S
C1551 C1556 1.350 . S
C1551 N1559 1.427 . S
C1552 H1543 0.930 . S
C1552 C1550 1.378 . S
C1552 C1553 1.367 . S
C1553 C1552 1.367 . S
C1553 C1555 1.433 . S
C1554 C1550 1.350 . S
C1554 C1551 1.463 . S
C1554 N1558 1.427 . S
C1555 H1545 0.929 . S
C1555 C1553 1.433 . S
C1555 N1558 1.384 . S
C1556 H1547 0.929 . S
C1556 C1548 1.378 . S
C1556 C1551 1.350 . S
C1557 H1544 0.929 . S
C1557 C1549 1.433 . S
C1557 N1559 1.384 . S
N1558 C1554 1.427 . S
N1558 C1555 1.384 . S
N1559 C1551 1.427 . S
N1559 C1557 1.384 . S
H1560 C1566 0.915 1_556 S
H1561 C1570 0.930 . S
H1562 C1575 0.929 . S
H1563 C1573 0.929 . S
H1564 C1568 0.929 . S
H1565 C1574 0.929 . S
C1566 H1560 0.915 1_554 S
C1566 C1567 1.367 . S
C1566 C1574 1.378 . S
C1567 C1566 1.367 . S
C1567 C1575 1.433 . S
C1568 H1564 0.929 . S
C1568 C1570 1.378 . S
C1568 C1572 1.350 . S
C1569 C1572 1.463 . S
C1569 C1574 1.350 . S
C1569 N1577 1.427 . S
C1570 H1561 0.930 . S
C1570 C1568 1.378 . S
C1570 C1571 1.367 . S
C1571 C1570 1.367 . S
C1571 C1573 1.433 . S
C1572 C1568 1.350 . S
C1572 C1569 1.463 . S
C1572 N1576 1.427 . S
C1573 H1563 0.929 . S
C1573 C1571 1.433 . S
C1573 N1576 1.384 . S
C1574 H1565 0.929 . S
C1574 C1566 1.378 . S
C1574 C1569 1.350 . S
C1575 H1562 0.929 . S
C1575 C1567 1.433 . S
C1575 N1577 1.384 . S
N1576 C1572 1.427 . S
N1576 C1573 1.384 . S
N1577 C1569 1.427 . S
N1577 C1575 1.384 . S
H1578 C1584 0.930 . S
H1579 C1588 0.930 . S
H1580 C1593 0.929 . S
H1581 C1591 0.929 . S
H1582 C1586 0.929 . S
H1583 C1592 0.929 . S
C1584 H1578 0.930 . S
C1584 C1585 1.367 . S
C1584 C1592 1.378 . S
C1585 C1584 1.367 . S
C1585 C1593 1.433 . S
C1586 H1582 0.929 . S
C1586 C1588 1.378 . S
C1586 C1590 1.350 . S
C1587 C1590 1.463 . S
C1587 C1592 1.350 . S
C1587 N1595 1.427 . S
C1588 H1579 0.930 . S
C1588 C1586 1.378 . S
C1588 C1589 1.367 . S
C1589 C1588 1.367 . S
C1589 C1591 1.433 . S
C1590 C1586 1.350 . S
C1590 C1587 1.463 . S
C1590 N1594 1.427 . S
C1591 H1581 0.929 . S
C1591 C1589 1.433 . S
C1591 N1594 1.384 . S
C1592 H1583 0.929 . S
C1592 C1584 1.378 . S
C1592 C1587 1.350 . S
C1593 H1580 0.929 . S
C1593 C1585 1.433 . S
C1593 N1595 1.384 . S
N1594 C1590 1.427 . S
N1594 C1591 1.384 . S
N1595 C1587 1.427 . S
N1595 C1593 1.384 . S
H1596 C1602 0.930 . S
H1597 C1606 0.930 . S
H1598 C1611 0.929 . S
H1599 C1609 0.929 . S
H1600 C1604 0.929 . S
H1601 C1610 0.929 . S
C1602 H1596 0.930 . S
C1602 C1603 1.367 . S
C1602 C1610 1.378 . S
C1603 C1602 1.367 . S
C1603 C1611 1.433 . S
C1604 H1600 0.929 . S
C1604 C1606 1.378 . S
C1604 C1608 1.350 . S
C1605 C1608 1.463 . S
C1605 C1610 1.350 . S
C1605 N1613 1.427 . S
C1606 H1597 0.930 . S
C1606 C1604 1.378 . S
C1606 C1607 1.367 . S
C1607 C1606 1.367 . S
C1607 C1609 1.433 . S
C1608 C1604 1.350 . S
C1608 C1605 1.463 . S
C1608 N1612 1.427 . S
C1609 H1599 0.929 . S
C1609 C1607 1.433 . S
C1609 N1612 1.384 . S
C1610 H1601 0.929 . S
C1610 C1602 1.378 . S
C1610 C1605 1.350 . S
C1611 H1598 0.929 . S
C1611 C1603 1.433 . S
C1611 N1613 1.384 . S
N1612 C1608 1.427 . S
N1612 C1609 1.384 . S
N1613 C1605 1.427 . S
N1613 C1611 1.384 . S
H1614 C1620 0.930 . S
H1615 C1624 0.930 . S
H1616 C1629 0.929 . S
H1617 C1627 0.929 . S
H1618 C1622 0.929 . S
H1619 C1628 0.929 . S
C1620 H1614 0.930 . S
C1620 C1621 1.367 . S
C1620 C1628 1.378 . S
C1621 C1620 1.367 . S
C1621 C1629 1.433 . S
C1622 H1618 0.929 . S
C1622 C1624 1.378 . S
C1622 C1626 1.350 . S
C1623 C1626 1.463 . S
C1623 C1628 1.350 . S
C1623 N1631 1.427 . S
C1624 H1615 0.930 . S
C1624 C1622 1.378 . S
C1624 C1625 1.367 . S
C1625 C1624 1.367 . S
C1625 C1627 1.433 . S
C1626 C1622 1.350 . S
C1626 C1623 1.463 . S
C1626 N1630 1.427 . S
C1627 H1617 0.929 . S
C1627 C1625 1.433 . S
C1627 N1630 1.384 . S
C1628 H1619 0.929 . S
C1628 C1620 1.378 . S
C1628 C1623 1.350 . S
C1629 H1616 0.929 . S
C1629 C1621 1.433 . S
C1629 N1631 1.384 . S
N1630 C1626 1.427 . S
N1630 C1627 1.384 . S
N1631 C1623 1.427 . S
N1631 C1629 1.384 . S
H1632 C1638 0.930 . S
H1633 C1642 0.930 . S
H1634 C1647 0.929 . S
H1635 C1645 0.929 . S
H1636 C1640 0.929 . S
H1637 C1646 0.929 . S
C1638 H1632 0.930 . S
C1638 C1639 1.367 . S
C1638 C1646 1.378 . S
C1639 C1638 1.367 . S
C1639 C1647 1.433 . S
C1640 H1636 0.929 . S
C1640 C1642 1.378 . S
C1640 C1644 1.350 . S
C1641 C1644 1.463 . S
C1641 C1646 1.350 . S
C1641 N1649 1.427 . S
C1642 H1633 0.930 . S
C1642 C1640 1.378 . S
C1642 C1643 1.367 . S
C1643 C1642 1.367 . S
C1643 C1645 1.433 . S
C1644 C1640 1.350 . S
C1644 C1641 1.463 . S
C1644 N1648 1.427 . S
C1645 H1635 0.929 . S
C1645 C1643 1.433 . S
C1645 N1648 1.384 . S
C1646 H1637 0.929 . S
C1646 C1638 1.378 . S
C1646 C1641 1.350 . S
C1647 H1634 0.929 . S
C1647 C1639 1.433 . S
C1647 N1649 1.384 . S
N1648 C1644 1.427 . S
N1648 C1645 1.384 . S
N1649 C1641 1.427 . S
N1649 C1647 1.384 . S
H1650 C1656 0.930 . S
H1651 C1660 0.930 . S
H1652 C1665 0.929 . S
H1653 C1663 0.929 . S
H1654 C1658 0.929 . S
H1655 C1664 0.929 . S
C1656 H1650 0.930 . S
C1656 C1657 1.367 . S
C1656 C1664 1.378 1_545 S
C1657 C1656 1.367 . S
C1657 C1665 1.433 . S
C1658 H1654 0.929 . S
C1658 C1660 1.378 . S
C1658 C1662 1.350 . S
C1659 C1662 1.463 . S
C1659 C1664 1.350 . S
C1659 N1667 1.427 . S
C1660 H1651 0.930 . S
C1660 C1658 1.378 . S
C1660 C1661 1.367 . S
C1661 C1660 1.367 . S
C1661 C1663 1.433 . S
C1662 C1658 1.350 . S
C1662 C1659 1.463 . S
C1662 N1666 1.427 . S
C1663 H1653 0.929 . S
C1663 C1661 1.433 . S
C1663 N1666 1.384 . S
C1664 H1655 0.929 . S
C1664 C1656 1.378 1_565 S
C1664 C1659 1.350 . S
C1665 H1652 0.929 . S
C1665 C1657 1.433 . S
C1665 N1667 1.384 1_545 S
N1666 C1662 1.427 . S
N1666 C1663 1.384 . S
N1667 C1659 1.427 . S
N1667 C1665 1.384 1_565 S
H1668 C1674 0.930 1_554 S
H1669 C1678 0.930 . S
H1670 C1683 0.929 . S
H1671 C1681 0.929 . S
H1672 C1676 0.929 . S
H1673 C1682 0.929 . S
C1674 H1668 0.930 1_556 S
C1674 C1675 1.367 . S
C1674 C1682 1.378 . S
C1675 C1674 1.367 . S
C1675 C1683 1.433 . S
C1676 H1672 0.929 . S
C1676 C1678 1.378 . S
C1676 C1680 1.350 . S
C1677 C1680 1.463 . S
C1677 C1682 1.350 . S
C1677 N1685 1.427 . S
C1678 H1669 0.930 . S
C1678 C1676 1.378 . S
C1678 C1679 1.367 . S
C1679 C1678 1.367 . S
C1679 C1681 1.433 . S
C1680 C1676 1.350 . S
C1680 C1677 1.463 . S
C1680 N1684 1.427 . S
C1681 H1671 0.929 . S
C1681 C1679 1.433 . S
C1681 N1684 1.384 . S
C1682 H1673 0.929 . S
C1682 C1674 1.378 . S
C1682 C1677 1.350 . S
C1683 H1670 0.929 . S
C1683 C1675 1.433 . S
C1683 N1685 1.384 . S
N1684 C1680 1.427 . S
N1684 C1681 1.384 . S
N1685 C1677 1.427 . S
N1685 C1683 1.384 . S
H1686 C1692 0.926 1_545 S
H1687 C1696 0.930 . S
H1688 C1701 0.929 . S
H1689 C1699 0.929 . S
H1690 C1694 0.929 . S
H1691 C1700 0.929 . S
C1692 H1686 0.926 1_565 S
C1692 C1693 1.400 . S
C1692 C1700 1.348 1_565 S
C1693 C1692 1.400 . S
C1693 C1701 1.433 . S
C1694 H1690 0.929 . S
C1694 C1696 1.378 . S
C1694 C1698 1.350 . S
C1695 C1698 1.463 . S
C1695 C1700 1.350 . S
C1695 N1703 1.427 1_545 S
C1696 H1687 0.930 . S
C1696 C1694 1.378 . S
C1696 C1697 1.367 . S
C1697 C1696 1.367 . S
C1697 C1699 1.433 . S
C1698 C1694 1.350 . S
C1698 C1695 1.463 . S
C1698 N1702 1.427 . S
C1699 H1689 0.929 . S
C1699 C1697 1.433 . S
C1699 N1702 1.384 . S
C1700 H1691 0.929 . S
C1700 C1692 1.348 1_545 S
C1700 C1695 1.350 . S
C1701 H1688 0.929 . S
C1701 C1693 1.433 . S
C1701 N1703 1.384 . S
N1702 C1698 1.427 . S
N1702 C1699 1.384 . S
N1703 C1695 1.427 1_565 S
N1703 C1701 1.384 . S
H1704 C1710 0.930 . S
H1705 C1714 0.930 . S
H1706 C1719 0.929 . S
H1707 C1717 0.929 . S
H1708 C1712 0.929 . S
H1709 C1718 0.929 . S
C1710 H1704 0.930 . S
C1710 C1711 1.367 . S
C1710 C1718 1.378 . S
C1711 C1710 1.367 . S
C1711 C1719 1.433 . S
C1712 H1708 0.929 . S
C1712 C1714 1.378 . S
C1712 C1716 1.350 . S
C1713 C1716 1.463 . S
C1713 C1718 1.350 . S
C1713 N1721 1.427 . S
C1714 H1705 0.930 . S
C1714 C1712 1.378 . S
C1714 C1715 1.367 . S
C1715 C1714 1.367 . S
C1715 C1717 1.433 . S
C1716 C1712 1.350 . S
C1716 C1713 1.463 . S
C1716 N1720 1.427 . S
C1717 H1707 0.929 . S
C1717 C1715 1.433 . S
C1717 N1720 1.384 . S
C1718 H1709 0.929 . S
C1718 C1710 1.378 . S
C1718 C1713 1.350 . S
C1719 H1706 0.929 . S
C1719 C1711 1.433 . S
C1719 N1721 1.384 . S
N1720 C1716 1.427 . S
N1720 C1717 1.384 . S
N1721 C1713 1.427 . S
N1721 C1719 1.384 . S
H1722 C1728 0.930 . S
H1723 C1732 0.930 . S
H1724 C1737 0.929 . S
H1725 C1735 0.929 . S
H1726 C1730 0.929 . S
H1727 C1736 0.929 . S
C1728 H1722 0.930 . S
C1728 C1729 1.367 . S
C1728 C1736 1.378 . S
C1729 C1728 1.367 . S
C1729 C1737 1.433 . S
C1730 H1726 0.929 . S
C1730 C1732 1.378 1_545 S
C1730 C1734 1.350 . S
C1731 C1734 1.463 . S
C1731 C1736 1.350 . S
C1731 N1739 1.427 . S
C1732 H1723 0.930 . S
C1732 C1730 1.378 1_565 S
C1732 C1733 1.367 . S
C1733 C1732 1.367 . S
C1733 C1735 1.433 . S
C1734 C1730 1.350 . S
C1734 C1731 1.463 . S
C1734 N1738 1.427 1_545 S
C1735 H1725 0.929 . S
C1735 C1733 1.433 . S
C1735 N1738 1.384 . S
C1736 H1727 0.929 . S
C1736 C1728 1.378 . S
C1736 C1731 1.350 . S
C1737 H1724 0.929 . S
C1737 C1729 1.433 . S
C1737 N1739 1.384 . S
N1738 C1734 1.427 1_565 S
N1738 C1735 1.384 . S
N1739 C1731 1.427 . S
N1739 C1737 1.384 . S
H1740 C1746 0.930 . S
H1741 C1750 0.930 . S
H1742 C1755 0.929 . S
H1743 C1753 0.929 . S
H1744 C1748 0.929 . S
H1745 C1754 0.929 . S
C1746 H1740 0.930 . S
C1746 C1747 1.367 . S
C1746 C1754 1.378 . S
C1747 C1746 1.367 . S
C1747 C1755 1.433 . S
C1748 H1744 0.929 . S
C1748 C1750 1.378 . S
C1748 C1752 1.350 . S
C1749 C1752 1.463 . S
C1749 C1754 1.350 . S
C1749 N1757 1.427 . S
C1750 H1741 0.930 . S
C1750 C1748 1.378 . S
C1750 C1751 1.367 . S
C1751 C1750 1.367 . S
C1751 C1753 1.433 . S
C1752 C1748 1.350 . S
C1752 C1749 1.463 . S
C1752 N1756 1.427 . S
C1753 H1743 0.929 . S
C1753 C1751 1.433 . S
C1753 N1756 1.384 . S
C1754 H1745 0.929 . S
C1754 C1746 1.378 . S
C1754 C1749 1.350 . S
C1755 H1742 0.929 . S
C1755 C1747 1.433 . S
C1755 N1757 1.384 . S
N1756 C1752 1.427 . S
N1756 C1753 1.384 . S
N1757 C1749 1.427 . S
N1757 C1755 1.384 . S
H1758 C1764 0.930 . S
H1759 C1768 0.930 . S
H1760 C1773 0.930 . S
H1761 C1771 0.929 . S
H1762 C1766 0.929 . S
H1763 C1772 0.929 . S
C1764 H1758 0.930 . S
C1764 C1765 1.367 . S
C1764 C1772 1.378 . S
C1765 C1764 1.367 . S
C1765 C1773 1.433 . S
C1766 H1762 0.929 . S
C1766 C1768 1.378 . S
C1766 C1770 1.350 . S
C1767 C1770 1.463 . S
C1767 C1772 1.350 1_565 S
C1767 N1775 1.427 . S
C1768 H1759 0.930 . S
C1768 C1766 1.378 . S
C1768 C1769 1.367 . S
C1769 C1768 1.367 . S
C1769 C1771 1.433 . S
C1770 C1766 1.350 . S
C1770 C1767 1.463 . S
C1770 N1774 1.427 . S
C1771 H1761 0.929 . S
C1771 C1769 1.433 . S
C1771 N1774 1.384 . S
C1772 H1763 0.929 . S
C1772 C1764 1.378 . S
C1772 C1767 1.350 1_545 S
C1773 H1760 0.930 . S
C1773 C1765 1.433 . S
C1773 N1775 1.384 1_545 S
N1774 C1770 1.427 . S
N1774 C1771 1.384 . S
N1775 C1767 1.427 . S
N1775 C1773 1.384 1_565 S
H1776 C1782 0.930 . S
H1777 C1786 0.930 . S
H1778 C1791 0.929 . S
H1779 C1789 0.929 . S
H1780 C1784 0.929 . S
H1781 C1790 0.929 . S
C1782 H1776 0.930 . S
C1782 C1783 1.367 . S
C1782 C1790 1.378 . S
C1783 C1782 1.367 . S
C1783 C1791 1.433 . S
C1784 H1780 0.929 . S
C1784 C1786 1.378 . S
C1784 C1788 1.350 . S
C1785 C1788 1.463 . S
C1785 C1790 1.350 . S
C1785 N1793 1.427 . S
C1786 H1777 0.930 . S
C1786 C1784 1.378 . S
C1786 C1787 1.367 . S
C1787 C1786 1.367 . S
C1787 C1789 1.433 . S
C1788 C1784 1.350 . S
C1788 C1785 1.463 . S
C1788 N1792 1.427 . S
C1789 H1779 0.929 . S
C1789 C1787 1.433 . S
C1789 N1792 1.384 . S
C1790 H1781 0.929 . S
C1790 C1782 1.378 . S
C1790 C1785 1.350 . S
C1791 H1778 0.929 . S
C1791 C1783 1.433 . S
C1791 N1793 1.384 . S
N1792 C1788 1.427 . S
N1792 C1789 1.384 . S
N1793 C1785 1.427 . S
N1793 C1791 1.384 . S
H1794 C1800 0.930 . S
H1795 C1804 0.930 . S
H1796 C1809 0.929 . S
H1797 C1807 0.929 1_556 S
H1798 C1802 0.929 . S
H1799 C1808 0.929 . S
C1800 H1794 0.930 . S
C1800 C1801 1.367 . S
C1800 C1808 1.378 . S
C1801 C1800 1.367 . S
C1801 C1809 1.433 . S
C1802 H1798 0.929 . S
C1802 C1804 1.378 . S
C1802 C1806 1.350 . S
C1803 C1806 1.463 . S
C1803 C1808 1.350 . S
C1803 N1811 1.427 . S
C1804 H1795 0.930 . S
C1804 C1802 1.378 . S
C1804 C1805 1.367 . S
C1805 C1804 1.367 . S
C1805 C1807 1.433 . S
C1806 C1802 1.350 . S
C1806 C1803 1.463 . S
C1806 N1810 1.427 . S
C1807 H1797 0.929 1_554 S
C1807 C1805 1.433 . S
C1807 N1810 1.384 . S
C1808 H1799 0.929 . S
C1808 C1800 1.378 . S
C1808 C1803 1.350 . S
C1809 H1796 0.929 . S
C1809 C1801 1.433 . S
C1809 N1811 1.384 . S
N1810 C1806 1.427 . S
N1810 C1807 1.384 . S
N1811 C1803 1.427 . S
N1811 C1809 1.384 . S
H1812 C1818 0.930 . S
H1813 C1822 0.930 . S
H1814 C1827 0.929 . S
H1815 C1825 0.929 . S
H1816 C1820 0.929 . S
H1817 C1826 0.929 . S
C1818 H1812 0.930 . S
C1818 C1819 1.367 . S
C1818 C1826 1.378 . S
C1819 C1818 1.367 . S
C1819 C1827 1.433 . S
C1820 H1816 0.929 . S
C1820 C1822 1.378 . S
C1820 C1824 1.350 1_455 S
C1821 C1824 1.463 . S
C1821 C1826 1.350 . S
C1821 N1829 1.427 . S
C1822 H1813 0.930 . S
C1822 C1820 1.378 . S
C1822 C1823 1.367 . S
C1823 C1822 1.367 . S
C1823 C1825 1.433 1_455 S
C1824 C1820 1.350 1_655 S
C1824 C1821 1.463 . S
C1824 N1828 1.427 . S
C1825 H1815 0.929 . S
C1825 C1823 1.433 1_655 S
C1825 N1828 1.384 . S
C1826 H1817 0.929 . S
C1826 C1818 1.378 . S
C1826 C1821 1.350 . S
C1827 H1814 0.929 . S
C1827 C1819 1.433 . S
C1827 N1829 1.384 . S
N1828 C1824 1.427 . S
N1828 C1825 1.384 . S
N1829 C1821 1.427 . S
N1829 C1827 1.384 . S
H1830 C1836 0.930 . S
H1831 C1840 0.930 . S
H1832 C1845 0.929 . S
H1833 C1843 0.929 . S
H1834 C1838 0.929 . S
H1835 C1844 0.929 . S
C1836 H1830 0.930 . S
C1836 C1837 1.367 . S
C1836 C1844 1.378 . S
C1837 C1836 1.367 . S
C1837 C1845 1.433 . S
C1838 H1834 0.929 . S
C1838 C1840 1.378 . S
C1838 C1842 1.350 . S
C1839 C1842 1.463 . S
C1839 C1844 1.350 . S
C1839 N1847 1.427 . S
C1840 H1831 0.930 . S
C1840 C1838 1.378 . S
C1840 C1841 1.367 . S
C1841 C1840 1.367 . S
C1841 C1843 1.433 . S
C1842 C1838 1.350 . S
C1842 C1839 1.463 . S
C1842 N1846 1.427 . S
C1843 H1833 0.929 . S
C1843 C1841 1.433 . S
C1843 N1846 1.384 . S
C1844 H1835 0.929 . S
C1844 C1836 1.378 . S
C1844 C1839 1.350 . S
C1845 H1832 0.929 . S
C1845 C1837 1.433 . S
C1845 N1847 1.384 . S
N1846 C1842 1.427 . S
N1846 C1843 1.384 . S
N1847 C1839 1.427 . S
N1847 C1845 1.384 . S
H1848 C1854 0.930 . S
H1849 C1858 0.930 . S
H1850 C1863 0.929 . S
H1851 C1861 0.929 . S
H1852 C1856 0.929 . S
H1853 C1862 0.929 . S
C1854 H1848 0.930 . S
C1854 C1855 1.367 . S
C1854 C1862 1.378 . S
C1855 C1854 1.367 . S
C1855 C1863 1.433 . S
C1856 H1852 0.929 . S
C1856 C1858 1.378 . S
C1856 C1860 1.350 . S
C1857 C1860 1.463 . S
C1857 C1862 1.350 . S
C1857 N1865 1.427 . S
C1858 H1849 0.930 . S
C1858 C1856 1.378 . S
C1858 C1859 1.367 . S
C1859 C1858 1.367 . S
C1859 C1861 1.433 . S
C1860 C1856 1.350 . S
C1860 C1857 1.463 . S
C1860 N1864 1.427 . S
C1861 H1851 0.929 . S
C1861 C1859 1.433 . S
C1861 N1864 1.384 . S
C1862 H1853 0.929 . S
C1862 C1854 1.378 . S
C1862 C1857 1.350 . S
C1863 H1850 0.929 . S
C1863 C1855 1.433 . S
C1863 N1865 1.384 . S
N1864 C1860 1.427 . S
N1864 C1861 1.384 . S
N1865 C1857 1.427 . S
N1865 C1863 1.384 . S
H1866 C1872 0.930 . S
H1867 C1876 0.939 . S
H1868 C1881 0.929 . S
H1869 C1879 0.929 . S
H1870 C1874 0.929 . S
H1871 C1880 0.929 . S
C1872 H1866 0.930 . S
C1872 C1873 1.367 . S
C1872 C1880 1.378 . S
C1873 C1872 1.367 . S
C1873 C1881 1.433 . S
C1874 H1870 0.929 . S
C1874 C1876 1.378 . S
C1874 C1878 1.350 . S
C1875 C1878 1.463 . S
C1875 C1880 1.350 . S
C1875 N1883 1.427 . S
C1876 H1867 0.939 . S
C1876 C1874 1.378 . S
C1876 C1877 1.367 . S
C1877 C1876 1.367 . S
C1877 C1879 1.433 . S
C1878 C1874 1.350 . S
C1878 C1875 1.463 . S
C1878 N1882 1.427 . S
C1879 H1869 0.929 . S
C1879 C1877 1.433 . S
C1879 N1882 1.384 . S
C1880 H1871 0.929 . S
C1880 C1872 1.378 . S
C1880 C1875 1.350 . S
C1881 H1868 0.929 . S
C1881 C1873 1.433 . S
C1881 N1883 1.384 . S
N1882 C1878 1.427 . S
N1882 C1879 1.384 . S
N1883 C1875 1.427 . S
N1883 C1881 1.384 . S
H1884 C1890 0.930 . S
H1885 C1894 0.930 . S
H1886 C1899 0.929 . S
H1887 C1897 0.929 . S
H1888 C1892 0.929 . S
H1889 C1898 0.929 . S
C1890 H1884 0.930 . S
C1890 C1891 1.367 . S
C1890 C1898 1.378 . S
C1891 C1890 1.367 . S
C1891 C1899 1.433 . S
C1892 H1888 0.929 . S
C1892 C1894 1.378 1_455 S
C1892 C1896 1.350 . S
C1893 C1896 1.463 . S
C1893 C1898 1.350 . S
C1893 N1901 1.427 . S
C1894 H1885 0.930 . S
C1894 C1892 1.378 1_655 S
C1894 C1895 1.367 . S
C1895 C1894 1.367 . S
C1895 C1897 1.433 . S
C1896 C1892 1.350 . S
C1896 C1893 1.463 . S
C1896 N1900 1.427 . S
C1897 H1887 0.929 . S
C1897 C1895 1.433 . S
C1897 N1900 1.384 1_655 S
C1898 H1889 0.929 . S
C1898 C1890 1.378 . S
C1898 C1893 1.350 . S
C1899 H1886 0.929 . S
C1899 C1891 1.433 . S
C1899 N1901 1.384 . S
N1900 C1896 1.427 . S
N1900 C1897 1.384 1_455 S
N1901 C1893 1.427 . S
N1901 C1899 1.384 . S
H1902 C1908 0.930 . S
H1903 C1912 0.930 . S
H1904 C1917 0.929 . S
H1905 C1915 0.929 . S
H1906 C1910 0.929 . S
H1907 C1916 0.929 . S
C1908 H1902 0.930 . S
C1908 C1909 1.367 . S
C1908 C1916 1.378 . S
C1909 C1908 1.367 . S
C1909 C1917 1.433 . S
C1910 H1906 0.929 . S
C1910 C1912 1.378 . S
C1910 C1914 1.350 . S
C1911 C1914 1.463 . S
C1911 C1916 1.350 . S
C1911 N1919 1.427 . S
C1912 H1903 0.930 . S
C1912 C1910 1.378 . S
C1912 C1913 1.367 . S
C1913 C1912 1.367 . S
C1913 C1915 1.433 . S
C1914 C1910 1.350 . S
C1914 C1911 1.463 . S
C1914 N1918 1.427 . S
C1915 H1905 0.929 . S
C1915 C1913 1.433 . S
C1915 N1918 1.384 . S
C1916 H1907 0.929 . S
C1916 C1908 1.378 . S
C1916 C1911 1.350 . S
C1917 H1904 0.929 . S
C1917 C1909 1.433 . S
C1917 N1919 1.384 . S
N1918 C1914 1.427 . S
N1918 C1915 1.384 . S
N1919 C1911 1.427 . S
N1919 C1917 1.384 . S
H1920 C1926 0.930 . S
H1921 C1930 0.930 . S
H1922 C1935 0.929 . S
H1923 C1933 0.929 . S
H1924 C1928 0.929 . S
H1925 C1934 0.929 . S
C1926 H1920 0.930 . S
C1926 C1927 1.367 1_455 S
C1926 C1934 1.378 . S
C1927 C1926 1.367 1_655 S
C1927 C1935 1.433 . S
C1928 H1924 0.929 . S
C1928 C1930 1.378 . S
C1928 C1932 1.350 . S
C1929 C1932 1.463 . S
C1929 C1934 1.350 . S
C1929 N1937 1.427 1_455 S
C1930 H1921 0.930 . S
C1930 C1928 1.378 . S
C1930 C1931 1.367 . S
C1931 C1930 1.367 . S
C1931 C1933 1.433 . S
C1932 C1928 1.350 . S
C1932 C1929 1.463 . S
C1932 N1936 1.427 . S
C1933 H1923 0.929 . S
C1933 C1931 1.433 . S
C1933 N1936 1.384 . S
C1934 H1925 0.929 . S
C1934 C1926 1.378 . S
C1934 C1929 1.350 . S
C1935 H1922 0.929 . S
C1935 C1927 1.433 . S
C1935 N1937 1.384 . S
N1936 C1932 1.427 . S
N1936 C1933 1.384 . S
N1937 C1929 1.427 1_655 S
N1937 C1935 1.384 . S
H1938 C1944 0.930 . S
H1939 C1948 0.930 . S
H1940 C1953 0.929 . S
H1941 C1951 0.929 . S
H1942 C1946 0.929 . S
H1943 C1952 0.929 . S
C1944 H1938 0.930 . S
C1944 C1945 1.367 . S
C1944 C1952 1.378 . S
C1945 C1944 1.367 . S
C1945 C1953 1.433 . S
C1946 H1942 0.929 . S
C1946 C1948 1.378 . S
C1946 C1950 1.350 . S
C1947 C1950 1.463 . S
C1947 C1952 1.350 . S
C1947 N1955 1.427 . S
C1948 H1939 0.930 . S
C1948 C1946 1.378 . S
C1948 C1949 1.367 . S
C1949 C1948 1.367 . S
C1949 C1951 1.433 . S
C1950 C1946 1.350 . S
C1950 C1947 1.463 . S
C1950 N1954 1.427 . S
C1951 H1941 0.929 . S
C1951 C1949 1.433 . S
C1951 N1954 1.384 . S
C1952 H1943 0.929 . S
C1952 C1944 1.378 . S
C1952 C1947 1.350 . S
C1953 H1940 0.929 . S
C1953 C1945 1.433 . S
C1953 N1955 1.384 . S
N1954 C1950 1.427 . S
N1954 C1951 1.384 . S
N1955 C1947 1.427 . S
N1955 C1953 1.384 . S
H1956 C1962 0.930 . S
H1957 C1966 0.930 . S
H1958 C1971 0.929 . S
H1959 C1969 0.929 . S
H1960 C1964 0.929 . S
H1961 C1970 0.929 . S
C1962 H1956 0.930 . S
C1962 C1963 1.367 . S
C1962 C1970 1.378 . S
C1963 C1962 1.367 . S
C1963 C1971 1.433 . S
C1964 H1960 0.929 . S
C1964 C1966 1.378 . S
C1964 C1968 1.350 . S
C1965 C1968 1.463 . S
C1965 C1970 1.350 . S
C1965 N1973 1.427 . S
C1966 H1957 0.930 . S
C1966 C1964 1.378 . S
C1966 C1967 1.367 . S
C1967 C1966 1.367 . S
C1967 C1969 1.433 . S
C1968 C1964 1.350 . S
C1968 C1965 1.463 . S
C1968 N1972 1.427 . S
C1969 H1959 0.929 . S
C1969 C1967 1.433 . S
C1969 N1972 1.384 . S
C1970 H1961 0.929 . S
C1970 C1962 1.378 . S
C1970 C1965 1.350 . S
C1971 H1958 0.929 . S
C1971 C1963 1.433 . S
C1971 N1973 1.384 . S
N1972 C1968 1.427 . S
N1972 C1969 1.384 . S
N1973 C1965 1.427 . S
N1973 C1971 1.384 . S
H1974 C1980 0.930 . S
H1975 C1984 0.930 . S
H1976 C1989 0.929 . S
H1977 C1987 0.929 . S
H1978 C1982 0.929 . S
H1979 C1988 0.929 . S
C1980 H1974 0.930 . S
C1980 C1981 1.367 . S
C1980 C1988 1.378 . S
C1981 C1980 1.367 . S
C1981 C1989 1.433 . S
C1982 H1978 0.929 . S
C1982 C1984 1.378 . S
C1982 C1986 1.350 . S
C1983 C1986 1.463 . S
C1983 C1988 1.350 . S
C1983 N1991 1.427 . S
C1984 H1975 0.930 . S
C1984 C1982 1.378 . S
C1984 C1985 1.367 . S
C1985 C1984 1.367 . S
C1985 C1987 1.433 . S
C1986 C1982 1.350 . S
C1986 C1983 1.463 . S
C1986 N1990 1.427 . S
C1987 H1977 0.929 . S
C1987 C1985 1.433 . S
C1987 N1990 1.384 . S
C1988 H1979 0.929 . S
C1988 C1980 1.378 . S
C1988 C1983 1.350 . S
C1989 H1976 0.929 . S
C1989 C1981 1.433 . S
C1989 N1991 1.384 . S
N1990 C1986 1.427 . S
N1990 C1987 1.384 . S
N1991 C1983 1.427 . S
N1991 C1989 1.384 . S
H1992 C1998 0.930 . S
H1993 C2002 0.930 . S
H1994 C2007 0.929 . S
H1995 C2005 0.929 . S
H1996 C2000 0.929 . S
H1997 C2006 0.929 . S
C1998 H1992 0.930 . S
C1998 C1999 1.367 . S
C1998 C2006 1.378 . S
C1999 C1998 1.367 . S
C1999 C2007 1.433 1_455 S
C2000 H1996 0.929 . S
C2000 C2002 1.378 . S
C2000 C2004 1.350 . S
C2001 C2004 1.463 . S
C2001 C2006 1.350 1_655 S
C2001 N2009 1.427 . S
C2002 H1993 0.930 . S
C2002 C2000 1.378 . S
C2002 C2003 1.367 . S
C2003 C2002 1.367 . S
C2003 C2005 1.433 . S
C2004 C2000 1.350 . S
C2004 C2001 1.463 . S
C2004 N2008 1.427 . S
C2005 H1995 0.929 . S
C2005 C2003 1.433 . S
C2005 N2008 1.384 . S
C2006 H1997 0.929 . S
C2006 C1998 1.378 . S
C2006 C2001 1.350 1_455 S
C2007 H1994 0.929 . S
C2007 C1999 1.433 1_655 S
C2007 N2009 1.384 . S
N2008 C2004 1.427 . S
N2008 C2005 1.384 . S
N2009 C2001 1.427 . S
N2009 C2007 1.384 . S
H2010 C2016 0.930 . S
H2011 C2020 0.930 . S
H2012 C2025 0.929 . S
H2013 C2023 0.929 . S
H2014 C2018 0.929 . S
H2015 C2024 0.929 . S
C2016 H2010 0.930 . S
C2016 C2017 1.367 . S
C2016 C2024 1.378 . S
C2017 C2016 1.367 . S
C2017 C2025 1.433 . S
C2018 H2014 0.929 . S
C2018 C2020 1.378 . S
C2018 C2022 1.350 . S
C2019 C2022 1.463 . S
C2019 C2024 1.350 . S
C2019 N2027 1.427 . S
C2020 H2011 0.930 . S
C2020 C2018 1.378 . S
C2020 C2021 1.367 . S
C2021 C2020 1.367 . S
C2021 C2023 1.433 . S
C2022 C2018 1.350 . S
C2022 C2019 1.463 . S
C2022 N2026 1.427 . S
C2023 H2013 0.929 . S
C2023 C2021 1.433 . S
C2023 N2026 1.384 . S
C2024 H2015 0.929 . S
C2024 C2016 1.378 . S
C2024 C2019 1.350 . S
C2025 H2012 0.929 . S
C2025 C2017 1.433 . S
C2025 N2027 1.384 . S
N2026 C2022 1.427 . S
N2026 C2023 1.384 . S
N2027 C2019 1.427 . S
N2027 C2025 1.384 . S
H2028 C2034 0.930 . S
H2029 C2038 0.930 . S
H2030 C2043 0.929 . S
H2031 C2041 0.929 . S
H2032 C2036 0.929 . S
H2033 C2042 0.929 . S
C2034 H2028 0.930 . S
C2034 C2035 1.367 . S
C2034 C2042 1.378 . S
C2035 C2034 1.367 . S
C2035 C2043 1.433 . S
C2036 H2032 0.929 . S
C2036 C2038 1.378 . S
C2036 C2040 1.350 . S
C2037 C2040 1.463 . S
C2037 C2042 1.350 . S
C2037 N2045 1.427 . S
C2038 H2029 0.930 . S
C2038 C2036 1.378 . S
C2038 C2039 1.367 . S
C2039 C2038 1.367 . S
C2039 C2041 1.433 . S
C2040 C2036 1.350 . S
C2040 C2037 1.463 . S
C2040 N2044 1.427 . S
C2041 H2031 0.929 . S
C2041 C2039 1.433 . S
C2041 N2044 1.384 . S
C2042 H2033 0.929 . S
C2042 C2034 1.378 . S
C2042 C2037 1.350 . S
C2043 H2030 0.929 . S
C2043 C2035 1.433 . S
C2043 N2045 1.384 . S
N2044 C2040 1.427 . S
N2044 C2041 1.384 . S
N2045 C2037 1.427 . S
N2045 C2043 1.384 . S
H2046 C2052 0.930 1_554 S
H2047 C2056 0.930 . S
H2048 C2061 0.929 . S
H2049 C2059 0.929 . S
H2050 C2054 0.929 . S
H2051 C2060 0.929 . S
C2052 H2046 0.930 1_556 S
C2052 C2053 1.367 . S
C2052 C2060 1.378 . S
C2053 C2052 1.367 . S
C2053 C2061 1.433 . S
C2054 H2050 0.929 . S
C2054 C2056 1.378 . S
C2054 C2058 1.350 . S
C2055 C2058 1.463 . S
C2055 C2060 1.350 . S
C2055 N2063 1.427 . S
C2056 H2047 0.930 . S
C2056 C2054 1.378 . S
C2056 C2057 1.367 . S
C2057 C2056 1.367 . S
C2057 C2059 1.433 . S
C2058 C2054 1.350 . S
C2058 C2055 1.463 . S
C2058 N2062 1.427 . S
C2059 H2049 0.929 . S
C2059 C2057 1.433 . S
C2059 N2062 1.384 . S
C2060 H2051 0.929 . S
C2060 C2052 1.378 . S
C2060 C2055 1.350 . S
C2061 H2048 0.929 . S
C2061 C2053 1.433 . S
C2061 N2063 1.384 . S
N2062 C2058 1.427 . S
N2062 C2059 1.384 . S
N2063 C2055 1.427 . S
N2063 C2061 1.384 . S
H2064 C2070 0.930 . S
H2065 C2074 0.930 . S
H2066 C2079 0.929 . S
H2067 C2077 0.929 . S
H2068 C2072 0.929 . S
H2069 C2078 0.929 . S
C2070 H2064 0.930 . S
C2070 C2071 1.367 . S
C2070 C2078 1.378 . S
C2071 C2070 1.367 . S
C2071 C2079 1.433 . S
C2072 H2068 0.929 . S
C2072 C2074 1.378 . S
C2072 C2076 1.350 . S
C2073 C2076 1.463 . S
C2073 C2078 1.350 . S
C2073 N2081 1.427 . S
C2074 H2065 0.930 . S
C2074 C2072 1.378 . S
C2074 C2075 1.367 . S
C2075 C2074 1.367 . S
C2075 C2077 1.433 . S
C2076 C2072 1.350 . S
C2076 C2073 1.463 . S
C2076 N2080 1.427 . S
C2077 H2067 0.929 . S
C2077 C2075 1.433 . S
C2077 N2080 1.384 . S
C2078 H2069 0.929 . S
C2078 C2070 1.378 . S
C2078 C2073 1.350 . S
C2079 H2066 0.929 . S
C2079 C2071 1.433 . S
C2079 N2081 1.384 . S
N2080 C2076 1.427 . S
N2080 C2077 1.384 . S
N2081 C2073 1.427 . S
N2081 C2079 1.384 . S
H2082 C2088 0.930 . S
H2083 C2092 0.930 . S
H2084 C2097 0.929 . S
H2085 C2095 0.929 . S
H2086 C2090 0.929 . S
H2087 C2096 0.929 . S
C2088 H2082 0.930 . S
C2088 C2089 1.367 . S
C2088 C2096 1.378 . S
C2089 C2088 1.367 . S
C2089 C2097 1.433 . S
C2090 H2086 0.929 . S
C2090 C2092 1.378 . S
C2090 C2094 1.350 . S
C2091 C2094 1.463 . S
C2091 C2096 1.350 . S
C2091 N2099 1.427 . S
C2092 H2083 0.930 . S
C2092 C2090 1.378 . S
C2092 C2093 1.367 . S
C2093 C2092 1.367 . S
C2093 C2095 1.433 . S
C2094 C2090 1.350 . S
C2094 C2091 1.463 . S
C2094 N2098 1.427 . S
C2095 H2085 0.929 . S
C2095 C2093 1.433 . S
C2095 N2098 1.384 . S
C2096 H2087 0.929 . S
C2096 C2088 1.378 . S
C2096 C2091 1.350 . S
C2097 H2084 0.929 . S
C2097 C2089 1.433 . S
C2097 N2099 1.384 . S
N2098 C2094 1.427 . S
N2098 C2095 1.384 . S
N2099 C2091 1.427 . S
N2099 C2097 1.384 . S
H2100 C2106 0.930 . S
H2101 C2110 0.930 . S
H2102 C2115 0.929 . S
H2103 C2113 0.929 . S
H2104 C2108 0.929 . S
H2105 C2114 0.929 . S
C2106 H2100 0.930 . S
C2106 C2107 1.367 . S
C2106 C2114 1.378 . S
C2107 C2106 1.367 . S
C2107 C2115 1.433 . S
C2108 H2104 0.929 . S
C2108 C2110 1.378 . S
C2108 C2112 1.350 . S
C2109 C2112 1.463 . S
C2109 C2114 1.350 . S
C2109 N2117 1.427 . S
C2110 H2101 0.930 . S
C2110 C2108 1.378 . S
C2110 C2111 1.367 . S
C2111 C2110 1.367 . S
C2111 C2113 1.433 . S
C2112 C2108 1.350 . S
C2112 C2109 1.463 . S
C2112 N2116 1.427 . S
C2113 H2103 0.929 . S
C2113 C2111 1.433 . S
C2113 N2116 1.384 . S
C2114 H2105 0.929 . S
C2114 C2106 1.378 . S
C2114 C2109 1.350 . S
C2115 H2102 0.929 . S
C2115 C2107 1.433 . S
C2115 N2117 1.384 . S
N2116 C2112 1.427 . S
N2116 C2113 1.384 . S
N2117 C2109 1.427 . S
N2117 C2115 1.384 . S
H2118 C2124 0.930 . S
H2119 C2128 0.930 . S
H2120 C2133 0.929 . S
H2121 C2131 0.929 . S
H2122 C2126 0.929 1_554 S
H2123 C2132 0.929 1_556 S
C2124 H2118 0.930 . S
C2124 C2125 1.367 . S
C2124 C2132 1.378 . S
C2125 C2124 1.367 . S
C2125 C2133 1.433 . S
C2126 H2122 0.929 1_556 S
C2126 C2128 1.378 . S
C2126 C2130 1.350 . S
C2127 C2130 1.463 1_454 S
C2127 C2132 1.350 . S
C2127 N2135 1.427 . S
C2128 H2119 0.930 . S
C2128 C2126 1.378 . S
C2128 C2129 1.367 . S
C2129 C2128 1.367 . S
C2129 C2131 1.433 . S
C2130 C2126 1.350 . S
C2130 C2127 1.463 1_656 S
C2130 N2134 1.427 . S
C2131 H2121 0.929 . S
C2131 C2129 1.433 . S
C2131 N2134 1.384 . S
C2132 H2123 0.929 1_554 S
C2132 C2124 1.378 . S
C2132 C2127 1.350 . S
C2133 H2120 0.929 . S
C2133 C2125 1.433 . S
C2133 N2135 1.384 . S
N2134 C2130 1.427 . S
N2134 C2131 1.384 . S
N2135 C2127 1.427 . S
N2135 C2133 1.384 . S
H2136 C2142 0.930 . S
H2137 C2146 0.930 . S
H2138 C2151 0.929 . S
H2139 C2149 0.929 . S
H2140 C2144 0.929 . S
H2141 C2150 0.929 . S
C2142 H2136 0.930 . S
C2142 C2143 1.367 . S
C2142 C2150 1.378 . S
C2143 C2142 1.367 . S
C2143 C2151 1.433 . S
C2144 H2140 0.929 . S
C2144 C2146 1.378 . S
C2144 C2148 1.350 . S
C2145 C2148 1.463 . S
C2145 C2150 1.350 . S
C2145 N2153 1.427 . S
C2146 H2137 0.930 . S
C2146 C2144 1.378 . S
C2146 C2147 1.367 . S
C2147 C2146 1.367 . S
C2147 C2149 1.433 . S
C2148 C2144 1.350 . S
C2148 C2145 1.463 . S
C2148 N2152 1.427 . S
C2149 H2139 0.929 . S
C2149 C2147 1.433 . S
C2149 N2152 1.384 . S
C2150 H2141 0.929 . S
C2150 C2142 1.378 . S
C2150 C2145 1.350 . S
C2151 H2138 0.929 . S
C2151 C2143 1.433 . S
C2151 N2153 1.384 . S
N2152 C2148 1.427 . S
N2152 C2149 1.384 . S
N2153 C2145 1.427 . S
N2153 C2151 1.384 . S
H2154 C2160 0.930 . S
H2155 C2164 0.930 . S
H2156 C2169 0.929 . S
H2157 C2167 0.929 . S
H2158 C2162 0.929 . S
H2159 C2168 0.929 . S
C2160 H2154 0.930 . S
C2160 C2161 1.367 . S
C2160 C2168 1.378 . S
C2161 C2160 1.367 . S
C2161 C2169 1.433 . S
C2162 H2158 0.929 . S
C2162 C2164 1.378 . S
C2162 C2166 1.350 . S
C2163 C2166 1.463 . S
C2163 C2168 1.350 . S
C2163 N2171 1.427 . S
C2164 H2155 0.930 . S
C2164 C2162 1.378 . S
C2164 C2165 1.367 . S
C2165 C2164 1.367 . S
C2165 C2167 1.433 . S
C2166 C2162 1.350 . S
C2166 C2163 1.463 . S
C2166 N2170 1.427 . S
C2167 H2157 0.929 . S
C2167 C2165 1.433 . S
C2167 N2170 1.384 . S
C2168 H2159 0.929 . S
C2168 C2160 1.378 . S
C2168 C2163 1.350 . S
C2169 H2156 0.929 . S
C2169 C2161 1.433 . S
C2169 N2171 1.384 . S
N2170 C2166 1.427 . S
N2170 C2167 1.384 . S
N2171 C2163 1.427 . S
N2171 C2169 1.384 . S
H2172 C2178 0.930 . S
H2173 C2182 0.930 . S
H2174 C2187 0.934 . S
H2175 C2185 0.934 . S
H2176 C2180 0.893 1_556 S
H2177 C2186 0.893 1_554 S
C2178 H2172 0.930 . S
C2178 C2179 1.367 . S
C2178 C2186 1.402 . S
C2179 C2178 1.367 . S
C2179 C2187 1.426 1_545 S
C2180 H2176 0.893 1_554 S
C2180 C2182 1.402 . S
C2180 C2184 1.362 . S
C2181 C2184 1.463 1_446 S
C2181 C2186 1.362 . S
C2181 N2189 1.427 1_545 S
C2182 H2173 0.930 . S
C2182 C2180 1.402 . S
C2182 C2183 1.367 . S
C2183 C2182 1.367 . S
C2183 C2185 1.426 1_565 S
C2184 C2180 1.362 . S
C2184 C2181 1.463 1_664 S
C2184 N2188 1.427 1_565 S
C2185 H2175 0.934 . S
C2185 C2183 1.426 1_545 S
C2185 N2188 1.387 . S
C2186 H2177 0.893 1_556 S
C2186 C2178 1.402 . S
C2186 C2181 1.362 . S
C2187 H2174 0.934 . S
C2187 C2179 1.426 1_565 S
C2187 N2189 1.387 . S
N2188 C2184 1.427 1_545 S
N2188 C2185 1.387 . S
N2189 C2181 1.427 1_565 S
N2189 C2187 1.387 . S
H2190 C2196 0.930 . S
H2191 C2200 0.930 . S
H2192 C2205 0.929 . S
H2193 C2203 0.929 . S
H2194 C2198 0.929 . S
H2195 C2204 0.929 . S
C2196 H2190 0.930 . S
C2196 C2197 1.367 . S
C2196 C2204 1.378 . S
C2197 C2196 1.367 . S
C2197 C2205 1.433 1_545 S
C2198 H2194 0.929 . S
C2198 C2200 1.378 . S
C2198 C2202 1.350 . S
C2199 C2202 1.463 1_545 S
C2199 C2204 1.350 . S
C2199 N2207 1.427 1_545 S
C2200 H2191 0.930 . S
C2200 C2198 1.378 . S
C2200 C2201 1.367 . S
C2201 C2200 1.367 . S
C2201 C2203 1.433 1_565 S
C2202 C2198 1.350 . S
C2202 C2199 1.463 1_565 S
C2202 N2206 1.427 1_565 S
C2203 H2193 0.929 . S
C2203 C2201 1.433 1_545 S
C2203 N2206 1.384 . S
C2204 H2195 0.929 . S
C2204 C2196 1.378 . S
C2204 C2199 1.350 . S
C2205 H2192 0.929 . S
C2205 C2197 1.433 1_565 S
C2205 N2207 1.384 . S
N2206 C2202 1.427 1_545 S
N2206 C2203 1.384 . S
N2207 C2199 1.427 1_565 S
N2207 C2205 1.384 . S
C1351 C56 2.093 . S
C1355 C903 2.146 . S
C1369 C140 2.058 . S
C1373 C980 2.051 . S
C1387 C231 2.148 . S
C1391 C728 2.095 . S
C1405 C308 2.049 . S
C1409 C812 2.046 . S
C1423 C403 2.091 . S
C1427 C1250 2.144 . S
C1441 C487 2.060 . S
C1445 C1327 2.055 . S
C1459 C578 2.148 . S
C1463 C1075 2.095 . S
C1477 C655 2.046 . S
C1481 C1159 2.052 . S
C1495 C819 3.518 . S
C1499 C67 3.561 1_556 S
C1513 C896 3.587 . S
C1517 C151 3.584 . S
C1531 C987 3.493 . S
C1535 C242 3.406 . S
C1549 C735 3.516 . S
C1553 C319 3.554 . S
C1567 C392 3.561 1_554 S
C1571 C1166 3.517 . S
C1585 C1243 3.589 . S
C1589 C476 3.582 . S
C1603 C1334 3.489 . S
C1607 C567 3.407 . S
C1621 C1082 3.512 . S
C1625 C644 3.556 . S
C1639 C147 3.518 . S
C1643 C739 3.560 . S
C1657 C823 3.583 . S
C1661 C224 3.587 . S
C1675 C914 3.410 1_556 S
C1679 C315 3.488 . S
C1693 C991 3.557 . S
C1697 C63 3.513 . S
C1711 C1064 3.560 . S
C1715 C494 3.518 . S
C1729 C571 3.586 . S
C1733 C1148 3.584 . S
C1747 C662 3.493 . S
C1751 C1239 3.405 1_554 S
C1765 C1316 3.554 . S
C1769 C410 3.516 . S
C1783 C69 0.594 . S
C1787 C1323 0.563 . S
C1801 C153 0.634 . S
C1805 C399 0.560 . S
C1819 C1155 0.527 . S
C1823 C226 0.673 . S
C1837 C560 0.543 . S
C1841 C321 0.601 . S
C1855 C394 0.601 . S
C1859 C998 0.559 . S
C1873 C478 0.629 . S
C1877 C74 0.569 . S
C1891 C830 0.528 . S
C1895 C573 0.689 . S
C1909 C235 0.535 . S
C1913 C646 0.580 . S
C1927 C741 0.632 . S
C1931 C651 0.554 . S
C1945 C825 0.636 . S
C1949 C1071 0.560 . S
C1963 C483 0.546 . S
C1967 C898 0.687 . S
C1981 C1232 0.522 . S
C1985 C993 0.584 . S
C1999 C1066 0.632 . S
C2003 C326 0.549 . S
C2017 C1150 0.637 . S
C2021 C746 0.565 . S
C2035 C1245 0.666 . S
C2039 C158 0.544 . S
C2053 C907 0.535 . S
C2057 C1318 0.581 . S
C2071 C58 1.311 . S
C2075 C1077 1.311 . S
C2089 C142 1.257 . S
C2093 C489 1.257 . S
C2107 C237 1.191 . S
C2111 C1234 1.191 . S
C2125 C657 1.300 . S
C2129 C310 1.300 . S
C2143 C405 1.294 . S
C2147 C730 1.294 . S
C2161 C909 1.207 . S
C2165 C562 1.207 . S
C2179 C814 1.279 . S
C2183 C1161 1.279 . S
C2197 C1329 1.288 . S
C2201 C982 1.288 . S
