# Generated by pormake.
# Topology bcu-i, (5)-cn, num edge types: 1
# Building blocks:
#     Node 0, Type 0, BuildingBlock: BEQFEK_clean_sbu_0, # of connection points: 5
#     Node 1, Type 0, BuildingBlock: BEQFEK_clean_sbu_0, # of connection points: 5
#     Node 2, Type 0, BuildingBlock: BEQFEK_clean_sbu_0, # of connection points: 5
#     Node 3, Type 0, BuildingBlock: BEQFEK_clean_sbu_0, # of connection points: 5
#     Node 4, Type 0, BuildingBlock: BEQFEK_clean_sbu_0, # of connection points: 5
#     Node 5, Type 0, BuildingBlock: BEQFEK_clean_sbu_0, # of connection points: 5
#     Node 6, Type 0, BuildingBlock: BEQFEK_clean_sbu_0, # of connection points: 5
#     Node 7, Type 0, BuildingBlock: BEQFEK_clean_sbu_0, # of connection points: 5
#     Node 8, Type 0, BuildingBlock: BEQFEK_clean_sbu_0, # of connection points: 5
#     Node 9, Type 0, BuildingBlock: BEQFEK_clean_sbu_0, # of connection points: 5
#     Node 10, Type 0, BuildingBlock: BEQFEK_clean_sbu_0, # of connection points: 5
#     Node 11, Type 0, BuildingBlock: BEQFEK_clean_sbu_0, # of connection points: 5
#     Node 12, Type 0, BuildingBlock: BEQFEK_clean_sbu_0, # of connection points: 5
#     Node 13, Type 0, BuildingBlock: BEQFEK_clean_sbu_0, # of connection points: 5
#     Node 14, Type 0, BuildingBlock: BEQFEK_clean_sbu_0, # of connection points: 5
#     Node 15, Type 0, BuildingBlock: BEQFEK_clean_sbu_0, # of connection points: 5
#     Edge 16, Type (0, 0), BuildingBlock: UVAHIK_clean_linker_0, # of connection points: 2
#     Edge 17, Type (0, 0), BuildingBlock: UVAHIK_clean_linker_0, # of connection points: 2
#     Edge 18, Type (0, 0), BuildingBlock: UVAHIK_clean_linker_0, # of connection points: 2
#     Edge 19, Type (0, 0), BuildingBlock: UVAHIK_clean_linker_0, # of connection points: 2
#     Edge 20, Type (0, 0), BuildingBlock: UVAHIK_clean_linker_0, # of connection points: 2
#     Edge 21, Type (0, 0), BuildingBlock: UVAHIK_clean_linker_0, # of connection points: 2
#     Edge 22, Type (0, 0), BuildingBlock: UVAHIK_clean_linker_0, # of connection points: 2
#     Edge 23, Type (0, 0), BuildingBlock: UVAHIK_clean_linker_0, # of connection points: 2
#     Edge 24, Type (0, 0), BuildingBlock: UVAHIK_clean_linker_0, # of connection points: 2
#     Edge 25, Type (0, 0), BuildingBlock: UVAHIK_clean_linker_0, # of connection points: 2
#     Edge 26, Type (0, 0), BuildingBlock: UVAHIK_clean_linker_0, # of connection points: 2
#     Edge 27, Type (0, 0), BuildingBlock: UVAHIK_clean_linker_0, # of connection points: 2
#     Edge 28, Type (0, 0), BuildingBlock: UVAHIK_clean_linker_0, # of connection points: 2
#     Edge 29, Type (0, 0), BuildingBlock: UVAHIK_clean_linker_0, # of connection points: 2
#     Edge 30, Type (0, 0), BuildingBlock: UVAHIK_clean_linker_0, # of connection points: 2
#     Edge 31, Type (0, 0), BuildingBlock: UVAHIK_clean_linker_0, # of connection points: 2
#     Edge 32, Type (0, 0), BuildingBlock: UVAHIK_clean_linker_0, # of connection points: 2
#     Edge 33, Type (0, 0), BuildingBlock: UVAHIK_clean_linker_0, # of connection points: 2
#     Edge 34, Type (0, 0), BuildingBlock: UVAHIK_clean_linker_0, # of connection points: 2
#     Edge 35, Type (0, 0), BuildingBlock: UVAHIK_clean_linker_0, # of connection points: 2
#     Edge 36, Type (0, 0), BuildingBlock: UVAHIK_clean_linker_0, # of connection points: 2
#     Edge 37, Type (0, 0), BuildingBlock: UVAHIK_clean_linker_0, # of connection points: 2
#     Edge 38, Type (0, 0), BuildingBlock: UVAHIK_clean_linker_0, # of connection points: 2
#     Edge 39, Type (0, 0), BuildingBlock: UVAHIK_clean_linker_0, # of connection points: 2
#     Edge 40, Type (0, 0), BuildingBlock: UVAHIK_clean_linker_0, # of connection points: 2
#     Edge 41, Type (0, 0), BuildingBlock: UVAHIK_clean_linker_0, # of connection points: 2
#     Edge 42, Type (0, 0), BuildingBlock: UVAHIK_clean_linker_0, # of connection points: 2
#     Edge 43, Type (0, 0), BuildingBlock: UVAHIK_clean_linker_0, # of connection points: 2
#     Edge 44, Type (0, 0), BuildingBlock: UVAHIK_clean_linker_0, # of connection points: 2
#     Edge 45, Type (0, 0), BuildingBlock: UVAHIK_clean_linker_0, # of connection points: 2
#     Edge 46, Type (0, 0), BuildingBlock: UVAHIK_clean_linker_0, # of connection points: 2
#     Edge 47, Type (0, 0), BuildingBlock: UVAHIK_clean_linker_0, # of connection points: 2
#     Edge 48, Type (0, 0), BuildingBlock: UVAHIK_clean_linker_0, # of connection points: 2
#     Edge 49, Type (0, 0), BuildingBlock: UVAHIK_clean_linker_0, # of connection points: 2
#     Edge 50, Type (0, 0), BuildingBlock: UVAHIK_clean_linker_0, # of connection points: 2
#     Edge 51, Type (0, 0), BuildingBlock: UVAHIK_clean_linker_0, # of connection points: 2
#     Edge 52, Type (0, 0), BuildingBlock: UVAHIK_clean_linker_0, # of connection points: 2
#     Edge 53, Type (0, 0), BuildingBlock: UVAHIK_clean_linker_0, # of connection points: 2
#     Edge 54, Type (0, 0), BuildingBlock: UVAHIK_clean_linker_0, # of connection points: 2
#     Edge 55, Type (0, 0), BuildingBlock: UVAHIK_clean_linker_0, # of connection points: 2
# Relax obj value: 0.883
# Max RMSD: 0.189
# Mean RMSD: 0.189
data_MOF--net-bcu-i--node1-BEQFEK_clean_sbu_0--edge1-UVAHIK_clean_linker_0
_symmetry_space_group_name_H-M    P1
_symmetry_Int_Tables_number       1
_symmetry_cell_setting            triclinic
loop_
_symmetry_equiv_pos_as_xyz
'x, y, z'
_cell_length_a     60.711779
_cell_length_b     60.711518
_cell_length_c     44.387032
_cell_angle_alpha  90.046304
_cell_angle_beta   89.979871
_cell_angle_gamma 89.935812
loop_
_atom_site_label
_atom_site_type_symbol
_atom_site_fract_x
_atom_site_fract_y
_atom_site_fract_z
_atom_type_partial_charge
Co0 Co 0.2167 0.10338 0.31391 0.0
Co1 Co 0.21986 0.0601 0.27528 0.0
C2 C 0.19128 0.09833 0.25686 0.0
O3 O 0.19716 0.10965 0.27958 0.0
O4 O 0.1987 0.07896 0.25251 0.0
C5 C 0.1945 0.13538 0.34994 0.0
O6 O 0.17717 0.12804 0.33534 0.0
C7 C 0.2035 0.01886 0.24834 0.0
C8 C 0.23456 0.00119 0.23874 0.0
C9 C 0.21187 -0.00079 0.23698 0.0
N10 N 0.22048 0.03164 0.25685 0.0
N11 N 0.23899 0.02104 0.25082 0.0
C12 C 0.17982 0.02574 0.2501 0.0
H13 H 0.1704 0.01893 0.2308 0.0
H14 H 0.17832 0.04386 0.25038 0.0
H15 H 0.17239 0.01949 0.27123 0.0
C16 C 0.2054 0.07114 0.36122 0.0
N17 N 0.20957 0.07615 0.33224 0.0
N18 N 0.21135 0.05782 0.31652 0.0
C19 C 0.20854 0.04051 0.33522 0.0
C20 C 0.20439 0.04845 0.36402 0.0
C21 C 0.2055 0.08758 0.38643 0.0
H22 H 0.2196 0.09898 0.38374 0.0
H23 H 0.19001 0.09725 0.38575 0.0
H24 H 0.20684 0.07956 0.40879 0.0
O25 O 0.24763 0.10245 0.30124 0.0
O26 O 0.25027 0.07219 0.27328 0.0
H27 H 0.22695 0.01463 0.31411 0.0
H28 H 0.21024 0.00558 0.34556 0.0
C29 C 0.21105 0.01691 0.32603 0.0
H30 H 0.19762 0.01247 0.31037 0.0
H31 H 0.25467 0.02726 0.25525 0.0
O32 O 0.21334 0.12751 0.34362 0.0
C33 C 0.25896 0.08912 0.28539 0.0
Co34 Co 0.89102 0.21412 0.31075 0.0
Co35 Co 0.9323 0.21217 0.26781 0.0
C36 C 0.89184 0.18659 0.25431 0.0
O37 O 0.88203 0.19483 0.27704 0.0
O38 O 0.91182 0.19113 0.24829 0.0
C39 C 0.85986 0.1932 0.34884 0.0
O40 O 0.86431 0.17636 0.33125 0.0
C41 C 0.97001 0.19602 0.23152 0.0
C42 C 0.99446 0.22208 0.24069 0.0
C43 C 0.99198 0.20177 0.22679 0.0
N44 N 0.96042 0.21184 0.24831 0.0
N45 N 0.975 0.22759 0.25304 0.0
C46 C 0.9579 0.17648 0.21936 0.0
H47 H 0.94121 0.18148 0.21201 0.0
H48 H 0.95616 0.16392 0.23735 0.0
H49 H 0.9665 0.16926 0.19964 0.0
C50 C 0.92442 0.20079 0.35526 0.0
N51 N 0.91846 0.2054 0.32674 0.0
N52 N 0.93588 0.20427 0.30914 0.0
C53 C 0.95346 0.19841 0.32602 0.0
C54 C 0.94669 0.19594 0.35569 0.0
C55 C 0.90972 0.20369 0.3821 0.0
H56 H 0.8993 0.21853 0.37922 0.0
H57 H 0.89895 0.18904 0.38427 0.0
H58 H 0.91928 0.20553 0.40323 0.0
O59 O 0.89293 0.24459 0.29697 0.0
O60 O 0.92059 0.24287 0.26415 0.0
H61 H 0.9836 0.21167 0.30924 0.0
H62 H 0.98693 0.18678 0.3309 0.0
C63 C 0.97633 0.19533 0.31423 0.0
H64 H 0.97588 0.18555 0.29316 0.0
H65 H 0.97192 0.24167 0.26588 0.0
O66 O 0.86859 0.21174 0.34305 0.0
C67 C 0.90546 0.25363 0.27762 0.0
Co68 Co 0.77437 0.88564 0.30573 0.0
Co69 Co 0.77271 0.93007 0.26955 0.0
C70 C 0.80303 0.89344 0.25176 0.0
O71 O 0.79582 0.88117 0.27279 0.0
O72 O 0.79572 0.9129 0.24796 0.0
C73 C 0.79641 0.85444 0.34261 0.0
O74 O 0.81387 0.86337 0.3301 0.0
C75 C 0.78598 0.97075 0.2378 0.0
C76 C 0.75747 0.99232 0.24726 0.0
C77 C 0.77803 0.99203 0.23372 0.0
N78 N 0.77101 0.95926 0.25368 0.0
N79 N 0.75386 0.97216 0.25878 0.0
C80 C 0.80671 0.96092 0.22538 0.0
H81 H 0.80284 0.94503 0.2143 0.0
H82 H 0.81837 0.95765 0.2441 0.0
H83 H 0.81453 0.97173 0.20836 0.0
C84 C 0.78213 0.91657 0.35598 0.0
N85 N 0.77969 0.91237 0.32638 0.0
N86 N 0.77965 0.93109 0.3114 0.0
C87 C 0.78272 0.94778 0.33106 0.0
C88 C 0.78438 0.9391 0.35991 0.0
C89 C 0.77917 0.89973 0.38031 0.0
H90 H 0.76618 0.88783 0.37385 0.0
H91 H 0.79489 0.89073 0.38361 0.0
H92 H 0.77439 0.90742 0.40202 0.0
O93 O 0.74417 0.8861 0.29066 0.0
O94 O 0.74276 0.91716 0.26433 0.0
H95 H 0.76693 0.97771 0.31798 0.0
H96 H 0.79116 0.98162 0.34086 0.0
C97 C 0.78381 0.97159 0.32253 0.0
H98 H 0.79383 0.97356 0.30184 0.0
H99 H 0.73993 0.96734 0.27084 0.0
O100 O 0.77742 0.86087 0.3344 0.0
C101 C 0.73359 0.89985 0.27458 0.0
Co102 Co 0.10137 0.7745 0.31517 0.0
Co103 Co 0.06214 0.77738 0.26898 0.0
C104 C 0.1044 0.80067 0.25746 0.0
O105 O 0.11249 0.79286 0.28168 0.0
O106 O 0.08471 0.79631 0.24949 0.0
C107 C 0.13228 0.79412 0.35501 0.0
O108 O 0.12868 0.81134 0.3378 0.0
C109 C 0.02573 0.79503 0.23154 0.0
C110 C 0.00071 0.76912 0.23818 0.0
C111 C 0.00382 0.78977 0.22555 0.0
N112 N 0.03469 0.77862 0.24784 0.0
N113 N 0.01978 0.76297 0.25106 0.0
C114 C 0.0383 0.81489 0.22149 0.0
H115 H 0.05515 0.80995 0.21482 0.0
H116 H 0.03958 0.82676 0.24043 0.0
H117 H 0.03033 0.8229 0.20186 0.0
C118 C 0.06738 0.7916 0.35628 0.0
N119 N 0.07407 0.78529 0.32869 0.0
N120 N 0.05757 0.78706 0.3096 0.0
C121 C 0.0399 0.79509 0.32454 0.0
C122 C 0.04563 0.79831 0.35451 0.0
C123 C 0.08078 0.78893 0.38439 0.0
H124 H 0.09054 0.77352 0.38324 0.0
H125 H 0.09218 0.8031 0.38658 0.0
H126 H 0.07023 0.78828 0.40477 0.0
O127 O 0.09793 0.74379 0.30295 0.0
O128 O 0.07175 0.74588 0.26798 0.0
H129 H 0.00995 0.78429 0.30413 0.0
H130 H 0.00714 0.80919 0.32606 0.0
C131 C 0.01806 0.79997 0.31046 0.0
H132 H 0.02052 0.80992 0.28984 0.0
H133 H 0.02232 0.74854 0.26333 0.0
O134 O 0.12289 0.77602 0.34861 0.0
C135 C 0.08554 0.7348 0.28343 0.0
Co136 Co 0.2048 0.88665 0.69539 0.0
Co137 Co 0.21096 0.92545 0.74117 0.0
C138 C 0.17745 0.88979 0.75098 0.0
O139 O 0.18346 0.87984 0.72712 0.0
O140 O 0.18637 0.90785 0.75909 0.0
C141 C 0.18266 0.85687 0.65471 0.0
O142 O 0.16528 0.86077 0.67154 0.0
C143 C 0.19935 0.96722 0.77021 0.0
C144 C 0.23153 0.97793 0.78822 0.0
C145 C 0.20975 0.98449 0.78514 0.0
N146 N 0.21437 0.95149 0.76455 0.0
N147 N 0.23347 0.95779 0.77588 0.0
C148 C 0.17615 0.96627 0.75888 0.0
H149 H 0.17432 0.95306 0.74176 0.0
H150 H 0.17121 0.98234 0.74907 0.0
H151 H 0.16496 0.96256 0.77797 0.0
C152 C 0.1989 0.92348 0.6534 0.0
N153 N 0.2013 0.91583 0.68161 0.0
N154 N 0.20493 0.93245 0.70004 0.0
C155 C 0.20545 0.95126 0.68376 0.0
C156 C 0.20143 0.94609 0.65382 0.0
C157 C 0.19568 0.90921 0.62623 0.0
H158 H 0.18089 0.89881 0.62955 0.0
H159 H 0.19339 0.91908 0.60544 0.0
H160 H 0.21016 0.89824 0.62342 0.0
O161 O 0.23505 0.88282 0.70973 0.0
O162 O 0.23961 0.90973 0.74297 0.0
H163 H 0.21913 0.98375 0.67722 0.0
H164 H 0.1983 0.98172 0.70576 0.0
C165 C 0.21263 0.97319 0.69559 0.0
H166 H 0.2255 0.97106 0.71304 0.0
H167 H 0.24803 0.94873 0.77412 0.0
O168 O 0.20089 0.8659 0.66139 0.0
C169 C 0.247 0.89321 0.72847 0.0
Co170 Co 0.10947 0.22055 0.6845 0.0
Co171 Co 0.07007 0.21704 0.72996 0.0
C172 C 0.11204 0.19167 0.73863 0.0
O173 O 0.12082 0.20027 0.71545 0.0
O174 O 0.09247 0.19647 0.74652 0.0
C175 C 0.14359 0.20538 0.6448 0.0
O176 O 0.14443 0.18876 0.6637 0.0
C177 C 0.03488 0.19347 0.76011 0.0
C178 C 0.01524 0.22015 0.78078 0.0
C179 C 0.01634 0.19742 0.7777 0.0
N180 N 0.04424 0.21287 0.7534 0.0
N181 N 0.03258 0.22877 0.76601 0.0
C182 C 0.04286 0.17195 0.74771 0.0
H183 H 0.05395 0.17468 0.7282 0.0
H184 H 0.02875 0.16153 0.7407 0.0
H185 H 0.05226 0.1631 0.76537 0.0
C186 C 0.0748 0.20731 0.64198 0.0
N187 N 0.0817 0.21111 0.67027 0.0
N188 N 0.06468 0.21068 0.68864 0.0
C189 C 0.04625 0.20698 0.67235 0.0
C190 C 0.05214 0.20475 0.64226 0.0
C191 C 0.08965 0.20663 0.61504 0.0
H192 H 0.09684 0.2232 0.61128 0.0
H193 H 0.10326 0.19487 0.61932 0.0
H194 H 0.08084 0.20127 0.59443 0.0
O195 O 0.10648 0.25066 0.70052 0.0
O196 O 0.0794 0.24819 0.7341 0.0
H197 H 0.02217 0.22135 0.70183 0.0
H198 H 0.01108 0.21098 0.6667 0.0
C199 C 0.02336 0.20804 0.68478 0.0
H200 H 0.01944 0.19218 0.6959 0.0
H201 H 0.03629 0.24551 0.76421 0.0
O202 O 0.13041 0.2212 0.65011 0.0
C203 C 0.09388 0.25941 0.72013 0.0
Co204 Co 0.79665 0.09463 0.69239 0.0
Co205 Co 0.78478 0.05791 0.73944 0.0
C206 C 0.82861 0.08137 0.73931 0.0
O207 O 0.82377 0.09237 0.71586 0.0
O208 O 0.81494 0.06814 0.75139 0.0
C209 C 0.81969 0.12059 0.64761 0.0
O210 O 0.83763 0.11405 0.66153 0.0
C211 C 0.79163 0.01536 0.76777 0.0
C212 C 0.75954 0.00864 0.78936 0.0
C213 C 0.7803 -0.00027 0.78455 0.0
N214 N 0.77824 0.03261 0.76305 0.0
N215 N 0.75916 0.02866 0.7763 0.0
C216 C 0.81395 0.01326 0.75371 0.0
H217 H 0.81562 0.02477 0.73443 0.0
H218 H 0.81687 0.99613 0.74589 0.0
H219 H 0.82668 0.01749 0.77069 0.0
C220 C 0.78616 0.05908 0.65007 0.0
N221 N 0.78843 0.06661 0.67835 0.0
N222 N 0.78344 0.05085 0.69755 0.0
C223 C 0.77762 0.03271 0.68179 0.0
C224 C 0.77913 0.03745 0.65129 0.0
C225 C 0.79166 0.07215 0.62247 0.0
H226 H 0.80873 0.07846 0.62439 0.0
H227 H 0.79041 0.0622 0.6016 0.0
H228 H 0.78036 0.08648 0.62085 0.0
O229 O 0.77292 0.10737 0.71701 0.0
O230 O 0.76249 0.08086 0.74851 0.0
H231 H 0.76129 0.00119 0.67844 0.0
H232 H 0.78399 0.00238 0.70448 0.0
C233 C 0.76971 0.01164 0.69543 0.0
H234 H 0.75822 0.01519 0.71424 0.0
H235 H 0.74569 0.03935 0.7757 0.0
O236 O 0.80101 0.11456 0.65752 0.0
C237 C 0.7604 0.1002 0.73779 0.0
Co238 Co 0.87899 0.77208 0.67734 0.0
Co239 Co 0.91967 0.77352 0.7208 0.0
C240 C 0.87651 0.79619 0.7352 0.0
O241 O 0.86743 0.78933 0.71117 0.0
O242 O 0.89647 0.79151 0.74144 0.0
C243 C 0.84314 0.78696 0.63962 0.0
O244 O 0.8414 0.80302 0.65933 0.0
C245 C 0.95676 0.79568 0.75023 0.0
C246 C 0.97544 0.76759 0.76895 0.0
C247 C 0.97556 0.79034 0.76652 0.0
N248 N 0.94622 0.77692 0.74315 0.0
N249 N 0.95739 0.7602 0.75455 0.0
C250 C 0.94818 0.81818 0.74289 0.0
H251 H 0.93013 0.81772 0.73926 0.0
H252 H 0.95591 0.82415 0.72181 0.0
H253 H 0.95221 0.82994 0.76122 0.0
C254 C 0.91156 0.79053 0.63544 0.0
N255 N 0.90583 0.78407 0.66331 0.0
N256 N 0.92354 0.7832 0.68038 0.0
C257 C 0.9413 0.78829 0.6634 0.0
C258 C 0.9342 0.79315 0.6344 0.0
C259 C 0.89562 0.79371 0.61008 0.0
H260 H 0.8891 0.77748 0.60285 0.0
H261 H 0.8817 0.80403 0.61793 0.0
H262 H 0.90337 0.80202 0.59052 0.0
O263 O 0.88372 0.7412 0.68906 0.0
O264 O 0.91218 0.74169 0.72044 0.0
H265 H 0.96593 0.77212 0.69032 0.0
H266 H 0.9755 0.7814 0.65389 0.0
C267 C 0.96469 0.78541 0.67331 0.0
H268 H 0.97065 0.80099 0.68345 0.0
H269 H 0.95276 0.74373 0.75236 0.0
O270 O 0.85744 0.77197 0.64383 0.0
C271 C 0.8974 0.73122 0.70597 0.0
Co272 Co 0.72992 0.60721 0.81762 0.0
Co273 Co 0.72437 0.56575 0.7761 0.0
C274 C 0.70301 0.60979 0.76237 0.0
O275 O 0.71124 0.61906 0.78544 0.0
O276 O 0.70684 0.58962 0.75644 0.0
C277 C 0.72282 0.64755 0.85171 0.0
O278 O 0.71101 0.65402 0.82856 0.0
C279 C 0.69658 0.5311 0.75171 0.0
C280 C 0.72032 0.50935 0.72844 0.0
C281 C 0.69809 0.51196 0.73469 0.0
N282 N 0.71695 0.53925 0.75554 0.0
N283 N 0.7311 0.52621 0.74155 0.0
C284 C 0.6761 0.54236 0.76265 0.0
H285 H 0.66271 0.54078 0.74577 0.0
H286 H 0.67925 0.55995 0.76748 0.0
H287 H 0.67053 0.53461 0.78392 0.0
C288 C 0.71179 0.57668 0.86237 0.0
N289 N 0.71729 0.58146 0.83379 0.0
N290 N 0.71676 0.56335 0.81751 0.0
C291 C 0.71186 0.54623 0.83572 0.0
C292 C 0.70815 0.55427 0.86457 0.0
C293 C 0.71284 0.59279 0.88789 0.0
H294 H 0.73026 0.59749 0.89178 0.0
H295 H 0.7034 0.60781 0.88193 0.0
H296 H 0.70607 0.58581 0.90904 0.0
O297 O 0.75968 0.60036 0.80257 0.0
O298 O 0.75648 0.57132 0.77234 0.0
H299 H 0.72599 0.52017 0.8092 0.0
H300 H 0.71652 0.51179 0.84621 0.0
C301 C 0.71305 0.52253 0.82655 0.0
H302 H 0.69701 0.51748 0.81688 0.0
H303 H 0.74805 0.52891 0.74078 0.0
O304 O 0.7327 0.6291 0.85057 0.0
C305 C 0.76822 0.58595 0.78522 0.0
Co306 Co 0.40163 0.70732 0.80793 0.0
Co307 Co 0.44044 0.71361 0.76215 0.0
C308 C 0.40414 0.68074 0.75168 0.0
O309 O 0.39431 0.68646 0.77577 0.0
O310 O 0.4223 0.68957 0.74378 0.0
C311 C 0.37104 0.68606 0.84871 0.0
O312 O 0.37408 0.6685 0.83188 0.0
C313 C 0.48184 0.70139 0.73251 0.0
C314 C 0.49308 0.73349 0.71486 0.0
C315 C 0.49919 0.71154 0.71741 0.0
N316 N 0.46651 0.71671 0.73872 0.0
N317 N 0.47313 0.73577 0.72765 0.0
C318 C 0.48038 0.67809 0.7433 0.0
H319 H 0.46729 0.6764 0.7606 0.0
H320 H 0.4964 0.67261 0.75274 0.0
H321 H 0.47619 0.66724 0.72402 0.0
C322 C 0.43837 0.69938 0.84936 0.0
N323 N 0.43073 0.70303 0.82142 0.0
N324 N 0.44739 0.70683 0.80313 0.0
C325 C 0.46625 0.70622 0.81933 0.0
C326 C 0.46103 0.7012 0.84895 0.0
C327 C 0.42411 0.69557 0.87639 0.0
H328 H 0.41349 0.7102 0.88018 0.0
H329 H 0.41336 0.68115 0.8722 0.0
H330 H 0.43398 0.69241 0.89697 0.0
O331 O 0.39841 0.73773 0.79418 0.0
O332 O 0.42508 0.74252 0.76067 0.0
H333 H 0.48681 0.72586 0.79052 0.0
H334 H 0.49907 0.7188 0.82641 0.0
C335 C 0.48844 0.7128 0.8078 0.0
H336 H 0.49658 0.69827 0.79754 0.0
H337 H 0.4644 0.7505 0.72977 0.0
O338 O 0.38087 0.70384 0.84199 0.0
C339 C 0.40872 0.74984 0.77558 0.0
Co340 Co 0.2744 0.39089 0.81436 0.0
Co341 Co 0.27847 0.42837 0.76603 0.0
C342 C 0.29932 0.38372 0.75749 0.0
O343 O 0.29149 0.37655 0.78219 0.0
O344 O 0.29591 0.40345 0.74887 0.0
C345 C 0.28471 0.35435 0.85427 0.0
O346 O 0.29827 0.34789 0.83294 0.0
C347 C 0.30289 0.4633 0.73543 0.0
C348 C 0.27622 0.48286 0.71465 0.0
C349 C 0.29886 0.48219 0.71861 0.0
N350 N 0.28351 0.45359 0.7415 0.0
N351 N 0.26765 0.4652 0.72873 0.0
C352 C 0.32471 0.45404 0.74479 0.0
H353 H 0.33776 0.4587 0.72848 0.0
H354 H 0.3238 0.43586 0.74657 0.0
H355 H 0.32922 0.46053 0.7673 0.0
C356 C 0.29236 0.42532 0.8532 0.0
N357 N 0.28723 0.41788 0.82559 0.0
N358 N 0.2872 0.43444 0.80647 0.0
C359 C 0.29155 0.4532 0.82178 0.0
C360 C 0.29514 0.4479 0.85181 0.0
C361 C 0.2923 0.41143 0.88105 0.0
H362 H 0.27511 0.40671 0.88657 0.0
H363 H 0.30196 0.3962 0.87699 0.0
H364 H 0.29952 0.42033 0.90053 0.0
O365 O 0.24391 0.39656 0.80154 0.0
O366 O 0.24648 0.42157 0.76505 0.0
H367 H 0.27519 0.4761 0.79242 0.0
H368 H 0.28506 0.48799 0.82732 0.0
C369 C 0.2887 0.4759 0.80921 0.0
H370 H 0.30414 0.48104 0.79793 0.0
H371 H 0.25095 0.46135 0.73017 0.0
O372 O 0.273 0.37145 0.85019 0.0
C373 C 0.23508 0.40891 0.78177 0.0
Co374 Co 0.58286 0.30172 0.80367 0.0
Co375 Co 0.55114 0.28522 0.75251 0.0
C376 C 0.57263 0.3301 0.75155 0.0
O377 O 0.58151 0.32715 0.77713 0.0
O378 O 0.56129 0.31512 0.73876 0.0
C379 C 0.60618 0.32846 0.84737 0.0
O380 O 0.60282 0.34469 0.82836 0.0
C381 C 0.51046 0.28954 0.71938 0.0
C382 C 0.5051 0.2564 0.7002 0.0
C383 C 0.49568 0.27716 0.70261 0.0
N384 N 0.52776 0.27678 0.7264 0.0
N385 N 0.52468 0.25706 0.71451 0.0
C386 C 0.50713 0.31222 0.7319 0.0
H387 H 0.51793 0.31497 0.7517 0.0
H388 H 0.48969 0.31476 0.73856 0.0
H389 H 0.51139 0.32452 0.71437 0.0
C390 C 0.54451 0.29205 0.84108 0.0
N391 N 0.55425 0.29317 0.81399 0.0
N392 N 0.54067 0.28581 0.79317 0.0
C393 C 0.52182 0.27932 0.80677 0.0
C394 C 0.52373 0.28327 0.83741 0.0
C395 C 0.55522 0.29869 0.87008 0.0
H396 H 0.5699 0.28818 0.87401 0.0
H397 H 0.56081 0.31604 0.86841 0.0
H398 H 0.54385 0.29707 0.88952 0.0
O399 O 0.5983 0.2771 0.78409 0.0
O400 O 0.57548 0.26345 0.74957 0.0
H401 H 0.50889 0.25641 0.77455 0.0
H402 H 0.49179 0.26028 0.8076 0.0
C403 C 0.5028 0.26859 0.79121 0.0
H404 H 0.49313 0.28131 0.77912 0.0
H405 H 0.53549 0.24383 0.7172 0.0
O406 O 0.59942 0.30925 0.84079 0.0
C407 C 0.5937 0.263 0.76382 0.0
Co408 Co 0.7075 0.40685 0.18769 0.0
Co409 Co 0.71675 0.43906 0.24141 0.0
C410 C 0.68284 0.4036 0.24587 0.0
O411 O 0.68799 0.39647 0.21988 0.0
O412 O 0.69205 0.42058 0.25704 0.0
C413 C 0.67979 0.38576 0.14469 0.0
O414 O 0.66446 0.39102 0.16432 0.0
C415 C 0.70718 0.47727 0.27901 0.0
C416 C 0.7399 0.48549 0.29758 0.0
C417 C 0.71822 0.49273 0.29658 0.0
N418 N 0.72172 0.46196 0.26993 0.0
N419 N 0.74115 0.46667 0.28162 0.0
C420 C 0.68381 0.47797 0.26824 0.0
H421 H 0.68133 0.46636 0.24923 0.0
H422 H 0.67926 0.49489 0.26112 0.0
H423 H 0.67274 0.47302 0.28693 0.0
C424 C 0.70062 0.44856 0.15571 0.0
N425 N 0.70417 0.43738 0.18138 0.0
N426 N 0.70974 0.45126 0.20288 0.0
C427 C 0.71068 0.47176 0.19103 0.0
C428 C 0.70439 0.47066 0.16103 0.0
C429 C 0.69665 0.43797 0.12569 0.0
H430 H 0.70971 0.42563 0.12116 0.0
H431 H 0.68053 0.42943 0.12613 0.0
H432 H 0.69648 0.45015 0.10708 0.0
O433 O 0.7385 0.40068 0.19754 0.0
O434 O 0.7444 0.42167 0.23787 0.0
H435 H 0.73312 0.48656 0.22253 0.0
H436 H 0.72649 0.50361 0.19036 0.0
C437 C 0.71987 0.49152 0.20677 0.0
H438 H 0.70657 0.49974 0.21968 0.0
H439 H 0.75548 0.45762 0.27755 0.0
O440 O 0.69973 0.39061 0.15039 0.0
C441 C 0.751 0.4076 0.21853 0.0
Co442 Co 0.61292 0.7136 0.18211 0.0
Co443 Co 0.57271 0.71322 0.22646 0.0
C444 C 0.61584 0.69094 0.24121 0.0
O445 O 0.62467 0.69716 0.21666 0.0
O446 O 0.59594 0.69574 0.24765 0.0
C447 C 0.65036 0.70013 0.14501 0.0
O448 O 0.65444 0.68531 0.16583 0.0
C449 C 0.53539 0.6929 0.25833 0.0
C450 C 0.51599 0.72222 0.27134 0.0
C451 C 0.51601 0.69941 0.27246 0.0
N452 N 0.54607 0.71104 0.24894 0.0
N453 N 0.53449 0.7285 0.25709 0.0
C454 C 0.54416 0.66997 0.25482 0.0
H455 H 0.53859 0.65938 0.27372 0.0
H456 H 0.56239 0.67013 0.25386 0.0
H457 H 0.5381 0.66275 0.23344 0.0
C458 C 0.57983 0.69499 0.14124 0.0
N459 N 0.58599 0.70142 0.16896 0.0
N460 N 0.56856 0.70253 0.18653 0.0
C461 C 0.55054 0.6975 0.17011 0.0
C462 C 0.55717 0.69223 0.141 0.0
C463 C 0.59492 0.69495 0.11451 0.0
H464 H 0.60125 0.71186 0.1108 0.0
H465 H 0.60915 0.68399 0.11911 0.0
H466 H 0.5866 0.68934 0.09367 0.0
O467 O 0.60831 0.74469 0.19241 0.0
O468 O 0.58037 0.74497 0.22463 0.0
H469 H 0.52563 0.71556 0.19394 0.0
H470 H 0.51531 0.6997 0.16235 0.0
C471 C 0.52735 0.69996 0.18113 0.0
H472 H 0.52337 0.68614 0.19642 0.0
H473 H 0.53903 0.74471 0.25245 0.0
O474 O 0.63427 0.71329 0.1484 0.0
C475 C 0.59487 0.75508 0.20923 0.0
Co476 Co 0.28429 0.60812 0.18612 0.0
Co477 Co 0.28327 0.56674 0.22854 0.0
C478 C 0.31177 0.60593 0.24187 0.0
O479 O 0.30482 0.61611 0.21871 0.0
O480 O 0.30483 0.58672 0.24832 0.0
C481 C 0.30498 0.63975 0.14796 0.0
O482 O 0.32206 0.63557 0.16521 0.0
C483 C 0.30106 0.52688 0.25749 0.0
C484 C 0.27056 0.50921 0.26982 0.0
C485 C 0.29331 0.50752 0.27034 0.0
N486 N 0.28365 0.53922 0.24927 0.0
N487 N 0.26549 0.52866 0.25703 0.0
C488 C 0.32458 0.53393 0.25406 0.0
H489 H 0.33506 0.52624 0.27164 0.0
H490 H 0.32599 0.55205 0.25557 0.0
H491 H 0.33083 0.52887 0.23164 0.0
C492 C 0.29592 0.57412 0.14137 0.0
N493 N 0.29161 0.58025 0.16991 0.0
N494 N 0.29045 0.56261 0.18708 0.0
C495 C 0.29358 0.54459 0.16971 0.0
C496 C 0.29754 0.5514 0.14035 0.0
C497 C 0.29588 0.58948 0.11496 0.0
H498 H 0.28106 0.60014 0.11586 0.0
H499 H 0.31073 0.60006 0.11599 0.0
H500 H 0.29587 0.58053 0.09318 0.0
O501 O 0.2536 0.60746 0.20054 0.0
O502 O 0.25299 0.57882 0.23173 0.0
H503 H 0.27655 0.51964 0.19465 0.0
H504 H 0.29084 0.50946 0.16163 0.0
C505 C 0.29154 0.52135 0.18057 0.0
H506 H 0.30602 0.51719 0.19459 0.0
H507 H 0.2496 0.53456 0.25308 0.0
O508 O 0.2867 0.63051 0.15381 0.0
C509 C 0.24337 0.59485 0.21869 0.0
Co510 Co 0.38525 0.27596 0.18164 0.0
Co511 Co 0.42745 0.27588 0.22259 0.0
C512 C 0.3869 0.30281 0.23739 0.0
O513 O 0.37664 0.29607 0.2142 0.0
O514 O 0.40637 0.29621 0.24319 0.0
C515 C 0.34605 0.28927 0.14848 0.0
O516 O 0.34213 0.30247 0.17133 0.0
C517 C 0.46637 0.29724 0.24826 0.0
C518 C 0.48511 0.269 0.26639 0.0
C519 C 0.48571 0.2917 0.2632 0.0
N520 N 0.45508 0.27865 0.24261 0.0
N521 N 0.46632 0.26183 0.25363 0.0
C522 C 0.45813 0.31984 0.24064 0.0
H523 H 0.4632 0.33187 0.25815 0.0
H524 H 0.43999 0.31993 0.23835 0.0
H525 H 0.46516 0.3251 0.21875 0.0
C526 C 0.41776 0.28852 0.13603 0.0
N527 N 0.41242 0.28464 0.16492 0.0
N528 N 0.43051 0.28327 0.18115 0.0
C529 C 0.44806 0.28549 0.16271 0.0
C530 C 0.44049 0.28923 0.13362 0.0
C531 C 0.40148 0.2881 0.11066 0.0
H532 H 0.39386 0.27152 0.10947 0.0
H533 H 0.3883 0.30034 0.11507 0.0
H534 H 0.40917 0.29176 0.08859 0.0
O535 O 0.38792 0.24545 0.1962 0.0
O536 O 0.41753 0.24484 0.22565 0.0
H537 H 0.47254 0.26746 0.18732 0.0
H538 H 0.48247 0.27951 0.1525 0.0
C539 C 0.47146 0.28194 0.17218 0.0
H540 H 0.47727 0.29657 0.18477 0.0
H541 H 0.46118 0.24547 0.25237 0.0
O542 O 0.36264 0.2765 0.14936 0.0
C543 C 0.40137 0.2351 0.21309 0.0
C544 C 0.20848 0.96577 0.20433 0.0
C545 C 0.19987 0.97924 0.22727 0.0
C546 C 0.19809 0.94598 0.19664 0.0
C547 C 0.14588 0.91498 0.20636 0.0
H548 H 0.18335 0.86324 0.2049 0.0
C549 C 0.10793 0.82928 0.21686 0.0
C550 C 0.11748 0.81699 0.24031 0.0
C551 C 0.11901 0.84737 0.20463 0.0
C552 C 0.17266 0.87753 0.20498 0.0
H553 H 0.17418 0.98188 0.26106 0.0
H554 H 0.15593 0.9479 0.24739 0.0
H555 H 0.19996 0.89981 0.20417 0.0
H556 H 0.14701 0.81289 0.26734 0.0
H557 H 0.16604 0.84442 0.24647 0.0
H558 H 0.11867 0.89286 0.20936 0.0
C559 C 0.17026 0.9529 0.23457 0.0
C560 C 0.18217 0.89849 0.20427 0.0
C561 C 0.18068 0.97255 0.24232 0.0
C562 C 0.13904 0.8221 0.24951 0.0
C563 C 0.15008 0.84013 0.23731 0.0
C564 C 0.13639 0.89407 0.20712 0.0
C565 C 0.17893 0.93929 0.21185 0.0
C566 C 0.16889 0.91741 0.20622 0.0
C567 C 0.13987 0.85347 0.21554 0.0
C568 C 0.14971 0.87511 0.20768 0.0
H569 H 0.22338 0.97044 0.19253 0.0
H570 H 0.20517 0.93581 0.17906 0.0
H571 H 0.13521 0.92928 0.20737 0.0
H572 H 0.09147 0.82567 0.20897 0.0
H573 H 0.11085 0.85713 0.18752 0.0
C574 C 0.15884 0.09259 0.22305 0.0
C575 C 0.17358 0.10703 0.23739 0.0
C576 C 0.13939 0.10063 0.21027 0.0
C577 C 0.10892 0.14917 0.18455 0.0
H578 H 0.06098 0.12685 0.23334 0.0
C579 C 0.02985 0.19907 0.20512 0.0
C580 C 0.01057 0.18843 0.21484 0.0
C581 C 0.04895 0.18703 0.19889 0.0
C582 C 0.0738 0.13294 0.21864 0.0
H583 H 0.18064 0.14133 0.247 0.0
H584 H 0.14692 0.15539 0.22391 0.0
H585 H 0.09673 0.1094 0.23601 0.0
H586 H 0.99657 0.15641 0.22533 0.0
H587 H 0.02866 0.13548 0.21126 0.0
H588 H 0.08608 0.1727 0.16698 0.0
C589 C 0.1503 0.13787 0.22291 0.0
C590 C 0.09442 0.12291 0.22038 0.0
C591 C 0.1695 0.12981 0.23627 0.0
C592 C 0.01057 0.16532 0.21665 0.0
C593 C 0.02942 0.15323 0.20944 0.0
C594 C 0.08808 0.1589 0.18216 0.0
C595 C 0.13468 0.12327 0.21095 0.0
C596 C 0.11229 0.13135 0.2041 0.0
C597 C 0.04919 0.16393 0.20169 0.0
C598 C 0.07038 0.15142 0.20001 0.0
H599 H 0.16153 0.07496 0.22353 0.0
H600 H 0.12751 0.08909 0.20119 0.0
H601 H 0.12253 0.1559 0.17175 0.0
H602 H 0.03053 0.21687 0.20368 0.0
H603 H 0.06378 0.19608 0.1935 0.0
C604 C 0.7771 0.02872 0.20836 0.0
C605 C 0.78941 0.01168 0.22165 0.0
C606 C 0.78714 0.04865 0.20072 0.0
C607 C 0.83978 0.07666 0.18769 0.0
H608 H 0.8146 0.12441 0.23433 0.0
C609 C 0.89088 0.1506 0.22743 0.0
C610 C 0.8801 0.16995 0.2364 0.0
C611 C 0.87878 0.13288 0.21603 0.0
C612 C 0.82165 0.11164 0.22028 0.0
H613 H 0.82186 0.00255 0.23802 0.0
H614 H 0.8395 0.0368 0.22325 0.0
H615 H 0.79508 0.0898 0.23055 0.0
H616 H 0.84883 0.18706 0.23774 0.0
H617 H 0.82788 0.15685 0.21586 0.0
H618 H 0.86644 0.09839 0.17742 0.0
C619 C 0.82219 0.03452 0.21821 0.0
C620 C 0.8104 0.0917 0.21831 0.0
C621 C 0.81208 0.01478 0.22639 0.0
C622 C 0.85742 0.17211 0.23134 0.0
C623 C 0.84542 0.15468 0.21909 0.0
C624 C 0.85086 0.09683 0.18908 0.0
C625 C 0.80971 0.05179 0.20598 0.0
C626 C 0.81971 0.07383 0.20285 0.0
C627 C 0.85573 0.13441 0.21271 0.0
C628 C 0.84232 0.11436 0.20633 0.0
H629 H 0.75955 0.02689 0.20475 0.0
H630 H 0.77717 0.06184 0.19154 0.0
H631 H 0.84719 0.06308 0.17549 0.0
H632 H 0.90839 0.14856 0.23127 0.0
H633 H 0.88741 0.11759 0.21174 0.0
C634 C 0.8378 0.90063 0.22328 0.0
C635 C 0.82196 0.88562 0.2338 0.0
C636 C 0.85784 0.89304 0.21172 0.0
C637 C 0.88853 0.84552 0.18263 0.0
H638 H 0.93504 0.86447 0.23644 0.0
C639 C 0.96654 0.79384 0.20247 0.0
C640 C 0.98567 0.80381 0.21393 0.0
C641 C 0.94769 0.80632 0.19656 0.0
C642 C 0.92263 0.85937 0.22043 0.0
H643 H 0.81383 0.85101 0.23819 0.0
H644 H 0.84865 0.83778 0.21725 0.0
H645 H 0.89934 0.88213 0.23892 0.0
H646 H -0.00031 0.83513 0.22785 0.0
H647 H 0.968 0.85698 0.21461 0.0
H648 H 0.91173 0.82276 0.16398 0.0
C649 C 0.84563 0.85536 0.2182 0.0
C650 C 0.90204 0.8695 0.22205 0.0
C651 C 0.82579 0.86293 0.23034 0.0
C652 C 0.98581 0.82679 0.21784 0.0
C653 C 0.96719 0.83936 0.21107 0.0
C654 C 0.90934 0.8357 0.18046 0.0
C655 C 0.86213 0.87035 0.20987 0.0
C656 C 0.88465 0.86224 0.20382 0.0
C657 C 0.94754 0.82923 0.20151 0.0
C658 C 0.9265 0.84197 0.20005 0.0
H659 H 0.83537 0.9182 0.22585 0.0
H660 H 0.87038 0.90487 0.20547 0.0
H661 H 0.87532 0.83972 0.16827 0.0
H662 H 0.96578 0.77615 0.19941 0.0
H663 H 0.93293 0.7977 0.18971 0.0
C664 C 0.11269 0.15784 0.77077 0.0
C665 C 0.12414 0.17415 0.7547 0.0
C666 C 0.12373 0.13916 0.78133 0.0
C667 C 0.17306 0.1068 0.76223 0.0
H668 H 0.15629 0.07198 0.83175 0.0
C669 C 0.21569 0.02502 0.78664 0.0
C670 C 0.20147 0.00705 0.79081 0.0
C671 C 0.20773 0.04653 0.7883 0.0
C672 C 0.16111 0.08157 0.81227 0.0
H673 H 0.15637 0.18474 0.7395 0.0
H674 H 0.17576 0.15265 0.75891 0.0
H675 H 0.14011 0.10856 0.82445 0.0
H676 H 0.16826 -0.0024 0.8033 0.0
H677 H 0.15414 0.03527 0.80536 0.0
H678 H 0.19376 0.07987 0.74977 0.0
C679 C 0.15813 0.15379 0.76238 0.0
C680 C 0.15184 0.10248 0.80805 0.0
C681 C 0.14706 0.17226 0.75142 0.0
C682 C 0.17943 0.01106 0.79884 0.0
C683 C 0.17144 0.03265 0.80053 0.0
C684 C 0.18239 0.08609 0.76657 0.0
C685 C 0.14648 0.13659 0.77635 0.0
C686 C 0.15756 0.11524 0.78277 0.0
C687 C 0.18538 0.05056 0.79435 0.0
C688 C 0.17638 0.07315 0.79144 0.0
H689 H 0.095 0.15884 0.77361 0.0
H690 H 0.11418 0.12621 0.79182 0.0
H691 H 0.17745 0.11583 0.74208 0.0
H692 H 0.23282 0.02251 0.78075 0.0
H693 H 0.21895 0.06003 0.78398 0.0
C694 C 0.86828 0.09032 0.73397 0.0
C695 C 0.85056 0.08462 0.7527 0.0
C696 C 0.88853 0.09611 0.74631 0.0
C697 C 0.93231 0.10128 0.7778 0.0
H698 H 0.92639 0.15236 0.82971 0.0
C699 C 0.00494 0.15988 0.796 0.0
C700 C -0.00059 0.18158 0.78796 0.0
C701 C 0.98845 0.14444 0.80196 0.0
C702 C 0.92836 0.13793 0.8156 0.0
H703 H 0.84028 0.07952 0.79892 0.0
H704 H 0.87584 0.09046 0.82076 0.0
H705 H 0.89436 0.12912 0.81984 0.0
H706 H 0.97241 0.20465 0.78271 0.0
H707 H 0.94369 0.17782 0.79308 0.0
H708 H 0.96586 0.1109 0.77177 0.0
C709 C 0.87399 0.09012 0.79649 0.0
C710 C 0.91009 0.12451 0.81019 0.0
C711 C 0.85374 0.08384 0.78404 0.0
C712 C 0.97719 0.18799 0.78852 0.0
C713 C 0.96073 0.17263 0.79467 0.0
C714 C 0.95059 0.11459 0.78335 0.0
C715 C 0.89142 0.09666 0.77768 0.0
C716 C 0.91168 0.10672 0.79006 0.0
C717 C 0.96614 0.15053 0.80051 0.0
C718 C 0.94852 0.13366 0.80111 0.0
H719 H 0.8663 0.09089 0.70972 0.0
H720 H 0.90156 0.10136 0.73127 0.0
H721 H 0.93396 0.08755 0.76236 0.0
H722 H 0.02194 0.15466 0.79724 0.0
H723 H 0.9931 0.1276 0.80693 0.0
C724 C 0.87534 0.82842 0.7703 0.0
C725 C 0.8642 0.81191 0.75421 0.0
C726 C 0.86367 0.84607 0.78282 0.0
C727 C 0.81209 0.87587 0.768 0.0
H728 H 0.83096 0.91194 0.8353 0.0
C729 C 0.77208 0.95965 0.7894 0.0
C730 C 0.78722 0.97701 0.79192 0.0
C731 C 0.77905 0.93784 0.79249 0.0
C732 C 0.82548 0.90197 0.8165 0.0
H733 H 0.83205 0.79962 0.74132 0.0
H734 H 0.81163 0.82983 0.7642 0.0
H735 H 0.84747 0.87557 0.82767 0.0
H736 H 0.82096 0.98534 0.80304 0.0
H737 H 0.83332 0.94726 0.80758 0.0
H738 H 0.79059 0.90233 0.7563 0.0
C739 C 0.82941 0.82972 0.76615 0.0
C740 C 0.83495 0.88118 0.81208 0.0
C741 C 0.84109 0.81231 0.75321 0.0
C742 C 0.8091 0.97226 0.79989 0.0
C743 C 0.81609 0.95044 0.80302 0.0
C744 C 0.80257 0.8965 0.77252 0.0
C745 C 0.84061 0.84736 0.77982 0.0
C746 C 0.82868 0.86807 0.78737 0.0
C747 C 0.80128 0.93298 0.79838 0.0
C748 C 0.80946 0.90999 0.79642 0.0
H749 H 0.89317 0.82854 0.77138 0.0
H750 H 0.87289 0.85938 0.79302 0.0
H751 H 0.80715 0.86655 0.74832 0.0
H752 H 0.75504 0.96285 0.78362 0.0
H753 H 0.76718 0.92474 0.78929 0.0
C754 C 0.00482 0.79978 0.80388 0.0
C755 C 0.99347 0.80487 0.7772 0.0
C756 C 0.0235 0.81176 0.81226 0.0
C757 C 0.05651 0.8618 0.79343 0.0
H758 H 0.10612 0.82439 0.81369 0.0
C759 C 0.14533 0.8943 0.78616 0.0
C760 C 0.15857 0.88073 0.76794 0.0
C761 C 0.12543 0.88634 0.79786 0.0
C762 C 0.0924 0.83512 0.80834 0.0
H763 H 0.99296 0.82639 0.73826 0.0
H764 H 0.02532 0.8472 0.75271 0.0
H765 H 0.06914 0.80906 0.81357 0.0
H766 H 0.16227 0.84779 0.74964 0.0
H767 H 0.12786 0.83403 0.7698 0.0
H768 H 0.08003 0.88741 0.78597 0.0
C769 C 0.01948 0.83446 0.76778 0.0
C770 C 0.07114 0.82639 0.80856 0.0
C771 C 0.0008 0.82254 0.75948 0.0
C772 C 0.15235 0.85871 0.76341 0.0
C773 C 0.13267 0.85074 0.77524 0.0
C774 C 0.0778 0.87051 0.79311 0.0
C775 C 0.03134 0.82893 0.79393 0.0
C776 C 0.05304 0.83939 0.79988 0.0
C777 C 0.11864 0.86463 0.79182 0.0
C778 C 0.09606 0.857 0.7993 0.0
H779 H -0.00047 0.7862 0.81794 0.0
H780 H 0.03213 0.80719 0.83267 0.0
H781 H 0.04286 0.87236 0.7872 0.0
H782 H 0.14972 0.91136 0.79004 0.0
H783 H 0.11503 0.89736 0.81076 0.0
C784 C 0.66267 0.49228 0.7449 0.0
C785 C 0.68026 0.49682 0.72538 0.0
C786 C 0.64639 0.47727 0.7367 0.0
C787 C 0.63866 0.42787 0.69177 0.0
H788 H 0.57846 0.43481 0.71952 0.0
C789 C 0.58209 0.35295 0.70642 0.0
C790 C 0.57605 0.35152 0.73689 0.0
C791 C 0.58974 0.37296 0.69466 0.0
C792 C 0.5951 0.43273 0.71115 0.0
H793 H 0.69479 0.489 0.68207 0.0
H794 H 0.66629 0.46241 0.66777 0.0
H795 H 0.60286 0.46674 0.71802 0.0
H796 H 0.57133 0.36986 0.77825 0.0
H797 H 0.58407 0.40467 0.75776 0.0
H798 H 0.63127 0.39361 0.68664 0.0
C799 C 0.66501 0.47074 0.68928 0.0
C800 C 0.6091 0.45095 0.71045 0.0
C801 C 0.68131 0.4859 0.69748 0.0
C802 C 0.576 0.37059 0.7547 0.0
C803 C 0.58313 0.39056 0.74287 0.0
C804 C 0.62462 0.40964 0.69238 0.0
C805 C 0.64743 0.4662 0.70892 0.0
C806 C 0.63134 0.44846 0.70229 0.0
C807 C 0.59087 0.39179 0.71309 0.0
C808 C 0.60307 0.41172 0.70359 0.0
H809 H 0.66186 0.49955 0.7671 0.0
H810 H 0.63349 0.47361 0.7528 0.0
H811 H 0.65571 0.42538 0.68544 0.0
H812 H 0.58234 0.33836 0.69236 0.0
H813 H 0.59563 0.37351 0.67164 0.0
C814 C 0.52494 0.68064 0.70291 0.0
C815 C 0.52147 0.7028 0.71078 0.0
C816 C 0.54635 0.67227 0.70031 0.0
C817 C 0.60098 0.68304 0.73116 0.0
H818 H 0.62068 0.63839 0.67473 0.0
C819 C 0.68588 0.64511 0.74573 0.0
C820 C 0.68654 0.62202 0.74451 0.0
C821 C 0.66792 0.65659 0.73399 0.0
C822 C 0.61539 0.65082 0.69068 0.0
H823 H 0.53771 0.734 0.7194 0.0
H824 H 0.57487 0.71953 0.71442 0.0
H825 H 0.58438 0.6554 0.66829 0.0
H826 H 0.66971 0.5929 0.72809 0.0
H827 H 0.63798 0.61285 0.70851 0.0
H828 H 0.63124 0.67802 0.7544 0.0
C829 C 0.5611 0.70845 0.71107 0.0
C830 C 0.59463 0.66054 0.68697 0.0
C831 C 0.53978 0.71677 0.71373 0.0
C832 C 0.66966 0.61072 0.72935 0.0
C833 C 0.65149 0.62219 0.71801 0.0
C834 C 0.62156 0.6733 0.73495 0.0
C835 C 0.56464 0.68598 0.70531 0.0
C836 C 0.58717 0.67663 0.70737 0.0
C837 C 0.65001 0.6452 0.72129 0.0
C838 C 0.62899 0.65692 0.71497 0.0
H839 H 0.51122 0.66964 0.69922 0.0
H840 H 0.54854 0.65489 0.6957 0.0
H841 H 0.59554 0.69503 0.74766 0.0
H842 H 0.69883 0.65428 0.7569 0.0
H843 H 0.66763 0.67436 0.73609 0.0
C844 C 0.31037 0.51229 0.68364 0.0
C845 C 0.31425 0.49996 0.70989 0.0
C846 C 0.32301 0.53097 0.67729 0.0
C847 C 0.37318 0.56188 0.70088 0.0
H848 H 0.3375 0.61336 0.6837 0.0
C849 C 0.37261 0.65646 0.73818 0.0
C850 C 0.39474 0.66241 0.73394 0.0
C851 C 0.36421 0.6374 0.72503 0.0
C852 C 0.34775 0.59912 0.68818 0.0
H853 H 0.33429 0.49782 0.75024 0.0
H854 H 0.35635 0.53 0.73911 0.0
H855 H 0.32118 0.57684 0.68013 0.0
H856 H 0.42515 0.65369 0.71121 0.0
H857 H 0.41042 0.62005 0.68828 0.0
H858 H 0.39931 0.58431 0.711 0.0
C859 C 0.34403 0.52494 0.72288 0.0
C860 C 0.33846 0.57816 0.68586 0.0
C861 C 0.33139 0.50633 0.72923 0.0
C862 C 0.40802 0.6495 0.71489 0.0
C863 C 0.39964 0.63022 0.7019 0.0
C864 C 0.38247 0.58287 0.7032 0.0
C865 C 0.33969 0.53776 0.69719 0.0
C866 C 0.35082 0.55936 0.69339 0.0
C867 C 0.37777 0.62373 0.70743 0.0
C868 C 0.36957 0.60173 0.69811 0.0
H869 H 0.29719 0.5078 0.6684 0.0
H870 H 0.31934 0.54043 0.65723 0.0
H871 H 0.38322 0.54768 0.70635 0.0
H872 H 0.36191 0.66613 0.75259 0.0
H873 H 0.34739 0.63277 0.73009 0.0
C874 C 0.31367 0.34635 0.74438 0.0
C875 C 0.31412 0.36925 0.73994 0.0
C876 C 0.32971 0.33288 0.73138 0.0
C877 C 0.37755 0.33229 0.67812 0.0
H878 H 0.40082 0.29056 0.73606 0.0
C879 C 0.46808 0.30449 0.68374 0.0
C880 C 0.4729 0.28328 0.69442 0.0
C881 C 0.44626 0.31156 0.68127 0.0
C882 C 0.3943 0.30173 0.71925 0.0
H883 H 0.33096 0.39587 0.71698 0.0
H884 H 0.35944 0.3725 0.69518 0.0
H885 H 0.36658 0.30945 0.74673 0.0
H886 H 0.45884 0.25206 0.70806 0.0
H887 H 0.42063 0.26435 0.70358 0.0
H888 H 0.40621 0.32527 0.65149 0.0
C889 C 0.34645 0.36481 0.70814 0.0
C890 C 0.37457 0.31261 0.72536 0.0
C891 C 0.33018 0.37826 0.72079 0.0
C892 C 0.45555 0.26859 0.70004 0.0
C893 C 0.43371 0.27567 0.69766 0.0
C894 C 0.39745 0.32147 0.6721 0.0
C895 C 0.34681 0.34203 0.71408 0.0
C896 C 0.36616 0.3284 0.70522 0.0
C897 C 0.42887 0.29749 0.68936 0.0
C898 C 0.40626 0.30644 0.69295 0.0
H899 H 0.30128 0.33889 0.75867 0.0
H900 H 0.32912 0.31535 0.73578 0.0
H901 H 0.37138 0.34407 0.66188 0.0
H902 H 0.48119 0.31594 0.67845 0.0
H903 H 0.44311 0.32848 0.67483 0.0
C904 C 0.65157 0.67621 0.26017 0.0
C905 C 0.62846 0.676 0.26095 0.0
C906 C 0.66363 0.65959 0.27426 0.0
C907 C 0.65918 0.6093 0.32285 0.0
H908 H 0.70482 0.58821 0.26893 0.0
C909 C 0.68862 0.51887 0.31416 0.0
C910 C 0.71057 0.51494 0.30567 0.0
C911 C 0.68082 0.54043 0.31731 0.0
C912 C 0.69249 0.59405 0.28467 0.0
H913 H 0.59985 0.65916 0.27881 0.0
H914 H 0.62081 0.62957 0.30233 0.0
H915 H 0.68715 0.62308 0.25887 0.0
H916 H 0.74219 0.53042 0.29732 0.0
H917 H 0.72869 0.56791 0.30334 0.0
H918 H 0.66396 0.57933 0.34764 0.0
C919 C 0.62973 0.6428 0.29148 0.0
C920 C 0.68233 0.61418 0.27894 0.0
C921 C 0.61767 0.65972 0.27786 0.0
C922 C 0.72508 0.53288 0.30339 0.0
C923 C 0.71733 0.55439 0.30665 0.0
C924 C 0.66931 0.58897 0.32848 0.0
C925 C 0.65283 0.64207 0.28882 0.0
C926 C 0.66529 0.62196 0.29762 0.0
C927 C 0.69491 0.55842 0.31233 0.0
C928 C 0.68584 0.58101 0.30914 0.0
H929 H 0.66033 0.68879 0.24768 0.0
H930 H 0.68142 0.65994 0.27255 0.0
H931 H 0.64631 0.6149 0.33791 0.0
H932 H 0.67726 0.50537 0.31737 0.0
H933 H 0.66348 0.54299 0.32188 0.0
C934 C 0.49067 0.66722 0.26648 0.0
C935 C 0.4973 0.68585 0.28286 0.0
C936 C 0.47096 0.65656 0.27342 0.0
C937 C 0.4168 0.66971 0.3043 0.0
H938 H 0.40656 0.60775 0.28858 0.0
C939 C 0.34151 0.60323 0.28103 0.0
C940 C 0.3299 0.61578 0.25963 0.0
C941 C 0.36086 0.6114 0.294 0.0
C942 C 0.40909 0.625 0.29373 0.0
H943 H 0.48897 0.70746 0.32002 0.0
H944 H 0.45455 0.68867 0.3324 0.0
H945 H 0.44414 0.62122 0.29373 0.0
H946 H 0.32862 0.64737 0.23683 0.0
H947 H 0.36223 0.66143 0.2591 0.0
H948 H 0.38177 0.67358 0.30358 0.0
C949 C 0.46453 0.68239 0.31408 0.0
C950 C 0.43066 0.63277 0.29632 0.0
C951 C 0.48425 0.69309 0.30707 0.0
C952 C 0.33721 0.6372 0.25308 0.0
C953 C 0.35644 0.64536 0.26608 0.0
C954 C 0.39524 0.66194 0.30182 0.0
C955 C 0.45736 0.66436 0.29678 0.0
C956 C 0.43477 0.65535 0.30041 0.0
C957 C 0.36886 0.63231 0.28597 0.0
C958 C 0.39117 0.63966 0.29526 0.0
H959 H 0.49986 0.66168 0.24703 0.0
H960 H 0.46574 0.64305 0.25917 0.0
H961 H 0.41932 0.68723 0.30733 0.0
H962 H 0.33626 0.58672 0.28676 0.0
H963 H 0.36993 0.60107 0.30955 0.0
C964 C 0.29838 0.47461 0.30341 0.0
C965 C 0.30578 0.48768 0.27935 0.0
C966 C 0.30869 0.45456 0.30996 0.0
C967 C 0.35834 0.42074 0.29222 0.0
H968 H 0.31827 0.37149 0.30101 0.0
C969 C 0.35499 0.327 0.25043 0.0
C970 C 0.37682 0.32041 0.25592 0.0
C971 C 0.34653 0.346 0.26376 0.0
C972 C 0.32971 0.38507 0.2988 0.0
H973 H 0.32939 0.48965 0.24279 0.0
H974 H 0.34737 0.45502 0.25419 0.0
H975 H 0.3041 0.40896 0.30402 0.0
H976 H 0.40631 0.32767 0.28169 0.0
H977 H 0.39139 0.36085 0.30526 0.0
H978 H 0.38365 0.39692 0.28471 0.0
C979 C 0.33413 0.4605 0.26874 0.0
C980 C 0.32163 0.40657 0.30085 0.0
C981 C 0.32385 0.48049 0.26224 0.0
C982 C 0.38947 0.33237 0.27682 0.0
C983 C 0.38097 0.35145 0.29019 0.0
C984 C 0.3664 0.39926 0.29002 0.0
C985 C 0.32648 0.44712 0.29237 0.0
C986 C 0.33572 0.42464 0.29637 0.0
C987 C 0.35966 0.35888 0.28299 0.0
C988 C 0.35202 0.38118 0.29208 0.0
H989 H 0.28438 0.47973 0.31684 0.0
H990 H 0.30246 0.44469 0.3284 0.0
H991 H 0.36968 0.43433 0.28924 0.0
H992 H 0.34472 0.31808 0.23465 0.0
H993 H 0.33014 0.3513 0.25742 0.0
C994 C 0.51066 0.32398 0.25466 0.0
C995 C 0.50412 0.30611 0.27259 0.0
C996 C 0.52914 0.33641 0.26233 0.0
C997 C 0.58192 0.33053 0.30045 0.0
H998 H 0.58636 0.39288 0.28248 0.0
C999 C 0.65131 0.40393 0.28251 0.0
C1000 C 0.66479 0.39244 0.26208 0.0
C1001 C 0.63214 0.3941 0.29382 0.0
C1002 C 0.58536 0.37558 0.28829 0.0
H1003 H 0.51177 0.28727 0.3127 0.0
H1004 H 0.54425 0.309 0.3261 0.0
H1005 H 0.55025 0.37531 0.28373 0.0
H1006 H 0.66973 0.36125 0.23921 0.0
H1007 H 0.63663 0.34417 0.25893 0.0
H1008 H 0.61708 0.33064 0.3039 0.0
C1009 C 0.53495 0.31345 0.30619 0.0
C1010 C 0.5647 0.36547 0.28865 0.0
C1011 C 0.51638 0.30104 0.29853 0.0
C1012 C 0.65958 0.37055 0.25477 0.0
C1013 C 0.64069 0.36069 0.2663 0.0
C1014 C 0.60257 0.34064 0.30004 0.0
C1015 C 0.54169 0.33112 0.28794 0.0
C1016 C 0.56285 0.34267 0.29355 0.0
C1017 C 0.62641 0.37253 0.28524 0.0
C1018 C 0.60457 0.36307 0.29275 0.0
H1019 H 0.50224 0.3278 0.23387 0.0
H1020 H 0.53422 0.34951 0.24732 0.0
H1021 H 0.58109 0.31293 0.30421 0.0
H1022 H 0.65492 0.42085 0.28848 0.0
H1023 H 0.62146 0.40356 0.30849 0.0
C1024 C 0.17068 0.15377 0.3885 0.0
C1025 C 0.19177 0.1496 0.37677 0.0
C1026 C 0.16819 0.16465 0.41604 0.0
C1027 C 0.19879 0.17488 0.48636 0.0
H1028 H 0.14737 0.21015 0.50533 0.0
C1029 C 0.1525 0.22077 0.59381 0.0
C1030 C 0.15467 0.2038 0.61516 0.0
C1031 C 0.16035 0.21795 0.56444 0.0
C1032 C 0.16206 0.20068 0.50041 0.0
H1033 H 0.22674 0.15475 0.38383 0.0
H1034 H 0.22237 0.17423 0.43151 0.0
H1035 H 0.15453 0.19967 0.45335 0.0
H1036 H 0.16773 0.17101 0.62278 0.0
H1037 H 0.18095 0.16592 0.57163 0.0
H1038 H 0.2064 0.17601 0.53338 0.0
C1039 C 0.20776 0.16859 0.41983 0.0
C1040 C 0.166 0.1944 0.47059 0.0
C1041 C 0.21026 0.15756 0.39239 0.0
C1042 C 0.16579 0.18442 0.60692 0.0
C1043 C 0.17351 0.18155 0.57754 0.0
C1044 C 0.19495 0.18131 0.51613 0.0
C1045 C 0.18672 0.17178 0.43238 0.0
C1046 C 0.18409 0.18093 0.4633 0.0
C1047 C 0.17045 0.19808 0.55573 0.0
C1048 C 0.17622 0.1938 0.52366 0.0
H1049 H 0.15609 0.14781 0.37709 0.0
H1050 H 0.15174 0.16653 0.42512 0.0
H1051 H 0.2128 0.16437 0.48171 0.0
H1052 H 0.14411 0.23597 0.59949 0.0
H1053 H 0.15806 0.23118 0.54838 0.0
C1054 C 0.84165 0.16842 0.38629 0.0
C1055 C 0.8489 0.18957 0.37822 0.0
C1056 C 0.83476 0.16403 0.4157 0.0
C1057 C 0.8139 0.16022 0.4776 0.0
H1058 H 0.85232 0.18376 0.53953 0.0
C1059 C 0.80192 0.1385 0.60296 0.0
C1060 C 0.82115 0.13275 0.61879 0.0
C1061 C 0.80325 0.14834 0.57458 0.0
C1062 C 0.84145 0.17704 0.52251 0.0
H1063 H 0.85327 0.22307 0.39424 0.0
H1064 H 0.84097 0.21544 0.44548 0.0
H1065 H 0.85716 0.1953 0.4874 0.0
H1066 H 0.85685 0.13342 0.61755 0.0
H1067 H 0.85918 0.15033 0.56791 0.0
H1068 H 0.79886 0.14119 0.5125 0.0
C1069 C 0.841 0.20215 0.42918 0.0
C1070 C 0.84403 0.18387 0.49267 0.0
C1071 C 0.84787 0.20656 0.39974 0.0
C1072 C 0.84173 0.13766 0.60599 0.0
C1073 C 0.84306 0.14748 0.57758 0.0
C1074 C 0.81133 0.15338 0.50744 0.0
C1075 C 0.83494 0.1807 0.4377 0.0
C1076 C 0.83053 0.17525 0.46978 0.0
C1077 C 0.82384 0.15264 0.56135 0.0
C1078 C 0.82533 0.16142 0.53017 0.0
H1079 H 0.8422 0.15496 0.37027 0.0
H1080 H 0.83037 0.14728 0.42153 0.0
H1081 H 0.8031 0.15343 0.46055 0.0
H1082 H 0.78578 0.13503 0.61222 0.0
H1083 H 0.78814 0.1524 0.56286 0.0
C1084 C 0.83407 0.7714 0.58888 0.0
C1085 C 0.83201 0.78852 0.61004 0.0
C1086 C 0.82654 0.77415 0.55938 0.0
C1087 C 0.82629 0.79112 0.49537 0.0
H1088 H 0.77608 0.82746 0.47436 0.0
C1089 C 0.81964 0.83675 0.38237 0.0
C1090 C 0.79877 0.84041 0.36967 0.0
C1091 C 0.82168 0.82631 0.41025 0.0
C1092 C 0.78996 0.81695 0.47971 0.0
H1093 H 0.81937 0.82153 0.61724 0.0
H1094 H 0.80664 0.82652 0.56576 0.0
H1095 H 0.7816 0.81648 0.52655 0.0
H1096 H 0.76373 0.8348 0.37547 0.0
H1097 H 0.76734 0.81617 0.42386 0.0
H1098 H 0.83463 0.79155 0.44856 0.0
C1099 C 0.81378 0.81081 0.57196 0.0
C1100 C 0.79328 0.8109 0.50974 0.0
C1101 C 0.82119 0.808 0.60152 0.0
C1102 C 0.78005 0.83235 0.38472 0.0
C1103 C 0.7821 0.82182 0.41257 0.0
C1104 C 0.82291 0.79707 0.46534 0.0
C1105 C 0.81689 0.79414 0.55032 0.0
C1106 C 0.81177 0.79833 0.51805 0.0
C1107 C 0.8029 0.81916 0.42602 0.0
C1108 C 0.80499 0.8105 0.45724 0.0
H1109 H 0.84217 0.75609 0.5948 0.0
H1110 H 0.82879 0.7608 0.54348 0.0
H1111 H 0.84083 0.78161 0.50092 0.0
H1112 H 0.83439 0.84278 0.37142 0.0
H1113 H 0.83794 0.82479 0.42005 0.0
C1114 C 0.14552 0.77887 0.40425 0.0
C1115 C 0.14366 0.79673 0.38426 0.0
C1116 C 0.15346 0.78203 0.43348 0.0
C1117 C 0.18215 0.82231 0.48305 0.0
H1118 H 0.14774 0.79461 0.54613 0.0
C1119 C 0.15968 0.83862 0.61505 0.0
C1120 C 0.18051 0.84473 0.62595 0.0
C1121 C 0.15747 0.8294 0.58635 0.0
C1122 C 0.1575 0.8025 0.52879 0.0
H1123 H 0.14969 0.83172 0.37885 0.0
H1124 H 0.1632 0.8373 0.42981 0.0
H1125 H 0.14056 0.7854 0.49365 0.0
H1126 H 0.21551 0.84488 0.61592 0.0
H1127 H 0.21168 0.8284 0.56616 0.0
H1128 H 0.19828 0.84029 0.51805 0.0
C1129 C 0.15879 0.82077 0.42289 0.0
C1130 C 0.15359 0.79699 0.4987 0.0
C1131 C 0.15091 0.8176 0.39366 0.0
C1132 C 0.19919 0.84052 0.60809 0.0
C1133 C 0.19699 0.83119 0.57947 0.0
C1134 C 0.186 0.82787 0.51313 0.0
C1135 C 0.15969 0.80313 0.44338 0.0
C1136 C 0.16558 0.80715 0.47543 0.0
C1137 C 0.17606 0.82596 0.56798 0.0
C1138 C 0.17344 0.81834 0.53634 0.0
H1139 H 0.14017 0.76254 0.39767 0.0
H1140 H 0.15431 0.76803 0.44853 0.0
H1141 H 0.19188 0.83022 0.46572 0.0
H1142 H 0.14497 0.84168 0.62821 0.0
H1143 H 0.14107 0.82582 0.57812 0.0
C1144 C 0.70826 0.67834 0.88372 0.0
C1145 C 0.72153 0.65949 0.88076 0.0
C1146 C 0.7042 0.68744 0.91214 0.0
C1147 C 0.72089 0.68513 0.99316 0.0
H1148 H 0.65914 0.69819 0.00659 0.0
C1149 C 0.67911 0.68434 0.11048 0.0
C1150 C 0.66264 0.70008 0.11618 0.0
C1151 C 0.68903 0.68301 0.08207 0.0
C1152 C 0.67652 0.69498 0.00317 0.0
H1153 H 0.74229 0.63644 0.90508 0.0
H1154 H 0.73477 0.65188 0.95447 0.0
H1155 H 0.67195 0.69009 0.95598 0.0
H1156 H 0.64445 0.72749 0.09693 0.0
H1157 H 0.66178 0.72519 0.04761 0.0
H1158 H 0.72512 0.68924 0.0408 0.0
C1159 C 0.72763 0.65983 0.93495 0.0
C1160 C 0.6839 0.6904 0.97407 0.0
C1161 C 0.73181 0.65084 0.90656 0.0
C1162 C 0.65697 0.71504 0.09328 0.0
C1163 C 0.66683 0.71369 0.06494 0.0
C1164 C 0.71344 0.68961 0.02237 0.0
C1165 C 0.71324 0.67783 0.9382 0.0
C1166 C 0.70612 0.68511 0.96872 0.0
C1167 C 0.68262 0.69737 0.05881 0.0
C1168 C 0.69111 0.69431 0.02771 0.0
H1169 H 0.70028 0.68557 0.86427 0.0
H1170 H 0.69343 0.70162 0.91377 0.0
H1171 H 0.73816 0.68142 0.98978 0.0
H1172 H 0.68389 0.67259 0.12764 0.0
H1173 H 0.70104 0.67015 0.07797 0.0
C1174 C 0.35512 0.70354 0.89495 0.0
C1175 C 0.35876 0.68457 0.87745 0.0
C1176 C 0.34558 0.70196 0.92349 0.0
C1177 C 0.34134 0.69183 0.98998 0.0
H1178 H 0.29725 0.64802 0.00964 0.0
C1179 C 0.32911 0.65808 0.1098 0.0
C1180 C 0.30801 0.65132 0.11892 0.0
C1181 C 0.33268 0.6658 0.08059 0.0
C1182 C 0.30929 0.66061 0.00454 0.0
H1183 H 0.35451 0.64913 0.87577 0.0
H1184 H 0.33826 0.64628 0.92577 0.0
H1185 H 0.30712 0.65431 0.9572 0.0
H1186 H 0.27383 0.64872 0.10509 0.0
H1187 H 0.28001 0.66262 0.05427 0.0
H1188 H 0.34347 0.69818 0.03731 0.0
C1189 C 0.34246 0.66246 0.91729 0.0
C1190 C 0.31518 0.664 0.97446 0.0
C1191 C 0.3519 0.66407 0.88865 0.0
C1192 C 0.29033 0.65366 0.09872 0.0
C1193 C 0.29389 0.66146 0.06951 0.0
C1194 C 0.33539 0.68851 0.02004 0.0
C1195 C 0.33955 0.68134 0.93529 0.0
C1196 C 0.3316 0.67932 0.96687 0.0
C1197 C 0.31522 0.66706 0.05984 0.0
C1198 C 0.31964 0.67253 0.02775 0.0
H1199 H 0.36007 0.71963 0.88687 0.0
H1200 H 0.34321 0.71687 0.93651 0.0
H1201 H 0.35419 0.70364 0.98503 0.0
H1202 H 0.3431 0.65649 0.12478 0.0
H1203 H 0.34936 0.66975 0.07386 0.0
C1204 C 0.29917 0.32579 0.88999 0.0
C1205 C 0.28502 0.34363 0.88421 0.0
C1206 C 0.30119 0.31729 0.91914 0.0
C1207 C 0.29571 0.33504 0.99755 0.0
H1208 H 0.30374 0.27307 0.01557 0.0
C1209 C 0.31609 0.3068 0.11783 0.0
C1210 C 0.33335 0.29146 0.12015 0.0
C1211 C 0.3061 0.31091 0.09001 0.0
C1212 C 0.30162 0.29044 0.01089 0.0
H1213 H 0.26107 0.36581 0.90428 0.0
H1214 H 0.26457 0.35094 0.95499 0.0
H1215 H 0.29389 0.28437 0.96449 0.0
H1216 H 0.35277 0.26748 0.09537 0.0
H1217 H 0.33577 0.27498 0.04695 0.0
H1218 H 0.30419 0.3413 0.04344 0.0
C1219 C 0.27431 0.34371 0.93707 0.0
C1220 C 0.29596 0.29689 0.98164 0.0
C1221 C 0.27224 0.35216 0.90795 0.0
C1222 C 0.3396 0.2795 0.09438 0.0
C1223 C 0.32971 0.28369 0.06658 0.0
C1224 C 0.30146 0.32862 0.02669 0.0
C1225 C 0.28914 0.3265 0.94311 0.0
C1226 C 0.29325 0.31929 0.97458 0.0
C1227 C 0.3132 0.29983 0.06389 0.0
C1228 C 0.30481 0.30627 0.03365 0.0
H1229 H 0.30922 0.31881 0.87221 0.0
H1230 H 0.31289 0.30413 0.92311 0.0
H1231 H 0.29409 0.35245 0.99275 0.0
H1232 H 0.31074 0.31616 0.13729 0.0
H1233 H 0.29313 0.32314 0.08885 0.0
C1234 C 0.61843 0.31561 0.89829 0.0
C1235 C 0.61636 0.33269 0.87711 0.0
C1236 C 0.62691 0.31981 0.92698 0.0
C1237 C 0.63087 0.33641 0.9912 0.0
H1238 H 0.67932 0.37701 0.00332 0.0
C1239 C 0.6514 0.37361 0.10736 0.0
C1240 C 0.67366 0.37675 0.11487 0.0
C1241 C 0.64545 0.36663 0.0785 0.0
C1242 C 0.66594 0.36544 0.00033 0.0
H1243 H 0.62197 0.3675 0.86926 0.0
H1244 H 0.63656 0.37486 0.91941 0.0
H1245 H 0.66778 0.36771 0.95227 0.0
H1246 H 0.70718 0.37448 0.09815 0.0
H1247 H 0.69679 0.36196 0.04792 0.0
H1248 H 0.62915 0.33395 0.03922 0.0
C1249 C 0.63186 0.35816 0.91374 0.0
C1250 C 0.65915 0.36032 0.97107 0.0
C1251 C 0.62337 0.35397 0.88504 0.0
C1252 C 0.68987 0.37227 0.09308 0.0
C1253 C 0.68391 0.36525 0.06421 0.0
C1254 C 0.63766 0.34152 0.02044 0.0
C1255 C 0.63351 0.34118 0.93515 0.0
C1256 C 0.64142 0.34589 0.96617 0.0
C1257 C 0.66162 0.36257 0.05649 0.0
C1258 C 0.65514 0.35624 0.02537 0.0
H1259 H 0.61325 0.29901 0.8929 0.0
H1260 H 0.62826 0.3063 0.94279 0.0
H1261 H 0.61701 0.32541 0.98824 0.0
H1262 H 0.63849 0.37699 0.12356 0.0
H1263 H 0.62811 0.36502 0.07321 0.0
C1264 C 0.29572 0.08083 0.26167 0.0
C1265 C 0.2827 0.0936 0.28125 0.0
C1266 C 0.31776 0.08644 0.25644 0.0
C1267 C 0.35364 0.11551 0.23025 0.0
H1268 H 0.38496 0.15162 0.28812 0.0
C1269 C 0.41046 0.19938 0.23904 0.0
C1270 C 0.39785 0.21129 0.21803 0.0
C1271 C 0.40559 0.17728 0.24511 0.0
C1272 C 0.37705 0.14115 0.27161 0.0
H1273 H 0.28302 0.12132 0.3122 0.0
H1274 H 0.32073 0.13137 0.30256 0.0
H1275 H 0.35908 0.12409 0.30577 0.0
H1276 H 0.37132 0.20889 0.1854 0.0
H1277 H 0.3625 0.17108 0.19644 0.0
H1278 H 0.37118 0.13298 0.19606 0.0
C1279 C 0.31433 0.11682 0.29152 0.0
C1280 C 0.36195 0.12551 0.28177 0.0
C1281 C 0.29245 0.11126 0.29669 0.0
C1282 C 0.38121 0.20034 0.20201 0.0
C1283 C 0.37638 0.1784 0.20802 0.0
C1284 C 0.36907 0.13084 0.22011 0.0
C1285 C 0.32715 0.10485 0.27079 0.0
C1286 C 0.34869 0.11399 0.26111 0.0
C1287 C 0.38809 0.16672 0.23019 0.0
C1288 C 0.37942 0.14516 0.2406 0.0
H1289 H 0.28874 0.06694 0.2497 0.0
H1290 H 0.32723 0.07681 0.24048 0.0
H1291 H 0.34402 0.10669 0.21364 0.0
H1292 H 0.4236 0.20729 0.2515 0.0
H1293 H 0.41502 0.1687 0.26217 0.0
C1294 C 0.78424 0.39116 0.19433 0.0
C1295 C 0.77367 0.39901 0.22034 0.0
C1296 C 0.80516 0.38173 0.19614 0.0
C1297 C 0.85201 0.37077 0.24921 0.0
H1298 H 0.85637 0.31678 0.20288 0.0
C1299 C 0.90469 0.28405 0.23969 0.0
C1300 C 0.90097 0.27667 0.26924 0.0
C1301 C 0.89616 0.30431 0.23026 0.0
C1302 C 0.85578 0.33209 0.21543 0.0
H1303 H 0.77694 0.40402 0.26845 0.0
H1304 H 0.81288 0.38646 0.27205 0.0
H1305 H 0.82686 0.34244 0.19236 0.0
H1306 H 0.88759 0.28548 0.31291 0.0
H1307 H 0.87298 0.32085 0.2966 0.0
H1308 H 0.88002 0.35911 0.27398 0.0
C1309 C 0.80547 0.38816 0.25 0.0
C1310 C 0.8388 0.3469 0.2094 0.0
C1311 C 0.78472 0.39804 0.24805 0.0
C1312 C 0.89046 0.2907 0.2899 0.0
C1313 C 0.88229 0.31104 0.28064 0.0
C1314 C 0.86884 0.35574 0.25553 0.0
C1315 C 0.81577 0.37946 0.22415 0.0
C1316 C 0.83619 0.36605 0.22694 0.0
C1317 C 0.88419 0.31759 0.25043 0.0
C1318 C 0.87037 0.33592 0.23935 0.0
H1319 H 0.77625 0.39212 0.17254 0.0
H1320 H 0.81278 0.37575 0.17565 0.0
H1321 H 0.85086 0.38563 0.26264 0.0
H1322 H 0.91279 0.27355 0.22334 0.0
H1323 H 0.89786 0.30906 0.20686 0.0
C1324 C 0.69783 0.90883 0.24854 0.0
C1325 C 0.70998 0.89576 0.26878 0.0
C1326 C 0.67569 0.90399 0.24258 0.0
C1327 C 0.63876 0.87579 0.21643 0.0
H1328 H 0.60588 0.84233 0.27557 0.0
C1329 C 0.58345 0.79166 0.23094 0.0
C1330 C 0.59666 0.77933 0.21109 0.0
C1331 C 0.58709 0.81427 0.23465 0.0
C1332 C 0.61416 0.85209 0.2586 0.0
H1333 H 0.70807 0.8682 0.29983 0.0
H1334 H 0.67019 0.85955 0.28906 0.0
H1335 H 0.63211 0.86974 0.2922 0.0
H1336 H 0.62268 0.78141 0.17765 0.0
H1337 H 0.62956 0.82005 0.18482 0.0
H1338 H 0.62122 0.85771 0.18282 0.0
C1339 C 0.67736 0.87376 0.27805 0.0
C1340 C 0.62947 0.86768 0.26822 0.0
C1341 C 0.69933 0.87848 0.28386 0.0
C1342 C 0.61241 0.7903 0.1935 0.0
C1343 C 0.6161 0.81272 0.19727 0.0
C1344 C 0.62305 0.86056 0.20678 0.0
C1345 C 0.66532 0.88616 0.25698 0.0
C1346 C 0.64341 0.87801 0.24728 0.0
C1347 C 0.60405 0.8249 0.21866 0.0
C1348 C 0.61225 0.84699 0.22781 0.0
H1349 H 0.70554 0.92242 0.23679 0.0
H1350 H 0.66686 0.91384 0.22622 0.0
H1351 H 0.64889 0.88381 0.19963 0.0
H1352 H 0.57088 0.78374 0.24443 0.0
H1353 H 0.5773 0.82319 0.25101 0.0
C1354 C 0.09188 0.70373 0.24799 0.0
C1355 C 0.08861 0.71122 0.2775 0.0
C1356 C 0.1004 0.68267 0.24291 0.0
C1357 C 0.13659 0.64464 0.28409 0.0
H1358 H 0.13792 0.61563 0.20631 0.0
C1359 C 0.20958 0.59048 0.25061 0.0
C1360 C 0.21984 0.59911 0.2248 0.0
C1361 C 0.1879 0.59633 0.25763 0.0
C1362 C 0.13748 0.62333 0.22833 0.0
H1363 H 0.08877 0.70209 0.3246 0.0
H1364 H 0.1022 0.66479 0.31578 0.0
H1365 H 0.10723 0.64005 0.21884 0.0
H1366 H 0.21496 0.61922 0.18495 0.0
H1367 H 0.17724 0.62937 0.19721 0.0
H1368 H 0.16715 0.62855 0.29313 0.0
C1369 C 0.0994 0.67538 0.29654 0.0
C1370 C 0.12002 0.63744 0.23546 0.0
C1371 C 0.09155 0.69666 0.30164 0.0
C1372 C 0.2076 0.61254 0.20521 0.0
C1373 C 0.18589 0.61811 0.212 0.0
C1374 C 0.15378 0.63031 0.27714 0.0
C1375 C 0.10532 0.66862 0.2673 0.0
C1376 C 0.12 0.64921 0.2628 0.0
C1377 C 0.17604 0.61058 0.23869 0.0
C1378 C 0.15498 0.62043 0.24864 0.0
H1379 H 0.08972 0.71479 0.22906 0.0
H1380 H 0.1048 0.67825 0.22006 0.0
H1381 H 0.13748 0.65348 0.30523 0.0
H1382 H 0.21857 0.57997 0.26602 0.0
H1383 H 0.18064 0.59032 0.27835 0.0
C1384 C 0.40995 0.78633 0.7488 0.0
C1385 C 0.40142 0.77288 0.77178 0.0
C1386 C 0.40157 0.80758 0.74437 0.0
C1387 C 0.36594 0.83982 0.72526 0.0
H1388 H 0.33737 0.8714 0.79046 0.0
C1389 C 0.27814 0.86793 0.71649 0.0
C1390 C 0.27024 0.88646 0.73207 0.0
C1391 C 0.30004 0.86152 0.7191 0.0
C1392 C 0.3456 0.86331 0.77184 0.0
H1393 H 0.37852 0.77172 0.80935 0.0
H1394 H 0.36369 0.80806 0.80124 0.0
H1395 H 0.36825 0.84717 0.80135 0.0
H1396 H 0.27936 0.91316 0.76212 0.0
H1397 H 0.31788 0.90177 0.76685 0.0
H1398 H 0.34288 0.85547 0.69586 0.0
C1399 C 0.37702 0.8026 0.78682 0.0
C1400 C 0.36318 0.84923 0.77813 0.0
C1401 C 0.38529 0.7815 0.79118 0.0
C1402 C 0.2849 0.89867 0.75005 0.0
C1403 C 0.30696 0.89222 0.75266 0.0
C1404 C 0.34858 0.85414 0.71891 0.0
C1405 C 0.38464 0.81573 0.76295 0.0
C1406 C 0.37236 0.83608 0.75522 0.0
C1407 C 0.31472 0.8735 0.73728 0.0
C1408 C 0.33719 0.86471 0.74243 0.0
H1409 H 0.42259 0.78024 0.7337 0.0
H1410 H 0.40785 0.81736 0.72587 0.0
H1411 H 0.37275 0.83014 0.70699 0.0
H1412 H 0.26735 0.85813 0.70242 0.0
H1413 H 0.30525 0.84666 0.70761 0.0
C1414 C 0.19738 0.40535 0.80275 0.0
C1415 C 0.21116 0.40743 0.77757 0.0
C1416 C 0.17537 0.39935 0.79918 0.0
C1417 C 0.13363 0.38254 0.74078 0.0
H1418 H 0.12523 0.33423 0.79666 0.0
C1419 C 0.10821 0.29664 0.70698 0.0
C1420 C 0.0965 0.28306 0.72694 0.0
C1421 C 0.11288 0.31839 0.71461 0.0
C1422 C 0.12678 0.34798 0.78126 0.0
H1423 H 0.21264 0.40686 0.7289 0.0
H1424 H 0.17469 0.39495 0.72248 0.0
H1425 H 0.1515 0.36265 0.80844 0.0
H1426 H 0.07903 0.28208 0.76957 0.0
H1427 H 0.08775 0.32015 0.7833 0.0
H1428 H 0.11021 0.36625 0.71233 0.0
C1429 C 0.18038 0.39862 0.74504 0.0
C1430 C 0.14192 0.36446 0.78803 0.0
C1431 C 0.20224 0.40527 0.74863 0.0
C1432 C 0.0883 0.29211 0.75387 0.0
C1433 C 0.0932 0.31387 0.76168 0.0
C1434 C 0.11862 0.36584 0.73384 0.0
C1435 C 0.16699 0.39448 0.77039 0.0
C1436 C 0.14648 0.38128 0.7671 0.0
C1437 C 0.1061 0.327 0.7425 0.0
C1438 C 0.116 0.3478 0.75333 0.0
H1439 H 0.2039 0.40739 0.82531 0.0
H1440 H 0.16538 0.39709 0.81915 0.0
H1441 H 0.13621 0.3956 0.72456 0.0
H1442 H 0.11446 0.29025 0.68584 0.0
H1443 H 0.1231 0.32797 0.69952 0.0
C1444 C 0.63194 0.24858 0.76444 0.0
C1445 C 0.60952 0.24501 0.75868 0.0
C1446 C 0.64677 0.2311 0.76393 0.0
C1447 C 0.67184 0.19107 0.7825 0.0
H1448 H 0.66992 0.14366 0.724 0.0
C1449 C 0.74534 0.13735 0.74867 0.0
C1450 C 0.74233 0.11445 0.74806 0.0
C1451 C 0.72762 0.15129 0.75453 0.0
C1452 C 0.67036 0.15663 0.74076 0.0
H1453 H 0.58502 0.22056 0.74685 0.0
H1454 H 0.61096 0.18968 0.74672 0.0
H1455 H 0.64179 0.17252 0.72266 0.0
H1456 H 0.71874 0.088 0.75367 0.0
H1457 H 0.68733 0.11267 0.76303 0.0
H1458 H 0.70116 0.1758 0.79938 0.0
C1459 C 0.61714 0.20609 0.75115 0.0
C1460 C 0.6543 0.17315 0.74001 0.0
C1461 C 0.60229 0.22374 0.75118 0.0
C1462 C 0.72144 0.10563 0.75429 0.0
C1463 C 0.70353 0.11966 0.75944 0.0
C1464 C 0.68802 0.17479 0.78292 0.0
C1465 C 0.63947 0.20953 0.75826 0.0
C1466 C 0.65519 0.19085 0.76044 0.0
C1467 C 0.70651 0.14258 0.75923 0.0
C1468 C 0.68763 0.1577 0.76171 0.0
H1469 H 0.63798 0.26489 0.76992 0.0
H1470 H 0.66397 0.2345 0.76845 0.0
H1471 H 0.67265 0.20407 0.79918 0.0
H1472 H 0.76131 0.14451 0.74393 0.0
H1473 H 0.73022 0.16894 0.75408 0.0
C1474 C 0.80194 0.57529 0.75554 0.0
C1475 C 0.79214 0.58717 0.77922 0.0
C1476 C 0.82384 0.5794 0.74734 0.0
C1477 C 0.85787 0.6086 0.71815 0.0
H1478 H 0.89515 0.64168 0.77261 0.0
C1479 C 0.87846 0.69582 0.69449 0.0
C1480 C 0.89574 0.70701 0.70883 0.0
C1481 C 0.87557 0.67332 0.69871 0.0
C1482 C 0.88555 0.63212 0.75675 0.0
H1483 H 0.7983 0.61079 0.81495 0.0
H1484 H 0.83557 0.6185 0.8003 0.0
H1485 H 0.87272 0.61195 0.79202 0.0
H1486 H 0.9246 0.70298 0.73714 0.0
H1487 H 0.91963 0.66338 0.74438 0.0
H1488 H 0.87064 0.62882 0.68291 0.0
C1489 C 0.82687 0.60581 0.788 0.0
C1490 C 0.87239 0.61519 0.76803 0.0
C1491 C 0.80517 0.60167 0.79618 0.0
C1492 C 0.91088 0.69488 0.72616 0.0
C1493 C 0.90806 0.67218 0.73025 0.0
C1494 C 0.87154 0.62506 0.70672 0.0
C1495 C 0.83625 0.59549 0.76265 0.0
C1496 C 0.85671 0.60491 0.74939 0.0
C1497 C 0.88999 0.66123 0.71722 0.0
C1498 C 0.88375 0.6385 0.72641 0.0
H1499 H 0.7924 0.5637 0.74235 0.0
H1500 H 0.83064 0.57083 0.72805 0.0
H1501 H 0.84647 0.60074 0.7028 0.0
H1502 H 0.86655 0.70456 0.68079 0.0
H1503 H 0.86114 0.66578 0.68879 0.0
C1504 C 0.22 0.02238 0.40182 0.0
C1505 C 0.20272 0.03608 0.39247 0.0
C1506 C 0.21957 0.01278 0.43038 0.0
C1507 C 0.19636 0.02116 0.50583 0.0
H1508 H 0.21411 0.96053 0.51854 0.0
C1509 C 0.18732 0.97558 0.61996 0.0
C1510 C 0.20376 0.96031 0.62727 0.0
C1511 C 0.1877 0.98623 0.59204 0.0
C1512 C 0.20942 0.97759 0.51544 0.0
H1513 H 0.17139 0.05043 0.40496 0.0
H1514 H 0.17049 0.03353 0.45503 0.0
H1515 H 0.21293 0.97528 0.46758 0.0
H1516 H 0.2341 0.94495 0.61271 0.0
H1517 H 0.23525 0.96396 0.56427 0.0
H1518 H 0.19297 0.02349 0.55376 0.0
C1519 C 0.18441 0.03028 0.44042 0.0
C1520 C 0.20866 0.98599 0.48622 0.0
C1521 C 0.18481 0.03977 0.41179 0.0
C1522 C 0.22124 0.95668 0.60727 0.0
C1523 C 0.22173 0.96737 0.57952 0.0
C1524 C 0.19719 0.01277 0.53511 0.0
C1525 C 0.20193 0.01692 0.45014 0.0
C1526 C 0.20217 0.00786 0.48111 0.0
C1527 C 0.20461 0.98174 0.57119 0.0
C1528 C 0.20383 0.99092 0.54024 0.0
H1529 H 0.23421 0.01975 0.38747 0.0
H1530 H 0.23343 0.00277 0.43741 0.0
H1531 H 0.19157 0.03818 0.50258 0.0
H1532 H 0.17364 0.97841 0.63518 0.0
H1533 H 0.17423 0.99713 0.58624 0.0
C1534 C 0.95458 0.17661 0.40394 0.0
C1535 C 0.96028 0.19282 0.38282 0.0
C1536 C 0.96457 0.17629 0.43227 0.0
C1537 C 0.98862 0.21464 0.48573 0.0
H1538 H 0.01003 0.16282 0.52755 0.0
C1539 C 0.03977 0.22051 0.59362 0.0
C1540 C 0.0377 0.20411 0.61563 0.0
C1541 C 0.02849 0.21875 0.56644 0.0
C1542 C 0.00373 0.17737 0.51638 0.0
H1543 H 0.98142 0.22071 0.37377 0.0
H1544 H -0.00094 0.22015 0.42335 0.0
H1545 H 0.99579 0.15936 0.47622 0.0
H1546 H 0.02145 0.17369 0.62766 0.0
H1547 H 0.00111 0.17071 0.57998 0.0
H1548 H 0.9962 0.23267 0.52572 0.0
C1549 C 0.9868 0.20778 0.4181 0.0
C1550 C 0.99576 0.17539 0.48694 0.0
C1551 C 0.97693 0.20796 0.3897 0.0
C1552 C 0.02326 0.18646 0.61081 0.0
C1553 C 0.01186 0.18469 0.5835 0.0
C1554 C 0.99637 0.21658 0.51516 0.0
C1555 C 0.98024 0.19234 0.43993 0.0
C1556 C 0.98847 0.19409 0.47121 0.0
C1557 C 0.01471 0.20063 0.56078 0.0
C1558 C 0.00437 0.19805 0.53068 0.0
H1559 H 0.94166 0.16485 0.39899 0.0
H1560 H 0.95918 0.16427 0.44871 0.0
H1561 H 0.98258 0.22923 0.47437 0.0
H1562 H 0.05075 0.23435 0.59707 0.0
H1563 H 0.0313 0.2312 0.5494 0.0
C1564 C 0.76915 0.96713 0.39545 0.0
C1565 C 0.7849 0.95089 0.38896 0.0
C1566 C 0.76773 0.97608 0.42439 0.0
C1567 C 0.78078 0.96267 0.50314 0.0
H1568 H 0.77102 0.02499 0.51666 0.0
C1569 C 0.7887 0.00504 0.61952 0.0
C1570 C 0.77489 0.02305 0.6253 0.0
C1571 C 0.7879 0.99445 0.59156 0.0
C1572 C 0.77336 0.00747 0.51328 0.0
H1573 H 0.81207 0.93185 0.40679 0.0
H1574 H 0.80977 0.94761 0.45743 0.0
H1575 H 0.77492 0.01125 0.46541 0.0
H1576 H 0.74836 0.04321 0.60807 0.0
H1577 H 0.74643 0.02435 0.5595 0.0
H1578 H 0.7793 0.95892 0.55108 0.0
C1579 C 0.79829 0.95319 0.44038 0.0
C1580 C 0.77569 -0.00036 0.4839 0.0
C1581 C 0.79974 0.94432 0.41144 0.0
C1582 C 0.75918 0.02934 0.60385 0.0
C1583 C 0.75827 0.01871 0.57603 0.0
C1584 C 0.77839 0.9705 0.53257 0.0
C1585 C 0.78201 0.96886 0.4473 0.0
C1586 C 0.77952 0.97718 0.47852 0.0
C1587 C 0.77321 0.00172 0.56913 0.0
C1588 C 0.77469 0.99301 0.53796 0.0
H1589 H 0.75732 0.97219 0.37855 0.0
H1590 H 0.75491 0.98801 0.42911 0.0
H1591 H 0.78336 0.9452 0.49964 0.0
H1592 H 0.80103 0.00012 0.63583 0.0
H1593 H 0.79969 0.98148 0.58692 0.0
C1594 C 0.94369 0.78236 0.58207 0.0
C1595 C 0.94757 0.79603 0.60697 0.0
C1596 C 0.95415 0.78638 0.55475 0.0
C1597 C 0.00164 0.81186 0.51921 0.0
H1598 H 0.96453 0.80998 0.44806 0.0
C1599 C 0.03837 0.82077 0.40045 0.0
C1600 C 0.03142 0.80455 0.38004 0.0
C1601 C 0.02696 0.82411 0.42738 0.0
C1602 C 0.97511 0.81052 0.46768 0.0
H1603 H 0.96635 0.82369 0.6238 0.0
H1604 H 0.9852 0.83064 0.57561 0.0
H1605 H 0.94794 0.80665 0.49787 0.0
H1606 H 0.0068 0.77971 0.37081 0.0
H1607 H 0.98679 0.78542 0.41782 0.0
H1608 H 0.02893 0.81486 0.48901 0.0
C1609 C 0.97376 0.81702 0.57726 0.0
C1610 C 0.96563 0.80863 0.49616 0.0
C1611 C 0.96309 0.81304 0.60472 0.0
C1612 C 0.01225 0.79252 0.3861 0.0
C1613 C 0.00084 0.79582 0.41302 0.0
C1614 C 0.01117 0.81364 0.49065 0.0
C1615 C 0.96891 0.80403 0.55186 0.0
C1616 C 0.97886 0.80871 0.52214 0.0
C1617 C 0.00841 0.81124 0.43432 0.0
C1618 C -0.00195 0.81245 0.46455 0.0
H1619 H 0.93214 0.76881 0.58357 0.0
H1620 H 0.95057 0.77575 0.53576 0.0
H1621 H 0.01219 0.81189 0.53888 0.0
H1622 H 0.05312 0.83027 0.39604 0.0
H1623 H 0.03299 0.83634 0.44311 0.0
C1624 C 0.72613 0.53351 0.90583 0.0
C1625 C 0.70684 0.54203 0.89302 0.0
C1626 C 0.72627 0.5267 0.93586 0.0
C1627 C 0.69613 0.53648 0.00699 0.0
H1628 H 0.73071 0.48704 0.03557 0.0
C1629 C 0.68717 0.49551 0.1237 0.0
C1630 C 0.70632 0.48748 0.13745 0.0
C1631 C 0.68834 0.50576 0.09561 0.0
C1632 C 0.72128 0.50113 0.02796 0.0
H1633 H 0.67249 0.54958 0.9005 0.0
H1634 H 0.67232 0.53679 0.95277 0.0
H1635 H 0.72942 0.49502 0.98185 0.0
H1636 H 0.74173 0.48466 0.13405 0.0
H1637 H 0.74393 0.50281 0.08485 0.0
H1638 H 0.68752 0.5421 0.05321 0.0
C1639 C 0.68748 0.53575 0.93998 0.0
C1640 C 0.72047 0.50566 0.99717 0.0
C1641 C 0.68742 0.54271 0.91 0.0
C1642 C 0.72684 0.49114 0.12392 0.0
C1643 C 0.72803 0.50123 0.09571 0.0
C1644 C 0.69681 0.53183 0.0378 0.0
C1645 C 0.70707 0.5283 0.95353 0.0
C1646 C 0.70779 0.52331 0.98628 0.0
C1647 C 0.70869 0.50779 0.08076 0.0
C1648 C 0.70934 0.51407 0.04856 0.0
H1649 H 0.74138 0.53337 0.89314 0.0
H1650 H 0.74169 0.52128 0.94561 0.0
H1651 H 0.6866 0.55052 -0.00055 0.0
H1652 H 0.67117 0.49236 0.13363 0.0
H1653 H 0.67317 0.5105 0.08453 0.0
C1654 C 0.47363 0.71912 0.8959 0.0
C1655 C 0.47532 0.70155 0.87558 0.0
C1656 C 0.48322 0.71761 0.92434 0.0
C1657 C 0.5226 0.6862 0.97102 0.0
H1658 H 0.48456 0.7055 0.03621 0.0
C1659 C 0.54541 0.67168 0.09526 0.0
C1660 C 0.54351 0.69031 0.11377 0.0
C1661 C 0.53583 0.67154 0.06667 0.0
C1662 C 0.49541 0.70014 0.01825 0.0
H1663 H 0.48883 0.66909 0.86789 0.0
H1664 H 0.50577 0.66628 0.9179 0.0
H1665 H 0.47226 0.7093 0.98424 0.0
H1666 H 0.52983 0.72309 0.11775 0.0
H1667 H 0.51277 0.72285 0.06793 0.0
H1668 H 0.54579 0.67712 0.00515 0.0
C1669 C 0.49726 0.68133 0.91184 0.0
C1670 C 0.48843 0.70241 0.98848 0.0
C1671 C 0.48767 0.6829 0.88328 0.0
C1672 C 0.53109 0.7084 0.10398 0.0
C1673 C 0.52143 0.70825 0.07547 0.0
C1674 C 0.52958 0.68391 0.00084 0.0
C1675 C 0.4945 0.69839 0.93299 0.0
C1676 C 0.50204 0.69569 0.96453 0.0
C1677 C 0.52418 0.69004 0.05622 0.0
C1678 C 0.51612 0.69103 0.02475 0.0
H1679 H 0.46398 0.73357 0.89027 0.0
H1680 H 0.48121 0.73121 0.93992 0.0
H1681 H 0.53349 0.68098 0.95303 0.0
H1682 H 0.55512 0.65765 0.10244 0.0
H1683 H 0.53797 0.65718 0.05246 0.0
C1684 C 0.31847 0.54058 0.09455 0.0
C1685 C 0.29986 0.53798 0.11291 0.0
C1686 C 0.31933 0.53061 0.06622 0.0
C1687 C 0.29302 0.48779 0.01903 0.0
H1688 H 0.31384 0.52369 0.95255 0.0
C1689 C 0.27682 0.46256 0.89739 0.0
C1690 C 0.29502 0.46274 0.87799 0.0
C1691 C 0.27789 0.47308 0.92522 0.0
C1692 C 0.30816 0.51343 0.97093 0.0
H1693 H 0.2677 0.52297 0.11672 0.0
H1694 H 0.26909 0.50541 0.0672 0.0
H1695 H 0.31567 0.538 0.00397 0.0
H1696 H 0.3281 0.47487 0.87112 0.0
H1697 H 0.33008 0.49359 0.92019 0.0
H1698 H 0.28525 0.46337 0.98603 0.0
C1699 C 0.28321 0.5148 0.07474 0.0
C1700 C 0.30928 0.52155 0.00038 0.0
C1701 C 0.28239 0.52477 0.10308 0.0
C1702 C 0.31388 0.47471 0.88586 0.0
C1703 C 0.31497 0.48532 0.91384 0.0
C1704 C 0.29183 0.47974 0.98966 0.0
C1705 C 0.30153 0.51795 0.05576 0.0
C1706 C 0.30153 0.50888 0.02472 0.0
C1707 C 0.29722 0.48396 0.93416 0.0
C1708 C 0.29915 0.49256 0.96528 0.0
H1709 H 0.33203 0.5509 0.10177 0.0
H1710 H 0.33379 0.53309 0.05233 0.0
H1711 H 0.28729 0.47747 0.03731 0.0
H1712 H 0.2621 0.45342 0.89153 0.0
H1713 H 0.26379 0.47217 0.94015 0.0
C1714 C 0.51028 0.25924 0.87845 0.0
C1715 C 0.50812 0.2787 0.86179 0.0
C1716 C 0.5005 0.25751 0.90683 0.0
C1717 C 0.46215 0.2852 0.9603 0.0
H1718 H 0.50351 0.26425 0.02048 0.0
C1719 C 0.45137 0.30619 0.08507 0.0
C1720 C 0.45282 0.28845 0.10513 0.0
C1721 C 0.45845 0.3038 0.05535 0.0
C1722 C 0.49172 0.26995 0.00392 0.0
H1723 H 0.49355 0.31115 0.86035 0.0
H1724 H 0.47635 0.30829 0.90988 0.0
H1725 H 0.51236 0.2604 0.96715 0.0
H1726 H 0.46349 0.25469 0.11078 0.0
H1727 H 0.47637 0.25056 0.05876 0.0
H1728 H 0.44179 0.29527 0.99718 0.0
C1729 C 0.48518 0.29417 0.90111 0.0
C1730 C 0.49668 0.26761 0.97336 0.0
C1731 C 0.49493 0.29584 0.87274 0.0
C1732 C 0.46261 0.26869 0.09569 0.0
C1733 C 0.46982 0.26631 0.06596 0.0
C1734 C 0.45725 0.28764 0.99084 0.0
C1735 C 0.48863 0.27534 0.91899 0.0
C1736 C 0.48208 0.27548 0.9512 0.0
C1737 C 0.46711 0.28362 0.04527 0.0
C1738 C 0.47214 0.28034 0.01294 0.0
H1739 H 0.52076 0.24602 0.87042 0.0
H1740 H 0.50316 0.24267 0.91987 0.0
H1741 H 0.45044 0.29116 0.9438 0.0
H1742 H 0.44367 0.32149 0.09198 0.0
H1743 H 0.45653 0.31754 0.04 0.0
loop_
_geom_bond_atom_site_label_1
_geom_bond_atom_site_label_2
_geom_bond_distance
_geom_bond_site_symmetry_2
_ccdc_geom_bond_type
Co0 O3 1.970 . S
Co0 N17 1.989 . S
Co0 O25 1.967 . S
Co0 O32 1.920 . S
Co1 O4 1.966 . S
Co1 N10 2.022 . S
Co1 N18 1.993 . S
Co1 O26 1.941 . S
C2 O3 1.258 . S
C2 O4 1.263 . S
O3 Co0 1.970 . S
O3 C2 1.258 . S
O4 Co1 1.966 . S
O4 C2 1.263 . S
C5 O6 1.235 . S
C5 O32 1.289 . S
O6 C5 1.235 . S
C7 C9 1.400 . S
C7 N10 1.351 . S
C7 C12 1.501 . S
C8 C9 1.387 . S
C8 N11 1.341 . S
C9 C7 1.400 . S
C9 C8 1.387 . S
N10 Co1 2.022 . S
N10 C7 1.351 . S
N10 N11 1.365 . S
N11 C8 1.341 . S
N11 N10 1.365 . S
N11 H31 0.862 . S
C12 C7 1.501 . S
C12 H13 0.961 . S
C12 H14 0.961 . S
C12 H15 0.960 . S
H13 C12 0.961 . S
H14 C12 0.961 . S
H15 C12 0.960 . S
C16 N17 1.342 . S
C16 C20 1.401 . S
C16 C21 1.499 . S
N17 Co0 1.989 . S
N17 C16 1.342 . S
N17 N18 1.388 . S
N18 Co1 1.993 . S
N18 N17 1.388 . S
N18 C19 1.346 . S
C19 N18 1.346 . S
C19 C20 1.396 . S
C19 C29 1.510 . S
C20 C16 1.401 . S
C20 C19 1.396 . S
C21 C16 1.499 . S
C21 H22 0.959 . S
C21 H23 0.960 . S
C21 H24 0.961 . S
H22 C21 0.959 . S
H23 C21 0.960 . S
H24 C21 0.961 . S
O25 Co0 1.967 . S
O25 C33 1.258 . S
O26 Co1 1.941 . S
O26 C33 1.266 . S
H27 C29 0.959 . S
H28 C29 0.961 . S
C29 C19 1.510 . S
C29 H27 0.959 . S
C29 H28 0.961 . S
C29 H30 0.960 . S
H30 C29 0.960 . S
H31 N11 0.862 . S
O32 Co0 1.920 . S
O32 C5 1.289 . S
C33 O25 1.258 . S
C33 O26 1.266 . S
Co34 O37 1.970 . S
Co34 N51 1.989 . S
Co34 O59 1.967 . S
Co34 O66 1.920 . S
Co35 O38 1.966 . S
Co35 N44 2.022 . S
Co35 N52 1.993 . S
Co35 O60 1.941 . S
C36 O37 1.258 . S
C36 O38 1.263 . S
O37 Co34 1.970 . S
O37 C36 1.258 . S
O38 Co35 1.966 . S
O38 C36 1.263 . S
C39 O40 1.235 . S
C39 O66 1.289 . S
O40 C39 1.235 . S
C41 C43 1.400 . S
C41 N44 1.351 . S
C41 C46 1.501 . S
C42 C43 1.387 . S
C42 N45 1.341 . S
C43 C41 1.400 . S
C43 C42 1.387 . S
N44 Co35 2.022 . S
N44 C41 1.351 . S
N44 N45 1.365 . S
N45 C42 1.341 . S
N45 N44 1.365 . S
N45 H65 0.862 . S
C46 C41 1.501 . S
C46 H47 0.961 . S
C46 H48 0.961 . S
C46 H49 0.960 . S
H47 C46 0.961 . S
H48 C46 0.961 . S
H49 C46 0.960 . S
C50 N51 1.342 . S
C50 C54 1.401 . S
C50 C55 1.499 . S
N51 Co34 1.989 . S
N51 C50 1.342 . S
N51 N52 1.388 . S
N52 Co35 1.993 . S
N52 N51 1.388 . S
N52 C53 1.346 . S
C53 N52 1.346 . S
C53 C54 1.396 . S
C53 C63 1.510 . S
C54 C50 1.401 . S
C54 C53 1.396 . S
C55 C50 1.499 . S
C55 H56 0.959 . S
C55 H57 0.960 . S
C55 H58 0.961 . S
H56 C55 0.959 . S
H57 C55 0.960 . S
H58 C55 0.961 . S
O59 Co34 1.967 . S
O59 C67 1.258 . S
O60 Co35 1.941 . S
O60 C67 1.266 . S
H61 C63 0.959 . S
H62 C63 0.961 . S
C63 C53 1.510 . S
C63 H61 0.959 . S
C63 H62 0.961 . S
C63 H64 0.960 . S
H64 C63 0.960 . S
H65 N45 0.862 . S
O66 Co34 1.920 . S
O66 C39 1.289 . S
C67 O59 1.258 . S
C67 O60 1.266 . S
Co68 O71 1.970 . S
Co68 N85 1.989 . S
Co68 O93 1.967 . S
Co68 O100 1.920 . S
Co69 O72 1.966 . S
Co69 N78 2.022 . S
Co69 N86 1.993 . S
Co69 O94 1.941 . S
C70 O71 1.258 . S
C70 O72 1.263 . S
O71 Co68 1.970 . S
O71 C70 1.258 . S
O72 Co69 1.966 . S
O72 C70 1.263 . S
C73 O74 1.235 . S
C73 O100 1.289 . S
O74 C73 1.235 . S
C75 C77 1.400 . S
C75 N78 1.351 . S
C75 C80 1.501 . S
C76 C77 1.387 . S
C76 N79 1.341 . S
C77 C75 1.400 . S
C77 C76 1.387 . S
N78 Co69 2.022 . S
N78 C75 1.351 . S
N78 N79 1.365 . S
N79 C76 1.341 . S
N79 N78 1.365 . S
N79 H99 0.862 . S
C80 C75 1.501 . S
C80 H81 0.961 . S
C80 H82 0.961 . S
C80 H83 0.960 . S
H81 C80 0.961 . S
H82 C80 0.961 . S
H83 C80 0.960 . S
C84 N85 1.342 . S
C84 C88 1.401 . S
C84 C89 1.499 . S
N85 Co68 1.989 . S
N85 C84 1.342 . S
N85 N86 1.388 . S
N86 Co69 1.993 . S
N86 N85 1.388 . S
N86 C87 1.346 . S
C87 N86 1.346 . S
C87 C88 1.396 . S
C87 C97 1.510 . S
C88 C84 1.401 . S
C88 C87 1.396 . S
C89 C84 1.499 . S
C89 H90 0.959 . S
C89 H91 0.960 . S
C89 H92 0.961 . S
H90 C89 0.959 . S
H91 C89 0.960 . S
H92 C89 0.961 . S
O93 Co68 1.967 . S
O93 C101 1.258 . S
O94 Co69 1.941 . S
O94 C101 1.266 . S
H95 C97 0.959 . S
H96 C97 0.961 . S
C97 C87 1.510 . S
C97 H95 0.959 . S
C97 H96 0.961 . S
C97 H98 0.960 . S
H98 C97 0.960 . S
H99 N79 0.862 . S
O100 Co68 1.920 . S
O100 C73 1.289 . S
C101 O93 1.258 . S
C101 O94 1.266 . S
Co102 O105 1.970 . S
Co102 N119 1.989 . S
Co102 O127 1.967 . S
Co102 O134 1.920 . S
Co103 O106 1.966 . S
Co103 N112 2.022 . S
Co103 N120 1.993 . S
Co103 O128 1.941 . S
C104 O105 1.258 . S
C104 O106 1.263 . S
O105 Co102 1.970 . S
O105 C104 1.258 . S
O106 Co103 1.966 . S
O106 C104 1.263 . S
C107 O108 1.235 . S
C107 O134 1.289 . S
O108 C107 1.235 . S
C109 C111 1.400 . S
C109 N112 1.351 . S
C109 C114 1.501 . S
C110 C111 1.387 . S
C110 N113 1.341 . S
C111 C109 1.400 . S
C111 C110 1.387 . S
N112 Co103 2.022 . S
N112 C109 1.351 . S
N112 N113 1.365 . S
N113 C110 1.341 . S
N113 N112 1.365 . S
N113 H133 0.862 . S
C114 C109 1.501 . S
C114 H115 0.961 . S
C114 H116 0.961 . S
C114 H117 0.960 . S
H115 C114 0.961 . S
H116 C114 0.961 . S
H117 C114 0.960 . S
C118 N119 1.342 . S
C118 C122 1.401 . S
C118 C123 1.499 . S
N119 Co102 1.989 . S
N119 C118 1.342 . S
N119 N120 1.388 . S
N120 Co103 1.993 . S
N120 N119 1.388 . S
N120 C121 1.346 . S
C121 N120 1.346 . S
C121 C122 1.396 . S
C121 C131 1.510 . S
C122 C118 1.401 . S
C122 C121 1.396 . S
C123 C118 1.499 . S
C123 H124 0.959 . S
C123 H125 0.960 . S
C123 H126 0.961 . S
H124 C123 0.959 . S
H125 C123 0.960 . S
H126 C123 0.961 . S
O127 Co102 1.967 . S
O127 C135 1.258 . S
O128 Co103 1.941 . S
O128 C135 1.266 . S
H129 C131 0.959 . S
H130 C131 0.961 . S
C131 C121 1.510 . S
C131 H129 0.959 . S
C131 H130 0.961 . S
C131 H132 0.960 . S
H132 C131 0.960 . S
H133 N113 0.862 . S
O134 Co102 1.920 . S
O134 C107 1.289 . S
C135 O127 1.258 . S
C135 O128 1.266 . S
Co136 O139 1.970 . S
Co136 N153 1.989 . S
Co136 O161 1.967 . S
Co136 O168 1.920 . S
Co137 O140 1.966 . S
Co137 N146 2.022 . S
Co137 N154 1.993 . S
Co137 O162 1.941 . S
C138 O139 1.258 . S
C138 O140 1.263 . S
O139 Co136 1.970 . S
O139 C138 1.258 . S
O140 Co137 1.966 . S
O140 C138 1.263 . S
C141 O142 1.235 . S
C141 O168 1.289 . S
O142 C141 1.235 . S
C143 C145 1.400 . S
C143 N146 1.351 . S
C143 C148 1.501 . S
C144 C145 1.387 . S
C144 N147 1.341 . S
C145 C143 1.400 . S
C145 C144 1.387 . S
N146 Co137 2.022 . S
N146 C143 1.351 . S
N146 N147 1.365 . S
N147 C144 1.341 . S
N147 N146 1.365 . S
N147 H167 0.862 . S
C148 C143 1.501 . S
C148 H149 0.961 . S
C148 H150 0.961 . S
C148 H151 0.960 . S
H149 C148 0.961 . S
H150 C148 0.961 . S
H151 C148 0.960 . S
C152 N153 1.342 . S
C152 C156 1.401 . S
C152 C157 1.499 . S
N153 Co136 1.989 . S
N153 C152 1.342 . S
N153 N154 1.388 . S
N154 Co137 1.993 . S
N154 N153 1.388 . S
N154 C155 1.346 . S
C155 N154 1.346 . S
C155 C156 1.396 . S
C155 C165 1.510 . S
C156 C152 1.401 . S
C156 C155 1.396 . S
C157 C152 1.499 . S
C157 H158 0.959 . S
C157 H159 0.960 . S
C157 H160 0.961 . S
H158 C157 0.959 . S
H159 C157 0.960 . S
H160 C157 0.961 . S
O161 Co136 1.967 . S
O161 C169 1.258 . S
O162 Co137 1.941 . S
O162 C169 1.266 . S
H163 C165 0.959 . S
H164 C165 0.961 . S
C165 C155 1.510 . S
C165 H163 0.959 . S
C165 H164 0.961 . S
C165 H166 0.960 . S
H166 C165 0.960 . S
H167 N147 0.862 . S
O168 Co136 1.920 . S
O168 C141 1.289 . S
C169 O161 1.258 . S
C169 O162 1.266 . S
Co170 O173 1.970 . S
Co170 N187 1.989 . S
Co170 O195 1.967 . S
Co170 O202 1.920 . S
Co171 O174 1.966 . S
Co171 N180 2.022 . S
Co171 N188 1.993 . S
Co171 O196 1.941 . S
C172 O173 1.258 . S
C172 O174 1.263 . S
O173 Co170 1.970 . S
O173 C172 1.258 . S
O174 Co171 1.966 . S
O174 C172 1.263 . S
C175 O176 1.235 . S
C175 O202 1.289 . S
O176 C175 1.235 . S
C177 C179 1.400 . S
C177 N180 1.351 . S
C177 C182 1.501 . S
C178 C179 1.387 . S
C178 N181 1.341 . S
C179 C177 1.400 . S
C179 C178 1.387 . S
N180 Co171 2.022 . S
N180 C177 1.351 . S
N180 N181 1.365 . S
N181 C178 1.341 . S
N181 N180 1.365 . S
N181 H201 0.862 . S
C182 C177 1.501 . S
C182 H183 0.961 . S
C182 H184 0.961 . S
C182 H185 0.960 . S
H183 C182 0.961 . S
H184 C182 0.961 . S
H185 C182 0.960 . S
C186 N187 1.342 . S
C186 C190 1.401 . S
C186 C191 1.499 . S
N187 Co170 1.989 . S
N187 C186 1.342 . S
N187 N188 1.388 . S
N188 Co171 1.993 . S
N188 N187 1.388 . S
N188 C189 1.346 . S
C189 N188 1.346 . S
C189 C190 1.396 . S
C189 C199 1.510 . S
C190 C186 1.401 . S
C190 C189 1.396 . S
C191 C186 1.499 . S
C191 H192 0.959 . S
C191 H193 0.960 . S
C191 H194 0.961 . S
H192 C191 0.959 . S
H193 C191 0.960 . S
H194 C191 0.961 . S
O195 Co170 1.967 . S
O195 C203 1.258 . S
O196 Co171 1.941 . S
O196 C203 1.266 . S
H197 C199 0.959 . S
H198 C199 0.961 . S
C199 C189 1.510 . S
C199 H197 0.959 . S
C199 H198 0.961 . S
C199 H200 0.960 . S
H200 C199 0.960 . S
H201 N181 0.862 . S
O202 Co170 1.920 . S
O202 C175 1.289 . S
C203 O195 1.258 . S
C203 O196 1.266 . S
Co204 O207 1.970 . S
Co204 N221 1.989 . S
Co204 O229 1.967 . S
Co204 O236 1.920 . S
Co205 O208 1.966 . S
Co205 N214 2.022 . S
Co205 N222 1.993 . S
Co205 O230 1.941 . S
C206 O207 1.258 . S
C206 O208 1.263 . S
O207 Co204 1.970 . S
O207 C206 1.258 . S
O208 Co205 1.966 . S
O208 C206 1.263 . S
C209 O210 1.235 . S
C209 O236 1.289 . S
O210 C209 1.235 . S
C211 C213 1.400 . S
C211 N214 1.351 . S
C211 C216 1.501 . S
C212 C213 1.387 . S
C212 N215 1.341 . S
C213 C211 1.400 . S
C213 C212 1.387 . S
N214 Co205 2.022 . S
N214 C211 1.351 . S
N214 N215 1.365 . S
N215 C212 1.341 . S
N215 N214 1.365 . S
N215 H235 0.862 . S
C216 C211 1.501 . S
C216 H217 0.961 . S
C216 H218 0.961 . S
C216 H219 0.960 . S
H217 C216 0.961 . S
H218 C216 0.961 . S
H219 C216 0.960 . S
C220 N221 1.342 . S
C220 C224 1.401 . S
C220 C225 1.499 . S
N221 Co204 1.989 . S
N221 C220 1.342 . S
N221 N222 1.388 . S
N222 Co205 1.993 . S
N222 N221 1.388 . S
N222 C223 1.346 . S
C223 N222 1.346 . S
C223 C224 1.396 . S
C223 C233 1.510 . S
C224 C220 1.401 . S
C224 C223 1.396 . S
C225 C220 1.499 . S
C225 H226 0.959 . S
C225 H227 0.960 . S
C225 H228 0.961 . S
H226 C225 0.959 . S
H227 C225 0.960 . S
H228 C225 0.961 . S
O229 Co204 1.967 . S
O229 C237 1.258 . S
O230 Co205 1.941 . S
O230 C237 1.266 . S
H231 C233 0.959 . S
H232 C233 0.961 . S
C233 C223 1.510 . S
C233 H231 0.959 . S
C233 H232 0.961 . S
C233 H234 0.960 . S
H234 C233 0.960 . S
H235 N215 0.862 . S
O236 Co204 1.920 . S
O236 C209 1.289 . S
C237 O229 1.258 . S
C237 O230 1.266 . S
Co238 O241 1.970 . S
Co238 N255 1.989 . S
Co238 O263 1.967 . S
Co238 O270 1.920 . S
Co239 O242 1.966 . S
Co239 N248 2.022 . S
Co239 N256 1.993 . S
Co239 O264 1.941 . S
C240 O241 1.258 . S
C240 O242 1.263 . S
O241 Co238 1.970 . S
O241 C240 1.258 . S
O242 Co239 1.966 . S
O242 C240 1.263 . S
C243 O244 1.235 . S
C243 O270 1.289 . S
O244 C243 1.235 . S
C245 C247 1.400 . S
C245 N248 1.351 . S
C245 C250 1.501 . S
C246 C247 1.387 . S
C246 N249 1.341 . S
C247 C245 1.400 . S
C247 C246 1.387 . S
N248 Co239 2.022 . S
N248 C245 1.351 . S
N248 N249 1.365 . S
N249 C246 1.341 . S
N249 N248 1.365 . S
N249 H269 0.862 . S
C250 C245 1.501 . S
C250 H251 0.961 . S
C250 H252 0.961 . S
C250 H253 0.960 . S
H251 C250 0.961 . S
H252 C250 0.961 . S
H253 C250 0.960 . S
C254 N255 1.342 . S
C254 C258 1.401 . S
C254 C259 1.499 . S
N255 Co238 1.989 . S
N255 C254 1.342 . S
N255 N256 1.388 . S
N256 Co239 1.993 . S
N256 N255 1.388 . S
N256 C257 1.346 . S
C257 N256 1.346 . S
C257 C258 1.396 . S
C257 C267 1.510 . S
C258 C254 1.401 . S
C258 C257 1.396 . S
C259 C254 1.499 . S
C259 H260 0.959 . S
C259 H261 0.960 . S
C259 H262 0.961 . S
H260 C259 0.959 . S
H261 C259 0.960 . S
H262 C259 0.961 . S
O263 Co238 1.967 . S
O263 C271 1.258 . S
O264 Co239 1.941 . S
O264 C271 1.266 . S
H265 C267 0.959 . S
H266 C267 0.961 . S
C267 C257 1.510 . S
C267 H265 0.959 . S
C267 H266 0.961 . S
C267 H268 0.960 . S
H268 C267 0.960 . S
H269 N249 0.862 . S
O270 Co238 1.920 . S
O270 C243 1.289 . S
C271 O263 1.258 . S
C271 O264 1.266 . S
Co272 O275 1.970 . S
Co272 N289 1.989 . S
Co272 O297 1.967 . S
Co272 O304 1.920 . S
Co273 O276 1.966 . S
Co273 N282 2.022 . S
Co273 N290 1.993 . S
Co273 O298 1.941 . S
C274 O275 1.258 . S
C274 O276 1.263 . S
O275 Co272 1.970 . S
O275 C274 1.258 . S
O276 Co273 1.966 . S
O276 C274 1.263 . S
C277 O278 1.235 . S
C277 O304 1.289 . S
O278 C277 1.235 . S
C279 C281 1.400 . S
C279 N282 1.351 . S
C279 C284 1.501 . S
C280 C281 1.387 . S
C280 N283 1.341 . S
C281 C279 1.400 . S
C281 C280 1.387 . S
N282 Co273 2.022 . S
N282 C279 1.351 . S
N282 N283 1.365 . S
N283 C280 1.341 . S
N283 N282 1.365 . S
N283 H303 0.862 . S
C284 C279 1.501 . S
C284 H285 0.961 . S
C284 H286 0.961 . S
C284 H287 0.960 . S
H285 C284 0.961 . S
H286 C284 0.961 . S
H287 C284 0.960 . S
C288 N289 1.342 . S
C288 C292 1.401 . S
C288 C293 1.499 . S
N289 Co272 1.989 . S
N289 C288 1.342 . S
N289 N290 1.388 . S
N290 Co273 1.993 . S
N290 N289 1.388 . S
N290 C291 1.346 . S
C291 N290 1.346 . S
C291 C292 1.396 . S
C291 C301 1.510 . S
C292 C288 1.401 . S
C292 C291 1.396 . S
C293 C288 1.499 . S
C293 H294 0.959 . S
C293 H295 0.960 . S
C293 H296 0.961 . S
H294 C293 0.959 . S
H295 C293 0.960 . S
H296 C293 0.961 . S
O297 Co272 1.967 . S
O297 C305 1.258 . S
O298 Co273 1.941 . S
O298 C305 1.266 . S
H299 C301 0.959 . S
H300 C301 0.961 . S
C301 C291 1.510 . S
C301 H299 0.959 . S
C301 H300 0.961 . S
C301 H302 0.960 . S
H302 C301 0.960 . S
H303 N283 0.862 . S
O304 Co272 1.920 . S
O304 C277 1.289 . S
C305 O297 1.258 . S
C305 O298 1.266 . S
Co306 O309 1.970 . S
Co306 N323 1.989 . S
Co306 O331 1.967 . S
Co306 O338 1.920 . S
Co307 O310 1.966 . S
Co307 N316 2.022 . S
Co307 N324 1.993 . S
Co307 O332 1.941 . S
C308 O309 1.258 . S
C308 O310 1.263 . S
O309 Co306 1.970 . S
O309 C308 1.258 . S
O310 Co307 1.966 . S
O310 C308 1.263 . S
C311 O312 1.235 . S
C311 O338 1.289 . S
O312 C311 1.235 . S
C313 C315 1.400 . S
C313 N316 1.351 . S
C313 C318 1.501 . S
C314 C315 1.387 . S
C314 N317 1.341 . S
C315 C313 1.400 . S
C315 C314 1.387 . S
N316 Co307 2.022 . S
N316 C313 1.351 . S
N316 N317 1.365 . S
N317 C314 1.341 . S
N317 N316 1.365 . S
N317 H337 0.862 . S
C318 C313 1.501 . S
C318 H319 0.961 . S
C318 H320 0.961 . S
C318 H321 0.960 . S
H319 C318 0.961 . S
H320 C318 0.961 . S
H321 C318 0.960 . S
C322 N323 1.342 . S
C322 C326 1.401 . S
C322 C327 1.499 . S
N323 Co306 1.989 . S
N323 C322 1.342 . S
N323 N324 1.388 . S
N324 Co307 1.993 . S
N324 N323 1.388 . S
N324 C325 1.346 . S
C325 N324 1.346 . S
C325 C326 1.396 . S
C325 C335 1.510 . S
C326 C322 1.401 . S
C326 C325 1.396 . S
C327 C322 1.499 . S
C327 H328 0.959 . S
C327 H329 0.960 . S
C327 H330 0.961 . S
H328 C327 0.959 . S
H329 C327 0.960 . S
H330 C327 0.961 . S
O331 Co306 1.967 . S
O331 C339 1.258 . S
O332 Co307 1.941 . S
O332 C339 1.266 . S
H333 C335 0.959 . S
H334 C335 0.961 . S
C335 C325 1.510 . S
C335 H333 0.959 . S
C335 H334 0.961 . S
C335 H336 0.960 . S
H336 C335 0.960 . S
H337 N317 0.862 . S
O338 Co306 1.920 . S
O338 C311 1.289 . S
C339 O331 1.258 . S
C339 O332 1.266 . S
Co340 O343 1.970 . S
Co340 N357 1.989 . S
Co340 O365 1.967 . S
Co340 O372 1.920 . S
Co341 O344 1.966 . S
Co341 N350 2.022 . S
Co341 N358 1.993 . S
Co341 O366 1.941 . S
C342 O343 1.258 . S
C342 O344 1.263 . S
O343 Co340 1.970 . S
O343 C342 1.258 . S
O344 Co341 1.966 . S
O344 C342 1.263 . S
C345 O346 1.235 . S
C345 O372 1.289 . S
O346 C345 1.235 . S
C347 C349 1.400 . S
C347 N350 1.351 . S
C347 C352 1.501 . S
C348 C349 1.387 . S
C348 N351 1.341 . S
C349 C347 1.400 . S
C349 C348 1.387 . S
N350 Co341 2.022 . S
N350 C347 1.351 . S
N350 N351 1.365 . S
N351 C348 1.341 . S
N351 N350 1.365 . S
N351 H371 0.862 . S
C352 C347 1.501 . S
C352 H353 0.961 . S
C352 H354 0.961 . S
C352 H355 0.960 . S
H353 C352 0.961 . S
H354 C352 0.961 . S
H355 C352 0.960 . S
C356 N357 1.342 . S
C356 C360 1.401 . S
C356 C361 1.499 . S
N357 Co340 1.989 . S
N357 C356 1.342 . S
N357 N358 1.388 . S
N358 Co341 1.993 . S
N358 N357 1.388 . S
N358 C359 1.346 . S
C359 N358 1.346 . S
C359 C360 1.396 . S
C359 C369 1.510 . S
C360 C356 1.401 . S
C360 C359 1.396 . S
C361 C356 1.499 . S
C361 H362 0.959 . S
C361 H363 0.960 . S
C361 H364 0.961 . S
H362 C361 0.959 . S
H363 C361 0.960 . S
H364 C361 0.961 . S
O365 Co340 1.967 . S
O365 C373 1.258 . S
O366 Co341 1.941 . S
O366 C373 1.266 . S
H367 C369 0.959 . S
H368 C369 0.961 . S
C369 C359 1.510 . S
C369 H367 0.959 . S
C369 H368 0.961 . S
C369 H370 0.960 . S
H370 C369 0.960 . S
H371 N351 0.862 . S
O372 Co340 1.920 . S
O372 C345 1.289 . S
C373 O365 1.258 . S
C373 O366 1.266 . S
Co374 O377 1.970 . S
Co374 N391 1.989 . S
Co374 O399 1.967 . S
Co374 O406 1.920 . S
Co375 O378 1.966 . S
Co375 N384 2.022 . S
Co375 N392 1.993 . S
Co375 O400 1.941 . S
C376 O377 1.258 . S
C376 O378 1.263 . S
O377 Co374 1.970 . S
O377 C376 1.258 . S
O378 Co375 1.966 . S
O378 C376 1.263 . S
C379 O380 1.235 . S
C379 O406 1.289 . S
O380 C379 1.235 . S
C381 C383 1.400 . S
C381 N384 1.351 . S
C381 C386 1.501 . S
C382 C383 1.387 . S
C382 N385 1.341 . S
C383 C381 1.400 . S
C383 C382 1.387 . S
N384 Co375 2.022 . S
N384 C381 1.351 . S
N384 N385 1.365 . S
N385 C382 1.341 . S
N385 N384 1.365 . S
N385 H405 0.862 . S
C386 C381 1.501 . S
C386 H387 0.961 . S
C386 H388 0.961 . S
C386 H389 0.960 . S
H387 C386 0.961 . S
H388 C386 0.961 . S
H389 C386 0.960 . S
C390 N391 1.342 . S
C390 C394 1.401 . S
C390 C395 1.499 . S
N391 Co374 1.989 . S
N391 C390 1.342 . S
N391 N392 1.388 . S
N392 Co375 1.993 . S
N392 N391 1.388 . S
N392 C393 1.346 . S
C393 N392 1.346 . S
C393 C394 1.396 . S
C393 C403 1.510 . S
C394 C390 1.401 . S
C394 C393 1.396 . S
C395 C390 1.499 . S
C395 H396 0.959 . S
C395 H397 0.960 . S
C395 H398 0.961 . S
H396 C395 0.959 . S
H397 C395 0.960 . S
H398 C395 0.961 . S
O399 Co374 1.967 . S
O399 C407 1.258 . S
O400 Co375 1.941 . S
O400 C407 1.266 . S
H401 C403 0.959 . S
H402 C403 0.961 . S
C403 C393 1.510 . S
C403 H401 0.959 . S
C403 H402 0.961 . S
C403 H404 0.960 . S
H404 C403 0.960 . S
H405 N385 0.862 . S
O406 Co374 1.920 . S
O406 C379 1.289 . S
C407 O399 1.258 . S
C407 O400 1.266 . S
Co408 O411 1.970 . S
Co408 N425 1.989 . S
Co408 O433 1.967 . S
Co408 O440 1.920 . S
Co409 O412 1.966 . S
Co409 N418 2.022 . S
Co409 N426 1.993 . S
Co409 O434 1.941 . S
C410 O411 1.258 . S
C410 O412 1.263 . S
O411 Co408 1.970 . S
O411 C410 1.258 . S
O412 Co409 1.966 . S
O412 C410 1.263 . S
C413 O414 1.235 . S
C413 O440 1.289 . S
O414 C413 1.235 . S
C415 C417 1.400 . S
C415 N418 1.351 . S
C415 C420 1.501 . S
C416 C417 1.387 . S
C416 N419 1.341 . S
C417 C415 1.400 . S
C417 C416 1.387 . S
N418 Co409 2.022 . S
N418 C415 1.351 . S
N418 N419 1.365 . S
N419 C416 1.341 . S
N419 N418 1.365 . S
N419 H439 0.862 . S
C420 C415 1.501 . S
C420 H421 0.961 . S
C420 H422 0.961 . S
C420 H423 0.960 . S
H421 C420 0.961 . S
H422 C420 0.961 . S
H423 C420 0.960 . S
C424 N425 1.342 . S
C424 C428 1.401 . S
C424 C429 1.499 . S
N425 Co408 1.989 . S
N425 C424 1.342 . S
N425 N426 1.388 . S
N426 Co409 1.993 . S
N426 N425 1.388 . S
N426 C427 1.346 . S
C427 N426 1.346 . S
C427 C428 1.396 . S
C427 C437 1.510 . S
C428 C424 1.401 . S
C428 C427 1.396 . S
C429 C424 1.499 . S
C429 H430 0.959 . S
C429 H431 0.960 . S
C429 H432 0.961 . S
H430 C429 0.959 . S
H431 C429 0.960 . S
H432 C429 0.961 . S
O433 Co408 1.967 . S
O433 C441 1.258 . S
O434 Co409 1.941 . S
O434 C441 1.266 . S
H435 C437 0.959 . S
H436 C437 0.961 . S
C437 C427 1.510 . S
C437 H435 0.959 . S
C437 H436 0.961 . S
C437 H438 0.960 . S
H438 C437 0.960 . S
H439 N419 0.862 . S
O440 Co408 1.920 . S
O440 C413 1.289 . S
C441 O433 1.258 . S
C441 O434 1.266 . S
Co442 O445 1.970 . S
Co442 N459 1.989 . S
Co442 O467 1.967 . S
Co442 O474 1.920 . S
Co443 O446 1.966 . S
Co443 N452 2.022 . S
Co443 N460 1.993 . S
Co443 O468 1.941 . S
C444 O445 1.258 . S
C444 O446 1.263 . S
O445 Co442 1.970 . S
O445 C444 1.258 . S
O446 Co443 1.966 . S
O446 C444 1.263 . S
C447 O448 1.235 . S
C447 O474 1.289 . S
O448 C447 1.235 . S
C449 C451 1.400 . S
C449 N452 1.351 . S
C449 C454 1.501 . S
C450 C451 1.387 . S
C450 N453 1.341 . S
C451 C449 1.400 . S
C451 C450 1.387 . S
N452 Co443 2.022 . S
N452 C449 1.351 . S
N452 N453 1.365 . S
N453 C450 1.341 . S
N453 N452 1.365 . S
N453 H473 0.862 . S
C454 C449 1.501 . S
C454 H455 0.961 . S
C454 H456 0.961 . S
C454 H457 0.960 . S
H455 C454 0.961 . S
H456 C454 0.961 . S
H457 C454 0.960 . S
C458 N459 1.342 . S
C458 C462 1.401 . S
C458 C463 1.499 . S
N459 Co442 1.989 . S
N459 C458 1.342 . S
N459 N460 1.388 . S
N460 Co443 1.993 . S
N460 N459 1.388 . S
N460 C461 1.346 . S
C461 N460 1.346 . S
C461 C462 1.396 . S
C461 C471 1.510 . S
C462 C458 1.401 . S
C462 C461 1.396 . S
C463 C458 1.499 . S
C463 H464 0.959 . S
C463 H465 0.960 . S
C463 H466 0.961 . S
H464 C463 0.959 . S
H465 C463 0.960 . S
H466 C463 0.961 . S
O467 Co442 1.967 . S
O467 C475 1.258 . S
O468 Co443 1.941 . S
O468 C475 1.266 . S
H469 C471 0.959 . S
H470 C471 0.961 . S
C471 C461 1.510 . S
C471 H469 0.959 . S
C471 H470 0.961 . S
C471 H472 0.960 . S
H472 C471 0.960 . S
H473 N453 0.862 . S
O474 Co442 1.920 . S
O474 C447 1.289 . S
C475 O467 1.258 . S
C475 O468 1.266 . S
Co476 O479 1.970 . S
Co476 N493 1.989 . S
Co476 O501 1.967 . S
Co476 O508 1.920 . S
Co477 O480 1.966 . S
Co477 N486 2.022 . S
Co477 N494 1.993 . S
Co477 O502 1.941 . S
C478 O479 1.258 . S
C478 O480 1.263 . S
O479 Co476 1.970 . S
O479 C478 1.258 . S
O480 Co477 1.966 . S
O480 C478 1.263 . S
C481 O482 1.235 . S
C481 O508 1.289 . S
O482 C481 1.235 . S
C483 C485 1.400 . S
C483 N486 1.351 . S
C483 C488 1.501 . S
C484 C485 1.387 . S
C484 N487 1.341 . S
C485 C483 1.400 . S
C485 C484 1.387 . S
N486 Co477 2.022 . S
N486 C483 1.351 . S
N486 N487 1.365 . S
N487 C484 1.341 . S
N487 N486 1.365 . S
N487 H507 0.862 . S
C488 C483 1.501 . S
C488 H489 0.961 . S
C488 H490 0.961 . S
C488 H491 0.960 . S
H489 C488 0.961 . S
H490 C488 0.961 . S
H491 C488 0.960 . S
C492 N493 1.342 . S
C492 C496 1.401 . S
C492 C497 1.499 . S
N493 Co476 1.989 . S
N493 C492 1.342 . S
N493 N494 1.388 . S
N494 Co477 1.993 . S
N494 N493 1.388 . S
N494 C495 1.346 . S
C495 N494 1.346 . S
C495 C496 1.396 . S
C495 C505 1.510 . S
C496 C492 1.401 . S
C496 C495 1.396 . S
C497 C492 1.499 . S
C497 H498 0.959 . S
C497 H499 0.960 . S
C497 H500 0.961 . S
H498 C497 0.959 . S
H499 C497 0.960 . S
H500 C497 0.961 . S
O501 Co476 1.967 . S
O501 C509 1.258 . S
O502 Co477 1.941 . S
O502 C509 1.266 . S
H503 C505 0.959 . S
H504 C505 0.961 . S
C505 C495 1.510 . S
C505 H503 0.959 . S
C505 H504 0.961 . S
C505 H506 0.960 . S
H506 C505 0.960 . S
H507 N487 0.862 . S
O508 Co476 1.920 . S
O508 C481 1.289 . S
C509 O501 1.258 . S
C509 O502 1.266 . S
Co510 O513 1.970 . S
Co510 N527 1.989 . S
Co510 O535 1.967 . S
Co510 O542 1.920 . S
Co511 O514 1.966 . S
Co511 N520 2.022 . S
Co511 N528 1.993 . S
Co511 O536 1.941 . S
C512 O513 1.258 . S
C512 O514 1.263 . S
O513 Co510 1.970 . S
O513 C512 1.258 . S
O514 Co511 1.966 . S
O514 C512 1.263 . S
C515 O516 1.235 . S
C515 O542 1.289 . S
O516 C515 1.235 . S
C517 C519 1.400 . S
C517 N520 1.351 . S
C517 C522 1.501 . S
C518 C519 1.387 . S
C518 N521 1.341 . S
C519 C517 1.400 . S
C519 C518 1.387 . S
N520 Co511 2.022 . S
N520 C517 1.351 . S
N520 N521 1.365 . S
N521 C518 1.341 . S
N521 N520 1.365 . S
N521 H541 0.862 . S
C522 C517 1.501 . S
C522 H523 0.961 . S
C522 H524 0.961 . S
C522 H525 0.960 . S
H523 C522 0.961 . S
H524 C522 0.961 . S
H525 C522 0.960 . S
C526 N527 1.342 . S
C526 C530 1.401 . S
C526 C531 1.499 . S
N527 Co510 1.989 . S
N527 C526 1.342 . S
N527 N528 1.388 . S
N528 Co511 1.993 . S
N528 N527 1.388 . S
N528 C529 1.346 . S
C529 N528 1.346 . S
C529 C530 1.396 . S
C529 C539 1.510 . S
C530 C526 1.401 . S
C530 C529 1.396 . S
C531 C526 1.499 . S
C531 H532 0.959 . S
C531 H533 0.960 . S
C531 H534 0.961 . S
H532 C531 0.959 . S
H533 C531 0.960 . S
H534 C531 0.961 . S
O535 Co510 1.967 . S
O535 C543 1.258 . S
O536 Co511 1.941 . S
O536 C543 1.266 . S
H537 C539 0.959 . S
H538 C539 0.961 . S
C539 C529 1.510 . S
C539 H537 0.959 . S
C539 H538 0.961 . S
C539 H540 0.960 . S
H540 C539 0.960 . S
H541 N521 0.862 . S
O542 Co510 1.920 . S
O542 C515 1.289 . S
C543 O535 1.258 . S
C543 O536 1.266 . S
C544 C545 1.349 . S
C544 C546 1.327 . S
C544 H569 0.950 . S
C545 C544 1.349 . S
C545 C561 1.349 . S
C546 C544 1.327 . S
C546 C565 1.429 . S
C546 H570 0.950 . S
C547 C564 1.574 . S
C547 C566 1.368 . S
C547 H571 0.949 . S
H548 C552 0.949 . S
C549 C550 1.349 . S
C549 C551 1.327 . S
C549 H572 0.950 . S
C550 C549 1.349 . S
C550 C562 1.349 . S
C551 C549 1.327 . S
C551 C567 1.429 . S
C551 H573 0.950 . S
C552 H548 0.949 . S
C552 C560 1.574 . S
C552 C568 1.368 . S
H553 C561 0.950 . S
H554 C559 0.950 . S
H555 C560 0.949 . S
H556 C562 0.950 . S
H557 C563 0.950 . S
H558 C564 0.949 . S
C559 H554 0.950 . S
C559 C561 1.327 . S
C559 C565 1.429 . S
C560 C552 1.574 . S
C560 H555 0.949 . S
C560 C566 1.368 . S
C561 C545 1.349 . S
C561 H553 0.950 . S
C561 C559 1.327 . S
C562 C550 1.349 . S
C562 H556 0.950 . S
C562 C563 1.327 . S
C563 H557 0.950 . S
C563 C562 1.327 . S
C563 C567 1.429 . S
C564 C547 1.574 . S
C564 H558 0.949 . S
C564 C568 1.368 . S
C565 C546 1.429 . S
C565 C559 1.429 . S
C565 C566 1.523 . S
C566 C547 1.368 . S
C566 C560 1.368 . S
C566 C565 1.523 . S
C567 C551 1.429 . S
C567 C563 1.429 . S
C567 C568 1.523 . S
C568 C552 1.368 . S
C568 C564 1.368 . S
C568 C567 1.523 . S
H569 C544 0.950 . S
H570 C546 0.950 . S
H571 C547 0.949 . S
H572 C549 0.950 . S
H573 C551 0.950 . S
C574 C575 1.349 . S
C574 C576 1.327 . S
C574 H599 0.950 . S
C575 C574 1.349 . S
C575 C591 1.349 . S
C576 C574 1.327 . S
C576 C595 1.429 . S
C576 H600 0.950 . S
C577 C594 1.574 . S
C577 C596 1.368 . S
C577 H601 0.949 . S
H578 C582 0.949 . S
C579 C580 1.349 . S
C579 C581 1.327 . S
C579 H602 0.950 . S
C580 C579 1.349 . S
C580 C592 1.349 . S
C581 C579 1.327 . S
C581 C597 1.429 . S
C581 H603 0.950 . S
C582 H578 0.949 . S
C582 C590 1.574 . S
C582 C598 1.368 . S
H583 C591 0.950 . S
H584 C589 0.950 . S
H585 C590 0.949 . S
H586 C592 0.945 1_655 S
H587 C593 0.950 . S
H588 C594 0.949 . S
C589 H584 0.950 . S
C589 C591 1.327 . S
C589 C595 1.429 . S
C590 C582 1.574 . S
C590 H585 0.949 . S
C590 C596 1.368 . S
C591 C575 1.349 . S
C591 H583 0.950 . S
C591 C589 1.327 . S
C592 C580 1.349 . S
C592 H586 0.945 1_455 S
C592 C593 1.327 . S
C593 H587 0.950 . S
C593 C592 1.327 . S
C593 C597 1.429 . S
C594 C577 1.574 . S
C594 H588 0.949 . S
C594 C598 1.368 . S
C595 C576 1.429 . S
C595 C589 1.429 . S
C595 C596 1.523 . S
C596 C577 1.368 . S
C596 C590 1.368 . S
C596 C595 1.523 . S
C597 C581 1.429 . S
C597 C593 1.429 . S
C597 C598 1.523 . S
C598 C582 1.368 . S
C598 C594 1.368 . S
C598 C597 1.523 . S
H599 C574 0.950 . S
H600 C576 0.950 . S
H601 C577 0.949 . S
H602 C579 0.950 . S
H603 C581 0.950 . S
C604 C605 1.349 . S
C604 C606 1.327 . S
C604 H629 0.950 . S
C605 C604 1.349 . S
C605 C621 1.349 . S
C606 C604 1.327 . S
C606 C625 1.429 . S
C606 H630 0.950 . S
C607 C624 1.574 . S
C607 C626 1.368 . S
C607 H631 0.949 . S
H608 C612 0.949 . S
C609 C610 1.349 . S
C609 C611 1.327 . S
C609 H632 0.950 . S
C610 C609 1.349 . S
C610 C622 1.349 . S
C611 C609 1.327 . S
C611 C627 1.429 . S
C611 H633 0.950 . S
C612 H608 0.949 . S
C612 C620 1.574 . S
C612 C628 1.368 . S
H613 C621 0.950 . S
H614 C619 0.950 . S
H615 C620 0.949 . S
H616 C622 0.950 . S
H617 C623 0.950 . S
H618 C624 0.949 . S
C619 H614 0.950 . S
C619 C621 1.327 . S
C619 C625 1.429 . S
C620 C612 1.574 . S
C620 H615 0.949 . S
C620 C626 1.368 . S
C621 C605 1.349 . S
C621 H613 0.950 . S
C621 C619 1.327 . S
C622 C610 1.349 . S
C622 H616 0.950 . S
C622 C623 1.327 . S
C623 H617 0.950 . S
C623 C622 1.327 . S
C623 C627 1.429 . S
C624 C607 1.574 . S
C624 H618 0.949 . S
C624 C628 1.368 . S
C625 C606 1.429 . S
C625 C619 1.429 . S
C625 C626 1.523 . S
C626 C607 1.368 . S
C626 C620 1.368 . S
C626 C625 1.523 . S
C627 C611 1.429 . S
C627 C623 1.429 . S
C627 C628 1.523 . S
C628 C612 1.368 . S
C628 C624 1.368 . S
C628 C627 1.523 . S
H629 C604 0.950 . S
H630 C606 0.950 . S
H631 C607 0.949 . S
H632 C609 0.950 . S
H633 C611 0.950 . S
C634 C635 1.349 . S
C634 C636 1.327 . S
C634 H659 0.950 . S
C635 C634 1.349 . S
C635 C651 1.349 . S
C636 C634 1.327 . S
C636 C655 1.429 . S
C636 H660 0.950 . S
C637 C654 1.574 . S
C637 C656 1.368 . S
C637 H661 0.949 . S
H638 C642 0.949 . S
C639 C640 1.349 . S
C639 C641 1.327 . S
C639 H662 0.950 . S
C640 C639 1.349 . S
C640 C652 1.349 . S
C641 C639 1.327 . S
C641 C657 1.429 . S
C641 H663 0.950 . S
C642 H638 0.949 . S
C642 C650 1.574 . S
C642 C658 1.368 . S
H643 C651 0.950 . S
H644 C649 0.950 . S
H645 C650 0.949 . S
H646 C652 0.927 1_455 S
H647 C653 0.950 . S
H648 C654 0.949 . S
C649 H644 0.950 . S
C649 C651 1.327 . S
C649 C655 1.429 . S
C650 C642 1.574 . S
C650 H645 0.949 . S
C650 C656 1.368 . S
C651 C635 1.349 . S
C651 H643 0.950 . S
C651 C649 1.327 . S
C652 C640 1.349 . S
C652 H646 0.927 1_655 S
C652 C653 1.327 . S
C653 H647 0.950 . S
C653 C652 1.327 . S
C653 C657 1.429 . S
C654 C637 1.574 . S
C654 H648 0.949 . S
C654 C658 1.368 . S
C655 C636 1.429 . S
C655 C649 1.429 . S
C655 C656 1.523 . S
C656 C637 1.368 . S
C656 C650 1.368 . S
C656 C655 1.523 . S
C657 C641 1.429 . S
C657 C653 1.429 . S
C657 C658 1.523 . S
C658 C642 1.368 . S
C658 C654 1.368 . S
C658 C657 1.523 . S
H659 C634 0.950 . S
H660 C636 0.950 . S
H661 C637 0.949 . S
H662 C639 0.950 . S
H663 C641 0.950 . S
C664 C665 1.349 . S
C664 C666 1.327 . S
C664 H689 0.950 . S
C665 C664 1.349 . S
C665 C681 1.349 . S
C666 C664 1.327 . S
C666 C685 1.429 . S
C666 H690 0.950 . S
C667 C684 1.574 . S
C667 C686 1.368 . S
C667 H691 0.949 . S
H668 C672 0.949 . S
C669 C670 1.349 . S
C669 C671 1.327 . S
C669 H692 0.950 . S
C670 C669 1.349 . S
C670 C682 1.349 . S
C671 C669 1.327 . S
C671 C687 1.429 . S
C671 H693 0.950 . S
C672 H668 0.949 . S
C672 C680 1.574 . S
C672 C688 1.368 . S
H673 C681 0.950 . S
H674 C679 0.950 . S
H675 C680 0.949 . S
H676 C682 0.950 . S
H677 C683 0.950 . S
H678 C684 0.949 . S
C679 H674 0.950 . S
C679 C681 1.327 . S
C679 C685 1.429 . S
C680 C672 1.574 . S
C680 H675 0.949 . S
C680 C686 1.368 . S
C681 C665 1.349 . S
C681 H673 0.950 . S
C681 C679 1.327 . S
C682 C670 1.349 . S
C682 H676 0.950 . S
C682 C683 1.327 . S
C683 H677 0.950 . S
C683 C682 1.327 . S
C683 C687 1.429 . S
C684 C667 1.574 . S
C684 H678 0.949 . S
C684 C688 1.368 . S
C685 C666 1.429 . S
C685 C679 1.429 . S
C685 C686 1.523 . S
C686 C667 1.368 . S
C686 C680 1.368 . S
C686 C685 1.523 . S
C687 C671 1.429 . S
C687 C683 1.429 . S
C687 C688 1.523 . S
C688 C672 1.368 . S
C688 C684 1.368 . S
C688 C687 1.523 . S
H689 C664 0.950 . S
H690 C666 0.950 . S
H691 C667 0.949 . S
H692 C669 0.950 . S
H693 C671 0.950 . S
C694 C695 1.349 . S
C694 C696 1.327 . S
C694 H719 0.950 . S
C695 C694 1.349 . S
C695 C711 1.349 . S
C696 C694 1.327 . S
C696 C715 1.429 . S
C696 H720 0.950 . S
C697 C714 1.574 . S
C697 C716 1.368 . S
C697 H721 0.949 . S
H698 C702 0.949 . S
C699 C700 1.349 . S
C699 C701 1.327 . S
C699 H722 0.950 . S
C700 C699 1.349 . S
C700 C712 1.349 . S
C701 C699 1.327 . S
C701 C717 1.429 . S
C701 H723 0.950 . S
C702 H698 0.949 . S
C702 C710 1.574 . S
C702 C718 1.368 . S
H703 C711 0.950 . S
H704 C709 0.950 . S
H705 C710 0.949 . S
H706 C712 0.950 . S
H707 C713 0.950 . S
H708 C714 0.949 . S
C709 H704 0.950 . S
C709 C711 1.327 . S
C709 C715 1.429 . S
C710 C702 1.574 . S
C710 H705 0.949 . S
C710 C716 1.368 . S
C711 C695 1.349 . S
C711 H703 0.950 . S
C711 C709 1.327 . S
C712 C700 1.349 . S
C712 H706 0.950 . S
C712 C713 1.327 . S
C713 H707 0.950 . S
C713 C712 1.327 . S
C713 C717 1.429 . S
C714 C697 1.574 . S
C714 H708 0.949 . S
C714 C718 1.368 . S
C715 C696 1.429 . S
C715 C709 1.429 . S
C715 C716 1.523 . S
C716 C697 1.368 . S
C716 C710 1.368 . S
C716 C715 1.523 . S
C717 C701 1.429 . S
C717 C713 1.429 . S
C717 C718 1.523 . S
C718 C702 1.368 . S
C718 C714 1.368 . S
C718 C717 1.523 . S
H719 C694 0.950 . S
H720 C696 0.950 . S
H721 C697 0.949 . S
H722 C699 0.950 . S
H723 C701 0.950 . S
C724 C725 1.349 . S
C724 C726 1.327 . S
C724 H749 0.950 . S
C725 C724 1.349 . S
C725 C741 1.349 . S
C726 C724 1.327 . S
C726 C745 1.429 . S
C726 H750 0.950 . S
C727 C744 1.574 . S
C727 C746 1.368 . S
C727 H751 0.949 . S
H728 C732 0.949 . S
C729 C730 1.349 . S
C729 C731 1.327 . S
C729 H752 0.950 . S
C730 C729 1.349 . S
C730 C742 1.349 . S
C731 C729 1.327 . S
C731 C747 1.429 . S
C731 H753 0.950 . S
C732 H728 0.949 . S
C732 C740 1.574 . S
C732 C748 1.368 . S
H733 C741 0.950 . S
H734 C739 0.950 . S
H735 C740 0.949 . S
H736 C742 0.950 . S
H737 C743 0.950 . S
H738 C744 0.949 . S
C739 H734 0.950 . S
C739 C741 1.327 . S
C739 C745 1.429 . S
C740 C732 1.574 . S
C740 H735 0.949 . S
C740 C746 1.368 . S
C741 C725 1.349 . S
C741 H733 0.950 . S
C741 C739 1.327 . S
C742 C730 1.349 . S
C742 H736 0.950 . S
C742 C743 1.327 . S
C743 H737 0.950 . S
C743 C742 1.327 . S
C743 C747 1.429 . S
C744 C727 1.574 . S
C744 H738 0.949 . S
C744 C748 1.368 . S
C745 C726 1.429 . S
C745 C739 1.429 . S
C745 C746 1.523 . S
C746 C727 1.368 . S
C746 C740 1.368 . S
C746 C745 1.523 . S
C747 C731 1.429 . S
C747 C743 1.429 . S
C747 C748 1.523 . S
C748 C732 1.368 . S
C748 C744 1.368 . S
C748 C747 1.523 . S
H749 C724 0.950 . S
H750 C726 0.950 . S
H751 C727 0.949 . S
H752 C729 0.950 . S
H753 C731 0.950 . S
C754 C755 1.349 . S
C754 C756 1.327 . S
C754 H779 0.950 . S
C755 C754 1.349 . S
C755 C771 1.349 . S
C756 C754 1.327 . S
C756 C775 1.429 . S
C756 H780 0.950 . S
C757 C774 1.574 . S
C757 C776 1.368 . S
C757 H781 0.949 . S
H758 C762 0.949 . S
C759 C760 1.349 . S
C759 C761 1.327 . S
C759 H782 0.950 . S
C760 C759 1.349 . S
C760 C772 1.349 . S
C761 C759 1.327 . S
C761 C777 1.429 . S
C761 H783 0.950 . S
C762 H758 0.949 . S
C762 C770 1.574 . S
C762 C778 1.368 . S
H763 C771 0.951 . S
H764 C769 0.950 . S
H765 C770 0.949 . S
H766 C772 0.950 . S
H767 C773 0.950 . S
H768 C774 0.949 . S
C769 H764 0.950 . S
C769 C771 1.327 . S
C769 C775 1.429 . S
C770 C762 1.574 . S
C770 H765 0.949 . S
C770 C776 1.368 . S
C771 C755 1.349 . S
C771 H763 0.951 . S
C771 C769 1.327 . S
C772 C760 1.349 . S
C772 H766 0.950 . S
C772 C773 1.327 . S
C773 H767 0.950 . S
C773 C772 1.327 . S
C773 C777 1.429 . S
C774 C757 1.574 . S
C774 H768 0.949 . S
C774 C778 1.368 . S
C775 C756 1.429 . S
C775 C769 1.429 . S
C775 C776 1.523 . S
C776 C757 1.368 . S
C776 C770 1.368 . S
C776 C775 1.523 . S
C777 C761 1.429 . S
C777 C773 1.429 . S
C777 C778 1.523 . S
C778 C762 1.368 . S
C778 C774 1.368 . S
C778 C777 1.523 . S
H779 C754 0.950 . S
H780 C756 0.950 . S
H781 C757 0.949 . S
H782 C759 0.950 . S
H783 C761 0.950 . S
C784 C785 1.349 . S
C784 C786 1.327 . S
C784 H809 0.950 . S
C785 C784 1.349 . S
C785 C801 1.349 . S
C786 C784 1.327 . S
C786 C805 1.429 . S
C786 H810 0.950 . S
C787 C804 1.574 . S
C787 C806 1.368 . S
C787 H811 0.949 . S
H788 C792 0.949 . S
C789 C790 1.349 . S
C789 C791 1.327 . S
C789 H812 0.950 . S
C790 C789 1.349 . S
C790 C802 1.349 . S
C791 C789 1.327 . S
C791 C807 1.429 . S
C791 H813 0.950 . S
C792 H788 0.949 . S
C792 C800 1.574 . S
C792 C808 1.368 . S
H793 C801 0.950 . S
H794 C799 0.950 . S
H795 C800 0.949 . S
H796 C802 0.950 . S
H797 C803 0.950 . S
H798 C804 0.949 . S
C799 H794 0.950 . S
C799 C801 1.327 . S
C799 C805 1.429 . S
C800 C792 1.574 . S
C800 H795 0.949 . S
C800 C806 1.368 . S
C801 C785 1.349 . S
C801 H793 0.950 . S
C801 C799 1.327 . S
C802 C790 1.349 . S
C802 H796 0.950 . S
C802 C803 1.327 . S
C803 H797 0.950 . S
C803 C802 1.327 . S
C803 C807 1.429 . S
C804 C787 1.574 . S
C804 H798 0.949 . S
C804 C808 1.368 . S
C805 C786 1.429 . S
C805 C799 1.429 . S
C805 C806 1.523 . S
C806 C787 1.368 . S
C806 C800 1.368 . S
C806 C805 1.523 . S
C807 C791 1.429 . S
C807 C803 1.429 . S
C807 C808 1.523 . S
C808 C792 1.368 . S
C808 C804 1.368 . S
C808 C807 1.523 . S
H809 C784 0.950 . S
H810 C786 0.950 . S
H811 C787 0.949 . S
H812 C789 0.950 . S
H813 C791 0.950 . S
C814 C815 1.349 . S
C814 C816 1.327 . S
C814 H839 0.950 . S
C815 C814 1.349 . S
C815 C831 1.349 . S
C816 C814 1.327 . S
C816 C835 1.429 . S
C816 H840 0.950 . S
C817 C834 1.574 . S
C817 C836 1.368 . S
C817 H841 0.949 . S
H818 C822 0.949 . S
C819 C820 1.349 . S
C819 C821 1.327 . S
C819 H842 0.950 . S
C820 C819 1.349 . S
C820 C832 1.349 . S
C821 C819 1.327 . S
C821 C837 1.429 . S
C821 H843 0.950 . S
C822 H818 0.949 . S
C822 C830 1.574 . S
C822 C838 1.368 . S
H823 C831 0.950 . S
H824 C829 0.950 . S
H825 C830 0.949 . S
H826 C832 0.950 . S
H827 C833 0.950 . S
H828 C834 0.949 . S
C829 H824 0.950 . S
C829 C831 1.327 . S
C829 C835 1.429 . S
C830 C822 1.574 . S
C830 H825 0.949 . S
C830 C836 1.368 . S
C831 C815 1.349 . S
C831 H823 0.950 . S
C831 C829 1.327 . S
C832 C820 1.349 . S
C832 H826 0.950 . S
C832 C833 1.327 . S
C833 H827 0.950 . S
C833 C832 1.327 . S
C833 C837 1.429 . S
C834 C817 1.574 . S
C834 H828 0.949 . S
C834 C838 1.368 . S
C835 C816 1.429 . S
C835 C829 1.429 . S
C835 C836 1.523 . S
C836 C817 1.368 . S
C836 C830 1.368 . S
C836 C835 1.523 . S
C837 C821 1.429 . S
C837 C833 1.429 . S
C837 C838 1.523 . S
C838 C822 1.368 . S
C838 C834 1.368 . S
C838 C837 1.523 . S
H839 C814 0.950 . S
H840 C816 0.950 . S
H841 C817 0.949 . S
H842 C819 0.950 . S
H843 C821 0.950 . S
C844 C845 1.349 . S
C844 C846 1.327 . S
C844 H869 0.950 . S
C845 C844 1.349 . S
C845 C861 1.349 . S
C846 C844 1.327 . S
C846 C865 1.429 . S
C846 H870 0.950 . S
C847 C864 1.574 . S
C847 C866 1.368 . S
C847 H871 0.949 . S
H848 C852 0.949 . S
C849 C850 1.349 . S
C849 C851 1.327 . S
C849 H872 0.950 . S
C850 C849 1.349 . S
C850 C862 1.349 . S
C851 C849 1.327 . S
C851 C867 1.429 . S
C851 H873 0.950 . S
C852 H848 0.949 . S
C852 C860 1.574 . S
C852 C868 1.368 . S
H853 C861 0.950 . S
H854 C859 0.950 . S
H855 C860 0.949 . S
H856 C862 0.950 . S
H857 C863 0.950 . S
H858 C864 0.949 . S
C859 H854 0.950 . S
C859 C861 1.327 . S
C859 C865 1.429 . S
C860 C852 1.574 . S
C860 H855 0.949 . S
C860 C866 1.368 . S
C861 C845 1.349 . S
C861 H853 0.950 . S
C861 C859 1.327 . S
C862 C850 1.349 . S
C862 H856 0.950 . S
C862 C863 1.327 . S
C863 H857 0.950 . S
C863 C862 1.327 . S
C863 C867 1.429 . S
C864 C847 1.574 . S
C864 H858 0.949 . S
C864 C868 1.368 . S
C865 C846 1.429 . S
C865 C859 1.429 . S
C865 C866 1.523 . S
C866 C847 1.368 . S
C866 C860 1.368 . S
C866 C865 1.523 . S
C867 C851 1.429 . S
C867 C863 1.429 . S
C867 C868 1.523 . S
C868 C852 1.368 . S
C868 C864 1.368 . S
C868 C867 1.523 . S
H869 C844 0.950 . S
H870 C846 0.950 . S
H871 C847 0.949 . S
H872 C849 0.950 . S
H873 C851 0.950 . S
C874 C875 1.349 . S
C874 C876 1.327 . S
C874 H899 0.950 . S
C875 C874 1.349 . S
C875 C891 1.349 . S
C876 C874 1.327 . S
C876 C895 1.429 . S
C876 H900 0.950 . S
C877 C894 1.574 . S
C877 C896 1.368 . S
C877 H901 0.949 . S
H878 C882 0.949 . S
C879 C880 1.349 . S
C879 C881 1.327 . S
C879 H902 0.950 . S
C880 C879 1.349 . S
C880 C892 1.349 . S
C881 C879 1.327 . S
C881 C897 1.429 . S
C881 H903 0.950 . S
C882 H878 0.949 . S
C882 C890 1.574 . S
C882 C898 1.368 . S
H883 C891 0.950 . S
H884 C889 0.950 . S
H885 C890 0.949 . S
H886 C892 0.950 . S
H887 C893 0.950 . S
H888 C894 0.949 . S
C889 H884 0.950 . S
C889 C891 1.327 . S
C889 C895 1.429 . S
C890 C882 1.574 . S
C890 H885 0.949 . S
C890 C896 1.368 . S
C891 C875 1.349 . S
C891 H883 0.950 . S
C891 C889 1.327 . S
C892 C880 1.349 . S
C892 H886 0.950 . S
C892 C893 1.327 . S
C893 H887 0.950 . S
C893 C892 1.327 . S
C893 C897 1.429 . S
C894 C877 1.574 . S
C894 H888 0.949 . S
C894 C898 1.368 . S
C895 C876 1.429 . S
C895 C889 1.429 . S
C895 C896 1.523 . S
C896 C877 1.368 . S
C896 C890 1.368 . S
C896 C895 1.523 . S
C897 C881 1.429 . S
C897 C893 1.429 . S
C897 C898 1.523 . S
C898 C882 1.368 . S
C898 C894 1.368 . S
C898 C897 1.523 . S
H899 C874 0.950 . S
H900 C876 0.950 . S
H901 C877 0.949 . S
H902 C879 0.950 . S
H903 C881 0.950 . S
C904 C905 1.349 . S
C904 C906 1.327 . S
C904 H929 0.950 . S
C905 C904 1.349 . S
C905 C921 1.349 . S
C906 C904 1.327 . S
C906 C925 1.429 . S
C906 H930 0.950 . S
C907 C924 1.574 . S
C907 C926 1.368 . S
C907 H931 0.949 . S
H908 C912 0.949 . S
C909 C910 1.349 . S
C909 C911 1.327 . S
C909 H932 0.950 . S
C910 C909 1.349 . S
C910 C922 1.349 . S
C911 C909 1.327 . S
C911 C927 1.429 . S
C911 H933 0.950 . S
C912 H908 0.949 . S
C912 C920 1.574 . S
C912 C928 1.368 . S
H913 C921 0.950 . S
H914 C919 0.950 . S
H915 C920 0.949 . S
H916 C922 0.950 . S
H917 C923 0.950 . S
H918 C924 0.949 . S
C919 H914 0.950 . S
C919 C921 1.327 . S
C919 C925 1.429 . S
C920 C912 1.574 . S
C920 H915 0.949 . S
C920 C926 1.368 . S
C921 C905 1.349 . S
C921 H913 0.950 . S
C921 C919 1.327 . S
C922 C910 1.349 . S
C922 H916 0.950 . S
C922 C923 1.327 . S
C923 H917 0.950 . S
C923 C922 1.327 . S
C923 C927 1.429 . S
C924 C907 1.574 . S
C924 H918 0.949 . S
C924 C928 1.368 . S
C925 C906 1.429 . S
C925 C919 1.429 . S
C925 C926 1.523 . S
C926 C907 1.368 . S
C926 C920 1.368 . S
C926 C925 1.523 . S
C927 C911 1.429 . S
C927 C923 1.429 . S
C927 C928 1.523 . S
C928 C912 1.368 . S
C928 C924 1.368 . S
C928 C927 1.523 . S
H929 C904 0.950 . S
H930 C906 0.950 . S
H931 C907 0.949 . S
H932 C909 0.950 . S
H933 C911 0.950 . S
C934 C935 1.349 . S
C934 C936 1.327 . S
C934 H959 0.950 . S
C935 C934 1.349 . S
C935 C951 1.349 . S
C936 C934 1.327 . S
C936 C955 1.429 . S
C936 H960 0.950 . S
C937 C954 1.574 . S
C937 C956 1.368 . S
C937 H961 0.949 . S
H938 C942 0.949 . S
C939 C940 1.349 . S
C939 C941 1.327 . S
C939 H962 0.950 . S
C940 C939 1.349 . S
C940 C952 1.349 . S
C941 C939 1.327 . S
C941 C957 1.429 . S
C941 H963 0.950 . S
C942 H938 0.949 . S
C942 C950 1.574 . S
C942 C958 1.368 . S
H943 C951 0.950 . S
H944 C949 0.950 . S
H945 C950 0.949 . S
H946 C952 0.950 . S
H947 C953 0.950 . S
H948 C954 0.949 . S
C949 H944 0.950 . S
C949 C951 1.327 . S
C949 C955 1.429 . S
C950 C942 1.574 . S
C950 H945 0.949 . S
C950 C956 1.368 . S
C951 C935 1.349 . S
C951 H943 0.950 . S
C951 C949 1.327 . S
C952 C940 1.349 . S
C952 H946 0.950 . S
C952 C953 1.327 . S
C953 H947 0.950 . S
C953 C952 1.327 . S
C953 C957 1.429 . S
C954 C937 1.574 . S
C954 H948 0.949 . S
C954 C958 1.368 . S
C955 C936 1.429 . S
C955 C949 1.429 . S
C955 C956 1.523 . S
C956 C937 1.368 . S
C956 C950 1.368 . S
C956 C955 1.523 . S
C957 C941 1.429 . S
C957 C953 1.429 . S
C957 C958 1.523 . S
C958 C942 1.368 . S
C958 C954 1.368 . S
C958 C957 1.523 . S
H959 C934 0.950 . S
H960 C936 0.950 . S
H961 C937 0.949 . S
H962 C939 0.950 . S
H963 C941 0.950 . S
C964 C965 1.349 . S
C964 C966 1.327 . S
C964 H989 0.950 . S
C965 C964 1.349 . S
C965 C981 1.349 . S
C966 C964 1.327 . S
C966 C985 1.429 . S
C966 H990 0.950 . S
C967 C984 1.574 . S
C967 C986 1.368 . S
C967 H991 0.949 . S
H968 C972 0.949 . S
C969 C970 1.349 . S
C969 C971 1.327 . S
C969 H992 0.950 . S
C970 C969 1.349 . S
C970 C982 1.349 . S
C971 C969 1.327 . S
C971 C987 1.429 . S
C971 H993 0.950 . S
C972 H968 0.949 . S
C972 C980 1.574 . S
C972 C988 1.368 . S
H973 C981 0.950 . S
H974 C979 0.950 . S
H975 C980 0.949 . S
H976 C982 0.950 . S
H977 C983 0.950 . S
H978 C984 0.949 . S
C979 H974 0.950 . S
C979 C981 1.327 . S
C979 C985 1.429 . S
C980 C972 1.574 . S
C980 H975 0.949 . S
C980 C986 1.368 . S
C981 C965 1.349 . S
C981 H973 0.950 . S
C981 C979 1.327 . S
C982 C970 1.349 . S
C982 H976 0.950 . S
C982 C983 1.327 . S
C983 H977 0.950 . S
C983 C982 1.327 . S
C983 C987 1.429 . S
C984 C967 1.574 . S
C984 H978 0.949 . S
C984 C988 1.368 . S
C985 C966 1.429 . S
C985 C979 1.429 . S
C985 C986 1.523 . S
C986 C967 1.368 . S
C986 C980 1.368 . S
C986 C985 1.523 . S
C987 C971 1.429 . S
C987 C983 1.429 . S
C987 C988 1.523 . S
C988 C972 1.368 . S
C988 C984 1.368 . S
C988 C987 1.523 . S
H989 C964 0.950 . S
H990 C966 0.950 . S
H991 C967 0.949 . S
H992 C969 0.950 . S
H993 C971 0.950 . S
C994 C995 1.349 . S
C994 C996 1.327 . S
C994 H1019 0.950 . S
C995 C994 1.349 . S
C995 C1011 1.349 . S
C996 C994 1.327 . S
C996 C1015 1.429 . S
C996 H1020 0.950 . S
C997 C1014 1.574 . S
C997 C1016 1.368 . S
C997 H1021 0.949 . S
H998 C1002 0.949 . S
C999 C1000 1.349 . S
C999 C1001 1.327 . S
C999 H1022 0.950 . S
C1000 C999 1.349 . S
C1000 C1012 1.349 . S
C1001 C999 1.327 . S
C1001 C1017 1.429 . S
C1001 H1023 0.950 . S
C1002 H998 0.949 . S
C1002 C1010 1.574 . S
C1002 C1018 1.368 . S
H1003 C1011 0.950 . S
H1004 C1009 0.950 . S
H1005 C1010 0.949 . S
H1006 C1012 0.950 . S
H1007 C1013 0.950 . S
H1008 C1014 0.949 . S
C1009 H1004 0.950 . S
C1009 C1011 1.327 . S
C1009 C1015 1.429 . S
C1010 C1002 1.574 . S
C1010 H1005 0.949 . S
C1010 C1016 1.368 . S
C1011 C995 1.349 . S
C1011 H1003 0.950 . S
C1011 C1009 1.327 . S
C1012 C1000 1.349 . S
C1012 H1006 0.950 . S
C1012 C1013 1.327 . S
C1013 H1007 0.950 . S
C1013 C1012 1.327 . S
C1013 C1017 1.429 . S
C1014 C997 1.574 . S
C1014 H1008 0.949 . S
C1014 C1018 1.368 . S
C1015 C996 1.429 . S
C1015 C1009 1.429 . S
C1015 C1016 1.523 . S
C1016 C997 1.368 . S
C1016 C1010 1.368 . S
C1016 C1015 1.523 . S
C1017 C1001 1.429 . S
C1017 C1013 1.429 . S
C1017 C1018 1.523 . S
C1018 C1002 1.368 . S
C1018 C1014 1.368 . S
C1018 C1017 1.523 . S
H1019 C994 0.950 . S
H1020 C996 0.950 . S
H1021 C997 0.949 . S
H1022 C999 0.950 . S
H1023 C1001 0.950 . S
C1024 C1025 1.349 . S
C1024 C1026 1.327 . S
C1024 H1049 0.950 . S
C1025 C1024 1.349 . S
C1025 C1041 1.349 . S
C1026 C1024 1.327 . S
C1026 C1045 1.429 . S
C1026 H1050 0.950 . S
C1027 C1044 1.574 . S
C1027 C1046 1.368 . S
C1027 H1051 0.949 . S
H1028 C1032 0.949 . S
C1029 C1030 1.349 . S
C1029 C1031 1.327 . S
C1029 H1052 0.950 . S
C1030 C1029 1.349 . S
C1030 C1042 1.349 . S
C1031 C1029 1.327 . S
C1031 C1047 1.429 . S
C1031 H1053 0.950 . S
C1032 H1028 0.949 . S
C1032 C1040 1.574 . S
C1032 C1048 1.368 . S
H1033 C1041 0.950 . S
H1034 C1039 0.950 . S
H1035 C1040 0.949 . S
H1036 C1042 0.950 . S
H1037 C1043 0.950 . S
H1038 C1044 0.949 . S
C1039 H1034 0.950 . S
C1039 C1041 1.327 . S
C1039 C1045 1.429 . S
C1040 C1032 1.574 . S
C1040 H1035 0.949 . S
C1040 C1046 1.368 . S
C1041 C1025 1.349 . S
C1041 H1033 0.950 . S
C1041 C1039 1.327 . S
C1042 C1030 1.349 . S
C1042 H1036 0.950 . S
C1042 C1043 1.327 . S
C1043 H1037 0.950 . S
C1043 C1042 1.327 . S
C1043 C1047 1.429 . S
C1044 C1027 1.574 . S
C1044 H1038 0.949 . S
C1044 C1048 1.368 . S
C1045 C1026 1.429 . S
C1045 C1039 1.429 . S
C1045 C1046 1.523 . S
C1046 C1027 1.368 . S
C1046 C1040 1.368 . S
C1046 C1045 1.523 . S
C1047 C1031 1.429 . S
C1047 C1043 1.429 . S
C1047 C1048 1.523 . S
C1048 C1032 1.368 . S
C1048 C1044 1.368 . S
C1048 C1047 1.523 . S
H1049 C1024 0.950 . S
H1050 C1026 0.950 . S
H1051 C1027 0.949 . S
H1052 C1029 0.950 . S
H1053 C1031 0.950 . S
C1054 C1055 1.349 . S
C1054 C1056 1.327 . S
C1054 H1079 0.950 . S
C1055 C1054 1.349 . S
C1055 C1071 1.349 . S
C1056 C1054 1.327 . S
C1056 C1075 1.429 . S
C1056 H1080 0.950 . S
C1057 C1074 1.574 . S
C1057 C1076 1.368 . S
C1057 H1081 0.949 . S
H1058 C1062 0.949 . S
C1059 C1060 1.349 . S
C1059 C1061 1.327 . S
C1059 H1082 0.950 . S
C1060 C1059 1.349 . S
C1060 C1072 1.349 . S
C1061 C1059 1.327 . S
C1061 C1077 1.429 . S
C1061 H1083 0.950 . S
C1062 H1058 0.949 . S
C1062 C1070 1.574 . S
C1062 C1078 1.368 . S
H1063 C1071 0.950 . S
H1064 C1069 0.950 . S
H1065 C1070 0.949 . S
H1066 C1072 0.950 . S
H1067 C1073 0.950 . S
H1068 C1074 0.949 . S
C1069 H1064 0.950 . S
C1069 C1071 1.327 . S
C1069 C1075 1.429 . S
C1070 C1062 1.574 . S
C1070 H1065 0.949 . S
C1070 C1076 1.368 . S
C1071 C1055 1.349 . S
C1071 H1063 0.950 . S
C1071 C1069 1.327 . S
C1072 C1060 1.349 . S
C1072 H1066 0.950 . S
C1072 C1073 1.327 . S
C1073 H1067 0.950 . S
C1073 C1072 1.327 . S
C1073 C1077 1.429 . S
C1074 C1057 1.574 . S
C1074 H1068 0.949 . S
C1074 C1078 1.368 . S
C1075 C1056 1.429 . S
C1075 C1069 1.429 . S
C1075 C1076 1.523 . S
C1076 C1057 1.368 . S
C1076 C1070 1.368 . S
C1076 C1075 1.523 . S
C1077 C1061 1.429 . S
C1077 C1073 1.429 . S
C1077 C1078 1.523 . S
C1078 C1062 1.368 . S
C1078 C1074 1.368 . S
C1078 C1077 1.523 . S
H1079 C1054 0.950 . S
H1080 C1056 0.950 . S
H1081 C1057 0.949 . S
H1082 C1059 0.950 . S
H1083 C1061 0.950 . S
C1084 C1085 1.349 . S
C1084 C1086 1.327 . S
C1084 H1109 0.950 . S
C1085 C1084 1.349 . S
C1085 C1101 1.349 . S
C1086 C1084 1.327 . S
C1086 C1105 1.429 . S
C1086 H1110 0.950 . S
C1087 C1104 1.574 . S
C1087 C1106 1.368 . S
C1087 H1111 0.949 . S
H1088 C1092 0.949 . S
C1089 C1090 1.349 . S
C1089 C1091 1.327 . S
C1089 H1112 0.950 . S
C1090 C1089 1.349 . S
C1090 C1102 1.349 . S
C1091 C1089 1.327 . S
C1091 C1107 1.429 . S
C1091 H1113 0.950 . S
C1092 H1088 0.949 . S
C1092 C1100 1.574 . S
C1092 C1108 1.368 . S
H1093 C1101 0.950 . S
H1094 C1099 0.950 . S
H1095 C1100 0.949 . S
H1096 C1102 0.950 . S
H1097 C1103 0.950 . S
H1098 C1104 0.949 . S
C1099 H1094 0.950 . S
C1099 C1101 1.327 . S
C1099 C1105 1.429 . S
C1100 C1092 1.574 . S
C1100 H1095 0.949 . S
C1100 C1106 1.368 . S
C1101 C1085 1.349 . S
C1101 H1093 0.950 . S
C1101 C1099 1.327 . S
C1102 C1090 1.349 . S
C1102 H1096 0.950 . S
C1102 C1103 1.327 . S
C1103 H1097 0.950 . S
C1103 C1102 1.327 . S
C1103 C1107 1.429 . S
C1104 C1087 1.574 . S
C1104 H1098 0.949 . S
C1104 C1108 1.368 . S
C1105 C1086 1.429 . S
C1105 C1099 1.429 . S
C1105 C1106 1.523 . S
C1106 C1087 1.368 . S
C1106 C1100 1.368 . S
C1106 C1105 1.523 . S
C1107 C1091 1.429 . S
C1107 C1103 1.429 . S
C1107 C1108 1.523 . S
C1108 C1092 1.368 . S
C1108 C1104 1.368 . S
C1108 C1107 1.523 . S
H1109 C1084 0.950 . S
H1110 C1086 0.950 . S
H1111 C1087 0.949 . S
H1112 C1089 0.950 . S
H1113 C1091 0.950 . S
C1114 C1115 1.349 . S
C1114 C1116 1.327 . S
C1114 H1139 0.950 . S
C1115 C1114 1.349 . S
C1115 C1131 1.349 . S
C1116 C1114 1.327 . S
C1116 C1135 1.429 . S
C1116 H1140 0.950 . S
C1117 C1134 1.574 . S
C1117 C1136 1.368 . S
C1117 H1141 0.949 . S
H1118 C1122 0.949 . S
C1119 C1120 1.349 . S
C1119 C1121 1.327 . S
C1119 H1142 0.950 . S
C1120 C1119 1.349 . S
C1120 C1132 1.349 . S
C1121 C1119 1.327 . S
C1121 C1137 1.429 . S
C1121 H1143 0.950 . S
C1122 H1118 0.949 . S
C1122 C1130 1.574 . S
C1122 C1138 1.368 . S
H1123 C1131 0.950 . S
H1124 C1129 0.950 . S
H1125 C1130 0.949 . S
H1126 C1132 0.950 . S
H1127 C1133 0.950 . S
H1128 C1134 0.949 . S
C1129 H1124 0.950 . S
C1129 C1131 1.327 . S
C1129 C1135 1.429 . S
C1130 C1122 1.574 . S
C1130 H1125 0.949 . S
C1130 C1136 1.368 . S
C1131 C1115 1.349 . S
C1131 H1123 0.950 . S
C1131 C1129 1.327 . S
C1132 C1120 1.349 . S
C1132 H1126 0.950 . S
C1132 C1133 1.327 . S
C1133 H1127 0.950 . S
C1133 C1132 1.327 . S
C1133 C1137 1.429 . S
C1134 C1117 1.574 . S
C1134 H1128 0.949 . S
C1134 C1138 1.368 . S
C1135 C1116 1.429 . S
C1135 C1129 1.429 . S
C1135 C1136 1.523 . S
C1136 C1117 1.368 . S
C1136 C1130 1.368 . S
C1136 C1135 1.523 . S
C1137 C1121 1.429 . S
C1137 C1133 1.429 . S
C1137 C1138 1.523 . S
C1138 C1122 1.368 . S
C1138 C1134 1.368 . S
C1138 C1137 1.523 . S
H1139 C1114 0.950 . S
H1140 C1116 0.950 . S
H1141 C1117 0.949 . S
H1142 C1119 0.950 . S
H1143 C1121 0.950 . S
C1144 C1145 1.349 . S
C1144 C1146 1.327 . S
C1144 H1169 0.950 . S
C1145 C1144 1.349 . S
C1145 C1161 1.349 . S
C1146 C1144 1.327 . S
C1146 C1165 1.429 . S
C1146 H1170 0.950 . S
C1147 C1164 1.574 . S
C1147 C1166 1.368 1_554 S
C1147 H1171 0.949 . S
H1148 C1152 0.949 . S
C1149 C1150 1.349 . S
C1149 C1151 1.327 . S
C1149 H1172 0.950 . S
C1150 C1149 1.349 . S
C1150 C1162 1.349 . S
C1151 C1149 1.327 . S
C1151 C1167 1.429 . S
C1151 H1173 0.950 . S
C1152 H1148 0.949 . S
C1152 C1160 1.574 . S
C1152 C1168 1.368 1_556 S
H1153 C1161 0.950 . S
H1154 C1159 0.950 . S
H1155 C1160 0.949 . S
H1156 C1162 0.950 . S
H1157 C1163 0.950 . S
H1158 C1164 0.949 . S
C1159 H1154 0.950 . S
C1159 C1161 1.327 . S
C1159 C1165 1.429 . S
C1160 C1152 1.574 . S
C1160 H1155 0.949 . S
C1160 C1166 1.368 . S
C1161 C1145 1.349 . S
C1161 H1153 0.950 . S
C1161 C1159 1.327 . S
C1162 C1150 1.349 . S
C1162 H1156 0.950 . S
C1162 C1163 1.327 . S
C1163 H1157 0.950 . S
C1163 C1162 1.327 . S
C1163 C1167 1.429 . S
C1164 C1147 1.574 . S
C1164 H1158 0.949 . S
C1164 C1168 1.368 . S
C1165 C1146 1.429 . S
C1165 C1159 1.429 . S
C1165 C1166 1.523 . S
C1166 C1147 1.368 1_556 S
C1166 C1160 1.368 . S
C1166 C1165 1.523 . S
C1167 C1151 1.429 . S
C1167 C1163 1.429 . S
C1167 C1168 1.523 . S
C1168 C1152 1.368 1_554 S
C1168 C1164 1.368 . S
C1168 C1167 1.523 . S
H1169 C1144 0.950 . S
H1170 C1146 0.950 . S
H1171 C1147 0.949 . S
H1172 C1149 0.950 . S
H1173 C1151 0.950 . S
C1174 C1175 1.349 . S
C1174 C1176 1.327 . S
C1174 H1199 0.950 . S
C1175 C1174 1.349 . S
C1175 C1191 1.349 . S
C1176 C1174 1.327 . S
C1176 C1195 1.429 . S
C1176 H1200 0.950 . S
C1177 C1194 1.574 1_556 S
C1177 C1196 1.368 . S
C1177 H1201 0.949 . S
H1178 C1182 0.949 . S
C1179 C1180 1.349 . S
C1179 C1181 1.327 . S
C1179 H1202 0.950 . S
C1180 C1179 1.349 . S
C1180 C1192 1.349 . S
C1181 C1179 1.327 . S
C1181 C1197 1.429 . S
C1181 H1203 0.950 . S
C1182 H1178 0.949 . S
C1182 C1190 1.574 1_554 S
C1182 C1198 1.368 . S
H1183 C1191 0.950 . S
H1184 C1189 0.950 . S
H1185 C1190 0.949 . S
H1186 C1192 0.950 . S
H1187 C1193 0.950 . S
H1188 C1194 0.949 . S
C1189 H1184 0.950 . S
C1189 C1191 1.327 . S
C1189 C1195 1.429 . S
C1190 C1182 1.574 1_556 S
C1190 H1185 0.949 . S
C1190 C1196 1.368 . S
C1191 C1175 1.349 . S
C1191 H1183 0.950 . S
C1191 C1189 1.327 . S
C1192 C1180 1.349 . S
C1192 H1186 0.950 . S
C1192 C1193 1.327 . S
C1193 H1187 0.950 . S
C1193 C1192 1.327 . S
C1193 C1197 1.429 . S
C1194 C1177 1.574 1_554 S
C1194 H1188 0.949 . S
C1194 C1198 1.368 . S
C1195 C1176 1.429 . S
C1195 C1189 1.429 . S
C1195 C1196 1.523 . S
C1196 C1177 1.368 . S
C1196 C1190 1.368 . S
C1196 C1195 1.523 . S
C1197 C1181 1.429 . S
C1197 C1193 1.429 . S
C1197 C1198 1.523 . S
C1198 C1182 1.368 . S
C1198 C1194 1.368 . S
C1198 C1197 1.523 . S
H1199 C1174 0.950 . S
H1200 C1176 0.950 . S
H1201 C1177 0.949 . S
H1202 C1179 0.950 . S
H1203 C1181 0.950 . S
C1204 C1205 1.349 . S
C1204 C1206 1.327 . S
C1204 H1229 0.950 . S
C1205 C1204 1.349 . S
C1205 C1221 1.349 . S
C1206 C1204 1.327 . S
C1206 C1225 1.429 . S
C1206 H1230 0.950 . S
C1207 C1224 1.574 . S
C1207 C1226 1.368 1_554 S
C1207 H1231 0.949 . S
H1208 C1212 0.949 . S
C1209 C1210 1.349 . S
C1209 C1211 1.327 . S
C1209 H1232 0.950 . S
C1210 C1209 1.349 . S
C1210 C1222 1.349 . S
C1211 C1209 1.327 . S
C1211 C1227 1.429 . S
C1211 H1233 0.950 . S
C1212 H1208 0.949 . S
C1212 C1220 1.574 . S
C1212 C1228 1.368 1_556 S
H1213 C1221 0.950 . S
H1214 C1219 0.950 . S
H1215 C1220 0.949 . S
H1216 C1222 0.950 . S
H1217 C1223 0.950 . S
H1218 C1224 0.949 . S
C1219 H1214 0.950 . S
C1219 C1221 1.327 . S
C1219 C1225 1.429 . S
C1220 C1212 1.574 . S
C1220 H1215 0.949 . S
C1220 C1226 1.368 . S
C1221 C1205 1.349 . S
C1221 H1213 0.950 . S
C1221 C1219 1.327 . S
C1222 C1210 1.349 . S
C1222 H1216 0.950 . S
C1222 C1223 1.327 . S
C1223 H1217 0.950 . S
C1223 C1222 1.327 . S
C1223 C1227 1.429 . S
C1224 C1207 1.574 . S
C1224 H1218 0.949 . S
C1224 C1228 1.368 . S
C1225 C1206 1.429 . S
C1225 C1219 1.429 . S
C1225 C1226 1.523 . S
C1226 C1207 1.368 1_556 S
C1226 C1220 1.368 . S
C1226 C1225 1.523 . S
C1227 C1211 1.429 . S
C1227 C1223 1.429 . S
C1227 C1228 1.523 . S
C1228 C1212 1.368 1_554 S
C1228 C1224 1.368 . S
C1228 C1227 1.523 . S
H1229 C1204 0.950 . S
H1230 C1206 0.950 . S
H1231 C1207 0.949 . S
H1232 C1209 0.950 . S
H1233 C1211 0.950 . S
C1234 C1235 1.349 . S
C1234 C1236 1.327 . S
C1234 H1259 0.950 . S
C1235 C1234 1.349 . S
C1235 C1251 1.349 . S
C1236 C1234 1.327 . S
C1236 C1255 1.429 . S
C1236 H1260 0.950 . S
C1237 C1254 1.574 1_556 S
C1237 C1256 1.368 . S
C1237 H1261 0.949 . S
H1238 C1242 0.949 . S
C1239 C1240 1.349 . S
C1239 C1241 1.327 . S
C1239 H1262 0.950 . S
C1240 C1239 1.349 . S
C1240 C1252 1.349 . S
C1241 C1239 1.327 . S
C1241 C1257 1.429 . S
C1241 H1263 0.950 . S
C1242 H1238 0.949 . S
C1242 C1250 1.574 1_554 S
C1242 C1258 1.368 . S
H1243 C1251 0.950 . S
H1244 C1249 0.950 . S
H1245 C1250 0.949 . S
H1246 C1252 0.950 . S
H1247 C1253 0.950 . S
H1248 C1254 0.949 . S
C1249 H1244 0.950 . S
C1249 C1251 1.327 . S
C1249 C1255 1.429 . S
C1250 C1242 1.574 1_556 S
C1250 H1245 0.949 . S
C1250 C1256 1.368 . S
C1251 C1235 1.349 . S
C1251 H1243 0.950 . S
C1251 C1249 1.327 . S
C1252 C1240 1.349 . S
C1252 H1246 0.950 . S
C1252 C1253 1.327 . S
C1253 H1247 0.950 . S
C1253 C1252 1.327 . S
C1253 C1257 1.429 . S
C1254 C1237 1.574 1_554 S
C1254 H1248 0.949 . S
C1254 C1258 1.368 . S
C1255 C1236 1.429 . S
C1255 C1249 1.429 . S
C1255 C1256 1.523 . S
C1256 C1237 1.368 . S
C1256 C1250 1.368 . S
C1256 C1255 1.523 . S
C1257 C1241 1.429 . S
C1257 C1253 1.429 . S
C1257 C1258 1.523 . S
C1258 C1242 1.368 . S
C1258 C1254 1.368 . S
C1258 C1257 1.523 . S
H1259 C1234 0.950 . S
H1260 C1236 0.950 . S
H1261 C1237 0.949 . S
H1262 C1239 0.950 . S
H1263 C1241 0.950 . S
C1264 C1265 1.349 . S
C1264 C1266 1.327 . S
C1264 H1289 0.950 . S
C1265 C1264 1.349 . S
C1265 C1281 1.349 . S
C1266 C1264 1.327 . S
C1266 C1285 1.429 . S
C1266 H1290 0.950 . S
C1267 C1284 1.574 . S
C1267 C1286 1.368 . S
C1267 H1291 0.949 . S
H1268 C1272 0.949 . S
C1269 C1270 1.349 . S
C1269 C1271 1.327 . S
C1269 H1292 0.950 . S
C1270 C1269 1.349 . S
C1270 C1282 1.349 . S
C1271 C1269 1.327 . S
C1271 C1287 1.429 . S
C1271 H1293 0.950 . S
C1272 H1268 0.949 . S
C1272 C1280 1.574 . S
C1272 C1288 1.368 . S
H1273 C1281 0.950 . S
H1274 C1279 0.950 . S
H1275 C1280 0.949 . S
H1276 C1282 0.950 . S
H1277 C1283 0.950 . S
H1278 C1284 0.949 . S
C1279 H1274 0.950 . S
C1279 C1281 1.327 . S
C1279 C1285 1.429 . S
C1280 C1272 1.574 . S
C1280 H1275 0.949 . S
C1280 C1286 1.368 . S
C1281 C1265 1.349 . S
C1281 H1273 0.950 . S
C1281 C1279 1.327 . S
C1282 C1270 1.349 . S
C1282 H1276 0.950 . S
C1282 C1283 1.327 . S
C1283 H1277 0.950 . S
C1283 C1282 1.327 . S
C1283 C1287 1.429 . S
C1284 C1267 1.574 . S
C1284 H1278 0.949 . S
C1284 C1288 1.368 . S
C1285 C1266 1.429 . S
C1285 C1279 1.429 . S
C1285 C1286 1.523 . S
C1286 C1267 1.368 . S
C1286 C1280 1.368 . S
C1286 C1285 1.523 . S
C1287 C1271 1.429 . S
C1287 C1283 1.429 . S
C1287 C1288 1.523 . S
C1288 C1272 1.368 . S
C1288 C1284 1.368 . S
C1288 C1287 1.523 . S
H1289 C1264 0.950 . S
H1290 C1266 0.950 . S
H1291 C1267 0.949 . S
H1292 C1269 0.950 . S
H1293 C1271 0.950 . S
C1294 C1295 1.349 . S
C1294 C1296 1.327 . S
C1294 H1319 0.950 . S
C1295 C1294 1.349 . S
C1295 C1311 1.349 . S
C1296 C1294 1.327 . S
C1296 C1315 1.429 . S
C1296 H1320 0.950 . S
C1297 C1314 1.574 . S
C1297 C1316 1.368 . S
C1297 H1321 0.949 . S
H1298 C1302 0.949 . S
C1299 C1300 1.349 . S
C1299 C1301 1.327 . S
C1299 H1322 0.950 . S
C1300 C1299 1.349 . S
C1300 C1312 1.349 . S
C1301 C1299 1.327 . S
C1301 C1317 1.429 . S
C1301 H1323 0.950 . S
C1302 H1298 0.949 . S
C1302 C1310 1.574 . S
C1302 C1318 1.368 . S
H1303 C1311 0.950 . S
H1304 C1309 0.950 . S
H1305 C1310 0.949 . S
H1306 C1312 0.950 . S
H1307 C1313 0.950 . S
H1308 C1314 0.949 . S
C1309 H1304 0.950 . S
C1309 C1311 1.327 . S
C1309 C1315 1.429 . S
C1310 C1302 1.574 . S
C1310 H1305 0.949 . S
C1310 C1316 1.368 . S
C1311 C1295 1.349 . S
C1311 H1303 0.950 . S
C1311 C1309 1.327 . S
C1312 C1300 1.349 . S
C1312 H1306 0.950 . S
C1312 C1313 1.327 . S
C1313 H1307 0.950 . S
C1313 C1312 1.327 . S
C1313 C1317 1.429 . S
C1314 C1297 1.574 . S
C1314 H1308 0.949 . S
C1314 C1318 1.368 . S
C1315 C1296 1.429 . S
C1315 C1309 1.429 . S
C1315 C1316 1.523 . S
C1316 C1297 1.368 . S
C1316 C1310 1.368 . S
C1316 C1315 1.523 . S
C1317 C1301 1.429 . S
C1317 C1313 1.429 . S
C1317 C1318 1.523 . S
C1318 C1302 1.368 . S
C1318 C1314 1.368 . S
C1318 C1317 1.523 . S
H1319 C1294 0.950 . S
H1320 C1296 0.950 . S
H1321 C1297 0.949 . S
H1322 C1299 0.950 . S
H1323 C1301 0.950 . S
C1324 C1325 1.349 . S
C1324 C1326 1.327 . S
C1324 H1349 0.950 . S
C1325 C1324 1.349 . S
C1325 C1341 1.349 . S
C1326 C1324 1.327 . S
C1326 C1345 1.429 . S
C1326 H1350 0.950 . S
C1327 C1344 1.574 . S
C1327 C1346 1.368 . S
C1327 H1351 0.949 . S
H1328 C1332 0.949 . S
C1329 C1330 1.349 . S
C1329 C1331 1.327 . S
C1329 H1352 0.950 . S
C1330 C1329 1.349 . S
C1330 C1342 1.349 . S
C1331 C1329 1.327 . S
C1331 C1347 1.429 . S
C1331 H1353 0.950 . S
C1332 H1328 0.949 . S
C1332 C1340 1.574 . S
C1332 C1348 1.368 . S
H1333 C1341 0.950 . S
H1334 C1339 0.950 . S
H1335 C1340 0.949 . S
H1336 C1342 0.950 . S
H1337 C1343 0.950 . S
H1338 C1344 0.949 . S
C1339 H1334 0.950 . S
C1339 C1341 1.327 . S
C1339 C1345 1.429 . S
C1340 C1332 1.574 . S
C1340 H1335 0.949 . S
C1340 C1346 1.368 . S
C1341 C1325 1.349 . S
C1341 H1333 0.950 . S
C1341 C1339 1.327 . S
C1342 C1330 1.349 . S
C1342 H1336 0.950 . S
C1342 C1343 1.327 . S
C1343 H1337 0.950 . S
C1343 C1342 1.327 . S
C1343 C1347 1.429 . S
C1344 C1327 1.574 . S
C1344 H1338 0.949 . S
C1344 C1348 1.368 . S
C1345 C1326 1.429 . S
C1345 C1339 1.429 . S
C1345 C1346 1.523 . S
C1346 C1327 1.368 . S
C1346 C1340 1.368 . S
C1346 C1345 1.523 . S
C1347 C1331 1.429 . S
C1347 C1343 1.429 . S
C1347 C1348 1.523 . S
C1348 C1332 1.368 . S
C1348 C1344 1.368 . S
C1348 C1347 1.523 . S
H1349 C1324 0.950 . S
H1350 C1326 0.950 . S
H1351 C1327 0.949 . S
H1352 C1329 0.950 . S
H1353 C1331 0.950 . S
C1354 C1355 1.349 . S
C1354 C1356 1.327 . S
C1354 H1379 0.950 . S
C1355 C1354 1.349 . S
C1355 C1371 1.349 . S
C1356 C1354 1.327 . S
C1356 C1375 1.429 . S
C1356 H1380 0.950 . S
C1357 C1374 1.574 . S
C1357 C1376 1.368 . S
C1357 H1381 0.949 . S
H1358 C1362 0.949 . S
C1359 C1360 1.349 . S
C1359 C1361 1.327 . S
C1359 H1382 0.950 . S
C1360 C1359 1.349 . S
C1360 C1372 1.349 . S
C1361 C1359 1.327 . S
C1361 C1377 1.429 . S
C1361 H1383 0.950 . S
C1362 H1358 0.949 . S
C1362 C1370 1.574 . S
C1362 C1378 1.368 . S
H1363 C1371 0.950 . S
H1364 C1369 0.950 . S
H1365 C1370 0.949 . S
H1366 C1372 0.950 . S
H1367 C1373 0.950 . S
H1368 C1374 0.949 . S
C1369 H1364 0.950 . S
C1369 C1371 1.327 . S
C1369 C1375 1.429 . S
C1370 C1362 1.574 . S
C1370 H1365 0.949 . S
C1370 C1376 1.368 . S
C1371 C1355 1.349 . S
C1371 H1363 0.950 . S
C1371 C1369 1.327 . S
C1372 C1360 1.349 . S
C1372 H1366 0.950 . S
C1372 C1373 1.327 . S
C1373 H1367 0.950 . S
C1373 C1372 1.327 . S
C1373 C1377 1.429 . S
C1374 C1357 1.574 . S
C1374 H1368 0.949 . S
C1374 C1378 1.368 . S
C1375 C1356 1.429 . S
C1375 C1369 1.429 . S
C1375 C1376 1.523 . S
C1376 C1357 1.368 . S
C1376 C1370 1.368 . S
C1376 C1375 1.523 . S
C1377 C1361 1.429 . S
C1377 C1373 1.429 . S
C1377 C1378 1.523 . S
C1378 C1362 1.368 . S
C1378 C1374 1.368 . S
C1378 C1377 1.523 . S
H1379 C1354 0.950 . S
H1380 C1356 0.950 . S
H1381 C1357 0.949 . S
H1382 C1359 0.950 . S
H1383 C1361 0.950 . S
C1384 C1385 1.349 . S
C1384 C1386 1.327 . S
C1384 H1409 0.950 . S
C1385 C1384 1.349 . S
C1385 C1401 1.349 . S
C1386 C1384 1.327 . S
C1386 C1405 1.429 . S
C1386 H1410 0.950 . S
C1387 C1404 1.574 . S
C1387 C1406 1.368 . S
C1387 H1411 0.949 . S
H1388 C1392 0.949 . S
C1389 C1390 1.349 . S
C1389 C1391 1.327 . S
C1389 H1412 0.950 . S
C1390 C1389 1.349 . S
C1390 C1402 1.349 . S
C1391 C1389 1.327 . S
C1391 C1407 1.429 . S
C1391 H1413 0.950 . S
C1392 H1388 0.949 . S
C1392 C1400 1.574 . S
C1392 C1408 1.368 . S
H1393 C1401 0.950 . S
H1394 C1399 0.950 . S
H1395 C1400 0.949 . S
H1396 C1402 0.950 . S
H1397 C1403 0.950 . S
H1398 C1404 0.949 . S
C1399 H1394 0.950 . S
C1399 C1401 1.327 . S
C1399 C1405 1.429 . S
C1400 C1392 1.574 . S
C1400 H1395 0.949 . S
C1400 C1406 1.368 . S
C1401 C1385 1.349 . S
C1401 H1393 0.950 . S
C1401 C1399 1.327 . S
C1402 C1390 1.349 . S
C1402 H1396 0.950 . S
C1402 C1403 1.327 . S
C1403 H1397 0.950 . S
C1403 C1402 1.327 . S
C1403 C1407 1.429 . S
C1404 C1387 1.574 . S
C1404 H1398 0.949 . S
C1404 C1408 1.368 . S
C1405 C1386 1.429 . S
C1405 C1399 1.429 . S
C1405 C1406 1.523 . S
C1406 C1387 1.368 . S
C1406 C1400 1.368 . S
C1406 C1405 1.523 . S
C1407 C1391 1.429 . S
C1407 C1403 1.429 . S
C1407 C1408 1.523 . S
C1408 C1392 1.368 . S
C1408 C1404 1.368 . S
C1408 C1407 1.523 . S
H1409 C1384 0.950 . S
H1410 C1386 0.950 . S
H1411 C1387 0.949 . S
H1412 C1389 0.950 . S
H1413 C1391 0.950 . S
C1414 C1415 1.349 . S
C1414 C1416 1.327 . S
C1414 H1439 0.950 . S
C1415 C1414 1.349 . S
C1415 C1431 1.349 . S
C1416 C1414 1.327 . S
C1416 C1435 1.429 . S
C1416 H1440 0.950 . S
C1417 C1434 1.574 . S
C1417 C1436 1.368 . S
C1417 H1441 0.949 . S
H1418 C1422 0.949 . S
C1419 C1420 1.349 . S
C1419 C1421 1.327 . S
C1419 H1442 0.950 . S
C1420 C1419 1.349 . S
C1420 C1432 1.349 . S
C1421 C1419 1.327 . S
C1421 C1437 1.429 . S
C1421 H1443 0.950 . S
C1422 H1418 0.949 . S
C1422 C1430 1.574 . S
C1422 C1438 1.368 . S
H1423 C1431 0.950 . S
H1424 C1429 0.950 . S
H1425 C1430 0.949 . S
H1426 C1432 0.950 . S
H1427 C1433 0.950 . S
H1428 C1434 0.949 . S
C1429 H1424 0.950 . S
C1429 C1431 1.327 . S
C1429 C1435 1.429 . S
C1430 C1422 1.574 . S
C1430 H1425 0.949 . S
C1430 C1436 1.368 . S
C1431 C1415 1.349 . S
C1431 H1423 0.950 . S
C1431 C1429 1.327 . S
C1432 C1420 1.349 . S
C1432 H1426 0.950 . S
C1432 C1433 1.327 . S
C1433 H1427 0.950 . S
C1433 C1432 1.327 . S
C1433 C1437 1.429 . S
C1434 C1417 1.574 . S
C1434 H1428 0.949 . S
C1434 C1438 1.368 . S
C1435 C1416 1.429 . S
C1435 C1429 1.429 . S
C1435 C1436 1.523 . S
C1436 C1417 1.368 . S
C1436 C1430 1.368 . S
C1436 C1435 1.523 . S
C1437 C1421 1.429 . S
C1437 C1433 1.429 . S
C1437 C1438 1.523 . S
C1438 C1422 1.368 . S
C1438 C1434 1.368 . S
C1438 C1437 1.523 . S
H1439 C1414 0.950 . S
H1440 C1416 0.950 . S
H1441 C1417 0.949 . S
H1442 C1419 0.950 . S
H1443 C1421 0.950 . S
C1444 C1445 1.349 . S
C1444 C1446 1.327 . S
C1444 H1469 0.950 . S
C1445 C1444 1.349 . S
C1445 C1461 1.349 . S
C1446 C1444 1.327 . S
C1446 C1465 1.429 . S
C1446 H1470 0.950 . S
C1447 C1464 1.574 . S
C1447 C1466 1.368 . S
C1447 H1471 0.949 . S
H1448 C1452 0.949 . S
C1449 C1450 1.349 . S
C1449 C1451 1.327 . S
C1449 H1472 0.950 . S
C1450 C1449 1.349 . S
C1450 C1462 1.349 . S
C1451 C1449 1.327 . S
C1451 C1467 1.429 . S
C1451 H1473 0.950 . S
C1452 H1448 0.949 . S
C1452 C1460 1.574 . S
C1452 C1468 1.368 . S
H1453 C1461 0.950 . S
H1454 C1459 0.950 . S
H1455 C1460 0.949 . S
H1456 C1462 0.950 . S
H1457 C1463 0.950 . S
H1458 C1464 0.949 . S
C1459 H1454 0.950 . S
C1459 C1461 1.327 . S
C1459 C1465 1.429 . S
C1460 C1452 1.574 . S
C1460 H1455 0.949 . S
C1460 C1466 1.368 . S
C1461 C1445 1.349 . S
C1461 H1453 0.950 . S
C1461 C1459 1.327 . S
C1462 C1450 1.349 . S
C1462 H1456 0.950 . S
C1462 C1463 1.327 . S
C1463 H1457 0.950 . S
C1463 C1462 1.327 . S
C1463 C1467 1.429 . S
C1464 C1447 1.574 . S
C1464 H1458 0.949 . S
C1464 C1468 1.368 . S
C1465 C1446 1.429 . S
C1465 C1459 1.429 . S
C1465 C1466 1.523 . S
C1466 C1447 1.368 . S
C1466 C1460 1.368 . S
C1466 C1465 1.523 . S
C1467 C1451 1.429 . S
C1467 C1463 1.429 . S
C1467 C1468 1.523 . S
C1468 C1452 1.368 . S
C1468 C1464 1.368 . S
C1468 C1467 1.523 . S
H1469 C1444 0.950 . S
H1470 C1446 0.950 . S
H1471 C1447 0.949 . S
H1472 C1449 0.950 . S
H1473 C1451 0.950 . S
C1474 C1475 1.349 . S
C1474 C1476 1.327 . S
C1474 H1499 0.950 . S
C1475 C1474 1.349 . S
C1475 C1491 1.349 . S
C1476 C1474 1.327 . S
C1476 C1495 1.429 . S
C1476 H1500 0.950 . S
C1477 C1494 1.574 . S
C1477 C1496 1.368 . S
C1477 H1501 0.949 . S
H1478 C1482 0.949 . S
C1479 C1480 1.349 . S
C1479 C1481 1.327 . S
C1479 H1502 0.950 . S
C1480 C1479 1.349 . S
C1480 C1492 1.349 . S
C1481 C1479 1.327 . S
C1481 C1497 1.429 . S
C1481 H1503 0.950 . S
C1482 H1478 0.949 . S
C1482 C1490 1.574 . S
C1482 C1498 1.368 . S
H1483 C1491 0.950 . S
H1484 C1489 0.950 . S
H1485 C1490 0.949 . S
H1486 C1492 0.950 . S
H1487 C1493 0.950 . S
H1488 C1494 0.949 . S
C1489 H1484 0.950 . S
C1489 C1491 1.327 . S
C1489 C1495 1.429 . S
C1490 C1482 1.574 . S
C1490 H1485 0.949 . S
C1490 C1496 1.368 . S
C1491 C1475 1.349 . S
C1491 H1483 0.950 . S
C1491 C1489 1.327 . S
C1492 C1480 1.349 . S
C1492 H1486 0.950 . S
C1492 C1493 1.327 . S
C1493 H1487 0.950 . S
C1493 C1492 1.327 . S
C1493 C1497 1.429 . S
C1494 C1477 1.574 . S
C1494 H1488 0.949 . S
C1494 C1498 1.368 . S
C1495 C1476 1.429 . S
C1495 C1489 1.429 . S
C1495 C1496 1.523 . S
C1496 C1477 1.368 . S
C1496 C1490 1.368 . S
C1496 C1495 1.523 . S
C1497 C1481 1.429 . S
C1497 C1493 1.429 . S
C1497 C1498 1.523 . S
C1498 C1482 1.368 . S
C1498 C1494 1.368 . S
C1498 C1497 1.523 . S
H1499 C1474 0.950 . S
H1500 C1476 0.950 . S
H1501 C1477 0.949 . S
H1502 C1479 0.950 . S
H1503 C1481 0.950 . S
C1504 C1505 1.349 . S
C1504 C1506 1.327 . S
C1504 H1529 0.950 . S
C1505 C1504 1.349 . S
C1505 C1521 1.349 . S
C1506 C1504 1.327 . S
C1506 C1525 1.429 . S
C1506 H1530 0.950 1_545 S
C1507 C1524 1.574 . S
C1507 C1526 1.368 . S
C1507 H1531 0.949 . S
H1508 C1512 0.949 . S
C1509 C1510 1.349 . S
C1509 C1511 1.327 . S
C1509 H1532 0.950 . S
C1510 C1509 1.349 . S
C1510 C1522 1.349 . S
C1511 C1509 1.327 . S
C1511 C1527 1.429 . S
C1511 H1533 0.950 1_565 S
C1512 H1508 0.949 . S
C1512 C1520 1.574 . S
C1512 C1528 1.368 . S
H1513 C1521 0.950 . S
H1514 C1519 0.950 . S
H1515 C1520 0.949 . S
H1516 C1522 0.950 . S
H1517 C1523 0.950 . S
H1518 C1524 0.949 . S
C1519 H1514 0.950 . S
C1519 C1521 1.327 . S
C1519 C1525 1.429 . S
C1520 C1512 1.574 . S
C1520 H1515 0.949 . S
C1520 C1526 1.368 1_565 S
C1521 C1505 1.349 . S
C1521 H1513 0.950 . S
C1521 C1519 1.327 . S
C1522 C1510 1.349 . S
C1522 H1516 0.950 . S
C1522 C1523 1.327 . S
C1523 H1517 0.950 . S
C1523 C1522 1.327 . S
C1523 C1527 1.429 . S
C1524 C1507 1.574 . S
C1524 H1518 0.949 . S
C1524 C1528 1.368 1_545 S
C1525 C1506 1.429 . S
C1525 C1519 1.429 . S
C1525 C1526 1.523 . S
C1526 C1507 1.368 . S
C1526 C1520 1.368 1_545 S
C1526 C1525 1.523 . S
C1527 C1511 1.429 . S
C1527 C1523 1.429 . S
C1527 C1528 1.523 . S
C1528 C1512 1.368 . S
C1528 C1524 1.368 1_565 S
C1528 C1527 1.523 . S
H1529 C1504 0.950 . S
H1530 C1506 0.950 1_565 S
H1531 C1507 0.949 . S
H1532 C1509 0.950 . S
H1533 C1511 0.950 1_545 S
C1534 C1535 1.349 . S
C1534 C1536 1.327 . S
C1534 H1559 0.950 . S
C1535 C1534 1.349 . S
C1535 C1551 1.349 . S
C1536 C1534 1.327 . S
C1536 C1555 1.429 . S
C1536 H1560 0.950 . S
C1537 C1554 1.574 . S
C1537 C1556 1.368 . S
C1537 H1561 0.949 . S
H1538 C1542 0.949 . S
C1539 C1540 1.349 . S
C1539 C1541 1.327 . S
C1539 H1562 0.950 . S
C1540 C1539 1.349 . S
C1540 C1552 1.349 . S
C1541 C1539 1.327 . S
C1541 C1557 1.429 . S
C1541 H1563 0.950 . S
C1542 H1538 0.949 . S
C1542 C1550 1.574 . S
C1542 C1558 1.368 . S
H1543 C1551 0.950 . S
H1544 C1549 0.950 . S
H1545 C1550 0.949 . S
H1546 C1552 0.950 . S
H1547 C1553 0.950 . S
H1548 C1554 0.949 . S
C1549 H1544 0.950 . S
C1549 C1551 1.327 . S
C1549 C1555 1.429 . S
C1550 C1542 1.574 . S
C1550 H1545 0.949 . S
C1550 C1556 1.368 1_455 S
C1551 C1535 1.349 . S
C1551 H1543 0.950 . S
C1551 C1549 1.327 . S
C1552 C1540 1.349 . S
C1552 H1546 0.950 . S
C1552 C1553 1.327 . S
C1553 H1547 0.950 . S
C1553 C1552 1.327 . S
C1553 C1557 1.429 . S
C1554 C1537 1.574 . S
C1554 H1548 0.949 . S
C1554 C1558 1.368 1_655 S
C1555 C1536 1.429 . S
C1555 C1549 1.429 . S
C1555 C1556 1.523 . S
C1556 C1537 1.368 . S
C1556 C1550 1.368 1_655 S
C1556 C1555 1.523 . S
C1557 C1541 1.429 . S
C1557 C1553 1.429 . S
C1557 C1558 1.523 . S
C1558 C1542 1.368 . S
C1558 C1554 1.368 1_455 S
C1558 C1557 1.523 . S
H1559 C1534 0.950 . S
H1560 C1536 0.950 . S
H1561 C1537 0.949 . S
H1562 C1539 0.950 . S
H1563 C1541 0.950 . S
C1564 C1565 1.349 . S
C1564 C1566 1.327 . S
C1564 H1589 0.950 . S
C1565 C1564 1.349 . S
C1565 C1581 1.349 . S
C1566 C1564 1.327 . S
C1566 C1585 1.429 . S
C1566 H1590 0.950 . S
C1567 C1584 1.574 . S
C1567 C1586 1.368 . S
C1567 H1591 0.949 . S
H1568 C1572 0.949 . S
C1569 C1570 1.349 . S
C1569 C1571 1.327 . S
C1569 H1592 0.950 . S
C1570 C1569 1.349 . S
C1570 C1582 1.349 . S
C1571 C1569 1.327 . S
C1571 C1587 1.429 . S
C1571 H1593 0.950 . S
C1572 H1568 0.949 . S
C1572 C1580 1.574 . S
C1572 C1588 1.368 . S
H1573 C1581 0.950 . S
H1574 C1579 0.950 . S
H1575 C1580 0.949 . S
H1576 C1582 0.950 . S
H1577 C1583 0.950 . S
H1578 C1584 0.949 . S
C1579 H1574 0.950 . S
C1579 C1581 1.327 . S
C1579 C1585 1.429 . S
C1580 C1572 1.574 . S
C1580 H1575 0.949 . S
C1580 C1586 1.368 1_545 S
C1581 C1565 1.349 . S
C1581 H1573 0.950 . S
C1581 C1579 1.327 . S
C1582 C1570 1.349 . S
C1582 H1576 0.950 . S
C1582 C1583 1.327 . S
C1583 H1577 0.950 . S
C1583 C1582 1.327 . S
C1583 C1587 1.429 . S
C1584 C1567 1.574 . S
C1584 H1578 0.949 . S
C1584 C1588 1.368 1_565 S
C1585 C1566 1.429 . S
C1585 C1579 1.429 . S
C1585 C1586 1.523 . S
C1586 C1567 1.368 . S
C1586 C1580 1.368 1_565 S
C1586 C1585 1.523 . S
C1587 C1571 1.429 . S
C1587 C1583 1.429 . S
C1587 C1588 1.523 . S
C1588 C1572 1.368 . S
C1588 C1584 1.368 1_545 S
C1588 C1587 1.523 . S
H1589 C1564 0.950 . S
H1590 C1566 0.950 . S
H1591 C1567 0.949 . S
H1592 C1569 0.950 . S
H1593 C1571 0.950 . S
C1594 C1595 1.349 . S
C1594 C1596 1.327 . S
C1594 H1619 0.950 . S
C1595 C1594 1.349 . S
C1595 C1611 1.349 . S
C1596 C1594 1.327 . S
C1596 C1615 1.429 . S
C1596 H1620 0.950 . S
C1597 C1614 1.574 . S
C1597 C1616 1.368 1_455 S
C1597 H1621 0.949 . S
H1598 C1602 0.949 . S
C1599 C1600 1.349 . S
C1599 C1601 1.327 . S
C1599 H1622 0.950 . S
C1600 C1599 1.349 . S
C1600 C1612 1.349 . S
C1601 C1599 1.327 . S
C1601 C1617 1.429 . S
C1601 H1623 0.950 . S
C1602 H1598 0.949 . S
C1602 C1610 1.574 . S
C1602 C1618 1.368 1_655 S
H1603 C1611 0.950 . S
H1604 C1609 0.950 . S
H1605 C1610 0.949 . S
H1606 C1612 0.950 . S
H1607 C1613 0.950 . S
H1608 C1614 0.949 . S
C1609 H1604 0.950 . S
C1609 C1611 1.327 . S
C1609 C1615 1.429 . S
C1610 C1602 1.574 . S
C1610 H1605 0.949 . S
C1610 C1616 1.368 . S
C1611 C1595 1.349 . S
C1611 H1603 0.950 . S
C1611 C1609 1.327 . S
C1612 C1600 1.349 . S
C1612 H1606 0.950 . S
C1612 C1613 1.327 . S
C1613 H1607 0.950 . S
C1613 C1612 1.327 . S
C1613 C1617 1.429 . S
C1614 C1597 1.574 . S
C1614 H1608 0.949 . S
C1614 C1618 1.368 . S
C1615 C1596 1.429 . S
C1615 C1609 1.429 . S
C1615 C1616 1.523 . S
C1616 C1597 1.368 1_655 S
C1616 C1610 1.368 . S
C1616 C1615 1.523 . S
C1617 C1601 1.429 . S
C1617 C1613 1.429 . S
C1617 C1618 1.523 . S
C1618 C1602 1.368 1_455 S
C1618 C1614 1.368 . S
C1618 C1617 1.523 . S
H1619 C1594 0.950 . S
H1620 C1596 0.950 . S
H1621 C1597 0.949 . S
H1622 C1599 0.950 . S
H1623 C1601 0.950 . S
C1624 C1625 1.349 . S
C1624 C1626 1.327 . S
C1624 H1649 0.950 . S
C1625 C1624 1.349 . S
C1625 C1641 1.349 . S
C1626 C1624 1.327 . S
C1626 C1645 1.429 . S
C1626 H1650 0.950 . S
C1627 C1644 1.574 1_556 S
C1627 C1646 1.368 . S
C1627 H1651 0.949 . S
H1628 C1632 0.949 . S
C1629 C1630 1.349 . S
C1629 C1631 1.327 . S
C1629 H1652 0.950 . S
C1630 C1629 1.349 . S
C1630 C1642 1.349 . S
C1631 C1629 1.327 . S
C1631 C1647 1.429 . S
C1631 H1653 0.950 . S
C1632 H1628 0.949 . S
C1632 C1640 1.574 1_554 S
C1632 C1648 1.368 . S
H1633 C1641 0.950 . S
H1634 C1639 0.950 . S
H1635 C1640 0.949 . S
H1636 C1642 0.950 . S
H1637 C1643 0.950 . S
H1638 C1644 0.949 . S
C1639 H1634 0.950 . S
C1639 C1641 1.327 . S
C1639 C1645 1.429 . S
C1640 C1632 1.574 1_556 S
C1640 H1635 0.949 . S
C1640 C1646 1.368 . S
C1641 C1625 1.349 . S
C1641 H1633 0.950 . S
C1641 C1639 1.327 . S
C1642 C1630 1.349 . S
C1642 H1636 0.950 . S
C1642 C1643 1.327 . S
C1643 H1637 0.950 . S
C1643 C1642 1.327 . S
C1643 C1647 1.429 . S
C1644 C1627 1.574 1_554 S
C1644 H1638 0.949 . S
C1644 C1648 1.368 . S
C1645 C1626 1.429 . S
C1645 C1639 1.429 . S
C1645 C1646 1.523 . S
C1646 C1627 1.368 . S
C1646 C1640 1.368 . S
C1646 C1645 1.523 . S
C1647 C1631 1.429 . S
C1647 C1643 1.429 . S
C1647 C1648 1.523 . S
C1648 C1632 1.368 . S
C1648 C1644 1.368 . S
C1648 C1647 1.523 . S
H1649 C1624 0.950 . S
H1650 C1626 0.950 . S
H1651 C1627 0.949 . S
H1652 C1629 0.950 . S
H1653 C1631 0.950 . S
C1654 C1655 1.349 . S
C1654 C1656 1.327 . S
C1654 H1679 0.950 . S
C1655 C1654 1.349 . S
C1655 C1671 1.349 . S
C1656 C1654 1.327 . S
C1656 C1675 1.429 . S
C1656 H1680 0.950 . S
C1657 C1674 1.574 1_556 S
C1657 C1676 1.368 . S
C1657 H1681 0.949 . S
H1658 C1662 0.949 . S
C1659 C1660 1.349 . S
C1659 C1661 1.327 . S
C1659 H1682 0.950 . S
C1660 C1659 1.349 . S
C1660 C1672 1.349 . S
C1661 C1659 1.327 . S
C1661 C1677 1.429 . S
C1661 H1683 0.950 . S
C1662 H1658 0.949 . S
C1662 C1670 1.574 1_554 S
C1662 C1678 1.368 . S
H1663 C1671 0.950 . S
H1664 C1669 0.950 . S
H1665 C1670 0.949 . S
H1666 C1672 0.950 . S
H1667 C1673 0.950 . S
H1668 C1674 0.949 . S
C1669 H1664 0.950 . S
C1669 C1671 1.327 . S
C1669 C1675 1.429 . S
C1670 C1662 1.574 1_556 S
C1670 H1665 0.949 . S
C1670 C1676 1.368 . S
C1671 C1655 1.349 . S
C1671 H1663 0.950 . S
C1671 C1669 1.327 . S
C1672 C1660 1.349 . S
C1672 H1666 0.950 . S
C1672 C1673 1.327 . S
C1673 H1667 0.950 . S
C1673 C1672 1.327 . S
C1673 C1677 1.429 . S
C1674 C1657 1.574 1_554 S
C1674 H1668 0.949 . S
C1674 C1678 1.368 . S
C1675 C1656 1.429 . S
C1675 C1669 1.429 . S
C1675 C1676 1.523 . S
C1676 C1657 1.368 . S
C1676 C1670 1.368 . S
C1676 C1675 1.523 . S
C1677 C1661 1.429 . S
C1677 C1673 1.429 . S
C1677 C1678 1.523 . S
C1678 C1662 1.368 . S
C1678 C1674 1.368 . S
C1678 C1677 1.523 . S
H1679 C1654 0.950 . S
H1680 C1656 0.950 . S
H1681 C1657 0.949 . S
H1682 C1659 0.950 . S
H1683 C1661 0.950 . S
C1684 C1685 1.349 . S
C1684 C1686 1.327 . S
C1684 H1709 0.950 . S
C1685 C1684 1.349 . S
C1685 C1701 1.349 . S
C1686 C1684 1.327 . S
C1686 C1705 1.429 . S
C1686 H1710 0.950 . S
C1687 C1704 1.574 1_554 S
C1687 C1706 1.368 . S
C1687 H1711 0.949 . S
H1688 C1692 0.949 . S
C1689 C1690 1.349 . S
C1689 C1691 1.327 . S
C1689 H1712 0.950 . S
C1690 C1689 1.349 . S
C1690 C1702 1.349 . S
C1691 C1689 1.327 . S
C1691 C1707 1.429 . S
C1691 H1713 0.950 . S
C1692 H1688 0.949 . S
C1692 C1700 1.574 1_556 S
C1692 C1708 1.368 . S
H1693 C1701 0.950 . S
H1694 C1699 0.950 . S
H1695 C1700 0.949 . S
H1696 C1702 0.950 . S
H1697 C1703 0.950 . S
H1698 C1704 0.949 . S
C1699 H1694 0.950 . S
C1699 C1701 1.327 . S
C1699 C1705 1.429 . S
C1700 C1692 1.574 1_554 S
C1700 H1695 0.949 . S
C1700 C1706 1.368 . S
C1701 C1685 1.349 . S
C1701 H1693 0.950 . S
C1701 C1699 1.327 . S
C1702 C1690 1.349 . S
C1702 H1696 0.950 . S
C1702 C1703 1.327 . S
C1703 H1697 0.950 . S
C1703 C1702 1.327 . S
C1703 C1707 1.429 . S
C1704 C1687 1.574 1_556 S
C1704 H1698 0.949 . S
C1704 C1708 1.368 . S
C1705 C1686 1.429 . S
C1705 C1699 1.429 . S
C1705 C1706 1.523 . S
C1706 C1687 1.368 . S
C1706 C1700 1.368 . S
C1706 C1705 1.523 . S
C1707 C1691 1.429 . S
C1707 C1703 1.429 . S
C1707 C1708 1.523 . S
C1708 C1692 1.368 . S
C1708 C1704 1.368 . S
C1708 C1707 1.523 . S
H1709 C1684 0.950 . S
H1710 C1686 0.950 . S
H1711 C1687 0.949 . S
H1712 C1689 0.950 . S
H1713 C1691 0.950 . S
C1714 C1715 1.349 . S
C1714 C1716 1.327 . S
C1714 H1739 0.950 . S
C1715 C1714 1.349 . S
C1715 C1731 1.349 . S
C1716 C1714 1.327 . S
C1716 C1735 1.429 . S
C1716 H1740 0.950 . S
C1717 C1734 1.574 1_556 S
C1717 C1736 1.368 . S
C1717 H1741 0.949 . S
H1718 C1722 0.949 . S
C1719 C1720 1.349 . S
C1719 C1721 1.327 . S
C1719 H1742 0.950 . S
C1720 C1719 1.349 . S
C1720 C1732 1.349 . S
C1721 C1719 1.327 . S
C1721 C1737 1.429 . S
C1721 H1743 0.950 . S
C1722 H1718 0.949 . S
C1722 C1730 1.574 1_554 S
C1722 C1738 1.368 . S
H1723 C1731 0.950 . S
H1724 C1729 0.950 . S
H1725 C1730 0.949 . S
H1726 C1732 0.950 . S
H1727 C1733 0.950 . S
H1728 C1734 0.949 . S
C1729 H1724 0.950 . S
C1729 C1731 1.327 . S
C1729 C1735 1.429 . S
C1730 C1722 1.574 1_556 S
C1730 H1725 0.949 . S
C1730 C1736 1.368 . S
C1731 C1715 1.349 . S
C1731 H1723 0.950 . S
C1731 C1729 1.327 . S
C1732 C1720 1.349 . S
C1732 H1726 0.950 . S
C1732 C1733 1.327 . S
C1733 H1727 0.950 . S
C1733 C1732 1.327 . S
C1733 C1737 1.429 . S
C1734 C1717 1.574 1_554 S
C1734 H1728 0.949 . S
C1734 C1738 1.368 . S
C1735 C1716 1.429 . S
C1735 C1729 1.429 . S
C1735 C1736 1.523 . S
C1736 C1717 1.368 . S
C1736 C1730 1.368 . S
C1736 C1735 1.523 . S
C1737 C1721 1.429 . S
C1737 C1733 1.429 . S
C1737 C1738 1.523 . S
C1738 C1722 1.368 . S
C1738 C1734 1.368 . S
C1738 C1737 1.523 . S
H1739 C1714 0.950 . S
H1740 C1716 0.950 . S
H1741 C1717 0.949 . S
H1742 C1719 0.950 . S
H1743 C1721 0.950 . S
C545 C9 1.990 1_565 S
C550 C104 2.007 . S
C575 C2 2.007 . S
C580 C43 1.990 1_455 S
C605 C77 1.990 1_545 S
C610 C36 2.007 . S
C635 C70 2.007 . S
C640 C111 1.990 1_655 S
C665 C172 2.007 . S
C670 C145 1.990 1_545 S
C695 C206 2.007 . S
C700 C179 1.990 1_655 S
C725 C240 2.007 . S
C730 C213 1.990 1_565 S
C755 C247 1.990 1_455 S
C760 C138 2.007 . S
C785 C281 1.990 . S
C790 C376 2.007 . S
C815 C315 1.990 . S
C820 C274 2.007 . S
C845 C349 1.990 . S
C850 C308 2.007 . S
C875 C342 2.007 . S
C880 C383 1.990 . S
C905 C444 2.007 . S
C910 C417 1.990 . S
C935 C451 1.990 . S
C940 C478 2.007 . S
C965 C485 1.990 . S
C970 C512 2.007 . S
C995 C519 1.990 . S
C1000 C410 2.007 . S
C1025 C5 0.902 . S
C1030 C175 0.902 . S
C1055 C39 0.902 . S
C1060 C209 0.902 . S
C1085 C243 0.902 . S
C1090 C73 0.902 . S
C1115 C107 0.902 . S
C1120 C141 0.902 . S
C1145 C277 0.902 . S
C1150 C447 0.902 . S
C1175 C311 0.902 . S
C1180 C481 0.902 . S
C1205 C345 0.902 . S
C1210 C515 0.902 . S
C1235 C379 0.902 . S
C1240 C413 0.902 . S
C1265 C33 0.512 . S
C1270 C543 0.512 . S
C1295 C441 0.512 . S
C1300 C67 0.512 . S
C1325 C101 0.513 . S
C1330 C475 0.513 . S
C1355 C135 0.512 . S
C1360 C509 0.512 . S
C1385 C339 0.512 . S
C1390 C169 0.512 . S
C1415 C373 0.513 . S
C1420 C203 0.513 . S
C1445 C407 0.512 . S
C1450 C237 0.512 . S
C1475 C305 0.512 . S
C1480 C271 0.512 . S
C1505 C20 0.973 . S
C1510 C156 0.973 . S
C1535 C54 0.973 . S
C1540 C190 0.973 . S
C1565 C88 0.973 . S
C1570 C224 0.973 . S
C1595 C258 0.973 . S
C1600 C122 0.973 . S
C1625 C292 0.973 . S
C1630 C428 0.973 . S
C1655 C326 0.973 . S
C1660 C462 0.973 . S
C1685 C496 0.973 . S
C1690 C360 0.973 . S
C1715 C394 0.973 . S
C1720 C530 0.973 . S
