# Generated by pormake.
# Topology smc, (6)-cn, num edge types: 1
# Building blocks:
#     Node 0, Type 0, BuildingBlock: PAMTOO_clean_sbu_0, # of connection points: 6
#     Node 1, Type 0, BuildingBlock: PAMTOO_clean_sbu_0, # of connection points: 6
#     Node 2, Type 0, BuildingBlock: PAMTOO_clean_sbu_0, # of connection points: 6
#     Node 3, Type 0, BuildingBlock: PAMTOO_clean_sbu_0, # of connection points: 6
#     Node 4, Type 0, BuildingBlock: PAMTOO_clean_sbu_0, # of connection points: 6
#     Node 5, Type 0, BuildingBlock: PAMTOO_clean_sbu_0, # of connection points: 6
#     Node 6, Type 0, BuildingBlock: PAMTOO_clean_sbu_0, # of connection points: 6
#     Node 7, Type 0, BuildingBlock: PAMTOO_clean_sbu_0, # of connection points: 6
#     Node 8, Type 0, BuildingBlock: PAMTOO_clean_sbu_0, # of connection points: 6
#     Edge 9, Type (0, 0), BuildingBlock: MIFKUJ_clean_linker_0, # of connection points: 2
#     Edge 10, Type (0, 0), BuildingBlock: MIFKUJ_clean_linker_0, # of connection points: 2
#     Edge 11, Type (0, 0), BuildingBlock: MIFKUJ_clean_linker_0, # of connection points: 2
#     Edge 12, Type (0, 0), BuildingBlock: MIFKUJ_clean_linker_0, # of connection points: 2
#     Edge 13, Type (0, 0), BuildingBlock: MIFKUJ_clean_linker_0, # of connection points: 2
#     Edge 14, Type (0, 0), BuildingBlock: MIFKUJ_clean_linker_0, # of connection points: 2
#     Edge 15, Type (0, 0), BuildingBlock: MIFKUJ_clean_linker_0, # of connection points: 2
#     Edge 16, Type (0, 0), BuildingBlock: MIFKUJ_clean_linker_0, # of connection points: 2
#     Edge 17, Type (0, 0), BuildingBlock: MIFKUJ_clean_linker_0, # of connection points: 2
#     Edge 18, Type (0, 0), BuildingBlock: MIFKUJ_clean_linker_0, # of connection points: 2
#     Edge 19, Type (0, 0), BuildingBlock: MIFKUJ_clean_linker_0, # of connection points: 2
#     Edge 20, Type (0, 0), BuildingBlock: MIFKUJ_clean_linker_0, # of connection points: 2
#     Edge 21, Type (0, 0), BuildingBlock: MIFKUJ_clean_linker_0, # of connection points: 2
#     Edge 22, Type (0, 0), BuildingBlock: MIFKUJ_clean_linker_0, # of connection points: 2
#     Edge 23, Type (0, 0), BuildingBlock: MIFKUJ_clean_linker_0, # of connection points: 2
#     Edge 24, Type (0, 0), BuildingBlock: MIFKUJ_clean_linker_0, # of connection points: 2
#     Edge 25, Type (0, 0), BuildingBlock: MIFKUJ_clean_linker_0, # of connection points: 2
#     Edge 26, Type (0, 0), BuildingBlock: MIFKUJ_clean_linker_0, # of connection points: 2
#     Edge 27, Type (0, 0), BuildingBlock: MIFKUJ_clean_linker_0, # of connection points: 2
#     Edge 28, Type (0, 0), BuildingBlock: MIFKUJ_clean_linker_0, # of connection points: 2
#     Edge 29, Type (0, 0), BuildingBlock: MIFKUJ_clean_linker_0, # of connection points: 2
#     Edge 30, Type (0, 0), BuildingBlock: MIFKUJ_clean_linker_0, # of connection points: 2
#     Edge 31, Type (0, 0), BuildingBlock: MIFKUJ_clean_linker_0, # of connection points: 2
#     Edge 32, Type (0, 0), BuildingBlock: MIFKUJ_clean_linker_0, # of connection points: 2
#     Edge 33, Type (0, 0), BuildingBlock: MIFKUJ_clean_linker_0, # of connection points: 2
#     Edge 34, Type (0, 0), BuildingBlock: MIFKUJ_clean_linker_0, # of connection points: 2
#     Edge 35, Type (0, 0), BuildingBlock: MIFKUJ_clean_linker_0, # of connection points: 2
# Relax obj value: 0.233
# Max RMSD: 0.319
# Mean RMSD: 0.291
data_MOF--net-smc--node1-PAMTOO_clean_sbu_0--edge1-MIFKUJ_clean_linker_0
_symmetry_space_group_name_H-M    P1
_symmetry_Int_Tables_number       1
_symmetry_cell_setting            triclinic
loop_
_symmetry_equiv_pos_as_xyz
'x, y, z'
_cell_length_a     52.064228
_cell_length_b     41.407141
_cell_length_c     52.498984
_cell_angle_alpha  90.421283
_cell_angle_beta   90.526122
_cell_angle_gamma 119.66794
loop_
_atom_site_label
_atom_site_type_symbol
_atom_site_fract_x
_atom_site_fract_y
_atom_site_fract_z
_atom_type_partial_charge
Dy0 Dy 0.06044 0.40834 1.00679 0.0
Dy1 Dy 0.03584 0.46174 0.02501 0.0
C2 C 0.07113 0.43873 0.06415 0.0
O3 O 1.01107 0.37233 1.00786 0.0
O4 O 1.00486 0.4055 0.03943 0.0
O5 O 0.06198 0.3576 1.01165 0.0
O6 O 0.08652 0.39545 0.98141 0.0
O7 O 1.00986 0.4342 0.98872 0.0
O8 O 0.0441 0.42197 0.97092 0.0
O9 O 0.0756 0.49611 1.00204 0.0
O10 O 0.1002 0.46592 0.01299 0.0
O11 O 1.0321 0.51071 0.01928 0.0
O12 O 1.01284 0.4768 0.05246 0.0
C13 C 0.99455 0.37532 0.0254 0.0
O14 O 0.06293 0.40939 0.04942 0.0
O15 O 0.06812 0.46679 0.0561 0.0
C16 C 0.10958 0.36813 1.00339 0.0
C17 C 0.16895 0.38915 0.01269 0.0
C18 C 0.15404 0.40099 0.02923 0.0
C19 C 0.1246 0.39057 0.02458 0.0
C20 C 0.12318 0.35289 0.98849 0.0
C21 C 0.15269 0.36304 0.99329 0.0
C22 C 0.08234 0.36661 0.99453 0.0
C23 C 1.01999 0.4246 0.96879 0.0
C24 C 0.10055 0.49667 1.00617 0.0
C25 C 0.98714 0.50323 0.03297 0.0
C26 C 0.93579 0.50472 0.01853 0.0
C27 C 0.93866 0.47354 0.01261 0.0
C28 C 0.96428 0.47287 0.01972 0.0
C29 C 0.98409 0.53392 0.03942 0.0
C30 C 0.95855 0.53465 0.03232 0.0
C31 C 1.01488 0.504 0.03869 0.0
H32 H 0.1657 0.42135 0.04418 0.0
H33 H 0.11438 0.40269 0.03624 0.0
H34 H 0.11174 0.33538 0.97211 0.0
H35 H 0.1634 0.3528 0.98057 0.0
H36 H 0.92145 0.45017 1.00201 0.0
H37 H 0.96652 0.449 0.01452 0.0
H38 H 1.0016 0.5575 0.04964 0.0
H39 H 0.95661 0.55868 0.03761 0.0
Dy40 Dy 0.60941 0.61838 0.02405 0.0
Dy41 Dy 0.5511 0.58737 0.99362 0.0
C42 C 0.61328 0.61458 0.96343 0.0
O43 O 0.596 0.66524 0.02674 0.0
O44 O 0.5672 0.64886 0.99114 0.0
O45 O 0.6523 0.66448 0.03427 0.0
O46 O 0.63478 0.61317 0.05494 0.0
O47 O 0.54551 0.60527 0.03418 0.0
O48 O 0.5738 0.58461 0.05043 0.0
O49 O 0.55003 0.53324 1.00373 0.0
O50 O 0.59897 0.55773 0.01364 0.0
O51 O 0.50354 0.55405 0.99318 0.0
O52 O 0.5266 0.58372 0.9594 0.0
C53 C 0.58075 0.67318 1.00963 0.0
O54 O 0.62693 0.63027 0.98481 0.0
O55 O 0.58421 0.59271 0.96295 0.0
C56 C 0.68447 0.64191 0.04438 0.0
C57 C 0.72667 0.62102 0.03252 0.0
C58 C 0.71314 0.63065 0.01309 0.0
C59 C 0.69221 0.64098 0.01895 0.0
C60 C 0.69904 0.63428 0.06396 0.0
C61 C 0.72015 0.62403 0.05808 0.0
C62 C 0.65814 0.64465 0.04994 0.0
C63 C 0.55554 0.5965 0.0546 0.0
C64 C 0.57246 0.5278 1.00896 0.0
C65 C 0.48388 0.58493 0.97005 0.0
C66 C 0.44835 0.61833 0.97217 0.0
C67 C 0.47531 0.63402 0.98572 0.0
C68 C 0.49266 0.61705 0.98497 0.0
C69 C 0.45837 0.57083 0.95492 0.0
C70 C 0.44062 0.58727 0.95603 0.0
C71 C 0.5013 0.56614 0.97082 0.0
H72 H 0.71792 0.62891 0.99329 0.0
H73 H 0.68106 0.64641 1.00346 0.0
H74 H 0.69296 0.63429 0.08363 0.0
H75 H 0.73009 0.61642 0.07342 0.0
H76 H 0.48212 0.65802 0.9981 0.0
H77 H 0.51231 0.62812 0.9969 0.0
H78 H 0.45147 0.54619 0.94318 0.0
H79 H 0.41978 0.57376 0.94564 0.0
Dy80 Dy 0.46986 1.02952 1.01171 0.0
Dy81 Dy 0.53571 0.07604 0.03262 0.0
C82 C 0.48137 1.03053 0.07022 0.0
O83 O 0.48116 0.09335 0.01425 0.0
O84 O 0.52983 0.12527 0.02739 0.0
O85 O 0.42416 1.01014 0.02136 0.0
O86 O 0.43476 0.99641 0.98455 0.0
O87 O 0.53596 0.09373 0.99104 0.0
O88 O 0.49327 0.04446 0.97541 0.0
O89 O 0.52861 1.01704 0.03091 0.0
O90 O 0.48526 0.98555 1.00846 0.0
O91 O 0.57925 0.08325 0.02937 0.0
O92 O 0.57022 0.11261 0.05937 0.0
C93 C 0.50591 0.12592 0.02011 0.0
O94 O 0.46992 1.00853 0.05052 0.0
O95 O 0.50557 0.06276 0.06712 0.0
C96 C 0.39038 0.95065 1.00316 0.0
C97 C 0.34556 0.87472 1.00647 0.0
C98 C 0.3675 0.89167 0.02572 0.0
C99 C 0.38963 0.92917 0.02408 0.0
C100 C 0.36873 0.93384 0.98392 0.0
C101 C 0.34667 0.89646 0.98552 0.0
C102 C 0.41384 0.99011 1.00054 0.0
C103 C 0.51771 0.07541 0.97178 0.0
C104 C 0.50896 0.98638 0.01902 0.0
C105 C 0.61967 0.13928 0.0445 0.0
C106 C 0.67963 0.19077 0.0359 0.0
C107 C 0.65839 0.1813 0.01628 0.0
C108 C 0.62861 0.15575 0.02054 0.0
C109 C 0.64046 0.15022 0.06443 0.0
C110 C 0.67016 0.17574 0.06022 0.0
C111 C 0.59011 0.10716 0.04824 0.0
H112 H 0.36729 0.87619 0.04231 0.0
H113 H 0.40613 0.94135 0.03919 0.0
H114 H 0.36897 0.94965 0.96748 0.0
H115 H 0.33068 0.88449 0.97004 0.0
H116 H 0.66492 0.1928 0.99744 0.0
H117 H 0.61283 0.14766 1.00488 0.0
H118 H 0.634 0.13756 0.08298 0.0
H119 H 0.68591 0.18203 0.07568 0.0
Dy120 Dy 0.72648 0.77175 0.34341 0.0
Dy121 Dy 0.6728 0.79748 0.3576 0.0
C122 C 0.71137 0.78502 0.40276 0.0
O123 O 0.68017 0.7183 0.34653 0.0
O124 O 0.65874 0.74218 0.3735 0.0
O125 O 0.7736 0.80214 0.34926 0.0
O126 O 0.75477 0.74689 0.33209 0.0
O127 O 0.66939 0.78039 0.31545 0.0
O128 O 0.70277 0.75988 0.30595 0.0
O129 O 0.71579 0.84939 0.35592 0.0
O130 O 0.73774 0.82784 0.32842 0.0
O131 O 0.62589 0.78043 0.35599 0.0
O132 O 0.65794 0.83789 0.36566 0.0
C133 C 0.65723 0.71425 0.36045 0.0
O134 O 0.72226 0.77163 0.38575 0.0
O135 O 0.69343 0.79827 0.39659 0.0
C136 C 0.8116 0.78552 0.3387 0.0
C137 C 0.87439 0.80553 0.3365 0.0
C138 C 0.86509 0.82952 0.34721 0.0
C139 C 0.83483 0.8199 0.3482 0.0
C140 C 0.82055 0.76113 0.32814 0.0
C141 C 0.85106 0.77085 0.32708 0.0
C142 C 0.7791 0.77711 0.33963 0.0
C143 C 0.68058 0.76537 0.2996 0.0
C144 C 0.73762 0.8552 0.34108 0.0
C145 C 0.60499 0.82208 0.36258 0.0
C146 C 0.55796 0.84033 0.36051 0.0
C147 C 0.55321 0.80481 0.3531 0.0
C148 C 0.57618 0.79592 0.35414 0.0
C149 C 0.60976 0.85731 0.37039 0.0
C150 C 0.58677 0.8662 0.36948 0.0
C151 C 0.63021 0.81369 0.36095 0.0
H152 H 0.88121 0.85609 0.35534 0.0
H153 H 0.82968 0.83994 0.35662 0.0
H154 H 0.80395 0.73449 0.32041 0.0
H155 H 0.85625 0.75106 0.31837 0.0
H156 H 0.53186 0.78386 0.34573 0.0
H157 H 0.57145 0.7686 0.34764 0.0
H158 H 0.63152 0.8784 0.37692 0.0
H159 H 0.59177 0.8936 0.37593 0.0
Dy160 Dy 0.26886 0.95705 0.32991 0.0
Dy161 Dy 0.23871 0.87044 0.33067 0.0
C162 C 0.24748 0.91593 0.38363 0.0
O163 O 0.30703 0.94296 0.33232 0.0
O164 O 0.28272 0.88218 0.34423 0.0
O165 O 0.30291 1.00826 0.34678 0.0
O166 O 0.27895 1.00918 0.31301 0.0
O167 O 0.26767 0.89025 0.29528 0.0
O168 O 0.26771 0.94394 0.28874 0.0
O169 O 0.1987 0.87805 0.33215 0.0
O170 O 0.21922 0.94102 0.32893 0.0
O171 O 0.20667 0.82353 0.30856 0.0
O172 O 0.22964 0.81513 0.34041 0.0
C173 C 0.3075 0.91263 0.33994 0.0
O174 O 0.2537 0.94504 0.36984 0.0
O175 O 0.24216 0.88403 0.37309 0.0
C176 C 0.2938 0.05797 0.3422 0.0
C177 C 0.2779 0.1104 0.35741 0.0
C178 C 0.26611 0.07618 0.36984 0.0
C179 C 0.27393 0.04996 0.36218 0.0
C180 C 0.30711 0.09298 0.33096 0.0
C181 C 0.29919 0.11913 0.33852 0.0
C182 C 0.29803 1.02875 0.3309 0.0
C183 C 0.27412 0.91896 0.28077 0.0
C184 C 0.19536 0.90745 0.33062 0.0
C185 C 0.22765 0.78541 0.3014 0.0
C186 C 0.25573 0.75811 0.26903 0.0
C187 C 0.24782 0.78379 0.25995 0.0
C188 C 0.23405 0.79746 0.276 0.0
C189 C 0.23618 0.76053 0.31064 0.0
C190 C 0.25017 0.74717 0.29473 0.0
C191 C 0.21508 0.80166 0.31897 0.0
H192 H 0.24946 0.06879 0.38429 0.0
H193 H 0.26339 1.02286 0.37094 0.0
H194 H 0.32245 0.09937 0.31548 0.0
H195 H 0.30859 0.14546 0.32879 0.0
H196 H 0.25168 0.79267 0.24033 0.0
H197 H 0.22838 0.8174 0.26838 0.0
H198 H 0.2319 0.75125 0.33017 0.0
H199 H 0.25507 0.72657 0.30235 0.0
Dy200 Dy 0.11201 0.37747 0.3599 0.0
Dy201 Dy 0.18438 0.42211 0.37922 0.0
C202 C 0.12844 0.39049 0.41855 0.0
O203 O 0.12526 0.43766 0.36451 0.0
O204 O 0.17647 0.46615 0.36445 0.0
O205 O 0.06601 0.35933 0.36724 0.0
O206 O 0.07874 0.34414 0.33183 0.0
O207 O 0.18217 0.41568 0.3354 0.0
O208 O 0.13561 0.4066 0.32571 0.0
O209 O 0.16302 0.36237 0.38886 0.0
O210 O 0.13035 0.33923 0.35538 0.0
O211 O 0.22476 0.41909 0.37873 0.0
O212 O 0.22488 0.46569 0.39784 0.0
C213 C 0.1517 0.46699 0.36173 0.0
O214 O 0.11296 0.36594 0.40082 0.0
O215 O 0.15593 0.41764 0.41415 0.0
C216 C 1.0324 0.30056 0.34794 0.0
C217 C 0.98644 0.22587 0.34927 0.0
C218 C 0.99796 0.24653 0.372 0.0
C219 C 1.02088 0.28352 0.37138 0.0
C220 C 1.02043 0.28011 0.32528 0.0
C221 C 0.99783 0.24317 0.32592 0.0
C222 C 0.05693 0.33924 0.34633 0.0
C223 C 0.16194 0.41396 0.31887 0.0
C224 C 0.14647 0.33525 0.37302 0.0
C225 C 0.27294 0.47379 0.38498 0.0
C226 C 0.33596 0.51188 0.37609 0.0
C227 C 0.31506 0.49304 0.35618 0.0
C228 C 0.28418 0.4742 0.36057 0.0
C229 C 0.2936 0.493 0.4047 0.0
C230 C 0.32434 0.51153 0.40042 0.0
C231 C 0.24059 0.45023 0.39133 0.0
H232 H 0.98955 0.2339 0.39024 0.0
H233 H 1.02963 0.29858 0.3892 0.0
H234 H 1.02873 0.29272 0.30697 0.0
H235 H 0.98903 0.22824 0.30807 0.0
H236 H 0.32243 0.49271 0.33703 0.0
H237 H 0.26911 0.45943 0.34489 0.0
H238 H 0.28594 0.49275 0.42385 0.0
H239 H 0.33897 0.52463 0.41661 0.0
Dy240 Dy 0.39007 0.06638 0.68353 0.0
Dy241 Dy 0.37088 0.12895 0.68432 0.0
C242 C 0.39881 0.11212 0.73339 0.0
O243 O 0.34029 0.0346 0.68104 0.0
O244 O 0.33324 0.07883 0.70091 0.0
O245 O 0.38613 1.01584 0.69897 0.0
O246 O 0.41856 0.04592 0.67013 0.0
O247 O 0.34915 0.095 0.6482 0.0
O248 O 0.37897 0.06923 0.64272 0.0
O249 O 0.41291 0.15326 0.66339 0.0
O250 O 0.43221 0.12306 0.68511 0.0
O251 O 0.36104 0.16843 0.66626 0.0
O252 O 0.36169 0.16527 0.70742 0.0
C253 C 0.32288 0.04469 0.69243 0.0
O254 O 0.38592 0.07821 0.72433 0.0
O255 O 0.40133 0.13907 0.71863 0.0
C256 C 0.43514 1.02912 0.70631 0.0
C257 C 0.4894 0.07414 0.73129 0.0
C258 C 0.46304 0.06747 0.74264 0.0
C259 C 0.43605 0.04476 0.73044 0.0
C260 C 0.46108 0.03167 0.69666 0.0
C261 C 0.48812 0.05397 0.70916 0.0
C262 C 0.4108 1.02201 0.68857 0.0
C263 C 0.35867 0.07659 0.63399 0.0
C264 C 0.43602 0.15249 0.67246 0.0
C265 C 0.32986 0.18437 0.68955 0.0
C266 C 0.2804 0.1946 0.69397 0.0
C267 C 0.27906 0.16612 0.67822 0.0
C268 C 0.30358 0.16093 0.67608 0.0
C269 C 0.33116 0.21251 0.70539 0.0
C270 C 0.3067 0.21753 0.70767 0.0
C271 C 0.35621 0.18016 0.68785 0.0
H272 H 0.46353 0.08282 0.75955 0.0
H273 H 0.41643 0.0432 0.73855 0.0
H274 H 0.46097 1.02013 0.67804 0.0
H275 H 0.50818 0.05882 0.69985 0.0
H276 H 0.25925 0.14826 0.66726 0.0
H277 H 0.30204 0.13882 0.66386 0.0
H278 H 0.35117 0.23063 0.71612 0.0
H279 H 0.30834 0.23922 0.72037 0.0
Dy280 Dy 0.92843 0.28364 0.69667 0.0
Dy281 Dy 0.86807 0.25255 0.66746 0.0
C282 C 0.9293 0.27814 0.6354 0.0
O283 O 0.9166 0.33232 0.69784 0.0
O284 O 0.88189 0.31296 0.66606 0.0
O285 O 0.97505 0.32339 0.70012 0.0
O286 O 0.95268 0.28634 0.73101 0.0
O287 O 0.86602 0.27097 0.70869 0.0
O288 O 0.8937 0.24849 0.72344 0.0
O289 O 0.86901 0.19879 0.67417 0.0
O290 O 0.91662 0.22206 0.68869 0.0
O291 O 0.82109 0.21534 0.66979 0.0
O292 O 0.83922 0.25011 0.63675 0.0
C293 C 0.89863 0.33872 0.68273 0.0
O294 O 0.94366 0.28674 0.65717 0.0
O295 O 0.90018 0.26384 0.63453 0.0
C296 C 1.00073 0.29882 0.72192 0.0
C297 C 0.04455 0.27775 0.72141 0.0
C298 C 1.01959 0.25992 0.7052 0.0
C299 C 0.99789 0.27036 0.70547 0.0
C300 C 1.02539 0.31658 0.73826 0.0
C301 C 0.04716 0.30612 0.73803 0.0
C302 C 0.97809 0.31009 0.72161 0.0
C303 C 0.87562 0.26039 0.72845 0.0
C304 C 0.89066 0.1929 0.6816 0.0
C305 C 0.79628 0.24522 0.65412 0.0
C306 C 0.75801 0.27249 0.66627 0.0
C307 C 0.78545 0.28668 0.67885 0.0
C308 C 0.80437 0.27308 0.67286 0.0
C309 C 0.76969 0.23237 0.64052 0.0
C310 C 0.75064 0.24597 0.64654 0.0
C311 C 0.81548 0.22928 0.64966 0.0
H312 H 1.01711 0.23841 0.6919 0.0
H313 H 0.97902 0.25649 0.69262 0.0
H314 H 1.0278 0.33851 0.75113 0.0
H315 H 0.06595 0.32009 0.75094 0.0
H316 H 0.79171 0.30719 0.69404 0.0
H317 H 0.82494 0.28346 0.68346 0.0
H318 H 0.76324 0.21101 0.62592 0.0
H319 H 0.72941 0.23414 0.63679 0.0
Dy320 Dy 0.78912 0.69559 0.68377 0.0
Dy321 Dy 0.85682 0.74454 0.69986 0.0
C322 C 0.80585 0.70246 0.74175 0.0
O323 O 0.79991 0.75936 0.68553 0.0
O324 O 0.84901 0.79241 0.69765 0.0
O325 O 0.74374 0.67233 0.69615 0.0
O326 O 0.75274 0.6634 0.65747 0.0
O327 O 0.85045 0.75991 0.65887 0.0
O328 O 0.81087 0.70514 0.64672 0.0
O329 O 0.84987 0.68569 0.70003 0.0
O330 O 0.80423 0.65133 0.68164 0.0
O331 O 0.89917 0.75107 0.69096 0.0
O332 O 0.89565 0.78324 0.72237 0.0
C333 C 0.82455 0.79227 0.69117 0.0
O334 O 0.79253 0.67893 0.72309 0.0
O335 O 0.83071 0.73346 0.73703 0.0
C336 C 0.71174 0.61234 0.67705 0.0
C337 C 0.67268 0.53404 0.6799 0.0
C338 C 0.68254 0.55643 0.70214 0.0
C339 C 0.70183 0.59501 0.70075 0.0
C340 C 0.70148 0.59006 0.65486 0.0
C341 C 0.68237 0.55156 0.65625 0.0
C342 C 0.7328 0.65319 0.67508 0.0
C343 C 0.83173 0.73814 0.64087 0.0
C344 C 0.82917 0.65368 0.69048 0.0
C345 C 0.94364 0.80588 0.70327 0.0
C346 C 1.00527 0.85035 0.69589 0.0
C347 C 0.98618 0.83102 0.6753 0.0
C348 C 0.95571 0.80911 0.67891 0.0
C349 C 0.96248 0.82683 0.72353 0.0
C350 C 0.99296 0.849 0.71987 0.0
C351 C 0.9132 0.77603 0.7088 0.0
H352 H 0.67576 0.54407 0.72072 0.0
H353 H 0.7091 0.61116 0.71831 0.0
H354 H 0.70835 0.60243 0.63628 0.0
H355 H 0.67488 0.53555 0.63866 0.0
H356 H 0.99493 0.83195 0.65651 0.0
H357 H 0.94186 0.79328 0.66286 0.0
H358 H 0.95387 0.82447 0.74255 0.0
H359 H 1.00706 0.86338 0.73617 0.0
H360 H 0.40626 0.61996 0.94115 0.0
H361 H 0.35662 0.59782 0.95576 0.0
H362 H 0.38846 0.61973 0.03372 0.0
H363 H 0.43774 0.6383 0.01927 0.0
H364 H 0.35984 0.55114 0.02827 0.0
H365 H 0.32975 0.6384 1.01069 0.0
H366 H 0.32478 0.68768 0.989 0.0
H367 H 0.28583 0.61615 0.92365 0.0
H368 H 0.29062 0.56644 0.94491 0.0
H369 H 0.20814 0.41694 0.05324 0.0
H370 H 0.25853 0.4689 0.05145 0.0
H371 H 0.25482 0.46132 0.96935 0.0
H372 H 0.20401 0.41134 0.97087 0.0
H373 H 0.2677 0.52785 0.98444 0.0
H374 H 0.30201 0.44305 1.00603 0.0
H375 H 0.30488 0.39514 0.03154 0.0
H376 H 0.33392 0.46836 0.09681 0.0
H377 H 0.33086 0.51657 0.07177 0.0
C378 C 0.40291 0.62146 0.96137 0.0
C379 C 0.4254 0.62801 0.97906 0.0
C380 C 0.37435 0.6093 0.96982 0.0
C381 C 0.36847 0.60533 0.99606 0.0
C382 C 0.39234 0.62126 0.0134 0.0
C383 C 0.42076 0.63218 1.00498 0.0
C384 C 0.33945 0.57494 1.00443 0.0
C385 C 0.33938 0.54701 0.01968 0.0
C386 C 0.31283 0.56867 0.99278 0.0
C387 C 0.31063 0.59871 0.9794 0.0
C388 C 0.32037 0.63328 0.9916 0.0
C389 C 0.31749 0.66126 0.97941 0.0
C390 C 0.30503 0.65507 0.95495 0.0
C391 C 0.29551 0.62092 0.94259 0.0
C392 C 0.2982 0.59278 0.95474 0.0
C393 C 0.21825 0.42581 0.03483 0.0
C394 C 0.20172 0.41042 0.01224 0.0
C395 C 0.24717 0.45538 0.03383 0.0
C396 C 0.26022 0.46926 1.01023 0.0
C397 C 0.24496 0.45124 0.98775 0.0
C398 C 0.21595 0.42215 0.98871 0.0
C399 C 0.28803 0.50509 1.00871 0.0
C400 C 0.2878 0.53337 0.9943 0.0
C401 C 0.31397 0.51223 0.02207 0.0
C402 C 0.31587 0.48326 0.0371 0.0
C403 C 0.30876 0.44882 0.02588 0.0
C404 C 0.31047 0.42163 0.04024 0.0
C405 C 0.31948 0.42865 0.0658 0.0
C406 C 0.32689 0.46293 0.07703 0.0
C407 C 0.3252 0.49021 0.06275 0.0
H408 H 0.3208 0.40757 0.07689 0.0
H409 H 0.30269 0.67669 0.94559 0.0
H410 H 0.48095 0.91868 0.99029 0.0
H411 H 0.49262 0.86797 0.98855 0.0
H412 H 0.56166 0.92518 0.04483 0.0
H413 H 0.55094 0.97627 0.04561 0.0
H414 H 0.58292 0.89536 0.01958 0.0
H415 H 0.48417 0.83439 0.05073 0.0
H416 H 0.43064 0.81229 0.05134 0.0
H417 H 0.41877 0.75259 0.98101 0.0
H418 H 0.47232 0.77483 0.97976 0.0
H419 H 0.60131 0.73338 0.04565 0.0
H420 H 0.5897 0.78447 0.04787 0.0
H421 H 0.53468 0.74094 0.98071 0.0
H422 H 0.54682 0.69121 0.978 0.0
H423 H 0.50619 0.76274 0.0121 0.0
H424 H 0.60607 0.82454 0.98245 0.0
H425 H 0.6593 0.84491 0.98416 0.0
H426 H 0.66805 0.9012 0.05545 0.0
H427 H 0.61475 0.88075 0.05432 0.0
C428 C 0.49856 0.92061 1.00246 0.0
C429 C 0.51463 0.95266 0.0182 0.0
C430 C 0.50527 0.89085 1.00166 0.0
C431 C 0.52808 0.89078 0.01693 0.0
C432 C 0.54403 0.92296 0.03256 0.0
C433 C 0.53761 0.95278 0.03312 0.0
C434 C 0.53584 0.85849 0.01656 0.0
C435 C 0.56571 0.86648 0.01836 0.0
C436 C 0.51444 0.81968 0.0145 0.0
C437 C 0.48233 0.8067 0.01498 0.0
C438 C 0.47019 0.81684 0.03527 0.0
C439 C 0.43984 0.80425 0.03575 0.0
C440 C 0.42133 0.78117 0.01618 0.0
C441 C 0.43314 0.77057 0.99611 0.0
C442 C 0.4635 0.78318 0.9955 0.0
C443 C 0.58699 0.73471 0.03111 0.0
C444 C 0.57536 0.70705 1.01156 0.0
C445 C 0.58018 0.76441 0.03239 0.0
C446 C 0.56103 0.76793 0.0144 0.0
C447 C 0.54933 0.74008 0.99512 0.0
C448 C 0.55651 0.71103 0.99358 0.0
C449 C 0.55304 0.79983 0.01531 0.0
C450 C 0.52322 0.79172 0.01348 0.0
C451 C 0.57438 0.83844 0.01772 0.0
C452 C 0.60637 0.85078 0.01844 0.0
C453 C 0.6193 0.84102 0.99859 0.0
C454 C 0.64949 0.85262 0.99943 0.0
C455 C 0.66703 0.87424 0.01994 0.0
C456 C 0.65442 0.88439 0.03961 0.0
C457 C 0.62423 0.87283 0.03887 0.0
H458 H 0.6904 0.8832 0.02055 0.0
H459 H 0.39783 0.77141 0.0166 0.0
H460 H 0.28722 0.84375 0.99154 0.0
H461 H 0.24829 0.77905 0.99335 0.0
H462 H 0.30928 0.74982 0.02801 0.0
H463 H 0.34895 0.81458 0.02515 0.0
H464 H 0.27509 0.69682 0.9946 0.0
H465 H 0.25683 0.75811 0.06327 0.0
H466 H 0.24989 0.80656 0.08439 0.0
H467 H 0.17314 0.77665 0.03749 0.0
H468 H 0.17992 0.72842 0.01575 0.0
H469 H 0.15256 0.51868 0.03289 0.0
H470 H 0.19466 0.58208 0.03744 0.0
H471 H 0.15266 0.62176 0.98502 0.0
H472 H 0.11019 0.55901 0.98115 0.0
H473 H 0.17875 0.66769 0.03191 0.0
H474 H 0.21634 0.62657 0.95457 0.0
H475 H 0.21248 0.56815 0.93832 0.0
H476 H 0.24513 0.55317 1.0102 0.0
H477 H 0.25111 0.61256 0.02595 0.0
C478 C 0.29263 0.82366 0.99928 0.0
C479 C 0.32149 0.83481 1.00819 0.0
C480 C 0.27011 0.7865 1.00058 0.0
C481 C 0.27551 0.7593 1.0112 0.0
C482 C 0.30435 0.77012 0.01984 0.0
C483 C 0.32701 0.80739 0.01844 0.0
C484 C 0.2509 0.71988 0.01344 0.0
C485 C 0.25431 0.69071 1.00316 0.0
C486 C 0.22342 0.71112 0.02453 0.0
C487 C 0.21903 0.73982 0.03774 0.0
C488 C 0.23858 0.76201 0.05734 0.0
C489 C 0.23467 0.78943 0.06943 0.0
C490 C 0.21112 0.79472 0.06226 0.0
C491 C 0.19139 0.77254 0.04301 0.0
C492 C 0.19525 0.74513 0.03081 0.0
C493 C 0.15254 0.54079 0.02201 0.0
C494 C 0.12812 0.53358 1.00641 0.0
C495 C 0.17659 0.57712 0.02468 0.0
C496 C 0.17707 0.60683 1.01136 0.0
C497 C 0.15286 0.5995 0.99558 0.0
C498 C 0.12869 0.56344 0.9932 0.0
C499 C 0.20309 0.64535 0.013 0.0
C500 C 0.1998 0.67419 0.02373 0.0
C501 C 0.23075 0.65382 1.0029 0.0
C502 C 0.23448 0.62399 0.99126 0.0
C503 C 0.22377 0.61142 0.96644 0.0
C504 C 0.22113 0.57808 0.95734 0.0
C505 C 0.22865 0.55693 0.97312 0.0
C506 C 0.23982 0.56975 0.99771 0.0
C507 C 0.24337 0.60358 1.00657 0.0
H508 H 0.22575 0.53059 0.9663 0.0
H509 H 0.20812 0.81596 0.07164 0.0
H510 H 0.46663 0.15226 1.00275 0.0
H511 H 0.47599 0.21688 1.00078 0.0
H512 H 0.56366 0.2568 0.03138 0.0
H513 H 0.55431 0.19348 0.03393 0.0
H514 H 0.55057 0.30127 0.05065 0.0
H515 H 0.54021 0.26257 0.96403 0.0
H516 H 0.51515 0.22236 0.92681 0.0
H517 H 0.44602 0.25013 0.93117 0.0
H518 H 0.47002 0.28928 0.96928 0.0
H519 H 0.60966 0.498 0.0229 0.0
H520 H 0.59832 0.43275 0.02413 0.0
H521 H 0.50969 0.39685 0.99767 0.0
H522 H 0.52102 0.46164 0.99621 0.0
H523 H 0.52235 0.35026 0.97625 0.0
H524 H 0.53381 0.38799 0.06454 0.0
H525 H 0.55983 0.42671 0.10228 0.0
H526 H 0.63006 0.40183 0.09271 0.0
H527 H 0.6046 0.36328 0.05472 0.0
C528 C 0.48791 0.17459 1.00919 0.0
C529 C 0.5094 0.16582 0.01856 0.0
C530 C 0.49355 0.21242 1.00785 0.0
C531 C 0.52109 0.24388 0.01561 0.0
C532 C 0.54214 0.23471 0.02517 0.0
C533 C 0.53657 0.19738 0.02652 0.0
C534 C 0.52853 0.28574 0.01403 0.0
C535 C 0.5445 0.31153 0.03403 0.0
C536 C 0.52095 0.30132 0.99291 0.0
C537 C 0.50674 0.27851 0.96972 0.0
C538 C 0.51954 0.25992 0.95718 0.0
C539 C 0.50552 0.23729 0.93591 0.0
C540 C 0.47907 0.23379 0.92651 0.0
C541 C 0.46652 0.25284 0.93847 0.0
C542 C 0.48025 0.27513 0.96 0.0
C543 C 0.58768 0.47645 0.01729 0.0
C544 C 0.56653 0.48674 1.0095 0.0
C545 C 0.58093 0.43826 0.01819 0.0
C546 C 0.55256 0.40776 1.0114 0.0
C547 C 0.53175 0.41829 1.00318 0.0
C548 C 0.53841 0.45625 1.00242 0.0
C549 C 0.54441 0.36564 0.01285 0.0
C550 C 0.52836 0.33987 0.99283 0.0
C551 C 0.5522 0.35009 0.03382 0.0
C552 C 0.56745 0.37308 0.05666 0.0
C553 C 0.55489 0.39096 0.0704 0.0
C554 C 0.56952 0.41285 0.09185 0.0
C555 C 0.59662 0.41681 0.09985 0.0
C556 C 0.60909 0.39879 0.08646 0.0
C557 C 0.59457 0.3769 0.06499 0.0
H558 H 0.60791 0.43377 0.11645 0.0
H559 H 0.46829 0.21632 0.90998 0.0
H560 H 0.72288 0.24506 0.06614 0.0
H561 H 0.77625 0.27591 0.06014 0.0
H562 H 0.76262 0.21899 0.98788 0.0
H563 H 0.70921 0.18691 0.99422 0.0
H564 H 0.80278 0.21308 0.01548 0.0
H565 H 0.78669 0.31244 0.99177 0.0
H566 H 0.7682 0.35669 0.9959 0.0
H567 H 0.82189 0.40414 0.06319 0.0
H568 H 0.84016 0.35967 0.05985 0.0
H569 H 0.95926 0.32521 0.98853 0.0
H570 H 0.90504 0.29199 0.98673 0.0
H571 H 0.90328 0.33438 0.06161 0.0
H572 H 0.95713 0.36746 0.06356 0.0
H573 H 0.87102 0.34846 0.02667 0.0
H574 H 0.8821 0.24415 0.05277 0.0
H575 H 0.90046 0.19971 0.04877 0.0
H576 H 0.85684 0.16301 0.9759 0.0
H577 H 0.83853 0.20761 0.97933 0.0
C578 C 0.73122 0.23927 0.04889 0.0
C579 C 0.71175 0.21345 0.0307 0.0
C580 C 0.76175 0.25718 0.04537 0.0
C581 C 0.77347 0.24996 0.02346 0.0
C582 C 0.75408 0.22504 1.0049 0.0
C583 C 0.72352 0.20703 1.00844 0.0
C584 C 0.80595 0.26664 0.0208 0.0
C585 C 0.81767 0.24278 0.01744 0.0
C586 C 0.82543 0.30534 0.02371 0.0
C587 C 0.81454 0.33234 0.02571 0.0
C588 C 0.79432 0.33204 1.00761 0.0
C589 C 0.78387 0.35719 1.00982 0.0
C590 C 0.79365 0.38301 0.02992 0.0
C591 C 0.81412 0.38396 0.04773 0.0
C592 C 0.82455 0.35879 0.04568 0.0
C593 C 0.94728 0.32653 1.0049 0.0
C594 C 0.96245 0.34896 0.02619 0.0
C595 C 0.91632 0.30774 1.00377 0.0
C596 C 0.90019 0.311 0.02397 0.0
C597 C 0.91532 0.33178 0.04574 0.0
C598 C 0.94611 0.35048 0.04687 0.0
C599 C 0.86768 0.29479 0.0221 0.0
C600 C 0.85602 0.31881 0.02446 0.0
C601 C 0.84829 0.25634 0.01822 0.0
C602 C 0.85924 0.22951 0.01617 0.0
C603 C 0.87665 0.22683 0.03579 0.0
C604 C 0.88699 0.20157 0.03365 0.0
C605 C 0.8799 0.17864 0.01206 0.0
C606 C 0.86237 0.18084 0.99259 0.0
C607 C 0.85198 0.20608 0.99463 0.0
H608 H 0.88793 0.15909 1.01044 0.0
H609 H 0.7855 0.40242 0.03161 0.0
H610 H 0.93408 0.56317 0.99726 0.0
H611 H 0.89092 0.57075 0.99149 0.0
H612 H 0.83432 0.45764 0.01479 0.0
H613 H 0.87776 0.45023 0.02164 0.0
H614 H 0.83932 0.54109 0.96625 0.0
H615 H 0.78285 0.4606 0.05593 0.0
H616 H 0.79356 0.43577 0.09472 0.0
H617 H 0.88457 0.52164 0.09261 0.0
H618 H 0.87422 0.5474 0.05415 0.0
H619 H 0.71614 0.56844 0.99621 0.0
H620 H 0.74609 0.53946 0.98673 0.0
H621 H 0.80899 0.60728 0.04522 0.0
H622 H 0.77935 0.6368 0.05453 0.0
H623 H 0.79208 0.53377 0.0493 0.0
H624 H 0.82878 0.62811 0.98312 0.0
H625 H 0.82299 0.66064 0.9462 0.0
H626 H 0.7773 0.5573 0.90455 0.0
H627 H 0.78324 0.52428 0.94116 0.0
C628 C 0.9124 0.53977 1.00092 0.0
C629 C 0.90927 0.5065 1.01057 0.0
C630 C 0.88773 0.54395 0.99727 0.0
C631 C 0.85952 0.51489 1.00313 0.0
C632 C 0.856 0.48043 1.01048 0.0
C633 C 0.88078 0.47626 0.01432 0.0
C634 C 0.83509 0.52312 1.00519 0.0
C635 C 0.82852 0.53882 0.98426 0.0
C636 C 0.82127 0.52053 0.02879 0.0
C637 C 0.82785 0.50547 0.05194 0.0
C638 C 0.80512 0.47418 0.06379 0.0
C639 C 0.81111 0.46004 0.08576 0.0
C640 C 0.83976 0.47701 0.09605 0.0
C641 C 0.86242 0.50839 0.08454 0.0
C642 C 0.8565 0.5228 0.06267 0.0
C643 C 0.73665 0.57765 1.00671 0.0
C644 C 0.74559 0.60501 0.02601 0.0
C645 C 0.75361 0.56097 1.00134 0.0
C646 C 0.77967 0.57132 0.01527 0.0
C647 C 0.7888 0.59886 0.03438 0.0
C648 C 0.7719 0.61562 0.0397 0.0
C649 C 0.79716 0.55281 1.01064 0.0
C650 C 0.80215 0.53494 0.03106 0.0
C651 C 0.80995 0.55411 0.9868 0.0
C652 C 0.80622 0.57375 0.96487 0.0
C653 C 0.81743 0.61236 0.9661 0.0
C654 C 0.81428 0.63089 0.9452 0.0
C655 C 0.79971 0.61104 0.92307 0.0
C656 C 0.78854 0.57264 0.92171 0.0
C657 C 0.79194 0.55403 0.94247 0.0
H658 H 0.79705 0.6254 0.90699 0.0
H659 H 0.84437 0.46591 0.11299 0.0
H660 H 0.90164 0.76106 0.33379 0.0
H661 H 0.95397 0.7793 0.33219 0.0
H662 H 0.97754 0.89456 0.33574 0.0
H663 H 0.92532 0.87667 0.33603 0.0
H664 H 1.01629 0.89419 0.3072 0.0
H665 H 0.98539 0.8386 0.38874 0.0
H666 H 0.95517 0.79004 0.41947 0.0
H667 H 0.97865 0.7149 0.38361 0.0
H668 H 1.00874 0.7629 0.35247 0.0
H669 H 0.17294 0.95778 0.33226 0.0
H670 H 0.12107 0.94371 0.33362 0.0
H671 H 0.09188 0.8266 0.33046 0.0
H672 H 0.14303 0.84042 0.32984 0.0
H673 H 0.05637 0.83028 0.36 0.0
H674 H 0.08733 0.88741 0.27787 0.0
H675 H 0.11805 0.93742 0.2482 0.0
H676 H 0.09507 1.01137 0.28651 0.0
H677 H 0.06462 0.962 0.31668 0.0
C678 C 0.91763 0.79043 0.33404 0.0
C679 C 0.90781 0.81686 0.33533 0.0
C680 C 0.94825 0.80106 0.33349 0.0
C681 C 0.9711 0.83881 0.33442 0.0
C682 C 0.96135 0.86523 0.33517 0.0
C683 C 0.93077 0.85465 0.33566 0.0
C684 C 1.00462 0.85071 0.3345 0.0
C685 C 1.02482 0.88025 0.3191 0.0
C686 C 1.01713 0.83313 0.34949 0.0
C687 C 0.99905 0.8042 0.36812 0.0
C688 C 0.98394 0.81163 0.38731 0.0
C689 C 0.96686 0.78422 0.40481 0.0
C690 C 0.96492 0.74937 0.40345 0.0
C691 C 0.98013 0.74189 0.38461 0.0
C692 C 0.99721 0.76919 0.36704 0.0
C693 C 0.15557 0.92899 0.33176 0.0
C694 C 0.16322 0.90056 0.33086 0.0
C695 C 0.12537 0.92073 0.33237 0.0
C696 C 0.10118 0.88361 0.33182 0.0
C697 C 0.10907 0.8555 0.33101 0.0
C698 C 0.13899 0.86367 0.33054 0.0
C699 C 0.06803 0.8734 0.33242 0.0
C700 C 0.04786 0.84418 0.34802 0.0
C701 C 0.05564 0.89144 0.31773 0.0
C702 C 0.07395 0.92113 0.29968 0.0
C703 C 0.08902 0.91443 0.28007 0.0
C704 C 0.10638 0.94266 0.26317 0.0
C705 C 0.10861 0.9776 0.26553 0.0
C706 C 0.09341 0.98434 0.28476 0.0
C707 C 0.0761 0.95625 0.30177 0.0
H708 H 0.12205 0.99941 0.25242 0.0
H709 H 0.9517 0.72819 0.41702 0.0
H710 H 0.15921 0.30724 0.41452 0.0
H711 H 0.17475 0.26053 0.41469 0.0
H712 H 0.15514 0.24092 0.33418 0.0
H713 H 0.13896 0.28738 0.33396 0.0
H714 H 0.14603 0.17707 0.36041 0.0
H715 H 0.2208 0.30378 0.34935 0.0
H716 H 0.24784 0.37088 0.35954 0.0
H717 H 0.27292 0.34865 0.43266 0.0
H718 H 0.24565 0.28129 0.42301 0.0
H719 H 0.25692 0.13739 0.32106 0.0
H720 H 0.22958 0.17062 0.32718 0.0
H721 H 0.24092 0.16936 0.4086 0.0
H722 H 0.26826 0.13557 0.4026 0.0
H723 H 0.25279 0.24124 0.38407 0.0
H724 H 0.17954 0.11094 0.38992 0.0
H725 H 0.15449 0.04578 0.37474 0.0
H726 H 0.12909 0.07744 0.30535 0.0
H727 H 0.1544 0.14289 0.31995 0.0
C728 C 0.15744 0.29222 0.397 0.0
C729 C 0.14859 0.30133 0.37409 0.0
C730 C 0.1662 0.26553 0.39716 0.0
C731 C 0.16668 0.24813 0.37434 0.0
C732 C 0.15498 0.25433 0.35193 0.0
C733 C 0.14585 0.28085 0.35181 0.0
C734 C 0.18362 0.22841 0.37322 0.0
C735 C 0.16935 0.19101 0.3655 0.0
C736 C 0.21409 0.24694 0.3798 0.0
C737 C 0.23089 0.28746 0.38558 0.0
C738 C 0.23189 0.31317 0.36768 0.0
C739 C 0.24728 0.35126 0.37334 0.0
C740 C 0.26199 0.36402 0.39677 0.0
C741 C 0.26145 0.33872 0.41454 0.0
C742 C 0.24605 0.30058 0.40898 0.0
C743 C 0.25408 0.14483 0.34024 0.0
C744 C 0.26476 0.13426 0.3614 0.0
C745 C 0.23829 0.16344 0.34368 0.0
C746 C 0.23313 0.1719 0.36829 0.0
C747 C 0.24471 0.16274 0.38949 0.0
C748 C 0.26022 0.14359 0.38607 0.0
C749 C 0.21511 0.18979 0.37164 0.0
C750 C 0.22932 0.22708 0.37948 0.0
C751 C 0.18483 0.17138 0.36456 0.0
C752 C 0.16908 0.13189 0.35595 0.0
C753 C 0.1688 0.10405 0.37134 0.0
C754 C 0.15452 0.06705 0.36286 0.0
C755 C 0.14024 0.05746 0.33908 0.0
C756 C 0.14015 0.08487 0.32377 0.0
C757 C 0.15443 0.12193 0.33215 0.0
H758 H 0.12923 1.0288 0.33255 0.0
H759 H 0.27387 0.39352 0.40113 0.0
H760 H 0.98245 0.16755 0.32142 0.0
H761 H 0.94153 0.10358 0.31972 0.0
H762 H 0.89531 0.13096 0.37609 0.0
H763 H 0.93638 0.19506 0.37802 0.0
H764 H 0.88995 0.06409 0.38503 0.0
H765 H 0.87807 0.1262 0.31241 0.0
H766 H 0.89395 0.16298 0.27315 0.0
H767 H 0.90759 0.07918 0.23737 0.0
H768 H 0.89217 0.04213 0.27657 0.0
H769 H 0.74479 0.91798 0.36497 0.0
H770 H 0.78844 0.97964 0.36542 0.0
H771 H 0.83164 0.9413 0.31351 0.0
H772 H 0.7879 0.87914 0.31291 0.0
H773 H 0.84002 1.01184 0.30173 0.0
H774 H 0.84971 0.94831 0.37361 0.0
H775 H 0.8332 0.91109 0.41262 0.0
H776 H 0.82348 0.99713 0.44971 0.0
H777 H 0.83947 0.03464 0.41074 0.0
C778 C 0.96355 0.15995 0.33344 0.0
C779 C 0.96247 0.18645 0.34964 0.0
C780 C 0.94019 0.12338 0.33246 0.0
C781 C 0.91511 0.11264 0.34742 0.0
C782 C 0.91442 0.13867 0.36431 0.0
C783 C 0.9379 0.17526 0.36543 0.0
C784 C 0.88927 0.07458 0.34498 0.0
C785 C 0.87885 0.05284 0.36687 0.0
C786 C 0.87522 0.05949 0.32115 0.0
C787 C 0.88425 0.08158 0.2975 0.0
C788 C 0.88465 0.11574 0.29622 0.0
C789 C 0.89354 0.13662 0.27398 0.0
C790 C 0.90184 0.12347 0.2528 0.0
C791 C 0.90119 0.08936 0.2538 0.0
C792 C 0.89236 0.06839 0.27602 0.0
C793 C 0.76339 0.9226 0.35339 0.0
C794 C 0.76284 0.8935 0.33895 0.0
C795 C 0.78839 0.95789 0.35379 0.0
C796 C 0.81339 0.96485 0.3398 0.0
C797 C 0.81257 0.93639 0.32451 0.0
C798 C 0.78755 0.90092 0.32418 0.0
C799 C 0.84058 1.00164 0.34181 0.0
C800 C 0.85124 1.02308 0.31986 0.0
C801 C 0.85484 1.01644 0.36557 0.0
C802 C 0.84554 0.99416 0.38916 0.0
C803 C 0.84383 0.95919 0.39001 0.0
C804 C 0.8346 0.93805 0.41213 0.0
C805 C 0.82722 0.9517 0.43361 0.0
C806 C 0.82916 0.98657 0.43304 0.0
C807 C 0.83834 1.00781 0.41095 0.0
H808 H 0.82007 0.93528 0.45072 0.0
H809 H 0.90872 0.13968 0.23559 0.0
H810 H 0.23429 0.73237 0.22042 0.0
H811 H 0.22147 0.66929 0.20848 0.0
H812 H 0.28068 0.67078 0.26694 0.0
H813 H 0.29643 0.735 0.27646 0.0
H814 H 0.25645 0.60698 0.24868 0.0
H815 H 0.19946 0.676 0.28435 0.0
H816 H 0.177 0.71476 0.27369 0.0
H817 H 0.14005 0.65108 0.20478 0.0
H818 H 0.16251 0.61222 0.21511 0.0
H819 H 0.18972 0.54086 0.3695 0.0
H820 H 0.20946 0.58568 0.33474 0.0
H821 H 0.14373 0.50531 0.28351 0.0
H822 H 0.12156 0.46202 0.31852 0.0
H823 H 0.16077 0.58695 0.28183 0.0
H824 H 0.229 0.52707 0.24491 0.0
H825 H 0.25142 0.48921 0.25769 0.0
H826 H 0.26756 0.53678 0.33305 0.0
H827 H 0.24644 0.57592 0.32035 0.0
C828 C 0.24634 0.72034 0.22943 0.0
C829 C 0.26409 0.73692 0.25129 0.0
C830 C 0.23852 0.68379 0.22285 0.0
C831 C 0.24698 0.66397 0.23925 0.0
C832 C 0.27191 0.68453 0.25514 0.0
C833 C 0.28087 0.72153 0.26083 0.0
C834 C 0.22487 0.62626 0.24805 0.0
C835 C 0.23524 0.60218 0.25549 0.0
C836 C 0.19656 0.61884 0.25654 0.0
C837 C 0.18328 0.64211 0.25011 0.0
C838 C 0.18678 0.67066 0.26683 0.0
C839 C 0.17402 0.69252 0.26089 0.0
C840 C 0.15734 0.68561 0.23845 0.0
C841 C 0.15317 0.65659 0.22204 0.0
C842 C 0.16592 0.63467 0.22792 0.0
C843 C 0.17851 0.53359 0.35112 0.0
C844 C 0.15433 0.49795 0.34657 0.0
C845 C 0.19044 0.55853 0.33113 0.0
C846 C 0.17929 0.54719 0.30629 0.0
C847 C 0.15291 0.51378 0.30247 0.0
C848 C 0.14013 0.4894 0.32261 0.0
C849 C 0.19422 0.57115 0.28452 0.0
C850 C 0.1816 0.59116 0.27439 0.0
C851 C 0.22071 0.57527 0.27414 0.0
C852 C 0.23413 0.55255 0.28218 0.0
C853 C 0.23702 0.52914 0.2643 0.0
C854 C 0.24978 0.50769 0.27145 0.0
C855 C 0.26034 0.50999 0.29633 0.0
C856 C 0.2587 0.53433 0.31395 0.0
C857 C 0.24607 0.55595 0.30682 0.0
H858 H 0.27018 0.49335 0.30185 0.0
H859 H 0.14749 0.70257 0.23387 0.0
H860 H 0.38155 0.57302 0.40171 0.0
H861 H 0.43471 0.60148 0.39663 0.0
H862 H 0.42121 0.52539 0.33485 0.0
H863 H 0.36782 0.49501 0.34094 0.0
H864 H 0.46595 0.53268 0.35801 0.0
H865 H 0.44504 0.62491 0.32888 0.0
H866 H 0.42692 0.66975 0.32777 0.0
H867 H 0.4823 0.72841 0.39223 0.0
H868 H 0.50029 0.68345 0.39411 0.0
H869 H 0.62302 0.66805 0.32009 0.0
H870 H 0.56859 0.6282 0.31972 0.0
H871 H 0.56722 0.64849 0.39999 0.0
H872 H 0.62101 0.68619 0.40082 0.0
H873 H 0.53077 0.66943 0.36221 0.0
H874 H 0.54847 0.56973 0.38994 0.0
H875 H 0.56902 0.52778 0.38448 0.0
H876 H 0.521 0.48695 0.31377 0.0
H877 H 0.5005 0.52909 0.31866 0.0
C878 C 0.38955 0.56173 0.38715 0.0
C879 C 0.36942 0.53109 0.37187 0.0
C880 C 0.42045 0.57875 0.38393 0.0
C881 C 0.43286 0.56652 0.36496 0.0
C882 C 0.41288 0.53598 0.34964 0.0
C883 C 0.38191 0.51868 0.35299 0.0
C884 C 0.46636 0.58489 0.36161 0.0
C885 C 0.47981 0.56266 0.35861 0.0
C886 C 0.48544 0.62421 0.36218 0.0
C887 C 0.47373 0.65043 0.36184 0.0
C888 C 0.45304 0.64703 0.34307 0.0
C889 C 0.44284 0.67254 0.34226 0.0
C890 C 0.45337 0.70183 0.35998 0.0
C891 C 0.47408 0.70562 0.37858 0.0
C892 C 0.48426 0.6801 0.37954 0.0
C893 C 0.61132 0.66243 0.3379 0.0
C894 C 0.6269 0.6801 0.36058 0.0
C895 C 0.57998 0.6402 0.33758 0.0
C896 C 0.56338 0.63564 0.35976 0.0
C897 C 0.5791 0.65149 0.38254 0.0
C898 C 0.61015 0.67284 0.383 0.0
C899 C 0.52988 0.61718 0.35932 0.0
C900 C 0.51658 0.63949 0.36156 0.0
C901 C 0.511 0.57818 0.35739 0.0
C902 C 0.52326 0.55287 0.35451 0.0
C903 C 0.54255 0.55211 0.3731 0.0
C904 C 0.55412 0.52822 0.37014 0.0
C905 C 0.5464 0.5048 0.34875 0.0
C906 C 0.52701 0.50515 0.33031 0.0
C907 C 0.51539 0.52901 0.33317 0.0
H908 H 0.55537 0.48632 0.34649 0.0
H909 H 0.44556 0.72166 0.35924 0.0
H910 H 0.31171 0.84986 0.3458 0.0
H911 H 0.35481 0.8423 0.3488 0.0
H912 H 0.41153 0.9605 0.34167 0.0
H913 H 0.36756 0.96832 0.33768 0.0
H914 H 0.43559 0.92628 0.31635 0.0
H915 H 0.39924 0.91157 0.40119 0.0
H916 H 0.36183 0.88637 0.43484 0.0
H917 H 0.34552 0.77613 0.41789 0.0
H918 H 0.38256 0.80061 0.3839 0.0
H919 H 0.56215 0.90944 0.35244 0.0
H920 H 0.52296 0.92535 0.34976 0.0
H921 H 0.45768 0.81037 0.3599 0.0
H922 H 0.4968 0.79451 0.36416 0.0
H923 H 0.44012 0.848 0.38531 0.0
H924 H 0.47493 0.86235 0.29927 0.0
H925 H 0.51175 0.88736 0.26513 0.0
H926 H 0.53101 0.9982 0.28427 0.0
H927 H 0.49456 0.97389 0.31874 0.0
C928 C 0.3332 0.87467 0.34501 0.0
C929 C 0.3356 0.90998 0.34192 0.0
C930 C 0.3582 0.87016 0.34689 0.0
C931 C 0.38705 0.90074 0.3463 0.0
C932 C 0.38977 0.93617 0.34256 0.0
C933 C 0.36447 0.94073 0.34037 0.0
C934 C 0.41372 0.89499 0.34956 0.0
C935 C 0.43673 0.90969 0.33174 0.0
C936 C 0.41556 0.87266 0.36923 0.0
C937 C 0.39354 0.85792 0.38988 0.0
C938 C 0.38757 0.88194 0.40456 0.0
C939 C 0.36644 0.86778 0.4237 0.0
C940 C 0.35128 0.82967 0.42847 0.0
C941 C 0.35728 0.80565 0.41417 0.0
C942 C 0.37837 0.81965 0.39498 0.0
C943 C 0.53957 0.88732 0.35446 0.0
C944 C 0.53333 0.85038 0.35855 0.0
C945 C 0.51682 0.89653 0.35246 0.0
C946 C 0.4867 0.8692 0.35407 0.0
C947 C 0.48041 0.83238 0.35837 0.0
C948 C 0.50313 0.82318 0.36056 0.0
C949 C 0.46187 0.87875 0.35187 0.0
C950 C 0.43914 0.86474 0.36995 0.0
C951 C 0.46037 0.90171 0.33246 0.0
C952 C 0.48226 0.91633 0.31176 0.0
C953 C 0.48718 0.89208 0.29631 0.0
C954 C 0.50796 0.90613 0.27689 0.0
C955 C 0.52378 0.94435 0.27259 0.0
C956 C 0.51879 0.96861 0.28766 0.0
C957 C 0.49806 0.95471 0.30713 0.0
H958 H 0.53985 0.95517 0.25754 0.0
H959 H 0.3349 0.81876 0.44329 0.0
H960 H 0.72089 0.28985 0.63975 0.0
H961 H 0.67522 0.28537 0.65579 0.0
H962 H 0.69756 0.26552 0.73133 0.0
H963 H 0.74318 0.27146 0.71566 0.0
H964 H 0.63633 0.22307 0.66836 0.0
H965 H 0.65797 0.26746 0.77738 0.0
H966 H 0.69071 0.32347 0.8028 0.0
H967 H 0.70559 0.39148 0.73718 0.0
H968 H 0.67256 0.33597 0.71139 0.0
H969 H 0.54411 0.08111 0.73765 0.0
H970 H 0.59098 0.13924 0.73418 0.0
H971 H 0.54455 0.2012 0.73558 0.0
H972 H 0.49786 0.14355 0.73915 0.0
H973 H 0.60953 0.24041 0.75586 0.0
H974 H 0.54641 0.18208 0.68304 0.0
H975 H 0.51112 0.12688 0.65807 0.0
H976 H 0.57761 0.09533 0.64842 0.0
H977 H 0.61306 0.15003 0.67388 0.0
C978 C 0.71647 0.28605 0.65995 0.0
C979 C 0.73525 0.28038 0.6764 0.0
C980 C 0.69048 0.28367 0.66915 0.0
C981 C 0.68266 0.27478 0.69477 0.0
C982 C 0.70307 0.27312 0.71162 0.0
C983 C 0.72921 0.27617 0.70255 0.0
C984 C 0.65126 0.25756 0.70243 0.0
C985 C 0.63044 0.22791 0.6872 0.0
C986 C 0.64294 0.26386 0.72683 0.0
C987 C 0.66275 0.2974 0.74239 0.0
C988 C 0.66798 0.29435 0.76837 0.0
C989 C 0.68668 0.32604 0.78285 0.0
C990 C 0.70025 0.361 0.77161 0.0
C991 C 0.69513 0.36436 0.74585 0.0
C992 C 0.67646 0.33277 0.73128 0.0
C993 C 0.54409 0.10724 0.73845 0.0
C994 C 0.5174 0.10783 0.7384 0.0
C995 C 0.5708 0.14039 0.73663 0.0
C996 C 0.57099 0.1743 0.73441 0.0
C997 C 0.54481 0.17538 0.73763 0.0
C998 C 0.5181 0.14226 0.73962 0.0
C999 C 0.59644 0.2056 0.72233 0.0
C1000 C 0.61555 0.23727 0.73667 0.0
C1001 C 0.60303 0.20209 0.69679 0.0
C1002 C 0.58231 0.17009 0.68044 0.0
C1003 C 0.55344 0.16332 0.67565 0.0
C1004 C 0.53341 0.13211 0.66144 0.0
C1005 C 0.54212 0.1076 0.65165 0.0
C1006 C 0.5709 0.11436 0.656 0.0
C1007 C 0.59098 0.1455 0.67031 0.0
H1008 H 0.52656 0.08337 0.6407 0.0
H1009 H 0.71472 0.3855 0.78285 0.0
H1010 H 0.85375 0.34708 0.66131 0.0
H1011 H 0.8421 0.39664 0.6642 0.0
H1012 H 0.91981 0.46089 0.71089 0.0
H1013 H 0.93046 0.40887 0.70959 0.0
H1014 H 0.8846 0.48158 0.72673 0.0
H1015 H 0.90575 0.4755 0.63885 0.0
H1016 H 0.90142 0.44611 0.59679 0.0
H1017 H 0.80922 0.41308 0.59268 0.0
H1018 H 0.81293 0.44195 0.63484 0.0
H1019 H 0.87784 0.65037 0.70953 0.0
H1020 H 0.88958 0.60017 0.70886 0.0
H1021 H 0.80711 0.52909 0.66997 0.0
H1022 H 0.79535 0.58003 0.67035 0.0
H1023 H 0.84562 0.51312 0.65013 0.0
H1024 H 0.82589 0.52158 0.73826 0.0
H1025 H 0.83162 0.55263 0.77988 0.0
H1026 H 0.92349 0.5838 0.78268 0.0
H1027 H 0.91839 0.55331 0.74092 0.0
C1028 C 0.86875 0.37152 0.67233 0.0
C1029 C 0.89352 0.37278 0.68498 0.0
C1030 C 0.86211 0.40093 0.67365 0.0
C1031 C 0.88032 0.43476 0.68691 0.0
C1032 C 0.90499 0.43611 0.70006 0.0
C1033 C 0.91134 0.40593 0.69923 0.0
C1034 C 0.87316 0.46751 0.68715 0.0
C1035 C 0.87656 0.48849 0.70967 0.0
C1036 C 0.86183 0.47771 0.66548 0.0
C1037 C 0.85957 0.4606 0.64008 0.0
C1038 C 0.88453 0.46182 0.62901 0.0
C1039 C 0.88219 0.44527 0.60516 0.0
C1040 C 0.85505 0.42767 0.5921 0.0
C1041 C 0.83022 0.42669 0.60283 0.0
C1042 C 0.83243 0.44319 0.62668 0.0
C1043 C 0.86181 0.62413 0.70087 0.0
C1044 C 0.83527 0.62035 0.69015 0.0
C1045 C 0.86863 0.5947 0.70066 0.0
C1046 C 0.84934 0.5592 0.6898 0.0
C1047 C 0.82287 0.55539 0.67874 0.0
C1048 C 0.81595 0.58497 0.67903 0.0
C1049 C 0.85702 0.52701 0.68966 0.0
C1050 C 0.8537 0.50616 0.66715 0.0
C1051 C 0.86871 0.51725 0.71124 0.0
C1052 C 0.87181 0.53546 0.73636 0.0
C1053 C 0.84735 0.53526 0.74768 0.0
C1054 C 0.85049 0.55273 0.77131 0.0
C1055 C 0.87792 0.57026 0.78389 0.0
C1056 C 0.90227 0.57026 0.7729 0.0
C1057 C 0.89926 0.55286 0.74926 0.0
H1058 H 0.88031 0.58378 0.80217 0.0
H1059 H 0.85327 0.41484 0.57365 0.0
H1060 H 0.67393 0.47886 0.65132 0.0
H1061 H 0.63918 0.41206 0.65148 0.0
H1062 H 0.5904 0.42804 0.71146 0.0
H1063 H 0.62522 0.49503 0.71147 0.0
H1064 H 0.59166 0.36466 0.71927 0.0
H1065 H 0.56754 0.41866 0.64886 0.0
H1066 H 0.5771 0.45514 0.60967 0.0
H1067 H 0.60107 0.3823 0.57109 0.0
H1068 H 0.59202 0.34567 0.6102 0.0
H1069 H 0.44715 0.21714 0.65032 0.0
H1070 H 0.49092 0.27748 0.65346 0.0
H1071 H 0.53588 0.23064 0.69563 0.0
H1072 H 0.49064 0.16926 0.69375 0.0
H1073 H 0.54117 0.30785 0.6371 0.0
H1074 H 0.59388 0.30266 0.73278 0.0
H1075 H 0.58019 0.26829 0.77313 0.0
H1076 H 0.49065 0.24491 0.76317 0.0
H1077 H 0.50402 0.28043 0.72331 0.0
C1078 C 0.6558 0.46829 0.66455 0.0
C1079 C 0.65232 0.49271 0.68116 0.0
C1080 C 0.63593 0.4299 0.6647 0.0
C1081 C 0.61175 0.41472 0.68125 0.0
C1082 C 0.60881 0.43881 0.69851 0.0
C1083 C 0.62881 0.47726 0.69848 0.0
C1084 C 0.58861 0.37433 0.6794 0.0
C1085 C 0.58064 0.35216 0.70129 0.0
C1086 C 0.57396 0.35775 0.65605 0.0
C1087 C 0.57945 0.37971 0.63252 0.0
C1088 C 0.57508 0.41061 0.63207 0.0
C1089 C 0.58037 0.43128 0.60987 0.0
C1090 C 0.58978 0.42111 0.58793 0.0
C1091 C 0.59385 0.39019 0.58812 0.0
C1092 C 0.58864 0.36946 0.6103 0.0
C1093 C 0.46625 0.21919 0.66023 0.0
C1094 C 0.46504 0.18794 0.67188 0.0
C1095 C 0.49159 0.25412 0.66192 0.0
C1096 C 0.51704 0.25929 0.67498 0.0
C1097 C 0.51651 0.22784 0.68581 0.0
C1098 C 0.49069 0.19258 0.6845 0.0
C1099 C 0.54334 0.29793 0.67713 0.0
C1100 C 0.5522 0.31994 0.65515 0.0
C1101 C 0.55811 0.31443 0.70057 0.0
C1102 C 0.54988 0.29375 0.72484 0.0
C1103 C 0.57131 0.29042 0.73928 0.0
C1104 C 0.56363 0.27083 0.76211 0.0
C1105 C 0.53454 0.25421 0.77061 0.0
C1106 C 0.51315 0.25766 0.75651 0.0
C1107 C 0.5208 0.27766 0.73385 0.0
H1108 H 0.52858 0.23874 0.78815 0.0
H1109 H 0.59384 0.43714 0.57075 0.0
H1110 H 0.87293 0.85976 0.70443 0.0
H1111 H 0.88212 0.92277 0.70204 0.0
H1112 H 0.79397 0.88302 0.67277 0.0
H1113 H 0.78466 0.81819 0.67444 0.0
H1114 H 0.82766 0.94718 0.64967 0.0
H1115 H 0.82225 0.92264 0.73876 0.0
H1116 H 0.83397 0.90257 0.77923 0.0
H1117 H 0.92534 0.9856 0.7724 0.0
H1118 H 0.91423 1.00587 0.73171 0.0
H1119 H 0.83966 0.12779 0.6668 0.0
H1120 H 0.82751 0.06288 0.66819 0.0
H1121 H 0.91409 0.09627 0.69896 0.0
H1122 H 0.92624 0.16197 0.69798 0.0
H1123 H 0.87952 0.03459 0.72152 0.0
H1124 H 0.88516 0.05857 0.63224 0.0
H1125 H 0.87368 0.07849 0.59159 0.0
H1126 H 0.78201 0.99671 0.59877 0.0
H1127 H 0.7929 0.9766 0.63964 0.0
C1128 C 0.85493 0.86348 0.69753 0.0
C1129 C 0.82761 0.8319 0.68993 0.0
C1130 C 0.86038 0.90068 0.69638 0.0
C1131 C 0.83887 0.90965 0.68785 0.0
C1132 C 0.81147 0.87836 0.67977 0.0
C1133 C 0.80593 0.84055 0.68087 0.0
C1134 C 0.8456 0.95114 0.68733 0.0
C1135 C 0.83854 0.96578 0.66573 0.0
C1136 C 0.86068 0.97754 0.70759 0.0
C1137 C 0.86744 0.96555 0.73208 0.0
C1138 C 0.84487 0.93647 0.74581 0.0
C1139 C 0.8514 0.92508 0.7688 0.0
C1140 C 0.8804 0.94274 0.77835 0.0
C1141 C 0.9029 0.97191 0.76496 0.0
C1142 C 0.89649 0.98339 0.74195 0.0
C1143 C 0.85652 0.12189 0.67378 0.0
C1144 C 0.88433 0.15178 0.68207 0.0
C1145 C 0.84943 0.08384 0.6744 0.0
C1146 C 0.86969 0.07271 0.68322 0.0
C1147 C 0.89747 0.10252 0.69183 0.0
C1148 C 0.90464 0.14084 0.69117 0.0
C1149 C 0.86169 1.03073 0.68383 0.0
C1150 C 0.86857 1.016 0.70547 0.0
C1151 C 0.84645 1.0043 0.66362 0.0
C1152 C 0.8398 1.01636 0.63913 0.0
C1153 C 0.86252 0.04503 0.62524 0.0
C1154 C 0.85612 0.05632 0.60215 0.0
C1155 C 0.82712 0.03895 0.59264 0.0
C1156 C 0.80446 1.01018 0.60618 0.0
C1157 C 0.81073 0.99881 0.6293 0.0
H1158 H 0.82221 0.04772 0.57476 0.0
H1159 H 0.88541 0.93387 0.79615 0.0
H1160 H 0.03752 0.82456 0.6709 0.0
H1161 H 0.09133 0.85406 0.66786 0.0
H1162 H 0.10092 0.94824 0.71135 0.0
H1163 H 0.047 0.91894 0.71435 0.0
H1164 H 0.1378 0.96828 0.66883 0.0
H1165 H 0.11131 0.88454 0.73996 0.0
H1166 H 0.08441 0.82358 0.76065 0.0
H1167 H 0.12219 0.77862 0.70864 0.0
H1168 H 0.149 0.83922 0.6874 0.0
H1169 H 0.28226 0.05749 0.71586 0.0
H1170 H 0.22871 1.0203 0.71334 0.0
H1171 H 0.23545 0.93704 0.66874 0.0
H1172 H 0.2897 0.97458 0.67094 0.0
H1173 H 0.19048 0.90756 0.70695 0.0
H1174 H 0.22081 0.99125 0.63838 0.0
H1175 H 0.24795 0.05125 0.61664 0.0
H1176 H 0.20253 0.0947 0.66072 0.0
H1177 H 0.17583 0.03536 0.6834 0.0
C1178 C 0.05105 0.85179 0.67953 0.0
C1179 C 0.03796 0.86945 0.69284 0.0
C1180 C 0.08182 0.86847 0.67794 0.0
C1181 C 0.10017 0.90322 0.68955 0.0
C1182 C 0.08718 0.92137 0.7023 0.0
C1183 C 0.05639 0.90453 0.7041 0.0
C1184 C 0.13291 0.92042 0.68881 0.0
C1185 C 0.14934 0.95519 0.67736 0.0
C1186 C 0.1479 0.90265 0.69909 0.0
C1187 C 0.13189 0.86628 0.71191 0.0
C1188 C 0.11368 0.86156 0.73279 0.0
C1189 C 0.09849 0.8271 0.74465 0.0
C1190 C 0.10152 0.79721 0.73592 0.0
C1191 C 0.11982 0.80177 0.71536 0.0
C1192 C 0.13503 0.83617 0.70341 0.0
C1193 C 0.27257 0.03111 0.70569 0.0
C1194 C 0.29043 1.01917 0.69347 0.0
C1195 C 0.24183 1.00991 0.70424 0.0
C1196 C 0.22808 0.97617 0.69058 0.0
C1197 C 0.24566 0.96309 0.67933 0.0
C1198 C 0.27664 0.98454 0.68064 0.0
C1199 C 0.19536 0.95581 0.68749 0.0
C1200 C 0.17894 0.9205 0.69818 0.0
C1201 C 0.18033 0.9729 0.67626 0.0
C1202 C 0.19649 1.00887 0.6628 0.0
C1203 C 0.21687 1.01373 0.64371 0.0
C1204 C 0.23219 0.04765 0.63121 0.0
C1205 C 0.22704 0.07681 0.63736 0.0
C1206 C 0.20659 0.07213 0.65606 0.0
C1207 C 0.19138 0.03836 0.66878 0.0
H1208 H 0.23884 0.103 0.62758 0.0
H1209 H 0.08975 0.77055 0.74513 0.0
H1210 H 0.28096 0.26095 0.69618 0.0
H1211 H 0.23918 0.27132 0.70216 0.0
H1212 H 0.17962 0.15295 0.70197 0.0
H1213 H 0.22155 0.1422 0.69678 0.0
H1214 H 0.15967 0.19293 0.67195 0.0
H1215 H 0.19574 0.19576 0.75657 0.0
H1216 H 0.23343 0.21538 0.7908 0.0
H1217 H 0.25317 0.32851 0.78302 0.0
H1218 H 0.21589 0.30965 0.74844 0.0
H1219 H 0.03766 0.20788 0.7175 0.0
H1220 H 0.0763 0.19101 0.71349 0.0
H1221 H 0.14303 0.30676 0.71918 0.0
H1222 H 0.10452 0.3239 0.72299 0.0
H1223 H 0.15762 0.26405 0.74769 0.0
H1224 H 0.12389 0.26248 0.66198 0.0
H1225 H 0.087 0.24396 0.62714 0.0
H1226 H 0.06356 0.12969 0.63635 0.0
H1227 H 0.10005 0.1475 0.67152 0.0
C1228 C 0.25904 0.23705 0.69765 0.0
C1229 C 0.25465 0.20071 0.69621 0.0
C1230 C 0.23517 0.24306 0.70095 0.0
C1231 C 0.20639 0.2129 0.70278 0.0
C1232 C 0.20171 0.17658 0.7006 0.0
C1233 C 0.22566 0.1705 0.6975 0.0
C1234 C 0.18138 0.21963 0.70727 0.0
C1235 C 0.1589 0.20791 0.6887 0.0
C1236 C 0.18082 0.23987 0.72889 0.0
C1237 C 0.2032 0.25132 0.74974 0.0
C1238 C 0.20829 0.22487 0.762 0.0
C1239 C 0.22956 0.23585 0.7815 0.0
C1240 C 0.24574 0.27318 0.78904 0.0
C1241 C 0.24064 0.29961 0.77714 0.0
C1242 C 0.21943 0.28878 0.7576 0.0
C1243 C 0.06056 0.22977 0.71778 0.0
C1244 C 0.06801 0.26727 0.72042 0.0
C1245 C 0.08261 0.22007 0.71553 0.0
C1246 C 0.11252 0.24766 0.71572 0.0
C1247 C 0.12007 0.28502 0.719 0.0
C1248 C 0.09803 0.29476 0.72126 0.0
C1249 C 0.136 0.2377 0.71223 0.0
C1250 C 0.15823 0.24883 0.73101 0.0
C1251 C 0.13637 0.21705 0.69075 0.0
C1252 C 0.11447 0.20628 0.66957 0.0
C1253 C 0.11069 0.23337 0.65672 0.0
C1254 C 0.08989 0.22301 0.63689 0.0
C1255 C 0.07288 0.18566 0.62959 0.0
C1256 C 0.07671 0.1586 0.64206 0.0
C1257 C 0.09747 0.16882 0.66194 0.0
H1258 H 0.05679 0.17769 0.61422 0.0
H1259 H 0.26218 0.28162 0.80415 0.0
H1260 H 0.18542 0.47979 0.29491 0.0
H1261 H 0.17347 0.48853 0.25086 0.0
H1262 H 0.13547 0.37101 0.23645 0.0
H1263 H 0.14592 0.36242 0.2808 0.0
H1264 H 0.1654 0.40982 0.19524 0.0
H1265 H 0.09266 0.40975 0.25071 0.0
H1266 H 0.06964 0.42857 0.28419 0.0
H1267 H 0.10524 0.53669 0.25113 0.0
H1268 H 0.12893 0.51873 0.21771 0.0
H1269 H 0.07248 0.38148 0.08865 0.0
H1270 H 0.09355 0.38174 0.13027 0.0
H1271 H 0.12135 0.49803 0.14006 0.0
H1272 H 0.09922 0.49759 0.09843 0.0
H1273 H 0.10066 0.46494 0.18292 0.0
H1274 H 0.17138 0.46379 0.12597 0.0
H1275 H 0.18797 0.44137 0.08947 0.0
H1276 H 0.1536 0.33445 0.1241 0.0
H1277 H 0.1366 0.35617 0.16073 0.0
C1278 C 0.1754 0.45617 0.28199 0.0
C1279 C 0.16727 0.42072 0.29119 0.0
C1280 C 0.16823 0.46102 0.25691 0.0
C1281 C 0.15318 0.43042 0.24018 0.0
C1282 C 0.14707 0.39522 0.24879 0.0
C1283 C 0.1536 0.39036 0.27408 0.0
C1284 C 0.14283 0.43466 0.21417 0.0
C1285 C 0.1511 0.4217 0.19265 0.0
C1286 C 0.12469 0.45102 0.21036 0.0
C1287 C 0.11288 0.463 0.23185 0.0
C1288 C 0.09603 0.43775 0.25082 0.0
C1289 C 0.08263 0.44816 0.26967 0.0
C1290 C 0.08577 0.4837 0.26968 0.0
C1291 C 0.10262 0.50907 0.251 0.0
C1292 C 0.11614 0.49883 0.23217 0.0
C1293 C 0.08309 0.40725 0.09954 0.0
C1294 C 0.08411 0.43957 0.08995 0.0
C1295 C 0.09545 0.40743 0.12343 0.0
C1296 C 0.10984 0.4401 0.1384 0.0
C1297 C 0.11062 0.4724 0.12901 0.0
C1298 C 0.09792 0.47215 0.10511 0.0
C1299 C 0.12315 0.44003 0.16403 0.0
C1300 C 0.11541 0.45369 0.18547 0.0
C1301 C 0.14181 0.42445 0.16777 0.0
C1302 C 0.15253 0.41154 0.14601 0.0
C1303 C 0.16725 0.43545 0.12575 0.0
C1304 C 0.17673 0.42286 0.10503 0.0
C1305 C 0.17173 0.38644 0.10441 0.0
C1306 C 0.15742 0.36263 0.12459 0.0
C1307 C 0.14793 0.3751 0.14536 0.0
H1308 H 0.17896 0.37664 0.08834 0.0
H1309 H 0.07537 0.49168 0.28429 0.0
H1310 H 0.63584 0.77346 0.27691 0.0
H1311 H 0.61116 0.74904 0.23567 0.0
H1312 H 0.66699 0.70123 0.22219 0.0
H1313 H 0.69228 0.72645 0.26296 0.0
H1314 H 0.66155 0.72699 0.17986 0.0
H1315 H 0.58894 0.64752 0.24046 0.0
H1316 H 0.55592 0.63253 0.27716 0.0
H1317 H 0.51318 0.68704 0.24195 0.0
H1318 H 0.54582 0.70209 0.20485 0.0
H1319 H 0.56571 0.57168 0.09902 0.0
H1320 H 0.58347 0.6055 0.13941 0.0
H1321 H 0.5696 0.69288 0.11068 0.0
H1322 H 0.55255 0.65943 0.06941 0.0
H1323 H 0.55229 0.65266 0.17228 0.0
H1324 H 0.62622 0.72943 0.1097 0.0
H1325 H 0.65933 0.73998 0.07362 0.0
H1326 H 0.70032 0.68737 0.11426 0.0
H1327 H 0.66679 0.67549 0.15028 0.0
C1328 C 0.64308 0.75796 0.26515 0.0
C1329 C 0.66631 0.7522 0.27359 0.0
C1330 C 0.62864 0.74358 0.24149 0.0
C1331 C 0.63661 0.72247 0.22556 0.0
C1332 C 0.66014 0.71728 0.2338 0.0
C1333 C 0.6747 0.73183 0.25733 0.0
C1334 C 0.62082 0.70596 0.20038 0.0
C1335 C 0.63764 0.71077 0.17842 0.0
C1336 C 0.58949 0.68502 0.19778 0.0
C1337 C 0.57002 0.67629 0.22007 0.0
C1338 C 0.57263 0.65652 0.24064 0.0
C1339 C 0.55396 0.64798 0.26149 0.0
C1340 C 0.53263 0.65909 0.26202 0.0
C1341 C 0.52977 0.67855 0.24156 0.0
C1342 C 0.54827 0.68698 0.22057 0.0
C1343 C 0.56565 0.59766 0.10136 0.0
C1344 C 0.55745 0.61256 0.08077 0.0
C1345 C 0.57606 0.61714 0.12455 0.0
C1346 C 0.57836 0.65206 0.12817 0.0
C1347 C 0.56824 0.66606 0.10839 0.0
C1348 C 0.55807 0.64664 0.08485 0.0
C1349 C 0.59311 0.67412 0.15205 0.0
C1350 C 0.57615 0.66971 0.17378 0.0
C1351 C 0.62431 0.69525 0.15452 0.0
C1352 C 0.64369 0.70107 0.13251 0.0
C1353 C 0.64188 0.71945 0.11074 0.0
C1354 C 0.66083 0.72584 0.09034 0.0
C1355 C 0.68194 0.7144 0.09166 0.0
C1356 C 0.68394 0.69619 0.11326 0.0
C1357 C 0.66493 0.68955 0.13364 0.0
H1358 H 0.69677 0.71965 0.07595 0.0
H1359 H 0.51824 0.65248 0.27823 0.0
H1360 H 0.44354 0.96006 0.08573 0.0
H1361 H 0.40995 0.93983 0.12157 0.0
H1362 H 0.44474 0.05394 0.14554 0.0
H1363 H 0.4795 0.07434 0.10985 0.0
H1364 H 0.43225 1.01363 0.18646 0.0
H1365 H 0.37654 1.0 0.11003 0.0
H1366 H 0.35784 0.97832 0.06632 0.0
H1367 H 0.31821 0.86491 0.09023 0.0
H1368 H 0.33717 0.88588 0.13401 0.0
H1369 H 0.30543 0.98531 0.25631 0.0
H1370 H 0.34095 1.00147 0.222 0.0
H1371 H 0.32317 0.88832 0.21817 0.0
H1372 H 0.28798 0.872 0.25337 0.0
H1373 H 0.32622 0.92626 0.16754 0.0
H1374 H 0.38248 0.93995 0.24354 0.0
H1375 H 0.39998 0.96155 0.28746 0.0
H1376 H 0.43697 0.07495 0.26407 0.0
H1377 H 0.41935 0.05395 0.21999 0.0
C1378 C 0.44447 0.981 0.09879 0.0
C1379 C 0.46441 1.01898 0.09468 0.0
C1380 C 0.42484 0.96931 0.11929 0.0
C1381 C 0.42376 0.99517 0.13618 0.0
C1382 C 0.44465 0.03314 0.13286 0.0
C1383 C 0.46474 0.04489 0.11243 0.0
C1384 C 0.40052 0.9825 0.15672 0.0
C1385 C 0.40908 0.9949 0.18208 0.0
C1386 C 0.37 0.95724 0.15162 0.0
C1387 C 0.35851 0.94454 0.12529 0.0
C1388 C 0.36403 0.97044 0.10594 0.0
C1389 C 0.35337 0.95827 0.08115 0.0
C1390 C 0.33683 0.92027 0.07552 0.0
C1391 C 0.33101 0.89434 0.09464 0.0
C1392 C 0.34172 0.90635 0.11945 0.0
C1393 C 0.30867 0.96354 0.2481 0.0
C1394 C 0.29343 0.92712 0.25775 0.0
C1395 C 0.32924 0.97299 0.22843 0.0
C1396 C 0.335 0.94629 0.21732 0.0
C1397 C 0.3192 0.90956 0.22627 0.0
C1398 C 0.29899 0.9002 0.24645 0.0
C1399 C 0.35811 0.9574 0.19699 0.0
C1400 C 0.34946 0.94486 0.17175 0.0
C1401 C 0.38846 0.98253 0.20213 0.0
C1402 C 0.39931 0.99536 0.22852 0.0
C1403 C 0.39411 0.96949 0.2478 0.0
C1404 C 0.4041 0.98161 0.27272 0.0
C1405 C 0.41948 1.0196 0.27859 0.0
C1406 C 0.42501 0.04553 0.25951 0.0
C1407 C 0.41506 0.03353 0.23454 0.0
H1408 H 0.42718 1.02894 0.2979 0.0
H1409 H 0.32847 0.91093 0.05635 0.0
H1410 H 0.51821 0.04496 0.92593 0.0
H1411 H 0.5051 0.05998 0.88462 0.0
H1412 H 0.50399 0.15438 0.91873 0.0
H1413 H 0.51864 0.14021 0.95987 0.0
H1414 H 0.45705 0.05399 0.87248 0.0
H1415 H 0.50454 0.21492 0.87077 0.0
H1416 H 0.54967 0.27244 0.8839 0.0
H1417 H 0.59888 0.21441 0.88367 0.0
H1418 H 0.55423 0.15674 0.86998 0.0
H1419 H 0.37391 0.08027 0.77831 0.0
H1420 H 0.39871 0.0832 0.81862 0.0
H1421 H 0.48292 0.15821 0.78542 0.0
H1422 H 0.45735 0.15828 0.74588 0.0
H1423 H 0.49089 0.17471 0.83014 0.0
H1424 H 0.45172 0.04906 0.7965 0.0
H1425 H 0.41254 0.98994 0.77774 0.0
H1426 H 0.35851 0.97377 0.84302 0.0
H1427 H 0.39722 0.03327 0.86169 0.0
C1428 C 0.51666 0.07001 0.92433 0.0
C1429 C 0.52032 0.09191 0.94612 0.0
C1430 C 0.50859 0.07831 0.90071 0.0
C1431 C 0.50316 0.10829 0.89815 0.0
C1432 C 0.5084 0.13147 0.91969 0.0
C1433 C 0.51708 0.12352 0.94331 0.0
C1434 C 0.48912 0.11242 0.87391 0.0
C1435 C 0.46473 0.08055 0.86332 0.0
C1436 C 0.49885 0.14676 0.86131 0.0
C1437 C 0.52583 0.18127 0.86976 0.0
C1438 C 0.525 0.21442 0.87343 0.0
C1439 C 0.55053 0.2471 0.88092 0.0
C1440 C 0.57709 0.24704 0.88474 0.0
C1441 C 0.57823 0.21436 0.88089 0.0
C1442 C 0.5528 0.18164 0.87329 0.0
C1443 C 0.39766 0.09809 0.77986 0.0
C1444 C 0.41362 0.11912 0.75892 0.0
C1445 C 0.41208 0.09909 0.80284 0.0
C1446 C 0.44318 0.1193 0.80518 0.0
C1447 C 0.45903 0.14187 0.78451 0.0
C1448 C 0.44439 0.14202 0.76177 0.0
C1449 C 0.45894 0.11623 0.82877 0.0
C1450 C 0.48342 0.14823 0.83933 0.0
C1451 C 0.45015 0.08178 0.84093 0.0
C1452 C 0.42696 0.04593 0.83003 0.0
C1453 C 0.43122 0.03317 0.80649 0.0
C1454 C 0.40919 0.99955 0.79598 0.0
C1455 C 0.38294 0.97824 0.80909 0.0
C1456 C 0.37878 0.9904 0.83282 0.0
C1457 C 0.40077 1.02404 0.84336 0.0
H1458 H 0.36589 0.95222 0.80095 0.0
H1459 H 0.59681 0.27235 0.89061 0.0
H1460 H 0.03929 0.41758 0.92182 0.0
H1461 H 1.01067 0.39236 0.88246 0.0
H1462 H 0.93214 0.37616 0.92047 0.0
H1463 H 0.9611 0.40264 0.95986 0.0
H1464 H 0.96997 0.32806 0.87041 0.0
H1465 H 0.88018 0.37061 0.87691 0.0
H1466 H 0.87365 0.42128 0.89488 0.0
H1467 H 0.96694 0.49662 0.88962 0.0
H1468 H 0.97397 0.44653 0.87135 0.0
H1469 H 0.86866 0.2248 0.77327 0.0
H1470 H 0.8874 0.2531 0.81525 0.0
H1471 H 0.91252 0.36099 0.78469 0.0
H1472 H 0.89166 0.3321 0.74308 0.0
H1473 H 0.90092 0.36399 0.83125 0.0
H1474 H 0.96354 0.32125 0.79244 0.0
H1475 H 0.97587 0.27568 0.77389 0.0
H1476 H 0.94435 0.20899 0.8407 0.0
H1477 H 0.93208 0.2542 0.85982 0.0
C1478 C 1.016 0.40918 0.9218 0.0
C1479 C 1.00268 0.41249 0.94416 0.0
C1480 C 0.99951 0.39448 0.89917 0.0
C1481 C 0.969 0.38222 0.89805 0.0
C1482 C 0.95565 0.38591 0.92033 0.0
C1483 C 0.9723 0.4011 0.943 0.0
C1484 C 0.95139 0.36414 0.87392 0.0
C1485 C 0.95488 0.33607 0.86197 0.0
C1486 C 0.93161 0.37425 0.86241 0.0
C1487 C 0.92761 0.40471 0.87302 0.0
C1488 C 0.89927 0.39803 0.87951 0.0
C1489 C 0.89549 0.42664 0.88976 0.0
C1490 C 0.91988 0.46211 0.89347 0.0
C1491 C 0.94809 0.4691 0.88683 0.0
C1492 C 0.95199 0.4406 0.87656 0.0
C1493 C 0.87709 0.25437 0.77575 0.0
C1494 C 0.87832 0.27599 0.75475 0.0
C1495 C 0.8885 0.2708 0.79974 0.0
C1496 C 0.90275 0.30967 0.8033 0.0
C1497 C 0.90208 0.33105 0.78274 0.0
C1498 C 0.88988 0.31441 0.75883 0.0
C1499 C 0.91962 0.32797 0.82773 0.0
C1500 C 0.91595 0.35597 0.83975 0.0
C1501 C 0.93975 0.31834 0.83916 0.0
C1502 C 0.94661 0.29088 0.82743 0.0
C1503 C 0.95907 0.29674 0.80309 0.0
C1504 C 0.96609 0.27104 0.7925 0.0
C1505 C 0.9607 0.2394 0.80599 0.0
C1506 C 0.94844 0.23346 0.83023 0.0
C1507 C 0.94154 0.25915 0.841 0.0
H1508 H 0.96615 0.21956 0.79771 0.0
H1509 H 0.91691 0.48421 0.90144 0.0
H1510 H 0.75691 0.63781 0.75506 0.0
H1511 H 0.72622 0.62425 0.79238 0.0
H1512 H 0.78618 0.73267 0.82376 0.0
H1513 H 0.81744 0.74697 0.7857 0.0
H1514 H 0.76453 0.67365 0.86097 0.0
H1515 H 0.72289 0.71808 0.79685 0.0
H1516 H 0.70435 0.71835 0.7535 0.0
H1517 H 0.6371 0.60413 0.76088 0.0
H1518 H 0.65548 0.60304 0.80418 0.0
H1519 H 0.67005 0.67066 0.95744 0.0
H1520 H 0.70245 0.68496 0.92132 0.0
H1521 H 0.63366 0.59175 0.87955 0.0
H1522 H 0.60024 0.57803 0.91588 0.0
H1523 H 0.6604 0.6429 0.84715 0.0
H1524 H 0.70017 0.59403 0.9078 0.0
H1525 H 0.71957 0.58652 0.94903 0.0
H1526 H 0.78951 0.70001 0.94707 0.0
H1527 H 0.77054 0.70822 0.9058 0.0
C1528 C 0.76404 0.659 0.76985 0.0
C1529 C 0.78999 0.69377 0.76696 0.0
C1530 C 0.74613 0.65107 0.79134 0.0
C1531 C 0.7533 0.67745 0.81101 0.0
C1532 C 0.77987 0.71171 0.80891 0.0
C1533 C 0.79789 0.71988 0.7871 0.0
C1534 C 0.73243 0.6691 0.83309 0.0
C1535 C 0.74195 0.66767 0.85799 0.0
C1536 C 0.70237 0.65946 0.82938 0.0
C1537 C 0.69068 0.66042 0.8037 0.0
C1538 C 0.70421 0.69299 0.7892 0.0
C1539 C 0.69373 0.69329 0.76463 0.0
C1540 C 0.6696 0.66126 0.75442 0.0
C1541 C 0.65579 0.62892 0.76882 0.0
C1542 C 0.6662 0.62846 0.79339 0.0
C1543 C 0.66153 0.6529 0.94067 0.0
C1544 C 0.63223 0.62282 0.93999 0.0
C1545 C 0.68046 0.66105 0.91985 0.0
C1546 C 0.67131 0.63903 0.89748 0.0
C1547 C 0.64177 0.60931 0.89643 0.0
C1548 C 0.62251 0.60136 0.91733 0.0
C1549 C 0.69247 0.64775 0.87538 0.0
C1550 C 0.683 0.6491 0.85036 0.0
C1551 C 0.72244 0.65648 0.8789 0.0
C1552 C 0.73372 0.65185 0.90386 0.0
C1553 C 0.71955 0.61747 0.91627 0.0
C1554 C 0.73051 0.61307 0.93961 0.0
C1555 C 0.75563 0.64286 0.95073 0.0
C1556 C 0.76997 0.67703 0.93847 0.0
C1557 C 0.75919 0.68154 0.91506 0.0
H1558 H 0.76414 0.63941 0.96878 0.0
H1559 H 0.66157 0.66151 0.73538 0.0
H1560 H 0.7218 0.7323 0.42263 0.0
H1561 H 0.74278 0.73101 0.4638 0.0
H1562 H 0.74277 0.8312 0.48658 0.0
H1563 H 0.72186 0.83299 0.44442 0.0
H1564 H 0.7952 0.83451 0.50095 0.0
H1565 H 0.69356 0.74648 0.51237 0.0
H1566 H 0.64473 0.69293 0.5015 0.0
H1567 H 0.6821 0.62086 0.50123 0.0
H1568 H 0.73125 0.67407 0.51174 0.0
H1569 H 0.83524 0.80523 0.62923 0.0
H1570 H 0.81533 0.81909 0.59078 0.0
H1571 H 0.79831 0.71499 0.55695 0.0
H1572 H 0.81712 0.70075 0.59551 0.0
H1573 H 0.75155 0.71893 0.55125 0.0
H1574 H 0.85418 0.80848 0.53618 0.0
H1575 H 0.90296 0.86233 0.54684 0.0
H1576 H 0.86354 0.93162 0.55464 0.0
H1577 H 0.81446 0.87806 0.54429 0.0
C1578 C 0.72584 0.75401 0.43637 0.0
C1579 C 0.7198 0.78266 0.42997 0.0
C1580 C 0.73789 0.75314 0.46017 0.0
C1581 C 0.74435 0.78076 0.47879 0.0
C1582 C 0.73804 0.80937 0.47274 0.0
C1583 C 0.72569 0.81016 0.44868 0.0
C1584 C 0.75803 0.77928 0.50406 0.0
C1585 C 0.78534 0.80944 0.51219 0.0
C1586 C 0.74574 0.74652 0.51885 0.0
C1587 C 0.71615 0.71435 0.51269 0.0
C1588 C 0.69141 0.71926 0.50984 0.0
C1589 C 0.66366 0.68895 0.50376 0.0
C1590 C 0.66032 0.65353 0.50064 0.0
C1591 C 0.68472 0.64832 0.50365 0.0
C1592 C 0.71252 0.67854 0.5097 0.0
C1593 C 0.8283 0.78598 0.6132 0.0
C1594 C 0.82837 0.7521 0.61542 0.0
C1595 C 0.81661 0.79379 0.59113 0.0
C1596 C 0.80504 0.76817 0.5705 0.0
C1597 C 0.8067 0.73532 0.57235 0.0
C1598 C 0.81793 0.72735 0.59441 0.0
C1599 C 0.78934 0.77366 0.5478 0.0
C1600 C 0.76147 0.74416 0.54017 0.0
C1601 C 0.80115 0.80701 0.5336 0.0
C1602 C 0.83062 0.83919 0.53974 0.0
C1603 C 0.85589 0.83514 0.54035 0.0
C1604 C 0.8836 0.86562 0.5463 0.0
C1605 C 0.88634 0.90035 0.55149 0.0
C1606 C 0.86138 0.9047 0.55065 0.0
C1607 C 0.83363 0.8743 0.54473 0.0
H1608 H 0.9078 0.92391 0.55609 0.0
H1609 H 0.63883 0.6301 0.49592 0.0
H1610 H 0.22858 0.95605 0.41091 0.0
H1611 H 0.24249 0.97991 0.45449 0.0
H1612 H 0.28849 0.918 0.46335 0.0
H1613 H 0.27338 0.89274 0.41981 0.0
H1614 H 0.26618 0.92044 0.5075 0.0
H1615 H 0.32368 1.0139 0.44653 0.0
H1616 H 0.3317 0.05399 0.4095 0.0
H1617 H 0.28659 0.10363 0.44705 0.0
H1618 H 0.27787 0.0634 0.48418 0.0
H1619 H 0.37003 0.03209 0.6027 0.0
H1620 H 0.3467 1.00298 0.56217 0.0
H1621 H 0.29264 0.05485 0.56554 0.0
H1622 H 0.3159 0.0842 0.60673 0.0
H1623 H 0.31663 0.05786 0.51623 0.0
H1624 H 0.26187 0.96632 0.57836 0.0
H1625 H 0.25566 0.92733 0.61561 0.0
H1626 H 0.29728 0.87497 0.57575 0.0
H1627 H 0.30425 0.91416 0.5384 0.0
C1628 C 0.24091 0.94659 0.42239 0.0
C1629 C 0.24965 0.9222 0.41184 0.0
C1630 C 0.24928 0.96075 0.4473 0.0
C1631 C 0.26749 0.95195 0.46225 0.0
C1632 C 0.27467 0.92566 0.45234 0.0
C1633 C 0.2658 0.91089 0.42744 0.0
C1634 C 0.28011 0.97153 0.48747 0.0
C1635 C 0.27746 0.9505 0.50923 0.0
C1636 C 0.29443 1.01092 0.49026 0.0
C1637 C 0.29992 0.03542 0.46807 0.0
C1638 C 0.31532 0.03322 0.44684 0.0
C1639 C 0.32001 0.05597 0.42584 0.0
C1640 C 0.30969 0.08135 0.42594 0.0
C1641 C 0.2946 0.08397 0.44702 0.0
C1642 C 0.28979 0.06122 0.46806 0.0
C1643 C 0.35329 0.03766 0.59496 0.0
C1644 C 0.345 0.06075 0.60828 0.0
C1645 C 0.33982 1.02072 0.57165 0.0
C1646 C 0.31763 1.02627 0.56068 0.0
C1647 C 0.30967 0.05 0.57351 0.0
C1648 C 0.32301 0.06679 0.59713 0.0
C1649 C 0.30277 1.00674 0.53607 0.0
C1650 C 0.30513 1.0278 0.51445 0.0
C1651 C 0.28835 0.96745 0.53336 0.0
C1652 C 0.2838 0.94341 0.55564 0.0
C1653 C 0.26989 0.94668 0.57759 0.0
C1654 C 0.26621 0.92452 0.59872 0.0
C1655 C 0.27611 0.89873 0.59806 0.0
C1656 C 0.28964 0.89498 0.57624 0.0
C1657 C 0.29345 0.91715 0.55507 0.0
H1658 H 0.27325 0.8816 0.61444 0.0
H1659 H 0.31347 0.09907 0.40973 0.0
H1660 H 0.98751 0.29718 0.63334 0.0
H1661 H 1.02062 0.31735 0.59747 0.0
H1662 H 0.94879 0.29987 0.54735 0.0
H1663 H 0.91481 0.27939 0.58382 0.0
H1664 H 0.98559 0.27612 0.52512 0.0
H1665 H 1.00021 0.38762 0.56666 0.0
H1666 H 1.00982 0.43006 0.60319 0.0
H1667 H 0.09374 0.43658 0.61666 0.0
H1668 H 0.08445 0.39373 0.5804 0.0
H1669 H 0.07171 0.3741 0.4215 0.0
H1670 H 0.03966 0.35651 0.45815 0.0
H1671 H 0.11338 0.37881 0.50749 0.0
H1672 H 0.1462 0.397 0.47012 0.0
H1673 H 0.07619 0.40001 0.53056 0.0
H1674 H 0.0628 0.28942 0.49057 0.0
H1675 H 0.05421 0.24559 0.45519 0.0
H1676 H 0.96942 0.23567 0.43993 0.0
H1677 H 0.97766 0.27987 0.47507 0.0
C1678 C 0.97833 0.29738 0.61478 0.0
C1679 C 0.9481 0.28674 0.61187 0.0
C1680 C 0.99763 0.30921 0.59411 0.0
C1681 C 0.98771 0.31108 0.5695 0.0
C1682 C 0.95729 0.29908 0.5661 0.0
C1683 C 0.93775 0.28723 0.58702 0.0
C1684 C 1.00945 0.32596 0.54782 0.0
C1685 C 1.00507 0.30348 0.52618 0.0
C1686 C 0.03574 0.36119 0.54928 0.0
C1687 C 0.04151 0.38721 0.57094 0.0
C1688 C 1.02063 0.3979 0.57752 0.0
C1689 C 1.02603 0.42206 0.59816 0.0
C1690 C 0.05235 0.43594 0.61227 0.0
C1691 C 0.07336 0.42577 0.60572 0.0
C1692 C 0.06805 0.40158 0.58511 0.0
C1693 C 0.08144 0.37581 0.44015 0.0
C1694 C 0.11174 0.38695 0.44262 0.0
C1695 C 0.06284 0.36539 0.46123 0.0
C1696 C 0.07357 0.36521 0.48582 0.0
C1697 C 0.10425 0.37829 0.48878 0.0
C1698 C 0.12315 0.38898 0.4674 0.0
C1699 C 0.05221 0.35027 0.50777 0.0
C1700 C 0.05667 0.37268 0.52946 0.0
C1701 C 1.02612 0.31482 0.50649 0.0
C1702 C 1.02096 0.28819 0.48535 0.0
C1703 C 0.04241 0.27811 0.47956 0.0
C1704 C 0.03759 0.25317 0.45957 0.0
C1705 C 1.01129 0.23787 0.44533 0.0
C1706 C 0.98977 0.24753 0.45101 0.0
C1707 C 0.99449 0.2725 0.47099 0.0
H1708 H 1.00757 0.21843 0.42995 0.0
H1709 H 0.05649 0.45464 0.62825 0.0
loop_
_geom_bond_atom_site_label_1
_geom_bond_atom_site_label_2
_geom_bond_distance
_geom_bond_site_symmetry_2
_ccdc_geom_bond_type
Dy0 O3 2.307 1_456 S
Dy0 O5 2.395 1_556 S
Dy0 O6 2.379 . S
Dy0 O8 2.338 . S
Dy0 O10 2.298 . S
Dy0 O14 2.276 1_556 S
Dy0 C22 2.738 1_556 S
Dy1 O4 2.298 . S
Dy1 O7 2.275 1_554 S
Dy1 O9 2.307 1_655 S
Dy1 O11 2.395 1_554 S
Dy1 O12 2.379 . S
Dy1 O15 2.339 . S
Dy1 C31 2.738 . S
C2 O14 1.254 . S
C2 O15 1.257 1_455 S
O3 Dy0 2.307 1_654 S
O3 C13 1.266 . S
O4 Dy1 2.298 . S
O4 C13 1.236 . S
O5 Dy0 2.395 1_554 S
O5 C22 1.255 . S
O6 Dy0 2.379 . S
O6 C22 1.250 1_556 S
O7 Dy1 2.275 1_556 S
O7 C23 1.254 . S
O8 Dy0 2.338 . S
O8 C23 1.257 1_455 S
O9 Dy1 2.307 1_455 S
O9 C24 1.266 . S
O10 Dy0 2.298 . S
O10 C24 1.236 1_556 S
O11 Dy1 2.395 1_556 S
O11 C31 1.255 1_556 S
O12 Dy1 2.379 . S
O12 C31 1.249 . S
C13 O3 1.266 . S
C13 O4 1.236 . S
O14 Dy0 2.276 1_554 S
O14 C2 1.254 . S
O15 Dy1 2.339 . S
O15 C2 1.257 1_655 S
C16 C19 1.361 . S
C16 C20 1.310 1_554 S
C16 C22 1.516 . S
C17 C18 1.304 . S
C17 C21 1.323 1_554 S
C18 C17 1.304 . S
C18 C19 1.371 . S
C18 H32 0.930 . S
C19 C16 1.361 . S
C19 C18 1.371 . S
C19 H33 0.931 . S
C20 C16 1.310 1_556 S
C20 C21 1.433 . S
C20 H34 0.931 . S
C21 C17 1.323 1_556 S
C21 C20 1.433 . S
C21 H35 0.933 . S
C22 Dy0 2.738 1_554 S
C22 O5 1.255 . S
C22 O6 1.250 1_554 S
C22 C16 1.516 . S
C23 O7 1.254 . S
C23 O8 1.257 1_655 S
C24 O9 1.266 . S
C24 O10 1.236 1_554 S
C25 C28 1.344 1_554 S
C25 C29 1.328 . S
C25 C31 1.516 . S
C26 C27 1.304 1_554 S
C26 C30 1.323 . S
C27 C26 1.304 1_556 S
C27 C28 1.371 . S
C27 H36 0.930 . S
C28 C25 1.344 1_556 S
C28 C27 1.371 . S
C28 H37 0.931 . S
C29 C25 1.328 . S
C29 C30 1.433 . S
C29 H38 0.931 . S
C30 C26 1.323 . S
C30 C29 1.433 . S
C30 H39 0.933 . S
C31 Dy1 2.738 . S
C31 O11 1.255 1_554 S
C31 O12 1.249 . S
C31 C25 1.516 . S
H32 C18 0.930 . S
H33 C19 0.931 . S
H34 C20 0.931 . S
H35 C21 0.933 . S
H36 C27 0.930 . S
H37 C28 0.931 . S
H38 C29 0.931 . S
H39 C30 0.933 . S
Dy40 O43 2.307 . S
Dy40 O45 2.395 1_554 S
Dy40 O46 2.379 . S
Dy40 O48 2.339 . S
Dy40 O50 2.298 . S
Dy40 O54 2.275 1_554 S
Dy40 C62 2.738 . S
Dy41 O44 2.298 . S
Dy41 O47 2.275 1_556 S
Dy41 O49 2.307 . S
Dy41 O51 2.395 1_556 S
Dy41 O52 2.379 . S
Dy41 O55 2.339 . S
Dy41 C71 2.738 . S
C42 O54 1.254 . S
C42 O55 1.257 . S
O43 Dy40 2.307 . S
O43 C53 1.266 1_554 S
O44 Dy41 2.298 . S
O44 C53 1.236 . S
O45 Dy40 2.395 1_556 S
O45 C62 1.255 1_556 S
O46 Dy40 2.379 . S
O46 C62 1.249 . S
O47 Dy41 2.275 1_554 S
O47 C63 1.254 . S
O48 Dy40 2.339 . S
O48 C63 1.257 . S
O49 Dy41 2.307 . S
O49 C64 1.266 1_556 S
O50 Dy40 2.298 . S
O50 C64 1.236 . S
O51 Dy41 2.395 1_554 S
O51 C71 1.255 1_554 S
O52 Dy41 2.379 . S
O52 C71 1.249 . S
C53 O43 1.266 1_556 S
C53 O44 1.236 . S
O54 Dy40 2.275 1_556 S
O54 C42 1.254 . S
O55 Dy41 2.339 . S
O55 C42 1.257 . S
C56 C59 1.344 1_554 S
C56 C60 1.328 . S
C56 C62 1.516 . S
C57 C58 1.304 1_554 S
C57 C61 1.323 . S
C58 C57 1.304 1_556 S
C58 C59 1.371 . S
C58 H72 0.930 . S
C59 C56 1.344 1_556 S
C59 C58 1.371 . S
C59 H73 0.931 . S
C60 C56 1.328 . S
C60 C61 1.433 . S
C60 H74 0.931 . S
C61 C57 1.323 . S
C61 C60 1.433 . S
C61 H75 0.933 . S
C62 Dy40 2.738 . S
C62 O45 1.255 1_554 S
C62 O46 1.249 . S
C62 C56 1.516 . S
C63 O47 1.254 . S
C63 O48 1.257 . S
C64 O49 1.266 1_554 S
C64 O50 1.236 . S
C65 C68 1.344 1_556 S
C65 C69 1.328 . S
C65 C71 1.516 . S
C66 C67 1.304 1_556 S
C66 C70 1.323 . S
C67 C66 1.304 1_554 S
C67 C68 1.371 . S
C67 H76 0.930 . S
C68 C65 1.344 1_554 S
C68 C67 1.371 . S
C68 H77 0.931 . S
C69 C65 1.328 . S
C69 C70 1.433 . S
C69 H78 0.931 . S
C70 C66 1.323 . S
C70 C69 1.433 . S
C70 H79 0.933 . S
C71 Dy41 2.738 . S
C71 O51 1.255 1_556 S
C71 O52 1.249 . S
C71 C65 1.516 . S
H72 C58 0.930 . S
H73 C59 0.931 . S
H74 C60 0.931 . S
H75 C61 0.933 . S
H76 C67 0.930 . S
H77 C68 0.931 . S
H78 C69 0.931 . S
H79 C70 0.933 . S
Dy80 O83 2.306 1_566 S
Dy80 O85 2.379 1_556 S
Dy80 O86 2.392 . S
Dy80 O88 2.370 . S
Dy80 O90 2.301 . S
Dy80 O94 2.249 1_556 S
Dy80 C102 2.737 . S
Dy81 O84 2.298 . S
Dy81 O87 2.275 1_554 S
Dy81 O89 2.307 1_545 S
Dy81 O91 2.395 1_554 S
Dy81 O92 2.379 . S
Dy81 O95 2.339 . S
Dy81 C111 2.738 . S
C82 O94 1.254 . S
C82 O95 1.257 1_565 S
O83 Dy80 2.306 1_544 S
O83 C93 1.266 . S
O84 Dy81 2.298 . S
O84 C93 1.236 . S
O85 Dy80 2.379 1_554 S
O85 C102 1.244 1_554 S
O86 Dy80 2.392 . S
O86 C102 1.261 . S
O87 Dy81 2.275 1_556 S
O87 C103 1.254 . S
O88 Dy80 2.370 . S
O88 C103 1.257 1_565 S
O89 Dy81 2.307 1_565 S
O89 C104 1.266 . S
O90 Dy80 2.301 . S
O90 C104 1.236 1_556 S
O91 Dy81 2.395 1_556 S
O91 C111 1.255 1_556 S
O92 Dy81 2.379 . S
O92 C111 1.249 . S
C93 O83 1.266 . S
C93 O84 1.236 . S
O94 Dy80 2.249 1_554 S
O94 C82 1.254 . S
O95 Dy81 2.339 . S
O95 C82 1.257 1_545 S
C96 C99 1.347 . S
C96 C100 1.325 1_554 S
C96 C102 1.515 1_554 S
C97 C98 1.304 . S
C97 C101 1.323 1_554 S
C98 C97 1.304 . S
C98 C99 1.371 . S
C98 H112 0.930 . S
C99 C96 1.347 . S
C99 C98 1.371 . S
C99 H113 0.931 . S
C100 C96 1.325 1_556 S
C100 C101 1.433 . S
C100 H114 0.931 . S
C101 C97 1.323 1_556 S
C101 C100 1.433 . S
C101 H115 0.933 . S
C102 Dy80 2.737 . S
C102 O85 1.244 1_556 S
C102 O86 1.261 . S
C102 C96 1.515 1_556 S
C103 O87 1.254 . S
C103 O88 1.257 1_545 S
C104 O89 1.266 . S
C104 O90 1.236 1_554 S
C105 C108 1.344 1_554 S
C105 C109 1.328 . S
C105 C111 1.516 . S
C106 C107 1.304 1_554 S
C106 C110 1.323 . S
C107 C106 1.304 1_556 S
C107 C108 1.371 . S
C107 H116 0.930 . S
C108 C105 1.344 1_556 S
C108 C107 1.371 . S
C108 H117 0.931 . S
C109 C105 1.328 . S
C109 C110 1.433 . S
C109 H118 0.931 . S
C110 C106 1.323 . S
C110 C109 1.433 . S
C110 H119 0.933 . S
C111 Dy81 2.738 . S
C111 O91 1.255 1_554 S
C111 O92 1.249 . S
C111 C105 1.516 . S
H112 C98 0.930 . S
H113 C99 0.931 . S
H114 C100 0.931 . S
H115 C101 0.933 . S
H116 C107 0.930 . S
H117 C108 0.931 . S
H118 C109 0.931 . S
H119 C110 0.933 . S
Dy120 O123 2.307 . S
Dy120 O125 2.395 . S
Dy120 O126 2.379 . S
Dy120 O128 2.339 . S
Dy120 O130 2.298 . S
Dy120 O134 2.275 . S
Dy120 C142 2.738 . S
Dy121 O124 2.298 . S
Dy121 O127 2.275 . S
Dy121 O129 2.307 . S
Dy121 O131 2.395 . S
Dy121 O132 2.379 . S
Dy121 O135 2.339 . S
Dy121 C151 2.738 . S
C122 O134 1.254 . S
C122 O135 1.257 . S
O123 Dy120 2.307 . S
O123 C133 1.266 . S
O124 Dy121 2.298 . S
O124 C133 1.236 . S
O125 Dy120 2.395 . S
O125 C142 1.255 . S
O126 Dy120 2.379 . S
O126 C142 1.249 . S
O127 Dy121 2.275 . S
O127 C143 1.254 . S
O128 Dy120 2.339 . S
O128 C143 1.257 . S
O129 Dy121 2.307 . S
O129 C144 1.266 . S
O130 Dy120 2.298 . S
O130 C144 1.236 . S
O131 Dy121 2.395 . S
O131 C151 1.255 . S
O132 Dy121 2.379 . S
O132 C151 1.249 . S
C133 O123 1.266 . S
C133 O124 1.236 . S
O134 Dy120 2.275 . S
O134 C122 1.254 . S
O135 Dy121 2.339 . S
O135 C122 1.257 . S
C136 C139 1.344 . S
C136 C140 1.328 . S
C136 C142 1.516 . S
C137 C138 1.304 . S
C137 C141 1.323 . S
C138 C137 1.304 . S
C138 C139 1.371 . S
C138 H152 0.930 . S
C139 C136 1.344 . S
C139 C138 1.371 . S
C139 H153 0.931 . S
C140 C136 1.328 . S
C140 C141 1.433 . S
C140 H154 0.931 . S
C141 C137 1.323 . S
C141 C140 1.433 . S
C141 H155 0.933 . S
C142 Dy120 2.738 . S
C142 O125 1.255 . S
C142 O126 1.249 . S
C142 C136 1.516 . S
C143 O127 1.254 . S
C143 O128 1.257 . S
C144 O129 1.266 . S
C144 O130 1.236 . S
C145 C148 1.344 . S
C145 C149 1.328 . S
C145 C151 1.516 . S
C146 C147 1.304 . S
C146 C150 1.323 . S
C147 C146 1.304 . S
C147 C148 1.371 . S
C147 H156 0.930 . S
C148 C145 1.344 . S
C148 C147 1.371 . S
C148 H157 0.931 . S
C149 C145 1.328 . S
C149 C150 1.433 . S
C149 H158 0.931 . S
C150 C146 1.323 . S
C150 C149 1.433 . S
C150 H159 0.933 . S
C151 Dy121 2.738 . S
C151 O131 1.255 . S
C151 O132 1.249 . S
C151 C145 1.516 . S
H152 C138 0.930 . S
H153 C139 0.931 . S
H154 C140 0.931 . S
H155 C141 0.933 . S
H156 C147 0.930 . S
H157 C148 0.931 . S
H158 C149 0.931 . S
H159 C150 0.933 . S
Dy160 O163 2.307 . S
Dy160 O165 2.395 . S
Dy160 O166 2.379 . S
Dy160 O168 2.339 . S
Dy160 O170 2.298 . S
Dy160 O174 2.275 . S
Dy160 C182 2.738 . S
Dy161 O164 2.298 . S
Dy161 O167 2.275 . S
Dy161 O169 2.307 . S
Dy161 O171 2.395 . S
Dy161 O172 2.379 . S
Dy161 O175 2.339 . S
Dy161 C191 2.738 . S
C162 O174 1.254 . S
C162 O175 1.257 . S
O163 Dy160 2.307 . S
O163 C173 1.266 . S
O164 Dy161 2.298 . S
O164 C173 1.236 . S
O165 Dy160 2.395 . S
O165 C182 1.255 . S
O166 Dy160 2.379 . S
O166 C182 1.249 . S
O167 Dy161 2.275 . S
O167 C183 1.254 . S
O168 Dy160 2.339 . S
O168 C183 1.257 . S
O169 Dy161 2.307 . S
O169 C184 1.266 . S
O170 Dy160 2.298 . S
O170 C184 1.236 . S
O171 Dy161 2.395 . S
O171 C191 1.255 . S
O172 Dy161 2.379 . S
O172 C191 1.249 . S
C173 O163 1.266 . S
C173 O164 1.236 . S
O174 Dy160 2.275 . S
O174 C162 1.254 . S
O175 Dy161 2.339 . S
O175 C162 1.257 . S
C176 C179 1.344 . S
C176 C180 1.328 . S
C176 C182 1.516 1_545 S
C177 C178 1.304 . S
C177 C181 1.323 . S
C178 C177 1.304 . S
C178 C179 1.371 . S
C178 H192 0.930 . S
C179 C176 1.344 . S
C179 C178 1.371 . S
C179 H193 0.931 . S
C180 C176 1.328 . S
C180 C181 1.433 . S
C180 H194 0.931 . S
C181 C177 1.323 . S
C181 C180 1.433 . S
C181 H195 0.933 . S
C182 Dy160 2.738 . S
C182 O165 1.255 . S
C182 O166 1.249 . S
C182 C176 1.516 1_565 S
C183 O167 1.254 . S
C183 O168 1.257 . S
C184 O169 1.266 . S
C184 O170 1.236 . S
C185 C188 1.344 . S
C185 C189 1.328 . S
C185 C191 1.516 . S
C186 C187 1.304 . S
C186 C190 1.323 . S
C187 C186 1.304 . S
C187 C188 1.371 . S
C187 H196 0.930 . S
C188 C185 1.344 . S
C188 C187 1.371 . S
C188 H197 0.931 . S
C189 C185 1.328 . S
C189 C190 1.433 . S
C189 H198 0.931 . S
C190 C186 1.323 . S
C190 C189 1.433 . S
C190 H199 0.933 . S
C191 Dy161 2.738 . S
C191 O171 1.255 . S
C191 O172 1.249 . S
C191 C185 1.516 . S
H192 C178 0.930 . S
H193 C179 0.931 . S
H194 C180 0.931 . S
H195 C181 0.933 . S
H196 C187 0.930 . S
H197 C188 0.931 . S
H198 C189 0.931 . S
H199 C190 0.933 . S
Dy200 O203 2.307 . S
Dy200 O205 2.395 . S
Dy200 O206 2.379 . S
Dy200 O208 2.339 . S
Dy200 O210 2.298 . S
Dy200 O214 2.275 . S
Dy200 C222 2.738 . S
Dy201 O204 2.298 . S
Dy201 O207 2.275 . S
Dy201 O209 2.307 . S
Dy201 O211 2.395 . S
Dy201 O212 2.379 . S
Dy201 O215 2.339 . S
Dy201 C231 2.738 . S
C202 O214 1.254 . S
C202 O215 1.257 . S
O203 Dy200 2.307 . S
O203 C213 1.266 . S
O204 Dy201 2.298 . S
O204 C213 1.236 . S
O205 Dy200 2.395 . S
O205 C222 1.255 . S
O206 Dy200 2.379 . S
O206 C222 1.249 . S
O207 Dy201 2.275 . S
O207 C223 1.254 . S
O208 Dy200 2.339 . S
O208 C223 1.257 . S
O209 Dy201 2.307 . S
O209 C224 1.266 . S
O210 Dy200 2.298 . S
O210 C224 1.236 . S
O211 Dy201 2.395 . S
O211 C231 1.255 . S
O212 Dy201 2.379 . S
O212 C231 1.249 . S
C213 O203 1.266 . S
C213 O204 1.236 . S
O214 Dy200 2.275 . S
O214 C202 1.254 . S
O215 Dy201 2.339 . S
O215 C202 1.257 . S
C216 C219 1.344 . S
C216 C220 1.328 1_455 S
C216 C222 1.516 . S
C217 C218 1.304 . S
C217 C221 1.323 . S
C218 C217 1.304 . S
C218 C219 1.371 1_655 S
C218 H232 0.930 . S
C219 C216 1.344 . S
C219 C218 1.371 1_455 S
C219 H233 0.931 . S
C220 C216 1.328 1_655 S
C220 C221 1.433 . S
C220 H234 0.931 . S
C221 C217 1.323 . S
C221 C220 1.433 . S
C221 H235 0.933 . S
C222 Dy200 2.738 . S
C222 O205 1.255 . S
C222 O206 1.249 . S
C222 C216 1.516 . S
C223 O207 1.254 . S
C223 O208 1.257 . S
C224 O209 1.266 . S
C224 O210 1.236 . S
C225 C228 1.344 . S
C225 C229 1.328 . S
C225 C231 1.516 . S
C226 C227 1.304 . S
C226 C230 1.323 . S
C227 C226 1.304 . S
C227 C228 1.371 . S
C227 H236 0.930 . S
C228 C225 1.344 . S
C228 C227 1.371 . S
C228 H237 0.931 . S
C229 C225 1.328 . S
C229 C230 1.433 . S
C229 H238 0.931 . S
C230 C226 1.323 . S
C230 C229 1.433 . S
C230 H239 0.933 . S
C231 Dy201 2.738 . S
C231 O211 1.255 . S
C231 O212 1.249 . S
C231 C225 1.516 . S
H232 C218 0.930 . S
H233 C219 0.931 . S
H234 C220 0.931 . S
H235 C221 0.933 . S
H236 C227 0.930 . S
H237 C228 0.931 . S
H238 C229 0.931 . S
H239 C230 0.933 . S
Dy240 O243 2.307 . S
Dy240 O245 2.395 . S
Dy240 O246 2.379 . S
Dy240 O248 2.339 . S
Dy240 O250 2.298 . S
Dy240 O254 2.275 . S
Dy240 C262 2.738 . S
Dy241 O244 2.298 . S
Dy241 O247 2.275 . S
Dy241 O249 2.307 . S
Dy241 O251 2.395 . S
Dy241 O252 2.379 . S
Dy241 O255 2.339 . S
Dy241 C271 2.738 . S
C242 O254 1.254 . S
C242 O255 1.257 . S
O243 Dy240 2.307 . S
O243 C253 1.266 . S
O244 Dy241 2.298 . S
O244 C253 1.236 . S
O245 Dy240 2.395 . S
O245 C262 1.255 . S
O246 Dy240 2.379 . S
O246 C262 1.249 . S
O247 Dy241 2.275 . S
O247 C263 1.254 . S
O248 Dy240 2.339 . S
O248 C263 1.257 . S
O249 Dy241 2.307 . S
O249 C264 1.266 . S
O250 Dy240 2.298 . S
O250 C264 1.236 . S
O251 Dy241 2.395 . S
O251 C271 1.255 . S
O252 Dy241 2.379 . S
O252 C271 1.249 . S
C253 O243 1.266 . S
C253 O244 1.236 . S
O254 Dy240 2.275 . S
O254 C242 1.254 . S
O255 Dy241 2.339 . S
O255 C242 1.257 . S
C256 C259 1.344 . S
C256 C260 1.328 . S
C256 C262 1.516 . S
C257 C258 1.304 . S
C257 C261 1.323 . S
C258 C257 1.304 . S
C258 C259 1.371 . S
C258 H272 0.930 . S
C259 C256 1.344 . S
C259 C258 1.371 . S
C259 H273 0.931 . S
C260 C256 1.328 . S
C260 C261 1.433 . S
C260 H274 0.931 . S
C261 C257 1.323 . S
C261 C260 1.433 . S
C261 H275 0.933 . S
C262 Dy240 2.738 . S
C262 O245 1.255 . S
C262 O246 1.249 . S
C262 C256 1.516 . S
C263 O247 1.254 . S
C263 O248 1.257 . S
C264 O249 1.266 . S
C264 O250 1.236 . S
C265 C268 1.344 . S
C265 C269 1.328 . S
C265 C271 1.516 . S
C266 C267 1.304 . S
C266 C270 1.323 . S
C267 C266 1.304 . S
C267 C268 1.371 . S
C267 H276 0.930 . S
C268 C265 1.344 . S
C268 C267 1.371 . S
C268 H277 0.931 . S
C269 C265 1.328 . S
C269 C270 1.433 . S
C269 H278 0.931 . S
C270 C266 1.323 . S
C270 C269 1.433 . S
C270 H279 0.933 . S
C271 Dy241 2.738 . S
C271 O251 1.255 . S
C271 O252 1.249 . S
C271 C265 1.516 . S
H272 C258 0.930 . S
H273 C259 0.931 . S
H274 C260 0.931 . S
H275 C261 0.933 . S
H276 C267 0.930 . S
H277 C268 0.931 . S
H278 C269 0.931 . S
H279 C270 0.933 . S
Dy280 O283 2.307 . S
Dy280 O285 2.395 . S
Dy280 O286 2.379 . S
Dy280 O288 2.339 . S
Dy280 O290 2.298 . S
Dy280 O294 2.275 . S
Dy280 C302 2.738 . S
Dy281 O284 2.298 . S
Dy281 O287 2.275 . S
Dy281 O289 2.307 . S
Dy281 O291 2.395 . S
Dy281 O292 2.379 . S
Dy281 O295 2.339 . S
Dy281 C311 2.738 . S
C282 O294 1.254 . S
C282 O295 1.257 . S
O283 Dy280 2.307 . S
O283 C293 1.266 . S
O284 Dy281 2.298 . S
O284 C293 1.236 . S
O285 Dy280 2.395 . S
O285 C302 1.255 . S
O286 Dy280 2.379 . S
O286 C302 1.249 . S
O287 Dy281 2.275 . S
O287 C303 1.254 . S
O288 Dy280 2.339 . S
O288 C303 1.257 . S
O289 Dy281 2.307 . S
O289 C304 1.266 . S
O290 Dy280 2.298 . S
O290 C304 1.236 . S
O291 Dy281 2.395 . S
O291 C311 1.255 . S
O292 Dy281 2.379 . S
O292 C311 1.249 . S
C293 O283 1.266 . S
C293 O284 1.236 . S
O294 Dy280 2.275 . S
O294 C282 1.254 . S
O295 Dy281 2.339 . S
O295 C282 1.257 . S
C296 C299 1.344 1_655 S
C296 C300 1.328 1_655 S
C296 C302 1.516 . S
C297 C298 1.304 . S
C297 C301 1.323 . S
C298 C297 1.304 . S
C298 C299 1.371 . S
C298 H312 0.930 . S
C299 C296 1.344 1_455 S
C299 C298 1.371 . S
C299 H313 0.931 1_455 S
C300 C296 1.328 1_455 S
C300 C301 1.433 . S
C300 H314 0.931 . S
C301 C297 1.323 . S
C301 C300 1.433 . S
C301 H315 0.933 . S
C302 Dy280 2.738 . S
C302 O285 1.255 . S
C302 O286 1.249 . S
C302 C296 1.516 . S
C303 O287 1.254 . S
C303 O288 1.257 . S
C304 O289 1.266 . S
C304 O290 1.236 . S
C305 C308 1.344 . S
C305 C309 1.328 . S
C305 C311 1.516 . S
C306 C307 1.304 . S
C306 C310 1.323 . S
C307 C306 1.304 . S
C307 C308 1.371 . S
C307 H316 0.930 . S
C308 C305 1.344 . S
C308 C307 1.371 . S
C308 H317 0.931 . S
C309 C305 1.328 . S
C309 C310 1.433 . S
C309 H318 0.931 . S
C310 C306 1.323 . S
C310 C309 1.433 . S
C310 H319 0.933 . S
C311 Dy281 2.738 . S
C311 O291 1.255 . S
C311 O292 1.249 . S
C311 C305 1.516 . S
H312 C298 0.930 . S
H313 C299 0.931 1_655 S
H314 C300 0.931 . S
H315 C301 0.933 . S
H316 C307 0.930 . S
H317 C308 0.931 . S
H318 C309 0.931 . S
H319 C310 0.933 . S
Dy320 O323 2.307 . S
Dy320 O325 2.395 . S
Dy320 O326 2.379 . S
Dy320 O328 2.339 . S
Dy320 O330 2.298 . S
Dy320 O334 2.275 . S
Dy320 C342 2.738 . S
Dy321 O324 2.298 . S
Dy321 O327 2.275 . S
Dy321 O329 2.307 . S
Dy321 O331 2.395 . S
Dy321 O332 2.379 . S
Dy321 O335 2.339 . S
Dy321 C351 2.738 . S
C322 O334 1.254 . S
C322 O335 1.257 . S
O323 Dy320 2.307 . S
O323 C333 1.266 . S
O324 Dy321 2.298 . S
O324 C333 1.236 . S
O325 Dy320 2.395 . S
O325 C342 1.255 . S
O326 Dy320 2.379 . S
O326 C342 1.249 . S
O327 Dy321 2.275 . S
O327 C343 1.254 . S
O328 Dy320 2.339 . S
O328 C343 1.257 . S
O329 Dy321 2.307 . S
O329 C344 1.266 . S
O330 Dy320 2.298 . S
O330 C344 1.236 . S
O331 Dy321 2.395 . S
O331 C351 1.255 . S
O332 Dy321 2.379 . S
O332 C351 1.249 . S
C333 O323 1.266 . S
C333 O324 1.236 . S
O334 Dy320 2.275 . S
O334 C322 1.254 . S
O335 Dy321 2.339 . S
O335 C322 1.257 . S
C336 C339 1.344 . S
C336 C340 1.328 . S
C336 C342 1.516 . S
C337 C338 1.304 . S
C337 C341 1.323 . S
C338 C337 1.304 . S
C338 C339 1.371 . S
C338 H352 0.930 . S
C339 C336 1.344 . S
C339 C338 1.371 . S
C339 H353 0.931 . S
C340 C336 1.328 . S
C340 C341 1.433 . S
C340 H354 0.931 . S
C341 C337 1.323 . S
C341 C340 1.433 . S
C341 H355 0.933 . S
C342 Dy320 2.738 . S
C342 O325 1.255 . S
C342 O326 1.249 . S
C342 C336 1.516 . S
C343 O327 1.254 . S
C343 O328 1.257 . S
C344 O329 1.266 . S
C344 O330 1.236 . S
C345 C348 1.344 . S
C345 C349 1.328 . S
C345 C351 1.516 . S
C346 C347 1.304 . S
C346 C350 1.323 . S
C347 C346 1.304 . S
C347 C348 1.371 . S
C347 H356 0.930 . S
C348 C345 1.344 . S
C348 C347 1.371 . S
C348 H357 0.931 . S
C349 C345 1.328 . S
C349 C350 1.433 . S
C349 H358 0.931 . S
C350 C346 1.323 . S
C350 C349 1.433 . S
C350 H359 0.933 . S
C351 Dy321 2.738 . S
C351 O331 1.255 . S
C351 O332 1.249 . S
C351 C345 1.516 . S
H352 C338 0.930 . S
H353 C339 0.931 . S
H354 C340 0.931 . S
H355 C341 0.933 . S
H356 C347 0.930 . S
H357 C348 0.931 . S
H358 C349 0.931 . S
H359 C350 0.933 . S
H360 C378 0.951 . S
H361 C380 0.951 . S
H362 C382 0.950 . S
H363 C383 0.950 . S
H364 C385 0.950 . S
H365 C388 0.950 . S
H366 C389 0.950 . S
H367 C391 0.950 . S
H368 C392 0.950 . S
H369 C393 0.951 . S
H370 C395 0.951 . S
H371 C397 0.950 . S
H372 C398 0.950 . S
H373 C400 0.950 . S
H374 C403 0.950 . S
H375 C404 0.950 . S
H376 C406 0.950 . S
H377 C407 0.950 . S
C378 H360 0.951 . S
C378 C379 1.366 . S
C378 C380 1.388 . S
C379 C378 1.366 . S
C379 C383 1.385 1_556 S
C380 H361 0.951 . S
C380 C378 1.388 . S
C380 C381 1.366 . S
C381 C380 1.366 . S
C381 C382 1.414 1_556 S
C381 C384 1.499 . S
C382 H362 0.950 . S
C382 C381 1.414 1_554 S
C382 C383 1.374 . S
C383 H363 0.950 . S
C383 C379 1.385 1_554 S
C383 C382 1.374 . S
C384 C381 1.499 . S
C384 C385 1.373 1_556 S
C384 C386 1.389 . S
C385 H364 0.950 . S
C385 C384 1.373 1_554 S
C385 C401 1.377 . S
C386 C384 1.389 . S
C386 C387 1.524 . S
C386 C400 1.377 . S
C387 C386 1.524 . S
C387 C388 1.397 . S
C387 C392 1.363 . S
C388 H365 0.950 . S
C388 C387 1.397 . S
C388 C389 1.334 . S
C389 H366 0.950 . S
C389 C388 1.334 . S
C389 C390 1.287 . S
C390 C389 1.287 . S
C390 C391 1.524 . S
C390 H409 0.913 . S
C391 H367 0.950 . S
C391 C390 1.524 . S
C391 C392 1.415 . S
C392 H368 0.950 . S
C392 C387 1.363 . S
C392 C391 1.415 . S
C393 H369 0.951 . S
C393 C394 1.366 . S
C393 C395 1.388 . S
C394 C393 1.366 . S
C394 C398 1.385 1_554 S
C395 H370 0.951 . S
C395 C393 1.388 . S
C395 C396 1.366 . S
C396 C395 1.366 . S
C396 C397 1.413 1_554 S
C396 C399 1.499 1_554 S
C397 H371 0.950 . S
C397 C396 1.413 1_556 S
C397 C398 1.374 . S
C398 H372 0.950 . S
C398 C394 1.385 1_556 S
C398 C397 1.374 . S
C399 C396 1.499 1_556 S
C399 C400 1.373 . S
C399 C401 1.389 1_556 S
C400 H373 0.950 . S
C400 C386 1.377 . S
C400 C399 1.373 . S
C401 C385 1.377 . S
C401 C399 1.389 1_554 S
C401 C402 1.524 . S
C402 C401 1.524 . S
C402 C403 1.397 . S
C402 C407 1.363 . S
C403 H374 0.950 . S
C403 C402 1.397 . S
C403 C404 1.334 . S
C404 H375 0.950 . S
C404 C403 1.334 . S
C404 C405 1.287 . S
C405 C404 1.287 . S
C405 C406 1.524 . S
C405 H408 0.999 . S
C406 H376 0.950 . S
C406 C405 1.524 . S
C406 C407 1.415 . S
C407 H377 0.950 . S
C407 C402 1.363 . S
C407 C406 1.415 . S
H408 C405 0.999 . S
H409 C390 0.913 . S
H410 C428 0.948 1_556 S
H411 C430 0.950 1_556 S
H412 C432 0.950 . S
H413 C433 0.950 . S
H414 C435 0.950 . S
H415 C438 0.950 . S
H416 C439 0.950 . S
H417 C441 0.950 . S
H418 C442 0.950 . S
H419 C443 0.951 . S
H420 C445 0.951 . S
H421 C447 0.950 . S
H422 C448 0.950 . S
H423 C450 0.950 . S
H424 C453 0.950 . S
H425 C454 0.950 . S
H426 C456 0.950 . S
H427 C457 0.950 . S
C428 H410 0.948 1_554 S
C428 C429 1.369 . S
C428 C430 1.389 . S
C429 C428 1.369 . S
C429 C433 1.385 . S
C430 H411 0.950 1_554 S
C430 C428 1.389 . S
C430 C431 1.366 . S
C431 C430 1.366 . S
C431 C432 1.414 . S
C431 C434 1.499 . S
C432 H412 0.950 . S
C432 C431 1.414 . S
C432 C433 1.374 . S
C433 H413 0.950 . S
C433 C429 1.385 . S
C433 C432 1.374 . S
C434 C431 1.499 . S
C434 C435 1.373 1_554 S
C434 C436 1.389 . S
C435 H414 0.950 . S
C435 C434 1.373 1_556 S
C435 C451 1.377 . S
C436 C434 1.389 . S
C436 C437 1.524 . S
C436 C450 1.377 . S
C437 C436 1.524 . S
C437 C438 1.397 . S
C437 C442 1.363 . S
C438 H415 0.950 . S
C438 C437 1.397 . S
C438 C439 1.334 . S
C439 H416 0.950 . S
C439 C438 1.334 . S
C439 C440 1.287 . S
C440 C439 1.287 . S
C440 C441 1.524 . S
C440 H459 0.913 . S
C441 H417 0.950 . S
C441 C440 1.524 . S
C441 C442 1.415 . S
C442 H418 0.950 . S
C442 C437 1.363 . S
C442 C441 1.415 . S
C443 H419 0.951 . S
C443 C444 1.365 1_554 S
C443 C445 1.388 . S
C444 C443 1.365 1_556 S
C444 C448 1.386 . S
C445 H420 0.951 . S
C445 C443 1.388 . S
C445 C446 1.363 1_554 S
C446 C445 1.363 1_556 S
C446 C447 1.416 . S
C446 C449 1.499 . S
C447 H421 0.950 . S
C447 C446 1.416 . S
C447 C448 1.374 . S
C448 H422 0.950 . S
C448 C444 1.386 . S
C448 C447 1.374 . S
C449 C446 1.499 . S
C449 C450 1.355 1_556 S
C449 C451 1.406 . S
C450 H423 0.950 . S
C450 C436 1.377 . S
C450 C449 1.355 1_554 S
C451 C435 1.377 . S
C451 C449 1.406 . S
C451 C452 1.524 . S
C452 C451 1.524 . S
C452 C453 1.397 . S
C452 C457 1.363 . S
C453 H424 0.950 . S
C453 C452 1.397 . S
C453 C454 1.334 . S
C454 H425 0.950 . S
C454 C453 1.334 . S
C454 C455 1.287 . S
C455 C454 1.287 . S
C455 C456 1.524 . S
C455 H458 0.999 . S
C456 H426 0.950 . S
C456 C455 1.524 . S
C456 C457 1.415 . S
C457 H427 0.950 . S
C457 C452 1.363 . S
C457 C456 1.415 . S
H458 C455 0.999 . S
H459 C440 0.913 . S
H460 C478 0.951 . S
H461 C480 0.951 . S
H462 C482 0.950 . S
H463 C483 0.950 . S
H464 C485 0.950 . S
H465 C488 0.950 . S
H466 C489 0.950 . S
H467 C491 0.950 . S
H468 C492 0.950 . S
H469 C493 0.951 . S
H470 C495 0.951 . S
H471 C497 0.950 . S
H472 C498 0.950 . S
H473 C500 0.950 . S
H474 C503 0.950 . S
H475 C504 0.950 . S
H476 C506 0.950 . S
H477 C507 0.934 1_554 S
C478 H460 0.951 . S
C478 C479 1.366 1_556 S
C478 C480 1.388 . S
C479 C478 1.366 1_554 S
C479 C483 1.385 . S
C480 H461 0.951 . S
C480 C478 1.388 . S
C480 C481 1.366 1_556 S
C481 C480 1.366 1_554 S
C481 C482 1.414 . S
C481 C484 1.499 . S
C482 H462 0.950 . S
C482 C481 1.414 . S
C482 C483 1.374 . S
C483 H463 0.950 . S
C483 C479 1.385 . S
C483 C482 1.374 . S
C484 C481 1.499 . S
C484 C485 1.373 1_554 S
C484 C486 1.389 . S
C485 H464 0.950 . S
C485 C484 1.373 1_556 S
C485 C501 1.377 . S
C486 C484 1.389 . S
C486 C487 1.524 . S
C486 C500 1.377 . S
C487 C486 1.524 . S
C487 C488 1.397 . S
C487 C492 1.363 . S
C488 H465 0.950 . S
C488 C487 1.397 . S
C488 C489 1.334 . S
C489 H466 0.950 . S
C489 C488 1.334 . S
C489 C490 1.287 . S
C490 C489 1.287 . S
C490 C491 1.524 . S
C490 H509 0.913 . S
C491 H467 0.950 . S
C491 C490 1.524 . S
C491 C492 1.415 . S
C492 H468 0.950 . S
C492 C487 1.363 . S
C492 C491 1.415 . S
C493 H469 0.951 . S
C493 C494 1.366 . S
C493 C495 1.388 . S
C494 C493 1.366 . S
C494 C498 1.385 1_554 S
C495 H470 0.951 . S
C495 C493 1.388 . S
C495 C496 1.366 . S
C496 C495 1.366 . S
C496 C497 1.414 1_554 S
C496 C499 1.499 . S
C497 H471 0.950 . S
C497 C496 1.414 1_556 S
C497 C498 1.374 . S
C498 H472 0.950 . S
C498 C494 1.385 1_556 S
C498 C497 1.374 . S
C499 C496 1.499 . S
C499 C500 1.373 . S
C499 C501 1.389 1_554 S
C500 H473 0.950 . S
C500 C486 1.377 . S
C500 C499 1.373 . S
C501 C485 1.377 . S
C501 C499 1.389 1_556 S
C501 C502 1.524 . S
C502 C501 1.524 . S
C502 C503 1.397 . S
C502 C507 1.363 . S
C503 H474 0.950 . S
C503 C502 1.397 . S
C503 C504 1.334 . S
C504 H475 0.950 . S
C504 C503 1.334 . S
C504 C505 1.287 . S
C505 C504 1.287 . S
C505 C506 1.524 . S
C505 H508 0.999 . S
C506 H476 0.950 . S
C506 C505 1.524 . S
C506 C507 1.415 . S
C507 H477 0.934 1_556 S
C507 C502 1.363 . S
C507 C506 1.415 . S
H508 C505 0.999 . S
H509 C490 0.913 . S
H510 C528 0.949 1_556 S
H511 C530 0.951 1_556 S
H512 C532 0.950 . S
H513 C533 0.950 . S
H514 C535 0.950 . S
H515 C538 0.950 . S
H516 C539 0.950 . S
H517 C541 0.950 . S
H518 C542 0.950 . S
H519 C543 0.951 . S
H520 C545 0.951 . S
H521 C547 0.951 1_556 S
H522 C548 0.958 . S
H523 C550 0.950 . S
H524 C553 0.950 . S
H525 C554 0.950 . S
H526 C556 0.950 . S
H527 C557 0.950 . S
C528 H510 0.949 1_554 S
C528 C529 1.366 . S
C528 C530 1.388 . S
C529 C528 1.366 . S
C529 C533 1.385 . S
C530 H511 0.951 1_554 S
C530 C528 1.388 . S
C530 C531 1.366 . S
C531 C530 1.366 . S
C531 C532 1.414 . S
C531 C534 1.499 . S
C532 H512 0.950 . S
C532 C531 1.414 . S
C532 C533 1.374 . S
C533 H513 0.950 . S
C533 C529 1.385 . S
C533 C532 1.374 . S
C534 C531 1.499 . S
C534 C535 1.373 . S
C534 C536 1.389 1_554 S
C535 H514 0.950 . S
C535 C534 1.373 . S
C535 C551 1.377 . S
C536 C534 1.389 1_556 S
C536 C537 1.524 . S
C536 C550 1.377 . S
C537 C536 1.524 . S
C537 C538 1.397 . S
C537 C542 1.363 . S
C538 H515 0.950 . S
C538 C537 1.397 . S
C538 C539 1.334 . S
C539 H516 0.950 . S
C539 C538 1.334 . S
C539 C540 1.287 . S
C540 C539 1.287 . S
C540 C541 1.524 . S
C540 H559 0.913 . S
C541 H517 0.950 . S
C541 C540 1.524 . S
C541 C542 1.415 . S
C542 H518 0.950 . S
C542 C537 1.363 . S
C542 C541 1.415 . S
C543 H519 0.951 . S
C543 C544 1.366 . S
C543 C545 1.388 . S
C544 C543 1.366 . S
C544 C548 1.380 1_554 S
C545 H520 0.951 . S
C545 C543 1.388 . S
C545 C546 1.366 . S
C546 C545 1.366 . S
C546 C547 1.413 . S
C546 C549 1.499 . S
C547 H521 0.951 1_554 S
C547 C546 1.413 . S
C547 C548 1.372 1_554 S
C548 H522 0.958 . S
C548 C544 1.380 1_556 S
C548 C547 1.372 1_556 S
C549 C546 1.499 . S
C549 C550 1.373 1_554 S
C549 C551 1.389 . S
C550 H523 0.950 . S
C550 C536 1.377 . S
C550 C549 1.373 1_556 S
C551 C535 1.377 . S
C551 C549 1.389 . S
C551 C552 1.524 . S
C552 C551 1.524 . S
C552 C553 1.397 . S
C552 C557 1.363 . S
C553 H524 0.950 . S
C553 C552 1.397 . S
C553 C554 1.334 . S
C554 H525 0.950 . S
C554 C553 1.334 . S
C554 C555 1.287 . S
C555 C554 1.287 . S
C555 C556 1.524 . S
C555 H558 0.999 . S
C556 H526 0.950 . S
C556 C555 1.524 . S
C556 C557 1.415 . S
C557 H527 0.950 . S
C557 C552 1.363 . S
C557 C556 1.415 . S
H558 C555 0.999 . S
H559 C540 0.913 . S
H560 C578 0.951 . S
H561 C580 0.951 . S
H562 C582 0.957 . S
H563 C583 0.946 1_556 S
H564 C585 0.950 . S
H565 C588 0.950 . S
H566 C589 0.950 . S
H567 C591 0.950 . S
H568 C592 0.948 . S
H569 C593 0.965 . S
H570 C595 0.951 1_556 S
H571 C597 0.950 . S
H572 C598 0.950 . S
H573 C600 0.947 1_556 S
H574 C603 0.950 . S
H575 C604 0.950 . S
H576 C606 0.950 . S
H577 C607 0.950 . S
C578 H560 0.951 . S
C578 C579 1.366 . S
C578 C580 1.388 . S
C579 C578 1.366 . S
C579 C583 1.389 . S
C580 H561 0.951 . S
C580 C578 1.388 . S
C580 C581 1.366 . S
C581 C580 1.366 . S
C581 C582 1.408 1_554 S
C581 C584 1.499 . S
C582 H562 0.957 . S
C582 C581 1.408 1_556 S
C582 C583 1.373 1_556 S
C583 H563 0.946 1_554 S
C583 C579 1.389 . S
C583 C582 1.373 1_554 S
C584 C581 1.499 . S
C584 C585 1.373 . S
C584 C586 1.389 . S
C585 H564 0.950 . S
C585 C584 1.373 . S
C585 C601 1.377 . S
C586 C584 1.389 . S
C586 C587 1.524 1_554 S
C586 C600 1.377 . S
C587 C586 1.524 1_556 S
C587 C588 1.397 . S
C587 C592 1.364 1_556 S
C588 H565 0.950 . S
C588 C587 1.397 . S
C588 C589 1.334 . S
C589 H566 0.950 . S
C589 C588 1.334 . S
C589 C590 1.287 . S
C590 C589 1.287 . S
C590 C591 1.524 . S
C590 H609 0.913 . S
C591 H567 0.950 . S
C591 C590 1.524 . S
C591 C592 1.416 1_556 S
C592 H568 0.948 . S
C592 C587 1.364 1_554 S
C592 C591 1.416 1_554 S
C593 H569 0.965 . S
C593 C594 1.354 1_556 S
C593 C595 1.386 1_556 S
C594 C593 1.354 1_554 S
C594 C598 1.385 . S
C595 H570 0.951 1_554 S
C595 C593 1.386 1_554 S
C595 C596 1.366 . S
C596 C595 1.366 . S
C596 C597 1.414 . S
C596 C599 1.499 . S
C597 H571 0.950 . S
C597 C596 1.414 . S
C597 C598 1.374 . S
C598 H572 0.950 . S
C598 C594 1.385 . S
C598 C597 1.374 . S
C599 C596 1.499 . S
C599 C600 1.373 . S
C599 C601 1.389 . S
C600 H573 0.947 1_554 S
C600 C586 1.377 . S
C600 C599 1.373 . S
C601 C585 1.377 . S
C601 C599 1.389 . S
C601 C602 1.524 . S
C602 C601 1.524 . S
C602 C603 1.397 . S
C602 C607 1.363 . S
C603 H574 0.950 . S
C603 C602 1.397 . S
C603 C604 1.334 . S
C604 H575 0.950 . S
C604 C603 1.334 . S
C604 C605 1.287 . S
C605 C604 1.287 . S
C605 C606 1.524 . S
C605 H608 0.999 . S
C606 H576 0.950 . S
C606 C605 1.524 . S
C606 C607 1.415 . S
C607 H577 0.950 . S
C607 C602 1.363 . S
C607 C606 1.415 . S
H608 C605 0.999 . S
H609 C590 0.913 . S
H610 C628 0.951 . S
H611 C630 0.951 . S
H612 C632 0.950 1_556 S
H613 C633 0.946 1_556 S
H614 C635 0.950 . S
H615 C638 0.950 . S
H616 C639 0.950 . S
H617 C641 0.950 . S
H618 C642 0.950 . S
H619 C643 0.951 . S
H620 C645 0.951 . S
H621 C647 0.950 . S
H622 C648 0.950 . S
H623 C650 0.950 . S
H624 C653 0.950 . S
H625 C654 0.950 . S
H626 C656 0.950 . S
H627 C657 0.950 . S
C628 H610 0.951 . S
C628 C629 1.366 . S
C628 C630 1.388 . S
C629 C628 1.366 . S
C629 C633 1.385 . S
C630 H611 0.951 . S
C630 C628 1.388 . S
C630 C631 1.366 . S
C631 C630 1.366 . S
C631 C632 1.414 . S
C631 C634 1.499 . S
C632 H612 0.950 1_554 S
C632 C631 1.414 . S
C632 C633 1.374 . S
C633 H613 0.946 1_554 S
C633 C629 1.385 . S
C633 C632 1.374 . S
C634 C631 1.499 . S
C634 C635 1.373 1_554 S
C634 C636 1.389 . S
C635 H614 0.950 . S
C635 C634 1.373 1_556 S
C635 C651 1.377 . S
C636 C634 1.389 . S
C636 C637 1.524 . S
C636 C650 1.377 . S
C637 C636 1.524 . S
C637 C638 1.397 . S
C637 C642 1.363 . S
C638 H615 0.950 . S
C638 C637 1.397 . S
C638 C639 1.334 . S
C639 H616 0.950 . S
C639 C638 1.334 . S
C639 C640 1.287 . S
C640 C639 1.287 . S
C640 C641 1.524 . S
C640 H659 0.913 . S
C641 H617 0.950 . S
C641 C640 1.524 . S
C641 C642 1.415 . S
C642 H618 0.950 . S
C642 C637 1.363 . S
C642 C641 1.415 . S
C643 H619 0.951 . S
C643 C644 1.366 1_556 S
C643 C645 1.388 . S
C644 C643 1.366 1_554 S
C644 C648 1.385 . S
C645 H620 0.951 . S
C645 C643 1.388 . S
C645 C646 1.366 1_556 S
C646 C645 1.366 1_554 S
C646 C647 1.414 . S
C646 C649 1.499 . S
C647 H621 0.950 . S
C647 C646 1.414 . S
C647 C648 1.374 . S
C648 H622 0.950 . S
C648 C644 1.385 . S
C648 C647 1.374 . S
C649 C646 1.499 . S
C649 C650 1.373 . S
C649 C651 1.389 1_554 S
C650 H623 0.950 . S
C650 C636 1.377 . S
C650 C649 1.373 . S
C651 C635 1.377 . S
C651 C649 1.389 1_556 S
C651 C652 1.524 . S
C652 C651 1.524 . S
C652 C653 1.397 . S
C652 C657 1.363 . S
C653 H624 0.950 . S
C653 C652 1.397 . S
C653 C654 1.334 . S
C654 H625 0.950 . S
C654 C653 1.334 . S
C654 C655 1.287 . S
C655 C654 1.287 . S
C655 C656 1.524 . S
C655 H658 0.999 . S
C656 H626 0.950 . S
C656 C655 1.524 . S
C656 C657 1.415 . S
C657 H627 0.950 . S
C657 C652 1.363 . S
C657 C656 1.415 . S
H658 C655 0.999 . S
H659 C640 0.913 . S
H660 C678 0.951 . S
H661 C680 0.951 . S
H662 C682 0.950 . S
H663 C683 0.950 . S
H664 C685 0.950 . S
H665 C688 0.950 . S
H666 C689 0.950 . S
H667 C691 0.950 . S
H668 C692 0.950 . S
H669 C693 0.951 . S
H670 C695 0.951 . S
H671 C697 0.950 . S
H672 C698 0.950 . S
H673 C700 0.950 . S
H674 C703 0.950 . S
H675 C704 0.950 . S
H676 C706 0.950 . S
H677 C707 0.950 . S
C678 H660 0.951 . S
C678 C679 1.366 . S
C678 C680 1.388 . S
C679 C678 1.366 . S
C679 C683 1.385 . S
C680 H661 0.951 . S
C680 C678 1.388 . S
C680 C681 1.366 . S
C681 C680 1.366 . S
C681 C682 1.414 . S
C681 C684 1.499 . S
C682 H662 0.950 . S
C682 C681 1.414 . S
C682 C683 1.374 . S
C683 H663 0.950 . S
C683 C679 1.385 . S
C683 C682 1.374 . S
C684 C681 1.499 . S
C684 C685 1.373 . S
C684 C686 1.389 . S
C685 H664 0.950 . S
C685 C684 1.373 . S
C685 C701 1.377 1_655 S
C686 C684 1.389 . S
C686 C687 1.524 . S
C686 C700 1.377 1_655 S
C687 C686 1.524 . S
C687 C688 1.397 . S
C687 C692 1.363 . S
C688 H665 0.950 . S
C688 C687 1.397 . S
C688 C689 1.334 . S
C689 H666 0.950 . S
C689 C688 1.334 . S
C689 C690 1.287 . S
C690 C689 1.287 . S
C690 C691 1.524 . S
C690 H709 0.913 . S
C691 H667 0.950 . S
C691 C690 1.524 . S
C691 C692 1.415 . S
C692 H668 0.950 . S
C692 C687 1.363 . S
C692 C691 1.415 . S
C693 H669 0.951 . S
C693 C694 1.366 . S
C693 C695 1.388 . S
C694 C693 1.366 . S
C694 C698 1.385 . S
C695 H670 0.951 . S
C695 C693 1.388 . S
C695 C696 1.366 . S
C696 C695 1.366 . S
C696 C697 1.414 . S
C696 C699 1.499 . S
C697 H671 0.950 . S
C697 C696 1.414 . S
C697 C698 1.374 . S
C698 H672 0.950 . S
C698 C694 1.385 . S
C698 C697 1.374 . S
C699 C696 1.499 . S
C699 C700 1.373 . S
C699 C701 1.389 . S
C700 H673 0.950 . S
C700 C686 1.377 1_455 S
C700 C699 1.373 . S
C701 C685 1.377 1_455 S
C701 C699 1.389 . S
C701 C702 1.524 . S
C702 C701 1.524 . S
C702 C703 1.397 . S
C702 C707 1.363 . S
C703 H674 0.950 . S
C703 C702 1.397 . S
C703 C704 1.334 . S
C704 H675 0.950 . S
C704 C703 1.334 . S
C704 C705 1.287 . S
C705 C704 1.287 . S
C705 C706 1.524 . S
C705 H708 0.999 . S
C706 H676 0.950 . S
C706 C705 1.524 . S
C706 C707 1.415 . S
C707 H677 0.950 . S
C707 C702 1.363 . S
C707 C706 1.415 . S
H708 C705 0.999 . S
H709 C690 0.913 . S
H710 C728 0.951 . S
H711 C730 0.951 . S
H712 C732 0.950 . S
H713 C733 0.950 . S
H714 C735 0.950 . S
H715 C738 0.950 . S
H716 C739 0.950 . S
H717 C741 0.950 . S
H718 C742 0.950 . S
H719 C743 0.951 . S
H720 C745 0.951 . S
H721 C747 0.950 . S
H722 C748 0.950 . S
H723 C750 0.950 . S
H724 C753 0.950 . S
H725 C754 0.950 . S
H726 C756 0.950 . S
H727 C757 0.950 . S
C728 H710 0.951 . S
C728 C729 1.366 . S
C728 C730 1.388 . S
C729 C728 1.366 . S
C729 C733 1.385 . S
C730 H711 0.951 . S
C730 C728 1.388 . S
C730 C731 1.366 . S
C731 C730 1.366 . S
C731 C732 1.414 . S
C731 C734 1.499 . S
C732 H712 0.950 . S
C732 C731 1.414 . S
C732 C733 1.374 . S
C733 H713 0.950 . S
C733 C729 1.385 . S
C733 C732 1.374 . S
C734 C731 1.499 . S
C734 C735 1.373 . S
C734 C736 1.389 . S
C735 H714 0.950 . S
C735 C734 1.373 . S
C735 C751 1.377 . S
C736 C734 1.389 . S
C736 C737 1.524 . S
C736 C750 1.377 . S
C737 C736 1.524 . S
C737 C738 1.397 . S
C737 C742 1.363 . S
C738 H715 0.950 . S
C738 C737 1.397 . S
C738 C739 1.334 . S
C739 H716 0.950 . S
C739 C738 1.334 . S
C739 C740 1.287 . S
C740 C739 1.287 . S
C740 C741 1.524 . S
C740 H759 0.913 . S
C741 H717 0.950 . S
C741 C740 1.524 . S
C741 C742 1.415 . S
C742 H718 0.950 . S
C742 C737 1.363 . S
C742 C741 1.415 . S
C743 H719 0.951 . S
C743 C744 1.366 . S
C743 C745 1.388 . S
C744 C743 1.366 . S
C744 C748 1.385 . S
C745 H720 0.951 . S
C745 C743 1.388 . S
C745 C746 1.366 . S
C746 C745 1.366 . S
C746 C747 1.414 . S
C746 C749 1.499 . S
C747 H721 0.950 . S
C747 C746 1.414 . S
C747 C748 1.374 . S
C748 H722 0.950 . S
C748 C744 1.385 . S
C748 C747 1.374 . S
C749 C746 1.499 . S
C749 C750 1.373 . S
C749 C751 1.389 . S
C750 H723 0.950 . S
C750 C736 1.377 . S
C750 C749 1.373 . S
C751 C735 1.377 . S
C751 C749 1.389 . S
C751 C752 1.524 . S
C752 C751 1.524 . S
C752 C753 1.397 . S
C752 C757 1.363 . S
C753 H724 0.950 . S
C753 C752 1.397 . S
C753 C754 1.334 . S
C754 H725 0.950 . S
C754 C753 1.334 . S
C754 C755 1.287 . S
C755 C754 1.287 . S
C755 C756 1.524 . S
C755 H758 0.999 . S
C756 H726 0.950 . S
C756 C755 1.524 . S
C756 C757 1.415 . S
C757 H727 0.950 . S
C757 C752 1.363 . S
C757 C756 1.415 . S
H758 C755 0.999 . S
H759 C740 0.913 . S
H760 C778 0.951 . S
H761 C780 0.951 . S
H762 C782 0.950 . S
H763 C783 0.950 . S
H764 C785 0.950 . S
H765 C788 0.950 . S
H766 C789 0.950 . S
H767 C791 0.950 . S
H768 C792 0.950 1_565 S
H769 C793 0.951 . S
H770 C795 0.951 . S
H771 C797 0.950 . S
H772 C798 0.950 . S
H773 C800 0.950 . S
H774 C803 0.950 . S
H775 C804 0.950 . S
H776 C806 0.950 . S
H777 C807 0.950 1_545 S
C778 H760 0.951 . S
C778 C779 1.366 . S
C778 C780 1.388 . S
C779 C778 1.366 . S
C779 C783 1.385 . S
C780 H761 0.951 . S
C780 C778 1.388 . S
C780 C781 1.366 . S
C781 C780 1.366 . S
C781 C782 1.414 . S
C781 C784 1.499 . S
C782 H762 0.950 . S
C782 C781 1.414 . S
C782 C783 1.374 . S
C783 H763 0.950 . S
C783 C779 1.385 . S
C783 C782 1.374 . S
C784 C781 1.499 . S
C784 C785 1.373 . S
C784 C786 1.389 . S
C785 H764 0.950 . S
C785 C784 1.373 . S
C785 C801 1.377 1_545 S
C786 C784 1.389 . S
C786 C787 1.524 . S
C786 C800 1.377 1_545 S
C787 C786 1.524 . S
C787 C788 1.397 . S
C787 C792 1.363 . S
C788 H765 0.950 . S
C788 C787 1.397 . S
C788 C789 1.334 . S
C789 H766 0.950 . S
C789 C788 1.334 . S
C789 C790 1.287 . S
C790 C789 1.287 . S
C790 C791 1.524 . S
C790 H809 0.913 . S
C791 H767 0.950 . S
C791 C790 1.524 . S
C791 C792 1.415 . S
C792 H768 0.950 1_545 S
C792 C787 1.363 . S
C792 C791 1.415 . S
C793 H769 0.951 . S
C793 C794 1.366 . S
C793 C795 1.388 . S
C794 C793 1.366 . S
C794 C798 1.385 . S
C795 H770 0.951 . S
C795 C793 1.388 . S
C795 C796 1.366 . S
C796 C795 1.366 . S
C796 C797 1.414 . S
C796 C799 1.499 . S
C797 H771 0.950 . S
C797 C796 1.414 . S
C797 C798 1.374 . S
C798 H772 0.950 . S
C798 C794 1.385 . S
C798 C797 1.374 . S
C799 C796 1.499 . S
C799 C800 1.373 . S
C799 C801 1.389 . S
C800 H773 0.950 . S
C800 C786 1.377 1_565 S
C800 C799 1.373 . S
C801 C785 1.377 1_565 S
C801 C799 1.389 . S
C801 C802 1.524 . S
C802 C801 1.524 . S
C802 C803 1.397 . S
C802 C807 1.363 . S
C803 H774 0.950 . S
C803 C802 1.397 . S
C803 C804 1.334 . S
C804 H775 0.950 . S
C804 C803 1.334 . S
C804 C805 1.287 . S
C805 C804 1.287 . S
C805 C806 1.524 . S
C805 H808 0.999 . S
C806 H776 0.950 . S
C806 C805 1.524 . S
C806 C807 1.415 . S
C807 H777 0.950 1_565 S
C807 C802 1.363 . S
C807 C806 1.415 . S
H808 C805 0.999 . S
H809 C790 0.913 . S
H810 C828 0.951 . S
H811 C830 0.951 . S
H812 C832 0.950 . S
H813 C833 0.950 . S
H814 C835 0.950 . S
H815 C838 0.950 . S
H816 C839 0.950 . S
H817 C841 0.950 . S
H818 C842 0.950 . S
H819 C843 0.951 . S
H820 C845 0.951 . S
H821 C847 0.950 . S
H822 C848 0.950 . S
H823 C850 0.950 . S
H824 C853 0.950 . S
H825 C854 0.950 . S
H826 C856 0.950 . S
H827 C857 0.950 . S
C828 H810 0.951 . S
C828 C829 1.366 . S
C828 C830 1.388 . S
C829 C828 1.366 . S
C829 C833 1.385 . S
C830 H811 0.951 . S
C830 C828 1.388 . S
C830 C831 1.366 . S
C831 C830 1.366 . S
C831 C832 1.414 . S
C831 C834 1.499 . S
C832 H812 0.950 . S
C832 C831 1.414 . S
C832 C833 1.374 . S
C833 H813 0.950 . S
C833 C829 1.385 . S
C833 C832 1.374 . S
C834 C831 1.499 . S
C834 C835 1.373 . S
C834 C836 1.389 . S
C835 H814 0.950 . S
C835 C834 1.373 . S
C835 C851 1.377 . S
C836 C834 1.389 . S
C836 C837 1.524 . S
C836 C850 1.377 . S
C837 C836 1.524 . S
C837 C838 1.397 . S
C837 C842 1.363 . S
C838 H815 0.950 . S
C838 C837 1.397 . S
C838 C839 1.334 . S
C839 H816 0.950 . S
C839 C838 1.334 . S
C839 C840 1.287 . S
C840 C839 1.287 . S
C840 C841 1.524 . S
C840 H859 0.913 . S
C841 H817 0.950 . S
C841 C840 1.524 . S
C841 C842 1.415 . S
C842 H818 0.950 . S
C842 C837 1.363 . S
C842 C841 1.415 . S
C843 H819 0.951 . S
C843 C844 1.366 . S
C843 C845 1.388 . S
C844 C843 1.366 . S
C844 C848 1.385 . S
C845 H820 0.951 . S
C845 C843 1.388 . S
C845 C846 1.366 . S
C846 C845 1.366 . S
C846 C847 1.414 . S
C846 C849 1.499 . S
C847 H821 0.950 . S
C847 C846 1.414 . S
C847 C848 1.374 . S
C848 H822 0.950 . S
C848 C844 1.385 . S
C848 C847 1.374 . S
C849 C846 1.499 . S
C849 C850 1.373 . S
C849 C851 1.389 . S
C850 H823 0.950 . S
C850 C836 1.377 . S
C850 C849 1.373 . S
C851 C835 1.377 . S
C851 C849 1.389 . S
C851 C852 1.524 . S
C852 C851 1.524 . S
C852 C853 1.397 . S
C852 C857 1.363 . S
C853 H824 0.950 . S
C853 C852 1.397 . S
C853 C854 1.334 . S
C854 H825 0.950 . S
C854 C853 1.334 . S
C854 C855 1.287 . S
C855 C854 1.287 . S
C855 C856 1.524 . S
C855 H858 0.999 . S
C856 H826 0.950 . S
C856 C855 1.524 . S
C856 C857 1.415 . S
C857 H827 0.950 . S
C857 C852 1.363 . S
C857 C856 1.415 . S
H858 C855 0.999 . S
H859 C840 0.913 . S
H860 C878 0.951 . S
H861 C880 0.951 . S
H862 C882 0.950 . S
H863 C883 0.950 . S
H864 C885 0.950 . S
H865 C888 0.950 . S
H866 C889 0.950 . S
H867 C891 0.950 . S
H868 C892 0.950 . S
H869 C893 0.951 . S
H870 C895 0.951 . S
H871 C897 0.950 . S
H872 C898 0.950 . S
H873 C900 0.950 . S
H874 C903 0.950 . S
H875 C904 0.950 . S
H876 C906 0.950 . S
H877 C907 0.950 . S
C878 H860 0.951 . S
C878 C879 1.366 . S
C878 C880 1.388 . S
C879 C878 1.366 . S
C879 C883 1.385 . S
C880 H861 0.951 . S
C880 C878 1.388 . S
C880 C881 1.366 . S
C881 C880 1.366 . S
C881 C882 1.414 . S
C881 C884 1.499 . S
C882 H862 0.950 . S
C882 C881 1.414 . S
C882 C883 1.374 . S
C883 H863 0.950 . S
C883 C879 1.385 . S
C883 C882 1.374 . S
C884 C881 1.499 . S
C884 C885 1.373 . S
C884 C886 1.389 . S
C885 H864 0.950 . S
C885 C884 1.373 . S
C885 C901 1.377 . S
C886 C884 1.389 . S
C886 C887 1.524 . S
C886 C900 1.377 . S
C887 C886 1.524 . S
C887 C888 1.397 . S
C887 C892 1.363 . S
C888 H865 0.950 . S
C888 C887 1.397 . S
C888 C889 1.334 . S
C889 H866 0.950 . S
C889 C888 1.334 . S
C889 C890 1.287 . S
C890 C889 1.287 . S
C890 C891 1.524 . S
C890 H909 0.913 . S
C891 H867 0.950 . S
C891 C890 1.524 . S
C891 C892 1.415 . S
C892 H868 0.950 . S
C892 C887 1.363 . S
C892 C891 1.415 . S
C893 H869 0.951 . S
C893 C894 1.366 . S
C893 C895 1.388 . S
C894 C893 1.366 . S
C894 C898 1.385 . S
C895 H870 0.951 . S
C895 C893 1.388 . S
C895 C896 1.366 . S
C896 C895 1.366 . S
C896 C897 1.414 . S
C896 C899 1.499 . S
C897 H871 0.950 . S
C897 C896 1.414 . S
C897 C898 1.374 . S
C898 H872 0.950 . S
C898 C894 1.385 . S
C898 C897 1.374 . S
C899 C896 1.499 . S
C899 C900 1.373 . S
C899 C901 1.389 . S
C900 H873 0.950 . S
C900 C886 1.377 . S
C900 C899 1.373 . S
C901 C885 1.377 . S
C901 C899 1.389 . S
C901 C902 1.524 . S
C902 C901 1.524 . S
C902 C903 1.397 . S
C902 C907 1.363 . S
C903 H874 0.950 . S
C903 C902 1.397 . S
C903 C904 1.334 . S
C904 H875 0.950 . S
C904 C903 1.334 . S
C904 C905 1.287 . S
C905 C904 1.287 . S
C905 C906 1.524 . S
C905 H908 0.999 . S
C906 H876 0.950 . S
C906 C905 1.524 . S
C906 C907 1.415 . S
C907 H877 0.950 . S
C907 C902 1.363 . S
C907 C906 1.415 . S
H908 C905 0.999 . S
H909 C890 0.913 . S
H910 C928 0.951 . S
H911 C930 0.951 . S
H912 C932 0.950 . S
H913 C933 0.950 . S
H914 C935 0.950 . S
H915 C938 0.950 . S
H916 C939 0.950 . S
H917 C941 0.950 . S
H918 C942 0.950 . S
H919 C943 0.951 . S
H920 C945 0.951 . S
H921 C947 0.950 . S
H922 C948 0.950 . S
H923 C950 0.950 . S
H924 C953 0.950 . S
H925 C954 0.950 . S
H926 C956 0.950 . S
H927 C957 0.950 . S
C928 H910 0.951 . S
C928 C929 1.366 . S
C928 C930 1.388 . S
C929 C928 1.366 . S
C929 C933 1.385 . S
C930 H911 0.951 . S
C930 C928 1.388 . S
C930 C931 1.366 . S
C931 C930 1.366 . S
C931 C932 1.414 . S
C931 C934 1.499 . S
C932 H912 0.950 . S
C932 C931 1.414 . S
C932 C933 1.374 . S
C933 H913 0.950 . S
C933 C929 1.385 . S
C933 C932 1.374 . S
C934 C931 1.499 . S
C934 C935 1.373 . S
C934 C936 1.389 . S
C935 H914 0.950 . S
C935 C934 1.373 . S
C935 C951 1.377 . S
C936 C934 1.389 . S
C936 C937 1.524 . S
C936 C950 1.377 . S
C937 C936 1.524 . S
C937 C938 1.397 . S
C937 C942 1.363 . S
C938 H915 0.950 . S
C938 C937 1.397 . S
C938 C939 1.334 . S
C939 H916 0.950 . S
C939 C938 1.334 . S
C939 C940 1.287 . S
C940 C939 1.287 . S
C940 C941 1.524 . S
C940 H959 0.913 . S
C941 H917 0.950 . S
C941 C940 1.524 . S
C941 C942 1.415 . S
C942 H918 0.950 . S
C942 C937 1.363 . S
C942 C941 1.415 . S
C943 H919 0.951 . S
C943 C944 1.366 . S
C943 C945 1.388 . S
C944 C943 1.366 . S
C944 C948 1.385 . S
C945 H920 0.951 . S
C945 C943 1.388 . S
C945 C946 1.366 . S
C946 C945 1.366 . S
C946 C947 1.414 . S
C946 C949 1.499 . S
C947 H921 0.950 . S
C947 C946 1.414 . S
C947 C948 1.374 . S
C948 H922 0.950 . S
C948 C944 1.385 . S
C948 C947 1.374 . S
C949 C946 1.499 . S
C949 C950 1.373 . S
C949 C951 1.389 . S
C950 H923 0.950 . S
C950 C936 1.377 . S
C950 C949 1.373 . S
C951 C935 1.377 . S
C951 C949 1.389 . S
C951 C952 1.524 . S
C952 C951 1.524 . S
C952 C953 1.397 . S
C952 C957 1.363 . S
C953 H924 0.950 . S
C953 C952 1.397 . S
C953 C954 1.334 . S
C954 H925 0.950 . S
C954 C953 1.334 . S
C954 C955 1.287 . S
C955 C954 1.287 . S
C955 C956 1.524 . S
C955 H958 0.999 . S
C956 H926 0.950 . S
C956 C955 1.524 . S
C956 C957 1.415 . S
C957 H927 0.950 . S
C957 C952 1.363 . S
C957 C956 1.415 . S
H958 C955 0.999 . S
H959 C940 0.913 . S
H960 C978 0.951 . S
H961 C980 0.951 . S
H962 C982 0.950 . S
H963 C983 0.950 . S
H964 C985 0.950 . S
H965 C988 0.950 . S
H966 C989 0.950 . S
H967 C991 0.950 . S
H968 C992 0.950 . S
H969 C993 0.951 . S
H970 C995 0.951 . S
H971 C997 0.950 . S
H972 C998 0.950 . S
H973 C1000 0.950 . S
H974 C1003 0.950 . S
H975 C1004 0.950 . S
H976 C1006 0.950 . S
H977 C1007 0.950 . S
C978 H960 0.951 . S
C978 C979 1.366 . S
C978 C980 1.388 . S
C979 C978 1.366 . S
C979 C983 1.385 . S
C980 H961 0.951 . S
C980 C978 1.388 . S
C980 C981 1.366 . S
C981 C980 1.366 . S
C981 C982 1.414 . S
C981 C984 1.499 . S
C982 H962 0.950 . S
C982 C981 1.414 . S
C982 C983 1.374 . S
C983 H963 0.950 . S
C983 C979 1.385 . S
C983 C982 1.374 . S
C984 C981 1.499 . S
C984 C985 1.373 . S
C984 C986 1.389 . S
C985 H964 0.950 . S
C985 C984 1.373 . S
C985 C1001 1.377 . S
C986 C984 1.389 . S
C986 C987 1.524 . S
C986 C1000 1.377 . S
C987 C986 1.524 . S
C987 C988 1.397 . S
C987 C992 1.363 . S
C988 H965 0.950 . S
C988 C987 1.397 . S
C988 C989 1.334 . S
C989 H966 0.950 . S
C989 C988 1.334 . S
C989 C990 1.287 . S
C990 C989 1.287 . S
C990 C991 1.524 . S
C990 H1009 0.913 . S
C991 H967 0.950 . S
C991 C990 1.524 . S
C991 C992 1.415 . S
C992 H968 0.950 . S
C992 C987 1.363 . S
C992 C991 1.415 . S
C993 H969 0.951 . S
C993 C994 1.366 . S
C993 C995 1.388 . S
C994 C993 1.366 . S
C994 C998 1.385 . S
C995 H970 0.951 . S
C995 C993 1.388 . S
C995 C996 1.366 . S
C996 C995 1.366 . S
C996 C997 1.414 . S
C996 C999 1.499 . S
C997 H971 0.950 . S
C997 C996 1.414 . S
C997 C998 1.374 . S
C998 H972 0.950 . S
C998 C994 1.385 . S
C998 C997 1.374 . S
C999 C996 1.499 . S
C999 C1000 1.373 . S
C999 C1001 1.389 . S
C1000 H973 0.950 . S
C1000 C986 1.377 . S
C1000 C999 1.373 . S
C1001 C985 1.377 . S
C1001 C999 1.389 . S
C1001 C1002 1.524 . S
C1002 C1001 1.524 . S
C1002 C1003 1.397 . S
C1002 C1007 1.363 . S
C1003 H974 0.950 . S
C1003 C1002 1.397 . S
C1003 C1004 1.334 . S
C1004 H975 0.950 . S
C1004 C1003 1.334 . S
C1004 C1005 1.287 . S
C1005 C1004 1.287 . S
C1005 C1006 1.524 . S
C1005 H1008 0.999 . S
C1006 H976 0.950 . S
C1006 C1005 1.524 . S
C1006 C1007 1.415 . S
C1007 H977 0.950 . S
C1007 C1002 1.363 . S
C1007 C1006 1.415 . S
H1008 C1005 0.999 . S
H1009 C990 0.913 . S
H1010 C1028 0.951 . S
H1011 C1030 0.951 . S
H1012 C1032 0.950 . S
H1013 C1033 0.950 . S
H1014 C1035 0.950 . S
H1015 C1038 0.950 . S
H1016 C1039 0.950 . S
H1017 C1041 0.950 . S
H1018 C1042 0.950 . S
H1019 C1043 0.951 . S
H1020 C1045 0.951 . S
H1021 C1047 0.950 . S
H1022 C1048 0.950 . S
H1023 C1050 0.950 . S
H1024 C1053 0.950 . S
H1025 C1054 0.950 . S
H1026 C1056 0.950 . S
H1027 C1057 0.950 . S
C1028 H1010 0.951 . S
C1028 C1029 1.366 . S
C1028 C1030 1.388 . S
C1029 C1028 1.366 . S
C1029 C1033 1.385 . S
C1030 H1011 0.951 . S
C1030 C1028 1.388 . S
C1030 C1031 1.366 . S
C1031 C1030 1.366 . S
C1031 C1032 1.414 . S
C1031 C1034 1.499 . S
C1032 H1012 0.950 . S
C1032 C1031 1.414 . S
C1032 C1033 1.374 . S
C1033 H1013 0.950 . S
C1033 C1029 1.385 . S
C1033 C1032 1.374 . S
C1034 C1031 1.499 . S
C1034 C1035 1.373 . S
C1034 C1036 1.389 . S
C1035 H1014 0.950 . S
C1035 C1034 1.373 . S
C1035 C1051 1.377 . S
C1036 C1034 1.389 . S
C1036 C1037 1.524 . S
C1036 C1050 1.377 . S
C1037 C1036 1.524 . S
C1037 C1038 1.397 . S
C1037 C1042 1.363 . S
C1038 H1015 0.950 . S
C1038 C1037 1.397 . S
C1038 C1039 1.334 . S
C1039 H1016 0.950 . S
C1039 C1038 1.334 . S
C1039 C1040 1.287 . S
C1040 C1039 1.287 . S
C1040 C1041 1.524 . S
C1040 H1059 0.913 . S
C1041 H1017 0.950 . S
C1041 C1040 1.524 . S
C1041 C1042 1.415 . S
C1042 H1018 0.950 . S
C1042 C1037 1.363 . S
C1042 C1041 1.415 . S
C1043 H1019 0.951 . S
C1043 C1044 1.366 . S
C1043 C1045 1.388 . S
C1044 C1043 1.366 . S
C1044 C1048 1.385 . S
C1045 H1020 0.951 . S
C1045 C1043 1.388 . S
C1045 C1046 1.366 . S
C1046 C1045 1.366 . S
C1046 C1047 1.414 . S
C1046 C1049 1.499 . S
C1047 H1021 0.950 . S
C1047 C1046 1.414 . S
C1047 C1048 1.374 . S
C1048 H1022 0.950 . S
C1048 C1044 1.385 . S
C1048 C1047 1.374 . S
C1049 C1046 1.499 . S
C1049 C1050 1.373 . S
C1049 C1051 1.389 . S
C1050 H1023 0.950 . S
C1050 C1036 1.377 . S
C1050 C1049 1.373 . S
C1051 C1035 1.377 . S
C1051 C1049 1.389 . S
C1051 C1052 1.524 . S
C1052 C1051 1.524 . S
C1052 C1053 1.397 . S
C1052 C1057 1.363 . S
C1053 H1024 0.950 . S
C1053 C1052 1.397 . S
C1053 C1054 1.334 . S
C1054 H1025 0.950 . S
C1054 C1053 1.334 . S
C1054 C1055 1.287 . S
C1055 C1054 1.287 . S
C1055 C1056 1.524 . S
C1055 H1058 0.999 . S
C1056 H1026 0.950 . S
C1056 C1055 1.524 . S
C1056 C1057 1.415 . S
C1057 H1027 0.950 . S
C1057 C1052 1.363 . S
C1057 C1056 1.415 . S
H1058 C1055 0.999 . S
H1059 C1040 0.913 . S
H1060 C1078 0.951 . S
H1061 C1080 0.951 . S
H1062 C1082 0.950 . S
H1063 C1083 0.950 . S
H1064 C1085 0.950 . S
H1065 C1088 0.950 . S
H1066 C1089 0.950 . S
H1067 C1091 0.950 . S
H1068 C1092 0.950 . S
H1069 C1093 0.951 . S
H1070 C1095 0.951 . S
H1071 C1097 0.950 . S
H1072 C1098 0.950 . S
H1073 C1100 0.950 . S
H1074 C1103 0.950 . S
H1075 C1104 0.950 . S
H1076 C1106 0.950 . S
H1077 C1107 0.950 . S
C1078 H1060 0.951 . S
C1078 C1079 1.366 . S
C1078 C1080 1.388 . S
C1079 C1078 1.366 . S
C1079 C1083 1.385 . S
C1080 H1061 0.951 . S
C1080 C1078 1.388 . S
C1080 C1081 1.366 . S
C1081 C1080 1.366 . S
C1081 C1082 1.414 . S
C1081 C1084 1.499 . S
C1082 H1062 0.950 . S
C1082 C1081 1.414 . S
C1082 C1083 1.374 . S
C1083 H1063 0.950 . S
C1083 C1079 1.385 . S
C1083 C1082 1.374 . S
C1084 C1081 1.499 . S
C1084 C1085 1.373 . S
C1084 C1086 1.389 . S
C1085 H1064 0.950 . S
C1085 C1084 1.373 . S
C1085 C1101 1.377 . S
C1086 C1084 1.389 . S
C1086 C1087 1.524 . S
C1086 C1100 1.377 . S
C1087 C1086 1.524 . S
C1087 C1088 1.397 . S
C1087 C1092 1.363 . S
C1088 H1065 0.950 . S
C1088 C1087 1.397 . S
C1088 C1089 1.334 . S
C1089 H1066 0.950 . S
C1089 C1088 1.334 . S
C1089 C1090 1.287 . S
C1090 C1089 1.287 . S
C1090 C1091 1.524 . S
C1090 H1109 0.913 . S
C1091 H1067 0.950 . S
C1091 C1090 1.524 . S
C1091 C1092 1.415 . S
C1092 H1068 0.950 . S
C1092 C1087 1.363 . S
C1092 C1091 1.415 . S
C1093 H1069 0.951 . S
C1093 C1094 1.366 . S
C1093 C1095 1.388 . S
C1094 C1093 1.366 . S
C1094 C1098 1.385 . S
C1095 H1070 0.951 . S
C1095 C1093 1.388 . S
C1095 C1096 1.366 . S
C1096 C1095 1.366 . S
C1096 C1097 1.414 . S
C1096 C1099 1.499 . S
C1097 H1071 0.950 . S
C1097 C1096 1.414 . S
C1097 C1098 1.374 . S
C1098 H1072 0.950 . S
C1098 C1094 1.385 . S
C1098 C1097 1.374 . S
C1099 C1096 1.499 . S
C1099 C1100 1.373 . S
C1099 C1101 1.389 . S
C1100 H1073 0.950 . S
C1100 C1086 1.377 . S
C1100 C1099 1.373 . S
C1101 C1085 1.377 . S
C1101 C1099 1.389 . S
C1101 C1102 1.524 . S
C1102 C1101 1.524 . S
C1102 C1103 1.397 . S
C1102 C1107 1.363 . S
C1103 H1074 0.950 . S
C1103 C1102 1.397 . S
C1103 C1104 1.334 . S
C1104 H1075 0.950 . S
C1104 C1103 1.334 . S
C1104 C1105 1.287 . S
C1105 C1104 1.287 . S
C1105 C1106 1.524 . S
C1105 H1108 0.999 . S
C1106 H1076 0.950 . S
C1106 C1105 1.524 . S
C1106 C1107 1.415 . S
C1107 H1077 0.950 . S
C1107 C1102 1.363 . S
C1107 C1106 1.415 . S
H1108 C1105 0.999 . S
H1109 C1090 0.913 . S
H1110 C1128 0.951 . S
H1111 C1130 0.951 . S
H1112 C1132 0.950 . S
H1113 C1133 0.950 . S
H1114 C1135 0.950 . S
H1115 C1138 0.950 . S
H1116 C1139 0.950 . S
H1117 C1141 0.950 . S
H1118 C1142 0.950 . S
H1119 C1143 0.951 . S
H1120 C1145 0.951 . S
H1121 C1147 0.950 . S
H1122 C1148 0.950 . S
H1123 C1150 0.950 . S
H1124 C1153 0.950 . S
H1125 C1154 0.950 . S
H1126 C1156 0.950 . S
H1127 C1157 0.950 . S
C1128 H1110 0.951 . S
C1128 C1129 1.366 . S
C1128 C1130 1.388 . S
C1129 C1128 1.366 . S
C1129 C1133 1.385 . S
C1130 H1111 0.951 . S
C1130 C1128 1.388 . S
C1130 C1131 1.366 . S
C1131 C1130 1.366 . S
C1131 C1132 1.414 . S
C1131 C1134 1.499 . S
C1132 H1112 0.950 . S
C1132 C1131 1.414 . S
C1132 C1133 1.374 . S
C1133 H1113 0.950 . S
C1133 C1129 1.385 . S
C1133 C1132 1.374 . S
C1134 C1131 1.499 . S
C1134 C1135 1.373 . S
C1134 C1136 1.389 . S
C1135 H1114 0.950 . S
C1135 C1134 1.373 . S
C1135 C1151 1.377 . S
C1136 C1134 1.389 . S
C1136 C1137 1.524 . S
C1136 C1150 1.377 . S
C1137 C1136 1.524 . S
C1137 C1138 1.397 . S
C1137 C1142 1.363 . S
C1138 H1115 0.950 . S
C1138 C1137 1.397 . S
C1138 C1139 1.334 . S
C1139 H1116 0.950 . S
C1139 C1138 1.334 . S
C1139 C1140 1.287 . S
C1140 C1139 1.287 . S
C1140 C1141 1.524 . S
C1140 H1159 0.913 . S
C1141 H1117 0.950 . S
C1141 C1140 1.524 . S
C1141 C1142 1.415 . S
C1142 H1118 0.950 . S
C1142 C1137 1.363 . S
C1142 C1141 1.415 . S
C1143 H1119 0.951 . S
C1143 C1144 1.366 . S
C1143 C1145 1.388 . S
C1144 C1143 1.366 . S
C1144 C1148 1.385 . S
C1145 H1120 0.951 . S
C1145 C1143 1.388 . S
C1145 C1146 1.366 . S
C1146 C1145 1.366 . S
C1146 C1147 1.414 . S
C1146 C1149 1.499 1_545 S
C1147 H1121 0.950 . S
C1147 C1146 1.414 . S
C1147 C1148 1.374 . S
C1148 H1122 0.950 . S
C1148 C1144 1.385 . S
C1148 C1147 1.374 . S
C1149 C1146 1.499 1_565 S
C1149 C1150 1.373 . S
C1149 C1151 1.389 . S
C1150 H1123 0.950 . S
C1150 C1136 1.377 . S
C1150 C1149 1.373 . S
C1151 C1135 1.377 . S
C1151 C1149 1.389 . S
C1151 C1152 1.524 . S
C1152 C1151 1.524 . S
C1152 C1153 1.397 1_565 S
C1152 C1157 1.363 . S
C1153 H1124 0.950 . S
C1153 C1152 1.397 1_545 S
C1153 C1154 1.334 . S
C1154 H1125 0.950 . S
C1154 C1153 1.334 . S
C1154 C1155 1.287 . S
C1155 C1154 1.287 . S
C1155 C1156 1.524 1_545 S
C1155 H1158 0.999 . S
C1156 H1126 0.950 . S
C1156 C1155 1.524 1_565 S
C1156 C1157 1.415 . S
C1157 H1127 0.950 . S
C1157 C1152 1.363 . S
C1157 C1156 1.415 . S
H1158 C1155 0.999 . S
H1159 C1140 0.913 . S
H1160 C1178 0.951 . S
H1161 C1180 0.951 . S
H1162 C1182 0.950 . S
H1163 C1183 0.950 . S
H1164 C1185 0.950 . S
H1165 C1188 0.950 . S
H1166 C1189 0.950 . S
H1167 C1191 0.950 . S
H1168 C1192 0.950 . S
H1169 C1193 0.951 . S
H1170 C1195 0.951 . S
H1171 C1197 0.950 . S
H1172 C1198 0.950 . S
H1173 C1200 0.950 . S
H1174 C1203 0.950 1_565 S
H1175 C1204 0.950 . S
H1176 C1206 0.950 . S
H1177 C1207 0.950 . S
C1178 H1160 0.951 . S
C1178 C1179 1.366 . S
C1178 C1180 1.388 . S
C1179 C1178 1.366 . S
C1179 C1183 1.385 . S
C1180 H1161 0.951 . S
C1180 C1178 1.388 . S
C1180 C1181 1.366 . S
C1181 C1180 1.366 . S
C1181 C1182 1.414 . S
C1181 C1184 1.499 . S
C1182 H1162 0.950 . S
C1182 C1181 1.414 . S
C1182 C1183 1.374 . S
C1183 H1163 0.950 . S
C1183 C1179 1.385 . S
C1183 C1182 1.374 . S
C1184 C1181 1.499 . S
C1184 C1185 1.373 . S
C1184 C1186 1.389 . S
C1185 H1164 0.950 . S
C1185 C1184 1.373 . S
C1185 C1201 1.377 . S
C1186 C1184 1.389 . S
C1186 C1187 1.524 . S
C1186 C1200 1.377 . S
C1187 C1186 1.524 . S
C1187 C1188 1.397 . S
C1187 C1192 1.363 . S
C1188 H1165 0.950 . S
C1188 C1187 1.397 . S
C1188 C1189 1.334 . S
C1189 H1166 0.950 . S
C1189 C1188 1.334 . S
C1189 C1190 1.287 . S
C1190 C1189 1.287 . S
C1190 C1191 1.524 . S
C1190 H1209 0.913 . S
C1191 H1167 0.950 . S
C1191 C1190 1.524 . S
C1191 C1192 1.415 . S
C1192 H1168 0.950 . S
C1192 C1187 1.363 . S
C1192 C1191 1.415 . S
C1193 H1169 0.951 . S
C1193 C1194 1.366 . S
C1193 C1195 1.388 . S
C1194 C1193 1.366 . S
C1194 C1198 1.385 1_545 S
C1195 H1170 0.951 . S
C1195 C1193 1.388 . S
C1195 C1196 1.366 1_545 S
C1196 C1195 1.366 1_565 S
C1196 C1197 1.414 . S
C1196 C1199 1.499 . S
C1197 H1171 0.950 . S
C1197 C1196 1.414 . S
C1197 C1198 1.374 . S
C1198 H1172 0.950 . S
C1198 C1194 1.385 1_565 S
C1198 C1197 1.374 . S
C1199 C1196 1.499 . S
C1199 C1200 1.373 . S
C1199 C1201 1.389 . S
C1200 H1173 0.950 . S
C1200 C1186 1.377 . S
C1200 C1199 1.373 . S
C1201 C1185 1.377 . S
C1201 C1199 1.389 . S
C1201 C1202 1.524 1_565 S
C1202 C1201 1.524 1_545 S
C1202 C1203 1.397 . S
C1202 C1207 1.363 . S
C1203 H1174 0.950 1_545 S
C1203 C1202 1.397 . S
C1203 C1204 1.334 . S
C1204 H1175 0.950 . S
C1204 C1203 1.334 . S
C1204 C1205 1.287 . S
C1205 C1204 1.287 . S
C1205 C1206 1.524 . S
C1205 H1208 0.999 . S
C1206 H1176 0.950 . S
C1206 C1205 1.524 . S
C1206 C1207 1.415 . S
C1207 H1177 0.950 . S
C1207 C1202 1.363 . S
C1207 C1206 1.415 . S
H1208 C1205 0.999 . S
H1209 C1190 0.913 . S
H1210 C1228 0.951 . S
H1211 C1230 0.951 . S
H1212 C1232 0.950 . S
H1213 C1233 0.950 . S
H1214 C1235 0.950 . S
H1215 C1238 0.950 . S
H1216 C1239 0.950 . S
H1217 C1241 0.950 . S
H1218 C1242 0.950 . S
H1219 C1243 0.951 . S
H1220 C1245 0.951 . S
H1221 C1247 0.950 . S
H1222 C1248 0.950 . S
H1223 C1250 0.950 . S
H1224 C1253 0.950 . S
H1225 C1254 0.950 . S
H1226 C1256 0.950 . S
H1227 C1257 0.950 . S
C1228 H1210 0.951 . S
C1228 C1229 1.366 . S
C1228 C1230 1.388 . S
C1229 C1228 1.366 . S
C1229 C1233 1.385 . S
C1230 H1211 0.951 . S
C1230 C1228 1.388 . S
C1230 C1231 1.366 . S
C1231 C1230 1.366 . S
C1231 C1232 1.414 . S
C1231 C1234 1.499 . S
C1232 H1212 0.950 . S
C1232 C1231 1.414 . S
C1232 C1233 1.374 . S
C1233 H1213 0.950 . S
C1233 C1229 1.385 . S
C1233 C1232 1.374 . S
C1234 C1231 1.499 . S
C1234 C1235 1.373 . S
C1234 C1236 1.389 . S
C1235 H1214 0.950 . S
C1235 C1234 1.373 . S
C1235 C1251 1.377 . S
C1236 C1234 1.389 . S
C1236 C1237 1.524 . S
C1236 C1250 1.377 . S
C1237 C1236 1.524 . S
C1237 C1238 1.397 . S
C1237 C1242 1.363 . S
C1238 H1215 0.950 . S
C1238 C1237 1.397 . S
C1238 C1239 1.334 . S
C1239 H1216 0.950 . S
C1239 C1238 1.334 . S
C1239 C1240 1.287 . S
C1240 C1239 1.287 . S
C1240 C1241 1.524 . S
C1240 H1259 0.913 . S
C1241 H1217 0.950 . S
C1241 C1240 1.524 . S
C1241 C1242 1.415 . S
C1242 H1218 0.950 . S
C1242 C1237 1.363 . S
C1242 C1241 1.415 . S
C1243 H1219 0.951 . S
C1243 C1244 1.366 . S
C1243 C1245 1.388 . S
C1244 C1243 1.366 . S
C1244 C1248 1.385 . S
C1245 H1220 0.951 . S
C1245 C1243 1.388 . S
C1245 C1246 1.366 . S
C1246 C1245 1.366 . S
C1246 C1247 1.414 . S
C1246 C1249 1.499 . S
C1247 H1221 0.950 . S
C1247 C1246 1.414 . S
C1247 C1248 1.374 . S
C1248 H1222 0.950 . S
C1248 C1244 1.385 . S
C1248 C1247 1.374 . S
C1249 C1246 1.499 . S
C1249 C1250 1.373 . S
C1249 C1251 1.389 . S
C1250 H1223 0.950 . S
C1250 C1236 1.377 . S
C1250 C1249 1.373 . S
C1251 C1235 1.377 . S
C1251 C1249 1.389 . S
C1251 C1252 1.524 . S
C1252 C1251 1.524 . S
C1252 C1253 1.397 . S
C1252 C1257 1.363 . S
C1253 H1224 0.950 . S
C1253 C1252 1.397 . S
C1253 C1254 1.334 . S
C1254 H1225 0.950 . S
C1254 C1253 1.334 . S
C1254 C1255 1.287 . S
C1255 C1254 1.287 . S
C1255 C1256 1.524 . S
C1255 H1258 0.999 . S
C1256 H1226 0.950 . S
C1256 C1255 1.524 . S
C1256 C1257 1.415 . S
C1257 H1227 0.950 . S
C1257 C1252 1.363 . S
C1257 C1256 1.415 . S
H1258 C1255 0.999 . S
H1259 C1240 0.913 . S
H1260 C1278 0.951 . S
H1261 C1280 0.951 . S
H1262 C1282 0.950 . S
H1263 C1283 0.950 . S
H1264 C1285 0.950 . S
H1265 C1288 0.950 . S
H1266 C1289 0.950 . S
H1267 C1291 0.950 . S
H1268 C1292 0.950 . S
H1269 C1293 0.951 . S
H1270 C1295 0.951 . S
H1271 C1297 0.950 . S
H1272 C1298 0.950 . S
H1273 C1300 0.950 . S
H1274 C1303 0.950 . S
H1275 C1304 0.950 . S
H1276 C1306 0.950 . S
H1277 C1307 0.950 . S
C1278 H1260 0.951 . S
C1278 C1279 1.366 . S
C1278 C1280 1.388 . S
C1279 C1278 1.366 . S
C1279 C1283 1.385 . S
C1280 H1261 0.951 . S
C1280 C1278 1.388 . S
C1280 C1281 1.366 . S
C1281 C1280 1.366 . S
C1281 C1282 1.414 . S
C1281 C1284 1.499 . S
C1282 H1262 0.950 . S
C1282 C1281 1.414 . S
C1282 C1283 1.374 . S
C1283 H1263 0.950 . S
C1283 C1279 1.385 . S
C1283 C1282 1.374 . S
C1284 C1281 1.499 . S
C1284 C1285 1.373 . S
C1284 C1286 1.389 . S
C1285 H1264 0.950 . S
C1285 C1284 1.373 . S
C1285 C1301 1.377 . S
C1286 C1284 1.389 . S
C1286 C1287 1.524 . S
C1286 C1300 1.377 . S
C1287 C1286 1.524 . S
C1287 C1288 1.397 . S
C1287 C1292 1.363 . S
C1288 H1265 0.950 . S
C1288 C1287 1.397 . S
C1288 C1289 1.334 . S
C1289 H1266 0.950 . S
C1289 C1288 1.334 . S
C1289 C1290 1.287 . S
C1290 C1289 1.287 . S
C1290 C1291 1.524 . S
C1290 H1309 0.913 . S
C1291 H1267 0.950 . S
C1291 C1290 1.524 . S
C1291 C1292 1.415 . S
C1292 H1268 0.950 . S
C1292 C1287 1.363 . S
C1292 C1291 1.415 . S
C1293 H1269 0.951 . S
C1293 C1294 1.366 . S
C1293 C1295 1.388 . S
C1294 C1293 1.366 . S
C1294 C1298 1.385 . S
C1295 H1270 0.951 . S
C1295 C1293 1.388 . S
C1295 C1296 1.366 . S
C1296 C1295 1.366 . S
C1296 C1297 1.414 . S
C1296 C1299 1.499 . S
C1297 H1271 0.950 . S
C1297 C1296 1.414 . S
C1297 C1298 1.374 . S
C1298 H1272 0.950 . S
C1298 C1294 1.385 . S
C1298 C1297 1.374 . S
C1299 C1296 1.499 . S
C1299 C1300 1.373 . S
C1299 C1301 1.389 . S
C1300 H1273 0.950 . S
C1300 C1286 1.377 . S
C1300 C1299 1.373 . S
C1301 C1285 1.377 . S
C1301 C1299 1.389 . S
C1301 C1302 1.524 . S
C1302 C1301 1.524 . S
C1302 C1303 1.397 . S
C1302 C1307 1.363 . S
C1303 H1274 0.950 . S
C1303 C1302 1.397 . S
C1303 C1304 1.334 . S
C1304 H1275 0.950 . S
C1304 C1303 1.334 . S
C1304 C1305 1.287 . S
C1305 C1304 1.287 . S
C1305 C1306 1.524 . S
C1305 H1308 0.999 . S
C1306 H1276 0.950 . S
C1306 C1305 1.524 . S
C1306 C1307 1.415 . S
C1307 H1277 0.950 . S
C1307 C1302 1.363 . S
C1307 C1306 1.415 . S
H1308 C1305 0.999 . S
H1309 C1290 0.913 . S
H1310 C1328 0.951 . S
H1311 C1330 0.951 . S
H1312 C1332 0.950 . S
H1313 C1333 0.950 . S
H1314 C1335 0.950 . S
H1315 C1338 0.950 . S
H1316 C1339 0.950 . S
H1317 C1341 0.950 . S
H1318 C1342 0.950 . S
H1319 C1343 0.951 . S
H1320 C1345 0.951 . S
H1321 C1347 0.950 . S
H1322 C1348 0.950 . S
H1323 C1350 0.950 . S
H1324 C1353 0.950 . S
H1325 C1354 0.950 . S
H1326 C1356 0.950 . S
H1327 C1357 0.950 . S
C1328 H1310 0.951 . S
C1328 C1329 1.366 . S
C1328 C1330 1.388 . S
C1329 C1328 1.366 . S
C1329 C1333 1.385 . S
C1330 H1311 0.951 . S
C1330 C1328 1.388 . S
C1330 C1331 1.366 . S
C1331 C1330 1.366 . S
C1331 C1332 1.414 . S
C1331 C1334 1.499 . S
C1332 H1312 0.950 . S
C1332 C1331 1.414 . S
C1332 C1333 1.374 . S
C1333 H1313 0.950 . S
C1333 C1329 1.385 . S
C1333 C1332 1.374 . S
C1334 C1331 1.499 . S
C1334 C1335 1.373 . S
C1334 C1336 1.389 . S
C1335 H1314 0.950 . S
C1335 C1334 1.373 . S
C1335 C1351 1.377 . S
C1336 C1334 1.389 . S
C1336 C1337 1.524 . S
C1336 C1350 1.377 . S
C1337 C1336 1.524 . S
C1337 C1338 1.397 . S
C1337 C1342 1.363 . S
C1338 H1315 0.950 . S
C1338 C1337 1.397 . S
C1338 C1339 1.334 . S
C1339 H1316 0.950 . S
C1339 C1338 1.334 . S
C1339 C1340 1.287 . S
C1340 C1339 1.287 . S
C1340 C1341 1.524 . S
C1340 H1359 0.913 . S
C1341 H1317 0.950 . S
C1341 C1340 1.524 . S
C1341 C1342 1.415 . S
C1342 H1318 0.950 . S
C1342 C1337 1.363 . S
C1342 C1341 1.415 . S
C1343 H1319 0.951 . S
C1343 C1344 1.366 . S
C1343 C1345 1.388 . S
C1344 C1343 1.366 . S
C1344 C1348 1.385 . S
C1345 H1320 0.951 . S
C1345 C1343 1.388 . S
C1345 C1346 1.366 . S
C1346 C1345 1.366 . S
C1346 C1347 1.414 . S
C1346 C1349 1.499 . S
C1347 H1321 0.950 . S
C1347 C1346 1.414 . S
C1347 C1348 1.374 . S
C1348 H1322 0.950 . S
C1348 C1344 1.385 . S
C1348 C1347 1.374 . S
C1349 C1346 1.499 . S
C1349 C1350 1.373 . S
C1349 C1351 1.389 . S
C1350 H1323 0.950 . S
C1350 C1336 1.377 . S
C1350 C1349 1.373 . S
C1351 C1335 1.377 . S
C1351 C1349 1.389 . S
C1351 C1352 1.524 . S
C1352 C1351 1.524 . S
C1352 C1353 1.397 . S
C1352 C1357 1.363 . S
C1353 H1324 0.950 . S
C1353 C1352 1.397 . S
C1353 C1354 1.334 . S
C1354 H1325 0.950 . S
C1354 C1353 1.334 . S
C1354 C1355 1.287 . S
C1355 C1354 1.287 . S
C1355 C1356 1.524 . S
C1355 H1358 0.999 . S
C1356 H1326 0.950 . S
C1356 C1355 1.524 . S
C1356 C1357 1.415 . S
C1357 H1327 0.950 . S
C1357 C1352 1.363 . S
C1357 C1356 1.415 . S
H1358 C1355 0.999 . S
H1359 C1340 0.913 . S
H1360 C1378 0.951 . S
H1361 C1380 0.951 . S
H1362 C1382 0.950 1_545 S
H1363 C1383 0.950 1_545 S
H1364 C1385 0.950 . S
H1365 C1388 0.950 . S
H1366 C1389 0.950 . S
H1367 C1391 0.950 . S
H1368 C1392 0.950 . S
H1369 C1393 0.951 . S
H1370 C1395 0.951 . S
H1371 C1397 0.950 . S
H1372 C1398 0.950 . S
H1373 C1400 0.950 . S
H1374 C1403 0.950 . S
H1375 C1404 0.950 . S
H1376 C1406 0.950 . S
H1377 C1407 0.950 . S
C1378 H1360 0.951 . S
C1378 C1379 1.366 . S
C1378 C1380 1.388 . S
C1379 C1378 1.366 . S
C1379 C1383 1.385 . S
C1380 H1361 0.951 . S
C1380 C1378 1.388 . S
C1380 C1381 1.366 . S
C1381 C1380 1.366 . S
C1381 C1382 1.414 . S
C1381 C1384 1.499 . S
C1382 H1362 0.950 1_565 S
C1382 C1381 1.414 . S
C1382 C1383 1.374 . S
C1383 H1363 0.950 1_565 S
C1383 C1379 1.385 . S
C1383 C1382 1.374 . S
C1384 C1381 1.499 . S
C1384 C1385 1.373 . S
C1384 C1386 1.389 . S
C1385 H1364 0.950 . S
C1385 C1384 1.373 . S
C1385 C1401 1.377 . S
C1386 C1384 1.389 . S
C1386 C1387 1.524 . S
C1386 C1400 1.377 . S
C1387 C1386 1.524 . S
C1387 C1388 1.397 . S
C1387 C1392 1.363 . S
C1388 H1365 0.950 . S
C1388 C1387 1.397 . S
C1388 C1389 1.334 . S
C1389 H1366 0.950 . S
C1389 C1388 1.334 . S
C1389 C1390 1.287 . S
C1390 C1389 1.287 . S
C1390 C1391 1.524 . S
C1390 H1409 0.913 . S
C1391 H1367 0.950 . S
C1391 C1390 1.524 . S
C1391 C1392 1.415 . S
C1392 H1368 0.950 . S
C1392 C1387 1.363 . S
C1392 C1391 1.415 . S
C1393 H1369 0.951 . S
C1393 C1394 1.366 . S
C1393 C1395 1.388 . S
C1394 C1393 1.366 . S
C1394 C1398 1.385 . S
C1395 H1370 0.951 . S
C1395 C1393 1.388 . S
C1395 C1396 1.366 . S
C1396 C1395 1.366 . S
C1396 C1397 1.414 . S
C1396 C1399 1.499 . S
C1397 H1371 0.950 . S
C1397 C1396 1.414 . S
C1397 C1398 1.374 . S
C1398 H1372 0.950 . S
C1398 C1394 1.385 . S
C1398 C1397 1.374 . S
C1399 C1396 1.499 . S
C1399 C1400 1.373 . S
C1399 C1401 1.389 . S
C1400 H1373 0.950 . S
C1400 C1386 1.377 . S
C1400 C1399 1.373 . S
C1401 C1385 1.377 . S
C1401 C1399 1.389 . S
C1401 C1402 1.524 . S
C1402 C1401 1.524 . S
C1402 C1403 1.397 . S
C1402 C1407 1.363 1_565 S
C1403 H1374 0.950 . S
C1403 C1402 1.397 . S
C1403 C1404 1.334 . S
C1404 H1375 0.950 . S
C1404 C1403 1.334 . S
C1404 C1405 1.287 1_565 S
C1405 C1404 1.287 1_545 S
C1405 C1406 1.524 . S
C1405 H1408 0.999 . S
C1406 H1376 0.950 . S
C1406 C1405 1.524 . S
C1406 C1407 1.415 . S
C1407 H1377 0.950 . S
C1407 C1402 1.363 1_545 S
C1407 C1406 1.415 . S
H1408 C1405 0.999 . S
H1409 C1390 0.913 . S
H1410 C1428 0.951 . S
H1411 C1430 0.951 . S
H1412 C1432 0.950 . S
H1413 C1433 0.950 . S
H1414 C1435 0.950 . S
H1415 C1438 0.950 . S
H1416 C1439 0.950 . S
H1417 C1441 0.950 . S
H1418 C1442 0.950 . S
H1419 C1443 0.951 . S
H1420 C1445 0.951 . S
H1421 C1447 0.950 . S
H1422 C1448 0.950 . S
H1423 C1450 0.950 . S
H1424 C1453 0.950 . S
H1425 C1454 0.950 . S
H1426 C1456 0.950 . S
H1427 C1457 0.950 . S
C1428 H1410 0.951 . S
C1428 C1429 1.366 . S
C1428 C1430 1.388 . S
C1429 C1428 1.366 . S
C1429 C1433 1.385 . S
C1430 H1411 0.951 . S
C1430 C1428 1.388 . S
C1430 C1431 1.366 . S
C1431 C1430 1.366 . S
C1431 C1432 1.414 . S
C1431 C1434 1.499 . S
C1432 H1412 0.950 . S
C1432 C1431 1.414 . S
C1432 C1433 1.374 . S
C1433 H1413 0.950 . S
C1433 C1429 1.385 . S
C1433 C1432 1.374 . S
C1434 C1431 1.499 . S
C1434 C1435 1.373 . S
C1434 C1436 1.389 . S
C1435 H1414 0.950 . S
C1435 C1434 1.373 . S
C1435 C1451 1.377 . S
C1436 C1434 1.389 . S
C1436 C1437 1.524 . S
C1436 C1450 1.377 . S
C1437 C1436 1.524 . S
C1437 C1438 1.397 . S
C1437 C1442 1.363 . S
C1438 H1415 0.950 . S
C1438 C1437 1.397 . S
C1438 C1439 1.334 . S
C1439 H1416 0.950 . S
C1439 C1438 1.334 . S
C1439 C1440 1.287 . S
C1440 C1439 1.287 . S
C1440 C1441 1.524 . S
C1440 H1459 0.913 . S
C1441 H1417 0.950 . S
C1441 C1440 1.524 . S
C1441 C1442 1.415 . S
C1442 H1418 0.950 . S
C1442 C1437 1.363 . S
C1442 C1441 1.415 . S
C1443 H1419 0.951 . S
C1443 C1444 1.366 . S
C1443 C1445 1.388 . S
C1444 C1443 1.366 . S
C1444 C1448 1.385 . S
C1445 H1420 0.951 . S
C1445 C1443 1.388 . S
C1445 C1446 1.366 . S
C1446 C1445 1.366 . S
C1446 C1447 1.414 . S
C1446 C1449 1.499 . S
C1447 H1421 0.950 . S
C1447 C1446 1.414 . S
C1447 C1448 1.374 . S
C1448 H1422 0.950 . S
C1448 C1444 1.385 . S
C1448 C1447 1.374 . S
C1449 C1446 1.499 . S
C1449 C1450 1.373 . S
C1449 C1451 1.389 . S
C1450 H1423 0.950 . S
C1450 C1436 1.377 . S
C1450 C1449 1.373 . S
C1451 C1435 1.377 . S
C1451 C1449 1.389 . S
C1451 C1452 1.524 . S
C1452 C1451 1.524 . S
C1452 C1453 1.397 . S
C1452 C1457 1.363 . S
C1453 H1424 0.950 . S
C1453 C1452 1.397 . S
C1453 C1454 1.334 1_545 S
C1454 H1425 0.950 . S
C1454 C1453 1.334 1_565 S
C1454 C1455 1.287 . S
C1455 C1454 1.287 . S
C1455 C1456 1.524 . S
C1455 H1458 0.999 . S
C1456 H1426 0.950 . S
C1456 C1455 1.524 . S
C1456 C1457 1.415 1_565 S
C1457 H1427 0.950 . S
C1457 C1452 1.363 . S
C1457 C1456 1.415 1_545 S
H1458 C1455 0.999 . S
H1459 C1440 0.913 . S
H1460 C1478 0.951 1_455 S
H1461 C1480 0.951 . S
H1462 C1482 0.950 . S
H1463 C1483 0.950 . S
H1464 C1485 0.950 . S
H1465 C1488 0.950 . S
H1466 C1489 0.950 . S
H1467 C1491 0.950 . S
H1468 C1492 0.950 . S
H1469 C1493 0.951 . S
H1470 C1495 0.951 . S
H1471 C1497 0.950 . S
H1472 C1498 0.950 . S
H1473 C1500 0.950 . S
H1474 C1503 0.950 . S
H1475 C1504 0.950 . S
H1476 C1506 0.950 . S
H1477 C1507 0.950 . S
C1478 H1460 0.951 1_655 S
C1478 C1479 1.366 . S
C1478 C1480 1.388 . S
C1479 C1478 1.366 . S
C1479 C1483 1.385 . S
C1480 H1461 0.951 . S
C1480 C1478 1.388 . S
C1480 C1481 1.366 . S
C1481 C1480 1.366 . S
C1481 C1482 1.414 . S
C1481 C1484 1.499 . S
C1482 H1462 0.950 . S
C1482 C1481 1.414 . S
C1482 C1483 1.374 . S
C1483 H1463 0.950 . S
C1483 C1479 1.385 . S
C1483 C1482 1.374 . S
C1484 C1481 1.499 . S
C1484 C1485 1.373 . S
C1484 C1486 1.389 . S
C1485 H1464 0.950 . S
C1485 C1484 1.373 . S
C1485 C1501 1.377 . S
C1486 C1484 1.389 . S
C1486 C1487 1.524 . S
C1486 C1500 1.377 . S
C1487 C1486 1.524 . S
C1487 C1488 1.397 . S
C1487 C1492 1.363 . S
C1488 H1465 0.950 . S
C1488 C1487 1.397 . S
C1488 C1489 1.334 . S
C1489 H1466 0.950 . S
C1489 C1488 1.334 . S
C1489 C1490 1.287 . S
C1490 C1489 1.287 . S
C1490 C1491 1.524 . S
C1490 H1509 0.913 . S
C1491 H1467 0.950 . S
C1491 C1490 1.524 . S
C1491 C1492 1.415 . S
C1492 H1468 0.950 . S
C1492 C1487 1.363 . S
C1492 C1491 1.415 . S
C1493 H1469 0.951 . S
C1493 C1494 1.366 . S
C1493 C1495 1.388 . S
C1494 C1493 1.366 . S
C1494 C1498 1.385 . S
C1495 H1470 0.951 . S
C1495 C1493 1.388 . S
C1495 C1496 1.366 . S
C1496 C1495 1.366 . S
C1496 C1497 1.414 . S
C1496 C1499 1.499 . S
C1497 H1471 0.950 . S
C1497 C1496 1.414 . S
C1497 C1498 1.374 . S
C1498 H1472 0.950 . S
C1498 C1494 1.385 . S
C1498 C1497 1.374 . S
C1499 C1496 1.499 . S
C1499 C1500 1.373 . S
C1499 C1501 1.389 . S
C1500 H1473 0.950 . S
C1500 C1486 1.377 . S
C1500 C1499 1.373 . S
C1501 C1485 1.377 . S
C1501 C1499 1.389 . S
C1501 C1502 1.524 . S
C1502 C1501 1.524 . S
C1502 C1503 1.397 . S
C1502 C1507 1.363 . S
C1503 H1474 0.950 . S
C1503 C1502 1.397 . S
C1503 C1504 1.334 . S
C1504 H1475 0.950 . S
C1504 C1503 1.334 . S
C1504 C1505 1.287 . S
C1505 C1504 1.287 . S
C1505 C1506 1.524 . S
C1505 H1508 0.999 . S
C1506 H1476 0.950 . S
C1506 C1505 1.524 . S
C1506 C1507 1.415 . S
C1507 H1477 0.950 . S
C1507 C1502 1.363 . S
C1507 C1506 1.415 . S
H1508 C1505 0.999 . S
H1509 C1490 0.913 . S
H1510 C1528 0.951 . S
H1511 C1530 0.951 . S
H1512 C1532 0.950 . S
H1513 C1533 0.950 . S
H1514 C1535 0.950 . S
H1515 C1538 0.950 . S
H1516 C1539 0.950 . S
H1517 C1541 0.950 . S
H1518 C1542 0.950 . S
H1519 C1543 0.951 . S
H1520 C1545 0.951 . S
H1521 C1547 0.950 . S
H1522 C1548 0.950 . S
H1523 C1550 0.950 . S
H1524 C1553 0.950 . S
H1525 C1554 0.950 . S
H1526 C1556 0.950 . S
H1527 C1557 0.950 . S
C1528 H1510 0.951 . S
C1528 C1529 1.366 . S
C1528 C1530 1.388 . S
C1529 C1528 1.366 . S
C1529 C1533 1.385 . S
C1530 H1511 0.951 . S
C1530 C1528 1.388 . S
C1530 C1531 1.366 . S
C1531 C1530 1.366 . S
C1531 C1532 1.414 . S
C1531 C1534 1.499 . S
C1532 H1512 0.950 . S
C1532 C1531 1.414 . S
C1532 C1533 1.374 . S
C1533 H1513 0.950 . S
C1533 C1529 1.385 . S
C1533 C1532 1.374 . S
C1534 C1531 1.499 . S
C1534 C1535 1.373 . S
C1534 C1536 1.389 . S
C1535 H1514 0.950 . S
C1535 C1534 1.373 . S
C1535 C1551 1.377 . S
C1536 C1534 1.389 . S
C1536 C1537 1.524 . S
C1536 C1550 1.377 . S
C1537 C1536 1.524 . S
C1537 C1538 1.397 . S
C1537 C1542 1.363 . S
C1538 H1515 0.950 . S
C1538 C1537 1.397 . S
C1538 C1539 1.334 . S
C1539 H1516 0.950 . S
C1539 C1538 1.334 . S
C1539 C1540 1.287 . S
C1540 C1539 1.287 . S
C1540 C1541 1.524 . S
C1540 H1559 0.913 . S
C1541 H1517 0.950 . S
C1541 C1540 1.524 . S
C1541 C1542 1.415 . S
C1542 H1518 0.950 . S
C1542 C1537 1.363 . S
C1542 C1541 1.415 . S
C1543 H1519 0.951 . S
C1543 C1544 1.366 . S
C1543 C1545 1.388 . S
C1544 C1543 1.366 . S
C1544 C1548 1.385 . S
C1545 H1520 0.951 . S
C1545 C1543 1.388 . S
C1545 C1546 1.366 . S
C1546 C1545 1.366 . S
C1546 C1547 1.414 . S
C1546 C1549 1.499 . S
C1547 H1521 0.950 . S
C1547 C1546 1.414 . S
C1547 C1548 1.374 . S
C1548 H1522 0.950 . S
C1548 C1544 1.385 . S
C1548 C1547 1.374 . S
C1549 C1546 1.499 . S
C1549 C1550 1.373 . S
C1549 C1551 1.389 . S
C1550 H1523 0.950 . S
C1550 C1536 1.377 . S
C1550 C1549 1.373 . S
C1551 C1535 1.377 . S
C1551 C1549 1.389 . S
C1551 C1552 1.524 . S
C1552 C1551 1.524 . S
C1552 C1553 1.397 . S
C1552 C1557 1.363 . S
C1553 H1524 0.950 . S
C1553 C1552 1.397 . S
C1553 C1554 1.334 . S
C1554 H1525 0.950 . S
C1554 C1553 1.334 . S
C1554 C1555 1.287 . S
C1555 C1554 1.287 . S
C1555 C1556 1.524 . S
C1555 H1558 0.999 . S
C1556 H1526 0.950 . S
C1556 C1555 1.524 . S
C1556 C1557 1.415 . S
C1557 H1527 0.950 . S
C1557 C1552 1.363 . S
C1557 C1556 1.415 . S
H1558 C1555 0.999 . S
H1559 C1540 0.913 . S
H1560 C1578 0.951 . S
H1561 C1580 0.951 . S
H1562 C1582 0.950 . S
H1563 C1583 0.950 . S
H1564 C1585 0.950 . S
H1565 C1588 0.950 . S
H1566 C1589 0.950 . S
H1567 C1591 0.950 . S
H1568 C1592 0.950 . S
H1569 C1593 0.951 . S
H1570 C1595 0.951 . S
H1571 C1597 0.950 . S
H1572 C1598 0.950 . S
H1573 C1600 0.950 . S
H1574 C1603 0.950 . S
H1575 C1604 0.950 . S
H1576 C1606 0.950 . S
H1577 C1607 0.950 . S
C1578 H1560 0.951 . S
C1578 C1579 1.366 . S
C1578 C1580 1.388 . S
C1579 C1578 1.366 . S
C1579 C1583 1.385 . S
C1580 H1561 0.951 . S
C1580 C1578 1.388 . S
C1580 C1581 1.366 . S
C1581 C1580 1.366 . S
C1581 C1582 1.414 . S
C1581 C1584 1.499 . S
C1582 H1562 0.950 . S
C1582 C1581 1.414 . S
C1582 C1583 1.374 . S
C1583 H1563 0.950 . S
C1583 C1579 1.385 . S
C1583 C1582 1.374 . S
C1584 C1581 1.499 . S
C1584 C1585 1.373 . S
C1584 C1586 1.389 . S
C1585 H1564 0.950 . S
C1585 C1584 1.373 . S
C1585 C1601 1.377 . S
C1586 C1584 1.389 . S
C1586 C1587 1.524 . S
C1586 C1600 1.377 . S
C1587 C1586 1.524 . S
C1587 C1588 1.397 . S
C1587 C1592 1.363 . S
C1588 H1565 0.950 . S
C1588 C1587 1.397 . S
C1588 C1589 1.334 . S
C1589 H1566 0.950 . S
C1589 C1588 1.334 . S
C1589 C1590 1.287 . S
C1590 C1589 1.287 . S
C1590 C1591 1.524 . S
C1590 H1609 0.913 . S
C1591 H1567 0.950 . S
C1591 C1590 1.524 . S
C1591 C1592 1.415 . S
C1592 H1568 0.950 . S
C1592 C1587 1.363 . S
C1592 C1591 1.415 . S
C1593 H1569 0.951 . S
C1593 C1594 1.366 . S
C1593 C1595 1.388 . S
C1594 C1593 1.366 . S
C1594 C1598 1.385 . S
C1595 H1570 0.951 . S
C1595 C1593 1.388 . S
C1595 C1596 1.366 . S
C1596 C1595 1.366 . S
C1596 C1597 1.414 . S
C1596 C1599 1.499 . S
C1597 H1571 0.950 . S
C1597 C1596 1.414 . S
C1597 C1598 1.374 . S
C1598 H1572 0.950 . S
C1598 C1594 1.385 . S
C1598 C1597 1.374 . S
C1599 C1596 1.499 . S
C1599 C1600 1.373 . S
C1599 C1601 1.389 . S
C1600 H1573 0.950 . S
C1600 C1586 1.377 . S
C1600 C1599 1.373 . S
C1601 C1585 1.377 . S
C1601 C1599 1.389 . S
C1601 C1602 1.524 . S
C1602 C1601 1.524 . S
C1602 C1603 1.397 . S
C1602 C1607 1.363 . S
C1603 H1574 0.950 . S
C1603 C1602 1.397 . S
C1603 C1604 1.334 . S
C1604 H1575 0.950 . S
C1604 C1603 1.334 . S
C1604 C1605 1.287 . S
C1605 C1604 1.287 . S
C1605 C1606 1.524 . S
C1605 H1608 0.999 . S
C1606 H1576 0.950 . S
C1606 C1605 1.524 . S
C1606 C1607 1.415 . S
C1607 H1577 0.950 . S
C1607 C1602 1.363 . S
C1607 C1606 1.415 . S
H1608 C1605 0.999 . S
H1609 C1590 0.913 . S
H1610 C1628 0.951 . S
H1611 C1630 0.951 . S
H1612 C1632 0.950 . S
H1613 C1633 0.950 . S
H1614 C1635 0.950 . S
H1615 C1638 0.950 . S
H1616 C1639 0.950 . S
H1617 C1641 0.950 . S
H1618 C1642 0.950 . S
H1619 C1643 0.951 . S
H1620 C1645 0.951 . S
H1621 C1647 0.950 . S
H1622 C1648 0.950 . S
H1623 C1650 0.950 . S
H1624 C1653 0.950 . S
H1625 C1654 0.950 . S
H1626 C1656 0.950 . S
H1627 C1657 0.950 . S
C1628 H1610 0.951 . S
C1628 C1629 1.366 . S
C1628 C1630 1.388 . S
C1629 C1628 1.366 . S
C1629 C1633 1.385 . S
C1630 H1611 0.951 . S
C1630 C1628 1.388 . S
C1630 C1631 1.366 . S
C1631 C1630 1.366 . S
C1631 C1632 1.414 . S
C1631 C1634 1.499 . S
C1632 H1612 0.950 . S
C1632 C1631 1.414 . S
C1632 C1633 1.374 . S
C1633 H1613 0.950 . S
C1633 C1629 1.385 . S
C1633 C1632 1.374 . S
C1634 C1631 1.499 . S
C1634 C1635 1.373 . S
C1634 C1636 1.389 1_565 S
C1635 H1614 0.950 . S
C1635 C1634 1.373 . S
C1635 C1651 1.377 . S
C1636 C1634 1.389 1_545 S
C1636 C1637 1.524 . S
C1636 C1650 1.377 . S
C1637 C1636 1.524 . S
C1637 C1638 1.397 . S
C1637 C1642 1.363 . S
C1638 H1615 0.950 . S
C1638 C1637 1.397 . S
C1638 C1639 1.334 . S
C1639 H1616 0.950 . S
C1639 C1638 1.334 . S
C1639 C1640 1.287 . S
C1640 C1639 1.287 . S
C1640 C1641 1.524 . S
C1640 H1659 0.913 . S
C1641 H1617 0.950 . S
C1641 C1640 1.524 . S
C1641 C1642 1.415 . S
C1642 H1618 0.950 . S
C1642 C1637 1.363 . S
C1642 C1641 1.415 . S
C1643 H1619 0.951 . S
C1643 C1644 1.366 . S
C1643 C1645 1.388 . S
C1644 C1643 1.366 . S
C1644 C1648 1.385 . S
C1645 H1620 0.951 . S
C1645 C1643 1.388 . S
C1645 C1646 1.366 . S
C1646 C1645 1.366 . S
C1646 C1647 1.414 . S
C1646 C1649 1.499 . S
C1647 H1621 0.950 . S
C1647 C1646 1.414 . S
C1647 C1648 1.374 . S
C1648 H1622 0.950 . S
C1648 C1644 1.385 . S
C1648 C1647 1.374 . S
C1649 C1646 1.499 . S
C1649 C1650 1.373 . S
C1649 C1651 1.389 1_545 S
C1650 H1623 0.950 . S
C1650 C1636 1.377 . S
C1650 C1649 1.373 . S
C1651 C1635 1.377 . S
C1651 C1649 1.389 1_565 S
C1651 C1652 1.524 . S
C1652 C1651 1.524 . S
C1652 C1653 1.397 . S
C1652 C1657 1.363 . S
C1653 H1624 0.950 . S
C1653 C1652 1.397 . S
C1653 C1654 1.334 . S
C1654 H1625 0.950 . S
C1654 C1653 1.334 . S
C1654 C1655 1.287 . S
C1655 C1654 1.287 . S
C1655 C1656 1.524 . S
C1655 H1658 0.999 . S
C1656 H1626 0.950 . S
C1656 C1655 1.524 . S
C1656 C1657 1.415 . S
C1657 H1627 0.950 . S
C1657 C1652 1.363 . S
C1657 C1656 1.415 . S
H1658 C1655 0.999 . S
H1659 C1640 0.913 . S
H1660 C1678 0.951 . S
H1661 C1680 0.951 . S
H1662 C1682 0.950 . S
H1663 C1683 0.950 . S
H1664 C1685 0.950 . S
H1665 C1688 0.950 . S
H1666 C1689 0.950 . S
H1667 C1691 0.950 . S
H1668 C1692 0.950 . S
H1669 C1693 0.951 . S
H1670 C1695 0.951 . S
H1671 C1697 0.950 . S
H1672 C1698 0.950 . S
H1673 C1700 0.950 . S
H1674 C1703 0.950 . S
H1675 C1704 0.950 . S
H1676 C1706 0.950 . S
H1677 C1707 0.950 . S
C1678 H1660 0.951 . S
C1678 C1679 1.366 . S
C1678 C1680 1.388 . S
C1679 C1678 1.366 . S
C1679 C1683 1.385 . S
C1680 H1661 0.951 . S
C1680 C1678 1.388 . S
C1680 C1681 1.366 . S
C1681 C1680 1.366 . S
C1681 C1682 1.414 . S
C1681 C1684 1.499 . S
C1682 H1662 0.950 . S
C1682 C1681 1.414 . S
C1682 C1683 1.374 . S
C1683 H1663 0.950 . S
C1683 C1679 1.385 . S
C1683 C1682 1.374 . S
C1684 C1681 1.499 . S
C1684 C1685 1.373 . S
C1684 C1686 1.389 1_655 S
C1685 H1664 0.950 . S
C1685 C1684 1.373 . S
C1685 C1701 1.377 1_655 S
C1686 C1684 1.389 1_455 S
C1686 C1687 1.524 . S
C1686 C1700 1.377 . S
C1687 C1686 1.524 . S
C1687 C1688 1.397 1_455 S
C1687 C1692 1.363 . S
C1688 H1665 0.950 . S
C1688 C1687 1.397 1_655 S
C1688 C1689 1.334 . S
C1689 H1666 0.950 . S
C1689 C1688 1.334 . S
C1689 C1690 1.287 1_655 S
C1690 C1689 1.287 1_455 S
C1690 C1691 1.524 . S
C1690 H1709 0.913 . S
C1691 H1667 0.950 . S
C1691 C1690 1.524 . S
C1691 C1692 1.415 . S
C1692 H1668 0.950 . S
C1692 C1687 1.363 . S
C1692 C1691 1.415 . S
C1693 H1669 0.951 . S
C1693 C1694 1.366 . S
C1693 C1695 1.388 . S
C1694 C1693 1.366 . S
C1694 C1698 1.385 . S
C1695 H1670 0.951 . S
C1695 C1693 1.388 . S
C1695 C1696 1.366 . S
C1696 C1695 1.366 . S
C1696 C1697 1.414 . S
C1696 C1699 1.499 . S
C1697 H1671 0.950 . S
C1697 C1696 1.414 . S
C1697 C1698 1.374 . S
C1698 H1672 0.950 . S
C1698 C1694 1.385 . S
C1698 C1697 1.374 . S
C1699 C1696 1.499 . S
C1699 C1700 1.373 . S
C1699 C1701 1.389 . S
C1700 H1673 0.950 . S
C1700 C1686 1.377 . S
C1700 C1699 1.373 . S
C1701 C1685 1.377 1_455 S
C1701 C1699 1.389 . S
C1701 C1702 1.524 . S
C1702 C1701 1.524 . S
C1702 C1703 1.397 . S
C1702 C1707 1.363 1_455 S
C1703 H1674 0.950 . S
C1703 C1702 1.397 . S
C1703 C1704 1.334 . S
C1704 H1675 0.950 . S
C1704 C1703 1.334 . S
C1704 C1705 1.287 . S
C1705 C1704 1.287 . S
C1705 C1706 1.524 1_455 S
C1705 H1708 0.999 . S
C1706 H1676 0.950 . S
C1706 C1705 1.524 1_655 S
C1706 C1707 1.415 . S
C1707 H1677 0.950 . S
C1707 C1702 1.363 1_655 S
C1707 C1706 1.415 . S
H1708 C1705 0.999 . S
H1709 C1690 0.913 . S
C379 C66 0.338 . S
C394 C17 0.467 . S
C429 C104 3.233 . S
C444 C53 3.256 . S
C479 C97 0.902 . S
C494 C24 0.904 . S
C529 C93 2.923 . S
C544 C64 2.909 . S
C579 C106 1.793 . S
C594 C13 1.788 . S
C629 C26 0.620 . S
C644 C57 0.709 . S
C679 C137 2.705 . S
C694 C184 2.733 . S
C729 C224 0.622 . S
C744 C177 0.619 . S
C779 C217 0.770 . S
C794 C144 0.770 . S
C829 C186 0.261 . S
C844 C213 0.234 . S
C879 C226 1.893 . S
C894 C133 1.888 . S
C929 C173 2.225 . S
C944 C146 2.230 . S
C979 C306 0.354 . S
C994 C257 0.485 . S
C1029 C293 3.296 . S
C1044 C344 3.274 . S
C1079 C337 0.917 . S
C1094 C264 0.918 . S
C1129 C333 2.861 . S
C1144 C304 2.847 . S
C1179 C346 1.805 1_455 S
C1194 C253 1.800 . S
C1229 C266 0.592 . S
C1244 C297 0.681 . S
C1279 C223 2.357 . S
C1294 C2 2.579 . S
C1329 C143 2.079 . S
C1344 C63 2.052 . S
C1379 C82 2.927 . S
C1394 C183 2.752 . S
C1429 C103 2.366 . S
C1444 C242 2.588 . S
C1479 C23 2.040 . S
C1494 C303 2.013 . S
C1529 C322 2.923 . S
C1544 C42 2.937 . S
C1579 C122 2.625 . S
C1594 C343 2.402 . S
C1629 C162 2.188 . S
C1644 C263 2.054 . S
C1679 C282 2.894 . S
C1694 C202 2.880 . S
