# Generated by pormake.
# Topology ske, (6)-cn, num edge types: 1
# Building blocks:
#     Node 0, Type 0, BuildingBlock: KUMJIN_clean_sbu_0, # of connection points: 6
#     Node 1, Type 0, BuildingBlock: KUMJIN_clean_sbu_0, # of connection points: 6
#     Node 2, Type 0, BuildingBlock: KUMJIN_clean_sbu_0, # of connection points: 6
#     Node 3, Type 0, BuildingBlock: KUMJIN_clean_sbu_0, # of connection points: 6
#     Node 4, Type 0, BuildingBlock: KUMJIN_clean_sbu_0, # of connection points: 6
#     Node 5, Type 0, BuildingBlock: KUMJIN_clean_sbu_0, # of connection points: 6
#     Node 6, Type 0, BuildingBlock: KUMJIN_clean_sbu_0, # of connection points: 6
#     Node 7, Type 0, BuildingBlock: KUMJIN_clean_sbu_0, # of connection points: 6
#     Edge 8, Type (0, 0), BuildingBlock: XIVTED_clean_linker_0, # of connection points: 2
#     Edge 9, Type (0, 0), BuildingBlock: XIVTED_clean_linker_0, # of connection points: 2
#     Edge 10, Type (0, 0), BuildingBlock: XIVTED_clean_linker_0, # of connection points: 2
#     Edge 11, Type (0, 0), BuildingBlock: XIVTED_clean_linker_0, # of connection points: 2
#     Edge 12, Type (0, 0), BuildingBlock: XIVTED_clean_linker_0, # of connection points: 2
#     Edge 13, Type (0, 0), BuildingBlock: XIVTED_clean_linker_0, # of connection points: 2
#     Edge 14, Type (0, 0), BuildingBlock: XIVTED_clean_linker_0, # of connection points: 2
#     Edge 15, Type (0, 0), BuildingBlock: XIVTED_clean_linker_0, # of connection points: 2
#     Edge 16, Type (0, 0), BuildingBlock: XIVTED_clean_linker_0, # of connection points: 2
#     Edge 17, Type (0, 0), BuildingBlock: XIVTED_clean_linker_0, # of connection points: 2
#     Edge 18, Type (0, 0), BuildingBlock: XIVTED_clean_linker_0, # of connection points: 2
#     Edge 19, Type (0, 0), BuildingBlock: XIVTED_clean_linker_0, # of connection points: 2
#     Edge 20, Type (0, 0), BuildingBlock: XIVTED_clean_linker_0, # of connection points: 2
#     Edge 21, Type (0, 0), BuildingBlock: XIVTED_clean_linker_0, # of connection points: 2
#     Edge 22, Type (0, 0), BuildingBlock: XIVTED_clean_linker_0, # of connection points: 2
#     Edge 23, Type (0, 0), BuildingBlock: XIVTED_clean_linker_0, # of connection points: 2
#     Edge 24, Type (0, 0), BuildingBlock: XIVTED_clean_linker_0, # of connection points: 2
#     Edge 25, Type (0, 0), BuildingBlock: XIVTED_clean_linker_0, # of connection points: 2
#     Edge 26, Type (0, 0), BuildingBlock: XIVTED_clean_linker_0, # of connection points: 2
#     Edge 27, Type (0, 0), BuildingBlock: XIVTED_clean_linker_0, # of connection points: 2
#     Edge 28, Type (0, 0), BuildingBlock: XIVTED_clean_linker_0, # of connection points: 2
#     Edge 29, Type (0, 0), BuildingBlock: XIVTED_clean_linker_0, # of connection points: 2
#     Edge 30, Type (0, 0), BuildingBlock: XIVTED_clean_linker_0, # of connection points: 2
#     Edge 31, Type (0, 0), BuildingBlock: XIVTED_clean_linker_0, # of connection points: 2
# Relax obj value: 0.199
# Max RMSD: 0.282
# Mean RMSD: 0.221
data_MOF--net-ske--node1-KUMJIN_clean_sbu_0--edge1-XIVTED_clean_linker_0
_symmetry_space_group_name_H-M    P1
_symmetry_Int_Tables_number       1
_symmetry_cell_setting            triclinic
loop_
_symmetry_equiv_pos_as_xyz
'x, y, z'
_cell_length_a     98.92127
_cell_length_b     30.644418
_cell_length_c     14.625967
_cell_angle_alpha  100.44123
_cell_angle_beta   89.924646
_cell_angle_gamma 102.67068
loop_
_atom_site_label
_atom_site_type_symbol
_atom_site_fract_x
_atom_site_fract_y
_atom_site_fract_z
_atom_type_partial_charge
Eu0 Eu 0.11132 0.24245 0.58558 0.0
C1 C 0.16402 0.31303 0.40514 0.0
C2 C 0.16152 0.2577 0.26167 0.0
C3 C 0.17372 0.33583 0.26357 0.0
C4 C 0.1588 0.26937 0.3567 0.0
C5 C 0.17195 0.34633 0.35972 0.0
C6 C 0.16855 0.29152 0.21465 0.0
C7 C 0.17778 0.39526 0.50984 0.0
N8 N 0.16253 0.32158 0.49845 0.0
C9 C 0.17003 0.36084 0.55176 0.0
C10 C 0.17851 0.38833 0.41314 0.0
Eu11 Eu 0.14879 0.26201 0.5643 0.0
N12 N 0.15212 0.23736 0.4043 0.0
C13 C 0.14874 0.19257 0.36257 0.0
C14 C 0.1576 0.21206 0.21772 0.0
C15 C 0.15139 0.17926 0.26885 0.0
H16 H 0.1695 0.36621 0.62672 0.0
H17 H 0.14855 0.14374 0.23602 0.0
H18 H 0.17048 0.28337 0.14126 0.0
H19 H 0.18323 0.42698 0.55215 0.0
H20 H 0.14408 0.16682 0.40119 0.0
H21 H 0.08869 0.38649 0.73833 0.0
H22 H 0.15958 0.20169 0.14502 0.0
H23 H 0.11172 0.14853 0.67615 0.0
H24 H 0.09718 0.33544 0.61323 0.0
H25 H 0.10757 0.12124 0.82256 0.0
H26 H 0.1796 0.36116 0.22724 0.0
H27 H 0.08756 0.37039 0.89801 0.0
H28 H 0.08968 0.31704 1.005 0.0
H29 H 0.18467 0.41481 0.38084 0.0
H30 H 0.09422 0.24385 0.02683 0.0
N31 N 0.1026 0.29351 0.70267 0.0
C32 C 0.09738 0.32897 0.68341 0.0
C33 C 0.09168 0.34847 0.84373 0.0
C34 C 0.09555 0.30943 0.8611 0.0
C35 C 0.09232 0.35771 0.75386 0.0
C36 C 0.10089 0.28195 0.78795 0.0
H37 H 0.10042 0.17028 0.95871 0.0
N38 N 0.10815 0.21444 0.72777 0.0
C39 C 0.10657 0.15523 0.81786 0.0
C40 C 0.10346 0.24083 0.80031 0.0
C41 C 0.10925 0.17144 0.73477 0.0
C42 C 0.10245 0.18286 0.89428 0.0
C43 C 0.10072 0.22604 0.88602 0.0
O44 O 0.09473 0.18118 0.54699 0.0
O45 O 0.12833 0.24117 0.48105 0.0
O46 O 0.14316 0.32874 0.55719 0.0
O47 O 0.11987 0.31854 0.59488 0.0
O48 O 0.11209 0.27017 0.45113 0.0
O49 O 0.09072 0.24602 0.53587 0.0
O50 O 0.16823 0.28036 0.64941 0.0
O51 O 0.13147 0.2486 0.66478 0.0
O52 O 0.11683 0.17463 0.52775 0.0
O53 O 0.14003 0.18875 0.57472 0.0
O54 O 0.14815 0.30206 0.71095 0.0
O55 O 0.16274 0.21527 0.55876 0.0
C56 C 0.1236 0.2607 0.42162 0.0
C57 C 0.0724 0.19388 0.58802 0.0
C58 C 0.04819 0.1983 0.61433 0.0
C59 C 0.05999 0.20414 0.55931 0.0
C60 C 0.04895 0.18197 0.69751 0.0
C61 C 0.07265 0.17652 0.67049 0.0
C62 C 0.06105 0.17091 0.72488 0.0
C63 C 0.13181 0.34392 0.57622 0.0
C64 C 0.08525 0.20341 0.53529 0.0
C65 C 0.09613 0.25435 0.96022 0.0
C66 C 0.0936 0.29608 0.94791 0.0
C67 C 0.13655 0.27919 0.7349 0.0
C68 C 0.18664 0.24999 0.57933 0.0
C69 C 0.19801 0.2497 0.63737 0.0
C70 C 0.21158 0.25587 0.60341 0.0
C71 C 0.21352 0.26229 0.51103 0.0
C72 C 0.18897 0.25577 0.48723 0.0
C73 C 0.20229 0.26217 0.45362 0.0
C74 C 0.12815 0.16063 0.54455 0.0
C75 C 0.17236 0.2437 0.6136 0.0
H76 H 0.05959 0.21731 0.49566 0.0
H77 H 0.04003 0.17691 0.74065 0.0
H78 H 0.08181 0.16732 0.69358 0.0
H79 H 0.06145 0.15785 0.78858 0.0
H80 H 0.1963 0.24492 0.70844 0.0
H81 H 0.22371 0.26634 0.48219 0.0
H82 H 0.18048 0.25473 0.44061 0.0
H83 H 0.20389 0.26654 0.3823 0.0
Eu84 Eu 0.85802 0.2542 0.56477 0.0
C85 C 0.90592 0.28855 0.80451 0.0
C86 C 0.91819 0.36764 0.84718 0.0
C87 C 0.9154 0.31895 0.96273 0.0
C88 C 0.91056 0.33115 0.78101 0.0
C89 C 0.9088 0.28183 0.89495 0.0
C90 C 0.92006 0.36179 0.93893 0.0
C91 C 0.8998 0.20136 0.84278 0.0
N92 N 0.89947 0.25308 0.73773 0.0
C93 C 0.89698 0.20961 0.75463 0.0
C94 C 0.90545 0.2377 0.91385 0.0
Eu95 Eu 0.89534 0.27151 0.59072 0.0
N96 N 0.90887 0.33578 0.69137 0.0
C97 C 0.91619 0.37346 0.66073 0.0
C98 C 0.92439 0.40818 0.818 0.0
C99 C 0.92369 0.41065 0.72387 0.0
H100 H 0.89287 0.18074 0.70122 0.0
H101 H 0.92897 0.4411 0.69984 0.0
H102 H 0.92567 0.38966 0.99096 0.0
H103 H 0.89756 0.1669 0.85589 0.0
H104 H 0.91576 0.37526 0.5876 0.0
H105 H 0.8537 0.13051 0.23996 0.0
H106 H 0.93033 0.4369 0.86673 0.0
H107 H 0.84215 0.34178 0.61551 0.0
H108 H 0.85947 0.16088 0.4058 0.0
H109 H 0.83018 0.38707 0.53309 0.0
H110 H 0.91741 0.3145 0.03288 0.0
H111 H 0.84416 0.1758 0.14313 0.0
H112 H 0.83585 0.24638 0.13258 0.0
H113 H 0.90754 0.23118 0.98224 0.0
H114 H 0.82974 0.31688 0.21211 0.0
N115 N 0.8535 0.22334 0.40425 0.0
C116 C 0.85539 0.18125 0.36504 0.0
C117 C 0.84667 0.18938 0.21629 0.0
C118 C 0.84434 0.23185 0.25736 0.0
C119 C 0.85204 0.16371 0.27072 0.0
C120 C 0.84773 0.24792 0.35309 0.0
H121 H 0.82732 0.36902 0.36148 0.0
N122 N 0.84665 0.30014 0.49127 0.0
C123 C 0.83421 0.3595 0.49408 0.0
C124 C 0.84431 0.28768 0.39782 0.0
C125 C 0.84097 0.33378 0.54041 0.0
C126 C 0.83267 0.34929 0.39722 0.0
C127 C 0.83741 0.31232 0.34803 0.0
O128 O 0.83966 0.25845 0.64783 0.0
O129 O 0.87551 0.25587 0.66728 0.0
O130 O 0.88636 0.19597 0.55778 0.0
O131 O 0.86257 0.18629 0.57763 0.0
O132 O 0.86139 0.29563 0.7114 0.0
O133 O 0.84049 0.19579 0.5566 0.0
O134 O 0.90555 0.2329 0.48182 0.0
O135 O 0.87762 0.25489 0.48394 0.0
O136 O 0.86688 0.32783 0.55973 0.0
O137 O 0.89002 0.34161 0.61032 0.0
O138 O 0.89495 0.30527 0.46528 0.0
O139 O 0.91791 0.27707 0.5957 0.0
C140 C 0.87208 0.28239 0.73673 0.0
C141 C 0.81869 0.21668 0.56798 0.0
C142 C 0.7945 0.2242 0.58631 0.0
C143 C 0.80756 0.22358 0.62559 0.0
C144 C 0.79308 0.21914 0.48878 0.0
C145 C 0.81657 0.20963 0.47105 0.0
C146 C 0.80395 0.21146 0.43205 0.0
C147 C 0.8739 0.17049 0.56306 0.0
C148 C 0.83264 0.21849 0.60811 0.0
C149 C 0.83486 0.29803 0.25166 0.0
C150 C 0.8383 0.25784 0.20642 0.0
C151 C 0.88295 0.28214 0.42978 0.0
C152 C 0.92567 0.21109 0.52865 0.0
C153 C 0.94027 0.22115 0.52508 0.0
C154 C 0.94775 0.18697 0.52708 0.0
C155 C 0.94042 0.14293 0.53399 0.0
C156 C 0.91867 0.16691 0.53679 0.0
C157 C 0.92602 0.13315 0.53933 0.0
C158 C 0.87895 0.35541 0.58704 0.0
C159 C 0.91783 0.24644 0.52193 0.0
H160 H 0.80909 0.22793 0.70027 0.0
H161 H 0.78356 0.2214 0.45549 0.0
H162 H 0.8247 0.20296 0.42495 0.0
H163 H 0.80259 0.20704 0.35725 0.0
H164 H 0.94576 0.25519 0.51907 0.0
H165 H 0.94587 0.11612 0.53678 0.0
H166 H 0.90751 0.15827 0.5406 0.0
H167 H 0.92051 0.09918 0.54534 0.0
Eu168 Eu 0.14996 0.76502 0.48762 0.0
C169 C 0.0969 0.63965 0.28068 0.0
C170 C 0.09532 0.66788 0.13729 0.0
C171 C 0.08631 0.58781 0.14033 0.0
C172 C 0.09978 0.67527 0.23166 0.0
C173 C 0.08969 0.59596 0.23604 0.0
C174 C 0.08911 0.62372 0.09108 0.0
C175 C 0.08771 0.57327 0.38618 0.0
N176 N 0.09996 0.64865 0.37372 0.0
C177 C 0.09481 0.61708 0.42751 0.0
C178 C 0.08542 0.56234 0.28978 0.0
Eu179 Eu 0.1127 0.72309 0.43531 0.0
N180 N 0.10563 0.71788 0.27832 0.0
C181 C 0.10561 0.75486 0.23829 0.0
C182 C 0.09651 0.70545 0.0935 0.0
C183 C 0.10133 0.74919 0.14496 0.0
H184 H 0.09647 0.62511 0.50209 0.0
H185 H 0.10181 0.77859 0.11271 0.0
H186 H 0.08586 0.61735 1.01824 0.0
H187 H 0.08403 0.54796 0.42871 0.0
H188 H 0.1092 0.78893 0.27673 0.0
H189 H 0.16187 0.71098 0.80857 0.0
H190 H 0.09319 0.7012 1.02122 0.0
H191 H 0.16166 0.86731 0.42911 0.0
H192 H 0.1544 0.70101 0.64404 0.0
H193 H 0.17197 0.94644 0.50539 0.0
H194 H 0.08097 0.55431 0.10467 0.0
H195 H 0.16916 0.78836 0.90315 0.0
H196 H 0.17458 0.87298 0.91002 0.0
H197 H 0.07984 0.52842 0.25804 0.0
H198 H 0.17743 0.93729 0.82704 0.0
N199 N 0.15701 0.77184 0.64547 0.0
C200 C 0.15759 0.73493 0.68419 0.0
C201 C 0.16586 0.78417 0.83086 0.0
C202 C 0.16613 0.82196 0.7891 0.0
C203 C 0.16182 0.74046 0.77761 0.0
C204 C 0.16171 0.81458 0.69477 0.0
H205 H 0.17684 0.96488 0.67558 0.0
N206 N 0.16036 0.84151 0.55521 0.0
C207 C 0.16959 0.91985 0.54638 0.0
C208 C 0.16349 0.85064 0.648 0.0
C209 C 0.16379 0.87499 0.50337 0.0
C210 C 0.17227 0.93016 0.64253 0.0
C211 C 0.16947 0.89524 0.69437 0.0
O212 O 0.16871 0.77924 0.40833 0.0
O213 O 0.1336 0.73649 0.3708 0.0
O214 O 0.12178 0.66051 0.41124 0.0
O215 O 0.14371 0.68856 0.48537 0.0
O216 O 0.14961 0.78863 0.34863 0.0
O217 O 0.16576 0.72476 0.48617 0.0
O218 O 0.10225 0.76062 0.54474 0.0
O219 O 0.12912 0.74774 0.55038 0.0
O220 O 0.13859 0.82141 0.53241 0.0
O221 O 0.12017 0.79765 0.42437 0.0
O222 O 0.11318 0.69401 0.56793 0.0
O223 O 0.09081 0.7247 0.41868 0.0
C224 C 0.13852 0.76077 0.31121 0.0
C225 C 0.18882 0.76498 0.47313 0.0
C226 C 0.2137 0.76841 0.45614 0.0
C227 C 0.19982 0.75236 0.42091 0.0
C228 C 0.21628 0.79753 0.5436 0.0
C229 C 0.19181 0.79363 0.56016 0.0
C230 C 0.20541 0.8098 0.59507 0.0
C231 C 0.13346 0.65465 0.44615 0.0
C232 C 0.17428 0.74905 0.4369 0.0
C233 C 0.17297 0.9032 0.78992 0.0
C234 C 0.17132 0.86659 0.8372 0.0
C235 C 0.1244 0.72119 0.60658 0.0
C236 C 0.07824 0.72961 0.55579 0.0
C237 C 0.06513 0.73741 0.53681 0.0
C238 C 0.05355 0.72059 0.58688 0.0
C239 C 0.05533 0.69568 0.65612 0.0
C240 C 0.07974 0.70459 0.62513 0.0
C241 C 0.06833 0.68778 0.67488 0.0
C242 C 0.12843 0.82978 0.48457 0.0
C243 C 0.09014 0.74743 0.50188 0.0
H244 H 0.19755 0.72997 0.35379 0.0
H245 H 0.22675 0.81165 0.57193 0.0
H246 H 0.18366 0.80379 0.60116 0.0
H247 H 0.20754 0.83225 0.66213 0.0
H248 H 0.06402 0.75709 0.48382 0.0
H249 H 0.04663 0.68172 0.69501 0.0
H250 H 0.0897 0.69801 0.64105 0.0
H251 H 0.06956 0.66842 0.72809 0.0
Eu252 Eu 0.86205 0.73735 0.49851 0.0
C253 C 0.90787 0.81412 0.29762 0.0
C254 C 0.91181 0.74921 0.18726 0.0
C255 C 0.91478 0.82254 0.14036 0.0
C256 C 0.9081 0.76832 0.27669 0.0
C257 C 0.9115 0.84181 0.22975 0.0
C258 C 0.91495 0.77638 0.1192 0.0
C259 C 0.90975 0.90684 0.34529 0.0
N260 N 0.90461 0.83204 0.3847 0.0
C261 C 0.90648 0.8784 0.41045 0.0
C262 C 0.91201 0.88838 0.25404 0.0
Eu263 Eu 0.89916 0.78037 0.49116 0.0
N264 N 0.90471 0.74237 0.34313 0.0
C265 C 0.90603 0.6981 0.3262 0.0
C266 C 0.91229 0.70327 0.16858 0.0
C267 C 0.90955 0.67778 0.23876 0.0
H268 H 0.90601 0.89452 0.48193 0.0
H269 H 0.91037 0.64256 0.22608 0.0
H270 H 0.91764 0.76206 0.05011 0.0
H271 H 0.91086 0.94323 0.36624 0.0
H272 H 0.90489 0.67812 0.37993 0.0
H273 H 0.8521 0.8644 0.79165 0.0
H274 H 0.91506 0.68742 0.10088 0.0
H275 H 0.85086 0.62261 0.47424 0.0
H276 H 0.85719 0.83559 0.63168 0.0
H277 H 0.84442 0.56498 0.57293 0.0
H278 H 0.91742 0.84324 0.08742 0.0
H279 H 0.84705 0.81232 0.90417 0.0
H280 H 0.84362 0.73316 0.93585 0.0
H281 H 0.91471 0.91062 0.20389 0.0
H282 H 0.84205 0.65175 0.87711 0.0
N283 N 0.85649 0.76804 0.65237 0.0
C284 C 0.85571 0.81249 0.67964 0.0
C285 C 0.84956 0.79947 0.83371 0.0
C286 C 0.84952 0.75344 0.80432 0.0
C287 C 0.85248 0.82897 0.7706 0.0
C288 C 0.85289 0.73841 0.7117 0.0
H289 H 0.84233 0.58873 0.74213 0.0
N290 N 0.85427 0.67905 0.58755 0.0
C291 C 0.84675 0.60077 0.60407 0.0
C292 C 0.85204 0.69265 0.67875 0.0
C293 C 0.85068 0.63371 0.54861 0.0
C294 C 0.84557 0.6143 0.6994 0.0
C295 C 0.84774 0.66066 0.73739 0.0
O296 O 0.84246 0.6962 0.43161 0.0
O297 O 0.87896 0.76509 0.40597 0.0
O298 O 0.88986 0.84105 0.53827 0.0
O299 O 0.86688 0.81213 0.48603 0.0
O300 O 0.86453 0.70594 0.3487 0.0
O301 O 0.84488 0.76863 0.47231 0.0
O302 O 0.91832 0.82748 0.5493 0.0
O303 O 0.88226 0.75316 0.58356 0.0
O304 O 0.87185 0.677 0.46099 0.0
O305 O 0.89461 0.70716 0.5166 0.0
O306 O 0.89738 0.80945 0.64377 0.0
O307 O 0.91794 0.7558 0.51344 0.0
C308 C 0.8751 0.73603 0.33127 0.0
C309 C 0.82237 0.72308 0.4767 0.0
C310 C 0.79758 0.7208 0.45992 0.0
C311 C 0.81102 0.72786 0.42445 0.0
C312 C 0.79578 0.70944 0.54887 0.0
C313 C 0.82023 0.71136 0.56468 0.0
C314 C 0.80703 0.70474 0.60059 0.0
C315 C 0.87747 0.8462 0.51718 0.0
C316 C 0.83636 0.73016 0.43903 0.0
C317 C 0.84516 0.67576 0.83086 0.0
C318 C 0.846 0.72207 0.86419 0.0
C319 C 0.88639 0.78067 0.65983 0.0
C320 C 0.93881 0.80703 0.48953 0.0
C321 C 0.95004 0.78801 0.50779 0.0
C322 C 0.96251 0.7977 0.46059 0.0
C323 C 0.96351 0.82649 0.3949 0.0
C324 C 0.94023 0.83613 0.42439 0.0
C325 C 0.95244 0.84548 0.37713 0.0
C326 C 0.88405 0.67229 0.48813 0.0
C327 C 0.92568 0.79659 0.53825 0.0
H328 H 0.81264 0.7363 0.35585 0.0
H329 H 0.78568 0.70463 0.57908 0.0
H330 H 0.82872 0.70719 0.60561 0.0
H331 H 0.80552 0.69593 0.66886 0.0
H332 H 0.94904 0.76563 0.5581 0.0
H333 H 0.97299 0.83527 0.35862 0.0
H334 H 0.93199 0.85217 0.41036 0.0
H335 H 0.95339 0.86798 0.32718 0.0
Eu336 Eu 0.61723 0.73826 0.03963 0.0
C337 C 0.67366 0.83028 0.91088 0.0
C338 C 0.67505 0.79075 0.7531 0.0
C339 C 0.68677 0.87035 0.79858 0.0
C340 C 0.67002 0.79124 0.8435 0.0
C341 C 0.68222 0.8701 0.88954 0.0
C342 C 0.68319 0.83074 0.73052 0.0
C343 C 0.68185 0.90568 0.05095 0.0
N344 N 0.66916 0.82893 0.99823 0.0
C345 C 0.67342 0.86536 0.06885 0.0
C346 C 0.68618 0.90821 0.96072 0.0
Eu347 Eu 0.65482 0.75966 1.02243 0.0
N348 N 0.66222 0.75301 0.86766 0.0
C349 C 0.65998 0.71238 0.80698 0.0
C350 C 0.67209 0.74974 0.68889 0.0
C351 C 0.66469 0.71027 0.7164 0.0
H352 H 0.67005 0.86358 0.13861 0.0
H353 H 0.66258 0.6782 0.66785 0.0
H354 H 0.68704 0.83112 0.66119 0.0
H355 H 0.685 0.93476 0.10668 0.0
H356 H 0.6543 0.68161 0.82734 0.0
H357 H 0.61055 0.81775 0.3983 0.0
H358 H 0.67573 0.74798 0.61871 0.0
H359 H 0.59788 0.64083 0.91518 0.0
H360 H 0.6183 0.81604 0.23803 0.0
H361 H 0.5817 0.57162 0.94479 0.0
H362 H 0.69327 0.90071 0.78065 0.0
H363 H 0.59737 0.74745 0.4451 0.0
H364 H 0.58533 0.66531 0.39919 0.0
H365 H 0.69274 0.93946 0.94709 0.0
H366 H 0.57745 0.59833 0.27573 0.0
N367 N 0.61018 0.74481 0.19491 0.0
C368 C 0.61262 0.78497 0.25719 0.0
C369 C 0.60079 0.74637 0.37448 0.0
C370 C 0.59736 0.70612 0.30823 0.0
C371 C 0.6082 0.78616 0.34829 0.0
C372 C 0.60211 0.70646 0.21723 0.0
H373 H 0.57574 0.56355 0.10607 0.0
N374 N 0.60146 0.67082 0.05864 0.0
C375 C 0.5862 0.5984 1.00236 0.0
C376 C 0.59763 0.66849 0.14728 0.0
C377 C 0.59538 0.63764 0.98584 0.0
C378 C 0.5829 0.59394 0.09356 0.0
C379 C 0.58837 0.62957 0.16718 0.0
O380 O 0.60753 0.76813 0.939 0.0
O381 O 0.63469 0.75156 0.94322 0.0
O382 O 0.64721 0.82044 0.99712 0.0
O383 O 0.6278 0.8131 0.08621 0.0
O384 O 0.61742 0.70254 0.88839 0.0
O385 O 0.59718 0.75717 0.06444 0.0
O386 O 0.67353 0.77059 0.11145 0.0
O387 O 0.6373 0.74346 0.11847 0.0
O388 O 0.62272 0.67033 0.0355 0.0
O389 O 0.64539 0.68385 0.98408 0.0
O390 O 0.65446 0.79121 0.17625 0.0
O391 O 0.66756 0.70913 1.00749 0.0
C392 C 0.62947 0.72464 0.86871 0.0
C393 C 0.58296 0.74603 0.92892 0.0
C394 C 0.55779 0.73693 0.90818 0.0
C395 C 0.57048 0.75834 0.95786 0.0
C396 C 0.5579 0.70299 0.82924 0.0
C397 C 0.58269 0.71224 0.84956 0.0
C398 C 0.57024 0.69099 0.80024 0.0
C399 C 0.63725 0.83727 0.04023 0.0
C400 C 0.5961 0.76759 0.98307 0.0
C401 C 0.5844 0.62818 0.259 0.0
C402 C 0.58889 0.66635 0.32934 0.0
C403 C 0.6425 0.76859 0.19459 0.0
C404 C 0.69166 0.73941 0.03945 0.0
C405 C 0.7024 0.7413 0.10423 0.0
C406 C 0.7163 0.7471 0.07702 0.0
C407 C 0.71924 0.75113 0.98441 0.0
C408 C 0.69493 0.74277 0.94719 0.0
C409 C 0.70862 0.7489 0.92017 0.0
C410 C 0.63389 0.65644 1.00388 0.0
C411 C 0.67713 0.73395 0.06833 0.0
H412 H 0.57071 0.78465 1.01869 0.0
H413 H 0.54838 0.68489 0.79058 0.0
H414 H 0.59207 0.70195 0.82573 0.0
H415 H 0.57013 0.66472 0.73962 0.0
H416 H 0.69996 0.73851 0.17551 0.0
H417 H 0.72975 0.75491 0.96088 0.0
H418 H 0.68695 0.74022 0.89538 0.0
H419 H 0.71099 0.75145 0.84879 0.0
Eu420 Eu 0.36317 0.74195 0.08902 0.0
C421 C 0.40955 0.76566 0.3439 0.0
C422 C 0.42026 0.84343 0.41455 0.0
C423 C 0.41812 0.78378 0.50575 0.0
C424 C 0.41365 0.81106 0.33721 0.0
C425 C 0.41202 0.75149 0.42804 0.0
C426 C 0.42217 0.8297 0.49915 0.0
C427 C 0.40275 0.67409 0.35235 0.0
N428 N 0.4034 0.73515 0.26805 0.0
C429 C 0.40044 0.68961 0.2709 0.0
C430 C 0.40841 0.70518 0.43168 0.0
Eu431 Eu 0.4009 0.76434 0.12936 0.0
N432 N 0.41189 0.8233 0.2541 0.0
C433 C 0.41794 0.8665 0.24176 0.0
C434 C 0.42524 0.88847 0.40385 0.0
C435 C 0.4243 0.89984 0.31653 0.0
H436 H 0.39676 0.66444 0.21054 0.0
H437 H 0.42873 0.93409 0.30622 0.0
H438 H 0.4271 0.85417 0.55922 0.0
H439 H 0.40025 0.638 0.35354 0.0
H440 H 0.41815 0.87548 0.17362 0.0
H441 H 0.33528 0.56925 0.92887 0.0
H442 H 0.43035 0.91423 0.46149 0.0
H443 H 0.36584 0.83874 0.99875 0.0
H444 H 0.34595 0.63079 0.05651 0.0
H445 H 0.36161 0.86147 0.85273 0.0
H446 H 0.4199 0.77351 0.57101 0.0
H447 H 0.33337 0.58481 0.77006 0.0
H448 H 0.33621 0.64179 0.66514 0.0
H449 H 0.41014 0.69305 0.49485 0.0
H450 H 0.34284 0.7215 0.64545 0.0
N451 N 0.35181 0.68049 0.96975 0.0
C452 C 0.34589 0.638 0.98685 0.0
C453 C 0.33847 0.61189 0.82553 0.0
C454 C 0.34326 0.65623 0.80999 0.0
C455 C 0.33955 0.60295 0.9149 0.0
C456 C 0.34986 0.69036 0.88463 0.0
H457 H 0.35199 0.80333 0.71506 0.0
N458 N 0.35969 0.76733 0.9471 0.0
C459 C 0.35947 0.82573 0.85704 0.0
C460 C 0.35364 0.73515 0.87348 0.0
C461 C 0.36214 0.81237 0.94037 0.0
C462 C 0.35399 0.7929 0.77975 0.0
C463 C 0.35084 0.74705 0.78748 0.0
O464 O 0.3499 0.78853 0.14235 0.0
O465 O 0.38043 0.76252 0.20128 0.0
O466 O 0.39246 0.68892 0.07069 0.0
O467 O 0.36872 0.67486 0.09386 0.0
O468 O 0.36285 0.71431 0.22264 0.0
O469 O 0.3417 0.71638 0.12516 0.0
O470 O 0.41447 0.71877 0.07607 0.0
O471 O 0.38365 0.74481 1.01756 0.0
O472 O 0.37173 0.81774 0.13719 0.0
O473 O 0.39572 0.83247 0.12446 0.0
O474 O 0.40127 0.79274 0.99621 0.0
O475 O 0.42268 0.79098 0.10028 0.0
C476 C 0.37462 0.73836 0.25925 0.0
C477 C 0.32587 0.76181 0.1037 0.0
C478 C 0.3009 0.75884 0.11181 0.0
C479 C 0.31334 0.7526 0.14989 0.0
C480 C 0.30133 0.77427 0.02654 0.0
C481 C 0.32587 0.77674 1.01859 0.0
C482 C 0.31369 0.78282 0.98033 0.0
C483 C 0.38025 0.66112 0.07385 0.0
C484 C 0.33891 0.75645 0.14521 0.0
C485 C 0.34484 0.713 0.71216 0.0
C486 C 0.34112 0.66763 0.72327 0.0
C487 C 0.38939 0.76927 0.95995 0.0
C488 C 0.43814 0.74482 0.1264 0.0
C489 C 0.45141 0.75647 0.08997 0.0
C490 C 0.46326 0.75026 0.13599 0.0
C491 C 0.46154 0.73224 0.21827 0.0
C492 C 0.43689 0.72657 0.20812 0.0
C493 C 0.44847 0.72059 0.25384 0.0
C494 C 0.38393 0.84587 0.13577 0.0
C495 C 0.42559 0.75109 0.07935 0.0
H496 H 0.31332 0.74053 0.21509 0.0
H497 H 0.29217 0.78077 0.99604 0.0
H498 H 0.33527 0.78426 0.98191 0.0
H499 H 0.31386 0.79479 0.915 0.0
H500 H 0.45251 0.77035 0.02661 0.0
H501 H 0.47028 0.72599 0.25429 0.0
H502 H 0.42695 0.71622 0.23641 0.0
H503 H 0.44728 0.70629 0.31663 0.0
Eu504 Eu 0.6482 0.24582 0.96089 0.0
C505 C 0.5933 0.14221 0.77647 0.0
C506 C 0.59353 0.17226 0.63402 0.0
C507 C 0.58206 0.09363 0.63457 0.0
C508 C 0.59755 0.17774 0.72874 0.0
C509 C 0.58506 0.10035 0.73058 0.0
C510 C 0.58628 0.12955 0.58637 0.0
C511 C 0.58142 0.07766 0.88019 0.0
N512 N 0.59607 0.15004 0.86964 0.0
C513 C 0.58948 0.11989 0.92263 0.0
C514 C 0.57945 0.06742 0.78347 0.0
Eu515 Eu 0.61067 0.22119 0.93434 0.0
N516 N 0.60438 0.21886 0.77698 0.0
C517 C 0.60608 0.25678 0.73761 0.0
C518 C 0.59624 0.21044 0.59135 0.0
C519 C 0.60217 0.25307 0.64412 0.0
H520 H 0.59091 0.12785 0.99748 0.0
H521 H 0.6039 0.28306 0.61257 0.0
H522 H 0.58333 0.12454 0.51324 0.0
H523 H 0.57667 0.05316 0.9221 0.0
H524 H 0.61074 0.28995 0.77687 0.0
H525 H 0.67659 0.12128 0.03923 0.0
H526 H 0.59329 0.20768 0.51884 0.0
H527 H 0.64353 0.34182 0.10218 0.0
H528 H 0.6647 0.1592 0.93962 0.0
H529 H 0.64875 0.38129 0.26315 0.0
H530 H 0.57593 0.06147 0.59786 0.0
H531 H 0.67963 0.15073 0.20858 0.0
H532 H 0.67716 0.21103 0.34404 0.0
H533 H 0.57307 0.03486 0.75081 0.0
H534 H 0.67015 0.28269 0.40391 0.0
N535 N 0.65986 0.20725 0.05229 0.0
C536 C 0.66561 0.17164 1.0139 0.0
C537 C 0.67417 0.16704 0.16533 0.0
C538 C 0.66939 0.2059 0.20311 0.0
C539 C 0.67248 0.15029 0.06991 0.0
C540 C 0.66232 0.22585 0.14381 0.0
H541 H 0.66005 0.34701 0.37368 0.0
N542 N 0.65187 0.28498 0.1181 0.0
C543 C 0.6515 0.34889 0.24007 0.0
C544 C 0.65843 0.26625 0.17734 0.0
C545 C 0.64855 0.32612 0.14806 0.0
C546 C 0.65789 0.32947 0.3022 0.0
C547 C 0.66143 0.28769 0.27132 0.0
O548 O 0.66437 0.30578 0.95011 0.0
O549 O 0.63041 0.23893 0.85754 0.0
O550 O 0.61662 0.15278 0.91239 0.0
O551 O 0.64029 0.17037 0.95441 0.0
O552 O 0.64565 0.20397 0.81443 0.0
O553 O 0.6676 0.23936 0.89196 0.0
O554 O 0.60065 0.25554 0.05105 0.0
O555 O 0.62862 0.24222 0.04071 0.0
O556 O 0.64268 0.31129 0.9392 0.0
O557 O 0.61853 0.29602 0.93427 0.0
O558 O 0.6121 0.1901 0.06231 0.0
O559 O 0.58958 0.23156 0.91947 0.0
C560 C 0.63439 0.21368 0.78831 0.0
C561 C 0.68743 0.29493 0.95777 0.0
C562 C 0.71225 0.29402 0.94864 0.0
C563 C 0.69855 0.28091 0.90907 0.0
C564 C 0.71444 0.32147 0.03814 0.0
C565 C 0.69 0.32121 0.04772 0.0
C566 C 0.70342 0.33439 0.08723 0.0
C567 C 0.62834 0.14133 0.93003 0.0
C568 C 0.67325 0.28249 0.91405 0.0
C569 C 0.66794 0.267 0.33136 0.0
C570 C 0.67188 0.22613 0.29737 0.0
C571 C 0.624 0.21466 0.09569 0.0
C572 C 0.57621 0.23006 0.053 0.0
C573 C 0.5636 0.24187 0.03547 0.0
C574 C 0.55141 0.22393 0.07911 0.0
C575 C 0.55211 0.19374 0.14002 0.0
C576 C 0.57658 0.19989 0.11414 0.0
C577 C 0.56459 0.18189 0.15721 0.0
C578 C 0.63078 0.32395 0.93576 0.0
C579 C 0.58884 0.24902 1.0064 0.0
H580 H 0.69642 0.2596 0.8408 0.0
H581 H 0.72473 0.33383 0.07046 0.0
H582 H 0.68168 0.33203 0.0874 0.0
H583 H 0.70531 0.35522 0.15609 0.0
H584 H 0.56335 0.26544 0.98881 0.0
H585 H 0.54294 0.17867 0.17352 0.0
H586 H 0.58613 0.19016 0.12862 0.0
H587 H 0.56495 0.15851 0.20399 0.0
Eu588 Eu 0.35937 0.22745 0.99907 0.0
C589 C 0.40459 0.26508 0.77196 0.0
C590 C 0.41106 0.19657 0.69293 0.0
C591 C 0.41097 0.25812 0.60967 0.0
C592 C 0.40651 0.22189 0.77315 0.0
C593 C 0.40717 0.2841 0.69067 0.0
C594 C 0.41286 0.21435 0.6107 0.0
C595 C 0.40283 0.35416 0.77635 0.0
N596 N 0.40062 0.28914 0.85079 0.0
C597 C 0.4005 0.334 0.85497 0.0
C598 C 0.40596 0.32887 0.69325 0.0
Eu599 Eu 0.39687 0.25296 0.9831 0.0
N600 N 0.40485 0.20582 0.85409 0.0
C601 C 0.40961 0.16777 0.86199 0.0
C602 C 0.41425 0.15495 0.69866 0.0
C603 C 0.41386 0.14106 0.78427 0.0
H604 H 0.39938 0.35556 0.91952 0.0
H605 H 0.41713 0.11029 0.79102 0.0
H606 H 0.41614 0.19508 0.54833 0.0
H607 H 0.40252 0.38955 0.78059 0.0
H608 H 0.41036 0.1579 0.9286 0.0
H609 H 0.35792 0.34392 0.32751 0.0
H610 H 0.41774 0.13453 0.63871 0.0
H611 H 0.33968 0.12224 0.93304 0.0
H612 H 0.36291 0.32204 0.16274 0.0
H613 H 0.32583 0.06057 1.00482 0.0
H614 H 0.41271 0.27189 0.54636 0.0
H615 H 0.34717 0.28481 0.41665 0.0
H616 H 0.33675 0.20254 0.41819 0.0
H617 H 0.40782 0.3446 0.63241 0.0
H618 H 0.32827 0.12477 0.33034 0.0
N619 N 0.35547 0.25115 0.1584 0.0
C620 C 0.35839 0.29586 0.20071 0.0
C621 C 0.34939 0.27499 0.34421 0.0
C622 C 0.34589 0.2294 0.29945 0.0
C623 C 0.35545 0.30845 0.29412 0.0
C624 C 0.34893 0.21845 0.20485 0.0
H625 H 0.32382 0.07177 0.17568 0.0
N626 N 0.34595 0.16668 0.06247 0.0
C627 C 0.33103 0.09234 0.04814 0.0
C628 C 0.34414 0.1747 0.15546 0.0
C629 C 0.33882 0.12727 1.00778 0.0
C630 C 0.32998 0.09872 0.14462 0.0
C631 C 0.33623 0.14074 0.19933 0.0
O632 O 0.34017 0.20718 0.91121 0.0
O633 O 0.3768 0.24363 0.90084 0.0
O634 O 0.38993 0.31806 0.04348 0.0
O635 O 0.36725 0.30094 0.98449 0.0
O636 O 0.36094 0.18737 0.85396 0.0
O637 O 0.34471 0.27178 1.0041 0.0
O638 O 0.41296 0.31352 0.03815 0.0
O639 O 0.37954 0.25162 0.08516 0.0
O640 O 0.36598 0.16208 1.01013 0.0
O641 O 0.38958 0.17685 0.98017 0.0
O642 O 0.39627 0.22544 0.11772 0.0
O643 O 0.41777 0.24752 1.02138 0.0
C644 C 0.37223 0.21244 0.83077 0.0
C645 C 0.32106 0.23444 0.97891 0.0
C646 C 0.29609 0.22688 0.95164 0.0
C647 C 0.30979 0.23459 0.9198 0.0
C648 C 0.29393 0.21903 0.04296 0.0
C649 C 0.31849 0.22725 0.06992 0.0
C650 C 0.30506 0.21927 0.1014 0.0
C651 C 0.37861 0.3304 1.01999 0.0
C652 C 0.33549 0.24275 0.94719 0.0
C653 C 0.33414 0.15062 0.29516 0.0
C654 C 0.33894 0.19492 0.34513 0.0
C655 C 0.38451 0.23332 0.14579 0.0
C656 C 0.43586 0.30789 0.99447 0.0
C657 C 0.44783 0.29198 1.01097 0.0
C658 C 0.4603 0.30683 0.96714 0.0
C659 C 0.46059 0.33801 0.90699 0.0
C660 C 0.43654 0.33912 0.93423 0.0
C661 C 0.4488 0.35391 0.89082 0.0
C662 C 0.37789 0.14944 0.99692 0.0
C663 C 0.42273 0.29119 0.03909 0.0
H664 H 0.31168 0.24055 0.84962 0.0
H665 H 0.28364 0.21382 0.0703 0.0
H666 H 0.32689 0.22849 0.11747 0.0
H667 H 0.30327 0.21384 0.17194 0.0
H668 H 0.44734 0.26763 0.05683 0.0
H669 H 0.47002 0.35082 0.87344 0.0
H670 H 0.42762 0.35234 0.92065 0.0
H671 H 0.4492 0.37805 0.8447 0.0
H672 H 0.2375 0.31208 0.61846 0.0
H673 H 0.27035 0.16942 0.932 0.0
H674 H 0.21371 0.19577 0.71881 0.0
H675 H 0.29396 0.28809 0.83865 0.0
H676 H 0.24969 0.17756 0.85154 0.0
H677 H 0.25822 0.30391 0.69841 0.0
C678 C 0.23662 0.28487 0.65769 0.0
C679 C 0.22382 0.25437 0.66133 0.0
C680 C 0.25938 0.20177 0.84826 0.0
C681 C 0.24762 0.24474 0.75325 0.0
C682 C 0.27121 0.19715 0.89421 0.0
C683 C 0.28394 0.22835 0.89282 0.0
C684 C 0.26018 0.2379 0.80015 0.0
C685 C 0.28443 0.26308 0.84125 0.0
C686 C 0.24847 0.28024 0.70336 0.0
C687 C 0.2233 0.22025 0.71451 0.0
N688 N 0.27271 0.26707 0.79752 0.0
N689 N 0.23503 0.21619 0.75782 0.0
H690 H 0.73651 0.27964 1.02072 0.0
H691 H 0.7667 0.18811 0.5419 0.0
H692 H 0.71585 0.27604 0.75815 0.0
H693 H 0.79406 0.27353 0.7655 0.0
H694 H 0.74688 0.20429 0.62945 0.0
H695 H 0.75658 0.26241 0.93669 0.0
C696 C 0.73611 0.27564 0.9457 0.0
C697 C 0.7243 0.28019 0.89732 0.0
C698 C 0.75723 0.21942 0.65916 0.0
C699 C 0.74728 0.25822 0.80057 0.0
C700 C 0.76865 0.21055 0.609 0.0
C701 C 0.78229 0.23037 0.64465 0.0
C702 C 0.7593 0.24723 0.74736 0.0
C703 C 0.78386 0.25732 0.73452 0.0
C704 C 0.74761 0.26542 0.8979 0.0
C705 C 0.72447 0.2725 0.79941 0.0
N706 N 0.77252 0.2649 0.78277 0.0
N707 N 0.73571 0.26171 0.75452 0.0
H708 H 0.27427 0.7258 0.03617 0.0
H709 H 0.23746 0.75055 0.523 0.0
H710 H 0.29687 0.77418 0.30082 0.0
H711 H 0.21742 0.75914 0.26683 0.0
H712 H 0.25833 0.74221 0.43891 0.0
H713 H 0.25255 0.7217 0.11711 0.0
C714 C 0.27473 0.7356 0.11122 0.0
C715 C 0.28757 0.75115 0.16127 0.0
C716 C 0.24933 0.74565 0.40106 0.0
C717 C 0.26256 0.74514 0.25447 0.0
C718 C 0.2374 0.75059 0.44898 0.0
C719 C 0.22568 0.75658 0.40252 0.0
C720 C 0.24958 0.74596 0.30538 0.0
C721 C 0.22615 0.75467 0.30582 0.0
C722 C 0.26228 0.73295 0.15728 0.0
C723 C 0.28734 0.76175 0.25884 0.0
N724 N 0.23793 0.74982 0.26057 0.0
N725 N 0.27506 0.7587 0.30207 0.0
H726 H 0.74209 0.80406 0.10046 0.0
H727 H 0.77123 0.66709 0.44367 0.0
H728 H 0.71683 0.69063 0.20243 0.0
H729 H 0.79603 0.7843 0.35132 0.0
H730 H 0.75113 0.6761 0.35845 0.0
H731 H 0.76175 0.79877 0.19548 0.0
C732 C 0.74067 0.77813 0.14323 0.0
C733 C 0.7278 0.7475 0.14288 0.0
C734 C 0.76096 0.69992 0.35688 0.0
C735 C 0.75034 0.74119 0.25202 0.0
C736 C 0.77245 0.69491 0.40587 0.0
C737 C 0.78539 0.7251 0.40516 0.0
C738 C 0.76233 0.73535 0.30629 0.0
C739 C 0.78634 0.75991 0.35321 0.0
C740 C 0.7519 0.77517 0.1976 0.0
C741 C 0.72652 0.7151 0.20088 0.0
N742 N 0.77498 0.76408 0.30602 0.0
N743 N 0.73767 0.71257 0.2525 0.0
H744 H 0.11281 0.86624 0.37546 0.0
H745 H 0.14655 0.12075 0.61753 0.0
H746 H 0.14024 0.90186 0.61979 0.0
H747 H 0.10838 0.08811 0.45141 0.0
H748 H 0.14564 0.04003 0.60483 0.0
H749 H 0.11186 0.94657 0.39048 0.0
C750 C 0.11861 0.89081 0.43229 0.0
C751 C 0.12688 0.87738 0.4953 0.0
C752 C 0.13743 0.05041 0.57128 0.0
C753 C 0.12589 0.96905 0.51222 0.0
C754 C 0.13797 0.0966 0.57793 0.0
C755 C 0.12753 0.11131 0.5352 0.0
C756 C 0.12644 0.01833 0.52058 0.0
C757 C 0.11663 0.07822 0.48551 0.0
C758 C 0.11805 0.9366 0.44075 0.0
C759 C 0.13405 0.9107 0.56802 0.0
N760 N 0.11641 0.03313 0.479 0.0
N761 N 0.1335 0.95495 0.57387 0.0
H762 H 0.8971 0.43211 0.681 0.0
H763 H 0.87024 0.59315 0.38203 0.0
H764 H 0.86471 0.38727 0.46557 0.0
H765 H 0.90067 0.64626 0.60855 0.0
H766 H 0.86984 0.51639 0.40555 0.0
H767 H 0.90006 0.51015 0.65173 0.0
C768 C 0.89065 0.43863 0.62763 0.0
C769 C 0.8806 0.40319 0.57603 0.0
C770 C 0.87668 0.54466 0.45006 0.0
C771 C 0.88388 0.49177 0.54224 0.0
C772 C 0.87692 0.58851 0.43645 0.0
C773 C 0.88537 0.62597 0.49412 0.0
C774 C 0.88494 0.53805 0.52219 0.0
C775 C 0.894 0.61811 0.5626 0.0
C776 C 0.8923 0.48309 0.61116 0.0
C777 C 0.87238 0.41353 0.50853 0.0
N778 N 0.89347 0.57487 0.57548 0.0
N779 N 0.87422 0.4567 0.4936 0.0
H780 H 0.88172 0.91226 0.6715 0.0
H781 H 0.88331 0.11611 0.42251 0.0
H782 H 0.86905 0.88487 0.38115 0.0
H783 H 0.86236 0.11464 0.68092 0.0
H784 H 0.88273 0.0346 0.40973 0.0
H785 H 0.87918 0.99122 0.68249 0.0
C786 C 0.87838 0.92307 0.61039 0.0
C787 C 0.87551 0.89263 0.52549 0.0
C788 C 0.87816 0.05216 0.46864 0.0
C789 C 0.87296 0.9819 0.53683 0.0
C790 C 0.87852 0.09835 0.47608 0.0
C791 C 0.87278 0.12143 0.55247 0.0
C792 C 0.87244 0.02965 0.53971 0.0
C793 C 0.86674 0.09749 0.62062 0.0
C794 C 0.87687 0.96769 0.61676 0.0
C795 C 0.87122 0.90766 0.44784 0.0
N796 N 0.86692 0.05277 0.61351 0.0
N797 N 0.87028 0.95169 0.45489 0.0
H798 H 0.11648 0.57378 0.36181 0.0
H799 H 0.15278 0.4195 0.62352 0.0
H800 H 0.15254 0.62795 0.54713 0.0
H801 H 0.11156 0.37417 0.49727 0.0
H802 H 0.15401 0.49456 0.58426 0.0
H803 H 0.11585 0.49826 0.39614 0.0
C804 C 0.12421 0.56995 0.41011 0.0
C805 C 0.13427 0.60773 0.45409 0.0
C806 C 0.14466 0.46828 0.56559 0.0
C807 C 0.13382 0.52109 0.492 0.0
C808 C 0.14399 0.42545 0.58774 0.0
C809 C 0.13206 0.39072 0.56363 0.0
C810 C 0.13337 0.47623 0.51803 0.0
C811 C 0.12086 0.40031 0.51847 0.0
C812 C 0.12388 0.52675 0.42941 0.0
C813 C 0.14442 0.60016 0.51276 0.0
N814 N 0.12181 0.44211 0.49654 0.0
N815 N 0.14389 0.5578 0.5304 0.0
H816 H 0.65332 0.61222 0.92177 0.0
H817 H 0.60891 0.36543 0.95367 0.0
H818 H 0.61383 0.58835 0.05218 0.0
H819 H 0.65317 0.39269 0.91851 0.0
H820 H 0.6096 0.44607 0.96477 0.0
H821 H 0.65255 0.53073 0.89799 0.0
C822 C 0.64445 0.58995 0.94503 0.0
C823 C 0.63352 0.60722 0.98814 0.0
C824 C 0.61915 0.43436 0.95438 0.0
C825 C 0.63259 0.51404 0.96034 0.0
C826 C 0.61878 0.38826 0.94754 0.0
C827 C 0.63103 0.37224 0.93559 0.0
C828 C 0.63183 0.46471 0.94848 0.0
C829 C 0.64349 0.40357 0.92818 0.0
C830 C 0.64404 0.54346 0.93138 0.0
C831 C 0.62233 0.57662 1.0169 0.0
N832 N 0.64358 0.44845 0.93482 0.0
N833 N 0.62213 0.5315 1.00219 0.0
H834 H 0.36304 0.89001 0.18488 0.0
H835 H 0.35702 0.07272 0.98461 0.0
H836 H 0.40437 0.91159 0.08049 0.0
H837 H 0.40077 0.12226 0.05153 0.0
H838 H 0.35825 0.00097 0.03029 0.0
H839 H 0.36113 0.96392 0.15343 0.0
C840 C 0.37179 0.91046 0.15632 0.0
C841 C 0.38384 0.89416 0.13444 0.0
C842 C 0.36756 0.02774 0.036 0.0
C843 C 0.38155 0.97858 0.09601 0.0
C844 C 0.36685 0.06876 1.00961 0.0
C845 C 0.37873 0.10394 1.0149 0.0
C846 C 0.3803 0.02161 0.06756 0.0
C847 C 0.39135 0.09599 0.04481 0.0
C848 C 0.3706 0.95244 0.13717 0.0
C849 C 0.39489 0.92265 0.09864 0.0
N850 N 0.39181 0.05562 0.06966 0.0
N851 N 0.39346 0.96343 0.08014 0.0
H852 H 0.37028 0.37156 0.88792 0.0
H853 H 0.36703 0.60384 0.18319 0.0
H854 H 0.38763 0.39942 0.1682 0.0
H855 H 0.39248 0.6077 0.94394 0.0
H856 H 0.36713 0.52279 0.17186 0.0
H857 H 0.37112 0.45326 0.89905 0.0
C858 C 0.37415 0.39494 0.95196 0.0
C859 C 0.37889 0.37914 0.02743 0.0
C860 C 0.37262 0.54154 0.12188 0.0
C861 C 0.37955 0.47145 0.04089 0.0
C862 C 0.37248 0.58739 0.12767 0.0
C863 C 0.37971 0.61209 0.06403 0.0
C864 C 0.37964 0.52013 0.05019 0.0
C865 C 0.3868 0.5896 0.99415 0.0
C866 C 0.37471 0.44125 0.95786 0.0
C867 C 0.38395 0.41058 0.10861 0.0
N868 N 0.38643 0.54449 0.98813 0.0
N869 N 0.38395 0.45541 0.11388 0.0
H870 H 0.6089 0.08251 1.00703 0.0
H871 H 0.65394 0.89339 0.94165 0.0
H872 H 0.64735 0.09302 0.86497 0.0
H873 H 0.61723 0.88393 0.10391 0.0
H874 H 0.65089 0.96505 0.90808 0.0
H875 H 0.6105 0.00709 0.03329 0.0
C876 C 0.61747 0.06836 0.97922 0.0
C877 C 0.62796 0.09359 0.93315 0.0
C878 C 0.64351 0.94757 0.95147 0.0
C879 C 0.63012 0.0085 0.96544 0.0
C880 C 0.64531 0.90662 0.9715 0.0
C881 C 0.63592 0.8827 0.02678 0.0
C882 C 0.63217 0.96493 0.98632 0.0
C883 C 0.62479 0.90141 0.06162 0.0
C884 C 0.6185 0.0257 0.99551 0.0
C885 C 0.63911 0.0746 0.90135 0.0
N886 N 0.6232 0.94151 0.04063 0.0
N887 N 0.63993 0.03322 0.91836 0.0
H888 H 0.12125 0.18958 0.27261 0.0
H889 H 0.13287 0.34601 0.87966 0.0
H890 H 0.13265 0.33567 0.34103 0.0
H891 H 0.13689 0.20685 0.82349 0.0
H892 H 0.13066 0.34202 0.04606 0.0
H893 H 0.1246 0.19373 0.10692 0.0
C894 C 0.12484 0.22252 0.25315 0.0
C895 C 0.12742 0.2622 0.32212 0.0
C896 C 0.13194 0.3122 0.99748 0.0
C897 C 0.13057 0.2675 0.13038 0.0
C898 C 0.13314 0.3144 0.90211 0.0
C899 C 0.13448 0.27613 0.83617 0.0
C900 C 0.1322 0.27144 0.0286 0.0
C901 C 0.13526 0.23663 0.87066 0.0
C902 C 0.12661 0.22493 0.15815 0.0
C903 C 0.13111 0.30407 0.2912 0.0
N904 N 0.13396 0.23515 0.96357 0.0
N905 N 0.1326 0.30561 0.19848 0.0
H906 H 0.88226 0.21004 0.28498 0.0
H907 H 0.87907 0.35489 0.88086 0.0
H908 H 0.87794 0.3488 0.34118 0.0
H909 H 0.86915 0.20849 0.82526 0.0
H910 H 0.88094 0.3541 0.04837 0.0
H911 H 0.8796 0.20903 0.11686 0.0
C912 C 0.88032 0.23988 0.26215 0.0
C913 C 0.87954 0.27875 0.32812 0.0
C914 C 0.87846 0.32206 0.99973 0.0
C915 C 0.8773 0.27886 0.13427 0.0
C916 C 0.87748 0.32252 0.90381 0.0
C917 C 0.8745 0.28173 0.83806 0.0
C918 C 0.87629 0.28041 0.0315 0.0
C919 C 0.87206 0.24081 0.87273 0.0
C920 C 0.87898 0.2395 0.16589 0.0
C921 C 0.87801 0.31746 0.2935 0.0
N922 N 0.87312 0.24117 0.96638 0.0
N923 N 0.87692 0.31652 0.19977 0.0
H924 H 0.14095 0.82593 0.20517 0.0
H925 H 0.12263 0.65511 0.71068 0.0
H926 H 0.12989 0.68027 0.18017 0.0
H927 H 0.1316 0.80095 0.73958 0.0
H928 H 0.12545 0.66328 0.88028 0.0
H929 H 0.13787 0.81719 0.03602 0.0
C930 C 0.13771 0.79198 0.1641 0.0
C931 C 0.1353 0.75389 0.20813 0.0
C932 C 0.12693 0.6936 0.84991 0.0
C933 C 0.13204 0.7434 1.01149 0.0
C934 C 0.12536 0.68897 0.7527 0.0
C935 C 0.12731 0.72738 0.70978 0.0
C936 C 0.13028 0.73714 0.90641 0.0
C937 C 0.13044 0.77034 0.76869 0.0
C938 C 0.13598 0.78702 0.06705 0.0
C939 C 0.13148 0.71073 0.15023 0.0
N940 N 0.13187 0.774 0.86329 0.0
N941 N 0.12996 0.70672 0.05549 0.0
H942 H 0.88614 0.84457 0.81454 0.0
H943 H 0.87611 0.67188 0.17748 0.0
H944 H 0.88199 0.70011 0.72945 0.0
H945 H 0.87794 0.81529 0.25901 0.0
H946 H 0.87842 0.68131 1.01451 0.0
H947 H 0.88359 0.83459 0.97686 0.0
C948 C 0.88453 0.81058 0.82999 0.0
C949 C 0.88376 0.77298 0.75745 0.0
C950 C 0.87841 0.71086 0.06779 0.0
C951 C 0.88119 0.76122 0.94512 0.0
C952 C 0.87712 0.70552 0.16112 0.0
C953 C 0.87732 0.74309 0.23287 0.0
C954 C 0.87967 0.75414 0.04467 0.0
C955 C 0.87822 0.78559 0.20676 0.0
C956 C 0.88311 0.8049 0.92298 0.0
C957 C 0.88214 0.72992 0.7824 0.0
N958 N 0.87945 0.78997 0.11535 0.0
N959 N 0.88085 0.72524 0.87369 0.0
H960 H 0.62982 0.68902 0.25705 0.0
H961 H 0.64173 0.80364 0.80414 0.0
H962 H 0.6494 0.82969 0.35689 0.0
H963 H 0.62263 0.66232 0.70703 0.0
H964 H 0.64467 0.81365 0.64156 0.0
H965 H 0.62683 0.67832 0.41973 0.0
C966 C 0.63334 0.71781 0.31297 0.0
C967 C 0.6396 0.76065 0.29247 0.0
C968 C 0.63989 0.78031 0.65549 0.0
C969 C 0.63655 0.74837 0.48048 0.0
C970 C 0.63832 0.77451 0.74882 0.0
C971 C 0.63224 0.73172 0.77019 0.0
C972 C 0.63517 0.74327 0.58173 0.0
C973 C 0.62758 0.69576 0.69445 0.0
C974 C 0.63173 0.71163 0.40622 0.0
C975 C 0.64433 0.79622 0.36875 0.0
N976 N 0.62918 0.70224 0.60446 0.0
N977 N 0.64268 0.78939 0.45838 0.0
H978 H 0.37939 0.68995 0.83042 0.0
H979 H 0.38476 0.81796 0.38841 0.0
H980 H 0.39393 0.83469 0.85319 0.0
H981 H 0.36962 0.67353 0.36711 0.0
H982 H 0.38812 0.82519 0.55819 0.0
H983 H 0.37598 0.68298 0.66086 0.0
C984 C 0.38168 0.72033 0.79999 0.0
C985 C 0.3864 0.76322 0.85702 0.0
C986 C 0.38413 0.79182 0.5164 0.0
C987 C 0.38292 0.7555 0.66164 0.0
C988 C 0.38232 0.78771 0.41919 0.0
C989 C 0.37745 0.74479 0.3625 0.0
C990 C 0.38088 0.75282 0.55803 0.0
C991 C 0.3738 0.70712 0.40744 0.0
C992 C 0.37983 0.71637 0.70289 0.0
C993 C 0.38986 0.8011 0.81254 0.0
N994 N 0.37572 0.71189 0.50156 0.0
N995 N 0.38793 0.79647 0.71843 0.0
H996 H 0.62406 0.28625 0.24056 0.0
H997 H 0.62788 0.1415 0.64303 0.0
H998 H 0.63047 0.1498 0.18328 0.0
H999 H 0.63714 0.28789 0.70092 0.0
H1000 H 0.62647 0.14287 0.47551 0.0
H1001 H 0.62684 0.28732 0.40855 0.0
C1002 C 0.62652 0.25705 0.26316 0.0
C1003 C 0.62779 0.2188 0.19697 0.0
C1004 C 0.62871 0.17478 0.52465 0.0
C1005 C 0.63003 0.21847 0.39074 0.0
C1006 C 0.62941 0.17397 0.62057 0.0
C1007 C 0.63209 0.21455 0.6869 0.0
C1008 C 0.63083 0.21658 0.49349 0.0
C1009 C 0.63454 0.25568 0.65285 0.0
C1010 C 0.6279 0.25739 0.35937 0.0
C1011 C 0.62993 0.18068 0.23131 0.0
N1012 N 0.63369 0.25564 0.5592 0.0
N1013 N 0.63097 0.18146 0.32502 0.0
H1014 H 0.3864 0.30425 0.29438 0.0
H1015 H 0.37446 0.14533 0.68346 0.0
H1016 H 0.37565 0.15809 0.22556 0.0
H1017 H 0.37312 0.28695 0.74598 0.0
H1018 H 0.37638 0.15007 0.51753 0.0
H1019 H 0.38317 0.29984 0.46002 0.0
C1020 C 0.38298 0.27122 0.31378 0.0
C1021 C 0.38057 0.23157 0.2448 0.0
C1022 C 0.37573 0.18026 0.56731 0.0
C1023 C 0.37753 0.22601 0.43629 0.0
C1024 C 0.3747 0.17759 0.66241 0.0
C1025 C 0.37415 0.21617 0.72986 0.0
C1026 C 0.37607 0.22181 0.53793 0.0
C1027 C 0.37403 0.25669 0.69735 0.0
C1028 C 0.38127 0.26868 0.40872 0.0
C1029 C 0.37706 0.18964 0.27546 0.0
N1030 N 0.37512 0.25855 0.6045 0.0
N1031 N 0.37561 0.18798 0.36808 0.0
H1032 H 0.03329 0.25417 0.71458 0.0
H1033 H 0.96362 0.13805 0.41612 0.0
H1034 H 0.03239 0.16216 0.45321 0.0
H1035 H 0.96698 0.25682 0.63124 0.0
H1036 H 0.98885 0.14811 0.42467 0.0
H1037 H 0.00937 0.25833 0.6819 0.0
C1038 C 0.02811 0.23552 0.64938 0.0
C1039 C 0.03481 0.20778 0.58645 0.0
C1040 C 0.98412 0.17237 0.46921 0.0
C1041 C 0.00729 0.21145 0.54944 0.0
C1042 C 0.9697 0.16655 0.46458 0.0
C1043 C 0.96317 0.19647 0.52353 0.0
C1044 C 0.99213 0.20797 0.53443 0.0
C1045 C 0.97158 0.23303 0.58437 0.0
C1046 C 0.01445 0.23783 0.6308 0.0
C1047 C 0.02762 0.18418 0.50321 0.0
N1048 N 0.98559 0.23737 0.58922 0.0
N1049 N 0.01418 0.18596 0.48778 0.0
H1050 H 0.97304 0.79128 0.63044 0.0
H1051 H 0.04114 0.71734 0.41712 0.0
H1052 H 0.97999 0.76311 0.33644 0.0
H1053 H 0.03417 0.74251 0.71148 0.0
H1054 H 0.01836 0.73151 0.38644 0.0
H1055 H 0.99469 0.7692 0.66177 0.0
C1056 C 0.979 0.77985 0.57243 0.0
C1057 C 0.97474 0.77947 0.48071 0.0
C1058 C 0.02179 0.73382 0.45779 0.0
C1059 C 0.99965 0.75482 0.51606 0.0
C1060 C 0.03485 0.72606 0.47539 0.0
C1061 C 0.03964 0.72888 0.56708 0.0
C1062 C 0.0134 0.74469 0.53235 0.0
C1063 C 0.03088 0.7395 0.63963 0.0
C1064 C 0.99143 0.76759 0.59037 0.0
C1065 C 0.98299 0.76475 0.40835 0.0
N1066 N 0.01823 0.74717 0.62075 0.0
N1067 N 0.99505 0.75333 0.42758 0.0
H1068 H 0.53541 0.74091 0.80023 0.0
H1069 H 0.48787 0.79076 0.23258 0.0
H1070 H 0.54932 0.75908 0.0872 0.0
H1071 H 0.47106 0.73209 0.9543 0.0
H1072 H 0.51123 0.79446 0.17591 0.0
H1073 H 0.51268 0.75163 0.85208 0.0
C1074 C 0.53374 0.74718 0.87417 0.0
C1075 C 0.54436 0.74837 0.93926 0.0
C1076 C 0.50245 0.78114 0.12702 0.0
C1077 C 0.5183 0.76174 0.99898 0.0
C1078 C 0.48908 0.77897 0.15926 0.0
C1079 C 0.47742 0.76027 0.09846 0.0
C1080 C 0.50428 0.76485 0.0329 0.0
C1081 C 0.47971 0.74671 1.00376 0.0
C1082 C 0.52075 0.75356 0.9036 0.0
C1083 C 0.54158 0.75807 0.03419 0.0
N1084 N 0.49287 0.74886 0.97404 0.0
N1085 N 0.52883 0.76413 0.06103 0.0
H1086 H 0.47066 0.29347 0.13226 0.0
H1087 H 0.54042 0.23401 0.91332 0.0
H1088 H 0.47934 0.28382 0.84096 0.0
H1089 H 0.53162 0.24155 0.20414 0.0
H1090 H 0.51805 0.25202 0.88558 0.0
H1091 H 0.4926 0.27238 0.15951 0.0
C1092 C 0.47709 0.28649 0.07383 0.0
C1093 C 0.47313 0.2908 0.98425 0.0
C1094 C 0.52101 0.24972 0.9555 0.0
C1095 C 0.49843 0.2672 1.01522 0.0
C1096 C 0.53385 0.23976 0.97153 0.0
C1097 C 0.53797 0.23616 0.06124 0.0
C1098 C 0.51216 0.25632 0.02969 0.0
C1099 C 0.52885 0.24332 0.13356 0.0
C1100 C 0.48969 0.27477 0.08956 0.0
C1101 C 0.48203 0.28178 0.91152 0.0
N1102 N 0.51643 0.25305 0.11624 0.0
N1103 N 0.49423 0.27061 0.92864 0.0
loop_
_geom_bond_atom_site_label_1
_geom_bond_atom_site_label_2
_geom_bond_distance
_geom_bond_site_symmetry_2
_ccdc_geom_bond_type
Eu0 N31 2.657 . S
Eu0 N38 2.609 . S
Eu0 O44 2.558 . S
Eu0 O45 2.612 . S
Eu0 O47 2.339 . S
Eu0 O48 2.563 . S
Eu0 O49 2.419 . S
Eu0 O51 2.380 . S
Eu0 O52 2.432 . S
Eu0 C64 2.848 . S
C1 C4 1.429 . S
C1 C5 1.411 . S
C1 N8 1.377 . S
C2 C4 1.420 . S
C2 C6 1.423 . S
C2 C14 1.392 . S
C3 C5 1.420 . S
C3 C6 1.351 . S
C3 H26 0.931 . S
C4 C1 1.429 . S
C4 C2 1.420 . S
C4 N12 1.362 . S
C5 C1 1.411 . S
C5 C3 1.420 . S
C5 C10 1.395 . S
C6 C2 1.423 . S
C6 C3 1.351 . S
C6 H18 0.930 . S
C7 C9 1.400 . S
C7 C10 1.386 . S
C7 H19 0.930 . S
N8 C1 1.377 . S
N8 C9 1.321 . S
N8 Eu11 2.609 . S
C9 C7 1.400 . S
C9 N8 1.321 . S
C9 H16 0.930 . S
C10 C5 1.395 . S
C10 C7 1.386 . S
C10 H29 0.930 . S
Eu11 N8 2.609 . S
Eu11 N12 2.657 . S
Eu11 O45 2.380 . S
Eu11 O46 2.432 . S
Eu11 O50 2.558 . S
Eu11 O51 2.612 . S
Eu11 O53 2.339 . S
Eu11 O54 2.563 . S
Eu11 O55 2.419 . S
Eu11 C75 2.848 . S
N12 C4 1.362 . S
N12 Eu11 2.657 . S
N12 C13 1.334 . S
C13 N12 1.334 . S
C13 C15 1.413 . S
C13 H20 0.929 . S
C14 C2 1.392 . S
C14 C15 1.367 . S
C14 H22 0.930 . S
C15 C13 1.413 . S
C15 C14 1.367 . S
C15 H17 0.930 . S
H16 C9 0.930 . S
H17 C15 0.930 . S
H18 C6 0.930 . S
H19 C7 0.930 . S
H20 C13 0.929 . S
H21 C35 0.930 . S
H22 C14 0.930 . S
H23 C41 0.930 . S
H24 C32 0.929 . S
H25 C39 0.930 . S
H26 C3 0.931 . S
H27 C33 0.930 . S
H28 C66 0.930 . S
H29 C10 0.930 . S
H30 C65 0.931 . S
N31 Eu0 2.657 . S
N31 C32 1.334 . S
N31 C36 1.362 . S
C32 H24 0.929 . S
C32 N31 1.334 . S
C32 C35 1.413 . S
C33 H27 0.930 . S
C33 C34 1.392 . S
C33 C35 1.367 . S
C34 C33 1.392 . S
C34 C36 1.420 . S
C34 C66 1.423 . S
C35 H21 0.930 . S
C35 C32 1.413 . S
C35 C33 1.367 . S
C36 N31 1.362 . S
C36 C34 1.420 . S
C36 C40 1.429 . S
H37 C42 0.930 . S
N38 Eu0 2.609 . S
N38 C40 1.377 . S
N38 C41 1.321 . S
C39 H25 0.930 . S
C39 C41 1.400 . S
C39 C42 1.386 . S
C40 C36 1.429 . S
C40 N38 1.377 . S
C40 C43 1.411 . S
C41 H23 0.930 . S
C41 N38 1.321 . S
C41 C39 1.400 . S
C42 H37 0.930 . S
C42 C39 1.386 . S
C42 C43 1.395 . S
C43 C40 1.411 . S
C43 C42 1.395 . S
C43 C65 1.420 . S
O44 Eu0 2.558 . S
O44 C64 1.257 . S
O45 Eu0 2.612 . S
O45 Eu11 2.380 . S
O45 C56 1.276 . S
O46 Eu11 2.432 . S
O46 C63 1.264 . S
O47 Eu0 2.339 . S
O47 C63 1.254 . S
O48 Eu0 2.563 . S
O48 C56 1.235 . S
O49 Eu0 2.419 . S
O49 C64 1.249 . S
O50 Eu11 2.558 . S
O50 C75 1.257 . S
O51 Eu0 2.380 . S
O51 Eu11 2.612 . S
O51 C67 1.276 . S
O52 Eu0 2.432 . S
O52 C74 1.264 . S
O53 Eu11 2.339 . S
O53 C74 1.254 . S
O54 Eu11 2.563 . S
O54 C67 1.235 . S
O55 Eu11 2.419 . S
O55 C75 1.249 . S
C56 O45 1.276 . S
C56 O48 1.235 . S
C57 C59 1.393 . S
C57 C61 1.395 . S
C57 C64 1.492 . S
C58 C59 1.392 . S
C58 C60 1.386 . S
C59 C57 1.393 . S
C59 C58 1.392 . S
C59 H76 0.930 . S
C60 C58 1.386 . S
C60 C62 1.395 . S
C60 H77 0.930 . S
C61 C57 1.395 . S
C61 C62 1.379 . S
C61 H78 0.930 . S
C62 C60 1.395 . S
C62 C61 1.379 . S
C62 H79 0.930 . S
C63 O46 1.264 . S
C63 O47 1.254 . S
C64 Eu0 2.848 . S
C64 O44 1.257 . S
C64 O49 1.249 . S
C64 C57 1.492 . S
C65 H30 0.931 . S
C65 C43 1.420 . S
C65 C66 1.351 . S
C66 H28 0.930 . S
C66 C34 1.423 . S
C66 C65 1.351 . S
C67 O51 1.276 . S
C67 O54 1.235 . S
C68 C69 1.393 . S
C68 C72 1.395 . S
C68 C75 1.492 . S
C69 C68 1.393 . S
C69 C70 1.392 . S
C69 H80 0.930 . S
C70 C69 1.392 . S
C70 C71 1.386 . S
C71 C70 1.386 . S
C71 C73 1.395 . S
C71 H81 0.930 . S
C72 C68 1.395 . S
C72 C73 1.379 . S
C72 H82 0.930 . S
C73 C71 1.395 . S
C73 C72 1.379 . S
C73 H83 0.930 . S
C74 O52 1.264 . S
C74 O53 1.254 . S
C75 Eu11 2.848 . S
C75 O50 1.257 . S
C75 O55 1.249 . S
C75 C68 1.492 . S
H76 C59 0.930 . S
H77 C60 0.930 . S
H78 C61 0.930 . S
H79 C62 0.930 . S
H80 C69 0.930 . S
H81 C71 0.930 . S
H82 C72 0.930 . S
H83 C73 0.930 . S
Eu84 N115 2.657 . S
Eu84 N122 2.609 . S
Eu84 O128 2.558 . S
Eu84 O129 2.612 . S
Eu84 O131 2.339 . S
Eu84 O132 2.563 . S
Eu84 O133 2.419 . S
Eu84 O135 2.380 . S
Eu84 O136 2.432 . S
Eu84 C148 2.848 . S
C85 C88 1.429 . S
C85 C89 1.411 . S
C85 N92 1.377 . S
C86 C88 1.420 . S
C86 C90 1.423 . S
C86 C98 1.392 . S
C87 C89 1.420 . S
C87 C90 1.351 . S
C87 H110 0.931 . S
C88 C85 1.429 . S
C88 C86 1.420 . S
C88 N96 1.362 . S
C89 C85 1.411 . S
C89 C87 1.420 . S
C89 C94 1.395 . S
C90 C86 1.423 . S
C90 C87 1.351 . S
C90 H102 0.930 . S
C91 C93 1.400 . S
C91 C94 1.386 . S
C91 H103 0.930 . S
N92 C85 1.377 . S
N92 C93 1.321 . S
N92 Eu95 2.609 . S
C93 C91 1.400 . S
C93 N92 1.321 . S
C93 H100 0.930 . S
C94 C89 1.395 . S
C94 C91 1.386 . S
C94 H113 0.930 . S
Eu95 N92 2.609 . S
Eu95 N96 2.657 . S
Eu95 O129 2.380 . S
Eu95 O130 2.432 . S
Eu95 O134 2.558 . S
Eu95 O135 2.612 . S
Eu95 O137 2.339 . S
Eu95 O138 2.563 . S
Eu95 O139 2.419 . S
Eu95 C159 2.848 . S
N96 C88 1.362 . S
N96 Eu95 2.657 . S
N96 C97 1.334 . S
C97 N96 1.334 . S
C97 C99 1.413 . S
C97 H104 0.929 . S
C98 C86 1.392 . S
C98 C99 1.367 . S
C98 H106 0.930 . S
C99 C97 1.413 . S
C99 C98 1.367 . S
C99 H101 0.930 . S
H100 C93 0.930 . S
H101 C99 0.930 . S
H102 C90 0.930 . S
H103 C91 0.930 . S
H104 C97 0.929 . S
H105 C119 0.930 . S
H106 C98 0.930 . S
H107 C125 0.930 . S
H108 C116 0.929 . S
H109 C123 0.930 . S
H110 C87 0.931 . S
H111 C117 0.930 . S
H112 C150 0.930 . S
H113 C94 0.930 . S
H114 C149 0.931 . S
N115 Eu84 2.657 . S
N115 C116 1.334 . S
N115 C120 1.362 . S
C116 H108 0.929 . S
C116 N115 1.334 . S
C116 C119 1.413 . S
C117 H111 0.930 . S
C117 C118 1.392 . S
C117 C119 1.367 . S
C118 C117 1.392 . S
C118 C120 1.420 . S
C118 C150 1.423 . S
C119 H105 0.930 . S
C119 C116 1.413 . S
C119 C117 1.367 . S
C120 N115 1.362 . S
C120 C118 1.420 . S
C120 C124 1.429 . S
H121 C126 0.930 . S
N122 Eu84 2.609 . S
N122 C124 1.377 . S
N122 C125 1.321 . S
C123 H109 0.930 . S
C123 C125 1.400 . S
C123 C126 1.386 . S
C124 C120 1.429 . S
C124 N122 1.377 . S
C124 C127 1.411 . S
C125 H107 0.930 . S
C125 N122 1.321 . S
C125 C123 1.400 . S
C126 H121 0.930 . S
C126 C123 1.386 . S
C126 C127 1.395 . S
C127 C124 1.411 . S
C127 C126 1.395 . S
C127 C149 1.420 . S
O128 Eu84 2.558 . S
O128 C148 1.257 . S
O129 Eu84 2.612 . S
O129 Eu95 2.380 . S
O129 C140 1.276 . S
O130 Eu95 2.432 . S
O130 C147 1.264 . S
O131 Eu84 2.339 . S
O131 C147 1.254 . S
O132 Eu84 2.563 . S
O132 C140 1.235 . S
O133 Eu84 2.419 . S
O133 C148 1.249 . S
O134 Eu95 2.558 . S
O134 C159 1.257 . S
O135 Eu84 2.380 . S
O135 Eu95 2.612 . S
O135 C151 1.276 . S
O136 Eu84 2.432 . S
O136 C158 1.264 . S
O137 Eu95 2.339 . S
O137 C158 1.254 . S
O138 Eu95 2.563 . S
O138 C151 1.235 . S
O139 Eu95 2.419 . S
O139 C159 1.249 . S
C140 O129 1.276 . S
C140 O132 1.235 . S
C141 C143 1.393 . S
C141 C145 1.395 . S
C141 C148 1.492 . S
C142 C143 1.392 . S
C142 C144 1.386 . S
C143 C141 1.393 . S
C143 C142 1.392 . S
C143 H160 0.930 . S
C144 C142 1.386 . S
C144 C146 1.395 . S
C144 H161 0.930 . S
C145 C141 1.395 . S
C145 C146 1.379 . S
C145 H162 0.930 . S
C146 C144 1.395 . S
C146 C145 1.379 . S
C146 H163 0.930 . S
C147 O130 1.264 . S
C147 O131 1.254 . S
C148 Eu84 2.848 . S
C148 O128 1.257 . S
C148 O133 1.249 . S
C148 C141 1.492 . S
C149 H114 0.931 . S
C149 C127 1.420 . S
C149 C150 1.351 . S
C150 H112 0.930 . S
C150 C118 1.423 . S
C150 C149 1.351 . S
C151 O135 1.276 . S
C151 O138 1.235 . S
C152 C153 1.393 . S
C152 C156 1.395 . S
C152 C159 1.492 . S
C153 C152 1.393 . S
C153 C154 1.392 . S
C153 H164 0.930 . S
C154 C153 1.392 . S
C154 C155 1.386 . S
C155 C154 1.386 . S
C155 C157 1.395 . S
C155 H165 0.930 . S
C156 C152 1.395 . S
C156 C157 1.379 . S
C156 H166 0.930 . S
C157 C155 1.395 . S
C157 C156 1.379 . S
C157 H167 0.930 . S
C158 O136 1.264 . S
C158 O137 1.254 . S
C159 Eu95 2.848 . S
C159 O134 1.257 . S
C159 O139 1.249 . S
C159 C152 1.492 . S
H160 C143 0.930 . S
H161 C144 0.930 . S
H162 C145 0.930 . S
H163 C146 0.930 . S
H164 C153 0.930 . S
H165 C155 0.930 . S
H166 C156 0.930 . S
H167 C157 0.930 . S
Eu168 N199 2.657 . S
Eu168 N206 2.609 . S
Eu168 O212 2.558 . S
Eu168 O213 2.612 . S
Eu168 O215 2.339 . S
Eu168 O216 2.563 . S
Eu168 O217 2.419 . S
Eu168 O219 2.380 . S
Eu168 O220 2.432 . S
Eu168 C232 2.848 . S
C169 C172 1.429 . S
C169 C173 1.411 . S
C169 N176 1.377 . S
C170 C172 1.420 . S
C170 C174 1.423 . S
C170 C182 1.392 . S
C171 C173 1.420 . S
C171 C174 1.351 . S
C171 H194 0.931 . S
C172 C169 1.429 . S
C172 C170 1.420 . S
C172 N180 1.362 . S
C173 C169 1.411 . S
C173 C171 1.420 . S
C173 C178 1.395 . S
C174 C170 1.423 . S
C174 C171 1.351 . S
C174 H186 0.930 . S
C175 C177 1.400 . S
C175 C178 1.386 . S
C175 H187 0.930 . S
N176 C169 1.377 . S
N176 C177 1.321 . S
N176 Eu179 2.609 . S
C177 C175 1.400 . S
C177 N176 1.321 . S
C177 H184 0.930 . S
C178 C173 1.395 . S
C178 C175 1.386 . S
C178 H197 0.930 . S
Eu179 N176 2.609 . S
Eu179 N180 2.657 . S
Eu179 O213 2.380 . S
Eu179 O214 2.432 . S
Eu179 O218 2.558 . S
Eu179 O219 2.612 . S
Eu179 O221 2.339 . S
Eu179 O222 2.563 . S
Eu179 O223 2.419 . S
Eu179 C243 2.848 . S
N180 C172 1.362 . S
N180 Eu179 2.657 . S
N180 C181 1.334 . S
C181 N180 1.334 . S
C181 C183 1.413 . S
C181 H188 0.929 . S
C182 C170 1.392 . S
C182 C183 1.367 . S
C182 H190 0.930 . S
C183 C181 1.413 . S
C183 C182 1.367 . S
C183 H185 0.930 . S
H184 C177 0.930 . S
H185 C183 0.930 . S
H186 C174 0.930 . S
H187 C175 0.930 . S
H188 C181 0.929 . S
H189 C203 0.930 . S
H190 C182 0.930 . S
H191 C209 0.930 . S
H192 C200 0.929 . S
H193 C207 0.930 . S
H194 C171 0.931 . S
H195 C201 0.930 . S
H196 C234 0.930 . S
H197 C178 0.930 . S
H198 C233 0.931 . S
N199 Eu168 2.657 . S
N199 C200 1.334 . S
N199 C204 1.362 . S
C200 H192 0.929 . S
C200 N199 1.334 . S
C200 C203 1.413 . S
C201 H195 0.930 . S
C201 C202 1.392 . S
C201 C203 1.367 . S
C202 C201 1.392 . S
C202 C204 1.420 . S
C202 C234 1.423 . S
C203 H189 0.930 . S
C203 C200 1.413 . S
C203 C201 1.367 . S
C204 N199 1.362 . S
C204 C202 1.420 . S
C204 C208 1.429 . S
H205 C210 0.930 . S
N206 Eu168 2.609 . S
N206 C208 1.377 . S
N206 C209 1.321 . S
C207 H193 0.930 . S
C207 C209 1.400 . S
C207 C210 1.386 . S
C208 C204 1.429 . S
C208 N206 1.377 . S
C208 C211 1.411 . S
C209 H191 0.930 . S
C209 N206 1.321 . S
C209 C207 1.400 . S
C210 H205 0.930 . S
C210 C207 1.386 . S
C210 C211 1.395 . S
C211 C208 1.411 . S
C211 C210 1.395 . S
C211 C233 1.420 . S
O212 Eu168 2.558 . S
O212 C232 1.257 . S
O213 Eu168 2.612 . S
O213 Eu179 2.380 . S
O213 C224 1.276 . S
O214 Eu179 2.432 . S
O214 C231 1.264 . S
O215 Eu168 2.339 . S
O215 C231 1.254 . S
O216 Eu168 2.563 . S
O216 C224 1.235 . S
O217 Eu168 2.419 . S
O217 C232 1.249 . S
O218 Eu179 2.558 . S
O218 C243 1.257 . S
O219 Eu168 2.380 . S
O219 Eu179 2.612 . S
O219 C235 1.276 . S
O220 Eu168 2.432 . S
O220 C242 1.264 . S
O221 Eu179 2.339 . S
O221 C242 1.254 . S
O222 Eu179 2.563 . S
O222 C235 1.235 . S
O223 Eu179 2.419 . S
O223 C243 1.249 . S
C224 O213 1.276 . S
C224 O216 1.235 . S
C225 C227 1.393 . S
C225 C229 1.395 . S
C225 C232 1.492 . S
C226 C227 1.392 . S
C226 C228 1.386 . S
C227 C225 1.393 . S
C227 C226 1.392 . S
C227 H244 0.930 . S
C228 C226 1.386 . S
C228 C230 1.395 . S
C228 H245 0.930 . S
C229 C225 1.395 . S
C229 C230 1.379 . S
C229 H246 0.930 . S
C230 C228 1.395 . S
C230 C229 1.379 . S
C230 H247 0.930 . S
C231 O214 1.264 . S
C231 O215 1.254 . S
C232 Eu168 2.848 . S
C232 O212 1.257 . S
C232 O217 1.249 . S
C232 C225 1.492 . S
C233 H198 0.931 . S
C233 C211 1.420 . S
C233 C234 1.351 . S
C234 H196 0.930 . S
C234 C202 1.423 . S
C234 C233 1.351 . S
C235 O219 1.276 . S
C235 O222 1.235 . S
C236 C237 1.393 . S
C236 C240 1.395 . S
C236 C243 1.492 . S
C237 C236 1.393 . S
C237 C238 1.392 . S
C237 H248 0.930 . S
C238 C237 1.392 . S
C238 C239 1.386 . S
C239 C238 1.386 . S
C239 C241 1.395 . S
C239 H249 0.930 . S
C240 C236 1.395 . S
C240 C241 1.379 . S
C240 H250 0.930 . S
C241 C239 1.395 . S
C241 C240 1.379 . S
C241 H251 0.930 . S
C242 O220 1.264 . S
C242 O221 1.254 . S
C243 Eu179 2.848 . S
C243 O218 1.257 . S
C243 O223 1.249 . S
C243 C236 1.492 . S
H244 C227 0.930 . S
H245 C228 0.930 . S
H246 C229 0.930 . S
H247 C230 0.930 . S
H248 C237 0.930 . S
H249 C239 0.930 . S
H250 C240 0.930 . S
H251 C241 0.930 . S
Eu252 N283 2.657 . S
Eu252 N290 2.609 . S
Eu252 O296 2.558 . S
Eu252 O297 2.612 . S
Eu252 O299 2.339 . S
Eu252 O300 2.563 . S
Eu252 O301 2.419 . S
Eu252 O303 2.380 . S
Eu252 O304 2.432 . S
Eu252 C316 2.848 . S
C253 C256 1.429 . S
C253 C257 1.411 . S
C253 N260 1.377 . S
C254 C256 1.420 . S
C254 C258 1.423 . S
C254 C266 1.392 . S
C255 C257 1.420 . S
C255 C258 1.351 . S
C255 H278 0.931 . S
C256 C253 1.429 . S
C256 C254 1.420 . S
C256 N264 1.362 . S
C257 C253 1.411 . S
C257 C255 1.420 . S
C257 C262 1.395 . S
C258 C254 1.423 . S
C258 C255 1.351 . S
C258 H270 0.930 . S
C259 C261 1.400 . S
C259 C262 1.386 . S
C259 H271 0.930 . S
N260 C253 1.377 . S
N260 C261 1.321 . S
N260 Eu263 2.609 . S
C261 C259 1.400 . S
C261 N260 1.321 . S
C261 H268 0.930 . S
C262 C257 1.395 . S
C262 C259 1.386 . S
C262 H281 0.930 . S
Eu263 N260 2.609 . S
Eu263 N264 2.657 . S
Eu263 O297 2.380 . S
Eu263 O298 2.432 . S
Eu263 O302 2.558 . S
Eu263 O303 2.612 . S
Eu263 O305 2.339 . S
Eu263 O306 2.563 . S
Eu263 O307 2.419 . S
Eu263 C327 2.848 . S
N264 C256 1.362 . S
N264 Eu263 2.657 . S
N264 C265 1.334 . S
C265 N264 1.334 . S
C265 C267 1.413 . S
C265 H272 0.929 . S
C266 C254 1.392 . S
C266 C267 1.367 . S
C266 H274 0.930 . S
C267 C265 1.413 . S
C267 C266 1.367 . S
C267 H269 0.930 . S
H268 C261 0.930 . S
H269 C267 0.930 . S
H270 C258 0.930 . S
H271 C259 0.930 . S
H272 C265 0.929 . S
H273 C287 0.930 . S
H274 C266 0.930 . S
H275 C293 0.930 . S
H276 C284 0.929 . S
H277 C291 0.930 . S
H278 C255 0.931 . S
H279 C285 0.930 . S
H280 C318 0.930 . S
H281 C262 0.930 . S
H282 C317 0.931 . S
N283 Eu252 2.657 . S
N283 C284 1.334 . S
N283 C288 1.362 . S
C284 H276 0.929 . S
C284 N283 1.334 . S
C284 C287 1.413 . S
C285 H279 0.930 . S
C285 C286 1.392 . S
C285 C287 1.367 . S
C286 C285 1.392 . S
C286 C288 1.420 . S
C286 C318 1.423 . S
C287 H273 0.930 . S
C287 C284 1.413 . S
C287 C285 1.367 . S
C288 N283 1.362 . S
C288 C286 1.420 . S
C288 C292 1.429 . S
H289 C294 0.930 . S
N290 Eu252 2.609 . S
N290 C292 1.377 . S
N290 C293 1.321 . S
C291 H277 0.930 . S
C291 C293 1.400 . S
C291 C294 1.386 . S
C292 C288 1.429 . S
C292 N290 1.377 . S
C292 C295 1.411 . S
C293 H275 0.930 . S
C293 N290 1.321 . S
C293 C291 1.400 . S
C294 H289 0.930 . S
C294 C291 1.386 . S
C294 C295 1.395 . S
C295 C292 1.411 . S
C295 C294 1.395 . S
C295 C317 1.420 . S
O296 Eu252 2.558 . S
O296 C316 1.257 . S
O297 Eu252 2.612 . S
O297 Eu263 2.380 . S
O297 C308 1.276 . S
O298 Eu263 2.432 . S
O298 C315 1.264 . S
O299 Eu252 2.339 . S
O299 C315 1.254 . S
O300 Eu252 2.563 . S
O300 C308 1.235 . S
O301 Eu252 2.419 . S
O301 C316 1.249 . S
O302 Eu263 2.558 . S
O302 C327 1.257 . S
O303 Eu252 2.380 . S
O303 Eu263 2.612 . S
O303 C319 1.276 . S
O304 Eu252 2.432 . S
O304 C326 1.264 . S
O305 Eu263 2.339 . S
O305 C326 1.254 . S
O306 Eu263 2.563 . S
O306 C319 1.235 . S
O307 Eu263 2.419 . S
O307 C327 1.249 . S
C308 O297 1.276 . S
C308 O300 1.235 . S
C309 C311 1.393 . S
C309 C313 1.395 . S
C309 C316 1.492 . S
C310 C311 1.392 . S
C310 C312 1.386 . S
C311 C309 1.393 . S
C311 C310 1.392 . S
C311 H328 0.930 . S
C312 C310 1.386 . S
C312 C314 1.395 . S
C312 H329 0.930 . S
C313 C309 1.395 . S
C313 C314 1.379 . S
C313 H330 0.930 . S
C314 C312 1.395 . S
C314 C313 1.379 . S
C314 H331 0.930 . S
C315 O298 1.264 . S
C315 O299 1.254 . S
C316 Eu252 2.848 . S
C316 O296 1.257 . S
C316 O301 1.249 . S
C316 C309 1.492 . S
C317 H282 0.931 . S
C317 C295 1.420 . S
C317 C318 1.351 . S
C318 H280 0.930 . S
C318 C286 1.423 . S
C318 C317 1.351 . S
C319 O303 1.276 . S
C319 O306 1.235 . S
C320 C321 1.393 . S
C320 C324 1.395 . S
C320 C327 1.492 . S
C321 C320 1.393 . S
C321 C322 1.392 . S
C321 H332 0.930 . S
C322 C321 1.392 . S
C322 C323 1.386 . S
C323 C322 1.386 . S
C323 C325 1.395 . S
C323 H333 0.930 . S
C324 C320 1.395 . S
C324 C325 1.379 . S
C324 H334 0.930 . S
C325 C323 1.395 . S
C325 C324 1.379 . S
C325 H335 0.930 . S
C326 O304 1.264 . S
C326 O305 1.254 . S
C327 Eu263 2.848 . S
C327 O302 1.257 . S
C327 O307 1.249 . S
C327 C320 1.492 . S
H328 C311 0.930 . S
H329 C312 0.930 . S
H330 C313 0.930 . S
H331 C314 0.930 . S
H332 C321 0.930 . S
H333 C323 0.930 . S
H334 C324 0.930 . S
H335 C325 0.930 . S
Eu336 N367 2.657 . S
Eu336 N374 2.609 . S
Eu336 O380 2.558 1_554 S
Eu336 O381 2.612 1_554 S
Eu336 O383 2.339 . S
Eu336 O384 2.563 1_554 S
Eu336 O385 2.419 1_554 S
Eu336 O387 2.380 . S
Eu336 O388 2.432 1_554 S
Eu336 C400 2.848 1_554 S
C337 C340 1.429 . S
C337 C341 1.411 . S
C337 N344 1.377 . S
C338 C340 1.420 . S
C338 C342 1.423 . S
C338 C350 1.392 . S
C339 C341 1.420 . S
C339 C342 1.351 . S
C339 H362 0.931 . S
C340 C337 1.429 . S
C340 C338 1.420 . S
C340 N348 1.362 . S
C341 C337 1.411 . S
C341 C339 1.420 . S
C341 C346 1.395 . S
C342 C338 1.423 . S
C342 C339 1.351 . S
C342 H354 0.930 . S
C343 C345 1.400 . S
C343 C346 1.386 . S
C343 H355 0.930 . S
N344 C337 1.377 . S
N344 C345 1.321 . S
N344 Eu347 2.609 . S
C345 C343 1.400 . S
C345 N344 1.321 . S
C345 H352 0.930 . S
C346 C341 1.395 . S
C346 C343 1.386 . S
C346 H365 0.930 . S
Eu347 N344 2.609 . S
Eu347 N348 2.657 . S
Eu347 O381 2.380 . S
Eu347 O382 2.432 1_556 S
Eu347 O386 2.558 1_556 S
Eu347 O387 2.612 1_556 S
Eu347 O389 2.339 . S
Eu347 O390 2.563 1_556 S
Eu347 O391 2.419 1_556 S
Eu347 C411 2.848 1_556 S
N348 C340 1.362 . S
N348 Eu347 2.657 . S
N348 C349 1.334 . S
C349 N348 1.334 . S
C349 C351 1.413 . S
C349 H356 0.929 . S
C350 C338 1.392 . S
C350 C351 1.367 . S
C350 H358 0.930 . S
C351 C349 1.413 . S
C351 C350 1.367 . S
C351 H353 0.930 . S
H352 C345 0.930 . S
H353 C351 0.930 . S
H354 C342 0.930 . S
H355 C343 0.930 . S
H356 C349 0.929 . S
H357 C371 0.930 . S
H358 C350 0.930 . S
H359 C377 0.930 . S
H360 C368 0.929 . S
H361 C375 0.930 . S
H362 C339 0.931 . S
H363 C369 0.930 . S
H364 C402 0.930 . S
H365 C346 0.930 . S
H366 C401 0.931 . S
N367 Eu336 2.657 . S
N367 C368 1.334 . S
N367 C372 1.362 . S
C368 H360 0.929 . S
C368 N367 1.334 . S
C368 C371 1.413 . S
C369 H363 0.930 . S
C369 C370 1.392 . S
C369 C371 1.367 . S
C370 C369 1.392 . S
C370 C372 1.420 . S
C370 C402 1.423 . S
C371 H357 0.930 . S
C371 C368 1.413 . S
C371 C369 1.367 . S
C372 N367 1.362 . S
C372 C370 1.420 . S
C372 C376 1.429 . S
H373 C378 0.930 . S
N374 Eu336 2.609 . S
N374 C376 1.377 . S
N374 C377 1.321 . S
C375 H361 0.930 . S
C375 C377 1.400 . S
C375 C378 1.386 . S
C376 C372 1.429 . S
C376 N374 1.377 . S
C376 C379 1.411 . S
C377 H359 0.930 . S
C377 N374 1.321 . S
C377 C375 1.400 . S
C378 H373 0.930 . S
C378 C375 1.386 . S
C378 C379 1.395 . S
C379 C376 1.411 . S
C379 C378 1.395 . S
C379 C401 1.420 . S
O380 Eu336 2.558 1_556 S
O380 C400 1.257 . S
O381 Eu336 2.612 1_556 S
O381 Eu347 2.380 . S
O381 C392 1.276 . S
O382 Eu347 2.432 1_554 S
O382 C399 1.264 . S
O383 Eu336 2.339 . S
O383 C399 1.254 . S
O384 Eu336 2.563 1_556 S
O384 C392 1.235 . S
O385 Eu336 2.419 1_556 S
O385 C400 1.249 . S
O386 Eu347 2.558 1_554 S
O386 C411 1.257 . S
O387 Eu336 2.380 . S
O387 Eu347 2.612 1_554 S
O387 C403 1.276 . S
O388 Eu336 2.432 1_556 S
O388 C410 1.264 . S
O389 Eu347 2.339 . S
O389 C410 1.254 . S
O390 Eu347 2.563 1_554 S
O390 C403 1.235 . S
O391 Eu347 2.419 1_554 S
O391 C411 1.249 . S
C392 O381 1.276 . S
C392 O384 1.235 . S
C393 C395 1.393 . S
C393 C397 1.395 . S
C393 C400 1.492 . S
C394 C395 1.392 . S
C394 C396 1.386 . S
C395 C393 1.393 . S
C395 C394 1.392 . S
C395 H412 0.930 . S
C396 C394 1.386 . S
C396 C398 1.395 . S
C396 H413 0.930 . S
C397 C393 1.395 . S
C397 C398 1.379 . S
C397 H414 0.930 . S
C398 C396 1.395 . S
C398 C397 1.379 . S
C398 H415 0.930 . S
C399 O382 1.264 . S
C399 O383 1.254 . S
C400 Eu336 2.848 1_556 S
C400 O380 1.257 . S
C400 O385 1.249 . S
C400 C393 1.492 . S
C401 H366 0.931 . S
C401 C379 1.420 . S
C401 C402 1.351 . S
C402 H364 0.930 . S
C402 C370 1.423 . S
C402 C401 1.351 . S
C403 O387 1.276 . S
C403 O390 1.235 . S
C404 C405 1.393 . S
C404 C408 1.395 . S
C404 C411 1.492 . S
C405 C404 1.393 . S
C405 C406 1.392 . S
C405 H416 0.930 . S
C406 C405 1.392 . S
C406 C407 1.386 . S
C407 C406 1.386 . S
C407 C409 1.395 . S
C407 H417 0.930 . S
C408 C404 1.395 . S
C408 C409 1.379 . S
C408 H418 0.930 . S
C409 C407 1.395 . S
C409 C408 1.379 . S
C409 H419 0.930 . S
C410 O388 1.264 . S
C410 O389 1.254 . S
C411 Eu347 2.848 1_554 S
C411 O386 1.257 . S
C411 O391 1.249 . S
C411 C404 1.492 . S
H412 C395 0.930 . S
H413 C396 0.930 . S
H414 C397 0.930 . S
H415 C398 0.930 . S
H416 C405 0.930 . S
H417 C407 0.930 . S
H418 C408 0.930 . S
H419 C409 0.930 . S
Eu420 N451 2.657 . S
Eu420 N458 2.609 . S
Eu420 O464 2.558 1_556 S
Eu420 O465 2.612 1_556 S
Eu420 O467 2.339 . S
Eu420 O468 2.563 1_556 S
Eu420 O469 2.419 1_556 S
Eu420 O471 2.380 . S
Eu420 O472 2.432 1_556 S
Eu420 C484 2.848 1_556 S
C421 C424 1.429 . S
C421 C425 1.411 . S
C421 N428 1.377 . S
C422 C424 1.420 . S
C422 C426 1.423 . S
C422 C434 1.392 . S
C423 C425 1.420 . S
C423 C426 1.351 . S
C423 H446 0.931 . S
C424 C421 1.429 . S
C424 C422 1.420 . S
C424 N432 1.362 . S
C425 C421 1.411 . S
C425 C423 1.420 . S
C425 C430 1.395 . S
C426 C422 1.423 . S
C426 C423 1.351 . S
C426 H438 0.930 . S
C427 C429 1.400 . S
C427 C430 1.386 . S
C427 H439 0.930 . S
N428 C421 1.377 . S
N428 C429 1.321 . S
N428 Eu431 2.609 . S
C429 C427 1.400 . S
C429 N428 1.321 . S
C429 H436 0.930 . S
C430 C425 1.395 . S
C430 C427 1.386 . S
C430 H449 0.930 . S
Eu431 N428 2.609 . S
Eu431 N432 2.657 . S
Eu431 O465 2.380 . S
Eu431 O466 2.432 1_554 S
Eu431 O470 2.558 1_554 S
Eu431 O471 2.612 1_554 S
Eu431 O473 2.339 . S
Eu431 O474 2.563 1_554 S
Eu431 O475 2.419 1_554 S
Eu431 C495 2.848 1_554 S
N432 C424 1.362 . S
N432 Eu431 2.657 . S
N432 C433 1.334 . S
C433 N432 1.334 . S
C433 C435 1.413 . S
C433 H440 0.929 . S
C434 C422 1.392 . S
C434 C435 1.367 . S
C434 H442 0.930 . S
C435 C433 1.413 . S
C435 C434 1.367 . S
C435 H437 0.930 . S
H436 C429 0.930 . S
H437 C435 0.930 . S
H438 C426 0.930 . S
H439 C427 0.930 . S
H440 C433 0.929 . S
H441 C455 0.930 . S
H442 C434 0.930 . S
H443 C461 0.930 . S
H444 C452 0.929 . S
H445 C459 0.930 . S
H446 C423 0.931 . S
H447 C453 0.930 . S
H448 C486 0.930 . S
H449 C430 0.930 . S
H450 C485 0.931 . S
N451 Eu420 2.657 . S
N451 C452 1.334 . S
N451 C456 1.362 . S
C452 H444 0.929 . S
C452 N451 1.334 . S
C452 C455 1.413 . S
C453 H447 0.930 . S
C453 C454 1.392 . S
C453 C455 1.367 . S
C454 C453 1.392 . S
C454 C456 1.420 . S
C454 C486 1.423 . S
C455 H441 0.930 . S
C455 C452 1.413 . S
C455 C453 1.367 . S
C456 N451 1.362 . S
C456 C454 1.420 . S
C456 C460 1.429 . S
H457 C462 0.930 . S
N458 Eu420 2.609 . S
N458 C460 1.377 . S
N458 C461 1.321 . S
C459 H445 0.930 . S
C459 C461 1.400 . S
C459 C462 1.386 . S
C460 C456 1.429 . S
C460 N458 1.377 . S
C460 C463 1.411 . S
C461 H443 0.930 . S
C461 N458 1.321 . S
C461 C459 1.400 . S
C462 H457 0.930 . S
C462 C459 1.386 . S
C462 C463 1.395 . S
C463 C460 1.411 . S
C463 C462 1.395 . S
C463 C485 1.420 . S
O464 Eu420 2.558 1_554 S
O464 C484 1.257 . S
O465 Eu420 2.612 1_554 S
O465 Eu431 2.380 . S
O465 C476 1.276 . S
O466 Eu431 2.432 1_556 S
O466 C483 1.264 . S
O467 Eu420 2.339 . S
O467 C483 1.254 . S
O468 Eu420 2.563 1_554 S
O468 C476 1.235 . S
O469 Eu420 2.419 1_554 S
O469 C484 1.249 . S
O470 Eu431 2.558 1_556 S
O470 C495 1.257 . S
O471 Eu420 2.380 . S
O471 Eu431 2.612 1_556 S
O471 C487 1.276 . S
O472 Eu420 2.432 1_554 S
O472 C494 1.264 . S
O473 Eu431 2.339 . S
O473 C494 1.254 . S
O474 Eu431 2.563 1_556 S
O474 C487 1.235 . S
O475 Eu431 2.419 1_556 S
O475 C495 1.249 . S
C476 O465 1.276 . S
C476 O468 1.235 . S
C477 C479 1.393 . S
C477 C481 1.395 . S
C477 C484 1.492 . S
C478 C479 1.392 . S
C478 C480 1.386 . S
C479 C477 1.393 . S
C479 C478 1.392 . S
C479 H496 0.930 . S
C480 C478 1.386 . S
C480 C482 1.395 . S
C480 H497 0.930 . S
C481 C477 1.395 . S
C481 C482 1.379 . S
C481 H498 0.930 . S
C482 C480 1.395 . S
C482 C481 1.379 . S
C482 H499 0.930 . S
C483 O466 1.264 . S
C483 O467 1.254 . S
C484 Eu420 2.848 1_554 S
C484 O464 1.257 . S
C484 O469 1.249 . S
C484 C477 1.492 . S
C485 H450 0.931 . S
C485 C463 1.420 . S
C485 C486 1.351 . S
C486 H448 0.930 . S
C486 C454 1.423 . S
C486 C485 1.351 . S
C487 O471 1.276 . S
C487 O474 1.235 . S
C488 C489 1.393 . S
C488 C492 1.395 . S
C488 C495 1.492 . S
C489 C488 1.393 . S
C489 C490 1.392 . S
C489 H500 0.930 . S
C490 C489 1.392 . S
C490 C491 1.386 . S
C491 C490 1.386 . S
C491 C493 1.395 . S
C491 H501 0.930 . S
C492 C488 1.395 . S
C492 C493 1.379 . S
C492 H502 0.930 . S
C493 C491 1.395 . S
C493 C492 1.379 . S
C493 H503 0.930 . S
C494 O472 1.264 . S
C494 O473 1.254 . S
C495 Eu431 2.848 1_556 S
C495 O470 1.257 . S
C495 O475 1.249 . S
C495 C488 1.492 . S
H496 C479 0.930 . S
H497 C480 0.930 . S
H498 C481 0.930 . S
H499 C482 0.930 . S
H500 C489 0.930 . S
H501 C491 0.930 . S
H502 C492 0.930 . S
H503 C493 0.930 . S
Eu504 N535 2.657 . S
Eu504 N542 2.609 . S
Eu504 O548 2.558 1_554 S
Eu504 O549 2.612 1_554 S
Eu504 O551 2.339 . S
Eu504 O552 2.563 1_554 S
Eu504 O553 2.419 1_554 S
Eu504 O555 2.380 . S
Eu504 O556 2.432 . S
Eu504 C568 2.848 1_554 S
C505 C508 1.429 . S
C505 C509 1.411 . S
C505 N512 1.377 . S
C506 C508 1.420 . S
C506 C510 1.423 . S
C506 C518 1.392 . S
C507 C509 1.420 . S
C507 C510 1.351 . S
C507 H530 0.931 . S
C508 C505 1.429 . S
C508 C506 1.420 . S
C508 N516 1.362 . S
C509 C505 1.411 . S
C509 C507 1.420 . S
C509 C514 1.395 . S
C510 C506 1.423 . S
C510 C507 1.351 . S
C510 H522 0.930 . S
C511 C513 1.400 . S
C511 C514 1.386 . S
C511 H523 0.930 . S
N512 C505 1.377 . S
N512 C513 1.321 . S
N512 Eu515 2.609 . S
C513 C511 1.400 . S
C513 N512 1.321 . S
C513 H520 0.930 . S
C514 C509 1.395 . S
C514 C511 1.386 . S
C514 H533 0.930 . S
Eu515 N512 2.609 . S
Eu515 N516 2.657 . S
Eu515 O549 2.380 . S
Eu515 O550 2.432 . S
Eu515 O554 2.558 1_556 S
Eu515 O555 2.612 1_556 S
Eu515 O557 2.339 . S
Eu515 O558 2.563 1_556 S
Eu515 O559 2.419 1_556 S
Eu515 C579 2.848 1_556 S
N516 C508 1.362 . S
N516 Eu515 2.657 . S
N516 C517 1.334 . S
C517 N516 1.334 . S
C517 C519 1.413 . S
C517 H524 0.929 . S
C518 C506 1.392 . S
C518 C519 1.367 . S
C518 H526 0.930 . S
C519 C517 1.413 . S
C519 C518 1.367 . S
C519 H521 0.930 . S
H520 C513 0.930 . S
H521 C519 0.930 . S
H522 C510 0.930 . S
H523 C511 0.930 . S
H524 C517 0.929 . S
H525 C539 0.930 . S
H526 C518 0.930 . S
H527 C545 0.930 . S
H528 C536 0.929 . S
H529 C543 0.930 . S
H530 C507 0.931 . S
H531 C537 0.930 . S
H532 C570 0.930 . S
H533 C514 0.930 . S
H534 C569 0.931 . S
N535 Eu504 2.657 . S
N535 C536 1.334 . S
N535 C540 1.362 . S
C536 H528 0.929 . S
C536 N535 1.334 . S
C536 C539 1.413 . S
C537 H531 0.930 . S
C537 C538 1.392 . S
C537 C539 1.367 . S
C538 C537 1.392 . S
C538 C540 1.420 . S
C538 C570 1.423 . S
C539 H525 0.930 . S
C539 C536 1.413 . S
C539 C537 1.367 . S
C540 N535 1.362 . S
C540 C538 1.420 . S
C540 C544 1.429 . S
H541 C546 0.930 . S
N542 Eu504 2.609 . S
N542 C544 1.377 . S
N542 C545 1.321 . S
C543 H529 0.930 . S
C543 C545 1.400 . S
C543 C546 1.386 . S
C544 C540 1.429 . S
C544 N542 1.377 . S
C544 C547 1.411 . S
C545 H527 0.930 . S
C545 N542 1.321 . S
C545 C543 1.400 . S
C546 H541 0.930 . S
C546 C543 1.386 . S
C546 C547 1.395 . S
C547 C544 1.411 . S
C547 C546 1.395 . S
C547 C569 1.420 . S
O548 Eu504 2.558 1_556 S
O548 C568 1.257 . S
O549 Eu504 2.612 1_556 S
O549 Eu515 2.380 . S
O549 C560 1.276 . S
O550 Eu515 2.432 . S
O550 C567 1.264 . S
O551 Eu504 2.339 . S
O551 C567 1.254 1_554 S
O552 Eu504 2.563 1_556 S
O552 C560 1.235 . S
O553 Eu504 2.419 1_556 S
O553 C568 1.249 . S
O554 Eu515 2.558 1_554 S
O554 C579 1.257 . S
O555 Eu504 2.380 . S
O555 Eu515 2.612 1_554 S
O555 C571 1.276 . S
O556 Eu504 2.432 . S
O556 C578 1.264 . S
O557 Eu515 2.339 . S
O557 C578 1.254 1_556 S
O558 Eu515 2.563 1_554 S
O558 C571 1.235 . S
O559 Eu515 2.419 1_554 S
O559 C579 1.249 . S
C560 O549 1.276 . S
C560 O552 1.235 . S
C561 C563 1.393 . S
C561 C565 1.395 . S
C561 C568 1.492 . S
C562 C563 1.392 . S
C562 C564 1.386 . S
C563 C561 1.393 . S
C563 C562 1.392 . S
C563 H580 0.930 . S
C564 C562 1.386 . S
C564 C566 1.395 . S
C564 H581 0.930 . S
C565 C561 1.395 . S
C565 C566 1.379 . S
C565 H582 0.930 . S
C566 C564 1.395 . S
C566 C565 1.379 . S
C566 H583 0.930 . S
C567 O550 1.264 . S
C567 O551 1.254 1_556 S
C568 Eu504 2.848 1_556 S
C568 O548 1.257 . S
C568 O553 1.249 . S
C568 C561 1.492 . S
C569 H534 0.931 . S
C569 C547 1.420 . S
C569 C570 1.351 . S
C570 H532 0.930 . S
C570 C538 1.423 . S
C570 C569 1.351 . S
C571 O555 1.276 . S
C571 O558 1.235 . S
C572 C573 1.393 . S
C572 C576 1.395 . S
C572 C579 1.492 . S
C573 C572 1.393 . S
C573 C574 1.392 . S
C573 H584 0.930 . S
C574 C573 1.392 . S
C574 C575 1.386 . S
C575 C574 1.386 . S
C575 C577 1.395 . S
C575 H585 0.930 . S
C576 C572 1.395 . S
C576 C577 1.379 . S
C576 H586 0.930 . S
C577 C575 1.395 . S
C577 C576 1.379 . S
C577 H587 0.930 . S
C578 O556 1.264 . S
C578 O557 1.254 1_554 S
C579 Eu515 2.848 1_554 S
C579 O554 1.257 . S
C579 O559 1.249 . S
C579 C572 1.492 . S
H580 C563 0.930 . S
H581 C564 0.930 . S
H582 C565 0.930 . S
H583 C566 0.930 . S
H584 C573 0.930 . S
H585 C575 0.930 . S
H586 C576 0.930 . S
H587 C577 0.930 . S
Eu588 N619 2.657 . S
Eu588 N626 2.609 . S
Eu588 O632 2.558 1_554 S
Eu588 O633 2.612 1_554 S
Eu588 O635 2.339 . S
Eu588 O636 2.563 1_554 S
Eu588 O637 2.419 1_554 S
Eu588 O639 2.380 . S
Eu588 O640 2.432 1_554 S
Eu588 C652 2.848 1_554 S
C589 C592 1.429 . S
C589 C593 1.411 . S
C589 N596 1.377 . S
C590 C592 1.420 . S
C590 C594 1.423 . S
C590 C602 1.392 . S
C591 C593 1.420 . S
C591 C594 1.351 . S
C591 H614 0.931 . S
C592 C589 1.429 . S
C592 C590 1.420 . S
C592 N600 1.362 . S
C593 C589 1.411 . S
C593 C591 1.420 . S
C593 C598 1.395 . S
C594 C590 1.423 . S
C594 C591 1.351 . S
C594 H606 0.930 . S
C595 C597 1.400 . S
C595 C598 1.386 . S
C595 H607 0.930 . S
N596 C589 1.377 . S
N596 C597 1.321 . S
N596 Eu599 2.609 . S
C597 C595 1.400 . S
C597 N596 1.321 . S
C597 H604 0.930 . S
C598 C593 1.395 . S
C598 C595 1.386 . S
C598 H617 0.930 . S
Eu599 N596 2.609 . S
Eu599 N600 2.657 . S
Eu599 O633 2.380 . S
Eu599 O634 2.432 1_556 S
Eu599 O638 2.558 1_556 S
Eu599 O639 2.612 1_556 S
Eu599 O641 2.339 . S
Eu599 O642 2.563 1_556 S
Eu599 O643 2.419 1_556 S
Eu599 C663 2.848 1_556 S
N600 C592 1.362 . S
N600 Eu599 2.657 . S
N600 C601 1.334 . S
C601 N600 1.334 . S
C601 C603 1.413 . S
C601 H608 0.929 . S
C602 C590 1.392 . S
C602 C603 1.367 . S
C602 H610 0.930 . S
C603 C601 1.413 . S
C603 C602 1.367 . S
C603 H605 0.930 . S
H604 C597 0.930 . S
H605 C603 0.930 . S
H606 C594 0.930 . S
H607 C595 0.930 . S
H608 C601 0.929 . S
H609 C623 0.930 . S
H610 C602 0.930 . S
H611 C629 0.930 . S
H612 C620 0.929 . S
H613 C627 0.930 . S
H614 C591 0.931 . S
H615 C621 0.930 . S
H616 C654 0.930 . S
H617 C598 0.930 . S
H618 C653 0.931 . S
N619 Eu588 2.657 . S
N619 C620 1.334 . S
N619 C624 1.362 . S
C620 H612 0.929 . S
C620 N619 1.334 . S
C620 C623 1.413 . S
C621 H615 0.930 . S
C621 C622 1.392 . S
C621 C623 1.367 . S
C622 C621 1.392 . S
C622 C624 1.420 . S
C622 C654 1.423 . S
C623 H609 0.930 . S
C623 C620 1.413 . S
C623 C621 1.367 . S
C624 N619 1.362 . S
C624 C622 1.420 . S
C624 C628 1.429 . S
H625 C630 0.930 . S
N626 Eu588 2.609 . S
N626 C628 1.377 . S
N626 C629 1.321 . S
C627 H613 0.930 . S
C627 C629 1.400 . S
C627 C630 1.386 . S
C628 C624 1.429 . S
C628 N626 1.377 . S
C628 C631 1.411 . S
C629 H611 0.930 . S
C629 N626 1.321 . S
C629 C627 1.400 . S
C630 H625 0.930 . S
C630 C627 1.386 . S
C630 C631 1.395 . S
C631 C628 1.411 . S
C631 C630 1.395 . S
C631 C653 1.420 . S
O632 Eu588 2.558 1_556 S
O632 C652 1.257 . S
O633 Eu588 2.612 1_556 S
O633 Eu599 2.380 . S
O633 C644 1.276 . S
O634 Eu599 2.432 1_554 S
O634 C651 1.264 . S
O635 Eu588 2.339 . S
O635 C651 1.254 . S
O636 Eu588 2.563 1_556 S
O636 C644 1.235 . S
O637 Eu588 2.419 1_556 S
O637 C652 1.249 . S
O638 Eu599 2.558 1_554 S
O638 C663 1.257 . S
O639 Eu588 2.380 . S
O639 Eu599 2.612 1_554 S
O639 C655 1.276 . S
O640 Eu588 2.432 1_556 S
O640 C662 1.264 . S
O641 Eu599 2.339 . S
O641 C662 1.254 . S
O642 Eu599 2.563 1_554 S
O642 C655 1.235 . S
O643 Eu599 2.419 1_554 S
O643 C663 1.249 . S
C644 O633 1.276 . S
C644 O636 1.235 . S
C645 C647 1.393 . S
C645 C649 1.395 . S
C645 C652 1.492 . S
C646 C647 1.392 . S
C646 C648 1.386 . S
C647 C645 1.393 . S
C647 C646 1.392 . S
C647 H664 0.930 . S
C648 C646 1.386 . S
C648 C650 1.395 . S
C648 H665 0.930 . S
C649 C645 1.395 . S
C649 C650 1.379 . S
C649 H666 0.930 . S
C650 C648 1.395 . S
C650 C649 1.379 . S
C650 H667 0.930 . S
C651 O634 1.264 . S
C651 O635 1.254 . S
C652 Eu588 2.848 1_556 S
C652 O632 1.257 . S
C652 O637 1.249 . S
C652 C645 1.492 . S
C653 H618 0.931 . S
C653 C631 1.420 . S
C653 C654 1.351 . S
C654 H616 0.930 . S
C654 C622 1.423 . S
C654 C653 1.351 . S
C655 O639 1.276 . S
C655 O642 1.235 . S
C656 C657 1.393 . S
C656 C660 1.395 . S
C656 C663 1.492 . S
C657 C656 1.393 . S
C657 C658 1.392 . S
C657 H668 0.930 . S
C658 C657 1.392 . S
C658 C659 1.386 . S
C659 C658 1.386 . S
C659 C661 1.395 . S
C659 H669 0.930 . S
C660 C656 1.395 . S
C660 C661 1.379 . S
C660 H670 0.930 . S
C661 C659 1.395 . S
C661 C660 1.379 . S
C661 H671 0.930 . S
C662 O640 1.264 . S
C662 O641 1.254 . S
C663 Eu599 2.848 1_554 S
C663 O638 1.257 . S
C663 O643 1.249 . S
C663 C656 1.492 . S
H664 C647 0.930 . S
H665 C648 0.930 . S
H666 C649 0.930 . S
H667 C650 0.930 . S
H668 C657 0.930 . S
H669 C659 0.930 . S
H670 C660 0.930 . S
H671 C661 0.930 . S
H672 C678 0.930 . S
H673 C682 0.930 . S
H674 C687 0.929 . S
H675 C685 0.929 . S
H676 C680 0.929 . S
H677 C686 0.929 . S
C678 H672 0.930 . S
C678 C679 1.367 . S
C678 C686 1.378 . S
C679 C678 1.367 . S
C679 C687 1.433 . S
C680 H676 0.929 . S
C680 C682 1.378 . S
C680 C684 1.350 . S
C681 C684 1.463 . S
C681 C686 1.350 . S
C681 N689 1.427 . S
C682 H673 0.930 . S
C682 C680 1.378 . S
C682 C683 1.367 . S
C683 C682 1.367 . S
C683 C685 1.433 . S
C684 C680 1.350 . S
C684 C681 1.463 . S
C684 N688 1.427 . S
C685 H675 0.929 . S
C685 C683 1.433 . S
C685 N688 1.384 . S
C686 H677 0.929 . S
C686 C678 1.378 . S
C686 C681 1.350 . S
C687 H674 0.929 . S
C687 C679 1.433 . S
C687 N689 1.384 . S
N688 C684 1.427 . S
N688 C685 1.384 . S
N689 C681 1.427 . S
N689 C687 1.384 . S
H690 C696 0.930 . S
H691 C700 0.930 . S
H692 C705 0.929 . S
H693 C703 0.929 . S
H694 C698 0.929 . S
H695 C704 0.929 . S
C696 H690 0.930 . S
C696 C697 1.367 . S
C696 C704 1.378 . S
C697 C696 1.367 . S
C697 C705 1.433 . S
C698 H694 0.929 . S
C698 C700 1.378 . S
C698 C702 1.350 . S
C699 C702 1.463 . S
C699 C704 1.350 . S
C699 N707 1.427 . S
C700 H691 0.930 . S
C700 C698 1.378 . S
C700 C701 1.367 . S
C701 C700 1.367 . S
C701 C703 1.433 . S
C702 C698 1.350 . S
C702 C699 1.463 . S
C702 N706 1.427 . S
C703 H693 0.929 . S
C703 C701 1.433 . S
C703 N706 1.384 . S
C704 H695 0.929 . S
C704 C696 1.378 . S
C704 C699 1.350 . S
C705 H692 0.929 . S
C705 C697 1.433 . S
C705 N707 1.384 . S
N706 C702 1.427 . S
N706 C703 1.384 . S
N707 C699 1.427 . S
N707 C705 1.384 . S
H708 C714 0.930 . S
H709 C718 0.930 . S
H710 C723 0.929 . S
H711 C721 0.929 . S
H712 C716 0.929 . S
H713 C722 0.929 . S
C714 H708 0.930 . S
C714 C715 1.367 . S
C714 C722 1.378 . S
C715 C714 1.367 . S
C715 C723 1.433 . S
C716 H712 0.929 . S
C716 C718 1.378 . S
C716 C720 1.350 . S
C717 C720 1.463 . S
C717 C722 1.350 . S
C717 N725 1.427 . S
C718 H709 0.930 . S
C718 C716 1.378 . S
C718 C719 1.367 . S
C719 C718 1.367 . S
C719 C721 1.433 . S
C720 C716 1.350 . S
C720 C717 1.463 . S
C720 N724 1.427 . S
C721 H711 0.929 . S
C721 C719 1.433 . S
C721 N724 1.384 . S
C722 H713 0.929 . S
C722 C714 1.378 . S
C722 C717 1.350 . S
C723 H710 0.929 . S
C723 C715 1.433 . S
C723 N725 1.384 . S
N724 C720 1.427 . S
N724 C721 1.384 . S
N725 C717 1.427 . S
N725 C723 1.384 . S
H726 C732 0.930 . S
H727 C736 0.930 . S
H728 C741 0.929 . S
H729 C739 0.929 . S
H730 C734 0.929 . S
H731 C740 0.929 . S
C732 H726 0.930 . S
C732 C733 1.367 . S
C732 C740 1.378 . S
C733 C732 1.367 . S
C733 C741 1.433 . S
C734 H730 0.929 . S
C734 C736 1.378 . S
C734 C738 1.350 . S
C735 C738 1.463 . S
C735 C740 1.350 . S
C735 N743 1.427 . S
C736 H727 0.930 . S
C736 C734 1.378 . S
C736 C737 1.367 . S
C737 C736 1.367 . S
C737 C739 1.433 . S
C738 C734 1.350 . S
C738 C735 1.463 . S
C738 N742 1.427 . S
C739 H729 0.929 . S
C739 C737 1.433 . S
C739 N742 1.384 . S
C740 H731 0.929 . S
C740 C732 1.378 . S
C740 C735 1.350 . S
C741 H728 0.929 . S
C741 C733 1.433 . S
C741 N743 1.384 . S
N742 C738 1.427 . S
N742 C739 1.384 . S
N743 C735 1.427 . S
N743 C741 1.384 . S
H744 C750 0.930 . S
H745 C754 0.930 . S
H746 C759 0.929 . S
H747 C757 0.929 . S
H748 C752 0.929 . S
H749 C758 0.929 . S
C750 H744 0.930 . S
C750 C751 1.367 . S
C750 C758 1.378 . S
C751 C750 1.367 . S
C751 C759 1.433 . S
C752 H748 0.929 . S
C752 C754 1.378 . S
C752 C756 1.350 . S
C753 C756 1.463 1_565 S
C753 C758 1.350 . S
C753 N761 1.427 . S
C754 H745 0.930 . S
C754 C752 1.378 . S
C754 C755 1.367 . S
C755 C754 1.367 . S
C755 C757 1.433 . S
C756 C752 1.350 . S
C756 C753 1.463 1_545 S
C756 N760 1.427 . S
C757 H747 0.929 . S
C757 C755 1.433 . S
C757 N760 1.384 . S
C758 H749 0.929 . S
C758 C750 1.378 . S
C758 C753 1.350 . S
C759 H746 0.929 . S
C759 C751 1.433 . S
C759 N761 1.384 . S
N760 C756 1.427 . S
N760 C757 1.384 . S
N761 C753 1.427 . S
N761 C759 1.384 . S
H762 C768 0.930 . S
H763 C772 0.930 . S
H764 C777 0.929 . S
H765 C775 0.929 . S
H766 C770 0.929 . S
H767 C776 0.929 . S
C768 H762 0.930 . S
C768 C769 1.367 . S
C768 C776 1.378 . S
C769 C768 1.367 . S
C769 C777 1.433 . S
C770 H766 0.929 . S
C770 C772 1.378 . S
C770 C774 1.350 . S
C771 C774 1.463 . S
C771 C776 1.350 . S
C771 N779 1.427 . S
C772 H763 0.930 . S
C772 C770 1.378 . S
C772 C773 1.367 . S
C773 C772 1.367 . S
C773 C775 1.433 . S
C774 C770 1.350 . S
C774 C771 1.463 . S
C774 N778 1.427 . S
C775 H765 0.929 . S
C775 C773 1.433 . S
C775 N778 1.384 . S
C776 H767 0.929 . S
C776 C768 1.378 . S
C776 C771 1.350 . S
C777 H764 0.929 . S
C777 C769 1.433 . S
C777 N779 1.384 . S
N778 C774 1.427 . S
N778 C775 1.384 . S
N779 C771 1.427 . S
N779 C777 1.384 . S
H780 C786 0.930 . S
H781 C790 0.930 . S
H782 C795 0.929 . S
H783 C793 0.929 . S
H784 C788 0.929 . S
H785 C794 0.929 . S
C786 H780 0.930 . S
C786 C787 1.367 . S
C786 C794 1.378 . S
C787 C786 1.367 . S
C787 C795 1.433 . S
C788 H784 0.929 . S
C788 C790 1.378 . S
C788 C792 1.350 . S
C789 C792 1.463 1_565 S
C789 C794 1.350 . S
C789 N797 1.427 . S
C790 H781 0.930 . S
C790 C788 1.378 . S
C790 C791 1.367 . S
C791 C790 1.367 . S
C791 C793 1.433 . S
C792 C788 1.350 . S
C792 C789 1.463 1_545 S
C792 N796 1.427 . S
C793 H783 0.929 . S
C793 C791 1.433 . S
C793 N796 1.384 . S
C794 H785 0.929 . S
C794 C786 1.378 . S
C794 C789 1.350 . S
C795 H782 0.929 . S
C795 C787 1.433 . S
C795 N797 1.384 . S
N796 C792 1.427 . S
N796 C793 1.384 . S
N797 C789 1.427 . S
N797 C795 1.384 . S
H798 C804 0.930 . S
H799 C808 0.930 . S
H800 C813 0.929 . S
H801 C811 0.929 . S
H802 C806 0.929 . S
H803 C812 0.929 . S
C804 H798 0.930 . S
C804 C805 1.367 . S
C804 C812 1.378 . S
C805 C804 1.367 . S
C805 C813 1.433 . S
C806 H802 0.929 . S
C806 C808 1.378 . S
C806 C810 1.350 . S
C807 C810 1.463 . S
C807 C812 1.350 . S
C807 N815 1.427 . S
C808 H799 0.930 . S
C808 C806 1.378 . S
C808 C809 1.367 . S
C809 C808 1.367 . S
C809 C811 1.433 . S
C810 C806 1.350 . S
C810 C807 1.463 . S
C810 N814 1.427 . S
C811 H801 0.929 . S
C811 C809 1.433 . S
C811 N814 1.384 . S
C812 H803 0.929 . S
C812 C804 1.378 . S
C812 C807 1.350 . S
C813 H800 0.929 . S
C813 C805 1.433 . S
C813 N815 1.384 . S
N814 C810 1.427 . S
N814 C811 1.384 . S
N815 C807 1.427 . S
N815 C813 1.384 . S
H816 C822 0.930 . S
H817 C826 0.930 . S
H818 C831 0.929 . S
H819 C829 0.929 . S
H820 C824 0.929 . S
H821 C830 0.929 . S
C822 H816 0.930 . S
C822 C823 1.367 1_556 S
C822 C830 1.378 . S
C823 C822 1.367 1_554 S
C823 C831 1.433 . S
C824 H820 0.929 . S
C824 C826 1.378 . S
C824 C828 1.350 . S
C825 C828 1.463 . S
C825 C830 1.350 1_554 S
C825 N833 1.427 . S
C826 H817 0.930 . S
C826 C824 1.378 . S
C826 C827 1.367 . S
C827 C826 1.367 . S
C827 C829 1.433 1_554 S
C828 C824 1.350 . S
C828 C825 1.463 . S
C828 N832 1.427 1_554 S
C829 H819 0.929 . S
C829 C827 1.433 1_556 S
C829 N832 1.384 . S
C830 H821 0.929 . S
C830 C822 1.378 . S
C830 C825 1.350 1_556 S
C831 H818 0.929 . S
C831 C823 1.433 . S
C831 N833 1.384 . S
N832 C828 1.427 1_556 S
N832 C829 1.384 . S
N833 C825 1.427 . S
N833 C831 1.384 . S
H834 C840 0.930 . S
H835 C844 0.930 . S
H836 C849 0.929 . S
H837 C847 0.929 . S
H838 C842 0.929 . S
H839 C848 0.929 . S
C840 H834 0.930 . S
C840 C841 1.367 1_554 S
C840 C848 1.378 . S
C841 C840 1.367 1_556 S
C841 C849 1.433 . S
C842 H838 0.929 . S
C842 C844 1.378 . S
C842 C846 1.350 . S
C843 C846 1.463 1_565 S
C843 C848 1.350 1_556 S
C843 N851 1.427 . S
C844 H835 0.930 . S
C844 C842 1.378 . S
C844 C845 1.367 1_556 S
C845 C844 1.367 1_554 S
C845 C847 1.433 . S
C846 C842 1.350 . S
C846 C843 1.463 1_545 S
C846 N850 1.427 1_556 S
C847 H837 0.929 . S
C847 C845 1.433 . S
C847 N850 1.384 . S
C848 H839 0.929 . S
C848 C840 1.378 . S
C848 C843 1.350 1_554 S
C849 H836 0.929 . S
C849 C841 1.433 . S
C849 N851 1.384 . S
N850 C846 1.427 1_554 S
N850 C847 1.384 . S
N851 C843 1.427 . S
N851 C849 1.384 . S
H852 C858 0.930 . S
H853 C862 0.930 . S
H854 C867 0.929 . S
H855 C865 0.929 . S
H856 C860 0.929 . S
H857 C866 0.929 . S
C858 H852 0.930 . S
C858 C859 1.367 . S
C858 C866 1.378 . S
C859 C858 1.367 . S
C859 C867 1.433 1_556 S
C860 H856 0.929 . S
C860 C862 1.378 . S
C860 C864 1.350 . S
C861 C864 1.463 1_556 S
C861 C866 1.350 . S
C861 N869 1.427 1_556 S
C862 H853 0.930 . S
C862 C860 1.378 . S
C862 C863 1.367 . S
C863 C862 1.367 . S
C863 C865 1.433 1_554 S
C864 C860 1.350 . S
C864 C861 1.463 1_554 S
C864 N868 1.427 1_554 S
C865 H855 0.929 . S
C865 C863 1.433 1_556 S
C865 N868 1.384 . S
C866 H857 0.929 . S
C866 C858 1.378 . S
C866 C861 1.350 . S
C867 H854 0.929 . S
C867 C859 1.433 1_554 S
C867 N869 1.384 . S
N868 C864 1.427 1_556 S
N868 C865 1.384 . S
N869 C861 1.427 1_554 S
N869 C867 1.384 . S
H870 C876 0.930 . S
H871 C880 0.930 . S
H872 C885 0.929 . S
H873 C883 0.929 . S
H874 C878 0.929 . S
H875 C884 0.929 . S
C876 H870 0.930 . S
C876 C877 1.367 1_554 S
C876 C884 1.378 . S
C877 C876 1.367 1_556 S
C877 C885 1.433 . S
C878 H874 0.929 . S
C878 C880 1.378 . S
C878 C882 1.350 . S
C879 C882 1.463 1_545 S
C879 C884 1.350 1_556 S
C879 N887 1.427 . S
C880 H871 0.930 . S
C880 C878 1.378 . S
C880 C881 1.367 . S
C881 C880 1.367 . S
C881 C883 1.433 1_556 S
C882 C878 1.350 . S
C882 C879 1.463 1_565 S
C882 N886 1.427 1_556 S
C883 H873 0.929 . S
C883 C881 1.433 1_554 S
C883 N886 1.384 . S
C884 H875 0.929 . S
C884 C876 1.378 . S
C884 C879 1.350 1_554 S
C885 H872 0.929 . S
C885 C877 1.433 . S
C885 N887 1.384 . S
N886 C882 1.427 1_554 S
N886 C883 1.384 . S
N887 C879 1.427 . S
N887 C885 1.384 . S
H888 C894 0.930 . S
H889 C898 0.930 . S
H890 C903 0.929 . S
H891 C901 0.929 . S
H892 C896 0.929 . S
H893 C902 0.929 1_556 S
C894 H888 0.930 . S
C894 C895 1.367 . S
C894 C902 1.378 . S
C895 C894 1.367 . S
C895 C903 1.433 . S
C896 H892 0.929 . S
C896 C898 1.378 . S
C896 C900 1.350 . S
C897 C900 1.463 1_554 S
C897 C902 1.350 . S
C897 N905 1.427 . S
C898 H889 0.930 . S
C898 C896 1.378 . S
C898 C899 1.367 . S
C899 C898 1.367 . S
C899 C901 1.433 . S
C900 C896 1.350 . S
C900 C897 1.463 1_556 S
C900 N904 1.427 . S
C901 H891 0.929 . S
C901 C899 1.433 . S
C901 N904 1.384 . S
C902 H893 0.929 1_554 S
C902 C894 1.378 . S
C902 C897 1.350 . S
C903 H890 0.929 . S
C903 C895 1.433 . S
C903 N905 1.384 . S
N904 C900 1.427 . S
N904 C901 1.384 . S
N905 C897 1.427 . S
N905 C903 1.384 . S
H906 C912 0.930 . S
H907 C916 0.930 . S
H908 C921 0.929 . S
H909 C919 0.929 . S
H910 C914 0.929 . S
H911 C920 0.929 1_556 S
C912 H906 0.930 . S
C912 C913 1.367 . S
C912 C920 1.378 . S
C913 C912 1.367 . S
C913 C921 1.433 . S
C914 H910 0.929 . S
C914 C916 1.378 . S
C914 C918 1.350 . S
C915 C918 1.463 . S
C915 C920 1.350 1_556 S
C915 N923 1.427 1_556 S
C916 H907 0.930 . S
C916 C914 1.378 . S
C916 C917 1.367 . S
C917 C916 1.367 . S
C917 C919 1.433 . S
C918 C914 1.350 . S
C918 C915 1.463 . S
C918 N922 1.427 . S
C919 H909 0.929 . S
C919 C917 1.433 . S
C919 N922 1.384 . S
C920 H911 0.929 1_554 S
C920 C912 1.378 . S
C920 C915 1.350 1_554 S
C921 H908 0.929 . S
C921 C913 1.433 . S
C921 N923 1.384 . S
N922 C918 1.427 . S
N922 C919 1.384 . S
N923 C915 1.427 1_554 S
N923 C921 1.384 . S
H924 C930 0.930 . S
H925 C934 0.930 . S
H926 C939 0.929 . S
H927 C937 0.929 . S
H928 C932 0.929 . S
H929 C938 0.929 . S
C930 H924 0.930 . S
C930 C931 1.367 . S
C930 C938 1.378 . S
C931 C930 1.367 . S
C931 C939 1.433 . S
C932 H928 0.929 . S
C932 C934 1.378 . S
C932 C936 1.350 . S
C933 C936 1.463 1_554 S
C933 C938 1.350 . S
C933 N941 1.427 . S
C934 H925 0.930 . S
C934 C932 1.378 . S
C934 C935 1.367 . S
C935 C934 1.367 . S
C935 C937 1.433 . S
C936 C932 1.350 . S
C936 C933 1.463 1_556 S
C936 N940 1.427 . S
C937 H927 0.929 . S
C937 C935 1.433 . S
C937 N940 1.384 . S
C938 H929 0.929 . S
C938 C930 1.378 . S
C938 C933 1.350 . S
C939 H926 0.929 . S
C939 C931 1.433 . S
C939 N941 1.384 . S
N940 C936 1.427 . S
N940 C937 1.384 . S
N941 C933 1.427 . S
N941 C939 1.384 . S
H942 C948 0.930 . S
H943 C952 0.930 . S
H944 C957 0.929 . S
H945 C955 0.929 . S
H946 C950 0.929 . S
H947 C956 0.929 . S
C948 H942 0.930 . S
C948 C949 1.367 . S
C948 C956 1.378 . S
C949 C948 1.367 . S
C949 C957 1.433 . S
C950 H946 0.929 . S
C950 C952 1.378 . S
C950 C954 1.350 . S
C951 C954 1.463 1_556 S
C951 C956 1.350 . S
C951 N959 1.427 . S
C952 H943 0.930 . S
C952 C950 1.378 . S
C952 C953 1.367 . S
C953 C952 1.367 . S
C953 C955 1.433 . S
C954 C950 1.350 . S
C954 C951 1.463 1_554 S
C954 N958 1.427 . S
C955 H945 0.929 . S
C955 C953 1.433 . S
C955 N958 1.384 . S
C956 H947 0.929 . S
C956 C948 1.378 . S
C956 C951 1.350 . S
C957 H944 0.929 . S
C957 C949 1.433 . S
C957 N959 1.384 . S
N958 C954 1.427 . S
N958 C955 1.384 . S
N959 C951 1.427 . S
N959 C957 1.384 . S
H960 C966 0.930 . S
H961 C970 0.930 . S
H962 C975 0.929 . S
H963 C973 0.929 . S
H964 C968 0.929 . S
H965 C974 0.929 . S
C966 H960 0.930 . S
C966 C967 1.367 . S
C966 C974 1.378 . S
C967 C966 1.367 . S
C967 C975 1.433 . S
C968 H964 0.929 . S
C968 C970 1.378 . S
C968 C972 1.350 . S
C969 C972 1.463 . S
C969 C974 1.350 . S
C969 N977 1.427 . S
C970 H961 0.930 . S
C970 C968 1.378 . S
C970 C971 1.367 . S
C971 C970 1.367 . S
C971 C973 1.433 . S
C972 C968 1.350 . S
C972 C969 1.463 . S
C972 N976 1.427 . S
C973 H963 0.929 . S
C973 C971 1.433 . S
C973 N976 1.384 . S
C974 H965 0.929 . S
C974 C966 1.378 . S
C974 C969 1.350 . S
C975 H962 0.929 . S
C975 C967 1.433 . S
C975 N977 1.384 . S
N976 C972 1.427 . S
N976 C973 1.384 . S
N977 C969 1.427 . S
N977 C975 1.384 . S
H978 C984 0.930 . S
H979 C988 0.930 . S
H980 C993 0.929 . S
H981 C991 0.929 . S
H982 C986 0.929 . S
H983 C992 0.929 . S
C984 H978 0.930 . S
C984 C985 1.367 . S
C984 C992 1.378 . S
C985 C984 1.367 . S
C985 C993 1.433 . S
C986 H982 0.929 . S
C986 C988 1.378 . S
C986 C990 1.350 . S
C987 C990 1.463 . S
C987 C992 1.350 . S
C987 N995 1.427 . S
C988 H979 0.930 . S
C988 C986 1.378 . S
C988 C989 1.367 . S
C989 C988 1.367 . S
C989 C991 1.433 . S
C990 C986 1.350 . S
C990 C987 1.463 . S
C990 N994 1.427 . S
C991 H981 0.929 . S
C991 C989 1.433 . S
C991 N994 1.384 . S
C992 H983 0.929 . S
C992 C984 1.378 . S
C992 C987 1.350 . S
C993 H980 0.929 . S
C993 C985 1.433 . S
C993 N995 1.384 . S
N994 C990 1.427 . S
N994 C991 1.384 . S
N995 C987 1.427 . S
N995 C993 1.384 . S
H996 C1002 0.930 . S
H997 C1006 0.930 . S
H998 C1011 0.929 . S
H999 C1009 0.929 . S
H1000 C1004 0.929 . S
H1001 C1010 0.929 . S
C1002 H996 0.930 . S
C1002 C1003 1.367 . S
C1002 C1010 1.378 . S
C1003 C1002 1.367 . S
C1003 C1011 1.433 . S
C1004 H1000 0.929 . S
C1004 C1006 1.378 . S
C1004 C1008 1.350 . S
C1005 C1008 1.463 . S
C1005 C1010 1.350 . S
C1005 N1013 1.427 . S
C1006 H997 0.930 . S
C1006 C1004 1.378 . S
C1006 C1007 1.367 . S
C1007 C1006 1.367 . S
C1007 C1009 1.433 . S
C1008 C1004 1.350 . S
C1008 C1005 1.463 . S
C1008 N1012 1.427 . S
C1009 H999 0.929 . S
C1009 C1007 1.433 . S
C1009 N1012 1.384 . S
C1010 H1001 0.929 . S
C1010 C1002 1.378 . S
C1010 C1005 1.350 . S
C1011 H998 0.929 . S
C1011 C1003 1.433 . S
C1011 N1013 1.384 . S
N1012 C1008 1.427 . S
N1012 C1009 1.384 . S
N1013 C1005 1.427 . S
N1013 C1011 1.384 . S
H1014 C1020 0.930 . S
H1015 C1024 0.930 . S
H1016 C1029 0.929 . S
H1017 C1027 0.929 . S
H1018 C1022 0.929 . S
H1019 C1028 0.929 . S
C1020 H1014 0.930 . S
C1020 C1021 1.367 . S
C1020 C1028 1.378 . S
C1021 C1020 1.367 . S
C1021 C1029 1.433 . S
C1022 H1018 0.929 . S
C1022 C1024 1.378 . S
C1022 C1026 1.350 . S
C1023 C1026 1.463 . S
C1023 C1028 1.350 . S
C1023 N1031 1.427 . S
C1024 H1015 0.930 . S
C1024 C1022 1.378 . S
C1024 C1025 1.367 . S
C1025 C1024 1.367 . S
C1025 C1027 1.433 . S
C1026 C1022 1.350 . S
C1026 C1023 1.463 . S
C1026 N1030 1.427 . S
C1027 H1017 0.929 . S
C1027 C1025 1.433 . S
C1027 N1030 1.384 . S
C1028 H1019 0.929 . S
C1028 C1020 1.378 . S
C1028 C1023 1.350 . S
C1029 H1016 0.929 . S
C1029 C1021 1.433 . S
C1029 N1031 1.384 . S
N1030 C1026 1.427 . S
N1030 C1027 1.384 . S
N1031 C1023 1.427 . S
N1031 C1029 1.384 . S
H1032 C1038 0.930 . S
H1033 C1042 0.930 . S
H1034 C1047 0.929 . S
H1035 C1045 0.929 . S
H1036 C1040 0.929 . S
H1037 C1046 0.929 . S
C1038 H1032 0.930 . S
C1038 C1039 1.367 . S
C1038 C1046 1.378 . S
C1039 C1038 1.367 . S
C1039 C1047 1.433 . S
C1040 H1036 0.929 . S
C1040 C1042 1.378 . S
C1040 C1044 1.350 . S
C1041 C1044 1.463 1_455 S
C1041 C1046 1.350 . S
C1041 N1049 1.427 . S
C1042 H1033 0.930 . S
C1042 C1040 1.378 . S
C1042 C1043 1.367 . S
C1043 C1042 1.367 . S
C1043 C1045 1.433 . S
C1044 C1040 1.350 . S
C1044 C1041 1.463 1_655 S
C1044 N1048 1.427 . S
C1045 H1035 0.929 . S
C1045 C1043 1.433 . S
C1045 N1048 1.384 . S
C1046 H1037 0.929 . S
C1046 C1038 1.378 . S
C1046 C1041 1.350 . S
C1047 H1034 0.929 . S
C1047 C1039 1.433 . S
C1047 N1049 1.384 . S
N1048 C1044 1.427 . S
N1048 C1045 1.384 . S
N1049 C1041 1.427 . S
N1049 C1047 1.384 . S
H1050 C1056 0.930 . S
H1051 C1060 0.930 . S
H1052 C1065 0.929 . S
H1053 C1063 0.929 . S
H1054 C1058 0.929 . S
H1055 C1064 0.929 . S
C1056 H1050 0.930 . S
C1056 C1057 1.367 . S
C1056 C1064 1.378 . S
C1057 C1056 1.367 . S
C1057 C1065 1.433 . S
C1058 H1054 0.929 . S
C1058 C1060 1.378 . S
C1058 C1062 1.350 . S
C1059 C1062 1.463 1_655 S
C1059 C1064 1.350 . S
C1059 N1067 1.427 . S
C1060 H1051 0.930 . S
C1060 C1058 1.378 . S
C1060 C1061 1.367 . S
C1061 C1060 1.367 . S
C1061 C1063 1.433 . S
C1062 C1058 1.350 . S
C1062 C1059 1.463 1_455 S
C1062 N1066 1.427 . S
C1063 H1053 0.929 . S
C1063 C1061 1.433 . S
C1063 N1066 1.384 . S
C1064 H1055 0.929 . S
C1064 C1056 1.378 . S
C1064 C1059 1.350 . S
C1065 H1052 0.929 . S
C1065 C1057 1.433 . S
C1065 N1067 1.384 . S
N1066 C1062 1.427 . S
N1066 C1063 1.384 . S
N1067 C1059 1.427 . S
N1067 C1065 1.384 . S
H1068 C1074 0.930 . S
H1069 C1078 0.930 . S
H1070 C1083 0.929 . S
H1071 C1081 0.929 . S
H1072 C1076 0.929 . S
H1073 C1082 0.929 . S
C1074 H1068 0.930 . S
C1074 C1075 1.367 . S
C1074 C1082 1.378 . S
C1075 C1074 1.367 . S
C1075 C1083 1.433 . S
C1076 H1072 0.929 . S
C1076 C1078 1.378 . S
C1076 C1080 1.350 . S
C1077 C1080 1.463 . S
C1077 C1082 1.350 . S
C1077 N1085 1.427 . S
C1078 H1069 0.930 . S
C1078 C1076 1.378 . S
C1078 C1079 1.367 . S
C1079 C1078 1.367 . S
C1079 C1081 1.433 . S
C1080 C1076 1.350 . S
C1080 C1077 1.463 . S
C1080 N1084 1.427 . S
C1081 H1071 0.929 . S
C1081 C1079 1.433 . S
C1081 N1084 1.384 . S
C1082 H1073 0.929 . S
C1082 C1074 1.378 . S
C1082 C1077 1.350 . S
C1083 H1070 0.929 . S
C1083 C1075 1.433 . S
C1083 N1085 1.384 . S
N1084 C1080 1.427 . S
N1084 C1081 1.384 . S
N1085 C1077 1.427 . S
N1085 C1083 1.384 . S
H1086 C1092 0.930 . S
H1087 C1096 0.930 . S
H1088 C1101 0.929 . S
H1089 C1099 0.929 . S
H1090 C1094 0.929 . S
H1091 C1100 0.929 . S
C1092 H1086 0.930 . S
C1092 C1093 1.367 . S
C1092 C1100 1.378 . S
C1093 C1092 1.367 . S
C1093 C1101 1.433 . S
C1094 H1090 0.929 . S
C1094 C1096 1.378 . S
C1094 C1098 1.350 . S
C1095 C1098 1.463 . S
C1095 C1100 1.350 . S
C1095 N1103 1.427 . S
C1096 H1087 0.930 . S
C1096 C1094 1.378 . S
C1096 C1097 1.367 . S
C1097 C1096 1.367 . S
C1097 C1099 1.433 . S
C1098 C1094 1.350 . S
C1098 C1095 1.463 . S
C1098 N1102 1.427 . S
C1099 H1089 0.929 . S
C1099 C1097 1.433 . S
C1099 N1102 1.384 . S
C1100 H1091 0.929 . S
C1100 C1092 1.378 . S
C1100 C1095 1.350 . S
C1101 H1088 0.929 . S
C1101 C1093 1.433 . S
C1101 N1103 1.384 . S
N1102 C1098 1.427 . S
N1102 C1099 1.384 . S
N1103 C1095 1.427 . S
N1103 C1101 1.384 . S
C679 C70 1.396 . S
C683 C646 1.387 . S
C697 C562 1.679 . S
C701 C142 1.502 . S
C715 C478 1.472 . S
C719 C226 1.665 . S
C733 C406 1.410 . S
C737 C310 1.400 . S
C751 C242 2.376 . S
C755 C74 2.518 . S
C769 C158 1.673 . S
C773 C326 1.722 . S
C787 C315 1.440 . S
C791 C147 1.396 . S
C805 C231 0.649 . S
C809 C63 0.660 . S
C823 C410 2.502 1_554 S
C827 C578 2.426 . S
C841 C494 1.548 1_556 S
C845 C662 1.598 1_554 S
C859 C651 1.474 1_556 S
C863 C483 1.424 1_554 S
C877 C567 0.615 . S
C881 C399 0.611 1_556 S
C895 C56 1.846 . S
C899 C67 1.846 . S
C913 C151 1.827 . S
C917 C140 1.827 . S
C931 C224 1.924 . S
C935 C235 1.924 . S
C949 C319 1.847 . S
C953 C308 1.847 . S
C967 C403 1.853 . S
C971 C392 1.853 . S
C985 C487 1.828 . S
C989 C476 1.828 . S
C1003 C571 1.936 . S
C1007 C560 1.936 . S
C1021 C655 1.848 . S
C1025 C644 1.848 . S
C1039 C58 2.044 . S
C1043 C154 1.845 . S
C1057 C322 1.708 . S
C1061 C238 1.745 . S
C1075 C394 2.050 . S
C1079 C490 1.840 . S
C1093 C658 1.717 . S
C1097 C574 1.747 . S
