# Generated by pormake.
# Topology xbj, (5)-cn, num edge types: 1
# Building blocks:
#     Node 0, Type 0, BuildingBlock: BEQFEK_clean_sbu_0, # of connection points: 5
#     Node 1, Type 0, BuildingBlock: BEQFEK_clean_sbu_0, # of connection points: 5
#     Node 2, Type 0, BuildingBlock: BEQFEK_clean_sbu_0, # of connection points: 5
#     Node 3, Type 0, BuildingBlock: BEQFEK_clean_sbu_0, # of connection points: 5
#     Node 4, Type 0, BuildingBlock: BEQFEK_clean_sbu_0, # of connection points: 5
#     Node 5, Type 0, BuildingBlock: BEQFEK_clean_sbu_0, # of connection points: 5
#     Node 6, Type 0, BuildingBlock: BEQFEK_clean_sbu_0, # of connection points: 5
#     Node 7, Type 0, BuildingBlock: BEQFEK_clean_sbu_0, # of connection points: 5
#     Edge 8, Type (0, 0), BuildingBlock: EZIPEK_clean_linker_0, # of connection points: 2
#     Edge 9, Type (0, 0), BuildingBlock: EZIPEK_clean_linker_0, # of connection points: 2
#     Edge 10, Type (0, 0), BuildingBlock: EZIPEK_clean_linker_0, # of connection points: 2
#     Edge 11, Type (0, 0), BuildingBlock: EZIPEK_clean_linker_0, # of connection points: 2
#     Edge 12, Type (0, 0), BuildingBlock: EZIPEK_clean_linker_0, # of connection points: 2
#     Edge 13, Type (0, 0), BuildingBlock: EZIPEK_clean_linker_0, # of connection points: 2
#     Edge 14, Type (0, 0), BuildingBlock: EZIPEK_clean_linker_0, # of connection points: 2
#     Edge 15, Type (0, 0), BuildingBlock: EZIPEK_clean_linker_0, # of connection points: 2
#     Edge 16, Type (0, 0), BuildingBlock: EZIPEK_clean_linker_0, # of connection points: 2
#     Edge 17, Type (0, 0), BuildingBlock: EZIPEK_clean_linker_0, # of connection points: 2
#     Edge 18, Type (0, 0), BuildingBlock: EZIPEK_clean_linker_0, # of connection points: 2
#     Edge 19, Type (0, 0), BuildingBlock: EZIPEK_clean_linker_0, # of connection points: 2
#     Edge 20, Type (0, 0), BuildingBlock: EZIPEK_clean_linker_0, # of connection points: 2
#     Edge 21, Type (0, 0), BuildingBlock: EZIPEK_clean_linker_0, # of connection points: 2
#     Edge 22, Type (0, 0), BuildingBlock: EZIPEK_clean_linker_0, # of connection points: 2
#     Edge 23, Type (0, 0), BuildingBlock: EZIPEK_clean_linker_0, # of connection points: 2
#     Edge 24, Type (0, 0), BuildingBlock: EZIPEK_clean_linker_0, # of connection points: 2
#     Edge 25, Type (0, 0), BuildingBlock: EZIPEK_clean_linker_0, # of connection points: 2
#     Edge 26, Type (0, 0), BuildingBlock: EZIPEK_clean_linker_0, # of connection points: 2
#     Edge 27, Type (0, 0), BuildingBlock: EZIPEK_clean_linker_0, # of connection points: 2
# Relax obj value: 0.035
# Max RMSD: 0.115
# Mean RMSD: 0.112
data_MOF--net-xbj--node1-BEQFEK_clean_sbu_0--edge1-EZIPEK_clean_linker_0
_symmetry_space_group_name_H-M    P1
_symmetry_Int_Tables_number       1
_symmetry_cell_setting            triclinic
loop_
_symmetry_equiv_pos_as_xyz
'x, y, z'
_cell_length_a     15.605177
_cell_length_b     15.596718
_cell_length_c     82.568237
_cell_angle_alpha  91.139666
_cell_angle_beta   91.047562
_cell_angle_gamma 90.146115
loop_
_atom_site_label
_atom_site_type_symbol
_atom_site_fract_x
_atom_site_fract_y
_atom_site_fract_z
_atom_type_partial_charge
Co0 Co 0.23625 0.77094 0.04126 0.0
Co1 Co 0.03272 0.77299 0.04143 0.0
C2 C 0.13077 0.90057 0.02321 0.0
O3 O 0.20225 0.87158 0.02842 0.0
O4 O 0.05898 0.86992 0.02747 0.0
C5 C 0.40861 0.83906 0.04578 0.0
O6 O 0.37126 0.91441 0.04619 0.0
C7 C 0.84656 0.81408 0.04271 0.0
C8 C 0.79645 0.69333 0.05253 0.0
C9 C 0.77182 0.7732 0.04723 0.0
N10 N 0.91277 0.76071 0.04536 0.0
N11 N 0.88212 0.68872 0.0512 0.0
C12 C 0.85492 0.90126 0.03573 0.0
H13 H 0.87225 0.89453 0.02279 0.0
H14 H 0.90765 0.93682 0.0421 0.0
H15 H 0.79418 0.93777 0.03667 0.0
C16 C 0.20785 0.75916 0.07659 0.0
N17 N 0.1791 0.76815 0.06124 0.0
N18 N 0.0955 0.77881 0.06128 0.0
C19 C 0.06916 0.78229 0.07671 0.0
C20 C 0.13905 0.76823 0.08695 0.0
C21 C 0.2984 0.73739 0.08106 0.0
H22 H 0.3247 0.69162 0.07199 0.0
H23 H 0.33781 0.79658 0.08097 0.0
H24 H 0.30278 0.7095 0.09331 0.0
O25 O 0.20558 0.67197 0.02732 0.0
O26 O 0.06311 0.67067 0.02834 0.0
H27 H 0.94136 0.73986 0.08109 0.0
H28 H 0.97725 0.82673 0.09419 0.0
C29 C 0.97897 0.80026 0.08162 0.0
H30 H 0.94883 0.8465 0.07324 0.0
H31 H 0.91991 0.63606 0.05421 0.0
O32 O 0.36341 0.77133 0.04414 0.0
C33 C 0.13318 0.64044 0.0231 0.0
Co34 Co 0.58195 0.81544 0.29052 0.0
Co35 Co 0.60481 0.61468 0.29211 0.0
C36 C 0.4609 0.69999 0.27359 0.0
O37 O 0.47789 0.77518 0.27908 0.0
O38 O 0.50538 0.63463 0.27736 0.0
C39 C 0.51877 0.99258 0.29318 0.0
O40 O 0.4412 0.95973 0.29233 0.0
C41 C 0.56491 0.42859 0.29287 0.0
C42 C 0.68578 0.37716 0.30305 0.0
C43 C 0.60539 0.35317 0.29723 0.0
N44 N 0.61883 0.49455 0.29606 0.0
N45 N 0.69095 0.46314 0.30213 0.0
C46 C 0.47739 0.43769 0.28547 0.0
H47 H 0.44251 0.48983 0.29186 0.0
H48 H 0.44049 0.3769 0.286 0.0
H49 H 0.48347 0.45607 0.27262 0.0
C50 C 0.59337 0.79493 0.32625 0.0
N51 N 0.5936 0.7624 0.31102 0.0
N52 N 0.59439 0.67814 0.31161 0.0
C53 C 0.59111 0.65438 0.32717 0.0
C54 C 0.59122 0.72756 0.33699 0.0
C55 C 0.59536 0.88863 0.33041 0.0
H56 H 0.64076 0.92195 0.32248 0.0
H57 H 0.53059 0.91543 0.32826 0.0
H58 H 0.61422 0.90031 0.34329 0.0
O59 O 0.67263 0.7843 0.27517 0.0
O60 O 0.70816 0.65093 0.28056 0.0
H61 H 0.64952 0.53367 0.33202 0.0
H62 H 0.56184 0.55997 0.34511 0.0
C63 C 0.58516 0.56346 0.33252 0.0
H64 H 0.54114 0.52664 0.32429 0.0
H65 H 0.74416 0.5005 0.3055 0.0
O66 O 0.58368 0.94343 0.29271 0.0
C67 C 0.71941 0.71902 0.27266 0.0
Co68 Co 0.7518 0.25397 0.54209 0.0
Co69 Co 0.5483 0.26046 0.54151 0.0
C70 C 0.64622 0.38705 0.52402 0.0
O71 O 0.71614 0.35069 0.52816 0.0
O72 O 0.57373 0.36325 0.52922 0.0
C73 C 0.92415 0.32458 0.54498 0.0
O74 O 0.88752 0.39903 0.54256 0.0
C75 C 0.36216 0.29982 0.54366 0.0
C76 C 0.31021 0.17057 0.54812 0.0
C77 C 0.28659 0.25499 0.54598 0.0
N78 N 0.42786 0.24421 0.54447 0.0
N79 N 0.39615 0.1672 0.54717 0.0
C80 C 0.37158 0.39298 0.54022 0.0
H81 H 0.38069 0.40054 0.52703 0.0
H82 H 0.42929 0.41919 0.54665 0.0
H83 H 0.31375 0.42928 0.54389 0.0
C84 C 0.71991 0.23937 0.57715 0.0
N85 N 0.69242 0.25152 0.56182 0.0
N86 N 0.60846 0.2594 0.56162 0.0
C87 C 0.58024 0.25619 0.5769 0.0
C88 C 0.64965 0.24212 0.58725 0.0
C89 C 0.81093 0.22042 0.58178 0.0
H90 H 0.83773 0.17293 0.57307 0.0
H91 H 0.84936 0.28011 0.58104 0.0
H92 H 0.81627 0.19561 0.59426 0.0
O93 O 0.7254 0.1515 0.52897 0.0
O94 O 0.5835 0.16472 0.52708 0.0
H95 H 0.45397 0.2046 0.57885 0.0
H96 H 0.48265 0.2816 0.59461 0.0
C97 C 0.4884 0.26569 0.58152 0.0
H98 H 0.45778 0.31689 0.57432 0.0
H99 H 0.43333 0.11198 0.5482 0.0
O100 O 0.87863 0.25697 0.54552 0.0
C101 C 0.65298 0.12801 0.52314 0.0
Co102 Co 0.10834 0.34047 0.78886 0.0
Co103 Co 0.09024 0.14151 0.79237 0.0
C104 C 0.96499 0.229 0.77325 0.0
O105 O 0.00694 0.29846 0.77581 0.0
O106 O 0.98499 0.1592 0.78006 0.0
C107 C 0.06182 0.5157 0.79769 0.0
O108 O 0.00861 0.4808 0.80781 0.0
C109 C 0.06796 0.95344 0.79287 0.0
C110 C 0.16742 0.91894 0.81101 0.0
C111 C 0.10462 0.88444 0.80075 0.0
N112 N 0.10635 0.02561 0.79849 0.0
N113 N 0.16628 0.00434 0.80918 0.0
C114 C 0.00185 0.9509 0.77953 0.0
H115 H 0.02263 0.99214 0.76952 0.0
H116 H 0.94093 0.97745 0.78417 0.0
H117 H 0.99061 0.88448 0.77489 0.0
C118 C 0.12603 0.32791 0.82509 0.0
N119 N 0.11264 0.29452 0.81003 0.0
N120 N 0.09268 0.21294 0.81122 0.0
C121 C 0.08504 0.19403 0.82697 0.0
C122 C 0.10768 0.26555 0.83627 0.0
C123 C 0.16367 0.41443 0.82883 0.0
H124 H 0.19686 0.43884 0.81814 0.0
H125 H 0.11231 0.4596 0.83239 0.0
H126 H 0.20969 0.41076 0.83921 0.0
O127 O 0.20673 0.30501 0.77643 0.0
O128 O 0.18315 0.16454 0.77679 0.0
H129 H 0.10499 0.07064 0.83733 0.0
H130 H 0.00972 0.1237 0.84373 0.0
C131 C 0.05106 0.1112 0.83314 0.0
H132 H 0.01355 0.07635 0.82355 0.0
H133 H 0.20748 0.04821 0.81505 0.0
O134 O 0.10708 0.46748 0.78874 0.0
C135 C 0.2235 0.22924 0.77165 0.0
Co136 Co 0.02606 0.26229 0.95193 0.0
Co137 Co 0.22951 0.26279 0.95204 0.0
C138 C 0.13636 0.39376 0.97032 0.0
O139 O 0.06471 0.35959 0.96616 0.0
O140 O 0.20762 0.36675 0.96496 0.0
C141 C 0.85257 0.33115 0.95085 0.0
O142 O 0.88781 0.40506 0.95502 0.0
C143 C 0.41584 0.30004 0.95058 0.0
C144 C 0.46578 0.17276 0.9433 0.0
C145 C 0.49069 0.25574 0.94731 0.0
N146 N 0.34928 0.24563 0.94853 0.0
N147 N 0.37974 0.1698 0.94412 0.0
C148 C 0.40788 0.39136 0.95614 0.0
H149 H 0.39228 0.39314 0.9692 0.0
H150 H 0.35438 0.42229 0.94944 0.0
H151 H 0.46838 0.4273 0.95437 0.0
C152 C 0.05411 0.26014 0.91662 0.0
N153 N 0.08373 0.26049 0.93203 0.0
N154 N 0.16795 0.26495 0.93208 0.0
C155 C 0.19444 0.27078 0.91671 0.0
C156 C 0.12327 0.26709 0.90637 0.0
C157 C 0.96135 0.25294 0.91188 0.0
H158 H 0.93039 0.20263 0.91909 0.0
H159 H 0.92927 0.31473 0.91467 0.0
H160 H 0.95279 0.23743 0.89878 0.0
O161 O 0.05091 0.16019 0.96447 0.0
O162 O 0.19319 0.16839 0.96611 0.0
H163 H 0.3205 0.22148 0.91327 0.0
H164 H 0.29064 0.30456 0.89937 0.0
C165 C 0.28583 0.28307 0.91205 0.0
H166 H 0.31702 0.33111 0.92032 0.0
H167 H 0.34168 0.11557 0.9419 0.0
O168 O 0.89924 0.26532 0.94874 0.0
C169 C 0.12252 0.13444 0.97004 0.0
Co170 Co 0.0815 0.62075 0.19999 0.0
Co171 Co 0.09974 0.82361 0.20373 0.0
C172 C 0.95779 0.72463 0.21908 0.0
O173 O 0.976 0.65566 0.21136 0.0
O174 O 0.00048 0.79346 0.21716 0.0
C175 C 0.01394 0.44526 0.19606 0.0
O176 O 0.93778 0.4795 0.1978 0.0
C177 C 0.05847 0.00983 0.20099 0.0
C178 C 0.18849 0.06623 0.20181 0.0
C179 C 0.10263 0.08695 0.2005 0.0
N180 N 0.11569 0.94583 0.20251 0.0
N181 N 0.19326 0.98036 0.20302 0.0
C182 C 0.96377 0.99755 0.19958 0.0
H183 H 0.94846 0.93084 0.19558 0.0
H184 H 0.93568 0.04364 0.19091 0.0
H185 H 0.93523 0.01043 0.21159 0.0
C186 C 0.10858 0.66419 0.16565 0.0
N187 N 0.09777 0.68672 0.18129 0.0
N188 N 0.09731 0.77101 0.18269 0.0
C189 C 0.10427 0.80453 0.16784 0.0
C190 C 0.11224 0.73795 0.15655 0.0
C191 C 0.11736 0.57381 0.15959 0.0
H192 H 0.15141 0.53481 0.16874 0.0
H193 H 0.05241 0.54651 0.15746 0.0
H194 H 0.15239 0.57101 0.14801 0.0
O195 O 0.17626 0.63965 0.21574 0.0
O196 O 0.19733 0.78102 0.21658 0.0
H197 H 0.16046 0.92956 0.16972 0.0
H198 H 0.09804 0.91088 0.15133 0.0
C199 C 0.10195 0.89846 0.1645 0.0
H200 H 0.04547 0.92751 0.17037 0.0
H201 H 0.24974 0.9451 0.20411 0.0
O202 O 0.07989 0.49338 0.19571 0.0
C203 C 0.21655 0.70573 0.22099 0.0
Co204 Co 0.52398 0.73932 0.45461 0.0
Co205 Co 0.72348 0.75482 0.45078 0.0
C206 C 0.63265 0.87948 0.47079 0.0
O207 O 0.56132 0.84331 0.46712 0.0
O208 O 0.70344 0.85416 0.46496 0.0
C209 C 0.34917 0.78471 0.44629 0.0
O210 O 0.38453 0.84104 0.43683 0.0
C211 C 0.91101 0.78125 0.45045 0.0
C212 C 0.94681 0.6889 0.43107 0.0
C213 C 0.98053 0.74796 0.44219 0.0
N214 N 0.83933 0.74452 0.44424 0.0
N215 N 0.86139 0.68886 0.43279 0.0
C216 C 0.91267 0.84141 0.46478 0.0
H217 H 0.87227 0.81524 0.47446 0.0
H218 H 0.88456 0.90364 0.46118 0.0
H219 H 0.97895 0.85216 0.4695 0.0
C220 C 0.53565 0.72463 0.41834 0.0
N221 N 0.56968 0.73624 0.43339 0.0
N222 N 0.65083 0.75767 0.43214 0.0
C223 C 0.66861 0.76834 0.41641 0.0
C224 C 0.59706 0.74568 0.40714 0.0
C225 C 0.44952 0.68621 0.41462 0.0
H226 H 0.42763 0.64893 0.42503 0.0
H227 H 0.40273 0.73765 0.412 0.0
H228 H 0.45239 0.64373 0.4037 0.0
O229 O 0.56388 0.6439 0.46757 0.0
O230 O 0.70471 0.65373 0.46451 0.0
H231 H 0.79125 0.75395 0.40538 0.0
H232 H 0.73547 0.84958 0.40015 0.0
C233 C 0.75002 0.80573 0.41026 0.0
H234 H 0.78505 0.84158 0.42006 0.0
H235 H 0.81814 0.64902 0.42643 0.0
O236 O 0.39706 0.7367 0.45474 0.0
C237 C 0.63962 0.61917 0.47077 0.0
Co238 Co 0.59569 0.10823 0.70178 0.0
Co239 Co 0.58457 0.31154 0.7013 0.0
C240 C 0.45804 0.21005 0.7188 0.0
O241 O 0.49304 0.14018 0.71421 0.0
O242 O 0.48396 0.28318 0.71424 0.0
C243 C 0.52791 0.9371 0.69666 0.0
O244 O 0.4536 0.97604 0.69551 0.0
C245 C 0.54348 0.49805 0.69972 0.0
C246 C 0.66645 0.54751 0.69075 0.0
C247 C 0.58576 0.5726 0.69552 0.0
N248 N 0.59693 0.43151 0.69741 0.0
N249 N 0.67022 0.46179 0.69207 0.0
C250 C 0.45515 0.49028 0.70622 0.0
H251 H 0.45974 0.4751 0.71929 0.0
H252 H 0.42092 0.43638 0.69993 0.0
H253 H 0.41863 0.5507 0.70475 0.0
C254 C 0.61525 0.13594 0.66661 0.0
N255 N 0.60019 0.16481 0.68177 0.0
N256 N 0.58716 0.24811 0.68151 0.0
C257 C 0.58893 0.27401 0.66606 0.0
C258 C 0.6083 0.20426 0.65613 0.0
C259 C 0.64085 0.04592 0.66247 0.0
H260 H 0.68449 0.02116 0.67204 0.0
H261 H 0.58278 0.00484 0.66197 0.0
H262 H 0.6725 0.04206 0.65055 0.0
O263 O 0.6927 0.14168 0.71602 0.0
O264 O 0.68341 0.28405 0.71544 0.0
H265 H 0.63222 0.40147 0.66168 0.0
H266 H 0.5486 0.36432 0.64802 0.0
C267 C 0.57196 0.36377 0.66079 0.0
H268 H 0.52365 0.39451 0.66868 0.0
H269 H 0.72327 0.42371 0.68944 0.0
O270 O 0.59608 0.98099 0.69896 0.0
C271 C 0.71781 0.21596 0.72068 0.0
C272 C 0.18964 0.80846 0.11537 0.0
C273 C 0.13744 0.75699 0.10479 0.0
C274 C 0.06284 0.70092 0.12809 0.0
C275 C 0.12179 0.74394 0.1387 0.0
N276 N 0.2561 0.82047 0.142 0.0
N277 N 0.04331 0.63418 0.10168 0.0
C278 C 0.18995 0.79218 0.13222 0.0
C279 C 0.07985 0.69687 0.11132 0.0
N280 N 0.23586 0.8752 0.10953 0.0
N281 N 0.98862 0.66729 0.13379 0.0
H282 H 0.05799 0.62599 0.08947 0.0
H283 H 0.00624 0.58487 0.10627 0.0
H284 H 0.97095 0.67344 0.14588 0.0
H285 H 0.94059 0.64185 0.12616 0.0
H286 H 0.26859 0.91914 0.11706 0.0
H287 H 0.23434 0.89183 0.09737 0.0
H288 H 0.31078 0.8495 0.13751 0.0
H289 H 0.26037 0.80688 0.1543 0.0
C290 C 0.531 0.78715 0.38031 0.0
C291 C 0.59154 0.73826 0.38919 0.0
C292 C 0.65762 0.69159 0.36392 0.0
C293 C 0.59119 0.73201 0.35499 0.0
N294 N 0.45277 0.80109 0.35494 0.0
N295 N 0.69671 0.62483 0.38911 0.0
C296 C 0.52418 0.77481 0.36324 0.0
C297 C 0.65019 0.68462 0.3809 0.0
N298 N 0.48257 0.84781 0.38799 0.0
N299 N 0.72947 0.66275 0.35636 0.0
H300 H 0.69023 0.61496 0.40149 0.0
H301 H 0.73459 0.57911 0.38331 0.0
H302 H 0.73937 0.67 0.344 0.0
H303 H 0.78295 0.63999 0.36266 0.0
H304 H 0.44359 0.89078 0.38178 0.0
H305 H 0.48761 0.86076 0.40041 0.0
H306 H 0.39876 0.82539 0.36066 0.0
H307 H 0.44403 0.79057 0.3425 0.0
C308 C 0.69228 0.28017 0.61611 0.0
C309 C 0.64695 0.226 0.60492 0.0
C310 C 0.57582 0.15609 0.62732 0.0
C311 C 0.62591 0.20587 0.63851 0.0
N312 N 0.75048 0.29557 0.64334 0.0
N313 N 0.56599 0.09545 0.60016 0.0
C314 C 0.6902 0.26172 0.63283 0.0
C315 C 0.59516 0.15842 0.61061 0.0
N316 N 0.73382 0.35155 0.61095 0.0
N317 N 0.50723 0.10997 0.63243 0.0
H318 H 0.58167 0.09329 0.58793 0.0
H319 H 0.53421 0.04083 0.604 0.0
H320 H 0.48896 0.1087 0.6445 0.0
H321 H 0.46376 0.07967 0.62446 0.0
H322 H 0.76041 0.39749 0.6189 0.0
H323 H 0.73464 0.36922 0.59884 0.0
H324 H 0.80308 0.33071 0.63954 0.0
H325 H 0.75298 0.28071 0.65561 0.0
C326 C 0.16569 0.20564 0.87933 0.0
C327 C 0.12174 0.26938 0.88839 0.0
C328 C 0.06459 0.32905 0.86322 0.0
C329 C 0.11574 0.2709 0.85421 0.0
N330 N 0.23278 0.16994 0.85394 0.0
N331 N 0.04669 0.40465 0.88879 0.0
C332 C 0.17184 0.21405 0.86234 0.0
C333 C 0.07637 0.33516 0.88029 0.0
N334 N 0.19843 0.13509 0.88677 0.0
N335 N 0.00212 0.37556 0.85565 0.0
H336 H 0.05637 0.41272 0.90126 0.0
H337 H 0.02026 0.4581 0.88323 0.0
H338 H 0.98954 0.371 0.84322 0.0
H339 H 0.95753 0.41234 0.86193 0.0
H340 H 0.2237 0.08299 0.88038 0.0
H341 H 0.19239 0.1245 0.89912 0.0
H342 H 0.2803 0.13371 0.85958 0.0
H343 H 0.24141 0.17682 0.84153 0.0
C344 C 0.16931 0.49474 0.01218 0.0
C345 C 0.13006 0.57549 0.00988 0.0
C346 C 0.09713 0.53815 0.98139 0.0
C347 C 0.13732 0.4579 0.98365 0.0
N348 N 0.19912 0.35238 0.00143 0.0
N349 N 0.06654 0.68025 0.99209 0.0
C350 C 0.17085 0.43436 -0.00092 0.0
C351 C 0.09562 0.59859 0.99447 0.0
N352 N 0.2062 0.47654 0.02688 0.0
N353 N 0.05916 0.55578 0.96675 0.0
H354 H 0.06297 0.72679 0.00127 0.0
H355 H 0.05098 0.70481 0.9808 0.0
H356 H 0.06457 0.51586 0.95654 0.0
H357 H 0.01859 0.60752 0.9648 0.0
H358 H 0.24592 0.42424 0.02891 0.0
H359 H 0.20028 0.51627 0.03711 0.0
H360 H 0.21469 0.3276 0.01271 0.0
H361 H 0.20168 0.30581 0.99223 0.0
C362 C 0.80867 0.64224 0.25139 0.0
C363 C 0.78193 0.71988 0.25914 0.0
C364 C 0.85159 0.79774 0.23758 0.0
C365 C 0.89356 0.72187 0.23226 0.0
N366 N 0.93301 0.5768 0.24003 0.0
N367 N 0.80647 0.87392 0.26152 0.0
C368 C 0.87873 0.64517 0.24086 0.0
C369 C 0.81182 0.79874 0.25286 0.0
N370 N 0.76597 0.56651 0.25309 0.0
N371 N 0.84649 0.86769 0.22798 0.0
H372 H 0.78874 0.87683 0.27362 0.0
H373 H 0.83197 0.93117 0.25736 0.0
H374 H 0.86535 0.86561 0.21595 0.0
H375 H 0.81227 0.9225 0.23129 0.0
H376 H 0.78404 0.51075 0.24685 0.0
H377 H 0.70609 0.56186 0.25836 0.0
H378 H 0.92413 0.52258 0.24703 0.0
H379 H 0.99261 0.57896 0.23459 0.0
C380 C 0.61509 0.47346 0.48168 0.0
C381 C 0.65187 0.55619 0.48372 0.0
C382 C 0.68866 0.52699 0.51216 0.0
C383 C 0.64786 0.44614 0.51032 0.0
N384 N 0.58879 0.33358 0.49289 0.0
N385 N 0.71822 0.66603 0.50091 0.0
C386 C 0.61519 0.41698 0.49496 0.0
C387 C 0.68866 0.58369 0.49888 0.0
N388 N 0.57835 0.44992 0.46707 0.0
N389 N 0.72832 0.54884 0.52659 0.0
H390 H 0.72151 0.70964 0.49156 0.0
H391 H 0.73519 0.69388 0.51206 0.0
H392 H 0.72477 0.51128 0.53687 0.0
H393 H 0.76875 0.60152 0.52826 0.0
H394 H 0.5399 0.3959 0.46523 0.0
H395 H 0.58357 0.4867 0.45672 0.0
H396 H 0.57368 0.305 0.48171 0.0
H397 H 0.58773 0.28971 0.50223 0.0
C398 C 0.92299 0.18477 0.74503 0.0
C399 C 0.90134 0.2263 0.7599 0.0
C400 C 0.75935 0.26122 0.74902 0.0
C401 C 0.78239 0.22325 0.73389 0.0
N402 N 0.88962 0.16336 0.71642 0.0
N403 N 0.80615 0.31546 0.77546 0.0
C404 C 0.86513 0.18865 0.73161 0.0
C405 C 0.82178 0.26833 0.76169 0.0
N406 N -0.00099 0.14181 0.74373 0.0
N407 N 0.67673 0.28659 0.75158 0.0
H408 H 0.84857 0.31831 0.78538 0.0
H409 H 0.75394 0.35637 0.77669 0.0
H410 H 0.62864 0.28393 0.74267 0.0
H411 H 0.65367 0.30435 0.76291 0.0
H412 H 0.01355 0.10124 0.73401 0.0
H413 H 0.0465 0.14261 0.75277 0.0
H414 H 0.952 0.14622 0.71354 0.0
H415 H 0.84911 0.16664 0.70626 0.0
C416 C 0.36115 0.17682 0.76011 0.0
C417 C 0.28117 0.21764 0.75785 0.0
C418 C 0.31112 0.23858 0.7291 0.0
C419 C 0.39486 0.20686 0.73184 0.0
N420 N 0.50417 0.15335 0.75023 0.0
N421 N 0.17727 0.28728 0.7405 0.0
C422 C 0.4209 0.17692 0.74737 0.0
C423 C 0.25528 0.24847 0.74241 0.0
N424 N 0.38005 0.13805 0.77446 0.0
N425 N 0.28432 0.25618 0.71365 0.0
H426 H 0.13128 0.28933 0.7495 0.0
H427 H 0.15883 0.32067 0.73023 0.0
H428 H 0.32378 0.24877 0.70365 0.0
H429 H 0.22152 0.27149 0.71044 0.0
H430 H 0.43257 0.098 0.77617 0.0
H431 H 0.33982 0.14067 0.7844 0.0
H432 H 0.52957 0.14202 0.76173 0.0
H433 H 0.55063 0.1512 0.74134 0.0
C434 C 0.364 0.67447 0.23135 0.0
C435 C 0.27798 0.69621 0.23452 0.0
C436 C 0.30913 0.70298 0.26371 0.0
C437 C 0.39693 0.69131 0.26037 0.0
N438 N 0.51115 0.67496 0.24114 0.0
N439 N 0.16656 0.73406 0.25326 0.0
C440 C 0.42533 0.67848 0.24424 0.0
C441 C 0.24976 0.71096 0.2506 0.0
N442 N 0.38678 0.64971 0.21604 0.0
N443 N 0.28269 0.70427 0.27942 0.0
H444 H 0.11997 0.73627 0.24406 0.0
H445 H 0.14427 0.75545 0.26443 0.0
H446 H 0.32512 0.69839 0.28925 0.0
H447 H 0.21869 0.70421 0.28274 0.0
H448 H 0.44637 0.62399 0.21328 0.0
H449 H 0.34363 0.64856 0.20623 0.0
H450 H 0.53601 0.67594 0.22953 0.0
H451 H 0.55864 0.67747 0.25018 0.0
C452 C 0.66785 0.02709 0.48116 0.0
C453 C 0.63501 0.94422 0.48402 0.0
C454 C 0.61041 0.98312 0.51247 0.0
C455 C 0.64975 0.06344 0.50992 0.0
N456 N 0.72352 0.16091 0.49245 0.0
N457 N 0.5884 0.83728 0.50285 0.0
C458 C 0.68116 0.08502 0.49445 0.0
C459 C 0.60934 0.92059 0.49977 0.0
N460 N 0.68257 0.05154 0.46563 0.0
N461 N 0.57381 0.96667 0.52702 0.0
H462 H 0.58654 0.78871 0.49402 0.0
H463 H 0.57975 0.81425 0.51446 0.0
H464 H 0.57823 0.00858 0.53701 0.0
H465 H 0.53442 0.91395 0.52892 0.0
H466 H 0.69762 0.114 0.46247 0.0
H467 H 0.67244 0.01084 0.45559 0.0
H468 H 0.75684 0.17555 0.48205 0.0
H469 H 0.73013 0.20795 0.50152 0.0
C470 C 0.09147 0.04286 0.01182 0.0
C471 C 0.13142 0.96197 0.00984 0.0
C472 C 0.16345 0.99298 0.98151 0.0
C473 C 0.12297 0.07353 0.98346 0.0
N474 N 0.06127 0.18274 0.00084 0.0
N475 N 0.19377 0.85311 0.99241 0.0
C476 C 0.08956 0.1003 -0.00132 0.0
C477 C 0.16523 0.93543 0.99463 0.0
N478 N 0.0543 0.06406 0.02624 0.0
N479 N 0.20147 0.97227 0.96714 0.0
H480 H 0.19677 0.80825 0.00157 0.0
H481 H 0.20887 0.82618 0.9812 0.0
H482 H 0.19603 0.00996 0.95688 0.0
H483 H 0.2423 0.92031 0.96551 0.0
H484 H 0.01379 0.11624 0.02791 0.0
H485 H 0.06053 0.02683 0.03655 0.0
H486 H 0.04588 0.20986 0.01202 0.0
H487 H 0.05881 0.22745 0.99164 0.0
C488 C 0.64454 0.8481 0.05893 0.0
C489 C 0.68186 0.8029 0.04578 0.0
C490 C 0.54295 0.79864 0.0314 0.0
C491 C 0.50347 0.83288 0.04546 0.0
N492 N 0.5146 0.88792 0.07292 0.0
N493 N 0.6683 0.73212 0.01964 0.0
C494 C 0.55383 0.85818 0.05925 0.0
C495 C 0.63161 0.77784 0.03199 0.0
N496 N 0.6961 0.8816 0.07105 0.0
N497 N 0.49612 0.78887 0.01731 0.0
H498 H 0.73392 0.71986 0.01922 0.0
H499 H 0.63337 0.70234 0.01025 0.0
H500 H 0.43138 0.80491 0.01635 0.0
H501 H 0.52275 0.7725 0.00621 0.0
H502 H 0.67438 0.92251 0.08019 0.0
H503 H 0.76253 0.87406 0.07126 0.0
H504 H 0.5462 0.89776 0.08401 0.0
H505 H 0.44872 0.89804 0.0735 0.0
C506 C 0.52164 0.22777 0.30726 0.0
C507 C 0.57397 0.26352 0.29523 0.0
C508 C 0.57463 0.12552 0.2804 0.0
C509 C 0.53157 0.08712 0.29342 0.0
N510 N 0.46662 0.09948 0.31965 0.0
N511 N 0.65353 0.24775 0.27061 0.0
C512 C 0.50469 0.13786 0.30688 0.0
C513 C 0.6011 0.21278 0.28183 0.0
N514 N 0.48788 0.28003 0.319 0.0
N515 N 0.58715 0.07926 0.26639 0.0
H516 H 0.66994 0.31263 0.27067 0.0
H517 H 0.6846 0.21189 0.26173 0.0
H518 H 0.56702 0.01577 0.26479 0.0
H519 H 0.61018 0.10555 0.25583 0.0
H520 H 0.44186 0.26025 0.32709 0.0
H521 H 0.50116 0.34554 0.31993 0.0
H522 H 0.45541 0.13036 0.33069 0.0
H523 H 0.45035 0.03467 0.3196 0.0
C524 C 0.15708 0.3173 0.55944 0.0
C525 C 0.19694 0.28626 0.54518 0.0
C526 C 0.05888 0.28647 0.5305 0.0
C527 C 0.01879 0.31718 0.54478 0.0
N528 N 0.02971 0.37717 0.57184 0.0
N529 N 0.19152 0.25838 0.5164 0.0
C530 C 0.0681 0.3378 0.55893 0.0
C531 C 0.14947 0.27624 0.53046 0.0
N532 N 0.20383 0.32412 0.57358 0.0
N533 N 0.00994 0.2653 0.51708 0.0
H534 H 0.25779 0.25023 0.51599 0.0
H535 H 0.16238 0.25858 0.50497 0.0
H536 H 0.9441 0.27637 0.51632 0.0
H537 H 0.03334 0.23273 0.50698 0.0
H538 H 0.1772 0.33666 0.58484 0.0
H539 H 0.2697 0.31293 0.57421 0.0
H540 H 0.06305 0.40158 0.58194 0.0
H541 H 0.96438 0.39111 0.57196 0.0
C542 C 0.15922 0.739 0.79339 0.0
C543 C 0.08952 0.7914 0.79795 0.0
C544 C 0.99776 0.66411 0.79839 0.0
C545 C 0.07123 0.61073 0.79706 0.0
N546 N 0.22692 0.60205 0.79654 0.0
N547 N 0.94407 0.80222 0.80729 0.0
C548 C 0.15346 0.64921 0.79533 0.0
C549 C 0.00896 0.7537 0.80111 0.0
N550 N 0.23062 0.7747 0.78691 0.0
N551 N 0.91732 0.63038 0.79634 0.0
H552 H 0.95009 0.86779 0.80976 0.0
H553 H 0.88713 0.77566 0.81132 0.0
H554 H 0.90614 0.56633 0.7931 0.0
H555 H 0.86238 0.66819 0.79587 0.0
H556 H 0.27993 0.73812 0.78199 0.0
H557 H 0.23588 0.84017 0.78474 0.0
H558 H 0.28772 0.62994 0.79698 0.0
H559 H 0.22824 0.53701 0.79897 0.0
C560 C 0.71805 0.28113 0.96383 0.0
C561 C 0.7581 0.32129 0.95065 0.0
C562 C 0.6206 0.32581 0.93577 0.0
C563 C 0.58064 0.28604 0.94899 0.0
N564 N 0.58544 0.2417 0.97675 0.0
N565 N 0.74713 0.3961 0.92546 0.0
C566 C 0.6277 0.26859 0.96339 0.0
C567 C 0.70905 0.34846 0.93707 0.0
N568 N 0.76682 0.25347 0.97663 0.0
N569 N 0.57456 0.33899 0.92179 0.0
H570 H 0.81209 0.41207 0.9259 0.0
H571 H 0.71369 0.42516 0.91605 0.0
H572 H 0.50909 0.32594 0.92065 0.0
H573 H 0.60163 0.35838 0.91103 0.0
H574 H 0.74367 0.21432 0.98564 0.0
H575 H 0.83234 0.26599 0.97788 0.0
H576 H 0.61415 0.2361 0.98815 0.0
H577 H 0.51934 0.23155 0.97681 0.0
C578 C 0.06685 0.21427 0.18362 0.0
C579 C 0.06781 0.17502 0.19896 0.0
C580 C 0.01631 0.30846 0.21169 0.0
C581 C 0.025 0.35056 0.19669 0.0
N582 N 0.05689 0.34527 0.16828 0.0
N583 N 0.04696 0.18296 0.22777 0.0
C584 C 0.0495 0.30372 0.1826 0.0
C585 C 0.04238 0.22133 0.21302 0.0
N586 N 0.08072 0.16523 0.17 0.0
N587 N 0.98334 0.35192 0.2247 0.0
H588 H 0.06287 0.11857 0.22914 0.0
H589 H 0.03977 0.21547 0.23879 0.0
H590 H 0.96774 0.41675 0.2245 0.0
H591 H 0.96589 0.32292 0.23539 0.0
H592 H 0.07336 0.18728 0.15825 0.0
H593 H 0.09365 0.0997 0.17038 0.0
H594 H 0.08475 0.3187 0.158 0.0
H595 H 0.03716 0.40842 0.16685 0.0
C596 C 0.11235 0.84215 0.44353 0.0
C597 C 0.07334 0.76102 0.44552 0.0
C598 C 0.21432 0.69411 0.44762 0.0
C599 C 0.25409 0.7763 0.44689 0.0
N600 N 0.23688 0.93015 0.44961 0.0
N601 N 0.08706 0.61607 0.45483 0.0
C602 C 0.20195 0.85101 0.44647 0.0
C603 C 0.12435 0.68905 0.44932 0.0
N604 N 0.06506 0.91003 0.43826 0.0
N605 N 0.26048 0.62037 0.4457 0.0
H606 H 0.0214 0.61116 0.45681 0.0
H607 H 0.12245 0.56456 0.45919 0.0
H608 H 0.32575 0.61887 0.4435 0.0
H609 H 0.23178 0.5601 0.44448 0.0
H610 H 0.09261 0.96805 0.43503 0.0
H611 H -0.00056 0.906 0.43576 0.0
H612 H 0.19999 0.98548 0.45077 0.0
H613 H 0.30093 0.93915 0.45305 0.0
C614 C 0.50817 0.7922 0.68302 0.0
C615 C 0.53175 0.84208 0.697 0.0
C616 C 0.57992 0.71259 0.71086 0.0
C617 C 0.55685 0.66288 0.69688 0.0
N618 N 0.48333 0.65034 0.67107 0.0
N619 N 0.569 0.84851 0.72546 0.0
C620 C 0.51559 0.70122 0.68342 0.0
C621 C 0.56143 0.80182 0.71131 0.0
N622 N 0.48273 0.83203 0.66915 0.0
N623 N 0.62169 0.67479 0.72354 0.0
H624 H 0.55447 0.91369 0.72631 0.0
H625 H 0.58192 0.8215 0.73667 0.0
H626 H 0.63197 0.60882 0.72405 0.0
H627 H 0.65015 0.70903 0.73317 0.0
H628 H 0.47445 0.80047 0.658 0.0
H629 H 0.4748 0.8982 0.66848 0.0
H630 H 0.44511 0.67303 0.66164 0.0
H631 H 0.48889 0.58367 0.67096 0.0
loop_
_geom_bond_atom_site_label_1
_geom_bond_atom_site_label_2
_geom_bond_distance
_geom_bond_site_symmetry_2
_ccdc_geom_bond_type
Co0 O3 1.970 . S
Co0 N17 1.989 . S
Co0 O25 1.967 . S
Co0 O32 1.920 . S
Co1 O4 1.966 . S
Co1 N10 2.022 1_455 S
Co1 N18 1.993 . S
Co1 O26 1.941 . S
C2 O3 1.258 . S
C2 O4 1.263 . S
O3 Co0 1.970 . S
O3 C2 1.258 . S
O4 Co1 1.966 . S
O4 C2 1.263 . S
C5 O6 1.235 . S
C5 O32 1.289 . S
O6 C5 1.235 . S
C7 C9 1.400 . S
C7 N10 1.351 . S
C7 C12 1.501 . S
C8 C9 1.387 . S
C8 N11 1.341 . S
C9 C7 1.400 . S
C9 C8 1.387 . S
N10 Co1 2.022 1_655 S
N10 C7 1.351 . S
N10 N11 1.365 . S
N11 C8 1.341 . S
N11 N10 1.365 . S
N11 H31 0.862 . S
C12 C7 1.501 . S
C12 H13 0.961 . S
C12 H14 0.961 . S
C12 H15 0.960 . S
H13 C12 0.961 . S
H14 C12 0.961 . S
H15 C12 0.960 . S
C16 N17 1.342 . S
C16 C20 1.401 . S
C16 C21 1.499 . S
N17 Co0 1.989 . S
N17 C16 1.342 . S
N17 N18 1.388 . S
N18 Co1 1.993 . S
N18 N17 1.388 . S
N18 C19 1.346 . S
C19 N18 1.346 . S
C19 C20 1.396 . S
C19 C29 1.510 1_455 S
C20 C16 1.401 . S
C20 C19 1.396 . S
C21 C16 1.499 . S
C21 H22 0.959 . S
C21 H23 0.960 . S
C21 H24 0.961 . S
H22 C21 0.959 . S
H23 C21 0.960 . S
H24 C21 0.961 . S
O25 Co0 1.967 . S
O25 C33 1.258 . S
O26 Co1 1.941 . S
O26 C33 1.266 . S
H27 C29 0.959 . S
H28 C29 0.961 . S
C29 C19 1.510 1_655 S
C29 H27 0.959 . S
C29 H28 0.961 . S
C29 H30 0.960 . S
H30 C29 0.960 . S
H31 N11 0.862 . S
O32 Co0 1.920 . S
O32 C5 1.289 . S
C33 O25 1.258 . S
C33 O26 1.266 . S
Co34 O37 1.970 . S
Co34 N51 1.989 . S
Co34 O59 1.967 . S
Co34 O66 1.920 . S
Co35 O38 1.966 . S
Co35 N44 2.022 . S
Co35 N52 1.993 . S
Co35 O60 1.941 . S
C36 O37 1.258 . S
C36 O38 1.263 . S
O37 Co34 1.970 . S
O37 C36 1.258 . S
O38 Co35 1.966 . S
O38 C36 1.263 . S
C39 O40 1.235 . S
C39 O66 1.289 . S
O40 C39 1.235 . S
C41 C43 1.400 . S
C41 N44 1.351 . S
C41 C46 1.501 . S
C42 C43 1.387 . S
C42 N45 1.341 . S
C43 C41 1.400 . S
C43 C42 1.387 . S
N44 Co35 2.022 . S
N44 C41 1.351 . S
N44 N45 1.365 . S
N45 C42 1.341 . S
N45 N44 1.365 . S
N45 H65 0.862 . S
C46 C41 1.501 . S
C46 H47 0.961 . S
C46 H48 0.961 . S
C46 H49 0.960 . S
H47 C46 0.961 . S
H48 C46 0.961 . S
H49 C46 0.960 . S
C50 N51 1.342 . S
C50 C54 1.401 . S
C50 C55 1.499 . S
N51 Co34 1.989 . S
N51 C50 1.342 . S
N51 N52 1.388 . S
N52 Co35 1.993 . S
N52 N51 1.388 . S
N52 C53 1.346 . S
C53 N52 1.346 . S
C53 C54 1.396 . S
C53 C63 1.510 . S
C54 C50 1.401 . S
C54 C53 1.396 . S
C55 C50 1.499 . S
C55 H56 0.959 . S
C55 H57 0.960 . S
C55 H58 0.961 . S
H56 C55 0.959 . S
H57 C55 0.960 . S
H58 C55 0.961 . S
O59 Co34 1.967 . S
O59 C67 1.258 . S
O60 Co35 1.941 . S
O60 C67 1.266 . S
H61 C63 0.959 . S
H62 C63 0.961 . S
C63 C53 1.510 . S
C63 H61 0.959 . S
C63 H62 0.961 . S
C63 H64 0.960 . S
H64 C63 0.960 . S
H65 N45 0.862 . S
O66 Co34 1.920 . S
O66 C39 1.289 . S
C67 O59 1.258 . S
C67 O60 1.266 . S
Co68 O71 1.970 . S
Co68 N85 1.989 . S
Co68 O93 1.967 . S
Co68 O100 1.920 . S
Co69 O72 1.966 . S
Co69 N78 2.022 . S
Co69 N86 1.993 . S
Co69 O94 1.941 . S
C70 O71 1.258 . S
C70 O72 1.263 . S
O71 Co68 1.970 . S
O71 C70 1.258 . S
O72 Co69 1.966 . S
O72 C70 1.263 . S
C73 O74 1.235 . S
C73 O100 1.289 . S
O74 C73 1.235 . S
C75 C77 1.400 . S
C75 N78 1.351 . S
C75 C80 1.501 . S
C76 C77 1.387 . S
C76 N79 1.341 . S
C77 C75 1.400 . S
C77 C76 1.387 . S
N78 Co69 2.022 . S
N78 C75 1.351 . S
N78 N79 1.365 . S
N79 C76 1.341 . S
N79 N78 1.365 . S
N79 H99 0.862 . S
C80 C75 1.501 . S
C80 H81 0.961 . S
C80 H82 0.961 . S
C80 H83 0.960 . S
H81 C80 0.961 . S
H82 C80 0.961 . S
H83 C80 0.960 . S
C84 N85 1.342 . S
C84 C88 1.401 . S
C84 C89 1.499 . S
N85 Co68 1.989 . S
N85 C84 1.342 . S
N85 N86 1.388 . S
N86 Co69 1.993 . S
N86 N85 1.388 . S
N86 C87 1.346 . S
C87 N86 1.346 . S
C87 C88 1.396 . S
C87 C97 1.510 . S
C88 C84 1.401 . S
C88 C87 1.396 . S
C89 C84 1.499 . S
C89 H90 0.959 . S
C89 H91 0.960 . S
C89 H92 0.961 . S
H90 C89 0.959 . S
H91 C89 0.960 . S
H92 C89 0.961 . S
O93 Co68 1.967 . S
O93 C101 1.258 . S
O94 Co69 1.941 . S
O94 C101 1.266 . S
H95 C97 0.959 . S
H96 C97 0.961 . S
C97 C87 1.510 . S
C97 H95 0.959 . S
C97 H96 0.961 . S
C97 H98 0.960 . S
H98 C97 0.960 . S
H99 N79 0.862 . S
O100 Co68 1.920 . S
O100 C73 1.289 . S
C101 O93 1.258 . S
C101 O94 1.266 . S
Co102 O105 1.970 1_455 S
Co102 N119 1.989 . S
Co102 O127 1.967 . S
Co102 O134 1.920 . S
Co103 O106 1.966 . S
Co103 N112 2.022 1_545 S
Co103 N120 1.993 . S
Co103 O128 1.941 . S
C104 O105 1.258 . S
C104 O106 1.263 1_655 S
O105 Co102 1.970 1_655 S
O105 C104 1.258 . S
O106 Co103 1.966 . S
O106 C104 1.263 1_455 S
C107 O108 1.235 1_455 S
C107 O134 1.289 . S
O108 C107 1.235 1_655 S
C109 C111 1.400 . S
C109 N112 1.351 . S
C109 C114 1.501 1_455 S
C110 C111 1.387 . S
C110 N113 1.341 . S
C111 C109 1.400 . S
C111 C110 1.387 . S
N112 Co103 2.022 1_565 S
N112 C109 1.351 . S
N112 N113 1.365 . S
N113 C110 1.341 . S
N113 N112 1.365 . S
N113 H133 0.862 . S
C114 C109 1.501 1_655 S
C114 H115 0.961 1_565 S
C114 H116 0.961 . S
C114 H117 0.960 . S
H115 C114 0.961 1_545 S
H116 C114 0.961 . S
H117 C114 0.960 . S
C118 N119 1.342 . S
C118 C122 1.401 . S
C118 C123 1.499 . S
N119 Co102 1.989 . S
N119 C118 1.342 . S
N119 N120 1.388 . S
N120 Co103 1.993 . S
N120 N119 1.388 . S
N120 C121 1.346 . S
C121 N120 1.346 . S
C121 C122 1.396 . S
C121 C131 1.510 . S
C122 C118 1.401 . S
C122 C121 1.396 . S
C123 C118 1.499 . S
C123 H124 0.959 . S
C123 H125 0.960 . S
C123 H126 0.961 . S
H124 C123 0.959 . S
H125 C123 0.960 . S
H126 C123 0.961 . S
O127 Co102 1.967 . S
O127 C135 1.258 . S
O128 Co103 1.941 . S
O128 C135 1.266 . S
H129 C131 0.959 . S
H130 C131 0.961 . S
C131 C121 1.510 . S
C131 H129 0.959 . S
C131 H130 0.961 . S
C131 H132 0.960 . S
H132 C131 0.960 . S
H133 N113 0.862 . S
O134 Co102 1.920 . S
O134 C107 1.289 . S
C135 O127 1.258 . S
C135 O128 1.266 . S
Co136 O139 1.970 . S
Co136 N153 1.989 . S
Co136 O161 1.967 . S
Co136 O168 1.920 1_455 S
Co137 O140 1.966 . S
Co137 N146 2.022 . S
Co137 N154 1.993 . S
Co137 O162 1.941 . S
C138 O139 1.258 . S
C138 O140 1.263 . S
O139 Co136 1.970 . S
O139 C138 1.258 . S
O140 Co137 1.966 . S
O140 C138 1.263 . S
C141 O142 1.235 . S
C141 O168 1.289 . S
O142 C141 1.235 . S
C143 C145 1.400 . S
C143 N146 1.351 . S
C143 C148 1.501 . S
C144 C145 1.387 . S
C144 N147 1.341 . S
C145 C143 1.400 . S
C145 C144 1.387 . S
N146 Co137 2.022 . S
N146 C143 1.351 . S
N146 N147 1.365 . S
N147 C144 1.341 . S
N147 N146 1.365 . S
N147 H167 0.862 . S
C148 C143 1.501 . S
C148 H149 0.961 . S
C148 H150 0.961 . S
C148 H151 0.960 . S
H149 C148 0.961 . S
H150 C148 0.961 . S
H151 C148 0.960 . S
C152 N153 1.342 . S
C152 C156 1.401 . S
C152 C157 1.499 1_455 S
N153 Co136 1.989 . S
N153 C152 1.342 . S
N153 N154 1.388 . S
N154 Co137 1.993 . S
N154 N153 1.388 . S
N154 C155 1.346 . S
C155 N154 1.346 . S
C155 C156 1.396 . S
C155 C165 1.510 . S
C156 C152 1.401 . S
C156 C155 1.396 . S
C157 C152 1.499 1_655 S
C157 H158 0.959 . S
C157 H159 0.960 . S
C157 H160 0.961 . S
H158 C157 0.959 . S
H159 C157 0.960 . S
H160 C157 0.961 . S
O161 Co136 1.967 . S
O161 C169 1.258 . S
O162 Co137 1.941 . S
O162 C169 1.266 . S
H163 C165 0.959 . S
H164 C165 0.961 . S
C165 C155 1.510 . S
C165 H163 0.959 . S
C165 H164 0.961 . S
C165 H166 0.960 . S
H166 C165 0.960 . S
H167 N147 0.862 . S
O168 Co136 1.920 1_655 S
O168 C141 1.289 . S
C169 O161 1.258 . S
C169 O162 1.266 . S
Co170 O173 1.970 1_455 S
Co170 N187 1.989 . S
Co170 O195 1.967 . S
Co170 O202 1.920 . S
Co171 O174 1.966 . S
Co171 N180 2.022 . S
Co171 N188 1.993 . S
Co171 O196 1.941 . S
C172 O173 1.258 . S
C172 O174 1.263 1_655 S
O173 Co170 1.970 1_655 S
O173 C172 1.258 . S
O174 Co171 1.966 . S
O174 C172 1.263 1_455 S
C175 O176 1.235 1_455 S
C175 O202 1.289 . S
O176 C175 1.235 1_655 S
C177 C179 1.400 . S
C177 N180 1.351 1_545 S
C177 C182 1.501 1_455 S
C178 C179 1.387 . S
C178 N181 1.341 . S
C179 C177 1.400 . S
C179 C178 1.387 . S
N180 Co171 2.022 . S
N180 C177 1.351 1_565 S
N180 N181 1.365 1_565 S
N181 C178 1.341 . S
N181 N180 1.365 1_545 S
N181 H201 0.863 . S
C182 C177 1.501 1_655 S
C182 H183 0.961 1_545 S
C182 H184 0.961 . S
C182 H185 0.960 . S
H183 C182 0.961 1_565 S
H184 C182 0.961 . S
H185 C182 0.960 . S
C186 N187 1.342 . S
C186 C190 1.401 . S
C186 C191 1.499 . S
N187 Co170 1.989 . S
N187 C186 1.342 . S
N187 N188 1.388 . S
N188 Co171 1.993 . S
N188 N187 1.388 . S
N188 C189 1.346 . S
C189 N188 1.346 . S
C189 C190 1.396 . S
C189 C199 1.510 . S
C190 C186 1.401 . S
C190 C189 1.396 . S
C191 C186 1.499 . S
C191 H192 0.959 . S
C191 H193 0.960 . S
C191 H194 0.961 . S
H192 C191 0.959 . S
H193 C191 0.960 . S
H194 C191 0.961 . S
O195 Co170 1.967 . S
O195 C203 1.258 . S
O196 Co171 1.941 . S
O196 C203 1.266 . S
H197 C199 0.959 . S
H198 C199 0.961 . S
C199 C189 1.510 . S
C199 H197 0.959 . S
C199 H198 0.961 . S
C199 H200 0.960 . S
H200 C199 0.960 . S
H201 N181 0.863 . S
O202 Co170 1.920 . S
O202 C175 1.289 . S
C203 O195 1.258 . S
C203 O196 1.266 . S
Co204 O207 1.970 . S
Co204 N221 1.989 . S
Co204 O229 1.967 . S
Co204 O236 1.920 . S
Co205 O208 1.966 . S
Co205 N214 2.022 . S
Co205 N222 1.993 . S
Co205 O230 1.941 . S
C206 O207 1.258 . S
C206 O208 1.263 . S
O207 Co204 1.970 . S
O207 C206 1.258 . S
O208 Co205 1.966 . S
O208 C206 1.263 . S
C209 O210 1.235 . S
C209 O236 1.289 . S
O210 C209 1.235 . S
C211 C213 1.400 1_655 S
C211 N214 1.351 . S
C211 C216 1.501 . S
C212 C213 1.387 1_655 S
C212 N215 1.341 . S
C213 C211 1.400 1_455 S
C213 C212 1.387 1_455 S
N214 Co205 2.022 . S
N214 C211 1.351 . S
N214 N215 1.365 . S
N215 C212 1.341 . S
N215 N214 1.365 . S
N215 H235 0.862 . S
C216 C211 1.501 . S
C216 H217 0.961 . S
C216 H218 0.961 . S
C216 H219 0.960 . S
H217 C216 0.961 . S
H218 C216 0.961 . S
H219 C216 0.960 . S
C220 N221 1.342 . S
C220 C224 1.401 . S
C220 C225 1.499 . S
N221 Co204 1.989 . S
N221 C220 1.342 . S
N221 N222 1.388 . S
N222 Co205 1.993 . S
N222 N221 1.388 . S
N222 C223 1.346 . S
C223 N222 1.346 . S
C223 C224 1.396 . S
C223 C233 1.510 . S
C224 C220 1.401 . S
C224 C223 1.396 . S
C225 C220 1.499 . S
C225 H226 0.959 . S
C225 H227 0.960 . S
C225 H228 0.961 . S
H226 C225 0.959 . S
H227 C225 0.960 . S
H228 C225 0.961 . S
O229 Co204 1.967 . S
O229 C237 1.258 . S
O230 Co205 1.941 . S
O230 C237 1.266 . S
H231 C233 0.959 . S
H232 C233 0.961 . S
C233 C223 1.510 . S
C233 H231 0.959 . S
C233 H232 0.961 . S
C233 H234 0.960 . S
H234 C233 0.960 . S
H235 N215 0.862 . S
O236 Co204 1.920 . S
O236 C209 1.289 . S
C237 O229 1.258 . S
C237 O230 1.266 . S
Co238 O241 1.970 . S
Co238 N255 1.989 . S
Co238 O263 1.967 . S
Co238 O270 1.920 . S
Co239 O242 1.966 . S
Co239 N248 2.022 . S
Co239 N256 1.993 . S
Co239 O264 1.941 . S
C240 O241 1.258 . S
C240 O242 1.263 . S
O241 Co238 1.970 . S
O241 C240 1.258 . S
O242 Co239 1.966 . S
O242 C240 1.263 . S
C243 O244 1.235 1_565 S
C243 O270 1.289 1_565 S
O244 C243 1.235 1_545 S
C245 C247 1.400 . S
C245 N248 1.351 . S
C245 C250 1.501 . S
C246 C247 1.387 . S
C246 N249 1.341 . S
C247 C245 1.400 . S
C247 C246 1.387 . S
N248 Co239 2.022 . S
N248 C245 1.351 . S
N248 N249 1.365 . S
N249 C246 1.341 . S
N249 N248 1.365 . S
N249 H269 0.862 . S
C250 C245 1.501 . S
C250 H251 0.961 . S
C250 H252 0.961 . S
C250 H253 0.960 . S
H251 C250 0.961 . S
H252 C250 0.961 . S
H253 C250 0.960 . S
C254 N255 1.342 . S
C254 C258 1.401 . S
C254 C259 1.499 . S
N255 Co238 1.989 . S
N255 C254 1.342 . S
N255 N256 1.388 . S
N256 Co239 1.993 . S
N256 N255 1.388 . S
N256 C257 1.346 . S
C257 N256 1.346 . S
C257 C258 1.396 . S
C257 C267 1.510 . S
C258 C254 1.401 . S
C258 C257 1.396 . S
C259 C254 1.499 . S
C259 H260 0.959 . S
C259 H261 0.960 . S
C259 H262 0.961 . S
H260 C259 0.959 . S
H261 C259 0.960 . S
H262 C259 0.961 . S
O263 Co238 1.967 . S
O263 C271 1.258 . S
O264 Co239 1.941 . S
O264 C271 1.266 . S
H265 C267 0.959 . S
H266 C267 0.961 . S
C267 C257 1.510 . S
C267 H265 0.959 . S
C267 H266 0.961 . S
C267 H268 0.960 . S
H268 C267 0.960 . S
H269 N249 0.862 . S
O270 Co238 1.920 . S
O270 C243 1.289 1_545 S
C271 O263 1.258 . S
C271 O264 1.266 . S
C272 C273 1.363 . S
C272 C278 1.379 . S
C272 N280 1.356 . S
C273 C272 1.363 . S
C273 C279 1.363 . S
C274 C275 1.363 . S
C274 C279 1.379 . S
C274 N281 1.356 . S
C275 C274 1.363 . S
C275 C278 1.363 . S
N276 C278 1.356 . S
N276 H288 0.984 . S
N276 H289 0.985 . S
N277 C279 1.356 . S
N277 H282 0.984 . S
N277 H283 0.985 1_455 S
C278 C272 1.379 . S
C278 C275 1.363 . S
C278 N276 1.356 . S
C279 C273 1.363 . S
C279 C274 1.379 . S
C279 N277 1.356 . S
N280 C272 1.356 . S
N280 H286 0.984 . S
N280 H287 0.984 . S
N281 C274 1.356 . S
N281 H284 0.984 . S
N281 H285 0.986 . S
H282 N277 0.984 . S
H283 N277 0.985 1_655 S
H284 N281 0.984 . S
H285 N281 0.986 . S
H286 N280 0.984 . S
H287 N280 0.984 . S
H288 N276 0.984 . S
H289 N276 0.985 . S
C290 C291 1.363 . S
C290 C296 1.379 . S
C290 N298 1.356 . S
C291 C290 1.363 . S
C291 C297 1.363 . S
C292 C293 1.363 . S
C292 C297 1.379 . S
C292 N299 1.356 . S
C293 C292 1.363 . S
C293 C296 1.363 . S
N294 C296 1.356 . S
N294 H306 0.984 . S
N294 H307 0.985 . S
N295 C297 1.356 . S
N295 H300 0.984 . S
N295 H301 0.985 . S
C296 C290 1.379 . S
C296 C293 1.363 . S
C296 N294 1.356 . S
C297 C291 1.363 . S
C297 C292 1.379 . S
C297 N295 1.356 . S
N298 C290 1.356 . S
N298 H304 0.984 . S
N298 H305 0.984 . S
N299 C292 1.356 . S
N299 H302 0.984 . S
N299 H303 0.985 . S
H300 N295 0.984 . S
H301 N295 0.985 . S
H302 N299 0.984 . S
H303 N299 0.985 . S
H304 N298 0.984 . S
H305 N298 0.984 . S
H306 N294 0.984 . S
H307 N294 0.985 . S
C308 C309 1.363 . S
C308 C314 1.379 . S
C308 N316 1.356 . S
C309 C308 1.363 . S
C309 C315 1.363 . S
C310 C311 1.363 . S
C310 C315 1.379 . S
C310 N317 1.356 . S
C311 C310 1.363 . S
C311 C314 1.363 . S
N312 C314 1.356 . S
N312 H324 0.984 . S
N312 H325 0.985 . S
N313 C315 1.356 . S
N313 H318 0.984 . S
N313 H319 0.985 . S
C314 C308 1.379 . S
C314 C311 1.363 . S
C314 N312 1.356 . S
C315 C309 1.363 . S
C315 C310 1.379 . S
C315 N313 1.356 . S
N316 C308 1.356 . S
N316 H322 0.984 . S
N316 H323 0.984 . S
N317 C310 1.356 . S
N317 H320 0.984 . S
N317 H321 0.985 . S
H318 N313 0.984 . S
H319 N313 0.985 . S
H320 N317 0.984 . S
H321 N317 0.985 . S
H322 N316 0.984 . S
H323 N316 0.984 . S
H324 N312 0.984 . S
H325 N312 0.985 . S
C326 C327 1.363 . S
C326 C332 1.379 . S
C326 N334 1.356 . S
C327 C326 1.363 . S
C327 C333 1.363 . S
C328 C329 1.363 . S
C328 C333 1.379 . S
C328 N335 1.356 . S
C329 C328 1.363 . S
C329 C332 1.363 . S
N330 C332 1.356 . S
N330 H342 0.984 . S
N330 H343 0.985 . S
N331 C333 1.356 . S
N331 H336 0.984 . S
N331 H337 0.985 . S
C332 C326 1.379 . S
C332 C329 1.363 . S
C332 N330 1.356 . S
C333 C327 1.363 . S
C333 C328 1.379 . S
C333 N331 1.356 . S
N334 C326 1.356 . S
N334 H340 0.984 . S
N334 H341 0.984 . S
N335 C328 1.356 . S
N335 H338 0.984 . S
N335 H339 0.985 . S
H336 N331 0.984 . S
H337 N331 0.985 . S
H338 N335 0.984 . S
H339 N335 0.985 . S
H340 N334 0.984 . S
H341 N334 0.984 . S
H342 N330 0.984 . S
H343 N330 0.985 . S
C344 C345 1.363 . S
C344 C350 1.379 . S
C344 N352 1.356 . S
C345 C344 1.363 . S
C345 C351 1.312 1_554 S
C346 C347 1.363 . S
C346 C351 1.423 . S
C346 N353 1.356 . S
C347 C346 1.363 . S
C347 C350 1.363 1_556 S
N348 C350 1.352 1_556 S
N348 H360 0.966 1_556 S
N348 H361 1.008 . S
N349 C351 1.348 1_554 S
N349 H354 0.984 . S
N349 H355 0.989 1_554 S
C350 C344 1.379 . S
C350 C347 1.363 1_554 S
C350 N348 1.352 1_554 S
C351 C345 1.312 1_556 S
C351 C346 1.423 . S
C351 N349 1.348 1_556 S
N352 C344 1.356 . S
N352 H358 0.984 . S
N352 H359 0.984 . S
N353 C346 1.356 . S
N353 H356 0.984 . S
N353 H357 0.985 . S
H354 N349 0.984 . S
H355 N349 0.989 1_556 S
H356 N353 0.984 . S
H357 N353 0.985 . S
H358 N352 0.984 . S
H359 N352 0.984 . S
H360 N348 0.966 1_554 S
H361 N348 1.008 . S
C362 C363 1.363 . S
C362 C368 1.379 . S
C362 N370 1.356 . S
C363 C362 1.363 . S
C363 C369 1.363 . S
C364 C365 1.363 . S
C364 C369 1.379 . S
C364 N371 1.356 . S
C365 C364 1.363 . S
C365 C368 1.363 . S
N366 C368 1.356 . S
N366 H378 0.984 . S
N366 H379 0.985 . S
N367 C369 1.356 . S
N367 H372 0.984 . S
N367 H373 0.985 . S
C368 C362 1.379 . S
C368 C365 1.363 . S
C368 N366 1.356 . S
C369 C363 1.363 . S
C369 C364 1.379 . S
C369 N367 1.356 . S
N370 C362 1.356 . S
N370 H376 0.984 . S
N370 H377 0.984 . S
N371 C364 1.356 . S
N371 H374 0.984 . S
N371 H375 0.985 . S
H372 N367 0.984 . S
H373 N367 0.985 . S
H374 N371 0.984 . S
H375 N371 0.985 . S
H376 N370 0.984 . S
H377 N370 0.984 . S
H378 N366 0.984 . S
H379 N366 0.985 . S
C380 C381 1.363 . S
C380 C386 1.379 . S
C380 N388 1.356 . S
C381 C380 1.363 . S
C381 C387 1.363 . S
C382 C383 1.363 . S
C382 C387 1.379 . S
C382 N389 1.356 . S
C383 C382 1.363 . S
C383 C386 1.363 . S
N384 C386 1.356 . S
N384 H396 0.984 . S
N384 H397 0.985 . S
N385 C387 1.356 . S
N385 H390 0.984 . S
N385 H391 0.985 . S
C386 C380 1.379 . S
C386 C383 1.363 . S
C386 N384 1.356 . S
C387 C381 1.363 . S
C387 C382 1.379 . S
C387 N385 1.356 . S
N388 C380 1.356 . S
N388 H394 0.984 . S
N388 H395 0.984 . S
N389 C382 1.356 . S
N389 H392 0.984 . S
N389 H393 0.985 . S
H390 N385 0.984 . S
H391 N385 0.985 . S
H392 N389 0.984 . S
H393 N389 0.985 . S
H394 N388 0.984 . S
H395 N388 0.984 . S
H396 N384 0.984 . S
H397 N384 0.985 . S
C398 C399 1.363 . S
C398 C404 1.379 . S
C398 N406 1.356 . S
C399 C398 1.363 . S
C399 C405 1.363 . S
C400 C401 1.363 . S
C400 C405 1.379 . S
C400 N407 1.356 . S
C401 C400 1.363 . S
C401 C404 1.363 . S
N402 C404 1.356 . S
N402 H414 0.984 . S
N402 H415 0.985 . S
N403 C405 1.356 . S
N403 H408 0.984 . S
N403 H409 0.985 . S
C404 C398 1.379 . S
C404 C401 1.363 . S
C404 N402 1.356 . S
C405 C399 1.363 . S
C405 C400 1.379 . S
C405 N403 1.356 . S
N406 C398 1.356 . S
N406 H412 0.983 1_655 S
N406 H413 0.984 1_655 S
N407 C400 1.356 . S
N407 H410 0.984 . S
N407 H411 0.985 . S
H408 N403 0.984 . S
H409 N403 0.985 . S
H410 N407 0.984 . S
H411 N407 0.985 . S
H412 N406 0.983 1_455 S
H413 N406 0.984 1_455 S
H414 N402 0.984 . S
H415 N402 0.985 . S
C416 C417 1.363 . S
C416 C422 1.379 . S
C416 N424 1.356 . S
C417 C416 1.363 . S
C417 C423 1.363 . S
C418 C419 1.363 . S
C418 C423 1.379 . S
C418 N425 1.356 . S
C419 C418 1.363 . S
C419 C422 1.363 . S
N420 C422 1.356 . S
N420 H432 0.984 . S
N420 H433 0.985 . S
N421 C423 1.356 . S
N421 H426 0.984 . S
N421 H427 0.985 . S
C422 C416 1.379 . S
C422 C419 1.363 . S
C422 N420 1.356 . S
C423 C417 1.363 . S
C423 C418 1.379 . S
C423 N421 1.356 . S
N424 C416 1.356 . S
N424 H430 0.984 . S
N424 H431 0.984 . S
N425 C418 1.356 . S
N425 H428 0.984 . S
N425 H429 0.985 . S
H426 N421 0.984 . S
H427 N421 0.985 . S
H428 N425 0.984 . S
H429 N425 0.985 . S
H430 N424 0.984 . S
H431 N424 0.984 . S
H432 N420 0.984 . S
H433 N420 0.985 . S
C434 C435 1.363 . S
C434 C440 1.379 . S
C434 N442 1.356 . S
C435 C434 1.363 . S
C435 C441 1.363 . S
C436 C437 1.363 . S
C436 C441 1.379 . S
C436 N443 1.356 . S
C437 C436 1.363 . S
C437 C440 1.363 . S
N438 C440 1.356 . S
N438 H450 0.984 . S
N438 H451 0.985 . S
N439 C441 1.356 . S
N439 H444 0.984 . S
N439 H445 0.985 . S
C440 C434 1.379 . S
C440 C437 1.363 . S
C440 N438 1.356 . S
C441 C435 1.363 . S
C441 C436 1.379 . S
C441 N439 1.356 . S
N442 C434 1.356 . S
N442 H448 0.984 . S
N442 H449 0.984 . S
N443 C436 1.356 . S
N443 H446 0.984 . S
N443 H447 0.985 . S
H444 N439 0.984 . S
H445 N439 0.985 . S
H446 N443 0.984 . S
H447 N443 0.985 . S
H448 N442 0.984 . S
H449 N442 0.984 . S
H450 N438 0.984 . S
H451 N438 0.985 . S
C452 C453 1.363 1_545 S
C452 C458 1.379 . S
C452 N460 1.356 . S
C453 C452 1.363 1_565 S
C453 C459 1.363 . S
C454 C455 1.363 1_565 S
C454 C459 1.379 . S
C454 N461 1.356 1_565 S
C455 C454 1.363 1_545 S
C455 C458 1.363 . S
N456 C458 1.356 . S
N456 H468 0.984 . S
N456 H469 0.985 . S
N457 C459 1.356 . S
N457 H462 0.984 . S
N457 H463 0.985 . S
C458 C452 1.379 . S
C458 C455 1.363 . S
C458 N456 1.356 . S
C459 C453 1.363 . S
C459 C454 1.379 . S
C459 N457 1.356 . S
N460 C452 1.356 . S
N460 H466 0.984 . S
N460 H467 0.984 1_545 S
N461 C454 1.356 1_545 S
N461 H464 0.984 . S
N461 H465 0.985 1_545 S
H462 N457 0.984 . S
H463 N457 0.985 . S
H464 N461 0.984 . S
H465 N461 0.985 1_565 S
H466 N460 0.984 . S
H467 N460 0.984 1_565 S
H468 N456 0.984 . S
H469 N456 0.985 . S
C470 C471 1.363 1_545 S
C470 C476 1.379 . S
C470 N478 1.356 . S
C471 C470 1.363 1_565 S
C471 C477 1.363 1_554 S
C472 C473 1.363 1_565 S
C472 C477 1.379 . S
C472 N479 1.356 . S
C473 C472 1.363 1_545 S
C473 C476 1.363 1_556 S
N474 C476 1.356 1_556 S
N474 H486 0.984 1_556 S
N474 H487 0.985 . S
N475 C477 1.356 1_554 S
N475 H480 0.984 . S
N475 H481 0.985 1_554 S
C476 C470 1.379 . S
C476 C473 1.363 1_554 S
C476 N474 1.356 1_554 S
C477 C471 1.363 1_556 S
C477 C472 1.379 . S
C477 N475 1.356 1_556 S
N478 C470 1.356 . S
N478 H484 0.984 . S
N478 H485 0.984 1_545 S
N479 C472 1.356 . S
N479 H482 0.984 1_565 S
N479 H483 0.985 . S
H480 N475 0.984 . S
H481 N475 0.985 1_556 S
H482 N479 0.984 1_545 S
H483 N479 0.985 . S
H484 N478 0.984 . S
H485 N478 0.984 1_565 S
H486 N474 0.984 1_554 S
H487 N474 0.985 . S
C488 C489 1.363 . S
C488 C494 1.379 . S
C488 N496 1.356 . S
C489 C488 1.363 . S
C489 C495 1.363 . S
C490 C491 1.363 . S
C490 C495 1.379 . S
C490 N497 1.356 . S
C491 C490 1.363 . S
C491 C494 1.363 . S
N492 C494 1.356 . S
N492 H504 0.984 . S
N492 H505 0.985 . S
N493 C495 1.356 . S
N493 H498 0.984 . S
N493 H499 0.985 . S
C494 C488 1.379 . S
C494 C491 1.363 . S
C494 N492 1.356 . S
C495 C489 1.363 . S
C495 C490 1.379 . S
C495 N493 1.356 . S
N496 C488 1.356 . S
N496 H502 0.984 . S
N496 H503 0.984 . S
N497 C490 1.356 . S
N497 H500 0.984 . S
N497 H501 0.985 . S
H498 N493 0.984 . S
H499 N493 0.985 . S
H500 N497 0.984 . S
H501 N497 0.985 . S
H502 N496 0.984 . S
H503 N496 0.984 . S
H504 N492 0.984 . S
H505 N492 0.985 . S
C506 C507 1.363 . S
C506 C512 1.379 . S
C506 N514 1.356 . S
C507 C506 1.363 . S
C507 C513 1.363 . S
C508 C509 1.363 . S
C508 C513 1.379 . S
C508 N515 1.356 . S
C509 C508 1.363 . S
C509 C512 1.363 . S
N510 C512 1.356 . S
N510 H522 0.984 . S
N510 H523 0.985 . S
N511 C513 1.356 . S
N511 H516 0.984 . S
N511 H517 0.985 . S
C512 C506 1.379 . S
C512 C509 1.363 . S
C512 N510 1.356 . S
C513 C507 1.363 . S
C513 C508 1.379 . S
C513 N511 1.356 . S
N514 C506 1.356 . S
N514 H520 0.984 . S
N514 H521 0.984 . S
N515 C508 1.356 . S
N515 H518 0.984 . S
N515 H519 0.985 . S
H516 N511 0.984 . S
H517 N511 0.985 . S
H518 N515 0.984 . S
H519 N515 0.985 . S
H520 N514 0.984 . S
H521 N514 0.984 . S
H522 N510 0.984 . S
H523 N510 0.985 . S
C524 C525 1.363 . S
C524 C530 1.379 . S
C524 N532 1.356 . S
C525 C524 1.363 . S
C525 C531 1.363 . S
C526 C527 1.363 1_455 S
C526 C531 1.379 . S
C526 N533 1.356 1_455 S
C527 C526 1.363 1_655 S
C527 C530 1.363 1_655 S
N528 C530 1.356 1_655 S
N528 H540 0.984 . S
N528 H541 0.985 . S
N529 C531 1.356 . S
N529 H534 0.984 . S
N529 H535 0.985 . S
C530 C524 1.379 . S
C530 C527 1.363 1_455 S
C530 N528 1.356 1_455 S
C531 C525 1.363 . S
C531 C526 1.379 . S
C531 N529 1.356 . S
N532 C524 1.356 . S
N532 H538 0.984 . S
N532 H539 0.984 . S
N533 C526 1.356 1_655 S
N533 H536 0.984 . S
N533 H537 0.985 . S
H534 N529 0.984 . S
H535 N529 0.985 . S
H536 N533 0.984 . S
H537 N533 0.985 . S
H538 N532 0.984 . S
H539 N532 0.984 . S
H540 N528 0.984 . S
H541 N528 0.985 . S
C542 C543 1.363 . S
C542 C548 1.379 . S
C542 N550 1.356 . S
C543 C542 1.363 . S
C543 C549 1.363 1_455 S
C544 C545 1.363 1_655 S
C544 C549 1.379 . S
C544 N551 1.356 . S
C545 C544 1.363 1_455 S
C545 C548 1.363 . S
N546 C548 1.356 . S
N546 H558 0.984 . S
N546 H559 0.985 . S
N547 C549 1.356 . S
N547 H552 0.984 . S
N547 H553 0.985 . S
C548 C542 1.379 . S
C548 C545 1.363 . S
C548 N546 1.356 . S
C549 C543 1.363 1_655 S
C549 C544 1.379 . S
C549 N547 1.356 . S
N550 C542 1.356 . S
N550 H556 0.984 . S
N550 H557 0.984 . S
N551 C544 1.356 . S
N551 H554 0.984 . S
N551 H555 0.985 . S
H552 N547 0.984 . S
H553 N547 0.985 . S
H554 N551 0.984 . S
H555 N551 0.985 . S
H556 N550 0.984 . S
H557 N550 0.984 . S
H558 N546 0.984 . S
H559 N546 0.985 . S
C560 C561 1.363 . S
C560 C566 1.379 . S
C560 N568 1.356 . S
C561 C560 1.363 . S
C561 C567 1.363 . S
C562 C563 1.363 . S
C562 C567 1.379 . S
C562 N569 1.356 . S
C563 C562 1.363 . S
C563 C566 1.363 . S
N564 C566 1.356 . S
N564 H576 0.984 . S
N564 H577 0.985 . S
N565 C567 1.356 . S
N565 H570 0.984 . S
N565 H571 0.985 . S
C566 C560 1.379 . S
C566 C563 1.363 . S
C566 N564 1.356 . S
C567 C561 1.363 . S
C567 C562 1.379 . S
C567 N565 1.356 . S
N568 C560 1.356 . S
N568 H574 0.984 . S
N568 H575 0.984 . S
N569 C562 1.356 . S
N569 H572 0.984 . S
N569 H573 0.985 . S
H570 N565 0.984 . S
H571 N565 0.985 . S
H572 N569 0.984 . S
H573 N569 0.985 . S
H574 N568 0.984 . S
H575 N568 0.984 . S
H576 N564 0.984 . S
H577 N564 0.985 . S
C578 C579 1.363 . S
C578 C584 1.379 . S
C578 N586 1.356 . S
C579 C578 1.363 . S
C579 C585 1.363 1_455 S
C580 C581 1.363 1_655 S
C580 C585 1.379 . S
C580 N587 1.356 . S
C581 C580 1.363 1_455 S
C581 C584 1.363 . S
N582 C584 1.356 . S
N582 H594 0.984 . S
N582 H595 0.985 . S
N583 C585 1.356 . S
N583 H588 0.984 . S
N583 H589 0.985 . S
C584 C578 1.379 . S
C584 C581 1.363 . S
C584 N582 1.356 . S
C585 C579 1.363 1_655 S
C585 C580 1.379 . S
C585 N583 1.356 . S
N586 C578 1.356 . S
N586 H592 0.984 . S
N586 H593 0.984 . S
N587 C580 1.356 . S
N587 H590 0.984 . S
N587 H591 0.985 . S
H588 N583 0.984 . S
H589 N583 0.985 . S
H590 N587 0.984 . S
H591 N587 0.985 . S
H592 N586 0.984 . S
H593 N586 0.984 . S
H594 N582 0.984 . S
H595 N582 0.985 . S
C596 C597 1.363 . S
C596 C602 1.379 . S
C596 N604 1.356 . S
C597 C596 1.363 . S
C597 C603 1.363 . S
C598 C599 1.363 . S
C598 C603 1.379 . S
C598 N605 1.356 . S
C599 C598 1.363 . S
C599 C602 1.363 . S
N600 C602 1.356 . S
N600 H612 0.984 . S
N600 H613 0.985 . S
N601 C603 1.356 . S
N601 H606 0.984 . S
N601 H607 0.985 . S
C602 C596 1.379 . S
C602 C599 1.363 . S
C602 N600 1.356 . S
C603 C597 1.363 . S
C603 C598 1.379 . S
C603 N601 1.356 . S
N604 C596 1.356 . S
N604 H610 0.984 1_565 S
N604 H611 0.984 . S
N605 C598 1.356 . S
N605 H608 0.984 . S
N605 H609 0.985 . S
H606 N601 0.984 . S
H607 N601 0.985 . S
H608 N605 0.984 . S
H609 N605 0.985 . S
H610 N604 0.984 1_545 S
H611 N604 0.984 . S
H612 N600 0.984 . S
H613 N600 0.985 . S
C614 C615 1.363 . S
C614 C620 1.379 . S
C614 N622 1.356 . S
C615 C614 1.363 . S
C615 C621 1.363 . S
C616 C617 1.363 . S
C616 C621 1.379 . S
C616 N623 1.356 . S
C617 C616 1.363 . S
C617 C620 1.363 . S
N618 C620 1.356 . S
N618 H630 0.984 . S
N618 H631 0.985 . S
N619 C621 1.356 . S
N619 H624 0.984 . S
N619 H625 0.985 . S
C620 C614 1.379 . S
C620 C617 1.363 . S
C620 N618 1.356 . S
C621 C615 1.363 . S
C621 C616 1.379 . S
C621 N619 1.356 . S
N622 C614 1.356 . S
N622 H628 0.984 . S
N622 H629 0.984 . S
N623 C616 1.356 . S
N623 H626 0.984 . S
N623 H627 0.985 . S
H624 N619 0.984 . S
H625 N619 0.985 . S
H626 N623 0.984 . S
H627 N623 0.985 . S
H628 N622 0.984 . S
H629 N622 0.984 . S
H630 N618 0.984 . S
H631 N618 0.985 . S
C273 C20 1.504 . S
C275 C190 1.504 . S
C291 C224 1.517 . S
C293 C54 1.517 . S
C309 C88 1.504 . S
C311 C258 1.504 . S
C327 C156 1.517 . S
C329 C122 1.517 . S
C345 C33 1.378 . S
C347 C138 1.380 . S
C363 C67 1.375 . S
C365 C172 1.378 . S
C381 C237 1.376 . S
C383 C70 1.379 . S
C399 C104 1.381 . S
C401 C271 1.378 . S
C417 C135 1.377 . S
C419 C240 1.379 . S
C435 C203 1.380 . S
C437 C36 1.382 . S
C453 C206 1.381 . S
C455 C101 1.378 . S
C471 C2 1.378 . S
C473 C169 1.376 . S
C489 C9 1.427 . S
C491 C5 1.526 . S
C507 C43 1.426 . S
C509 C39 1.528 1_545 S
C525 C77 1.427 . S
C527 C73 1.526 . S
C543 C111 1.426 . S
C545 C107 1.528 . S
C561 C141 1.528 . S
C563 C145 1.426 . S
C579 C179 1.427 . S
C581 C175 1.526 . S
C597 C213 1.426 . S
C599 C209 1.528 . S
C615 C243 1.526 . S
C617 C247 1.427 . S
