# Generated by pormake.
# Topology vbm, (6)-cn, num edge types: 1
# Building blocks:
#     Node 0, Type 0, BuildingBlock: BETFEN_clean_sbu_0, # of connection points: 6
#     Node 1, Type 0, BuildingBlock: BETFEN_clean_sbu_0, # of connection points: 6
#     Node 2, Type 0, BuildingBlock: BETFEN_clean_sbu_0, # of connection points: 6
#     Node 3, Type 0, BuildingBlock: BETFEN_clean_sbu_0, # of connection points: 6
#     Node 4, Type 0, BuildingBlock: BETFEN_clean_sbu_0, # of connection points: 6
#     Node 5, Type 0, BuildingBlock: BETFEN_clean_sbu_0, # of connection points: 6
#     Node 6, Type 0, BuildingBlock: BETFEN_clean_sbu_0, # of connection points: 6
#     Node 7, Type 0, BuildingBlock: BETFEN_clean_sbu_0, # of connection points: 6
#     Node 8, Type 0, BuildingBlock: BETFEN_clean_sbu_0, # of connection points: 6
#     Node 9, Type 0, BuildingBlock: BETFEN_clean_sbu_0, # of connection points: 6
#     Node 10, Type 0, BuildingBlock: BETFEN_clean_sbu_0, # of connection points: 6
#     Node 11, Type 0, BuildingBlock: BETFEN_clean_sbu_0, # of connection points: 6
#     Node 12, Type 0, BuildingBlock: BETFEN_clean_sbu_0, # of connection points: 6
#     Node 13, Type 0, BuildingBlock: BETFEN_clean_sbu_0, # of connection points: 6
#     Node 14, Type 0, BuildingBlock: BETFEN_clean_sbu_0, # of connection points: 6
#     Node 15, Type 0, BuildingBlock: BETFEN_clean_sbu_0, # of connection points: 6
#     Edge 16, Type (0, 0), BuildingBlock: TEMPAE_clean_linker_10, # of connection points: 2
#     Edge 17, Type (0, 0), BuildingBlock: TEMPAE_clean_linker_10, # of connection points: 2
#     Edge 18, Type (0, 0), BuildingBlock: TEMPAE_clean_linker_10, # of connection points: 2
#     Edge 19, Type (0, 0), BuildingBlock: TEMPAE_clean_linker_10, # of connection points: 2
#     Edge 20, Type (0, 0), BuildingBlock: TEMPAE_clean_linker_10, # of connection points: 2
#     Edge 21, Type (0, 0), BuildingBlock: TEMPAE_clean_linker_10, # of connection points: 2
#     Edge 22, Type (0, 0), BuildingBlock: TEMPAE_clean_linker_10, # of connection points: 2
#     Edge 23, Type (0, 0), BuildingBlock: TEMPAE_clean_linker_10, # of connection points: 2
#     Edge 24, Type (0, 0), BuildingBlock: TEMPAE_clean_linker_10, # of connection points: 2
#     Edge 25, Type (0, 0), BuildingBlock: TEMPAE_clean_linker_10, # of connection points: 2
#     Edge 26, Type (0, 0), BuildingBlock: TEMPAE_clean_linker_10, # of connection points: 2
#     Edge 27, Type (0, 0), BuildingBlock: TEMPAE_clean_linker_10, # of connection points: 2
#     Edge 28, Type (0, 0), BuildingBlock: TEMPAE_clean_linker_10, # of connection points: 2
#     Edge 29, Type (0, 0), BuildingBlock: TEMPAE_clean_linker_10, # of connection points: 2
#     Edge 30, Type (0, 0), BuildingBlock: TEMPAE_clean_linker_10, # of connection points: 2
#     Edge 31, Type (0, 0), BuildingBlock: TEMPAE_clean_linker_10, # of connection points: 2
#     Edge 32, Type (0, 0), BuildingBlock: TEMPAE_clean_linker_10, # of connection points: 2
#     Edge 33, Type (0, 0), BuildingBlock: TEMPAE_clean_linker_10, # of connection points: 2
#     Edge 34, Type (0, 0), BuildingBlock: TEMPAE_clean_linker_10, # of connection points: 2
#     Edge 35, Type (0, 0), BuildingBlock: TEMPAE_clean_linker_10, # of connection points: 2
#     Edge 36, Type (0, 0), BuildingBlock: TEMPAE_clean_linker_10, # of connection points: 2
#     Edge 37, Type (0, 0), BuildingBlock: TEMPAE_clean_linker_10, # of connection points: 2
#     Edge 38, Type (0, 0), BuildingBlock: TEMPAE_clean_linker_10, # of connection points: 2
#     Edge 39, Type (0, 0), BuildingBlock: TEMPAE_clean_linker_10, # of connection points: 2
#     Edge 40, Type (0, 0), BuildingBlock: TEMPAE_clean_linker_10, # of connection points: 2
#     Edge 41, Type (0, 0), BuildingBlock: TEMPAE_clean_linker_10, # of connection points: 2
#     Edge 42, Type (0, 0), BuildingBlock: TEMPAE_clean_linker_10, # of connection points: 2
#     Edge 43, Type (0, 0), BuildingBlock: TEMPAE_clean_linker_10, # of connection points: 2
#     Edge 44, Type (0, 0), BuildingBlock: TEMPAE_clean_linker_10, # of connection points: 2
#     Edge 45, Type (0, 0), BuildingBlock: TEMPAE_clean_linker_10, # of connection points: 2
#     Edge 46, Type (0, 0), BuildingBlock: TEMPAE_clean_linker_10, # of connection points: 2
#     Edge 47, Type (0, 0), BuildingBlock: TEMPAE_clean_linker_10, # of connection points: 2
#     Edge 48, Type (0, 0), BuildingBlock: TEMPAE_clean_linker_10, # of connection points: 2
#     Edge 49, Type (0, 0), BuildingBlock: TEMPAE_clean_linker_10, # of connection points: 2
#     Edge 50, Type (0, 0), BuildingBlock: TEMPAE_clean_linker_10, # of connection points: 2
#     Edge 51, Type (0, 0), BuildingBlock: TEMPAE_clean_linker_10, # of connection points: 2
#     Edge 52, Type (0, 0), BuildingBlock: TEMPAE_clean_linker_10, # of connection points: 2
#     Edge 53, Type (0, 0), BuildingBlock: TEMPAE_clean_linker_10, # of connection points: 2
#     Edge 54, Type (0, 0), BuildingBlock: TEMPAE_clean_linker_10, # of connection points: 2
#     Edge 55, Type (0, 0), BuildingBlock: TEMPAE_clean_linker_10, # of connection points: 2
#     Edge 56, Type (0, 0), BuildingBlock: TEMPAE_clean_linker_10, # of connection points: 2
#     Edge 57, Type (0, 0), BuildingBlock: TEMPAE_clean_linker_10, # of connection points: 2
#     Edge 58, Type (0, 0), BuildingBlock: TEMPAE_clean_linker_10, # of connection points: 2
#     Edge 59, Type (0, 0), BuildingBlock: TEMPAE_clean_linker_10, # of connection points: 2
#     Edge 60, Type (0, 0), BuildingBlock: TEMPAE_clean_linker_10, # of connection points: 2
#     Edge 61, Type (0, 0), BuildingBlock: TEMPAE_clean_linker_10, # of connection points: 2
#     Edge 62, Type (0, 0), BuildingBlock: TEMPAE_clean_linker_10, # of connection points: 2
#     Edge 63, Type (0, 0), BuildingBlock: TEMPAE_clean_linker_10, # of connection points: 2
# Relax obj value: 0.067
# Max RMSD: 0.141
# Mean RMSD: 0.141
data_MOF--net-vbm--node1-BETFEN_clean_sbu_0--edge1-TEMPAE_clean_linker_10
_symmetry_space_group_name_H-M    P1
_symmetry_Int_Tables_number       1
_symmetry_cell_setting            triclinic
loop_
_symmetry_equiv_pos_as_xyz
'x, y, z'
_cell_length_a     56.475794
_cell_length_b     26.54788
_cell_length_c     57.91661
_cell_angle_alpha  89.992854
_cell_angle_beta   90.01496
_cell_angle_gamma 89.987107
loop_
_atom_site_label
_atom_site_type_symbol
_atom_site_fract_x
_atom_site_fract_y
_atom_site_fract_z
_atom_type_partial_charge
Pr0 Pr 0.13691 0.0547 0.13681 0.0
Pr1 Pr 0.11651 0.15855 0.13997 0.0
C2 C 0.14907 0.95691 0.14285 0.0
C3 C 0.14251 0.90291 0.14138 0.0
C4 C 0.13836 0.87873 0.12014 0.0
C5 C 0.13496 0.82639 0.11924 0.0
C6 C 0.13579 0.79715 0.13953 0.0
C7 C 0.1393 0.82177 0.16076 0.0
C8 C 0.14265 0.8739 0.16164 0.0
C9 C 0.13322 0.10097 0.09349 0.0
C10 C 0.07796 0.07168 0.13434 0.0
C11 C 0.10403 0.25705 0.13853 0.0
C12 C 0.11183 0.31056 0.13866 0.0
C13 C 0.11289 0.3378 0.15946 0.0
C14 C 0.11699 0.38983 0.15936 0.0
C15 C 0.11997 0.41611 0.13845 0.0
C16 C 0.11956 0.38859 0.11769 0.0
C17 C 0.11549 0.33653 0.11779 0.0
C18 C 0.11975 0.10612 0.18205 0.0
C19 C 0.17426 0.14711 0.13954 0.0
O20 O 0.13923 0.98433 0.15895 0.0
O21 O 0.1533 0.98193 0.12385 0.0
O22 O 0.11751 0.10321 0.10907 0.0
O23 O 0.15093 0.07324 0.10002 0.0
O24 O 0.08195 0.11916 0.12938 0.0
O25 O 0.09544 0.04105 0.14035 0.0
O26 O 0.10799 0.22988 0.12009 0.0
O27 O 0.10545 0.23109 0.15766 0.0
O28 O 0.13597 0.10932 0.16716 0.0
O29 O 0.10089 0.12998 0.17536 0.0
O30 O 0.17152 0.09967 0.14576 0.0
O31 O 0.15625 0.1748 0.13296 0.0
H32 H 0.13831 0.89996 0.10417 0.0
H33 H 0.13248 0.80865 0.10258 0.0
H34 H 0.13966 0.80066 0.17676 0.0
H35 H 0.14595 0.89145 0.17823 0.0
H36 H 0.10991 0.31921 0.17585 0.0
H37 H 0.11755 0.40957 0.17572 0.0
H38 H 0.12148 0.40752 0.10123 0.0
H39 H 0.11442 0.31695 0.10142 0.0
Pr40 Pr 0.84851 0.98643 0.13923 0.0
Pr41 Pr 0.87011 0.86769 0.14108 0.0
C42 C 0.83554 0.08067 0.15072 0.0
C43 C 0.83994 0.13462 0.14635 0.0
C44 C 0.82914 0.16053 0.12801 0.0
C45 C 0.83255 0.21248 0.12546 0.0
C46 C 0.84672 0.23928 0.14127 0.0
C47 C 0.85755 0.21305 0.15946 0.0
C48 C 0.85421 0.16145 0.16195 0.0
C49 C 0.85847 0.94973 0.09485 0.0
C50 C 0.90708 0.96309 0.13663 0.0
C51 C 0.88269 0.774 0.12897 0.0
C52 C 0.87643 0.72049 0.1323 0.0
C53 C 0.884 0.69339 0.15182 0.0
C54 C 0.87964 0.64165 0.15348 0.0
C55 C 0.86771 0.61618 0.13564 0.0
C56 C 0.85962 0.64367 0.11649 0.0
C57 C 0.86402 0.69515 0.1148 0.0
C58 C 0.86348 0.91071 0.18551 0.0
C59 C 0.81201 0.88661 0.14395 0.0
O60 O 0.85301 0.05615 0.16026 0.0
O61 O 0.82367 0.05378 0.13561 0.0
O62 O 0.86086 0.92677 0.11377 0.0
O63 O 0.85056 0.99489 0.09875 0.0
O64 O 0.90331 0.91497 0.1321 0.0
O65 O 0.89003 0.99526 0.14242 0.0
O66 O 0.86764 0.80141 0.11714 0.0
O67 O 0.89286 0.79833 0.14606 0.0
O68 O 0.85862 0.92848 0.16596 0.0
O69 O 0.87204 0.86561 0.18252 0.0
O70 O 0.81439 0.9363 0.14604 0.0
O71 O 0.82969 0.85515 0.1404 0.0
H72 H 0.81792 0.14092 0.11581 0.0
H73 H 0.82411 0.23165 0.11115 0.0
H74 H 0.86815 0.23258 0.17222 0.0
H75 H 0.86251 0.1427 0.17646 0.0
H76 H 0.89375 0.71178 0.16554 0.0
H77 H 0.88626 0.62134 0.16836 0.0
H78 H 0.85005 0.62527 0.10265 0.0
H79 H 0.85807 0.71495 0.0995 0.0
Pr80 Pr 0.13683 0.98594 0.38063 0.0
Pr81 Pr 0.11542 0.86679 0.37678 0.0
C82 C 0.14994 0.08021 0.36948 0.0
C83 C 0.14547 0.13415 0.37346 0.0
C84 C 0.14622 0.156 0.39557 0.0
C85 C 0.14288 0.20801 0.39818 0.0
C86 C 0.139 0.23853 0.37873 0.0
C87 C 0.13789 0.21647 0.35678 0.0
C88 C 0.14099 0.16472 0.3542 0.0
C89 C 0.12993 0.94346 0.42434 0.0
C90 C 0.07791 0.96235 0.38293 0.0
C91 C 0.10198 0.77309 0.38824 0.0
C92 C 0.10824 0.71941 0.38642 0.0
C93 C 0.11404 0.69665 0.36527 0.0
C94 C 0.11876 0.64489 0.36429 0.0
C95 C 0.11782 0.61524 0.38443 0.0
C96 C 0.11235 0.63854 0.40555 0.0
C97 C 0.10764 0.69004 0.4065 0.0
C98 C 0.12259 0.91324 0.33333 0.0
C99 C 0.17347 0.88654 0.37402 0.0
O100 O 0.13329 0.05541 0.3587 0.0
O101 O 0.16072 0.05384 0.38552 0.0
O102 O 0.12531 0.92359 0.40503 0.0
O103 O 0.13874 0.98821 0.42118 0.0
O104 O 0.08119 0.91305 0.3831 0.0
O105 O 0.09523 0.9962 0.38145 0.0
O106 O 0.1155 0.80101 0.40145 0.0
O107 O 0.09423 0.79627 0.36969 0.0
O108 O 0.12654 0.93005 0.35322 0.0
O109 O 0.11496 0.8671 0.33533 0.0
O110 O 0.17087 0.93632 0.37269 0.0
O111 O 0.15594 0.85442 0.37714 0.0
H112 H 0.14961 0.13315 0.41071 0.0
H113 H 0.14387 0.22459 0.41525 0.0
H114 H 0.13475 0.23939 0.34161 0.0
H115 H 0.14026 0.14859 0.33703 0.0
H116 H 0.11476 0.71863 0.34953 0.0
H117 H 0.1232 0.62812 0.3478 0.0
H118 H 0.11113 0.61675 0.42132 0.0
H119 H 0.10314 0.7069 0.42297 0.0
Pr120 Pr 0.84812 0.05357 0.37934 0.0
Pr121 Pr 0.87075 0.1628 0.37687 0.0
C122 C 0.83634 0.9596 0.3659 0.0
C123 C 0.84102 0.90513 0.36931 0.0
C124 C 0.83611 0.88034 0.39024 0.0
C125 C 0.83921 0.82803 0.39216 0.0
C126 C 0.84722 0.79948 0.37319 0.0
C127 C 0.85258 0.82475 0.35249 0.0
C128 C 0.84944 0.87679 0.35058 0.0
C129 C 0.85451 0.08573 0.4248 0.0
C130 C 0.90717 0.07201 0.38559 0.0
C131 C 0.88337 0.26081 0.37972 0.0
C132 C 0.8758 0.31429 0.37838 0.0
C133 C 0.88356 0.34408 0.35982 0.0
C134 C 0.87923 0.39593 0.35944 0.0
C135 C 0.86714 0.41955 0.37772 0.0
C136 C 0.8588 0.38949 0.39603 0.0
C137 C 0.86311 0.33746 0.39638 0.0
C138 C 0.86908 0.10675 0.33588 0.0
C139 C 0.81195 0.15147 0.37407 0.0
O140 O 0.85309 0.98615 0.35606 0.0
O141 O 0.82459 0.98446 0.38179 0.0
O142 O 0.85997 0.11144 0.40712 0.0
O143 O 0.84526 0.04283 0.41897 0.0
O144 O 0.90364 0.12019 0.38944 0.0
O145 O 0.88985 0.04089 0.37952 0.0
O146 O 0.87704 0.23388 0.39764 0.0
O147 O 0.88427 0.23484 0.36055 0.0
O148 O 0.85267 0.1109 0.35048 0.0
O149 O 0.88749 0.13289 0.34208 0.0
O150 O 0.8133 0.1016 0.3737 0.0
O151 O 0.83065 0.18073 0.37622 0.0
H152 H 0.82953 0.9011 0.405 0.0
H153 H 0.83473 0.80981 0.40831 0.0
H154 H 0.85919 0.80429 0.33765 0.0
H155 H 0.85332 0.89489 0.33424 0.0
H156 H 0.89356 0.32746 0.34579 0.0
H157 H 0.88557 0.41759 0.34486 0.0
H158 H 0.84963 0.40638 0.41051 0.0
H159 H 0.85706 0.31574 0.41107 0.0
Pr160 Pr 0.86986 0.86694 0.8766 0.0
Pr161 Pr 0.84994 0.97702 0.88069 0.0
C162 C 0.87919 0.7676 0.87348 0.0
C163 C 0.87213 0.71448 0.87691 0.0
C164 C 0.86765 0.68478 0.85733 0.0
C165 C 0.86386 0.63309 0.8594 0.0
C166 C 0.86453 0.60963 0.88112 0.0
C167 C 0.86821 0.63952 0.90088 0.0
C168 C 0.87211 0.69152 0.89879 0.0
C169 C 0.86848 0.92383 0.83575 0.0
C170 C 0.81276 0.8831 0.88057 0.0
C171 C 0.8382 0.07176 0.86863 0.0
C172 C 0.8412 0.1261 0.87286 0.0
C173 C 0.84485 0.14619 0.89502 0.0
C174 C 0.84727 0.19844 0.89799 0.0
C175 C 0.84598 0.23116 0.87887 0.0
C176 C 0.84268 0.21048 0.85677 0.0
C177 C 0.84034 0.15858 0.85383 0.0
C178 C 0.85529 0.94117 0.92573 0.0
C179 C 0.90852 0.95318 0.8859 0.0
O180 O 0.88596 0.79505 0.89112 0.0
O181 O 0.86807 0.79317 0.85751 0.0
O182 O 0.8523 0.92182 0.8507 0.0
O183 O 0.88627 0.89576 0.84164 0.0
O184 O 0.81549 0.92988 0.87322 0.0
O185 O 0.83072 0.85533 0.88729 0.0
O186 O 0.85635 0.04767 0.85992 0.0
O187 O 0.82578 0.04504 0.88335 0.0
O188 O 0.86024 0.91632 0.90772 0.0
O189 O 0.84674 0.98513 0.92062 0.0
O190 O 0.90408 0.90502 0.889 0.0
O191 O 0.8917 0.98579 0.88013 0.0
H192 H 0.86775 0.70134 0.84023 0.0
H193 H 0.8607 0.61132 0.84388 0.0
H194 H 0.86894 0.62243 0.91785 0.0
H195 H 0.8757 0.71337 0.91419 0.0
H196 H 0.84571 0.12167 0.90995 0.0
H197 H 0.84973 0.2133 0.91525 0.0
H198 H 0.84206 0.23445 0.84164 0.0
H199 H 0.83776 0.14372 0.83658 0.0
Pr200 Pr 0.1133 0.16483 0.87685 0.0
Pr201 Pr 0.13738 0.0468 0.87828 0.0
C202 C 0.10001 0.25857 0.88861 0.0
C203 C 0.1058 0.31256 0.88569 0.0
C204 C 0.10074 0.33874 0.86516 0.0
C205 C 0.1047 0.39075 0.86372 0.0
C206 C 0.1137 0.41753 0.88277 0.0
C207 C 0.11921 0.39095 0.90306 0.0
C208 C 0.11523 0.3392 0.90451 0.0
C209 C 0.12086 0.12137 0.83266 0.0
C210 C 0.17202 0.14887 0.87569 0.0
C211 C 0.15106 0.95305 0.86663 0.0
C212 C 0.14528 0.89933 0.87059 0.0
C213 C 0.15305 0.87359 0.89042 0.0
C214 C 0.14872 0.82195 0.89291 0.0
C215 C 0.13658 0.79501 0.87565 0.0
C216 C 0.1286 0.82102 0.856 0.0
C217 C 0.13294 0.87247 0.85351 0.0
C218 C 0.12841 0.08507 0.92264 0.0
C219 C 0.07846 0.06612 0.88274 0.0
O220 O 0.11493 0.23154 0.90075 0.0
O221 O 0.09047 0.234 0.87125 0.0
O222 O 0.12638 0.1052 0.85226 0.0
O223 O 0.11145 0.16578 0.8353 0.0
O224 O 0.17057 0.09959 0.87164 0.0
O225 O 0.15363 0.17824 0.87982 0.0
O226 O 0.13559 0.97932 0.85489 0.0
O227 O 0.16118 0.97872 0.8833 0.0
O228 O 0.12388 0.10551 0.90351 0.0
O229 O 0.13839 0.04164 0.91907 0.0
O230 O 0.0811 0.11491 0.88653 0.0
O231 O 0.09593 0.03495 0.877 0.0
H232 H 0.09334 0.31936 0.85038 0.0
H233 H 0.10007 0.41019 0.84791 0.0
H234 H 0.12653 0.41021 0.91792 0.0
H235 H 0.1192 0.32008 0.92058 0.0
H236 H 0.16271 0.8931 0.90387 0.0
H237 H 0.15491 0.8031 0.90837 0.0
H238 H 0.11956 0.80137 0.84219 0.0
H239 H 0.12701 0.89104 0.8379 0.0
Pr240 Pr 0.87293 0.17049 0.64334 0.0
Pr241 Pr 0.85048 0.05938 0.63917 0.0
C242 C 0.8855 0.2685 0.64155 0.0
C243 C 0.87722 0.32146 0.64047 0.0
C244 C 0.87813 0.35153 0.66042 0.0
C245 C 0.8732 0.40304 0.65931 0.0
C246 C 0.86724 0.42595 0.63819 0.0
C247 C 0.86579 0.39561 0.6183 0.0
C248 C 0.87077 0.34398 0.61941 0.0
C249 C 0.87024 0.11391 0.68406 0.0
C250 C 0.81433 0.15726 0.64281 0.0
C251 C 0.8381 0.96451 0.65043 0.0
C252 C 0.84278 0.91045 0.64597 0.0
C253 C 0.83606 0.88669 0.62528 0.0
C254 C 0.8394 0.8347 0.62242 0.0
C255 C 0.84948 0.80545 0.6402 0.0
C256 C 0.85634 0.82959 0.66075 0.0
C257 C 0.85303 0.88133 0.66357 0.0
C258 C 0.85971 0.09587 0.59471 0.0
C259 C 0.9093 0.07874 0.63525 0.0
O260 O 0.88348 0.24009 0.62315 0.0
O261 O 0.8823 0.24389 0.66087 0.0
O262 O 0.85435 0.11611 0.66872 0.0
O263 O 0.88809 0.14269 0.67887 0.0
O264 O 0.81578 0.10756 0.64463 0.0
O265 O 0.83292 0.18656 0.63993 0.0
O266 O 0.85483 0.98976 0.661 0.0
O267 O 0.82665 0.9911 0.6349 0.0
O268 O 0.86355 0.1187 0.61341 0.0
O269 O 0.85075 0.05171 0.59866 0.0
O270 O 0.90576 0.12686 0.631 0.0
O271 O 0.89198 0.04811 0.64178 0.0
H272 H 0.88341 0.33553 0.67684 0.0
H273 H 0.8749 0.42522 0.67491 0.0
H274 H 0.86097 0.41183 0.60179 0.0
H275 H 0.87008 0.32202 0.60367 0.0
H276 H 0.82804 0.90804 0.61139 0.0
H277 H 0.83412 0.81744 0.60628 0.0
H278 H 0.86372 0.80831 0.67498 0.0
H279 H 0.85809 0.8985 0.67981 0.0
Pr280 Pr 0.11432 0.86902 0.64142 0.0
Pr281 Pr 0.13721 0.97883 0.63831 0.0
C282 C 0.10122 0.77116 0.63934 0.0
C283 C 0.10919 0.71777 0.63949 0.0
C284 C 0.10677 0.68877 0.65967 0.0
C285 C 0.11136 0.63698 0.65942 0.0
C286 C 0.11834 0.61261 0.63895 0.0
C287 C 0.12137 0.64187 0.61888 0.0
C288 C 0.1168 0.69378 0.61914 0.0
C289 C 0.11673 0.92537 0.68225 0.0
C290 C 0.17302 0.8804 0.64136 0.0
C291 C 0.15004 0.07291 0.65065 0.0
C292 C 0.1456 0.12739 0.64721 0.0
C293 C 0.14548 0.15004 0.62525 0.0
C294 C 0.14246 0.20236 0.62305 0.0
C295 C 0.13957 0.23295 0.64274 0.0
C296 C 0.13923 0.20975 0.66458 0.0
C297 C 0.14223 0.15773 0.66675 0.0
C298 C 0.12788 0.94598 0.59323 0.0
C299 C 0.07858 0.961 0.63351 0.0
O300 O 0.10538 0.79869 0.62101 0.0
O301 O 0.10247 0.79666 0.65863 0.0
O302 O 0.13305 0.92141 0.66746 0.0
O303 O 0.09814 0.89962 0.6762 0.0
O304 O 0.17179 0.93014 0.64281 0.0
O305 O 0.15432 0.8512 0.6393 0.0
O306 O 0.13361 0.04711 0.66138 0.0
O307 O 0.16083 0.04743 0.63433 0.0
O308 O 0.12374 0.92127 0.61144 0.0
O309 O 0.13697 0.98953 0.59819 0.0
O310 O 0.08214 0.91352 0.62803 0.0
O311 O 0.09577 0.99049 0.64127 0.0
H312 H 0.10072 0.70588 0.67559 0.0
H313 H 0.10921 0.61593 0.6753 0.0
H314 H 0.12647 0.6244 0.60274 0.0
H315 H 0.11858 0.71477 0.6032 0.0
H316 H 0.148 0.12753 0.60985 0.0
H317 H 0.14295 0.21897 0.60597 0.0
H318 H 0.13658 0.23182 0.68009 0.0
H319 H 0.14217 0.14115 0.68386 0.0
Pr320 Pr 0.63714 0.55353 0.13859 0.0
Pr321 Pr 0.61352 0.67124 0.14145 0.0
C322 C 0.65104 0.45982 0.14989 0.0
C323 C 0.6455 0.40609 0.14566 0.0
C324 C 0.66121 0.3761 0.13286 0.0
C325 C 0.65736 0.32429 0.13066 0.0
C326 C 0.6378 0.30124 0.14138 0.0
C327 C 0.62185 0.33149 0.15382 0.0
C328 C 0.62562 0.38328 0.15592 0.0
C329 C 0.62673 0.59174 0.09462 0.0
C330 C 0.57784 0.57381 0.1355 0.0
C331 C 0.60006 0.76549 0.13094 0.0
C332 C 0.60639 0.819 0.13469 0.0
C333 C 0.5924 0.84935 0.14914 0.0
C334 C 0.59668 0.90111 0.15081 0.0
C335 C 0.61495 0.92362 0.13794 0.0
C336 C 0.62933 0.89302 0.12398 0.0
C337 C 0.62511 0.84132 0.12237 0.0
C338 C 0.62117 0.62541 0.18508 0.0
C339 C 0.672 0.65613 0.14418 0.0
O340 O 0.63557 0.48586 0.16175 0.0
O341 O 0.66114 0.48573 0.13327 0.0
O342 O 0.62392 0.61371 0.11375 0.0
O343 O 0.63549 0.54706 0.09804 0.0
O344 O 0.58094 0.62271 0.13248 0.0
O345 O 0.59546 0.54176 0.13998 0.0
O346 O 0.61435 0.7386 0.11801 0.0
O347 O 0.59086 0.74023 0.14825 0.0
O348 O 0.62596 0.6098 0.16524 0.0
O349 O 0.61221 0.67041 0.18306 0.0
O350 O 0.67067 0.60609 0.14589 0.0
O351 O 0.65361 0.68537 0.13998 0.0
H352 H 0.67675 0.39254 0.1249 0.0
H353 H 0.66984 0.30224 0.12068 0.0
H354 H 0.60679 0.31497 0.16259 0.0
H355 H 0.61323 0.40512 0.16609 0.0
H356 H 0.57771 0.83333 0.15866 0.0
H357 H 0.58517 0.92377 0.16157 0.0
H358 H 0.64375 0.90914 0.11411 0.0
H359 H 0.63624 0.81915 0.11103 0.0
Pr360 Pr 0.34916 0.47687 0.13845 0.0
Pr361 Pr 0.3733 0.36571 0.14155 0.0
C362 C 0.33634 0.57078 0.15099 0.0
C363 C 0.34056 0.62533 0.14803 0.0
C364 C 0.34432 0.64765 0.12633 0.0
C365 C 0.34763 0.69996 0.12452 0.0
C366 C 0.34717 0.73073 0.14435 0.0
C367 C 0.34378 0.70782 0.166 0.0
C368 C 0.34052 0.65583 0.16778 0.0
C369 C 0.35784 0.44024 0.09386 0.0
C370 C 0.40794 0.45949 0.13265 0.0
C371 C 0.38632 0.26812 0.1382 0.0
C372 C 0.37826 0.2149 0.13896 0.0
C373 C 0.37648 0.1889 0.16006 0.0
C374 C 0.37179 0.13713 0.16046 0.0
C375 C 0.36886 0.10998 0.13978 0.0
C376 C 0.37004 0.13628 0.11872 0.0
C377 C 0.37473 0.18804 0.11833 0.0
C378 C 0.37102 0.42252 0.1822 0.0
C379 C 0.3142 0.37694 0.14378 0.0
O380 O 0.35294 0.54502 0.16149 0.0
O381 O 0.32567 0.54573 0.13444 0.0
O382 O 0.36235 0.4184 0.11263 0.0
O383 O 0.34817 0.4838 0.09776 0.0
O384 O 0.4048 0.41165 0.12757 0.0
O385 O 0.39071 0.48889 0.14046 0.0
O386 O 0.3804 0.29563 0.12032 0.0
O387 O 0.38695 0.2936 0.15755 0.0
O388 O 0.35483 0.41905 0.16724 0.0
O389 O 0.38906 0.39436 0.1768 0.0
O390 O 0.31506 0.4269 0.14452 0.0
O391 O 0.33314 0.34837 0.14118 0.0
H392 H 0.34454 0.62484 0.11082 0.0
H393 H 0.35008 0.71641 0.10757 0.0
H394 H 0.34376 0.73009 0.18167 0.0
H395 H 0.33783 0.63935 0.1847 0.0
H396 H 0.37928 0.20822 0.1763 0.0
H397 H 0.37068 0.11826 0.177 0.0
H398 H 0.36818 0.11657 0.10246 0.0
H399 H 0.37633 0.20672 0.10177 0.0
Pr400 Pr 0.63651 0.47883 0.37986 0.0
Pr401 Pr 0.61473 0.37551 0.37703 0.0
C402 C 0.64841 0.57686 0.3737 0.0
C403 C 0.64224 0.63074 0.37741 0.0
C404 C 0.65737 0.66123 0.39064 0.0
C405 C 0.65377 0.71334 0.39203 0.0
C406 C 0.63499 0.73654 0.38008 0.0
C407 C 0.61943 0.70575 0.36733 0.0
C408 C 0.62302 0.65352 0.36598 0.0
C409 C 0.63251 0.43304 0.42325 0.0
C410 C 0.57742 0.46444 0.38356 0.0
C411 C 0.60155 0.27752 0.37962 0.0
C412 C 0.60851 0.22363 0.37789 0.0
C413 C 0.59677 0.19236 0.36204 0.0
C414 C 0.60071 0.14027 0.3619 0.0
C415 C 0.61653 0.11793 0.37766 0.0
C416 C 0.62876 0.14951 0.39317 0.0
C417 C 0.62478 0.2017 0.39331 0.0
C418 C 0.6182 0.42762 0.33489 0.0
C419 C 0.67288 0.3843 0.37571 0.0
O420 O 0.63599 0.55073 0.35888 0.0
O421 O 0.65567 0.55015 0.39131 0.0
O422 O 0.61677 0.43129 0.4077 0.0
O423 O 0.65026 0.46067 0.41679 0.0
O424 O 0.58099 0.41691 0.38874 0.0
O425 O 0.59509 0.49394 0.37696 0.0
O426 O 0.60907 0.30368 0.3973 0.0
O427 O 0.59986 0.30411 0.36069 0.0
O428 O 0.63449 0.42382 0.34968 0.0
O429 O 0.59921 0.40424 0.3416 0.0
O430 O 0.67075 0.43252 0.37046 0.0
O431 O 0.65457 0.35714 0.38199 0.0
H432 H 0.67244 0.64491 0.39948 0.0
H433 H 0.6659 0.73553 0.40233 0.0
H434 H 0.60492 0.72216 0.35768 0.0
H435 H 0.61111 0.63128 0.35545 0.0
H436 H 0.58391 0.20806 0.35016 0.0
H437 H 0.5907 0.11734 0.34991 0.0
H438 H 0.64134 0.13388 0.40533 0.0
H439 H 0.6341 0.22463 0.40583 0.0
Pr440 Pr 0.3485 0.55737 0.37859 0.0
Pr441 Pr 0.3689 0.66551 0.37562 0.0
C442 C 0.33783 0.4614 0.36735 0.0
C443 C 0.34203 0.4078 0.37354 0.0
C444 C 0.32437 0.37938 0.38461 0.0
C445 C 0.32721 0.32741 0.38789 0.0
C446 C 0.34774 0.30263 0.38005 0.0
C447 C 0.36568 0.33142 0.3696 0.0
C448 C 0.36284 0.38321 0.36633 0.0
C449 C 0.35515 0.58832 0.42425 0.0
C450 C 0.40728 0.5793 0.38305 0.0
C451 C 0.37762 0.76534 0.37325 0.0
C452 C 0.3702 0.81783 0.37816 0.0
C453 C 0.35772 0.84522 0.36131 0.0
C454 C 0.35375 0.89681 0.36396 0.0
C455 C 0.36214 0.9225 0.38354 0.0
C456 C 0.374 0.8948 0.40077 0.0
C457 C 0.37807 0.84306 0.39807 0.0
C458 C 0.36732 0.61144 0.33396 0.0
C459 C 0.31199 0.65238 0.37901 0.0
O460 O 0.35578 0.48638 0.35878 0.0
O461 O 0.32411 0.489 0.38058 0.0
O462 O 0.35996 0.61539 0.40685 0.0
O463 O 0.34622 0.54547 0.41811 0.0
O464 O 0.40306 0.62687 0.38773 0.0
O465 O 0.39027 0.5483 0.37615 0.0
O466 O 0.38592 0.73685 0.38989 0.0
O467 O 0.36558 0.74034 0.35775 0.0
O468 O 0.35101 0.61306 0.3488 0.0
O469 O 0.38524 0.63857 0.34033 0.0
O470 O 0.314 0.60564 0.37131 0.0
O471 O 0.33029 0.67611 0.38777 0.0
H472 H 0.30802 0.39702 0.39012 0.0
H473 H 0.31294 0.30637 0.39581 0.0
H474 H 0.38188 0.31383 0.36369 0.0
H475 H 0.37681 0.40367 0.35761 0.0
H476 H 0.35176 0.82724 0.34556 0.0
H477 H 0.34492 0.91688 0.35013 0.0
H478 H 0.38046 0.91323 0.41621 0.0
H479 H 0.38796 0.82321 0.41125 0.0
Pr480 Pr 0.36993 0.37208 0.87485 0.0
Pr481 Pr 0.34722 0.4787 0.87817 0.0
C482 C 0.37991 0.27308 0.87033 0.0
C483 C 0.37445 0.21895 0.87316 0.0
C484 C 0.37955 0.1868 0.85463 0.0
C485 C 0.37543 0.13509 0.85625 0.0
C486 C 0.36589 0.11392 0.87648 0.0
C487 C 0.3607 0.14631 0.89515 0.0
C488 C 0.36493 0.19844 0.89351 0.0
C489 C 0.36726 0.42847 0.83396 0.0
C490 C 0.31279 0.38067 0.88092 0.0
C491 C 0.33504 0.57323 0.86558 0.0
C492 C 0.33971 0.62763 0.86998 0.0
C493 C 0.32887 0.65369 0.88831 0.0
C494 C 0.3321 0.70583 0.89093 0.0
C495 C 0.34618 0.73327 0.87524 0.0
C496 C 0.35714 0.70691 0.85707 0.0
C497 C 0.35393 0.65496 0.85448 0.0
C498 C 0.35434 0.4483 0.92367 0.0
C499 C 0.40668 0.46061 0.88358 0.0
O500 O 0.38711 0.29991 0.888 0.0
O501 O 0.36745 0.29858 0.85532 0.0
O502 O 0.3509 0.42339 0.84855 0.0
O503 O 0.38614 0.40464 0.84048 0.0
O504 O 0.31341 0.42722 0.87271 0.0
O505 O 0.33214 0.35894 0.88854 0.0
O506 O 0.35197 0.54732 0.85566 0.0
O507 O 0.32303 0.54707 0.88084 0.0
O508 O 0.35986 0.42132 0.90634 0.0
O509 O 0.34454 0.49034 0.91747 0.0
O510 O 0.40383 0.41187 0.88616 0.0
O511 O 0.38898 0.49163 0.87845 0.0
H512 H 0.38702 0.20174 0.83881 0.0
H513 H 0.38015 0.11159 0.84168 0.0
H514 H 0.35314 0.13149 0.91093 0.0
H515 H 0.36078 0.22255 0.90804 0.0
H516 H 0.31764 0.63401 0.90048 0.0
H517 H 0.32356 0.72461 0.90528 0.0
H518 H 0.36772 0.72661 0.84437 0.0
H519 H 0.36224 0.6363 0.83995 0.0
Pr520 Pr 0.61177 0.66805 0.8775 0.0
Pr521 Pr 0.63521 0.55888 0.87975 0.0
C522 C 0.59953 0.76638 0.87939 0.0
C523 C 0.60756 0.81945 0.87877 0.0
C524 C 0.59773 0.85168 0.86214 0.0
C525 C 0.60309 0.90303 0.86205 0.0
C526 C 0.61851 0.92362 0.87862 0.0
C527 C 0.62878 0.89107 0.89506 0.0
C528 C 0.62336 0.83946 0.89514 0.0
C529 C 0.61458 0.61466 0.83581 0.0
C530 C 0.67043 0.65801 0.87645 0.0
C531 C 0.64671 0.46409 0.86711 0.0
C532 C 0.64278 0.40961 0.8718 0.0
C533 C 0.658 0.38226 0.88638 0.0
C534 C 0.65548 0.32995 0.88881 0.0
C535 C 0.63778 0.30366 0.87661 0.0
C536 C 0.62244 0.33126 0.86224 0.0
C537 C 0.62492 0.3834 0.85987 0.0
C538 C 0.62881 0.59175 0.92518 0.0
C539 C 0.57594 0.57682 0.88576 0.0
O540 O 0.60369 0.73915 0.8978 0.0
O541 O 0.60067 0.74073 0.86017 0.0
O542 O 0.63062 0.61673 0.85095 0.0
O543 O 0.59642 0.64174 0.84173 0.0
O544 O 0.66942 0.60864 0.87288 0.0
O545 O 0.6515 0.68477 0.8814 0.0
O546 O 0.62891 0.48942 0.8584 0.0
O547 O 0.65968 0.49071 0.88144 0.0
O548 O 0.62315 0.61642 0.90729 0.0
O549 O 0.63865 0.5493 0.91961 0.0
O550 O 0.57902 0.62508 0.88965 0.0
O551 O 0.59348 0.54624 0.8797 0.0
H552 H 0.58534 0.8373 0.84946 0.0
H553 H 0.59453 0.92684 0.84937 0.0
H554 H 0.64096 0.90548 0.9079 0.0
H555 H 0.63125 0.81549 0.90817 0.0
H556 H 0.67213 0.40108 0.89562 0.0
H557 H 0.66747 0.31011 0.90022 0.0
H558 H 0.60891 0.31243 0.8522 0.0
H559 H 0.61313 0.40297 0.84815 0.0
Pr560 Pr 0.37279 0.67251 0.64114 0.0
Pr561 Pr 0.3499 0.55478 0.63667 0.0
C562 C 0.38577 0.76696 0.63082 0.0
C563 C 0.37922 0.82012 0.63456 0.0
C564 C 0.39497 0.85214 0.64621 0.0
C565 C 0.39041 0.90374 0.64765 0.0
C566 C 0.37006 0.92427 0.63732 0.0
C567 C 0.35393 0.89199 0.6263 0.0
C568 C 0.35842 0.84038 0.62496 0.0
C569 C 0.36435 0.62656 0.68446 0.0
C570 C 0.31433 0.65476 0.64387 0.0
C571 C 0.33815 0.45964 0.64743 0.0
C572 C 0.34276 0.40619 0.64197 0.0
C573 C 0.32531 0.377 0.63111 0.0
C574 C 0.3284 0.32507 0.62851 0.0
C575 C 0.34894 0.30131 0.63691 0.0
C576 C 0.36663 0.33081 0.64727 0.0
C577 C 0.36361 0.38262 0.64975 0.0
C578 C 0.3589 0.59735 0.59338 0.0
C579 C 0.40905 0.57647 0.6341 0.0
O580 O 0.37173 0.73984 0.61774 0.0
O581 O 0.39487 0.74203 0.64828 0.0
O582 O 0.36 0.61017 0.66455 0.0
O583 O 0.37356 0.67134 0.68243 0.0
O584 O 0.31609 0.60478 0.64477 0.0
O585 O 0.33243 0.68543 0.64056 0.0
O586 O 0.35547 0.48454 0.65719 0.0
O587 O 0.32565 0.48679 0.63287 0.0
O588 O 0.3627 0.6166 0.6129 0.0
O589 O 0.34946 0.55298 0.59585 0.0
O590 O 0.40629 0.62581 0.63354 0.0
O591 O 0.39142 0.5436 0.63626 0.0
H592 H 0.41119 0.83749 0.65362 0.0
H593 H 0.40325 0.9278 0.6561 0.0
H594 H 0.33794 0.90673 0.61847 0.0
H595 H 0.34587 0.81669 0.61591 0.0
H596 H 0.30899 0.39409 0.62514 0.0
H597 H 0.31456 0.30343 0.62019 0.0
H598 H 0.38249 0.31366 0.65427 0.0
H599 H 0.37735 0.40381 0.65845 0.0
Pr600 Pr 0.61449 0.36864 0.64335 0.0
Pr601 Pr 0.63649 0.4795 0.63861 0.0
C602 C 0.60256 0.27028 0.64308 0.0
C603 C 0.6109 0.21748 0.64129 0.0
C604 C 0.61487 0.18923 0.66146 0.0
C605 C 0.61966 0.13769 0.66022 0.0
C606 C 0.62061 0.11297 0.63876 0.0
C607 C 0.61726 0.14152 0.61854 0.0
C608 C 0.61237 0.19315 0.61979 0.0
C609 C 0.61561 0.42734 0.68345 0.0
C610 C 0.67296 0.38276 0.64287 0.0
C611 C 0.64832 0.57415 0.65065 0.0
C612 C 0.64399 0.6284 0.64689 0.0
C613 C 0.64611 0.65123 0.6251 0.0
C614 C 0.64287 0.70336 0.6227 0.0
C615 C 0.63747 0.73349 0.64204 0.0
C616 C 0.63521 0.71016 0.66372 0.0
C617 C 0.6384 0.65831 0.66608 0.0
C618 C 0.62964 0.44134 0.59425 0.0
C619 C 0.57769 0.4586 0.63307 0.0
O620 O 0.60222 0.29845 0.62448 0.0
O621 O 0.60788 0.29526 0.66185 0.0
O622 O 0.63202 0.42443 0.66868 0.0
O623 O 0.59799 0.39826 0.67797 0.0
O624 O 0.67123 0.43234 0.64473 0.0
O625 O 0.65459 0.35286 0.64011 0.0
O626 O 0.63135 0.54861 0.66068 0.0
O627 O 0.65992 0.54843 0.63494 0.0
O628 O 0.62479 0.41864 0.61284 0.0
O629 O 0.63904 0.48507 0.59833 0.0
O630 O 0.58103 0.40977 0.63132 0.0
O631 O 0.59491 0.49105 0.63768 0.0
H632 H 0.61347 0.20658 0.67833 0.0
H633 H 0.62174 0.1169 0.67618 0.0
H634 H 0.61815 0.12387 0.6017 0.0
H635 H 0.60917 0.21366 0.60393 0.0
H636 H 0.65036 0.629 0.60998 0.0
H637 H 0.64449 0.72001 0.6057 0.0
H638 H 0.63149 0.73212 0.67906 0.0
H639 H 0.63684 0.64156 0.68309 0.0
C640 C 0.19794 0.207 0.162 0.0
C641 C 0.19657 0.17394 0.14325 0.0
C642 C 0.21603 0.24295 0.16345 0.0
C643 C 0.23312 0.24582 0.14565 0.0
C644 C 0.2321 0.21157 0.12688 0.0
C645 C 0.21367 0.17602 0.12583 0.0
C646 C 0.21644 0.27881 0.18367 0.0
C647 C 0.25011 0.21351 0.10763 0.0
C648 C 0.2704 0.36426 0.13711 0.0
C649 C 0.29183 0.34906 0.14712 0.0
C650 C 0.2507 0.33152 0.13705 0.0
C651 C 0.25273 0.28301 0.14721 0.0
C652 C 0.27397 0.26899 0.15834 0.0
C653 C 0.29309 0.30226 0.1583 0.0
C654 C 0.22811 0.34767 0.12523 0.0
C655 C 0.27696 0.21782 0.16939 0.0
H656 H 0.18419 0.20608 0.17507 0.0
H657 H 0.21205 0.15138 0.11099 0.0
H658 H 0.23362 0.27592 0.19287 0.0
H659 H 0.21475 0.31813 0.1774 0.0
H660 H 0.20193 0.27125 0.19615 0.0
H661 H 0.24697 0.18406 0.09436 0.0
H662 H 0.24956 0.25098 0.09916 0.0
H663 H 0.2682 0.20855 0.11475 0.0
H664 H 0.26939 0.40033 0.12838 0.0
H665 H 0.30953 0.29069 0.1664 0.0
H666 H 0.21272 0.34183 0.13683 0.0
H667 H 0.22516 0.32407 0.10968 0.0
H668 H 0.22861 0.38783 0.11988 0.0
H669 H 0.26271 0.21117 0.1822 0.0
H670 H 0.29435 0.2137 0.17817 0.0
H671 H 0.27549 0.18806 0.15601 0.0
C672 C 0.78573 0.83187 0.16652 0.0
C673 C 0.78895 0.86206 0.14696 0.0
C674 C 0.76779 0.7954 0.16732 0.0
C675 C 0.75272 0.78893 0.14803 0.0
C676 C 0.75547 0.82046 0.12844 0.0
C677 C 0.77368 0.85663 0.12809 0.0
C678 C 0.7655 0.76258 0.18848 0.0
C679 C 0.73963 0.81481 0.1076 0.0
C680 C 0.71645 0.66829 0.14023 0.0
C681 C 0.69427 0.68432 0.14828 0.0
C682 C 0.73604 0.7015 0.14065 0.0
C683 C 0.73309 0.75149 0.14898 0.0
C684 C 0.711 0.76658 0.15799 0.0
C685 C 0.69216 0.73266 0.15793 0.0
C686 C 0.75961 0.68403 0.13134 0.0
C687 C 0.70685 0.81947 0.16676 0.0
H688 H 0.79811 0.83507 0.18077 0.0
H689 H 0.77679 0.87873 0.11264 0.0
H690 H 0.74751 0.76644 0.19596 0.0
H691 H 0.76786 0.72246 0.18363 0.0
H692 H 0.77873 0.77227 0.20197 0.0
H693 H 0.74386 0.84256 0.09385 0.0
H694 H 0.74147 0.77632 0.10035 0.0
H695 H 0.72083 0.81959 0.11271 0.0
H696 H 0.71821 0.63108 0.13273 0.0
H697 H 0.67519 0.74504 0.16463 0.0
H698 H 0.77393 0.69233 0.14391 0.0
H699 H 0.76382 0.70492 0.11527 0.0
H700 H 0.75971 0.64305 0.12748 0.0
H701 H 0.7196 0.82851 0.18071 0.0
H702 H 0.6886 0.82487 0.1735 0.0
H703 H 0.70979 0.84688 0.15258 0.0
C704 C 0.29504 0.73414 0.36786 0.0
C705 C 0.29095 0.68406 0.37453 0.0
C706 C 0.27662 0.769 0.36616 0.0
C707 C 0.25327 0.75363 0.37121 0.0
C708 C 0.24869 0.70249 0.377 0.0
C709 C 0.26769 0.66794 0.37849 0.0
C710 C 0.2824 0.82279 0.35977 0.0
C711 C 0.2239 0.68499 0.3825 0.0
C712 C 0.21046 0.8549 0.39171 0.0
C713 C 0.19692 0.86322 0.37184 0.0
C714 C 0.22898 0.81949 0.3917 0.0
C715 C 0.23396 0.7919 0.37131 0.0
C716 C 0.22086 0.80176 0.35097 0.0
C717 C 0.20237 0.83711 0.35153 0.0
C718 C 0.24251 0.80991 0.41375 0.0
C719 C 0.22573 0.77346 0.32888 0.0
H720 H 0.31298 0.74657 0.36439 0.0
H721 H 0.26449 0.6293 0.38367 0.0
H722 H 0.27131 0.83511 0.345 0.0
H723 H 0.27837 0.848 0.37453 0.0
H724 H 0.30134 0.82777 0.35507 0.0
H725 H 0.22298 0.64365 0.38531 0.0
H726 H 0.21748 0.70429 0.3983 0.0
H727 H 0.21164 0.69527 0.36829 0.0
H728 H 0.20565 0.87389 0.40761 0.0
H729 H 0.19133 0.84251 0.33641 0.0
H730 H 0.26176 0.8153 0.41081 0.0
H731 H 0.23992 0.77026 0.41928 0.0
H732 H 0.2368 0.83515 0.42799 0.0
H733 H 0.24467 0.77715 0.32408 0.0
H734 H 0.21469 0.78719 0.3143 0.0
H735 H 0.22213 0.73277 0.33147 0.0
C736 C 0.78954 0.2199 0.35558 0.0
C737 C 0.78937 0.17822 0.37043 0.0
C738 C 0.77072 0.2541 0.35505 0.0
C739 C 0.7511 0.24653 0.36977 0.0
C740 C 0.75019 0.20304 0.38403 0.0
C741 C 0.76942 0.16907 0.38416 0.0
C742 C 0.77236 0.29953 0.33945 0.0
C743 C 0.72947 0.19392 0.39995 0.0
C744 C 0.71461 0.3621 0.38604 0.0
C745 C 0.6949 0.35621 0.37166 0.0
C746 C 0.73317 0.3266 0.38559 0.0
C747 C 0.73181 0.28476 0.37036 0.0
C748 C 0.71223 0.28 0.35531 0.0
C749 C 0.69401 0.31568 0.35623 0.0
C750 C 0.75377 0.33263 0.40196 0.0
C751 C 0.71014 0.23637 0.33872 0.0
H752 H 0.80501 0.22691 0.34495 0.0
H753 H 0.76944 0.13725 0.3959 0.0
H754 H 0.75637 0.30215 0.32839 0.0
H755 H 0.77314 0.33432 0.35004 0.0
H756 H 0.78826 0.29837 0.32817 0.0
H757 H 0.73069 0.157 0.40889 0.0
H758 H 0.7287 0.22419 0.41314 0.0
H759 H 0.7126 0.19534 0.39014 0.0
H760 H 0.71493 0.39278 0.39839 0.0
H761 H 0.67848 0.31088 0.34542 0.0
H762 H 0.77066 0.33349 0.39219 0.0
H763 H 0.75461 0.29978 0.41379 0.0
H764 H 0.75242 0.36753 0.41246 0.0
H765 H 0.72598 0.23468 0.32743 0.0
H766 H 0.6941 0.23914 0.32768 0.0
H767 H 0.70935 0.20046 0.34849 0.0
C768 C 0.71534 0.66639 0.87463 0.0
C769 C 0.69261 0.68771 0.87416 0.0
C770 C 0.73563 0.6976 0.87428 0.0
C771 C 0.73288 0.75079 0.87369 0.0
C772 C 0.71004 0.77198 0.8725 0.0
C773 C 0.6904 0.74038 0.87239 0.0
C774 C 0.75994 0.67404 0.87509 0.0
C775 C 0.70616 0.82837 0.87218 0.0
C776 C 0.77989 0.83671 0.89882 0.0
C777 C 0.78999 0.85711 0.87886 0.0
C778 C 0.76147 0.80146 0.89737 0.0
C779 C 0.75354 0.78523 0.8754 0.0
C780 C 0.76379 0.80579 0.85517 0.0
C781 C 0.78177 0.84205 0.85716 0.0
C782 C 0.75056 0.78142 0.91933 0.0
C783 C 0.75612 0.78857 0.83149 0.0
H784 H 0.71726 0.62585 0.87579 0.0
H785 H 0.67305 0.75768 0.87138 0.0
H786 H 0.77126 0.68974 0.86118 0.0
H787 H 0.76861 0.68328 0.89175 0.0
H788 H 0.75925 0.63242 0.87326 0.0
H789 H 0.6871 0.83863 0.87122 0.0
H790 H 0.71373 0.84545 0.88803 0.0
H791 H 0.71537 0.84539 0.85719 0.0
H792 H 0.78685 0.84748 0.91557 0.0
H793 H 0.79033 0.85656 0.84177 0.0
H794 H 0.7524 0.73986 0.92 0.0
H795 H 0.73133 0.79007 0.91961 0.0
H796 H 0.75885 0.79773 0.93503 0.0
H797 H 0.75794 0.74705 0.83012 0.0
H798 H 0.76666 0.80641 0.81752 0.0
H799 H 0.73717 0.7977 0.82873 0.0
C800 C 0.26971 0.36419 0.87066 0.0
C801 C 0.29127 0.3484 0.88029 0.0
C802 C 0.25044 0.33045 0.86889 0.0
C803 C 0.25303 0.27998 0.87665 0.0
C804 C 0.27473 0.26412 0.88624 0.0
C805 C 0.29332 0.29841 0.88816 0.0
C806 C 0.22732 0.34853 0.85879 0.0
C807 C 0.27838 0.2108 0.89471 0.0
C808 C 0.19919 0.20615 0.89583 0.0
C809 C 0.19504 0.17463 0.87687 0.0
C810 C 0.21782 0.24083 0.89582 0.0
C811 C 0.23277 0.24416 0.87631 0.0
C812 C 0.22917 0.21125 0.85732 0.0
C813 C 0.21026 0.17657 0.85782 0.0
C814 C 0.22116 0.27468 0.91653 0.0
C815 C 0.24488 0.21379 0.83629 0.0
H816 H 0.26796 0.40248 0.86439 0.0
H817 H 0.30978 0.28521 0.89564 0.0
H818 H 0.22229 0.3246 0.84387 0.0
H819 H 0.21301 0.3449 0.87182 0.0
H820 H 0.22822 0.38838 0.85303 0.0
H821 H 0.29684 0.20381 0.90055 0.0
H822 H 0.26624 0.20301 0.90933 0.0
H823 H 0.27412 0.18357 0.88079 0.0
H824 H 0.18721 0.20484 0.91046 0.0
H825 H 0.20668 0.15298 0.84295 0.0
H826 H 0.21995 0.31472 0.91118 0.0
H827 H 0.23904 0.26887 0.92401 0.0
H828 H 0.20777 0.26764 0.9302 0.0
H829 H 0.24382 0.25191 0.82849 0.0
H830 H 0.2399 0.18551 0.82303 0.0
H831 H 0.26361 0.20753 0.84132 0.0
C832 C 0.71383 0.36138 0.62975 0.0
C833 C 0.69563 0.35685 0.64598 0.0
C834 C 0.73276 0.32688 0.6297 0.0
C835 C 0.73328 0.28757 0.64631 0.0
C836 C 0.71531 0.28436 0.6632 0.0
C837 C 0.6967 0.31903 0.66278 0.0
C838 C 0.75173 0.33119 0.61145 0.0
C839 C 0.71531 0.24336 0.68127 0.0
C840 C 0.77121 0.17181 0.63407 0.0
C841 C 0.79185 0.18424 0.64619 0.0
C842 C 0.75168 0.20493 0.63415 0.0
C843 C 0.75309 0.25084 0.64666 0.0
C844 C 0.77353 0.26198 0.65971 0.0
C845 C 0.79254 0.22845 0.65939 0.0
C846 C 0.72996 0.19202 0.62017 0.0
C847 C 0.77574 0.31023 0.67337 0.0
H848 H 0.71259 0.38996 0.61643 0.0
H849 H 0.68233 0.31537 0.6751 0.0
H850 H 0.76941 0.33436 0.61968 0.0
H851 H 0.75192 0.29659 0.6007 0.0
H852 H 0.74899 0.36425 0.6 0.0
H853 H 0.70017 0.2468 0.69342 0.0
H854 H 0.7144 0.20594 0.6728 0.0
H855 H 0.73201 0.24458 0.69134 0.0
H856 H 0.7708 0.13785 0.62369 0.0
H857 H 0.8085 0.23781 0.6689 0.0
H858 H 0.72765 0.22008 0.60614 0.0
H859 H 0.7139 0.19391 0.63116 0.0
H860 H 0.73109 0.15388 0.61236 0.0
H861 H 0.77477 0.34303 0.66153 0.0
H862 H 0.79266 0.31237 0.68312 0.0
H863 H 0.76085 0.31359 0.68575 0.0
C864 C 0.19651 0.8175 0.66212 0.0
C865 C 0.19546 0.85359 0.64454 0.0
C866 C 0.21482 0.78213 0.663 0.0
C867 C 0.23254 0.78286 0.6458 0.0
C868 C 0.23195 0.82017 0.62825 0.0
C869 C 0.21331 0.8554 0.62783 0.0
C870 C 0.21484 0.74322 0.68201 0.0
C871 C 0.25062 0.82179 0.60961 0.0
C872 C 0.29204 0.72597 0.65993 0.0
C873 C 0.29155 0.68062 0.64754 0.0
C874 C 0.27288 0.75912 0.65963 0.0
C875 C 0.2524 0.74626 0.64699 0.0
C876 C 0.25108 0.699 0.63559 0.0
C877 C 0.27083 0.66647 0.63594 0.0
C878 C 0.27507 0.809 0.67201 0.0
C879 C 0.22926 0.68407 0.62218 0.0
H880 H 0.18237 0.81584 0.67479 0.0
H881 H 0.21206 0.88253 0.61389 0.0
H882 H 0.21411 0.70486 0.67445 0.0
H883 H 0.2315 0.74587 0.6921 0.0
H884 H 0.19964 0.74781 0.694 0.0
H885 H 0.24769 0.8531 0.59721 0.0
H886 H 0.26842 0.82619 0.61748 0.0
H887 H 0.25069 0.7857 0.59995 0.0
H888 H 0.30803 0.73671 0.66907 0.0
H889 H 0.27053 0.63164 0.62618 0.0
H890 H 0.26022 0.81385 0.68434 0.0
H891 H 0.27403 0.84026 0.65933 0.0
H892 H 0.29202 0.81246 0.68163 0.0
H893 H 0.21324 0.6878 0.63315 0.0
H894 H 0.23031 0.64479 0.61566 0.0
H895 H 0.22693 0.70983 0.60726 0.0
C896 C 0.12076 0.99384 0.31065 0.0
C897 C 0.12433 0.94166 0.31124 0.0
C898 C 0.12132 0.02089 0.28973 0.0
C899 C 0.12501 0.99493 0.26865 0.0
C900 C 0.12857 0.94204 0.26915 0.0
C901 C 0.12814 0.91611 0.2904 0.0
C902 C 0.11745 0.07714 0.29016 0.0
C903 C 0.13233 0.91265 0.24717 0.0
C904 C 0.10084 0.05756 0.21411 0.0
C905 C 0.1214 0.07676 0.20383 0.0
C906 C 0.10184 0.03 0.23485 0.0
C907 C 0.12392 0.02265 0.24607 0.0
C908 C 0.14477 0.04225 0.23575 0.0
C909 C 0.14331 0.06827 0.21455 0.0
C910 C 0.07921 1.00873 0.24473 0.0
C911 C 0.16858 0.0366 0.2473 0.0
H912 H 0.1164 1.01318 0.32642 0.0
H913 H 0.13062 0.87562 0.2907 0.0
H914 H 0.13236 0.09652 0.2814 0.0
H915 H 0.10106 0.08676 0.28056 0.0
H916 H 0.11589 0.09204 0.30802 0.0
H917 H 0.13553 0.872 0.2505 0.0
H918 H 0.11654 0.91644 0.2359 0.0
H919 H 0.14765 0.92811 0.23751 0.0
H920 H 0.0839 0.06353 0.20572 0.0
H921 H 0.15924 0.08318 0.20667 0.0
H922 H 0.07567 0.02564 0.26189 0.0
H923 H 0.08102 0.96747 0.24726 0.0
H924 H 0.0637 1.0159 0.23339 0.0
H925 H 0.1681 0.05422 0.26467 0.0
H926 H 0.18306 0.05427 0.23716 0.0
H927 H 0.17278 0.99614 0.24978 0.0
C928 C 0.84574 0.05788 0.30658 0.0
C929 C 0.86765 0.07552 0.31464 0.0
C930 C 0.84407 0.02993 0.28596 0.0
C931 C 0.86488 0.01831 0.27332 0.0
C932 C 0.88711 0.03507 0.28177 0.0
C933 C 0.88819 0.06378 0.30218 0.0
C934 C 0.81997 1.01377 0.27746 0.0
C935 C 0.90981 0.02313 0.26913 0.0
C936 C 0.86456 0.91142 0.22893 0.0
C937 C 0.8626 0.93786 0.20805 0.0
C938 C 0.86485 0.93691 0.25032 0.0
C939 C 0.8634 0.99023 0.25089 0.0
C940 C 0.86122 1.01694 0.22985 0.0
C941 C 0.86089 0.99035 0.20886 0.0
C942 C 0.86703 0.90682 0.2723 0.0
C943 C 0.85974 0.07374 0.22944 0.0
H944 H 0.8298 0.06685 0.31616 0.0
H945 H 0.90518 0.07697 0.30844 0.0
H946 H 0.81645 0.03071 0.26028 0.0
H947 H 0.81944 0.97227 0.27531 0.0
H948 H 0.80556 0.02514 0.28944 0.0
H949 H 0.9257 0.03682 0.27854 0.0
H950 H 0.91147 0.98186 0.26661 0.0
H951 H 0.90952 0.04075 0.25176 0.0
H952 H 0.86597 0.87072 0.22855 0.0
H953 H 0.86003 1.01074 0.19301 0.0
H954 H 0.85206 0.91565 0.28401 0.0
H955 H 0.88357 0.91738 0.28143 0.0
H956 H 0.86725 0.86559 0.26902 0.0
H957 H 0.84541 0.08696 0.24106 0.0
H958 H 0.85636 0.0886 0.21182 0.0
H959 H 0.87659 0.09 0.23589 0.0
C960 C 0.88383 0.09689 0.72435 0.0
C961 C 0.86809 0.08626 0.70628 0.0
C962 C 0.88233 0.07158 0.74562 0.0
C963 C 0.86517 0.03323 0.74875 0.0
C964 C 0.84922 0.02218 0.7305 0.0
C965 C 0.85054 0.0496 0.70967 0.0
C966 C 0.89921 0.08591 0.76474 0.0
C967 C 0.83115 0.98057 0.73273 0.0
C968 C 0.88152 0.93717 0.795 0.0
C969 C 0.86672 0.9509 0.81337 0.0
C970 C 0.8804 0.96217 0.77363 0.0
C971 C 0.86478 1.0035 0.77075 0.0
C972 C 0.84976 1.01761 0.7893 0.0
C973 C 0.8505 0.99031 0.81017 0.0
C974 C 0.89607 0.94441 0.75414 0.0
C975 C 0.83347 0.06249 0.78738 0.0
H976 H 0.89726 0.12559 0.72197 0.0
H977 H 0.8381 0.0417 0.69591 0.0
H978 H 0.8892 0.09442 0.78076 0.0
H979 H 0.91121 0.05393 0.7686 0.0
H980 H 0.91019 0.11918 0.76019 0.0
H981 H 0.82038 0.97599 0.71681 0.0
H982 H 0.84023 0.9444 0.73647 0.0
H983 H 0.81908 0.98838 0.74739 0.0
H984 H 0.89386 0.90626 0.79725 0.0
H985 H 0.83876 1.0006 0.82418 0.0
H986 H 0.90935 0.97378 0.74996 0.0
H987 H 0.88532 0.93796 0.73837 0.0
H988 H 0.9056 0.90905 0.75849 0.0
H989 H 0.84402 0.09692 0.78387 0.0
H990 H 0.82297 0.0686 0.80336 0.0
H991 H 0.8211 0.05752 0.7727 0.0
C992 C 0.11731 0.04113 0.80996 0.0
C993 C 0.1218 0.09299 0.81054 0.0
C994 C 0.11736 1.01415 0.789 0.0
C995 C 0.12155 0.03985 0.76793 0.0
C996 C 0.12585 0.09247 0.76843 0.0
C997 C 0.12582 0.11837 0.78969 0.0
C998 C 0.11261 0.95822 0.78939 0.0
C999 C 0.13009 0.12161 0.74645 0.0
C1000 C 0.14004 0.96448 0.71452 0.0
C1001 C 0.11824 0.95637 0.70355 0.0
C1002 C 0.1414 0.99121 0.73552 0.0
C1003 C 0.12056 1.01198 0.74537 0.0
C1004 C 0.09862 1.00531 0.73381 0.0
C1005 C 0.09769 0.97691 0.7133 0.0
C1006 C 0.16506 0.99615 0.74744 0.0
C1007 C 0.07604 0.02796 0.74315 0.0
H1008 H 0.1127 0.02207 0.82578 0.0
H1009 H 0.12894 0.15866 0.79003 0.0
H1010 H 0.09681 0.94936 0.77877 0.0
H1011 H 0.12783 0.93776 0.78171 0.0
H1012 H 0.1096 0.94386 0.80715 0.0
H1013 H 0.13354 0.16216 0.74976 0.0
H1014 H 0.14542 0.10557 0.73701 0.0
H1015 H 0.11443 0.11826 0.73498 0.0
H1016 H 0.15596 0.9485 0.70705 0.0
H1017 H 0.08084 0.97119 0.70471 0.0
H1018 H 0.16414 0.97877 0.76484 0.0
H1019 H 0.16954 0.03647 0.74986 0.0
H1020 H 0.17956 0.9778 0.73758 0.0
H1021 H 0.07183 1.01117 0.76019 0.0
H1022 H 0.06074 0.0218 0.73142 0.0
H1023 H 0.07833 0.06907 0.74578 0.0
C1024 C 0.59965 0.48094 0.30425 0.0
C1025 C 0.61987 0.45756 0.3133 0.0
C1026 C 0.60069 0.50918 0.2837 0.0
C1027 C 0.62235 0.51279 0.27139 0.0
C1028 C 0.64283 0.48892 0.28047 0.0
C1029 C 0.64144 0.46244 0.30154 0.0
C1030 C 0.57856 0.53518 0.27521 0.0
C1031 C 0.66612 0.4905 0.26771 0.0
C1032 C 0.6172 0.54462 0.2072 0.0
C1033 C 0.62272 0.59605 0.20687 0.0
C1034 C 0.61762 0.51678 0.22791 0.0
C1035 C 0.62338 0.54114 0.24897 0.0
C1036 C 0.62904 0.5932 0.24866 0.0
C1037 C 0.62847 0.62004 0.22766 0.0
C1038 C 0.61134 0.46153 0.22732 0.0
C1039 C 0.63524 0.62081 0.2706 0.0
H1040 H 0.58301 0.47778 0.31349 0.0
H1041 H 0.65709 0.44428 0.3085 0.0
H1042 H 0.58199 0.57603 0.27291 0.0
H1043 H 0.57338 0.51983 0.25813 0.0
H1044 H 0.56345 0.53051 0.2873 0.0
H1045 H 0.68029 0.46951 0.2769 0.0
H1046 H 0.66392 0.474 0.25023 0.0
H1047 H 0.67192 0.53008 0.26538 0.0
H1048 H 0.61148 0.52665 0.19142 0.0
H1049 H 0.63253 0.65995 0.22749 0.0
H1050 H 0.5947 0.4551 0.23705 0.0
H1051 H 0.62542 0.43906 0.23585 0.0
H1052 H 0.60893 0.44739 0.20942 0.0
H1053 H 0.61998 0.6197 0.28265 0.0
H1054 H 0.64004 0.66077 0.26737 0.0
H1055 H 0.65032 0.60199 0.27934 0.0
C1056 C 0.37739 0.60683 0.29204 0.0
C1057 C 0.36551 0.5865 0.31111 0.0
C1058 C 0.37658 0.58315 0.27032 0.0
C1059 C 0.3649 0.5362 0.26793 0.0
C1060 C 0.35281 0.51555 0.2872 0.0
C1061 C 0.35248 0.54202 0.30828 0.0
C1062 C 0.38837 0.60829 0.24998 0.0
C1063 C 0.341 0.46463 0.28584 0.0
C1064 C 0.3496 0.48289 0.20842 0.0
C1065 C 0.36938 0.45253 0.2038 0.0
C1066 C 0.34802 0.51105 0.22899 0.0
C1067 C 0.36636 0.50764 0.24567 0.0
C1068 C 0.38631 0.47679 0.24105 0.0
C1069 C 0.38766 0.45015 0.22012 0.0
C1070 C 0.32685 0.54479 0.23274 0.0
C1071 C 0.40613 0.47125 0.25838 0.0
H1072 H 0.38705 0.64185 0.29401 0.0
H1073 H 0.34264 0.52703 0.32271 0.0
H1074 H 0.40416 0.58637 0.24467 0.0
H1075 H 0.37609 0.60937 0.23502 0.0
H1076 H 0.39405 0.64738 0.25402 0.0
H1077 H 0.3332 0.45296 0.30262 0.0
H1078 H 0.32679 0.46516 0.27264 0.0
H1079 H 0.35411 0.43579 0.28043 0.0
H1080 H 0.33536 0.48481 0.19589 0.0
H1081 H 0.403 0.42676 0.21668 0.0
H1082 H 0.3328 0.58374 0.23658 0.0
H1083 H 0.31653 0.53155 0.24785 0.0
H1084 H 0.31494 0.54577 0.21748 0.0
H1085 H 0.4147 0.50821 0.26142 0.0
H1086 H 0.4199 0.44418 0.25256 0.0
H1087 H 0.39891 0.45818 0.27516 0.0
C1088 C 0.34417 0.48175 0.80598 0.0
C1089 C 0.36554 0.4588 0.81248 0.0
C1090 C 0.34243 0.5097 0.78536 0.0
C1091 C 0.36256 0.51491 0.7709 0.0
C1092 C 0.38421 0.4921 0.77757 0.0
C1093 C 0.38541 0.46441 0.79823 0.0
C1094 C 0.31906 0.53365 0.77906 0.0
C1095 C 0.40615 0.49663 0.76282 0.0
C1096 C 0.35465 0.54833 0.70723 0.0
C1097 C 0.36202 0.59865 0.70664 0.0
C1098 C 0.35468 0.52053 0.72794 0.0
C1099 C 0.36119 0.5444 0.74889 0.0
C1100 C 0.36734 0.59614 0.74859 0.0
C1101 C 0.36801 0.62236 0.72748 0.0
C1102 C 0.34833 0.46531 0.7273 0.0
C1103 C 0.37364 0.62364 0.77055 0.0
H1104 H 0.32876 0.47768 0.81698 0.0
H1105 H 0.402 0.44696 0.80321 0.0
H1106 H 0.32133 0.57492 0.77698 0.0
H1107 H 0.31274 0.51867 0.76228 0.0
H1108 H 0.3052 0.5267 0.7923 0.0
H1109 H 0.42152 0.47631 0.77035 0.0
H1110 H 0.40262 0.48126 0.74533 0.0
H1111 H 0.411 0.53685 0.76071 0.0
H1112 H 0.34908 0.53057 0.69148 0.0
H1113 H 0.37339 0.66154 0.72729 0.0
H1114 H 0.33324 0.45773 0.73905 0.0
H1115 H 0.36354 0.44255 0.73353 0.0
H1116 H 0.34355 0.45239 0.70966 0.0
H1117 H 0.35952 0.61828 0.78364 0.0
H1118 H 0.37616 0.66466 0.76766 0.0
H1119 H 0.39022 0.60787 0.77784 0.0
C1120 C 0.63269 0.549 0.80991 0.0
C1121 C 0.6169 0.58915 0.81309 0.0
C1122 C 0.63348 0.52232 0.78888 0.0
C1123 C 0.61934 0.53847 0.77003 0.0
C1124 C 0.6045 0.58111 0.77279 0.0
C1125 C 0.60298 0.60498 0.79441 0.0
C1126 C 0.64882 0.47592 0.78713 0.0
C1127 C 0.59008 0.60145 0.75291 0.0
C1128 C 0.63509 0.49099 0.70955 0.0
C1129 C 0.61702 0.45582 0.70549 0.0
C1130 C 0.63598 0.51866 0.73031 0.0
C1131 C 0.61898 0.5094 0.74785 0.0
C1132 C 0.6011 0.4729 0.74399 0.0
C1133 C 0.60013 0.44728 0.72278 0.0
C1134 C 0.65484 0.55841 0.73327 0.0
C1135 C 0.583 0.46058 0.76233 0.0
H1136 H 0.64401 0.53755 0.82404 0.0
H1137 H 0.59108 0.63667 0.79661 0.0
H1138 H 0.63791 0.44315 0.78181 0.0
H1139 H 0.66258 0.48136 0.77372 0.0
H1140 H 0.6577 0.46677 0.80373 0.0
H1141 H 0.58158 0.63805 0.75715 0.0
H1142 H 0.60149 0.60661 0.7375 0.0
H1143 H 0.57602 0.57419 0.74821 0.0
H1144 H 0.64836 0.4974 0.69636 0.0
H1145 H 0.58623 0.41985 0.71986 0.0
H1146 H 0.66674 0.54818 0.74775 0.0
H1147 H 0.64654 0.59508 0.73767 0.0
H1148 H 0.66572 0.56331 0.71745 0.0
H1149 H 0.59206 0.45055 0.77871 0.0
H1150 H 0.57129 0.42887 0.75721 0.0
H1151 H 0.57179 0.49399 0.76583 0.0
C1152 C 0.10421 0.10982 0.95688 0.0
C1153 C 0.12626 0.10724 0.94589 0.0
C1154 C 0.10269 0.11598 0.98103 0.0
C1155 C 0.12373 0.11986 0.99436 0.0
C1156 C 0.14592 0.12098 0.98291 0.0
C1157 C 0.14688 0.11403 0.9589 0.0
C1158 C 0.07867 0.11415 0.9924 0.0
C1159 C 0.16885 0.12557 0.99617 0.0
C1160 C 0.12405 0.15378 0.05863 0.0
C1161 C 0.12778 0.10643 0.06866 0.0
C1162 C 0.1219 0.15889 0.03445 0.0
C1163 C 0.12304 0.11552 0.02016 0.0
C1164 C 0.12558 0.06746 0.03053 0.0
C1165 C 0.1282 0.06362 0.05456 0.0
C1166 C 0.11959 0.21078 0.02413 0.0
C1167 C 0.12644 0.02003 0.01617 0.0
H1168 H 0.08828 0.10326 0.94685 0.0
H1169 H 0.16394 0.11113 0.95039 0.0
H1170 H 0.07643 0.07729 1.00117 0.0
H1171 H 0.07708 0.14391 1.00575 0.0
H1172 H 0.06409 0.11876 0.97969 0.0
H1173 H 0.18418 0.13272 0.9846 0.0
H1174 H 0.16773 0.15654 1.00898 0.0
H1175 H 0.17222 0.09015 1.0058 0.0
H1176 H 0.12387 0.18691 0.06958 0.0
H1177 H 0.13096 0.02696 0.06238 0.0
H1178 H 0.10482 0.21183 0.0115 0.0
H1179 H 0.13605 0.22025 0.01462 0.0
H1180 H 0.1165 0.24004 0.0375 0.0
H1181 H 0.11108 0.01865 1.00424 0.0
H1182 H 0.12636 0.98545 0.02697 0.0
H1183 H 0.14273 0.01996 1.00547 0.0
C1184 C 0.83848 0.9378 0.96498 0.0
C1185 C 0.85644 0.92298 0.94981 0.0
C1186 C 0.84055 0.93049 0.98885 0.0
C1187 C 0.86145 0.90866 0.99798 0.0
C1188 C 0.87909 0.8906 0.98257 0.0
C1189 C 0.8763 0.89767 0.95853 0.0
C1190 C 0.82102 0.94965 1.00434 0.0
C1191 C 0.90159 0.86703 0.99151 0.0
C1192 C 0.87452 0.96705 0.05612 0.0
C1193 C 0.8646 0.9321 0.07141 0.0
C1194 C 0.87554 0.95766 0.03234 0.0
C1195 C 0.86595 0.9124 0.02341 0.0
C1196 C 0.85747 0.87519 0.03898 0.0
C1197 C 0.85698 0.8854 0.06294 0.0
C1198 C 0.8851 0.99828 0.01665 0.0
C1199 C 0.84717 0.82639 0.03028 0.0
H1200 H 0.82303 0.95706 0.95819 0.0
H1201 H 0.89029 0.88647 0.94679 0.0
H1202 H 0.81613 0.92067 0.01727 0.0
H1203 H 0.82729 0.98337 0.01387 0.0
H1204 H 0.80489 0.9602 0.99445 0.0
H1205 H 0.91147 0.84717 0.97765 0.0
H1206 H 0.91319 0.89682 0.99876 0.0
H1207 H 0.89767 0.84001 1.00562 0.0
H1208 H 0.88045 1.00317 0.0627 0.0
H1209 H 0.84905 0.85852 0.07471 0.0
H1210 H 0.87025 1.01598 1.00707 0.0
H1211 H 0.89742 0.98196 1.00375 0.0
H1212 H 0.89457 0.02817 0.02639 0.0
H1213 H 0.82879 0.83311 0.02424 0.0
H1214 H 0.84664 0.79732 0.04407 0.0
H1215 H 0.85749 0.81166 0.01545 0.0
C1216 C 0.10742 0.90201 0.45658 0.0
C1217 C 0.12873 0.92032 0.4475 0.0
C1218 C 0.1048 0.89463 0.48062 0.0
C1219 C 0.12397 0.9057 0.4957 0.0
C1220 C 0.14609 0.91984 0.48613 0.0
C1221 C 0.14807 0.92735 0.46226 0.0
C1222 C 0.08096 0.87922 0.48995 0.0
C1223 C 0.16717 0.93173 0.50123 0.0
C1224 C 0.11565 0.96897 0.55371 0.0
C1225 C 0.1223 0.93109 0.56921 0.0
C1226 C 0.1143 0.95984 0.52992 0.0
C1227 C 0.12023 0.91164 0.52117 0.0
C1228 C 0.12558 0.87219 0.53691 0.0
C1229 C 0.12639 0.88228 0.56088 0.0
C1230 C 0.10809 1.00301 0.51405 0.0
C1231 C 0.13193 0.82033 0.52834 0.0
H1232 H 0.09231 0.89735 0.44522 0.0
H1233 H 0.16453 0.94178 0.45522 0.0
H1234 H 0.08291 0.85272 0.50464 0.0
H1235 H 0.07151 0.91307 0.4964 0.0
H1236 H 0.06984 0.86131 0.47642 0.0
H1237 H 0.18376 0.93542 0.49105 0.0
H1238 H 0.16403 0.96777 0.51045 0.0
H1239 H 0.16972 0.90197 0.51444 0.0
H1240 H 0.11229 1.00666 0.56016 0.0
H1241 H 0.13165 0.85295 0.57285 0.0
H1242 H 0.09432 0.99131 0.50151 0.0
H1243 H 0.12401 1.01429 0.50408 0.0
H1244 H 0.10153 0.03642 0.52367 0.0
H1245 H 0.11938 0.80803 0.51472 0.0
H1246 H 0.13194 0.7921 0.5425 0.0
H1247 H 0.14986 0.82126 0.52051 0.0
C1248 C 0.84966 0.14818 0.56041 0.0
C1249 C 0.86495 0.11409 0.57124 0.0
C1250 C 0.84998 0.15417 0.53623 0.0
C1251 C 0.86605 0.12551 0.52272 0.0
C1252 C 0.8829 0.09444 0.53399 0.0
C1253 C 0.88191 0.08862 0.55809 0.0
C1254 C 0.83157 0.18738 0.52507 0.0
C1255 C 0.90051 0.06344 0.5205 0.0
C1256 C 0.84444 0.0721 0.46581 0.0
C1257 C 0.8567 0.10079 0.44939 0.0
C1258 C 0.84688 0.08096 0.48949 0.0
C1259 C 0.86216 0.11962 0.49728 0.0
C1260 C 0.8742 0.14994 0.48082 0.0
C1261 C 0.87126 0.14031 0.45694 0.0
C1262 C 0.83353 0.04761 0.50616 0.0
C1263 C 0.89054 0.1916 0.48849 0.0
H1264 H 0.83622 0.1671 0.5706 0.0
H1265 H 0.89351 0.06174 0.56652 0.0
H1266 H 0.83933 0.20908 0.51056 0.0
H1267 H 0.8172 0.16353 0.51791 0.0
H1268 H 0.82361 0.21408 0.53764 0.0
H1269 H 0.91479 0.04828 0.53173 0.0
H1270 H 0.89123 0.03125 0.51228 0.0
H1271 H 0.90867 0.08619 0.50655 0.0
H1272 H 0.83297 0.04176 0.46015 0.0
H1273 H 0.88078 0.16262 0.44432 0.0
H1274 H 0.82277 0.0709 0.5181 0.0
H1275 H 0.84624 0.02568 0.51676 0.0
H1276 H 0.82155 0.02075 0.49721 0.0
H1277 H 0.88093 0.21802 0.5 0.0
H1278 H 0.8979 0.21303 0.47366 0.0
H1279 H 0.90542 0.17557 0.49861 0.0
C1280 C 0.63008 0.65283 0.06177 0.0
C1281 C 0.61992 0.60957 0.07141 0.0
C1282 C 0.62938 0.66096 0.03767 0.0
C1283 C 0.61811 0.62519 0.02312 0.0
C1284 C 0.60602 0.58399 0.03324 0.0
C1285 C 0.60733 0.57645 0.05718 0.0
C1286 C 0.64251 0.70531 0.02768 0.0
C1287 C 0.59354 0.54505 0.01864 0.0
C1288 C 0.60897 0.63901 0.95784 0.0
C1289 C 0.62742 0.60873 0.9495 0.0
C1290 C 0.60622 0.64714 0.98183 0.0
C1291 C 0.62246 0.62495 0.9976 0.0
C1292 C 0.6419 0.59711 0.9889 0.0
C1293 C 0.644 0.58918 0.9651 0.0
C1294 C 0.58529 0.67706 0.99036 0.0
C1295 C 0.65986 0.57298 1.00477 0.0
H1296 H 0.64018 0.67801 0.07273 0.0
H1297 H 0.59962 0.54276 0.06466 0.0
H1298 H 0.65973 0.69233 0.02063 0.0
H1299 H 0.63238 0.72248 0.01328 0.0
H1300 H 0.64606 0.73457 0.04095 0.0
H1301 H 0.58221 0.51974 0.0292 0.0
H1302 H 0.58236 0.56346 1.00535 0.0
H1303 H 0.60689 0.5217 0.00953 0.0
H1304 H 0.59607 0.65402 0.9458 0.0
H1305 H 0.65844 0.56616 0.95869 0.0
H1306 H 0.59081 0.70388 1.00403 0.0
H1307 H 0.57209 0.65111 0.99808 0.0
H1308 H 0.57657 0.69833 0.97619 0.0
H1309 H 0.66682 0.60104 0.01723 0.0
H1310 H 0.67503 0.55652 0.99516 0.0
H1311 H 0.65126 0.54251 0.01485 0.0
C1312 C 0.34885 0.47015 0.96477 0.0
C1313 C 0.35728 0.43544 0.94847 0.0
C1314 C 0.35099 0.4617 0.98848 0.0
C1315 C 0.36197 0.41713 0.9965 0.0
C1316 C 0.37055 0.38146 0.98023 0.0
C1317 C 0.36809 0.39097 0.95628 0.0
C1318 C 0.3415 0.501 1.00495 0.0
C1319 C 0.38223 0.33345 0.98818 0.0
C1320 C 0.3821 0.43693 0.05824 0.0
C1321 C 0.36217 0.42066 0.07047 0.0
C1322 C 0.38345 0.43118 0.03413 0.0
C1323 C 0.3642 0.40927 0.022 0.0
C1324 C 0.34484 0.38932 0.03465 0.0
C1325 C 0.34402 0.39552 0.05877 0.0
C1326 C 0.40443 0.4531 0.02152 0.0
C1327 C 0.32388 0.36587 0.0226 0.0
H1328 H 0.34044 0.50462 0.959 0.0
H1329 H 0.37464 0.36394 0.9438 0.0
H1330 H 0.32791 0.48407 0.01639 0.0
H1331 H 0.35599 0.51525 0.0161 0.0
H1332 H 0.33339 0.53355 0.99583 0.0
H1333 H 0.38828 0.30984 0.97349 0.0
H1334 H 0.39768 0.34234 0.99929 0.0
H1335 H 0.36964 0.31127 0.99881 0.0
H1336 H 0.39593 0.45717 0.06734 0.0
H1337 H 0.32841 0.3838 0.06826 0.0
H1338 H 0.39919 0.48923 0.01334 0.0
H1339 H 0.41044 0.42742 1.0076 0.0
H1340 H 0.41952 0.46053 0.03336 0.0
H1341 H 0.31285 0.396 0.01478 0.0
H1342 H 0.31263 0.34405 0.03474 0.0
H1343 H 0.32978 0.34064 1.00846 0.0
C1344 C 0.62823 0.46944 0.46242 0.0
C1345 C 0.62715 0.42713 0.44805 0.0
C1346 C 0.6258 0.46497 0.48643 0.0
C1347 C 0.6228 0.41672 0.49648 0.0
C1348 C 0.62092 0.37391 0.48192 0.0
C1349 C 0.62287 0.3797 0.45776 0.0
C1350 C 0.62738 0.51185 0.50111 0.0
C1351 C 0.61804 0.32185 0.49192 0.0
C1352 C 0.64748 0.41453 0.55738 0.0
C1353 C 0.62708 0.42144 0.57067 0.0
C1354 C 0.64613 0.40881 0.53333 0.0
C1355 C 0.62379 0.41143 0.52219 0.0
C1356 C 0.60296 0.41571 0.53578 0.0
C1357 C 0.60487 0.4205 0.55996 0.0
C1358 C 0.66882 0.40369 0.51975 0.0
C1359 C 0.57883 0.41943 0.52473 0.0
H1360 H 0.63139 0.50619 0.45483 0.0
H1361 H 0.62215 0.34696 0.44659 0.0
H1362 H 0.61223 0.51357 0.51328 0.0
H1363 H 0.64384 0.5108 0.51156 0.0
H1364 H 0.62749 0.54679 0.49055 0.0
H1365 H 0.61462 0.29314 0.47837 0.0
H1366 H 0.63439 0.31128 0.50137 0.0
H1367 H 0.60327 0.3212 0.50453 0.0
H1368 H 0.66466 0.41617 0.56573 0.0
H1369 H 0.58914 0.42716 0.57026 0.0
H1370 H 0.6724 0.43928 0.51032 0.0
H1371 H 0.66722 0.37321 0.50674 0.0
H1372 H 0.68424 0.39548 0.53106 0.0
H1373 H 0.57682 0.45708 0.51664 0.0
H1374 H 0.56438 0.4144 0.53754 0.0
H1375 H 0.57678 0.39087 0.5109 0.0
C1376 C 0.34389 0.64135 0.55871 0.0
C1377 C 0.36303 0.62028 0.57062 0.0
C1378 C 0.34465 0.64763 0.53461 0.0
C1379 C 0.36492 0.63162 0.52215 0.0
C1380 C 0.38506 0.61435 0.53449 0.0
C1381 C 0.3838 0.6086 0.55861 0.0
C1382 C 0.32277 0.66632 0.52235 0.0
C1383 C 0.40706 0.59682 0.52207 0.0
C1384 C 0.35193 0.56576 0.46551 0.0
C1385 C 0.35832 0.60173 0.44893 0.0
C1386 C 0.35415 0.57525 0.48914 0.0
C1387 C 0.36307 0.6222 0.49674 0.0
C1388 C 0.36976 0.65895 0.48015 0.0
C1389 C 0.36729 0.64832 0.45632 0.0
C1390 C 0.3468 0.53466 0.50599 0.0
C1391 C 0.37924 0.70946 0.48761 0.0
H1392 H 0.32764 0.64928 0.568 0.0
H1393 H 0.39839 0.59118 0.56782 0.0
H1394 H 0.32754 0.69244 0.50815 0.0
H1395 H 0.31325 0.63388 0.51461 0.0
H1396 H 0.31048 0.68588 0.53435 0.0
H1397 H 0.42241 0.59351 0.53398 0.0
H1398 H 0.40372 0.55929 0.51429 0.0
H1399 H 0.41174 0.62304 0.50788 0.0
H1400 H 0.34503 0.5296 0.46002 0.0
H1401 H 0.37226 0.67631 0.44359 0.0
H1402 H 0.33245 0.54883 0.51734 0.0
H1403 H 0.36198 0.5243 0.51718 0.0
H1404 H 0.34038 0.50007 0.49718 0.0
H1405 H 0.36518 0.73058 0.49684 0.0
H1406 H 0.38541 0.73241 0.47275 0.0
H1407 H 0.39416 0.70443 0.49988 0.0
C1408 C 0.93973 0.01886 0.15054 0.0
C1409 C 0.93183 0.98073 0.13573 0.0
C1410 C 0.96369 0.03302 0.15096 0.0
C1411 C 0.97993 1.00921 0.13584 0.0
C1412 C 0.97191 0.97139 0.12053 0.0
C1413 C 0.948 0.95721 0.12084 0.0
C1414 C 0.9717 0.07303 0.16773 0.0
C1415 C 0.98859 0.94611 0.10375 0.0
C1416 C 0.03633 0.07906 0.12053 0.0
C1417 C 0.05323 0.05375 0.13398 0.0
C1418 C 0.01244 0.06476 0.12093 0.0
C1419 C 0.00522 0.0248 0.13545 0.0
C1420 C 0.0222 0.99911 0.14909 0.0
C1421 C 0.0461 1.01361 0.14802 0.0
C1422 C -0.00508 0.09229 0.10578 0.0
C1423 C 0.01506 0.95676 0.165 0.0
H1424 H 0.92731 0.03662 0.16227 0.0
H1425 H 0.94191 0.92784 0.10926 0.0
H1426 H 0.98597 0.05792 0.17894 0.0
H1427 H 0.97917 0.10555 0.15817 0.0
H1428 H 0.95701 0.0867 0.17885 0.0
H1429 H 0.9795 0.91772 0.0928 0.0
H1430 H -0.00317 0.97476 0.09235 0.0
H1431 H 0.00312 0.92722 0.11329 0.0
H1432 H 0.04179 0.11006 0.10957 0.0
H1433 H 0.05908 0.99445 0.15867 0.0
H1434 H 0.98094 0.10981 0.11656 0.0
H1435 H 0.98603 0.06527 0.094 0.0
H1436 H 0.00344 0.12216 0.09523 0.0
H1437 H 0.00146 0.97023 0.17737 0.0
H1438 H 0.03032 0.94151 0.1749 0.0
H1439 H 0.00701 0.92571 0.15488 0.0
C1440 C 0.93847 1.00943 0.39636 0.0
C1441 C 0.93192 0.05444 0.38557 0.0
C1442 C 0.96234 0.99426 0.39693 0.0
C1443 C 0.97978 0.02397 0.38573 0.0
C1444 C 0.97303 0.06883 0.37431 0.0
C1445 C 0.94925 0.08398 0.37475 0.0
C1446 C 0.96896 0.9468 0.40971 0.0
C1447 C 0.99086 0.10039 0.36132 0.0
C1448 C 0.04536 1.01317 0.40044 0.0
C1449 C 0.05318 0.97972 0.38344 0.0
C1450 C 0.02133 0.02678 0.40183 0.0
C1451 C 0.00505 1.00776 0.38534 0.0
C1452 C 0.01312 0.97479 0.36782 0.0
C1453 C 0.03702 0.96036 0.36738 0.0
C1454 C 0.01329 0.06112 0.42104 0.0
C1455 C -0.00341 0.95544 0.34933 0.0
H1456 H 0.92503 0.98687 0.40482 0.0
H1457 H 0.94408 0.11859 0.36616 0.0
H1458 H 0.97665 0.91902 0.39754 0.0
H1459 H 0.9827 0.95532 0.42284 0.0
H1460 H 0.95351 0.92929 0.41845 0.0
H1461 H 0.9826 0.13345 0.35276 0.0
H1462 H 0.00479 0.11404 0.37328 0.0
H1463 H -0.00024 0.07712 0.34798 0.0
H1464 H 0.0579 0.02747 0.41301 0.0
H1465 H 0.04321 0.93447 0.35421 0.0
H1466 H -0.00138 0.04319 0.43077 0.0
H1467 H 0.00637 0.09681 0.41372 0.0
H1468 H 0.02785 0.07021 0.43326 0.0
H1469 H 0.98201 0.93352 0.35728 0.0
H1470 H 0.0058 0.93112 0.33657 0.0
H1471 H 0.9884 0.98759 0.34004 0.0
C1472 C 0.04254 0.03138 0.86414 0.0
C1473 C 0.05433 0.0463 0.88422 0.0
C1474 C 0.0186 1.01733 0.86489 0.0
C1475 C 0.00651 1.01713 0.88632 0.0
C1476 C 0.01864 0.03123 0.90673 0.0
C1477 C 0.04237 0.04657 0.90536 0.0
C1478 C 0.00613 1.00345 0.84273 0.0
C1479 C 0.00652 0.03014 0.92995 0.0
C1480 C 0.93923 0.0213 0.88511 0.0
C1481 C 0.93347 0.9702 0.88741 0.0
C1482 C 0.96293 0.03728 0.88511 0.0
C1483 C 0.98129 1.00127 0.8874 0.0
C1484 C 0.9756 0.94978 0.89015 0.0
C1485 C 0.95179 0.93485 0.89017 0.0
C1486 C 0.96834 0.09256 0.88217 0.0
C1487 C -0.00526 0.91036 0.89265 0.0
H1488 H 0.05186 0.03225 0.84778 0.0
H1489 H 0.05164 0.05867 0.9208 0.0
H1490 H -0.00064 0.9643 0.84381 0.0
H1491 H 0.99063 0.02847 0.84007 0.0
H1492 H 0.01794 1.00647 0.82745 0.0
H1493 H 0.01857 0.04139 0.94421 0.0
H1494 H 0.99104 0.05585 0.92984 0.0
H1495 H -0.00024 0.99167 0.93352 0.0
H1496 H 0.92523 0.04887 0.88304 0.0
H1497 H 0.9476 0.89519 0.89193 0.0
H1498 H 0.97873 0.09837 0.86613 0.0
H1499 H 0.97933 0.10611 0.89678 0.0
H1500 H 0.95203 0.11589 0.88123 0.0
H1501 H 0.00585 0.90956 0.87685 0.0
H1502 H 0.9874 0.87207 0.89554 0.0
H1503 H 0.00656 0.92 0.9073 0.0
C1504 C 0.95121 0.08753 0.62221 0.0
C1505 C 0.93382 0.05962 0.63389 0.0
C1506 C 0.97485 0.07158 0.62182 0.0
C1507 C 0.98131 0.02697 0.63357 0.0
C1508 C 0.96384 0.9984 0.64523 0.0
C1509 C 0.94023 1.01492 0.64512 0.0
C1510 C -0.00701 0.10252 0.60891 0.0
C1511 C 0.97015 0.95085 0.65811 0.0
C1512 C 0.0383 0.96184 0.61614 0.0
C1513 C 0.05413 0.97995 0.63282 0.0
C1514 C 0.01454 0.97718 0.61609 0.0
C1515 C 0.00639 1.01025 0.63351 0.0
C1516 C 0.0223 0.02832 0.65049 0.0
C1517 C 0.04612 1.01342 0.64977 0.0
C1518 C -0.00182 0.95818 0.59739 0.0
C1519 C 0.01411 0.06289 0.66957 0.0
H1520 H 0.94636 0.12201 0.61336 0.0
H1521 H 0.92692 0.99343 0.65433 0.0
H1522 H 0.00686 0.11591 0.62101 0.0
H1523 H 0.00192 0.0789 0.59572 0.0
H1524 H 0.98501 0.13572 0.60021 0.0
H1525 H 0.95449 0.93314 0.66641 0.0
H1526 H 0.97827 0.92321 0.64614 0.0
H1527 H 0.98347 0.95939 0.67165 0.0
H1528 H 0.04455 0.9359 0.60303 0.0
H1529 H 0.05831 0.02666 0.6629 0.0
H1530 H 0.9905 0.99048 0.58779 0.0
H1531 H 0.98321 0.93718 0.6052 0.0
H1532 H 0.00737 0.93312 0.58492 0.0
H1533 H 0.00733 0.09857 0.66211 0.0
H1534 H 0.02852 0.07194 0.68196 0.0
H1535 H -0.00071 0.04517 0.67918 0.0
C1536 C 0.44502 0.48024 0.11171 0.0
C1537 C 0.43229 0.47834 0.13239 0.0
C1538 C 0.46895 0.49452 0.11161 0.0
C1539 C 0.48047 0.50512 0.1328 0.0
C1540 C 0.46762 0.50231 0.15376 0.0
C1541 C 0.44352 0.48958 0.15326 0.0
C1542 C 0.48187 0.4988 0.08888 0.0
C1543 C 0.47936 0.51254 0.17671 0.0
C1544 C 0.54788 0.50371 0.13525 0.0
C1545 C 0.55308 0.55527 0.13431 0.0
C1546 C 0.52431 0.48664 0.13457 0.0
C1547 C 0.50557 0.52199 0.13298 0.0
C1548 C 0.5107 0.574 0.13191 0.0
C1549 C 0.53432 0.58999 0.13257 0.0
C1550 C 0.51944 0.43085 0.13577 0.0
C1551 C 0.49118 0.61282 0.13026 0.0
H1552 H 0.43618 0.4709 0.09564 0.0
H1553 H 0.43361 0.48688 0.16926 0.0
H1554 H 0.48848 0.53784 0.08657 0.0
H1555 H 0.49752 0.47355 0.08883 0.0
H1556 H 0.47039 0.48909 0.07395 0.0
H1557 H 0.46718 0.50634 0.19149 0.0
H1558 H 0.49504 0.48775 0.17883 0.0
H1559 H 0.48577 0.55201 0.17728 0.0
H1560 H 0.56219 0.47665 0.13657 0.0
H1561 H 0.53798 0.63003 0.13194 0.0
H1562 H 0.50934 0.41876 0.12031 0.0
H1563 H 0.50835 0.42242 0.1511 0.0
H1564 H 0.53597 0.40825 0.13684 0.0
H1565 H 0.47996 0.60521 0.11492 0.0
H1566 H 0.49814 0.65185 0.129 0.0
H1567 H 0.47955 0.61039 0.14565 0.0
C1568 C 0.43933 0.52006 0.37079 0.0
C1569 C 0.43208 0.56156 0.38396 0.0
C1570 C 0.46317 0.50505 0.37036 0.0
C1571 C 0.48005 0.53159 0.38375 0.0
C1572 C 0.47275 0.57296 0.39739 0.0
C1573 C 0.44889 0.58775 0.39717 0.0
C1574 C 0.47035 0.46112 0.35538 0.0
C1575 C 0.49016 0.60143 0.41228 0.0
C1576 C 0.53656 0.46252 0.39972 0.0
C1577 C 0.55297 0.48392 0.38443 0.0
C1578 C 0.51285 0.47827 0.39988 0.0
C1579 C 0.50527 0.51536 0.38398 0.0
C1580 C 0.5218 0.5371 0.36849 0.0
C1581 C 0.54556 0.52152 0.36909 0.0
C1582 C 0.49588 0.45516 0.41703 0.0
C1583 C 0.51427 0.57611 0.35102 0.0
H1584 H 0.42646 0.50005 0.36036 0.0
H1585 H 0.44338 0.61975 0.40748 0.0
H1586 H 0.48427 0.47309 0.34303 0.0
H1587 H 0.478 0.43077 0.36622 0.0
H1588 H 0.4552 0.4454 0.34548 0.0
H1589 H 0.48161 0.63242 0.42211 0.0
H1590 H 0.4987 0.57529 0.4247 0.0
H1591 H 0.50441 0.61762 0.4014 0.0
H1592 H 0.54229 0.43351 0.41166 0.0
H1593 H 0.55818 0.53755 0.35705 0.0
H1594 H 0.48138 0.43556 0.40775 0.0
H1595 H 0.48763 0.48513 0.42768 0.0
H1596 H 0.50472 0.42776 0.42869 0.0
H1597 H 0.50011 0.5605 0.33982 0.0
H1598 H 0.5292 0.58864 0.33993 0.0
H1599 H 0.50679 0.60944 0.35997 0.0
C1600 C 0.44753 0.45954 0.86839 0.0
C1601 C 0.43105 0.47955 0.88393 0.0
C1602 C 0.47123 0.47506 0.86881 0.0
C1603 C 0.47872 0.50999 0.88575 0.0
C1604 C 0.46209 0.5299 0.90166 0.0
C1605 C 0.43825 0.51494 0.90033 0.0
C1606 C 0.4882 0.4546 0.85096 0.0
C1607 C 0.46953 0.5665 0.92021 0.0
C1608 C 0.54503 0.51454 0.89746 0.0
C1609 C 0.5514 0.55845 0.8857 0.0
C1610 C 0.52125 0.49892 0.89817 0.0
C1611 C 0.50379 0.52703 0.88615 0.0
C1612 C 0.51039 0.57078 0.8738 0.0
C1613 C 0.53406 0.58646 0.87408 0.0
C1614 C 0.51475 0.45271 0.91192 0.0
C1615 C 0.4925 0.60052 0.85998 0.0
H1616 H 0.44175 0.4321 0.85571 0.0
H1617 H 0.4254 0.52974 0.91248 0.0
H1618 H 0.49632 0.48613 0.84118 0.0
H1619 H 0.5028 0.43388 0.85955 0.0
H1620 H 0.47937 0.42886 0.83853 0.0
H1621 H 0.45467 0.57667 0.93187 0.0
H1622 H 0.48404 0.54992 0.93067 0.0
H1623 H 0.47651 0.60145 0.91223 0.0
H1624 H 0.55851 0.49329 0.90656 0.0
H1625 H 0.53914 0.62028 0.86482 0.0
H1626 H 0.50732 0.4235 0.90031 0.0
H1627 H 0.50084 0.46228 0.92472 0.0
H1628 H 0.53021 0.4365 0.92118 0.0
H1629 H 0.48394 0.57572 0.84701 0.0
H1630 H 0.50064 0.63299 0.85086 0.0
H1631 H 0.47833 0.61484 0.87148 0.0
C1632 C 0.43948 0.51655 0.61935 0.0
C1633 C 0.43351 0.55791 0.63309 0.0
C1634 C 0.46311 0.50055 0.61764 0.0
C1635 C 0.48085 0.52562 0.63059 0.0
C1636 C 0.47473 0.56696 0.64479 0.0
C1637 C 0.45116 0.58315 0.64555 0.0
C1638 C 0.46913 0.45703 0.60196 0.0
C1639 C 0.49299 0.59334 0.65954 0.0
C1640 C 0.53629 0.45352 0.64641 0.0
C1641 C 0.55317 0.4763 0.63213 0.0
C1642 C 0.51264 0.46923 0.64603 0.0
C1643 C 0.50565 0.50728 0.63035 0.0
C1644 C 0.52261 0.52956 0.61547 0.0
C1645 C 0.54639 0.51434 0.61683 0.0
C1646 C 0.49527 0.4461 0.6628 0.0
C1647 C 0.51563 0.56938 0.59819 0.0
H1648 H 0.42577 0.49757 0.60954 0.0
H1649 H 0.44641 0.61505 0.6563 0.0
H1650 H 0.48326 0.46833 0.5897 0.0
H1651 H 0.47609 0.42512 0.6123 0.0
H1652 H 0.45354 0.44371 0.59198 0.0
H1653 H 0.48526 0.62457 0.66983 0.0
H1654 H 0.5013 0.56596 0.67155 0.0
H1655 H 0.50731 0.60882 0.64852 0.0
H1656 H 0.54176 0.42414 0.65829 0.0
H1657 H 0.55956 0.53129 0.60565 0.0
H1658 H 0.48035 0.42859 0.6533 0.0
H1659 H 0.48767 0.47588 0.67402 0.0
H1660 H 0.50361 0.41703 0.67394 0.0
H1661 H 0.5008 0.55554 0.58733 0.0
H1662 H 0.53059 0.58025 0.58678 0.0
H1663 H 0.50928 0.60349 0.60734 0.0
C1664 C 0.11712 0.71768 0.12412 0.0
C1665 C 0.13371 0.7411 0.13864 0.0
C1666 C 0.11486 0.6649 0.12351 0.0
C1667 C 0.12959 0.63465 0.13767 0.0
C1668 C 0.14655 0.65805 0.15215 0.0
C1669 C 0.14839 0.71082 0.15245 0.0
C1670 C 0.09654 0.64152 0.10785 0.0
C1671 C 0.16271 0.62735 0.16743 0.0
C1672 C 0.1092 0.50218 0.15334 0.0
C1673 C 0.12262 0.47215 0.13826 0.0
C1674 C 0.11124 0.55495 0.15326 0.0
C1675 C 0.12704 0.5786 0.13768 0.0
C1676 C 0.14059 0.54861 0.12235 0.0
C1677 C 0.13822 0.49586 0.12282 0.0
C1678 C 0.09643 0.5854 0.16988 0.0
C1679 C 0.15766 0.57226 0.10549 0.0
H1680 H 0.10558 0.74069 0.11353 0.0
H1681 H 0.16156 0.72842 0.16341 0.0
H1682 H 0.10516 0.61478 0.09577 0.0
H1683 H 0.08362 0.61969 0.11825 0.0
H1684 H 0.08674 0.67017 0.09764 0.0
H1685 H 0.17517 0.65127 0.17745 0.0
H1686 H 0.15203 0.60472 0.17971 0.0
H1687 H 0.17316 0.6006 0.15682 0.0
H1688 H 0.09676 0.48447 0.16504 0.0
H1689 H 0.14885 0.47311 0.11126 0.0
H1690 H 0.08502 0.61206 0.16019 0.0
H1691 H 0.10809 0.60814 0.18123 0.0
H1692 H 0.08497 0.56131 0.18088 0.0
H1693 H 0.14808 0.59882 0.09401 0.0
H1694 H 0.1668 0.54377 0.09463 0.0
H1695 H 0.17122 0.59435 0.11496 0.0
C1696 C 0.83053 0.32561 0.13384 0.0
C1697 C 0.84981 0.2946 0.13938 0.0
C1698 C 0.83299 0.37814 0.13315 0.0
C1699 C 0.85523 0.40009 0.13824 0.0
C1700 C 0.8748 0.36901 0.14369 0.0
C1701 C 0.87187 0.31664 0.14409 0.0
C1702 C 0.81173 0.41011 0.12718 0.0
C1703 C 0.89882 0.39103 0.1492 0.0
C1704 C 0.86822 0.53178 0.11658 0.0
C1705 C 0.8644 0.56083 0.13647 0.0
C1706 C 0.86515 0.47946 0.1169 0.0
C1707 C 0.85815 0.45558 0.13762 0.0
C1708 C 0.85434 0.48457 0.15779 0.0
C1709 C 0.85752 0.53695 0.15698 0.0
C1710 C 0.86953 0.4497 0.0951 0.0
C1711 C 0.84694 0.46024 0.18021 0.0
H1712 H 0.81336 0.30889 0.13053 0.0
H1713 H 0.88693 0.29286 0.14807 0.0
H1714 H 0.80756 0.43577 0.14174 0.0
H1715 H 0.81571 0.43395 0.11193 0.0
H1716 H 0.7958 0.38704 0.12334 0.0
H1717 H 0.9122 0.36154 0.15309 0.0
H1718 H 0.90525 0.41383 0.13442 0.0
H1719 H 0.89746 0.41659 0.16429 0.0
H1720 H 0.87396 0.54993 0.10078 0.0
H1721 H 0.85436 0.5593 0.17234 0.0
H1722 H 0.85342 0.42809 0.0904 0.0
H1723 H 0.88396 0.42204 0.09801 0.0
H1724 H 0.87449 0.47416 0.08031 0.0
H1725 H 0.8301 0.43938 0.17775 0.0
H1726 H 0.84448 0.48819 0.19428 0.0
H1727 H 0.8605 0.43247 0.1857 0.0
C1728 C 0.11797 0.31486 0.39324 0.0
C1729 C 0.1368 0.29363 0.38094 0.0
C1730 C 0.1149 0.36732 0.39399 0.0
C1731 C 0.13139 0.39895 0.38258 0.0
C1732 C 0.15079 0.37745 0.37063 0.0
C1733 C 0.15308 0.32493 0.36973 0.0
C1734 C 0.09382 0.38884 0.40663 0.0
C1735 C 0.16899 0.40983 0.35863 0.0
C1736 C 0.11213 0.53099 0.3657 0.0
C1737 C 0.12196 0.56001 0.38352 0.0
C1738 C 0.11509 0.47852 0.36517 0.0
C1739 C 0.12821 0.45453 0.38287 0.0
C1740 C 0.13836 0.48362 0.40078 0.0
C1741 C 0.13511 0.536 0.40089 0.0
C1742 C 0.10395 0.44872 0.34581 0.0
C1743 C 0.15259 0.4594 0.41986 0.0
H1744 H 0.10532 0.29032 0.40171 0.0
H1745 H 0.16766 0.30815 0.36027 0.0
H1746 H 0.09985 0.41514 0.4203 0.0
H1747 H 0.08265 0.41076 0.39447 0.0
H1748 H 0.08273 0.35909 0.41469 0.0
H1749 H 0.18346 0.38713 0.35084 0.0
H1750 H 0.16039 0.43222 0.3448 0.0
H1751 H 0.17688 0.43684 0.37106 0.0
H1752 H 0.10166 0.54918 0.35242 0.0
H1753 H 0.14301 0.55826 0.41456 0.0
H1754 H 0.09111 0.42124 0.353 0.0
H1755 H 0.11773 0.42691 0.33651 0.0
H1756 H 0.09458 0.47318 0.33321 0.0
H1757 H 0.1414 0.43212 0.42941 0.0
H1758 H 0.15966 0.48748 0.4323 0.0
H1759 H 0.16765 0.43803 0.41242 0.0
C1760 C 0.88227 0.50714 0.37028 0.0
C1761 C 0.86396 0.47543 0.37791 0.0
C1762 C 0.8796 0.55974 0.37004 0.0
C1763 C 0.85811 0.58153 0.37772 0.0
C1764 C 0.83963 0.54988 0.38569 0.0
C1765 C 0.84278 0.49729 0.3857 0.0
C1766 C 0.8998 0.59195 0.36145 0.0
C1767 C 0.81643 0.57152 0.39401 0.0
C1768 C 0.85869 0.72042 0.39462 0.0
C1769 C 0.84961 0.74351 0.37469 0.0
C1770 C 0.86137 0.66779 0.39594 0.0
C1771 C 0.85481 0.63736 0.37688 0.0
C1772 C 0.84544 0.66038 0.35681 0.0
C1773 C 0.84292 0.71299 0.35598 0.0
C1774 C 0.87143 0.64474 0.41764 0.0
C1775 C 0.83817 0.62942 0.33613 0.0
H1776 H 0.89889 0.49082 0.36467 0.0
H1777 H 0.82844 0.47323 0.39143 0.0
H1778 H 0.89395 0.61443 0.34634 0.0
H1779 H 0.90531 0.61887 0.37507 0.0
H1780 H 0.91544 0.56915 0.35632 0.0
H1781 H 0.80401 0.54191 0.4001 0.0
H1782 H 0.81963 0.59837 0.40836 0.0
H1783 H 0.8078 0.59289 0.37986 0.0
H1784 H 0.86414 0.74357 0.40908 0.0
H1785 H 0.83548 0.73024 0.34065 0.0
H1786 H 0.88804 0.62427 0.41357 0.0
H1787 H 0.8588 0.61685 0.42483 0.0
H1788 H 0.87528 0.67344 0.43109 0.0
H1789 H 0.85363 0.60803 0.32951 0.0
H1790 H 0.83099 0.653 0.32192 0.0
H1791 H 0.82452 0.60153 0.34123 0.0
C1792 C 0.83266 0.31873 0.86938 0.0
C1793 C 0.84791 0.28674 0.88167 0.0
C1794 C 0.83498 0.37126 0.87062 0.0
C1795 C 0.85308 0.39253 0.88444 0.0
C1796 C 0.86822 0.36053 0.89732 0.0
C1797 C 0.8654 0.30798 0.89584 0.0
C1798 C 0.81835 0.40392 0.85673 0.0
C1799 C 0.88779 0.38175 0.91216 0.0
C1800 C 0.87429 0.52291 0.86712 0.0
C1801 C 0.86222 0.55394 0.88281 0.0
C1802 C 0.8718 0.47037 0.86777 0.0
C1803 C 0.8568 0.44812 0.88448 0.0
C1804 C 0.84485 0.47914 0.90062 0.0
C1805 C 0.84778 0.53171 0.89965 0.0
C1806 C 0.88502 0.43875 0.85035 0.0
C1807 C 0.82863 0.45684 0.91862 0.0
H1808 H 0.81886 0.30257 0.85867 0.0
H1809 H 0.87736 0.28348 0.90524 0.0
H1810 H 0.80955 0.43179 0.86812 0.0
H1811 H 0.82851 0.42533 0.8436 0.0
H1812 H 0.8045 0.38155 0.84776 0.0
H1813 H 0.89736 0.35196 0.92189 0.0
H1814 H 0.90071 0.40218 0.90119 0.0
H1815 H 0.88045 0.40933 0.92464 0.0
H1816 H 0.88581 0.53979 0.85431 0.0
H1817 H 0.8383 0.55552 0.91173 0.0
H1818 H 0.87225 0.41779 0.83942 0.0
H1819 H 0.89618 0.41049 0.85934 0.0
H1820 H 0.89654 0.46181 0.83895 0.0
H1821 H 0.81382 0.4367 0.91006 0.0
H1822 H 0.82112 0.48595 0.93029 0.0
H1823 H 0.83838 0.42879 0.92916 0.0
C1824 C 0.12619 0.49632 0.86207 0.0
C1825 C 0.11687 0.47311 0.88183 0.0
C1826 C 0.1294 0.54874 0.86115 0.0
C1827 C 0.12314 0.57867 0.88044 0.0
C1828 C 0.11365 0.55552 0.9004 0.0
C1829 C 0.1106 0.50309 0.90084 0.0
C1830 C 0.13956 0.57212 0.83956 0.0
C1831 C 0.10663 0.58615 0.92127 0.0
C1832 C 0.15096 0.70846 0.88593 0.0
C1833 C 0.13282 0.73972 0.87765 0.0
C1834 C 0.14801 0.65604 0.88708 0.0
C1835 C 0.1264 0.63427 0.87971 0.0
C1836 C 0.10792 0.66562 0.87154 0.0
C1837 C 0.11136 0.71793 0.87063 0.0
C1838 C 0.16814 0.62395 0.89593 0.0
C1839 C 0.08457 0.64391 0.86363 0.0
H1840 H 0.1313 0.4734 0.84741 0.0
H1841 H 0.103 0.48559 0.91603 0.0
H1842 H 0.12688 0.59988 0.83234 0.0
H1843 H 0.15607 0.5928 0.84379 0.0
H1844 H 0.14359 0.54361 0.82608 0.0
H1845 H 0.09975 0.5623 0.93553 0.0
H1846 H 0.1221 0.60773 0.92771 0.0
H1847 H 0.09279 0.61387 0.91643 0.0
H1848 H 0.16772 0.7249 0.89107 0.0
H1849 H 0.09714 0.74187 0.86449 0.0
H1850 H 0.17399 0.59747 0.88225 0.0
H1851 H 0.1621 0.60097 0.9108 0.0
H1852 H 0.18359 0.64687 0.90145 0.0
H1853 H 0.08752 0.61775 0.84897 0.0
H1854 H 0.07188 0.67354 0.85809 0.0
H1855 H 0.07637 0.62179 0.87778 0.0
C1856 C 0.83461 0.72063 0.62727 0.0
C1857 C 0.85233 0.74982 0.63776 0.0
C1858 C 0.83653 0.66791 0.62602 0.0
C1859 C 0.85661 0.64364 0.63559 0.0
C1860 C 0.87475 0.67291 0.64581 0.0
C1861 C 0.87243 0.72553 0.64671 0.0
C1862 C 0.81684 0.63815 0.61487 0.0
C1863 C 0.89648 0.64862 0.65619 0.0
C1864 C 0.85166 0.50701 0.65474 0.0
C1865 C 0.86344 0.48149 0.63689 0.0
C1866 C 0.84906 0.55961 0.65437 0.0
C1867 C 0.85834 0.58758 0.63562 0.0
C1868 C 0.86984 0.56206 0.61732 0.0
C1869 C 0.87231 0.50942 0.6182 0.0
C1870 C 0.8367 0.58536 0.67424 0.0
C1871 C 0.87992 0.59047 0.597 0.0
H1872 H 0.81887 0.73887 0.62057 0.0
H1873 H 0.88642 0.74773 0.65449 0.0
H1874 H 0.8241 0.61331 0.60119 0.0
H1875 H 0.80828 0.61354 0.62791 0.0
H1876 H 0.80308 0.66284 0.60711 0.0
H1877 H 0.90928 0.67681 0.66291 0.0
H1878 H 0.89121 0.6234 0.67057 0.0
H1879 H 0.90556 0.62505 0.64309 0.0
H1880 H 0.84442 0.4858 0.66909 0.0
H1881 H 0.88176 0.49028 0.60448 0.0
H1882 H 0.82156 0.60791 0.66776 0.0
H1883 H 0.8491 0.61177 0.68287 0.0
H1884 H 0.83004 0.55813 0.68727 0.0
H1885 H 0.86599 0.61415 0.58896 0.0
H1886 H 0.88732 0.56488 0.58365 0.0
H1887 H 0.89417 0.61612 0.60296 0.0
C1888 C 0.14867 0.32048 0.65671 0.0
C1889 C 0.13723 0.28886 0.64079 0.0
C1890 C 0.14606 0.37307 0.65577 0.0
C1891 C 0.13167 0.39495 0.63844 0.0
C1892 C 0.12039 0.3634 0.62204 0.0
C1893 C 0.12332 0.31081 0.62339 0.0
C1894 C 0.15851 0.40518 0.67352 0.0
C1895 C 0.10493 0.38518 0.60327 0.0
C1896 C 0.10616 0.52511 0.65061 0.0
C1897 C 0.12169 0.55676 0.63844 0.0
C1898 C 0.10906 0.47254 0.65055 0.0
C1899 C 0.12794 0.45071 0.63794 0.0
C1900 C 0.14353 0.4823 0.62537 0.0
C1901 C 0.14022 0.53485 0.62577 0.0
C1902 C 0.09196 0.4404 0.66413 0.0
C1903 C 0.16387 0.46061 0.6117 0.0
H1904 H 0.15982 0.30407 0.66996 0.0
H1905 H 0.11425 0.28679 0.61111 0.0
H1906 H 0.17006 0.43315 0.66483 0.0
H1907 H 0.14527 0.4265 0.68376 0.0
H1908 H 0.16951 0.38244 0.68554 0.0
H1909 H 0.098 0.35577 0.59142 0.0
H1910 H 0.08972 0.40537 0.61109 0.0
H1911 H 0.11509 0.41308 0.59301 0.0
H1912 H 0.09149 0.54142 0.66007 0.0
H1913 H 0.15244 0.55886 0.61646 0.0
H1914 H 0.1017 0.41875 0.67749 0.0
H1915 H 0.08327 0.41273 0.65255 0.0
H1916 H 0.07803 0.46316 0.67276 0.0
H1917 H 0.17609 0.4401 0.62339 0.0
H1918 H 0.17407 0.49012 0.60242 0.0
H1919 H 0.15714 0.433 0.59891 0.0
C1920 C 0.6226 1.00555 0.11785 0.0
C1921 C 0.61851 0.97904 0.13843 0.0
C1922 C 0.62572 0.05797 0.11793 0.0
C1923 C 0.62483 0.08453 0.13908 0.0
C1924 C 0.62075 0.05801 0.15991 0.0
C1925 C 0.61756 1.00558 0.15933 0.0
C1926 C 0.62979 0.08499 0.09534 0.0
C1927 C 0.61982 0.08502 0.18282 0.0
C1928 C 0.654 0.21326 0.14212 0.0
C1929 C 0.63446 0.24568 0.14027 0.0
C1930 C 0.65114 0.16079 0.14167 0.0
C1931 C 0.62815 0.14011 0.13941 0.0
C1932 C 0.60834 0.17254 0.13746 0.0
C1933 C 0.61174 0.2249 0.13789 0.0
C1934 C 0.67273 0.12754 0.14384 0.0
C1935 C 0.58355 0.15195 0.13488 0.0
H1936 H 0.62297 0.98536 0.10159 0.0
H1937 H 0.61461 0.98523 0.1753 0.0
H1938 H 0.61562 0.11328 0.09252 0.0
H1939 H 0.64686 0.10562 0.0959 0.0
H1940 H 0.63008 0.05879 0.08039 0.0
H1941 H 0.61678 0.05882 0.19748 0.0
H1942 H 0.63667 0.10549 0.18581 0.0
H1943 H 0.60542 0.11343 0.18264 0.0
H1944 H 0.67157 0.2289 0.14439 0.0
H1945 H 0.59657 0.24962 0.13615 0.0
H1946 H 0.67411 0.10238 0.12861 0.0
H1947 H 0.67108 0.10318 0.15932 0.0
H1948 H 0.68937 0.14965 0.14528 0.0
H1949 H 0.58247 0.12763 0.11934 0.0
H1950 H 0.57008 0.18228 0.13335 0.0
H1951 H 0.57904 0.12816 0.15 0.0
C1952 C 0.3358 0.81843 0.15628 0.0
C1953 C 0.34994 0.78653 0.14271 0.0
C1954 C 0.33858 0.87097 0.15559 0.0
C1955 C 0.35594 0.89247 0.14098 0.0
C1956 C 0.37013 0.8606 0.12705 0.0
C1957 C 0.36693 0.80807 0.12804 0.0
C1958 C 0.32297 0.90347 0.17064 0.0
C1959 C 0.38888 0.88198 0.11128 0.0
C1960 C 0.34948 0.03099 0.12485 0.0
C1961 C 0.36538 0.05425 0.14013 0.0
C1962 C 0.34632 0.97845 0.12485 0.0
C1963 C 0.35938 0.94825 0.14049 0.0
C1964 C 0.3755 0.97146 0.15592 0.0
C1965 C 0.3783 0.02404 0.15554 0.0
C1966 C 0.32892 0.95526 0.10817 0.0
C1967 C 0.38983 0.94074 0.17283 0.0
H1968 H 0.32237 0.80225 0.1674 0.0
H1969 H 0.37808 0.78376 0.11766 0.0
H1970 H 0.33404 0.92566 0.18276 0.0
H1971 H 0.313 0.93067 0.15982 0.0
H1972 H 0.3101 0.88091 0.18082 0.0
H1973 H 0.39823 0.85222 0.10134 0.0
H1974 H 0.38075 0.90886 0.09894 0.0
H1975 H 0.40212 0.90324 0.12154 0.0
H1976 H 0.33924 0.05397 0.11303 0.0
H1977 H 0.39094 0.04147 0.16714 0.0
H1978 H 0.31501 0.93457 0.11782 0.0
H1979 H 0.33809 0.92754 0.09697 0.0
H1980 H 0.32024 0.98389 0.09702 0.0
H1981 H 0.37782 0.91933 0.18438 0.0
H1982 H 0.40165 0.96451 0.18362 0.0
H1983 H 0.40083 0.91288 0.16341 0.0
C1984 C 0.62198 0.03626 0.39938 0.0
C1985 C 0.61972 0.0619 0.37826 0.0
C1986 C 0.6244 0.9835 0.40021 0.0
C1987 C 0.62455 0.95534 0.37943 0.0
C1988 C 0.62234 0.98091 0.35808 0.0
C1989 C 0.61997 0.03368 0.35774 0.0
C1990 C 0.62661 0.95781 0.42335 0.0
C1991 C 0.6225 0.95247 0.33552 0.0
C1992 C 0.65217 0.82414 0.37939 0.0
C1993 C 0.63219 0.79266 0.3803 0.0
C1994 C 0.64995 0.87691 0.37927 0.0
C1995 C 0.62716 0.89919 0.38 0.0
C1996 C 0.6069 0.86774 0.38098 0.0
C1997 C 0.60965 0.81501 0.3811 0.0
C1998 C 0.67207 0.90877 0.37811 0.0
C1999 C 0.58227 0.88976 0.38191 0.0
H2000 H 0.62141 0.05736 0.41539 0.0
H2001 H 0.61857 0.05292 0.3413 0.0
H2002 H 0.61185 0.93071 0.42567 0.0
H2003 H 0.64335 0.93597 0.4241 0.0
H2004 H 0.62638 0.98501 0.43792 0.0
H2005 H 0.62067 0.97782 0.32036 0.0
H2006 H 0.63926 0.93098 0.33381 0.0
H2007 H 0.60779 0.92479 0.33522 0.0
H2008 H 0.66966 0.80751 0.37833 0.0
H2009 H 0.59409 0.79124 0.38208 0.0
H2010 H 0.67278 0.9347 0.39311 0.0
H2011 H 0.67175 0.93234 0.36229 0.0
H2012 H 0.68847 0.88565 0.37797 0.0
H2013 H 0.58056 0.91489 0.39713 0.0
H2014 H 0.56836 0.86025 0.38295 0.0
H2015 H 0.57898 0.91304 0.36633 0.0
C2016 C 0.33875 1.00205 0.37752 0.0
C2017 C 0.35946 0.97827 0.38532 0.0
C2018 C 0.3366 0.05475 0.37763 0.0
C2019 C 0.35559 0.0846 0.38586 0.0
C2020 C 0.37634 0.06088 0.39427 0.0
C2021 C 0.37805 1.00808 0.39384 0.0
C2022 C 0.31417 0.07847 0.3685 0.0
C2023 C 0.397 0.09125 0.40322 0.0
C2024 C 0.3599 0.21901 0.36358 0.0
C2025 C 0.35014 0.24681 0.38189 0.0
C2026 C 0.362 0.16638 0.36479 0.0
C2027 C 0.35409 0.14065 0.38475 0.0
C2028 C 0.34434 0.16838 0.40334 0.0
C2029 C 0.34246 0.22108 0.40169 0.0
C2030 C 0.37239 0.13824 0.34452 0.0
C2031 C 0.33585 0.14235 0.42497 0.0
H2032 H 0.32415 0.9794 0.37122 0.0
H2033 H 0.39428 0.99024 0.39957 0.0
H2034 H 0.30633 0.10368 0.38172 0.0
H2035 H 0.3183 0.10195 0.35317 0.0
H2036 H 0.30073 0.04992 0.36349 0.0
H2037 H 0.41133 0.06702 0.41026 0.0
H2038 H 0.40446 0.11456 0.38908 0.0
H2039 H 0.391 0.11736 0.41697 0.0
H2040 H 0.36551 0.23832 0.34803 0.0
H2041 H 0.33516 0.24221 0.41603 0.0
H2042 H 0.35903 0.11186 0.33738 0.0
H2043 H 0.38776 0.11536 0.35023 0.0
H2044 H 0.37829 0.16393 0.33052 0.0
H2045 H 0.32142 0.1156 0.42065 0.0
H2046 H 0.32919 0.16939 0.43809 0.0
H2047 H 0.35048 0.1201 0.43268 0.0
C2048 C 0.37071 0.81245 0.8721 0.0
C2049 C 0.34901 0.78921 0.87736 0.0
C2050 C 0.37334 0.86512 0.87297 0.0
C2051 C 0.35385 0.89569 0.87938 0.0
C2052 C 0.33202 0.87251 0.88513 0.0
C2053 C 0.32986 0.81974 0.884 0.0
C2054 C 0.39694 0.88806 0.86668 0.0
C2055 C 0.31076 0.9035 0.89205 0.0
C2056 C 0.36649 0.03116 0.8981 0.0
C2057 C 0.36166 0.05827 0.87781 0.0
C2058 C 0.36374 0.97843 0.89898 0.0
C2059 C 0.35605 0.95192 0.87911 0.0
C2060 C 0.35083 0.97912 0.85871 0.0
C2061 C 0.35357 0.03173 0.85834 0.0
C2062 C 0.36943 0.95095 0.9211 0.0
C2063 C 0.34261 0.95253 0.8371 0.0
H2064 H 0.38576 0.78941 0.86731 0.0
H2065 H 0.31291 0.80251 0.88777 0.0
H2066 H 0.39486 0.91282 0.85137 0.0
H2067 H 0.40351 0.91187 0.88105 0.0
H2068 H 0.41054 0.85906 0.86271 0.0
H2069 H 0.29544 0.87968 0.89711 0.0
H2070 H 0.31535 0.92848 0.90674 0.0
H2071 H 0.3053 0.928 0.87748 0.0
H2072 H 0.373 0.05098 0.91317 0.0
H2073 H 0.34932 0.05216 0.84268 0.0
H2074 H 0.38438 0.9246 0.91819 0.0
H2075 H 0.354 0.92808 0.92662 0.0
H2076 H 0.37427 0.97709 0.93531 0.0
H2077 H 0.35631 0.9253 0.83137 0.0
H2078 H 0.33897 0.97914 0.82272 0.0
H2079 H 0.32627 0.93077 0.84073 0.0
C2080 C 0.61327 0.22441 0.87814 0.0
C2081 C 0.63562 0.24762 0.87826 0.0
C2082 C 0.61096 0.17171 0.8787 0.0
C2083 C 0.63151 0.14114 0.87953 0.0
C2084 C 0.65413 0.16423 0.87997 0.0
C2085 C 0.6559 0.21705 0.87928 0.0
C2086 C 0.58649 0.14878 0.87822 0.0
C2087 C 0.6765 0.13315 0.88082 0.0
C2088 C 0.62426 1.00545 0.89996 0.0
C2089 C 0.62318 0.97901 0.87899 0.0
C2090 C 0.62731 0.05805 0.90041 0.0
C2091 C 0.6293 0.08505 0.87941 0.0
C2092 C 0.6286 0.05853 0.85821 0.0
C2093 C 0.62562 1.00599 0.85826 0.0
C2094 C 0.62793 0.08488 0.92337 0.0
C2095 C 0.6307 0.08578 0.83543 0.0
H2096 H 0.59745 0.24751 0.87772 0.0
H2097 H 0.67327 0.23436 0.879 0.0
H2098 H 0.58451 0.12469 0.86268 0.0
H2099 H 0.58389 0.12429 0.89353 0.0
H2100 H 0.57231 0.17778 0.878 0.0
H2101 H 0.69267 0.15689 0.88185 0.0
H2102 H 0.67613 0.10764 0.89599 0.0
H2103 H 0.67771 0.10917 0.86518 0.0
H2104 H 0.62208 0.98522 0.91607 0.0
H2105 H 0.62519 0.98596 0.84196 0.0
H2106 H 0.61279 0.11138 0.92458 0.0
H2107 H 0.64437 0.10752 0.92484 0.0
H2108 H 0.62708 0.05834 0.93817 0.0
H2109 H 0.61586 0.11285 0.83352 0.0
H2110 H 0.63045 0.05957 0.82048 0.0
H2111 H 0.64738 0.1078 0.83493 0.0
C2112 C 0.37002 1.00788 0.65726 0.0
C2113 C 0.36616 0.97943 0.63723 0.0
C2114 C 0.36689 0.06027 0.65719 0.0
C2115 C 0.35991 0.08469 0.63655 0.0
C2116 C 0.35598 0.05616 0.61629 0.0
C2117 C 0.3591 1.00381 0.61688 0.0
C2118 C 0.37107 0.08949 0.67916 0.0
C2119 C 0.34881 0.08103 0.5939 0.0
C2120 C 0.33219 0.21444 0.64076 0.0
C2121 C 0.35155 0.24575 0.63586 0.0
C2122 C 0.33461 0.16191 0.64089 0.0
C2123 C 0.35696 0.1402 0.63609 0.0
C2124 C 0.37654 0.17151 0.63093 0.0
C2125 C 0.37358 0.22393 0.63085 0.0
C2126 C 0.31333 0.12974 0.64654 0.0
C2127 C 0.40063 0.1497 0.62557 0.0
H2128 H 0.37529 0.98906 0.67306 0.0
H2129 H 0.35647 0.98202 0.60126 0.0
H2130 H 0.38551 0.1172 0.67653 0.0
H2131 H 0.35491 0.111 0.68381 0.0
H2132 H 0.37589 0.06466 0.69387 0.0
H2133 H 0.34617 0.05335 0.57975 0.0
H2134 H 0.33214 0.10247 0.59634 0.0
H2135 H 0.36262 0.10835 0.58853 0.0
H2136 H 0.31522 0.23104 0.64504 0.0
H2137 H 0.38855 0.24788 0.62678 0.0
H2138 H 0.31695 0.10695 0.66221 0.0
H2139 H 0.30977 0.10308 0.6322 0.0
H2140 H 0.29715 0.1526 0.64958 0.0
H2141 H 0.40714 0.12757 0.64053 0.0
H2142 H 0.4139 0.17929 0.62148 0.0
H2143 H 0.39938 0.12356 0.61068 0.0
C2144 C 0.61719 0.81443 0.65273 0.0
C2145 C 0.6346 0.78912 0.63988 0.0
C2146 C 0.61503 0.86706 0.65186 0.0
C2147 C 0.63052 0.89524 0.63764 0.0
C2148 C 0.64784 0.86996 0.62429 0.0
C2149 C 0.64971 0.81725 0.62562 0.0
C2150 C 0.59633 0.89253 0.66639 0.0
C2151 C 0.66463 0.89862 0.60885 0.0
C2152 C 0.61114 0.0281 0.62189 0.0
C2153 C 0.62409 0.05736 0.63766 0.0
C2154 C 0.6134 0.97543 0.62138 0.0
C2155 C 0.62884 0.95125 0.63714 0.0
C2156 C 0.64216 0.98052 0.65291 0.0
C2157 C 0.63969 0.03315 0.65292 0.0
C2158 C 0.59893 0.9456 0.60426 0.0
C2159 C 0.65876 0.95619 0.67005 0.0
H2160 H 0.60517 0.79304 0.66352 0.0
H2161 H 0.66342 0.7982 0.61586 0.0
H2162 H 0.60483 0.91885 0.67875 0.0
H2163 H 0.58439 0.91515 0.65526 0.0
H2164 H 0.58546 0.86512 0.67628 0.0
H2165 H 0.67642 0.87321 0.59885 0.0
H2166 H 0.6545 0.92241 0.59657 0.0
H2167 H 0.67578 0.92419 0.61939 0.0
H2168 H 0.59875 0.04625 0.61027 0.0
H2169 H 0.65003 0.05539 0.66495 0.0
H2170 H 0.58641 0.92065 0.61358 0.0
H2171 H 0.61068 0.9211 0.59379 0.0
H2172 H 0.58864 0.97023 0.59243 0.0
H2173 H 0.64865 0.93074 0.68161 0.0
H2174 H 0.66825 0.98435 0.68081 0.0
H2175 H 0.67204 0.93283 0.66086 0.0
loop_
_geom_bond_atom_site_label_1
_geom_bond_atom_site_label_2
_geom_bond_distance
_geom_bond_site_symmetry_2
_ccdc_geom_bond_type
Pr0 C2 2.880 1_545 S
Pr0 O20 2.562 1_545 S
Pr0 O21 2.490 1_545 S
Pr0 O22 2.695 . S
Pr0 O23 2.512 . S
Pr0 O25 2.437 . S
Pr0 O28 2.436 . S
Pr0 O30 2.438 . S
Pr1 C11 2.880 . S
Pr1 O22 2.436 . S
Pr1 O24 2.438 . S
Pr1 O26 2.562 . S
Pr1 O27 2.490 . S
Pr1 O28 2.695 . S
Pr1 O29 2.512 . S
Pr1 O31 2.437 . S
C2 Pr0 2.880 1_565 S
C2 C3 1.491 . S
C2 O20 1.254 . S
C2 O21 1.225 . S
C3 C2 1.491 . S
C3 C4 1.392 . S
C3 C8 1.356 . S
C4 C3 1.392 . S
C4 C5 1.368 . S
C4 H32 0.929 . S
C5 C4 1.368 . S
C5 C6 1.386 . S
C5 H33 0.929 . S
C6 C5 1.386 . S
C6 C7 1.373 . S
C7 C6 1.373 . S
C7 C8 1.409 . S
C7 H34 0.931 . S
C8 C3 1.356 . S
C8 C7 1.409 . S
C8 H35 0.930 . S
C9 O22 1.270 . S
C9 O23 1.248 . S
C10 O24 1.267 . S
C10 O25 1.278 . S
C11 Pr1 2.880 . S
C11 C12 1.491 . S
C11 O26 1.254 . S
C11 O27 1.225 . S
C12 C11 1.491 . S
C12 C13 1.392 . S
C12 C17 1.356 . S
C13 C12 1.392 . S
C13 C14 1.368 . S
C13 H36 0.929 . S
C14 C13 1.368 . S
C14 C15 1.386 . S
C14 H37 0.929 . S
C15 C14 1.386 . S
C15 C16 1.373 . S
C16 C15 1.373 . S
C16 C17 1.409 . S
C16 H38 0.931 . S
C17 C12 1.356 . S
C17 C16 1.409 . S
C17 H39 0.930 . S
C18 O28 1.270 . S
C18 O29 1.248 . S
C19 O30 1.267 . S
C19 O31 1.278 . S
O20 Pr0 2.562 1_565 S
O20 C2 1.254 . S
O21 Pr0 2.490 1_565 S
O21 C2 1.225 . S
O22 Pr0 2.695 . S
O22 Pr1 2.436 . S
O22 C9 1.270 . S
O23 Pr0 2.512 . S
O23 C9 1.248 . S
O24 Pr1 2.438 . S
O24 C10 1.267 . S
O25 Pr0 2.437 . S
O25 C10 1.278 . S
O26 Pr1 2.562 . S
O26 C11 1.254 . S
O27 Pr1 2.490 . S
O27 C11 1.225 . S
O28 Pr0 2.436 . S
O28 Pr1 2.695 . S
O28 C18 1.270 . S
O29 Pr1 2.512 . S
O29 C18 1.248 . S
O30 Pr0 2.438 . S
O30 C19 1.267 . S
O31 Pr1 2.437 . S
O31 C19 1.278 . S
H32 C4 0.929 . S
H33 C5 0.929 . S
H34 C7 0.931 . S
H35 C8 0.930 . S
H36 C13 0.929 . S
H37 C14 0.929 . S
H38 C16 0.931 . S
H39 C17 0.930 . S
Pr40 C42 2.880 1_565 S
Pr40 O60 2.562 1_565 S
Pr40 O61 2.490 1_565 S
Pr40 O62 2.695 . S
Pr40 O63 2.512 . S
Pr40 O65 2.437 . S
Pr40 O68 2.436 . S
Pr40 O70 2.438 . S
Pr41 C51 2.880 . S
Pr41 O62 2.436 . S
Pr41 O64 2.438 . S
Pr41 O66 2.562 . S
Pr41 O67 2.490 . S
Pr41 O68 2.695 . S
Pr41 O69 2.512 . S
Pr41 O71 2.437 . S
C42 Pr40 2.880 1_545 S
C42 C43 1.491 . S
C42 O60 1.254 . S
C42 O61 1.225 . S
C43 C42 1.491 . S
C43 C44 1.392 . S
C43 C48 1.356 . S
C44 C43 1.392 . S
C44 C45 1.368 . S
C44 H72 0.929 . S
C45 C44 1.368 . S
C45 C46 1.386 . S
C45 H73 0.929 . S
C46 C45 1.386 . S
C46 C47 1.373 . S
C47 C46 1.373 . S
C47 C48 1.409 . S
C47 H74 0.931 . S
C48 C43 1.356 . S
C48 C47 1.409 . S
C48 H75 0.930 . S
C49 O62 1.270 . S
C49 O63 1.248 . S
C50 O64 1.267 . S
C50 O65 1.278 . S
C51 Pr41 2.880 . S
C51 C52 1.491 . S
C51 O66 1.254 . S
C51 O67 1.225 . S
C52 C51 1.491 . S
C52 C53 1.392 . S
C52 C57 1.356 . S
C53 C52 1.392 . S
C53 C54 1.368 . S
C53 H76 0.929 . S
C54 C53 1.368 . S
C54 C55 1.386 . S
C54 H77 0.929 . S
C55 C54 1.386 . S
C55 C56 1.373 . S
C56 C55 1.373 . S
C56 C57 1.409 . S
C56 H78 0.931 . S
C57 C52 1.356 . S
C57 C56 1.409 . S
C57 H79 0.930 . S
C58 O68 1.270 . S
C58 O69 1.248 . S
C59 O70 1.267 . S
C59 O71 1.278 . S
O60 Pr40 2.562 1_545 S
O60 C42 1.254 . S
O61 Pr40 2.490 1_545 S
O61 C42 1.225 . S
O62 Pr40 2.695 . S
O62 Pr41 2.436 . S
O62 C49 1.270 . S
O63 Pr40 2.512 . S
O63 C49 1.248 . S
O64 Pr41 2.438 . S
O64 C50 1.267 . S
O65 Pr40 2.437 . S
O65 C50 1.278 . S
O66 Pr41 2.562 . S
O66 C51 1.254 . S
O67 Pr41 2.490 . S
O67 C51 1.225 . S
O68 Pr40 2.436 . S
O68 Pr41 2.695 . S
O68 C58 1.270 . S
O69 Pr41 2.512 . S
O69 C58 1.248 . S
O70 Pr40 2.438 . S
O70 C59 1.267 . S
O71 Pr41 2.437 . S
O71 C59 1.278 . S
H72 C44 0.929 . S
H73 C45 0.929 . S
H74 C47 0.931 . S
H75 C48 0.930 . S
H76 C53 0.929 . S
H77 C54 0.929 . S
H78 C56 0.931 . S
H79 C57 0.930 . S
Pr80 C82 2.880 1_565 S
Pr80 O100 2.562 1_565 S
Pr80 O101 2.490 1_565 S
Pr80 O102 2.695 . S
Pr80 O103 2.512 . S
Pr80 O105 2.437 . S
Pr80 O108 2.436 . S
Pr80 O110 2.438 . S
Pr81 C91 2.880 . S
Pr81 O102 2.436 . S
Pr81 O104 2.438 . S
Pr81 O106 2.562 . S
Pr81 O107 2.490 . S
Pr81 O108 2.695 . S
Pr81 O109 2.512 . S
Pr81 O111 2.437 . S
C82 Pr80 2.880 1_545 S
C82 C83 1.491 . S
C82 O100 1.254 . S
C82 O101 1.225 . S
C83 C82 1.491 . S
C83 C84 1.392 . S
C83 C88 1.356 . S
C84 C83 1.392 . S
C84 C85 1.368 . S
C84 H112 0.929 . S
C85 C84 1.368 . S
C85 C86 1.386 . S
C85 H113 0.929 . S
C86 C85 1.386 . S
C86 C87 1.373 . S
C87 C86 1.373 . S
C87 C88 1.409 . S
C87 H114 0.931 . S
C88 C83 1.356 . S
C88 C87 1.409 . S
C88 H115 0.930 . S
C89 O102 1.270 . S
C89 O103 1.248 . S
C90 O104 1.267 . S
C90 O105 1.278 . S
C91 Pr81 2.880 . S
C91 C92 1.491 . S
C91 O106 1.254 . S
C91 O107 1.225 . S
C92 C91 1.491 . S
C92 C93 1.392 . S
C92 C97 1.356 . S
C93 C92 1.392 . S
C93 C94 1.368 . S
C93 H116 0.929 . S
C94 C93 1.368 . S
C94 C95 1.386 . S
C94 H117 0.929 . S
C95 C94 1.386 . S
C95 C96 1.373 . S
C96 C95 1.373 . S
C96 C97 1.409 . S
C96 H118 0.931 . S
C97 C92 1.356 . S
C97 C96 1.409 . S
C97 H119 0.930 . S
C98 O108 1.270 . S
C98 O109 1.248 . S
C99 O110 1.267 . S
C99 O111 1.278 . S
O100 Pr80 2.562 1_545 S
O100 C82 1.254 . S
O101 Pr80 2.490 1_545 S
O101 C82 1.225 . S
O102 Pr80 2.695 . S
O102 Pr81 2.436 . S
O102 C89 1.270 . S
O103 Pr80 2.512 . S
O103 C89 1.248 . S
O104 Pr81 2.438 . S
O104 C90 1.267 . S
O105 Pr80 2.437 . S
O105 C90 1.278 . S
O106 Pr81 2.562 . S
O106 C91 1.254 . S
O107 Pr81 2.490 . S
O107 C91 1.225 . S
O108 Pr80 2.436 . S
O108 Pr81 2.695 . S
O108 C98 1.270 . S
O109 Pr81 2.512 . S
O109 C98 1.248 . S
O110 Pr80 2.438 . S
O110 C99 1.267 . S
O111 Pr81 2.437 . S
O111 C99 1.278 . S
H112 C84 0.929 . S
H113 C85 0.929 . S
H114 C87 0.931 . S
H115 C88 0.930 . S
H116 C93 0.929 . S
H117 C94 0.929 . S
H118 C96 0.931 . S
H119 C97 0.930 . S
Pr120 C122 2.880 1_545 S
Pr120 O140 2.562 1_545 S
Pr120 O141 2.490 1_545 S
Pr120 O142 2.695 . S
Pr120 O143 2.512 . S
Pr120 O145 2.437 . S
Pr120 O148 2.436 . S
Pr120 O150 2.438 . S
Pr121 C131 2.880 . S
Pr121 O142 2.436 . S
Pr121 O144 2.438 . S
Pr121 O146 2.562 . S
Pr121 O147 2.490 . S
Pr121 O148 2.695 . S
Pr121 O149 2.512 . S
Pr121 O151 2.437 . S
C122 Pr120 2.880 1_565 S
C122 C123 1.491 . S
C122 O140 1.254 . S
C122 O141 1.225 . S
C123 C122 1.491 . S
C123 C124 1.392 . S
C123 C128 1.356 . S
C124 C123 1.392 . S
C124 C125 1.368 . S
C124 H152 0.929 . S
C125 C124 1.368 . S
C125 C126 1.386 . S
C125 H153 0.929 . S
C126 C125 1.386 . S
C126 C127 1.373 . S
C127 C126 1.373 . S
C127 C128 1.409 . S
C127 H154 0.931 . S
C128 C123 1.356 . S
C128 C127 1.409 . S
C128 H155 0.930 . S
C129 O142 1.270 . S
C129 O143 1.248 . S
C130 O144 1.267 . S
C130 O145 1.278 . S
C131 Pr121 2.880 . S
C131 C132 1.491 . S
C131 O146 1.254 . S
C131 O147 1.225 . S
C132 C131 1.491 . S
C132 C133 1.392 . S
C132 C137 1.356 . S
C133 C132 1.392 . S
C133 C134 1.368 . S
C133 H156 0.929 . S
C134 C133 1.368 . S
C134 C135 1.386 . S
C134 H157 0.929 . S
C135 C134 1.386 . S
C135 C136 1.373 . S
C136 C135 1.373 . S
C136 C137 1.409 . S
C136 H158 0.931 . S
C137 C132 1.356 . S
C137 C136 1.409 . S
C137 H159 0.930 . S
C138 O148 1.270 . S
C138 O149 1.248 . S
C139 O150 1.267 . S
C139 O151 1.278 . S
O140 Pr120 2.562 1_565 S
O140 C122 1.254 . S
O141 Pr120 2.490 1_565 S
O141 C122 1.225 . S
O142 Pr120 2.695 . S
O142 Pr121 2.436 . S
O142 C129 1.270 . S
O143 Pr120 2.512 . S
O143 C129 1.248 . S
O144 Pr121 2.438 . S
O144 C130 1.267 . S
O145 Pr120 2.437 . S
O145 C130 1.278 . S
O146 Pr121 2.562 . S
O146 C131 1.254 . S
O147 Pr121 2.490 . S
O147 C131 1.225 . S
O148 Pr120 2.436 . S
O148 Pr121 2.695 . S
O148 C138 1.270 . S
O149 Pr121 2.512 . S
O149 C138 1.248 . S
O150 Pr120 2.438 . S
O150 C139 1.267 . S
O151 Pr121 2.437 . S
O151 C139 1.278 . S
H152 C124 0.929 . S
H153 C125 0.929 . S
H154 C127 0.931 . S
H155 C128 0.930 . S
H156 C133 0.929 . S
H157 C134 0.929 . S
H158 C136 0.931 . S
H159 C137 0.930 . S
Pr160 C162 2.880 . S
Pr160 O180 2.562 . S
Pr160 O181 2.490 . S
Pr160 O182 2.695 . S
Pr160 O183 2.512 . S
Pr160 O185 2.437 . S
Pr160 O188 2.436 . S
Pr160 O190 2.438 . S
Pr161 C171 2.880 1_565 S
Pr161 O182 2.436 . S
Pr161 O184 2.438 . S
Pr161 O186 2.562 1_565 S
Pr161 O187 2.490 1_565 S
Pr161 O188 2.695 . S
Pr161 O189 2.512 . S
Pr161 O191 2.437 . S
C162 Pr160 2.880 . S
C162 C163 1.491 . S
C162 O180 1.254 . S
C162 O181 1.225 . S
C163 C162 1.491 . S
C163 C164 1.392 . S
C163 C168 1.356 . S
C164 C163 1.392 . S
C164 C165 1.368 . S
C164 H192 0.929 . S
C165 C164 1.368 . S
C165 C166 1.386 . S
C165 H193 0.929 . S
C166 C165 1.386 . S
C166 C167 1.373 . S
C167 C166 1.373 . S
C167 C168 1.409 . S
C167 H194 0.931 . S
C168 C163 1.356 . S
C168 C167 1.409 . S
C168 H195 0.930 . S
C169 O182 1.270 . S
C169 O183 1.248 . S
C170 O184 1.267 . S
C170 O185 1.278 . S
C171 Pr161 2.880 1_545 S
C171 C172 1.491 . S
C171 O186 1.254 . S
C171 O187 1.225 . S
C172 C171 1.491 . S
C172 C173 1.392 . S
C172 C177 1.356 . S
C173 C172 1.392 . S
C173 C174 1.368 . S
C173 H196 0.929 . S
C174 C173 1.368 . S
C174 C175 1.386 . S
C174 H197 0.929 . S
C175 C174 1.386 . S
C175 C176 1.373 . S
C176 C175 1.373 . S
C176 C177 1.409 . S
C176 H198 0.931 . S
C177 C172 1.356 . S
C177 C176 1.409 . S
C177 H199 0.930 . S
C178 O188 1.270 . S
C178 O189 1.248 . S
C179 O190 1.267 . S
C179 O191 1.278 . S
O180 Pr160 2.562 . S
O180 C162 1.254 . S
O181 Pr160 2.490 . S
O181 C162 1.225 . S
O182 Pr160 2.695 . S
O182 Pr161 2.436 . S
O182 C169 1.270 . S
O183 Pr160 2.512 . S
O183 C169 1.248 . S
O184 Pr161 2.438 . S
O184 C170 1.267 . S
O185 Pr160 2.437 . S
O185 C170 1.278 . S
O186 Pr161 2.562 1_545 S
O186 C171 1.254 . S
O187 Pr161 2.490 1_545 S
O187 C171 1.225 . S
O188 Pr160 2.436 . S
O188 Pr161 2.695 . S
O188 C178 1.270 . S
O189 Pr161 2.512 . S
O189 C178 1.248 . S
O190 Pr160 2.438 . S
O190 C179 1.267 . S
O191 Pr161 2.437 . S
O191 C179 1.278 . S
H192 C164 0.929 . S
H193 C165 0.929 . S
H194 C167 0.931 . S
H195 C168 0.930 . S
H196 C173 0.929 . S
H197 C174 0.929 . S
H198 C176 0.931 . S
H199 C177 0.930 . S
Pr200 C202 2.880 . S
Pr200 O220 2.562 . S
Pr200 O221 2.490 . S
Pr200 O222 2.695 . S
Pr200 O223 2.512 . S
Pr200 O225 2.437 . S
Pr200 O228 2.436 . S
Pr200 O230 2.438 . S
Pr201 C211 2.880 1_545 S
Pr201 O222 2.436 . S
Pr201 O224 2.438 . S
Pr201 O226 2.562 1_545 S
Pr201 O227 2.490 1_545 S
Pr201 O228 2.695 . S
Pr201 O229 2.512 . S
Pr201 O231 2.437 . S
C202 Pr200 2.880 . S
C202 C203 1.491 . S
C202 O220 1.254 . S
C202 O221 1.225 . S
C203 C202 1.491 . S
C203 C204 1.392 . S
C203 C208 1.356 . S
C204 C203 1.392 . S
C204 C205 1.368 . S
C204 H232 0.929 . S
C205 C204 1.368 . S
C205 C206 1.386 . S
C205 H233 0.929 . S
C206 C205 1.386 . S
C206 C207 1.373 . S
C207 C206 1.373 . S
C207 C208 1.409 . S
C207 H234 0.931 . S
C208 C203 1.356 . S
C208 C207 1.409 . S
C208 H235 0.930 . S
C209 O222 1.270 . S
C209 O223 1.248 . S
C210 O224 1.267 . S
C210 O225 1.278 . S
C211 Pr201 2.880 1_565 S
C211 C212 1.491 . S
C211 O226 1.254 . S
C211 O227 1.225 . S
C212 C211 1.491 . S
C212 C213 1.392 . S
C212 C217 1.356 . S
C213 C212 1.392 . S
C213 C214 1.368 . S
C213 H236 0.929 . S
C214 C213 1.368 . S
C214 C215 1.386 . S
C214 H237 0.929 . S
C215 C214 1.386 . S
C215 C216 1.373 . S
C216 C215 1.373 . S
C216 C217 1.409 . S
C216 H238 0.931 . S
C217 C212 1.356 . S
C217 C216 1.409 . S
C217 H239 0.930 . S
C218 O228 1.270 . S
C218 O229 1.248 . S
C219 O230 1.267 . S
C219 O231 1.278 . S
O220 Pr200 2.562 . S
O220 C202 1.254 . S
O221 Pr200 2.490 . S
O221 C202 1.225 . S
O222 Pr200 2.695 . S
O222 Pr201 2.436 . S
O222 C209 1.270 . S
O223 Pr200 2.512 . S
O223 C209 1.248 . S
O224 Pr201 2.438 . S
O224 C210 1.267 . S
O225 Pr200 2.437 . S
O225 C210 1.278 . S
O226 Pr201 2.562 1_565 S
O226 C211 1.254 . S
O227 Pr201 2.490 1_565 S
O227 C211 1.225 . S
O228 Pr200 2.436 . S
O228 Pr201 2.695 . S
O228 C218 1.270 . S
O229 Pr201 2.512 . S
O229 C218 1.248 . S
O230 Pr200 2.438 . S
O230 C219 1.267 . S
O231 Pr201 2.437 . S
O231 C219 1.278 . S
H232 C204 0.929 . S
H233 C205 0.929 . S
H234 C207 0.931 . S
H235 C208 0.930 . S
H236 C213 0.929 . S
H237 C214 0.929 . S
H238 C216 0.931 . S
H239 C217 0.930 . S
Pr240 C242 2.880 . S
Pr240 O260 2.562 . S
Pr240 O261 2.490 . S
Pr240 O262 2.695 . S
Pr240 O263 2.512 . S
Pr240 O265 2.437 . S
Pr240 O268 2.436 . S
Pr240 O270 2.438 . S
Pr241 C251 2.880 1_545 S
Pr241 O262 2.436 . S
Pr241 O264 2.438 . S
Pr241 O266 2.562 1_545 S
Pr241 O267 2.490 1_545 S
Pr241 O268 2.695 . S
Pr241 O269 2.512 . S
Pr241 O271 2.437 . S
C242 Pr240 2.880 . S
C242 C243 1.491 . S
C242 O260 1.254 . S
C242 O261 1.225 . S
C243 C242 1.491 . S
C243 C244 1.392 . S
C243 C248 1.356 . S
C244 C243 1.392 . S
C244 C245 1.368 . S
C244 H272 0.929 . S
C245 C244 1.368 . S
C245 C246 1.386 . S
C245 H273 0.929 . S
C246 C245 1.386 . S
C246 C247 1.373 . S
C247 C246 1.373 . S
C247 C248 1.409 . S
C247 H274 0.931 . S
C248 C243 1.356 . S
C248 C247 1.409 . S
C248 H275 0.930 . S
C249 O262 1.270 . S
C249 O263 1.248 . S
C250 O264 1.267 . S
C250 O265 1.278 . S
C251 Pr241 2.880 1_565 S
C251 C252 1.491 . S
C251 O266 1.254 . S
C251 O267 1.225 . S
C252 C251 1.491 . S
C252 C253 1.392 . S
C252 C257 1.356 . S
C253 C252 1.392 . S
C253 C254 1.368 . S
C253 H276 0.929 . S
C254 C253 1.368 . S
C254 C255 1.386 . S
C254 H277 0.929 . S
C255 C254 1.386 . S
C255 C256 1.373 . S
C256 C255 1.373 . S
C256 C257 1.409 . S
C256 H278 0.931 . S
C257 C252 1.356 . S
C257 C256 1.409 . S
C257 H279 0.930 . S
C258 O268 1.270 . S
C258 O269 1.248 . S
C259 O270 1.267 . S
C259 O271 1.278 . S
O260 Pr240 2.562 . S
O260 C242 1.254 . S
O261 Pr240 2.490 . S
O261 C242 1.225 . S
O262 Pr240 2.695 . S
O262 Pr241 2.436 . S
O262 C249 1.270 . S
O263 Pr240 2.512 . S
O263 C249 1.248 . S
O264 Pr241 2.438 . S
O264 C250 1.267 . S
O265 Pr240 2.437 . S
O265 C250 1.278 . S
O266 Pr241 2.562 1_565 S
O266 C251 1.254 . S
O267 Pr241 2.490 1_565 S
O267 C251 1.225 . S
O268 Pr240 2.436 . S
O268 Pr241 2.695 . S
O268 C258 1.270 . S
O269 Pr241 2.512 . S
O269 C258 1.248 . S
O270 Pr240 2.438 . S
O270 C259 1.267 . S
O271 Pr241 2.437 . S
O271 C259 1.278 . S
H272 C244 0.929 . S
H273 C245 0.929 . S
H274 C247 0.931 . S
H275 C248 0.930 . S
H276 C253 0.929 . S
H277 C254 0.929 . S
H278 C256 0.931 . S
H279 C257 0.930 . S
Pr280 C282 2.880 . S
Pr280 O300 2.562 . S
Pr280 O301 2.490 . S
Pr280 O302 2.695 . S
Pr280 O303 2.512 . S
Pr280 O305 2.437 . S
Pr280 O308 2.436 . S
Pr280 O310 2.438 . S
Pr281 C291 2.880 1_565 S
Pr281 O302 2.436 . S
Pr281 O304 2.438 . S
Pr281 O306 2.562 1_565 S
Pr281 O307 2.490 1_565 S
Pr281 O308 2.695 . S
Pr281 O309 2.512 . S
Pr281 O311 2.437 . S
C282 Pr280 2.880 . S
C282 C283 1.491 . S
C282 O300 1.254 . S
C282 O301 1.225 . S
C283 C282 1.491 . S
C283 C284 1.392 . S
C283 C288 1.356 . S
C284 C283 1.392 . S
C284 C285 1.368 . S
C284 H312 0.929 . S
C285 C284 1.368 . S
C285 C286 1.386 . S
C285 H313 0.929 . S
C286 C285 1.386 . S
C286 C287 1.373 . S
C287 C286 1.373 . S
C287 C288 1.409 . S
C287 H314 0.931 . S
C288 C283 1.356 . S
C288 C287 1.409 . S
C288 H315 0.930 . S
C289 O302 1.270 . S
C289 O303 1.248 . S
C290 O304 1.267 . S
C290 O305 1.278 . S
C291 Pr281 2.880 1_545 S
C291 C292 1.491 . S
C291 O306 1.254 . S
C291 O307 1.225 . S
C292 C291 1.491 . S
C292 C293 1.392 . S
C292 C297 1.356 . S
C293 C292 1.392 . S
C293 C294 1.368 . S
C293 H316 0.929 . S
C294 C293 1.368 . S
C294 C295 1.386 . S
C294 H317 0.929 . S
C295 C294 1.386 . S
C295 C296 1.373 . S
C296 C295 1.373 . S
C296 C297 1.409 . S
C296 H318 0.931 . S
C297 C292 1.356 . S
C297 C296 1.409 . S
C297 H319 0.930 . S
C298 O308 1.270 . S
C298 O309 1.248 . S
C299 O310 1.267 . S
C299 O311 1.278 . S
O300 Pr280 2.562 . S
O300 C282 1.254 . S
O301 Pr280 2.490 . S
O301 C282 1.225 . S
O302 Pr280 2.695 . S
O302 Pr281 2.436 . S
O302 C289 1.270 . S
O303 Pr280 2.512 . S
O303 C289 1.248 . S
O304 Pr281 2.438 . S
O304 C290 1.267 . S
O305 Pr280 2.437 . S
O305 C290 1.278 . S
O306 Pr281 2.562 1_545 S
O306 C291 1.254 . S
O307 Pr281 2.490 1_545 S
O307 C291 1.225 . S
O308 Pr280 2.436 . S
O308 Pr281 2.695 . S
O308 C298 1.270 . S
O309 Pr281 2.512 . S
O309 C298 1.248 . S
O310 Pr280 2.438 . S
O310 C299 1.267 . S
O311 Pr281 2.437 . S
O311 C299 1.278 . S
H312 C284 0.929 . S
H313 C285 0.929 . S
H314 C287 0.931 . S
H315 C288 0.930 . S
H316 C293 0.929 . S
H317 C294 0.929 . S
H318 C296 0.931 . S
H319 C297 0.930 . S
Pr320 C322 2.880 . S
Pr320 O340 2.562 . S
Pr320 O341 2.490 . S
Pr320 O342 2.695 . S
Pr320 O343 2.512 . S
Pr320 O345 2.437 . S
Pr320 O348 2.436 . S
Pr320 O350 2.438 . S
Pr321 C331 2.880 . S
Pr321 O342 2.436 . S
Pr321 O344 2.438 . S
Pr321 O346 2.562 . S
Pr321 O347 2.490 . S
Pr321 O348 2.695 . S
Pr321 O349 2.512 . S
Pr321 O351 2.437 . S
C322 Pr320 2.880 . S
C322 C323 1.491 . S
C322 O340 1.254 . S
C322 O341 1.225 . S
C323 C322 1.491 . S
C323 C324 1.392 . S
C323 C328 1.356 . S
C324 C323 1.392 . S
C324 C325 1.368 . S
C324 H352 0.929 . S
C325 C324 1.368 . S
C325 C326 1.386 . S
C325 H353 0.929 . S
C326 C325 1.386 . S
C326 C327 1.373 . S
C327 C326 1.373 . S
C327 C328 1.409 . S
C327 H354 0.931 . S
C328 C323 1.356 . S
C328 C327 1.409 . S
C328 H355 0.930 . S
C329 O342 1.270 . S
C329 O343 1.248 . S
C330 O344 1.267 . S
C330 O345 1.278 . S
C331 Pr321 2.880 . S
C331 C332 1.491 . S
C331 O346 1.254 . S
C331 O347 1.225 . S
C332 C331 1.491 . S
C332 C333 1.392 . S
C332 C337 1.356 . S
C333 C332 1.392 . S
C333 C334 1.368 . S
C333 H356 0.929 . S
C334 C333 1.368 . S
C334 C335 1.386 . S
C334 H357 0.929 . S
C335 C334 1.386 . S
C335 C336 1.373 . S
C336 C335 1.373 . S
C336 C337 1.409 . S
C336 H358 0.931 . S
C337 C332 1.356 . S
C337 C336 1.409 . S
C337 H359 0.930 . S
C338 O348 1.270 . S
C338 O349 1.248 . S
C339 O350 1.267 . S
C339 O351 1.278 . S
O340 Pr320 2.562 . S
O340 C322 1.254 . S
O341 Pr320 2.490 . S
O341 C322 1.225 . S
O342 Pr320 2.695 . S
O342 Pr321 2.436 . S
O342 C329 1.270 . S
O343 Pr320 2.512 . S
O343 C329 1.248 . S
O344 Pr321 2.438 . S
O344 C330 1.267 . S
O345 Pr320 2.437 . S
O345 C330 1.278 . S
O346 Pr321 2.562 . S
O346 C331 1.254 . S
O347 Pr321 2.490 . S
O347 C331 1.225 . S
O348 Pr320 2.436 . S
O348 Pr321 2.695 . S
O348 C338 1.270 . S
O349 Pr321 2.512 . S
O349 C338 1.248 . S
O350 Pr320 2.438 . S
O350 C339 1.267 . S
O351 Pr321 2.437 . S
O351 C339 1.278 . S
H352 C324 0.929 . S
H353 C325 0.929 . S
H354 C327 0.931 . S
H355 C328 0.930 . S
H356 C333 0.929 . S
H357 C334 0.929 . S
H358 C336 0.931 . S
H359 C337 0.930 . S
Pr360 C362 2.880 . S
Pr360 O380 2.562 . S
Pr360 O381 2.490 . S
Pr360 O382 2.695 . S
Pr360 O383 2.512 . S
Pr360 O385 2.437 . S
Pr360 O388 2.436 . S
Pr360 O390 2.438 . S
Pr361 C371 2.880 . S
Pr361 O382 2.436 . S
Pr361 O384 2.438 . S
Pr361 O386 2.562 . S
Pr361 O387 2.490 . S
Pr361 O388 2.695 . S
Pr361 O389 2.512 . S
Pr361 O391 2.437 . S
C362 Pr360 2.880 . S
C362 C363 1.491 . S
C362 O380 1.254 . S
C362 O381 1.225 . S
C363 C362 1.491 . S
C363 C364 1.392 . S
C363 C368 1.356 . S
C364 C363 1.392 . S
C364 C365 1.368 . S
C364 H392 0.929 . S
C365 C364 1.368 . S
C365 C366 1.386 . S
C365 H393 0.929 . S
C366 C365 1.386 . S
C366 C367 1.373 . S
C367 C366 1.373 . S
C367 C368 1.409 . S
C367 H394 0.931 . S
C368 C363 1.356 . S
C368 C367 1.409 . S
C368 H395 0.930 . S
C369 O382 1.270 . S
C369 O383 1.248 . S
C370 O384 1.267 . S
C370 O385 1.278 . S
C371 Pr361 2.880 . S
C371 C372 1.491 . S
C371 O386 1.254 . S
C371 O387 1.225 . S
C372 C371 1.491 . S
C372 C373 1.392 . S
C372 C377 1.356 . S
C373 C372 1.392 . S
C373 C374 1.368 . S
C373 H396 0.929 . S
C374 C373 1.368 . S
C374 C375 1.386 . S
C374 H397 0.929 . S
C375 C374 1.386 . S
C375 C376 1.373 . S
C376 C375 1.373 . S
C376 C377 1.409 . S
C376 H398 0.931 . S
C377 C372 1.356 . S
C377 C376 1.409 . S
C377 H399 0.930 . S
C378 O388 1.270 . S
C378 O389 1.248 . S
C379 O390 1.267 . S
C379 O391 1.278 . S
O380 Pr360 2.562 . S
O380 C362 1.254 . S
O381 Pr360 2.490 . S
O381 C362 1.225 . S
O382 Pr360 2.695 . S
O382 Pr361 2.436 . S
O382 C369 1.270 . S
O383 Pr360 2.512 . S
O383 C369 1.248 . S
O384 Pr361 2.438 . S
O384 C370 1.267 . S
O385 Pr360 2.437 . S
O385 C370 1.278 . S
O386 Pr361 2.562 . S
O386 C371 1.254 . S
O387 Pr361 2.490 . S
O387 C371 1.225 . S
O388 Pr360 2.436 . S
O388 Pr361 2.695 . S
O388 C378 1.270 . S
O389 Pr361 2.512 . S
O389 C378 1.248 . S
O390 Pr360 2.438 . S
O390 C379 1.267 . S
O391 Pr361 2.437 . S
O391 C379 1.278 . S
H392 C364 0.929 . S
H393 C365 0.929 . S
H394 C367 0.931 . S
H395 C368 0.930 . S
H396 C373 0.929 . S
H397 C374 0.929 . S
H398 C376 0.931 . S
H399 C377 0.930 . S
Pr400 C402 2.880 . S
Pr400 O420 2.562 . S
Pr400 O421 2.490 . S
Pr400 O422 2.695 . S
Pr400 O423 2.512 . S
Pr400 O425 2.437 . S
Pr400 O428 2.436 . S
Pr400 O430 2.438 . S
Pr401 C411 2.880 . S
Pr401 O422 2.436 . S
Pr401 O424 2.438 . S
Pr401 O426 2.562 . S
Pr401 O427 2.490 . S
Pr401 O428 2.695 . S
Pr401 O429 2.512 . S
Pr401 O431 2.437 . S
C402 Pr400 2.880 . S
C402 C403 1.491 . S
C402 O420 1.254 . S
C402 O421 1.225 . S
C403 C402 1.491 . S
C403 C404 1.392 . S
C403 C408 1.356 . S
C404 C403 1.392 . S
C404 C405 1.368 . S
C404 H432 0.929 . S
C405 C404 1.368 . S
C405 C406 1.386 . S
C405 H433 0.929 . S
C406 C405 1.386 . S
C406 C407 1.373 . S
C407 C406 1.373 . S
C407 C408 1.409 . S
C407 H434 0.931 . S
C408 C403 1.356 . S
C408 C407 1.409 . S
C408 H435 0.930 . S
C409 O422 1.270 . S
C409 O423 1.248 . S
C410 O424 1.267 . S
C410 O425 1.278 . S
C411 Pr401 2.880 . S
C411 C412 1.491 . S
C411 O426 1.254 . S
C411 O427 1.225 . S
C412 C411 1.491 . S
C412 C413 1.392 . S
C412 C417 1.356 . S
C413 C412 1.392 . S
C413 C414 1.368 . S
C413 H436 0.929 . S
C414 C413 1.368 . S
C414 C415 1.386 . S
C414 H437 0.929 . S
C415 C414 1.386 . S
C415 C416 1.373 . S
C416 C415 1.373 . S
C416 C417 1.409 . S
C416 H438 0.931 . S
C417 C412 1.356 . S
C417 C416 1.409 . S
C417 H439 0.930 . S
C418 O428 1.270 . S
C418 O429 1.248 . S
C419 O430 1.267 . S
C419 O431 1.278 . S
O420 Pr400 2.562 . S
O420 C402 1.254 . S
O421 Pr400 2.490 . S
O421 C402 1.225 . S
O422 Pr400 2.695 . S
O422 Pr401 2.436 . S
O422 C409 1.270 . S
O423 Pr400 2.512 . S
O423 C409 1.248 . S
O424 Pr401 2.438 . S
O424 C410 1.267 . S
O425 Pr400 2.437 . S
O425 C410 1.278 . S
O426 Pr401 2.562 . S
O426 C411 1.254 . S
O427 Pr401 2.490 . S
O427 C411 1.225 . S
O428 Pr400 2.436 . S
O428 Pr401 2.695 . S
O428 C418 1.270 . S
O429 Pr401 2.512 . S
O429 C418 1.248 . S
O430 Pr400 2.438 . S
O430 C419 1.267 . S
O431 Pr401 2.437 . S
O431 C419 1.278 . S
H432 C404 0.929 . S
H433 C405 0.929 . S
H434 C407 0.931 . S
H435 C408 0.930 . S
H436 C413 0.929 . S
H437 C414 0.929 . S
H438 C416 0.931 . S
H439 C417 0.930 . S
Pr440 C442 2.880 . S
Pr440 O460 2.562 . S
Pr440 O461 2.490 . S
Pr440 O462 2.695 . S
Pr440 O463 2.512 . S
Pr440 O465 2.437 . S
Pr440 O468 2.436 . S
Pr440 O470 2.438 . S
Pr441 C451 2.880 . S
Pr441 O462 2.436 . S
Pr441 O464 2.438 . S
Pr441 O466 2.562 . S
Pr441 O467 2.490 . S
Pr441 O468 2.695 . S
Pr441 O469 2.512 . S
Pr441 O471 2.437 . S
C442 Pr440 2.880 . S
C442 C443 1.491 . S
C442 O460 1.254 . S
C442 O461 1.225 . S
C443 C442 1.491 . S
C443 C444 1.392 . S
C443 C448 1.356 . S
C444 C443 1.392 . S
C444 C445 1.368 . S
C444 H472 0.929 . S
C445 C444 1.368 . S
C445 C446 1.386 . S
C445 H473 0.929 . S
C446 C445 1.386 . S
C446 C447 1.373 . S
C447 C446 1.373 . S
C447 C448 1.409 . S
C447 H474 0.931 . S
C448 C443 1.356 . S
C448 C447 1.409 . S
C448 H475 0.930 . S
C449 O462 1.270 . S
C449 O463 1.248 . S
C450 O464 1.267 . S
C450 O465 1.278 . S
C451 Pr441 2.880 . S
C451 C452 1.491 . S
C451 O466 1.254 . S
C451 O467 1.225 . S
C452 C451 1.491 . S
C452 C453 1.392 . S
C452 C457 1.356 . S
C453 C452 1.392 . S
C453 C454 1.368 . S
C453 H476 0.929 . S
C454 C453 1.368 . S
C454 C455 1.386 . S
C454 H477 0.929 . S
C455 C454 1.386 . S
C455 C456 1.373 . S
C456 C455 1.373 . S
C456 C457 1.409 . S
C456 H478 0.931 . S
C457 C452 1.356 . S
C457 C456 1.409 . S
C457 H479 0.930 . S
C458 O468 1.270 . S
C458 O469 1.248 . S
C459 O470 1.267 . S
C459 O471 1.278 . S
O460 Pr440 2.562 . S
O460 C442 1.254 . S
O461 Pr440 2.490 . S
O461 C442 1.225 . S
O462 Pr440 2.695 . S
O462 Pr441 2.436 . S
O462 C449 1.270 . S
O463 Pr440 2.512 . S
O463 C449 1.248 . S
O464 Pr441 2.438 . S
O464 C450 1.267 . S
O465 Pr440 2.437 . S
O465 C450 1.278 . S
O466 Pr441 2.562 . S
O466 C451 1.254 . S
O467 Pr441 2.490 . S
O467 C451 1.225 . S
O468 Pr440 2.436 . S
O468 Pr441 2.695 . S
O468 C458 1.270 . S
O469 Pr441 2.512 . S
O469 C458 1.248 . S
O470 Pr440 2.438 . S
O470 C459 1.267 . S
O471 Pr441 2.437 . S
O471 C459 1.278 . S
H472 C444 0.929 . S
H473 C445 0.929 . S
H474 C447 0.931 . S
H475 C448 0.930 . S
H476 C453 0.929 . S
H477 C454 0.929 . S
H478 C456 0.931 . S
H479 C457 0.930 . S
Pr480 C482 2.880 . S
Pr480 O500 2.562 . S
Pr480 O501 2.490 . S
Pr480 O502 2.695 . S
Pr480 O503 2.512 . S
Pr480 O505 2.437 . S
Pr480 O508 2.436 . S
Pr480 O510 2.438 . S
Pr481 C491 2.880 . S
Pr481 O502 2.436 . S
Pr481 O504 2.438 . S
Pr481 O506 2.562 . S
Pr481 O507 2.490 . S
Pr481 O508 2.695 . S
Pr481 O509 2.512 . S
Pr481 O511 2.437 . S
C482 Pr480 2.880 . S
C482 C483 1.491 . S
C482 O500 1.254 . S
C482 O501 1.225 . S
C483 C482 1.491 . S
C483 C484 1.392 . S
C483 C488 1.356 . S
C484 C483 1.392 . S
C484 C485 1.368 . S
C484 H512 0.929 . S
C485 C484 1.368 . S
C485 C486 1.386 . S
C485 H513 0.929 . S
C486 C485 1.386 . S
C486 C487 1.373 . S
C487 C486 1.373 . S
C487 C488 1.409 . S
C487 H514 0.931 . S
C488 C483 1.356 . S
C488 C487 1.409 . S
C488 H515 0.930 . S
C489 O502 1.270 . S
C489 O503 1.248 . S
C490 O504 1.267 . S
C490 O505 1.278 . S
C491 Pr481 2.880 . S
C491 C492 1.491 . S
C491 O506 1.254 . S
C491 O507 1.225 . S
C492 C491 1.491 . S
C492 C493 1.392 . S
C492 C497 1.356 . S
C493 C492 1.392 . S
C493 C494 1.368 . S
C493 H516 0.929 . S
C494 C493 1.368 . S
C494 C495 1.386 . S
C494 H517 0.929 . S
C495 C494 1.386 . S
C495 C496 1.373 . S
C496 C495 1.373 . S
C496 C497 1.409 . S
C496 H518 0.931 . S
C497 C492 1.356 . S
C497 C496 1.409 . S
C497 H519 0.930 . S
C498 O508 1.270 . S
C498 O509 1.248 . S
C499 O510 1.267 . S
C499 O511 1.278 . S
O500 Pr480 2.562 . S
O500 C482 1.254 . S
O501 Pr480 2.490 . S
O501 C482 1.225 . S
O502 Pr480 2.695 . S
O502 Pr481 2.436 . S
O502 C489 1.270 . S
O503 Pr480 2.512 . S
O503 C489 1.248 . S
O504 Pr481 2.438 . S
O504 C490 1.267 . S
O505 Pr480 2.437 . S
O505 C490 1.278 . S
O506 Pr481 2.562 . S
O506 C491 1.254 . S
O507 Pr481 2.490 . S
O507 C491 1.225 . S
O508 Pr480 2.436 . S
O508 Pr481 2.695 . S
O508 C498 1.270 . S
O509 Pr481 2.512 . S
O509 C498 1.248 . S
O510 Pr480 2.438 . S
O510 C499 1.267 . S
O511 Pr481 2.437 . S
O511 C499 1.278 . S
H512 C484 0.929 . S
H513 C485 0.929 . S
H514 C487 0.931 . S
H515 C488 0.930 . S
H516 C493 0.929 . S
H517 C494 0.929 . S
H518 C496 0.931 . S
H519 C497 0.930 . S
Pr520 C522 2.880 . S
Pr520 O540 2.562 . S
Pr520 O541 2.490 . S
Pr520 O542 2.695 . S
Pr520 O543 2.512 . S
Pr520 O545 2.437 . S
Pr520 O548 2.436 . S
Pr520 O550 2.438 . S
Pr521 C531 2.880 . S
Pr521 O542 2.436 . S
Pr521 O544 2.438 . S
Pr521 O546 2.562 . S
Pr521 O547 2.490 . S
Pr521 O548 2.695 . S
Pr521 O549 2.512 . S
Pr521 O551 2.437 . S
C522 Pr520 2.880 . S
C522 C523 1.491 . S
C522 O540 1.254 . S
C522 O541 1.225 . S
C523 C522 1.491 . S
C523 C524 1.392 . S
C523 C528 1.356 . S
C524 C523 1.392 . S
C524 C525 1.368 . S
C524 H552 0.929 . S
C525 C524 1.368 . S
C525 C526 1.386 . S
C525 H553 0.929 . S
C526 C525 1.386 . S
C526 C527 1.373 . S
C527 C526 1.373 . S
C527 C528 1.409 . S
C527 H554 0.931 . S
C528 C523 1.356 . S
C528 C527 1.409 . S
C528 H555 0.930 . S
C529 O542 1.270 . S
C529 O543 1.248 . S
C530 O544 1.267 . S
C530 O545 1.278 . S
C531 Pr521 2.880 . S
C531 C532 1.491 . S
C531 O546 1.254 . S
C531 O547 1.225 . S
C532 C531 1.491 . S
C532 C533 1.392 . S
C532 C537 1.356 . S
C533 C532 1.392 . S
C533 C534 1.368 . S
C533 H556 0.929 . S
C534 C533 1.368 . S
C534 C535 1.386 . S
C534 H557 0.929 . S
C535 C534 1.386 . S
C535 C536 1.373 . S
C536 C535 1.373 . S
C536 C537 1.409 . S
C536 H558 0.931 . S
C537 C532 1.356 . S
C537 C536 1.409 . S
C537 H559 0.930 . S
C538 O548 1.270 . S
C538 O549 1.248 . S
C539 O550 1.267 . S
C539 O551 1.278 . S
O540 Pr520 2.562 . S
O540 C522 1.254 . S
O541 Pr520 2.490 . S
O541 C522 1.225 . S
O542 Pr520 2.695 . S
O542 Pr521 2.436 . S
O542 C529 1.270 . S
O543 Pr520 2.512 . S
O543 C529 1.248 . S
O544 Pr521 2.438 . S
O544 C530 1.267 . S
O545 Pr520 2.437 . S
O545 C530 1.278 . S
O546 Pr521 2.562 . S
O546 C531 1.254 . S
O547 Pr521 2.490 . S
O547 C531 1.225 . S
O548 Pr520 2.436 . S
O548 Pr521 2.695 . S
O548 C538 1.270 . S
O549 Pr521 2.512 . S
O549 C538 1.248 . S
O550 Pr520 2.438 . S
O550 C539 1.267 . S
O551 Pr521 2.437 . S
O551 C539 1.278 . S
H552 C524 0.929 . S
H553 C525 0.929 . S
H554 C527 0.931 . S
H555 C528 0.930 . S
H556 C533 0.929 . S
H557 C534 0.929 . S
H558 C536 0.931 . S
H559 C537 0.930 . S
Pr560 C562 2.880 . S
Pr560 O580 2.562 . S
Pr560 O581 2.490 . S
Pr560 O582 2.695 . S
Pr560 O583 2.512 . S
Pr560 O585 2.437 . S
Pr560 O588 2.436 . S
Pr560 O590 2.438 . S
Pr561 C571 2.880 . S
Pr561 O582 2.436 . S
Pr561 O584 2.438 . S
Pr561 O586 2.562 . S
Pr561 O587 2.490 . S
Pr561 O588 2.695 . S
Pr561 O589 2.512 . S
Pr561 O591 2.437 . S
C562 Pr560 2.880 . S
C562 C563 1.491 . S
C562 O580 1.254 . S
C562 O581 1.225 . S
C563 C562 1.491 . S
C563 C564 1.392 . S
C563 C568 1.356 . S
C564 C563 1.392 . S
C564 C565 1.368 . S
C564 H592 0.929 . S
C565 C564 1.368 . S
C565 C566 1.386 . S
C565 H593 0.929 . S
C566 C565 1.386 . S
C566 C567 1.373 . S
C567 C566 1.373 . S
C567 C568 1.409 . S
C567 H594 0.931 . S
C568 C563 1.356 . S
C568 C567 1.409 . S
C568 H595 0.930 . S
C569 O582 1.270 . S
C569 O583 1.248 . S
C570 O584 1.267 . S
C570 O585 1.278 . S
C571 Pr561 2.880 . S
C571 C572 1.491 . S
C571 O586 1.254 . S
C571 O587 1.225 . S
C572 C571 1.491 . S
C572 C573 1.392 . S
C572 C577 1.356 . S
C573 C572 1.392 . S
C573 C574 1.368 . S
C573 H596 0.929 . S
C574 C573 1.368 . S
C574 C575 1.386 . S
C574 H597 0.929 . S
C575 C574 1.386 . S
C575 C576 1.373 . S
C576 C575 1.373 . S
C576 C577 1.409 . S
C576 H598 0.931 . S
C577 C572 1.356 . S
C577 C576 1.409 . S
C577 H599 0.930 . S
C578 O588 1.270 . S
C578 O589 1.248 . S
C579 O590 1.267 . S
C579 O591 1.278 . S
O580 Pr560 2.562 . S
O580 C562 1.254 . S
O581 Pr560 2.490 . S
O581 C562 1.225 . S
O582 Pr560 2.695 . S
O582 Pr561 2.436 . S
O582 C569 1.270 . S
O583 Pr560 2.512 . S
O583 C569 1.248 . S
O584 Pr561 2.438 . S
O584 C570 1.267 . S
O585 Pr560 2.437 . S
O585 C570 1.278 . S
O586 Pr561 2.562 . S
O586 C571 1.254 . S
O587 Pr561 2.490 . S
O587 C571 1.225 . S
O588 Pr560 2.436 . S
O588 Pr561 2.695 . S
O588 C578 1.270 . S
O589 Pr561 2.512 . S
O589 C578 1.248 . S
O590 Pr560 2.438 . S
O590 C579 1.267 . S
O591 Pr561 2.437 . S
O591 C579 1.278 . S
H592 C564 0.929 . S
H593 C565 0.929 . S
H594 C567 0.931 . S
H595 C568 0.930 . S
H596 C573 0.929 . S
H597 C574 0.929 . S
H598 C576 0.931 . S
H599 C577 0.930 . S
Pr600 C602 2.880 . S
Pr600 O620 2.562 . S
Pr600 O621 2.490 . S
Pr600 O622 2.695 . S
Pr600 O623 2.512 . S
Pr600 O625 2.437 . S
Pr600 O628 2.436 . S
Pr600 O630 2.438 . S
Pr601 C611 2.880 . S
Pr601 O622 2.436 . S
Pr601 O624 2.438 . S
Pr601 O626 2.562 . S
Pr601 O627 2.490 . S
Pr601 O628 2.695 . S
Pr601 O629 2.512 . S
Pr601 O631 2.437 . S
C602 Pr600 2.880 . S
C602 C603 1.491 . S
C602 O620 1.254 . S
C602 O621 1.225 . S
C603 C602 1.491 . S
C603 C604 1.392 . S
C603 C608 1.356 . S
C604 C603 1.392 . S
C604 C605 1.368 . S
C604 H632 0.929 . S
C605 C604 1.368 . S
C605 C606 1.386 . S
C605 H633 0.929 . S
C606 C605 1.386 . S
C606 C607 1.373 . S
C607 C606 1.373 . S
C607 C608 1.409 . S
C607 H634 0.931 . S
C608 C603 1.356 . S
C608 C607 1.409 . S
C608 H635 0.930 . S
C609 O622 1.270 . S
C609 O623 1.248 . S
C610 O624 1.267 . S
C610 O625 1.278 . S
C611 Pr601 2.880 . S
C611 C612 1.491 . S
C611 O626 1.254 . S
C611 O627 1.225 . S
C612 C611 1.491 . S
C612 C613 1.392 . S
C612 C617 1.356 . S
C613 C612 1.392 . S
C613 C614 1.368 . S
C613 H636 0.929 . S
C614 C613 1.368 . S
C614 C615 1.386 . S
C614 H637 0.929 . S
C615 C614 1.386 . S
C615 C616 1.373 . S
C616 C615 1.373 . S
C616 C617 1.409 . S
C616 H638 0.931 . S
C617 C612 1.356 . S
C617 C616 1.409 . S
C617 H639 0.930 . S
C618 O628 1.270 . S
C618 O629 1.248 . S
C619 O630 1.267 . S
C619 O631 1.278 . S
O620 Pr600 2.562 . S
O620 C602 1.254 . S
O621 Pr600 2.490 . S
O621 C602 1.225 . S
O622 Pr600 2.695 . S
O622 Pr601 2.436 . S
O622 C609 1.270 . S
O623 Pr600 2.512 . S
O623 C609 1.248 . S
O624 Pr601 2.438 . S
O624 C610 1.267 . S
O625 Pr600 2.437 . S
O625 C610 1.278 . S
O626 Pr601 2.562 . S
O626 C611 1.254 . S
O627 Pr601 2.490 . S
O627 C611 1.225 . S
O628 Pr600 2.436 . S
O628 Pr601 2.695 . S
O628 C618 1.270 . S
O629 Pr601 2.512 . S
O629 C618 1.248 . S
O630 Pr600 2.438 . S
O630 C619 1.267 . S
O631 Pr601 2.437 . S
O631 C619 1.278 . S
H632 C604 0.929 . S
H633 C605 0.929 . S
H634 C607 0.931 . S
H635 C608 0.930 . S
H636 C613 0.929 . S
H637 C614 0.929 . S
H638 C616 0.931 . S
H639 C617 0.930 . S
C640 C641 1.391 . S
C640 C642 1.394 . S
C640 H656 0.931 . S
C641 C640 1.391 . S
C641 C645 1.376 . S
C642 C640 1.394 . S
C642 C643 1.369 . S
C642 C646 1.531 . S
C643 C642 1.369 . S
C643 C644 1.410 . S
C643 C651 1.503 . S
C644 C643 1.410 . S
C644 C645 1.392 . S
C644 C647 1.511 . S
C645 C641 1.376 . S
C645 C644 1.392 . S
C645 H657 0.929 . S
C646 C642 1.531 . S
C646 H658 0.960 . S
C646 H659 0.962 . S
C646 H660 0.960 . S
C647 C644 1.511 . S
C647 H661 0.961 . S
C647 H662 0.961 . S
C647 H663 0.961 . S
C648 C649 1.370 . S
C648 C650 1.363 . S
C648 H664 0.931 . S
C649 C648 1.370 . S
C649 C653 1.408 . S
C650 C648 1.363 . S
C650 C651 1.370 . S
C650 C654 1.524 . S
C651 C643 1.503 . S
C651 C650 1.370 . S
C651 C652 1.403 . S
C652 C651 1.403 . S
C652 C653 1.404 . S
C652 C655 1.539 . S
C653 C649 1.408 . S
C653 C652 1.404 . S
C653 H665 0.930 . S
C654 C650 1.524 . S
C654 H666 0.956 . S
C654 H667 0.961 . S
C654 H668 0.961 . S
C655 C652 1.539 . S
C655 H669 0.958 . S
C655 H670 0.961 . S
C655 H671 0.960 . S
H656 C640 0.931 . S
H657 C645 0.929 . S
H658 C646 0.960 . S
H659 C646 0.962 . S
H660 C646 0.960 . S
H661 C647 0.961 . S
H662 C647 0.961 . S
H663 C647 0.961 . S
H664 C648 0.931 . S
H665 C653 0.930 . S
H666 C654 0.956 . S
H667 C654 0.961 . S
H668 C654 0.961 . S
H669 C655 0.958 . S
H670 C655 0.961 . S
H671 C655 0.960 . S
C672 C673 1.391 . S
C672 C674 1.394 . S
C672 H688 0.931 . S
C673 C672 1.391 . S
C673 C677 1.376 . S
C674 C672 1.394 . S
C674 C675 1.369 . S
C674 C678 1.531 . S
C675 C674 1.369 . S
C675 C676 1.410 . S
C675 C683 1.503 . S
C676 C675 1.410 . S
C676 C677 1.392 . S
C676 C679 1.511 . S
C677 C673 1.376 . S
C677 C676 1.392 . S
C677 H689 0.929 . S
C678 C674 1.531 . S
C678 H690 0.960 . S
C678 H691 0.962 . S
C678 H692 0.960 . S
C679 C676 1.511 . S
C679 H693 0.961 . S
C679 H694 0.961 . S
C679 H695 0.961 . S
C680 C681 1.370 . S
C680 C682 1.363 . S
C680 H696 0.931 . S
C681 C680 1.370 . S
C681 C685 1.408 . S
C682 C680 1.363 . S
C682 C683 1.370 . S
C682 C686 1.524 . S
C683 C675 1.503 . S
C683 C682 1.370 . S
C683 C684 1.403 . S
C684 C683 1.403 . S
C684 C685 1.404 . S
C684 C687 1.539 . S
C685 C681 1.408 . S
C685 C684 1.404 . S
C685 H697 0.930 . S
C686 C682 1.524 . S
C686 H698 0.956 . S
C686 H699 0.961 . S
C686 H700 0.961 . S
C687 C684 1.539 . S
C687 H701 0.958 . S
C687 H702 0.961 . S
C687 H703 0.960 . S
H688 C672 0.931 . S
H689 C677 0.929 . S
H690 C678 0.960 . S
H691 C678 0.962 . S
H692 C678 0.960 . S
H693 C679 0.961 . S
H694 C679 0.961 . S
H695 C679 0.961 . S
H696 C680 0.931 . S
H697 C685 0.930 . S
H698 C686 0.956 . S
H699 C686 0.961 . S
H700 C686 0.961 . S
H701 C687 0.958 . S
H702 C687 0.961 . S
H703 C687 0.960 . S
C704 C705 1.391 . S
C704 C706 1.394 . S
C704 H720 0.931 . S
C705 C704 1.391 . S
C705 C709 1.376 . S
C706 C704 1.394 . S
C706 C707 1.369 . S
C706 C710 1.531 . S
C707 C706 1.369 . S
C707 C708 1.410 . S
C707 C715 1.503 . S
C708 C707 1.410 . S
C708 C709 1.392 . S
C708 C711 1.511 . S
C709 C705 1.376 . S
C709 C708 1.392 . S
C709 H721 0.929 . S
C710 C706 1.531 . S
C710 H722 0.960 . S
C710 H723 0.962 . S
C710 H724 0.960 . S
C711 C708 1.511 . S
C711 H725 0.961 . S
C711 H726 0.961 . S
C711 H727 0.961 . S
C712 C713 1.370 . S
C712 C714 1.363 . S
C712 H728 0.931 . S
C713 C712 1.370 . S
C713 C717 1.408 . S
C714 C712 1.363 . S
C714 C715 1.370 . S
C714 C718 1.524 . S
C715 C707 1.503 . S
C715 C714 1.370 . S
C715 C716 1.403 . S
C716 C715 1.403 . S
C716 C717 1.404 . S
C716 C719 1.539 . S
C717 C713 1.408 . S
C717 C716 1.404 . S
C717 H729 0.930 . S
C718 C714 1.524 . S
C718 H730 0.956 . S
C718 H731 0.961 . S
C718 H732 0.961 . S
C719 C716 1.539 . S
C719 H733 0.958 . S
C719 H734 0.961 . S
C719 H735 0.960 . S
H720 C704 0.931 . S
H721 C709 0.929 . S
H722 C710 0.960 . S
H723 C710 0.962 . S
H724 C710 0.960 . S
H725 C711 0.961 . S
H726 C711 0.961 . S
H727 C711 0.961 . S
H728 C712 0.931 . S
H729 C717 0.930 . S
H730 C718 0.956 . S
H731 C718 0.961 . S
H732 C718 0.961 . S
H733 C719 0.958 . S
H734 C719 0.961 . S
H735 C719 0.960 . S
C736 C737 1.391 . S
C736 C738 1.394 . S
C736 H752 0.931 . S
C737 C736 1.391 . S
C737 C741 1.376 . S
C738 C736 1.394 . S
C738 C739 1.369 . S
C738 C742 1.531 . S
C739 C738 1.369 . S
C739 C740 1.410 . S
C739 C747 1.503 . S
C740 C739 1.410 . S
C740 C741 1.392 . S
C740 C743 1.511 . S
C741 C737 1.376 . S
C741 C740 1.392 . S
C741 H753 0.929 . S
C742 C738 1.531 . S
C742 H754 0.960 . S
C742 H755 0.962 . S
C742 H756 0.960 . S
C743 C740 1.511 . S
C743 H757 0.961 . S
C743 H758 0.961 . S
C743 H759 0.961 . S
C744 C745 1.370 . S
C744 C746 1.363 . S
C744 H760 0.931 . S
C745 C744 1.370 . S
C745 C749 1.408 . S
C746 C744 1.363 . S
C746 C747 1.370 . S
C746 C750 1.524 . S
C747 C739 1.503 . S
C747 C746 1.370 . S
C747 C748 1.403 . S
C748 C747 1.403 . S
C748 C749 1.404 . S
C748 C751 1.539 . S
C749 C745 1.408 . S
C749 C748 1.404 . S
C749 H761 0.930 . S
C750 C746 1.524 . S
C750 H762 0.956 . S
C750 H763 0.961 . S
C750 H764 0.961 . S
C751 C748 1.539 . S
C751 H765 0.958 . S
C751 H766 0.961 . S
C751 H767 0.960 . S
H752 C736 0.931 . S
H753 C741 0.929 . S
H754 C742 0.960 . S
H755 C742 0.962 . S
H756 C742 0.960 . S
H757 C743 0.961 . S
H758 C743 0.961 . S
H759 C743 0.961 . S
H760 C744 0.931 . S
H761 C749 0.930 . S
H762 C750 0.956 . S
H763 C750 0.961 . S
H764 C750 0.961 . S
H765 C751 0.958 . S
H766 C751 0.961 . S
H767 C751 0.960 . S
C768 C769 1.391 . S
C768 C770 1.394 . S
C768 H784 0.931 . S
C769 C768 1.391 . S
C769 C773 1.376 . S
C770 C768 1.394 . S
C770 C771 1.369 . S
C770 C774 1.531 . S
C771 C770 1.369 . S
C771 C772 1.410 . S
C771 C779 1.503 . S
C772 C771 1.410 . S
C772 C773 1.392 . S
C772 C775 1.511 . S
C773 C769 1.376 . S
C773 C772 1.392 . S
C773 H785 0.929 . S
C774 C770 1.531 . S
C774 H786 0.960 . S
C774 H787 0.962 . S
C774 H788 0.960 . S
C775 C772 1.511 . S
C775 H789 0.961 . S
C775 H790 0.961 . S
C775 H791 0.961 . S
C776 C777 1.370 . S
C776 C778 1.363 . S
C776 H792 0.931 . S
C777 C776 1.370 . S
C777 C781 1.408 . S
C778 C776 1.363 . S
C778 C779 1.370 . S
C778 C782 1.524 . S
C779 C771 1.503 . S
C779 C778 1.370 . S
C779 C780 1.403 . S
C780 C779 1.403 . S
C780 C781 1.404 . S
C780 C783 1.539 . S
C781 C777 1.408 . S
C781 C780 1.404 . S
C781 H793 0.930 . S
C782 C778 1.524 . S
C782 H794 0.956 . S
C782 H795 0.961 . S
C782 H796 0.961 . S
C783 C780 1.539 . S
C783 H797 0.958 . S
C783 H798 0.961 . S
C783 H799 0.960 . S
H784 C768 0.931 . S
H785 C773 0.929 . S
H786 C774 0.960 . S
H787 C774 0.962 . S
H788 C774 0.960 . S
H789 C775 0.961 . S
H790 C775 0.961 . S
H791 C775 0.961 . S
H792 C776 0.931 . S
H793 C781 0.930 . S
H794 C782 0.956 . S
H795 C782 0.961 . S
H796 C782 0.961 . S
H797 C783 0.958 . S
H798 C783 0.961 . S
H799 C783 0.960 . S
C800 C801 1.391 . S
C800 C802 1.394 . S
C800 H816 0.931 . S
C801 C800 1.391 . S
C801 C805 1.376 . S
C802 C800 1.394 . S
C802 C803 1.369 . S
C802 C806 1.531 . S
C803 C802 1.369 . S
C803 C804 1.410 . S
C803 C811 1.503 . S
C804 C803 1.410 . S
C804 C805 1.392 . S
C804 C807 1.511 . S
C805 C801 1.376 . S
C805 C804 1.392 . S
C805 H817 0.929 . S
C806 C802 1.531 . S
C806 H818 0.960 . S
C806 H819 0.962 . S
C806 H820 0.960 . S
C807 C804 1.511 . S
C807 H821 0.961 . S
C807 H822 0.961 . S
C807 H823 0.961 . S
C808 C809 1.370 . S
C808 C810 1.363 . S
C808 H824 0.931 . S
C809 C808 1.370 . S
C809 C813 1.408 . S
C810 C808 1.363 . S
C810 C811 1.370 . S
C810 C814 1.524 . S
C811 C803 1.503 . S
C811 C810 1.370 . S
C811 C812 1.403 . S
C812 C811 1.403 . S
C812 C813 1.404 . S
C812 C815 1.539 . S
C813 C809 1.408 . S
C813 C812 1.404 . S
C813 H825 0.930 . S
C814 C810 1.524 . S
C814 H826 0.956 . S
C814 H827 0.961 . S
C814 H828 0.961 . S
C815 C812 1.539 . S
C815 H829 0.958 . S
C815 H830 0.961 . S
C815 H831 0.960 . S
H816 C800 0.931 . S
H817 C805 0.929 . S
H818 C806 0.960 . S
H819 C806 0.962 . S
H820 C806 0.960 . S
H821 C807 0.961 . S
H822 C807 0.961 . S
H823 C807 0.961 . S
H824 C808 0.931 . S
H825 C813 0.930 . S
H826 C814 0.956 . S
H827 C814 0.961 . S
H828 C814 0.961 . S
H829 C815 0.958 . S
H830 C815 0.961 . S
H831 C815 0.960 . S
C832 C833 1.391 . S
C832 C834 1.394 . S
C832 H848 0.931 . S
C833 C832 1.391 . S
C833 C837 1.376 . S
C834 C832 1.394 . S
C834 C835 1.369 . S
C834 C838 1.531 . S
C835 C834 1.369 . S
C835 C836 1.410 . S
C835 C843 1.503 . S
C836 C835 1.410 . S
C836 C837 1.392 . S
C836 C839 1.511 . S
C837 C833 1.376 . S
C837 C836 1.392 . S
C837 H849 0.929 . S
C838 C834 1.531 . S
C838 H850 0.960 . S
C838 H851 0.962 . S
C838 H852 0.960 . S
C839 C836 1.511 . S
C839 H853 0.961 . S
C839 H854 0.961 . S
C839 H855 0.961 . S
C840 C841 1.370 . S
C840 C842 1.363 . S
C840 H856 0.931 . S
C841 C840 1.370 . S
C841 C845 1.408 . S
C842 C840 1.363 . S
C842 C843 1.370 . S
C842 C846 1.524 . S
C843 C835 1.503 . S
C843 C842 1.370 . S
C843 C844 1.403 . S
C844 C843 1.403 . S
C844 C845 1.404 . S
C844 C847 1.539 . S
C845 C841 1.408 . S
C845 C844 1.404 . S
C845 H857 0.930 . S
C846 C842 1.524 . S
C846 H858 0.956 . S
C846 H859 0.961 . S
C846 H860 0.961 . S
C847 C844 1.539 . S
C847 H861 0.958 . S
C847 H862 0.961 . S
C847 H863 0.960 . S
H848 C832 0.931 . S
H849 C837 0.929 . S
H850 C838 0.960 . S
H851 C838 0.962 . S
H852 C838 0.960 . S
H853 C839 0.961 . S
H854 C839 0.961 . S
H855 C839 0.961 . S
H856 C840 0.931 . S
H857 C845 0.930 . S
H858 C846 0.956 . S
H859 C846 0.961 . S
H860 C846 0.961 . S
H861 C847 0.958 . S
H862 C847 0.961 . S
H863 C847 0.960 . S
C864 C865 1.391 . S
C864 C866 1.394 . S
C864 H880 0.931 . S
C865 C864 1.391 . S
C865 C869 1.376 . S
C866 C864 1.394 . S
C866 C867 1.369 . S
C866 C870 1.531 . S
C867 C866 1.369 . S
C867 C868 1.410 . S
C867 C875 1.503 . S
C868 C867 1.410 . S
C868 C869 1.392 . S
C868 C871 1.511 . S
C869 C865 1.376 . S
C869 C868 1.392 . S
C869 H881 0.929 . S
C870 C866 1.531 . S
C870 H882 0.960 . S
C870 H883 0.962 . S
C870 H884 0.960 . S
C871 C868 1.511 . S
C871 H885 0.961 . S
C871 H886 0.961 . S
C871 H887 0.961 . S
C872 C873 1.370 . S
C872 C874 1.363 . S
C872 H888 0.931 . S
C873 C872 1.370 . S
C873 C877 1.408 . S
C874 C872 1.363 . S
C874 C875 1.370 . S
C874 C878 1.524 . S
C875 C867 1.503 . S
C875 C874 1.370 . S
C875 C876 1.403 . S
C876 C875 1.403 . S
C876 C877 1.404 . S
C876 C879 1.539 . S
C877 C873 1.408 . S
C877 C876 1.404 . S
C877 H889 0.930 . S
C878 C874 1.524 . S
C878 H890 0.956 . S
C878 H891 0.961 . S
C878 H892 0.961 . S
C879 C876 1.539 . S
C879 H893 0.958 . S
C879 H894 0.961 . S
C879 H895 0.960 . S
H880 C864 0.931 . S
H881 C869 0.929 . S
H882 C870 0.960 . S
H883 C870 0.962 . S
H884 C870 0.960 . S
H885 C871 0.961 . S
H886 C871 0.961 . S
H887 C871 0.961 . S
H888 C872 0.931 . S
H889 C877 0.930 . S
H890 C878 0.956 . S
H891 C878 0.961 . S
H892 C878 0.961 . S
H893 C879 0.958 . S
H894 C879 0.961 . S
H895 C879 0.960 . S
C896 C897 1.391 . S
C896 C898 1.394 1_565 S
C896 H912 0.931 1_565 S
C897 C896 1.391 . S
C897 C901 1.376 . S
C898 C896 1.394 1_545 S
C898 C899 1.369 1_545 S
C898 C902 1.531 . S
C899 C898 1.369 1_565 S
C899 C900 1.410 . S
C899 C907 1.503 1_565 S
C900 C899 1.410 . S
C900 C901 1.392 . S
C900 C903 1.511 . S
C901 C897 1.376 . S
C901 C900 1.392 . S
C901 H913 0.929 . S
C902 C898 1.531 . S
C902 H914 0.960 . S
C902 H915 0.962 . S
C902 H916 0.960 . S
C903 C900 1.511 . S
C903 H917 0.961 . S
C903 H918 0.961 . S
C903 H919 0.961 . S
C904 C905 1.370 . S
C904 C906 1.363 . S
C904 H920 0.931 . S
C905 C904 1.370 . S
C905 C909 1.408 . S
C906 C904 1.363 . S
C906 C907 1.370 . S
C906 C910 1.524 1_545 S
C907 C899 1.503 1_545 S
C907 C906 1.370 . S
C907 C908 1.403 . S
C908 C907 1.403 . S
C908 C909 1.404 . S
C908 C911 1.539 . S
C909 C905 1.408 . S
C909 C908 1.404 . S
C909 H921 0.930 . S
C910 C906 1.524 1_565 S
C910 H922 0.956 . S
C910 H923 0.961 . S
C910 H924 0.961 . S
C911 C908 1.539 . S
C911 H925 0.958 . S
C911 H926 0.961 . S
C911 H927 0.960 . S
H912 C896 0.931 1_545 S
H913 C901 0.929 . S
H914 C902 0.960 . S
H915 C902 0.962 . S
H916 C902 0.960 . S
H917 C903 0.961 . S
H918 C903 0.961 . S
H919 C903 0.961 . S
H920 C904 0.931 . S
H921 C909 0.930 . S
H922 C910 0.956 . S
H923 C910 0.961 . S
H924 C910 0.961 . S
H925 C911 0.958 . S
H926 C911 0.961 . S
H927 C911 0.960 . S
C928 C929 1.391 . S
C928 C930 1.394 . S
C928 H944 0.931 . S
C929 C928 1.391 . S
C929 C933 1.376 . S
C930 C928 1.394 . S
C930 C931 1.369 . S
C930 C934 1.531 . S
C931 C930 1.369 . S
C931 C932 1.410 . S
C931 C939 1.503 1_545 S
C932 C931 1.410 . S
C932 C933 1.392 . S
C932 C935 1.511 . S
C933 C929 1.376 . S
C933 C932 1.392 . S
C933 H945 0.929 . S
C934 C930 1.531 . S
C934 H946 0.960 . S
C934 H947 0.962 1_545 S
C934 H948 0.960 . S
C935 C932 1.511 . S
C935 H949 0.961 . S
C935 H950 0.961 1_545 S
C935 H951 0.961 . S
C936 C937 1.370 . S
C936 C938 1.363 . S
C936 H952 0.931 . S
C937 C936 1.370 . S
C937 C941 1.408 . S
C938 C936 1.363 . S
C938 C939 1.370 . S
C938 C942 1.524 . S
C939 C931 1.503 1_565 S
C939 C938 1.370 . S
C939 C940 1.403 1_565 S
C940 C939 1.403 1_545 S
C940 C941 1.404 1_545 S
C940 C943 1.539 . S
C941 C937 1.408 . S
C941 C940 1.404 1_565 S
C941 H953 0.930 1_565 S
C942 C938 1.524 . S
C942 H954 0.956 . S
C942 H955 0.961 . S
C942 H956 0.961 . S
C943 C940 1.539 . S
C943 H957 0.958 . S
C943 H958 0.961 . S
C943 H959 0.960 . S
H944 C928 0.931 . S
H945 C933 0.929 . S
H946 C934 0.960 . S
H947 C934 0.962 1_565 S
H948 C934 0.960 . S
H949 C935 0.961 . S
H950 C935 0.961 1_565 S
H951 C935 0.961 . S
H952 C936 0.931 . S
H953 C941 0.930 1_545 S
H954 C942 0.956 . S
H955 C942 0.961 . S
H956 C942 0.961 . S
H957 C943 0.958 . S
H958 C943 0.961 . S
H959 C943 0.960 . S
C960 C961 1.391 . S
C960 C962 1.394 . S
C960 H976 0.931 . S
C961 C960 1.391 . S
C961 C965 1.376 . S
C962 C960 1.394 . S
C962 C963 1.369 . S
C962 C966 1.531 . S
C963 C962 1.369 . S
C963 C964 1.410 . S
C963 C971 1.503 1_545 S
C964 C963 1.410 . S
C964 C965 1.392 . S
C964 C967 1.511 1_545 S
C965 C961 1.376 . S
C965 C964 1.392 . S
C965 H977 0.929 . S
C966 C962 1.531 . S
C966 H978 0.960 . S
C966 H979 0.962 . S
C966 H980 0.960 . S
C967 C964 1.511 1_565 S
C967 H981 0.961 . S
C967 H982 0.961 . S
C967 H983 0.961 . S
C968 C969 1.370 . S
C968 C970 1.363 . S
C968 H984 0.931 . S
C969 C968 1.370 . S
C969 C973 1.408 . S
C970 C968 1.363 . S
C970 C971 1.370 . S
C970 C974 1.524 . S
C971 C963 1.503 1_565 S
C971 C970 1.370 . S
C971 C972 1.403 1_565 S
C972 C971 1.403 1_545 S
C972 C973 1.404 1_545 S
C972 C975 1.539 . S
C973 C969 1.408 . S
C973 C972 1.404 1_565 S
C973 H985 0.930 . S
C974 C970 1.524 . S
C974 H986 0.956 . S
C974 H987 0.961 . S
C974 H988 0.961 . S
C975 C972 1.539 . S
C975 H989 0.958 . S
C975 H990 0.961 . S
C975 H991 0.960 . S
H976 C960 0.931 . S
H977 C965 0.929 . S
H978 C966 0.960 . S
H979 C966 0.962 . S
H980 C966 0.960 . S
H981 C967 0.961 . S
H982 C967 0.961 . S
H983 C967 0.961 . S
H984 C968 0.931 . S
H985 C973 0.930 . S
H986 C974 0.956 . S
H987 C974 0.961 . S
H988 C974 0.961 . S
H989 C975 0.958 . S
H990 C975 0.961 . S
H991 C975 0.960 . S
C992 C993 1.391 . S
C992 C994 1.394 1_545 S
C992 H1008 0.931 . S
C993 C992 1.391 . S
C993 C997 1.376 . S
C994 C992 1.394 1_565 S
C994 C995 1.369 1_565 S
C994 C998 1.531 . S
C995 C994 1.369 1_545 S
C995 C996 1.410 . S
C995 C1003 1.503 1_545 S
C996 C995 1.410 . S
C996 C997 1.392 . S
C996 C999 1.511 . S
C997 C993 1.376 . S
C997 C996 1.392 . S
C997 H1009 0.929 . S
C998 C994 1.531 . S
C998 H1010 0.960 . S
C998 H1011 0.962 . S
C998 H1012 0.960 . S
C999 C996 1.511 . S
C999 H1013 0.961 . S
C999 H1014 0.961 . S
C999 H1015 0.961 . S
C1000 C1001 1.370 . S
C1000 C1002 1.363 . S
C1000 H1016 0.931 . S
C1001 C1000 1.370 . S
C1001 C1005 1.408 . S
C1002 C1000 1.363 . S
C1002 C1003 1.370 . S
C1002 C1006 1.524 . S
C1003 C995 1.503 1_565 S
C1003 C1002 1.370 . S
C1003 C1004 1.403 . S
C1004 C1003 1.403 . S
C1004 C1005 1.404 . S
C1004 C1007 1.539 1_565 S
C1005 C1001 1.408 . S
C1005 C1004 1.404 . S
C1005 H1017 0.930 . S
C1006 C1002 1.524 . S
C1006 H1018 0.956 . S
C1006 H1019 0.961 . S
C1006 H1020 0.961 . S
C1007 C1004 1.539 1_545 S
C1007 H1021 0.958 . S
C1007 H1022 0.961 . S
C1007 H1023 0.960 . S
H1008 C992 0.931 . S
H1009 C997 0.929 . S
H1010 C998 0.960 . S
H1011 C998 0.962 . S
H1012 C998 0.960 . S
H1013 C999 0.961 . S
H1014 C999 0.961 . S
H1015 C999 0.961 . S
H1016 C1000 0.931 . S
H1017 C1005 0.930 . S
H1018 C1006 0.956 . S
H1019 C1006 0.961 . S
H1020 C1006 0.961 . S
H1021 C1007 0.958 . S
H1022 C1007 0.961 . S
H1023 C1007 0.960 . S
C1024 C1025 1.391 . S
C1024 C1026 1.394 . S
C1024 H1040 0.931 . S
C1025 C1024 1.391 . S
C1025 C1029 1.376 . S
C1026 C1024 1.394 . S
C1026 C1027 1.369 . S
C1026 C1030 1.531 . S
C1027 C1026 1.369 . S
C1027 C1028 1.410 . S
C1027 C1035 1.503 . S
C1028 C1027 1.410 . S
C1028 C1029 1.392 . S
C1028 C1031 1.511 . S
C1029 C1025 1.376 . S
C1029 C1028 1.392 . S
C1029 H1041 0.929 . S
C1030 C1026 1.531 . S
C1030 H1042 0.960 . S
C1030 H1043 0.962 . S
C1030 H1044 0.960 . S
C1031 C1028 1.511 . S
C1031 H1045 0.961 . S
C1031 H1046 0.961 . S
C1031 H1047 0.961 . S
C1032 C1033 1.370 . S
C1032 C1034 1.363 . S
C1032 H1048 0.931 . S
C1033 C1032 1.370 . S
C1033 C1037 1.408 . S
C1034 C1032 1.363 . S
C1034 C1035 1.370 . S
C1034 C1038 1.524 . S
C1035 C1027 1.503 . S
C1035 C1034 1.370 . S
C1035 C1036 1.403 . S
C1036 C1035 1.403 . S
C1036 C1037 1.404 . S
C1036 C1039 1.539 . S
C1037 C1033 1.408 . S
C1037 C1036 1.404 . S
C1037 H1049 0.930 . S
C1038 C1034 1.524 . S
C1038 H1050 0.956 . S
C1038 H1051 0.961 . S
C1038 H1052 0.961 . S
C1039 C1036 1.539 . S
C1039 H1053 0.958 . S
C1039 H1054 0.961 . S
C1039 H1055 0.960 . S
H1040 C1024 0.931 . S
H1041 C1029 0.929 . S
H1042 C1030 0.960 . S
H1043 C1030 0.962 . S
H1044 C1030 0.960 . S
H1045 C1031 0.961 . S
H1046 C1031 0.961 . S
H1047 C1031 0.961 . S
H1048 C1032 0.931 . S
H1049 C1037 0.930 . S
H1050 C1038 0.956 . S
H1051 C1038 0.961 . S
H1052 C1038 0.961 . S
H1053 C1039 0.958 . S
H1054 C1039 0.961 . S
H1055 C1039 0.960 . S
C1056 C1057 1.391 . S
C1056 C1058 1.394 . S
C1056 H1072 0.931 . S
C1057 C1056 1.391 . S
C1057 C1061 1.376 . S
C1058 C1056 1.394 . S
C1058 C1059 1.369 . S
C1058 C1062 1.531 . S
C1059 C1058 1.369 . S
C1059 C1060 1.410 . S
C1059 C1067 1.503 . S
C1060 C1059 1.410 . S
C1060 C1061 1.392 . S
C1060 C1063 1.511 . S
C1061 C1057 1.376 . S
C1061 C1060 1.392 . S
C1061 H1073 0.929 . S
C1062 C1058 1.531 . S
C1062 H1074 0.960 . S
C1062 H1075 0.962 . S
C1062 H1076 0.960 . S
C1063 C1060 1.511 . S
C1063 H1077 0.961 . S
C1063 H1078 0.961 . S
C1063 H1079 0.961 . S
C1064 C1065 1.370 . S
C1064 C1066 1.363 . S
C1064 H1080 0.931 . S
C1065 C1064 1.370 . S
C1065 C1069 1.408 . S
C1066 C1064 1.363 . S
C1066 C1067 1.370 . S
C1066 C1070 1.524 . S
C1067 C1059 1.503 . S
C1067 C1066 1.370 . S
C1067 C1068 1.403 . S
C1068 C1067 1.403 . S
C1068 C1069 1.404 . S
C1068 C1071 1.539 . S
C1069 C1065 1.408 . S
C1069 C1068 1.404 . S
C1069 H1081 0.930 . S
C1070 C1066 1.524 . S
C1070 H1082 0.956 . S
C1070 H1083 0.961 . S
C1070 H1084 0.961 . S
C1071 C1068 1.539 . S
C1071 H1085 0.958 . S
C1071 H1086 0.961 . S
C1071 H1087 0.960 . S
H1072 C1056 0.931 . S
H1073 C1061 0.929 . S
H1074 C1062 0.960 . S
H1075 C1062 0.962 . S
H1076 C1062 0.960 . S
H1077 C1063 0.961 . S
H1078 C1063 0.961 . S
H1079 C1063 0.961 . S
H1080 C1064 0.931 . S
H1081 C1069 0.930 . S
H1082 C1070 0.956 . S
H1083 C1070 0.961 . S
H1084 C1070 0.961 . S
H1085 C1071 0.958 . S
H1086 C1071 0.961 . S
H1087 C1071 0.960 . S
C1088 C1089 1.391 . S
C1088 C1090 1.394 . S
C1088 H1104 0.931 . S
C1089 C1088 1.391 . S
C1089 C1093 1.376 . S
C1090 C1088 1.394 . S
C1090 C1091 1.369 . S
C1090 C1094 1.531 . S
C1091 C1090 1.369 . S
C1091 C1092 1.410 . S
C1091 C1099 1.503 . S
C1092 C1091 1.410 . S
C1092 C1093 1.392 . S
C1092 C1095 1.511 . S
C1093 C1089 1.376 . S
C1093 C1092 1.392 . S
C1093 H1105 0.929 . S
C1094 C1090 1.531 . S
C1094 H1106 0.960 . S
C1094 H1107 0.962 . S
C1094 H1108 0.960 . S
C1095 C1092 1.511 . S
C1095 H1109 0.961 . S
C1095 H1110 0.961 . S
C1095 H1111 0.961 . S
C1096 C1097 1.370 . S
C1096 C1098 1.363 . S
C1096 H1112 0.931 . S
C1097 C1096 1.370 . S
C1097 C1101 1.408 . S
C1098 C1096 1.363 . S
C1098 C1099 1.370 . S
C1098 C1102 1.524 . S
C1099 C1091 1.503 . S
C1099 C1098 1.370 . S
C1099 C1100 1.403 . S
C1100 C1099 1.403 . S
C1100 C1101 1.404 . S
C1100 C1103 1.539 . S
C1101 C1097 1.408 . S
C1101 C1100 1.404 . S
C1101 H1113 0.930 . S
C1102 C1098 1.524 . S
C1102 H1114 0.956 . S
C1102 H1115 0.961 . S
C1102 H1116 0.961 . S
C1103 C1100 1.539 . S
C1103 H1117 0.958 . S
C1103 H1118 0.961 . S
C1103 H1119 0.960 . S
H1104 C1088 0.931 . S
H1105 C1093 0.929 . S
H1106 C1094 0.960 . S
H1107 C1094 0.962 . S
H1108 C1094 0.960 . S
H1109 C1095 0.961 . S
H1110 C1095 0.961 . S
H1111 C1095 0.961 . S
H1112 C1096 0.931 . S
H1113 C1101 0.930 . S
H1114 C1102 0.956 . S
H1115 C1102 0.961 . S
H1116 C1102 0.961 . S
H1117 C1103 0.958 . S
H1118 C1103 0.961 . S
H1119 C1103 0.960 . S
C1120 C1121 1.391 . S
C1120 C1122 1.394 . S
C1120 H1136 0.931 . S
C1121 C1120 1.391 . S
C1121 C1125 1.376 . S
C1122 C1120 1.394 . S
C1122 C1123 1.369 . S
C1122 C1126 1.531 . S
C1123 C1122 1.369 . S
C1123 C1124 1.410 . S
C1123 C1131 1.503 . S
C1124 C1123 1.410 . S
C1124 C1125 1.392 . S
C1124 C1127 1.511 . S
C1125 C1121 1.376 . S
C1125 C1124 1.392 . S
C1125 H1137 0.929 . S
C1126 C1122 1.531 . S
C1126 H1138 0.960 . S
C1126 H1139 0.962 . S
C1126 H1140 0.960 . S
C1127 C1124 1.511 . S
C1127 H1141 0.961 . S
C1127 H1142 0.961 . S
C1127 H1143 0.961 . S
C1128 C1129 1.370 . S
C1128 C1130 1.363 . S
C1128 H1144 0.931 . S
C1129 C1128 1.370 . S
C1129 C1133 1.408 . S
C1130 C1128 1.363 . S
C1130 C1131 1.370 . S
C1130 C1134 1.524 . S
C1131 C1123 1.503 . S
C1131 C1130 1.370 . S
C1131 C1132 1.403 . S
C1132 C1131 1.403 . S
C1132 C1133 1.404 . S
C1132 C1135 1.539 . S
C1133 C1129 1.408 . S
C1133 C1132 1.404 . S
C1133 H1145 0.930 . S
C1134 C1130 1.524 . S
C1134 H1146 0.956 . S
C1134 H1147 0.961 . S
C1134 H1148 0.961 . S
C1135 C1132 1.539 . S
C1135 H1149 0.958 . S
C1135 H1150 0.961 . S
C1135 H1151 0.960 . S
H1136 C1120 0.931 . S
H1137 C1125 0.929 . S
H1138 C1126 0.960 . S
H1139 C1126 0.962 . S
H1140 C1126 0.960 . S
H1141 C1127 0.961 . S
H1142 C1127 0.961 . S
H1143 C1127 0.961 . S
H1144 C1128 0.931 . S
H1145 C1133 0.930 . S
H1146 C1134 0.956 . S
H1147 C1134 0.961 . S
H1148 C1134 0.961 . S
H1149 C1135 0.958 . S
H1150 C1135 0.961 . S
H1151 C1135 0.960 . S
C1152 C1153 1.391 . S
C1152 C1154 1.394 . S
C1152 H1168 0.931 . S
C1153 C1152 1.391 . S
C1153 C1157 1.376 . S
C1154 C1152 1.394 . S
C1154 C1155 1.369 . S
C1154 C1158 1.531 . S
C1155 C1154 1.369 . S
C1155 C1156 1.410 . S
C1155 C1163 1.503 1_556 S
C1156 C1155 1.410 . S
C1156 C1157 1.392 . S
C1156 C1159 1.511 . S
C1157 C1153 1.376 . S
C1157 C1156 1.392 . S
C1157 H1169 0.929 . S
C1158 C1154 1.531 . S
C1158 H1170 0.960 1_556 S
C1158 H1171 0.962 . S
C1158 H1172 0.960 . S
C1159 C1156 1.511 . S
C1159 H1173 0.961 . S
C1159 H1174 0.961 1_556 S
C1159 H1175 0.961 . S
C1160 C1161 1.370 . S
C1160 C1162 1.363 . S
C1160 H1176 0.931 . S
C1161 C1160 1.370 . S
C1161 C1165 1.408 . S
C1162 C1160 1.363 . S
C1162 C1163 1.370 . S
C1162 C1166 1.524 . S
C1163 C1155 1.503 1_554 S
C1163 C1162 1.370 . S
C1163 C1164 1.403 . S
C1164 C1163 1.403 . S
C1164 C1165 1.404 . S
C1164 C1167 1.539 . S
C1165 C1161 1.408 . S
C1165 C1164 1.404 . S
C1165 H1177 0.930 . S
C1166 C1162 1.524 . S
C1166 H1178 0.956 . S
C1166 H1179 0.961 1_554 S
C1166 H1180 0.961 . S
C1167 C1164 1.539 . S
C1167 H1181 0.958 1_545 S
C1167 H1182 0.961 1_545 S
C1167 H1183 0.970 . S
H1168 C1152 0.931 . S
H1169 C1157 0.929 . S
H1170 C1158 0.960 1_554 S
H1171 C1158 0.962 . S
H1172 C1158 0.960 . S
H1173 C1159 0.961 . S
H1174 C1159 0.961 1_554 S
H1175 C1159 0.961 . S
H1176 C1160 0.931 . S
H1177 C1165 0.930 . S
H1178 C1166 0.956 . S
H1179 C1166 0.961 1_556 S
H1180 C1166 0.961 . S
H1181 C1167 0.958 1_565 S
H1182 C1167 0.961 1_565 S
H1183 C1167 0.970 . S
C1184 C1185 1.391 . S
C1184 C1186 1.394 . S
C1184 H1200 0.931 . S
C1185 C1184 1.391 . S
C1185 C1189 1.376 . S
C1186 C1184 1.394 . S
C1186 C1187 1.369 . S
C1186 C1190 1.531 . S
C1187 C1186 1.369 . S
C1187 C1188 1.410 . S
C1187 C1195 1.503 1_556 S
C1188 C1187 1.410 . S
C1188 C1189 1.392 . S
C1188 C1191 1.511 . S
C1189 C1185 1.376 . S
C1189 C1188 1.392 . S
C1189 H1201 0.929 . S
C1190 C1186 1.531 . S
C1190 H1202 0.960 1_556 S
C1190 H1203 0.962 . S
C1190 H1204 0.960 . S
C1191 C1188 1.511 . S
C1191 H1205 0.961 . S
C1191 H1206 0.961 1_556 S
C1191 H1207 0.961 . S
C1192 C1193 1.370 . S
C1192 C1194 1.363 . S
C1192 H1208 0.931 . S
C1193 C1192 1.370 . S
C1193 C1197 1.408 . S
C1194 C1192 1.363 . S
C1194 C1195 1.370 . S
C1194 C1198 1.524 . S
C1195 C1187 1.503 1_554 S
C1195 C1194 1.370 . S
C1195 C1196 1.403 . S
C1196 C1195 1.403 . S
C1196 C1197 1.404 . S
C1196 C1199 1.539 . S
C1197 C1193 1.408 . S
C1197 C1196 1.404 . S
C1197 H1209 0.930 . S
C1198 C1194 1.524 . S
C1198 H1210 0.956 . S
C1198 H1211 0.961 1_554 S
C1198 H1212 0.961 . S
C1199 C1196 1.539 . S
C1199 H1213 0.958 . S
C1199 H1214 0.961 . S
C1199 H1215 0.970 . S
H1200 C1184 0.931 . S
H1201 C1189 0.929 . S
H1202 C1190 0.960 1_554 S
H1203 C1190 0.962 . S
H1204 C1190 0.960 . S
H1205 C1191 0.961 . S
H1206 C1191 0.961 1_554 S
H1207 C1191 0.961 . S
H1208 C1192 0.931 . S
H1209 C1197 0.930 . S
H1210 C1198 0.956 . S
H1211 C1198 0.961 1_556 S
H1212 C1198 0.961 . S
H1213 C1199 0.958 . S
H1214 C1199 0.961 . S
H1215 C1199 0.970 . S
C1216 C1217 1.391 . S
C1216 C1218 1.394 . S
C1216 H1232 0.931 . S
C1217 C1216 1.391 . S
C1217 C1221 1.376 . S
C1218 C1216 1.394 . S
C1218 C1219 1.369 . S
C1218 C1222 1.531 . S
C1219 C1218 1.369 . S
C1219 C1220 1.410 . S
C1219 C1227 1.503 . S
C1220 C1219 1.410 . S
C1220 C1221 1.392 . S
C1220 C1223 1.511 . S
C1221 C1217 1.376 . S
C1221 C1220 1.392 . S
C1221 H1233 0.929 . S
C1222 C1218 1.531 . S
C1222 H1234 0.960 . S
C1222 H1235 0.962 . S
C1222 H1236 0.960 . S
C1223 C1220 1.511 . S
C1223 H1237 0.961 . S
C1223 H1238 0.961 . S
C1223 H1239 0.961 . S
C1224 C1225 1.370 . S
C1224 C1226 1.363 . S
C1224 H1240 0.931 . S
C1225 C1224 1.370 . S
C1225 C1229 1.408 . S
C1226 C1224 1.363 . S
C1226 C1227 1.370 . S
C1226 C1230 1.524 . S
C1227 C1219 1.503 . S
C1227 C1226 1.370 . S
C1227 C1228 1.403 . S
C1228 C1227 1.403 . S
C1228 C1229 1.404 . S
C1228 C1231 1.539 . S
C1229 C1225 1.408 . S
C1229 C1228 1.404 . S
C1229 H1241 0.930 . S
C1230 C1226 1.524 . S
C1230 H1242 0.956 . S
C1230 H1243 0.961 . S
C1230 H1244 0.961 . S
C1231 C1228 1.539 . S
C1231 H1245 0.958 . S
C1231 H1246 0.961 . S
C1231 H1247 0.960 . S
H1232 C1216 0.931 . S
H1233 C1221 0.929 . S
H1234 C1222 0.960 . S
H1235 C1222 0.962 . S
H1236 C1222 0.960 . S
H1237 C1223 0.961 . S
H1238 C1223 0.961 . S
H1239 C1223 0.961 . S
H1240 C1224 0.931 . S
H1241 C1229 0.930 . S
H1242 C1230 0.956 . S
H1243 C1230 0.961 . S
H1244 C1230 0.961 . S
H1245 C1231 0.958 . S
H1246 C1231 0.961 . S
H1247 C1231 0.960 . S
C1248 C1249 1.391 . S
C1248 C1250 1.394 . S
C1248 H1264 0.931 . S
C1249 C1248 1.391 . S
C1249 C1253 1.376 . S
C1250 C1248 1.394 . S
C1250 C1251 1.369 . S
C1250 C1254 1.531 . S
C1251 C1250 1.369 . S
C1251 C1252 1.410 . S
C1251 C1259 1.503 . S
C1252 C1251 1.410 . S
C1252 C1253 1.392 . S
C1252 C1255 1.511 . S
C1253 C1249 1.376 . S
C1253 C1252 1.392 . S
C1253 H1265 0.929 . S
C1254 C1250 1.531 . S
C1254 H1266 0.960 . S
C1254 H1267 0.962 . S
C1254 H1268 0.960 . S
C1255 C1252 1.511 . S
C1255 H1269 0.961 . S
C1255 H1270 0.961 . S
C1255 H1271 0.961 . S
C1256 C1257 1.370 . S
C1256 C1258 1.363 . S
C1256 H1272 0.931 . S
C1257 C1256 1.370 . S
C1257 C1261 1.408 . S
C1258 C1256 1.363 . S
C1258 C1259 1.370 . S
C1258 C1262 1.524 . S
C1259 C1251 1.503 . S
C1259 C1258 1.370 . S
C1259 C1260 1.403 . S
C1260 C1259 1.403 . S
C1260 C1261 1.404 . S
C1260 C1263 1.539 . S
C1261 C1257 1.408 . S
C1261 C1260 1.404 . S
C1261 H1273 0.930 . S
C1262 C1258 1.524 . S
C1262 H1274 0.956 . S
C1262 H1275 0.961 . S
C1262 H1276 0.961 . S
C1263 C1260 1.539 . S
C1263 H1277 0.958 . S
C1263 H1278 0.961 . S
C1263 H1279 0.960 . S
H1264 C1248 0.931 . S
H1265 C1253 0.929 . S
H1266 C1254 0.960 . S
H1267 C1254 0.962 . S
H1268 C1254 0.960 . S
H1269 C1255 0.961 . S
H1270 C1255 0.961 . S
H1271 C1255 0.961 . S
H1272 C1256 0.931 . S
H1273 C1261 0.930 . S
H1274 C1262 0.956 . S
H1275 C1262 0.961 . S
H1276 C1262 0.961 . S
H1277 C1263 0.958 . S
H1278 C1263 0.961 . S
H1279 C1263 0.960 . S
C1280 C1281 1.391 . S
C1280 C1282 1.394 . S
C1280 H1296 0.931 . S
C1281 C1280 1.391 . S
C1281 C1285 1.376 . S
C1282 C1280 1.394 . S
C1282 C1283 1.369 . S
C1282 C1286 1.531 . S
C1283 C1282 1.369 . S
C1283 C1284 1.410 . S
C1283 C1291 1.503 1_554 S
C1284 C1283 1.410 . S
C1284 C1285 1.392 . S
C1284 C1287 1.511 . S
C1285 C1281 1.376 . S
C1285 C1284 1.392 . S
C1285 H1297 0.929 . S
C1286 C1282 1.531 . S
C1286 H1298 0.960 1_554 S
C1286 H1299 0.962 . S
C1286 H1300 0.960 . S
C1287 C1284 1.511 . S
C1287 H1301 0.961 . S
C1287 H1302 0.961 1_554 S
C1287 H1303 0.961 . S
C1288 C1289 1.370 . S
C1288 C1290 1.363 . S
C1288 H1304 0.931 . S
C1289 C1288 1.370 . S
C1289 C1293 1.408 . S
C1290 C1288 1.363 . S
C1290 C1291 1.370 . S
C1290 C1294 1.524 . S
C1291 C1283 1.503 1_556 S
C1291 C1290 1.370 . S
C1291 C1292 1.403 . S
C1292 C1291 1.403 . S
C1292 C1293 1.404 . S
C1292 C1295 1.539 . S
C1293 C1289 1.408 . S
C1293 C1292 1.404 . S
C1293 H1305 0.930 . S
C1294 C1290 1.524 . S
C1294 H1306 0.956 . S
C1294 H1307 0.961 1_556 S
C1294 H1308 0.961 . S
C1295 C1292 1.539 . S
C1295 H1309 0.958 . S
C1295 H1310 0.961 . S
C1295 H1311 0.970 . S
H1296 C1280 0.931 . S
H1297 C1285 0.929 . S
H1298 C1286 0.960 1_556 S
H1299 C1286 0.962 . S
H1300 C1286 0.960 . S
H1301 C1287 0.961 . S
H1302 C1287 0.961 1_556 S
H1303 C1287 0.961 . S
H1304 C1288 0.931 . S
H1305 C1293 0.930 . S
H1306 C1294 0.956 . S
H1307 C1294 0.961 1_554 S
H1308 C1294 0.961 . S
H1309 C1295 0.958 . S
H1310 C1295 0.961 . S
H1311 C1295 0.970 . S
C1312 C1313 1.391 . S
C1312 C1314 1.394 . S
C1312 H1328 0.931 . S
C1313 C1312 1.391 . S
C1313 C1317 1.376 . S
C1314 C1312 1.394 . S
C1314 C1315 1.369 . S
C1314 C1318 1.531 . S
C1315 C1314 1.369 . S
C1315 C1316 1.410 . S
C1315 C1323 1.503 1_556 S
C1316 C1315 1.410 . S
C1316 C1317 1.392 . S
C1316 C1319 1.511 . S
C1317 C1313 1.376 . S
C1317 C1316 1.392 . S
C1317 H1329 0.929 . S
C1318 C1314 1.531 . S
C1318 H1330 0.960 1_556 S
C1318 H1331 0.962 . S
C1318 H1332 0.960 . S
C1319 C1316 1.511 . S
C1319 H1333 0.961 . S
C1319 H1334 0.961 1_556 S
C1319 H1335 0.961 . S
C1320 C1321 1.370 . S
C1320 C1322 1.363 . S
C1320 H1336 0.931 . S
C1321 C1320 1.370 . S
C1321 C1325 1.408 . S
C1322 C1320 1.363 . S
C1322 C1323 1.370 . S
C1322 C1326 1.524 . S
C1323 C1315 1.503 1_554 S
C1323 C1322 1.370 . S
C1323 C1324 1.403 . S
C1324 C1323 1.403 . S
C1324 C1325 1.404 . S
C1324 C1327 1.539 . S
C1325 C1321 1.408 . S
C1325 C1324 1.404 . S
C1325 H1337 0.930 . S
C1326 C1322 1.524 . S
C1326 H1338 0.956 . S
C1326 H1339 0.961 1_554 S
C1326 H1340 0.961 . S
C1327 C1324 1.539 . S
C1327 H1341 0.958 . S
C1327 H1342 0.961 . S
C1327 H1343 0.970 . S
H1328 C1312 0.931 . S
H1329 C1317 0.929 . S
H1330 C1318 0.960 1_554 S
H1331 C1318 0.962 . S
H1332 C1318 0.960 . S
H1333 C1319 0.961 . S
H1334 C1319 0.961 1_554 S
H1335 C1319 0.961 . S
H1336 C1320 0.931 . S
H1337 C1325 0.930 . S
H1338 C1326 0.956 . S
H1339 C1326 0.961 1_556 S
H1340 C1326 0.961 . S
H1341 C1327 0.958 . S
H1342 C1327 0.961 . S
H1343 C1327 0.970 . S
C1344 C1345 1.391 . S
C1344 C1346 1.394 . S
C1344 H1360 0.931 . S
C1345 C1344 1.391 . S
C1345 C1349 1.376 . S
C1346 C1344 1.394 . S
C1346 C1347 1.369 . S
C1346 C1350 1.531 . S
C1347 C1346 1.369 . S
C1347 C1348 1.410 . S
C1347 C1355 1.503 . S
C1348 C1347 1.410 . S
C1348 C1349 1.392 . S
C1348 C1351 1.511 . S
C1349 C1345 1.376 . S
C1349 C1348 1.392 . S
C1349 H1361 0.929 . S
C1350 C1346 1.531 . S
C1350 H1362 0.960 . S
C1350 H1363 0.962 . S
C1350 H1364 0.960 . S
C1351 C1348 1.511 . S
C1351 H1365 0.961 . S
C1351 H1366 0.961 . S
C1351 H1367 0.961 . S
C1352 C1353 1.370 . S
C1352 C1354 1.363 . S
C1352 H1368 0.931 . S
C1353 C1352 1.370 . S
C1353 C1357 1.408 . S
C1354 C1352 1.363 . S
C1354 C1355 1.370 . S
C1354 C1358 1.524 . S
C1355 C1347 1.503 . S
C1355 C1354 1.370 . S
C1355 C1356 1.403 . S
C1356 C1355 1.403 . S
C1356 C1357 1.404 . S
C1356 C1359 1.539 . S
C1357 C1353 1.408 . S
C1357 C1356 1.404 . S
C1357 H1369 0.930 . S
C1358 C1354 1.524 . S
C1358 H1370 0.956 . S
C1358 H1371 0.961 . S
C1358 H1372 0.961 . S
C1359 C1356 1.539 . S
C1359 H1373 0.958 . S
C1359 H1374 0.961 . S
C1359 H1375 0.960 . S
H1360 C1344 0.931 . S
H1361 C1349 0.929 . S
H1362 C1350 0.960 . S
H1363 C1350 0.962 . S
H1364 C1350 0.960 . S
H1365 C1351 0.961 . S
H1366 C1351 0.961 . S
H1367 C1351 0.961 . S
H1368 C1352 0.931 . S
H1369 C1357 0.930 . S
H1370 C1358 0.956 . S
H1371 C1358 0.961 . S
H1372 C1358 0.961 . S
H1373 C1359 0.958 . S
H1374 C1359 0.961 . S
H1375 C1359 0.960 . S
C1376 C1377 1.391 . S
C1376 C1378 1.394 . S
C1376 H1392 0.931 . S
C1377 C1376 1.391 . S
C1377 C1381 1.376 . S
C1378 C1376 1.394 . S
C1378 C1379 1.369 . S
C1378 C1382 1.531 . S
C1379 C1378 1.369 . S
C1379 C1380 1.410 . S
C1379 C1387 1.503 . S
C1380 C1379 1.410 . S
C1380 C1381 1.392 . S
C1380 C1383 1.511 . S
C1381 C1377 1.376 . S
C1381 C1380 1.392 . S
C1381 H1393 0.929 . S
C1382 C1378 1.531 . S
C1382 H1394 0.960 . S
C1382 H1395 0.962 . S
C1382 H1396 0.960 . S
C1383 C1380 1.511 . S
C1383 H1397 0.961 . S
C1383 H1398 0.961 . S
C1383 H1399 0.961 . S
C1384 C1385 1.370 . S
C1384 C1386 1.363 . S
C1384 H1400 0.931 . S
C1385 C1384 1.370 . S
C1385 C1389 1.408 . S
C1386 C1384 1.363 . S
C1386 C1387 1.370 . S
C1386 C1390 1.524 . S
C1387 C1379 1.503 . S
C1387 C1386 1.370 . S
C1387 C1388 1.403 . S
C1388 C1387 1.403 . S
C1388 C1389 1.404 . S
C1388 C1391 1.539 . S
C1389 C1385 1.408 . S
C1389 C1388 1.404 . S
C1389 H1401 0.930 . S
C1390 C1386 1.524 . S
C1390 H1402 0.956 . S
C1390 H1403 0.961 . S
C1390 H1404 0.961 . S
C1391 C1388 1.539 . S
C1391 H1405 0.958 . S
C1391 H1406 0.961 . S
C1391 H1407 0.960 . S
H1392 C1376 0.931 . S
H1393 C1381 0.929 . S
H1394 C1382 0.960 . S
H1395 C1382 0.962 . S
H1396 C1382 0.960 . S
H1397 C1383 0.961 . S
H1398 C1383 0.961 . S
H1399 C1383 0.961 . S
H1400 C1384 0.931 . S
H1401 C1389 0.930 . S
H1402 C1390 0.956 . S
H1403 C1390 0.961 . S
H1404 C1390 0.961 . S
H1405 C1391 0.958 . S
H1406 C1391 0.961 . S
H1407 C1391 0.960 . S
C1408 C1409 1.391 1_545 S
C1408 C1410 1.394 . S
C1408 H1424 0.931 . S
C1409 C1408 1.391 1_565 S
C1409 C1413 1.376 . S
C1410 C1408 1.394 . S
C1410 C1411 1.369 1_545 S
C1410 C1414 1.531 . S
C1411 C1410 1.369 1_565 S
C1411 C1412 1.410 . S
C1411 C1419 1.503 1_655 S
C1412 C1411 1.410 . S
C1412 C1413 1.392 . S
C1412 C1415 1.511 . S
C1413 C1409 1.376 . S
C1413 C1412 1.392 . S
C1413 H1425 0.929 . S
C1414 C1410 1.531 . S
C1414 H1426 0.981 . S
C1414 H1427 0.962 . S
C1414 H1428 0.960 . S
C1415 C1412 1.511 . S
C1415 H1429 0.961 . S
C1415 H1430 0.961 1_655 S
C1415 H1431 0.961 . S
C1416 C1417 1.370 . S
C1416 C1418 1.363 . S
C1416 H1432 0.931 . S
C1417 C1416 1.370 . S
C1417 C1421 1.408 1_545 S
C1418 C1416 1.363 . S
C1418 C1419 1.370 1_545 S
C1418 C1422 1.524 . S
C1419 C1411 1.503 1_455 S
C1419 C1418 1.370 1_565 S
C1419 C1420 1.403 . S
C1420 C1419 1.403 . S
C1420 C1421 1.404 . S
C1420 C1423 1.539 . S
C1421 C1417 1.408 1_565 S
C1421 C1420 1.404 . S
C1421 H1433 0.930 . S
C1422 C1418 1.524 . S
C1422 H1434 0.956 1_455 S
C1422 H1435 0.961 1_455 S
C1422 H1436 0.961 . S
C1423 C1420 1.539 . S
C1423 H1437 0.958 . S
C1423 H1438 0.961 . S
C1423 H1439 0.960 . S
H1424 C1408 0.931 . S
H1425 C1413 0.929 . S
H1426 C1414 0.981 . S
H1427 C1414 0.962 . S
H1428 C1414 0.960 . S
H1429 C1415 0.961 . S
H1430 C1415 0.961 1_455 S
H1431 C1415 0.961 . S
H1432 C1416 0.931 . S
H1433 C1421 0.930 . S
H1434 C1422 0.956 1_655 S
H1435 C1422 0.961 1_655 S
H1436 C1422 0.961 . S
H1437 C1423 0.958 . S
H1438 C1423 0.961 . S
H1439 C1423 0.960 . S
C1440 C1441 1.391 1_565 S
C1440 C1442 1.394 . S
C1440 H1456 0.931 . S
C1441 C1440 1.391 1_545 S
C1441 C1445 1.376 . S
C1442 C1440 1.394 . S
C1442 C1443 1.369 . S
C1442 C1446 1.531 . S
C1443 C1442 1.369 . S
C1443 C1444 1.410 1_565 S
C1443 C1451 1.503 1_655 S
C1444 C1443 1.410 1_545 S
C1444 C1445 1.392 . S
C1444 C1447 1.511 . S
C1445 C1441 1.376 . S
C1445 C1444 1.392 . S
C1445 H1457 0.929 . S
C1446 C1442 1.531 . S
C1446 H1458 0.960 . S
C1446 H1459 0.962 . S
C1446 H1460 0.960 . S
C1447 C1444 1.511 . S
C1447 H1461 0.961 . S
C1447 H1462 0.961 1_655 S
C1447 H1463 0.961 . S
C1448 C1449 1.370 1_545 S
C1448 C1450 1.363 . S
C1448 H1464 0.931 . S
C1449 C1448 1.370 1_565 S
C1449 C1453 1.408 . S
C1450 C1448 1.363 . S
C1450 C1451 1.370 1_545 S
C1450 C1454 1.524 . S
C1451 C1443 1.503 1_455 S
C1451 C1450 1.370 1_565 S
C1451 C1452 1.403 . S
C1452 C1451 1.403 . S
C1452 C1453 1.404 . S
C1452 C1455 1.539 . S
C1453 C1449 1.408 . S
C1453 C1452 1.404 . S
C1453 H1465 0.930 . S
C1454 C1450 1.524 . S
C1454 H1466 0.956 . S
C1454 H1467 0.961 . S
C1454 H1468 0.961 . S
C1455 C1452 1.539 . S
C1455 H1469 0.958 . S
C1455 H1470 0.961 . S
C1455 H1471 0.960 1_455 S
H1456 C1440 0.931 . S
H1457 C1445 0.929 . S
H1458 C1446 0.960 . S
H1459 C1446 0.962 . S
H1460 C1446 0.960 . S
H1461 C1447 0.961 . S
H1462 C1447 0.961 1_455 S
H1463 C1447 0.961 . S
H1464 C1448 0.931 . S
H1465 C1453 0.930 . S
H1466 C1454 0.956 . S
H1467 C1454 0.961 . S
H1468 C1454 0.961 . S
H1469 C1455 0.958 . S
H1470 C1455 0.961 . S
H1471 C1455 0.960 1_655 S
C1472 C1473 1.391 . S
C1472 C1474 1.395 . S
C1472 H1488 0.931 . S
C1473 C1472 1.391 . S
C1473 C1477 1.376 . S
C1474 C1472 1.395 . S
C1474 C1475 1.368 1_545 S
C1474 C1478 1.530 1_545 S
C1475 C1474 1.368 1_565 S
C1475 C1476 1.410 . S
C1475 C1483 1.503 1_455 S
C1476 C1475 1.410 . S
C1476 C1477 1.392 1_565 S
C1476 C1479 1.511 . S
C1477 C1473 1.376 . S
C1477 C1476 1.392 1_545 S
C1477 H1489 0.929 . S
C1478 C1474 1.530 1_565 S
C1478 H1490 0.959 1_455 S
C1478 H1491 0.962 1_565 S
C1478 H1492 0.960 . S
C1479 C1476 1.511 . S
C1479 H1493 0.961 1_565 S
C1479 H1494 0.961 1_455 S
C1479 H1495 0.961 . S
C1480 C1481 1.370 1_545 S
C1480 C1482 1.363 . S
C1480 H1496 0.931 . S
C1481 C1480 1.370 1_565 S
C1481 C1485 1.408 . S
C1482 C1480 1.363 . S
C1482 C1483 1.370 1_545 S
C1482 C1486 1.524 . S
C1483 C1475 1.503 1_655 S
C1483 C1482 1.370 1_565 S
C1483 C1484 1.403 . S
C1484 C1483 1.403 . S
C1484 C1485 1.404 . S
C1484 C1487 1.539 . S
C1485 C1481 1.408 . S
C1485 C1484 1.404 . S
C1485 H1497 0.930 . S
C1486 C1482 1.524 . S
C1486 H1498 0.956 . S
C1486 H1499 0.961 . S
C1486 H1500 0.961 . S
C1487 C1484 1.539 . S
C1487 H1501 0.958 . S
C1487 H1502 0.961 . S
C1487 H1503 0.960 1_655 S
H1488 C1472 0.931 . S
H1489 C1477 0.929 . S
H1490 C1478 0.959 1_655 S
H1491 C1478 0.962 1_545 S
H1492 C1478 0.960 . S
H1493 C1479 0.961 1_545 S
H1494 C1479 0.961 1_655 S
H1495 C1479 0.961 . S
H1496 C1480 0.931 . S
H1497 C1485 0.930 . S
H1498 C1486 0.956 . S
H1499 C1486 0.961 . S
H1500 C1486 0.961 . S
H1501 C1487 0.958 . S
H1502 C1487 0.961 . S
H1503 C1487 0.960 1_455 S
C1504 C1505 1.391 . S
C1504 C1506 1.394 . S
C1504 H1520 0.931 . S
C1505 C1504 1.391 . S
C1505 C1509 1.376 1_545 S
C1506 C1504 1.394 . S
C1506 C1507 1.369 . S
C1506 C1510 1.531 . S
C1507 C1506 1.369 . S
C1507 C1508 1.410 1_545 S
C1507 C1515 1.503 1_655 S
C1508 C1507 1.410 1_565 S
C1508 C1509 1.392 . S
C1508 C1511 1.511 . S
C1509 C1505 1.376 1_565 S
C1509 C1508 1.392 . S
C1509 H1521 0.929 . S
C1510 C1506 1.531 . S
C1510 H1522 0.960 1_655 S
C1510 H1523 0.962 . S
C1510 H1524 0.960 . S
C1511 C1508 1.511 . S
C1511 H1525 0.961 . S
C1511 H1526 0.961 . S
C1511 H1527 0.961 . S
C1512 C1513 1.370 . S
C1512 C1514 1.363 . S
C1512 H1528 0.931 . S
C1513 C1512 1.370 . S
C1513 C1517 1.408 1_565 S
C1514 C1512 1.363 . S
C1514 C1515 1.372 1_565 S
C1514 C1518 1.524 . S
C1515 C1507 1.503 1_455 S
C1515 C1514 1.372 1_545 S
C1515 C1516 1.402 . S
C1516 C1515 1.402 . S
C1516 C1517 1.404 . S
C1516 C1519 1.539 . S
C1517 C1513 1.408 1_545 S
C1517 C1516 1.404 . S
C1517 H1529 0.930 . S
C1518 C1514 1.524 . S
C1518 H1530 0.957 1_455 S
C1518 H1531 0.961 1_455 S
C1518 H1532 0.961 . S
C1519 C1516 1.539 . S
C1519 H1533 0.958 . S
C1519 H1534 0.961 . S
C1519 H1535 0.960 . S
H1520 C1504 0.931 . S
H1521 C1509 0.929 . S
H1522 C1510 0.960 1_455 S
H1523 C1510 0.962 . S
H1524 C1510 0.960 . S
H1525 C1511 0.961 . S
H1526 C1511 0.961 . S
H1527 C1511 0.961 . S
H1528 C1512 0.931 . S
H1529 C1517 0.930 . S
H1530 C1518 0.957 1_655 S
H1531 C1518 0.961 1_655 S
H1532 C1518 0.961 . S
H1533 C1519 0.958 . S
H1534 C1519 0.961 . S
H1535 C1519 0.960 . S
C1536 C1537 1.391 . S
C1536 C1538 1.394 . S
C1536 H1552 0.931 . S
C1537 C1536 1.391 . S
C1537 C1541 1.376 . S
C1538 C1536 1.394 . S
C1538 C1539 1.369 . S
C1538 C1542 1.531 . S
C1539 C1538 1.369 . S
C1539 C1540 1.410 . S
C1539 C1547 1.503 . S
C1540 C1539 1.410 . S
C1540 C1541 1.392 . S
C1540 C1543 1.511 . S
C1541 C1537 1.376 . S
C1541 C1540 1.392 . S
C1541 H1553 0.929 . S
C1542 C1538 1.531 . S
C1542 H1554 0.960 . S
C1542 H1555 0.962 . S
C1542 H1556 0.960 . S
C1543 C1540 1.511 . S
C1543 H1557 0.961 . S
C1543 H1558 0.961 . S
C1543 H1559 0.961 . S
C1544 C1545 1.370 . S
C1544 C1546 1.363 . S
C1544 H1560 0.931 . S
C1545 C1544 1.370 . S
C1545 C1549 1.408 . S
C1546 C1544 1.363 . S
C1546 C1547 1.370 . S
C1546 C1550 1.524 . S
C1547 C1539 1.503 . S
C1547 C1546 1.370 . S
C1547 C1548 1.403 . S
C1548 C1547 1.403 . S
C1548 C1549 1.404 . S
C1548 C1551 1.539 . S
C1549 C1545 1.408 . S
C1549 C1548 1.404 . S
C1549 H1561 0.930 . S
C1550 C1546 1.524 . S
C1550 H1562 0.956 . S
C1550 H1563 0.961 . S
C1550 H1564 0.961 . S
C1551 C1548 1.539 . S
C1551 H1565 0.958 . S
C1551 H1566 0.961 . S
C1551 H1567 0.960 . S
H1552 C1536 0.931 . S
H1553 C1541 0.929 . S
H1554 C1542 0.960 . S
H1555 C1542 0.962 . S
H1556 C1542 0.960 . S
H1557 C1543 0.961 . S
H1558 C1543 0.961 . S
H1559 C1543 0.961 . S
H1560 C1544 0.931 . S
H1561 C1549 0.930 . S
H1562 C1550 0.956 . S
H1563 C1550 0.961 . S
H1564 C1550 0.961 . S
H1565 C1551 0.958 . S
H1566 C1551 0.961 . S
H1567 C1551 0.960 . S
C1568 C1569 1.391 . S
C1568 C1570 1.394 . S
C1568 H1584 0.931 . S
C1569 C1568 1.391 . S
C1569 C1573 1.376 . S
C1570 C1568 1.394 . S
C1570 C1571 1.369 . S
C1570 C1574 1.531 . S
C1571 C1570 1.369 . S
C1571 C1572 1.410 . S
C1571 C1579 1.503 . S
C1572 C1571 1.410 . S
C1572 C1573 1.392 . S
C1572 C1575 1.511 . S
C1573 C1569 1.376 . S
C1573 C1572 1.392 . S
C1573 H1585 0.929 . S
C1574 C1570 1.531 . S
C1574 H1586 0.960 . S
C1574 H1587 0.962 . S
C1574 H1588 0.960 . S
C1575 C1572 1.511 . S
C1575 H1589 0.961 . S
C1575 H1590 0.961 . S
C1575 H1591 0.961 . S
C1576 C1577 1.370 . S
C1576 C1578 1.363 . S
C1576 H1592 0.931 . S
C1577 C1576 1.370 . S
C1577 C1581 1.408 . S
C1578 C1576 1.363 . S
C1578 C1579 1.370 . S
C1578 C1582 1.524 . S
C1579 C1571 1.503 . S
C1579 C1578 1.370 . S
C1579 C1580 1.403 . S
C1580 C1579 1.403 . S
C1580 C1581 1.404 . S
C1580 C1583 1.539 . S
C1581 C1577 1.408 . S
C1581 C1580 1.404 . S
C1581 H1593 0.930 . S
C1582 C1578 1.524 . S
C1582 H1594 0.956 . S
C1582 H1595 0.961 . S
C1582 H1596 0.961 . S
C1583 C1580 1.539 . S
C1583 H1597 0.958 . S
C1583 H1598 0.961 . S
C1583 H1599 0.960 . S
H1584 C1568 0.931 . S
H1585 C1573 0.929 . S
H1586 C1574 0.960 . S
H1587 C1574 0.962 . S
H1588 C1574 0.960 . S
H1589 C1575 0.961 . S
H1590 C1575 0.961 . S
H1591 C1575 0.961 . S
H1592 C1576 0.931 . S
H1593 C1581 0.930 . S
H1594 C1582 0.956 . S
H1595 C1582 0.961 . S
H1596 C1582 0.961 . S
H1597 C1583 0.958 . S
H1598 C1583 0.961 . S
H1599 C1583 0.960 . S
C1600 C1601 1.391 . S
C1600 C1602 1.394 . S
C1600 H1616 0.931 . S
C1601 C1600 1.391 . S
C1601 C1605 1.376 . S
C1602 C1600 1.394 . S
C1602 C1603 1.369 . S
C1602 C1606 1.531 . S
C1603 C1602 1.369 . S
C1603 C1604 1.410 . S
C1603 C1611 1.503 . S
C1604 C1603 1.410 . S
C1604 C1605 1.392 . S
C1604 C1607 1.511 . S
C1605 C1601 1.376 . S
C1605 C1604 1.392 . S
C1605 H1617 0.929 . S
C1606 C1602 1.531 . S
C1606 H1618 0.960 . S
C1606 H1619 0.962 . S
C1606 H1620 0.960 . S
C1607 C1604 1.511 . S
C1607 H1621 0.961 . S
C1607 H1622 0.961 . S
C1607 H1623 0.961 . S
C1608 C1609 1.370 . S
C1608 C1610 1.363 . S
C1608 H1624 0.931 . S
C1609 C1608 1.370 . S
C1609 C1613 1.408 . S
C1610 C1608 1.363 . S
C1610 C1611 1.370 . S
C1610 C1614 1.524 . S
C1611 C1603 1.503 . S
C1611 C1610 1.370 . S
C1611 C1612 1.403 . S
C1612 C1611 1.403 . S
C1612 C1613 1.404 . S
C1612 C1615 1.539 . S
C1613 C1609 1.408 . S
C1613 C1612 1.404 . S
C1613 H1625 0.930 . S
C1614 C1610 1.524 . S
C1614 H1626 0.956 . S
C1614 H1627 0.961 . S
C1614 H1628 0.961 . S
C1615 C1612 1.539 . S
C1615 H1629 0.958 . S
C1615 H1630 0.961 . S
C1615 H1631 0.960 . S
H1616 C1600 0.931 . S
H1617 C1605 0.929 . S
H1618 C1606 0.960 . S
H1619 C1606 0.962 . S
H1620 C1606 0.960 . S
H1621 C1607 0.961 . S
H1622 C1607 0.961 . S
H1623 C1607 0.961 . S
H1624 C1608 0.931 . S
H1625 C1613 0.930 . S
H1626 C1614 0.956 . S
H1627 C1614 0.961 . S
H1628 C1614 0.961 . S
H1629 C1615 0.958 . S
H1630 C1615 0.961 . S
H1631 C1615 0.960 . S
C1632 C1633 1.391 . S
C1632 C1634 1.394 . S
C1632 H1648 0.931 . S
C1633 C1632 1.391 . S
C1633 C1637 1.376 . S
C1634 C1632 1.394 . S
C1634 C1635 1.369 . S
C1634 C1638 1.531 . S
C1635 C1634 1.369 . S
C1635 C1636 1.410 . S
C1635 C1643 1.503 . S
C1636 C1635 1.410 . S
C1636 C1637 1.392 . S
C1636 C1639 1.511 . S
C1637 C1633 1.376 . S
C1637 C1636 1.392 . S
C1637 H1649 0.929 . S
C1638 C1634 1.531 . S
C1638 H1650 0.960 . S
C1638 H1651 0.962 . S
C1638 H1652 0.960 . S
C1639 C1636 1.511 . S
C1639 H1653 0.961 . S
C1639 H1654 0.961 . S
C1639 H1655 0.961 . S
C1640 C1641 1.370 . S
C1640 C1642 1.363 . S
C1640 H1656 0.931 . S
C1641 C1640 1.370 . S
C1641 C1645 1.408 . S
C1642 C1640 1.363 . S
C1642 C1643 1.370 . S
C1642 C1646 1.524 . S
C1643 C1635 1.503 . S
C1643 C1642 1.370 . S
C1643 C1644 1.403 . S
C1644 C1643 1.403 . S
C1644 C1645 1.404 . S
C1644 C1647 1.539 . S
C1645 C1641 1.408 . S
C1645 C1644 1.404 . S
C1645 H1657 0.930 . S
C1646 C1642 1.524 . S
C1646 H1658 0.956 . S
C1646 H1659 0.961 . S
C1646 H1660 0.961 . S
C1647 C1644 1.539 . S
C1647 H1661 0.958 . S
C1647 H1662 0.961 . S
C1647 H1663 0.960 . S
H1648 C1632 0.931 . S
H1649 C1637 0.929 . S
H1650 C1638 0.960 . S
H1651 C1638 0.962 . S
H1652 C1638 0.960 . S
H1653 C1639 0.961 . S
H1654 C1639 0.961 . S
H1655 C1639 0.961 . S
H1656 C1640 0.931 . S
H1657 C1645 0.930 . S
H1658 C1646 0.956 . S
H1659 C1646 0.961 . S
H1660 C1646 0.961 . S
H1661 C1647 0.958 . S
H1662 C1647 0.961 . S
H1663 C1647 0.960 . S
C1664 C1665 1.391 . S
C1664 C1666 1.394 . S
C1664 H1680 0.931 . S
C1665 C1664 1.391 . S
C1665 C1669 1.376 . S
C1666 C1664 1.394 . S
C1666 C1667 1.369 . S
C1666 C1670 1.531 . S
C1667 C1666 1.369 . S
C1667 C1668 1.410 . S
C1667 C1675 1.503 . S
C1668 C1667 1.410 . S
C1668 C1669 1.392 . S
C1668 C1671 1.511 . S
C1669 C1665 1.376 . S
C1669 C1668 1.392 . S
C1669 H1681 0.929 . S
C1670 C1666 1.531 . S
C1670 H1682 0.960 . S
C1670 H1683 0.962 . S
C1670 H1684 0.960 . S
C1671 C1668 1.511 . S
C1671 H1685 0.961 . S
C1671 H1686 0.961 . S
C1671 H1687 0.961 . S
C1672 C1673 1.370 . S
C1672 C1674 1.363 . S
C1672 H1688 0.931 . S
C1673 C1672 1.370 . S
C1673 C1677 1.408 . S
C1674 C1672 1.363 . S
C1674 C1675 1.370 . S
C1674 C1678 1.524 . S
C1675 C1667 1.503 . S
C1675 C1674 1.370 . S
C1675 C1676 1.403 . S
C1676 C1675 1.403 . S
C1676 C1677 1.404 . S
C1676 C1679 1.539 . S
C1677 C1673 1.408 . S
C1677 C1676 1.404 . S
C1677 H1689 0.930 . S
C1678 C1674 1.524 . S
C1678 H1690 0.956 . S
C1678 H1691 0.961 . S
C1678 H1692 0.961 . S
C1679 C1676 1.539 . S
C1679 H1693 0.958 . S
C1679 H1694 0.961 . S
C1679 H1695 0.960 . S
H1680 C1664 0.931 . S
H1681 C1669 0.929 . S
H1682 C1670 0.960 . S
H1683 C1670 0.962 . S
H1684 C1670 0.960 . S
H1685 C1671 0.961 . S
H1686 C1671 0.961 . S
H1687 C1671 0.961 . S
H1688 C1672 0.931 . S
H1689 C1677 0.930 . S
H1690 C1678 0.956 . S
H1691 C1678 0.961 . S
H1692 C1678 0.961 . S
H1693 C1679 0.958 . S
H1694 C1679 0.961 . S
H1695 C1679 0.960 . S
C1696 C1697 1.391 . S
C1696 C1698 1.394 . S
C1696 H1712 0.931 . S
C1697 C1696 1.391 . S
C1697 C1701 1.376 . S
C1698 C1696 1.394 . S
C1698 C1699 1.369 . S
C1698 C1702 1.531 . S
C1699 C1698 1.369 . S
C1699 C1700 1.410 . S
C1699 C1707 1.503 . S
C1700 C1699 1.410 . S
C1700 C1701 1.392 . S
C1700 C1703 1.511 . S
C1701 C1697 1.376 . S
C1701 C1700 1.392 . S
C1701 H1713 0.929 . S
C1702 C1698 1.531 . S
C1702 H1714 0.960 . S
C1702 H1715 0.962 . S
C1702 H1716 0.960 . S
C1703 C1700 1.511 . S
C1703 H1717 0.961 . S
C1703 H1718 0.961 . S
C1703 H1719 0.961 . S
C1704 C1705 1.370 . S
C1704 C1706 1.363 . S
C1704 H1720 0.931 . S
C1705 C1704 1.370 . S
C1705 C1709 1.408 . S
C1706 C1704 1.363 . S
C1706 C1707 1.370 . S
C1706 C1710 1.524 . S
C1707 C1699 1.503 . S
C1707 C1706 1.370 . S
C1707 C1708 1.403 . S
C1708 C1707 1.403 . S
C1708 C1709 1.404 . S
C1708 C1711 1.539 . S
C1709 C1705 1.408 . S
C1709 C1708 1.404 . S
C1709 H1721 0.930 . S
C1710 C1706 1.524 . S
C1710 H1722 0.956 . S
C1710 H1723 0.961 . S
C1710 H1724 0.961 . S
C1711 C1708 1.539 . S
C1711 H1725 0.958 . S
C1711 H1726 0.961 . S
C1711 H1727 0.960 . S
H1712 C1696 0.931 . S
H1713 C1701 0.929 . S
H1714 C1702 0.960 . S
H1715 C1702 0.962 . S
H1716 C1702 0.960 . S
H1717 C1703 0.961 . S
H1718 C1703 0.961 . S
H1719 C1703 0.961 . S
H1720 C1704 0.931 . S
H1721 C1709 0.930 . S
H1722 C1710 0.956 . S
H1723 C1710 0.961 . S
H1724 C1710 0.961 . S
H1725 C1711 0.958 . S
H1726 C1711 0.961 . S
H1727 C1711 0.960 . S
C1728 C1729 1.391 . S
C1728 C1730 1.394 . S
C1728 H1744 0.931 . S
C1729 C1728 1.391 . S
C1729 C1733 1.376 . S
C1730 C1728 1.394 . S
C1730 C1731 1.369 . S
C1730 C1734 1.531 . S
C1731 C1730 1.369 . S
C1731 C1732 1.410 . S
C1731 C1739 1.503 . S
C1732 C1731 1.410 . S
C1732 C1733 1.392 . S
C1732 C1735 1.511 . S
C1733 C1729 1.376 . S
C1733 C1732 1.392 . S
C1733 H1745 0.929 . S
C1734 C1730 1.531 . S
C1734 H1746 0.960 . S
C1734 H1747 0.962 . S
C1734 H1748 0.960 . S
C1735 C1732 1.511 . S
C1735 H1749 0.961 . S
C1735 H1750 0.961 . S
C1735 H1751 0.961 . S
C1736 C1737 1.370 . S
C1736 C1738 1.363 . S
C1736 H1752 0.931 . S
C1737 C1736 1.370 . S
C1737 C1741 1.408 . S
C1738 C1736 1.363 . S
C1738 C1739 1.370 . S
C1738 C1742 1.524 . S
C1739 C1731 1.503 . S
C1739 C1738 1.370 . S
C1739 C1740 1.403 . S
C1740 C1739 1.403 . S
C1740 C1741 1.404 . S
C1740 C1743 1.539 . S
C1741 C1737 1.408 . S
C1741 C1740 1.404 . S
C1741 H1753 0.930 . S
C1742 C1738 1.524 . S
C1742 H1754 0.956 . S
C1742 H1755 0.961 . S
C1742 H1756 0.961 . S
C1743 C1740 1.539 . S
C1743 H1757 0.958 . S
C1743 H1758 0.961 . S
C1743 H1759 0.960 . S
H1744 C1728 0.931 . S
H1745 C1733 0.929 . S
H1746 C1734 0.960 . S
H1747 C1734 0.962 . S
H1748 C1734 0.960 . S
H1749 C1735 0.961 . S
H1750 C1735 0.961 . S
H1751 C1735 0.961 . S
H1752 C1736 0.931 . S
H1753 C1741 0.930 . S
H1754 C1742 0.956 . S
H1755 C1742 0.961 . S
H1756 C1742 0.961 . S
H1757 C1743 0.958 . S
H1758 C1743 0.961 . S
H1759 C1743 0.960 . S
C1760 C1761 1.391 . S
C1760 C1762 1.394 . S
C1760 H1776 0.931 . S
C1761 C1760 1.391 . S
C1761 C1765 1.376 . S
C1762 C1760 1.394 . S
C1762 C1763 1.369 . S
C1762 C1766 1.531 . S
C1763 C1762 1.369 . S
C1763 C1764 1.410 . S
C1763 C1771 1.503 . S
C1764 C1763 1.410 . S
C1764 C1765 1.392 . S
C1764 C1767 1.511 . S
C1765 C1761 1.376 . S
C1765 C1764 1.392 . S
C1765 H1777 0.929 . S
C1766 C1762 1.531 . S
C1766 H1778 0.960 . S
C1766 H1779 0.962 . S
C1766 H1780 0.960 . S
C1767 C1764 1.511 . S
C1767 H1781 0.961 . S
C1767 H1782 0.961 . S
C1767 H1783 0.961 . S
C1768 C1769 1.370 . S
C1768 C1770 1.363 . S
C1768 H1784 0.931 . S
C1769 C1768 1.370 . S
C1769 C1773 1.408 . S
C1770 C1768 1.363 . S
C1770 C1771 1.370 . S
C1770 C1774 1.524 . S
C1771 C1763 1.503 . S
C1771 C1770 1.370 . S
C1771 C1772 1.403 . S
C1772 C1771 1.403 . S
C1772 C1773 1.404 . S
C1772 C1775 1.539 . S
C1773 C1769 1.408 . S
C1773 C1772 1.404 . S
C1773 H1785 0.930 . S
C1774 C1770 1.524 . S
C1774 H1786 0.956 . S
C1774 H1787 0.961 . S
C1774 H1788 0.961 . S
C1775 C1772 1.539 . S
C1775 H1789 0.958 . S
C1775 H1790 0.961 . S
C1775 H1791 0.960 . S
H1776 C1760 0.931 . S
H1777 C1765 0.929 . S
H1778 C1766 0.960 . S
H1779 C1766 0.962 . S
H1780 C1766 0.960 . S
H1781 C1767 0.961 . S
H1782 C1767 0.961 . S
H1783 C1767 0.961 . S
H1784 C1768 0.931 . S
H1785 C1773 0.930 . S
H1786 C1774 0.956 . S
H1787 C1774 0.961 . S
H1788 C1774 0.961 . S
H1789 C1775 0.958 . S
H1790 C1775 0.961 . S
H1791 C1775 0.960 . S
C1792 C1793 1.391 . S
C1792 C1794 1.394 . S
C1792 H1808 0.931 . S
C1793 C1792 1.391 . S
C1793 C1797 1.376 . S
C1794 C1792 1.394 . S
C1794 C1795 1.369 . S
C1794 C1798 1.531 . S
C1795 C1794 1.369 . S
C1795 C1796 1.410 . S
C1795 C1803 1.503 . S
C1796 C1795 1.410 . S
C1796 C1797 1.392 . S
C1796 C1799 1.511 . S
C1797 C1793 1.376 . S
C1797 C1796 1.392 . S
C1797 H1809 0.929 . S
C1798 C1794 1.531 . S
C1798 H1810 0.960 . S
C1798 H1811 0.962 . S
C1798 H1812 0.960 . S
C1799 C1796 1.511 . S
C1799 H1813 0.961 . S
C1799 H1814 0.961 . S
C1799 H1815 0.961 . S
C1800 C1801 1.370 . S
C1800 C1802 1.363 . S
C1800 H1816 0.931 . S
C1801 C1800 1.370 . S
C1801 C1805 1.408 . S
C1802 C1800 1.363 . S
C1802 C1803 1.370 . S
C1802 C1806 1.524 . S
C1803 C1795 1.503 . S
C1803 C1802 1.370 . S
C1803 C1804 1.403 . S
C1804 C1803 1.403 . S
C1804 C1805 1.404 . S
C1804 C1807 1.539 . S
C1805 C1801 1.408 . S
C1805 C1804 1.404 . S
C1805 H1817 0.930 . S
C1806 C1802 1.524 . S
C1806 H1818 0.956 . S
C1806 H1819 0.961 . S
C1806 H1820 0.961 . S
C1807 C1804 1.539 . S
C1807 H1821 0.958 . S
C1807 H1822 0.961 . S
C1807 H1823 0.960 . S
H1808 C1792 0.931 . S
H1809 C1797 0.929 . S
H1810 C1798 0.960 . S
H1811 C1798 0.962 . S
H1812 C1798 0.960 . S
H1813 C1799 0.961 . S
H1814 C1799 0.961 . S
H1815 C1799 0.961 . S
H1816 C1800 0.931 . S
H1817 C1805 0.930 . S
H1818 C1806 0.956 . S
H1819 C1806 0.961 . S
H1820 C1806 0.961 . S
H1821 C1807 0.958 . S
H1822 C1807 0.961 . S
H1823 C1807 0.960 . S
C1824 C1825 1.391 . S
C1824 C1826 1.394 . S
C1824 H1840 0.931 . S
C1825 C1824 1.391 . S
C1825 C1829 1.376 . S
C1826 C1824 1.394 . S
C1826 C1827 1.369 . S
C1826 C1830 1.531 . S
C1827 C1826 1.369 . S
C1827 C1828 1.410 . S
C1827 C1835 1.503 . S
C1828 C1827 1.410 . S
C1828 C1829 1.392 . S
C1828 C1831 1.511 . S
C1829 C1825 1.376 . S
C1829 C1828 1.392 . S
C1829 H1841 0.929 . S
C1830 C1826 1.531 . S
C1830 H1842 0.960 . S
C1830 H1843 0.962 . S
C1830 H1844 0.960 . S
C1831 C1828 1.511 . S
C1831 H1845 0.961 . S
C1831 H1846 0.961 . S
C1831 H1847 0.961 . S
C1832 C1833 1.370 . S
C1832 C1834 1.363 . S
C1832 H1848 0.931 . S
C1833 C1832 1.370 . S
C1833 C1837 1.408 . S
C1834 C1832 1.363 . S
C1834 C1835 1.370 . S
C1834 C1838 1.524 . S
C1835 C1827 1.503 . S
C1835 C1834 1.370 . S
C1835 C1836 1.403 . S
C1836 C1835 1.403 . S
C1836 C1837 1.404 . S
C1836 C1839 1.539 . S
C1837 C1833 1.408 . S
C1837 C1836 1.404 . S
C1837 H1849 0.930 . S
C1838 C1834 1.524 . S
C1838 H1850 0.956 . S
C1838 H1851 0.961 . S
C1838 H1852 0.961 . S
C1839 C1836 1.539 . S
C1839 H1853 0.958 . S
C1839 H1854 0.961 . S
C1839 H1855 0.960 . S
H1840 C1824 0.931 . S
H1841 C1829 0.929 . S
H1842 C1830 0.960 . S
H1843 C1830 0.962 . S
H1844 C1830 0.960 . S
H1845 C1831 0.961 . S
H1846 C1831 0.961 . S
H1847 C1831 0.961 . S
H1848 C1832 0.931 . S
H1849 C1837 0.930 . S
H1850 C1838 0.956 . S
H1851 C1838 0.961 . S
H1852 C1838 0.961 . S
H1853 C1839 0.958 . S
H1854 C1839 0.961 . S
H1855 C1839 0.960 . S
C1856 C1857 1.391 . S
C1856 C1858 1.394 . S
C1856 H1872 0.931 . S
C1857 C1856 1.391 . S
C1857 C1861 1.376 . S
C1858 C1856 1.394 . S
C1858 C1859 1.369 . S
C1858 C1862 1.531 . S
C1859 C1858 1.369 . S
C1859 C1860 1.410 . S
C1859 C1867 1.503 . S
C1860 C1859 1.410 . S
C1860 C1861 1.392 . S
C1860 C1863 1.511 . S
C1861 C1857 1.376 . S
C1861 C1860 1.392 . S
C1861 H1873 0.929 . S
C1862 C1858 1.531 . S
C1862 H1874 0.960 . S
C1862 H1875 0.962 . S
C1862 H1876 0.960 . S
C1863 C1860 1.511 . S
C1863 H1877 0.961 . S
C1863 H1878 0.961 . S
C1863 H1879 0.961 . S
C1864 C1865 1.370 . S
C1864 C1866 1.363 . S
C1864 H1880 0.931 . S
C1865 C1864 1.370 . S
C1865 C1869 1.408 . S
C1866 C1864 1.363 . S
C1866 C1867 1.370 . S
C1866 C1870 1.524 . S
C1867 C1859 1.503 . S
C1867 C1866 1.370 . S
C1867 C1868 1.403 . S
C1868 C1867 1.403 . S
C1868 C1869 1.404 . S
C1868 C1871 1.539 . S
C1869 C1865 1.408 . S
C1869 C1868 1.404 . S
C1869 H1881 0.930 . S
C1870 C1866 1.524 . S
C1870 H1882 0.956 . S
C1870 H1883 0.961 . S
C1870 H1884 0.961 . S
C1871 C1868 1.539 . S
C1871 H1885 0.958 . S
C1871 H1886 0.961 . S
C1871 H1887 0.960 . S
H1872 C1856 0.931 . S
H1873 C1861 0.929 . S
H1874 C1862 0.960 . S
H1875 C1862 0.962 . S
H1876 C1862 0.960 . S
H1877 C1863 0.961 . S
H1878 C1863 0.961 . S
H1879 C1863 0.961 . S
H1880 C1864 0.931 . S
H1881 C1869 0.930 . S
H1882 C1870 0.956 . S
H1883 C1870 0.961 . S
H1884 C1870 0.961 . S
H1885 C1871 0.958 . S
H1886 C1871 0.961 . S
H1887 C1871 0.960 . S
C1888 C1889 1.391 . S
C1888 C1890 1.394 . S
C1888 H1904 0.931 . S
C1889 C1888 1.391 . S
C1889 C1893 1.376 . S
C1890 C1888 1.394 . S
C1890 C1891 1.369 . S
C1890 C1894 1.531 . S
C1891 C1890 1.369 . S
C1891 C1892 1.410 . S
C1891 C1899 1.503 . S
C1892 C1891 1.410 . S
C1892 C1893 1.392 . S
C1892 C1895 1.511 . S
C1893 C1889 1.376 . S
C1893 C1892 1.392 . S
C1893 H1905 0.929 . S
C1894 C1890 1.531 . S
C1894 H1906 0.960 . S
C1894 H1907 0.962 . S
C1894 H1908 0.960 . S
C1895 C1892 1.511 . S
C1895 H1909 0.961 . S
C1895 H1910 0.961 . S
C1895 H1911 0.961 . S
C1896 C1897 1.370 . S
C1896 C1898 1.363 . S
C1896 H1912 0.931 . S
C1897 C1896 1.370 . S
C1897 C1901 1.408 . S
C1898 C1896 1.363 . S
C1898 C1899 1.370 . S
C1898 C1902 1.524 . S
C1899 C1891 1.503 . S
C1899 C1898 1.370 . S
C1899 C1900 1.403 . S
C1900 C1899 1.403 . S
C1900 C1901 1.404 . S
C1900 C1903 1.539 . S
C1901 C1897 1.408 . S
C1901 C1900 1.404 . S
C1901 H1913 0.930 . S
C1902 C1898 1.524 . S
C1902 H1914 0.956 . S
C1902 H1915 0.961 . S
C1902 H1916 0.961 . S
C1903 C1900 1.539 . S
C1903 H1917 0.958 . S
C1903 H1918 0.961 . S
C1903 H1919 0.960 . S
H1904 C1888 0.931 . S
H1905 C1893 0.929 . S
H1906 C1894 0.960 . S
H1907 C1894 0.962 . S
H1908 C1894 0.960 . S
H1909 C1895 0.961 . S
H1910 C1895 0.961 . S
H1911 C1895 0.961 . S
H1912 C1896 0.931 . S
H1913 C1901 0.930 . S
H1914 C1902 0.956 . S
H1915 C1902 0.961 . S
H1916 C1902 0.961 . S
H1917 C1903 0.958 . S
H1918 C1903 0.961 . S
H1919 C1903 0.960 . S
C1920 C1921 1.391 . S
C1920 C1922 1.394 1_565 S
C1920 H1936 0.931 . S
C1921 C1920 1.391 . S
C1921 C1925 1.376 . S
C1922 C1920 1.394 1_545 S
C1922 C1923 1.369 . S
C1922 C1926 1.531 . S
C1923 C1922 1.369 . S
C1923 C1924 1.410 . S
C1923 C1931 1.503 . S
C1924 C1923 1.410 . S
C1924 C1925 1.392 1_545 S
C1924 C1927 1.511 . S
C1925 C1921 1.376 . S
C1925 C1924 1.392 1_565 S
C1925 H1937 0.929 . S
C1926 C1922 1.531 . S
C1926 H1938 0.960 . S
C1926 H1939 0.962 . S
C1926 H1940 0.960 . S
C1927 C1924 1.511 . S
C1927 H1941 0.961 . S
C1927 H1942 0.961 . S
C1927 H1943 0.961 . S
C1928 C1929 1.370 . S
C1928 C1930 1.363 . S
C1928 H1944 0.931 . S
C1929 C1928 1.370 . S
C1929 C1933 1.408 . S
C1930 C1928 1.363 . S
C1930 C1931 1.370 . S
C1930 C1934 1.524 . S
C1931 C1923 1.503 . S
C1931 C1930 1.370 . S
C1931 C1932 1.403 . S
C1932 C1931 1.403 . S
C1932 C1933 1.404 . S
C1932 C1935 1.539 . S
C1933 C1929 1.408 . S
C1933 C1932 1.404 . S
C1933 H1945 0.930 . S
C1934 C1930 1.524 . S
C1934 H1946 0.956 . S
C1934 H1947 0.961 . S
C1934 H1948 0.961 . S
C1935 C1932 1.539 . S
C1935 H1949 0.958 . S
C1935 H1950 0.961 . S
C1935 H1951 0.960 . S
H1936 C1920 0.931 . S
H1937 C1925 0.929 . S
H1938 C1926 0.960 . S
H1939 C1926 0.962 . S
H1940 C1926 0.960 . S
H1941 C1927 0.961 . S
H1942 C1927 0.961 . S
H1943 C1927 0.961 . S
H1944 C1928 0.931 . S
H1945 C1933 0.930 . S
H1946 C1934 0.956 . S
H1947 C1934 0.961 . S
H1948 C1934 0.961 . S
H1949 C1935 0.958 . S
H1950 C1935 0.961 . S
H1951 C1935 0.960 . S
C1952 C1953 1.391 . S
C1952 C1954 1.394 . S
C1952 H1968 0.931 . S
C1953 C1952 1.391 . S
C1953 C1957 1.376 . S
C1954 C1952 1.394 . S
C1954 C1955 1.369 . S
C1954 C1958 1.531 . S
C1955 C1954 1.369 . S
C1955 C1956 1.410 . S
C1955 C1963 1.503 . S
C1956 C1955 1.410 . S
C1956 C1957 1.392 . S
C1956 C1959 1.511 . S
C1957 C1953 1.376 . S
C1957 C1956 1.392 . S
C1957 H1969 0.929 . S
C1958 C1954 1.531 . S
C1958 H1970 0.960 . S
C1958 H1971 0.962 . S
C1958 H1972 0.960 . S
C1959 C1956 1.511 . S
C1959 H1973 0.961 . S
C1959 H1974 0.961 . S
C1959 H1975 0.961 . S
C1960 C1961 1.370 . S
C1960 C1962 1.363 1_545 S
C1960 H1976 0.931 . S
C1961 C1960 1.370 . S
C1961 C1965 1.408 . S
C1962 C1960 1.363 1_565 S
C1962 C1963 1.370 . S
C1962 C1966 1.524 . S
C1963 C1955 1.503 . S
C1963 C1962 1.370 . S
C1963 C1964 1.403 . S
C1964 C1963 1.403 . S
C1964 C1965 1.404 1_565 S
C1964 C1967 1.539 . S
C1965 C1961 1.408 . S
C1965 C1964 1.404 1_545 S
C1965 H1977 0.930 . S
C1966 C1962 1.524 . S
C1966 H1978 0.956 . S
C1966 H1979 0.961 . S
C1966 H1980 0.961 . S
C1967 C1964 1.539 . S
C1967 H1981 0.958 . S
C1967 H1982 0.961 . S
C1967 H1983 0.960 . S
H1968 C1952 0.931 . S
H1969 C1957 0.929 . S
H1970 C1958 0.960 . S
H1971 C1958 0.962 . S
H1972 C1958 0.960 . S
H1973 C1959 0.961 . S
H1974 C1959 0.961 . S
H1975 C1959 0.961 . S
H1976 C1960 0.931 . S
H1977 C1965 0.930 . S
H1978 C1966 0.956 . S
H1979 C1966 0.961 . S
H1980 C1966 0.961 . S
H1981 C1967 0.958 . S
H1982 C1967 0.961 . S
H1983 C1967 0.960 . S
C1984 C1985 1.391 . S
C1984 C1986 1.394 1_545 S
C1984 H2000 0.931 . S
C1985 C1984 1.391 . S
C1985 C1989 1.376 . S
C1986 C1984 1.394 1_565 S
C1986 C1987 1.369 . S
C1986 C1990 1.531 . S
C1987 C1986 1.369 . S
C1987 C1988 1.410 . S
C1987 C1995 1.503 . S
C1988 C1987 1.410 . S
C1988 C1989 1.392 1_565 S
C1988 C1991 1.511 . S
C1989 C1985 1.376 . S
C1989 C1988 1.392 1_545 S
C1989 H2001 0.929 . S
C1990 C1986 1.531 . S
C1990 H2002 0.960 . S
C1990 H2003 0.962 . S
C1990 H2004 0.960 . S
C1991 C1988 1.511 . S
C1991 H2005 0.961 . S
C1991 H2006 0.961 . S
C1991 H2007 0.961 . S
C1992 C1993 1.370 . S
C1992 C1994 1.363 . S
C1992 H2008 0.931 . S
C1993 C1992 1.370 . S
C1993 C1997 1.408 . S
C1994 C1992 1.363 . S
C1994 C1995 1.370 . S
C1994 C1998 1.524 . S
C1995 C1987 1.503 . S
C1995 C1994 1.370 . S
C1995 C1996 1.403 . S
C1996 C1995 1.403 . S
C1996 C1997 1.404 . S
C1996 C1999 1.539 . S
C1997 C1993 1.408 . S
C1997 C1996 1.404 . S
C1997 H2009 0.930 . S
C1998 C1994 1.524 . S
C1998 H2010 0.956 . S
C1998 H2011 0.961 . S
C1998 H2012 0.961 . S
C1999 C1996 1.539 . S
C1999 H2013 0.958 . S
C1999 H2014 0.961 . S
C1999 H2015 0.960 . S
H2000 C1984 0.931 . S
H2001 C1989 0.929 . S
H2002 C1990 0.960 . S
H2003 C1990 0.962 . S
H2004 C1990 0.960 . S
H2005 C1991 0.961 . S
H2006 C1991 0.961 . S
H2007 C1991 0.961 . S
H2008 C1992 0.931 . S
H2009 C1997 0.930 . S
H2010 C1998 0.956 . S
H2011 C1998 0.961 . S
H2012 C1998 0.961 . S
H2013 C1999 0.958 . S
H2014 C1999 0.961 . S
H2015 C1999 0.960 . S
C2016 C2017 1.391 . S
C2016 C2018 1.394 1_565 S
C2016 H2032 0.931 . S
C2017 C2016 1.391 . S
C2017 C2021 1.376 . S
C2018 C2016 1.394 1_545 S
C2018 C2019 1.369 . S
C2018 C2022 1.531 . S
C2019 C2018 1.369 . S
C2019 C2020 1.410 . S
C2019 C2027 1.503 . S
C2020 C2019 1.410 . S
C2020 C2021 1.392 1_545 S
C2020 C2023 1.511 . S
C2021 C2017 1.376 . S
C2021 C2020 1.392 1_565 S
C2021 H2033 0.929 . S
C2022 C2018 1.531 . S
C2022 H2034 0.960 . S
C2022 H2035 0.962 . S
C2022 H2036 0.960 . S
C2023 C2020 1.511 . S
C2023 H2037 0.961 . S
C2023 H2038 0.961 . S
C2023 H2039 0.961 . S
C2024 C2025 1.370 . S
C2024 C2026 1.363 . S
C2024 H2040 0.931 . S
C2025 C2024 1.370 . S
C2025 C2029 1.408 . S
C2026 C2024 1.363 . S
C2026 C2027 1.370 . S
C2026 C2030 1.524 . S
C2027 C2019 1.503 . S
C2027 C2026 1.370 . S
C2027 C2028 1.403 . S
C2028 C2027 1.403 . S
C2028 C2029 1.404 . S
C2028 C2031 1.539 . S
C2029 C2025 1.408 . S
C2029 C2028 1.404 . S
C2029 H2041 0.930 . S
C2030 C2026 1.524 . S
C2030 H2042 0.956 . S
C2030 H2043 0.961 . S
C2030 H2044 0.961 . S
C2031 C2028 1.539 . S
C2031 H2045 0.958 . S
C2031 H2046 0.961 . S
C2031 H2047 0.960 . S
H2032 C2016 0.931 . S
H2033 C2021 0.929 . S
H2034 C2022 0.960 . S
H2035 C2022 0.962 . S
H2036 C2022 0.960 . S
H2037 C2023 0.961 . S
H2038 C2023 0.961 . S
H2039 C2023 0.961 . S
H2040 C2024 0.931 . S
H2041 C2029 0.930 . S
H2042 C2030 0.956 . S
H2043 C2030 0.961 . S
H2044 C2030 0.961 . S
H2045 C2031 0.958 . S
H2046 C2031 0.961 . S
H2047 C2031 0.960 . S
C2048 C2049 1.391 . S
C2048 C2050 1.394 . S
C2048 H2064 0.931 . S
C2049 C2048 1.391 . S
C2049 C2053 1.376 . S
C2050 C2048 1.394 . S
C2050 C2051 1.369 . S
C2050 C2054 1.531 . S
C2051 C2050 1.369 . S
C2051 C2052 1.410 . S
C2051 C2059 1.503 . S
C2052 C2051 1.410 . S
C2052 C2053 1.392 . S
C2052 C2055 1.511 . S
C2053 C2049 1.376 . S
C2053 C2052 1.392 . S
C2053 H2065 0.929 . S
C2054 C2050 1.531 . S
C2054 H2066 0.960 . S
C2054 H2067 0.962 . S
C2054 H2068 0.960 . S
C2055 C2052 1.511 . S
C2055 H2069 0.961 . S
C2055 H2070 0.961 . S
C2055 H2071 0.961 . S
C2056 C2057 1.370 . S
C2056 C2058 1.363 1_545 S
C2056 H2072 0.931 . S
C2057 C2056 1.370 . S
C2057 C2061 1.408 . S
C2058 C2056 1.363 1_565 S
C2058 C2059 1.370 . S
C2058 C2062 1.524 . S
C2059 C2051 1.503 . S
C2059 C2058 1.370 . S
C2059 C2060 1.403 . S
C2060 C2059 1.403 . S
C2060 C2061 1.404 1_565 S
C2060 C2063 1.539 . S
C2061 C2057 1.408 . S
C2061 C2060 1.404 1_545 S
C2061 H2073 0.930 . S
C2062 C2058 1.524 . S
C2062 H2074 0.956 . S
C2062 H2075 0.961 . S
C2062 H2076 0.961 . S
C2063 C2060 1.539 . S
C2063 H2077 0.958 . S
C2063 H2078 0.961 . S
C2063 H2079 0.960 . S
H2064 C2048 0.931 . S
H2065 C2053 0.929 . S
H2066 C2054 0.960 . S
H2067 C2054 0.962 . S
H2068 C2054 0.960 . S
H2069 C2055 0.961 . S
H2070 C2055 0.961 . S
H2071 C2055 0.961 . S
H2072 C2056 0.931 . S
H2073 C2061 0.930 . S
H2074 C2062 0.956 . S
H2075 C2062 0.961 . S
H2076 C2062 0.961 . S
H2077 C2063 0.958 . S
H2078 C2063 0.961 . S
H2079 C2063 0.960 . S
C2080 C2081 1.391 . S
C2080 C2082 1.394 . S
C2080 H2096 0.931 . S
C2081 C2080 1.391 . S
C2081 C2085 1.376 . S
C2082 C2080 1.394 . S
C2082 C2083 1.369 . S
C2082 C2086 1.531 . S
C2083 C2082 1.369 . S
C2083 C2084 1.410 . S
C2083 C2091 1.503 . S
C2084 C2083 1.410 . S
C2084 C2085 1.392 . S
C2084 C2087 1.511 . S
C2085 C2081 1.376 . S
C2085 C2084 1.392 . S
C2085 H2097 0.929 . S
C2086 C2082 1.531 . S
C2086 H2098 0.960 . S
C2086 H2099 0.962 . S
C2086 H2100 0.960 . S
C2087 C2084 1.511 . S
C2087 H2101 0.961 . S
C2087 H2102 0.961 . S
C2087 H2103 0.961 . S
C2088 C2089 1.370 . S
C2088 C2090 1.363 1_565 S
C2088 H2104 0.931 . S
C2089 C2088 1.370 . S
C2089 C2093 1.408 . S
C2090 C2088 1.363 1_545 S
C2090 C2091 1.370 . S
C2090 C2094 1.524 . S
C2091 C2083 1.503 . S
C2091 C2090 1.370 . S
C2091 C2092 1.403 . S
C2092 C2091 1.403 . S
C2092 C2093 1.404 1_545 S
C2092 C2095 1.539 . S
C2093 C2089 1.408 . S
C2093 C2092 1.404 1_565 S
C2093 H2105 0.930 . S
C2094 C2090 1.524 . S
C2094 H2106 0.956 . S
C2094 H2107 0.961 . S
C2094 H2108 0.961 . S
C2095 C2092 1.539 . S
C2095 H2109 0.958 . S
C2095 H2110 0.961 . S
C2095 H2111 0.960 . S
H2096 C2080 0.931 . S
H2097 C2085 0.929 . S
H2098 C2086 0.960 . S
H2099 C2086 0.962 . S
H2100 C2086 0.960 . S
H2101 C2087 0.961 . S
H2102 C2087 0.961 . S
H2103 C2087 0.961 . S
H2104 C2088 0.931 . S
H2105 C2093 0.930 . S
H2106 C2094 0.956 . S
H2107 C2094 0.961 . S
H2108 C2094 0.961 . S
H2109 C2095 0.958 . S
H2110 C2095 0.961 . S
H2111 C2095 0.960 . S
C2112 C2113 1.391 . S
C2112 C2114 1.394 1_565 S
C2112 H2128 0.931 . S
C2113 C2112 1.391 . S
C2113 C2117 1.376 . S
C2114 C2112 1.394 1_545 S
C2114 C2115 1.369 . S
C2114 C2118 1.531 . S
C2115 C2114 1.369 . S
C2115 C2116 1.410 . S
C2115 C2123 1.503 . S
C2116 C2115 1.410 . S
C2116 C2117 1.392 1_545 S
C2116 C2119 1.511 . S
C2117 C2113 1.376 . S
C2117 C2116 1.392 1_565 S
C2117 H2129 0.929 . S
C2118 C2114 1.531 . S
C2118 H2130 0.960 . S
C2118 H2131 0.962 . S
C2118 H2132 0.960 . S
C2119 C2116 1.511 . S
C2119 H2133 0.961 . S
C2119 H2134 0.961 . S
C2119 H2135 0.961 . S
C2120 C2121 1.370 . S
C2120 C2122 1.363 . S
C2120 H2136 0.931 . S
C2121 C2120 1.370 . S
C2121 C2125 1.408 . S
C2122 C2120 1.363 . S
C2122 C2123 1.370 . S
C2122 C2126 1.524 . S
C2123 C2115 1.503 . S
C2123 C2122 1.370 . S
C2123 C2124 1.403 . S
C2124 C2123 1.403 . S
C2124 C2125 1.404 . S
C2124 C2127 1.539 . S
C2125 C2121 1.408 . S
C2125 C2124 1.404 . S
C2125 H2137 0.930 . S
C2126 C2122 1.524 . S
C2126 H2138 0.956 . S
C2126 H2139 0.961 . S
C2126 H2140 0.961 . S
C2127 C2124 1.539 . S
C2127 H2141 0.958 . S
C2127 H2142 0.961 . S
C2127 H2143 0.960 . S
H2128 C2112 0.931 . S
H2129 C2117 0.929 . S
H2130 C2118 0.960 . S
H2131 C2118 0.962 . S
H2132 C2118 0.960 . S
H2133 C2119 0.961 . S
H2134 C2119 0.961 . S
H2135 C2119 0.961 . S
H2136 C2120 0.931 . S
H2137 C2125 0.930 . S
H2138 C2126 0.956 . S
H2139 C2126 0.961 . S
H2140 C2126 0.961 . S
H2141 C2127 0.958 . S
H2142 C2127 0.961 . S
H2143 C2127 0.960 . S
C2144 C2145 1.391 . S
C2144 C2146 1.394 . S
C2144 H2160 0.931 . S
C2145 C2144 1.391 . S
C2145 C2149 1.376 . S
C2146 C2144 1.394 . S
C2146 C2147 1.369 . S
C2146 C2150 1.531 . S
C2147 C2146 1.369 . S
C2147 C2148 1.410 . S
C2147 C2155 1.503 . S
C2148 C2147 1.410 . S
C2148 C2149 1.392 . S
C2148 C2151 1.511 . S
C2149 C2145 1.376 . S
C2149 C2148 1.392 . S
C2149 H2161 0.929 . S
C2150 C2146 1.531 . S
C2150 H2162 0.960 . S
C2150 H2163 0.962 . S
C2150 H2164 0.960 . S
C2151 C2148 1.511 . S
C2151 H2165 0.961 . S
C2151 H2166 0.961 . S
C2151 H2167 0.961 . S
C2152 C2153 1.370 . S
C2152 C2154 1.363 1_545 S
C2152 H2168 0.931 . S
C2153 C2152 1.370 . S
C2153 C2157 1.408 . S
C2154 C2152 1.363 1_565 S
C2154 C2155 1.370 . S
C2154 C2158 1.524 . S
C2155 C2147 1.503 . S
C2155 C2154 1.370 . S
C2155 C2156 1.403 . S
C2156 C2155 1.403 . S
C2156 C2157 1.404 1_565 S
C2156 C2159 1.539 . S
C2157 C2153 1.408 . S
C2157 C2156 1.404 1_545 S
C2157 H2169 0.930 . S
C2158 C2154 1.524 . S
C2158 H2170 0.956 . S
C2158 H2171 0.961 . S
C2158 H2172 0.961 . S
C2159 C2156 1.539 . S
C2159 H2173 0.958 . S
C2159 H2174 0.961 . S
C2159 H2175 0.960 . S
H2160 C2144 0.931 . S
H2161 C2149 0.929 . S
H2162 C2150 0.960 . S
H2163 C2150 0.962 . S
H2164 C2150 0.960 . S
H2165 C2151 0.961 . S
H2166 C2151 0.961 . S
H2167 C2151 0.961 . S
H2168 C2152 0.931 . S
H2169 C2157 0.930 . S
H2170 C2158 0.956 . S
H2171 C2158 0.961 . S
H2172 C2158 0.961 . S
H2173 C2159 0.958 . S
H2174 C2159 0.961 . S
H2175 C2159 0.960 . S
C641 C19 1.544 . S
C649 C379 1.553 . S
C673 C59 1.545 . S
C681 C339 1.554 . S
C705 C459 1.539 . S
C713 C99 1.550 . S
C737 C139 1.541 . S
C745 C419 1.552 . S
C769 C530 1.539 . S
C777 C170 1.550 . S
C801 C490 1.540 . S
C809 C210 1.550 . S
C833 C610 1.543 . S
C841 C250 1.552 . S
C865 C290 1.556 . S
C873 C570 1.556 . S
C897 C98 1.688 . S
C905 C18 1.683 . S
C929 C138 1.669 . S
C937 C58 1.680 . S
C961 C249 1.678 . S
C969 C169 1.684 . S
C993 C209 1.660 . S
C1001 C289 1.675 . S
C1025 C418 1.686 . S
C1033 C338 1.681 . S
C1057 C458 1.661 . S
C1065 C378 1.673 . S
C1089 C489 1.679 . S
C1097 C569 1.676 . S
C1121 C529 1.663 . S
C1129 C609 1.673 . S
C1153 C218 1.480 . S
C1161 C9 1.501 . S
C1185 C178 1.535 . S
C1193 C49 1.526 . S
C1217 C89 1.535 . S
C1225 C298 1.523 . S
C1249 C258 1.545 . S
C1257 C129 1.528 . S
C1281 C329 1.482 . S
C1289 C538 1.502 . S
C1313 C498 1.511 . S
C1321 C369 1.517 . S
C1345 C409 1.524 . S
C1353 C618 1.522 . S
C1377 C578 1.545 . S
C1385 C449 1.529 . S
C1409 C50 1.609 . S
C1417 C10 1.638 . S
C1441 C130 1.645 . S
C1449 C90 1.626 . S
C1473 C219 1.649 . S
C1481 C179 1.615 . S
C1505 C259 1.619 . S
C1513 C299 1.634 . S
C1537 C370 1.649 . S
C1545 C330 1.617 . S
C1569 C450 1.614 . S
C1577 C410 1.637 . S
C1601 C499 1.649 . S
C1609 C539 1.619 . S
C1633 C579 1.598 . S
C1641 C619 1.632 . S
C1665 C6 1.619 . S
C1673 C15 1.632 . S
C1697 C46 1.615 . S
C1705 C55 1.631 . S
C1729 C86 1.622 . S
C1737 C95 1.631 . S
C1761 C135 1.635 . S
C1769 C126 1.623 . S
C1793 C175 1.619 . S
C1801 C166 1.630 . S
C1825 C206 1.610 . S
C1833 C215 1.635 . S
C1857 C255 1.637 . S
C1865 C246 1.622 . S
C1889 C295 1.615 . S
C1897 C286 1.632 . S
C1921 C335 1.606 . S
C1929 C326 1.636 . S
C1953 C366 1.630 . S
C1961 C375 1.625 . S
C1985 C415 1.606 . S
C1993 C406 1.636 . S
C2017 C455 1.627 . S
C2025 C446 1.629 . S
C2049 C495 1.616 . S
C2057 C486 1.633 . S
C2081 C535 1.621 . S
C2089 C526 1.631 . S
C2113 C566 1.607 . S
C2121 C575 1.636 . S
C2145 C615 1.608 . S
C2153 C606 1.636 . S
