# Generated by pormake.
# Topology uot, (4)-cn, num edge types: 1
# Building blocks:
#     Node 0, Type 0, BuildingBlock: QUQFOY_clean_sbu_1, # of connection points: 4
#     Node 1, Type 0, BuildingBlock: QUQFOY_clean_sbu_1, # of connection points: 4
#     Node 2, Type 0, BuildingBlock: QUQFOY_clean_sbu_1, # of connection points: 4
#     Node 3, Type 0, BuildingBlock: QUQFOY_clean_sbu_1, # of connection points: 4
#     Node 4, Type 0, BuildingBlock: QUQFOY_clean_sbu_1, # of connection points: 4
#     Node 5, Type 0, BuildingBlock: QUQFOY_clean_sbu_1, # of connection points: 4
#     Node 6, Type 0, BuildingBlock: QUQFOY_clean_sbu_1, # of connection points: 4
#     Node 7, Type 0, BuildingBlock: QUQFOY_clean_sbu_1, # of connection points: 4
#     Node 8, Type 0, BuildingBlock: QUQFOY_clean_sbu_1, # of connection points: 4
#     Node 9, Type 0, BuildingBlock: QUQFOY_clean_sbu_1, # of connection points: 4
#     Node 10, Type 0, BuildingBlock: QUQFOY_clean_sbu_1, # of connection points: 4
#     Node 11, Type 0, BuildingBlock: QUQFOY_clean_sbu_1, # of connection points: 4
#     Node 12, Type 0, BuildingBlock: QUQFOY_clean_sbu_1, # of connection points: 4
#     Node 13, Type 0, BuildingBlock: QUQFOY_clean_sbu_1, # of connection points: 4
#     Node 14, Type 0, BuildingBlock: QUQFOY_clean_sbu_1, # of connection points: 4
#     Node 15, Type 0, BuildingBlock: QUQFOY_clean_sbu_1, # of connection points: 4
#     Edge 16, Type (0, 0), BuildingBlock: ZUJKAS_clean_linker_0, # of connection points: 2
#     Edge 17, Type (0, 0), BuildingBlock: ZUJKAS_clean_linker_0, # of connection points: 2
#     Edge 18, Type (0, 0), BuildingBlock: ZUJKAS_clean_linker_0, # of connection points: 2
#     Edge 19, Type (0, 0), BuildingBlock: ZUJKAS_clean_linker_0, # of connection points: 2
#     Edge 20, Type (0, 0), BuildingBlock: ZUJKAS_clean_linker_0, # of connection points: 2
#     Edge 21, Type (0, 0), BuildingBlock: ZUJKAS_clean_linker_0, # of connection points: 2
#     Edge 22, Type (0, 0), BuildingBlock: ZUJKAS_clean_linker_0, # of connection points: 2
#     Edge 23, Type (0, 0), BuildingBlock: ZUJKAS_clean_linker_0, # of connection points: 2
#     Edge 24, Type (0, 0), BuildingBlock: ZUJKAS_clean_linker_0, # of connection points: 2
#     Edge 25, Type (0, 0), BuildingBlock: ZUJKAS_clean_linker_0, # of connection points: 2
#     Edge 26, Type (0, 0), BuildingBlock: ZUJKAS_clean_linker_0, # of connection points: 2
#     Edge 27, Type (0, 0), BuildingBlock: ZUJKAS_clean_linker_0, # of connection points: 2
#     Edge 28, Type (0, 0), BuildingBlock: ZUJKAS_clean_linker_0, # of connection points: 2
#     Edge 29, Type (0, 0), BuildingBlock: ZUJKAS_clean_linker_0, # of connection points: 2
#     Edge 30, Type (0, 0), BuildingBlock: ZUJKAS_clean_linker_0, # of connection points: 2
#     Edge 31, Type (0, 0), BuildingBlock: ZUJKAS_clean_linker_0, # of connection points: 2
#     Edge 32, Type (0, 0), BuildingBlock: ZUJKAS_clean_linker_0, # of connection points: 2
#     Edge 33, Type (0, 0), BuildingBlock: ZUJKAS_clean_linker_0, # of connection points: 2
#     Edge 34, Type (0, 0), BuildingBlock: ZUJKAS_clean_linker_0, # of connection points: 2
#     Edge 35, Type (0, 0), BuildingBlock: ZUJKAS_clean_linker_0, # of connection points: 2
#     Edge 36, Type (0, 0), BuildingBlock: ZUJKAS_clean_linker_0, # of connection points: 2
#     Edge 37, Type (0, 0), BuildingBlock: ZUJKAS_clean_linker_0, # of connection points: 2
#     Edge 38, Type (0, 0), BuildingBlock: ZUJKAS_clean_linker_0, # of connection points: 2
#     Edge 39, Type (0, 0), BuildingBlock: ZUJKAS_clean_linker_0, # of connection points: 2
#     Edge 40, Type (0, 0), BuildingBlock: ZUJKAS_clean_linker_0, # of connection points: 2
#     Edge 41, Type (0, 0), BuildingBlock: ZUJKAS_clean_linker_0, # of connection points: 2
#     Edge 42, Type (0, 0), BuildingBlock: ZUJKAS_clean_linker_0, # of connection points: 2
#     Edge 43, Type (0, 0), BuildingBlock: ZUJKAS_clean_linker_0, # of connection points: 2
#     Edge 44, Type (0, 0), BuildingBlock: ZUJKAS_clean_linker_0, # of connection points: 2
#     Edge 45, Type (0, 0), BuildingBlock: ZUJKAS_clean_linker_0, # of connection points: 2
#     Edge 46, Type (0, 0), BuildingBlock: ZUJKAS_clean_linker_0, # of connection points: 2
#     Edge 47, Type (0, 0), BuildingBlock: ZUJKAS_clean_linker_0, # of connection points: 2
# Relax obj value: 0.055
# Max RMSD: 0.082
# Mean RMSD: 0.082
data_MOF--net-uot--node1-QUQFOY_clean_sbu_1--edge1-ZUJKAS_clean_linker_0
_symmetry_space_group_name_H-M    P1
_symmetry_Int_Tables_number       1
_symmetry_cell_setting            triclinic
loop_
_symmetry_equiv_pos_as_xyz
'x, y, z'
_cell_length_a     59.65621
_cell_length_b     59.603346
_cell_length_c     57.03343
_cell_angle_alpha  90.022407
_cell_angle_beta   89.997053
_cell_angle_gamma 89.985143
loop_
_atom_site_label
_atom_site_type_symbol
_atom_site_fract_x
_atom_site_fract_y
_atom_site_fract_z
_atom_type_partial_charge
O0 O 0.176 0.40462 0.31135 0.0
Cd1 Cd 0.20333 0.42503 0.31755 0.0
Cd2 Cd 0.17563 0.44197 0.35094 0.0
O3 O 0.15602 0.41452 0.34219 0.0
O4 O 0.22925 0.40936 0.30278 0.0
O5 O 0.22665 0.4152 0.34099 0.0
C6 C 0.23754 0.40674 0.32349 0.0
C7 C 0.17972 0.45252 0.3903 0.0
C8 C 0.15868 0.4023 0.32411 0.0
C9 C 0.18811 0.47189 0.30992 0.0
O10 O 0.17571 0.46857 0.32773 0.0
O11 O 0.20195 0.45693 0.30338 0.0
O12 O 0.16098 0.4548 0.37935 0.0
O13 O 0.1962 0.4434 0.3791 0.0
O14 O 0.40615 0.83033 0.69609 0.0
Cd15 Cd 0.4268 0.80315 0.69013 0.0
Cd16 Cd 0.44459 0.83128 0.6575 0.0
O17 O 0.41785 0.85155 0.6669 0.0
O18 O 0.41105 0.77719 0.70471 0.0
O19 O 0.41735 0.77972 0.66659 0.0
C20 C 0.4087 0.76885 0.68399 0.0
C21 C 0.45446 0.82728 0.61794 0.0
C22 C 0.40481 0.84833 0.68422 0.0
C23 C 0.47381 0.818 0.69869 0.0
O24 O 0.47117 0.83021 0.68063 0.0
O25 O 0.45838 0.80464 0.70513 0.0
O26 O 0.45754 0.84583 0.62908 0.0
O27 O 0.44504 0.81095 0.62911 0.0
O28 O 0.83302 0.60544 0.31454 0.0
Cd29 Cd 0.80586 0.58418 0.31806 0.0
Cd30 Cd 0.83399 0.56535 0.35066 0.0
O31 O 0.85487 0.59176 0.34225 0.0
O32 O 0.78172 0.60145 0.30209 0.0
O33 O 0.78029 0.59243 0.33969 0.0
C34 C 0.77153 0.60269 0.32196 0.0
C35 C 0.82914 0.55487 0.3899 0.0
C36 C 0.85123 0.60594 0.32606 0.0
C37 C 0.82128 0.5374 0.30826 0.0
O38 O 0.83292 0.53951 0.32679 0.0
O39 O 0.80813 0.55305 0.3018 0.0
O40 O 0.84779 0.55158 0.37903 0.0
O41 O 0.81317 0.56476 0.37862 0.0
O42 O 0.6017 0.17547 0.69644 0.0
Cd43 Cd 0.58132 0.20288 0.69067 0.0
Cd44 Cd 0.56385 0.17537 0.65718 0.0
O45 O 0.59035 0.15482 0.66665 0.0
O46 O 0.59701 0.22834 0.70623 0.0
O47 O 0.59142 0.22678 0.66794 0.0
C48 C 0.59986 0.23713 0.6858 0.0
C49 C 0.5545 0.1798 0.61755 0.0
C50 C 0.60314 0.15768 0.68424 0.0
C51 C 0.53409 0.18826 0.69813 0.0
O52 O 0.53693 0.17633 0.67988 0.0
O53 O 0.54953 0.20137 0.70511 0.0
O54 O 0.55124 0.16115 0.62841 0.0
O55 O 0.56381 0.19599 0.62903 0.0
O56 O 0.17658 0.60585 0.69365 0.0
Cd57 Cd 0.2037 0.58481 0.68878 0.0
Cd58 Cd 0.1755 0.56568 0.65664 0.0
O59 O 0.15444 0.59163 0.66643 0.0
O60 O 0.22938 0.60089 0.70351 0.0
O61 O 0.22766 0.59361 0.66555 0.0
C62 C 0.23818 0.60268 0.68295 0.0
C63 C 0.17944 0.5559 0.61707 0.0
C64 C 0.15807 0.60586 0.68261 0.0
C65 C 0.18954 0.53743 0.69814 0.0
O66 O 0.1777 0.53927 0.67973 0.0
O67 O 0.20208 0.55353 0.70468 0.0
O68 O 0.16111 0.55225 0.62839 0.0
O69 O 0.19555 0.56588 0.62806 0.0
O70 O 0.59881 0.82623 0.30803 0.0
Cd71 Cd 0.57819 0.79975 0.31691 0.0
Cd72 Cd 0.56305 0.82875 0.34932 0.0
O73 O 0.59038 0.84748 0.33845 0.0
O74 O 0.59191 0.77188 0.30393 0.0
O75 O 0.58935 0.77883 0.34203 0.0
C76 C 0.59602 0.76591 0.32522 0.0
C77 C 0.55415 0.82545 0.38919 0.0
C78 C 0.60183 0.84401 0.31996 0.0
C79 C 0.53142 0.81574 0.3103 0.0
O80 O 0.53559 0.82883 0.32735 0.0
O81 O 0.54578 0.80116 0.30406 0.0
O82 O 0.55186 0.84413 0.3781 0.0
O83 O 0.56243 0.80861 0.37783 0.0
O84 O 0.83086 0.4038 0.69427 0.0
Cd85 Cd 0.80364 0.42483 0.68994 0.0
Cd86 Cd 0.83157 0.44392 0.65715 0.0
O87 O 0.85258 0.41782 0.66658 0.0
O88 O 0.77851 0.40883 0.7057 0.0
O89 O 0.77915 0.4154 0.66757 0.0
C90 C 0.76923 0.40651 0.68544 0.0
C91 C 0.82773 0.45401 0.61766 0.0
C92 C 0.84914 0.40363 0.68282 0.0
C93 C 0.81788 0.47231 0.69878 0.0
O94 O 0.82957 0.47034 0.68027 0.0
O95 O 0.80541 0.45626 0.70556 0.0
O96 O 0.84606 0.45746 0.62904 0.0
O97 O 0.81156 0.44402 0.62853 0.0
O98 O 0.40596 0.17826 0.31096 0.0
Cd99 Cd 0.42621 0.2058 0.31619 0.0
Cd100 Cd 0.44532 0.17831 0.3491 0.0
O101 O 0.41916 0.15725 0.33963 0.0
O102 O 0.40984 0.2314 0.30163 0.0
O103 O 0.41683 0.22934 0.33965 0.0
C104 C 0.40776 0.23993 0.3223 0.0
C105 C 0.45543 0.18172 0.38867 0.0
C106 C 0.40553 0.16017 0.32275 0.0
C107 C 0.47369 0.19238 0.30746 0.0
O108 O 0.47187 0.18067 0.32599 0.0
O109 O 0.4575 0.20461 0.3006 0.0
O110 O 0.45893 0.16353 0.37704 0.0
O111 O 0.44541 0.198 0.37802 0.0
O112 O 0.67785 0.90361 0.81209 0.0
Cd113 Cd 0.70518 0.92418 0.81749 0.0
Cd114 Cd 0.67771 0.94201 0.85088 0.0
O115 O 0.65744 0.91509 0.84201 0.0
O116 O 0.731 0.90816 0.80297 0.0
O117 O 0.72863 0.9149 0.84103 0.0
C118 C 0.73939 0.90599 0.82368 0.0
C119 C 0.68148 0.95293 0.89019 0.0
C120 C 0.66021 0.90216 0.8245 0.0
C121 C 0.69032 0.97115 0.80923 0.0
O122 O 0.67845 0.96842 0.82752 0.0
O123 O 0.70357 0.95575 0.80244 0.0
O124 O 0.66294 0.95547 0.87893 0.0
O125 O 0.69789 0.94329 0.87937 0.0
O126 O 0.90515 0.3329 0.19456 0.0
Cd127 Cd 0.9246 0.30433 0.1926 0.0
Cd128 Cd 0.94863 0.33141 0.16126 0.0
O129 O 0.92453 0.35478 0.17075 0.0
O130 O 0.90598 0.28074 0.20788 0.0
O131 O 0.9154 0.27948 0.17044 0.0
C132 C 0.90476 0.2707 0.18791 0.0
C133 C 0.9604 0.32965 0.12212 0.0
C134 C 0.90811 0.35176 0.18465 0.0
C135 C 0.97267 0.31393 0.20451 0.0
O136 O 0.97346 0.3247 0.18531 0.0
O137 O 0.95462 0.30442 0.21098 0.0
O138 O 0.96619 0.3459 0.1357 0.0
O139 O 0.94717 0.31449 0.1305 0.0
O140 O 0.32963 0.10118 0.81168 0.0
Cd141 Cd 0.30208 0.08107 0.8176 0.0
Cd142 Cd 0.3296 0.06357 0.85118 0.0
O143 O 0.35019 0.09 0.84159 0.0
O144 O 0.27687 0.09694 0.80182 0.0
O145 O 0.27829 0.09174 0.84017 0.0
C146 C 0.26812 0.10018 0.82221 0.0
C147 C 0.32548 0.0541 0.89083 0.0
C148 C 0.34739 0.10266 0.82388 0.0
C149 C 0.31652 0.03373 0.81029 0.0
O150 O 0.3285 0.03663 0.82848 0.0
O151 O 0.30339 0.04916 0.80331 0.0
O152 O 0.34402 0.05084 0.87978 0.0
O153 O 0.30923 0.0635 0.87954 0.0
O154 O 0.10299 0.67776 0.19752 0.0
Cd155 Cd 0.08223 0.7047 0.19042 0.0
Cd156 Cd 0.06601 0.67609 0.15781 0.0
O157 O 0.09342 0.65688 0.16722 0.0
O158 O 0.09718 0.73118 0.20492 0.0
O159 O 0.09208 0.72773 0.16667 0.0
C160 C 0.09999 0.73912 0.1841 0.0
C161 C 0.05625 0.68023 0.11827 0.0
C162 C 0.1055 0.66009 0.18528 0.0
C163 C 0.03557 0.68882 0.19805 0.0
O164 O 0.03929 0.67587 0.18077 0.0
O165 O 0.05011 0.7033 0.20409 0.0
O166 O 0.05387 0.66141 0.12908 0.0
O167 O 0.06493 0.69677 0.12976 0.0
O168 O 0.67729 0.09876 0.19895 0.0
Cd169 Cd 0.70462 0.07885 0.19134 0.0
Cd170 Cd 0.67684 0.06389 0.15723 0.0
O171 O 0.65731 0.09096 0.16748 0.0
O172 O 0.73043 0.09394 0.20688 0.0
O173 O 0.7277 0.09024 0.1684 0.0
C174 C 0.73851 0.09795 0.18633 0.0
C175 C 0.68133 0.05526 0.11743 0.0
C176 C 0.66 0.10198 0.18637 0.0
C177 C 0.68928 0.03181 0.19646 0.0
O178 O 0.67679 0.03618 0.17898 0.0
O179 O 0.70334 0.04627 0.20371 0.0
O180 O 0.66244 0.05253 0.128 0.0
O181 O 0.69769 0.06379 0.12929 0.0
O182 O 0.10217 0.33412 0.81085 0.0
Cd183 Cd 0.08209 0.30628 0.8162 0.0
Cd184 Cd 0.06385 0.33449 0.84928 0.0
O185 O 0.09049 0.35494 0.84043 0.0
O186 O 0.09845 0.28116 0.80076 0.0
O187 O 0.09231 0.28243 0.83896 0.0
C188 C 0.10112 0.27228 0.82117 0.0
C189 C 0.05229 0.33187 0.88843 0.0
C190 C 0.1035 0.35195 0.82304 0.0
C191 C 0.03507 0.32048 0.8077 0.0
O192 O 0.03787 0.33293 0.82554 0.0
O193 O 0.05038 0.30693 0.80138 0.0
O194 O 0.04881 0.34965 0.87615 0.0
O195 O 0.06328 0.31563 0.8788 0.0
O196 O 0.32805 0.9054 0.19772 0.0
Cd197 Cd 0.3012 0.92637 0.1916 0.0
Cd198 Cd 0.32907 0.94305 0.15828 0.0
O199 O 0.34881 0.91589 0.16769 0.0
O200 O 0.2749 0.91103 0.20592 0.0
O201 O 0.278 0.91714 0.1678 0.0
C202 C 0.26684 0.90865 0.18508 0.0
C203 C 0.32516 0.95304 0.11874 0.0
C204 C 0.34571 0.90334 0.18544 0.0
C205 C 0.31682 0.97314 0.19926 0.0
O206 O 0.32878 0.96991 0.18112 0.0
O207 O 0.30322 0.9581 0.20616 0.0
O208 O 0.34383 0.95556 0.12977 0.0
O209 O 0.30867 0.94398 0.12996 0.0
O210 O 0.90518 0.67585 0.81303 0.0
Cd211 Cd 0.9259 0.703 0.81941 0.0
Cd212 Cd 0.94274 0.67454 0.85205 0.0
O213 O 0.91534 0.6551 0.8432 0.0
O214 O 0.91055 0.72907 0.80454 0.0
O215 O 0.91605 0.72643 0.84278 0.0
C216 C 0.90782 0.73739 0.82522 0.0
C217 C 0.95332 0.67887 0.89135 0.0
C218 C 0.90295 0.65821 0.82535 0.0
C219 C 0.97254 0.68715 0.81121 0.0
O220 O 0.96908 0.67432 0.82864 0.0
O221 O 0.95788 0.70156 0.80527 0.0
O222 O 0.95555 0.66003 0.88054 0.0
O223 O 0.94423 0.69531 0.88005 0.0
H224 H 0.26407 0.38822 0.28971 0.0
H225 H 0.29625 0.36348 0.29498 0.0
H226 H 0.29043 0.37015 0.37002 0.0
H227 H 0.25786 0.39482 0.36491 0.0
H228 H 0.33762 0.37001 0.31779 0.0
H229 H 0.28768 0.30192 0.35945 0.0
H230 H 0.27473 0.32514 0.34432 0.0
H231 H 0.28615 0.32904 0.37316 0.0
C232 C 0.26966 0.38457 0.30737 0.0
C233 C 0.25826 0.39338 0.3269 0.0
C234 C 0.28812 0.37044 0.31034 0.0
C235 C 0.29555 0.3647 0.33288 0.0
C236 C 0.28473 0.37405 0.35246 0.0
H237 H 0.39498 0.25943 0.36387 0.0
H238 H 0.37 0.29179 0.36914 0.0
C239 C 0.2662 0.38825 0.34951 0.0
C240 C 0.31421 0.3484 0.33555 0.0
H241 H 0.32588 0.2948 0.35292 0.0
C242 C 0.33513 0.35365 0.3257 0.0
C243 C 0.31096 0.32708 0.34594 0.0
C244 C 0.28866 0.32027 0.35619 0.0
C245 C 0.35271 0.33797 0.32543 0.0
C246 C 0.34916 0.31634 0.33493 0.0
C247 C 0.32857 0.3114 0.34567 0.0
C248 C 0.36576 0.29797 0.33202 0.0
C249 C 0.37486 0.34464 0.31475 0.0
C250 C 0.37165 0.29071 0.30944 0.0
C251 C 0.38581 0.27229 0.30639 0.0
C252 C 0.39435 0.26061 0.32586 0.0
C253 C 0.38878 0.26813 0.34851 0.0
C254 C 0.37449 0.28658 0.35156 0.0
H255 H 0.37727 0.36312 0.31524 0.0
H256 H 0.38909 0.3365 0.32399 0.0
H257 H 0.37522 0.3393 0.29611 0.0
H258 H 0.36474 0.29891 0.29411 0.0
H259 H 0.38967 0.26691 0.2887 0.0
H260 H 0.39073 0.7418 0.7176 0.0
H261 H 0.36587 0.70978 0.71221 0.0
H262 H 0.37113 0.71686 0.63717 0.0
H263 H 0.396 0.74928 0.64243 0.0
H264 H 0.32722 0.71372 0.65294 0.0
H265 H 0.3782 0.64561 0.69157 0.0
H266 H 0.37593 0.66941 0.71069 0.0
H267 H 0.3901 0.67223 0.68298 0.0
C268 C 0.3869 0.7364 0.69991 0.0
C269 C 0.39539 0.74811 0.68044 0.0
C270 C 0.37277 0.71796 0.69686 0.0
C271 C 0.3669 0.71068 0.67429 0.0
C272 C 0.3756 0.72208 0.65475 0.0
H273 H 0.25916 0.61357 0.64158 0.0
H274 H 0.29192 0.638 0.63642 0.0
C275 C 0.38984 0.74057 0.65779 0.0
C276 C 0.3503 0.69231 0.67139 0.0
H277 H 0.33848 0.63883 0.68898 0.0
C278 C 0.32982 0.69718 0.66039 0.0
C279 C 0.35373 0.67074 0.68112 0.0
C280 C 0.37578 0.66409 0.69204 0.0
C281 C 0.31219 0.68154 0.6601 0.0
C282 C 0.31529 0.66033 0.67077 0.0
C283 C 0.33611 0.65512 0.68087 0.0
C284 C 0.29655 0.64416 0.67351 0.0
C285 C 0.28999 0.68828 0.64953 0.0
C286 C 0.28877 0.63892 0.69605 0.0
C287 C 0.2702 0.62496 0.69905 0.0
C288 C 0.25904 0.6158 0.67955 0.0
C289 C 0.26733 0.62041 0.65696 0.0
C290 C 0.28596 0.63447 0.65397 0.0
H291 H 0.28913 0.70657 0.64587 0.0
H292 H 0.28754 0.67918 0.63275 0.0
H293 H 0.27597 0.68373 0.66142 0.0
H294 H 0.29673 0.64615 0.71137 0.0
H295 H 0.26434 0.62171 0.7167 0.0
H296 H 0.632 0.7625 0.3541 0.0
H297 H 0.65895 0.73155 0.35588 0.0
H298 H 0.61691 0.69258 0.30961 0.0
H299 H 0.59109 0.72437 0.30617 0.0
H300 H 0.66167 0.69111 0.36879 0.0
H301 H 0.67177 0.69014 0.27233 0.0
H302 H 0.65511 0.71101 0.28699 0.0
H303 H 0.6436 0.68366 0.28069 0.0
C304 C 0.62848 0.7472 0.34451 0.0
C305 C 0.60969 0.7458 0.32981 0.0
C306 C 0.64388 0.7295 0.34551 0.0
C307 C 0.64045 0.70988 0.33223 0.0
C308 C 0.62055 0.70783 0.31917 0.0
H309 H 0.73542 0.59679 0.35125 0.0
H310 H 0.70212 0.62085 0.35436 0.0
C311 C 0.60563 0.72586 0.31745 0.0
C312 C 0.65821 0.69225 0.33121 0.0
H313 H 0.68983 0.66122 0.29325 0.0
C314 C 0.6679 0.68466 0.35225 0.0
C315 C 0.66669 0.68397 0.30964 0.0
C316 C 0.65892 0.6928 0.28617 0.0
C317 C 0.68599 0.66949 0.35233 0.0
C318 C 0.69392 0.66066 0.33078 0.0
C319 C 0.68379 0.66781 0.30982 0.0
C320 C 0.71373 0.64542 0.32909 0.0
C321 C 0.697 0.66403 0.37546 0.0
C322 C 0.73098 0.65051 0.31315 0.0
C323 C 0.7494 0.6363 0.31065 0.0
C324 C 0.75138 0.61691 0.32444 0.0
C325 C 0.73434 0.61176 0.34055 0.0
C326 C 0.71544 0.62566 0.34251 0.0
H327 H 0.69351 0.67712 0.38886 0.0
H328 H 0.69022 0.64793 0.38217 0.0
H329 H 0.71544 0.6624 0.37355 0.0
H330 H 0.73026 0.66561 0.30261 0.0
H331 H 0.76239 0.6408 0.29823 0.0
H332 H 0.61797 0.26278 0.7205 0.0
H333 H 0.64404 0.29405 0.71648 0.0
H334 H 0.63979 0.28908 0.64119 0.0
H335 H 0.61342 0.25769 0.64504 0.0
H336 H 0.6858 0.28975 0.69314 0.0
H337 H 0.63338 0.35745 0.65423 0.0
H338 H 0.62135 0.33359 0.66919 0.0
H339 H 0.63239 0.33046 0.64011 0.0
C340 C 0.62227 0.26849 0.70305 0.0
C341 C 0.61364 0.25767 0.68308 0.0
C342 C 0.63719 0.2864 0.7008 0.0
C343 C 0.64376 0.29398 0.67856 0.0
C344 C 0.63468 0.28371 0.65853 0.0
H345 H 0.74867 0.39252 0.64484 0.0
H346 H 0.71753 0.36575 0.64133 0.0
C347 C 0.61968 0.26573 0.66076 0.0
C348 C 0.66151 0.31131 0.67667 0.0
H349 H 0.6718 0.36546 0.66007 0.0
C350 C 0.68274 0.30628 0.68584 0.0
C351 C 0.65754 0.33277 0.66691 0.0
C352 C 0.63492 0.33908 0.65716 0.0
C353 C 0.70003 0.32221 0.68589 0.0
C354 C 0.69587 0.34394 0.67692 0.0
C355 C 0.67486 0.34882 0.66705 0.0
C356 C 0.71298 0.36191 0.67874 0.0
C357 C 0.72264 0.31562 0.69559 0.0
C358 C 0.72016 0.36916 0.70089 0.0
C359 C 0.73788 0.38433 0.70295 0.0
C360 C 0.7487 0.39271 0.68288 0.0
C361 C 0.74071 0.38634 0.66064 0.0
C362 C 0.72294 0.37105 0.65859 0.0
H363 H 0.72488 0.29711 0.6958 0.0
H364 H 0.73641 0.32319 0.68516 0.0
H365 H 0.72409 0.32177 0.71389 0.0
H366 H 0.71243 0.36261 0.71665 0.0
H367 H 0.74346 0.38902 0.72035 0.0
H368 H 0.76594 0.88697 0.79022 0.0
H369 H 0.79787 0.86198 0.79591 0.0
H370 H 0.79181 0.86946 0.87084 0.0
H371 H 0.75951 0.89441 0.86532 0.0
H372 H 0.8393 0.86832 0.81914 0.0
H373 H 0.78812 0.80108 0.86068 0.0
H374 H 0.77561 0.8243 0.84515 0.0
H375 H 0.78675 0.82835 0.87409 0.0
C376 C 0.77144 0.88346 0.80794 0.0
C377 C 0.76004 0.89257 0.82733 0.0
C378 C 0.78974 0.86918 0.81115 0.0
C379 C 0.79702 0.86359 0.83379 0.0
C380 C 0.78622 0.87325 0.85322 0.0
H381 H 0.89444 0.757 0.86652 0.0
H382 H 0.86983 0.7897 0.87129 0.0
C383 C 0.76786 0.88762 0.85002 0.0
C384 C 0.81545 0.84708 0.83673 0.0
H385 H 0.82627 0.79342 0.8545 0.0
C386 C 0.83654 0.85203 0.82709 0.0
C387 C 0.81183 0.82586 0.84719 0.0
C388 C 0.78934 0.81939 0.85725 0.0
C389 C 0.85393 0.83613 0.82713 0.0
C390 C 0.85001 0.81458 0.83668 0.0
C391 C 0.82924 0.80995 0.84719 0.0
C392 C 0.86643 0.796 0.8341 0.0
C393 C 0.87628 0.84251 0.81672 0.0
C394 C 0.87268 0.78868 0.81164 0.0
C395 C 0.88666 0.77008 0.80887 0.0
C396 C 0.89463 0.75825 0.82851 0.0
C397 C 0.88868 0.76581 0.85105 0.0
C398 C 0.8746 0.78445 0.8538 0.0
H399 H 0.87894 0.86096 0.81729 0.0
H400 H 0.89031 0.83416 0.82609 0.0
H401 H 0.87676 0.83722 0.79807 0.0
H402 H 0.86619 0.79698 0.79617 0.0
H403 H 0.8908 0.76467 0.79126 0.0
H404 H 0.75839 0.11252 0.14558 0.0
H405 H 0.78902 0.1398 0.14182 0.0
H406 H 0.79436 0.14341 0.2171 0.0
H407 H 0.76393 0.11634 0.22106 0.0
H408 H 0.78805 0.18576 0.19257 0.0
H409 H 0.85811 0.13473 0.15611 0.0
H410 H 0.831 0.13218 0.14248 0.0
H411 H 0.83498 0.12222 0.17184 0.0
C412 C 0.76635 0.11884 0.16132 0.0
C413 C 0.75865 0.1123 0.18362 0.0
C414 C 0.78389 0.13436 0.15913 0.0
C415 C 0.79401 0.14352 0.17919 0.0
C416 C 0.78681 0.13649 0.2014 0.0
H417 H 0.88441 0.24671 0.22249 0.0
H418 H 0.85824 0.21556 0.21828 0.0
C419 C 0.76939 0.12099 0.20361 0.0
C420 C 0.81079 0.16179 0.17737 0.0
H421 H 0.86511 0.17323 0.16253 0.0
C422 C 0.80487 0.18305 0.1859 0.0
C423 C 0.83261 0.15824 0.16841 0.0
C424 C 0.83975 0.13561 0.15927 0.0
C425 C 0.82029 0.2008 0.18612 0.0
C426 C 0.84243 0.19706 0.1781 0.0
C427 C 0.84818 0.17599 0.16881 0.0
C428 C 0.85995 0.2146 0.1804 0.0
C429 C 0.8127 0.22343 0.19497 0.0
C430 C 0.87041 0.22378 0.16054 0.0
C431 C 0.88561 0.24159 0.1629 0.0
C432 C 0.89059 0.25043 0.18519 0.0
C433 C 0.88078 0.2405 0.20505 0.0
C434 C 0.86573 0.22272 0.20268 0.0
H435 H 0.7942 0.22528 0.19389 0.0
H436 H 0.81761 0.22525 0.21364 0.0
H437 H 0.82062 0.23724 0.18487 0.0
H438 H 0.86629 0.21764 0.14319 0.0
H439 H 0.89292 0.24885 0.14726 0.0
H440 H 0.1198 0.24693 0.78656 0.0
H441 H 0.14561 0.21545 0.79072 0.0
H442 H 0.14037 0.21991 0.86597 0.0
H443 H 0.11421 0.25149 0.86198 0.0
H444 H 0.18701 0.21871 0.81427 0.0
H445 H 0.1332 0.1519 0.85268 0.0
H446 H 0.12168 0.17614 0.83795 0.0
H447 H 0.1327 0.17875 0.8671 0.0
C448 C 0.12385 0.24107 0.80403 0.0
C449 C 0.11497 0.25178 0.82395 0.0
C450 C 0.13863 0.22306 0.80636 0.0
C451 C 0.14481 0.21524 0.82863 0.0
C452 C 0.13554 0.22545 0.8486 0.0
H453 H 0.24818 0.11512 0.86279 0.0
H454 H 0.2176 0.14255 0.86624 0.0
C455 C 0.12068 0.24354 0.84629 0.0
C456 C 0.16227 0.1976 0.83064 0.0
H457 H 0.17156 0.14328 0.8473 0.0
C458 C 0.18363 0.20224 0.82156 0.0
C459 C 0.15789 0.17621 0.84037 0.0
C460 C 0.1351 0.17026 0.84997 0.0
C461 C 0.20063 0.186 0.82158 0.0
C462 C 0.19607 0.16436 0.83056 0.0
C463 C 0.17494 0.15986 0.84033 0.0
C464 C 0.21285 0.14608 0.82882 0.0
C465 C 0.22338 0.19213 0.81193 0.0
C466 C 0.21976 0.13848 0.8067 0.0
C467 C 0.23714 0.12291 0.80467 0.0
C468 C 0.24793 0.1145 0.82476 0.0
C469 C 0.24024 0.1213 0.84699 0.0
C470 C 0.22279 0.13696 0.84899 0.0
H471 H 0.22592 0.2106 0.81152 0.0
H472 H 0.23698 0.18444 0.82251 0.0
H473 H 0.22483 0.18576 0.79371 0.0
H474 H 0.21205 0.14504 0.79093 0.0
H475 H 0.24249 0.11793 0.78729 0.0
H476 H 0.23952 0.89045 0.21833 0.0
H477 H 0.20769 0.86539 0.21242 0.0
H478 H 0.21522 0.87151 0.13751 0.0
H479 H 0.24743 0.89653 0.14326 0.0
H480 H 0.16669 0.87101 0.18819 0.0
H481 H 0.21922 0.8034 0.14911 0.0
H482 H 0.23125 0.827 0.16442 0.0
H483 H 0.22062 0.83041 0.13519 0.0
C484 C 0.23435 0.88665 0.20056 0.0
C485 C 0.24615 0.89537 0.18125 0.0
C486 C 0.2161 0.87233 0.19723 0.0
C487 C 0.20929 0.86632 0.17455 0.0
C488 C 0.22045 0.87564 0.15517 0.0
H489 H 0.11361 0.75802 0.14254 0.0
H490 H 0.13779 0.79096 0.13736 0.0
C491 C 0.23876 0.89004 0.15849 0.0
C492 C 0.19105 0.84963 0.17153 0.0
H493 H 0.18107 0.79552 0.15477 0.0
C494 C 0.16975 0.85459 0.18065 0.0
C495 C 0.19505 0.82823 0.16161 0.0
C496 C 0.21778 0.82176 0.15215 0.0
C497 C 0.15252 0.83853 0.18065 0.0
C498 C 0.15682 0.81682 0.17166 0.0
C499 C 0.17781 0.81217 0.16163 0.0
C500 C 0.14059 0.79812 0.17444 0.0
C501 C 0.12993 0.8449 0.19051 0.0
C502 C 0.13416 0.79122 0.19697 0.0
C503 C 0.12043 0.77246 0.19998 0.0
C504 C 0.11291 0.76009 0.18051 0.0
C505 C 0.11902 0.76725 0.15789 0.0
C506 C 0.13286 0.78603 0.15489 0.0
H507 H 0.12709 0.86329 0.18947 0.0
H508 H 0.11616 0.83619 0.18109 0.0
H509 H 0.12921 0.84001 0.20927 0.0
H510 H 0.14032 0.79994 0.21233 0.0
H511 H 0.11614 0.76739 0.21765 0.0
H512 H 0.16029 0.50711 0.31942 0.0
H513 H 0.15196 0.53927 0.29446 0.0
H514 H 0.20018 0.51611 0.24364 0.0
H515 H 0.20876 0.48368 0.26859 0.0
H516 H 0.19983 0.56538 0.25398 0.0
H517 H 0.11662 0.52968 0.23142 0.0
H518 H 0.12254 0.53076 0.2623 0.0
H519 H 0.13903 0.51297 0.2436 0.0
C520 C 0.16934 0.50888 0.30306 0.0
C521 C 0.18505 0.49264 0.29591 0.0
C522 C 0.16451 0.52728 0.2888 0.0
C523 C 0.17522 0.52985 0.2671 0.0
C524 C 0.19167 0.51432 0.26032 0.0
H525 H 0.11433 0.61959 0.16443 0.0
H526 H 0.13506 0.58802 0.18112 0.0
C527 C 0.19653 0.49582 0.27459 0.0
C528 C 0.16824 0.54815 0.25115 0.0
H529 H 0.12275 0.56788 0.22138 0.0
C530 C 0.18308 0.56588 0.2466 0.0
C531 C 0.14652 0.54852 0.24125 0.0
C532 C 0.13028 0.52938 0.24466 0.0
C533 C 0.17635 0.58452 0.23321 0.0
C534 C 0.15416 0.58547 0.22445 0.0
C535 C 0.13972 0.56723 0.22818 0.0
C536 C 0.14492 0.60565 0.21264 0.0
C537 C 0.19301 0.60305 0.22869 0.0
C538 C 0.14393 0.62622 0.22459 0.0
C539 C 0.13215 0.64434 0.21507 0.0
C540 C 0.12089 0.64217 0.1935 0.0
C541 C 0.12275 0.62185 0.18108 0.0
C542 C 0.1346 0.60377 0.1906 0.0
H543 H 0.21052 0.59676 0.2297 0.0
H544 H 0.19032 0.61079 0.21121 0.0
H545 H 0.19098 0.61625 0.24224 0.0
H546 H 0.15131 0.62796 0.24184 0.0
H547 H 0.13103 0.65969 0.22516 0.0
H548 H 0.48337 0.79926 0.74162 0.0
H549 H 0.515 0.80836 0.76744 0.0
H550 H 0.54183 0.85255 0.71463 0.0
H551 H 0.51046 0.84372 0.68882 0.0
H552 H 0.56416 0.80646 0.76026 0.0
H553 H 0.53111 0.89252 0.77394 0.0
H554 H 0.51416 0.87 0.76234 0.0
H555 H 0.53362 0.8845 0.74368 0.0
C556 C 0.49617 0.81068 0.73537 0.0
C557 C 0.49423 0.82095 0.71323 0.0
C558 C 0.51421 0.81585 0.75016 0.0
C559 C 0.5305 0.8314 0.74306 0.0
C560 C 0.52921 0.84077 0.72056 0.0
H561 H 0.65996 0.87338 0.78712 0.0
H562 H 0.62798 0.85312 0.77105 0.0
C563 C 0.51127 0.83564 0.7058 0.0
C564 C 0.54828 0.83889 0.7594 0.0
H565 H 0.56863 0.88581 0.78622 0.0
C566 C 0.56506 0.82373 0.7662 0.0
C567 C 0.54915 0.86131 0.76746 0.0
C568 C 0.53095 0.87801 0.76169 0.0
C569 C 0.58334 0.83075 0.77995 0.0
C570 C 0.58491 0.85353 0.78679 0.0
C571 C 0.56752 0.86837 0.78089 0.0
C572 C 0.60502 0.8629 0.7986 0.0
C573 C 0.60084 0.81374 0.7869 0.0
C574 C 0.60285 0.87513 0.81953 0.0
C575 C 0.62111 0.88696 0.82871 0.0
C576 C 0.64188 0.88691 0.81701 0.0
C577 C 0.64425 0.87379 0.79664 0.0
C578 C 0.62598 0.86201 0.78748 0.0
H579 H 0.59378 0.7965 0.7872 0.0
H580 H 0.61465 0.81401 0.77387 0.0
H581 H 0.60798 0.81759 0.80443 0.0
H582 H 0.58679 0.87616 0.82835 0.0
H583 H 0.61868 0.89686 0.84442 0.0
H584 H 0.8652 0.34983 0.20111 0.0
H585 H 0.84254 0.38078 0.21631 0.0
H586 H 0.89572 0.42718 0.19956 0.0
H587 H 0.91786 0.39649 0.18324 0.0
H588 H 0.85081 0.40397 0.2524 0.0
H589 H 0.8444 0.46433 0.17968 0.0
H590 H 0.85418 0.436 0.17522 0.0
H591 H 0.87328 0.45769 0.18464 0.0
C592 C 0.8718 0.36674 0.20015 0.0
C593 C 0.8933 0.37075 0.19097 0.0
C594 C 0.85885 0.38443 0.20886 0.0
C595 C 0.86722 0.40647 0.20889 0.0
C596 C 0.88848 0.41054 0.19912 0.0
H597 H 0.85202 0.50418 0.31444 0.0
H598 H 0.85924 0.472 0.2895 0.0
C599 C 0.90125 0.39291 0.18994 0.0
C600 C 0.85506 0.42459 0.22162 0.0
H601 H 0.84122 0.48016 0.21899 0.0
C602 C 0.84833 0.42048 0.24484 0.0
C603 C 0.85124 0.44609 0.21181 0.0
C604 C 0.85594 0.45117 0.18637 0.0
C605 C 0.83924 0.43753 0.25888 0.0
C606 C 0.83759 0.45956 0.2498 0.0
C607 C 0.84291 0.46339 0.22615 0.0
C608 C 0.83234 0.47905 0.26511 0.0
C609 C 0.83177 0.43173 0.28343 0.0
C610 C 0.8152 0.49428 0.25938 0.0
C611 C 0.8112 0.51311 0.27354 0.0
C612 C 0.82431 0.51701 0.29365 0.0
C613 C 0.84138 0.50164 0.29928 0.0
C614 C 0.84546 0.48305 0.28508 0.0
H615 H 0.8261 0.414 0.28449 0.0
H616 H 0.84613 0.43368 0.29562 0.0
H617 H 0.81791 0.44276 0.2894 0.0
H618 H 0.80499 0.49164 0.24391 0.0
H619 H 0.79801 0.52468 0.26863 0.0
H620 H 0.49682 0.16427 0.68637 0.0
H621 H 0.46481 0.15524 0.7112 0.0
H622 H 0.49247 0.19565 0.76684 0.0
H623 H 0.52464 0.20502 0.74195 0.0
H624 H 0.46948 0.13274 0.75416 0.0
H625 H 0.42557 0.21446 0.76492 0.0
H626 H 0.4454 0.20933 0.74158 0.0
H627 H 0.45519 0.21436 0.77087 0.0
C628 C 0.496 0.17157 0.70374 0.0
C629 C 0.51339 0.1853 0.71219 0.0
C630 C 0.47766 0.16637 0.71792 0.0
C631 C 0.47623 0.17482 0.74082 0.0
C632 C 0.4931 0.1892 0.74909 0.0
H633 H 0.38941 0.10747 0.84287 0.0
H634 H 0.4213 0.1275 0.82581 0.0
C635 C 0.5115 0.19448 0.73486 0.0
C636 C 0.45801 0.16691 0.75644 0.0
H637 H 0.41098 0.18353 0.78593 0.0
C638 C 0.45676 0.14386 0.76125 0.0
C639 C 0.44144 0.18147 0.76556 0.0
C640 C 0.44174 0.20628 0.7604 0.0
C641 C 0.43916 0.13486 0.77453 0.0
C642 C 0.42253 0.14937 0.78364 0.0
C643 C 0.42391 0.1725 0.77913 0.0
C644 C 0.40269 0.14041 0.79618 0.0
C645 C 0.43805 0.10975 0.77793 0.0
C646 C 0.38144 0.14198 0.7858 0.0
C647 C 0.36317 0.13065 0.79553 0.0
C648 C 0.3658 0.11755 0.81589 0.0
C649 C 0.38681 0.11724 0.82709 0.0
C650 C 0.40509 0.12862 0.81733 0.0
H651 H 0.44957 0.10068 0.7659 0.0
H652 H 0.44291 0.1056 0.79619 0.0
H653 H 0.42075 0.10349 0.77499 0.0
H654 H 0.37922 0.15107 0.76952 0.0
H655 H 0.34721 0.13142 0.78652 0.0
H656 H 0.16597 0.49949 0.68786 0.0
H657 H 0.15731 0.46827 0.71392 0.0
H658 H 0.19819 0.49778 0.76805 0.0
H659 H 0.20705 0.52936 0.742 0.0
H660 H 0.20118 0.44673 0.76008 0.0
H661 H 0.11552 0.48117 0.77306 0.0
H662 H 0.12454 0.47925 0.74304 0.0
H663 H 0.13864 0.49806 0.76273 0.0
C664 C 0.1734 0.4993 0.70518 0.0
C665 C 0.18702 0.5171 0.71291 0.0
C666 C 0.1684 0.48142 0.72005 0.0
C667 C 0.17689 0.48092 0.74295 0.0
C668 C 0.19145 0.49796 0.75042 0.0
H669 H 0.10943 0.39328 0.84328 0.0
H670 H 0.13084 0.42491 0.82766 0.0
C671 C 0.19648 0.51596 0.73551 0.0
C672 C 0.16914 0.46332 0.75933 0.0
H673 H 0.12174 0.44374 0.78571 0.0
C674 C 0.1839 0.44615 0.76599 0.0
C675 C 0.1467 0.46285 0.76726 0.0
C676 C 0.13042 0.4814 0.76137 0.0
C677 C 0.17645 0.42788 0.77952 0.0
C678 C 0.15362 0.42675 0.78624 0.0
C679 C 0.1392 0.44453 0.78049 0.0
C680 C 0.14376 0.4067 0.79773 0.0
C681 C 0.19301 0.40991 0.7863 0.0
C682 C 0.14419 0.38584 0.78632 0.0
C683 C 0.13199 0.36772 0.79521 0.0
C684 C 0.11891 0.37015 0.81559 0.0
C685 C 0.11928 0.39081 0.82754 0.0
C686 C 0.13152 0.40892 0.81864 0.0
H687 H 0.2104 0.41657 0.78674 0.0
H688 H 0.18894 0.40266 0.80373 0.0
H689 H 0.19246 0.39624 0.7731 0.0
H690 H 0.15307 0.38384 0.76989 0.0
H691 H 0.1321 0.35209 0.78552 0.0
H692 H 0.3869 0.89617 0.16535 0.0
H693 H 0.41824 0.87485 0.18175 0.0
H694 H 0.37689 0.85498 0.24019 0.0
H695 H 0.34544 0.8758 0.22378 0.0
H696 H 0.43735 0.88488 0.22309 0.0
H697 H 0.40865 0.79671 0.22559 0.0
H698 H 0.39494 0.81784 0.20798 0.0
H699 H 0.38871 0.8154 0.23876 0.0
C700 C 0.3843 0.88683 0.1814 0.0
C701 C 0.36366 0.88782 0.19329 0.0
C702 C 0.40225 0.87465 0.19077 0.0
C703 C 0.39988 0.86312 0.21209 0.0
C704 C 0.37902 0.86329 0.22346 0.0
H705 H 0.49655 0.84386 0.32022 0.0
H706 H 0.46484 0.85328 0.29509 0.0
C707 C 0.36106 0.8754 0.21411 0.0
C708 C 0.41976 0.85332 0.22395 0.0
H709 H 0.439 0.80631 0.25178 0.0
C710 C 0.43783 0.8676 0.22903 0.0
C711 C 0.42051 0.83072 0.23156 0.0
C712 C 0.40225 0.81422 0.22548 0.0
C713 C 0.45613 0.8602 0.24237 0.0
C714 C 0.45621 0.83805 0.25123 0.0
C715 C 0.43871 0.8234 0.24526 0.0
C716 C 0.47404 0.83028 0.26737 0.0
C717 C 0.47514 0.87629 0.2471 0.0
C718 C 0.48916 0.81347 0.26055 0.0
C719 C 0.50735 0.80792 0.27497 0.0
C720 C 0.51063 0.81909 0.29646 0.0
C721 C 0.49469 0.83506 0.30372 0.0
C722 C 0.47658 0.84054 0.28934 0.0
H723 H 0.47544 0.89025 0.2342 0.0
H724 H 0.47302 0.88367 0.26483 0.0
H725 H 0.49156 0.86751 0.24658 0.0
H726 H 0.48738 0.80526 0.2437 0.0
H727 H 0.51927 0.79552 0.26888 0.0
H728 H 0.80144 0.4805 0.74307 0.0
H729 H 0.81015 0.51264 0.7684 0.0
H730 H 0.84886 0.54241 0.71269 0.0
H731 H 0.84043 0.51056 0.6874 0.0
H732 H 0.87195 0.53643 0.75632 0.0
H733 H 0.79007 0.58017 0.76685 0.0
H734 H 0.79053 0.55027 0.77134 0.0
H735 H 0.79572 0.56141 0.74266 0.0
C736 C 0.81145 0.49409 0.73607 0.0
C737 C 0.82036 0.49286 0.71324 0.0
C738 C 0.81635 0.51246 0.75056 0.0
C739 C 0.83009 0.5299 0.74237 0.0
C740 C 0.83822 0.52911 0.71933 0.0
H741 H 0.87497 0.65864 0.78729 0.0
H742 H 0.85482 0.62685 0.77037 0.0
C743 C 0.83337 0.51085 0.7049 0.0
C744 C 0.83784 0.54802 0.7582 0.0
H745 H 0.82111 0.59538 0.7871 0.0
C746 C 0.86082 0.54923 0.76324 0.0
C747 C 0.82325 0.56468 0.76705 0.0
C748 C 0.79851 0.5643 0.76167 0.0
C749 C 0.86974 0.5669 0.7765 0.0
C750 C 0.85521 0.58369 0.78527 0.0
C751 C 0.83214 0.58235 0.78054 0.0
C752 C 0.86416 0.60357 0.79776 0.0
C753 C 0.89478 0.56793 0.78022 0.0
C754 C 0.87536 0.60122 0.81925 0.0
C755 C 0.887 0.61935 0.82897 0.0
C756 C 0.88759 0.64018 0.81735 0.0
C757 C 0.87504 0.64283 0.79663 0.0
C758 C 0.86342 0.62469 0.78695 0.0
H759 H 0.90394 0.55611 0.76859 0.0
H760 H 0.90116 0.58516 0.777 0.0
H761 H 0.89866 0.56344 0.79866 0.0
H762 H 0.87587 0.58511 0.82801 0.0
H763 H 0.89633 0.61674 0.84503 0.0
H764 H 0.65629 0.12094 0.22976 0.0
H765 H 0.62476 0.14205 0.2456 0.0
H766 H 0.59182 0.13936 0.17833 0.0
H767 H 0.62306 0.11739 0.1625 0.0
H768 H 0.60495 0.18121 0.23602 0.0
H769 H 0.54489 0.11166 0.21953 0.0
H770 H 0.57472 0.10829 0.21593 0.0
H771 H 0.55842 0.12212 0.19366 0.0
C772 C 0.64245 0.12495 0.21822 0.0
C773 C 0.64209 0.11719 0.19492 0.0
C774 C 0.6244 0.13708 0.22732 0.0
C775 C 0.60566 0.14188 0.21333 0.0
C776 C 0.6058 0.13531 0.18967 0.0
H777 H 0.47898 0.2026 0.26093 0.0
H778 H 0.51136 0.19377 0.236 0.0
C779 C 0.62375 0.12288 0.18059 0.0
C780 C 0.58573 0.15281 0.22405 0.0
H781 H 0.53043 0.14432 0.23705 0.0
C782 C 0.58862 0.17322 0.23606 0.0
C783 C 0.5644 0.14233 0.22423 0.0
C784 C 0.56038 0.1198 0.21285 0.0
C785 C 0.57093 0.18312 0.24862 0.0
C786 C 0.54984 0.17244 0.24905 0.0
C787 C 0.54666 0.15251 0.23644 0.0
C788 C 0.53143 0.1804 0.26429 0.0
C789 C 0.57491 0.20468 0.2618 0.0
C790 C 0.5322 0.17598 0.28841 0.0
C791 C 0.51372 0.18073 0.30261 0.0
C792 C 0.49417 0.19015 0.29296 0.0
C793 C 0.49383 0.19547 0.26892 0.0
C794 C 0.51226 0.19041 0.25465 0.0
H795 H 0.59097 0.21276 0.25672 0.0
H796 H 0.56095 0.21664 0.25863 0.0
H797 H 0.5754 0.2011 0.28089 0.0
H798 H 0.54681 0.16807 0.29609 0.0
H799 H 0.51455 0.17647 0.32105 0.0
H800 H 0.70682 0.98041 0.76523 0.0
H801 H 0.6972 0.01247 0.74021 0.0
H802 H 0.65688 0.04023 0.79585 0.0
H803 H 0.66617 0.00838 0.82081 0.0
H804 H 0.63434 0.03506 0.75267 0.0
H805 H 0.71561 0.07978 0.74226 0.0
H806 H 0.7157 0.05008 0.73661 0.0
H807 H 0.71052 0.06012 0.76577 0.0
C808 C 0.69624 0.99354 0.77228 0.0
C809 C 0.68716 0.99174 0.795 0.0
C810 C 0.69081 0.01188 0.75797 0.0
C811 C 0.67639 0.02874 0.76622 0.0
C812 C 0.66803 0.02738 0.78915 0.0
H813 H 0.63182 0.15773 0.72167 0.0
H814 H 0.65175 0.12571 0.73834 0.0
C815 C 0.67338 0.00913 0.8034 0.0
C816 C 0.66835 0.04691 0.75058 0.0
H817 H 0.6845 0.09441 0.72164 0.0
C818 C 0.64532 0.04795 0.74572 0.0
C819 C 0.68274 0.0637 0.74167 0.0
C820 C 0.70752 0.0636 0.7469 0.0
C821 C 0.63616 0.06559 0.73259 0.0
C822 C 0.6505 0.08249 0.72371 0.0
C823 C 0.67361 0.08129 0.72826 0.0
C824 C 0.64135 0.10239 0.7114 0.0
C825 C 0.61108 0.06647 0.72915 0.0
C826 C 0.6296 0.10009 0.69021 0.0
C827 C 0.61806 0.11837 0.68065 0.0
C828 C 0.61817 0.1393 0.69208 0.0
C829 C 0.63122 0.14185 0.71248 0.0
C830 C 0.6427 0.12356 0.72202 0.0
H831 H 0.60212 0.05473 0.74102 0.0
H832 H 0.60463 0.0837 0.73227 0.0
H833 H 0.60702 0.06175 0.71082 0.0
H834 H 0.62865 0.08394 0.68155 0.0
H835 H 0.60834 0.11584 0.66482 0.0
H836 H 0.15475 0.38071 0.28208 0.0
H837 H 0.12287 0.35917 0.26767 0.0
H838 H 0.09007 0.36638 0.33466 0.0
H839 H 0.12166 0.38876 0.34899 0.0
H840 H 0.10215 0.32093 0.27991 0.0
H841 H 0.04379 0.39284 0.29168 0.0
H842 H 0.07369 0.39569 0.29502 0.0
H843 H 0.05715 0.38357 0.31814 0.0
C844 C 0.14086 0.37759 0.29387 0.0
C845 C 0.14064 0.38675 0.31661 0.0
C846 C 0.12263 0.36521 0.28559 0.0
C847 C 0.10382 0.36157 0.29988 0.0
C848 C 0.10411 0.36952 0.32308 0.0
H849 H 0.9739 0.30828 0.2522 0.0
H850 H 0.00578 0.31572 0.27831 0.0
C851 C 0.12225 0.38218 0.3313 0.0
C852 C 0.08364 0.3505 0.28986 0.0
H853 H 0.02873 0.3598 0.27578 0.0
C854 C 0.08605 0.32935 0.27923 0.0
C855 C 0.06259 0.3615 0.28889 0.0
C856 C 0.0591 0.38472 0.29884 0.0
C857 C 0.06819 0.31922 0.26713 0.0
C858 C 0.04742 0.3305 0.26568 0.0
C859 C 0.04468 0.35115 0.27713 0.0
C860 C 0.02912 0.3226 0.25021 0.0
C861 C 0.07175 0.29677 0.25554 0.0
C862 C 0.03183 0.32373 0.22582 0.0
C863 C 0.01368 0.31978 0.21093 0.0
C864 C 0.99247 0.31446 0.22015 0.0
C865 C 0.99006 0.31218 0.24457 0.0
C866 C 0.00822 0.31647 0.2595 0.0
H867 H 0.0865 0.28784 0.26292 0.0
H868 H 0.05668 0.28599 0.25753 0.0
H869 H 0.07469 0.29935 0.23651 0.0
H870 H 0.04775 0.32874 0.21832 0.0
H871 H 0.01609 0.32165 0.19221 0.0
H872 H 0.30026 0.0244 0.76624 0.0
H873 H 0.31003 0.99232 0.74133 0.0
H874 H 0.3496 0.96439 0.79744 0.0
H875 H 0.34018 0.9963 0.8223 0.0
H876 H 0.37277 0.96948 0.75496 0.0
H877 H 0.29156 0.92525 0.74229 0.0
H878 H 0.29161 0.95494 0.73662 0.0
H879 H 0.29618 0.94493 0.7659 0.0
C880 C 0.31068 0.0112 0.77343 0.0
C881 C 0.31954 0.013 0.79624 0.0
C882 C 0.31619 0.99285 0.75918 0.0
C883 C 0.33048 0.97594 0.76758 0.0
C884 C 0.33856 0.97727 0.79062 0.0
H885 H 0.37549 0.84746 0.7211 0.0
H886 H 0.35534 0.87915 0.73821 0.0
C887 C 0.33313 0.99555 0.80482 0.0
C888 C 0.33874 0.95786 0.75194 0.0
H889 H 0.3229 0.91099 0.72168 0.0
C890 C 0.36186 0.95676 0.74755 0.0
C891 C 0.32444 0.94129 0.7424 0.0
C892 C 0.29957 0.94143 0.7471 0.0
C893 C 0.37117 0.93932 0.73424 0.0
C894 C 0.35692 0.92269 0.7247 0.0
C895 C 0.33373 0.92391 0.72881 0.0
C896 C 0.36619 0.90303 0.71204 0.0
C897 C 0.39631 0.93837 0.73128 0.0
C898 C 0.37827 0.90578 0.69111 0.0
C899 C 0.38993 0.88769 0.68129 0.0
C900 C 0.38963 0.86652 0.69221 0.0
C901 C 0.37625 0.86355 0.71231 0.0
C902 C 0.36464 0.88164 0.7221 0.0
H903 H 0.40511 0.9498 0.74362 0.0
H904 H 0.40261 0.92105 0.7341 0.0
H905 H 0.40073 0.94347 0.71316 0.0
H906 H 0.37938 0.92211 0.68288 0.0
H907 H 0.39991 0.89056 0.66571 0.0
H908 H 0.89633 0.60115 0.33217 0.0
H909 H 0.92595 0.62304 0.31366 0.0
H910 H 0.87645 0.66813 0.28489 0.0
H911 H 0.84665 0.64551 0.30242 0.0
H912 H 0.90224 0.65567 0.25205 0.0
H913 H 0.95756 0.68015 0.32494 0.0
H914 H 0.95357 0.65039 0.32544 0.0
H915 H 0.92993 0.6688 0.32993 0.0
C916 C 0.89178 0.61605 0.32239 0.0
C917 C 0.86916 0.62157 0.31869 0.0
C918 C 0.90878 0.6287 0.31192 0.0
C919 C 0.90356 0.64751 0.29808 0.0
C920 C 0.88097 0.65373 0.29547 0.0
H921 H 0.01857 0.7163 0.23249 0.0
H922 H 0.98491 0.71002 0.25633 0.0
C923 C 0.86394 0.64081 0.30553 0.0
C924 C 0.9213 0.65881 0.28404 0.0
H925 H 0.97528 0.67777 0.2865 0.0
C926 C 0.91802 0.66091 0.25974 0.0
C927 C 0.94182 0.66616 0.29391 0.0
C928 C 0.94579 0.66649 0.32003 0.0
C929 C 0.93504 0.66886 0.24496 0.0
C930 C 0.95628 0.67407 0.25458 0.0
C931 C 0.95916 0.67333 0.27901 0.0
C932 C 0.97605 0.67871 0.23948 0.0
C933 C 0.93005 0.6714 0.21916 0.0
C934 C 0.98236 0.66315 0.22221 0.0
C935 C 1.00131 0.66683 0.20842 0.0
C936 C 0.01473 0.68594 0.21188 0.0
C937 C 0.00854 0.70146 0.22931 0.0
C938 C 0.98934 0.69788 0.24298 0.0
H939 H 0.91201 0.67509 0.21619 0.0
H940 H 0.94016 0.68501 0.21112 0.0
H941 H 0.93392 0.65541 0.21004 0.0
H942 H 0.97287 0.64786 0.21967 0.0
H943 H 0.00572 0.65435 0.1954 0.0
H944 H 0.70781 0.01893 0.2385 0.0
H945 H 0.6982 0.98573 0.26179 0.0
H946 H 0.65351 0.96346 0.20713 0.0
H947 H 0.66279 0.9965 0.18389 0.0
H948 H 0.63369 0.96664 0.25168 0.0
H949 H 0.71331 0.91812 0.25441 0.0
H950 H 0.7152 0.94733 0.26212 0.0
H951 H 0.70793 0.93953 0.2327 0.0
C952 C 0.69625 0.00676 0.23125 0.0
C953 C 0.68597 0.01046 0.20937 0.0
C954 C 0.69084 0.98775 0.24456 0.0
C955 C 0.67522 0.9721 0.23613 0.0
C956 C 0.66562 0.97534 0.21395 0.0
H957 H 0.6272 0.84323 0.27995 0.0
H958 H 0.64731 0.87457 0.26206 0.0
C959 C 0.67096 0.99427 0.20069 0.0
C960 C 0.66724 0.95337 0.25105 0.0
H961 H 0.68303 0.90414 0.27693 0.0
C962 C 0.64449 0.95302 0.2573 0.0
C963 C 0.68138 0.93562 0.25824 0.0
C964 C 0.7058 0.93494 0.25143 0.0
C965 C 0.6354 0.93527 0.2703 0.0
C966 C 0.64952 0.91752 0.2776 0.0
C967 C 0.67233 0.9179 0.27151 0.0
C968 C 0.64036 0.89783 0.29025 0.0
C969 C 0.61057 0.93529 0.27545 0.0
C970 C 0.63052 0.9003 0.31244 0.0
C971 C 0.61891 0.88243 0.32271 0.0
C972 C 0.61702 0.86174 0.31098 0.0
C973 C 0.62817 0.85894 0.28942 0.0
C974 C 0.63975 0.87683 0.27917 0.0
H975 H 0.60138 0.9477 0.26454 0.0
H976 H 0.60323 0.91843 0.27235 0.0
H977 H 0.60786 0.9397 0.29415 0.0
H978 H 0.6311 0.9163 0.32143 0.0
H979 H 0.6107 0.88515 0.33941 0.0
H980 H 0.89417 0.40936 0.6774 0.0
H981 H 0.92406 0.38717 0.695 0.0
H982 H 0.87514 0.34041 0.72186 0.0
H983 H 0.84504 0.3634 0.70537 0.0
H984 H 0.9009 0.35092 0.75495 0.0
H985 H 0.95646 0.33136 0.68075 0.0
H986 H 0.95219 0.36106 0.68188 0.0
H987 H 0.92872 0.34268 0.67641 0.0
C988 C 0.88981 0.39408 0.68661 0.0
C989 C 0.86726 0.38815 0.69005 0.0
C990 C 0.90698 0.38124 0.69653 0.0
C991 C 0.90201 0.3618 0.70949 0.0
C992 C 0.87948 0.35528 0.71193 0.0
H993 H 0.01964 0.29381 0.77165 0.0
H994 H 0.98579 0.2996 0.74788 0.0
C995 C 0.86228 0.36841 0.70248 0.0
C996 C 0.91998 0.35001 0.72281 0.0
H997 H 0.97443 0.33256 0.71924 0.0
C998 C 0.91679 0.34648 0.74694 0.0
C999 C 0.94065 0.34362 0.71251 0.0
C1000 C 0.94456 0.34465 0.68641 0.0
C1001 C 0.93403 0.33817 0.76122 0.0
C1002 C 0.95541 0.33411 0.75133 0.0
C1003 C 0.95821 0.33614 0.72697 0.0
C1004 C 0.97539 0.32967 0.76621 0.0
C1005 C 0.92912 0.33409 0.78683 0.0
C1006 C 0.98094 0.34472 0.78421 0.0
C1007 C 0.99997 0.3413 0.79794 0.0
C1008 C 0.01428 0.32299 0.79368 0.0
C1009 C 0.00891 0.308 0.77545 0.0
C1010 C 0.9896 0.31131 0.76184 0.0
H1011 H 0.91125 0.32947 0.78949 0.0
H1012 H 0.93981 0.32054 0.79414 0.0
H1013 H 0.93224 0.34974 0.79684 0.0
H1014 H 0.97075 0.35944 0.78743 0.0
H1015 H 1.00371 0.3534 0.81156 0.0
H1016 H 0.40179 0.11797 0.34165 0.0
H1017 H 0.38146 0.08595 0.32518 0.0
H1018 H 0.35576 0.12805 0.26993 0.0
H1019 H 0.37563 0.16019 0.28638 0.0
H1020 H 0.32417 0.09638 0.28684 0.0
H1021 H 0.40631 0.05745 0.26485 0.0
H1022 H 0.40214 0.06393 0.2953 0.0
H1023 H 0.40383 0.08625 0.27421 0.0
C1024 C 0.3915 0.12053 0.32622 0.0
C1025 C 0.39062 0.14161 0.31515 0.0
C1026 C 0.37997 0.10218 0.3168 0.0
C1027 C 0.36747 0.10455 0.29609 0.0
C1028 C 0.36539 0.12584 0.28587 0.0
H1029 H 0.34124 0.01003 0.18715 0.0
H1030 H 0.35101 0.042 0.21177 0.0
C1031 C 0.37685 0.1442 0.29529 0.0
C1032 C 0.35819 0.08467 0.28382 0.0
H1033 H 0.37396 0.03751 0.25412 0.0
C1034 C 0.33498 0.08338 0.27983 0.0
C1035 C 0.37242 0.06793 0.27442 0.0
C1036 C 0.39757 0.06894 0.27719 0.0
C1037 C 0.32566 0.06584 0.26649 0.0
C1038 C 0.33993 0.04916 0.25711 0.0
C1039 C 0.36306 0.05031 0.26141 0.0
C1040 C 0.33163 0.03095 0.24166 0.0
C1041 C 0.30077 0.0657 0.26185 0.0
C1042 C 0.31711 0.01429 0.25016 0.0
C1043 C 0.31138 0.99592 0.23603 0.0
C1044 C 0.32027 0.99383 0.21327 0.0
C1045 C 0.33416 0.011 0.20461 0.0
C1046 C 0.33979 0.02931 0.21867 0.0
H1047 H 0.29283 0.08201 0.26635 0.0
H1048 H 0.29732 0.06187 0.24314 0.0
H1049 H 0.29279 0.05244 0.27264 0.0
H1050 H 0.31088 0.01505 0.26798 0.0
H1051 H 0.30073 0.98294 0.24328 0.0
H1052 H 0.11303 0.60006 0.67709 0.0
H1053 H 0.08307 0.62134 0.69579 0.0
H1054 H 0.13177 0.66738 0.72437 0.0
H1055 H 0.16196 0.64536 0.70665 0.0
H1056 H 0.10611 0.65487 0.75723 0.0
H1057 H 0.05047 0.67776 0.68404 0.0
H1058 H 0.05495 0.64806 0.68384 0.0
H1059 H 0.07829 0.66681 0.67919 0.0
C1060 C 0.11733 0.61502 0.6869 0.0
C1061 C 0.13986 0.62101 0.69044 0.0
C1062 C 0.10012 0.62732 0.69748 0.0
C1063 C 0.10501 0.64626 0.71126 0.0
C1064 C 0.1275 0.65288 0.71381 0.0
H1065 H 0.98905 0.7143 0.7762 0.0
H1066 H 0.02268 0.70806 0.75228 0.0
C1067 C 0.14475 0.64031 0.70365 0.0
C1068 C 0.08704 0.65739 0.72519 0.0
H1069 H 0.03278 0.67554 0.72248 0.0
C1070 C 0.09025 0.65979 0.74947 0.0
C1071 C 0.06642 0.66432 0.71522 0.0
C1072 C 0.06246 0.66433 0.6891 0.0
C1073 C 0.0731 0.66767 0.76414 0.0
C1074 C 0.05179 0.67248 0.75446 0.0
C1075 C 0.04895 0.67141 0.73003 0.0
C1076 C 0.03194 0.67705 0.7695 0.0
C1077 C 0.07804 0.67058 0.78992 0.0
C1078 C 0.02584 0.66164 0.78696 0.0
C1079 C 0.00691 0.6653 0.8008 0.0
C1080 C 0.99328 0.68424 0.79718 0.0
C1081 C 0.99924 0.6996 0.77951 0.0
C1082 C 0.01842 0.69603 0.7658 0.0
H1083 H 0.09602 0.67452 0.79286 0.0
H1084 H 0.06774 0.68416 0.79778 0.0
H1085 H 0.07436 0.65465 0.79923 0.0
H1086 H 0.03551 0.64648 0.78967 0.0
H1087 H 1.00269 0.65294 0.81399 0.0
H1088 H 0.21808 0.55195 0.5912 0.0
H1089 H 0.22204 0.53559 0.55184 0.0
H1090 H 0.15063 0.52498 0.54874 0.0
H1091 H 0.14652 0.54106 0.58788 0.0
H1092 H 0.20559 0.48955 0.53835 0.0
H1093 H 0.16801 0.55877 0.48638 0.0
H1094 H 0.17964 0.56297 0.51531 0.0
H1095 H 0.15242 0.55053 0.51194 0.0
C1096 C 0.20321 0.54637 0.582 0.0
C1097 C 0.18198 0.54784 0.59264 0.0
C1098 C 0.20552 0.53696 0.55959 0.0
C1099 C 0.1866 0.52923 0.54738 0.0
C1100 C 0.1654 0.53106 0.55779 0.0
H1101 H 0.14666 0.46681 0.41961 0.0
H1102 H 0.15067 0.48463 0.45787 0.0
C1103 C 0.1631 0.54022 0.5802 0.0
C1104 C 0.18881 0.51843 0.52408 0.0
H1105 H 0.17241 0.52372 0.46706 0.0
C1106 C 0.19865 0.49708 0.52264 0.0
C1107 C 0.17965 0.52833 0.50373 0.0
C1108 C 0.16948 0.5515 0.50424 0.0
C1109 C 0.19861 0.48488 0.50152 0.0
C1110 C 0.18889 0.49455 0.48125 0.0
C1111 C 0.17976 0.51625 0.48261 0.0
C1112 C 0.18685 0.48217 0.45872 0.0
C1113 C 0.20801 0.46138 0.50137 0.0
C1114 C 0.20586 0.47455 0.44652 0.0
C1115 C 0.20359 0.46409 0.42462 0.0
C1116 C 0.18229 0.46136 0.41444 0.0
C1117 C 0.16331 0.46867 0.42691 0.0
C1118 C 0.16558 0.47892 0.44879 0.0
H1119 H 0.20985 0.45454 0.51939 0.0
H1120 H 0.19713 0.44991 0.49109 0.0
H1121 H 0.22484 0.46158 0.49309 0.0
H1122 H 0.22248 0.47724 0.45361 0.0
H1123 H 0.21854 0.45883 0.41536 0.0
H1124 H 0.54149 0.8591 0.41865 0.0
H1125 H 0.52464 0.85575 0.45746 0.0
H1126 H 0.53056 0.78371 0.45366 0.0
H1127 H 0.54798 0.78698 0.41487 0.0
H1128 H 0.48538 0.83478 0.4677 0.0
H1129 H 0.55478 0.79637 0.51883 0.0
H1130 H 0.55908 0.80882 0.49034 0.0
H1131 H 0.54703 0.78129 0.4928 0.0
C1132 C 0.53954 0.84254 0.42618 0.0
C1133 C 0.54611 0.8233 0.41367 0.0
C1134 C 0.52983 0.84065 0.44837 0.0
C1135 C 0.52644 0.8195 0.45859 0.0
C1136 C 0.53339 0.80024 0.44636 0.0
H1137 H 0.4587 0.78862 0.59207 0.0
H1138 H 0.47475 0.78479 0.55257 0.0
C1139 C 0.54328 0.80213 0.42415 0.0
C1140 C 0.51449 0.81784 0.48139 0.0
H1141 H 0.52009 0.80096 0.53837 0.0
C1142 C 0.49298 0.82732 0.48312 0.0
C1143 C 0.52432 0.80796 0.50149 0.0
C1144 C 0.54764 0.79819 0.50094 0.0
C1145 C 0.48123 0.82756 0.50443 0.0
C1146 C 0.49126 0.81818 0.52461 0.0
C1147 C 0.51244 0.80807 0.5228 0.0
C1148 C 0.48076 0.82031 0.54806 0.0
C1149 C 0.4582 0.838 0.50529 0.0
C1150 C 0.47885 0.84152 0.55851 0.0
C1151 C 0.46985 0.84374 0.58099 0.0
C1152 C 0.46248 0.82479 0.59349 0.0
C1153 C 0.46409 0.80355 0.58284 0.0
C1154 C 0.47332 0.80132 0.56035 0.0
H1155 H 0.45066 0.83943 0.48754 0.0
H1156 H 0.4468 0.82804 0.51662 0.0
H1157 H 0.45949 0.85512 0.51283 0.0
H1158 H 0.48473 0.85635 0.54942 0.0
H1159 H 0.46891 0.86033 0.58868 0.0
H1160 H 0.79001 0.55023 0.41483 0.0
H1161 H 0.78552 0.534 0.4542 0.0
H1162 H 0.85701 0.52458 0.45894 0.0
H1163 H 0.86166 0.54048 0.4198 0.0
H1164 H 0.80356 0.48787 0.46853 0.0
H1165 H 0.83665 0.55947 0.52043 0.0
H1166 H 0.82514 0.56281 0.49132 0.0
H1167 H 0.85287 0.55168 0.49511 0.0
C1168 C 0.80477 0.5449 0.42438 0.0
C1169 C 0.82619 0.54666 0.41422 0.0
C1170 C 0.80216 0.53557 0.44678 0.0
C1171 C 0.82095 0.52823 0.45945 0.0
C1172 C 0.84233 0.53032 0.4495 0.0
H1173 H 0.86064 0.46968 0.58899 0.0
H1174 H 0.85656 0.48683 0.55042 0.0
C1175 C 0.84493 0.53938 0.4271 0.0
C1176 C 0.8185 0.51772 0.48283 0.0
H1177 H 0.83305 0.52463 0.54021 0.0
C1178 C 0.80968 0.49595 0.48432 0.0
C1179 C 0.8266 0.52835 0.50327 0.0
C1180 C 0.83571 0.55194 0.50263 0.0
C1181 C 0.80973 0.48407 0.50563 0.0
C1182 C 0.81842 0.49449 0.52601 0.0
C1183 C 0.82649 0.5166 0.52458 0.0
C1184 C 0.82058 0.4825 0.54875 0.0
C1185 C 0.8015 0.46013 0.50589 0.0
C1186 C 0.80172 0.47406 0.56059 0.0
C1187 C 0.80404 0.46398 0.58267 0.0
C1188 C 0.82523 0.46247 0.59338 0.0
C1189 C 0.84407 0.47061 0.58127 0.0
C1190 C 0.84176 0.48048 0.55922 0.0
H1191 H 0.8004 0.45298 0.48793 0.0
H1192 H 0.8127 0.44935 0.51659 0.0
H1193 H 0.7845 0.4596 0.51377 0.0
H1194 H 0.78514 0.47581 0.55308 0.0
H1195 H 0.78919 0.45805 0.59165 0.0
H1196 H 0.47102 0.14844 0.41699 0.0
H1197 H 0.48792 0.15207 0.45573 0.0
H1198 H 0.47694 0.22358 0.45392 0.0
H1199 H 0.45941 0.21999 0.4152 0.0
H1200 H 0.52552 0.17518 0.46674 0.0
H1201 H 0.4537 0.20786 0.5186 0.0
H1202 H 0.45027 0.19595 0.48972 0.0
H1203 H 0.46058 0.2241 0.49308 0.0
C1204 C 0.4719 0.16493 0.42493 0.0
C1205 C 0.46382 0.18393 0.41302 0.0
C1206 C 0.48163 0.16698 0.44708 0.0
C1207 C 0.48359 0.18806 0.45786 0.0
C1208 C 0.47523 0.20707 0.44619 0.0
H1209 H 0.54969 0.21882 0.59244 0.0
H1210 H 0.53388 0.22301 0.55287 0.0
C1211 C 0.46528 0.20501 0.42402 0.0
C1212 C 0.49538 0.18996 0.48074 0.0
H1213 H 0.4885 0.20484 0.5382 0.0
C1214 C 0.51742 0.18175 0.48232 0.0
C1215 C 0.48488 0.19865 0.50107 0.0
C1216 C 0.46099 0.20698 0.5007 0.0
C1217 C 0.52904 0.18158 0.50371 0.0
C1218 C 0.51836 0.18976 0.52409 0.0
C1219 C 0.49664 0.19866 0.52246 0.0
C1220 C 0.52879 0.18745 0.54754 0.0
C1221 C 0.5526 0.17239 0.50448 0.0
C1222 C 0.53115 0.1661 0.55753 0.0
C1223 C 0.53999 0.16367 0.58005 0.0
C1224 C 0.54676 0.18255 0.59303 0.0
C1225 C 0.54476 0.20395 0.58282 0.0
C1226 C 0.53567 0.20638 0.56029 0.0
H1227 H 0.56023 0.17152 0.48673 0.0
H1228 H 0.56341 0.18287 0.51593 0.0
H1229 H 0.55224 0.15517 0.51187 0.0
H1230 H 0.52575 0.15131 0.54804 0.0
H1231 H 0.54127 0.14696 0.58739 0.0
H1232 H 0.64859 0.04259 0.0869 0.0
H1233 H 0.65312 0.02655 0.04777 0.0
H1234 H 0.72481 0.03382 0.05326 0.0
H1235 H 0.72046 0.05006 0.09262 0.0
H1236 H 0.67712 0.0462 0.00668 0.0
H1237 H 0.71214 0.96507 0.03861 0.0
H1238 H 0.69624 0.98352 0.05747 0.0
H1239 H 0.72437 0.99072 0.04937 0.0
C1240 C 0.66534 0.04096 0.07977 0.0
C1241 C 0.68418 0.04753 0.09291 0.0
C1242 C 0.66788 0.03179 0.05739 0.0
C1243 C 0.68929 0.02877 0.04778 0.0
C1244 C 0.70815 0.03581 0.06053 0.0
H1245 H 0.71997 0.9577 0.91621 0.0
H1246 H 0.72392 0.97666 0.95423 0.0
C1247 C 0.70562 0.0452 0.08292 0.0
C1248 C 0.69159 0.0179 0.02453 0.0
H1249 H 0.70556 0.96837 0.99811 0.0
C1250 C 0.68353 0.02927 0.00473 0.0
C1251 C 0.70008 0.99587 0.02208 0.0
C1252 C 0.70864 0.98291 0.04295 0.0
C1253 C 0.68336 0.01903 0.98256 0.0
C1254 C 0.69087 0.99659 0.98026 0.0
C1255 C 0.69969 0.98551 0.99993 0.0
C1256 C 0.68857 0.98407 0.95786 0.0
C1257 C 0.67509 0.03239 0.96182 0.0
C1258 C 0.66734 0.98126 0.9477 0.0
C1259 C 0.66505 0.97056 0.92606 0.0
C1260 C 0.68394 0.96214 0.9142 0.0
C1261 C 0.70511 0.96403 0.92488 0.0
C1262 C 0.7074 0.9749 0.94657 0.0
H1263 H 0.67681 0.05072 0.96488 0.0
H1264 H 0.68439 0.02793 0.9456 0.0
H1265 H 0.65706 0.02877 0.95897 0.0
H1266 H 0.6525 0.98761 0.95641 0.0
H1267 H 0.64847 0.96919 0.91846 0.0
H1268 H 0.06649 0.30514 0.92474 0.0
H1269 H 0.05071 0.30322 0.96443 0.0
H1270 H 1.00021 0.35164 0.94496 0.0
H1271 H 0.01668 0.35455 0.90601 0.0
H1272 H 0.01533 0.36237 0.98479 0.0
H1273 H 0.99725 0.27141 0.98845 0.0
H1274 H 0.02639 0.27679 0.9833 0.0
H1275 H 0.00589 0.28514 0.96178 0.0
C1276 C 0.05201 0.31531 0.92901 0.0
C1277 C 0.04287 0.33005 0.91234 0.0
C1278 C 0.04283 0.31404 0.95162 0.0
C1279 C 0.02393 0.32695 0.95767 0.0
C1280 C 0.01476 0.34149 0.94084 0.0
H1281 H 0.94284 0.30737 0.08417 0.0
H1282 H 0.9577 0.30675 0.044 0.0
C1283 C 0.02422 0.34316 0.91854 0.0
C1284 C 0.0142 0.32634 0.98174 0.0
H1285 H 0.99446 0.29147 0.0246 0.0
C1286 C 0.01063 0.34682 0.99336 0.0
C1287 C 0.00765 0.30615 0.99293 0.0
C1288 C 0.00926 0.28366 0.98086 0.0
C1289 C 1.0009 0.34773 0.01573 0.0
C1290 C 0.99554 0.32748 0.02747 0.0
C1291 C 0.99883 0.30698 0.01579 0.0
C1292 C 0.98669 0.32731 0.05188 0.0
C1293 C 0.99594 0.37049 0.02617 0.0
C1294 C 0.99821 0.33864 0.06978 0.0
C1295 C 0.98948 0.33946 0.09247 0.0
C1296 C 0.96939 0.32836 0.09799 0.0
C1297 C 0.9583 0.31618 0.08037 0.0
C1298 C 0.96681 0.31578 0.05745 0.0
H1299 H 0.99364 0.38337 0.01229 0.0
H1300 H 0.98061 0.37014 0.0372 0.0
H1301 H 0.0103 0.37584 0.03719 0.0
H1302 H 0.01399 0.34694 0.06623 0.0
H1303 H 0.99865 0.34861 0.10579 0.0
H1304 H 0.2867 0.0495 0.91637 0.0
H1305 H 0.28278 0.03345 0.95587 0.0
H1306 H 0.35439 0.02455 0.95976 0.0
H1307 H 0.35847 0.04034 0.9205 0.0
H1308 H 0.29985 0.98813 0.97006 0.0
H1309 H 0.33604 0.05839 0.02159 0.0
H1310 H 0.32471 0.06209 0.99245 0.0
H1311 H 0.35207 0.05007 0.99634 0.0
C1312 C 0.30162 0.04436 0.92578 0.0
C1313 C 0.3229 0.04623 0.91533 0.0
C1314 C 0.29933 0.03513 0.94826 0.0
C1315 C 0.31831 0.02798 0.96075 0.0
C1316 C 0.33956 0.0302 0.95051 0.0
H1317 H 0.35827 0.96733 0.0895 0.0
H1318 H 0.35433 0.98466 0.05099 0.0
C1319 C 0.34184 0.03918 0.92804 0.0
C1320 C 0.31615 0.01737 0.98414 0.0
H1321 H 0.33217 0.02342 0.04121 0.0
C1322 C 0.3066 0.99591 0.98574 0.0
C1323 C 0.32507 0.02758 0.00445 0.0
C1324 C 0.33491 0.05089 1.00379 0.0
C1325 C 0.30668 0.98392 0.00698 0.0
C1326 C 0.31616 0.99391 0.02721 0.0
C1327 C 0.32501 0.01571 0.02569 0.0
C1328 C 0.31818 0.98179 0.04989 0.0
C1329 C 0.29759 0.9603 0.00731 0.0
C1330 C 0.29918 0.97411 0.06204 0.0
C1331 C 0.30141 0.96393 0.08408 0.0
C1332 C 0.32267 0.96155 0.09446 0.0
C1333 C 0.34165 0.96892 0.08204 0.0
C1334 C 0.33942 0.9789 0.06003 0.0
H1335 H 0.29595 0.95325 0.98936 0.0
H1336 H 0.30855 0.94907 0.01779 0.0
H1337 H 0.28071 0.96037 0.01548 0.0
H1338 H 0.28258 0.97653 0.0548 0.0
H1339 H 0.28646 0.95861 0.0933 0.0
H1340 H 0.96836 0.64605 0.92058 0.0
H1341 H 0.98608 0.65041 0.95884 0.0
H1342 H 0.97711 0.7221 0.95475 0.0
H1343 H 0.95885 0.71782 0.91647 0.0
H1344 H 0.02474 0.67333 0.96806 0.0
H1345 H 0.95446 0.7085 0.02051 0.0
H1346 H 0.95023 0.69562 0.99221 0.0
H1347 H 0.96106 0.72368 0.9942 0.0
C1348 C 0.96986 0.66275 0.92791 0.0
C1349 C 0.96215 0.6816 0.91548 0.0
C1350 C 0.98006 0.66521 0.94979 0.0
C1351 C 0.98282 0.68655 0.95977 0.0
C1352 C 0.97481 0.70543 0.94761 0.0
H1353 H 0.05018 0.7191 0.09318 0.0
H1354 H 0.03388 0.72284 0.05379 0.0
C1355 C 0.96443 0.70296 0.9257 0.0
C1356 C 0.99509 0.68883 0.98233 0.0
H1357 H 0.98947 0.70499 0.03954 0.0
C1358 C 0.01704 0.68035 0.98365 0.0
C1359 C 0.9851 0.69813 1.00264 0.0
C1360 C 0.96136 0.70685 1.0025 0.0
C1361 C 0.02907 0.68049 0.00479 0.0
C1362 C 0.01886 0.68919 0.02521 0.0
C1363 C 0.99724 0.69839 0.02379 0.0
C1364 C 0.02965 0.68716 0.04852 0.0
C1365 C 0.05255 0.6711 0.00521 0.0
C1366 C 0.03265 0.66588 0.05852 0.0
C1367 C 0.04179 0.6637 0.08094 0.0
C1368 C 0.0482 0.68276 0.09383 0.0
C1369 C 0.04554 0.70409 0.08363 0.0
C1370 C 0.03617 0.70627 0.0612 0.0
H1371 H 0.05999 0.67039 0.98736 0.0
H1372 H 0.0636 0.68134 0.01667 0.0
H1373 H 0.05211 0.65379 0.01234 0.0
H1374 H 0.02748 0.65094 0.04914 0.0
H1375 H 0.04355 0.64703 0.08828 0.0
loop_
_geom_bond_atom_site_label_1
_geom_bond_atom_site_label_2
_geom_bond_distance
_geom_bond_site_symmetry_2
_ccdc_geom_bond_type
O0 Cd1 2.223 . S
O0 C8 1.315 . S
Cd1 O0 2.223 . S
Cd1 O4 2.297 . S
Cd1 O5 2.439 . S
Cd1 O11 2.240 . S
Cd2 O3 2.240 . S
Cd2 O10 2.223 . S
Cd2 O12 2.297 . S
Cd2 O13 2.439 . S
O3 Cd2 2.240 . S
O3 C8 1.279 . S
O4 Cd1 2.297 . S
O4 C6 1.247 . S
O5 Cd1 2.439 . S
O5 C6 1.208 . S
C6 O4 1.247 . S
C6 O5 1.208 . S
C7 O12 1.247 . S
C7 O13 1.208 . S
C8 O0 1.315 . S
C8 O3 1.279 . S
C9 O10 1.315 . S
C9 O11 1.279 . S
O10 Cd2 2.223 . S
O10 C9 1.315 . S
O11 Cd1 2.240 . S
O11 C9 1.279 . S
O12 Cd2 2.297 . S
O12 C7 1.247 . S
O13 Cd2 2.439 . S
O13 C7 1.208 . S
O14 Cd15 2.223 . S
O14 C22 1.315 . S
Cd15 O14 2.223 . S
Cd15 O18 2.297 . S
Cd15 O19 2.439 . S
Cd15 O25 2.240 . S
Cd16 O17 2.240 . S
Cd16 O24 2.223 . S
Cd16 O26 2.297 . S
Cd16 O27 2.439 . S
O17 Cd16 2.240 . S
O17 C22 1.279 . S
O18 Cd15 2.297 . S
O18 C20 1.247 . S
O19 Cd15 2.439 . S
O19 C20 1.208 . S
C20 O18 1.247 . S
C20 O19 1.208 . S
C21 O26 1.247 . S
C21 O27 1.208 . S
C22 O14 1.315 . S
C22 O17 1.279 . S
C23 O24 1.315 . S
C23 O25 1.279 . S
O24 Cd16 2.223 . S
O24 C23 1.315 . S
O25 Cd15 2.240 . S
O25 C23 1.279 . S
O26 Cd16 2.297 . S
O26 C21 1.247 . S
O27 Cd16 2.439 . S
O27 C21 1.208 . S
O28 Cd29 2.223 . S
O28 C36 1.315 . S
Cd29 O28 2.223 . S
Cd29 O32 2.297 . S
Cd29 O33 2.439 . S
Cd29 O39 2.240 . S
Cd30 O31 2.240 . S
Cd30 O38 2.223 . S
Cd30 O40 2.297 . S
Cd30 O41 2.439 . S
O31 Cd30 2.240 . S
O31 C36 1.279 . S
O32 Cd29 2.297 . S
O32 C34 1.247 . S
O33 Cd29 2.439 . S
O33 C34 1.208 . S
C34 O32 1.247 . S
C34 O33 1.208 . S
C35 O40 1.247 . S
C35 O41 1.208 . S
C36 O28 1.315 . S
C36 O31 1.279 . S
C37 O38 1.315 . S
C37 O39 1.279 . S
O38 Cd30 2.223 . S
O38 C37 1.315 . S
O39 Cd29 2.240 . S
O39 C37 1.279 . S
O40 Cd30 2.297 . S
O40 C35 1.247 . S
O41 Cd30 2.439 . S
O41 C35 1.208 . S
O42 Cd43 2.223 . S
O42 C50 1.315 . S
Cd43 O42 2.223 . S
Cd43 O46 2.297 . S
Cd43 O47 2.439 . S
Cd43 O53 2.240 . S
Cd44 O45 2.240 . S
Cd44 O52 2.223 . S
Cd44 O54 2.297 . S
Cd44 O55 2.439 . S
O45 Cd44 2.240 . S
O45 C50 1.279 . S
O46 Cd43 2.297 . S
O46 C48 1.247 . S
O47 Cd43 2.439 . S
O47 C48 1.208 . S
C48 O46 1.247 . S
C48 O47 1.208 . S
C49 O54 1.247 . S
C49 O55 1.208 . S
C50 O42 1.315 . S
C50 O45 1.279 . S
C51 O52 1.315 . S
C51 O53 1.279 . S
O52 Cd44 2.223 . S
O52 C51 1.315 . S
O53 Cd43 2.240 . S
O53 C51 1.279 . S
O54 Cd44 2.297 . S
O54 C49 1.247 . S
O55 Cd44 2.439 . S
O55 C49 1.208 . S
O56 Cd57 2.223 . S
O56 C64 1.315 . S
Cd57 O56 2.223 . S
Cd57 O60 2.297 . S
Cd57 O61 2.439 . S
Cd57 O67 2.240 . S
Cd58 O59 2.240 . S
Cd58 O66 2.223 . S
Cd58 O68 2.297 . S
Cd58 O69 2.439 . S
O59 Cd58 2.240 . S
O59 C64 1.279 . S
O60 Cd57 2.297 . S
O60 C62 1.247 . S
O61 Cd57 2.439 . S
O61 C62 1.208 . S
C62 O60 1.247 . S
C62 O61 1.208 . S
C63 O68 1.247 . S
C63 O69 1.208 . S
C64 O56 1.315 . S
C64 O59 1.279 . S
C65 O66 1.315 . S
C65 O67 1.279 . S
O66 Cd58 2.223 . S
O66 C65 1.315 . S
O67 Cd57 2.240 . S
O67 C65 1.279 . S
O68 Cd58 2.297 . S
O68 C63 1.247 . S
O69 Cd58 2.439 . S
O69 C63 1.208 . S
O70 Cd71 2.223 . S
O70 C78 1.315 . S
Cd71 O70 2.223 . S
Cd71 O74 2.297 . S
Cd71 O75 2.439 . S
Cd71 O81 2.240 . S
Cd72 O73 2.240 . S
Cd72 O80 2.223 . S
Cd72 O82 2.297 . S
Cd72 O83 2.439 . S
O73 Cd72 2.240 . S
O73 C78 1.279 . S
O74 Cd71 2.297 . S
O74 C76 1.247 . S
O75 Cd71 2.439 . S
O75 C76 1.208 . S
C76 O74 1.247 . S
C76 O75 1.208 . S
C77 O82 1.247 . S
C77 O83 1.208 . S
C78 O70 1.315 . S
C78 O73 1.279 . S
C79 O80 1.315 . S
C79 O81 1.279 . S
O80 Cd72 2.223 . S
O80 C79 1.315 . S
O81 Cd71 2.240 . S
O81 C79 1.279 . S
O82 Cd72 2.297 . S
O82 C77 1.247 . S
O83 Cd72 2.439 . S
O83 C77 1.208 . S
O84 Cd85 2.223 . S
O84 C92 1.315 . S
Cd85 O84 2.223 . S
Cd85 O88 2.297 . S
Cd85 O89 2.439 . S
Cd85 O95 2.240 . S
Cd86 O87 2.240 . S
Cd86 O94 2.223 . S
Cd86 O96 2.297 . S
Cd86 O97 2.439 . S
O87 Cd86 2.240 . S
O87 C92 1.279 . S
O88 Cd85 2.297 . S
O88 C90 1.247 . S
O89 Cd85 2.439 . S
O89 C90 1.208 . S
C90 O88 1.247 . S
C90 O89 1.208 . S
C91 O96 1.247 . S
C91 O97 1.208 . S
C92 O84 1.315 . S
C92 O87 1.279 . S
C93 O94 1.315 . S
C93 O95 1.279 . S
O94 Cd86 2.223 . S
O94 C93 1.315 . S
O95 Cd85 2.240 . S
O95 C93 1.279 . S
O96 Cd86 2.297 . S
O96 C91 1.247 . S
O97 Cd86 2.439 . S
O97 C91 1.208 . S
O98 Cd99 2.223 . S
O98 C106 1.315 . S
Cd99 O98 2.223 . S
Cd99 O102 2.297 . S
Cd99 O103 2.439 . S
Cd99 O109 2.240 . S
Cd100 O101 2.240 . S
Cd100 O108 2.223 . S
Cd100 O110 2.297 . S
Cd100 O111 2.439 . S
O101 Cd100 2.240 . S
O101 C106 1.279 . S
O102 Cd99 2.297 . S
O102 C104 1.247 . S
O103 Cd99 2.439 . S
O103 C104 1.208 . S
C104 O102 1.247 . S
C104 O103 1.208 . S
C105 O110 1.247 . S
C105 O111 1.208 . S
C106 O98 1.315 . S
C106 O101 1.279 . S
C107 O108 1.315 . S
C107 O109 1.279 . S
O108 Cd100 2.223 . S
O108 C107 1.315 . S
O109 Cd99 2.240 . S
O109 C107 1.279 . S
O110 Cd100 2.297 . S
O110 C105 1.247 . S
O111 Cd100 2.439 . S
O111 C105 1.208 . S
O112 Cd113 2.223 . S
O112 C120 1.315 . S
Cd113 O112 2.223 . S
Cd113 O116 2.297 . S
Cd113 O117 2.439 . S
Cd113 O123 2.240 . S
Cd114 O115 2.240 . S
Cd114 O122 2.223 . S
Cd114 O124 2.297 . S
Cd114 O125 2.439 . S
O115 Cd114 2.240 . S
O115 C120 1.279 . S
O116 Cd113 2.297 . S
O116 C118 1.247 . S
O117 Cd113 2.439 . S
O117 C118 1.208 . S
C118 O116 1.247 . S
C118 O117 1.208 . S
C119 O124 1.247 . S
C119 O125 1.208 . S
C120 O112 1.315 . S
C120 O115 1.279 . S
C121 O122 1.315 . S
C121 O123 1.279 . S
O122 Cd114 2.223 . S
O122 C121 1.315 . S
O123 Cd113 2.240 . S
O123 C121 1.279 . S
O124 Cd114 2.297 . S
O124 C119 1.247 . S
O125 Cd114 2.439 . S
O125 C119 1.208 . S
O126 Cd127 2.223 . S
O126 C134 1.315 . S
Cd127 O126 2.223 . S
Cd127 O130 2.297 . S
Cd127 O131 2.439 . S
Cd127 O137 2.240 . S
Cd128 O129 2.240 . S
Cd128 O136 2.223 . S
Cd128 O138 2.297 . S
Cd128 O139 2.439 . S
O129 Cd128 2.240 . S
O129 C134 1.279 . S
O130 Cd127 2.297 . S
O130 C132 1.247 . S
O131 Cd127 2.439 . S
O131 C132 1.208 . S
C132 O130 1.247 . S
C132 O131 1.208 . S
C133 O138 1.247 . S
C133 O139 1.208 . S
C134 O126 1.315 . S
C134 O129 1.279 . S
C135 O136 1.315 . S
C135 O137 1.279 . S
O136 Cd128 2.223 . S
O136 C135 1.315 . S
O137 Cd127 2.240 . S
O137 C135 1.279 . S
O138 Cd128 2.297 . S
O138 C133 1.247 . S
O139 Cd128 2.439 . S
O139 C133 1.208 . S
O140 Cd141 2.223 . S
O140 C148 1.315 . S
Cd141 O140 2.223 . S
Cd141 O144 2.297 . S
Cd141 O145 2.439 . S
Cd141 O151 2.240 . S
Cd142 O143 2.240 . S
Cd142 O150 2.223 . S
Cd142 O152 2.297 . S
Cd142 O153 2.439 . S
O143 Cd142 2.240 . S
O143 C148 1.279 . S
O144 Cd141 2.297 . S
O144 C146 1.247 . S
O145 Cd141 2.439 . S
O145 C146 1.208 . S
C146 O144 1.247 . S
C146 O145 1.208 . S
C147 O152 1.247 . S
C147 O153 1.208 . S
C148 O140 1.315 . S
C148 O143 1.279 . S
C149 O150 1.315 . S
C149 O151 1.279 . S
O150 Cd142 2.223 . S
O150 C149 1.315 . S
O151 Cd141 2.240 . S
O151 C149 1.279 . S
O152 Cd142 2.297 . S
O152 C147 1.247 . S
O153 Cd142 2.439 . S
O153 C147 1.208 . S
O154 Cd155 2.223 . S
O154 C162 1.315 . S
Cd155 O154 2.223 . S
Cd155 O158 2.297 . S
Cd155 O159 2.439 . S
Cd155 O165 2.240 . S
Cd156 O157 2.240 . S
Cd156 O164 2.223 . S
Cd156 O166 2.297 . S
Cd156 O167 2.439 . S
O157 Cd156 2.240 . S
O157 C162 1.279 . S
O158 Cd155 2.297 . S
O158 C160 1.247 . S
O159 Cd155 2.439 . S
O159 C160 1.208 . S
C160 O158 1.247 . S
C160 O159 1.208 . S
C161 O166 1.247 . S
C161 O167 1.208 . S
C162 O154 1.315 . S
C162 O157 1.279 . S
C163 O164 1.315 . S
C163 O165 1.279 . S
O164 Cd156 2.223 . S
O164 C163 1.315 . S
O165 Cd155 2.240 . S
O165 C163 1.279 . S
O166 Cd156 2.297 . S
O166 C161 1.247 . S
O167 Cd156 2.439 . S
O167 C161 1.208 . S
O168 Cd169 2.223 . S
O168 C176 1.315 . S
Cd169 O168 2.223 . S
Cd169 O172 2.297 . S
Cd169 O173 2.439 . S
Cd169 O179 2.240 . S
Cd170 O171 2.240 . S
Cd170 O178 2.223 . S
Cd170 O180 2.297 . S
Cd170 O181 2.439 . S
O171 Cd170 2.240 . S
O171 C176 1.279 . S
O172 Cd169 2.297 . S
O172 C174 1.247 . S
O173 Cd169 2.439 . S
O173 C174 1.208 . S
C174 O172 1.247 . S
C174 O173 1.208 . S
C175 O180 1.247 . S
C175 O181 1.208 . S
C176 O168 1.315 . S
C176 O171 1.279 . S
C177 O178 1.315 . S
C177 O179 1.279 . S
O178 Cd170 2.223 . S
O178 C177 1.315 . S
O179 Cd169 2.240 . S
O179 C177 1.279 . S
O180 Cd170 2.297 . S
O180 C175 1.247 . S
O181 Cd170 2.439 . S
O181 C175 1.208 . S
O182 Cd183 2.223 . S
O182 C190 1.315 . S
Cd183 O182 2.223 . S
Cd183 O186 2.297 . S
Cd183 O187 2.439 . S
Cd183 O193 2.240 . S
Cd184 O185 2.240 . S
Cd184 O192 2.223 . S
Cd184 O194 2.297 . S
Cd184 O195 2.439 . S
O185 Cd184 2.240 . S
O185 C190 1.279 . S
O186 Cd183 2.297 . S
O186 C188 1.247 . S
O187 Cd183 2.439 . S
O187 C188 1.208 . S
C188 O186 1.247 . S
C188 O187 1.208 . S
C189 O194 1.247 . S
C189 O195 1.208 . S
C190 O182 1.315 . S
C190 O185 1.279 . S
C191 O192 1.315 . S
C191 O193 1.279 . S
O192 Cd184 2.223 . S
O192 C191 1.315 . S
O193 Cd183 2.240 . S
O193 C191 1.279 . S
O194 Cd184 2.297 . S
O194 C189 1.247 . S
O195 Cd184 2.439 . S
O195 C189 1.208 . S
O196 Cd197 2.223 . S
O196 C204 1.315 . S
Cd197 O196 2.223 . S
Cd197 O200 2.297 . S
Cd197 O201 2.439 . S
Cd197 O207 2.240 . S
Cd198 O199 2.240 . S
Cd198 O206 2.223 . S
Cd198 O208 2.297 . S
Cd198 O209 2.439 . S
O199 Cd198 2.240 . S
O199 C204 1.279 . S
O200 Cd197 2.297 . S
O200 C202 1.247 . S
O201 Cd197 2.439 . S
O201 C202 1.208 . S
C202 O200 1.247 . S
C202 O201 1.208 . S
C203 O208 1.247 . S
C203 O209 1.208 . S
C204 O196 1.315 . S
C204 O199 1.279 . S
C205 O206 1.315 . S
C205 O207 1.279 . S
O206 Cd198 2.223 . S
O206 C205 1.315 . S
O207 Cd197 2.240 . S
O207 C205 1.279 . S
O208 Cd198 2.297 . S
O208 C203 1.247 . S
O209 Cd198 2.439 . S
O209 C203 1.208 . S
O210 Cd211 2.223 . S
O210 C218 1.315 . S
Cd211 O210 2.223 . S
Cd211 O214 2.297 . S
Cd211 O215 2.439 . S
Cd211 O221 2.240 . S
Cd212 O213 2.240 . S
Cd212 O220 2.223 . S
Cd212 O222 2.297 . S
Cd212 O223 2.439 . S
O213 Cd212 2.240 . S
O213 C218 1.279 . S
O214 Cd211 2.297 . S
O214 C216 1.247 . S
O215 Cd211 2.439 . S
O215 C216 1.208 . S
C216 O214 1.247 . S
C216 O215 1.208 . S
C217 O222 1.247 . S
C217 O223 1.208 . S
C218 O210 1.315 . S
C218 O213 1.279 . S
C219 O220 1.315 . S
C219 O221 1.279 . S
O220 Cd212 2.223 . S
O220 C219 1.315 . S
O221 Cd211 2.240 . S
O221 C219 1.279 . S
O222 Cd212 2.297 . S
O222 C217 1.247 . S
O223 Cd212 2.439 . S
O223 C217 1.208 . S
H224 C232 0.929 . S
H225 C234 0.930 . S
H226 C236 0.930 . S
H227 C239 0.929 . S
H228 C242 0.930 . S
H229 C244 0.960 . S
H230 C244 0.960 . S
H231 C244 0.960 . S
C232 H224 0.929 . S
C232 C233 1.377 . S
C232 C234 1.384 . S
C233 C232 1.377 . S
C233 C239 1.390 . S
C234 H225 0.930 . S
C234 C232 1.384 . S
C234 C235 1.372 . S
C235 C234 1.372 . S
C235 C236 1.400 . S
C235 C240 1.490 . S
C236 H226 0.930 . S
C236 C235 1.400 . S
C236 C239 1.386 . S
H237 C253 0.930 . S
H238 C254 0.931 . S
C239 H227 0.929 . S
C239 C233 1.390 . S
C239 C236 1.386 . S
C240 C235 1.490 . S
C240 C242 1.395 . S
C240 C243 1.403 . S
H241 C247 0.930 . S
C242 H228 0.930 . S
C242 C240 1.395 . S
C242 C245 1.403 . S
C243 C240 1.403 . S
C243 C244 1.524 . S
C243 C247 1.400 . S
C244 H229 0.960 . S
C244 H230 0.960 . S
C244 H231 0.960 . S
C244 C243 1.524 . S
C245 C242 1.403 . S
C245 C246 1.392 . S
C245 C249 1.495 . S
C246 C245 1.392 . S
C246 C247 1.385 . S
C246 C248 1.478 . S
C247 H241 0.930 . S
C247 C243 1.400 . S
C247 C246 1.385 . S
C248 C246 1.478 . S
C248 C250 1.381 . S
C248 C254 1.383 . S
C249 C245 1.495 . S
C249 H255 0.959 . S
C249 H256 0.961 . S
C249 H257 0.960 . S
C250 C248 1.381 . S
C250 C251 1.394 . S
C250 H258 0.930 . S
C251 C250 1.394 . S
C251 C252 1.383 . S
C251 H259 0.929 . S
C252 C251 1.383 . S
C252 C253 1.377 . S
C253 H237 0.930 . S
C253 C252 1.377 . S
C253 C254 1.379 . S
C254 H238 0.931 . S
C254 C248 1.383 . S
C254 C253 1.379 . S
H255 C249 0.959 . S
H256 C249 0.961 . S
H257 C249 0.960 . S
H258 C250 0.930 . S
H259 C251 0.929 . S
H260 C268 0.929 . S
H261 C270 0.930 . S
H262 C272 0.930 . S
H263 C275 0.929 . S
H264 C278 0.930 . S
H265 C280 0.960 . S
H266 C280 0.960 . S
H267 C280 0.960 . S
C268 H260 0.929 . S
C268 C269 1.377 . S
C268 C270 1.384 . S
C269 C268 1.377 . S
C269 C275 1.390 . S
C270 H261 0.930 . S
C270 C268 1.384 . S
C270 C271 1.372 . S
C271 C270 1.372 . S
C271 C272 1.400 . S
C271 C276 1.490 . S
C272 H262 0.930 . S
C272 C271 1.400 . S
C272 C275 1.386 . S
H273 C289 0.930 . S
H274 C290 0.931 . S
C275 H263 0.929 . S
C275 C269 1.390 . S
C275 C272 1.386 . S
C276 C271 1.490 . S
C276 C278 1.395 . S
C276 C279 1.403 . S
H277 C283 0.930 . S
C278 H264 0.930 . S
C278 C276 1.395 . S
C278 C281 1.403 . S
C279 C276 1.403 . S
C279 C280 1.524 . S
C279 C283 1.400 . S
C280 H265 0.960 . S
C280 H266 0.960 . S
C280 H267 0.960 . S
C280 C279 1.524 . S
C281 C278 1.403 . S
C281 C282 1.392 . S
C281 C285 1.495 . S
C282 C281 1.392 . S
C282 C283 1.385 . S
C282 C284 1.478 . S
C283 H277 0.930 . S
C283 C279 1.400 . S
C283 C282 1.385 . S
C284 C282 1.478 . S
C284 C286 1.381 . S
C284 C290 1.383 . S
C285 C281 1.495 . S
C285 H291 0.959 . S
C285 H292 0.961 . S
C285 H293 0.960 . S
C286 C284 1.381 . S
C286 C287 1.394 . S
C286 H294 0.930 . S
C287 C286 1.394 . S
C287 C288 1.383 . S
C287 H295 0.929 . S
C288 C287 1.383 . S
C288 C289 1.377 . S
C289 H273 0.930 . S
C289 C288 1.377 . S
C289 C290 1.379 . S
C290 H274 0.931 . S
C290 C284 1.383 . S
C290 C289 1.379 . S
H291 C285 0.959 . S
H292 C285 0.961 . S
H293 C285 0.960 . S
H294 C286 0.930 . S
H295 C287 0.929 . S
H296 C304 0.929 . S
H297 C306 0.930 . S
H298 C308 0.930 . S
H299 C311 0.929 . S
H300 C314 0.930 . S
H301 C316 0.960 . S
H302 C316 0.960 . S
H303 C316 0.960 . S
C304 H296 0.929 . S
C304 C305 1.377 . S
C304 C306 1.384 . S
C305 C304 1.377 . S
C305 C311 1.390 . S
C306 H297 0.930 . S
C306 C304 1.384 . S
C306 C307 1.372 . S
C307 C306 1.372 . S
C307 C308 1.400 . S
C307 C312 1.490 . S
C308 H298 0.930 . S
C308 C307 1.400 . S
C308 C311 1.386 . S
H309 C325 0.930 . S
H310 C326 0.931 . S
C311 H299 0.929 . S
C311 C305 1.390 . S
C311 C308 1.386 . S
C312 C307 1.490 . S
C312 C314 1.395 . S
C312 C315 1.403 . S
H313 C319 0.930 . S
C314 H300 0.930 . S
C314 C312 1.395 . S
C314 C317 1.403 . S
C315 C312 1.403 . S
C315 C316 1.524 . S
C315 C319 1.400 . S
C316 H301 0.960 . S
C316 H302 0.960 . S
C316 H303 0.960 . S
C316 C315 1.524 . S
C317 C314 1.403 . S
C317 C318 1.392 . S
C317 C321 1.495 . S
C318 C317 1.392 . S
C318 C319 1.385 . S
C318 C320 1.478 . S
C319 H313 0.930 . S
C319 C315 1.400 . S
C319 C318 1.385 . S
C320 C318 1.478 . S
C320 C322 1.381 . S
C320 C326 1.383 . S
C321 C317 1.495 . S
C321 H327 0.959 . S
C321 H328 0.961 . S
C321 H329 0.960 . S
C322 C320 1.381 . S
C322 C323 1.394 . S
C322 H330 0.930 . S
C323 C322 1.394 . S
C323 C324 1.383 . S
C323 H331 0.929 . S
C324 C323 1.383 . S
C324 C325 1.377 . S
C325 H309 0.930 . S
C325 C324 1.377 . S
C325 C326 1.379 . S
C326 H310 0.931 . S
C326 C320 1.383 . S
C326 C325 1.379 . S
H327 C321 0.959 . S
H328 C321 0.961 . S
H329 C321 0.960 . S
H330 C322 0.930 . S
H331 C323 0.929 . S
H332 C340 0.929 . S
H333 C342 0.930 . S
H334 C344 0.930 . S
H335 C347 0.929 . S
H336 C350 0.930 . S
H337 C352 0.960 . S
H338 C352 0.960 . S
H339 C352 0.960 . S
C340 H332 0.929 . S
C340 C341 1.377 . S
C340 C342 1.384 . S
C341 C340 1.377 . S
C341 C347 1.390 . S
C342 H333 0.930 . S
C342 C340 1.384 . S
C342 C343 1.372 . S
C343 C342 1.372 . S
C343 C344 1.400 . S
C343 C348 1.490 . S
C344 H334 0.930 . S
C344 C343 1.400 . S
C344 C347 1.386 . S
H345 C361 0.930 . S
H346 C362 0.931 . S
C347 H335 0.929 . S
C347 C341 1.390 . S
C347 C344 1.386 . S
C348 C343 1.490 . S
C348 C350 1.395 . S
C348 C351 1.403 . S
H349 C355 0.930 . S
C350 H336 0.930 . S
C350 C348 1.395 . S
C350 C353 1.403 . S
C351 C348 1.403 . S
C351 C352 1.524 . S
C351 C355 1.400 . S
C352 H337 0.960 . S
C352 H338 0.960 . S
C352 H339 0.960 . S
C352 C351 1.524 . S
C353 C350 1.403 . S
C353 C354 1.392 . S
C353 C357 1.495 . S
C354 C353 1.392 . S
C354 C355 1.385 . S
C354 C356 1.478 . S
C355 H349 0.930 . S
C355 C351 1.400 . S
C355 C354 1.385 . S
C356 C354 1.478 . S
C356 C358 1.381 . S
C356 C362 1.383 . S
C357 C353 1.495 . S
C357 H363 0.959 . S
C357 H364 0.961 . S
C357 H365 0.960 . S
C358 C356 1.381 . S
C358 C359 1.394 . S
C358 H366 0.930 . S
C359 C358 1.394 . S
C359 C360 1.383 . S
C359 H367 0.929 . S
C360 C359 1.383 . S
C360 C361 1.377 . S
C361 H345 0.930 . S
C361 C360 1.377 . S
C361 C362 1.379 . S
C362 H346 0.931 . S
C362 C356 1.383 . S
C362 C361 1.379 . S
H363 C357 0.959 . S
H364 C357 0.961 . S
H365 C357 0.960 . S
H366 C358 0.930 . S
H367 C359 0.929 . S
H368 C376 0.929 . S
H369 C378 0.930 . S
H370 C380 0.930 . S
H371 C383 0.929 . S
H372 C386 0.930 . S
H373 C388 0.960 . S
H374 C388 0.960 . S
H375 C388 0.960 . S
C376 H368 0.929 . S
C376 C377 1.377 . S
C376 C378 1.384 . S
C377 C376 1.377 . S
C377 C383 1.390 . S
C378 H369 0.930 . S
C378 C376 1.384 . S
C378 C379 1.372 . S
C379 C378 1.372 . S
C379 C380 1.400 . S
C379 C384 1.490 . S
C380 H370 0.930 . S
C380 C379 1.400 . S
C380 C383 1.386 . S
H381 C397 0.930 . S
H382 C398 0.931 . S
C383 H371 0.929 . S
C383 C377 1.390 . S
C383 C380 1.386 . S
C384 C379 1.490 . S
C384 C386 1.395 . S
C384 C387 1.403 . S
H385 C391 0.930 . S
C386 H372 0.930 . S
C386 C384 1.395 . S
C386 C389 1.403 . S
C387 C384 1.403 . S
C387 C388 1.524 . S
C387 C391 1.400 . S
C388 H373 0.960 . S
C388 H374 0.960 . S
C388 H375 0.960 . S
C388 C387 1.524 . S
C389 C386 1.403 . S
C389 C390 1.392 . S
C389 C393 1.495 . S
C390 C389 1.392 . S
C390 C391 1.385 . S
C390 C392 1.478 . S
C391 H385 0.930 . S
C391 C387 1.400 . S
C391 C390 1.385 . S
C392 C390 1.478 . S
C392 C394 1.381 . S
C392 C398 1.383 . S
C393 C389 1.495 . S
C393 H399 0.959 . S
C393 H400 0.961 . S
C393 H401 0.960 . S
C394 C392 1.381 . S
C394 C395 1.394 . S
C394 H402 0.930 . S
C395 C394 1.394 . S
C395 C396 1.383 . S
C395 H403 0.929 . S
C396 C395 1.383 . S
C396 C397 1.377 . S
C397 H381 0.930 . S
C397 C396 1.377 . S
C397 C398 1.379 . S
C398 H382 0.931 . S
C398 C392 1.383 . S
C398 C397 1.379 . S
H399 C393 0.959 . S
H400 C393 0.961 . S
H401 C393 0.960 . S
H402 C394 0.930 . S
H403 C395 0.929 . S
H404 C412 0.929 . S
H405 C414 0.930 . S
H406 C416 0.930 . S
H407 C419 0.929 . S
H408 C422 0.930 . S
H409 C424 0.960 . S
H410 C424 0.960 . S
H411 C424 0.960 . S
C412 H404 0.929 . S
C412 C413 1.377 . S
C412 C414 1.384 . S
C413 C412 1.377 . S
C413 C419 1.390 . S
C414 H405 0.930 . S
C414 C412 1.384 . S
C414 C415 1.372 . S
C415 C414 1.372 . S
C415 C416 1.400 . S
C415 C420 1.490 . S
C416 H406 0.930 . S
C416 C415 1.400 . S
C416 C419 1.386 . S
H417 C433 0.930 . S
H418 C434 0.931 . S
C419 H407 0.929 . S
C419 C413 1.390 . S
C419 C416 1.386 . S
C420 C415 1.490 . S
C420 C422 1.395 . S
C420 C423 1.403 . S
H421 C427 0.930 . S
C422 H408 0.930 . S
C422 C420 1.395 . S
C422 C425 1.403 . S
C423 C420 1.403 . S
C423 C424 1.524 . S
C423 C427 1.400 . S
C424 H409 0.960 . S
C424 H410 0.960 . S
C424 H411 0.960 . S
C424 C423 1.524 . S
C425 C422 1.403 . S
C425 C426 1.392 . S
C425 C429 1.495 . S
C426 C425 1.392 . S
C426 C427 1.385 . S
C426 C428 1.478 . S
C427 H421 0.930 . S
C427 C423 1.400 . S
C427 C426 1.385 . S
C428 C426 1.478 . S
C428 C430 1.381 . S
C428 C434 1.383 . S
C429 C425 1.495 . S
C429 H435 0.959 . S
C429 H436 0.961 . S
C429 H437 0.960 . S
C430 C428 1.381 . S
C430 C431 1.394 . S
C430 H438 0.930 . S
C431 C430 1.394 . S
C431 C432 1.383 . S
C431 H439 0.929 . S
C432 C431 1.383 . S
C432 C433 1.377 . S
C433 H417 0.930 . S
C433 C432 1.377 . S
C433 C434 1.379 . S
C434 H418 0.931 . S
C434 C428 1.383 . S
C434 C433 1.379 . S
H435 C429 0.959 . S
H436 C429 0.961 . S
H437 C429 0.960 . S
H438 C430 0.930 . S
H439 C431 0.929 . S
H440 C448 0.929 . S
H441 C450 0.930 . S
H442 C452 0.930 . S
H443 C455 0.929 . S
H444 C458 0.930 . S
H445 C460 0.960 . S
H446 C460 0.960 . S
H447 C460 0.960 . S
C448 H440 0.929 . S
C448 C449 1.377 . S
C448 C450 1.384 . S
C449 C448 1.377 . S
C449 C455 1.390 . S
C450 H441 0.930 . S
C450 C448 1.384 . S
C450 C451 1.372 . S
C451 C450 1.372 . S
C451 C452 1.400 . S
C451 C456 1.490 . S
C452 H442 0.930 . S
C452 C451 1.400 . S
C452 C455 1.386 . S
H453 C469 0.930 . S
H454 C470 0.931 . S
C455 H443 0.929 . S
C455 C449 1.390 . S
C455 C452 1.386 . S
C456 C451 1.490 . S
C456 C458 1.395 . S
C456 C459 1.403 . S
H457 C463 0.930 . S
C458 H444 0.930 . S
C458 C456 1.395 . S
C458 C461 1.403 . S
C459 C456 1.403 . S
C459 C460 1.524 . S
C459 C463 1.400 . S
C460 H445 0.960 . S
C460 H446 0.960 . S
C460 H447 0.960 . S
C460 C459 1.524 . S
C461 C458 1.403 . S
C461 C462 1.392 . S
C461 C465 1.495 . S
C462 C461 1.392 . S
C462 C463 1.385 . S
C462 C464 1.478 . S
C463 H457 0.930 . S
C463 C459 1.400 . S
C463 C462 1.385 . S
C464 C462 1.478 . S
C464 C466 1.381 . S
C464 C470 1.383 . S
C465 C461 1.495 . S
C465 H471 0.959 . S
C465 H472 0.961 . S
C465 H473 0.960 . S
C466 C464 1.381 . S
C466 C467 1.394 . S
C466 H474 0.930 . S
C467 C466 1.394 . S
C467 C468 1.383 . S
C467 H475 0.929 . S
C468 C467 1.383 . S
C468 C469 1.377 . S
C469 H453 0.930 . S
C469 C468 1.377 . S
C469 C470 1.379 . S
C470 H454 0.931 . S
C470 C464 1.383 . S
C470 C469 1.379 . S
H471 C465 0.959 . S
H472 C465 0.961 . S
H473 C465 0.960 . S
H474 C466 0.930 . S
H475 C467 0.929 . S
H476 C484 0.929 . S
H477 C486 0.930 . S
H478 C488 0.930 . S
H479 C491 0.929 . S
H480 C494 0.930 . S
H481 C496 0.960 . S
H482 C496 0.960 . S
H483 C496 0.960 . S
C484 H476 0.929 . S
C484 C485 1.377 . S
C484 C486 1.384 . S
C485 C484 1.377 . S
C485 C491 1.390 . S
C486 H477 0.930 . S
C486 C484 1.384 . S
C486 C487 1.372 . S
C487 C486 1.372 . S
C487 C488 1.400 . S
C487 C492 1.490 . S
C488 H478 0.930 . S
C488 C487 1.400 . S
C488 C491 1.386 . S
H489 C505 0.930 . S
H490 C506 0.931 . S
C491 H479 0.929 . S
C491 C485 1.390 . S
C491 C488 1.386 . S
C492 C487 1.490 . S
C492 C494 1.395 . S
C492 C495 1.403 . S
H493 C499 0.930 . S
C494 H480 0.930 . S
C494 C492 1.395 . S
C494 C497 1.403 . S
C495 C492 1.403 . S
C495 C496 1.524 . S
C495 C499 1.400 . S
C496 H481 0.960 . S
C496 H482 0.960 . S
C496 H483 0.960 . S
C496 C495 1.524 . S
C497 C494 1.403 . S
C497 C498 1.392 . S
C497 C501 1.495 . S
C498 C497 1.392 . S
C498 C499 1.385 . S
C498 C500 1.478 . S
C499 H493 0.930 . S
C499 C495 1.400 . S
C499 C498 1.385 . S
C500 C498 1.478 . S
C500 C502 1.381 . S
C500 C506 1.383 . S
C501 C497 1.495 . S
C501 H507 0.959 . S
C501 H508 0.961 . S
C501 H509 0.960 . S
C502 C500 1.381 . S
C502 C503 1.394 . S
C502 H510 0.930 . S
C503 C502 1.394 . S
C503 C504 1.383 . S
C503 H511 0.929 . S
C504 C503 1.383 . S
C504 C505 1.377 . S
C505 H489 0.930 . S
C505 C504 1.377 . S
C505 C506 1.379 . S
C506 H490 0.931 . S
C506 C500 1.383 . S
C506 C505 1.379 . S
H507 C501 0.959 . S
H508 C501 0.961 . S
H509 C501 0.960 . S
H510 C502 0.930 . S
H511 C503 0.929 . S
H512 C520 0.929 . S
H513 C522 0.930 . S
H514 C524 0.930 . S
H515 C527 0.929 . S
H516 C530 0.930 . S
H517 C532 0.960 . S
H518 C532 0.960 . S
H519 C532 0.960 . S
C520 H512 0.929 . S
C520 C521 1.377 . S
C520 C522 1.384 . S
C521 C520 1.377 . S
C521 C527 1.390 . S
C522 H513 0.930 . S
C522 C520 1.384 . S
C522 C523 1.372 . S
C523 C522 1.372 . S
C523 C524 1.400 . S
C523 C528 1.490 . S
C524 H514 0.930 . S
C524 C523 1.400 . S
C524 C527 1.386 . S
H525 C541 0.930 . S
H526 C542 0.931 . S
C527 H515 0.929 . S
C527 C521 1.390 . S
C527 C524 1.386 . S
C528 C523 1.490 . S
C528 C530 1.395 . S
C528 C531 1.403 . S
H529 C535 0.930 . S
C530 H516 0.930 . S
C530 C528 1.395 . S
C530 C533 1.403 . S
C531 C528 1.403 . S
C531 C532 1.524 . S
C531 C535 1.400 . S
C532 H517 0.960 . S
C532 H518 0.960 . S
C532 H519 0.960 . S
C532 C531 1.524 . S
C533 C530 1.403 . S
C533 C534 1.392 . S
C533 C537 1.495 . S
C534 C533 1.392 . S
C534 C535 1.385 . S
C534 C536 1.478 . S
C535 H529 0.930 . S
C535 C531 1.400 . S
C535 C534 1.385 . S
C536 C534 1.478 . S
C536 C538 1.381 . S
C536 C542 1.383 . S
C537 C533 1.495 . S
C537 H543 0.959 . S
C537 H544 0.961 . S
C537 H545 0.960 . S
C538 C536 1.381 . S
C538 C539 1.394 . S
C538 H546 0.930 . S
C539 C538 1.394 . S
C539 C540 1.383 . S
C539 H547 0.929 . S
C540 C539 1.383 . S
C540 C541 1.377 . S
C541 H525 0.930 . S
C541 C540 1.377 . S
C541 C542 1.379 . S
C542 H526 0.931 . S
C542 C536 1.383 . S
C542 C541 1.379 . S
H543 C537 0.959 . S
H544 C537 0.961 . S
H545 C537 0.960 . S
H546 C538 0.930 . S
H547 C539 0.929 . S
H548 C556 0.929 . S
H549 C558 0.930 . S
H550 C560 0.930 . S
H551 C563 0.929 . S
H552 C566 0.930 . S
H553 C568 0.960 . S
H554 C568 0.960 . S
H555 C568 0.960 . S
C556 H548 0.929 . S
C556 C557 1.377 . S
C556 C558 1.384 . S
C557 C556 1.377 . S
C557 C563 1.390 . S
C558 H549 0.930 . S
C558 C556 1.384 . S
C558 C559 1.372 . S
C559 C558 1.372 . S
C559 C560 1.400 . S
C559 C564 1.490 . S
C560 H550 0.930 . S
C560 C559 1.400 . S
C560 C563 1.386 . S
H561 C577 0.930 . S
H562 C578 0.931 . S
C563 H551 0.929 . S
C563 C557 1.390 . S
C563 C560 1.386 . S
C564 C559 1.490 . S
C564 C566 1.395 . S
C564 C567 1.403 . S
H565 C571 0.930 . S
C566 H552 0.930 . S
C566 C564 1.395 . S
C566 C569 1.403 . S
C567 C564 1.403 . S
C567 C568 1.524 . S
C567 C571 1.400 . S
C568 H553 0.960 . S
C568 H554 0.960 . S
C568 H555 0.960 . S
C568 C567 1.524 . S
C569 C566 1.403 . S
C569 C570 1.392 . S
C569 C573 1.495 . S
C570 C569 1.392 . S
C570 C571 1.385 . S
C570 C572 1.478 . S
C571 H565 0.930 . S
C571 C567 1.400 . S
C571 C570 1.385 . S
C572 C570 1.478 . S
C572 C574 1.381 . S
C572 C578 1.383 . S
C573 C569 1.495 . S
C573 H579 0.959 . S
C573 H580 0.961 . S
C573 H581 0.960 . S
C574 C572 1.381 . S
C574 C575 1.394 . S
C574 H582 0.930 . S
C575 C574 1.394 . S
C575 C576 1.383 . S
C575 H583 0.929 . S
C576 C575 1.383 . S
C576 C577 1.377 . S
C577 H561 0.930 . S
C577 C576 1.377 . S
C577 C578 1.379 . S
C578 H562 0.931 . S
C578 C572 1.383 . S
C578 C577 1.379 . S
H579 C573 0.959 . S
H580 C573 0.961 . S
H581 C573 0.960 . S
H582 C574 0.930 . S
H583 C575 0.929 . S
H584 C592 0.929 . S
H585 C594 0.930 . S
H586 C596 0.930 . S
H587 C599 0.929 . S
H588 C602 0.930 . S
H589 C604 0.960 . S
H590 C604 0.960 . S
H591 C604 0.960 . S
C592 H584 0.929 . S
C592 C593 1.377 . S
C592 C594 1.384 . S
C593 C592 1.377 . S
C593 C599 1.390 . S
C594 H585 0.930 . S
C594 C592 1.384 . S
C594 C595 1.372 . S
C595 C594 1.372 . S
C595 C596 1.400 . S
C595 C600 1.490 . S
C596 H586 0.930 . S
C596 C595 1.400 . S
C596 C599 1.386 . S
H597 C613 0.930 . S
H598 C614 0.931 . S
C599 H587 0.929 . S
C599 C593 1.390 . S
C599 C596 1.386 . S
C600 C595 1.490 . S
C600 C602 1.395 . S
C600 C603 1.403 . S
H601 C607 0.930 . S
C602 H588 0.930 . S
C602 C600 1.395 . S
C602 C605 1.403 . S
C603 C600 1.403 . S
C603 C604 1.524 . S
C603 C607 1.400 . S
C604 H589 0.960 . S
C604 H590 0.960 . S
C604 H591 0.960 . S
C604 C603 1.524 . S
C605 C602 1.403 . S
C605 C606 1.392 . S
C605 C609 1.495 . S
C606 C605 1.392 . S
C606 C607 1.385 . S
C606 C608 1.478 . S
C607 H601 0.930 . S
C607 C603 1.400 . S
C607 C606 1.385 . S
C608 C606 1.478 . S
C608 C610 1.381 . S
C608 C614 1.383 . S
C609 C605 1.495 . S
C609 H615 0.959 . S
C609 H616 0.961 . S
C609 H617 0.960 . S
C610 C608 1.381 . S
C610 C611 1.394 . S
C610 H618 0.930 . S
C611 C610 1.394 . S
C611 C612 1.383 . S
C611 H619 0.929 . S
C612 C611 1.383 . S
C612 C613 1.377 . S
C613 H597 0.930 . S
C613 C612 1.377 . S
C613 C614 1.379 . S
C614 H598 0.931 . S
C614 C608 1.383 . S
C614 C613 1.379 . S
H615 C609 0.959 . S
H616 C609 0.961 . S
H617 C609 0.960 . S
H618 C610 0.930 . S
H619 C611 0.929 . S
H620 C628 0.929 . S
H621 C630 0.930 . S
H622 C632 0.930 . S
H623 C635 0.929 . S
H624 C638 0.930 . S
H625 C640 0.960 . S
H626 C640 0.960 . S
H627 C640 0.960 . S
C628 H620 0.929 . S
C628 C629 1.377 . S
C628 C630 1.384 . S
C629 C628 1.377 . S
C629 C635 1.390 . S
C630 H621 0.930 . S
C630 C628 1.384 . S
C630 C631 1.372 . S
C631 C630 1.372 . S
C631 C632 1.400 . S
C631 C636 1.490 . S
C632 H622 0.930 . S
C632 C631 1.400 . S
C632 C635 1.386 . S
H633 C649 0.930 . S
H634 C650 0.931 . S
C635 H623 0.929 . S
C635 C629 1.390 . S
C635 C632 1.386 . S
C636 C631 1.490 . S
C636 C638 1.395 . S
C636 C639 1.403 . S
H637 C643 0.930 . S
C638 H624 0.930 . S
C638 C636 1.395 . S
C638 C641 1.403 . S
C639 C636 1.403 . S
C639 C640 1.524 . S
C639 C643 1.400 . S
C640 H625 0.960 . S
C640 H626 0.960 . S
C640 H627 0.960 . S
C640 C639 1.524 . S
C641 C638 1.403 . S
C641 C642 1.392 . S
C641 C645 1.495 . S
C642 C641 1.392 . S
C642 C643 1.385 . S
C642 C644 1.478 . S
C643 H637 0.930 . S
C643 C639 1.400 . S
C643 C642 1.385 . S
C644 C642 1.478 . S
C644 C646 1.381 . S
C644 C650 1.383 . S
C645 C641 1.495 . S
C645 H651 0.959 . S
C645 H652 0.961 . S
C645 H653 0.960 . S
C646 C644 1.381 . S
C646 C647 1.394 . S
C646 H654 0.930 . S
C647 C646 1.394 . S
C647 C648 1.383 . S
C647 H655 0.929 . S
C648 C647 1.383 . S
C648 C649 1.377 . S
C649 H633 0.930 . S
C649 C648 1.377 . S
C649 C650 1.379 . S
C650 H634 0.931 . S
C650 C644 1.383 . S
C650 C649 1.379 . S
H651 C645 0.959 . S
H652 C645 0.961 . S
H653 C645 0.960 . S
H654 C646 0.930 . S
H655 C647 0.929 . S
H656 C664 0.929 . S
H657 C666 0.930 . S
H658 C668 0.930 . S
H659 C671 0.929 . S
H660 C674 0.930 . S
H661 C676 0.960 . S
H662 C676 0.960 . S
H663 C676 0.960 . S
C664 H656 0.929 . S
C664 C665 1.377 . S
C664 C666 1.384 . S
C665 C664 1.377 . S
C665 C671 1.390 . S
C666 H657 0.930 . S
C666 C664 1.384 . S
C666 C667 1.372 . S
C667 C666 1.372 . S
C667 C668 1.400 . S
C667 C672 1.490 . S
C668 H658 0.930 . S
C668 C667 1.400 . S
C668 C671 1.386 . S
H669 C685 0.930 . S
H670 C686 0.931 . S
C671 H659 0.929 . S
C671 C665 1.390 . S
C671 C668 1.386 . S
C672 C667 1.490 . S
C672 C674 1.395 . S
C672 C675 1.403 . S
H673 C679 0.930 . S
C674 H660 0.930 . S
C674 C672 1.395 . S
C674 C677 1.403 . S
C675 C672 1.403 . S
C675 C676 1.524 . S
C675 C679 1.400 . S
C676 H661 0.960 . S
C676 H662 0.960 . S
C676 H663 0.960 . S
C676 C675 1.524 . S
C677 C674 1.403 . S
C677 C678 1.392 . S
C677 C681 1.495 . S
C678 C677 1.392 . S
C678 C679 1.385 . S
C678 C680 1.478 . S
C679 H673 0.930 . S
C679 C675 1.400 . S
C679 C678 1.385 . S
C680 C678 1.478 . S
C680 C682 1.381 . S
C680 C686 1.383 . S
C681 C677 1.495 . S
C681 H687 0.959 . S
C681 H688 0.961 . S
C681 H689 0.960 . S
C682 C680 1.381 . S
C682 C683 1.394 . S
C682 H690 0.930 . S
C683 C682 1.394 . S
C683 C684 1.383 . S
C683 H691 0.929 . S
C684 C683 1.383 . S
C684 C685 1.377 . S
C685 H669 0.930 . S
C685 C684 1.377 . S
C685 C686 1.379 . S
C686 H670 0.931 . S
C686 C680 1.383 . S
C686 C685 1.379 . S
H687 C681 0.959 . S
H688 C681 0.961 . S
H689 C681 0.960 . S
H690 C682 0.930 . S
H691 C683 0.929 . S
H692 C700 0.929 . S
H693 C702 0.930 . S
H694 C704 0.930 . S
H695 C707 0.929 . S
H696 C710 0.930 . S
H697 C712 0.960 . S
H698 C712 0.960 . S
H699 C712 0.960 . S
C700 H692 0.929 . S
C700 C701 1.377 . S
C700 C702 1.384 . S
C701 C700 1.377 . S
C701 C707 1.390 . S
C702 H693 0.930 . S
C702 C700 1.384 . S
C702 C703 1.372 . S
C703 C702 1.372 . S
C703 C704 1.400 . S
C703 C708 1.490 . S
C704 H694 0.930 . S
C704 C703 1.400 . S
C704 C707 1.386 . S
H705 C721 0.930 . S
H706 C722 0.931 . S
C707 H695 0.929 . S
C707 C701 1.390 . S
C707 C704 1.386 . S
C708 C703 1.490 . S
C708 C710 1.395 . S
C708 C711 1.403 . S
H709 C715 0.930 . S
C710 H696 0.930 . S
C710 C708 1.395 . S
C710 C713 1.403 . S
C711 C708 1.403 . S
C711 C712 1.524 . S
C711 C715 1.400 . S
C712 H697 0.960 . S
C712 H698 0.960 . S
C712 H699 0.960 . S
C712 C711 1.524 . S
C713 C710 1.403 . S
C713 C714 1.392 . S
C713 C717 1.495 . S
C714 C713 1.392 . S
C714 C715 1.385 . S
C714 C716 1.478 . S
C715 H709 0.930 . S
C715 C711 1.400 . S
C715 C714 1.385 . S
C716 C714 1.478 . S
C716 C718 1.381 . S
C716 C722 1.383 . S
C717 C713 1.495 . S
C717 H723 0.959 . S
C717 H724 0.961 . S
C717 H725 0.960 . S
C718 C716 1.381 . S
C718 C719 1.394 . S
C718 H726 0.930 . S
C719 C718 1.394 . S
C719 C720 1.383 . S
C719 H727 0.929 . S
C720 C719 1.383 . S
C720 C721 1.377 . S
C721 H705 0.930 . S
C721 C720 1.377 . S
C721 C722 1.379 . S
C722 H706 0.931 . S
C722 C716 1.383 . S
C722 C721 1.379 . S
H723 C717 0.959 . S
H724 C717 0.961 . S
H725 C717 0.960 . S
H726 C718 0.930 . S
H727 C719 0.929 . S
H728 C736 0.929 . S
H729 C738 0.930 . S
H730 C740 0.930 . S
H731 C743 0.929 . S
H732 C746 0.930 . S
H733 C748 0.960 . S
H734 C748 0.960 . S
H735 C748 0.960 . S
C736 H728 0.929 . S
C736 C737 1.377 . S
C736 C738 1.384 . S
C737 C736 1.377 . S
C737 C743 1.390 . S
C738 H729 0.930 . S
C738 C736 1.384 . S
C738 C739 1.372 . S
C739 C738 1.372 . S
C739 C740 1.400 . S
C739 C744 1.490 . S
C740 H730 0.930 . S
C740 C739 1.400 . S
C740 C743 1.386 . S
H741 C757 0.930 . S
H742 C758 0.931 . S
C743 H731 0.929 . S
C743 C737 1.390 . S
C743 C740 1.386 . S
C744 C739 1.490 . S
C744 C746 1.395 . S
C744 C747 1.403 . S
H745 C751 0.930 . S
C746 H732 0.930 . S
C746 C744 1.395 . S
C746 C749 1.403 . S
C747 C744 1.403 . S
C747 C748 1.524 . S
C747 C751 1.400 . S
C748 H733 0.960 . S
C748 H734 0.960 . S
C748 H735 0.960 . S
C748 C747 1.524 . S
C749 C746 1.403 . S
C749 C750 1.392 . S
C749 C753 1.495 . S
C750 C749 1.392 . S
C750 C751 1.385 . S
C750 C752 1.478 . S
C751 H745 0.930 . S
C751 C747 1.400 . S
C751 C750 1.385 . S
C752 C750 1.478 . S
C752 C754 1.381 . S
C752 C758 1.383 . S
C753 C749 1.495 . S
C753 H759 0.959 . S
C753 H760 0.961 . S
C753 H761 0.960 . S
C754 C752 1.381 . S
C754 C755 1.394 . S
C754 H762 0.930 . S
C755 C754 1.394 . S
C755 C756 1.383 . S
C755 H763 0.929 . S
C756 C755 1.383 . S
C756 C757 1.377 . S
C757 H741 0.930 . S
C757 C756 1.377 . S
C757 C758 1.379 . S
C758 H742 0.931 . S
C758 C752 1.383 . S
C758 C757 1.379 . S
H759 C753 0.959 . S
H760 C753 0.961 . S
H761 C753 0.960 . S
H762 C754 0.930 . S
H763 C755 0.929 . S
H764 C772 0.929 . S
H765 C774 0.930 . S
H766 C776 0.930 . S
H767 C779 0.929 . S
H768 C782 0.930 . S
H769 C784 0.960 . S
H770 C784 0.960 . S
H771 C784 0.960 . S
C772 H764 0.929 . S
C772 C773 1.377 . S
C772 C774 1.384 . S
C773 C772 1.377 . S
C773 C779 1.390 . S
C774 H765 0.930 . S
C774 C772 1.384 . S
C774 C775 1.372 . S
C775 C774 1.372 . S
C775 C776 1.400 . S
C775 C780 1.490 . S
C776 H766 0.930 . S
C776 C775 1.400 . S
C776 C779 1.386 . S
H777 C793 0.930 . S
H778 C794 0.931 . S
C779 H767 0.929 . S
C779 C773 1.390 . S
C779 C776 1.386 . S
C780 C775 1.490 . S
C780 C782 1.395 . S
C780 C783 1.403 . S
H781 C787 0.930 . S
C782 H768 0.930 . S
C782 C780 1.395 . S
C782 C785 1.403 . S
C783 C780 1.403 . S
C783 C784 1.524 . S
C783 C787 1.400 . S
C784 H769 0.960 . S
C784 H770 0.960 . S
C784 H771 0.960 . S
C784 C783 1.524 . S
C785 C782 1.403 . S
C785 C786 1.392 . S
C785 C789 1.495 . S
C786 C785 1.392 . S
C786 C787 1.385 . S
C786 C788 1.478 . S
C787 H781 0.930 . S
C787 C783 1.400 . S
C787 C786 1.385 . S
C788 C786 1.478 . S
C788 C790 1.381 . S
C788 C794 1.383 . S
C789 C785 1.495 . S
C789 H795 0.959 . S
C789 H796 0.961 . S
C789 H797 0.960 . S
C790 C788 1.381 . S
C790 C791 1.394 . S
C790 H798 0.930 . S
C791 C790 1.394 . S
C791 C792 1.383 . S
C791 H799 0.929 . S
C792 C791 1.383 . S
C792 C793 1.377 . S
C793 H777 0.930 . S
C793 C792 1.377 . S
C793 C794 1.379 . S
C794 H778 0.931 . S
C794 C788 1.383 . S
C794 C793 1.379 . S
H795 C789 0.959 . S
H796 C789 0.961 . S
H797 C789 0.960 . S
H798 C790 0.930 . S
H799 C791 0.929 . S
H800 C808 0.929 . S
H801 C810 0.930 . S
H802 C812 0.930 . S
H803 C815 0.929 . S
H804 C818 0.930 . S
H805 C820 0.960 . S
H806 C820 0.960 . S
H807 C820 0.960 . S
C808 H800 0.929 . S
C808 C809 1.377 . S
C808 C810 1.384 1_565 S
C809 C808 1.377 . S
C809 C815 1.390 1_565 S
C810 H801 0.930 . S
C810 C808 1.384 1_545 S
C810 C811 1.372 . S
C811 C810 1.372 . S
C811 C812 1.400 . S
C811 C816 1.490 . S
C812 H802 0.930 . S
C812 C811 1.400 . S
C812 C815 1.386 . S
H813 C829 0.930 . S
H814 C830 0.931 . S
C815 H803 0.929 . S
C815 C809 1.390 1_545 S
C815 C812 1.386 . S
C816 C811 1.490 . S
C816 C818 1.395 . S
C816 C819 1.403 . S
H817 C823 0.930 . S
C818 H804 0.930 . S
C818 C816 1.395 . S
C818 C821 1.403 . S
C819 C816 1.403 . S
C819 C820 1.524 . S
C819 C823 1.400 . S
C820 H805 0.960 . S
C820 H806 0.960 . S
C820 H807 0.960 . S
C820 C819 1.524 . S
C821 C818 1.403 . S
C821 C822 1.392 . S
C821 C825 1.495 . S
C822 C821 1.392 . S
C822 C823 1.385 . S
C822 C824 1.478 . S
C823 H817 0.930 . S
C823 C819 1.400 . S
C823 C822 1.385 . S
C824 C822 1.478 . S
C824 C826 1.381 . S
C824 C830 1.383 . S
C825 C821 1.495 . S
C825 H831 0.959 . S
C825 H832 0.961 . S
C825 H833 0.960 . S
C826 C824 1.381 . S
C826 C827 1.394 . S
C826 H834 0.930 . S
C827 C826 1.394 . S
C827 C828 1.383 . S
C827 H835 0.929 . S
C828 C827 1.383 . S
C828 C829 1.377 . S
C829 H813 0.930 . S
C829 C828 1.377 . S
C829 C830 1.379 . S
C830 H814 0.931 . S
C830 C824 1.383 . S
C830 C829 1.379 . S
H831 C825 0.959 . S
H832 C825 0.961 . S
H833 C825 0.960 . S
H834 C826 0.930 . S
H835 C827 0.929 . S
H836 C844 0.929 . S
H837 C846 0.930 . S
H838 C848 0.930 . S
H839 C851 0.929 . S
H840 C854 0.930 . S
H841 C856 0.960 . S
H842 C856 0.960 . S
H843 C856 0.960 . S
C844 H836 0.929 . S
C844 C845 1.377 . S
C844 C846 1.384 . S
C845 C844 1.377 . S
C845 C851 1.390 . S
C846 H837 0.930 . S
C846 C844 1.384 . S
C846 C847 1.372 . S
C847 C846 1.372 . S
C847 C848 1.400 . S
C847 C852 1.490 . S
C848 H838 0.930 . S
C848 C847 1.400 . S
C848 C851 1.386 . S
H849 C865 0.922 1_655 S
H850 C866 0.931 . S
C851 H839 0.929 . S
C851 C845 1.390 . S
C851 C848 1.386 . S
C852 C847 1.490 . S
C852 C854 1.395 . S
C852 C855 1.403 . S
H853 C859 0.930 . S
C854 H840 0.930 . S
C854 C852 1.395 . S
C854 C857 1.403 . S
C855 C852 1.403 . S
C855 C856 1.524 . S
C855 C859 1.400 . S
C856 H841 0.960 . S
C856 H842 0.960 . S
C856 H843 0.960 . S
C856 C855 1.524 . S
C857 C854 1.403 . S
C857 C858 1.392 . S
C857 C861 1.495 . S
C858 C857 1.392 . S
C858 C859 1.385 . S
C858 C860 1.478 . S
C859 H853 0.930 . S
C859 C855 1.400 . S
C859 C858 1.385 . S
C860 C858 1.478 . S
C860 C862 1.381 . S
C860 C866 1.383 . S
C861 C857 1.495 . S
C861 H867 0.959 . S
C861 H868 0.961 . S
C861 H869 0.960 . S
C862 C860 1.381 . S
C862 C863 1.394 1_455 S
C862 H870 0.930 . S
C863 C862 1.394 1_655 S
C863 C864 1.383 . S
C863 H871 0.929 . S
C864 C863 1.383 . S
C864 C865 1.362 1_655 S
C865 H849 0.922 1_455 S
C865 C864 1.362 1_455 S
C865 C866 1.402 . S
C866 H850 0.931 . S
C866 C860 1.383 . S
C866 C865 1.402 . S
H867 C861 0.959 . S
H868 C861 0.961 . S
H869 C861 0.960 . S
H870 C862 0.930 . S
H871 C863 0.929 . S
H872 C880 0.929 . S
H873 C882 0.930 . S
H874 C884 0.930 . S
H875 C887 0.929 . S
H876 C890 0.930 . S
H877 C892 0.960 . S
H878 C892 0.960 . S
H879 C892 0.960 . S
C880 H872 0.929 . S
C880 C881 1.377 . S
C880 C882 1.384 1_545 S
C881 C880 1.377 . S
C881 C887 1.390 1_545 S
C882 H873 0.930 . S
C882 C880 1.384 1_565 S
C882 C883 1.372 . S
C883 C882 1.372 . S
C883 C884 1.400 . S
C883 C888 1.490 . S
C884 H874 0.930 . S
C884 C883 1.400 . S
C884 C887 1.386 . S
H885 C901 0.930 . S
H886 C902 0.931 . S
C887 H875 0.929 . S
C887 C881 1.390 1_565 S
C887 C884 1.386 . S
C888 C883 1.490 . S
C888 C890 1.395 . S
C888 C891 1.403 . S
H889 C895 0.930 . S
C890 H876 0.930 . S
C890 C888 1.395 . S
C890 C893 1.403 . S
C891 C888 1.403 . S
C891 C892 1.524 . S
C891 C895 1.400 . S
C892 H877 0.960 . S
C892 H878 0.960 . S
C892 H879 0.960 . S
C892 C891 1.524 . S
C893 C890 1.403 . S
C893 C894 1.392 . S
C893 C897 1.495 . S
C894 C893 1.392 . S
C894 C895 1.385 . S
C894 C896 1.478 . S
C895 H889 0.930 . S
C895 C891 1.400 . S
C895 C894 1.385 . S
C896 C894 1.478 . S
C896 C898 1.381 . S
C896 C902 1.383 . S
C897 C893 1.495 . S
C897 H903 0.959 . S
C897 H904 0.961 . S
C897 H905 0.960 . S
C898 C896 1.381 . S
C898 C899 1.394 . S
C898 H906 0.930 . S
C899 C898 1.394 . S
C899 C900 1.383 . S
C899 H907 0.929 . S
C900 C899 1.383 . S
C900 C901 1.377 . S
C901 H885 0.930 . S
C901 C900 1.377 . S
C901 C902 1.379 . S
C902 H886 0.931 . S
C902 C896 1.383 . S
C902 C901 1.379 . S
H903 C897 0.959 . S
H904 C897 0.961 . S
H905 C897 0.960 . S
H906 C898 0.930 . S
H907 C899 0.929 . S
H908 C916 0.929 . S
H909 C918 0.930 . S
H910 C920 0.930 . S
H911 C923 0.929 . S
H912 C926 0.930 . S
H913 C928 0.960 . S
H914 C928 0.960 . S
H915 C928 0.960 . S
C916 H908 0.929 . S
C916 C917 1.377 . S
C916 C918 1.384 . S
C917 C916 1.377 . S
C917 C923 1.390 . S
C918 H909 0.930 . S
C918 C916 1.384 . S
C918 C919 1.372 . S
C919 C918 1.372 . S
C919 C920 1.400 . S
C919 C924 1.490 . S
C920 H910 0.930 . S
C920 C919 1.400 . S
C920 C923 1.386 . S
H921 C937 0.930 . S
H922 C938 0.931 . S
C923 H911 0.929 . S
C923 C917 1.390 . S
C923 C920 1.386 . S
C924 C919 1.490 . S
C924 C926 1.395 . S
C924 C927 1.403 . S
H925 C931 0.930 . S
C926 H912 0.930 . S
C926 C924 1.395 . S
C926 C929 1.403 . S
C927 C924 1.403 . S
C927 C928 1.524 . S
C927 C931 1.400 . S
C928 H913 0.960 . S
C928 H914 0.960 . S
C928 H915 0.960 . S
C928 C927 1.524 . S
C929 C926 1.403 . S
C929 C930 1.392 . S
C929 C933 1.495 . S
C930 C929 1.392 . S
C930 C931 1.385 . S
C930 C932 1.478 . S
C931 H925 0.930 . S
C931 C927 1.400 . S
C931 C930 1.385 . S
C932 C930 1.478 . S
C932 C934 1.381 . S
C932 C938 1.383 . S
C933 C929 1.495 . S
C933 H939 0.959 . S
C933 H940 0.961 . S
C933 H941 0.960 . S
C934 C932 1.381 . S
C934 C935 1.394 1_655 S
C934 H942 0.930 . S
C935 C934 1.394 1_455 S
C935 C936 1.383 . S
C935 H943 0.929 . S
C936 C935 1.383 . S
C936 C937 1.377 1_455 S
C937 H921 0.930 . S
C937 C936 1.377 1_655 S
C937 C938 1.379 . S
C938 H922 0.931 . S
C938 C932 1.383 . S
C938 C937 1.379 . S
H939 C933 0.959 . S
H940 C933 0.961 . S
H941 C933 0.960 . S
H942 C934 0.930 . S
H943 C935 0.929 . S
H944 C952 0.929 . S
H945 C954 0.930 . S
H946 C956 0.930 . S
H947 C959 0.929 . S
H948 C962 0.930 . S
H949 C964 0.960 . S
H950 C964 0.960 . S
H951 C964 0.960 . S
C952 H944 0.929 . S
C952 C953 1.377 . S
C952 C954 1.384 1_545 S
C953 C952 1.377 . S
C953 C959 1.390 1_545 S
C954 H945 0.930 . S
C954 C952 1.384 1_565 S
C954 C955 1.372 . S
C955 C954 1.372 . S
C955 C956 1.400 . S
C955 C960 1.490 . S
C956 H946 0.930 . S
C956 C955 1.400 . S
C956 C959 1.386 . S
H957 C973 0.930 . S
H958 C974 0.931 . S
C959 H947 0.929 . S
C959 C953 1.390 1_565 S
C959 C956 1.386 . S
C960 C955 1.490 . S
C960 C962 1.395 . S
C960 C963 1.403 . S
H961 C967 0.930 . S
C962 H948 0.930 . S
C962 C960 1.395 . S
C962 C965 1.403 . S
C963 C960 1.403 . S
C963 C964 1.524 . S
C963 C967 1.400 . S
C964 H949 0.960 . S
C964 H950 0.960 . S
C964 H951 0.960 . S
C964 C963 1.524 . S
C965 C962 1.403 . S
C965 C966 1.392 . S
C965 C969 1.495 . S
C966 C965 1.392 . S
C966 C967 1.385 . S
C966 C968 1.478 . S
C967 H961 0.930 . S
C967 C963 1.400 . S
C967 C966 1.385 . S
C968 C966 1.478 . S
C968 C970 1.381 . S
C968 C974 1.383 . S
C969 C965 1.495 . S
C969 H975 0.959 . S
C969 H976 0.961 . S
C969 H977 0.960 . S
C970 C968 1.381 . S
C970 C971 1.394 . S
C970 H978 0.930 . S
C971 C970 1.394 . S
C971 C972 1.383 . S
C971 H979 0.929 . S
C972 C971 1.383 . S
C972 C973 1.377 . S
C973 H957 0.930 . S
C973 C972 1.377 . S
C973 C974 1.379 . S
C974 H958 0.931 . S
C974 C968 1.383 . S
C974 C973 1.379 . S
H975 C969 0.959 . S
H976 C969 0.961 . S
H977 C969 0.960 . S
H978 C970 0.930 . S
H979 C971 0.929 . S
H980 C988 0.929 . S
H981 C990 0.930 . S
H982 C992 0.930 . S
H983 C995 0.929 . S
H984 C998 0.930 . S
H985 C1000 0.960 . S
H986 C1000 0.960 . S
H987 C1000 0.960 . S
C988 H980 0.929 . S
C988 C989 1.377 . S
C988 C990 1.384 . S
C989 C988 1.377 . S
C989 C995 1.390 . S
C990 H981 0.930 . S
C990 C988 1.384 . S
C990 C991 1.372 . S
C991 C990 1.372 . S
C991 C992 1.400 . S
C991 C996 1.490 . S
C992 H982 0.930 . S
C992 C991 1.400 . S
C992 C995 1.386 . S
H993 C1009 0.930 . S
H994 C1010 0.931 . S
C995 H983 0.929 . S
C995 C989 1.390 . S
C995 C992 1.386 . S
C996 C991 1.490 . S
C996 C998 1.395 . S
C996 C999 1.403 . S
H997 C1003 0.930 . S
C998 H984 0.930 . S
C998 C996 1.395 . S
C998 C1001 1.403 . S
C999 C996 1.403 . S
C999 C1000 1.524 . S
C999 C1003 1.400 . S
C1000 H985 0.960 . S
C1000 H986 0.960 . S
C1000 H987 0.960 . S
C1000 C999 1.524 . S
C1001 C998 1.403 . S
C1001 C1002 1.392 . S
C1001 C1005 1.495 . S
C1002 C1001 1.392 . S
C1002 C1003 1.385 . S
C1002 C1004 1.478 . S
C1003 H997 0.930 . S
C1003 C999 1.400 . S
C1003 C1002 1.385 . S
C1004 C1002 1.478 . S
C1004 C1006 1.381 . S
C1004 C1010 1.383 . S
C1005 C1001 1.495 . S
C1005 H1011 0.959 . S
C1005 H1012 0.961 . S
C1005 H1013 0.960 . S
C1006 C1004 1.381 . S
C1006 C1007 1.394 1_655 S
C1006 H1014 0.930 . S
C1007 C1006 1.394 1_455 S
C1007 C1008 1.383 . S
C1007 H1015 0.929 . S
C1008 C1007 1.383 . S
C1008 C1009 1.377 1_455 S
C1009 H993 0.930 . S
C1009 C1008 1.377 1_655 S
C1009 C1010 1.379 . S
C1010 H994 0.931 . S
C1010 C1004 1.383 . S
C1010 C1009 1.379 . S
H1011 C1005 0.959 . S
H1012 C1005 0.961 . S
H1013 C1005 0.960 . S
H1014 C1006 0.930 . S
H1015 C1007 0.929 . S
H1016 C1024 0.929 . S
H1017 C1026 0.930 . S
H1018 C1028 0.930 . S
H1019 C1031 0.929 . S
H1020 C1034 0.930 . S
H1021 C1036 0.960 . S
H1022 C1036 0.960 . S
H1023 C1036 0.960 . S
C1024 H1016 0.929 . S
C1024 C1025 1.377 . S
C1024 C1026 1.384 . S
C1025 C1024 1.377 . S
C1025 C1031 1.390 . S
C1026 H1017 0.930 . S
C1026 C1024 1.384 . S
C1026 C1027 1.372 . S
C1027 C1026 1.372 . S
C1027 C1028 1.400 . S
C1027 C1032 1.490 . S
C1028 H1018 0.930 . S
C1028 C1027 1.400 . S
C1028 C1031 1.386 . S
H1029 C1045 0.919 1_565 S
H1030 C1046 0.931 . S
C1031 H1019 0.929 . S
C1031 C1025 1.390 . S
C1031 C1028 1.386 . S
C1032 C1027 1.490 . S
C1032 C1034 1.395 . S
C1032 C1035 1.403 . S
H1033 C1039 0.930 . S
C1034 H1020 0.930 . S
C1034 C1032 1.395 . S
C1034 C1037 1.403 . S
C1035 C1032 1.403 . S
C1035 C1036 1.524 . S
C1035 C1039 1.400 . S
C1036 H1021 0.960 . S
C1036 H1022 0.960 . S
C1036 H1023 0.960 . S
C1036 C1035 1.524 . S
C1037 C1034 1.403 . S
C1037 C1038 1.392 . S
C1037 C1041 1.495 . S
C1038 C1037 1.392 . S
C1038 C1039 1.385 . S
C1038 C1040 1.478 . S
C1039 H1033 0.930 . S
C1039 C1035 1.400 . S
C1039 C1038 1.385 . S
C1040 C1038 1.478 . S
C1040 C1042 1.381 . S
C1040 C1046 1.383 . S
C1041 C1037 1.495 . S
C1041 H1047 0.959 . S
C1041 H1048 0.961 . S
C1041 H1049 0.960 . S
C1042 C1040 1.381 . S
C1042 C1043 1.394 1_545 S
C1042 H1050 0.930 . S
C1043 C1042 1.394 1_565 S
C1043 C1044 1.383 . S
C1043 H1051 0.929 . S
C1044 C1043 1.383 . S
C1044 C1045 1.355 1_565 S
C1045 H1029 0.919 1_545 S
C1045 C1044 1.355 1_545 S
C1045 C1046 1.412 . S
C1046 H1030 0.931 . S
C1046 C1040 1.383 . S
C1046 C1045 1.412 . S
H1047 C1041 0.959 . S
H1048 C1041 0.961 . S
H1049 C1041 0.960 . S
H1050 C1042 0.930 . S
H1051 C1043 0.929 . S
H1052 C1060 0.929 . S
H1053 C1062 0.930 . S
H1054 C1064 0.930 . S
H1055 C1067 0.929 . S
H1056 C1070 0.930 . S
H1057 C1072 0.960 . S
H1058 C1072 0.960 . S
H1059 C1072 0.960 . S
C1060 H1052 0.929 . S
C1060 C1061 1.377 . S
C1060 C1062 1.384 . S
C1061 C1060 1.377 . S
C1061 C1067 1.390 . S
C1062 H1053 0.930 . S
C1062 C1060 1.384 . S
C1062 C1063 1.372 . S
C1063 C1062 1.372 . S
C1063 C1064 1.400 . S
C1063 C1068 1.490 . S
C1064 H1054 0.930 . S
C1064 C1063 1.400 . S
C1064 C1067 1.386 . S
H1065 C1081 0.930 . S
H1066 C1082 0.931 . S
C1067 H1055 0.929 . S
C1067 C1061 1.390 . S
C1067 C1064 1.386 . S
C1068 C1063 1.490 . S
C1068 C1070 1.395 . S
C1068 C1071 1.403 . S
H1069 C1075 0.930 . S
C1070 H1056 0.930 . S
C1070 C1068 1.395 . S
C1070 C1073 1.403 . S
C1071 C1068 1.403 . S
C1071 C1072 1.524 . S
C1071 C1075 1.400 . S
C1072 H1057 0.960 . S
C1072 H1058 0.960 . S
C1072 H1059 0.960 . S
C1072 C1071 1.524 . S
C1073 C1070 1.403 . S
C1073 C1074 1.392 . S
C1073 C1077 1.495 . S
C1074 C1073 1.392 . S
C1074 C1075 1.385 . S
C1074 C1076 1.478 . S
C1075 H1069 0.930 . S
C1075 C1071 1.400 . S
C1075 C1074 1.385 . S
C1076 C1074 1.478 . S
C1076 C1078 1.381 . S
C1076 C1082 1.383 . S
C1077 C1073 1.495 . S
C1077 H1083 0.959 . S
C1077 H1084 0.961 . S
C1077 H1085 0.960 . S
C1078 C1076 1.381 . S
C1078 C1079 1.394 1_455 S
C1078 H1086 0.930 . S
C1079 C1078 1.394 1_655 S
C1079 C1080 1.383 . S
C1079 H1087 0.929 . S
C1080 C1079 1.383 . S
C1080 C1081 1.377 1_655 S
C1081 H1065 0.930 . S
C1081 C1080 1.377 1_455 S
C1081 C1082 1.379 . S
C1082 H1066 0.931 . S
C1082 C1076 1.383 . S
C1082 C1081 1.379 . S
H1083 C1077 0.959 . S
H1084 C1077 0.961 . S
H1085 C1077 0.960 . S
H1086 C1078 0.930 . S
H1087 C1079 0.929 . S
H1088 C1096 0.929 . S
H1089 C1098 0.930 . S
H1090 C1100 0.930 . S
H1091 C1103 0.929 . S
H1092 C1106 0.930 . S
H1093 C1108 0.960 . S
H1094 C1108 0.960 . S
H1095 C1108 0.960 . S
C1096 H1088 0.929 . S
C1096 C1097 1.377 . S
C1096 C1098 1.384 . S
C1097 C1096 1.377 . S
C1097 C1103 1.390 . S
C1098 H1089 0.930 . S
C1098 C1096 1.384 . S
C1098 C1099 1.372 . S
C1099 C1098 1.372 . S
C1099 C1100 1.400 . S
C1099 C1104 1.490 . S
C1100 H1090 0.930 . S
C1100 C1099 1.400 . S
C1100 C1103 1.386 . S
H1101 C1117 0.930 . S
H1102 C1118 0.931 . S
C1103 H1091 0.929 . S
C1103 C1097 1.390 . S
C1103 C1100 1.386 . S
C1104 C1099 1.490 . S
C1104 C1106 1.395 . S
C1104 C1107 1.403 . S
H1105 C1111 0.930 . S
C1106 H1092 0.930 . S
C1106 C1104 1.395 . S
C1106 C1109 1.403 . S
C1107 C1104 1.403 . S
C1107 C1108 1.524 . S
C1107 C1111 1.400 . S
C1108 H1093 0.960 . S
C1108 H1094 0.960 . S
C1108 H1095 0.960 . S
C1108 C1107 1.524 . S
C1109 C1106 1.403 . S
C1109 C1110 1.392 . S
C1109 C1113 1.495 . S
C1110 C1109 1.392 . S
C1110 C1111 1.385 . S
C1110 C1112 1.478 . S
C1111 H1105 0.930 . S
C1111 C1107 1.400 . S
C1111 C1110 1.385 . S
C1112 C1110 1.478 . S
C1112 C1114 1.381 . S
C1112 C1118 1.383 . S
C1113 C1109 1.495 . S
C1113 H1119 0.959 . S
C1113 H1120 0.961 . S
C1113 H1121 0.960 . S
C1114 C1112 1.381 . S
C1114 C1115 1.394 . S
C1114 H1122 0.930 . S
C1115 C1114 1.394 . S
C1115 C1116 1.383 . S
C1115 H1123 0.929 . S
C1116 C1115 1.383 . S
C1116 C1117 1.377 . S
C1117 H1101 0.930 . S
C1117 C1116 1.377 . S
C1117 C1118 1.379 . S
C1118 H1102 0.931 . S
C1118 C1112 1.383 . S
C1118 C1117 1.379 . S
H1119 C1113 0.959 . S
H1120 C1113 0.961 . S
H1121 C1113 0.960 . S
H1122 C1114 0.930 . S
H1123 C1115 0.929 . S
H1124 C1132 0.929 . S
H1125 C1134 0.930 . S
H1126 C1136 0.930 . S
H1127 C1139 0.929 . S
H1128 C1142 0.930 . S
H1129 C1144 0.960 . S
H1130 C1144 0.960 . S
H1131 C1144 0.960 . S
C1132 H1124 0.929 . S
C1132 C1133 1.377 . S
C1132 C1134 1.384 . S
C1133 C1132 1.377 . S
C1133 C1139 1.390 . S
C1134 H1125 0.930 . S
C1134 C1132 1.384 . S
C1134 C1135 1.372 . S
C1135 C1134 1.372 . S
C1135 C1136 1.400 . S
C1135 C1140 1.490 . S
C1136 H1126 0.930 . S
C1136 C1135 1.400 . S
C1136 C1139 1.386 . S
H1137 C1153 0.930 . S
H1138 C1154 0.931 . S
C1139 H1127 0.929 . S
C1139 C1133 1.390 . S
C1139 C1136 1.386 . S
C1140 C1135 1.490 . S
C1140 C1142 1.395 . S
C1140 C1143 1.403 . S
H1141 C1147 0.930 . S
C1142 H1128 0.930 . S
C1142 C1140 1.395 . S
C1142 C1145 1.403 . S
C1143 C1140 1.403 . S
C1143 C1144 1.524 . S
C1143 C1147 1.400 . S
C1144 H1129 0.960 . S
C1144 H1130 0.960 . S
C1144 H1131 0.960 . S
C1144 C1143 1.524 . S
C1145 C1142 1.403 . S
C1145 C1146 1.392 . S
C1145 C1149 1.495 . S
C1146 C1145 1.392 . S
C1146 C1147 1.385 . S
C1146 C1148 1.478 . S
C1147 H1141 0.930 . S
C1147 C1143 1.400 . S
C1147 C1146 1.385 . S
C1148 C1146 1.478 . S
C1148 C1150 1.381 . S
C1148 C1154 1.383 . S
C1149 C1145 1.495 . S
C1149 H1155 0.959 . S
C1149 H1156 0.961 . S
C1149 H1157 0.960 . S
C1150 C1148 1.381 . S
C1150 C1151 1.394 . S
C1150 H1158 0.930 . S
C1151 C1150 1.394 . S
C1151 C1152 1.383 . S
C1151 H1159 0.929 . S
C1152 C1151 1.383 . S
C1152 C1153 1.377 . S
C1153 H1137 0.930 . S
C1153 C1152 1.377 . S
C1153 C1154 1.379 . S
C1154 H1138 0.931 . S
C1154 C1148 1.383 . S
C1154 C1153 1.379 . S
H1155 C1149 0.959 . S
H1156 C1149 0.961 . S
H1157 C1149 0.960 . S
H1158 C1150 0.930 . S
H1159 C1151 0.929 . S
H1160 C1168 0.929 . S
H1161 C1170 0.930 . S
H1162 C1172 0.930 . S
H1163 C1175 0.929 . S
H1164 C1178 0.930 . S
H1165 C1180 0.960 . S
H1166 C1180 0.960 . S
H1167 C1180 0.960 . S
C1168 H1160 0.929 . S
C1168 C1169 1.377 . S
C1168 C1170 1.384 . S
C1169 C1168 1.377 . S
C1169 C1175 1.390 . S
C1170 H1161 0.930 . S
C1170 C1168 1.384 . S
C1170 C1171 1.372 . S
C1171 C1170 1.372 . S
C1171 C1172 1.400 . S
C1171 C1176 1.490 . S
C1172 H1162 0.930 . S
C1172 C1171 1.400 . S
C1172 C1175 1.386 . S
H1173 C1189 0.930 . S
H1174 C1190 0.931 . S
C1175 H1163 0.929 . S
C1175 C1169 1.390 . S
C1175 C1172 1.386 . S
C1176 C1171 1.490 . S
C1176 C1178 1.395 . S
C1176 C1179 1.403 . S
H1177 C1183 0.930 . S
C1178 H1164 0.930 . S
C1178 C1176 1.395 . S
C1178 C1181 1.403 . S
C1179 C1176 1.403 . S
C1179 C1180 1.524 . S
C1179 C1183 1.400 . S
C1180 H1165 0.960 . S
C1180 H1166 0.960 . S
C1180 H1167 0.960 . S
C1180 C1179 1.524 . S
C1181 C1178 1.403 . S
C1181 C1182 1.392 . S
C1181 C1185 1.495 . S
C1182 C1181 1.392 . S
C1182 C1183 1.385 . S
C1182 C1184 1.478 . S
C1183 H1177 0.930 . S
C1183 C1179 1.400 . S
C1183 C1182 1.385 . S
C1184 C1182 1.478 . S
C1184 C1186 1.381 . S
C1184 C1190 1.383 . S
C1185 C1181 1.495 . S
C1185 H1191 0.959 . S
C1185 H1192 0.961 . S
C1185 H1193 0.960 . S
C1186 C1184 1.381 . S
C1186 C1187 1.394 . S
C1186 H1194 0.930 . S
C1187 C1186 1.394 . S
C1187 C1188 1.383 . S
C1187 H1195 0.929 . S
C1188 C1187 1.383 . S
C1188 C1189 1.377 . S
C1189 H1173 0.930 . S
C1189 C1188 1.377 . S
C1189 C1190 1.379 . S
C1190 H1174 0.931 . S
C1190 C1184 1.383 . S
C1190 C1189 1.379 . S
H1191 C1185 0.959 . S
H1192 C1185 0.961 . S
H1193 C1185 0.960 . S
H1194 C1186 0.930 . S
H1195 C1187 0.929 . S
H1196 C1204 0.929 . S
H1197 C1206 0.930 . S
H1198 C1208 0.930 . S
H1199 C1211 0.929 . S
H1200 C1214 0.930 . S
H1201 C1216 0.960 . S
H1202 C1216 0.960 . S
H1203 C1216 0.960 . S
C1204 H1196 0.929 . S
C1204 C1205 1.377 . S
C1204 C1206 1.384 . S
C1205 C1204 1.377 . S
C1205 C1211 1.390 . S
C1206 H1197 0.930 . S
C1206 C1204 1.384 . S
C1206 C1207 1.372 . S
C1207 C1206 1.372 . S
C1207 C1208 1.400 . S
C1207 C1212 1.490 . S
C1208 H1198 0.930 . S
C1208 C1207 1.400 . S
C1208 C1211 1.386 . S
H1209 C1225 0.930 . S
H1210 C1226 0.931 . S
C1211 H1199 0.929 . S
C1211 C1205 1.390 . S
C1211 C1208 1.386 . S
C1212 C1207 1.490 . S
C1212 C1214 1.395 . S
C1212 C1215 1.403 . S
H1213 C1219 0.930 . S
C1214 H1200 0.930 . S
C1214 C1212 1.395 . S
C1214 C1217 1.403 . S
C1215 C1212 1.403 . S
C1215 C1216 1.524 . S
C1215 C1219 1.400 . S
C1216 H1201 0.960 . S
C1216 H1202 0.960 . S
C1216 H1203 0.960 . S
C1216 C1215 1.524 . S
C1217 C1214 1.403 . S
C1217 C1218 1.392 . S
C1217 C1221 1.495 . S
C1218 C1217 1.392 . S
C1218 C1219 1.385 . S
C1218 C1220 1.478 . S
C1219 H1213 0.930 . S
C1219 C1215 1.400 . S
C1219 C1218 1.385 . S
C1220 C1218 1.478 . S
C1220 C1222 1.381 . S
C1220 C1226 1.383 . S
C1221 C1217 1.495 . S
C1221 H1227 0.959 . S
C1221 H1228 0.961 . S
C1221 H1229 0.960 . S
C1222 C1220 1.381 . S
C1222 C1223 1.394 . S
C1222 H1230 0.930 . S
C1223 C1222 1.394 . S
C1223 C1224 1.383 . S
C1223 H1231 0.929 . S
C1224 C1223 1.383 . S
C1224 C1225 1.377 . S
C1225 H1209 0.930 . S
C1225 C1224 1.377 . S
C1225 C1226 1.379 . S
C1226 H1210 0.931 . S
C1226 C1220 1.383 . S
C1226 C1225 1.379 . S
H1227 C1221 0.959 . S
H1228 C1221 0.961 . S
H1229 C1221 0.960 . S
H1230 C1222 0.930 . S
H1231 C1223 0.929 . S
H1232 C1240 0.929 . S
H1233 C1242 0.930 1_565 S
H1234 C1244 0.930 . S
H1235 C1247 0.929 . S
H1236 C1250 0.930 . S
H1237 C1252 0.960 . S
H1238 C1252 0.960 . S
H1239 C1252 0.960 1_545 S
C1240 H1232 0.929 . S
C1240 C1241 1.377 . S
C1240 C1242 1.384 . S
C1241 C1240 1.377 . S
C1241 C1247 1.390 . S
C1242 H1233 0.930 1_545 S
C1242 C1240 1.384 . S
C1242 C1243 1.372 . S
C1243 C1242 1.372 . S
C1243 C1244 1.400 . S
C1243 C1248 1.490 . S
C1244 H1234 0.930 . S
C1244 C1243 1.400 . S
C1244 C1247 1.386 . S
H1245 C1261 0.930 . S
H1246 C1262 0.931 1_545 S
C1247 H1235 0.929 . S
C1247 C1241 1.390 . S
C1247 C1244 1.386 . S
C1248 C1243 1.490 . S
C1248 C1250 1.395 . S
C1248 C1251 1.403 1_545 S
H1249 C1255 0.930 . S
C1250 H1236 0.930 . S
C1250 C1248 1.395 . S
C1250 C1253 1.403 1_554 S
C1251 C1248 1.403 1_565 S
C1251 C1252 1.524 . S
C1251 C1255 1.400 1_554 S
C1252 H1237 0.960 . S
C1252 H1238 0.960 . S
C1252 H1239 0.960 1_565 S
C1252 C1251 1.524 . S
C1253 C1250 1.403 1_556 S
C1253 C1254 1.392 1_545 S
C1253 C1257 1.495 . S
C1254 C1253 1.392 1_565 S
C1254 C1255 1.385 . S
C1254 C1256 1.478 . S
C1255 H1249 0.930 . S
C1255 C1251 1.400 1_556 S
C1255 C1254 1.385 . S
C1256 C1254 1.478 . S
C1256 C1258 1.381 . S
C1256 C1262 1.383 . S
C1257 C1253 1.495 . S
C1257 H1263 0.959 . S
C1257 H1264 0.961 . S
C1257 H1265 0.960 1_545 S
C1258 C1256 1.381 . S
C1258 C1259 1.394 . S
C1258 H1266 0.930 . S
C1259 C1258 1.394 . S
C1259 C1260 1.383 . S
C1259 H1267 0.929 . S
C1260 C1259 1.383 . S
C1260 C1261 1.377 . S
C1261 H1245 0.930 . S
C1261 C1260 1.377 . S
C1261 C1262 1.379 . S
C1262 H1246 0.931 1_565 S
C1262 C1256 1.383 . S
C1262 C1261 1.379 . S
H1263 C1257 0.959 . S
H1264 C1257 0.961 . S
H1265 C1257 0.960 1_565 S
H1266 C1258 0.930 . S
H1267 C1259 0.929 . S
H1268 C1276 0.929 . S
H1269 C1278 0.930 . S
H1270 C1280 0.930 1_655 S
H1271 C1283 0.929 1_655 S
H1272 C1286 0.930 . S
H1273 C1288 0.960 . S
H1274 C1288 0.963 . S
H1275 C1288 0.960 . S
C1276 H1268 0.929 . S
C1276 C1277 1.377 . S
C1276 C1278 1.384 . S
C1277 C1276 1.377 . S
C1277 C1283 1.390 . S
C1278 H1269 0.930 . S
C1278 C1276 1.384 . S
C1278 C1279 1.372 . S
C1279 C1278 1.372 . S
C1279 C1280 1.400 . S
C1279 C1284 1.490 . S
C1280 H1270 0.930 1_455 S
C1280 C1279 1.400 . S
C1280 C1283 1.386 . S
H1281 C1297 0.930 . S
H1282 C1298 0.931 . S
C1283 H1271 0.929 1_455 S
C1283 C1277 1.390 . S
C1283 C1280 1.386 . S
C1284 C1279 1.490 . S
C1284 C1286 1.395 . S
C1284 C1287 1.403 1_455 S
H1285 C1291 0.930 . S
C1286 H1272 0.930 . S
C1286 C1284 1.395 . S
C1286 C1289 1.403 1_556 S
C1287 C1284 1.403 1_655 S
C1287 C1288 1.524 . S
C1287 C1291 1.400 1_556 S
C1288 H1273 0.960 . S
C1288 H1274 0.963 . S
C1288 H1275 0.960 . S
C1288 C1287 1.524 . S
C1289 C1286 1.403 1_554 S
C1289 C1290 1.392 1_455 S
C1289 C1293 1.495 . S
C1290 C1289 1.392 1_655 S
C1290 C1291 1.385 . S
C1290 C1292 1.478 . S
C1291 H1285 0.930 . S
C1291 C1287 1.400 1_554 S
C1291 C1290 1.385 . S
C1292 C1290 1.478 . S
C1292 C1294 1.379 1_655 S
C1292 C1298 1.383 . S
C1293 C1289 1.495 . S
C1293 H1299 0.959 . S
C1293 H1300 0.961 . S
C1293 H1301 0.960 . S
C1294 C1292 1.379 1_455 S
C1294 C1295 1.393 1_455 S
C1294 H1302 0.933 . S
C1295 C1294 1.393 1_655 S
C1295 C1296 1.383 . S
C1295 H1303 0.929 1_655 S
C1296 C1295 1.383 . S
C1296 C1297 1.377 . S
C1297 H1281 0.930 . S
C1297 C1296 1.377 . S
C1297 C1298 1.379 . S
C1298 H1282 0.931 . S
C1298 C1292 1.383 . S
C1298 C1297 1.379 . S
H1299 C1293 0.959 . S
H1300 C1293 0.961 . S
H1301 C1293 0.960 . S
H1302 C1294 0.933 . S
H1303 C1295 0.929 1_455 S
H1304 C1312 0.929 . S
H1305 C1314 0.930 . S
H1306 C1316 0.930 . S
H1307 C1319 0.929 . S
H1308 C1322 0.930 . S
H1309 C1324 0.960 1_554 S
H1310 C1324 0.960 . S
H1311 C1324 0.960 . S
C1312 H1304 0.929 . S
C1312 C1313 1.377 . S
C1312 C1314 1.384 . S
C1313 C1312 1.377 . S
C1313 C1319 1.390 . S
C1314 H1305 0.930 . S
C1314 C1312 1.384 . S
C1314 C1315 1.372 . S
C1315 C1314 1.372 . S
C1315 C1316 1.400 . S
C1315 C1320 1.490 . S
C1316 H1306 0.930 . S
C1316 C1315 1.400 . S
C1316 C1319 1.386 . S
H1317 C1333 0.930 . S
H1318 C1334 0.931 . S
C1319 H1307 0.929 . S
C1319 C1313 1.390 . S
C1319 C1316 1.386 . S
C1320 C1315 1.490 . S
C1320 C1322 1.395 1_545 S
C1320 C1323 1.403 . S
H1321 C1327 0.930 . S
C1322 H1308 0.930 . S
C1322 C1320 1.395 1_565 S
C1322 C1325 1.403 1_556 S
C1323 C1320 1.403 . S
C1323 C1324 1.524 . S
C1323 C1327 1.400 1_556 S
C1324 H1309 0.960 1_556 S
C1324 H1310 0.960 . S
C1324 H1311 0.960 . S
C1324 C1323 1.524 . S
C1325 C1322 1.403 1_554 S
C1325 C1326 1.392 . S
C1325 C1329 1.495 . S
C1326 C1325 1.392 . S
C1326 C1327 1.385 1_565 S
C1326 C1328 1.478 . S
C1327 H1321 0.930 . S
C1327 C1323 1.400 1_554 S
C1327 C1326 1.385 1_545 S
C1328 C1326 1.478 . S
C1328 C1330 1.381 . S
C1328 C1334 1.383 . S
C1329 C1325 1.495 . S
C1329 H1335 0.959 1_554 S
C1329 H1336 0.961 . S
C1329 H1337 0.960 . S
C1330 C1328 1.381 . S
C1330 C1331 1.394 . S
C1330 H1338 0.930 . S
C1331 C1330 1.394 . S
C1331 C1332 1.383 . S
C1331 H1339 0.929 . S
C1332 C1331 1.383 . S
C1332 C1333 1.377 . S
C1333 H1317 0.930 . S
C1333 C1332 1.377 . S
C1333 C1334 1.379 . S
C1334 H1318 0.931 . S
C1334 C1328 1.383 . S
C1334 C1333 1.379 . S
H1335 C1329 0.959 1_556 S
H1336 C1329 0.961 . S
H1337 C1329 0.960 . S
H1338 C1330 0.930 . S
H1339 C1331 0.929 . S
H1340 C1348 0.929 . S
H1341 C1350 0.930 . S
H1342 C1352 0.930 . S
H1343 C1355 0.929 . S
H1344 C1358 0.930 . S
H1345 C1360 0.960 1_554 S
H1346 C1360 0.960 . S
H1347 C1360 0.960 . S
C1348 H1340 0.929 . S
C1348 C1349 1.377 . S
C1348 C1350 1.384 . S
C1349 C1348 1.377 . S
C1349 C1355 1.390 . S
C1350 H1341 0.930 . S
C1350 C1348 1.384 . S
C1350 C1351 1.372 . S
C1351 C1350 1.372 . S
C1351 C1352 1.400 . S
C1351 C1356 1.490 . S
C1352 H1342 0.930 . S
C1352 C1351 1.400 . S
C1352 C1355 1.386 . S
H1353 C1369 0.930 . S
H1354 C1370 0.931 . S
C1355 H1343 0.929 . S
C1355 C1349 1.390 . S
C1355 C1352 1.386 . S
C1356 C1351 1.490 . S
C1356 C1358 1.395 1_655 S
C1356 C1359 1.403 . S
H1357 C1363 0.930 . S
C1358 H1344 0.930 . S
C1358 C1356 1.395 1_455 S
C1358 C1361 1.403 1_556 S
C1359 C1356 1.403 . S
C1359 C1360 1.524 . S
C1359 C1363 1.400 1_556 S
C1360 H1345 0.960 1_556 S
C1360 H1346 0.960 . S
C1360 H1347 0.960 . S
C1360 C1359 1.524 . S
C1361 C1358 1.403 1_554 S
C1361 C1362 1.392 . S
C1361 C1365 1.495 . S
C1362 C1361 1.392 . S
C1362 C1363 1.385 1_455 S
C1362 C1364 1.478 . S
C1363 H1357 0.930 . S
C1363 C1359 1.400 1_554 S
C1363 C1362 1.385 1_655 S
C1364 C1362 1.478 . S
C1364 C1366 1.381 . S
C1364 C1370 1.383 . S
C1365 C1361 1.495 . S
C1365 H1371 0.959 1_554 S
C1365 H1372 0.961 . S
C1365 H1373 0.960 . S
C1366 C1364 1.381 . S
C1366 C1367 1.394 . S
C1366 H1374 0.930 . S
C1367 C1366 1.394 . S
C1367 C1368 1.383 . S
C1367 H1375 0.929 . S
C1368 C1367 1.383 . S
C1368 C1369 1.377 . S
C1369 H1353 0.930 . S
C1369 C1368 1.377 . S
C1369 C1370 1.379 . S
C1370 H1354 0.931 . S
C1370 C1364 1.383 . S
C1370 C1369 1.379 . S
H1371 C1365 0.959 1_556 S
H1372 C1365 0.961 . S
H1373 C1365 0.960 . S
H1374 C1366 0.930 . S
H1375 C1367 0.929 . S
C233 C6 1.306 . S
C252 C104 1.291 . S
C269 C20 1.304 . S
C288 C62 1.318 . S
C305 C76 1.304 . S
C324 C34 1.319 . S
C341 C48 1.306 . S
C360 C90 1.289 . S
C377 C118 1.304 . S
C396 C216 1.297 . S
C413 C174 1.309 . S
C432 C132 1.298 . S
C449 C188 1.303 . S
C468 C146 1.313 . S
C485 C202 1.308 . S
C504 C160 1.287 . S
C521 C9 1.442 . S
C540 C162 1.467 . S
C557 C23 1.446 . S
C576 C120 1.478 . S
C593 C134 1.481 . S
C612 C37 1.436 . S
C629 C51 1.447 . S
C648 C148 1.473 . S
C665 C65 1.442 . S
C684 C190 1.477 . S
C701 C204 1.480 . S
C720 C79 1.440 . S
C737 C93 1.450 . S
C756 C218 1.473 . S
C773 C176 1.480 . S
C792 C107 1.430 . S
C809 C121 1.451 . S
C828 C50 1.481 . S
C845 C8 1.480 . S
C864 C135 1.430 . S
C881 C149 1.451 . S
C900 C22 1.475 . S
C917 C36 1.481 . S
C936 C163 1.420 . S
C953 C177 1.451 . S
C972 C78 1.479 . S
C989 C92 1.481 . S
C1008 C191 1.421 . S
C1025 C106 1.481 . S
C1044 C205 1.454 . S
C1061 C64 1.481 . S
C1080 C219 1.422 . S
C1097 C63 1.599 . S
C1116 C7 1.595 . S
C1133 C77 1.596 . S
C1152 C21 1.573 . S
C1169 C35 1.599 . S
C1188 C91 1.598 . S
C1205 C105 1.595 . S
C1224 C49 1.576 . S
C1241 C175 1.598 . S
C1260 C119 1.577 . S
C1277 C189 1.600 . S
C1296 C133 1.578 . S
C1313 C147 1.599 . S
C1332 C203 1.595 . S
C1349 C217 1.593 . S
C1368 C161 1.583 . S
