# Generated by pormake.
# Topology yfy, (5)-cn, num edge types: 1
# Building blocks:
#     Node 0, Type 0, BuildingBlock: XOMCOT_clean_sbu_1, # of connection points: 5
#     Node 1, Type 0, BuildingBlock: XOMCOT_clean_sbu_1, # of connection points: 5
#     Node 2, Type 0, BuildingBlock: XOMCOT_clean_sbu_1, # of connection points: 5
#     Node 3, Type 0, BuildingBlock: XOMCOT_clean_sbu_1, # of connection points: 5
#     Node 4, Type 0, BuildingBlock: XOMCOT_clean_sbu_1, # of connection points: 5
#     Node 5, Type 0, BuildingBlock: XOMCOT_clean_sbu_1, # of connection points: 5
#     Node 6, Type 0, BuildingBlock: XOMCOT_clean_sbu_1, # of connection points: 5
#     Node 7, Type 0, BuildingBlock: XOMCOT_clean_sbu_1, # of connection points: 5
#     Node 8, Type 0, BuildingBlock: XOMCOT_clean_sbu_1, # of connection points: 5
#     Node 9, Type 0, BuildingBlock: XOMCOT_clean_sbu_1, # of connection points: 5
#     Node 10, Type 0, BuildingBlock: XOMCOT_clean_sbu_1, # of connection points: 5
#     Node 11, Type 0, BuildingBlock: XOMCOT_clean_sbu_1, # of connection points: 5
#     Node 12, Type 0, BuildingBlock: XOMCOT_clean_sbu_1, # of connection points: 5
#     Node 13, Type 0, BuildingBlock: XOMCOT_clean_sbu_1, # of connection points: 5
#     Node 14, Type 0, BuildingBlock: XOMCOT_clean_sbu_1, # of connection points: 5
#     Node 15, Type 0, BuildingBlock: XOMCOT_clean_sbu_1, # of connection points: 5
#     Edge 16, Type (0, 0), BuildingBlock: EZIPEK_clean_linker_0, # of connection points: 2
#     Edge 17, Type (0, 0), BuildingBlock: EZIPEK_clean_linker_0, # of connection points: 2
#     Edge 18, Type (0, 0), BuildingBlock: EZIPEK_clean_linker_0, # of connection points: 2
#     Edge 19, Type (0, 0), BuildingBlock: EZIPEK_clean_linker_0, # of connection points: 2
#     Edge 20, Type (0, 0), BuildingBlock: EZIPEK_clean_linker_0, # of connection points: 2
#     Edge 21, Type (0, 0), BuildingBlock: EZIPEK_clean_linker_0, # of connection points: 2
#     Edge 22, Type (0, 0), BuildingBlock: EZIPEK_clean_linker_0, # of connection points: 2
#     Edge 23, Type (0, 0), BuildingBlock: EZIPEK_clean_linker_0, # of connection points: 2
#     Edge 24, Type (0, 0), BuildingBlock: EZIPEK_clean_linker_0, # of connection points: 2
#     Edge 25, Type (0, 0), BuildingBlock: EZIPEK_clean_linker_0, # of connection points: 2
#     Edge 26, Type (0, 0), BuildingBlock: EZIPEK_clean_linker_0, # of connection points: 2
#     Edge 27, Type (0, 0), BuildingBlock: EZIPEK_clean_linker_0, # of connection points: 2
#     Edge 28, Type (0, 0), BuildingBlock: EZIPEK_clean_linker_0, # of connection points: 2
#     Edge 29, Type (0, 0), BuildingBlock: EZIPEK_clean_linker_0, # of connection points: 2
#     Edge 30, Type (0, 0), BuildingBlock: EZIPEK_clean_linker_0, # of connection points: 2
#     Edge 31, Type (0, 0), BuildingBlock: EZIPEK_clean_linker_0, # of connection points: 2
#     Edge 32, Type (0, 0), BuildingBlock: EZIPEK_clean_linker_0, # of connection points: 2
#     Edge 33, Type (0, 0), BuildingBlock: EZIPEK_clean_linker_0, # of connection points: 2
#     Edge 34, Type (0, 0), BuildingBlock: EZIPEK_clean_linker_0, # of connection points: 2
#     Edge 35, Type (0, 0), BuildingBlock: EZIPEK_clean_linker_0, # of connection points: 2
#     Edge 36, Type (0, 0), BuildingBlock: EZIPEK_clean_linker_0, # of connection points: 2
#     Edge 37, Type (0, 0), BuildingBlock: EZIPEK_clean_linker_0, # of connection points: 2
#     Edge 38, Type (0, 0), BuildingBlock: EZIPEK_clean_linker_0, # of connection points: 2
#     Edge 39, Type (0, 0), BuildingBlock: EZIPEK_clean_linker_0, # of connection points: 2
#     Edge 40, Type (0, 0), BuildingBlock: EZIPEK_clean_linker_0, # of connection points: 2
#     Edge 41, Type (0, 0), BuildingBlock: EZIPEK_clean_linker_0, # of connection points: 2
#     Edge 42, Type (0, 0), BuildingBlock: EZIPEK_clean_linker_0, # of connection points: 2
#     Edge 43, Type (0, 0), BuildingBlock: EZIPEK_clean_linker_0, # of connection points: 2
#     Edge 44, Type (0, 0), BuildingBlock: EZIPEK_clean_linker_0, # of connection points: 2
#     Edge 45, Type (0, 0), BuildingBlock: EZIPEK_clean_linker_0, # of connection points: 2
#     Edge 46, Type (0, 0), BuildingBlock: EZIPEK_clean_linker_0, # of connection points: 2
#     Edge 47, Type (0, 0), BuildingBlock: EZIPEK_clean_linker_0, # of connection points: 2
#     Edge 48, Type (0, 0), BuildingBlock: EZIPEK_clean_linker_0, # of connection points: 2
#     Edge 49, Type (0, 0), BuildingBlock: EZIPEK_clean_linker_0, # of connection points: 2
#     Edge 50, Type (0, 0), BuildingBlock: EZIPEK_clean_linker_0, # of connection points: 2
#     Edge 51, Type (0, 0), BuildingBlock: EZIPEK_clean_linker_0, # of connection points: 2
#     Edge 52, Type (0, 0), BuildingBlock: EZIPEK_clean_linker_0, # of connection points: 2
#     Edge 53, Type (0, 0), BuildingBlock: EZIPEK_clean_linker_0, # of connection points: 2
#     Edge 54, Type (0, 0), BuildingBlock: EZIPEK_clean_linker_0, # of connection points: 2
#     Edge 55, Type (0, 0), BuildingBlock: EZIPEK_clean_linker_0, # of connection points: 2
# Relax obj value: 0.177
# Max RMSD: 0.195
# Mean RMSD: 0.195
data_MOF--net-yfy--node1-XOMCOT_clean_sbu_1--edge1-EZIPEK_clean_linker_0
_symmetry_space_group_name_H-M    P1
_symmetry_Int_Tables_number       1
_symmetry_cell_setting            triclinic
loop_
_symmetry_equiv_pos_as_xyz
'x, y, z'
_cell_length_a     32.433018
_cell_length_b     32.750061
_cell_length_c     39.180767
_cell_angle_alpha  90.107179
_cell_angle_beta   90.037202
_cell_angle_gamma 90.369187
loop_
_atom_site_label
_atom_site_type_symbol
_atom_site_fract_x
_atom_site_fract_y
_atom_site_fract_z
_atom_type_partial_charge
C0 C 0.96808 0.31025 0.33479 0.0
C1 C 0.94186 0.27814 0.32827 0.0
N2 N 0.95956 0.25367 0.30487 0.0
N3 N 1.00206 0.30647 0.31537 0.0
C4 C 0.99614 0.27155 0.29736 0.0
H5 H 0.96285 0.33493 0.35261 0.0
Co6 Co 0.04411 0.34541 0.31567 0.0
C7 C 0.1196 0.29651 0.30261 0.0
O8 O 0.13415 0.31104 0.33132 0.0
N9 N 0.08714 0.38694 0.31514 0.0
C10 C 0.14776 0.419 0.32116 0.0
C11 C 0.12025 0.39233 0.33582 0.0
C12 C 0.09429 0.41417 0.28964 0.0
N13 N 0.13143 0.43298 0.29193 0.0
O14 O 1.02189 0.36584 0.27357 0.0
H15 H 0.12603 0.37623 0.35932 0.0
H16 H 0.07348 0.41945 0.2688 0.0
O17 O 0.08327 0.3065 0.29226 0.0
C18 C 0.99593 0.39353 0.28173 0.0
O19 O 0.99416 0.40484 0.31391 0.0
N20 N 0.05906 0.32706 0.35921 0.0
C21 C 0.06434 0.30279 0.42687 0.0
C22 C 0.06657 0.2738 0.40076 0.0
C23 C 0.06331 0.28656 0.36695 0.0
C24 C 0.05441 0.35514 0.38461 0.0
C25 C 0.05808 0.34382 0.4187 0.0
H26 H 0.06281 0.26376 0.34706 0.0
H27 H 0.04726 0.38645 0.37831 0.0
H28 H 1.01797 0.25944 0.27919 0.0
H29 H 0.91237 0.27252 0.34038 0.0
H30 H 0.17813 0.42659 0.33087 0.0
H31 H 0.06994 0.24165 0.40653 0.0
H32 H 0.05487 0.36663 0.43857 0.0
C33 C 0.86491 0.97114 0.33472 0.0
C34 C 0.89833 0.94737 0.32685 0.0
N35 N 0.91667 0.9633 0.29914 0.0
N36 N 0.86227 1.00214 0.31217 0.0
C37 C 0.89419 0.99626 0.29045 0.0
H38 H 0.84377 0.96624 0.35567 0.0
Co39 Co 0.82037 0.04132 0.31431 0.0
C40 C 0.87618 0.10226 0.27074 0.0
O41 O 0.88522 0.08265 0.24251 0.0
N42 N 0.7772 0.08164 0.31555 0.0
C43 C 0.74247 0.13918 0.32561 0.0
C44 C 0.76939 0.11117 0.33891 0.0
C45 C 0.75301 0.09231 0.28861 0.0
N46 N 0.7322 0.12741 0.29385 0.0
O47 O 0.79838 1.02028 0.2727 0.0
H48 H 0.78481 0.11498 0.36311 0.0
H49 H 0.75248 0.07638 0.26444 0.0
O50 O 0.85436 0.0839 0.29314 0.0
C51 C 0.77388 0.99253 0.28386 0.0
O52 O 0.77132 0.98686 0.31701 0.0
N53 N 0.83994 0.05621 0.3573 0.0
C54 C 0.86683 0.06278 0.42434 0.0
C55 C 0.89428 0.06995 0.39742 0.0
C56 C 0.88023 0.06603 0.36384 0.0
C57 C 0.81387 0.04643 0.38331 0.0
C58 C 0.82635 0.05058 0.41709 0.0
H59 H 0.90192 0.06971 0.34312 0.0
H60 H 0.78313 0.03533 0.37766 0.0
H61 H 0.90079 1.01522 0.26865 0.0
H62 H 0.9084 0.92035 0.34029 0.0
H63 H 0.7328 0.16728 0.33772 0.0
H64 H 0.92617 0.07801 0.40237 0.0
H65 H 0.80482 0.04361 0.43743 0.0
C66 C 0.19078 0.85464 0.33112 0.0
C67 C 0.21507 0.88888 0.32662 0.0
N68 N 0.20053 0.90948 0.29956 0.0
N69 N 0.16086 0.85384 0.30716 0.0
C70 C 0.16801 0.8875 0.28794 0.0
H71 H 0.19405 0.8322 0.35114 0.0
Co72 Co 0.11827 0.81478 0.30509 0.0
C73 C 0.04411 0.86256 0.28671 0.0
O74 O 1.0248 0.84315 0.31116 0.0
N75 N 0.07467 0.77349 0.30261 0.0
C76 C 1.01664 0.73766 0.31135 0.0
C77 C 0.04424 0.7649 0.32527 0.0
C78 C 0.06543 0.74845 0.27582 0.0
N79 N 1.02983 0.72709 0.28009 0.0
O80 O 0.142 0.79444 0.26363 0.0
H81 H 0.03978 0.7796 0.34963 0.0
H82 H 0.08355 0.74665 0.25292 0.0
O83 O 0.08216 0.85475 0.28056 0.0
C84 C 0.16651 0.766 0.27271 0.0
O85 O 0.16698 0.75543 0.30506 0.0
N86 N 0.10089 0.83276 0.34817 0.0
C87 C 0.09248 0.85559 0.41613 0.0
C88 C 0.08642 0.88422 0.39019 0.0
C89 C 0.09156 0.8723 0.35622 0.0
C90 C 0.10902 0.80534 0.37339 0.0
C91 C 0.1041 0.81585 0.40757 0.0
H92 H 0.09007 0.89526 0.33669 0.0
H93 H 0.11978 0.77514 0.36679 0.0
H94 H 0.14957 0.8961 0.26615 0.0
H95 H 0.2408 0.89848 0.34238 0.0
H96 H 0.98826 0.72714 0.32305 0.0
H97 H 0.079 0.91561 0.39623 0.0
H98 H 0.11016 0.79343 0.42722 0.0
C99 C 0.31203 0.18448 0.33369 0.0
C100 C 0.28079 0.21258 0.33013 0.0
N101 N 0.2571 0.20116 0.30353 0.0
N102 N 0.30792 0.15538 0.30949 0.0
C103 C 0.27435 0.16675 0.29124 0.0
H104 H 0.33542 0.18441 0.35337 0.0
Co105 Co 0.33993 0.10787 0.30582 0.0
C106 C 0.26805 0.06574 0.26101 0.0
O107 O 0.25873 0.08447 0.23247 0.0
N108 N 0.37059 0.05918 0.30152 0.0
C109 C 0.38198 0.99313 0.29196 0.0
C110 C 0.35394 1.0213 0.3033 0.0
C111 C 0.40973 0.0527 0.29121 0.0
N112 N 0.41693 1.01306 0.28379 0.0
O113 O 0.36612 0.13085 0.26516 0.0
H114 H 0.32255 1.01468 0.31079 0.0
H115 H 0.43203 0.07648 0.28816 0.0
O116 O 0.29629 0.08022 0.28036 0.0
C117 C 0.39706 0.15241 0.2753 0.0
O118 O 0.4063 0.15182 0.30795 0.0
N119 N 0.319 0.08958 0.3474 0.0
C120 C 0.29883 0.08028 0.4159 0.0
C121 C 0.26761 0.08379 0.39122 0.0
C122 C 0.27846 0.0882 0.35672 0.0
C123 C 0.34939 0.08548 0.37113 0.0
C124 C 0.33998 0.08014 0.40542 0.0
H125 H 0.25468 0.0932 0.33795 0.0
H126 H 0.38134 0.0885 0.3636 0.0
H127 H 0.26189 0.14985 0.26993 0.0
H128 H 0.27511 0.2387 0.34641 0.0
H129 H 0.37654 0.96073 0.28846 0.0
H130 H 0.23549 0.08468 0.39871 0.0
H131 H 0.36473 0.07815 0.42392 0.0
C132 C 0.98004 0.85712 0.64422 0.0
C133 C 0.95286 0.88815 0.65104 0.0
N134 N 0.96396 0.90582 0.68068 0.0
N135 N 1.0085 0.85528 0.6693 0.0
C136 C 0.99766 0.88527 0.69145 0.0
H137 H 0.97908 0.83699 0.62232 0.0
Co138 Co 0.05124 0.81652 0.6706 0.0
C139 C 0.12497 0.8649 0.6905 0.0
O140 O 0.1438 0.84812 0.66457 0.0
N141 N 0.09468 0.77567 0.6726 0.0
C142 C 0.1536 0.74175 0.66507 0.0
C143 C 0.12684 0.76938 0.65119 0.0
C144 C 0.10193 0.74866 0.69832 0.0
N145 N 0.1379 0.72812 0.69471 0.0
O146 O 1.02689 0.79366 0.71067 0.0
H147 H 0.1328 0.78576 0.62782 0.0
H148 H 0.08172 0.74453 0.71995 0.0
O149 O 0.08708 0.85584 0.69677 0.0
C150 C 1.00051 0.7681 0.6987 0.0
O151 O 0.99702 0.76446 0.66541 0.0
N152 N 0.06937 0.83605 0.6283 0.0
C153 C 0.07929 0.85866 0.56053 0.0
C154 C 0.08409 0.88771 0.58653 0.0
C155 C 0.07817 0.87586 0.62048 0.0
C156 C 0.06261 0.80822 0.60298 0.0
C157 C 0.06828 0.81864 0.56895 0.0
H158 H 0.07894 0.89886 0.64019 0.0
H159 H 0.0523 0.77771 0.60938 0.0
H160 H 1.01378 0.8917 0.71506 0.0
H161 H 0.92672 0.89699 0.63559 0.0
H162 H 0.18303 0.733 0.65439 0.0
H163 H 0.0911 0.91927 0.58053 0.0
H164 H 0.0632 0.79588 0.54925 0.0
C165 C 0.30227 0.97933 0.64572 0.0
C166 C 0.26855 0.95518 0.65288 0.0
N167 N 0.25219 0.96794 0.68252 0.0
N168 N 0.30698 1.00748 0.67062 0.0
C169 C 0.27619 0.99942 0.69305 0.0
H170 H 0.32234 0.9764 0.62384 0.0
Co171 Co 0.34972 0.04608 0.67217 0.0
C172 C 0.30954 0.12345 0.69161 0.0
O173 O 0.33016 0.14085 0.66685 0.0
N174 N 0.39488 0.08525 0.67452 0.0
C175 C 0.43421 0.14073 0.66717 0.0
C176 C 0.40628 0.11473 0.65215 0.0
C177 C 0.41947 0.09282 0.70203 0.0
N178 N 0.44261 0.12715 0.69877 0.0
O179 O 0.36797 1.02134 0.71343 0.0
H180 H 0.39256 0.12014 0.62751 0.0
H181 H 0.4197 0.07436 0.72466 0.0
O182 O 0.31343 0.08502 0.69704 0.0
C183 C 0.39432 0.99447 0.70482 0.0
O184 O 0.40506 0.99229 0.67251 0.0
N185 N 0.33264 0.06503 0.6291 0.0
C186 C 0.30889 0.07461 0.56125 0.0
C187 C 0.28116 0.08307 0.58767 0.0
C188 C 0.29351 0.07755 0.62157 0.0
C189 C 0.35915 0.05494 0.60347 0.0
C190 C 0.34827 0.06043 0.56937 0.0
H191 H 0.27094 0.08121 0.64152 0.0
H192 H 0.38879 0.04192 0.60964 0.0
H193 H 0.27184 1.01568 0.71681 0.0
H194 H 0.25699 0.92996 0.63767 0.0
H195 H 0.44635 0.16857 0.65606 0.0
H196 H 0.24999 0.09269 0.58207 0.0
H197 H 0.36994 0.0525 0.54944 0.0
C198 C 0.1761 0.29076 0.64505 0.0
C199 C 0.20615 0.26201 0.65008 0.0
N200 N 0.20534 0.25107 0.68311 0.0
N201 N 0.15568 0.29704 0.67462 0.0
C202 C 0.17565 0.27376 0.69771 0.0
H203 H 0.1687 0.30512 0.62101 0.0
Co204 Co 0.11017 0.33136 0.68042 0.0
C205 C 0.07573 0.25254 0.71504 0.0
O206 O 0.10686 0.22883 0.70788 0.0
N207 N 0.06469 0.36596 0.68624 0.0
C208 C 0.99908 0.38454 0.69117 0.0
C209 C 1.02521 0.35463 0.68003 0.0
C210 C 0.06172 0.4035 0.70048 0.0
N211 N 1.02208 0.41495 0.7043 0.0
O212 O 0.1358 0.35308 0.72082 0.0
H213 H 1.01578 0.32539 0.66965 0.0
H214 H 0.08764 0.42138 0.70941 0.0
O215 O 0.07731 0.28991 0.70552 0.0
C216 C 0.16113 0.38043 0.71025 0.0
O217 O 0.16221 0.38843 0.6774 0.0
N218 N 0.08846 0.31343 0.63886 0.0
C219 C 0.07214 0.29476 0.57122 0.0
C220 C 0.07211 0.26381 0.59578 0.0
C221 C 0.08031 0.27386 0.62979 0.0
C222 C 0.08755 0.34382 0.61521 0.0
C223 C 0.07898 0.3352 0.58121 0.0
H224 H 0.08287 0.24954 0.64804 0.0
H225 H 0.09543 0.37474 0.62259 0.0
H226 H 0.16738 0.27198 0.72443 0.0
H227 H 0.22574 0.24865 0.63074 0.0
H228 H 0.96572 0.38321 0.69134 0.0
H229 H 0.06765 0.23218 0.58847 0.0
H230 H 0.07979 0.35958 0.56255 0.0
C231 C 0.86787 0.17828 0.65129 0.0
C232 C 0.90215 0.2016 0.6587 0.0
N233 N 0.91803 0.18822 0.6883 0.0
N234 N 0.86246 0.14986 0.67583 0.0
C235 C 0.89328 0.15712 0.6984 0.0
H236 H 0.84829 0.18161 0.62914 0.0
Co237 Co 0.81952 0.11122 0.67595 0.0
C238 C 0.85628 0.03266 0.69697 0.0
O239 O 0.83175 1.01613 0.67405 0.0
N240 N 0.77419 0.07312 0.67666 0.0
C241 C 0.71871 0.03468 0.66471 0.0
C242 C 0.74809 0.06073 0.65158 0.0
C243 C 0.75908 0.05437 0.70502 0.0
N244 N 0.72572 0.03073 0.69825 0.0
O245 O 0.79684 0.13698 0.71577 0.0
H246 H 0.74902 0.07 0.62529 0.0
H247 H 0.77222 0.05811 0.73024 0.0
O248 O 0.85473 0.0715 0.7022 0.0
C249 C 0.77401 0.16509 0.70332 0.0
O250 O 0.77218 0.16907 0.66999 0.0
N251 N 0.83953 0.09134 0.63413 0.0
C252 C 0.86654 0.07827 0.56768 0.0
C253 C 0.8916 0.06762 0.5953 0.0
C254 C 0.87776 0.07518 0.6285 0.0
C255 C 0.81664 0.10467 0.60727 0.0
C256 C 0.82891 0.0974 0.57387 0.0
H257 H 0.89876 0.07009 0.64929 0.0
H258 H 0.78934 0.1226 0.61186 0.0
H259 H 0.89775 0.13989 0.72161 0.0
H260 H 0.91494 0.22603 0.64334 0.0
H261 H 0.69374 1.02014 0.65083 0.0
H262 H 0.92184 0.05469 0.59117 0.0
H263 H 0.80977 0.10776 0.55296 0.0
C264 C 0.48123 0.79063 0.83515 0.0
C265 C 0.4573 0.75727 0.827 0.0
N266 N 0.47028 0.74243 0.79692 0.0
N267 N 0.5096 0.79677 0.81045 0.0
C268 C 0.50179 0.76703 0.78712 0.0
H269 H 0.47782 0.80955 0.85758 0.0
Co270 Co 0.54783 0.84023 0.8109 0.0
C271 C 0.62718 0.80528 0.79009 0.0
O272 O 0.64397 0.8292 0.81325 0.0
N273 N 0.5856 0.88566 0.81057 0.0
C274 C 0.62354 0.9412 0.82251 0.0
C275 C 0.59742 0.9119 0.83561 0.0
C276 C 0.60475 0.90056 0.7823 0.0
N277 N 0.62812 0.9339 0.78906 0.0
O278 O 0.52312 0.86186 0.77081 0.0
H279 H 0.58765 0.91111 0.86182 0.0
H280 H 0.6015 0.88726 0.75713 0.0
O281 O 0.58806 0.80637 0.78519 0.0
C282 C 0.49418 0.88409 0.78269 0.0
O283 O 0.48796 0.88458 0.81583 0.0
N284 N 0.56729 0.82131 0.8531 0.0
C285 C 0.58012 0.7974 0.92025 0.0
C286 C 0.5927 0.77222 0.89336 0.0
C287 C 0.58525 0.78448 0.85974 0.0
C288 C 0.55231 0.84428 0.87925 0.0
C289 C 0.55932 0.83353 0.91299 0.0
H290 H 0.59218 0.76351 0.83945 0.0
H291 H 0.53355 0.87063 0.87379 0.0
H292 H 0.51831 0.7638 0.7633 0.0
H293 H 0.43201 0.74492 0.84186 0.0
H294 H 0.63769 0.96627 0.83634 0.0
H295 H 0.60716 0.74311 0.89836 0.0
H296 H 0.54765 0.85274 0.93331 0.0
C297 C 0.36306 0.46857 0.83274 0.0
C298 C 0.39742 0.44488 0.82738 0.0
N299 N 0.41713 0.45912 0.79962 0.0
N300 N 0.36132 0.498 0.80871 0.0
C301 C 0.39442 0.491 0.78851 0.0
H302 H 0.3415 0.46553 0.85364 0.0
Co303 Co 0.32192 0.54005 0.80804 0.0
C304 C 0.36959 0.61393 0.78811 0.0
O305 O 0.35348 0.6315 0.81492 0.0
N306 N 0.28045 0.58289 0.80669 0.0
C307 C 0.24727 0.64174 0.81442 0.0
C308 C 0.27419 0.61442 0.82847 0.0
C309 C 0.25388 0.591 0.78062 0.0
N310 N 0.23388 0.62705 0.78428 0.0
O311 O 0.2975 0.51522 0.76855 0.0
H312 H 0.29052 0.61978 0.85206 0.0
H313 H 0.24982 0.57131 0.75871 0.0
O314 O 0.3606 0.57643 0.78113 0.0
C315 C 0.27153 0.49005 0.78165 0.0
O316 O 0.26829 0.48846 0.81506 0.0
N317 N 0.34299 0.55814 0.84989 0.0
C318 C 0.36898 0.56588 0.91712 0.0
C319 C 0.39715 0.57114 0.89041 0.0
C320 C 0.38358 0.56641 0.85673 0.0
C321 C 0.31597 0.55106 0.87585 0.0
C322 C 0.32807 0.5557 0.90965 0.0
H323 H 0.40592 0.56763 0.83638 0.0
H324 H 0.28485 0.54113 0.87017 0.0
H325 H 0.40252 0.50951 0.76669 0.0
H326 H 0.40805 0.42013 0.84334 0.0
H327 H 0.23905 0.67101 0.82527 0.0
H328 H 0.42935 0.57758 0.89562 0.0
H329 H 0.30594 0.55031 0.92989 0.0
C330 C 0.68721 0.36337 0.84451 0.0
C331 C 0.71527 0.39462 0.83988 0.0
N332 N 0.71092 0.40875 0.80789 0.0
N333 N 0.66459 0.35844 0.8158 0.0
C334 C 0.68138 0.38519 0.79341 0.0
H335 H 0.68226 0.34666 0.86794 0.0
Co336 Co 0.61912 0.32262 0.81041 0.0
C337 C 0.58042 0.40215 0.78018 0.0
O338 O 0.61004 0.42719 0.78936 0.0
N339 N 0.57354 0.28658 0.8047 0.0
C340 C 0.50768 0.26748 0.80013 0.0
C341 C 0.53429 0.29677 0.81239 0.0
C342 C 0.56985 0.25015 0.78837 0.0
N343 N 0.52998 0.23826 0.7848 0.0
O344 O 0.64351 0.30304 0.76878 0.0
H345 H 0.52523 0.32508 0.82441 0.0
H346 H 0.59545 0.2336 0.7776 0.0
O347 O 0.58409 0.36414 0.78732 0.0
C348 C 0.66909 0.27556 0.77818 0.0
O349 O 0.67091 0.26642 0.8108 0.0
N350 N 0.5992 0.33821 0.85334 0.0
C351 C 0.58846 0.35421 0.92232 0.0
C352 C 0.58651 0.38596 0.89859 0.0
C353 C 0.59188 0.37727 0.86398 0.0
C354 C 0.60002 0.30694 0.87622 0.0
C355 C 0.59431 0.31422 0.91091 0.0
H356 H 0.59305 0.40236 0.84647 0.0
H357 H 0.60727 0.27641 0.86764 0.0
H358 H 0.67051 0.3891 0.7675 0.0
H359 H 0.73528 0.40783 0.85914 0.0
H360 H 0.47433 0.2685 0.80089 0.0
H361 H 0.58261 0.41726 0.9069 0.0
H362 H 0.59643 0.28918 0.92884 0.0
C363 C 0.80721 0.68219 0.83538 0.0
C364 C 0.7765 0.71042 0.83035 0.0
N365 N 0.75763 0.70158 0.80064 0.0
N366 N 0.80738 0.6557 0.80898 0.0
C367 C 0.77698 0.66856 0.78802 0.0
H368 H 0.82774 0.68063 0.8571 0.0
Co369 Co 0.84182 0.6108 0.80426 0.0
C370 C 0.77338 0.56327 0.76003 0.0
O371 O 0.76079 0.57897 0.73106 0.0
N372 N 0.87573 0.56484 0.7989 0.0
C373 C 0.89241 0.4992 0.7948 0.0
C374 C 0.86358 0.52629 0.80637 0.0
C375 C 0.91267 0.5603 0.78331 0.0
N376 N 0.92288 0.52061 0.77995 0.0
O377 O 0.86502 0.63571 0.76446 0.0
H378 H 0.83438 0.51809 0.81784 0.0
H379 H 0.93086 0.58509 0.77306 0.0
O380 O 0.80057 0.58206 0.77767 0.0
C381 C 0.89372 0.65977 0.77456 0.0
O382 O 0.90285 0.66052 0.80725 0.0
N383 N 0.82192 0.59008 0.84524 0.0
C384 C 0.8007 0.57526 0.91265 0.0
C385 C 0.7701 0.5762 0.88734 0.0
C386 C 0.78147 0.58384 0.85343 0.0
C387 C 0.85185 0.58855 0.86959 0.0
C388 C 0.84196 0.58065 0.90343 0.0
H389 H 0.75788 0.58735 0.83429 0.0
H390 H 0.88351 0.59523 0.86283 0.0
H391 H 0.76871 0.65385 0.76423 0.0
H392 H 0.76817 0.73512 0.84735 0.0
H393 H 0.89015 0.46621 0.79547 0.0
H394 H 0.73785 0.57285 0.89398 0.0
H395 H 0.86611 0.5807 0.92256 0.0
C396 C 0.48727 0.35825 0.1438 0.0
C397 C 0.45912 0.38872 0.14975 0.0
N398 N 0.46208 0.3999 0.1827 0.0
N399 N 0.50865 0.35099 0.17272 0.0
C400 C 0.49175 0.37624 0.1962 0.0
H401 H 0.49298 0.34357 0.11954 0.0
Co402 Co 0.55432 0.31636 0.1781 0.0
C403 C 0.59453 0.39048 0.21949 0.0
O404 O 0.56727 0.40539 0.24078 0.0
N405 N 0.60107 0.28231 0.18419 0.0
C406 C 0.66747 0.26648 0.18982 0.0
C407 C 0.64006 0.29433 0.17705 0.0
C408 C 0.60579 0.24601 0.20037 0.0
N409 N 0.64603 0.23623 0.20489 0.0
O410 O 0.52949 0.29528 0.21932 0.0
H411 H 0.64835 0.32303 0.16522 0.0
H412 H 0.5805 0.22807 0.21025 0.0
O413 O 0.58528 0.36025 0.20028 0.0
C414 C 0.50237 0.26967 0.20842 0.0
O415 O 0.49986 0.26325 0.17536 0.0
N416 N 0.5747 0.33337 0.13596 0.0
C417 C 0.58743 0.35254 0.06794 0.0
C418 C 0.58852 0.38334 0.09276 0.0
C419 C 0.58217 0.37306 0.12696 0.0
C420 C 0.57497 0.30304 0.11215 0.0
C421 C 0.58168 0.31194 0.0779 0.0
H422 H 0.58028 0.39725 0.14565 0.0
H423 H 0.56786 0.27201 0.11964 0.0
H424 H 0.50115 0.37765 0.22258 0.0
H425 H 0.43918 0.4028 0.13105 0.0
H426 H 0.70075 0.26939 0.1898 0.0
H427 H 0.59235 0.41505 0.08555 0.0
H428 H 0.58024 0.28766 0.05911 0.0
C429 C 0.80169 0.46885 0.14098 0.0
C430 C 0.76942 0.44214 0.14717 0.0
N431 N 0.75146 0.45317 0.17669 0.0
N432 N 0.80357 0.49687 0.1663 0.0
C433 C 0.77281 0.48606 0.18782 0.0
H434 H 0.8215 0.46887 0.11878 0.0
Co435 Co 0.83928 0.54246 0.16949 0.0
C436 C 0.77046 0.58829 0.21287 0.0
O437 O 0.76449 0.56951 0.24205 0.0
N438 N 0.87398 0.58917 0.17397 0.0
C439 C 0.88939 0.65533 0.17919 0.0
C440 C 0.86204 0.62742 0.16579 0.0
C441 C 0.90923 0.59492 0.19212 0.0
N442 N 0.91907 0.63494 0.19587 0.0
O443 O 0.86188 0.52027 0.21074 0.0
H444 H 0.83356 0.63484 0.15291 0.0
H445 H 0.92574 0.57076 0.20473 0.0
O446 O 0.79701 0.575 0.19168 0.0
C447 C 0.88827 0.49438 0.19959 0.0
O448 O 0.89199 0.48977 0.1664 0.0
N449 N 0.8213 0.56 0.12682 0.0
C450 C 0.80157 0.56864 0.05827 0.0
C451 C 0.77034 0.568 0.083 0.0
C452 C 0.78095 0.5638 0.11745 0.0
C453 C 0.85189 0.56107 0.10304 0.0
C454 C 0.84273 0.56593 0.06859 0.0
H455 H 0.75683 0.56099 0.13625 0.0
H456 H 0.88353 0.55639 0.11077 0.0
H457 H 0.76518 0.50249 0.21079 0.0
H458 H 0.75878 0.41776 0.13061 0.0
H459 H 0.88675 0.68824 0.17809 0.0
H460 H 0.7382 0.56947 0.0756 0.0
H461 H 0.86743 0.56586 0.04998 0.0
C462 C 0.69043 0.80019 0.1488 0.0
C463 C 0.71547 0.76666 0.15241 0.0
N464 N 0.70162 0.74474 0.17907 0.0
N465 N 0.66073 0.7992 0.1729 0.0
C466 C 0.66873 0.7652 0.19131 0.0
H467 H 0.69305 0.82339 0.12929 0.0
Co468 Co 0.6176 0.8369 0.17604 0.0
C469 C 0.54411 0.7873 0.19416 0.0
O470 O 0.52426 0.80791 0.17081 0.0
N471 N 0.57364 0.87692 0.17958 0.0
C472 C 0.51699 0.9143 0.17107 0.0
C473 C 0.54403 0.88719 0.1567 0.0
C474 C 0.56411 0.90017 0.20729 0.0
N475 N 0.52954 0.92255 0.20301 0.0
O476 O 0.64156 0.85682 0.21757 0.0
H477 H 0.53988 0.87404 0.13169 0.0
H478 H 0.58118 0.89991 0.23078 0.0
O479 O 0.58232 0.79527 0.2 0.0
C480 C 0.66527 0.8861 0.20828 0.0
O481 O 0.66473 0.89708 0.17602 0.0
N482 N 0.60002 0.81967 0.13287 0.0
C483 C 0.59318 0.79804 0.06453 0.0
C484 C 0.58732 0.76867 0.08997 0.0
C485 C 0.59138 0.78008 0.12416 0.0
C486 C 0.60802 0.84787 0.10817 0.0
C487 C 0.60366 0.83801 0.07382 0.0
H488 H 0.59005 0.75668 0.14332 0.0
H489 H 0.61835 0.87817 0.11531 0.0
H490 H 0.65054 0.75517 0.21288 0.0
H491 H 0.74119 0.7584 0.13628 0.0
H492 H 0.48954 0.92644 0.15918 0.0
H493 H 0.58087 0.73713 0.08339 0.0
H494 H 0.60961 0.86106 0.0546 0.0
C495 C 0.36754 0.67182 0.14296 0.0
C496 C 0.40156 0.69562 0.15001 0.0
N497 N 0.41733 0.6834 0.17999 0.0
N498 N 0.36209 0.64444 0.16829 0.0
C499 C 0.39276 0.65259 0.19083 0.0
H500 H 0.34801 0.67418 0.12069 0.0
Co501 Co 0.31952 0.60557 0.16913 0.0
C502 C 0.36047 0.52895 0.19019 0.0
O503 O 0.34187 0.51159 0.16428 0.0
N504 N 0.27472 0.56621 0.1707 0.0
C505 C 0.23692 0.50948 0.16463 0.0
C506 C 0.26511 0.53494 0.14939 0.0
C507 C 0.24868 0.56032 0.19748 0.0
N508 N 0.22628 0.52543 0.19501 0.0
O509 O 0.29754 0.63198 0.20868 0.0
H510 H 0.28028 0.52811 0.12557 0.0
H511 H 0.24698 0.58039 0.21931 0.0
O512 O 0.35507 0.56722 0.19619 0.0
C513 C 0.27425 0.6599 0.19662 0.0
O514 O 0.27219 0.66424 0.16331 0.0
N515 N 0.33911 0.58539 0.12747 0.0
C516 C 0.36592 0.57523 0.06072 0.0
C517 C 0.39292 0.5683 0.08792 0.0
C518 C 0.37903 0.57427 0.1213 0.0
C519 C 0.31322 0.59376 0.10102 0.0
C520 C 0.32571 0.58803 0.06743 0.0
H521 H 0.40091 0.57218 0.14193 0.0
H522 H 0.2829 0.60587 0.10615 0.0
H523 H 0.39683 0.63663 0.21473 0.0
H524 H 0.41379 0.72015 0.13445 0.0
H525 H 0.2263 0.48043 0.15461 0.0
H526 H 0.42466 0.55984 0.0833 0.0
H527 H 0.30458 0.59473 0.04678 0.0
C528 C 0.10495 0.28565 0.47905 0.0
C529 C 0.06605 0.29042 0.46309 0.0
C530 C 1.0309 0.2836 0.51815 0.0
C531 C 0.06986 0.2853 0.53439 0.0
N532 N 0.14406 0.28451 0.53194 0.0
N533 N 0.99184 0.29047 0.46551 0.0
C534 C 0.10698 0.28449 0.51524 0.0
C535 C 1.02887 0.28768 0.48208 0.0
N536 N 0.13975 0.28269 0.4595 0.0
N537 N 0.99611 0.27844 0.53742 0.0
H538 H 0.98941 0.29125 0.43896 0.0
H539 H 0.96352 0.29306 0.47771 0.0
H540 H 0.99697 0.27584 0.56395 0.0
H541 H 0.96674 0.27398 0.5274 0.0
H542 H 0.16876 0.27567 0.46906 0.0
H543 H 0.13936 0.28473 0.43295 0.0
H544 H 0.17245 0.28879 0.52011 0.0
H545 H 0.14649 0.2813 0.55835 0.0
C546 C 0.87679 0.0333 0.51647 0.0
C547 C 0.87989 0.07237 0.53191 0.0
C548 C 0.88488 0.10496 0.47595 0.0
C549 C 0.8799 0.06605 0.46047 0.0
N550 N 0.88461 0.99295 0.46489 0.0
N551 N 0.90015 0.14297 0.52772 0.0
C552 C 0.88064 0.03007 0.48049 0.0
C553 C 0.8887 0.1074 0.51197 0.0
N554 N 0.86755 0.9998 0.53582 0.0
N555 N 0.88316 0.13959 0.4566 0.0
H556 H 0.90322 0.14528 0.55418 0.0
H557 H 0.91041 0.16871 0.51458 0.0
H558 H 0.88066 0.13914 0.43009 0.0
H559 H 0.88166 0.16885 0.46696 0.0
H560 H 0.85994 0.97142 0.52547 0.0
H561 H 0.8651 1.00086 0.56233 0.0
H562 H 0.88885 0.96578 0.47817 0.0
H563 H 0.88771 0.99 0.43848 0.0
C564 C 0.12263 0.86991 0.50839 0.0
C565 C 0.08324 0.86961 0.52405 0.0
C566 C 0.04945 0.86835 0.4682 0.0
C567 C 0.08883 0.86707 0.45256 0.0
N568 N 0.16218 0.87799 0.45622 0.0
N569 N 1.01006 0.8801 0.51993 0.0
C570 C 0.12525 0.87178 0.47224 0.0
C571 C 0.0469 0.87289 0.50418 0.0
N572 N 0.15729 0.86615 0.52797 0.0
N573 N 1.01469 0.86291 0.44891 0.0
H574 H 1.00752 0.8835 0.54634 0.0
H575 H 0.9829 0.88642 0.50684 0.0
H576 H 1.01533 0.86027 0.42238 0.0
H577 H 0.98541 0.85864 0.45923 0.0
H578 H 0.18655 0.86115 0.51795 0.0
H579 H 0.15652 0.8659 0.55459 0.0
H580 H 0.18938 0.88529 0.46903 0.0
H581 H 0.16485 0.87948 0.4297 0.0
C582 C 0.29985 0.11615 0.50807 0.0
C583 C 0.29651 0.07793 0.52483 0.0
C584 C 0.28082 0.04397 0.4703 0.0
C585 C 0.29004 0.08098 0.45315 0.0
N586 N 0.30548 0.15298 0.45442 0.0
N587 N 0.28127 1.00588 0.52357 0.0
C588 C 0.29799 0.11748 0.47177 0.0
C589 C 0.28558 0.04202 0.50643 0.0
N590 N 0.30512 0.15096 0.52697 0.0
N591 N 0.26793 1.01079 0.45184 0.0
H592 H 0.28241 1.00392 0.55013 0.0
H593 H 0.27775 0.97759 0.51181 0.0
H594 H 0.26489 1.01134 0.42534 0.0
H595 H 0.25757 0.98357 0.46254 0.0
H596 H 0.30435 0.18032 0.51695 0.0
H597 H 0.30776 0.15079 0.5535 0.0
H598 H 0.31637 0.17975 0.46564 0.0
H599 H 0.30178 0.15545 0.42804 0.0
C600 C 0.55074 0.77571 0.97602 0.0
C601 C 0.586 0.7858 0.95638 0.0
C602 C 0.62776 0.78858 0.00827 0.0
C603 C 0.59107 0.78712 0.0279 0.0
N604 N 0.51697 0.7805 0.03095 0.0
N605 N 0.6584 0.80274 0.95317 0.0
C606 C 0.55235 0.78019 0.01202 0.0
C607 C 0.62488 0.79172 0.97224 0.0
N608 N 0.51573 0.76223 0.96005 0.0
N609 N 0.66521 0.78703 0.02421 0.0
H610 H 0.65767 0.80467 0.92662 0.0
H611 H 0.68628 0.81237 0.96376 0.0
H612 H 0.66811 0.78439 0.05066 0.0
H613 H 0.69305 0.78437 0.01119 0.0
H614 H 0.49009 0.75096 0.97305 0.0
H615 H 0.51397 0.75861 0.93361 0.0
H616 H 0.48757 0.7804 0.02024 0.0
H617 H 0.5168 0.78366 0.05743 0.0
C618 C 0.38388 0.60691 0.96981 0.0
C619 C 0.38171 0.56841 0.95332 0.0
C620 C 0.37984 0.53337 0.00839 0.0
C621 C 0.37962 0.57195 0.02482 0.0
N622 N 0.39376 0.64413 0.02288 0.0
N623 N 0.39008 0.49555 0.95572 0.0
C624 C 0.38603 0.60834 0.00598 0.0
C625 C 0.38414 0.53175 0.97236 0.0
N626 N 0.38133 0.64194 0.95102 0.0
N627 N 0.37346 0.49862 0.02696 0.0
H628 H 0.39332 0.49381 0.92925 0.0
H629 H 0.39557 0.46804 0.96815 0.0
H630 H 0.37118 0.49866 0.05351 0.0
H631 H 0.36831 0.47002 0.01607 0.0
H632 H 0.37767 0.6708 0.96172 0.0
H633 H 0.38082 0.64196 0.92441 0.0
H634 H 0.40217 0.67116 0.01072 0.0
H635 H 0.39544 0.6458 0.04945 0.0
C636 C 0.55006 0.36536 0.97688 0.0
C637 C 0.58819 0.36268 0.95944 0.0
C638 C 0.62589 0.36573 0.0137 0.0
C639 C 0.58777 0.36243 0.0311 0.0
N640 N 0.51346 0.36136 0.03085 0.0
N641 N 0.66252 0.3625 0.95971 0.0
C642 C 0.54974 0.36357 0.01312 0.0
C643 C 0.62623 0.36412 0.97744 0.0
N644 N 0.51434 0.36948 0.95865 0.0
N645 N 0.66155 0.37031 0.03201 0.0
H646 H 0.66389 0.36362 0.93312 0.0
H647 H 0.69128 0.35868 0.97096 0.0
H648 H 0.66214 0.37084 0.05863 0.0
H649 H 0.6902 0.37641 0.0212 0.0
H650 H 0.48573 0.37528 0.96954 0.0
H651 H 0.51359 0.36982 0.93204 0.0
H652 H 0.4847 0.35712 0.0196 0.0
H653 H 0.51211 0.36248 0.05743 0.0
C654 C 0.79349 0.53268 0.00206 0.0
C655 C 0.79189 0.56952 0.02125 0.0
C656 C 0.78722 0.60952 0.96863 0.0
C657 C 0.79039 0.57283 0.94945 0.0
N658 N 0.78809 0.49953 0.94658 0.0
N659 N 0.77924 0.64181 0.02411 0.0
C660 C 0.79058 0.53433 0.96584 0.0
C661 C 0.78587 0.60758 0.00488 0.0
N662 N 0.79936 0.49639 0.01855 0.0
N663 N 0.78759 0.64627 0.95207 0.0
H664 H 0.77937 0.64159 0.05072 0.0
H665 H 0.77071 0.66986 0.014 0.0
H666 H 0.78657 0.64876 0.92554 0.0
H667 H 0.79065 0.67435 0.96429 0.0
H668 H 0.80583 0.46902 0.00621 0.0
H669 H 0.79938 0.49383 0.04509 0.0
H670 H 0.78464 0.47037 0.95671 0.0
H671 H 0.7863 0.50007 0.91999 0.0
C672 C 0.14379 0.22565 0.29646 0.0
C673 C 0.1466 0.26655 0.28526 0.0
C674 C 0.22064 0.25746 0.27463 0.0
C675 C 0.21911 0.22018 0.29284 0.0
N676 N 0.17962 0.16788 0.32112 0.0
N677 N 0.18558 0.32039 0.25924 0.0
C678 C 0.1806 0.20345 0.30302 0.0
C679 C 0.18435 0.28164 0.27202 0.0
N680 N 0.10577 0.2089 0.30184 0.0
N681 N 0.25714 0.2698 0.26065 0.0
H682 H 0.15878 0.33752 0.25635 0.0
H683 H 0.21249 0.33569 0.25229 0.0
H684 H 0.28388 0.25252 0.26305 0.0
H685 H 0.26048 0.2953 0.24508 0.0
H686 H 0.10082 0.17837 0.30806 0.0
H687 H 0.07898 0.22516 0.29657 0.0
H688 H 0.15306 0.15592 0.33227 0.0
H689 H 0.20618 0.15153 0.32689 0.0
C690 C 0.90908 0.17053 0.25118 0.0
C691 C 0.89426 0.14444 0.27787 0.0
C692 C 0.93143 0.18659 0.31941 0.0
C693 C 0.94332 0.21452 0.29402 0.0
N694 N 0.93752 0.23717 0.23591 0.0
N695 N 0.8728 0.14843 0.33698 0.0
C696 C 0.93097 0.20745 0.25972 0.0
C697 C 0.90035 0.15778 0.31207 0.0
N698 N 0.89998 0.16185 0.21793 0.0
N699 N 0.94828 0.18887 0.35125 0.0
H700 H 0.84426 0.13594 0.33122 0.0
H701 H 0.87518 0.15987 0.36179 0.0
H702 H 0.972 0.20941 0.35719 0.0
H703 H 0.94143 0.16747 0.37018 0.0
H704 H 0.91505 0.17556 0.19743 0.0
H705 H 0.87664 0.14155 0.21083 0.0
H706 H 0.92554 0.23612 0.21127 0.0
H707 H 0.95262 0.26454 0.24157 0.0
C708 C 0.94804 0.91139 0.26201 0.0
C709 C 0.95255 0.94666 0.28265 0.0
C710 C 1.02727 0.9364 0.28454 0.0
C711 C 1.02122 0.89684 0.27092 0.0
N712 N 0.98091 0.85215 0.2361 0.0
N713 N 0.99581 0.9959 0.31085 0.0
C714 C 0.98311 0.88664 0.25556 0.0
C715 C 0.99225 0.96079 0.29225 0.0
N716 N 0.90969 0.90074 0.2506 0.0
N717 N 0.06644 0.94997 0.29037 0.0
H718 H 0.97048 1.0143 0.31624 0.0
H719 H 1.02321 1.00606 0.32188 0.0
H720 H 0.0918 0.93239 0.28359 0.0
H721 H 0.0738 0.97932 0.29867 0.0
H722 H 0.90298 0.87445 0.23672 0.0
H723 H 0.88408 0.91897 0.25532 0.0
H724 H 0.95448 0.84157 0.22383 0.0
H725 H 1.00743 0.83546 0.23079 0.0
C726 C 0.21278 1.02363 0.28956 0.0
C727 C 0.24871 1.02545 0.2689 0.0
C728 C 0.24858 0.95044 0.26443 0.0
C729 C 0.21518 0.94866 0.28762 0.0
N730 N 0.16689 0.98207 0.32447 0.0
N731 N 0.30148 0.99144 0.23646 0.0
C732 C 0.19752 0.98493 0.30066 0.0
C733 C 0.26664 0.98901 0.25604 0.0
N734 N 0.1927 0.05889 0.29773 0.0
N735 N 0.26252 0.91493 0.25032 0.0
H736 H 0.31477 1.01916 0.22913 0.0
H737 H 0.31867 0.96635 0.22883 0.0
H738 H 0.24996 0.8865 0.25661 0.0
H739 H 0.28457 0.91343 0.23113 0.0
H740 H 0.16433 0.05975 0.31009 0.0
H741 H 0.20302 0.08757 0.28979 0.0
H742 H 0.15535 1.00691 0.33794 0.0
H743 H 0.15453 0.95413 0.3323 0.0
C744 C 0.22151 0.91361 0.71787 0.0
C745 C 0.21662 0.9499 0.69881 0.0
C746 C 0.14189 0.9383 0.69703 0.0
C747 C 0.14837 0.89784 0.70814 0.0
N748 N 0.19075 0.84938 0.7369 0.0
N749 N 0.17273 0.99993 0.67325 0.0
C750 C 0.18704 0.88685 0.72205 0.0
C751 C 0.17669 0.96377 0.69015 0.0
N752 N 0.25963 0.90435 0.73031 0.0
N753 N 0.10254 0.9514 0.69209 0.0
H754 H 0.19798 1.01896 0.66844 0.0
H755 H 0.14511 1.01034 0.66306 0.0
H756 H 0.07731 0.93273 0.6978 0.0
H757 H 0.09494 0.9812 0.68553 0.0
H758 H 0.266 0.8789 0.74518 0.0
H759 H 0.28489 0.92385 0.72694 0.0
H760 H 0.2183 0.83715 0.74565 0.0
H761 H 0.16507 0.83047 0.74049 0.0
C762 C 0.26271 0.22177 0.7159 0.0
C763 C 0.22579 0.21619 0.69733 0.0
C764 C 0.23606 0.1422 0.69776 0.0
C765 C 0.27733 0.14891 0.70783 0.0
N766 N 0.32848 0.19285 0.73278 0.0
N767 N 0.17526 0.1715 0.67177 0.0
C768 C 0.28968 0.18801 0.71989 0.0
C769 C 0.21135 0.17635 0.68931 0.0
N770 N 0.2724 0.25963 0.72824 0.0
N771 N 0.22108 0.10331 0.69563 0.0
H772 H 0.15652 0.19604 0.66533 0.0
H773 H 0.16517 0.14366 0.66187 0.0
H774 H 0.23876 0.07837 0.70288 0.0
H775 H 0.19034 0.09627 0.6905 0.0
H776 H 0.29771 0.26579 0.74378 0.0
H777 H 0.25318 0.28468 0.7246 0.0
H778 H 0.34179 0.22086 0.73908 0.0
H779 H 0.34768 0.16787 0.73649 0.0
C780 C 0.99129 0.17672 0.70224 0.0
C781 C 0.9562 0.20203 0.70349 0.0
C782 C 0.9988 0.25772 0.72728 0.0
C783 C 0.03433 0.23327 0.72224 0.0
N784 N 0.05865 0.1639 0.72584 0.0
N785 N 0.92406 0.26422 0.72142 0.0
C786 C 1.02885 0.19086 0.71644 0.0
C787 C 0.95916 0.24183 0.71777 0.0
N788 N 0.98974 0.14041 0.68519 0.0
N789 N 1.0032 0.29504 0.7425 0.0
H790 H 0.89496 0.25216 0.7158 0.0
H791 H 0.92327 0.29426 0.72997 0.0
H792 H 0.03134 0.30472 0.75276 0.0
H793 H 0.97923 0.31523 0.74704 0.0
H794 H 1.0159 0.12292 0.68055 0.0
H795 H 0.96326 0.12994 0.67278 0.0
H796 H 0.05478 0.13235 0.72387 0.0
H797 H 0.08417 0.1729 0.74031 0.0
C798 C 0.90407 0.93213 0.71279 0.0
C799 C 0.94265 0.93936 0.69683 0.0
C800 C 0.93132 1.01324 0.70148 0.0
C801 C 0.88971 1.00563 0.71038 0.0
N802 N 0.84191 0.96094 0.73799 0.0
N803 N 0.9941 0.98639 0.67647 0.0
C804 C 0.87805 0.96583 0.72065 0.0
C805 C 0.95709 0.9799 0.69219 0.0
N806 N 0.89153 0.89283 0.71824 0.0
N807 N 0.94636 0.05207 0.7029 0.0
H808 H 1.01341 0.96249 0.66941 0.0
H809 H 1.00441 1.01504 0.66861 0.0
H810 H 0.9284 0.07619 0.71151 0.0
H811 H 0.97746 0.05918 0.69986 0.0
H812 H 0.86233 0.88457 0.72688 0.0
H813 H 0.91052 0.86806 0.7129 0.0
H814 H 0.83185 0.93343 0.74838 0.0
H815 H 0.82362 0.98599 0.74433 0.0
C816 C 0.6933 0.78518 0.76349 0.0
C817 C 0.6541 0.77287 0.77567 0.0
C818 C 0.68221 0.70729 0.79374 0.0
C819 C 0.72238 0.72226 0.78675 0.0
N820 N 0.76703 0.77138 0.76028 0.0
N821 N 0.60848 0.71637 0.78664 0.0
C822 C 0.72807 0.75973 0.76938 0.0
C823 C 0.64757 0.7318 0.78553 0.0
N824 N 0.69657 0.82153 0.74671 0.0
N825 N 0.67752 0.67093 0.81032 0.0
H826 H 0.58322 0.73347 0.77893 0.0
H827 H 0.60168 0.68579 0.79136 0.0
H828 H 0.70247 0.65243 0.81655 0.0
H829 H 0.64941 0.66027 0.81965 0.0
H830 H 0.72368 0.83294 0.73616 0.0
H831 H 0.67063 0.83931 0.74171 0.0
H832 H 0.77452 0.79929 0.74923 0.0
H833 H 0.79242 0.75244 0.764 0.0
C834 C 0.41442 0.71205 0.76241 0.0
C835 C 0.45235 0.70749 0.77983 0.0
C836 C 0.44285 0.63318 0.7792 0.0
C837 C 0.4012 0.63871 0.76986 0.0
N838 N 0.34953 0.68055 0.74451 0.0
N839 N 0.50504 0.66429 0.80256 0.0
C840 C 0.38825 0.67731 0.75784 0.0
C841 C 0.46785 0.66802 0.78661 0.0
N842 N 0.40301 0.75009 0.75206 0.0
N843 N 0.45779 0.59459 0.78172 0.0
H844 H 0.52373 0.68954 0.80794 0.0
H845 H 0.51645 0.63676 0.81171 0.0
H846 H 0.43939 0.56935 0.77584 0.0
H847 H 0.48874 0.58808 0.78592 0.0
H848 H 0.37632 0.75639 0.7384 0.0
H849 H 0.42189 0.77552 0.75611 0.0
H850 H 0.33587 0.70779 0.73718 0.0
H851 H 0.33106 0.65473 0.74071 0.0
C852 C 0.53069 0.46124 0.77995 0.0
C853 C 0.5382 0.41945 0.7728 0.0
C854 C 0.4629 0.4077 0.77259 0.0
C855 C 0.45744 0.4466 0.78798 0.0
N856 N 0.48777 0.50786 0.81127 0.0
N857 N 0.51051 0.35668 0.75021 0.0
C858 C 0.4917 0.47287 0.79268 0.0
C859 C 0.50383 0.3936 0.76541 0.0
N860 N 0.55984 0.49023 0.77289 0.0
N861 N 0.42881 0.38472 0.76501 0.0
H862 H 0.53932 0.34871 0.74051 0.0
H863 H 0.48783 0.33478 0.74567 0.0
H864 H 0.39898 0.39536 0.76928 0.0
H865 H 0.42948 0.35596 0.75379 0.0
H866 H 0.55452 0.52139 0.77597 0.0
H867 H 0.58639 0.48355 0.75899 0.0
H868 H 0.51306 0.52581 0.81833 0.0
H869 H 0.46007 0.51653 0.82254 0.0
C870 C 0.71971 0.52177 0.79052 0.0
C871 C 0.75676 0.52315 0.77136 0.0
C872 C 0.76106 0.44814 0.7734 0.0
C873 C 0.72623 0.44729 0.79514 0.0
N874 N 0.67425 0.48264 0.82731 0.0
N875 N 0.81267 0.48865 0.74323 0.0
C876 C 0.70605 0.48397 0.80446 0.0
C877 C 0.77742 0.4865 0.76231 0.0
N878 N 0.69682 0.55642 0.79434 0.0
N879 N 0.77803 0.41197 0.76339 0.0
H880 H 0.82454 0.51612 0.73389 0.0
H881 H 0.83134 0.46383 0.73768 0.0
H882 H 0.76692 0.38384 0.77201 0.0
H883 H 0.80172 0.4093 0.74569 0.0
H884 H 0.66731 0.55677 0.80474 0.0
H885 H 0.70606 0.5847 0.7847 0.0
H886 H 0.66133 0.50847 0.83839 0.0
H887 H 0.66233 0.45543 0.83701 0.0
C888 C 0.67195 0.38685 0.22094 0.0
C889 C 0.63582 0.41022 0.21521 0.0
C890 C 0.67659 0.46159 0.18459 0.0
C891 C 0.71264 0.43847 0.19005 0.0
N892 N 0.74689 0.38219 0.21653 0.0
N893 N 0.60699 0.47641 0.20235 0.0
C894 C 0.71097 0.40195 0.20932 0.0
C895 C 0.63912 0.44975 0.20057 0.0
N896 N 0.66866 0.35053 0.2379 0.0
N897 N 0.67763 0.49357 0.16231 0.0
H898 H 0.57897 0.46927 0.21386 0.0
H899 H 0.60984 0.5071 0.19564 0.0
H900 H 0.70431 0.50215 0.14924 0.0
H901 H 0.65133 0.50903 0.1544 0.0
H902 H 0.6927 0.33005 0.24105 0.0
H903 H 0.64103 0.3404 0.24871 0.0
H904 H 0.74902 0.35653 0.23199 0.0
H905 H 0.77543 0.39287 0.20794 0.0
C906 C 0.7687 0.66469 0.22009 0.0
C907 C 0.75068 0.62851 0.20635 0.0
C908 C 0.69903 0.66943 0.17592 0.0
C909 C 0.7168 0.70544 0.18977 0.0
N910 N 0.76705 0.73908 0.22484 0.0
N911 N 0.69525 0.59529 0.17607 0.0
C912 C 0.75115 0.70345 0.21204 0.0
C913 C 0.71483 0.63059 0.18557 0.0
N914 N 0.80259 0.66166 0.24076 0.0
N915 N 0.66787 0.67278 0.1526 0.0
H916 H 0.7058 0.56663 0.18341 0.0
H917 H 0.6672 0.59417 0.16321 0.0
H918 H 0.65524 0.70082 0.14574 0.0
H919 H 0.656 0.64841 0.13856 0.0
H920 H 0.8177 0.68622 0.25211 0.0
H921 H 0.81619 0.63384 0.24688 0.0
H922 H 0.79244 0.74121 0.24092 0.0
H923 H 0.75418 0.76746 0.21938 0.0
C924 C 0.48355 0.76069 0.22467 0.0
C925 C 0.52157 0.75182 0.20897 0.0
C926 C 0.49284 0.68755 0.18708 0.0
C927 C 0.453 0.70116 0.19635 0.0
N928 N 0.40966 0.74836 0.22614 0.0
N929 N 0.56701 0.70039 0.18793 0.0
C930 C 0.44827 0.73654 0.21673 0.0
C931 C 0.52778 0.71276 0.19452 0.0
N932 N 0.48178 0.79299 0.24655 0.0
N933 N 0.49649 0.65189 0.16928 0.0
H934 H 0.59227 0.71833 0.19496 0.0
H935 H 0.57471 0.67179 0.1784 0.0
H936 H 0.47111 0.63307 0.1642 0.0
H937 H 0.52398 0.64128 0.159 0.0
H938 H 0.4557 0.8011 0.26039 0.0
H939 H 0.50859 0.80891 0.2531 0.0
H940 H 0.4032 0.77583 0.23833 0.0
H941 H 0.38361 0.73091 0.22029 0.0
C942 C 0.40485 0.43016 0.21539 0.0
C943 C 0.4426 0.43499 0.19784 0.0
C944 C 0.43367 0.50927 0.1981 0.0
C945 C 0.39196 0.5034 0.20741 0.0
N946 N 0.33954 0.46074 0.23183 0.0
N947 N 0.49627 0.47837 0.17601 0.0
C948 C 0.3786 0.46459 0.21927 0.0
C949 C 0.45845 0.47453 0.19099 0.0
N950 N 0.39393 0.39239 0.22707 0.0
N951 N 0.44893 0.548 0.19542 0.0
H952 H 0.51532 0.45331 0.17174 0.0
H953 H 0.50818 0.50581 0.16685 0.0
H954 H 0.43106 0.57327 0.20161 0.0
H955 H 0.4797 0.55489 0.19043 0.0
H956 H 0.36773 0.38644 0.24158 0.0
H957 H 0.41302 0.36716 0.22393 0.0
H958 H 0.32555 0.43313 0.2382 0.0
H959 H 0.32089 0.48621 0.23547 0.0
C960 C 0.16464 0.48314 0.20906 0.0
C961 C 0.19915 0.50654 0.22013 0.0
C962 C 0.17816 0.49147 0.27882 0.0
C963 C 0.15152 0.45975 0.26733 0.0
N964 N 0.12968 0.41933 0.21825 0.0
N965 N 0.24404 0.52267 0.26827 0.0
C966 C 0.14717 0.45387 0.23147 0.0
C967 C 0.20745 0.50829 0.25585 0.0
N968 N 0.14795 0.48913 0.17754 0.0
N969 N 0.1752 0.50621 0.31127 0.0
H970 H 0.26907 0.52992 0.25287 0.0
H971 H 0.25129 0.52168 0.29421 0.0
H972 H 0.15161 0.49724 0.32777 0.0
H973 H 0.19278 0.53102 0.31979 0.0
H974 H 0.12126 0.47395 0.16951 0.0
H975 H 0.15758 0.51288 0.16167 0.0
H976 H 0.12846 0.41378 0.19204 0.0
H977 H 0.12208 0.39401 0.23297 0.0
C978 C 0.72272 0.15938 0.2363 0.0
C979 C 0.70787 0.15074 0.2697 0.0
C980 C 0.65245 0.20007 0.26073 0.0
C981 C 0.66395 0.20455 0.22599 0.0
N982 N 0.70409 0.17941 0.17887 0.0
N983 N 0.65091 0.15435 0.30906 0.0
C984 C 0.69705 0.18099 0.21315 0.0
C985 C 0.67009 0.16821 0.28034 0.0
N986 N 0.7623 0.15031 0.22738 0.0
N987 N 0.62779 0.22818 0.27609 0.0
H988 H 0.66199 0.12961 0.323 0.0
H989 H 0.62178 0.16438 0.31644 0.0
H990 H 0.61841 0.25479 0.26391 0.0
H991 H 0.62125 0.22758 0.30214 0.0
H992 H 0.77516 0.15909 0.20412 0.0
H993 H 0.78383 0.13901 0.2446 0.0
H994 H 0.72599 0.16018 0.168 0.0
H995 H 0.68492 0.19396 0.16134 0.0
C996 C 0.97699 0.68417 0.20076 0.0
C997 C 0.95193 0.65355 0.2158 0.0
C998 C 0.98989 0.66345 0.2693 0.0
C999 C 1.00804 0.69996 0.25656 0.0
N1000 N 1.01239 0.74816 0.2097 0.0
N1001 N 0.92975 0.61964 0.26743 0.0
C1002 C 1.00035 0.71103 0.22197 0.0
C1003 C 0.95726 0.64429 0.25088 0.0
N1004 N 0.97861 0.68742 0.16607 0.0
N1005 N 1.00425 0.64672 0.29882 0.0
H1006 H 0.90345 0.6077 0.25577 0.0
H1007 H 0.93063 0.61504 0.29375 0.0
H1008 H 1.02978 0.6587 0.31171 0.0
H1009 H 0.99403 0.61852 0.30793 0.0
H1010 H 0.99905 0.70698 0.15355 0.0
H1011 H 0.96288 0.66721 0.14998 0.0
H1012 H 1.00366 0.75885 0.18573 0.0
H1013 H 1.02713 0.77012 0.22446 0.0
C1014 C 0.47148 0.96111 0.28077 0.0
C1015 C 0.45175 0.99531 0.26625 0.0
C1016 C 0.49565 0.98824 0.21573 0.0
C1017 C 0.50846 0.94918 0.22695 0.0
N1018 N 0.50424 0.89646 0.27005 0.0
N1019 N 0.44101 0.03794 0.21673 0.0
C1020 C 0.49583 0.93524 0.25975 0.0
C1021 C 0.46308 1.00844 0.23301 0.0
N1022 N 0.46669 0.95337 0.31475 0.0
N1023 N 0.51483 1.00602 0.18853 0.0
H1024 H 0.41519 0.05177 0.2273 0.0
H1025 H 0.4458 0.04562 0.19123 0.0
H1026 H 0.53989 0.99246 0.17635 0.0
H1027 H 0.509 0.03589 0.18083 0.0
H1028 H 0.48316 0.93093 0.32762 0.0
H1029 H 0.44946 0.9724 0.33061 0.0
H1030 H 0.4918 0.88351 0.29205 0.0
H1031 H 0.52049 0.8759 0.25519 0.0
C1032 C 0.17368 0.67258 0.77447 0.0
C1033 C 0.20572 0.64782 0.76104 0.0
C1034 C 0.18094 0.66627 0.70401 0.0
C1035 C 0.15747 0.69899 0.71763 0.0
N1036 N 0.14182 0.73825 0.76863 0.0
N1037 N 0.2451 0.63079 0.71016 0.0
C1038 C 0.15629 0.70354 0.75373 0.0
C1039 C 0.21081 0.64691 0.72492 0.0
N1040 N 0.15911 0.66618 0.80665 0.0
N1041 N 0.17435 0.65295 0.67148 0.0
H1042 H 0.27062 0.62135 0.724 0.0
H1043 H 0.25034 0.63233 0.68392 0.0
H1044 H 0.15016 0.66383 0.65655 0.0
H1045 H 0.1894 0.62757 0.66141 0.0
H1046 H 0.13418 0.68238 0.8165 0.0
H1047 H 0.16831 0.64131 0.82133 0.0
H1048 H 0.14307 0.74294 0.79496 0.0
H1049 H 0.13434 0.76428 0.75485 0.0
C1050 C 0.50582 0.1669 0.71156 0.0
C1051 C 0.46914 0.14786 0.72346 0.0
C1052 C 0.48305 0.17866 0.77969 0.0
C1053 C 0.51301 0.20481 0.76495 0.0
N1054 N 0.5447 0.22967 0.71326 0.0
N1055 N 0.41982 0.14149 0.77011 0.0
C1056 C 0.5227 0.2003 0.72995 0.0
C1057 C 0.45705 0.15468 0.75809 0.0
N1058 N 0.52447 0.15318 0.68259 0.0
N1059 N 0.47928 0.17702 0.81433 0.0
H1060 H 0.39807 0.12619 0.75545 0.0
H1061 H 0.40859 0.14971 0.79406 0.0
H1062 H 0.4986 0.19374 0.83055 0.0
H1063 H 0.4603 0.15593 0.82669 0.0
H1064 H 0.55273 0.16475 0.67416 0.0
H1065 H 0.51408 0.12716 0.6697 0.0
H1066 H 0.5496 0.22882 0.68696 0.0
H1067 H 0.55325 0.25712 0.72479 0.0
C1068 C 0.98253 0.47841 0.70577 0.0
C1069 C 1.00593 0.44886 0.72329 0.0
C1070 C 0.98507 0.47878 0.77779 0.0
C1071 C 0.95578 0.50282 0.76046 0.0
N1072 N 0.92371 0.52346 0.70775 0.0
N1073 N 1.02669 0.41778 0.77625 0.0
C1074 C 0.95423 0.50284 0.72428 0.0
C1075 C 1.00724 0.44866 0.75946 0.0
N1076 N 0.98694 0.48215 0.67128 0.0
N1077 N 0.99062 0.48432 0.81201 0.0
H1078 H 0.04166 0.39411 0.76365 0.0
H1079 H 1.02509 0.41374 0.80257 0.0
H1080 H 0.97421 0.50625 0.8257 0.0
H1081 H 1.01389 0.47015 0.82589 0.0
H1082 H 0.97335 0.50535 0.65712 0.0
H1083 H 1.00747 0.46407 0.65749 0.0
H1084 H 0.91841 0.52109 0.68161 0.0
H1085 H 0.90157 0.54056 0.7205 0.0
C1086 C 0.63684 0.99533 0.75309 0.0
C1087 C 0.6524 0.95789 0.76554 0.0
C1088 C 0.71535 0.96759 0.73183 0.0
C1089 C 0.70146 1.00663 0.72175 0.0
N1090 N 0.65113 0.0599 0.72484 0.0
N1091 N 0.70898 0.91167 0.77203 0.0
C1092 C 0.66268 1.02112 0.73299 0.0
C1093 C 0.69241 0.9449 0.75633 0.0
N1094 N 0.59699 1.00559 0.76001 0.0
N1095 N 0.74954 0.95155 0.7168 0.0
H1096 H 0.69274 0.89463 0.79009 0.0
H1097 H 0.73965 0.90306 0.76911 0.0
H1098 H 0.76663 0.9675 0.69857 0.0
H1099 H 0.75884 0.92146 0.72031 0.0
H1100 H 0.58207 0.03049 0.74925 0.0
H1101 H 0.57782 0.98719 0.77488 0.0
H1102 H 0.62511 0.07413 0.73469 0.0
H1103 H 0.66945 0.07893 0.70983 0.0
C1104 C 0.97472 0.69833 0.71318 0.0
C1105 C 0.97468 0.74092 0.72035 0.0
C1106 C 0.91703 0.73075 0.76009 0.0
C1107 C 0.91605 0.68845 0.75157 0.0
N1108 N 0.93659 0.63456 0.71332 0.0
N1109 N 0.94222 0.79889 0.74684 0.0
C1110 C 0.94254 0.67304 0.72598 0.0
C1111 C 0.94499 0.75751 0.74296 0.0
N1112 N 1.00655 0.68171 0.6951 0.0
N1113 N 0.8908 0.74533 0.78449 0.0
H1114 H 0.96259 0.81938 0.73538 0.0
H1115 H 0.91836 0.81332 0.75975 0.0
H1116 H 0.86673 0.72788 0.79456 0.0
H1117 H 0.89342 0.77419 0.79547 0.0
H1118 H 1.01075 0.65039 0.69226 0.0
H1119 H 0.03121 0.69899 0.68585 0.0
H1120 H 0.95261 0.62303 0.69243 0.0
H1121 H 0.91238 0.61577 0.72102 0.0
C1122 C 0.43481 0.97827 0.75788 0.0
C1123 C 0.41251 0.96451 0.72899 0.0
C1124 C 0.44225 0.89589 0.73594 0.0
C1125 C 0.46911 0.91179 0.76133 0.0
N1126 N 0.4957 0.96982 0.79265 0.0
N1127 N 0.39073 0.90921 0.69239 0.0
C1128 C 0.46666 0.95348 0.77122 0.0
C1129 C 0.41501 0.92288 0.71863 0.0
N1130 N 0.42473 1.01411 0.77354 0.0
N1131 N 0.44162 0.85487 0.72941 0.0
H1132 H 0.36671 0.92653 0.68236 0.0
H1133 H 0.39451 0.88121 0.68024 0.0
H1134 H 0.46191 0.83452 0.74086 0.0
H1135 H 0.41978 0.84041 0.71406 0.0
H1136 H 0.4381 1.02397 0.79631 0.0
H1137 H 0.39904 0.03108 0.7667 0.0
H1138 H 0.49807 1.00097 0.7978 0.0
H1139 H 0.52019 0.95297 0.80241 0.0
C1140 C 0.23318 0.4027 0.72489 0.0
C1141 C 0.19031 0.40314 0.73281 0.0
C1142 C 0.20083 0.46432 0.76783 0.0
C1143 C 0.24394 0.46297 0.76129 0.0
N1144 N 0.30229 0.42627 0.73902 0.0
N1145 N 0.13586 0.4275 0.76916 0.0
C1146 C 0.2605 0.43096 0.74118 0.0
C1147 C 0.17493 0.43176 0.75664 0.0
N1148 N 0.24777 0.37508 0.70172 0.0
N1149 N 0.18436 0.49754 0.78388 0.0
H1150 H 0.11682 0.40299 0.76275 0.0
H1151 H 0.12411 0.4454 0.78883 0.0
H1152 H 0.20214 0.5223 0.79207 0.0
H1153 H 0.15277 0.50243 0.78606 0.0
H1154 H 0.27729 0.37645 0.69134 0.0
H1155 H 0.22966 0.35138 0.69189 0.0
H1156 H 0.31631 0.40083 0.72824 0.0
H1157 H 0.32325 0.4465 0.75021 0.0
C1158 C 0.68095 0.22729 0.72904 0.0
C1159 C 0.69738 0.25333 0.75458 0.0
C1160 C 0.76588 0.22226 0.74615 0.0
C1161 C 0.74778 0.19255 0.7243 0.0
N1162 N 0.68682 0.16323 0.69857 0.0
N1163 N 0.75599 0.27719 0.78703 0.0
C1164 C 0.70494 0.19418 0.71676 0.0
C1165 C 0.74009 0.25119 0.76298 0.0
N1166 N 0.64289 0.23473 0.71571 0.0
N1167 N 0.80783 0.2241 0.74952 0.0
H1168 H 0.73934 0.30168 0.79692 0.0
H1169 H 0.78511 0.27395 0.79784 0.0
H1170 H 0.82754 0.20316 0.73803 0.0
H1171 H 0.82343 0.24779 0.76179 0.0
H1172 H 0.63088 0.21905 0.69476 0.0
H1173 H 0.6255 0.25991 0.72277 0.0
H1174 H 0.65504 0.16023 0.69551 0.0
H1175 H 0.70325 0.13827 0.68934 0.0
C1176 C 0.92452 0.41746 0.26656 0.0
C1177 C 0.96682 0.4132 0.25716 0.0
C1178 C 0.95793 0.466 0.21368 0.0
C1179 C 0.91526 0.4692 0.22197 0.0
N1180 N 0.85618 0.44087 0.25117 0.0
N1181 N 1.01886 0.42388 0.21401 0.0
C1182 C 0.89803 0.44313 0.24715 0.0
C1183 C 0.98203 0.43442 0.2283 0.0
N1184 N 0.90937 0.39639 0.29391 0.0
N1185 N 0.97604 0.49399 0.19252 0.0
H1186 H 0.03607 0.39908 0.22217 0.0
H1187 H 1.02967 0.43616 0.19117 0.0
H1188 H 0.96004 0.51778 0.18109 0.0
H1189 H 1.00783 0.49603 0.18895 0.0
H1190 H 0.88117 0.40276 0.30539 0.0
H1191 H 0.92563 0.37306 0.30574 0.0
H1192 H 0.84147 0.41895 0.26613 0.0
H1193 H 0.83557 0.45862 0.23735 0.0
C1194 C 0.7368 0.91191 0.22024 0.0
C1195 C 0.6952 0.90716 0.23132 0.0
C1196 C 0.70442 0.96392 0.27111 0.0
C1197 C 0.7466 0.96735 0.26173 0.0
N1198 N 0.80481 0.94072 0.23082 0.0
N1199 N 0.64512 0.91927 0.2755 0.0
C1200 C 0.76336 0.94042 0.23705 0.0
C1201 C 0.68067 0.93027 0.25927 0.0
N1202 N 0.75099 0.88867 0.19378 0.0
N1203 N 0.6867 0.99351 0.29078 0.0
H1204 H 0.62968 0.89211 0.27005 0.0
H1205 H 0.63457 0.93363 0.29755 0.0
H1206 H 0.70279 1.01939 0.29903 0.0
H1207 H 0.65514 0.9946 0.29565 0.0
H1208 H 0.77868 0.89428 0.18116 0.0
H1209 H 0.73429 0.86406 0.18385 0.0
H1210 H 0.81972 0.91873 0.21621 0.0
H1211 H 0.82503 0.96173 0.24188 0.0
C1212 C 0.23791 0.74114 0.2599 0.0
C1213 C 0.19612 0.74541 0.24924 0.0
C1214 C 0.20501 0.68935 0.2087 0.0
C1215 C 0.2472 0.68601 0.21807 0.0
N1216 N 0.30562 0.71245 0.24929 0.0
N1217 N 0.14544 0.73311 0.20533 0.0
C1218 C 0.26419 0.71282 0.24293 0.0
C1219 C 0.18132 0.72251 0.2211 0.0
N1220 N 0.2525 0.76467 0.28618 0.0
N1221 N 0.18702 0.65986 0.18881 0.0
H1222 H 0.12952 0.75958 0.21148 0.0
H1223 H 0.13479 0.71912 0.18308 0.0
H1224 H 0.20287 0.63422 0.18022 0.0
H1225 H 0.15543 0.65853 0.18405 0.0
H1226 H 0.28034 0.75949 0.29861 0.0
H1227 H 0.23602 0.78922 0.29612 0.0
H1228 H 0.32087 0.73428 0.26402 0.0
H1229 H 0.32553 0.69142 0.23823 0.0
C1230 C 0.46544 0.17804 0.25519 0.0
C1231 C 0.42187 0.18056 0.25304 0.0
C1232 C 0.43058 0.24685 0.22421 0.0
C1233 C 0.47382 0.24574 0.23066 0.0
N1234 N 0.52893 0.21566 0.26275 0.0
N1235 N 0.36244 0.22114 0.23892 0.0
C1236 C 0.49004 0.21323 0.24979 0.0
C1237 C 0.40415 0.21606 0.23838 0.0
N1238 N 0.48368 0.14119 0.25981 0.0
N1239 N 0.41486 0.27732 0.20443 0.0
H1240 H 0.34217 0.19887 0.24795 0.0
H1241 H 0.34819 0.24831 0.23206 0.0
H1242 H 0.43281 0.30179 0.19588 0.0
H1243 H 0.38467 0.27737 0.19536 0.0
H1244 H 0.51556 0.13727 0.25978 0.0
H1245 H 0.46682 0.11438 0.25705 0.0
H1246 H 0.5413 0.19327 0.27857 0.0
H1247 H 0.54618 0.24252 0.26135 0.0
loop_
_geom_bond_atom_site_label_1
_geom_bond_atom_site_label_2
_geom_bond_distance
_geom_bond_site_symmetry_2
_ccdc_geom_bond_type
C0 C1 1.351 . S
C0 N3 1.368 . S
C0 H5 0.931 . S
C1 C0 1.351 . S
C1 N2 1.373 . S
C1 H29 0.930 . S
N2 C1 1.373 . S
N2 C4 1.340 . S
N3 C0 1.368 . S
N3 C4 1.321 . S
N3 Co6 2.135 1_655 S
C4 N2 1.340 . S
C4 N3 1.321 . S
C4 H28 0.930 1_655 S
H5 C0 0.931 . S
Co6 N3 2.135 1_455 S
Co6 N9 2.121 . S
Co6 O14 2.042 1_455 S
Co6 O17 2.039 . S
Co6 N20 2.140 . S
C7 O8 1.227 . S
C7 O17 1.265 . S
O8 C7 1.227 . S
N9 Co6 2.121 . S
N9 C11 1.375 . S
N9 C12 1.313 . S
C10 C11 1.338 . S
C10 N13 1.377 . S
C10 H30 0.930 . S
C11 N9 1.375 . S
C11 C10 1.338 . S
C11 H15 0.931 . S
C12 N9 1.313 . S
C12 N13 1.344 . S
C12 H16 0.930 . S
N13 C10 1.377 . S
N13 C12 1.344 . S
O14 Co6 2.042 1_655 S
O14 C18 1.267 . S
H15 C11 0.931 . S
H16 C12 0.930 . S
O17 Co6 2.039 . S
O17 C7 1.265 . S
C18 O14 1.267 . S
C18 O19 1.227 . S
O19 C18 1.227 . S
N20 Co6 2.140 . S
N20 C23 1.346 . S
N20 C24 1.345 . S
C21 C22 1.387 . S
C21 C25 1.391 . S
C22 C21 1.387 . S
C22 C23 1.369 . S
C22 H31 0.929 . S
C23 N20 1.346 . S
C23 C22 1.369 . S
C23 H26 0.928 . S
C24 N20 1.345 . S
C24 C25 1.371 . S
C24 H27 0.931 . S
C25 C21 1.391 . S
C25 C24 1.371 . S
C25 H32 0.930 . S
H26 C23 0.928 . S
H27 C24 0.931 . S
H28 C4 0.930 1_455 S
H29 C1 0.930 . S
H30 C10 0.930 . S
H31 C22 0.929 . S
H32 C25 0.930 . S
C33 C34 1.351 . S
C33 N36 1.368 . S
C33 H38 0.931 . S
C34 C33 1.351 . S
C34 N35 1.373 . S
C34 H62 0.930 . S
N35 C34 1.373 . S
N35 C37 1.340 . S
N36 C33 1.368 . S
N36 C37 1.321 . S
N36 Co39 2.135 1_565 S
C37 N35 1.340 . S
C37 N36 1.321 . S
C37 H61 0.930 1_565 S
H38 C33 0.931 . S
Co39 N36 2.135 1_545 S
Co39 N42 2.121 . S
Co39 O47 2.042 1_545 S
Co39 O50 2.039 . S
Co39 N53 2.140 . S
C40 O41 1.227 . S
C40 O50 1.265 . S
O41 C40 1.227 . S
N42 Co39 2.121 . S
N42 C44 1.375 . S
N42 C45 1.313 . S
C43 C44 1.338 . S
C43 N46 1.377 . S
C43 H63 0.930 . S
C44 N42 1.375 . S
C44 C43 1.338 . S
C44 H48 0.931 . S
C45 N42 1.313 . S
C45 N46 1.344 . S
C45 H49 0.930 . S
N46 C43 1.377 . S
N46 C45 1.344 . S
O47 Co39 2.042 1_565 S
O47 C51 1.267 . S
H48 C44 0.931 . S
H49 C45 0.930 . S
O50 Co39 2.039 . S
O50 C40 1.265 . S
C51 O47 1.267 . S
C51 O52 1.227 . S
O52 C51 1.227 . S
N53 Co39 2.140 . S
N53 C56 1.346 . S
N53 C57 1.345 . S
C54 C55 1.387 . S
C54 C58 1.391 . S
C55 C54 1.387 . S
C55 C56 1.369 . S
C55 H64 0.929 . S
C56 N53 1.346 . S
C56 C55 1.369 . S
C56 H59 0.928 . S
C57 N53 1.345 . S
C57 C58 1.371 . S
C57 H60 0.931 . S
C58 C54 1.391 . S
C58 C57 1.371 . S
C58 H65 0.930 . S
H59 C56 0.928 . S
H60 C57 0.931 . S
H61 C37 0.930 1_545 S
H62 C34 0.930 . S
H63 C43 0.930 . S
H64 C55 0.929 . S
H65 C58 0.930 . S
C66 C67 1.351 . S
C66 N69 1.368 . S
C66 H71 0.931 . S
C67 C66 1.351 . S
C67 N68 1.373 . S
C67 H95 0.930 . S
N68 C67 1.373 . S
N68 C70 1.340 . S
N69 C66 1.368 . S
N69 C70 1.321 . S
N69 Co72 2.135 . S
C70 N68 1.340 . S
C70 N69 1.321 . S
C70 H94 0.930 . S
H71 C66 0.931 . S
Co72 N69 2.135 . S
Co72 N75 2.121 . S
Co72 O80 2.055 . S
Co72 O83 2.039 . S
Co72 N86 2.140 . S
C73 O74 1.227 . S
C73 O83 1.265 . S
O74 C73 1.227 . S
N75 Co72 2.121 . S
N75 C77 1.375 1_455 S
N75 C78 1.313 . S
C76 C77 1.338 . S
C76 N79 1.377 . S
C76 H96 0.930 . S
C77 N75 1.375 1_655 S
C77 C76 1.338 . S
C77 H81 0.931 . S
C78 N75 1.313 . S
C78 N79 1.344 1_455 S
C78 H82 0.930 . S
N79 C76 1.377 . S
N79 C78 1.344 1_655 S
O80 Co72 2.055 . S
O80 C84 1.253 . S
H81 C77 0.931 . S
H82 C78 0.930 . S
O83 Co72 2.039 . S
O83 C73 1.265 . S
C84 O80 1.253 . S
C84 O85 1.227 . S
O85 C84 1.227 . S
N86 Co72 2.140 . S
N86 C89 1.346 . S
N86 C90 1.345 . S
C87 C88 1.387 . S
C87 C91 1.391 . S
C88 C87 1.387 . S
C88 C89 1.369 . S
C88 H97 0.929 . S
C89 N86 1.346 . S
C89 C88 1.369 . S
C89 H92 0.928 . S
C90 N86 1.345 . S
C90 C91 1.371 . S
C90 H93 0.931 . S
C91 C87 1.391 . S
C91 C90 1.371 . S
C91 H98 0.930 . S
H92 C89 0.928 . S
H93 C90 0.931 . S
H94 C70 0.930 . S
H95 C67 0.930 . S
H96 C76 0.930 . S
H97 C88 0.929 . S
H98 C91 0.930 . S
C99 C100 1.351 . S
C99 N102 1.368 . S
C99 H104 0.931 . S
C100 C99 1.351 . S
C100 N101 1.373 . S
C100 H128 0.930 . S
N101 C100 1.373 . S
N101 C103 1.340 . S
N102 C99 1.368 . S
N102 C103 1.321 . S
N102 Co105 2.135 . S
C103 N101 1.340 . S
C103 N102 1.321 . S
C103 H127 0.930 . S
H104 C99 0.931 . S
Co105 N102 2.135 . S
Co105 N108 2.121 . S
Co105 O113 2.055 . S
Co105 O116 2.039 . S
Co105 N119 2.140 . S
C106 O107 1.227 . S
C106 O116 1.265 . S
O107 C106 1.227 . S
N108 Co105 2.121 . S
N108 C110 1.375 1_545 S
N108 C111 1.313 . S
C109 C110 1.338 . S
C109 N112 1.377 . S
C109 H129 0.930 . S
C110 N108 1.375 1_565 S
C110 C109 1.338 . S
C110 H114 0.931 . S
C111 N108 1.313 . S
C111 N112 1.344 1_545 S
C111 H115 0.930 . S
N112 C109 1.377 . S
N112 C111 1.344 1_565 S
O113 Co105 2.055 . S
O113 C117 1.253 . S
H114 C110 0.931 . S
H115 C111 0.930 . S
O116 Co105 2.039 . S
O116 C106 1.265 . S
C117 O113 1.253 . S
C117 O118 1.227 . S
O118 C117 1.227 . S
N119 Co105 2.140 . S
N119 C122 1.346 . S
N119 C123 1.345 . S
C120 C121 1.387 . S
C120 C124 1.391 . S
C121 C120 1.387 . S
C121 C122 1.369 . S
C121 H130 0.929 . S
C122 N119 1.346 . S
C122 C121 1.369 . S
C122 H125 0.928 . S
C123 N119 1.345 . S
C123 C124 1.371 . S
C123 H126 0.931 . S
C124 C120 1.391 . S
C124 C123 1.371 . S
C124 H131 0.930 . S
H125 C122 0.928 . S
H126 C123 0.931 . S
H127 C103 0.930 . S
H128 C100 0.930 . S
H129 C109 0.930 . S
H130 C121 0.929 . S
H131 C124 0.930 . S
C132 C133 1.351 . S
C132 N135 1.368 . S
C132 H137 0.931 . S
C133 C132 1.351 . S
C133 N134 1.373 . S
C133 H161 0.930 . S
N134 C133 1.373 . S
N134 C136 1.340 . S
N135 C132 1.368 . S
N135 C136 1.321 . S
N135 Co138 2.135 1_655 S
C136 N134 1.340 . S
C136 N135 1.321 . S
C136 H160 0.930 1_655 S
H137 C132 0.931 . S
Co138 N135 2.135 1_455 S
Co138 N141 2.121 . S
Co138 O146 2.042 1_455 S
Co138 O149 2.039 . S
Co138 N152 2.140 . S
C139 O140 1.227 . S
C139 O149 1.265 . S
O140 C139 1.227 . S
N141 Co138 2.121 . S
N141 C143 1.375 . S
N141 C144 1.313 . S
C142 C143 1.338 . S
C142 N145 1.377 . S
C142 H162 0.930 . S
C143 N141 1.375 . S
C143 C142 1.338 . S
C143 H147 0.931 . S
C144 N141 1.313 . S
C144 N145 1.344 . S
C144 H148 0.930 . S
N145 C142 1.377 . S
N145 C144 1.344 . S
O146 Co138 2.042 1_655 S
O146 C150 1.267 . S
H147 C143 0.931 . S
H148 C144 0.930 . S
O149 Co138 2.039 . S
O149 C139 1.265 . S
C150 O146 1.267 . S
C150 O151 1.227 . S
O151 C150 1.227 . S
N152 Co138 2.140 . S
N152 C155 1.346 . S
N152 C156 1.345 . S
C153 C154 1.387 . S
C153 C157 1.391 . S
C154 C153 1.387 . S
C154 C155 1.369 . S
C154 H163 0.929 . S
C155 N152 1.346 . S
C155 C154 1.369 . S
C155 H158 0.928 . S
C156 N152 1.345 . S
C156 C157 1.371 . S
C156 H159 0.931 . S
C157 C153 1.391 . S
C157 C156 1.371 . S
C157 H164 0.930 . S
H158 C155 0.928 . S
H159 C156 0.931 . S
H160 C136 0.930 1_455 S
H161 C133 0.930 . S
H162 C142 0.930 . S
H163 C154 0.929 . S
H164 C157 0.930 . S
C165 C166 1.351 . S
C165 N168 1.368 . S
C165 H170 0.931 . S
C166 C165 1.351 . S
C166 N167 1.373 . S
C166 H194 0.930 . S
N167 C166 1.373 . S
N167 C169 1.340 . S
N168 C165 1.368 . S
N168 C169 1.321 . S
N168 Co171 2.135 1_565 S
C169 N167 1.340 . S
C169 N168 1.321 . S
C169 H193 0.930 1_565 S
H170 C165 0.931 . S
Co171 N168 2.135 1_545 S
Co171 N174 2.121 . S
Co171 O179 2.042 1_545 S
Co171 O182 2.039 . S
Co171 N185 2.140 . S
C172 O173 1.227 . S
C172 O182 1.265 . S
O173 C172 1.227 . S
N174 Co171 2.121 . S
N174 C176 1.375 . S
N174 C177 1.313 . S
C175 C176 1.338 . S
C175 N178 1.377 . S
C175 H195 0.930 . S
C176 N174 1.375 . S
C176 C175 1.338 . S
C176 H180 0.931 . S
C177 N174 1.313 . S
C177 N178 1.344 . S
C177 H181 0.930 . S
N178 C175 1.377 . S
N178 C177 1.344 . S
O179 Co171 2.042 1_565 S
O179 C183 1.267 . S
H180 C176 0.931 . S
H181 C177 0.930 . S
O182 Co171 2.039 . S
O182 C172 1.265 . S
C183 O179 1.267 . S
C183 O184 1.227 . S
O184 C183 1.227 . S
N185 Co171 2.140 . S
N185 C188 1.346 . S
N185 C189 1.345 . S
C186 C187 1.387 . S
C186 C190 1.391 . S
C187 C186 1.387 . S
C187 C188 1.369 . S
C187 H196 0.929 . S
C188 N185 1.346 . S
C188 C187 1.369 . S
C188 H191 0.928 . S
C189 N185 1.345 . S
C189 C190 1.371 . S
C189 H192 0.931 . S
C190 C186 1.391 . S
C190 C189 1.371 . S
C190 H197 0.930 . S
H191 C188 0.928 . S
H192 C189 0.931 . S
H193 C169 0.930 1_545 S
H194 C166 0.930 . S
H195 C175 0.930 . S
H196 C187 0.929 . S
H197 C190 0.930 . S
C198 C199 1.351 . S
C198 N201 1.368 . S
C198 H203 0.931 . S
C199 C198 1.351 . S
C199 N200 1.373 . S
C199 H227 0.930 . S
N200 C199 1.373 . S
N200 C202 1.340 . S
N201 C198 1.368 . S
N201 C202 1.321 . S
N201 Co204 2.135 . S
C202 N200 1.340 . S
C202 N201 1.321 . S
C202 H226 0.930 . S
H203 C198 0.931 . S
Co204 N201 2.135 . S
Co204 N207 2.121 . S
Co204 O212 2.055 . S
Co204 O215 2.039 . S
Co204 N218 2.140 . S
C205 O206 1.227 . S
C205 O215 1.265 . S
O206 C205 1.227 . S
N207 Co204 2.121 . S
N207 C209 1.375 1_455 S
N207 C210 1.313 . S
C208 C209 1.338 . S
C208 N211 1.377 . S
C208 H228 0.930 . S
C209 N207 1.375 1_655 S
C209 C208 1.338 . S
C209 H213 0.931 . S
C210 N207 1.313 . S
C210 N211 1.344 1_455 S
C210 H214 0.930 . S
N211 C208 1.377 . S
N211 C210 1.344 1_655 S
O212 Co204 2.055 . S
O212 C216 1.253 . S
H213 C209 0.931 . S
H214 C210 0.930 . S
O215 Co204 2.039 . S
O215 C205 1.265 . S
C216 O212 1.253 . S
C216 O217 1.227 . S
O217 C216 1.227 . S
N218 Co204 2.140 . S
N218 C221 1.346 . S
N218 C222 1.345 . S
C219 C220 1.387 . S
C219 C223 1.391 . S
C220 C219 1.387 . S
C220 C221 1.369 . S
C220 H229 0.929 . S
C221 N218 1.346 . S
C221 C220 1.369 . S
C221 H224 0.928 . S
C222 N218 1.345 . S
C222 C223 1.371 . S
C222 H225 0.931 . S
C223 C219 1.391 . S
C223 C222 1.371 . S
C223 H230 0.930 . S
H224 C221 0.928 . S
H225 C222 0.931 . S
H226 C202 0.930 . S
H227 C199 0.930 . S
H228 C208 0.930 . S
H229 C220 0.929 . S
H230 C223 0.930 . S
C231 C232 1.351 . S
C231 N234 1.368 . S
C231 H236 0.931 . S
C232 C231 1.351 . S
C232 N233 1.373 . S
C232 H260 0.930 . S
N233 C232 1.373 . S
N233 C235 1.340 . S
N234 C231 1.368 . S
N234 C235 1.321 . S
N234 Co237 2.135 . S
C235 N233 1.340 . S
C235 N234 1.321 . S
C235 H259 0.930 . S
H236 C231 0.931 . S
Co237 N234 2.135 . S
Co237 N240 2.121 . S
Co237 O245 2.055 . S
Co237 O248 2.039 . S
Co237 N251 2.140 . S
C238 O239 1.227 . S
C238 O248 1.265 . S
O239 C238 1.227 . S
N240 Co237 2.121 . S
N240 C242 1.375 1_545 S
N240 C243 1.313 . S
C241 C242 1.338 . S
C241 N244 1.377 . S
C241 H261 0.930 . S
C242 N240 1.375 1_565 S
C242 C241 1.338 . S
C242 H246 0.931 . S
C243 N240 1.313 . S
C243 N244 1.344 1_545 S
C243 H247 0.930 . S
N244 C241 1.377 . S
N244 C243 1.344 1_565 S
O245 Co237 2.055 . S
O245 C249 1.253 . S
H246 C242 0.931 . S
H247 C243 0.930 . S
O248 Co237 2.039 . S
O248 C238 1.265 . S
C249 O245 1.253 . S
C249 O250 1.227 . S
O250 C249 1.227 . S
N251 Co237 2.140 . S
N251 C254 1.346 . S
N251 C255 1.345 . S
C252 C253 1.387 . S
C252 C256 1.391 . S
C253 C252 1.387 . S
C253 C254 1.369 . S
C253 H262 0.929 . S
C254 N251 1.346 . S
C254 C253 1.369 . S
C254 H257 0.928 . S
C255 N251 1.345 . S
C255 C256 1.371 . S
C255 H258 0.931 . S
C256 C252 1.391 . S
C256 C255 1.371 . S
C256 H263 0.930 . S
H257 C254 0.928 . S
H258 C255 0.931 . S
H259 C235 0.930 . S
H260 C232 0.930 . S
H261 C241 0.930 . S
H262 C253 0.929 . S
H263 C256 0.930 . S
C264 C265 1.351 . S
C264 N267 1.368 . S
C264 H269 0.931 . S
C265 C264 1.351 . S
C265 N266 1.373 . S
C265 H293 0.930 . S
N266 C265 1.373 . S
N266 C268 1.340 . S
N267 C264 1.368 . S
N267 C268 1.321 . S
N267 Co270 2.135 . S
C268 N266 1.340 . S
C268 N267 1.321 . S
C268 H292 0.930 . S
H269 C264 0.931 . S
Co270 N267 2.135 . S
Co270 N273 2.121 . S
Co270 O278 2.055 . S
Co270 O281 2.039 . S
Co270 N284 2.140 . S
C271 O272 1.227 . S
C271 O281 1.265 . S
O272 C271 1.227 . S
N273 Co270 2.121 . S
N273 C275 1.375 . S
N273 C276 1.313 . S
C274 C275 1.338 . S
C274 N277 1.377 . S
C274 H294 0.930 . S
C275 N273 1.375 . S
C275 C274 1.338 . S
C275 H279 0.931 . S
C276 N273 1.313 . S
C276 N277 1.344 . S
C276 H280 0.930 . S
N277 C274 1.377 . S
N277 C276 1.344 . S
O278 Co270 2.055 . S
O278 C282 1.253 . S
H279 C275 0.931 . S
H280 C276 0.930 . S
O281 Co270 2.039 . S
O281 C271 1.265 . S
C282 O278 1.253 . S
C282 O283 1.227 . S
O283 C282 1.227 . S
N284 Co270 2.140 . S
N284 C287 1.346 . S
N284 C288 1.345 . S
C285 C286 1.387 . S
C285 C289 1.391 . S
C286 C285 1.387 . S
C286 C287 1.369 . S
C286 H295 0.929 . S
C287 N284 1.346 . S
C287 C286 1.369 . S
C287 H290 0.928 . S
C288 N284 1.345 . S
C288 C289 1.371 . S
C288 H291 0.931 . S
C289 C285 1.391 . S
C289 C288 1.371 . S
C289 H296 0.930 . S
H290 C287 0.928 . S
H291 C288 0.931 . S
H292 C268 0.930 . S
H293 C265 0.930 . S
H294 C274 0.930 . S
H295 C286 0.929 . S
H296 C289 0.930 . S
C297 C298 1.351 . S
C297 N300 1.368 . S
C297 H302 0.931 . S
C298 C297 1.351 . S
C298 N299 1.373 . S
C298 H326 0.930 . S
N299 C298 1.373 . S
N299 C301 1.340 . S
N300 C297 1.368 . S
N300 C301 1.321 . S
N300 Co303 2.135 . S
C301 N299 1.340 . S
C301 N300 1.321 . S
C301 H325 0.930 . S
H302 C297 0.931 . S
Co303 N300 2.135 . S
Co303 N306 2.121 . S
Co303 O311 2.055 . S
Co303 O314 2.039 . S
Co303 N317 2.140 . S
C304 O305 1.227 . S
C304 O314 1.265 . S
O305 C304 1.227 . S
N306 Co303 2.121 . S
N306 C308 1.375 . S
N306 C309 1.313 . S
C307 C308 1.338 . S
C307 N310 1.377 . S
C307 H327 0.930 . S
C308 N306 1.375 . S
C308 C307 1.338 . S
C308 H312 0.931 . S
C309 N306 1.313 . S
C309 N310 1.344 . S
C309 H313 0.930 . S
N310 C307 1.377 . S
N310 C309 1.344 . S
O311 Co303 2.055 . S
O311 C315 1.253 . S
H312 C308 0.931 . S
H313 C309 0.930 . S
O314 Co303 2.039 . S
O314 C304 1.265 . S
C315 O311 1.253 . S
C315 O316 1.227 . S
O316 C315 1.227 . S
N317 Co303 2.140 . S
N317 C320 1.346 . S
N317 C321 1.345 . S
C318 C319 1.387 . S
C318 C322 1.391 . S
C319 C318 1.387 . S
C319 C320 1.369 . S
C319 H328 0.929 . S
C320 N317 1.346 . S
C320 C319 1.369 . S
C320 H323 0.928 . S
C321 N317 1.345 . S
C321 C322 1.371 . S
C321 H324 0.931 . S
C322 C318 1.391 . S
C322 C321 1.371 . S
C322 H329 0.930 . S
H323 C320 0.928 . S
H324 C321 0.931 . S
H325 C301 0.930 . S
H326 C298 0.930 . S
H327 C307 0.930 . S
H328 C319 0.929 . S
H329 C322 0.930 . S
C330 C331 1.351 . S
C330 N333 1.368 . S
C330 H335 0.931 . S
C331 C330 1.351 . S
C331 N332 1.373 . S
C331 H359 0.930 . S
N332 C331 1.373 . S
N332 C334 1.340 . S
N333 C330 1.368 . S
N333 C334 1.321 . S
N333 Co336 2.135 . S
C334 N332 1.340 . S
C334 N333 1.321 . S
C334 H358 0.930 . S
H335 C330 0.931 . S
Co336 N333 2.135 . S
Co336 N339 2.121 . S
Co336 O344 2.055 . S
Co336 O347 2.039 . S
Co336 N350 2.140 . S
C337 O338 1.227 . S
C337 O347 1.265 . S
O338 C337 1.227 . S
N339 Co336 2.121 . S
N339 C341 1.375 . S
N339 C342 1.313 . S
C340 C341 1.338 . S
C340 N343 1.377 . S
C340 H360 0.930 . S
C341 N339 1.375 . S
C341 C340 1.338 . S
C341 H345 0.931 . S
C342 N339 1.313 . S
C342 N343 1.344 . S
C342 H346 0.930 . S
N343 C340 1.377 . S
N343 C342 1.344 . S
O344 Co336 2.055 . S
O344 C348 1.253 . S
H345 C341 0.931 . S
H346 C342 0.930 . S
O347 Co336 2.039 . S
O347 C337 1.265 . S
C348 O344 1.253 . S
C348 O349 1.227 . S
O349 C348 1.227 . S
N350 Co336 2.140 . S
N350 C353 1.346 . S
N350 C354 1.345 . S
C351 C352 1.387 . S
C351 C355 1.391 . S
C352 C351 1.387 . S
C352 C353 1.369 . S
C352 H361 0.929 . S
C353 N350 1.346 . S
C353 C352 1.369 . S
C353 H356 0.928 . S
C354 N350 1.345 . S
C354 C355 1.371 . S
C354 H357 0.931 . S
C355 C351 1.391 . S
C355 C354 1.371 . S
C355 H362 0.930 . S
H356 C353 0.928 . S
H357 C354 0.931 . S
H358 C334 0.930 . S
H359 C331 0.930 . S
H360 C340 0.930 . S
H361 C352 0.929 . S
H362 C355 0.930 . S
C363 C364 1.351 . S
C363 N366 1.368 . S
C363 H368 0.931 . S
C364 C363 1.351 . S
C364 N365 1.373 . S
C364 H392 0.930 . S
N365 C364 1.373 . S
N365 C367 1.340 . S
N366 C363 1.368 . S
N366 C367 1.321 . S
N366 Co369 2.135 . S
C367 N365 1.340 . S
C367 N366 1.321 . S
C367 H391 0.930 . S
H368 C363 0.931 . S
Co369 N366 2.135 . S
Co369 N372 2.121 . S
Co369 O377 2.055 . S
Co369 O380 2.039 . S
Co369 N383 2.140 . S
C370 O371 1.227 . S
C370 O380 1.265 . S
O371 C370 1.227 . S
N372 Co369 2.121 . S
N372 C374 1.375 . S
N372 C375 1.313 . S
C373 C374 1.338 . S
C373 N376 1.377 . S
C373 H393 0.930 . S
C374 N372 1.375 . S
C374 C373 1.338 . S
C374 H378 0.931 . S
C375 N372 1.313 . S
C375 N376 1.344 . S
C375 H379 0.930 . S
N376 C373 1.377 . S
N376 C375 1.344 . S
O377 Co369 2.055 . S
O377 C381 1.253 . S
H378 C374 0.931 . S
H379 C375 0.930 . S
O380 Co369 2.039 . S
O380 C370 1.265 . S
C381 O377 1.253 . S
C381 O382 1.227 . S
O382 C381 1.227 . S
N383 Co369 2.140 . S
N383 C386 1.346 . S
N383 C387 1.345 . S
C384 C385 1.387 . S
C384 C388 1.391 . S
C385 C384 1.387 . S
C385 C386 1.369 . S
C385 H394 0.929 . S
C386 N383 1.346 . S
C386 C385 1.369 . S
C386 H389 0.928 . S
C387 N383 1.345 . S
C387 C388 1.371 . S
C387 H390 0.931 . S
C388 C384 1.391 . S
C388 C387 1.371 . S
C388 H395 0.930 . S
H389 C386 0.928 . S
H390 C387 0.931 . S
H391 C367 0.930 . S
H392 C364 0.930 . S
H393 C373 0.930 . S
H394 C385 0.929 . S
H395 C388 0.930 . S
C396 C397 1.351 . S
C396 N399 1.368 . S
C396 H401 0.931 . S
C397 C396 1.351 . S
C397 N398 1.373 . S
C397 H425 0.930 . S
N398 C397 1.373 . S
N398 C400 1.340 . S
N399 C396 1.368 . S
N399 C400 1.321 . S
N399 Co402 2.135 . S
C400 N398 1.340 . S
C400 N399 1.321 . S
C400 H424 0.930 . S
H401 C396 0.931 . S
Co402 N399 2.135 . S
Co402 N405 2.121 . S
Co402 O410 2.055 . S
Co402 O413 2.039 . S
Co402 N416 2.140 . S
C403 O404 1.227 . S
C403 O413 1.265 . S
O404 C403 1.227 . S
N405 Co402 2.121 . S
N405 C407 1.375 . S
N405 C408 1.313 . S
C406 C407 1.338 . S
C406 N409 1.377 . S
C406 H426 0.930 . S
C407 N405 1.375 . S
C407 C406 1.338 . S
C407 H411 0.931 . S
C408 N405 1.313 . S
C408 N409 1.344 . S
C408 H412 0.930 . S
N409 C406 1.377 . S
N409 C408 1.344 . S
O410 Co402 2.055 . S
O410 C414 1.253 . S
H411 C407 0.931 . S
H412 C408 0.930 . S
O413 Co402 2.039 . S
O413 C403 1.265 . S
C414 O410 1.253 . S
C414 O415 1.227 . S
O415 C414 1.227 . S
N416 Co402 2.140 . S
N416 C419 1.346 . S
N416 C420 1.345 . S
C417 C418 1.387 . S
C417 C421 1.391 . S
C418 C417 1.387 . S
C418 C419 1.369 . S
C418 H427 0.929 . S
C419 N416 1.346 . S
C419 C418 1.369 . S
C419 H422 0.928 . S
C420 N416 1.345 . S
C420 C421 1.371 . S
C420 H423 0.931 . S
C421 C417 1.391 . S
C421 C420 1.371 . S
C421 H428 0.930 . S
H422 C419 0.928 . S
H423 C420 0.931 . S
H424 C400 0.930 . S
H425 C397 0.930 . S
H426 C406 0.930 . S
H427 C418 0.929 . S
H428 C421 0.930 . S
C429 C430 1.351 . S
C429 N432 1.368 . S
C429 H434 0.931 . S
C430 C429 1.351 . S
C430 N431 1.373 . S
C430 H458 0.930 . S
N431 C430 1.373 . S
N431 C433 1.340 . S
N432 C429 1.368 . S
N432 C433 1.321 . S
N432 Co435 2.135 . S
C433 N431 1.340 . S
C433 N432 1.321 . S
C433 H457 0.930 . S
H434 C429 0.931 . S
Co435 N432 2.135 . S
Co435 N438 2.121 . S
Co435 O443 2.055 . S
Co435 O446 2.039 . S
Co435 N449 2.140 . S
C436 O437 1.227 . S
C436 O446 1.265 . S
O437 C436 1.227 . S
N438 Co435 2.121 . S
N438 C440 1.375 . S
N438 C441 1.313 . S
C439 C440 1.338 . S
C439 N442 1.377 . S
C439 H459 0.930 . S
C440 N438 1.375 . S
C440 C439 1.338 . S
C440 H444 0.931 . S
C441 N438 1.313 . S
C441 N442 1.344 . S
C441 H445 0.930 . S
N442 C439 1.377 . S
N442 C441 1.344 . S
O443 Co435 2.055 . S
O443 C447 1.253 . S
H444 C440 0.931 . S
H445 C441 0.930 . S
O446 Co435 2.039 . S
O446 C436 1.265 . S
C447 O443 1.253 . S
C447 O448 1.227 . S
O448 C447 1.227 . S
N449 Co435 2.140 . S
N449 C452 1.346 . S
N449 C453 1.345 . S
C450 C451 1.387 . S
C450 C454 1.391 . S
C451 C450 1.387 . S
C451 C452 1.369 . S
C451 H460 0.929 . S
C452 N449 1.346 . S
C452 C451 1.369 . S
C452 H455 0.928 . S
C453 N449 1.345 . S
C453 C454 1.371 . S
C453 H456 0.931 . S
C454 C450 1.391 . S
C454 C453 1.371 . S
C454 H461 0.930 . S
H455 C452 0.928 . S
H456 C453 0.931 . S
H457 C433 0.930 . S
H458 C430 0.930 . S
H459 C439 0.930 . S
H460 C451 0.929 . S
H461 C454 0.930 . S
C462 C463 1.351 . S
C462 N465 1.368 . S
C462 H467 0.931 . S
C463 C462 1.351 . S
C463 N464 1.373 . S
C463 H491 0.930 . S
N464 C463 1.373 . S
N464 C466 1.340 . S
N465 C462 1.368 . S
N465 C466 1.321 . S
N465 Co468 2.135 . S
C466 N464 1.340 . S
C466 N465 1.321 . S
C466 H490 0.930 . S
H467 C462 0.931 . S
Co468 N465 2.135 . S
Co468 N471 2.121 . S
Co468 O476 2.055 . S
Co468 O479 2.039 . S
Co468 N482 2.140 . S
C469 O470 1.227 . S
C469 O479 1.265 . S
O470 C469 1.227 . S
N471 Co468 2.121 . S
N471 C473 1.375 . S
N471 C474 1.313 . S
C472 C473 1.338 . S
C472 N475 1.377 . S
C472 H492 0.930 . S
C473 N471 1.375 . S
C473 C472 1.338 . S
C473 H477 0.931 . S
C474 N471 1.313 . S
C474 N475 1.344 . S
C474 H478 0.930 . S
N475 C472 1.377 . S
N475 C474 1.344 . S
O476 Co468 2.055 . S
O476 C480 1.253 . S
H477 C473 0.931 . S
H478 C474 0.930 . S
O479 Co468 2.039 . S
O479 C469 1.265 . S
C480 O476 1.253 . S
C480 O481 1.227 . S
O481 C480 1.227 . S
N482 Co468 2.140 . S
N482 C485 1.346 . S
N482 C486 1.345 . S
C483 C484 1.387 . S
C483 C487 1.391 . S
C484 C483 1.387 . S
C484 C485 1.369 . S
C484 H493 0.929 . S
C485 N482 1.346 . S
C485 C484 1.369 . S
C485 H488 0.928 . S
C486 N482 1.345 . S
C486 C487 1.371 . S
C486 H489 0.931 . S
C487 C483 1.391 . S
C487 C486 1.371 . S
C487 H494 0.930 . S
H488 C485 0.928 . S
H489 C486 0.931 . S
H490 C466 0.930 . S
H491 C463 0.930 . S
H492 C472 0.930 . S
H493 C484 0.929 . S
H494 C487 0.930 . S
C495 C496 1.351 . S
C495 N498 1.368 . S
C495 H500 0.931 . S
C496 C495 1.351 . S
C496 N497 1.373 . S
C496 H524 0.930 . S
N497 C496 1.373 . S
N497 C499 1.340 . S
N498 C495 1.368 . S
N498 C499 1.321 . S
N498 Co501 2.135 . S
C499 N497 1.340 . S
C499 N498 1.321 . S
C499 H523 0.930 . S
H500 C495 0.931 . S
Co501 N498 2.135 . S
Co501 N504 2.121 . S
Co501 O509 2.055 . S
Co501 O512 2.039 . S
Co501 N515 2.140 . S
C502 O503 1.227 . S
C502 O512 1.265 . S
O503 C502 1.227 . S
N504 Co501 2.121 . S
N504 C506 1.375 . S
N504 C507 1.313 . S
C505 C506 1.338 . S
C505 N508 1.377 . S
C505 H525 0.930 . S
C506 N504 1.375 . S
C506 C505 1.338 . S
C506 H510 0.931 . S
C507 N504 1.313 . S
C507 N508 1.344 . S
C507 H511 0.930 . S
N508 C505 1.377 . S
N508 C507 1.344 . S
O509 Co501 2.055 . S
O509 C513 1.253 . S
H510 C506 0.931 . S
H511 C507 0.930 . S
O512 Co501 2.039 . S
O512 C502 1.265 . S
C513 O509 1.253 . S
C513 O514 1.227 . S
O514 C513 1.227 . S
N515 Co501 2.140 . S
N515 C518 1.346 . S
N515 C519 1.345 . S
C516 C517 1.387 . S
C516 C520 1.391 . S
C517 C516 1.387 . S
C517 C518 1.369 . S
C517 H526 0.929 . S
C518 N515 1.346 . S
C518 C517 1.369 . S
C518 H521 0.928 . S
C519 N515 1.345 . S
C519 C520 1.371 . S
C519 H522 0.931 . S
C520 C516 1.391 . S
C520 C519 1.371 . S
C520 H527 0.930 . S
H521 C518 0.928 . S
H522 C519 0.931 . S
H523 C499 0.930 . S
H524 C496 0.930 . S
H525 C505 0.930 . S
H526 C517 0.929 . S
H527 C520 0.930 . S
C528 C529 1.363 . S
C528 C534 1.379 . S
C528 N536 1.356 . S
C529 C528 1.363 . S
C529 C535 1.363 . S
C530 C531 1.363 . S
C530 C535 1.379 . S
C530 N537 1.356 . S
C531 C530 1.363 . S
C531 C534 1.363 . S
N532 C534 1.356 . S
N532 H544 0.984 . S
N532 H545 0.985 . S
N533 C535 1.356 . S
N533 H538 0.984 1_455 S
N533 H539 0.985 1_455 S
C534 C528 1.379 . S
C534 C531 1.363 . S
C534 N532 1.356 . S
C535 C529 1.363 . S
C535 C530 1.379 . S
C535 N533 1.356 . S
N536 C528 1.356 . S
N536 H542 0.984 . S
N536 H543 0.984 . S
N537 C530 1.356 . S
N537 H540 0.984 . S
N537 H541 0.985 . S
H538 N533 0.984 1_655 S
H539 N533 0.985 1_655 S
H540 N537 0.984 . S
H541 N537 0.985 . S
H542 N536 0.984 . S
H543 N536 0.984 . S
H544 N532 0.984 . S
H545 N532 0.985 . S
C546 C547 1.363 . S
C546 C552 1.379 . S
C546 N554 1.356 . S
C547 C546 1.363 . S
C547 C553 1.363 . S
C548 C549 1.363 . S
C548 C553 1.379 . S
C548 N555 1.356 . S
C549 C548 1.363 . S
C549 C552 1.363 . S
N550 C552 1.356 1_565 S
N550 H562 0.984 . S
N550 H563 0.985 . S
N551 C553 1.356 . S
N551 H556 0.984 . S
N551 H557 0.985 . S
C552 C546 1.379 . S
C552 C549 1.363 . S
C552 N550 1.356 1_545 S
C553 C547 1.363 . S
C553 C548 1.379 . S
C553 N551 1.356 . S
N554 C546 1.356 . S
N554 H560 0.984 1_545 S
N554 H561 0.984 . S
N555 C548 1.356 . S
N555 H558 0.984 . S
N555 H559 0.985 . S
H556 N551 0.984 . S
H557 N551 0.985 . S
H558 N555 0.984 . S
H559 N555 0.985 . S
H560 N554 0.984 1_565 S
H561 N554 0.984 . S
H562 N550 0.984 . S
H563 N550 0.985 . S
C564 C565 1.363 . S
C564 C570 1.379 . S
C564 N572 1.356 . S
C565 C564 1.363 . S
C565 C571 1.363 . S
C566 C567 1.363 . S
C566 C571 1.379 . S
C566 N573 1.356 . S
C567 C566 1.363 . S
C567 C570 1.363 . S
N568 C570 1.356 . S
N568 H580 0.984 . S
N568 H581 0.985 . S
N569 C571 1.356 . S
N569 H574 0.984 1_455 S
N569 H575 0.985 1_455 S
C570 C564 1.379 . S
C570 C567 1.363 . S
C570 N568 1.356 . S
C571 C565 1.363 . S
C571 C566 1.379 . S
C571 N569 1.356 . S
N572 C564 1.356 . S
N572 H578 0.984 . S
N572 H579 0.984 . S
N573 C566 1.356 . S
N573 H576 0.984 . S
N573 H577 0.985 . S
H574 N569 0.984 1_655 S
H575 N569 0.985 1_655 S
H576 N573 0.984 . S
H577 N573 0.985 . S
H578 N572 0.984 . S
H579 N572 0.984 . S
H580 N568 0.984 . S
H581 N568 0.985 . S
C582 C583 1.363 . S
C582 C588 1.379 . S
C582 N590 1.356 . S
C583 C582 1.363 . S
C583 C589 1.363 . S
C584 C585 1.363 . S
C584 C589 1.379 . S
C584 N591 1.356 . S
C585 C584 1.363 . S
C585 C588 1.363 . S
N586 C588 1.356 . S
N586 H598 0.984 . S
N586 H599 0.985 . S
N587 C589 1.356 . S
N587 H592 0.986 . S
N587 H593 0.985 1_545 S
C588 C582 1.379 . S
C588 C585 1.363 . S
C588 N586 1.356 . S
C589 C583 1.363 . S
C589 C584 1.379 . S
C589 N587 1.356 . S
N590 C582 1.356 . S
N590 H596 0.984 . S
N590 H597 0.984 . S
N591 C584 1.356 . S
N591 H594 0.984 . S
N591 H595 0.985 . S
H592 N587 0.986 . S
H593 N587 0.985 1_565 S
H594 N591 0.984 . S
H595 N591 0.985 . S
H596 N590 0.984 . S
H597 N590 0.984 . S
H598 N586 0.984 . S
H599 N586 0.985 . S
C600 C601 1.363 . S
C600 C606 1.379 1_556 S
C600 N608 1.356 . S
C601 C600 1.363 . S
C601 C607 1.363 . S
C602 C603 1.363 . S
C602 C607 1.379 1_554 S
C602 N609 1.356 . S
C603 C602 1.363 . S
C603 C606 1.363 . S
N604 C606 1.356 . S
N604 H616 0.984 . S
N604 H617 0.985 . S
N605 C607 1.356 . S
N605 H610 0.984 . S
N605 H611 0.985 . S
C606 C600 1.379 1_554 S
C606 C603 1.363 . S
C606 N604 1.356 . S
C607 C601 1.363 . S
C607 C602 1.379 1_556 S
C607 N605 1.356 . S
N608 C600 1.356 . S
N608 H614 0.984 . S
N608 H615 0.984 . S
N609 C602 1.356 . S
N609 H612 0.984 . S
N609 H613 0.985 . S
H610 N605 0.984 . S
H611 N605 0.985 . S
H612 N609 0.984 . S
H613 N609 0.985 . S
H614 N608 0.984 . S
H615 N608 0.984 . S
H616 N604 0.984 . S
H617 N604 0.985 . S
C618 C619 1.363 . S
C618 C624 1.379 1_556 S
C618 N626 1.356 . S
C619 C618 1.363 . S
C619 C625 1.363 . S
C620 C621 1.363 . S
C620 C625 1.379 1_554 S
C620 N627 1.356 . S
C621 C620 1.363 . S
C621 C624 1.363 . S
N622 C624 1.356 . S
N622 H634 0.984 . S
N622 H635 0.985 . S
N623 C625 1.356 . S
N623 H628 0.984 . S
N623 H629 0.985 . S
C624 C618 1.379 1_554 S
C624 C621 1.363 . S
C624 N622 1.356 . S
C625 C619 1.363 . S
C625 C620 1.379 1_556 S
C625 N623 1.356 . S
N626 C618 1.356 . S
N626 H632 0.984 . S
N626 H633 0.984 . S
N627 C620 1.356 . S
N627 H630 0.984 . S
N627 H631 0.985 . S
H628 N623 0.984 . S
H629 N623 0.985 . S
H630 N627 0.984 . S
H631 N627 0.985 . S
H632 N626 0.984 . S
H633 N626 0.984 . S
H634 N622 0.984 . S
H635 N622 0.985 . S
C636 C637 1.363 . S
C636 C642 1.379 1_556 S
C636 N644 1.356 . S
C637 C636 1.363 . S
C637 C643 1.363 . S
C638 C639 1.363 . S
C638 C643 1.379 1_554 S
C638 N645 1.356 . S
C639 C638 1.363 . S
C639 C642 1.363 . S
N640 C642 1.356 . S
N640 H652 0.984 . S
N640 H653 0.985 . S
N641 C643 1.356 . S
N641 H646 0.984 . S
N641 H647 0.985 . S
C642 C636 1.379 1_554 S
C642 C639 1.363 . S
C642 N640 1.356 . S
C643 C637 1.363 . S
C643 C638 1.379 1_556 S
C643 N641 1.356 . S
N644 C636 1.356 . S
N644 H650 0.984 . S
N644 H651 0.984 . S
N645 C638 1.356 . S
N645 H648 0.984 . S
N645 H649 0.985 . S
H646 N641 0.984 . S
H647 N641 0.985 . S
H648 N645 0.984 . S
H649 N645 0.985 . S
H650 N644 0.984 . S
H651 N644 0.984 . S
H652 N640 0.984 . S
H653 N640 0.985 . S
C654 C655 1.363 . S
C654 C660 1.379 1_554 S
C654 N662 1.356 . S
C655 C654 1.363 . S
C655 C661 1.363 . S
C656 C657 1.363 . S
C656 C661 1.379 1_556 S
C656 N663 1.356 . S
C657 C656 1.363 . S
C657 C660 1.363 . S
N658 C660 1.356 . S
N658 H670 0.984 . S
N658 H671 0.985 . S
N659 C661 1.356 . S
N659 H664 0.984 . S
N659 H665 0.985 . S
C660 C654 1.379 1_556 S
C660 C657 1.363 . S
C660 N658 1.356 . S
C661 C655 1.363 . S
C661 C656 1.379 1_554 S
C661 N659 1.356 . S
N662 C654 1.356 . S
N662 H668 0.984 . S
N662 H669 0.984 . S
N663 C656 1.356 . S
N663 H666 0.984 . S
N663 H667 0.985 . S
H664 N659 0.984 . S
H665 N659 0.985 . S
H666 N663 0.984 . S
H667 N663 0.985 . S
H668 N662 0.984 . S
H669 N662 0.984 . S
H670 N658 0.984 . S
H671 N658 0.985 . S
C672 C673 1.363 . S
C672 C678 1.379 . S
C672 N680 1.356 . S
C673 C672 1.363 . S
C673 C679 1.363 . S
C674 C675 1.363 . S
C674 C679 1.379 . S
C674 N681 1.356 . S
C675 C674 1.363 . S
C675 C678 1.363 . S
N676 C678 1.356 . S
N676 H688 0.984 . S
N676 H689 0.985 . S
N677 C679 1.356 . S
N677 H682 0.984 . S
N677 H683 0.985 . S
C678 C672 1.379 . S
C678 C675 1.363 . S
C678 N676 1.356 . S
C679 C673 1.363 . S
C679 C674 1.379 . S
C679 N677 1.356 . S
N680 C672 1.356 . S
N680 H686 0.984 . S
N680 H687 0.984 . S
N681 C674 1.356 . S
N681 H684 0.984 . S
N681 H685 0.985 . S
H682 N677 0.984 . S
H683 N677 0.985 . S
H684 N681 0.984 . S
H685 N681 0.985 . S
H686 N680 0.984 . S
H687 N680 0.984 . S
H688 N676 0.984 . S
H689 N676 0.985 . S
C690 C691 1.363 . S
C690 C696 1.379 . S
C690 N698 1.356 . S
C691 C690 1.363 . S
C691 C697 1.363 . S
C692 C693 1.363 . S
C692 C697 1.379 . S
C692 N699 1.356 . S
C693 C692 1.363 . S
C693 C696 1.363 . S
N694 C696 1.356 . S
N694 H706 0.984 . S
N694 H707 0.985 . S
N695 C697 1.356 . S
N695 H700 0.984 . S
N695 H701 0.985 . S
C696 C690 1.379 . S
C696 C693 1.363 . S
C696 N694 1.356 . S
C697 C691 1.363 . S
C697 C692 1.379 . S
C697 N695 1.356 . S
N698 C690 1.356 . S
N698 H704 0.984 . S
N698 H705 0.984 . S
N699 C692 1.356 . S
N699 H702 0.984 . S
N699 H703 0.985 . S
H700 N695 0.984 . S
H701 N695 0.985 . S
H702 N699 0.984 . S
H703 N699 0.985 . S
H704 N698 0.984 . S
H705 N698 0.984 . S
H706 N694 0.984 . S
H707 N694 0.985 . S
C708 C709 1.363 . S
C708 C714 1.379 . S
C708 N716 1.356 . S
C709 C708 1.363 . S
C709 C715 1.363 . S
C710 C711 1.363 . S
C710 C715 1.379 . S
C710 N717 1.356 1_655 S
C711 C710 1.363 . S
C711 C714 1.363 . S
N712 C714 1.356 . S
N712 H724 0.984 . S
N712 H725 0.985 . S
N713 C715 1.356 . S
N713 H718 0.984 . S
N713 H719 0.985 . S
C714 C708 1.379 . S
C714 C711 1.363 . S
C714 N712 1.356 . S
C715 C709 1.363 . S
C715 C710 1.379 . S
C715 N713 1.356 . S
N716 C708 1.356 . S
N716 H722 0.984 . S
N716 H723 0.984 . S
N717 C710 1.356 1_455 S
N717 H720 0.984 . S
N717 H721 0.985 . S
H718 N713 0.984 . S
H719 N713 0.985 . S
H720 N717 0.984 . S
H721 N717 0.985 . S
H722 N716 0.984 . S
H723 N716 0.984 . S
H724 N712 0.984 . S
H725 N712 0.985 . S
C726 C727 1.363 . S
C726 C732 1.379 . S
C726 N734 1.356 . S
C727 C726 1.363 . S
C727 C733 1.363 . S
C728 C729 1.363 . S
C728 C733 1.379 . S
C728 N735 1.356 . S
C729 C728 1.363 . S
C729 C732 1.363 . S
N730 C732 1.356 . S
N730 H742 0.984 . S
N730 H743 0.985 . S
N731 C733 1.356 . S
N731 H736 0.984 1_565 S
N731 H737 0.985 . S
C732 C726 1.379 . S
C732 C729 1.363 . S
C732 N730 1.356 . S
C733 C727 1.363 . S
C733 C728 1.379 . S
C733 N731 1.356 . S
N734 C726 1.356 . S
N734 H740 0.984 . S
N734 H741 0.984 1_565 S
N735 C728 1.356 . S
N735 H738 0.984 . S
N735 H739 0.985 . S
H736 N731 0.984 1_545 S
H737 N731 0.985 . S
H738 N735 0.984 . S
H739 N735 0.985 . S
H740 N734 0.984 . S
H741 N734 0.984 1_545 S
H742 N730 0.984 . S
H743 N730 0.985 . S
C744 C745 1.363 . S
C744 C750 1.379 . S
C744 N752 1.356 . S
C745 C744 1.363 . S
C745 C751 1.363 . S
C746 C747 1.363 . S
C746 C751 1.379 . S
C746 N753 1.356 . S
C747 C746 1.363 . S
C747 C750 1.363 . S
N748 C750 1.356 . S
N748 H760 0.984 . S
N748 H761 0.985 . S
N749 C751 1.356 . S
N749 H754 0.984 . S
N749 H755 0.985 1_565 S
C750 C744 1.379 . S
C750 C747 1.363 . S
C750 N748 1.356 . S
C751 C745 1.363 . S
C751 C746 1.379 . S
C751 N749 1.356 . S
N752 C744 1.356 . S
N752 H758 0.984 . S
N752 H759 0.984 . S
N753 C746 1.356 . S
N753 H756 0.984 . S
N753 H757 0.985 . S
H754 N749 0.984 . S
H755 N749 0.985 1_545 S
H756 N753 0.984 . S
H757 N753 0.985 . S
H758 N752 0.984 . S
H759 N752 0.984 . S
H760 N748 0.984 . S
H761 N748 0.985 . S
C762 C763 1.363 . S
C762 C768 1.379 . S
C762 N770 1.356 . S
C763 C762 1.363 . S
C763 C769 1.363 . S
C764 C765 1.363 . S
C764 C769 1.379 . S
C764 N771 1.356 . S
C765 C764 1.363 . S
C765 C768 1.363 . S
N766 C768 1.356 . S
N766 H778 0.984 . S
N766 H779 0.985 . S
N767 C769 1.356 . S
N767 H772 0.984 . S
N767 H773 0.985 . S
C768 C762 1.379 . S
C768 C765 1.363 . S
C768 N766 1.356 . S
C769 C763 1.363 . S
C769 C764 1.379 . S
C769 N767 1.356 . S
N770 C762 1.356 . S
N770 H776 0.984 . S
N770 H777 0.984 . S
N771 C764 1.356 . S
N771 H774 0.984 . S
N771 H775 0.985 . S
H772 N767 0.984 . S
H773 N767 0.985 . S
H774 N771 0.984 . S
H775 N771 0.985 . S
H776 N770 0.984 . S
H777 N770 0.984 . S
H778 N766 0.984 . S
H779 N766 0.985 . S
C780 C781 1.363 . S
C780 C786 1.379 . S
C780 N788 1.356 . S
C781 C780 1.363 . S
C781 C787 1.363 . S
C782 C783 1.363 . S
C782 C787 1.379 . S
C782 N789 1.356 . S
C783 C782 1.363 . S
C783 C786 1.363 . S
N784 C786 1.356 1_455 S
N784 H796 0.984 . S
N784 H797 0.985 . S
N785 C787 1.356 . S
N785 H790 0.984 . S
N785 H791 0.985 . S
C786 C780 1.379 . S
C786 C783 1.363 . S
C786 N784 1.356 1_655 S
C787 C781 1.363 . S
C787 C782 1.379 . S
C787 N785 1.356 . S
N788 C780 1.356 . S
N788 H794 0.984 . S
N788 H795 0.984 . S
N789 C782 1.356 . S
N789 H792 0.984 . S
N789 H793 0.985 . S
H790 N785 0.984 . S
H791 N785 0.985 . S
H792 N789 0.984 . S
H793 N789 0.985 . S
H794 N788 0.984 . S
H795 N788 0.984 . S
H796 N784 0.984 . S
H797 N784 0.985 . S
C798 C799 1.363 . S
C798 C804 1.379 . S
C798 N806 1.356 . S
C799 C798 1.363 . S
C799 C805 1.363 . S
C800 C801 1.363 . S
C800 C805 1.379 . S
C800 N807 1.356 1_565 S
C801 C800 1.363 . S
C801 C804 1.363 . S
N802 C804 1.356 . S
N802 H814 0.984 . S
N802 H815 0.985 . S
N803 C805 1.356 . S
N803 H808 0.984 . S
N803 H809 0.985 . S
C804 C798 1.379 . S
C804 C801 1.363 . S
C804 N802 1.356 . S
C805 C799 1.363 . S
C805 C800 1.379 . S
C805 N803 1.356 . S
N806 C798 1.356 . S
N806 H812 0.984 . S
N806 H813 0.984 . S
N807 C800 1.356 1_545 S
N807 H810 0.984 . S
N807 H811 0.985 . S
H808 N803 0.984 . S
H809 N803 0.985 . S
H810 N807 0.984 . S
H811 N807 0.985 . S
H812 N806 0.984 . S
H813 N806 0.984 . S
H814 N802 0.984 . S
H815 N802 0.985 . S
C816 C817 1.363 . S
C816 C822 1.379 . S
C816 N824 1.356 . S
C817 C816 1.363 . S
C817 C823 1.363 . S
C818 C819 1.363 . S
C818 C823 1.379 . S
C818 N825 1.356 . S
C819 C818 1.363 . S
C819 C822 1.363 . S
N820 C822 1.356 . S
N820 H832 0.984 . S
N820 H833 0.985 . S
N821 C823 1.356 . S
N821 H826 0.984 . S
N821 H827 0.985 . S
C822 C816 1.379 . S
C822 C819 1.363 . S
C822 N820 1.356 . S
C823 C817 1.363 . S
C823 C818 1.379 . S
C823 N821 1.356 . S
N824 C816 1.356 . S
N824 H830 0.984 . S
N824 H831 0.984 . S
N825 C818 1.356 . S
N825 H828 0.984 . S
N825 H829 0.985 . S
H826 N821 0.984 . S
H827 N821 0.985 . S
H828 N825 0.984 . S
H829 N825 0.985 . S
H830 N824 0.984 . S
H831 N824 0.984 . S
H832 N820 0.984 . S
H833 N820 0.985 . S
C834 C835 1.363 . S
C834 C840 1.379 . S
C834 N842 1.356 . S
C835 C834 1.363 . S
C835 C841 1.363 . S
C836 C837 1.363 . S
C836 C841 1.379 . S
C836 N843 1.356 . S
C837 C836 1.363 . S
C837 C840 1.363 . S
N838 C840 1.356 . S
N838 H850 0.984 . S
N838 H851 0.985 . S
N839 C841 1.356 . S
N839 H844 0.984 . S
N839 H845 0.985 . S
C840 C834 1.379 . S
C840 C837 1.363 . S
C840 N838 1.356 . S
C841 C835 1.363 . S
C841 C836 1.379 . S
C841 N839 1.356 . S
N842 C834 1.356 . S
N842 H848 0.984 . S
N842 H849 0.984 . S
N843 C836 1.356 . S
N843 H846 0.984 . S
N843 H847 0.985 . S
H844 N839 0.984 . S
H845 N839 0.985 . S
H846 N843 0.984 . S
H847 N843 0.985 . S
H848 N842 0.984 . S
H849 N842 0.984 . S
H850 N838 0.984 . S
H851 N838 0.985 . S
C852 C853 1.363 . S
C852 C858 1.379 . S
C852 N860 1.356 . S
C853 C852 1.363 . S
C853 C859 1.363 . S
C854 C855 1.363 . S
C854 C859 1.379 . S
C854 N861 1.356 . S
C855 C854 1.363 . S
C855 C858 1.363 . S
N856 C858 1.356 . S
N856 H868 0.984 . S
N856 H869 0.985 . S
N857 C859 1.356 . S
N857 H862 0.984 . S
N857 H863 0.985 . S
C858 C852 1.379 . S
C858 C855 1.363 . S
C858 N856 1.356 . S
C859 C853 1.363 . S
C859 C854 1.379 . S
C859 N857 1.356 . S
N860 C852 1.356 . S
N860 H866 0.984 . S
N860 H867 0.984 . S
N861 C854 1.356 . S
N861 H864 0.984 . S
N861 H865 0.985 . S
H862 N857 0.984 . S
H863 N857 0.985 . S
H864 N861 0.984 . S
H865 N861 0.985 . S
H866 N860 0.984 . S
H867 N860 0.984 . S
H868 N856 0.984 . S
H869 N856 0.985 . S
C870 C871 1.363 . S
C870 C876 1.379 . S
C870 N878 1.356 . S
C871 C870 1.363 . S
C871 C877 1.363 . S
C872 C873 1.363 . S
C872 C877 1.379 . S
C872 N879 1.356 . S
C873 C872 1.363 . S
C873 C876 1.363 . S
N874 C876 1.356 . S
N874 H886 0.984 . S
N874 H887 0.985 . S
N875 C877 1.356 . S
N875 H880 0.984 . S
N875 H881 0.985 . S
C876 C870 1.379 . S
C876 C873 1.363 . S
C876 N874 1.356 . S
C877 C871 1.363 . S
C877 C872 1.379 . S
C877 N875 1.356 . S
N878 C870 1.356 . S
N878 H884 0.984 . S
N878 H885 0.984 . S
N879 C872 1.356 . S
N879 H882 0.984 . S
N879 H883 0.985 . S
H880 N875 0.984 . S
H881 N875 0.985 . S
H882 N879 0.984 . S
H883 N879 0.985 . S
H884 N878 0.984 . S
H885 N878 0.984 . S
H886 N874 0.984 . S
H887 N874 0.985 . S
C888 C889 1.363 . S
C888 C894 1.379 . S
C888 N896 1.356 . S
C889 C888 1.363 . S
C889 C895 1.363 . S
C890 C891 1.363 . S
C890 C895 1.379 . S
C890 N897 1.356 . S
C891 C890 1.363 . S
C891 C894 1.363 . S
N892 C894 1.356 . S
N892 H904 0.984 . S
N892 H905 0.985 . S
N893 C895 1.356 . S
N893 H898 0.984 . S
N893 H899 0.985 . S
C894 C888 1.379 . S
C894 C891 1.363 . S
C894 N892 1.356 . S
C895 C889 1.363 . S
C895 C890 1.379 . S
C895 N893 1.356 . S
N896 C888 1.356 . S
N896 H902 0.984 . S
N896 H903 0.984 . S
N897 C890 1.356 . S
N897 H900 0.984 . S
N897 H901 0.985 . S
H898 N893 0.984 . S
H899 N893 0.985 . S
H900 N897 0.984 . S
H901 N897 0.985 . S
H902 N896 0.984 . S
H903 N896 0.984 . S
H904 N892 0.984 . S
H905 N892 0.985 . S
C906 C907 1.363 . S
C906 C912 1.379 . S
C906 N914 1.356 . S
C907 C906 1.363 . S
C907 C913 1.363 . S
C908 C909 1.363 . S
C908 C913 1.379 . S
C908 N915 1.356 . S
C909 C908 1.363 . S
C909 C912 1.363 . S
N910 C912 1.356 . S
N910 H922 0.984 . S
N910 H923 0.985 . S
N911 C913 1.356 . S
N911 H916 0.984 . S
N911 H917 0.985 . S
C912 C906 1.379 . S
C912 C909 1.363 . S
C912 N910 1.356 . S
C913 C907 1.363 . S
C913 C908 1.379 . S
C913 N911 1.356 . S
N914 C906 1.356 . S
N914 H920 0.984 . S
N914 H921 0.984 . S
N915 C908 1.356 . S
N915 H918 0.984 . S
N915 H919 0.985 . S
H916 N911 0.984 . S
H917 N911 0.985 . S
H918 N915 0.984 . S
H919 N915 0.985 . S
H920 N914 0.984 . S
H921 N914 0.984 . S
H922 N910 0.984 . S
H923 N910 0.985 . S
C924 C925 1.363 . S
C924 C930 1.379 . S
C924 N932 1.356 . S
C925 C924 1.363 . S
C925 C931 1.363 . S
C926 C927 1.363 . S
C926 C931 1.379 . S
C926 N933 1.356 . S
C927 C926 1.363 . S
C927 C930 1.363 . S
N928 C930 1.356 . S
N928 H940 0.984 . S
N928 H941 0.985 . S
N929 C931 1.356 . S
N929 H934 0.984 . S
N929 H935 0.985 . S
C930 C924 1.379 . S
C930 C927 1.363 . S
C930 N928 1.356 . S
C931 C925 1.363 . S
C931 C926 1.379 . S
C931 N929 1.356 . S
N932 C924 1.356 . S
N932 H938 0.984 . S
N932 H939 0.984 . S
N933 C926 1.356 . S
N933 H936 0.984 . S
N933 H937 0.985 . S
H934 N929 0.984 . S
H935 N929 0.985 . S
H936 N933 0.984 . S
H937 N933 0.985 . S
H938 N932 0.984 . S
H939 N932 0.984 . S
H940 N928 0.984 . S
H941 N928 0.985 . S
C942 C943 1.363 . S
C942 C948 1.379 . S
C942 N950 1.356 . S
C943 C942 1.363 . S
C943 C949 1.363 . S
C944 C945 1.363 . S
C944 C949 1.379 . S
C944 N951 1.356 . S
C945 C944 1.363 . S
C945 C948 1.363 . S
N946 C948 1.356 . S
N946 H958 0.984 . S
N946 H959 0.985 . S
N947 C949 1.356 . S
N947 H952 0.984 . S
N947 H953 0.985 . S
C948 C942 1.379 . S
C948 C945 1.363 . S
C948 N946 1.356 . S
C949 C943 1.363 . S
C949 C944 1.379 . S
C949 N947 1.356 . S
N950 C942 1.356 . S
N950 H956 0.984 . S
N950 H957 0.984 . S
N951 C944 1.356 . S
N951 H954 0.984 . S
N951 H955 0.985 . S
H952 N947 0.984 . S
H953 N947 0.985 . S
H954 N951 0.984 . S
H955 N951 0.985 . S
H956 N950 0.984 . S
H957 N950 0.984 . S
H958 N946 0.984 . S
H959 N946 0.985 . S
C960 C961 1.363 . S
C960 C966 1.379 . S
C960 N968 1.356 . S
C961 C960 1.363 . S
C961 C967 1.363 . S
C962 C963 1.363 . S
C962 C967 1.379 . S
C962 N969 1.356 . S
C963 C962 1.363 . S
C963 C966 1.363 . S
N964 C966 1.356 . S
N964 H976 0.984 . S
N964 H977 0.985 . S
N965 C967 1.356 . S
N965 H970 0.984 . S
N965 H971 0.985 . S
C966 C960 1.379 . S
C966 C963 1.363 . S
C966 N964 1.356 . S
C967 C961 1.363 . S
C967 C962 1.379 . S
C967 N965 1.356 . S
N968 C960 1.356 . S
N968 H974 0.984 . S
N968 H975 0.984 . S
N969 C962 1.356 . S
N969 H972 0.984 . S
N969 H973 0.985 . S
H970 N965 0.984 . S
H971 N965 0.985 . S
H972 N969 0.984 . S
H973 N969 0.985 . S
H974 N968 0.984 . S
H975 N968 0.984 . S
H976 N964 0.984 . S
H977 N964 0.985 . S
C978 C979 1.363 . S
C978 C984 1.379 . S
C978 N986 1.356 . S
C979 C978 1.363 . S
C979 C985 1.363 . S
C980 C981 1.363 . S
C980 C985 1.379 . S
C980 N987 1.356 . S
C981 C980 1.363 . S
C981 C984 1.363 . S
N982 C984 1.356 . S
N982 H994 0.984 . S
N982 H995 0.985 . S
N983 C985 1.356 . S
N983 H988 0.984 . S
N983 H989 0.985 . S
C984 C978 1.379 . S
C984 C981 1.363 . S
C984 N982 1.356 . S
C985 C979 1.363 . S
C985 C980 1.379 . S
C985 N983 1.356 . S
N986 C978 1.356 . S
N986 H992 0.984 . S
N986 H993 0.984 . S
N987 C980 1.356 . S
N987 H990 0.984 . S
N987 H991 0.985 . S
H988 N983 0.984 . S
H989 N983 0.985 . S
H990 N987 0.984 . S
H991 N987 0.985 . S
H992 N986 0.984 . S
H993 N986 0.984 . S
H994 N982 0.984 . S
H995 N982 0.985 . S
C996 C997 1.363 . S
C996 C1002 1.379 . S
C996 N1004 1.356 . S
C997 C996 1.363 . S
C997 C1003 1.363 . S
C998 C999 1.363 . S
C998 C1003 1.379 . S
C998 N1005 1.356 . S
C999 C998 1.363 . S
C999 C1002 1.363 . S
N1000 C1002 1.356 1_455 S
N1000 H1012 0.984 . S
N1000 H1013 0.985 . S
N1001 C1003 1.356 . S
N1001 H1006 0.984 . S
N1001 H1007 0.985 . S
C1002 C996 1.379 . S
C1002 C999 1.363 . S
C1002 N1000 1.356 1_655 S
C1003 C997 1.363 . S
C1003 C998 1.379 . S
C1003 N1001 1.356 . S
N1004 C996 1.356 . S
N1004 H1010 0.984 . S
N1004 H1011 0.984 . S
N1005 C998 1.356 . S
N1005 H1008 0.984 . S
N1005 H1009 0.985 . S
H1006 N1001 0.984 . S
H1007 N1001 0.985 . S
H1008 N1005 0.984 . S
H1009 N1005 0.985 . S
H1010 N1004 0.984 . S
H1011 N1004 0.984 . S
H1012 N1000 0.984 . S
H1013 N1000 0.985 . S
C1014 C1015 1.363 . S
C1014 C1020 1.379 . S
C1014 N1022 1.356 . S
C1015 C1014 1.363 . S
C1015 C1021 1.363 . S
C1016 C1017 1.363 . S
C1016 C1021 1.379 . S
C1016 N1023 1.356 . S
C1017 C1016 1.363 . S
C1017 C1020 1.363 . S
N1018 C1020 1.356 . S
N1018 H1030 0.984 . S
N1018 H1031 0.985 . S
N1019 C1021 1.356 1_545 S
N1019 H1024 0.984 . S
N1019 H1025 0.985 . S
C1020 C1014 1.379 . S
C1020 C1017 1.363 . S
C1020 N1018 1.356 . S
C1021 C1015 1.363 . S
C1021 C1016 1.379 . S
C1021 N1019 1.356 1_565 S
N1022 C1014 1.356 . S
N1022 H1028 0.984 . S
N1022 H1029 0.984 . S
N1023 C1016 1.356 . S
N1023 H1026 0.984 . S
N1023 H1027 0.985 . S
H1024 N1019 0.984 . S
H1025 N1019 0.985 . S
H1026 N1023 0.984 . S
H1027 N1023 0.985 . S
H1028 N1022 0.984 . S
H1029 N1022 0.984 . S
H1030 N1018 0.984 . S
H1031 N1018 0.985 . S
C1032 C1033 1.363 . S
C1032 C1038 1.379 . S
C1032 N1040 1.356 . S
C1033 C1032 1.363 . S
C1033 C1039 1.363 . S
C1034 C1035 1.363 . S
C1034 C1039 1.379 . S
C1034 N1041 1.356 . S
C1035 C1034 1.363 . S
C1035 C1038 1.363 . S
N1036 C1038 1.356 . S
N1036 H1048 0.984 . S
N1036 H1049 0.985 . S
N1037 C1039 1.356 . S
N1037 H1042 0.984 . S
N1037 H1043 0.985 . S
C1038 C1032 1.379 . S
C1038 C1035 1.363 . S
C1038 N1036 1.356 . S
C1039 C1033 1.363 . S
C1039 C1034 1.379 . S
C1039 N1037 1.356 . S
N1040 C1032 1.356 . S
N1040 H1046 0.984 . S
N1040 H1047 0.984 . S
N1041 C1034 1.356 . S
N1041 H1044 0.984 . S
N1041 H1045 0.985 . S
H1042 N1037 0.984 . S
H1043 N1037 0.985 . S
H1044 N1041 0.984 . S
H1045 N1041 0.985 . S
H1046 N1040 0.984 . S
H1047 N1040 0.984 . S
H1048 N1036 0.984 . S
H1049 N1036 0.985 . S
C1050 C1051 1.363 . S
C1050 C1056 1.379 . S
C1050 N1058 1.356 . S
C1051 C1050 1.363 . S
C1051 C1057 1.363 . S
C1052 C1053 1.363 . S
C1052 C1057 1.379 . S
C1052 N1059 1.356 . S
C1053 C1052 1.363 . S
C1053 C1056 1.363 . S
N1054 C1056 1.356 . S
N1054 H1066 0.984 . S
N1054 H1067 0.985 . S
N1055 C1057 1.356 . S
N1055 H1060 0.984 . S
N1055 H1061 0.985 . S
C1056 C1050 1.379 . S
C1056 C1053 1.363 . S
C1056 N1054 1.356 . S
C1057 C1051 1.363 . S
C1057 C1052 1.379 . S
C1057 N1055 1.356 . S
N1058 C1050 1.356 . S
N1058 H1064 0.984 . S
N1058 H1065 0.984 . S
N1059 C1052 1.356 . S
N1059 H1062 0.984 . S
N1059 H1063 0.985 . S
H1060 N1055 0.984 . S
H1061 N1055 0.985 . S
H1062 N1059 0.984 . S
H1063 N1059 0.985 . S
H1064 N1058 0.984 . S
H1065 N1058 0.984 . S
H1066 N1054 0.984 . S
H1067 N1054 0.985 . S
C1068 C1069 1.363 . S
C1068 C1074 1.379 . S
C1068 N1076 1.356 . S
C1069 C1068 1.363 . S
C1069 C1075 1.363 . S
C1070 C1071 1.363 . S
C1070 C1075 1.379 . S
C1070 N1077 1.356 . S
C1071 C1070 1.363 . S
C1071 C1074 1.363 . S
N1072 C1074 1.356 . S
N1072 H1084 0.984 . S
N1072 H1085 0.985 . S
N1073 C1075 1.356 . S
N1073 H1078 0.984 . S
N1073 H1079 0.985 . S
C1074 C1068 1.379 . S
C1074 C1071 1.363 . S
C1074 N1072 1.356 . S
C1075 C1069 1.363 . S
C1075 C1070 1.379 . S
C1075 N1073 1.356 . S
N1076 C1068 1.356 . S
N1076 H1082 0.984 . S
N1076 H1083 0.984 1_655 S
N1077 C1070 1.356 . S
N1077 H1080 0.984 . S
N1077 H1081 0.985 . S
H1078 N1073 0.984 . S
H1079 N1073 0.985 . S
H1080 N1077 0.984 . S
H1081 N1077 0.985 . S
H1082 N1076 0.984 . S
H1083 N1076 0.984 1_455 S
H1084 N1072 0.984 . S
H1085 N1072 0.985 . S
C1086 C1087 1.363 . S
C1086 C1092 1.379 . S
C1086 N1094 1.356 . S
C1087 C1086 1.363 . S
C1087 C1093 1.363 . S
C1088 C1089 1.363 . S
C1088 C1093 1.379 . S
C1088 N1095 1.356 . S
C1089 C1088 1.363 . S
C1089 C1092 1.363 . S
N1090 C1092 1.356 1_545 S
N1090 H1102 0.984 . S
N1090 H1103 0.985 . S
N1091 C1093 1.356 . S
N1091 H1096 0.984 . S
N1091 H1097 0.985 . S
C1092 C1086 1.379 . S
C1092 C1089 1.363 . S
C1092 N1090 1.356 1_565 S
C1093 C1087 1.363 . S
C1093 C1088 1.379 . S
C1093 N1091 1.356 . S
N1094 C1086 1.356 . S
N1094 H1100 0.984 . S
N1094 H1101 0.984 . S
N1095 C1088 1.356 . S
N1095 H1098 0.984 . S
N1095 H1099 0.985 . S
H1096 N1091 0.984 . S
H1097 N1091 0.985 . S
H1098 N1095 0.984 . S
H1099 N1095 0.985 . S
H1100 N1094 0.984 . S
H1101 N1094 0.984 . S
H1102 N1090 0.984 . S
H1103 N1090 0.985 . S
C1104 C1105 1.363 . S
C1104 C1110 1.379 . S
C1104 N1112 1.356 . S
C1105 C1104 1.363 . S
C1105 C1111 1.363 . S
C1106 C1107 1.363 . S
C1106 C1111 1.379 . S
C1106 N1113 1.356 . S
C1107 C1106 1.363 . S
C1107 C1110 1.363 . S
N1108 C1110 1.356 . S
N1108 H1120 0.984 . S
N1108 H1121 0.985 . S
N1109 C1111 1.356 . S
N1109 H1114 0.984 . S
N1109 H1115 0.985 . S
C1110 C1104 1.379 . S
C1110 C1107 1.363 . S
C1110 N1108 1.356 . S
C1111 C1105 1.363 . S
C1111 C1106 1.379 . S
C1111 N1109 1.356 . S
N1112 C1104 1.356 . S
N1112 H1118 0.984 . S
N1112 H1119 0.999 . S
N1113 C1106 1.356 . S
N1113 H1116 0.984 . S
N1113 H1117 0.985 . S
H1114 N1109 0.984 . S
H1115 N1109 0.985 . S
H1116 N1113 0.984 . S
H1117 N1113 0.985 . S
H1118 N1112 0.984 . S
H1119 N1112 0.999 . S
H1120 N1108 0.984 . S
H1121 N1108 0.985 . S
C1122 C1123 1.363 . S
C1122 C1128 1.379 . S
C1122 N1130 1.356 . S
C1123 C1122 1.363 . S
C1123 C1129 1.363 . S
C1124 C1125 1.363 . S
C1124 C1129 1.379 . S
C1124 N1131 1.356 . S
C1125 C1124 1.363 . S
C1125 C1128 1.363 . S
N1126 C1128 1.356 . S
N1126 H1138 0.984 . S
N1126 H1139 0.985 . S
N1127 C1129 1.356 . S
N1127 H1132 0.984 . S
N1127 H1133 0.985 . S
C1128 C1122 1.379 . S
C1128 C1125 1.363 . S
C1128 N1126 1.356 . S
C1129 C1123 1.363 . S
C1129 C1124 1.379 . S
C1129 N1127 1.356 . S
N1130 C1122 1.356 . S
N1130 H1136 0.984 1_565 S
N1130 H1137 0.984 1_565 S
N1131 C1124 1.356 . S
N1131 H1134 0.984 . S
N1131 H1135 0.985 . S
H1132 N1127 0.984 . S
H1133 N1127 0.985 . S
H1134 N1131 0.984 . S
H1135 N1131 0.985 . S
H1136 N1130 0.984 1_545 S
H1137 N1130 0.984 1_545 S
H1138 N1126 0.984 . S
H1139 N1126 0.985 . S
C1140 C1141 1.363 . S
C1140 C1146 1.379 . S
C1140 N1148 1.356 . S
C1141 C1140 1.363 . S
C1141 C1147 1.363 . S
C1142 C1143 1.363 . S
C1142 C1147 1.379 . S
C1142 N1149 1.356 . S
C1143 C1142 1.363 . S
C1143 C1146 1.363 . S
N1144 C1146 1.356 . S
N1144 H1156 0.984 . S
N1144 H1157 0.985 . S
N1145 C1147 1.356 . S
N1145 H1150 0.984 . S
N1145 H1151 0.985 . S
C1146 C1140 1.379 . S
C1146 C1143 1.363 . S
C1146 N1144 1.356 . S
C1147 C1141 1.363 . S
C1147 C1142 1.379 . S
C1147 N1145 1.356 . S
N1148 C1140 1.356 . S
N1148 H1154 0.984 . S
N1148 H1155 0.984 . S
N1149 C1142 1.356 . S
N1149 H1152 0.984 . S
N1149 H1153 0.985 . S
H1150 N1145 0.984 . S
H1151 N1145 0.985 . S
H1152 N1149 0.984 . S
H1153 N1149 0.985 . S
H1154 N1148 0.984 . S
H1155 N1148 0.984 . S
H1156 N1144 0.984 . S
H1157 N1144 0.985 . S
C1158 C1159 1.363 . S
C1158 C1164 1.379 . S
C1158 N1166 1.356 . S
C1159 C1158 1.363 . S
C1159 C1165 1.363 . S
C1160 C1161 1.363 . S
C1160 C1165 1.379 . S
C1160 N1167 1.356 . S
C1161 C1160 1.363 . S
C1161 C1164 1.363 . S
N1162 C1164 1.356 . S
N1162 H1174 0.984 . S
N1162 H1175 0.985 . S
N1163 C1165 1.356 . S
N1163 H1168 0.984 . S
N1163 H1169 0.985 . S
C1164 C1158 1.379 . S
C1164 C1161 1.363 . S
C1164 N1162 1.356 . S
C1165 C1159 1.363 . S
C1165 C1160 1.379 . S
C1165 N1163 1.356 . S
N1166 C1158 1.356 . S
N1166 H1172 0.984 . S
N1166 H1173 0.984 . S
N1167 C1160 1.356 . S
N1167 H1170 0.984 . S
N1167 H1171 0.985 . S
H1168 N1163 0.984 . S
H1169 N1163 0.985 . S
H1170 N1167 0.984 . S
H1171 N1167 0.985 . S
H1172 N1166 0.984 . S
H1173 N1166 0.984 . S
H1174 N1162 0.984 . S
H1175 N1162 0.985 . S
C1176 C1177 1.363 . S
C1176 C1182 1.379 . S
C1176 N1184 1.356 . S
C1177 C1176 1.363 . S
C1177 C1183 1.363 . S
C1178 C1179 1.363 . S
C1178 C1183 1.379 . S
C1178 N1185 1.356 . S
C1179 C1178 1.363 . S
C1179 C1182 1.363 . S
N1180 C1182 1.356 . S
N1180 H1192 0.984 . S
N1180 H1193 0.985 . S
N1181 C1183 1.356 . S
N1181 H1186 0.984 . S
N1181 H1187 0.985 . S
C1182 C1176 1.379 . S
C1182 C1179 1.363 . S
C1182 N1180 1.356 . S
C1183 C1177 1.363 . S
C1183 C1178 1.379 . S
C1183 N1181 1.356 . S
N1184 C1176 1.356 . S
N1184 H1190 0.984 . S
N1184 H1191 0.984 . S
N1185 C1178 1.356 . S
N1185 H1188 0.984 . S
N1185 H1189 0.985 . S
H1186 N1181 0.984 . S
H1187 N1181 0.985 . S
H1188 N1185 0.984 . S
H1189 N1185 0.985 . S
H1190 N1184 0.984 . S
H1191 N1184 0.984 . S
H1192 N1180 0.984 . S
H1193 N1180 0.985 . S
C1194 C1195 1.363 . S
C1194 C1200 1.379 . S
C1194 N1202 1.356 . S
C1195 C1194 1.363 . S
C1195 C1201 1.363 . S
C1196 C1197 1.363 . S
C1196 C1201 1.379 . S
C1196 N1203 1.356 . S
C1197 C1196 1.363 . S
C1197 C1200 1.363 . S
N1198 C1200 1.356 . S
N1198 H1210 0.984 . S
N1198 H1211 0.985 . S
N1199 C1201 1.356 . S
N1199 H1204 0.984 . S
N1199 H1205 0.985 . S
C1200 C1194 1.379 . S
C1200 C1197 1.363 . S
C1200 N1198 1.356 . S
C1201 C1195 1.363 . S
C1201 C1196 1.379 . S
C1201 N1199 1.356 . S
N1202 C1194 1.356 . S
N1202 H1208 0.984 . S
N1202 H1209 0.984 . S
N1203 C1196 1.356 . S
N1203 H1206 0.984 . S
N1203 H1207 0.985 . S
H1204 N1199 0.984 . S
H1205 N1199 0.985 . S
H1206 N1203 0.984 . S
H1207 N1203 0.985 . S
H1208 N1202 0.984 . S
H1209 N1202 0.984 . S
H1210 N1198 0.984 . S
H1211 N1198 0.985 . S
C1212 C1213 1.363 . S
C1212 C1218 1.379 . S
C1212 N1220 1.356 . S
C1213 C1212 1.363 . S
C1213 C1219 1.363 . S
C1214 C1215 1.363 . S
C1214 C1219 1.379 . S
C1214 N1221 1.356 . S
C1215 C1214 1.363 . S
C1215 C1218 1.363 . S
N1216 C1218 1.356 . S
N1216 H1228 0.984 . S
N1216 H1229 0.985 . S
N1217 C1219 1.356 . S
N1217 H1222 0.984 . S
N1217 H1223 0.985 . S
C1218 C1212 1.379 . S
C1218 C1215 1.363 . S
C1218 N1216 1.356 . S
C1219 C1213 1.363 . S
C1219 C1214 1.379 . S
C1219 N1217 1.356 . S
N1220 C1212 1.356 . S
N1220 H1226 0.984 . S
N1220 H1227 0.984 . S
N1221 C1214 1.356 . S
N1221 H1224 0.984 . S
N1221 H1225 0.985 . S
H1222 N1217 0.984 . S
H1223 N1217 0.985 . S
H1224 N1221 0.984 . S
H1225 N1221 0.985 . S
H1226 N1220 0.984 . S
H1227 N1220 0.984 . S
H1228 N1216 0.984 . S
H1229 N1216 0.985 . S
C1230 C1231 1.363 . S
C1230 C1236 1.379 . S
C1230 N1238 1.356 . S
C1231 C1230 1.363 . S
C1231 C1237 1.363 . S
C1232 C1233 1.363 . S
C1232 C1237 1.379 . S
C1232 N1239 1.356 . S
C1233 C1232 1.363 . S
C1233 C1236 1.363 . S
N1234 C1236 1.356 . S
N1234 H1246 0.984 . S
N1234 H1247 0.985 . S
N1235 C1237 1.356 . S
N1235 H1240 0.984 . S
N1235 H1241 0.985 . S
C1236 C1230 1.379 . S
C1236 C1233 1.363 . S
C1236 N1234 1.356 . S
C1237 C1231 1.363 . S
C1237 C1232 1.379 . S
C1237 N1235 1.356 . S
N1238 C1230 1.356 . S
N1238 H1244 0.984 . S
N1238 H1245 0.984 . S
N1239 C1232 1.356 . S
N1239 H1242 0.984 . S
N1239 H1243 0.985 . S
H1240 N1235 0.984 . S
H1241 N1235 0.985 . S
H1242 N1239 0.984 . S
H1243 N1239 0.985 . S
H1244 N1238 0.984 . S
H1245 N1238 0.984 . S
H1246 N1234 0.984 . S
H1247 N1234 0.985 . S
C529 C21 1.533 . S
C531 C219 1.533 . S
C547 C252 1.533 . S
C549 C54 1.533 . S
C565 C153 1.533 . S
C567 C87 1.533 . S
C583 C186 1.533 . S
C585 C120 1.533 . S
C601 C285 1.533 . S
C603 C483 1.533 . S
C619 C318 1.533 . S
C621 C516 1.533 . S
C637 C351 1.533 . S
C639 C417 1.533 . S
C655 C450 1.533 . S
C657 C384 1.533 . S
C673 C7 1.484 . S
C675 N101 1.507 . S
C691 C40 1.484 . S
C693 N2 1.507 . S
C709 N35 1.507 . S
C711 C73 1.485 1_655 S
C727 C106 1.485 1_565 S
C729 N68 1.507 . S
C745 N167 1.507 . S
C747 C139 1.484 . S
C763 N200 1.507 . S
C765 C172 1.484 . S
C781 N233 1.507 . S
C783 C205 1.485 1_655 S
C799 N134 1.507 . S
C801 C238 1.485 1_565 S
C817 C271 1.484 . S
C819 N365 1.507 . S
C835 N266 1.507 . S
C837 C304 1.485 . S
C853 C337 1.485 . S
C855 N299 1.507 . S
C871 C370 1.484 . S
C873 N332 1.507 . S
C889 C403 1.485 . S
C891 N431 1.507 . S
C907 C436 1.484 . S
C909 N464 1.507 . S
C925 C469 1.484 . S
C927 N497 1.507 . S
C943 N398 1.507 . S
C945 C502 1.485 . S
C961 N508 1.284 . S
C963 N13 1.284 . S
C979 N46 1.284 . S
C981 N409 1.284 . S
C997 N442 1.284 . S
C999 N79 1.284 . S
C1015 N112 1.284 . S
C1017 N475 1.284 . S
C1033 N310 1.284 . S
C1035 N145 1.284 . S
C1051 N178 1.284 . S
C1053 N343 1.284 . S
C1069 N211 1.284 . S
C1071 N376 1.284 . S
C1087 N277 1.284 . S
C1089 N244 1.284 . S
C1105 C150 1.623 . S
C1107 C381 1.623 . S
C1123 C183 1.623 . S
C1125 C282 1.623 . S
C1141 C216 1.623 . S
C1143 C315 1.623 . S
C1159 C348 1.623 . S
C1161 C249 1.623 . S
C1177 C18 1.623 . S
C1179 C447 1.623 . S
C1195 C480 1.623 . S
C1197 C51 1.623 . S
C1213 C84 1.623 . S
C1215 C513 1.623 . S
C1231 C117 1.623 . S
C1233 C414 1.623 . S
