# Generated by pormake.
# Topology smd, (6)-cn, num edge types: 1
# Building blocks:
#     Node 0, Type 0, BuildingBlock: PAMTOO_clean_sbu_0, # of connection points: 6
#     Node 1, Type 0, BuildingBlock: PAMTOO_clean_sbu_0, # of connection points: 6
#     Node 2, Type 0, BuildingBlock: PAMTOO_clean_sbu_0, # of connection points: 6
#     Node 3, Type 0, BuildingBlock: PAMTOO_clean_sbu_0, # of connection points: 6
#     Node 4, Type 0, BuildingBlock: PAMTOO_clean_sbu_0, # of connection points: 6
#     Node 5, Type 0, BuildingBlock: PAMTOO_clean_sbu_0, # of connection points: 6
#     Node 6, Type 0, BuildingBlock: PAMTOO_clean_sbu_0, # of connection points: 6
#     Node 7, Type 0, BuildingBlock: PAMTOO_clean_sbu_0, # of connection points: 6
#     Node 8, Type 0, BuildingBlock: PAMTOO_clean_sbu_0, # of connection points: 6
#     Node 9, Type 0, BuildingBlock: PAMTOO_clean_sbu_0, # of connection points: 6
#     Node 10, Type 0, BuildingBlock: PAMTOO_clean_sbu_0, # of connection points: 6
#     Node 11, Type 0, BuildingBlock: PAMTOO_clean_sbu_0, # of connection points: 6
#     Node 12, Type 0, BuildingBlock: PAMTOO_clean_sbu_0, # of connection points: 6
#     Node 13, Type 0, BuildingBlock: PAMTOO_clean_sbu_0, # of connection points: 6
#     Node 14, Type 0, BuildingBlock: PAMTOO_clean_sbu_0, # of connection points: 6
#     Node 15, Type 0, BuildingBlock: PAMTOO_clean_sbu_0, # of connection points: 6
#     Node 16, Type 0, BuildingBlock: PAMTOO_clean_sbu_0, # of connection points: 6
#     Node 17, Type 0, BuildingBlock: PAMTOO_clean_sbu_0, # of connection points: 6
#     Edge 18, Type (0, 0), BuildingBlock: OJICUG_clean_linker_0, # of connection points: 2
#     Edge 19, Type (0, 0), BuildingBlock: OJICUG_clean_linker_0, # of connection points: 2
#     Edge 20, Type (0, 0), BuildingBlock: OJICUG_clean_linker_0, # of connection points: 2
#     Edge 21, Type (0, 0), BuildingBlock: OJICUG_clean_linker_0, # of connection points: 2
#     Edge 22, Type (0, 0), BuildingBlock: OJICUG_clean_linker_0, # of connection points: 2
#     Edge 23, Type (0, 0), BuildingBlock: OJICUG_clean_linker_0, # of connection points: 2
#     Edge 24, Type (0, 0), BuildingBlock: OJICUG_clean_linker_0, # of connection points: 2
#     Edge 25, Type (0, 0), BuildingBlock: OJICUG_clean_linker_0, # of connection points: 2
#     Edge 26, Type (0, 0), BuildingBlock: OJICUG_clean_linker_0, # of connection points: 2
#     Edge 27, Type (0, 0), BuildingBlock: OJICUG_clean_linker_0, # of connection points: 2
#     Edge 28, Type (0, 0), BuildingBlock: OJICUG_clean_linker_0, # of connection points: 2
#     Edge 29, Type (0, 0), BuildingBlock: OJICUG_clean_linker_0, # of connection points: 2
#     Edge 30, Type (0, 0), BuildingBlock: OJICUG_clean_linker_0, # of connection points: 2
#     Edge 31, Type (0, 0), BuildingBlock: OJICUG_clean_linker_0, # of connection points: 2
#     Edge 32, Type (0, 0), BuildingBlock: OJICUG_clean_linker_0, # of connection points: 2
#     Edge 33, Type (0, 0), BuildingBlock: OJICUG_clean_linker_0, # of connection points: 2
#     Edge 34, Type (0, 0), BuildingBlock: OJICUG_clean_linker_0, # of connection points: 2
#     Edge 35, Type (0, 0), BuildingBlock: OJICUG_clean_linker_0, # of connection points: 2
#     Edge 36, Type (0, 0), BuildingBlock: OJICUG_clean_linker_0, # of connection points: 2
#     Edge 37, Type (0, 0), BuildingBlock: OJICUG_clean_linker_0, # of connection points: 2
#     Edge 38, Type (0, 0), BuildingBlock: OJICUG_clean_linker_0, # of connection points: 2
#     Edge 39, Type (0, 0), BuildingBlock: OJICUG_clean_linker_0, # of connection points: 2
#     Edge 40, Type (0, 0), BuildingBlock: OJICUG_clean_linker_0, # of connection points: 2
#     Edge 41, Type (0, 0), BuildingBlock: OJICUG_clean_linker_0, # of connection points: 2
#     Edge 42, Type (0, 0), BuildingBlock: OJICUG_clean_linker_0, # of connection points: 2
#     Edge 43, Type (0, 0), BuildingBlock: OJICUG_clean_linker_0, # of connection points: 2
#     Edge 44, Type (0, 0), BuildingBlock: OJICUG_clean_linker_0, # of connection points: 2
#     Edge 45, Type (0, 0), BuildingBlock: OJICUG_clean_linker_0, # of connection points: 2
#     Edge 46, Type (0, 0), BuildingBlock: OJICUG_clean_linker_0, # of connection points: 2
#     Edge 47, Type (0, 0), BuildingBlock: OJICUG_clean_linker_0, # of connection points: 2
#     Edge 48, Type (0, 0), BuildingBlock: OJICUG_clean_linker_0, # of connection points: 2
#     Edge 49, Type (0, 0), BuildingBlock: OJICUG_clean_linker_0, # of connection points: 2
#     Edge 50, Type (0, 0), BuildingBlock: OJICUG_clean_linker_0, # of connection points: 2
#     Edge 51, Type (0, 0), BuildingBlock: OJICUG_clean_linker_0, # of connection points: 2
#     Edge 52, Type (0, 0), BuildingBlock: OJICUG_clean_linker_0, # of connection points: 2
#     Edge 53, Type (0, 0), BuildingBlock: OJICUG_clean_linker_0, # of connection points: 2
#     Edge 54, Type (0, 0), BuildingBlock: OJICUG_clean_linker_0, # of connection points: 2
#     Edge 55, Type (0, 0), BuildingBlock: OJICUG_clean_linker_0, # of connection points: 2
#     Edge 56, Type (0, 0), BuildingBlock: OJICUG_clean_linker_0, # of connection points: 2
#     Edge 57, Type (0, 0), BuildingBlock: OJICUG_clean_linker_0, # of connection points: 2
#     Edge 58, Type (0, 0), BuildingBlock: OJICUG_clean_linker_0, # of connection points: 2
#     Edge 59, Type (0, 0), BuildingBlock: OJICUG_clean_linker_0, # of connection points: 2
#     Edge 60, Type (0, 0), BuildingBlock: OJICUG_clean_linker_0, # of connection points: 2
#     Edge 61, Type (0, 0), BuildingBlock: OJICUG_clean_linker_0, # of connection points: 2
#     Edge 62, Type (0, 0), BuildingBlock: OJICUG_clean_linker_0, # of connection points: 2
#     Edge 63, Type (0, 0), BuildingBlock: OJICUG_clean_linker_0, # of connection points: 2
#     Edge 64, Type (0, 0), BuildingBlock: OJICUG_clean_linker_0, # of connection points: 2
#     Edge 65, Type (0, 0), BuildingBlock: OJICUG_clean_linker_0, # of connection points: 2
#     Edge 66, Type (0, 0), BuildingBlock: OJICUG_clean_linker_0, # of connection points: 2
#     Edge 67, Type (0, 0), BuildingBlock: OJICUG_clean_linker_0, # of connection points: 2
#     Edge 68, Type (0, 0), BuildingBlock: OJICUG_clean_linker_0, # of connection points: 2
#     Edge 69, Type (0, 0), BuildingBlock: OJICUG_clean_linker_0, # of connection points: 2
#     Edge 70, Type (0, 0), BuildingBlock: OJICUG_clean_linker_0, # of connection points: 2
#     Edge 71, Type (0, 0), BuildingBlock: OJICUG_clean_linker_0, # of connection points: 2
# Relax obj value: 0.251
# Max RMSD: 0.338
# Mean RMSD: 0.338
data_MOF--net-smd--node1-PAMTOO_clean_sbu_0--edge1-OJICUG_clean_linker_0
_symmetry_space_group_name_H-M    P1
_symmetry_Int_Tables_number       1
_symmetry_cell_setting            triclinic
loop_
_symmetry_equiv_pos_as_xyz
'x, y, z'
_cell_length_a     46.213805
_cell_length_b     46.389252
_cell_length_c     20.987175
_cell_angle_alpha  90.059708
_cell_angle_beta   89.964317
_cell_angle_gamma 120.01655
loop_
_atom_site_label
_atom_site_type_symbol
_atom_site_fract_x
_atom_site_fract_y
_atom_site_fract_z
_atom_type_partial_charge
Dy0 Dy 1.01897 0.24667 0.4679 0.0
Dy1 Dy 0.0638 0.26845 0.59525 0.0
C2 C 0.08502 0.23863 0.48194 0.0
O3 O 1.00302 0.19901 0.51807 0.0
O4 O 1.01438 0.2206 0.61865 0.0
O5 O 0.99703 0.21394 0.38699 0.0
O6 O 0.99007 0.25636 0.39887 0.0
O7 O 1.03322 0.29281 0.59534 0.0
O8 O 0.98752 0.25103 0.54954 0.0
O9 O 0.09629 0.30502 0.51597 0.0
O10 O 0.05222 0.30115 0.46018 0.0
O11 O 0.08974 0.30574 0.66848 0.0
O12 O 0.08636 0.25773 0.67513 0.0
C13 C 0.99793 0.19502 0.57949 0.0
O14 O 0.06801 0.24741 0.44334 0.0
O15 O 0.08069 0.2379 0.54358 0.0
C16 C 0.99651 0.24177 0.29372 0.0
C17 C 1.01662 0.25542 0.16459 0.0
C18 C 0.03845 0.27474 0.21387 0.0
C19 C 1.02853 0.26788 0.27784 0.0
C20 C 0.9744 0.22305 0.24482 0.0
C21 C 0.98431 0.22979 0.18096 0.0
C22 C 0.98663 0.23258 0.36084 0.0
C23 C 1.00082 0.27477 0.59336 0.0
C24 C 0.08432 0.31591 0.47012 0.0
C25 C 0.08248 0.28215 0.77128 0.0
C26 C 0.06053 0.27535 0.89946 0.0
C27 C 0.03938 0.25369 0.85173 0.0
C28 C 0.05027 0.25697 0.78854 0.0
C29 C 0.10347 0.30426 0.81824 0.0
C30 C 0.09265 0.3009 0.88171 0.0
C31 C 0.09414 0.28543 0.7046 0.0
H32 H 0.06358 0.29446 0.20318 0.0
H33 H 0.04608 0.28251 0.31495 0.0
H34 H 0.94961 0.2028 0.25608 0.0
H35 H 0.96667 0.21474 0.14433 0.0
H36 H 1.01426 0.23418 0.86307 0.0
H37 H 0.03343 0.23982 0.75302 0.0
H38 H 0.12838 0.32394 0.80596 0.0
H39 H 0.10976 0.31789 0.91705 0.0
Dy40 Dy 0.82214 0.78821 0.46563 0.0
Dy41 Dy 0.79883 0.8091 0.59398 0.0
C42 C 0.82926 0.86133 0.48303 0.0
O43 O 0.86973 0.81847 0.5174 0.0
O44 O 0.84758 0.80912 0.61788 0.0
O45 O 0.85462 0.79974 0.38403 0.0
O46 O 0.81137 0.75067 0.39328 0.0
O47 O 0.77851 0.75476 0.60183 0.0
O48 O 0.81885 0.75187 0.54438 0.0
O49 O 0.76298 0.80459 0.51242 0.0
O50 O 0.76707 0.76305 0.46664 0.0
O51 O 0.75961 0.79925 0.66174 0.0
O52 O 0.80943 0.84081 0.6765 0.0
C53 C 0.87335 0.81785 0.57907 0.0
O54 O 0.82037 0.83598 0.44337 0.0
O55 O 0.83023 0.85708 0.5444 0.0
C56 C 0.82573 0.77318 0.2892 0.0
C57 C 0.8078 0.77628 0.16129 0.0
C58 C 0.81146 0.80053 0.20601 0.0
C59 C 0.82043 0.79906 0.26912 0.0
C60 C 0.82167 0.74868 0.24509 0.0
C61 C 0.81289 0.75024 0.18174 0.0
C62 C 0.83524 0.77143 0.35586 0.0
C63 C 0.79624 0.74056 0.59079 0.0
C64 C 0.75253 0.78082 0.46869 0.0
C65 C 0.77947 0.81191 0.76795 0.0
C66 C 0.78348 0.79539 0.89638 0.0
C67 C 0.78423 0.77565 0.84598 0.0
C68 C 0.78234 0.78389 0.78245 0.0
C69 C 0.778 0.83123 0.81784 0.0
C70 C 0.77996 0.82309 0.88134 0.0
C71 C 0.7799 0.82224 0.70124 0.0
H72 H 0.80809 0.82111 0.19193 0.0
H73 H 0.82318 0.81818 0.30229 0.0
H74 H 0.8254 0.72835 0.25959 0.0
H75 H 0.8099 0.73093 0.14885 0.0
H76 H 0.78644 0.7539 0.85551 0.0
H77 H 0.7836 0.76866 0.74461 0.0
H78 H 0.77604 0.85308 0.80765 0.0
H79 H 0.77979 0.83919 0.91854 0.0
Dy80 Dy 0.28189 0.0511 0.46835 0.0
Dy81 Dy 0.25991 1.00716 0.59674 0.0
C82 C 0.20799 0.98577 0.48518 0.0
O83 O 0.25156 0.06864 0.51898 0.0
O84 O 0.26037 0.05604 0.61993 0.0
O85 O 0.27121 0.07241 0.38648 0.0
O86 O 0.31997 0.07728 0.39641 0.0
O87 O 0.31455 0.04059 0.60486 0.0
O88 O 0.31819 0.08396 0.54757 0.0
O89 O 0.26376 0.97536 0.51548 0.0
O90 O 0.30622 1.02054 0.4704 0.0
O91 O 0.26886 0.97729 0.66438 0.0
O92 O 0.22806 0.98675 0.67942 0.0
C93 C 0.25195 0.07304 0.58057 0.0
O94 O 0.23362 1.00189 0.44578 0.0
O95 O 0.21209 0.99121 0.54652 0.0
C96 C 0.29777 0.06954 0.29207 0.0
C97 C 0.29439 0.04848 0.16411 0.0
C98 C 0.26985 0.02811 0.20869 0.0
C99 C 0.27147 0.03856 0.27183 0.0
C100 C 0.32257 0.08973 0.24812 0.0
C101 C 0.32088 0.07938 0.18474 0.0
C102 C 0.29959 0.08085 0.3587 0.0
C103 C 0.32916 0.07249 0.59411 0.0
C104 C 0.28776 0.98831 0.47205 0.0
C105 C 0.25676 0.98498 0.77064 0.0
C106 C 0.27404 1.00529 0.89903 0.0
C107 C 0.29394 0.02558 0.84857 0.0
C108 C 0.28533 1.01556 0.78507 0.0
C109 C 0.23726 0.96437 0.82057 0.0
C110 C 0.24577 0.97438 0.88406 0.0
C111 C 0.24611 0.97519 0.70399 0.0
H112 H 0.24893 1.00434 0.19447 0.0
H113 H 0.2521 0.02238 0.30489 0.0
H114 H 0.34322 0.11361 0.26276 0.0
H115 H 0.34041 0.09552 0.15195 0.0
H116 H 0.31611 0.04931 0.85806 0.0
H117 H 0.30071 0.0319 0.74718 0.0
H118 H 0.215 0.94079 0.81044 0.0
H119 H 0.22954 0.95828 0.92132 0.0
Dy120 Dy 1.01901 0.78925 0.46726 0.0
Dy121 Dy 0.06228 0.81007 0.59626 0.0
C122 C 0.08328 0.78367 0.47078 0.0
O123 O 0.98648 0.75213 0.54574 0.0
O124 O 1.03041 0.75536 0.60022 0.0
O125 O 0.98928 0.75129 0.39785 0.0
O126 O 0.99965 0.80174 0.38454 0.0
O127 O 1.01275 0.80857 0.61902 0.0
O128 O 1.00223 0.82003 0.51875 0.0
O129 O 0.0797 0.85814 0.54664 0.0
O130 O 0.06857 0.8372 0.44545 0.0
O131 O 0.08241 0.84132 0.67947 0.0
O132 O 0.09089 0.79998 0.66547 0.0
C133 C 0.99835 0.74057 0.59034 0.0
O134 O 0.05129 0.76683 0.45975 0.0
O135 O 0.09495 0.80623 0.51702 0.0
C136 C 0.99873 0.77214 0.29271 0.0
C137 C 1.02013 0.77514 0.16524 0.0
C138 C 0.0427 0.78312 0.21626 0.0
C139 C 1.0321 0.78165 0.27931 0.0
C140 C 0.97597 0.76347 0.24232 0.0
C141 C 0.98652 0.76489 0.1792 0.0
C142 C 0.98793 0.77241 0.35877 0.0
C143 C 0.99659 0.81817 0.58006 0.0
C144 C 0.08504 0.86246 0.48529 0.0
C145 C 0.08249 0.81196 0.77107 0.0
C146 C 0.06276 0.79495 0.89969 0.0
C147 C 0.03884 0.78821 0.85177 0.0
C148 C 0.0486 0.79657 0.78814 0.0
C149 C 0.10632 0.81777 0.81809 0.0
C150 C 0.09659 0.80931 0.88173 0.0
C151 C 0.09315 0.82276 0.70484 0.0
H152 H 0.06863 0.79065 0.20748 0.0
H153 H 0.05002 0.78835 0.31766 0.0
H154 H 0.95013 0.75616 0.25171 0.0
H155 H 0.96853 0.75893 0.14124 0.0
H156 H 1.01264 0.77745 0.86359 0.0
H157 H 1.02975 0.79164 0.75242 0.0
H158 H 0.13255 0.82927 0.80575 0.0
H159 H 0.11564 0.81425 0.91694 0.0
Dy160 Dy 0.28244 0.24755 0.46753 0.0
Dy161 Dy 0.25922 0.2689 0.59573 0.0
C162 C 0.28494 0.31607 0.4701 0.0
O163 O 0.31819 0.25199 0.54922 0.0
O164 O 0.31429 0.29381 0.59401 0.0
O165 O 0.32162 0.25733 0.39973 0.0
O166 O 0.27178 0.21581 0.38502 0.0
O167 O 0.26085 0.22115 0.61852 0.0
O168 O 0.25112 0.19971 0.5177 0.0
O169 O 0.21156 0.23857 0.54415 0.0
O170 O 0.23364 0.24736 0.44358 0.0
O171 O 0.22694 0.25775 0.67753 0.0
O172 O 0.27036 0.30667 0.66778 0.0
C173 C 0.32863 0.27584 0.59276 0.0
O174 O 0.30276 0.3019 0.45961 0.0
O175 O 0.26234 0.3049 0.5165 0.0
C176 C 0.30172 0.24475 0.29351 0.0
C177 C 0.29779 0.26142 0.16508 0.0
C178 C 0.29686 0.281 0.21558 0.0
C179 C 0.29871 0.2727 0.27909 0.0
C180 C 0.30335 0.22556 0.24353 0.0
C181 C 0.30143 0.23378 0.18004 0.0
C182 C 0.3013 0.23437 0.36022 0.0
C183 C 0.25199 0.19569 0.57919 0.0
C184 C 0.2079 0.23883 0.4824 0.0
C185 C 0.25615 0.28436 0.77206 0.0
C186 C 0.27399 0.28107 0.90002 0.0
C187 C 0.27077 0.25712 0.85496 0.0
C188 C 0.26187 0.25869 0.79183 0.0
C189 C 0.25984 0.3086 0.81647 0.0
C190 C 0.26857 0.30695 0.87982 0.0
C191 C 0.24653 0.28609 0.70546 0.0
H192 H 0.29455 0.30271 0.20614 0.0
H193 H 0.29734 0.28784 0.31699 0.0
H194 H 0.30542 0.20376 0.25362 0.0
H195 H 0.30175 0.21778 0.14276 0.0
H196 H 0.2744 0.23666 0.86878 0.0
H197 H 0.25943 0.23978 0.75841 0.0
H198 H 0.25582 0.32877 0.80221 0.0
H199 H 0.27125 0.32606 0.91293 0.0
Dy200 Dy 0.82413 0.05132 0.4641 0.0
Dy201 Dy 0.80019 1.00714 0.59191 0.0
C202 C 0.75405 0.99014 0.46678 0.0
O203 O 0.82146 0.08475 0.54281 0.0
O204 O 0.78087 0.04205 0.60059 0.0
O205 O 0.81344 0.07795 0.39146 0.0
O206 O 0.85692 0.07234 0.38302 0.0
O207 O 0.84915 0.05537 0.61659 0.0
O208 O 0.87155 0.06811 0.51628 0.0
O209 O 0.83187 0.99068 0.54273 0.0
O210 O 0.82163 1.00141 0.44181 0.0
O211 O 0.81002 0.98455 0.67288 0.0
O212 O 0.76099 0.9788 0.66028 0.0
C213 C 0.79896 0.07387 0.58938 0.0
O214 O 0.76904 0.02245 0.46559 0.0
O215 O 0.76413 0.97634 0.51014 0.0
C216 C 0.82812 0.0694 0.28807 0.0
C217 C 0.81183 0.04752 0.16021 0.0
C218 C 0.81162 0.02604 0.20783 0.0
C219 C 0.81974 0.03687 0.27091 0.0
C220 C 0.82752 0.09069 0.2413 0.0
C221 C 0.81946 0.07988 0.17797 0.0
C222 C 0.8375 0.08113 0.35443 0.0
C223 C 0.87504 0.0723 0.578 0.0
C224 C 0.83054 0.985 0.48152 0.0
C225 C 0.78138 0.98433 0.76573 0.0
C226 C 0.78766 1.00413 0.895 0.0
C227 C 0.7902 0.02598 0.84592 0.0
C228 C 0.7872 1.01619 0.7819 0.0
C229 C 0.77795 0.96219 0.8144 0.0
C230 C 0.78101 0.97194 0.87834 0.0
C231 C 0.78086 0.97467 0.69852 0.0
H232 H 0.80515 1.00074 0.19641 0.0
H233 H 0.81952 1.0198 0.30635 0.0
H234 H 0.8337 0.11582 0.25359 0.0
H235 H 0.82007 0.09718 0.14267 0.0
H236 H 0.7956 0.05101 0.85679 0.0
H237 H 0.79011 0.03371 0.74493 0.0
H238 H 0.77347 0.93751 0.80292 0.0
H239 H 0.77837 0.95427 0.9148 0.0
Dy240 Dy 0.68452 0.57834 0.79772 0.0
Dy241 Dy 0.72906 0.6015 0.92548 0.0
C242 C 0.75066 0.57114 0.8141 0.0
O243 O 0.66746 0.53097 0.84954 0.0
O244 O 0.68031 0.55307 0.94998 0.0
O245 O 0.66239 0.5452 0.71754 0.0
O246 O 0.65845 0.58954 0.72451 0.0
O247 O 0.69495 0.6218 0.93437 0.0
O248 O 0.65156 0.58192 0.87665 0.0
O249 O 0.76025 0.63744 0.84407 0.0
O250 O 0.71442 0.63321 0.79806 0.0
O251 O 0.75797 0.6402 0.99421 0.0
O252 O 0.75132 0.59097 1.00622 0.0
C253 C 0.66324 0.52737 0.91123 0.0
O254 O 0.73424 0.58023 0.77476 0.0
O255 O 0.74522 0.56985 0.87541 0.0
C256 C 0.66623 0.57361 0.62163 0.0
C257 C 0.68838 0.58914 0.4937 0.0
C258 C 0.70897 0.58712 0.54085 0.0
C259 C 0.698 0.57934 0.60392 0.0
C260 C 0.64584 0.57628 0.57529 0.0
C261 C 0.65676 0.58395 0.51194 0.0
C262 C 0.65444 0.56502 0.68818 0.0
C263 C 0.66296 0.60436 0.92324 0.0
C264 C 0.74683 0.64783 0.80041 0.0
C265 C 0.75209 0.61954 0.09947 0.0
C266 C 0.73228 0.61328 0.22875 0.0
C267 C 0.7109 0.61225 0.17987 0.0
C268 C 0.72066 0.6152 0.11583 0.0
C269 C 0.7738 0.62148 0.148 0.0
C270 C 0.76404 0.61841 0.21194 0.0
C271 C 0.76168 0.62004 0.0322 0.0
H272 H 0.73373 0.59166 0.52912 0.0
H273 H 0.71443 0.5779 0.63898 0.0
H274 H 0.62131 0.57212 0.58796 0.0
H275 H 0.6401 0.58506 0.47702 0.0
H276 H 0.68619 0.60805 0.19093 0.0
H277 H 0.70342 0.61341 0.079 0.0
H278 H 0.79812 0.62479 0.13638 0.0
H279 H 0.78133 0.61982 0.24829 0.0
Dy280 Dy 0.48992 0.12041 0.80198 0.0
Dy281 Dy 0.46794 0.14279 0.92996 0.0
C282 C 0.49825 0.19402 0.81778 0.0
O283 O 0.53782 0.15049 0.853 0.0
O284 O 0.51617 0.14182 0.95377 0.0
O285 O 0.5229 0.13061 0.72168 0.0
O286 O 0.47756 0.083 0.7286 0.0
O287 O 0.44698 0.08846 0.94 0.0
O288 O 0.48593 0.08387 0.88087 0.0
O289 O 0.43182 0.13822 0.8489 0.0
O290 O 0.43488 0.09595 0.8039 0.0
O291 O 0.4294 0.13406 0.99855 0.0
O292 O 0.47943 0.17572 1.01075 0.0
C293 C 0.54168 0.14999 0.91461 0.0
O294 O 0.48855 0.16829 0.77881 0.0
O295 O 0.50005 0.19019 0.87906 0.0
C296 C 0.49399 0.10654 0.62577 0.0
C297 C 0.47883 0.11367 0.49793 0.0
C298 C 0.48165 0.13654 0.54514 0.0
C299 C 0.48925 0.13308 0.60817 0.0
C300 C 0.4905 0.08322 0.57937 0.0
C301 C 0.48302 0.08673 0.51605 0.0
C302 C 0.50241 0.10306 0.69227 0.0
C303 C 0.46381 0.0734 0.92814 0.0
C304 C 0.42079 0.11415 0.80575 0.0
C305 C 0.45022 0.1484 0.10385 0.0
C306 C 0.45578 0.13443 0.23308 0.0
C307 C 0.45623 0.11385 0.18415 0.0
C308 C 0.45362 0.12087 0.12012 0.0
C309 C 0.44884 0.16841 0.15244 0.0
C310 C 0.45157 0.16151 0.21637 0.0
C311 C 0.4501 0.15764 0.03662 0.0
H312 H 0.47788 0.15716 0.53349 0.0
H313 H 0.49133 0.15117 0.64328 0.0
H314 H 0.49389 0.06245 0.59196 0.0
H315 H 0.48128 0.06875 0.48108 0.0
H316 H 0.45971 0.09298 0.19515 0.0
H317 H 0.45496 0.10522 0.08324 0.0
H318 H 0.44625 0.18977 0.14088 0.0
H319 H 0.45062 0.17758 0.25278 0.0
Dy320 Dy 0.94629 0.38198 0.80143 0.0
Dy321 Dy 0.92318 0.33759 0.92895 0.0
C322 C 0.87216 0.31602 0.81532 0.0
O323 O 0.9141 0.39764 0.85128 0.0
O324 O 0.92483 0.38699 0.95187 0.0
O325 O 0.93552 0.40395 0.72064 0.0
O326 O 0.98505 0.41087 0.73264 0.0
O327 O 0.97824 0.36778 0.92883 0.0
O328 O 0.98216 0.41332 0.88304 0.0
O329 O 0.92725 0.30495 0.85004 0.0
O330 O 0.96724 0.34847 0.79295 0.0
O331 O 0.93434 0.31155 1.00213 0.0
O332 O 0.88995 0.31567 1.00919 0.0
C333 C 0.91547 0.40316 0.91256 0.0
O334 O 0.89801 0.33308 0.77676 0.0
O335 O 0.87565 0.32044 0.87697 0.0
C336 C 0.96419 0.40469 0.62746 0.0
C337 C 0.95803 0.38495 0.49818 0.0
C338 C 0.95501 0.36292 0.54729 0.0
C339 C 0.95793 0.37267 0.61133 0.0
C340 C 0.9681 0.42699 0.57875 0.0
C341 C 0.96509 0.41727 0.5148 0.0
C342 C 0.9647 0.41438 0.69464 0.0
C343 C 0.99264 0.40006 0.92686 0.0
C344 C 0.94991 0.31656 0.80372 0.0
C345 C 0.9184 0.31932 0.10502 0.0
C346 C 0.93396 0.34135 0.23301 0.0
C347 C 0.93392 0.3626 0.18514 0.0
C348 C 0.92611 0.35168 0.12203 0.0
C349 C 0.91903 0.2982 0.15211 0.0
C350 C 0.9267 0.30907 0.21549 0.0
C351 C 0.90975 0.3076 0.03847 0.0
H352 H 0.9493 0.33779 0.53639 0.0
H353 H 0.9546 0.35499 0.64831 0.0
H354 H 0.97293 0.4518 0.59021 0.0
H355 H 0.96808 0.43504 0.4783 0.0
H356 H 0.94006 0.38783 0.19633 0.0
H357 H 0.92618 0.36859 0.0864 0.0
H358 H 0.91326 0.27317 0.14 0.0
H359 H 0.9262 0.29188 0.25095 0.0
Dy360 Dy 0.68488 0.11802 0.80052 0.0
Dy361 Dy 0.73035 0.14104 0.92787 0.0
C362 C 0.75048 0.11564 0.80134 0.0
O363 O 0.65324 0.08277 0.88219 0.0
O364 O 0.69897 0.08623 0.92724 0.0
O365 O 0.65847 0.07922 0.73003 0.0
O366 O 0.66162 0.12706 0.71969 0.0
O367 O 0.68141 0.14062 0.95202 0.0
O368 O 0.6676 0.14852 0.85131 0.0
O369 O 0.74713 0.1887 0.87734 0.0
O370 O 0.73309 0.16708 0.77646 0.0
O371 O 0.75272 0.17295 1.00953 0.0
O372 O 0.75704 0.12895 0.99828 0.0
C373 C 0.66659 0.07239 0.92602 0.0
O374 O 0.71818 0.0966 0.79792 0.0
O375 O 0.76288 0.13882 0.84636 0.0
C376 C 0.66528 0.10083 0.62529 0.0
C377 C 0.6866 0.10418 0.49729 0.0
C378 C 0.7039 0.13132 0.53902 0.0
C379 C 0.69339 0.12968 0.60212 0.0
C380 C 0.64813 0.07353 0.58417 0.0
C381 C 0.65862 0.07516 0.52085 0.0
C382 C 0.65402 0.09893 0.69214 0.0
C383 C 0.66395 0.14871 0.91309 0.0
C384 C 0.75044 0.19259 0.81552 0.0
C385 C 0.74934 0.14286 0.10322 0.0
C386 C 0.72792 0.12453 0.23099 0.0
C387 C 0.70952 0.13267 0.18848 0.0
C388 C 0.72007 0.14167 0.12545 0.0
C389 C 0.7675 0.13423 0.14499 0.0
C390 C 0.75695 0.12519 0.20821 0.0
C391 C 0.76082 0.15269 0.03668 0.0
H392 H 0.72524 0.15424 0.52263 0.0
H393 H 0.70733 0.15106 0.6328 0.0
H394 H 0.62655 0.05091 0.60104 0.0
H395 H 0.64492 0.0536 0.49048 0.0
H396 H 0.68731 0.13287 0.20422 0.0
H397 H 0.70532 0.14783 0.09414 0.0
H398 H 0.78995 0.1346 0.12878 0.0
H399 H 0.77149 0.11861 0.23914 0.0
Dy400 Dy 0.94697 0.5773 0.79643 0.0
Dy401 Dy 0.92618 0.60094 0.92437 0.0
C402 C 0.95552 0.64704 0.79958 0.0
O403 O 0.98299 0.57981 0.87529 0.0
O404 O 0.98052 0.6201 0.93336 0.0
O405 O 0.98457 0.58825 0.72387 0.0
O406 O 0.93555 0.54481 0.71506 0.0
O407 O 0.9254 0.55206 0.94879 0.0
O408 O 0.91638 0.52996 0.84826 0.0
O409 O 0.87808 0.56953 0.87475 0.0
O410 O 0.89936 0.57966 0.77393 0.0
O411 O 0.89362 0.59103 1.0054 0.0
O412 O 0.93679 0.63996 0.9928 0.0
C413 C 0.99441 0.60211 0.9221 0.0
O414 O 0.97303 0.63218 0.79861 0.0
O415 O 0.93145 0.63691 0.84274 0.0
C416 C 0.96146 0.57375 0.62036 0.0
C417 C 0.95567 0.58999 0.49262 0.0
C418 C 0.93469 0.59068 0.54061 0.0
C419 C 0.9375 0.58258 0.60362 0.0
C420 C 0.98307 0.57388 0.57323 0.0
C421 C 0.98023 0.58192 0.50996 0.0
C422 C 0.96382 0.56431 0.68662 0.0
C423 C 0.91669 0.52636 0.91001 0.0
C424 C 0.87388 0.57077 0.81346 0.0
C425 C 0.92203 0.61963 0.09825 0.0
C426 C 0.93582 0.61363 0.22748 0.0
C427 C 0.95491 0.61067 0.17824 0.0
C428 C 0.948 0.61355 0.11426 0.0
C429 C 0.90352 0.62346 0.14706 0.0
C430 C 0.91035 0.62054 0.21098 0.0
C431 C 0.9128 0.6201 0.03108 0.0
H432 H 0.91601 0.59748 0.52952 0.0
H433 H 0.92086 0.58314 0.63935 0.0
H434 H 1.00187 0.56735 0.58518 0.0
H435 H 0.99669 0.58093 0.47439 0.0
H436 H 0.97449 0.60507 0.18898 0.0
H437 H 0.96246 0.61035 0.07719 0.0
H438 H 0.88338 0.62816 0.13571 0.0
H439 H 0.89549 0.62351 0.24753 0.0
Dy440 Dy 0.48866 0.38182 0.80237 0.0
Dy441 Dy 0.46733 0.33798 0.93068 0.0
C442 C 0.4195 0.31686 0.80587 0.0
O443 O 0.48453 0.41366 0.88317 0.0
O444 O 0.44311 0.36866 0.93177 0.0
O445 O 0.47918 0.41106 0.73413 0.0
O446 O 0.52037 0.40219 0.71951 0.0
O447 O 0.51536 0.38742 0.95329 0.0
O448 O 0.53672 0.39864 0.85242 0.0
O449 O 0.49805 0.32101 0.87962 0.0
O450 O 0.48818 0.33292 0.77902 0.0
O451 O 0.4785 0.31678 1.01208 0.0
O452 O 0.42933 0.31095 1.0023 0.0
C453 C 0.46105 0.4009 0.92773 0.0
O454 O 0.43394 0.34881 0.79598 0.0
O455 O 0.43087 0.30527 0.85144 0.0
C456 C 0.49146 0.40327 0.62804 0.0
C457 C 0.47432 0.38262 0.49977 0.0
C458 C 0.45439 0.36244 0.5503 0.0
C459 C 0.46293 0.37262 0.61376 0.0
C460 C 0.51103 0.42372 0.57802 0.0
C461 C 0.50259 0.41356 0.51461 0.0
C462 C 0.50203 0.41332 0.69463 0.0
C463 C 0.54086 0.40393 0.91379 0.0
C464 C 0.49716 0.31627 0.81808 0.0
C465 C 0.45155 0.31882 0.10662 0.0
C466 C 0.45444 0.33953 0.23471 0.0
C467 C 0.47919 0.35997 0.19055 0.0
C468 C 0.47783 0.3497 0.12736 0.0
C469 C 0.42653 0.29853 0.15016 0.0
C470 C 0.42799 0.30871 0.21362 0.0
C471 C 0.44998 0.30776 0.03988 0.0
H472 H 0.43222 0.33868 0.54091 0.0
H473 H 0.4475 0.35639 0.65173 0.0
H474 H 0.53328 0.44733 0.58805 0.0
H475 H 0.51887 0.42956 0.47729 0.0
H476 H 0.5001 0.38367 0.20515 0.0
H477 H 0.49737 0.36595 0.09467 0.0
H478 H 0.40589 0.27474 0.13512 0.0
H479 H 0.40829 0.29252 0.2461 0.0
Dy480 Dy 0.34889 0.91144 0.13385 0.0
Dy481 Dy 0.39299 0.93409 0.26221 0.0
C482 C 0.4147 0.9036 0.15108 0.0
O483 O 0.33143 0.86384 0.185 0.0
O484 O 0.34391 0.8857 0.28565 0.0
O485 O 0.32767 0.87928 0.05209 0.0
O486 O 0.32193 0.92249 0.06228 0.0
O487 O 0.35988 0.9556 0.26864 0.0
O488 O 0.31611 0.91514 0.21309 0.0
O489 O 0.42502 0.96975 0.18117 0.0
O490 O 0.37984 0.96626 0.13339 0.0
O491 O 0.42246 0.97291 0.33032 0.0
O492 O 0.41353 0.923 0.34505 0.0
C493 C 0.32696 0.86009 0.24661 0.0
O494 O 0.39831 0.91262 0.11146 0.0
O495 O 0.40941 0.90259 0.21244 0.0
C496 C 0.32997 0.90841 0.95782 0.0
C497 C 0.35092 0.92638 0.82988 0.0
C498 C 0.37136 0.92208 0.87406 0.0
C499 C 0.36097 0.91311 0.93718 0.0
C500 C 0.3097 0.91316 0.91427 0.0
C501 C 0.31999 0.92196 0.85089 0.0
C502 C 0.31874 0.89878 1.02445 0.0
C503 C 0.32781 0.93806 0.25873 0.0
C504 C 0.4122 0.98041 0.13678 0.0
C505 C 0.41478 0.95306 0.43649 0.0
C506 C 0.39419 0.94964 0.56483 0.0
C507 C 0.37397 0.94944 0.51436 0.0
C508 C 0.38413 0.95105 0.45087 0.0
C509 C 0.43528 0.9539 0.48645 0.0
C510 C 0.42514 0.95222 0.5499 0.0
C511 C 0.42476 0.95246 0.36985 0.0
H512 H 0.39514 0.92493 0.85954 0.0
H513 H 0.37722 0.90984 0.96991 0.0
H514 H 0.28581 0.90995 0.92923 0.0
H515 H 0.30381 0.92547 0.81842 0.0
H516 H 0.35021 0.94792 0.52383 0.0
H517 H 0.36786 0.95029 0.41296 0.0
H518 H 0.4589 0.95519 0.47636 0.0
H519 H 0.44118 0.95191 0.58716 0.0
Dy520 Dy 0.15487 0.45473 0.13431 0.0
Dy521 Dy 0.13368 0.47808 0.26177 0.0
C522 C 0.16317 0.52884 0.14813 0.0
O523 O 0.20288 0.48649 0.18394 0.0
O524 O 0.18144 0.47603 0.28455 0.0
O525 O 0.18756 0.46515 0.05334 0.0
O526 O 0.14477 0.41596 0.06554 0.0
O527 O 0.10821 0.42322 0.26053 0.0
O528 O 0.15001 0.4189 0.21614 0.0
O529 O 0.09689 0.47417 0.18295 0.0
O530 O 0.10032 0.43413 0.12596 0.0
O531 O 0.09636 0.46723 0.33485 0.0
O532 O 0.14522 0.51094 0.3426 0.0
C533 C 0.20703 0.48514 0.24521 0.0
O534 O 0.15445 0.50304 0.10962 0.0
O535 O 0.16396 0.52541 0.2098 0.0
C536 C 0.15936 0.43662 0.96031 0.0
C537 C 0.14559 0.44255 0.83103 0.0
C538 C 0.12798 0.44772 0.88036 0.0
C539 C 0.13489 0.44489 0.94437 0.0
C540 C 0.17632 0.43057 0.91145 0.0
C541 C 0.16951 0.43347 0.8475 0.0
C542 C 0.16867 0.43609 1.0274 0.0
C543 C 0.126 0.40866 0.25955 0.0
C544 C 0.08574 0.4515 0.13672 0.0
C545 C 0.1199 0.48247 0.43797 0.0
C546 C 0.12612 0.46659 0.56581 0.0
C547 C 0.14597 0.46442 0.51715 0.0
C548 C 0.14299 0.4724 0.4541 0.0
C549 C 0.09955 0.48404 0.48585 0.0
C550 C 0.10261 0.47621 0.54914 0.0
C551 C 0.11713 0.49145 0.37156 0.0
H552 H 0.10962 0.45503 0.86962 0.0
H553 H 0.12163 0.44984 0.98147 0.0
H554 H 0.19527 0.42414 0.92276 0.0
H555 H 0.18317 0.42877 0.81088 0.0
H556 H 0.16384 0.45646 0.52768 0.0
H557 H 0.15875 0.47067 0.41784 0.0
H558 H 0.08152 0.49169 0.47443 0.0
H559 H 0.0871 0.47848 0.58521 0.0
Dy560 Dy 0.6139 0.71686 0.13079 0.0
Dy561 Dy 0.59269 0.6727 0.25905 0.0
C562 C 0.54047 0.65081 0.14758 0.0
O563 O 0.58323 0.73378 0.18226 0.0
O564 O 0.5926 0.72123 0.28282 0.0
O565 O 0.60267 0.73793 0.04924 0.0
O566 O 0.65186 0.7438 0.05904 0.0
O567 O 0.64731 0.70654 0.26626 0.0
O568 O 0.65008 0.7498 0.21007 0.0
O569 O 0.59702 0.64124 0.17772 0.0
O570 O 0.63862 0.68664 0.13093 0.0
O571 O 0.60255 0.64359 0.327 0.0
O572 O 0.56093 0.65181 0.34169 0.0
C573 C 0.58377 0.73806 0.24393 0.0
O574 O 0.56594 0.66743 0.1081 0.0
O575 O 0.54461 0.65586 0.20903 0.0
C576 C 0.62957 0.73575 0.95471 0.0
C577 C 0.62658 0.71489 0.82667 0.0
C578 C 0.602 0.69439 0.87106 0.0
C579 C 0.60342 0.70473 0.93423 0.0
C580 C 0.65444 0.75608 0.91096 0.0
C581 C 0.65293 0.74583 0.84754 0.0
C582 C 0.63117 0.74692 1.02141 0.0
C583 C 0.66145 0.73846 0.2561 0.0
C584 C 0.62067 0.65437 0.1336 0.0
C585 C 0.58999 0.65099 0.43318 0.0
C586 C 0.60686 0.67165 0.56157 0.0
C587 C 0.62684 0.69186 0.51112 0.0
C588 C 0.61844 0.68167 0.44762 0.0
C589 C 0.57036 0.6305 0.48312 0.0
C590 C 0.57867 0.64067 0.54659 0.0
C591 C 0.57954 0.64097 0.3665 0.0
H592 H 0.58117 0.67059 0.85667 0.0
H593 H 0.58402 0.68844 0.96711 0.0
H594 H 0.67499 0.77997 0.9258 0.0
H595 H 0.67252 0.76206 0.81492 0.0
H596 H 0.64895 0.71565 0.52061 0.0
H597 H 0.63391 0.69794 0.40973 0.0
H598 H 0.54816 0.60687 0.473 0.0
H599 H 0.56236 0.62463 0.58383 0.0
Dy600 Dy 0.35157 0.45403 0.13384 0.0
Dy601 Dy 0.39599 0.47682 0.26178 0.0
C602 C 0.41786 0.45127 0.13578 0.0
O603 O 0.32037 0.4181 0.21526 0.0
O604 O 0.36617 0.42196 0.26042 0.0
O605 O 0.3223 0.41532 0.06538 0.0
O606 O 0.32936 0.46471 0.05323 0.0
O607 O 0.34632 0.47508 0.28454 0.0
O608 O 0.33581 0.48598 0.18396 0.0
O609 O 0.4133 0.52428 0.21021 0.0
O610 O 0.40039 0.50241 0.10958 0.0
O611 O 0.41821 0.50987 0.34204 0.0
O612 O 0.42168 0.46526 0.33524 0.0
C613 C 0.33377 0.4075 0.25853 0.0
O614 O 0.38594 0.43407 0.12375 0.0
O615 O 0.4291 0.47331 0.18308 0.0
C616 C 0.32811 0.43587 0.96005 0.0
C617 C 0.34769 0.44187 0.83069 0.0
C618 C 0.36891 0.44241 0.87941 0.0
C619 C 0.35927 0.43959 0.9435 0.0
C620 C 0.30654 0.43441 0.91168 0.0
C621 C 0.31619 0.43735 0.84768 0.0
C622 C 0.31872 0.43556 1.02739 0.0
C623 C 0.33014 0.48448 0.2452 0.0
C624 C 0.41755 0.52798 0.14854 0.0
C625 C 0.41399 0.48137 0.43802 0.0
C626 C 0.39166 0.46586 0.56583 0.0
C627 C 0.37137 0.46847 0.51876 0.0
C628 C 0.38244 0.47623 0.45574 0.0
C629 C 0.43407 0.47813 0.4843 0.0
C630 C 0.42306 0.47047 0.54759 0.0
C631 C 0.42587 0.48987 0.37151 0.0
H632 H 0.39344 0.44614 0.8682 0.0
H633 H 0.3764 0.441 0.9802 0.0
H634 H 0.28242 0.43159 0.92346 0.0
H635 H 0.29902 0.43633 0.81145 0.0
H636 H 0.34678 0.46438 0.53051 0.0
H637 H 0.36624 0.47811 0.42073 0.0
H638 H 0.45842 0.48182 0.47161 0.0
H639 H 0.43948 0.46892 0.58246 0.0
Dy640 Dy 0.61176 0.91148 0.13358 0.0
Dy641 Dy 0.59091 0.93372 0.26275 0.0
C642 C 0.61719 0.98107 0.13736 0.0
O643 O 0.64894 0.91614 0.21214 0.0
O644 O 0.64583 0.95676 0.26659 0.0
O645 O 0.64992 0.9197 0.06445 0.0
O646 O 0.59923 0.87968 0.05075 0.0
O647 O 0.59241 0.88585 0.28507 0.0
O648 O 0.58062 0.86398 0.18473 0.0
O649 O 0.54264 0.90312 0.21296 0.0
O650 O 0.56363 0.91289 0.11176 0.0
O651 O 0.55957 0.92245 0.34598 0.0
O652 O 0.60111 0.97225 0.33231 0.0
C653 C 0.66061 0.93955 0.25677 0.0
O654 O 0.63405 0.96605 0.12583 0.0
O655 O 0.5947 0.97015 0.18385 0.0
C656 C 0.62919 0.90824 0.95913 0.0
C657 C 0.62639 0.92651 0.83161 0.0
C658 C 0.61944 0.94188 0.88264 0.0
C659 C 0.62081 0.93281 0.94572 0.0
C660 C 0.63683 0.89334 0.90872 0.0
C661 C 0.63551 0.90241 0.84557 0.0
C662 C 0.62873 0.89724 1.02523 0.0
C663 C 0.58264 0.86016 0.24595 0.0
C664 C 0.5383 0.90411 0.15161 0.0
C665 C 0.58917 0.95173 0.43773 0.0
C666 C 0.60648 0.94909 0.56617 0.0
C667 C 0.61218 0.93115 0.51836 0.0
C668 C 0.60369 0.93252 0.45483 0.0
C669 C 0.58441 0.97049 0.48462 0.0
C670 C 0.59301 0.96925 0.54817 0.0
C671 C 0.57827 0.95166 0.3716 0.0
H672 H 0.61279 0.96084 0.87384 0.0
H673 H 0.61489 0.94464 0.98408 0.0
H674 H 0.64324 0.87425 0.91813 0.0
H675 H 0.64064 0.88977 0.8076 0.0
H676 H 0.62222 0.91516 0.53022 0.0
H677 H 0.60783 0.91804 0.41921 0.0
H678 H 0.57362 0.98578 0.47225 0.0
H679 H 0.58889 0.98394 0.58328 0.0
Dy680 Dy 0.15262 0.71594 0.13316 0.0
Dy681 Dy 0.13032 0.67078 0.2605 0.0
C682 C 0.08466 0.65051 0.13406 0.0
O683 O 0.14877 0.74746 0.21484 0.0
O684 O 0.10649 0.70185 0.25961 0.0
O685 O 0.14011 0.74229 0.06289 0.0
O686 O 0.18489 0.73901 0.05216 0.0
O687 O 0.17872 0.71974 0.28456 0.0
O688 O 0.20055 0.73332 0.18387 0.0
O689 O 0.16139 0.65402 0.20996 0.0
O690 O 0.15365 0.66787 0.1091 0.0
O691 O 0.14008 0.64875 0.34233 0.0
O692 O 0.09145 0.64409 0.33084 0.0
C693 C 0.12495 0.73411 0.25861 0.0
O694 O 0.09782 0.68269 0.13054 0.0
O695 O 0.09557 0.63825 0.17909 0.0
C696 C 0.15483 0.73544 0.95798 0.0
C697 C 0.13666 0.71421 0.83003 0.0
C698 C 0.14697 0.69716 0.87135 0.0
C699 C 0.15592 0.70762 0.93443 0.0
C700 C 0.14422 0.75234 0.91728 0.0
C701 C 0.13527 0.7419 0.85397 0.0
C702 C 0.16428 0.74664 1.02481 0.0
C703 C 0.20433 0.73717 0.24563 0.0
C704 C 0.16189 0.6506 0.14815 0.0
C705 C 0.11297 0.65195 0.43585 0.0
C706 C 0.11574 0.67323 0.56363 0.0
C707 C 0.14221 0.69181 0.52105 0.0
C708 C 0.14083 0.68133 0.45801 0.0
C709 C 0.08622 0.63362 0.47767 0.0
C710 C 0.08757 0.6441 0.54089 0.0
C711 C 0.11155 0.64051 0.36935 0.0
H712 H 0.14883 0.67605 0.85465 0.0
H713 H 0.16371 0.69386 0.96478 0.0
H714 H 0.1429 0.77369 0.93444 0.0
H715 H 0.12706 0.7554 0.82393 0.0
H716 H 0.16447 0.71411 0.53675 0.0
H717 H 0.16169 0.69621 0.42664 0.0
H718 H 0.06432 0.61108 0.4615 0.0
H719 H 0.06648 0.62941 0.57188 0.0
C720 C 0.12738 0.35963 0.31535 0.0
C721 C 0.12244 0.38725 0.31674 0.0
H722 H 0.11952 0.31519 0.36388 0.0
C723 C 0.11074 0.39355 0.3744 0.0
H724 H 0.13595 0.35361 0.27201 0.0
C725 C 0.10245 0.37237 0.42725 0.0
C726 C 0.10534 0.34372 0.42506 0.0
H727 H 0.10639 0.41434 0.37804 0.0
H728 H 0.09139 0.37718 0.46853 0.0
C729 C 0.11845 0.33787 0.36861 0.0
C730 C 0.74052 0.77095 0.35173 0.0
C731 C 0.73148 0.77811 0.41153 0.0
H732 H 0.7264 0.75444 0.25524 0.0
C733 C 0.7011 0.77819 0.41514 0.0
H734 H 0.7635 0.77035 0.34685 0.0
C735 C 0.6795 0.76888 0.36154 0.0
C736 C 0.6881 0.76008 0.30276 0.0
H737 H 0.69291 0.78296 0.46027 0.0
H738 H 0.65495 0.76606 0.36755 0.0
C739 C 0.71934 0.76214 0.29853 0.0
C740 C 0.28809 0.93867 0.41739 0.0
C741 C 0.28988 0.96985 0.41454 0.0
H742 H 0.29826 0.90356 0.36897 0.0
C743 C 0.29798 0.98641 0.35517 0.0
H744 H 0.28249 0.92535 0.46216 0.0
C745 C 0.30609 0.97364 0.30171 0.0
C746 C 0.3065 0.94368 0.30521 0.0
H747 H 0.29985 1.0105 0.3508 0.0
H748 H 0.3146 0.98862 0.25883 0.0
C749 C 0.29671 0.92596 0.36351 0.0
C750 C 0.34796 0.10321 0.69912 0.0
C751 C 0.35612 0.09398 0.64035 0.0
H752 H 0.36179 0.11746 0.79765 0.0
C753 C 0.38707 0.0954 0.63593 0.0
H754 H 0.32363 0.10092 0.70527 0.0
C755 C 0.40835 0.10399 0.68894 0.0
C756 C 0.39971 0.11158 0.74873 0.0
H757 H 0.39376 0.08734 0.59266 0.0
H758 H 0.43107 0.10292 0.68387 0.0
C759 C 0.36967 0.11231 0.75252 0.0
C760 C 0.98601 0.29498 0.76233 0.0
C761 C 0.95586 0.29518 0.75804 0.0
H762 H 1.02316 0.28846 0.71464 0.0
C763 C 0.93816 0.28489 0.69966 0.0
H764 H 1.00101 0.3039 0.80522 0.0
C765 C 0.95098 0.27579 0.64657 0.0
C766 C 0.98232 0.27768 0.65018 0.0
H767 H 0.91564 0.28629 0.69349 0.0
H768 H 0.93761 0.26967 0.60175 0.0
C769 C 0.99893 0.28645 0.70961 0.0
C770 C 0.80816 0.72174 0.69576 0.0
C771 C 0.79108 0.71363 0.63664 0.0
H772 H 0.80845 0.70754 0.794 0.0
C773 C 0.76198 0.68248 0.63137 0.0
H774 H 0.8298 0.74619 0.7026 0.0
C775 C 0.74942 0.66089 0.68385 0.0
C776 C 0.76534 0.66941 0.74396 0.0
H777 H 0.74743 0.67578 0.58783 0.0
H778 H 0.72593 0.63796 0.67813 0.0
C779 C 0.7957 0.69974 0.74861 0.0
C780 C 0.96435 0.71869 0.69186 0.0
C781 C 0.97726 0.71275 0.63524 0.0
H782 H 0.94673 0.70276 0.78829 0.0
C783 C 0.97954 0.68378 0.63238 0.0
H784 H 0.96366 0.74156 0.69696 0.0
C785 C 0.97084 0.66229 0.68482 0.0
C786 C 0.95942 0.6687 0.74272 0.0
H787 H 0.99038 0.67887 0.59086 0.0
H788 H 0.9746 0.64115 0.6807 0.0
C789 C 0.95509 0.69668 0.74474 0.0
C790 C 0.37876 0.27632 0.64792 0.0
C791 C 0.34948 0.27854 0.65032 0.0
H792 H 0.42406 0.28632 0.69652 0.0
C793 C 0.34124 0.28735 0.70928 0.0
H794 H 0.3863 0.27014 0.60349 0.0
C795 C 0.3622 0.29566 0.76268 0.0
C796 C 0.39246 0.29559 0.75958 0.0
H797 H 0.31909 0.28953 0.71341 0.0
H798 H 0.35587 0.30463 0.80518 0.0
C799 C 0.40019 0.28517 0.70174 0.0
C800 C 0.79852 0.11111 0.75041 0.0
C801 C 0.76995 0.11433 0.7449 0.0
H802 H 0.8308 0.0964 0.70406 0.0
C803 C 0.75582 0.11057 0.68362 0.0
H804 H 0.80971 0.11311 0.79671 0.0
C805 C 0.76809 0.10152 0.63052 0.0
C806 C 0.79515 0.09599 0.63656 0.0
H807 H 0.73367 0.11262 0.67749 0.0
H808 H 0.75464 0.09621 0.58581 0.0
C809 C 0.81078 0.10178 0.69693 0.0
C810 C 0.71778 0.97702 0.299 0.0
C811 C 0.68829 0.94609 0.30209 0.0
H812 H 0.76085 1.01446 0.34729 0.0
C813 C 0.68186 0.92755 0.35911 0.0
H814 H 0.72309 0.99255 0.25715 0.0
C815 C 0.70387 0.94027 0.41214 0.0
C816 C 0.73239 0.97227 0.40984 0.0
H817 H 0.6586 0.90427 0.36436 0.0
H818 H 0.69739 0.9261 0.45598 0.0
C819 C 0.73929 0.98979 0.35158 0.0
C820 C 0.11525 0.79603 0.36701 0.0
C821 C 0.10471 0.77794 0.42481 0.0
H822 H 0.13049 0.79716 0.26892 0.0
C823 C 0.10493 0.74788 0.42828 0.0
H824 H 0.11404 0.81862 0.36167 0.0
C825 C 0.11361 0.73539 0.37516 0.0
C826 C 0.12234 0.75229 0.3161 0.0
H827 H 0.09596 0.73269 0.47084 0.0
H828 H 0.11177 0.7113 0.37954 0.0
C829 C 0.12432 0.78355 0.31341 0.0
C830 C 0.33153 0.39517 0.37536 0.0
C831 C 0.31541 0.38631 0.31547 0.0
H832 H 0.33382 0.38082 0.47166 0.0
C833 C 0.28501 0.35599 0.31148 0.0
H834 H 0.35506 0.41811 0.38055 0.0
C835 C 0.2727 0.3343 0.3648 0.0
C836 C 0.28999 0.34273 0.4237 0.0
H837 H 0.27212 0.34794 0.26627 0.0
H838 H 0.25103 0.30982 0.35848 0.0
C839 C 0.31912 0.37389 0.4283 0.0
C840 C 0.04313 0.4501 0.9803 0.0
C841 C 1.01411 0.41852 0.98365 0.0
H842 H 0.08876 0.48585 1.02727 0.0
C843 C 1.00668 0.4018 0.04285 0.0
H844 H 0.05007 0.46362 0.93568 0.0
C845 C 1.02813 0.41488 0.09552 0.0
C846 C 0.05813 0.44532 0.09146 0.0
H847 H 0.9848 0.3774 0.04776 0.0
H848 H 1.0224 0.39983 0.13816 0.0
C849 C 0.06509 0.46309 0.03334 0.0
C850 C 0.63906 0.63857 0.96405 0.0
C851 C 0.64122 0.60959 0.96932 0.0
H852 H 0.63081 0.67471 1.01108 0.0
C853 C 0.63258 0.59277 1.02861 0.0
H854 H 0.64667 0.65291 0.92033 0.0
C855 C 0.62332 0.60541 0.08168 0.0
C856 C 0.62332 0.63567 0.07704 0.0
H857 H 0.63545 0.5712 0.03537 0.0
H858 H 0.61865 0.59287 0.12719 0.0
C859 C 0.63031 0.65131 1.01676 0.0
C860 C 0.42926 1.01513 0.96775 0.0
C861 C 0.45822 0.04633 0.97396 0.0
H862 H 0.39275 0.97049 1.01364 0.0
C863 C 0.47464 0.05436 0.03375 0.0
H864 H 0.4152 1.00849 0.92362 0.0
C865 C 0.46164 0.03228 0.08637 0.0
C866 C 0.43138 1.00194 0.08078 0.0
H867 H 0.4962 0.07881 0.04117 0.0
H868 H 0.47387 0.04004 0.13225 0.0
C869 C 0.41616 0.99345 1.02003 0.0
C870 C 0.66488 0.05999 0.04267 0.0
C871 C 0.64825 0.05152 0.98324 0.0
H872 H 0.66747 0.04522 0.13847 0.0
C873 C 0.61725 0.02182 0.97992 0.0
H874 H 0.68879 0.08257 0.04747 0.0
C875 C 0.60481 1.00019 0.03329 0.0
C876 C 0.62268 1.00806 0.09148 0.0
H877 H 0.60388 1.01413 0.93512 0.0
H878 H 0.58249 0.97613 1.02749 0.0
C879 C 0.65243 0.03872 0.09559 0.0
C880 C 0.07438 0.64505 1.01633 0.0
C881 C 0.06394 0.63105 0.07763 0.0
H882 H 0.06122 0.64616 0.91848 0.0
C883 C 1.03208 0.60262 0.08316 0.0
H884 H 0.09861 0.66708 1.01018 0.0
C885 C 1.01051 0.59039 1.02966 0.0
C886 C 1.02039 0.6059 0.96928 0.0
H887 H 1.02285 0.59153 0.12948 0.0
H888 H 0.98505 0.57045 0.03678 0.0
C889 C 0.05304 0.6328 0.96322 0.0
C890 C 0.44391 0.41857 0.09677 0.0
C891 C 0.43984 0.44638 0.08974 0.0
H892 H 0.45397 0.38315 0.05161 0.0
C893 C 0.44701 0.46205 1.02932 0.0
H894 H 0.43748 0.40506 0.14145 0.0
C895 C 0.4566 0.44936 0.97688 0.0
C896 C 0.4585 0.42016 0.98334 0.0
H897 H 0.44273 0.48268 1.02135 0.0
H898 H 0.45999 0.46086 0.93054 0.0
C899 C 0.45304 0.40576 0.04466 0.0
C900 C 0.11537 0.20697 0.48851 0.0
C901 C 0.11268 0.233 0.46018 0.0
H902 H 0.14734 0.18798 0.51573 0.0
C903 C 0.14064 0.2576 0.42672 0.0
H904 H 0.09459 0.18788 0.51541 0.0
C905 C 0.17134 0.25765 0.42687 0.0
C906 C 0.17459 0.2331 0.46051 0.0
H907 H 0.13981 0.2785 0.40585 0.0
H908 H 0.19319 0.27858 0.40612 0.0
C909 C 0.14573 0.20702 0.48869 0.0
C910 C 0.81155 0.9293 0.42662 0.0
C911 C 0.83569 0.95679 0.46183 0.0
H912 H 0.79068 0.87706 0.4044 0.0
C913 C 0.86097 0.95355 0.49251 0.0
H914 H 0.79125 0.93062 0.40368 0.0
C915 C 0.86063 0.92317 0.49298 0.0
C916 C 0.83501 0.89479 0.46273 0.0
H917 H 0.87976 0.97398 0.52055 0.0
H918 H 0.87916 0.92123 0.52135 0.0
C919 C 0.81122 0.89854 0.42705 0.0
C920 C 0.11575 0.92427 0.49552 0.0
C921 C 0.11291 0.89592 0.4652 0.0
H922 H 0.14765 0.975 0.52352 0.0
C923 C 0.14054 0.89967 0.4297 0.0
H924 H 0.09519 0.92231 0.52373 0.0
C925 C 0.17112 0.93037 0.42959 0.0
C926 C 0.17454 0.9578 0.46498 0.0
H927 H 0.13953 0.87822 0.40702 0.0
H928 H 0.19279 0.93166 0.40686 0.0
C929 C 0.14595 0.95461 0.49537 0.0
C930 C 0.22062 0.13378 0.57095 0.0
C931 C 0.24643 0.16242 0.60013 0.0
H932 H 0.20161 0.08287 0.54419 0.0
C933 C 0.27066 0.15908 0.63512 0.0
H934 H 0.20178 0.13544 0.54307 0.0
C935 C 0.2706 0.12848 0.63569 0.0
C936 C 0.24625 0.1007 0.60144 0.0
H937 H 0.29136 0.18079 0.65688 0.0
H938 H 0.29129 0.12754 0.65772 0.0
C939 C 0.2205 0.10351 0.57167 0.0
C940 C 0.9115 0.1276 0.63391 0.0
C941 C 0.90833 0.09991 0.59987 0.0
H942 H 0.94297 0.1799 0.65557 0.0
C943 C 0.9372 0.10281 0.57124 0.0
H944 H 0.88964 0.1266 0.65503 0.0
C945 C 0.96747 0.13311 0.57138 0.0
C946 C 0.97008 0.1617 0.60025 0.0
H947 H 0.93566 0.08225 0.54394 0.0
H948 H 0.98825 0.13487 0.54426 0.0
C949 C 0.94214 0.15824 0.63415 0.0
C950 C 0.96583 0.84943 0.57208 0.0
C951 C 0.96857 0.82351 0.60077 0.0
H952 H 0.93386 0.86842 0.54488 0.0
C953 C 0.94068 0.79905 0.63465 0.0
H954 H 0.98657 0.86847 0.54504 0.0
C955 C 0.90999 0.79903 0.63455 0.0
C956 C 0.90669 0.82349 0.60068 0.0
H957 H 0.9416 0.77829 0.65598 0.0
H958 H 0.88818 0.7782 0.6557 0.0
C959 C 0.93549 0.84942 0.57206 0.0
C960 C 0.81183 0.53998 0.82338 0.0
C961 C 0.84043 0.56544 0.79333 0.0
H962 H 0.76098 0.52139 0.85151 0.0
C963 C 0.83696 0.58953 0.75842 0.0
H964 H 0.81357 0.52123 0.85119 0.0
C965 C 0.80629 0.58962 0.7586 0.0
C966 C 0.77863 0.56563 0.79371 0.0
H967 H 0.85862 0.60996 0.73599 0.0
H968 H 0.80523 0.61012 0.73629 0.0
C969 C 0.78155 0.54007 0.82357 0.0
C970 C 0.52893 0.28606 0.82622 0.0
C971 C 0.50294 0.28866 0.79702 0.0
H972 H 0.54823 0.25447 0.85377 0.0
C973 C 0.47864 0.26082 0.76281 0.0
H974 H 0.54783 0.30675 0.8536 0.0
C975 C 0.47889 0.23036 0.76286 0.0
C976 C 0.50341 0.22722 0.79724 0.0
H977 H 0.45778 0.26158 0.74117 0.0
H978 H 0.45823 0.20859 0.74115 0.0
C979 C 0.52915 0.25595 0.82635 0.0
C980 C 0.77989 0.25448 0.82214 0.0
C981 C 0.77762 0.22598 0.79359 0.0
H982 H 0.81128 0.30548 0.84921 0.0
C983 C 0.80568 0.22969 0.75979 0.0
H984 H 0.75903 0.25251 0.84935 0.0
C985 C 0.83612 0.26051 0.75979 0.0
C986 C 0.83899 0.28814 0.79357 0.0
H987 H 0.80514 0.20809 0.73875 0.0
H988 H 0.85808 0.26171 0.73877 0.0
C989 C 0.80998 0.28498 0.82207 0.0
C990 C 0.93498 0.48961 0.96646 0.0
C991 C 0.91071 0.49308 0.93189 0.0
H992 H 0.95538 0.45783 0.98885 0.0
C993 C 0.8847 0.46446 0.90296 0.0
H994 H 0.95586 0.51128 0.98785 0.0
C995 C 0.88447 0.43413 0.90339 0.0
C996 C 0.91021 0.4312 0.93281 0.0
H997 H 0.86585 0.46622 0.87528 0.0
H998 H 0.86541 0.41351 0.8761 0.0
C999 C 0.93472 0.45891 0.96697 0.0
C1000 C 0.57742 0.45975 0.96809 0.0
C1001 C 0.57422 0.43204 0.93409 0.0
H1002 H 0.60871 0.51215 0.98885 0.0
C1003 C 0.60297 0.43506 0.9047 0.0
H1004 H 0.55562 0.4586 0.98992 0.0
C1005 C 0.63314 0.46546 0.90419 0.0
C1006 C 0.63576 0.49406 0.93302 0.0
H1007 H 0.60141 0.41446 0.87749 0.0
H1008 H 0.6538 0.46726 0.87656 0.0
C1009 C 0.60793 0.49052 0.96752 0.0
C1010 C 0.634 0.18077 0.90654 0.0
C1011 C 0.63654 0.1547 0.93504 0.0
H1012 H 0.60232 0.20018 0.87987 0.0
C1013 C 0.60863 0.13039 0.96912 0.0
H1014 H 0.65473 0.19961 0.87917 0.0
C1015 C 0.5781 0.1307 0.9695 0.0
C1016 C 0.57498 0.15533 0.93582 0.0
H1017 H 0.60938 0.10946 0.99016 0.0
H1018 H 0.55624 0.11 0.9908 0.0
C1019 C 0.60382 0.18109 0.90695 0.0
C1020 C 0.50103 0.92217 0.09578 0.0
C1021 C 0.50473 0.89845 0.1315 0.0
H1022 H 0.46901 0.94228 0.07264 0.0
C1023 C 0.47625 0.87304 0.16191 0.0
H1024 H 0.52258 0.94254 0.07301 0.0
C1025 C 0.44584 0.87286 0.16164 0.0
C1026 C 0.4427 0.89811 0.13099 0.0
H1027 H 0.47817 0.85456 0.19028 0.0
H1028 H 0.42536 0.85427 0.18986 0.0
C1029 C 0.47025 0.92201 0.09554 0.0
C1030 C 0.14352 0.5954 0.09256 0.0
C1031 C 0.168 0.62333 0.12629 0.0
H1032 H 0.12294 0.54314 0.07163 0.0
C1033 C 0.19423 0.62089 0.15477 0.0
H1034 H 0.12246 0.59607 0.07158 0.0
C1035 C 0.19453 0.5908 0.15471 0.0
C1036 C 0.16858 0.56195 0.12626 0.0
H1037 H 0.21319 0.64163 0.18193 0.0
H1038 H 0.21374 0.5894 0.1818 0.0
C1039 C 0.14381 0.56497 0.09257 0.0
C1040 C 0.47835 0.6201 0.15623 0.0
C1041 C 0.50705 0.62294 0.12697 0.0
H1042 H 0.42738 0.58815 0.18378 0.0
C1043 C 0.50367 0.59526 0.09259 0.0
H1044 H 0.48005 0.64068 0.1837 0.0
C1045 C 0.47299 0.56464 0.09268 0.0
C1046 C 0.4452 0.56125 0.12706 0.0
H1047 H 0.52542 0.59628 0.07082 0.0
H1048 H 0.47205 0.54298 0.0711 0.0
C1049 C 0.44802 0.58986 0.15623 0.0
C1050 C 0.60223 0.79324 0.29991 0.0
C1051 C 0.5779 0.76551 0.26551 0.0
H1052 H 0.62268 0.84538 0.32206 0.0
C1053 C 0.55187 0.76816 0.23666 0.0
H1054 H 0.62312 0.79242 0.32127 0.0
C1055 C 0.55165 0.79826 0.23701 0.0
C1056 C 0.57745 0.82692 0.26623 0.0
H1057 H 0.53297 0.74754 0.20914 0.0
H1058 H 0.53254 0.79982 0.20983 0.0
C1059 C 0.60199 0.82369 0.30031 0.0
C1060 C 0.27124 0.82325 0.30152 0.0
C1061 C 0.29928 0.82676 0.2679 0.0
H1062 H 0.21871 0.79149 0.32231 0.0
C1063 C 0.29675 0.79816 0.23922 0.0
H1064 H 0.27194 0.84489 0.32267 0.0
C1065 C 0.2665 0.76783 0.23896 0.0
C1066 C 0.23758 0.76487 0.26744 0.0
H1067 H 0.31759 0.79995 0.21221 0.0
H1068 H 0.26503 0.74727 0.21173 0.0
C1069 C 0.24065 0.79256 0.30131 0.0
C1070 C 0.27444 0.46607 0.3004 0.0
C1071 C 0.30217 0.49003 0.26539 0.0
H1072 H 0.2221 0.44584 0.32279 0.0
C1073 C 0.29935 0.51562 0.23545 0.0
H1074 H 0.27543 0.44555 0.32278 0.0
C1075 C 0.2691 0.51579 0.23546 0.0
C1076 C 0.24044 0.49037 0.26542 0.0
H1077 H 0.31997 0.53429 0.2076 0.0
H1078 H 0.26745 0.53457 0.2076 0.0
C1079 C 0.24381 0.46624 0.30041 0.0
C1080 C 0.04732 0.29322 0.07168 0.0
C1081 C 1.02782 0.26092 0.09664 0.0
H1082 H 0.07238 0.32322 0.99005 0.0
C1083 C 1.01934 0.23361 0.05626 0.0
H1084 H 0.05406 0.31484 0.10121 0.0
C1085 C 1.02996 0.23838 0.99277 0.0
C1086 C 0.0493 0.27062 0.96748 0.0
H1087 H 1.00497 0.20839 0.07407 0.0
H1088 H 1.02344 0.21664 0.96378 0.0
C1089 C 0.05788 0.29802 1.00789 0.0
C1090 C 0.77641 0.78879 0.07761 0.0
C1091 C 0.79975 0.77887 0.09331 0.0
H1092 H 0.75232 0.80091 1.00376 0.0
C1093 C 0.81632 0.77271 0.04349 0.0
H1094 H 0.76272 0.79315 0.11466 0.0
C1095 C 0.8105 0.77733 0.97981 0.0
C1096 C 0.78783 0.78813 0.96408 0.0
H1097 H 0.83472 0.7654 0.05375 0.0
H1098 H 0.82469 0.77351 0.94303 0.0
C1099 C 0.77048 0.79329 1.01391 0.0
C1100 C 0.28103 1.0046 0.08011 0.0
C1101 C 0.29159 0.03789 0.09607 0.0
H1102 H 0.26809 0.9684 1.00598 0.0
C1103 C 0.29811 0.06071 0.04645 0.0
H1104 H 0.27638 0.98647 0.117 0.0
C1105 C 0.29318 0.05032 0.9827 0.0
C1106 C 0.28171 1.01682 0.96674 0.0
H1107 H 0.30591 0.08645 0.05691 0.0
H1108 H 0.29727 0.06841 0.94609 0.0
C1109 C 0.27623 0.99423 1.01634 0.0
C1110 C 0.07272 0.81127 1.01565 0.0
C1111 C 0.05266 0.78853 0.96827 0.0
H1112 H 0.07817 0.82512 0.11409 0.0
C1113 C 1.02235 0.76049 0.98682 0.0
H1114 H 0.09593 0.83344 1.00328 0.0
C1115 C 1.01206 0.75577 0.05068 0.0
C1116 C 1.03184 0.77891 0.09776 0.0
H1117 H 1.00649 0.74213 0.95196 0.0
H1118 H 0.98857 0.73394 0.06318 0.0
C1119 C 0.06249 0.8065 0.07943 0.0
C1120 C 0.27082 0.27949 0.08155 0.0
C1121 C 0.29354 0.26878 0.09736 0.0
H1122 H 0.24667 0.29148 1.00756 0.0
C1123 C 0.31106 0.26382 0.04759 0.0
H1124 H 0.2565 0.28316 0.11827 0.0
C1125 C 0.30527 0.26846 0.98387 0.0
C1126 C 0.28188 0.27831 0.96806 0.0
H1127 H 0.32926 0.25626 0.0578 0.0
H1128 H 0.31912 0.26428 0.94689 0.0
C1129 C 0.26512 0.28425 1.01785 0.0
C1130 C 0.8178 1.01679 0.06686 0.0
C1131 C 0.8052 0.03641 0.09222 0.0
H1132 H 0.82261 0.99176 0.98543 0.0
C1133 C 0.78667 0.04544 0.05193 0.0
H1134 H 0.83281 1.00995 0.09583 0.0
C1135 C 0.78084 0.03498 0.9881 0.0
C1136 C 0.79335 1.01518 0.96302 0.0
H1137 H 0.77627 0.06023 0.06989 0.0
H1138 H 0.76616 0.04203 0.95863 0.0
C1139 C 0.81194 1.00632 1.00332 0.0
C1140 C 0.72825 0.58738 0.33596 0.0
C1141 C 0.72111 0.60758 0.29668 0.0
H1142 H 0.72306 0.56522 0.42757 0.0
C1143 C 0.70293 0.6217 0.32266 0.0
H1144 H 0.74156 0.57551 0.31731 0.0
C1145 C 0.69236 0.61589 0.38643 0.0
C1146 C 0.69962 0.59571 0.42574 0.0
H1147 H 0.69726 0.63763 0.29395 0.0
H1148 H 0.67891 0.62759 0.40513 0.0
C1149 C 0.71762 0.58149 0.39942 0.0
C1150 C 0.45166 0.09142 0.3906 0.0
C1151 C 0.47251 0.11859 0.43 0.0
H1152 H 0.42966 0.07501 0.29805 0.0
C1153 C 0.48766 0.15081 0.4038 0.0
H1154 H 0.43924 0.06628 0.40921 0.0
C1155 C 0.48202 0.15579 0.34036 0.0
C1156 C 0.46117 0.12871 0.30099 0.0
H1157 H 0.50446 0.17231 0.43201 0.0
H1158 H 0.49461 0.18094 0.32178 0.0
C1159 C 0.44611 0.09642 0.32685 0.0
C1160 C 0.92811 0.37238 0.32614 0.0
C1161 C 0.94061 0.35262 0.30096 0.0
H1162 H 0.92341 0.39759 0.40743 0.0
C1163 C 0.95909 0.3436 0.34142 0.0
H1164 H 0.91316 0.37925 0.29708 0.0
C1165 C 0.96488 0.35409 0.40522 0.0
C1166 C 0.95244 0.37395 0.43013 0.0
H1167 H 0.96948 0.32877 0.32362 0.0
H1168 H 0.97948 0.34698 0.43482 0.0
C1169 C 0.93398 0.38291 0.38966 0.0
C1170 C 0.68334 0.09845 0.3159 0.0
C1171 C 0.7174 0.1167 0.2992 0.0
H1172 H 0.64693 0.08037 0.39072 0.0
C1173 C 0.74126 0.12881 0.34846 0.0
H1174 H 0.66423 0.0882 0.2794 0.0
C1175 C 0.73132 0.1239 0.41249 0.0
C1176 C 0.69723 0.10678 0.42917 0.0
H1177 H 0.76769 0.14309 0.33769 0.0
H1178 H 0.75044 0.13391 0.44899 0.0
C1179 C 0.6734 0.09358 0.37994 0.0
C1180 C 0.97376 0.62025 0.32012 0.0
C1181 C 0.94135 0.60814 0.29552 0.0
H1182 H 1.00382 0.62462 0.40147 0.0
C1183 C 0.91393 0.59009 0.33632 0.0
H1184 H 0.99548 0.63451 0.29028 0.0
C1185 C 0.91869 0.58437 0.39984 0.0
C1186 C 0.95103 0.59655 0.42469 0.0
H1187 H 0.88861 0.57973 0.31885 0.0
H1188 H 0.89686 0.56977 0.42919 0.0
C1189 C 0.97854 0.61455 0.38391 0.0
C1190 C 0.46747 0.38329 0.31871 0.0
C1191 C 0.45696 0.35001 0.30276 0.0
H1192 H 0.48031 0.41947 0.3928 0.0
C1193 C 0.45031 0.32716 0.35238 0.0
H1194 H 0.4722 0.40143 0.2818 0.0
C1195 C 0.45515 0.33753 0.41614 0.0
C1196 C 0.46664 0.37104 0.43209 0.0
H1197 H 0.44252 0.30142 0.3419 0.0
H1198 H 0.45099 0.31944 0.45279 0.0
C1199 C 0.47217 0.39364 0.38246 0.0
C1200 C 0.34893 0.92379 0.64841 0.0
C1201 C 0.38259 0.94572 0.63253 0.0
H1202 H 0.31264 0.90035 0.72256 0.0
C1203 C 0.40532 0.96269 0.68223 0.0
H1204 H 0.33073 0.90993 0.61171 0.0
C1205 C 0.39492 0.95703 0.74597 0.0
C1206 C 0.36148 0.93435 0.76185 0.0
H1207 H 0.43128 0.98031 0.67195 0.0
H1208 H 0.41317 0.97038 0.78293 0.0
C1209 C 0.33851 0.91823 0.71215 0.0
C1210 C 0.16752 0.46423 0.72117 0.0
C1211 C 0.14017 0.44798 0.76288 0.0
H1212 H 0.1847 0.48336 0.62761 0.0
C1213 C 0.10795 0.43766 0.73912 0.0
H1214 H 0.19275 0.47316 0.73797 0.0
C1215 C 0.10327 0.44344 0.67533 0.0
C1216 C 0.1307 0.45979 0.63367 0.0
H1217 H 0.08626 0.42476 0.76965 0.0
H1218 H 0.07808 0.43474 0.65852 0.0
C1219 C 0.16287 0.47008 0.65764 0.0
C1220 C 0.61355 0.67106 0.74272 0.0
C1221 C 0.624 0.70434 0.75862 0.0
H1222 H 0.6008 0.63485 0.6687 0.0
C1223 C 0.63059 0.72714 0.70892 0.0
H1224 H 0.60887 0.65295 0.77966 0.0
C1225 C 0.6258 0.71674 0.64517 0.0
C1226 C 0.6144 0.68324 0.62928 0.0
H1227 H 0.63833 0.75287 0.71933 0.0
H1228 H 0.62994 0.7348 0.60848 0.0
C1229 C 0.60888 0.66067 0.67898 0.0
C1230 C 0.35221 0.46815 0.72372 0.0
C1231 C 0.35881 0.44748 0.76275 0.0
H1232 H 0.35786 0.49065 0.63233 0.0
C1233 C 0.37645 0.43284 0.73653 0.0
H1234 H 0.33932 0.48041 0.74258 0.0
C1235 C 0.38704 0.43862 0.67278 0.0
C1236 C 0.38035 0.45929 0.63374 0.0
H1237 H 0.38169 0.41654 0.76504 0.0
H1238 H 0.40008 0.42653 0.65389 0.0
C1239 C 0.36286 0.47401 0.66028 0.0
C1240 C 0.64531 0.93673 0.71674 0.0
C1241 C 0.62269 0.93442 0.76415 0.0
H1242 H 0.65852 0.94391 0.61778 0.0
C1243 C 0.59562 0.93848 0.74616 0.0
H1244 H 0.66674 0.93427 0.72896 0.0
C1245 C 0.59083 0.94389 0.68241 0.0
C1246 C 0.61301 0.9455 0.6347 0.0
H1247 H 0.5774 0.93638 0.7811 0.0
H1248 H 0.56902 0.94571 0.67033 0.0
C1249 C 0.64057 0.94224 0.6529 0.0
C1250 C 0.1069 0.65984 0.68106 0.0
C1251 C 0.11831 0.68363 0.63189 0.0
H1252 H 0.10309 0.65063 0.78154 0.0
C1253 C 0.13375 0.71753 0.64873 0.0
H1254 H 0.09504 0.63353 0.67018 0.0
C1255 C 0.13881 0.7274 0.71281 0.0
C1256 C 0.12856 0.70364 0.76192 0.0
H1257 H 0.14233 0.73658 0.61231 0.0
H1258 H 0.1518 0.75375 0.72369 0.0
C1259 C 0.11192 0.6697 0.74511 0.0
loop_
_geom_bond_atom_site_label_1
_geom_bond_atom_site_label_2
_geom_bond_distance
_geom_bond_site_symmetry_2
_ccdc_geom_bond_type
Dy0 O3 2.307 . S
Dy0 O5 2.395 1_655 S
Dy0 O6 2.379 . S
Dy0 O8 2.339 . S
Dy0 O10 2.298 1_655 S
Dy0 O14 2.275 1_655 S
Dy0 C22 2.738 . S
Dy1 O4 2.298 1_455 S
Dy1 O7 2.275 1_455 S
Dy1 O9 2.307 . S
Dy1 O11 2.395 1_455 S
Dy1 O12 2.379 . S
Dy1 O15 2.339 . S
Dy1 C31 2.738 . S
C2 O14 1.254 . S
C2 O15 1.257 . S
O3 Dy0 2.307 . S
O3 C13 1.266 . S
O4 Dy1 2.298 1_655 S
O4 C13 1.236 . S
O5 Dy0 2.395 1_455 S
O5 C22 1.255 1_455 S
O6 Dy0 2.379 . S
O6 C22 1.249 . S
O7 Dy1 2.275 1_655 S
O7 C23 1.254 . S
O8 Dy0 2.339 . S
O8 C23 1.257 . S
O9 Dy1 2.307 . S
O9 C24 1.266 . S
O10 Dy0 2.298 1_455 S
O10 C24 1.236 . S
O11 Dy1 2.395 1_655 S
O11 C31 1.255 1_655 S
O12 Dy1 2.379 . S
O12 C31 1.249 . S
C13 O3 1.266 . S
C13 O4 1.236 . S
O14 Dy0 2.275 1_455 S
O14 C2 1.254 . S
O15 Dy1 2.339 . S
O15 C2 1.257 . S
C16 C19 1.344 1_655 S
C16 C20 1.328 . S
C16 C22 1.516 . S
C17 C18 1.336 . S
C17 C21 1.289 1_455 S
C18 C17 1.336 . S
C18 C19 1.371 . S
C18 H32 0.930 . S
C19 C16 1.344 1_455 S
C19 C18 1.371 . S
C19 H33 0.931 . S
C20 C16 1.328 . S
C20 C21 1.433 . S
C20 H34 0.931 . S
C21 C17 1.289 1_655 S
C21 C20 1.433 . S
C21 H35 0.933 . S
C22 Dy0 2.738 . S
C22 O5 1.255 1_655 S
C22 O6 1.249 . S
C22 C16 1.516 . S
C23 O7 1.254 . S
C23 O8 1.257 . S
C24 O9 1.266 . S
C24 O10 1.236 . S
C25 C28 1.344 1_455 S
C25 C29 1.328 . S
C25 C31 1.516 . S
C26 C27 1.304 1_455 S
C26 C30 1.323 . S
C27 C26 1.304 1_655 S
C27 C28 1.371 . S
C27 H36 0.930 . S
C28 C25 1.344 1_655 S
C28 C27 1.371 . S
C28 H37 0.931 . S
C29 C25 1.328 . S
C29 C30 1.433 . S
C29 H38 0.931 . S
C30 C26 1.323 . S
C30 C29 1.433 . S
C30 H39 0.933 . S
C31 Dy1 2.738 . S
C31 O11 1.255 1_455 S
C31 O12 1.249 . S
C31 C25 1.516 . S
H32 C18 0.930 . S
H33 C19 0.931 . S
H34 C20 0.931 . S
H35 C21 0.933 . S
H36 C27 0.930 . S
H37 C28 0.931 . S
H38 C29 0.931 . S
H39 C30 0.933 . S
Dy40 O43 2.307 . S
Dy40 O45 2.395 . S
Dy40 O46 2.379 . S
Dy40 O48 2.339 . S
Dy40 O50 2.298 . S
Dy40 O54 2.275 . S
Dy40 C62 2.738 . S
Dy41 O44 2.298 . S
Dy41 O47 2.275 . S
Dy41 O49 2.307 . S
Dy41 O51 2.395 . S
Dy41 O52 2.379 . S
Dy41 O55 2.339 . S
Dy41 C71 2.738 . S
C42 O54 1.254 . S
C42 O55 1.257 . S
O43 Dy40 2.307 . S
O43 C53 1.266 . S
O44 Dy41 2.298 . S
O44 C53 1.236 . S
O45 Dy40 2.395 . S
O45 C62 1.255 . S
O46 Dy40 2.379 . S
O46 C62 1.249 . S
O47 Dy41 2.275 . S
O47 C63 1.254 . S
O48 Dy40 2.339 . S
O48 C63 1.257 . S
O49 Dy41 2.307 . S
O49 C64 1.266 . S
O50 Dy40 2.298 . S
O50 C64 1.236 . S
O51 Dy41 2.395 . S
O51 C71 1.255 . S
O52 Dy41 2.379 . S
O52 C71 1.249 . S
C53 O43 1.266 . S
C53 O44 1.236 . S
O54 Dy40 2.275 . S
O54 C42 1.254 . S
O55 Dy41 2.339 . S
O55 C42 1.257 . S
C56 C59 1.344 . S
C56 C60 1.328 . S
C56 C62 1.516 . S
C57 C58 1.304 . S
C57 C61 1.323 . S
C58 C57 1.304 . S
C58 C59 1.371 . S
C58 H72 0.930 . S
C59 C56 1.344 . S
C59 C58 1.371 . S
C59 H73 0.931 . S
C60 C56 1.328 . S
C60 C61 1.433 . S
C60 H74 0.931 . S
C61 C57 1.323 . S
C61 C60 1.433 . S
C61 H75 0.933 . S
C62 Dy40 2.738 . S
C62 O45 1.255 . S
C62 O46 1.249 . S
C62 C56 1.516 . S
C63 O47 1.254 . S
C63 O48 1.257 . S
C64 O49 1.266 . S
C64 O50 1.236 . S
C65 C68 1.344 . S
C65 C69 1.328 . S
C65 C71 1.516 . S
C66 C67 1.304 . S
C66 C70 1.323 . S
C67 C66 1.304 . S
C67 C68 1.371 . S
C67 H76 0.930 . S
C68 C65 1.344 . S
C68 C67 1.371 . S
C68 H77 0.931 . S
C69 C65 1.328 . S
C69 C70 1.433 . S
C69 H78 0.931 . S
C70 C66 1.323 . S
C70 C69 1.433 . S
C70 H79 0.933 . S
C71 Dy41 2.738 . S
C71 O51 1.255 . S
C71 O52 1.249 . S
C71 C65 1.516 . S
H72 C58 0.930 . S
H73 C59 0.931 . S
H74 C60 0.931 . S
H75 C61 0.933 . S
H76 C67 0.930 . S
H77 C68 0.931 . S
H78 C69 0.931 . S
H79 C70 0.933 . S
Dy80 O83 2.307 . S
Dy80 O85 2.395 . S
Dy80 O86 2.379 . S
Dy80 O88 2.339 . S
Dy80 O90 2.298 1_545 S
Dy80 O94 2.275 1_545 S
Dy80 C102 2.738 . S
Dy81 O84 2.298 1_565 S
Dy81 O87 2.275 1_565 S
Dy81 O89 2.307 . S
Dy81 O91 2.395 1_565 S
Dy81 O92 2.379 . S
Dy81 O95 2.339 . S
Dy81 C111 2.738 . S
C82 O94 1.254 . S
C82 O95 1.257 . S
O83 Dy80 2.307 . S
O83 C93 1.266 . S
O84 Dy81 2.298 1_545 S
O84 C93 1.236 . S
O85 Dy80 2.395 . S
O85 C102 1.255 . S
O86 Dy80 2.379 . S
O86 C102 1.249 . S
O87 Dy81 2.275 1_545 S
O87 C103 1.254 . S
O88 Dy80 2.339 . S
O88 C103 1.257 . S
O89 Dy81 2.307 . S
O89 C104 1.266 . S
O90 Dy80 2.298 1_565 S
O90 C104 1.236 . S
O91 Dy81 2.395 1_545 S
O91 C111 1.255 1_545 S
O92 Dy81 2.379 . S
O92 C111 1.249 . S
C93 O83 1.266 . S
C93 O84 1.236 . S
O94 Dy80 2.275 1_565 S
O94 C82 1.254 . S
O95 Dy81 2.339 . S
O95 C82 1.257 . S
C96 C99 1.344 1_545 S
C96 C100 1.328 . S
C96 C102 1.516 . S
C97 C98 1.304 1_545 S
C97 C101 1.323 . S
C98 C97 1.304 1_565 S
C98 C99 1.371 . S
C98 H112 0.930 . S
C99 C96 1.344 1_565 S
C99 C98 1.371 . S
C99 H113 0.931 . S
C100 C96 1.328 . S
C100 C101 1.433 . S
C100 H114 0.931 . S
C101 C97 1.323 . S
C101 C100 1.433 . S
C101 H115 0.933 . S
C102 Dy80 2.738 . S
C102 O85 1.255 . S
C102 O86 1.249 . S
C102 C96 1.516 . S
C103 O87 1.254 . S
C103 O88 1.257 . S
C104 O89 1.266 . S
C104 O90 1.236 . S
C105 C108 1.357 . S
C105 C109 1.319 1_545 S
C105 C111 1.512 1_545 S
C106 C107 1.304 . S
C106 C110 1.323 1_545 S
C107 C106 1.304 . S
C107 C108 1.371 . S
C107 H116 0.930 . S
C108 C105 1.357 . S
C108 C107 1.371 . S
C108 H117 0.931 . S
C109 C105 1.319 1_565 S
C109 C110 1.433 . S
C109 H118 0.931 . S
C110 C106 1.323 1_565 S
C110 C109 1.433 . S
C110 H119 0.933 . S
C111 Dy81 2.738 . S
C111 O91 1.255 1_565 S
C111 O92 1.249 . S
C111 C105 1.512 1_565 S
H112 C98 0.930 . S
H113 C99 0.931 . S
H114 C100 0.931 . S
H115 C101 0.933 . S
H116 C107 0.930 . S
H117 C108 0.931 . S
H118 C109 0.931 . S
H119 C110 0.933 . S
Dy120 O123 2.307 . S
Dy120 O125 2.395 1_655 S
Dy120 O126 2.379 . S
Dy120 O128 2.339 . S
Dy120 O130 2.298 1_655 S
Dy120 O134 2.275 1_655 S
Dy120 C142 2.738 . S
Dy121 O124 2.298 1_455 S
Dy121 O127 2.275 1_455 S
Dy121 O129 2.307 . S
Dy121 O131 2.395 . S
Dy121 O132 2.379 . S
Dy121 O135 2.339 . S
Dy121 C151 2.738 . S
C122 O134 1.254 . S
C122 O135 1.257 . S
O123 Dy120 2.307 . S
O123 C133 1.266 . S
O124 Dy121 2.298 1_655 S
O124 C133 1.236 . S
O125 Dy120 2.395 1_455 S
O125 C142 1.255 1_455 S
O126 Dy120 2.379 . S
O126 C142 1.249 . S
O127 Dy121 2.275 1_655 S
O127 C143 1.254 . S
O128 Dy120 2.339 . S
O128 C143 1.257 . S
O129 Dy121 2.307 . S
O129 C144 1.266 . S
O130 Dy120 2.298 1_455 S
O130 C144 1.236 . S
O131 Dy121 2.395 . S
O131 C151 1.255 . S
O132 Dy121 2.379 . S
O132 C151 1.249 . S
C133 O123 1.266 . S
C133 O124 1.236 . S
O134 Dy120 2.275 1_455 S
O134 C122 1.254 . S
O135 Dy121 2.339 . S
O135 C122 1.257 . S
C136 C139 1.371 . S
C136 C140 1.302 1_455 S
C136 C142 1.515 1_455 S
C137 C138 1.304 . S
C137 C141 1.323 1_455 S
C138 C137 1.304 . S
C138 C139 1.371 . S
C138 H152 0.930 . S
C139 C136 1.371 . S
C139 C138 1.371 . S
C139 H153 0.931 . S
C140 C136 1.302 1_655 S
C140 C141 1.433 . S
C140 H154 0.931 . S
C141 C137 1.323 1_655 S
C141 C140 1.433 . S
C141 H155 0.933 . S
C142 Dy120 2.738 . S
C142 O125 1.255 1_655 S
C142 O126 1.249 . S
C142 C136 1.515 1_655 S
C143 O127 1.254 . S
C143 O128 1.257 . S
C144 O129 1.266 . S
C144 O130 1.236 . S
C145 C148 1.344 1_455 S
C145 C149 1.328 . S
C145 C151 1.516 . S
C146 C147 1.304 1_455 S
C146 C150 1.323 . S
C147 C146 1.304 1_655 S
C147 C148 1.371 . S
C147 H156 0.930 . S
C148 C145 1.344 1_655 S
C148 C147 1.371 . S
C148 H157 0.931 . S
C149 C145 1.328 . S
C149 C150 1.433 . S
C149 H158 0.931 . S
C150 C146 1.323 . S
C150 C149 1.433 . S
C150 H159 0.933 . S
C151 Dy121 2.738 . S
C151 O131 1.255 . S
C151 O132 1.249 . S
C151 C145 1.516 . S
H152 C138 0.930 . S
H153 C139 0.931 . S
H154 C140 0.931 . S
H155 C141 0.933 . S
H156 C147 0.930 . S
H157 C148 0.931 . S
H158 C149 0.931 . S
H159 C150 0.933 . S
Dy160 O163 2.307 . S
Dy160 O165 2.395 . S
Dy160 O166 2.379 . S
Dy160 O168 2.339 . S
Dy160 O170 2.298 . S
Dy160 O174 2.275 . S
Dy160 C182 2.738 . S
Dy161 O164 2.298 . S
Dy161 O167 2.275 . S
Dy161 O169 2.307 . S
Dy161 O171 2.395 . S
Dy161 O172 2.379 . S
Dy161 O175 2.339 . S
Dy161 C191 2.738 . S
C162 O174 1.254 . S
C162 O175 1.257 . S
O163 Dy160 2.307 . S
O163 C173 1.266 . S
O164 Dy161 2.298 . S
O164 C173 1.236 . S
O165 Dy160 2.395 . S
O165 C182 1.255 . S
O166 Dy160 2.379 . S
O166 C182 1.249 . S
O167 Dy161 2.275 . S
O167 C183 1.254 . S
O168 Dy160 2.339 . S
O168 C183 1.257 . S
O169 Dy161 2.307 . S
O169 C184 1.266 . S
O170 Dy160 2.298 . S
O170 C184 1.236 . S
O171 Dy161 2.395 . S
O171 C191 1.255 . S
O172 Dy161 2.379 . S
O172 C191 1.249 . S
C173 O163 1.266 . S
C173 O164 1.236 . S
O174 Dy160 2.275 . S
O174 C162 1.254 . S
O175 Dy161 2.339 . S
O175 C162 1.257 . S
C176 C179 1.344 . S
C176 C180 1.328 . S
C176 C182 1.516 . S
C177 C178 1.304 . S
C177 C181 1.323 . S
C178 C177 1.304 . S
C178 C179 1.371 . S
C178 H192 0.930 . S
C179 C176 1.344 . S
C179 C178 1.371 . S
C179 H193 0.931 . S
C180 C176 1.328 . S
C180 C181 1.433 . S
C180 H194 0.931 . S
C181 C177 1.323 . S
C181 C180 1.433 . S
C181 H195 0.933 . S
C182 Dy160 2.738 . S
C182 O165 1.255 . S
C182 O166 1.249 . S
C182 C176 1.516 . S
C183 O167 1.254 . S
C183 O168 1.257 . S
C184 O169 1.266 . S
C184 O170 1.236 . S
C185 C188 1.344 . S
C185 C189 1.328 . S
C185 C191 1.516 . S
C186 C187 1.304 . S
C186 C190 1.323 . S
C187 C186 1.304 . S
C187 C188 1.371 . S
C187 H196 0.930 . S
C188 C185 1.344 . S
C188 C187 1.371 . S
C188 H197 0.931 . S
C189 C185 1.328 . S
C189 C190 1.433 . S
C189 H198 0.931 . S
C190 C186 1.323 . S
C190 C189 1.433 . S
C190 H199 0.933 . S
C191 Dy161 2.738 . S
C191 O171 1.255 . S
C191 O172 1.249 . S
C191 C185 1.516 . S
H192 C178 0.930 . S
H193 C179 0.931 . S
H194 C180 0.931 . S
H195 C181 0.933 . S
H196 C187 0.930 . S
H197 C188 0.931 . S
H198 C189 0.931 . S
H199 C190 0.933 . S
Dy200 O203 2.307 . S
Dy200 O205 2.395 1_545 S
Dy200 O206 2.379 . S
Dy200 O208 2.339 . S
Dy200 O210 2.298 1_545 S
Dy200 O214 2.275 1_545 S
Dy200 C222 2.738 . S
Dy201 O204 2.298 1_565 S
Dy201 O207 2.275 1_565 S
Dy201 O209 2.307 . S
Dy201 O211 2.395 1_565 S
Dy201 O212 2.379 . S
Dy201 O215 2.339 . S
Dy201 C231 2.738 . S
C202 O214 1.254 . S
C202 O215 1.257 . S
O203 Dy200 2.307 . S
O203 C213 1.266 . S
O204 Dy201 2.298 1_545 S
O204 C213 1.236 . S
O205 Dy200 2.395 1_565 S
O205 C222 1.255 1_565 S
O206 Dy200 2.379 . S
O206 C222 1.249 . S
O207 Dy201 2.275 1_545 S
O207 C223 1.254 . S
O208 Dy200 2.339 . S
O208 C223 1.257 . S
O209 Dy201 2.307 . S
O209 C224 1.266 . S
O210 Dy200 2.298 1_565 S
O210 C224 1.236 . S
O211 Dy201 2.395 1_545 S
O211 C231 1.255 1_545 S
O212 Dy201 2.379 . S
O212 C231 1.249 . S
C213 O203 1.266 . S
C213 O204 1.236 . S
O214 Dy200 2.275 1_565 S
O214 C202 1.254 . S
O215 Dy201 2.339 . S
O215 C202 1.257 . S
C216 C219 1.344 1_545 S
C216 C220 1.328 . S
C216 C222 1.516 . S
C217 C218 1.304 1_545 S
C217 C221 1.323 . S
C218 C217 1.304 1_565 S
C218 C219 1.371 . S
C218 H232 0.930 . S
C219 C216 1.344 1_565 S
C219 C218 1.371 . S
C219 H233 0.931 . S
C220 C216 1.328 . S
C220 C221 1.433 . S
C220 H234 0.931 . S
C221 C217 1.323 . S
C221 C220 1.433 . S
C221 H235 0.933 . S
C222 Dy200 2.738 . S
C222 O205 1.255 1_545 S
C222 O206 1.249 . S
C222 C216 1.516 . S
C223 O207 1.254 . S
C223 O208 1.257 . S
C224 O209 1.266 . S
C224 O210 1.236 . S
C225 C228 1.344 1_565 S
C225 C229 1.328 . S
C225 C231 1.516 . S
C226 C227 1.316 . S
C226 C230 1.308 1_545 S
C227 C226 1.316 . S
C227 C228 1.371 . S
C227 H236 0.930 . S
C228 C225 1.344 1_545 S
C228 C227 1.371 . S
C228 H237 0.931 . S
C229 C225 1.328 . S
C229 C230 1.433 . S
C229 H238 0.931 . S
C230 C226 1.308 1_565 S
C230 C229 1.433 . S
C230 H239 0.933 . S
C231 Dy201 2.738 . S
C231 O211 1.255 1_565 S
C231 O212 1.249 . S
C231 C225 1.516 . S
H232 C218 0.930 . S
H233 C219 0.931 . S
H234 C220 0.931 . S
H235 C221 0.933 . S
H236 C227 0.930 . S
H237 C228 0.931 . S
H238 C229 0.931 . S
H239 C230 0.933 . S
Dy240 O243 2.307 . S
Dy240 O245 2.395 . S
Dy240 O246 2.379 . S
Dy240 O248 2.339 . S
Dy240 O250 2.298 . S
Dy240 O254 2.275 . S
Dy240 C262 2.738 . S
Dy241 O244 2.298 . S
Dy241 O247 2.275 . S
Dy241 O249 2.307 . S
Dy241 O251 2.395 . S
Dy241 O252 2.379 . S
Dy241 O255 2.339 . S
Dy241 C271 2.738 . S
C242 O254 1.254 . S
C242 O255 1.257 . S
O243 Dy240 2.307 . S
O243 C253 1.266 . S
O244 Dy241 2.298 . S
O244 C253 1.236 . S
O245 Dy240 2.395 . S
O245 C262 1.255 . S
O246 Dy240 2.379 . S
O246 C262 1.249 . S
O247 Dy241 2.275 . S
O247 C263 1.254 . S
O248 Dy240 2.339 . S
O248 C263 1.257 . S
O249 Dy241 2.307 . S
O249 C264 1.266 . S
O250 Dy240 2.298 . S
O250 C264 1.236 . S
O251 Dy241 2.395 . S
O251 C271 1.255 . S
O252 Dy241 2.379 . S
O252 C271 1.249 . S
C253 O243 1.266 . S
C253 O244 1.236 . S
O254 Dy240 2.275 . S
O254 C242 1.254 . S
O255 Dy241 2.339 . S
O255 C242 1.257 . S
C256 C259 1.344 . S
C256 C260 1.328 . S
C256 C262 1.516 . S
C257 C258 1.304 . S
C257 C261 1.323 . S
C258 C257 1.304 . S
C258 C259 1.371 . S
C258 H272 0.930 . S
C259 C256 1.344 . S
C259 C258 1.371 . S
C259 H273 0.931 . S
C260 C256 1.328 . S
C260 C261 1.433 . S
C260 H274 0.931 . S
C261 C257 1.323 . S
C261 C260 1.433 . S
C261 H275 0.933 . S
C262 Dy240 2.738 . S
C262 O245 1.255 . S
C262 O246 1.249 . S
C262 C256 1.516 . S
C263 O247 1.254 . S
C263 O248 1.257 . S
C264 O249 1.266 . S
C264 O250 1.236 . S
C265 C268 1.344 . S
C265 C269 1.328 . S
C265 C271 1.516 1_554 S
C266 C267 1.304 . S
C266 C270 1.323 . S
C267 C266 1.304 . S
C267 C268 1.371 . S
C267 H276 0.930 . S
C268 C265 1.344 . S
C268 C267 1.371 . S
C268 H277 0.931 . S
C269 C265 1.328 . S
C269 C270 1.433 . S
C269 H278 0.931 . S
C270 C266 1.323 . S
C270 C269 1.433 . S
C270 H279 0.933 . S
C271 Dy241 2.738 . S
C271 O251 1.255 . S
C271 O252 1.249 . S
C271 C265 1.516 1_556 S
H272 C258 0.930 . S
H273 C259 0.931 . S
H274 C260 0.931 . S
H275 C261 0.933 . S
H276 C267 0.930 . S
H277 C268 0.931 . S
H278 C269 0.931 . S
H279 C270 0.933 . S
Dy280 O283 2.307 . S
Dy280 O285 2.395 . S
Dy280 O286 2.379 . S
Dy280 O288 2.339 . S
Dy280 O290 2.298 . S
Dy280 O294 2.275 . S
Dy280 C302 2.738 . S
Dy281 O284 2.298 . S
Dy281 O287 2.275 . S
Dy281 O289 2.307 . S
Dy281 O291 2.395 . S
Dy281 O292 2.379 . S
Dy281 O295 2.339 . S
Dy281 C311 2.738 . S
C282 O294 1.254 . S
C282 O295 1.257 . S
O283 Dy280 2.307 . S
O283 C293 1.266 . S
O284 Dy281 2.298 . S
O284 C293 1.236 . S
O285 Dy280 2.395 . S
O285 C302 1.255 . S
O286 Dy280 2.379 . S
O286 C302 1.249 . S
O287 Dy281 2.275 . S
O287 C303 1.254 . S
O288 Dy280 2.339 . S
O288 C303 1.257 . S
O289 Dy281 2.307 . S
O289 C304 1.266 . S
O290 Dy280 2.298 . S
O290 C304 1.236 . S
O291 Dy281 2.395 . S
O291 C311 1.255 . S
O292 Dy281 2.379 . S
O292 C311 1.249 . S
C293 O283 1.266 . S
C293 O284 1.236 . S
O294 Dy280 2.275 . S
O294 C282 1.254 . S
O295 Dy281 2.339 . S
O295 C282 1.257 . S
C296 C299 1.344 . S
C296 C300 1.328 . S
C296 C302 1.516 . S
C297 C298 1.304 . S
C297 C301 1.323 . S
C298 C297 1.304 . S
C298 C299 1.371 . S
C298 H312 0.930 . S
C299 C296 1.344 . S
C299 C298 1.371 . S
C299 H313 0.931 . S
C300 C296 1.328 . S
C300 C301 1.433 . S
C300 H314 0.931 . S
C301 C297 1.323 . S
C301 C300 1.433 . S
C301 H315 0.933 . S
C302 Dy280 2.738 . S
C302 O285 1.255 . S
C302 O286 1.249 . S
C302 C296 1.516 . S
C303 O287 1.254 . S
C303 O288 1.257 . S
C304 O289 1.266 . S
C304 O290 1.236 . S
C305 C308 1.344 . S
C305 C309 1.328 . S
C305 C311 1.516 1_554 S
C306 C307 1.304 . S
C306 C310 1.323 . S
C307 C306 1.304 . S
C307 C308 1.371 . S
C307 H316 0.930 . S
C308 C305 1.344 . S
C308 C307 1.371 . S
C308 H317 0.931 . S
C309 C305 1.328 . S
C309 C310 1.433 . S
C309 H318 0.931 . S
C310 C306 1.323 . S
C310 C309 1.433 . S
C310 H319 0.933 . S
C311 Dy281 2.738 . S
C311 O291 1.255 . S
C311 O292 1.249 . S
C311 C305 1.516 1_556 S
H312 C298 0.930 . S
H313 C299 0.931 . S
H314 C300 0.931 . S
H315 C301 0.933 . S
H316 C307 0.930 . S
H317 C308 0.931 . S
H318 C309 0.931 . S
H319 C310 0.933 . S
Dy320 O323 2.307 . S
Dy320 O325 2.395 . S
Dy320 O326 2.379 . S
Dy320 O328 2.339 . S
Dy320 O330 2.298 . S
Dy320 O334 2.275 . S
Dy320 C342 2.738 . S
Dy321 O324 2.298 . S
Dy321 O327 2.275 . S
Dy321 O329 2.307 . S
Dy321 O331 2.395 . S
Dy321 O332 2.379 . S
Dy321 O335 2.339 . S
Dy321 C351 2.738 . S
C322 O334 1.254 . S
C322 O335 1.257 . S
O323 Dy320 2.307 . S
O323 C333 1.266 . S
O324 Dy321 2.298 . S
O324 C333 1.236 . S
O325 Dy320 2.395 . S
O325 C342 1.255 . S
O326 Dy320 2.379 . S
O326 C342 1.249 . S
O327 Dy321 2.275 . S
O327 C343 1.254 . S
O328 Dy320 2.339 . S
O328 C343 1.257 . S
O329 Dy321 2.307 . S
O329 C344 1.266 . S
O330 Dy320 2.298 . S
O330 C344 1.236 . S
O331 Dy321 2.395 . S
O331 C351 1.255 . S
O332 Dy321 2.379 . S
O332 C351 1.249 . S
C333 O323 1.266 . S
C333 O324 1.236 . S
O334 Dy320 2.275 . S
O334 C322 1.254 . S
O335 Dy321 2.339 . S
O335 C322 1.257 . S
C336 C339 1.344 . S
C336 C340 1.328 . S
C336 C342 1.516 . S
C337 C338 1.304 . S
C337 C341 1.323 . S
C338 C337 1.304 . S
C338 C339 1.371 . S
C338 H352 0.930 . S
C339 C336 1.344 . S
C339 C338 1.371 . S
C339 H353 0.931 . S
C340 C336 1.328 . S
C340 C341 1.433 . S
C340 H354 0.931 . S
C341 C337 1.323 . S
C341 C340 1.433 . S
C341 H355 0.933 . S
C342 Dy320 2.738 . S
C342 O325 1.255 . S
C342 O326 1.249 . S
C342 C336 1.516 . S
C343 O327 1.254 . S
C343 O328 1.257 . S
C344 O329 1.266 . S
C344 O330 1.236 . S
C345 C348 1.344 . S
C345 C349 1.328 . S
C345 C351 1.516 1_554 S
C346 C347 1.304 . S
C346 C350 1.323 . S
C347 C346 1.304 . S
C347 C348 1.371 . S
C347 H356 0.930 . S
C348 C345 1.344 . S
C348 C347 1.371 . S
C348 H357 0.931 . S
C349 C345 1.328 . S
C349 C350 1.433 . S
C349 H358 0.931 . S
C350 C346 1.323 . S
C350 C349 1.433 . S
C350 H359 0.933 . S
C351 Dy321 2.738 . S
C351 O331 1.255 . S
C351 O332 1.249 . S
C351 C345 1.516 1_556 S
H352 C338 0.930 . S
H353 C339 0.931 . S
H354 C340 0.931 . S
H355 C341 0.933 . S
H356 C347 0.930 . S
H357 C348 0.931 . S
H358 C349 0.931 . S
H359 C350 0.933 . S
Dy360 O363 2.307 . S
Dy360 O365 2.395 . S
Dy360 O366 2.379 . S
Dy360 O368 2.339 . S
Dy360 O370 2.298 . S
Dy360 O374 2.275 . S
Dy360 C382 2.738 . S
Dy361 O364 2.298 . S
Dy361 O367 2.275 . S
Dy361 O369 2.307 . S
Dy361 O371 2.395 1_556 S
Dy361 O372 2.379 1_556 S
Dy361 O375 2.339 . S
Dy361 C391 2.738 1_556 S
C362 O374 1.254 . S
C362 O375 1.257 . S
O363 Dy360 2.307 . S
O363 C373 1.266 . S
O364 Dy361 2.298 . S
O364 C373 1.236 . S
O365 Dy360 2.395 . S
O365 C382 1.255 . S
O366 Dy360 2.379 . S
O366 C382 1.249 . S
O367 Dy361 2.275 . S
O367 C383 1.254 . S
O368 Dy360 2.339 . S
O368 C383 1.257 . S
O369 Dy361 2.307 . S
O369 C384 1.266 . S
O370 Dy360 2.298 . S
O370 C384 1.236 . S
O371 Dy361 2.395 1_554 S
O371 C391 1.255 . S
O372 Dy361 2.379 1_554 S
O372 C391 1.249 . S
C373 O363 1.266 . S
C373 O364 1.236 . S
O374 Dy360 2.275 . S
O374 C362 1.254 . S
O375 Dy361 2.339 . S
O375 C362 1.257 . S
C376 C379 1.344 . S
C376 C380 1.328 . S
C376 C382 1.516 . S
C377 C378 1.304 . S
C377 C381 1.323 . S
C378 C377 1.304 . S
C378 C379 1.371 . S
C378 H392 0.930 . S
C379 C376 1.344 . S
C379 C378 1.371 . S
C379 H393 0.931 . S
C380 C376 1.328 . S
C380 C381 1.433 . S
C380 H394 0.931 . S
C381 C377 1.323 . S
C381 C380 1.433 . S
C381 H395 0.933 . S
C382 Dy360 2.738 . S
C382 O365 1.255 . S
C382 O366 1.249 . S
C382 C376 1.516 . S
C383 O367 1.254 . S
C383 O368 1.257 . S
C384 O369 1.266 . S
C384 O370 1.236 . S
C385 C388 1.344 . S
C385 C389 1.328 . S
C385 C391 1.516 . S
C386 C387 1.304 . S
C386 C390 1.323 . S
C387 C386 1.304 . S
C387 C388 1.371 . S
C387 H396 0.930 . S
C388 C385 1.344 . S
C388 C387 1.371 . S
C388 H397 0.931 . S
C389 C385 1.328 . S
C389 C390 1.433 . S
C389 H398 0.931 . S
C390 C386 1.323 . S
C390 C389 1.433 . S
C390 H399 0.933 . S
C391 Dy361 2.738 1_554 S
C391 O371 1.255 . S
C391 O372 1.249 . S
C391 C385 1.516 . S
H392 C378 0.930 . S
H393 C379 0.931 . S
H394 C380 0.931 . S
H395 C381 0.933 . S
H396 C387 0.930 . S
H397 C388 0.931 . S
H398 C389 0.931 . S
H399 C390 0.933 . S
Dy400 O403 2.307 . S
Dy400 O405 2.395 . S
Dy400 O406 2.379 . S
Dy400 O408 2.339 . S
Dy400 O410 2.298 . S
Dy400 O414 2.275 . S
Dy400 C422 2.738 . S
Dy401 O404 2.298 . S
Dy401 O407 2.275 . S
Dy401 O409 2.307 . S
Dy401 O411 2.395 1_556 S
Dy401 O412 2.379 1_556 S
Dy401 O415 2.339 . S
Dy401 C431 2.738 1_556 S
C402 O414 1.254 . S
C402 O415 1.257 . S
O403 Dy400 2.307 . S
O403 C413 1.266 . S
O404 Dy401 2.298 . S
O404 C413 1.236 . S
O405 Dy400 2.395 . S
O405 C422 1.255 . S
O406 Dy400 2.379 . S
O406 C422 1.249 . S
O407 Dy401 2.275 . S
O407 C423 1.254 . S
O408 Dy400 2.339 . S
O408 C423 1.257 . S
O409 Dy401 2.307 . S
O409 C424 1.266 . S
O410 Dy400 2.298 . S
O410 C424 1.236 . S
O411 Dy401 2.395 1_554 S
O411 C431 1.255 . S
O412 Dy401 2.379 1_554 S
O412 C431 1.249 . S
C413 O403 1.266 . S
C413 O404 1.236 . S
O414 Dy400 2.275 . S
O414 C402 1.254 . S
O415 Dy401 2.339 . S
O415 C402 1.257 . S
C416 C419 1.344 . S
C416 C420 1.328 . S
C416 C422 1.516 . S
C417 C418 1.304 . S
C417 C421 1.323 . S
C418 C417 1.304 . S
C418 C419 1.371 . S
C418 H432 0.930 . S
C419 C416 1.344 . S
C419 C418 1.371 . S
C419 H433 0.931 . S
C420 C416 1.328 . S
C420 C421 1.433 . S
C420 H434 0.931 . S
C421 C417 1.323 . S
C421 C420 1.433 . S
C421 H435 0.933 . S
C422 Dy400 2.738 . S
C422 O405 1.255 . S
C422 O406 1.249 . S
C422 C416 1.516 . S
C423 O407 1.254 . S
C423 O408 1.257 . S
C424 O409 1.266 . S
C424 O410 1.236 . S
C425 C428 1.344 . S
C425 C429 1.328 . S
C425 C431 1.516 . S
C426 C427 1.304 . S
C426 C430 1.323 . S
C427 C426 1.304 . S
C427 C428 1.371 . S
C427 H436 0.930 . S
C428 C425 1.344 . S
C428 C427 1.371 . S
C428 H437 0.931 . S
C429 C425 1.328 . S
C429 C430 1.433 . S
C429 H438 0.931 . S
C430 C426 1.323 . S
C430 C429 1.433 . S
C430 H439 0.933 . S
C431 Dy401 2.738 1_554 S
C431 O411 1.255 . S
C431 O412 1.249 . S
C431 C425 1.516 . S
H432 C418 0.930 . S
H433 C419 0.931 . S
H434 C420 0.931 . S
H435 C421 0.933 . S
H436 C427 0.930 . S
H437 C428 0.931 . S
H438 C429 0.931 . S
H439 C430 0.933 . S
Dy440 O443 2.307 . S
Dy440 O445 2.395 . S
Dy440 O446 2.379 . S
Dy440 O448 2.339 . S
Dy440 O450 2.298 . S
Dy440 O454 2.275 . S
Dy440 C462 2.738 . S
Dy441 O444 2.298 . S
Dy441 O447 2.275 . S
Dy441 O449 2.307 . S
Dy441 O451 2.395 1_556 S
Dy441 O452 2.379 1_556 S
Dy441 O455 2.339 . S
Dy441 C471 2.738 1_556 S
C442 O454 1.254 . S
C442 O455 1.257 . S
O443 Dy440 2.307 . S
O443 C453 1.266 . S
O444 Dy441 2.298 . S
O444 C453 1.236 . S
O445 Dy440 2.395 . S
O445 C462 1.255 . S
O446 Dy440 2.379 . S
O446 C462 1.249 . S
O447 Dy441 2.275 . S
O447 C463 1.254 . S
O448 Dy440 2.339 . S
O448 C463 1.257 . S
O449 Dy441 2.307 . S
O449 C464 1.266 . S
O450 Dy440 2.298 . S
O450 C464 1.236 . S
O451 Dy441 2.395 1_554 S
O451 C471 1.255 . S
O452 Dy441 2.379 1_554 S
O452 C471 1.249 . S
C453 O443 1.266 . S
C453 O444 1.236 . S
O454 Dy440 2.275 . S
O454 C442 1.254 . S
O455 Dy441 2.339 . S
O455 C442 1.257 . S
C456 C459 1.344 . S
C456 C460 1.328 . S
C456 C462 1.516 . S
C457 C458 1.304 . S
C457 C461 1.323 . S
C458 C457 1.304 . S
C458 C459 1.371 . S
C458 H472 0.930 . S
C459 C456 1.344 . S
C459 C458 1.371 . S
C459 H473 0.931 . S
C460 C456 1.328 . S
C460 C461 1.433 . S
C460 H474 0.931 . S
C461 C457 1.323 . S
C461 C460 1.433 . S
C461 H475 0.933 . S
C462 Dy440 2.738 . S
C462 O445 1.255 . S
C462 O446 1.249 . S
C462 C456 1.516 . S
C463 O447 1.254 . S
C463 O448 1.257 . S
C464 O449 1.266 . S
C464 O450 1.236 . S
C465 C468 1.344 . S
C465 C469 1.328 . S
C465 C471 1.516 . S
C466 C467 1.304 . S
C466 C470 1.323 . S
C467 C466 1.304 . S
C467 C468 1.371 . S
C467 H476 0.930 . S
C468 C465 1.344 . S
C468 C467 1.371 . S
C468 H477 0.931 . S
C469 C465 1.328 . S
C469 C470 1.433 . S
C469 H478 0.931 . S
C470 C466 1.323 . S
C470 C469 1.433 . S
C470 H479 0.933 . S
C471 Dy441 2.738 1_554 S
C471 O451 1.255 . S
C471 O452 1.249 . S
C471 C465 1.516 . S
H472 C458 0.930 . S
H473 C459 0.931 . S
H474 C460 0.931 . S
H475 C461 0.933 . S
H476 C467 0.930 . S
H477 C468 0.931 . S
H478 C469 0.931 . S
H479 C470 0.933 . S
Dy480 O483 2.307 . S
Dy480 O485 2.395 1_554 S
Dy480 O486 2.379 1_554 S
Dy480 O488 2.339 . S
Dy480 O490 2.298 . S
Dy480 O494 2.275 . S
Dy480 C502 2.738 1_554 S
Dy481 O484 2.298 . S
Dy481 O487 2.275 . S
Dy481 O489 2.307 . S
Dy481 O491 2.395 . S
Dy481 O492 2.379 . S
Dy481 O495 2.339 . S
Dy481 C511 2.738 . S
C482 O494 1.254 . S
C482 O495 1.257 . S
O483 Dy480 2.307 . S
O483 C493 1.266 . S
O484 Dy481 2.298 . S
O484 C493 1.236 . S
O485 Dy480 2.395 1_556 S
O485 C502 1.255 . S
O486 Dy480 2.379 1_556 S
O486 C502 1.249 . S
O487 Dy481 2.275 . S
O487 C503 1.254 . S
O488 Dy480 2.339 . S
O488 C503 1.257 . S
O489 Dy481 2.307 . S
O489 C504 1.266 . S
O490 Dy480 2.298 . S
O490 C504 1.236 . S
O491 Dy481 2.395 . S
O491 C511 1.255 . S
O492 Dy481 2.379 . S
O492 C511 1.249 . S
C493 O483 1.266 . S
C493 O484 1.236 . S
O494 Dy480 2.275 . S
O494 C482 1.254 . S
O495 Dy481 2.339 . S
O495 C482 1.257 . S
C496 C499 1.344 . S
C496 C500 1.328 . S
C496 C502 1.516 . S
C497 C498 1.304 . S
C497 C501 1.323 . S
C498 C497 1.304 . S
C498 C499 1.371 . S
C498 H512 0.930 . S
C499 C496 1.344 . S
C499 C498 1.371 . S
C499 H513 0.931 . S
C500 C496 1.328 . S
C500 C501 1.433 . S
C500 H514 0.931 . S
C501 C497 1.323 . S
C501 C500 1.433 . S
C501 H515 0.933 . S
C502 Dy480 2.738 1_556 S
C502 O485 1.255 . S
C502 O486 1.249 . S
C502 C496 1.516 . S
C503 O487 1.254 . S
C503 O488 1.257 . S
C504 O489 1.266 . S
C504 O490 1.236 . S
C505 C508 1.344 . S
C505 C509 1.328 . S
C505 C511 1.516 . S
C506 C507 1.304 . S
C506 C510 1.323 . S
C507 C506 1.304 . S
C507 C508 1.371 . S
C507 H516 0.930 . S
C508 C505 1.344 . S
C508 C507 1.371 . S
C508 H517 0.931 . S
C509 C505 1.328 . S
C509 C510 1.433 . S
C509 H518 0.931 . S
C510 C506 1.323 . S
C510 C509 1.433 . S
C510 H519 0.933 . S
C511 Dy481 2.738 . S
C511 O491 1.255 . S
C511 O492 1.249 . S
C511 C505 1.516 . S
H512 C498 0.930 . S
H513 C499 0.931 . S
H514 C500 0.931 . S
H515 C501 0.933 . S
H516 C507 0.930 . S
H517 C508 0.931 . S
H518 C509 0.931 . S
H519 C510 0.933 . S
Dy520 O523 2.307 . S
Dy520 O525 2.395 1_554 S
Dy520 O526 2.379 1_554 S
Dy520 O528 2.339 . S
Dy520 O530 2.298 . S
Dy520 O534 2.275 . S
Dy520 C542 2.738 1_554 S
Dy521 O524 2.298 . S
Dy521 O527 2.275 . S
Dy521 O529 2.307 . S
Dy521 O531 2.395 . S
Dy521 O532 2.379 . S
Dy521 O535 2.339 . S
Dy521 C551 2.738 . S
C522 O534 1.254 . S
C522 O535 1.257 . S
O523 Dy520 2.307 . S
O523 C533 1.266 . S
O524 Dy521 2.298 . S
O524 C533 1.236 . S
O525 Dy520 2.395 1_556 S
O525 C542 1.255 . S
O526 Dy520 2.379 1_556 S
O526 C542 1.249 . S
O527 Dy521 2.275 . S
O527 C543 1.254 . S
O528 Dy520 2.339 . S
O528 C543 1.257 . S
O529 Dy521 2.307 . S
O529 C544 1.266 . S
O530 Dy520 2.298 . S
O530 C544 1.236 . S
O531 Dy521 2.395 . S
O531 C551 1.255 . S
O532 Dy521 2.379 . S
O532 C551 1.249 . S
C533 O523 1.266 . S
C533 O524 1.236 . S
O534 Dy520 2.275 . S
O534 C522 1.254 . S
O535 Dy521 2.339 . S
O535 C522 1.257 . S
C536 C539 1.344 . S
C536 C540 1.328 . S
C536 C542 1.516 . S
C537 C538 1.304 . S
C537 C541 1.323 . S
C538 C537 1.304 . S
C538 C539 1.371 . S
C538 H552 0.930 . S
C539 C536 1.344 . S
C539 C538 1.371 . S
C539 H553 0.931 . S
C540 C536 1.328 . S
C540 C541 1.433 . S
C540 H554 0.931 . S
C541 C537 1.323 . S
C541 C540 1.433 . S
C541 H555 0.933 . S
C542 Dy520 2.738 1_556 S
C542 O525 1.255 . S
C542 O526 1.249 . S
C542 C536 1.516 . S
C543 O527 1.254 . S
C543 O528 1.257 . S
C544 O529 1.266 . S
C544 O530 1.236 . S
C545 C548 1.344 . S
C545 C549 1.328 . S
C545 C551 1.516 . S
C546 C547 1.304 . S
C546 C550 1.323 . S
C547 C546 1.304 . S
C547 C548 1.371 . S
C547 H556 0.930 . S
C548 C545 1.344 . S
C548 C547 1.371 . S
C548 H557 0.931 . S
C549 C545 1.328 . S
C549 C550 1.433 . S
C549 H558 0.931 . S
C550 C546 1.323 . S
C550 C549 1.433 . S
C550 H559 0.933 . S
C551 Dy521 2.738 . S
C551 O531 1.255 . S
C551 O532 1.249 . S
C551 C545 1.516 . S
H552 C538 0.930 . S
H553 C539 0.931 . S
H554 C540 0.931 . S
H555 C541 0.933 . S
H556 C547 0.930 . S
H557 C548 0.931 . S
H558 C549 0.931 . S
H559 C550 0.933 . S
Dy560 O563 2.307 . S
Dy560 O565 2.395 1_554 S
Dy560 O566 2.379 1_554 S
Dy560 O568 2.339 . S
Dy560 O570 2.298 . S
Dy560 O574 2.275 . S
Dy560 C582 2.738 1_554 S
Dy561 O564 2.298 . S
Dy561 O567 2.275 . S
Dy561 O569 2.307 . S
Dy561 O571 2.395 . S
Dy561 O572 2.379 . S
Dy561 O575 2.339 . S
Dy561 C591 2.738 . S
C562 O574 1.254 . S
C562 O575 1.257 . S
O563 Dy560 2.307 . S
O563 C573 1.266 . S
O564 Dy561 2.298 . S
O564 C573 1.236 . S
O565 Dy560 2.395 1_556 S
O565 C582 1.255 . S
O566 Dy560 2.379 1_556 S
O566 C582 1.249 . S
O567 Dy561 2.275 . S
O567 C583 1.254 . S
O568 Dy560 2.339 . S
O568 C583 1.257 . S
O569 Dy561 2.307 . S
O569 C584 1.266 . S
O570 Dy560 2.298 . S
O570 C584 1.236 . S
O571 Dy561 2.395 . S
O571 C591 1.255 . S
O572 Dy561 2.379 . S
O572 C591 1.249 . S
C573 O563 1.266 . S
C573 O564 1.236 . S
O574 Dy560 2.275 . S
O574 C562 1.254 . S
O575 Dy561 2.339 . S
O575 C562 1.257 . S
C576 C579 1.344 . S
C576 C580 1.328 . S
C576 C582 1.516 . S
C577 C578 1.304 . S
C577 C581 1.323 . S
C578 C577 1.304 . S
C578 C579 1.371 . S
C578 H592 0.930 . S
C579 C576 1.344 . S
C579 C578 1.371 . S
C579 H593 0.931 . S
C580 C576 1.328 . S
C580 C581 1.433 . S
C580 H594 0.931 . S
C581 C577 1.323 . S
C581 C580 1.433 . S
C581 H595 0.933 . S
C582 Dy560 2.738 1_556 S
C582 O565 1.255 . S
C582 O566 1.249 . S
C582 C576 1.516 . S
C583 O567 1.254 . S
C583 O568 1.257 . S
C584 O569 1.266 . S
C584 O570 1.236 . S
C585 C588 1.344 . S
C585 C589 1.328 . S
C585 C591 1.516 . S
C586 C587 1.304 . S
C586 C590 1.323 . S
C587 C586 1.304 . S
C587 C588 1.371 . S
C587 H596 0.930 . S
C588 C585 1.344 . S
C588 C587 1.371 . S
C588 H597 0.931 . S
C589 C585 1.328 . S
C589 C590 1.433 . S
C589 H598 0.931 . S
C590 C586 1.323 . S
C590 C589 1.433 . S
C590 H599 0.933 . S
C591 Dy561 2.738 . S
C591 O571 1.255 . S
C591 O572 1.249 . S
C591 C585 1.516 . S
H592 C578 0.930 . S
H593 C579 0.931 . S
H594 C580 0.931 . S
H595 C581 0.933 . S
H596 C587 0.930 . S
H597 C588 0.931 . S
H598 C589 0.931 . S
H599 C590 0.933 . S
Dy600 O603 2.307 . S
Dy600 O605 2.395 . S
Dy600 O606 2.379 . S
Dy600 O608 2.339 . S
Dy600 O610 2.298 . S
Dy600 O614 2.275 . S
Dy600 C622 2.738 . S
Dy601 O604 2.298 . S
Dy601 O607 2.275 . S
Dy601 O609 2.307 . S
Dy601 O611 2.395 . S
Dy601 O612 2.379 . S
Dy601 O615 2.339 . S
Dy601 C631 2.738 . S
C602 O614 1.254 . S
C602 O615 1.257 . S
O603 Dy600 2.307 . S
O603 C613 1.266 . S
O604 Dy601 2.298 . S
O604 C613 1.236 . S
O605 Dy600 2.395 . S
O605 C622 1.255 . S
O606 Dy600 2.379 . S
O606 C622 1.249 . S
O607 Dy601 2.275 . S
O607 C623 1.254 . S
O608 Dy600 2.339 . S
O608 C623 1.257 . S
O609 Dy601 2.307 . S
O609 C624 1.266 . S
O610 Dy600 2.298 . S
O610 C624 1.236 . S
O611 Dy601 2.395 . S
O611 C631 1.255 . S
O612 Dy601 2.379 . S
O612 C631 1.249 . S
C613 O603 1.266 . S
C613 O604 1.236 . S
O614 Dy600 2.275 . S
O614 C602 1.254 . S
O615 Dy601 2.339 . S
O615 C602 1.257 . S
C616 C619 1.344 . S
C616 C620 1.328 . S
C616 C622 1.516 1_556 S
C617 C618 1.304 . S
C617 C621 1.323 . S
C618 C617 1.304 . S
C618 C619 1.371 . S
C618 H632 0.930 . S
C619 C616 1.344 . S
C619 C618 1.371 . S
C619 H633 0.931 . S
C620 C616 1.328 . S
C620 C621 1.433 . S
C620 H634 0.931 . S
C621 C617 1.323 . S
C621 C620 1.433 . S
C621 H635 0.933 . S
C622 Dy600 2.738 . S
C622 O605 1.255 . S
C622 O606 1.249 . S
C622 C616 1.516 1_554 S
C623 O607 1.254 . S
C623 O608 1.257 . S
C624 O609 1.266 . S
C624 O610 1.236 . S
C625 C628 1.344 . S
C625 C629 1.328 . S
C625 C631 1.516 . S
C626 C627 1.304 . S
C626 C630 1.323 . S
C627 C626 1.304 . S
C627 C628 1.371 . S
C627 H636 0.930 . S
C628 C625 1.344 . S
C628 C627 1.371 . S
C628 H637 0.931 . S
C629 C625 1.328 . S
C629 C630 1.433 . S
C629 H638 0.931 . S
C630 C626 1.323 . S
C630 C629 1.433 . S
C630 H639 0.933 . S
C631 Dy601 2.738 . S
C631 O611 1.255 . S
C631 O612 1.249 . S
C631 C625 1.516 . S
H632 C618 0.930 . S
H633 C619 0.931 . S
H634 C620 0.931 . S
H635 C621 0.933 . S
H636 C627 0.930 . S
H637 C628 0.931 . S
H638 C629 0.931 . S
H639 C630 0.933 . S
Dy640 O643 2.307 . S
Dy640 O645 2.395 . S
Dy640 O646 2.379 . S
Dy640 O648 2.339 . S
Dy640 O650 2.298 . S
Dy640 O654 2.275 . S
Dy640 C662 2.738 . S
Dy641 O644 2.298 . S
Dy641 O647 2.275 . S
Dy641 O649 2.307 . S
Dy641 O651 2.395 . S
Dy641 O652 2.379 . S
Dy641 O655 2.339 . S
Dy641 C671 2.738 . S
C642 O654 1.254 . S
C642 O655 1.257 . S
O643 Dy640 2.307 . S
O643 C653 1.266 . S
O644 Dy641 2.298 . S
O644 C653 1.236 . S
O645 Dy640 2.395 . S
O645 C662 1.255 . S
O646 Dy640 2.379 . S
O646 C662 1.249 . S
O647 Dy641 2.275 . S
O647 C663 1.254 . S
O648 Dy640 2.339 . S
O648 C663 1.257 . S
O649 Dy641 2.307 . S
O649 C664 1.266 . S
O650 Dy640 2.298 . S
O650 C664 1.236 . S
O651 Dy641 2.395 . S
O651 C671 1.255 . S
O652 Dy641 2.379 . S
O652 C671 1.249 . S
C653 O643 1.266 . S
C653 O644 1.236 . S
O654 Dy640 2.275 . S
O654 C642 1.254 . S
O655 Dy641 2.339 . S
O655 C642 1.257 . S
C656 C659 1.344 . S
C656 C660 1.328 . S
C656 C662 1.516 1_556 S
C657 C658 1.304 . S
C657 C661 1.323 . S
C658 C657 1.304 . S
C658 C659 1.371 . S
C658 H672 0.930 . S
C659 C656 1.344 . S
C659 C658 1.371 . S
C659 H673 0.931 . S
C660 C656 1.328 . S
C660 C661 1.433 . S
C660 H674 0.931 . S
C661 C657 1.323 . S
C661 C660 1.433 . S
C661 H675 0.933 . S
C662 Dy640 2.738 . S
C662 O645 1.255 . S
C662 O646 1.249 . S
C662 C656 1.516 1_554 S
C663 O647 1.254 . S
C663 O648 1.257 . S
C664 O649 1.266 . S
C664 O650 1.236 . S
C665 C668 1.344 . S
C665 C669 1.328 . S
C665 C671 1.516 . S
C666 C667 1.304 . S
C666 C670 1.323 . S
C667 C666 1.304 . S
C667 C668 1.371 . S
C667 H676 0.930 . S
C668 C665 1.344 . S
C668 C667 1.371 . S
C668 H677 0.931 . S
C669 C665 1.328 . S
C669 C670 1.433 . S
C669 H678 0.931 . S
C670 C666 1.323 . S
C670 C669 1.433 . S
C670 H679 0.933 . S
C671 Dy641 2.738 . S
C671 O651 1.255 . S
C671 O652 1.249 . S
C671 C665 1.516 . S
H672 C658 0.930 . S
H673 C659 0.931 . S
H674 C660 0.931 . S
H675 C661 0.933 . S
H676 C667 0.930 . S
H677 C668 0.931 . S
H678 C669 0.931 . S
H679 C670 0.933 . S
Dy680 O683 2.307 . S
Dy680 O685 2.395 . S
Dy680 O686 2.379 . S
Dy680 O688 2.339 . S
Dy680 O690 2.298 . S
Dy680 O694 2.275 . S
Dy680 C702 2.738 . S
Dy681 O684 2.298 . S
Dy681 O687 2.275 . S
Dy681 O689 2.307 . S
Dy681 O691 2.395 . S
Dy681 O692 2.379 . S
Dy681 O695 2.339 . S
Dy681 C711 2.738 . S
C682 O694 1.254 . S
C682 O695 1.257 . S
O683 Dy680 2.307 . S
O683 C693 1.266 . S
O684 Dy681 2.298 . S
O684 C693 1.236 . S
O685 Dy680 2.395 . S
O685 C702 1.255 . S
O686 Dy680 2.379 . S
O686 C702 1.249 . S
O687 Dy681 2.275 . S
O687 C703 1.254 . S
O688 Dy680 2.339 . S
O688 C703 1.257 . S
O689 Dy681 2.307 . S
O689 C704 1.266 . S
O690 Dy680 2.298 . S
O690 C704 1.236 . S
O691 Dy681 2.395 . S
O691 C711 1.255 . S
O692 Dy681 2.379 . S
O692 C711 1.249 . S
C693 O683 1.266 . S
C693 O684 1.236 . S
O694 Dy680 2.275 . S
O694 C682 1.254 . S
O695 Dy681 2.339 . S
O695 C682 1.257 . S
C696 C699 1.344 . S
C696 C700 1.328 . S
C696 C702 1.516 1_556 S
C697 C698 1.304 . S
C697 C701 1.323 . S
C698 C697 1.304 . S
C698 C699 1.371 . S
C698 H712 0.930 . S
C699 C696 1.344 . S
C699 C698 1.371 . S
C699 H713 0.931 . S
C700 C696 1.328 . S
C700 C701 1.433 . S
C700 H714 0.931 . S
C701 C697 1.323 . S
C701 C700 1.433 . S
C701 H715 0.933 . S
C702 Dy680 2.738 . S
C702 O685 1.255 . S
C702 O686 1.249 . S
C702 C696 1.516 1_554 S
C703 O687 1.254 . S
C703 O688 1.257 . S
C704 O689 1.266 . S
C704 O690 1.236 . S
C705 C708 1.344 . S
C705 C709 1.328 . S
C705 C711 1.516 . S
C706 C707 1.304 . S
C706 C710 1.323 . S
C707 C706 1.304 . S
C707 C708 1.371 . S
C707 H716 0.930 . S
C708 C705 1.344 . S
C708 C707 1.371 . S
C708 H717 0.931 . S
C709 C705 1.328 . S
C709 C710 1.433 . S
C709 H718 0.931 . S
C710 C706 1.323 . S
C710 C709 1.433 . S
C710 H719 0.933 . S
C711 Dy681 2.738 . S
C711 O691 1.255 . S
C711 O692 1.249 . S
C711 C705 1.516 . S
H712 C698 0.930 . S
H713 C699 0.931 . S
H714 C700 0.931 . S
H715 C701 0.933 . S
H716 C707 0.930 . S
H717 C708 0.931 . S
H718 C709 0.931 . S
H719 C710 0.933 . S
C720 C721 1.387 . S
C720 H724 0.950 . S
C720 C729 1.390 . S
C721 C720 1.387 . S
C721 C723 1.387 . S
H722 C729 0.950 . S
C723 C721 1.387 . S
C723 C725 1.390 . S
C723 H727 0.950 . S
H724 C720 0.950 . S
C725 C723 1.390 . S
C725 C726 1.387 . S
C725 H728 0.950 . S
C726 C725 1.387 . S
C726 C729 1.387 . S
H727 C723 0.950 . S
H728 C725 0.950 . S
C729 C720 1.390 . S
C729 H722 0.950 . S
C729 C726 1.387 . S
C730 C731 1.387 . S
C730 H734 0.950 . S
C730 C739 1.390 . S
C731 C730 1.387 . S
C731 C733 1.387 . S
H732 C739 0.950 . S
C733 C731 1.387 . S
C733 C735 1.390 . S
C733 H737 0.950 . S
H734 C730 0.950 . S
C735 C733 1.390 . S
C735 C736 1.387 . S
C735 H738 0.950 . S
C736 C735 1.387 . S
C736 C739 1.387 . S
H737 C733 0.950 . S
H738 C735 0.950 . S
C739 C730 1.390 . S
C739 H732 0.950 . S
C739 C736 1.387 . S
C740 C741 1.387 . S
C740 H744 0.950 . S
C740 C749 1.390 . S
C741 C740 1.387 . S
C741 C743 1.387 . S
H742 C749 0.950 . S
C743 C741 1.387 . S
C743 C745 1.390 . S
C743 H747 0.950 . S
H744 C740 0.950 . S
C745 C743 1.390 . S
C745 C746 1.387 . S
C745 H748 0.950 . S
C746 C745 1.387 . S
C746 C749 1.387 . S
H747 C743 0.950 . S
H748 C745 0.950 . S
C749 C740 1.390 . S
C749 H742 0.950 . S
C749 C746 1.387 . S
C750 C751 1.387 . S
C750 H754 0.950 . S
C750 C759 1.390 . S
C751 C750 1.387 . S
C751 C753 1.387 . S
H752 C759 0.950 . S
C753 C751 1.387 . S
C753 C755 1.390 . S
C753 H757 0.950 . S
H754 C750 0.950 . S
C755 C753 1.390 . S
C755 C756 1.387 . S
C755 H758 0.950 . S
C756 C755 1.387 . S
C756 C759 1.387 . S
H757 C753 0.950 . S
H758 C755 0.950 . S
C759 C750 1.390 . S
C759 H752 0.950 . S
C759 C756 1.387 . S
C760 C761 1.387 . S
C760 H764 0.950 . S
C760 C769 1.390 . S
C761 C760 1.387 . S
C761 C763 1.387 . S
H762 C769 0.950 . S
C763 C761 1.387 . S
C763 C765 1.390 . S
C763 H767 0.950 . S
H764 C760 0.950 . S
C765 C763 1.390 . S
C765 C766 1.387 . S
C765 H768 0.950 . S
C766 C765 1.387 . S
C766 C769 1.387 . S
H767 C763 0.950 . S
H768 C765 0.950 . S
C769 C760 1.390 . S
C769 H762 0.950 . S
C769 C766 1.387 . S
C770 C771 1.387 . S
C770 H774 0.950 . S
C770 C779 1.390 . S
C771 C770 1.387 . S
C771 C773 1.387 . S
H772 C779 0.950 . S
C773 C771 1.387 . S
C773 C775 1.390 . S
C773 H777 0.950 . S
H774 C770 0.950 . S
C775 C773 1.390 . S
C775 C776 1.387 . S
C775 H778 0.950 . S
C776 C775 1.387 . S
C776 C779 1.387 . S
H777 C773 0.950 . S
H778 C775 0.950 . S
C779 C770 1.390 . S
C779 H772 0.950 . S
C779 C776 1.387 . S
C780 C781 1.387 . S
C780 H784 0.950 . S
C780 C789 1.390 . S
C781 C780 1.387 . S
C781 C783 1.387 . S
H782 C789 0.950 . S
C783 C781 1.387 . S
C783 C785 1.390 . S
C783 H787 0.950 . S
H784 C780 0.950 . S
C785 C783 1.390 . S
C785 C786 1.387 . S
C785 H788 0.950 . S
C786 C785 1.387 . S
C786 C789 1.387 . S
H787 C783 0.950 . S
H788 C785 0.950 . S
C789 C780 1.390 . S
C789 H782 0.950 . S
C789 C786 1.387 . S
C790 C791 1.387 . S
C790 H794 0.950 . S
C790 C799 1.390 . S
C791 C790 1.387 . S
C791 C793 1.387 . S
H792 C799 0.950 . S
C793 C791 1.387 . S
C793 C795 1.390 . S
C793 H797 0.950 . S
H794 C790 0.950 . S
C795 C793 1.390 . S
C795 C796 1.387 . S
C795 H798 0.950 . S
C796 C795 1.387 . S
C796 C799 1.387 . S
H797 C793 0.950 . S
H798 C795 0.950 . S
C799 C790 1.390 . S
C799 H792 0.950 . S
C799 C796 1.387 . S
C800 C801 1.387 . S
C800 H804 0.950 . S
C800 C809 1.390 . S
C801 C800 1.387 . S
C801 C803 1.387 . S
H802 C809 0.950 . S
C803 C801 1.387 . S
C803 C805 1.390 . S
C803 H807 0.950 . S
H804 C800 0.950 . S
C805 C803 1.390 . S
C805 C806 1.387 . S
C805 H808 0.950 . S
C806 C805 1.387 . S
C806 C809 1.387 . S
H807 C803 0.950 . S
H808 C805 0.950 . S
C809 C800 1.390 . S
C809 H802 0.950 . S
C809 C806 1.387 . S
C810 C811 1.387 . S
C810 H814 0.950 . S
C810 C819 1.390 . S
C811 C810 1.387 . S
C811 C813 1.387 . S
H812 C819 0.950 . S
C813 C811 1.387 . S
C813 C815 1.390 . S
C813 H817 0.950 . S
H814 C810 0.950 . S
C815 C813 1.390 . S
C815 C816 1.387 . S
C815 H818 0.950 . S
C816 C815 1.387 . S
C816 C819 1.387 . S
H817 C813 0.950 . S
H818 C815 0.950 . S
C819 C810 1.390 . S
C819 H812 0.950 . S
C819 C816 1.387 . S
C820 C821 1.387 . S
C820 H824 0.950 . S
C820 C829 1.390 . S
C821 C820 1.387 . S
C821 C823 1.387 . S
H822 C829 0.950 . S
C823 C821 1.387 . S
C823 C825 1.390 . S
C823 H827 0.950 . S
H824 C820 0.950 . S
C825 C823 1.390 . S
C825 C826 1.387 . S
C825 H828 0.950 . S
C826 C825 1.387 . S
C826 C829 1.387 . S
H827 C823 0.950 . S
H828 C825 0.950 . S
C829 C820 1.390 . S
C829 H822 0.950 . S
C829 C826 1.387 . S
C830 C831 1.387 . S
C830 H834 0.950 . S
C830 C839 1.390 . S
C831 C830 1.387 . S
C831 C833 1.387 . S
H832 C839 0.950 . S
C833 C831 1.387 . S
C833 C835 1.390 . S
C833 H837 0.950 . S
H834 C830 0.950 . S
C835 C833 1.390 . S
C835 C836 1.387 . S
C835 H838 0.950 . S
C836 C835 1.387 . S
C836 C839 1.387 . S
H837 C833 0.950 . S
H838 C835 0.950 . S
C839 C830 1.390 . S
C839 H832 0.950 . S
C839 C836 1.387 . S
C840 C841 1.387 1_455 S
C840 H844 0.950 . S
C840 C849 1.390 . S
C841 C840 1.387 1_655 S
C841 C843 1.387 . S
H842 C849 0.950 . S
C843 C841 1.387 . S
C843 C845 1.390 1_655 S
C843 H847 0.950 . S
H844 C840 0.950 . S
C845 C843 1.390 1_455 S
C845 C846 1.387 . S
C845 H848 0.950 1_556 S
C846 C845 1.387 . S
C846 C849 1.387 . S
H847 C843 0.950 . S
H848 C845 0.950 1_554 S
C849 C840 1.390 . S
C849 H842 0.950 . S
C849 C846 1.387 . S
C850 C851 1.387 . S
C850 H854 0.950 . S
C850 C859 1.390 . S
C851 C850 1.387 . S
C851 C853 1.387 . S
H852 C859 0.950 . S
C853 C851 1.387 . S
C853 C855 1.390 . S
C853 H857 0.950 . S
H854 C850 0.950 . S
C855 C853 1.390 . S
C855 C856 1.387 . S
C855 H858 0.950 1_556 S
C856 C855 1.387 . S
C856 C859 1.387 . S
H857 C853 0.950 . S
H858 C855 0.950 1_554 S
C859 C850 1.390 . S
C859 H852 0.950 . S
C859 C856 1.387 . S
C860 C861 1.387 . S
C860 H864 0.950 . S
C860 C869 1.390 1_545 S
C861 C860 1.387 . S
C861 C863 1.387 . S
H862 C869 0.950 . S
C863 C861 1.387 . S
C863 C865 1.390 . S
C863 H867 0.950 . S
H864 C860 0.950 . S
C865 C863 1.390 . S
C865 C866 1.387 1_545 S
C865 H868 0.947 1_546 S
C866 C865 1.387 1_565 S
C866 C869 1.387 . S
H867 C863 0.950 . S
H868 C865 0.947 1_564 S
C869 C860 1.390 1_565 S
C869 H862 0.950 . S
C869 C866 1.387 . S
C870 C871 1.387 . S
C870 H874 0.950 . S
C870 C879 1.390 . S
C871 C870 1.387 . S
C871 C873 1.387 . S
H872 C879 0.941 1_565 S
C873 C871 1.387 . S
C873 C875 1.384 1_545 S
C873 H877 0.950 . S
H874 C870 0.950 . S
C875 C873 1.384 1_565 S
C875 C876 1.396 . S
C875 H878 0.947 . S
C876 C875 1.396 . S
C876 C879 1.387 1_565 S
H877 C873 0.950 . S
H878 C875 0.947 . S
C879 C870 1.390 . S
C879 H872 0.941 1_545 S
C879 C876 1.387 1_545 S
C880 C881 1.387 . S
C880 H884 0.950 . S
C880 C889 1.390 . S
C881 C880 1.387 . S
C881 C883 1.387 1_455 S
H882 C889 0.950 1_556 S
C883 C881 1.387 1_655 S
C883 C885 1.390 . S
C883 H887 0.950 . S
H884 C880 0.950 . S
C885 C883 1.390 . S
C885 C886 1.387 . S
C885 H888 0.950 . S
C886 C885 1.387 . S
C886 C889 1.387 1_655 S
H887 C883 0.950 . S
H888 C885 0.950 . S
C889 C880 1.390 . S
C889 H882 0.950 1_554 S
C889 C886 1.387 1_455 S
C890 C891 1.387 . S
C890 H894 0.950 . S
C890 C899 1.390 . S
C891 C890 1.387 . S
C891 C893 1.387 . S
H892 C899 0.950 . S
C893 C891 1.387 . S
C893 C895 1.390 . S
C893 H897 0.950 . S
H894 C890 0.950 . S
C895 C893 1.390 . S
C895 C896 1.387 . S
C895 H898 0.950 1_554 S
C896 C895 1.387 . S
C896 C899 1.387 . S
H897 C893 0.950 . S
H898 C895 0.950 1_556 S
C899 C890 1.390 . S
C899 H892 0.950 . S
C899 C896 1.387 . S
C900 C901 1.387 . S
C900 H904 0.950 . S
C900 C909 1.390 . S
C901 C900 1.387 . S
C901 C903 1.387 . S
H902 C909 0.950 . S
C903 C901 1.387 . S
C903 C905 1.390 . S
C903 H907 0.950 . S
H904 C900 0.950 . S
C905 C903 1.390 . S
C905 C906 1.387 . S
C905 H908 0.950 . S
C906 C905 1.387 . S
C906 C909 1.387 . S
H907 C903 0.950 . S
H908 C905 0.950 . S
C909 C900 1.390 . S
C909 H902 0.950 . S
C909 C906 1.387 . S
C910 C911 1.387 . S
C910 H914 0.950 . S
C910 C919 1.390 . S
C911 C910 1.387 . S
C911 C913 1.387 . S
H912 C919 0.950 . S
C913 C911 1.387 . S
C913 C915 1.390 . S
C913 H917 0.950 . S
H914 C910 0.950 . S
C915 C913 1.390 . S
C915 C916 1.387 . S
C915 H918 0.950 . S
C916 C915 1.387 . S
C916 C919 1.387 . S
H917 C913 0.950 . S
H918 C915 0.950 . S
C919 C910 1.390 . S
C919 H912 0.950 . S
C919 C916 1.387 . S
C920 C921 1.387 . S
C920 H924 0.950 . S
C920 C929 1.390 . S
C921 C920 1.387 . S
C921 C923 1.387 . S
H922 C929 0.950 . S
C923 C921 1.387 . S
C923 C925 1.390 . S
C923 H927 0.950 . S
H924 C920 0.950 . S
C925 C923 1.390 . S
C925 C926 1.387 . S
C925 H928 0.950 . S
C926 C925 1.387 . S
C926 C929 1.387 . S
H927 C923 0.950 . S
H928 C925 0.950 . S
C929 C920 1.390 . S
C929 H922 0.950 . S
C929 C926 1.387 . S
C930 C931 1.387 . S
C930 H934 0.950 . S
C930 C939 1.390 . S
C931 C930 1.387 . S
C931 C933 1.387 . S
H932 C939 0.950 . S
C933 C931 1.387 . S
C933 C935 1.390 . S
C933 H937 0.950 . S
H934 C930 0.950 . S
C935 C933 1.390 . S
C935 C936 1.387 . S
C935 H938 0.950 . S
C936 C935 1.387 . S
C936 C939 1.387 . S
H937 C933 0.950 . S
H938 C935 0.950 . S
C939 C930 1.390 . S
C939 H932 0.950 . S
C939 C936 1.387 . S
C940 C941 1.387 . S
C940 H944 0.950 . S
C940 C949 1.390 . S
C941 C940 1.387 . S
C941 C943 1.387 . S
H942 C949 0.950 . S
C943 C941 1.387 . S
C943 C945 1.390 . S
C943 H947 0.950 . S
H944 C940 0.950 . S
C945 C943 1.390 . S
C945 C946 1.387 . S
C945 H948 0.950 . S
C946 C945 1.387 . S
C946 C949 1.387 . S
H947 C943 0.950 . S
H948 C945 0.950 . S
C949 C940 1.390 . S
C949 H942 0.950 . S
C949 C946 1.387 . S
C950 C951 1.387 . S
C950 H954 0.950 . S
C950 C959 1.390 . S
C951 C950 1.387 . S
C951 C953 1.387 . S
H952 C959 0.950 . S
C953 C951 1.387 . S
C953 C955 1.390 . S
C953 H957 0.950 . S
H954 C950 0.950 . S
C955 C953 1.390 . S
C955 C956 1.387 . S
C955 H958 0.950 . S
C956 C955 1.387 . S
C956 C959 1.387 . S
H957 C953 0.950 . S
H958 C955 0.950 . S
C959 C950 1.390 . S
C959 H952 0.950 . S
C959 C956 1.387 . S
C960 C961 1.387 . S
C960 H964 0.950 . S
C960 C969 1.390 . S
C961 C960 1.387 . S
C961 C963 1.387 . S
H962 C969 0.950 . S
C963 C961 1.387 . S
C963 C965 1.390 . S
C963 H967 0.950 . S
H964 C960 0.950 . S
C965 C963 1.390 . S
C965 C966 1.387 . S
C965 H968 0.950 . S
C966 C965 1.387 . S
C966 C969 1.387 . S
H967 C963 0.950 . S
H968 C965 0.950 . S
C969 C960 1.390 . S
C969 H962 0.950 . S
C969 C966 1.387 . S
C970 C971 1.387 . S
C970 H974 0.950 . S
C970 C979 1.390 . S
C971 C970 1.387 . S
C971 C973 1.387 . S
H972 C979 0.950 . S
C973 C971 1.387 . S
C973 C975 1.390 . S
C973 H977 0.950 . S
H974 C970 0.950 . S
C975 C973 1.390 . S
C975 C976 1.387 . S
C975 H978 0.950 . S
C976 C975 1.387 . S
C976 C979 1.387 . S
H977 C973 0.950 . S
H978 C975 0.950 . S
C979 C970 1.390 . S
C979 H972 0.950 . S
C979 C976 1.387 . S
C980 C981 1.387 . S
C980 H984 0.950 . S
C980 C989 1.390 . S
C981 C980 1.387 . S
C981 C983 1.387 . S
H982 C989 0.950 . S
C983 C981 1.387 . S
C983 C985 1.390 . S
C983 H987 0.950 . S
H984 C980 0.950 . S
C985 C983 1.390 . S
C985 C986 1.387 . S
C985 H988 0.950 . S
C986 C985 1.387 . S
C986 C989 1.387 . S
H987 C983 0.950 . S
H988 C985 0.950 . S
C989 C980 1.390 . S
C989 H982 0.950 . S
C989 C986 1.387 . S
C990 C991 1.387 . S
C990 H994 0.950 . S
C990 C999 1.390 . S
C991 C990 1.387 . S
C991 C993 1.387 . S
H992 C999 0.950 . S
C993 C991 1.387 . S
C993 C995 1.390 . S
C993 H997 0.950 . S
H994 C990 0.950 . S
C995 C993 1.390 . S
C995 C996 1.387 . S
C995 H998 0.950 . S
C996 C995 1.387 . S
C996 C999 1.387 . S
H997 C993 0.950 . S
H998 C995 0.950 . S
C999 C990 1.390 . S
C999 H992 0.950 . S
C999 C996 1.387 . S
C1000 C1001 1.387 . S
C1000 H1004 0.950 . S
C1000 C1009 1.390 . S
C1001 C1000 1.387 . S
C1001 C1003 1.387 . S
H1002 C1009 0.950 . S
C1003 C1001 1.387 . S
C1003 C1005 1.390 . S
C1003 H1007 0.950 . S
H1004 C1000 0.950 . S
C1005 C1003 1.390 . S
C1005 C1006 1.387 . S
C1005 H1008 0.950 . S
C1006 C1005 1.387 . S
C1006 C1009 1.387 . S
H1007 C1003 0.950 . S
H1008 C1005 0.950 . S
C1009 C1000 1.390 . S
C1009 H1002 0.950 . S
C1009 C1006 1.387 . S
C1010 C1011 1.387 . S
C1010 H1014 0.950 . S
C1010 C1019 1.390 . S
C1011 C1010 1.387 . S
C1011 C1013 1.387 . S
H1012 C1019 0.950 . S
C1013 C1011 1.387 . S
C1013 C1015 1.390 . S
C1013 H1017 0.950 . S
H1014 C1010 0.950 . S
C1015 C1013 1.390 . S
C1015 C1016 1.387 . S
C1015 H1018 0.950 . S
C1016 C1015 1.387 . S
C1016 C1019 1.387 . S
H1017 C1013 0.950 . S
H1018 C1015 0.950 . S
C1019 C1010 1.390 . S
C1019 H1012 0.950 . S
C1019 C1016 1.387 . S
C1020 C1021 1.387 . S
C1020 H1024 0.950 . S
C1020 C1029 1.390 . S
C1021 C1020 1.387 . S
C1021 C1023 1.387 . S
H1022 C1029 0.950 . S
C1023 C1021 1.387 . S
C1023 C1025 1.390 . S
C1023 H1027 0.950 . S
H1024 C1020 0.950 . S
C1025 C1023 1.390 . S
C1025 C1026 1.387 . S
C1025 H1028 0.950 . S
C1026 C1025 1.387 . S
C1026 C1029 1.387 . S
H1027 C1023 0.950 . S
H1028 C1025 0.950 . S
C1029 C1020 1.390 . S
C1029 H1022 0.950 . S
C1029 C1026 1.387 . S
C1030 C1031 1.387 . S
C1030 H1034 0.950 . S
C1030 C1039 1.390 . S
C1031 C1030 1.387 . S
C1031 C1033 1.387 . S
H1032 C1039 0.950 . S
C1033 C1031 1.387 . S
C1033 C1035 1.390 . S
C1033 H1037 0.950 . S
H1034 C1030 0.950 . S
C1035 C1033 1.390 . S
C1035 C1036 1.387 . S
C1035 H1038 0.950 . S
C1036 C1035 1.387 . S
C1036 C1039 1.387 . S
H1037 C1033 0.950 . S
H1038 C1035 0.950 . S
C1039 C1030 1.390 . S
C1039 H1032 0.950 . S
C1039 C1036 1.387 . S
C1040 C1041 1.387 . S
C1040 H1044 0.950 . S
C1040 C1049 1.390 . S
C1041 C1040 1.387 . S
C1041 C1043 1.387 . S
H1042 C1049 0.950 . S
C1043 C1041 1.387 . S
C1043 C1045 1.390 . S
C1043 H1047 0.950 . S
H1044 C1040 0.950 . S
C1045 C1043 1.390 . S
C1045 C1046 1.387 . S
C1045 H1048 0.950 . S
C1046 C1045 1.387 . S
C1046 C1049 1.387 . S
H1047 C1043 0.950 . S
H1048 C1045 0.950 . S
C1049 C1040 1.390 . S
C1049 H1042 0.950 . S
C1049 C1046 1.387 . S
C1050 C1051 1.387 . S
C1050 H1054 0.950 . S
C1050 C1059 1.390 . S
C1051 C1050 1.387 . S
C1051 C1053 1.387 . S
H1052 C1059 0.950 . S
C1053 C1051 1.387 . S
C1053 C1055 1.390 . S
C1053 H1057 0.950 . S
H1054 C1050 0.950 . S
C1055 C1053 1.390 . S
C1055 C1056 1.387 . S
C1055 H1058 0.950 . S
C1056 C1055 1.387 . S
C1056 C1059 1.387 . S
H1057 C1053 0.950 . S
H1058 C1055 0.950 . S
C1059 C1050 1.390 . S
C1059 H1052 0.950 . S
C1059 C1056 1.387 . S
C1060 C1061 1.387 . S
C1060 H1064 0.950 . S
C1060 C1069 1.390 . S
C1061 C1060 1.387 . S
C1061 C1063 1.387 . S
H1062 C1069 0.950 . S
C1063 C1061 1.387 . S
C1063 C1065 1.390 . S
C1063 H1067 0.950 . S
H1064 C1060 0.950 . S
C1065 C1063 1.390 . S
C1065 C1066 1.387 . S
C1065 H1068 0.950 . S
C1066 C1065 1.387 . S
C1066 C1069 1.387 . S
H1067 C1063 0.950 . S
H1068 C1065 0.950 . S
C1069 C1060 1.390 . S
C1069 H1062 0.950 . S
C1069 C1066 1.387 . S
C1070 C1071 1.387 . S
C1070 H1074 0.950 . S
C1070 C1079 1.390 . S
C1071 C1070 1.387 . S
C1071 C1073 1.387 . S
H1072 C1079 0.950 . S
C1073 C1071 1.387 . S
C1073 C1075 1.390 . S
C1073 H1077 0.950 . S
H1074 C1070 0.950 . S
C1075 C1073 1.390 . S
C1075 C1076 1.387 . S
C1075 H1078 0.950 . S
C1076 C1075 1.387 . S
C1076 C1079 1.387 . S
H1077 C1073 0.950 . S
H1078 C1075 0.950 . S
C1079 C1070 1.390 . S
C1079 H1072 0.950 . S
C1079 C1076 1.387 . S
C1080 C1081 1.387 1_456 S
C1080 H1084 0.950 . S
C1080 C1089 1.390 . S
C1081 C1080 1.387 1_654 S
C1081 C1083 1.387 . S
H1082 C1089 0.950 . S
C1083 C1081 1.387 . S
C1083 C1085 1.390 1_554 S
C1083 H1087 0.950 . S
H1084 C1080 0.950 . S
C1085 C1083 1.390 1_556 S
C1085 C1086 1.387 1_655 S
C1085 H1088 0.950 . S
C1086 C1085 1.387 1_455 S
C1086 C1089 1.387 . S
H1087 C1083 0.950 . S
H1088 C1085 0.950 . S
C1089 C1080 1.390 . S
C1089 H1082 0.950 . S
C1089 C1086 1.387 . S
C1090 C1091 1.387 1_556 S
C1090 H1094 0.950 1_556 S
C1090 C1099 1.390 . S
C1091 C1090 1.387 1_554 S
C1091 C1093 1.387 1_554 S
H1092 C1099 0.950 . S
C1093 C1091 1.387 1_556 S
C1093 C1095 1.390 . S
C1093 H1097 0.950 1_556 S
H1094 C1090 0.950 1_554 S
C1095 C1093 1.390 . S
C1095 C1096 1.387 . S
C1095 H1098 0.950 . S
C1096 C1095 1.387 . S
C1096 C1099 1.387 . S
H1097 C1093 0.950 1_554 S
H1098 C1095 0.950 . S
C1099 C1090 1.390 . S
C1099 H1092 0.950 . S
C1099 C1096 1.387 . S
C1100 C1101 1.387 1_565 S
C1100 H1104 0.950 . S
C1100 C1109 1.390 1_554 S
C1101 C1100 1.387 1_545 S
C1101 C1103 1.387 1_554 S
H1102 C1109 0.950 . S
C1103 C1101 1.387 1_556 S
C1103 C1105 1.390 . S
C1103 H1107 0.950 . S
H1104 C1100 0.950 . S
C1105 C1103 1.390 . S
C1105 C1106 1.387 . S
C1105 H1108 0.950 . S
C1106 C1105 1.387 . S
C1106 C1109 1.387 1_545 S
H1107 C1103 0.950 . S
H1108 C1105 0.950 . S
C1109 C1100 1.390 1_556 S
C1109 H1102 0.950 . S
C1109 C1106 1.387 1_565 S
C1110 C1111 1.387 . S
C1110 H1114 0.950 . S
C1110 C1119 1.390 1_556 S
C1111 C1110 1.387 . S
C1111 C1113 1.387 1_456 S
H1112 C1119 0.950 . S
C1113 C1111 1.387 1_654 S
C1113 C1115 1.390 . S
C1113 H1117 0.950 . S
H1114 C1110 0.950 . S
C1115 C1113 1.390 . S
C1115 C1116 1.387 1_655 S
C1115 H1118 0.950 . S
C1116 C1115 1.387 1_455 S
C1116 C1119 1.387 . S
H1117 C1113 0.950 . S
H1118 C1115 0.950 . S
C1119 C1110 1.390 1_554 S
C1119 H1112 0.950 . S
C1119 C1116 1.387 . S
C1120 C1121 1.387 . S
C1120 H1124 0.950 . S
C1120 C1129 1.390 . S
C1121 C1120 1.387 . S
C1121 C1123 1.387 . S
H1122 C1129 0.950 1_556 S
C1123 C1121 1.387 . S
C1123 C1125 1.390 . S
C1123 H1127 0.950 . S
H1124 C1120 0.950 . S
C1125 C1123 1.390 . S
C1125 C1126 1.387 1_554 S
C1125 H1128 0.950 1_554 S
C1126 C1125 1.387 1_556 S
C1126 C1129 1.387 1_556 S
H1127 C1123 0.950 . S
H1128 C1125 0.950 1_556 S
C1129 C1120 1.390 . S
C1129 H1122 0.950 1_554 S
C1129 C1126 1.387 1_554 S
C1130 C1131 1.387 1_565 S
C1130 H1134 0.950 . S
C1130 C1139 1.390 . S
C1131 C1130 1.387 1_545 S
C1131 C1133 1.387 . S
H1132 C1139 0.957 . S
C1133 C1131 1.387 . S
C1133 C1135 1.390 . S
C1133 H1137 0.950 . S
H1134 C1130 0.950 . S
C1135 C1133 1.390 . S
C1135 C1136 1.385 1_544 S
C1135 H1138 0.950 1_554 S
C1136 C1135 1.385 1_566 S
C1136 C1139 1.391 1_556 S
H1137 C1133 0.950 . S
H1138 C1135 0.950 1_556 S
C1139 C1130 1.390 . S
C1139 H1132 0.957 . S
C1139 C1136 1.391 1_554 S
C1140 C1141 1.387 . S
C1140 H1144 0.950 . S
C1140 C1149 1.390 . S
C1141 C1140 1.387 . S
C1141 C1143 1.387 . S
H1142 C1149 0.950 . S
C1143 C1141 1.387 . S
C1143 C1145 1.390 . S
C1143 H1147 0.950 . S
H1144 C1140 0.950 . S
C1145 C1143 1.390 . S
C1145 C1146 1.387 . S
C1145 H1148 0.950 . S
C1146 C1145 1.387 . S
C1146 C1149 1.387 . S
H1147 C1143 0.950 . S
H1148 C1145 0.950 . S
C1149 C1140 1.390 . S
C1149 H1142 0.950 . S
C1149 C1146 1.387 . S
C1150 C1151 1.387 . S
C1150 H1154 0.950 . S
C1150 C1159 1.390 . S
C1151 C1150 1.387 . S
C1151 C1153 1.387 . S
H1152 C1159 0.950 . S
C1153 C1151 1.387 . S
C1153 C1155 1.390 . S
C1153 H1157 0.950 . S
H1154 C1150 0.950 . S
C1155 C1153 1.390 . S
C1155 C1156 1.387 . S
C1155 H1158 0.950 . S
C1156 C1155 1.387 . S
C1156 C1159 1.387 . S
H1157 C1153 0.950 . S
H1158 C1155 0.950 . S
C1159 C1150 1.390 . S
C1159 H1152 0.950 . S
C1159 C1156 1.387 . S
C1160 C1161 1.387 . S
C1160 H1164 0.950 . S
C1160 C1169 1.390 . S
C1161 C1160 1.387 . S
C1161 C1163 1.387 . S
H1162 C1169 0.950 . S
C1163 C1161 1.387 . S
C1163 C1165 1.390 . S
C1163 H1167 0.950 . S
H1164 C1160 0.950 . S
C1165 C1163 1.390 . S
C1165 C1166 1.387 . S
C1165 H1168 0.950 . S
C1166 C1165 1.387 . S
C1166 C1169 1.387 . S
H1167 C1163 0.950 . S
H1168 C1165 0.950 . S
C1169 C1160 1.390 . S
C1169 H1162 0.950 . S
C1169 C1166 1.387 . S
C1170 C1171 1.387 . S
C1170 H1174 0.950 . S
C1170 C1179 1.390 . S
C1171 C1170 1.387 . S
C1171 C1173 1.387 . S
H1172 C1179 0.950 . S
C1173 C1171 1.387 . S
C1173 C1175 1.390 . S
C1173 H1177 0.950 . S
H1174 C1170 0.950 . S
C1175 C1173 1.390 . S
C1175 C1176 1.387 . S
C1175 H1178 0.950 . S
C1176 C1175 1.387 . S
C1176 C1179 1.387 . S
H1177 C1173 0.950 . S
H1178 C1175 0.950 . S
C1179 C1170 1.390 . S
C1179 H1172 0.950 . S
C1179 C1176 1.387 . S
C1180 C1181 1.387 . S
C1180 H1184 0.950 . S
C1180 C1189 1.390 . S
C1181 C1180 1.387 . S
C1181 C1183 1.387 . S
H1182 C1189 0.950 . S
C1183 C1181 1.387 . S
C1183 C1185 1.390 . S
C1183 H1187 0.950 . S
H1184 C1180 0.950 . S
C1185 C1183 1.390 . S
C1185 C1186 1.387 . S
C1185 H1188 0.950 . S
C1186 C1185 1.387 . S
C1186 C1189 1.387 . S
H1187 C1183 0.950 . S
H1188 C1185 0.950 . S
C1189 C1180 1.390 . S
C1189 H1182 0.950 . S
C1189 C1186 1.387 . S
C1190 C1191 1.387 . S
C1190 H1194 0.950 . S
C1190 C1199 1.390 . S
C1191 C1190 1.387 . S
C1191 C1193 1.387 . S
H1192 C1199 0.950 . S
C1193 C1191 1.387 . S
C1193 C1195 1.390 . S
C1193 H1197 0.950 . S
H1194 C1190 0.950 . S
C1195 C1193 1.390 . S
C1195 C1196 1.387 . S
C1195 H1198 0.950 . S
C1196 C1195 1.387 . S
C1196 C1199 1.387 . S
H1197 C1193 0.950 . S
H1198 C1195 0.950 . S
C1199 C1190 1.390 . S
C1199 H1192 0.950 . S
C1199 C1196 1.387 . S
C1200 C1201 1.387 . S
C1200 H1204 0.950 . S
C1200 C1209 1.390 . S
C1201 C1200 1.387 . S
C1201 C1203 1.387 . S
H1202 C1209 0.950 . S
C1203 C1201 1.387 . S
C1203 C1205 1.390 . S
C1203 H1207 0.950 . S
H1204 C1200 0.950 . S
C1205 C1203 1.390 . S
C1205 C1206 1.387 . S
C1205 H1208 0.950 . S
C1206 C1205 1.387 . S
C1206 C1209 1.387 . S
H1207 C1203 0.950 . S
H1208 C1205 0.950 . S
C1209 C1200 1.390 . S
C1209 H1202 0.950 . S
C1209 C1206 1.387 . S
C1210 C1211 1.387 . S
C1210 H1214 0.950 . S
C1210 C1219 1.390 . S
C1211 C1210 1.387 . S
C1211 C1213 1.387 . S
H1212 C1219 0.950 . S
C1213 C1211 1.387 . S
C1213 C1215 1.390 . S
C1213 H1217 0.950 . S
H1214 C1210 0.950 . S
C1215 C1213 1.390 . S
C1215 C1216 1.387 . S
C1215 H1218 0.950 . S
C1216 C1215 1.387 . S
C1216 C1219 1.387 . S
H1217 C1213 0.950 . S
H1218 C1215 0.950 . S
C1219 C1210 1.390 . S
C1219 H1212 0.950 . S
C1219 C1216 1.387 . S
C1220 C1221 1.387 . S
C1220 H1224 0.950 . S
C1220 C1229 1.390 . S
C1221 C1220 1.387 . S
C1221 C1223 1.387 . S
H1222 C1229 0.950 . S
C1223 C1221 1.387 . S
C1223 C1225 1.390 . S
C1223 H1227 0.950 . S
H1224 C1220 0.950 . S
C1225 C1223 1.390 . S
C1225 C1226 1.387 . S
C1225 H1228 0.950 . S
C1226 C1225 1.387 . S
C1226 C1229 1.387 . S
H1227 C1223 0.950 . S
H1228 C1225 0.950 . S
C1229 C1220 1.390 . S
C1229 H1222 0.950 . S
C1229 C1226 1.387 . S
C1230 C1231 1.387 . S
C1230 H1234 0.950 . S
C1230 C1239 1.390 . S
C1231 C1230 1.387 . S
C1231 C1233 1.387 . S
H1232 C1239 0.950 . S
C1233 C1231 1.387 . S
C1233 C1235 1.390 . S
C1233 H1237 0.950 . S
H1234 C1230 0.950 . S
C1235 C1233 1.390 . S
C1235 C1236 1.387 . S
C1235 H1238 0.950 . S
C1236 C1235 1.387 . S
C1236 C1239 1.387 . S
H1237 C1233 0.950 . S
H1238 C1235 0.950 . S
C1239 C1230 1.390 . S
C1239 H1232 0.950 . S
C1239 C1236 1.387 . S
C1240 C1241 1.387 . S
C1240 H1244 0.950 . S
C1240 C1249 1.390 . S
C1241 C1240 1.387 . S
C1241 C1243 1.387 . S
H1242 C1249 0.950 . S
C1243 C1241 1.387 . S
C1243 C1245 1.390 . S
C1243 H1247 0.950 . S
H1244 C1240 0.950 . S
C1245 C1243 1.390 . S
C1245 C1246 1.387 . S
C1245 H1248 0.950 . S
C1246 C1245 1.387 . S
C1246 C1249 1.387 . S
H1247 C1243 0.950 . S
H1248 C1245 0.950 . S
C1249 C1240 1.390 . S
C1249 H1242 0.950 . S
C1249 C1246 1.387 . S
C1250 C1251 1.387 . S
C1250 H1254 0.950 . S
C1250 C1259 1.390 . S
C1251 C1250 1.387 . S
C1251 C1253 1.387 . S
H1252 C1259 0.950 . S
C1253 C1251 1.387 . S
C1253 C1255 1.390 . S
C1253 H1257 0.950 . S
H1254 C1250 0.950 . S
C1255 C1253 1.390 . S
C1255 C1256 1.387 . S
C1255 H1258 0.950 . S
C1256 C1255 1.387 . S
C1256 C1259 1.387 . S
H1257 C1253 0.950 . S
H1258 C1255 0.950 . S
C1259 C1250 1.390 . S
C1259 H1252 0.950 . S
C1259 C1256 1.387 . S
C721 C543 2.316 . S
C726 C24 2.280 . S
C731 C64 2.278 . S
C736 C583 2.314 . S
C741 C104 2.279 . S
C746 C503 2.316 . S
C751 C103 2.316 . S
C756 C304 2.280 . S
C761 C344 2.278 . S
C766 C23 2.315 . S
C771 C63 2.316 . S
C776 C264 2.280 . S
C781 C133 2.278 . S
C786 C402 2.314 . S
C791 C173 2.279 . S
C796 C442 2.315 . S
C801 C362 2.315 . S
C806 C213 2.279 . S
C811 C653 2.281 . S
C816 C202 2.316 . S
C821 C122 2.314 . S
C826 C693 2.278 . S
C831 C613 2.280 . S
C836 C162 2.316 . S
C841 C343 2.316 . S
C846 C544 2.280 1_556 S
C851 C263 2.314 . S
C856 C584 2.279 1_556 S
C861 C303 2.314 . S
C866 C504 2.278 1_556 S
C871 C373 2.280 1_554 S
C876 C642 2.316 . S
C881 C682 2.316 . S
C886 C413 2.280 1_554 S
C891 C602 2.316 . S
C896 C453 2.280 1_554 S
C901 C2 1.670 . S
C906 C184 1.824 . S
C911 C224 1.822 . S
C916 C42 1.671 . S
C921 C144 1.824 . S
C926 C82 1.671 . S
C931 C183 1.673 . S
C936 C93 1.823 . S
C941 C223 1.671 . S
C946 C13 1.823 . S
C951 C143 1.675 . S
C956 C53 1.823 . S
C961 C424 1.824 . S
C966 C242 1.670 . S
C971 C464 1.823 . S
C976 C282 1.671 . S
C981 C384 1.823 . S
C986 C322 1.671 . S
C991 C423 1.672 . S
C996 C333 1.824 . S
C1001 C463 1.670 . S
C1006 C253 1.822 . S
C1011 C383 1.674 . S
C1016 C293 1.822 . S
C1021 C664 1.822 . S
C1026 C482 1.673 . S
C1031 C704 1.824 . S
C1036 C522 1.674 . S
C1041 C562 1.670 . S
C1046 C624 1.823 . S
C1051 C573 1.824 . S
C1056 C663 1.672 . S
C1061 C493 1.824 . S
C1066 C703 1.671 . S
C1071 C623 1.670 . S
C1076 C533 1.824 . S
C1081 C17 1.194 1_655 S
C1086 C26 1.193 . S
C1091 C57 1.194 . S
C1096 C66 1.194 . S
C1101 C97 1.193 . S
C1106 C106 1.193 . S
C1111 C146 1.193 . S
C1116 C137 1.193 . S
C1121 C177 1.194 . S
C1126 C186 1.194 . S
C1131 C217 1.193 . S
C1136 C226 1.192 1_565 S
C1141 C266 1.190 . S
C1146 C257 1.190 . S
C1151 C297 1.193 . S
C1156 C306 1.193 . S
C1161 C346 1.190 . S
C1166 C337 1.190 . S
C1171 C386 1.190 . S
C1176 C377 1.190 . S
C1181 C426 1.190 . S
C1186 C417 1.190 . S
C1191 C466 1.190 . S
C1196 C457 1.190 . S
C1201 C506 1.190 . S
C1206 C497 1.190 . S
C1211 C537 1.190 . S
C1216 C546 1.190 . S
C1221 C577 1.194 . S
C1226 C586 1.194 . S
C1231 C617 1.193 . S
C1236 C626 1.193 . S
C1241 C657 1.190 . S
C1246 C666 1.190 . S
C1251 C706 1.193 . S
C1256 C697 1.193 . S
