# Generated by pormake.
# Topology gsi, (4)-cn, num edge types: 1
# Building blocks:
#     Node 0, Type 0, BuildingBlock: TATPOV_clean_sbu_0, # of connection points: 4
#     Node 1, Type 0, BuildingBlock: TATPOV_clean_sbu_0, # of connection points: 4
#     Node 2, Type 0, BuildingBlock: TATPOV_clean_sbu_0, # of connection points: 4
#     Node 3, Type 0, BuildingBlock: TATPOV_clean_sbu_0, # of connection points: 4
#     Node 4, Type 0, BuildingBlock: TATPOV_clean_sbu_0, # of connection points: 4
#     Node 5, Type 0, BuildingBlock: TATPOV_clean_sbu_0, # of connection points: 4
#     Node 6, Type 0, BuildingBlock: TATPOV_clean_sbu_0, # of connection points: 4
#     Node 7, Type 0, BuildingBlock: TATPOV_clean_sbu_0, # of connection points: 4
#     Node 8, Type 0, BuildingBlock: TATPOV_clean_sbu_0, # of connection points: 4
#     Node 9, Type 0, BuildingBlock: TATPOV_clean_sbu_0, # of connection points: 4
#     Node 10, Type 0, BuildingBlock: TATPOV_clean_sbu_0, # of connection points: 4
#     Node 11, Type 0, BuildingBlock: TATPOV_clean_sbu_0, # of connection points: 4
#     Node 12, Type 0, BuildingBlock: TATPOV_clean_sbu_0, # of connection points: 4
#     Node 13, Type 0, BuildingBlock: TATPOV_clean_sbu_0, # of connection points: 4
#     Node 14, Type 0, BuildingBlock: TATPOV_clean_sbu_0, # of connection points: 4
#     Node 15, Type 0, BuildingBlock: TATPOV_clean_sbu_0, # of connection points: 4
#     Edge 16, Type (0, 0), BuildingBlock: XIVTED_clean_linker_0, # of connection points: 2
#     Edge 17, Type (0, 0), BuildingBlock: XIVTED_clean_linker_0, # of connection points: 2
#     Edge 18, Type (0, 0), BuildingBlock: XIVTED_clean_linker_0, # of connection points: 2
#     Edge 19, Type (0, 0), BuildingBlock: XIVTED_clean_linker_0, # of connection points: 2
#     Edge 20, Type (0, 0), BuildingBlock: XIVTED_clean_linker_0, # of connection points: 2
#     Edge 21, Type (0, 0), BuildingBlock: XIVTED_clean_linker_0, # of connection points: 2
#     Edge 22, Type (0, 0), BuildingBlock: XIVTED_clean_linker_0, # of connection points: 2
#     Edge 23, Type (0, 0), BuildingBlock: XIVTED_clean_linker_0, # of connection points: 2
#     Edge 24, Type (0, 0), BuildingBlock: XIVTED_clean_linker_0, # of connection points: 2
#     Edge 25, Type (0, 0), BuildingBlock: XIVTED_clean_linker_0, # of connection points: 2
#     Edge 26, Type (0, 0), BuildingBlock: XIVTED_clean_linker_0, # of connection points: 2
#     Edge 27, Type (0, 0), BuildingBlock: XIVTED_clean_linker_0, # of connection points: 2
#     Edge 28, Type (0, 0), BuildingBlock: XIVTED_clean_linker_0, # of connection points: 2
#     Edge 29, Type (0, 0), BuildingBlock: XIVTED_clean_linker_0, # of connection points: 2
#     Edge 30, Type (0, 0), BuildingBlock: XIVTED_clean_linker_0, # of connection points: 2
#     Edge 31, Type (0, 0), BuildingBlock: XIVTED_clean_linker_0, # of connection points: 2
#     Edge 32, Type (0, 0), BuildingBlock: XIVTED_clean_linker_0, # of connection points: 2
#     Edge 33, Type (0, 0), BuildingBlock: XIVTED_clean_linker_0, # of connection points: 2
#     Edge 34, Type (0, 0), BuildingBlock: XIVTED_clean_linker_0, # of connection points: 2
#     Edge 35, Type (0, 0), BuildingBlock: XIVTED_clean_linker_0, # of connection points: 2
#     Edge 36, Type (0, 0), BuildingBlock: XIVTED_clean_linker_0, # of connection points: 2
#     Edge 37, Type (0, 0), BuildingBlock: XIVTED_clean_linker_0, # of connection points: 2
#     Edge 38, Type (0, 0), BuildingBlock: XIVTED_clean_linker_0, # of connection points: 2
#     Edge 39, Type (0, 0), BuildingBlock: XIVTED_clean_linker_0, # of connection points: 2
#     Edge 40, Type (0, 0), BuildingBlock: XIVTED_clean_linker_0, # of connection points: 2
#     Edge 41, Type (0, 0), BuildingBlock: XIVTED_clean_linker_0, # of connection points: 2
#     Edge 42, Type (0, 0), BuildingBlock: XIVTED_clean_linker_0, # of connection points: 2
#     Edge 43, Type (0, 0), BuildingBlock: XIVTED_clean_linker_0, # of connection points: 2
#     Edge 44, Type (0, 0), BuildingBlock: XIVTED_clean_linker_0, # of connection points: 2
#     Edge 45, Type (0, 0), BuildingBlock: XIVTED_clean_linker_0, # of connection points: 2
#     Edge 46, Type (0, 0), BuildingBlock: XIVTED_clean_linker_0, # of connection points: 2
#     Edge 47, Type (0, 0), BuildingBlock: XIVTED_clean_linker_0, # of connection points: 2
# Relax obj value: 0.042
# Max RMSD: 0.070
# Mean RMSD: 0.054
data_MOF--net-gsi--node1-TATPOV_clean_sbu_0--edge1-XIVTED_clean_linker_0
_symmetry_space_group_name_H-M    P1
_symmetry_Int_Tables_number       1
_symmetry_cell_setting            triclinic
loop_
_symmetry_equiv_pos_as_xyz
'x, y, z'
_cell_length_a     41.92437
_cell_length_b     42.902807
_cell_length_c     42.908617
_cell_angle_alpha  90.999946
_cell_angle_beta   90.100247
_cell_angle_gamma 93.500452
loop_
_atom_site_label
_atom_site_type_symbol
_atom_site_fract_x
_atom_site_fract_y
_atom_site_fract_z
_atom_type_partial_charge
Zn0 Zn 0.10071 0.13577 0.19554 0.0
Zn1 Zn 0.14464 0.12847 0.15039 0.0
O2 O 0.13418 0.08421 0.16734 0.0
O3 O 0.09777 0.08993 0.20358 0.0
O4 O 0.17611 0.12171 0.11549 0.0
O5 O 0.07147 0.15372 0.16442 0.0
O6 O 0.10952 0.15241 0.12915 0.0
C7 C 0.11575 0.07261 0.18836 0.0
C8 C 0.16257 0.16762 0.20843 0.0
O9 O 0.16993 0.15536 0.18241 0.0
O10 O 0.1344 0.16351 0.21896 0.0
C11 C 0.19813 0.14218 0.10863 0.0
O12 O 0.20075 0.16854 0.12473 0.0
C13 C 0.08174 0.1598 0.13736 0.0
Zn14 Zn 0.92931 0.34688 0.20886 0.0
Zn15 Zn 0.8912 0.35957 0.1593 0.0
O16 O 0.90474 0.40322 0.17731 0.0
O17 O 0.93432 0.39319 0.21804 0.0
O18 O 0.86062 0.36555 0.12383 0.0
O19 O 0.95904 0.32745 0.17802 0.0
O20 O 0.92604 0.33447 0.13903 0.0
C21 C 0.92144 0.41267 0.20092 0.0
C22 C 0.86499 0.32029 0.21407 0.0
O23 O 0.86225 0.33423 0.18838 0.0
O24 O 0.89177 0.3211 0.22791 0.0
C25 C 0.84947 0.39089 0.11512 0.0
O26 O 0.85904 0.41735 0.12902 0.0
C27 C 0.95174 0.32415 0.14945 0.0
Zn28 Zn 0.23698 0.87841 0.35553 0.0
Zn29 Zn 0.17874 0.85381 0.36921 0.0
O30 O 0.19849 0.865 0.41282 0.0
O31 O 0.24375 0.8907 0.40046 0.0
O32 O 0.13399 0.83501 0.3767 0.0
O33 O 0.21841 0.90742 0.32542 0.0
O34 O 0.17024 0.88991 0.33957 0.0
C35 C 0.22415 0.88068 0.42089 0.0
C36 C 0.22777 0.81479 0.33584 0.0
O37 O 0.19971 0.81836 0.34606 0.0
O38 O 0.24926 0.8367 0.33877 0.0
C39 C 0.12789 0.80891 0.3897 0.0
O40 O 0.15154 0.79384 0.40106 0.0
C41 C 0.18837 0.90792 0.32305 0.0
Zn42 Zn 0.80622 0.61916 0.34682 0.0
Zn43 Zn 0.85921 0.65271 0.36337 0.0
O44 O 0.8381 0.64064 0.40576 0.0
O45 O 0.79554 0.61113 0.39155 0.0
O46 O 0.90056 0.67746 0.37523 0.0
O47 O 0.83058 0.58998 0.32139 0.0
O48 O 0.87511 0.61681 0.33498 0.0
C49 C 0.81303 0.62385 0.41284 0.0
C50 C 0.80718 0.68128 0.32443 0.0
O51 O 0.83377 0.68421 0.33893 0.0
O52 O 0.79053 0.6557 0.32451 0.0
C53 C 0.91274 0.69754 0.3565 0.0
O54 O 0.89818 0.70185 0.32992 0.0
C55 C 0.86058 0.59446 0.31962 0.0
Zn56 Zn 0.43247 0.83781 0.70589 0.0
Zn57 Zn 0.39365 0.85153 0.65715 0.0
O58 O 0.40788 0.89474 0.67587 0.0
O59 O 0.438 0.88387 0.71596 0.0
O60 O 0.36276 0.8586 0.62212 0.0
O61 O 0.46153 0.81867 0.67429 0.0
O62 O 0.42786 0.82628 0.63601 0.0
C63 C 0.42495 0.9037 0.6994 0.0
C64 C 0.36806 0.81153 0.71162 0.0
O65 O 0.36497 0.82592 0.68624 0.0
O66 O 0.39505 0.81194 0.72502 0.0
C67 C 0.3491 0.88362 0.61671 0.0
O68 O 0.35597 0.90866 0.63405 0.0
C69 C 0.45367 0.81569 0.64583 0.0
Zn70 Zn 0.88681 0.82164 0.83107 0.0
Zn71 Zn 0.84754 0.82954 0.87838 0.0
O72 O 0.88782 0.81088 0.89805 0.0
O73 O 0.92151 0.80925 0.85877 0.0
O74 O 0.8178 0.83508 0.91533 0.0
O75 O 0.88585 0.86581 0.81863 0.0
O76 O 0.85163 0.87296 0.85666 0.0
C77 C 0.91525 0.80517 0.88723 0.0
C78 C 0.82804 0.7838 0.82536 0.0
O79 O 0.82174 0.79767 0.85089 0.0
O80 O 0.8548 0.78936 0.81226 0.0
C81 C 0.80794 0.81049 0.92947 0.0
O82 O 0.81799 0.78352 0.91995 0.0
C83 C 0.8677 0.88334 0.83331 0.0
Zn84 Zn 0.1079 0.66768 0.78965 0.0
Zn85 Zn 0.14173 0.64587 0.8374 0.0
O86 O 0.10586 0.66792 0.86003 0.0
O87 O 0.07453 0.67954 0.82111 0.0
O88 O 0.16674 0.62864 0.87302 0.0
O89 O 0.10492 0.62502 0.7692 0.0
O90 O 0.12738 0.60668 0.81105 0.0
C91 C 0.08019 0.6787 0.85008 0.0
C92 C 0.17209 0.69494 0.79332 0.0
O93 O 0.17417 0.67557 0.81527 0.0
O94 O 0.14568 0.69733 0.77943 0.0
C95 C 0.19097 0.64349 0.88525 0.0
O96 O 0.20052 0.6709 0.87434 0.0
C97 C 0.11434 0.60222 0.7843 0.0
Zn98 Zn 0.75993 0.07703 0.6525 0.0
Zn99 Zn 0.82024 0.1023 0.64529 0.0
O100 O 0.82679 0.06251 0.67054 0.0
O101 O 0.77763 0.04254 0.67709 0.0
O102 O 0.8645 0.12341 0.63972 0.0
O103 O 0.75421 0.07446 0.60588 0.0
O104 O 0.8021 0.09777 0.60045 0.0
C105 C 0.80732 0.04195 0.68232 0.0
C106 C 0.77062 0.13657 0.68312 0.0
O107 O 0.79871 0.13424 0.67246 0.0
O108 O 0.74883 0.11562 0.67687 0.0
C109 C 0.88441 0.12355 0.66212 0.0
O110 O 0.87621 0.10868 0.68767 0.0
C111 C 0.776 0.08623 0.58851 0.0
Zn112 Zn 0.10518 0.32017 0.7241 0.0
Zn113 Zn 0.12404 0.32825 0.66754 0.0
O114 O 0.08636 0.29397 0.66211 0.0
O115 O 0.07679 0.28319 0.7113 0.0
O116 O 0.14358 0.3338 0.62438 0.0
O117 O 0.08865 0.36239 0.72718 0.0
O118 O 0.11165 0.37272 0.68218 0.0
C119 C 0.07153 0.27749 0.68267 0.0
C120 C 0.16998 0.31062 0.72003 0.0
O121 O 0.16317 0.31331 0.69129 0.0
O122 O 0.14892 0.31442 0.74054 0.0
C123 C 0.15545 0.30985 0.61219 0.0
O124 O 0.15199 0.28322 0.62685 0.0
C125 C 0.09689 0.38181 0.70644 0.0
Zn126 Zn 0.60431 0.17465 0.29155 0.0
Zn127 Zn 0.64091 0.1509 0.33685 0.0
O128 O 0.60458 0.17077 0.36141 0.0
O129 O 0.57315 0.18706 0.32457 0.0
O130 O 0.66673 0.1323 0.37109 0.0
O131 O 0.59824 0.13209 0.27115 0.0
O132 O 0.62869 0.11332 0.30745 0.0
C133 C 0.57926 0.18342 0.35312 0.0
C134 C 0.66943 0.20175 0.29424 0.0
O135 O 0.67204 0.1826 0.31628 0.0
O136 O 0.64294 0.20335 0.28023 0.0
C137 C 0.6908 0.14697 0.38379 0.0
O138 O 0.69972 0.17507 0.37421 0.0
C139 C 0.61194 0.10945 0.28266 0.0
Zn140 Zn 0.59462 0.62411 0.69757 0.0
Zn141 Zn 0.63897 0.6153 0.65273 0.0
O142 O 0.62678 0.57114 0.66892 0.0
O143 O 0.591 0.57815 0.70551 0.0
O144 O 0.67132 0.60854 0.61865 0.0
O145 O 0.56658 0.64243 0.66543 0.0
O146 O 0.60498 0.63978 0.63068 0.0
C147 C 0.60807 0.56015 0.69002 0.0
C148 C 0.6568 0.65454 0.71105 0.0
O149 O 0.66404 0.64164 0.68531 0.0
O150 O 0.62845 0.65145 0.72129 0.0
C151 C 0.69222 0.63008 0.61174 0.0
O152 O 0.69273 0.65681 0.62719 0.0
C153 C 0.57735 0.64792 0.63842 0.0
Zn154 Zn 0.73433 0.37226 0.85347 0.0
Zn155 Zn 0.67871 0.34365 0.87021 0.0
O156 O 0.69938 0.35837 0.91245 0.0
O157 O 0.74213 0.38675 0.89765 0.0
O158 O 0.63759 0.31904 0.88111 0.0
O159 O 0.7106 0.39759 0.82349 0.0
O160 O 0.66434 0.37752 0.84044 0.0
C161 C 0.72408 0.37616 0.9191 0.0
C162 C 0.73053 0.30865 0.83532 0.0
O163 O 0.70255 0.31049 0.84644 0.0
O164 O 0.75054 0.33192 0.83724 0.0
C165 C 0.61107 0.33111 0.88609 0.0
O166 O 0.60993 0.36164 0.88586 0.0
C167 C 0.68037 0.39591 0.82248 0.0
Zn168 Zn 0.30984 0.11526 0.84198 0.0
Zn169 Zn 0.36366 0.14701 0.85836 0.0
O170 O 0.34108 0.13777 0.90073 0.0
O171 O 0.29763 0.1095 0.88673 0.0
O172 O 0.40519 0.17105 0.87004 0.0
O173 O 0.33327 0.08399 0.81834 0.0
O174 O 0.37866 0.10944 0.83171 0.0
C175 C 0.31517 0.12238 0.9079 0.0
C176 C 0.31473 0.17632 0.81666 0.0
O177 O 0.34103 0.17859 0.83166 0.0
O178 O 0.29668 0.15165 0.81766 0.0
C179 C 0.40516 0.19906 0.88028 0.0
O180 O 0.37769 0.2117 0.88448 0.0
C181 C 0.36339 0.08715 0.8169 0.0
Zn182 Zn 0.39112 0.33078 0.33658 0.0
Zn183 Zn 0.35072 0.33698 0.38329 0.0
O184 O 0.39062 0.31756 0.403 0.0
O185 O 0.42528 0.31742 0.36445 0.0
O186 O 0.32005 0.3411 0.41981 0.0
O187 O 0.39027 0.37536 0.32551 0.0
O188 O 0.35491 0.38102 0.36281 0.0
C189 C 0.41831 0.31222 0.39257 0.0
C190 C 0.3325 0.29316 0.32837 0.0
O191 O 0.32567 0.30608 0.35425 0.0
O192 O 0.35954 0.29917 0.31599 0.0
C193 C 0.30938 0.31579 0.43217 0.0
O194 O 0.31933 0.28927 0.42128 0.0
C195 C 0.37146 0.39224 0.34013 0.0
Zn196 Zn 0.26007 0.58124 0.15668 0.0
Zn197 Zn 0.32017 0.6069 0.14852 0.0
O198 O 0.32757 0.56811 0.17495 0.0
O199 O 0.27865 0.54778 0.18216 0.0
O200 O 0.36407 0.62859 0.14258 0.0
O201 O 0.2543 0.5775 0.11006 0.0
O202 O 0.30205 0.60084 0.10382 0.0
C203 C 0.30839 0.54769 0.18736 0.0
C204 C 0.27009 0.64158 0.18555 0.0
O205 O 0.29811 0.63919 0.17476 0.0
O206 O 0.24845 0.62027 0.1801 0.0
C207 C 0.38156 0.63322 0.16665 0.0
O208 O 0.37108 0.62233 0.19343 0.0
C209 C 0.27595 0.58885 0.09229 0.0
Zn210 Zn 0.60228 0.83588 0.22171 0.0
Zn211 Zn 0.62448 0.83433 0.16513 0.0
O212 O 0.58485 0.80199 0.16206 0.0
O213 O 0.57214 0.7993 0.21175 0.0
O214 O 0.64533 0.83459 0.12229 0.0
O215 O 0.58848 0.87929 0.21778 0.0
O216 O 0.61623 0.88104 0.17424 0.0
C217 C 0.56801 0.78961 0.18394 0.0
C218 C 0.66628 0.81981 0.22147 0.0
O219 O 0.66073 0.8191 0.19225 0.0
O220 O 0.64529 0.82869 0.24023 0.0
C221 C 0.65778 0.80994 0.1125 0.0
O222 O 0.65469 0.78471 0.12944 0.0
C223 C 0.60044 0.89466 0.19535 0.0
H224 H 0.15628 0.19614 0.26563 0.0
H225 H 0.33902 0.26177 0.27293 0.0
H226 H 0.22525 0.18068 0.19319 0.0
H227 H 0.27074 0.27766 0.3459 0.0
H228 H 0.29784 0.2306 0.24423 0.0
H229 H 0.19794 0.22529 0.29591 0.0
C230 C 0.18015 0.19892 0.25604 0.0
C231 C 0.18725 0.18597 0.22678 0.0
C232 C 0.29186 0.24081 0.26657 0.0
C233 C 0.23506 0.21919 0.26139 0.0
C234 C 0.31541 0.25858 0.28303 0.0
C235 C 0.30831 0.27248 0.31184 0.0
C236 C 0.26091 0.23691 0.27892 0.0
C237 C 0.27728 0.26745 0.32375 0.0
C238 C 0.20394 0.2155 0.27339 0.0
C239 C 0.21863 0.19026 0.2156 0.0
N240 N 0.25468 0.25017 0.30717 0.0
N241 N 0.24134 0.2065 0.23291 0.0
H242 H 0.86113 0.2849 0.26699 0.0
H243 H 0.6731 0.24396 0.2471 0.0
H244 H 0.80383 0.31755 0.19189 0.0
H245 H 0.73034 0.20389 0.3181 0.0
H246 H 0.72054 0.27381 0.22887 0.0
H247 H 0.81325 0.25736 0.28816 0.0
C248 C 0.83854 0.28631 0.25497 0.0
C249 C 0.83655 0.30349 0.22756 0.0
C250 C 0.72275 0.25856 0.2485 0.0
C251 C 0.78176 0.27218 0.25168 0.0
C252 C 0.69561 0.24152 0.25897 0.0
C253 C 0.69772 0.22125 0.2841 0.0
C254 C 0.7523 0.25537 0.26322 0.0
C255 C 0.72758 0.21916 0.29859 0.0
C256 C 0.81123 0.2706 0.26707 0.0
C257 C 0.80661 0.30453 0.21301 0.0
N258 N 0.75373 0.23593 0.28788 0.0
N259 N 0.78047 0.28911 0.22523 0.0
H260 H 0.31164 0.68972 0.20478 0.0
H261 H 0.18622 0.76537 0.3194 0.0
H262 H 0.2141 0.65292 0.21538 0.0
H263 H 0.28442 0.80038 0.30945 0.0
H264 H 0.1963 0.72279 0.28287 0.0
H265 H 0.30193 0.73029 0.24345 0.0
C266 C 0.28809 0.6903 0.21505 0.0
C267 C 0.26363 0.66788 0.2068 0.0
C268 C 0.21568 0.73969 0.28886 0.0
C269 C 0.25247 0.71412 0.2514 0.0
C270 C 0.20999 0.76391 0.30985 0.0
C271 C 0.23446 0.78661 0.31734 0.0
C272 C 0.24601 0.73822 0.27525 0.0
C273 C 0.26478 0.78352 0.30425 0.0
C274 C 0.28262 0.7134 0.23728 0.0
C275 C 0.23364 0.66976 0.22099 0.0
N276 N 0.26963 0.75992 0.28369 0.0
N277 N 0.22893 0.69245 0.24266 0.0
H278 H 0.78326 0.67678 0.26616 0.0
H279 H 0.69138 0.82771 0.28019 0.0
H280 H 0.80498 0.74324 0.34084 0.0
H281 H 0.70804 0.78343 0.19107 0.0
H282 H 0.73458 0.79946 0.30265 0.0
H283 H 0.75731 0.71689 0.2376 0.0
C284 C 0.78285 0.70007 0.2763 0.0
C285 C 0.79587 0.70682 0.30589 0.0
C286 C 0.72922 0.79647 0.27804 0.0
C287 C 0.76574 0.75261 0.27374 0.0
C288 C 0.70447 0.81243 0.26523 0.0
C289 C 0.69573 0.80742 0.23385 0.0
C290 C 0.74481 0.77492 0.25946 0.0
C291 C 0.71375 0.78771 0.21544 0.0
C292 C 0.76823 0.72298 0.25996 0.0
C293 C 0.79506 0.73728 0.31804 0.0
N294 N 0.73701 0.77166 0.22869 0.0
N295 N 0.7795 0.75902 0.30217 0.0
H296 H 0.36483 0.77517 0.76392 0.0
H297 H 0.17601 0.73795 0.74708 0.0
H298 H 0.30656 0.80977 0.69056 0.0
H299 H 0.23345 0.69502 0.81606 0.0
H300 H 0.22365 0.76706 0.72854 0.0
H301 H 0.31703 0.74782 0.78556 0.0
C302 C 0.34204 0.77704 0.75238 0.0
C303 C 0.33974 0.79473 0.72533 0.0
C304 C 0.2259 0.75134 0.74779 0.0
C305 C 0.28509 0.76368 0.74998 0.0
C306 C 0.19864 0.73471 0.75845 0.0
C307 C 0.20071 0.71388 0.7831 0.0
C308 C 0.25559 0.74718 0.76182 0.0
C309 C 0.23073 0.71077 0.79693 0.0
C310 C 0.31479 0.76143 0.76474 0.0
C311 C 0.30959 0.79635 0.71138 0.0
N312 N 0.25705 0.72719 0.78603 0.0
N313 N 0.28353 0.78105 0.72386 0.0
H314 H 0.6509 0.68491 0.76743 0.0
H315 H 0.83404 0.7495 0.77163 0.0
H316 H 0.71972 0.66569 0.6959 0.0
H317 H 0.76634 0.76945 0.84396 0.0
H318 H 0.79264 0.71701 0.74475 0.0
H319 H 0.69293 0.71474 0.79671 0.0
C320 C 0.67482 0.68696 0.75786 0.0
C321 C 0.68176 0.67282 0.72911 0.0
C322 C 0.78682 0.72838 0.76655 0.0
C323 C 0.72994 0.70683 0.76254 0.0
C324 C 0.8105 0.74694 0.78197 0.0
C325 C 0.80364 0.76238 0.81005 0.0
C326 C 0.75595 0.72524 0.7792 0.0
C327 C 0.77269 0.75805 0.82234 0.0
C328 C 0.6988 0.70395 0.77462 0.0
C329 C 0.7132 0.6762 0.71792 0.0
N330 N 0.74993 0.73999 0.80675 0.0
N331 N 0.73607 0.69288 0.73463 0.0
H332 H 0.78755 0.29691 0.80786 0.0
H333 H 0.71457 0.14704 0.71307 0.0
H334 H 0.69117 0.25744 0.81983 0.0
H335 H 0.81211 0.18427 0.70378 0.0
H336 H 0.70569 0.18716 0.75253 0.0
H337 H 0.79764 0.25461 0.77117 0.0
C338 C 0.76861 0.27915 0.80308 0.0
C339 C 0.73838 0.28085 0.81679 0.0
C340 C 0.72902 0.18658 0.74183 0.0
C341 C 0.74967 0.23261 0.77446 0.0
C342 C 0.73407 0.16378 0.71915 0.0
C343 C 0.76413 0.1623 0.70505 0.0
C344 C 0.75419 0.20809 0.75049 0.0
C345 C 0.78852 0.18455 0.71397 0.0
C346 C 0.77436 0.25507 0.782 0.0
C347 C 0.7148 0.25713 0.80975 0.0
N348 N 0.78302 0.2065 0.73616 0.0
N349 N 0.72087 0.23412 0.78887 0.0
H350 H 0.19952 0.32069 0.7762 0.0
H351 H 0.2905 0.17143 0.75841 0.0
H352 H 0.21131 0.27673 0.68609 0.0
H353 H 0.316 0.23878 0.83133 0.0
H354 H 0.26514 0.2118 0.72965 0.0
H355 H 0.24554 0.29451 0.79553 0.0
C356 C 0.21221 0.30596 0.76033 0.0
C357 C 0.20128 0.30029 0.72972 0.0
C358 C 0.27689 0.21804 0.75158 0.0
C359 C 0.25351 0.27001 0.75176 0.0
C360 C 0.29117 0.19498 0.76805 0.0
C361 C 0.30486 0.2019 0.79733 0.0
C362 C 0.27537 0.24795 0.76502 0.0
C363 C 0.30547 0.23268 0.80882 0.0
C364 C 0.23858 0.29118 0.77132 0.0
C365 C 0.2188 0.28142 0.70997 0.0
N366 N 0.29011 0.25453 0.79295 0.0
N367 N 0.24364 0.26628 0.72157 0.0
H368 H 0.21976 0.93701 0.2752 0.0
H369 H 0.07709 0.03863 0.22827 0.0
H370 H 0.12615 0.92413 0.31654 0.0
H371 H 0.16391 0.03426 0.17483 0.0
H372 H 0.09174 -0.00677 0.25737 0.0
H373 H 0.19797 0.97023 0.23622 0.0
C374 C 0.19456 0.94124 0.27615 0.0
C375 C 0.17482 0.92811 0.29948 0.0
C376 C 0.10726 0.0018 0.23886 0.0
C377 C 0.14961 0.96619 0.25458 0.0
C378 C 0.09887 0.02767 0.22213 0.0
C379 C 0.11964 0.04066 0.19949 0.0
C380 C 0.13679 -0.01089 0.23314 0.0
C381 C 0.14733 0.02528 0.1923 0.0
C382 C 0.18206 0.96001 0.25364 0.0
C383 C 0.14227 0.93402 0.29914 0.0
N384 N 0.15542 0.0007 0.20952 0.0
N385 N 0.13072 0.95297 0.27722 0.0
H386 H 0.88934 0.46012 0.17584 0.0
H387 H 0.92055 0.5719 0.32527 0.0
H388 H 0.95524 0.44086 0.24953 0.0
H389 H 0.83898 0.57221 0.26391 0.0
H390 H 0.94379 0.53306 0.29034 0.0
H391 H 0.88207 0.51111 0.19997 0.0
C392 C 0.90277 0.46681 0.19674 0.0
C393 C 0.9223 0.44584 0.2111 0.0
C394 C 0.92105 0.5421 0.28439 0.0
C395 C 0.91382 0.50404 0.23901 0.0
C396 C 0.90788 0.56419 0.30423 0.0
C397 C 0.8776 0.57463 0.29768 0.0
C398 C 0.90391 0.53104 0.25777 0.0
C399 C 0.86211 0.56417 0.27011 0.0
C400 C 0.89852 0.4959 0.21058 0.0
C401 C 0.93941 0.45603 0.23799 0.0
N402 N 0.87532 0.54284 0.25131 0.0
N403 N 0.93436 0.48422 0.2514 0.0
H404 H 0.27132 0.08043 0.93261 0.0
H405 H 0.24864 0.18026 0.08856 0.0
H406 H 0.33212 0.16197 0.95718 0.0
H407 H 0.19668 0.09238 0.06765 0.0
H408 H 0.28166 0.17276 0.0424 0.0
H409 H 0.24647 0.08277 0.98376 0.0
C410 C 0.2797 0.09868 0.94894 0.0
C411 C 0.30366 0.12122 0.94049 0.0
C412 C 0.26321 0.155 0.04806 0.0
C413 C 0.27487 0.12431 0.9992 0.0
C414 C 0.24427 0.15929 0.07439 0.0
C415 C 0.21961 0.13704 0.08188 0.0
C416 C 0.25736 0.12836 0.02895 0.0
C417 C 0.21524 0.11026 0.06273 0.0
C418 C 0.26546 0.10001 0.9782 0.0
C419 C 0.31372 0.14414 0.96273 0.0
N420 N 0.23373 0.10681 0.03706 0.0
N421 N 0.29896 0.14536 0.99095 0.0
H422 H 0.81448 0.34028 0.09091 0.0
H423 H 0.75789 0.42748 0.94241 0.0
H424 H 0.83038 0.43996 0.081 0.0
H425 H 0.71436 0.3384 0.96953 0.0
H426 H 0.78352 0.43319 0.99351 0.0
H427 H 0.77745 0.33908 0.04682 0.0
C428 C 0.81011 0.36195 0.07952 0.0
C429 C 0.82583 0.39025 0.08944 0.0
C430 C 0.76794 0.41263 0.98854 0.0
C431 C 0.78347 0.38896 0.0389 0.0
C432 C 0.75329 0.40936 0.95939 0.0
C433 C 0.73416 0.38233 0.95172 0.0
C434 C 0.76404 0.38836 1.00996 0.0
C435 C 0.72889 0.35962 0.97457 0.0
C436 C 0.78877 0.36126 0.05449 0.0
C437 C 0.81893 0.41763 0.07403 0.0
N438 N 0.74428 0.36287 1.00251 0.0
N439 N 0.79857 0.41624 0.04926 0.0
H440 H 0.31744 0.83387 0.5872 0.0
H441 H 0.25673 0.9308 0.44779 0.0
H442 H 0.32669 0.93462 0.58811 0.0
H443 H 0.21429 0.83945 0.46843 0.0
H444 H 0.28215 0.93318 0.49915 0.0
H445 H 0.28011 0.83509 0.54344 0.0
C446 C 0.31155 0.85627 0.57824 0.0
C447 C 0.32546 0.8842 0.59111 0.0
C448 C 0.26679 0.91286 0.49274 0.0
C449 C 0.28282 0.88571 0.54099 0.0
C450 C 0.25225 0.91151 0.46347 0.0
C451 C 0.23348 0.88486 0.45392 0.0
C452 C 0.26325 0.887 0.51228 0.0
C453 C 0.22847 0.86047 0.47503 0.0
C454 C 0.29004 0.85693 0.55344 0.0
C455 C 0.31666 0.91254 0.5788 0.0
N456 N 0.24384 0.86184 0.50305 0.0
N457 N 0.29624 0.91256 0.55413 0.0
H458 H 0.69465 0.57987 0.57158 0.0
H459 H 0.82979 0.66184 0.46335 0.0
H460 H 0.74084 0.67062 0.5921 0.0
H461 H 0.77098 0.57961 0.43664 0.0
H462 H 0.80449 0.66082 0.51491 0.0
H463 H 0.72922 0.57513 0.52619 0.0
C464 C 0.7122 0.59872 0.56669 0.0
C465 C 0.71457 0.62584 0.5855 0.0
C466 C 0.79744 0.64281 0.49784 0.0
C467 C 0.75429 0.62056 0.5335 0.0
C468 C 0.81202 0.64327 0.4685 0.0
C469 C 0.80223 0.62099 0.44555 0.0
C470 C 0.77312 0.61978 0.50424 0.0
C471 C 0.779 0.5975 0.45348 0.0
C472 C 0.73194 0.59601 0.54074 0.0
C473 C 0.73794 0.64942 0.57808 0.0
N474 N 0.76512 0.59764 0.48202 0.0
N475 N 0.75675 0.64632 0.55256 0.0
H476 H 0.93139 0.27767 0.10877 0.0
H477 H 0.1045 0.2115 0.1069 0.0
H478 H 0.01656 0.32586 0.14628 0.0
H479 H 0.01764 0.15652 0.12666 0.0
H480 H 0.07254 0.25539 0.09335 0.0
H481 H 0.96415 0.23643 0.08818 0.0
C482 C 0.95711 0.28017 0.11153 0.0
C483 C 0.97141 0.30479 0.12956 0.0
C484 C 0.06052 0.23325 0.09938 0.0
C485 C 0.00868 0.25836 0.10588 0.0
C486 C 0.07867 0.20818 0.10688 0.0
C487 C 0.06354 0.18067 0.1183 0.0
C488 C 0.0272 0.23036 0.10287 0.0
C489 C 0.03007 0.17759 0.11826 0.0
C490 C 0.97569 0.25667 0.09989 0.0
C491 C 0.00473 0.30695 0.1328 0.0
N492 N 0.01295 0.20237 0.11117 0.0
N493 N 0.02227 0.28378 0.12138 0.0
H494 H 0.93845 0.74906 0.32717 0.0
H495 H 0.1051 0.75486 0.41764 0.0
H496 H 0.95648 0.68717 0.40257 0.0
H497 H 0.07554 0.82907 0.35954 0.0
H498 H 0.05166 0.72886 0.41208 0.0
H499 H 0.98947 0.7776 0.33794 0.0
C500 C 0.95312 0.74148 0.34607 0.0
C501 C 0.94318 0.71558 0.36392 0.0
C502 C 0.05683 0.75096 0.40079 0.0
C503 C 0.00193 0.7482 0.37631 0.0
C504 C 0.08734 0.76583 0.40392 0.0
C505 C 0.09493 0.79416 0.38893 0.0
C506 C 0.03383 0.76434 0.38223 0.0
C507 C 0.07088 0.80727 0.3715 0.0
C508 C 0.98225 0.7579 0.35228 0.0
C509 C 0.96319 0.707 0.38822 0.0
N510 N 0.04158 0.79213 0.36842 0.0
N511 N 0.99175 0.72312 0.39356 0.0
H512 H 0.60194 0.69774 0.60611 0.0
H513 H 0.43157 0.76934 0.60585 0.0
H514 H 0.51327 0.64661 0.62776 0.0
H515 H 0.51836 0.81623 0.64128 0.0
H516 H 0.46286 0.72671 0.58592 0.0
H517 H 0.57168 0.74215 0.5905 0.0
C518 C 0.57606 0.69533 0.60614 0.0
C519 C 0.55995 0.66884 0.61868 0.0
C520 C 0.4751 0.74697 0.59696 0.0
C521 C 0.52554 0.71908 0.60084 0.0
C522 C 0.45736 0.77128 0.60821 0.0
C523 C 0.47252 0.79591 0.62557 0.0
C524 C 0.50811 0.74784 0.60272 0.0
C525 C 0.50587 0.79732 0.62832 0.0
C526 C 0.55889 0.72068 0.59741 0.0
C527 C 0.52646 0.6669 0.61858 0.0
N528 N 0.52258 0.77334 0.61737 0.0
N529 N 0.5103 0.69195 0.61029 0.0
H530 H 0.8691 0.03124 0.6993 0.0
H531 H 0.81303 0.91512 0.83575 0.0
H532 H 0.77068 0.00308 0.71927 0.0
H533 H 0.9084 0.91958 0.79783 0.0
H534 H 0.79943 0.95694 0.80082 0.0
H535 H 0.88579 -0.0023 0.74137 0.0
C536 C 0.85104 0.01787 0.71231 0.0
C537 C 0.81845 0.01978 0.70549 0.0
C538 C 0.82349 0.94908 0.80054 0.0
C539 C 0.83732 0.98219 0.7541 0.0
C540 C 0.83136 0.92554 0.82078 0.0
C541 C 0.86177 0.91371 0.81944 0.0
C542 C 0.84627 0.96094 0.77907 0.0
C543 C 0.88456 0.92786 0.79934 0.0
C544 C 0.86056 -0.00106 0.73643 0.0
C545 C 0.79608 0.00218 0.7234 0.0
N546 N 0.87627 0.95051 0.7797 0.0
N547 N 0.80592 0.98426 0.74689 0.0
H548 H 0.10982 0.58539 0.72261 0.0
H549 H 0.06645 0.40669 0.75608 0.0
H550 H 0.10903 0.54684 0.81486 0.0
H551 H 0.11921 0.43344 0.67335 0.0
H552 H 0.06896 0.46102 0.77337 0.0
H553 H 0.10217 0.53225 0.70044 0.0
C554 C 0.10792 0.56576 0.73818 0.0
C555 C 0.11008 0.57043 0.77064 0.0
C556 C 0.07973 0.45502 0.7513 0.0
C557 C 0.10074 0.51009 0.74548 0.0
C558 C 0.07818 0.42401 0.74122 0.0
C559 C 0.09311 0.41532 0.71335 0.0
C560 C 0.0959 0.47776 0.73328 0.0
C561 C 0.10757 0.43905 0.69506 0.0
C562 C 0.10367 0.53557 0.72549 0.0
C563 C 0.10765 0.54425 0.78974 0.0
N564 N 0.1088 0.46931 0.70545 0.0
N565 N 0.10283 0.5152 0.77687 0.0
H566 H 0.685 0.76044 0.08455 0.0
H567 H 0.77996 0.86163 0.95502 0.0
H568 H 0.67656 0.85962 0.07541 0.0
H569 H 0.78359 0.76187 0.9641 0.0
H570 H 0.74195 0.862 0.9985 0.0
H571 H 0.72055 0.76103 0.03972 0.0
C572 C 0.69048 0.78238 0.07303 0.0
C573 C 0.67773 0.81004 0.0839 0.0
C574 C 0.75108 0.84005 0.99091 0.0
C575 C 0.71889 0.81093 0.03232 0.0
C576 C 0.77282 0.83983 0.96612 0.0
C577 C 0.78509 0.81168 0.95586 0.0
C578 C 0.74156 0.81194 1.00556 0.0
C579 C 0.77488 0.78416 0.97113 0.0
C580 C 0.71089 0.7827 0.04737 0.0
C581 C 0.68577 0.83772 0.06786 0.0
N582 N 0.75384 0.78501 0.99513 0.0
N583 N 0.70594 0.83749 0.04297 0.0
H584 H 0.17372 0.59082 0.91804 0.0
H585 H 0.30862 0.62448 0.0488 0.0
H586 H 0.24509 0.66763 0.91498 0.0
H587 H 0.22708 0.55903 0.05903 0.0
H588 H 0.29143 0.63415 0.99545 0.0
H589 H 0.19852 0.57295 0.96557 0.0
C590 C 0.19474 0.60381 0.9272 0.0
C591 C 0.20711 0.63098 0.91267 0.0
C592 C 0.27752 0.61741 1.00928 0.0
C593 C 0.23566 0.61059 0.9671 0.0
C594 C 0.28743 0.61174 0.03968 0.0
C595 C 0.26907 0.59118 0.05856 0.0
C596 C 0.24916 0.60231 0.99765 0.0
C597 C 0.2418 0.57535 0.04547 0.0
C598 C 0.20888 0.59359 0.95437 0.0
C599 C 0.23453 0.64673 0.92556 0.0
N600 N 0.23255 0.58143 0.01595 0.0
N601 N 0.24776 0.63642 0.95212 0.0
H602 H 0.67453 0.09266 0.41428 0.0
H603 H 0.80864 0.12341 0.54626 0.0
H604 H 0.74469 0.17063 0.41422 0.0
H605 H 0.72759 0.05699 0.55422 0.0
H606 H 0.79162 0.13456 0.49318 0.0
H607 H 0.69961 0.07331 0.46102 0.0
C608 C 0.69536 0.10558 0.42392 0.0
C609 C 0.70728 0.13352 0.4105 0.0
C610 C 0.7778 0.11728 0.50645 0.0
C611 C 0.73614 0.11146 0.46402 0.0
C612 C 0.7876 0.11077 0.53669 0.0
C613 C 0.7693 0.0895 0.55486 0.0
C614 C 0.74962 0.10229 0.49428 0.0
C615 C 0.74224 0.07384 0.54121 0.0
C616 C 0.70966 0.09453 0.45064 0.0
C617 C 0.73447 0.14916 0.42395 0.0
N618 N 0.73309 0.08072 0.51187 0.0
N619 N 0.74785 0.13803 0.45007 0.0
H620 H 0.17614 0.36239 0.57983 0.0
H621 H 0.28245 0.2652 0.4621 0.0
H622 H 0.18088 0.26218 0.57964 0.0
H623 H 0.28212 0.36576 0.46105 0.0
H624 H 0.2436 0.26435 0.5041 0.0
H625 H 0.21274 0.36477 0.53514 0.0
C626 C 0.18462 0.34089 0.57027 0.0
C627 C 0.17543 0.31204 0.58363 0.0
C628 C 0.25192 0.28668 0.49477 0.0
C629 C 0.21744 0.31462 0.53265 0.0
C630 C 0.27424 0.28719 0.4707 0.0
C631 C 0.28574 0.31562 0.45797 0.0
C632 C 0.2408 0.3148 0.50646 0.0
C633 C 0.27399 0.3433 0.47018 0.0
C634 C 0.20561 0.34228 0.54483 0.0
C635 C 0.1873 0.28497 0.57029 0.0
N636 N 0.25219 0.34221 0.49378 0.0
N637 N 0.20766 0.28696 0.54572 0.0
H638 H 0.09212 0.72391 0.8948 0.0
H639 H 0.90596 0.7476 0.91159 0.0
H640 H 0.01645 0.6644 0.85347 0.0
H641 H 0.97718 0.82313 0.89999 0.0
H642 H 0.9487 0.71148 0.91714 0.0
H643 H 0.05171 0.75394 0.9216 0.0
C644 C 0.06705 0.71655 0.89231 0.0
C645 C 0.05736 0.69199 0.87179 0.0
C646 C 0.95492 0.73621 0.91484 0.0
C647 C 0.01153 0.7255 0.90253 0.0
C648 C 0.9306 0.75687 0.91209 0.0
C649 C 0.93824 0.78824 0.9052 0.0
C650 C 0.98687 0.74728 0.911 0.0
C651 C 0.97048 0.79902 0.90528 0.0
C652 C 0.04413 0.73364 0.9075 0.0
C653 C 0.0247 0.68342 0.86895 0.0
N654 N 0.99373 0.77845 0.9075 0.0
N655 N 0.00289 0.70031 0.88397 0.0
H656 H 0.03484 0.26862 0.62906 0.0
H657 H 0.9342 0.1231 0.70292 0.0
H658 H 0.05422 0.2274 0.71759 0.0
H659 H 0.90499 0.16682 0.61854 0.0
H660 H 0.98265 0.15723 0.7039 0.0
H661 H 0.99147 0.22791 0.62016 0.0
C662 C 0.03028 0.25082 0.64636 0.0
C663 C 0.04788 0.25162 0.67427 0.0
C664 C 0.96581 0.15936 0.68501 0.0
C665 C 0.99867 0.20523 0.66432 0.0
C666 C 0.93806 0.13979 0.68444 0.0
C667 C 0.91528 0.14228 0.66081 0.0
C668 C 0.97095 0.18194 0.6619 0.0
C669 C 0.92186 0.1642 0.63731 0.0
C670 C 0.0055 0.22772 0.64136 0.0
C671 C 0.04099 0.22803 0.69593 0.0
N672 N 0.94897 0.18344 0.6386 0.0
N673 N 0.01696 0.20603 0.69056 0.0
H674 H 0.59295 0.22827 0.39769 0.0
H675 H 0.40762 0.25447 0.4164 0.0
H676 H 0.51599 0.16813 0.35963 0.0
H677 H 0.48056 0.32857 0.40559 0.0
H678 H 0.44941 0.21734 0.42208 0.0
H679 H 0.55351 0.25863 0.42545 0.0
C680 C 0.56784 0.22076 0.39623 0.0
C681 C 0.55747 0.19593 0.37633 0.0
C682 C 0.45622 0.24196 0.41989 0.0
C683 C 0.51267 0.23005 0.40792 0.0
C684 C 0.43242 0.2632 0.41706 0.0
C685 C 0.44082 0.29447 0.41036 0.0
C686 C 0.48842 0.25235 0.41629 0.0
C687 C 0.47326 0.30455 0.41069 0.0
C688 C 0.54543 0.23809 0.41193 0.0
C689 C 0.52475 0.18728 0.37472 0.0
N690 N 0.49598 0.28343 0.41296 0.0
N691 N 0.50343 0.20451 0.39007 0.0
H692 H 0.65061 0.51765 0.67114 0.0
H693 H 0.61779 0.41231 0.82091 0.0
H694 H 0.57147 0.52905 0.73378 0.0
H695 H 0.70653 0.4206 0.76996 0.0
H696 H 0.5937 0.44531 0.78205 0.0
H697 H 0.66324 0.47081 0.69893 0.0
C698 C 0.6354 0.50993 0.69024 0.0
C699 C 0.61045 0.52777 0.70064 0.0
C700 C 0.61835 0.43956 0.77933 0.0
C701 C 0.62513 0.47451 0.73286 0.0
C702 C 0.63209 0.42087 0.80149 0.0
C703 C 0.66436 0.41429 0.79898 0.0
C704 C 0.63697 0.45124 0.7544 0.0
C705 C 0.68175 0.42564 0.77321 0.0
C706 C 0.64277 0.48329 0.70626 0.0
C707 C 0.59137 0.51636 0.72536 0.0
N708 N 0.66789 0.44364 0.75206 0.0
N709 N 0.59946 0.49075 0.74103 0.0
H710 H 0.34178 0.06638 0.7608 0.0
H711 H 0.45943 0.93095 0.7481 0.0
H712 H 0.42166 0.06111 0.82353 0.0
H713 H 0.39236 0.9516 0.67595 0.0
H714 H 0.45141 0.98162 0.7727 0.0
H715 H 0.36444 0.02788 0.72663 0.0
C716 C 0.36431 0.05713 0.76726 0.0
C717 C 0.37964 0.06642 0.79525 0.0
C718 C 0.43895 0.97533 0.75115 0.0
C719 C 0.40569 0.02191 0.75628 0.0
C720 C 0.44348 0.94637 0.73705 0.0
C721 C 0.42593 0.93667 0.71028 0.0
C722 C 0.4165 -0.00546 0.73854 0.0
C723 C 0.406 0.95782 0.69682 0.0
C724 C 0.37736 0.03527 0.74762 0.0
C725 C 0.40904 0.05426 0.80223 0.0
N726 N 0.40139 0.9855 0.71142 0.0
N727 N 0.42088 0.03205 0.78312 0.0
H728 H 0.41336 0.26073 0.89787 0.0
H729 H 0.60413 0.26715 0.88262 0.0
H730 H 0.46646 0.18069 0.87375 0.0
H731 H 0.55015 0.34872 0.89683 0.0
H732 H 0.55442 0.23439 0.88439 0.0
H733 H 0.46361 0.29242 0.90261 0.0
C734 C 0.43558 0.24973 0.89375 0.0
C735 C 0.43562 0.21798 0.88522 0.0
C736 C 0.55345 0.25944 0.88727 0.0
C737 C 0.49337 0.25427 0.89057 0.0
C738 C 0.58186 0.27819 0.88634 0.0
C739 C 0.58136 0.31082 0.88941 0.0
C740 C 0.52423 0.27333 0.89137 0.0
C741 C 0.55173 0.32372 0.89421 0.0
C742 C 0.4643 0.26789 0.89642 0.0
C743 C 0.46522 0.20507 0.88025 0.0
N744 N 0.52438 0.30497 0.89492 0.0
N745 N 0.49286 0.22328 0.88288 0.0
H746 H 0.37039 0.53851 0.20485 0.0
H747 H 0.31596 0.42274 0.34217 0.0
H748 H 0.27237 0.50899 0.22503 0.0
H749 H 0.41185 0.42977 0.30554 0.0
H750 H 0.30164 0.46404 0.30696 0.0
H751 H 0.38763 0.50612 0.24761 0.0
C752 C 0.35253 0.52509 0.21805 0.0
C753 C 0.3199 0.52627 0.21107 0.0
C754 C 0.32597 0.45689 0.30704 0.0
C755 C 0.33938 0.48996 0.26046 0.0
C756 C 0.33425 0.43365 0.32745 0.0
C757 C 0.36503 0.42262 0.32652 0.0
C758 C 0.3487 0.46925 0.28578 0.0
C759 C 0.38773 0.4374 0.30674 0.0
C760 C 0.36236 0.50682 0.24258 0.0
C761 C 0.2978 0.50864 0.22927 0.0
N762 N 0.37903 0.4597 0.28688 0.0
N763 N 0.30793 0.49134 0.25311 0.0
H764 H 0.56181 0.0845 0.24801 0.0
H765 H 0.65075 0.93675 0.187 0.0
H766 H 0.6563 0.06539 0.27955 0.0
H767 H 0.55077 0.92968 0.2109 0.0
H768 H 0.65377 -0.00843 0.20507 0.0
H769 H 0.5583 0.03407 0.21983 0.0
C770 C 0.58182 0.06971 0.24891 0.0
C771 C 0.60926 0.07886 0.26636 0.0
C772 C 0.63106 0.97811 0.20562 0.0
C773 C 0.60577 0.02204 0.23348 0.0
C774 C 0.62922 0.9471 0.19495 0.0
C775 C 0.60044 0.9289 0.19744 0.0
C776 C 0.60377 -0.00903 0.21811 0.0
C777 C 0.57334 0.9431 0.20857 0.0
C778 C 0.5798 0.04111 0.23282 0.0
C779 C 0.63457 0.05895 0.2667 0.0
N780 N 0.57565 0.97337 0.2186 0.0
N781 N 0.63232 0.03148 0.2503 0.0
H782 H 0.54604 0.74697 0.22559 0.0
H783 H 0.40651 0.66832 0.11805 0.0
H784 H 0.53499 0.77238 0.12948 0.0
H785 H 0.42591 0.64287 0.21279 0.0
H786 H 0.4547 0.70402 0.11936 0.0
H787 H 0.50376 0.70644 0.21895 0.0
C788 C 0.53469 0.74398 0.20294 0.0
C789 C 0.54388 0.76342 0.17814 0.0
C790 C 0.44848 0.69038 0.13971 0.0
C791 C 0.49474 0.71663 0.17033 0.0
C792 C 0.42103 0.66996 0.13898 0.0
C793 C 0.41197 0.65273 0.16547 0.0
C794 C 0.46692 0.6935 0.16709 0.0
C795 C 0.43168 0.65581 0.1919 0.0
C796 C 0.51048 0.72066 0.19913 0.0
C797 C 0.52856 0.75797 0.14923 0.0
N798 N 0.45799 0.67586 0.19205 0.0
N799 N 0.50441 0.73525 0.14617 0.0
loop_
_geom_bond_atom_site_label_1
_geom_bond_atom_site_label_2
_geom_bond_distance
_geom_bond_site_symmetry_2
_ccdc_geom_bond_type
Zn0 O3 2.031 . S
Zn0 O5 2.049 . S
Zn0 O10 2.067 . S
Zn1 O2 1.962 . S
Zn1 O4 1.986 . S
Zn1 O6 1.996 . S
Zn1 O9 1.943 . S
O2 Zn1 1.962 . S
O2 C7 1.254 . S
O3 Zn0 2.031 . S
O3 C7 1.269 . S
O4 Zn1 1.986 . S
O4 C11 1.262 . S
O5 Zn0 2.049 . S
O5 C13 1.260 . S
O6 Zn1 1.996 . S
O6 C13 1.257 . S
C7 O2 1.254 . S
C7 O3 1.269 . S
C8 O9 1.249 . S
C8 O10 1.270 . S
O9 Zn1 1.943 . S
O9 C8 1.249 . S
O10 Zn0 2.067 . S
O10 C8 1.270 . S
C11 O4 1.262 . S
C11 O12 1.232 . S
O12 C11 1.232 . S
C13 O5 1.260 . S
C13 O6 1.257 . S
Zn14 O17 2.031 . S
Zn14 O19 2.049 . S
Zn14 O24 2.067 . S
Zn15 O16 1.962 . S
Zn15 O18 1.986 . S
Zn15 O20 1.996 . S
Zn15 O23 1.943 . S
O16 Zn15 1.962 . S
O16 C21 1.254 . S
O17 Zn14 2.031 . S
O17 C21 1.269 . S
O18 Zn15 1.986 . S
O18 C25 1.262 . S
O19 Zn14 2.049 . S
O19 C27 1.260 . S
O20 Zn15 1.996 . S
O20 C27 1.257 . S
C21 O16 1.254 . S
C21 O17 1.269 . S
C22 O23 1.249 . S
C22 O24 1.270 . S
O23 Zn15 1.943 . S
O23 C22 1.249 . S
O24 Zn14 2.067 . S
O24 C22 1.270 . S
C25 O18 1.262 . S
C25 O26 1.232 . S
O26 C25 1.232 . S
C27 O19 1.260 . S
C27 O20 1.257 . S
Zn28 O31 2.031 . S
Zn28 O33 2.049 . S
Zn28 O38 2.067 . S
Zn29 O30 1.962 . S
Zn29 O32 1.986 . S
Zn29 O34 1.996 . S
Zn29 O37 1.943 . S
O30 Zn29 1.962 . S
O30 C35 1.254 . S
O31 Zn28 2.031 . S
O31 C35 1.269 . S
O32 Zn29 1.986 . S
O32 C39 1.262 . S
O33 Zn28 2.049 . S
O33 C41 1.260 . S
O34 Zn29 1.996 . S
O34 C41 1.257 . S
C35 O30 1.254 . S
C35 O31 1.269 . S
C36 O37 1.249 . S
C36 O38 1.270 . S
O37 Zn29 1.943 . S
O37 C36 1.249 . S
O38 Zn28 2.067 . S
O38 C36 1.270 . S
C39 O32 1.262 . S
C39 O40 1.232 . S
O40 C39 1.232 . S
C41 O33 1.260 . S
C41 O34 1.257 . S
Zn42 O45 2.031 . S
Zn42 O47 2.049 . S
Zn42 O52 2.067 . S
Zn43 O44 1.962 . S
Zn43 O46 1.986 . S
Zn43 O48 1.996 . S
Zn43 O51 1.943 . S
O44 Zn43 1.962 . S
O44 C49 1.254 . S
O45 Zn42 2.031 . S
O45 C49 1.269 . S
O46 Zn43 1.986 . S
O46 C53 1.262 . S
O47 Zn42 2.049 . S
O47 C55 1.260 . S
O48 Zn43 1.996 . S
O48 C55 1.257 . S
C49 O44 1.254 . S
C49 O45 1.269 . S
C50 O51 1.249 . S
C50 O52 1.270 . S
O51 Zn43 1.943 . S
O51 C50 1.249 . S
O52 Zn42 2.067 . S
O52 C50 1.270 . S
C53 O46 1.262 . S
C53 O54 1.232 . S
O54 C53 1.232 . S
C55 O47 1.260 . S
C55 O48 1.257 . S
Zn56 O59 2.031 . S
Zn56 O61 2.049 . S
Zn56 O66 2.067 . S
Zn57 O58 1.962 . S
Zn57 O60 1.986 . S
Zn57 O62 1.996 . S
Zn57 O65 1.943 . S
O58 Zn57 1.962 . S
O58 C63 1.254 . S
O59 Zn56 2.031 . S
O59 C63 1.269 . S
O60 Zn57 1.986 . S
O60 C67 1.262 . S
O61 Zn56 2.049 . S
O61 C69 1.260 . S
O62 Zn57 1.996 . S
O62 C69 1.257 . S
C63 O58 1.254 . S
C63 O59 1.269 . S
C64 O65 1.249 . S
C64 O66 1.270 . S
O65 Zn57 1.943 . S
O65 C64 1.249 . S
O66 Zn56 2.067 . S
O66 C64 1.270 . S
C67 O60 1.262 . S
C67 O68 1.232 . S
O68 C67 1.232 . S
C69 O61 1.260 . S
C69 O62 1.257 . S
Zn70 O73 2.031 . S
Zn70 O75 2.049 . S
Zn70 O80 2.067 . S
Zn71 O72 1.962 . S
Zn71 O74 1.986 . S
Zn71 O76 1.996 . S
Zn71 O79 1.943 . S
O72 Zn71 1.962 . S
O72 C77 1.254 . S
O73 Zn70 2.031 . S
O73 C77 1.269 . S
O74 Zn71 1.986 . S
O74 C81 1.262 . S
O75 Zn70 2.049 . S
O75 C83 1.260 . S
O76 Zn71 1.996 . S
O76 C83 1.257 . S
C77 O72 1.254 . S
C77 O73 1.269 . S
C78 O79 1.249 . S
C78 O80 1.270 . S
O79 Zn71 1.943 . S
O79 C78 1.249 . S
O80 Zn70 2.067 . S
O80 C78 1.270 . S
C81 O74 1.262 . S
C81 O82 1.232 . S
O82 C81 1.232 . S
C83 O75 1.260 . S
C83 O76 1.257 . S
Zn84 O87 2.031 . S
Zn84 O89 2.049 . S
Zn84 O94 2.067 . S
Zn85 O86 1.962 . S
Zn85 O88 1.986 . S
Zn85 O90 1.996 . S
Zn85 O93 1.943 . S
O86 Zn85 1.962 . S
O86 C91 1.254 . S
O87 Zn84 2.031 . S
O87 C91 1.269 . S
O88 Zn85 1.986 . S
O88 C95 1.262 . S
O89 Zn84 2.049 . S
O89 C97 1.260 . S
O90 Zn85 1.996 . S
O90 C97 1.257 . S
C91 O86 1.254 . S
C91 O87 1.269 . S
C92 O93 1.249 . S
C92 O94 1.270 . S
O93 Zn85 1.943 . S
O93 C92 1.249 . S
O94 Zn84 2.067 . S
O94 C92 1.270 . S
C95 O88 1.262 . S
C95 O96 1.232 . S
O96 C95 1.232 . S
C97 O89 1.260 . S
C97 O90 1.257 . S
Zn98 O101 2.031 . S
Zn98 O103 2.049 . S
Zn98 O108 2.067 . S
Zn99 O100 1.962 . S
Zn99 O102 1.986 . S
Zn99 O104 1.996 . S
Zn99 O107 1.943 . S
O100 Zn99 1.962 . S
O100 C105 1.254 . S
O101 Zn98 2.031 . S
O101 C105 1.269 . S
O102 Zn99 1.986 . S
O102 C109 1.262 . S
O103 Zn98 2.049 . S
O103 C111 1.260 . S
O104 Zn99 1.996 . S
O104 C111 1.257 . S
C105 O100 1.254 . S
C105 O101 1.269 . S
C106 O107 1.249 . S
C106 O108 1.270 . S
O107 Zn99 1.943 . S
O107 C106 1.249 . S
O108 Zn98 2.067 . S
O108 C106 1.270 . S
C109 O102 1.262 . S
C109 O110 1.232 . S
O110 C109 1.232 . S
C111 O103 1.260 . S
C111 O104 1.257 . S
Zn112 O115 2.031 . S
Zn112 O117 2.049 . S
Zn112 O122 2.067 . S
Zn113 O114 1.962 . S
Zn113 O116 1.986 . S
Zn113 O118 1.996 . S
Zn113 O121 1.943 . S
O114 Zn113 1.962 . S
O114 C119 1.254 . S
O115 Zn112 2.031 . S
O115 C119 1.269 . S
O116 Zn113 1.986 . S
O116 C123 1.262 . S
O117 Zn112 2.049 . S
O117 C125 1.260 . S
O118 Zn113 1.996 . S
O118 C125 1.257 . S
C119 O114 1.254 . S
C119 O115 1.269 . S
C120 O121 1.249 . S
C120 O122 1.270 . S
O121 Zn113 1.943 . S
O121 C120 1.249 . S
O122 Zn112 2.067 . S
O122 C120 1.270 . S
C123 O116 1.262 . S
C123 O124 1.232 . S
O124 C123 1.232 . S
C125 O117 1.260 . S
C125 O118 1.257 . S
Zn126 O129 2.031 . S
Zn126 O131 2.049 . S
Zn126 O136 2.067 . S
Zn127 O128 1.962 . S
Zn127 O130 1.986 . S
Zn127 O132 1.996 . S
Zn127 O135 1.943 . S
O128 Zn127 1.962 . S
O128 C133 1.254 . S
O129 Zn126 2.031 . S
O129 C133 1.269 . S
O130 Zn127 1.986 . S
O130 C137 1.262 . S
O131 Zn126 2.049 . S
O131 C139 1.260 . S
O132 Zn127 1.996 . S
O132 C139 1.257 . S
C133 O128 1.254 . S
C133 O129 1.269 . S
C134 O135 1.249 . S
C134 O136 1.270 . S
O135 Zn127 1.943 . S
O135 C134 1.249 . S
O136 Zn126 2.067 . S
O136 C134 1.270 . S
C137 O130 1.262 . S
C137 O138 1.232 . S
O138 C137 1.232 . S
C139 O131 1.260 . S
C139 O132 1.257 . S
Zn140 O143 2.031 . S
Zn140 O145 2.049 . S
Zn140 O150 2.067 . S
Zn141 O142 1.962 . S
Zn141 O144 1.986 . S
Zn141 O146 1.996 . S
Zn141 O149 1.943 . S
O142 Zn141 1.962 . S
O142 C147 1.254 . S
O143 Zn140 2.031 . S
O143 C147 1.269 . S
O144 Zn141 1.986 . S
O144 C151 1.262 . S
O145 Zn140 2.049 . S
O145 C153 1.260 . S
O146 Zn141 1.996 . S
O146 C153 1.257 . S
C147 O142 1.254 . S
C147 O143 1.269 . S
C148 O149 1.249 . S
C148 O150 1.270 . S
O149 Zn141 1.943 . S
O149 C148 1.249 . S
O150 Zn140 2.067 . S
O150 C148 1.270 . S
C151 O144 1.262 . S
C151 O152 1.232 . S
O152 C151 1.232 . S
C153 O145 1.260 . S
C153 O146 1.257 . S
Zn154 O157 2.031 . S
Zn154 O159 2.049 . S
Zn154 O164 2.067 . S
Zn155 O156 1.962 . S
Zn155 O158 1.986 . S
Zn155 O160 1.996 . S
Zn155 O163 1.943 . S
O156 Zn155 1.962 . S
O156 C161 1.254 . S
O157 Zn154 2.031 . S
O157 C161 1.269 . S
O158 Zn155 1.986 . S
O158 C165 1.262 . S
O159 Zn154 2.049 . S
O159 C167 1.260 . S
O160 Zn155 1.996 . S
O160 C167 1.257 . S
C161 O156 1.254 . S
C161 O157 1.269 . S
C162 O163 1.249 . S
C162 O164 1.270 . S
O163 Zn155 1.943 . S
O163 C162 1.249 . S
O164 Zn154 2.067 . S
O164 C162 1.270 . S
C165 O158 1.262 . S
C165 O166 1.232 . S
O166 C165 1.232 . S
C167 O159 1.260 . S
C167 O160 1.257 . S
Zn168 O171 2.031 . S
Zn168 O173 2.049 . S
Zn168 O178 2.067 . S
Zn169 O170 1.962 . S
Zn169 O172 1.986 . S
Zn169 O174 1.996 . S
Zn169 O177 1.943 . S
O170 Zn169 1.962 . S
O170 C175 1.254 . S
O171 Zn168 2.031 . S
O171 C175 1.269 . S
O172 Zn169 1.986 . S
O172 C179 1.262 . S
O173 Zn168 2.049 . S
O173 C181 1.260 . S
O174 Zn169 1.996 . S
O174 C181 1.257 . S
C175 O170 1.254 . S
C175 O171 1.269 . S
C176 O177 1.249 . S
C176 O178 1.270 . S
O177 Zn169 1.943 . S
O177 C176 1.249 . S
O178 Zn168 2.067 . S
O178 C176 1.270 . S
C179 O172 1.262 . S
C179 O180 1.232 . S
O180 C179 1.232 . S
C181 O173 1.260 . S
C181 O174 1.257 . S
Zn182 O185 2.031 . S
Zn182 O187 2.049 . S
Zn182 O192 2.067 . S
Zn183 O184 1.962 . S
Zn183 O186 1.986 . S
Zn183 O188 1.996 . S
Zn183 O191 1.943 . S
O184 Zn183 1.962 . S
O184 C189 1.254 . S
O185 Zn182 2.031 . S
O185 C189 1.269 . S
O186 Zn183 1.986 . S
O186 C193 1.262 . S
O187 Zn182 2.049 . S
O187 C195 1.260 . S
O188 Zn183 1.996 . S
O188 C195 1.257 . S
C189 O184 1.254 . S
C189 O185 1.269 . S
C190 O191 1.249 . S
C190 O192 1.270 . S
O191 Zn183 1.943 . S
O191 C190 1.249 . S
O192 Zn182 2.067 . S
O192 C190 1.270 . S
C193 O186 1.262 . S
C193 O194 1.232 . S
O194 C193 1.232 . S
C195 O187 1.260 . S
C195 O188 1.257 . S
Zn196 O199 2.031 . S
Zn196 O201 2.049 . S
Zn196 O206 2.067 . S
Zn197 O198 1.962 . S
Zn197 O200 1.986 . S
Zn197 O202 1.996 . S
Zn197 O205 1.943 . S
O198 Zn197 1.962 . S
O198 C203 1.254 . S
O199 Zn196 2.031 . S
O199 C203 1.269 . S
O200 Zn197 1.986 . S
O200 C207 1.262 . S
O201 Zn196 2.049 . S
O201 C209 1.260 . S
O202 Zn197 1.996 . S
O202 C209 1.257 . S
C203 O198 1.254 . S
C203 O199 1.269 . S
C204 O205 1.249 . S
C204 O206 1.270 . S
O205 Zn197 1.943 . S
O205 C204 1.249 . S
O206 Zn196 2.067 . S
O206 C204 1.270 . S
C207 O200 1.262 . S
C207 O208 1.232 . S
O208 C207 1.232 . S
C209 O201 1.260 . S
C209 O202 1.257 . S
Zn210 O213 2.031 . S
Zn210 O215 2.049 . S
Zn210 O220 2.067 . S
Zn211 O212 1.962 . S
Zn211 O214 1.986 . S
Zn211 O216 1.996 . S
Zn211 O219 1.943 . S
O212 Zn211 1.962 . S
O212 C217 1.254 . S
O213 Zn210 2.031 . S
O213 C217 1.269 . S
O214 Zn211 1.986 . S
O214 C221 1.262 . S
O215 Zn210 2.049 . S
O215 C223 1.260 . S
O216 Zn211 1.996 . S
O216 C223 1.257 . S
C217 O212 1.254 . S
C217 O213 1.269 . S
C218 O219 1.249 . S
C218 O220 1.270 . S
O219 Zn211 1.943 . S
O219 C218 1.249 . S
O220 Zn210 2.067 . S
O220 C218 1.270 . S
C221 O214 1.262 . S
C221 O222 1.232 . S
O222 C221 1.232 . S
C223 O215 1.260 . S
C223 O216 1.257 . S
H224 C230 0.930 . S
H225 C234 0.930 . S
H226 C239 0.929 . S
H227 C237 0.929 . S
H228 C232 0.929 . S
H229 C238 0.929 . S
C230 H224 0.930 . S
C230 C231 1.367 . S
C230 C238 1.378 . S
C231 C230 1.367 . S
C231 C239 1.433 . S
C232 H228 0.929 . S
C232 C234 1.378 . S
C232 C236 1.350 . S
C233 C236 1.463 . S
C233 C238 1.350 . S
C233 N241 1.427 . S
C234 H225 0.930 . S
C234 C232 1.378 . S
C234 C235 1.367 . S
C235 C234 1.367 . S
C235 C237 1.433 . S
C236 C232 1.350 . S
C236 C233 1.463 . S
C236 N240 1.427 . S
C237 H227 0.929 . S
C237 C235 1.433 . S
C237 N240 1.384 . S
C238 H229 0.929 . S
C238 C230 1.378 . S
C238 C233 1.350 . S
C239 H226 0.929 . S
C239 C231 1.433 . S
C239 N241 1.384 . S
N240 C236 1.427 . S
N240 C237 1.384 . S
N241 C233 1.427 . S
N241 C239 1.384 . S
H242 C248 0.930 . S
H243 C252 0.930 . S
H244 C257 0.929 . S
H245 C255 0.929 . S
H246 C250 0.929 . S
H247 C256 0.929 . S
C248 H242 0.930 . S
C248 C249 1.367 . S
C248 C256 1.378 . S
C249 C248 1.367 . S
C249 C257 1.433 . S
C250 H246 0.929 . S
C250 C252 1.378 . S
C250 C254 1.350 . S
C251 C254 1.463 . S
C251 C256 1.350 . S
C251 N259 1.427 . S
C252 H243 0.930 . S
C252 C250 1.378 . S
C252 C253 1.367 . S
C253 C252 1.367 . S
C253 C255 1.433 . S
C254 C250 1.350 . S
C254 C251 1.463 . S
C254 N258 1.427 . S
C255 H245 0.929 . S
C255 C253 1.433 . S
C255 N258 1.384 . S
C256 H247 0.929 . S
C256 C248 1.378 . S
C256 C251 1.350 . S
C257 H244 0.929 . S
C257 C249 1.433 . S
C257 N259 1.384 . S
N258 C254 1.427 . S
N258 C255 1.384 . S
N259 C251 1.427 . S
N259 C257 1.384 . S
H260 C266 0.930 . S
H261 C270 0.930 . S
H262 C275 0.929 . S
H263 C273 0.929 . S
H264 C268 0.929 . S
H265 C274 0.929 . S
C266 H260 0.930 . S
C266 C267 1.367 . S
C266 C274 1.378 . S
C267 C266 1.367 . S
C267 C275 1.433 . S
C268 H264 0.929 . S
C268 C270 1.378 . S
C268 C272 1.350 . S
C269 C272 1.463 . S
C269 C274 1.350 . S
C269 N277 1.427 . S
C270 H261 0.930 . S
C270 C268 1.378 . S
C270 C271 1.367 . S
C271 C270 1.367 . S
C271 C273 1.433 . S
C272 C268 1.350 . S
C272 C269 1.463 . S
C272 N276 1.427 . S
C273 H263 0.929 . S
C273 C271 1.433 . S
C273 N276 1.384 . S
C274 H265 0.929 . S
C274 C266 1.378 . S
C274 C269 1.350 . S
C275 H262 0.929 . S
C275 C267 1.433 . S
C275 N277 1.384 . S
N276 C272 1.427 . S
N276 C273 1.384 . S
N277 C269 1.427 . S
N277 C275 1.384 . S
H278 C284 0.930 . S
H279 C288 0.930 . S
H280 C293 0.929 . S
H281 C291 0.929 . S
H282 C286 0.929 . S
H283 C292 0.929 . S
C284 H278 0.930 . S
C284 C285 1.367 . S
C284 C292 1.378 . S
C285 C284 1.367 . S
C285 C293 1.433 . S
C286 H282 0.929 . S
C286 C288 1.378 . S
C286 C290 1.350 . S
C287 C290 1.463 . S
C287 C292 1.350 . S
C287 N295 1.427 . S
C288 H279 0.930 . S
C288 C286 1.378 . S
C288 C289 1.367 . S
C289 C288 1.367 . S
C289 C291 1.433 . S
C290 C286 1.350 . S
C290 C287 1.463 . S
C290 N294 1.427 . S
C291 H281 0.929 . S
C291 C289 1.433 . S
C291 N294 1.384 . S
C292 H283 0.929 . S
C292 C284 1.378 . S
C292 C287 1.350 . S
C293 H280 0.929 . S
C293 C285 1.433 . S
C293 N295 1.384 . S
N294 C290 1.427 . S
N294 C291 1.384 . S
N295 C287 1.427 . S
N295 C293 1.384 . S
H296 C302 0.930 . S
H297 C306 0.930 . S
H298 C311 0.929 . S
H299 C309 0.929 . S
H300 C304 0.929 . S
H301 C310 0.929 . S
C302 H296 0.930 . S
C302 C303 1.367 . S
C302 C310 1.378 . S
C303 C302 1.367 . S
C303 C311 1.433 . S
C304 H300 0.929 . S
C304 C306 1.378 . S
C304 C308 1.350 . S
C305 C308 1.463 . S
C305 C310 1.350 . S
C305 N313 1.427 . S
C306 H297 0.930 . S
C306 C304 1.378 . S
C306 C307 1.367 . S
C307 C306 1.367 . S
C307 C309 1.433 . S
C308 C304 1.350 . S
C308 C305 1.463 . S
C308 N312 1.427 . S
C309 H299 0.929 . S
C309 C307 1.433 . S
C309 N312 1.384 . S
C310 H301 0.929 . S
C310 C302 1.378 . S
C310 C305 1.350 . S
C311 H298 0.929 . S
C311 C303 1.433 . S
C311 N313 1.384 . S
N312 C308 1.427 . S
N312 C309 1.384 . S
N313 C305 1.427 . S
N313 C311 1.384 . S
H314 C320 0.930 . S
H315 C324 0.930 . S
H316 C329 0.929 . S
H317 C327 0.929 . S
H318 C322 0.929 . S
H319 C328 0.929 . S
C320 H314 0.930 . S
C320 C321 1.367 . S
C320 C328 1.378 . S
C321 C320 1.367 . S
C321 C329 1.433 . S
C322 H318 0.929 . S
C322 C324 1.378 . S
C322 C326 1.350 . S
C323 C326 1.463 . S
C323 C328 1.350 . S
C323 N331 1.427 . S
C324 H315 0.930 . S
C324 C322 1.378 . S
C324 C325 1.367 . S
C325 C324 1.367 . S
C325 C327 1.433 . S
C326 C322 1.350 . S
C326 C323 1.463 . S
C326 N330 1.427 . S
C327 H317 0.929 . S
C327 C325 1.433 . S
C327 N330 1.384 . S
C328 H319 0.929 . S
C328 C320 1.378 . S
C328 C323 1.350 . S
C329 H316 0.929 . S
C329 C321 1.433 . S
C329 N331 1.384 . S
N330 C326 1.427 . S
N330 C327 1.384 . S
N331 C323 1.427 . S
N331 C329 1.384 . S
H332 C338 0.930 . S
H333 C342 0.930 . S
H334 C347 0.929 . S
H335 C345 0.929 . S
H336 C340 0.929 . S
H337 C346 0.929 . S
C338 H332 0.930 . S
C338 C339 1.367 . S
C338 C346 1.378 . S
C339 C338 1.367 . S
C339 C347 1.433 . S
C340 H336 0.929 . S
C340 C342 1.378 . S
C340 C344 1.350 . S
C341 C344 1.463 . S
C341 C346 1.350 . S
C341 N349 1.427 . S
C342 H333 0.930 . S
C342 C340 1.378 . S
C342 C343 1.367 . S
C343 C342 1.367 . S
C343 C345 1.433 . S
C344 C340 1.350 . S
C344 C341 1.463 . S
C344 N348 1.427 . S
C345 H335 0.929 . S
C345 C343 1.433 . S
C345 N348 1.384 . S
C346 H337 0.929 . S
C346 C338 1.378 . S
C346 C341 1.350 . S
C347 H334 0.929 . S
C347 C339 1.433 . S
C347 N349 1.384 . S
N348 C344 1.427 . S
N348 C345 1.384 . S
N349 C341 1.427 . S
N349 C347 1.384 . S
H350 C356 0.930 . S
H351 C360 0.930 . S
H352 C365 0.929 . S
H353 C363 0.929 . S
H354 C358 0.929 . S
H355 C364 0.929 . S
C356 H350 0.930 . S
C356 C357 1.367 . S
C356 C364 1.378 . S
C357 C356 1.367 . S
C357 C365 1.433 . S
C358 H354 0.929 . S
C358 C360 1.378 . S
C358 C362 1.350 . S
C359 C362 1.463 . S
C359 C364 1.350 . S
C359 N367 1.427 . S
C360 H351 0.930 . S
C360 C358 1.378 . S
C360 C361 1.367 . S
C361 C360 1.367 . S
C361 C363 1.433 . S
C362 C358 1.350 . S
C362 C359 1.463 . S
C362 N366 1.427 . S
C363 H353 0.929 . S
C363 C361 1.433 . S
C363 N366 1.384 . S
C364 H355 0.929 . S
C364 C356 1.378 . S
C364 C359 1.350 . S
C365 H352 0.929 . S
C365 C357 1.433 . S
C365 N367 1.384 . S
N366 C362 1.427 . S
N366 C363 1.384 . S
N367 C359 1.427 . S
N367 C365 1.384 . S
H368 C374 0.930 . S
H369 C378 0.930 . S
H370 C383 0.929 . S
H371 C381 0.929 . S
H372 C376 0.929 1_565 S
H373 C382 0.926 . S
C374 H368 0.930 . S
C374 C375 1.367 . S
C374 C382 1.378 . S
C375 C374 1.367 . S
C375 C383 1.433 . S
C376 H372 0.929 1_545 S
C376 C378 1.378 . S
C376 C380 1.350 . S
C377 C380 1.463 1_565 S
C377 C382 1.350 . S
C377 N385 1.427 . S
C378 H369 0.930 . S
C378 C376 1.378 . S
C378 C379 1.367 . S
C379 C378 1.367 . S
C379 C381 1.433 . S
C380 C376 1.350 . S
C380 C377 1.463 1_545 S
C380 N384 1.427 . S
C381 H371 0.929 . S
C381 C379 1.433 . S
C381 N384 1.384 . S
C382 H373 0.926 . S
C382 C374 1.378 . S
C382 C377 1.350 . S
C383 H370 0.929 . S
C383 C375 1.433 . S
C383 N385 1.384 . S
N384 C380 1.427 . S
N384 C381 1.384 . S
N385 C377 1.427 . S
N385 C383 1.384 . S
H386 C392 0.930 . S
H387 C396 0.930 . S
H388 C401 0.929 . S
H389 C399 0.929 . S
H390 C394 0.929 . S
H391 C400 0.929 . S
C392 H386 0.930 . S
C392 C393 1.367 . S
C392 C400 1.378 . S
C393 C392 1.367 . S
C393 C401 1.433 . S
C394 H390 0.929 . S
C394 C396 1.378 . S
C394 C398 1.350 . S
C395 C398 1.463 . S
C395 C400 1.350 . S
C395 N403 1.427 . S
C396 H387 0.930 . S
C396 C394 1.378 . S
C396 C397 1.367 . S
C397 C396 1.367 . S
C397 C399 1.433 . S
C398 C394 1.350 . S
C398 C395 1.463 . S
C398 N402 1.427 . S
C399 H389 0.929 . S
C399 C397 1.433 . S
C399 N402 1.384 . S
C400 H391 0.929 . S
C400 C392 1.378 . S
C400 C395 1.350 . S
C401 H388 0.929 . S
C401 C393 1.433 . S
C401 N403 1.384 . S
N402 C398 1.427 . S
N402 C399 1.384 . S
N403 C395 1.427 . S
N403 C401 1.384 . S
H404 C410 0.930 . S
H405 C414 0.930 . S
H406 C419 0.929 . S
H407 C417 0.929 . S
H408 C412 0.929 . S
H409 C418 0.929 . S
C410 H404 0.930 . S
C410 C411 1.367 . S
C410 C418 1.378 . S
C411 C410 1.367 . S
C411 C419 1.433 . S
C412 H408 0.929 . S
C412 C414 1.378 . S
C412 C416 1.350 . S
C413 C416 1.463 1_556 S
C413 C418 1.350 . S
C413 N421 1.427 . S
C414 H405 0.930 . S
C414 C412 1.378 . S
C414 C415 1.367 . S
C415 C414 1.367 . S
C415 C417 1.433 . S
C416 C412 1.350 . S
C416 C413 1.463 1_554 S
C416 N420 1.427 . S
C417 H407 0.929 . S
C417 C415 1.433 . S
C417 N420 1.384 . S
C418 H409 0.929 . S
C418 C410 1.378 . S
C418 C413 1.350 . S
C419 H406 0.929 . S
C419 C411 1.433 . S
C419 N421 1.384 . S
N420 C416 1.427 . S
N420 C417 1.384 . S
N421 C413 1.427 . S
N421 C419 1.384 . S
H422 C428 0.930 . S
H423 C432 0.930 . S
H424 C437 0.929 . S
H425 C435 0.929 . S
H426 C430 0.929 . S
H427 C436 0.929 1_556 S
C428 H422 0.930 . S
C428 C429 1.367 . S
C428 C436 1.378 . S
C429 C428 1.367 . S
C429 C437 1.433 . S
C430 H426 0.929 . S
C430 C432 1.378 . S
C430 C434 1.350 . S
C431 C434 1.440 1_554 S
C431 C436 1.352 . S
C431 N439 1.448 . S
C432 H423 0.930 . S
C432 C430 1.378 . S
C432 C433 1.367 . S
C433 C432 1.367 . S
C433 C435 1.433 . S
C434 C430 1.350 . S
C434 C431 1.440 1_556 S
C434 N438 1.427 . S
C435 H425 0.929 . S
C435 C433 1.433 . S
C435 N438 1.384 . S
C436 H427 0.929 1_554 S
C436 C428 1.378 . S
C436 C431 1.352 . S
C437 H424 0.929 . S
C437 C429 1.433 . S
C437 N439 1.384 . S
N438 C434 1.427 . S
N438 C435 1.384 . S
N439 C431 1.448 . S
N439 C437 1.384 . S
H440 C446 0.930 . S
H441 C450 0.930 . S
H442 C455 0.929 . S
H443 C453 0.929 . S
H444 C448 0.929 . S
H445 C454 0.929 . S
C446 H440 0.930 . S
C446 C447 1.367 . S
C446 C454 1.378 . S
C447 C446 1.367 . S
C447 C455 1.433 . S
C448 H444 0.929 . S
C448 C450 1.378 . S
C448 C452 1.350 . S
C449 C452 1.463 . S
C449 C454 1.350 . S
C449 N457 1.427 . S
C450 H441 0.930 . S
C450 C448 1.378 . S
C450 C451 1.367 . S
C451 C450 1.367 . S
C451 C453 1.433 . S
C452 C448 1.350 . S
C452 C449 1.463 . S
C452 N456 1.427 . S
C453 H443 0.929 . S
C453 C451 1.433 . S
C453 N456 1.384 . S
C454 H445 0.929 . S
C454 C446 1.378 . S
C454 C449 1.350 . S
C455 H442 0.929 . S
C455 C447 1.433 . S
C455 N457 1.384 . S
N456 C452 1.427 . S
N456 C453 1.384 . S
N457 C449 1.427 . S
N457 C455 1.384 . S
H458 C464 0.930 . S
H459 C468 0.930 . S
H460 C473 0.929 . S
H461 C471 0.929 . S
H462 C466 0.929 . S
H463 C472 0.929 . S
C464 H458 0.930 . S
C464 C465 1.367 . S
C464 C472 1.378 . S
C465 C464 1.367 . S
C465 C473 1.433 . S
C466 H462 0.929 . S
C466 C468 1.378 . S
C466 C470 1.350 . S
C467 C470 1.463 . S
C467 C472 1.350 . S
C467 N475 1.427 . S
C468 H459 0.930 . S
C468 C466 1.378 . S
C468 C469 1.367 . S
C469 C468 1.367 . S
C469 C471 1.433 . S
C470 C466 1.350 . S
C470 C467 1.463 . S
C470 N474 1.427 . S
C471 H461 0.929 . S
C471 C469 1.433 . S
C471 N474 1.384 . S
C472 H463 0.929 . S
C472 C464 1.378 . S
C472 C467 1.350 . S
C473 H460 0.929 . S
C473 C465 1.433 . S
C473 N475 1.384 . S
N474 C470 1.427 . S
N474 C471 1.384 . S
N475 C467 1.427 . S
N475 C473 1.384 . S
H476 C482 0.930 . S
H477 C486 0.930 . S
H478 C491 0.929 . S
H479 C489 0.929 . S
H480 C484 0.929 . S
H481 C490 0.929 . S
C482 H476 0.930 . S
C482 C483 1.367 . S
C482 C490 1.378 . S
C483 C482 1.367 . S
C483 C491 1.433 . S
C484 H480 0.929 . S
C484 C486 1.378 . S
C484 C488 1.350 . S
C485 C488 1.463 1_655 S
C485 C490 1.350 . S
C485 N493 1.427 . S
C486 H477 0.930 . S
C486 C484 1.378 . S
C486 C487 1.367 . S
C487 C486 1.367 . S
C487 C489 1.433 . S
C488 C484 1.350 . S
C488 C485 1.463 1_455 S
C488 N492 1.427 . S
C489 H479 0.929 . S
C489 C487 1.433 . S
C489 N492 1.384 . S
C490 H481 0.929 . S
C490 C482 1.378 . S
C490 C485 1.350 . S
C491 H478 0.929 . S
C491 C483 1.433 . S
C491 N493 1.384 . S
N492 C488 1.427 . S
N492 C489 1.384 . S
N493 C485 1.427 . S
N493 C491 1.384 . S
H494 C500 0.930 . S
H495 C504 0.930 . S
H496 C509 0.929 . S
H497 C507 0.929 . S
H498 C502 0.929 . S
H499 C508 0.929 . S
C500 H494 0.930 . S
C500 C501 1.367 . S
C500 C508 1.378 . S
C501 C500 1.367 . S
C501 C509 1.433 . S
C502 H498 0.929 . S
C502 C504 1.378 . S
C502 C506 1.350 . S
C503 C506 1.463 1_655 S
C503 C508 1.350 . S
C503 N511 1.427 . S
C504 H495 0.930 . S
C504 C502 1.378 . S
C504 C505 1.367 . S
C505 C504 1.367 . S
C505 C507 1.433 . S
C506 C502 1.350 . S
C506 C503 1.463 1_455 S
C506 N510 1.427 . S
C507 H497 0.929 . S
C507 C505 1.433 . S
C507 N510 1.384 . S
C508 H499 0.929 . S
C508 C500 1.378 . S
C508 C503 1.350 . S
C509 H496 0.929 . S
C509 C501 1.433 . S
C509 N511 1.384 . S
N510 C506 1.427 . S
N510 C507 1.384 . S
N511 C503 1.427 . S
N511 C509 1.384 . S
H512 C518 0.930 . S
H513 C522 0.930 . S
H514 C527 0.929 . S
H515 C525 0.929 . S
H516 C520 0.929 . S
H517 C526 0.929 . S
C518 H512 0.930 . S
C518 C519 1.367 . S
C518 C526 1.378 . S
C519 C518 1.367 . S
C519 C527 1.433 . S
C520 H516 0.929 . S
C520 C522 1.378 . S
C520 C524 1.350 . S
C521 C524 1.463 . S
C521 C526 1.350 . S
C521 N529 1.427 . S
C522 H513 0.930 . S
C522 C520 1.378 . S
C522 C523 1.367 . S
C523 C522 1.367 . S
C523 C525 1.433 . S
C524 C520 1.350 . S
C524 C521 1.463 . S
C524 N528 1.427 . S
C525 H515 0.929 . S
C525 C523 1.433 . S
C525 N528 1.384 . S
C526 H517 0.929 . S
C526 C518 1.378 . S
C526 C521 1.350 . S
C527 H514 0.929 . S
C527 C519 1.433 . S
C527 N529 1.384 . S
N528 C524 1.427 . S
N528 C525 1.384 . S
N529 C521 1.427 . S
N529 C527 1.384 . S
H530 C536 0.930 . S
H531 C540 0.930 . S
H532 C545 0.929 . S
H533 C543 0.929 . S
H534 C538 0.929 1_545 S
H535 C544 0.929 1_565 S
C536 H530 0.930 . S
C536 C537 1.367 . S
C536 C544 1.378 . S
C537 C536 1.367 . S
C537 C545 1.433 . S
C538 H534 0.929 1_565 S
C538 C540 1.378 . S
C538 C542 1.350 . S
C539 C542 1.463 1_545 S
C539 C544 1.350 . S
C539 N547 1.427 . S
C540 H531 0.930 . S
C540 C538 1.378 . S
C540 C541 1.367 . S
C541 C540 1.367 . S
C541 C543 1.433 . S
C542 C538 1.350 . S
C542 C539 1.463 1_565 S
C542 N546 1.427 . S
C543 H533 0.929 . S
C543 C541 1.433 . S
C543 N546 1.384 . S
C544 H535 0.929 1_545 S
C544 C536 1.378 . S
C544 C539 1.350 . S
C545 H532 0.929 . S
C545 C537 1.433 . S
C545 N547 1.384 . S
N546 C542 1.427 . S
N546 C543 1.384 . S
N547 C539 1.427 . S
N547 C545 1.384 . S
H548 C554 0.930 . S
H549 C558 0.930 . S
H550 C563 0.929 . S
H551 C561 0.929 . S
H552 C556 0.929 . S
H553 C562 0.929 . S
C554 H548 0.930 . S
C554 C555 1.367 . S
C554 C562 1.378 . S
C555 C554 1.367 . S
C555 C563 1.433 . S
C556 H552 0.929 . S
C556 C558 1.378 . S
C556 C560 1.350 . S
C557 C560 1.463 . S
C557 C562 1.350 . S
C557 N565 1.427 . S
C558 H549 0.930 . S
C558 C556 1.378 . S
C558 C559 1.367 . S
C559 C558 1.367 . S
C559 C561 1.433 . S
C560 C556 1.350 . S
C560 C557 1.463 . S
C560 N564 1.427 . S
C561 H551 0.929 . S
C561 C559 1.433 . S
C561 N564 1.384 . S
C562 H553 0.929 . S
C562 C554 1.378 . S
C562 C557 1.350 . S
C563 H550 0.929 . S
C563 C555 1.433 . S
C563 N565 1.384 . S
N564 C560 1.427 . S
N564 C561 1.384 . S
N565 C557 1.427 . S
N565 C563 1.384 . S
H566 C572 0.930 . S
H567 C576 0.930 . S
H568 C581 0.929 . S
H569 C579 0.929 . S
H570 C574 0.929 1_554 S
H571 C580 0.929 . S
C572 H566 0.930 . S
C572 C573 1.367 . S
C572 C580 1.378 . S
C573 C572 1.367 . S
C573 C581 1.433 . S
C574 H570 0.929 1_556 S
C574 C576 1.378 . S
C574 C578 1.350 . S
C575 C578 1.463 1_554 S
C575 C580 1.350 . S
C575 N583 1.427 . S
C576 H567 0.930 . S
C576 C574 1.378 . S
C576 C577 1.367 . S
C577 C576 1.367 . S
C577 C579 1.433 . S
C578 C574 1.350 . S
C578 C575 1.463 1_556 S
C578 N582 1.427 . S
C579 H569 0.929 . S
C579 C577 1.433 . S
C579 N582 1.384 . S
C580 H571 0.929 . S
C580 C572 1.378 . S
C580 C575 1.350 . S
C581 H568 0.929 . S
C581 C573 1.433 . S
C581 N583 1.384 . S
N582 C578 1.427 . S
N582 C579 1.384 . S
N583 C575 1.427 . S
N583 C581 1.384 . S
H584 C590 0.930 . S
H585 C594 0.930 . S
H586 C599 0.929 . S
H587 C597 0.929 . S
H588 C592 0.929 . S
H589 C598 0.929 . S
C590 H584 0.930 . S
C590 C591 1.367 . S
C590 C598 1.378 . S
C591 C590 1.367 . S
C591 C599 1.433 . S
C592 H588 0.929 . S
C592 C594 1.378 . S
C592 C596 1.350 . S
C593 C596 1.463 1_556 S
C593 C598 1.350 . S
C593 N601 1.427 . S
C594 H585 0.930 . S
C594 C592 1.378 . S
C594 C595 1.367 . S
C595 C594 1.367 . S
C595 C597 1.433 . S
C596 C592 1.350 . S
C596 C593 1.463 1_554 S
C596 N600 1.427 . S
C597 H587 0.929 . S
C597 C595 1.433 . S
C597 N600 1.384 . S
C598 H589 0.929 . S
C598 C590 1.378 . S
C598 C593 1.350 . S
C599 H586 0.929 . S
C599 C591 1.433 . S
C599 N601 1.384 . S
N600 C596 1.427 . S
N600 C597 1.384 . S
N601 C593 1.427 . S
N601 C599 1.384 . S
H602 C608 0.930 . S
H603 C612 0.930 . S
H604 C617 0.929 . S
H605 C615 0.929 . S
H606 C610 0.929 . S
H607 C616 0.929 . S
C608 H602 0.930 . S
C608 C609 1.367 . S
C608 C616 1.378 . S
C609 C608 1.367 . S
C609 C617 1.433 . S
C610 H606 0.929 . S
C610 C612 1.378 . S
C610 C614 1.350 . S
C611 C614 1.463 . S
C611 C616 1.350 . S
C611 N619 1.427 . S
C612 H603 0.930 . S
C612 C610 1.378 . S
C612 C613 1.367 . S
C613 C612 1.367 . S
C613 C615 1.433 . S
C614 C610 1.350 . S
C614 C611 1.463 . S
C614 N618 1.427 . S
C615 H605 0.929 . S
C615 C613 1.433 . S
C615 N618 1.384 . S
C616 H607 0.929 . S
C616 C608 1.378 . S
C616 C611 1.350 . S
C617 H604 0.929 . S
C617 C609 1.433 . S
C617 N619 1.384 . S
N618 C614 1.427 . S
N618 C615 1.384 . S
N619 C611 1.427 . S
N619 C617 1.384 . S
H620 C626 0.930 . S
H621 C630 0.930 . S
H622 C635 0.929 . S
H623 C633 0.929 . S
H624 C628 0.929 . S
H625 C634 0.929 . S
C626 H620 0.930 . S
C626 C627 1.367 . S
C626 C634 1.378 . S
C627 C626 1.367 . S
C627 C635 1.433 . S
C628 H624 0.929 . S
C628 C630 1.378 . S
C628 C632 1.350 . S
C629 C632 1.463 . S
C629 C634 1.350 . S
C629 N637 1.427 . S
C630 H621 0.930 . S
C630 C628 1.378 . S
C630 C631 1.367 . S
C631 C630 1.367 . S
C631 C633 1.433 . S
C632 C628 1.350 . S
C632 C629 1.463 . S
C632 N636 1.427 . S
C633 H623 0.929 . S
C633 C631 1.433 . S
C633 N636 1.384 . S
C634 H625 0.929 . S
C634 C626 1.378 . S
C634 C629 1.350 . S
C635 H622 0.929 . S
C635 C627 1.433 . S
C635 N637 1.384 . S
N636 C632 1.427 . S
N636 C633 1.384 . S
N637 C629 1.427 . S
N637 C635 1.384 . S
H638 C644 0.930 . S
H639 C648 0.930 . S
H640 C653 0.929 . S
H641 C651 0.929 . S
H642 C646 0.929 . S
H643 C652 0.929 . S
C644 H638 0.930 . S
C644 C645 1.367 . S
C644 C652 1.378 . S
C645 C644 1.367 . S
C645 C653 1.433 . S
C646 H642 0.929 . S
C646 C648 1.378 . S
C646 C650 1.350 . S
C647 C650 1.463 1_455 S
C647 C652 1.350 . S
C647 N655 1.427 . S
C648 H639 0.930 . S
C648 C646 1.378 . S
C648 C649 1.367 . S
C649 C648 1.367 . S
C649 C651 1.433 . S
C650 C646 1.350 . S
C650 C647 1.463 1_655 S
C650 N654 1.427 . S
C651 H641 0.929 . S
C651 C649 1.433 . S
C651 N654 1.384 . S
C652 H643 0.929 . S
C652 C644 1.378 . S
C652 C647 1.350 . S
C653 H640 0.929 . S
C653 C645 1.433 . S
C653 N655 1.384 . S
N654 C650 1.427 . S
N654 C651 1.384 . S
N655 C647 1.427 . S
N655 C653 1.384 . S
H656 C662 0.930 . S
H657 C666 0.930 . S
H658 C671 0.929 . S
H659 C669 0.929 . S
H660 C664 0.929 . S
H661 C670 0.929 . S
C662 H656 0.930 . S
C662 C663 1.367 . S
C662 C670 1.378 . S
C663 C662 1.367 . S
C663 C671 1.433 . S
C664 H660 0.929 . S
C664 C666 1.378 . S
C664 C668 1.350 . S
C665 C668 1.463 1_455 S
C665 C670 1.350 . S
C665 N673 1.427 . S
C666 H657 0.930 . S
C666 C664 1.378 . S
C666 C667 1.367 . S
C667 C666 1.367 . S
C667 C669 1.433 . S
C668 C664 1.350 . S
C668 C665 1.463 1_655 S
C668 N672 1.427 . S
C669 H659 0.929 . S
C669 C667 1.433 . S
C669 N672 1.384 . S
C670 H661 0.929 . S
C670 C662 1.378 . S
C670 C665 1.350 . S
C671 H658 0.929 . S
C671 C663 1.433 . S
C671 N673 1.384 . S
N672 C668 1.427 . S
N672 C669 1.384 . S
N673 C665 1.427 . S
N673 C671 1.384 . S
H674 C680 0.930 . S
H675 C684 0.930 . S
H676 C689 0.929 . S
H677 C687 0.929 . S
H678 C682 0.929 . S
H679 C688 0.929 . S
C680 H674 0.930 . S
C680 C681 1.367 . S
C680 C688 1.378 . S
C681 C680 1.367 . S
C681 C689 1.433 . S
C682 H678 0.929 . S
C682 C684 1.378 . S
C682 C686 1.350 . S
C683 C686 1.463 . S
C683 C688 1.350 . S
C683 N691 1.427 . S
C684 H675 0.930 . S
C684 C682 1.378 . S
C684 C685 1.367 . S
C685 C684 1.367 . S
C685 C687 1.433 . S
C686 C682 1.350 . S
C686 C683 1.463 . S
C686 N690 1.427 . S
C687 H677 0.929 . S
C687 C685 1.433 . S
C687 N690 1.384 . S
C688 H679 0.929 . S
C688 C680 1.378 . S
C688 C683 1.350 . S
C689 H676 0.929 . S
C689 C681 1.433 . S
C689 N691 1.384 . S
N690 C686 1.427 . S
N690 C687 1.384 . S
N691 C683 1.427 . S
N691 C689 1.384 . S
H692 C698 0.930 . S
H693 C702 0.930 . S
H694 C707 0.929 . S
H695 C705 0.929 . S
H696 C700 0.929 . S
H697 C706 0.929 . S
C698 H692 0.930 . S
C698 C699 1.367 . S
C698 C706 1.378 . S
C699 C698 1.367 . S
C699 C707 1.433 . S
C700 H696 0.929 . S
C700 C702 1.378 . S
C700 C704 1.350 . S
C701 C704 1.463 . S
C701 C706 1.350 . S
C701 N709 1.427 . S
C702 H693 0.930 . S
C702 C700 1.378 . S
C702 C703 1.367 . S
C703 C702 1.367 . S
C703 C705 1.433 . S
C704 C700 1.350 . S
C704 C701 1.463 . S
C704 N708 1.427 . S
C705 H695 0.929 . S
C705 C703 1.433 . S
C705 N708 1.384 . S
C706 H697 0.929 . S
C706 C698 1.378 . S
C706 C701 1.350 . S
C707 H694 0.929 . S
C707 C699 1.433 . S
C707 N709 1.384 . S
N708 C704 1.427 . S
N708 C705 1.384 . S
N709 C701 1.427 . S
N709 C707 1.384 . S
H710 C716 0.930 . S
H711 C720 0.930 . S
H712 C725 0.929 . S
H713 C723 0.929 . S
H714 C718 0.929 . S
H715 C724 0.929 . S
C716 H710 0.930 . S
C716 C717 1.367 . S
C716 C724 1.378 . S
C717 C716 1.367 . S
C717 C725 1.433 . S
C718 H714 0.929 . S
C718 C720 1.378 . S
C718 C722 1.350 . S
C719 C722 1.463 1_545 S
C719 C724 1.350 . S
C719 N727 1.427 . S
C720 H711 0.930 . S
C720 C718 1.378 . S
C720 C721 1.367 . S
C721 C720 1.367 . S
C721 C723 1.433 . S
C722 C718 1.350 . S
C722 C719 1.463 1_565 S
C722 N726 1.427 . S
C723 H713 0.929 . S
C723 C721 1.433 . S
C723 N726 1.384 . S
C724 H715 0.929 . S
C724 C716 1.378 . S
C724 C719 1.350 . S
C725 H712 0.929 . S
C725 C717 1.433 . S
C725 N727 1.384 . S
N726 C722 1.427 . S
N726 C723 1.384 . S
N727 C719 1.427 . S
N727 C725 1.384 . S
H728 C734 0.930 . S
H729 C738 0.930 . S
H730 C743 0.929 . S
H731 C741 0.929 . S
H732 C736 0.929 . S
H733 C742 0.929 . S
C734 H728 0.930 . S
C734 C735 1.367 . S
C734 C742 1.378 . S
C735 C734 1.367 . S
C735 C743 1.433 . S
C736 H732 0.929 . S
C736 C738 1.378 . S
C736 C740 1.350 . S
C737 C740 1.463 . S
C737 C742 1.350 . S
C737 N745 1.427 . S
C738 H729 0.930 . S
C738 C736 1.378 . S
C738 C739 1.367 . S
C739 C738 1.367 . S
C739 C741 1.433 . S
C740 C736 1.350 . S
C740 C737 1.463 . S
C740 N744 1.427 . S
C741 H731 0.929 . S
C741 C739 1.433 . S
C741 N744 1.384 . S
C742 H733 0.929 . S
C742 C734 1.378 . S
C742 C737 1.350 . S
C743 H730 0.929 . S
C743 C735 1.433 . S
C743 N745 1.384 . S
N744 C740 1.427 . S
N744 C741 1.384 . S
N745 C737 1.427 . S
N745 C743 1.384 . S
H746 C752 0.930 . S
H747 C756 0.930 . S
H748 C761 0.929 . S
H749 C759 0.929 . S
H750 C754 0.929 . S
H751 C760 0.929 . S
C752 H746 0.930 . S
C752 C753 1.367 . S
C752 C760 1.378 . S
C753 C752 1.367 . S
C753 C761 1.433 . S
C754 H750 0.929 . S
C754 C756 1.378 . S
C754 C758 1.350 . S
C755 C758 1.463 . S
C755 C760 1.350 . S
C755 N763 1.427 . S
C756 H747 0.930 . S
C756 C754 1.378 . S
C756 C757 1.367 . S
C757 C756 1.367 . S
C757 C759 1.433 . S
C758 C754 1.350 . S
C758 C755 1.463 . S
C758 N762 1.427 . S
C759 H749 0.929 . S
C759 C757 1.433 . S
C759 N762 1.384 . S
C760 H751 0.929 . S
C760 C752 1.378 . S
C760 C755 1.350 . S
C761 H748 0.929 . S
C761 C753 1.433 . S
C761 N763 1.384 . S
N762 C758 1.427 . S
N762 C759 1.384 . S
N763 C755 1.427 . S
N763 C761 1.384 . S
H764 C770 0.930 . S
H765 C774 0.930 . S
H766 C779 0.929 . S
H767 C777 0.929 . S
H768 C772 0.929 . S
H769 C778 0.929 . S
C770 H764 0.930 . S
C770 C771 1.367 . S
C770 C778 1.378 . S
C771 C770 1.367 . S
C771 C779 1.433 . S
C772 H768 0.929 . S
C772 C774 1.378 . S
C772 C776 1.350 . S
C773 C776 1.463 1_545 S
C773 C778 1.350 . S
C773 N781 1.427 . S
C774 H765 0.930 . S
C774 C772 1.378 . S
C774 C775 1.367 . S
C775 C774 1.367 . S
C775 C777 1.433 . S
C776 C772 1.350 . S
C776 C773 1.463 1_565 S
C776 N780 1.427 . S
C777 H767 0.929 . S
C777 C775 1.433 . S
C777 N780 1.384 . S
C778 H769 0.929 . S
C778 C770 1.378 . S
C778 C773 1.350 . S
C779 H766 0.929 . S
C779 C771 1.433 . S
C779 N781 1.384 . S
N780 C776 1.427 . S
N780 C777 1.384 . S
N781 C773 1.427 . S
N781 C779 1.384 . S
H782 C788 0.930 . S
H783 C792 0.930 . S
H784 C797 0.929 . S
H785 C795 0.929 . S
H786 C790 0.929 . S
H787 C796 0.929 . S
C788 H782 0.930 . S
C788 C789 1.367 . S
C788 C796 1.378 . S
C789 C788 1.367 . S
C789 C797 1.433 . S
C790 H786 0.929 . S
C790 C792 1.378 . S
C790 C794 1.350 . S
C791 C794 1.463 . S
C791 C796 1.350 . S
C791 N799 1.427 . S
C792 H783 0.930 . S
C792 C790 1.378 . S
C792 C793 1.367 . S
C793 C792 1.367 . S
C793 C795 1.433 . S
C794 C790 1.350 . S
C794 C791 1.463 . S
C794 N798 1.427 . S
C795 H785 0.929 . S
C795 C793 1.433 . S
C795 N798 1.384 . S
C796 H787 0.929 . S
C796 C788 1.378 . S
C796 C791 1.350 . S
C797 H784 0.929 . S
C797 C789 1.433 . S
C797 N799 1.384 . S
N798 C794 1.427 . S
N798 C795 1.384 . S
N799 C791 1.427 . S
N799 C797 1.384 . S
C231 C8 1.359 . S
C235 C190 1.363 . S
C249 C22 1.196 . S
C253 C134 1.193 . S
C267 C204 1.060 . S
C271 C36 1.051 . S
C285 C50 1.011 . S
C289 C218 1.012 . S
C303 C64 1.199 . S
C307 C92 1.186 . S
C321 C148 1.364 . S
C325 C78 1.355 . S
C339 C162 1.054 . S
C343 C106 1.045 . S
C357 C120 1.010 . S
C361 C176 1.009 . S
C375 C41 1.596 . S
C379 C7 1.704 . S
C393 C21 1.529 . S
C397 C55 1.454 . S
C411 C175 1.469 . S
C415 C11 1.472 . S
C429 C25 1.468 . S
C433 C161 1.461 . S
C447 C67 1.468 . S
C451 C35 1.462 . S
C465 C151 1.475 . S
C469 C49 1.474 . S
C483 C27 1.521 . S
C487 C13 1.539 . S
C501 C53 1.462 . S
C505 C39 1.459 . S
C519 C153 1.525 . S
C523 C69 1.535 . S
C537 C105 1.486 . S
C541 C83 1.365 . S
C555 C97 1.362 . S
C559 C125 1.355 . S
C573 C221 1.562 . S
C577 C81 1.567 . S
C591 C95 1.635 . S
C595 C209 1.510 . S
C609 C137 1.635 . S
C613 C111 1.504 . S
C627 C123 1.565 . S
C631 C193 1.563 . S
C645 C91 1.758 . S
C649 C77 1.755 . S
C663 C119 1.349 . S
C667 C109 1.344 . S
C681 C133 1.759 . S
C685 C189 1.755 . S
C699 C147 1.707 . S
C703 C167 1.609 . S
C717 C181 1.443 . S
C721 C63 1.524 . S
C735 C179 1.461 . S
C739 C165 1.463 . S
C753 C203 1.486 . S
C757 C195 1.365 . S
C771 C139 1.359 . S
C775 C223 1.362 . S
C789 C217 1.343 . S
C793 C207 1.350 . S
