# Generated by pormake.
# Topology cha, (4)-cn, num edge types: 1
# Building blocks:
#     Node 0, Type 0, BuildingBlock: KUFVIS_clean_sbu_0, # of connection points: 4
#     Node 1, Type 0, BuildingBlock: KUFVIS_clean_sbu_0, # of connection points: 4
#     Node 2, Type 0, BuildingBlock: KUFVIS_clean_sbu_0, # of connection points: 4
#     Node 3, Type 0, BuildingBlock: KUFVIS_clean_sbu_0, # of connection points: 4
#     Node 4, Type 0, BuildingBlock: KUFVIS_clean_sbu_0, # of connection points: 4
#     Node 5, Type 0, BuildingBlock: KUFVIS_clean_sbu_0, # of connection points: 4
#     Node 6, Type 0, BuildingBlock: KUFVIS_clean_sbu_0, # of connection points: 4
#     Node 7, Type 0, BuildingBlock: KUFVIS_clean_sbu_0, # of connection points: 4
#     Node 8, Type 0, BuildingBlock: KUFVIS_clean_sbu_0, # of connection points: 4
#     Node 9, Type 0, BuildingBlock: KUFVIS_clean_sbu_0, # of connection points: 4
#     Node 10, Type 0, BuildingBlock: KUFVIS_clean_sbu_0, # of connection points: 4
#     Node 11, Type 0, BuildingBlock: KUFVIS_clean_sbu_0, # of connection points: 4
#     Node 12, Type 0, BuildingBlock: KUFVIS_clean_sbu_0, # of connection points: 4
#     Node 13, Type 0, BuildingBlock: KUFVIS_clean_sbu_0, # of connection points: 4
#     Node 14, Type 0, BuildingBlock: KUFVIS_clean_sbu_0, # of connection points: 4
#     Node 15, Type 0, BuildingBlock: KUFVIS_clean_sbu_0, # of connection points: 4
#     Node 16, Type 0, BuildingBlock: KUFVIS_clean_sbu_0, # of connection points: 4
#     Node 17, Type 0, BuildingBlock: KUFVIS_clean_sbu_0, # of connection points: 4
#     Node 18, Type 0, BuildingBlock: KUFVIS_clean_sbu_0, # of connection points: 4
#     Node 19, Type 0, BuildingBlock: KUFVIS_clean_sbu_0, # of connection points: 4
#     Node 20, Type 0, BuildingBlock: KUFVIS_clean_sbu_0, # of connection points: 4
#     Node 21, Type 0, BuildingBlock: KUFVIS_clean_sbu_0, # of connection points: 4
#     Node 22, Type 0, BuildingBlock: KUFVIS_clean_sbu_0, # of connection points: 4
#     Node 23, Type 0, BuildingBlock: KUFVIS_clean_sbu_0, # of connection points: 4
#     Node 24, Type 0, BuildingBlock: KUFVIS_clean_sbu_0, # of connection points: 4
#     Node 25, Type 0, BuildingBlock: KUFVIS_clean_sbu_0, # of connection points: 4
#     Node 26, Type 0, BuildingBlock: KUFVIS_clean_sbu_0, # of connection points: 4
#     Node 27, Type 0, BuildingBlock: KUFVIS_clean_sbu_0, # of connection points: 4
#     Node 28, Type 0, BuildingBlock: KUFVIS_clean_sbu_0, # of connection points: 4
#     Node 29, Type 0, BuildingBlock: KUFVIS_clean_sbu_0, # of connection points: 4
#     Node 30, Type 0, BuildingBlock: KUFVIS_clean_sbu_0, # of connection points: 4
#     Node 31, Type 0, BuildingBlock: KUFVIS_clean_sbu_0, # of connection points: 4
#     Node 32, Type 0, BuildingBlock: KUFVIS_clean_sbu_0, # of connection points: 4
#     Node 33, Type 0, BuildingBlock: KUFVIS_clean_sbu_0, # of connection points: 4
#     Node 34, Type 0, BuildingBlock: KUFVIS_clean_sbu_0, # of connection points: 4
#     Node 35, Type 0, BuildingBlock: KUFVIS_clean_sbu_0, # of connection points: 4
#     Edge 36, Type (0, 0), BuildingBlock: AJUNOK_clean_linker_0, # of connection points: 2
#     Edge 37, Type (0, 0), BuildingBlock: AJUNOK_clean_linker_0, # of connection points: 2
#     Edge 38, Type (0, 0), BuildingBlock: AJUNOK_clean_linker_0, # of connection points: 2
#     Edge 39, Type (0, 0), BuildingBlock: AJUNOK_clean_linker_0, # of connection points: 2
#     Edge 40, Type (0, 0), BuildingBlock: AJUNOK_clean_linker_0, # of connection points: 2
#     Edge 41, Type (0, 0), BuildingBlock: AJUNOK_clean_linker_0, # of connection points: 2
#     Edge 42, Type (0, 0), BuildingBlock: AJUNOK_clean_linker_0, # of connection points: 2
#     Edge 43, Type (0, 0), BuildingBlock: AJUNOK_clean_linker_0, # of connection points: 2
#     Edge 44, Type (0, 0), BuildingBlock: AJUNOK_clean_linker_0, # of connection points: 2
#     Edge 45, Type (0, 0), BuildingBlock: AJUNOK_clean_linker_0, # of connection points: 2
#     Edge 46, Type (0, 0), BuildingBlock: AJUNOK_clean_linker_0, # of connection points: 2
#     Edge 47, Type (0, 0), BuildingBlock: AJUNOK_clean_linker_0, # of connection points: 2
#     Edge 48, Type (0, 0), BuildingBlock: AJUNOK_clean_linker_0, # of connection points: 2
#     Edge 49, Type (0, 0), BuildingBlock: AJUNOK_clean_linker_0, # of connection points: 2
#     Edge 50, Type (0, 0), BuildingBlock: AJUNOK_clean_linker_0, # of connection points: 2
#     Edge 51, Type (0, 0), BuildingBlock: AJUNOK_clean_linker_0, # of connection points: 2
#     Edge 52, Type (0, 0), BuildingBlock: AJUNOK_clean_linker_0, # of connection points: 2
#     Edge 53, Type (0, 0), BuildingBlock: AJUNOK_clean_linker_0, # of connection points: 2
#     Edge 54, Type (0, 0), BuildingBlock: AJUNOK_clean_linker_0, # of connection points: 2
#     Edge 55, Type (0, 0), BuildingBlock: AJUNOK_clean_linker_0, # of connection points: 2
#     Edge 56, Type (0, 0), BuildingBlock: AJUNOK_clean_linker_0, # of connection points: 2
#     Edge 57, Type (0, 0), BuildingBlock: AJUNOK_clean_linker_0, # of connection points: 2
#     Edge 58, Type (0, 0), BuildingBlock: AJUNOK_clean_linker_0, # of connection points: 2
#     Edge 59, Type (0, 0), BuildingBlock: AJUNOK_clean_linker_0, # of connection points: 2
#     Edge 60, Type (0, 0), BuildingBlock: AJUNOK_clean_linker_0, # of connection points: 2
#     Edge 61, Type (0, 0), BuildingBlock: AJUNOK_clean_linker_0, # of connection points: 2
#     Edge 62, Type (0, 0), BuildingBlock: AJUNOK_clean_linker_0, # of connection points: 2
#     Edge 63, Type (0, 0), BuildingBlock: AJUNOK_clean_linker_0, # of connection points: 2
#     Edge 64, Type (0, 0), BuildingBlock: AJUNOK_clean_linker_0, # of connection points: 2
#     Edge 65, Type (0, 0), BuildingBlock: AJUNOK_clean_linker_0, # of connection points: 2
#     Edge 66, Type (0, 0), BuildingBlock: AJUNOK_clean_linker_0, # of connection points: 2
#     Edge 67, Type (0, 0), BuildingBlock: AJUNOK_clean_linker_0, # of connection points: 2
#     Edge 68, Type (0, 0), BuildingBlock: AJUNOK_clean_linker_0, # of connection points: 2
#     Edge 69, Type (0, 0), BuildingBlock: AJUNOK_clean_linker_0, # of connection points: 2
#     Edge 70, Type (0, 0), BuildingBlock: AJUNOK_clean_linker_0, # of connection points: 2
#     Edge 71, Type (0, 0), BuildingBlock: AJUNOK_clean_linker_0, # of connection points: 2
#     Edge 72, Type (0, 0), BuildingBlock: AJUNOK_clean_linker_0, # of connection points: 2
#     Edge 73, Type (0, 0), BuildingBlock: AJUNOK_clean_linker_0, # of connection points: 2
#     Edge 74, Type (0, 0), BuildingBlock: AJUNOK_clean_linker_0, # of connection points: 2
#     Edge 75, Type (0, 0), BuildingBlock: AJUNOK_clean_linker_0, # of connection points: 2
#     Edge 76, Type (0, 0), BuildingBlock: AJUNOK_clean_linker_0, # of connection points: 2
#     Edge 77, Type (0, 0), BuildingBlock: AJUNOK_clean_linker_0, # of connection points: 2
#     Edge 78, Type (0, 0), BuildingBlock: AJUNOK_clean_linker_0, # of connection points: 2
#     Edge 79, Type (0, 0), BuildingBlock: AJUNOK_clean_linker_0, # of connection points: 2
#     Edge 80, Type (0, 0), BuildingBlock: AJUNOK_clean_linker_0, # of connection points: 2
#     Edge 81, Type (0, 0), BuildingBlock: AJUNOK_clean_linker_0, # of connection points: 2
#     Edge 82, Type (0, 0), BuildingBlock: AJUNOK_clean_linker_0, # of connection points: 2
#     Edge 83, Type (0, 0), BuildingBlock: AJUNOK_clean_linker_0, # of connection points: 2
#     Edge 84, Type (0, 0), BuildingBlock: AJUNOK_clean_linker_0, # of connection points: 2
#     Edge 85, Type (0, 0), BuildingBlock: AJUNOK_clean_linker_0, # of connection points: 2
#     Edge 86, Type (0, 0), BuildingBlock: AJUNOK_clean_linker_0, # of connection points: 2
#     Edge 87, Type (0, 0), BuildingBlock: AJUNOK_clean_linker_0, # of connection points: 2
#     Edge 88, Type (0, 0), BuildingBlock: AJUNOK_clean_linker_0, # of connection points: 2
#     Edge 89, Type (0, 0), BuildingBlock: AJUNOK_clean_linker_0, # of connection points: 2
#     Edge 90, Type (0, 0), BuildingBlock: AJUNOK_clean_linker_0, # of connection points: 2
#     Edge 91, Type (0, 0), BuildingBlock: AJUNOK_clean_linker_0, # of connection points: 2
#     Edge 92, Type (0, 0), BuildingBlock: AJUNOK_clean_linker_0, # of connection points: 2
#     Edge 93, Type (0, 0), BuildingBlock: AJUNOK_clean_linker_0, # of connection points: 2
#     Edge 94, Type (0, 0), BuildingBlock: AJUNOK_clean_linker_0, # of connection points: 2
#     Edge 95, Type (0, 0), BuildingBlock: AJUNOK_clean_linker_0, # of connection points: 2
#     Edge 96, Type (0, 0), BuildingBlock: AJUNOK_clean_linker_0, # of connection points: 2
#     Edge 97, Type (0, 0), BuildingBlock: AJUNOK_clean_linker_0, # of connection points: 2
#     Edge 98, Type (0, 0), BuildingBlock: AJUNOK_clean_linker_0, # of connection points: 2
#     Edge 99, Type (0, 0), BuildingBlock: AJUNOK_clean_linker_0, # of connection points: 2
#     Edge 100, Type (0, 0), BuildingBlock: AJUNOK_clean_linker_0, # of connection points: 2
#     Edge 101, Type (0, 0), BuildingBlock: AJUNOK_clean_linker_0, # of connection points: 2
#     Edge 102, Type (0, 0), BuildingBlock: AJUNOK_clean_linker_0, # of connection points: 2
#     Edge 103, Type (0, 0), BuildingBlock: AJUNOK_clean_linker_0, # of connection points: 2
#     Edge 104, Type (0, 0), BuildingBlock: AJUNOK_clean_linker_0, # of connection points: 2
#     Edge 105, Type (0, 0), BuildingBlock: AJUNOK_clean_linker_0, # of connection points: 2
#     Edge 106, Type (0, 0), BuildingBlock: AJUNOK_clean_linker_0, # of connection points: 2
#     Edge 107, Type (0, 0), BuildingBlock: AJUNOK_clean_linker_0, # of connection points: 2
# Relax obj value: 0.089
# Max RMSD: 0.120
# Mean RMSD: 0.120
data_MOF--net-cha--node1-KUFVIS_clean_sbu_0--edge1-AJUNOK_clean_linker_0
_symmetry_space_group_name_H-M    P1
_symmetry_Int_Tables_number       1
_symmetry_cell_setting            triclinic
loop_
_symmetry_equiv_pos_as_xyz
'x, y, z'
_cell_length_a     40.887016
_cell_length_b     40.90774
_cell_length_c     62.62881
_cell_angle_alpha  89.933295
_cell_angle_beta   90.261382
_cell_angle_gamma 120.01863
loop_
_atom_site_label
_atom_site_type_symbol
_atom_site_fract_x
_atom_site_fract_y
_atom_site_fract_z
_atom_type_partial_charge
Mn0 Mn 0.00814 0.28147 0.09659 0.0
Mn1 Mn 1.00053 0.20098 0.07888 0.0
C2 C 0.94815 0.2264 0.09418 0.0
C3 C 0.01819 0.3187 0.12722 0.0
C4 C 0.02399 0.27201 0.05155 0.0
O5 O 0.06252 0.2902 0.09688 0.0
O6 O 0.04853 0.22936 0.09545 0.0
C7 C 0.99818 0.161 0.11786 0.0
N8 N 0.98054 0.15989 0.09935 0.0
C9 C 0.95461 0.08817 0.09571 0.0
C10 C 0.9725 0.09309 0.11684 0.0
C11 C 0.99215 0.12784 0.12741 0.0
C12 C 0.95334 0.12659 0.09136 0.0
H13 H 0.01772 0.18767 0.12523 0.0
C14 C 0.07216 0.26477 0.09749 0.0
O15 O 0.02427 0.33338 0.10821 0.0
O16 O 0.00735 0.28317 0.12834 0.0
N17 N 0.95622 0.17178 0.06051 0.0
C18 C 0.96059 0.18154 0.03515 0.0
C19 C 0.9444 0.14838 0.01366 0.0
C20 C 0.91955 0.09892 0.01634 0.0
C21 C 0.9089 0.07802 0.0418 0.0
C22 C 0.93475 0.13067 0.07085 0.0
H23 H 0.97166 0.21031 0.03056 0.0
O24 O 0.95088 0.2593 0.09588 0.0
O25 O 0.97993 0.22714 0.09416 0.0
O26 O 0.01316 0.29002 0.06358 0.0
O27 O 0.02208 0.24148 0.05781 0.0
C28 C 0.90962 0.04069 0.04552 0.0
C29 C 0.92812 0.0363 0.06678 0.0
H30 H 0.97362 0.07103 0.12579 0.0
H31 H 0.00572 0.12944 0.14258 0.0
H32 H 0.94916 0.15947 0.99759 0.0
H33 H 0.91354 0.08143 1.00229 0.0
H34 H 0.90157 0.0201 0.03293 0.0
H35 H 0.92674 0.00876 0.06612 0.0
Mn36 Mn 0.75925 0.74814 0.1008 0.0
Mn37 Mn 0.82556 0.81782 0.07015 0.0
C38 C 0.81636 0.75111 0.09406 0.0
C39 C 0.73223 0.72599 0.13448 0.0
C40 C 0.75281 0.7519 0.05267 0.0
O41 O 0.74228 0.78751 0.09974 0.0
O42 O 0.79306 0.8355 0.08337 0.0
C43 C 0.86786 0.86936 0.10346 0.0
N44 N 0.86946 0.85193 0.08576 0.0
C45 C 0.94179 0.89523 0.08126 0.0
C46 C 0.93454 0.91056 0.10147 0.0
C47 C 0.90037 0.89766 0.11191 0.0
C48 C 0.90245 0.85905 0.07613 0.0
H49 H 0.84127 0.86115 0.11115 0.0
C50 C 0.76108 0.82149 0.09288 0.0
O51 O 0.71341 0.71124 0.11698 0.0
O52 O 0.76629 0.75424 0.13243 0.0
N53 N 0.85837 0.8045 0.05625 0.0
C54 C 0.84629 0.77546 0.0423 0.0
C55 C 0.8706 0.77139 0.02879 0.0
C56 C 0.9085 0.79806 0.02725 0.0
C57 C 0.92699 0.83394 0.04125 0.0
C58 C 0.8952 0.83137 0.05884 0.0
H59 H 0.81713 0.75406 0.04186 0.0
O60 O 0.78758 0.71966 0.10038 0.0
O61 O 0.8111 0.77959 0.09227 0.0
O62 O 0.74136 0.73226 0.0697 0.0
O63 O 0.78233 0.78448 0.05177 0.0
C64 C 0.99141 0.88914 0.04175 0.0
C65 C 0.99715 0.9155 0.05911 0.0
H66 H 0.95493 0.93456 0.1107 0.0
H67 H 0.89898 0.91114 0.1265 0.0
H68 H 0.85945 0.74692 0.01846 0.0
H69 H 0.92328 0.82144 0.03471 0.0
H70 H 0.01715 0.8982 0.03223 0.0
H71 H 0.02617 0.93978 0.05932 0.0
Mn72 Mn 0.30288 0.04347 0.1085 0.0
Mn73 Mn 0.22886 0.04252 0.08213 0.0
C74 C 0.30362 0.09941 0.10136 0.0
C75 C 0.33094 0.04031 0.14089 0.0
C76 C 0.29082 0.03484 0.05993 0.0
O77 O 0.2623 0.98768 0.10999 0.0
O78 O 0.2153 0.99289 0.09469 0.0
C79 C 0.1697 0.01934 0.10847 0.0
N80 N 0.19889 0.05188 0.1016 0.0
C81 C 0.17116 0.06738 0.07128 0.0
C82 C 0.1445 0.01944 0.0743 0.0
C83 C 0.1429 0.99973 0.09305 0.0
C84 C 0.18805 0.07493 0.09164 0.0
H85 H 0.17283 0.00453 0.12195 0.0
C86 C 0.22811 0.97381 0.10392 0.0
O87 O 0.34128 0.03345 0.12264 0.0
O88 O 0.30363 0.04774 0.14038 0.0
N89 N 0.23351 0.08546 0.06797 0.0
C90 C 0.26362 0.10824 0.05521 0.0
C91 C 0.26246 0.13505 0.04048 0.0
C92 C 0.21384 0.14489 0.03185 0.0
C93 C 0.17678 0.11652 0.04742 0.0
C94 C 0.19434 0.08254 0.06943 0.0
H95 H 0.28865 0.10584 0.05625 0.0
O96 O 0.33447 0.09937 0.10611 0.0
O97 O 0.27262 0.06707 0.1016 0.0
O98 O 0.3109 0.03803 0.0764 0.0
O99 O 0.25957 0.03497 0.06047 0.0
C100 C 0.14087 0.11866 0.04193 0.0
C101 C 0.16174 0.1077 0.05162 0.0
H102 H 0.12499 1.00018 0.0624 0.0
H103 H 0.12305 0.96986 0.09476 0.0
H104 H 0.29179 0.14894 0.03463 0.0
H105 H 0.20958 0.16334 0.02072 0.0
H106 H 0.1484 0.13966 0.02795 0.0
H107 H 0.12551 0.10811 0.05094 0.0
Mn108 Mn 0.29682 0.01532 0.92405 0.0
Mn109 Mn 0.22508 0.02083 0.94723 0.0
C110 C 0.23987 0.96093 0.92979 0.0
C111 C 0.32794 0.01874 0.89204 0.0
C112 C 0.2945 0.02992 0.97095 0.0
O113 O 0.31386 0.07143 0.92337 0.0
O114 O 0.25856 0.06845 0.93135 0.0
C115 C 0.18645 0.02517 0.90865 0.0
N116 N 0.18349 0.00609 0.92686 0.0
C117 C 0.11117 0.97985 0.92775 0.0
C118 C 0.11832 0.99897 0.90696 0.0
C119 C 0.15427 0.01948 0.89786 0.0
C120 C 0.14912 0.97805 0.93331 0.0
H121 H 0.21378 0.04505 0.90225 0.0
C122 C 0.29321 0.08645 0.92535 0.0
O123 O 0.34488 0.02397 0.91039 0.0
O124 O 0.29371 0.01272 0.89234 0.0
N125 N 0.1912 0.97848 0.96535 0.0
C126 C 0.19886 0.98289 0.99108 0.0
C127 C 0.16386 0.96603 0.01143 0.0
C128 C 0.1146 0.9413 1.00717 0.0
C129 C 0.09591 0.9316 0.98104 0.0
C130 C 0.15083 0.95793 0.95372 0.0
H131 H 0.22713 1.00035 0.99692 0.0
O132 O 0.26985 0.95896 0.92558 0.0
O133 O 0.244 0.99434 0.92995 0.0
O134 O 0.3083 0.01895 0.95618 0.0
O135 O 0.26656 0.03549 0.96831 0.0
C136 C 0.05921 0.93306 0.97633 0.0
C137 C 0.05693 0.95276 0.95506 0.0
H138 H 0.0972 0.00057 0.89727 0.0
H139 H 0.15751 0.03383 0.88281 0.0
H140 H 0.17367 0.97276 0.02777 0.0
H141 H 0.09594 0.93558 0.02059 0.0
H142 H 0.03785 0.92512 0.9885 0.0
H143 H 0.02962 0.95192 0.95499 0.0
Mn144 Mn 0.06106 0.30465 0.91335 0.0
Mn145 Mn 0.06708 0.232 0.93325 0.0
C146 C 0.12066 0.30882 0.9164 0.0
C147 C 0.05115 0.32951 0.88165 0.0
C148 C 0.04431 0.28175 0.95876 0.0
O149 O 0.00644 0.25983 0.91353 0.0
O150 O 0.01929 0.21238 0.91651 0.0
C151 C 0.06786 0.18957 0.89619 0.0
N152 N 0.08662 0.20871 0.91394 0.0
C153 C 0.11408 0.16429 0.91912 0.0
C154 C 0.09584 0.14942 0.89829 0.0
C155 C 0.07444 0.16226 0.88747 0.0
C156 C 0.11443 0.20386 0.92236 0.0
H157 H 0.04749 0.19523 0.88855 0.0
C158 C 0.99608 0.22465 0.91414 0.0
O159 O 0.04561 0.34007 0.90022 0.0
O160 O 0.06188 0.30471 0.8816 0.0
N161 N 0.11082 0.24755 0.95201 0.0
C162 C 0.10612 0.25413 0.97717 0.0
C163 C 0.12277 0.23895 0.9993 0.0
C164 C 0.14853 0.21514 0.99762 0.0
C165 C 0.15962 0.20381 0.97259 0.0
C166 C 0.13283 0.22795 0.94247 0.0
H167 H 0.09464 0.27165 0.98119 0.0
O168 O 0.11833 0.33908 0.91388 0.0
O169 O 0.08866 0.27796 0.91693 0.0
O170 O 0.05578 0.31025 0.9463 0.0
O171 O 0.04621 0.25296 0.95312 0.0
C172 C 0.15976 0.16602 0.96997 0.0
C173 C 0.14157 0.14171 0.94911 0.0
H174 H 0.09548 0.12612 0.88991 0.0
H175 H 0.06033 0.14866 0.8727 0.0
H176 H 0.11733 0.24562 0.01511 0.0
H177 H 0.15476 0.20466 0.01204 0.0
H178 H 0.16786 0.15448 0.98318 0.0
H179 H 0.14353 0.11595 0.95055 0.0
Mn180 Mn 0.75214 0.76579 0.91804 0.0
Mn181 Mn 0.82147 0.83367 0.949 0.0
C182 C 0.75194 0.82148 0.92594 0.0
C183 C 0.72928 0.73929 0.88404 0.0
C184 C 0.75691 0.75978 0.9662 0.0
O185 O 0.79343 0.7509 0.91809 0.0
O186 O 0.83927 0.80255 0.93477 0.0
C187 C 0.87301 0.87524 0.9141 0.0
N188 N 0.85323 0.87696 0.93092 0.0
C189 C 0.89981 0.94847 0.93493 0.0
C190 C 0.91546 0.94308 0.915 0.0
C191 C 0.90194 0.90796 0.90518 0.0
C192 C 0.85871 0.91076 0.93776 0.0
H193 H 0.86642 0.84849 0.90717 0.0
C194 C 0.82733 0.77128 0.92492 0.0
O195 O 0.71616 0.71974 0.90141 0.0
O196 O 0.7568 0.77371 0.88635 0.0
N197 N 0.8096 0.86569 0.96649 0.0
C198 C 0.80062 0.8547 0.99175 0.0
C199 C 0.81578 0.88708 0.01366 0.0
C200 C 0.843 0.93681 0.01156 0.0
C201 C 0.85807 0.95856 0.98631 0.0
C202 C 0.83335 0.9074 0.95681 0.0
H203 H 0.78737 0.8256 0.99643 0.0
O204 O 0.72138 0.79183 0.91936 0.0
O205 O 0.7813 0.8177 0.92767 0.0
O206 O 0.73788 0.74739 0.94895 0.0
O207 O 0.78919 0.78992 0.96743 0.0
C208 C 0.89754 0.99506 0.98424 0.0
C209 C 0.92303 0.99925 0.96428 0.0
H210 H 0.93992 0.96487 0.90679 0.0
H211 H 0.91605 0.90578 0.89111 0.0
H212 H 0.80881 0.87523 0.02956 0.0
H213 H 0.85355 0.95356 0.02594 0.0
H214 H 0.90916 0.01503 0.99721 0.0
H215 H 0.94976 0.02607 0.96605 0.0
Mn216 Mn 0.03787 0.77642 0.9126 0.0
Mn217 Mn 0.04284 0.85025 0.94012 0.0
C218 C 0.09488 0.82912 0.91959 0.0
C219 C 0.03581 0.74666 0.87977 0.0
C220 C 0.03875 0.78307 0.96215 0.0
O221 O 0.98347 0.76454 0.91057 0.0
O222 O 0.98987 0.80965 0.93351 0.0
C223 C 0.0075 0.87421 0.90521 0.0
N224 N 0.0364 0.8833 0.91931 0.0
C225 C 0.04599 0.95346 0.91843 0.0
C226 C 0.01647 0.93968 0.90378 0.0
C227 C 0.99855 0.90144 0.89714 0.0
C228 C 0.05749 0.91907 0.92516 0.0
H229 H 0.98994 0.84527 0.90022 0.0
C230 C 0.96968 0.78035 0.92199 0.0
O231 O 0.02622 0.72777 0.89756 0.0
O232 O 0.04401 0.78146 0.88097 0.0
N233 N 0.09252 0.89291 0.95002 0.0
C234 C 0.11837 0.89109 0.96618 0.0
C235 C 0.14584 0.92472 0.98207 0.0
C236 C 0.14607 0.98809 0.98122 0.0
C237 C 0.11765 0.98696 0.96299 0.0
C238 C 0.08843 0.92491 0.94441 0.0
H239 H 0.11652 0.86423 0.9689 0.0
O240 O 0.09267 0.79709 0.91546 0.0
O241 O 0.06383 0.83066 0.91882 0.0
O242 O 0.03109 0.76229 0.94532 0.0
O243 O 0.0467 0.81749 0.96172 0.0
C244 C 0.10152 0.01731 0.95265 0.0
C245 C 0.06561 0.99992 0.93064 0.0
H246 H 0.00629 0.95791 0.89795 0.0
H247 H 0.97522 0.8918 0.88598 0.0
H248 H 0.16157 0.91537 0.99225 0.0
H249 H 0.16141 0.01425 0.99047 0.0
H250 H 0.11625 0.04635 0.96168 0.0
H251 H 0.08442 0.01297 0.94206 0.0
Mn252 Mn 0.31592 0.30314 0.91055 0.0
Mn253 Mn 0.2417 0.23122 0.93473 0.0
C254 C 0.25937 0.30314 0.91291 0.0
C255 C 0.34896 0.33066 0.87909 0.0
C256 C 0.30299 0.29724 0.95939 0.0
O257 O 0.33232 0.26326 0.91127 0.0
O258 O 0.28345 0.22113 0.9307 0.0
C259 C 0.22314 0.17072 0.90097 0.0
N260 N 0.21198 0.19046 0.91365 0.0
C261 C 0.14343 0.12723 0.91318 0.0
C262 C 0.15905 0.11186 0.8997 0.0
C263 C 0.19753 0.13337 0.89358 0.0
C264 C 0.17598 0.17416 0.91896 0.0
H265 H 0.25244 0.18321 0.89665 0.0
C266 C 0.315 0.23232 0.92155 0.0
O267 O 0.365 0.34261 0.89764 0.0
O268 O 0.31516 0.30195 0.87895 0.0
N269 N 0.19841 0.23692 0.94144 0.0
C270 C 0.19895 0.26557 0.95596 0.0
C271 C 0.16482 0.25982 0.97048 0.0
C272 C 0.10251 0.19558 0.97061 0.0
C273 C 0.10534 0.16696 0.95397 0.0
C274 C 0.16793 0.19978 0.93646 0.0
H275 H 0.22519 0.29131 0.95826 0.0
O276 O 0.291 0.33409 0.9101 0.0
O277 O 0.26094 0.27195 0.91359 0.0
O278 O 0.32547 0.31284 0.94357 0.0
O279 O 0.2705 0.26787 0.95743 0.0
C280 C 0.07675 0.11914 0.94491 0.0
C281 C 0.09644 0.09979 0.92476 0.0
H282 H 0.14195 0.08305 0.89428 0.0
H283 H 0.20867 0.11987 0.88342 0.0
H284 H 0.17335 0.28582 0.97962 0.0
H285 H 0.07624 0.18474 0.97927 0.0
H286 H 0.04727 0.10468 0.95337 0.0
H287 H 0.08221 0.10578 0.93524 0.0
Mn288 Mn 0.77522 0.0281 0.91603 0.0
Mn289 Mn 0.84003 0.01839 0.94496 0.0
C290 C 0.76864 0.96943 0.92158 0.0
C291 C 0.7514 0.03503 0.8826 0.0
C292 C 0.77649 0.02378 0.96581 0.0
O293 O 0.81994 0.0819 0.91553 0.0
O294 O 0.85583 0.07224 0.93908 0.0
C295 C 0.90339 0.05412 0.91249 0.0
N296 N 0.88125 0.02476 0.92573 0.0
C297 C 0.94108 0.01419 0.9286 0.0
C298 C 0.95944 0.04446 0.91471 0.0
C299 C 0.94062 0.06304 0.9066 0.0
C300 C 0.89463 0.00318 0.93268 0.0
H301 H 0.89306 0.072 0.90649 0.0
C302 C 0.8496 0.09388 0.92701 0.0
O303 O 0.7405 0.04244 0.90052 0.0
O304 O 0.77681 0.02516 0.88408 0.0
N305 N 0.82949 0.96729 0.95365 0.0
C306 C 0.79855 0.94049 0.96772 0.0
C307 C 0.8003 0.91036 0.98329 0.0
C308 C 0.86134 0.90671 0.98645 0.0
C309 C 0.89383 0.9375 0.96998 0.0
C310 C 0.86586 0.97062 0.95008 0.0
H311 H 0.7739 0.94351 0.96921 0.0
O312 O 0.73963 0.97304 0.91717 0.0
O313 O 0.80156 1.00014 0.92225 0.0
O314 O 0.76526 0.03289 0.9487 0.0
O315 O 0.80225 0.0148 0.9658 0.0
C316 C 0.94286 0.95461 0.96193 0.0
C317 C 0.96494 0.99227 0.94193 0.0
H318 H 0.98853 0.05438 0.91041 0.0
H319 H 0.95621 0.08675 0.89599 0.0
H320 H 0.77319 0.89444 0.99163 0.0
H321 H 0.86918 0.88932 0.99614 0.0
H322 H 0.91557 0.93992 0.96933 0.0
H323 H 0.95989 0.97108 0.95324 0.0
Mn324 Mn 0.75455 0.02493 0.10529 0.0
Mn325 Mn 0.82679 0.02472 0.08063 0.0
C326 C 0.81021 0.08145 0.10032 0.0
C327 C 0.72772 0.02434 0.13877 0.0
C328 C 0.76393 0.02597 0.05593 0.0
O329 O 0.73812 0.96895 0.10652 0.0
O330 O 0.78499 0.9732 0.0862 0.0
C331 C 0.84688 0.9858 0.11555 0.0
N332 N 0.8574 0.0157 0.10209 0.0
C333 C 0.92651 0.02228 0.10312 0.0
C334 C 0.9115 0.99231 0.11736 0.0
C335 C 0.87305 0.97522 0.12355 0.0
C336 C 0.89324 0.03534 0.09646 0.0
H337 H 0.81763 0.96879 0.12004 0.0
C338 C 0.75408 0.95405 0.09624 0.0
O339 O 0.70769 0.01708 0.12136 0.0
O340 O 0.76088 0.02877 0.13656 0.0
N341 N 0.86963 0.07321 0.07248 0.0
C342 C 0.86844 0.10015 0.0572 0.0
C343 C 0.90243 0.1282 0.04247 0.0
C344 C 0.96552 0.12774 0.04319 0.0
C345 C 0.96334 0.09755 0.06069 0.0
C346 C 0.90062 0.06771 0.07811 0.0
H347 H 0.84179 0.0988 0.05433 0.0
O348 O 0.77867 0.0806 0.10363 0.0
O349 O 0.80903 0.04885 0.10076 0.0
O350 O 0.7422 0.02096 0.07205 0.0
O351 O 0.79683 0.0301 0.05783 0.0
C352 C 0.99269 0.07982 0.07073 0.0
C353 C 0.97363 0.04205 0.09169 0.0
H354 H 0.92903 0.98141 0.12333 0.0
H355 H 0.86239 0.95138 0.13432 0.0
H356 H 0.89341 0.14477 0.0328 0.0
H357 H 0.99185 0.14334 0.03452 0.0
H358 H 0.02218 0.09484 0.06229 0.0
H359 H 0.98757 0.06171 0.08085 0.0
Mn360 Mn 0.01836 0.76602 0.10002 0.0
Mn361 Mn 0.02353 0.84144 0.07373 0.0
C362 C 0.96371 0.76669 0.0909 0.0
C363 C 0.01855 0.73898 0.13348 0.0
C364 C 0.03036 0.77864 0.05157 0.0
O365 O 0.07405 0.80553 0.10325 0.0
O366 O 0.0728 0.85384 0.08682 0.0
C367 C 0.0454 0.8955 0.11002 0.0
N368 N 0.01814 0.87444 0.09523 0.0
C369 C 0.00494 0.93197 0.09484 0.0
C370 C 0.03351 0.94948 0.1098 0.0
C371 C 0.05157 0.93057 0.11795 0.0
C372 C 0.99167 0.88377 0.09081 0.0
H373 H 0.06448 0.88635 0.11557 0.0
C374 C 0.08993 0.83966 0.09698 0.0
O375 O 0.02587 0.72706 0.11587 0.0
O376 O 0.01161 0.76639 0.13161 0.0
N377 N 0.97886 0.83374 0.0572 0.0
C378 C 0.98191 0.83114 0.03077 0.0
C379 C 0.96754 0.85474 0.01065 0.0
C380 C 0.9469 0.88396 0.01689 0.0
C381 C 0.94051 0.89438 0.04482 0.0
C382 C 0.96259 0.85643 0.07042 0.0
H383 H 0.99606 0.81717 0.0243 0.0
O384 O 0.96283 0.73551 0.09587 0.0
O385 O 0.9964 0.79731 0.09231 0.0
O386 O 0.0262 0.75797 0.06795 0.0
O387 O 0.03076 0.81006 0.05246 0.0
C388 C 0.9586 0.94243 0.05503 0.0
C389 C 0.99017 0.9601 0.07857 0.0
H390 H 0.04322 0.97841 0.11442 0.0
H391 H 0.07403 0.94529 0.12952 0.0
H392 H 0.97268 0.85174 0.99404 0.0
H393 H 0.94313 0.89958 1.0041 0.0
H394 H 0.9447 0.91609 0.04586 0.0
H395 H 0.97277 0.95729 0.06531 0.0
Mn396 Mn 0.29517 0.28963 0.09777 0.0
Mn397 Mn 0.23282 0.21363 0.06839 0.0
C398 C 0.30268 0.23799 0.09285 0.0
C399 C 0.31646 0.31884 0.13145 0.0
C400 C 0.29266 0.28828 0.04868 0.0
O401 O 0.24873 0.29638 0.09677 0.0
O402 O 0.20899 0.24375 0.07793 0.0
C403 C 0.16832 0.17308 0.09989 0.0
N404 N 0.19561 0.17117 0.08816 0.0
C405 C 0.13654 0.09428 0.08447 0.0
C406 C 0.11547 0.10439 0.097 0.0
C407 C 0.13194 0.14168 0.10509 0.0
C408 C 0.19003 0.13665 0.08418 0.0
H409 H 0.17363 0.20021 0.10542 0.0
C410 C 0.21652 0.27393 0.08828 0.0
O411 O 0.328 0.33812 0.11386 0.0
O412 O 0.29112 0.28359 0.12951 0.0
N413 N 0.25683 0.185 0.05573 0.0
C414 C 0.27478 0.1954 0.03073 0.0
C415 C 0.26207 0.16132 1.00762 0.0
C416 C 0.22813 0.10941 0.00901 0.0
C417 C 0.20305 0.08621 0.0338 0.0
C418 C 0.22946 0.14417 0.06575 0.0
H419 H 0.29235 0.22453 0.02657 0.0
O420 O 0.33155 0.2704 0.09782 0.0
O421 O 0.2706 0.23662 0.09082 0.0
O422 O 0.30787 0.30621 0.066 0.0
O423 O 0.26468 0.25458 0.04826 0.0
C424 C 0.14653 0.05019 0.03673 0.0
C425 C 0.11207 0.05227 0.06103 0.0
H426 H 0.08566 0.08484 0.09923 0.0
H427 H 0.11371 0.14797 0.1146 0.0
H428 H 0.27446 0.17296 0.99227 0.0
H429 H 0.21979 0.09339 0.9943 0.0
H430 H 0.13243 0.03064 0.02374 0.0
H431 H 0.08182 0.03332 0.06067 0.0
Mn432 Mn 0.68054 0.61723 0.4363 0.0
Mn433 Mn 0.67379 0.54151 0.41066 0.0
C434 C 0.62239 0.56382 0.4305 0.0
C435 C 0.68514 0.64983 0.46835 0.0
C436 C 0.67933 0.60777 0.38695 0.0
O437 O 0.73542 0.62903 0.43791 0.0
O438 O 0.72686 0.58105 0.41685 0.0
C439 C 0.70464 0.51942 0.44875 0.0
N440 N 0.67896 0.50989 0.43263 0.0
C441 C 0.6721 0.44119 0.43417 0.0
C442 C 0.69634 0.45441 0.45169 0.0
C443 C 0.71137 0.49215 0.45892 0.0
C444 C 0.65978 0.47441 0.4264 0.0
H445 H 0.72031 0.54836 0.45415 0.0
C446 C 0.74815 0.61127 0.42728 0.0
O447 O 0.69302 0.66692 0.44999 0.0
O448 O 0.67649 0.61482 0.46814 0.0
N449 N 0.62427 0.49894 0.40096 0.0
C450 C 0.59826 0.50024 0.38478 0.0
C451 C 0.57126 0.46637 0.369 0.0
C452 C 0.57247 0.40421 0.36944 0.0
C453 C 0.60222 0.40592 0.38812 0.0
C454 C 0.62948 0.46762 0.40657 0.0
H455 H 0.59983 0.52699 0.38188 0.0
O456 O 0.62502 0.5962 0.43402 0.0
O457 O 0.65357 0.56267 0.43119 0.0
O458 O 0.68653 0.62926 0.4034 0.0
O459 O 0.67101 0.57329 0.38807 0.0
C460 C 0.61973 0.37609 0.39959 0.0
C461 C 0.65454 0.39462 0.42222 0.0
H462 H 0.70308 0.43555 0.46021 0.0
H463 H 0.73031 0.50124 0.47252 0.0
H464 H 0.55507 0.47526 0.35891 0.0
H465 H 0.58883 0.39775 0.37957 0.0
H466 H 0.60622 0.34744 0.39036 0.0
H467 H 0.63649 0.38095 0.41047 0.0
Mn468 Mn 0.42756 0.09188 0.44049 0.0
Mn469 Mn 0.49939 0.16739 0.41692 0.0
C470 C 0.48378 0.09193 0.43447 0.0
C471 C 0.39861 0.06724 0.4739 0.0
C472 C 0.42833 0.1084 0.39359 0.0
O473 O 0.41198 0.13266 0.44046 0.0
O474 O 0.46951 0.18297 0.43459 0.0
C475 C 0.54161 0.20892 0.455 0.0
N476 N 0.54246 0.19229 0.43649 0.0
C477 C 0.61494 0.236 0.43434 0.0
C478 C 0.61007 0.24787 0.45567 0.0
C479 C 0.57486 0.23426 0.46534 0.0
C480 C 0.57571 0.19723 0.42904 0.0
H481 H 0.51515 0.20249 0.46221 0.0
C482 C 0.4347 0.16828 0.43954 0.0
O483 O 0.38008 0.05419 0.45607 0.0
O484 O 0.43291 0.09474 0.47224 0.0
N485 N 0.53032 0.1579 0.39731 0.0
C486 C 0.52078 0.15627 0.37184 0.0
C487 C 0.55426 0.17455 0.35073 0.0
C488 C 0.6037 0.19748 0.35381 0.0
C489 C 0.62424 0.20446 0.37931 0.0
C490 C 0.57145 0.17601 0.40795 0.0
H491 H 0.49227 0.14645 0.36675 0.0
O492 O 0.45336 0.06088 0.4394 0.0
O493 O 0.4803 0.12156 0.43366 0.0
O494 O 0.41501 0.08307 0.40822 0.0
O495 O 0.45578 0.14216 0.39668 0.0
C496 C 0.66205 0.24163 0.38373 0.0
C497 C 0.66688 0.26285 0.4056 0.0
H498 H 0.63251 0.26948 0.46528 0.0
H499 H 0.57319 0.24565 0.48064 0.0
H500 H 0.54336 0.17283 0.33475 0.0
H501 H 0.62166 0.21175 0.34042 0.0
H502 H 0.68252 0.25503 0.37113 0.0
H503 H 0.69466 0.28879 0.40536 0.0
Mn504 Mn 0.974 0.37397 0.42652 0.0
Mn505 Mn 0.90532 0.37608 0.39692 0.0
C506 C 0.97691 0.43132 0.4188 0.0
C507 C 0.99705 0.37115 0.46076 0.0
C508 C 0.96611 0.36292 0.37803 0.0
O509 O 0.93065 0.31856 0.42758 0.0
O510 O 0.8864 0.3263 0.41043 0.0
C511 C 0.85566 0.36629 0.43263 0.0
N512 N 0.87564 0.38837 0.41602 0.0
C513 C 0.83122 0.41582 0.41331 0.0
C514 C 0.81501 0.3936 0.4329 0.0
C515 C 0.82748 0.37062 0.44204 0.0
C516 C 0.87146 0.41784 0.40998 0.0
H517 H 0.86143 0.34516 0.43898 0.0
C518 C 0.89701 0.30603 0.42051 0.0
O519 O 0.00907 0.36251 0.44369 0.0
O520 O 0.97089 0.37974 0.45802 0.0
N521 N 0.9186 0.42124 0.38035 0.0
C522 C 0.92646 0.42019 0.35489 0.0
C523 C 0.91227 0.44001 0.33394 0.0
C524 C 0.88744 0.46462 0.33725 0.0
C525 C 0.87395 0.47104 0.36291 0.0
C526 C 0.89709 0.44052 0.39117 0.0
H527 H 0.93868 0.40374 0.34947 0.0
O528 O 0.00709 0.43059 0.42443 0.0
O529 O 0.94663 0.39879 0.41747 0.0
O530 O 0.98556 0.36747 0.39503 0.0
O531 O 0.93522 0.36359 0.37756 0.0
C532 C 0.83533 0.46955 0.36559 0.0
C533 C 0.80959 0.44727 0.38525 0.0
H534 H 0.79085 0.3911 0.44135 0.0
H535 H 0.81305 0.3537 0.45588 0.0
H536 H 0.91835 0.43553 0.31776 0.0
H537 H 0.87714 0.47237 0.32331 0.0
H538 H 0.82424 0.47933 0.35299 0.0
H539 H 0.78343 0.44858 0.384 0.0
Mn540 Mn 0.96473 0.36579 0.24106 0.0
Mn541 Mn 0.89521 0.36428 0.27057 0.0
C542 C 0.91032 0.30955 0.24787 0.0
C543 C 0.99316 0.36988 0.20786 0.0
C544 C 0.96087 0.36192 0.29041 0.0
O545 O 0.97955 0.42139 0.24051 0.0
O546 O 0.93725 0.4161 0.26484 0.0
C547 C 0.87429 0.40401 0.23653 0.0
N548 N 0.86386 0.37479 0.2505 0.0
C549 C 0.79519 0.369 0.24944 0.0
C550 C 0.81036 0.39895 0.23519 0.0
C551 C 0.84852 0.41519 0.2287 0.0
C552 C 0.82815 0.35532 0.2562 0.0
H553 H 0.90316 0.41991 0.23131 0.0
C554 C 0.9657 0.43587 0.25293 0.0
O555 O 0.012 0.37606 0.22561 0.0
O556 O 0.95869 0.36281 0.20942 0.0
N557 N 0.8509 0.31598 0.28001 0.0
C558 C 0.85097 0.28829 0.29539 0.0
C559 C 0.81626 0.26033 0.31037 0.0
C560 C 0.75475 0.26337 0.30974 0.0
C561 C 0.75812 0.29434 0.29232 0.0
C562 C 0.82038 0.32276 0.27484 0.0
H563 H 0.87714 0.28864 0.29808 0.0
O564 O 0.9412 0.31021 0.24258 0.0
O565 O 0.91091 0.34173 0.24809 0.0
O566 O 0.98045 0.36959 0.27323 0.0
O567 O 0.92725 0.35649 0.29104 0.0
C568 C 0.72906 0.31242 0.2822 0.0
C569 C 0.74817 0.34988 0.26104 0.0
H570 H 0.79322 0.41045 0.22941 0.0
H571 H 0.85927 0.43874 0.21771 0.0
H572 H 0.82428 0.24287 0.31991 0.0
H573 H 0.72811 0.24806 0.31847 0.0
H574 H 0.69958 0.29765 0.29067 0.0
H575 H 0.73418 0.33042 0.27197 0.0
Mn576 Mn 0.69926 0.62407 0.24852 0.0
Mn577 Mn 0.70382 0.55415 0.27485 0.0
C578 C 0.75608 0.62796 0.25495 0.0
C579 C 0.69534 0.65202 0.21659 0.0
C580 C 0.69911 0.61591 0.29778 0.0
O581 O 0.64519 0.58194 0.24614 0.0
O582 O 0.65055 0.5419 0.26859 0.0
C583 C 0.66754 0.49539 0.23971 0.0
N584 N 0.69675 0.51499 0.25367 0.0
C585 C 0.70644 0.45437 0.2518 0.0
C586 C 0.67648 0.43886 0.23745 0.0
C587 C 0.65836 0.45931 0.23137 0.0
C588 C 0.71781 0.50011 0.25914 0.0
H589 H 0.6499 0.50685 0.23503 0.0
C590 C 0.6309 0.5518 0.25707 0.0
O591 O 0.68721 0.66142 0.23481 0.0
O592 O 0.70432 0.62589 0.21695 0.0
N593 N 0.75393 0.56115 0.284 0.0
C594 C 0.78107 0.58929 0.29951 0.0
C595 C 0.81064 0.58405 0.31408 0.0
C596 C 0.8116 0.52155 0.31253 0.0
C597 C 0.78108 0.49344 0.29499 0.0
C598 C 0.74985 0.52523 0.27805 0.0
H599 H 0.77878 0.61396 0.30282 0.0
O600 O 0.75397 0.65805 0.25145 0.0
O601 O 0.72494 0.5954 0.25391 0.0
O602 O 0.69194 0.62969 0.28113 0.0
O603 O 0.70786 0.59001 0.29708 0.0
C604 C 0.76515 0.44705 0.28431 0.0
C605 C 0.72766 0.4279 0.26299 0.0
H606 H 0.6663 0.41066 0.23131 0.0
H607 H 0.63476 0.44584 0.22036 0.0
H608 H 0.82731 0.60953 0.32377 0.0
H609 H 0.8285 0.51145 0.32078 0.0
H610 H 0.78113 0.43337 0.2926 0.0
H611 H 0.74735 0.43386 0.27395 0.0
Mn612 Mn 0.43388 0.10838 0.25464 0.0
Mn613 Mn 0.49636 0.18467 0.28247 0.0
C614 C 0.42696 0.1609 0.25766 0.0
C615 C 0.41037 0.07593 0.22199 0.0
C616 C 0.43224 0.11801 0.30375 0.0
O617 O 0.47876 0.09902 0.25589 0.0
O618 O 0.51032 0.14531 0.27942 0.0
C619 C 0.56026 0.20732 0.25052 0.0
N620 N 0.53883 0.21662 0.26302 0.0
C621 C 0.60046 0.28621 0.26455 0.0
C622 C 0.61809 0.27213 0.25165 0.0
C623 C 0.59804 0.23411 0.24452 0.0
C624 C 0.55321 0.2522 0.2688 0.0
H625 H 0.54887 0.17859 0.24521 0.0
C626 C 0.5067 0.11741 0.26851 0.0
O627 O 0.39923 0.05851 0.24019 0.0
O628 O 0.43642 0.11101 0.22283 0.0
N629 N 0.48744 0.22698 0.28896 0.0
C630 C 0.45665 0.22542 0.30221 0.0
C631 C 0.45977 0.25919 0.31675 0.0
C632 C 0.52312 0.32182 0.31912 0.0
C633 C 0.55416 0.31999 0.30388 0.0
C634 C 0.5249 0.25845 0.2855 0.0
H635 H 0.43097 0.19876 0.30362 0.0
O636 O 0.39807 0.12791 0.25399 0.0
O637 O 0.45968 0.1631 0.25926 0.0
O638 O 0.42309 0.09601 0.28742 0.0
O639 O 0.45687 0.15309 0.30304 0.0
C640 C 0.60271 0.3504 0.29647 0.0
C641 C 0.62541 0.33291 0.27705 0.0
H642 H 0.64746 0.28999 0.24741 0.0
H643 H 0.61303 0.22427 0.23463 0.0
H644 H 0.43264 0.25019 0.32465 0.0
H645 H 0.53227 0.34801 0.32803 0.0
H646 H 0.61527 0.3795 0.30532 0.0
H647 H 0.61767 0.34615 0.28728 0.0
Mn648 Mn 0.71457 0.11055 0.25231 0.0
Mn649 Mn 0.72021 0.1887 0.27265 0.0
C650 C 0.77444 0.16557 0.25571 0.0
C651 C 0.70341 0.07628 0.22039 0.0
C652 C 0.70107 0.11709 0.29814 0.0
O653 O 0.65924 0.09932 0.25421 0.0
O654 O 0.67617 0.16007 0.25362 0.0
C655 C 0.72286 0.23086 0.23447 0.0
N656 N 0.74032 0.23126 0.25297 0.0
C657 C 0.76648 0.3032 0.25717 0.0
C658 C 0.74866 0.29858 0.23602 0.0
C659 C 0.72889 0.26417 0.22528 0.0
C660 C 0.76699 0.26439 0.2615 0.0
H661 H 0.70406 0.20471 0.22645 0.0
C662 C 0.65076 0.12541 0.25463 0.0
O663 O 0.698 0.05975 0.23883 0.0
O664 O 0.7141 0.11181 0.22062 0.0
N665 N 0.76223 0.21832 0.29212 0.0
C666 C 0.75657 0.20782 0.31738 0.0
C667 C 0.77356 0.23992 0.33907 0.0
C668 C 0.80037 0.28932 0.33751 0.0
C669 C 0.81222 0.31211 0.31132 0.0
C670 C 0.78493 0.2597 0.28199 0.0
H671 H 0.73939 0.17899 0.32218 0.0
O672 O 0.7719 0.1333 0.2517 0.0
O673 O 0.74261 0.16438 0.25717 0.0
O674 O 0.71249 0.10126 0.28481 0.0
O675 O 0.69847 0.14632 0.29353 0.0
C676 C 0.81264 0.35177 0.30671 0.0
C677 C 0.7938 0.35543 0.28572 0.0
H678 H 0.74772 0.32073 0.22706 0.0
H679 H 0.71564 0.263 0.21006 0.0
H680 H 0.76674 0.22785 0.35491 0.0
H681 H 0.80969 0.30675 0.32531 0.0
H682 H 0.82069 0.37273 0.31917 0.0
H683 H 0.79563 0.38316 0.28624 0.0
Mn684 Mn 0.95742 0.64185 0.25086 0.0
Mn685 Mn 0.88669 0.5666 0.27637 0.0
C686 C 0.90182 0.64111 0.25893 0.0
C687 C 0.98479 0.66793 0.21734 0.0
C688 C 0.9593 0.62635 0.29803 0.0
O689 O 0.97291 0.60141 0.24944 0.0
O690 O 0.91786 0.55081 0.2597 0.0
C691 C 0.84544 0.52435 0.23853 0.0
N692 N 0.84364 0.54017 0.2571 0.0
C693 C 0.77192 0.49375 0.25988 0.0
C694 C 0.77764 0.48197 0.2386 0.0
C695 C 0.81269 0.4975 0.22851 0.0
C696 C 0.80978 0.53358 0.26469 0.0
H697 H 0.87229 0.53222 0.23131 0.0
C698 C 0.95172 0.566 0.25259 0.0
O699 O 0.00404 0.68003 0.23501 0.0
O700 O 0.95054 0.64022 0.21913 0.0
N701 N 0.85467 0.5761 0.29541 0.0
C702 C 0.86533 0.58029 0.32068 0.0
C703 C 0.83338 0.5627 0.34231 0.0
C704 C 0.78387 0.53777 0.34074 0.0
C705 C 0.76081 0.52677 0.31454 0.0
C706 C 0.81308 0.55553 0.28526 0.0
H707 H 0.89435 0.59251 0.32544 0.0
O708 O 0.93163 0.67248 0.25363 0.0
O709 O 0.90524 0.61149 0.25875 0.0
O710 O 0.97258 0.65046 0.28278 0.0
O711 O 0.93012 0.59337 0.29624 0.0
C712 C 0.72226 0.48663 0.30954 0.0
C713 C 0.7197 0.46546 0.28821 0.0
H714 H 0.75602 0.45913 0.22921 0.0
H715 H 0.81481 0.4862 0.21327 0.0
H716 H 0.84566 0.56745 0.35812 0.0
H717 H 0.76629 0.5293 0.32853 0.0
H718 H 0.70146 0.47251 0.32192 0.0
H719 H 0.69264 0.43868 0.28847 0.0
Mn720 Mn 0.41339 0.34966 0.2486 0.0
Mn721 Mn 0.48501 0.35411 0.27841 0.0
C722 C 0.41434 0.29442 0.25622 0.0
C723 C 0.38978 0.35382 0.21481 0.0
C724 C 0.42057 0.36287 0.29593 0.0
O725 O 0.45378 0.40634 0.24969 0.0
O726 O 0.50279 0.40021 0.26137 0.0
C727 C 0.53611 0.35839 0.24474 0.0
N728 N 0.51567 0.33904 0.26196 0.0
C729 C 0.56098 0.31319 0.26916 0.0
C730 C 0.57762 0.3324 0.2488 0.0
C731 C 0.56503 0.35326 0.23729 0.0
C732 C 0.52067 0.31159 0.27084 0.0
H733 H 0.53014 0.37791 0.2364 0.0
C734 C 0.48888 0.41978 0.25406 0.0
O735 O 0.37644 0.35911 0.23241 0.0
O736 O 0.41811 0.34805 0.21674 0.0
N737 N 0.47277 0.31279 0.29806 0.0
C738 C 0.46395 0.31789 0.32276 0.0
C739 C 0.47611 0.30106 0.3458 0.0
C740 C 0.50012 0.27555 0.34647 0.0
C741 C 0.51598 0.26506 0.32145 0.0
C742 C 0.49454 0.29194 0.28989 0.0
H743 H 0.45345 0.33645 0.3264 0.0
O744 O 0.38368 0.29299 0.24934 0.0
O745 O 0.44358 0.32777 0.25785 0.0
O746 O 0.39889 0.35141 0.27964 0.0
O747 O 0.45483 0.36999 0.29578 0.0
C748 C 0.55639 0.26598 0.31956 0.0
C749 C 0.58211 0.28595 0.2998 0.0
H750 H 0.60214 0.33395 0.2413 0.0
H751 H 0.57983 0.36791 0.22294 0.0
H752 H 0.46849 0.30767 0.36104 0.0
H753 H 0.51067 0.26702 0.33511 0.0
H754 H 0.56743 0.25781 0.33301 0.0
H755 H 0.60829 0.28494 0.30214 0.0
Mn756 Mn 0.42432 0.37209 0.43125 0.0
Mn757 Mn 0.49393 0.36958 0.404 0.0
C758 C 0.47837 0.42818 0.42186 0.0
C759 C 0.40098 0.37225 0.46512 0.0
C760 C 0.42028 0.35645 0.38374 0.0
O761 O 0.4105 0.31681 0.43415 0.0
O762 O 0.46297 0.32147 0.41981 0.0
C763 C 0.53247 0.36717 0.44267 0.0
N764 N 0.53555 0.38491 0.42396 0.0
C765 C 0.60748 0.41285 0.42353 0.0
C766 C 0.60018 0.39401 0.44456 0.0
C767 C 0.56444 0.37341 0.45368 0.0
C768 C 0.56942 0.4136 0.41765 0.0
H769 H 0.50523 0.34814 0.44934 0.0
C770 C 0.4315 0.30304 0.42959 0.0
O771 O 0.37885 0.36253 0.44849 0.0
O772 O 0.43531 0.38001 0.46205 0.0
N773 N 0.52674 0.41224 0.38589 0.0
C774 C 0.51846 0.40744 0.36031 0.0
C775 C 0.55261 0.42477 0.33963 0.0
C776 C 0.6021 0.45087 0.34282 0.0
C777 C 0.62243 0.46113 0.3698 0.0
C778 C 0.56726 0.43344 0.39729 0.0
H779 H 0.48989 0.38985 0.35481 0.0
O780 O 0.448 0.42836 0.42745 0.0
O781 O 0.47589 0.39551 0.42206 0.0
O782 O 0.40616 0.36354 0.40008 0.0
O783 O 0.45105 0.35519 0.38398 0.0
C784 C 0.66132 0.46061 0.37589 0.0
C785 C 0.6626 0.44073 0.3972 0.0
H786 H 0.62113 0.39281 0.45462 0.0
H787 H 0.56129 0.35965 0.46894 0.0
H788 H 0.54197 0.41853 0.32343 0.0
H789 H 0.61853 0.45938 0.35562 0.0
H790 H 0.68356 0.4691 0.36423 0.0
H791 H 0.69026 0.44234 0.39786 0.0
Mn792 Mn 0.68509 0.10108 0.43721 0.0
Mn793 Mn 0.67879 0.17315 0.41523 0.0
C794 C 0.62778 0.0991 0.43525 0.0
C795 C 0.69205 0.07136 0.4678 0.0
C796 C 0.67839 0.11154 0.38844 0.0
O797 O 0.74047 0.14237 0.43727 0.0
O798 O 0.73207 0.18471 0.41877 0.0
C799 C 0.71882 0.22916 0.45115 0.0
N800 N 0.68818 0.21069 0.43799 0.0
C801 C 0.68103 0.2724 0.44207 0.0
C802 C 0.71203 0.2866 0.45569 0.0
C803 C 0.72961 0.26506 0.46037 0.0
C804 C 0.66725 0.22643 0.4342 0.0
H805 H 0.73639 0.21692 0.45437 0.0
C806 C 0.75328 0.17374 0.42755 0.0
O807 O 0.69698 0.06197 0.44874 0.0
O808 O 0.68504 0.09876 0.46898 0.0
N809 N 0.62845 0.16693 0.40873 0.0
C810 C 0.60064 0.14042 0.39297 0.0
C811 C 0.57304 0.14857 0.37842 0.0
C812 C 0.57543 0.21282 0.38157 0.0
C813 C 0.60578 0.23858 0.39949 0.0
C814 C 0.63438 0.20311 0.41554 0.0
H815 H 0.60011 0.1143 0.39025 0.0
O816 O 0.62937 0.06843 0.43701 0.0
O817 O 0.65976 0.13085 0.43523 0.0
O818 O 0.68652 0.09579 0.4038 0.0
O819 O 0.67203 0.1388 0.39136 0.0
C820 C 0.6243 0.28472 0.41075 0.0
C821 C 0.66206 0.30121 0.43173 0.0
H822 H 0.7237 0.31483 0.46211 0.0
H823 H 0.7542 0.27765 0.47071 0.0
H824 H 0.55569 0.12406 0.36816 0.0
H825 H 0.56016 0.22489 0.3734 0.0
H826 H 0.60906 0.29956 0.40315 0.0
H827 H 0.64246 0.29667 0.42103 0.0
Mn828 Mn 0.96144 0.61853 0.43592 0.0
Mn829 Mn 0.89491 0.54596 0.40647 0.0
C830 C 0.96586 0.56524 0.42952 0.0
C831 C 0.98799 0.64972 0.46851 0.0
C832 C 0.95933 0.61444 0.38657 0.0
O833 O 0.91824 0.63001 0.43675 0.0
O834 O 0.88084 0.58498 0.41332 0.0
C835 C 0.83269 0.51788 0.43962 0.0
N836 N 0.85352 0.51086 0.42535 0.0
C837 C 0.79198 0.44194 0.42114 0.0
C838 C 0.77551 0.45297 0.43661 0.0
C839 C 0.79577 0.48949 0.44592 0.0
C840 C 0.83883 0.47649 0.41734 0.0
H841 H 0.84411 0.54583 0.44631 0.0
C842 C 0.88877 0.61371 0.42502 0.0
O843 O 0.99766 0.66742 0.45038 0.0
O844 O 0.96154 0.61461 0.46782 0.0
N845 N 0.90385 0.50503 0.39631 0.0
C846 C 0.93406 0.50882 0.38165 0.0
C847 C 0.93043 0.47727 0.36503 0.0
C848 C 0.86716 0.41443 0.36147 0.0
C849 C 0.83684 0.41354 0.37813 0.0
C850 C 0.86674 0.47281 0.39939 0.0
H851 H 0.95942 0.536 0.38052 0.0
O852 O 0.99553 0.59727 0.4341 0.0
O853 O 0.93344 0.56416 0.42925 0.0
O854 O 0.97122 0.63411 0.40373 0.0
O855 O 0.9328 0.5802 0.38616 0.0
C856 C 0.78857 0.38242 0.38543 0.0
C857 C 0.76666 0.3973 0.40672 0.0
H858 H 0.74721 0.43309 0.4415 0.0
H859 H 0.7819 0.49686 0.45803 0.0
H860 H 0.95715 0.48769 0.35638 0.0
H861 H 0.85796 0.38946 0.35139 0.0
H862 H 0.77558 0.3547 0.37518 0.0
H863 H 0.77408 0.38557 0.39539 0.0
Mn864 Mn 0.36014 0.95249 0.77719 0.0
Mn865 Mn 0.35779 0.88196 0.74752 0.0
C866 C 0.30415 0.89801 0.77082 0.0
C867 C 0.36568 0.98197 0.8102 0.0
C868 C 0.3564 0.94833 0.72785 0.0
O869 O 0.41552 0.96771 0.77727 0.0
O870 O 0.41037 0.9236 0.75401 0.0
C871 C 0.39655 0.85819 0.78041 0.0
N872 N 0.36693 0.84882 0.76681 0.0
C873 C 0.36125 0.78024 0.765 0.0
C874 C 0.39113 0.79411 0.7794 0.0
C875 C 0.40753 0.83167 0.78709 0.0
C876 C 0.34724 0.81351 0.76002 0.0
H877 H 0.41313 0.88689 0.78604 0.0
C878 C 0.43002 0.9531 0.76549 0.0
O879 O 0.37101 1.00017 0.79234 0.0
O880 O 0.3583 0.94736 0.80884 0.0
N881 N 0.30859 0.83868 0.73754 0.0
C882 C 0.28098 0.8402 0.7226 0.0
C883 C 0.25337 0.80714 0.70647 0.0
C884 C 0.25697 0.7461 0.70412 0.0
C885 C 0.28777 0.74773 0.72124 0.0
C886 C 0.31504 0.80759 0.7414 0.0
H887 H 0.28163 0.86674 0.72081 0.0
O888 O 0.30469 0.92886 0.77611 0.0
O889 O 0.33631 0.89859 0.77025 0.0
O890 O 0.36324 0.96774 0.74507 0.0
O891 O 0.35126 0.91489 0.72724 0.0
C892 C 0.30617 0.718 0.72971 0.0
C893 C 0.34304 0.73486 0.75134 0.0
H894 H 0.40268 0.77655 0.78428 0.0
H895 H 0.43125 0.84146 0.79797 0.0
H896 H 0.23595 0.81604 0.69755 0.0
H897 H 0.24203 0.72056 0.69434 0.0
H898 H 0.29201 0.68971 0.71997 0.0
H899 H 0.32396 0.72207 0.73997 0.0
Mn900 Mn 0.09755 0.41811 0.76389 0.0
Mn901 Mn 0.16639 0.48799 0.73494 0.0
C902 C 0.15189 0.41536 0.75586 0.0
C903 C 0.07236 0.39633 0.7981 0.0
C904 C 0.092 0.42646 0.71621 0.0
O905 O 0.08432 0.46069 0.76468 0.0
O906 O 0.1388 0.50761 0.75142 0.0
C907 C 0.21263 0.53742 0.7698 0.0
N908 N 0.21126 0.5166 0.75268 0.0
C909 C 0.28348 0.55802 0.74767 0.0
C910 C 0.28093 0.5754 0.7677 0.0
C911 C 0.24698 0.56469 0.77819 0.0
C912 C 0.24334 0.51913 0.74507 0.0
H913 H 0.18717 0.53298 0.77741 0.0
C914 C 0.10702 0.49556 0.76061 0.0
O915 O 0.05167 0.38296 0.78101 0.0
O916 O 0.10684 0.42307 0.79532 0.0
N917 N 0.19489 0.47382 0.71621 0.0
C918 C 0.18334 0.46642 0.69097 0.0
C919 C 0.215 0.47794 0.66912 0.0
C920 C 0.26456 0.4995 0.67115 0.0
C921 C 0.28705 0.51204 0.69632 0.0
C922 C 0.2366 0.49283 0.72596 0.0
H923 H 0.15498 0.45797 0.68625 0.0
O924 O 0.12138 0.38546 0.76202 0.0
O925 O 0.14958 0.44576 0.75476 0.0
O926 O 0.0796 0.40518 0.73263 0.0
O927 O 0.12121 0.45951 0.71647 0.0
C928 C 0.32589 0.54921 0.69821 0.0
C929 C 0.33322 0.57591 0.71805 0.0
H930 H 0.30438 0.59902 0.77565 0.0
H931 H 0.24715 0.57977 0.79244 0.0
H932 H 0.20293 0.47275 0.65323 0.0
H933 H 0.28138 0.50862 0.65679 0.0
H934 H 0.34516 0.55917 0.68493 0.0
H935 H 0.3614 0.60092 0.71616 0.0
Mn936 Mn 0.63016 0.71184 0.76906 0.0
Mn937 Mn 0.56583 0.72474 0.7426 0.0
C938 C 0.63824 0.77242 0.76411 0.0
C939 C 0.65561 0.70437 0.8013 0.0
C940 C 0.62549 0.71676 0.71968 0.0
O941 O 0.58537 0.65657 0.76929 0.0
O942 O 0.55274 0.67304 0.74823 0.0
C943 C 0.51032 0.69087 0.7795 0.0
N944 N 0.5278 0.71797 0.76425 0.0
C945 C 0.46668 0.72632 0.76612 0.0
C946 C 0.45401 0.7 0.7825 0.0
C947 C 0.47563 0.68334 0.78909 0.0
C948 C 0.51223 0.73799 0.75855 0.0
H949 H 0.52284 0.67433 0.78458 0.0
C950 C 0.55656 0.64774 0.75755 0.0
O951 O 0.66541 0.69692 0.78303 0.0
O952 O 0.6303 0.71445 0.80083 0.0
N953 N 0.57302 0.77438 0.73372 0.0
C954 C 0.60048 0.80076 0.71786 0.0
C955 C 0.59401 0.82872 0.70268 0.0
C956 C 0.53071 0.82827 0.70395 0.0
C957 C 0.50332 0.79843 0.72185 0.0
C958 C 0.53646 0.76912 0.73934 0.0
H959 H 0.62565 0.79922 0.71495 0.0
O960 O 0.66672 0.76774 0.76788 0.0
O961 O 0.60541 0.74214 0.76403 0.0
O962 O 0.63696 0.70671 0.73628 0.0
O963 O 0.60172 0.72842 0.72046 0.0
C964 C 0.45696 0.78224 0.73264 0.0
C965 C 0.43902 0.74599 0.75455 0.0
H966 H 0.4276 0.69236 0.79029 0.0
H967 H 0.46436 0.66252 0.80171 0.0
H968 H 0.6191 0.8451 0.69272 0.0
H969 H 0.51973 0.84395 0.69517 0.0
H970 H 0.44254 0.79729 0.7241 0.0
H971 H 0.44423 0.7649 0.74326 0.0
Mn972 Mn 0.61369 0.68277 0.58225 0.0
Mn973 Mn 0.54156 0.67456 0.612 0.0
C974 C 0.56143 0.62438 0.58865 0.0
C975 C 0.64369 0.68781 0.54919 0.0
C976 C 0.61084 0.68213 0.63186 0.0
O977 O 0.62331 0.73649 0.58079 0.0
O978 O 0.58113 0.72845 0.60609 0.0
C979 C 0.51394 0.71068 0.57946 0.0
N980 N 0.50689 0.68246 0.59351 0.0
C981 C 0.43816 0.6756 0.59807 0.0
C982 C 0.44928 0.70361 0.58288 0.0
C983 C 0.48561 0.71958 0.5734 0.0
C984 C 0.47266 0.66292 0.60155 0.0
H985 H 0.54171 0.72697 0.57259 0.0
C986 C 0.60842 0.74954 0.59352 0.0
O987 O 0.66243 0.6965 0.56709 0.0
O988 O 0.60826 0.67752 0.55048 0.0
N989 N 0.50014 0.62384 0.62103 0.0
C990 C 0.50312 0.59521 0.63425 0.0
C991 C 0.47058 0.56461 0.64945 0.0
C992 C 0.40804 0.56505 0.65365 0.0
C993 C 0.40831 0.59742 0.63843 0.0
C994 C 0.46818 0.6293 0.61846 0.0
H995 H 0.53037 0.5971 0.63549 0.0
O996 O 0.59403 0.62769 0.5847 0.0
O997 O 0.55955 0.65527 0.58888 0.0
O998 O 0.63022 0.69151 0.61456 0.0
O999 O 0.57539 0.66939 0.63215 0.0
C1000 C 0.3771 0.61505 0.63178 0.0
C1001 C 0.39262 0.65434 0.6118 0.0
H1002 H 0.42932 0.71207 0.57805 0.0
H1003 H 0.49284 0.74063 0.56117 0.0
H1004 H 0.48041 0.54679 0.65698 0.0
H1005 H 0.38255 0.54766 0.66294 0.0
H1006 H 0.34891 0.59883 0.64142 0.0
H1007 H 0.38041 0.63387 0.62245 0.0
Mn1008 Mn 0.37335 0.97494 0.59162 0.0
Mn1009 Mn 0.37427 0.90244 0.61687 0.0
C1010 C 0.43093 0.97704 0.59782 0.0
C1011 C 0.36781 0.99911 0.55822 0.0
C1012 C 0.36099 0.96067 0.63935 0.0
O1013 O 0.3175 0.93263 0.59113 0.0
O1014 O 0.32562 0.88467 0.60205 0.0
C1015 C 0.36942 0.86024 0.57841 0.0
N1016 N 0.38951 0.87721 0.59629 0.0
C1017 C 0.41916 0.83471 0.59615 0.0
C1018 C 0.39931 0.82219 0.57547 0.0
C1019 C 0.37607 0.83506 0.56719 0.0
C1020 C 0.41927 0.87327 0.60207 0.0
H1021 H 0.34824 0.86628 0.57242 0.0
C1022 C 0.30513 0.89763 0.59485 0.0
O1023 O 0.36159 0.01126 0.57607 0.0
O1024 O 0.37605 0.97254 0.5598 0.0
N1025 N 0.41777 0.91346 0.63451 0.0
C1026 C 0.41347 0.91588 0.66027 0.0
C1027 C 0.43175 0.8984 0.68037 0.0
C1028 C 0.45804 0.87564 0.67574 0.0
C1029 C 0.46796 0.8679 0.64945 0.0
C1030 C 0.4393 0.89523 0.62257 0.0
H1031 H 0.3957 0.92619 0.66628 0.0
O1032 O 0.43025 0.00749 0.59295 0.0
O1033 O 0.39819 0.94689 0.59879 0.0
O1034 O 0.36892 0.98392 0.62382 0.0
O1035 O 0.35895 0.92851 0.63764 0.0
C1036 C 0.46809 0.8306 0.64433 0.0
C1037 C 0.44857 0.80873 0.62291 0.0
H1038 H 0.39874 0.80043 0.56542 0.0
H1039 H 0.36084 0.82319 0.55241 0.0
H1040 H 0.42509 0.90087 0.69677 0.0
H1041 H 0.46469 0.863 0.68901 0.0
H1042 H 0.47712 0.81763 0.65628 0.0
H1043 H 0.45066 0.78296 0.62245 0.0
Mn1044 Mn 0.08972 0.43284 0.58011 0.0
Mn1045 Mn 0.16048 0.50202 0.6096 0.0
C1046 C 0.08772 0.4868 0.58923 0.0
C1047 C 0.0675 0.4089 0.54534 0.0
C1048 C 0.09829 0.42735 0.628 0.0
O1049 O 0.13167 0.41921 0.57922 0.0
O1050 O 0.17906 0.47271 0.59358 0.0
C1051 C 0.20717 0.54576 0.57358 0.0
N1052 N 0.1891 0.5462 0.59149 0.0
C1053 C 0.23361 0.6182 0.59578 0.0
C1054 C 0.24816 0.61376 0.57511 0.0
C1055 C 0.23458 0.57922 0.56457 0.0
C1056 C 0.1939 0.57936 0.59913 0.0
H1057 H 0.20055 0.51948 0.56602 0.0
C1058 C 0.16635 0.44078 0.58426 0.0
O1059 O 0.0545 0.3874 0.5621 0.0
O1060 O 0.09416 0.44319 0.54882 0.0
N1061 N 0.14834 0.53262 0.6282 0.0
C1062 C 0.14145 0.52107 0.65335 0.0
C1063 C 0.15536 0.55235 0.67546 0.0
C1064 C 0.17901 0.60202 0.67447 0.0
C1065 C 0.19273 0.62582 0.64852 0.0
C1066 C 0.16917 0.57454 0.61864 0.0
H1067 H 0.13033 0.4921 0.6578 0.0
O1068 O 0.05747 0.4569 0.58261 0.0
O1069 O 0.11793 0.48438 0.58996 0.0
O1070 O 0.07753 0.41438 0.61127 0.0
O1071 O 0.13094 0.45734 0.62825 0.0
C1072 C 0.23274 0.66526 0.64499 0.0
C1073 C 0.2568 0.66931 0.62464 0.0
H1074 H 0.27157 0.63612 0.56651 0.0
H1075 H 0.24767 0.57812 0.54979 0.0
H1076 H 0.14891 0.53963 0.69115 0.0
H1077 H 0.18859 0.62 0.66248 0.0
H1078 H 0.24478 0.6858 0.65775 0.0
H1079 H 0.28288 0.69688 0.62586 0.0
Mn1080 Mn 0.36888 0.42564 0.58451 0.0
Mn1081 Mn 0.37019 0.49447 0.61452 0.0
C1082 C 0.42627 0.47876 0.59363 0.0
C1083 C 0.36742 0.40416 0.54984 0.0
C1084 C 0.35293 0.41784 0.63187 0.0
O1085 O 0.31407 0.41421 0.58273 0.0
O1086 O 0.32131 0.46669 0.59888 0.0
C1087 C 0.3656 0.53913 0.57986 0.0
N1088 N 0.3856 0.53879 0.59701 0.0
C1089 C 0.41187 0.60962 0.60354 0.0
C1090 C 0.391 0.60631 0.58355 0.0
C1091 C 0.37001 0.57275 0.57222 0.0
C1092 C 0.41388 0.57137 0.60512 0.0
H1093 H 0.34608 0.51334 0.57182 0.0
C1094 C 0.30169 0.43597 0.58845 0.0
O1095 O 0.35751 0.38095 0.56589 0.0
O1096 O 0.37594 0.43844 0.55393 0.0
N1097 N 0.4149 0.52319 0.63232 0.0
C1098 C 0.41266 0.51002 0.657 0.0
C1099 C 0.43155 0.53978 0.67958 0.0
C1100 C 0.45693 0.58935 0.67964 0.0
C1101 C 0.46485 0.61491 0.65449 0.0
C1102 C 0.43519 0.56558 0.62361 0.0
H1103 H 0.39622 0.48057 0.66083 0.0
O1104 O 0.42536 0.44808 0.58748 0.0
O1105 O 0.39385 0.47683 0.59453 0.0
O1106 O 0.36026 0.40463 0.6152 0.0
O1107 O 0.35384 0.44952 0.63252 0.0
C1108 C 0.46351 0.65425 0.65268 0.0
C1109 C 0.44171 0.65925 0.63339 0.0
H1110 H 0.38836 0.62879 0.57615 0.0
H1111 H 0.35457 0.57241 0.55804 0.0
H1112 H 0.42696 0.52597 0.69489 0.0
H1113 H 0.46424 0.60812 0.66813 0.0
H1114 H 0.47281 0.67387 0.66592 0.0
H1115 H 0.44284 0.68648 0.63561 0.0
Mn1116 Mn 0.62102 0.96569 0.58043 0.0
Mn1117 Mn 0.54832 0.89936 0.60888 0.0
C1118 C 0.56744 0.97031 0.58667 0.0
C1119 C 0.65185 0.99004 0.54765 0.0
C1120 C 0.61589 0.96404 0.62985 0.0
O1121 O 0.63341 0.92272 0.58034 0.0
O1122 O 0.58788 0.88638 0.60327 0.0
C1123 C 0.52618 0.84488 0.5715 0.0
N1124 N 0.51658 0.86089 0.58756 0.0
C1125 C 0.44809 0.79899 0.58598 0.0
C1126 C 0.46124 0.78804 0.56851 0.0
C1127 C 0.49896 0.81087 0.56132 0.0
C1128 C 0.48103 0.84476 0.59336 0.0
H1129 H 0.55505 0.8584 0.56605 0.0
C1130 C 0.61695 0.89376 0.59235 0.0
O1131 O 0.66977 0.00132 0.56575 0.0
O1132 O 0.61669 0.96392 0.5486 0.0
N1133 N 0.5052 0.90513 0.61845 0.0
C1134 C 0.50624 0.93169 0.63496 0.0
C1135 C 0.47247 0.92365 0.65099 0.0
C1136 C 0.41051 0.85914 0.64992 0.0
C1137 C 0.4126 0.83288 0.63143 0.0
C1138 C 0.47416 0.8683 0.61282 0.0
H1139 H 0.5327 0.95718 0.63786 0.0
O1140 O 0.59913 0.99986 0.58164 0.0
O1141 O 0.56705 0.93841 0.587 0.0
O1142 O 0.63557 0.97602 0.61272 0.0
O1143 O 0.58151 0.93704 0.63027 0.0
C1144 C 0.38354 0.78623 0.62072 0.0
C1145 C 0.40194 0.7698 0.59823 0.0
H1146 H 0.44238 0.76262 0.55988 0.0
H1147 H 0.50805 0.80117 0.54774 0.0
H1148 H 0.48112 0.94829 0.66139 0.0
H1149 H 0.38441 0.8472 0.65923 0.0
H1150 H 0.35467 0.77049 0.62978 0.0
H1151 H 0.38843 0.77423 0.6099 0.0
Mn1152 Mn 0.09909 0.68759 0.58039 0.0
Mn1153 Mn 0.16808 0.68205 0.6078 0.0
C1154 C 0.09664 0.63076 0.58492 0.0
C1155 C 0.07188 0.69322 0.54831 0.0
C1156 C 0.10274 0.68189 0.6296 0.0
O1157 O 0.14059 0.74264 0.58056 0.0
O1158 O 0.18002 0.73519 0.60258 0.0
C1159 C 0.2295 0.72113 0.57469 0.0
N1160 N 0.2093 0.69108 0.58789 0.0
C1161 C 0.2716 0.6843 0.58862 0.0
C1162 C 0.28766 0.71483 0.57475 0.0
C1163 C 0.26676 0.73197 0.56776 0.0
C1164 C 0.22473 0.67082 0.59407 0.0
H1165 H 0.21756 0.73818 0.56963 0.0
C1166 C 0.17046 0.75591 0.59191 0.0
O1167 O 0.06128 0.69916 0.56674 0.0
O1168 O 0.09935 0.6861 0.5485 0.0
N1169 N 0.1612 0.63202 0.61633 0.0
C1170 C 0.13173 0.6039 0.63074 0.0
C1171 C 0.13639 0.57484 0.64594 0.0
C1172 C 0.19972 0.57592 0.64769 0.0
C1173 C 0.23022 0.60793 0.63091 0.0
C1174 C 0.19839 0.63781 0.61211 0.0
H1175 H 0.10607 0.60492 0.6327 0.0
O1176 O 0.0664 0.63239 0.58092 0.0
O1177 O 0.12873 0.66245 0.58547 0.0
O1178 O 0.08964 0.69024 0.61307 0.0
O1179 O 0.13021 0.67553 0.62897 0.0
C1180 C 0.27913 0.62685 0.62166 0.0
C1181 C 0.2986 0.66483 0.60094 0.0
H1182 H 0.31667 0.72628 0.56976 0.0
H1183 H 0.28073 0.75612 0.55726 0.0
H1184 H 0.10999 0.5574 0.65466 0.0
H1185 H 0.22386 0.5935 0.63883 0.0
H1186 H 0.2934 0.61184 0.63051 0.0
H1187 H 0.2923 0.64502 0.61179 0.0
Mn1188 Mn 0.10715 0.70608 0.76628 0.0
Mn1189 Mn 0.18007 0.70671 0.74015 0.0
C1190 C 0.16181 0.76276 0.75902 0.0
C1191 C 0.08072 0.70561 0.8 0.0
C1192 C 0.10611 0.691 0.71872 0.0
O1193 O 0.09464 0.65088 0.76794 0.0
O1194 O 0.1498 0.65798 0.75565 0.0
C1195 C 0.22214 0.70202 0.77664 0.0
N1196 N 0.22307 0.72248 0.75943 0.0
C1197 C 0.29559 0.75177 0.75659 0.0
C1198 C 0.29039 0.73108 0.77675 0.0
C1199 C 0.2553 0.70806 0.78619 0.0
C1200 C 0.25642 0.75181 0.75264 0.0
H1201 H 0.19566 0.68093 0.78336 0.0
C1202 C 0.11696 0.63821 0.76398 0.0
O1203 O 0.06015 0.69586 0.78273 0.0
O1204 O 0.115 0.71262 0.79772 0.0
N1205 N 0.21112 0.75105 0.72262 0.0
C1206 C 0.20125 0.74823 0.69729 0.0
C1207 C 0.23391 0.76798 0.67606 0.0
C1208 C 0.28331 0.79489 0.67827 0.0
C1209 C 0.30548 0.80377 0.7047 0.0
C1210 C 0.25226 0.77261 0.73329 0.0
H1211 H 0.17248 0.73092 0.69211 0.0
O1212 O 0.13072 0.76236 0.76353 0.0
O1213 O 0.15976 0.73029 0.75867 0.0
O1214 O 0.09115 0.69874 0.73444 0.0
O1215 O 0.1371 0.69045 0.72002 0.0
C1216 C 0.34529 0.80426 0.70888 0.0
C1217 C 0.34864 0.78312 0.72889 0.0
H1218 H 0.31258 0.72998 0.78562 0.0
H1219 H 0.25366 0.69248 0.80053 0.0
H1220 H 0.22223 0.76285 0.66008 0.0
H1221 H 0.30045 0.80286 0.69067 0.0
H1222 H 0.36668 0.8142 0.6966 0.0
H1223 H 0.37656 0.78536 0.72813 0.0
Mn1224 Mn 0.35499 0.42764 0.76711 0.0
Mn1225 Mn 0.34104 0.48657 0.73686 0.0
C1226 C 0.29485 0.41979 0.76283 0.0
C1227 C 0.36748 0.40582 0.799 0.0
C1228 C 0.34198 0.42106 0.71827 0.0
O1229 O 0.4086 0.47405 0.76659 0.0
O1230 O 0.39397 0.49732 0.73856 0.0
C1231 C 0.38122 0.54834 0.77085 0.0
N1232 N 0.35346 0.53001 0.75596 0.0
C1233 C 0.35 0.59368 0.75372 0.0
C1234 C 0.37917 0.60866 0.76849 0.0
C1235 C 0.39328 0.58614 0.77732 0.0
C1236 C 0.33422 0.54614 0.74956 0.0
H1237 H 0.39524 0.53447 0.77777 0.0
C1238 C 0.41774 0.49953 0.75247 0.0
O1239 O 0.37335 0.39545 0.78052 0.0
O1240 O 0.3553 0.42965 0.79899 0.0
N1241 N 0.29122 0.48087 0.72936 0.0
C1242 C 0.26219 0.4516 0.71502 0.0
C1243 C 0.23448 0.45762 0.69923 0.0
C1244 C 0.24003 0.52339 0.69663 0.0
C1245 C 0.27205 0.55248 0.71274 0.0
C1246 C 0.29979 0.51934 0.7325 0.0
H1247 H 0.26153 0.42502 0.71348 0.0
O1248 O 0.29907 0.39113 0.76732 0.0
O1249 O 0.32539 0.45228 0.76118 0.0
O1250 O 0.35732 0.41583 0.73484 0.0
O1251 O 0.33007 0.44452 0.71777 0.0
C1252 C 0.29305 0.60123 0.72016 0.0
C1253 C 0.33208 0.62125 0.74043 0.0
H1254 H 0.39043 0.63741 0.77345 0.0
H1255 H 0.41562 0.59888 0.7891 0.0
H1256 H 0.21591 0.43121 0.69068 0.0
H1257 H 0.22516 0.53437 0.68704 0.0
H1258 H 0.27901 0.61577 0.71063 0.0
H1259 H 0.31205 0.61493 0.72968 0.0
Mn1260 Mn 0.65117 0.9754 0.76533 0.0
Mn1261 Mn 0.57629 0.90462 0.73987 0.0
C1262 C 0.65092 0.91916 0.75751 0.0
C1263 C 0.67785 0.00305 0.79903 0.0
C1264 C 0.6352 0.97663 0.71799 0.0
O1265 O 0.60982 0.99055 0.76681 0.0
O1266 O 0.56044 0.93479 0.75658 0.0
C1267 C 0.53603 0.86509 0.77825 0.0
N1268 N 0.55075 0.8627 0.75942 0.0
C1269 C 0.50464 0.79127 0.75709 0.0
C1270 C 0.49319 0.79765 0.77834 0.0
C1271 C 0.50927 0.83276 0.78841 0.0
C1272 C 0.54401 0.82898 0.75191 0.0
H1273 H 0.54461 0.89208 0.78557 0.0
C1274 C 0.57439 0.96829 0.76373 0.0
O1275 O 0.68951 0.02218 0.78138 0.0
O1276 O 0.65003 0.96886 0.79716 0.0
N1277 N 0.58533 0.87274 0.72074 0.0
C1278 C 0.5887 0.88227 0.69536 0.0
C1279 C 0.57134 0.84929 0.67406 0.0
C1280 C 0.54728 0.79987 0.67626 0.0
C1281 C 0.53718 0.77817 0.70276 0.0
C1282 C 0.56559 0.83184 0.73133 0.0
H1283 H 0.59937 0.91086 0.69034 0.0
O1284 O 0.68208 0.94941 0.76267 0.0
O1285 O 0.62139 0.92286 0.7574 0.0
O1286 O 0.65951 0.9902 0.73324 0.0
O1287 O 0.6023 0.94753 0.7199 0.0
C1288 C 0.49739 0.73945 0.70816 0.0
C1289 C 0.4764 0.73753 0.72947 0.0
H1290 H 0.4704 0.77647 0.78786 0.0
H1291 H 0.49854 0.83526 0.80374 0.0
H1292 H 0.5756 0.86075 0.65809 0.0
H1293 H 0.53933 0.78288 0.6887 0.0
H1294 H 0.48328 0.71798 0.69606 0.0
H1295 H 0.44992 0.7102 0.7296 0.0
C1296 C 0.12769 0.26331 0.11348 0.0
C1297 C 0.11271 0.27598 0.09733 0.0
C1298 C 0.16316 0.26588 0.11115 0.0
C1299 C 0.18432 0.28011 0.09232 0.0
H1300 H 0.11116 0.24981 0.12759 0.0
H1301 H 0.173 0.25451 0.12364 0.0
S1302 S 0.15759 0.31674 0.04527 0.0
N1303 N 0.1223 0.30425 0.06213 0.0
N1304 N 0.18803 0.30749 0.05742 0.0
C1305 C 0.17013 0.29374 0.07631 0.0
C1306 C 0.13453 0.29205 0.0789 0.0
C1307 C 0.73694 0.89506 0.07724 0.0
C1308 C 0.73963 0.91312 0.09679 0.0
C1309 C 0.73994 0.86251 0.07637 0.0
C1310 C 0.74544 0.84677 0.09503 0.0
H1311 H 0.73639 0.90833 0.06235 0.0
H1312 H 0.74115 0.85141 0.06086 0.0
S1313 S 0.7498 0.88058 0.15031 0.0
N1314 N 0.74425 0.91081 0.13537 0.0
N1315 N 0.74966 0.84913 0.1337 0.0
C1316 C 0.74438 0.86224 0.11482 0.0
C1317 C 0.74137 0.89557 0.11572 0.0
C1318 C 0.15596 0.87844 0.08482 0.0
C1319 C 0.1301 0.86551 0.10175 0.0
C1320 C 0.19102 0.91166 0.08679 0.0
C1321 C 0.20113 0.93317 0.10567 0.0
H1322 H 0.14777 0.86456 0.0694 0.0
H1323 H 0.20867 0.92256 0.07275 0.0
S1324 S 0.14431 0.90985 0.15502 0.0
N1325 N 0.11797 0.87489 0.13847 0.0
N1326 N 0.1836 0.938 0.14198 0.0
C1327 C 0.17669 0.91903 0.1232 0.0
C1328 C 0.14114 0.88496 0.12127 0.0
C1329 C 0.31902 0.14957 0.94175 0.0
C1330 C 0.31081 0.12767 0.92315 0.0
C1331 C 0.32721 0.18712 0.94076 0.0
C1332 C 0.32715 0.20395 0.92115 0.0
H1333 H 0.31632 0.13674 0.95728 0.0
H1334 H 0.32947 0.20171 0.95561 0.0
S1335 S 0.31207 0.15972 0.86774 0.0
N1336 N 0.30703 0.12625 0.88448 0.0
N1337 N 0.32248 0.19712 0.88257 0.0
C1338 C 0.32283 0.18349 0.90231 0.0
C1339 C 0.31429 0.14506 0.90333 0.0
C1340 C 0.94435 0.18038 0.93761 0.0
C1341 C 0.95569 0.19667 0.91729 0.0
C1342 C 0.90832 0.14928 0.94102 0.0
C1343 C 0.88206 0.1329 0.92419 0.0
H1344 H 0.96418 0.19073 0.95085 0.0
H1345 H 0.90181 0.13657 0.95676 0.0
S1346 S 0.89719 0.16716 0.86816 0.0
N1347 N 0.93734 0.19625 0.88038 0.0
N1348 N 0.86938 0.13731 0.88658 0.0
C1349 C 0.89224 0.15055 0.90401 0.0
C1350 C 0.92919 0.18247 0.90058 0.0
C1351 C 0.87372 0.75749 0.94152 0.0
C1352 C 0.8556 0.75919 0.92274 0.0
C1353 C 0.90965 0.7612 0.94093 0.0
C1354 C 0.9286 0.76624 0.92151 0.0
H1355 H 0.86147 0.75669 0.95697 0.0
H1356 H 0.92373 0.76263 0.9559 0.0
S1357 S 0.89205 0.76913 0.86771 0.0
N1358 N 0.85809 0.76366 0.8841 0.0
N1359 N 0.92546 0.76957 0.88288 0.0
C1360 C 0.90951 0.76466 0.90246 0.0
C1361 C 0.87294 0.76134 0.90309 0.0
C1362 C 0.80822 0.6251 0.4461 0.0
C1363 C 0.78905 0.62393 0.42712 0.0
C1364 C 0.84306 0.62572 0.4455 0.0
C1365 C 0.85961 0.62514 0.42591 0.0
H1366 H 0.7948 0.62235 0.46139 0.0
H1367 H 0.85539 0.62341 0.46037 0.0
S1368 S 0.82383 0.62881 0.37203 0.0
N1369 N 0.79149 0.62699 0.38845 0.0
N1370 N 0.8567 0.62855 0.38733 0.0
C1371 C 0.84224 0.62735 0.407 0.0
C1372 C 0.80701 0.62662 0.40761 0.0
C1373 C 0.4012 0.23407 0.42209 0.0
C1374 C 0.42066 0.26435 0.43638 0.0
C1375 C 0.40113 0.19989 0.42495 0.0
C1376 C 0.42103 0.19528 0.44199 0.0
H1377 H 0.38867 0.23791 0.40771 0.0
H1378 H 0.38884 0.17857 0.41256 0.0
S1379 S 0.47271 0.26451 0.48497 0.0
N1380 N 0.45661 0.28597 0.46936 0.0
N1381 N 0.45763 0.22242 0.47428 0.0
C1382 C 0.43795 0.22425 0.45722 0.0
C1383 C 0.43755 0.25869 0.4545 0.0
C1384 C 0.84588 0.2474 0.4046 0.0
C1385 C 0.86742 0.26596 0.42286 0.0
C1386 C 0.81005 0.2153 0.40629 0.0
C1387 C 0.79446 0.20012 0.42629 0.0
H1388 H 0.85554 0.25961 0.38891 0.0
H1389 H 0.7934 0.20372 0.39188 0.0
S1390 S 0.84062 0.23571 0.47888 0.0
N1391 N 0.87177 0.26517 0.4615 0.0
N1392 N 0.80437 0.20403 0.46469 0.0
C1393 C 0.81687 0.21635 0.44461 0.0
C1394 C 0.85346 0.24948 0.44289 0.0
C1395 C 0.97868 0.49527 0.27056 0.0
C1396 C 0.97718 0.47632 0.25153 0.0
C1397 C 0.97409 0.52698 0.2704 0.0
C1398 C 0.96783 0.5409 0.25123 0.0
H1399 H 0.97998 0.48348 0.28584 0.0
H1400 H 0.97244 0.53887 0.28555 0.0
S1401 S 0.96557 0.50429 0.19693 0.0
N1402 N 0.9728 0.47618 0.2128 0.0
N1403 N 0.96368 0.53575 0.21264 0.0
C1404 C 0.96952 0.52441 0.23196 0.0
C1405 C 0.97456 0.49218 0.23208 0.0
C1406 C 0.5686 0.50977 0.27379 0.0
C1407 C 0.58999 0.52494 0.25521 0.0
C1408 C 0.53213 0.47835 0.27275 0.0
C1409 C 0.51613 0.46046 0.25317 0.0
H1410 H 0.58101 0.52084 0.28932 0.0
H1411 H 0.5179 0.46558 0.2876 0.0
S1412 S 0.55966 0.49091 0.19987 0.0
N1413 N 0.59149 0.52202 0.2165 0.0
N1414 N 0.52344 0.4616 0.21474 0.0
C1415 C 0.53613 0.47695 0.23437 0.0
C1416 C 0.57305 0.50955 0.23536 0.0
C1417 C 0.54397 0.08747 0.25413 0.0
C1418 C 0.54104 0.11308 0.26804 0.0
C1419 C 0.57911 0.08947 0.25049 0.0
C1420 C 0.61239 0.11773 0.26026 0.0
H1421 H 0.51943 0.06694 0.24528 0.0
H1422 H 0.58058 0.07033 0.23912 0.0
S1423 S 0.62072 0.19035 0.2987 0.0
N1424 N 0.57542 0.16573 0.29294 0.0
N1425 N 0.64011 0.17019 0.28512 0.0
C1426 C 0.60949 0.14209 0.27487 0.0
C1427 C 0.57422 0.13955 0.27905 0.0
C1428 C 0.49115 0.97277 0.78475 0.0
C1429 C 0.47145 0.96918 0.76557 0.0
C1430 C 0.52806 0.97816 0.78451 0.0
C1431 C 0.54653 0.98109 0.76509 0.0
H1432 H 0.47677 0.96789 0.79991 0.0
H1433 H 0.54065 0.9764 0.79941 0.0
S1434 S 0.50837 0.97788 0.71081 0.0
N1435 N 0.47417 0.97226 0.72695 0.0
N1436 N 0.54337 0.98329 0.72645 0.0
C1437 C 0.52822 0.98117 0.74602 0.0
C1438 C 0.49067 0.97489 0.74626 0.0
C1439 C 0.12181 0.55268 0.78149 0.0
C1440 C 0.09804 0.52511 0.76661 0.0
C1441 C 0.12514 0.58853 0.78199 0.0
C1442 C 0.10444 0.59797 0.76781 0.0
H1443 H 0.14036 0.54759 0.79161 0.0
H1444 H 0.146 0.60985 0.79251 0.0
S1445 S 0.03682 0.5354 0.72661 0.0
N1446 N 0.05224 0.50918 0.73804 0.0
N1447 N 0.05783 0.57635 0.73929 0.0
C1448 C 0.07848 0.56982 0.75396 0.0
C1449 C 0.07539 0.53338 0.7533 0.0
C1450 C 0.48697 0.54065 0.76419 0.0
C1451 C 0.45499 0.5357 0.75266 0.0
C1452 C 0.52048 0.57646 0.76548 0.0
C1453 C 0.52279 0.60867 0.7557 0.0
H1454 H 0.486 0.51688 0.7724 0.0
H1455 H 0.5443 0.57903 0.77452 0.0
S1456 S 0.44462 0.61176 0.726 0.0
N1457 N 0.42797 0.56711 0.73191 0.0
N1458 N 0.48781 0.63285 0.73555 0.0
C1459 C 0.49039 0.60376 0.74445 0.0
C1460 C 0.45745 0.56777 0.74259 0.0
C1461 C 0.61867 0.80788 0.6121 0.0
C1462 C 0.62067 0.7905 0.59319 0.0
C1463 C 0.6222 0.84375 0.61186 0.0
C1464 C 0.62735 0.86374 0.59266 0.0
H1465 H 0.61231 0.79281 0.62713 0.0
H1466 H 0.61805 0.85475 0.62671 0.0
S1467 S 0.63772 0.83228 0.53892 0.0
N1468 N 0.63147 0.79743 0.55488 0.0
N1469 N 0.63717 0.86467 0.55441 0.0
C1470 C 0.63224 0.84804 0.57382 0.0
C1471 C 0.62903 0.81142 0.57409 0.0
C1472 C 0.21334 0.81513 0.61139 0.0
C1473 C 0.19774 0.79695 0.59188 0.0
C1474 C 0.24599 0.85078 0.61199 0.0
C1475 C 0.26459 0.86943 0.59313 0.0
H1476 H 0.20162 0.80061 0.62632 0.0
H1477 H 0.25868 0.8624 0.6274 0.0
S1478 S 0.23397 0.83492 0.53797 0.0
N1479 N 0.20169 0.80132 0.55319 0.0
N1480 N 0.26393 0.8681 0.55442 0.0
C1481 C 0.24793 0.85279 0.5735 0.0
C1482 C 0.21423 0.81655 0.57286 0.0
C1483 C 0.23371 0.40667 0.59775 0.0
C1484 C 0.26282 0.42647 0.58294 0.0
C1485 C 0.19983 0.40762 0.59656 0.0
C1486 C 0.19421 0.42857 0.5806 0.0
H1487 H 0.23835 0.39297 0.6113 0.0
H1488 H 0.17939 0.3947 0.60928 0.0
S1489 S 0.26051 0.4826 0.53712 0.0
N1490 N 0.28261 0.46495 0.55093 0.0
N1491 N 0.21933 0.4673 0.54894 0.0
C1492 C 0.22205 0.4463 0.56493 0.0
C1493 C 0.25632 0.44511 0.56604 0.0
C1494 C 0.03166 0.33122 0.16625 0.0
C1495 C 0.01979 0.33967 0.1469 0.0
C1496 C 0.02621 0.34427 0.18594 0.0
C1497 C 0.00758 0.36525 0.18704 0.0
H1498 H 0.04381 0.31298 0.16626 0.0
H1499 H 0.03405 0.33542 0.20046 0.0
S1500 S 0.97392 0.39771 0.14099 0.0
N1501 N 0.99167 0.37327 0.13001 0.0
N1502 N 0.97993 0.39641 0.16702 0.0
C1503 C 0.99739 0.37558 0.16776 0.0
C1504 C 0.00391 0.36318 0.14768 0.0
C1505 C 0.69459 0.66915 0.15727 0.0
C1506 C 0.71741 0.70861 0.15565 0.0
C1507 C 0.68568 0.65114 0.17723 0.0
C1508 C 0.69813 0.67195 0.19634 0.0
H1509 H 0.68551 0.65183 0.143 0.0
H1510 H 0.67006 0.62056 0.1777 0.0
S1511 S 0.7552 0.77613 0.20091 0.0
N1512 N 0.75021 0.76812 0.17492 0.0
N1513 N 0.73213 0.73427 0.21244 0.0
C1514 C 0.71875 0.71153 0.195 0.0
C1515 C 0.72876 0.72986 0.17465 0.0
C1516 C 0.33162 0.03278 0.18074 0.0
C1517 C 0.35129 0.04315 0.16123 0.0
C1518 C 0.35087 0.04027 0.20045 0.0
C1519 C 0.3906 0.0595 0.20141 0.0
H1520 H 0.30113 0.01977 0.18081 0.0
H1521 H 0.33462 0.0333 0.21504 0.0
S1522 S 0.45534 0.09128 0.155 0.0
N1523 N 0.41273 0.07154 0.14418 0.0
N1524 N 0.44882 0.08717 0.1811 0.0
C1525 C 0.41049 0.0688 0.18201 0.0
C1526 C 0.39088 0.06021 0.16196 0.0
C1527 C 0.33519 0.02725 0.85246 0.0
C1528 C 0.34471 0.01595 0.87166 0.0
C1529 C 0.34488 0.01884 0.83252 0.0
C1530 C 0.36341 0.99779 0.83106 0.0
H1531 H 0.31894 0.04156 0.85283 0.0
H1532 H 0.33556 0.02668 0.81818 0.0
S1533 S 0.39695 0.96386 0.87647 0.0
N1534 N 0.37633 0.98521 0.8879 0.0
N1535 N 0.39317 0.96807 0.85047 0.0
C1536 C 0.37454 0.98779 0.85012 0.0
C1537 C 0.36559 0.99725 0.87041 0.0
C1538 C 0.075 0.40204 0.83802 0.0
C1539 C 0.0595 0.37949 0.81963 0.0
C1540 C 0.06926 0.3859 0.8585 0.0
C1541 C 0.04871 0.34654 0.86124 0.0
H1542 H 0.093 0.43233 0.83648 0.0
H1543 H 0.08326 0.40414 0.87204 0.0
S1544 S 1.0 0.27513 0.81869 0.0
N1545 N 0.02015 0.31588 0.80588 0.0
N1546 N 0.01075 0.28556 0.84417 0.0
C1547 C 0.0316 0.32384 0.84317 0.0
C1548 C 0.03658 0.3403 0.82242 0.0
C1549 C 0.71427 0.73018 0.82367 0.0
C1550 C 0.67499 0.70618 0.82171 0.0
C1551 C 0.732 0.73964 0.84387 0.0
C1552 C 0.71124 0.72466 0.86279 0.0
H1553 H 0.73103 0.74372 0.80963 0.0
H1554 H 0.762 0.75976 0.8447 0.0
S1555 S 0.60802 0.65785 0.86597 0.0
N1556 N 0.61619 0.66625 0.84018 0.0
N1557 N 0.64944 0.68248 0.87794 0.0
C1558 C 0.67229 0.69875 0.86085 0.0
C1559 C 0.65418 0.68997 0.84037 0.0
C1560 C 0.01978 0.70373 0.8473 0.0
C1561 C 0.0464 0.73339 0.86025 0.0
C1562 C 0.03059 0.6945 0.82772 0.0
C1563 C 0.0685 0.71402 0.8208 0.0
H1564 H 0.99039 0.68836 0.85199 0.0
H1565 H 0.00923 0.67199 0.81801 0.0
S1566 S 0.14861 0.79403 0.84917 0.0
N1567 N 0.11185 0.78224 0.86468 0.0
N1568 N 0.13231 0.76464 0.82873 0.0
C1569 C 0.09519 0.74329 0.83394 0.0
C1570 C 0.0841 0.75302 0.85342 0.0
C1571 C 0.37757 0.40823 0.83864 0.0
C1572 C 0.37093 0.38865 0.81917 0.0
C1573 C 0.37476 0.39031 0.85828 0.0
C1574 C 0.36433 0.35196 0.85909 0.0
H1575 H 0.38342 0.43715 0.83876 0.0
H1576 H 0.37769 0.40568 0.8729 0.0
S1577 S 0.34689 0.28886 0.81281 0.0
N1578 N 0.35671 0.32962 0.80202 0.0
N1579 N 0.34995 0.29573 0.8389 0.0
C1580 C 0.35971 0.33272 0.83977 0.0
C1581 C 0.36342 0.35113 0.81979 0.0
C1582 C 0.6936 0.01381 0.85949 0.0
C1583 C 0.73323 0.03343 0.86154 0.0
C1584 C 0.6759 0.00544 0.83924 0.0
C1585 C 0.697 0.01742 0.82019 0.0
H1586 H 0.67615 0.00283 0.87358 0.0
H1587 H 0.64538 0.98855 0.83847 0.0
S1588 S 0.80158 0.07236 0.81691 0.0
N1589 N 0.79299 0.06596 0.84278 0.0
N1590 N 0.75987 0.05191 0.80496 0.0
C1591 C 0.73659 0.03894 0.82212 0.0
C1592 C 0.75462 0.04645 0.84269 0.0
C1593 C 0.74864 0.06257 0.17179 0.0
C1594 C 0.71831 0.03488 0.15963 0.0
C1595 C 0.74302 0.07465 0.19154 0.0
C1596 C 0.7069 0.0592 0.20038 0.0
H1597 H 0.7773 0.07586 0.1658 0.0
H1598 H 0.76731 0.09668 0.19994 0.0
S1599 S 0.61767 0.98558 0.17566 0.0
N1600 N 0.65045 0.99219 0.15803 0.0
N1601 N 0.63993 0.01458 0.19579 0.0
C1602 C 0.67608 0.03116 0.18874 0.0
C1603 C 0.68176 0.01915 0.16819 0.0
C1604 C 0.9959 0.6817 0.15695 0.0
C1605 C 0.01574 0.72122 0.15471 0.0
C1606 C 0.98728 0.66464 0.17729 0.0
C1607 C 0.99923 0.68636 0.19619 0.0
H1608 H 0.9851 0.66387 0.14293 0.0
H1609 H 0.9703 0.63417 0.17824 0.0
S1610 S 0.05476 0.7909 0.19894 0.0
N1611 N 0.04857 0.78155 0.17311 0.0
N1612 N 0.03388 0.74956 0.21114 0.0
C1613 C 0.02094 0.72582 0.1941 0.0
C1614 C 0.02875 0.7432 0.17343 0.0
C1615 C 0.37446 0.35258 0.15448 0.0
C1616 C 0.33483 0.33401 0.15253 0.0
C1617 C 0.39222 0.36003 0.17468 0.0
C1618 C 0.3711 0.35026 0.1937 0.0
H1619 H 0.39176 0.35935 0.14032 0.0
H1620 H 0.42266 0.37273 0.1754 0.0
S1621 S 0.26663 0.30352 0.1972 0.0
N1622 N 0.27516 0.30721 0.1713 0.0
N1623 N 0.30834 0.32276 0.20909 0.0
C1624 C 0.33158 0.33354 0.19189 0.0
C1625 C 0.31351 0.32498 0.17137 0.0
C1626 C 0.68389 0.66965 0.52765 0.0
C1627 C 0.66019 0.68539 0.52848 0.0
C1628 C 0.69359 0.66001 0.508 0.0
C1629 C 0.68114 0.66703 0.48841 0.0
H1630 H 0.69299 0.66243 0.54229 0.0
H1631 H 0.70991 0.64577 0.50817 0.0
S1632 S 0.62114 0.71064 0.48178 0.0
N1633 N 0.62599 0.70916 0.50791 0.0
N1634 N 0.64564 0.69271 0.47113 0.0
C1635 C 0.65943 0.68492 0.489 0.0
C1636 C 0.64859 0.69366 0.50899 0.0
C1637 C 0.36534 0.01048 0.49782 0.0
C1638 C 0.38372 0.0499 0.49519 0.0
C1639 C 0.35869 0.99412 0.51833 0.0
C1640 C 0.36909 0.01644 0.53701 0.0
H1641 H 0.35828 0.99229 0.48397 0.0
H1642 H 0.34638 0.9638 0.51957 0.0
S1643 S 0.41496 0.12082 0.53876 0.0
N1644 N 0.41041 0.11067 0.51301 0.0
N1645 N 0.3965 0.07993 0.55136 0.0
C1646 C 0.38527 0.05568 0.53455 0.0
C1647 C 0.39297 0.07238 0.51371 0.0
C1648 C 0.04059 0.41618 0.48795 0.0
C1649 C 0.01685 0.37856 0.48164 0.0
C1650 C 0.05752 0.42523 0.50825 0.0
C1651 C 0.05089 0.39707 0.52342 0.0
H1652 H 0.04572 0.43897 0.47714 0.0
H1653 H 0.07514 0.45482 0.51226 0.0
S1654 S 0.99115 0.29381 0.51454 0.0
N1655 N 0.98803 0.31266 0.4918 0.0
N1656 N 0.01916 0.3295 0.53027 0.0
C1657 C 0.02738 0.35913 0.51721 0.0
C1658 C 0.01054 0.34991 0.49627 0.0
C1659 C 0.34975 0.36103 0.51774 0.0
C1660 C 0.37493 0.39486 0.52831 0.0
C1661 C 0.35722 0.3539 0.49678 0.0
C1662 C 0.39051 0.38001 0.48623 0.0
H1663 H 0.32406 0.34037 0.52556 0.0
H1664 H 0.33745 0.32761 0.48904 0.0
S1665 S 0.46555 0.47217 0.50726 0.0
N1666 N 0.43427 0.45435 0.52665 0.0
N1667 N 0.44852 0.44066 0.48785 0.0
C1668 C 0.41577 0.41364 0.49678 0.0
C1669 C 0.40794 0.42113 0.51769 0.0
C1670 C 0.69193 0.04875 0.52656 0.0
C1671 C 0.66872 0.00925 0.52709 0.0
C1672 C 0.70155 0.06854 0.5071 0.0
C1673 C 0.6894 0.04955 0.48738 0.0
H1674 H 0.70052 0.06475 0.54131 0.0
H1675 H 0.71727 0.09912 0.50753 0.0
S1676 S 0.63187 0.94589 0.47997 0.0
N1677 N 0.63618 0.95161 0.50615 0.0
N1678 N 0.65555 0.98869 0.46961 0.0
C1679 C 0.66862 0.00988 0.48764 0.0
C1680 C 0.65792 0.98978 0.50748 0.0
C1681 C 0.99056 0.6551 0.50857 0.0
C1682 C 0.00898 0.66687 0.48874 0.0
C1683 C 0.01087 0.66643 0.52797 0.0
C1684 C 0.05051 0.68897 0.52824 0.0
H1685 H 0.96032 0.63606 0.5091 0.0
H1686 H 0.99565 0.65544 0.54278 0.0
S1687 S 0.11214 0.72885 0.48091 0.0
N1688 N 0.0691 0.70444 0.47078 0.0
N1689 N 0.10721 0.72411 0.50708 0.0
C1690 C 0.06911 0.70194 0.5086 0.0
C1691 C 0.04837 0.69135 0.4889 0.0
C1692 C 0.03313 0.31009 0.0165 0.0
C1693 C 0.03375 0.28066 0.02818 0.0
C1694 C 0.03615 0.31159 0.9937 0.0
C1695 C 0.03387 0.28083 0.98203 0.0
H1696 H 0.03122 0.33218 0.0249 0.0
H1697 H 0.03959 0.33627 0.98532 0.0
S1698 S 0.03204 0.19646 1.00513 0.0
N1699 N 0.0429 0.22619 0.02497 0.0
N1700 N 0.02188 0.21605 0.98532 0.0
C1701 C 0.02859 0.24932 0.99415 0.0
C1702 C 0.03721 0.25343 0.01613 0.0
C1703 C 0.72185 0.7585 0.99838 0.0
C1704 C 0.73939 0.74226 0.98668 0.0
C1705 C 0.72001 0.75605 0.02072 0.0
C1706 C 0.73462 0.73633 0.03191 0.0
H1707 H 0.71413 0.77733 0.99054 0.0
H1708 H 0.71151 0.77352 0.02934 0.0
S1709 S 0.77317 0.67996 1.008 0.0
N1710 N 0.76522 0.70031 0.98737 0.0
N1711 N 0.75878 0.693 0.0293 0.0
C1712 C 0.74613 0.71469 0.02006 0.0
C1713 C 0.74945 0.71846 0.99738 0.0
C1714 C 0.29214 0.99857 1.00517 0.0
C1715 C 0.30742 0.03205 0.99313 0.0
C1716 C 0.29035 0.99954 0.02755 0.0
C1717 C 0.30507 0.03406 0.03849 0.0
H1718 H 0.27758 0.97143 0.99719 0.0
H1719 H 0.27458 0.97319 0.03615 0.0
S1720 S 0.35409 0.12951 0.01439 0.0
N1721 N 0.34089 0.10046 0.99375 0.0
N1722 N 0.34049 0.10244 0.03585 0.0
C1723 C 0.32435 0.06768 0.02672 0.0
C1724 C 0.32488 0.06666 1.00397 0.0
C1725 C 0.00223 0.74861 0.99449 0.0
C1726 C 0.03719 0.76779 0.98392 0.0
C1727 C 1.00024 0.74776 0.01701 0.0
C1728 C 0.03311 0.76614 0.02974 0.0
H1729 H 0.97623 0.73757 0.98539 0.0
H1730 H 0.97273 0.73595 0.02442 0.0
S1731 S 0.13145 0.81689 0.00995 0.0
N1732 N 0.10534 0.80218 0.98804 0.0
N1733 N 0.1015 0.8014 0.03009 0.0
C1734 C 0.06813 0.78269 0.01938 0.0
C1735 C 0.07017 0.78327 0.99655 0.0
C1736 C 0.33247 0.2974 0.01642 0.0
C1737 C 0.30759 0.30582 0.02746 0.0
C1738 C 0.33512 0.29953 0.99392 0.0
C1739 C 0.31394 0.31139 0.98171 0.0
H1740 H 0.34701 0.28537 0.025 0.0
H1741 H 0.35095 0.28838 0.98597 0.0
S1742 S 0.25199 0.34543 1.00344 0.0
N1743 N 0.2658 0.33163 0.02476 0.0
N1744 N 0.27324 0.33877 0.98291 0.0
C1745 C 0.29308 0.32471 0.9929 0.0
C1746 C 0.28936 0.32127 0.01566 0.0
C1747 C 0.74266 0.99055 0.99937 0.0
C1748 C 0.76072 0.02417 0.98733 0.0
C1749 C 0.73822 0.99096 0.02174 0.0
C1750 C 0.75194 0.02502 0.0332 0.0
H1751 H 0.73447 0.96382 0.99168 0.0
H1752 H 0.72742 0.96459 0.03037 0.0
S1753 S 0.80027 0.12083 0.00929 0.0
N1754 N 0.79085 0.0924 0.9886 0.0
N1755 N 0.78289 0.0932 0.0304 0.0
C1756 C 0.76789 0.05862 0.02114 0.0
C1757 C 0.7722 0.05821 0.99834 0.0
C1758 C 0.65687 0.60525 0.32854 0.0
C1759 C 0.69298 0.62621 0.31948 0.0
C1760 C 0.65189 0.60325 0.35082 0.0
C1761 C 0.68275 0.62249 0.36489 0.0
H1762 H 0.63281 0.58739 0.31848 0.0
H1763 H 0.62413 0.58393 0.35712 0.0
S1764 S 0.78245 0.68468 0.349 0.0
N1765 N 0.75961 0.66894 0.32611 0.0
N1766 N 0.75015 0.66614 0.36792 0.0
C1767 C 0.71846 0.64625 0.35592 0.0
C1768 C 0.72361 0.64777 0.33323 0.0
C1769 C 0.42488 0.07668 0.35874 0.0
C1770 C 0.41464 0.09889 0.37117 0.0
C1771 C 0.42604 0.0791 0.33619 0.0
C1772 C 0.41651 0.10342 0.32537 0.0
H1773 H 0.43596 0.06055 0.3665 0.0
H1774 H 0.43803 0.06481 0.32742 0.0
S1775 S 0.38089 0.16167 0.35042 0.0
N1776 N 0.39035 0.1421 0.37083 0.0
N1777 N 0.39061 0.14513 0.32878 0.0
C1778 C 0.40216 0.12225 0.33761 0.0
C1779 C 0.40171 0.12038 0.36041 0.0
C1780 C 0.00157 0.39347 0.34512 0.0
C1781 C 0.98018 0.36 0.35686 0.0
C1782 C 0.99973 0.39349 0.32265 0.0
C1783 C 0.9769 0.35992 0.31128 0.0
H1784 H 0.01581 0.42038 0.35336 0.0
H1785 H 0.01271 0.42034 0.31438 0.0
S1786 S 0.92183 0.26405 0.33434 0.0
N1787 N 0.93989 0.29203 0.35532 0.0
N1788 N 0.93796 0.29178 0.31321 0.0
C1789 C 0.95956 0.32584 0.32274 0.0
C1790 C 0.96086 0.32592 0.34553 0.0
C1791 C 0.70923 0.09864 0.35696 0.0
C1792 C 0.67833 0.10044 0.36561 0.0
C1793 C 0.71483 0.09965 0.33458 0.0
C1794 C 0.68961 0.10238 0.32021 0.0
H1795 H 0.73085 0.09975 0.36749 0.0
H1796 H 0.74064 0.10174 0.32865 0.0
S1797 S 0.6012 0.10125 0.33429 0.0
N1798 N 0.61976 0.09958 0.35742 0.0
N1799 N 0.63046 0.10184 0.31608 0.0
C1800 C 0.65703 0.10051 0.32862 0.0
C1801 C 0.65138 0.09951 0.35111 0.0
C1802 C 0.98847 0.61259 0.35237 0.0
C1803 C 0.97467 0.631 0.36541 0.0
C1804 C 0.98833 0.61533 0.33003 0.0
C1805 C 0.97487 0.63699 0.3199 0.0
H1806 H 0.99591 0.59296 0.35938 0.0
H1807 H 0.99538 0.59753 0.3206 0.0
S1808 S 0.93861 0.69307 0.34675 0.0
N1809 N 0.94971 0.67369 0.3666 0.0
N1810 N 0.95024 0.67954 0.32459 0.0
C1811 C 0.96459 0.65853 0.33278 0.0
C1812 C 0.96429 0.65537 0.35558 0.0
C1813 C 0.42143 0.39244 0.35203 0.0
C1814 C 0.40553 0.35734 0.36244 0.0
C1815 C 0.42161 0.39459 0.32968 0.0
C1816 C 0.40475 0.36169 0.31716 0.0
H1817 H 0.43782 0.4183 0.36105 0.0
H1818 H 0.43838 0.4219 0.32218 0.0
S1819 S 0.35473 0.26321 0.33694 0.0
N1820 N 0.3696 0.28925 0.35883 0.0
N1821 N 0.36753 0.29322 0.31681 0.0
C1822 C 0.38433 0.32661 0.32751 0.0
C1823 C 0.38553 0.32441 0.35025 0.0
C1824 C 0.32218 0.9454 0.69451 0.0
C1825 C 0.35535 0.96443 0.70687 0.0
C1826 C 0.32317 0.94866 0.67217 0.0
C1827 C 0.35732 0.97129 0.66139 0.0
H1828 H 0.29591 0.92505 0.70196 0.0
H1829 H 0.29774 0.93043 0.66316 0.0
S1830 S 0.45143 0.02917 0.68649 0.0
N1831 N 0.42272 0.00879 0.70685 0.0
N1832 N 0.42454 0.01524 0.66485 0.0
C1833 C 0.38999 0.99325 0.6737 0.0
C1834 C 0.38903 0.98972 0.69648 0.0
C1835 C 0.06093 0.42751 0.68219 0.0
C1836 C 0.07739 0.41097 0.6947 0.0
C1837 C 0.06249 0.42719 0.65977 0.0
C1838 C 0.08213 0.41188 0.64919 0.0
H1839 H 0.05017 0.44402 0.68976 0.0
H1840 H 0.05261 0.44332 0.65083 0.0
S1841 S 0.12633 0.36168 0.67457 0.0
N1842 N 0.10912 0.37424 0.69477 0.0
N1843 N 0.1149 0.37654 0.65276 0.0
C1844 C 0.09554 0.39225 0.66139 0.0
C1845 C 0.09231 0.39096 0.68416 0.0
C1846 C 0.62175 0.67284 0.69085 0.0
C1847 C 0.63539 0.71014 0.69791 0.0
C1848 C 0.61826 0.66404 0.66889 0.0
C1849 C 0.62929 0.69232 0.65319 0.0
H1850 H 0.61007 0.64987 0.70226 0.0
H1851 H 0.60379 0.63461 0.66416 0.0
S1852 S 0.67053 0.79475 0.66345 0.0
N1853 N 0.6627 0.77576 0.68751 0.0
N1854 N 0.65735 0.75945 0.64643 0.0
C1855 C 0.64623 0.73002 0.66014 0.0
C1856 C 0.64893 0.73886 0.68244 0.0
C1857 C 0.30885 0.39051 0.68462 0.0
C1858 C 0.34106 0.40305 0.69767 0.0
C1859 C 0.31117 0.38823 0.66243 0.0
C1860 C 0.34576 0.39847 0.65256 0.0
H1861 H 0.2827 0.38643 0.69135 0.0
H1862 H 0.287 0.38328 0.6528 0.0
S1863 S 0.43643 0.42606 0.67986 0.0
N1864 N 0.40701 0.41999 0.69947 0.0
N1865 N 0.41126 0.41554 0.65761 0.0
C1866 C 0.3767 0.40564 0.66562 0.0
C1867 C 0.37442 0.40814 0.6883 0.0
C1868 C 0.66382 0.97608 0.68326 0.0
C1869 C 0.64551 0.99065 0.69583 0.0
C1870 C 0.65742 0.97104 0.66105 0.0
C1871 C 0.63313 0.98114 0.65072 0.0
H1872 H 0.67907 0.96394 0.69095 0.0
H1873 H 0.66851 0.95585 0.65235 0.0
S1874 S 0.58694 0.02972 0.67541 0.0
N1875 N 0.60803 0.02151 0.69559 0.0
N1876 N 0.59694 0.01306 0.65393 0.0
C1877 C 0.61886 1.00021 0.66265 0.0
C1878 C 0.62501 0.00493 0.68519 0.0
C1879 C 0.07867 0.6512 0.68643 0.0
C1880 C 0.08982 0.68554 0.69696 0.0
C1881 C 0.07754 0.64899 0.66403 0.0
C1882 C 0.08804 0.68114 0.6513 0.0
H1883 H 0.07412 0.62671 0.6955 0.0
H1884 H 0.07188 0.62273 0.65666 0.0
S1885 S 0.11677 0.77707 0.67113 0.0
N1886 N 0.10855 0.75163 0.69305 0.0
N1887 N 0.10719 0.74762 0.65094 0.0
C1888 C 0.09603 0.71482 0.66162 0.0
C1889 C 0.09678 0.71698 0.68449 0.0
C1890 C 0.87656 0.12709 0.11147 0.0
C1891 C 0.84496 0.11867 0.0988 0.0
C1892 C 0.909 0.16299 0.11069 0.0
C1893 C 0.91189 0.1907 0.09624 0.0
H1894 H 0.87598 0.10609 0.12227 0.0
H1895 H 0.93222 0.16898 0.12136 0.0
S1896 S 0.83516 0.18428 0.06181 0.0
N1897 N 0.81635 0.14284 0.07385 0.0
N1898 N 0.87902 0.20882 0.07078 0.0
C1899 C 0.87983 0.18338 0.0844 0.0
C1900 C 0.84601 0.14761 0.08604 0.0
C1901 C 0.89825 0.73903 0.07734 0.0
C1902 C 0.92803 0.76667 0.0897 0.0
C1903 C 0.86161 0.73331 0.07911 0.0
C1904 C 0.85417 0.75575 0.0929 0.0
H1905 H 0.90317 0.72114 0.06665 0.0
H1906 H 0.8392 0.71179 0.0694 0.0
S1907 S 0.92052 0.82606 0.13177 0.0
N1908 N 0.94632 0.81226 0.11851 0.0
N1909 N 0.8778 0.80272 0.12115 0.0
C1910 C 0.88333 0.78243 0.10588 0.0
C1911 C 0.92034 0.78777 0.10436 0.0
C1912 C 0.33064 0.16391 0.08652 0.0
C1913 C 0.30388 0.13493 0.09954 0.0
C1914 C 0.33057 0.19791 0.08436 0.0
C1915 C 0.3041 0.2035 0.09547 0.0
H1916 H 0.35081 0.15975 0.07748 0.0
H1917 H 0.35056 0.21944 0.07369 0.0
S1918 S 0.23522 0.14014 0.13562 0.0
N1919 N 0.25517 0.11651 0.12642 0.0
N1920 N 0.25503 0.1805 0.12247 0.0
C1921 C 0.2792 0.17584 0.10969 0.0
C1922 C 0.27911 0.14137 0.11174 0.0
C1923 C 0.17655 0.92711 0.91372 0.0
C1924 C 0.2029 0.92735 0.92823 0.0
C1925 C 0.1409 0.89533 0.91146 0.0
C1926 C 0.13177 0.86228 0.92268 0.0
H1927 H 0.18361 0.95158 0.90395 0.0
H1928 H 0.12073 0.89635 0.90059 0.0
S1929 S 0.19393 0.84636 0.95924 0.0
N1930 N 0.21938 0.89117 0.95224 0.0
N1931 N 0.15319 0.82966 0.94648 0.0
C1932 C 0.15915 0.86101 0.9357 0.0
C1933 C 0.19474 0.89404 0.93881 0.0
C1934 C 0.2217 0.33188 0.92593 0.0
C1935 C 0.22417 0.30484 0.91313 0.0
C1936 C 0.18803 0.33314 0.92708 0.0
C1937 C 0.15676 0.30906 0.91441 0.0
H1938 H 0.24526 0.3507 0.93603 0.0
H1939 H 0.18627 0.35252 0.93815 0.0
S1940 S 0.1556 0.24596 0.87153 0.0
N1941 N 0.19612 0.26012 0.88408 0.0
N1942 N 0.13497 0.26646 0.88394 0.0
C1943 C 0.16102 0.28599 0.89934 0.0
C1944 C 0.1943 0.28295 0.89918 0.0
C1945 C 0.73096 0.86704 0.93578 0.0
C1946 C 0.75559 0.85882 0.92459 0.0
C1947 C 0.73464 0.90292 0.93429 0.0
C1948 C 0.76415 0.93172 0.9224 0.0
H1949 H 0.70911 0.84585 0.94582 0.0
H1950 H 0.71548 0.90873 0.94323 0.0
S1951 S 0.82784 0.92052 0.88527 0.0
N1952 N 0.80342 0.87894 0.89696 0.0
N1953 N 0.81329 0.9477 0.89618 0.0
C1954 C 0.78715 0.92298 0.91007 0.0
C1955 C 0.78214 0.88608 0.91071 0.0
C1956 C 0.54204 0.46477 0.43763 0.0
C1957 C 0.51488 0.46296 0.42312 0.0
C1958 C 0.57717 0.49748 0.43968 0.0
C1959 C 0.58529 0.53 0.42814 0.0
H1960 H 0.53605 0.44072 0.44754 0.0
H1961 H 0.5979 0.49746 0.45052 0.0
S1962 S 0.52136 0.54158 0.39071 0.0
N1963 N 0.4969 0.49707 0.39846 0.0
N1964 N 0.56224 0.56002 0.4035 0.0
C1965 C 0.55719 0.52963 0.41496 0.0
C1966 C 0.522 0.49569 0.41218 0.0
C1967 C 0.56147 0.07074 0.42253 0.0
C1968 C 0.59105 0.09699 0.4356 0.0
C1969 C 0.52683 0.06989 0.42175 0.0
C1970 C 0.5204 0.09381 0.43488 0.0
H1971 H 0.56589 0.05225 0.41205 0.0
H1972 H 0.50514 0.05069 0.41078 0.0
S1973 S 0.58327 0.15526 0.47808 0.0
N1974 N 0.60897 0.14095 0.46516 0.0
N1975 N 0.54192 0.13551 0.46573 0.0
C1976 C 0.54793 0.11626 0.45004 0.0
C1977 C 0.58385 0.11875 0.44995 0.0
C1978 C 1.0002 0.49943 0.41152 0.0
C1979 C 0.97484 0.46574 0.42184 0.0
C1980 C 0.99803 0.53225 0.41465 0.0
C1981 C 0.96926 0.53147 0.4273 0.0
H1982 H 0.02142 0.50028 0.40088 0.0
H1983 H 0.01766 0.55781 0.4063 0.0
S1984 S 0.90474 0.45409 0.46294 0.0
N1985 N 0.92768 0.43684 0.44976 0.0
N1986 N 0.92038 0.49702 0.45345 0.0
C1987 C 0.94572 0.49882 0.43885 0.0
C1988 C 0.9493 0.46622 0.43661 0.0
C1989 C 0.84113 0.2106 0.26627 0.0
C1990 C 0.80981 0.20135 0.25315 0.0
C1991 C 0.87421 0.24575 0.26424 0.0
C1992 C 0.87569 0.27311 0.25 0.0
H1993 H 0.8399 0.19085 0.27823 0.0
H1994 H 0.89818 0.25219 0.27443 0.0
S1995 S 0.80631 0.25746 0.2076 0.0
N1996 N 0.78659 0.21785 0.22151 0.0
N1997 N 0.84678 0.28578 0.21967 0.0
C1998 C 0.84562 0.2631 0.23587 0.0
C1999 C 0.81302 0.22667 0.23704 0.0
C2000 C 0.83725 0.61238 0.24481 0.0
C2001 C 0.86495 0.63813 0.25887 0.0
C2002 C 0.80136 0.60826 0.24419 0.0
C2003 C 0.7931 0.63146 0.25673 0.0
H2004 H 0.8434 0.59533 0.23417 0.0
H2005 H 0.78027 0.58748 0.23352 0.0
S2006 S 0.85783 0.707 0.29383 0.0
N2007 N 0.88306 0.68883 0.2845 0.0
N2008 N 0.81613 0.68364 0.28197 0.0
C2009 C 0.82152 0.65948 0.2696 0.0
C2010 C 0.85751 0.66232 0.27098 0.0
C2011 C 0.39137 0.22849 0.26795 0.0
C2012 C 0.4174 0.2604 0.25648 0.0
C2013 C 0.39362 0.19543 0.26767 0.0
C2014 C 0.42304 0.19439 0.25673 0.0
H2015 H 0.36948 0.22923 0.27727 0.0
H2016 H 0.37355 0.17131 0.2769 0.0
S2017 S 0.48993 0.26595 0.21904 0.0
N2018 N 0.46629 0.28509 0.22937 0.0
N2019 N 0.47357 0.22469 0.23093 0.0
C2020 C 0.44739 0.22511 0.24405 0.0
C2021 C 0.44386 0.25785 0.24347 0.0
C2022 C 0.24028 0.86363 0.7546 0.0
C2023 C 0.26798 0.86368 0.76802 0.0
C2024 C 0.20589 0.83037 0.75119 0.0
C2025 C 0.19788 0.79728 0.76209 0.0
H2026 H 0.24605 0.88887 0.7459 0.0
H2027 H 0.18568 0.83043 0.73996 0.0
S2028 S 0.25492 0.78852 0.80555 0.0
N2029 N 0.28221 0.83109 0.79562 0.0
N2030 N 0.21532 0.77008 0.79152 0.0
C2031 C 0.22336 0.79871 0.77769 0.0
C2032 C 0.25911 0.83171 0.78015 0.0
C2033 C 0.22784 0.38868 0.74985 0.0
C2034 C 0.25749 0.41661 0.76216 0.0
C2035 C 0.19379 0.38898 0.74727 0.0
C2036 C 0.18823 0.41633 0.75757 0.0
H2037 H 0.23179 0.36795 0.74125 0.0
H2038 H 0.17193 0.36805 0.73703 0.0
S2039 S 0.25211 0.48592 0.79766 0.0
N2040 N 0.27648 0.46719 0.78792 0.0
N2041 N 0.211 0.46472 0.78509 0.0
C2042 C 0.216 0.44124 0.77192 0.0
C2043 C 0.25107 0.4421 0.77375 0.0
C2044 C 0.61899 0.81896 0.77396 0.0
C2045 C 0.64295 0.81033 0.76235 0.0
C2046 C 0.62241 0.85462 0.77244 0.0
C2047 C 0.64828 0.88202 0.75837 0.0
H2048 H 0.59781 0.79818 0.78448 0.0
H2049 H 0.60475 0.86085 0.78248 0.0
S2050 S 0.71925 0.87418 0.72568 0.0
N2051 N 0.6959 0.83298 0.73792 0.0
N2052 N 0.70022 0.89934 0.73385 0.0
C2053 C 0.67336 0.87429 0.74728 0.0
C2054 C 0.67106 0.83847 0.74952 0.0
C2055 C 0.52742 0.55726 0.60085 0.0
C2056 C 0.52768 0.58677 0.5891 0.0
C2057 C 0.4942 0.52212 0.60266 0.0
C2058 C 0.46125 0.51521 0.5918 0.0
H2059 H 0.55232 0.56211 0.60967 0.0
H2060 H 0.4941 0.50057 0.61277 0.0
S2061 S 0.45324 0.57801 0.55194 0.0
N2062 N 0.4954 0.60412 0.56279 0.0
N2063 N 0.43481 0.53651 0.56385 0.0
C2064 C 0.46308 0.54277 0.57767 0.0
C2065 C 0.49595 0.57903 0.57683 0.0
C2066 C 0.49844 0.99928 0.60691 0.0
C2067 C 0.46578 0.97552 0.59506 0.0
C2068 C 0.53205 0.99852 0.60366 0.0
C2069 C 0.53312 0.97276 0.58921 0.0
H2070 H 0.49792 0.01826 0.61877 0.0
H2071 H 0.55675 0.01685 0.61316 0.0
S2072 S 0.45922 0.91388 0.54993 0.0
N2073 N 0.44005 0.93357 0.56446 0.0
N2074 N 0.50152 0.92858 0.56029 0.0
C2075 C 0.50151 0.95087 0.57636 0.0
C2076 C 0.46817 0.95313 0.57885 0.0
C2077 C 0.11968 0.58742 0.57543 0.0
C2078 C 0.09391 0.59402 0.58651 0.0
C2079 C 0.11686 0.55208 0.57626 0.0
C2080 C 0.08964 0.52323 0.5891 0.0
H2081 H 0.14163 0.60941 0.56579 0.0
H2082 H 0.13602 0.54724 0.56669 0.0
S2083 S 0.01397 0.52579 0.61979 0.0
N2084 N 0.03799 0.56816 0.60894 0.0
N2085 N 0.03482 0.50224 0.6118 0.0
C2086 C 0.06289 0.52899 0.59963 0.0
C2087 C 0.06461 0.56445 0.59804 0.0
loop_
_geom_bond_atom_site_label_1
_geom_bond_atom_site_label_2
_geom_bond_distance
_geom_bond_site_symmetry_2
_ccdc_geom_bond_type
Mn0 O5 2.095 . S
Mn0 O15 2.162 . S
Mn0 O16 2.297 . S
Mn0 O24 2.385 1_455 S
Mn0 O25 2.209 . S
Mn0 O26 2.094 . S
Mn1 O6 2.121 . S
Mn1 N8 2.257 . S
Mn1 N17 2.282 1_455 S
Mn1 O25 2.215 . S
Mn1 O27 2.117 . S
C2 O24 1.234 . S
C2 O25 1.283 1_655 S
C3 O15 1.281 . S
C3 O16 1.236 . S
C4 O26 1.240 . S
C4 O27 1.264 . S
O5 Mn0 2.095 . S
O5 C14 1.250 . S
O6 Mn1 2.121 . S
O6 C14 1.258 . S
C7 N8 1.326 . S
C7 C11 1.460 . S
C7 H13 0.929 . S
N8 Mn1 2.257 . S
N8 C7 1.326 . S
N8 C12 1.362 1_455 S
C9 C10 1.258 . S
C9 C12 1.431 . S
C9 C29 1.449 . S
C10 C9 1.258 . S
C10 C11 1.477 1_655 S
C10 H30 0.931 . S
C11 C7 1.460 . S
C11 C10 1.477 1_455 S
C11 H31 0.930 . S
C12 N8 1.362 1_655 S
C12 C9 1.431 . S
C12 C22 1.476 . S
H13 C7 0.929 . S
C14 O5 1.250 . S
C14 O6 1.258 . S
O15 Mn0 2.162 . S
O15 C3 1.281 . S
O16 Mn0 2.297 . S
O16 C3 1.236 . S
N17 Mn1 2.282 1_655 S
N17 C18 1.328 . S
N17 C22 1.318 . S
C18 N17 1.328 . S
C18 C19 1.457 . S
C18 H23 0.929 . S
C19 C18 1.457 . S
C19 C20 1.291 . S
C19 H32 0.931 . S
C20 C19 1.291 . S
C20 C21 1.373 . S
C20 H33 0.929 . S
C21 C20 1.373 . S
C21 C22 1.396 . S
C21 C28 1.403 . S
C22 C12 1.476 . S
C22 N17 1.318 . S
C22 C21 1.396 . S
H23 C18 0.929 . S
O24 Mn0 2.385 1_655 S
O24 C2 1.234 . S
O25 Mn0 2.209 . S
O25 Mn1 2.215 . S
O25 C2 1.283 1_455 S
O26 Mn0 2.094 . S
O26 C4 1.240 . S
O27 Mn1 2.117 . S
O27 C4 1.264 . S
C28 C21 1.403 . S
C28 C29 1.399 . S
C28 H34 0.929 . S
C29 C9 1.449 . S
C29 C28 1.399 . S
C29 H35 0.930 . S
H30 C10 0.931 . S
H31 C11 0.930 . S
H32 C19 0.931 . S
H33 C20 0.929 . S
H34 C28 0.929 . S
H35 C29 0.930 . S
Mn36 O41 2.095 . S
Mn36 O51 2.162 . S
Mn36 O52 2.297 . S
Mn36 O60 2.385 . S
Mn36 O61 2.209 . S
Mn36 O62 2.094 . S
Mn37 O42 2.121 . S
Mn37 N44 2.257 . S
Mn37 N53 2.282 . S
Mn37 O61 2.215 . S
Mn37 O63 2.117 . S
C38 O60 1.234 . S
C38 O61 1.283 . S
C39 O51 1.281 . S
C39 O52 1.236 . S
C40 O62 1.240 . S
C40 O63 1.264 . S
O41 Mn36 2.095 . S
O41 C50 1.250 . S
O42 Mn37 2.121 . S
O42 C50 1.258 . S
C43 N44 1.326 . S
C43 C47 1.460 . S
C43 H49 0.929 . S
N44 Mn37 2.257 . S
N44 C43 1.326 . S
N44 C48 1.362 . S
C45 C46 1.258 . S
C45 C48 1.431 . S
C45 C65 1.449 . S
C46 C45 1.258 . S
C46 C47 1.477 . S
C46 H66 0.931 . S
C47 C43 1.460 . S
C47 C46 1.477 . S
C47 H67 0.930 . S
C48 N44 1.362 . S
C48 C45 1.431 . S
C48 C58 1.476 . S
H49 C43 0.929 . S
C50 O41 1.250 . S
C50 O42 1.258 . S
O51 Mn36 2.162 . S
O51 C39 1.281 . S
O52 Mn36 2.297 . S
O52 C39 1.236 . S
N53 Mn37 2.282 . S
N53 C54 1.328 . S
N53 C58 1.318 . S
C54 N53 1.328 . S
C54 C55 1.457 . S
C54 H59 0.929 . S
C55 C54 1.457 . S
C55 C56 1.291 . S
C55 H68 0.931 . S
C56 C55 1.291 . S
C56 C57 1.373 . S
C56 H69 0.929 . S
C57 C56 1.373 . S
C57 C58 1.396 . S
C57 C64 1.403 . S
C58 C48 1.476 . S
C58 N53 1.318 . S
C58 C57 1.396 . S
H59 C54 0.929 . S
O60 Mn36 2.385 . S
O60 C38 1.234 . S
O61 Mn36 2.209 . S
O61 Mn37 2.215 . S
O61 C38 1.283 . S
O62 Mn36 2.094 . S
O62 C40 1.240 . S
O63 Mn37 2.117 . S
O63 C40 1.264 . S
C64 C57 1.403 . S
C64 C65 1.399 . S
C64 H70 0.929 . S
C65 C45 1.449 . S
C65 C64 1.399 . S
C65 H71 0.909 1_655 S
H66 C46 0.931 . S
H67 C47 0.930 . S
H68 C55 0.931 . S
H69 C56 0.929 . S
H70 C64 0.929 . S
H71 C65 0.909 1_455 S
Mn72 O77 2.095 1_545 S
Mn72 O87 2.162 . S
Mn72 O88 2.297 . S
Mn72 O96 2.385 . S
Mn72 O97 2.209 . S
Mn72 O98 2.094 . S
Mn73 O78 2.121 1_545 S
Mn73 N80 2.257 . S
Mn73 N89 2.282 . S
Mn73 O97 2.215 . S
Mn73 O99 2.117 . S
C74 O96 1.234 . S
C74 O97 1.283 . S
C75 O87 1.281 . S
C75 O88 1.236 . S
C76 O98 1.240 . S
C76 O99 1.264 . S
O77 Mn72 2.095 1_565 S
O77 C86 1.250 . S
O78 Mn73 2.121 1_565 S
O78 C86 1.258 . S
C79 N80 1.326 . S
C79 C83 1.460 . S
C79 H85 0.929 1_545 S
N80 Mn73 2.257 . S
N80 C79 1.326 . S
N80 C84 1.362 . S
C81 C82 1.258 . S
C81 C84 1.431 . S
C81 C101 1.449 . S
C82 C81 1.258 . S
C82 C83 1.477 . S
C82 H102 0.931 . S
C83 C79 1.460 . S
C83 C82 1.477 . S
C83 H103 0.930 . S
C84 N80 1.362 . S
C84 C81 1.431 . S
C84 C94 1.476 . S
H85 C79 0.929 1_565 S
C86 O77 1.250 . S
C86 O78 1.258 . S
O87 Mn72 2.162 . S
O87 C75 1.281 . S
O88 Mn72 2.297 . S
O88 C75 1.236 . S
N89 Mn73 2.282 . S
N89 C90 1.328 . S
N89 C94 1.318 . S
C90 N89 1.328 . S
C90 C91 1.457 . S
C90 H95 0.929 . S
C91 C90 1.457 . S
C91 C92 1.291 . S
C91 H104 0.931 . S
C92 C91 1.291 . S
C92 C93 1.373 . S
C92 H105 0.929 . S
C93 C92 1.373 . S
C93 C94 1.396 . S
C93 C100 1.403 . S
C94 C84 1.476 . S
C94 N89 1.318 . S
C94 C93 1.396 . S
H95 C90 0.929 . S
O96 Mn72 2.385 . S
O96 C74 1.234 . S
O97 Mn72 2.209 . S
O97 Mn73 2.215 . S
O97 C74 1.283 . S
O98 Mn72 2.094 . S
O98 C76 1.240 . S
O99 Mn73 2.117 . S
O99 C76 1.264 . S
C100 C93 1.403 . S
C100 C101 1.399 . S
C100 H106 0.929 . S
C101 C81 1.449 . S
C101 C100 1.399 . S
C101 H107 0.930 . S
H102 C82 0.931 . S
H103 C83 0.930 . S
H104 C91 0.931 . S
H105 C92 0.929 . S
H106 C100 0.929 . S
H107 C101 0.930 . S
Mn108 O113 2.095 . S
Mn108 O123 2.162 . S
Mn108 O124 2.297 . S
Mn108 O132 2.385 1_545 S
Mn108 O133 2.209 . S
Mn108 O134 2.094 . S
Mn109 O114 2.121 . S
Mn109 N116 2.257 . S
Mn109 N125 2.282 1_545 S
Mn109 O133 2.215 . S
Mn109 O135 2.117 . S
C110 O132 1.234 . S
C110 O133 1.283 1_565 S
C111 O123 1.281 . S
C111 O124 1.236 . S
C112 O134 1.240 . S
C112 O135 1.264 . S
O113 Mn108 2.095 . S
O113 C122 1.250 . S
O114 Mn109 2.121 . S
O114 C122 1.258 . S
C115 N116 1.326 . S
C115 C119 1.460 . S
C115 H121 0.929 . S
N116 Mn109 2.257 . S
N116 C115 1.326 . S
N116 C120 1.362 1_545 S
C117 C118 1.258 . S
C117 C120 1.431 . S
C117 C137 1.449 . S
C118 C117 1.258 . S
C118 C119 1.477 1_565 S
C118 H138 0.931 . S
C119 C115 1.460 . S
C119 C118 1.477 1_545 S
C119 H139 0.930 . S
C120 N116 1.362 1_565 S
C120 C117 1.431 . S
C120 C130 1.476 . S
H121 C115 0.929 . S
C122 O113 1.250 . S
C122 O114 1.258 . S
O123 Mn108 2.162 . S
O123 C111 1.281 . S
O124 Mn108 2.297 . S
O124 C111 1.236 . S
N125 Mn109 2.282 1_565 S
N125 C126 1.328 . S
N125 C130 1.318 . S
C126 N125 1.328 . S
C126 C127 1.457 . S
C126 H131 0.929 . S
C127 C126 1.457 . S
C127 C128 1.291 . S
C127 H140 0.931 . S
C128 C127 1.291 . S
C128 C129 1.373 . S
C128 H141 0.929 . S
C129 C128 1.373 . S
C129 C130 1.396 . S
C129 C136 1.403 . S
C130 C120 1.476 . S
C130 N125 1.318 . S
C130 C129 1.396 . S
H131 C126 0.929 . S
O132 Mn108 2.385 1_565 S
O132 C110 1.234 . S
O133 Mn108 2.209 . S
O133 Mn109 2.215 . S
O133 C110 1.283 1_545 S
O134 Mn108 2.094 . S
O134 C112 1.240 . S
O135 Mn109 2.117 . S
O135 C112 1.264 . S
C136 C129 1.403 . S
C136 C137 1.399 . S
C136 H142 0.929 . S
C137 C117 1.449 . S
C137 C136 1.399 . S
C137 H143 0.930 . S
H138 C118 0.931 . S
H139 C119 0.930 . S
H140 C127 0.931 . S
H141 C128 0.929 . S
H142 C136 0.929 . S
H143 C137 0.930 . S
Mn144 O149 2.095 1_455 S
Mn144 O159 2.162 . S
Mn144 O160 2.297 . S
Mn144 O168 2.385 . S
Mn144 O169 2.209 . S
Mn144 O170 2.094 . S
Mn145 O150 2.121 1_455 S
Mn145 N152 2.257 . S
Mn145 N161 2.282 . S
Mn145 O169 2.215 . S
Mn145 O171 2.117 . S
C146 O168 1.234 . S
C146 O169 1.283 . S
C147 O159 1.281 . S
C147 O160 1.236 . S
C148 O170 1.240 . S
C148 O171 1.264 . S
O149 Mn144 2.095 1_655 S
O149 C158 1.250 . S
O150 Mn145 2.121 1_655 S
O150 C158 1.258 . S
C151 N152 1.326 . S
C151 C155 1.460 . S
C151 H157 0.929 1_455 S
N152 Mn145 2.257 . S
N152 C151 1.326 . S
N152 C156 1.362 . S
C153 C154 1.258 . S
C153 C156 1.431 . S
C153 C173 1.449 . S
C154 C153 1.258 . S
C154 C155 1.477 . S
C154 H174 0.931 . S
C155 C151 1.460 . S
C155 C154 1.477 . S
C155 H175 0.930 . S
C156 N152 1.362 . S
C156 C153 1.431 . S
C156 C166 1.476 . S
H157 C151 0.929 1_655 S
C158 O149 1.250 . S
C158 O150 1.258 . S
O159 Mn144 2.162 . S
O159 C147 1.281 . S
O160 Mn144 2.297 . S
O160 C147 1.236 . S
N161 Mn145 2.282 . S
N161 C162 1.328 . S
N161 C166 1.318 . S
C162 N161 1.328 . S
C162 C163 1.457 . S
C162 H167 0.929 . S
C163 C162 1.457 . S
C163 C164 1.291 . S
C163 H176 0.931 . S
C164 C163 1.291 . S
C164 C165 1.373 . S
C164 H177 0.929 . S
C165 C164 1.373 . S
C165 C166 1.396 . S
C165 C172 1.403 . S
C166 C156 1.476 . S
C166 N161 1.318 . S
C166 C165 1.396 . S
H167 C162 0.929 . S
O168 Mn144 2.385 . S
O168 C146 1.234 . S
O169 Mn144 2.209 . S
O169 Mn145 2.215 . S
O169 C146 1.283 . S
O170 Mn144 2.094 . S
O170 C148 1.240 . S
O171 Mn145 2.117 . S
O171 C148 1.264 . S
C172 C165 1.403 . S
C172 C173 1.399 . S
C172 H178 0.929 . S
C173 C153 1.449 . S
C173 C172 1.399 . S
C173 H179 0.930 . S
H174 C154 0.931 . S
H175 C155 0.930 . S
H176 C163 0.931 . S
H177 C164 0.929 . S
H178 C172 0.929 . S
H179 C173 0.930 . S
Mn180 O185 2.095 . S
Mn180 O195 2.162 . S
Mn180 O196 2.297 . S
Mn180 O204 2.385 . S
Mn180 O205 2.209 . S
Mn180 O206 2.094 . S
Mn181 O186 2.121 . S
Mn181 N188 2.257 . S
Mn181 N197 2.282 . S
Mn181 O205 2.215 . S
Mn181 O207 2.117 . S
C182 O204 1.234 . S
C182 O205 1.283 . S
C183 O195 1.281 . S
C183 O196 1.236 . S
C184 O206 1.240 . S
C184 O207 1.264 . S
O185 Mn180 2.095 . S
O185 C194 1.250 . S
O186 Mn181 2.121 . S
O186 C194 1.258 . S
C187 N188 1.326 . S
C187 C191 1.460 . S
C187 H193 0.929 . S
N188 Mn181 2.257 . S
N188 C187 1.326 . S
N188 C192 1.362 . S
C189 C190 1.258 . S
C189 C192 1.431 . S
C189 C209 1.449 . S
C190 C189 1.258 . S
C190 C191 1.477 . S
C190 H210 0.931 . S
C191 C187 1.460 . S
C191 C190 1.477 . S
C191 H211 0.930 . S
C192 N188 1.362 . S
C192 C189 1.431 . S
C192 C202 1.476 . S
H193 C187 0.929 . S
C194 O185 1.250 . S
C194 O186 1.258 . S
O195 Mn180 2.162 . S
O195 C183 1.281 . S
O196 Mn180 2.297 . S
O196 C183 1.236 . S
N197 Mn181 2.282 . S
N197 C198 1.328 . S
N197 C202 1.318 . S
C198 N197 1.328 . S
C198 C199 1.457 . S
C198 H203 0.929 . S
C199 C198 1.457 . S
C199 C200 1.291 . S
C199 H212 0.931 . S
C200 C199 1.291 . S
C200 C201 1.373 . S
C200 H213 0.929 . S
C201 C200 1.373 . S
C201 C202 1.396 . S
C201 C208 1.403 . S
C202 C192 1.476 . S
C202 N197 1.318 . S
C202 C201 1.396 . S
H203 C198 0.929 . S
O204 Mn180 2.385 . S
O204 C182 1.234 . S
O205 Mn180 2.209 . S
O205 Mn181 2.215 . S
O205 C182 1.283 . S
O206 Mn180 2.094 . S
O206 C184 1.240 . S
O207 Mn181 2.117 . S
O207 C184 1.264 . S
C208 C201 1.403 . S
C208 C209 1.399 . S
C208 H214 0.929 . S
C209 C189 1.449 . S
C209 C208 1.399 . S
C209 H215 0.909 1_565 S
H210 C190 0.931 . S
H211 C191 0.930 . S
H212 C199 0.931 . S
H213 C200 0.929 . S
H214 C208 0.929 . S
H215 C209 0.909 1_545 S
Mn216 O221 2.095 1_455 S
Mn216 O231 2.162 . S
Mn216 O232 2.297 . S
Mn216 O240 2.385 . S
Mn216 O241 2.209 . S
Mn216 O242 2.094 . S
Mn217 O222 2.121 1_455 S
Mn217 N224 2.257 . S
Mn217 N233 2.282 . S
Mn217 O241 2.215 . S
Mn217 O243 2.117 . S
C218 O240 1.234 . S
C218 O241 1.283 . S
C219 O231 1.281 . S
C219 O232 1.236 . S
C220 O242 1.240 . S
C220 O243 1.264 . S
O221 Mn216 2.095 1_655 S
O221 C230 1.250 . S
O222 Mn217 2.121 1_655 S
O222 C230 1.258 . S
C223 N224 1.326 . S
C223 C227 1.460 . S
C223 H229 0.929 1_455 S
N224 Mn217 2.257 . S
N224 C223 1.326 . S
N224 C228 1.362 . S
C225 C226 1.258 . S
C225 C228 1.431 . S
C225 C245 1.449 . S
C226 C225 1.258 . S
C226 C227 1.477 . S
C226 H246 0.931 . S
C227 C223 1.460 . S
C227 C226 1.477 . S
C227 H247 0.930 . S
C228 N224 1.362 . S
C228 C225 1.431 . S
C228 C238 1.476 . S
H229 C223 0.929 1_655 S
C230 O221 1.250 . S
C230 O222 1.258 . S
O231 Mn216 2.162 . S
O231 C219 1.281 . S
O232 Mn216 2.297 . S
O232 C219 1.236 . S
N233 Mn217 2.282 . S
N233 C234 1.328 . S
N233 C238 1.318 . S
C234 N233 1.328 . S
C234 C235 1.457 . S
C234 H239 0.929 . S
C235 C234 1.457 . S
C235 C236 1.291 . S
C235 H248 0.931 . S
C236 C235 1.291 . S
C236 C237 1.373 . S
C236 H249 0.929 . S
C237 C236 1.373 . S
C237 C238 1.396 . S
C237 C244 1.403 . S
C238 C228 1.476 . S
C238 N233 1.318 . S
C238 C237 1.396 . S
H239 C234 0.929 . S
O240 Mn216 2.385 . S
O240 C218 1.234 . S
O241 Mn216 2.209 . S
O241 Mn217 2.215 . S
O241 C218 1.283 . S
O242 Mn216 2.094 . S
O242 C220 1.240 . S
O243 Mn217 2.117 . S
O243 C220 1.264 . S
C244 C237 1.403 . S
C244 C245 1.399 . S
C244 H250 0.929 . S
C245 C225 1.449 . S
C245 C244 1.399 . S
C245 H251 0.901 1_565 S
H246 C226 0.931 . S
H247 C227 0.930 . S
H248 C235 0.931 . S
H249 C236 0.929 . S
H250 C244 0.929 . S
H251 C245 0.901 1_545 S
Mn252 O257 2.095 . S
Mn252 O267 2.162 . S
Mn252 O268 2.297 . S
Mn252 O276 2.385 . S
Mn252 O277 2.209 . S
Mn252 O278 2.094 . S
Mn253 O258 2.121 . S
Mn253 N260 2.257 . S
Mn253 N269 2.282 . S
Mn253 O277 2.215 . S
Mn253 O279 2.117 . S
C254 O276 1.234 . S
C254 O277 1.283 . S
C255 O267 1.281 . S
C255 O268 1.236 . S
C256 O278 1.240 . S
C256 O279 1.264 . S
O257 Mn252 2.095 . S
O257 C266 1.250 . S
O258 Mn253 2.121 . S
O258 C266 1.258 . S
C259 N260 1.326 . S
C259 C263 1.460 . S
C259 H265 0.929 . S
N260 Mn253 2.257 . S
N260 C259 1.326 . S
N260 C264 1.362 . S
C261 C262 1.258 . S
C261 C264 1.431 . S
C261 C281 1.449 . S
C262 C261 1.258 . S
C262 C263 1.477 . S
C262 H282 0.931 . S
C263 C259 1.460 . S
C263 C262 1.477 . S
C263 H283 0.930 . S
C264 N260 1.362 . S
C264 C261 1.431 . S
C264 C274 1.476 . S
H265 C259 0.929 . S
C266 O257 1.250 . S
C266 O258 1.258 . S
O267 Mn252 2.162 . S
O267 C255 1.281 . S
O268 Mn252 2.297 . S
O268 C255 1.236 . S
N269 Mn253 2.282 . S
N269 C270 1.328 . S
N269 C274 1.318 . S
C270 N269 1.328 . S
C270 C271 1.457 . S
C270 H275 0.929 . S
C271 C270 1.457 . S
C271 C272 1.291 . S
C271 H284 0.931 . S
C272 C271 1.291 . S
C272 C273 1.373 . S
C272 H285 0.929 . S
C273 C272 1.373 . S
C273 C274 1.396 . S
C273 C280 1.403 . S
C274 C264 1.476 . S
C274 N269 1.318 . S
C274 C273 1.396 . S
H275 C270 0.929 . S
O276 Mn252 2.385 . S
O276 C254 1.234 . S
O277 Mn252 2.209 . S
O277 Mn253 2.215 . S
O277 C254 1.283 . S
O278 Mn252 2.094 . S
O278 C256 1.240 . S
O279 Mn253 2.117 . S
O279 C256 1.264 . S
C280 C273 1.403 . S
C280 C281 1.399 . S
C280 H286 0.929 . S
C281 C261 1.449 . S
C281 C280 1.399 . S
C281 H287 0.930 . S
H282 C262 0.931 . S
H283 C263 0.930 . S
H284 C271 0.931 . S
H285 C272 0.929 . S
H286 C280 0.929 . S
H287 C281 0.930 . S
Mn288 O293 2.095 . S
Mn288 O303 2.162 . S
Mn288 O304 2.297 . S
Mn288 O312 2.385 1_545 S
Mn288 O313 2.209 . S
Mn288 O314 2.094 . S
Mn289 O294 2.121 . S
Mn289 N296 2.257 . S
Mn289 N305 2.282 1_545 S
Mn289 O313 2.215 . S
Mn289 O315 2.117 . S
C290 O312 1.234 . S
C290 O313 1.283 1_565 S
C291 O303 1.281 . S
C291 O304 1.236 . S
C292 O314 1.240 . S
C292 O315 1.264 . S
O293 Mn288 2.095 . S
O293 C302 1.250 . S
O294 Mn289 2.121 . S
O294 C302 1.258 . S
C295 N296 1.326 . S
C295 C299 1.460 . S
C295 H301 0.929 . S
N296 Mn289 2.257 . S
N296 C295 1.326 . S
N296 C300 1.362 1_545 S
C297 C298 1.258 . S
C297 C300 1.431 . S
C297 C317 1.449 . S
C298 C297 1.258 . S
C298 C299 1.477 1_565 S
C298 H318 0.931 . S
C299 C295 1.460 . S
C299 C298 1.477 1_545 S
C299 H319 0.930 . S
C300 N296 1.362 1_565 S
C300 C297 1.431 . S
C300 C310 1.476 . S
H301 C295 0.929 . S
C302 O293 1.250 . S
C302 O294 1.258 . S
O303 Mn288 2.162 . S
O303 C291 1.281 . S
O304 Mn288 2.297 . S
O304 C291 1.236 . S
N305 Mn289 2.282 1_565 S
N305 C306 1.328 . S
N305 C310 1.318 . S
C306 N305 1.328 . S
C306 C307 1.457 . S
C306 H311 0.929 . S
C307 C306 1.457 . S
C307 C308 1.291 . S
C307 H320 0.931 . S
C308 C307 1.291 . S
C308 C309 1.373 . S
C308 H321 0.929 . S
C309 C308 1.373 . S
C309 C310 1.396 . S
C309 C316 1.403 . S
C310 C300 1.476 . S
C310 N305 1.318 . S
C310 C309 1.396 . S
H311 C306 0.929 . S
O312 Mn288 2.385 1_565 S
O312 C290 1.234 . S
O313 Mn288 2.209 . S
O313 Mn289 2.215 . S
O313 C290 1.283 1_545 S
O314 Mn288 2.094 . S
O314 C292 1.240 . S
O315 Mn289 2.117 . S
O315 C292 1.264 . S
C316 C309 1.403 . S
C316 C317 1.399 . S
C316 H322 0.929 . S
C317 C297 1.449 . S
C317 C316 1.399 . S
C317 H323 0.930 . S
H318 C298 0.931 . S
H319 C299 0.930 . S
H320 C307 0.931 . S
H321 C308 0.929 . S
H322 C316 0.929 . S
H323 C317 0.930 . S
Mn324 O329 2.095 1_545 S
Mn324 O339 2.162 . S
Mn324 O340 2.297 . S
Mn324 O348 2.385 . S
Mn324 O349 2.209 . S
Mn324 O350 2.094 . S
Mn325 O330 2.121 1_545 S
Mn325 N332 2.257 . S
Mn325 N341 2.282 . S
Mn325 O349 2.215 . S
Mn325 O351 2.117 . S
C326 O348 1.234 . S
C326 O349 1.283 . S
C327 O339 1.281 . S
C327 O340 1.236 . S
C328 O350 1.240 . S
C328 O351 1.264 . S
O329 Mn324 2.095 1_565 S
O329 C338 1.250 . S
O330 Mn325 2.121 1_565 S
O330 C338 1.258 . S
C331 N332 1.326 . S
C331 C335 1.460 . S
C331 H337 0.929 1_545 S
N332 Mn325 2.257 . S
N332 C331 1.326 . S
N332 C336 1.362 . S
C333 C334 1.258 . S
C333 C336 1.431 . S
C333 C353 1.449 . S
C334 C333 1.258 . S
C334 C335 1.477 . S
C334 H354 0.931 . S
C335 C331 1.460 . S
C335 C334 1.477 . S
C335 H355 0.930 . S
C336 N332 1.362 . S
C336 C333 1.431 . S
C336 C346 1.476 . S
H337 C331 0.929 1_565 S
C338 O329 1.250 . S
C338 O330 1.258 . S
O339 Mn324 2.162 . S
O339 C327 1.281 . S
O340 Mn324 2.297 . S
O340 C327 1.236 . S
N341 Mn325 2.282 . S
N341 C342 1.328 . S
N341 C346 1.318 . S
C342 N341 1.328 . S
C342 C343 1.457 . S
C342 H347 0.929 . S
C343 C342 1.457 . S
C343 C344 1.291 . S
C343 H356 0.931 . S
C344 C343 1.291 . S
C344 C345 1.373 . S
C344 H357 0.929 . S
C345 C344 1.373 . S
C345 C346 1.396 . S
C345 C352 1.403 . S
C346 C336 1.476 . S
C346 N341 1.318 . S
C346 C345 1.396 . S
H347 C342 0.929 . S
O348 Mn324 2.385 . S
O348 C326 1.234 . S
O349 Mn324 2.209 . S
O349 Mn325 2.215 . S
O349 C326 1.283 . S
O350 Mn324 2.094 . S
O350 C328 1.240 . S
O351 Mn325 2.117 . S
O351 C328 1.264 . S
C352 C345 1.403 . S
C352 C353 1.399 . S
C352 H358 0.929 . S
C353 C333 1.449 . S
C353 C352 1.399 . S
C353 H359 0.901 1_655 S
H354 C334 0.931 . S
H355 C335 0.930 . S
H356 C343 0.931 . S
H357 C344 0.929 . S
H358 C352 0.929 . S
H359 C353 0.901 1_455 S
Mn360 O365 2.095 . S
Mn360 O375 2.162 . S
Mn360 O376 2.297 . S
Mn360 O384 2.385 1_455 S
Mn360 O385 2.209 . S
Mn360 O386 2.094 . S
Mn361 O366 2.121 . S
Mn361 N368 2.257 . S
Mn361 N377 2.282 1_455 S
Mn361 O385 2.215 . S
Mn361 O387 2.117 . S
C362 O384 1.234 . S
C362 O385 1.283 1_655 S
C363 O375 1.281 . S
C363 O376 1.236 . S
C364 O386 1.240 . S
C364 O387 1.264 . S
O365 Mn360 2.095 . S
O365 C374 1.250 . S
O366 Mn361 2.121 . S
O366 C374 1.258 . S
C367 N368 1.326 . S
C367 C371 1.460 . S
C367 H373 0.929 . S
N368 Mn361 2.257 . S
N368 C367 1.326 . S
N368 C372 1.362 1_455 S
C369 C370 1.258 . S
C369 C372 1.431 . S
C369 C389 1.449 . S
C370 C369 1.258 . S
C370 C371 1.477 1_655 S
C370 H390 0.931 . S
C371 C367 1.460 . S
C371 C370 1.477 1_455 S
C371 H391 0.930 . S
C372 N368 1.362 1_655 S
C372 C369 1.431 . S
C372 C382 1.476 . S
H373 C367 0.929 . S
C374 O365 1.250 . S
C374 O366 1.258 . S
O375 Mn360 2.162 . S
O375 C363 1.281 . S
O376 Mn360 2.297 . S
O376 C363 1.236 . S
N377 Mn361 2.282 1_655 S
N377 C378 1.328 . S
N377 C382 1.318 . S
C378 N377 1.328 . S
C378 C379 1.457 . S
C378 H383 0.929 . S
C379 C378 1.457 . S
C379 C380 1.291 . S
C379 H392 0.931 . S
C380 C379 1.291 . S
C380 C381 1.373 . S
C380 H393 0.929 . S
C381 C380 1.373 . S
C381 C382 1.396 . S
C381 C388 1.403 . S
C382 C372 1.476 . S
C382 N377 1.318 . S
C382 C381 1.396 . S
H383 C378 0.929 . S
O384 Mn360 2.385 1_655 S
O384 C362 1.234 . S
O385 Mn360 2.209 . S
O385 Mn361 2.215 . S
O385 C362 1.283 1_455 S
O386 Mn360 2.094 . S
O386 C364 1.240 . S
O387 Mn361 2.117 . S
O387 C364 1.264 . S
C388 C381 1.403 . S
C388 C389 1.399 . S
C388 H394 0.929 . S
C389 C369 1.449 . S
C389 C388 1.399 . S
C389 H395 0.930 . S
H390 C370 0.931 . S
H391 C371 0.930 . S
H392 C379 0.931 . S
H393 C380 0.929 . S
H394 C388 0.929 . S
H395 C389 0.930 . S
Mn396 O401 2.095 . S
Mn396 O411 2.162 . S
Mn396 O412 2.297 . S
Mn396 O420 2.385 . S
Mn396 O421 2.209 . S
Mn396 O422 2.094 . S
Mn397 O402 2.121 . S
Mn397 N404 2.257 . S
Mn397 N413 2.282 . S
Mn397 O421 2.215 . S
Mn397 O423 2.117 . S
C398 O420 1.234 . S
C398 O421 1.283 . S
C399 O411 1.281 . S
C399 O412 1.236 . S
C400 O422 1.240 . S
C400 O423 1.264 . S
O401 Mn396 2.095 . S
O401 C410 1.250 . S
O402 Mn397 2.121 . S
O402 C410 1.258 . S
C403 N404 1.326 . S
C403 C407 1.460 . S
C403 H409 0.929 . S
N404 Mn397 2.257 . S
N404 C403 1.326 . S
N404 C408 1.362 . S
C405 C406 1.258 . S
C405 C408 1.431 . S
C405 C425 1.449 . S
C406 C405 1.258 . S
C406 C407 1.477 . S
C406 H426 0.931 . S
C407 C403 1.460 . S
C407 C406 1.477 . S
C407 H427 0.930 . S
C408 N404 1.362 . S
C408 C405 1.431 . S
C408 C418 1.476 . S
H409 C403 0.929 . S
C410 O401 1.250 . S
C410 O402 1.258 . S
O411 Mn396 2.162 . S
O411 C399 1.281 . S
O412 Mn396 2.297 . S
O412 C399 1.236 . S
N413 Mn397 2.282 . S
N413 C414 1.328 . S
N413 C418 1.318 . S
C414 N413 1.328 . S
C414 C415 1.457 . S
C414 H419 0.929 . S
C415 C414 1.457 . S
C415 C416 1.291 . S
C415 H428 0.931 . S
C416 C415 1.291 . S
C416 C417 1.373 . S
C416 H429 0.929 . S
C417 C416 1.373 . S
C417 C418 1.396 . S
C417 C424 1.403 . S
C418 C408 1.476 . S
C418 N413 1.318 . S
C418 C417 1.396 . S
H419 C414 0.929 . S
O420 Mn396 2.385 . S
O420 C398 1.234 . S
O421 Mn396 2.209 . S
O421 Mn397 2.215 . S
O421 C398 1.283 . S
O422 Mn396 2.094 . S
O422 C400 1.240 . S
O423 Mn397 2.117 . S
O423 C400 1.264 . S
C424 C417 1.403 . S
C424 C425 1.399 . S
C424 H430 0.929 . S
C425 C405 1.449 . S
C425 C424 1.399 . S
C425 H431 0.930 . S
H426 C406 0.931 . S
H427 C407 0.930 . S
H428 C415 0.931 . S
H429 C416 0.929 . S
H430 C424 0.929 . S
H431 C425 0.930 . S
Mn432 O437 2.095 . S
Mn432 O447 2.162 . S
Mn432 O448 2.297 . S
Mn432 O456 2.385 . S
Mn432 O457 2.209 . S
Mn432 O458 2.094 . S
Mn433 O438 2.121 . S
Mn433 N440 2.257 . S
Mn433 N449 2.282 . S
Mn433 O457 2.215 . S
Mn433 O459 2.117 . S
C434 O456 1.234 . S
C434 O457 1.283 . S
C435 O447 1.281 . S
C435 O448 1.236 . S
C436 O458 1.240 . S
C436 O459 1.264 . S
O437 Mn432 2.095 . S
O437 C446 1.250 . S
O438 Mn433 2.121 . S
O438 C446 1.258 . S
C439 N440 1.326 . S
C439 C443 1.460 . S
C439 H445 0.929 . S
N440 Mn433 2.257 . S
N440 C439 1.326 . S
N440 C444 1.362 . S
C441 C442 1.258 . S
C441 C444 1.431 . S
C441 C461 1.449 . S
C442 C441 1.258 . S
C442 C443 1.477 . S
C442 H462 0.931 . S
C443 C439 1.460 . S
C443 C442 1.477 . S
C443 H463 0.930 . S
C444 N440 1.362 . S
C444 C441 1.431 . S
C444 C454 1.476 . S
H445 C439 0.929 . S
C446 O437 1.250 . S
C446 O438 1.258 . S
O447 Mn432 2.162 . S
O447 C435 1.281 . S
O448 Mn432 2.297 . S
O448 C435 1.236 . S
N449 Mn433 2.282 . S
N449 C450 1.328 . S
N449 C454 1.318 . S
C450 N449 1.328 . S
C450 C451 1.457 . S
C450 H455 0.929 . S
C451 C450 1.457 . S
C451 C452 1.291 . S
C451 H464 0.931 . S
C452 C451 1.291 . S
C452 C453 1.373 . S
C452 H465 0.929 . S
C453 C452 1.373 . S
C453 C454 1.396 . S
C453 C460 1.403 . S
C454 C444 1.476 . S
C454 N449 1.318 . S
C454 C453 1.396 . S
H455 C450 0.929 . S
O456 Mn432 2.385 . S
O456 C434 1.234 . S
O457 Mn432 2.209 . S
O457 Mn433 2.215 . S
O457 C434 1.283 . S
O458 Mn432 2.094 . S
O458 C436 1.240 . S
O459 Mn433 2.117 . S
O459 C436 1.264 . S
C460 C453 1.403 . S
C460 C461 1.399 . S
C460 H466 0.929 . S
C461 C441 1.449 . S
C461 C460 1.399 . S
C461 H467 0.930 . S
H462 C442 0.931 . S
H463 C443 0.930 . S
H464 C451 0.931 . S
H465 C452 0.929 . S
H466 C460 0.929 . S
H467 C461 0.930 . S
Mn468 O473 2.095 . S
Mn468 O483 2.162 . S
Mn468 O484 2.297 . S
Mn468 O492 2.385 . S
Mn468 O493 2.209 . S
Mn468 O494 2.094 . S
Mn469 O474 2.121 . S
Mn469 N476 2.257 . S
Mn469 N485 2.282 . S
Mn469 O493 2.215 . S
Mn469 O495 2.117 . S
C470 O492 1.234 . S
C470 O493 1.283 . S
C471 O483 1.281 . S
C471 O484 1.236 . S
C472 O494 1.240 . S
C472 O495 1.264 . S
O473 Mn468 2.095 . S
O473 C482 1.250 . S
O474 Mn469 2.121 . S
O474 C482 1.258 . S
C475 N476 1.326 . S
C475 C479 1.460 . S
C475 H481 0.929 . S
N476 Mn469 2.257 . S
N476 C475 1.326 . S
N476 C480 1.362 . S
C477 C478 1.258 . S
C477 C480 1.431 . S
C477 C497 1.449 . S
C478 C477 1.258 . S
C478 C479 1.477 . S
C478 H498 0.931 . S
C479 C475 1.460 . S
C479 C478 1.477 . S
C479 H499 0.930 . S
C480 N476 1.362 . S
C480 C477 1.431 . S
C480 C490 1.476 . S
H481 C475 0.929 . S
C482 O473 1.250 . S
C482 O474 1.258 . S
O483 Mn468 2.162 . S
O483 C471 1.281 . S
O484 Mn468 2.297 . S
O484 C471 1.236 . S
N485 Mn469 2.282 . S
N485 C486 1.328 . S
N485 C490 1.318 . S
C486 N485 1.328 . S
C486 C487 1.457 . S
C486 H491 0.929 . S
C487 C486 1.457 . S
C487 C488 1.291 . S
C487 H500 0.931 . S
C488 C487 1.291 . S
C488 C489 1.373 . S
C488 H501 0.929 . S
C489 C488 1.373 . S
C489 C490 1.396 . S
C489 C496 1.403 . S
C490 C480 1.476 . S
C490 N485 1.318 . S
C490 C489 1.396 . S
H491 C486 0.929 . S
O492 Mn468 2.385 . S
O492 C470 1.234 . S
O493 Mn468 2.209 . S
O493 Mn469 2.215 . S
O493 C470 1.283 . S
O494 Mn468 2.094 . S
O494 C472 1.240 . S
O495 Mn469 2.117 . S
O495 C472 1.264 . S
C496 C489 1.403 . S
C496 C497 1.399 . S
C496 H502 0.929 . S
C497 C477 1.449 . S
C497 C496 1.399 . S
C497 H503 0.930 . S
H498 C478 0.931 . S
H499 C479 0.930 . S
H500 C487 0.931 . S
H501 C488 0.929 . S
H502 C496 0.929 . S
H503 C497 0.930 . S
Mn504 O509 2.095 . S
Mn504 O519 2.162 1_655 S
Mn504 O520 2.297 . S
Mn504 O528 2.387 1_655 S
Mn504 O529 2.209 . S
Mn504 O530 2.094 . S
Mn505 O510 2.121 . S
Mn505 N512 2.257 . S
Mn505 N521 2.282 . S
Mn505 O529 2.215 . S
Mn505 O531 2.117 . S
C506 O528 1.219 1_655 S
C506 O529 1.283 . S
C507 O519 1.281 . S
C507 O520 1.236 1_455 S
C508 O530 1.240 . S
C508 O531 1.264 . S
O509 Mn504 2.095 . S
O509 C518 1.250 . S
O510 Mn505 2.121 . S
O510 C518 1.258 . S
C511 N512 1.326 . S
C511 C515 1.460 . S
C511 H517 0.929 . S
N512 Mn505 2.257 . S
N512 C511 1.326 . S
N512 C516 1.362 . S
C513 C514 1.258 . S
C513 C516 1.431 . S
C513 C533 1.449 . S
C514 C513 1.258 . S
C514 C515 1.477 . S
C514 H534 0.931 . S
C515 C511 1.460 . S
C515 C514 1.477 . S
C515 H535 0.930 . S
C516 N512 1.362 . S
C516 C513 1.431 . S
C516 C526 1.476 . S
H517 C511 0.929 . S
C518 O509 1.250 . S
C518 O510 1.258 . S
O519 Mn504 2.162 1_455 S
O519 C507 1.281 . S
O520 Mn504 2.297 . S
O520 C507 1.236 1_655 S
N521 Mn505 2.282 . S
N521 C522 1.328 . S
N521 C526 1.318 . S
C522 N521 1.328 . S
C522 C523 1.457 . S
C522 H527 0.929 . S
C523 C522 1.457 . S
C523 C524 1.291 . S
C523 H536 0.931 . S
C524 C523 1.291 . S
C524 C525 1.373 . S
C524 H537 0.929 . S
C525 C524 1.373 . S
C525 C526 1.396 . S
C525 C532 1.403 . S
C526 C516 1.476 . S
C526 N521 1.318 . S
C526 C525 1.396 . S
H527 C522 0.929 . S
O528 Mn504 2.387 1_455 S
O528 C506 1.219 1_455 S
O529 Mn504 2.209 . S
O529 Mn505 2.215 . S
O529 C506 1.283 . S
O530 Mn504 2.094 . S
O530 C508 1.240 . S
O531 Mn505 2.117 . S
O531 C508 1.264 . S
C532 C525 1.403 . S
C532 C533 1.399 . S
C532 H538 0.929 . S
C533 C513 1.449 . S
C533 C532 1.399 . S
C533 H539 0.930 . S
H534 C514 0.931 . S
H535 C515 0.930 . S
H536 C523 0.931 . S
H537 C524 0.929 . S
H538 C532 0.929 . S
H539 C533 0.930 . S
Mn540 O545 2.095 . S
Mn540 O555 2.162 1_655 S
Mn540 O556 2.297 . S
Mn540 O564 2.385 . S
Mn540 O565 2.209 . S
Mn540 O566 2.094 . S
Mn541 O546 2.121 . S
Mn541 N548 2.257 . S
Mn541 N557 2.282 . S
Mn541 O565 2.215 . S
Mn541 O567 2.117 . S
C542 O564 1.234 . S
C542 O565 1.283 . S
C543 O555 1.278 1_655 S
C543 O556 1.241 . S
C544 O566 1.240 . S
C544 O567 1.264 . S
O545 Mn540 2.095 . S
O545 C554 1.250 . S
O546 Mn541 2.121 . S
O546 C554 1.258 . S
C547 N548 1.326 . S
C547 C551 1.460 . S
C547 H553 0.929 . S
N548 Mn541 2.257 . S
N548 C547 1.326 . S
N548 C552 1.362 . S
C549 C550 1.258 . S
C549 C552 1.431 . S
C549 C569 1.449 . S
C550 C549 1.258 . S
C550 C551 1.477 . S
C550 H570 0.931 . S
C551 C547 1.460 . S
C551 C550 1.477 . S
C551 H571 0.930 . S
C552 N548 1.362 . S
C552 C549 1.431 . S
C552 C562 1.476 . S
H553 C547 0.929 . S
C554 O545 1.250 . S
C554 O546 1.258 . S
O555 Mn540 2.162 1_455 S
O555 C543 1.278 1_455 S
O556 Mn540 2.297 . S
O556 C543 1.241 . S
N557 Mn541 2.282 . S
N557 C558 1.328 . S
N557 C562 1.318 . S
C558 N557 1.328 . S
C558 C559 1.457 . S
C558 H563 0.929 . S
C559 C558 1.457 . S
C559 C560 1.291 . S
C559 H572 0.931 . S
C560 C559 1.291 . S
C560 C561 1.373 . S
C560 H573 0.929 . S
C561 C560 1.373 . S
C561 C562 1.396 . S
C561 C568 1.403 . S
C562 C552 1.476 . S
C562 N557 1.318 . S
C562 C561 1.396 . S
H563 C558 0.929 . S
O564 Mn540 2.385 . S
O564 C542 1.234 . S
O565 Mn540 2.209 . S
O565 Mn541 2.215 . S
O565 C542 1.283 . S
O566 Mn540 2.094 . S
O566 C544 1.240 . S
O567 Mn541 2.117 . S
O567 C544 1.264 . S
C568 C561 1.403 . S
C568 C569 1.399 . S
C568 H574 0.929 . S
C569 C549 1.449 . S
C569 C568 1.399 . S
C569 H575 0.930 . S
H570 C550 0.931 . S
H571 C551 0.930 . S
H572 C559 0.931 . S
H573 C560 0.929 . S
H574 C568 0.929 . S
H575 C569 0.930 . S
Mn576 O581 2.095 . S
Mn576 O591 2.162 . S
Mn576 O592 2.297 . S
Mn576 O600 2.385 . S
Mn576 O601 2.209 . S
Mn576 O602 2.094 . S
Mn577 O582 2.121 . S
Mn577 N584 2.257 . S
Mn577 N593 2.282 . S
Mn577 O601 2.215 . S
Mn577 O603 2.117 . S
C578 O600 1.234 . S
C578 O601 1.283 . S
C579 O591 1.281 . S
C579 O592 1.236 . S
C580 O602 1.240 . S
C580 O603 1.264 . S
O581 Mn576 2.095 . S
O581 C590 1.250 . S
O582 Mn577 2.121 . S
O582 C590 1.258 . S
C583 N584 1.326 . S
C583 C587 1.460 . S
C583 H589 0.929 . S
N584 Mn577 2.257 . S
N584 C583 1.326 . S
N584 C588 1.362 . S
C585 C586 1.258 . S
C585 C588 1.431 . S
C585 C605 1.449 . S
C586 C585 1.258 . S
C586 C587 1.477 . S
C586 H606 0.931 . S
C587 C583 1.460 . S
C587 C586 1.477 . S
C587 H607 0.930 . S
C588 N584 1.362 . S
C588 C585 1.431 . S
C588 C598 1.476 . S
H589 C583 0.929 . S
C590 O581 1.250 . S
C590 O582 1.258 . S
O591 Mn576 2.162 . S
O591 C579 1.281 . S
O592 Mn576 2.297 . S
O592 C579 1.236 . S
N593 Mn577 2.282 . S
N593 C594 1.328 . S
N593 C598 1.318 . S
C594 N593 1.328 . S
C594 C595 1.457 . S
C594 H599 0.929 . S
C595 C594 1.457 . S
C595 C596 1.291 . S
C595 H608 0.931 . S
C596 C595 1.291 . S
C596 C597 1.373 . S
C596 H609 0.929 . S
C597 C596 1.373 . S
C597 C598 1.396 . S
C597 C604 1.403 . S
C598 C588 1.476 . S
C598 N593 1.318 . S
C598 C597 1.396 . S
H599 C594 0.929 . S
O600 Mn576 2.385 . S
O600 C578 1.234 . S
O601 Mn576 2.209 . S
O601 Mn577 2.215 . S
O601 C578 1.283 . S
O602 Mn576 2.094 . S
O602 C580 1.240 . S
O603 Mn577 2.117 . S
O603 C580 1.264 . S
C604 C597 1.403 . S
C604 C605 1.399 . S
C604 H610 0.929 . S
C605 C585 1.449 . S
C605 C604 1.399 . S
C605 H611 0.930 . S
H606 C586 0.931 . S
H607 C587 0.930 . S
H608 C595 0.931 . S
H609 C596 0.929 . S
H610 C604 0.929 . S
H611 C605 0.930 . S
Mn612 O617 2.095 . S
Mn612 O627 2.162 . S
Mn612 O628 2.297 . S
Mn612 O636 2.385 . S
Mn612 O637 2.209 . S
Mn612 O638 2.094 . S
Mn613 O618 2.121 . S
Mn613 N620 2.257 . S
Mn613 N629 2.282 . S
Mn613 O637 2.215 . S
Mn613 O639 2.117 . S
C614 O636 1.234 . S
C614 O637 1.283 . S
C615 O627 1.281 . S
C615 O628 1.236 . S
C616 O638 1.240 . S
C616 O639 1.264 . S
O617 Mn612 2.095 . S
O617 C626 1.250 . S
O618 Mn613 2.121 . S
O618 C626 1.258 . S
C619 N620 1.326 . S
C619 C623 1.460 . S
C619 H625 0.929 . S
N620 Mn613 2.257 . S
N620 C619 1.326 . S
N620 C624 1.362 . S
C621 C622 1.258 . S
C621 C624 1.431 . S
C621 C641 1.449 . S
C622 C621 1.258 . S
C622 C623 1.477 . S
C622 H642 0.931 . S
C623 C619 1.460 . S
C623 C622 1.477 . S
C623 H643 0.930 . S
C624 N620 1.362 . S
C624 C621 1.431 . S
C624 C634 1.476 . S
H625 C619 0.929 . S
C626 O617 1.250 . S
C626 O618 1.258 . S
O627 Mn612 2.162 . S
O627 C615 1.281 . S
O628 Mn612 2.297 . S
O628 C615 1.236 . S
N629 Mn613 2.282 . S
N629 C630 1.328 . S
N629 C634 1.318 . S
C630 N629 1.328 . S
C630 C631 1.457 . S
C630 H635 0.929 . S
C631 C630 1.457 . S
C631 C632 1.291 . S
C631 H644 0.931 . S
C632 C631 1.291 . S
C632 C633 1.373 . S
C632 H645 0.929 . S
C633 C632 1.373 . S
C633 C634 1.396 . S
C633 C640 1.403 . S
C634 C624 1.476 . S
C634 N629 1.318 . S
C634 C633 1.396 . S
H635 C630 0.929 . S
O636 Mn612 2.385 . S
O636 C614 1.234 . S
O637 Mn612 2.209 . S
O637 Mn613 2.215 . S
O637 C614 1.283 . S
O638 Mn612 2.094 . S
O638 C616 1.240 . S
O639 Mn613 2.117 . S
O639 C616 1.264 . S
C640 C633 1.403 . S
C640 C641 1.399 . S
C640 H646 0.929 . S
C641 C621 1.449 . S
C641 C640 1.399 . S
C641 H647 0.930 . S
H642 C622 0.931 . S
H643 C623 0.930 . S
H644 C631 0.931 . S
H645 C632 0.929 . S
H646 C640 0.929 . S
H647 C641 0.930 . S
Mn648 O653 2.095 . S
Mn648 O663 2.162 . S
Mn648 O664 2.297 . S
Mn648 O672 2.385 . S
Mn648 O673 2.209 . S
Mn648 O674 2.094 . S
Mn649 O654 2.121 . S
Mn649 N656 2.257 . S
Mn649 N665 2.282 . S
Mn649 O673 2.215 . S
Mn649 O675 2.117 . S
C650 O672 1.234 . S
C650 O673 1.283 . S
C651 O663 1.281 . S
C651 O664 1.236 . S
C652 O674 1.240 . S
C652 O675 1.264 . S
O653 Mn648 2.095 . S
O653 C662 1.250 . S
O654 Mn649 2.121 . S
O654 C662 1.258 . S
C655 N656 1.326 . S
C655 C659 1.460 . S
C655 H661 0.929 . S
N656 Mn649 2.257 . S
N656 C655 1.326 . S
N656 C660 1.362 . S
C657 C658 1.258 . S
C657 C660 1.431 . S
C657 C677 1.449 . S
C658 C657 1.258 . S
C658 C659 1.477 . S
C658 H678 0.931 . S
C659 C655 1.460 . S
C659 C658 1.477 . S
C659 H679 0.930 . S
C660 N656 1.362 . S
C660 C657 1.431 . S
C660 C670 1.476 . S
H661 C655 0.929 . S
C662 O653 1.250 . S
C662 O654 1.258 . S
O663 Mn648 2.162 . S
O663 C651 1.281 . S
O664 Mn648 2.297 . S
O664 C651 1.236 . S
N665 Mn649 2.282 . S
N665 C666 1.328 . S
N665 C670 1.318 . S
C666 N665 1.328 . S
C666 C667 1.457 . S
C666 H671 0.929 . S
C667 C666 1.457 . S
C667 C668 1.291 . S
C667 H680 0.931 . S
C668 C667 1.291 . S
C668 C669 1.373 . S
C668 H681 0.929 . S
C669 C668 1.373 . S
C669 C670 1.396 . S
C669 C676 1.403 . S
C670 C660 1.476 . S
C670 N665 1.318 . S
C670 C669 1.396 . S
H671 C666 0.929 . S
O672 Mn648 2.385 . S
O672 C650 1.234 . S
O673 Mn648 2.209 . S
O673 Mn649 2.215 . S
O673 C650 1.283 . S
O674 Mn648 2.094 . S
O674 C652 1.240 . S
O675 Mn649 2.117 . S
O675 C652 1.264 . S
C676 C669 1.403 . S
C676 C677 1.399 . S
C676 H682 0.929 . S
C677 C657 1.449 . S
C677 C676 1.399 . S
C677 H683 0.930 . S
H678 C658 0.931 . S
H679 C659 0.930 . S
H680 C667 0.931 . S
H681 C668 0.929 . S
H682 C676 0.929 . S
H683 C677 0.930 . S
Mn684 O689 2.095 . S
Mn684 O699 2.162 1_655 S
Mn684 O700 2.297 . S
Mn684 O708 2.385 . S
Mn684 O709 2.209 . S
Mn684 O710 2.094 . S
Mn685 O690 2.121 . S
Mn685 N692 2.257 . S
Mn685 N701 2.282 . S
Mn685 O709 2.215 . S
Mn685 O711 2.117 . S
C686 O708 1.234 . S
C686 O709 1.283 . S
C687 O699 1.279 1_655 S
C687 O700 1.238 . S
C688 O710 1.240 . S
C688 O711 1.264 . S
O689 Mn684 2.095 . S
O689 C698 1.250 . S
O690 Mn685 2.121 . S
O690 C698 1.258 . S
C691 N692 1.326 . S
C691 C695 1.460 . S
C691 H697 0.929 . S
N692 Mn685 2.257 . S
N692 C691 1.326 . S
N692 C696 1.362 . S
C693 C694 1.258 . S
C693 C696 1.431 . S
C693 C713 1.449 . S
C694 C693 1.258 . S
C694 C695 1.477 . S
C694 H714 0.931 . S
C695 C691 1.460 . S
C695 C694 1.477 . S
C695 H715 0.930 . S
C696 N692 1.362 . S
C696 C693 1.431 . S
C696 C706 1.476 . S
H697 C691 0.929 . S
C698 O689 1.250 . S
C698 O690 1.258 . S
O699 Mn684 2.162 1_455 S
O699 C687 1.279 1_455 S
O700 Mn684 2.297 . S
O700 C687 1.238 . S
N701 Mn685 2.282 . S
N701 C702 1.328 . S
N701 C706 1.318 . S
C702 N701 1.328 . S
C702 C703 1.457 . S
C702 H707 0.929 . S
C703 C702 1.457 . S
C703 C704 1.291 . S
C703 H716 0.931 . S
C704 C703 1.291 . S
C704 C705 1.373 . S
C704 H717 0.929 . S
C705 C704 1.373 . S
C705 C706 1.396 . S
C705 C712 1.403 . S
C706 C696 1.476 . S
C706 N701 1.318 . S
C706 C705 1.396 . S
H707 C702 0.929 . S
O708 Mn684 2.385 . S
O708 C686 1.234 . S
O709 Mn684 2.209 . S
O709 Mn685 2.215 . S
O709 C686 1.283 . S
O710 Mn684 2.094 . S
O710 C688 1.240 . S
O711 Mn685 2.117 . S
O711 C688 1.264 . S
C712 C705 1.403 . S
C712 C713 1.399 . S
C712 H718 0.929 . S
C713 C693 1.449 . S
C713 C712 1.399 . S
C713 H719 0.930 . S
H714 C694 0.931 . S
H715 C695 0.930 . S
H716 C703 0.931 . S
H717 C704 0.929 . S
H718 C712 0.929 . S
H719 C713 0.930 . S
Mn720 O725 2.095 . S
Mn720 O735 2.162 . S
Mn720 O736 2.297 . S
Mn720 O744 2.385 . S
Mn720 O745 2.209 . S
Mn720 O746 2.094 . S
Mn721 O726 2.121 . S
Mn721 N728 2.257 . S
Mn721 N737 2.282 . S
Mn721 O745 2.215 . S
Mn721 O747 2.117 . S
C722 O744 1.234 . S
C722 O745 1.283 . S
C723 O735 1.281 . S
C723 O736 1.236 . S
C724 O746 1.240 . S
C724 O747 1.264 . S
O725 Mn720 2.095 . S
O725 C734 1.250 . S
O726 Mn721 2.121 . S
O726 C734 1.258 . S
C727 N728 1.326 . S
C727 C731 1.460 . S
C727 H733 0.929 . S
N728 Mn721 2.257 . S
N728 C727 1.326 . S
N728 C732 1.362 . S
C729 C730 1.258 . S
C729 C732 1.431 . S
C729 C749 1.449 . S
C730 C729 1.258 . S
C730 C731 1.477 . S
C730 H750 0.931 . S
C731 C727 1.460 . S
C731 C730 1.477 . S
C731 H751 0.930 . S
C732 N728 1.362 . S
C732 C729 1.431 . S
C732 C742 1.476 . S
H733 C727 0.929 . S
C734 O725 1.250 . S
C734 O726 1.258 . S
O735 Mn720 2.162 . S
O735 C723 1.281 . S
O736 Mn720 2.297 . S
O736 C723 1.236 . S
N737 Mn721 2.282 . S
N737 C738 1.328 . S
N737 C742 1.318 . S
C738 N737 1.328 . S
C738 C739 1.457 . S
C738 H743 0.929 . S
C739 C738 1.457 . S
C739 C740 1.291 . S
C739 H752 0.931 . S
C740 C739 1.291 . S
C740 C741 1.373 . S
C740 H753 0.929 . S
C741 C740 1.373 . S
C741 C742 1.396 . S
C741 C748 1.403 . S
C742 C732 1.476 . S
C742 N737 1.318 . S
C742 C741 1.396 . S
H743 C738 0.929 . S
O744 Mn720 2.385 . S
O744 C722 1.234 . S
O745 Mn720 2.209 . S
O745 Mn721 2.215 . S
O745 C722 1.283 . S
O746 Mn720 2.094 . S
O746 C724 1.240 . S
O747 Mn721 2.117 . S
O747 C724 1.264 . S
C748 C741 1.403 . S
C748 C749 1.399 . S
C748 H754 0.929 . S
C749 C729 1.449 . S
C749 C748 1.399 . S
C749 H755 0.930 . S
H750 C730 0.931 . S
H751 C731 0.930 . S
H752 C739 0.931 . S
H753 C740 0.929 . S
H754 C748 0.929 . S
H755 C749 0.930 . S
Mn756 O761 2.095 . S
Mn756 O771 2.162 . S
Mn756 O772 2.297 . S
Mn756 O780 2.385 . S
Mn756 O781 2.209 . S
Mn756 O782 2.094 . S
Mn757 O762 2.121 . S
Mn757 N764 2.257 . S
Mn757 N773 2.282 . S
Mn757 O781 2.215 . S
Mn757 O783 2.117 . S
C758 O780 1.234 . S
C758 O781 1.283 . S
C759 O771 1.281 . S
C759 O772 1.236 . S
C760 O782 1.240 . S
C760 O783 1.264 . S
O761 Mn756 2.095 . S
O761 C770 1.250 . S
O762 Mn757 2.121 . S
O762 C770 1.258 . S
C763 N764 1.326 . S
C763 C767 1.460 . S
C763 H769 0.929 . S
N764 Mn757 2.257 . S
N764 C763 1.326 . S
N764 C768 1.362 . S
C765 C766 1.258 . S
C765 C768 1.431 . S
C765 C785 1.449 . S
C766 C765 1.258 . S
C766 C767 1.477 . S
C766 H786 0.931 . S
C767 C763 1.460 . S
C767 C766 1.477 . S
C767 H787 0.930 . S
C768 N764 1.362 . S
C768 C765 1.431 . S
C768 C778 1.476 . S
H769 C763 0.929 . S
C770 O761 1.250 . S
C770 O762 1.258 . S
O771 Mn756 2.162 . S
O771 C759 1.281 . S
O772 Mn756 2.297 . S
O772 C759 1.236 . S
N773 Mn757 2.282 . S
N773 C774 1.328 . S
N773 C778 1.318 . S
C774 N773 1.328 . S
C774 C775 1.457 . S
C774 H779 0.929 . S
C775 C774 1.457 . S
C775 C776 1.291 . S
C775 H788 0.931 . S
C776 C775 1.291 . S
C776 C777 1.373 . S
C776 H789 0.929 . S
C777 C776 1.373 . S
C777 C778 1.396 . S
C777 C784 1.403 . S
C778 C768 1.476 . S
C778 N773 1.318 . S
C778 C777 1.396 . S
H779 C774 0.929 . S
O780 Mn756 2.385 . S
O780 C758 1.234 . S
O781 Mn756 2.209 . S
O781 Mn757 2.215 . S
O781 C758 1.283 . S
O782 Mn756 2.094 . S
O782 C760 1.240 . S
O783 Mn757 2.117 . S
O783 C760 1.264 . S
C784 C777 1.403 . S
C784 C785 1.399 . S
C784 H790 0.929 . S
C785 C765 1.449 . S
C785 C784 1.399 . S
C785 H791 0.930 . S
H786 C766 0.931 . S
H787 C767 0.930 . S
H788 C775 0.931 . S
H789 C776 0.929 . S
H790 C784 0.929 . S
H791 C785 0.930 . S
Mn792 O797 2.095 . S
Mn792 O807 2.162 . S
Mn792 O808 2.297 . S
Mn792 O816 2.385 . S
Mn792 O817 2.209 . S
Mn792 O818 2.094 . S
Mn793 O798 2.121 . S
Mn793 N800 2.257 . S
Mn793 N809 2.282 . S
Mn793 O817 2.215 . S
Mn793 O819 2.117 . S
C794 O816 1.234 . S
C794 O817 1.283 . S
C795 O807 1.281 . S
C795 O808 1.236 . S
C796 O818 1.240 . S
C796 O819 1.264 . S
O797 Mn792 2.095 . S
O797 C806 1.250 . S
O798 Mn793 2.121 . S
O798 C806 1.258 . S
C799 N800 1.326 . S
C799 C803 1.460 . S
C799 H805 0.929 . S
N800 Mn793 2.257 . S
N800 C799 1.326 . S
N800 C804 1.362 . S
C801 C802 1.258 . S
C801 C804 1.431 . S
C801 C821 1.449 . S
C802 C801 1.258 . S
C802 C803 1.477 . S
C802 H822 0.931 . S
C803 C799 1.460 . S
C803 C802 1.477 . S
C803 H823 0.930 . S
C804 N800 1.362 . S
C804 C801 1.431 . S
C804 C814 1.476 . S
H805 C799 0.929 . S
C806 O797 1.250 . S
C806 O798 1.258 . S
O807 Mn792 2.162 . S
O807 C795 1.281 . S
O808 Mn792 2.297 . S
O808 C795 1.236 . S
N809 Mn793 2.282 . S
N809 C810 1.328 . S
N809 C814 1.318 . S
C810 N809 1.328 . S
C810 C811 1.457 . S
C810 H815 0.929 . S
C811 C810 1.457 . S
C811 C812 1.291 . S
C811 H824 0.931 . S
C812 C811 1.291 . S
C812 C813 1.373 . S
C812 H825 0.929 . S
C813 C812 1.373 . S
C813 C814 1.396 . S
C813 C820 1.403 . S
C814 C804 1.476 . S
C814 N809 1.318 . S
C814 C813 1.396 . S
H815 C810 0.929 . S
O816 Mn792 2.385 . S
O816 C794 1.234 . S
O817 Mn792 2.209 . S
O817 Mn793 2.215 . S
O817 C794 1.283 . S
O818 Mn792 2.094 . S
O818 C796 1.240 . S
O819 Mn793 2.117 . S
O819 C796 1.264 . S
C820 C813 1.403 . S
C820 C821 1.399 . S
C820 H826 0.929 . S
C821 C801 1.449 . S
C821 C820 1.399 . S
C821 H827 0.930 . S
H822 C802 0.931 . S
H823 C803 0.930 . S
H824 C811 0.931 . S
H825 C812 0.929 . S
H826 C820 0.929 . S
H827 C821 0.930 . S
Mn828 O833 2.095 . S
Mn828 O843 2.162 1_655 S
Mn828 O844 2.297 . S
Mn828 O852 2.374 1_655 S
Mn828 O853 2.209 . S
Mn828 O854 2.094 . S
Mn829 O834 2.121 . S
Mn829 N836 2.257 . S
Mn829 N845 2.282 . S
Mn829 O853 2.215 . S
Mn829 O855 2.117 . S
C830 O852 1.224 1_655 S
C830 O853 1.283 . S
C831 O843 1.281 . S
C831 O844 1.236 1_455 S
C832 O854 1.240 . S
C832 O855 1.264 . S
O833 Mn828 2.095 . S
O833 C842 1.250 . S
O834 Mn829 2.121 . S
O834 C842 1.258 . S
C835 N836 1.326 . S
C835 C839 1.460 . S
C835 H841 0.929 . S
N836 Mn829 2.257 . S
N836 C835 1.326 . S
N836 C840 1.362 . S
C837 C838 1.258 . S
C837 C840 1.431 . S
C837 C857 1.449 . S
C838 C837 1.258 . S
C838 C839 1.477 . S
C838 H858 0.931 . S
C839 C835 1.460 . S
C839 C838 1.477 . S
C839 H859 0.930 . S
C840 N836 1.362 . S
C840 C837 1.431 . S
C840 C850 1.476 . S
H841 C835 0.929 . S
C842 O833 1.250 . S
C842 O834 1.258 . S
O843 Mn828 2.162 1_455 S
O843 C831 1.281 . S
O844 Mn828 2.297 . S
O844 C831 1.236 1_655 S
N845 Mn829 2.282 . S
N845 C846 1.328 . S
N845 C850 1.318 . S
C846 N845 1.328 . S
C846 C847 1.457 . S
C846 H851 0.929 . S
C847 C846 1.457 . S
C847 C848 1.291 . S
C847 H860 0.931 . S
C848 C847 1.291 . S
C848 C849 1.373 . S
C848 H861 0.929 . S
C849 C848 1.373 . S
C849 C850 1.396 . S
C849 C856 1.403 . S
C850 C840 1.476 . S
C850 N845 1.318 . S
C850 C849 1.396 . S
H851 C846 0.929 . S
O852 Mn828 2.374 1_455 S
O852 C830 1.224 1_455 S
O853 Mn828 2.209 . S
O853 Mn829 2.215 . S
O853 C830 1.283 . S
O854 Mn828 2.094 . S
O854 C832 1.240 . S
O855 Mn829 2.117 . S
O855 C832 1.264 . S
C856 C849 1.403 . S
C856 C857 1.399 . S
C856 H862 0.929 . S
C857 C837 1.449 . S
C857 C856 1.399 . S
C857 H863 0.930 . S
H858 C838 0.931 . S
H859 C839 0.930 . S
H860 C847 0.931 . S
H861 C848 0.929 . S
H862 C856 0.929 . S
H863 C857 0.930 . S
Mn864 O869 2.095 . S
Mn864 O879 2.162 1_565 S
Mn864 O880 2.297 . S
Mn864 O888 2.385 . S
Mn864 O889 2.209 . S
Mn864 O890 2.094 . S
Mn865 O870 2.121 . S
Mn865 N872 2.257 . S
Mn865 N881 2.282 . S
Mn865 O889 2.215 . S
Mn865 O891 2.117 . S
C866 O888 1.234 . S
C866 O889 1.283 . S
C867 O879 1.278 1_565 S
C867 O880 1.241 . S
C868 O890 1.240 . S
C868 O891 1.264 . S
O869 Mn864 2.095 . S
O869 C878 1.250 . S
O870 Mn865 2.121 . S
O870 C878 1.258 . S
C871 N872 1.326 . S
C871 C875 1.460 . S
C871 H877 0.929 . S
N872 Mn865 2.257 . S
N872 C871 1.326 . S
N872 C876 1.362 . S
C873 C874 1.258 . S
C873 C876 1.431 . S
C873 C893 1.449 . S
C874 C873 1.258 . S
C874 C875 1.477 . S
C874 H894 0.931 . S
C875 C871 1.460 . S
C875 C874 1.477 . S
C875 H895 0.930 . S
C876 N872 1.362 . S
C876 C873 1.431 . S
C876 C886 1.476 . S
H877 C871 0.929 . S
C878 O869 1.250 . S
C878 O870 1.258 . S
O879 Mn864 2.162 1_545 S
O879 C867 1.278 1_545 S
O880 Mn864 2.297 . S
O880 C867 1.241 . S
N881 Mn865 2.282 . S
N881 C882 1.328 . S
N881 C886 1.318 . S
C882 N881 1.328 . S
C882 C883 1.457 . S
C882 H887 0.929 . S
C883 C882 1.457 . S
C883 C884 1.291 . S
C883 H896 0.931 . S
C884 C883 1.291 . S
C884 C885 1.373 . S
C884 H897 0.929 . S
C885 C884 1.373 . S
C885 C886 1.396 . S
C885 C892 1.403 . S
C886 C876 1.476 . S
C886 N881 1.318 . S
C886 C885 1.396 . S
H887 C882 0.929 . S
O888 Mn864 2.385 . S
O888 C866 1.234 . S
O889 Mn864 2.209 . S
O889 Mn865 2.215 . S
O889 C866 1.283 . S
O890 Mn864 2.094 . S
O890 C868 1.240 . S
O891 Mn865 2.117 . S
O891 C868 1.264 . S
C892 C885 1.403 . S
C892 C893 1.399 . S
C892 H898 0.929 . S
C893 C873 1.449 . S
C893 C892 1.399 . S
C893 H899 0.930 . S
H894 C874 0.931 . S
H895 C875 0.930 . S
H896 C883 0.931 . S
H897 C884 0.929 . S
H898 C892 0.929 . S
H899 C893 0.930 . S
Mn900 O905 2.095 . S
Mn900 O915 2.162 . S
Mn900 O916 2.297 . S
Mn900 O924 2.385 . S
Mn900 O925 2.209 . S
Mn900 O926 2.094 . S
Mn901 O906 2.121 . S
Mn901 N908 2.257 . S
Mn901 N917 2.282 . S
Mn901 O925 2.215 . S
Mn901 O927 2.117 . S
C902 O924 1.234 . S
C902 O925 1.283 . S
C903 O915 1.281 . S
C903 O916 1.236 . S
C904 O926 1.240 . S
C904 O927 1.264 . S
O905 Mn900 2.095 . S
O905 C914 1.250 . S
O906 Mn901 2.121 . S
O906 C914 1.258 . S
C907 N908 1.326 . S
C907 C911 1.460 . S
C907 H913 0.929 . S
N908 Mn901 2.257 . S
N908 C907 1.326 . S
N908 C912 1.362 . S
C909 C910 1.258 . S
C909 C912 1.431 . S
C909 C929 1.449 . S
C910 C909 1.258 . S
C910 C911 1.477 . S
C910 H930 0.931 . S
C911 C907 1.460 . S
C911 C910 1.477 . S
C911 H931 0.930 . S
C912 N908 1.362 . S
C912 C909 1.431 . S
C912 C922 1.476 . S
H913 C907 0.929 . S
C914 O905 1.250 . S
C914 O906 1.258 . S
O915 Mn900 2.162 . S
O915 C903 1.281 . S
O916 Mn900 2.297 . S
O916 C903 1.236 . S
N917 Mn901 2.282 . S
N917 C918 1.328 . S
N917 C922 1.318 . S
C918 N917 1.328 . S
C918 C919 1.457 . S
C918 H923 0.929 . S
C919 C918 1.457 . S
C919 C920 1.291 . S
C919 H932 0.931 . S
C920 C919 1.291 . S
C920 C921 1.373 . S
C920 H933 0.929 . S
C921 C920 1.373 . S
C921 C922 1.396 . S
C921 C928 1.403 . S
C922 C912 1.476 . S
C922 N917 1.318 . S
C922 C921 1.396 . S
H923 C918 0.929 . S
O924 Mn900 2.385 . S
O924 C902 1.234 . S
O925 Mn900 2.209 . S
O925 Mn901 2.215 . S
O925 C902 1.283 . S
O926 Mn900 2.094 . S
O926 C904 1.240 . S
O927 Mn901 2.117 . S
O927 C904 1.264 . S
C928 C921 1.403 . S
C928 C929 1.399 . S
C928 H934 0.929 . S
C929 C909 1.449 . S
C929 C928 1.399 . S
C929 H935 0.930 . S
H930 C910 0.931 . S
H931 C911 0.930 . S
H932 C919 0.931 . S
H933 C920 0.929 . S
H934 C928 0.929 . S
H935 C929 0.930 . S
Mn936 O941 2.095 . S
Mn936 O951 2.162 . S
Mn936 O952 2.297 . S
Mn936 O960 2.385 . S
Mn936 O961 2.209 . S
Mn936 O962 2.094 . S
Mn937 O942 2.121 . S
Mn937 N944 2.257 . S
Mn937 N953 2.282 . S
Mn937 O961 2.215 . S
Mn937 O963 2.117 . S
C938 O960 1.234 . S
C938 O961 1.283 . S
C939 O951 1.281 . S
C939 O952 1.236 . S
C940 O962 1.240 . S
C940 O963 1.264 . S
O941 Mn936 2.095 . S
O941 C950 1.250 . S
O942 Mn937 2.121 . S
O942 C950 1.258 . S
C943 N944 1.326 . S
C943 C947 1.460 . S
C943 H949 0.929 . S
N944 Mn937 2.257 . S
N944 C943 1.326 . S
N944 C948 1.362 . S
C945 C946 1.258 . S
C945 C948 1.431 . S
C945 C965 1.449 . S
C946 C945 1.258 . S
C946 C947 1.477 . S
C946 H966 0.931 . S
C947 C943 1.460 . S
C947 C946 1.477 . S
C947 H967 0.930 . S
C948 N944 1.362 . S
C948 C945 1.431 . S
C948 C958 1.476 . S
H949 C943 0.929 . S
C950 O941 1.250 . S
C950 O942 1.258 . S
O951 Mn936 2.162 . S
O951 C939 1.281 . S
O952 Mn936 2.297 . S
O952 C939 1.236 . S
N953 Mn937 2.282 . S
N953 C954 1.328 . S
N953 C958 1.318 . S
C954 N953 1.328 . S
C954 C955 1.457 . S
C954 H959 0.929 . S
C955 C954 1.457 . S
C955 C956 1.291 . S
C955 H968 0.931 . S
C956 C955 1.291 . S
C956 C957 1.373 . S
C956 H969 0.929 . S
C957 C956 1.373 . S
C957 C958 1.396 . S
C957 C964 1.403 . S
C958 C948 1.476 . S
C958 N953 1.318 . S
C958 C957 1.396 . S
H959 C954 0.929 . S
O960 Mn936 2.385 . S
O960 C938 1.234 . S
O961 Mn936 2.209 . S
O961 Mn937 2.215 . S
O961 C938 1.283 . S
O962 Mn936 2.094 . S
O962 C940 1.240 . S
O963 Mn937 2.117 . S
O963 C940 1.264 . S
C964 C957 1.403 . S
C964 C965 1.399 . S
C964 H970 0.929 . S
C965 C945 1.449 . S
C965 C964 1.399 . S
C965 H971 0.930 . S
H966 C946 0.931 . S
H967 C947 0.930 . S
H968 C955 0.931 . S
H969 C956 0.929 . S
H970 C964 0.929 . S
H971 C965 0.930 . S
Mn972 O977 2.095 . S
Mn972 O987 2.162 . S
Mn972 O988 2.297 . S
Mn972 O996 2.385 . S
Mn972 O997 2.209 . S
Mn972 O998 2.094 . S
Mn973 O978 2.121 . S
Mn973 N980 2.257 . S
Mn973 N989 2.282 . S
Mn973 O997 2.215 . S
Mn973 O999 2.117 . S
C974 O996 1.234 . S
C974 O997 1.283 . S
C975 O987 1.281 . S
C975 O988 1.236 . S
C976 O998 1.240 . S
C976 O999 1.264 . S
O977 Mn972 2.095 . S
O977 C986 1.250 . S
O978 Mn973 2.121 . S
O978 C986 1.258 . S
C979 N980 1.326 . S
C979 C983 1.460 . S
C979 H985 0.929 . S
N980 Mn973 2.257 . S
N980 C979 1.326 . S
N980 C984 1.362 . S
C981 C982 1.258 . S
C981 C984 1.431 . S
C981 C1001 1.449 . S
C982 C981 1.258 . S
C982 C983 1.477 . S
C982 H1002 0.931 . S
C983 C979 1.460 . S
C983 C982 1.477 . S
C983 H1003 0.930 . S
C984 N980 1.362 . S
C984 C981 1.431 . S
C984 C994 1.476 . S
H985 C979 0.929 . S
C986 O977 1.250 . S
C986 O978 1.258 . S
O987 Mn972 2.162 . S
O987 C975 1.281 . S
O988 Mn972 2.297 . S
O988 C975 1.236 . S
N989 Mn973 2.282 . S
N989 C990 1.328 . S
N989 C994 1.318 . S
C990 N989 1.328 . S
C990 C991 1.457 . S
C990 H995 0.929 . S
C991 C990 1.457 . S
C991 C992 1.291 . S
C991 H1004 0.931 . S
C992 C991 1.291 . S
C992 C993 1.373 . S
C992 H1005 0.929 . S
C993 C992 1.373 . S
C993 C994 1.396 . S
C993 C1000 1.403 . S
C994 C984 1.476 . S
C994 N989 1.318 . S
C994 C993 1.396 . S
H995 C990 0.929 . S
O996 Mn972 2.385 . S
O996 C974 1.234 . S
O997 Mn972 2.209 . S
O997 Mn973 2.215 . S
O997 C974 1.283 . S
O998 Mn972 2.094 . S
O998 C976 1.240 . S
O999 Mn973 2.117 . S
O999 C976 1.264 . S
C1000 C993 1.403 . S
C1000 C1001 1.399 . S
C1000 H1006 0.929 . S
C1001 C981 1.449 . S
C1001 C1000 1.399 . S
C1001 H1007 0.930 . S
H1002 C982 0.931 . S
H1003 C983 0.930 . S
H1004 C991 0.931 . S
H1005 C992 0.929 . S
H1006 C1000 0.929 . S
H1007 C1001 0.930 . S
Mn1008 O1013 2.095 . S
Mn1008 O1023 2.162 1_565 S
Mn1008 O1024 2.297 . S
Mn1008 O1032 2.387 1_565 S
Mn1008 O1033 2.209 . S
Mn1008 O1034 2.094 . S
Mn1009 O1014 2.121 . S
Mn1009 N1016 2.257 . S
Mn1009 N1025 2.282 . S
Mn1009 O1033 2.215 . S
Mn1009 O1035 2.117 . S
C1010 O1032 1.219 1_565 S
C1010 O1033 1.283 . S
C1011 O1023 1.281 . S
C1011 O1024 1.236 1_545 S
C1012 O1034 1.240 . S
C1012 O1035 1.264 . S
O1013 Mn1008 2.095 . S
O1013 C1022 1.250 . S
O1014 Mn1009 2.121 . S
O1014 C1022 1.258 . S
C1015 N1016 1.326 . S
C1015 C1019 1.460 . S
C1015 H1021 0.929 . S
N1016 Mn1009 2.257 . S
N1016 C1015 1.326 . S
N1016 C1020 1.362 . S
C1017 C1018 1.258 . S
C1017 C1020 1.431 . S
C1017 C1037 1.449 . S
C1018 C1017 1.258 . S
C1018 C1019 1.477 . S
C1018 H1038 0.931 . S
C1019 C1015 1.460 . S
C1019 C1018 1.477 . S
C1019 H1039 0.930 . S
C1020 N1016 1.362 . S
C1020 C1017 1.431 . S
C1020 C1030 1.476 . S
H1021 C1015 0.929 . S
C1022 O1013 1.250 . S
C1022 O1014 1.258 . S
O1023 Mn1008 2.162 1_545 S
O1023 C1011 1.281 . S
O1024 Mn1008 2.297 . S
O1024 C1011 1.236 1_565 S
N1025 Mn1009 2.282 . S
N1025 C1026 1.328 . S
N1025 C1030 1.318 . S
C1026 N1025 1.328 . S
C1026 C1027 1.457 . S
C1026 H1031 0.929 . S
C1027 C1026 1.457 . S
C1027 C1028 1.291 . S
C1027 H1040 0.931 . S
C1028 C1027 1.291 . S
C1028 C1029 1.373 . S
C1028 H1041 0.929 . S
C1029 C1028 1.373 . S
C1029 C1030 1.396 . S
C1029 C1036 1.403 . S
C1030 C1020 1.476 . S
C1030 N1025 1.318 . S
C1030 C1029 1.396 . S
H1031 C1026 0.929 . S
O1032 Mn1008 2.387 1_545 S
O1032 C1010 1.219 1_545 S
O1033 Mn1008 2.209 . S
O1033 Mn1009 2.215 . S
O1033 C1010 1.283 . S
O1034 Mn1008 2.094 . S
O1034 C1012 1.240 . S
O1035 Mn1009 2.117 . S
O1035 C1012 1.264 . S
C1036 C1029 1.403 . S
C1036 C1037 1.399 . S
C1036 H1042 0.929 . S
C1037 C1017 1.449 . S
C1037 C1036 1.399 . S
C1037 H1043 0.930 . S
H1038 C1018 0.931 . S
H1039 C1019 0.930 . S
H1040 C1027 0.931 . S
H1041 C1028 0.929 . S
H1042 C1036 0.929 . S
H1043 C1037 0.930 . S
Mn1044 O1049 2.095 . S
Mn1044 O1059 2.162 . S
Mn1044 O1060 2.297 . S
Mn1044 O1068 2.385 . S
Mn1044 O1069 2.209 . S
Mn1044 O1070 2.094 . S
Mn1045 O1050 2.121 . S
Mn1045 N1052 2.257 . S
Mn1045 N1061 2.282 . S
Mn1045 O1069 2.215 . S
Mn1045 O1071 2.117 . S
C1046 O1068 1.234 . S
C1046 O1069 1.283 . S
C1047 O1059 1.281 . S
C1047 O1060 1.236 . S
C1048 O1070 1.240 . S
C1048 O1071 1.264 . S
O1049 Mn1044 2.095 . S
O1049 C1058 1.250 . S
O1050 Mn1045 2.121 . S
O1050 C1058 1.258 . S
C1051 N1052 1.326 . S
C1051 C1055 1.460 . S
C1051 H1057 0.929 . S
N1052 Mn1045 2.257 . S
N1052 C1051 1.326 . S
N1052 C1056 1.362 . S
C1053 C1054 1.258 . S
C1053 C1056 1.431 . S
C1053 C1073 1.449 . S
C1054 C1053 1.258 . S
C1054 C1055 1.477 . S
C1054 H1074 0.931 . S
C1055 C1051 1.460 . S
C1055 C1054 1.477 . S
C1055 H1075 0.930 . S
C1056 N1052 1.362 . S
C1056 C1053 1.431 . S
C1056 C1066 1.476 . S
H1057 C1051 0.929 . S
C1058 O1049 1.250 . S
C1058 O1050 1.258 . S
O1059 Mn1044 2.162 . S
O1059 C1047 1.281 . S
O1060 Mn1044 2.297 . S
O1060 C1047 1.236 . S
N1061 Mn1045 2.282 . S
N1061 C1062 1.328 . S
N1061 C1066 1.318 . S
C1062 N1061 1.328 . S
C1062 C1063 1.457 . S
C1062 H1067 0.929 . S
C1063 C1062 1.457 . S
C1063 C1064 1.291 . S
C1063 H1076 0.931 . S
C1064 C1063 1.291 . S
C1064 C1065 1.373 . S
C1064 H1077 0.929 . S
C1065 C1064 1.373 . S
C1065 C1066 1.396 . S
C1065 C1072 1.403 . S
C1066 C1056 1.476 . S
C1066 N1061 1.318 . S
C1066 C1065 1.396 . S
H1067 C1062 0.929 . S
O1068 Mn1044 2.385 . S
O1068 C1046 1.234 . S
O1069 Mn1044 2.209 . S
O1069 Mn1045 2.215 . S
O1069 C1046 1.283 . S
O1070 Mn1044 2.094 . S
O1070 C1048 1.240 . S
O1071 Mn1045 2.117 . S
O1071 C1048 1.264 . S
C1072 C1065 1.403 . S
C1072 C1073 1.399 . S
C1072 H1078 0.929 . S
C1073 C1053 1.449 . S
C1073 C1072 1.399 . S
C1073 H1079 0.930 . S
H1074 C1054 0.931 . S
H1075 C1055 0.930 . S
H1076 C1063 0.931 . S
H1077 C1064 0.929 . S
H1078 C1072 0.929 . S
H1079 C1073 0.930 . S
Mn1080 O1085 2.095 . S
Mn1080 O1095 2.162 . S
Mn1080 O1096 2.297 . S
Mn1080 O1104 2.385 . S
Mn1080 O1105 2.209 . S
Mn1080 O1106 2.094 . S
Mn1081 O1086 2.121 . S
Mn1081 N1088 2.257 . S
Mn1081 N1097 2.282 . S
Mn1081 O1105 2.215 . S
Mn1081 O1107 2.117 . S
C1082 O1104 1.234 . S
C1082 O1105 1.283 . S
C1083 O1095 1.281 . S
C1083 O1096 1.236 . S
C1084 O1106 1.240 . S
C1084 O1107 1.264 . S
O1085 Mn1080 2.095 . S
O1085 C1094 1.250 . S
O1086 Mn1081 2.121 . S
O1086 C1094 1.258 . S
C1087 N1088 1.326 . S
C1087 C1091 1.460 . S
C1087 H1093 0.929 . S
N1088 Mn1081 2.257 . S
N1088 C1087 1.326 . S
N1088 C1092 1.362 . S
C1089 C1090 1.258 . S
C1089 C1092 1.431 . S
C1089 C1109 1.449 . S
C1090 C1089 1.258 . S
C1090 C1091 1.477 . S
C1090 H1110 0.931 . S
C1091 C1087 1.460 . S
C1091 C1090 1.477 . S
C1091 H1111 0.930 . S
C1092 N1088 1.362 . S
C1092 C1089 1.431 . S
C1092 C1102 1.476 . S
H1093 C1087 0.929 . S
C1094 O1085 1.250 . S
C1094 O1086 1.258 . S
O1095 Mn1080 2.162 . S
O1095 C1083 1.281 . S
O1096 Mn1080 2.297 . S
O1096 C1083 1.236 . S
N1097 Mn1081 2.282 . S
N1097 C1098 1.328 . S
N1097 C1102 1.318 . S
C1098 N1097 1.328 . S
C1098 C1099 1.457 . S
C1098 H1103 0.929 . S
C1099 C1098 1.457 . S
C1099 C1100 1.291 . S
C1099 H1112 0.931 . S
C1100 C1099 1.291 . S
C1100 C1101 1.373 . S
C1100 H1113 0.929 . S
C1101 C1100 1.373 . S
C1101 C1102 1.396 . S
C1101 C1108 1.403 . S
C1102 C1092 1.476 . S
C1102 N1097 1.318 . S
C1102 C1101 1.396 . S
H1103 C1098 0.929 . S
O1104 Mn1080 2.385 . S
O1104 C1082 1.234 . S
O1105 Mn1080 2.209 . S
O1105 Mn1081 2.215 . S
O1105 C1082 1.283 . S
O1106 Mn1080 2.094 . S
O1106 C1084 1.240 . S
O1107 Mn1081 2.117 . S
O1107 C1084 1.264 . S
C1108 C1101 1.403 . S
C1108 C1109 1.399 . S
C1108 H1114 0.929 . S
C1109 C1089 1.449 . S
C1109 C1108 1.399 . S
C1109 H1115 0.930 . S
H1110 C1090 0.931 . S
H1111 C1091 0.930 . S
H1112 C1099 0.931 . S
H1113 C1100 0.929 . S
H1114 C1108 0.929 . S
H1115 C1109 0.930 . S
Mn1116 O1121 2.095 . S
Mn1116 O1131 2.162 1_565 S
Mn1116 O1132 2.297 . S
Mn1116 O1140 2.374 1_565 S
Mn1116 O1141 2.209 . S
Mn1116 O1142 2.094 . S
Mn1117 O1122 2.121 . S
Mn1117 N1124 2.257 . S
Mn1117 N1133 2.282 . S
Mn1117 O1141 2.215 . S
Mn1117 O1143 2.117 . S
C1118 O1140 1.224 1_565 S
C1118 O1141 1.283 . S
C1119 O1131 1.281 . S
C1119 O1132 1.236 1_545 S
C1120 O1142 1.240 . S
C1120 O1143 1.264 . S
O1121 Mn1116 2.095 . S
O1121 C1130 1.250 . S
O1122 Mn1117 2.121 . S
O1122 C1130 1.258 . S
C1123 N1124 1.326 . S
C1123 C1127 1.460 . S
C1123 H1129 0.929 . S
N1124 Mn1117 2.257 . S
N1124 C1123 1.326 . S
N1124 C1128 1.362 . S
C1125 C1126 1.258 . S
C1125 C1128 1.431 . S
C1125 C1145 1.449 . S
C1126 C1125 1.258 . S
C1126 C1127 1.477 . S
C1126 H1146 0.931 . S
C1127 C1123 1.460 . S
C1127 C1126 1.477 . S
C1127 H1147 0.930 . S
C1128 N1124 1.362 . S
C1128 C1125 1.431 . S
C1128 C1138 1.476 . S
H1129 C1123 0.929 . S
C1130 O1121 1.250 . S
C1130 O1122 1.258 . S
O1131 Mn1116 2.162 1_545 S
O1131 C1119 1.281 . S
O1132 Mn1116 2.297 . S
O1132 C1119 1.236 1_565 S
N1133 Mn1117 2.282 . S
N1133 C1134 1.328 . S
N1133 C1138 1.318 . S
C1134 N1133 1.328 . S
C1134 C1135 1.457 . S
C1134 H1139 0.929 . S
C1135 C1134 1.457 . S
C1135 C1136 1.291 . S
C1135 H1148 0.931 . S
C1136 C1135 1.291 . S
C1136 C1137 1.373 . S
C1136 H1149 0.929 . S
C1137 C1136 1.373 . S
C1137 C1138 1.396 . S
C1137 C1144 1.403 . S
C1138 C1128 1.476 . S
C1138 N1133 1.318 . S
C1138 C1137 1.396 . S
H1139 C1134 0.929 . S
O1140 Mn1116 2.374 1_545 S
O1140 C1118 1.224 1_545 S
O1141 Mn1116 2.209 . S
O1141 Mn1117 2.215 . S
O1141 C1118 1.283 . S
O1142 Mn1116 2.094 . S
O1142 C1120 1.240 . S
O1143 Mn1117 2.117 . S
O1143 C1120 1.264 . S
C1144 C1137 1.403 . S
C1144 C1145 1.399 . S
C1144 H1150 0.929 . S
C1145 C1125 1.449 . S
C1145 C1144 1.399 . S
C1145 H1151 0.930 . S
H1146 C1126 0.931 . S
H1147 C1127 0.930 . S
H1148 C1135 0.931 . S
H1149 C1136 0.929 . S
H1150 C1144 0.929 . S
H1151 C1145 0.930 . S
Mn1152 O1157 2.095 . S
Mn1152 O1167 2.162 . S
Mn1152 O1168 2.297 . S
Mn1152 O1176 2.385 . S
Mn1152 O1177 2.209 . S
Mn1152 O1178 2.094 . S
Mn1153 O1158 2.121 . S
Mn1153 N1160 2.257 . S
Mn1153 N1169 2.282 . S
Mn1153 O1177 2.215 . S
Mn1153 O1179 2.117 . S
C1154 O1176 1.234 . S
C1154 O1177 1.283 . S
C1155 O1167 1.281 . S
C1155 O1168 1.236 . S
C1156 O1178 1.240 . S
C1156 O1179 1.264 . S
O1157 Mn1152 2.095 . S
O1157 C1166 1.250 . S
O1158 Mn1153 2.121 . S
O1158 C1166 1.258 . S
C1159 N1160 1.326 . S
C1159 C1163 1.460 . S
C1159 H1165 0.929 . S
N1160 Mn1153 2.257 . S
N1160 C1159 1.326 . S
N1160 C1164 1.362 . S
C1161 C1162 1.258 . S
C1161 C1164 1.431 . S
C1161 C1181 1.449 . S
C1162 C1161 1.258 . S
C1162 C1163 1.477 . S
C1162 H1182 0.931 . S
C1163 C1159 1.460 . S
C1163 C1162 1.477 . S
C1163 H1183 0.930 . S
C1164 N1160 1.362 . S
C1164 C1161 1.431 . S
C1164 C1174 1.476 . S
H1165 C1159 0.929 . S
C1166 O1157 1.250 . S
C1166 O1158 1.258 . S
O1167 Mn1152 2.162 . S
O1167 C1155 1.281 . S
O1168 Mn1152 2.297 . S
O1168 C1155 1.236 . S
N1169 Mn1153 2.282 . S
N1169 C1170 1.328 . S
N1169 C1174 1.318 . S
C1170 N1169 1.328 . S
C1170 C1171 1.457 . S
C1170 H1175 0.929 . S
C1171 C1170 1.457 . S
C1171 C1172 1.291 . S
C1171 H1184 0.931 . S
C1172 C1171 1.291 . S
C1172 C1173 1.373 . S
C1172 H1185 0.929 . S
C1173 C1172 1.373 . S
C1173 C1174 1.396 . S
C1173 C1180 1.403 . S
C1174 C1164 1.476 . S
C1174 N1169 1.318 . S
C1174 C1173 1.396 . S
H1175 C1170 0.929 . S
O1176 Mn1152 2.385 . S
O1176 C1154 1.234 . S
O1177 Mn1152 2.209 . S
O1177 Mn1153 2.215 . S
O1177 C1154 1.283 . S
O1178 Mn1152 2.094 . S
O1178 C1156 1.240 . S
O1179 Mn1153 2.117 . S
O1179 C1156 1.264 . S
C1180 C1173 1.403 . S
C1180 C1181 1.399 . S
C1180 H1186 0.929 . S
C1181 C1161 1.449 . S
C1181 C1180 1.399 . S
C1181 H1187 0.930 . S
H1182 C1162 0.931 . S
H1183 C1163 0.930 . S
H1184 C1171 0.931 . S
H1185 C1172 0.929 . S
H1186 C1180 0.929 . S
H1187 C1181 0.930 . S
Mn1188 O1193 2.095 . S
Mn1188 O1203 2.162 . S
Mn1188 O1204 2.297 . S
Mn1188 O1212 2.385 . S
Mn1188 O1213 2.209 . S
Mn1188 O1214 2.094 . S
Mn1189 O1194 2.121 . S
Mn1189 N1196 2.257 . S
Mn1189 N1205 2.282 . S
Mn1189 O1213 2.215 . S
Mn1189 O1215 2.117 . S
C1190 O1212 1.234 . S
C1190 O1213 1.283 . S
C1191 O1203 1.281 . S
C1191 O1204 1.236 . S
C1192 O1214 1.240 . S
C1192 O1215 1.264 . S
O1193 Mn1188 2.095 . S
O1193 C1202 1.250 . S
O1194 Mn1189 2.121 . S
O1194 C1202 1.258 . S
C1195 N1196 1.326 . S
C1195 C1199 1.460 . S
C1195 H1201 0.929 . S
N1196 Mn1189 2.257 . S
N1196 C1195 1.326 . S
N1196 C1200 1.362 . S
C1197 C1198 1.258 . S
C1197 C1200 1.431 . S
C1197 C1217 1.449 . S
C1198 C1197 1.258 . S
C1198 C1199 1.477 . S
C1198 H1218 0.931 . S
C1199 C1195 1.460 . S
C1199 C1198 1.477 . S
C1199 H1219 0.930 . S
C1200 N1196 1.362 . S
C1200 C1197 1.431 . S
C1200 C1210 1.476 . S
H1201 C1195 0.929 . S
C1202 O1193 1.250 . S
C1202 O1194 1.258 . S
O1203 Mn1188 2.162 . S
O1203 C1191 1.281 . S
O1204 Mn1188 2.297 . S
O1204 C1191 1.236 . S
N1205 Mn1189 2.282 . S
N1205 C1206 1.328 . S
N1205 C1210 1.318 . S
C1206 N1205 1.328 . S
C1206 C1207 1.457 . S
C1206 H1211 0.929 . S
C1207 C1206 1.457 . S
C1207 C1208 1.291 . S
C1207 H1220 0.931 . S
C1208 C1207 1.291 . S
C1208 C1209 1.373 . S
C1208 H1221 0.929 . S
C1209 C1208 1.373 . S
C1209 C1210 1.396 . S
C1209 C1216 1.403 . S
C1210 C1200 1.476 . S
C1210 N1205 1.318 . S
C1210 C1209 1.396 . S
H1211 C1206 0.929 . S
O1212 Mn1188 2.385 . S
O1212 C1190 1.234 . S
O1213 Mn1188 2.209 . S
O1213 Mn1189 2.215 . S
O1213 C1190 1.283 . S
O1214 Mn1188 2.094 . S
O1214 C1192 1.240 . S
O1215 Mn1189 2.117 . S
O1215 C1192 1.264 . S
C1216 C1209 1.403 . S
C1216 C1217 1.399 . S
C1216 H1222 0.929 . S
C1217 C1197 1.449 . S
C1217 C1216 1.399 . S
C1217 H1223 0.930 . S
H1218 C1198 0.931 . S
H1219 C1199 0.930 . S
H1220 C1207 0.931 . S
H1221 C1208 0.929 . S
H1222 C1216 0.929 . S
H1223 C1217 0.930 . S
Mn1224 O1229 2.095 . S
Mn1224 O1239 2.162 . S
Mn1224 O1240 2.297 . S
Mn1224 O1248 2.385 . S
Mn1224 O1249 2.209 . S
Mn1224 O1250 2.094 . S
Mn1225 O1230 2.121 . S
Mn1225 N1232 2.257 . S
Mn1225 N1241 2.282 . S
Mn1225 O1249 2.215 . S
Mn1225 O1251 2.117 . S
C1226 O1248 1.234 . S
C1226 O1249 1.283 . S
C1227 O1239 1.281 . S
C1227 O1240 1.236 . S
C1228 O1250 1.240 . S
C1228 O1251 1.264 . S
O1229 Mn1224 2.095 . S
O1229 C1238 1.250 . S
O1230 Mn1225 2.121 . S
O1230 C1238 1.258 . S
C1231 N1232 1.326 . S
C1231 C1235 1.460 . S
C1231 H1237 0.929 . S
N1232 Mn1225 2.257 . S
N1232 C1231 1.326 . S
N1232 C1236 1.362 . S
C1233 C1234 1.258 . S
C1233 C1236 1.431 . S
C1233 C1253 1.449 . S
C1234 C1233 1.258 . S
C1234 C1235 1.477 . S
C1234 H1254 0.931 . S
C1235 C1231 1.460 . S
C1235 C1234 1.477 . S
C1235 H1255 0.930 . S
C1236 N1232 1.362 . S
C1236 C1233 1.431 . S
C1236 C1246 1.476 . S
H1237 C1231 0.929 . S
C1238 O1229 1.250 . S
C1238 O1230 1.258 . S
O1239 Mn1224 2.162 . S
O1239 C1227 1.281 . S
O1240 Mn1224 2.297 . S
O1240 C1227 1.236 . S
N1241 Mn1225 2.282 . S
N1241 C1242 1.328 . S
N1241 C1246 1.318 . S
C1242 N1241 1.328 . S
C1242 C1243 1.457 . S
C1242 H1247 0.929 . S
C1243 C1242 1.457 . S
C1243 C1244 1.291 . S
C1243 H1256 0.931 . S
C1244 C1243 1.291 . S
C1244 C1245 1.373 . S
C1244 H1257 0.929 . S
C1245 C1244 1.373 . S
C1245 C1246 1.396 . S
C1245 C1252 1.403 . S
C1246 C1236 1.476 . S
C1246 N1241 1.318 . S
C1246 C1245 1.396 . S
H1247 C1242 0.929 . S
O1248 Mn1224 2.385 . S
O1248 C1226 1.234 . S
O1249 Mn1224 2.209 . S
O1249 Mn1225 2.215 . S
O1249 C1226 1.283 . S
O1250 Mn1224 2.094 . S
O1250 C1228 1.240 . S
O1251 Mn1225 2.117 . S
O1251 C1228 1.264 . S
C1252 C1245 1.403 . S
C1252 C1253 1.399 . S
C1252 H1258 0.929 . S
C1253 C1233 1.449 . S
C1253 C1252 1.399 . S
C1253 H1259 0.930 . S
H1254 C1234 0.931 . S
H1255 C1235 0.930 . S
H1256 C1243 0.931 . S
H1257 C1244 0.929 . S
H1258 C1252 0.929 . S
H1259 C1253 0.930 . S
Mn1260 O1265 2.095 . S
Mn1260 O1275 2.162 1_565 S
Mn1260 O1276 2.297 . S
Mn1260 O1284 2.385 . S
Mn1260 O1285 2.209 . S
Mn1260 O1286 2.094 . S
Mn1261 O1266 2.121 . S
Mn1261 N1268 2.257 . S
Mn1261 N1277 2.282 . S
Mn1261 O1285 2.215 . S
Mn1261 O1287 2.117 . S
C1262 O1284 1.234 . S
C1262 O1285 1.283 . S
C1263 O1275 1.279 1_565 S
C1263 O1276 1.238 . S
C1264 O1286 1.240 . S
C1264 O1287 1.264 . S
O1265 Mn1260 2.095 . S
O1265 C1274 1.250 . S
O1266 Mn1261 2.121 . S
O1266 C1274 1.258 . S
C1267 N1268 1.326 . S
C1267 C1271 1.460 . S
C1267 H1273 0.929 . S
N1268 Mn1261 2.257 . S
N1268 C1267 1.326 . S
N1268 C1272 1.362 . S
C1269 C1270 1.258 . S
C1269 C1272 1.431 . S
C1269 C1289 1.449 . S
C1270 C1269 1.258 . S
C1270 C1271 1.477 . S
C1270 H1290 0.931 . S
C1271 C1267 1.460 . S
C1271 C1270 1.477 . S
C1271 H1291 0.930 . S
C1272 N1268 1.362 . S
C1272 C1269 1.431 . S
C1272 C1282 1.476 . S
H1273 C1267 0.929 . S
C1274 O1265 1.250 . S
C1274 O1266 1.258 . S
O1275 Mn1260 2.162 1_545 S
O1275 C1263 1.279 1_545 S
O1276 Mn1260 2.297 . S
O1276 C1263 1.238 . S
N1277 Mn1261 2.282 . S
N1277 C1278 1.328 . S
N1277 C1282 1.318 . S
C1278 N1277 1.328 . S
C1278 C1279 1.457 . S
C1278 H1283 0.929 . S
C1279 C1278 1.457 . S
C1279 C1280 1.291 . S
C1279 H1292 0.931 . S
C1280 C1279 1.291 . S
C1280 C1281 1.373 . S
C1280 H1293 0.929 . S
C1281 C1280 1.373 . S
C1281 C1282 1.396 . S
C1281 C1288 1.403 . S
C1282 C1272 1.476 . S
C1282 N1277 1.318 . S
C1282 C1281 1.396 . S
H1283 C1278 0.929 . S
O1284 Mn1260 2.385 . S
O1284 C1262 1.234 . S
O1285 Mn1260 2.209 . S
O1285 Mn1261 2.215 . S
O1285 C1262 1.283 . S
O1286 Mn1260 2.094 . S
O1286 C1264 1.240 . S
O1287 Mn1261 2.117 . S
O1287 C1264 1.264 . S
C1288 C1281 1.403 . S
C1288 C1289 1.399 . S
C1288 H1294 0.929 . S
C1289 C1269 1.449 . S
C1289 C1288 1.399 . S
C1289 H1295 0.930 . S
H1290 C1270 0.931 . S
H1291 C1271 0.930 . S
H1292 C1279 0.931 . S
H1293 C1280 0.929 . S
H1294 C1288 0.929 . S
H1295 C1289 0.930 . S
C1296 C1297 1.369 . S
C1296 C1298 1.419 . S
C1296 H1300 0.930 . S
C1297 C1296 1.369 . S
C1297 C1306 1.429 . S
C1298 C1296 1.419 . S
C1298 C1299 1.363 . S
C1298 H1301 0.929 . S
C1299 C1298 1.363 . S
C1299 C1305 1.428 . S
H1300 C1296 0.930 . S
H1301 C1298 0.929 . S
S1302 N1303 1.613 . S
S1302 N1304 1.610 . S
N1303 S1302 1.613 . S
N1303 C1306 1.350 . S
N1304 S1302 1.610 . S
N1304 C1305 1.351 . S
C1305 C1299 1.428 . S
C1305 N1304 1.351 . S
C1305 C1306 1.434 . S
C1306 C1297 1.429 . S
C1306 N1303 1.350 . S
C1306 C1305 1.434 . S
C1307 C1308 1.369 . S
C1307 C1309 1.419 . S
C1307 H1311 0.930 . S
C1308 C1307 1.369 . S
C1308 C1317 1.429 . S
C1309 C1307 1.419 . S
C1309 C1310 1.363 . S
C1309 H1312 0.929 . S
C1310 C1309 1.363 . S
C1310 C1316 1.428 . S
H1311 C1307 0.930 . S
H1312 C1309 0.929 . S
S1313 N1314 1.613 . S
S1313 N1315 1.610 . S
N1314 S1313 1.613 . S
N1314 C1317 1.350 . S
N1315 S1313 1.610 . S
N1315 C1316 1.351 . S
C1316 C1310 1.428 . S
C1316 N1315 1.351 . S
C1316 C1317 1.434 . S
C1317 C1308 1.429 . S
C1317 N1314 1.350 . S
C1317 C1316 1.434 . S
C1318 C1319 1.369 . S
C1318 C1320 1.419 . S
C1318 H1322 0.930 . S
C1319 C1318 1.369 . S
C1319 C1328 1.429 . S
C1320 C1318 1.419 . S
C1320 C1321 1.363 . S
C1320 H1323 0.929 . S
C1321 C1320 1.363 . S
C1321 C1327 1.428 . S
H1322 C1318 0.930 . S
H1323 C1320 0.929 . S
S1324 N1325 1.613 . S
S1324 N1326 1.610 . S
N1325 S1324 1.613 . S
N1325 C1328 1.350 . S
N1326 S1324 1.610 . S
N1326 C1327 1.351 . S
C1327 C1321 1.428 . S
C1327 N1326 1.351 . S
C1327 C1328 1.434 . S
C1328 C1319 1.429 . S
C1328 N1325 1.350 . S
C1328 C1327 1.434 . S
C1329 C1330 1.369 . S
C1329 C1331 1.419 . S
C1329 H1333 0.930 . S
C1330 C1329 1.369 . S
C1330 C1339 1.429 . S
C1331 C1329 1.419 . S
C1331 C1332 1.363 . S
C1331 H1334 0.929 . S
C1332 C1331 1.363 . S
C1332 C1338 1.428 . S
H1333 C1329 0.930 . S
H1334 C1331 0.929 . S
S1335 N1336 1.613 . S
S1335 N1337 1.610 . S
N1336 S1335 1.613 . S
N1336 C1339 1.350 . S
N1337 S1335 1.610 . S
N1337 C1338 1.351 . S
C1338 C1332 1.428 . S
C1338 N1337 1.351 . S
C1338 C1339 1.434 . S
C1339 C1330 1.429 . S
C1339 N1336 1.350 . S
C1339 C1338 1.434 . S
C1340 C1341 1.369 . S
C1340 C1342 1.419 . S
C1340 H1344 0.930 . S
C1341 C1340 1.369 . S
C1341 C1350 1.429 . S
C1342 C1340 1.419 . S
C1342 C1343 1.363 . S
C1342 H1345 0.929 . S
C1343 C1342 1.363 . S
C1343 C1349 1.428 . S
H1344 C1340 0.930 . S
H1345 C1342 0.929 . S
S1346 N1347 1.613 . S
S1346 N1348 1.610 . S
N1347 S1346 1.613 . S
N1347 C1350 1.350 . S
N1348 S1346 1.610 . S
N1348 C1349 1.351 . S
C1349 C1343 1.428 . S
C1349 N1348 1.351 . S
C1349 C1350 1.434 . S
C1350 C1341 1.429 . S
C1350 N1347 1.350 . S
C1350 C1349 1.434 . S
C1351 C1352 1.369 . S
C1351 C1353 1.419 . S
C1351 H1355 0.930 . S
C1352 C1351 1.369 . S
C1352 C1361 1.429 . S
C1353 C1351 1.419 . S
C1353 C1354 1.363 . S
C1353 H1356 0.929 . S
C1354 C1353 1.363 . S
C1354 C1360 1.428 . S
H1355 C1351 0.930 . S
H1356 C1353 0.929 . S
S1357 N1358 1.613 . S
S1357 N1359 1.610 . S
N1358 S1357 1.613 . S
N1358 C1361 1.350 . S
N1359 S1357 1.610 . S
N1359 C1360 1.351 . S
C1360 C1354 1.428 . S
C1360 N1359 1.351 . S
C1360 C1361 1.434 . S
C1361 C1352 1.429 . S
C1361 N1358 1.350 . S
C1361 C1360 1.434 . S
C1362 C1363 1.369 . S
C1362 C1364 1.419 . S
C1362 H1366 0.930 . S
C1363 C1362 1.369 . S
C1363 C1372 1.429 . S
C1364 C1362 1.419 . S
C1364 C1365 1.363 . S
C1364 H1367 0.929 . S
C1365 C1364 1.363 . S
C1365 C1371 1.428 . S
H1366 C1362 0.930 . S
H1367 C1364 0.929 . S
S1368 N1369 1.613 . S
S1368 N1370 1.610 . S
N1369 S1368 1.613 . S
N1369 C1372 1.350 . S
N1370 S1368 1.610 . S
N1370 C1371 1.351 . S
C1371 C1365 1.428 . S
C1371 N1370 1.351 . S
C1371 C1372 1.434 . S
C1372 C1363 1.429 . S
C1372 N1369 1.350 . S
C1372 C1371 1.434 . S
C1373 C1374 1.369 . S
C1373 C1375 1.419 . S
C1373 H1377 0.930 . S
C1374 C1373 1.369 . S
C1374 C1383 1.429 . S
C1375 C1373 1.419 . S
C1375 C1376 1.363 . S
C1375 H1378 0.929 . S
C1376 C1375 1.363 . S
C1376 C1382 1.428 . S
H1377 C1373 0.930 . S
H1378 C1375 0.929 . S
S1379 N1380 1.613 . S
S1379 N1381 1.610 . S
N1380 S1379 1.613 . S
N1380 C1383 1.350 . S
N1381 S1379 1.610 . S
N1381 C1382 1.351 . S
C1382 C1376 1.428 . S
C1382 N1381 1.351 . S
C1382 C1383 1.434 . S
C1383 C1374 1.429 . S
C1383 N1380 1.350 . S
C1383 C1382 1.434 . S
C1384 C1385 1.369 . S
C1384 C1386 1.419 . S
C1384 H1388 0.930 . S
C1385 C1384 1.369 . S
C1385 C1394 1.429 . S
C1386 C1384 1.419 . S
C1386 C1387 1.363 . S
C1386 H1389 0.929 . S
C1387 C1386 1.363 . S
C1387 C1393 1.428 . S
H1388 C1384 0.930 . S
H1389 C1386 0.929 . S
S1390 N1391 1.613 . S
S1390 N1392 1.610 . S
N1391 S1390 1.613 . S
N1391 C1394 1.350 . S
N1392 S1390 1.610 . S
N1392 C1393 1.351 . S
C1393 C1387 1.428 . S
C1393 N1392 1.351 . S
C1393 C1394 1.434 . S
C1394 C1385 1.429 . S
C1394 N1391 1.350 . S
C1394 C1393 1.434 . S
C1395 C1396 1.369 . S
C1395 C1397 1.419 . S
C1395 H1399 0.930 . S
C1396 C1395 1.369 . S
C1396 C1405 1.429 1_655 S
C1397 C1395 1.419 . S
C1397 C1398 1.363 . S
C1397 H1400 0.929 . S
C1398 C1397 1.363 . S
C1398 C1404 1.428 1_655 S
H1399 C1395 0.930 . S
H1400 C1397 0.929 . S
S1401 N1402 1.613 . S
S1401 N1403 1.610 . S
N1402 S1401 1.613 . S
N1402 C1405 1.350 . S
N1403 S1401 1.610 . S
N1403 C1404 1.351 . S
C1404 C1398 1.428 1_455 S
C1404 N1403 1.351 . S
C1404 C1405 1.434 . S
C1405 C1396 1.429 1_455 S
C1405 N1402 1.350 . S
C1405 C1404 1.434 . S
C1406 C1407 1.369 . S
C1406 C1408 1.419 . S
C1406 H1410 0.930 . S
C1407 C1406 1.369 . S
C1407 C1416 1.429 . S
C1408 C1406 1.419 . S
C1408 C1409 1.363 . S
C1408 H1411 0.929 . S
C1409 C1408 1.363 . S
C1409 C1415 1.428 . S
H1410 C1406 0.930 . S
H1411 C1408 0.929 . S
S1412 N1413 1.613 . S
S1412 N1414 1.610 . S
N1413 S1412 1.613 . S
N1413 C1416 1.350 . S
N1414 S1412 1.610 . S
N1414 C1415 1.351 . S
C1415 C1409 1.428 . S
C1415 N1414 1.351 . S
C1415 C1416 1.434 . S
C1416 C1407 1.429 . S
C1416 N1413 1.350 . S
C1416 C1415 1.434 . S
C1417 C1418 1.369 . S
C1417 C1419 1.419 . S
C1417 H1421 0.930 . S
C1418 C1417 1.369 . S
C1418 C1427 1.429 . S
C1419 C1417 1.419 . S
C1419 C1420 1.363 . S
C1419 H1422 0.929 . S
C1420 C1419 1.363 . S
C1420 C1426 1.428 . S
H1421 C1417 0.930 . S
H1422 C1419 0.929 . S
S1423 N1424 1.613 . S
S1423 N1425 1.610 . S
N1424 S1423 1.613 . S
N1424 C1427 1.350 . S
N1425 S1423 1.610 . S
N1425 C1426 1.351 . S
C1426 C1420 1.428 . S
C1426 N1425 1.351 . S
C1426 C1427 1.434 . S
C1427 C1418 1.429 . S
C1427 N1424 1.350 . S
C1427 C1426 1.434 . S
C1428 C1429 1.369 . S
C1428 C1430 1.419 . S
C1428 H1432 0.930 . S
C1429 C1428 1.369 . S
C1429 C1438 1.429 . S
C1430 C1428 1.419 . S
C1430 C1431 1.363 . S
C1430 H1433 0.929 . S
C1431 C1430 1.363 . S
C1431 C1437 1.428 . S
H1432 C1428 0.930 . S
H1433 C1430 0.929 . S
S1434 N1435 1.613 . S
S1434 N1436 1.610 . S
N1435 S1434 1.613 . S
N1435 C1438 1.350 1_545 S
N1436 S1434 1.610 . S
N1436 C1437 1.351 1_545 S
C1437 C1431 1.428 . S
C1437 N1436 1.351 1_565 S
C1437 C1438 1.434 . S
C1438 C1429 1.429 . S
C1438 N1435 1.350 1_565 S
C1438 C1437 1.434 . S
C1439 C1440 1.369 . S
C1439 C1441 1.419 . S
C1439 H1443 0.930 . S
C1440 C1439 1.369 . S
C1440 C1449 1.429 . S
C1441 C1439 1.419 . S
C1441 C1442 1.363 . S
C1441 H1444 0.929 . S
C1442 C1441 1.363 . S
C1442 C1448 1.428 . S
H1443 C1439 0.930 . S
H1444 C1441 0.929 . S
S1445 N1446 1.613 . S
S1445 N1447 1.610 . S
N1446 S1445 1.613 . S
N1446 C1449 1.350 . S
N1447 S1445 1.610 . S
N1447 C1448 1.351 . S
C1448 C1442 1.428 . S
C1448 N1447 1.351 . S
C1448 C1449 1.434 . S
C1449 C1440 1.429 . S
C1449 N1446 1.350 . S
C1449 C1448 1.434 . S
C1450 C1451 1.369 . S
C1450 C1452 1.419 . S
C1450 H1454 0.930 . S
C1451 C1450 1.369 . S
C1451 C1460 1.429 . S
C1452 C1450 1.419 . S
C1452 C1453 1.363 . S
C1452 H1455 0.929 . S
C1453 C1452 1.363 . S
C1453 C1459 1.428 . S
H1454 C1450 0.930 . S
H1455 C1452 0.929 . S
S1456 N1457 1.613 . S
S1456 N1458 1.610 . S
N1457 S1456 1.613 . S
N1457 C1460 1.350 . S
N1458 S1456 1.610 . S
N1458 C1459 1.351 . S
C1459 C1453 1.428 . S
C1459 N1458 1.351 . S
C1459 C1460 1.434 . S
C1460 C1451 1.429 . S
C1460 N1457 1.350 . S
C1460 C1459 1.434 . S
C1461 C1462 1.369 . S
C1461 C1463 1.419 . S
C1461 H1465 0.930 . S
C1462 C1461 1.369 . S
C1462 C1471 1.429 . S
C1463 C1461 1.419 . S
C1463 C1464 1.363 . S
C1463 H1466 0.929 . S
C1464 C1463 1.363 . S
C1464 C1470 1.428 . S
H1465 C1461 0.930 . S
H1466 C1463 0.929 . S
S1467 N1468 1.613 . S
S1467 N1469 1.610 . S
N1468 S1467 1.613 . S
N1468 C1471 1.350 . S
N1469 S1467 1.610 . S
N1469 C1470 1.351 . S
C1470 C1464 1.428 . S
C1470 N1469 1.351 . S
C1470 C1471 1.434 . S
C1471 C1462 1.429 . S
C1471 N1468 1.350 . S
C1471 C1470 1.434 . S
C1472 C1473 1.369 . S
C1472 C1474 1.419 . S
C1472 H1476 0.930 . S
C1473 C1472 1.369 . S
C1473 C1482 1.429 . S
C1474 C1472 1.419 . S
C1474 C1475 1.363 . S
C1474 H1477 0.929 . S
C1475 C1474 1.363 . S
C1475 C1481 1.428 . S
H1476 C1472 0.930 . S
H1477 C1474 0.929 . S
S1478 N1479 1.613 . S
S1478 N1480 1.610 . S
N1479 S1478 1.613 . S
N1479 C1482 1.350 . S
N1480 S1478 1.610 . S
N1480 C1481 1.351 . S
C1481 C1475 1.428 . S
C1481 N1480 1.351 . S
C1481 C1482 1.434 . S
C1482 C1473 1.429 . S
C1482 N1479 1.350 . S
C1482 C1481 1.434 . S
C1483 C1484 1.369 . S
C1483 C1485 1.419 . S
C1483 H1487 0.930 . S
C1484 C1483 1.369 . S
C1484 C1493 1.429 . S
C1485 C1483 1.419 . S
C1485 C1486 1.363 . S
C1485 H1488 0.929 . S
C1486 C1485 1.363 . S
C1486 C1492 1.428 . S
H1487 C1483 0.930 . S
H1488 C1485 0.929 . S
S1489 N1490 1.613 . S
S1489 N1491 1.610 . S
N1490 S1489 1.613 . S
N1490 C1493 1.350 . S
N1491 S1489 1.610 . S
N1491 C1492 1.351 . S
C1492 C1486 1.428 . S
C1492 N1491 1.351 . S
C1492 C1493 1.434 . S
C1493 C1484 1.429 . S
C1493 N1490 1.350 . S
C1493 C1492 1.434 . S
C1494 C1495 1.369 . S
C1494 C1496 1.419 . S
C1494 H1498 0.930 . S
C1495 C1494 1.369 . S
C1495 C1504 1.429 1_455 S
C1496 C1494 1.419 . S
C1496 C1497 1.363 . S
C1496 H1499 0.929 . S
C1497 C1496 1.363 . S
C1497 C1503 1.428 1_455 S
H1498 C1494 0.930 . S
H1499 C1496 0.929 . S
S1500 N1501 1.613 . S
S1500 N1502 1.610 . S
N1501 S1500 1.613 . S
N1501 C1504 1.350 . S
N1502 S1500 1.610 . S
N1502 C1503 1.351 . S
C1503 C1497 1.428 1_655 S
C1503 N1502 1.351 . S
C1503 C1504 1.434 . S
C1504 C1495 1.429 1_655 S
C1504 N1501 1.350 . S
C1504 C1503 1.434 . S
C1505 C1506 1.369 . S
C1505 C1507 1.419 . S
C1505 H1509 0.930 . S
C1506 C1505 1.369 . S
C1506 C1515 1.429 . S
C1507 C1505 1.419 . S
C1507 C1508 1.363 . S
C1507 H1510 0.929 . S
C1508 C1507 1.363 . S
C1508 C1514 1.428 . S
H1509 C1505 0.930 . S
H1510 C1507 0.929 . S
S1511 N1512 1.613 . S
S1511 N1513 1.610 . S
N1512 S1511 1.613 . S
N1512 C1515 1.350 . S
N1513 S1511 1.610 . S
N1513 C1514 1.351 . S
C1514 C1508 1.428 . S
C1514 N1513 1.351 . S
C1514 C1515 1.434 . S
C1515 C1506 1.429 . S
C1515 N1512 1.350 . S
C1515 C1514 1.434 . S
C1516 C1517 1.369 . S
C1516 C1518 1.419 . S
C1516 H1520 0.930 1_545 S
C1517 C1516 1.369 . S
C1517 C1526 1.429 . S
C1518 C1516 1.419 . S
C1518 C1519 1.363 . S
C1518 H1521 0.929 1_545 S
C1519 C1518 1.363 . S
C1519 C1525 1.428 . S
H1520 C1516 0.930 1_565 S
H1521 C1518 0.929 1_565 S
S1522 N1523 1.613 . S
S1522 N1524 1.610 . S
N1523 S1522 1.613 . S
N1523 C1526 1.350 . S
N1524 S1522 1.610 . S
N1524 C1525 1.351 . S
C1525 C1519 1.428 . S
C1525 N1524 1.351 . S
C1525 C1526 1.434 . S
C1526 C1517 1.429 . S
C1526 N1523 1.350 . S
C1526 C1525 1.434 . S
C1527 C1528 1.369 . S
C1527 C1529 1.419 . S
C1527 H1531 0.930 . S
C1528 C1527 1.369 . S
C1528 C1537 1.429 1_545 S
C1529 C1527 1.419 . S
C1529 C1530 1.363 . S
C1529 H1532 0.929 . S
C1530 C1529 1.363 . S
C1530 C1536 1.428 1_545 S
H1531 C1527 0.930 . S
H1532 C1529 0.929 . S
S1533 N1534 1.613 . S
S1533 N1535 1.610 . S
N1534 S1533 1.613 . S
N1534 C1537 1.350 . S
N1535 S1533 1.610 . S
N1535 C1536 1.351 . S
C1536 C1530 1.428 1_565 S
C1536 N1535 1.351 . S
C1536 C1537 1.434 . S
C1537 C1528 1.429 1_565 S
C1537 N1534 1.350 . S
C1537 C1536 1.434 . S
C1538 C1539 1.369 . S
C1538 C1540 1.419 . S
C1538 H1542 0.930 . S
C1539 C1538 1.369 . S
C1539 C1548 1.429 . S
C1540 C1538 1.419 . S
C1540 C1541 1.363 . S
C1540 H1543 0.929 . S
C1541 C1540 1.363 . S
C1541 C1547 1.428 . S
H1542 C1538 0.930 . S
H1543 C1540 0.929 . S
S1544 N1545 1.613 . S
S1544 N1546 1.610 . S
N1545 S1544 1.613 . S
N1545 C1548 1.350 1_655 S
N1546 S1544 1.610 . S
N1546 C1547 1.351 1_655 S
C1547 C1541 1.428 . S
C1547 N1546 1.351 1_455 S
C1547 C1548 1.434 . S
C1548 C1539 1.429 . S
C1548 N1545 1.350 1_455 S
C1548 C1547 1.434 . S
C1549 C1550 1.369 . S
C1549 C1551 1.419 . S
C1549 H1553 0.930 . S
C1550 C1549 1.369 . S
C1550 C1559 1.429 . S
C1551 C1549 1.419 . S
C1551 C1552 1.363 . S
C1551 H1554 0.929 . S
C1552 C1551 1.363 . S
C1552 C1558 1.428 . S
H1553 C1549 0.930 . S
H1554 C1551 0.929 . S
S1555 N1556 1.613 . S
S1555 N1557 1.610 . S
N1556 S1555 1.613 . S
N1556 C1559 1.350 . S
N1557 S1555 1.610 . S
N1557 C1558 1.351 . S
C1558 C1552 1.428 . S
C1558 N1557 1.351 . S
C1558 C1559 1.434 . S
C1559 C1550 1.429 . S
C1559 N1556 1.350 . S
C1559 C1558 1.434 . S
C1560 C1561 1.369 . S
C1560 C1562 1.419 . S
C1560 H1564 0.930 1_455 S
C1561 C1560 1.369 . S
C1561 C1570 1.429 . S
C1562 C1560 1.419 . S
C1562 C1563 1.363 . S
C1562 H1565 0.929 . S
C1563 C1562 1.363 . S
C1563 C1569 1.428 . S
H1564 C1560 0.930 1_655 S
H1565 C1562 0.929 . S
S1566 N1567 1.613 . S
S1566 N1568 1.610 . S
N1567 S1566 1.613 . S
N1567 C1570 1.350 . S
N1568 S1566 1.610 . S
N1568 C1569 1.351 . S
C1569 C1563 1.428 . S
C1569 N1568 1.351 . S
C1569 C1570 1.434 . S
C1570 C1561 1.429 . S
C1570 N1567 1.350 . S
C1570 C1569 1.434 . S
C1571 C1572 1.369 . S
C1571 C1573 1.419 . S
C1571 H1575 0.930 . S
C1572 C1571 1.369 . S
C1572 C1581 1.429 . S
C1573 C1571 1.419 . S
C1573 C1574 1.363 . S
C1573 H1576 0.929 . S
C1574 C1573 1.363 . S
C1574 C1580 1.428 . S
H1575 C1571 0.930 . S
H1576 C1573 0.929 . S
S1577 N1578 1.613 . S
S1577 N1579 1.610 . S
N1578 S1577 1.613 . S
N1578 C1581 1.350 . S
N1579 S1577 1.610 . S
N1579 C1580 1.351 . S
C1580 C1574 1.428 . S
C1580 N1579 1.351 . S
C1580 C1581 1.434 . S
C1581 C1572 1.429 . S
C1581 N1578 1.350 . S
C1581 C1580 1.434 . S
C1582 C1583 1.369 1_565 S
C1582 C1584 1.419 . S
C1582 H1586 0.930 . S
C1583 C1582 1.369 1_545 S
C1583 C1592 1.429 . S
C1584 C1582 1.419 . S
C1584 C1585 1.363 1_565 S
C1584 H1587 0.929 . S
C1585 C1584 1.363 1_545 S
C1585 C1591 1.428 . S
H1586 C1582 0.930 . S
H1587 C1584 0.929 . S
S1588 N1589 1.613 . S
S1588 N1590 1.610 . S
N1589 S1588 1.613 . S
N1589 C1592 1.350 . S
N1590 S1588 1.610 . S
N1590 C1591 1.351 . S
C1591 C1585 1.428 . S
C1591 N1590 1.351 . S
C1591 C1592 1.434 . S
C1592 C1583 1.429 . S
C1592 N1589 1.350 . S
C1592 C1591 1.434 . S
C1593 C1594 1.369 . S
C1593 C1595 1.419 . S
C1593 H1597 0.930 . S
C1594 C1593 1.369 . S
C1594 C1603 1.429 . S
C1595 C1593 1.419 . S
C1595 C1596 1.363 . S
C1595 H1598 0.929 . S
C1596 C1595 1.363 . S
C1596 C1602 1.428 . S
H1597 C1593 0.930 . S
H1598 C1595 0.929 . S
S1599 N1600 1.613 . S
S1599 N1601 1.610 . S
N1600 S1599 1.613 . S
N1600 C1603 1.350 1_565 S
N1601 S1599 1.610 . S
N1601 C1602 1.351 1_565 S
C1602 C1596 1.428 . S
C1602 N1601 1.351 1_545 S
C1602 C1603 1.434 . S
C1603 C1594 1.429 . S
C1603 N1600 1.350 1_545 S
C1603 C1602 1.434 . S
C1604 C1605 1.369 . S
C1604 C1606 1.419 . S
C1604 H1608 0.930 . S
C1605 C1604 1.369 . S
C1605 C1614 1.429 . S
C1606 C1604 1.419 . S
C1606 C1607 1.363 . S
C1606 H1609 0.929 . S
C1607 C1606 1.363 . S
C1607 C1613 1.428 . S
H1608 C1604 0.930 . S
H1609 C1606 0.929 . S
S1610 N1611 1.613 . S
S1610 N1612 1.610 . S
N1611 S1610 1.613 . S
N1611 C1614 1.350 . S
N1612 S1610 1.610 . S
N1612 C1613 1.351 . S
C1613 C1607 1.428 . S
C1613 N1612 1.351 . S
C1613 C1614 1.434 . S
C1614 C1605 1.429 . S
C1614 N1611 1.350 . S
C1614 C1613 1.434 . S
C1615 C1616 1.369 . S
C1615 C1617 1.419 . S
C1615 H1619 0.930 . S
C1616 C1615 1.369 . S
C1616 C1625 1.429 . S
C1617 C1615 1.419 . S
C1617 C1618 1.363 . S
C1617 H1620 0.929 . S
C1618 C1617 1.363 . S
C1618 C1624 1.428 . S
H1619 C1615 0.930 . S
H1620 C1617 0.929 . S
S1621 N1622 1.613 . S
S1621 N1623 1.610 . S
N1622 S1621 1.613 . S
N1622 C1625 1.350 . S
N1623 S1621 1.610 . S
N1623 C1624 1.351 . S
C1624 C1618 1.428 . S
C1624 N1623 1.351 . S
C1624 C1625 1.434 . S
C1625 C1616 1.429 . S
C1625 N1622 1.350 . S
C1625 C1624 1.434 . S
C1626 C1627 1.369 . S
C1626 C1628 1.419 . S
C1626 H1630 0.930 . S
C1627 C1626 1.369 . S
C1627 C1636 1.429 . S
C1628 C1626 1.419 . S
C1628 C1629 1.363 . S
C1628 H1631 0.929 . S
C1629 C1628 1.363 . S
C1629 C1635 1.428 . S
H1630 C1626 0.930 . S
H1631 C1628 0.929 . S
S1632 N1633 1.613 . S
S1632 N1634 1.610 . S
N1633 S1632 1.613 . S
N1633 C1636 1.350 . S
N1634 S1632 1.610 . S
N1634 C1635 1.351 . S
C1635 C1629 1.428 . S
C1635 N1634 1.351 . S
C1635 C1636 1.434 . S
C1636 C1627 1.429 . S
C1636 N1633 1.350 . S
C1636 C1635 1.434 . S
C1637 C1638 1.369 . S
C1637 C1639 1.419 1_545 S
C1637 H1641 0.930 1_545 S
C1638 C1637 1.369 . S
C1638 C1647 1.429 . S
C1639 C1637 1.419 1_565 S
C1639 C1640 1.363 1_565 S
C1639 H1642 0.929 . S
C1640 C1639 1.363 1_545 S
C1640 C1646 1.428 . S
H1641 C1637 0.930 1_565 S
H1642 C1639 0.929 . S
S1643 N1644 1.613 . S
S1643 N1645 1.610 . S
N1644 S1643 1.613 . S
N1644 C1647 1.350 . S
N1645 S1643 1.610 . S
N1645 C1646 1.351 . S
C1646 C1640 1.428 . S
C1646 N1645 1.351 . S
C1646 C1647 1.434 . S
C1647 C1638 1.429 . S
C1647 N1644 1.350 . S
C1647 C1646 1.434 . S
C1648 C1649 1.369 . S
C1648 C1650 1.419 . S
C1648 H1652 0.930 . S
C1649 C1648 1.369 . S
C1649 C1658 1.429 . S
C1650 C1648 1.419 . S
C1650 C1651 1.363 . S
C1650 H1653 0.929 . S
C1651 C1650 1.363 . S
C1651 C1657 1.428 . S
H1652 C1648 0.930 . S
H1653 C1650 0.929 . S
S1654 N1655 1.613 . S
S1654 N1656 1.610 1_655 S
N1655 S1654 1.613 . S
N1655 C1658 1.350 1_655 S
N1656 S1654 1.610 1_455 S
N1656 C1657 1.351 . S
C1657 C1651 1.428 . S
C1657 N1656 1.351 . S
C1657 C1658 1.434 . S
C1658 C1649 1.429 . S
C1658 N1655 1.350 1_455 S
C1658 C1657 1.434 . S
C1659 C1660 1.369 . S
C1659 C1661 1.419 . S
C1659 H1663 0.930 . S
C1660 C1659 1.369 . S
C1660 C1669 1.429 . S
C1661 C1659 1.419 . S
C1661 C1662 1.363 . S
C1661 H1664 0.929 . S
C1662 C1661 1.363 . S
C1662 C1668 1.428 . S
H1663 C1659 0.930 . S
H1664 C1661 0.929 . S
S1665 N1666 1.613 . S
S1665 N1667 1.610 . S
N1666 S1665 1.613 . S
N1666 C1669 1.350 . S
N1667 S1665 1.610 . S
N1667 C1668 1.351 . S
C1668 C1662 1.428 . S
C1668 N1667 1.351 . S
C1668 C1669 1.434 . S
C1669 C1660 1.429 . S
C1669 N1666 1.350 . S
C1669 C1668 1.434 . S
C1670 C1671 1.369 . S
C1670 C1672 1.419 . S
C1670 H1674 0.930 . S
C1671 C1670 1.369 . S
C1671 C1680 1.429 1_545 S
C1672 C1670 1.419 . S
C1672 C1673 1.363 . S
C1672 H1675 0.929 . S
C1673 C1672 1.363 . S
C1673 C1679 1.433 . S
H1674 C1670 0.930 . S
H1675 C1672 0.929 . S
S1676 N1677 1.613 . S
S1676 N1678 1.610 . S
N1677 S1676 1.613 . S
N1677 C1680 1.350 . S
N1678 S1676 1.610 . S
N1678 C1679 1.347 1_565 S
C1679 C1673 1.433 . S
C1679 N1678 1.347 1_545 S
C1679 C1680 1.433 1_545 S
C1680 C1671 1.429 1_565 S
C1680 N1677 1.350 . S
C1680 C1679 1.433 1_565 S
C1681 C1682 1.369 . S
C1681 C1683 1.419 . S
C1681 H1685 0.930 1_455 S
C1682 C1681 1.369 . S
C1682 C1691 1.429 . S
C1683 C1681 1.419 . S
C1683 C1684 1.363 . S
C1683 H1686 0.929 . S
C1684 C1683 1.363 . S
C1684 C1690 1.428 . S
H1685 C1681 0.930 1_655 S
H1686 C1683 0.929 . S
S1687 N1688 1.613 . S
S1687 N1689 1.610 . S
N1688 S1687 1.613 . S
N1688 C1691 1.350 . S
N1689 S1687 1.610 . S
N1689 C1690 1.351 . S
C1690 C1684 1.428 . S
C1690 N1689 1.351 . S
C1690 C1691 1.434 . S
C1691 C1682 1.429 . S
C1691 N1688 1.350 . S
C1691 C1690 1.434 . S
C1692 C1693 1.369 . S
C1692 C1694 1.419 1_554 S
C1692 H1696 0.950 . S
C1693 C1692 1.369 . S
C1693 C1702 1.429 . S
C1694 C1692 1.419 1_556 S
C1694 C1695 1.363 . S
C1694 H1697 0.929 1_455 S
C1695 C1694 1.363 . S
C1695 C1701 1.428 . S
H1696 C1692 0.950 . S
H1697 C1694 0.929 1_655 S
S1698 N1699 1.613 1_556 S
S1698 N1700 1.610 . S
N1699 S1698 1.613 1_554 S
N1699 C1702 1.350 . S
N1700 S1698 1.610 . S
N1700 C1701 1.351 . S
C1701 C1695 1.428 . S
C1701 N1700 1.351 . S
C1701 C1702 1.434 1_556 S
C1702 C1693 1.429 . S
C1702 N1699 1.350 . S
C1702 C1701 1.434 1_554 S
C1703 C1704 1.369 . S
C1703 C1705 1.419 1_556 S
C1703 H1707 0.930 . S
C1704 C1703 1.369 . S
C1704 C1713 1.429 . S
C1705 C1703 1.419 1_554 S
C1705 C1706 1.363 . S
C1705 H1708 0.929 . S
C1706 C1705 1.363 . S
C1706 C1712 1.428 . S
H1707 C1703 0.930 . S
H1708 C1705 0.929 . S
S1709 N1710 1.613 1_554 S
S1709 N1711 1.610 . S
N1710 S1709 1.613 1_556 S
N1710 C1713 1.350 . S
N1711 S1709 1.610 . S
N1711 C1712 1.351 . S
C1712 C1706 1.428 . S
C1712 N1711 1.351 . S
C1712 C1713 1.434 1_554 S
C1713 C1704 1.429 . S
C1713 N1710 1.350 . S
C1713 C1712 1.434 1_556 S
C1714 C1715 1.348 1_565 S
C1714 C1716 1.420 1_556 S
C1714 H1718 0.951 . S
C1715 C1714 1.348 1_545 S
C1715 C1724 1.429 . S
C1716 C1714 1.420 1_554 S
C1716 C1717 1.363 1_565 S
C1716 H1719 0.929 . S
C1717 C1716 1.363 1_545 S
C1717 C1723 1.428 . S
H1718 C1714 0.951 . S
H1719 C1716 0.929 . S
S1720 N1721 1.613 1_554 S
S1720 N1722 1.610 . S
N1721 S1720 1.613 1_556 S
N1721 C1724 1.350 . S
N1722 S1720 1.610 . S
N1722 C1723 1.351 . S
C1723 C1717 1.428 . S
C1723 N1722 1.351 . S
C1723 C1724 1.434 1_554 S
C1724 C1715 1.429 . S
C1724 N1721 1.350 . S
C1724 C1723 1.434 1_556 S
C1725 C1726 1.369 . S
C1725 C1727 1.419 1_556 S
C1725 H1729 0.930 . S
C1726 C1725 1.369 . S
C1726 C1735 1.429 . S
C1727 C1725 1.419 1_554 S
C1727 C1728 1.363 . S
C1727 H1730 0.929 . S
C1728 C1727 1.363 . S
C1728 C1734 1.428 . S
H1729 C1725 0.930 . S
H1730 C1727 0.929 . S
S1731 N1732 1.574 1_654 S
S1731 N1733 1.649 1_655 S
N1732 S1731 1.574 1_456 S
N1732 C1735 1.350 . S
N1733 S1731 1.649 1_455 S
N1733 C1734 1.351 . S
C1734 C1728 1.428 . S
C1734 N1733 1.351 . S
C1734 C1735 1.434 1_554 S
C1735 C1726 1.429 . S
C1735 N1732 1.350 . S
C1735 C1734 1.434 1_556 S
C1736 C1737 1.369 . S
C1736 C1738 1.419 1_554 S
C1736 H1740 0.930 . S
C1737 C1736 1.369 . S
C1737 C1746 1.429 . S
C1738 C1736 1.419 1_556 S
C1738 C1739 1.363 . S
C1738 H1741 0.929 . S
C1739 C1738 1.363 . S
C1739 C1745 1.428 . S
H1740 C1736 0.930 . S
H1741 C1738 0.929 . S
S1742 N1743 1.613 1_556 S
S1742 N1744 1.610 . S
N1743 S1742 1.613 1_554 S
N1743 C1746 1.350 . S
N1744 S1742 1.610 . S
N1744 C1745 1.351 . S
C1745 C1739 1.428 . S
C1745 N1744 1.351 . S
C1745 C1746 1.434 1_556 S
C1746 C1737 1.429 . S
C1746 N1743 1.350 . S
C1746 C1745 1.434 1_554 S
C1747 C1748 1.369 . S
C1747 C1749 1.419 1_556 S
C1747 H1751 0.930 1_545 S
C1748 C1747 1.369 . S
C1748 C1757 1.429 . S
C1749 C1747 1.419 1_554 S
C1749 C1750 1.363 . S
C1749 H1752 0.929 1_545 S
C1750 C1749 1.363 . S
C1750 C1756 1.428 . S
H1751 C1747 0.930 1_565 S
H1752 C1749 0.929 1_565 S
S1753 N1754 1.613 1_554 S
S1753 N1755 1.610 . S
N1754 S1753 1.613 1_556 S
N1754 C1757 1.350 . S
N1755 S1753 1.610 . S
N1755 C1756 1.351 . S
C1756 C1750 1.428 . S
C1756 N1755 1.351 . S
C1756 C1757 1.434 1_554 S
C1757 C1748 1.429 . S
C1757 N1754 1.350 . S
C1757 C1756 1.434 1_556 S
C1758 C1759 1.369 . S
C1758 C1760 1.419 . S
C1758 H1762 0.930 . S
C1759 C1758 1.369 . S
C1759 C1768 1.429 . S
C1760 C1758 1.419 . S
C1760 C1761 1.363 . S
C1760 H1763 0.929 . S
C1761 C1760 1.363 . S
C1761 C1767 1.428 . S
H1762 C1758 0.930 . S
H1763 C1760 0.929 . S
S1764 N1765 1.613 . S
S1764 N1766 1.610 . S
N1765 S1764 1.613 . S
N1765 C1768 1.350 . S
N1766 S1764 1.610 . S
N1766 C1767 1.351 . S
C1767 C1761 1.428 . S
C1767 N1766 1.351 . S
C1767 C1768 1.434 . S
C1768 C1759 1.429 . S
C1768 N1765 1.350 . S
C1768 C1767 1.434 . S
C1769 C1770 1.369 . S
C1769 C1771 1.419 . S
C1769 H1773 0.930 . S
C1770 C1769 1.369 . S
C1770 C1779 1.429 . S
C1771 C1769 1.419 . S
C1771 C1772 1.363 . S
C1771 H1774 0.929 . S
C1772 C1771 1.363 . S
C1772 C1778 1.428 . S
H1773 C1769 0.930 . S
H1774 C1771 0.929 . S
S1775 N1776 1.613 . S
S1775 N1777 1.610 . S
N1776 S1775 1.613 . S
N1776 C1779 1.350 . S
N1777 S1775 1.610 . S
N1777 C1778 1.351 . S
C1778 C1772 1.428 . S
C1778 N1777 1.351 . S
C1778 C1779 1.434 . S
C1779 C1770 1.429 . S
C1779 N1776 1.350 . S
C1779 C1778 1.434 . S
C1780 C1781 1.369 1_455 S
C1780 C1782 1.419 . S
C1780 H1784 0.930 . S
C1781 C1780 1.369 1_655 S
C1781 C1790 1.429 . S
C1782 C1780 1.419 . S
C1782 C1783 1.363 1_455 S
C1782 H1785 0.929 . S
C1783 C1782 1.363 1_655 S
C1783 C1789 1.428 . S
H1784 C1780 0.930 . S
H1785 C1782 0.929 . S
S1786 N1787 1.613 . S
S1786 N1788 1.610 . S
N1787 S1786 1.613 . S
N1787 C1790 1.350 . S
N1788 S1786 1.610 . S
N1788 C1789 1.351 . S
C1789 C1783 1.428 . S
C1789 N1788 1.351 . S
C1789 C1790 1.434 . S
C1790 C1781 1.429 . S
C1790 N1787 1.350 . S
C1790 C1789 1.434 . S
C1791 C1792 1.369 . S
C1791 C1793 1.419 . S
C1791 H1795 0.930 . S
C1792 C1791 1.369 . S
C1792 C1801 1.429 . S
C1793 C1791 1.419 . S
C1793 C1794 1.363 . S
C1793 H1796 0.929 . S
C1794 C1793 1.363 . S
C1794 C1800 1.428 . S
H1795 C1791 0.930 . S
H1796 C1793 0.929 . S
S1797 N1798 1.613 . S
S1797 N1799 1.610 . S
N1798 S1797 1.613 . S
N1798 C1801 1.350 . S
N1799 S1797 1.610 . S
N1799 C1800 1.351 . S
C1800 C1794 1.428 . S
C1800 N1799 1.351 . S
C1800 C1801 1.434 . S
C1801 C1792 1.429 . S
C1801 N1798 1.350 . S
C1801 C1800 1.434 . S
C1802 C1803 1.369 . S
C1802 C1804 1.419 . S
C1802 H1806 0.930 . S
C1803 C1802 1.369 . S
C1803 C1812 1.429 1_655 S
C1804 C1802 1.419 . S
C1804 C1805 1.363 . S
C1804 H1807 0.929 . S
C1805 C1804 1.363 . S
C1805 C1811 1.428 1_655 S
H1806 C1802 0.930 . S
H1807 C1804 0.929 . S
S1808 N1809 1.613 . S
S1808 N1810 1.610 . S
N1809 S1808 1.613 . S
N1809 C1812 1.350 . S
N1810 S1808 1.610 . S
N1810 C1811 1.351 . S
C1811 C1805 1.428 1_455 S
C1811 N1810 1.351 . S
C1811 C1812 1.434 . S
C1812 C1803 1.429 1_455 S
C1812 N1809 1.350 . S
C1812 C1811 1.434 . S
C1813 C1814 1.369 . S
C1813 C1815 1.419 . S
C1813 H1817 0.930 . S
C1814 C1813 1.369 . S
C1814 C1823 1.429 . S
C1815 C1813 1.419 . S
C1815 C1816 1.363 . S
C1815 H1818 0.929 . S
C1816 C1815 1.363 . S
C1816 C1822 1.428 . S
H1817 C1813 0.930 . S
H1818 C1815 0.929 . S
S1819 N1820 1.613 . S
S1819 N1821 1.610 . S
N1820 S1819 1.613 . S
N1820 C1823 1.350 . S
N1821 S1819 1.610 . S
N1821 C1822 1.351 . S
C1822 C1816 1.428 . S
C1822 N1821 1.351 . S
C1822 C1823 1.434 . S
C1823 C1814 1.429 . S
C1823 N1820 1.350 . S
C1823 C1822 1.434 . S
C1824 C1825 1.369 . S
C1824 C1826 1.419 . S
C1824 H1828 0.930 . S
C1825 C1824 1.369 . S
C1825 C1834 1.429 1_565 S
C1826 C1824 1.419 . S
C1826 C1827 1.363 . S
C1826 H1829 0.929 . S
C1827 C1826 1.363 . S
C1827 C1833 1.428 1_565 S
H1828 C1824 0.930 . S
H1829 C1826 0.929 . S
S1830 N1831 1.613 . S
S1830 N1832 1.610 . S
N1831 S1830 1.613 . S
N1831 C1834 1.350 . S
N1832 S1830 1.610 . S
N1832 C1833 1.351 . S
C1833 C1827 1.428 1_545 S
C1833 N1832 1.351 . S
C1833 C1834 1.434 . S
C1834 C1825 1.429 1_545 S
C1834 N1831 1.350 . S
C1834 C1833 1.434 . S
C1835 C1836 1.369 . S
C1835 C1837 1.419 . S
C1835 H1839 0.930 . S
C1836 C1835 1.369 . S
C1836 C1845 1.429 . S
C1837 C1835 1.419 . S
C1837 C1838 1.363 . S
C1837 H1840 0.929 . S
C1838 C1837 1.363 . S
C1838 C1844 1.428 . S
H1839 C1835 0.930 . S
H1840 C1837 0.929 . S
S1841 N1842 1.613 . S
S1841 N1843 1.610 . S
N1842 S1841 1.613 . S
N1842 C1845 1.350 . S
N1843 S1841 1.610 . S
N1843 C1844 1.351 . S
C1844 C1838 1.428 . S
C1844 N1843 1.351 . S
C1844 C1845 1.434 . S
C1845 C1836 1.429 . S
C1845 N1842 1.350 . S
C1845 C1844 1.434 . S
C1846 C1847 1.369 . S
C1846 C1848 1.419 . S
C1846 H1850 0.930 . S
C1847 C1846 1.369 . S
C1847 C1856 1.429 . S
C1848 C1846 1.419 . S
C1848 C1849 1.363 . S
C1848 H1851 0.929 . S
C1849 C1848 1.363 . S
C1849 C1855 1.428 . S
H1850 C1846 0.930 . S
H1851 C1848 0.929 . S
S1852 N1853 1.613 . S
S1852 N1854 1.610 . S
N1853 S1852 1.613 . S
N1853 C1856 1.350 . S
N1854 S1852 1.610 . S
N1854 C1855 1.351 . S
C1855 C1849 1.428 . S
C1855 N1854 1.351 . S
C1855 C1856 1.434 . S
C1856 C1847 1.429 . S
C1856 N1853 1.350 . S
C1856 C1855 1.434 . S
C1857 C1858 1.369 . S
C1857 C1859 1.419 . S
C1857 H1861 0.930 . S
C1858 C1857 1.369 . S
C1858 C1867 1.429 . S
C1859 C1857 1.419 . S
C1859 C1860 1.363 . S
C1859 H1862 0.929 . S
C1860 C1859 1.363 . S
C1860 C1866 1.428 . S
H1861 C1857 0.930 . S
H1862 C1859 0.929 . S
S1863 N1864 1.613 . S
S1863 N1865 1.610 . S
N1864 S1863 1.613 . S
N1864 C1867 1.350 . S
N1865 S1863 1.610 . S
N1865 C1866 1.351 . S
C1866 C1860 1.428 . S
C1866 N1865 1.351 . S
C1866 C1867 1.434 . S
C1867 C1858 1.429 . S
C1867 N1864 1.350 . S
C1867 C1866 1.434 . S
C1868 C1869 1.369 . S
C1868 C1870 1.419 . S
C1868 H1872 0.930 . S
C1869 C1868 1.369 . S
C1869 C1878 1.429 1_565 S
C1870 C1868 1.419 . S
C1870 C1871 1.363 . S
C1870 H1873 0.929 . S
C1871 C1870 1.363 . S
C1871 C1877 1.428 1_565 S
H1872 C1868 0.930 . S
H1873 C1870 0.929 . S
S1874 N1875 1.613 . S
S1874 N1876 1.610 . S
N1875 S1874 1.613 . S
N1875 C1878 1.350 . S
N1876 S1874 1.610 . S
N1876 C1877 1.351 . S
C1877 C1871 1.428 1_545 S
C1877 N1876 1.351 . S
C1877 C1878 1.434 . S
C1878 C1869 1.429 1_545 S
C1878 N1875 1.350 . S
C1878 C1877 1.434 . S
C1879 C1880 1.369 . S
C1879 C1881 1.419 . S
C1879 H1883 0.930 . S
C1880 C1879 1.369 . S
C1880 C1889 1.429 . S
C1881 C1879 1.419 . S
C1881 C1882 1.363 . S
C1881 H1884 0.929 . S
C1882 C1881 1.363 . S
C1882 C1888 1.428 . S
H1883 C1879 0.930 . S
H1884 C1881 0.929 . S
S1885 N1886 1.613 1_655 S
S1885 N1887 1.610 1_655 S
N1886 S1885 1.613 1_455 S
N1886 C1889 1.350 . S
N1887 S1885 1.610 1_455 S
N1887 C1888 1.351 . S
C1888 C1882 1.428 . S
C1888 N1887 1.351 . S
C1888 C1889 1.434 . S
C1889 C1880 1.429 . S
C1889 N1886 1.350 . S
C1889 C1888 1.434 . S
C1890 C1891 1.369 . S
C1890 C1892 1.419 . S
C1890 H1894 0.930 . S
C1891 C1890 1.369 . S
C1891 C1900 1.429 . S
C1892 C1890 1.419 . S
C1892 C1893 1.363 . S
C1892 H1895 0.929 . S
C1893 C1892 1.363 . S
C1893 C1899 1.428 . S
H1894 C1890 0.930 . S
H1895 C1892 0.929 . S
S1896 N1897 1.613 . S
S1896 N1898 1.610 . S
N1897 S1896 1.613 . S
N1897 C1900 1.350 . S
N1898 S1896 1.610 . S
N1898 C1899 1.351 . S
C1899 C1893 1.428 . S
C1899 N1898 1.351 . S
C1899 C1900 1.434 . S
C1900 C1891 1.429 . S
C1900 N1897 1.350 . S
C1900 C1899 1.434 . S
C1901 C1902 1.369 . S
C1901 C1903 1.419 . S
C1901 H1905 0.930 . S
C1902 C1901 1.369 . S
C1902 C1911 1.429 . S
C1903 C1901 1.419 . S
C1903 C1904 1.363 . S
C1903 H1906 0.929 . S
C1904 C1903 1.363 . S
C1904 C1910 1.428 . S
H1905 C1901 0.930 . S
H1906 C1903 0.929 . S
S1907 N1908 1.613 . S
S1907 N1909 1.610 . S
N1908 S1907 1.613 . S
N1908 C1911 1.350 . S
N1909 S1907 1.610 . S
N1909 C1910 1.351 . S
C1910 C1904 1.428 . S
C1910 N1909 1.351 . S
C1910 C1911 1.434 . S
C1911 C1902 1.429 . S
C1911 N1908 1.350 . S
C1911 C1910 1.434 . S
C1912 C1913 1.369 . S
C1912 C1914 1.419 . S
C1912 H1916 0.930 . S
C1913 C1912 1.369 . S
C1913 C1922 1.429 . S
C1914 C1912 1.419 . S
C1914 C1915 1.363 . S
C1914 H1917 0.929 . S
C1915 C1914 1.363 . S
C1915 C1921 1.428 . S
H1916 C1912 0.930 . S
H1917 C1914 0.929 . S
S1918 N1919 1.613 . S
S1918 N1920 1.610 . S
N1919 S1918 1.613 . S
N1919 C1922 1.350 . S
N1920 S1918 1.610 . S
N1920 C1921 1.351 . S
C1921 C1915 1.428 . S
C1921 N1920 1.351 . S
C1921 C1922 1.434 . S
C1922 C1913 1.429 . S
C1922 N1919 1.350 . S
C1922 C1921 1.434 . S
C1923 C1924 1.369 . S
C1923 C1925 1.419 . S
C1923 H1927 0.930 . S
C1924 C1923 1.369 . S
C1924 C1933 1.429 . S
C1925 C1923 1.419 . S
C1925 C1926 1.363 . S
C1925 H1928 0.929 . S
C1926 C1925 1.363 . S
C1926 C1932 1.428 . S
H1927 C1923 0.930 . S
H1928 C1925 0.929 . S
S1929 N1930 1.613 . S
S1929 N1931 1.610 . S
N1930 S1929 1.613 . S
N1930 C1933 1.350 . S
N1931 S1929 1.610 . S
N1931 C1932 1.351 . S
C1932 C1926 1.428 . S
C1932 N1931 1.351 . S
C1932 C1933 1.434 . S
C1933 C1924 1.429 . S
C1933 N1930 1.350 . S
C1933 C1932 1.434 . S
C1934 C1935 1.369 . S
C1934 C1936 1.419 . S
C1934 H1938 0.930 . S
C1935 C1934 1.369 . S
C1935 C1944 1.429 . S
C1936 C1934 1.419 . S
C1936 C1937 1.363 . S
C1936 H1939 0.929 . S
C1937 C1936 1.363 . S
C1937 C1943 1.428 . S
H1938 C1934 0.930 . S
H1939 C1936 0.929 . S
S1940 N1941 1.613 . S
S1940 N1942 1.610 . S
N1941 S1940 1.613 . S
N1941 C1944 1.350 . S
N1942 S1940 1.610 . S
N1942 C1943 1.351 . S
C1943 C1937 1.428 . S
C1943 N1942 1.351 . S
C1943 C1944 1.434 . S
C1944 C1935 1.429 . S
C1944 N1941 1.350 . S
C1944 C1943 1.434 . S
C1945 C1946 1.369 . S
C1945 C1947 1.419 . S
C1945 H1949 0.930 . S
C1946 C1945 1.369 . S
C1946 C1955 1.429 . S
C1947 C1945 1.419 . S
C1947 C1948 1.363 . S
C1947 H1950 0.929 . S
C1948 C1947 1.363 . S
C1948 C1954 1.428 . S
H1949 C1945 0.930 . S
H1950 C1947 0.929 . S
S1951 N1952 1.613 . S
S1951 N1953 1.610 . S
N1952 S1951 1.613 . S
N1952 C1955 1.350 . S
N1953 S1951 1.610 . S
N1953 C1954 1.351 . S
C1954 C1948 1.428 . S
C1954 N1953 1.351 . S
C1954 C1955 1.434 . S
C1955 C1946 1.429 . S
C1955 N1952 1.350 . S
C1955 C1954 1.434 . S
C1956 C1957 1.369 . S
C1956 C1958 1.419 . S
C1956 H1960 0.930 . S
C1957 C1956 1.369 . S
C1957 C1966 1.429 . S
C1958 C1956 1.419 . S
C1958 C1959 1.363 . S
C1958 H1961 0.929 . S
C1959 C1958 1.363 . S
C1959 C1965 1.428 . S
H1960 C1956 0.930 . S
H1961 C1958 0.929 . S
S1962 N1963 1.613 . S
S1962 N1964 1.610 . S
N1963 S1962 1.613 . S
N1963 C1966 1.350 . S
N1964 S1962 1.610 . S
N1964 C1965 1.351 . S
C1965 C1959 1.428 . S
C1965 N1964 1.351 . S
C1965 C1966 1.434 . S
C1966 C1957 1.429 . S
C1966 N1963 1.350 . S
C1966 C1965 1.434 . S
C1967 C1968 1.369 . S
C1967 C1969 1.419 . S
C1967 H1971 0.930 . S
C1968 C1967 1.369 . S
C1968 C1977 1.429 . S
C1969 C1967 1.419 . S
C1969 C1970 1.363 . S
C1969 H1972 0.929 . S
C1970 C1969 1.363 . S
C1970 C1976 1.428 . S
H1971 C1967 0.930 . S
H1972 C1969 0.929 . S
S1973 N1974 1.613 . S
S1973 N1975 1.610 . S
N1974 S1973 1.613 . S
N1974 C1977 1.350 . S
N1975 S1973 1.610 . S
N1975 C1976 1.351 . S
C1976 C1970 1.428 . S
C1976 N1975 1.351 . S
C1976 C1977 1.434 . S
C1977 C1968 1.429 . S
C1977 N1974 1.350 . S
C1977 C1976 1.434 . S
C1978 C1979 1.369 . S
C1978 C1980 1.419 . S
C1978 H1982 0.930 1_655 S
C1979 C1978 1.369 . S
C1979 C1988 1.429 . S
C1980 C1978 1.419 . S
C1980 C1981 1.363 . S
C1980 H1983 0.929 1_655 S
C1981 C1980 1.363 . S
C1981 C1987 1.428 . S
H1982 C1978 0.930 1_455 S
H1983 C1980 0.929 1_455 S
S1984 N1985 1.613 . S
S1984 N1986 1.610 . S
N1985 S1984 1.613 . S
N1985 C1988 1.350 . S
N1986 S1984 1.610 . S
N1986 C1987 1.351 . S
C1987 C1981 1.428 . S
C1987 N1986 1.351 . S
C1987 C1988 1.434 . S
C1988 C1979 1.429 . S
C1988 N1985 1.350 . S
C1988 C1987 1.434 . S
C1989 C1990 1.369 . S
C1989 C1991 1.419 . S
C1989 H1993 0.930 . S
C1990 C1989 1.369 . S
C1990 C1999 1.429 . S
C1991 C1989 1.419 . S
C1991 C1992 1.363 . S
C1991 H1994 0.929 . S
C1992 C1991 1.363 . S
C1992 C1998 1.428 . S
H1993 C1989 0.930 . S
H1994 C1991 0.929 . S
S1995 N1996 1.613 . S
S1995 N1997 1.610 . S
N1996 S1995 1.613 . S
N1996 C1999 1.350 . S
N1997 S1995 1.610 . S
N1997 C1998 1.351 . S
C1998 C1992 1.428 . S
C1998 N1997 1.351 . S
C1998 C1999 1.434 . S
C1999 C1990 1.429 . S
C1999 N1996 1.350 . S
C1999 C1998 1.434 . S
C2000 C2001 1.369 . S
C2000 C2002 1.419 . S
C2000 H2004 0.930 . S
C2001 C2000 1.369 . S
C2001 C2010 1.429 . S
C2002 C2000 1.419 . S
C2002 C2003 1.363 . S
C2002 H2005 0.929 . S
C2003 C2002 1.363 . S
C2003 C2009 1.428 . S
H2004 C2000 0.930 . S
H2005 C2002 0.929 . S
S2006 N2007 1.613 . S
S2006 N2008 1.610 . S
N2007 S2006 1.613 . S
N2007 C2010 1.350 . S
N2008 S2006 1.610 . S
N2008 C2009 1.351 . S
C2009 C2003 1.428 . S
C2009 N2008 1.351 . S
C2009 C2010 1.434 . S
C2010 C2001 1.429 . S
C2010 N2007 1.350 . S
C2010 C2009 1.434 . S
C2011 C2012 1.369 . S
C2011 C2013 1.419 . S
C2011 H2015 0.930 . S
C2012 C2011 1.369 . S
C2012 C2021 1.429 . S
C2013 C2011 1.419 . S
C2013 C2014 1.363 . S
C2013 H2016 0.929 . S
C2014 C2013 1.363 . S
C2014 C2020 1.428 . S
H2015 C2011 0.930 . S
H2016 C2013 0.929 . S
S2017 N2018 1.613 . S
S2017 N2019 1.610 . S
N2018 S2017 1.613 . S
N2018 C2021 1.350 . S
N2019 S2017 1.610 . S
N2019 C2020 1.351 . S
C2020 C2014 1.428 . S
C2020 N2019 1.351 . S
C2020 C2021 1.434 . S
C2021 C2012 1.429 . S
C2021 N2018 1.350 . S
C2021 C2020 1.434 . S
C2022 C2023 1.369 . S
C2022 C2024 1.419 . S
C2022 H2026 0.930 . S
C2023 C2022 1.369 . S
C2023 C2032 1.429 . S
C2024 C2022 1.419 . S
C2024 C2025 1.363 . S
C2024 H2027 0.929 . S
C2025 C2024 1.363 . S
C2025 C2031 1.428 . S
H2026 C2022 0.930 . S
H2027 C2024 0.929 . S
S2028 N2029 1.613 . S
S2028 N2030 1.610 . S
N2029 S2028 1.613 . S
N2029 C2032 1.350 . S
N2030 S2028 1.610 . S
N2030 C2031 1.351 . S
C2031 C2025 1.428 . S
C2031 N2030 1.351 . S
C2031 C2032 1.434 . S
C2032 C2023 1.429 . S
C2032 N2029 1.350 . S
C2032 C2031 1.434 . S
C2033 C2034 1.369 . S
C2033 C2035 1.419 . S
C2033 H2037 0.930 . S
C2034 C2033 1.369 . S
C2034 C2043 1.429 . S
C2035 C2033 1.419 . S
C2035 C2036 1.363 . S
C2035 H2038 0.929 . S
C2036 C2035 1.363 . S
C2036 C2042 1.428 . S
H2037 C2033 0.930 . S
H2038 C2035 0.929 . S
S2039 N2040 1.613 . S
S2039 N2041 1.610 . S
N2040 S2039 1.613 . S
N2040 C2043 1.350 . S
N2041 S2039 1.610 . S
N2041 C2042 1.351 . S
C2042 C2036 1.428 . S
C2042 N2041 1.351 . S
C2042 C2043 1.434 . S
C2043 C2034 1.429 . S
C2043 N2040 1.350 . S
C2043 C2042 1.434 . S
C2044 C2045 1.369 . S
C2044 C2046 1.419 . S
C2044 H2048 0.930 . S
C2045 C2044 1.369 . S
C2045 C2054 1.429 . S
C2046 C2044 1.419 . S
C2046 C2047 1.363 . S
C2046 H2049 0.929 . S
C2047 C2046 1.363 . S
C2047 C2053 1.428 . S
H2048 C2044 0.930 . S
H2049 C2046 0.929 . S
S2050 N2051 1.613 . S
S2050 N2052 1.610 . S
N2051 S2050 1.613 . S
N2051 C2054 1.350 . S
N2052 S2050 1.610 . S
N2052 C2053 1.351 . S
C2053 C2047 1.428 . S
C2053 N2052 1.351 . S
C2053 C2054 1.434 . S
C2054 C2045 1.429 . S
C2054 N2051 1.350 . S
C2054 C2053 1.434 . S
C2055 C2056 1.369 . S
C2055 C2057 1.419 . S
C2055 H2059 0.930 . S
C2056 C2055 1.369 . S
C2056 C2065 1.429 . S
C2057 C2055 1.419 . S
C2057 C2058 1.363 . S
C2057 H2060 0.929 . S
C2058 C2057 1.363 . S
C2058 C2064 1.428 . S
H2059 C2055 0.930 . S
H2060 C2057 0.929 . S
S2061 N2062 1.613 . S
S2061 N2063 1.610 . S
N2062 S2061 1.613 . S
N2062 C2065 1.350 . S
N2063 S2061 1.610 . S
N2063 C2064 1.351 . S
C2064 C2058 1.428 . S
C2064 N2063 1.351 . S
C2064 C2065 1.434 . S
C2065 C2056 1.429 . S
C2065 N2062 1.350 . S
C2065 C2064 1.434 . S
C2066 C2067 1.369 . S
C2066 C2068 1.419 . S
C2066 H2070 0.930 1_565 S
C2067 C2066 1.369 . S
C2067 C2076 1.429 . S
C2068 C2066 1.419 . S
C2068 C2069 1.363 . S
C2068 H2071 0.929 1_565 S
C2069 C2068 1.363 . S
C2069 C2075 1.428 . S
H2070 C2066 0.930 1_545 S
H2071 C2068 0.929 1_545 S
S2072 N2073 1.613 . S
S2072 N2074 1.610 . S
N2073 S2072 1.613 . S
N2073 C2076 1.350 . S
N2074 S2072 1.610 . S
N2074 C2075 1.351 . S
C2075 C2069 1.428 . S
C2075 N2074 1.351 . S
C2075 C2076 1.434 . S
C2076 C2067 1.429 . S
C2076 N2073 1.350 . S
C2076 C2075 1.434 . S
C2077 C2078 1.369 . S
C2077 C2079 1.419 . S
C2077 H2081 0.930 . S
C2078 C2077 1.369 . S
C2078 C2087 1.429 . S
C2079 C2077 1.419 . S
C2079 C2080 1.363 . S
C2079 H2082 0.929 . S
C2080 C2079 1.363 . S
C2080 C2086 1.428 . S
H2081 C2077 0.930 . S
H2082 C2079 0.929 . S
S2083 N2084 1.613 . S
S2083 N2085 1.610 . S
N2084 S2083 1.613 . S
N2084 C2087 1.350 . S
N2085 S2083 1.610 . S
N2085 C2086 1.351 . S
C2086 C2080 1.428 . S
C2086 N2085 1.351 . S
C2086 C2087 1.434 . S
C2087 C2078 1.429 . S
C2087 N2084 1.350 . S
C2087 C2086 1.434 . S
C1297 C14 1.387 . S
C1299 C410 1.389 . S
C1308 C338 1.398 . S
C1310 C50 1.397 . S
C1319 C374 1.395 . S
C1321 C86 1.394 . S
C1330 C122 1.397 . S
C1332 C266 1.396 . S
C1341 C158 1.398 . S
C1343 C302 1.397 . S
C1352 C194 1.398 . S
C1354 C230 1.397 . S
C1363 C446 1.390 . S
C1365 C842 1.391 . S
C1374 C770 1.387 . S
C1376 C482 1.388 . S
C1385 C518 1.398 . S
C1387 C806 1.397 . S
C1396 C554 1.395 . S
C1398 C698 1.395 . S
C1407 C590 1.398 . S
C1409 C734 1.396 . S
C1418 C626 1.388 . S
C1420 C662 1.389 . S
C1429 C878 1.389 . S
C1431 C1274 1.390 . S
C1440 C914 1.387 . S
C1442 C1202 1.388 . S
C1451 C1238 1.387 . S
C1453 C950 1.388 . S
C1462 C986 1.395 . S
C1464 C1130 1.394 . S
C1473 C1166 1.391 . S
C1475 C1022 1.392 . S
C1484 C1094 1.389 . S
C1486 C1058 1.390 . S
C1495 C3 1.339 . S
C1497 C543 1.332 1_455 S
C1506 C39 1.333 . S
C1508 C579 1.339 . S
C1517 C75 1.339 . S
C1519 C615 1.334 . S
C1528 C111 1.340 . S
C1530 C867 1.332 1_545 S
C1539 C903 1.340 . S
C1541 C147 1.336 . S
C1550 C939 1.334 . S
C1552 C183 1.340 . S
C1561 C219 1.334 . S
C1563 C1191 1.337 . S
C1572 C1227 1.340 . S
C1574 C255 1.334 . S
C1583 C291 1.335 . S
C1585 C1263 1.339 1_545 S
C1594 C327 1.340 . S
C1596 C651 1.337 . S
C1605 C363 1.333 . S
C1607 C687 1.338 1_455 S
C1616 C399 1.336 . S
C1618 C723 1.339 . S
C1627 C975 1.335 . S
C1629 C435 1.337 . S
C1638 C471 1.333 . S
C1640 C1011 1.338 . S
C1649 C507 1.335 . S
C1651 C1047 1.339 . S
C1660 C1083 1.335 . S
C1662 C759 1.336 . S
C1671 C1119 1.334 . S
C1673 C795 1.340 . S
C1682 C831 1.340 . S
C1684 C1155 1.335 . S
C1693 C4 1.356 . S
C1695 C148 1.354 . S
C1704 C184 1.360 . S
C1706 C40 1.357 . S
C1715 C112 1.360 . S
C1717 C76 1.358 . S
C1726 C220 1.352 . S
C1728 C364 1.353 . S
C1737 C400 1.355 . S
C1739 C256 1.354 . S
C1748 C292 1.359 . S
C1750 C328 1.357 . S
C1759 C580 1.352 . S
C1761 C436 1.355 . S
C1770 C472 1.356 . S
C1772 C616 1.354 . S
C1781 C508 1.356 . S
C1783 C544 1.354 . S
C1792 C796 1.353 . S
C1794 C652 1.353 . S
C1803 C832 1.360 . S
C1805 C688 1.358 . S
C1814 C760 1.355 . S
C1816 C724 1.354 . S
C1825 C868 1.361 . S
C1827 C1012 1.359 . S
C1836 C904 1.355 . S
C1838 C1048 1.357 . S
C1847 C940 1.352 . S
C1849 C976 1.354 . S
C1858 C1228 1.359 . S
C1860 C1084 1.357 . S
C1869 C1264 1.359 . S
C1871 C1120 1.357 . S
C1880 C1192 1.361 . S
C1882 C1156 1.359 . S
C1891 C326 1.556 . S
C1893 C2 1.557 . S
C1902 C362 1.559 . S
C1904 C38 1.559 . S
C1913 C74 1.560 . S
C1915 C398 1.560 . S
C1924 C110 1.558 . S
C1926 C218 1.558 . S
C1935 C254 1.560 . S
C1937 C146 1.560 . S
C1946 C182 1.560 . S
C1948 C290 1.559 . S
C1957 C758 1.559 . S
C1959 C434 1.558 . S
C1968 C794 1.558 . S
C1970 C470 1.559 . S
C1979 C506 1.559 . S
C1981 C830 1.559 . S
C1990 C650 1.560 . S
C1992 C542 1.560 . S
C2001 C686 1.558 . S
C2003 C578 1.558 . S
C2012 C722 1.560 . S
C2014 C614 1.560 . S
C2023 C866 1.559 . S
C2025 C1190 1.559 . S
C2034 C1226 1.560 . S
C2036 C902 1.559 . S
C2045 C938 1.556 . S
C2047 C1262 1.557 . S
C2056 C974 1.559 . S
C2058 C1082 1.559 . S
C2067 C1010 1.560 . S
C2069 C1118 1.559 . S
C2078 C1154 1.559 . S
C2080 C1046 1.559 . S
