# Generated by pormake.
# Topology kag, (6)-cn, num edge types: 1
# Building blocks:
#     Node 0, Type 0, BuildingBlock: PAMTUU_clean_sbu_0, # of connection points: 6
#     Node 1, Type 0, BuildingBlock: PAMTUU_clean_sbu_0, # of connection points: 6
#     Node 2, Type 0, BuildingBlock: PAMTUU_clean_sbu_0, # of connection points: 6
#     Edge 3, Type (0, 0), BuildingBlock: FUNLAD_clean_linker_0, # of connection points: 2
#     Edge 4, Type (0, 0), BuildingBlock: FUNLAD_clean_linker_0, # of connection points: 2
#     Edge 5, Type (0, 0), BuildingBlock: FUNLAD_clean_linker_0, # of connection points: 2
#     Edge 6, Type (0, 0), BuildingBlock: FUNLAD_clean_linker_0, # of connection points: 2
#     Edge 7, Type (0, 0), BuildingBlock: FUNLAD_clean_linker_0, # of connection points: 2
#     Edge 8, Type (0, 0), BuildingBlock: FUNLAD_clean_linker_0, # of connection points: 2
#     Edge 9, Type (0, 0), BuildingBlock: FUNLAD_clean_linker_0, # of connection points: 2
#     Edge 10, Type (0, 0), BuildingBlock: FUNLAD_clean_linker_0, # of connection points: 2
#     Edge 11, Type (0, 0), BuildingBlock: FUNLAD_clean_linker_0, # of connection points: 2
# Relax obj value: 0.073
# Max RMSD: 0.145
# Mean RMSD: 0.107
data_MOF--net-kag--node1-PAMTUU_clean_sbu_0--edge1-FUNLAD_clean_linker_0
_symmetry_space_group_name_H-M    P1
_symmetry_Int_Tables_number       1
_symmetry_cell_setting            triclinic
loop_
_symmetry_equiv_pos_as_xyz
'x, y, z'
_cell_length_a     55.195576
_cell_length_b     35.85115
_cell_length_c     17.589443
_cell_angle_alpha  88.253418
_cell_angle_beta   99.03218
_cell_angle_gamma 122.68478
loop_
_atom_site_label
_atom_site_type_symbol
_atom_site_fract_x
_atom_site_fract_y
_atom_site_fract_z
_atom_type_partial_charge
Tb0 Tb 1.01595 0.59236 0.96963 0.0
Tb1 Tb 0.03221 0.51591 0.98044 0.0
C2 C 1.01973 0.55037 0.82482 0.0
C3 C 0.97234 0.6422 0.97834 0.0
C4 C 0.92063 0.63577 0.00208 0.0
C5 C 0.94383 0.67536 0.97886 0.0
C6 C 0.96936 0.67846 0.96705 0.0
C7 C 0.94941 0.60266 0.00191 0.0
C8 C 0.92378 0.59943 0.01348 0.0
C9 C 0.99891 0.64544 0.96265 0.0
O10 O 0.97509 0.52853 0.9404 0.0
O11 O 0.98679 0.48048 -0.00207 0.0
O12 O 0.04577 0.55062 0.09355 0.0
O13 O 1.01006 0.5652 0.08213 0.0
O14 O 0.0408 0.47499 0.92286 0.0
O15 O 0.04235 0.47428 0.04594 0.0
O16 O 0.07166 0.57693 0.95982 0.0
O17 O 0.0637 0.63001 -0.00237 0.0
O18 O 0.02875 0.58823 0.86107 0.0
O19 O 1.01209 0.51456 0.86279 0.0
C20 C 0.96739 0.49001 0.96885 0.0
O21 O 1.01595 0.6444 0.02201 0.0
O22 O 0.99509 0.62025 0.90424 0.0
C23 C 0.02898 0.55881 0.12514 0.0
C24 C 0.07649 0.46508 -0.00394 0.0
C25 C 0.12936 0.46807 0.00835 0.0
C26 C 0.1066 0.43644 0.04625 0.0
C27 C 0.08046 0.43492 0.03994 0.0
C28 C 0.09939 0.49749 0.9598 0.0
C29 C 0.12548 0.49889 0.96568 0.0
C30 C 0.04813 0.46141 0.9866 0.0
C31 C 0.08118 0.61826 0.9801 0.0
H32 H 0.94207 0.70379 0.96834 0.0
H33 H 0.9867 0.70914 0.94831 0.0
H34 H 0.95131 0.57426 0.01102 0.0
H35 H 0.90655 0.5686 0.03205 0.0
H36 H 0.10893 0.41273 0.08091 0.0
H37 H 0.06318 0.40982 0.0688 0.0
H38 H 0.09696 0.52128 0.92567 0.0
H39 H 0.14227 0.52343 0.935 0.0
Tb40 Tb 0.49286 1.01753 0.00582 0.0
Tb41 Tb 0.56526 0.07239 0.03165 0.0
C42 C 0.52728 1.04199 0.86822 0.0
C43 C 0.40834 0.93743 0.98176 0.0
C44 C 0.34792 0.87075 0.96693 0.0
C45 C 0.3594 0.89718 0.90524 0.0
C46 C 0.38922 0.9303 0.91276 0.0
C47 C 0.39708 0.90949 0.04199 0.0
C48 C 0.36729 0.87658 0.03461 0.0
C49 C 0.43804 0.97863 -0.00395 0.0
O50 O 0.50249 0.96615 0.03271 0.0
O51 O 0.54966 1.0033 0.00806 0.0
O52 O 0.55063 0.04538 0.1397 0.0
O53 O 0.51185 0.05271 0.11887 0.0
O54 O 0.60269 0.08052 -0.00068 0.0
O55 O 0.60619 0.11915 0.09726 0.0
O56 O 0.55588 0.12397 0.03733 0.0
O57 O 0.50732 0.08592 0.98047 0.0
O58 O 0.50508 1.01015 0.89799 0.0
O59 O 0.55001 0.07561 0.91151 0.0
C60 C 0.52576 0.96669 0.02134 0.0
O61 O 0.45574 0.98285 0.0586 0.0
O62 O 0.45189 0.997 0.9384 0.0
C63 C 0.53148 0.04995 0.16643 0.0
C64 C 0.6482 0.14963 0.03476 0.0
C65 C 0.70612 0.21288 0.01231 0.0
C66 C 0.69671 0.21435 0.08137 0.0
C67 C 0.66813 0.18296 0.09255 0.0
C68 C 0.65717 0.14944 0.96426 0.0
C69 C 0.68578 0.18073 0.95319 0.0
C70 C 0.62033 0.11159 0.05352 0.0
C71 C 0.53223 0.12317 0.00648 0.0
H72 H 0.3451 0.89384 0.85247 0.0
H73 H 0.39702 0.95178 0.86586 0.0
H74 H 0.41102 0.91431 0.0964 0.0
H75 H 0.35929 0.85636 0.0828 0.0
H76 H 0.71185 0.23835 0.12841 0.0
H77 H 0.66205 0.18351 0.14795 0.0
H78 H 0.6425 0.12405 0.91863 0.0
H79 H 0.69218 0.17907 0.89888 0.0
Tb80 Tb 0.55494 0.56669 0.00718 0.0
Tb81 Tb 0.48233 0.50681 0.96921 0.0
C82 C 0.5166 0.53364 0.13648 0.0
C83 C 0.63488 0.6045 0.03981 0.0
C84 C 0.68441 0.59886 0.04502 0.0
C85 C 0.68705 0.63658 0.07745 0.0
C86 C 0.66258 0.63935 0.07471 0.0
C87 C 0.63182 0.56598 0.01 0.0
C88 C 0.65634 0.56316 0.01267 0.0
C89 C 0.61035 0.61112 0.02833 0.0
O90 O 0.54282 0.49898 0.98063 0.0
O91 O 0.49455 0.45883 -0.00236 0.0
O92 O 0.49858 0.50319 0.86707 0.0
O93 O 0.53979 0.57243 0.88854 0.0
O94 O 0.44182 0.46034 0.00164 0.0
O95 O 0.44419 0.48951 0.89158 0.0
O96 O 0.49576 0.57567 0.95609 0.0
O97 O 0.5423 0.61354 0.02679 0.0
O98 O 0.53894 0.53672 0.11243 0.0
O99 O 0.49563 0.53284 0.08815 0.0
C100 C 0.5187 0.46117 0.98967 0.0
O101 O 0.59366 0.59763 0.96108 0.0
O102 O 0.59518 0.60176 0.0838 0.0
C103 C 0.52015 0.53813 0.84142 0.0
C104 C 0.4039 0.4723 0.95096 0.0
C105 C 0.3577 0.48306 0.96743 0.0
C106 C 0.36248 0.47689 0.89391 0.0
C107 C 0.38522 0.4714 0.88586 0.0
C108 C 0.39938 0.47887 0.02463 0.0
C109 C 0.37647 0.48406 0.03273 0.0
C110 C 0.4272 0.46497 0.94025 0.0
C111 C 0.51862 0.61202 -0.00684 0.0
H112 H 0.70815 0.66435 0.10418 0.0
H113 H 0.66546 0.66938 0.09799 0.0
H114 H 0.61065 0.53868 0.98247 0.0
H115 H 0.65343 0.53372 0.98668 0.0
H116 H 0.34825 0.47536 0.84245 0.0
H117 H 0.38805 0.46605 0.82847 0.0
H118 H 0.41342 0.47983 0.07606 0.0
H119 H 0.37357 0.48919 0.09014 0.0
C120 C 0.03531 0.58662 0.70232 0.0
C121 C 1.01835 0.54805 0.74028 0.0
C122 C 0.0344 0.58435 0.62255 0.0
C123 C 1.01616 0.54351 0.57901 0.0
C124 C 0.99885 0.50514 0.61676 0.0
C125 C 1.00023 0.50724 0.69674 0.0
C126 C 1.01378 0.54039 0.49388 0.0
C127 C 0.03667 0.56545 0.45719 0.0
C128 C 0.03409 0.56254 0.37193 0.0
C129 C 0.0576 0.56897 0.33921 0.0
C130 C 0.05585 0.56712 0.25899 0.0
C131 C 0.03083 0.55999 0.20999 0.0
H132 H 0.99076 0.55118 0.34628 0.0
C133 C 1.00747 0.55423 0.24283 0.0
C134 C 1.00899 0.55521 0.3229 0.0
H135 H 0.98788 0.54871 0.20662 0.0
H136 H 0.04951 0.61855 0.73435 0.0
H137 H 0.04751 0.61471 0.5949 0.0
H138 H 0.98442 0.47336 0.58436 0.0
H139 H 0.98678 0.477 0.72431 0.0
H140 H 0.99286 0.51518 0.46091 0.0
H141 H 0.05827 0.58735 0.4907 0.0
H142 H 0.07727 0.57507 0.37581 0.0
H143 H 0.07427 0.57195 0.2354 0.0
C144 C 0.54496 1.03533 0.30185 0.0
C145 C 0.53239 0.05343 0.25046 0.0
C146 C 0.54497 1.03776 0.38117 0.0
C147 C 0.53285 0.05905 0.41048 0.0
C148 C 0.52095 0.07803 0.35924 0.0
C149 C 0.52033 0.07472 0.27994 0.0
C150 C 0.53311 0.06321 0.4943 0.0
C151 C 0.52897 1.03076 0.54161 0.0
C152 C 0.52829 1.03453 0.62498 0.0
C153 C 0.50986 0.99636 0.66155 0.0
C154 C 0.50902 0.9989 0.74023 0.0
C155 C 0.52717 1.03953 0.7843 0.0
H156 H 0.56131 0.10512 0.64286 0.0
C157 C 0.5459 0.07766 0.74783 0.0
C158 C 0.54635 0.07526 0.66893 0.0
H159 H 0.56023 0.10944 0.78024 0.0
H160 H 0.55444 1.01878 0.28069 0.0
H161 H 0.55488 1.02364 0.41953 0.0
H162 H 0.51172 0.09494 0.38052 0.0
H163 H 0.5107 0.0893 0.24178 0.0
H164 H 0.5348 0.09263 0.51649 0.0
H165 H 0.5242 0.99942 0.51777 0.0
H166 H 0.4959 0.96455 0.62904 0.0
H167 H 0.49455 0.96885 0.76678 0.0
C168 C 0.50082 0.5036 0.70637 0.0
C169 C 0.52249 0.53896 0.75875 0.0
C170 C 0.50322 0.50426 0.62838 0.0
C171 C 0.52732 0.54046 0.60111 0.0
C172 C 0.54917 0.57538 0.6537 0.0
C173 C 0.54673 0.57482 0.73162 0.0
C174 C 0.53067 0.54246 0.51874 0.0
C175 C 0.50779 0.52221 0.4608 0.0
C176 C 0.51089 0.52557 0.37818 0.0
C177 C 0.48767 0.52027 0.32343 0.0
C178 C 0.48963 0.52314 0.2451 0.0
C179 C 0.51477 0.53085 0.21964 0.0
H180 H 0.55396 0.53569 0.39305 0.0
C181 C 0.53788 0.53545 0.27427 0.0
C182 C 0.53597 0.5328 0.35279 0.0
H183 H 0.55745 0.54106 0.25649 0.0
H184 H 0.48203 0.47526 0.72555 0.0
H185 H 0.48639 0.47602 0.5901 0.0
H186 H 0.56809 0.60345 0.63435 0.0
H187 H 0.56395 0.60243 0.77055 0.0
H188 H 0.5526 0.5636 0.50557 0.0
H189 H 0.48575 0.50475 0.47377 0.0
H190 H 0.46801 0.51427 0.34135 0.0
H191 H 0.47131 0.5191 0.20456 0.0
C192 C 0.18401 0.50814 0.01429 0.0
C193 C 0.15663 0.46811 0.0115 0.0
C194 C 0.20939 0.50791 0.01537 0.0
C195 C 0.20801 0.46754 0.0136 0.0
C196 C 0.18078 0.42769 0.01219 0.0
C197 C 0.15543 0.4279 0.01062 0.0
C198 C 0.23437 0.46546 0.0149 0.0
C199 C 0.25879 0.49729 0.98913 0.0
C200 C 0.28435 0.49368 0.9863 0.0
C201 C 0.30259 0.51703 0.9319 0.0
C202 C 0.32643 0.51386 0.92617 0.0
C203 C 0.33292 0.48769 0.97555 0.0
H204 H 0.27823 0.45074 0.08116 0.0
C205 C 0.31518 0.4653 0.03155 0.0
C206 C 0.29117 0.4682 0.0369 0.0
H207 H 0.31953 0.44481 0.07043 0.0
H208 H 0.18596 0.53981 0.01669 0.0
H209 H 0.23003 0.53943 0.01892 0.0
H210 H 0.17901 0.39609 0.01113 0.0
H211 H 0.1348 0.39634 0.00732 0.0
H212 H 0.2327 0.43506 0.03319 0.0
H213 H 0.25946 0.52584 0.96415 0.0
H214 H 0.29814 0.53736 0.8928 0.0
H215 H 0.3399 0.53212 0.8832 0.0
C216 C 0.75361 0.28768 0.03145 0.0
C217 C 0.73741 0.24282 0.00401 0.0
C218 C 0.78332 0.31512 0.02649 0.0
C219 C 0.79757 0.29832 -0.0062 0.0
C220 C 0.78141 0.25345 0.96695 0.0
C221 C 0.7517 0.2261 0.97153 0.0
C222 C 0.82934 0.32608 0.98903 0.0
C223 C 0.84416 0.37057 0.98536 0.0
C224 C 0.87572 0.39896 0.97873 0.0
C225 C 0.88603 0.44067 0.94869 0.0
C226 C 0.91554 0.46943 0.94388 0.0
C227 C 0.93579 0.45758 0.97 0.0
H228 H 0.88892 0.35523 0.02953 0.0
C229 C 0.92556 0.4157 -6e-05 0.0
C230 C 0.89582 0.38664 0.00426 0.0
H231 H 0.94055 0.40561 0.02115 0.0
H232 H 0.74331 0.30161 0.05689 0.0
H233 H 0.7951 0.34915 0.0499 0.0
H234 H 0.79182 0.23943 0.94227 0.0
H235 H 0.74007 0.19151 0.95122 0.0
H236 H 0.84031 0.30886 0.9842 0.0
H237 H 0.83241 0.38709 0.9831 0.0
H238 H 0.87117 0.45124 0.92896 0.0
H239 H 0.92246 0.50137 0.92061 0.0
C240 C 0.50095 0.88316 0.03012 0.0
C241 C 0.52592 0.92511 0.02288 0.0
C242 C 0.50201 0.84473 0.03091 0.0
C243 C 0.52814 0.84752 0.0245 0.0
C244 C 0.55297 0.88952 0.01814 0.0
C245 C 0.5519 0.92755 0.01701 0.0
C246 C 0.53116 0.80837 0.0257 0.0
C247 C 0.5087 0.7656 0.01117 0.0
C248 C 0.5124 0.72722 0.00762 0.0
C249 C 0.48919 0.68711 0.96872 0.0
C250 C 0.49143 0.65022 0.96355 0.0
C251 C 0.51695 0.6521 -0.00231 0.0
H252 H 0.55613 0.75877 0.07501 0.0
C253 C 0.54018 0.69207 0.03737 0.0
C254 C 0.53794 0.72913 0.04249 0.0
H255 H 0.56005 0.6947 0.06511 0.0
H256 H 0.48062 0.87997 0.03519 0.0
H257 H 0.48247 0.81324 0.03764 0.0
H258 H 0.57346 0.89305 0.01353 0.0
H259 H 0.57172 0.95907 0.01174 0.0
H260 H 0.55327 0.8158 0.03455 0.0
H261 H 0.48664 0.75825 -0.00333 0.0
H262 H 0.46918 0.68428 0.94167 0.0
H263 H 0.47292 0.62007 0.93287 0.0
C264 C 0.86562 0.5941 0.98897 0.0
C265 C 0.89333 0.63264 0.01381 0.0
C266 C 0.84005 0.59213 -0.00288 0.0
C267 C 0.84156 0.62864 0.031 0.0
C268 C 0.86929 0.66682 0.05657 0.0
C269 C 0.89476 0.6688 0.0483 0.0
C270 C 0.8152 0.62964 0.03783 0.0
C271 C 0.7875 0.59374 0.02906 0.0
C272 C 0.76157 0.59621 0.03449 0.0
C273 C 0.7357 0.55785 0.04977 0.0
C274 C 0.71078 0.55859 0.05376 0.0
C275 C 0.71099 0.59777 0.04214 0.0
H276 H 0.78057 0.6652 0.00702 0.0
C277 C 0.73677 0.63603 0.02596 0.0
C278 C 0.76164 0.63527 0.02191 0.0
H279 H 0.73758 0.66651 0.01458 0.0
H280 H 0.86364 0.56582 0.96115 0.0
H281 H 0.81931 0.56234 0.97494 0.0
H282 H 0.87133 0.69554 0.08285 0.0
H283 H 0.91565 0.6988 0.0692 0.0
H284 H 0.81918 0.66184 0.05289 0.0
H285 H 0.78346 0.56092 0.02006 0.0
H286 H 0.73479 0.52713 0.05907 0.0
H287 H 0.69142 0.52853 0.06667 0.0
C288 C 0.13104 0.64021 0.9585 0.0
C289 C 0.11279 0.65234 0.98177 0.0
C290 C 0.16082 0.67152 0.9604 0.0
C291 C 0.17329 0.71609 0.98536 0.0
C292 C 0.15517 0.72821 0.0093 0.0
C293 C 0.12524 0.69682 0.00713 0.0
C294 C 0.20522 0.75004 0.99051 0.0
C295 C 0.22237 0.747 0.94722 0.0
C296 C 0.25448 0.77985 0.95341 0.0
C297 C 0.26823 0.7826 0.8907 0.0
C298 C 0.29843 0.81198 0.89483 0.0
C299 C 0.31577 0.83897 0.96237 0.0
H300 H 0.26234 0.80497 0.07154 0.0
C301 C 0.30207 0.83594 0.02546 0.0
C302 C 0.27184 0.80679 0.02114 0.0
H303 H 0.31469 0.8565 0.07818 0.0
H304 H 0.12242 0.60627 0.93911 0.0
H305 H 0.17403 0.66026 0.94388 0.0
H306 H 0.16417 0.76216 0.02962 0.0
H307 H 0.11196 0.70739 0.02585 0.0
H308 H 0.21456 0.77913 0.02961 0.0
H309 H 0.21242 0.72002 0.90306 0.0
H310 H 0.25554 0.76195 0.83806 0.0
H311 H 0.30826 0.81312 0.84543 0.0
C312 C 0.54328 0.41944 0.97955 0.0
C313 C 0.51847 0.41933 0.99018 0.0
C314 C 0.54279 0.37986 0.9794 0.0
C315 C 0.51747 0.33904 0.99039 0.0
C316 C 0.49274 0.33911 0.00066 0.0
C317 C 0.49321 0.37855 0.00074 0.0
C318 C 0.51533 0.29552 0.98958 0.0
C319 C 0.53839 0.29105 -0.00336 0.0
C320 C 0.53593 0.24727 -0.00232 0.0
C321 C 0.56074 0.24635 0.02784 0.0
C322 C 0.5596 0.20632 0.03029 0.0
C323 C 0.53359 0.16591 0.00209 0.0
H324 H 0.49053 0.20589 0.94216 0.0
C325 C 0.50883 0.16681 0.97064 0.0
C326 C 0.50998 0.20689 0.96819 0.0
H327 H 0.48846 0.13649 0.94775 0.0
H328 H 0.5631 0.4501 0.97075 0.0
H329 H 0.56219 0.3816 0.96939 0.0
H330 H 0.47283 0.30839 0.00884 0.0
H331 H 0.47363 0.37692 0.00899 0.0
H332 H 0.49359 0.26589 0.98617 0.0
H333 H 0.56031 0.32057 0.00573 0.0
H334 H 0.58114 0.27677 0.05036 0.0
H335 H 0.57918 0.20717 0.05471 0.0
loop_
_geom_bond_atom_site_label_1
_geom_bond_atom_site_label_2
_geom_bond_distance
_geom_bond_site_symmetry_2
_ccdc_geom_bond_type
Tb0 C9 2.764 . S
Tb0 O10 2.325 . S
Tb0 O13 2.299 1_656 S
Tb0 O17 2.322 1_655 S
Tb0 O18 2.349 . S
Tb0 O21 2.415 1_556 S
Tb0 O22 2.399 . S
Tb1 O11 2.322 1_455 S
Tb1 O12 2.349 . S
Tb1 O14 2.415 1_554 S
Tb1 O15 2.399 . S
Tb1 O16 2.325 . S
Tb1 O19 2.303 1_554 S
Tb1 C30 2.764 . S
C2 O18 1.261 . S
C2 O19 1.257 1_655 S
C3 C6 1.358 . S
C3 C7 1.332 1_556 S
C3 C9 1.504 . S
C4 C5 1.373 1_554 S
C4 C8 1.308 . S
C5 C4 1.373 1_556 S
C5 C6 1.429 . S
C5 H32 0.932 . S
C6 C3 1.358 . S
C6 C5 1.429 . S
C6 H33 0.930 . S
C7 C3 1.332 1_554 S
C7 C8 1.394 . S
C7 H34 0.932 . S
C8 C4 1.308 . S
C8 C7 1.394 . S
C8 H35 0.929 . S
C9 Tb0 2.764 . S
C9 C3 1.504 . S
C9 O21 1.239 1_556 S
C9 O22 1.263 . S
O10 Tb0 2.325 . S
O10 C20 1.236 . S
O11 Tb1 2.322 1_655 S
O11 C20 1.257 1_554 S
O12 Tb1 2.349 . S
O12 C23 1.261 . S
O13 Tb0 2.299 1_454 S
O13 C23 1.260 . S
O14 Tb1 2.415 1_556 S
O14 C30 1.239 1_556 S
O15 Tb1 2.399 . S
O15 C30 1.263 . S
O16 Tb1 2.325 . S
O16 C31 1.236 . S
O17 Tb0 2.322 1_455 S
O17 C31 1.257 1_556 S
O18 Tb0 2.349 . S
O18 C2 1.261 . S
O19 Tb1 2.303 1_556 S
O19 C2 1.257 1_455 S
C20 O10 1.236 . S
C20 O11 1.257 1_556 S
O21 Tb0 2.415 1_554 S
O21 C9 1.239 1_554 S
O22 Tb0 2.399 . S
O22 C9 1.263 . S
C23 O12 1.261 . S
C23 O13 1.260 . S
C24 C27 1.358 . S
C24 C28 1.332 1_554 S
C24 C30 1.504 . S
C25 C26 1.373 1_556 S
C25 C29 1.308 . S
C26 C25 1.373 1_554 S
C26 C27 1.429 . S
C26 H36 0.932 . S
C27 C24 1.358 . S
C27 C26 1.429 . S
C27 H37 0.930 . S
C28 C24 1.332 1_556 S
C28 C29 1.394 . S
C28 H38 0.932 . S
C29 C25 1.308 . S
C29 C28 1.394 . S
C29 H39 0.929 . S
C30 Tb1 2.764 . S
C30 O14 1.239 1_554 S
C30 O15 1.263 . S
C30 C24 1.504 . S
C31 O16 1.236 . S
C31 O17 1.257 1_554 S
H32 C5 0.932 . S
H33 C6 0.930 . S
H34 C7 0.932 . S
H35 C8 0.929 . S
H36 C26 0.932 . S
H37 C27 0.930 . S
H38 C28 0.932 . S
H39 C29 0.929 . S
Tb40 C49 2.764 . S
Tb40 O50 2.325 . S
Tb40 O53 2.303 1_556 S
Tb40 O57 2.322 1_565 S
Tb40 O58 2.349 . S
Tb40 O61 2.415 1_556 S
Tb40 O62 2.399 . S
Tb41 O51 2.322 1_545 S
Tb41 O52 2.349 . S
Tb41 O54 2.415 1_554 S
Tb41 O55 2.399 . S
Tb41 O56 2.325 . S
Tb41 O59 2.303 1_554 S
Tb41 C70 2.764 . S
C42 O58 1.261 . S
C42 O59 1.257 1_565 S
C43 C46 1.358 . S
C43 C47 1.332 1_556 S
C43 C49 1.504 . S
C44 C45 1.373 . S
C44 C48 1.308 1_556 S
C45 C44 1.373 . S
C45 C46 1.429 . S
C45 H72 0.932 . S
C46 C43 1.358 . S
C46 C45 1.429 . S
C46 H73 0.930 . S
C47 C43 1.332 1_554 S
C47 C48 1.394 . S
C47 H74 0.932 . S
C48 C44 1.308 1_554 S
C48 C47 1.394 . S
C48 H75 0.929 . S
C49 Tb40 2.764 . S
C49 C43 1.504 . S
C49 O61 1.239 1_556 S
C49 O62 1.263 . S
O50 Tb40 2.325 . S
O50 C60 1.236 1_556 S
O51 Tb41 2.322 1_565 S
O51 C60 1.257 . S
O52 Tb41 2.349 . S
O52 C63 1.261 . S
O53 Tb40 2.303 1_554 S
O53 C63 1.257 1_565 S
O54 Tb41 2.415 1_556 S
O54 C70 1.239 1_556 S
O55 Tb41 2.399 . S
O55 C70 1.263 . S
O56 Tb41 2.325 . S
O56 C71 1.236 1_554 S
O57 Tb40 2.322 1_545 S
O57 C71 1.257 . S
O58 Tb40 2.349 . S
O58 C42 1.261 . S
O59 Tb41 2.303 1_556 S
O59 C42 1.257 1_545 S
C60 O50 1.236 1_554 S
C60 O51 1.257 . S
O61 Tb40 2.415 1_554 S
O61 C49 1.239 1_554 S
O62 Tb40 2.399 . S
O62 C49 1.263 . S
C63 O52 1.261 . S
C63 O53 1.257 1_545 S
C64 C67 1.358 . S
C64 C68 1.332 1_554 S
C64 C70 1.504 . S
C65 C66 1.373 . S
C65 C69 1.308 1_554 S
C66 C65 1.373 . S
C66 C67 1.429 . S
C66 H76 0.932 . S
C67 C64 1.358 . S
C67 C66 1.429 . S
C67 H77 0.930 . S
C68 C64 1.332 1_556 S
C68 C69 1.394 . S
C68 H78 0.932 . S
C69 C65 1.308 1_556 S
C69 C68 1.394 . S
C69 H79 0.929 . S
C70 Tb41 2.764 . S
C70 O54 1.239 1_554 S
C70 O55 1.263 . S
C70 C64 1.504 . S
C71 O56 1.236 1_556 S
C71 O57 1.257 . S
H72 C45 0.932 . S
H73 C46 0.930 . S
H74 C47 0.932 . S
H75 C48 0.929 . S
H76 C66 0.932 . S
H77 C67 0.930 . S
H78 C68 0.932 . S
H79 C69 0.929 . S
Tb80 C89 2.764 . S
Tb80 O90 2.325 . S
Tb80 O93 2.303 1_554 S
Tb80 O97 2.322 . S
Tb80 O98 2.349 . S
Tb80 O101 2.415 1_554 S
Tb80 O102 2.399 . S
Tb81 O91 2.322 . S
Tb81 O92 2.349 . S
Tb81 O94 2.415 1_556 S
Tb81 O95 2.399 . S
Tb81 O96 2.325 . S
Tb81 O99 2.303 1_556 S
Tb81 C110 2.764 . S
C82 O98 1.261 . S
C82 O99 1.257 . S
C83 C86 1.358 . S
C83 C87 1.332 1_554 S
C83 C89 1.504 . S
C84 C85 1.373 . S
C84 C88 1.308 1_554 S
C85 C84 1.373 . S
C85 C86 1.429 . S
C85 H112 0.932 . S
C86 C83 1.358 . S
C86 C85 1.429 . S
C86 H113 0.930 . S
C87 C83 1.332 1_556 S
C87 C88 1.394 . S
C87 H114 0.932 . S
C88 C84 1.308 1_556 S
C88 C87 1.394 . S
C88 H115 0.929 . S
C89 Tb80 2.764 . S
C89 C83 1.504 . S
C89 O101 1.239 1_554 S
C89 O102 1.263 . S
O90 Tb80 2.325 . S
O90 C100 1.236 1_554 S
O91 Tb81 2.322 . S
O91 C100 1.257 . S
O92 Tb81 2.349 . S
O92 C103 1.261 . S
O93 Tb80 2.303 1_556 S
O93 C103 1.257 . S
O94 Tb81 2.415 1_554 S
O94 C110 1.239 1_554 S
O95 Tb81 2.399 . S
O95 C110 1.263 . S
O96 Tb81 2.325 . S
O96 C111 1.236 1_556 S
O97 Tb80 2.322 . S
O97 C111 1.257 . S
O98 Tb80 2.349 . S
O98 C82 1.261 . S
O99 Tb81 2.303 1_554 S
O99 C82 1.257 . S
C100 O90 1.236 1_556 S
C100 O91 1.257 . S
O101 Tb80 2.415 1_556 S
O101 C89 1.239 1_556 S
O102 Tb80 2.399 . S
O102 C89 1.263 . S
C103 O92 1.261 . S
C103 O93 1.257 . S
C104 C107 1.358 . S
C104 C108 1.332 1_556 S
C104 C110 1.504 . S
C105 C106 1.373 . S
C105 C109 1.308 1_556 S
C106 C105 1.373 . S
C106 C107 1.429 . S
C106 H116 0.932 . S
C107 C104 1.358 . S
C107 C106 1.429 . S
C107 H117 0.930 . S
C108 C104 1.332 1_554 S
C108 C109 1.394 . S
C108 H118 0.932 . S
C109 C105 1.308 1_554 S
C109 C108 1.394 . S
C109 H119 0.929 . S
C110 Tb81 2.764 . S
C110 O94 1.239 1_556 S
C110 O95 1.263 . S
C110 C104 1.504 . S
C111 O96 1.236 1_554 S
C111 O97 1.257 . S
H112 C85 0.932 . S
H113 C86 0.930 . S
H114 C87 0.932 . S
H115 C88 0.929 . S
H116 C106 0.932 . S
H117 C107 0.930 . S
H118 C108 0.932 . S
H119 C109 0.929 . S
C120 C121 1.397 . S
C120 C122 1.383 . S
C120 H136 0.951 . S
C121 C120 1.397 . S
C121 C125 1.374 1_455 S
C122 C120 1.383 . S
C122 C123 1.402 1_455 S
C122 H137 0.951 . S
C123 C122 1.402 1_655 S
C123 C124 1.375 . S
C123 C126 1.481 . S
C124 C123 1.375 . S
C124 C125 1.367 . S
C124 H138 0.951 . S
C125 C121 1.374 1_655 S
C125 C124 1.367 . S
C125 H139 0.950 . S
C126 C123 1.481 . S
C126 C127 1.297 1_655 S
C126 H140 0.950 . S
C127 C126 1.297 1_455 S
C127 C128 1.479 . S
C127 H141 0.950 . S
C128 C127 1.479 . S
C128 C129 1.375 . S
C128 C134 1.404 1_455 S
C129 C128 1.375 . S
C129 C130 1.369 . S
C129 H142 0.950 . S
C130 C129 1.369 . S
C130 C131 1.392 . S
C130 H143 0.951 . S
C131 C130 1.392 . S
C131 C133 1.384 1_455 S
H132 C134 0.949 . S
C133 C131 1.384 1_655 S
C133 C134 1.385 . S
C133 H135 0.950 . S
C134 C128 1.404 1_655 S
C134 H132 0.949 . S
C134 C133 1.385 . S
H135 C133 0.950 . S
H136 C120 0.951 . S
H137 C122 0.951 . S
H138 C124 0.951 . S
H139 C125 0.950 . S
H140 C126 0.950 . S
H141 C127 0.950 . S
H142 C129 0.950 . S
H143 C130 0.951 . S
C144 C145 1.395 . S
C144 C146 1.383 . S
C144 H160 0.951 . S
C145 C144 1.395 . S
C145 C149 1.371 1_565 S
C146 C144 1.383 . S
C146 C147 1.402 1_565 S
C146 H161 0.951 . S
C147 C146 1.402 1_545 S
C147 C148 1.375 . S
C147 C150 1.481 . S
C148 C147 1.375 . S
C148 C149 1.367 . S
C148 H162 0.951 . S
C149 C145 1.371 1_545 S
C149 C148 1.367 . S
C149 H163 0.950 . S
C150 C147 1.481 . S
C150 C151 1.297 . S
C150 H164 0.950 . S
C151 C150 1.297 . S
C151 C152 1.479 . S
C151 H165 0.950 1_545 S
C152 C151 1.479 . S
C152 C153 1.375 1_545 S
C152 C158 1.404 . S
C153 C152 1.375 1_565 S
C153 C154 1.369 . S
C153 H166 0.950 . S
C154 C153 1.369 . S
C154 C155 1.392 1_565 S
C154 H167 0.951 . S
C155 C154 1.392 1_545 S
C155 C157 1.384 . S
H156 C158 0.949 . S
C157 C155 1.384 . S
C157 C158 1.385 . S
C157 H159 0.950 . S
C158 C152 1.404 . S
C158 H156 0.949 . S
C158 C157 1.385 . S
H159 C157 0.950 . S
H160 C144 0.951 . S
H161 C146 0.951 . S
H162 C148 0.951 . S
H163 C149 0.950 . S
H164 C150 0.950 . S
H165 C151 0.950 1_565 S
H166 C153 0.950 . S
H167 C154 0.951 . S
C168 C169 1.386 . S
C168 C170 1.383 . S
C168 H184 0.951 . S
C169 C168 1.386 . S
C169 C173 1.383 . S
C170 C168 1.383 . S
C170 C171 1.402 . S
C170 H185 0.951 . S
C171 C170 1.402 . S
C171 C172 1.375 . S
C171 C174 1.481 . S
C172 C171 1.375 . S
C172 C173 1.367 . S
C172 H186 0.951 . S
C173 C169 1.383 . S
C173 C172 1.367 . S
C173 H187 0.950 . S
C174 C171 1.481 . S
C174 C175 1.297 . S
C174 H188 0.950 . S
C175 C174 1.297 . S
C175 C176 1.479 . S
C175 H189 0.950 . S
C176 C175 1.479 . S
C176 C177 1.375 . S
C176 C182 1.404 . S
C177 C176 1.375 . S
C177 C178 1.369 . S
C177 H190 0.950 . S
C178 C177 1.369 . S
C178 C179 1.392 . S
C178 H191 0.951 . S
C179 C178 1.392 . S
C179 C181 1.384 . S
H180 C182 0.949 . S
C181 C179 1.384 . S
C181 C182 1.385 . S
C181 H183 0.950 . S
C182 C176 1.404 . S
C182 H180 0.949 . S
C182 C181 1.385 . S
H183 C181 0.950 . S
H184 C168 0.951 . S
H185 C170 0.951 . S
H186 C172 0.951 . S
H187 C173 0.950 . S
H188 C174 0.950 . S
H189 C175 0.950 . S
H190 C177 0.950 . S
H191 C178 0.951 . S
C192 C193 1.386 . S
C192 C194 1.383 . S
C192 H208 0.951 . S
C193 C192 1.386 . S
C193 C197 1.383 1_556 S
C194 C192 1.383 . S
C194 C195 1.402 1_556 S
C194 H209 0.951 . S
C195 C194 1.402 1_554 S
C195 C196 1.375 . S
C195 C198 1.481 . S
C196 C195 1.375 . S
C196 C197 1.367 . S
C196 H210 0.951 . S
C197 C193 1.383 1_554 S
C197 C196 1.367 . S
C197 H211 0.950 . S
C198 C195 1.481 . S
C198 C199 1.297 . S
C198 H212 0.950 . S
C199 C198 1.297 . S
C199 C200 1.479 . S
C199 H213 0.950 1_554 S
C200 C199 1.479 . S
C200 C201 1.375 1_554 S
C200 C206 1.404 . S
C201 C200 1.375 1_556 S
C201 C202 1.369 . S
C201 H214 0.950 . S
C202 C201 1.369 . S
C202 C203 1.390 1_556 S
C202 H215 0.951 . S
C203 C202 1.390 1_554 S
C203 C205 1.388 . S
H204 C206 0.949 . S
C205 C203 1.388 . S
C205 C206 1.385 . S
C205 H207 0.950 . S
C206 C200 1.404 . S
C206 H204 0.949 . S
C206 C205 1.385 . S
H207 C205 0.950 . S
H208 C192 0.951 . S
H209 C194 0.951 . S
H210 C196 0.951 . S
H211 C197 0.950 . S
H212 C198 0.950 . S
H213 C199 0.950 1_556 S
H214 C201 0.950 . S
H215 C202 0.951 . S
C216 C217 1.386 . S
C216 C218 1.383 . S
C216 H232 0.951 . S
C217 C216 1.386 . S
C217 C221 1.383 1_554 S
C218 C216 1.383 . S
C218 C219 1.402 . S
C218 H233 0.951 . S
C219 C218 1.402 . S
C219 C220 1.375 1_554 S
C219 C222 1.481 . S
C220 C219 1.375 1_556 S
C220 C221 1.367 . S
C220 H234 0.951 . S
C221 C217 1.383 1_556 S
C221 C220 1.367 . S
C221 H235 0.950 . S
C222 C219 1.481 . S
C222 C223 1.297 . S
C222 H236 0.950 1_554 S
C223 C222 1.297 . S
C223 C224 1.479 . S
C223 H237 0.950 . S
C224 C223 1.479 . S
C224 C225 1.375 . S
C224 C230 1.404 1_554 S
C225 C224 1.375 . S
C225 C226 1.369 . S
C225 H238 0.950 . S
C226 C225 1.369 . S
C226 C227 1.392 . S
C226 H239 0.951 . S
C227 C226 1.392 . S
C227 C229 1.384 1_554 S
H228 C230 0.949 . S
C229 C227 1.384 1_556 S
C229 C230 1.385 . S
C229 H231 0.950 . S
C230 C224 1.404 1_556 S
C230 H228 0.949 . S
C230 C229 1.385 . S
H231 C229 0.950 . S
H232 C216 0.951 . S
H233 C218 0.951 . S
H234 C220 0.951 . S
H235 C221 0.950 . S
H236 C222 0.950 1_556 S
H237 C223 0.950 . S
H238 C225 0.950 . S
H239 C226 0.951 . S
C240 C241 1.386 . S
C240 C242 1.383 . S
C240 H256 0.951 . S
C241 C240 1.386 . S
C241 C245 1.383 1_554 S
C242 C240 1.383 . S
C242 C243 1.402 1_554 S
C242 H257 0.951 . S
C243 C242 1.402 1_556 S
C243 C244 1.375 . S
C243 C246 1.481 . S
C244 C243 1.375 . S
C244 C245 1.367 . S
C244 H258 0.951 . S
C245 C241 1.383 1_556 S
C245 C244 1.367 . S
C245 H259 0.950 . S
C246 C243 1.481 . S
C246 C247 1.299 . S
C246 H260 0.950 . S
C247 C246 1.299 . S
C247 C248 1.480 . S
C247 H261 0.947 1_556 S
C248 C247 1.480 . S
C248 C249 1.375 1_556 S
C248 C254 1.404 . S
C249 C248 1.375 1_554 S
C249 C250 1.369 . S
C249 H262 0.950 . S
C250 C249 1.369 . S
C250 C251 1.392 . S
C250 H263 0.951 . S
C251 C250 1.392 . S
C251 C253 1.384 1_554 S
H252 C254 0.949 . S
C253 C251 1.384 1_556 S
C253 C254 1.385 . S
C253 H255 0.950 . S
C254 C248 1.404 . S
C254 H252 0.949 . S
C254 C253 1.385 . S
H255 C253 0.950 . S
H256 C240 0.951 . S
H257 C242 0.951 . S
H258 C244 0.951 . S
H259 C245 0.950 . S
H260 C246 0.950 . S
H261 C247 0.947 1_554 S
H262 C249 0.950 . S
H263 C250 0.951 . S
C264 C265 1.386 . S
C264 C266 1.383 . S
C264 H280 0.951 1_554 S
C265 C264 1.386 . S
C265 C269 1.383 . S
C266 C264 1.383 . S
C266 C267 1.402 . S
C266 H281 0.951 . S
C267 C266 1.402 . S
C267 C268 1.375 . S
C267 C270 1.481 . S
C268 C267 1.375 . S
C268 C269 1.367 . S
C268 H282 0.951 . S
C269 C265 1.383 . S
C269 C268 1.367 . S
C269 H283 0.950 . S
C270 C267 1.481 . S
C270 C271 1.297 . S
C270 H284 0.950 . S
C271 C270 1.297 . S
C271 C272 1.479 . S
C271 H285 0.950 . S
C272 C271 1.479 . S
C272 C273 1.375 . S
C272 C278 1.404 . S
C273 C272 1.375 . S
C273 C274 1.369 . S
C273 H286 0.950 . S
C274 C273 1.369 . S
C274 C275 1.392 . S
C274 H287 0.951 1_554 S
C275 C274 1.392 . S
C275 C277 1.384 . S
H276 C278 0.949 . S
C277 C275 1.384 . S
C277 C278 1.385 . S
C277 H279 0.950 . S
C278 C272 1.404 . S
C278 H276 0.949 . S
C278 C277 1.385 . S
H279 C277 0.950 . S
H280 C264 0.951 1_556 S
H281 C266 0.951 . S
H282 C268 0.951 . S
H283 C269 0.950 . S
H284 C270 0.950 . S
H285 C271 0.950 . S
H286 C273 0.950 . S
H287 C274 0.951 1_556 S
C288 C289 1.386 1_556 S
C288 C290 1.383 . S
C288 H304 0.951 . S
C289 C288 1.386 1_554 S
C289 C293 1.383 . S
C290 C288 1.383 . S
C290 C291 1.402 1_556 S
C290 H305 0.951 . S
C291 C290 1.402 1_554 S
C291 C292 1.375 . S
C291 C294 1.481 . S
C292 C291 1.375 . S
C292 C293 1.367 . S
C292 H306 0.951 . S
C293 C289 1.383 . S
C293 C292 1.367 . S
C293 H307 0.950 . S
C294 C291 1.481 . S
C294 C295 1.297 1_554 S
C294 H308 0.950 . S
C295 C294 1.297 1_556 S
C295 C296 1.479 . S
C295 H309 0.950 . S
C296 C295 1.479 . S
C296 C297 1.375 . S
C296 C302 1.404 1_556 S
C297 C296 1.375 . S
C297 C298 1.369 . S
C297 H310 0.950 . S
C298 C297 1.369 . S
C298 C299 1.392 . S
C298 H311 0.951 . S
C299 C298 1.392 . S
C299 C301 1.384 1_556 S
H300 C302 0.949 . S
C301 C299 1.384 1_554 S
C301 C302 1.385 . S
C301 H303 0.950 . S
C302 C296 1.404 1_554 S
C302 H300 0.949 . S
C302 C301 1.385 . S
H303 C301 0.950 . S
H304 C288 0.951 . S
H305 C290 0.951 . S
H306 C292 0.951 . S
H307 C293 0.950 . S
H308 C294 0.950 . S
H309 C295 0.950 . S
H310 C297 0.950 . S
H311 C298 0.951 . S
C312 C313 1.386 . S
C312 C314 1.383 1_556 S
C312 H328 0.951 . S
C313 C312 1.386 . S
C313 C317 1.383 . S
C314 C312 1.383 1_554 S
C314 C315 1.402 . S
C314 H329 0.951 . S
C315 C314 1.402 . S
C315 C316 1.375 1_554 S
C315 C318 1.481 . S
C316 C315 1.375 1_556 S
C316 C317 1.367 . S
C316 H330 0.952 . S
C317 C313 1.383 . S
C317 C316 1.367 . S
C317 H331 0.950 . S
C318 C315 1.481 . S
C318 C319 1.297 . S
C318 H332 0.950 . S
C319 C318 1.297 . S
C319 C320 1.479 . S
C319 H333 0.950 . S
C320 C319 1.479 . S
C320 C321 1.375 . S
C320 C326 1.404 . S
C321 C320 1.375 . S
C321 C322 1.369 . S
C321 H334 0.950 . S
C322 C321 1.369 . S
C322 C323 1.392 1_554 S
C322 H335 0.951 1_554 S
C323 C322 1.392 1_556 S
C323 C325 1.384 1_556 S
H324 C326 0.949 . S
C325 C323 1.384 1_554 S
C325 C326 1.385 . S
C325 H327 0.950 . S
C326 C320 1.404 . S
C326 H324 0.949 . S
C326 C325 1.385 . S
H327 C325 0.950 . S
H328 C312 0.951 . S
H329 C314 0.951 . S
H330 C316 0.952 . S
H331 C317 0.950 . S
H332 C318 0.950 . S
H333 C319 0.950 . S
H334 C321 0.950 . S
H335 C322 0.951 1_556 S
C121 C2 1.464 1_455 S
C131 C23 1.413 . S
C145 C63 1.454 1_565 S
C155 C42 1.502 1_545 S
C169 C103 1.473 . S
C179 C82 1.487 . S
C193 C25 0.731 . S
C203 C105 0.719 1_554 S
C217 C65 1.719 . S
C227 C20 1.740 1_554 S
C241 C60 2.476 . S
C251 C111 2.482 . S
C265 C4 0.742 . S
C275 C84 0.733 . S
C289 C31 1.736 . S
C299 C44 1.699 . S
C313 C100 2.498 . S
C323 C71 2.463 . S
