# Generated by pormake.
# Topology sml, (6)-cn, num edge types: 1
# Building blocks:
#     Node 0, Type 0, BuildingBlock: MIFKUJ_clean_sbu_0, # of connection points: 6
#     Node 1, Type 0, BuildingBlock: MIFKUJ_clean_sbu_0, # of connection points: 6
#     Node 2, Type 0, BuildingBlock: MIFKUJ_clean_sbu_0, # of connection points: 6
#     Node 3, Type 0, BuildingBlock: MIFKUJ_clean_sbu_0, # of connection points: 6
#     Node 4, Type 0, BuildingBlock: MIFKUJ_clean_sbu_0, # of connection points: 6
#     Node 5, Type 0, BuildingBlock: MIFKUJ_clean_sbu_0, # of connection points: 6
#     Edge 6, Type (0, 0), BuildingBlock: XIVTED_clean_linker_0, # of connection points: 2
#     Edge 7, Type (0, 0), BuildingBlock: XIVTED_clean_linker_0, # of connection points: 2
#     Edge 8, Type (0, 0), BuildingBlock: XIVTED_clean_linker_0, # of connection points: 2
#     Edge 9, Type (0, 0), BuildingBlock: XIVTED_clean_linker_0, # of connection points: 2
#     Edge 10, Type (0, 0), BuildingBlock: XIVTED_clean_linker_0, # of connection points: 2
#     Edge 11, Type (0, 0), BuildingBlock: XIVTED_clean_linker_0, # of connection points: 2
#     Edge 12, Type (0, 0), BuildingBlock: XIVTED_clean_linker_0, # of connection points: 2
#     Edge 13, Type (0, 0), BuildingBlock: XIVTED_clean_linker_0, # of connection points: 2
#     Edge 14, Type (0, 0), BuildingBlock: XIVTED_clean_linker_0, # of connection points: 2
#     Edge 15, Type (0, 0), BuildingBlock: XIVTED_clean_linker_0, # of connection points: 2
#     Edge 16, Type (0, 0), BuildingBlock: XIVTED_clean_linker_0, # of connection points: 2
#     Edge 17, Type (0, 0), BuildingBlock: XIVTED_clean_linker_0, # of connection points: 2
#     Edge 18, Type (0, 0), BuildingBlock: XIVTED_clean_linker_0, # of connection points: 2
#     Edge 19, Type (0, 0), BuildingBlock: XIVTED_clean_linker_0, # of connection points: 2
#     Edge 20, Type (0, 0), BuildingBlock: XIVTED_clean_linker_0, # of connection points: 2
#     Edge 21, Type (0, 0), BuildingBlock: XIVTED_clean_linker_0, # of connection points: 2
#     Edge 22, Type (0, 0), BuildingBlock: XIVTED_clean_linker_0, # of connection points: 2
#     Edge 23, Type (0, 0), BuildingBlock: XIVTED_clean_linker_0, # of connection points: 2
# Relax obj value: 0.138
# Max RMSD: 0.177
# Mean RMSD: 0.177
data_MOF--net-sml--node1-MIFKUJ_clean_sbu_0--edge1-XIVTED_clean_linker_0
_symmetry_space_group_name_H-M    P1
_symmetry_Int_Tables_number       1
_symmetry_cell_setting            triclinic
loop_
_symmetry_equiv_pos_as_xyz
'x, y, z'
_cell_length_a     38.477033
_cell_length_b     38.4358
_cell_length_c     18.304635
_cell_angle_alpha  89.516737
_cell_angle_beta   89.780753
_cell_angle_gamma 120.01425
loop_
_atom_site_label
_atom_site_type_symbol
_atom_site_fract_x
_atom_site_fract_y
_atom_site_fract_z
_atom_type_partial_charge
Zn0 Zn 0.21409 0.42205 0.06677 0.0
Zn1 Zn 0.19354 0.41536 0.90475 0.0
C2 C 0.22872 0.49717 0.10507 0.0
O3 O 0.26267 0.49787 0.11753 0.0
C4 C 0.19569 0.3438 0.87522 0.0
O5 O 0.16244 0.33532 0.84105 0.0
O6 O 0.22445 0.41364 0.17155 0.0
O7 O 0.16527 0.36922 0.03889 0.0
O8 O 0.14245 0.397 0.96249 0.0
C9 C 0.19383 0.40358 0.2121 0.0
O10 O 0.16044 0.39758 0.18161 0.0
O11 O 0.19974 0.46573 0.07784 0.0
C12 C 0.21399 0.42335 0.75743 0.0
O13 O 0.24746 0.43091 0.7897 0.0
O14 O 0.18372 0.41618 0.7968 0.0
O15 O 0.23998 0.46978 0.92529 0.0
O16 O 0.26596 0.44692 0.00648 0.0
O17 O 0.21295 0.37549 0.9132 0.0
C18 C 0.13585 0.37099 0.0119 0.0
C19 C 0.27052 0.47222 0.95655 0.0
Zn20 Zn 0.79117 0.22218 0.41022 0.0
Zn21 Zn 0.78435 0.20156 0.24882 0.0
C22 C 0.72681 0.23553 0.43268 0.0
O23 O 0.75815 0.27119 0.44368 0.0
C24 C 0.86153 0.20664 0.23267 0.0
O25 O 0.83969 0.16975 0.20899 0.0
O26 O 0.80701 0.23369 0.51536 0.0
O27 O 0.79749 0.1738 0.38919 0.0
O28 O 0.75108 0.14991 0.30557 0.0
C29 C 0.78565 0.20327 0.55615 0.0
O30 O 0.75819 0.16991 0.52596 0.0
O31 O 0.73245 0.20688 0.41399 0.0
C32 C 0.79934 0.22106 0.10159 0.0
O33 O 0.82494 0.25482 0.13314 0.0
O34 O 0.776 0.19094 0.14143 0.0
O35 O 0.77383 0.24682 0.26508 0.0
O36 O 0.82033 0.27353 0.34925 0.0
O37 O 0.84406 0.22424 0.25986 0.0
C38 C 0.76839 0.14389 0.35897 0.0
C39 C 0.80107 0.27769 0.29666 0.0
Zn40 Zn 0.58099 0.79559 0.75024 0.0
Zn41 Zn 0.59239 0.78662 0.58527 0.0
C42 C 0.51545 0.72686 0.81677 0.0
O43 O 0.51466 0.75589 0.85264 0.0
C44 C 0.65939 0.86721 0.57205 0.0
O45 O 0.67828 0.84796 0.55395 0.0
O46 O 0.58987 0.81822 0.85226 0.0
O47 O 0.63635 0.80438 0.72171 0.0
O48 O 0.61726 0.75879 0.63687 0.0
C49 C 0.60554 0.80311 0.89371 0.0
O50 O 0.61593 0.77829 0.86546 0.0
O51 O 0.54164 0.73568 0.76644 0.0
C52 C 0.58113 0.79851 0.43865 0.0
O53 O 0.56642 0.81857 0.47189 0.0
O54 O 0.5938 0.77944 0.47701 0.0
O55 O 0.53529 0.76561 0.61225 0.0
O56 O 0.55023 0.8155 0.68703 0.0
O57 O 0.62324 0.84718 0.59464 0.0
C58 C 0.63938 0.77653 0.69084 0.0
C59 C 0.52631 0.78992 0.64142 0.0
Zn60 Zn 0.7955 0.5892 0.07908 0.0
Zn61 Zn 0.8165 0.59885 0.91475 0.0
C62 C 0.79671 0.52332 0.14466 0.0
O63 O 0.76573 0.52223 0.1773 0.0
C64 C 0.80465 0.66709 0.90422 0.0
O65 O 0.84296 0.68582 0.88657 0.0
O66 O 0.78174 0.59861 0.18109 0.0
O67 O 0.84176 0.64413 0.04803 0.0
O68 O 0.86851 0.62276 0.96713 0.0
C69 C 0.81231 0.6138 0.22234 0.0
O70 O 0.84751 0.62385 0.19372 0.0
O71 O 0.816 0.55017 0.09599 0.0
C72 C 0.79483 0.58917 0.76783 0.0
O73 O 0.75983 0.57493 0.80076 0.0
O74 O 0.82607 0.60084 0.80649 0.0
O75 O 0.77933 0.54174 0.94142 0.0
O76 O 0.74502 0.55736 0.01765 0.0
O77 O 0.78778 0.63053 0.92502 0.0
C78 C 0.8727 0.64591 0.0193 0.0
C79 C 0.74649 0.53274 0.97321 0.0
Zn80 Zn 0.21073 0.78104 0.40991 0.0
Zn81 Zn 0.22322 0.80599 0.24703 0.0
C82 C 0.2731 0.77034 0.45268 0.0
O83 O 0.24063 0.73521 0.46321 0.0
C84 C 0.14512 0.79782 0.23821 0.0
O85 O 0.16632 0.83595 0.21933 0.0
O86 O 0.18982 0.76716 0.51404 0.0
O87 O 0.20387 0.82877 0.38357 0.0
O88 O 0.25226 0.85713 0.30213 0.0
C89 C 0.20828 0.79795 0.55427 0.0
O90 O 0.2347 0.83219 0.52362 0.0
O91 O 0.26946 0.79878 0.42479 0.0
C92 C 0.21009 0.78392 0.10111 0.0
O93 O 0.18841 0.74954 0.1359 0.0
O94 O 0.23079 0.81555 0.13819 0.0
O95 O 0.24045 0.76647 0.27075 0.0
O96 O 0.18896 0.73143 0.34429 0.0
O97 O 0.16324 0.77953 0.25918 0.0
C98 C 0.23329 0.86023 0.35609 0.0
C99 C 0.21418 0.7328 0.29728 0.0
Zn100 Zn 0.43576 0.22142 0.74798 0.0
Zn101 Zn 0.39853 0.20678 0.57157 0.0
C102 C 0.51478 0.27526 0.79798 0.0
O103 O 0.5166 0.24202 0.7974 0.0
C104 C 0.33768 0.12631 0.59235 0.0
O105 O 0.31548 0.14303 0.58209 0.0
O106 O 0.41943 0.18936 0.84197 0.0
O107 O 0.39173 0.23411 0.72596 0.0
O108 O 0.36748 0.23005 0.61568 0.0
C109 C 0.409 0.20677 0.8887 0.0
O110 O 0.41024 0.24041 0.86993 0.0
O111 O 0.48301 0.27432 0.77643 0.0
C112 C 0.40193 0.18427 0.42738 0.0
O113 O 0.42009 0.16763 0.46131 0.0
O114 O 0.38998 0.20436 0.46392 0.0
O115 O 0.45842 0.23732 0.58384 0.0
O116 O 0.45705 0.19786 0.67257 0.0
O117 O 0.37533 0.14881 0.59944 0.0
C118 C 0.36813 0.23797 0.68279 0.0
C119 C 0.47313 0.21787 0.61432 0.0
H120 H 0.30009 0.23101 0.62085 0.0
H121 H 0.26402 0.35186 0.93705 0.0
H122 H 0.37463 0.27614 0.81156 0.0
H123 H 0.17743 0.2878 0.76886 0.0
H124 H 0.30467 0.32378 0.89253 0.0
H125 H 0.25518 0.25251 0.67283 0.0
C126 C 0.30704 0.24546 0.67357 0.0
C127 C 0.34108 0.25159 0.71208 0.0
C128 C 0.27657 0.31553 0.86582 0.0
C129 C 0.28984 0.27611 0.77195 0.0
C130 C 0.25328 0.33145 0.8914 0.0
C131 C 0.21734 0.3223 0.85648 0.0
C132 C 0.26408 0.29062 0.80436 0.0
C133 C 0.20492 0.29569 0.79751 0.0
C134 C 0.28127 0.25747 0.70344 0.0
C135 C 0.34851 0.2703 0.78034 0.0
N136 N 0.22846 0.28113 0.77281 0.0
N137 N 0.32322 0.282 0.80792 0.0
H138 H 0.07278 0.38494 0.00916 0.0
H139 H 0.91296 0.17942 0.19644 0.0
H140 H 0.10685 0.30025 0.0884 0.0
H141 H 0.90716 0.28818 0.21738 0.0
H142 H 0.98084 0.21926 0.14422 0.0
H143 H 0.00734 0.3452 0.06973 0.0
C144 C 0.06634 0.35777 0.03864 0.0
C145 C 0.09523 0.3458 0.04364 0.0
C146 C 0.96476 0.23433 0.16109 0.0
C147 C 0.02055 0.3003 0.11281 0.0
C148 C 0.92615 0.21168 0.19098 0.0
C149 C 0.90442 0.2305 0.21148 0.0
C150 C 0.98123 0.27585 0.14998 0.0
C151 C 0.92288 0.27241 0.20285 0.0
C152 C 0.02918 0.33536 0.07371 0.0
C153 C 0.08541 0.31054 0.08326 0.0
N154 N 0.95997 0.29358 0.17179 0.0
N155 N 0.04876 0.28883 0.11594 0.0
H156 H 0.69366 0.07808 0.34311 0.0
H157 H 0.73868 0.92356 0.55212 0.0
H158 H 0.80742 0.117 0.44767 0.0
H159 H 0.61971 0.90803 0.54236 0.0
H160 H 0.76602 0.99192 0.50236 0.0
H161 H 0.66733 0.01194 0.40163 0.0
C162 C 0.71321 0.07261 0.37783 0.0
C163 C 0.75283 0.10306 0.39038 0.0
C164 C 0.734 0.97363 0.51192 0.0
C165 C 0.72292 0.02751 0.45727 0.0
C166 C 0.7184 0.9347 0.54036 0.0
C167 C 0.6769 0.91014 0.55167 0.0
C168 C 0.70779 0.98766 0.49294 0.0
C169 C 0.65193 0.92603 0.53512 0.0
C170 C 0.69806 0.035 0.41168 0.0
C171 C 0.77669 0.09438 0.43652 0.0
N172 N 0.6677 0.96357 0.50566 0.0
N173 N 0.76147 0.0573 0.46789 0.0
H174 H 0.63291 0.70318 0.67316 0.0
H175 H 0.82894 0.74691 0.88491 0.0
H176 H 0.70372 0.81618 0.78234 0.0
H177 H 0.72427 0.62854 0.87687 0.0
H178 H 0.78879 0.77516 0.83591 0.0
H179 H 0.67233 0.67737 0.73266 0.0
C180 C 0.65704 0.72273 0.70907 0.0
C181 C 0.66513 0.76195 0.72266 0.0
C182 C 0.77465 0.74309 0.84581 0.0
C183 C 0.71033 0.73252 0.79084 0.0
C184 C 0.79744 0.72697 0.87376 0.0
C185 C 0.7799 0.68533 0.88505 0.0
C186 C 0.73441 0.71723 0.82731 0.0
C187 C 0.73899 0.66082 0.86946 0.0
C188 C 0.67924 0.70783 0.74351 0.0
C189 C 0.69652 0.78577 0.77037 0.0
N190 N 0.7178 0.67707 0.84036 0.0
N191 N 0.71825 0.77078 0.80242 0.0
H192 H 0.09944 0.71679 0.21999 0.0
H193 H 0.89805 0.7121 0.10593 0.0
H194 H 0.09332 0.82591 0.21174 0.0
H195 H 0.9371 0.63472 0.01146 0.0
H196 H 0.96305 0.74924 0.16788 0.0
H197 H 0.03185 0.68018 0.16983 0.0
C198 C 0.08361 0.73295 0.20899 0.0
C199 C 0.10212 0.77455 0.21966 0.0
C200 C 0.95724 0.7242 0.1333 0.0
C201 C 0.02488 0.73274 0.16214 0.0
C202 C 0.92034 0.7031 0.09795 0.0
C203 C 0.91237 0.67051 0.05309 0.0
C204 C 0.98573 0.71187 0.12505 0.0
C205 C 0.94214 0.6599 0.0449 0.0
C206 C 0.04521 0.71207 0.17973 0.0
C207 C 0.08019 0.79389 0.20391 0.0
N208 N 0.97735 0.68029 0.08107 0.0
N209 N 0.04262 0.77281 0.17577 0.0
H210 H 0.25877 0.06731 0.58639 0.0
H211 H 0.30731 0.92735 0.34343 0.0
H212 H 0.37908 0.0884 0.55457 0.0
H213 H 0.1928 0.88132 0.45297 0.0
H214 H 0.33266 0.98975 0.41144 0.0
H215 H 0.23238 1.00066 0.53272 0.0
C216 C 0.27958 0.05764 0.56938 0.0
C217 C 0.32117 0.08351 0.57463 0.0
C218 C 0.302 0.96595 0.42061 0.0
C219 C 0.29129 0.00804 0.5116 0.0
C220 C 0.28738 0.93053 0.38125 0.0
C221 C 0.24785 0.8992 0.39238 0.0
C222 C 0.27673 0.97034 0.4706 0.0
C223 C 0.22347 0.9048 0.4427 0.0
C224 C 0.26451 0.01972 0.53858 0.0
C225 C 0.3468 0.06949 0.55166 0.0
N226 N 0.23824 0.93983 0.47972 0.0
N227 N 0.33146 0.03295 0.52003 0.0
H228 H 0.27403 0.43843 0.66026 0.0
H229 H 0.13277 0.38117 0.31051 0.0
H230 H 0.14806 0.40137 0.67133 0.0
H231 H 0.26005 0.42443 0.29717 0.0
H232 H 0.13735 0.38517 0.4431 0.0
H233 H 0.26912 0.43126 0.52791 0.0
C234 C 0.24531 0.42889 0.63486 0.0
C235 C 0.21137 0.42055 0.67699 0.0
C236 C 0.16428 0.39366 0.41132 0.0
C237 C 0.20556 0.41208 0.52522 0.0
C238 C 0.16171 0.39129 0.33548 0.0
C239 C 0.19616 0.40265 0.29258 0.0
C240 C 0.20159 0.40754 0.44482 0.0
C241 C 0.23275 0.41538 0.3281 0.0
C242 C 0.24255 0.42474 0.5592 0.0
C243 C 0.175 0.40825 0.641 0.0
N244 N 0.23454 0.41764 0.40223 0.0
N245 N 0.17306 0.40434 0.56716 0.0
H246 H 0.84517 0.28048 0.00319 0.0
H247 H 0.74529 0.14253 0.65507 0.0
H248 H 0.75201 0.15586 0.01689 0.0
H249 H 0.83506 0.26834 0.63991 0.0
H250 H 0.74962 0.14633 0.78765 0.0
H251 H 0.84378 0.27607 0.87034 0.0
C252 C 0.82438 0.25215 0.97827 0.0
C253 C 0.79854 0.21848 0.02121 0.0
C254 C 0.76846 0.17311 0.75545 0.0
C255 C 0.79691 0.21327 0.86901 0.0
C256 C 0.76605 0.17099 0.67962 0.0
C257 C 0.78976 0.20526 0.63632 0.0
C258 C 0.79475 0.20978 0.78846 0.0
C259 C 0.81619 0.24122 0.67122 0.0
C260 C 0.82366 0.24968 0.90235 0.0
C261 C 0.77236 0.18258 0.9859 0.0
N262 N 0.81789 0.24257 0.74538 0.0
N263 N 0.7722 0.18094 0.91179 0.0
H264 H 0.55566 0.83549 0.34192 0.0
H265 H 0.64172 0.77864 0.99261 0.0
H266 H 0.61639 0.76676 0.35211 0.0
H267 H 0.57187 0.83802 0.97732 0.0
H268 H 0.63729 0.77924 0.12517 0.0
H269 H 0.56469 0.84061 0.20933 0.0
C270 C 0.57081 0.82136 0.31629 0.0
C271 C 0.58519 0.80052 0.3582 0.0
C272 C 0.62308 0.79235 0.093 0.0
C273 C 0.59586 0.80658 0.20645 0.0
C274 C 0.6257 0.79215 0.01716 0.0
C275 C 0.6069 0.80809 0.97375 0.0
C276 C 0.60142 0.80853 0.12602 0.0
C277 C 0.5868 0.8254 0.00871 0.0
C278 C 0.57601 0.8244 0.24057 0.0
C279 C 0.60467 0.78296 0.32201 0.0
N280 N 0.58435 0.82493 0.08293 0.0
N281 N 0.60945 0.78642 0.24825 0.0
H282 H 0.86269 0.62363 0.68204 0.0
H283 H 0.74326 0.58205 0.30577 0.0
H284 H 0.73355 0.56583 0.67057 0.0
H285 H 0.87248 0.64697 0.32162 0.0
H286 H 0.73861 0.57744 0.43942 0.0
H287 H 0.86656 0.6329 0.54952 0.0
C288 C 0.83514 0.61275 0.65165 0.0
C289 C 0.79775 0.59382 0.68744 0.0
C290 C 0.76796 0.59294 0.41355 0.0
C291 C 0.80191 0.60452 0.53567 0.0
C292 C 0.77061 0.59575 0.33731 0.0
C293 C 0.8083 0.61471 0.3025 0.0
C294 C 0.80325 0.60914 0.45502 0.0
C295 C 0.84276 0.63181 0.34605 0.0
C296 C 0.83735 0.6182 0.57597 0.0
C297 C 0.76303 0.58053 0.64524 0.0
N298 N 0.8394 0.62839 0.4199 0.0
N299 N 0.76595 0.58607 0.57159 0.0
H300 H 0.23825 0.86016 0.64912 0.0
H301 H 0.16988 0.7211 0.00822 0.0
H302 H 0.16888 0.73064 0.64286 0.0
H303 H 0.24617 0.85009 0.0102 0.0
H304 H 0.166 0.72389 0.87543 0.0
H305 H 0.23723 0.85683 0.78188 0.0
C306 C 0.22253 0.83093 0.6757 0.0
C307 C 0.20382 0.79556 0.6347 0.0
C308 C 0.18359 0.75158 0.90486 0.0
C309 C 0.2028 0.79159 0.78743 0.0
C310 C 0.18591 0.75006 0.98076 0.0
C311 C 0.20853 0.78546 0.02048 0.0
C312 C 0.20396 0.78879 0.86822 0.0
C313 C 0.22852 0.82205 0.98186 0.0
C314 C 0.22206 0.82909 0.75169 0.0
C315 C 0.1837 0.75864 0.67231 0.0
N316 N 0.22575 0.82275 0.9079 0.0
N317 N 0.18392 0.75759 0.74668 0.0
H318 H 0.36003 0.20906 0.34256 0.0
H319 H 0.42937 0.15789 0.96585 0.0
H320 H 0.43007 0.14977 0.33098 0.0
H321 H 0.36618 0.22382 0.98467 0.0
H322 H 0.42105 0.1447 0.09818 0.0
H323 H 0.35365 0.2054 0.21021 0.0
C324 C 0.374 0.19517 0.31216 0.0
C325 C 0.3961 0.18023 0.34771 0.0
C326 C 0.40858 0.16159 0.07301 0.0
C327 C 0.38899 0.17597 0.19591 0.0
C328 C 0.41313 0.1689 -0.00239 0.0
C329 C 0.39895 0.19246 0.9648 0.0
C330 C 0.38959 0.17785 0.11512 0.0
C331 C 0.37816 0.20608 0.00812 0.0
C332 C 0.37025 0.19297 0.23652 0.0
C333 C 0.41308 0.16203 0.30561 0.0
N334 N 0.37442 0.19888 0.08106 0.0
N335 N 0.4095 0.16075 0.23171 0.0
H336 H 0.28856 0.57364 0.12356 0.0
H337 H 0.15329 0.65343 0.30722 0.0
H338 H 0.15979 0.49904 0.13931 0.0
H339 H 0.27462 0.72923 0.2283 0.0
H340 H 0.15454 0.59474 0.25675 0.0
H341 H 0.28351 0.6297 0.17144 0.0
C342 C 0.25911 0.56916 0.13674 0.0
C343 C 0.22455 0.5317 0.1274 0.0
C344 C 0.18075 0.62433 0.25064 0.0
C345 C 0.21847 0.59588 0.18334 0.0
C346 C 0.18016 0.65768 0.27983 0.0
C347 C 0.21387 0.69624 0.27191 0.0
C348 C 0.21546 0.6298 0.21438 0.0
C349 C 0.24783 0.70017 0.2355 0.0
C350 C 0.25621 0.60122 0.16412 0.0
C351 C 0.18713 0.52762 0.14524 0.0
N352 N 0.24774 0.66747 0.2084 0.0
N353 N 0.18505 0.55934 0.17305 0.0
H354 H 0.65943 0.16598 0.4774 0.0
H355 H 0.52393 0.2691 0.50915 0.0
H356 H 0.70252 0.29069 0.42489 0.0
H357 H 0.50285 0.16745 0.64367 0.0
H358 H 0.58315 0.27054 0.45679 0.0
H359 H 0.59507 0.15915 0.51706 0.0
C360 C 0.65508 0.19168 0.4731 0.0
C361 C 0.68628 0.229 0.44815 0.0
C362 C 0.56548 0.24786 0.49762 0.0
C363 C 0.61319 0.2214 0.49294 0.0
C364 C 0.53164 0.24696 0.5275 0.0
C365 C 0.50856 0.2183 0.58135 0.0
C366 C 0.57609 0.21956 0.52085 0.0
C367 C 0.52 0.1903 0.60279 0.0
C368 C 0.61859 0.18786 0.49623 0.0
C369 C 0.67931 0.26146 0.44425 0.0
N370 N 0.55297 0.19156 0.57237 0.0
N371 N 0.64353 0.25691 0.46634 0.0
H372 H 0.33881 0.5088 0.03938 0.0
H373 H 0.47543 0.66323 0.72449 0.0
H374 H 0.29376 0.51085 0.82483 0.0
H375 H 0.48695 0.6958 0.95159 0.0
H376 H 0.41866 0.59647 0.75744 0.0
H377 H 0.40355 0.56755 0.00402 0.0
C378 C 0.34274 0.52118 0.98462 0.0
C379 C 0.31086 0.50515 0.93511 0.0
C380 C 0.43414 0.61814 0.79998 0.0
C381 C 0.38461 0.57144 0.89416 0.0
C382 C 0.46654 0.65597 0.78132 0.0
C383 C 0.4855 0.68491 0.83544 0.0
C384 C 0.4215 0.60914 0.87333 0.0
C385 C 0.47274 0.6743 0.90826 0.0
C386 C 0.37952 0.55466 0.96461 0.0
C387 C 0.31747 0.52245 0.86485 0.0
N388 N 0.44151 0.63725 0.92516 0.0
N389 N 0.35361 0.55461 0.84641 0.0
H390 H 0.83176 0.34641 0.37751 0.0
H391 H 0.82146 0.48278 0.0555 0.0
H392 H 0.78808 0.30026 0.16267 0.0
H393 H 0.79625 0.49494 0.28058 0.0
H394 H 0.83002 0.42555 0.09139 0.0
H395 H 0.83914 0.41123 0.33907 0.0
C396 C 0.8243 0.3501 0.32207 0.0
C397 C 0.80898 0.3179 0.27336 0.0
C398 C 0.82324 0.44128 0.13285 0.0
C399 C 0.81806 0.39176 0.22896 0.0
C400 C 0.81863 0.47392 0.11254 0.0
C401 C 0.80793 0.49318 0.16525 0.0
C402 C 0.81803 0.42875 0.20642 0.0
C403 C 0.80418 0.48049 0.23836 0.0
C404 C 0.82842 0.38694 0.30031 0.0
C405 C 0.79966 0.32423 0.20212 0.0
N406 N 0.80923 0.44904 0.25689 0.0
N407 N 0.80439 0.36045 0.18198 0.0
H408 H 0.34318 0.84118 0.48071 0.0
H409 H 0.46071 0.72585 0.58647 0.0
H410 H 0.29155 0.71234 0.48173 0.0
H411 H 0.50634 0.84982 0.64394 0.0
H412 H 0.40057 0.7229 0.53917 0.0
H413 H 0.40561 0.84773 0.53053 0.0
C414 C 0.3451 0.81439 0.49077 0.0
C415 C 0.31218 0.77615 0.47712 0.0
C416 C 0.42349 0.7508 0.5624 0.0
C417 C 0.3829 0.78339 0.534 0.0
C418 C 0.45795 0.75252 0.58945 0.0
C419 C 0.48861 0.78816 0.61917 0.0
C420 C 0.41944 0.78509 0.56419 0.0
C421 C 0.48323 0.82168 0.62186 0.0
C422 C 0.38052 0.81813 0.51969 0.0
C423 C 0.31606 0.7424 0.49166 0.0
N424 N 0.44931 0.81945 0.59411 0.0
N425 N 0.35067 0.74685 0.51909 0.0
H426 H 0.66662 0.51065 0.98689 0.0
H427 H 0.59057 0.29075 0.82837 0.0
H428 H 0.7451 0.46653 0.91981 0.0
H429 H 0.51569 0.34488 0.83372 0.0
H430 H 0.64577 0.35239 0.87762 0.0
H431 H 0.60874 0.44696 0.94742 0.0
C432 C 0.67161 0.48747 0.9646 0.0
C433 C 0.71065 0.49392 0.9561 0.0
C434 C 0.61727 0.35082 0.86799 0.0
C435 C 0.64507 0.42148 0.91127 0.0
C436 C 0.58573 0.31562 0.8399 0.0
C437 C 0.54855 0.31275 0.82655 0.0
C438 C 0.61156 0.38336 0.88355 0.0
C439 C 0.544 0.34595 0.84267 0.0
C440 C 0.6387 0.45134 0.94172 0.0
C441 C 0.71554 0.46301 0.92667 0.0
N442 N 0.57514 0.37991 0.87052 0.0
N443 N 0.6832 0.42822 0.90538 0.0
loop_
_geom_bond_atom_site_label_1
_geom_bond_atom_site_label_2
_geom_bond_distance
_geom_bond_site_symmetry_2
_ccdc_geom_bond_type
Zn0 O6 1.969 . S
Zn0 O7 1.965 . S
Zn0 O11 2.024 . S
Zn0 O16 1.969 . S
Zn1 O8 1.969 . S
Zn1 O14 1.969 . S
Zn1 O15 1.965 . S
Zn1 O17 2.024 . S
C2 O3 1.229 . S
C2 O11 1.058 . S
O3 C2 1.229 . S
C4 O5 1.229 . S
C4 O17 1.058 . S
O5 C4 1.229 . S
O6 Zn0 1.969 . S
O6 C9 1.267 . S
O7 Zn0 1.965 . S
O7 C18 1.260 . S
O8 Zn1 1.969 . S
O8 C18 1.258 1_556 S
C9 O6 1.267 . S
C9 O10 1.228 . S
O10 C9 1.228 . S
O11 Zn0 2.024 . S
O11 C2 1.058 . S
C12 O13 1.228 . S
C12 O14 1.267 . S
O13 C12 1.228 . S
O14 Zn1 1.969 . S
O14 C12 1.267 . S
O15 Zn1 1.965 . S
O15 C19 1.260 . S
O16 Zn0 1.969 . S
O16 C19 1.258 1_554 S
O17 Zn1 2.024 . S
O17 C4 1.058 . S
C18 O7 1.260 . S
C18 O8 1.258 1_554 S
C19 O15 1.260 . S
C19 O16 1.258 1_556 S
Zn20 O26 1.969 . S
Zn20 O27 1.965 . S
Zn20 O31 2.024 . S
Zn20 O36 1.969 . S
Zn21 O28 1.969 . S
Zn21 O34 1.969 . S
Zn21 O35 1.965 . S
Zn21 O37 2.024 . S
C22 O23 1.229 . S
C22 O31 1.058 . S
O23 C22 1.229 . S
C24 O25 1.229 . S
C24 O37 1.058 . S
O25 C24 1.229 . S
O26 Zn20 1.969 . S
O26 C29 1.267 . S
O27 Zn20 1.965 . S
O27 C38 1.260 . S
O28 Zn21 1.969 . S
O28 C38 1.258 . S
C29 O26 1.267 . S
C29 O30 1.228 . S
O30 C29 1.228 . S
O31 Zn20 2.024 . S
O31 C22 1.058 . S
C32 O33 1.228 . S
C32 O34 1.267 . S
O33 C32 1.228 . S
O34 Zn21 1.969 . S
O34 C32 1.267 . S
O35 Zn21 1.965 . S
O35 C39 1.260 . S
O36 Zn20 1.969 . S
O36 C39 1.258 . S
O37 Zn21 2.024 . S
O37 C24 1.058 . S
C38 O27 1.260 . S
C38 O28 1.258 . S
C39 O35 1.260 . S
C39 O36 1.258 . S
Zn40 O46 1.969 . S
Zn40 O47 1.965 . S
Zn40 O51 2.024 . S
Zn40 O56 1.969 . S
Zn41 O48 1.969 . S
Zn41 O54 1.969 . S
Zn41 O55 1.965 . S
Zn41 O57 2.024 . S
C42 O43 1.229 . S
C42 O51 1.058 . S
O43 C42 1.229 . S
C44 O45 1.229 . S
C44 O57 1.058 . S
O45 C44 1.229 . S
O46 Zn40 1.969 . S
O46 C49 1.267 . S
O47 Zn40 1.965 . S
O47 C58 1.260 . S
O48 Zn41 1.969 . S
O48 C58 1.258 . S
C49 O46 1.267 . S
C49 O50 1.228 . S
O50 C49 1.228 . S
O51 Zn40 2.024 . S
O51 C42 1.058 . S
C52 O53 1.228 . S
C52 O54 1.267 . S
O53 C52 1.228 . S
O54 Zn41 1.969 . S
O54 C52 1.267 . S
O55 Zn41 1.965 . S
O55 C59 1.260 . S
O56 Zn40 1.969 . S
O56 C59 1.258 . S
O57 Zn41 2.024 . S
O57 C44 1.058 . S
C58 O47 1.260 . S
C58 O48 1.258 . S
C59 O55 1.260 . S
C59 O56 1.258 . S
Zn60 O66 1.969 . S
Zn60 O67 1.965 . S
Zn60 O71 2.024 . S
Zn60 O76 1.969 . S
Zn61 O68 1.969 . S
Zn61 O74 1.969 . S
Zn61 O75 1.965 . S
Zn61 O77 2.024 . S
C62 O63 1.229 . S
C62 O71 1.058 . S
O63 C62 1.229 . S
C64 O65 1.229 . S
C64 O77 1.058 . S
O65 C64 1.229 . S
O66 Zn60 1.969 . S
O66 C69 1.267 . S
O67 Zn60 1.965 . S
O67 C78 1.260 . S
O68 Zn61 1.969 . S
O68 C78 1.258 1_556 S
C69 O66 1.267 . S
C69 O70 1.228 . S
O70 C69 1.228 . S
O71 Zn60 2.024 . S
O71 C62 1.058 . S
C72 O73 1.228 . S
C72 O74 1.267 . S
O73 C72 1.228 . S
O74 Zn61 1.969 . S
O74 C72 1.267 . S
O75 Zn61 1.965 . S
O75 C79 1.260 . S
O76 Zn60 1.969 . S
O76 C79 1.258 1_554 S
O77 Zn61 2.024 . S
O77 C64 1.058 . S
C78 O67 1.260 . S
C78 O68 1.258 1_554 S
C79 O75 1.260 . S
C79 O76 1.258 1_556 S
Zn80 O86 1.969 . S
Zn80 O87 1.965 . S
Zn80 O91 2.024 . S
Zn80 O96 1.969 . S
Zn81 O88 1.969 . S
Zn81 O94 1.969 . S
Zn81 O95 1.965 . S
Zn81 O97 2.024 . S
C82 O83 1.229 . S
C82 O91 1.058 . S
O83 C82 1.229 . S
C84 O85 1.229 . S
C84 O97 1.058 . S
O85 C84 1.229 . S
O86 Zn80 1.969 . S
O86 C89 1.267 . S
O87 Zn80 1.965 . S
O87 C98 1.260 . S
O88 Zn81 1.969 . S
O88 C98 1.258 . S
C89 O86 1.267 . S
C89 O90 1.228 . S
O90 C89 1.228 . S
O91 Zn80 2.024 . S
O91 C82 1.058 . S
C92 O93 1.228 . S
C92 O94 1.267 . S
O93 C92 1.228 . S
O94 Zn81 1.969 . S
O94 C92 1.267 . S
O95 Zn81 1.965 . S
O95 C99 1.260 . S
O96 Zn80 1.969 . S
O96 C99 1.258 . S
O97 Zn81 2.024 . S
O97 C84 1.058 . S
C98 O87 1.260 . S
C98 O88 1.258 . S
C99 O95 1.260 . S
C99 O96 1.258 . S
Zn100 O106 1.969 . S
Zn100 O107 1.965 . S
Zn100 O111 2.024 . S
Zn100 O116 1.969 . S
Zn101 O108 1.969 . S
Zn101 O114 1.969 . S
Zn101 O115 1.965 . S
Zn101 O117 2.024 . S
C102 O103 1.229 . S
C102 O111 1.058 . S
O103 C102 1.229 . S
C104 O105 1.229 . S
C104 O117 1.058 . S
O105 C104 1.229 . S
O106 Zn100 1.969 . S
O106 C109 1.267 . S
O107 Zn100 1.965 . S
O107 C118 1.260 . S
O108 Zn101 1.969 . S
O108 C118 1.258 . S
C109 O106 1.267 . S
C109 O110 1.228 . S
O110 C109 1.228 . S
O111 Zn100 2.024 . S
O111 C102 1.058 . S
C112 O113 1.228 . S
C112 O114 1.267 . S
O113 C112 1.228 . S
O114 Zn101 1.969 . S
O114 C112 1.267 . S
O115 Zn101 1.965 . S
O115 C119 1.260 . S
O116 Zn100 1.969 . S
O116 C119 1.258 . S
O117 Zn101 2.024 . S
O117 C104 1.058 . S
C118 O107 1.260 . S
C118 O108 1.258 . S
C119 O115 1.260 . S
C119 O116 1.258 . S
H120 C126 0.930 . S
H121 C130 0.930 . S
H122 C135 0.929 . S
H123 C133 0.929 . S
H124 C128 0.929 . S
H125 C134 0.929 . S
C126 H120 0.930 . S
C126 C127 1.367 . S
C126 C134 1.378 . S
C127 C126 1.367 . S
C127 C135 1.433 . S
C128 H124 0.929 . S
C128 C130 1.378 . S
C128 C132 1.350 . S
C129 C132 1.463 . S
C129 C134 1.350 . S
C129 N137 1.427 . S
C130 H121 0.930 . S
C130 C128 1.378 . S
C130 C131 1.367 . S
C131 C130 1.367 . S
C131 C133 1.433 . S
C132 C128 1.350 . S
C132 C129 1.463 . S
C132 N136 1.427 . S
C133 H123 0.929 . S
C133 C131 1.433 . S
C133 N136 1.384 . S
C134 H125 0.929 . S
C134 C126 1.378 . S
C134 C129 1.350 . S
C135 H122 0.929 . S
C135 C127 1.433 . S
C135 N137 1.384 . S
N136 C132 1.427 . S
N136 C133 1.384 . S
N137 C129 1.427 . S
N137 C135 1.384 . S
H138 C144 0.930 . S
H139 C148 0.930 . S
H140 C153 0.929 . S
H141 C151 0.929 . S
H142 C146 0.929 1_455 S
H143 C152 0.929 . S
C144 H138 0.930 . S
C144 C145 1.367 . S
C144 C152 1.378 . S
C145 C144 1.367 . S
C145 C153 1.433 . S
C146 H142 0.929 1_655 S
C146 C148 1.378 . S
C146 C150 1.350 1_655 S
C147 C150 1.463 . S
C147 C152 1.350 . S
C147 N155 1.427 . S
C148 H139 0.930 . S
C148 C146 1.378 . S
C148 C149 1.367 . S
C149 C148 1.367 . S
C149 C151 1.433 . S
C150 C146 1.350 1_455 S
C150 C147 1.463 . S
C150 N154 1.427 1_455 S
C151 H141 0.929 . S
C151 C149 1.433 . S
C151 N154 1.384 . S
C152 H143 0.929 . S
C152 C144 1.378 . S
C152 C147 1.350 . S
C153 H140 0.929 . S
C153 C145 1.433 . S
C153 N155 1.384 . S
N154 C150 1.427 1_655 S
N154 C151 1.384 . S
N155 C147 1.427 . S
N155 C153 1.384 . S
H156 C162 0.930 . S
H157 C166 0.930 . S
H158 C171 0.929 . S
H159 C169 0.929 . S
H160 C164 0.929 . S
H161 C170 0.929 . S
C162 H156 0.930 . S
C162 C163 1.367 . S
C162 C170 1.378 . S
C163 C162 1.367 . S
C163 C171 1.433 . S
C164 H160 0.929 . S
C164 C166 1.378 . S
C164 C168 1.350 1_565 S
C165 C168 1.463 . S
C165 C170 1.350 . S
C165 N173 1.427 . S
C166 H157 0.930 . S
C166 C164 1.378 . S
C166 C167 1.367 . S
C167 C166 1.367 . S
C167 C169 1.433 . S
C168 C164 1.350 1_545 S
C168 C165 1.463 . S
C168 N172 1.427 1_545 S
C169 H159 0.929 . S
C169 C167 1.433 . S
C169 N172 1.384 . S
C170 H161 0.929 . S
C170 C162 1.378 . S
C170 C165 1.350 . S
C171 H158 0.929 . S
C171 C163 1.433 . S
C171 N173 1.384 . S
N172 C168 1.427 1_565 S
N172 C169 1.384 . S
N173 C165 1.427 . S
N173 C171 1.384 . S
H174 C180 0.930 . S
H175 C184 0.930 . S
H176 C189 0.929 . S
H177 C187 0.929 . S
H178 C182 0.929 . S
H179 C188 0.929 . S
C180 H174 0.930 . S
C180 C181 1.367 . S
C180 C188 1.378 . S
C181 C180 1.367 . S
C181 C189 1.433 . S
C182 H178 0.929 . S
C182 C184 1.378 . S
C182 C186 1.350 . S
C183 C186 1.463 . S
C183 C188 1.350 . S
C183 N191 1.427 . S
C184 H175 0.930 . S
C184 C182 1.378 . S
C184 C185 1.367 . S
C185 C184 1.367 . S
C185 C187 1.433 . S
C186 C182 1.350 . S
C186 C183 1.463 . S
C186 N190 1.427 . S
C187 H177 0.929 . S
C187 C185 1.433 . S
C187 N190 1.384 . S
C188 H179 0.929 . S
C188 C180 1.378 . S
C188 C183 1.350 . S
C189 H176 0.929 . S
C189 C181 1.433 . S
C189 N191 1.384 . S
N190 C186 1.427 . S
N190 C187 1.384 . S
N191 C183 1.427 . S
N191 C189 1.384 . S
H192 C198 0.930 . S
H193 C202 0.930 . S
H194 C207 0.929 . S
H195 C205 0.929 . S
H196 C200 0.929 . S
H197 C206 0.929 1_655 S
C198 H192 0.930 . S
C198 C199 1.367 . S
C198 C206 1.378 . S
C199 C198 1.367 . S
C199 C207 1.433 . S
C200 H196 0.929 . S
C200 C202 1.378 . S
C200 C204 1.350 . S
C201 C204 1.463 . S
C201 C206 1.350 1_655 S
C201 N209 1.427 1_655 S
C202 H193 0.930 . S
C202 C200 1.378 . S
C202 C203 1.367 . S
C203 C202 1.367 . S
C203 C205 1.433 . S
C204 C200 1.350 . S
C204 C201 1.463 . S
C204 N208 1.427 . S
C205 H195 0.929 . S
C205 C203 1.433 . S
C205 N208 1.384 . S
C206 H197 0.929 1_455 S
C206 C198 1.378 . S
C206 C201 1.350 1_455 S
C207 H194 0.929 . S
C207 C199 1.433 . S
C207 N209 1.384 . S
N208 C204 1.427 . S
N208 C205 1.384 . S
N209 C201 1.427 1_455 S
N209 C207 1.384 . S
H210 C216 0.930 . S
H211 C220 0.930 . S
H212 C225 0.929 . S
H213 C223 0.929 . S
H214 C218 0.929 . S
H215 C224 0.929 1_565 S
C216 H210 0.930 . S
C216 C217 1.367 . S
C216 C224 1.378 . S
C217 C216 1.367 . S
C217 C225 1.433 . S
C218 H214 0.929 . S
C218 C220 1.378 . S
C218 C222 1.350 . S
C219 C222 1.463 . S
C219 C224 1.350 1_565 S
C219 N227 1.427 1_565 S
C220 H211 0.930 . S
C220 C218 1.378 . S
C220 C221 1.367 . S
C221 C220 1.367 . S
C221 C223 1.433 . S
C222 C218 1.350 . S
C222 C219 1.463 . S
C222 N226 1.427 . S
C223 H213 0.929 . S
C223 C221 1.433 . S
C223 N226 1.384 . S
C224 H215 0.929 1_545 S
C224 C216 1.378 . S
C224 C219 1.350 1_545 S
C225 H212 0.929 . S
C225 C217 1.433 . S
C225 N227 1.384 . S
N226 C222 1.427 . S
N226 C223 1.384 . S
N227 C219 1.427 1_545 S
N227 C225 1.384 . S
H228 C234 0.930 . S
H229 C238 0.930 . S
H230 C243 0.929 . S
H231 C241 0.929 . S
H232 C236 0.929 . S
H233 C242 0.929 . S
C234 H228 0.930 . S
C234 C235 1.367 . S
C234 C242 1.378 . S
C235 C234 1.367 . S
C235 C243 1.433 . S
C236 H232 0.929 . S
C236 C238 1.378 . S
C236 C240 1.350 . S
C237 C240 1.463 . S
C237 C242 1.350 . S
C237 N245 1.427 . S
C238 H229 0.930 . S
C238 C236 1.378 . S
C238 C239 1.367 . S
C239 C238 1.367 . S
C239 C241 1.433 . S
C240 C236 1.350 . S
C240 C237 1.463 . S
C240 N244 1.427 . S
C241 H231 0.929 . S
C241 C239 1.433 . S
C241 N244 1.384 . S
C242 H233 0.929 . S
C242 C234 1.378 . S
C242 C237 1.350 . S
C243 H230 0.929 . S
C243 C235 1.433 . S
C243 N245 1.384 . S
N244 C240 1.427 . S
N244 C241 1.384 . S
N245 C237 1.427 . S
N245 C243 1.384 . S
H246 C252 0.931 . S
H247 C256 0.930 . S
H248 C261 0.929 1_554 S
H249 C259 0.929 . S
H250 C254 0.929 . S
H251 C260 0.929 . S
C252 H246 0.931 . S
C252 C253 1.367 . S
C252 C260 1.377 1_554 S
C253 C252 1.367 . S
C253 C261 1.433 1_554 S
C254 H250 0.929 . S
C254 C256 1.378 . S
C254 C258 1.350 . S
C255 C258 1.463 . S
C255 C260 1.350 . S
C255 N263 1.427 . S
C256 H247 0.930 . S
C256 C254 1.378 . S
C256 C257 1.367 . S
C257 C256 1.367 . S
C257 C259 1.433 . S
C258 C254 1.350 . S
C258 C255 1.463 . S
C258 N262 1.427 . S
C259 H249 0.929 . S
C259 C257 1.433 . S
C259 N262 1.384 . S
C260 H251 0.929 . S
C260 C252 1.377 1_556 S
C260 C255 1.350 . S
C261 H248 0.929 1_556 S
C261 C253 1.433 1_556 S
C261 N263 1.384 . S
N262 C258 1.427 . S
N262 C259 1.384 . S
N263 C255 1.427 . S
N263 C261 1.384 . S
H264 C270 0.930 . S
H265 C274 0.930 . S
H266 C279 0.929 . S
H267 C277 0.929 1_556 S
H268 C272 0.929 . S
H269 C278 0.929 . S
C270 H264 0.930 . S
C270 C271 1.367 . S
C270 C278 1.378 . S
C271 C270 1.367 . S
C271 C279 1.433 . S
C272 H268 0.929 . S
C272 C274 1.378 . S
C272 C276 1.350 . S
C273 C276 1.463 . S
C273 C278 1.350 . S
C273 N281 1.427 . S
C274 H265 0.930 . S
C274 C272 1.378 . S
C274 C275 1.367 1_554 S
C275 C274 1.367 1_556 S
C275 C277 1.433 1_556 S
C276 C272 1.350 . S
C276 C273 1.463 . S
C276 N280 1.427 . S
C277 H267 0.929 1_554 S
C277 C275 1.433 1_554 S
C277 N280 1.384 . S
C278 H269 0.929 . S
C278 C270 1.378 . S
C278 C273 1.350 . S
C279 H266 0.929 . S
C279 C271 1.433 . S
C279 N281 1.384 . S
N280 C276 1.427 . S
N280 C277 1.384 . S
N281 C273 1.427 . S
N281 C279 1.384 . S
H282 C288 0.930 . S
H283 C292 0.930 . S
H284 C297 0.929 . S
H285 C295 0.929 . S
H286 C290 0.929 . S
H287 C296 0.929 . S
C288 H282 0.930 . S
C288 C289 1.367 . S
C288 C296 1.378 . S
C289 C288 1.367 . S
C289 C297 1.433 . S
C290 H286 0.929 . S
C290 C292 1.378 . S
C290 C294 1.350 . S
C291 C294 1.463 . S
C291 C296 1.350 . S
C291 N299 1.427 . S
C292 H283 0.930 . S
C292 C290 1.378 . S
C292 C293 1.367 . S
C293 C292 1.367 . S
C293 C295 1.433 . S
C294 C290 1.350 . S
C294 C291 1.463 . S
C294 N298 1.427 . S
C295 H285 0.929 . S
C295 C293 1.433 . S
C295 N298 1.384 . S
C296 H287 0.929 . S
C296 C288 1.378 . S
C296 C291 1.350 . S
C297 H284 0.929 . S
C297 C289 1.433 . S
C297 N299 1.384 . S
N298 C294 1.427 . S
N298 C295 1.384 . S
N299 C291 1.427 . S
N299 C297 1.384 . S
H300 C306 0.930 . S
H301 C310 0.930 1_554 S
H302 C315 0.929 . S
H303 C313 0.929 1_554 S
H304 C308 0.929 . S
H305 C314 0.929 . S
C306 H300 0.930 . S
C306 C307 1.367 . S
C306 C314 1.378 . S
C307 C306 1.367 . S
C307 C315 1.433 . S
C308 H304 0.929 . S
C308 C310 1.378 . S
C308 C312 1.350 . S
C309 C312 1.463 . S
C309 C314 1.350 . S
C309 N317 1.427 . S
C310 H301 0.930 1_556 S
C310 C308 1.378 . S
C310 C311 1.367 1_556 S
C311 C310 1.367 1_554 S
C311 C313 1.433 1_554 S
C312 C308 1.350 . S
C312 C309 1.463 . S
C312 N316 1.427 . S
C313 H303 0.929 1_556 S
C313 C311 1.433 1_556 S
C313 N316 1.384 . S
C314 H305 0.929 . S
C314 C306 1.378 . S
C314 C309 1.350 . S
C315 H302 0.929 . S
C315 C307 1.433 . S
C315 N317 1.384 . S
N316 C312 1.427 . S
N316 C313 1.384 . S
N317 C309 1.427 . S
N317 C315 1.384 . S
H318 C324 0.930 . S
H319 C328 0.930 . S
H320 C333 0.929 . S
H321 C331 0.929 1_556 S
H322 C326 0.929 . S
H323 C332 0.929 . S
C324 H318 0.930 . S
C324 C325 1.367 . S
C324 C332 1.378 . S
C325 C324 1.367 . S
C325 C333 1.433 . S
C326 H322 0.929 . S
C326 C328 1.378 . S
C326 C330 1.350 . S
C327 C330 1.463 . S
C327 C332 1.350 . S
C327 N335 1.427 . S
C328 H319 0.930 . S
C328 C326 1.378 . S
C328 C329 1.367 1_554 S
C329 C328 1.367 1_556 S
C329 C331 1.433 1_556 S
C330 C326 1.350 . S
C330 C327 1.463 . S
C330 N334 1.427 . S
C331 H321 0.929 1_554 S
C331 C329 1.433 1_554 S
C331 N334 1.384 . S
C332 H323 0.929 . S
C332 C324 1.378 . S
C332 C327 1.350 . S
C333 H320 0.929 . S
C333 C325 1.433 . S
C333 N335 1.384 . S
N334 C330 1.427 . S
N334 C331 1.384 . S
N335 C327 1.427 . S
N335 C333 1.384 . S
H336 C342 0.930 . S
H337 C346 0.930 . S
H338 C351 0.929 . S
H339 C349 0.929 . S
H340 C344 0.929 . S
H341 C350 0.929 . S
C342 H336 0.930 . S
C342 C343 1.367 . S
C342 C350 1.378 . S
C343 C342 1.367 . S
C343 C351 1.433 . S
C344 H340 0.929 . S
C344 C346 1.378 . S
C344 C348 1.350 . S
C345 C348 1.463 . S
C345 C350 1.350 . S
C345 N353 1.427 . S
C346 H337 0.930 . S
C346 C344 1.378 . S
C346 C347 1.367 . S
C347 C346 1.367 . S
C347 C349 1.433 . S
C348 C344 1.350 . S
C348 C345 1.463 . S
C348 N352 1.427 . S
C349 H339 0.929 . S
C349 C347 1.433 . S
C349 N352 1.384 . S
C350 H341 0.929 . S
C350 C342 1.378 . S
C350 C345 1.350 . S
C351 H338 0.929 . S
C351 C343 1.433 . S
C351 N353 1.384 . S
N352 C348 1.427 . S
N352 C349 1.384 . S
N353 C345 1.427 . S
N353 C351 1.384 . S
H354 C360 0.930 . S
H355 C364 0.930 . S
H356 C369 0.929 . S
H357 C367 0.929 . S
H358 C362 0.929 . S
H359 C368 0.929 . S
C360 H354 0.930 . S
C360 C361 1.367 . S
C360 C368 1.378 . S
C361 C360 1.367 . S
C361 C369 1.433 . S
C362 H358 0.929 . S
C362 C364 1.378 . S
C362 C366 1.350 . S
C363 C366 1.463 . S
C363 C368 1.350 . S
C363 N371 1.427 . S
C364 H355 0.930 . S
C364 C362 1.378 . S
C364 C365 1.367 . S
C365 C364 1.367 . S
C365 C367 1.433 . S
C366 C362 1.350 . S
C366 C363 1.463 . S
C366 N370 1.427 . S
C367 H357 0.929 . S
C367 C365 1.433 . S
C367 N370 1.384 . S
C368 H359 0.929 . S
C368 C360 1.378 . S
C368 C363 1.350 . S
C369 H356 0.929 . S
C369 C361 1.433 . S
C369 N371 1.384 . S
N370 C366 1.427 . S
N370 C367 1.384 . S
N371 C363 1.427 . S
N371 C369 1.384 . S
H372 C378 0.930 1_554 S
H373 C382 0.930 . S
H374 C387 0.929 . S
H375 C385 0.929 . S
H376 C380 0.929 . S
H377 C386 0.929 . S
C378 H372 0.930 1_556 S
C378 C379 1.367 . S
C378 C386 1.378 . S
C379 C378 1.367 . S
C379 C387 1.433 . S
C380 H376 0.929 . S
C380 C382 1.378 . S
C380 C384 1.350 . S
C381 C384 1.463 . S
C381 C386 1.350 . S
C381 N389 1.427 . S
C382 H373 0.930 . S
C382 C380 1.378 . S
C382 C383 1.367 . S
C383 C382 1.367 . S
C383 C385 1.433 . S
C384 C380 1.350 . S
C384 C381 1.463 . S
C384 N388 1.427 . S
C385 H375 0.929 . S
C385 C383 1.433 . S
C385 N388 1.384 . S
C386 H377 0.929 . S
C386 C378 1.378 . S
C386 C381 1.350 . S
C387 H374 0.929 . S
C387 C379 1.433 . S
C387 N389 1.384 . S
N388 C384 1.427 . S
N388 C385 1.384 . S
N389 C381 1.427 . S
N389 C387 1.384 . S
H390 C396 0.930 . S
H391 C400 0.930 . S
H392 C405 0.929 . S
H393 C403 0.929 . S
H394 C398 0.929 . S
H395 C404 0.929 . S
C396 H390 0.930 . S
C396 C397 1.367 . S
C396 C404 1.378 . S
C397 C396 1.367 . S
C397 C405 1.433 . S
C398 H394 0.929 . S
C398 C400 1.378 . S
C398 C402 1.350 . S
C399 C402 1.463 . S
C399 C404 1.350 . S
C399 N407 1.427 . S
C400 H391 0.930 . S
C400 C398 1.378 . S
C400 C401 1.367 . S
C401 C400 1.367 . S
C401 C403 1.433 . S
C402 C398 1.350 . S
C402 C399 1.463 . S
C402 N406 1.427 . S
C403 H393 0.929 . S
C403 C401 1.433 . S
C403 N406 1.384 . S
C404 H395 0.929 . S
C404 C396 1.378 . S
C404 C399 1.350 . S
C405 H392 0.929 . S
C405 C397 1.433 . S
C405 N407 1.384 . S
N406 C402 1.427 . S
N406 C403 1.384 . S
N407 C399 1.427 . S
N407 C405 1.384 . S
H408 C414 0.930 . S
H409 C418 0.930 . S
H410 C423 0.929 . S
H411 C421 0.929 . S
H412 C416 0.929 . S
H413 C422 0.929 . S
C414 H408 0.930 . S
C414 C415 1.367 . S
C414 C422 1.378 . S
C415 C414 1.367 . S
C415 C423 1.433 . S
C416 H412 0.929 . S
C416 C418 1.378 . S
C416 C420 1.350 . S
C417 C420 1.463 . S
C417 C422 1.350 . S
C417 N425 1.427 . S
C418 H409 0.930 . S
C418 C416 1.378 . S
C418 C419 1.367 . S
C419 C418 1.367 . S
C419 C421 1.433 . S
C420 C416 1.350 . S
C420 C417 1.463 . S
C420 N424 1.427 . S
C421 H411 0.929 . S
C421 C419 1.433 . S
C421 N424 1.384 . S
C422 H413 0.929 . S
C422 C414 1.378 . S
C422 C417 1.350 . S
C423 H410 0.929 . S
C423 C415 1.433 . S
C423 N425 1.384 . S
N424 C420 1.427 . S
N424 C421 1.384 . S
N425 C417 1.427 . S
N425 C423 1.384 . S
H426 C432 0.930 1_554 S
H427 C436 0.930 . S
H428 C441 0.929 . S
H429 C439 0.929 . S
H430 C434 0.929 . S
H431 C440 0.929 . S
C432 H426 0.930 1_556 S
C432 C433 1.367 . S
C432 C440 1.378 . S
C433 C432 1.367 . S
C433 C441 1.433 . S
C434 H430 0.929 . S
C434 C436 1.378 . S
C434 C438 1.350 . S
C435 C438 1.463 . S
C435 C440 1.350 . S
C435 N443 1.427 . S
C436 H427 0.930 . S
C436 C434 1.378 . S
C436 C437 1.367 . S
C437 C436 1.367 . S
C437 C439 1.433 . S
C438 C434 1.350 . S
C438 C435 1.463 . S
C438 N442 1.427 . S
C439 H429 0.929 . S
C439 C437 1.433 . S
C439 N442 1.384 . S
C440 H431 0.929 . S
C440 C432 1.378 . S
C440 C435 1.350 . S
C441 H428 0.929 . S
C441 C433 1.433 . S
C441 N443 1.384 . S
N442 C438 1.427 . S
N442 C439 1.384 . S
N443 C435 1.427 . S
N443 C441 1.384 . S
C127 C118 1.410 . S
C131 C4 1.343 . S
C145 C18 1.411 . S
C149 C24 1.340 . S
C163 C38 1.410 . S
C167 C44 1.332 . S
C181 C58 1.411 . S
C185 C64 1.343 . S
C199 C84 1.339 . S
C203 C78 1.409 . S
C217 C104 1.345 . S
C221 C98 1.411 . S
C235 C12 1.239 . S
C239 C9 1.239 . S
C253 C32 1.238 . S
C257 C29 1.238 . S
C271 C52 1.241 . S
C275 C49 1.241 . S
C289 C72 1.249 . S
C293 C69 1.249 . S
C307 C89 1.236 . S
C311 C92 1.236 . S
C325 C112 1.244 . S
C329 C109 1.244 . S
C343 C2 1.423 . S
C347 C99 1.510 . S
C361 C22 1.416 . S
C365 C119 1.505 . S
C379 C19 1.502 . S
C383 C42 1.434 . S
C397 C39 1.504 . S
C401 C62 1.433 . S
C415 C82 1.434 . S
C419 C59 1.500 . S
C433 C79 1.509 . S
C437 C102 1.426 . S
