# Generated by pormake.
# Topology sxa, (6)-cn, num edge types: 1
# Building blocks:
#     Node 0, Type 0, BuildingBlock: MIFKUJ_clean_sbu_0, # of connection points: 6
#     Node 1, Type 0, BuildingBlock: MIFKUJ_clean_sbu_0, # of connection points: 6
#     Node 2, Type 0, BuildingBlock: MIFKUJ_clean_sbu_0, # of connection points: 6
#     Node 3, Type 0, BuildingBlock: MIFKUJ_clean_sbu_0, # of connection points: 6
#     Edge 4, Type (0, 0), BuildingBlock: TEMPAE_clean_linker_10, # of connection points: 2
#     Edge 5, Type (0, 0), BuildingBlock: TEMPAE_clean_linker_10, # of connection points: 2
#     Edge 6, Type (0, 0), BuildingBlock: TEMPAE_clean_linker_10, # of connection points: 2
#     Edge 7, Type (0, 0), BuildingBlock: TEMPAE_clean_linker_10, # of connection points: 2
#     Edge 8, Type (0, 0), BuildingBlock: TEMPAE_clean_linker_10, # of connection points: 2
#     Edge 9, Type (0, 0), BuildingBlock: TEMPAE_clean_linker_10, # of connection points: 2
#     Edge 10, Type (0, 0), BuildingBlock: TEMPAE_clean_linker_10, # of connection points: 2
#     Edge 11, Type (0, 0), BuildingBlock: TEMPAE_clean_linker_10, # of connection points: 2
#     Edge 12, Type (0, 0), BuildingBlock: TEMPAE_clean_linker_10, # of connection points: 2
#     Edge 13, Type (0, 0), BuildingBlock: TEMPAE_clean_linker_10, # of connection points: 2
#     Edge 14, Type (0, 0), BuildingBlock: TEMPAE_clean_linker_10, # of connection points: 2
#     Edge 15, Type (0, 0), BuildingBlock: TEMPAE_clean_linker_10, # of connection points: 2
# Relax obj value: 0.126
# Max RMSD: 0.252
# Mean RMSD: 0.252
data_MOF--net-sxa--node1-MIFKUJ_clean_sbu_0--edge1-TEMPAE_clean_linker_10
_symmetry_space_group_name_H-M    P1
_symmetry_Int_Tables_number       1
_symmetry_cell_setting            triclinic
loop_
_symmetry_equiv_pos_as_xyz
'x, y, z'
_cell_length_a     31.479299
_cell_length_b     26.63513
_cell_length_c     14.698446
_cell_angle_alpha  97.854518
_cell_angle_beta   89.765321
_cell_angle_gamma 89.86034
loop_
_atom_site_label
_atom_site_type_symbol
_atom_site_fract_x
_atom_site_fract_y
_atom_site_fract_z
_atom_type_partial_charge
Zn0 Zn 0.93619 0.75592 0.2232 0.0
Zn1 Zn 0.04859 0.72559 0.18981 0.0
C2 C 0.90868 0.72071 0.37796 0.0
O3 O 0.9026 0.68232 0.31311 0.0
C4 C 0.08192 0.70945 0.01063 0.0
O5 O 0.04676 0.72806 0.98087 0.0
O6 O 0.87457 0.76816 0.2067 0.0
O7 O 0.96302 0.81614 0.1772 0.0
O8 O 0.0292 0.79155 0.14479 0.0
C9 C 0.84855 0.74058 0.15706 0.0
O10 O 0.86214 0.70072 0.10202 0.0
O11 O 0.93404 0.75548 0.36087 0.0
C12 C 0.11557 0.70945 0.31997 0.0
O13 O 0.10496 0.6616 0.29904 0.0
O14 O 0.09432 0.74317 0.28627 0.0
O15 O 0.00674 0.67381 0.22438 0.0
O16 O 0.9497 0.68833 0.14718 0.0
O17 O 0.08033 0.68884 0.08336 0.0
C18 C -0.00079 0.82353 0.14304 0.0
C19 C 0.97862 0.65808 0.1657 0.0
Zn20 Zn 0.44711 0.31271 0.23213 0.0
Zn21 Zn 0.56678 0.27707 0.18418 0.0
C22 C 0.40596 0.27452 0.38072 0.0
O23 O 0.41092 0.2322 0.32436 0.0
C24 C 0.5707 0.24682 0.98545 0.0
O25 O 0.54709 0.28678 0.97804 0.0
O26 O 0.39217 0.32397 0.17588 0.0
O27 O 0.48362 0.37084 0.19911 0.0
O28 O 0.55058 0.3486 0.16118 0.0
C29 C 0.36819 0.36104 0.20512 0.0
O30 O 0.3821 0.39776 0.26634 0.0
O31 O 0.4254 0.31411 0.36328 0.0
C32 C 0.65651 0.28245 0.22037 0.0
O33 O 0.65728 0.28953 0.13363 0.0
O34 O 0.62075 0.27782 0.25928 0.0
O35 O 0.52159 0.23862 0.23889 0.0
O36 O 0.46182 0.24351 0.16724 0.0
O37 O 0.58103 0.23682 0.06433 0.0
C38 C 0.52039 0.38105 0.16961 0.0
C39 C 0.49454 0.21822 0.18182 0.0
Zn40 Zn 0.93506 0.20572 0.76525 0.0
Zn41 Zn 0.04774 0.22986 0.77626 0.0
C42 C 0.90781 0.25974 0.62771 0.0
O43 O 0.90121 0.29149 0.70307 0.0
C44 C 0.10707 0.22721 0.90965 0.0
O45 O 0.11514 0.18578 0.85267 0.0
O46 O 0.87439 0.19732 0.79813 0.0
O47 O 0.96233 0.13983 0.78507 0.0
O48 O 0.03096 0.15763 0.79551 0.0
C49 C 0.84953 0.17193 0.74154 0.0
O50 O 0.86495 0.14788 0.66443 0.0
O51 O 0.92904 0.21951 0.63351 0.0
C52 C 0.12269 0.27022 0.70455 0.0
O53 O 0.1123 0.30657 0.77058 0.0
O54 O 0.09777 0.23241 0.68649 0.0
O55 O 0.00526 0.28557 0.76233 0.0
O56 O 0.95382 0.26702 0.85252 0.0
O57 O 0.07474 0.25352 0.89596 0.0
C58 C 0.00032 0.12677 0.79884 0.0
C59 C 0.98062 0.29868 0.83008 0.0
Zn60 Zn 0.44162 0.77421 0.82637 0.0
Zn61 Zn 0.56518 0.79671 0.83208 0.0
C62 C 0.37912 0.79789 0.70048 0.0
O63 O 0.37768 0.83818 0.76275 0.0
C64 C 0.56569 0.82357 0.02886 0.0
O65 O 0.53177 0.79485 0.0276 0.0
O66 O 0.39403 0.77631 0.91712 0.0
O67 O 0.47458 0.71193 0.84978 0.0
O68 O 0.54382 0.72805 0.85839 0.0
C69 C 0.37811 0.81687 0.95939 0.0
O70 O 0.39573 0.86073 0.9518 0.0
O71 O 0.40871 0.76555 0.70511 0.0
C72 C 0.64648 0.81964 0.75056 0.0
O73 O 0.63508 0.867 0.77573 0.0
O74 O 0.62095 0.78424 0.76319 0.0
O75 O 0.52664 0.84399 0.77561 0.0
O76 O 0.46922 0.84207 0.85986 0.0
O77 O 0.5816 0.83288 0.95344 0.0
C78 C 0.51251 0.69843 0.864 0.0
C79 C 0.50013 0.86652 0.83248 0.0
C80 C 0.00755 0.38844 0.84995 0.0
C81 C 0.98171 0.35115 0.88046 0.0
C82 C 0.00824 0.43829 0.89648 0.0
C83 C 0.98281 0.45121 0.97609 0.0
C84 C 0.95718 0.41355 0.00801 0.0
C85 C 0.95681 0.36418 0.95974 0.0
C86 C 0.0358 0.47732 0.85973 0.0
C87 C 0.9299 0.42548 0.09301 0.0
C88 C 0.00984 0.57005 0.14163 0.0
C89 C 0.97967 0.60497 0.11807 0.0
C90 C 0.01127 0.51997 0.09613 0.0
C91 C 0.98209 0.50439 0.0247 0.0
C92 C 0.95175 0.53952 1.00029 0.0
C93 C 0.95081 0.58917 0.04735 0.0
C94 C 0.04392 0.48364 0.12479 0.0
C95 C 0.92027 0.5247 0.92416 0.0
H96 H 0.02699 0.37885 0.78899 0.0
H97 H 0.93693 0.33569 0.98441 0.0
H98 H 0.01572 0.50874 0.84152 0.0
H99 H 0.05833 0.49393 0.91333 0.0
H100 H 0.05423 0.46109 0.79799 0.0
H101 H 0.91279 0.39162 0.11053 0.0
H102 H 0.94984 0.4409 0.15234 0.0
H103 H 0.90618 0.45503 0.08272 0.0
H104 H 0.03235 0.58178 0.19595 0.0
H105 H 0.92749 0.61577 0.02811 0.0
H106 H 0.06448 0.46916 0.06545 0.0
H107 H 0.02781 0.45045 0.14746 0.0
H108 H 0.06436 0.50157 0.1815 0.0
H109 H 0.93738 0.51115 0.85926 0.0
H110 H 0.89917 0.55666 0.91241 0.0
H111 H 0.90025 0.49296 0.94095 0.0
C112 C 0.50134 0.47228 0.16423 0.0
C113 C 0.52606 0.42964 0.13166 0.0
C114 C 0.5028 0.51649 0.12162 0.0
C115 C 0.52854 0.51767 0.04252 0.0
C116 C 0.55421 0.47507 0.01046 0.0
C117 C 0.55312 0.43193 0.05611 0.0
C118 C 0.47594 0.56155 0.15996 0.0
C119 C 0.58147 0.47421 0.92551 0.0
C120 C 0.49118 0.60939 0.88127 0.0
C121 C 0.51953 0.64989 0.90128 0.0
C122 C 0.49483 0.56545 0.92415 0.0
C123 C 0.52683 0.56239 0.99086 0.0
C124 C 0.55602 0.60286 0.01015 0.0
C125 C 0.55229 0.6458 0.9645 0.0
C126 C 0.46379 0.52268 0.89938 0.0
C127 C 0.58992 0.60209 0.08229 0.0
H128 H 0.48043 0.47086 0.22261 0.0
H129 H 0.57193 0.39896 0.02967 0.0
H130 H 0.49568 0.59631 0.17044 0.0
H131 H 0.45068 0.5678 0.11028 0.0
H132 H 0.46068 0.55634 0.2263 0.0
H133 H 0.60059 0.43888 0.91101 0.0
H134 H 0.56098 0.4775 0.86533 0.0
H135 H 0.60332 0.5071 0.93309 0.0
H136 H 0.46582 0.61228 0.83256 0.0
H137 H 0.5739 0.6773 0.98168 0.0
H138 H 0.44335 0.51847 0.9595 0.0
H139 H 0.48116 0.48639 0.88087 0.0
H140 H 0.44306 0.52912 0.84106 0.0
H141 H 0.5748 0.60699 0.15129 0.0
H142 H 0.61352 0.63284 0.0801 0.0
H143 H 0.60689 0.56521 0.07372 0.0
C144 C 0.53018 0.95471 0.83954 0.0
C145 C 0.50874 0.91796 0.88173 0.0
C146 C 0.53407 1.00486 0.88417 0.0
C147 C 0.51655 0.01825 0.97347 0.0
C148 C 0.497 0.98036 0.01791 0.0
C149 C 0.49322 0.931 0.97154 0.0
C150 C 0.55477 0.04363 0.83289 0.0
C151 C 0.47816 0.99244 0.11313 0.0
C152 C 0.53953 0.14016 0.13425 0.0
C153 C 0.5028 0.16877 0.12355 0.0
C154 C 0.54587 0.09228 0.08172 0.0
C155 C 0.5145 0.07221 0.01804 0.0
C156 C 0.47833 0.10187 0.00436 0.0
C157 C 0.47295 0.14957 0.05699 0.0
C158 C 0.58557 0.06257 0.09599 0.0
C159 C 0.44435 0.08239 0.93641 0.0
H160 H 0.54233 0.94491 0.77024 0.0
H161 H 0.47739 0.90256 0.00557 0.0
H162 H 0.53052 0.05956 0.79022 0.0
H163 H 0.56857 0.07525 0.88004 0.0
H164 H 0.58015 0.02605 0.78618 0.0
H165 H 0.46657 0.95804 0.14042 0.0
H166 H 0.5021 1.01132 0.16126 0.0
H167 H 0.4511 0.01911 0.11169 0.0
H168 H 0.56309 0.15483 0.18447 0.0
H169 H 0.44464 0.17139 0.04713 0.0
H170 H 0.6 0.04732 0.02883 0.0
H171 H 0.57731 0.02978 0.1317 0.0
H172 H 0.60952 0.08602 0.13761 0.0
H173 H 0.45875 0.07044 0.86783 0.0
H174 H 0.41945 0.11127 0.92965 0.0
H175 H 0.42895 0.0486 0.95857 0.0
C176 C 0.03527 0.86716 0.02236 0.0
C177 C 0.00533 0.86837 0.09379 0.0
C178 C 0.03818 0.90706 0.96874 0.0
C179 C 0.0113 0.95001 0.98844 0.0
C180 C 0.98224 0.95228 0.0629 0.0
C181 C 0.97918 0.91125 0.1136 0.0
C182 C 0.06892 0.90232 0.88891 0.0
C183 C 0.95391 0.9979 0.0885 0.0
C184 C 0.03857 0.07543 0.90372 0.0
C185 C 0.00778 0.07811 0.83566 0.0
C186 C 0.04091 0.03344 0.9523 0.0
C187 C 0.01263 0.99224 0.93057 0.0
C188 C 0.98331 0.99337 0.8578 0.0
C189 C 0.9807 0.03661 0.81249 0.0
C190 C 0.07185 0.03471 0.03079 0.0
C191 C 0.95355 0.94965 0.82999 0.0
H192 H 0.0554 0.83409 0.00593 0.0
H193 H 0.95612 0.9127 0.1689 0.0
H194 H 0.05096 0.90079 0.82377 0.0
H195 H 0.08986 0.93598 0.89377 0.0
H196 H 0.08909 0.8678 0.88545 0.0
H197 H 0.93536 0.99548 0.15222 0.0
H198 H 0.97325 0.03299 0.09859 0.0
H199 H 0.93135 1.00144 0.03194 0.0
H200 H 0.05919 0.10762 0.92314 0.0
H201 H 0.95684 0.03838 0.76003 0.0
H202 H 0.09104 0.99942 0.02387 0.0
H203 H 0.05399 0.03695 0.0965 0.0
H204 H 0.09371 0.06762 0.03481 0.0
H205 H 0.97139 0.9133 0.82071 0.0
H206 H 0.93648 0.95354 0.76531 0.0
H207 H 0.92969 0.94757 0.88507 0.0
C208 C 0.30196 0.80553 0.66758 0.0
C209 C 0.34214 0.78632 0.63883 0.0
C210 C 0.26559 0.79325 0.61436 0.0
C211 C 0.26937 0.7618 0.52895 0.0
C212 C 0.30999 0.74323 0.49829 0.0
C213 C 0.34584 0.75502 0.55437 0.0
C214 C 0.22292 0.81326 0.65037 0.0
C215 C 0.31552 0.71103 0.40624 0.0
C216 C 0.17054 0.69088 0.43395 0.0
C217 C 0.15431 0.72336 0.375 0.0
C218 C 0.20792 0.70291 0.48433 0.0
C219 C 0.23044 0.74773 0.47334 0.0
C220 C 0.21444 0.78035 0.41296 0.0
C221 C 0.17634 0.76807 0.36548 0.0
C222 C 0.2231 0.66783 0.54994 0.0
C223 C 0.23789 0.82782 0.39718 0.0
H224 H 0.29864 0.82913 0.73345 0.0
H225 H 0.37679 0.74018 0.53182 0.0
H226 H 0.20767 0.83523 0.60045 0.0
H227 H 0.20158 0.78113 0.65903 0.0
H228 H 0.22549 0.83805 0.7172 0.0
H229 H 0.3494 0.7019 0.39008 0.0
H230 H 0.29775 0.67507 0.40524 0.0
H231 H 0.30216 0.731 0.35124 0.0
H232 H 0.15367 0.65626 0.44165 0.0
H233 H 0.16423 0.79303 0.31931 0.0
H234 H 0.2282 0.68939 0.61908 0.0
H235 H 0.25405 0.65081 0.52604 0.0
H236 H 0.20024 0.63674 0.55614 0.0
H237 H 0.24656 0.85055 0.46339 0.0
H238 H 0.2189 0.85207 0.35677 0.0
H239 H 0.26788 0.8171 0.35942 0.0
C240 C 0.19915 0.29496 0.71077 0.0
C241 C 0.1651 0.27137 0.6605 0.0
C242 C 0.23983 0.29682 0.6716 0.0
C243 C 0.24656 0.27563 0.57898 0.0
C244 C 0.21209 0.25222 0.52766 0.0
C245 C 0.17194 0.24966 0.56943 0.0
C246 C 0.2757 0.32083 0.7299 0.0
C247 C 0.21726 0.23147 0.42764 0.0
C248 C 0.34181 0.3206 0.45033 0.0
C249 C 0.36913 0.27859 0.44467 0.0
C250 C 0.30192 0.32027 0.49388 0.0
C251 C 0.28964 0.27766 0.53593 0.0
C252 C 0.3182 0.23634 0.53476 0.0
C253 C 0.35718 0.23689 0.48764 0.0
C254 C 0.27209 0.36447 0.49091 0.0
C255 C 0.30696 0.19076 0.58066 0.0
H256 H 0.19418 0.31132 0.78171 0.0
H257 H 0.14563 0.23186 0.53016 0.0
H258 H 0.29943 0.29132 0.74055 0.0
H259 H 0.2922 0.3495 0.69464 0.0
H260 H 0.26448 0.33939 0.79807 0.0
H261 H 0.18813 0.21228 0.39824 0.0
H262 H 0.22474 0.26325 0.38886 0.0
H263 H 0.24417 0.2043 0.41782 0.0
H264 H 0.35042 0.35247 0.41554 0.0
H265 H 0.37801 0.20414 0.48269 0.0
H266 H 0.26149 0.37988 0.56128 0.0
H267 H 0.24334 0.35148 0.45114 0.0
H268 H 0.28698 0.39549 0.45863 0.0
H269 H 0.2971 0.20294 0.65291 0.0
H270 H 0.33391 0.16371 0.58006 0.0
H271 H 0.27966 0.17063 0.54491 0.0
C272 C 0.87026 0.22149 0.4845 0.0
C273 C 0.88087 0.26436 0.54667 0.0
C274 C 0.83691 0.22322 0.42148 0.0
C275 C 0.81389 0.26894 0.4204 0.0
C276 C 0.82665 0.31317 0.47823 0.0
C277 C 0.85993 0.31033 0.54054 0.0
C278 C 0.82439 0.17522 0.36089 0.0
C279 C 0.80327 0.36281 0.47892 0.0
C280 C 0.73608 0.28665 0.22936 0.0
C281 C 0.6969 0.2781 0.27067 0.0
C282 C 0.77456 0.28264 0.27616 0.0
C283 C 0.77391 0.26964 0.36637 0.0
C284 C 0.73455 0.25982 0.4075 0.0
C285 C 0.69657 0.26447 0.35947 0.0
C286 C 0.81583 0.29308 0.22963 0.0
C287 C 0.73236 0.24527 0.50311 0.0
H288 H 0.88611 0.18574 0.48893 0.0
H289 H 0.8681 0.34372 0.58794 0.0
H290 H 0.79427 0.16073 0.38678 0.0
H291 H 0.81871 0.18274 0.28954 0.0
H292 H 0.849 0.14517 0.35976 0.0
H293 H 0.81983 0.39476 0.52066 0.0
H294 H 0.79958 0.37193 0.40797 0.0
H295 H 0.77092 0.35954 0.50782 0.0
H296 H 0.73673 0.29696 0.16056 0.0
H297 H 0.66655 0.25737 0.3917 0.0
H298 H 0.83824 0.261 0.23118 0.0
H299 H 0.831 0.32728 0.26731 0.0
H300 H 0.81117 0.29926 0.15709 0.0
H301 H 0.6999 0.23342 0.52065 0.0
H302 H 0.74193 0.27803 0.55375 0.0
H303 H 0.75468 0.21374 0.51005 0.0
C304 C 0.88186 0.76583 0.52964 0.0
C305 C 0.875 0.7325 0.4487 0.0
C306 C 0.84814 0.78042 0.59122 0.0
C307 C 0.80625 0.76341 0.56869 0.0
C308 C 0.79943 0.72955 0.48693 0.0
C309 C 0.83393 0.71365 0.42969 0.0
C310 C 0.8574 0.81487 0.67905 0.0
C311 C 0.75578 0.7101 0.4574 0.0
C312 C 0.70899 0.76137 0.72146 0.0
C313 C 0.68922 0.80741 0.71082 0.0
C314 C 0.7491 0.74873 0.68255 0.0
C315 C 0.76908 0.78177 0.62775 0.0
C316 C 0.75012 0.82954 0.62073 0.0
C317 C 0.71072 0.84196 0.6635 0.0
C318 C 0.76953 0.69948 0.69904 0.0
C319 C 0.77061 0.86819 0.56841 0.0
H320 H 0.9135 0.78059 0.54471 0.0
H321 H 0.82804 0.68823 0.36688 0.0
H322 H 0.85076 0.85464 0.66896 0.0
H323 H 0.83712 0.80553 0.73637 0.0
H324 H 0.89128 0.81243 0.699 0.0
H325 H 0.75323 0.70368 0.3813 0.0
H326 H 0.75058 0.67304 0.48201 0.0
H327 H 0.72986 0.73622 0.48475 0.0
H328 H 0.69322 0.73522 0.76083 0.0
H329 H 0.6961 0.87821 0.65713 0.0
H330 H 0.80466 0.70279 0.70209 0.0
H331 H 0.76131 0.66939 0.64212 0.0
H332 H 0.75794 0.68726 0.76406 0.0
H333 H 0.78692 0.89688 0.61798 0.0
H334 H 0.74615 0.88862 0.53322 0.0
H335 H 0.79423 0.85155 0.51673 0.0
C336 C 0.31985 0.77406 0.031 0.0
C337 C 0.33383 0.81501 0.9889 0.0
C338 C 0.27646 0.76445 0.03885 0.0
C339 C 0.2468 0.79563 1.00059 0.0
C340 C 0.26073 0.83879 0.96266 0.0
C341 C 0.30434 0.84851 0.9588 0.0
C342 C 0.26252 0.71927 0.08329 0.0
C343 C 0.22997 0.87343 0.92268 0.0
C344 C 0.14743 0.72331 0.92313 0.0
C345 C 0.12099 0.73722 0.99874 0.0
C346 C 0.18796 0.74472 0.92003 0.0
C347 C 0.20176 0.78035 0.99462 0.0
C348 C 0.1738 0.79701 0.06782 0.0
C349 C 0.13366 0.77497 0.06919 0.0
C350 C 0.21688 0.72699 0.83984 0.0
C351 C 0.18725 0.83551 0.14742 0.0
H352 H 0.34294 0.74835 0.05417 0.0
H353 H 0.31539 0.88004 0.92562 0.0
H354 H 0.23749 0.73058 0.13552 0.0
H355 H 0.24871 0.69015 0.03057 0.0
H356 H 0.28928 0.70185 0.11698 0.0
H357 H 0.21433 0.89869 0.97928 0.0
H358 H 0.24623 0.89757 0.87739 0.0
H359 H 0.20468 0.85153 0.88273 0.0
H360 H 0.13723 0.69416 0.86886 0.0
H361 H 0.11277 0.78577 0.12735 0.0
H362 H 0.24135 0.7011 0.86163 0.0
H363 H 0.23368 0.75953 0.81647 0.0
H364 H 0.19916 0.70642 0.78107 0.0
H365 H 0.21236 0.81887 0.18692 0.0
H366 H 0.16035 0.84789 0.1944 0.0
H367 H 0.201 0.86933 0.12222 0.0
C368 C 0.13153 0.28256 0.04971 0.0
C369 C 0.14093 0.25066 0.96831 0.0
C370 C 0.16416 0.30786 0.1019 0.0
C371 C 0.20649 0.30216 0.06943 0.0
C372 C 0.21578 0.27095 0.98581 0.0
C373 C 0.18289 0.24485 0.93714 0.0
C374 C 0.1536 0.33974 0.19213 0.0
C375 C 0.26054 0.2644 0.94816 0.0
C376 C 0.29938 0.38656 0.14295 0.0
C377 C 0.32279 0.35392 0.1902 0.0
C378 C 0.25883 0.37237 0.10963 0.0
C379 C 0.2421 0.3249 0.12527 0.0
C380 C 0.2643 0.29436 0.18065 0.0
C381 C 0.30456 0.30933 0.21244 0.0
C382 C 0.23618 0.40531 0.0494 0.0
C383 C 0.24781 0.24319 0.1975 0.0
H384 H 0.09882 0.28724 0.0728 0.0
H385 H 0.1899 0.2211 0.87283 0.0
H386 H 0.16899 0.32325 0.2491 0.0
H387 H 0.16631 0.37862 0.19315 0.0
H388 H 0.11883 0.3422 0.20535 0.0
H389 H 0.26139 0.24374 0.87717 0.0
H390 H 0.27591 0.3018 0.94787 0.0
H391 H 0.27981 0.24284 0.99267 0.0
H392 H 0.31396 0.42097 0.12603 0.0
H393 H 0.32303 0.28446 0.24972 0.0
H394 H 0.20169 0.40743 0.06522 0.0
H395 H 0.23981 0.38841 0.97645 0.0
H396 H 0.24932 0.44434 0.05736 0.0
H397 H 0.26641 0.22719 0.25088 0.0
H398 H 0.24991 0.21619 0.13311 0.0
H399 H 0.21389 0.24591 0.21838 0.0
C400 C 0.61191 0.25176 0.84323 0.0
C401 C 0.59579 0.22239 0.90731 0.0
C402 C 0.64894 0.23666 0.79364 0.0
C403 C 0.66917 0.19076 0.8076 0.0
C404 C 0.6488 0.15732 0.86054 0.0
C405 C 0.61243 0.1739 0.91092 0.0
C406 C 0.66943 0.27363 0.73802 0.0
C407 C 0.66875 0.10741 0.87478 0.0
C408 C 0.77465 0.15385 0.6904 0.0
C409 C 0.80333 0.17403 0.7586 0.0
C410 C 0.73062 0.15888 0.70468 0.0
C411 C 0.71527 0.18445 0.78909 0.0
C412 C 0.74416 0.20452 0.85828 0.0
C413 C 0.78777 0.19892 0.84218 0.0
C414 C 0.70068 0.13692 0.62979 0.0
C415 C 0.72912 0.23239 0.94942 0.0
H416 H 0.59896 0.28926 0.8401 0.0
H417 H 0.59964 0.15111 0.96023 0.0
H418 H 0.68918 0.30055 0.7841 0.0
H419 H 0.69025 0.25427 0.68328 0.0
H420 H 0.64503 0.29596 0.70648 0.0
H421 H 0.64606 0.08257 0.90543 0.0
H422 H 0.68074 0.08709 0.80874 0.0
H423 H 0.69624 0.11451 0.92179 0.0
H424 H 0.78654 0.13479 0.62537 0.0
H425 H 0.80973 0.2146 0.89513 0.0
H426 H 0.71749 0.1253 0.56363 0.0
H427 H 0.67551 0.1647 0.61893 0.0
H428 H 0.68474 0.10317 0.65065 0.0
H429 H 0.70907 0.26525 0.93802 0.0
H430 H 0.75589 0.24645 0.99489 0.0
H431 H 0.70937 0.20699 0.98593 0.0
C432 C 0.78688 0.77991 0.24628 0.0
C433 C 0.8031 0.7532 0.16452 0.0
C434 C 0.74414 0.79458 0.25366 0.0
C435 C 0.71758 0.78379 0.17642 0.0
C436 C 0.73358 0.7557 0.09429 0.0
C437 C 0.77613 0.74007 0.0899 0.0
C438 C 0.72833 0.82316 0.34307 0.0
C439 C 0.70625 0.74387 0.00971 0.0
C440 C 0.59941 0.78509 0.15422 0.0
C441 C 0.59515 0.82695 0.10653 0.0
C442 C 0.63893 0.77368 0.19002 0.0
C443 C 0.67407 0.80492 0.17704 0.0
C444 C 0.66766 0.852 0.14481 0.0
C445 C 0.6278 0.86279 0.1106 0.0
C446 C 0.64438 0.72502 0.23059 0.0
C447 C 0.70412 0.88735 0.13355 0.0
H448 H 0.80765 0.78957 0.30472 0.0
H449 H 0.78873 0.7194 0.02684 0.0
H450 H 0.73534 0.86406 0.3446 0.0
H451 H 0.69366 0.8187 0.35292 0.0
H452 H 0.74503 0.81004 0.40168 0.0
H453 H 0.72358 0.7215 0.95173 0.0
H454 H 0.67778 0.7222 0.02583 0.0
H455 H 0.69501 0.77965 0.98688 0.0
H456 H 0.57387 0.75776 0.15295 0.0
H457 H 0.62396 0.89586 0.07567 0.0
H458 H 0.66452 0.73143 0.29291 0.0
H459 H 0.66076 0.69656 0.18017 0.0
H460 H 0.61337 0.70909 0.24873 0.0
H461 H 0.72412 0.89242 0.19601 0.0
H462 H 0.6929 0.92515 0.1197 0.0
H463 H 0.72442 0.87068 0.07513 0.0
loop_
_geom_bond_atom_site_label_1
_geom_bond_atom_site_label_2
_geom_bond_distance
_geom_bond_site_symmetry_2
_ccdc_geom_bond_type
Zn0 O6 1.969 . S
Zn0 O7 1.965 . S
Zn0 O11 2.024 . S
Zn0 O16 1.969 . S
Zn1 O8 1.969 . S
Zn1 O14 1.969 . S
Zn1 O15 1.965 . S
Zn1 O17 2.024 . S
C2 O3 1.229 . S
C2 O11 1.058 . S
O3 C2 1.229 . S
C4 O5 1.229 . S
C4 O17 1.058 . S
O5 C4 1.229 . S
O6 Zn0 1.969 . S
O6 C9 1.267 . S
O7 Zn0 1.965 . S
O7 C18 1.260 1_655 S
O8 Zn1 1.969 . S
O8 C18 1.258 . S
C9 O6 1.267 . S
C9 O10 1.228 . S
O10 C9 1.228 . S
O11 Zn0 2.024 . S
O11 C2 1.058 . S
C12 O13 1.228 . S
C12 O14 1.267 . S
O13 C12 1.228 . S
O14 Zn1 1.969 . S
O14 C12 1.267 . S
O15 Zn1 1.965 . S
O15 C19 1.260 . S
O16 Zn0 1.969 . S
O16 C19 1.258 1_655 S
O17 Zn1 2.024 . S
O17 C4 1.058 . S
C18 O7 1.260 1_455 S
C18 O8 1.258 . S
C19 O15 1.260 . S
C19 O16 1.258 1_455 S
Zn20 O26 1.969 . S
Zn20 O27 1.965 . S
Zn20 O31 2.024 . S
Zn20 O36 1.969 . S
Zn21 O28 1.969 . S
Zn21 O34 1.969 . S
Zn21 O35 1.965 . S
Zn21 O37 2.024 . S
C22 O23 1.229 . S
C22 O31 1.058 . S
O23 C22 1.229 . S
C24 O25 1.229 . S
C24 O37 1.058 . S
O25 C24 1.229 . S
O26 Zn20 1.969 . S
O26 C29 1.267 . S
O27 Zn20 1.965 . S
O27 C38 1.260 . S
O28 Zn21 1.969 . S
O28 C38 1.258 . S
C29 O26 1.267 . S
C29 O30 1.228 . S
O30 C29 1.228 . S
O31 Zn20 2.024 . S
O31 C22 1.058 . S
C32 O33 1.228 . S
C32 O34 1.267 . S
O33 C32 1.228 . S
O34 Zn21 1.969 . S
O34 C32 1.267 . S
O35 Zn21 1.965 . S
O35 C39 1.260 . S
O36 Zn20 1.969 . S
O36 C39 1.258 . S
O37 Zn21 2.024 . S
O37 C24 1.058 . S
C38 O27 1.260 . S
C38 O28 1.258 . S
C39 O35 1.260 . S
C39 O36 1.258 . S
Zn40 O46 1.969 . S
Zn40 O47 1.965 . S
Zn40 O51 2.024 . S
Zn40 O56 1.969 . S
Zn41 O48 1.969 . S
Zn41 O54 1.969 . S
Zn41 O55 1.965 . S
Zn41 O57 2.024 . S
C42 O43 1.229 . S
C42 O51 1.058 . S
O43 C42 1.229 . S
C44 O45 1.229 . S
C44 O57 1.058 . S
O45 C44 1.229 . S
O46 Zn40 1.969 . S
O46 C49 1.267 . S
O47 Zn40 1.965 . S
O47 C58 1.260 1_655 S
O48 Zn41 1.969 . S
O48 C58 1.258 . S
C49 O46 1.267 . S
C49 O50 1.228 . S
O50 C49 1.228 . S
O51 Zn40 2.024 . S
O51 C42 1.058 . S
C52 O53 1.228 . S
C52 O54 1.267 . S
O53 C52 1.228 . S
O54 Zn41 1.969 . S
O54 C52 1.267 . S
O55 Zn41 1.965 . S
O55 C59 1.260 . S
O56 Zn40 1.969 . S
O56 C59 1.258 1_655 S
O57 Zn41 2.024 . S
O57 C44 1.058 . S
C58 O47 1.260 1_455 S
C58 O48 1.258 . S
C59 O55 1.260 . S
C59 O56 1.258 1_455 S
Zn60 O66 1.969 . S
Zn60 O67 1.965 . S
Zn60 O71 2.024 . S
Zn60 O76 1.969 . S
Zn61 O68 1.969 . S
Zn61 O74 1.969 . S
Zn61 O75 1.965 . S
Zn61 O77 2.024 . S
C62 O63 1.229 . S
C62 O71 1.058 . S
O63 C62 1.229 . S
C64 O65 1.229 . S
C64 O77 1.058 . S
O65 C64 1.229 . S
O66 Zn60 1.969 . S
O66 C69 1.267 . S
O67 Zn60 1.965 . S
O67 C78 1.260 . S
O68 Zn61 1.969 . S
O68 C78 1.258 . S
C69 O66 1.267 . S
C69 O70 1.228 . S
O70 C69 1.228 . S
O71 Zn60 2.024 . S
O71 C62 1.058 . S
C72 O73 1.228 . S
C72 O74 1.267 . S
O73 C72 1.228 . S
O74 Zn61 1.969 . S
O74 C72 1.267 . S
O75 Zn61 1.965 . S
O75 C79 1.260 . S
O76 Zn60 1.969 . S
O76 C79 1.258 . S
O77 Zn61 2.024 . S
O77 C64 1.058 . S
C78 O67 1.260 . S
C78 O68 1.258 . S
C79 O75 1.260 . S
C79 O76 1.258 . S
C80 C81 1.391 . S
C80 C82 1.394 1_455 S
C80 H96 0.931 . S
C81 C80 1.391 . S
C81 C85 1.378 . S
C82 C80 1.394 1_655 S
C82 C83 1.369 . S
C82 C86 1.531 . S
C83 C82 1.369 . S
C83 C84 1.410 1_556 S
C83 C91 1.502 1_656 S
C84 C83 1.410 1_554 S
C84 C85 1.390 1_654 S
C84 C87 1.511 . S
C85 C81 1.378 . S
C85 C84 1.390 1_456 S
C85 H97 0.929 . S
C86 C82 1.531 . S
C86 H98 0.960 . S
C86 H99 0.962 1_655 S
C86 H100 0.960 . S
C87 C84 1.511 . S
C87 H101 0.961 1_655 S
C87 H102 0.961 1_655 S
C87 H103 0.961 . S
C88 C89 1.370 . S
C88 C90 1.363 . S
C88 H104 0.931 . S
C89 C88 1.370 . S
C89 C93 1.408 1_455 S
C90 C88 1.363 . S
C90 C91 1.386 . S
C90 C94 1.524 . S
C91 C83 1.502 1_454 S
C91 C90 1.386 . S
C91 C92 1.388 1_455 S
C92 C91 1.388 1_655 S
C92 C93 1.404 . S
C92 C95 1.539 . S
C93 C89 1.408 1_655 S
C93 C92 1.404 . S
C93 H105 0.930 . S
C94 C90 1.524 . S
C94 H106 0.956 1_554 S
C94 H107 0.961 . S
C94 H108 0.961 . S
C95 C92 1.539 . S
C95 H109 0.958 1_554 S
C95 H110 0.961 . S
C95 H111 0.960 . S
H96 C80 0.931 . S
H97 C85 0.929 . S
H98 C86 0.960 . S
H99 C86 0.962 1_455 S
H100 C86 0.960 . S
H101 C87 0.961 1_455 S
H102 C87 0.961 1_455 S
H103 C87 0.961 . S
H104 C88 0.931 . S
H105 C93 0.930 . S
H106 C94 0.956 1_556 S
H107 C94 0.961 . S
H108 C94 0.961 . S
H109 C95 0.958 1_556 S
H110 C95 0.961 . S
H111 C95 0.960 . S
C112 C113 1.391 . S
C112 C114 1.394 . S
C112 H128 0.931 . S
C113 C112 1.391 . S
C113 C117 1.376 . S
C114 C112 1.394 . S
C114 C115 1.369 . S
C114 C118 1.531 . S
C115 C114 1.369 . S
C115 C116 1.410 1_554 S
C115 C123 1.503 1_554 S
C116 C115 1.410 1_556 S
C116 C117 1.392 1_556 S
C116 C119 1.511 . S
C117 C113 1.376 . S
C117 C116 1.392 1_554 S
C117 H129 0.929 . S
C118 C114 1.531 . S
C118 H130 0.960 . S
C118 H131 0.962 . S
C118 H132 0.960 . S
C119 C116 1.511 . S
C119 H133 0.961 . S
C119 H134 0.961 . S
C119 H135 0.961 . S
C120 C121 1.370 . S
C120 C122 1.363 . S
C120 H136 0.931 . S
C121 C120 1.370 . S
C121 C125 1.408 . S
C122 C120 1.363 . S
C122 C123 1.370 . S
C122 C126 1.524 . S
C123 C115 1.503 1_556 S
C123 C122 1.370 . S
C123 C124 1.403 . S
C124 C123 1.403 . S
C124 C125 1.404 . S
C124 C127 1.539 1_556 S
C125 C121 1.408 . S
C125 C124 1.404 . S
C125 H137 0.930 . S
C126 C122 1.524 . S
C126 H138 0.956 1_556 S
C126 H139 0.961 . S
C126 H140 0.961 . S
C127 C124 1.539 1_554 S
C127 H141 0.958 . S
C127 H142 0.961 1_554 S
C127 H143 0.960 . S
H128 C112 0.931 . S
H129 C117 0.929 . S
H130 C118 0.960 . S
H131 C118 0.962 . S
H132 C118 0.960 . S
H133 C119 0.961 . S
H134 C119 0.961 . S
H135 C119 0.961 . S
H136 C120 0.931 . S
H137 C125 0.930 . S
H138 C126 0.956 1_554 S
H139 C126 0.961 . S
H140 C126 0.961 . S
H141 C127 0.958 . S
H142 C127 0.961 1_556 S
H143 C127 0.960 . S
C144 C145 1.391 . S
C144 C146 1.394 . S
C144 H160 0.931 . S
C145 C144 1.391 . S
C145 C149 1.376 . S
C146 C144 1.394 . S
C146 C147 1.369 . S
C146 C150 1.531 1_565 S
C147 C146 1.369 . S
C147 C148 1.410 1_556 S
C147 C155 1.503 1_566 S
C148 C147 1.410 1_554 S
C148 C149 1.392 1_554 S
C148 C151 1.511 . S
C149 C145 1.376 . S
C149 C148 1.392 1_556 S
C149 H161 0.929 . S
C150 C146 1.531 1_545 S
C150 H162 0.960 . S
C150 H163 0.962 . S
C150 H164 0.960 1_545 S
C151 C148 1.511 . S
C151 H165 0.961 . S
C151 H166 0.961 . S
C151 H167 0.961 . S
C152 C153 1.370 . S
C152 C154 1.363 . S
C152 H168 0.931 . S
C153 C152 1.370 . S
C153 C157 1.408 . S
C154 C152 1.363 . S
C154 C155 1.370 . S
C154 C158 1.524 1_554 S
C155 C147 1.503 1_544 S
C155 C154 1.370 . S
C155 C156 1.403 . S
C156 C155 1.403 . S
C156 C157 1.404 . S
C156 C159 1.539 . S
C157 C153 1.408 . S
C157 C156 1.404 . S
C157 H169 0.930 . S
C158 C154 1.524 1_556 S
C158 H170 0.956 . S
C158 H171 0.961 . S
C158 H172 0.961 . S
C159 C156 1.539 . S
C159 H173 0.958 . S
C159 H174 0.961 . S
C159 H175 0.960 1_545 S
H160 C144 0.931 . S
H161 C149 0.929 . S
H162 C150 0.960 . S
H163 C150 0.962 . S
H164 C150 0.960 1_565 S
H165 C151 0.961 . S
H166 C151 0.961 . S
H167 C151 0.961 . S
H168 C152 0.931 . S
H169 C157 0.930 . S
H170 C158 0.956 . S
H171 C158 0.961 . S
H172 C158 0.961 . S
H173 C159 0.958 . S
H174 C159 0.961 . S
H175 C159 0.960 1_565 S
C176 C177 1.391 1_455 S
C176 C178 1.394 . S
C176 H192 0.931 . S
C177 C176 1.391 1_655 S
C177 C181 1.376 . S
C178 C176 1.394 . S
C178 C179 1.369 1_455 S
C178 C182 1.531 1_554 S
C179 C178 1.369 1_655 S
C179 C180 1.410 . S
C179 C187 1.503 1_564 S
C180 C179 1.410 . S
C180 C181 1.392 . S
C180 C183 1.511 . S
C181 C177 1.376 . S
C181 C180 1.392 . S
C181 H193 0.929 . S
C182 C178 1.531 1_556 S
C182 H194 0.960 . S
C182 H195 0.962 1_556 S
C182 H196 0.960 . S
C183 C180 1.511 . S
C183 H197 0.961 . S
C183 H198 0.961 1_565 S
C183 H199 0.961 1_554 S
C184 C185 1.370 1_455 S
C184 C186 1.363 1_556 S
C184 H200 0.931 . S
C185 C184 1.370 1_655 S
C185 C189 1.408 . S
C186 C184 1.363 1_554 S
C186 C187 1.370 1_454 S
C186 C190 1.524 . S
C187 C179 1.503 1_546 S
C187 C186 1.370 1_656 S
C187 C188 1.403 . S
C188 C187 1.403 . S
C188 C189 1.404 . S
C188 C191 1.539 1_545 S
C189 C185 1.408 . S
C189 C188 1.404 . S
C189 H201 0.930 . S
C190 C186 1.524 . S
C190 H202 0.956 . S
C190 H203 0.961 1_455 S
C190 H204 0.961 . S
C191 C188 1.539 1_565 S
C191 H205 0.958 . S
C191 H206 0.961 . S
C191 H207 0.960 . S
H192 C176 0.931 . S
H193 C181 0.929 . S
H194 C182 0.960 . S
H195 C182 0.962 1_554 S
H196 C182 0.960 . S
H197 C183 0.961 . S
H198 C183 0.961 1_545 S
H199 C183 0.961 1_556 S
H200 C184 0.931 . S
H201 C189 0.930 . S
H202 C190 0.956 . S
H203 C190 0.961 1_655 S
H204 C190 0.961 . S
H205 C191 0.958 . S
H206 C191 0.961 . S
H207 C191 0.960 . S
C208 C209 1.391 . S
C208 C210 1.394 . S
C208 H224 0.931 . S
C209 C208 1.391 . S
C209 C213 1.376 . S
C210 C208 1.394 . S
C210 C211 1.369 . S
C210 C214 1.531 . S
C211 C210 1.369 . S
C211 C212 1.410 . S
C211 C219 1.503 . S
C212 C211 1.410 . S
C212 C213 1.392 . S
C212 C215 1.511 . S
C213 C209 1.376 . S
C213 C212 1.392 . S
C213 H225 0.929 . S
C214 C210 1.531 . S
C214 H226 0.960 . S
C214 H227 0.962 . S
C214 H228 0.960 . S
C215 C212 1.511 . S
C215 H229 0.961 . S
C215 H230 0.961 . S
C215 H231 0.961 . S
C216 C217 1.370 . S
C216 C218 1.363 . S
C216 H232 0.931 . S
C217 C216 1.370 . S
C217 C221 1.408 . S
C218 C216 1.363 . S
C218 C219 1.370 . S
C218 C222 1.524 . S
C219 C211 1.503 . S
C219 C218 1.370 . S
C219 C220 1.403 . S
C220 C219 1.403 . S
C220 C221 1.404 . S
C220 C223 1.539 . S
C221 C217 1.408 . S
C221 C220 1.404 . S
C221 H233 0.930 . S
C222 C218 1.524 . S
C222 H234 0.956 . S
C222 H235 0.961 . S
C222 H236 0.961 . S
C223 C220 1.539 . S
C223 H237 0.958 . S
C223 H238 0.961 . S
C223 H239 0.960 . S
H224 C208 0.931 . S
H225 C213 0.929 . S
H226 C214 0.960 . S
H227 C214 0.962 . S
H228 C214 0.960 . S
H229 C215 0.961 . S
H230 C215 0.961 . S
H231 C215 0.961 . S
H232 C216 0.931 . S
H233 C221 0.930 . S
H234 C222 0.956 . S
H235 C222 0.961 . S
H236 C222 0.961 . S
H237 C223 0.958 . S
H238 C223 0.961 . S
H239 C223 0.960 . S
C240 C241 1.391 . S
C240 C242 1.394 . S
C240 H256 0.931 . S
C241 C240 1.391 . S
C241 C245 1.376 . S
C242 C240 1.394 . S
C242 C243 1.369 . S
C242 C246 1.531 . S
C243 C242 1.369 . S
C243 C244 1.410 . S
C243 C251 1.503 . S
C244 C243 1.410 . S
C244 C245 1.392 . S
C244 C247 1.511 . S
C245 C241 1.376 . S
C245 C244 1.392 . S
C245 H257 0.929 . S
C246 C242 1.531 . S
C246 H258 0.960 . S
C246 H259 0.962 . S
C246 H260 0.960 . S
C247 C244 1.511 . S
C247 H261 0.961 . S
C247 H262 0.961 . S
C247 H263 0.961 . S
C248 C249 1.370 . S
C248 C250 1.363 . S
C248 H264 0.931 . S
C249 C248 1.370 . S
C249 C253 1.408 . S
C250 C248 1.363 . S
C250 C251 1.370 . S
C250 C254 1.524 . S
C251 C243 1.503 . S
C251 C250 1.370 . S
C251 C252 1.403 . S
C252 C251 1.403 . S
C252 C253 1.404 . S
C252 C255 1.539 . S
C253 C249 1.408 . S
C253 C252 1.404 . S
C253 H265 0.930 . S
C254 C250 1.524 . S
C254 H266 0.956 . S
C254 H267 0.961 . S
C254 H268 0.961 . S
C255 C252 1.539 . S
C255 H269 0.958 . S
C255 H270 0.961 . S
C255 H271 0.960 . S
H256 C240 0.931 . S
H257 C245 0.929 . S
H258 C246 0.960 . S
H259 C246 0.962 . S
H260 C246 0.960 . S
H261 C247 0.961 . S
H262 C247 0.961 . S
H263 C247 0.961 . S
H264 C248 0.931 . S
H265 C253 0.930 . S
H266 C254 0.956 . S
H267 C254 0.961 . S
H268 C254 0.961 . S
H269 C255 0.958 . S
H270 C255 0.961 . S
H271 C255 0.960 . S
C272 C273 1.391 . S
C272 C274 1.394 . S
C272 H288 0.931 . S
C273 C272 1.391 . S
C273 C277 1.376 . S
C274 C272 1.394 . S
C274 C275 1.369 . S
C274 C278 1.531 . S
C275 C274 1.369 . S
C275 C276 1.410 . S
C275 C283 1.503 . S
C276 C275 1.410 . S
C276 C277 1.392 . S
C276 C279 1.511 . S
C277 C273 1.376 . S
C277 C276 1.392 . S
C277 H289 0.929 . S
C278 C274 1.531 . S
C278 H290 0.960 . S
C278 H291 0.962 . S
C278 H292 0.960 . S
C279 C276 1.511 . S
C279 H293 0.961 . S
C279 H294 0.961 . S
C279 H295 0.961 . S
C280 C281 1.370 . S
C280 C282 1.363 . S
C280 H296 0.931 . S
C281 C280 1.370 . S
C281 C285 1.408 . S
C282 C280 1.363 . S
C282 C283 1.370 . S
C282 C286 1.524 . S
C283 C275 1.503 . S
C283 C282 1.370 . S
C283 C284 1.403 . S
C284 C283 1.403 . S
C284 C285 1.404 . S
C284 C287 1.539 . S
C285 C281 1.408 . S
C285 C284 1.404 . S
C285 H297 0.930 . S
C286 C282 1.524 . S
C286 H298 0.956 . S
C286 H299 0.961 . S
C286 H300 0.961 . S
C287 C284 1.539 . S
C287 H301 0.958 . S
C287 H302 0.961 . S
C287 H303 0.960 . S
H288 C272 0.931 . S
H289 C277 0.929 . S
H290 C278 0.960 . S
H291 C278 0.962 . S
H292 C278 0.960 . S
H293 C279 0.961 . S
H294 C279 0.961 . S
H295 C279 0.961 . S
H296 C280 0.931 . S
H297 C285 0.930 . S
H298 C286 0.956 . S
H299 C286 0.961 . S
H300 C286 0.961 . S
H301 C287 0.958 . S
H302 C287 0.961 . S
H303 C287 0.960 . S
C304 C305 1.391 . S
C304 C306 1.394 . S
C304 H320 0.931 . S
C305 C304 1.391 . S
C305 C309 1.376 . S
C306 C304 1.394 . S
C306 C307 1.369 . S
C306 C310 1.531 . S
C307 C306 1.369 . S
C307 C308 1.410 . S
C307 C315 1.503 . S
C308 C307 1.410 . S
C308 C309 1.392 . S
C308 C311 1.511 . S
C309 C305 1.376 . S
C309 C308 1.392 . S
C309 H321 0.929 . S
C310 C306 1.531 . S
C310 H322 0.960 . S
C310 H323 0.962 . S
C310 H324 0.960 . S
C311 C308 1.511 . S
C311 H325 0.961 . S
C311 H326 0.961 . S
C311 H327 0.961 . S
C312 C313 1.370 . S
C312 C314 1.363 . S
C312 H328 0.931 . S
C313 C312 1.370 . S
C313 C317 1.408 . S
C314 C312 1.363 . S
C314 C315 1.370 . S
C314 C318 1.524 . S
C315 C307 1.503 . S
C315 C314 1.370 . S
C315 C316 1.403 . S
C316 C315 1.403 . S
C316 C317 1.404 . S
C316 C319 1.539 . S
C317 C313 1.408 . S
C317 C316 1.404 . S
C317 H329 0.930 . S
C318 C314 1.524 . S
C318 H330 0.956 . S
C318 H331 0.961 . S
C318 H332 0.961 . S
C319 C316 1.539 . S
C319 H333 0.958 . S
C319 H334 0.961 . S
C319 H335 0.960 . S
H320 C304 0.931 . S
H321 C309 0.929 . S
H322 C310 0.960 . S
H323 C310 0.962 . S
H324 C310 0.960 . S
H325 C311 0.961 . S
H326 C311 0.961 . S
H327 C311 0.961 . S
H328 C312 0.931 . S
H329 C317 0.930 . S
H330 C318 0.956 . S
H331 C318 0.961 . S
H332 C318 0.961 . S
H333 C319 0.958 . S
H334 C319 0.961 . S
H335 C319 0.960 . S
C336 C337 1.391 . S
C336 C338 1.394 . S
C336 H352 0.931 . S
C337 C336 1.391 . S
C337 C341 1.376 . S
C338 C336 1.394 . S
C338 C339 1.369 . S
C338 C342 1.531 . S
C339 C338 1.369 . S
C339 C340 1.410 . S
C339 C347 1.503 . S
C340 C339 1.410 . S
C340 C341 1.392 . S
C340 C343 1.511 . S
C341 C337 1.376 . S
C341 C340 1.392 . S
C341 H353 0.929 . S
C342 C338 1.531 . S
C342 H354 0.960 . S
C342 H355 0.962 1_554 S
C342 H356 0.960 . S
C343 C340 1.511 . S
C343 H357 0.961 1_554 S
C343 H358 0.961 1_554 S
C343 H359 0.961 . S
C344 C345 1.370 1_556 S
C344 C346 1.363 . S
C344 H360 0.931 . S
C345 C344 1.370 1_554 S
C345 C349 1.408 . S
C346 C344 1.363 . S
C346 C347 1.370 1_556 S
C346 C350 1.524 . S
C347 C339 1.503 . S
C347 C346 1.370 1_554 S
C347 C348 1.403 . S
C348 C347 1.403 . S
C348 C349 1.404 . S
C348 C351 1.539 . S
C349 C345 1.408 . S
C349 C348 1.404 . S
C349 H361 0.930 . S
C350 C346 1.524 . S
C350 H362 0.956 . S
C350 H363 0.961 . S
C350 H364 0.961 . S
C351 C348 1.539 . S
C351 H365 0.958 . S
C351 H366 0.961 . S
C351 H367 0.960 . S
H352 C336 0.931 . S
H353 C341 0.929 . S
H354 C342 0.960 . S
H355 C342 0.962 1_556 S
H356 C342 0.960 . S
H357 C343 0.961 1_556 S
H358 C343 0.961 1_556 S
H359 C343 0.961 . S
H360 C344 0.931 . S
H361 C349 0.930 . S
H362 C350 0.956 . S
H363 C350 0.961 . S
H364 C350 0.961 . S
H365 C351 0.958 . S
H366 C351 0.961 . S
H367 C351 0.960 . S
C368 C369 1.391 1_554 S
C368 C370 1.394 . S
C368 H384 0.931 . S
C369 C368 1.391 1_556 S
C369 C373 1.376 . S
C370 C368 1.394 . S
C370 C371 1.369 . S
C370 C374 1.531 . S
C371 C370 1.369 . S
C371 C372 1.410 1_554 S
C371 C379 1.503 . S
C372 C371 1.410 1_556 S
C372 C373 1.392 . S
C372 C375 1.511 . S
C373 C369 1.376 . S
C373 C372 1.392 . S
C373 H385 0.929 . S
C374 C370 1.531 . S
C374 H386 0.960 . S
C374 H387 0.962 . S
C374 H388 0.960 . S
C375 C372 1.511 . S
C375 H389 0.961 . S
C375 H390 0.961 . S
C375 H391 0.961 . S
C376 C377 1.370 . S
C376 C378 1.363 . S
C376 H392 0.931 . S
C377 C376 1.370 . S
C377 C381 1.408 1_556 S
C378 C376 1.363 . S
C378 C379 1.370 1_556 S
C378 C382 1.524 . S
C379 C371 1.503 . S
C379 C378 1.370 1_554 S
C379 C380 1.403 . S
C380 C379 1.403 . S
C380 C381 1.404 . S
C380 C383 1.539 . S
C381 C377 1.408 1_554 S
C381 C380 1.404 . S
C381 H393 0.930 . S
C382 C378 1.524 . S
C382 H394 0.956 . S
C382 H395 0.961 . S
C382 H396 0.961 . S
C383 C380 1.539 . S
C383 H397 0.958 . S
C383 H398 0.961 . S
C383 H399 0.960 . S
H384 C368 0.931 . S
H385 C373 0.929 . S
H386 C374 0.960 . S
H387 C374 0.962 . S
H388 C374 0.960 . S
H389 C375 0.961 . S
H390 C375 0.961 . S
H391 C375 0.961 . S
H392 C376 0.931 . S
H393 C381 0.930 . S
H394 C382 0.956 . S
H395 C382 0.961 . S
H396 C382 0.961 . S
H397 C383 0.958 . S
H398 C383 0.961 . S
H399 C383 0.960 . S
C400 C401 1.391 . S
C400 C402 1.394 . S
C400 H416 0.931 . S
C401 C400 1.391 . S
C401 C405 1.376 1_554 S
C402 C400 1.394 . S
C402 C403 1.369 . S
C402 C406 1.531 . S
C403 C402 1.369 . S
C403 C404 1.410 . S
C403 C411 1.503 . S
C404 C403 1.410 . S
C404 C405 1.392 1_554 S
C404 C407 1.511 1_554 S
C405 C401 1.376 1_556 S
C405 C404 1.392 1_556 S
C405 H417 0.929 . S
C406 C402 1.531 . S
C406 H418 0.960 . S
C406 H419 0.962 . S
C406 H420 0.960 . S
C407 C404 1.511 1_556 S
C407 H421 0.961 . S
C407 H422 0.961 . S
C407 H423 0.961 1_556 S
C408 C409 1.370 1_556 S
C408 C410 1.363 . S
C408 H424 0.931 . S
C409 C408 1.370 1_554 S
C409 C413 1.408 . S
C410 C408 1.363 . S
C410 C411 1.370 1_556 S
C410 C414 1.524 . S
C411 C403 1.503 . S
C411 C410 1.370 1_554 S
C411 C412 1.403 . S
C412 C411 1.403 . S
C412 C413 1.404 . S
C412 C415 1.539 . S
C413 C409 1.408 . S
C413 C412 1.404 . S
C413 H425 0.930 . S
C414 C410 1.524 . S
C414 H426 0.956 . S
C414 H427 0.961 . S
C414 H428 0.961 . S
C415 C412 1.539 . S
C415 H429 0.958 . S
C415 H430 0.961 . S
C415 H431 0.960 . S
H416 C400 0.931 . S
H417 C405 0.929 . S
H418 C406 0.960 . S
H419 C406 0.962 . S
H420 C406 0.960 . S
H421 C407 0.961 . S
H422 C407 0.961 . S
H423 C407 0.961 1_554 S
H424 C408 0.931 . S
H425 C413 0.930 . S
H426 C414 0.956 . S
H427 C414 0.961 . S
H428 C414 0.961 . S
H429 C415 0.958 . S
H430 C415 0.961 . S
H431 C415 0.960 . S
C432 C433 1.390 1_554 S
C432 C434 1.394 . S
C432 H448 0.931 . S
C433 C432 1.390 1_556 S
C433 C437 1.377 . S
C434 C432 1.394 . S
C434 C435 1.369 . S
C434 C438 1.531 . S
C435 C434 1.369 . S
C435 C436 1.410 1_554 S
C435 C443 1.503 . S
C436 C435 1.410 1_556 S
C436 C437 1.392 . S
C436 C439 1.511 . S
C437 C433 1.377 . S
C437 C436 1.392 . S
C437 H449 0.929 . S
C438 C434 1.531 . S
C438 H450 0.960 . S
C438 H451 0.962 . S
C438 H452 0.960 . S
C439 C436 1.511 . S
C439 H453 0.961 . S
C439 H454 0.961 . S
C439 H455 0.961 . S
C440 C441 1.370 . S
C440 C442 1.363 . S
C440 H456 0.931 . S
C441 C440 1.370 . S
C441 C445 1.408 1_556 S
C442 C440 1.363 . S
C442 C443 1.370 1_556 S
C442 C446 1.524 . S
C443 C435 1.503 . S
C443 C442 1.370 1_554 S
C443 C444 1.403 . S
C444 C443 1.403 . S
C444 C445 1.404 . S
C444 C447 1.539 . S
C445 C441 1.408 1_554 S
C445 C444 1.404 . S
C445 H457 0.930 . S
C446 C442 1.524 . S
C446 H458 0.956 . S
C446 H459 0.961 . S
C446 H460 0.961 . S
C447 C444 1.539 . S
C447 H461 0.958 . S
C447 H462 0.961 . S
C447 H463 0.960 . S
H448 C432 0.931 . S
H449 C437 0.929 . S
H450 C438 0.960 . S
H451 C438 0.962 . S
H452 C438 0.960 . S
H453 C439 0.961 . S
H454 C439 0.961 . S
H455 C439 0.961 . S
H456 C440 0.931 . S
H457 C445 0.930 . S
H458 C446 0.956 . S
H459 C446 0.961 . S
H460 C446 0.961 . S
H461 C447 0.958 . S
H462 C447 0.961 . S
H463 C447 0.960 . S
C81 C59 1.782 . S
C89 C19 1.797 . S
C113 C38 2.169 . S
C121 C78 2.173 . S
C145 C79 1.775 . S
C153 C39 1.801 . S
C177 C18 2.152 1_655 S
C185 C58 2.192 1_655 S
C209 C62 1.457 . S
C217 C12 1.496 . S
C241 C52 1.516 . S
C249 C22 1.437 . S
C273 C42 1.415 . S
C281 C32 1.510 . S
C305 C2 1.418 . S
C313 C72 1.510 . S
C337 C69 0.962 1_554 S
C345 C4 0.804 . S
C369 C44 0.926 . S
C377 C29 0.853 1_556 S
C401 C24 0.748 . S
C409 C49 0.912 1_554 S
C433 C9 0.807 1_556 S
C441 C64 0.875 . S
