# Generated by pormake.
# Topology wkd, (5)-cn, num edge types: 1
# Building blocks:
#     Node 0, Type 0, BuildingBlock: XOMCOT_clean_sbu_0, # of connection points: 5
#     Node 1, Type 0, BuildingBlock: XOMCOT_clean_sbu_0, # of connection points: 5
#     Node 2, Type 0, BuildingBlock: XOMCOT_clean_sbu_0, # of connection points: 5
#     Node 3, Type 0, BuildingBlock: XOMCOT_clean_sbu_0, # of connection points: 5
#     Node 4, Type 0, BuildingBlock: XOMCOT_clean_sbu_0, # of connection points: 5
#     Node 5, Type 0, BuildingBlock: XOMCOT_clean_sbu_0, # of connection points: 5
#     Node 6, Type 0, BuildingBlock: XOMCOT_clean_sbu_0, # of connection points: 5
#     Node 7, Type 0, BuildingBlock: XOMCOT_clean_sbu_0, # of connection points: 5
#     Node 8, Type 0, BuildingBlock: XOMCOT_clean_sbu_0, # of connection points: 5
#     Node 9, Type 0, BuildingBlock: XOMCOT_clean_sbu_0, # of connection points: 5
#     Node 10, Type 0, BuildingBlock: XOMCOT_clean_sbu_0, # of connection points: 5
#     Node 11, Type 0, BuildingBlock: XOMCOT_clean_sbu_0, # of connection points: 5
#     Edge 12, Type (0, 0), BuildingBlock: ZUJKAS_clean_linker_0, # of connection points: 2
#     Edge 13, Type (0, 0), BuildingBlock: ZUJKAS_clean_linker_0, # of connection points: 2
#     Edge 14, Type (0, 0), BuildingBlock: ZUJKAS_clean_linker_0, # of connection points: 2
#     Edge 15, Type (0, 0), BuildingBlock: ZUJKAS_clean_linker_0, # of connection points: 2
#     Edge 16, Type (0, 0), BuildingBlock: ZUJKAS_clean_linker_0, # of connection points: 2
#     Edge 17, Type (0, 0), BuildingBlock: ZUJKAS_clean_linker_0, # of connection points: 2
#     Edge 18, Type (0, 0), BuildingBlock: ZUJKAS_clean_linker_0, # of connection points: 2
#     Edge 19, Type (0, 0), BuildingBlock: ZUJKAS_clean_linker_0, # of connection points: 2
#     Edge 20, Type (0, 0), BuildingBlock: ZUJKAS_clean_linker_0, # of connection points: 2
#     Edge 21, Type (0, 0), BuildingBlock: ZUJKAS_clean_linker_0, # of connection points: 2
#     Edge 22, Type (0, 0), BuildingBlock: ZUJKAS_clean_linker_0, # of connection points: 2
#     Edge 23, Type (0, 0), BuildingBlock: ZUJKAS_clean_linker_0, # of connection points: 2
#     Edge 24, Type (0, 0), BuildingBlock: ZUJKAS_clean_linker_0, # of connection points: 2
#     Edge 25, Type (0, 0), BuildingBlock: ZUJKAS_clean_linker_0, # of connection points: 2
#     Edge 26, Type (0, 0), BuildingBlock: ZUJKAS_clean_linker_0, # of connection points: 2
#     Edge 27, Type (0, 0), BuildingBlock: ZUJKAS_clean_linker_0, # of connection points: 2
#     Edge 28, Type (0, 0), BuildingBlock: ZUJKAS_clean_linker_0, # of connection points: 2
#     Edge 29, Type (0, 0), BuildingBlock: ZUJKAS_clean_linker_0, # of connection points: 2
#     Edge 30, Type (0, 0), BuildingBlock: ZUJKAS_clean_linker_0, # of connection points: 2
#     Edge 31, Type (0, 0), BuildingBlock: ZUJKAS_clean_linker_0, # of connection points: 2
#     Edge 32, Type (0, 0), BuildingBlock: ZUJKAS_clean_linker_0, # of connection points: 2
#     Edge 33, Type (0, 0), BuildingBlock: ZUJKAS_clean_linker_0, # of connection points: 2
#     Edge 34, Type (0, 0), BuildingBlock: ZUJKAS_clean_linker_0, # of connection points: 2
#     Edge 35, Type (0, 0), BuildingBlock: ZUJKAS_clean_linker_0, # of connection points: 2
#     Edge 36, Type (0, 0), BuildingBlock: ZUJKAS_clean_linker_0, # of connection points: 2
#     Edge 37, Type (0, 0), BuildingBlock: ZUJKAS_clean_linker_0, # of connection points: 2
#     Edge 38, Type (0, 0), BuildingBlock: ZUJKAS_clean_linker_0, # of connection points: 2
#     Edge 39, Type (0, 0), BuildingBlock: ZUJKAS_clean_linker_0, # of connection points: 2
#     Edge 40, Type (0, 0), BuildingBlock: ZUJKAS_clean_linker_0, # of connection points: 2
#     Edge 41, Type (0, 0), BuildingBlock: ZUJKAS_clean_linker_0, # of connection points: 2
# Relax obj value: 0.120
# Max RMSD: 0.194
# Mean RMSD: 0.194
data_MOF--net-wkd--node1-XOMCOT_clean_sbu_0--edge1-ZUJKAS_clean_linker_0
_symmetry_space_group_name_H-M    P1
_symmetry_Int_Tables_number       1
_symmetry_cell_setting            triclinic
loop_
_symmetry_equiv_pos_as_xyz
'x, y, z'
_cell_length_a     32.665655
_cell_length_b     32.689043
_cell_length_c     138.36513
_cell_angle_alpha  89.976278
_cell_angle_beta   90.020882
_cell_angle_gamma 120.0486
loop_
_atom_site_label
_atom_site_type_symbol
_atom_site_fract_x
_atom_site_fract_y
_atom_site_fract_z
_atom_type_partial_charge
Co0 Co 0.02807 0.30063 0.04326 0.0
C1 C 0.01024 0.36416 0.03068 0.0
C2 C 0.9573 0.29103 0.0291 0.0
C3 C 0.94505 0.31748 0.02338 0.0
N4 N 0.99838 0.32009 0.0336 0.0
N5 N 0.97814 0.36343 0.02439 0.0
H6 H 0.04095 0.39598 0.03327 0.0
H7 H 0.93633 0.25333 0.03022 0.0
C8 C 0.01432 0.21012 0.03466 0.0
O9 O 0.05884 0.22439 0.03663 0.0
N10 N 0.05579 0.27956 0.05331 0.0
C11 C 0.09196 0.30641 0.05935 0.0
C12 C 0.09839 0.27758 0.06566 0.0
C13 C 0.03884 0.23479 0.05658 0.0
N14 N 0.06514 0.23244 0.06388 0.0
C15 C 0.12584 0.35827 0.03814 0.0
C16 C 0.11818 0.33044 0.01907 0.0
C17 C 0.16223 0.36605 0.0225 0.0
C18 C 0.1656 0.37943 0.03221 0.0
C19 C 0.07904 0.30995 0.02532 0.0
N20 N 0.08339 0.32298 0.03484 0.0
H21 H 0.12904 0.37241 0.04527 0.0
H22 H 0.0449 0.28474 0.02239 0.0
H23 H 0.11116 0.34449 0.05961 0.0
H24 H 0.00764 0.20436 0.05375 0.0
O25 O 0.04801 0.35867 0.05014 0.0
O26 O 0.97952 0.29329 0.0525 0.0
O27 O 0.99622 0.23545 0.0371 0.0
C28 C 0.00781 0.33772 0.05464 0.0
H29 H 0.91282 0.30408 0.01921 0.0
H30 H 0.12461 0.28917 0.07135 0.0
H31 H 0.1135 0.31983 0.01156 0.0
H32 H 0.19862 0.40694 0.03521 0.0
Co33 Co 0.73393 0.02865 0.21015 0.0
C34 C 0.63728 0.98619 0.20111 0.0
C35 C 0.69095 0.99445 0.19109 0.0
C36 C 0.64856 0.97543 0.18625 0.0
N37 N 0.68405 1.0009 0.20044 0.0
N38 N 0.6148 0.97024 0.19255 0.0
H39 H 0.61974 0.98705 0.20766 0.0
H40 H 0.72483 0.00415 0.18791 0.0
C41 C 0.80346 0.99483 0.20411 0.0
O42 O 0.83626 0.02322 0.21016 0.0
N43 N 0.78327 0.05676 0.21993 0.0
C44 C 0.80809 0.10302 0.22214 0.0
C45 C 0.84035 0.1097 0.22922 0.0
C46 C 0.79877 0.03556 0.22617 0.0
N47 N 0.83554 0.06741 0.23163 0.0
C48 C 0.74402 0.10686 0.19935 0.0
C49 C 0.83725 0.14427 0.19377 0.0
C50 C 0.81353 0.16874 0.19139 0.0
C51 C 0.76602 0.14894 0.19412 0.0
C52 C 0.81379 0.10202 0.19904 0.0
N53 N 0.76784 0.08405 0.20186 0.0
H54 H 0.70764 0.09276 0.20154 0.0
H55 H 0.83349 0.08532 0.20113 0.0
H56 H 0.8036 0.1303 0.21874 0.0
H57 H 0.78552 0.9979 0.22617 0.0
O58 O 0.6988 0.05063 0.21752 0.0
O59 O 0.6927 0.98064 0.21949 0.0
O60 O 0.76393 0.99416 0.20343 0.0
C61 C 0.67946 0.01067 0.22212 0.0
H62 H 0.6433 0.96734 0.17861 0.0
H63 H 0.86598 0.14363 0.23217 0.0
H64 H 0.87412 0.15848 0.19191 0.0
H65 H 0.74591 0.166 0.19229 0.0
Co66 Co 0.7108 0.7331 0.37607 0.0
C67 C 0.64852 0.64962 0.36383 0.0
C68 C 0.72221 0.67639 0.36097 0.0
C69 C 0.69634 0.63694 0.3554 0.0
N70 N 0.69237 0.68471 0.36622 0.0
N71 N 0.65003 0.61991 0.35721 0.0
H72 H 0.61632 0.6453 0.367 0.0
H73 H 0.76032 0.6963 0.3614 0.0
C74 C 0.80078 0.81142 0.3677 0.0
O75 O 0.7845 0.84014 0.36953 0.0
N76 N 0.73057 0.78098 0.38628 0.0
C77 C 0.70272 0.78793 0.39249 0.0
C78 C 0.73057 0.82223 0.39907 0.0
C79 C 0.77507 0.80947 0.38966 0.0
N80 N 0.77624 0.83615 0.39725 0.0
C81 C 0.65389 0.77418 0.37099 0.0
C82 C 0.68404 0.79686 0.35209 0.0
C83 C 0.64937 0.80648 0.35555 0.0
C84 C 0.63433 0.79469 0.36513 0.0
C85 C 0.70246 0.7758 0.35821 0.0
N86 N 0.68874 0.76639 0.36768 0.0
H87 H 0.63926 0.7628 0.37808 0.0
H88 H 0.7273 0.76646 0.35526 0.0
H89 H 0.6646 0.76785 0.3927 0.0
H90 H 0.80606 0.8102 0.38674 0.0
O91 O 0.65235 0.69418 0.38278 0.0
O92 O 0.71793 0.6915 0.38522 0.0
O93 O 0.7767 0.76792 0.37021 0.0
C94 C 0.67346 0.6753 0.38735 0.0
H95 H 0.7107 0.6206 0.35074 0.0
H96 H 0.71787 0.83457 0.40498 0.0
H97 H 0.69566 0.80408 0.34464 0.0
H98 H 0.6071 0.80075 0.36808 0.0
Co99 Co 0.98713 0.71043 0.54358 0.0
C100 C 0.00985 0.64618 0.53172 0.0
C101 C 0.06484 0.71871 0.53188 0.0
C102 C 0.08049 0.69355 0.52671 0.0
N103 N 0.01979 0.68972 0.53474 0.0
N104 N 0.04599 0.64797 0.52659 0.0
H105 H 0.97832 0.6136 0.53355 0.0
H106 H 0.08589 0.75566 0.53377 0.0
C107 C 0.02017 0.78021 0.52766 0.0
O108 O 1.00045 0.74291 0.522 0.0
N109 N 0.95751 0.73263 0.55265 0.0
C110 C 0.91512 0.70664 0.55693 0.0
C111 C 0.90722 0.7356 0.56294 0.0
C112 C 0.9749 0.77695 0.55609 0.0
N113 N 0.9448 0.77984 0.56241 0.0
C114 C 0.90547 0.64046 0.5333 0.0
C115 C 0.8729 0.69956 0.52717 0.0
C116 C 0.84759 0.6517 0.52456 0.0
C117 C 0.86417 0.62201 0.52782 0.0
C118 C 0.91429 0.71662 0.53266 0.0
N119 N 0.9314 0.68758 0.53529 0.0
H120 H 0.91521 0.61624 0.5363 0.0
H121 H 0.93234 0.75321 0.53489 0.0
H122 H 0.89151 0.66931 0.55571 0.0
H123 H 0.00911 0.80629 0.55411 0.0
O124 O 0.966 0.6541 0.55112 0.0
O125 O 0.03463 0.71968 0.55328 0.0
O126 O 0.01881 0.77459 0.53686 0.0
C127 C 1.00569 0.67587 0.55578 0.0
H128 H 0.11557 0.70733 0.5237 0.0
H129 H 0.87578 0.72496 0.56723 0.0
H130 H 0.86089 0.72365 0.52501 0.0
H131 H 0.84448 0.58434 0.52643 0.0
Co132 Co 0.28044 0.9839 0.71059 0.0
C133 C 0.36712 0.00768 0.6984 0.0
C134 C 0.35379 0.06494 0.70043 0.0
C135 C 0.39473 0.08133 0.69524 0.0
N136 N 0.33541 0.01842 0.70223 0.0
N137 N 0.40318 0.04541 0.69394 0.0
H138 H 0.36525 0.97399 0.69905 0.0
H139 H 0.33899 0.08603 0.70299 0.0
C140 C 0.24803 0.02051 0.69457 0.0
O141 O 0.26771 1.00266 0.68899 0.0
N142 N 0.22684 0.95244 0.7192 0.0
C143 C 0.20839 0.90847 0.72281 0.0
C144 C 0.16967 0.89891 0.72838 0.0
C145 C 0.19952 0.9693 0.72268 0.0
N146 N 0.16401 0.93713 0.7283 0.0
C147 C 0.27014 0.90246 0.70053 0.0
C148 C 0.18031 0.87132 0.69337 0.0
C149 C 0.20192 0.84425 0.6916 0.0
C150 C 0.24756 0.86057 0.69524 0.0
C151 C 0.20434 0.91326 0.6987 0.0
N152 N 0.24954 0.92943 0.70191 0.0
H153 H 0.30322 0.91166 0.70394 0.0
H154 H 0.18577 0.93179 0.70052 0.0
H155 H 0.22193 0.88487 0.7214 0.0
H156 H 0.20501 1.00401 0.72099 0.0
O157 O 0.31481 0.96225 0.71826 0.0
O158 O 0.31644 0.02988 0.72071 0.0
O159 O 0.24908 0.01638 0.70379 0.0
C160 C 0.3317 1.0012 0.72314 0.0
H161 H 0.41761 0.11752 0.69296 0.0
H162 H 0.14764 0.86639 0.73227 0.0
H163 H 0.14444 0.85929 0.69101 0.0
H164 H 0.26556 0.84068 0.69419 0.0
Co165 Co 0.30128 0.27368 0.8766 0.0
C166 C 0.35903 0.36877 0.86711 0.0
C167 C 0.31274 0.31461 0.85726 0.0
C168 C 0.33862 0.35588 0.85216 0.0
N169 N 0.32532 0.32247 0.86665 0.0
N170 N 0.36778 0.38994 0.85835 0.0
H171 H 0.37811 0.38651 0.87359 0.0
H172 H 0.2873 0.28074 0.85424 0.0
C173 C 0.19794 0.20555 0.87034 0.0
O174 O 0.19327 0.1724 0.87632 0.0
N175 N 0.27781 0.22523 0.88659 0.0
C176 C 0.29631 0.19783 0.88893 0.0
C177 C 0.26829 0.16583 0.89585 0.0
C178 C 0.24034 0.21134 0.89258 0.0
N179 N 0.23247 0.17362 0.89804 0.0
C180 C 0.36897 0.25995 0.86651 0.0
C181 C 0.31098 0.16775 0.86058 0.0
C182 C 0.35952 0.18974 0.85858 0.0
C183 C 0.38844 0.23673 0.8615 0.0
C184 C 0.29288 0.19231 0.86566 0.0
N185 N 0.32186 0.23777 0.86867 0.0
H186 H 0.39209 0.29602 0.86877 0.0
H187 H 0.25607 0.17376 0.8674 0.0
H188 H 0.32712 0.19974 0.88558 0.0
H189 H 0.21739 0.22635 0.89241 0.0
O190 O 0.35837 0.30824 0.88404 0.0
O191 O 0.2958 0.31688 0.88561 0.0
O192 O 0.23702 0.24497 0.86979 0.0
C193 C 0.33881 0.32939 0.88833 0.0
H194 H 0.33616 0.36037 0.84448 0.0
H195 H 0.27239 0.13707 0.89859 0.0
H196 H 0.28737 0.13131 0.85855 0.0
H197 H 0.426 0.2555 0.85997 0.0
Co198 Co 0.71203 0.98231 0.79735 0.0
C199 C 0.64836 0.99833 0.81022 0.0
C200 C 0.72141 0.05099 0.8121 0.0
C201 C 0.69453 0.06217 0.81796 0.0
N202 N 0.69262 0.01078 0.8073 0.0
N203 N 0.64863 0.02924 0.81676 0.0
H204 H 0.61669 0.96795 0.80748 0.0
H205 H 0.75923 0.07202 0.81115 0.0
C206 C 0.80337 0.99761 0.80589 0.0
O207 O 0.78868 0.95267 0.80434 0.0
N208 N 0.7327 0.95558 0.78701 0.0
C209 C 0.70512 0.92188 0.78056 0.0
C210 C 0.73324 0.91507 0.77413 0.0
C211 C 0.77746 0.97076 0.7839 0.0
N212 N 0.77884 0.94562 0.77626 0.0
C213 C 0.65904 0.88362 0.80211 0.0
C214 C 0.68637 0.89149 0.82123 0.0
C215 C 0.65451 0.84654 0.81754 0.0
C216 C 0.6407 0.84319 0.80785 0.0
C217 C 0.70411 0.93124 0.81518 0.0
N218 N 0.69171 0.92684 0.80562 0.0
H219 H 0.64509 0.88007 0.79495 0.0
H220 H 0.72748 0.96567 0.81823 0.0
H221 H 0.66704 0.90449 0.78019 0.0
H222 H 0.8086 1.00007 0.78703 0.0
O223 O 0.65292 0.96155 0.79081 0.0
O224 O 0.71738 0.03075 0.78833 0.0
O225 O 0.77805 0.01528 0.80315 0.0
C226 C 0.67279 1.00198 0.78638 0.0
H227 H 0.70763 0.09348 0.82241 0.0
H228 H 0.72092 0.89046 0.76814 0.0
H229 H 0.69748 0.89599 0.82871 0.0
H230 H 0.61448 0.80971 0.80478 0.0
Co231 Co 0.73621 0.71194 0.96325 0.0
C232 C 0.63917 0.65778 0.97215 0.0
C233 C 0.69241 0.70381 0.98219 0.0
C234 C 0.64984 0.6806 0.98696 0.0
N235 N 0.68589 0.69004 0.97286 0.0
N236 N 0.61638 0.65165 0.98066 0.0
H237 H 0.62186 0.63894 0.96563 0.0
H238 H 0.72616 0.72808 0.9854 0.0
C239 C 0.80588 0.81536 0.96938 0.0
O240 O 0.83925 0.81948 0.96353 0.0
N241 N 0.78598 0.73299 0.95356 0.0
C242 C 0.81127 0.71181 0.95155 0.0
C243 C 0.8452 0.73838 0.94481 0.0
C244 C 0.8028 0.77044 0.94747 0.0
N245 N 0.84085 0.77609 0.94241 0.0
C246 C 0.74555 0.64397 0.97426 0.0
C247 C 0.8387 0.69951 0.97992 0.0
C248 C 0.81471 0.65133 0.98232 0.0
C249 C 0.76722 0.62377 0.97956 0.0
C250 C 0.81556 0.71841 0.97459 0.0
N251 N 0.76966 0.69056 0.97171 0.0
H252 H 0.70921 0.62177 0.97204 0.0
H253 H 0.83553 0.75474 0.97247 0.0
H254 H 0.80638 0.67991 0.95497 0.0
H255 H 0.7902 0.79542 0.94744 0.0
O256 O 0.70129 0.65449 0.95597 0.0
O257 O 0.6953 0.71824 0.95372 0.0
O258 O 0.76602 0.77671 0.9699 0.0
C259 C 0.68188 0.67471 0.95126 0.0
H260 H 0.64422 0.68375 0.99457 0.0
H261 H 0.87205 0.73112 0.94215 0.0
H262 H 0.87556 0.72205 0.98181 0.0
H263 H 0.74691 0.58662 0.98141 0.0
Co264 Co 0.02614 0.73204 0.13011 0.0
C265 C 0.00863 0.65088 0.14274 0.0
C266 C 0.95515 0.67039 0.14417 0.0
C267 C 0.94304 0.63179 0.14992 0.0
N268 N 0.99648 0.68278 0.13975 0.0
N269 N 0.97647 0.61936 0.14901 0.0
H270 H 0.0396 0.6501 0.14023 0.0
H271 H 0.93395 0.68679 0.14298 0.0
C272 C 0.01265 0.80859 0.13888 0.0
O273 O 0.05728 0.8387 0.13695 0.0
N274 N 0.05379 0.78091 0.12007 0.0
C275 C 0.0892 0.78949 0.11388 0.0
C276 C 0.09571 0.82489 0.10759 0.0
C277 C 0.0373 0.8093 0.11692 0.0
N278 N 0.06324 0.83761 0.10954 0.0
C279 C 0.1241 0.7731 0.13516 0.0
C280 C 0.11607 0.79114 0.15435 0.0
C281 C 0.16022 0.8002 0.15088 0.0
C282 C 0.16382 0.79136 0.14111 0.0
C283 C 0.07697 0.77283 0.1481 0.0
N284 N 0.08146 0.76505 0.13853 0.0
H285 H 0.12751 0.76311 0.12796 0.0
H286 H 0.04275 0.7634 0.15106 0.0
H287 H 0.10778 0.77003 0.1135 0.0
H288 H 0.00663 0.80913 0.11987 0.0
O289 O 0.04622 0.69408 0.12324 0.0
O290 O 0.97765 0.69075 0.12086 0.0
O291 O 0.99428 0.76528 0.13631 0.0
C292 C 1.00604 0.67472 0.11873 0.0
H293 H 0.9107 0.61273 0.15405 0.0
H294 H 0.12145 0.83906 0.10181 0.0
H295 H 0.11128 0.79624 0.16191 0.0
H296 H 0.19698 0.79746 0.13807 0.0
Co297 Co 0.2983 0.02634 0.29687 0.0
C298 C 0.3634 1.00065 0.30708 0.0
C299 C 0.29723 0.97442 0.31446 0.0
C300 C 0.3233 0.95823 0.31916 0.0
N301 N 0.32211 1.00116 0.30684 0.0
N302 N 0.3647 0.97421 0.31448 0.0
H303 H 0.39102 0.01722 0.30172 0.0
H304 H 0.26189 0.96585 0.31645 0.0
C305 C 0.2084 0.01219 0.30571 0.0
O306 O 0.22214 0.05603 0.30323 0.0
N307 N 0.27307 0.04929 0.28667 0.0
C308 C 0.29702 0.08493 0.28033 0.0
C309 C 0.26548 0.08743 0.27409 0.0
C310 C 0.22743 0.02897 0.28371 0.0
N311 N 0.22155 0.05246 0.27629 0.0
C312 C 0.35344 0.12593 0.30084 0.0
C313 C 0.32432 0.12324 0.31968 0.0
C314 C 0.35664 0.16708 0.31563 0.0
C315 C 0.37149 0.16786 0.3061 0.0
C316 C 0.30697 0.08203 0.31412 0.0
N317 N 0.31991 0.08378 0.30465 0.0
H318 H 0.36814 0.12749 0.29383 0.0
H319 H 0.28307 0.0488 0.31752 0.0
H320 H 0.33492 0.10681 0.27989 0.0
H321 H 0.19895 0.99691 0.28678 0.0
O322 O 0.35507 0.04712 0.28944 0.0
O323 O 0.29145 0.97631 0.28811 0.0
O324 O 0.23383 0.99391 0.30344 0.0
C325 C 0.33455 0.00602 0.2853 0.0
H326 H 0.31208 0.93559 0.32547 0.0
H327 H 0.27437 0.11329 0.26841 0.0
H328 H 0.31243 0.12071 0.32707 0.0
H329 H 0.39818 0.20049 0.30281 0.0
Co330 Co 0.28089 0.29875 0.46278 0.0
C331 C 0.37142 0.36436 0.47353 0.0
C332 C 0.35431 0.292 0.47316 0.0
C333 C 0.39784 0.31802 0.47736 0.0
N334 N 0.33674 0.32046 0.47095 0.0
N335 N 0.40874 0.36352 0.47757 0.0
H336 H 0.37166 0.39668 0.47187 0.0
H337 H 0.33758 0.25485 0.47139 0.0
C338 C 0.24902 0.23116 0.47908 0.0
O339 O 0.26891 0.26915 0.48455 0.0
N340 N 0.22656 0.27537 0.45434 0.0
C341 C 0.20768 0.30022 0.45059 0.0
C342 C 0.16956 0.27046 0.44492 0.0
C343 C 0.19998 0.23101 0.45089 0.0
N344 N 0.16468 0.22688 0.4451 0.0
C345 C 0.2722 0.37055 0.47297 0.0
C346 C 0.18189 0.31282 0.48001 0.0
C347 C 0.20431 0.36149 0.48188 0.0
C348 C 0.2502 0.39031 0.4783 0.0
C349 C 0.20534 0.29444 0.47464 0.0
N350 N 0.25067 0.32301 0.47144 0.0
H351 H 0.30561 0.39408 0.46966 0.0
H352 H 0.18634 0.25735 0.47279 0.0
H353 H 0.22056 0.33729 0.45194 0.0
H354 H 0.20683 0.2026 0.4525 0.0
O355 O 0.31416 0.35391 0.45481 0.0
O356 O 0.31618 0.28786 0.45266 0.0
O357 O 0.2501 0.23562 0.46985 0.0
C358 C 0.33064 0.33133 0.44997 0.0
H359 H 0.42035 0.30464 0.47984 0.0
H360 H 0.14679 0.28017 0.44109 0.0
H361 H 0.14589 0.28937 0.48235 0.0
H362 H 0.26885 0.42816 0.47945 0.0
Co363 Co 0.98692 0.27878 0.62988 0.0
C364 C 0.00956 0.36581 0.64173 0.0
C365 C 0.06565 0.34993 0.64105 0.0
C366 C 0.08131 0.39078 0.64621 0.0
N367 N 0.02007 0.33296 0.63849 0.0
N368 N 0.04613 0.40082 0.64666 0.0
H369 H 0.97713 0.36569 0.64025 0.0
H370 H 0.08685 0.33443 0.63899 0.0
C371 C 0.0209 0.24418 0.64602 0.0
O372 O 1.00189 0.26283 0.65158 0.0
N373 N 0.95657 0.22604 0.62103 0.0
C374 C 0.9139 0.20956 0.61688 0.0
C375 C 0.90479 0.17152 0.61114 0.0
C376 C 0.97303 0.19807 0.61774 0.0
N377 N 0.9419 0.16411 0.61168 0.0
C378 C 0.90456 0.26757 0.63983 0.0
C379 C 0.87336 0.17719 0.64663 0.0
C380 C 0.84675 0.19895 0.64876 0.0
C381 C 0.86275 0.24465 0.64518 0.0
C382 C 0.91491 0.20137 0.64121 0.0
N383 N 0.93135 0.24695 0.63824 0.0
H384 H 0.91391 0.30098 0.63657 0.0
H385 H 0.93343 0.18296 0.63925 0.0
H386 H 0.89097 0.22416 0.61798 0.0
H387 H 0.00679 0.20217 0.61984 0.0
O388 O 0.96617 0.31368 0.6221 0.0
O389 O 0.03437 0.31563 0.62009 0.0
O390 O 0.01855 0.24681 0.63679 0.0
C391 C 1.00577 0.33061 0.61742 0.0
H392 H 0.11672 0.41272 0.64902 0.0
H393 H 0.87336 0.15133 0.60681 0.0
H394 H 0.86213 0.14163 0.64907 0.0
H395 H 0.84223 0.26204 0.64617 0.0
H396 H 0.86584 0.90887 0.96628 0.0
H397 H 0.89401 0.97323 0.97799 0.0
H398 H 0.80331 0.87531 0.99977 0.0
H399 H 0.77325 0.81104 0.9879 0.0
H400 H 0.80658 0.95728 1.00193 0.0
H401 H 0.98997 0.99318 0.99796 0.0
H402 H 0.96704 0.99953 0.98665 0.0
H403 H 0.94046 0.94259 0.99248 0.0
C404 C 0.85145 0.90112 0.97354 0.0
C405 C 0.81766 0.85474 0.97619 0.0
C406 C 0.86793 0.93791 0.98026 0.0
C407 C 0.85215 0.92897 0.98988 0.0
C408 C 0.81652 0.8831 0.99243 0.0
H409 H 0.02468 0.13238 0.03435 0.0
H410 H 0.98131 0.0612 0.02447 0.0
C411 C 0.79923 0.84633 0.98563 0.0
C412 C 0.87388 0.96721 0.99729 0.0
H413 H 0.98044 0.05176 0.00628 0.0
C414 C 0.84458 0.97771 1.00294 0.0
C415 C 0.92343 0.99323 0.99882 0.0
C416 C 0.95696 0.98121 0.99373 0.0
C417 C 0.86349 0.01428 0.00984 0.0
C418 C 0.91326 0.04231 0.01091 0.0
C419 C 0.94236 0.0309 0.00543 0.0
C420 C 0.93631 0.08375 0.01759 0.0
C421 C 0.82973 0.02165 0.01604 0.0
C422 C 0.92547 0.12028 0.01713 0.0
C423 C 0.94956 0.16054 0.02294 0.0
C424 C 0.98596 0.16579 0.02915 0.0
C425 C 0.99683 0.12935 0.02962 0.0
C426 C 0.97205 0.08865 0.02397 0.0
H427 H 0.79519 0.98846 0.01678 0.0
H428 H 0.84437 0.03437 0.02337 0.0
H429 H 0.82291 0.04826 0.01256 0.0
H430 H 0.89936 0.11843 0.01206 0.0
H431 H 0.94098 0.18839 0.02228 0.0
H432 H 0.02597 0.89776 0.1401 0.0
H433 H 0.98385 0.92539 0.15039 0.0
H434 H 0.89578 0.7837 0.16118 0.0
H435 H 0.93638 0.75559 0.15056 0.0
H436 H 0.84447 0.82441 0.15904 0.0
H437 H 0.00792 0.94921 0.17853 0.0
H438 H 0.01227 0.96192 0.16586 0.0
H439 H 0.00634 0.9069 0.16998 0.0
C440 C 0.9974 0.87246 0.14462 0.0
C441 C 0.98473 0.82454 0.14456 0.0
C442 C 0.97355 0.88835 0.15056 0.0
C443 C 0.93746 0.85696 0.15681 0.0
C444 C 0.92366 0.80876 0.1565 0.0
H445 H 0.85947 0.95724 0.20769 0.0
H446 H 0.88685 0.91917 0.19628 0.0
C447 C 0.94689 0.79267 0.1504 0.0
C448 C 0.91494 0.87446 0.16381 0.0
H449 H 0.94006 0.95584 0.18165 0.0
C450 C 0.86536 0.853 0.16402 0.0
C451 C 0.94198 0.91117 0.17047 0.0
C452 C 0.995 0.93327 0.17129 0.0
C453 C 0.84223 0.86749 0.17061 0.0
C454 C 0.86944 0.90565 0.17696 0.0
C455 C 0.91898 0.92685 0.17676 0.0
C456 C 0.8479 0.92385 0.18406 0.0
C457 C 0.78888 0.84075 0.17085 0.0
C458 C 0.81589 0.93841 0.18113 0.0
C459 C 0.79917 0.95916 0.18775 0.0
C460 C 0.81521 0.96698 0.19737 0.0
C461 C 0.84654 0.95175 0.20033 0.0
C462 C 0.86235 0.9301 0.19378 0.0
H463 H 0.77425 0.80433 0.16797 0.0
H464 H 0.77533 0.83844 0.1783 0.0
H465 H 0.77546 0.85927 0.16623 0.0
H466 H 0.80512 0.93538 0.17364 0.0
H467 H 0.77566 0.97121 0.18522 0.0
H468 H 0.8453 0.76255 0.36221 0.0
H469 H 0.91681 0.79143 0.35232 0.0
H470 H 0.92812 0.92842 0.35059 0.0
H471 H 0.85735 0.90021 0.36051 0.0
H472 H 0.9325 0.82692 0.33364 0.0
H473 H 0.06085 0.96227 0.35873 0.0
H474 H 1.00276 0.91697 0.36255 0.0
H475 H 0.01053 0.96917 0.35651 0.0
C476 C 0.86324 0.79894 0.3598 0.0
C477 C 0.84556 0.82906 0.36219 0.0
C478 C 0.90409 0.81537 0.35414 0.0
C479 C 0.92828 0.8623 0.35083 0.0
C480 C 0.91075 0.89239 0.35323 0.0
H481 H 0.14994 0.04308 0.31234 0.0
H482 H 0.08241 1.00257 0.32319 0.0
C483 C 0.87004 0.87607 0.35888 0.0
C484 C 0.97067 0.87961 0.34452 0.0
H485 H 0.08537 0.96842 0.34221 0.0
C486 C 0.96615 0.85743 0.33557 0.0
C487 C 0.01465 0.91933 0.34705 0.0
C488 C 0.02273 0.94303 0.35678 0.0
C489 C 1.00373 0.87528 0.3289 0.0
C490 C 0.04704 0.91608 0.33129 0.0
C491 C 0.05202 0.93732 0.34036 0.0
C492 C 0.08688 0.93896 0.32433 0.0
C493 C 0.99629 0.85162 0.31919 0.0
C494 C 0.11181 0.91653 0.32131 0.0
C495 C 0.15072 0.93971 0.31507 0.0
C496 C 0.1654 0.98577 0.31178 0.0
C497 C 0.13975 0.00767 0.31472 0.0
C498 C 0.10111 0.9846 0.32095 0.0
H499 H 0.95846 0.82552 0.31783 0.0
H500 H 0.00939 0.87832 0.31331 0.0
H501 H 0.01666 0.83283 0.31889 0.0
H502 H 0.10178 0.88151 0.32392 0.0
H503 H 0.16972 0.92185 0.31298 0.0
H504 H 0.24452 0.21276 0.49835 0.0
H505 H 0.20597 0.13642 0.50644 0.0
H506 H 0.1604 0.06611 0.47891 0.0
H507 H 0.19966 0.14301 0.47064 0.0
H508 H 0.11125 0.06701 0.50628 0.0
H509 H 0.22426 0.99905 0.49169 0.0
H510 H 0.24048 0.06045 0.49083 0.0
H511 H 0.19728 0.01773 0.48271 0.0
C512 C 0.2265 0.18118 0.49396 0.0
C513 C 0.22542 0.18409 0.48382 0.0
C514 C 0.20437 0.13748 0.49863 0.0
C515 C 0.18075 0.09552 0.4933 0.0
C516 C 0.17918 0.09806 0.48316 0.0
H517 H 0.026 0.80057 0.50849 0.0
H518 H 0.06463 0.8776 0.50072 0.0
C519 C 0.20145 0.14201 0.47845 0.0
C520 C 0.15733 0.04944 0.49845 0.0
H521 H 0.15869 0.94631 0.50121 0.0
C522 C 0.12165 0.04061 0.50519 0.0
C523 C 0.17118 0.01521 0.49707 0.0
C524 C 0.21067 0.02355 0.49025 0.0
C525 C 0.09875 0.99808 0.51043 0.0
C526 C 0.11248 0.96377 0.50902 0.0
C527 C 0.1483 0.97271 0.50231 0.0
C528 C 0.08856 0.91729 0.51403 0.0
C529 C 0.05921 0.9897 0.51724 0.0
C530 C 0.0892 0.9138 0.52416 0.0
C531 C 0.06681 0.86939 0.52869 0.0
C532 C 0.04372 0.82781 0.52315 0.0
C533 C 0.0434 0.83171 0.51302 0.0
C534 C 0.06558 0.87583 0.50853 0.0
H535 H 0.04582 0.01442 0.51585 0.0
H536 H 0.02928 0.9529 0.5166 0.0
H537 H 0.07245 0.99517 0.52478 0.0
H538 H 0.10744 0.94535 0.52855 0.0
H539 H 0.06785 0.86762 0.5365 0.0
H540 H 0.24194 0.03398 0.67535 0.0
H541 H 0.20318 0.07196 0.66745 0.0
H542 H 0.16048 0.09803 0.69518 0.0
H543 H 0.19993 0.06009 0.70326 0.0
H544 H 0.10819 0.04695 0.6681 0.0
H545 H 0.22462 0.22874 0.68209 0.0
H546 H 0.24042 0.18322 0.68281 0.0
H547 H 0.19832 0.18337 0.69114 0.0
C548 C 0.2245 0.04784 0.67983 0.0
C549 C 0.22425 0.0441 0.68997 0.0
C550 C 0.20225 0.06952 0.67527 0.0
C551 C 0.17935 0.08826 0.68071 0.0
C552 C 0.17865 0.08447 0.69084 0.0
H553 H 0.02822 0.23233 0.66527 0.0
H554 H 0.06607 0.19358 0.67322 0.0
C555 C 0.20102 0.06263 0.69545 0.0
C556 C 0.15583 0.11103 0.67565 0.0
H557 H 0.15914 0.21633 0.67262 0.0
C558 C 0.11931 0.084 0.66908 0.0
C559 C 0.17059 0.15941 0.67689 0.0
C560 C 0.21089 0.19063 0.68355 0.0
C561 C 0.09661 0.10383 0.66384 0.0
C562 C 0.11142 0.15224 0.66507 0.0
C563 C 0.14795 0.17926 0.67165 0.0
C564 C 0.08812 0.17517 0.65998 0.0
C565 C 0.05621 0.07251 0.65721 0.0
C566 C 0.08806 0.17802 0.64983 0.0
C567 C 0.06611 0.20021 0.6452 0.0
C568 C 0.04419 0.22018 0.65065 0.0
C569 C 0.04469 0.21738 0.6608 0.0
C570 C 0.06642 0.19525 0.6654 0.0
H571 H 0.04199 0.03443 0.65882 0.0
H572 H 0.02699 0.08044 0.65782 0.0
H573 H 0.06891 0.07898 0.64963 0.0
H574 H 0.10535 0.1635 0.6455 0.0
H575 H 0.06653 0.20193 0.63738 0.0
H576 H 0.84311 0.09079 0.81125 0.0
H577 H 0.91421 0.13717 0.82103 0.0
H578 H 0.93594 0.01767 0.82256 0.0
H579 H 0.86522 0.97116 0.81278 0.0
H580 H 0.92989 0.11711 0.83972 0.0
H581 H 0.06699 0.12532 0.81497 0.0
H582 H 0.00817 0.10903 0.81093 0.0
H583 H 0.01896 0.06623 0.81681 0.0
C584 C 0.86322 0.07446 0.81358 0.0
C585 C 0.84829 0.02713 0.81122 0.0
C586 C 0.90391 0.10108 0.81917 0.0
C587 C 0.9308 0.08115 0.82243 0.0
C588 C 0.91637 0.03417 0.81997 0.0
H589 H 0.10773 0.13145 0.87122 0.0
H590 H 0.04451 0.10829 0.85943 0.0
C591 C 0.87567 0.0075 0.81441 0.0
C592 C 0.97218 0.10819 0.8289 0.0
H593 H 0.08924 0.14331 0.83164 0.0
C594 C 0.96488 0.1234 0.8379 0.0
C595 C 0.01803 0.11706 0.82649 0.0
C596 C 0.02873 0.104 0.81674 0.0
C597 C 1.00155 0.14506 0.84471 0.0
C598 C 0.04662 0.15124 0.84252 0.0
C599 C 0.05459 0.13822 0.83335 0.0
C600 C 0.08475 0.16767 0.8499 0.0
C601 C 0.99156 0.16061 0.85426 0.0
C602 C 0.12875 0.20872 0.84845 0.0
C603 C 0.16529 0.22224 0.85523 0.0
C604 C 0.15863 0.19446 0.8635 0.0
C605 C 0.11425 0.15373 0.86495 0.0
C606 C 0.07783 0.14051 0.85823 0.0
H607 H 0.961 0.16656 0.85372 0.0
H608 H 0.9828 0.13256 0.85972 0.0
H609 H 0.02287 0.1936 0.85685 0.0
H610 H 0.13493 0.23006 0.84204 0.0
H611 H 0.199 0.25371 0.85387 0.0
H612 H 0.13485 0.22166 0.07183 0.0
H613 H 0.12743 0.15129 0.07963 0.0
H614 H 0.97689 0.07781 0.07463 0.0
H615 H 0.98431 0.14819 0.06665 0.0
H616 H 0.08083 0.105 0.09548 0.0
H617 H 0.00967 0.98317 0.06412 0.0
H618 H 0.0336 0.04606 0.06296 0.0
H619 H 0.97462 0.00909 0.0675 0.0
C620 C 0.10009 0.19065 0.07242 0.0
C621 C 0.06018 0.19067 0.0686 0.0
C622 C 0.09591 0.15027 0.07686 0.0
C623 C 0.05171 0.10881 0.07761 0.0
C624 C 0.01159 0.10884 0.07392 0.0
H625 H 0.98326 0.84322 0.10735 0.0
H626 H 0.97697 0.90795 0.09981 0.0
C627 C 0.01583 0.1492 0.06939 0.0
C628 C 0.0481 0.06627 0.08245 0.0
H629 H 0.015 0.95001 0.07897 0.0
C630 C 0.06631 0.07114 0.09185 0.0
C631 C 0.02915 0.02188 0.07775 0.0
C632 C 0.01104 0.01467 0.0675 0.0
C633 C 0.06654 0.03326 0.09662 0.0
C634 C 0.04812 0.98924 0.09188 0.0
C635 C 0.02889 0.98382 0.08259 0.0
C636 C 0.05128 0.94945 0.09628 0.0
C637 C 0.08688 0.04053 0.10667 0.0
C638 C 0.09502 0.9512 0.09672 0.0
C639 C 0.09869 0.91434 0.10096 0.0
C640 C 0.05872 0.8749 0.10493 0.0
C641 C 0.0148 0.87317 0.10445 0.0
C642 C 0.01109 0.91 0.1001 0.0
H643 H 0.09239 0.0739 0.10997 0.0
H644 H 0.06318 0.01047 0.11142 0.0
H645 H 0.12151 0.04193 0.10636 0.0
H646 H 0.12644 0.9813 0.09379 0.0
H647 H 0.13313 0.91721 0.10131 0.0
H648 H 0.82414 0.98303 0.23814 0.0
H649 H 0.88228 0.97047 0.2468 0.0
H650 H 0.97935 0.12058 0.24697 0.0
H651 H 0.92265 0.13372 0.23833 0.0
H652 H 0.97425 0.9955 0.24083 0.0
H653 H 0.98015 0.08469 0.27521 0.0
H654 H 0.93291 0.06712 0.26654 0.0
H655 H 0.9883 0.12099 0.26484 0.0
C656 C 0.85765 0.01353 0.24004 0.0
C657 C 0.86796 0.05952 0.23748 0.0
C658 C 0.89091 0.0062 0.24503 0.0
C659 C 0.93499 0.04463 0.24767 0.0
C660 C 0.94521 0.0904 0.24523 0.0
H661 H 0.20813 0.0759 0.25818 0.0
H662 H 0.13531 0.06807 0.25151 0.0
C663 C 0.91228 0.09779 0.24024 0.0
C664 C 0.97159 0.03742 0.25255 0.0
H665 H 0.04572 0.07287 0.27206 0.0
C666 C 0.98944 0.01186 0.24772 0.0
C667 C 0.99113 0.05825 0.2616 0.0
C668 C 0.97183 0.0839 0.2674 0.0
C669 C 0.02768 0.00845 0.25149 0.0
C670 C 0.0491 0.03178 0.26025 0.0
C671 C 0.02976 0.05543 0.26529 0.0
C672 C 0.09268 0.03379 0.26413 0.0
C673 C 0.04489 0.98005 0.24602 0.0
C674 C 0.0934 0.01779 0.27352 0.0
C675 C 0.13526 0.02264 0.2774 0.0
C676 C 0.17752 0.04406 0.27201 0.0
C677 C 0.17647 0.05953 0.26257 0.0
C678 C 0.13461 0.05456 0.25869 0.0
H679 H 0.01674 0.95317 0.2413 0.0
H680 H 0.07499 1.00411 0.24133 0.0
H681 H 0.05719 0.96188 0.25103 0.0
H682 H 0.06164 1.00203 0.2779 0.0
H683 H 0.13479 0.01097 0.28474 0.0
H684 H 0.1326 0.1349 0.44992 0.0
H685 H 0.07096 0.06451 0.44173 0.0
H686 H 0.0523 0.15295 0.42117 0.0
H687 H 0.11475 0.22321 0.42907 0.0
H688 H 0.97777 0.037 0.43912 0.0
H689 H 0.06371 0.06035 0.40349 0.0
H690 H 0.09569 0.0933 0.41405 0.0
H691 H 0.06083 0.1115 0.40715 0.0
C692 C 0.11601 0.13946 0.44356 0.0
C693 C 0.12895 0.185 0.44017 0.0
C694 C 0.08049 0.09909 0.43892 0.0
C695 C 0.05739 0.10329 0.43073 0.0
C696 C 0.0702 0.14864 0.42734 0.0
H697 H 0.78228 0.90955 0.40759 0.0
H698 H 0.85118 0.97111 0.416 0.0
C699 C 0.10563 0.18894 0.43197 0.0
C700 C 0.01842 0.06054 0.42598 0.0
H701 H 0.98047 0.00524 0.40413 0.0
C702 C 0.97859 0.02984 0.43149 0.0
C703 C 0.01964 0.05061 0.41605 0.0
C704 C 0.06247 0.0804 0.40986 0.0
C705 C 0.93934 0.99067 0.42727 0.0
C706 C 0.93948 0.9823 0.41723 0.0
C707 C 0.98004 0.01191 0.4118 0.0
C708 C 0.89736 0.94401 0.41219 0.0
C709 C 0.89812 0.95851 0.43364 0.0
C710 C 0.90044 0.90869 0.407 0.0
C711 C 0.86083 0.87315 0.40215 0.0
C712 C 0.81728 0.87231 0.40233 0.0
C713 C 0.81467 0.90817 0.40746 0.0
C714 C 0.85419 0.94358 0.41229 0.0
H715 H 0.90898 0.96101 0.44133 0.0
H716 H 0.87077 0.9691 0.4332 0.0
H717 H 0.88195 0.92112 0.43128 0.0
H718 H 0.93345 0.90842 0.40677 0.0
H719 H 0.86434 0.84616 0.39835 0.0
H720 H 0.02325 0.1635 0.6075 0.0
H721 H 0.03043 0.10185 0.59891 0.0
H722 H 0.8788 0.0197 0.59617 0.0
H723 H 0.87115 0.0804 0.60483 0.0
H724 H 0.99181 0.00465 0.60337 0.0
H725 H 0.92521 0.02857 0.56819 0.0
H726 H 0.94428 0.07189 0.57775 0.0
H727 H 0.88656 0.01999 0.57817 0.0
C728 C 0.99137 0.13224 0.60514 0.0
C729 C 0.9466 0.12743 0.6068 0.0
C730 C 0.99558 0.09708 0.60018 0.0
C731 C 0.95521 0.05654 0.59672 0.0
C732 C 0.91054 0.05118 0.59855 0.0
H733 H 0.90642 0.78226 0.57964 0.0
H734 H 0.91329 0.85155 0.58785 0.0
C735 C 0.90626 0.08613 0.60351 0.0
C736 C 0.95939 0.01935 0.59134 0.0
H737 H 0.93069 0.95888 0.56995 0.0
C738 C 0.97882 0.9949 0.59604 0.0
C739 C 0.94304 0.00701 0.58171 0.0
C740 C 0.924 0.0335 0.57611 0.0
C741 C 0.98071 0.95734 0.5915 0.0
C742 C 0.96226 0.94353 0.58205 0.0
C743 C 0.94445 0.96914 0.57722 0.0
C744 C 0.9596 0.90167 0.57716 0.0
C745 C 1.00249 0.93276 0.59687 0.0
C746 C 0.98268 0.90652 0.56831 0.0
C747 C 0.97857 0.86676 0.56354 0.0
C748 C 0.95076 0.82122 0.56747 0.0
C749 C 0.92777 0.81662 0.57635 0.0
C750 C 0.9321 0.85634 0.58112 0.0
H751 H 0.02644 0.95533 0.60273 0.0
H752 H 0.97398 0.89999 0.60022 0.0
H753 H 0.02275 0.92283 0.59189 0.0
H754 H 1.00378 0.9411 0.56507 0.0
H755 H 0.99628 0.8716 0.55667 0.0
H756 H 0.16825 0.01798 0.73467 0.0
H757 H 0.10634 0.02485 0.74329 0.0
H758 H 0.01415 0.87402 0.7413 0.0
H759 H 0.07565 0.8669 0.73278 0.0
H760 H 0.01625 1.00156 0.73819 0.0
H761 H 0.00945 0.89528 0.76992 0.0
H762 H 0.05648 0.91649 0.76112 0.0
H763 H 1.00071 0.8639 0.75878 0.0
C764 C 0.13474 0.98631 0.73604 0.0
C765 C 0.12725 0.9418 0.73313 0.0
C766 C 0.09941 0.99027 0.741 0.0
C767 C 0.05588 0.94983 0.74316 0.0
C768 C 0.04788 0.9056 0.74001 0.0
H769 H 0.78483 0.87591 0.76696 0.0
H770 H 0.85411 0.88113 0.75905 0.0
C771 C 0.08317 0.90158 0.73511 0.0
C772 C 0.0184 0.95361 0.74857 0.0
H773 H 0.94475 0.90946 0.76811 0.0
C774 C 1.00101 0.98189 0.74479 0.0
C775 C 0.99862 0.92819 0.75724 0.0
C776 C 0.0176 0.89966 0.76206 0.0
C777 C 0.96316 0.98381 0.74921 0.0
C778 C 0.94237 0.95703 0.75767 0.0
C779 C 0.96051 0.92974 0.76158 0.0
C780 C 0.90037 0.95504 0.76234 0.0
C781 C 0.94451 0.0131 0.74463 0.0
C782 C 0.90333 0.99485 0.7669 0.0
C783 C 0.86357 0.99199 0.77145 0.0
C784 C 0.82002 0.94927 0.7715 0.0
C785 C 0.81742 0.90956 0.76693 0.0
C786 C 0.85714 0.91238 0.76245 0.0
H787 H 0.95912 0.02532 0.73726 0.0
H788 H 0.90531 0.99254 0.74416 0.0
H789 H 0.95438 0.04466 0.74917 0.0
H790 H 0.93649 0.02801 0.76701 0.0
H791 H 0.86688 0.0233 0.77485 0.0
H792 H 0.93419 0.80588 0.94006 0.0
H793 H 0.99361 0.87729 0.93214 0.0
H794 H 0.88785 0.91477 0.92523 0.0
H795 H 0.82739 0.84253 0.93327 0.0
H796 H 1.00041 0.90566 0.91351 0.0
H797 H 0.99008 0.03565 0.93782 0.0
H798 H 0.96261 0.97365 0.94076 0.0
H799 H 0.93552 0.99376 0.93212 0.0
C800 C 0.923 0.82866 0.93677 0.0
C801 C 0.87553 0.81786 0.93727 0.0
C802 C 0.95737 0.86994 0.93228 0.0
C803 C 0.94556 0.90191 0.92817 0.0
C804 C 0.89816 0.89123 0.92852 0.0
H805 H 0.14282 0.15755 0.89536 0.0
H806 H 0.07023 0.09429 0.90269 0.0
C807 C 0.86353 0.84975 0.93308 0.0
C808 C 0.98335 0.94566 0.92343 0.0
H809 H 0.04538 0.0665 0.92504 0.0
C810 C 0.00991 0.94078 0.916 0.0
C811 C 0.99595 0.99167 0.92666 0.0
C812 C 0.9699 0.99928 0.93483 0.0
C813 C 0.04905 0.98027 0.91187 0.0
C814 C 0.06234 0.02604 0.91526 0.0
C815 C 0.03506 0.03131 0.92246 0.0
C816 C 0.10618 0.0682 0.91173 0.0
C817 C 0.0766 0.97284 0.90399 0.0
C818 C 0.1505 0.07546 0.91461 0.0
C819 C 0.19201 0.11176 0.91051 0.0
C820 C 0.19024 0.14159 0.90338 0.0
C821 C 0.14575 0.1357 0.90087 0.0
C822 C 0.10412 0.09934 0.90502 0.0
H823 H 0.05721 0.93642 0.90101 0.0
H824 H 0.08455 0.99845 0.89802 0.0
H825 H 0.11079 0.97901 0.90697 0.0
H826 H 0.15288 0.05205 0.91984 0.0
H827 H 0.22554 0.11563 0.91274 0.0
H828 H 0.55786 0.566 0.97254 0.0
H829 H 0.47498 0.51108 0.97691 0.0
H830 H 0.48061 0.61088 0.99797 0.0
H831 H 0.56293 0.66566 0.99365 0.0
H832 H 0.44185 0.4752 0.99692 0.0
H833 H 0.35873 0.5725 0.98134 0.0
H834 H 0.41515 0.58128 0.97727 0.0
H835 H 0.41135 0.60815 0.9883 0.0
C836 C 0.54118 0.57641 0.97801 0.0
C837 C 0.56699 0.62015 0.98277 0.0
C838 C 0.49396 0.54495 0.98052 0.0
C839 C 0.47159 0.55711 0.98771 0.0
C840 C 0.49705 0.60101 0.99234 0.0
H841 H 0.22659 0.46059 0.02199 0.0
H842 H 0.2986 0.50142 0.01241 0.0
C843 C 0.54421 0.63212 0.98992 0.0
C844 C 0.42237 0.5235 0.99078 0.0
H845 H 0.31339 0.51294 0.99299 0.0
C846 C 0.4134 0.48282 0.99592 0.0
C847 C 0.3855 0.5337 0.98947 0.0
C848 C 0.39286 0.57606 0.98372 0.0
C849 C 0.36923 0.45355 1.0003 0.0
C850 C 0.33278 0.46478 0.99931 0.0
C851 C 0.34126 0.50432 0.99377 0.0
C852 C 0.28741 0.439 0.00473 0.0
C853 C 0.36294 0.41254 0.00641 0.0
C854 C 0.25638 0.39026 0.00349 0.0
C855 C 0.21513 0.36649 0.00909 0.0
C856 C 0.20413 0.3911 0.01601 0.0
C857 C 0.23446 0.44021 0.01692 0.0
C858 C 0.27553 0.46377 0.01137 0.0
H859 H 0.39723 0.41463 0.00805 0.0
H860 H 0.34507 0.41112 0.01333 0.0
H861 H 0.34051 0.37905 1.00246 0.0
H862 H 0.26423 0.37053 0.99826 0.0
H863 H 0.19253 0.32872 0.00818 0.0
H864 H 0.93974 0.58062 0.1663 0.0
H865 H 0.9229 0.50334 0.17223 0.0
H866 H 0.98971 0.48525 0.14702 0.0
H867 H 0.00633 0.56291 0.14096 0.0
H868 H 0.8665 0.41782 0.15929 0.0
H869 H 0.03986 0.44374 0.17205 0.0
H870 H 0.0277 0.49195 0.17194 0.0
H871 H 0.0365 0.46969 0.16078 0.0
C872 C 0.95138 0.56049 0.16207 0.0
C873 C 0.97393 0.57762 0.15312 0.0
C874 C 0.94191 0.51646 0.16548 0.0
C875 C 0.95504 0.48867 0.16006 0.0
C876 C 0.9797 0.50646 0.15135 0.0
H877 H 0.87678 0.19677 0.17626 0.0
H878 H 0.91392 0.27305 0.16775 0.0
C879 C 0.98928 0.55081 0.14791 0.0
C880 C 0.93832 0.43943 0.16317 0.0
H881 H 0.97234 0.36927 0.1749 0.0
C882 C 0.8897 0.40699 0.1626 0.0
C883 C 0.96877 0.42541 0.16739 0.0
C884 C 0.0212 0.45931 0.16813 0.0
C885 C 0.87041 0.36132 0.16643 0.0
C886 C 0.9004 0.34804 0.17115 0.0
C887 C 0.94941 0.37968 0.17133 0.0
C888 C 0.88068 0.30288 0.17656 0.0
C889 C 0.81786 0.32788 0.16553 0.0
C890 C 0.85077 0.29494 0.18447 0.0
C891 C 0.82969 0.25173 0.18933 0.0
C892 C 0.83816 0.2154 0.18641 0.0
C893 C 0.86955 0.22401 0.17869 0.0
C894 C 0.8907 0.26747 0.17381 0.0
H895 H 0.80249 0.3379 0.15943 0.0
H896 H 0.8099 0.29096 0.16443 0.0
H897 H 0.80015 0.32914 0.17228 0.0
H898 H 0.8434 0.32218 0.18685 0.0
H899 H 0.80673 0.24682 0.1954 0.0
H900 H 0.45933 0.02557 0.31091 0.0
H901 H 0.51898 1.00325 0.31495 0.0
H902 H 0.40959 0.87167 0.32685 0.0
H903 H 0.35038 0.89295 0.32267 0.0
H904 H 0.54034 0.9822 0.33343 0.0
H905 H 0.48043 0.82858 0.30913 0.0
H906 H 0.46261 0.8723 0.30753 0.0
H907 H 0.43259 0.8251 0.31613 0.0
C908 C 0.44807 0.99166 0.31427 0.0
C909 C 0.40009 0.96121 0.31652 0.0
C910 C 0.48214 0.97903 0.3166 0.0
C911 C 0.46864 0.93546 0.32107 0.0
C912 C 0.42079 0.90505 0.32324 0.0
H913 H 0.55556 0.77732 0.35379 0.0
H914 H 0.51883 0.81306 0.3442 0.0
C915 C 0.38697 0.91763 0.32096 0.0
C916 C 0.5041 0.92205 0.32402 0.0
H917 H 0.52549 0.82997 0.32313 0.0
C918 C 0.53798 0.94953 0.33102 0.0
C919 C 0.50109 0.87949 0.32084 0.0
C920 C 0.46753 0.84993 0.31291 0.0
C921 C 0.56653 0.93382 0.3354 0.0
C922 C 0.56121 0.88973 0.33265 0.0
C923 C 0.52929 0.86362 0.32527 0.0
C924 C 0.58449 0.86774 0.33807 0.0
C925 C 0.60011 0.96297 0.34335 0.0
C926 C 0.63362 0.8862 0.33767 0.0
C927 C 0.65482 0.86571 0.34317 0.0
C928 C 0.6272 0.82671 0.34919 0.0
C929 C 0.57791 0.8078 0.34936 0.0
C930 C 0.55682 0.828 0.34384 0.0
H931 H 0.5964 0.9939 0.34533 0.0
H932 H 0.59388 0.9409 0.34989 0.0
H933 H 0.63704 0.97606 0.34096 0.0
H934 H 0.65553 0.9166 0.33318 0.0
H935 H 0.69287 0.88109 0.3429 0.0
H936 H 0.77503 0.67104 0.52625 0.0
H937 H 0.69855 0.63173 0.51785 0.0
H938 H 0.74281 0.54783 0.50171 0.0
H939 H 0.81928 0.58718 0.50993 0.0
H940 H 0.67443 0.61666 0.49633 0.0
H941 H 0.62075 0.45333 0.5176 0.0
H942 H 0.66814 0.51058 0.52133 0.0
H943 H 0.6779 0.47829 0.51198 0.0
C944 C 0.76882 0.64488 0.52078 0.0
C945 C 0.80307 0.63182 0.51884 0.0
C946 C 0.72508 0.62241 0.51601 0.0
C947 C 0.71496 0.58655 0.50926 0.0
C948 C 0.74981 0.57504 0.507 0.0
H949 H 0.49515 0.37261 0.47603 0.0
H950 H 0.56806 0.43244 0.48365 0.0
C951 C 0.79338 0.5974 0.51173 0.0
C952 C 0.66713 0.55867 0.50499 0.0
H953 H 0.57306 0.44642 0.50406 0.0
C954 C 0.65184 0.57959 0.49809 0.0
C955 C 0.63777 0.51048 0.50737 0.0
C956 C 0.65163 0.48678 0.51504 0.0
C957 C 0.60879 0.55268 0.49312 0.0
C958 C 0.58046 0.50398 0.49523 0.0
C959 C 0.59501 0.48373 0.50242 0.0
C960 C 0.53734 0.47209 0.48964 0.0
C961 C 0.59482 0.57582 0.48538 0.0
C962 C 0.49601 0.47514 0.49028 0.0
C963 C 0.45399 0.4407 0.4859 0.0
C964 C 0.45276 0.40258 0.48093 0.0
C965 C 0.49479 0.40104 0.47996 0.0
C966 C 0.53654 0.43534 0.48427 0.0
H967 H 0.62381 0.61208 0.48366 0.0
H968 H 0.58454 0.55428 0.47867 0.0
H969 H 0.5637 0.57805 0.48786 0.0
H970 H 0.49574 0.50292 0.49449 0.0
H971 H 0.42201 0.44252 0.4868 0.0
H972 H 0.0068 0.45235 0.64034 0.0
H973 H 0.02309 0.52948 0.64672 0.0
H974 H 0.11033 0.52051 0.66906 0.0
H975 H 0.09418 0.44407 0.66279 0.0
H976 H 0.01422 0.56075 0.66674 0.0
H977 H 0.19854 0.64319 0.65325 0.0
H978 H 0.15186 0.587 0.64886 0.0
H979 H 0.18036 0.59039 0.66019 0.0
C980 C 0.02867 0.46654 0.64672 0.0
C981 C 0.04981 0.4426 0.651 0.0
C982 C 0.03808 0.51057 0.65033 0.0
C983 C 0.06863 0.53098 0.65824 0.0
C984 C 0.08738 0.50575 0.66283 0.0
H985 H 0.20135 0.76238 0.69597 0.0
H986 H 0.16444 0.68833 0.68694 0.0
C987 C 0.0782 0.46216 0.65924 0.0
C988 C 0.08356 0.57961 0.66153 0.0
H989 H 0.18291 0.68663 0.66516 0.0
C990 C 0.05085 0.58867 0.66623 0.0
C991 C 0.13135 0.61597 0.6608 0.0
C992 C 0.16753 0.60892 0.65542 0.0
C993 C 0.06547 0.63246 0.67075 0.0
C994 C 0.11378 0.66769 0.67049 0.0
C995 C 0.14592 0.65936 0.66538 0.0
C996 C 0.13277 0.71183 0.67618 0.0
C997 C 0.02994 0.64018 0.67618 0.0
C998 C 0.12695 0.74953 0.67312 0.0
C999 C 0.14859 0.79238 0.67821 0.0
C1000 C 0.17654 0.79816 0.68642 0.0
C1001 C 0.18107 0.75966 0.68956 0.0
C1002 C 0.15964 0.71711 0.68447 0.0
H1003 H 0.99399 0.60848 0.67606 0.0
H1004 H 0.04138 0.6495 0.68382 0.0
H1005 H 0.02814 0.67031 0.67294 0.0
H1006 H 0.10665 0.74617 0.66668 0.0
H1007 H 0.1446 0.82137 0.67557 0.0
H1008 H 0.44106 0.19079 0.86339 0.0
H1009 H 0.47718 0.15014 0.85536 0.0
H1010 H 0.36135 0.08785 0.83513 0.0
H1011 H 0.32516 0.12926 0.84305 0.0
H1012 H 0.43673 0.04948 0.85212 0.0
H1013 H 0.4828 0.15396 0.818 0.0
H1014 H 0.46861 0.17396 0.82899 0.0
H1015 H 0.42254 0.1269 0.82212 0.0
C1016 C 0.42339 0.16879 0.85718 0.0
C1017 C 0.38046 0.16368 0.85379 0.0
C1018 C 0.44392 0.14529 0.85265 0.0
C1019 C 0.42219 0.11637 0.8446 0.0
C1020 C 0.37895 0.11045 0.84127 0.0
H1021 H 0.56288 1.00051 0.80853 0.0
H1022 H 0.49947 0.01219 0.81505 0.0
C1023 C 0.35818 0.13384 0.84584 0.0
C1024 C 0.44559 0.09306 0.83974 0.0
H1025 H 0.50871 0.09905 0.81958 0.0
C1026 C 0.45197 0.05984 0.84495 0.0
C1027 C 0.46508 0.10634 0.83036 0.0
C1028 C 0.45982 0.14242 0.82451 0.0
C1029 C 0.47868 0.04072 0.84118 0.0
C1030 C 0.50042 0.05599 0.83202 0.0
C1031 C 0.49206 0.08741 0.8266 0.0
C1032 C 0.53597 0.04397 0.82842 0.0
C1033 C 0.48393 0.00484 0.84709 0.0
C1034 C 0.57731 0.05768 0.83379 0.0
C1035 C 0.61329 0.05101 0.8301 0.0
C1036 C 0.60896 0.03071 0.82093 0.0
C1037 C 0.56697 0.01569 0.81566 0.0
C1038 C 0.5309 0.02261 0.81935 0.0
H1039 H 0.45336 0.98526 0.85203 0.0
H1040 H 0.48717 0.97904 0.8424 0.0
H1041 H 0.51628 0.02337 0.8516 0.0
H1042 H 0.58252 0.07511 0.84071 0.0
H1043 H 0.64506 0.06266 0.83435 0.0
H1044 H 0.62297 0.83616 0.83631 0.0
H1045 H 0.58259 0.76297 0.84578 0.0
H1046 H 0.5966 0.68578 0.82197 0.0
H1047 H 0.63824 0.75863 0.81265 0.0
H1048 H 0.49915 0.68433 0.8414 0.0
H1049 H 0.63802 0.63557 0.84423 0.0
H1050 H 0.6508 0.69384 0.84059 0.0
H1051 H 0.62888 0.64635 0.83193 0.0
C1052 C 0.61848 0.80379 0.83319 0.0
C1053 C 0.63384 0.80331 0.82371 0.0
C1054 C 0.5951 0.76191 0.83859 0.0
C1055 C 0.58707 0.71888 0.83465 0.0
C1056 C 0.60322 0.71858 0.82527 0.0
H1057 H 0.41373 0.4225 0.84133 0.0
H1058 H 0.46869 0.50451 0.83693 0.0
C1059 C 0.62654 0.76027 0.81989 0.0
C1060 C 0.55875 0.67359 0.83997 0.0
H1061 H 0.55769 0.57221 0.84651 0.0
C1062 C 0.51225 0.66019 0.84269 0.0
C1063 C 0.57584 0.64207 0.8417 0.0
C1064 C 0.6263 0.65541 0.83955 0.0
C1065 C 0.48163 0.61519 0.84657 0.0
C1066 C 0.49807 0.5829 0.84784 0.0
C1067 C 0.54509 0.59695 0.84549 0.0
C1068 C 0.46593 0.5332 0.85083 0.0
C1069 C 0.43121 0.60156 0.84886 0.0
C1070 C 0.44661 0.52199 0.86017 0.0
C1071 C 0.41498 0.47491 0.86273 0.0
C1072 C 0.40196 0.4383 0.85595 0.0
C1073 C 0.42224 0.44979 0.84667 0.0
C1074 C 0.45398 0.49666 0.84416 0.0
H1075 H 0.42223 0.62823 0.84623 0.0
H1076 H 0.40633 0.56685 0.84556 0.0
H1077 H 0.42583 0.59806 0.8568 0.0
H1078 H 0.45576 0.54966 0.86547 0.0
H1079 H 0.39992 0.46731 0.86992 0.0
H1080 H 0.94142 0.36575 0.00711 0.0
H1081 H 0.92421 0.42608 1.00128 0.0
H1082 H 0.99035 0.51028 0.02662 0.0
H1083 H 0.00731 0.44935 0.03258 0.0
H1084 H 0.86733 0.45442 0.01426 0.0
H1085 H 0.04066 0.6028 1.00172 0.0
H1086 H 0.02873 0.5425 1.00176 0.0
H1087 H 0.03723 0.5732 0.01296 0.0
C1088 C 0.95282 0.39734 0.01139 0.0
C1089 C 0.9753 0.40259 0.02034 0.0
C1090 C 0.94314 0.43184 0.00804 0.0
C1091 C 0.95599 0.47254 0.01352 0.0
C1092 C 0.98056 0.47925 0.02225 0.0
H1093 H 0.87775 0.68631 0.99749 0.0
H1094 H 0.91468 0.64698 0.006 0.0
C1095 C 0.99034 0.44454 0.02562 0.0
C1096 C 0.93915 0.505 0.01045 0.0
H1097 H 0.97304 0.60953 0.99889 0.0
C1098 C 0.8905 0.4886 0.01101 0.0
C1099 C 0.96957 0.54968 0.00631 0.0
C1100 C 0.02204 0.56844 0.00559 0.0
C1101 C 0.87113 0.51498 0.00721 0.0
C1102 C 0.9011 0.55847 1.00255 0.0
C1103 C 0.95014 0.57603 1.00241 0.0
C1104 C 0.88135 0.58395 0.99717 0.0
C1105 C 0.81854 0.49564 0.00809 0.0
C1106 C 0.85145 0.56205 0.98925 0.0
C1107 C 0.83049 0.58428 0.9844 0.0
C1108 C 0.83907 0.62912 0.98732 0.0
C1109 C 0.87042 0.6518 0.99506 0.0
C1110 C 0.89145 0.62938 0.99994 0.0
H1111 H 0.80319 0.47015 0.01417 0.0
H1112 H 0.81042 0.52448 0.0092 0.0
H1113 H 0.80095 0.4767 1.00133 0.0
H1114 H 0.84405 0.52745 0.98685 0.0
H1115 H 0.80756 0.56631 0.97832 0.0
H1116 H 0.56246 0.90558 0.17896 0.0
H1117 H 0.48025 0.87823 0.1746 0.0
H1118 H 0.47211 0.96612 0.19685 0.0
H1119 H 0.55493 0.99418 0.20121 0.0
H1120 H 0.39564 0.83391 0.18752 0.0
H1121 H 0.43155 1.00371 0.17069 0.0
H1122 H 0.47772 0.98935 0.17244 0.0
H1123 H 0.45461 0.00529 0.1826 0.0
C1124 C 0.54334 0.9193 0.18291 0.0
C1125 C 0.56545 0.95239 0.19038 0.0
C1126 C 0.49625 0.90339 0.18045 0.0
C1127 C 0.47026 0.92048 0.18533 0.0
C1128 C 0.49173 0.95282 0.19293 0.0
H1129 H 0.19089 0.86706 0.16534 0.0
H1130 H 0.2623 0.89566 0.17534 0.0
C1131 C 0.53891 0.96854 0.19546 0.0
C1132 C 0.42096 0.90456 0.18228 0.0
H1133 H 0.35444 0.93917 0.16932 0.0
C1134 C 0.38641 0.85703 0.18364 0.0
C1135 C 0.40893 0.9349 0.17731 0.0
C1136 C 0.445 0.98617 0.17559 0.0
C1137 C 0.34048 0.83864 0.17992 0.0
C1138 C 0.32916 0.86829 0.17445 0.0
C1139 C 0.36312 0.9164 0.17348 0.0
C1140 C 0.28411 0.8492 0.16893 0.0
C1141 C 0.30467 0.78747 0.18182 0.0
C1142 C 0.27267 0.81375 0.16201 0.0
C1143 C 0.23199 0.79727 0.15636 0.0
C1144 C 0.20193 0.81627 0.15739 0.0
C1145 C 0.21307 0.85144 0.16442 0.0
C1146 C 0.25397 0.86797 0.17009 0.0
H1147 H 0.31265 0.77496 0.18865 0.0
H1148 H 0.26823 0.78177 0.18226 0.0
H1149 H 0.30598 0.76548 0.17585 0.0
H1150 H 0.29578 0.79939 0.16081 0.0
H1151 H 0.22426 0.76968 0.15113 0.0
H1152 H 0.56782 0.55911 0.36633 0.0
H1153 H 0.50837 0.47977 0.36077 0.0
H1154 H 0.5866 0.50187 0.33434 0.0
H1155 H 0.64553 0.58088 0.33978 0.0
H1156 H 0.45168 0.44623 0.34275 0.0
H1157 H 0.57933 0.3826 0.34727 0.0
H1158 H 0.58766 0.43621 0.35284 0.0
H1159 H 0.60146 0.43585 0.34027 0.0
C1160 C 0.57179 0.54738 0.35926 0.0
C1161 C 0.61172 0.57604 0.35354 0.0
C1162 C 0.53796 0.502 0.35612 0.0
C1163 C 0.54365 0.48469 0.34723 0.0
C1164 C 0.58206 0.51422 0.34131 0.0
H1165 H 0.37338 0.25386 0.3096 0.0
H1166 H 0.41348 0.3286 0.3184 0.0
C1167 C 0.61573 0.55933 0.34443 0.0
C1168 C 0.51103 0.43518 0.34423 0.0
H1169 H 0.50951 0.33308 0.33829 0.0
C1170 C 0.46404 0.42124 0.34187 0.0
C1171 C 0.52705 0.40242 0.34324 0.0
C1172 C 0.5765 0.41474 0.34612 0.0
C1173 C 0.43329 0.37596 0.33811 0.0
C1174 C 0.45024 0.34419 0.33659 0.0
C1175 C 0.49658 0.35751 0.33938 0.0
C1176 C 0.42172 0.29802 0.33162 0.0
C1177 C 0.38304 0.36266 0.33576 0.0
C1178 C 0.41335 0.25588 0.33607 0.0
C1179 C 0.39082 0.21305 0.331 0.0
C1180 C 0.37668 0.21162 0.32134 0.0
C1181 C 0.38419 0.25376 0.31699 0.0
C1182 C 0.40658 0.29648 0.32206 0.0
H1183 H 0.37156 0.38396 0.34002 0.0
H1184 H 0.38063 0.36957 0.32799 0.0
H1185 H 0.35828 0.32461 0.33719 0.0
H1186 H 0.42514 0.25631 0.34341 0.0
H1187 H 0.38611 0.18142 0.33454 0.0
H1188 H 0.09236 0.65186 0.51027 0.0
H1189 H 0.10863 0.59166 0.50402 0.0
H1190 H 0.02571 0.49733 0.52701 0.0
H1191 H 0.00931 0.55807 0.53335 0.0
H1192 H 0.15591 0.55468 0.51565 0.0
H1193 H 0.98122 0.41423 0.50181 0.0
H1194 H 0.99448 0.47449 0.50347 0.0
H1195 H 0.98387 0.43719 0.51377 0.0
C1196 C 0.07723 0.61816 0.51395 0.0
C1197 C 0.04994 0.60983 0.52234 0.0
C1198 C 0.0864 0.58375 0.51036 0.0
C1199 C 0.06839 0.54006 0.51505 0.0
C1200 C 0.03949 0.53065 0.52322 0.0
H1201 H 0.14665 0.32736 0.49787 0.0
H1202 H 0.1099 0.3656 0.50683 0.0
C1203 C 0.03011 0.56528 0.52683 0.0
C1204 C 0.08356 0.50663 0.51169 0.0
H1205 H 0.04661 0.40341 0.49934 0.0
C1206 C 0.1319 0.52131 0.5122 0.0
C1207 C 0.05211 0.46301 0.50725 0.0
C1208 C 0.99999 0.44606 0.50646 0.0
C1209 C 0.14994 0.49447 0.50806 0.0
C1210 C 0.11895 0.45208 0.50318 0.0
C1211 C 0.07023 0.43606 0.50307 0.0
C1212 C 0.13756 0.42666 0.49746 0.0
C1213 C 0.20232 0.51225 0.50872 0.0
C1214 C 0.16423 0.44787 0.48913 0.0
C1215 C 0.18496 0.42619 0.48399 0.0
C1216 C 0.1796 0.38277 0.4871 0.0
C1217 C 0.15141 0.36073 0.49528 0.0
C1218 C 0.13049 0.38252 0.50042 0.0
H1219 H 0.21922 0.53856 0.51461 0.0
H1220 H 0.20909 0.48259 0.50996 0.0
H1221 H 0.21941 0.52957 0.5018 0.0
H1222 H 0.16951 0.48164 0.48666 0.0
H1223 H 0.20533 0.44361 0.47759 0.0
H1224 H 0.44697 0.99478 0.69776 0.0
H1225 H 0.52032 0.00614 0.69035 0.0
H1226 H 0.52576 0.11601 0.67219 0.0
H1227 H 0.4522 0.10372 0.67925 0.0
H1228 H 0.54754 0.05702 0.6623 0.0
H1229 H 0.65076 0.11875 0.69647 0.0
H1230 H 0.59902 0.06094 0.69678 0.0
H1231 H 0.59274 0.11207 0.69521 0.0
C1232 C 0.46348 0.02081 0.69209 0.0
C1233 C 0.44407 0.04879 0.68918 0.0
C1234 C 0.50565 0.02764 0.68794 0.0
C1235 C 0.52901 0.06257 0.68084 0.0
C1236 C 0.5086 0.0891 0.67769 0.0
H1237 H 0.81217 0.23567 0.66213 0.0
H1238 H 0.73505 0.19617 0.67005 0.0
C1239 C 0.46669 0.08229 0.6818 0.0
C1240 C 0.57533 0.07307 0.67676 0.0
H1241 H 0.6923 0.12097 0.68244 0.0
C1242 C 0.57915 0.07042 0.6667 0.0
C1243 C 0.61656 0.091 0.68253 0.0
C1244 C 0.61495 0.0963 0.69334 0.0
C1245 C 0.6232 0.08684 0.66221 0.0
C1246 C 0.66454 0.10542 0.66796 0.0
C1247 C 0.66054 0.1065 0.67805 0.0
C1248 C 0.71252 0.12784 0.66359 0.0
C1249 C 0.62524 0.08651 0.65131 0.0
C1250 C 0.72601 0.10237 0.65748 0.0
C1251 C 0.76991 0.1251 0.6528 0.0
C1252 C 0.80143 0.1737 0.65423 0.0
C1253 C 0.78848 0.19851 0.66069 0.0
C1254 C 0.74453 0.17585 0.66531 0.0
H1255 H 0.59193 0.08099 0.64796 0.0
H1256 H 0.65502 0.12021 0.64855 0.0
H1257 H 0.63088 0.05729 0.64893 0.0
H1258 H 0.70227 0.06508 0.65619 0.0
H1259 H 0.77847 0.10485 0.64785 0.0
H1260 H 0.92635 0.62589 0.10726 0.0
H1261 H 0.90762 0.55859 0.09648 0.0
H1262 H 0.03921 0.56667 0.10432 0.0
H1263 H 0.05799 0.63294 0.11493 0.0
H1264 H 0.96156 0.55483 0.08049 0.0
H1265 H 0.94131 0.42654 0.10879 0.0
H1266 H 0.93857 0.47929 0.11139 0.0
H1267 H 0.99484 0.48221 0.11019 0.0
C1268 C 0.95114 0.61317 0.10667 0.0
C1269 C 0.99361 0.63482 0.11197 0.0
C1270 C 0.94039 0.57471 0.10054 0.0
C1271 C 0.97159 0.55693 0.09975 0.0
C1272 C 0.01405 0.57893 0.10497 0.0
H1273 H 0.05974 0.43138 0.05858 0.0
H1274 H 0.04043 0.4786 0.06917 0.0
C1275 C 0.0249 0.61724 0.11099 0.0
C1276 C 0.96182 0.51692 0.09319 0.0
H1277 H 0.96112 0.41195 0.09279 0.0
C1278 C 0.96035 0.52309 0.08319 0.0
C1279 C 0.95956 0.47508 0.09669 0.0
C1280 C 0.95815 0.46508 0.10736 0.0
C1281 C 0.96033 0.49031 0.0766 0.0
C1282 C 0.96236 0.45062 0.08009 0.0
C1283 C 0.96012 0.44259 0.09009 0.0
C1284 C 0.97253 0.42056 0.07357 0.0
C1285 C 0.95971 0.49929 0.06592 0.0
C1286 C 0.94136 0.37159 0.07271 0.0
C1287 C 0.95243 0.34405 0.0666 0.0
C1288 C 0.99517 0.36504 0.06139 0.0
C1289 C 0.02644 0.41389 0.06245 0.0
C1290 C 0.01529 0.44118 0.06845 0.0
H1291 H 0.94296 0.52102 0.06444 0.0
H1292 H 0.99661 0.51901 0.0632 0.0
H1293 H 0.94045 0.46564 0.06183 0.0
H1294 H 0.90837 0.35482 0.07668 0.0
H1295 H 0.92763 0.30655 0.06595 0.0
H1296 H 0.61673 0.92473 0.23049 0.0
H1297 H 0.54852 0.9075 0.24087 0.0
H1298 H 0.58783 0.05452 0.24001 0.0
H1299 H 0.65505 0.07181 0.22975 0.0
H1300 H 0.54258 0.94778 0.25934 0.0
H1301 H 0.45004 0.98473 0.2301 0.0
H1302 H 0.498 0.97356 0.22777 0.0
H1303 H 0.51017 0.03123 0.23158 0.0
C1304 C 0.611 0.95336 0.23261 0.0
C1305 C 0.64115 0.99957 0.22922 0.0
C1306 C 0.57197 0.94346 0.23851 0.0
C1307 C 0.56247 0.97957 0.24104 0.0
C1308 C 0.59375 0.02588 0.23798 0.0
H1309 H 0.41371 0.06804 0.27567 0.0
H1310 H 0.46205 0.05148 0.26473 0.0
C1311 C 0.63242 0.03573 0.23214 0.0
C1312 C 0.51993 0.96991 0.24677 0.0
H1313 H 0.42606 0.98887 0.24637 0.0
C1314 C 0.51636 0.95555 0.25646 0.0
C1315 C 0.4855 0.97981 0.24299 0.0
C1316 C 0.48574 0.99273 0.23251 0.0
C1317 C 0.48126 0.95415 0.26261 0.0
C1318 C 0.44897 0.96724 0.25897 0.0
C1319 C 0.45088 0.9789 0.24916 0.0
C1320 C 0.41759 0.97556 0.26546 0.0
C1321 C 0.48058 0.94158 0.27312 0.0
C1322 C 0.37587 0.93823 0.2694 0.0
C1323 C 0.34757 0.94764 0.27565 0.0
C1324 C 0.36095 0.99449 0.27809 0.0
C1325 C 0.40238 0.03153 0.27398 0.0
C1326 C 0.43015 0.02217 0.26772 0.0
H1327 H 0.50854 0.93289 0.27488 0.0
H1328 H 0.48559 0.97156 0.27772 0.0
H1329 H 0.44562 0.91072 0.27495 0.0
H1330 H 0.36543 0.90196 0.2677 0.0
H1331 H 0.31602 0.91839 0.27874 0.0
H1332 H 0.34815 0.41101 0.44058 0.0
H1333 H 0.41454 0.46066 0.43008 0.0
H1334 H 0.4639 0.36082 0.43204 0.0
H1335 H 0.39645 0.31013 0.4426 0.0
H1336 H 0.50976 0.50072 0.43597 0.0
H1337 H 0.47255 0.39185 0.40267 0.0
H1338 H 0.42699 0.38064 0.4114 0.0
H1339 H 0.47089 0.3647 0.4141 0.0
C1340 C 0.3726 0.39904 0.43867 0.0
C1341 C 0.36702 0.35659 0.44243 0.0
C1342 C 0.41068 0.42761 0.43267 0.0
C1343 C 0.44431 0.41462 0.43027 0.0
C1344 C 0.4381 0.37134 0.43371 0.0
H1345 H 0.69637 0.61129 0.39511 0.0
H1346 H 0.6473 0.54492 0.40609 0.0
C1347 C 0.39954 0.34237 0.43972 0.0
C1348 C 0.48692 0.44851 0.42467 0.0
H1349 H 0.53785 0.46917 0.40228 0.0
C1350 C 0.51638 0.49347 0.42867 0.0
C1351 C 0.49576 0.43906 0.41516 0.0
C1352 C 0.4649 0.3916 0.4105 0.0
C1353 C 0.55278 0.5298 0.42325 0.0
C1354 C 0.55991 0.52119 0.41357 0.0
C1355 C 0.53238 0.47556 0.40973 0.0
C1356 C 0.5906 0.56082 0.40701 0.0
C1357 C 0.58212 0.57793 0.42777 0.0
C1358 C 0.57497 0.59151 0.40393 0.0
C1359 C 0.60251 0.62888 0.39769 0.0
C1360 C 0.64663 0.63675 0.39441 0.0
C1361 C 0.66271 0.60631 0.39757 0.0
C1362 C 0.63466 0.56832 0.40379 0.0
H1363 H 0.57977 0.57628 0.43579 0.0
H1364 H 0.6198 0.59384 0.42561 0.0
H1365 H 0.56914 0.60157 0.42519 0.0
H1366 H 0.54107 0.58629 0.40631 0.0
H1367 H 0.589 0.65161 0.39542 0.0
H1368 H 0.94408 0.59407 0.56461 0.0
H1369 H 0.96141 0.54351 0.57465 0.0
H1370 H 0.11043 0.64531 0.57312 0.0
H1371 H 0.09309 0.69693 0.563 0.0
H1372 H 0.01872 0.5059 0.56836 0.0
H1373 H 0.08615 0.60986 0.60238 0.0
H1374 H 0.05141 0.62122 0.59377 0.0
H1375 H 0.11175 0.63897 0.5911 0.0
C1376 C 0.98059 0.60624 0.5665 0.0
C1377 C 0.01724 0.64956 0.56299 0.0
C1378 C 0.99043 0.57714 0.57224 0.0
C1379 C 0.03717 0.59046 0.57464 0.0
C1380 C 0.07402 0.63449 0.57144 0.0
H1381 H 0.09358 0.39829 0.61076 0.0
H1382 H 0.1108 0.46391 0.5996 0.0
C1383 C 0.0641 0.66398 0.56568 0.0
C1384 C 0.04621 0.55629 0.58001 0.0
H1385 H 0.07462 0.53283 0.60233 0.0
C1386 C 0.03177 0.51215 0.57573 0.0
C1387 C 0.06351 0.56447 0.58961 0.0
C1388 C 0.07897 0.61103 0.59456 0.0
C1389 C 0.03183 0.47529 0.58093 0.0
C1390 C 0.04633 0.48248 0.5907 0.0
C1391 C 0.06359 0.52745 0.59482 0.0
C1392 C 0.0373 0.44211 0.59705 0.0
C1393 C 0.01461 0.42822 0.57604 0.0
C1394 C 0.99047 0.40819 0.59927 0.0
C1395 C 0.98068 0.37124 0.60562 0.0
C1396 C 0.01748 0.36705 0.60988 0.0
C1397 C 0.06452 0.40033 0.6075 0.0
C1398 C 0.07438 0.43793 0.60119 0.0
H1399 H 0.01713 0.43186 0.56805 0.0
H1400 H 0.03518 0.41148 0.57848 0.0
H1401 H 0.97695 0.40427 0.57795 0.0
H1402 H 0.96135 0.41094 0.59624 0.0
H1403 H 0.94407 0.34628 0.60732 0.0
H1404 H 0.38335 0.08337 0.73374 0.0
H1405 H 0.45021 0.10217 0.74468 0.0
H1406 H 0.43203 0.96393 0.73965 0.0
H1407 H 0.36596 0.94491 0.72892 0.0
H1408 H 0.45263 0.04878 0.76198 0.0
H1409 H 0.57372 0.0589 0.73288 0.0
H1410 H 0.52249 0.06496 0.73061 0.0
H1411 H 0.51595 0.00734 0.73213 0.0
C1412 C 0.39345 0.05695 0.73505 0.0
C1413 C 0.36937 0.01272 0.73042 0.0
C1414 C 0.43171 0.06778 0.74126 0.0
C1415 C 0.44666 0.03474 0.74282 0.0
C1416 C 0.42175 0.99029 0.73841 0.0
H1417 H 0.57806 0.95103 0.78347 0.0
H1418 H 0.52916 0.96985 0.77326 0.0
C1419 C 0.38368 0.97942 0.7323 0.0
C1420 C 0.4877 0.04529 0.74911 0.0
H1421 H 0.59169 0.04398 0.74892 0.0
C1422 C 0.48358 0.04886 0.75912 0.0
C1423 C 0.52839 0.04597 0.74538 0.0
C1424 C 0.53577 0.04455 0.73465 0.0
C1425 C 0.51738 0.04954 0.76553 0.0
C1426 C 0.55598 0.04609 0.76182 0.0
C1427 C 0.56194 0.04619 0.75178 0.0
C1428 C 0.58689 0.03651 0.76821 0.0
C1429 C 0.51064 0.05232 0.77624 0.0
C1430 C 0.63613 0.06717 0.76861 0.0
C1431 C 0.6646 0.0564 0.7745 0.0
C1432 C 0.64426 0.01441 0.77994 0.0
C1433 C 0.59506 0.9837 0.77939 0.0
C1434 C 0.56683 0.9946 0.77361 0.0
H1435 H 0.48956 0.06973 0.77776 0.0
H1436 H 0.49116 0.01601 0.77926 0.0
H1437 H 0.54515 0.072 0.78003 0.0
H1438 H 0.65244 0.09948 0.76441 0.0
H1439 H 0.70236 0.08074 0.77476 0.0
H1440 H 0.63071 0.70332 0.93993 0.0
H1441 H 0.56366 0.65329 0.92918 0.0
H1442 H 0.57812 0.53286 0.93637 0.0
H1443 H 0.64444 0.58187 0.94691 0.0
H1444 H 0.56203 0.59285 0.91278 0.0
H1445 H 0.43609 0.49004 0.94199 0.0
H1446 H 0.48773 0.54736 0.944 0.0
H1447 H 0.4933 0.49544 0.94334 0.0
C1448 C 0.61965 0.66624 0.93916 0.0
C1449 C 0.64301 0.6467 0.94429 0.0
C1450 C 0.5813 0.63769 0.93305 0.0
C1451 C 0.56537 0.58912 0.93211 0.0
C1452 C 0.58918 0.56998 0.93711 0.0
H1453 H 0.43086 0.36479 0.89326 0.0
H1454 H 0.48023 0.43211 0.90354 0.0
C1455 C 0.62744 0.5983 0.9431 0.0
C1456 C 0.52475 0.55777 0.92577 0.0
H1457 H 0.41865 0.45438 0.92621 0.0
C1458 C 0.53019 0.56319 0.91571 0.0
C1459 C 0.48297 0.5192 0.92958 0.0
C1460 C 0.47431 0.51276 0.94032 0.0
C1461 C 0.49649 0.52932 0.90939 0.0
C1462 C 0.45648 0.48887 0.91322 0.0
C1463 C 0.44942 0.48517 0.92326 0.0
C1464 C 0.425 0.44776 0.90701 0.0
C1465 C 0.50475 0.53619 0.89864 0.0
C1466 C 0.37686 0.43314 0.90572 0.0
C1467 C 0.34813 0.39423 0.89976 0.0
C1468 C 0.36702 0.36897 0.89514 0.0
C1469 C 0.41495 0.38326 0.89668 0.0
C1470 C 0.44348 0.42209 0.90252 0.0
H1471 H 0.52869 0.57396 0.89679 0.0
H1472 H 0.52154 0.51585 0.8961 0.0
H1473 H 0.47086 0.52316 0.89468 0.0
H1474 H 0.36175 0.45221 0.9092 0.0
H1475 H 0.31142 0.38419 0.89871 0.0
loop_
_geom_bond_atom_site_label_1
_geom_bond_atom_site_label_2
_geom_bond_distance
_geom_bond_site_symmetry_2
_ccdc_geom_bond_type
Co0 N4 2.148 . S
Co0 N10 2.128 1_655 S
Co0 N20 2.194 1_655 S
Co0 O25 2.351 1_655 S
Co0 O26 2.155 . S
Co0 O27 2.096 . S
C1 N4 1.301 . S
C1 N5 1.328 . S
C1 H6 0.930 . S
C2 C3 1.333 . S
C2 N4 1.317 . S
C2 H7 0.930 . S
C3 C2 1.333 . S
C3 N5 1.350 . S
C3 H29 0.931 . S
N4 Co0 2.148 . S
N4 C1 1.301 . S
N4 C2 1.317 . S
N5 C1 1.328 . S
N5 C3 1.350 . S
H6 C1 0.930 . S
H7 C2 0.930 . S
C8 O9 1.224 . S
C8 O27 1.247 . S
O9 C8 1.224 . S
N10 Co0 2.128 1_455 S
N10 C11 1.355 . S
N10 C13 1.311 . S
C11 N10 1.355 . S
C11 C12 1.363 . S
C11 H23 0.929 . S
C12 C11 1.363 . S
C12 N14 1.375 . S
C12 H30 0.931 . S
C13 N10 1.311 . S
C13 N14 1.347 . S
C13 H24 0.929 1_455 S
N14 C12 1.375 . S
N14 C13 1.347 . S
C15 C18 1.365 . S
C15 N20 1.328 . S
C15 H21 0.929 . S
C16 C17 1.362 . S
C16 C19 1.378 . S
C16 H31 0.929 . S
C17 C16 1.362 . S
C17 C18 1.366 . S
C18 C15 1.365 . S
C18 C17 1.366 . S
C18 H32 0.930 . S
C19 C16 1.378 . S
C19 N20 1.315 . S
C19 H22 0.930 . S
N20 Co0 2.194 1_455 S
N20 C15 1.328 . S
N20 C19 1.315 . S
H21 C15 0.929 . S
H22 C19 0.930 . S
H23 C11 0.929 . S
H24 C13 0.929 1_655 S
O25 Co0 2.351 1_455 S
O25 C28 1.244 1_455 S
O26 Co0 2.155 . S
O26 C28 1.240 . S
O27 Co0 2.096 . S
O27 C8 1.247 . S
C28 O25 1.244 1_655 S
C28 O26 1.240 . S
H29 C3 0.931 . S
H30 C12 0.931 . S
H31 C16 0.929 . S
H32 C18 0.930 . S
Co33 N37 2.148 . S
Co33 N43 2.128 1_565 S
Co33 N53 2.194 1_565 S
Co33 O58 2.351 1_565 S
Co33 O59 2.155 . S
Co33 O60 2.096 . S
C34 N37 1.301 . S
C34 N38 1.328 . S
C34 H39 0.930 . S
C35 C36 1.333 . S
C35 N37 1.317 . S
C35 H40 0.930 . S
C36 C35 1.333 . S
C36 N38 1.350 . S
C36 H62 0.931 . S
N37 Co33 2.148 . S
N37 C34 1.301 . S
N37 C35 1.317 . S
N38 C34 1.328 . S
N38 C36 1.350 . S
H39 C34 0.930 . S
H40 C35 0.930 . S
C41 O42 1.224 . S
C41 O60 1.247 . S
O42 C41 1.224 . S
N43 Co33 2.128 1_545 S
N43 C44 1.355 . S
N43 C46 1.311 . S
C44 N43 1.355 . S
C44 C45 1.363 . S
C44 H56 0.929 . S
C45 C44 1.363 . S
C45 N47 1.375 . S
C45 H63 0.931 . S
C46 N43 1.311 . S
C46 N47 1.347 . S
C46 H57 0.929 1_545 S
N47 C45 1.375 . S
N47 C46 1.347 . S
C48 C51 1.365 . S
C48 N53 1.328 . S
C48 H54 0.929 . S
C49 C50 1.362 . S
C49 C52 1.378 . S
C49 H64 0.929 . S
C50 C49 1.362 . S
C50 C51 1.366 . S
C51 C48 1.365 . S
C51 C50 1.366 . S
C51 H65 0.930 . S
C52 C49 1.378 . S
C52 N53 1.315 . S
C52 H55 0.930 . S
N53 Co33 2.194 1_545 S
N53 C48 1.328 . S
N53 C52 1.315 . S
H54 C48 0.929 . S
H55 C52 0.930 . S
H56 C44 0.929 . S
H57 C46 0.929 1_565 S
O58 Co33 2.351 1_545 S
O58 C61 1.244 1_545 S
O59 Co33 2.155 . S
O59 C61 1.240 . S
O60 Co33 2.096 . S
O60 C41 1.247 . S
C61 O58 1.244 1_565 S
C61 O59 1.240 . S
H62 C36 0.931 . S
H63 C45 0.931 . S
H64 C49 0.929 . S
H65 C51 0.930 . S
Co66 N70 2.148 . S
Co66 N76 2.128 . S
Co66 N86 2.194 . S
Co66 O91 2.351 . S
Co66 O92 2.155 . S
Co66 O93 2.096 . S
C67 N70 1.301 . S
C67 N71 1.328 . S
C67 H72 0.930 . S
C68 C69 1.333 . S
C68 N70 1.317 . S
C68 H73 0.930 . S
C69 C68 1.333 . S
C69 N71 1.350 . S
C69 H95 0.931 . S
N70 Co66 2.148 . S
N70 C67 1.301 . S
N70 C68 1.317 . S
N71 C67 1.328 . S
N71 C69 1.350 . S
H72 C67 0.930 . S
H73 C68 0.930 . S
C74 O75 1.224 . S
C74 O93 1.247 . S
O75 C74 1.224 . S
N76 Co66 2.128 . S
N76 C77 1.355 . S
N76 C79 1.311 . S
C77 N76 1.355 . S
C77 C78 1.363 . S
C77 H89 0.929 . S
C78 C77 1.363 . S
C78 N80 1.375 . S
C78 H96 0.931 . S
C79 N76 1.311 . S
C79 N80 1.347 . S
C79 H90 0.929 . S
N80 C78 1.375 . S
N80 C79 1.347 . S
C81 C84 1.365 . S
C81 N86 1.328 . S
C81 H87 0.929 . S
C82 C83 1.362 . S
C82 C85 1.378 . S
C82 H97 0.929 . S
C83 C82 1.362 . S
C83 C84 1.366 . S
C84 C81 1.365 . S
C84 C83 1.366 . S
C84 H98 0.930 . S
C85 C82 1.378 . S
C85 N86 1.315 . S
C85 H88 0.930 . S
N86 Co66 2.194 . S
N86 C81 1.328 . S
N86 C85 1.315 . S
H87 C81 0.929 . S
H88 C85 0.930 . S
H89 C77 0.929 . S
H90 C79 0.929 . S
O91 Co66 2.351 . S
O91 C94 1.244 . S
O92 Co66 2.155 . S
O92 C94 1.240 . S
O93 Co66 2.096 . S
O93 C74 1.247 . S
C94 O91 1.244 . S
C94 O92 1.240 . S
H95 C69 0.931 . S
H96 C78 0.931 . S
H97 C82 0.929 . S
H98 C84 0.930 . S
Co99 N103 2.148 . S
Co99 N109 2.128 1_455 S
Co99 N119 2.194 1_455 S
Co99 O124 2.351 1_455 S
Co99 O125 2.155 . S
Co99 O126 2.096 . S
C100 N103 1.301 . S
C100 N104 1.328 . S
C100 H105 0.930 . S
C101 C102 1.333 . S
C101 N103 1.317 . S
C101 H106 0.930 . S
C102 C101 1.333 . S
C102 N104 1.350 . S
C102 H128 0.931 . S
N103 Co99 2.148 . S
N103 C100 1.301 . S
N103 C101 1.317 . S
N104 C100 1.328 . S
N104 C102 1.350 . S
H105 C100 0.930 . S
H106 C101 0.930 . S
C107 O108 1.224 . S
C107 O126 1.247 . S
O108 C107 1.224 . S
N109 Co99 2.128 1_655 S
N109 C110 1.355 . S
N109 C112 1.311 . S
C110 N109 1.355 . S
C110 C111 1.363 . S
C110 H122 0.929 . S
C111 C110 1.363 . S
C111 N113 1.375 . S
C111 H129 0.931 . S
C112 N109 1.311 . S
C112 N113 1.347 . S
C112 H123 0.929 1_655 S
N113 C111 1.375 . S
N113 C112 1.347 . S
C114 C117 1.365 . S
C114 N119 1.328 . S
C114 H120 0.929 . S
C115 C116 1.362 . S
C115 C118 1.378 . S
C115 H130 0.929 . S
C116 C115 1.362 . S
C116 C117 1.366 . S
C117 C114 1.365 . S
C117 C116 1.366 . S
C117 H131 0.930 . S
C118 C115 1.378 . S
C118 N119 1.315 . S
C118 H121 0.930 . S
N119 Co99 2.194 1_655 S
N119 C114 1.328 . S
N119 C118 1.315 . S
H120 C114 0.929 . S
H121 C118 0.930 . S
H122 C110 0.929 . S
H123 C112 0.929 1_455 S
O124 Co99 2.351 1_655 S
O124 C127 1.244 1_655 S
O125 Co99 2.155 . S
O125 C127 1.240 . S
O126 Co99 2.096 . S
O126 C107 1.247 . S
C127 O124 1.244 1_455 S
C127 O125 1.240 . S
H128 C102 0.931 . S
H129 C111 0.931 . S
H130 C115 0.929 . S
H131 C117 0.930 . S
Co132 N136 2.148 . S
Co132 N142 2.128 1_545 S
Co132 N152 2.194 1_545 S
Co132 O157 2.351 1_545 S
Co132 O158 2.155 . S
Co132 O159 2.096 . S
C133 N136 1.301 . S
C133 N137 1.328 . S
C133 H138 0.930 . S
C134 C135 1.333 . S
C134 N136 1.317 . S
C134 H139 0.930 . S
C135 C134 1.333 . S
C135 N137 1.350 . S
C135 H161 0.931 . S
N136 Co132 2.148 . S
N136 C133 1.301 . S
N136 C134 1.317 . S
N137 C133 1.328 . S
N137 C135 1.350 . S
H138 C133 0.930 . S
H139 C134 0.930 . S
C140 O141 1.224 . S
C140 O159 1.247 . S
O141 C140 1.224 . S
N142 Co132 2.128 1_565 S
N142 C143 1.355 . S
N142 C145 1.329 . S
C143 N142 1.355 . S
C143 C144 1.363 . S
C143 H155 0.929 . S
C144 C143 1.363 . S
C144 N146 1.375 . S
C144 H162 0.931 . S
C145 N142 1.329 . S
C145 N146 1.355 . S
C145 H156 0.907 1_565 S
N146 C144 1.375 . S
N146 C145 1.355 . S
C147 C150 1.365 . S
C147 N152 1.328 . S
C147 H153 0.929 . S
C148 C149 1.362 . S
C148 C151 1.378 . S
C148 H163 0.929 . S
C149 C148 1.362 . S
C149 C150 1.366 . S
C150 C147 1.365 . S
C150 C149 1.366 . S
C150 H164 0.930 . S
C151 C148 1.378 . S
C151 N152 1.315 . S
C151 H154 0.930 . S
N152 Co132 2.194 1_565 S
N152 C147 1.328 . S
N152 C151 1.315 . S
H153 C147 0.929 . S
H154 C151 0.930 . S
H155 C143 0.929 . S
H156 C145 0.907 1_545 S
O157 Co132 2.351 1_565 S
O157 C160 1.244 1_565 S
O158 Co132 2.155 . S
O158 C160 1.240 . S
O159 Co132 2.096 . S
O159 C140 1.247 . S
C160 O157 1.244 1_545 S
C160 O158 1.240 . S
H161 C135 0.931 . S
H162 C144 0.931 . S
H163 C148 0.929 . S
H164 C150 0.930 . S
Co165 N169 2.148 . S
Co165 N175 2.128 . S
Co165 N185 2.194 . S
Co165 O190 2.351 . S
Co165 O191 2.155 . S
Co165 O192 2.096 . S
C166 N169 1.301 . S
C166 N170 1.328 . S
C166 H171 0.930 . S
C167 C168 1.333 . S
C167 N169 1.317 . S
C167 H172 0.930 . S
C168 C167 1.333 . S
C168 N170 1.350 . S
C168 H194 0.931 . S
N169 Co165 2.148 . S
N169 C166 1.301 . S
N169 C167 1.317 . S
N170 C166 1.328 . S
N170 C168 1.350 . S
H171 C166 0.930 . S
H172 C167 0.930 . S
C173 O174 1.224 . S
C173 O192 1.247 . S
O174 C173 1.224 . S
N175 Co165 2.128 . S
N175 C176 1.355 . S
N175 C178 1.311 . S
C176 N175 1.355 . S
C176 C177 1.363 . S
C176 H188 0.929 . S
C177 C176 1.363 . S
C177 N179 1.375 . S
C177 H195 0.931 . S
C178 N175 1.311 . S
C178 N179 1.347 . S
C178 H189 0.929 . S
N179 C177 1.375 . S
N179 C178 1.347 . S
C180 C183 1.365 . S
C180 N185 1.328 . S
C180 H186 0.929 . S
C181 C182 1.362 . S
C181 C184 1.378 . S
C181 H196 0.929 . S
C182 C181 1.362 . S
C182 C183 1.366 . S
C183 C180 1.365 . S
C183 C182 1.366 . S
C183 H197 0.930 . S
C184 C181 1.378 . S
C184 N185 1.315 . S
C184 H187 0.930 . S
N185 Co165 2.194 . S
N185 C180 1.328 . S
N185 C184 1.315 . S
H186 C180 0.929 . S
H187 C184 0.930 . S
H188 C176 0.929 . S
H189 C178 0.929 . S
O190 Co165 2.351 . S
O190 C193 1.244 . S
O191 Co165 2.155 . S
O191 C193 1.240 . S
O192 Co165 2.096 . S
O192 C173 1.247 . S
C193 O190 1.244 . S
C193 O191 1.240 . S
H194 C168 0.931 . S
H195 C177 0.931 . S
H196 C181 0.929 . S
H197 C183 0.930 . S
Co198 N202 2.148 . S
Co198 N208 2.128 1_545 S
Co198 N218 2.194 1_545 S
Co198 O223 2.351 1_545 S
Co198 O224 2.155 . S
Co198 O225 2.096 . S
C199 N202 1.301 . S
C199 N203 1.328 . S
C199 H204 0.930 . S
C200 C201 1.333 . S
C200 N202 1.317 . S
C200 H205 0.930 . S
C201 C200 1.333 . S
C201 N203 1.350 . S
C201 H227 0.931 . S
N202 Co198 2.148 . S
N202 C199 1.301 . S
N202 C200 1.317 . S
N203 C199 1.328 . S
N203 C201 1.350 . S
H204 C199 0.930 . S
H205 C200 0.930 . S
C206 O207 1.224 . S
C206 O225 1.247 . S
O207 C206 1.224 . S
N208 Co198 2.128 1_565 S
N208 C209 1.355 . S
N208 C211 1.307 . S
C209 N208 1.355 . S
C209 C210 1.363 . S
C209 H221 0.929 . S
C210 C209 1.363 . S
C210 N212 1.375 . S
C210 H228 0.931 . S
C211 N208 1.307 . S
C211 N212 1.367 . S
C211 H222 0.915 1_565 S
N212 C210 1.375 . S
N212 C211 1.367 . S
C213 C216 1.365 . S
C213 N218 1.328 . S
C213 H219 0.929 . S
C214 C215 1.362 . S
C214 C217 1.378 . S
C214 H229 0.929 . S
C215 C214 1.362 . S
C215 C216 1.366 . S
C216 C213 1.365 . S
C216 C215 1.366 . S
C216 H230 0.930 . S
C217 C214 1.378 . S
C217 N218 1.315 . S
C217 H220 0.930 . S
N218 Co198 2.194 1_565 S
N218 C213 1.328 . S
N218 C217 1.315 . S
H219 C213 0.929 . S
H220 C217 0.930 . S
H221 C209 0.929 . S
H222 C211 0.915 1_545 S
O223 Co198 2.351 1_565 S
O223 C226 1.244 1_565 S
O224 Co198 2.155 . S
O224 C226 1.240 . S
O225 Co198 2.096 . S
O225 C206 1.247 . S
C226 O223 1.244 1_545 S
C226 O224 1.240 . S
H227 C201 0.931 . S
H228 C210 0.931 . S
H229 C214 0.929 . S
H230 C216 0.930 . S
Co231 N235 2.148 . S
Co231 N241 2.128 . S
Co231 N251 2.194 . S
Co231 O256 2.351 . S
Co231 O257 2.155 . S
Co231 O258 2.096 . S
C232 N235 1.301 . S
C232 N236 1.328 . S
C232 H237 0.930 . S
C233 C234 1.333 . S
C233 N235 1.317 . S
C233 H238 0.930 . S
C234 C233 1.333 . S
C234 N236 1.350 . S
C234 H260 0.931 . S
N235 Co231 2.148 . S
N235 C232 1.301 . S
N235 C233 1.317 . S
N236 C232 1.328 . S
N236 C234 1.350 . S
H237 C232 0.930 . S
H238 C233 0.930 . S
C239 O240 1.224 . S
C239 O258 1.247 . S
O240 C239 1.224 . S
N241 Co231 2.128 . S
N241 C242 1.355 . S
N241 C244 1.311 . S
C242 N241 1.355 . S
C242 C243 1.363 . S
C242 H254 0.929 . S
C243 C242 1.363 . S
C243 N245 1.375 . S
C243 H261 0.931 . S
C244 N241 1.311 . S
C244 N245 1.347 . S
C244 H255 0.929 . S
N245 C243 1.375 . S
N245 C244 1.347 . S
C246 C249 1.365 . S
C246 N251 1.328 . S
C246 H252 0.929 . S
C247 C248 1.362 . S
C247 C250 1.378 . S
C247 H262 0.929 . S
C248 C247 1.362 . S
C248 C249 1.366 . S
C249 C246 1.365 . S
C249 C248 1.366 . S
C249 H263 0.930 . S
C250 C247 1.378 . S
C250 N251 1.315 . S
C250 H253 0.930 . S
N251 Co231 2.194 . S
N251 C246 1.328 . S
N251 C250 1.315 . S
H252 C246 0.929 . S
H253 C250 0.930 . S
H254 C242 0.929 . S
H255 C244 0.929 . S
O256 Co231 2.351 . S
O256 C259 1.244 . S
O257 Co231 2.155 . S
O257 C259 1.240 . S
O258 Co231 2.096 . S
O258 C239 1.247 . S
C259 O256 1.244 . S
C259 O257 1.240 . S
H260 C234 0.931 . S
H261 C243 0.931 . S
H262 C247 0.929 . S
H263 C249 0.930 . S
Co264 N268 2.148 . S
Co264 N274 2.128 1_655 S
Co264 N284 2.194 1_655 S
Co264 O289 2.351 1_655 S
Co264 O290 2.155 . S
Co264 O291 2.096 . S
C265 N268 1.301 . S
C265 N269 1.328 . S
C265 H270 0.930 . S
C266 C267 1.333 . S
C266 N268 1.317 . S
C266 H271 0.930 . S
C267 C266 1.333 . S
C267 N269 1.350 . S
C267 H293 0.931 . S
N268 Co264 2.148 . S
N268 C265 1.301 . S
N268 C266 1.317 . S
N269 C265 1.328 . S
N269 C267 1.350 . S
H270 C265 0.930 . S
H271 C266 0.930 . S
C272 O273 1.224 . S
C272 O291 1.247 . S
O273 C272 1.224 . S
N274 Co264 2.128 1_455 S
N274 C275 1.355 . S
N274 C277 1.311 . S
C275 N274 1.355 . S
C275 C276 1.363 . S
C275 H287 0.929 . S
C276 C275 1.363 . S
C276 N278 1.375 . S
C276 H294 0.931 . S
C277 N274 1.311 . S
C277 N278 1.347 . S
C277 H288 0.929 1_455 S
N278 C276 1.375 . S
N278 C277 1.347 . S
C279 C282 1.365 . S
C279 N284 1.328 . S
C279 H285 0.929 . S
C280 C281 1.362 . S
C280 C283 1.378 . S
C280 H295 0.929 . S
C281 C280 1.362 . S
C281 C282 1.366 . S
C282 C279 1.365 . S
C282 C281 1.366 . S
C282 H296 0.930 . S
C283 C280 1.378 . S
C283 N284 1.315 . S
C283 H286 0.930 . S
N284 Co264 2.194 1_455 S
N284 C279 1.328 . S
N284 C283 1.315 . S
H285 C279 0.929 . S
H286 C283 0.930 . S
H287 C275 0.929 . S
H288 C277 0.929 1_655 S
O289 Co264 2.351 1_455 S
O289 C292 1.244 1_455 S
O290 Co264 2.155 . S
O290 C292 1.240 . S
O291 Co264 2.096 . S
O291 C272 1.247 . S
C292 O289 1.244 1_655 S
C292 O290 1.240 . S
H293 C267 0.931 . S
H294 C276 0.931 . S
H295 C280 0.929 . S
H296 C282 0.930 . S
Co297 N301 2.148 . S
Co297 N307 2.128 1_565 S
Co297 N317 2.194 1_565 S
Co297 O322 2.351 1_565 S
Co297 O323 2.155 . S
Co297 O324 2.096 . S
C298 N301 1.301 . S
C298 N302 1.328 . S
C298 H303 0.930 . S
C299 C300 1.333 . S
C299 N301 1.317 . S
C299 H304 0.930 . S
C300 C299 1.333 . S
C300 N302 1.350 . S
C300 H326 0.931 . S
N301 Co297 2.148 . S
N301 C298 1.301 . S
N301 C299 1.317 . S
N302 C298 1.328 . S
N302 C300 1.350 . S
H303 C298 0.930 . S
H304 C299 0.930 . S
C305 O306 1.224 . S
C305 O324 1.247 . S
O306 C305 1.224 . S
N307 Co297 2.128 1_545 S
N307 C308 1.355 . S
N307 C310 1.311 . S
C308 N307 1.355 . S
C308 C309 1.363 . S
C308 H320 0.929 . S
C309 C308 1.363 . S
C309 N311 1.375 . S
C309 H327 0.931 . S
C310 N307 1.311 . S
C310 N311 1.347 . S
C310 H321 0.929 1_545 S
N311 C309 1.375 . S
N311 C310 1.347 . S
C312 C315 1.365 . S
C312 N317 1.328 . S
C312 H318 0.929 . S
C313 C314 1.362 . S
C313 C316 1.378 . S
C313 H328 0.929 . S
C314 C313 1.362 . S
C314 C315 1.366 . S
C315 C312 1.365 . S
C315 C314 1.366 . S
C315 H329 0.930 . S
C316 C313 1.378 . S
C316 N317 1.315 . S
C316 H319 0.930 . S
N317 Co297 2.194 1_545 S
N317 C312 1.328 . S
N317 C316 1.315 . S
H318 C312 0.929 . S
H319 C316 0.930 . S
H320 C308 0.929 . S
H321 C310 0.929 1_565 S
O322 Co297 2.351 1_545 S
O322 C325 1.244 1_545 S
O323 Co297 2.155 . S
O323 C325 1.240 . S
O324 Co297 2.096 . S
O324 C305 1.247 . S
C325 O322 1.244 1_565 S
C325 O323 1.240 . S
H326 C300 0.931 . S
H327 C309 0.931 . S
H328 C313 0.929 . S
H329 C315 0.930 . S
Co330 N334 2.148 . S
Co330 N340 2.128 . S
Co330 N350 2.194 . S
Co330 O355 2.351 . S
Co330 O356 2.155 . S
Co330 O357 2.096 . S
C331 N334 1.301 . S
C331 N335 1.328 . S
C331 H336 0.930 . S
C332 C333 1.333 . S
C332 N334 1.317 . S
C332 H337 0.930 . S
C333 C332 1.333 . S
C333 N335 1.350 . S
C333 H359 0.931 . S
N334 Co330 2.148 . S
N334 C331 1.301 . S
N334 C332 1.317 . S
N335 C331 1.328 . S
N335 C333 1.350 . S
H336 C331 0.930 . S
H337 C332 0.930 . S
C338 O339 1.224 . S
C338 O357 1.247 . S
O339 C338 1.224 . S
N340 Co330 2.128 . S
N340 C341 1.355 . S
N340 C343 1.311 . S
C341 N340 1.355 . S
C341 C342 1.363 . S
C341 H353 0.929 . S
C342 C341 1.363 . S
C342 N344 1.375 . S
C342 H360 0.931 . S
C343 N340 1.311 . S
C343 N344 1.347 . S
C343 H354 0.929 . S
N344 C342 1.375 . S
N344 C343 1.347 . S
C345 C348 1.365 . S
C345 N350 1.328 . S
C345 H351 0.929 . S
C346 C347 1.362 . S
C346 C349 1.378 . S
C346 H361 0.929 . S
C347 C346 1.362 . S
C347 C348 1.366 . S
C348 C345 1.365 . S
C348 C347 1.366 . S
C348 H362 0.930 . S
C349 C346 1.378 . S
C349 N350 1.315 . S
C349 H352 0.930 . S
N350 Co330 2.194 . S
N350 C345 1.328 . S
N350 C349 1.315 . S
H351 C345 0.929 . S
H352 C349 0.930 . S
H353 C341 0.929 . S
H354 C343 0.929 . S
O355 Co330 2.351 . S
O355 C358 1.244 . S
O356 Co330 2.155 . S
O356 C358 1.240 . S
O357 Co330 2.096 . S
O357 C338 1.247 . S
C358 O355 1.244 . S
C358 O356 1.240 . S
H359 C333 0.931 . S
H360 C342 0.931 . S
H361 C346 0.929 . S
H362 C348 0.930 . S
Co363 N367 2.148 . S
Co363 N373 2.128 1_455 S
Co363 N383 2.194 1_455 S
Co363 O388 2.351 1_455 S
Co363 O389 2.155 . S
Co363 O390 2.096 . S
C364 N367 1.301 . S
C364 N368 1.328 . S
C364 H369 0.930 . S
C365 C366 1.333 . S
C365 N367 1.317 . S
C365 H370 0.930 . S
C366 C365 1.333 . S
C366 N368 1.350 . S
C366 H392 0.931 . S
N367 Co363 2.148 . S
N367 C364 1.301 . S
N367 C365 1.317 . S
N368 C364 1.328 . S
N368 C366 1.350 . S
H369 C364 0.930 . S
H370 C365 0.930 . S
C371 O372 1.224 . S
C371 O390 1.247 . S
O372 C371 1.224 . S
N373 Co363 2.128 1_655 S
N373 C374 1.355 . S
N373 C376 1.311 . S
C374 N373 1.355 . S
C374 C375 1.363 . S
C374 H386 0.929 . S
C375 C374 1.363 . S
C375 N377 1.375 . S
C375 H393 0.931 . S
C376 N373 1.311 . S
C376 N377 1.347 . S
C376 H387 0.929 1_655 S
N377 C375 1.375 . S
N377 C376 1.347 . S
C378 C381 1.365 . S
C378 N383 1.328 . S
C378 H384 0.929 . S
C379 C380 1.362 . S
C379 C382 1.378 . S
C379 H394 0.929 . S
C380 C379 1.362 . S
C380 C381 1.366 . S
C381 C378 1.365 . S
C381 C380 1.366 . S
C381 H395 0.930 . S
C382 C379 1.378 . S
C382 N383 1.315 . S
C382 H385 0.930 . S
N383 Co363 2.194 1_655 S
N383 C378 1.328 . S
N383 C382 1.315 . S
H384 C378 0.929 . S
H385 C382 0.930 . S
H386 C374 0.929 . S
H387 C376 0.929 1_455 S
O388 Co363 2.351 1_655 S
O388 C391 1.244 1_655 S
O389 Co363 2.155 . S
O389 C391 1.240 . S
O390 Co363 2.096 . S
O390 C371 1.247 . S
C391 O388 1.244 1_455 S
C391 O389 1.240 . S
H392 C366 0.931 . S
H393 C375 0.931 . S
H394 C379 0.929 . S
H395 C381 0.930 . S
H396 C404 0.929 . S
H397 C406 0.930 . S
H398 C408 1.036 . S
H399 C411 0.929 . S
H400 C414 0.930 . S
H401 C416 0.960 . S
H402 C416 0.960 1_556 S
H403 C416 0.960 . S
C404 H396 0.929 . S
C404 C405 1.377 . S
C404 C406 1.384 . S
C405 C404 1.377 . S
C405 C411 1.390 . S
C406 H397 0.930 . S
C406 C404 1.384 . S
C406 C407 1.372 . S
C407 C406 1.372 . S
C407 C408 1.400 . S
C407 C412 1.490 . S
C408 H398 1.036 . S
C408 C407 1.400 . S
C408 C411 1.386 . S
H409 C425 0.930 . S
H410 C426 0.931 . S
C411 H399 0.929 . S
C411 C405 1.390 . S
C411 C408 1.386 . S
C412 C407 1.490 . S
C412 C414 1.395 . S
C412 C415 1.379 1_556 S
H413 C419 0.930 . S
C414 H400 0.930 . S
C414 C412 1.395 . S
C414 C417 1.403 1_565 S
C415 C412 1.379 1_554 S
C415 C416 1.528 . S
C415 C419 1.420 1_565 S
C416 H401 0.960 . S
C416 H402 0.960 1_554 S
C416 H403 0.960 . S
C416 C415 1.528 . S
C417 C414 1.403 1_545 S
C417 C418 1.392 1_556 S
C417 C421 1.495 . S
C418 C417 1.392 1_554 S
C418 C419 1.385 . S
C418 C420 1.478 . S
C419 H413 0.930 . S
C419 C415 1.420 1_545 S
C419 C418 1.385 . S
C420 C418 1.478 . S
C420 C422 1.381 . S
C420 C426 1.383 . S
C421 C417 1.495 . S
C421 H427 0.959 . S
C421 H428 0.961 1_556 S
C421 H429 0.960 . S
C422 C420 1.381 . S
C422 C423 1.394 . S
C422 H430 0.950 . S
C423 C422 1.394 . S
C423 C424 1.383 . S
C423 H431 0.929 . S
C424 C423 1.383 . S
C424 C425 1.377 . S
C425 H409 0.930 . S
C425 C424 1.377 . S
C425 C426 1.379 . S
C426 H410 0.931 . S
C426 C420 1.383 . S
C426 C425 1.379 . S
H427 C421 0.959 . S
H428 C421 0.961 1_554 S
H429 C421 0.960 . S
H430 C422 0.950 . S
H431 C423 0.929 . S
H432 C440 0.929 . S
H433 C442 0.930 . S
H434 C444 0.930 . S
H435 C447 0.929 . S
H436 C450 0.930 . S
H437 C452 0.960 . S
H438 C452 0.960 . S
H439 C452 0.960 . S
C440 H432 0.929 . S
C440 C441 1.377 . S
C440 C442 1.384 . S
C441 C440 1.377 . S
C441 C447 1.390 . S
C442 H433 0.930 . S
C442 C440 1.384 . S
C442 C443 1.372 . S
C443 C442 1.372 . S
C443 C444 1.400 . S
C443 C448 1.490 . S
C444 H434 0.930 . S
C444 C443 1.400 . S
C444 C447 1.386 . S
H445 C461 0.930 . S
H446 C462 0.931 . S
C447 H435 0.929 . S
C447 C441 1.390 . S
C447 C444 1.386 . S
C448 C443 1.490 . S
C448 C450 1.395 . S
C448 C451 1.403 . S
H449 C455 0.930 . S
C450 H436 0.930 . S
C450 C448 1.395 . S
C450 C453 1.403 . S
C451 C448 1.403 . S
C451 C452 1.524 . S
C451 C455 1.400 . S
C452 H437 0.960 . S
C452 H438 0.960 . S
C452 H439 0.960 . S
C452 C451 1.524 . S
C453 C450 1.403 . S
C453 C454 1.392 . S
C453 C457 1.495 . S
C454 C453 1.392 . S
C454 C455 1.385 . S
C454 C456 1.478 . S
C455 H449 0.930 . S
C455 C451 1.400 . S
C455 C454 1.385 . S
C456 C454 1.478 . S
C456 C458 1.381 . S
C456 C462 1.383 . S
C457 C453 1.495 . S
C457 H463 0.959 . S
C457 H464 0.961 . S
C457 H465 0.960 . S
C458 C456 1.381 . S
C458 C459 1.394 . S
C458 H466 0.930 . S
C459 C458 1.394 . S
C459 C460 1.383 . S
C459 H467 0.929 . S
C460 C459 1.383 . S
C460 C461 1.377 . S
C461 H445 0.930 . S
C461 C460 1.377 . S
C461 C462 1.379 . S
C462 H446 0.931 . S
C462 C456 1.383 . S
C462 C461 1.379 . S
H463 C457 0.959 . S
H464 C457 0.961 . S
H465 C457 0.960 . S
H466 C458 0.930 . S
H467 C459 0.929 . S
H468 C476 0.929 . S
H469 C478 0.930 . S
H470 C480 0.930 . S
H471 C483 0.929 . S
H472 C486 0.930 . S
H473 C488 0.960 1_455 S
H474 C488 0.960 . S
H475 C488 0.960 . S
C476 H468 0.929 . S
C476 C477 1.377 . S
C476 C478 1.384 . S
C477 C476 1.377 . S
C477 C483 1.390 . S
C478 H469 0.930 . S
C478 C476 1.384 . S
C478 C479 1.372 . S
C479 C478 1.372 . S
C479 C480 1.400 . S
C479 C484 1.490 . S
C480 H470 0.930 . S
C480 C479 1.400 . S
C480 C483 1.386 . S
H481 C497 0.930 . S
H482 C498 0.931 . S
C483 H471 0.929 . S
C483 C477 1.390 . S
C483 C480 1.386 . S
C484 C479 1.490 . S
C484 C486 1.395 . S
C484 C487 1.403 . S
H485 C491 0.930 . S
C486 H472 0.930 . S
C486 C484 1.395 . S
C486 C489 1.403 1_655 S
C487 C484 1.403 . S
C487 C488 1.524 . S
C487 C491 1.400 1_655 S
C488 H473 0.960 1_655 S
C488 H474 0.960 . S
C488 H475 0.960 . S
C488 C487 1.524 . S
C489 C486 1.403 1_455 S
C489 C490 1.392 . S
C489 C493 1.495 . S
C490 C489 1.392 . S
C490 C491 1.385 . S
C490 C492 1.478 . S
C491 H485 0.930 . S
C491 C487 1.400 1_455 S
C491 C490 1.385 . S
C492 C490 1.478 . S
C492 C494 1.381 . S
C492 C498 1.383 . S
C493 C489 1.495 . S
C493 H499 0.956 1_455 S
C493 H500 0.961 . S
C493 H501 0.960 . S
C494 C492 1.381 . S
C494 C495 1.394 . S
C494 H502 0.930 . S
C495 C494 1.394 . S
C495 C496 1.383 . S
C495 H503 0.929 . S
C496 C495 1.383 . S
C496 C497 1.377 . S
C497 H481 0.930 . S
C497 C496 1.377 . S
C497 C498 1.379 . S
C498 H482 0.931 . S
C498 C492 1.383 . S
C498 C497 1.379 . S
H499 C493 0.956 1_655 S
H500 C493 0.961 . S
H501 C493 0.960 . S
H502 C494 0.930 . S
H503 C495 0.929 . S
H504 C512 0.929 . S
H505 C514 0.930 . S
H506 C516 0.930 . S
H507 C519 0.929 . S
H508 C522 0.930 . S
H509 C524 0.960 . S
H510 C524 0.960 . S
H511 C524 0.960 1_545 S
C512 H504 0.929 . S
C512 C513 1.377 . S
C512 C514 1.384 . S
C513 C512 1.377 . S
C513 C519 1.390 . S
C514 H505 0.930 . S
C514 C512 1.384 . S
C514 C515 1.372 . S
C515 C514 1.372 . S
C515 C516 1.400 . S
C515 C520 1.490 . S
C516 H506 0.930 . S
C516 C515 1.400 . S
C516 C519 1.386 . S
H517 C533 0.930 . S
H518 C534 0.931 . S
C519 H507 0.929 . S
C519 C513 1.390 . S
C519 C516 1.386 . S
C520 C515 1.490 . S
C520 C522 1.395 . S
C520 C523 1.403 1_545 S
H521 C527 0.930 . S
C522 H508 0.930 . S
C522 C520 1.395 . S
C522 C525 1.403 . S
C523 C520 1.403 1_565 S
C523 C524 1.524 . S
C523 C527 1.400 . S
C524 H509 0.960 . S
C524 H510 0.960 . S
C524 H511 0.960 1_565 S
C524 C523 1.524 . S
C525 C522 1.403 . S
C525 C526 1.392 1_545 S
C525 C529 1.495 . S
C526 C525 1.392 1_565 S
C526 C527 1.385 . S
C526 C528 1.478 . S
C527 H521 0.930 . S
C527 C523 1.400 . S
C527 C526 1.385 . S
C528 C526 1.478 . S
C528 C530 1.381 . S
C528 C534 1.383 . S
C529 C525 1.495 . S
C529 H535 0.959 . S
C529 H536 0.961 . S
C529 H537 0.960 1_545 S
C530 C528 1.381 . S
C530 C531 1.394 . S
C530 H538 0.930 . S
C531 C530 1.394 . S
C531 C532 1.383 . S
C531 H539 0.929 . S
C532 C531 1.383 . S
C532 C533 1.377 . S
C533 H517 0.930 . S
C533 C532 1.377 . S
C533 C534 1.379 . S
C534 H518 0.931 . S
C534 C528 1.383 . S
C534 C533 1.379 . S
H535 C529 0.959 . S
H536 C529 0.961 . S
H537 C529 0.960 1_565 S
H538 C530 0.930 . S
H539 C531 0.929 . S
H540 C548 0.929 . S
H541 C550 0.930 . S
H542 C552 0.930 . S
H543 C555 0.929 . S
H544 C558 0.930 . S
H545 C560 0.960 . S
H546 C560 0.960 . S
H547 C560 0.960 . S
C548 H540 0.929 . S
C548 C549 1.377 . S
C548 C550 1.384 . S
C549 C548 1.377 . S
C549 C555 1.390 . S
C550 H541 0.930 . S
C550 C548 1.384 . S
C550 C551 1.372 . S
C551 C550 1.372 . S
C551 C552 1.400 . S
C551 C556 1.490 . S
C552 H542 0.930 . S
C552 C551 1.400 . S
C552 C555 1.386 . S
H553 C569 0.930 . S
H554 C570 0.931 . S
C555 H543 0.929 . S
C555 C549 1.390 . S
C555 C552 1.386 . S
C556 C551 1.490 . S
C556 C558 1.395 . S
C556 C559 1.403 . S
H557 C563 0.930 . S
C558 H544 0.930 . S
C558 C556 1.395 . S
C558 C561 1.403 . S
C559 C556 1.403 . S
C559 C560 1.524 . S
C559 C563 1.400 . S
C560 H545 0.960 . S
C560 H546 0.960 . S
C560 H547 0.960 . S
C560 C559 1.524 . S
C561 C558 1.403 . S
C561 C562 1.392 . S
C561 C565 1.495 . S
C562 C561 1.392 . S
C562 C563 1.385 . S
C562 C564 1.478 . S
C563 H557 0.930 . S
C563 C559 1.400 . S
C563 C562 1.385 . S
C564 C562 1.478 . S
C564 C566 1.381 . S
C564 C570 1.383 . S
C565 C561 1.495 . S
C565 H571 0.959 . S
C565 H572 0.961 . S
C565 H573 0.960 . S
C566 C564 1.381 . S
C566 C567 1.394 . S
C566 H574 0.930 . S
C567 C566 1.394 . S
C567 C568 1.383 . S
C567 H575 0.929 . S
C568 C567 1.383 . S
C568 C569 1.377 . S
C569 H553 0.930 . S
C569 C568 1.377 . S
C569 C570 1.379 . S
C570 H554 0.931 . S
C570 C564 1.383 . S
C570 C569 1.379 . S
H571 C565 0.959 . S
H572 C565 0.961 . S
H573 C565 0.960 . S
H574 C566 0.930 . S
H575 C567 0.929 . S
H576 C584 0.929 . S
H577 C586 0.930 . S
H578 C588 0.930 . S
H579 C591 0.929 . S
H580 C594 0.930 . S
H581 C596 0.960 . S
H582 C596 0.960 . S
H583 C596 0.960 . S
C584 H576 0.929 . S
C584 C585 1.377 . S
C584 C586 1.384 . S
C585 C584 1.377 . S
C585 C591 1.390 . S
C586 H577 0.930 . S
C586 C584 1.384 . S
C586 C587 1.372 . S
C587 C586 1.372 . S
C587 C588 1.400 . S
C587 C592 1.490 . S
C588 H578 0.930 . S
C588 C587 1.400 . S
C588 C591 1.386 . S
H589 C605 0.930 . S
H590 C606 0.931 . S
C591 H579 0.929 . S
C591 C585 1.390 . S
C591 C588 1.386 . S
C592 C587 1.490 . S
C592 C594 1.395 . S
C592 C595 1.403 . S
H593 C599 0.930 . S
C594 H580 0.930 . S
C594 C592 1.395 . S
C594 C597 1.403 1_655 S
C595 C592 1.403 . S
C595 C596 1.524 . S
C595 C599 1.400 1_655 S
C596 H581 0.960 . S
C596 H582 0.960 . S
C596 H583 0.960 . S
C596 C595 1.524 . S
C597 C594 1.403 1_455 S
C597 C598 1.392 . S
C597 C601 1.495 . S
C598 C597 1.392 . S
C598 C599 1.385 . S
C598 C600 1.478 . S
C599 H593 0.930 . S
C599 C595 1.400 1_455 S
C599 C598 1.385 . S
C600 C598 1.478 . S
C600 C602 1.381 . S
C600 C606 1.383 . S
C601 C597 1.495 . S
C601 H607 0.959 . S
C601 H608 0.961 . S
C601 H609 0.960 . S
C602 C600 1.381 . S
C602 C603 1.394 . S
C602 H610 0.930 . S
C603 C602 1.394 . S
C603 C604 1.383 . S
C603 H611 0.929 . S
C604 C603 1.383 . S
C604 C605 1.377 . S
C605 H589 0.930 . S
C605 C604 1.377 . S
C605 C606 1.379 . S
C606 H590 0.931 . S
C606 C600 1.383 . S
C606 C605 1.379 . S
H607 C601 0.959 . S
H608 C601 0.961 . S
H609 C601 0.960 . S
H610 C602 0.930 . S
H611 C603 0.929 . S
H612 C620 0.929 . S
H613 C622 0.930 . S
H614 C624 0.930 . S
H615 C627 0.929 . S
H616 C630 0.930 . S
H617 C632 0.960 . S
H618 C632 0.960 . S
H619 C632 0.960 . S
C620 H612 0.929 . S
C620 C621 1.377 . S
C620 C622 1.384 . S
C621 C620 1.377 . S
C621 C627 1.390 1_455 S
C622 H613 0.930 . S
C622 C620 1.384 . S
C622 C623 1.372 . S
C623 C622 1.372 . S
C623 C624 1.400 1_455 S
C623 C628 1.490 . S
C624 H614 0.930 . S
C624 C623 1.400 1_655 S
C624 C627 1.386 . S
H625 C641 0.930 . S
H626 C642 0.931 . S
C627 H615 0.929 . S
C627 C621 1.390 1_655 S
C627 C624 1.386 . S
C628 C623 1.490 . S
C628 C630 1.395 . S
C628 C631 1.403 . S
H629 C635 0.930 1_655 S
C630 H616 0.930 . S
C630 C628 1.395 . S
C630 C633 1.403 . S
C631 C628 1.403 . S
C631 C632 1.524 1_445 S
C631 C635 1.400 1_545 S
C632 H617 0.960 . S
C632 H618 0.960 . S
C632 H619 0.960 . S
C632 C631 1.524 1_665 S
C633 C630 1.403 . S
C633 C634 1.392 1_545 S
C633 C637 1.495 . S
C634 C633 1.392 1_565 S
C634 C635 1.385 . S
C634 C636 1.478 . S
C635 H629 0.930 1_455 S
C635 C631 1.400 1_565 S
C635 C634 1.385 . S
C636 C634 1.478 . S
C636 C638 1.381 . S
C636 C642 1.383 1_455 S
C637 C633 1.495 . S
C637 H643 0.959 . S
C637 H644 0.961 . S
C637 H645 0.960 . S
C638 C636 1.381 . S
C638 C639 1.394 . S
C638 H646 0.930 . S
C639 C638 1.394 . S
C639 C640 1.383 . S
C639 H647 0.929 . S
C640 C639 1.383 . S
C640 C641 1.377 1_455 S
C641 H625 0.930 . S
C641 C640 1.377 1_655 S
C641 C642 1.379 . S
C642 H626 0.931 . S
C642 C636 1.383 1_655 S
C642 C641 1.379 . S
H643 C637 0.959 . S
H644 C637 0.961 . S
H645 C637 0.960 . S
H646 C638 0.930 . S
H647 C639 0.929 . S
H648 C656 0.929 1_565 S
H649 C658 0.944 . S
H650 C660 0.930 . S
H651 C663 0.929 . S
H652 C666 0.930 . S
H653 C668 0.960 . S
H654 C668 0.960 1_655 S
H655 C668 0.960 . S
C656 H648 0.929 1_545 S
C656 C657 1.379 . S
C656 C658 1.373 1_545 S
C657 C656 1.379 . S
C657 C663 1.390 . S
C658 H649 0.944 . S
C658 C656 1.373 1_565 S
C658 C659 1.369 1_565 S
C659 C658 1.369 1_545 S
C659 C660 1.400 . S
C659 C664 1.490 . S
C660 H650 0.930 . S
C660 C659 1.400 . S
C660 C663 1.386 . S
H661 C677 0.930 . S
H662 C678 0.931 . S
C663 H651 0.929 . S
C663 C657 1.390 . S
C663 C660 1.386 . S
C664 C659 1.490 . S
C664 C666 1.395 1_545 S
C664 C667 1.403 1_655 S
H665 C671 0.930 . S
C666 H652 0.930 . S
C666 C664 1.395 1_565 S
C666 C669 1.403 1_655 S
C667 C664 1.403 1_455 S
C667 C668 1.524 . S
C667 C671 1.400 . S
C668 H653 0.960 . S
C668 H654 0.960 1_455 S
C668 H655 0.960 . S
C668 C667 1.524 . S
C669 C666 1.403 1_455 S
C669 C670 1.392 1_565 S
C669 C673 1.495 . S
C670 C669 1.392 1_545 S
C670 C671 1.385 . S
C670 C672 1.478 . S
C671 H665 0.930 . S
C671 C667 1.400 . S
C671 C670 1.385 . S
C672 C670 1.478 . S
C672 C674 1.381 1_545 S
C672 C678 1.383 . S
C673 C669 1.495 . S
C673 H679 0.959 1_455 S
C673 H680 0.961 . S
C673 H681 0.960 . S
C674 C672 1.381 1_565 S
C674 C675 1.394 . S
C674 H682 0.930 . S
C675 C674 1.394 . S
C675 C676 1.383 1_565 S
C675 H683 0.929 . S
C676 C675 1.383 1_545 S
C676 C677 1.377 . S
C677 H661 0.930 . S
C677 C676 1.377 . S
C677 C678 1.379 . S
C678 H662 0.931 . S
C678 C672 1.383 . S
C678 C677 1.379 . S
H679 C673 0.959 1_655 S
H680 C673 0.961 . S
H681 C673 0.960 . S
H682 C674 0.930 . S
H683 C675 0.929 . S
H684 C692 0.929 . S
H685 C694 0.930 . S
H686 C696 0.930 . S
H687 C699 0.929 . S
H688 C702 0.930 . S
H689 C704 0.960 . S
H690 C704 0.960 . S
H691 C704 0.960 . S
C692 H684 0.929 . S
C692 C693 1.377 . S
C692 C694 1.384 . S
C693 C692 1.377 . S
C693 C699 1.390 . S
C694 H685 0.930 . S
C694 C692 1.384 . S
C694 C695 1.372 . S
C695 C694 1.372 . S
C695 C696 1.400 . S
C695 C700 1.490 . S
C696 H686 0.930 . S
C696 C695 1.400 . S
C696 C699 1.386 . S
H697 C713 0.930 . S
H698 C714 0.931 . S
C699 H687 0.929 . S
C699 C693 1.390 . S
C699 C696 1.386 . S
C700 C695 1.490 . S
C700 C702 1.395 1_455 S
C700 C703 1.403 . S
H701 C707 0.930 . S
C702 H688 0.930 . S
C702 C700 1.395 1_655 S
C702 C705 1.403 1_545 S
C703 C700 1.403 . S
C703 C704 1.524 . S
C703 C707 1.400 1_455 S
C704 H689 0.960 . S
C704 H690 0.960 . S
C704 H691 0.960 . S
C704 C703 1.524 . S
C705 C702 1.403 1_565 S
C705 C706 1.392 . S
C705 C709 1.495 . S
C706 C705 1.392 . S
C706 C707 1.385 1_565 S
C706 C708 1.478 . S
C707 H701 0.930 . S
C707 C703 1.400 1_655 S
C707 C706 1.385 1_545 S
C708 C706 1.478 . S
C708 C710 1.381 . S
C708 C714 1.383 . S
C709 C705 1.495 . S
C709 H715 0.959 . S
C709 H716 0.961 . S
C709 H717 0.960 . S
C710 C708 1.381 . S
C710 C711 1.394 . S
C710 H718 0.930 . S
C711 C710 1.394 . S
C711 C712 1.383 . S
C711 H719 0.929 . S
C712 C711 1.383 . S
C712 C713 1.377 . S
C713 H697 0.930 . S
C713 C712 1.377 . S
C713 C714 1.379 . S
C714 H698 0.931 . S
C714 C708 1.383 . S
C714 C713 1.379 . S
H715 C709 0.959 . S
H716 C709 0.961 . S
H717 C709 0.960 . S
H718 C710 0.930 . S
H719 C711 0.929 . S
H720 C728 0.929 . S
H721 C730 0.930 . S
H722 C732 0.930 . S
H723 C735 0.929 . S
H724 C738 0.930 . S
H725 C740 0.960 . S
H726 C740 0.960 1_545 S
H727 C740 0.960 . S
C728 H720 0.929 . S
C728 C729 1.377 1_455 S
C728 C730 1.384 . S
C729 C728 1.377 1_655 S
C729 C735 1.390 . S
C730 H721 0.930 . S
C730 C728 1.384 . S
C730 C731 1.372 1_455 S
C731 C730 1.372 1_655 S
C731 C732 1.400 . S
C731 C736 1.490 . S
C732 H722 0.930 . S
C732 C731 1.400 . S
C732 C735 1.386 . S
H733 C749 0.930 . S
H734 C750 0.931 . S
C735 H723 0.929 . S
C735 C729 1.390 . S
C735 C732 1.386 . S
C736 C731 1.490 . S
C736 C738 1.395 1_655 S
C736 C739 1.403 1_545 S
H737 C743 0.930 . S
C738 H724 0.930 . S
C738 C736 1.395 1_455 S
C738 C741 1.403 1_545 S
C739 C736 1.403 1_565 S
C739 C740 1.524 . S
C739 C743 1.400 . S
C740 H725 0.960 . S
C740 H726 0.960 1_565 S
C740 H727 0.960 . S
C740 C739 1.524 . S
C741 C738 1.403 1_565 S
C741 C742 1.392 1_455 S
C741 C745 1.495 . S
C742 C741 1.392 1_655 S
C742 C743 1.385 . S
C742 C744 1.478 . S
C743 H737 0.930 . S
C743 C739 1.400 . S
C743 C742 1.385 . S
C744 C742 1.478 . S
C744 C746 1.381 1_655 S
C744 C750 1.383 . S
C745 C741 1.495 . S
C745 H751 0.959 1_565 S
C745 H752 0.961 . S
C745 H753 0.960 . S
C746 C744 1.381 1_455 S
C746 C747 1.394 . S
C746 H754 0.930 . S
C747 C746 1.394 . S
C747 C748 1.383 1_455 S
C747 H755 0.929 . S
C748 C747 1.383 1_655 S
C748 C749 1.377 . S
C749 H733 0.930 . S
C749 C748 1.377 . S
C749 C750 1.379 . S
C750 H734 0.931 . S
C750 C744 1.383 . S
C750 C749 1.379 . S
H751 C745 0.959 1_545 S
H752 C745 0.961 . S
H753 C745 0.960 . S
H754 C746 0.930 . S
H755 C747 0.929 . S
H756 C764 0.929 . S
H757 C766 0.930 . S
H758 C768 0.930 . S
H759 C771 0.929 . S
H760 C774 0.930 . S
H761 C776 0.960 1_655 S
H762 C776 0.960 . S
H763 C776 0.960 . S
C764 H756 0.929 . S
C764 C765 1.377 1_545 S
C764 C766 1.384 . S
C765 C764 1.377 1_565 S
C765 C771 1.390 . S
C766 H757 0.930 . S
C766 C764 1.384 . S
C766 C767 1.372 1_545 S
C767 C766 1.372 1_565 S
C767 C768 1.400 . S
C767 C772 1.490 . S
C768 H758 0.930 . S
C768 C767 1.400 . S
C768 C771 1.386 . S
H769 C785 0.930 . S
H770 C786 0.931 . S
C771 H759 0.929 . S
C771 C765 1.390 . S
C771 C768 1.386 . S
C772 C767 1.490 . S
C772 C774 1.395 1_565 S
C772 C775 1.400 1_455 S
H773 C779 0.930 . S
C774 H760 0.930 . S
C774 C772 1.395 1_545 S
C774 C777 1.403 1_455 S
C775 C772 1.400 1_655 S
C775 C776 1.506 1_655 S
C775 C779 1.422 . S
C776 H761 0.960 1_455 S
C776 H762 0.960 . S
C776 H763 0.960 . S
C776 C775 1.506 1_455 S
C777 C774 1.403 1_655 S
C777 C778 1.392 1_545 S
C777 C781 1.495 . S
C778 C777 1.392 1_565 S
C778 C779 1.385 . S
C778 C780 1.478 . S
C779 H773 0.930 . S
C779 C775 1.422 . S
C779 C778 1.385 . S
C780 C778 1.478 . S
C780 C782 1.381 1_565 S
C780 C786 1.383 . S
C781 C777 1.495 . S
C781 H787 0.959 . S
C781 H788 0.961 . S
C781 H789 0.960 . S
C782 C780 1.381 1_545 S
C782 C783 1.394 . S
C782 H790 0.930 . S
C783 C782 1.394 . S
C783 C784 1.383 1_545 S
C783 H791 0.929 . S
C784 C783 1.383 1_565 S
C784 C785 1.377 . S
C785 H769 0.930 . S
C785 C784 1.377 . S
C785 C786 1.379 . S
C786 H770 0.931 . S
C786 C780 1.383 . S
C786 C785 1.379 . S
H787 C781 0.959 . S
H788 C781 0.961 . S
H789 C781 0.960 . S
H790 C782 0.930 . S
H791 C783 0.929 . S
H792 C800 0.929 . S
H793 C802 0.930 . S
H794 C804 0.930 . S
H795 C807 0.929 . S
H796 C810 0.930 . S
H797 C812 0.960 1_545 S
H798 C812 0.960 . S
H799 C812 0.960 . S
C800 H792 0.929 . S
C800 C801 1.377 . S
C800 C802 1.384 . S
C801 C800 1.377 . S
C801 C807 1.390 . S
C802 H793 0.930 . S
C802 C800 1.384 . S
C802 C803 1.372 . S
C803 C802 1.372 . S
C803 C804 1.400 . S
C803 C808 1.490 . S
C804 H794 0.930 . S
C804 C803 1.400 . S
C804 C807 1.386 . S
H805 C821 0.930 . S
H806 C822 0.931 . S
C807 H795 0.929 . S
C807 C801 1.390 . S
C807 C804 1.386 . S
C808 C803 1.490 . S
C808 C810 1.395 1_655 S
C808 C811 1.403 . S
H809 C815 0.930 . S
C810 H796 0.930 . S
C810 C808 1.395 1_455 S
C810 C813 1.403 . S
C811 C808 1.403 . S
C811 C812 1.524 . S
C811 C815 1.400 1_665 S
C812 H797 0.960 1_565 S
C812 H798 0.960 . S
C812 H799 0.960 . S
C812 C811 1.524 . S
C813 C810 1.403 . S
C813 C814 1.392 1_565 S
C813 C817 1.495 . S
C814 C813 1.392 1_545 S
C814 C815 1.385 . S
C814 C816 1.478 . S
C815 H809 0.930 . S
C815 C811 1.400 1_445 S
C815 C814 1.385 . S
C816 C814 1.478 . S
C816 C818 1.381 . S
C816 C822 1.383 . S
C817 C813 1.495 . S
C817 H823 0.959 . S
C817 H824 0.961 . S
C817 H825 0.960 1_565 S
C818 C816 1.381 . S
C818 C819 1.394 . S
C818 H826 0.930 . S
C819 C818 1.394 . S
C819 C820 1.383 . S
C819 H827 0.929 . S
C820 C819 1.383 . S
C820 C821 1.377 . S
C821 H805 0.930 . S
C821 C820 1.377 . S
C821 C822 1.379 . S
C822 H806 0.931 . S
C822 C816 1.383 . S
C822 C821 1.379 . S
H823 C817 0.959 . S
H824 C817 0.961 . S
H825 C817 0.960 1_545 S
H826 C818 0.930 . S
H827 C819 0.929 . S
H828 C836 0.929 . S
H829 C838 0.930 . S
H830 C840 0.930 . S
H831 C843 0.929 . S
H832 C846 0.930 . S
H833 C848 0.960 . S
H834 C848 0.960 . S
H835 C848 0.960 . S
C836 H828 0.929 . S
C836 C837 1.377 . S
C836 C838 1.384 . S
C837 C836 1.377 . S
C837 C843 1.390 . S
C838 H829 0.930 . S
C838 C836 1.384 . S
C838 C839 1.372 . S
C839 C838 1.372 . S
C839 C840 1.400 . S
C839 C844 1.490 . S
C840 H830 0.930 . S
C840 C839 1.400 . S
C840 C843 1.386 . S
H841 C857 0.930 . S
H842 C858 0.931 . S
C843 H831 0.929 . S
C843 C837 1.390 . S
C843 C840 1.386 . S
C844 C839 1.490 . S
C844 C846 1.395 1_556 S
C844 C847 1.403 . S
H845 C851 0.930 . S
C846 H832 0.930 . S
C846 C844 1.395 1_554 S
C846 C849 1.403 . S
C847 C844 1.403 . S
C847 C848 1.524 . S
C847 C851 1.400 . S
C848 H833 0.960 . S
C848 H834 0.960 . S
C848 H835 0.960 . S
C848 C847 1.524 . S
C849 C846 1.403 . S
C849 C850 1.392 . S
C849 C853 1.495 . S
C850 C849 1.392 . S
C850 C851 1.385 1_554 S
C850 C852 1.478 . S
C851 H845 0.930 . S
C851 C847 1.400 . S
C851 C850 1.385 1_556 S
C852 C850 1.478 . S
C852 C854 1.381 . S
C852 C858 1.383 . S
C853 C849 1.495 . S
C853 H859 0.959 . S
C853 H860 0.961 . S
C853 H861 0.960 . S
C854 C852 1.381 . S
C854 C855 1.394 . S
C854 H862 0.930 . S
C855 C854 1.394 . S
C855 C856 1.383 . S
C855 H863 0.929 . S
C856 C855 1.383 . S
C856 C857 1.377 . S
C857 H841 0.930 . S
C857 C856 1.377 . S
C857 C858 1.379 . S
C858 H842 0.931 . S
C858 C852 1.383 . S
C858 C857 1.379 . S
H859 C853 0.959 . S
H860 C853 0.961 . S
H861 C853 0.960 . S
H862 C854 0.930 . S
H863 C855 0.929 . S
H864 C872 0.929 . S
H865 C874 0.930 . S
H866 C876 0.930 . S
H867 C879 0.929 . S
H868 C882 0.930 . S
H869 C884 0.960 . S
H870 C884 0.960 . S
H871 C884 0.960 . S
C872 H864 0.929 . S
C872 C873 1.377 . S
C872 C874 1.384 . S
C873 C872 1.377 . S
C873 C879 1.390 . S
C874 H865 0.930 . S
C874 C872 1.384 . S
C874 C875 1.372 . S
C875 C874 1.372 . S
C875 C876 1.400 . S
C875 C880 1.490 . S
C876 H866 0.930 . S
C876 C875 1.400 . S
C876 C879 1.386 . S
H877 C893 0.930 . S
H878 C894 0.931 . S
C879 H867 0.929 . S
C879 C873 1.390 . S
C879 C876 1.386 . S
C880 C875 1.490 . S
C880 C882 1.395 . S
C880 C883 1.403 . S
H881 C887 0.930 . S
C882 H868 0.930 . S
C882 C880 1.395 . S
C882 C885 1.403 . S
C883 C880 1.403 . S
C883 C884 1.524 . S
C883 C887 1.400 . S
C884 H869 0.960 . S
C884 H870 0.960 . S
C884 H871 0.960 . S
C884 C883 1.524 . S
C885 C882 1.403 . S
C885 C886 1.392 . S
C885 C889 1.495 . S
C886 C885 1.392 . S
C886 C887 1.385 . S
C886 C888 1.478 . S
C887 H881 0.930 . S
C887 C883 1.400 . S
C887 C886 1.385 . S
C888 C886 1.478 . S
C888 C890 1.381 . S
C888 C894 1.383 . S
C889 C885 1.495 . S
C889 H895 0.959 . S
C889 H896 0.961 . S
C889 H897 0.960 . S
C890 C888 1.381 . S
C890 C891 1.394 . S
C890 H898 0.930 . S
C891 C890 1.394 . S
C891 C892 1.383 . S
C891 H899 0.929 . S
C892 C891 1.383 . S
C892 C893 1.377 . S
C893 H877 0.930 . S
C893 C892 1.377 . S
C893 C894 1.379 . S
C894 H878 0.931 . S
C894 C888 1.383 . S
C894 C893 1.379 . S
H895 C889 0.959 . S
H896 C889 0.961 . S
H897 C889 0.960 . S
H898 C890 0.930 . S
H899 C891 0.929 . S
H900 C908 0.929 1_545 S
H901 C910 0.930 . S
H902 C912 0.930 . S
H903 C915 0.929 . S
H904 C918 0.930 . S
H905 C920 0.960 . S
H906 C920 0.960 . S
H907 C920 0.960 . S
C908 H900 0.929 1_565 S
C908 C909 1.377 . S
C908 C910 1.384 . S
C909 C908 1.377 . S
C909 C915 1.390 . S
C910 H901 0.930 . S
C910 C908 1.384 . S
C910 C911 1.372 . S
C911 C910 1.372 . S
C911 C912 1.400 . S
C911 C916 1.490 . S
C912 H902 0.930 . S
C912 C911 1.400 . S
C912 C915 1.386 . S
H913 C929 0.930 . S
H914 C930 0.931 . S
C915 H903 0.929 . S
C915 C909 1.390 . S
C915 C912 1.386 . S
C916 C911 1.490 . S
C916 C918 1.395 . S
C916 C919 1.403 . S
H917 C923 0.930 . S
C918 H904 0.930 . S
C918 C916 1.395 . S
C918 C921 1.403 . S
C919 C916 1.403 . S
C919 C920 1.524 . S
C919 C923 1.400 . S
C920 H905 0.960 . S
C920 H906 0.960 . S
C920 H907 0.960 . S
C920 C919 1.524 . S
C921 C918 1.403 . S
C921 C922 1.392 . S
C921 C925 1.495 . S
C922 C921 1.392 . S
C922 C923 1.385 . S
C922 C924 1.478 . S
C923 H917 0.930 . S
C923 C919 1.400 . S
C923 C922 1.385 . S
C924 C922 1.478 . S
C924 C926 1.381 . S
C924 C930 1.383 . S
C925 C921 1.495 . S
C925 H931 0.959 . S
C925 H932 0.961 . S
C925 H933 0.960 . S
C926 C924 1.381 . S
C926 C927 1.394 . S
C926 H934 0.930 . S
C927 C926 1.394 . S
C927 C928 1.383 . S
C927 H935 0.929 . S
C928 C927 1.383 . S
C928 C929 1.377 . S
C929 H913 0.930 . S
C929 C928 1.377 . S
C929 C930 1.379 . S
C930 H914 0.931 . S
C930 C924 1.383 . S
C930 C929 1.379 . S
H931 C925 0.959 . S
H932 C925 0.961 . S
H933 C925 0.960 . S
H934 C926 0.930 . S
H935 C927 0.929 . S
H936 C944 0.929 . S
H937 C946 0.930 . S
H938 C948 0.930 . S
H939 C951 0.929 . S
H940 C954 0.930 . S
H941 C956 0.960 . S
H942 C956 0.960 . S
H943 C956 0.960 . S
C944 H936 0.929 . S
C944 C945 1.377 . S
C944 C946 1.384 . S
C945 C944 1.377 . S
C945 C951 1.390 . S
C946 H937 0.930 . S
C946 C944 1.384 . S
C946 C947 1.372 . S
C947 C946 1.372 . S
C947 C948 1.400 . S
C947 C952 1.490 . S
C948 H938 0.930 . S
C948 C947 1.400 . S
C948 C951 1.386 . S
H949 C965 0.930 . S
H950 C966 0.931 . S
C951 H939 0.929 . S
C951 C945 1.390 . S
C951 C948 1.386 . S
C952 C947 1.490 . S
C952 C954 1.395 . S
C952 C955 1.403 . S
H953 C959 0.930 . S
C954 H940 0.930 . S
C954 C952 1.395 . S
C954 C957 1.403 . S
C955 C952 1.403 . S
C955 C956 1.524 . S
C955 C959 1.400 . S
C956 H941 0.960 . S
C956 H942 0.960 . S
C956 H943 0.960 . S
C956 C955 1.524 . S
C957 C954 1.403 . S
C957 C958 1.392 . S
C957 C961 1.495 . S
C958 C957 1.392 . S
C958 C959 1.385 . S
C958 C960 1.478 . S
C959 H953 0.930 . S
C959 C955 1.400 . S
C959 C958 1.385 . S
C960 C958 1.478 . S
C960 C962 1.381 . S
C960 C966 1.383 . S
C961 C957 1.495 . S
C961 H967 0.959 . S
C961 H968 0.961 . S
C961 H969 0.960 . S
C962 C960 1.381 . S
C962 C963 1.394 . S
C962 H970 0.930 . S
C963 C962 1.394 . S
C963 C964 1.383 . S
C963 H971 0.929 . S
C964 C963 1.383 . S
C964 C965 1.377 . S
C965 H949 0.930 . S
C965 C964 1.377 . S
C965 C966 1.379 . S
C966 H950 0.931 . S
C966 C960 1.383 . S
C966 C965 1.379 . S
H967 C961 0.959 . S
H968 C961 0.961 . S
H969 C961 0.960 . S
H970 C962 0.930 . S
H971 C963 0.929 . S
H972 C980 0.929 . S
H973 C982 0.930 . S
H974 C984 0.930 . S
H975 C987 0.929 . S
H976 C990 0.930 . S
H977 C992 0.960 . S
H978 C992 0.960 . S
H979 C992 0.960 . S
C980 H972 0.929 . S
C980 C981 1.377 . S
C980 C982 1.384 . S
C981 C980 1.377 . S
C981 C987 1.390 . S
C982 H973 0.930 . S
C982 C980 1.384 . S
C982 C983 1.372 . S
C983 C982 1.372 . S
C983 C984 1.400 . S
C983 C988 1.490 . S
C984 H974 0.930 . S
C984 C983 1.400 . S
C984 C987 1.386 . S
H985 C1001 0.930 . S
H986 C1002 0.931 . S
C987 H975 0.929 . S
C987 C981 1.390 . S
C987 C984 1.386 . S
C988 C983 1.490 . S
C988 C990 1.395 . S
C988 C991 1.403 . S
H989 C995 0.930 . S
C990 H976 0.930 . S
C990 C988 1.395 . S
C990 C993 1.403 . S
C991 C988 1.403 . S
C991 C992 1.524 . S
C991 C995 1.400 . S
C992 H977 0.960 . S
C992 H978 0.960 . S
C992 H979 0.960 . S
C992 C991 1.524 . S
C993 C990 1.403 . S
C993 C994 1.392 . S
C993 C997 1.495 . S
C994 C993 1.392 . S
C994 C995 1.385 . S
C994 C996 1.478 . S
C995 H989 0.930 . S
C995 C991 1.400 . S
C995 C994 1.385 . S
C996 C994 1.478 . S
C996 C998 1.381 . S
C996 C1002 1.383 . S
C997 C993 1.495 . S
C997 H1003 0.959 . S
C997 H1004 0.961 . S
C997 H1005 0.960 . S
C998 C996 1.381 . S
C998 C999 1.394 . S
C998 H1006 0.930 . S
C999 C998 1.394 . S
C999 C1000 1.383 . S
C999 H1007 0.929 . S
C1000 C999 1.383 . S
C1000 C1001 1.377 . S
C1001 H985 0.930 . S
C1001 C1000 1.377 . S
C1001 C1002 1.379 . S
C1002 H986 0.931 . S
C1002 C996 1.383 . S
C1002 C1001 1.379 . S
H1003 C997 0.959 . S
H1004 C997 0.961 . S
H1005 C997 0.960 . S
H1006 C998 0.930 . S
H1007 C999 0.929 . S
H1008 C1016 0.929 . S
H1009 C1018 0.930 . S
H1010 C1020 0.930 . S
H1011 C1023 0.929 . S
H1012 C1026 0.930 . S
H1013 C1028 0.960 . S
H1014 C1028 0.960 . S
H1015 C1028 0.960 . S
C1016 H1008 0.929 . S
C1016 C1017 1.377 . S
C1016 C1018 1.384 . S
C1017 C1016 1.377 . S
C1017 C1023 1.390 . S
C1018 H1009 0.930 . S
C1018 C1016 1.384 . S
C1018 C1019 1.372 . S
C1019 C1018 1.372 . S
C1019 C1020 1.400 . S
C1019 C1024 1.490 . S
C1020 H1010 0.930 . S
C1020 C1019 1.400 . S
C1020 C1023 1.386 . S
H1021 C1037 0.930 . S
H1022 C1038 0.931 . S
C1023 H1011 0.929 . S
C1023 C1017 1.390 . S
C1023 C1020 1.386 . S
C1024 C1019 1.490 . S
C1024 C1026 1.395 . S
C1024 C1027 1.403 . S
H1025 C1031 0.930 . S
C1026 H1012 0.930 . S
C1026 C1024 1.395 . S
C1026 C1029 1.403 . S
C1027 C1024 1.403 . S
C1027 C1028 1.524 . S
C1027 C1031 1.400 . S
C1028 H1013 0.960 . S
C1028 H1014 0.960 . S
C1028 H1015 0.960 . S
C1028 C1027 1.524 . S
C1029 C1026 1.403 . S
C1029 C1030 1.392 . S
C1029 C1033 1.495 . S
C1030 C1029 1.392 . S
C1030 C1031 1.385 . S
C1030 C1032 1.478 . S
C1031 H1025 0.930 . S
C1031 C1027 1.400 . S
C1031 C1030 1.385 . S
C1032 C1030 1.478 . S
C1032 C1034 1.381 . S
C1032 C1038 1.383 . S
C1033 C1029 1.495 . S
C1033 H1039 0.959 . S
C1033 H1040 0.961 . S
C1033 H1041 0.960 . S
C1034 C1032 1.381 . S
C1034 C1035 1.394 . S
C1034 H1042 0.930 . S
C1035 C1034 1.394 . S
C1035 C1036 1.383 . S
C1035 H1043 0.929 . S
C1036 C1035 1.383 . S
C1036 C1037 1.377 . S
C1037 H1021 0.930 . S
C1037 C1036 1.377 . S
C1037 C1038 1.379 . S
C1038 H1022 0.931 . S
C1038 C1032 1.383 . S
C1038 C1037 1.379 . S
H1039 C1033 0.959 . S
H1040 C1033 0.961 . S
H1041 C1033 0.960 . S
H1042 C1034 0.930 . S
H1043 C1035 0.929 . S
H1044 C1052 0.929 . S
H1045 C1054 0.930 . S
H1046 C1056 0.930 . S
H1047 C1059 0.929 . S
H1048 C1062 0.930 . S
H1049 C1064 0.960 . S
H1050 C1064 0.960 . S
H1051 C1064 0.960 . S
C1052 H1044 0.929 . S
C1052 C1053 1.377 . S
C1052 C1054 1.384 . S
C1053 C1052 1.377 . S
C1053 C1059 1.390 . S
C1054 H1045 0.930 . S
C1054 C1052 1.384 . S
C1054 C1055 1.372 . S
C1055 C1054 1.372 . S
C1055 C1056 1.400 . S
C1055 C1060 1.490 . S
C1056 H1046 0.930 . S
C1056 C1055 1.400 . S
C1056 C1059 1.386 . S
H1057 C1073 0.930 . S
H1058 C1074 0.931 . S
C1059 H1047 0.929 . S
C1059 C1053 1.390 . S
C1059 C1056 1.386 . S
C1060 C1055 1.490 . S
C1060 C1062 1.395 . S
C1060 C1063 1.403 . S
H1061 C1067 0.930 . S
C1062 H1048 0.930 . S
C1062 C1060 1.395 . S
C1062 C1065 1.403 . S
C1063 C1060 1.403 . S
C1063 C1064 1.524 . S
C1063 C1067 1.400 . S
C1064 H1049 0.960 . S
C1064 H1050 0.960 . S
C1064 H1051 0.960 . S
C1064 C1063 1.524 . S
C1065 C1062 1.403 . S
C1065 C1066 1.392 . S
C1065 C1069 1.495 . S
C1066 C1065 1.392 . S
C1066 C1067 1.385 . S
C1066 C1068 1.478 . S
C1067 H1061 0.930 . S
C1067 C1063 1.400 . S
C1067 C1066 1.385 . S
C1068 C1066 1.478 . S
C1068 C1070 1.381 . S
C1068 C1074 1.383 . S
C1069 C1065 1.495 . S
C1069 H1075 0.959 . S
C1069 H1076 0.961 . S
C1069 H1077 0.960 . S
C1070 C1068 1.381 . S
C1070 C1071 1.394 . S
C1070 H1078 0.930 . S
C1071 C1070 1.394 . S
C1071 C1072 1.383 . S
C1071 H1079 0.929 . S
C1072 C1071 1.383 . S
C1072 C1073 1.377 . S
C1073 H1057 0.930 . S
C1073 C1072 1.377 . S
C1073 C1074 1.379 . S
C1074 H1058 0.931 . S
C1074 C1068 1.383 . S
C1074 C1073 1.379 . S
H1075 C1069 0.959 . S
H1076 C1069 0.961 . S
H1077 C1069 0.960 . S
H1078 C1070 0.930 . S
H1079 C1071 0.929 . S
H1080 C1088 0.929 . S
H1081 C1090 0.930 1_556 S
H1082 C1092 0.930 . S
H1083 C1095 0.929 . S
H1084 C1098 0.930 . S
H1085 C1100 0.960 . S
H1086 C1100 0.960 . S
H1087 C1100 0.960 1_554 S
C1088 H1080 0.929 . S
C1088 C1089 1.377 . S
C1088 C1090 1.384 . S
C1089 C1088 1.377 . S
C1089 C1095 1.390 . S
C1090 H1081 0.930 1_554 S
C1090 C1088 1.384 . S
C1090 C1091 1.372 . S
C1091 C1090 1.372 . S
C1091 C1092 1.400 . S
C1091 C1096 1.490 . S
C1092 H1082 0.930 . S
C1092 C1091 1.400 . S
C1092 C1095 1.386 . S
H1093 C1109 0.930 . S
H1094 C1110 0.924 1_554 S
C1095 H1083 0.929 . S
C1095 C1089 1.390 . S
C1095 C1092 1.386 . S
C1096 C1091 1.490 . S
C1096 C1098 1.395 . S
C1096 C1099 1.403 1_554 S
H1097 C1103 0.930 . S
C1098 H1084 0.930 . S
C1098 C1096 1.395 . S
C1098 C1101 1.393 1_554 S
C1099 C1096 1.403 1_556 S
C1099 C1100 1.524 . S
C1099 C1103 1.400 . S
C1100 H1085 0.960 . S
C1100 H1086 0.960 . S
C1100 H1087 0.960 1_556 S
C1100 C1099 1.524 . S
C1101 C1098 1.393 1_556 S
C1101 C1102 1.406 . S
C1101 C1105 1.485 1_556 S
C1102 C1101 1.406 . S
C1102 C1103 1.385 . S
C1102 C1104 1.478 . S
C1103 H1097 0.930 . S
C1103 C1099 1.400 . S
C1103 C1102 1.385 . S
C1104 C1102 1.478 . S
C1104 C1106 1.381 . S
C1104 C1110 1.383 . S
C1105 C1101 1.485 1_554 S
C1105 H1111 1.025 . S
C1105 H1112 1.033 . S
C1105 H1113 0.850 1_554 S
C1106 C1104 1.381 . S
C1106 C1107 1.394 . S
C1106 H1114 0.930 . S
C1107 C1106 1.394 . S
C1107 C1108 1.383 . S
C1107 H1115 0.929 . S
C1108 C1107 1.383 . S
C1108 C1109 1.377 . S
C1109 H1093 0.930 . S
C1109 C1108 1.377 . S
C1109 C1110 1.379 . S
C1110 H1094 0.924 1_556 S
C1110 C1104 1.383 . S
C1110 C1109 1.379 . S
H1111 C1105 1.025 . S
H1112 C1105 1.033 . S
H1113 C1105 0.850 1_556 S
H1114 C1106 0.930 . S
H1115 C1107 0.929 . S
H1116 C1124 0.929 . S
H1117 C1126 0.930 . S
H1118 C1128 0.930 . S
H1119 C1131 0.929 1_545 S
H1120 C1134 0.930 . S
H1121 C1136 0.960 . S
H1122 C1136 0.960 . S
H1123 C1136 0.960 . S
C1124 H1116 0.929 . S
C1124 C1125 1.377 . S
C1124 C1126 1.384 . S
C1125 C1124 1.377 . S
C1125 C1131 1.390 . S
C1126 H1117 0.930 . S
C1126 C1124 1.384 . S
C1126 C1127 1.372 . S
C1127 C1126 1.372 . S
C1127 C1128 1.400 . S
C1127 C1132 1.490 . S
C1128 H1118 0.930 . S
C1128 C1127 1.400 . S
C1128 C1131 1.386 . S
H1129 C1145 0.930 . S
H1130 C1146 0.931 . S
C1131 H1119 0.929 1_565 S
C1131 C1125 1.390 . S
C1131 C1128 1.386 . S
C1132 C1127 1.490 . S
C1132 C1134 1.395 . S
C1132 C1135 1.403 . S
H1133 C1139 0.930 . S
C1134 H1120 0.930 . S
C1134 C1132 1.395 . S
C1134 C1137 1.403 . S
C1135 C1132 1.403 . S
C1135 C1136 1.524 . S
C1135 C1139 1.400 . S
C1136 H1121 0.960 . S
C1136 H1122 0.960 . S
C1136 H1123 0.960 . S
C1136 C1135 1.524 . S
C1137 C1134 1.403 . S
C1137 C1138 1.392 . S
C1137 C1141 1.495 . S
C1138 C1137 1.392 . S
C1138 C1139 1.385 . S
C1138 C1140 1.478 . S
C1139 H1133 0.930 . S
C1139 C1135 1.400 . S
C1139 C1138 1.385 . S
C1140 C1138 1.478 . S
C1140 C1142 1.381 . S
C1140 C1146 1.383 . S
C1141 C1137 1.495 . S
C1141 H1147 0.959 . S
C1141 H1148 0.961 . S
C1141 H1149 0.960 . S
C1142 C1140 1.381 . S
C1142 C1143 1.394 . S
C1142 H1150 0.930 . S
C1143 C1142 1.394 . S
C1143 C1144 1.383 . S
C1143 H1151 0.929 . S
C1144 C1143 1.383 . S
C1144 C1145 1.377 . S
C1145 H1129 0.930 . S
C1145 C1144 1.377 . S
C1145 C1146 1.379 . S
C1146 H1130 0.931 . S
C1146 C1140 1.383 . S
C1146 C1145 1.379 . S
H1147 C1141 0.959 . S
H1148 C1141 0.961 . S
H1149 C1141 0.960 . S
H1150 C1142 0.930 . S
H1151 C1143 0.929 . S
H1152 C1160 0.929 . S
H1153 C1162 0.930 . S
H1154 C1164 0.930 . S
H1155 C1167 0.929 . S
H1156 C1170 0.930 . S
H1157 C1172 0.960 . S
H1158 C1172 0.960 . S
H1159 C1172 0.960 . S
C1160 H1152 0.929 . S
C1160 C1161 1.377 . S
C1160 C1162 1.384 . S
C1161 C1160 1.377 . S
C1161 C1167 1.390 . S
C1162 H1153 0.930 . S
C1162 C1160 1.384 . S
C1162 C1163 1.372 . S
C1163 C1162 1.372 . S
C1163 C1164 1.400 . S
C1163 C1168 1.490 . S
C1164 H1154 0.930 . S
C1164 C1163 1.400 . S
C1164 C1167 1.386 . S
H1165 C1181 0.930 . S
H1166 C1182 0.931 . S
C1167 H1155 0.929 . S
C1167 C1161 1.390 . S
C1167 C1164 1.386 . S
C1168 C1163 1.490 . S
C1168 C1170 1.395 . S
C1168 C1171 1.403 . S
H1169 C1175 0.930 . S
C1170 H1156 0.930 . S
C1170 C1168 1.395 . S
C1170 C1173 1.403 . S
C1171 C1168 1.403 . S
C1171 C1172 1.524 . S
C1171 C1175 1.400 . S
C1172 H1157 0.960 . S
C1172 H1158 0.960 . S
C1172 H1159 0.960 . S
C1172 C1171 1.524 . S
C1173 C1170 1.403 . S
C1173 C1174 1.392 . S
C1173 C1177 1.495 . S
C1174 C1173 1.392 . S
C1174 C1175 1.385 . S
C1174 C1176 1.478 . S
C1175 H1169 0.930 . S
C1175 C1171 1.400 . S
C1175 C1174 1.385 . S
C1176 C1174 1.478 . S
C1176 C1178 1.381 . S
C1176 C1182 1.383 . S
C1177 C1173 1.495 . S
C1177 H1183 0.959 . S
C1177 H1184 0.961 . S
C1177 H1185 0.960 . S
C1178 C1176 1.381 . S
C1178 C1179 1.394 . S
C1178 H1186 0.930 . S
C1179 C1178 1.394 . S
C1179 C1180 1.383 . S
C1179 H1187 0.929 . S
C1180 C1179 1.383 . S
C1180 C1181 1.377 . S
C1181 H1165 0.930 . S
C1181 C1180 1.377 . S
C1181 C1182 1.379 . S
C1182 H1166 0.931 . S
C1182 C1176 1.383 . S
C1182 C1181 1.379 . S
H1183 C1177 0.959 . S
H1184 C1177 0.961 . S
H1185 C1177 0.960 . S
H1186 C1178 0.930 . S
H1187 C1179 0.929 . S
H1188 C1196 0.929 . S
H1189 C1198 0.930 . S
H1190 C1200 0.930 . S
H1191 C1203 0.929 . S
H1192 C1206 0.930 . S
H1193 C1208 0.960 . S
H1194 C1208 0.960 . S
H1195 C1208 0.960 . S
C1196 H1188 0.929 . S
C1196 C1197 1.377 . S
C1196 C1198 1.384 . S
C1197 C1196 1.377 . S
C1197 C1203 1.390 . S
C1198 H1189 0.930 . S
C1198 C1196 1.384 . S
C1198 C1199 1.372 . S
C1199 C1198 1.372 . S
C1199 C1200 1.400 . S
C1199 C1204 1.490 . S
C1200 H1190 0.930 . S
C1200 C1199 1.400 . S
C1200 C1203 1.386 . S
H1201 C1217 0.930 . S
H1202 C1218 0.931 . S
C1203 H1191 0.929 . S
C1203 C1197 1.390 . S
C1203 C1200 1.386 . S
C1204 C1199 1.490 . S
C1204 C1206 1.395 . S
C1204 C1207 1.403 . S
H1205 C1211 0.930 . S
C1206 H1192 0.930 . S
C1206 C1204 1.395 . S
C1206 C1209 1.403 . S
C1207 C1204 1.403 . S
C1207 C1208 1.524 . S
C1207 C1211 1.400 . S
C1208 H1193 0.960 . S
C1208 H1194 0.960 . S
C1208 H1195 0.960 . S
C1208 C1207 1.524 . S
C1209 C1206 1.403 . S
C1209 C1210 1.392 . S
C1209 C1213 1.495 . S
C1210 C1209 1.392 . S
C1210 C1211 1.385 . S
C1210 C1212 1.478 . S
C1211 H1205 0.930 . S
C1211 C1207 1.400 . S
C1211 C1210 1.385 . S
C1212 C1210 1.478 . S
C1212 C1214 1.381 . S
C1212 C1218 1.383 . S
C1213 C1209 1.495 . S
C1213 H1219 0.959 . S
C1213 H1220 0.961 . S
C1213 H1221 0.960 . S
C1214 C1212 1.381 . S
C1214 C1215 1.394 . S
C1214 H1222 0.930 . S
C1215 C1214 1.394 . S
C1215 C1216 1.383 . S
C1215 H1223 0.929 . S
C1216 C1215 1.383 . S
C1216 C1217 1.377 . S
C1217 H1201 0.930 . S
C1217 C1216 1.377 . S
C1217 C1218 1.379 . S
C1218 H1202 0.931 . S
C1218 C1212 1.383 . S
C1218 C1217 1.379 . S
H1219 C1213 0.959 . S
H1220 C1213 0.961 . S
H1221 C1213 0.960 . S
H1222 C1214 0.930 . S
H1223 C1215 0.929 . S
H1224 C1232 0.931 . S
H1225 C1234 0.930 . S
H1226 C1236 0.930 . S
H1227 C1239 0.929 . S
H1228 C1242 0.930 . S
H1229 C1244 0.960 . S
H1230 C1244 0.960 . S
H1231 C1244 0.960 . S
C1232 H1224 0.931 . S
C1232 C1233 1.377 . S
C1232 C1234 1.384 . S
C1233 C1232 1.377 . S
C1233 C1239 1.390 . S
C1234 H1225 0.930 . S
C1234 C1232 1.384 . S
C1234 C1235 1.372 . S
C1235 C1234 1.372 . S
C1235 C1236 1.400 . S
C1235 C1240 1.490 . S
C1236 H1226 0.930 . S
C1236 C1235 1.400 . S
C1236 C1239 1.386 . S
H1237 C1253 0.930 . S
H1238 C1254 0.931 . S
C1239 H1227 0.929 . S
C1239 C1233 1.390 . S
C1239 C1236 1.386 . S
C1240 C1235 1.490 . S
C1240 C1242 1.395 . S
C1240 C1243 1.403 . S
H1241 C1247 0.930 . S
C1242 H1228 0.930 . S
C1242 C1240 1.395 . S
C1242 C1245 1.403 . S
C1243 C1240 1.403 . S
C1243 C1244 1.524 . S
C1243 C1247 1.400 . S
C1244 H1229 0.960 . S
C1244 H1230 0.960 . S
C1244 H1231 0.960 . S
C1244 C1243 1.524 . S
C1245 C1242 1.403 . S
C1245 C1246 1.392 . S
C1245 C1249 1.495 . S
C1246 C1245 1.392 . S
C1246 C1247 1.385 . S
C1246 C1248 1.478 . S
C1247 H1241 0.930 . S
C1247 C1243 1.400 . S
C1247 C1246 1.385 . S
C1248 C1246 1.478 . S
C1248 C1250 1.381 . S
C1248 C1254 1.383 . S
C1249 C1245 1.495 . S
C1249 H1255 0.959 . S
C1249 H1256 0.961 . S
C1249 H1257 0.960 . S
C1250 C1248 1.381 . S
C1250 C1251 1.394 . S
C1250 H1258 0.930 . S
C1251 C1250 1.394 . S
C1251 C1252 1.383 . S
C1251 H1259 0.929 . S
C1252 C1251 1.383 . S
C1252 C1253 1.377 . S
C1253 H1237 0.930 . S
C1253 C1252 1.377 . S
C1253 C1254 1.379 . S
C1254 H1238 0.931 . S
C1254 C1248 1.383 . S
C1254 C1253 1.379 . S
H1255 C1249 0.959 . S
H1256 C1249 0.961 . S
H1257 C1249 0.960 . S
H1258 C1250 0.930 . S
H1259 C1251 0.929 . S
H1260 C1268 0.929 . S
H1261 C1270 0.930 . S
H1262 C1272 0.932 1_455 S
H1263 C1275 0.929 . S
H1264 C1278 0.930 . S
H1265 C1280 0.960 . S
H1266 C1280 0.960 . S
H1267 C1280 0.960 . S
C1268 H1260 0.929 . S
C1268 C1269 1.377 . S
C1268 C1270 1.384 . S
C1269 C1268 1.377 . S
C1269 C1275 1.390 1_655 S
C1270 H1261 0.930 . S
C1270 C1268 1.384 . S
C1270 C1271 1.372 . S
C1271 C1270 1.372 . S
C1271 C1272 1.398 . S
C1271 C1276 1.490 . S
C1272 H1262 0.932 1_655 S
C1272 C1271 1.398 . S
C1272 C1275 1.385 1_655 S
H1273 C1289 0.930 . S
H1274 C1290 0.931 . S
C1275 H1263 0.929 . S
C1275 C1269 1.390 1_455 S
C1275 C1272 1.385 1_455 S
C1276 C1271 1.490 . S
C1276 C1278 1.395 . S
C1276 C1279 1.403 . S
H1277 C1283 0.930 . S
C1278 H1264 0.930 . S
C1278 C1276 1.395 . S
C1278 C1281 1.403 . S
C1279 C1276 1.403 . S
C1279 C1280 1.524 . S
C1279 C1283 1.400 . S
C1280 H1265 0.960 . S
C1280 H1266 0.960 . S
C1280 H1267 0.960 . S
C1280 C1279 1.524 . S
C1281 C1278 1.403 . S
C1281 C1282 1.392 . S
C1281 C1285 1.495 . S
C1282 C1281 1.392 . S
C1282 C1283 1.385 . S
C1282 C1284 1.478 . S
C1283 H1277 0.930 . S
C1283 C1279 1.400 . S
C1283 C1282 1.385 . S
C1284 C1282 1.478 . S
C1284 C1286 1.381 . S
C1284 C1290 1.383 1_655 S
C1285 C1281 1.495 . S
C1285 H1291 0.959 . S
C1285 H1292 0.961 1_655 S
C1285 H1293 0.960 . S
C1286 C1284 1.381 . S
C1286 C1287 1.394 . S
C1286 H1294 0.930 . S
C1287 C1286 1.394 . S
C1287 C1288 1.383 . S
C1287 H1295 0.929 . S
C1288 C1287 1.383 . S
C1288 C1289 1.377 1_655 S
C1289 H1273 0.930 . S
C1289 C1288 1.377 1_455 S
C1289 C1290 1.379 . S
C1290 H1274 0.931 . S
C1290 C1284 1.383 1_455 S
C1290 C1289 1.379 . S
H1291 C1285 0.959 . S
H1292 C1285 0.961 1_455 S
H1293 C1285 0.960 . S
H1294 C1286 0.930 . S
H1295 C1287 0.929 . S
H1296 C1304 0.929 . S
H1297 C1306 0.930 . S
H1298 C1308 0.930 . S
H1299 C1311 0.929 . S
H1300 C1314 0.930 . S
H1301 C1316 0.960 . S
H1302 C1316 0.960 . S
H1303 C1316 0.960 . S
C1304 H1296 0.929 . S
C1304 C1305 1.377 . S
C1304 C1306 1.384 . S
C1305 C1304 1.377 . S
C1305 C1311 1.390 1_565 S
C1306 H1297 0.930 . S
C1306 C1304 1.384 . S
C1306 C1307 1.372 . S
C1307 C1306 1.372 . S
C1307 C1308 1.400 1_565 S
C1307 C1312 1.490 . S
C1308 H1298 0.930 . S
C1308 C1307 1.400 1_545 S
C1308 C1311 1.386 . S
H1309 C1325 0.930 . S
H1310 C1326 0.931 . S
C1311 H1299 0.929 . S
C1311 C1305 1.390 1_545 S
C1311 C1308 1.386 . S
C1312 C1307 1.490 . S
C1312 C1314 1.395 . S
C1312 C1315 1.403 . S
H1313 C1319 0.930 1_545 S
C1314 H1300 0.930 . S
C1314 C1312 1.395 . S
C1314 C1317 1.403 . S
C1315 C1312 1.403 . S
C1315 C1316 1.524 1_565 S
C1315 C1319 1.400 . S
C1316 H1301 0.960 . S
C1316 H1302 0.960 . S
C1316 H1303 0.960 . S
C1316 C1315 1.524 1_545 S
C1317 C1314 1.403 . S
C1317 C1318 1.392 . S
C1317 C1321 1.495 . S
C1318 C1317 1.392 . S
C1318 C1319 1.385 . S
C1318 C1320 1.478 . S
C1319 H1313 0.930 1_565 S
C1319 C1315 1.400 . S
C1319 C1318 1.385 . S
C1320 C1318 1.478 . S
C1320 C1322 1.381 . S
C1320 C1326 1.383 1_565 S
C1321 C1317 1.495 . S
C1321 H1327 0.959 . S
C1321 H1328 0.961 . S
C1321 H1329 0.960 . S
C1322 C1320 1.381 . S
C1322 C1323 1.394 . S
C1322 H1330 0.930 . S
C1323 C1322 1.394 . S
C1323 C1324 1.383 . S
C1323 H1331 0.929 . S
C1324 C1323 1.383 . S
C1324 C1325 1.377 1_565 S
C1325 H1309 0.930 . S
C1325 C1324 1.377 1_545 S
C1325 C1326 1.379 . S
C1326 H1310 0.931 . S
C1326 C1320 1.383 1_545 S
C1326 C1325 1.379 . S
H1327 C1321 0.959 . S
H1328 C1321 0.961 . S
H1329 C1321 0.960 . S
H1330 C1322 0.930 . S
H1331 C1323 0.929 . S
H1332 C1340 0.929 . S
H1333 C1342 0.930 . S
H1334 C1344 0.930 . S
H1335 C1347 0.929 . S
H1336 C1350 0.930 . S
H1337 C1352 0.960 . S
H1338 C1352 0.960 . S
H1339 C1352 0.960 . S
C1340 H1332 0.929 . S
C1340 C1341 1.377 . S
C1340 C1342 1.384 . S
C1341 C1340 1.377 . S
C1341 C1347 1.390 . S
C1342 H1333 0.930 . S
C1342 C1340 1.384 . S
C1342 C1343 1.372 . S
C1343 C1342 1.372 . S
C1343 C1344 1.400 . S
C1343 C1348 1.490 . S
C1344 H1334 0.930 . S
C1344 C1343 1.400 . S
C1344 C1347 1.386 . S
H1345 C1361 0.930 . S
H1346 C1362 0.931 . S
C1347 H1335 0.929 . S
C1347 C1341 1.390 . S
C1347 C1344 1.386 . S
C1348 C1343 1.490 . S
C1348 C1350 1.395 . S
C1348 C1351 1.403 . S
H1349 C1355 0.930 . S
C1350 H1336 0.930 . S
C1350 C1348 1.395 . S
C1350 C1353 1.403 . S
C1351 C1348 1.403 . S
C1351 C1352 1.524 . S
C1351 C1355 1.400 . S
C1352 H1337 0.960 . S
C1352 H1338 0.960 . S
C1352 H1339 0.960 . S
C1352 C1351 1.524 . S
C1353 C1350 1.403 . S
C1353 C1354 1.392 . S
C1353 C1357 1.495 . S
C1354 C1353 1.392 . S
C1354 C1355 1.385 . S
C1354 C1356 1.478 . S
C1355 H1349 0.930 . S
C1355 C1351 1.400 . S
C1355 C1354 1.385 . S
C1356 C1354 1.478 . S
C1356 C1358 1.381 . S
C1356 C1362 1.383 . S
C1357 C1353 1.495 . S
C1357 H1363 0.959 . S
C1357 H1364 0.961 . S
C1357 H1365 0.960 . S
C1358 C1356 1.381 . S
C1358 C1359 1.394 . S
C1358 H1366 0.930 . S
C1359 C1358 1.394 . S
C1359 C1360 1.383 . S
C1359 H1367 0.929 . S
C1360 C1359 1.383 . S
C1360 C1361 1.377 . S
C1361 H1345 0.930 . S
C1361 C1360 1.377 . S
C1361 C1362 1.379 . S
C1362 H1346 0.931 . S
C1362 C1356 1.383 . S
C1362 C1361 1.379 . S
H1363 C1357 0.959 . S
H1364 C1357 0.961 . S
H1365 C1357 0.960 . S
H1366 C1358 0.930 . S
H1367 C1359 0.929 . S
H1368 C1376 0.929 . S
H1369 C1378 0.930 . S
H1370 C1380 0.930 . S
H1371 C1383 0.929 . S
H1372 C1386 0.930 . S
H1373 C1388 0.960 . S
H1374 C1388 0.960 . S
H1375 C1388 0.960 . S
C1376 H1368 0.929 . S
C1376 C1377 1.377 1_655 S
C1376 C1378 1.384 . S
C1377 C1376 1.377 1_455 S
C1377 C1383 1.390 . S
C1378 H1369 0.930 . S
C1378 C1376 1.384 . S
C1378 C1379 1.372 1_655 S
C1379 C1378 1.372 1_455 S
C1379 C1380 1.400 . S
C1379 C1384 1.490 . S
C1380 H1370 0.930 . S
C1380 C1379 1.400 . S
C1380 C1383 1.386 . S
H1381 C1397 0.930 . S
H1382 C1398 0.931 . S
C1383 H1371 0.929 . S
C1383 C1377 1.390 . S
C1383 C1380 1.386 . S
C1384 C1379 1.490 . S
C1384 C1386 1.395 1_455 S
C1384 C1387 1.403 . S
H1385 C1391 0.930 . S
C1386 H1372 0.930 . S
C1386 C1384 1.395 1_655 S
C1386 C1389 1.403 . S
C1387 C1384 1.403 . S
C1387 C1388 1.524 . S
C1387 C1391 1.400 . S
C1388 H1373 0.960 . S
C1388 H1374 0.960 . S
C1388 H1375 0.960 . S
C1388 C1387 1.524 . S
C1389 C1386 1.403 . S
C1389 C1390 1.392 1_655 S
C1389 C1393 1.495 . S
C1390 C1389 1.392 1_455 S
C1390 C1391 1.385 . S
C1390 C1392 1.478 . S
C1391 H1385 0.930 . S
C1391 C1387 1.400 . S
C1391 C1390 1.385 . S
C1392 C1390 1.478 . S
C1392 C1394 1.381 1_455 S
C1392 C1398 1.383 . S
C1393 C1389 1.495 . S
C1393 H1399 0.959 . S
C1393 H1400 0.961 . S
C1393 H1401 0.960 . S
C1394 C1392 1.381 1_655 S
C1394 C1395 1.394 . S
C1394 H1402 0.930 . S
C1395 C1394 1.394 . S
C1395 C1396 1.383 1_655 S
C1395 H1403 0.929 . S
C1396 C1395 1.383 1_455 S
C1396 C1397 1.377 . S
C1397 H1381 0.930 . S
C1397 C1396 1.377 . S
C1397 C1398 1.379 . S
C1398 H1382 0.931 . S
C1398 C1392 1.383 . S
C1398 C1397 1.379 . S
H1399 C1393 0.959 . S
H1400 C1393 0.961 . S
H1401 C1393 0.960 . S
H1402 C1394 0.930 . S
H1403 C1395 0.929 . S
H1404 C1412 0.929 . S
H1405 C1414 0.930 . S
H1406 C1416 0.930 . S
H1407 C1419 0.929 . S
H1408 C1422 0.930 . S
H1409 C1424 0.960 . S
H1410 C1424 0.960 . S
H1411 C1424 0.960 . S
C1412 H1404 0.929 . S
C1412 C1413 1.377 . S
C1412 C1414 1.384 . S
C1413 C1412 1.377 . S
C1413 C1419 1.390 1_545 S
C1414 H1405 0.930 . S
C1414 C1412 1.384 . S
C1414 C1415 1.372 . S
C1415 C1414 1.372 . S
C1415 C1416 1.400 1_545 S
C1415 C1420 1.490 . S
C1416 H1406 0.930 . S
C1416 C1415 1.400 1_565 S
C1416 C1419 1.386 . S
H1417 C1433 0.930 . S
H1418 C1434 0.931 . S
C1419 H1407 0.929 . S
C1419 C1413 1.390 1_565 S
C1419 C1416 1.386 . S
C1420 C1415 1.490 . S
C1420 C1422 1.395 . S
C1420 C1423 1.403 . S
H1421 C1427 0.930 . S
C1422 H1408 0.930 . S
C1422 C1420 1.395 . S
C1422 C1425 1.403 . S
C1423 C1420 1.403 . S
C1423 C1424 1.524 . S
C1423 C1427 1.400 . S
C1424 H1409 0.960 . S
C1424 H1410 0.960 . S
C1424 H1411 0.960 . S
C1424 C1423 1.524 . S
C1425 C1422 1.403 . S
C1425 C1426 1.392 . S
C1425 C1429 1.495 . S
C1426 C1425 1.392 . S
C1426 C1427 1.385 . S
C1426 C1428 1.478 . S
C1427 H1421 0.930 . S
C1427 C1423 1.400 . S
C1427 C1426 1.385 . S
C1428 C1426 1.478 . S
C1428 C1430 1.381 . S
C1428 C1434 1.383 1_545 S
C1429 C1425 1.495 . S
C1429 H1435 0.959 . S
C1429 H1436 0.961 . S
C1429 H1437 0.960 . S
C1430 C1428 1.381 . S
C1430 C1431 1.394 . S
C1430 H1438 0.930 . S
C1431 C1430 1.394 . S
C1431 C1432 1.383 . S
C1431 H1439 0.929 . S
C1432 C1431 1.383 . S
C1432 C1433 1.377 1_545 S
C1433 H1417 0.930 . S
C1433 C1432 1.377 1_565 S
C1433 C1434 1.379 . S
C1434 H1418 0.931 . S
C1434 C1428 1.383 1_565 S
C1434 C1433 1.379 . S
H1435 C1429 0.959 . S
H1436 C1429 0.961 . S
H1437 C1429 0.960 . S
H1438 C1430 0.930 . S
H1439 C1431 0.929 . S
H1440 C1448 0.929 . S
H1441 C1450 0.930 . S
H1442 C1452 0.930 . S
H1443 C1455 0.929 . S
H1444 C1458 0.930 . S
H1445 C1460 0.960 . S
H1446 C1460 0.960 . S
H1447 C1460 0.960 . S
C1448 H1440 0.929 . S
C1448 C1449 1.377 . S
C1448 C1450 1.384 . S
C1449 C1448 1.377 . S
C1449 C1455 1.390 . S
C1450 H1441 0.930 . S
C1450 C1448 1.384 . S
C1450 C1451 1.372 . S
C1451 C1450 1.372 . S
C1451 C1452 1.400 . S
C1451 C1456 1.490 . S
C1452 H1442 0.930 . S
C1452 C1451 1.400 . S
C1452 C1455 1.386 . S
H1453 C1469 0.930 . S
H1454 C1470 0.931 . S
C1455 H1443 0.929 . S
C1455 C1449 1.390 . S
C1455 C1452 1.386 . S
C1456 C1451 1.490 . S
C1456 C1458 1.395 . S
C1456 C1459 1.403 . S
H1457 C1463 0.930 . S
C1458 H1444 0.930 . S
C1458 C1456 1.395 . S
C1458 C1461 1.403 . S
C1459 C1456 1.403 . S
C1459 C1460 1.524 . S
C1459 C1463 1.400 . S
C1460 H1445 0.960 . S
C1460 H1446 0.960 . S
C1460 H1447 0.960 . S
C1460 C1459 1.524 . S
C1461 C1458 1.403 . S
C1461 C1462 1.392 . S
C1461 C1465 1.495 . S
C1462 C1461 1.392 . S
C1462 C1463 1.385 . S
C1462 C1464 1.478 . S
C1463 H1457 0.930 . S
C1463 C1459 1.400 . S
C1463 C1462 1.385 . S
C1464 C1462 1.478 . S
C1464 C1466 1.381 . S
C1464 C1470 1.383 . S
C1465 C1461 1.495 . S
C1465 H1471 0.959 . S
C1465 H1472 0.961 . S
C1465 H1473 0.960 . S
C1466 C1464 1.381 . S
C1466 C1467 1.394 . S
C1466 H1474 0.930 . S
C1467 C1466 1.394 . S
C1467 C1468 1.383 . S
C1467 H1475 0.929 . S
C1468 C1467 1.383 . S
C1468 C1469 1.377 . S
C1469 H1453 0.930 . S
C1469 C1468 1.377 . S
C1469 C1470 1.379 . S
C1470 H1454 0.931 . S
C1470 C1464 1.383 . S
C1470 C1469 1.379 . S
H1471 C1465 0.959 . S
H1472 C1465 0.961 . S
H1473 C1465 0.960 . S
H1474 C1466 0.930 . S
H1475 C1467 0.929 . S
C405 C239 1.202 . S
C424 C8 1.212 . S
C441 C272 1.201 . S
C460 C41 1.210 . S
C477 C74 1.205 . S
C496 C305 1.222 . S
C513 C338 1.208 . S
C532 C107 1.218 . S
C549 C140 1.208 . S
C568 C371 1.212 . S
C585 C206 1.204 . S
C604 C173 1.221 . S
C621 N14 2.017 . S
C640 N278 2.020 . S
C657 N47 2.013 . S
C676 N311 2.010 . S
C693 N344 2.015 . S
C712 N80 1.997 . S
C729 N377 2.012 . S
C748 N113 2.008 . S
C765 N146 2.012 . S
C784 N212 2.004 . S
C801 N245 2.017 . S
C820 N179 2.005 . S
C837 N236 1.129 . S
C856 C17 1.153 . S
C873 N269 1.123 . S
C892 C50 1.136 . S
C909 N302 1.129 . S
C928 C83 1.153 . S
C945 C116 1.148 . S
C964 N335 1.151 . S
C981 N368 1.126 . S
C1000 C149 1.156 . S
C1017 C182 1.146 . S
C1036 N203 1.125 . S
C1053 C215 1.149 . S
C1072 N170 1.097 . S
C1089 N5 1.123 . S
C1108 C248 1.136 . S
C1125 N38 1.119 . S
C1144 C281 1.140 . S
C1161 N71 1.121 . S
C1180 C314 1.154 . S
C1197 N104 1.122 . S
C1216 C347 1.137 . S
C1233 N137 1.128 . S
C1252 C380 1.154 . S
C1269 C292 1.249 . S
C1288 C28 1.236 . S
C1305 C61 1.247 . S
C1324 C325 1.247 . S
C1341 C358 1.249 . S
C1360 C94 1.232 . S
C1377 C127 1.247 . S
C1396 C391 1.239 . S
C1413 C160 1.249 . S
C1432 C226 1.239 . S
C1449 C259 1.250 . S
C1468 C193 1.231 . S
