# Generated by pormake.
# Topology usf, (4)-cn, num edge types: 1
# Building blocks:
#     Node 0, Type 0, BuildingBlock: KOZSID_clean_sbu_0, # of connection points: 4
#     Node 1, Type 0, BuildingBlock: KOZSID_clean_sbu_0, # of connection points: 4
#     Node 2, Type 0, BuildingBlock: KOZSID_clean_sbu_0, # of connection points: 4
#     Node 3, Type 0, BuildingBlock: KOZSID_clean_sbu_0, # of connection points: 4
#     Node 4, Type 0, BuildingBlock: KOZSID_clean_sbu_0, # of connection points: 4
#     Node 5, Type 0, BuildingBlock: KOZSID_clean_sbu_0, # of connection points: 4
#     Node 6, Type 0, BuildingBlock: KOZSID_clean_sbu_0, # of connection points: 4
#     Node 7, Type 0, BuildingBlock: KOZSID_clean_sbu_0, # of connection points: 4
#     Node 8, Type 0, BuildingBlock: KOZSID_clean_sbu_0, # of connection points: 4
#     Node 9, Type 0, BuildingBlock: KOZSID_clean_sbu_0, # of connection points: 4
#     Node 10, Type 0, BuildingBlock: KOZSID_clean_sbu_0, # of connection points: 4
#     Node 11, Type 0, BuildingBlock: KOZSID_clean_sbu_0, # of connection points: 4
#     Node 12, Type 0, BuildingBlock: KOZSID_clean_sbu_0, # of connection points: 4
#     Node 13, Type 0, BuildingBlock: KOZSID_clean_sbu_0, # of connection points: 4
#     Node 14, Type 0, BuildingBlock: KOZSID_clean_sbu_0, # of connection points: 4
#     Node 15, Type 0, BuildingBlock: KOZSID_clean_sbu_0, # of connection points: 4
#     Node 16, Type 0, BuildingBlock: KOZSID_clean_sbu_0, # of connection points: 4
#     Node 17, Type 0, BuildingBlock: KOZSID_clean_sbu_0, # of connection points: 4
#     Edge 18, Type (0, 0), BuildingBlock: ZUJKAS_clean_linker_0, # of connection points: 2
#     Edge 19, Type (0, 0), BuildingBlock: ZUJKAS_clean_linker_0, # of connection points: 2
#     Edge 20, Type (0, 0), BuildingBlock: ZUJKAS_clean_linker_0, # of connection points: 2
#     Edge 21, Type (0, 0), BuildingBlock: ZUJKAS_clean_linker_0, # of connection points: 2
#     Edge 22, Type (0, 0), BuildingBlock: ZUJKAS_clean_linker_0, # of connection points: 2
#     Edge 23, Type (0, 0), BuildingBlock: ZUJKAS_clean_linker_0, # of connection points: 2
#     Edge 24, Type (0, 0), BuildingBlock: ZUJKAS_clean_linker_0, # of connection points: 2
#     Edge 25, Type (0, 0), BuildingBlock: ZUJKAS_clean_linker_0, # of connection points: 2
#     Edge 26, Type (0, 0), BuildingBlock: ZUJKAS_clean_linker_0, # of connection points: 2
#     Edge 27, Type (0, 0), BuildingBlock: ZUJKAS_clean_linker_0, # of connection points: 2
#     Edge 28, Type (0, 0), BuildingBlock: ZUJKAS_clean_linker_0, # of connection points: 2
#     Edge 29, Type (0, 0), BuildingBlock: ZUJKAS_clean_linker_0, # of connection points: 2
#     Edge 30, Type (0, 0), BuildingBlock: ZUJKAS_clean_linker_0, # of connection points: 2
#     Edge 31, Type (0, 0), BuildingBlock: ZUJKAS_clean_linker_0, # of connection points: 2
#     Edge 32, Type (0, 0), BuildingBlock: ZUJKAS_clean_linker_0, # of connection points: 2
#     Edge 33, Type (0, 0), BuildingBlock: ZUJKAS_clean_linker_0, # of connection points: 2
#     Edge 34, Type (0, 0), BuildingBlock: ZUJKAS_clean_linker_0, # of connection points: 2
#     Edge 35, Type (0, 0), BuildingBlock: ZUJKAS_clean_linker_0, # of connection points: 2
#     Edge 36, Type (0, 0), BuildingBlock: ZUJKAS_clean_linker_0, # of connection points: 2
#     Edge 37, Type (0, 0), BuildingBlock: ZUJKAS_clean_linker_0, # of connection points: 2
#     Edge 38, Type (0, 0), BuildingBlock: ZUJKAS_clean_linker_0, # of connection points: 2
#     Edge 39, Type (0, 0), BuildingBlock: ZUJKAS_clean_linker_0, # of connection points: 2
#     Edge 40, Type (0, 0), BuildingBlock: ZUJKAS_clean_linker_0, # of connection points: 2
#     Edge 41, Type (0, 0), BuildingBlock: ZUJKAS_clean_linker_0, # of connection points: 2
#     Edge 42, Type (0, 0), BuildingBlock: ZUJKAS_clean_linker_0, # of connection points: 2
#     Edge 43, Type (0, 0), BuildingBlock: ZUJKAS_clean_linker_0, # of connection points: 2
#     Edge 44, Type (0, 0), BuildingBlock: ZUJKAS_clean_linker_0, # of connection points: 2
#     Edge 45, Type (0, 0), BuildingBlock: ZUJKAS_clean_linker_0, # of connection points: 2
#     Edge 46, Type (0, 0), BuildingBlock: ZUJKAS_clean_linker_0, # of connection points: 2
#     Edge 47, Type (0, 0), BuildingBlock: ZUJKAS_clean_linker_0, # of connection points: 2
#     Edge 48, Type (0, 0), BuildingBlock: ZUJKAS_clean_linker_0, # of connection points: 2
#     Edge 49, Type (0, 0), BuildingBlock: ZUJKAS_clean_linker_0, # of connection points: 2
#     Edge 50, Type (0, 0), BuildingBlock: ZUJKAS_clean_linker_0, # of connection points: 2
#     Edge 51, Type (0, 0), BuildingBlock: ZUJKAS_clean_linker_0, # of connection points: 2
#     Edge 52, Type (0, 0), BuildingBlock: ZUJKAS_clean_linker_0, # of connection points: 2
#     Edge 53, Type (0, 0), BuildingBlock: ZUJKAS_clean_linker_0, # of connection points: 2
# Relax obj value: 0.009
# Max RMSD: 0.041
# Mean RMSD: 0.021
data_MOF--net-usf--node1-KOZSID_clean_sbu_0--edge1-ZUJKAS_clean_linker_0
_symmetry_space_group_name_H-M    P1
_symmetry_Int_Tables_number       1
_symmetry_cell_setting            triclinic
loop_
_symmetry_equiv_pos_as_xyz
'x, y, z'
_cell_length_a     75.723232
_cell_length_b     75.922708
_cell_length_c     43.373268
_cell_angle_alpha  90.12845
_cell_angle_beta   89.619931
_cell_angle_gamma 116.96971
loop_
_atom_site_label
_atom_site_type_symbol
_atom_site_fract_x
_atom_site_fract_y
_atom_site_fract_z
_atom_type_partial_charge
C0 C 0.99723 0.48762 0.0807 0.0
C1 C 0.98192 0.47134 0.0946 0.0
C2 C 0.96973 0.46028 0.07157 0.0
C3 C 0.9781 0.4704 0.04497 0.0
N4 N 0.99504 0.48722 0.04947 0.0
Co5 Co 0.01098 0.50692 0.01676 0.0
N6 N 0.99227 0.49114 0.98306 0.0
C7 C 0.97569 0.47383 0.98663 0.0
C8 C 0.96632 0.46577 0.95951 0.0
C9 C 0.97767 0.47855 0.93712 0.0
C10 C 0.99337 0.49385 0.9519 0.0
N11 N 0.02689 0.52665 0.98409 0.0
C12 C 0.02476 0.52617 0.95286 0.0
C13 C 0.03945 0.54293 0.93904 0.0
C14 C 0.05151 0.55416 0.9621 0.0
C15 C 0.04351 0.54376 0.98866 0.0
N16 N 0.02975 0.52265 0.0504 0.0
C17 C 0.0465 0.53981 0.04676 0.0
C18 C 0.05637 0.54739 0.07374 0.0
C19 C 0.04516 0.53445 0.0961 0.0
C20 C 0.02891 0.5197 0.08149 0.0
N21 N 0.02682 0.49235 0.00906 0.0
C22 C 0.04894 0.47227 0.99147 0.0
C23 C 0.05818 0.49267 0.99652 0.0
C24 C 0.04698 0.50229 1.00533 0.0
C25 C 0.0285 0.46199 0.99672 0.0
C26 C 0.01784 0.47221 1.00553 0.0
N27 N 0.99515 0.52153 0.02446 0.0
C28 C 0.99367 0.55182 0.03803 0.0
C29 C 0.97309 0.54178 0.04172 0.0
C30 C 0.9637 0.52151 0.0354 0.0
C31 C 0.97488 0.5118 0.02679 0.0
C32 C 0.00426 0.54155 0.02932 0.0
H33 H 0.9668 0.49636 0.02256 0.0
H34 H 0.01988 0.55011 0.0273 0.0
H35 H 0.05496 0.51783 0.0085 0.0
H36 H 1.0023 0.46354 0.00876 0.0
C37 C 0.96991 0.465 0.01561 0.0
C38 C 0.01301 0.5034 0.09834 0.0
C39 C 0.00935 0.51013 0.93514 0.0
C40 C 0.05199 0.54897 0.01791 0.0
H41 H 0.9795 0.46796 0.11893 0.0
H42 H 0.9561 0.44673 0.07401 0.0
H43 H 0.95309 0.45194 0.95632 0.0
H44 H 0.97491 0.47653 0.91261 0.0
H45 H 0.04143 0.54652 0.91473 0.0
H46 H 0.06482 0.56802 0.95969 0.0
H47 H 0.06991 0.56093 0.07687 0.0
H48 H 0.04847 0.53587 0.12047 0.0
H49 H 0.07405 0.50129 0.99362 0.0
H50 H 0.02058 0.44617 0.99316 0.0
H51 H 1.00176 0.5675 0.04273 0.0
H52 H 0.94774 0.51307 0.03714 0.0
C53 C 0.55634 0.51476 0.94565 0.0
C54 C 0.5712 0.51201 0.93078 0.0
C55 C 0.58424 0.51279 0.95292 0.0
C56 C 0.57662 0.5158 0.98003 0.0
N57 N 0.55935 0.51678 0.97668 0.0
Co58 Co 0.54349 0.52113 0.0106 0.0
N59 N 0.56361 0.52395 0.04286 0.0
C60 C 0.58091 0.52318 0.0379 0.0
C61 C 0.59137 0.52469 0.06424 0.0
C62 C 0.58004 0.52634 0.08758 0.0
C63 C 0.56324 0.52585 0.07411 0.0
N64 N 0.52748 0.52516 0.04462 0.0
C65 C 0.5303 0.52676 0.07572 0.0
C66 C 0.51512 0.52884 0.09077 0.0
C67 C 0.50204 0.52804 0.06866 0.0
C68 C 0.50995 0.52565 0.04142 0.0
N69 N 0.52351 0.51861 0.97826 0.0
C70 C 0.50653 0.52003 0.98306 0.0
C71 C 0.49629 0.51894 0.95663 0.0
C72 C 0.50746 0.51693 0.93339 0.0
C73 C 0.52393 0.51675 0.947 0.0
N74 N 0.52933 0.49206 0.0186 0.0
C75 C 0.50939 0.45156 0.03539 0.0
C76 C 0.49892 0.46232 0.02932 0.0
C77 C 0.50906 0.48232 0.02106 0.0
C78 C 0.53001 0.46135 0.03191 0.0
C79 C 0.53955 0.48133 0.0234 0.0
N80 N 0.55763 0.55022 1.00256 0.0
C81 C 0.55679 0.58124 0.99229 0.0
C82 C 0.57702 0.59064 0.98501 0.0
C83 C 0.58748 0.57954 0.98784 0.0
C84 C 0.57762 0.55961 0.99665 0.0
C85 C 0.54753 0.5613 1.00103 0.0
H86 H 0.58645 0.55201 0.99795 0.0
H87 H 0.5321 0.55512 1.00606 0.0
H88 H 0.50018 0.48968 0.01727 0.0
H89 H 0.55525 0.48781 0.02121 0.0
C90 C 0.58598 0.51913 0.00862 0.0
C91 C 0.53992 0.51563 0.92908 0.0
C92 C 0.54693 0.52622 0.09217 0.0
C93 C 0.50103 0.52322 0.01258 0.0
H94 H 0.57262 0.50994 0.90636 0.0
H95 H 0.59791 0.51174 0.94956 0.0
H96 H 0.60523 0.52389 0.06637 0.0
H97 H 0.58355 0.52719 0.11183 0.0
H98 H 0.51354 0.53055 0.11525 0.0
H99 H 0.48824 0.52882 0.07211 0.0
H100 H 0.48257 0.52 0.95443 0.0
H101 H 0.50404 0.51614 0.9091 0.0
H102 H 0.48294 0.45553 0.03175 0.0
H103 H 0.53882 0.45362 0.03567 0.0
H104 H 0.54804 0.58922 0.9913 0.0
H105 H 0.60315 0.58599 0.98245 0.0
C106 C 0.50906 0.03203 0.06265 0.0
C107 C 0.50681 0.04893 0.06817 0.0
C108 C 0.51229 0.05981 0.04172 0.0
C109 C 0.51756 0.04899 0.02171 0.0
N110 N 0.51567 0.03177 0.03365 0.0
Co111 Co 0.52185 0.01159 0.01268 0.0
N112 N 0.53028 0.02783 0.97406 0.0
C113 C 0.53102 0.04577 0.96925 0.0
C114 C 0.53773 0.05338 0.9405 0.0
C115 C 0.54126 0.03938 0.92587 0.0
C116 C 0.53632 0.0239 0.94661 0.0
N117 N 0.52803 0.99141 0.99166 0.0
C118 C 0.53387 0.99077 0.96225 0.0
C119 C 0.53577 0.97369 0.95663 0.0
C120 C 0.53098 0.96317 0.98345 0.0
C121 C 0.52634 0.9743 1.00376 0.0
N122 N 0.5134 0.99534 0.05134 0.0
C123 C 0.513 0.97758 0.05634 0.0
C124 C 0.50652 0.97009 0.08524 0.0
C125 C 0.50266 0.98394 0.09969 0.0
C126 C 0.50708 0.99915 0.07866 0.0
N127 N 0.49411 0.99786 0.99707 0.0
C128 C 0.45454 0.97833 0.97545 0.0
C129 C 0.46387 0.96775 0.98798 0.0
C130 C 0.4834 0.97769 0.99857 0.0
C131 C 0.46556 0.99891 0.97379 0.0
C132 C 0.48511 0.00826 0.98449 0.0
N133 N 0.54965 0.02535 0.02829 0.0
C134 C 0.57818 0.02426 0.05165 0.0
C135 C 0.58939 0.04477 0.04921 0.0
C136 C 0.58017 0.05537 0.03642 0.0
C137 C 0.56052 0.04549 0.02633 0.0
C138 C 0.55858 0.01496 0.04119 0.0
H139 H 0.55447 0.05452 0.01705 0.0
H140 H 0.55099 0.99932 0.04367 0.0
H141 H 0.48953 0.96869 0.0078 0.0
H142 H 0.49264 0.02394 0.98241 0.0
C143 C 0.52482 0.05486 0.99188 0.0
C144 C 0.5055 0.01709 0.08606 0.0
C145 C 0.53686 0.00549 0.93863 0.0
C146 C 0.51923 0.96852 0.03369 0.0
H147 H 0.50196 0.05307 0.08928 0.0
H148 H 0.51265 0.07404 0.0377 0.0
H149 H 0.53957 0.06732 0.93116 0.0
H150 H 0.54658 0.04031 0.90242 0.0
H151 H 0.5398 0.96906 0.93523 0.0
H152 H 0.53042 0.94885 0.98742 0.0
H153 H 0.50499 0.9563 0.09476 0.0
H154 H 0.49737 0.98307 0.12316 0.0
H155 H 0.45626 0.95178 0.98935 0.0
H156 H 0.4591 0.00793 0.96466 0.0
H157 H 0.58459 0.01527 0.06112 0.0
H158 H 0.58799 0.07131 0.03448 0.0
C159 C 0.56401 0.01983 0.48538 0.0
C160 C 0.58382 0.03173 0.47818 0.0
C161 C 0.58789 0.05053 0.48627 0.0
C162 C 0.5704 0.04914 0.49766 0.0
N163 N 0.5553 0.03058 0.49721 0.0
Co164 Co 0.5272 0.02216 0.51083 0.0
N165 N 0.53328 0.04997 0.52264 0.0
C166 C 0.55098 0.06625 0.52012 0.0
C167 C 0.55061 0.08332 0.5295 0.0
C168 C 0.53151 0.07767 0.53851 0.0
C169 C 0.52131 0.05736 0.53419 0.0
N170 N 0.49912 0.01374 0.52463 0.0
C171 C 0.49037 0.02455 0.53601 0.0
C172 C 0.47051 0.01277 0.54293 0.0
C173 C 0.46649 0.99388 0.53543 0.0
C174 C 0.48406 0.99517 0.52451 0.0
N175 N 0.52108 0.99439 0.49881 0.0
C176 C 0.50333 0.97814 0.50122 0.0
C177 C 0.50371 0.96103 0.49217 0.0
C178 C 0.52282 0.9666 0.48337 0.0
C179 C 0.53306 0.98695 0.48732 0.0
N180 N 0.53407 0.01741 0.553 0.0
C181 C 0.54281 0.01143 0.61378 0.0
C182 C 0.52679 0.99677 0.59834 0.0
C183 C 0.52264 1.0001 0.56825 0.0
C184 C 0.55473 0.02889 0.59816 0.0
C185 C 0.55025 0.03147 0.56788 0.0
N186 N 0.52032 0.02692 0.46869 0.0
C187 C 0.49881 0.01603 0.4244 0.0
C188 C 0.51135 0.03295 0.40796 0.0
C189 C 0.52815 0.04706 0.42275 0.0
C190 C 0.53232 0.04376 0.45283 0.0
C191 C 0.50351 0.01337 0.45452 0.0
H192 H 0.54543 0.05499 0.46259 0.0
H193 H 0.49344 1.0001 0.46567 0.0
H194 H 0.50994 0.98854 0.55806 0.0
H195 H 0.55998 0.04504 0.55716 0.0
C196 C 0.56764 0.06506 0.50849 0.0
C197 C 0.5542 0.99843 0.48042 0.0
C198 C 0.50018 0.04591 0.5408 0.0
C199 C 0.48675 0.97929 0.51334 0.0
H200 H 0.5943 0.02733 0.468 0.0
H201 H 0.60191 0.06368 0.48394 0.0
H202 H 0.56274 0.09813 0.52954 0.0
H203 H 0.52573 0.08744 0.54704 0.0
H204 H 0.45999 0.01736 0.55239 0.0
H205 H 0.45241 0.98077 0.53752 0.0
H206 H 0.49159 0.9462 0.49246 0.0
H207 H 0.52855 0.95669 0.47535 0.0
H208 H 0.51706 0.98306 0.60979 0.0
H209 H 0.56742 0.04056 0.6093 0.0
H210 H 0.4857 0.00456 0.41385 0.0
H211 H 0.53816 0.06057 0.41113 0.0
C212 C 0.02595 0.49794 0.45271 0.0
C213 C 0.042 0.49697 0.4386 0.0
C214 C 0.05461 0.49779 0.46151 0.0
C215 C 0.04573 0.49939 0.48826 0.0
N216 N 0.02804 0.49936 0.48398 0.0
Co217 Co 0.01138 0.5035 0.51686 0.0
N218 N 0.03068 0.5061 0.55034 0.0
C219 C 0.04775 0.50471 0.54671 0.0
C220 C 0.05764 0.50625 0.57372 0.0
C221 C 0.04605 0.50845 0.59613 0.0
C222 C 0.02964 0.50806 0.58147 0.0
N223 N 0.99498 0.5082 0.54956 0.0
C224 C 0.99747 0.51051 0.58067 0.0
C225 C 0.98209 0.51284 0.59454 0.0
C226 C 0.96945 0.5119 0.57159 0.0
C227 C 0.97771 0.50902 0.54506 0.0
N228 N 0.99183 0.5004 0.48353 0.0
C229 C 0.97418 0.50057 0.4875 0.0
C230 C 0.96386 0.49815 0.46068 0.0
C231 C 0.97571 0.49658 0.43811 0.0
C232 C 0.99276 0.4983 0.45243 0.0
N233 N 0.99716 0.47444 0.52529 0.0
C234 C 0.97781 0.43409 0.54311 0.0
C235 C 0.96749 0.44535 0.54127 0.0
C236 C 0.97729 0.46521 0.53216 0.0
C237 C 0.99787 0.44326 0.5348 0.0
C238 C 0.00716 0.46323 0.5261 0.0
N239 N 0.0256 0.53251 0.50843 0.0
C240 C 0.025 0.5629 0.49271 0.0
C241 C 0.04569 0.57278 0.49029 0.0
C242 C 0.05611 0.56224 0.49826 0.0
C243 C 0.0459 0.54238 0.50728 0.0
C244 C 0.01538 0.54302 0.50183 0.0
H245 H 0.05477 0.53526 0.51284 0.0
H246 H 0.99961 0.53637 0.50282 0.0
H247 H 0.96848 0.47284 0.53125 0.0
H248 H 0.02254 0.46935 0.52066 0.0
C249 C 0.05398 0.50175 0.51763 0.0
C250 C 0.00954 0.4983 0.43529 0.0
C251 C 0.01347 0.50951 0.59829 0.0
C252 C 0.96865 0.505 0.51616 0.0
H253 H 0.04464 0.49623 0.41421 0.0
H254 H 0.06883 0.49779 0.4589 0.0
H255 H 0.07152 0.50563 0.57681 0.0
H256 H 0.04924 0.51 0.62055 0.0
H257 H 0.97988 0.51446 0.61884 0.0
H258 H 0.95549 0.51248 0.57412 0.0
H259 H 0.94969 0.49818 0.45775 0.0
H260 H 0.97233 0.49475 0.41375 0.0
H261 H 0.95182 0.43886 0.54679 0.0
H262 H 0.0066 0.43525 0.53585 0.0
H263 H 0.01613 0.57025 0.48677 0.0
H264 H 0.07215 0.56925 0.49759 0.0
C265 C 0.53665 0.53179 0.57555 0.0
C266 C 0.53322 0.54618 0.5904 0.0
C267 C 0.53334 0.55893 0.56818 0.0
C268 C 0.53668 0.5516 0.54106 0.0
N269 N 0.53845 0.53477 0.54447 0.0
Co270 Co 0.54376 0.51959 0.51063 0.0
N271 N 0.54565 0.53935 0.47823 0.0
C272 C 0.54375 0.55602 0.48303 0.0
C273 C 0.54469 0.56625 0.45659 0.0
C274 C 0.54716 0.55541 0.43336 0.0
C275 C 0.5477 0.53913 0.44697 0.0
N276 N 0.54896 0.50435 0.47674 0.0
C277 C 0.55069 0.50731 0.44564 0.0
C278 C 0.55386 0.49278 0.43074 0.0
C279 C 0.55365 0.47998 0.45293 0.0
C280 C 0.5505 0.4874 0.48009 0.0
N281 N 0.542 0.4999 0.54307 0.0
C282 C 0.54411 0.48334 0.53833 0.0
C283 C 0.54333 0.47322 0.56482 0.0
C284 C 0.54079 0.48403 0.58802 0.0
C285 C 0.54003 0.50019 0.57433 0.0
N286 N 0.51471 0.50433 0.50264 0.0
C287 C 0.47428 0.48297 0.48569 0.0
C288 C 0.48604 0.47338 0.49057 0.0
C289 C 0.50595 0.4842 0.49903 0.0
C290 C 0.48306 0.50342 0.49048 0.0
C291 C 0.50303 0.51367 0.49895 0.0
N292 N 0.57282 0.53483 0.51864 0.0
C293 C 0.60452 0.53558 0.52978 0.0
C294 C 0.61318 0.55585 0.53613 0.0
C295 C 0.60135 0.56548 0.53248 0.0
C296 C 0.58147 0.55484 0.52367 0.0
C297 C 0.58459 0.52551 0.52108 0.0
H298 H 0.57333 0.5631 0.52148 0.0
H299 H 0.57897 0.51008 0.51699 0.0
H300 H 0.51401 0.47594 0.50218 0.0
H301 H 0.50876 0.52922 0.50186 0.0
C302 C 0.53946 0.56081 0.51234 0.0
C303 C 0.53836 0.51584 0.59219 0.0
C304 C 0.54921 0.52342 0.42905 0.0
C305 C 0.54806 0.47836 0.50892 0.0
H306 H 0.53112 0.5475 0.61484 0.0
H307 H 0.53165 0.57222 0.57149 0.0
H308 H 0.54307 0.57964 0.45436 0.0
H309 H 0.54789 0.55888 0.40907 0.0
H310 H 0.55589 0.49143 0.40628 0.0
H311 H 0.55524 0.46663 0.44959 0.0
H312 H 0.54503 0.45987 0.56709 0.0
H313 H 0.5401 0.48062 0.61232 0.0
H314 H 0.47994 0.45751 0.48794 0.0
H315 H 0.47475 0.51168 0.48694 0.0
H316 H 0.6129 0.5273 0.53232 0.0
H317 H 0.60736 0.58124 0.53636 0.0
C318 C 0.68824 0.84246 0.41417 0.0
C319 C 0.67229 0.82677 0.42803 0.0
C320 C 0.65995 0.81603 0.40491 0.0
C321 C 0.66888 0.82577 0.3783 0.0
N322 N 0.68633 0.84198 0.38288 0.0
Co323 Co 0.70288 0.86135 0.35025 0.0
N324 N 0.68439 0.84573 0.31624 0.0
C325 C 0.66792 0.8283 0.31954 0.0
C326 C 0.65886 0.82015 0.29226 0.0
C327 C 0.67035 0.833 0.27003 0.0
C328 C 0.68576 0.84845 0.28508 0.0
N329 N 0.71904 0.88113 0.31786 0.0
C330 C 0.71685 0.88102 0.28668 0.0
C331 C 0.73137 0.89807 0.27327 0.0
C332 C 0.74335 0.9091 0.29655 0.0
C333 C 0.73545 0.89833 0.32285 0.0
N334 N 0.72183 0.87655 0.384 0.0
C335 C 0.73911 0.89316 0.38035 0.0
C336 C 0.7492 0.90029 0.4073 0.0
C337 C 0.73764 0.88757 0.42963 0.0
C338 C 0.72094 0.87344 0.41503 0.0
N339 N 0.71822 0.84625 0.34281 0.0
C340 C 0.73916 0.82498 0.32532 0.0
C341 C 0.7487 0.8456 0.32735 0.0
C342 C 0.73809 0.85582 0.33618 0.0
C343 C 0.71911 0.81517 0.33363 0.0
C344 C 0.70904 0.82599 0.34232 0.0
N345 N 0.6875 0.87646 0.35763 0.0
C346 C 0.68606 0.90608 0.37531 0.0
C347 C 0.66537 0.89701 0.37311 0.0
C348 C 0.65609 0.87758 0.36199 0.0
C349 C 0.66729 0.86767 0.35466 0.0
C350 C 0.6967 0.89576 0.36717 0.0
H351 H 0.65917 0.85282 0.34692 0.0
H352 H 0.71238 0.90369 0.36931 0.0
H353 H 0.74624 0.87151 0.33694 0.0
H354 H 0.69373 0.81763 0.34791 0.0
C355 C 0.6613 0.82006 0.34868 0.0
C356 C 0.70446 0.85774 0.43185 0.0
C357 C 0.70159 0.86505 0.26865 0.0
C358 C 0.74429 0.90286 0.35189 0.0
H359 H 0.66962 0.82354 0.45239 0.0
H360 H 0.64598 0.80283 0.40727 0.0
H361 H 0.64561 0.80637 0.2889 0.0
H362 H 0.66779 0.83102 0.24548 0.0
H363 H 0.73331 0.90197 0.24907 0.0
H364 H 0.75663 0.92302 0.29442 0.0
H365 H 0.76302 0.91353 0.4105 0.0
H366 H 0.74094 0.88881 0.45401 0.0
H367 H 0.76434 0.85391 0.32196 0.0
H368 H 0.71099 0.79921 0.33248 0.0
H369 H 0.69415 0.92099 0.384 0.0
H370 H 0.6402 0.86991 0.35889 0.0
C371 C 0.20356 0.84631 0.41296 0.0
C372 C 0.21958 0.84527 0.42666 0.0
C373 C 0.23039 0.84261 0.40345 0.0
C374 C 0.2204 0.84207 0.37696 0.0
N375 N 0.20396 0.84449 0.3817 0.0
Co376 Co 0.18448 0.8432 0.3493 0.0
N377 N 0.19987 0.83822 0.31529 0.0
C378 C 0.21693 0.8368 0.31852 0.0
C379 C 0.22451 0.83391 0.29128 0.0
C380 C 0.21171 0.83376 0.26917 0.0
C381 C 0.19701 0.83668 0.28418 0.0
N382 N 0.16479 0.84155 0.317 0.0
C383 C 0.165 0.83947 0.28577 0.0
C384 C 0.14864 0.83996 0.27229 0.0
C385 C 0.13777 0.8424 0.2956 0.0
C386 C 0.14804 0.84337 0.32195 0.0
N387 N 0.16927 0.84854 0.3832 0.0
C388 C 0.1526 0.85066 0.37982 0.0
C389 C 0.14522 0.85394 0.40699 0.0
C390 C 0.1578 0.85371 0.42919 0.0
C391 C 0.17216 0.85018 0.41427 0.0
N392 N 0.2 0.87222 0.34147 0.0
C393 C 0.22203 0.91274 0.32548 0.0
C394 C 0.20136 0.90388 0.32837 0.0
C395 C 0.19077 0.88387 0.33645 0.0
C396 C 0.23144 0.90096 0.33169 0.0
C397 C 0.22029 0.88101 0.33955 0.0
N398 N 0.16901 0.81421 0.35722 0.0
C399 C 0.1384 0.78596 0.3726 0.0
C400 C 0.14795 0.77398 0.37524 0.0
C401 C 0.16808 0.78239 0.36739 0.0
C402 C 0.17818 0.80225 0.35844 0.0
C403 C 0.14907 0.80578 0.36352 0.0
H404 H 0.19348 0.80766 0.35304 0.0
H405 H 0.14093 0.8141 0.36237 0.0
H406 H 0.17509 0.8781 0.33803 0.0
H407 H 0.22845 0.87296 0.34367 0.0
C408 C 0.22567 0.83864 0.34742 0.0
C409 C 0.18797 0.84818 0.43081 0.0
C410 C 0.18076 0.838 0.26771 0.0
C411 C 0.14334 0.84783 0.35121 0.0
H412 H 0.2229 0.84595 0.45098 0.0
H413 H 0.24371 0.84082 0.4057 0.0
H414 H 0.2379 0.83234 0.28787 0.0
H415 H 0.21314 0.83187 0.2447 0.0
H416 H 0.14515 0.83922 0.24804 0.0
H417 H 0.12434 0.84402 0.29346 0.0
H418 H 0.13195 0.85572 0.41036 0.0
H419 H 0.15639 0.85559 0.45367 0.0
H420 H 0.19321 0.91217 0.32371 0.0
H421 H 0.24742 0.90708 0.33059 0.0
H422 H 0.12284 0.78029 0.37837 0.0
H423 H 0.17614 0.7737 0.36816 0.0
C424 C 0.19557 0.35685 0.41803 0.0
C425 C 0.1931 0.37204 0.43208 0.0
C426 C 0.19388 0.3847 0.40923 0.0
C427 C 0.19664 0.37655 0.38255 0.0
N428 N 0.1974 0.35926 0.38683 0.0
Co429 Co 0.20183 0.34293 0.35389 0.0
N430 N 0.2041 0.36219 0.32044 0.0
C431 C 0.20285 0.37928 0.32424 0.0
C432 C 0.20447 0.38929 0.29728 0.0
C433 C 0.20658 0.37779 0.27476 0.0
C434 C 0.20601 0.36126 0.28927 0.0
N435 N 0.20647 0.3267 0.32098 0.0
C436 C 0.20817 0.32901 0.28975 0.0
C437 C 0.21014 0.31354 0.27571 0.0
C438 C 0.20972 0.3011 0.29865 0.0
C439 C 0.20739 0.30951 0.32534 0.0
N440 N 0.19934 0.32356 0.38731 0.0
C441 C 0.20054 0.30645 0.38346 0.0
C442 C 0.19921 0.29654 0.41041 0.0
C443 C 0.19719 0.30805 0.43298 0.0
C444 C 0.19729 0.32438 0.41847 0.0
N445 N 0.17269 0.32837 0.34623 0.0
C446 C 0.13207 0.30828 0.32977 0.0
C447 C 0.14341 0.29811 0.33341 0.0
C448 C 0.16342 0.3083 0.34173 0.0
C449 C 0.14139 0.32863 0.33561 0.0
C450 C 0.16145 0.33824 0.34372 0.0
N451 N 0.23098 0.35753 0.36158 0.0
C452 C 0.26213 0.35753 0.37445 0.0
C453 C 0.27148 0.37806 0.37848 0.0
C454 C 0.26028 0.38813 0.37276 0.0
C455 C 0.24034 0.37773 0.36431 0.0
C456 C 0.24212 0.34769 0.36601 0.0
H457 H 0.23275 0.38636 0.36049 0.0
H458 H 0.2359 0.33205 0.36374 0.0
H459 H 0.17117 0.29966 0.34389 0.0
H460 H 0.16756 0.35374 0.34748 0.0
C461 C 0.19932 0.3851 0.35328 0.0
C462 C 0.19628 0.34065 0.43548 0.0
C463 C 0.20707 0.34503 0.27226 0.0
C464 C 0.20441 0.30083 0.35451 0.0
H465 H 0.19116 0.37391 0.4564 0.0
H466 H 0.19288 0.39841 0.41182 0.0
H467 H 0.20382 0.40313 0.29428 0.0
H468 H 0.20812 0.3811 0.25035 0.0
H469 H 0.21123 0.31112 0.25134 0.0
H470 H 0.21033 0.2872 0.29607 0.0
H471 H 0.20023 0.28288 0.4134 0.0
H472 H 0.19628 0.30495 0.45742 0.0
H473 H 0.13709 0.28238 0.32911 0.0
H474 H 0.13328 0.33722 0.33399 0.0
H475 H 0.27003 0.34893 0.3786 0.0
H476 H 0.26685 0.40407 0.37474 0.0
C477 C 0.18835 0.32276 0.91904 0.0
C478 C 0.17403 0.30625 0.93397 0.0
C479 C 0.16152 0.29448 0.9118 0.0
C480 C 0.1689 0.30431 0.8846 0.0
N481 N 0.18556 0.32156 0.88793 0.0
Co482 Co 0.20066 0.34061 0.85399 0.0
N483 N 0.18148 0.32384 0.82153 0.0
C484 C 0.16513 0.30647 0.82628 0.0
C485 C 0.15496 0.29804 0.79986 0.0
C486 C 0.16555 0.3106 0.7767 0.0
C487 C 0.18174 0.32603 0.79031 0.0
N488 N 0.21565 0.35977 0.82007 0.0
C489 C 0.21278 0.35869 0.78898 0.0
C490 C 0.22743 0.37496 0.77403 0.0
C491 C 0.2399 0.38671 0.79625 0.0
C492 C 0.23233 0.37699 0.82344 0.0
N493 N 0.21993 0.35731 0.88642 0.0
C494 C 0.23634 0.3746 0.88161 0.0
C495 C 0.24626 0.38332 0.90806 0.0
C496 C 0.23549 0.37098 0.93131 0.0
C497 C 0.21957 0.35525 0.91769 0.0
N498 N 0.21677 0.32628 0.84648 0.0
C499 C 0.23887 0.306 0.82977 0.0
C500 C 0.24804 0.32655 0.83319 0.0
C501 C 0.23684 0.33629 0.8416 0.0
C502 C 0.21857 0.29577 0.8361 0.0
C503 C 0.20795 0.30607 0.84441 0.0
N504 N 0.18452 0.3549 0.86151 0.0
C505 C 0.18241 0.38505 0.87372 0.0
C506 C 0.16196 0.37458 0.87876 0.0
C507 C 0.15294 0.35418 0.87368 0.0
C508 C 0.16435 0.34476 0.86504 0.0
C509 C 0.19328 0.37503 0.86507 0.0
H510 H 0.15653 0.32921 0.86182 0.0
H511 H 0.20881 0.38384 0.862 0.0
H512 H 0.24471 0.35195 0.84347 0.0
H513 H 0.19255 0.29733 0.84862 0.0
C514 C 0.1601 0.29814 0.85574 0.0
C515 C 0.20408 0.33922 0.9356 0.0
C516 C 0.19699 0.34225 0.77243 0.0
C517 C 0.24123 0.38299 0.85222 0.0
H518 H 0.17262 0.30313 0.95845 0.0
H519 H 0.1484 0.28056 0.91516 0.0
H520 H 0.14158 0.28423 0.79764 0.0
H521 H 0.16186 0.30853 0.75247 0.0
H522 H 0.22925 0.37789 0.74952 0.0
H523 H 0.25324 0.40043 0.79288 0.0
H524 H 0.25941 0.39732 0.91027 0.0
H525 H 0.23877 0.37361 0.9556 0.0
H526 H 0.26373 0.33523 0.82857 0.0
H527 H 0.2108 0.2798 0.83461 0.0
H528 H 0.19016 0.40088 0.87731 0.0
H529 H 0.13708 0.34542 0.87644 0.0
C530 C 0.72301 0.86762 0.91497 0.0
C531 C 0.73933 0.86778 0.92965 0.0
C532 C 0.75125 0.86628 0.90716 0.0
C533 C 0.74156 0.86511 0.8801 0.0
N534 N 0.72426 0.86605 0.88378 0.0
Co535 Co 0.70478 0.86298 0.85027 0.0
N536 N 0.72185 0.85957 0.81734 0.0
C537 C 0.73985 0.8603 0.82156 0.0
C538 C 0.74884 0.85893 0.7948 0.0
C539 C 0.73597 0.85749 0.77195 0.0
C540 C 0.71966 0.85789 0.78611 0.0
N541 N 0.68505 0.85935 0.81696 0.0
C542 C 0.68594 0.85709 0.78589 0.0
C543 C 0.66871 0.85491 0.77159 0.0
C544 C 0.65677 0.85632 0.79415 0.0
C545 C 0.66721 0.8591 0.82093 0.0
N546 N 0.68795 0.86689 0.88301 0.0
C547 C 0.67062 0.86756 0.87848 0.0
C548 C 0.66229 0.87038 0.905 0.0
C549 C 0.67495 0.87138 0.92798 0.0
C550 C 0.69028 0.86894 0.91416 0.0
N551 N 0.7183 0.89208 0.84215 0.0
C552 C 0.73757 0.93258 0.82526 0.0
C553 C 0.7169 0.92197 0.82579 0.0
C554 C 0.70767 0.90201 0.83449 0.0
C555 C 0.74839 0.92268 0.83432 0.0
C556 C 0.73858 0.90263 0.84251 0.0
N557 N 0.69129 0.8339 0.8584 0.0
C558 C 0.66193 0.80418 0.87328 0.0
C559 C 0.67278 0.79345 0.87578 0.0
C560 C 0.69299 0.80326 0.86837 0.0
C561 C 0.70182 0.82323 0.8597 0.0
C562 C 0.67135 0.82412 0.86456 0.0
H563 H 0.71726 0.82977 0.85451 0.0
H564 H 0.66222 0.83142 0.86352 0.0
H565 H 0.69189 0.8949 0.83448 0.0
H566 H 0.74776 0.89594 0.84857 0.0
C567 C 0.74807 0.86269 0.85093 0.0
C568 C 0.70642 0.86825 0.9318 0.0
C569 C 0.70284 0.85739 0.76875 0.0
C570 C 0.66156 0.86344 0.84958 0.0
H571 H 0.74219 0.86851 0.95413 0.0
H572 H 0.76514 0.86567 0.91024 0.0
H573 H 0.76325 0.85935 0.79216 0.0
H574 H 0.73854 0.85664 0.74756 0.0
H575 H 0.66528 0.85288 0.74727 0.0
H576 H 0.64243 0.85597 0.79123 0.0
H577 H 0.64835 0.87098 0.90749 0.0
H578 H 0.67291 0.8733 0.95225 0.0
H579 H 0.7078 0.92904 0.81961 0.0
H580 H 0.76444 0.93018 0.83427 0.0
H581 H 0.64627 0.79741 0.87884 0.0
H582 H 0.70204 0.79559 0.86918 0.0
C583 C 0.17537 0.85562 0.91398 0.0
C584 C 0.17314 0.87074 0.92874 0.0
C585 C 0.17379 0.88364 0.90638 0.0
C586 C 0.17625 0.87569 0.87926 0.0
N587 N 0.17691 0.8583 0.8828 0.0
Co588 Co 0.18101 0.84226 0.84905 0.0
N589 N 0.1835 0.86207 0.81639 0.0
C590 C 0.18243 0.87918 0.82095 0.0
C591 C 0.18426 0.88967 0.79443 0.0
C592 C 0.18637 0.87848 0.7714 0.0
C593 C 0.18558 0.86165 0.78518 0.0
N594 N 0.18532 0.8263 0.81534 0.0
C595 C 0.18726 0.82916 0.78422 0.0
C596 C 0.18899 0.81376 0.76946 0.0
C597 C 0.18817 0.80081 0.79183 0.0
C598 C 0.18587 0.80887 0.81892 0.0
N599 N 0.17835 0.82237 0.88173 0.0
C600 C 0.1792 0.80515 0.8771 0.0
C601 C 0.17794 0.79492 0.90367 0.0
C602 C 0.17639 0.80634 0.92681 0.0
C603 C 0.17666 0.82295 0.91301 0.0
N604 N 0.15183 0.8281 0.84142 0.0
C605 C 0.1114 0.80867 0.82385 0.0
C606 C 0.12241 0.79821 0.82772 0.0
C607 C 0.14233 0.80808 0.8366 0.0
C608 C 0.12085 0.82894 0.83018 0.0
C609 C 0.14082 0.83824 0.83891 0.0
N610 N 0.21016 0.85642 0.85659 0.0
C611 C 0.24111 0.85573 0.86848 0.0
C612 C 0.25086 0.87626 0.87224 0.0
C613 C 0.23996 0.8867 0.86712 0.0
C614 C 0.21985 0.8766 0.85942 0.0
C615 C 0.22102 0.84623 0.86053 0.0
H616 H 0.21239 0.88544 0.85635 0.0
H617 H 0.21455 0.8306 0.85801 0.0
H618 H 0.1498 0.79919 0.83898 0.0
H619 H 0.14711 0.85373 0.8429 0.0
C620 C 0.17898 0.88465 0.85032 0.0
C621 C 0.17621 0.83925 0.93076 0.0
C622 C 0.18666 0.84567 0.76746 0.0
C623 C 0.18283 0.79979 0.84779 0.0
H624 H 0.17149 0.87242 0.95321 0.0
H625 H 0.17299 0.8974 0.90958 0.0
H626 H 0.18381 0.90365 0.79207 0.0
H627 H 0.18809 0.88222 0.74713 0.0
H628 H 0.19023 0.81178 0.74498 0.0
H629 H 0.18859 0.78686 0.78863 0.0
H630 H 0.17879 0.78113 0.90603 0.0
H631 H 0.17571 0.80301 0.95114 0.0
H632 H 0.11573 0.7824 0.8239 0.0
H633 H 0.11309 0.83782 0.82753 0.0
H634 H 0.24895 0.84696 0.87155 0.0
H635 H 0.24673 0.9026 0.86984 0.0
C636 C 0.36527 0.21201 0.70685 0.0
C637 C 0.37661 0.23203 0.71261 0.0
C638 C 0.39556 0.2366 0.70401 0.0
C639 C 0.39472 0.2192 0.69352 0.0
N640 N 0.37639 0.20372 0.695 0.0
Co641 Co 0.36849 0.17585 0.68129 0.0
N642 N 0.3965 0.18251 0.6693 0.0
C643 C 0.41261 0.2003 0.67201 0.0
C644 C 0.4299 0.20036 0.66236 0.0
C645 C 0.42459 0.18145 0.65314 0.0
C646 C 0.40428 0.17087 0.65781 0.0
N647 N 0.3605 0.14811 0.66677 0.0
C648 C 0.37159 0.13981 0.65482 0.0
C649 C 0.36004 0.12 0.6478 0.0
C650 C 0.341 0.11563 0.6554 0.0
C651 C 0.34196 0.13291 0.66667 0.0
N652 N 0.34058 0.16905 0.69415 0.0
C653 C 0.3246 0.15109 0.69257 0.0
C654 C 0.30749 0.15083 0.70359 0.0
C655 C 0.31281 0.16974 0.71288 0.0
C656 C 0.33296 0.18049 0.70691 0.0
N657 N 0.3634 0.18286 0.63941 0.0
C658 C 0.35641 0.19224 0.57943 0.0
C659 C 0.34199 0.17609 0.59528 0.0
C660 C 0.34576 0.1717 0.62496 0.0
C661 C 0.37424 0.20386 0.59435 0.0
C662 C 0.37739 0.19897 0.62409 0.0
N663 N 0.3735 0.16884 0.72317 0.0
C664 C 0.36323 0.14657 0.7667 0.0
C665 C 0.37863 0.16027 0.78454 0.0
C666 C 0.39202 0.17792 0.77063 0.0
C667 C 0.38926 0.18182 0.7401 0.0
C668 C 0.36095 0.15112 0.73634 0.0
H669 H 0.39982 0.19562 0.73097 0.0
H670 H 0.34872 0.14019 0.72423 0.0
H671 H 0.3342 0.15914 0.6356 0.0
H672 H 0.39133 0.20833 0.63403 0.0
C673 C 0.41096 0.21678 0.68305 0.0
C674 C 0.34405 0.20158 0.7133 0.0
C675 C 0.39309 0.14986 0.65068 0.0
C676 C 0.32597 0.13498 0.67928 0.0
H677 H 0.37169 0.24226 0.72215 0.0
H678 H 0.40844 0.25087 0.70542 0.0
H679 H 0.4446 0.21271 0.66195 0.0
H680 H 0.43457 0.17608 0.64392 0.0
H681 H 0.3649 0.10965 0.63859 0.0
H682 H 0.32805 0.10143 0.65359 0.0
H683 H 0.29283 0.13842 0.70443 0.0
H684 H 0.30295 0.17507 0.72271 0.0
H685 H 0.32781 0.16679 0.58483 0.0
H686 H 0.38599 0.2164 0.58287 0.0
H687 H 0.35271 0.13249 0.77625 0.0
H688 H 0.40416 0.18907 0.78352 0.0
C689 C 0.86145 0.22248 0.66148 0.0
C690 C 0.84926 0.23084 0.65295 0.0
C691 C 0.8303 0.21723 0.65945 0.0
C692 C 0.83191 0.20134 0.67134 0.0
N693 N 0.85077 0.20387 0.67273 0.0
Co694 Co 0.85957 0.18414 0.68814 0.0
N695 N 0.83155 0.16404 0.69735 0.0
C696 C 0.81498 0.16624 0.69299 0.0
C697 C 0.79787 0.15012 0.70165 0.0
C698 C 0.80378 0.1367 0.71203 0.0
C699 C 0.82426 0.14539 0.70891 0.0
N700 N 0.86839 0.16451 0.7039 0.0
C701 C 0.85769 0.14579 0.71474 0.0
C702 C 0.86985 0.13724 0.72249 0.0
C703 C 0.88885 0.15104 0.71674 0.0
C704 C 0.88728 0.16714 0.70565 0.0
N705 N 0.88758 0.20416 0.67853 0.0
C706 C 0.90414 0.20193 0.68277 0.0
C707 C 0.92128 0.21817 0.67458 0.0
C708 C 0.91538 0.23163 0.66439 0.0
C709 C 0.89485 0.22276 0.66678 0.0
N710 N 0.86198 0.19513 0.7303 0.0
C711 C 0.86498 0.20934 0.79099 0.0
C712 C 0.88043 0.20678 0.77749 0.0
C713 C 0.87863 0.19972 0.74742 0.0
C714 C 0.84817 0.20512 0.77338 0.0
C715 C 0.84703 0.19817 0.74327 0.0
N716 N 0.85719 0.17318 0.646 0.0
C717 C 0.87072 0.16207 0.60396 0.0
C718 C 0.85497 0.15967 0.58497 0.0
C719 C 0.83998 0.16348 0.59743 0.0
C720 C 0.84133 0.17006 0.62778 0.0
C721 C 0.87155 0.16881 0.63408 0.0
H722 H 0.82952 0.17283 0.63579 0.0
H723 H 0.88408 0.17059 0.6471 0.0
H724 H 0.89082 0.19785 0.73875 0.0
H725 H 0.83384 0.1952 0.73109 0.0
C726 C 0.81598 0.18371 0.68094 0.0
C727 C 0.88304 0.2328 0.65812 0.0
C728 C 0.83606 0.13532 0.71746 0.0
C729 C 0.90318 0.18461 0.69546 0.0
H730 H 0.85357 0.24526 0.64292 0.0
H731 H 0.8169 0.21871 0.65577 0.0
H732 H 0.78287 0.14835 0.70063 0.0
H733 H 0.79406 0.12218 0.72098 0.0
H734 H 0.86549 0.12247 0.73105 0.0
H735 H 0.90221 0.14941 0.71979 0.0
H736 H 0.93631 0.22008 0.67619 0.0
H737 H 0.92516 0.2464 0.6564 0.0
H738 H 0.89366 0.20958 0.79038 0.0
H739 H 0.8359 0.20708 0.78282 0.0
H740 H 0.88251 0.15895 0.59557 0.0
H741 H 0.82754 0.16203 0.5836 0.0
C742 C 0.82775 0.64954 0.64921 0.0
C743 C 0.82369 0.63268 0.63209 0.0
C744 C 0.8413 0.63214 0.62775 0.0
C745 C 0.85507 0.64857 0.64252 0.0
N746 N 0.84729 0.65948 0.65639 0.0
Co747 Co 0.86218 0.68473 0.6799 0.0
N748 N 0.88846 0.68527 0.67015 0.0
C749 C 0.89148 0.67198 0.6529 0.0
C750 C 0.91091 0.67563 0.65127 0.0
C751 C 0.92092 0.69208 0.66882 0.0
C752 C 0.90697 0.69762 0.68016 0.0
N753 N 0.87703 0.70976 0.70395 0.0
C754 C 0.89655 0.71955 0.71135 0.0
C755 C 0.90049 0.73586 0.7298 0.0
C756 C 0.88283 0.73616 0.73483 0.0
C757 C 0.86915 0.72013 0.71915 0.0
N758 N 0.83592 0.68441 0.68902 0.0
C759 C 0.83294 0.69799 0.70552 0.0
C760 C 0.81361 0.69475 0.70619 0.0
C761 C 0.80363 0.67828 0.68864 0.0
C762 C 0.81749 0.67232 0.67837 0.0
N763 N 0.86009 0.66944 0.71794 0.0
C764 C 0.86513 0.65471 0.77463 0.0
C765 C 0.8552 0.6663 0.77302 0.0
C766 C 0.85287 0.67347 0.74464 0.0
C767 C 0.87085 0.64906 0.74727 0.0
C768 C 0.86774 0.65618 0.71921 0.0
N769 N 0.8643 0.70004 0.642 0.0
C770 C 0.85681 0.72353 0.61466 0.0
C771 C 0.85993 0.71649 0.58649 0.0
C772 C 0.8668 0.70226 0.5866 0.0
C773 C 0.86887 0.6943 0.61439 0.0
C774 C 0.85946 0.7154 0.64205 0.0
H775 H 0.8733 0.6829 0.61284 0.0
H776 H 0.85682 0.72128 0.66288 0.0
H777 H 0.84607 0.68301 0.74519 0.0
H778 H 0.87241 0.65139 0.69907 0.0
C779 C 0.87553 0.65514 0.64123 0.0
C780 C 0.8126 0.65569 0.65733 0.0
C781 C 0.91183 0.71383 0.70204 0.0
C782 C 0.84876 0.71407 0.71912 0.0
H783 H 0.80951 0.62208 0.62314 0.0
H784 H 0.84387 0.62141 0.61452 0.0
H785 H 0.91695 0.66686 0.63979 0.0
H786 H 0.93663 0.69878 0.67357 0.0
H787 H 0.91465 0.7463 0.73905 0.0
H788 H 0.8802 0.7466 0.74874 0.0
H789 H 0.80758 0.70361 0.71739 0.0
H790 H 0.78799 0.67173 0.68339 0.0
H791 H 0.85045 0.67097 0.79377 0.0
H792 H 0.87824 0.63974 0.74759 0.0
H793 H 0.85181 0.73482 0.61553 0.0
H794 H 0.86939 0.69634 0.56524 0.0
C795 C 0.88782 0.66883 0.18446 0.0
C796 C 0.9077 0.67487 0.1907 0.0
C797 C 0.9154 0.69404 0.20024 0.0
C798 C 0.8999 0.69865 0.19915 0.0
N799 N 0.88259 0.68342 0.19026 0.0
Co800 Co 0.85686 0.6843 0.1823 0.0
N801 N 0.86879 0.71319 0.19251 0.0
C802 C 0.88775 0.72501 0.20076 0.0
C803 C 0.89112 0.74368 0.20915 0.0
C804 C 0.87315 0.74367 0.20693 0.0
C805 C 0.85981 0.72493 0.19713 0.0
N806 N 0.83124 0.68521 0.17392 0.0
C807 C 0.826 0.69976 0.17974 0.0
C808 C 0.8064 0.69411 0.17209 0.0
C809 C 0.79876 0.67502 0.16209 0.0
C810 C 0.81409 0.67018 0.16405 0.0
N811 N 0.84484 0.65538 0.17249 0.0
C812 C 0.82574 0.64343 0.16519 0.0
C813 C 0.82215 0.62448 0.15813 0.0
C814 C 0.84011 0.62443 0.1604 0.0
C815 C 0.85366 0.64345 0.16862 0.0
N816 N 0.84889 0.67826 0.22611 0.0
C817 C 0.83634 0.67771 0.28716 0.0
C818 C 0.82276 0.66706 0.26443 0.0
C819 C 0.8294 0.66712 0.23431 0.0
C820 C 0.85643 0.68717 0.27952 0.0
C821 C 0.86234 0.68725 0.24906 0.0
N822 N 0.86484 0.6904 0.1385 0.0
C823 C 0.85825 0.6813 0.08495 0.0
C824 C 0.87812 0.69298 0.07746 0.0
C825 C 0.89097 0.70451 0.10039 0.0
C826 C 0.88392 0.70333 0.13051 0.0
C827 C 0.85197 0.6802 0.11544 0.0
H828 H 0.89435 0.7125 0.14708 0.0
H829 H 0.83685 0.67037 0.11991 0.0
H830 H 0.81841 0.65871 0.21786 0.0
H831 H 0.87777 0.69547 0.24451 0.0
C832 C 0.90146 0.71754 0.20366 0.0
C833 C 0.87491 0.64976 0.17063 0.0
C834 C 0.8385 0.71838 0.19503 0.0
C835 C 0.81222 0.65105 0.16106 0.0
H836 H 0.91603 0.66659 0.18752 0.0
H837 H 0.93069 0.70374 0.20585 0.0
H838 H 0.90478 0.75556 0.2175 0.0
H839 H 0.87009 0.75584 0.21311 0.0
H840 H 0.79826 0.70261 0.17489 0.0
H841 H 0.78354 0.66545 0.1559 0.0
H842 H 0.80835 0.61243 0.15063 0.0
H843 H 0.84306 0.61204 0.15543 0.0
H844 H 0.80708 0.65907 0.26973 0.0
H845 H 0.86748 0.69545 0.29663 0.0
H846 H 0.8478 0.67222 0.06766 0.0
H847 H 0.90642 0.71409 0.09521 0.0
C848 C 0.3815 0.19723 0.24983 0.0
C849 C 0.39658 0.20108 0.27081 0.0
C850 C 0.41004 0.19653 0.25642 0.0
C851 C 0.40246 0.19024 0.22761 0.0
N852 N 0.38503 0.19065 0.22259 0.0
Co853 Co 0.36875 0.1827 0.18409 0.0
N854 N 0.3882 0.17528 0.16336 0.0
C855 C 0.40501 0.17613 0.17545 0.0
C856 C 0.41537 0.17018 0.15555 0.0
C857 C 0.40466 0.16538 0.129 0.0
C858 C 0.38837 0.16877 0.13433 0.0
N859 N 0.35248 0.17474 0.14558 0.0
C860 C 0.35608 0.16829 0.11824 0.0
C861 C 0.34115 0.16485 0.0971 0.0
C862 C 0.32766 0.16931 0.11159 0.0
C863 C 0.33509 0.17525 0.14055 0.0
N864 N 0.34931 0.19014 0.20485 0.0
C865 C 0.33244 0.18918 0.19284 0.0
C866 C 0.32204 0.19505 0.2128 0.0
C867 C 0.33281 0.19994 0.2393 0.0
C868 C 0.34921 0.19674 0.23385 0.0
N869 N 0.38367 0.21022 0.16782 0.0
C870 C 0.40477 0.24938 0.14487 0.0
C871 C 0.38406 0.2392 0.14369 0.0
C872 C 0.37395 0.21987 0.15505 0.0
C873 C 0.41467 0.23945 0.15772 0.0
C874 C 0.40396 0.22012 0.16895 0.0
N875 N 0.35381 0.15516 0.20033 0.0
C876 C 0.32273 0.12594 0.20991 0.0
C877 C 0.33253 0.11589 0.22261 0.0
C878 C 0.35322 0.12598 0.22411 0.0
C879 C 0.36345 0.14542 0.21312 0.0
C880 C 0.33353 0.1453 0.19898 0.0
H881 H 0.37915 0.15228 0.21528 0.0
H882 H 0.32509 0.15196 0.18942 0.0
H883 H 0.35824 0.21306 0.15329 0.0
H884 H 0.41246 0.21347 0.17836 0.0
C885 C 0.41103 0.18328 0.20519 0.0
C886 C 0.36384 0.19944 0.2573 0.0
C887 C 0.37377 0.16609 0.1108 0.0
C888 C 0.32647 0.18211 0.16305 0.0
H889 H 0.39759 0.20637 0.29425 0.0
H890 H 0.42359 0.19741 0.26596 0.0
H891 H 0.42922 0.16968 0.15969 0.0
H892 H 0.40851 0.1602 0.10795 0.0
H893 H 0.34025 0.15998 0.07345 0.0
H894 H 0.31424 0.16867 0.10195 0.0
H895 H 0.30813 0.19544 0.20873 0.0
H896 H 0.3289 0.20501 0.26039 0.0
H897 H 0.37554 0.24617 0.13443 0.0
H898 H 0.43069 0.24642 0.15883 0.0
H899 H 0.30674 0.11878 0.20788 0.0
H900 H 0.36155 0.11901 0.23413 0.0
C901 C 0.86937 0.20958 0.13832 0.0
C902 C 0.86912 0.2276 0.13431 0.0
C903 C 0.86366 0.23228 0.16194 0.0
C904 C 0.86085 0.2169 0.1811 0.0
N905 N 0.86442 0.20275 0.16752 0.0
Co906 Co 0.86134 0.17739 0.18645 0.0
N907 N 0.85223 0.18379 0.22653 0.0
C908 C 0.84999 0.20007 0.23332 0.0
C909 C 0.84397 0.20049 0.26305 0.0
C910 C 0.84253 0.1836 0.27621 0.0
C911 C 0.84777 0.17383 0.25359 0.0
N912 N 0.85802 0.15194 0.20524 0.0
C913 C 0.85297 0.14506 0.23439 0.0
C914 C 0.85261 0.12676 0.23821 0.0
C915 C 0.85788 0.12198 0.21048 0.0
C916 C 0.86111 0.13756 0.19145 0.0
N917 N 0.87065 0.1711 0.14648 0.0
C918 C 0.87339 0.15507 0.13997 0.0
C919 C 0.87982 0.15485 0.11043 0.0
C920 C 0.88106 0.17164 0.09714 0.0
C921 C 0.8752 0.1811 0.11944 0.0
N922 N 0.88932 0.19091 0.20123 0.0
C923 C 0.92892 0.20993 0.22276 0.0
C924 C 0.92098 0.19098 0.20992 0.0
C925 C 0.90141 0.18189 0.19932 0.0
C926 C 0.9166 0.21914 0.22462 0.0
C927 C 0.89705 0.20945 0.21398 0.0
N928 N 0.83335 0.16386 0.17172 0.0
C929 C 0.80657 0.13634 0.1461 0.0
C930 C 0.79356 0.14454 0.15111 0.0
C931 C 0.80095 0.16268 0.1665 0.0
C932 C 0.82067 0.17199 0.17642 0.0
C933 C 0.82617 0.14613 0.15647 0.0
H934 H 0.82531 0.18582 0.18775 0.0
H935 H 0.83522 0.13902 0.15191 0.0
H936 H 0.8964 0.16752 0.18968 0.0
H937 H 0.88845 0.21723 0.21648 0.0
C938 C 0.8542 0.21497 0.21156 0.0
C939 C 0.87337 0.19904 0.11336 0.0
C940 C 0.84936 0.15574 0.25947 0.0
C941 C 0.8685 0.13983 0.16137 0.0
H942 H 0.87217 0.23628 0.11342 0.0
H943 H 0.86157 0.24515 0.16726 0.0
H944 H 0.84133 0.21191 0.27401 0.0
H945 H 0.83848 0.17917 0.29995 0.0
H946 H 0.84929 0.11803 0.25909 0.0
H947 H 0.85972 0.10897 0.20509 0.0
H948 H 0.88275 0.14358 0.09961 0.0
H949 H 0.88537 0.17622 0.07351 0.0
H950 H 0.92993 0.18325 0.20759 0.0
H951 H 0.92188 0.2337 0.23474 0.0
H952 H 0.80162 0.12223 0.13459 0.0
H953 H 0.79166 0.16989 0.17057 0.0
H954 H 0.01081 0.52748 0.39677 0.0
H955 H 0.01089 0.52803 0.3401 0.0
H956 H 0.00967 0.4707 0.33849 0.0
H957 H 0.00884 0.46989 0.39507 0.0
H958 H 0.03633 0.52781 0.29792 0.0
H959 H 0.96576 0.46039 0.27987 0.0
H960 H 0.97323 0.47158 0.31733 0.0
H961 H 0.98297 0.45562 0.30218 0.0
C962 C 0.01041 0.51494 0.38425 0.0
C963 C 0.00981 0.49864 0.40045 0.0
C964 C 0.01051 0.51527 0.35179 0.0
C965 C 0.00993 0.49926 0.33455 0.0
C966 C 0.00958 0.48305 0.35085 0.0
H967 H 0.01673 0.47656 0.13695 0.0
H968 H 0.01615 0.47583 0.19368 0.0
C969 C 0.00933 0.48267 0.38331 0.0
C970 C 0.01018 0.49976 0.29973 0.0
H971 H 0.98607 0.4738 0.23538 0.0
C972 C 0.02522 0.51602 0.28435 0.0
C973 C 0.99575 0.48447 0.28157 0.0
C974 C 0.9784 0.46714 0.29605 0.0
C975 C 0.02646 0.51721 0.25181 0.0
C976 C 0.01216 0.50183 0.23373 0.0
C977 C 0.99712 0.48558 0.24903 0.0
C978 C 0.01253 0.50235 0.19901 0.0
C979 C 0.04338 0.53477 0.23702 0.0
C980 C 0.01047 0.51735 0.18273 0.0
C981 C 0.01064 0.51767 0.15027 0.0
C982 C 0.01285 0.503 0.13318 0.0
C983 C 0.01491 0.48801 0.14943 0.0
C984 C 0.01459 0.4876 0.18189 0.0
H985 H 0.05564 0.5427 0.25349 0.0
H986 H 0.04934 0.53016 0.21677 0.0
H987 H 0.03796 0.54529 0.22891 0.0
H988 H 0.00851 0.52873 0.19515 0.0
H989 H 0.00893 0.52935 0.13846 0.0
H990 H 0.52139 0.49726 0.3897 0.0
H991 H 0.52137 0.49751 0.33302 0.0
H992 H 0.57667 0.55098 0.33312 0.0
H993 H 0.57698 0.55028 0.3897 0.0
H994 H 0.51995 0.52281 0.29191 0.0
H995 H 0.5906 0.51929 0.27307 0.0
H996 H 0.57885 0.51529 0.31045 0.0
H997 H 0.59363 0.54002 0.2963 0.0
C998 C 0.5336 0.50896 0.37755 0.0
C999 C 0.5492 0.52373 0.39422 0.0
C1000 C 0.53358 0.50916 0.34509 0.0
C1001 C 0.54919 0.52407 0.32833 0.0
C1002 C 0.56467 0.53897 0.3451 0.0
H1003 H 0.5726 0.55452 0.13174 0.0
H1004 H 0.57287 0.5539 0.18845 0.0
C1005 C 0.56476 0.5387 0.37755 0.0
C1006 C 0.54899 0.52427 0.29352 0.0
H1007 H 0.57647 0.52656 0.229 0.0
C1008 C 0.53229 0.5235 0.27826 0.0
C1009 C 0.56502 0.52516 0.27524 0.0
C1010 C 0.58295 0.52478 0.28957 0.0
C1011 C 0.53135 0.52399 0.24574 0.0
C1012 C 0.54744 0.52506 0.22754 0.0
C1013 C 0.56413 0.52582 0.24273 0.0
C1014 C 0.54722 0.52537 0.19282 0.0
C1015 C 0.51325 0.52383 0.23113 0.0
C1016 C 0.53289 0.50948 0.17599 0.0
C1017 C 0.53284 0.50977 0.14354 0.0
C1018 C 0.54713 0.52594 0.12699 0.0
C1019 C 0.56147 0.54181 0.14378 0.0
C1020 C 0.56161 0.54146 0.17624 0.0
H1021 H 0.50463 0.52803 0.24783 0.0
H1022 H 0.51743 0.53409 0.21115 0.0
H1023 H 0.50346 0.50871 0.22268 0.0
H1024 H 0.52183 0.4967 0.18796 0.0
H1025 H 0.52165 0.4973 0.13129 0.0
H1026 H 0.53352 0.03096 0.13007 0.0
H1027 H 0.52916 0.03681 0.18463 0.0
H1028 H 0.46703 0.01852 0.16901 0.0
H1029 H 0.47145 0.01253 0.11428 0.0
H1030 H 0.51327 0.06199 0.21163 0.0
H1031 H 0.46899 0.98193 0.2392 0.0
H1032 H 0.48371 0.99027 0.20444 0.0
H1033 H 0.46085 0.99185 0.2078 0.0
C1034 C 0.519 0.02831 0.13843 0.0
C1035 C 0.50278 0.02128 0.1185 0.0
C1036 C 0.51652 0.03169 0.16937 0.0
C1037 C 0.49776 0.02797 0.18073 0.0
C1038 C 0.48157 0.02129 0.16062 0.0
H1039 H 0.47576 0.02391 0.38025 0.0
H1040 H 0.46962 0.02504 0.32503 0.0
C1041 C 0.48407 0.01792 0.12957 0.0
C1042 C 0.49531 0.03046 0.21396 0.0
H1043 H 0.47856 0.00415 0.28055 0.0
C1044 C 0.50541 0.04942 0.22672 0.0
C1045 C 0.4849 0.01401 0.23341 0.0
C1046 C 0.47405 0.99331 0.22072 0.0
C1047 C 0.50614 0.05225 0.25871 0.0
C1048 C 0.49683 0.03564 0.27827 0.0
C1049 C 0.4857 0.01684 0.26542 0.0
C1050 C 0.5005 0.03699 0.3118 0.0
C1051 C 0.51729 0.07292 0.2713 0.0
C1052 C 0.51986 0.04328 0.3225 0.0
C1053 C 0.52339 0.0425 0.35382 0.0
C1054 C 0.50759 0.03529 0.37509 0.0
C1055 C 0.48821 0.02936 0.36438 0.0
C1056 C 0.48469 0.03012 0.33294 0.0
H1057 H 0.51751 0.08406 0.25453 0.0
H1058 H 0.51066 0.07465 0.29331 0.0
H1059 H 0.53288 0.07609 0.27566 0.0
H1060 H 0.5322 0.04807 0.30646 0.0
H1061 H 0.53843 0.04679 0.36119 0.0
H1062 H 0.01858 0.54017 0.63696 0.0
H1063 H 0.0181 0.54049 0.69364 0.0
H1064 H 0.00769 0.47976 0.69487 0.0
H1065 H 0.00786 0.47941 0.63815 0.0
H1066 H 0.98376 0.48589 0.7364 0.0
H1067 H 0.06093 0.54374 0.7522 0.0
H1068 H 0.04644 0.55153 0.72846 0.0
H1069 H 0.05182 0.53194 0.71552 0.0
C1070 C 0.01621 0.52692 0.64939 0.0
C1071 C 0.01327 0.50977 0.63308 0.0
C1072 C 0.01609 0.52713 0.68186 0.0
C1073 C 0.01317 0.51024 0.69892 0.0
C1074 C 0.01006 0.49304 0.68252 0.0
H1075 H 0.03646 0.50644 0.89681 0.0
H1076 H 0.03722 0.50627 0.84008 0.0
C1077 C 0.0102 0.49284 0.65006 0.0
C1078 C 0.01299 0.51034 0.7337 0.0
H1079 H 0.04051 0.53397 0.79706 0.0
C1080 C 0.99621 0.49641 0.74959 0.0
C1081 C 0.02928 0.52383 0.75129 0.0
C1082 C 0.04822 0.53849 0.73606 0.0
C1083 C 0.99513 0.49581 0.78217 0.0
C1084 C 0.01116 0.50972 0.79974 0.0
C1085 C 0.02808 0.52342 0.78386 0.0
C1086 C 0.01077 0.51008 0.8345 0.0
C1087 C 0.97693 0.47994 0.79745 0.0
C1088 C 0.99589 0.51262 0.8507 0.0
C1089 C 0.99548 0.51274 0.88315 0.0
C1090 C 0.00996 0.51037 0.90034 0.0
C1091 C 0.02505 0.50821 0.88422 0.0
C1092 C 0.02549 0.50813 0.85176 0.0
H1093 H 0.96871 0.46737 0.7816 0.0
H1094 H 0.98087 0.47421 0.81847 0.0
H1095 H 0.96683 0.48625 0.80431 0.0
H1096 H 0.98461 0.51466 0.83823 0.0
H1097 H 0.98382 0.51468 0.89489 0.0
H1098 H 0.51078 0.48917 0.63201 0.0
H1099 H 0.51107 0.4892 0.68875 0.0
H1100 H 0.56663 0.54234 0.68768 0.0
H1101 H 0.56632 0.54226 0.631 0.0
H1102 H 0.53869 0.48761 0.73005 0.0
H1103 H 0.53322 0.55742 0.74626 0.0
H1104 H 0.52822 0.5446 0.7098 0.0
H1105 H 0.55334 0.55966 0.72176 0.0
C1106 C 0.52305 0.50082 0.64394 0.0
C1107 C 0.53854 0.5157 0.627 0.0
C1108 C 0.52322 0.50086 0.67641 0.0
C1109 C 0.53873 0.51593 0.69283 0.0
C1110 C 0.55426 0.53074 0.67583 0.0
H1111 H 0.56559 0.54362 0.88909 0.0
H1112 H 0.56545 0.54325 0.83241 0.0
C1113 C 0.55415 0.53065 0.64338 0.0
C1114 C 0.5388 0.51594 0.72756 0.0
H1115 H 0.53939 0.54326 0.79099 0.0
C1116 C 0.53875 0.49975 0.74334 0.0
C1117 C 0.53897 0.53178 0.7452 0.0
C1118 C 0.53826 0.54929 0.72998 0.0
C1119 C 0.53927 0.49913 0.7759 0.0
C1120 C 0.53932 0.51491 0.79359 0.0
C1121 C 0.53936 0.53111 0.77776 0.0
C1122 C 0.5394 0.51499 0.82839 0.0
C1123 C 0.5404 0.48176 0.79091 0.0
C1124 C 0.52473 0.4994 0.84552 0.0
C1125 C 0.52492 0.49956 0.87798 0.0
C1126 C 0.5396 0.51545 0.89427 0.0
C1127 C 0.55411 0.53115 0.87723 0.0
C1128 C 0.55399 0.53095 0.84477 0.0
H1129 H 0.54635 0.47434 0.77476 0.0
H1130 H 0.5499 0.48638 0.81171 0.0
H1131 H 0.52529 0.47074 0.79797 0.0
H1132 H 0.51297 0.48712 0.83381 0.0
H1133 H 0.51353 0.48726 0.89042 0.0
H1134 H 0.56775 1.00238 0.91064 0.0
H1135 H 0.57201 0.99849 0.85521 0.0
H1136 H 0.51517 0.99681 0.83785 0.0
H1137 H 0.51055 0.99963 0.89321 0.0
H1138 H 0.52049 0.97089 0.80242 0.0
H1139 H 0.5873 0.04388 0.79639 0.0
H1140 H 0.58948 0.02625 0.82157 0.0
H1141 H 0.57201 0.03554 0.83049 0.0
C1142 C 0.55609 1.00078 0.89486 0.0
C1143 C 0.53884 1.00127 0.90581 0.0
C1144 C 0.55859 0.99878 0.86331 0.0
C1145 C 0.54409 0.99778 0.84236 0.0
C1146 C 0.52656 0.99759 0.85358 0.0
H1147 H 0.54792 0.03721 0.66022 0.0
H1148 H 0.55029 0.03214 0.7153 0.0
C1149 C 0.52393 0.99925 0.88507 0.0
C1150 C 0.54729 0.99792 0.80865 0.0
H1151 H 0.57612 0.02663 0.74992 0.0
C1152 C 0.53275 0.98296 0.79088 0.0
C1153 C 0.56325 0.0138 0.79374 0.0
C1154 C 0.57882 0.03088 0.81144 0.0
C1155 C 0.53316 0.98391 0.75858 0.0
C1156 C 0.549 0.99991 0.74368 0.0
C1157 C 0.56406 0.01435 0.76144 0.0
C1158 C 0.54908 0.00322 0.71004 0.0
C1159 C 0.51599 0.96843 0.74095 0.0
C1160 C 0.54805 0.98885 0.68873 0.0
C1161 C 0.54636 0.99161 0.65724 0.0
C1162 C 0.54619 0.009 0.64662 0.0
C1163 C 0.54817 0.02374 0.66784 0.0
C1164 C 0.5495 0.02084 0.69928 0.0
H1165 H 0.50299 0.95995 0.75613 0.0
H1166 H 0.51127 0.97525 0.72217 0.0
H1167 H 0.52059 0.9578 0.73045 0.0
H1168 H 0.54824 0.97538 0.69646 0.0
H1169 H 0.54507 0.98014 0.64118 0.0
H1170 H 0.70221 0.82873 0.72919 0.0
H1171 H 0.70285 0.82908 0.6725 0.0
H1172 H 0.70339 0.88611 0.67305 0.0
H1173 H 0.70337 0.88598 0.72968 0.0
H1174 H 0.67765 0.83009 0.63025 0.0
H1175 H 0.74881 0.89757 0.61528 0.0
H1176 H 0.74073 0.88552 0.65213 0.0
H1177 H 0.73123 0.90181 0.63796 0.0
C1178 C 0.70266 0.84141 0.71714 0.0
C1179 C 0.703 0.85744 0.73394 0.0
C1180 C 0.70295 0.84159 0.68468 0.0
C1181 C 0.7036 0.85781 0.66807 0.0
C1182 C 0.70349 0.87364 0.68496 0.0
H1183 H 0.70192 0.8848 0.47137 0.0
H1184 H 0.7015 0.88456 0.5281 0.0
C1185 C 0.70329 0.8735 0.71741 0.0
C1186 C 0.70395 0.85792 0.63328 0.0
H1187 H 0.72945 0.88486 0.57015 0.0
C1188 C 0.68908 0.84204 0.6172 0.0
C1189 C 0.7188 0.87346 0.61582 0.0
C1190 C 0.73591 0.89045 0.63114 0.0
C1191 C 0.68842 0.84145 0.58463 0.0
C1192 C 0.70319 0.85703 0.56723 0.0
C1193 C 0.71805 0.87291 0.58325 0.0
C1194 C 0.70349 0.85713 0.53249 0.0
C1195 C 0.67156 0.82432 0.56912 0.0
C1196 C 0.70505 0.84199 0.51568 0.0
C1197 C 0.70538 0.84218 0.48322 0.0
C1198 C 0.70414 0.8575 0.46667 0.0
C1199 C 0.70282 0.87276 0.48344 0.0
C1200 C 0.70259 0.87262 0.5159 0.0
H1201 H 0.65885 0.81651 0.58512 0.0
H1202 H 0.66628 0.82935 0.54871 0.0
H1203 H 0.67677 0.81356 0.56118 0.0
H1204 H 0.70623 0.83008 0.52767 0.0
H1205 H 0.70667 0.83036 0.47098 0.0
H1206 H 0.21665 0.8491 0.72798 0.0
H1207 H 0.21702 0.84978 0.67125 0.0
H1208 H 0.15774 0.8441 0.67161 0.0
H1209 H 0.15737 0.84336 0.7283 0.0
H1210 H 0.19242 0.8218 0.62861 0.0
H1211 H 0.18724 0.89191 0.61515 0.0
H1212 H 0.19339 0.88442 0.65136 0.0
H1213 H 0.16807 0.87384 0.63885 0.0
C1214 C 0.20371 0.84799 0.71589 0.0
C1215 C 0.18697 0.84617 0.73265 0.0
C1216 C 0.20392 0.84838 0.68344 0.0
C1217 C 0.18751 0.84724 0.66684 0.0
C1218 C 0.17076 0.84537 0.68362 0.0
H1219 H 0.16286 0.81913 0.4698 0.0
H1220 H 0.16278 0.81873 0.52651 0.0
C1221 C 0.17051 0.84486 0.71607 0.0
C1222 C 0.18783 0.8477 0.63211 0.0
H1223 H 0.18399 0.87332 0.56958 0.0
C1224 C 0.19059 0.83309 0.61576 0.0
C1225 C 0.1857 0.86253 0.61502 0.0
C1226 C 0.18362 0.87919 0.63091 0.0
C1227 C 0.19091 0.8327 0.58317 0.0
C1228 C 0.18824 0.84722 0.56608 0.0
C1229 C 0.18585 0.86204 0.58243 0.0
C1230 C 0.18814 0.84743 0.53135 0.0
C1231 C 0.19448 0.8169 0.5673 0.0
C1232 C 0.20209 0.86383 0.51477 0.0
C1233 C 0.20211 0.86405 0.48231 0.0
C1234 C 0.18808 0.84794 0.46557 0.0
C1235 C 0.17394 0.83167 0.48207 0.0
C1236 C 0.17397 0.83141 0.51453 0.0
H1237 H 0.20128 0.8102 0.58307 0.0
H1238 H 0.18012 0.80498 0.55935 0.0
H1239 H 0.2043 0.82296 0.54686 0.0
H1240 H 0.21312 0.87644 0.52698 0.0
H1241 H 0.21308 0.87684 0.47022 0.0
H1242 H 0.22447 0.36678 0.47436 0.0
H1243 H 0.22441 0.36719 0.53098 0.0
H1244 H 0.16786 0.31518 0.53187 0.0
H1245 H 0.16767 0.31522 0.4752 0.0
H1246 H 0.16786 0.34046 0.57414 0.0
H1247 H 0.23685 0.33333 0.58861 0.0
H1248 H 0.24062 0.35455 0.56613 0.0
H1249 H 0.22487 0.33015 0.55179 0.0
C1250 C 0.21205 0.35544 0.4867 0.0
C1251 C 0.19618 0.34085 0.47028 0.0
C1252 C 0.21209 0.35555 0.51915 0.0
C1253 C 0.19635 0.34094 0.53613 0.0
C1254 C 0.1803 0.32656 0.51962 0.0
H1255 H 0.20186 0.31639 0.73314 0.0
H1256 H 0.20102 0.31574 0.67649 0.0
C1257 C 0.18021 0.32652 0.48717 0.0
C1258 C 0.19639 0.3408 0.57092 0.0
H1259 H 0.22373 0.34103 0.6338 0.0
C1260 C 0.18009 0.34053 0.5871 0.0
C1261 C 0.21211 0.34055 0.58827 0.0
C1262 C 0.2295 0.33945 0.57284 0.0
C1263 C 0.17921 0.34035 0.61968 0.0
C1264 C 0.19531 0.34092 0.63702 0.0
C1265 C 0.21145 0.34085 0.62084 0.0
C1266 C 0.19557 0.34125 0.67181 0.0
C1267 C 0.16074 0.33903 0.63513 0.0
C1268 C 0.19298 0.35586 0.68854 0.0
C1269 C 0.19328 0.35609 0.72098 0.0
C1270 C 0.19649 0.34193 0.73764 0.0
C1271 C 0.1993 0.32746 0.72099 0.0
C1272 C 0.19888 0.32715 0.68854 0.0
H1273 H 0.14779 0.33263 0.61946 0.0
H1274 H 0.1571 0.32986 0.65635 0.0
H1275 H 0.16313 0.35409 0.64157 0.0
H1276 H 0.19092 0.36726 0.67652 0.0
H1277 H 0.19111 0.36745 0.73313 0.0
H1278 H 0.72922 0.86285 0.22972 0.0
H1279 H 0.7303 0.86401 0.17305 0.0
H1280 H 0.67601 0.86939 0.1724 0.0
H1281 H 0.67526 0.86874 0.22903 0.0
H1282 H 0.7056 0.84007 0.13002 0.0
H1283 H 0.70967 0.91425 0.11596 0.0
H1284 H 0.71305 0.90521 0.15276 0.0
H1285 H 0.68851 0.89782 0.13812 0.0
C1286 C 0.71761 0.86442 0.21741 0.0
C1287 C 0.70218 0.86574 0.23386 0.0
C1288 C 0.71818 0.86502 0.18497 0.0
C1289 C 0.70341 0.8671 0.16805 0.0
C1290 C 0.68788 0.86826 0.18459 0.0
H1291 H 0.68028 0.8395 0.9703 0.0
H1292 H 0.67934 0.83908 0.02694 0.0
C1293 C 0.68735 0.86771 0.21703 0.0
C1294 C 0.70407 0.86763 0.13329 0.0
H1295 H 0.70363 0.89482 0.07048 0.0
C1296 C 0.70521 0.85209 0.11708 0.0
C1297 C 0.70387 0.88341 0.11601 0.0
C1298 C 0.70391 0.90122 0.13156 0.0
C1299 C 0.70583 0.85171 0.08451 0.0
C1300 C 0.70489 0.86712 0.06721 0.0
C1301 C 0.7041 0.88284 0.08342 0.0
C1302 C 0.70512 0.86743 0.03243 0.0
C1303 C 0.70796 0.83497 0.069 0.0
C1304 C 0.71944 0.88375 0.01614 0.0
C1305 C 0.71982 0.88406 0.98369 0.0
C1306 C 0.70588 0.86809 0.9666 0.0
C1307 C 0.69133 0.85194 0.9828 0.0
C1308 C 0.6909 0.85164 0.01526 0.0
H1309 H 0.71427 0.82784 0.08486 0.0
H1310 H 0.69313 0.82355 0.06177 0.0
H1311 H 0.7176 0.84018 0.04822 0.0
H1312 H 0.73051 0.89622 0.02856 0.0
H1313 H 0.73109 0.8968 0.97187 0.0
H1314 H 0.14818 0.81366 0.97121 0.0
H1315 H 0.14913 0.81362 0.0279 0.0
H1316 H 0.20617 0.86493 0.02571 0.0
H1317 H 0.20524 0.86489 0.96904 0.0
H1318 H 0.17687 0.81044 0.06785 0.0
H1319 H 0.17492 0.88184 0.08626 0.0
H1320 H 0.16875 0.86902 0.04978 0.0
H1321 H 0.19423 0.88313 0.06071 0.0
C1322 C 0.16092 0.82491 0.98287 0.0
C1323 C 0.17666 0.83925 0.96559 0.0
C1324 C 0.16146 0.8249 0.01532 0.0
C1325 C 0.17761 0.83941 0.03143 0.0
C1326 C 0.19335 0.85376 0.01412 0.0
H1327 H 0.20674 0.86574 0.22765 0.0
H1328 H 0.20623 0.86564 0.17097 0.0
C1329 C 0.19286 0.85369 0.98166 0.0
C1330 C 0.17814 0.83929 0.06616 0.0
H1331 H 0.18058 0.86678 0.13032 0.0
C1332 C 0.17759 0.82274 0.08148 0.0
C1333 C 0.17921 0.85533 0.08424 0.0
C1334 C 0.17914 0.87329 0.06952 0.0
C1335 C 0.17846 0.82193 0.11398 0.0
C1336 C 0.17934 0.8379 0.13215 0.0
C1337 C 0.1799 0.85447 0.11676 0.0
C1338 C 0.17971 0.83777 0.16697 0.0
C1339 C 0.17905 0.80414 0.12841 0.0
C1340 C 0.16493 0.8223 0.18414 0.0
C1341 C 0.16535 0.82229 0.21659 0.0
C1342 C 0.18036 0.8379 0.23288 0.0
C1343 C 0.19501 0.85348 0.2158 0.0
C1344 C 0.19467 0.85344 0.18334 0.0
H1345 H 0.18456 0.79655 0.11184 0.0
H1346 H 0.18868 0.80833 0.14907 0.0
H1347 H 0.16384 0.79341 0.13552 0.0
H1348 H 0.15289 0.81026 0.17248 0.0
H1349 H 0.15384 0.81008 0.22905 0.0
H1350 H 0.23145 0.33718 0.97495 0.0
H1351 H 0.2318 0.33827 0.03166 0.0
H1352 H 0.17726 0.34315 0.03157 0.0
H1353 H 0.17703 0.34224 0.97488 0.0
H1354 H 0.23195 0.3683 0.07197 0.0
H1355 H 0.16515 0.29689 0.09159 0.0
H1356 H 0.17802 0.30334 0.05498 0.0
H1357 H 0.16173 0.31364 0.06596 0.0
C1358 C 0.21956 0.33851 0.98708 0.0
C1359 C 0.20424 0.33967 0.9704 0.0
C1360 C 0.21975 0.33912 0.01952 0.0
C1361 C 0.20445 0.34058 0.03618 0.0
C1362 C 0.1891 0.3417 0.01949 0.0
H1363 H 0.17733 0.34189 0.23342 0.0
H1364 H 0.17709 0.34157 0.17674 0.0
C1365 C 0.189 0.34125 0.98705 0.0
C1366 C 0.20475 0.34128 0.07087 0.0
H1367 H 0.17916 0.31679 0.1355 0.0
C1368 C 0.22044 0.35698 0.08585 0.0
C1369 C 0.1897 0.32664 0.08921 0.0
C1370 C 0.17275 0.30906 0.07474 0.0
C1371 C 0.22131 0.35866 0.11834 0.0
C1372 C 0.20638 0.34387 0.13678 0.0
C1373 C 0.19067 0.32817 0.12171 0.0
C1374 C 0.20672 0.34439 0.17158 0.0
C1375 C 0.23797 0.37666 0.13245 0.0
C1376 C 0.22333 0.3459 0.18808 0.0
C1377 C 0.22353 0.34631 0.22052 0.0
C1378 C 0.20699 0.34483 0.23745 0.0
C1379 C 0.19031 0.3431 0.22105 0.0
C1380 C 0.19016 0.34285 0.18859 0.0
H1381 H 0.24415 0.3892 0.11591 0.0
H1382 H 0.23297 0.38151 0.15348 0.0
H1383 H 0.25013 0.37306 0.13887 0.0
H1384 H 0.23613 0.34656 0.1759 0.0
H1385 H 0.2366 0.34765 0.23246 0.0
H1386 H 0.40011 0.19385 0.07269 0.0
H1387 H 0.40448 0.19075 0.01711 0.0
H1388 H 0.36102 0.12945 0.02074 0.0
H1389 H 0.35687 0.13251 0.07649 0.0
H1390 H 0.39589 0.13875 0.98072 0.0
H1391 H 0.35779 0.18544 0.96072 0.0
H1392 H 0.37894 0.19591 0.98564 0.0
H1393 H 0.35723 0.17416 0.99754 0.0
C1394 C 0.39181 0.17967 0.06156 0.0
C1395 C 0.37804 0.16344 0.07833 0.0
C1396 C 0.39428 0.17792 0.03 0.0
C1397 C 0.3829 0.15994 0.01495 0.0
C1398 C 0.36991 0.14341 0.03207 0.0
H1399 H 0.34798 0.14417 0.82555 0.0
H1400 H 0.34981 0.14189 0.88134 0.0
C1401 C 0.36749 0.14516 0.06369 0.0
C1402 C 0.38307 0.15891 0.98103 0.0
H1403 H 0.36979 0.17579 0.91691 0.0
C1404 C 0.39024 0.14684 0.96665 0.0
C1405 C 0.37541 0.16932 0.96299 0.0
C1406 C 0.36674 0.18182 0.9774 0.0
C1407 C 0.39009 0.14504 0.9344 0.0
C1408 C 0.38269 0.15569 0.9164 0.0
C1409 C 0.37549 0.1677 0.93087 0.0
C1410 C 0.38177 0.15443 0.88245 0.0
C1411 C 0.39743 0.13151 0.91985 0.0
C1412 C 0.39917 0.16192 0.86461 0.0
C1413 C 0.39818 0.1631 0.83257 0.0
C1414 C 0.37977 0.15691 0.81796 0.0
C1415 C 0.36237 0.14878 0.83595 0.0
C1416 C 0.36338 0.14757 0.86787 0.0
H1417 H 0.39861 0.12123 0.93697 0.0
H1418 H 0.38743 0.12272 0.90102 0.0
H1419 H 0.41235 0.14052 0.9097 0.0
H1420 H 0.41352 0.16757 0.87553 0.0
H1421 H 0.41183 0.16926 0.8193 0.0
H1422 H 0.83586 0.19352 0.83455 0.0
H1423 H 0.83893 0.19953 0.88998 0.0
H1424 H 0.89952 0.24368 0.87737 0.0
H1425 H 0.89655 0.23773 0.8217 0.0
H1426 H 0.89564 0.21499 0.91826 0.0
H1427 H 0.84172 0.24303 0.9473 0.0
H1428 H 0.83087 0.22095 0.92448 0.0
H1429 H 0.85042 0.24311 0.90838 0.0
C1430 C 0.84965 0.20493 0.84345 0.0
C1431 C 0.86599 0.2151 0.82382 0.0
C1432 C 0.85137 0.2084 0.87514 0.0
C1433 C 0.86938 0.22223 0.88773 0.0
C1434 C 0.88546 0.23302 0.86806 0.0
H1435 H 0.90294 0.22973 0.08306 0.0
H1436 H 0.90344 0.23887 0.02851 0.0
C1437 C 0.88378 0.22953 0.83634 0.0
C1438 C 0.87208 0.2234 0.92152 0.0
H1439 H 0.8513 0.2282 0.98904 0.0
C1440 C 0.88625 0.2183 0.93378 0.0
C1441 C 0.85975 0.22766 0.94162 0.0
C1442 C 0.84497 0.23419 0.92976 0.0
C1443 C 0.88767 0.21623 0.96562 0.0
C1444 C 0.87476 0.21966 0.98565 0.0
C1445 C 0.86113 0.22556 0.97351 0.0
C1446 C 0.87408 0.21554 0.01898 0.0
C1447 C 0.9022 0.20934 0.97748 0.0
C1448 C 0.85724 0.19977 0.0316 0.0
C1449 C 0.85695 0.19465 0.0625 0.0
C1450 C 0.87345 0.20531 0.08114 0.0
C1451 C 0.89012 0.22139 0.06883 0.0
C1452 C 0.89041 0.22654 0.03786 0.0
H1453 H 0.90859 0.20405 0.95863 0.0
H1454 H 0.91455 0.22179 0.98926 0.0
H1455 H 0.89494 0.19722 0.99452 0.0
H1456 H 0.84454 0.19111 0.01731 0.0
H1457 H 0.844 0.18219 0.0718 0.0
H1458 H 0.90758 0.6834 0.06253 0.0
H1459 H 0.91591 0.67598 0.0108 0.0
H1460 H 0.87292 0.69182 0.97131 0.0
H1461 H 0.86441 0.69897 0.02282 0.0
H1462 H 0.8842 0.64611 0.97165 0.0
H1463 H 0.92446 0.71952 0.91602 0.0
H1464 H 0.92362 0.7161 0.95737 0.0
H1465 H 0.90299 0.71654 0.93774 0.0
C1466 C 0.90035 0.68579 0.04263 0.0
C1467 C 0.88544 0.69181 0.04638 0.0
C1468 C 0.90504 0.68148 0.01327 0.0
C1469 C 0.89515 0.68356 0.98741 0.0
C1470 C 0.8809 0.69043 0.99105 0.0
H1471 H 0.84255 0.63924 0.82599 0.0
H1472 H 0.85475 0.64228 0.8787 0.0
C1473 C 0.876 0.69443 0.02036 0.0
C1474 C 0.89778 0.67653 0.95687 0.0
H1475 H 0.90713 0.69178 0.88222 0.0
C1476 C 0.88975 0.65607 0.9521 0.0
C1477 C 0.90526 0.68958 0.93164 0.0
C1478 C 0.91475 0.71169 0.93589 0.0
C1479 C 0.88726 0.64826 0.92222 0.0
C1480 C 0.89289 0.66129 0.89679 0.0
C1481 C 0.90272 0.68179 0.90179 0.0
C1482 C 0.88567 0.65439 0.86536 0.0
C1483 C 0.87761 0.62616 0.91803 0.0
C1484 C 0.89896 0.65962 0.84042 0.0
C1485 C 0.89197 0.6578 0.81027 0.0
C1486 C 0.87165 0.65106 0.80485 0.0
C1487 C 0.85827 0.64441 0.82969 0.0
C1488 C 0.86523 0.64603 0.85975 0.0
H1489 H 0.88045 0.61876 0.93812 0.0
H1490 H 0.86134 0.62058 0.91617 0.0
H1491 H 0.88303 0.62198 0.89674 0.0
H1492 H 0.91479 0.66632 0.84436 0.0
H1493 H 0.90259 0.66327 0.79147 0.0
H1494 H 0.37035 0.23364 0.2864 0.0
H1495 H 0.36557 0.23793 0.34166 0.0
H1496 H 0.34363 0.17521 0.35573 0.0
H1497 H 0.34825 0.17098 0.30064 0.0
H1498 H 0.3214 0.1929 0.38675 0.0
H1499 H 0.40287 0.23262 0.40704 0.0
H1500 H 0.39289 0.24218 0.37766 0.0
H1501 H 0.3926 0.21861 0.37235 0.0
C1502 C 0.36431 0.22085 0.30144 0.0
C1503 C 0.35966 0.20202 0.28981 0.0
C1504 C 0.36165 0.22328 0.3328 0.0
C1505 C 0.3544 0.20689 0.35265 0.0
C1506 C 0.3492 0.188 0.34068 0.0
H1507 H 0.33948 0.16545 0.53334 0.0
H1508 H 0.33673 0.17203 0.47912 0.0
C1509 C 0.35186 0.18558 0.30943 0.0
C1510 C 0.35323 0.20927 0.38624 0.0
H1511 H 0.38208 0.22423 0.4504 0.0
C1512 C 0.33462 0.20003 0.40072 0.0
C1513 C 0.37053 0.21869 0.40424 0.0
C1514 C 0.39091 0.22852 0.38971 0.0
C1515 C 0.3329 0.19923 0.43294 0.0
C1516 C 0.35028 0.20757 0.45094 0.0
C1517 C 0.3688 0.21784 0.43646 0.0
C1518 C 0.34987 0.2038 0.4844 0.0
C1519 C 0.31254 0.18903 0.44738 0.0
C1520 C 0.35839 0.21952 0.50531 0.0
C1521 C 0.36002 0.2158 0.53643 0.0
C1522 C 0.3533 0.1963 0.54704 0.0
C1523 C 0.34444 0.18061 0.52606 0.0
C1524 C 0.34281 0.18434 0.49504 0.0
H1525 H 0.30115 0.18962 0.43198 0.0
H1526 H 0.30862 0.17324 0.45132 0.0
H1527 H 0.31203 0.1958 0.46988 0.0
H1528 H 0.36408 0.23466 0.49742 0.0
H1529 H 0.36675 0.22818 0.55211 0.0
H1530 H 0.88213 0.16737 0.29424 0.0
H1531 H 0.88354 0.16264 0.34998 0.0
H1532 H 0.82 0.12755 0.35256 0.0
H1533 H 0.81867 0.13223 0.29667 0.0
H1534 H 0.86218 0.1763 0.38995 0.0
H1535 H 0.84126 0.09679 0.40871 0.0
H1536 H 0.85096 0.10912 0.37237 0.0
H1537 H 0.82573 0.10216 0.3831 0.0
C1538 C 0.86861 0.15821 0.30673 0.0
C1539 C 0.85032 0.15006 0.29166 0.0
C1540 C 0.86939 0.15552 0.33838 0.0
C1541 C 0.8519 0.14459 0.3552 0.0
C1542 C 0.83368 0.13569 0.33981 0.0
H1543 H 0.82316 0.13522 0.5499 0.0
H1544 H 0.82263 0.13025 0.49403 0.0
C1545 C 0.8329 0.13841 0.3081 0.0
C1546 C 0.85247 0.14491 0.38918 0.0
H1547 H 0.8435 0.11599 0.45322 0.0
C1548 C 0.85825 0.16315 0.40382 0.0
C1549 C 0.84704 0.12765 0.407 0.0
C1550 C 0.84101 0.1078 0.39211 0.0
C1551 C 0.85861 0.16464 0.43597 0.0
C1552 C 0.85349 0.14745 0.45389 0.0
C1553 C 0.84754 0.12913 0.4393 0.0
C1554 C 0.85415 0.14844 0.48787 0.0
C1555 C 0.86404 0.18453 0.45046 0.0
C1556 C 0.87213 0.15982 0.50282 0.0
C1557 C 0.87246 0.16293 0.53453 0.0
C1558 C 0.8548 0.15452 0.55193 0.0
C1559 C 0.83695 0.14221 0.53706 0.0
C1560 C 0.83663 0.13919 0.50524 0.0
H1561 H 0.86263 0.19496 0.43389 0.0
H1562 H 0.85453 0.18306 0.47086 0.0
H1563 H 0.87967 0.19111 0.4582 0.0
H1564 H 0.88583 0.16687 0.48976 0.0
H1565 H 0.88644 0.17263 0.54513 0.0
H1566 H 0.82486 0.71674 0.57384 0.0
H1567 H 0.81123 0.71574 0.52238 0.0
H1568 H 0.86719 0.726 0.48156 0.0
H1569 H 0.88093 0.72737 0.53276 0.0
H1570 H 0.84539 0.74276 0.4478 0.0
H1571 H 0.80086 0.66316 0.47883 0.0
H1572 H 0.79848 0.68151 0.50237 0.0
H1573 H 0.82126 0.67962 0.50232 0.0
C1574 C 0.83448 0.71964 0.55391 0.0
C1575 C 0.85384 0.72182 0.5571 0.0
C1576 C 0.82664 0.71893 0.52458 0.0
C1577 C 0.83811 0.72039 0.49829 0.0
C1578 C 0.85809 0.72477 0.50162 0.0
H1579 H 0.84964 0.6716 0.34206 0.0
H1580 H 0.84331 0.68151 0.39297 0.0
C1581 C 0.86591 0.72545 0.53083 0.0
C1582 C 0.8289 0.71389 0.46779 0.0
H1583 H 0.80477 0.6713 0.42661 0.0
C1584 C 0.83589 0.72726 0.44311 0.0
C1585 C 0.8166 0.6936 0.46192 0.0
C1586 C 0.80886 0.67854 0.48762 0.0
C1587 C 0.83231 0.7206 0.41251 0.0
C1588 C 0.82151 0.70012 0.40675 0.0
C1589 C 0.813 0.68699 0.43135 0.0
C1590 C 0.82268 0.69182 0.37653 0.0
C1591 C 0.84163 0.73521 0.38659 0.0
C1592 C 0.81265 0.6938 0.35077 0.0
C1593 C 0.81615 0.68799 0.32168 0.0
C1594 C 0.82983 0.68033 0.31817 0.0
C1595 C 0.83907 0.67751 0.34427 0.0
C1596 C 0.83545 0.68312 0.37325 0.0
H1597 H 0.84985 0.75064 0.39506 0.0
H1598 H 0.85204 0.7314 0.37336 0.0
H1599 H 0.82997 0.73442 0.37048 0.0
H1600 H 0.80272 0.70046 0.35301 0.0
H1601 H 0.80901 0.69047 0.30175 0.0
H1602 H 0.07893 0.48535 0.94857 0.0
H1603 H 0.09775 0.4685 0.92966 0.0
H1604 H 0.06397 0.41902 0.98929 0.0
H1605 H 0.04514 0.43584 0.00857 0.0
H1606 H 0.12121 0.4554 0.96216 0.0
H1607 H 0.05877 0.39271 0.90511 0.0
H1608 H 0.05725 0.41474 0.91731 0.0
H1609 H 0.05444 0.39603 0.94497 0.0
C1610 C 0.07558 0.47095 0.9579 0.0
C1611 C 0.06047 0.46197 0.98013 0.0
C1612 C 0.08629 0.46129 0.94691 0.0
C1613 C 0.08209 0.44237 0.9577 0.0
C1614 C 0.06718 0.43342 0.9801 0.0
H1615 H 0.13178 0.36122 0.92137 0.0
H1616 H 0.11276 0.37787 0.94021 0.0
C1617 C 0.05643 0.44307 0.99112 0.0
C1618 C 0.09362 0.43225 0.9459 0.0
H1619 H 0.0892 0.39097 0.90791 0.0
C1620 C 0.11423 0.44135 0.95018 0.0
C1621 C 0.08449 0.41391 0.9303 0.0
C1622 C 0.06255 0.40382 0.92385 0.0
C1623 C 0.12591 0.43245 0.93978 0.0
C1624 C 0.11679 0.41412 0.92415 0.0
C1625 C 0.09617 0.40502 0.91989 0.0
C1626 C 0.12834 0.40405 0.91226 0.0
C1627 C 0.14785 0.44255 0.94625 0.0
C1628 C 0.14326 0.41309 0.8899 0.0
C1629 C 0.15413 0.40356 0.87893 0.0
C1630 C 0.15021 0.38469 0.88993 0.0
C1631 C 0.13506 0.3756 0.91205 0.0
C1632 C 0.12422 0.38515 0.923 0.0
H1633 H 0.15161 0.4536 0.96506 0.0
H1634 H 0.15316 0.43162 0.95271 0.0
H1635 H 0.15596 0.45039 0.92517 0.0
H1636 H 0.14641 0.42749 0.88074 0.0
H1637 H 0.16545 0.41087 0.86155 0.0
H1638 H 0.63554 0.76396 0.86237 0.0
H1639 H 0.61963 0.72993 0.88153 0.0
H1640 H 0.67245 0.74079 0.93192 0.0
H1641 H 0.68824 0.775 0.91375 0.0
H1642 H 0.63049 0.69986 0.87444 0.0
H1643 H 0.62986 0.71767 0.99842 0.0
H1644 H 0.63485 0.73575 0.96836 0.0
H1645 H 0.65395 0.72952 0.9807 0.0
C1646 C 0.64373 0.75923 0.87782 0.0
C1647 C 0.6632 0.77239 0.88659 0.0
C1648 C 0.63463 0.73967 0.8886 0.0
C1649 C 0.64468 0.73281 0.90861 0.0
C1650 C 0.66421 0.74578 0.91702 0.0
H1651 H 0.61452 0.61969 0.99841 0.0
H1652 H 0.63092 0.65372 0.97919 0.0
C1653 C 0.67333 0.76533 0.90624 0.0
C1654 C 0.63484 0.71202 0.92024 0.0
H1655 H 0.62051 0.68414 0.9861 0.0
C1656 C 0.62823 0.69643 0.89886 0.0
C1657 C 0.6319 0.70747 0.95212 0.0
C1658 C 0.63783 0.72346 0.97626 0.0
C1659 C 0.61912 0.67653 0.90842 0.0
C1660 C 0.61615 0.67199 0.9403 0.0
C1661 C 0.62279 0.68757 0.96169 0.0
C1662 C 0.60608 0.6512 0.9519 0.0
C1663 C 0.61318 0.66055 0.88428 0.0
C1664 C 0.58652 0.63843 0.94337 0.0
C1665 C 0.57712 0.61891 0.95419 0.0
C1666 C 0.58699 0.61165 0.97401 0.0
C1667 C 0.60651 0.62459 0.98285 0.0
C1668 C 0.6159 0.64413 0.97202 0.0
H1669 H 0.62127 0.66631 0.8622 0.0
H1670 H 0.616 0.64817 0.89226 0.0
H1671 H 0.5971 0.65463 0.87965 0.0
H1672 H 0.57845 0.64358 0.92837 0.0
H1673 H 0.56218 0.60941 0.94659 0.0
H1674 H 0.28027 0.9116 0.85106 0.0
H1675 H 0.31487 0.92865 0.86755 0.0
H1676 H 0.30405 0.88181 0.93236 0.0
H1677 H 0.26954 0.86461 0.91578 0.0
H1678 H 0.33082 0.94331 0.92289 0.0
H1679 H 0.3528 0.88558 0.88921 0.0
H1680 H 0.32981 0.88499 0.87698 0.0
H1681 H 0.33187 0.8765 0.91488 0.0
C1682 C 0.28524 0.90491 0.86883 0.0
C1683 C 0.27209 0.88662 0.8819 0.0
C1684 C 0.30508 0.91466 0.87818 0.0
C1685 C 0.31228 0.90639 0.90082 0.0
C1686 C 0.29911 0.88827 0.91421 0.0
H1687 H 0.42329 0.94534 0.99985 0.0
H1688 H 0.3892 0.92833 0.9813 0.0
C1689 C 0.27931 0.87845 0.90473 0.0
C1690 C 0.33336 0.91699 0.91106 0.0
H1691 H 0.37556 0.91172 0.92063 0.0
C1692 C 0.34062 0.93643 0.92215 0.0
C1693 C 0.34625 0.90808 0.91014 0.0
C1694 C 0.33988 0.88772 0.89688 0.0
C1695 C 0.36017 0.94699 0.93292 0.0
C1696 C 0.37294 0.93798 0.93236 0.0
C1697 C 0.36574 0.91859 0.92118 0.0
C1698 C 0.39379 0.94841 0.94338 0.0
C1699 C 0.36691 0.96758 0.94547 0.0
C1700 C 0.40785 0.96525 0.92802 0.0
C1701 C 0.42748 0.97492 0.93833 0.0
C1702 C 0.43356 0.96798 0.96432 0.0
C1703 C 0.41937 0.95102 0.97954 0.0
C1704 C 0.39978 0.94131 0.96908 0.0
H1705 H 0.35424 0.97076 0.95046 0.0
H1706 H 0.37558 0.9697 0.96691 0.0
H1707 H 0.37665 0.97849 0.92821 0.0
H1708 H 0.40368 0.9708 0.90779 0.0
H1709 H 0.43797 0.98766 0.92558 0.0
H1710 H 0.47368 0.0537 0.50889 0.0
H1711 H 0.45495 0.07101 0.52732 0.0
H1712 H 0.48212 0.07827 0.61664 0.0
H1713 H 0.50069 0.06078 0.5982 0.0
H1714 H 0.44059 0.06499 0.61886 0.0
H1715 H 0.47797 0.13078 0.54325 0.0
H1716 H 0.46771 0.10749 0.52341 0.0
H1717 H 0.48787 0.11349 0.54972 0.0
C1718 C 0.47558 0.05903 0.53242 0.0
C1719 C 0.4886 0.05608 0.55217 0.0
C1720 C 0.46501 0.06898 0.54288 0.0
C1721 C 0.46737 0.0762 0.57322 0.0
C1722 C 0.48016 0.07293 0.59311 0.0
H1723 H 0.41744 0.13932 0.68326 0.0
H1724 H 0.43529 0.1212 0.6647 0.0
C1725 C 0.49075 0.063 0.58262 0.0
C1726 C 0.45634 0.08698 0.58435 0.0
H1727 H 0.45041 0.12845 0.57234 0.0
C1728 C 0.44278 0.0789 0.60878 0.0
C1729 C 0.45918 0.1051 0.57111 0.0
C1730 C 0.47409 0.11486 0.5456 0.0
C1731 C 0.43173 0.08829 0.62 0.0
C1732 C 0.43463 0.10647 0.60686 0.0
C1733 C 0.44818 0.11452 0.58238 0.0
C1734 C 0.42384 0.11744 0.61824 0.0
C1735 C 0.41673 0.07841 0.64536 0.0
C1736 C 0.4119 0.12185 0.59814 0.0
C1737 C 0.40188 0.13234 0.60867 0.0
C1738 C 0.40368 0.13864 0.63945 0.0
C1739 C 0.41576 0.13444 0.65949 0.0
C1740 C 0.42582 0.124 0.64895 0.0
H1741 H 0.41238 0.06235 0.64684 0.0
H1742 H 0.42329 0.08521 0.66779 0.0
H1743 H 0.40319 0.08032 0.64178 0.0
H1744 H 0.41025 0.11707 0.57432 0.0
H1745 H 0.39272 0.13555 0.59283 0.0
H1746 H 0.90338 0.24618 0.60385 0.0
H1747 H 0.91999 0.2803 0.5845 0.0
H1748 H 0.90071 0.30006 0.66549 0.0
H1749 H 0.8848 0.26607 0.68528 0.0
H1750 H 0.90605 0.30559 0.56891 0.0
H1751 H 0.9584 0.33831 0.66542 0.0
H1752 H 0.94403 0.31197 0.66071 0.0
H1753 H 0.93309 0.32627 0.67819 0.0
C1754 C 0.9029 0.25789 0.61757 0.0
C1755 C 0.89299 0.25357 0.64616 0.0
C1756 C 0.91232 0.27737 0.60649 0.0
C1757 C 0.91201 0.29295 0.62375 0.0
C1758 C 0.90173 0.2885 0.65208 0.0
H1759 H 0.95163 0.41854 0.59132 0.0
H1760 H 0.93563 0.38432 0.60988 0.0
C1761 C 0.89247 0.26906 0.66328 0.0
C1762 C 0.922 0.3137 0.61175 0.0
H1763 H 0.9556 0.36098 0.63022 0.0
C1764 C 0.91699 0.31765 0.58227 0.0
C1765 C 0.93636 0.32955 0.62903 0.0
C1766 C 0.94345 0.32631 0.65995 0.0
C1767 C 0.92557 0.33693 0.56999 0.0
C1768 C 0.93965 0.35276 0.58749 0.0
C1769 C 0.94473 0.34886 0.61687 0.0
C1770 C 0.94924 0.37349 0.57574 0.0
C1771 C 0.91923 0.34033 0.53859 0.0
C1772 C 0.96235 0.37887 0.55047 0.0
C1773 C 0.97159 0.39846 0.53983 0.0
C1774 C 0.96784 0.41312 0.55413 0.0
C1775 C 0.95467 0.40763 0.57945 0.0
C1776 C 0.94559 0.38808 0.59023 0.0
H1777 H 0.90554 0.32742 0.53067 0.0
H1778 H 0.91661 0.35359 0.5388 0.0
H1779 H 0.93121 0.34298 0.52162 0.0
H1780 H 0.96558 0.36793 0.53911 0.0
H1781 H 0.98154 0.4021 0.5202 0.0
H1782 H 0.77811 0.63124 0.68683 0.0
H1783 H 0.74465 0.61434 0.66501 0.0
H1784 H 0.76807 0.63932 0.57578 0.0
H1785 H 0.80148 0.65649 0.59784 0.0
H1786 H 0.73415 0.64236 0.5903 0.0
H1787 H 0.72213 0.56565 0.61025 0.0
H1788 H 0.72858 0.58047 0.64454 0.0
H1789 H 0.74621 0.58671 0.61341 0.0
C1790 C 0.77604 0.63303 0.66256 0.0
C1791 C 0.79228 0.64512 0.64397 0.0
C1792 C 0.75697 0.62329 0.65004 0.0
C1793 C 0.7538 0.62527 0.61859 0.0
C1794 C 0.77009 0.63745 0.60004 0.0
H1795 H 0.64559 0.551 0.5176 0.0
H1796 H 0.67958 0.5681 0.53665 0.0
C1797 C 0.78916 0.64721 0.61259 0.0
C1798 C 0.73347 0.61504 0.60521 0.0
H1799 H 0.69394 0.56955 0.59513 0.0
C1800 C 0.7254 0.62643 0.59126 0.0
C1801 C 0.72208 0.59421 0.60602 0.0
C1802 C 0.73023 0.581 0.61908 0.0
C1803 C 0.70618 0.61766 0.57876 0.0
C1804 C 0.69451 0.5969 0.58061 0.0
C1805 C 0.70275 0.58547 0.59396 0.0
C1806 C 0.67377 0.58673 0.56875 0.0
C1807 C 0.69868 0.63071 0.56322 0.0
C1808 C 0.65902 0.5913 0.58057 0.0
C1809 C 0.6395 0.58147 0.56979 0.0
C1810 C 0.63417 0.5667 0.54702 0.0
C1811 C 0.649 0.56211 0.53533 0.0
C1812 C 0.66852 0.57195 0.54613 0.0
H1813 H 0.71104 0.6451 0.55612 0.0
H1814 H 0.68977 0.62338 0.54256 0.0
H1815 H 0.6891 0.63378 0.57959 0.0
H1816 H 0.66252 0.60227 0.59856 0.0
H1817 H 0.62848 0.58517 0.57986 0.0
H1818 H 0.87904 0.64385 0.1097 0.0
H1819 H 0.89445 0.62457 0.08643 0.0
H1820 H 0.90562 0.60884 0.17717 0.0
H1821 H 0.89019 0.62812 0.20036 0.0
H1822 H 0.93895 0.62319 0.13693 0.0
H1823 H 0.87238 0.56381 0.08224 0.0
H1824 H 0.87685 0.58858 0.07316 0.0
H1825 H 0.87077 0.57969 0.11204 0.0
C1826 C 0.88465 0.63608 0.12454 0.0
C1827 C 0.88354 0.63741 0.15672 0.0
C1828 C 0.89337 0.62505 0.1113 0.0
C1829 C 0.90103 0.6151 0.13006 0.0
C1830 C 0.89977 0.61635 0.16226 0.0
H1831 H 0.94132 0.52808 0.08165 0.0
H1832 H 0.9237 0.54583 0.10195 0.0
C1833 C 0.89098 0.62731 0.17549 0.0
C1834 C 0.911 0.604 0.11621 0.0
H1835 H 0.90332 0.56452 0.07029 0.0
C1836 C 0.93116 0.61036 0.12237 0.0
C1837 C 0.90078 0.58716 0.09743 0.0
C1838 C 0.87896 0.57924 0.09095 0.0
C1839 C 0.94143 0.60048 0.11001 0.0
C1840 C 0.93132 0.58387 0.09072 0.0
C1841 C 0.91109 0.57735 0.08485 0.0
C1842 C 0.94144 0.57286 0.07703 0.0
C1843 C 0.96295 0.60768 0.1181 0.0
C1844 C 0.957 0.58202 0.05574 0.0
C1845 C 0.96702 0.57185 0.04385 0.0
C1846 C 0.96168 0.55227 0.05296 0.0
C1847 C 0.94573 0.54302 0.07377 0.0
C1848 C 0.93569 0.55319 0.08557 0.0
H1849 H 0.9673 0.61771 0.13836 0.0
H1850 H 0.96611 0.59505 0.12311 0.0
H1851 H 0.97233 0.61594 0.09822 0.0
H1852 H 0.96145 0.59707 0.04838 0.0
H1853 H 0.97894 0.57935 0.02744 0.0
H1854 H 0.43863 0.27999 0.16804 0.0
H1855 H 0.45641 0.31386 0.14862 0.0
H1856 H 0.41387 0.30001 0.07561 0.0
H1857 H 0.39623 0.26601 0.09431 0.0
H1858 H 0.47334 0.32751 0.08835 0.0
H1859 H 0.41454 0.34955 0.11707 0.0
H1860 H 0.4151 0.32799 0.13357 0.0
H1861 H 0.40655 0.32727 0.09483 0.0
C1862 C 0.43311 0.28402 0.14765 0.0
C1863 C 0.41584 0.27012 0.13292 0.0
C1864 C 0.44327 0.30347 0.13668 0.0
C1865 C 0.43634 0.3096 0.11092 0.0
C1866 C 0.41929 0.29577 0.09591 0.0
H1867 H 0.4741 0.42196 0.0147 0.0
H1868 H 0.45693 0.38763 0.03241 0.0
C1869 C 0.40917 0.27629 0.10674 0.0
C1870 C 0.44705 0.33037 0.09956 0.0
H1871 H 0.44203 0.37246 0.08842 0.0
C1872 C 0.46653 0.33737 0.08845 0.0
C1873 C 0.43814 0.34322 0.09956 0.0
C1874 C 0.41749 0.33676 0.11211 0.0
C1875 C 0.47721 0.35672 0.07686 0.0
C1876 C 0.46837 0.36966 0.07707 0.0
C1877 C 0.44885 0.36261 0.08819 0.0
C1878 C 0.47908 0.39057 0.06605 0.0
C1879 C 0.49768 0.36289 0.06372 0.0
C1880 C 0.49718 0.40384 0.07922 0.0
C1881 C 0.50706 0.4235 0.06907 0.0
C1882 C 0.49898 0.43047 0.04574 0.0
C1883 C 0.48072 0.4172 0.03284 0.0
C1884 C 0.4709 0.39751 0.04289 0.0
H1885 H 0.49983 0.3499 0.05676 0.0
H1886 H 0.50051 0.37268 0.04338 0.0
H1887 H 0.50885 0.37109 0.08156 0.0
H1888 H 0.50357 0.3991 0.09772 0.0
H1889 H 0.52086 0.43335 0.08001 0.0
H1890 H 0.77904 0.12394 0.09722 0.0
H1891 H 0.74462 0.10726 0.07992 0.0
H1892 H 0.72584 0.12506 0.16329 0.0
H1893 H 0.76017 0.14169 0.18085 0.0
H1894 H 0.71181 0.07678 0.10595 0.0
H1895 H 0.7002 0.14363 0.09722 0.0
H1896 H 0.72446 0.14495 0.10138 0.0
H1897 H 0.70853 0.14041 0.13446 0.0
C1898 C 0.76761 0.12423 0.11201 0.0
C1899 C 0.77251 0.1343 0.14043 0.0
C1900 C 0.7479 0.11474 0.10199 0.0
C1901 C 0.7326 0.11514 0.12002 0.0
C1902 C 0.73738 0.12493 0.14856 0.0
H1903 H 0.60582 0.03694 0.10055 0.0
H1904 H 0.64033 0.05362 0.11738 0.0
C1905 C 0.75708 0.13446 0.15859 0.0
C1906 C 0.71164 0.105 0.10921 0.0
H1907 H 0.6716 0.11267 0.09222 0.0
C1908 C 0.70304 0.08465 0.10288 0.0
C1909 C 0.70021 0.11527 0.10477 0.0
C1910 C 0.70884 0.1373 0.10951 0.0
C1911 C 0.68332 0.07426 0.09276 0.0
C1912 C 0.67168 0.0844 0.08931 0.0
C1913 C 0.68039 0.10481 0.09515 0.0
C1914 C 0.65058 0.07419 0.07917 0.0
C1915 C 0.67526 0.05258 0.08527 0.0
C1916 C 0.64462 0.08046 0.05249 0.0
C1917 C 0.62484 0.07097 0.04283 0.0
C1918 C 0.61048 0.055 0.0597 0.0
C1919 C 0.61648 0.04891 0.08663 0.0
C1920 C 0.63626 0.05844 0.0963 0.0
H1921 H 0.68733 0.04838 0.08098 0.0
H1922 H 0.6663 0.04372 0.10507 0.0
H1923 H 0.66558 0.04863 0.06467 0.0
H1924 H 0.65534 0.09259 0.03889 0.0
H1925 H 0.62089 0.07597 0.02182 0.0
H1926 H 0.58492 0.99555 0.50851 0.0
H1927 H 0.60443 0.97941 0.48909 0.0
H1928 H 0.5681 0.96117 0.40758 0.0
H1929 H 0.5495 0.97845 0.42617 0.0
H1930 H 0.59553 0.94316 0.47783 0.0
H1931 H 0.62084 0.98342 0.36751 0.0
H1932 H 0.60856 0.99082 0.3968 0.0
H1933 H 0.59434 0.97126 0.37024 0.0
C1934 C 0.58134 0.9883 0.48627 0.0
C1935 C 0.56584 0.98832 0.4687 0.0
C1936 C 0.5924 0.979 0.47521 0.0
C1937 C 0.58806 0.96934 0.4465 0.0
C1938 C 0.57224 0.96902 0.42928 0.0
H1939 H 0.62782 0.88119 0.39865 0.0
H1940 H 0.60898 0.89839 0.41499 0.0
C1941 C 0.56145 0.97867 0.44005 0.0
C1942 C 0.59968 0.95911 0.4352 0.0
H1943 H 0.62509 0.95429 0.37297 0.0
C1944 C 0.60211 0.94573 0.45495 0.0
C1945 C 0.60861 0.96262 0.40554 0.0
C1946 C 0.60815 0.97798 0.38396 0.0
C1947 C 0.61296 0.93567 0.44588 0.0
C1948 C 0.62097 0.93837 0.41562 0.0
C1949 C 0.61875 0.95193 0.39599 0.0
C1950 C 0.63206 0.92766 0.40407 0.0
C1951 C 0.61617 0.92271 0.46927 0.0
C1952 C 0.65097 0.93815 0.39078 0.0
C1953 C 0.66156 0.92824 0.3802 0.0
C1954 C 0.65363 0.90754 0.38293 0.0
C1955 C 0.6345 0.89706 0.39576 0.0
C1956 C 0.62377 0.90696 0.40578 0.0
H1957 H 0.61501 0.92733 0.49322 0.0
H1958 H 0.60457 0.90724 0.46646 0.0
H1959 H 0.63091 0.9231 0.46631 0.0
H1960 H 0.65767 0.95409 0.3888 0.0
H1961 H 0.67597 0.93689 0.36978 0.0
H1962 H 0.07845 0.58951 0.45245 0.0
H1963 H 0.09565 0.62358 0.43388 0.0
H1964 H 0.05371 0.63747 0.48246 0.0
H1965 H 0.03682 0.6036 0.50208 0.0
H1966 H 0.08215 0.64449 0.39782 0.0
H1967 H 0.10625 0.68147 0.51107 0.0
H1968 H 0.09686 0.65513 0.50628 0.0
H1969 H 0.08004 0.66586 0.50862 0.0
C1970 C 0.07303 0.59985 0.45966 0.0
C1971 C 0.05627 0.59371 0.47904 0.0
C1972 C 0.08281 0.61934 0.44876 0.0
C1973 C 0.07619 0.63325 0.45706 0.0
C1974 C 0.05937 0.62717 0.47616 0.0
H1975 H 0.10952 0.74632 0.36346 0.0
H1976 H 0.09198 0.71248 0.38309 0.0
C1977 C 0.04957 0.60767 0.48709 0.0
C1978 C 0.08666 0.65397 0.44518 0.0
H1979 H 0.11104 0.70232 0.46784 0.0
C1980 C 0.08848 0.65713 0.41315 0.0
C1981 C 0.09518 0.67051 0.46511 0.0
C1982 C 0.09469 0.66814 0.49968 0.0
C1983 C 0.09833 0.67629 0.40055 0.0
C1984 C 0.10636 0.69286 0.42047 0.0
C1985 C 0.10474 0.68968 0.45251 0.0
C1986 C 0.11691 0.71357 0.40861 0.0
C1987 C 0.10044 0.67855 0.36598 0.0
C1988 C 0.13665 0.72575 0.41699 0.0
C1989 C 0.14667 0.74522 0.40608 0.0
C1990 C 0.13719 0.75309 0.3866 0.0
C1991 C 0.11732 0.74089 0.37851 0.0
C1992 C 0.10731 0.7214 0.38945 0.0
H1993 H 0.09831 0.66461 0.35457 0.0
H1994 H 0.08902 0.68253 0.35704 0.0
H1995 H 0.11524 0.69046 0.35938 0.0
H1996 H 0.14437 0.72016 0.43192 0.0
H1997 H 0.1618 0.75419 0.41335 0.0
H1998 H 0.28766 0.40916 0.419 0.0
H1999 H 0.322 0.42678 0.4363 0.0
H2000 H 0.33735 0.38863 0.38055 0.0
H2001 H 0.30316 0.37129 0.36236 0.0
H2002 H 0.34458 0.4125 0.46794 0.0
H2003 H 0.37946 0.44337 0.35488 0.0
H2004 H 0.35307 0.43293 0.36132 0.0
H2005 H 0.36455 0.41704 0.35501 0.0
C2006 C 0.29836 0.40467 0.40999 0.0
C2007 C 0.29255 0.38884 0.38902 0.0
C2008 C 0.31801 0.41469 0.42013 0.0
C2009 C 0.3324 0.40927 0.40944 0.0
C2010 C 0.32665 0.39337 0.38873 0.0
H2011 H 0.45859 0.4521 0.44458 0.0
H2012 H 0.42427 0.43399 0.42738 0.0
C2013 C 0.30699 0.3833 0.3786 0.0
C2014 C 0.35328 0.41996 0.42053 0.0
H2015 H 0.4012 0.44738 0.39635 0.0
C2016 C 0.35695 0.4202 0.45229 0.0
C2017 C 0.36948 0.42999 0.40016 0.0
C2018 C 0.36651 0.43103 0.36597 0.0
C2019 C 0.37631 0.42984 0.46413 0.0
C2020 C 0.39252 0.43993 0.44377 0.0
C2021 C 0.38884 0.43966 0.412 0.0
C2022 C 0.41337 0.45083 0.45491 0.0
C2023 C 0.37926 0.42872 0.49831 0.0
C2024 C 0.41885 0.46651 0.47597 0.0
C2025 C 0.43849 0.47682 0.4861 0.0
C2026 C 0.45321 0.47181 0.47527 0.0
C2027 C 0.44767 0.4562 0.45393 0.0
C2028 C 0.42804 0.4459 0.44384 0.0
H2029 H 0.36644 0.41611 0.5092 0.0
H2030 H 0.39289 0.42717 0.50299 0.0
H2031 H 0.38079 0.4425 0.50945 0.0
H2032 H 0.40795 0.47091 0.48443 0.0
H2033 H 0.44207 0.48864 0.50265 0.0
H2034 H 0.84034 0.7537 0.17749 0.0
H2035 H 0.82395 0.77165 0.20205 0.0
H2036 H 0.79841 0.7256 0.27054 0.0
H2037 H 0.8152 0.70796 0.24633 0.0
H2038 H 0.78434 0.75943 0.2102 0.0
H2039 H 0.82123 0.77458 0.32418 0.0
H2040 H 0.83034 0.76634 0.29145 0.0
H2041 H 0.80962 0.74895 0.31357 0.0
C2042 C 0.83144 0.74765 0.19805 0.0
C2043 C 0.8292 0.72968 0.21038 0.0
C2044 C 0.82204 0.75781 0.21199 0.0
C2045 C 0.8102 0.75017 0.23849 0.0
C2046 C 0.80784 0.73207 0.25063 0.0
H2047 H 0.73643 0.78955 0.34595 0.0
H2048 H 0.7532 0.77101 0.32506 0.0
C2049 C 0.8173 0.72194 0.23673 0.0
C2050 C 0.79965 0.76073 0.25244 0.0
H2051 H 0.79423 0.78219 0.3189 0.0
C2052 C 0.78658 0.76448 0.23394 0.0
C2053 C 0.80244 0.76718 0.28351 0.0
C2054 C 0.81679 0.76424 0.3043 0.0
C2055 C 0.77616 0.77437 0.24561 0.0
C2056 C 0.77911 0.78104 0.27653 0.0
C2057 C 0.79199 0.7771 0.2952 0.0
C2058 C 0.76924 0.79246 0.28964 0.0
C2059 C 0.7618 0.77732 0.22483 0.0
C2060 C 0.77291 0.81082 0.27701 0.0
C2061 C 0.7633 0.82139 0.28878 0.0
C2062 C 0.74986 0.8139 0.31361 0.0
C2063 C 0.74647 0.79564 0.32657 0.0
C2064 C 0.75614 0.78508 0.31479 0.0
H2065 H 0.75726 0.76688 0.20507 0.0
H2066 H 0.74832 0.77534 0.23776 0.0
H2067 H 0.76902 0.79257 0.21542 0.0
H2068 H 0.78319 0.81696 0.25792 0.0
H2069 H 0.76615 0.83528 0.27798 0.0
H2070 H 0.34188 0.08509 0.21564 0.0
H2071 H 0.32303 0.05092 0.23341 0.0
H2072 H 0.27903 0.06542 0.27359 0.0
H2073 H 0.29768 0.09952 0.25565 0.0
H2074 H 0.31246 0.03523 0.29042 0.0
H2075 H 0.24446 0.01762 0.22336 0.0
H2076 H 0.26733 0.03964 0.21651 0.0
H2077 H 0.25129 0.03871 0.24793 0.0
C2078 C 0.32822 0.08104 0.22836 0.0
C2079 C 0.32126 0.09509 0.23398 0.0
C2080 C 0.3174 0.06144 0.23843 0.0
C2081 C 0.29934 0.05538 0.25434 0.0
C2082 C 0.29258 0.06949 0.26058 0.0
H2083 H 0.21515 0.94455 0.33981 0.0
H2084 H 0.23394 0.97889 0.32291 0.0
C2085 C 0.30332 0.08904 0.25035 0.0
C2086 C 0.28783 0.03444 0.26488 0.0
H2087 H 0.24236 0.994 0.261 0.0
C2088 C 0.29717 0.02621 0.28383 0.0
C2089 C 0.26783 0.02256 0.25634 0.0
C2090 C 0.25718 0.02999 0.23468 0.0
C2091 C 0.28703 0.00666 0.29481 0.0
C2092 C 0.26703 0.99486 0.28643 0.0
C2093 C 0.25766 1.00306 0.26755 0.0
C2094 C 0.25564 0.97391 0.2967 0.0
C2095 C 0.29771 0.99888 0.3158 0.0
C2096 C 0.26139 0.95954 0.28729 0.0
C2097 C 0.25056 0.93981 0.29664 0.0
C2098 C 0.23365 0.9339 0.31568 0.0
C2099 C 0.2279 0.94837 0.32491 0.0
C2100 C 0.2387 0.9681 0.3154 0.0
H2101 H 0.3112 0.01101 0.3259 0.0
H2102 H 0.28783 0.98997 0.33483 0.0
H2103 H 0.30232 0.98919 0.30238 0.0
H2104 H 0.27415 0.96355 0.27233 0.0
H2105 H 0.25527 0.92913 0.28842 0.0
H2106 H 0.11231 0.32224 0.29163 0.0
H2107 H 0.07782 0.30548 0.27515 0.0
H2108 H 0.06942 0.25358 0.32619 0.0
H2109 H 0.10362 0.27056 0.34412 0.0
H2110 H 0.05861 0.27276 0.24112 0.0
H2111 H 0.02249 0.26034 0.35603 0.0
H2112 H 0.04854 0.27649 0.35039 0.0
H2113 H 0.03966 0.25016 0.3527 0.0
C2114 C 0.10308 0.30739 0.29993 0.0
C2115 C 0.11089 0.29791 0.31955 0.0
C2116 C 0.08334 0.29774 0.29019 0.0
C2117 C 0.0708 0.27833 0.29978 0.0
C2118 C 0.07857 0.26869 0.319 0.0
H2119 H 0.94907 0.19382 0.25537 0.0
H2120 H 0.98341 0.21027 0.27338 0.0
C2121 C 0.0983 0.27838 0.3289 0.0
C2122 C 0.04982 0.26809 0.28892 0.0
H2123 H 1.0016 0.24409 0.31367 0.0
C2124 C 0.04616 0.26659 0.25703 0.0
C2125 C 0.03347 0.25999 0.30959 0.0
C2126 C 0.03617 0.26197 0.34407 0.0
C2127 C 0.02677 0.25704 0.24532 0.0
C2128 C 0.01048 0.24888 0.26598 0.0
C2129 C 0.01408 0.25029 0.29783 0.0
C2130 C 0.98959 0.23895 0.25495 0.0
C2131 C 0.02387 0.25544 0.21086 0.0
C2132 C 0.98151 0.24961 0.23888 0.0
C2133 C 0.96187 0.24025 0.22857 0.0
C2134 C 0.94982 0.21997 0.23403 0.0
C2135 C 0.95795 0.20937 0.25035 0.0
C2136 C 0.97756 0.21878 0.26084 0.0
H2137 H 0.03776 0.25832 0.19833 0.0
H2138 H 0.0122 0.24055 0.20438 0.0
H2139 H 0.01904 0.26649 0.20312 0.0
H2140 H 0.99039 0.26524 0.23441 0.0
H2141 H 0.95619 0.24886 0.21592 0.0
H2142 H 0.32903 0.22264 0.6818 0.0
H2143 H 0.31187 0.24082 0.70296 0.0
H2144 H 0.3189 0.22342 0.7949 0.0
H2145 H 0.33578 0.20497 0.77354 0.0
H2146 H 0.28122 0.21864 0.78461 0.0
H2147 H 0.33651 0.29354 0.74807 0.0
H2148 H 0.32765 0.27612 0.71693 0.0
H2149 H 0.34166 0.27254 0.74746 0.0
C2150 C 0.3269 0.2228 0.7065 0.0
C2151 C 0.33368 0.21257 0.72617 0.0
C2152 C 0.31725 0.23327 0.7186 0.0
C2153 C 0.31439 0.23378 0.75059 0.0
C2154 C 0.32103 0.22333 0.77019 0.0
H2155 H 0.27678 0.31319 0.84504 0.0
H2156 H 0.29519 0.29565 0.82688 0.0
C2157 C 0.33065 0.21284 0.75807 0.0
C2158 C 0.30403 0.24479 0.76355 0.0
H2159 H 0.30559 0.29047 0.76686 0.0
C2160 C 0.2866 0.23436 0.78084 0.0
C2161 C 0.31119 0.26537 0.75903 0.0
C2162 C 0.33038 0.27761 0.74213 0.0
C2163 C 0.27591 0.24384 0.79309 0.0
C2164 C 0.28264 0.26426 0.78751 0.0
C2165 C 0.30033 0.27479 0.77087 0.0
C2166 C 0.27145 0.2749 0.79852 0.0
C2167 C 0.25761 0.23195 0.8122 0.0
C2168 C 0.25208 0.26928 0.78827 0.0
C2169 C 0.24156 0.27932 0.79847 0.0
C2170 C 0.25019 0.29531 0.81908 0.0
C2171 C 0.26971 0.30107 0.82901 0.0
C2172 C 0.28023 0.291 0.81876 0.0
H2173 H 0.25751 0.21823 0.82129 0.0
H2174 H 0.25645 0.24074 0.83191 0.0
H2175 H 0.24429 0.2276 0.79762 0.0
H2176 H 0.24516 0.25722 0.77206 0.0
H2177 H 0.22675 0.27474 0.78975 0.0
H2178 H 0.83796 0.12131 0.77479 0.0
H2179 H 0.82188 0.08692 0.79297 0.0
H2180 H 0.79454 0.06803 0.70402 0.0
H2181 H 0.81131 0.10229 0.68556 0.0
H2182 H 0.7842 0.06106 0.80005 0.0
H2183 H 0.81736 0.03029 0.71465 0.0
H2184 H 0.826 0.05652 0.7193 0.0
H2185 H 0.80431 0.04213 0.69664 0.0
C2186 C 0.82866 0.10973 0.75911 0.0
C2187 C 0.82602 0.11438 0.7287 0.0
C2188 C 0.81942 0.09009 0.7695 0.0
C2189 C 0.80726 0.07468 0.74974 0.0
C2190 C 0.80428 0.07945 0.71951 0.0
H2191 H 0.72837 0.94933 0.77588 0.0
H2192 H 0.74524 0.98378 0.75838 0.0
C2193 C 0.8137 0.09905 0.70903 0.0
C2194 C 0.79736 0.05376 0.76101 0.0
H2195 H 0.79043 0.00689 0.74466 0.0
C2196 C 0.78572 0.04928 0.78801 0.0
C2197 C 0.79931 0.03825 0.74548 0.0
C2198 C 0.81259 0.04205 0.71761 0.0
C2199 C 0.77576 0.02982 0.79946 0.0
C2200 C 0.77742 0.01436 0.78356 0.0
C2201 C 0.78907 0.01876 0.7567 0.0
C2202 C 0.76713 0.99351 0.79453 0.0
C2203 C 0.76324 0.02579 0.82824 0.0
C2204 C 0.7739 0.98749 0.82059 0.0
C2205 C 0.76436 0.96777 0.83058 0.0
C2206 C 0.74771 0.95366 0.81486 0.0
C2207 C 0.74096 0.95981 0.78879 0.0
C2208 C 0.75065 0.97948 0.77863 0.0
H2209 H 0.76137 0.03887 0.83565 0.0
H2210 H 0.74838 0.0132 0.82441 0.0
H2211 H 0.77036 0.02162 0.84723 0.0
H2212 H 0.78666 0.99805 0.83311 0.0
H2213 H 0.76988 0.9636 0.85084 0.0
H2214 H 0.09542 0.77979 0.77965 0.0
H2215 H 0.06148 0.76408 0.76024 0.0
H2216 H 0.04581 0.79898 0.82287 0.0
H2217 H 0.07974 0.81477 0.84245 0.0
H2218 H 0.02602 0.74184 0.78881 0.0
H2219 H 0.02681 0.80991 0.74124 0.0
H2220 H 0.04905 0.80889 0.75348 0.0
H2221 H 0.03283 0.81163 0.78145 0.0
C2222 C 0.08475 0.78405 0.78953 0.0
C2223 C 0.09045 0.79866 0.8126 0.0
C2224 C 0.06532 0.77509 0.77827 0.0
C2225 C 0.05108 0.78055 0.78965 0.0
C2226 C 0.0566 0.79484 0.81309 0.0
H2227 H 0.92285 0.71193 0.76124 0.0
H2228 H 0.9563 0.72817 0.78327 0.0
C2229 C 0.07605 0.80386 0.82432 0.0
C2230 C 0.03048 0.77112 0.77714 0.0
H2231 H 0.99581 0.78113 0.74163 0.0
C2232 C 0.01943 0.75044 0.77849 0.0
C2233 C 0.0219 0.78226 0.76323 0.0
C2234 C 0.0333 0.80438 0.75943 0.0
C2235 C 1.00006 0.74067 0.76667 0.0
C2236 C 0.99127 0.75187 0.75357 0.0
C2237 C 1.0024 0.77252 0.75193 0.0
C2238 C 0.97077 0.74242 0.74067 0.0
C2239 C 0.98941 0.71838 0.76763 0.0
C2240 C 0.96755 0.74553 0.70969 0.0
C2241 C 0.94843 0.73645 0.69725 0.0
C2242 C 0.93214 0.72408 0.71553 0.0
C2243 C 0.93523 0.7213 0.74666 0.0
C2244 C 0.95435 0.73044 0.75915 0.0
H2245 H 0.9999 0.71197 0.77038 0.0
H2246 H 0.97906 0.71357 0.7876 0.0
H2247 H 0.98069 0.71227 0.74633 0.0
H2248 H 0.9799 0.75478 0.69497 0.0
H2249 H 0.94636 0.73892 0.67324 0.0
loop_
_geom_bond_atom_site_label_1
_geom_bond_atom_site_label_2
_geom_bond_distance
_geom_bond_site_symmetry_2
_ccdc_geom_bond_type
C0 C1 1.443 . S
C0 N4 1.376 . S
C0 C38 1.364 1_655 S
C1 C0 1.443 . S
C1 C2 1.340 . S
C1 H41 0.951 . S
C2 C1 1.340 . S
C2 C3 1.439 . S
C2 H42 0.950 . S
C3 C2 1.439 . S
C3 N4 1.374 . S
C3 C37 1.395 . S
N4 C0 1.376 . S
N4 C3 1.374 . S
N4 Co5 1.997 1_655 S
Co5 N4 1.997 1_455 S
Co5 N6 1.980 1_454 S
Co5 N11 2.020 1_554 S
Co5 N16 2.009 . S
Co5 N21 2.304 1_554 S
Co5 N27 2.258 1_455 S
N6 Co5 1.980 1_656 S
N6 C7 1.376 . S
N6 C10 1.383 . S
C7 N6 1.376 . S
C7 C8 1.446 . S
C7 C37 1.391 1_556 S
C8 C7 1.446 . S
C8 C9 1.339 . S
C8 H43 0.949 . S
C9 C8 1.339 . S
C9 C10 1.439 . S
C9 H44 0.950 . S
C10 N6 1.383 . S
C10 C9 1.439 . S
C10 C39 1.385 1_655 S
N11 Co5 2.020 1_556 S
N11 C12 1.376 . S
N11 C15 1.374 . S
C12 N11 1.376 . S
C12 C13 1.443 . S
C12 C39 1.395 . S
C13 C12 1.443 . S
C13 C14 1.340 . S
C13 H45 0.951 . S
C14 C13 1.340 . S
C14 C15 1.439 . S
C14 H46 0.950 . S
C15 N11 1.374 . S
C15 C14 1.439 . S
C15 C40 1.395 1_556 S
N16 Co5 2.009 . S
N16 C17 1.376 . S
N16 C20 1.383 . S
C17 N16 1.376 . S
C17 C18 1.446 . S
C17 C40 1.391 . S
C18 C17 1.446 . S
C18 C19 1.339 . S
C18 H47 0.949 . S
C19 C18 1.339 . S
C19 C20 1.439 . S
C19 H48 0.950 . S
C20 N16 1.383 . S
C20 C19 1.439 . S
C20 C38 1.419 . S
N21 Co5 2.304 1_556 S
N21 C24 1.332 . S
N21 C26 1.338 . S
C22 C23 1.386 . S
C22 C25 1.388 . S
C23 C22 1.386 . S
C23 C24 1.380 . S
C23 H49 0.950 . S
C24 N21 1.332 . S
C24 C23 1.380 . S
C24 H35 0.953 1_556 S
C25 C22 1.388 . S
C25 C26 1.382 . S
C25 H50 0.950 . S
C26 N21 1.338 . S
C26 C25 1.382 . S
C26 H36 0.948 1_455 S
N27 Co5 2.258 1_655 S
N27 C31 1.332 . S
N27 C32 1.332 . S
C28 C29 1.388 . S
C28 C32 1.382 . S
C28 H51 0.950 . S
C29 C28 1.388 . S
C29 C30 1.386 . S
C30 C29 1.386 . S
C30 C31 1.382 . S
C30 H52 0.950 . S
C31 N27 1.332 . S
C31 C30 1.382 . S
C31 H33 0.952 . S
C32 N27 1.332 . S
C32 C28 1.382 . S
C32 H34 0.948 1_655 S
H33 C31 0.952 . S
H34 C32 0.948 1_455 S
H35 C24 0.953 1_554 S
H36 C26 0.948 1_655 S
C37 C3 1.395 . S
C37 C7 1.391 1_554 S
C38 C0 1.364 1_455 S
C38 C20 1.419 . S
C39 C10 1.385 1_455 S
C39 C12 1.395 . S
C40 C15 1.395 1_554 S
C40 C17 1.391 . S
H41 C1 0.951 . S
H42 C2 0.950 . S
H43 C8 0.949 . S
H44 C9 0.950 . S
H45 C13 0.951 . S
H46 C14 0.950 . S
H47 C18 0.949 . S
H48 C19 0.950 . S
H49 C23 0.950 . S
H50 C25 0.950 . S
H51 C28 0.950 . S
H52 C30 0.950 . S
C53 C54 1.443 . S
C53 N57 1.376 . S
C53 C91 1.389 . S
C54 C53 1.443 . S
C54 C55 1.340 . S
C54 H94 0.951 . S
C55 C54 1.340 . S
C55 C56 1.439 . S
C55 H95 0.950 . S
C56 C55 1.439 . S
C56 N57 1.374 . S
C56 C90 1.395 1_556 S
N57 C53 1.376 . S
N57 C56 1.374 . S
N57 Co58 2.008 1_556 S
Co58 N57 2.008 1_554 S
Co58 N59 1.995 . S
Co58 N64 2.008 . S
Co58 N69 1.995 1_554 S
Co58 N74 2.282 . S
Co58 N80 2.282 1_554 S
N59 Co58 1.995 . S
N59 C60 1.376 . S
N59 C63 1.383 . S
C60 N59 1.376 . S
C60 C61 1.446 . S
C60 C90 1.391 . S
C61 C60 1.446 . S
C61 C62 1.339 . S
C61 H96 0.949 . S
C62 C61 1.339 . S
C62 C63 1.439 . S
C62 H97 0.950 . S
C63 N59 1.383 . S
C63 C62 1.439 . S
C63 C92 1.392 . S
N64 Co58 2.008 . S
N64 C65 1.376 . S
N64 C68 1.374 . S
C65 N64 1.376 . S
C65 C66 1.443 . S
C65 C92 1.389 . S
C66 C65 1.443 . S
C66 C67 1.340 . S
C66 H98 0.951 . S
C67 C66 1.340 . S
C67 C68 1.439 . S
C67 H99 0.950 . S
C68 N64 1.374 . S
C68 C67 1.439 . S
C68 C93 1.395 . S
N69 Co58 1.995 1_556 S
N69 C70 1.376 . S
N69 C73 1.383 . S
C70 N69 1.376 . S
C70 C71 1.446 . S
C70 C93 1.391 1_556 S
C71 C70 1.446 . S
C71 C72 1.339 . S
C71 H100 0.949 . S
C72 C71 1.339 . S
C72 C73 1.439 . S
C72 H101 0.950 . S
C73 N69 1.383 . S
C73 C72 1.439 . S
C73 C91 1.392 . S
N74 Co58 2.282 . S
N74 C77 1.332 . S
N74 C79 1.332 . S
C75 C76 1.386 . S
C75 C78 1.388 . S
C76 C75 1.386 . S
C76 C77 1.382 . S
C76 H102 0.950 . S
C77 N74 1.332 . S
C77 C76 1.382 . S
C77 H88 0.952 . S
C78 C75 1.388 . S
C78 C79 1.382 . S
C78 H103 0.950 . S
C79 N74 1.332 . S
C79 C78 1.382 . S
C79 H89 0.948 . S
N80 Co58 2.282 1_556 S
N80 C84 1.332 . S
N80 C85 1.332 . S
C81 C82 1.388 . S
C81 C85 1.382 . S
C81 H104 0.950 . S
C82 C81 1.388 . S
C82 C83 1.386 . S
C83 C82 1.386 . S
C83 C84 1.382 . S
C83 H105 0.950 . S
C84 N80 1.332 . S
C84 C83 1.382 . S
C84 H86 0.952 1_556 S
C85 N80 1.332 . S
C85 C81 1.382 . S
C85 H87 0.948 . S
H86 C84 0.952 1_554 S
H87 C85 0.948 . S
H88 C77 0.952 . S
H89 C79 0.948 . S
C90 C56 1.395 1_554 S
C90 C60 1.391 . S
C91 C53 1.389 . S
C91 C73 1.392 . S
C92 C63 1.392 . S
C92 C65 1.389 . S
C93 C68 1.395 . S
C93 C70 1.391 1_554 S
H94 C54 0.951 . S
H95 C55 0.950 . S
H96 C61 0.949 . S
H97 C62 0.950 . S
H98 C66 0.951 . S
H99 C67 0.950 . S
H100 C71 0.949 . S
H101 C72 0.950 . S
H102 C76 0.950 . S
H103 C78 0.950 . S
H104 C81 0.950 . S
H105 C83 0.950 . S
C106 C107 1.443 . S
C106 N110 1.376 . S
C106 C144 1.389 . S
C107 C106 1.443 . S
C107 C108 1.340 . S
C107 H147 0.951 . S
C108 C107 1.340 . S
C108 C109 1.439 . S
C108 H148 0.950 . S
C109 C108 1.439 . S
C109 N110 1.374 . S
C109 C143 1.395 . S
N110 C106 1.376 . S
N110 C109 1.374 . S
N110 Co111 2.008 . S
Co111 N110 2.008 . S
Co111 N112 1.995 1_554 S
Co111 N117 2.008 1_544 S
Co111 N122 1.995 1_545 S
Co111 N127 2.282 1_544 S
Co111 N133 2.282 . S
N112 Co111 1.995 1_556 S
N112 C113 1.376 . S
N112 C116 1.383 . S
C113 N112 1.376 . S
C113 C114 1.446 . S
C113 C143 1.391 1_556 S
C114 C113 1.446 . S
C114 C115 1.339 . S
C114 H149 0.949 . S
C115 C114 1.339 . S
C115 C116 1.439 . S
C115 H150 0.950 . S
C116 N112 1.383 . S
C116 C115 1.439 . S
C116 C145 1.392 . S
N117 Co111 2.008 1_566 S
N117 C118 1.376 . S
N117 C121 1.374 . S
C118 N117 1.376 . S
C118 C119 1.443 . S
C118 C145 1.389 1_565 S
C119 C118 1.443 . S
C119 C120 1.340 . S
C119 H151 0.951 . S
C120 C119 1.340 . S
C120 C121 1.439 . S
C120 H152 0.950 . S
C121 N117 1.374 . S
C121 C120 1.439 . S
C121 C146 1.395 1_556 S
N122 Co111 1.995 1_565 S
N122 C123 1.376 . S
N122 C126 1.383 . S
C123 N122 1.376 . S
C123 C124 1.446 . S
C123 C146 1.391 . S
C124 C123 1.446 . S
C124 C125 1.339 . S
C124 H153 0.949 . S
C125 C124 1.339 . S
C125 C126 1.439 . S
C125 H154 0.950 . S
C126 N122 1.383 . S
C126 C125 1.439 . S
C126 C144 1.392 1_565 S
N127 Co111 2.282 1_566 S
N127 C130 1.332 . S
N127 C132 1.332 1_565 S
C128 C129 1.386 . S
C128 C131 1.388 . S
C129 C128 1.386 . S
C129 C130 1.382 . S
C129 H155 0.950 . S
C130 N127 1.332 . S
C130 C129 1.382 . S
C130 H141 0.952 1_556 S
C131 C128 1.388 . S
C131 C132 1.382 1_565 S
C131 H156 0.950 1_565 S
C132 N127 1.332 1_545 S
C132 C131 1.382 1_545 S
C132 H142 0.948 . S
N133 Co111 2.282 . S
N133 C137 1.332 . S
N133 C138 1.332 . S
C134 C135 1.388 . S
C134 C138 1.382 . S
C134 H157 0.950 . S
C135 C134 1.388 . S
C135 C136 1.386 . S
C136 C135 1.386 . S
C136 C137 1.382 . S
C136 H158 0.950 . S
C137 N133 1.332 . S
C137 C136 1.382 . S
C137 H139 0.952 . S
C138 N133 1.332 . S
C138 C134 1.382 . S
C138 H140 0.948 . S
H139 C137 0.952 . S
H140 C138 0.948 . S
H141 C130 0.952 1_554 S
H142 C132 0.948 . S
C143 C109 1.395 . S
C143 C113 1.391 1_554 S
C144 C106 1.389 . S
C144 C126 1.392 1_545 S
C145 C116 1.392 . S
C145 C118 1.389 1_545 S
C146 C121 1.395 1_554 S
C146 C123 1.391 . S
H147 C107 0.951 . S
H148 C108 0.950 . S
H149 C114 0.949 . S
H150 C115 0.950 . S
H151 C119 0.951 . S
H152 C120 0.950 . S
H153 C124 0.949 . S
H154 C125 0.950 . S
H155 C129 0.950 . S
H156 C131 0.950 1_545 S
H157 C134 0.950 . S
H158 C136 0.950 . S
C159 C160 1.443 . S
C159 N163 1.376 . S
C159 C197 1.389 1_545 S
C160 C159 1.443 . S
C160 C161 1.340 . S
C160 H200 0.951 . S
C161 C160 1.340 . S
C161 C162 1.439 . S
C161 H201 0.950 . S
C162 C161 1.439 . S
C162 N163 1.374 . S
C162 C196 1.395 . S
N163 C159 1.376 . S
N163 C162 1.374 . S
N163 Co164 2.008 . S
Co164 N163 2.008 . S
Co164 N165 1.995 . S
Co164 N170 2.008 . S
Co164 N175 1.995 1_545 S
Co164 N180 2.282 . S
Co164 N186 2.282 . S
N165 Co164 1.995 . S
N165 C166 1.376 . S
N165 C169 1.383 . S
C166 N165 1.376 . S
C166 C167 1.446 . S
C166 C196 1.391 . S
C167 C166 1.446 . S
C167 C168 1.339 . S
C167 H202 0.949 . S
C168 C167 1.339 . S
C168 C169 1.439 . S
C168 H203 0.950 . S
C169 N165 1.383 . S
C169 C168 1.439 . S
C169 C198 1.392 . S
N170 Co164 2.008 . S
N170 C171 1.376 . S
N170 C174 1.374 1_545 S
C171 N170 1.376 . S
C171 C172 1.443 . S
C171 C198 1.389 . S
C172 C171 1.443 . S
C172 C173 1.340 1_545 S
C172 H204 0.951 . S
C173 C172 1.340 1_565 S
C173 C174 1.439 . S
C173 H205 0.950 . S
C174 N170 1.374 1_565 S
C174 C173 1.439 . S
C174 C199 1.395 . S
N175 Co164 1.995 1_565 S
N175 C176 1.376 . S
N175 C179 1.383 . S
C176 N175 1.376 . S
C176 C177 1.446 . S
C176 C199 1.391 . S
C177 C176 1.446 . S
C177 C178 1.339 . S
C177 H206 0.949 . S
C178 C177 1.339 . S
C178 C179 1.439 . S
C178 H207 0.950 . S
C179 N175 1.383 . S
C179 C178 1.439 . S
C179 C197 1.392 . S
N180 Co164 2.282 . S
N180 C183 1.332 1_545 S
N180 C185 1.332 . S
C181 C182 1.386 1_545 S
C181 C184 1.388 . S
C182 C181 1.386 1_565 S
C182 C183 1.382 . S
C182 H208 0.950 . S
C183 N180 1.332 1_565 S
C183 C182 1.382 . S
C183 H194 0.952 . S
C184 C181 1.388 . S
C184 C185 1.382 . S
C184 H209 0.950 . S
C185 N180 1.332 . S
C185 C184 1.382 . S
C185 H195 0.948 . S
N186 Co164 2.282 . S
N186 C190 1.332 . S
N186 C191 1.332 1_545 S
C187 C188 1.388 1_565 S
C187 C191 1.382 . S
C187 H210 0.950 . S
C188 C187 1.388 1_545 S
C188 C189 1.386 . S
C189 C188 1.386 . S
C189 C190 1.382 . S
C189 H211 0.950 . S
C190 N186 1.332 . S
C190 C189 1.382 . S
C190 H192 0.952 . S
C191 N186 1.332 1_565 S
C191 C187 1.382 . S
C191 H193 0.948 . S
H192 C190 0.952 . S
H193 C191 0.948 . S
H194 C183 0.952 . S
H195 C185 0.948 . S
C196 C162 1.395 . S
C196 C166 1.391 . S
C197 C159 1.389 1_565 S
C197 C179 1.392 . S
C198 C169 1.392 . S
C198 C171 1.389 . S
C199 C174 1.395 . S
C199 C176 1.391 . S
H200 C160 0.951 . S
H201 C161 0.950 . S
H202 C167 0.949 . S
H203 C168 0.950 . S
H204 C172 0.951 . S
H205 C173 0.950 . S
H206 C177 0.949 . S
H207 C178 0.950 . S
H208 C182 0.950 . S
H209 C184 0.950 . S
H210 C187 0.950 . S
H211 C189 0.950 . S
C212 C213 1.443 . S
C212 N216 1.376 . S
C212 C250 1.399 . S
C213 C212 1.443 . S
C213 C214 1.340 . S
C213 H253 0.951 . S
C214 C213 1.340 . S
C214 C215 1.439 . S
C214 H254 0.950 . S
C215 C214 1.439 . S
C215 N216 1.374 . S
C215 C249 1.395 . S
N216 C212 1.376 . S
N216 C215 1.374 . S
N216 Co217 2.031 . S
Co217 N216 2.031 . S
Co217 N218 2.018 . S
Co217 N223 1.985 1_455 S
Co217 N228 1.971 1_455 S
Co217 N233 2.283 1_455 S
Co217 N239 2.282 . S
N218 Co217 2.018 . S
N218 C219 1.376 . S
N218 C222 1.383 . S
C219 N218 1.376 . S
C219 C220 1.446 . S
C219 C249 1.391 . S
C220 C219 1.446 . S
C220 C221 1.339 . S
C220 H255 0.949 . S
C221 C220 1.339 . S
C221 C222 1.439 . S
C221 H256 0.950 . S
C222 N218 1.383 . S
C222 C221 1.439 . S
C222 C251 1.440 . S
N223 Co217 1.985 1_655 S
N223 C224 1.376 . S
N223 C227 1.374 . S
C224 N223 1.376 . S
C224 C225 1.443 . S
C224 C251 1.341 1_655 S
C225 C224 1.443 . S
C225 C226 1.340 . S
C225 H257 0.951 . S
C226 C225 1.340 . S
C226 C227 1.439 . S
C226 H258 0.950 . S
C227 N223 1.374 . S
C227 C226 1.439 . S
C227 C252 1.395 . S
N228 Co217 1.971 1_655 S
N228 C229 1.376 . S
N228 C232 1.383 . S
C229 N228 1.376 . S
C229 C230 1.446 . S
C229 C252 1.391 . S
C230 C229 1.446 . S
C230 C231 1.339 . S
C230 H259 0.949 . S
C231 C230 1.339 . S
C231 C232 1.439 . S
C231 H260 0.950 . S
C232 N228 1.383 . S
C232 C231 1.439 . S
C232 C250 1.382 1_655 S
N233 Co217 2.283 1_655 S
N233 C236 1.332 . S
N233 C238 1.332 . S
C234 C235 1.386 . S
C234 C237 1.388 . S
C235 C234 1.386 . S
C235 C236 1.382 . S
C235 H261 0.950 . S
C236 N233 1.332 . S
C236 C235 1.382 . S
C236 H247 0.952 . S
C237 C234 1.388 . S
C237 C238 1.382 . S
C237 H262 0.950 . S
C238 N233 1.332 . S
C238 C237 1.382 . S
C238 H248 0.948 1_655 S
N239 Co217 2.282 . S
N239 C243 1.332 . S
N239 C244 1.332 . S
C240 C241 1.388 . S
C240 C244 1.382 . S
C240 H263 0.950 . S
C241 C240 1.388 . S
C241 C242 1.386 . S
C242 C241 1.386 . S
C242 C243 1.382 . S
C242 H264 0.950 . S
C243 N239 1.332 . S
C243 C242 1.382 . S
C243 H245 0.952 . S
C244 N239 1.332 . S
C244 C240 1.382 . S
C244 H246 0.948 1_455 S
H245 C243 0.952 . S
H246 C244 0.948 1_655 S
H247 C236 0.952 . S
H248 C238 0.948 1_455 S
C249 C215 1.395 . S
C249 C219 1.391 . S
C250 C212 1.399 . S
C250 C232 1.382 1_455 S
C251 C222 1.440 . S
C251 C224 1.341 1_455 S
C252 C227 1.395 . S
C252 C229 1.391 . S
H253 C213 0.951 . S
H254 C214 0.950 . S
H255 C220 0.949 . S
H256 C221 0.950 . S
H257 C225 0.951 . S
H258 C226 0.950 . S
H259 C230 0.949 . S
H260 C231 0.950 . S
H261 C235 0.950 . S
H262 C237 0.950 . S
H263 C240 0.950 . S
H264 C242 0.950 . S
C265 C266 1.443 . S
C265 N269 1.376 . S
C265 C303 1.389 . S
C266 C265 1.443 . S
C266 C267 1.340 . S
C266 H306 0.951 . S
C267 C266 1.340 . S
C267 C268 1.439 . S
C267 H307 0.950 . S
C268 C267 1.439 . S
C268 N269 1.374 . S
C268 C302 1.395 . S
N269 C265 1.376 . S
N269 C268 1.374 . S
N269 Co270 2.008 . S
Co270 N269 2.008 . S
Co270 N271 1.995 . S
Co270 N276 2.008 . S
Co270 N281 1.995 . S
Co270 N286 2.282 . S
Co270 N292 2.282 . S
N271 Co270 1.995 . S
N271 C272 1.376 . S
N271 C275 1.383 . S
C272 N271 1.376 . S
C272 C273 1.446 . S
C272 C302 1.391 . S
C273 C272 1.446 . S
C273 C274 1.339 . S
C273 H308 0.949 . S
C274 C273 1.339 . S
C274 C275 1.439 . S
C274 H309 0.950 . S
C275 N271 1.383 . S
C275 C274 1.439 . S
C275 C304 1.392 . S
N276 Co270 2.008 . S
N276 C277 1.376 . S
N276 C280 1.374 . S
C277 N276 1.376 . S
C277 C278 1.443 . S
C277 C304 1.389 . S
C278 C277 1.443 . S
C278 C279 1.340 . S
C278 H310 0.951 . S
C279 C278 1.340 . S
C279 C280 1.439 . S
C279 H311 0.950 . S
C280 N276 1.374 . S
C280 C279 1.439 . S
C280 C305 1.395 . S
N281 Co270 1.995 . S
N281 C282 1.376 . S
N281 C285 1.383 . S
C282 N281 1.376 . S
C282 C283 1.446 . S
C282 C305 1.391 . S
C283 C282 1.446 . S
C283 C284 1.339 . S
C283 H312 0.949 . S
C284 C283 1.339 . S
C284 C285 1.439 . S
C284 H313 0.950 . S
C285 N281 1.383 . S
C285 C284 1.439 . S
C285 C303 1.392 . S
N286 Co270 2.282 . S
N286 C289 1.332 . S
N286 C291 1.332 . S
C287 C288 1.386 . S
C287 C290 1.388 . S
C288 C287 1.386 . S
C288 C289 1.382 . S
C288 H314 0.950 . S
C289 N286 1.332 . S
C289 C288 1.382 . S
C289 H300 0.952 . S
C290 C287 1.388 . S
C290 C291 1.382 . S
C290 H315 0.950 . S
C291 N286 1.332 . S
C291 C290 1.382 . S
C291 H301 0.948 . S
N292 Co270 2.282 . S
N292 C296 1.332 . S
N292 C297 1.332 . S
C293 C294 1.388 . S
C293 C297 1.382 . S
C293 H316 0.950 . S
C294 C293 1.388 . S
C294 C295 1.386 . S
C295 C294 1.386 . S
C295 C296 1.382 . S
C295 H317 0.950 . S
C296 N292 1.332 . S
C296 C295 1.382 . S
C296 H298 0.952 . S
C297 N292 1.332 . S
C297 C293 1.382 . S
C297 H299 0.948 . S
H298 C296 0.952 . S
H299 C297 0.948 . S
H300 C289 0.952 . S
H301 C291 0.948 . S
C302 C268 1.395 . S
C302 C272 1.391 . S
C303 C265 1.389 . S
C303 C285 1.392 . S
C304 C275 1.392 . S
C304 C277 1.389 . S
C305 C280 1.395 . S
C305 C282 1.391 . S
H306 C266 0.951 . S
H307 C267 0.950 . S
H308 C273 0.949 . S
H309 C274 0.950 . S
H310 C278 0.951 . S
H311 C279 0.950 . S
H312 C283 0.949 . S
H313 C284 0.950 . S
H314 C288 0.950 . S
H315 C290 0.950 . S
H316 C293 0.950 . S
H317 C295 0.950 . S
C318 C319 1.443 . S
C318 N322 1.376 . S
C318 C356 1.389 . S
C319 C318 1.443 . S
C319 C320 1.340 . S
C319 H359 0.951 . S
C320 C319 1.340 . S
C320 C321 1.439 . S
C320 H360 0.950 . S
C321 C320 1.439 . S
C321 N322 1.374 . S
C321 C355 1.395 . S
N322 C318 1.376 . S
N322 C321 1.374 . S
N322 Co323 2.008 . S
Co323 N322 2.008 . S
Co323 N324 1.995 . S
Co323 N329 2.008 . S
Co323 N334 1.995 . S
Co323 N339 2.282 . S
Co323 N345 2.282 . S
N324 Co323 1.995 . S
N324 C325 1.376 . S
N324 C328 1.383 . S
C325 N324 1.376 . S
C325 C326 1.446 . S
C325 C355 1.391 . S
C326 C325 1.446 . S
C326 C327 1.339 . S
C326 H361 0.949 . S
C327 C326 1.339 . S
C327 C328 1.439 . S
C327 H362 0.950 . S
C328 N324 1.383 . S
C328 C327 1.439 . S
C328 C357 1.392 . S
N329 Co323 2.008 . S
N329 C330 1.376 . S
N329 C333 1.374 . S
C330 N329 1.376 . S
C330 C331 1.443 . S
C330 C357 1.389 . S
C331 C330 1.443 . S
C331 C332 1.340 . S
C331 H363 0.951 . S
C332 C331 1.340 . S
C332 C333 1.439 . S
C332 H364 0.950 . S
C333 N329 1.374 . S
C333 C332 1.439 . S
C333 C358 1.395 . S
N334 Co323 1.995 . S
N334 C335 1.376 . S
N334 C338 1.383 . S
C335 N334 1.376 . S
C335 C336 1.446 . S
C335 C358 1.391 . S
C336 C335 1.446 . S
C336 C337 1.339 . S
C336 H365 0.949 . S
C337 C336 1.339 . S
C337 C338 1.439 . S
C337 H366 0.950 . S
C338 N334 1.383 . S
C338 C337 1.439 . S
C338 C356 1.392 . S
N339 Co323 2.282 . S
N339 C342 1.332 . S
N339 C344 1.332 . S
C340 C341 1.386 . S
C340 C343 1.388 . S
C341 C340 1.386 . S
C341 C342 1.382 . S
C341 H367 0.950 . S
C342 N339 1.332 . S
C342 C341 1.382 . S
C342 H353 0.952 . S
C343 C340 1.388 . S
C343 C344 1.382 . S
C343 H368 0.950 . S
C344 N339 1.332 . S
C344 C343 1.382 . S
C344 H354 0.948 . S
N345 Co323 2.282 . S
N345 C349 1.332 . S
N345 C350 1.332 . S
C346 C347 1.388 . S
C346 C350 1.382 . S
C346 H369 0.950 . S
C347 C346 1.388 . S
C347 C348 1.386 . S
C348 C347 1.386 . S
C348 C349 1.382 . S
C348 H370 0.950 . S
C349 N345 1.332 . S
C349 C348 1.382 . S
C349 H351 0.952 . S
C350 N345 1.332 . S
C350 C346 1.382 . S
C350 H352 0.948 . S
H351 C349 0.952 . S
H352 C350 0.948 . S
H353 C342 0.952 . S
H354 C344 0.948 . S
C355 C321 1.395 . S
C355 C325 1.391 . S
C356 C318 1.389 . S
C356 C338 1.392 . S
C357 C328 1.392 . S
C357 C330 1.389 . S
C358 C333 1.395 . S
C358 C335 1.391 . S
H359 C319 0.951 . S
H360 C320 0.950 . S
H361 C326 0.949 . S
H362 C327 0.950 . S
H363 C331 0.951 . S
H364 C332 0.950 . S
H365 C336 0.949 . S
H366 C337 0.950 . S
H367 C341 0.950 . S
H368 C343 0.950 . S
H369 C346 0.950 . S
H370 C348 0.950 . S
C371 C372 1.443 . S
C371 N375 1.376 . S
C371 C409 1.389 . S
C372 C371 1.443 . S
C372 C373 1.340 . S
C372 H412 0.951 . S
C373 C372 1.340 . S
C373 C374 1.439 . S
C373 H413 0.950 . S
C374 C373 1.439 . S
C374 N375 1.374 . S
C374 C408 1.395 . S
N375 C371 1.376 . S
N375 C374 1.374 . S
N375 Co376 2.008 . S
Co376 N375 2.008 . S
Co376 N377 1.995 . S
Co376 N382 2.008 . S
Co376 N387 1.995 . S
Co376 N392 2.282 . S
Co376 N398 2.282 . S
N377 Co376 1.995 . S
N377 C378 1.376 . S
N377 C381 1.383 . S
C378 N377 1.376 . S
C378 C379 1.446 . S
C378 C408 1.391 . S
C379 C378 1.446 . S
C379 C380 1.339 . S
C379 H414 0.949 . S
C380 C379 1.339 . S
C380 C381 1.439 . S
C380 H415 0.950 . S
C381 N377 1.383 . S
C381 C380 1.439 . S
C381 C410 1.392 . S
N382 Co376 2.008 . S
N382 C383 1.376 . S
N382 C386 1.374 . S
C383 N382 1.376 . S
C383 C384 1.443 . S
C383 C410 1.389 . S
C384 C383 1.443 . S
C384 C385 1.340 . S
C384 H416 0.951 . S
C385 C384 1.340 . S
C385 C386 1.439 . S
C385 H417 0.950 . S
C386 N382 1.374 . S
C386 C385 1.439 . S
C386 C411 1.395 . S
N387 Co376 1.995 . S
N387 C388 1.376 . S
N387 C391 1.383 . S
C388 N387 1.376 . S
C388 C389 1.446 . S
C388 C411 1.391 . S
C389 C388 1.446 . S
C389 C390 1.339 . S
C389 H418 0.949 . S
C390 C389 1.339 . S
C390 C391 1.439 . S
C390 H419 0.950 . S
C391 N387 1.383 . S
C391 C390 1.439 . S
C391 C409 1.392 . S
N392 Co376 2.282 . S
N392 C395 1.332 . S
N392 C397 1.332 . S
C393 C394 1.386 . S
C393 C396 1.388 . S
C394 C393 1.386 . S
C394 C395 1.382 . S
C394 H420 0.950 . S
C395 N392 1.332 . S
C395 C394 1.382 . S
C395 H406 0.952 . S
C396 C393 1.388 . S
C396 C397 1.382 . S
C396 H421 0.950 . S
C397 N392 1.332 . S
C397 C396 1.382 . S
C397 H407 0.948 . S
N398 Co376 2.282 . S
N398 C402 1.332 . S
N398 C403 1.332 . S
C399 C400 1.388 . S
C399 C403 1.382 . S
C399 H422 0.950 . S
C400 C399 1.388 . S
C400 C401 1.386 . S
C401 C400 1.386 . S
C401 C402 1.382 . S
C401 H423 0.950 . S
C402 N398 1.332 . S
C402 C401 1.382 . S
C402 H404 0.952 . S
C403 N398 1.332 . S
C403 C399 1.382 . S
C403 H405 0.948 . S
H404 C402 0.952 . S
H405 C403 0.948 . S
H406 C395 0.952 . S
H407 C397 0.948 . S
C408 C374 1.395 . S
C408 C378 1.391 . S
C409 C371 1.389 . S
C409 C391 1.392 . S
C410 C381 1.392 . S
C410 C383 1.389 . S
C411 C386 1.395 . S
C411 C388 1.391 . S
H412 C372 0.951 . S
H413 C373 0.950 . S
H414 C379 0.949 . S
H415 C380 0.950 . S
H416 C384 0.951 . S
H417 C385 0.950 . S
H418 C389 0.949 . S
H419 C390 0.950 . S
H420 C394 0.950 . S
H421 C396 0.950 . S
H422 C399 0.950 . S
H423 C401 0.950 . S
C424 C425 1.443 . S
C424 N428 1.376 . S
C424 C462 1.389 . S
C425 C424 1.443 . S
C425 C426 1.340 . S
C425 H465 0.951 . S
C426 C425 1.340 . S
C426 C427 1.439 . S
C426 H466 0.950 . S
C427 C426 1.439 . S
C427 N428 1.374 . S
C427 C461 1.395 . S
N428 C424 1.376 . S
N428 C427 1.374 . S
N428 Co429 2.008 . S
Co429 N428 2.008 . S
Co429 N430 1.995 . S
Co429 N435 2.008 . S
Co429 N440 1.995 . S
Co429 N445 2.282 . S
Co429 N451 2.282 . S
N430 Co429 1.995 . S
N430 C431 1.376 . S
N430 C434 1.383 . S
C431 N430 1.376 . S
C431 C432 1.446 . S
C431 C461 1.391 . S
C432 C431 1.446 . S
C432 C433 1.339 . S
C432 H467 0.949 . S
C433 C432 1.339 . S
C433 C434 1.439 . S
C433 H468 0.950 . S
C434 N430 1.383 . S
C434 C433 1.439 . S
C434 C463 1.392 . S
N435 Co429 2.008 . S
N435 C436 1.376 . S
N435 C439 1.374 . S
C436 N435 1.376 . S
C436 C437 1.443 . S
C436 C463 1.389 . S
C437 C436 1.443 . S
C437 C438 1.340 . S
C437 H469 0.951 . S
C438 C437 1.340 . S
C438 C439 1.439 . S
C438 H470 0.950 . S
C439 N435 1.374 . S
C439 C438 1.439 . S
C439 C464 1.395 . S
N440 Co429 1.995 . S
N440 C441 1.376 . S
N440 C444 1.383 . S
C441 N440 1.376 . S
C441 C442 1.446 . S
C441 C464 1.391 . S
C442 C441 1.446 . S
C442 C443 1.339 . S
C442 H471 0.949 . S
C443 C442 1.339 . S
C443 C444 1.439 . S
C443 H472 0.950 . S
C444 N440 1.383 . S
C444 C443 1.439 . S
C444 C462 1.392 . S
N445 Co429 2.282 . S
N445 C448 1.332 . S
N445 C450 1.332 . S
C446 C447 1.386 . S
C446 C449 1.388 . S
C447 C446 1.386 . S
C447 C448 1.382 . S
C447 H473 0.950 . S
C448 N445 1.332 . S
C448 C447 1.382 . S
C448 H459 0.952 . S
C449 C446 1.388 . S
C449 C450 1.382 . S
C449 H474 0.950 . S
C450 N445 1.332 . S
C450 C449 1.382 . S
C450 H460 0.948 . S
N451 Co429 2.282 . S
N451 C455 1.332 . S
N451 C456 1.332 . S
C452 C453 1.388 . S
C452 C456 1.382 . S
C452 H475 0.950 . S
C453 C452 1.388 . S
C453 C454 1.386 . S
C454 C453 1.386 . S
C454 C455 1.382 . S
C454 H476 0.950 . S
C455 N451 1.332 . S
C455 C454 1.382 . S
C455 H457 0.952 . S
C456 N451 1.332 . S
C456 C452 1.382 . S
C456 H458 0.948 . S
H457 C455 0.952 . S
H458 C456 0.948 . S
H459 C448 0.952 . S
H460 C450 0.948 . S
C461 C427 1.395 . S
C461 C431 1.391 . S
C462 C424 1.389 . S
C462 C444 1.392 . S
C463 C434 1.392 . S
C463 C436 1.389 . S
C464 C439 1.395 . S
C464 C441 1.391 . S
H465 C425 0.951 . S
H466 C426 0.950 . S
H467 C432 0.949 . S
H468 C433 0.950 . S
H469 C437 0.951 . S
H470 C438 0.950 . S
H471 C442 0.949 . S
H472 C443 0.950 . S
H473 C447 0.950 . S
H474 C449 0.950 . S
H475 C452 0.950 . S
H476 C454 0.950 . S
C477 C478 1.443 . S
C477 N481 1.376 . S
C477 C515 1.389 . S
C478 C477 1.443 . S
C478 C479 1.340 . S
C478 H518 0.951 . S
C479 C478 1.340 . S
C479 C480 1.439 . S
C479 H519 0.950 . S
C480 C479 1.439 . S
C480 N481 1.374 . S
C480 C514 1.395 . S
N481 C477 1.376 . S
N481 C480 1.374 . S
N481 Co482 2.008 . S
Co482 N481 2.008 . S
Co482 N483 1.995 . S
Co482 N488 2.008 . S
Co482 N493 1.995 . S
Co482 N498 2.282 . S
Co482 N504 2.282 . S
N483 Co482 1.995 . S
N483 C484 1.376 . S
N483 C487 1.383 . S
C484 N483 1.376 . S
C484 C485 1.446 . S
C484 C514 1.391 . S
C485 C484 1.446 . S
C485 C486 1.339 . S
C485 H520 0.949 . S
C486 C485 1.339 . S
C486 C487 1.439 . S
C486 H521 0.950 . S
C487 N483 1.383 . S
C487 C486 1.439 . S
C487 C516 1.392 . S
N488 Co482 2.008 . S
N488 C489 1.376 . S
N488 C492 1.374 . S
C489 N488 1.376 . S
C489 C490 1.443 . S
C489 C516 1.389 . S
C490 C489 1.443 . S
C490 C491 1.340 . S
C490 H522 0.951 . S
C491 C490 1.340 . S
C491 C492 1.439 . S
C491 H523 0.950 . S
C492 N488 1.374 . S
C492 C491 1.439 . S
C492 C517 1.395 . S
N493 Co482 1.995 . S
N493 C494 1.376 . S
N493 C497 1.383 . S
C494 N493 1.376 . S
C494 C495 1.446 . S
C494 C517 1.391 . S
C495 C494 1.446 . S
C495 C496 1.339 . S
C495 H524 0.949 . S
C496 C495 1.339 . S
C496 C497 1.439 . S
C496 H525 0.950 . S
C497 N493 1.383 . S
C497 C496 1.439 . S
C497 C515 1.392 . S
N498 Co482 2.282 . S
N498 C501 1.332 . S
N498 C503 1.332 . S
C499 C500 1.386 . S
C499 C502 1.388 . S
C500 C499 1.386 . S
C500 C501 1.382 . S
C500 H526 0.950 . S
C501 N498 1.332 . S
C501 C500 1.382 . S
C501 H512 0.952 . S
C502 C499 1.388 . S
C502 C503 1.382 . S
C502 H527 0.950 . S
C503 N498 1.332 . S
C503 C502 1.382 . S
C503 H513 0.948 . S
N504 Co482 2.282 . S
N504 C508 1.332 . S
N504 C509 1.332 . S
C505 C506 1.388 . S
C505 C509 1.382 . S
C505 H528 0.950 . S
C506 C505 1.388 . S
C506 C507 1.386 . S
C507 C506 1.386 . S
C507 C508 1.382 . S
C507 H529 0.950 . S
C508 N504 1.332 . S
C508 C507 1.382 . S
C508 H510 0.952 . S
C509 N504 1.332 . S
C509 C505 1.382 . S
C509 H511 0.948 . S
H510 C508 0.952 . S
H511 C509 0.948 . S
H512 C501 0.952 . S
H513 C503 0.948 . S
C514 C480 1.395 . S
C514 C484 1.391 . S
C515 C477 1.389 . S
C515 C497 1.392 . S
C516 C487 1.392 . S
C516 C489 1.389 . S
C517 C492 1.395 . S
C517 C494 1.391 . S
H518 C478 0.951 . S
H519 C479 0.950 . S
H520 C485 0.949 . S
H521 C486 0.950 . S
H522 C490 0.951 . S
H523 C491 0.950 . S
H524 C495 0.949 . S
H525 C496 0.950 . S
H526 C500 0.950 . S
H527 C502 0.950 . S
H528 C505 0.950 . S
H529 C507 0.950 . S
C530 C531 1.443 . S
C530 N534 1.376 . S
C530 C568 1.389 . S
C531 C530 1.443 . S
C531 C532 1.340 . S
C531 H571 0.951 . S
C532 C531 1.340 . S
C532 C533 1.439 . S
C532 H572 0.950 . S
C533 C532 1.439 . S
C533 N534 1.374 . S
C533 C567 1.395 . S
N534 C530 1.376 . S
N534 C533 1.374 . S
N534 Co535 2.008 . S
Co535 N534 2.008 . S
Co535 N536 1.995 . S
Co535 N541 2.008 . S
Co535 N546 1.995 . S
Co535 N551 2.282 . S
Co535 N557 2.282 . S
N536 Co535 1.995 . S
N536 C537 1.376 . S
N536 C540 1.383 . S
C537 N536 1.376 . S
C537 C538 1.446 . S
C537 C567 1.391 . S
C538 C537 1.446 . S
C538 C539 1.339 . S
C538 H573 0.949 . S
C539 C538 1.339 . S
C539 C540 1.439 . S
C539 H574 0.950 . S
C540 N536 1.383 . S
C540 C539 1.439 . S
C540 C569 1.392 . S
N541 Co535 2.008 . S
N541 C542 1.376 . S
N541 C545 1.374 . S
C542 N541 1.376 . S
C542 C543 1.443 . S
C542 C569 1.389 . S
C543 C542 1.443 . S
C543 C544 1.340 . S
C543 H575 0.951 . S
C544 C543 1.340 . S
C544 C545 1.439 . S
C544 H576 0.950 . S
C545 N541 1.374 . S
C545 C544 1.439 . S
C545 C570 1.395 . S
N546 Co535 1.995 . S
N546 C547 1.376 . S
N546 C550 1.383 . S
C547 N546 1.376 . S
C547 C548 1.446 . S
C547 C570 1.391 . S
C548 C547 1.446 . S
C548 C549 1.339 . S
C548 H577 0.949 . S
C549 C548 1.339 . S
C549 C550 1.439 . S
C549 H578 0.950 . S
C550 N546 1.383 . S
C550 C549 1.439 . S
C550 C568 1.392 . S
N551 Co535 2.282 . S
N551 C554 1.332 . S
N551 C556 1.332 . S
C552 C553 1.386 . S
C552 C555 1.388 . S
C553 C552 1.386 . S
C553 C554 1.382 . S
C553 H579 0.950 . S
C554 N551 1.332 . S
C554 C553 1.382 . S
C554 H565 0.952 . S
C555 C552 1.388 . S
C555 C556 1.382 . S
C555 H580 0.950 . S
C556 N551 1.332 . S
C556 C555 1.382 . S
C556 H566 0.948 . S
N557 Co535 2.282 . S
N557 C561 1.332 . S
N557 C562 1.332 . S
C558 C559 1.388 . S
C558 C562 1.382 . S
C558 H581 0.950 . S
C559 C558 1.388 . S
C559 C560 1.386 . S
C560 C559 1.386 . S
C560 C561 1.382 . S
C560 H582 0.950 . S
C561 N557 1.332 . S
C561 C560 1.382 . S
C561 H563 0.952 . S
C562 N557 1.332 . S
C562 C558 1.382 . S
C562 H564 0.948 . S
H563 C561 0.952 . S
H564 C562 0.948 . S
H565 C554 0.952 . S
H566 C556 0.948 . S
C567 C533 1.395 . S
C567 C537 1.391 . S
C568 C530 1.389 . S
C568 C550 1.392 . S
C569 C540 1.392 . S
C569 C542 1.389 . S
C570 C545 1.395 . S
C570 C547 1.391 . S
H571 C531 0.951 . S
H572 C532 0.950 . S
H573 C538 0.949 . S
H574 C539 0.950 . S
H575 C543 0.951 . S
H576 C544 0.950 . S
H577 C548 0.949 . S
H578 C549 0.950 . S
H579 C553 0.950 . S
H580 C555 0.950 . S
H581 C558 0.950 . S
H582 C560 0.950 . S
C583 C584 1.443 . S
C583 N587 1.376 . S
C583 C621 1.389 . S
C584 C583 1.443 . S
C584 C585 1.340 . S
C584 H624 0.951 . S
C585 C584 1.340 . S
C585 C586 1.439 . S
C585 H625 0.950 . S
C586 C585 1.439 . S
C586 N587 1.374 . S
C586 C620 1.395 . S
N587 C583 1.376 . S
N587 C586 1.374 . S
N587 Co588 2.008 . S
Co588 N587 2.008 . S
Co588 N589 1.995 . S
Co588 N594 2.008 . S
Co588 N599 1.995 . S
Co588 N604 2.282 . S
Co588 N610 2.282 . S
N589 Co588 1.995 . S
N589 C590 1.376 . S
N589 C593 1.383 . S
C590 N589 1.376 . S
C590 C591 1.446 . S
C590 C620 1.391 . S
C591 C590 1.446 . S
C591 C592 1.339 . S
C591 H626 0.949 . S
C592 C591 1.339 . S
C592 C593 1.439 . S
C592 H627 0.950 . S
C593 N589 1.383 . S
C593 C592 1.439 . S
C593 C622 1.392 . S
N594 Co588 2.008 . S
N594 C595 1.376 . S
N594 C598 1.374 . S
C595 N594 1.376 . S
C595 C596 1.443 . S
C595 C622 1.389 . S
C596 C595 1.443 . S
C596 C597 1.340 . S
C596 H628 0.951 . S
C597 C596 1.340 . S
C597 C598 1.439 . S
C597 H629 0.950 . S
C598 N594 1.374 . S
C598 C597 1.439 . S
C598 C623 1.395 . S
N599 Co588 1.995 . S
N599 C600 1.376 . S
N599 C603 1.383 . S
C600 N599 1.376 . S
C600 C601 1.446 . S
C600 C623 1.391 . S
C601 C600 1.446 . S
C601 C602 1.339 . S
C601 H630 0.949 . S
C602 C601 1.339 . S
C602 C603 1.439 . S
C602 H631 0.950 . S
C603 N599 1.383 . S
C603 C602 1.439 . S
C603 C621 1.392 . S
N604 Co588 2.282 . S
N604 C607 1.332 . S
N604 C609 1.332 . S
C605 C606 1.386 . S
C605 C608 1.388 . S
C606 C605 1.386 . S
C606 C607 1.382 . S
C606 H632 0.950 . S
C607 N604 1.332 . S
C607 C606 1.382 . S
C607 H618 0.952 . S
C608 C605 1.388 . S
C608 C609 1.382 . S
C608 H633 0.950 . S
C609 N604 1.332 . S
C609 C608 1.382 . S
C609 H619 0.948 . S
N610 Co588 2.282 . S
N610 C614 1.332 . S
N610 C615 1.332 . S
C611 C612 1.388 . S
C611 C615 1.382 . S
C611 H634 0.950 . S
C612 C611 1.388 . S
C612 C613 1.386 . S
C613 C612 1.386 . S
C613 C614 1.382 . S
C613 H635 0.950 . S
C614 N610 1.332 . S
C614 C613 1.382 . S
C614 H616 0.952 . S
C615 N610 1.332 . S
C615 C611 1.382 . S
C615 H617 0.948 . S
H616 C614 0.952 . S
H617 C615 0.948 . S
H618 C607 0.952 . S
H619 C609 0.948 . S
C620 C586 1.395 . S
C620 C590 1.391 . S
C621 C583 1.389 . S
C621 C603 1.392 . S
C622 C593 1.392 . S
C622 C595 1.389 . S
C623 C598 1.395 . S
C623 C600 1.391 . S
H624 C584 0.951 . S
H625 C585 0.950 . S
H626 C591 0.949 . S
H627 C592 0.950 . S
H628 C596 0.951 . S
H629 C597 0.950 . S
H630 C601 0.949 . S
H631 C602 0.950 . S
H632 C606 0.950 . S
H633 C608 0.950 . S
H634 C611 0.950 . S
H635 C613 0.950 . S
C636 C637 1.443 . S
C636 N640 1.376 . S
C636 C674 1.389 . S
C637 C636 1.443 . S
C637 C638 1.340 . S
C637 H677 0.951 . S
C638 C637 1.340 . S
C638 C639 1.439 . S
C638 H678 0.950 . S
C639 C638 1.439 . S
C639 N640 1.374 . S
C639 C673 1.395 . S
N640 C636 1.376 . S
N640 C639 1.374 . S
N640 Co641 2.008 . S
Co641 N640 2.008 . S
Co641 N642 1.995 . S
Co641 N647 2.008 . S
Co641 N652 1.995 . S
Co641 N657 2.282 . S
Co641 N663 2.282 . S
N642 Co641 1.995 . S
N642 C643 1.376 . S
N642 C646 1.383 . S
C643 N642 1.376 . S
C643 C644 1.446 . S
C643 C673 1.391 . S
C644 C643 1.446 . S
C644 C645 1.339 . S
C644 H679 0.949 . S
C645 C644 1.339 . S
C645 C646 1.439 . S
C645 H680 0.950 . S
C646 N642 1.383 . S
C646 C645 1.439 . S
C646 C675 1.392 . S
N647 Co641 2.008 . S
N647 C648 1.376 . S
N647 C651 1.374 . S
C648 N647 1.376 . S
C648 C649 1.443 . S
C648 C675 1.389 . S
C649 C648 1.443 . S
C649 C650 1.340 . S
C649 H681 0.951 . S
C650 C649 1.340 . S
C650 C651 1.439 . S
C650 H682 0.950 . S
C651 N647 1.374 . S
C651 C650 1.439 . S
C651 C676 1.395 . S
N652 Co641 1.995 . S
N652 C653 1.376 . S
N652 C656 1.383 . S
C653 N652 1.376 . S
C653 C654 1.446 . S
C653 C676 1.391 . S
C654 C653 1.446 . S
C654 C655 1.339 . S
C654 H683 0.949 . S
C655 C654 1.339 . S
C655 C656 1.439 . S
C655 H684 0.950 . S
C656 N652 1.383 . S
C656 C655 1.439 . S
C656 C674 1.392 . S
N657 Co641 2.282 . S
N657 C660 1.332 . S
N657 C662 1.332 . S
C658 C659 1.386 . S
C658 C661 1.388 . S
C659 C658 1.386 . S
C659 C660 1.382 . S
C659 H685 0.950 . S
C660 N657 1.332 . S
C660 C659 1.382 . S
C660 H671 0.952 . S
C661 C658 1.388 . S
C661 C662 1.382 . S
C661 H686 0.950 . S
C662 N657 1.332 . S
C662 C661 1.382 . S
C662 H672 0.948 . S
N663 Co641 2.282 . S
N663 C667 1.332 . S
N663 C668 1.332 . S
C664 C665 1.388 . S
C664 C668 1.382 . S
C664 H687 0.950 . S
C665 C664 1.388 . S
C665 C666 1.386 . S
C666 C665 1.386 . S
C666 C667 1.382 . S
C666 H688 0.950 . S
C667 N663 1.332 . S
C667 C666 1.382 . S
C667 H669 0.952 . S
C668 N663 1.332 . S
C668 C664 1.382 . S
C668 H670 0.948 . S
H669 C667 0.952 . S
H670 C668 0.948 . S
H671 C660 0.952 . S
H672 C662 0.948 . S
C673 C639 1.395 . S
C673 C643 1.391 . S
C674 C636 1.389 . S
C674 C656 1.392 . S
C675 C646 1.392 . S
C675 C648 1.389 . S
C676 C651 1.395 . S
C676 C653 1.391 . S
H677 C637 0.951 . S
H678 C638 0.950 . S
H679 C644 0.949 . S
H680 C645 0.950 . S
H681 C649 0.951 . S
H682 C650 0.950 . S
H683 C654 0.949 . S
H684 C655 0.950 . S
H685 C659 0.950 . S
H686 C661 0.950 . S
H687 C664 0.950 . S
H688 C666 0.950 . S
C689 C690 1.443 . S
C689 N693 1.376 . S
C689 C727 1.389 . S
C690 C689 1.443 . S
C690 C691 1.340 . S
C690 H730 0.951 . S
C691 C690 1.340 . S
C691 C692 1.439 . S
C691 H731 0.950 . S
C692 C691 1.439 . S
C692 N693 1.374 . S
C692 C726 1.395 . S
N693 C689 1.376 . S
N693 C692 1.374 . S
N693 Co694 2.008 . S
Co694 N693 2.008 . S
Co694 N695 1.995 . S
Co694 N700 2.008 . S
Co694 N705 1.995 . S
Co694 N710 2.282 . S
Co694 N716 2.282 . S
N695 Co694 1.995 . S
N695 C696 1.376 . S
N695 C699 1.383 . S
C696 N695 1.376 . S
C696 C697 1.446 . S
C696 C726 1.391 . S
C697 C696 1.446 . S
C697 C698 1.339 . S
C697 H732 0.949 . S
C698 C697 1.339 . S
C698 C699 1.439 . S
C698 H733 0.950 . S
C699 N695 1.383 . S
C699 C698 1.439 . S
C699 C728 1.392 . S
N700 Co694 2.008 . S
N700 C701 1.376 . S
N700 C704 1.374 . S
C701 N700 1.376 . S
C701 C702 1.443 . S
C701 C728 1.389 . S
C702 C701 1.443 . S
C702 C703 1.340 . S
C702 H734 0.951 . S
C703 C702 1.340 . S
C703 C704 1.439 . S
C703 H735 0.950 . S
C704 N700 1.374 . S
C704 C703 1.439 . S
C704 C729 1.395 . S
N705 Co694 1.995 . S
N705 C706 1.376 . S
N705 C709 1.383 . S
C706 N705 1.376 . S
C706 C707 1.446 . S
C706 C729 1.391 . S
C707 C706 1.446 . S
C707 C708 1.339 . S
C707 H736 0.949 . S
C708 C707 1.339 . S
C708 C709 1.439 . S
C708 H737 0.950 . S
C709 N705 1.383 . S
C709 C708 1.439 . S
C709 C727 1.392 . S
N710 Co694 2.282 . S
N710 C713 1.332 . S
N710 C715 1.332 . S
C711 C712 1.386 . S
C711 C714 1.388 . S
C712 C711 1.386 . S
C712 C713 1.382 . S
C712 H738 0.950 . S
C713 N710 1.332 . S
C713 C712 1.382 . S
C713 H724 0.952 . S
C714 C711 1.388 . S
C714 C715 1.382 . S
C714 H739 0.950 . S
C715 N710 1.332 . S
C715 C714 1.382 . S
C715 H725 0.948 . S
N716 Co694 2.282 . S
N716 C720 1.332 . S
N716 C721 1.332 . S
C717 C718 1.388 . S
C717 C721 1.382 . S
C717 H740 0.950 . S
C718 C717 1.388 . S
C718 C719 1.386 . S
C719 C718 1.386 . S
C719 C720 1.382 . S
C719 H741 0.950 . S
C720 N716 1.332 . S
C720 C719 1.382 . S
C720 H722 0.952 . S
C721 N716 1.332 . S
C721 C717 1.382 . S
C721 H723 0.948 . S
H722 C720 0.952 . S
H723 C721 0.948 . S
H724 C713 0.952 . S
H725 C715 0.948 . S
C726 C692 1.395 . S
C726 C696 1.391 . S
C727 C689 1.389 . S
C727 C709 1.392 . S
C728 C699 1.392 . S
C728 C701 1.389 . S
C729 C704 1.395 . S
C729 C706 1.391 . S
H730 C690 0.951 . S
H731 C691 0.950 . S
H732 C697 0.949 . S
H733 C698 0.950 . S
H734 C702 0.951 . S
H735 C703 0.950 . S
H736 C707 0.949 . S
H737 C708 0.950 . S
H738 C712 0.950 . S
H739 C714 0.950 . S
H740 C717 0.950 . S
H741 C719 0.950 . S
C742 C743 1.443 . S
C742 N746 1.376 . S
C742 C780 1.389 . S
C743 C742 1.443 . S
C743 C744 1.340 . S
C743 H783 0.951 . S
C744 C743 1.340 . S
C744 C745 1.439 . S
C744 H784 0.950 . S
C745 C744 1.439 . S
C745 N746 1.374 . S
C745 C779 1.395 . S
N746 C742 1.376 . S
N746 C745 1.374 . S
N746 Co747 2.008 . S
Co747 N746 2.008 . S
Co747 N748 1.995 . S
Co747 N753 2.008 . S
Co747 N758 1.995 . S
Co747 N763 2.282 . S
Co747 N769 2.282 . S
N748 Co747 1.995 . S
N748 C749 1.376 . S
N748 C752 1.383 . S
C749 N748 1.376 . S
C749 C750 1.446 . S
C749 C779 1.391 . S
C750 C749 1.446 . S
C750 C751 1.339 . S
C750 H785 0.949 . S
C751 C750 1.339 . S
C751 C752 1.439 . S
C751 H786 0.950 . S
C752 N748 1.383 . S
C752 C751 1.439 . S
C752 C781 1.392 . S
N753 Co747 2.008 . S
N753 C754 1.376 . S
N753 C757 1.374 . S
C754 N753 1.376 . S
C754 C755 1.443 . S
C754 C781 1.389 . S
C755 C754 1.443 . S
C755 C756 1.340 . S
C755 H787 0.951 . S
C756 C755 1.340 . S
C756 C757 1.439 . S
C756 H788 0.950 . S
C757 N753 1.374 . S
C757 C756 1.439 . S
C757 C782 1.395 . S
N758 Co747 1.995 . S
N758 C759 1.376 . S
N758 C762 1.383 . S
C759 N758 1.376 . S
C759 C760 1.446 . S
C759 C782 1.391 . S
C760 C759 1.446 . S
C760 C761 1.339 . S
C760 H789 0.949 . S
C761 C760 1.339 . S
C761 C762 1.439 . S
C761 H790 0.950 . S
C762 N758 1.383 . S
C762 C761 1.439 . S
C762 C780 1.392 . S
N763 Co747 2.282 . S
N763 C766 1.332 . S
N763 C768 1.332 . S
C764 C765 1.386 . S
C764 C767 1.388 . S
C765 C764 1.386 . S
C765 C766 1.382 . S
C765 H791 0.950 . S
C766 N763 1.332 . S
C766 C765 1.382 . S
C766 H777 0.952 . S
C767 C764 1.388 . S
C767 C768 1.382 . S
C767 H792 0.950 . S
C768 N763 1.332 . S
C768 C767 1.382 . S
C768 H778 0.948 . S
N769 Co747 2.282 . S
N769 C773 1.332 . S
N769 C774 1.332 . S
C770 C771 1.388 . S
C770 C774 1.382 . S
C770 H793 0.950 . S
C771 C770 1.388 . S
C771 C772 1.386 . S
C772 C771 1.386 . S
C772 C773 1.382 . S
C772 H794 0.950 . S
C773 N769 1.332 . S
C773 C772 1.382 . S
C773 H775 0.952 . S
C774 N769 1.332 . S
C774 C770 1.382 . S
C774 H776 0.948 . S
H775 C773 0.952 . S
H776 C774 0.948 . S
H777 C766 0.952 . S
H778 C768 0.948 . S
C779 C745 1.395 . S
C779 C749 1.391 . S
C780 C742 1.389 . S
C780 C762 1.392 . S
C781 C752 1.392 . S
C781 C754 1.389 . S
C782 C757 1.395 . S
C782 C759 1.391 . S
H783 C743 0.951 . S
H784 C744 0.950 . S
H785 C750 0.949 . S
H786 C751 0.950 . S
H787 C755 0.951 . S
H788 C756 0.950 . S
H789 C760 0.949 . S
H790 C761 0.950 . S
H791 C765 0.950 . S
H792 C767 0.950 . S
H793 C770 0.950 . S
H794 C772 0.950 . S
C795 C796 1.443 . S
C795 N799 1.376 . S
C795 C833 1.389 . S
C796 C795 1.443 . S
C796 C797 1.340 . S
C796 H836 0.951 . S
C797 C796 1.340 . S
C797 C798 1.439 . S
C797 H837 0.950 . S
C798 C797 1.439 . S
C798 N799 1.374 . S
C798 C832 1.395 . S
N799 C795 1.376 . S
N799 C798 1.374 . S
N799 Co800 2.008 . S
Co800 N799 2.008 . S
Co800 N801 1.995 . S
Co800 N806 2.008 . S
Co800 N811 1.995 . S
Co800 N816 2.282 . S
Co800 N822 2.282 . S
N801 Co800 1.995 . S
N801 C802 1.376 . S
N801 C805 1.383 . S
C802 N801 1.376 . S
C802 C803 1.446 . S
C802 C832 1.391 . S
C803 C802 1.446 . S
C803 C804 1.339 . S
C803 H838 0.949 . S
C804 C803 1.339 . S
C804 C805 1.439 . S
C804 H839 0.950 . S
C805 N801 1.383 . S
C805 C804 1.439 . S
C805 C834 1.392 . S
N806 Co800 2.008 . S
N806 C807 1.376 . S
N806 C810 1.374 . S
C807 N806 1.376 . S
C807 C808 1.443 . S
C807 C834 1.389 . S
C808 C807 1.443 . S
C808 C809 1.340 . S
C808 H840 0.951 . S
C809 C808 1.340 . S
C809 C810 1.439 . S
C809 H841 0.950 . S
C810 N806 1.374 . S
C810 C809 1.439 . S
C810 C835 1.395 . S
N811 Co800 1.995 . S
N811 C812 1.376 . S
N811 C815 1.383 . S
C812 N811 1.376 . S
C812 C813 1.446 . S
C812 C835 1.391 . S
C813 C812 1.446 . S
C813 C814 1.339 . S
C813 H842 0.949 . S
C814 C813 1.339 . S
C814 C815 1.439 . S
C814 H843 0.950 . S
C815 N811 1.383 . S
C815 C814 1.439 . S
C815 C833 1.392 . S
N816 Co800 2.282 . S
N816 C819 1.332 . S
N816 C821 1.332 . S
C817 C818 1.386 . S
C817 C820 1.388 . S
C818 C817 1.386 . S
C818 C819 1.382 . S
C818 H844 0.950 . S
C819 N816 1.332 . S
C819 C818 1.382 . S
C819 H830 0.952 . S
C820 C817 1.388 . S
C820 C821 1.382 . S
C820 H845 0.950 . S
C821 N816 1.332 . S
C821 C820 1.382 . S
C821 H831 0.948 . S
N822 Co800 2.282 . S
N822 C826 1.332 . S
N822 C827 1.332 . S
C823 C824 1.388 . S
C823 C827 1.382 . S
C823 H846 0.950 . S
C824 C823 1.388 . S
C824 C825 1.386 . S
C825 C824 1.386 . S
C825 C826 1.382 . S
C825 H847 0.950 . S
C826 N822 1.332 . S
C826 C825 1.382 . S
C826 H828 0.952 . S
C827 N822 1.332 . S
C827 C823 1.382 . S
C827 H829 0.948 . S
H828 C826 0.952 . S
H829 C827 0.948 . S
H830 C819 0.952 . S
H831 C821 0.948 . S
C832 C798 1.395 . S
C832 C802 1.391 . S
C833 C795 1.389 . S
C833 C815 1.392 . S
C834 C805 1.392 . S
C834 C807 1.389 . S
C835 C810 1.395 . S
C835 C812 1.391 . S
H836 C796 0.951 . S
H837 C797 0.950 . S
H838 C803 0.949 . S
H839 C804 0.950 . S
H840 C808 0.951 . S
H841 C809 0.950 . S
H842 C813 0.949 . S
H843 C814 0.950 . S
H844 C818 0.950 . S
H845 C820 0.950 . S
H846 C823 0.950 . S
H847 C825 0.950 . S
C848 C849 1.443 . S
C848 N852 1.376 . S
C848 C886 1.389 . S
C849 C848 1.443 . S
C849 C850 1.340 . S
C849 H889 0.951 . S
C850 C849 1.340 . S
C850 C851 1.439 . S
C850 H890 0.950 . S
C851 C850 1.439 . S
C851 N852 1.374 . S
C851 C885 1.395 . S
N852 C848 1.376 . S
N852 C851 1.374 . S
N852 Co853 2.008 . S
Co853 N852 2.008 . S
Co853 N854 1.995 . S
Co853 N859 2.008 . S
Co853 N864 1.995 . S
Co853 N869 2.282 . S
Co853 N875 2.282 . S
N854 Co853 1.995 . S
N854 C855 1.376 . S
N854 C858 1.383 . S
C855 N854 1.376 . S
C855 C856 1.446 . S
C855 C885 1.391 . S
C856 C855 1.446 . S
C856 C857 1.339 . S
C856 H891 0.949 . S
C857 C856 1.339 . S
C857 C858 1.439 . S
C857 H892 0.950 . S
C858 N854 1.383 . S
C858 C857 1.439 . S
C858 C887 1.392 . S
N859 Co853 2.008 . S
N859 C860 1.376 . S
N859 C863 1.374 . S
C860 N859 1.376 . S
C860 C861 1.443 . S
C860 C887 1.389 . S
C861 C860 1.443 . S
C861 C862 1.340 . S
C861 H893 0.951 . S
C862 C861 1.340 . S
C862 C863 1.439 . S
C862 H894 0.950 . S
C863 N859 1.374 . S
C863 C862 1.439 . S
C863 C888 1.395 . S
N864 Co853 1.995 . S
N864 C865 1.376 . S
N864 C868 1.383 . S
C865 N864 1.376 . S
C865 C866 1.446 . S
C865 C888 1.391 . S
C866 C865 1.446 . S
C866 C867 1.339 . S
C866 H895 0.949 . S
C867 C866 1.339 . S
C867 C868 1.439 . S
C867 H896 0.950 . S
C868 N864 1.383 . S
C868 C867 1.439 . S
C868 C886 1.392 . S
N869 Co853 2.282 . S
N869 C872 1.332 . S
N869 C874 1.332 . S
C870 C871 1.386 . S
C870 C873 1.388 . S
C871 C870 1.386 . S
C871 C872 1.382 . S
C871 H897 0.950 . S
C872 N869 1.332 . S
C872 C871 1.382 . S
C872 H883 0.952 . S
C873 C870 1.388 . S
C873 C874 1.382 . S
C873 H898 0.950 . S
C874 N869 1.332 . S
C874 C873 1.382 . S
C874 H884 0.948 . S
N875 Co853 2.282 . S
N875 C879 1.332 . S
N875 C880 1.332 . S
C876 C877 1.388 . S
C876 C880 1.382 . S
C876 H899 0.950 . S
C877 C876 1.388 . S
C877 C878 1.386 . S
C878 C877 1.386 . S
C878 C879 1.382 . S
C878 H900 0.950 . S
C879 N875 1.332 . S
C879 C878 1.382 . S
C879 H881 0.952 . S
C880 N875 1.332 . S
C880 C876 1.382 . S
C880 H882 0.948 . S
H881 C879 0.952 . S
H882 C880 0.948 . S
H883 C872 0.952 . S
H884 C874 0.948 . S
C885 C851 1.395 . S
C885 C855 1.391 . S
C886 C848 1.389 . S
C886 C868 1.392 . S
C887 C858 1.392 . S
C887 C860 1.389 . S
C888 C863 1.395 . S
C888 C865 1.391 . S
H889 C849 0.951 . S
H890 C850 0.950 . S
H891 C856 0.949 . S
H892 C857 0.950 . S
H893 C861 0.951 . S
H894 C862 0.950 . S
H895 C866 0.949 . S
H896 C867 0.950 . S
H897 C871 0.950 . S
H898 C873 0.950 . S
H899 C876 0.950 . S
H900 C878 0.950 . S
C901 C902 1.443 . S
C901 N905 1.376 . S
C901 C939 1.389 . S
C902 C901 1.443 . S
C902 C903 1.340 . S
C902 H942 0.951 . S
C903 C902 1.340 . S
C903 C904 1.439 . S
C903 H943 0.950 . S
C904 C903 1.439 . S
C904 N905 1.374 . S
C904 C938 1.395 . S
N905 C901 1.376 . S
N905 C904 1.374 . S
N905 Co906 2.008 . S
Co906 N905 2.008 . S
Co906 N907 1.995 . S
Co906 N912 2.008 . S
Co906 N917 1.995 . S
Co906 N922 2.282 . S
Co906 N928 2.282 . S
N907 Co906 1.995 . S
N907 C908 1.376 . S
N907 C911 1.383 . S
C908 N907 1.376 . S
C908 C909 1.446 . S
C908 C938 1.391 . S
C909 C908 1.446 . S
C909 C910 1.339 . S
C909 H944 0.949 . S
C910 C909 1.339 . S
C910 C911 1.439 . S
C910 H945 0.950 . S
C911 N907 1.383 . S
C911 C910 1.439 . S
C911 C940 1.392 . S
N912 Co906 2.008 . S
N912 C913 1.376 . S
N912 C916 1.374 . S
C913 N912 1.376 . S
C913 C914 1.443 . S
C913 C940 1.389 . S
C914 C913 1.443 . S
C914 C915 1.340 . S
C914 H946 0.951 . S
C915 C914 1.340 . S
C915 C916 1.439 . S
C915 H947 0.950 . S
C916 N912 1.374 . S
C916 C915 1.439 . S
C916 C941 1.395 . S
N917 Co906 1.995 . S
N917 C918 1.376 . S
N917 C921 1.383 . S
C918 N917 1.376 . S
C918 C919 1.446 . S
C918 C941 1.391 . S
C919 C918 1.446 . S
C919 C920 1.339 . S
C919 H948 0.949 . S
C920 C919 1.339 . S
C920 C921 1.439 . S
C920 H949 0.950 . S
C921 N917 1.383 . S
C921 C920 1.439 . S
C921 C939 1.392 . S
N922 Co906 2.282 . S
N922 C925 1.332 . S
N922 C927 1.332 . S
C923 C924 1.386 . S
C923 C926 1.388 . S
C924 C923 1.386 . S
C924 C925 1.382 . S
C924 H950 0.950 . S
C925 N922 1.332 . S
C925 C924 1.382 . S
C925 H936 0.952 . S
C926 C923 1.388 . S
C926 C927 1.382 . S
C926 H951 0.950 . S
C927 N922 1.332 . S
C927 C926 1.382 . S
C927 H937 0.948 . S
N928 Co906 2.282 . S
N928 C932 1.332 . S
N928 C933 1.332 . S
C929 C930 1.388 . S
C929 C933 1.382 . S
C929 H952 0.950 . S
C930 C929 1.388 . S
C930 C931 1.386 . S
C931 C930 1.386 . S
C931 C932 1.382 . S
C931 H953 0.950 . S
C932 N928 1.332 . S
C932 C931 1.382 . S
C932 H934 0.952 . S
C933 N928 1.332 . S
C933 C929 1.382 . S
C933 H935 0.948 . S
H934 C932 0.952 . S
H935 C933 0.948 . S
H936 C925 0.952 . S
H937 C927 0.948 . S
C938 C904 1.395 . S
C938 C908 1.391 . S
C939 C901 1.389 . S
C939 C921 1.392 . S
C940 C911 1.392 . S
C940 C913 1.389 . S
C941 C916 1.395 . S
C941 C918 1.391 . S
H942 C902 0.951 . S
H943 C903 0.950 . S
H944 C909 0.949 . S
H945 C910 0.950 . S
H946 C914 0.951 . S
H947 C915 0.950 . S
H948 C919 0.949 . S
H949 C920 0.950 . S
H950 C924 0.950 . S
H951 C926 0.950 . S
H952 C929 0.950 . S
H953 C931 0.950 . S
H954 C962 0.929 . S
H955 C964 0.930 . S
H956 C966 0.930 . S
H957 C969 0.929 . S
H958 C972 0.930 . S
H959 C974 0.960 . S
H960 C974 0.960 . S
H961 C974 0.960 1_455 S
C962 H954 0.929 . S
C962 C963 1.383 1_655 S
C962 C964 1.384 . S
C963 C962 1.383 1_455 S
C963 C969 1.384 . S
C964 H955 0.930 . S
C964 C962 1.384 . S
C964 C965 1.401 . S
C965 C964 1.401 . S
C965 C966 1.370 1_655 S
C965 C970 1.490 . S
C966 H956 0.930 . S
C966 C965 1.370 1_455 S
C966 C969 1.386 . S
H967 C983 0.930 . S
H968 C984 0.931 . S
C969 H957 0.929 . S
C969 C963 1.384 . S
C969 C966 1.386 . S
C970 C965 1.490 . S
C970 C972 1.400 1_655 S
C970 C973 1.399 . S
H971 C977 0.930 . S
C972 H958 0.930 . S
C972 C970 1.400 1_455 S
C972 C975 1.403 . S
C973 C970 1.399 . S
C973 C974 1.524 . S
C973 C977 1.400 . S
C974 H959 0.960 . S
C974 H960 0.960 . S
C974 H961 0.960 1_655 S
C974 C973 1.524 . S
C975 C972 1.403 . S
C975 C976 1.382 . S
C975 C979 1.495 . S
C976 C975 1.382 . S
C976 C977 1.397 1_455 S
C976 C978 1.479 . S
C977 H971 0.930 . S
C977 C973 1.400 . S
C977 C976 1.397 1_655 S
C978 C976 1.479 . S
C978 C980 1.381 1_455 S
C978 C984 1.383 . S
C979 C975 1.495 . S
C979 H985 0.959 . S
C979 H986 0.961 . S
C979 H987 0.960 1_455 S
C980 C978 1.381 1_655 S
C980 C981 1.394 . S
C980 H988 0.930 . S
C981 C980 1.394 . S
C981 C982 1.383 1_655 S
C981 H989 0.929 . S
C982 C981 1.383 1_455 S
C982 C983 1.377 . S
C983 H967 0.930 . S
C983 C982 1.377 . S
C983 C984 1.379 . S
C984 H968 0.931 . S
C984 C978 1.383 . S
C984 C983 1.379 . S
H985 C979 0.959 . S
H986 C979 0.961 . S
H987 C979 0.960 1_655 S
H988 C980 0.930 . S
H989 C981 0.929 . S
H990 C998 0.929 . S
H991 C1000 0.930 . S
H992 C1002 0.930 . S
H993 C1005 0.929 . S
H994 C1008 0.930 . S
H995 C1010 0.960 . S
H996 C1010 0.960 . S
H997 C1010 0.960 . S
C998 H990 0.929 . S
C998 C999 1.377 . S
C998 C1000 1.384 . S
C999 C998 1.377 . S
C999 C1005 1.390 . S
C1000 H991 0.930 . S
C1000 C998 1.384 . S
C1000 C1001 1.372 . S
C1001 C1000 1.372 . S
C1001 C1002 1.400 . S
C1001 C1006 1.490 . S
C1002 H992 0.930 . S
C1002 C1001 1.400 . S
C1002 C1005 1.386 . S
H1003 C1019 0.930 . S
H1004 C1020 0.931 . S
C1005 H993 0.929 . S
C1005 C999 1.390 . S
C1005 C1002 1.386 . S
C1006 C1001 1.490 . S
C1006 C1008 1.395 . S
C1006 C1009 1.403 . S
H1007 C1013 0.930 . S
C1008 H994 0.930 . S
C1008 C1006 1.395 . S
C1008 C1011 1.403 . S
C1009 C1006 1.403 . S
C1009 C1010 1.524 . S
C1009 C1013 1.400 . S
C1010 H995 0.960 . S
C1010 H996 0.960 . S
C1010 H997 0.960 . S
C1010 C1009 1.524 . S
C1011 C1008 1.403 . S
C1011 C1012 1.392 . S
C1011 C1015 1.495 . S
C1012 C1011 1.392 . S
C1012 C1013 1.385 . S
C1012 C1014 1.478 . S
C1013 H1007 0.930 . S
C1013 C1009 1.400 . S
C1013 C1012 1.385 . S
C1014 C1012 1.478 . S
C1014 C1016 1.381 . S
C1014 C1020 1.383 . S
C1015 C1011 1.495 . S
C1015 H1021 0.959 . S
C1015 H1022 0.961 . S
C1015 H1023 0.960 . S
C1016 C1014 1.381 . S
C1016 C1017 1.394 . S
C1016 H1024 0.930 . S
C1017 C1016 1.394 . S
C1017 C1018 1.383 . S
C1017 H1025 0.929 . S
C1018 C1017 1.383 . S
C1018 C1019 1.377 . S
C1019 H1003 0.930 . S
C1019 C1018 1.377 . S
C1019 C1020 1.379 . S
C1020 H1004 0.931 . S
C1020 C1014 1.383 . S
C1020 C1019 1.379 . S
H1021 C1015 0.959 . S
H1022 C1015 0.961 . S
H1023 C1015 0.960 . S
H1024 C1016 0.930 . S
H1025 C1017 0.929 . S
H1026 C1034 0.929 . S
H1027 C1036 0.930 . S
H1028 C1038 0.930 . S
H1029 C1041 0.929 . S
H1030 C1044 0.930 . S
H1031 C1046 0.960 . S
H1032 C1046 0.960 . S
H1033 C1046 0.960 . S
C1034 H1026 0.929 . S
C1034 C1035 1.377 . S
C1034 C1036 1.384 . S
C1035 C1034 1.377 . S
C1035 C1041 1.390 . S
C1036 H1027 0.930 . S
C1036 C1034 1.384 . S
C1036 C1037 1.372 . S
C1037 C1036 1.372 . S
C1037 C1038 1.400 . S
C1037 C1042 1.490 . S
C1038 H1028 0.930 . S
C1038 C1037 1.400 . S
C1038 C1041 1.386 . S
H1039 C1055 0.930 . S
H1040 C1056 0.931 . S
C1041 H1029 0.929 . S
C1041 C1035 1.390 . S
C1041 C1038 1.386 . S
C1042 C1037 1.490 . S
C1042 C1044 1.395 . S
C1042 C1045 1.403 1_545 S
H1043 C1049 0.930 . S
C1044 H1030 0.930 . S
C1044 C1042 1.395 . S
C1044 C1047 1.403 . S
C1045 C1042 1.403 1_565 S
C1045 C1046 1.524 . S
C1045 C1049 1.400 . S
C1046 H1031 0.960 . S
C1046 H1032 0.960 . S
C1046 H1033 0.960 . S
C1046 C1045 1.524 . S
C1047 C1044 1.403 . S
C1047 C1048 1.392 . S
C1047 C1051 1.495 . S
C1048 C1047 1.392 . S
C1048 C1049 1.385 1_545 S
C1048 C1050 1.478 . S
C1049 H1043 0.930 . S
C1049 C1045 1.400 . S
C1049 C1048 1.385 1_565 S
C1050 C1048 1.478 . S
C1050 C1052 1.381 . S
C1050 C1056 1.383 . S
C1051 C1047 1.495 . S
C1051 H1057 0.959 . S
C1051 H1058 0.961 . S
C1051 H1059 0.960 . S
C1052 C1050 1.381 . S
C1052 C1053 1.394 . S
C1052 H1060 0.930 . S
C1053 C1052 1.394 . S
C1053 C1054 1.383 . S
C1053 H1061 0.929 . S
C1054 C1053 1.383 . S
C1054 C1055 1.377 . S
C1055 H1039 0.930 . S
C1055 C1054 1.377 . S
C1055 C1056 1.379 . S
C1056 H1040 0.931 . S
C1056 C1050 1.383 . S
C1056 C1055 1.379 . S
H1057 C1051 0.959 . S
H1058 C1051 0.961 . S
H1059 C1051 0.960 . S
H1060 C1052 0.930 . S
H1061 C1053 0.929 . S
H1062 C1070 0.929 . S
H1063 C1072 0.930 . S
H1064 C1074 0.930 . S
H1065 C1077 0.929 . S
H1066 C1080 0.930 . S
H1067 C1082 0.960 . S
H1068 C1082 0.960 . S
H1069 C1082 0.960 . S
C1070 H1062 0.929 . S
C1070 C1071 1.339 1_655 S
C1070 C1072 1.384 . S
C1071 C1070 1.339 1_455 S
C1071 C1077 1.428 . S
C1072 H1063 0.930 . S
C1072 C1070 1.384 . S
C1072 C1073 1.379 . S
C1073 C1072 1.379 . S
C1073 C1074 1.392 1_655 S
C1073 C1078 1.490 . S
C1074 H1064 0.930 . S
C1074 C1073 1.392 1_455 S
C1074 C1077 1.386 . S
H1075 C1091 0.930 . S
H1076 C1092 0.931 . S
C1077 H1065 0.929 . S
C1077 C1071 1.428 . S
C1077 C1074 1.386 . S
C1078 C1073 1.490 . S
C1078 C1080 1.422 . S
C1078 C1081 1.379 1_655 S
H1079 C1085 0.930 . S
C1080 H1066 0.930 . S
C1080 C1078 1.422 . S
C1080 C1083 1.403 . S
C1081 C1078 1.379 1_455 S
C1081 C1082 1.524 . S
C1081 C1085 1.400 . S
C1082 H1067 0.960 . S
C1082 H1068 0.960 . S
C1082 H1069 0.960 . S
C1082 C1081 1.524 . S
C1083 C1080 1.403 . S
C1083 C1084 1.392 . S
C1083 C1087 1.495 . S
C1084 C1083 1.392 . S
C1084 C1085 1.385 1_655 S
C1084 C1086 1.478 . S
C1085 H1079 0.930 . S
C1085 C1081 1.400 . S
C1085 C1084 1.385 1_455 S
C1086 C1084 1.478 . S
C1086 C1088 1.381 . S
C1086 C1092 1.383 1_655 S
C1087 C1083 1.495 . S
C1087 H1093 0.959 . S
C1087 H1094 0.961 . S
C1087 H1095 0.960 . S
C1088 C1086 1.381 . S
C1088 C1089 1.394 . S
C1088 H1096 0.930 . S
C1089 C1088 1.394 . S
C1089 C1090 1.430 . S
C1089 H1097 0.929 . S
C1090 C1089 1.430 . S
C1090 C1091 1.333 1_655 S
C1091 H1075 0.930 . S
C1091 C1090 1.333 1_455 S
C1091 C1092 1.379 . S
C1092 H1076 0.931 . S
C1092 C1086 1.383 1_455 S
C1092 C1091 1.379 . S
H1093 C1087 0.959 . S
H1094 C1087 0.961 . S
H1095 C1087 0.960 . S
H1096 C1088 0.930 . S
H1097 C1089 0.929 . S
H1098 C1106 0.929 . S
H1099 C1108 0.930 . S
H1100 C1110 0.930 . S
H1101 C1113 0.929 . S
H1102 C1116 0.930 . S
H1103 C1118 0.960 . S
H1104 C1118 0.960 . S
H1105 C1118 0.960 . S
C1106 H1098 0.929 . S
C1106 C1107 1.377 . S
C1106 C1108 1.384 . S
C1107 C1106 1.377 . S
C1107 C1113 1.390 . S
C1108 H1099 0.930 . S
C1108 C1106 1.384 . S
C1108 C1109 1.372 . S
C1109 C1108 1.372 . S
C1109 C1110 1.400 . S
C1109 C1114 1.490 . S
C1110 H1100 0.930 . S
C1110 C1109 1.400 . S
C1110 C1113 1.386 . S
H1111 C1127 0.930 . S
H1112 C1128 0.931 . S
C1113 H1101 0.929 . S
C1113 C1107 1.390 . S
C1113 C1110 1.386 . S
C1114 C1109 1.490 . S
C1114 C1116 1.395 . S
C1114 C1117 1.403 . S
H1115 C1121 0.930 . S
C1116 H1102 0.930 . S
C1116 C1114 1.395 . S
C1116 C1119 1.403 . S
C1117 C1114 1.403 . S
C1117 C1118 1.524 . S
C1117 C1121 1.400 . S
C1118 H1103 0.960 . S
C1118 H1104 0.960 . S
C1118 H1105 0.960 . S
C1118 C1117 1.524 . S
C1119 C1116 1.403 . S
C1119 C1120 1.392 . S
C1119 C1123 1.495 . S
C1120 C1119 1.392 . S
C1120 C1121 1.385 . S
C1120 C1122 1.478 . S
C1121 H1115 0.930 . S
C1121 C1117 1.400 . S
C1121 C1120 1.385 . S
C1122 C1120 1.478 . S
C1122 C1124 1.381 . S
C1122 C1128 1.383 . S
C1123 C1119 1.495 . S
C1123 H1129 0.959 . S
C1123 H1130 0.961 . S
C1123 H1131 0.960 . S
C1124 C1122 1.381 . S
C1124 C1125 1.394 . S
C1124 H1132 0.930 . S
C1125 C1124 1.394 . S
C1125 C1126 1.383 . S
C1125 H1133 0.929 . S
C1126 C1125 1.383 . S
C1126 C1127 1.377 . S
C1127 H1111 0.930 . S
C1127 C1126 1.377 . S
C1127 C1128 1.379 . S
C1128 H1112 0.931 . S
C1128 C1122 1.383 . S
C1128 C1127 1.379 . S
H1129 C1123 0.959 . S
H1130 C1123 0.961 . S
H1131 C1123 0.960 . S
H1132 C1124 0.930 . S
H1133 C1125 0.929 . S
H1134 C1142 0.929 1_565 S
H1135 C1144 0.930 1_565 S
H1136 C1146 0.930 . S
H1137 C1149 0.929 . S
H1138 C1152 0.930 . S
H1139 C1154 0.960 . S
H1140 C1154 0.960 . S
H1141 C1154 0.960 . S
C1142 H1134 0.929 1_545 S
C1142 C1143 1.377 . S
C1142 C1144 1.384 . S
C1143 C1142 1.377 . S
C1143 C1149 1.390 . S
C1144 H1135 0.930 1_545 S
C1144 C1142 1.384 . S
C1144 C1145 1.372 . S
C1145 C1144 1.372 . S
C1145 C1146 1.400 . S
C1145 C1150 1.490 . S
C1146 H1136 0.930 . S
C1146 C1145 1.400 . S
C1146 C1149 1.386 . S
H1147 C1163 0.930 . S
H1148 C1164 0.931 . S
C1149 H1137 0.929 . S
C1149 C1143 1.390 . S
C1149 C1146 1.386 . S
C1150 C1145 1.490 . S
C1150 C1152 1.395 1_545 S
C1150 C1153 1.403 . S
H1151 C1157 0.930 . S
C1152 H1138 0.930 . S
C1152 C1150 1.395 1_565 S
C1152 C1155 1.403 . S
C1153 C1150 1.403 . S
C1153 C1154 1.524 . S
C1153 C1157 1.400 . S
C1154 H1139 0.960 . S
C1154 H1140 0.960 . S
C1154 H1141 0.960 . S
C1154 C1153 1.524 . S
C1155 C1152 1.403 . S
C1155 C1156 1.392 1_565 S
C1155 C1159 1.495 . S
C1156 C1155 1.392 1_545 S
C1156 C1157 1.385 . S
C1156 C1158 1.478 . S
C1157 H1151 0.930 . S
C1157 C1153 1.400 . S
C1157 C1156 1.385 . S
C1158 C1156 1.478 . S
C1158 C1160 1.381 1_545 S
C1158 C1164 1.383 . S
C1159 C1155 1.495 . S
C1159 H1165 0.959 . S
C1159 H1166 0.961 . S
C1159 H1167 0.960 . S
C1160 C1158 1.381 1_565 S
C1160 C1161 1.394 1_565 S
C1160 H1168 0.931 . S
C1161 C1160 1.394 1_545 S
C1161 C1162 1.383 . S
C1161 H1169 0.929 1_545 S
C1162 C1161 1.383 . S
C1162 C1163 1.377 . S
C1163 H1147 0.930 . S
C1163 C1162 1.377 . S
C1163 C1164 1.379 . S
C1164 H1148 0.931 . S
C1164 C1158 1.383 . S
C1164 C1163 1.379 . S
H1165 C1159 0.959 . S
H1166 C1159 0.961 . S
H1167 C1159 0.960 . S
H1168 C1160 0.931 . S
H1169 C1161 0.929 1_565 S
H1170 C1178 0.929 . S
H1171 C1180 0.930 . S
H1172 C1182 0.930 . S
H1173 C1185 0.929 . S
H1174 C1188 0.930 . S
H1175 C1190 0.960 . S
H1176 C1190 0.960 . S
H1177 C1190 0.960 . S
C1178 H1170 0.929 . S
C1178 C1179 1.377 . S
C1178 C1180 1.384 . S
C1179 C1178 1.377 . S
C1179 C1185 1.390 . S
C1180 H1171 0.930 . S
C1180 C1178 1.384 . S
C1180 C1181 1.372 . S
C1181 C1180 1.372 . S
C1181 C1182 1.400 . S
C1181 C1186 1.490 . S
C1182 H1172 0.930 . S
C1182 C1181 1.400 . S
C1182 C1185 1.386 . S
H1183 C1199 0.930 . S
H1184 C1200 0.931 . S
C1185 H1173 0.929 . S
C1185 C1179 1.390 . S
C1185 C1182 1.386 . S
C1186 C1181 1.490 . S
C1186 C1188 1.395 . S
C1186 C1189 1.403 . S
H1187 C1193 0.930 . S
C1188 H1174 0.930 . S
C1188 C1186 1.395 . S
C1188 C1191 1.403 . S
C1189 C1186 1.403 . S
C1189 C1190 1.524 . S
C1189 C1193 1.400 . S
C1190 H1175 0.960 . S
C1190 H1176 0.960 . S
C1190 H1177 0.960 . S
C1190 C1189 1.524 . S
C1191 C1188 1.403 . S
C1191 C1192 1.392 . S
C1191 C1195 1.495 . S
C1192 C1191 1.392 . S
C1192 C1193 1.385 . S
C1192 C1194 1.478 . S
C1193 H1187 0.930 . S
C1193 C1189 1.400 . S
C1193 C1192 1.385 . S
C1194 C1192 1.478 . S
C1194 C1196 1.381 . S
C1194 C1200 1.383 . S
C1195 C1191 1.495 . S
C1195 H1201 0.959 . S
C1195 H1202 0.961 . S
C1195 H1203 0.960 . S
C1196 C1194 1.381 . S
C1196 C1197 1.394 . S
C1196 H1204 0.930 . S
C1197 C1196 1.394 . S
C1197 C1198 1.383 . S
C1197 H1205 0.929 . S
C1198 C1197 1.383 . S
C1198 C1199 1.377 . S
C1199 H1183 0.930 . S
C1199 C1198 1.377 . S
C1199 C1200 1.379 . S
C1200 H1184 0.931 . S
C1200 C1194 1.383 . S
C1200 C1199 1.379 . S
H1201 C1195 0.959 . S
H1202 C1195 0.961 . S
H1203 C1195 0.960 . S
H1204 C1196 0.930 . S
H1205 C1197 0.929 . S
H1206 C1214 0.929 . S
H1207 C1216 0.930 . S
H1208 C1218 0.930 . S
H1209 C1221 0.929 . S
H1210 C1224 0.930 . S
H1211 C1226 0.960 . S
H1212 C1226 0.960 . S
H1213 C1226 0.960 . S
C1214 H1206 0.929 . S
C1214 C1215 1.377 . S
C1214 C1216 1.384 . S
C1215 C1214 1.377 . S
C1215 C1221 1.390 . S
C1216 H1207 0.930 . S
C1216 C1214 1.384 . S
C1216 C1217 1.372 . S
C1217 C1216 1.372 . S
C1217 C1218 1.400 . S
C1217 C1222 1.490 . S
C1218 H1208 0.930 . S
C1218 C1217 1.400 . S
C1218 C1221 1.386 . S
H1219 C1235 0.930 . S
H1220 C1236 0.931 . S
C1221 H1209 0.929 . S
C1221 C1215 1.390 . S
C1221 C1218 1.386 . S
C1222 C1217 1.490 . S
C1222 C1224 1.395 . S
C1222 C1225 1.403 . S
H1223 C1229 0.930 . S
C1224 H1210 0.930 . S
C1224 C1222 1.395 . S
C1224 C1227 1.403 . S
C1225 C1222 1.403 . S
C1225 C1226 1.524 . S
C1225 C1229 1.400 . S
C1226 H1211 0.960 . S
C1226 H1212 0.960 . S
C1226 H1213 0.960 . S
C1226 C1225 1.524 . S
C1227 C1224 1.403 . S
C1227 C1228 1.392 . S
C1227 C1231 1.495 . S
C1228 C1227 1.392 . S
C1228 C1229 1.385 . S
C1228 C1230 1.478 . S
C1229 H1223 0.930 . S
C1229 C1225 1.400 . S
C1229 C1228 1.385 . S
C1230 C1228 1.478 . S
C1230 C1232 1.381 . S
C1230 C1236 1.383 . S
C1231 C1227 1.495 . S
C1231 H1237 0.959 . S
C1231 H1238 0.961 . S
C1231 H1239 0.960 . S
C1232 C1230 1.381 . S
C1232 C1233 1.394 . S
C1232 H1240 0.930 . S
C1233 C1232 1.394 . S
C1233 C1234 1.383 . S
C1233 H1241 0.929 . S
C1234 C1233 1.383 . S
C1234 C1235 1.377 . S
C1235 H1219 0.930 . S
C1235 C1234 1.377 . S
C1235 C1236 1.379 . S
C1236 H1220 0.931 . S
C1236 C1230 1.383 . S
C1236 C1235 1.379 . S
H1237 C1231 0.959 . S
H1238 C1231 0.961 . S
H1239 C1231 0.960 . S
H1240 C1232 0.930 . S
H1241 C1233 0.929 . S
H1242 C1250 0.929 . S
H1243 C1252 0.930 . S
H1244 C1254 0.930 . S
H1245 C1257 0.929 . S
H1246 C1260 0.930 . S
H1247 C1262 0.960 . S
H1248 C1262 0.960 . S
H1249 C1262 0.960 . S
C1250 H1242 0.929 . S
C1250 C1251 1.377 . S
C1250 C1252 1.384 . S
C1251 C1250 1.377 . S
C1251 C1257 1.390 . S
C1252 H1243 0.930 . S
C1252 C1250 1.384 . S
C1252 C1253 1.372 . S
C1253 C1252 1.372 . S
C1253 C1254 1.400 . S
C1253 C1258 1.490 . S
C1254 H1244 0.930 . S
C1254 C1253 1.400 . S
C1254 C1257 1.386 . S
H1255 C1271 0.930 . S
H1256 C1272 0.931 . S
C1257 H1245 0.929 . S
C1257 C1251 1.390 . S
C1257 C1254 1.386 . S
C1258 C1253 1.490 . S
C1258 C1260 1.395 . S
C1258 C1261 1.403 . S
H1259 C1265 0.930 . S
C1260 H1246 0.930 . S
C1260 C1258 1.395 . S
C1260 C1263 1.403 . S
C1261 C1258 1.403 . S
C1261 C1262 1.524 . S
C1261 C1265 1.400 . S
C1262 H1247 0.960 . S
C1262 H1248 0.960 . S
C1262 H1249 0.960 . S
C1262 C1261 1.524 . S
C1263 C1260 1.403 . S
C1263 C1264 1.392 . S
C1263 C1267 1.495 . S
C1264 C1263 1.392 . S
C1264 C1265 1.385 . S
C1264 C1266 1.478 . S
C1265 H1259 0.930 . S
C1265 C1261 1.400 . S
C1265 C1264 1.385 . S
C1266 C1264 1.478 . S
C1266 C1268 1.381 . S
C1266 C1272 1.383 . S
C1267 C1263 1.495 . S
C1267 H1273 0.959 . S
C1267 H1274 0.961 . S
C1267 H1275 0.960 . S
C1268 C1266 1.381 . S
C1268 C1269 1.394 . S
C1268 H1276 0.930 . S
C1269 C1268 1.394 . S
C1269 C1270 1.383 . S
C1269 H1277 0.929 . S
C1270 C1269 1.383 . S
C1270 C1271 1.377 . S
C1271 H1255 0.930 . S
C1271 C1270 1.377 . S
C1271 C1272 1.379 . S
C1272 H1256 0.931 . S
C1272 C1266 1.383 . S
C1272 C1271 1.379 . S
H1273 C1267 0.959 . S
H1274 C1267 0.961 . S
H1275 C1267 0.960 . S
H1276 C1268 0.930 . S
H1277 C1269 0.929 . S
H1278 C1286 0.929 . S
H1279 C1288 0.930 . S
H1280 C1290 0.930 . S
H1281 C1293 0.929 . S
H1282 C1296 0.930 . S
H1283 C1298 0.960 . S
H1284 C1298 0.960 . S
H1285 C1298 0.960 . S
C1286 H1278 0.929 . S
C1286 C1287 1.377 . S
C1286 C1288 1.384 . S
C1287 C1286 1.377 . S
C1287 C1293 1.390 . S
C1288 H1279 0.930 . S
C1288 C1286 1.384 . S
C1288 C1289 1.372 . S
C1289 C1288 1.372 . S
C1289 C1290 1.400 . S
C1289 C1294 1.490 . S
C1290 H1280 0.930 . S
C1290 C1289 1.400 . S
C1290 C1293 1.386 . S
H1291 C1307 0.930 . S
H1292 C1308 0.931 . S
C1293 H1281 0.929 . S
C1293 C1287 1.390 . S
C1293 C1290 1.386 . S
C1294 C1289 1.490 . S
C1294 C1296 1.395 . S
C1294 C1297 1.403 . S
H1295 C1301 0.930 . S
C1296 H1282 0.930 . S
C1296 C1294 1.395 . S
C1296 C1299 1.403 . S
C1297 C1294 1.403 . S
C1297 C1298 1.524 . S
C1297 C1301 1.400 . S
C1298 H1283 0.960 . S
C1298 H1284 0.960 . S
C1298 H1285 0.960 . S
C1298 C1297 1.524 . S
C1299 C1296 1.403 . S
C1299 C1300 1.392 . S
C1299 C1303 1.495 . S
C1300 C1299 1.392 . S
C1300 C1301 1.385 . S
C1300 C1302 1.478 . S
C1301 H1295 0.930 . S
C1301 C1297 1.400 . S
C1301 C1300 1.385 . S
C1302 C1300 1.478 . S
C1302 C1304 1.381 . S
C1302 C1308 1.383 . S
C1303 C1299 1.495 . S
C1303 H1309 0.959 . S
C1303 H1310 0.961 . S
C1303 H1311 0.960 . S
C1304 C1302 1.381 . S
C1304 C1305 1.394 1_554 S
C1304 H1312 0.930 . S
C1305 C1304 1.394 1_556 S
C1305 C1306 1.383 . S
C1305 H1313 0.929 . S
C1306 C1305 1.383 . S
C1306 C1307 1.377 . S
C1307 H1291 0.930 . S
C1307 C1306 1.377 . S
C1307 C1308 1.379 1_556 S
C1308 H1292 0.931 . S
C1308 C1302 1.383 . S
C1308 C1307 1.379 1_554 S
H1309 C1303 0.959 . S
H1310 C1303 0.961 . S
H1311 C1303 0.960 . S
H1312 C1304 0.930 . S
H1313 C1305 0.929 . S
H1314 C1322 0.929 . S
H1315 C1324 0.930 . S
H1316 C1326 0.930 . S
H1317 C1329 0.929 . S
H1318 C1332 0.930 . S
H1319 C1334 0.960 . S
H1320 C1334 0.960 . S
H1321 C1334 0.960 . S
C1322 H1314 0.929 . S
C1322 C1323 1.377 . S
C1322 C1324 1.384 1_556 S
C1323 C1322 1.377 . S
C1323 C1329 1.390 . S
C1324 H1315 0.930 . S
C1324 C1322 1.384 1_554 S
C1324 C1325 1.372 . S
C1325 C1324 1.372 . S
C1325 C1326 1.400 . S
C1325 C1330 1.490 . S
C1326 H1316 0.930 . S
C1326 C1325 1.400 . S
C1326 C1329 1.386 1_554 S
H1327 C1343 0.930 . S
H1328 C1344 0.931 . S
C1329 H1317 0.929 . S
C1329 C1323 1.390 . S
C1329 C1326 1.386 1_556 S
C1330 C1325 1.490 . S
C1330 C1332 1.395 . S
C1330 C1333 1.403 . S
H1331 C1337 0.930 . S
C1332 H1318 0.930 . S
C1332 C1330 1.395 . S
C1332 C1335 1.403 . S
C1333 C1330 1.403 . S
C1333 C1334 1.524 . S
C1333 C1337 1.400 . S
C1334 H1319 0.960 . S
C1334 H1320 0.960 . S
C1334 H1321 0.960 . S
C1334 C1333 1.524 . S
C1335 C1332 1.403 . S
C1335 C1336 1.392 . S
C1335 C1339 1.495 . S
C1336 C1335 1.392 . S
C1336 C1337 1.385 . S
C1336 C1338 1.478 . S
C1337 H1331 0.930 . S
C1337 C1333 1.400 . S
C1337 C1336 1.385 . S
C1338 C1336 1.478 . S
C1338 C1340 1.381 . S
C1338 C1344 1.383 . S
C1339 C1335 1.495 . S
C1339 H1345 0.959 . S
C1339 H1346 0.961 . S
C1339 H1347 0.960 . S
C1340 C1338 1.381 . S
C1340 C1341 1.394 . S
C1340 H1348 0.930 . S
C1341 C1340 1.394 . S
C1341 C1342 1.383 . S
C1341 H1349 0.929 . S
C1342 C1341 1.383 . S
C1342 C1343 1.377 . S
C1343 H1327 0.930 . S
C1343 C1342 1.377 . S
C1343 C1344 1.379 . S
C1344 H1328 0.931 . S
C1344 C1338 1.383 . S
C1344 C1343 1.379 . S
H1345 C1339 0.959 . S
H1346 C1339 0.961 . S
H1347 C1339 0.960 . S
H1348 C1340 0.930 . S
H1349 C1341 0.929 . S
H1350 C1358 0.929 . S
H1351 C1360 0.930 . S
H1352 C1362 0.930 . S
H1353 C1365 0.929 . S
H1354 C1368 0.930 . S
H1355 C1370 0.960 . S
H1356 C1370 0.960 . S
H1357 C1370 0.960 . S
C1358 H1350 0.929 . S
C1358 C1359 1.377 . S
C1358 C1360 1.384 1_556 S
C1359 C1358 1.377 . S
C1359 C1365 1.390 . S
C1360 H1351 0.930 . S
C1360 C1358 1.384 1_554 S
C1360 C1361 1.372 . S
C1361 C1360 1.372 . S
C1361 C1362 1.400 . S
C1361 C1366 1.490 . S
C1362 H1352 0.930 . S
C1362 C1361 1.400 . S
C1362 C1365 1.386 1_554 S
H1363 C1379 0.930 . S
H1364 C1380 0.931 . S
C1365 H1353 0.929 . S
C1365 C1359 1.390 . S
C1365 C1362 1.386 1_556 S
C1366 C1361 1.490 . S
C1366 C1368 1.395 . S
C1366 C1369 1.403 . S
H1367 C1373 0.930 . S
C1368 H1354 0.930 . S
C1368 C1366 1.395 . S
C1368 C1371 1.403 . S
C1369 C1366 1.403 . S
C1369 C1370 1.524 . S
C1369 C1373 1.400 . S
C1370 H1355 0.960 . S
C1370 H1356 0.960 . S
C1370 H1357 0.960 . S
C1370 C1369 1.524 . S
C1371 C1368 1.403 . S
C1371 C1372 1.392 . S
C1371 C1375 1.495 . S
C1372 C1371 1.392 . S
C1372 C1373 1.385 . S
C1372 C1374 1.478 . S
C1373 H1367 0.930 . S
C1373 C1369 1.400 . S
C1373 C1372 1.385 . S
C1374 C1372 1.478 . S
C1374 C1376 1.381 . S
C1374 C1380 1.383 . S
C1375 C1371 1.495 . S
C1375 H1381 0.959 . S
C1375 H1382 0.961 . S
C1375 H1383 0.960 . S
C1376 C1374 1.381 . S
C1376 C1377 1.394 . S
C1376 H1384 0.930 . S
C1377 C1376 1.394 . S
C1377 C1378 1.383 . S
C1377 H1385 0.929 . S
C1378 C1377 1.383 . S
C1378 C1379 1.377 . S
C1379 H1363 0.930 . S
C1379 C1378 1.377 . S
C1379 C1380 1.379 . S
C1380 H1364 0.931 . S
C1380 C1374 1.383 . S
C1380 C1379 1.379 . S
H1381 C1375 0.959 . S
H1382 C1375 0.961 . S
H1383 C1375 0.960 . S
H1384 C1376 0.930 . S
H1385 C1377 0.929 . S
H1386 C1394 0.929 . S
H1387 C1396 0.930 . S
H1388 C1398 0.930 . S
H1389 C1401 0.929 . S
H1390 C1404 0.930 . S
H1391 C1406 0.960 . S
H1392 C1406 0.960 . S
H1393 C1406 0.960 . S
C1394 H1386 0.929 . S
C1394 C1395 1.377 . S
C1394 C1396 1.384 . S
C1395 C1394 1.377 . S
C1395 C1401 1.390 . S
C1396 H1387 0.930 . S
C1396 C1394 1.384 . S
C1396 C1397 1.372 . S
C1397 C1396 1.372 . S
C1397 C1398 1.400 . S
C1397 C1402 1.490 1_554 S
C1398 H1388 0.930 . S
C1398 C1397 1.400 . S
C1398 C1401 1.386 . S
H1399 C1415 0.930 . S
H1400 C1416 0.931 . S
C1401 H1389 0.929 . S
C1401 C1395 1.390 . S
C1401 C1398 1.386 . S
C1402 C1397 1.490 1_556 S
C1402 C1404 1.395 . S
C1402 C1405 1.403 . S
H1403 C1409 0.930 . S
C1404 H1390 0.930 . S
C1404 C1402 1.395 . S
C1404 C1407 1.403 . S
C1405 C1402 1.403 . S
C1405 C1406 1.524 . S
C1405 C1409 1.400 . S
C1406 H1391 0.960 . S
C1406 H1392 0.960 . S
C1406 H1393 0.960 . S
C1406 C1405 1.524 . S
C1407 C1404 1.403 . S
C1407 C1408 1.392 . S
C1407 C1411 1.495 . S
C1408 C1407 1.392 . S
C1408 C1409 1.385 . S
C1408 C1410 1.478 . S
C1409 H1403 0.930 . S
C1409 C1405 1.400 . S
C1409 C1408 1.385 . S
C1410 C1408 1.478 . S
C1410 C1412 1.381 . S
C1410 C1416 1.383 . S
C1411 C1407 1.495 . S
C1411 H1417 0.959 . S
C1411 H1418 0.961 . S
C1411 H1419 0.960 . S
C1412 C1410 1.381 . S
C1412 C1413 1.394 . S
C1412 H1420 0.930 . S
C1413 C1412 1.394 . S
C1413 C1414 1.383 . S
C1413 H1421 0.929 . S
C1414 C1413 1.383 . S
C1414 C1415 1.377 . S
C1415 H1399 0.930 . S
C1415 C1414 1.377 . S
C1415 C1416 1.379 . S
C1416 H1400 0.931 . S
C1416 C1410 1.383 . S
C1416 C1415 1.379 . S
H1417 C1411 0.959 . S
H1418 C1411 0.961 . S
H1419 C1411 0.960 . S
H1420 C1412 0.930 . S
H1421 C1413 0.929 . S
H1422 C1430 0.929 . S
H1423 C1432 0.930 . S
H1424 C1434 0.930 . S
H1425 C1437 0.929 . S
H1426 C1440 0.930 . S
H1427 C1442 0.960 . S
H1428 C1442 0.960 . S
H1429 C1442 0.960 . S
C1430 H1422 0.929 . S
C1430 C1431 1.377 . S
C1430 C1432 1.384 . S
C1431 C1430 1.377 . S
C1431 C1437 1.390 . S
C1432 H1423 0.930 . S
C1432 C1430 1.384 . S
C1432 C1433 1.372 . S
C1433 C1432 1.372 . S
C1433 C1434 1.400 . S
C1433 C1438 1.490 . S
C1434 H1424 0.930 . S
C1434 C1433 1.400 . S
C1434 C1437 1.386 . S
H1435 C1451 0.930 . S
H1436 C1452 0.931 . S
C1437 H1425 0.929 . S
C1437 C1431 1.390 . S
C1437 C1434 1.386 . S
C1438 C1433 1.490 . S
C1438 C1440 1.395 . S
C1438 C1441 1.403 . S
H1439 C1445 0.930 . S
C1440 H1426 0.930 . S
C1440 C1438 1.395 . S
C1440 C1443 1.403 . S
C1441 C1438 1.403 . S
C1441 C1442 1.524 . S
C1441 C1445 1.400 . S
C1442 H1427 0.960 . S
C1442 H1428 0.960 . S
C1442 H1429 0.960 . S
C1442 C1441 1.524 . S
C1443 C1440 1.403 . S
C1443 C1444 1.392 . S
C1443 C1447 1.495 . S
C1444 C1443 1.392 . S
C1444 C1445 1.385 . S
C1444 C1446 1.478 1_556 S
C1445 H1439 0.930 . S
C1445 C1441 1.400 . S
C1445 C1444 1.385 . S
C1446 C1444 1.478 1_554 S
C1446 C1448 1.381 . S
C1446 C1452 1.383 . S
C1447 C1443 1.495 . S
C1447 H1453 0.959 . S
C1447 H1454 0.961 . S
C1447 H1455 0.960 . S
C1448 C1446 1.381 . S
C1448 C1449 1.394 . S
C1448 H1456 0.930 . S
C1449 C1448 1.394 . S
C1449 C1450 1.383 . S
C1449 H1457 0.929 . S
C1450 C1449 1.383 . S
C1450 C1451 1.377 . S
C1451 H1435 0.930 . S
C1451 C1450 1.377 . S
C1451 C1452 1.379 . S
C1452 H1436 0.931 . S
C1452 C1446 1.383 . S
C1452 C1451 1.379 . S
H1453 C1447 0.959 . S
H1454 C1447 0.961 . S
H1455 C1447 0.960 . S
H1456 C1448 0.930 . S
H1457 C1449 0.929 . S
H1458 C1466 0.929 . S
H1459 C1468 0.930 1_556 S
H1460 C1470 0.930 1_556 S
H1461 C1473 0.929 . S
H1462 C1476 0.930 . S
H1463 C1478 0.960 . S
H1464 C1478 0.960 . S
H1465 C1478 0.960 . S
C1466 H1458 0.929 . S
C1466 C1467 1.377 . S
C1466 C1468 1.384 . S
C1467 C1466 1.377 . S
C1467 C1473 1.390 . S
C1468 H1459 0.930 1_554 S
C1468 C1466 1.384 . S
C1468 C1469 1.372 1_554 S
C1469 C1468 1.372 1_556 S
C1469 C1470 1.400 1_556 S
C1469 C1474 1.490 . S
C1470 H1460 0.930 1_554 S
C1470 C1469 1.400 1_554 S
C1470 C1473 1.386 . S
H1471 C1487 0.930 . S
H1472 C1488 0.931 . S
C1473 H1461 0.929 . S
C1473 C1467 1.390 . S
C1473 C1470 1.386 . S
C1474 C1469 1.490 . S
C1474 C1476 1.395 . S
C1474 C1477 1.403 . S
H1475 C1481 0.930 . S
C1476 H1462 0.930 . S
C1476 C1474 1.395 . S
C1476 C1479 1.403 . S
C1477 C1474 1.403 . S
C1477 C1478 1.524 . S
C1477 C1481 1.400 . S
C1478 H1463 0.960 . S
C1478 H1464 0.960 . S
C1478 H1465 0.960 . S
C1478 C1477 1.524 . S
C1479 C1476 1.403 . S
C1479 C1480 1.392 . S
C1479 C1483 1.495 . S
C1480 C1479 1.392 . S
C1480 C1481 1.385 . S
C1480 C1482 1.478 . S
C1481 H1475 0.930 . S
C1481 C1477 1.400 . S
C1481 C1480 1.385 . S
C1482 C1480 1.478 . S
C1482 C1484 1.381 . S
C1482 C1488 1.383 . S
C1483 C1479 1.495 . S
C1483 H1489 0.959 . S
C1483 H1490 0.961 . S
C1483 H1491 0.960 . S
C1484 C1482 1.381 . S
C1484 C1485 1.394 . S
C1484 H1492 0.930 . S
C1485 C1484 1.394 . S
C1485 C1486 1.383 . S
C1485 H1493 0.929 . S
C1486 C1485 1.383 . S
C1486 C1487 1.377 . S
C1487 H1471 0.930 . S
C1487 C1486 1.377 . S
C1487 C1488 1.379 . S
C1488 H1472 0.931 . S
C1488 C1482 1.383 . S
C1488 C1487 1.379 . S
H1489 C1483 0.959 . S
H1490 C1483 0.961 . S
H1491 C1483 0.960 . S
H1492 C1484 0.930 . S
H1493 C1485 0.929 . S
H1494 C1502 0.929 . S
H1495 C1504 0.930 . S
H1496 C1506 0.930 . S
H1497 C1509 0.929 . S
H1498 C1512 0.930 . S
H1499 C1514 0.960 . S
H1500 C1514 0.960 . S
H1501 C1514 0.960 . S
C1502 H1494 0.929 . S
C1502 C1503 1.377 . S
C1502 C1504 1.384 . S
C1503 C1502 1.377 . S
C1503 C1509 1.390 . S
C1504 H1495 0.930 . S
C1504 C1502 1.384 . S
C1504 C1505 1.372 . S
C1505 C1504 1.372 . S
C1505 C1506 1.400 . S
C1505 C1510 1.490 . S
C1506 H1496 0.930 . S
C1506 C1505 1.400 . S
C1506 C1509 1.386 . S
H1507 C1523 0.930 . S
H1508 C1524 0.931 . S
C1509 H1497 0.929 . S
C1509 C1503 1.390 . S
C1509 C1506 1.386 . S
C1510 C1505 1.490 . S
C1510 C1512 1.395 . S
C1510 C1513 1.403 . S
H1511 C1517 0.930 . S
C1512 H1498 0.930 . S
C1512 C1510 1.395 . S
C1512 C1515 1.403 . S
C1513 C1510 1.403 . S
C1513 C1514 1.524 . S
C1513 C1517 1.400 . S
C1514 H1499 0.960 . S
C1514 H1500 0.960 . S
C1514 H1501 0.960 . S
C1514 C1513 1.524 . S
C1515 C1512 1.403 . S
C1515 C1516 1.392 . S
C1515 C1519 1.495 . S
C1516 C1515 1.392 . S
C1516 C1517 1.385 . S
C1516 C1518 1.478 . S
C1517 H1511 0.930 . S
C1517 C1513 1.400 . S
C1517 C1516 1.385 . S
C1518 C1516 1.478 . S
C1518 C1520 1.381 . S
C1518 C1524 1.383 . S
C1519 C1515 1.495 . S
C1519 H1525 0.959 . S
C1519 H1526 0.961 . S
C1519 H1527 0.960 . S
C1520 C1518 1.381 . S
C1520 C1521 1.394 . S
C1520 H1528 0.930 . S
C1521 C1520 1.394 . S
C1521 C1522 1.383 . S
C1521 H1529 0.929 . S
C1522 C1521 1.383 . S
C1522 C1523 1.377 . S
C1523 H1507 0.930 . S
C1523 C1522 1.377 . S
C1523 C1524 1.379 . S
C1524 H1508 0.931 . S
C1524 C1518 1.383 . S
C1524 C1523 1.379 . S
H1525 C1519 0.959 . S
H1526 C1519 0.961 . S
H1527 C1519 0.960 . S
H1528 C1520 0.930 . S
H1529 C1521 0.929 . S
H1530 C1538 0.929 . S
H1531 C1540 0.930 . S
H1532 C1542 0.930 . S
H1533 C1545 0.929 . S
H1534 C1548 0.930 . S
H1535 C1550 0.960 . S
H1536 C1550 0.960 . S
H1537 C1550 0.960 . S
C1538 H1530 0.929 . S
C1538 C1539 1.377 . S
C1538 C1540 1.384 . S
C1539 C1538 1.377 . S
C1539 C1545 1.390 . S
C1540 H1531 0.930 . S
C1540 C1538 1.384 . S
C1540 C1541 1.372 . S
C1541 C1540 1.372 . S
C1541 C1542 1.400 . S
C1541 C1546 1.490 . S
C1542 H1532 0.930 . S
C1542 C1541 1.400 . S
C1542 C1545 1.386 . S
H1543 C1559 0.930 . S
H1544 C1560 0.931 . S
C1545 H1533 0.929 . S
C1545 C1539 1.390 . S
C1545 C1542 1.386 . S
C1546 C1541 1.490 . S
C1546 C1548 1.395 . S
C1546 C1549 1.403 . S
H1547 C1553 0.930 . S
C1548 H1534 0.930 . S
C1548 C1546 1.395 . S
C1548 C1551 1.403 . S
C1549 C1546 1.403 . S
C1549 C1550 1.524 . S
C1549 C1553 1.400 . S
C1550 H1535 0.960 . S
C1550 H1536 0.960 . S
C1550 H1537 0.960 . S
C1550 C1549 1.524 . S
C1551 C1548 1.403 . S
C1551 C1552 1.392 . S
C1551 C1555 1.495 . S
C1552 C1551 1.392 . S
C1552 C1553 1.385 . S
C1552 C1554 1.478 . S
C1553 H1547 0.930 . S
C1553 C1549 1.400 . S
C1553 C1552 1.385 . S
C1554 C1552 1.478 . S
C1554 C1556 1.381 . S
C1554 C1560 1.383 . S
C1555 C1551 1.495 . S
C1555 H1561 0.959 . S
C1555 H1562 0.961 . S
C1555 H1563 0.960 . S
C1556 C1554 1.381 . S
C1556 C1557 1.394 . S
C1556 H1564 0.930 . S
C1557 C1556 1.394 . S
C1557 C1558 1.383 . S
C1557 H1565 0.929 . S
C1558 C1557 1.383 . S
C1558 C1559 1.377 . S
C1559 H1543 0.930 . S
C1559 C1558 1.377 . S
C1559 C1560 1.379 . S
C1560 H1544 0.931 . S
C1560 C1554 1.383 . S
C1560 C1559 1.379 . S
H1561 C1555 0.959 . S
H1562 C1555 0.961 . S
H1563 C1555 0.960 . S
H1564 C1556 0.930 . S
H1565 C1557 0.929 . S
H1566 C1574 0.929 . S
H1567 C1576 0.930 . S
H1568 C1578 0.930 . S
H1569 C1581 0.929 . S
H1570 C1584 0.930 . S
H1571 C1586 0.960 . S
H1572 C1586 0.960 . S
H1573 C1586 0.960 . S
C1574 H1566 0.929 . S
C1574 C1575 1.377 . S
C1574 C1576 1.384 . S
C1575 C1574 1.377 . S
C1575 C1581 1.390 . S
C1576 H1567 0.930 . S
C1576 C1574 1.384 . S
C1576 C1577 1.372 . S
C1577 C1576 1.372 . S
C1577 C1578 1.400 . S
C1577 C1582 1.490 . S
C1578 H1568 0.930 . S
C1578 C1577 1.400 . S
C1578 C1581 1.386 . S
H1579 C1595 0.930 . S
H1580 C1596 0.931 . S
C1581 H1569 0.929 . S
C1581 C1575 1.390 . S
C1581 C1578 1.386 . S
C1582 C1577 1.490 . S
C1582 C1584 1.395 . S
C1582 C1585 1.403 . S
H1583 C1589 0.930 . S
C1584 H1570 0.930 . S
C1584 C1582 1.395 . S
C1584 C1587 1.403 . S
C1585 C1582 1.403 . S
C1585 C1586 1.524 . S
C1585 C1589 1.400 . S
C1586 H1571 0.960 . S
C1586 H1572 0.960 . S
C1586 H1573 0.960 . S
C1586 C1585 1.524 . S
C1587 C1584 1.403 . S
C1587 C1588 1.392 . S
C1587 C1591 1.495 . S
C1588 C1587 1.392 . S
C1588 C1589 1.385 . S
C1588 C1590 1.478 . S
C1589 H1583 0.930 . S
C1589 C1585 1.400 . S
C1589 C1588 1.385 . S
C1590 C1588 1.478 . S
C1590 C1592 1.381 . S
C1590 C1596 1.383 . S
C1591 C1587 1.495 . S
C1591 H1597 0.959 . S
C1591 H1598 0.961 . S
C1591 H1599 0.960 . S
C1592 C1590 1.381 . S
C1592 C1593 1.394 . S
C1592 H1600 0.930 . S
C1593 C1592 1.394 . S
C1593 C1594 1.383 . S
C1593 H1601 0.929 . S
C1594 C1593 1.383 . S
C1594 C1595 1.377 . S
C1595 H1579 0.930 . S
C1595 C1594 1.377 . S
C1595 C1596 1.379 . S
C1596 H1580 0.931 . S
C1596 C1590 1.383 . S
C1596 C1595 1.379 . S
H1597 C1591 0.959 . S
H1598 C1591 0.961 . S
H1599 C1591 0.960 . S
H1600 C1592 0.930 . S
H1601 C1593 0.929 . S
H1602 C1610 0.929 . S
H1603 C1612 0.930 . S
H1604 C1614 0.930 . S
H1605 C1617 0.929 . S
H1606 C1620 0.930 . S
H1607 C1622 0.960 . S
H1608 C1622 0.960 . S
H1609 C1622 0.960 . S
C1610 H1602 0.929 . S
C1610 C1611 1.377 . S
C1610 C1612 1.384 . S
C1611 C1610 1.377 . S
C1611 C1617 1.390 . S
C1612 H1603 0.930 . S
C1612 C1610 1.384 . S
C1612 C1613 1.372 . S
C1613 C1612 1.372 . S
C1613 C1614 1.400 . S
C1613 C1618 1.490 . S
C1614 H1604 0.930 . S
C1614 C1613 1.400 . S
C1614 C1617 1.386 . S
H1615 C1631 0.930 . S
H1616 C1632 0.931 . S
C1617 H1605 0.929 . S
C1617 C1611 1.390 . S
C1617 C1614 1.386 . S
C1618 C1613 1.490 . S
C1618 C1620 1.395 . S
C1618 C1621 1.403 . S
H1619 C1625 0.930 . S
C1620 H1606 0.930 . S
C1620 C1618 1.395 . S
C1620 C1623 1.403 . S
C1621 C1618 1.403 . S
C1621 C1622 1.524 . S
C1621 C1625 1.400 . S
C1622 H1607 0.960 . S
C1622 H1608 0.960 . S
C1622 H1609 0.960 . S
C1622 C1621 1.524 . S
C1623 C1620 1.403 . S
C1623 C1624 1.392 . S
C1623 C1627 1.495 . S
C1624 C1623 1.392 . S
C1624 C1625 1.385 . S
C1624 C1626 1.478 . S
C1625 H1619 0.930 . S
C1625 C1621 1.400 . S
C1625 C1624 1.385 . S
C1626 C1624 1.478 . S
C1626 C1628 1.381 . S
C1626 C1632 1.383 . S
C1627 C1623 1.495 . S
C1627 H1633 0.959 . S
C1627 H1634 0.961 . S
C1627 H1635 0.960 . S
C1628 C1626 1.381 . S
C1628 C1629 1.394 . S
C1628 H1636 0.930 . S
C1629 C1628 1.394 . S
C1629 C1630 1.383 . S
C1629 H1637 0.929 . S
C1630 C1629 1.383 . S
C1630 C1631 1.377 . S
C1631 H1615 0.930 . S
C1631 C1630 1.377 . S
C1631 C1632 1.379 . S
C1632 H1616 0.931 . S
C1632 C1626 1.383 . S
C1632 C1631 1.379 . S
H1633 C1627 0.959 . S
H1634 C1627 0.961 . S
H1635 C1627 0.960 . S
H1636 C1628 0.930 . S
H1637 C1629 0.929 . S
H1638 C1646 0.929 . S
H1639 C1648 0.930 . S
H1640 C1650 0.930 . S
H1641 C1653 0.929 . S
H1642 C1656 0.930 . S
H1643 C1658 0.960 . S
H1644 C1658 0.960 . S
H1645 C1658 0.960 . S
C1646 H1638 0.929 . S
C1646 C1647 1.377 . S
C1646 C1648 1.384 . S
C1647 C1646 1.377 . S
C1647 C1653 1.390 . S
C1648 H1639 0.930 . S
C1648 C1646 1.384 . S
C1648 C1649 1.372 . S
C1649 C1648 1.372 . S
C1649 C1650 1.400 . S
C1649 C1654 1.490 . S
C1650 H1640 0.930 . S
C1650 C1649 1.400 . S
C1650 C1653 1.386 . S
H1651 C1667 0.930 . S
H1652 C1668 0.931 . S
C1653 H1641 0.929 . S
C1653 C1647 1.390 . S
C1653 C1650 1.386 . S
C1654 C1649 1.490 . S
C1654 C1656 1.395 . S
C1654 C1657 1.403 . S
H1655 C1661 0.930 . S
C1656 H1642 0.930 . S
C1656 C1654 1.395 . S
C1656 C1659 1.403 . S
C1657 C1654 1.403 . S
C1657 C1658 1.524 . S
C1657 C1661 1.400 . S
C1658 H1643 0.960 . S
C1658 H1644 0.960 . S
C1658 H1645 0.960 . S
C1658 C1657 1.524 . S
C1659 C1656 1.403 . S
C1659 C1660 1.392 . S
C1659 C1663 1.495 . S
C1660 C1659 1.392 . S
C1660 C1661 1.385 . S
C1660 C1662 1.478 . S
C1661 H1655 0.930 . S
C1661 C1657 1.400 . S
C1661 C1660 1.385 . S
C1662 C1660 1.478 . S
C1662 C1664 1.381 . S
C1662 C1668 1.383 . S
C1663 C1659 1.495 . S
C1663 H1669 0.959 . S
C1663 H1670 0.961 . S
C1663 H1671 0.960 . S
C1664 C1662 1.381 . S
C1664 C1665 1.394 . S
C1664 H1672 0.930 . S
C1665 C1664 1.394 . S
C1665 C1666 1.383 . S
C1665 H1673 0.929 . S
C1666 C1665 1.383 . S
C1666 C1667 1.377 . S
C1667 H1651 0.930 . S
C1667 C1666 1.377 . S
C1667 C1668 1.379 . S
C1668 H1652 0.931 . S
C1668 C1662 1.383 . S
C1668 C1667 1.379 . S
H1669 C1663 0.959 . S
H1670 C1663 0.961 . S
H1671 C1663 0.960 . S
H1672 C1664 0.930 . S
H1673 C1665 0.929 . S
H1674 C1682 0.929 . S
H1675 C1684 0.930 . S
H1676 C1686 0.930 . S
H1677 C1689 0.929 . S
H1678 C1692 0.930 . S
H1679 C1694 0.960 . S
H1680 C1694 0.960 . S
H1681 C1694 0.960 . S
C1682 H1674 0.929 . S
C1682 C1683 1.377 . S
C1682 C1684 1.384 . S
C1683 C1682 1.377 . S
C1683 C1689 1.390 . S
C1684 H1675 0.930 . S
C1684 C1682 1.384 . S
C1684 C1685 1.372 . S
C1685 C1684 1.372 . S
C1685 C1686 1.400 . S
C1685 C1690 1.490 . S
C1686 H1676 0.930 . S
C1686 C1685 1.400 . S
C1686 C1689 1.386 . S
H1687 C1703 0.963 . S
H1688 C1704 0.931 . S
C1689 H1677 0.929 . S
C1689 C1683 1.390 . S
C1689 C1686 1.386 . S
C1690 C1685 1.490 . S
C1690 C1692 1.395 . S
C1690 C1693 1.403 . S
H1691 C1697 0.930 . S
C1692 H1678 0.930 . S
C1692 C1690 1.395 . S
C1692 C1695 1.403 . S
C1693 C1690 1.403 . S
C1693 C1694 1.524 . S
C1693 C1697 1.400 . S
C1694 H1679 0.960 . S
C1694 H1680 0.960 . S
C1694 H1681 0.960 . S
C1694 C1693 1.524 . S
C1695 C1692 1.403 . S
C1695 C1696 1.392 . S
C1695 C1699 1.495 . S
C1696 C1695 1.392 . S
C1696 C1697 1.385 . S
C1696 C1698 1.478 . S
C1697 H1691 0.930 . S
C1697 C1693 1.400 . S
C1697 C1696 1.385 . S
C1698 C1696 1.478 . S
C1698 C1700 1.381 . S
C1698 C1704 1.383 . S
C1699 C1695 1.495 . S
C1699 H1705 0.959 . S
C1699 H1706 0.961 . S
C1699 H1707 0.960 . S
C1700 C1698 1.381 . S
C1700 C1701 1.394 . S
C1700 H1708 0.930 . S
C1701 C1700 1.394 . S
C1701 C1702 1.383 . S
C1701 H1709 0.929 . S
C1702 C1701 1.383 . S
C1702 C1703 1.377 . S
C1703 H1687 0.963 . S
C1703 C1702 1.377 . S
C1703 C1704 1.379 . S
C1704 H1688 0.931 . S
C1704 C1698 1.383 . S
C1704 C1703 1.379 . S
H1705 C1699 0.959 . S
H1706 C1699 0.961 . S
H1707 C1699 0.960 . S
H1708 C1700 0.930 . S
H1709 C1701 0.929 . S
H1710 C1718 0.929 . S
H1711 C1720 0.930 . S
H1712 C1722 0.930 . S
H1713 C1725 0.929 . S
H1714 C1728 0.930 . S
H1715 C1730 0.960 . S
H1716 C1730 0.960 . S
H1717 C1730 0.960 . S
C1718 H1710 0.929 . S
C1718 C1719 1.377 . S
C1718 C1720 1.384 . S
C1719 C1718 1.377 . S
C1719 C1725 1.390 . S
C1720 H1711 0.930 . S
C1720 C1718 1.384 . S
C1720 C1721 1.372 . S
C1721 C1720 1.372 . S
C1721 C1722 1.400 . S
C1721 C1726 1.490 . S
C1722 H1712 0.930 . S
C1722 C1721 1.400 . S
C1722 C1725 1.386 . S
H1723 C1739 0.930 . S
H1724 C1740 0.931 . S
C1725 H1713 0.929 . S
C1725 C1719 1.390 . S
C1725 C1722 1.386 . S
C1726 C1721 1.490 . S
C1726 C1728 1.395 . S
C1726 C1729 1.403 . S
H1727 C1733 0.930 . S
C1728 H1714 0.930 . S
C1728 C1726 1.395 . S
C1728 C1731 1.403 . S
C1729 C1726 1.403 . S
C1729 C1730 1.524 . S
C1729 C1733 1.400 . S
C1730 H1715 0.960 . S
C1730 H1716 0.960 . S
C1730 H1717 0.960 . S
C1730 C1729 1.524 . S
C1731 C1728 1.403 . S
C1731 C1732 1.392 . S
C1731 C1735 1.495 . S
C1732 C1731 1.392 . S
C1732 C1733 1.385 . S
C1732 C1734 1.478 . S
C1733 H1727 0.930 . S
C1733 C1729 1.400 . S
C1733 C1732 1.385 . S
C1734 C1732 1.478 . S
C1734 C1736 1.381 . S
C1734 C1740 1.383 . S
C1735 C1731 1.495 . S
C1735 H1741 0.959 . S
C1735 H1742 0.961 . S
C1735 H1743 0.960 . S
C1736 C1734 1.381 . S
C1736 C1737 1.394 . S
C1736 H1744 0.930 . S
C1737 C1736 1.394 . S
C1737 C1738 1.383 . S
C1737 H1745 0.929 . S
C1738 C1737 1.383 . S
C1738 C1739 1.377 . S
C1739 H1723 0.930 . S
C1739 C1738 1.377 . S
C1739 C1740 1.379 . S
C1740 H1724 0.931 . S
C1740 C1734 1.383 . S
C1740 C1739 1.379 . S
H1741 C1735 0.959 . S
H1742 C1735 0.961 . S
H1743 C1735 0.960 . S
H1744 C1736 0.930 . S
H1745 C1737 0.929 . S
H1746 C1754 0.929 . S
H1747 C1756 0.930 . S
H1748 C1758 0.930 . S
H1749 C1761 0.929 . S
H1750 C1764 0.930 . S
H1751 C1766 0.960 . S
H1752 C1766 0.960 . S
H1753 C1766 0.960 . S
C1754 H1746 0.929 . S
C1754 C1755 1.377 . S
C1754 C1756 1.384 . S
C1755 C1754 1.377 . S
C1755 C1761 1.390 . S
C1756 H1747 0.930 . S
C1756 C1754 1.384 . S
C1756 C1757 1.372 . S
C1757 C1756 1.372 . S
C1757 C1758 1.400 . S
C1757 C1762 1.490 . S
C1758 H1748 0.930 . S
C1758 C1757 1.400 . S
C1758 C1761 1.386 . S
H1759 C1775 0.930 . S
H1760 C1776 0.931 . S
C1761 H1749 0.929 . S
C1761 C1755 1.390 . S
C1761 C1758 1.386 . S
C1762 C1757 1.490 . S
C1762 C1764 1.395 . S
C1762 C1765 1.403 . S
H1763 C1769 0.930 . S
C1764 H1750 0.930 . S
C1764 C1762 1.395 . S
C1764 C1767 1.403 . S
C1765 C1762 1.403 . S
C1765 C1766 1.524 . S
C1765 C1769 1.400 . S
C1766 H1751 0.960 . S
C1766 H1752 0.960 . S
C1766 H1753 0.960 . S
C1766 C1765 1.524 . S
C1767 C1764 1.403 . S
C1767 C1768 1.392 . S
C1767 C1771 1.495 . S
C1768 C1767 1.392 . S
C1768 C1769 1.385 . S
C1768 C1770 1.478 . S
C1769 H1763 0.930 . S
C1769 C1765 1.400 . S
C1769 C1768 1.385 . S
C1770 C1768 1.478 . S
C1770 C1772 1.381 . S
C1770 C1776 1.383 . S
C1771 C1767 1.495 . S
C1771 H1777 0.959 . S
C1771 H1778 0.961 . S
C1771 H1779 0.960 . S
C1772 C1770 1.381 . S
C1772 C1773 1.394 . S
C1772 H1780 0.930 . S
C1773 C1772 1.394 . S
C1773 C1774 1.383 . S
C1773 H1781 0.929 . S
C1774 C1773 1.383 . S
C1774 C1775 1.377 . S
C1775 H1759 0.930 . S
C1775 C1774 1.377 . S
C1775 C1776 1.379 . S
C1776 H1760 0.931 . S
C1776 C1770 1.383 . S
C1776 C1775 1.379 . S
H1777 C1771 0.959 . S
H1778 C1771 0.961 . S
H1779 C1771 0.960 . S
H1780 C1772 0.930 . S
H1781 C1773 0.929 . S
H1782 C1790 0.929 . S
H1783 C1792 0.930 . S
H1784 C1794 0.930 . S
H1785 C1797 0.929 . S
H1786 C1800 0.930 . S
H1787 C1802 0.960 . S
H1788 C1802 0.960 . S
H1789 C1802 0.960 . S
C1790 H1782 0.929 . S
C1790 C1791 1.377 . S
C1790 C1792 1.384 . S
C1791 C1790 1.377 . S
C1791 C1797 1.390 . S
C1792 H1783 0.930 . S
C1792 C1790 1.384 . S
C1792 C1793 1.372 . S
C1793 C1792 1.372 . S
C1793 C1794 1.400 . S
C1793 C1798 1.490 . S
C1794 H1784 0.930 . S
C1794 C1793 1.400 . S
C1794 C1797 1.386 . S
H1795 C1811 0.930 . S
H1796 C1812 0.931 . S
C1797 H1785 0.929 . S
C1797 C1791 1.390 . S
C1797 C1794 1.386 . S
C1798 C1793 1.490 . S
C1798 C1800 1.395 . S
C1798 C1801 1.403 . S
H1799 C1805 0.930 . S
C1800 H1786 0.930 . S
C1800 C1798 1.395 . S
C1800 C1803 1.403 . S
C1801 C1798 1.403 . S
C1801 C1802 1.524 . S
C1801 C1805 1.400 . S
C1802 H1787 0.960 . S
C1802 H1788 0.960 . S
C1802 H1789 0.960 . S
C1802 C1801 1.524 . S
C1803 C1800 1.403 . S
C1803 C1804 1.392 . S
C1803 C1807 1.495 . S
C1804 C1803 1.392 . S
C1804 C1805 1.385 . S
C1804 C1806 1.478 . S
C1805 H1799 0.930 . S
C1805 C1801 1.400 . S
C1805 C1804 1.385 . S
C1806 C1804 1.478 . S
C1806 C1808 1.381 . S
C1806 C1812 1.383 . S
C1807 C1803 1.495 . S
C1807 H1813 0.959 . S
C1807 H1814 0.961 . S
C1807 H1815 0.960 . S
C1808 C1806 1.381 . S
C1808 C1809 1.394 . S
C1808 H1816 0.930 . S
C1809 C1808 1.394 . S
C1809 C1810 1.383 . S
C1809 H1817 0.929 . S
C1810 C1809 1.383 . S
C1810 C1811 1.377 . S
C1811 H1795 0.930 . S
C1811 C1810 1.377 . S
C1811 C1812 1.379 . S
C1812 H1796 0.931 . S
C1812 C1806 1.383 . S
C1812 C1811 1.379 . S
H1813 C1807 0.959 . S
H1814 C1807 0.961 . S
H1815 C1807 0.960 . S
H1816 C1808 0.930 . S
H1817 C1809 0.929 . S
H1818 C1826 0.929 . S
H1819 C1828 0.930 . S
H1820 C1830 0.930 . S
H1821 C1833 0.929 . S
H1822 C1836 0.930 . S
H1823 C1838 0.960 . S
H1824 C1838 0.960 . S
H1825 C1838 0.960 . S
C1826 H1818 0.929 . S
C1826 C1827 1.377 . S
C1826 C1828 1.384 . S
C1827 C1826 1.377 . S
C1827 C1833 1.390 . S
C1828 H1819 0.930 . S
C1828 C1826 1.384 . S
C1828 C1829 1.372 . S
C1829 C1828 1.372 . S
C1829 C1830 1.400 . S
C1829 C1834 1.490 . S
C1830 H1820 0.930 . S
C1830 C1829 1.400 . S
C1830 C1833 1.386 . S
H1831 C1847 0.930 . S
H1832 C1848 0.931 . S
C1833 H1821 0.929 . S
C1833 C1827 1.390 . S
C1833 C1830 1.386 . S
C1834 C1829 1.490 . S
C1834 C1836 1.395 . S
C1834 C1837 1.403 . S
H1835 C1841 0.930 . S
C1836 H1822 0.930 . S
C1836 C1834 1.395 . S
C1836 C1839 1.403 . S
C1837 C1834 1.403 . S
C1837 C1838 1.524 . S
C1837 C1841 1.400 . S
C1838 H1823 0.960 . S
C1838 H1824 0.960 . S
C1838 H1825 0.960 . S
C1838 C1837 1.524 . S
C1839 C1836 1.403 . S
C1839 C1840 1.392 . S
C1839 C1843 1.495 . S
C1840 C1839 1.392 . S
C1840 C1841 1.385 . S
C1840 C1842 1.478 . S
C1841 H1835 0.930 . S
C1841 C1837 1.400 . S
C1841 C1840 1.385 . S
C1842 C1840 1.478 . S
C1842 C1844 1.381 . S
C1842 C1848 1.383 . S
C1843 C1839 1.495 . S
C1843 H1849 0.959 . S
C1843 H1850 0.961 . S
C1843 H1851 0.960 . S
C1844 C1842 1.381 . S
C1844 C1845 1.394 . S
C1844 H1852 0.930 . S
C1845 C1844 1.394 . S
C1845 C1846 1.383 . S
C1845 H1853 0.929 . S
C1846 C1845 1.383 . S
C1846 C1847 1.377 . S
C1847 H1831 0.930 . S
C1847 C1846 1.377 . S
C1847 C1848 1.379 . S
C1848 H1832 0.931 . S
C1848 C1842 1.383 . S
C1848 C1847 1.379 . S
H1849 C1843 0.959 . S
H1850 C1843 0.961 . S
H1851 C1843 0.960 . S
H1852 C1844 0.930 . S
H1853 C1845 0.929 . S
H1854 C1862 0.929 . S
H1855 C1864 0.930 . S
H1856 C1866 0.930 . S
H1857 C1869 0.929 . S
H1858 C1872 0.930 . S
H1859 C1874 0.960 . S
H1860 C1874 0.960 . S
H1861 C1874 0.960 . S
C1862 H1854 0.929 . S
C1862 C1863 1.377 . S
C1862 C1864 1.384 . S
C1863 C1862 1.377 . S
C1863 C1869 1.390 . S
C1864 H1855 0.930 . S
C1864 C1862 1.384 . S
C1864 C1865 1.372 . S
C1865 C1864 1.372 . S
C1865 C1866 1.400 . S
C1865 C1870 1.490 . S
C1866 H1856 0.930 . S
C1866 C1865 1.400 . S
C1866 C1869 1.386 . S
H1867 C1883 0.930 . S
H1868 C1884 0.931 . S
C1869 H1857 0.929 . S
C1869 C1863 1.390 . S
C1869 C1866 1.386 . S
C1870 C1865 1.490 . S
C1870 C1872 1.395 . S
C1870 C1873 1.403 . S
H1871 C1877 0.930 . S
C1872 H1858 0.930 . S
C1872 C1870 1.395 . S
C1872 C1875 1.403 . S
C1873 C1870 1.403 . S
C1873 C1874 1.524 . S
C1873 C1877 1.400 . S
C1874 H1859 0.960 . S
C1874 H1860 0.960 . S
C1874 H1861 0.960 . S
C1874 C1873 1.524 . S
C1875 C1872 1.403 . S
C1875 C1876 1.392 . S
C1875 C1879 1.495 . S
C1876 C1875 1.392 . S
C1876 C1877 1.385 . S
C1876 C1878 1.478 . S
C1877 H1871 0.930 . S
C1877 C1873 1.400 . S
C1877 C1876 1.385 . S
C1878 C1876 1.478 . S
C1878 C1880 1.381 . S
C1878 C1884 1.383 . S
C1879 C1875 1.495 . S
C1879 H1885 0.959 . S
C1879 H1886 0.961 . S
C1879 H1887 0.960 . S
C1880 C1878 1.381 . S
C1880 C1881 1.394 . S
C1880 H1888 0.930 . S
C1881 C1880 1.394 . S
C1881 C1882 1.383 . S
C1881 H1889 0.929 . S
C1882 C1881 1.383 . S
C1882 C1883 1.377 . S
C1883 H1867 0.930 . S
C1883 C1882 1.377 . S
C1883 C1884 1.379 . S
C1884 H1868 0.931 . S
C1884 C1878 1.383 . S
C1884 C1883 1.379 . S
H1885 C1879 0.959 . S
H1886 C1879 0.961 . S
H1887 C1879 0.960 . S
H1888 C1880 0.930 . S
H1889 C1881 0.929 . S
H1890 C1898 0.929 . S
H1891 C1900 0.930 . S
H1892 C1902 0.930 . S
H1893 C1905 0.929 . S
H1894 C1908 0.930 . S
H1895 C1910 0.960 . S
H1896 C1910 0.960 . S
H1897 C1910 0.960 . S
C1898 H1890 0.929 . S
C1898 C1899 1.377 . S
C1898 C1900 1.384 . S
C1899 C1898 1.377 . S
C1899 C1905 1.390 . S
C1900 H1891 0.930 . S
C1900 C1898 1.384 . S
C1900 C1901 1.372 . S
C1901 C1900 1.372 . S
C1901 C1902 1.400 . S
C1901 C1906 1.490 . S
C1902 H1892 0.930 . S
C1902 C1901 1.400 . S
C1902 C1905 1.386 . S
H1903 C1919 0.930 . S
H1904 C1920 0.931 . S
C1905 H1893 0.929 . S
C1905 C1899 1.390 . S
C1905 C1902 1.386 . S
C1906 C1901 1.490 . S
C1906 C1908 1.395 . S
C1906 C1909 1.403 . S
H1907 C1913 0.930 . S
C1908 H1894 0.930 . S
C1908 C1906 1.395 . S
C1908 C1911 1.403 . S
C1909 C1906 1.403 . S
C1909 C1910 1.524 . S
C1909 C1913 1.400 . S
C1910 H1895 0.960 . S
C1910 H1896 0.960 . S
C1910 H1897 0.960 . S
C1910 C1909 1.524 . S
C1911 C1908 1.403 . S
C1911 C1912 1.392 . S
C1911 C1915 1.495 . S
C1912 C1911 1.392 . S
C1912 C1913 1.385 . S
C1912 C1914 1.478 . S
C1913 H1907 0.930 . S
C1913 C1909 1.400 . S
C1913 C1912 1.385 . S
C1914 C1912 1.478 . S
C1914 C1916 1.381 . S
C1914 C1920 1.383 . S
C1915 C1911 1.495 . S
C1915 H1921 0.959 . S
C1915 H1922 0.961 . S
C1915 H1923 0.960 . S
C1916 C1914 1.381 . S
C1916 C1917 1.394 . S
C1916 H1924 0.930 . S
C1917 C1916 1.394 . S
C1917 C1918 1.383 . S
C1917 H1925 0.929 . S
C1918 C1917 1.383 . S
C1918 C1919 1.377 . S
C1919 H1903 0.930 . S
C1919 C1918 1.377 . S
C1919 C1920 1.379 . S
C1920 H1904 0.931 . S
C1920 C1914 1.383 . S
C1920 C1919 1.379 . S
H1921 C1915 0.959 . S
H1922 C1915 0.961 . S
H1923 C1915 0.960 . S
H1924 C1916 0.930 . S
H1925 C1917 0.929 . S
H1926 C1934 0.926 . S
H1927 C1936 0.930 . S
H1928 C1938 0.930 . S
H1929 C1941 0.929 . S
H1930 C1944 0.930 . S
H1931 C1946 0.960 . S
H1932 C1946 0.960 . S
H1933 C1946 0.960 . S
C1934 H1926 0.926 . S
C1934 C1935 1.377 . S
C1934 C1936 1.384 . S
C1935 C1934 1.377 . S
C1935 C1941 1.390 . S
C1936 H1927 0.930 . S
C1936 C1934 1.384 . S
C1936 C1937 1.372 . S
C1937 C1936 1.372 . S
C1937 C1938 1.400 . S
C1937 C1942 1.490 . S
C1938 H1928 0.930 . S
C1938 C1937 1.400 . S
C1938 C1941 1.386 . S
H1939 C1955 0.930 . S
H1940 C1956 0.931 . S
C1941 H1929 0.929 . S
C1941 C1935 1.390 . S
C1941 C1938 1.386 . S
C1942 C1937 1.490 . S
C1942 C1944 1.395 . S
C1942 C1945 1.403 . S
H1943 C1949 0.930 . S
C1944 H1930 0.930 . S
C1944 C1942 1.395 . S
C1944 C1947 1.403 . S
C1945 C1942 1.403 . S
C1945 C1946 1.524 . S
C1945 C1949 1.400 . S
C1946 H1931 0.960 . S
C1946 H1932 0.960 . S
C1946 H1933 0.960 . S
C1946 C1945 1.524 . S
C1947 C1944 1.403 . S
C1947 C1948 1.392 . S
C1947 C1951 1.495 . S
C1948 C1947 1.392 . S
C1948 C1949 1.385 . S
C1948 C1950 1.478 . S
C1949 H1943 0.930 . S
C1949 C1945 1.400 . S
C1949 C1948 1.385 . S
C1950 C1948 1.478 . S
C1950 C1952 1.381 . S
C1950 C1956 1.383 . S
C1951 C1947 1.495 . S
C1951 H1957 0.959 . S
C1951 H1958 0.961 . S
C1951 H1959 0.960 . S
C1952 C1950 1.381 . S
C1952 C1953 1.394 . S
C1952 H1960 0.930 . S
C1953 C1952 1.394 . S
C1953 C1954 1.383 . S
C1953 H1961 0.929 . S
C1954 C1953 1.383 . S
C1954 C1955 1.377 . S
C1955 H1939 0.930 . S
C1955 C1954 1.377 . S
C1955 C1956 1.379 . S
C1956 H1940 0.931 . S
C1956 C1950 1.383 . S
C1956 C1955 1.379 . S
H1957 C1951 0.959 . S
H1958 C1951 0.961 . S
H1959 C1951 0.960 . S
H1960 C1952 0.930 . S
H1961 C1953 0.929 . S
H1962 C1970 0.929 . S
H1963 C1972 0.930 . S
H1964 C1974 0.930 . S
H1965 C1977 0.929 . S
H1966 C1980 0.930 . S
H1967 C1982 0.960 . S
H1968 C1982 0.960 . S
H1969 C1982 0.960 . S
C1970 H1962 0.929 . S
C1970 C1971 1.377 . S
C1970 C1972 1.384 . S
C1971 C1970 1.377 . S
C1971 C1977 1.390 . S
C1972 H1963 0.930 . S
C1972 C1970 1.384 . S
C1972 C1973 1.372 . S
C1973 C1972 1.372 . S
C1973 C1974 1.400 . S
C1973 C1978 1.490 . S
C1974 H1964 0.930 . S
C1974 C1973 1.400 . S
C1974 C1977 1.386 . S
H1975 C1991 0.930 . S
H1976 C1992 0.931 . S
C1977 H1965 0.929 . S
C1977 C1971 1.390 . S
C1977 C1974 1.386 . S
C1978 C1973 1.490 . S
C1978 C1980 1.395 . S
C1978 C1981 1.403 . S
H1979 C1985 0.930 . S
C1980 H1966 0.930 . S
C1980 C1978 1.395 . S
C1980 C1983 1.403 . S
C1981 C1978 1.403 . S
C1981 C1982 1.524 . S
C1981 C1985 1.400 . S
C1982 H1967 0.960 . S
C1982 H1968 0.960 . S
C1982 H1969 0.960 . S
C1982 C1981 1.524 . S
C1983 C1980 1.403 . S
C1983 C1984 1.392 . S
C1983 C1987 1.495 . S
C1984 C1983 1.392 . S
C1984 C1985 1.385 . S
C1984 C1986 1.478 . S
C1985 H1979 0.930 . S
C1985 C1981 1.400 . S
C1985 C1984 1.385 . S
C1986 C1984 1.478 . S
C1986 C1988 1.381 . S
C1986 C1992 1.383 . S
C1987 C1983 1.495 . S
C1987 H1993 0.959 . S
C1987 H1994 0.961 . S
C1987 H1995 0.960 . S
C1988 C1986 1.381 . S
C1988 C1989 1.394 . S
C1988 H1996 0.930 . S
C1989 C1988 1.394 . S
C1989 C1990 1.383 . S
C1989 H1997 0.929 . S
C1990 C1989 1.383 . S
C1990 C1991 1.377 . S
C1991 H1975 0.930 . S
C1991 C1990 1.377 . S
C1991 C1992 1.379 . S
C1992 H1976 0.931 . S
C1992 C1986 1.383 . S
C1992 C1991 1.379 . S
H1993 C1987 0.959 . S
H1994 C1987 0.961 . S
H1995 C1987 0.960 . S
H1996 C1988 0.930 . S
H1997 C1989 0.929 . S
H1998 C2006 0.929 . S
H1999 C2008 0.930 . S
H2000 C2010 0.930 . S
H2001 C2013 0.929 . S
H2002 C2016 0.930 . S
H2003 C2018 0.960 . S
H2004 C2018 0.960 . S
H2005 C2018 0.960 . S
C2006 H1998 0.929 . S
C2006 C2007 1.377 . S
C2006 C2008 1.384 . S
C2007 C2006 1.377 . S
C2007 C2013 1.390 . S
C2008 H1999 0.930 . S
C2008 C2006 1.384 . S
C2008 C2009 1.372 . S
C2009 C2008 1.372 . S
C2009 C2010 1.400 . S
C2009 C2014 1.490 . S
C2010 H2000 0.930 . S
C2010 C2009 1.400 . S
C2010 C2013 1.386 . S
H2011 C2027 0.930 . S
H2012 C2028 0.931 . S
C2013 H2001 0.929 . S
C2013 C2007 1.390 . S
C2013 C2010 1.386 . S
C2014 C2009 1.490 . S
C2014 C2016 1.395 . S
C2014 C2017 1.403 . S
H2015 C2021 0.930 . S
C2016 H2002 0.930 . S
C2016 C2014 1.395 . S
C2016 C2019 1.403 . S
C2017 C2014 1.403 . S
C2017 C2018 1.524 . S
C2017 C2021 1.400 . S
C2018 H2003 0.960 . S
C2018 H2004 0.960 . S
C2018 H2005 0.960 . S
C2018 C2017 1.524 . S
C2019 C2016 1.403 . S
C2019 C2020 1.392 . S
C2019 C2023 1.495 . S
C2020 C2019 1.392 . S
C2020 C2021 1.385 . S
C2020 C2022 1.478 . S
C2021 H2015 0.930 . S
C2021 C2017 1.400 . S
C2021 C2020 1.385 . S
C2022 C2020 1.478 . S
C2022 C2024 1.381 . S
C2022 C2028 1.383 . S
C2023 C2019 1.495 . S
C2023 H2029 0.959 . S
C2023 H2030 0.961 . S
C2023 H2031 0.960 . S
C2024 C2022 1.381 . S
C2024 C2025 1.394 . S
C2024 H2032 0.930 . S
C2025 C2024 1.394 . S
C2025 C2026 1.383 . S
C2025 H2033 0.929 . S
C2026 C2025 1.383 . S
C2026 C2027 1.377 . S
C2027 H2011 0.930 . S
C2027 C2026 1.377 . S
C2027 C2028 1.379 . S
C2028 H2012 0.931 . S
C2028 C2022 1.383 . S
C2028 C2027 1.379 . S
H2029 C2023 0.959 . S
H2030 C2023 0.961 . S
H2031 C2023 0.960 . S
H2032 C2024 0.930 . S
H2033 C2025 0.929 . S
H2034 C2042 0.929 . S
H2035 C2044 0.930 . S
H2036 C2046 0.930 . S
H2037 C2049 0.929 . S
H2038 C2052 0.930 . S
H2039 C2054 0.960 . S
H2040 C2054 0.960 . S
H2041 C2054 0.960 . S
C2042 H2034 0.929 . S
C2042 C2043 1.377 . S
C2042 C2044 1.384 . S
C2043 C2042 1.377 . S
C2043 C2049 1.390 . S
C2044 H2035 0.930 . S
C2044 C2042 1.384 . S
C2044 C2045 1.372 . S
C2045 C2044 1.372 . S
C2045 C2046 1.400 . S
C2045 C2050 1.490 . S
C2046 H2036 0.930 . S
C2046 C2045 1.400 . S
C2046 C2049 1.386 . S
H2047 C2063 0.930 . S
H2048 C2064 0.931 . S
C2049 H2037 0.929 . S
C2049 C2043 1.390 . S
C2049 C2046 1.386 . S
C2050 C2045 1.490 . S
C2050 C2052 1.395 . S
C2050 C2053 1.403 . S
H2051 C2057 0.930 . S
C2052 H2038 0.930 . S
C2052 C2050 1.395 . S
C2052 C2055 1.403 . S
C2053 C2050 1.403 . S
C2053 C2054 1.524 . S
C2053 C2057 1.400 . S
C2054 H2039 0.960 . S
C2054 H2040 0.960 . S
C2054 H2041 0.960 . S
C2054 C2053 1.524 . S
C2055 C2052 1.403 . S
C2055 C2056 1.392 . S
C2055 C2059 1.495 . S
C2056 C2055 1.392 . S
C2056 C2057 1.385 . S
C2056 C2058 1.478 . S
C2057 H2051 0.930 . S
C2057 C2053 1.400 . S
C2057 C2056 1.385 . S
C2058 C2056 1.478 . S
C2058 C2060 1.381 . S
C2058 C2064 1.383 . S
C2059 C2055 1.495 . S
C2059 H2065 0.959 . S
C2059 H2066 0.961 . S
C2059 H2067 0.960 . S
C2060 C2058 1.381 . S
C2060 C2061 1.394 . S
C2060 H2068 0.930 . S
C2061 C2060 1.394 . S
C2061 C2062 1.383 . S
C2061 H2069 0.929 . S
C2062 C2061 1.383 . S
C2062 C2063 1.377 . S
C2063 H2047 0.930 . S
C2063 C2062 1.377 . S
C2063 C2064 1.379 . S
C2064 H2048 0.931 . S
C2064 C2058 1.383 . S
C2064 C2063 1.379 . S
H2065 C2059 0.959 . S
H2066 C2059 0.961 . S
H2067 C2059 0.960 . S
H2068 C2060 0.930 . S
H2069 C2061 0.929 . S
H2070 C2078 0.929 . S
H2071 C2080 0.930 . S
H2072 C2082 0.930 . S
H2073 C2085 0.929 . S
H2074 C2088 0.930 . S
H2075 C2090 0.960 . S
H2076 C2090 0.960 . S
H2077 C2090 0.960 . S
C2078 H2070 0.929 . S
C2078 C2079 1.377 . S
C2078 C2080 1.384 . S
C2079 C2078 1.377 . S
C2079 C2085 1.390 . S
C2080 H2071 0.930 . S
C2080 C2078 1.384 . S
C2080 C2081 1.372 . S
C2081 C2080 1.372 . S
C2081 C2082 1.400 . S
C2081 C2086 1.490 . S
C2082 H2072 0.930 . S
C2082 C2081 1.400 . S
C2082 C2085 1.386 . S
H2083 C2099 0.930 . S
H2084 C2100 0.931 . S
C2085 H2073 0.929 . S
C2085 C2079 1.390 . S
C2085 C2082 1.386 . S
C2086 C2081 1.490 . S
C2086 C2088 1.395 . S
C2086 C2089 1.403 . S
H2087 C2093 0.930 . S
C2088 H2074 0.930 . S
C2088 C2086 1.395 . S
C2088 C2091 1.403 1_545 S
C2089 C2086 1.403 . S
C2089 C2090 1.524 . S
C2089 C2093 1.400 1_545 S
C2090 H2075 0.960 . S
C2090 H2076 0.960 . S
C2090 H2077 0.960 . S
C2090 C2089 1.524 . S
C2091 C2088 1.403 1_565 S
C2091 C2092 1.392 . S
C2091 C2095 1.495 . S
C2092 C2091 1.392 . S
C2092 C2093 1.385 . S
C2092 C2094 1.478 . S
C2093 H2087 0.930 . S
C2093 C2089 1.400 1_565 S
C2093 C2092 1.385 . S
C2094 C2092 1.478 . S
C2094 C2096 1.381 . S
C2094 C2100 1.383 . S
C2095 C2091 1.495 . S
C2095 H2101 0.959 . S
C2095 H2102 0.961 . S
C2095 H2103 0.960 . S
C2096 C2094 1.381 . S
C2096 C2097 1.394 . S
C2096 H2104 0.930 . S
C2097 C2096 1.394 . S
C2097 C2098 1.383 . S
C2097 H2105 0.929 . S
C2098 C2097 1.383 . S
C2098 C2099 1.377 . S
C2099 H2083 0.930 . S
C2099 C2098 1.377 . S
C2099 C2100 1.379 . S
C2100 H2084 0.931 . S
C2100 C2094 1.383 . S
C2100 C2099 1.379 . S
H2101 C2095 0.959 . S
H2102 C2095 0.961 . S
H2103 C2095 0.960 . S
H2104 C2096 0.930 . S
H2105 C2097 0.929 . S
H2106 C2114 0.929 . S
H2107 C2116 0.930 . S
H2108 C2118 0.930 . S
H2109 C2121 0.929 . S
H2110 C2124 0.930 . S
H2111 C2126 0.960 . S
H2112 C2126 0.960 . S
H2113 C2126 0.960 . S
C2114 H2106 0.929 . S
C2114 C2115 1.377 . S
C2114 C2116 1.384 . S
C2115 C2114 1.377 . S
C2115 C2121 1.390 . S
C2116 H2107 0.930 . S
C2116 C2114 1.384 . S
C2116 C2117 1.372 . S
C2117 C2116 1.372 . S
C2117 C2118 1.400 . S
C2117 C2122 1.490 . S
C2118 H2108 0.930 . S
C2118 C2117 1.400 . S
C2118 C2121 1.386 . S
H2119 C2135 0.930 . S
H2120 C2136 0.931 . S
C2121 H2109 0.929 . S
C2121 C2115 1.390 . S
C2121 C2118 1.386 . S
C2122 C2117 1.490 . S
C2122 C2124 1.395 . S
C2122 C2125 1.403 . S
H2123 C2129 0.930 . S
C2124 H2110 0.930 . S
C2124 C2122 1.395 . S
C2124 C2127 1.403 . S
C2125 C2122 1.403 . S
C2125 C2126 1.524 . S
C2125 C2129 1.400 . S
C2126 H2111 0.960 . S
C2126 H2112 0.960 . S
C2126 H2113 0.960 . S
C2126 C2125 1.524 . S
C2127 C2124 1.403 . S
C2127 C2128 1.392 . S
C2127 C2131 1.495 . S
C2128 C2127 1.392 . S
C2128 C2129 1.385 . S
C2128 C2130 1.478 1_455 S
C2129 H2123 0.930 . S
C2129 C2125 1.400 . S
C2129 C2128 1.385 . S
C2130 C2128 1.478 1_655 S
C2130 C2132 1.381 . S
C2130 C2136 1.383 . S
C2131 C2127 1.495 . S
C2131 H2137 0.959 . S
C2131 H2138 0.961 . S
C2131 H2139 0.960 . S
C2132 C2130 1.381 . S
C2132 C2133 1.394 . S
C2132 H2140 0.930 . S
C2133 C2132 1.394 . S
C2133 C2134 1.383 . S
C2133 H2141 0.929 . S
C2134 C2133 1.383 . S
C2134 C2135 1.377 . S
C2135 H2119 0.930 . S
C2135 C2134 1.377 . S
C2135 C2136 1.379 . S
C2136 H2120 0.931 . S
C2136 C2130 1.383 . S
C2136 C2135 1.379 . S
H2137 C2131 0.959 . S
H2138 C2131 0.961 . S
H2139 C2131 0.960 . S
H2140 C2132 0.930 . S
H2141 C2133 0.929 . S
H2142 C2150 0.929 . S
H2143 C2152 0.930 . S
H2144 C2154 0.930 . S
H2145 C2157 0.929 . S
H2146 C2160 0.930 . S
H2147 C2162 0.960 . S
H2148 C2162 0.960 . S
H2149 C2162 0.960 . S
C2150 H2142 0.929 . S
C2150 C2151 1.377 . S
C2150 C2152 1.384 . S
C2151 C2150 1.377 . S
C2151 C2157 1.390 . S
C2152 H2143 0.930 . S
C2152 C2150 1.384 . S
C2152 C2153 1.372 . S
C2153 C2152 1.372 . S
C2153 C2154 1.400 . S
C2153 C2158 1.490 . S
C2154 H2144 0.930 . S
C2154 C2153 1.400 . S
C2154 C2157 1.386 . S
H2155 C2171 0.930 . S
H2156 C2172 0.931 . S
C2157 H2145 0.929 . S
C2157 C2151 1.390 . S
C2157 C2154 1.386 . S
C2158 C2153 1.490 . S
C2158 C2160 1.395 . S
C2158 C2161 1.403 . S
H2159 C2165 0.930 . S
C2160 H2146 0.930 . S
C2160 C2158 1.395 . S
C2160 C2163 1.403 . S
C2161 C2158 1.403 . S
C2161 C2162 1.524 . S
C2161 C2165 1.400 . S
C2162 H2147 0.960 . S
C2162 H2148 0.960 . S
C2162 H2149 0.960 . S
C2162 C2161 1.524 . S
C2163 C2160 1.403 . S
C2163 C2164 1.392 . S
C2163 C2167 1.495 . S
C2164 C2163 1.392 . S
C2164 C2165 1.385 . S
C2164 C2166 1.478 . S
C2165 H2159 0.930 . S
C2165 C2161 1.400 . S
C2165 C2164 1.385 . S
C2166 C2164 1.478 . S
C2166 C2168 1.381 . S
C2166 C2172 1.383 . S
C2167 C2163 1.495 . S
C2167 H2173 0.959 . S
C2167 H2174 0.961 . S
C2167 H2175 0.960 . S
C2168 C2166 1.381 . S
C2168 C2169 1.394 . S
C2168 H2176 0.930 . S
C2169 C2168 1.394 . S
C2169 C2170 1.383 . S
C2169 H2177 0.929 . S
C2170 C2169 1.383 . S
C2170 C2171 1.377 . S
C2171 H2155 0.930 . S
C2171 C2170 1.377 . S
C2171 C2172 1.379 . S
C2172 H2156 0.931 . S
C2172 C2166 1.383 . S
C2172 C2171 1.379 . S
H2173 C2167 0.959 . S
H2174 C2167 0.961 . S
H2175 C2167 0.960 . S
H2176 C2168 0.930 . S
H2177 C2169 0.929 . S
H2178 C2186 0.929 . S
H2179 C2188 0.930 . S
H2180 C2190 0.930 . S
H2181 C2193 0.929 . S
H2182 C2196 0.930 . S
H2183 C2198 0.960 . S
H2184 C2198 0.960 . S
H2185 C2198 0.960 . S
C2186 H2178 0.929 . S
C2186 C2187 1.377 . S
C2186 C2188 1.384 . S
C2187 C2186 1.377 . S
C2187 C2193 1.390 . S
C2188 H2179 0.930 . S
C2188 C2186 1.384 . S
C2188 C2189 1.372 . S
C2189 C2188 1.372 . S
C2189 C2190 1.400 . S
C2189 C2194 1.490 . S
C2190 H2180 0.930 . S
C2190 C2189 1.400 . S
C2190 C2193 1.386 . S
H2191 C2207 0.930 . S
H2192 C2208 0.931 . S
C2193 H2181 0.929 . S
C2193 C2187 1.390 . S
C2193 C2190 1.386 . S
C2194 C2189 1.490 . S
C2194 C2196 1.395 . S
C2194 C2197 1.403 . S
H2195 C2201 0.930 . S
C2196 H2182 0.930 . S
C2196 C2194 1.395 . S
C2196 C2199 1.403 . S
C2197 C2194 1.403 . S
C2197 C2198 1.524 . S
C2197 C2201 1.400 . S
C2198 H2183 0.960 . S
C2198 H2184 0.960 . S
C2198 H2185 0.960 . S
C2198 C2197 1.524 . S
C2199 C2196 1.403 . S
C2199 C2200 1.392 . S
C2199 C2203 1.495 . S
C2200 C2199 1.392 . S
C2200 C2201 1.385 . S
C2200 C2202 1.478 1_545 S
C2201 H2195 0.930 . S
C2201 C2197 1.400 . S
C2201 C2200 1.385 . S
C2202 C2200 1.478 1_565 S
C2202 C2204 1.381 . S
C2202 C2208 1.383 . S
C2203 C2199 1.495 . S
C2203 H2209 0.959 . S
C2203 H2210 0.961 . S
C2203 H2211 0.960 . S
C2204 C2202 1.381 . S
C2204 C2205 1.394 . S
C2204 H2212 0.930 . S
C2205 C2204 1.394 . S
C2205 C2206 1.383 . S
C2205 H2213 0.929 . S
C2206 C2205 1.383 . S
C2206 C2207 1.377 . S
C2207 H2191 0.930 . S
C2207 C2206 1.377 . S
C2207 C2208 1.379 . S
C2208 H2192 0.931 . S
C2208 C2202 1.383 . S
C2208 C2207 1.379 . S
H2209 C2203 0.959 . S
H2210 C2203 0.961 . S
H2211 C2203 0.960 . S
H2212 C2204 0.930 . S
H2213 C2205 0.929 . S
H2214 C2222 0.929 . S
H2215 C2224 0.930 . S
H2216 C2226 0.930 . S
H2217 C2229 0.929 . S
H2218 C2232 0.930 . S
H2219 C2234 0.960 . S
H2220 C2234 0.960 . S
H2221 C2234 0.960 . S
C2222 H2214 0.929 . S
C2222 C2223 1.377 . S
C2222 C2224 1.384 . S
C2223 C2222 1.377 . S
C2223 C2229 1.390 . S
C2224 H2215 0.930 . S
C2224 C2222 1.384 . S
C2224 C2225 1.372 . S
C2225 C2224 1.372 . S
C2225 C2226 1.400 . S
C2225 C2230 1.490 . S
C2226 H2216 0.930 . S
C2226 C2225 1.400 . S
C2226 C2229 1.386 . S
H2227 C2243 0.930 . S
H2228 C2244 0.931 . S
C2229 H2217 0.929 . S
C2229 C2223 1.390 . S
C2229 C2226 1.386 . S
C2230 C2225 1.490 . S
C2230 C2232 1.395 . S
C2230 C2233 1.403 . S
H2231 C2237 0.930 . S
C2232 H2218 0.930 . S
C2232 C2230 1.395 . S
C2232 C2235 1.403 1_455 S
C2233 C2230 1.403 . S
C2233 C2234 1.524 . S
C2233 C2237 1.400 1_455 S
C2234 H2219 0.960 . S
C2234 H2220 0.960 . S
C2234 H2221 0.960 . S
C2234 C2233 1.524 . S
C2235 C2232 1.403 1_655 S
C2235 C2236 1.392 . S
C2235 C2239 1.495 . S
C2236 C2235 1.392 . S
C2236 C2237 1.385 . S
C2236 C2238 1.478 . S
C2237 H2231 0.930 . S
C2237 C2233 1.400 1_655 S
C2237 C2236 1.385 . S
C2238 C2236 1.478 . S
C2238 C2240 1.381 . S
C2238 C2244 1.383 . S
C2239 C2235 1.495 . S
C2239 H2245 0.959 . S
C2239 H2246 0.961 . S
C2239 H2247 0.960 . S
C2240 C2238 1.381 . S
C2240 C2241 1.394 . S
C2240 H2248 0.930 . S
C2241 C2240 1.394 . S
C2241 C2242 1.383 . S
C2241 H2249 0.929 . S
C2242 C2241 1.383 . S
C2242 C2243 1.377 . S
C2243 H2227 0.930 . S
C2243 C2242 1.377 . S
C2243 C2244 1.379 . S
C2244 H2228 0.931 . S
C2244 C2238 1.383 . S
C2244 C2243 1.379 . S
H2245 C2239 0.959 . S
H2246 C2239 0.961 . S
H2247 C2239 0.960 . S
H2248 C2240 0.930 . S
H2249 C2241 0.929 . S
C963 C250 1.953 . S
C982 C38 1.951 . S
C999 C304 1.953 . S
C1018 C92 1.950 . S
C1035 C144 1.125 . S
C1054 C188 1.123 . S
C1071 C251 1.918 . S
C1090 C39 1.915 1_655 S
C1107 C303 1.918 . S
C1126 C91 1.912 . S
C1143 C145 1.084 . S
C1162 C181 1.084 . S
C1179 C569 1.910 . S
C1198 C356 1.904 . S
C1215 C622 1.908 . S
C1234 C409 1.906 . S
C1251 C462 1.909 . S
C1270 C516 1.903 . S
C1287 C357 1.962 . S
C1306 C568 1.959 . S
C1323 C621 1.963 . S
C1342 C410 1.957 . S
C1359 C515 1.962 . S
C1378 C463 1.957 . S
C1395 C887 1.114 . S
C1414 C665 1.110 . S
C1431 C711 1.116 . S
C1450 C939 1.113 . S
C1467 C824 0.287 . S
C1486 C764 0.292 . S
C1503 C886 1.095 . S
C1522 C658 1.095 . S
C1539 C940 1.094 . S
C1558 C718 1.093 . S
C1575 C771 0.265 . S
C1594 C817 0.278 . S
C1611 C22 1.523 . S
C1630 C506 1.523 . S
C1647 C559 1.503 . S
C1666 C82 1.503 . S
C1683 C612 1.501 . S
C1702 C128 1.498 . S
C1719 C198 1.517 . S
C1738 C675 1.509 . S
C1755 C727 1.509 . S
C1774 C234 1.508 . S
C1791 C780 1.504 . S
C1810 C294 1.502 . S
C1827 C833 1.529 . S
C1846 C29 1.517 . S
C1863 C870 1.509 . S
C1882 C75 1.506 . S
C1899 C930 1.501 . S
C1918 C135 1.495 . S
C1935 C197 1.517 . S
C1954 C347 1.518 . S
C1971 C241 1.506 . S
C1990 C400 1.501 . S
C2007 C453 1.507 . S
C2026 C287 1.503 . S
C2043 C834 1.510 . S
C2062 C340 1.503 . S
C2079 C877 1.517 . S
C2098 C393 1.509 . S
C2115 C446 1.506 . S
C2134 C923 1.502 . S
C2151 C674 1.502 . S
C2170 C499 1.498 . S
C2187 C728 1.507 . S
C2206 C552 1.505 . S
C2223 C605 1.507 . S
C2242 C781 1.503 . S
