# Generated by pormake.
# Topology wjz, (5)-cn, num edge types: 1
# Building blocks:
#     Node 0, Type 0, BuildingBlock: XOMCOT_clean_sbu_1, # of connection points: 5
#     Node 1, Type 0, BuildingBlock: XOMCOT_clean_sbu_1, # of connection points: 5
#     Node 2, Type 0, BuildingBlock: XOMCOT_clean_sbu_1, # of connection points: 5
#     Node 3, Type 0, BuildingBlock: XOMCOT_clean_sbu_1, # of connection points: 5
#     Node 4, Type 0, BuildingBlock: XOMCOT_clean_sbu_1, # of connection points: 5
#     Node 5, Type 0, BuildingBlock: XOMCOT_clean_sbu_1, # of connection points: 5
#     Node 6, Type 0, BuildingBlock: XOMCOT_clean_sbu_1, # of connection points: 5
#     Node 7, Type 0, BuildingBlock: XOMCOT_clean_sbu_1, # of connection points: 5
#     Node 8, Type 0, BuildingBlock: XOMCOT_clean_sbu_1, # of connection points: 5
#     Node 9, Type 0, BuildingBlock: XOMCOT_clean_sbu_1, # of connection points: 5
#     Node 10, Type 0, BuildingBlock: XOMCOT_clean_sbu_1, # of connection points: 5
#     Node 11, Type 0, BuildingBlock: XOMCOT_clean_sbu_1, # of connection points: 5
#     Edge 12, Type (0, 0), BuildingBlock: KIFKEQ_clean_linker_1, # of connection points: 2
#     Edge 13, Type (0, 0), BuildingBlock: KIFKEQ_clean_linker_1, # of connection points: 2
#     Edge 14, Type (0, 0), BuildingBlock: KIFKEQ_clean_linker_1, # of connection points: 2
#     Edge 15, Type (0, 0), BuildingBlock: KIFKEQ_clean_linker_1, # of connection points: 2
#     Edge 16, Type (0, 0), BuildingBlock: KIFKEQ_clean_linker_1, # of connection points: 2
#     Edge 17, Type (0, 0), BuildingBlock: KIFKEQ_clean_linker_1, # of connection points: 2
#     Edge 18, Type (0, 0), BuildingBlock: KIFKEQ_clean_linker_1, # of connection points: 2
#     Edge 19, Type (0, 0), BuildingBlock: KIFKEQ_clean_linker_1, # of connection points: 2
#     Edge 20, Type (0, 0), BuildingBlock: KIFKEQ_clean_linker_1, # of connection points: 2
#     Edge 21, Type (0, 0), BuildingBlock: KIFKEQ_clean_linker_1, # of connection points: 2
#     Edge 22, Type (0, 0), BuildingBlock: KIFKEQ_clean_linker_1, # of connection points: 2
#     Edge 23, Type (0, 0), BuildingBlock: KIFKEQ_clean_linker_1, # of connection points: 2
#     Edge 24, Type (0, 0), BuildingBlock: KIFKEQ_clean_linker_1, # of connection points: 2
#     Edge 25, Type (0, 0), BuildingBlock: KIFKEQ_clean_linker_1, # of connection points: 2
#     Edge 26, Type (0, 0), BuildingBlock: KIFKEQ_clean_linker_1, # of connection points: 2
#     Edge 27, Type (0, 0), BuildingBlock: KIFKEQ_clean_linker_1, # of connection points: 2
#     Edge 28, Type (0, 0), BuildingBlock: KIFKEQ_clean_linker_1, # of connection points: 2
#     Edge 29, Type (0, 0), BuildingBlock: KIFKEQ_clean_linker_1, # of connection points: 2
#     Edge 30, Type (0, 0), BuildingBlock: KIFKEQ_clean_linker_1, # of connection points: 2
#     Edge 31, Type (0, 0), BuildingBlock: KIFKEQ_clean_linker_1, # of connection points: 2
#     Edge 32, Type (0, 0), BuildingBlock: KIFKEQ_clean_linker_1, # of connection points: 2
#     Edge 33, Type (0, 0), BuildingBlock: KIFKEQ_clean_linker_1, # of connection points: 2
#     Edge 34, Type (0, 0), BuildingBlock: KIFKEQ_clean_linker_1, # of connection points: 2
#     Edge 35, Type (0, 0), BuildingBlock: KIFKEQ_clean_linker_1, # of connection points: 2
#     Edge 36, Type (0, 0), BuildingBlock: KIFKEQ_clean_linker_1, # of connection points: 2
#     Edge 37, Type (0, 0), BuildingBlock: KIFKEQ_clean_linker_1, # of connection points: 2
#     Edge 38, Type (0, 0), BuildingBlock: KIFKEQ_clean_linker_1, # of connection points: 2
#     Edge 39, Type (0, 0), BuildingBlock: KIFKEQ_clean_linker_1, # of connection points: 2
#     Edge 40, Type (0, 0), BuildingBlock: KIFKEQ_clean_linker_1, # of connection points: 2
#     Edge 41, Type (0, 0), BuildingBlock: KIFKEQ_clean_linker_1, # of connection points: 2
# Relax obj value: 0.173
# Max RMSD: 0.191
# Mean RMSD: 0.191
data_MOF--net-wjz--node1-XOMCOT_clean_sbu_1--edge1-KIFKEQ_clean_linker_1
_symmetry_space_group_name_H-M    P1
_symmetry_Int_Tables_number       1
_symmetry_cell_setting            triclinic
loop_
_symmetry_equiv_pos_as_xyz
'x, y, z'
_cell_length_a     74.665233
_cell_length_b     74.656426
_cell_length_c     17.648937
_cell_angle_alpha  90.016158
_cell_angle_beta   90.001017
_cell_angle_gamma 119.99047
loop_
_atom_site_label
_atom_site_type_symbol
_atom_site_fract_x
_atom_site_fract_y
_atom_site_fract_z
_atom_type_partial_charge
C0 C 0.3316 0.46927 0.10647 0.0
C1 C 0.32979 0.46588 0.02915 0.0
N2 N 0.34346 0.4836 0.99452 0.0
N3 N 0.34638 0.48897 0.12022 0.0
C4 C 0.35336 0.49718 0.05089 0.0
H5 H 0.32265 0.45815 0.14993 0.0
Co6 Co 0.35479 0.50141 0.21516 0.0
C7 C 0.38827 0.54469 0.17354 0.0
O8 O 0.40054 0.54619 0.2296 0.0
N9 N 0.36259 0.51363 0.31223 0.0
C10 C 0.36766 0.53443 0.41054 0.0
C11 C 0.36574 0.53242 0.33308 0.0
C12 C 0.36175 0.50422 0.37883 0.0
N13 N 0.365 0.51658 0.43923 0.0
O14 O 0.33168 0.50565 0.21761 0.0
H15 H 0.36527 0.54354 0.29512 0.0
H16 H 0.35757 0.4882 0.38394 0.0
O17 O 0.37077 0.52824 0.16582 0.0
C18 C 0.31678 0.49443 0.26186 0.0
O19 O 0.3179 0.48047 0.30375 0.0
N20 N 0.3768 0.49588 0.21246 0.0
C21 C 0.40401 0.48051 0.2037 0.0
C22 C 0.40698 0.49716 0.15837 0.0
C23 C 0.39307 0.50449 0.16295 0.0
C24 C 0.3733 0.47913 0.25453 0.0
C25 C 0.38699 0.47153 0.25262 0.0
H26 H 0.3949 0.51621 0.12322 0.0
H27 H 0.35917 0.47083 0.28657 0.0
H28 H 0.36583 0.51272 0.04125 0.0
H29 H 0.319 0.45167 1.0007 0.0
H30 H 0.36937 0.54742 0.44354 0.0
H31 H 0.4196 0.50406 0.11807 0.0
H32 H 0.38362 0.45801 0.28587 0.0
C33 C 0.86605 0.32147 0.21923 0.0
C34 C 0.8673 0.31943 0.14202 0.0
N35 N 0.85887 0.32952 0.10701 0.0
N36 N 0.85692 0.3328 0.23275 0.0
C37 C 0.85279 0.33748 0.16344 0.0
H38 H 0.87139 0.31507 0.26282 0.0
Co39 Co 0.85147 0.33976 0.32778 0.0
C40 C 0.84292 0.37403 0.29557 0.0
O41 O 0.85368 0.38432 0.35527 0.0
N42 N 0.84536 0.34582 0.42497 0.0
C43 C 0.82618 0.34695 0.51964 0.0
C44 C 0.82819 0.34672 0.44242 0.0
C45 C 0.8531 0.34481 0.49325 0.0
N46 N 0.84185 0.34567 0.55158 0.0
O47 O 0.8245 0.31618 0.32532 0.0
H48 H 0.81697 0.34586 0.40171 0.0
H49 H 0.8655 0.34155 0.50091 0.0
O50 O 0.84084 0.35634 0.28037 0.0
C51 C 0.82324 0.30024 0.35656 0.0
O52 O 0.84016 0.3014 0.38386 0.0
N53 N 0.87879 0.36228 0.33018 0.0
C54 C 0.92106 0.39098 0.3282 0.0
C55 C 0.90766 0.39273 0.27724 0.0
C56 C 0.88659 0.37807 0.2785 0.0
C57 C 0.89193 0.35979 0.37686 0.0
C58 C 0.913 0.37429 0.3786 0.0
H59 H 0.87692 0.37891 0.23495 0.0
H60 H 0.88633 0.34581 0.40953 0.0
H61 H 0.84581 0.3469 0.15419 0.0
H62 H 0.87364 0.31091 0.11415 0.0
H63 H 0.81366 0.34714 0.54981 0.0
H64 H 0.91351 0.40498 0.23539 0.0
H65 H 0.92309 0.37182 0.41588 0.0
C66 C 0.53181 0.86182 0.4257 0.0
C67 C 0.53527 0.86406 0.34863 0.0
N68 N 0.51729 0.85909 0.31388 0.0
N69 N 0.51174 0.85534 0.43943 0.0
C70 C 0.50337 0.85394 0.37028 0.0
H71 H 0.54319 0.86472 0.46903 0.0
Co72 Co 0.4993 0.84983 0.53457 0.0
C73 C 0.4552 0.83706 0.49918 0.0
O74 O 0.45358 0.84664 0.55902 0.0
N75 N 0.48715 0.84388 0.6318 0.0
C76 C 0.46788 0.82528 0.72935 0.0
C77 C 0.47007 0.82606 0.65193 0.0
C78 C 0.49539 0.85331 0.69868 0.0
N79 N 0.48392 0.84241 0.75886 0.0
O80 O 0.49765 0.82359 0.53502 0.0
H81 H 0.46045 0.81374 0.61316 0.0
H82 H 0.51009 0.86732 0.70402 0.0
O83 O 0.47217 0.83732 0.48631 0.0
C84 C 0.51228 0.8231 0.57014 0.0
O85 O 0.52695 0.84027 0.60054 0.0
N86 N 0.50246 0.87648 0.53432 0.0
C87 C 0.51451 0.91837 0.53005 0.0
C88 C 0.49832 0.90415 0.48422 0.0
C89 C 0.49264 0.88326 0.4866 0.0
C90 C 0.51894 0.89039 0.57603 0.0
C91 C 0.52484 0.9113 0.57658 0.0
H92 H 0.48121 0.873 0.44668 0.0
H93 H 0.52827 0.8854 0.60616 0.0
H94 H 0.4873 0.84906 0.36101 0.0
H95 H 0.54992 0.86912 0.3206 0.0
H96 H 0.45615 0.81241 0.76152 0.0
H97 H 0.49052 0.90923 0.44541 0.0
H98 H 0.5381 0.92202 0.60994 0.0
C99 C 0.65999 0.53318 0.57874 0.0
C100 C 0.66276 0.53682 0.50185 0.0
N101 N 0.65821 0.51897 0.46679 0.0
N102 N 0.65359 0.51312 0.59226 0.0
C103 C 0.65297 0.50499 0.52325 0.0
H104 H 0.66192 0.54429 0.62194 0.0
Co105 Co 0.64568 0.50001 0.68651 0.0
C106 C 0.61192 0.45784 0.64209 0.0
O107 O 0.59996 0.45797 0.69652 0.0
N108 N 0.63883 0.48737 0.78348 0.0
C109 C 0.63381 0.46607 0.88003 0.0
C110 C 0.63376 0.46785 0.80252 0.0
C111 C 0.6431 0.49736 0.85097 0.0
N112 N 0.63972 0.48471 0.91073 0.0
O113 O 0.66975 0.4975 0.68867 0.0
H114 H 0.63168 0.45589 0.76312 0.0
H115 H 0.64989 0.51389 0.85615 0.0
O116 O 0.6303 0.47315 0.63507 0.0
C117 C 0.68497 0.51278 0.72076 0.0
O118 O 0.68276 0.52835 0.7433 0.0
N119 N 0.62238 0.5038 0.68502 0.0
C120 C 0.59187 0.51502 0.6787 0.0
C121 C 0.5935 0.50303 0.62107 0.0
C122 C 0.60899 0.49774 0.62491 0.0
C123 C 0.62145 0.51626 0.73948 0.0
C124 C 0.60602 0.52159 0.73857 0.0
H125 H 0.6107 0.48952 0.57769 0.0
H126 H 0.63336 0.52326 0.78156 0.0
H127 H 0.64802 0.48893 0.51422 0.0
H128 H 0.66751 0.55145 0.47418 0.0
H129 H 0.63102 0.4524 0.91093 0.0
H130 H 0.58321 0.49818 0.57265 0.0
H131 H 0.60592 0.53176 0.78217 0.0
C132 C 0.12426 0.6737 0.6939 0.0
C133 C 0.12266 0.67543 0.61683 0.0
N134 N 0.13459 0.66909 0.58205 0.0
N135 N 0.13701 0.66616 0.70765 0.0
C136 C 0.14321 0.66374 0.63846 0.0
H137 H 0.11632 0.67733 0.73722 0.0
Co138 Co 0.14267 0.65941 0.80284 0.0
C139 C 0.15171 0.6251 0.77175 0.0
O140 O 0.14249 0.61533 0.83443 0.0
N141 N 0.1487 0.65345 0.89987 0.0
C142 C 0.16716 0.652 0.99641 0.0
C143 C 0.16605 0.65309 0.91903 0.0
C144 C 0.13993 0.65329 0.96714 0.0
N145 N 0.15075 0.65225 0.02669 0.0
O146 O 0.17001 0.68234 0.79929 0.0
H147 H 0.17781 0.65469 0.87942 0.0
H148 H 0.12646 0.65494 0.97309 0.0
O149 O 0.15243 0.64212 0.7551 0.0
C150 C 0.17195 0.69977 0.8163 0.0
O151 O 0.15524 0.70113 0.82627 0.0
N152 N 0.11513 0.63759 0.80769 0.0
C153 C 0.07256 0.61047 0.81191 0.0
C154 C 0.08541 0.60564 0.76949 0.0
C155 C 0.10663 0.61972 0.76624 0.0
C156 C 0.10266 0.64273 0.84721 0.0
C157 C 0.08135 0.62934 0.85066 0.0
H158 H 0.11575 0.61654 0.72719 0.0
H159 H 0.10921 0.65778 0.87356 0.0
H160 H 0.15335 0.65759 0.62925 0.0
H161 H 0.11336 0.68084 0.58872 0.0
H162 H 0.17976 0.65237 0.02803 0.0
H163 H 0.07897 0.59159 0.73609 0.0
H164 H 0.0718 0.63385 0.88224 0.0
C165 C 0.46103 0.12971 0.88849 0.0
C166 C 0.45769 0.1275 0.81129 0.0
N167 N 0.47613 0.13482 0.77677 0.0
N168 N 0.48145 0.13829 0.90233 0.0
C169 C 0.49017 0.14111 0.83313 0.0
H170 H 0.44932 0.12523 0.93186 0.0
Co171 Co 0.49371 0.14371 0.9978 0.0
C172 C 0.53794 0.15529 0.96396 0.0
O173 O 0.53991 0.14651 0.02551 0.0
N174 N 0.50555 0.14936 0.09496 0.0
C175 C 0.52516 0.16685 0.19346 0.0
C176 C 0.52305 0.16665 0.11609 0.0
C177 C 0.49689 0.13973 0.16105 0.0
N178 N 0.50861 0.14995 0.22165 0.0
O179 O 0.49693 0.17062 0.99614 0.0
H180 H 0.53315 0.17893 0.07802 0.0
H181 H 0.48186 0.12604 0.16546 0.0
O182 O 0.52084 0.15468 0.95032 0.0
C183 C 0.48215 0.17135 0.02907 0.0
O184 O 0.46682 0.15414 0.05656 0.0
N185 N 0.4888 0.11652 1.00042 0.0
C186 C 0.47295 0.07388 0.99968 0.0
C187 C 0.49167 0.08708 0.96327 0.0
C188 C 0.4991 0.1084 0.96256 0.0
C189 C 0.47046 0.10378 0.03515 0.0
C190 C 0.46231 0.08244 0.036 0.0
H191 H 0.5124 0.11791 0.92807 0.0
H192 H 0.46166 0.11022 0.05985 0.0
H193 H 0.50644 0.14712 0.82362 0.0
H194 H 0.44292 0.12126 0.78284 0.0
H195 H 0.53723 0.17913 0.22677 0.0
H196 H 0.49988 0.08088 0.93224 0.0
H197 H 0.44759 0.07268 0.06348 0.0
C198 C 0.53824 0.66506 0.77218 0.0
C199 C 0.54182 0.6676 0.84917 0.0
N200 N 0.52393 0.66289 0.88423 0.0
N201 N 0.51818 0.65867 0.75866 0.0
C202 C 0.50999 0.65777 0.82776 0.0
H203 H 0.5494 0.66724 0.72887 0.0
Co204 Co 0.50512 0.65134 0.66427 0.0
C205 C 0.46256 0.61788 0.70899 0.0
O206 O 0.46197 0.60551 0.65475 0.0
N207 N 0.49252 0.64503 0.56744 0.0
C208 C 0.47122 0.63994 0.47089 0.0
C209 C 0.473 0.63993 0.54841 0.0
C210 C 0.50252 0.64928 0.50003 0.0
N211 N 0.48986 0.64582 0.44024 0.0
O212 O 0.50253 0.67534 0.66515 0.0
H213 H 0.46102 0.63776 0.5878 0.0
H214 H 0.51903 0.65597 0.49491 0.0
O215 O 0.47831 0.63599 0.71523 0.0
C216 C 0.51756 0.69162 0.63733 0.0
O217 O 0.53387 0.69096 0.61315 0.0
N218 N 0.5087 0.62791 0.66338 0.0
C219 C 0.51875 0.59651 0.66552 0.0
C220 C 0.50675 0.59803 0.72341 0.0
C221 C 0.50212 0.61399 0.7218 0.0
C222 C 0.52128 0.62717 0.60896 0.0
C223 C 0.52604 0.61134 0.60778 0.0
H224 H 0.49389 0.61553 0.76933 0.0
H225 H 0.52871 0.63945 0.56845 0.0
H226 H 0.49392 0.65275 0.83683 0.0
H227 H 0.55645 0.67236 0.87689 0.0
H228 H 0.45752 0.63703 0.4399 0.0
H229 H 0.50133 0.58723 0.7703 0.0
H230 H 0.53625 0.61133 0.56416 0.0
C231 C 0.86951 0.53699 0.95938 0.0
C232 C 0.87082 0.5397 0.03679 0.0
N233 N 0.85635 0.52198 0.06939 0.0
N234 N 0.85443 0.51761 0.94316 0.0
C235 C 0.84645 0.50903 0.01106 0.0
H236 H 0.87932 0.54827 0.91776 0.0
Co237 Co 0.84746 0.50514 0.84815 0.0
C238 C 0.83919 0.46205 0.8787 0.0
O239 O 0.84784 0.46141 0.81466 0.0
N240 N 0.83996 0.49283 0.75159 0.0
C241 C 0.82048 0.47223 0.65826 0.0
C242 C 0.82263 0.47482 0.73539 0.0
C243 C 0.84761 0.50122 0.68289 0.0
N244 N 0.83618 0.48894 0.625 0.0
O245 O 0.82039 0.50114 0.85803 0.0
H246 H 0.81168 0.46456 0.77703 0.0
H247 H 0.86042 0.51665 0.675 0.0
O248 O 0.83838 0.47826 0.89598 0.0
C249 C 0.81925 0.51637 0.83149 0.0
O250 O 0.83631 0.53257 0.80728 0.0
N251 N 0.87485 0.51073 0.83692 0.0
C252 C 0.91746 0.52652 0.82217 0.0
C253 C 0.90541 0.50923 0.86815 0.0
C254 C 0.88423 0.50191 0.87634 0.0
C255 C 0.88646 0.52795 0.79447 0.0
C256 C 0.90764 0.53595 0.78555 0.0
H257 H 0.87583 0.48986 0.91722 0.0
H258 H 0.8794 0.53627 0.77068 0.0
H259 H 0.83357 0.49355 0.01745 0.0
H260 H 0.88207 0.55343 0.0665 0.0
H261 H 0.80794 0.45924 0.62934 0.0
H262 H 0.91232 0.50168 0.89906 0.0
H263 H 0.91633 0.54999 0.75292 0.0
C264 C 0.32891 0.86931 0.13245 0.0
C265 C 0.32744 0.87098 0.20969 0.0
N266 N 0.33452 0.8596 0.24418 0.0
N267 N 0.33686 0.85695 0.1182 0.0
C268 C 0.34008 0.85131 0.18722 0.0
H269 H 0.32452 0.87668 0.08934 0.0
Co270 Co 0.34236 0.85008 0.02287 0.0
C271 C 0.37462 0.83807 0.05479 0.0
O272 O 0.38493 0.84653 0.99215 0.0
N273 N 0.34714 0.8428 0.92627 0.0
C274 C 0.34601 0.82249 0.83178 0.0
C275 C 0.34584 0.82454 0.90899 0.0
C276 C 0.34762 0.85133 0.85812 0.0
N277 N 0.34704 0.83933 0.79982 0.0
O278 O 0.31822 0.82357 0.02889 0.0
H279 H 0.34367 0.81284 0.94989 0.0
H280 H 0.34674 0.86521 0.85065 0.0
O281 O 0.35834 0.8389 0.07011 0.0
C282 C 0.30148 0.82307 0.01115 0.0
O283 O 0.3018 0.84058 0.99873 0.0
N284 N 0.36527 0.87684 0.0153 0.0
C285 C 0.39447 0.91888 1.00248 0.0
C286 C 0.39851 0.90574 0.04718 0.0
C287 C 0.3835 0.88484 0.05426 0.0
C288 C 0.36076 0.88958 0.97473 0.0
C289 C 0.37516 0.91051 0.96667 0.0
H290 H 0.38639 0.87554 0.09351 0.0
H291 H 0.34551 0.88355 0.9506 0.0
H292 H 0.34674 0.84159 0.19576 0.0
H293 H 0.32144 0.87975 0.23788 0.0
H294 H 0.34466 0.80925 0.80156 0.0
H295 H 0.41297 0.91156 0.07752 0.0
H296 H 0.37082 0.92017 0.93489 0.0
C297 C 0.45844 0.33038 0.25637 0.0
C298 C 0.4553 0.32773 0.33355 0.0
N299 N 0.47291 0.3307 0.36619 0.0
N300 N 0.47799 0.33515 0.24045 0.0
C301 C 0.4862 0.33473 0.30817 0.0
H302 H 0.44753 0.32987 0.21488 0.0
Co303 Co 0.49112 0.34311 0.14614 0.0
C304 C 0.53237 0.3782 0.19278 0.0
O305 O 0.53172 0.39012 0.1393 0.0
N306 N 0.50385 0.34998 0.04943 0.0
C307 C 0.52554 0.35639 0.95296 0.0
C308 C 0.5238 0.35692 0.03037 0.0
C309 C 0.49371 0.34422 0.98224 0.0
N310 N 0.50654 0.34838 0.92251 0.0
O311 O 0.49477 0.31971 0.14619 0.0
H312 H 0.53629 0.36085 0.0697 0.0
H313 H 0.47705 0.33571 0.97751 0.0
O314 O 0.51773 0.35944 0.19822 0.0
C315 C 0.47963 0.30357 0.11792 0.0
O316 O 0.46323 0.30441 0.09612 0.0
N317 N 0.48635 0.36588 0.14554 0.0
C318 C 0.47331 0.3952 0.15085 0.0
C319 C 0.48473 0.39341 0.2106 0.0
C320 C 0.49097 0.37863 0.20705 0.0
C321 C 0.47492 0.36719 0.08782 0.0
C322 C 0.46878 0.38202 0.08827 0.0
H323 H 0.49869 0.37683 0.25574 0.0
H324 H 0.4695 0.35613 0.04251 0.0
H325 H 0.50177 0.33764 0.315 0.0
H326 H 0.44146 0.32488 0.36346 0.0
H327 H 0.53969 0.36103 0.92191 0.0
H328 H 0.48805 0.40266 0.26143 0.0
H329 H 0.46003 0.38267 0.04053 0.0
C330 C 0.13182 0.46172 0.42573 0.0
C331 C 0.1308 0.45847 0.5029 0.0
N332 N 0.14186 0.47696 0.53747 0.0
N333 N 0.1433 0.48214 0.41178 0.0
C334 C 0.14938 0.49095 0.48079 0.0
H335 H 0.12428 0.45001 0.38254 0.0
Co336 Co 0.14784 0.49468 0.31719 0.0
C337 C 0.15185 0.53578 0.35223 0.0
O338 O 0.14067 0.53458 0.29284 0.0
N339 N 0.15295 0.50711 0.21999 0.0
C340 C 0.16982 0.52863 0.1246 0.0
C341 C 0.16844 0.52626 0.20203 0.0
C342 C 0.14574 0.49795 0.15183 0.0
N343 N 0.15558 0.51071 0.09301 0.0
O344 O 0.17593 0.50119 0.32109 0.0
H345 H 0.17902 0.53744 0.24239 0.0
H346 H 0.13441 0.48188 0.1446 0.0
O347 O 0.15556 0.52114 0.36604 0.0
C348 C 0.18052 0.49013 0.27955 0.0
O349 O 0.16594 0.47535 0.23846 0.0
N350 N 0.11959 0.4868 0.31371 0.0
C351 C 0.07645 0.46883 0.31233 0.0
C352 C 0.08861 0.4847 0.36367 0.0
C353 C 0.11009 0.49325 0.36422 0.0
C354 C 0.1079 0.47054 0.26708 0.0
C355 C 0.0865 0.46186 0.26335 0.0
H356 H 0.11879 0.50418 0.40828 0.0
H357 H 0.11503 0.46341 0.23547 0.0
H358 H 0.15861 0.50738 0.48967 0.0
H359 H 0.12246 0.44367 0.53118 0.0
H360 H 0.18134 0.54202 0.09403 0.0
H361 H 0.08161 0.48988 0.40557 0.0
H362 H 0.07798 0.44944 0.22344 0.0
C363 C 0.663 0.12279 0.57926 0.0
C364 C 0.66581 0.12187 0.65609 0.0
N365 N 0.66092 0.13488 0.69153 0.0
N366 N 0.65626 0.1362 0.56617 0.0
C367 C 0.65545 0.14351 0.6354 0.0
H368 H 0.66514 0.11381 0.53579 0.0
Co369 Co 0.64822 0.14126 0.47189 0.0
C370 C 0.61507 0.15045 0.51646 0.0
O371 O 0.60278 0.13803 0.46334 0.0
N372 N 0.64131 0.14689 0.3749 0.0
C373 C 0.63627 0.16296 0.27775 0.0
C374 C 0.63631 0.16135 0.35529 0.0
C375 C 0.64549 0.14095 0.30769 0.0
N376 N 0.64206 0.15008 0.24756 0.0
O377 O 0.67251 0.16765 0.46872 0.0
H378 H 0.63434 0.17138 0.39422 0.0
H379 H 0.65217 0.1311 0.30306 0.0
O380 O 0.6334 0.15338 0.5229 0.0
C381 C 0.68809 0.16794 0.43828 0.0
O382 O 0.68633 0.1504 0.41511 0.0
N383 N 0.6245 0.11434 0.47515 0.0
C384 C 0.59351 0.0729 0.48747 0.0
C385 C 0.59623 0.08707 0.54444 0.0
C386 C 0.61187 0.10766 0.53747 0.0
C387 C 0.62232 0.10047 0.42043 0.0
C388 C 0.60662 0.07983 0.42448 0.0
H389 H 0.61433 0.11799 0.58414 0.0
H390 H 0.6334 0.10489 0.37548 0.0
H391 H 0.65009 0.15429 0.64489 0.0
H392 H 0.67079 0.11214 0.68349 0.0
H393 H 0.63351 0.17381 0.24643 0.0
H394 H 0.58669 0.08215 0.59488 0.0
H395 H 0.60553 0.06911 0.38085 0.0
H396 H 0.33822 0.4796 0.50204 0.0
H397 H 0.38718 0.5412 0.5552 0.0
H398 H 0.33317 0.47115 0.63662 0.0
H399 H 0.38288 0.53269 0.6898 0.0
H400 H 0.35449 0.51978 0.92424 0.0
H401 H 0.36031 0.52725 0.78979 0.0
H402 H 0.34607 0.46439 0.74792 0.0
H403 H 0.33962 0.45686 0.88315 0.0
C404 C 0.34818 0.4912 0.54261 0.0
C405 C 0.36307 0.51108 0.51827 0.0
C406 C 0.34534 0.48637 0.61991 0.0
C407 C 0.35751 0.50124 0.6747 0.0
C408 C 0.37284 0.52095 0.64975 0.0
C409 C 0.37544 0.52584 0.57259 0.0
C410 C 0.35273 0.50759 0.88639 0.0
C411 C 0.34667 0.48774 0.91437 0.0
C412 C 0.35616 0.51188 0.80905 0.0
C413 C 0.35384 0.4965 0.7574 0.0
C414 C 0.34774 0.47658 0.78555 0.0
C415 C 0.34407 0.47223 0.86309 0.0
H416 H 0.88082 0.32518 0.99233 0.0
H417 H 0.83159 0.33824 0.03796 0.0
H418 H 0.87671 0.32844 0.85683 0.0
H419 H 0.82834 0.34261 0.90383 0.0
H420 H 0.81178 0.32717 0.65715 0.0
H421 H 0.81612 0.32267 0.79099 0.0
H422 H 0.88239 0.35372 0.7604 0.0
H423 H 0.87789 0.35787 0.62554 0.0
C424 C 0.86914 0.32874 0.97377 0.0
C425 C 0.85658 0.33146 0.0266 0.0
C426 C 0.86696 0.33087 0.89601 0.0
C427 C 0.85218 0.33578 0.86928 0.0
C428 C 0.83969 0.33853 0.92215 0.0
C429 C 0.84178 0.33631 0.99957 0.0
C430 C 0.82728 0.3332 0.67905 0.0
C431 C 0.84451 0.34304 0.63089 0.0
C432 C 0.82979 0.33062 0.75589 0.0
C433 C 0.84962 0.33796 0.78676 0.0
C434 C 0.86688 0.34766 0.7384 0.0
C435 C 0.86433 0.3501 0.66124 0.0
H436 H 0.48686 0.86301 0.24514 0.0
H437 H 0.53866 0.85397 0.19961 0.0
H438 H 0.47909 0.86034 0.11039 0.0
H439 H 0.53087 0.85129 0.06468 0.0
H440 H 0.5222 0.86501 0.82131 0.0
H441 H 0.53074 0.87082 0.95543 0.0
H442 H 0.46588 0.83443 0.01162 0.0
H443 H 0.45729 0.82933 0.87728 0.0
C444 C 0.49656 0.86035 0.20655 0.0
C445 C 0.51335 0.85859 0.23355 0.0
C446 C 0.49209 0.85883 0.12912 0.0
C447 C 0.50431 0.85553 0.07659 0.0
C448 C 0.52131 0.85414 0.1034 0.0
C449 C 0.52579 0.85566 0.18089 0.0
C450 C 0.50971 0.85854 0.86203 0.0
C451 C 0.48902 0.84667 0.83824 0.0
C452 C 0.51465 0.86165 0.93915 0.0
C453 C 0.49903 0.85301 0.99445 0.0
C454 C 0.47831 0.84148 0.97064 0.0
C455 C 0.47338 0.83835 0.89355 0.0
H456 H 0.62218 0.45902 0.03062 0.0
H457 H 0.66479 0.52276 0.97284 0.0
H458 H 0.62772 0.46784 0.16456 0.0
H459 H 0.67011 0.53158 0.10695 0.0
H460 H 0.65508 0.54186 0.35266 0.0
H461 H 0.65133 0.53398 0.2178 0.0
H462 H 0.65481 0.47891 0.26145 0.0
H463 H 0.65884 0.48684 0.39605 0.0
C464 C 0.63287 0.47488 0.04623 0.0
C465 C 0.64303 0.49011 0.99032 0.0
C466 C 0.63604 0.47994 0.12324 0.0
C467 C 0.64941 0.50042 0.14661 0.0
C468 C 0.65952 0.5157 0.09091 0.0
C469 C 0.65641 0.51062 0.01379 0.0
C470 C 0.65537 0.52823 0.33376 0.0
C471 C 0.65717 0.51498 0.38609 0.0
C472 C 0.65318 0.5237 0.25616 0.0
C473 C 0.65263 0.50574 0.22877 0.0
C474 C 0.65479 0.49268 0.28073 0.0
C475 C 0.6571 0.49726 0.3582 0.0
H476 H 0.13233 0.67209 0.09004 0.0
H477 H 0.16124 0.636 0.14369 0.0
H478 H 0.12816 0.67626 0.22467 0.0
H479 H 0.15689 0.63992 0.27845 0.0
H480 H 0.16739 0.67078 0.50953 0.0
H481 H 0.17061 0.66623 0.37465 0.0
H482 H 0.10975 0.65798 0.33699 0.0
H483 H 0.10664 0.66273 0.472 0.0
C484 C 0.13749 0.66476 0.13053 0.0
C485 C 0.14715 0.65373 0.10613 0.0
C486 C 0.13513 0.66717 0.20783 0.0
C487 C 0.14229 0.65853 0.26254 0.0
C488 C 0.15157 0.64715 0.23797 0.0
C489 C 0.15401 0.64483 0.16074 0.0
C490 C 0.15466 0.6679 0.47259 0.0
C491 C 0.13675 0.6671 0.50172 0.0
C492 C 0.15647 0.66523 0.39517 0.0
C493 C 0.1404 0.66162 0.34487 0.0
C494 C 0.12255 0.661 0.3739 0.0
C495 C 0.12077 0.66375 0.45137 0.0
H496 H 0.5102 0.16399 0.70488 0.0
H497 H 0.45163 0.10851 0.66721 0.0
H498 H 0.51767 0.1663 0.5702 0.0
H499 H 0.45929 0.11034 0.53191 0.0
H500 H 0.47061 0.13354 0.28507 0.0
H501 H 0.46235 0.129 0.41988 0.0
H502 H 0.52675 0.15137 0.47152 0.0
H503 H 0.53492 0.15657 0.33675 0.0
C504 C 0.49902 0.15212 0.66776 0.0
C505 C 0.48034 0.13605 0.69667 0.0
C506 C 0.50333 0.15337 0.59037 0.0
C507 C 0.48918 0.13842 0.53975 0.0
C508 C 0.47045 0.1223 0.56883 0.0
C509 C 0.46604 0.1212 0.64638 0.0
C510 C 0.4829 0.13722 0.32534 0.0
C511 C 0.50342 0.1455 0.30059 0.0
C512 C 0.4782 0.1346 0.40272 0.0
C513 C 0.49389 0.13997 0.45706 0.0
C514 C 0.51431 0.14754 0.4317 0.0
C515 C 0.51902 0.15042 0.35449 0.0
H516 H 0.52788 0.67055 0.37762 0.0
H517 H 0.46408 0.62784 0.32085 0.0
H518 H 0.53663 0.67532 0.24342 0.0
H519 H 0.47285 0.63281 0.18681 0.0
H520 H 0.49182 0.66359 0.95465 0.0
H521 H 0.48391 0.65971 0.08918 0.0
H522 H 0.5389 0.65613 0.13341 0.0
H523 H 0.54676 0.65971 0.99848 0.0
C524 C 0.51572 0.66204 0.33688 0.0
C525 C 0.49521 0.64881 0.36062 0.0
C526 C 0.52076 0.66482 0.25972 0.0
C527 C 0.50544 0.65452 0.20429 0.0
C528 C 0.48497 0.64127 0.22793 0.0
C529 C 0.47994 0.63843 0.30498 0.0
C530 C 0.50222 0.66183 0.99259 0.0
C531 C 0.51991 0.66184 0.96488 0.0
C532 C 0.49765 0.65962 0.07002 0.0
C533 C 0.5107 0.6575 0.12211 0.0
C534 C 0.52862 0.65794 0.0949 0.0
C535 C 0.53315 0.66004 0.01729 0.0
H536 H 0.8716 0.51704 0.55404 0.0
H537 H 0.80754 0.47153 0.51242 0.0
H538 H 0.8763 0.52537 0.41946 0.0
H539 H 0.81253 0.47956 0.37806 0.0
H540 H 0.83738 0.4839 0.13535 0.0
H541 H 0.83245 0.47605 0.26982 0.0
H542 H 0.86365 0.54127 0.32152 0.0
H543 H 0.86821 0.54929 0.18658 0.0
C544 C 0.85847 0.50887 0.5167 0.0
C545 C 0.83916 0.4936 0.54486 0.0
C546 C 0.86121 0.51365 0.43942 0.0
C547 C 0.84478 0.50312 0.3883 0.0
C548 C 0.82554 0.48777 0.41604 0.0
C549 C 0.82273 0.48313 0.49332 0.0
C550 C 0.84293 0.49665 0.17486 0.0
C551 C 0.85312 0.51729 0.14942 0.0
C552 C 0.84016 0.49209 0.25219 0.0
C553 C 0.84767 0.50804 0.30617 0.0
C554 C 0.85791 0.52866 0.28116 0.0
C555 C 0.86052 0.53324 0.20371 0.0
H556 H 0.33429 0.88386 0.35926 0.0
H557 H 0.33851 0.82917 0.31327 0.0
H558 H 0.3369 0.87908 0.49441 0.0
H559 H 0.34235 0.82522 0.44715 0.0
H560 H 0.32586 0.81002 0.6941 0.0
H561 H 0.32252 0.81527 0.56016 0.0
H562 H 0.36075 0.88133 0.59081 0.0
H563 H 0.3637 0.87595 0.72587 0.0
C564 C 0.33577 0.87084 0.37754 0.0
C565 C 0.33615 0.85693 0.32457 0.0
C566 C 0.33755 0.86826 0.45521 0.0
C567 C 0.33982 0.85175 0.48185 0.0
C568 C 0.34031 0.83794 0.42893 0.0
C569 C 0.33839 0.84041 0.35156 0.0
C570 C 0.33371 0.82565 0.67217 0.0
C571 C 0.3452 0.84257 0.72041 0.0
C572 C 0.33181 0.82868 0.59526 0.0
C573 C 0.34149 0.84872 0.56437 0.0
C574 C 0.35288 0.8657 0.61279 0.0
C575 C 0.35465 0.86264 0.69006 0.0
H576 H 0.47264 0.34544 0.85361 0.0
H577 H 0.52787 0.34215 0.81056 0.0
H578 H 0.46406 0.34005 0.71909 0.0
H579 H 0.51931 0.33678 0.67643 0.0
H580 H 0.51043 0.35287 0.43387 0.0
H581 H 0.51802 0.35604 0.56858 0.0
H582 H 0.45334 0.31482 0.6169 0.0
H583 H 0.44573 0.31164 0.48135 0.0
C584 C 0.48284 0.34332 0.81574 0.0
C585 C 0.50102 0.34436 0.84323 0.0
C586 C 0.47791 0.34022 0.73848 0.0
C587 C 0.49104 0.33807 0.68666 0.0
C588 C 0.50903 0.33876 0.71438 0.0
C589 C 0.51395 0.34185 0.79152 0.0
C590 C 0.49784 0.34418 0.47285 0.0
C591 C 0.47745 0.33187 0.44633 0.0
C592 C 0.5022 0.34604 0.55043 0.0
C593 C 0.48631 0.33565 0.60386 0.0
C594 C 0.46593 0.32325 0.57746 0.0
C595 C 0.46156 0.32139 0.49969 0.0
H596 H 0.1634 0.53682 0.97514 0.0
H597 H 0.14233 0.47293 0.02958 0.0
H598 H 0.16001 0.5284 0.84042 0.0
H599 H 0.13899 0.46453 0.89527 0.0
H600 H 0.11563 0.4536 0.64962 0.0
H601 H 0.11862 0.46168 0.78439 0.0
H602 H 0.17603 0.51827 0.74297 0.0
H603 H 0.17304 0.51021 0.60839 0.0
C604 C 0.15814 0.52101 0.95839 0.0
C605 C 0.15309 0.50558 0.01334 0.0
C606 C 0.15623 0.51617 0.88115 0.0
C607 C 0.14926 0.49578 0.85688 0.0
C608 C 0.1441 0.48033 0.91187 0.0
C609 C 0.14598 0.48516 0.98908 0.0
C610 C 0.12902 0.46764 0.66927 0.0
C611 C 0.14406 0.48125 0.61783 0.0
C612 C 0.13072 0.4723 0.74666 0.0
C613 C 0.14752 0.49068 0.77461 0.0
C614 C 0.16269 0.50417 0.7233 0.0
C615 C 0.16098 0.49952 0.64598 0.0
H616 H 0.66134 0.1674 0.76306 0.0
H617 H 0.65779 0.10865 0.80482 0.0
H618 H 0.65714 0.171 0.89777 0.0
H619 H 0.65385 0.11246 0.93984 0.0
H620 H 0.667 0.1369 0.18573 0.0
H621 H 0.67238 0.13343 0.05157 0.0
H622 H 0.62992 0.15469 0.99375 0.0
H623 H 0.62435 0.15797 0.12761 0.0
C624 C 0.65961 0.15519 0.80061 0.0
C625 C 0.65978 0.13764 0.77228 0.0
C626 C 0.6572 0.15728 0.87812 0.0
C627 C 0.65503 0.14196 0.92965 0.0
C628 C 0.65569 0.12466 0.90182 0.0
C629 C 0.658 0.1225 0.82415 0.0
C630 C 0.65863 0.14065 0.14469 0.0
C631 C 0.64526 0.1478 0.16804 0.0
C632 C 0.66176 0.13869 0.06756 0.0
C633 C 0.65168 0.14389 0.01182 0.0
C634 C 0.63825 0.15092 0.03511 0.0
C635 C 0.63506 0.15281 0.11207 0.0
H636 H 0.4311 0.57807 0.72901 0.0
H637 H 0.45902 0.63885 0.83044 0.0
H638 H 0.41042 0.5633 0.84309 0.0
H639 H 0.4391 0.62383 0.94591 0.0
H640 H 0.36757 0.54538 0.04645 0.0
H641 H 0.38271 0.56493 0.93045 0.0
H642 H 0.4421 0.59817 0.041 0.0
H643 H 0.42726 0.57801 0.15622 0.0
C644 C 0.43267 0.58834 0.77508 0.0
C645 C 0.44725 0.60957 0.77146 0.0
C646 C 0.4208 0.57987 0.8404 0.0
C647 C 0.42346 0.59242 0.9036 0.0
C648 C 0.43703 0.6138 0.89832 0.0
C649 C 0.44855 0.62234 0.83239 0.0
C650 C 0.38385 0.5569 0.04632 0.0
C651 C 0.39635 0.55965 0.10994 0.0
C652 C 0.39245 0.56814 0.97994 0.0
C653 C 0.41358 0.58285 0.97666 0.0
C654 C 0.42573 0.5869 0.04216 0.0
C655 C 0.41722 0.57534 0.10811 0.0
H656 H 0.84994 0.41362 0.29954 0.0
H657 H 0.82162 0.35816 0.16279 0.0
H658 H 0.84456 0.43246 0.19784 0.0
H659 H 0.81663 0.3772 0.06043 0.0
H660 H 0.84536 0.42889 0.87181 0.0
H661 H 0.84173 0.40547 0.97446 0.0
H662 H 0.81795 0.43518 0.12045 0.0
H663 H 0.82123 0.45837 0.01754 0.0
C664 C 0.84231 0.40535 0.24827 0.0
C665 C 0.83666 0.38448 0.23876 0.0
C666 C 0.83916 0.41615 0.19002 0.0
C667 C 0.83039 0.40636 0.12081 0.0
C668 C 0.82373 0.38522 0.11271 0.0
C669 C 0.82666 0.37435 0.17135 0.0
C670 C 0.83901 0.43022 0.9253 0.0
C671 C 0.83403 0.44586 0.93688 0.0
C672 C 0.83686 0.41673 0.98408 0.0
C673 C 0.82978 0.41865 0.05578 0.0
C674 C 0.82377 0.43355 0.06616 0.0
C675 C 0.82572 0.44689 0.00718 0.0
H676 H 0.41415 0.84482 0.06192 0.0
H677 H 0.35618 0.8162 0.18365 0.0
H678 H 0.43097 0.83931 0.1706 0.0
H679 H 0.37313 0.81109 0.29289 0.0
H680 H 0.42086 0.84125 0.49341 0.0
H681 H 0.39919 0.83641 0.38344 0.0
H682 H 0.43266 0.81332 0.25524 0.0
H683 H 0.45418 0.81782 0.36562 0.0
C684 C 0.4049 0.83703 0.11129 0.0
C685 C 0.38394 0.83145 0.11482 0.0
C686 C 0.41454 0.83383 0.17357 0.0
C687 C 0.40342 0.82502 0.24068 0.0
C688 C 0.38217 0.81825 0.24244 0.0
C689 C 0.3725 0.82128 0.17994 0.0
C690 C 0.42333 0.83471 0.4424 0.0
C691 C 0.43958 0.83038 0.43789 0.0
C692 C 0.41086 0.83188 0.37935 0.0
C693 C 0.41442 0.82475 0.31037 0.0
C694 C 0.42979 0.81917 0.30727 0.0
C695 C 0.44212 0.82177 0.37058 0.0
H696 H 0.56412 0.41816 0.20476 0.0
H697 H 0.53635 0.35919 0.31967 0.0
H698 H 0.58591 0.43458 0.31527 0.0
H699 H 0.55741 0.37589 0.43134 0.0
H700 H 0.57219 0.42571 0.63051 0.0
H701 H 0.55581 0.40402 0.51981 0.0
H702 H 0.6144 0.43315 0.40292 0.0
H703 H 0.63109 0.45409 0.51496 0.0
C704 C 0.56278 0.40862 0.25308 0.0
C705 C 0.54801 0.38742 0.25404 0.0
C706 C 0.57531 0.41805 0.31628 0.0
C707 C 0.57311 0.40651 0.38199 0.0
C708 C 0.55921 0.38514 0.3816 0.0
C709 C 0.54703 0.37563 0.31776 0.0
C710 C 0.58172 0.42721 0.582 0.0
C711 C 0.60287 0.44216 0.58087 0.0
C712 C 0.57232 0.41475 0.51865 0.0
C713 C 0.58382 0.41718 0.45263 0.0
C714 C 0.60516 0.43121 0.45288 0.0
C715 C 0.61466 0.44333 0.51688 0.0
H716 H 0.17397 0.54254 0.48368 0.0
H717 H 0.14199 0.5665 0.35073 0.0
H718 H 0.1777 0.56585 0.58702 0.0
H719 H 0.14646 0.59033 0.45324 0.0
H720 H 0.17117 0.64039 0.63558 0.0
H721 H 0.17474 0.62094 0.53135 0.0
H722 H 0.14982 0.56657 0.67276 0.0
H723 H 0.14544 0.58573 0.7762 0.0
C724 C 0.16781 0.5528 0.47619 0.0
C725 C 0.15714 0.55219 0.40964 0.0
C726 C 0.17008 0.56624 0.5353 0.0
C727 C 0.1622 0.57973 0.52832 0.0
C728 C 0.15274 0.58012 0.45999 0.0
C729 C 0.15014 0.56642 0.40137 0.0
C730 C 0.16634 0.62429 0.64451 0.0
C731 C 0.15739 0.61447 0.71356 0.0
C732 C 0.16854 0.61321 0.5849 0.0
C733 C 0.16234 0.59222 0.5938 0.0
C734 C 0.15476 0.58277 0.66445 0.0
C735 C 0.15223 0.59375 0.72365 0.0
H736 H 0.6351 0.17448 0.64039 0.0
H737 H 0.57559 0.14346 0.52902 0.0
H738 H 0.61925 0.18051 0.75114 0.0
H739 H 0.56001 0.15026 0.63849 0.0
H740 H 0.53983 0.17553 0.8321 0.0
H741 H 0.56065 0.17914 0.72043 0.0
H742 H 0.59273 0.15401 0.84555 0.0
H743 H 0.57142 0.14962 0.95647 0.0
C744 C 0.61871 0.16908 0.6391 0.0
C745 C 0.60651 0.15787 0.5767 0.0
C746 C 0.60968 0.17268 0.70241 0.0
C747 C 0.58839 0.16567 0.70364 0.0
C748 C 0.57649 0.1559 0.63899 0.0
C749 C 0.58543 0.15195 0.57632 0.0
C750 C 0.55133 0.17079 0.83596 0.0
C751 C 0.55347 0.16163 0.90248 0.0
C752 C 0.56333 0.173 0.77211 0.0
C753 C 0.5781 0.16662 0.77413 0.0
C754 C 0.58147 0.1591 0.84249 0.0
C755 C 0.56922 0.15656 0.90601 0.0
H756 H 0.28889 0.48251 0.37691 0.0
H757 H 0.30305 0.51166 0.15666 0.0
H758 H 0.25722 0.48449 0.3816 0.0
H759 H 0.2711 0.51331 0.16106 0.0
H760 H 0.19785 0.47942 0.16592 0.0
H761 H 0.23235 0.48345 0.16221 0.0
H762 H 0.24572 0.51262 0.38217 0.0
H763 H 0.21116 0.50892 0.3855 0.0
C764 C 0.28528 0.48943 0.32969 0.0
C765 C 0.29835 0.49681 0.2662 0.0
C766 C 0.26726 0.4907 0.3327 0.0
C767 C 0.26178 0.49905 0.27171 0.0
C768 C 0.275 0.50676 0.20871 0.0
C769 C 0.29326 0.50585 0.2063 0.0
C770 C 0.2082 0.48685 0.21325 0.0
C771 C 0.20182 0.49376 0.27622 0.0
C772 C 0.22797 0.48928 0.21081 0.0
C773 C 0.24163 0.49834 0.27187 0.0
C774 C 0.2354 0.50554 0.33448 0.0
C775 C 0.21571 0.50348 0.33627 0.0
H776 H 0.81658 0.26346 0.41243 0.0
H777 H 0.78446 0.29354 0.32283 0.0
H778 H 0.78373 0.23196 0.43233 0.0
H779 H 0.75139 0.26169 0.34199 0.0
H780 H 0.69645 0.20741 0.46939 0.0
H781 H 0.72891 0.23969 0.44764 0.0
H782 H 0.75603 0.205 0.35607 0.0
H783 H 0.7239 0.17291 0.37857 0.0
C784 C 0.8025 0.26333 0.39656 0.0
C785 C 0.80314 0.281 0.36585 0.0
C786 C 0.78366 0.24521 0.40768 0.0
C787 C 0.76496 0.24431 0.38853 0.0
C788 C 0.76554 0.26198 0.35789 0.0
C789 C 0.78447 0.28015 0.3464 0.0
C790 C 0.70938 0.20671 0.44481 0.0
C791 C 0.70764 0.18759 0.42612 0.0
C792 C 0.72789 0.22519 0.43184 0.0
C793 C 0.74504 0.22488 0.40032 0.0
C794 C 0.7432 0.20575 0.38137 0.0
C795 C 0.72474 0.18735 0.39405 0.0
H796 H 0.54286 0.81821 0.63276 0.0
H797 H 0.48254 0.78392 0.52868 0.0
H798 H 0.54363 0.78629 0.65023 0.0
H799 H 0.48346 0.75185 0.54559 0.0
H800 H 0.48467 0.69728 0.66665 0.0
H801 H 0.48299 0.72892 0.64982 0.0
H802 H 0.54618 0.76062 0.5706 0.0
H803 H 0.54797 0.72922 0.58806 0.0
C804 C 0.52978 0.80386 0.61334 0.0
C805 C 0.51266 0.8036 0.57912 0.0
C806 C 0.53028 0.78557 0.62308 0.0
C807 C 0.51364 0.76657 0.59911 0.0
C808 C 0.49643 0.76625 0.56522 0.0
C809 C 0.49598 0.78461 0.55507 0.0
C810 C 0.49822 0.71104 0.64591 0.0
C811 C 0.51648 0.71077 0.62894 0.0
C812 C 0.49719 0.72909 0.63575 0.0
C813 C 0.51446 0.74725 0.60894 0.0
C814 C 0.5327 0.74695 0.59219 0.0
C815 C 0.53369 0.72892 0.60194 0.0
H816 H 0.78022 0.48332 0.85416 0.0
H817 H 0.81289 0.54726 0.78289 0.0
H818 H 0.74724 0.48181 0.82857 0.0
H819 H 0.78023 0.54562 0.7562 0.0
H820 H 0.71906 0.54282 0.79208 0.0
H821 H 0.75074 0.54288 0.82354 0.0
H822 H 0.72676 0.48284 0.71922 0.0
H823 H 0.69462 0.48255 0.68878 0.0
C824 C 0.78037 0.49705 0.8335 0.0
C825 C 0.79916 0.51543 0.82083 0.0
C826 C 0.76151 0.49613 0.81819 0.0
C827 C 0.76114 0.5136 0.79039 0.0
C828 C 0.77996 0.53197 0.77854 0.0
C829 C 0.79871 0.53288 0.7936 0.0
C830 C 0.72049 0.52961 0.7756 0.0
C831 C 0.70435 0.51273 0.73746 0.0
C832 C 0.7387 0.52969 0.79351 0.0
C833 C 0.74131 0.51291 0.7736 0.0
C834 C 0.72513 0.49591 0.73594 0.0
C835 C 0.70681 0.49583 0.71794 0.0
H836 H 0.29914 0.78781 0.95581 0.0
H837 H 0.26173 0.81444 0.02072 0.0
H838 H 0.26862 0.75773 0.90397 0.0
H839 H 0.23102 0.78399 0.97329 0.0
H840 H 0.18389 0.74052 0.80948 0.0
H841 H 0.21566 0.76952 0.85799 0.0
H842 H 0.2369 0.72751 0.92506 0.0
H843 H 0.2055 0.69869 0.87221 0.0
C844 C 0.28426 0.78693 0.96082 0.0
C845 C 0.28274 0.80343 0.99195 0.0
C846 C 0.26673 0.76969 0.93106 0.0
C847 C 0.2473 0.7685 0.93303 0.0
C848 C 0.24577 0.7846 0.96827 0.0
C849 C 0.26331 0.80196 0.99648 0.0
C850 C 0.19553 0.73758 0.83356 0.0
C851 C 0.19227 0.71741 0.83705 0.0
C852 C 0.21365 0.75415 0.86238 0.0
C853 C 0.22876 0.7509 0.89716 0.0
C854 C 0.22574 0.73071 0.89833 0.0
C855 C 0.20774 0.71415 0.86801 0.0
H856 H 0.51218 0.2971 0.14491 0.0
H857 H 0.44931 0.26693 0.0619 0.0
H858 H 0.51345 0.2654 0.12187 0.0
H859 H 0.45072 0.23562 0.03803 0.0
H860 H 0.45182 0.1767 0.09078 0.0
H861 H 0.45202 0.20888 0.11318 0.0
H862 H 0.51308 0.24309 0.0152 0.0
H863 H 0.51304 0.21065 0.99356 0.0
C864 C 0.49866 0.28374 0.12185 0.0
C865 C 0.48061 0.28449 0.10569 0.0
C866 C 0.49945 0.26566 0.1081 0.0
C867 C 0.48217 0.248 0.07835 0.0
C868 C 0.4642 0.24886 0.06198 0.0
C869 C 0.46343 0.26686 0.07547 0.0
C870 C 0.46531 0.19104 0.07378 0.0
C871 C 0.48239 0.1911 0.04011 0.0
C872 C 0.46537 0.2095 0.08637 0.0
C873 C 0.48252 0.22853 0.06568 0.0
C874 C 0.4997 0.22867 0.03229 0.0
C875 C 0.49961 0.21011 0.01938 0.0
H876 H 0.41437 0.46892 0.07225 0.0
H877 H 0.42289 0.47036 0.31459 0.0
H878 H 0.43305 0.44997 0.05747 0.0
H879 H 0.44185 0.45159 0.2996 0.0
H880 H 0.49096 0.43367 0.21825 0.0
H881 H 0.4761 0.45622 0.23111 0.0
H882 H 0.42227 0.41237 0.10592 0.0
H883 H 0.43629 0.38929 0.09645 0.0
C884 C 0.42061 0.46553 0.12214 0.0
C885 C 0.41722 0.47107 0.19456 0.0
C886 C 0.43116 0.45462 0.11371 0.0
C887 C 0.43882 0.44934 0.17743 0.0
C888 C 0.43619 0.45561 0.24962 0.0
C889 C 0.42529 0.46622 0.2582 0.0
C890 C 0.47587 0.42869 0.19404 0.0
C891 C 0.46494 0.4096 0.15591 0.0
C892 C 0.46746 0.44169 0.20111 0.0
C893 C 0.44816 0.43605 0.16895 0.0
C894 C 0.43735 0.4172 0.13011 0.0
C895 C 0.44552 0.40405 0.12429 0.0
H896 H 0.94552 0.39964 0.20409 0.0
H897 H 0.94734 0.41351 0.44237 0.0
H898 H 0.98336 0.42 0.19881 0.0
H899 H 0.98526 0.43437 0.43648 0.0
H900 H 0.05234 0.48635 0.34389 0.0
H901 H 0.01457 0.46918 0.34812 0.0
H902 H 0.01051 0.4116 0.2834 0.0
H903 H 0.04798 0.42803 0.28402 0.0
C904 C 0.95403 0.40742 0.25483 0.0
C905 C 0.94363 0.40509 0.32362 0.0
C906 C 0.97559 0.41895 0.25186 0.0
C907 C 0.98704 0.42869 0.31722 0.0
C908 C 0.97665 0.42707 0.38536 0.0
C909 C 0.95508 0.41514 0.38875 0.0
C910 C 0.04348 0.46996 0.33157 0.0
C911 C 0.05342 0.4587 0.31309 0.0
C912 C 0.02188 0.46024 0.33352 0.0
C913 C 0.00982 0.4392 0.31541 0.0
C914 C 0.01958 0.42794 0.29649 0.0
C915 C 0.0411 0.43748 0.29622 0.0
H916 H 0.58972 0.04877 0.60828 0.0
H917 H 0.56409 0.04687 0.38747 0.0
H918 H 0.56807 0.01147 0.61924 0.0
H919 H 0.54139 0.00953 0.39953 0.0
H920 H 0.5264 0.94189 0.40264 0.0
H921 H 0.54309 0.97938 0.39402 0.0
H922 H 0.53569 0.98271 0.63597 0.0
H923 H 0.5201 0.9452 0.64431 0.0
C924 C 0.579 0.04034 0.5629 0.0
C925 C 0.57856 0.05061 0.497 0.0
C926 C 0.56646 0.01893 0.5692 0.0
C927 C 0.55291 0.0073 0.51019 0.0
C928 C 0.55192 0.01782 0.44548 0.0
C929 C 0.56478 0.03922 0.43864 0.0
C930 C 0.52813 0.9507 0.45364 0.0
C931 C 0.52209 0.94078 0.52413 0.0
C932 C 0.53761 0.97221 0.44884 0.0
C933 C 0.54093 0.98426 0.51439 0.0
C934 C 0.53389 0.97408 0.58449 0.0
C935 C 0.5248 0.95259 0.58939 0.0
H936 H 0.56555 0.51397 0.788 0.0
H937 H 0.58502 0.53346 0.55789 0.0
H938 H 0.54405 0.53008 0.78425 0.0
H939 H 0.56432 0.55032 0.55462 0.0
H940 H 0.51785 0.57141 0.55132 0.0
H941 H 0.5317 0.54791 0.55311 0.0
H942 H 0.54942 0.56385 0.78759 0.0
H943 H 0.53485 0.5866 0.78607 0.0
C944 C 0.56508 0.52161 0.73647 0.0
C945 C 0.57694 0.52252 0.67331 0.0
C946 C 0.5529 0.53096 0.73437 0.0
C947 C 0.55258 0.54174 0.66943 0.0
C948 C 0.56388 0.54193 0.60526 0.0
C949 C 0.57582 0.53231 0.60706 0.0
C950 C 0.52449 0.56962 0.60336 0.0
C951 C 0.52531 0.5808 0.66851 0.0
C952 C 0.53253 0.55626 0.60439 0.0
C953 C 0.54184 0.55404 0.67034 0.0
C954 C 0.54206 0.56482 0.73611 0.0
C955 C 0.53377 0.57795 0.7353 0.0
H956 H 0.05076 0.56946 0.8481 0.0
H957 H 0.04351 0.62051 0.77328 0.0
H958 H 0.01297 0.54685 0.84804 0.0
H959 H 0.00594 0.59793 0.77177 0.0
H960 H 0.94466 0.52934 0.93316 0.0
H961 H 0.98236 0.54769 0.92687 0.0
H962 H 0.97993 0.56413 0.6944 0.0
H963 H 0.94224 0.54497 0.69876 0.0
C964 C 0.04105 0.57574 0.83132 0.0
C965 C 0.0499 0.59667 0.81108 0.0
C966 C 0.01955 0.56289 0.83147 0.0
C967 C 0.00667 0.5707 0.80959 0.0
C968 C 0.01558 0.59154 0.78828 0.0
C969 C 0.037 0.60445 0.78965 0.0
C970 C 0.95206 0.53632 0.87993 0.0
C971 C 0.94031 0.53579 0.81663 0.0
C972 C 0.97366 0.54691 0.87661 0.0
C973 C 0.98393 0.55742 0.8104 0.0
C974 C 0.9723 0.55632 0.74638 0.0
C975 C 0.95073 0.54546 0.74919 0.0
H976 H 0.49031 0.05047 0.03896 0.0
H977 H 0.43454 0.04633 0.94968 0.0
H978 H 0.47378 0.01253 0.03566 0.0
H979 H 0.41821 0.00869 0.94541 0.0
H980 H 0.41998 0.94503 0.11362 0.0
H981 H 0.44157 0.98261 0.10749 0.0
H982 H 0.42398 0.98156 0.87398 0.0
H983 H 0.403 0.94396 0.87868 0.0
C984 C 0.47461 0.04142 0.01809 0.0
C985 C 0.4636 0.05119 0.99499 0.0
C986 C 0.46517 0.01982 0.01646 0.0
C987 C 0.44478 0.00778 0.99003 0.0
C988 C 0.43401 0.01764 0.96535 0.0
C989 C 0.44327 0.03912 0.96831 0.0
C990 C 0.42113 0.95269 0.06029 0.0
C991 C 0.40951 0.94143 0.99687 0.0
C992 C 0.43346 0.97423 0.05696 0.0
C993 C 0.43423 0.98492 0.9905 0.0
C994 C 0.4234 0.97366 0.9262 0.0
C995 C 0.41131 0.95215 0.92915 0.0
loop_
_geom_bond_atom_site_label_1
_geom_bond_atom_site_label_2
_geom_bond_distance
_geom_bond_site_symmetry_2
_ccdc_geom_bond_type
C0 C1 1.351 . S
C0 N3 1.368 . S
C0 H5 0.931 . S
C1 C0 1.351 . S
C1 N2 1.373 . S
C1 H29 0.930 . S
N2 C1 1.373 . S
N2 C4 1.340 . S
N3 C0 1.368 . S
N3 C4 1.321 . S
N3 Co6 2.135 1_556 S
C4 N2 1.340 . S
C4 N3 1.321 . S
C4 H28 0.930 . S
H5 C0 0.931 . S
Co6 N3 2.135 1_554 S
Co6 N9 2.121 . S
Co6 O14 2.055 . S
Co6 O17 2.039 . S
Co6 N20 2.140 . S
C7 O8 1.227 . S
C7 O17 1.265 . S
O8 C7 1.227 . S
N9 Co6 2.121 . S
N9 C11 1.375 . S
N9 C12 1.313 . S
C10 C11 1.338 . S
C10 N13 1.377 . S
C10 H30 0.930 . S
C11 N9 1.375 . S
C11 C10 1.338 . S
C11 H15 0.931 . S
C12 N9 1.313 . S
C12 N13 1.344 . S
C12 H16 0.930 . S
N13 C10 1.377 . S
N13 C12 1.344 . S
O14 Co6 2.055 . S
O14 C18 1.253 . S
H15 C11 0.931 . S
H16 C12 0.930 . S
O17 Co6 2.039 . S
O17 C7 1.265 . S
C18 O14 1.253 . S
C18 O19 1.227 . S
O19 C18 1.227 . S
N20 Co6 2.140 . S
N20 C23 1.346 . S
N20 C24 1.345 . S
C21 C22 1.387 . S
C21 C25 1.391 . S
C22 C21 1.387 . S
C22 C23 1.369 . S
C22 H31 0.929 . S
C23 N20 1.346 . S
C23 C22 1.369 . S
C23 H26 0.928 1_554 S
C24 N20 1.345 . S
C24 C25 1.371 . S
C24 H27 0.931 . S
C25 C21 1.391 . S
C25 C24 1.371 . S
C25 H32 0.930 . S
H26 C23 0.928 1_556 S
H27 C24 0.931 . S
H28 C4 0.930 . S
H29 C1 0.930 . S
H30 C10 0.930 . S
H31 C22 0.929 . S
H32 C25 0.930 . S
C33 C34 1.351 . S
C33 N36 1.368 . S
C33 H38 0.931 . S
C34 C33 1.351 . S
C34 N35 1.373 . S
C34 H62 0.930 . S
N35 C34 1.373 . S
N35 C37 1.340 . S
N36 C33 1.368 . S
N36 C37 1.321 . S
N36 Co39 2.135 . S
C37 N35 1.340 . S
C37 N36 1.321 . S
C37 H61 0.930 . S
H38 C33 0.931 . S
Co39 N36 2.135 . S
Co39 N42 2.121 . S
Co39 O47 2.055 . S
Co39 O50 2.039 . S
Co39 N53 2.140 . S
C40 O41 1.227 . S
C40 O50 1.265 . S
O41 C40 1.227 . S
N42 Co39 2.121 . S
N42 C44 1.375 . S
N42 C45 1.313 . S
C43 C44 1.338 . S
C43 N46 1.377 . S
C43 H63 0.930 . S
C44 N42 1.375 . S
C44 C43 1.338 . S
C44 H48 0.931 . S
C45 N42 1.313 . S
C45 N46 1.344 . S
C45 H49 0.930 . S
N46 C43 1.377 . S
N46 C45 1.344 . S
O47 Co39 2.055 . S
O47 C51 1.253 . S
H48 C44 0.931 . S
H49 C45 0.930 . S
O50 Co39 2.039 . S
O50 C40 1.265 . S
C51 O47 1.253 . S
C51 O52 1.227 . S
O52 C51 1.227 . S
N53 Co39 2.140 . S
N53 C56 1.346 . S
N53 C57 1.345 . S
C54 C55 1.387 . S
C54 C58 1.391 . S
C55 C54 1.387 . S
C55 C56 1.369 . S
C55 H64 0.929 . S
C56 N53 1.346 . S
C56 C55 1.369 . S
C56 H59 0.928 . S
C57 N53 1.345 . S
C57 C58 1.371 . S
C57 H60 0.931 . S
C58 C54 1.391 . S
C58 C57 1.371 . S
C58 H65 0.930 . S
H59 C56 0.928 . S
H60 C57 0.931 . S
H61 C37 0.930 . S
H62 C34 0.930 . S
H63 C43 0.930 . S
H64 C55 0.929 . S
H65 C58 0.930 . S
C66 C67 1.351 . S
C66 N69 1.368 . S
C66 H71 0.931 . S
C67 C66 1.351 . S
C67 N68 1.373 . S
C67 H95 0.930 . S
N68 C67 1.373 . S
N68 C70 1.340 . S
N69 C66 1.368 . S
N69 C70 1.321 . S
N69 Co72 2.135 . S
C70 N68 1.340 . S
C70 N69 1.321 . S
C70 H94 0.930 . S
H71 C66 0.931 . S
Co72 N69 2.135 . S
Co72 N75 2.121 . S
Co72 O80 2.055 . S
Co72 O83 2.039 . S
Co72 N86 2.140 . S
C73 O74 1.227 . S
C73 O83 1.265 . S
O74 C73 1.227 . S
N75 Co72 2.121 . S
N75 C77 1.375 . S
N75 C78 1.313 . S
C76 C77 1.338 . S
C76 N79 1.377 . S
C76 H96 0.930 . S
C77 N75 1.375 . S
C77 C76 1.338 . S
C77 H81 0.931 . S
C78 N75 1.313 . S
C78 N79 1.344 . S
C78 H82 0.930 . S
N79 C76 1.377 . S
N79 C78 1.344 . S
O80 Co72 2.055 . S
O80 C84 1.253 . S
H81 C77 0.931 . S
H82 C78 0.930 . S
O83 Co72 2.039 . S
O83 C73 1.265 . S
C84 O80 1.253 . S
C84 O85 1.227 . S
O85 C84 1.227 . S
N86 Co72 2.140 . S
N86 C89 1.346 . S
N86 C90 1.345 . S
C87 C88 1.387 . S
C87 C91 1.391 . S
C88 C87 1.387 . S
C88 C89 1.369 . S
C88 H97 0.929 . S
C89 N86 1.346 . S
C89 C88 1.369 . S
C89 H92 0.928 . S
C90 N86 1.345 . S
C90 C91 1.371 . S
C90 H93 0.931 . S
C91 C87 1.391 . S
C91 C90 1.371 . S
C91 H98 0.930 . S
H92 C89 0.928 . S
H93 C90 0.931 . S
H94 C70 0.930 . S
H95 C67 0.930 . S
H96 C76 0.930 . S
H97 C88 0.929 . S
H98 C91 0.930 . S
C99 C100 1.351 . S
C99 N102 1.368 . S
C99 H104 0.931 . S
C100 C99 1.351 . S
C100 N101 1.373 . S
C100 H128 0.930 . S
N101 C100 1.373 . S
N101 C103 1.340 . S
N102 C99 1.368 . S
N102 C103 1.321 . S
N102 Co105 2.135 . S
C103 N101 1.340 . S
C103 N102 1.321 . S
C103 H127 0.930 . S
H104 C99 0.931 . S
Co105 N102 2.135 . S
Co105 N108 2.121 . S
Co105 O113 2.055 . S
Co105 O116 2.039 . S
Co105 N119 2.140 . S
C106 O107 1.227 . S
C106 O116 1.265 . S
O107 C106 1.227 . S
N108 Co105 2.121 . S
N108 C110 1.375 . S
N108 C111 1.313 . S
C109 C110 1.338 . S
C109 N112 1.377 . S
C109 H129 0.930 . S
C110 N108 1.375 . S
C110 C109 1.338 . S
C110 H114 0.931 . S
C111 N108 1.313 . S
C111 N112 1.344 . S
C111 H115 0.930 . S
N112 C109 1.377 . S
N112 C111 1.344 . S
O113 Co105 2.055 . S
O113 C117 1.253 . S
H114 C110 0.931 . S
H115 C111 0.930 . S
O116 Co105 2.039 . S
O116 C106 1.265 . S
C117 O113 1.253 . S
C117 O118 1.227 . S
O118 C117 1.227 . S
N119 Co105 2.140 . S
N119 C122 1.346 . S
N119 C123 1.345 . S
C120 C121 1.387 . S
C120 C124 1.391 . S
C121 C120 1.387 . S
C121 C122 1.369 . S
C121 H130 0.929 . S
C122 N119 1.346 . S
C122 C121 1.369 . S
C122 H125 0.928 . S
C123 N119 1.345 . S
C123 C124 1.371 . S
C123 H126 0.931 . S
C124 C120 1.391 . S
C124 C123 1.371 . S
C124 H131 0.930 . S
H125 C122 0.928 . S
H126 C123 0.931 . S
H127 C103 0.930 . S
H128 C100 0.930 . S
H129 C109 0.930 . S
H130 C121 0.929 . S
H131 C124 0.930 . S
C132 C133 1.351 . S
C132 N135 1.368 . S
C132 H137 0.931 . S
C133 C132 1.351 . S
C133 N134 1.373 . S
C133 H161 0.930 . S
N134 C133 1.373 . S
N134 C136 1.340 . S
N135 C132 1.368 . S
N135 C136 1.321 . S
N135 Co138 2.135 . S
C136 N134 1.340 . S
C136 N135 1.321 . S
C136 H160 0.930 . S
H137 C132 0.931 . S
Co138 N135 2.135 . S
Co138 N141 2.121 . S
Co138 O146 2.055 . S
Co138 O149 2.039 . S
Co138 N152 2.140 . S
C139 O140 1.227 . S
C139 O149 1.265 . S
O140 C139 1.227 . S
N141 Co138 2.121 . S
N141 C143 1.375 . S
N141 C144 1.313 . S
C142 C143 1.338 . S
C142 N145 1.377 . S
C142 H162 0.930 . S
C143 N141 1.375 . S
C143 C142 1.338 . S
C143 H147 0.931 . S
C144 N141 1.313 . S
C144 N145 1.344 . S
C144 H148 0.930 . S
N145 C142 1.377 . S
N145 C144 1.344 . S
O146 Co138 2.055 . S
O146 C150 1.253 . S
H147 C143 0.931 . S
H148 C144 0.930 . S
O149 Co138 2.039 . S
O149 C139 1.265 . S
C150 O146 1.253 . S
C150 O151 1.227 . S
O151 C150 1.227 . S
N152 Co138 2.140 . S
N152 C155 1.346 . S
N152 C156 1.345 . S
C153 C154 1.387 . S
C153 C157 1.391 . S
C154 C153 1.387 . S
C154 C155 1.369 . S
C154 H163 0.929 . S
C155 N152 1.346 . S
C155 C154 1.369 . S
C155 H158 0.928 . S
C156 N152 1.345 . S
C156 C157 1.371 . S
C156 H159 0.931 . S
C157 C153 1.391 . S
C157 C156 1.371 . S
C157 H164 0.930 . S
H158 C155 0.928 . S
H159 C156 0.931 . S
H160 C136 0.930 . S
H161 C133 0.930 . S
H162 C142 0.930 . S
H163 C154 0.929 . S
H164 C157 0.930 . S
C165 C166 1.351 . S
C165 N168 1.368 . S
C165 H170 0.931 . S
C166 C165 1.351 . S
C166 N167 1.373 . S
C166 H194 0.930 . S
N167 C166 1.373 . S
N167 C169 1.340 . S
N168 C165 1.368 . S
N168 C169 1.321 . S
N168 Co171 2.135 . S
C169 N167 1.340 . S
C169 N168 1.321 . S
C169 H193 0.930 . S
H170 C165 0.931 . S
Co171 N168 2.135 . S
Co171 N174 2.121 1_556 S
Co171 O179 2.055 . S
Co171 O182 2.039 . S
Co171 N185 2.140 . S
C172 O173 1.227 . S
C172 O182 1.265 . S
O173 C172 1.227 . S
N174 Co171 2.121 1_554 S
N174 C176 1.375 . S
N174 C177 1.313 . S
C175 C176 1.338 . S
C175 N178 1.377 . S
C175 H195 0.930 . S
C176 N174 1.375 . S
C176 C175 1.338 . S
C176 H180 0.931 . S
C177 N174 1.313 . S
C177 N178 1.344 . S
C177 H181 0.930 . S
N178 C175 1.377 . S
N178 C177 1.344 . S
O179 Co171 2.055 . S
O179 C183 1.253 . S
H180 C176 0.931 . S
H181 C177 0.930 . S
O182 Co171 2.039 . S
O182 C172 1.265 . S
C183 O179 1.253 . S
C183 O184 1.227 . S
O184 C183 1.227 . S
N185 Co171 2.140 . S
N185 C188 1.346 . S
N185 C189 1.345 . S
C186 C187 1.387 . S
C186 C190 1.391 . S
C187 C186 1.387 . S
C187 C188 1.369 . S
C187 H196 0.929 . S
C188 N185 1.346 . S
C188 C187 1.369 . S
C188 H191 0.928 . S
C189 N185 1.345 . S
C189 C190 1.371 . S
C189 H192 0.931 1_556 S
C190 C186 1.391 . S
C190 C189 1.371 . S
C190 H197 0.930 1_556 S
H191 C188 0.928 . S
H192 C189 0.931 1_554 S
H193 C169 0.930 . S
H194 C166 0.930 . S
H195 C175 0.930 . S
H196 C187 0.929 . S
H197 C190 0.930 1_554 S
C198 C199 1.351 . S
C198 N201 1.368 . S
C198 H203 0.931 . S
C199 C198 1.351 . S
C199 N200 1.373 . S
C199 H227 0.930 . S
N200 C199 1.373 . S
N200 C202 1.340 . S
N201 C198 1.368 . S
N201 C202 1.321 . S
N201 Co204 2.135 . S
C202 N200 1.340 . S
C202 N201 1.321 . S
C202 H226 0.930 . S
H203 C198 0.931 . S
Co204 N201 2.135 . S
Co204 N207 2.121 . S
Co204 O212 2.055 . S
Co204 O215 2.039 . S
Co204 N218 2.140 . S
C205 O206 1.227 . S
C205 O215 1.265 . S
O206 C205 1.227 . S
N207 Co204 2.121 . S
N207 C209 1.375 . S
N207 C210 1.313 . S
C208 C209 1.338 . S
C208 N211 1.377 . S
C208 H228 0.930 . S
C209 N207 1.375 . S
C209 C208 1.338 . S
C209 H213 0.931 . S
C210 N207 1.313 . S
C210 N211 1.344 . S
C210 H214 0.930 . S
N211 C208 1.377 . S
N211 C210 1.344 . S
O212 Co204 2.055 . S
O212 C216 1.253 . S
H213 C209 0.931 . S
H214 C210 0.930 . S
O215 Co204 2.039 . S
O215 C205 1.265 . S
C216 O212 1.253 . S
C216 O217 1.227 . S
O217 C216 1.227 . S
N218 Co204 2.140 . S
N218 C221 1.346 . S
N218 C222 1.345 . S
C219 C220 1.387 . S
C219 C223 1.391 . S
C220 C219 1.387 . S
C220 C221 1.369 . S
C220 H229 0.929 . S
C221 N218 1.346 . S
C221 C220 1.369 . S
C221 H224 0.928 . S
C222 N218 1.345 . S
C222 C223 1.371 . S
C222 H225 0.931 . S
C223 C219 1.391 . S
C223 C222 1.371 . S
C223 H230 0.930 . S
H224 C221 0.928 . S
H225 C222 0.931 . S
H226 C202 0.930 . S
H227 C199 0.930 . S
H228 C208 0.930 . S
H229 C220 0.929 . S
H230 C223 0.930 . S
C231 C232 1.351 . S
C231 N234 1.368 . S
C231 H236 0.931 . S
C232 C231 1.351 . S
C232 N233 1.373 . S
C232 H260 0.930 . S
N233 C232 1.373 . S
N233 C235 1.340 . S
N234 C231 1.368 . S
N234 C235 1.321 . S
N234 Co237 2.135 1_554 S
C235 N233 1.340 . S
C235 N234 1.321 . S
C235 H259 0.930 . S
H236 C231 0.931 . S
Co237 N234 2.135 1_556 S
Co237 N240 2.121 . S
Co237 O245 2.055 . S
Co237 O248 2.039 . S
Co237 N251 2.140 . S
C238 O239 1.227 . S
C238 O248 1.265 . S
O239 C238 1.227 . S
N240 Co237 2.121 . S
N240 C242 1.375 . S
N240 C243 1.313 . S
C241 C242 1.338 . S
C241 N244 1.377 . S
C241 H261 0.930 . S
C242 N240 1.375 . S
C242 C241 1.338 . S
C242 H246 0.931 . S
C243 N240 1.313 . S
C243 N244 1.344 . S
C243 H247 0.930 . S
N244 C241 1.377 . S
N244 C243 1.344 . S
O245 Co237 2.055 . S
O245 C249 1.253 . S
H246 C242 0.931 . S
H247 C243 0.930 . S
O248 Co237 2.039 . S
O248 C238 1.265 . S
C249 O245 1.253 . S
C249 O250 1.227 . S
O250 C249 1.227 . S
N251 Co237 2.140 . S
N251 C254 1.346 . S
N251 C255 1.345 . S
C252 C253 1.387 . S
C252 C256 1.391 . S
C253 C252 1.387 . S
C253 C254 1.369 . S
C253 H262 0.929 . S
C254 N251 1.346 . S
C254 C253 1.369 . S
C254 H257 0.928 1_556 S
C255 N251 1.345 . S
C255 C256 1.371 . S
C255 H258 0.931 . S
C256 C252 1.391 . S
C256 C255 1.371 . S
C256 H263 0.930 . S
H257 C254 0.928 1_554 S
H258 C255 0.931 . S
H259 C235 0.930 . S
H260 C232 0.930 . S
H261 C241 0.930 . S
H262 C253 0.929 . S
H263 C256 0.930 . S
C264 C265 1.351 . S
C264 N267 1.368 . S
C264 H269 0.931 . S
C265 C264 1.351 . S
C265 N266 1.373 . S
C265 H293 0.930 . S
N266 C265 1.373 . S
N266 C268 1.340 . S
N267 C264 1.368 . S
N267 C268 1.321 . S
N267 Co270 2.135 . S
C268 N266 1.340 . S
C268 N267 1.321 . S
C268 H292 0.930 . S
H269 C264 0.931 . S
Co270 N267 2.135 . S
Co270 N273 2.121 1_554 S
Co270 O278 2.055 . S
Co270 O281 2.039 . S
Co270 N284 2.140 . S
C271 O272 1.227 . S
C271 O281 1.265 . S
O272 C271 1.227 . S
N273 Co270 2.121 1_556 S
N273 C275 1.375 . S
N273 C276 1.313 . S
C274 C275 1.338 . S
C274 N277 1.377 . S
C274 H294 0.930 . S
C275 N273 1.375 . S
C275 C274 1.338 . S
C275 H279 0.931 . S
C276 N273 1.313 . S
C276 N277 1.344 . S
C276 H280 0.930 . S
N277 C274 1.377 . S
N277 C276 1.344 . S
O278 Co270 2.055 . S
O278 C282 1.253 . S
H279 C275 0.931 . S
H280 C276 0.930 . S
O281 Co270 2.039 . S
O281 C271 1.265 . S
C282 O278 1.253 . S
C282 O283 1.227 . S
O283 C282 1.227 . S
N284 Co270 2.140 . S
N284 C287 1.346 . S
N284 C288 1.345 . S
C285 C286 1.387 . S
C285 C289 1.391 . S
C286 C285 1.387 . S
C286 C287 1.369 . S
C286 H295 0.929 . S
C287 N284 1.346 . S
C287 C286 1.369 . S
C287 H290 0.928 . S
C288 N284 1.345 . S
C288 C289 1.371 . S
C288 H291 0.931 1_554 S
C289 C285 1.391 . S
C289 C288 1.371 . S
C289 H296 0.930 1_554 S
H290 C287 0.928 . S
H291 C288 0.931 1_556 S
H292 C268 0.930 . S
H293 C265 0.930 . S
H294 C274 0.930 . S
H295 C286 0.929 . S
H296 C289 0.930 1_556 S
C297 C298 1.351 . S
C297 N300 1.368 . S
C297 H302 0.931 . S
C298 C297 1.351 . S
C298 N299 1.373 . S
C298 H326 0.930 . S
N299 C298 1.373 . S
N299 C301 1.340 . S
N300 C297 1.368 . S
N300 C301 1.321 . S
N300 Co303 2.135 . S
C301 N299 1.340 . S
C301 N300 1.321 . S
C301 H325 0.930 . S
H302 C297 0.931 . S
Co303 N300 2.135 . S
Co303 N306 2.121 . S
Co303 O311 2.055 . S
Co303 O314 2.039 . S
Co303 N317 2.140 . S
C304 O305 1.227 . S
C304 O314 1.265 . S
O305 C304 1.227 . S
N306 Co303 2.121 . S
N306 C308 1.375 . S
N306 C309 1.313 . S
C307 C308 1.338 . S
C307 N310 1.377 . S
C307 H327 0.930 . S
C308 N306 1.375 . S
C308 C307 1.338 . S
C308 H312 0.931 . S
C309 N306 1.313 . S
C309 N310 1.344 . S
C309 H313 0.930 . S
N310 C307 1.377 . S
N310 C309 1.344 . S
O311 Co303 2.055 . S
O311 C315 1.253 . S
H312 C308 0.931 . S
H313 C309 0.930 . S
O314 Co303 2.039 . S
O314 C304 1.265 . S
C315 O311 1.253 . S
C315 O316 1.227 . S
O316 C315 1.227 . S
N317 Co303 2.140 . S
N317 C320 1.346 . S
N317 C321 1.345 . S
C318 C319 1.387 . S
C318 C322 1.391 . S
C319 C318 1.387 . S
C319 C320 1.369 . S
C319 H328 0.929 . S
C320 N317 1.346 . S
C320 C319 1.369 . S
C320 H323 0.928 . S
C321 N317 1.345 . S
C321 C322 1.371 . S
C321 H324 0.931 . S
C322 C318 1.391 . S
C322 C321 1.371 . S
C322 H329 0.930 . S
H323 C320 0.928 . S
H324 C321 0.931 . S
H325 C301 0.930 . S
H326 C298 0.930 . S
H327 C307 0.930 . S
H328 C319 0.929 . S
H329 C322 0.930 . S
C330 C331 1.351 . S
C330 N333 1.368 . S
C330 H335 0.931 . S
C331 C330 1.351 . S
C331 N332 1.373 . S
C331 H359 0.930 . S
N332 C331 1.373 . S
N332 C334 1.340 . S
N333 C330 1.368 . S
N333 C334 1.321 . S
N333 Co336 2.135 . S
C334 N332 1.340 . S
C334 N333 1.321 . S
C334 H358 0.930 . S
H335 C330 0.931 . S
Co336 N333 2.135 . S
Co336 N339 2.121 . S
Co336 O344 2.055 . S
Co336 O347 2.039 . S
Co336 N350 2.140 . S
C337 O338 1.227 . S
C337 O347 1.265 . S
O338 C337 1.227 . S
N339 Co336 2.121 . S
N339 C341 1.375 . S
N339 C342 1.313 . S
C340 C341 1.338 . S
C340 N343 1.377 . S
C340 H360 0.930 . S
C341 N339 1.375 . S
C341 C340 1.338 . S
C341 H345 0.931 . S
C342 N339 1.313 . S
C342 N343 1.344 . S
C342 H346 0.930 . S
N343 C340 1.377 . S
N343 C342 1.344 . S
O344 Co336 2.055 . S
O344 C348 1.253 . S
H345 C341 0.931 . S
H346 C342 0.930 . S
O347 Co336 2.039 . S
O347 C337 1.265 . S
C348 O344 1.253 . S
C348 O349 1.227 . S
O349 C348 1.227 . S
N350 Co336 2.140 . S
N350 C353 1.346 . S
N350 C354 1.345 . S
C351 C352 1.387 . S
C351 C355 1.391 . S
C352 C351 1.387 . S
C352 C353 1.369 . S
C352 H361 0.929 . S
C353 N350 1.346 . S
C353 C352 1.369 . S
C353 H356 0.928 . S
C354 N350 1.345 . S
C354 C355 1.371 . S
C354 H357 0.931 . S
C355 C351 1.391 . S
C355 C354 1.371 . S
C355 H362 0.930 . S
H356 C353 0.928 . S
H357 C354 0.931 . S
H358 C334 0.930 . S
H359 C331 0.930 . S
H360 C340 0.930 . S
H361 C352 0.929 . S
H362 C355 0.930 . S
C363 C364 1.351 . S
C363 N366 1.368 . S
C363 H368 0.931 . S
C364 C363 1.351 . S
C364 N365 1.373 . S
C364 H392 0.930 . S
N365 C364 1.373 . S
N365 C367 1.340 . S
N366 C363 1.368 . S
N366 C367 1.321 . S
N366 Co369 2.135 . S
C367 N365 1.340 . S
C367 N366 1.321 . S
C367 H391 0.930 . S
H368 C363 0.931 . S
Co369 N366 2.135 . S
Co369 N372 2.121 . S
Co369 O377 2.055 . S
Co369 O380 2.039 . S
Co369 N383 2.140 . S
C370 O371 1.227 . S
C370 O380 1.265 . S
O371 C370 1.227 . S
N372 Co369 2.121 . S
N372 C374 1.375 . S
N372 C375 1.313 . S
C373 C374 1.338 . S
C373 N376 1.377 . S
C373 H393 0.930 . S
C374 N372 1.375 . S
C374 C373 1.338 . S
C374 H378 0.931 . S
C375 N372 1.313 . S
C375 N376 1.344 . S
C375 H379 0.930 . S
N376 C373 1.377 . S
N376 C375 1.344 . S
O377 Co369 2.055 . S
O377 C381 1.253 . S
H378 C374 0.931 . S
H379 C375 0.930 . S
O380 Co369 2.039 . S
O380 C370 1.265 . S
C381 O377 1.253 . S
C381 O382 1.227 . S
O382 C381 1.227 . S
N383 Co369 2.140 . S
N383 C386 1.346 . S
N383 C387 1.345 . S
C384 C385 1.387 . S
C384 C388 1.391 . S
C385 C384 1.387 . S
C385 C386 1.369 . S
C385 H394 0.929 . S
C386 N383 1.346 . S
C386 C385 1.369 . S
C386 H389 0.928 . S
C387 N383 1.345 . S
C387 C388 1.371 . S
C387 H390 0.931 . S
C388 C384 1.391 . S
C388 C387 1.371 . S
C388 H395 0.930 . S
H389 C386 0.928 . S
H390 C387 0.931 . S
H391 C367 0.930 . S
H392 C364 0.930 . S
H393 C373 0.930 . S
H394 C385 0.929 . S
H395 C388 0.930 . S
H396 C404 0.950 . S
H397 C409 0.950 . S
H398 C406 0.950 . S
H399 C408 0.950 . S
H400 C410 0.950 . S
H401 C412 0.950 . S
H402 C414 0.950 . S
H403 C415 0.950 . S
C404 H396 0.950 . S
C404 C405 1.386 . S
C404 C406 1.391 . S
C405 C404 1.386 . S
C405 C409 1.393 . S
C406 H398 0.950 . S
C406 C404 1.391 . S
C406 C407 1.400 . S
C407 C406 1.400 . S
C407 C408 1.398 . S
C407 C413 1.491 . S
C408 H399 0.950 . S
C408 C407 1.398 . S
C408 C409 1.391 . S
C409 H397 0.950 . S
C409 C405 1.393 . S
C409 C408 1.391 . S
C410 H400 0.950 . S
C410 C411 1.386 . S
C410 C412 1.391 . S
C411 C410 1.386 . S
C411 C415 1.393 . S
C412 H401 0.950 . S
C412 C410 1.391 . S
C412 C413 1.400 . S
C413 C407 1.491 . S
C413 C412 1.400 . S
C413 C414 1.398 . S
C414 H402 0.950 . S
C414 C413 1.398 . S
C414 C415 1.391 . S
C415 H403 0.950 . S
C415 C411 1.393 . S
C415 C414 1.391 . S
H416 C424 0.950 . S
H417 C429 0.950 . S
H418 C426 0.950 . S
H419 C428 0.950 . S
H420 C430 0.950 . S
H421 C432 0.950 . S
H422 C434 0.950 . S
H423 C435 0.950 . S
C424 H416 0.950 . S
C424 C425 1.386 . S
C424 C426 1.391 . S
C425 C424 1.386 . S
C425 C429 1.393 . S
C426 H418 0.950 . S
C426 C424 1.391 . S
C426 C427 1.400 . S
C427 C426 1.400 . S
C427 C428 1.398 . S
C427 C433 1.491 . S
C428 H419 0.950 . S
C428 C427 1.398 . S
C428 C429 1.391 . S
C429 H417 0.950 . S
C429 C425 1.393 . S
C429 C428 1.391 . S
C430 H420 0.950 . S
C430 C431 1.386 . S
C430 C432 1.391 . S
C431 C430 1.386 . S
C431 C435 1.393 . S
C432 H421 0.950 . S
C432 C430 1.391 . S
C432 C433 1.400 . S
C433 C427 1.491 . S
C433 C432 1.400 . S
C433 C434 1.398 . S
C434 H422 0.950 . S
C434 C433 1.398 . S
C434 C435 1.391 . S
C435 H423 0.950 . S
C435 C431 1.393 . S
C435 C434 1.391 . S
H436 C444 0.950 . S
H437 C449 0.950 . S
H438 C446 0.950 1_556 S
H439 C448 0.950 . S
H440 C450 0.950 . S
H441 C452 0.950 . S
H442 C454 0.950 . S
H443 C455 0.950 . S
C444 H436 0.950 . S
C444 C445 1.386 . S
C444 C446 1.391 . S
C445 C444 1.386 . S
C445 C449 1.393 . S
C446 H438 0.950 1_554 S
C446 C444 1.391 . S
C446 C447 1.400 1_554 S
C447 C446 1.400 1_556 S
C447 C448 1.398 . S
C447 C453 1.491 . S
C448 H439 0.950 . S
C448 C447 1.398 . S
C448 C449 1.391 1_556 S
C449 H437 0.950 . S
C449 C445 1.393 . S
C449 C448 1.391 1_554 S
C450 H440 0.950 . S
C450 C451 1.386 . S
C450 C452 1.391 . S
C451 C450 1.386 . S
C451 C455 1.393 . S
C452 H441 0.950 . S
C452 C450 1.391 . S
C452 C453 1.400 . S
C453 C447 1.491 . S
C453 C452 1.400 . S
C453 C454 1.398 . S
C454 H442 0.950 . S
C454 C453 1.398 . S
C454 C455 1.391 . S
C455 H443 0.950 . S
C455 C451 1.393 . S
C455 C454 1.391 . S
H456 C464 0.950 . S
H457 C469 0.950 . S
H458 C466 0.950 . S
H459 C468 0.950 . S
H460 C470 0.950 . S
H461 C472 0.950 . S
H462 C474 0.950 . S
H463 C475 0.950 . S
C464 H456 0.950 . S
C464 C465 1.386 . S
C464 C466 1.391 1_556 S
C465 C464 1.386 . S
C465 C469 1.393 . S
C466 H458 0.950 . S
C466 C464 1.391 1_554 S
C466 C467 1.400 . S
C467 C466 1.400 . S
C467 C468 1.398 . S
C467 C473 1.491 . S
C468 H459 0.950 . S
C468 C467 1.398 . S
C468 C469 1.391 1_554 S
C469 H457 0.950 . S
C469 C465 1.393 . S
C469 C468 1.391 1_556 S
C470 H460 0.950 . S
C470 C471 1.386 . S
C470 C472 1.391 . S
C471 C470 1.386 . S
C471 C475 1.393 . S
C472 H461 0.950 . S
C472 C470 1.391 . S
C472 C473 1.400 . S
C473 C467 1.491 . S
C473 C472 1.400 . S
C473 C474 1.398 . S
C474 H462 0.950 . S
C474 C473 1.398 . S
C474 C475 1.391 . S
C475 H463 0.950 . S
C475 C471 1.393 . S
C475 C474 1.391 . S
H476 C484 0.950 . S
H477 C489 0.950 . S
H478 C486 0.950 . S
H479 C488 0.950 . S
H480 C490 0.950 . S
H481 C492 0.950 . S
H482 C494 0.950 . S
H483 C495 0.950 . S
C484 H476 0.950 . S
C484 C485 1.386 . S
C484 C486 1.391 . S
C485 C484 1.386 . S
C485 C489 1.393 . S
C486 H478 0.950 . S
C486 C484 1.391 . S
C486 C487 1.400 . S
C487 C486 1.400 . S
C487 C488 1.398 . S
C487 C493 1.491 . S
C488 H479 0.950 . S
C488 C487 1.398 . S
C488 C489 1.391 . S
C489 H477 0.950 . S
C489 C485 1.393 . S
C489 C488 1.391 . S
C490 H480 0.950 . S
C490 C491 1.386 . S
C490 C492 1.391 . S
C491 C490 1.386 . S
C491 C495 1.393 . S
C492 H481 0.950 . S
C492 C490 1.391 . S
C492 C493 1.400 . S
C493 C487 1.491 . S
C493 C492 1.400 . S
C493 C494 1.398 . S
C494 H482 0.950 . S
C494 C493 1.398 . S
C494 C495 1.391 . S
C495 H483 0.950 . S
C495 C491 1.393 . S
C495 C494 1.391 . S
H496 C504 0.950 . S
H497 C509 0.950 . S
H498 C506 0.950 . S
H499 C508 0.950 . S
H500 C510 0.950 . S
H501 C512 0.950 . S
H502 C514 0.950 . S
H503 C515 0.950 . S
C504 H496 0.950 . S
C504 C505 1.386 . S
C504 C506 1.391 . S
C505 C504 1.386 . S
C505 C509 1.393 . S
C506 H498 0.950 . S
C506 C504 1.391 . S
C506 C507 1.400 . S
C507 C506 1.400 . S
C507 C508 1.398 . S
C507 C513 1.491 . S
C508 H499 0.950 . S
C508 C507 1.398 . S
C508 C509 1.391 . S
C509 H497 0.950 . S
C509 C505 1.393 . S
C509 C508 1.391 . S
C510 H500 0.950 . S
C510 C511 1.386 . S
C510 C512 1.391 . S
C511 C510 1.386 . S
C511 C515 1.393 . S
C512 H501 0.950 . S
C512 C510 1.391 . S
C512 C513 1.400 . S
C513 C507 1.491 . S
C513 C512 1.400 . S
C513 C514 1.398 . S
C514 H502 0.950 . S
C514 C513 1.398 . S
C514 C515 1.391 . S
C515 H503 0.950 . S
C515 C511 1.393 . S
C515 C514 1.391 . S
H516 C524 0.950 . S
H517 C529 0.950 . S
H518 C526 0.950 . S
H519 C528 0.950 . S
H520 C530 0.950 . S
H521 C532 0.950 . S
H522 C534 0.950 . S
H523 C535 0.950 . S
C524 H516 0.950 . S
C524 C525 1.386 . S
C524 C526 1.391 . S
C525 C524 1.386 . S
C525 C529 1.393 . S
C526 H518 0.950 . S
C526 C524 1.391 . S
C526 C527 1.400 . S
C527 C526 1.400 . S
C527 C528 1.398 . S
C527 C533 1.491 . S
C528 H519 0.950 . S
C528 C527 1.398 . S
C528 C529 1.391 . S
C529 H517 0.950 . S
C529 C525 1.393 . S
C529 C528 1.391 . S
C530 H520 0.950 . S
C530 C531 1.386 . S
C530 C532 1.391 . S
C531 C530 1.386 . S
C531 C535 1.393 . S
C532 H521 0.950 . S
C532 C530 1.391 . S
C532 C533 1.400 . S
C533 C527 1.491 . S
C533 C532 1.400 . S
C533 C534 1.398 . S
C534 H522 0.950 . S
C534 C533 1.398 . S
C534 C535 1.391 . S
C535 H523 0.950 . S
C535 C531 1.393 . S
C535 C534 1.391 . S
H536 C544 0.950 . S
H537 C549 0.950 . S
H538 C546 0.950 . S
H539 C548 0.950 . S
H540 C550 0.950 . S
H541 C552 0.950 . S
H542 C554 0.950 . S
H543 C555 0.950 . S
C544 H536 0.950 . S
C544 C545 1.386 . S
C544 C546 1.391 . S
C545 C544 1.386 . S
C545 C549 1.393 . S
C546 H538 0.950 . S
C546 C544 1.391 . S
C546 C547 1.400 . S
C547 C546 1.400 . S
C547 C548 1.398 . S
C547 C553 1.491 . S
C548 H539 0.950 . S
C548 C547 1.398 . S
C548 C549 1.391 . S
C549 H537 0.950 . S
C549 C545 1.393 . S
C549 C548 1.391 . S
C550 H540 0.950 . S
C550 C551 1.386 . S
C550 C552 1.391 . S
C551 C550 1.386 . S
C551 C555 1.393 . S
C552 H541 0.950 . S
C552 C550 1.391 . S
C552 C553 1.400 . S
C553 C547 1.491 . S
C553 C552 1.400 . S
C553 C554 1.398 . S
C554 H542 0.950 . S
C554 C553 1.398 . S
C554 C555 1.391 . S
C555 H543 0.950 . S
C555 C551 1.393 . S
C555 C554 1.391 . S
H556 C564 0.950 . S
H557 C569 0.950 . S
H558 C566 0.950 . S
H559 C568 0.950 . S
H560 C570 0.950 . S
H561 C572 0.950 . S
H562 C574 0.950 . S
H563 C575 0.950 . S
C564 H556 0.950 . S
C564 C565 1.386 . S
C564 C566 1.391 . S
C565 C564 1.386 . S
C565 C569 1.393 . S
C566 H558 0.950 . S
C566 C564 1.391 . S
C566 C567 1.400 . S
C567 C566 1.400 . S
C567 C568 1.398 . S
C567 C573 1.491 . S
C568 H559 0.950 . S
C568 C567 1.398 . S
C568 C569 1.391 . S
C569 H557 0.950 . S
C569 C565 1.393 . S
C569 C568 1.391 . S
C570 H560 0.950 . S
C570 C571 1.386 . S
C570 C572 1.391 . S
C571 C570 1.386 . S
C571 C575 1.393 . S
C572 H561 0.950 . S
C572 C570 1.391 . S
C572 C573 1.400 . S
C573 C567 1.491 . S
C573 C572 1.400 . S
C573 C574 1.398 . S
C574 H562 0.950 . S
C574 C573 1.398 . S
C574 C575 1.391 . S
C575 H563 0.950 . S
C575 C571 1.393 . S
C575 C574 1.391 . S
H576 C584 0.950 . S
H577 C589 0.950 . S
H578 C586 0.950 . S
H579 C588 0.950 . S
H580 C590 0.950 . S
H581 C592 0.950 . S
H582 C594 0.950 . S
H583 C595 0.950 . S
C584 H576 0.950 . S
C584 C585 1.386 . S
C584 C586 1.391 . S
C585 C584 1.386 . S
C585 C589 1.393 . S
C586 H578 0.950 . S
C586 C584 1.391 . S
C586 C587 1.400 . S
C587 C586 1.400 . S
C587 C588 1.398 . S
C587 C593 1.491 . S
C588 H579 0.950 . S
C588 C587 1.398 . S
C588 C589 1.391 . S
C589 H577 0.950 . S
C589 C585 1.393 . S
C589 C588 1.391 . S
C590 H580 0.950 . S
C590 C591 1.386 . S
C590 C592 1.391 . S
C591 C590 1.386 . S
C591 C595 1.393 . S
C592 H581 0.950 . S
C592 C590 1.391 . S
C592 C593 1.400 . S
C593 C587 1.491 . S
C593 C592 1.400 . S
C593 C594 1.398 . S
C594 H582 0.950 . S
C594 C593 1.398 . S
C594 C595 1.391 . S
C595 H583 0.950 . S
C595 C591 1.393 . S
C595 C594 1.391 . S
H596 C604 0.950 . S
H597 C609 0.950 . S
H598 C606 0.950 . S
H599 C608 0.950 . S
H600 C610 0.950 . S
H601 C612 0.950 . S
H602 C614 0.950 . S
H603 C615 0.950 . S
C604 H596 0.950 . S
C604 C605 1.386 . S
C604 C606 1.391 1_554 S
C605 C604 1.386 . S
C605 C609 1.393 . S
C606 H598 0.950 . S
C606 C604 1.391 1_556 S
C606 C607 1.400 . S
C607 C606 1.400 . S
C607 C608 1.398 . S
C607 C613 1.491 . S
C608 H599 0.950 . S
C608 C607 1.398 . S
C608 C609 1.391 1_556 S
C609 H597 0.950 . S
C609 C605 1.393 . S
C609 C608 1.391 1_554 S
C610 H600 0.950 . S
C610 C611 1.386 . S
C610 C612 1.391 . S
C611 C610 1.386 . S
C611 C615 1.393 . S
C612 H601 0.950 . S
C612 C610 1.391 . S
C612 C613 1.400 . S
C613 C607 1.491 . S
C613 C612 1.400 . S
C613 C614 1.398 . S
C614 H602 0.950 . S
C614 C613 1.398 . S
C614 C615 1.391 . S
C615 H603 0.950 . S
C615 C611 1.393 . S
C615 C614 1.391 . S
H616 C624 0.950 . S
H617 C629 0.950 . S
H618 C626 0.950 . S
H619 C628 0.950 . S
H620 C630 0.950 . S
H621 C632 0.950 . S
H622 C634 0.950 . S
H623 C635 0.950 . S
C624 H616 0.950 . S
C624 C625 1.386 . S
C624 C626 1.391 . S
C625 C624 1.386 . S
C625 C629 1.393 . S
C626 H618 0.950 . S
C626 C624 1.391 . S
C626 C627 1.400 1_556 S
C627 C626 1.400 1_554 S
C627 C628 1.398 . S
C627 C633 1.491 . S
C628 H619 0.950 . S
C628 C627 1.398 . S
C628 C629 1.391 1_554 S
C629 H617 0.950 . S
C629 C625 1.393 . S
C629 C628 1.391 1_556 S
C630 H620 0.950 . S
C630 C631 1.386 . S
C630 C632 1.391 . S
C631 C630 1.386 . S
C631 C635 1.393 . S
C632 H621 0.950 . S
C632 C630 1.391 . S
C632 C633 1.400 . S
C633 C627 1.491 . S
C633 C632 1.400 . S
C633 C634 1.398 . S
C634 H622 0.950 . S
C634 C633 1.398 . S
C634 C635 1.391 . S
C635 H623 0.950 . S
C635 C631 1.393 . S
C635 C634 1.391 . S
H636 C644 0.950 . S
H637 C649 0.950 . S
H638 C646 0.950 . S
H639 C648 0.950 . S
H640 C650 0.945 1_554 S
H641 C652 0.950 . S
H642 C654 0.950 . S
H643 C655 0.950 . S
C644 H636 0.950 . S
C644 C645 1.386 . S
C644 C646 1.391 . S
C645 C644 1.386 . S
C645 C649 1.393 . S
C646 H638 0.950 . S
C646 C644 1.391 . S
C646 C647 1.400 . S
C647 C646 1.400 . S
C647 C648 1.398 . S
C647 C653 1.491 . S
C648 H639 0.950 . S
C648 C647 1.398 . S
C648 C649 1.391 . S
C649 H637 0.950 . S
C649 C645 1.393 . S
C649 C648 1.391 . S
C650 H640 0.945 1_556 S
C650 C651 1.384 1_556 S
C650 C652 1.398 . S
C651 C650 1.384 1_554 S
C651 C655 1.393 1_554 S
C652 H641 0.950 . S
C652 C650 1.398 . S
C652 C653 1.400 . S
C653 C647 1.491 . S
C653 C652 1.400 . S
C653 C654 1.398 . S
C654 H642 0.950 . S
C654 C653 1.398 . S
C654 C655 1.391 . S
C655 H643 0.950 . S
C655 C651 1.393 1_556 S
C655 C654 1.391 . S
H656 C664 0.950 . S
H657 C669 0.950 . S
H658 C666 0.950 . S
H659 C668 0.950 . S
H660 C670 0.950 . S
H661 C672 0.950 . S
H662 C674 0.950 . S
H663 C675 0.950 . S
C664 H656 0.950 . S
C664 C665 1.386 . S
C664 C666 1.391 . S
C665 C664 1.386 . S
C665 C669 1.393 . S
C666 H658 0.950 . S
C666 C664 1.391 . S
C666 C667 1.400 . S
C667 C666 1.400 . S
C667 C668 1.398 . S
C667 C673 1.491 . S
C668 H659 0.950 . S
C668 C667 1.398 . S
C668 C669 1.391 . S
C669 H657 0.950 . S
C669 C665 1.393 . S
C669 C668 1.391 . S
C670 H660 0.950 . S
C670 C671 1.386 . S
C670 C672 1.391 . S
C671 C670 1.386 . S
C671 C675 1.393 1_556 S
C672 H661 0.950 . S
C672 C670 1.391 . S
C672 C673 1.400 1_556 S
C673 C667 1.491 . S
C673 C672 1.400 1_554 S
C673 C674 1.398 . S
C674 H662 0.950 . S
C674 C673 1.398 . S
C674 C675 1.391 . S
C675 H663 0.950 . S
C675 C671 1.393 1_554 S
C675 C674 1.391 . S
H676 C684 0.950 . S
H677 C689 0.950 . S
H678 C686 0.950 . S
H679 C688 0.950 . S
H680 C690 0.950 . S
H681 C692 0.950 . S
H682 C694 0.950 . S
H683 C695 0.950 . S
C684 H676 0.950 . S
C684 C685 1.386 . S
C684 C686 1.391 . S
C685 C684 1.386 . S
C685 C689 1.393 . S
C686 H678 0.950 . S
C686 C684 1.391 . S
C686 C687 1.400 . S
C687 C686 1.400 . S
C687 C688 1.398 . S
C687 C693 1.491 . S
C688 H679 0.950 . S
C688 C687 1.398 . S
C688 C689 1.391 . S
C689 H677 0.950 . S
C689 C685 1.393 . S
C689 C688 1.391 . S
C690 H680 0.950 . S
C690 C691 1.386 . S
C690 C692 1.391 . S
C691 C690 1.386 . S
C691 C695 1.393 . S
C692 H681 0.950 . S
C692 C690 1.391 . S
C692 C693 1.400 . S
C693 C687 1.491 . S
C693 C692 1.400 . S
C693 C694 1.398 . S
C694 H682 0.950 . S
C694 C693 1.398 . S
C694 C695 1.391 . S
C695 H683 0.950 . S
C695 C691 1.393 . S
C695 C694 1.391 . S
H696 C704 0.950 . S
H697 C709 0.950 . S
H698 C706 0.950 . S
H699 C708 0.950 . S
H700 C710 0.950 . S
H701 C712 0.950 . S
H702 C714 0.950 . S
H703 C715 0.950 . S
C704 H696 0.950 . S
C704 C705 1.386 . S
C704 C706 1.391 . S
C705 C704 1.386 . S
C705 C709 1.393 . S
C706 H698 0.950 . S
C706 C704 1.391 . S
C706 C707 1.400 . S
C707 C706 1.400 . S
C707 C708 1.398 . S
C707 C713 1.491 . S
C708 H699 0.950 . S
C708 C707 1.398 . S
C708 C709 1.391 . S
C709 H697 0.950 . S
C709 C705 1.393 . S
C709 C708 1.391 . S
C710 H700 0.950 . S
C710 C711 1.386 . S
C710 C712 1.391 . S
C711 C710 1.386 . S
C711 C715 1.393 . S
C712 H701 0.950 . S
C712 C710 1.391 . S
C712 C713 1.400 . S
C713 C707 1.491 . S
C713 C712 1.400 . S
C713 C714 1.398 . S
C714 H702 0.950 . S
C714 C713 1.398 . S
C714 C715 1.391 . S
C715 H703 0.950 . S
C715 C711 1.393 . S
C715 C714 1.391 . S
H716 C724 0.950 . S
H717 C729 0.950 . S
H718 C726 0.950 . S
H719 C728 0.950 . S
H720 C730 0.950 . S
H721 C732 0.950 . S
H722 C734 0.950 . S
H723 C735 0.950 . S
C724 H716 0.950 . S
C724 C725 1.386 . S
C724 C726 1.391 . S
C725 C724 1.386 . S
C725 C729 1.393 . S
C726 H718 0.950 . S
C726 C724 1.391 . S
C726 C727 1.400 . S
C727 C726 1.400 . S
C727 C728 1.398 . S
C727 C733 1.491 . S
C728 H719 0.950 . S
C728 C727 1.398 . S
C728 C729 1.391 . S
C729 H717 0.950 . S
C729 C725 1.393 . S
C729 C728 1.391 . S
C730 H720 0.950 . S
C730 C731 1.386 . S
C730 C732 1.391 . S
C731 C730 1.386 . S
C731 C735 1.393 . S
C732 H721 0.950 . S
C732 C730 1.391 . S
C732 C733 1.400 . S
C733 C727 1.491 . S
C733 C732 1.400 . S
C733 C734 1.398 . S
C734 H722 0.950 . S
C734 C733 1.398 . S
C734 C735 1.391 . S
C735 H723 0.950 . S
C735 C731 1.393 . S
C735 C734 1.391 . S
H736 C744 0.950 . S
H737 C749 0.950 . S
H738 C746 0.950 . S
H739 C748 0.950 . S
H740 C750 0.950 . S
H741 C752 0.950 . S
H742 C754 0.950 . S
H743 C755 0.950 . S
C744 H736 0.950 . S
C744 C745 1.386 . S
C744 C746 1.391 . S
C745 C744 1.386 . S
C745 C749 1.393 . S
C746 H738 0.950 . S
C746 C744 1.391 . S
C746 C747 1.400 . S
C747 C746 1.400 . S
C747 C748 1.398 . S
C747 C753 1.491 . S
C748 H739 0.950 . S
C748 C747 1.398 . S
C748 C749 1.391 . S
C749 H737 0.950 . S
C749 C745 1.393 . S
C749 C748 1.391 . S
C750 H740 0.950 . S
C750 C751 1.386 . S
C750 C752 1.391 . S
C751 C750 1.386 . S
C751 C755 1.393 . S
C752 H741 0.950 . S
C752 C750 1.391 . S
C752 C753 1.400 . S
C753 C747 1.491 . S
C753 C752 1.400 . S
C753 C754 1.398 . S
C754 H742 0.950 . S
C754 C753 1.398 . S
C754 C755 1.391 . S
C755 H743 0.950 . S
C755 C751 1.393 . S
C755 C754 1.391 . S
H756 C764 0.950 . S
H757 C769 0.950 . S
H758 C766 0.950 . S
H759 C768 0.950 . S
H760 C770 0.950 . S
H761 C772 0.950 . S
H762 C774 0.950 . S
H763 C775 0.950 . S
C764 H756 0.950 . S
C764 C765 1.386 . S
C764 C766 1.391 . S
C765 C764 1.386 . S
C765 C769 1.393 . S
C766 H758 0.950 . S
C766 C764 1.391 . S
C766 C767 1.400 . S
C767 C766 1.400 . S
C767 C768 1.398 . S
C767 C773 1.491 . S
C768 H759 0.950 . S
C768 C767 1.398 . S
C768 C769 1.391 . S
C769 H757 0.950 . S
C769 C765 1.393 . S
C769 C768 1.391 . S
C770 H760 0.950 . S
C770 C771 1.386 . S
C770 C772 1.391 . S
C771 C770 1.386 . S
C771 C775 1.393 . S
C772 H761 0.950 . S
C772 C770 1.391 . S
C772 C773 1.400 . S
C773 C767 1.491 . S
C773 C772 1.400 . S
C773 C774 1.398 . S
C774 H762 0.950 . S
C774 C773 1.398 . S
C774 C775 1.391 . S
C775 H763 0.950 . S
C775 C771 1.393 . S
C775 C774 1.391 . S
H776 C784 0.950 . S
H777 C789 0.950 . S
H778 C786 0.950 . S
H779 C788 0.950 . S
H780 C790 0.950 . S
H781 C792 0.950 . S
H782 C794 0.950 . S
H783 C795 0.950 . S
C784 H776 0.950 . S
C784 C785 1.386 . S
C784 C786 1.391 . S
C785 C784 1.386 . S
C785 C789 1.393 . S
C786 H778 0.950 . S
C786 C784 1.391 . S
C786 C787 1.400 . S
C787 C786 1.400 . S
C787 C788 1.398 . S
C787 C793 1.491 . S
C788 H779 0.950 . S
C788 C787 1.398 . S
C788 C789 1.391 . S
C789 H777 0.950 . S
C789 C785 1.393 . S
C789 C788 1.391 . S
C790 H780 0.950 . S
C790 C791 1.386 . S
C790 C792 1.391 . S
C791 C790 1.386 . S
C791 C795 1.393 . S
C792 H781 0.950 . S
C792 C790 1.391 . S
C792 C793 1.400 . S
C793 C787 1.491 . S
C793 C792 1.400 . S
C793 C794 1.398 . S
C794 H782 0.950 . S
C794 C793 1.398 . S
C794 C795 1.391 . S
C795 H783 0.950 . S
C795 C791 1.393 . S
C795 C794 1.391 . S
H796 C804 0.950 . S
H797 C809 0.950 . S
H798 C806 0.950 . S
H799 C808 0.950 . S
H800 C810 0.950 . S
H801 C812 0.950 . S
H802 C814 0.950 . S
H803 C815 0.950 . S
C804 H796 0.950 . S
C804 C805 1.386 . S
C804 C806 1.391 . S
C805 C804 1.386 . S
C805 C809 1.393 . S
C806 H798 0.950 . S
C806 C804 1.391 . S
C806 C807 1.400 . S
C807 C806 1.400 . S
C807 C808 1.398 . S
C807 C813 1.491 . S
C808 H799 0.950 . S
C808 C807 1.398 . S
C808 C809 1.391 . S
C809 H797 0.950 . S
C809 C805 1.393 . S
C809 C808 1.391 . S
C810 H800 0.950 . S
C810 C811 1.386 . S
C810 C812 1.391 . S
C811 C810 1.386 . S
C811 C815 1.393 . S
C812 H801 0.950 . S
C812 C810 1.391 . S
C812 C813 1.400 . S
C813 C807 1.491 . S
C813 C812 1.400 . S
C813 C814 1.398 . S
C814 H802 0.950 . S
C814 C813 1.398 . S
C814 C815 1.391 . S
C815 H803 0.950 . S
C815 C811 1.393 . S
C815 C814 1.391 . S
H816 C824 0.950 . S
H817 C829 0.950 . S
H818 C826 0.950 . S
H819 C828 0.950 . S
H820 C830 0.950 . S
H821 C832 0.950 . S
H822 C834 0.950 . S
H823 C835 0.950 . S
C824 H816 0.950 . S
C824 C825 1.386 . S
C824 C826 1.391 . S
C825 C824 1.386 . S
C825 C829 1.393 . S
C826 H818 0.950 . S
C826 C824 1.391 . S
C826 C827 1.400 . S
C827 C826 1.400 . S
C827 C828 1.398 . S
C827 C833 1.491 . S
C828 H819 0.950 . S
C828 C827 1.398 . S
C828 C829 1.391 . S
C829 H817 0.950 . S
C829 C825 1.393 . S
C829 C828 1.391 . S
C830 H820 0.950 . S
C830 C831 1.386 . S
C830 C832 1.391 . S
C831 C830 1.386 . S
C831 C835 1.393 . S
C832 H821 0.950 . S
C832 C830 1.391 . S
C832 C833 1.400 . S
C833 C827 1.491 . S
C833 C832 1.400 . S
C833 C834 1.398 . S
C834 H822 0.950 . S
C834 C833 1.398 . S
C834 C835 1.391 . S
C835 H823 0.950 . S
C835 C831 1.393 . S
C835 C834 1.391 . S
H836 C844 0.950 . S
H837 C849 0.950 . S
H838 C846 0.950 . S
H839 C848 0.950 . S
H840 C850 0.950 . S
H841 C852 0.950 . S
H842 C854 0.950 . S
H843 C855 0.950 . S
C844 H836 0.950 . S
C844 C845 1.386 . S
C844 C846 1.391 . S
C845 C844 1.386 . S
C845 C849 1.393 1_554 S
C846 H838 0.950 . S
C846 C844 1.391 . S
C846 C847 1.400 1_554 S
C847 C846 1.400 1_556 S
C847 C848 1.398 . S
C847 C853 1.491 . S
C848 H839 0.950 . S
C848 C847 1.398 . S
C848 C849 1.391 . S
C849 H837 0.950 . S
C849 C845 1.393 1_556 S
C849 C848 1.391 . S
C850 H840 0.950 . S
C850 C851 1.386 . S
C850 C852 1.391 . S
C851 C850 1.386 . S
C851 C855 1.393 . S
C852 H841 0.950 . S
C852 C850 1.391 . S
C852 C853 1.400 . S
C853 C847 1.491 . S
C853 C852 1.400 . S
C853 C854 1.398 . S
C854 H842 0.950 . S
C854 C853 1.398 . S
C854 C855 1.391 . S
C855 H843 0.950 . S
C855 C851 1.393 . S
C855 C854 1.391 . S
H856 C864 0.950 . S
H857 C869 0.950 . S
H858 C866 0.950 . S
H859 C868 0.950 . S
H860 C870 0.950 . S
H861 C872 0.950 1_556 S
H862 C874 0.950 . S
H863 C875 0.950 . S
C864 H856 0.950 . S
C864 C865 1.386 . S
C864 C866 1.391 . S
C865 C864 1.386 . S
C865 C869 1.393 . S
C866 H858 0.950 . S
C866 C864 1.391 . S
C866 C867 1.400 . S
C867 C866 1.400 . S
C867 C868 1.398 . S
C867 C873 1.491 . S
C868 H859 0.950 . S
C868 C867 1.398 . S
C868 C869 1.391 . S
C869 H857 0.950 . S
C869 C865 1.393 . S
C869 C868 1.391 . S
C870 H860 0.950 . S
C870 C871 1.386 . S
C870 C872 1.391 1_556 S
C871 C870 1.386 . S
C871 C875 1.393 1_556 S
C872 H861 0.950 1_554 S
C872 C870 1.391 1_554 S
C872 C873 1.400 . S
C873 C867 1.491 . S
C873 C872 1.400 . S
C873 C874 1.398 . S
C874 H862 0.950 . S
C874 C873 1.398 . S
C874 C875 1.391 . S
C875 H863 0.950 . S
C875 C871 1.393 1_554 S
C875 C874 1.391 . S
H876 C884 0.950 . S
H877 C889 0.950 . S
H878 C886 0.950 . S
H879 C888 0.950 . S
H880 C890 0.950 . S
H881 C892 0.950 . S
H882 C894 0.950 . S
H883 C895 0.950 . S
C884 H876 0.950 . S
C884 C885 1.386 . S
C884 C886 1.391 . S
C885 C884 1.386 . S
C885 C889 1.393 . S
C886 H878 0.950 . S
C886 C884 1.391 . S
C886 C887 1.400 . S
C887 C886 1.400 . S
C887 C888 1.398 . S
C887 C893 1.491 . S
C888 H879 0.950 . S
C888 C887 1.398 . S
C888 C889 1.391 . S
C889 H877 0.950 . S
C889 C885 1.393 . S
C889 C888 1.391 . S
C890 H880 0.950 . S
C890 C891 1.386 . S
C890 C892 1.391 . S
C891 C890 1.386 . S
C891 C895 1.393 . S
C892 H881 0.950 . S
C892 C890 1.391 . S
C892 C893 1.400 . S
C893 C887 1.491 . S
C893 C892 1.400 . S
C893 C894 1.398 . S
C894 H882 0.950 . S
C894 C893 1.398 . S
C894 C895 1.391 . S
C895 H883 0.950 . S
C895 C891 1.393 . S
C895 C894 1.391 . S
H896 C904 0.950 . S
H897 C909 0.950 . S
H898 C906 0.950 . S
H899 C908 0.950 . S
H900 C910 0.950 . S
H901 C912 0.950 . S
H902 C914 0.950 . S
H903 C915 0.950 . S
C904 H896 0.950 . S
C904 C905 1.386 . S
C904 C906 1.391 . S
C905 C904 1.386 . S
C905 C909 1.393 . S
C906 H898 0.950 . S
C906 C904 1.391 . S
C906 C907 1.400 . S
C907 C906 1.400 . S
C907 C908 1.398 . S
C907 C913 1.491 1_655 S
C908 H899 0.950 . S
C908 C907 1.398 . S
C908 C909 1.391 . S
C909 H897 0.950 . S
C909 C905 1.393 . S
C909 C908 1.391 . S
C910 H900 0.950 . S
C910 C911 1.386 . S
C910 C912 1.391 . S
C911 C910 1.386 . S
C911 C915 1.393 . S
C912 H901 0.950 . S
C912 C910 1.391 . S
C912 C913 1.400 . S
C913 C907 1.491 1_455 S
C913 C912 1.400 . S
C913 C914 1.398 . S
C914 H902 0.950 . S
C914 C913 1.398 . S
C914 C915 1.391 . S
C915 H903 0.950 . S
C915 C911 1.393 . S
C915 C914 1.391 . S
H916 C924 0.950 . S
H917 C929 0.950 . S
H918 C926 0.950 . S
H919 C928 0.950 . S
H920 C930 0.950 . S
H921 C932 0.950 . S
H922 C934 0.950 . S
H923 C935 0.950 . S
C924 H916 0.950 . S
C924 C925 1.386 . S
C924 C926 1.391 . S
C925 C924 1.386 . S
C925 C929 1.393 . S
C926 H918 0.950 . S
C926 C924 1.391 . S
C926 C927 1.400 . S
C927 C926 1.400 . S
C927 C928 1.398 . S
C927 C933 1.491 1_545 S
C928 H919 0.950 . S
C928 C927 1.398 . S
C928 C929 1.391 . S
C929 H917 0.950 . S
C929 C925 1.393 . S
C929 C928 1.391 . S
C930 H920 0.950 . S
C930 C931 1.386 . S
C930 C932 1.391 . S
C931 C930 1.386 . S
C931 C935 1.393 . S
C932 H921 0.950 . S
C932 C930 1.391 . S
C932 C933 1.400 . S
C933 C927 1.491 1_565 S
C933 C932 1.400 . S
C933 C934 1.398 . S
C934 H922 0.950 . S
C934 C933 1.398 . S
C934 C935 1.391 . S
C935 H923 0.950 . S
C935 C931 1.393 . S
C935 C934 1.391 . S
H936 C944 0.950 . S
H937 C949 0.950 . S
H938 C946 0.950 . S
H939 C948 0.950 . S
H940 C950 0.950 . S
H941 C952 0.950 . S
H942 C954 0.950 . S
H943 C955 0.950 . S
C944 H936 0.950 . S
C944 C945 1.386 . S
C944 C946 1.391 . S
C945 C944 1.386 . S
C945 C949 1.393 . S
C946 H938 0.950 . S
C946 C944 1.391 . S
C946 C947 1.400 . S
C947 C946 1.400 . S
C947 C948 1.398 . S
C947 C953 1.491 . S
C948 H939 0.950 . S
C948 C947 1.398 . S
C948 C949 1.391 . S
C949 H937 0.950 . S
C949 C945 1.393 . S
C949 C948 1.391 . S
C950 H940 0.950 . S
C950 C951 1.386 . S
C950 C952 1.391 . S
C951 C950 1.386 . S
C951 C955 1.393 . S
C952 H941 0.950 . S
C952 C950 1.391 . S
C952 C953 1.400 . S
C953 C947 1.491 . S
C953 C952 1.400 . S
C953 C954 1.398 . S
C954 H942 0.950 . S
C954 C953 1.398 . S
C954 C955 1.391 . S
C955 H943 0.950 . S
C955 C951 1.393 . S
C955 C954 1.391 . S
H956 C964 0.950 . S
H957 C969 0.950 . S
H958 C966 0.950 . S
H959 C968 0.950 . S
H960 C970 0.950 . S
H961 C972 0.950 . S
H962 C974 0.950 . S
H963 C975 0.950 . S
C964 H956 0.950 . S
C964 C965 1.386 . S
C964 C966 1.391 . S
C965 C964 1.386 . S
C965 C969 1.393 . S
C966 H958 0.950 . S
C966 C964 1.391 . S
C966 C967 1.400 . S
C967 C966 1.400 . S
C967 C968 1.398 . S
C967 C973 1.491 1_455 S
C968 H959 0.950 . S
C968 C967 1.398 . S
C968 C969 1.391 . S
C969 H957 0.950 . S
C969 C965 1.393 . S
C969 C968 1.391 . S
C970 H960 0.950 . S
C970 C971 1.386 . S
C970 C972 1.391 . S
C971 C970 1.386 . S
C971 C975 1.393 . S
C972 H961 0.950 . S
C972 C970 1.391 . S
C972 C973 1.400 . S
C973 C967 1.491 1_655 S
C973 C972 1.400 . S
C973 C974 1.398 . S
C974 H962 0.950 . S
C974 C973 1.398 . S
C974 C975 1.391 . S
C975 H963 0.950 . S
C975 C971 1.393 . S
C975 C974 1.391 . S
H976 C984 0.950 . S
H977 C989 0.950 . S
H978 C986 0.950 . S
H979 C988 0.950 . S
H980 C990 0.950 . S
H981 C992 0.950 . S
H982 C994 0.950 . S
H983 C995 0.950 . S
C984 H976 0.950 . S
C984 C985 1.386 . S
C984 C986 1.391 . S
C985 C984 1.386 . S
C985 C989 1.393 1_556 S
C986 H978 0.950 . S
C986 C984 1.391 . S
C986 C987 1.400 . S
C987 C986 1.400 . S
C987 C988 1.398 1_556 S
C987 C993 1.491 1_546 S
C988 H979 0.950 . S
C988 C987 1.398 1_554 S
C988 C989 1.391 . S
C989 H977 0.950 . S
C989 C985 1.393 1_554 S
C989 C988 1.391 . S
C990 H980 0.950 . S
C990 C991 1.386 . S
C990 C992 1.391 . S
C991 C990 1.386 . S
C991 C995 1.393 1_554 S
C992 H981 0.950 . S
C992 C990 1.391 . S
C992 C993 1.400 . S
C993 C987 1.491 1_564 S
C993 C992 1.400 . S
C993 C994 1.398 1_554 S
C994 H982 0.950 . S
C994 C993 1.398 1_556 S
C994 C995 1.391 . S
C995 H983 0.950 . S
C995 C991 1.393 1_556 S
C995 C994 1.391 . S
C405 N13 1.200 . S
C411 N2 1.198 . S
C425 N35 1.198 1_556 S
C431 N46 1.199 . S
C445 N68 1.210 . S
C451 N79 1.211 . S
C465 N112 1.212 . S
C471 N101 1.210 . S
C485 N145 1.203 1_554 S
C491 N134 1.202 . S
C505 N167 1.214 . S
C511 N178 1.214 . S
C525 N211 1.197 . S
C531 N200 1.196 1_554 S
C545 N244 1.197 . S
C551 N233 1.196 . S
C565 N266 1.199 . S
C571 N277 1.200 . S
C585 N310 1.197 1_556 S
C591 N299 1.196 . S
C605 N343 1.207 . S
C611 N332 1.206 . S
C625 N365 1.214 . S
C631 N376 1.215 . S
C645 C205 1.546 . S
C651 C7 1.546 . S
C665 C40 1.546 . S
C671 C238 1.555 . S
C685 C271 1.545 . S
C691 C73 1.552 . S
C705 C304 1.547 . S
C711 C106 1.559 . S
C725 C337 1.556 . S
C731 C139 1.546 . S
C745 C370 1.564 . S
C751 C172 1.554 . S
C765 C18 1.183 . S
C771 C348 1.194 . S
C785 C51 1.178 . S
C791 C381 1.176 . S
C805 C84 1.176 . S
C811 C216 1.186 . S
C825 C249 1.190 . S
C831 C117 1.197 . S
C845 C282 1.193 . S
C851 C150 1.181 . S
C865 C315 1.197 . S
C871 C183 1.189 . S
C885 C21 1.470 . S
C891 C318 1.481 . S
C905 C54 1.469 . S
C911 C351 1.481 . S
C925 C384 1.467 . S
C931 C87 1.481 . S
C945 C120 1.481 . S
C951 C219 1.468 . S
C965 C153 1.466 . S
C971 C252 1.474 . S
C985 C186 1.465 . S
C991 C285 1.477 . S
