# Generated by pormake.
# Topology vbm, (6)-cn, num edge types: 1
# Building blocks:
#     Node 0, Type 0, BuildingBlock: KUMBOL_clean_sbu_1, # of connection points: 6
#     Node 1, Type 0, BuildingBlock: KUMBOL_clean_sbu_1, # of connection points: 6
#     Node 2, Type 0, BuildingBlock: KUMBOL_clean_sbu_1, # of connection points: 6
#     Node 3, Type 0, BuildingBlock: KUMBOL_clean_sbu_1, # of connection points: 6
#     Node 4, Type 0, BuildingBlock: KUMBOL_clean_sbu_1, # of connection points: 6
#     Node 5, Type 0, BuildingBlock: KUMBOL_clean_sbu_1, # of connection points: 6
#     Node 6, Type 0, BuildingBlock: KUMBOL_clean_sbu_1, # of connection points: 6
#     Node 7, Type 0, BuildingBlock: KUMBOL_clean_sbu_1, # of connection points: 6
#     Node 8, Type 0, BuildingBlock: KUMBOL_clean_sbu_1, # of connection points: 6
#     Node 9, Type 0, BuildingBlock: KUMBOL_clean_sbu_1, # of connection points: 6
#     Node 10, Type 0, BuildingBlock: KUMBOL_clean_sbu_1, # of connection points: 6
#     Node 11, Type 0, BuildingBlock: KUMBOL_clean_sbu_1, # of connection points: 6
#     Node 12, Type 0, BuildingBlock: KUMBOL_clean_sbu_1, # of connection points: 6
#     Node 13, Type 0, BuildingBlock: KUMBOL_clean_sbu_1, # of connection points: 6
#     Node 14, Type 0, BuildingBlock: KUMBOL_clean_sbu_1, # of connection points: 6
#     Node 15, Type 0, BuildingBlock: KUMBOL_clean_sbu_1, # of connection points: 6
#     Edge 16, Type (0, 0), BuildingBlock: OJICUG_clean_linker_0, # of connection points: 2
#     Edge 17, Type (0, 0), BuildingBlock: OJICUG_clean_linker_0, # of connection points: 2
#     Edge 18, Type (0, 0), BuildingBlock: OJICUG_clean_linker_0, # of connection points: 2
#     Edge 19, Type (0, 0), BuildingBlock: OJICUG_clean_linker_0, # of connection points: 2
#     Edge 20, Type (0, 0), BuildingBlock: OJICUG_clean_linker_0, # of connection points: 2
#     Edge 21, Type (0, 0), BuildingBlock: OJICUG_clean_linker_0, # of connection points: 2
#     Edge 22, Type (0, 0), BuildingBlock: OJICUG_clean_linker_0, # of connection points: 2
#     Edge 23, Type (0, 0), BuildingBlock: OJICUG_clean_linker_0, # of connection points: 2
#     Edge 24, Type (0, 0), BuildingBlock: OJICUG_clean_linker_0, # of connection points: 2
#     Edge 25, Type (0, 0), BuildingBlock: OJICUG_clean_linker_0, # of connection points: 2
#     Edge 26, Type (0, 0), BuildingBlock: OJICUG_clean_linker_0, # of connection points: 2
#     Edge 27, Type (0, 0), BuildingBlock: OJICUG_clean_linker_0, # of connection points: 2
#     Edge 28, Type (0, 0), BuildingBlock: OJICUG_clean_linker_0, # of connection points: 2
#     Edge 29, Type (0, 0), BuildingBlock: OJICUG_clean_linker_0, # of connection points: 2
#     Edge 30, Type (0, 0), BuildingBlock: OJICUG_clean_linker_0, # of connection points: 2
#     Edge 31, Type (0, 0), BuildingBlock: OJICUG_clean_linker_0, # of connection points: 2
#     Edge 32, Type (0, 0), BuildingBlock: OJICUG_clean_linker_0, # of connection points: 2
#     Edge 33, Type (0, 0), BuildingBlock: OJICUG_clean_linker_0, # of connection points: 2
#     Edge 34, Type (0, 0), BuildingBlock: OJICUG_clean_linker_0, # of connection points: 2
#     Edge 35, Type (0, 0), BuildingBlock: OJICUG_clean_linker_0, # of connection points: 2
#     Edge 36, Type (0, 0), BuildingBlock: OJICUG_clean_linker_0, # of connection points: 2
#     Edge 37, Type (0, 0), BuildingBlock: OJICUG_clean_linker_0, # of connection points: 2
#     Edge 38, Type (0, 0), BuildingBlock: OJICUG_clean_linker_0, # of connection points: 2
#     Edge 39, Type (0, 0), BuildingBlock: OJICUG_clean_linker_0, # of connection points: 2
#     Edge 40, Type (0, 0), BuildingBlock: OJICUG_clean_linker_0, # of connection points: 2
#     Edge 41, Type (0, 0), BuildingBlock: OJICUG_clean_linker_0, # of connection points: 2
#     Edge 42, Type (0, 0), BuildingBlock: OJICUG_clean_linker_0, # of connection points: 2
#     Edge 43, Type (0, 0), BuildingBlock: OJICUG_clean_linker_0, # of connection points: 2
#     Edge 44, Type (0, 0), BuildingBlock: OJICUG_clean_linker_0, # of connection points: 2
#     Edge 45, Type (0, 0), BuildingBlock: OJICUG_clean_linker_0, # of connection points: 2
#     Edge 46, Type (0, 0), BuildingBlock: OJICUG_clean_linker_0, # of connection points: 2
#     Edge 47, Type (0, 0), BuildingBlock: OJICUG_clean_linker_0, # of connection points: 2
#     Edge 48, Type (0, 0), BuildingBlock: OJICUG_clean_linker_0, # of connection points: 2
#     Edge 49, Type (0, 0), BuildingBlock: OJICUG_clean_linker_0, # of connection points: 2
#     Edge 50, Type (0, 0), BuildingBlock: OJICUG_clean_linker_0, # of connection points: 2
#     Edge 51, Type (0, 0), BuildingBlock: OJICUG_clean_linker_0, # of connection points: 2
#     Edge 52, Type (0, 0), BuildingBlock: OJICUG_clean_linker_0, # of connection points: 2
#     Edge 53, Type (0, 0), BuildingBlock: OJICUG_clean_linker_0, # of connection points: 2
#     Edge 54, Type (0, 0), BuildingBlock: OJICUG_clean_linker_0, # of connection points: 2
#     Edge 55, Type (0, 0), BuildingBlock: OJICUG_clean_linker_0, # of connection points: 2
#     Edge 56, Type (0, 0), BuildingBlock: OJICUG_clean_linker_0, # of connection points: 2
#     Edge 57, Type (0, 0), BuildingBlock: OJICUG_clean_linker_0, # of connection points: 2
#     Edge 58, Type (0, 0), BuildingBlock: OJICUG_clean_linker_0, # of connection points: 2
#     Edge 59, Type (0, 0), BuildingBlock: OJICUG_clean_linker_0, # of connection points: 2
#     Edge 60, Type (0, 0), BuildingBlock: OJICUG_clean_linker_0, # of connection points: 2
#     Edge 61, Type (0, 0), BuildingBlock: OJICUG_clean_linker_0, # of connection points: 2
#     Edge 62, Type (0, 0), BuildingBlock: OJICUG_clean_linker_0, # of connection points: 2
#     Edge 63, Type (0, 0), BuildingBlock: OJICUG_clean_linker_0, # of connection points: 2
# Relax obj value: 0.076
# Max RMSD: 0.147
# Mean RMSD: 0.147
data_MOF--net-vbm--node1-KUMBOL_clean_sbu_1--edge1-OJICUG_clean_linker_0
_symmetry_space_group_name_H-M    P1
_symmetry_Int_Tables_number       1
_symmetry_cell_setting            triclinic
loop_
_symmetry_equiv_pos_as_xyz
'x, y, z'
_cell_length_a     38.48364
_cell_length_b     20.626739
_cell_length_c     41.999327
_cell_angle_alpha  90.016944
_cell_angle_beta   90.109924
_cell_angle_gamma 89.952889
loop_
_atom_site_label
_atom_site_type_symbol
_atom_site_fract_x
_atom_site_fract_y
_atom_site_fract_z
_atom_type_partial_charge
C0 C 0.23172 0.02346 0.0749 0.0
C1 C 0.27922 0.02984 0.11311 0.0
C2 C 0.24338 0.03162 0.10626 0.0
C3 C 0.30305 0.01832 0.08847 0.0
C4 C 0.2556 1.01053 0.05035 0.0
C5 C 0.29129 1.00832 0.05726 0.0
N6 N 0.19699 0.02565 0.06861 0.0
C7 C 0.18435 1.01601 0.03862 0.0
C8 C 0.24282 0.99826 0.01969 0.0
C9 C 0.20706 1.00063 0.0139 0.0
Gd10 Gd 0.11666 0.19507 0.14395 0.0
Gd11 Gd 0.16182 0.03529 0.11322 0.0
N12 N 0.21975 0.04194 0.12992 0.0
C13 C 0.29007 0.03922 0.14461 0.0
C14 C 0.23023 0.05004 0.16076 0.0
C15 C 0.26552 0.0496 0.16846 0.0
H16 H 0.21177 0.0579 0.17954 0.0
H17 H 0.27378 0.05679 0.19286 0.0
H18 H 0.09421 0.25869 0.07114 0.0
H19 H 0.15665 1.01595 0.03432 0.0
H20 H 0.04292 0.26023 0.0364 0.0
H21 H 0.31728 0.03815 0.15087 0.0
H22 H 0.33065 1.01637 0.09332 0.0
H23 H 0.08671 0.18353 0.21826 0.0
H24 H 0.26032 0.98642 1.00036 0.0
H25 H 0.19696 0.98957 0.99051 0.0
H26 H 0.95044 0.18788 0.10403 0.0
H27 H 0.31003 0.99851 0.03865 0.0
H28 H 0.97685 0.15407 0.21422 0.0
H29 H 0.03143 0.16007 0.24544 0.0
N30 N 0.06427 0.18611 0.17212 0.0
C31 C 0.0345 0.1869 0.15486 0.0
C32 C 0.06327 0.17946 0.20442 0.0
C33 C 1.00115 0.16421 0.20225 0.0
C34 C 0.03188 0.16717 0.21991 0.0
C35 C 1.0021 0.17539 0.1694 0.0
H36 H 0.94678 0.16478 0.16125 0.0
N37 N 0.06837 0.21161 0.10967 0.0
C38 C 0.03666 0.19916 0.12255 0.0
C39 C 0.00879 0.22131 0.07218 0.0
C40 C 1.00615 0.20206 0.10399 0.0
C41 C 0.07028 0.23841 0.07995 0.0
C42 C 0.04088 0.24139 0.06038 0.0
O43 O 0.1946 0.1292 0.11078 0.0
O44 O 0.17415 0.18592 0.15333 0.0
O45 O 0.11629 0.30034 0.13373 0.0
O46 O 0.12131 0.26381 0.18218 0.0
O47 O 0.15236 0.03362 0.16566 0.0
O48 O 0.13384 0.13232 0.18632 0.0
O49 O 0.08869 0.09913 0.14909 0.0
O50 O 0.10336 0.04452 0.10383 0.0
O51 O 0.14611 0.94444 0.13606 0.0
O52 O 0.17549 0.94337 0.0924 0.0
O53 O 0.13814 0.1907 0.0922 0.0
O54 O 0.12763 0.08505 0.07814 0.0
C55 C 0.1977 0.17722 0.13138 0.0
C56 C 0.14335 0.07076 0.18957 0.0
C57 C 0.12079 0.38015 0.1773 0.0
C58 C 0.12231 0.49806 0.17179 0.0
C59 C 0.12792 0.44854 0.22396 0.0
C60 C 0.1251 0.38732 0.21036 0.0
C61 C 0.12676 0.50355 0.20489 0.0
C62 C 0.11881 0.43595 0.158 0.0
C63 C 0.11913 0.31406 0.16384 0.0
C64 C 0.97396 0.18777 0.11804 0.0
C65 C 0.97188 0.17468 0.15068 0.0
H66 H 0.986 0.22411 0.05707 0.0
C67 C 0.08026 0.06017 0.1257 0.0
C68 C 0.13196 0.14584 0.07021 0.0
C69 C 0.13835 0.85577 0.10038 0.0
C70 C 0.12232 0.74118 0.10255 0.0
C71 C 0.1077 0.80666 0.05611 0.0
C72 C 0.12278 0.8609 0.07025 0.0
C73 C 0.10771 0.74712 0.0719 0.0
C74 C 0.13744 0.79655 0.11667 0.0
C75 C 0.15923 0.90905 0.11334 0.0
H76 H 0.13125 0.4533 0.24941 0.0
H77 H 0.12651 0.34547 0.22588 0.0
H78 H 0.12929 0.55067 0.21606 0.0
H79 H 0.1159 0.43118 0.13242 0.0
H80 H 0.09631 0.81055 0.03261 0.0
H81 H 0.12313 0.90632 0.0573 0.0
H82 H 0.09671 0.70571 0.05973 0.0
H83 H 0.14885 0.79411 0.14024 0.0
C84 C 0.7734 0.973 0.10623 0.0
C85 C 0.74405 0.99716 0.15591 0.0
C86 C 0.77495 0.99069 0.13826 0.0
C87 C 0.71212 0.98209 0.14163 0.0
C88 C 0.74139 0.95754 0.09187 0.0
C89 C 0.71077 0.96198 0.10978 0.0
N90 N 0.80358 0.96747 0.08958 0.0
C91 C 0.80353 0.94958 0.05832 0.0
C92 C 0.74118 0.93686 0.0601 0.0
C93 C 0.7724 0.93259 0.04332 0.0
Gd94 Gd 0.90057 0.82985 0.14428 0.0
Gd95 Gd 0.85426 0.99167 0.11785 0.0
N96 N 0.80638 1.00346 0.15186 0.0
C97 C 0.746 0.02029 0.18718 0.0
C98 C 0.80794 0.03248 0.18104 0.0
C99 C 0.77803 0.03945 0.19954 0.0
H100 H 0.83191 0.05266 0.18984 0.0
H101 H 0.77963 0.06089 0.22302 0.0
H102 H 0.92751 0.77802 0.07116 0.0
H103 H 0.82756 0.94755 0.04518 0.0
H104 H 0.98165 0.77521 0.04071 0.0
H105 H 0.72277 0.02617 0.20145 0.0
H106 H 0.68841 0.98646 0.15514 0.0
H107 H 0.92329 0.86126 0.2199 0.0
H108 H 0.7171 0.92386 0.04834 0.0
H109 H 0.77246 0.91636 0.01882 0.0
H110 H 0.06865 0.83832 0.11609 0.0
H111 H 0.68597 0.95021 0.09908 0.0
H112 H 0.03341 0.88814 0.2224 0.0
H113 H 0.97619 0.89226 0.2492 0.0
N114 N 0.94979 0.84591 0.17613 0.0
C115 C 0.98099 0.84155 0.16106 0.0
C116 C 0.94795 0.86093 0.20773 0.0
C117 C 0.01019 0.87486 0.20934 0.0
C118 C 0.97795 0.87757 0.22451 0.0
C119 C 0.01207 0.8559 0.17739 0.0
H120 H 0.06789 0.86566 0.17295 0.0
N121 N 0.95075 0.81886 0.1128 0.0
C122 C 0.98139 0.82822 0.12851 0.0
C123 C 0.01308 0.80815 0.07994 0.0
C124 C 0.01326 0.82517 0.11218 0.0
C125 C 0.95089 0.79557 0.08233 0.0
C126 C 0.98185 0.79175 0.06517 0.0
O127 O 0.82576 0.89256 0.11448 0.0
O128 O 0.84382 0.83475 0.15754 0.0
O129 O 0.89242 0.72936 0.12902 0.0
O130 O 0.91342 0.75038 0.17563 0.0
O131 O 0.87907 0.9916 0.1666 0.0
O132 O 0.87341 0.88601 0.18434 0.0
O133 O 0.93085 0.92398 0.14747 0.0
O134 O 0.91262 0.99039 0.10722 0.0
O135 O 0.85497 0.09361 0.13114 0.0
O136 O 0.84471 0.06612 0.08242 0.0
O137 O 0.88095 0.83813 0.09228 0.0
O138 O 0.88673 0.94655 0.08012 0.0
C139 C 0.81967 0.84862 0.13663 0.0
C140 C 0.87726 0.94899 0.18976 0.0
C141 C 0.8893 0.64567 0.16848 0.0
C142 C 0.88371 0.52736 0.16641 0.0
C143 C 0.86232 0.58787 0.21217 0.0
C144 C 0.87251 0.646 0.1981 0.0
C145 C 0.86822 0.52903 0.19671 0.0
C146 C 0.89483 0.58625 0.15265 0.0
C147 C 0.90461 0.70552 0.15548 0.0
C148 C 0.04422 0.83887 0.12848 0.0
C149 C 0.04372 0.85425 0.16093 0.0
H150 H 0.03693 0.80537 0.0665 0.0
C151 C 0.93753 0.967 0.12545 0.0
C152 C 0.88565 0.88562 0.07147 0.0
C153 C 0.87169 0.16854 0.09131 0.0
C154 C 0.88993 0.2818 0.09791 0.0
C155 C 0.90769 0.21992 0.05125 0.0
C156 C 0.88998 0.16558 0.06246 0.0
C157 C 0.9075 0.27767 0.06861 0.0
C158 C 0.87224 0.22635 0.10914 0.0
C159 C 0.85 0.11375 0.10216 0.0
H160 H 0.84992 0.58834 0.23528 0.0
H161 H 0.86808 0.69102 0.21075 0.0
H162 H 0.86008 0.48471 0.20831 0.0
H163 H 0.90719 0.58612 0.12947 0.0
H164 H 0.92137 0.21749 0.02879 0.0
H165 H 0.89023 0.12167 0.04832 0.0
H166 H 0.92067 0.3193 0.05866 0.0
H167 H 0.85856 0.22792 0.13166 0.0
C168 C 0.2326 0.99727 0.42181 0.0
C169 C 0.27719 0.98146 0.38152 0.0
C170 C 0.24189 0.98515 0.39014 0.0
C171 C 0.30294 0.99078 0.40479 0.0
C172 C 0.25846 1.00913 0.44484 0.0
C173 C 0.29363 1.00521 0.43624 0.0
N174 N 0.19835 1.00033 0.42979 0.0
C175 C 0.1881 1.01581 0.45996 0.0
C176 C 0.24821 0.02671 0.47564 0.0
C177 C 0.21288 0.03109 0.48302 0.0
Gd178 Gd 0.11342 0.83153 0.3639 0.0
Gd179 Gd 0.16009 0.98885 0.38727 0.0
N180 N 0.21649 0.97709 0.36781 0.0
C181 C 0.28555 0.9692 0.34965 0.0
C182 C 0.22456 0.96835 0.33648 0.0
C183 C 0.25918 0.96311 0.32703 0.0
H184 H 0.20461 0.96462 0.31869 0.0
H185 H 0.26553 0.95477 0.30227 0.0
H186 H 0.07162 0.83121 0.4365 0.0
H187 H 0.16083 0.02072 0.46556 0.0
H188 H 0.0125 0.84312 0.45606 0.0
H189 H 0.31222 0.96514 0.3421 0.0
H190 H 0.33018 0.98798 0.39865 0.0
H191 H 0.10677 0.79809 0.28603 0.0
H192 H 0.26734 0.03787 0.49378 0.0
H193 H 0.20473 0.04685 0.50641 0.0
H194 H 0.94216 0.82999 0.36243 0.0
H195 H 0.31388 1.01381 0.45369 0.0
H196 H 0.99866 0.78164 0.26412 0.0
H197 H 0.06003 0.77717 0.24707 0.0
N198 N 0.07186 0.81837 0.32402 0.0
C199 C 0.03817 0.82239 0.33384 0.0
C200 C 0.07997 0.8034 0.29324 0.0
C201 C 0.01896 0.79421 0.28085 0.0
C202 C 0.05362 0.79078 0.27124 0.0
C203 C 0.01081 0.81154 0.31218 0.0
H204 H 0.95492 0.80824 0.30614 0.0
N205 N 0.0579 0.83656 0.3874 0.0
C206 C 0.03103 0.83236 0.36617 0.0
C207 C 0.98967 0.84151 0.40928 0.0
C208 C 0.99621 0.83481 0.3767 0.0
C209 C 0.05133 0.83691 0.41934 0.0
C210 C 0.01735 0.84145 0.4307 0.0
O211 O 0.19002 0.89142 0.39038 0.0
O212 O 0.169 0.83643 0.34765 0.0
O213 O 0.13797 0.74199 0.38023 0.0
O214 O 0.09175 0.73875 0.35129 0.0
O215 O 0.14308 0.98539 0.33644 0.0
O216 O 0.13653 0.87954 0.31934 0.0
O217 O 0.08415 0.92553 0.35696 0.0
O218 O 0.10192 0.9883 0.39857 0.0
O219 O 0.1481 0.07675 0.36056 0.0
O220 O 0.17624 0.0821 0.40499 0.0
O221 O 0.12986 0.8423 0.41676 0.0
O222 O 0.12719 0.95165 0.42656 0.0
C223 C 0.19353 0.84514 0.36886 0.0
C224 C 0.13864 0.94272 0.31374 0.0
C225 C 0.12886 0.65165 0.34655 0.0
C226 C 0.13031 0.53513 0.3388 0.0
C227 C 0.15546 0.6074 0.29917 0.0
C228 C 0.14624 0.661 0.31764 0.0
C229 C 0.14775 0.54474 0.3097 0.0
C230 C 0.12037 0.58943 0.35664 0.0
C231 C 0.11575 0.70563 0.36517 0.0
C232 C 0.96899 0.82803 0.35468 0.0
C233 C 0.97625 0.81567 0.32262 0.0
H234 H 0.9633 0.84382 0.41823 0.0
C235 C 0.07796 0.97122 0.37774 0.0
C236 C 0.12866 0.89183 0.43679 0.0
C237 C 0.13803 0.16584 0.39443 0.0
C238 C 0.1229 0.27977 0.39433 0.0
C239 C 0.10078 0.20881 0.43578 0.0
C240 C 0.11753 0.15635 0.42166 0.0
C241 C 0.10416 0.27053 0.42267 0.0
C242 C 0.14001 0.22701 0.38037 0.0
C243 C 0.16049 0.1142 0.38282 0.0
H244 H 0.16904 0.6143 0.27689 0.0
H245 H 0.15216 0.70942 0.30929 0.0
H246 H 0.15698 0.50408 0.29583 0.0
H247 H 0.10595 0.58357 0.37861 0.0
H248 H 0.08559 0.20187 0.45717 0.0
H249 H 0.1156 0.10898 0.43266 0.0
H250 H 0.09127 0.31079 0.43426 0.0
H251 H 0.15602 0.23399 0.35942 0.0
C252 C 0.77273 0.06037 0.40854 0.0
C253 C 0.73772 0.03265 0.36259 0.0
C254 C 0.77029 0.03717 0.37759 0.0
C255 C 0.70812 0.05535 0.37847 0.0
C256 C 0.74292 0.08144 0.42493 0.0
C257 C 0.71055 0.07927 0.4096 0.0
N258 N 0.80482 0.06592 0.4219 0.0
C259 C 0.80851 0.08587 0.45266 0.0
C260 C 0.74674 0.10564 0.45589 0.0
C261 C 0.77969 0.10764 0.46984 0.0
Gd262 Gd 0.89315 0.21063 0.35795 0.0
Gd263 Gd 0.85198 0.04133 0.38852 0.0
N264 N 0.79961 1.01739 0.36246 0.0
C265 C 0.73593 1.00436 0.33232 0.0
C266 C 0.79713 0.98023 0.33574 0.0
C267 C 0.76549 0.97516 0.31953 0.0
H268 H 0.81964 0.95506 0.32665 0.0
H269 H 0.76398 0.94897 0.29723 0.0
H270 H 0.93144 0.24169 0.42914 0.0
H271 H 0.83365 0.08511 0.46382 0.0
H272 H 0.9894 0.26482 0.4497 0.0
H273 H 0.71172 1.00249 0.31923 0.0
H274 H 0.6832 0.05373 0.36706 0.0
H275 H 0.8984 0.22469 0.27825 0.0
H276 H 0.72445 0.12254 0.46925 0.0
H277 H 0.78288 0.12539 0.49392 0.0
H278 H 0.05928 0.28759 0.35638 0.0
H279 H 0.68728 0.09598 0.42155 0.0
H280 H 1.00313 0.2746 0.25482 0.0
H281 H 0.94289 0.25034 0.23803 0.0
N282 N 0.93343 0.23176 0.31741 0.0
C283 C 0.96618 0.24633 0.32716 0.0
C284 C 0.92485 0.23339 0.28584 0.0
C285 C 0.98388 0.26203 0.27254 0.0
C286 C 0.94991 0.24846 0.26298 0.0
C287 C 0.99245 0.26081 0.30491 0.0
H288 H 0.04681 0.2855 0.29893 0.0
N289 N 0.94712 0.2371 0.38053 0.0
C290 C 0.97324 0.24891 0.35957 0.0
C291 C 0.01262 0.26902 0.4032 0.0
C292 C 0.00683 0.26447 0.37042 0.0
C293 C 0.95241 0.2447 0.41249 0.0
C294 C 0.98531 0.25942 0.42432 0.0
O295 O 0.8229 0.13866 0.39315 0.0
O296 O 0.83861 0.17967 0.34627 0.0
O297 O 0.88902 0.30944 0.37651 0.0
O298 O 0.86966 0.28616 0.32955 0.0
O299 O 0.86126 0.04243 0.33552 0.0
O300 O 0.88771 0.1375 0.31717 0.0
O301 O 0.93523 0.13633 0.36561 0.0
O302 O 0.91069 0.03668 0.37977 0.0
O303 O 0.85379 0.93695 0.38039 0.0
O304 O 0.85453 0.97572 0.42893 0.0
O305 O 0.87703 0.19932 0.41065 0.0
O306 O 0.89049 0.09291 0.41887 0.0
C307 C 0.81608 0.17742 0.36925 0.0
C308 C 0.87506 0.07836 0.3129 0.0
C309 C 0.89054 0.3932 0.33722 0.0
C310 C 0.89615 0.5108 0.34241 0.0
C311 C 0.90879 0.45841 0.292 0.0
C312 C 0.90071 0.39825 0.30517 0.0
C313 C 0.90598 0.51452 0.3103 0.0
C314 C 0.88967 0.44951 0.35605 0.0
C315 C 0.87629 0.33189 0.34997 0.0
C316 C 0.03334 0.27632 0.34834 0.0
C317 C 0.02618 0.27491 0.31566 0.0
H318 H 0.03764 0.28235 0.41243 0.0
C319 C 0.9374 0.0743 0.37238 0.0
C320 C 0.88548 0.15114 0.42998 0.0
C321 C 0.85736 0.85832 0.42349 0.0
C322 C 0.86806 0.74206 0.41668 0.0
C323 C 0.85406 0.78618 0.4689 0.0
C324 C 0.85198 0.84822 0.4561 0.0
C325 C 0.86179 0.73349 0.44943 0.0
C326 C 0.86552 0.80509 0.40375 0.0
C327 C 0.85543 0.92471 0.4107 0.0
H328 H 0.91616 0.46178 0.2672 0.0
H329 H 0.90124 0.3563 0.28982 0.0
H330 H 0.91125 0.56096 0.2993 0.0
H331 H 0.88128 0.4462 0.38061 0.0
H332 H 0.84959 0.77887 0.49408 0.0
H333 H 0.84608 0.88831 0.4718 0.0
H334 H 0.86249 0.68577 0.46012 0.0
H335 H 0.8706 0.81297 0.37867 0.0
C336 C 0.96775 0.7916 0.83329 0.0
C337 C 0.00807 0.78114 0.87746 0.0
C338 C 0.97437 0.7947 0.86577 0.0
C339 C 0.03478 0.76503 0.85617 0.0
C340 C 0.99418 0.77265 0.81201 0.0
C341 C 0.02776 0.76013 0.82356 0.0
N342 N 0.93527 0.80522 0.82253 0.0
C343 C 0.92739 0.80086 0.79094 0.0
C344 C 0.98586 0.76532 0.7798 0.0
C345 C 0.95231 0.77952 0.76921 0.0
Gd346 Gd 0.85796 0.99795 0.88978 0.0
Gd347 Gd 0.89352 0.82949 0.86095 0.0
N348 N 0.94768 0.80832 0.88595 0.0
C349 C 0.01375 0.78201 0.91032 0.0
C350 C 0.95275 0.80322 0.91809 0.0
C351 C 0.98582 0.79216 0.93072 0.0
H352 H 0.93167 0.80417 0.9345 0.0
H353 H 0.9895 0.78947 0.95625 0.0
H354 H 0.81672 0.98699 0.81734 0.0
H355 H 0.90134 0.81062 0.78258 0.0
H356 H 0.75731 0.98713 0.79705 0.0
H357 H 0.03924 0.77211 0.9202 0.0
H358 H 0.06074 0.75451 0.86479 0.0
H359 H 0.851 1.0098 0.96838 0.0
H360 H 1.00511 0.74836 0.76295 0.0
H361 H 0.94557 0.77374 0.74434 0.0
H362 H 0.68687 0.02013 0.88958 0.0
H363 H 0.04842 0.74603 0.80748 0.0
H364 H 0.74369 0.04026 0.99072 0.0
H365 H 0.80526 0.03456 0.00765 0.0
N366 N 0.81604 1.00909 0.92921 0.0
C367 C 0.78265 1.01508 0.91896 0.0
C368 C 0.82427 1.01378 0.96067 0.0
C369 C 0.76376 0.03145 0.97319 0.0
C370 C 0.7984 0.02712 0.98298 0.0
C371 C 0.75545 0.02455 0.94089 0.0
H372 H 0.69971 0.03383 0.94652 0.0
N373 N 0.80238 0.99988 0.86585 0.0
C374 C 0.77554 1.00942 0.88651 0.0
C375 C 0.73432 1.00182 0.84315 0.0
C376 C 0.74082 1.01053 0.87564 0.0
C377 C 0.79606 0.99313 0.83402 0.0
C378 C 0.76207 0.99345 0.82227 0.0
O379 O 0.93297 0.91016 0.8546 0.0
O380 O 0.91611 0.97749 0.89522 0.0
O381 O 0.85612 0.09858 0.87289 0.0
O382 O 0.87412 0.07504 0.92055 0.0
O383 O 0.87716 0.83813 0.91394 0.0
O384 O 0.89077 0.94372 0.92401 0.0
O385 O 0.82235 0.90905 0.8987 0.0
O386 O 0.83879 0.86302 0.85323 0.0
O387 O 0.89073 0.72868 0.87638 0.0
O388 O 0.86701 0.75851 0.83206 0.0
O389 O 0.87665 1.00049 0.83898 0.0
O390 O 0.87942 0.89541 0.81899 0.0
C391 C 0.93902 0.95915 0.87377 0.0
C392 C 0.88339 0.8858 0.93427 0.0
C393 C 0.85768 0.1836 0.91213 0.0
C394 C 0.86325 0.30062 0.90792 0.0
C395 C 0.84227 0.25218 0.95691 0.0
C396 C 0.84534 0.19066 0.94342 0.0
C397 C 0.85137 0.30697 0.93937 0.0
C398 C 0.86618 0.23871 0.89438 0.0
C399 C 0.86839 0.12032 0.89982 0.0
C400 C 0.71366 0.01929 0.89752 0.0
C401 C 0.72097 0.02687 0.92998 0.0
H402 H 0.70802 1.00126 0.83396 0.0
C403 C 0.81734 0.86377 0.87714 0.0
C404 C 0.88015 0.95925 0.81531 0.0
C405 C 0.88674 0.65027 0.8351 0.0
C406 C 0.89304 0.53304 0.83755 0.0
C407 C 0.90274 0.58957 0.78777 0.0
C408 C 0.89452 0.64816 0.80243 0.0
C409 C 0.90173 0.5321 0.80512 0.0
C410 C 0.8865 0.59258 0.85263 0.0
C411 C 0.87484 0.71025 0.85054 0.0
H412 H 0.83336 0.25733 0.9812 0.0
H413 H 0.83934 0.14877 0.95787 0.0
H414 H 0.84885 0.35433 0.95028 0.0
H415 H 0.87679 0.2332 0.8706 0.0
H416 H 0.90899 0.58858 0.76269 0.0
H417 H 0.89319 0.69104 0.78784 0.0
H418 H 0.90724 0.4868 0.79312 0.0
H419 H 0.87888 0.59366 0.87748 0.0
C420 C 0.038 0.21467 0.84211 0.0
C421 C 1.00622 0.24405 0.88978 0.0
C422 C 0.03796 0.23083 0.87427 0.0
C423 C 0.97476 0.23766 0.87304 0.0
C424 C 1.00651 0.20782 0.82529 0.0
C425 C 0.9749 0.21916 0.84095 0.0
N426 N 0.06893 0.20282 0.8276 0.0
C427 C 0.07038 0.18725 0.79603 0.0
C428 C 0.00774 0.18872 0.79333 0.0
C429 C 0.03981 0.17913 0.77854 0.0
Gd430 Gd 0.15995 0.04619 0.88952 0.0
Gd431 Gd 0.11866 0.21039 0.85957 0.0
N432 N 0.06883 0.2354 0.89009 0.0
C433 C 0.00702 0.26468 0.92149 0.0
C434 C 0.06969 0.26142 0.92005 0.0
C435 C 0.03894 0.27451 0.93648 0.0
H436 H 0.09384 0.27433 0.93139 0.0
H437 H 0.0399 0.29348 0.9605 0.0
H438 H 0.18184 0.97163 0.82035 0.0
H439 H 0.09512 0.18024 0.78446 0.0
H440 H 0.2343 0.95588 0.78792 0.0
H441 H 0.98323 0.27543 0.9342 0.0
H442 H 0.95017 0.24734 0.88466 0.0
H443 H 0.18726 0.09443 0.96142 0.0
H444 H 0.98407 0.18091 0.77993 0.0
H445 H 0.041 0.1651 0.75373 0.0
H446 H 0.32616 0.03906 0.85295 0.0
H447 H 0.95042 0.21421 0.8284 0.0
H448 H 0.29802 0.11334 0.95794 0.0
H449 H 0.24271 0.12533 0.98728 0.0
N450 N 0.21109 0.06865 0.91771 0.0
C451 C 0.24125 0.05981 0.90137 0.0
C452 C 0.21135 0.08951 0.94856 0.0
C453 C 0.27381 0.09995 0.9465 0.0
C454 C 0.24264 0.10682 0.96316 0.0
C455 C 0.27341 0.07603 0.91528 0.0
H456 H 0.32887 0.08246 0.90755 0.0
N457 N 0.20802 0.02422 0.85686 0.0
C458 C 0.23956 0.03798 0.87 0.0
C459 C 0.26827 1.00069 0.82225 0.0
C460 C 0.27041 0.02834 0.85261 0.0
C461 C 0.20617 0.99111 0.82876 0.0
C462 C 0.23608 0.98038 0.81066 0.0
O463 O 0.0839 0.1214 0.85529 0.0
O464 O 0.10108 0.05308 0.89557 0.0
O465 O 0.15653 0.94146 0.88096 0.0
O466 O 0.16278 0.97956 0.92923 0.0
O467 O 0.13602 0.20304 0.91242 0.0
O468 O 0.12528 0.09644 0.92396 0.0
O469 O 0.19029 0.14333 0.89334 0.0
O470 O 0.175 0.19371 0.84784 0.0
O471 O 0.13082 0.31192 0.87248 0.0
O472 O 0.11653 0.28486 0.82391 0.0
O473 O 0.13757 0.04386 0.83958 0.0
O474 O 0.14464 0.14846 0.82098 0.0
C475 C 0.07729 0.07479 0.87564 0.0
C476 C 0.12887 0.15651 0.93314 0.0
C477 C 0.158 0.86259 0.92461 0.0
C478 C 0.15058 0.74533 0.91843 0.0
C479 C 0.15568 0.79296 0.97117 0.0
C480 C 0.15881 0.85443 0.95779 0.0
C481 C 0.15154 0.7388 0.95172 0.0
C482 C 0.154 0.80769 0.90491 0.0
C483 C 0.15869 0.92883 0.91126 0.0
C484 C 0.30244 0.04513 0.86628 0.0
C485 C 0.30396 0.06926 0.89743 0.0
H486 H 0.29142 0.99238 0.80818 0.0
C487 C 0.19769 0.18472 0.87048 0.0
C488 C 0.14016 0.0856 0.81606 0.0
C489 C 0.1289 0.39822 0.83174 0.0
C490 C 0.13551 0.51504 0.8403 0.0
C491 C 0.13292 0.47137 0.78658 0.0
C492 C 0.1296 0.409 0.79871 0.0
C493 C 0.13576 0.52398 0.80711 0.0
C494 C 0.13173 0.45158 0.85263 0.0
C495 C 0.12517 0.33095 0.84335 0.0
H496 H 0.15633 0.78731 0.99678 0.0
H497 H 0.16133 0.89568 0.97356 0.0
H498 H 0.14951 0.69154 0.96279 0.0
H499 H 0.1527 0.81357 0.87928 0.0
H500 H 0.1333 0.47897 0.76108 0.0
H501 H 0.12762 0.36906 0.78206 0.0
H502 H 0.138 0.57199 0.79689 0.0
H503 H 0.1317 0.44369 0.87814 0.0
C504 C 0.96931 0.23546 0.6629 0.0
C505 C 1.00652 0.23999 0.6164 0.0
C506 C 0.97337 0.23104 0.63008 0.0
C507 C 0.0355 0.25021 0.63613 0.0
C508 C 0.99802 0.24961 0.6826 0.0
C509 C 0.03122 0.25538 0.66913 0.0
N510 N 0.93698 0.22985 0.6754 0.0
C511 C 0.93107 0.24074 0.70692 0.0
C512 C 0.99228 0.25994 0.71512 0.0
C513 C 0.95856 0.25631 0.72724 0.0
Gd514 Gd 0.85114 0.04009 0.61489 0.0
Gd515 Gd 0.89269 0.20387 0.63989 0.0
N516 N 0.94463 0.2234 0.61149 0.0
C517 C 0.00935 0.24173 0.58323 0.0
C518 C 0.947 0.23283 0.57934 0.0
C519 C 0.97933 0.23971 0.56467 0.0
H520 H 0.92437 0.23855 0.56475 0.0
H521 H 0.98094 0.24549 0.53909 0.0
H522 H 0.80059 0.06904 0.68076 0.0
H523 H 0.90504 0.23755 0.71637 0.0
H524 H 0.73867 0.069 0.69351 0.0
H525 H 0.03432 0.24847 0.57182 0.0
H526 H 0.06114 0.25676 0.62599 0.0
H527 H 0.85624 1.00963 0.53677 0.0
H528 H 0.01355 0.27244 0.73087 0.0
H529 H 0.95367 0.26579 0.75217 0.0
H530 H 0.68228 0.02406 0.59426 0.0
H531 H 0.05364 0.26561 0.68395 0.0
H532 H 0.75247 0.97963 0.50299 0.0
H533 H 0.81581 0.97994 0.49343 0.0
N534 N 0.81596 0.02398 0.5706 0.0
C535 C 0.78121 0.02278 0.57682 0.0
C536 C 0.82855 1.01066 0.54096 0.0
C537 C 0.77003 0.99247 0.52217 0.0
C538 C 0.80579 0.99312 0.51656 0.0
C539 C 0.75731 1.00812 0.55243 0.0
H540 H 0.70281 0.99799 0.54051 0.0
N541 N 0.79308 0.04692 0.63148 0.0
C542 C 0.76951 0.03436 0.60792 0.0
C543 C 0.7226 0.04691 0.64561 0.0
C544 C 0.73363 0.0345 0.61446 0.0
C545 C 0.78238 0.05875 0.66197 0.0
C546 C 0.74704 0.05922 0.66939 0.0
O547 O 0.92778 0.11722 0.6479 0.0
O548 O 0.91032 0.04903 0.60751 0.0
O549 O 0.86817 0.95256 0.63982 0.0
O550 O 0.83748 0.94578 0.59696 0.0
O551 O 0.87498 0.19025 0.58759 0.0
O552 O 0.88597 0.08286 0.57831 0.0
O553 O 0.81798 0.13221 0.60652 0.0
O554 O 0.83696 0.18116 0.65045 0.0
O555 O 0.89617 0.30675 0.62829 0.0
O556 O 0.86184 0.27333 0.66571 0.0
O557 O 0.85841 0.04698 0.66769 0.0
O558 O 0.88852 0.13888 0.68396 0.0
C559 C 0.93392 0.06877 0.6284 0.0
C560 C 0.88162 0.14193 0.56775 0.0
C561 C 0.87656 0.86237 0.60568 0.0
C562 C 0.88966 0.74696 0.60556 0.0
C563 C 0.90934 0.81607 0.56214 0.0
C564 C 0.89452 0.86986 0.57689 0.0
C565 C 0.90643 0.7548 0.57599 0.0
C566 C 0.87503 0.80177 0.62032 0.0
C567 C 0.85494 0.91449 0.61824 0.0
C568 C 0.70986 0.02245 0.58981 0.0
C569 C 0.7216 1.00842 0.55905 0.0
H570 H 0.6953 0.04677 0.65163 0.0
C571 C 0.81465 0.17956 0.62715 0.0
C572 C 0.87401 0.08176 0.68964 0.0
C573 C 0.88073 0.38218 0.66883 0.0
C574 C 0.88389 0.49973 0.66931 0.0
C575 C 0.88027 0.44066 0.71904 0.0
C576 C 0.87934 0.38231 0.70229 0.0
C577 C 0.88207 0.49926 0.70263 0.0
C578 C 0.88354 0.44111 0.65247 0.0
C579 C 0.87415 0.32299 0.65041 0.0
H580 H 0.92253 0.82159 0.53956 0.0
H581 H 0.89589 0.9167 0.56529 0.0
H582 H 0.91722 0.71381 0.56334 0.0
H583 H 0.86193 0.79781 0.64305 0.0
H584 H 0.87865 0.44048 0.74474 0.0
H585 H 0.87623 0.33779 0.71554 0.0
H586 H 0.88191 0.54429 0.71585 0.0
H587 H 0.88365 0.44163 0.62663 0.0
C588 C 0.03877 0.82694 0.66738 0.0
C589 C 1.00532 0.80521 0.61971 0.0
C590 C 0.03758 0.81379 0.63505 0.0
C591 C 0.97449 0.81459 0.63691 0.0
C592 C 0.00793 0.83627 0.68476 0.0
C593 C 0.97574 0.83053 0.66929 0.0
N594 N 0.0703 0.83377 0.68153 0.0
C595 C 0.07293 0.84491 0.71345 0.0
C596 C 0.01048 0.85273 0.71697 0.0
C597 C 0.04306 0.85529 0.73161 0.0
Gd598 Gd 0.1589 0.99812 0.61609 0.0
Gd599 Gd 0.11879 0.83343 0.64799 0.0
N600 N 0.06795 0.80794 0.61882 0.0
C601 C 1.00506 0.78652 0.5877 0.0
C602 C 0.06773 0.78365 0.5885 0.0
C603 C 0.03642 0.77425 0.57226 0.0
H604 H 0.09145 0.77005 0.57665 0.0
H605 H 0.0365 0.75681 0.54795 0.0
H606 H 0.18819 0.07698 0.68109 0.0
H607 H 0.0981 0.84798 0.72476 0.0
H608 H 0.24365 0.09113 0.70976 0.0
H609 H 0.98089 0.77907 0.57505 0.0
H610 H 0.94958 0.80959 0.62541 0.0
H611 H 0.17937 0.94942 0.54201 0.0
H612 H 0.98748 0.86368 0.73068 0.0
H613 H 0.0452 0.86643 0.75673 0.0
H614 H 0.32798 0.99524 0.64045 0.0
H615 H 0.95169 0.8378 0.6822 0.0
H616 H 0.28925 0.91801 0.53878 0.0
H617 H 0.23135 0.90965 0.51348 0.0
N618 N 0.20715 0.97285 0.58411 0.0
C619 C 0.23888 0.98012 0.59809 0.0
C620 C 0.20437 0.95124 0.55349 0.0
C621 C 0.26647 0.93447 0.55158 0.0
C622 C 0.23382 0.92965 0.5372 0.0
C623 C 0.26936 0.96043 0.58228 0.0
H624 H 0.32523 0.95009 0.58633 0.0
N625 N 0.21029 0.01958 0.64427 0.0
C626 C 0.24033 1.00317 0.62919 0.0
C627 C 0.27359 0.04028 0.6744 0.0
C628 C 0.27271 1.01101 0.64436 0.0
C629 C 0.21147 0.05533 0.67153 0.0
C630 C 0.243 0.06489 0.68744 0.0
O631 O 0.08385 0.92228 0.65346 0.0
O632 O 0.09948 0.99098 0.61266 0.0
O633 O 0.155 0.10254 0.62527 0.0
O634 O 0.1616 0.06573 0.57679 0.0
O635 O 0.13402 0.84263 0.59468 0.0
O636 O 0.12146 0.94863 0.58395 0.0
O637 O 0.18871 0.90079 0.61172 0.0
O638 O 0.17479 0.85562 0.65836 0.0
O639 O 0.12948 0.73347 0.63302 0.0
O640 O 0.12758 0.75857 0.68287 0.0
O641 O 0.14204 1.00201 0.66789 0.0
O642 O 0.14132 0.89666 0.68783 0.0
C643 C 0.07612 0.96768 0.63266 0.0
C644 C 0.12488 0.88881 0.5744 0.0
C645 C 0.15785 0.18268 0.58232 0.0
C646 C 0.14972 0.29996 0.58854 0.0
C647 C 0.16551 0.25425 0.53709 0.0
C648 C 0.16539 0.19219 0.55 0.0
C649 C 0.15803 0.30769 0.55613 0.0
C650 C 0.14991 0.23677 0.60163 0.0
C651 C 0.15807 0.11605 0.59515 0.0
C652 C 0.3031 0.99085 0.62883 0.0
C653 C 0.30149 0.96548 0.59793 0.0
H654 H 0.29779 0.04636 0.68718 0.0
C655 C 0.19655 0.86074 0.63492 0.0
C656 C 0.14147 0.96043 0.69173 0.0
C657 C 0.11707 0.64801 0.67023 0.0
C658 C 0.11769 0.53044 0.66223 0.0
C659 C 0.09172 0.57629 0.70981 0.0
C660 C 0.0996 0.63864 0.69926 0.0
C661 C 0.10102 0.52249 0.69165 0.0
C662 C 0.12541 0.59356 0.65142 0.0
C663 C 0.13149 0.71241 0.66217 0.0
H664 H 0.17162 0.26102 0.51217 0.0
H665 H 0.17142 0.15159 0.53459 0.0
H666 H 0.15915 0.35534 0.54539 0.0
H667 H 0.14334 0.22954 0.62646 0.0
H668 H 0.07885 0.56959 0.73246 0.0
H669 H 0.09298 0.6793 0.71441 0.0
H670 H 0.09485 0.4745 0.70045 0.0
H671 H 0.13931 0.60001 0.6292 0.0
C672 C 0.73801 0.56632 0.09476 0.0
C673 C 0.77342 0.53978 0.14055 0.0
C674 C 0.74077 0.54349 0.1257 0.0
C675 C 0.8028 0.56314 0.12452 0.0
C676 C 0.76759 0.58754 0.0781 0.0
C677 C 0.80003 0.58651 0.09332 0.0
N678 N 0.70582 0.57096 0.08158 0.0
C679 C 0.70192 0.58891 0.05055 0.0
C680 C 0.76347 0.61053 0.04696 0.0
C681 C 0.73048 0.61078 0.03306 0.0
Gd682 Gd 0.61667 0.71561 0.14456 0.0
Gd683 Gd 0.65889 0.54681 0.1154 0.0
N684 N 0.71165 0.52313 0.14093 0.0
C685 C 0.77549 0.51157 0.17081 0.0
C686 C 0.71447 0.48631 0.16774 0.0
C687 C 0.74622 0.48187 0.18377 0.0
H688 H 0.69211 0.46115 0.1771 0.0
H689 H 0.74802 0.4559 0.20611 0.0
H690 H 0.57711 0.7406 0.07291 0.0
H691 H 0.67688 0.58608 0.03934 0.0
H692 H 0.51836 0.75691 0.05239 0.0
H693 H 0.79967 0.50996 0.18377 0.0
H694 H 0.8278 0.56245 0.13579 0.0
H695 H 0.61139 0.73375 0.2238 0.0
H696 H 0.78557 0.62747 0.03337 0.0
H697 H 0.72708 0.62708 0.00875 0.0
H698 H 0.4487 0.78348 0.14591 0.0
H699 H 0.82311 0.60356 0.0812 0.0
H700 H 0.50617 0.78084 0.24706 0.0
H701 H 0.56689 0.76057 0.26384 0.0
N702 N 0.57613 0.73775 0.18473 0.0
C703 C 0.54315 0.75061 0.17495 0.0
C704 C 0.58482 0.74124 0.21622 0.0
C705 C 0.52553 0.76835 0.2294 0.0
C706 C 0.55975 0.75695 0.23896 0.0
C707 C 0.51676 0.76474 0.19713 0.0
H708 H 0.46201 0.78609 0.20321 0.0
N709 N 0.56203 0.73899 0.12171 0.0
C710 C 0.53582 0.75089 0.14257 0.0
C711 C 0.49527 0.76335 0.09892 0.0
C712 C 0.50167 0.76287 0.13171 0.0
C713 C 0.55623 0.7437 0.08967 0.0
C714 C 0.52278 0.75452 0.07782 0.0
O715 O 0.68767 0.6443 0.11015 0.0
O716 O 0.67178 0.6874 0.15667 0.0
O717 O 0.61942 0.8141 0.12537 0.0
O718 O 0.64023 0.79238 0.172 0.0
O719 O 0.65097 0.54967 0.16865 0.0
O720 O 0.6231 0.64412 0.18622 0.0
O721 O 0.57561 0.63936 0.13679 0.0
O722 O 0.60202 0.5381 0.13091 0.0
O723 O 0.66032 0.44206 0.1222 0.0
O724 O 0.65269 0.48284 0.07457 0.0
O725 O 0.63326 0.70403 0.09211 0.0
O726 O 0.61943 0.59781 0.0855 0.0
C727 C 0.69461 0.68341 0.13391 0.0
C728 C 0.63689 0.58588 0.19109 0.0
C729 C 0.61939 0.89926 0.16401 0.0
C730 C 0.61558 1.01702 0.15887 0.0
C731 C 0.60152 0.9653 0.20909 0.0
C732 C 0.60893 0.90479 0.19597 0.0
C733 C 0.60537 0.02126 0.19086 0.0
C734 C 0.62137 0.95551 0.14525 0.0
C735 C 0.633 0.83739 0.15137 0.0
C736 C 0.47509 0.77449 0.15382 0.0
C737 C 0.48267 0.77589 0.18644 0.0
H738 H 0.46937 0.77207 0.08966 0.0
C739 C 0.57441 0.57568 0.13528 0.0
C740 C 0.62528 0.65488 0.0733 0.0
C741 C 0.65332 0.36512 0.07881 0.0
C742 C 0.64335 0.2486 0.08504 0.0
C743 C 0.65635 0.29418 0.03291 0.0
C744 C 0.65825 0.35598 0.04607 0.0
C745 C 0.64914 0.24088 0.05216 0.0
C746 C 0.64583 0.3113 0.09832 0.0
C747 C 0.65534 0.43104 0.0921 0.0
H748 H 0.59381 0.96899 0.23379 0.0
H749 H 0.60766 0.86291 0.21128 0.0
H750 H 0.60049 0.06794 0.2018 0.0
H751 H 0.62976 0.95181 0.12072 0.0
H752 H 0.66056 0.28751 0.00765 0.0
H753 H 0.66372 0.39662 0.03058 0.0
H754 H 0.64845 0.1934 0.0412 0.0
H755 H 0.64115 0.3185 0.12352 0.0
C756 C 0.2727 0.47127 0.09774 0.0
C757 C 0.23792 0.49801 0.14381 0.0
C758 C 0.2704 0.49412 0.12866 0.0
C759 C 0.20818 0.47555 0.12791 0.0
C760 C 0.24281 0.45081 0.0812 0.0
C761 C 0.2105 0.45244 0.09661 0.0
N762 N 0.30471 0.4663 0.08434 0.0
C763 C 0.30822 0.44844 0.05323 0.0
C764 C 0.24648 0.4282 0.04995 0.0
C765 C 0.27933 0.42738 0.03586 0.0
Gd766 Gd 0.39552 0.32166 0.14485 0.0
Gd767 Gd 0.35236 0.49007 0.11756 0.0
N768 N 0.2998 0.51439 0.14355 0.0
C769 C 0.23634 0.52538 0.17427 0.0
C770 C 0.29746 0.55014 0.17079 0.0
C771 C 0.26595 0.55428 0.18719 0.0
H772 H 0.32008 0.57435 0.18034 0.0
H773 H 0.26461 0.57926 0.20982 0.0
H774 H 0.4365 0.29298 0.07548 0.0
H775 H 0.33336 0.44937 0.0421 0.0
H776 H 0.49584 0.27222 0.05655 0.0
H777 H 0.21231 0.52633 0.18754 0.0
H778 H 0.18323 0.47701 0.13938 0.0
H779 H 0.39755 0.3014 0.22426 0.0
H780 H 0.22415 0.41174 0.03645 0.0
H781 H 0.28241 0.41064 0.0116 0.0
H782 H 0.56312 0.25249 0.15232 0.0
H783 H 0.18719 0.43611 0.08454 0.0
H784 H 0.50224 0.25858 0.25154 0.0
H785 H 0.44075 0.27697 0.26605 0.0
N786 N 0.43462 0.30072 0.18667 0.0
C787 C 0.46807 0.28894 0.17818 0.0
C788 C 0.42456 0.29556 0.21776 0.0
C789 C 0.48356 0.27098 0.23321 0.0
C790 C 0.44886 0.28105 0.24147 0.0
C791 C 0.4936 0.27492 0.20129 0.0
H792 H 0.54803 0.25302 0.20925 0.0
N793 N 0.45075 0.29654 0.12446 0.0
C794 C 0.47643 0.28711 0.14613 0.0
C795 C 0.51783 0.26938 0.10374 0.0
C796 C 0.51072 0.27338 0.13636 0.0
C797 C 0.45716 0.28916 0.09265 0.0
C798 C 0.49082 0.27667 0.08181 0.0
O799 O 0.32427 0.39288 0.11062 0.0
O800 O 0.34064 0.35011 0.15688 0.0
O801 O 0.39301 0.22427 0.12435 0.0
O802 O 0.36911 0.24468 0.16973 0.0
O803 O 0.35975 0.48444 0.17082 0.0
O804 O 0.39111 0.3928 0.18679 0.0
O805 O 0.43362 0.39739 0.12807 0.0
O806 O 0.40754 0.49626 0.13873 0.0
O807 O 0.34814 0.59526 0.12253 0.0
O808 O 0.36334 0.55201 0.07705 0.0
O809 O 0.37888 0.33388 0.09246 0.0
O810 O 0.39029 0.44161 0.08529 0.0
C811 C 0.31802 0.35248 0.13387 0.0
C812 C 0.37524 0.44865 0.19265 0.0
C813 C 0.38926 0.13779 0.16175 0.0
C814 C 0.39144 0.02013 0.15669 0.0
C815 C 0.40782 0.07136 0.20647 0.0
C816 C 0.40095 0.13212 0.19336 0.0
C817 C 0.40268 1.01552 0.1884 0.0
C818 C 0.38533 0.0816 0.14326 0.0
C819 C 0.37715 0.20041 0.14901 0.0
C820 C 0.5366 0.26273 0.15937 0.0
C821 C 0.52801 0.26312 0.19177 0.0
H822 H 0.54387 0.25923 0.09529 0.0
C823 C 0.43555 0.45959 0.13473 0.0
C824 C 0.38643 0.3833 0.07368 0.0
C825 C 0.35984 0.66935 0.07874 0.0
C826 C 0.36796 0.7865 0.08347 0.0
C827 C 0.35983 0.73654 0.03144 0.0
C828 C 0.35756 0.67571 0.04558 0.0
C829 C 0.36475 0.79157 0.05015 0.0
C830 C 0.36514 0.72478 0.09769 0.0
C831 C 0.35717 0.60462 0.09313 0.0
H832 H 0.41645 0.06751 0.23094 0.0
H833 H 0.40376 0.17419 0.20837 0.0
H834 H 0.40763 0.96866 0.19915 0.0
H835 H 0.37581 0.08552 0.11902 0.0
H836 H 0.35769 0.7411 0.00584 0.0
H837 H 0.35376 0.63366 0.03055 0.0
H838 H 0.36574 0.83822 0.0384 0.0
H839 H 0.36792 0.71952 0.12325 0.0
C840 C 0.74016 0.4768 0.40146 0.0
C841 C 0.77101 0.50322 0.35288 0.0
C842 C 0.73957 0.49468 0.3694 0.0
C843 C 0.80255 0.49103 0.36839 0.0
C844 C 0.77185 0.46328 0.4169 0.0
C845 C 0.80309 0.47069 0.4002 0.0
N846 N 0.70947 0.46917 0.41703 0.0
C847 C 0.70855 0.44998 0.44809 0.0
C848 C 0.77113 0.44166 0.44852 0.0
C849 C 0.73932 0.43446 0.46406 0.0
Gd850 Gd 0.61522 0.33069 0.3579 0.0
Gd851 Gd 0.65971 0.4929 0.3874 0.0
N852 N 0.70851 0.50547 0.35468 0.0
C853 C 0.76998 0.52558 0.32144 0.0
C854 C 0.70765 0.5337 0.32529 0.0
C855 C 0.73815 0.54207 0.3078 0.0
H856 H 0.68386 0.55283 0.31566 0.0
H857 H 0.73715 0.56296 0.28418 0.0
H858 H 0.59013 0.26784 0.42958 0.0
H859 H 0.68406 0.4462 0.46037 0.0
H860 H 0.53646 0.2568 0.46033 0.0
H861 H 0.79368 0.53286 0.30802 0.0
H862 H 0.82653 0.49797 0.35581 0.0
H863 H 0.59057 0.36278 0.28312 0.0
H864 H 0.79495 0.43018 0.46109 0.0
H865 H 0.73851 0.41757 0.48844 0.0
H866 H 0.44656 0.32013 0.38752 0.0
H867 H 0.82776 0.4611 0.41172 0.0
H868 H 0.47981 0.38116 0.2818 0.0
H869 H 0.53635 0.38729 0.25399 0.0
N870 N 0.56491 0.34407 0.32696 0.0
C871 C 0.53401 0.33699 0.34225 0.0
C872 C 0.56601 0.35977 0.2954 0.0
C873 C 0.50347 0.36939 0.29454 0.0
C874 C 0.53536 0.37343 0.27883 0.0
C875 C 0.50243 0.34982 0.32644 0.0
H876 H 0.44644 0.35399 0.33135 0.0
N877 N 0.56538 0.31098 0.38924 0.0
C878 C 0.5343 0.32054 0.37434 0.0
C879 C 0.50365 0.29169 0.42245 0.0
C880 C 0.50266 0.3128 0.39082 0.0
C881 C 0.56615 0.2844 0.41906 0.0
C882 C 0.53551 0.27614 0.43639 0.0
O883 O 0.68907 0.39495 0.39054 0.0
O884 O 0.67179 0.34343 0.34574 0.0
O885 O 0.62467 0.22785 0.37064 0.0
O886 O 0.61085 0.25655 0.32218 0.0
O887 O 0.6353 0.49661 0.33834 0.0
O888 O 0.64084 0.39233 0.31888 0.0
O889 O 0.58335 0.4228 0.35531 0.0
O890 O 0.60148 0.48773 0.39655 0.0
O891 O 0.65881 0.59538 0.37495 0.0
O892 O 0.66757 0.56633 0.42366 0.0
O893 O 0.63387 0.33718 0.41043 0.0
O894 O 0.62667 0.44475 0.42403 0.0
C895 C 0.69514 0.35242 0.36786 0.0
C896 C 0.63638 0.45546 0.31448 0.0
C897 C 0.62083 0.14217 0.32951 0.0
C898 C 0.62442 0.02455 0.33741 0.0
C899 C 0.63168 0.07068 0.28461 0.0
C900 C 0.62661 0.13265 0.29682 0.0
C901 C 0.63092 1.01712 0.30471 0.0
C902 C 0.61899 0.08763 0.34982 0.0
C903 C 0.61828 0.2095 0.34153 0.0
C904 C 0.47108 0.32527 0.37512 0.0
C905 C 0.47098 0.34416 0.34308 0.0
H906 H 0.47992 0.28501 0.4359 0.0
C907 C 0.5771 0.46644 0.37719 0.0
C908 C 0.62786 0.38324 0.43182 0.0
C909 C 0.64088 0.66919 0.41504 0.0
C910 C 0.62375 0.78363 0.40981 0.0
C911 C 0.60455 0.71931 0.45521 0.0
C912 C 0.62186 0.66505 0.44342 0.0
C913 C 0.60596 0.77827 0.43898 0.0
C914 C 0.64107 0.72803 0.39799 0.0
C915 C 0.66282 0.6146 0.40419 0.0
H916 H 0.63662 0.06421 0.25946 0.0
H917 H 0.62795 0.17341 0.28061 0.0
H918 H 0.63531 0.96951 0.29458 0.0
H919 H 0.61479 0.09426 0.37513 0.0
H920 H 0.59043 0.71599 0.47741 0.0
H921 H 0.62094 0.62033 0.45691 0.0
H922 H 0.59321 0.81964 0.44963 0.0
H923 H 0.65489 0.72994 0.37558 0.0
C924 C 0.27654 0.54879 0.40343 0.0
C925 C 0.24641 0.51335 0.35582 0.0
C926 C 0.27755 0.527 0.37194 0.0
C927 C 0.21476 0.52442 0.37111 0.0
C928 C 0.24459 0.56156 0.41846 0.0
C929 C 0.21362 0.54935 0.40205 0.0
N930 N 0.30697 0.5609 0.41878 0.0
C931 C 0.30742 0.58279 0.44943 0.0
C932 C 0.24476 0.58708 0.44937 0.0
C933 C 0.27635 0.59821 0.46481 0.0
Gd934 Gd 0.39604 0.70527 0.35772 0.0
Gd935 Gd 0.35706 0.54075 0.38927 0.0
N936 N 0.30876 0.51734 0.35746 0.0
C937 C 0.24789 0.48735 0.32507 0.0
C938 C 0.31037 0.48618 0.32881 0.0
C939 C 0.28007 0.47264 0.31173 0.0
H940 H 0.33475 0.46931 0.31938 0.0
H941 H 0.28155 0.44949 0.28864 0.0
H942 H 0.42091 0.77185 0.42886 0.0
H943 H 0.33175 0.58899 0.46175 0.0
H944 H 0.47482 0.78747 0.45889 0.0
H945 H 0.22436 0.47622 0.31196 0.0
H946 H 0.19118 0.51273 0.35914 0.0
H947 H 0.41993 0.67315 0.28286 0.0
H948 H 0.22068 0.59815 0.46154 0.0
H949 H 0.27677 0.61768 0.48874 0.0
H950 H 0.5645 0.72791 0.38543 0.0
H951 H 0.18873 0.55853 0.41316 0.0
H952 H 0.53094 0.66221 0.28052 0.0
H953 H 0.47416 0.65162 0.25328 0.0
N954 N 0.44597 0.69573 0.32616 0.0
C955 C 0.47694 0.70573 0.34103 0.0
C956 C 0.44464 0.67877 0.29475 0.0
C957 C 0.50729 0.67346 0.2933 0.0
C958 C 0.47527 0.6667 0.27795 0.0
C959 C 0.50847 0.6944 0.32499 0.0
H960 H 0.56456 0.69351 0.32946 0.0
N961 N 0.44585 0.72998 0.38835 0.0
C962 C 0.47683 0.72271 0.37308 0.0
C963 C 0.50764 0.75429 0.42076 0.0
C964 C 0.50852 0.73275 0.3892 0.0
C965 C 0.44501 0.75697 0.41808 0.0
C966 C 0.47575 0.76782 0.43501 0.0
O967 O 0.32463 0.6358 0.39136 0.0
O968 O 0.33991 0.68644 0.34581 0.0
O969 O 0.38396 0.80702 0.36974 0.0
O970 O 0.39797 0.77852 0.3213 0.0
O971 O 0.37993 0.53721 0.33978 0.0
O972 O 0.37069 0.64028 0.31996 0.0
O973 O 0.43051 0.6162 0.35478 0.0
O974 O 0.41515 0.55278 0.39721 0.0
O975 O 0.36242 0.43658 0.38001 0.0
O976 O 0.35475 0.47287 0.42846 0.0
O977 O 0.37813 0.70004 0.41041 0.0
O978 O 0.39052 0.59457 0.42325 0.0
C979 C 0.31706 0.67641 0.36814 0.0
C980 C 0.37674 0.57761 0.3158 0.0
C981 C 0.38562 0.89222 0.32864 0.0
C982 C 0.37941 1.00917 0.33706 0.0
C983 C 0.37987 0.96475 0.28343 0.0
C984 C 0.38368 0.90251 0.29564 0.0
C985 C 0.37783 1.01768 0.30386 0.0
C986 C 0.38371 0.94585 0.34943 0.0
C987 C 0.38946 0.82518 0.34048 0.0
C988 C 0.54001 0.72171 0.37326 0.0
C989 C 0.54002 0.7023 0.34131 0.0
H990 H 0.53137 0.76279 0.43396 0.0
C991 C 0.43841 0.57405 0.3769 0.0
C992 C 0.38586 0.65482 0.43169 0.0
C993 C 0.36126 0.35638 0.42303 0.0
C994 C 0.36819 0.23923 0.41597 0.0
C995 C 0.36464 0.28559 0.4691 0.0
C996 C 0.36125 0.3474 0.45616 0.0
C997 C 0.3681 0.23189 0.44924 0.0
C998 C 0.36464 0.30199 0.4029 0.0
C999 C 0.35974 0.42291 0.41015 0.0
H1000 H 0.37842 0.97197 0.25795 0.0
H1001 H 0.38497 0.86229 0.2791 0.0
H1002 H 0.37522 0.06555 0.29356 0.0
H1003 H 0.38481 0.93821 0.37494 0.0
H1004 H 0.36465 0.27929 0.49468 0.0
H1005 H 0.35905 0.38829 0.47222 0.0
H1006 H 0.37023 0.18434 0.45998 0.0
H1007 H 0.36521 0.30852 0.37729 0.0
C1008 C 0.47279 0.30348 0.83458 0.0
C1009 C 0.5153 0.31301 0.8771 0.0
C1010 C 0.48051 0.31508 0.86651 0.0
C1011 C 0.54202 0.2997 0.85537 0.0
C1012 C 0.49945 0.28649 0.81316 0.0
C1013 C 0.53411 0.2856 0.8236 0.0
N1014 N 0.43921 0.30641 0.82469 0.0
C1015 C 0.43028 0.29128 0.79415 0.0
C1016 C 0.49043 0.26956 0.78197 0.0
C1017 C 0.45569 0.27206 0.7724 0.0
Gd1018 Gd 0.35669 0.49651 0.8881 0.0
Gd1019 Gd 0.39866 0.33333 0.86361 0.0
N1020 N 0.45405 0.32618 0.88733 0.0
C1021 C 0.52221 0.32276 0.90941 0.0
C1022 C 0.46069 0.33001 0.91923 0.0
C1023 C 0.49476 0.33009 0.93064 0.0
H1024 H 0.44029 0.33111 0.93633 0.0
H1025 H 0.49979 0.33466 0.95591 0.0
H1026 H 0.31004 0.47104 0.81997 0.0
H1027 H 0.40348 0.29371 0.78659 0.0
H1028 H 0.24869 0.46441 0.80477 0.0
H1029 H 0.54851 0.32244 0.91834 0.0
H1030 H 0.56882 0.29852 0.86309 0.0
H1031 H 0.35786 0.52443 0.96669 0.0
H1032 H 0.51007 0.25408 0.76518 0.0
H1033 H 0.44851 0.25938 0.74826 0.0
H1034 H 0.18679 0.50286 0.90194 0.0
H1035 H 0.55497 0.27354 0.80734 0.0
H1036 H 0.2522 0.54586 0.99665 0.0
H1037 H 0.31509 0.54903 0.00876 0.0
N1038 N 0.31937 0.50983 0.93106 0.0
C1039 C 0.28493 0.50948 0.92344 0.0
C1040 C 0.33041 0.52204 0.96137 0.0
C1041 C 0.27081 0.53536 0.97802 0.0
C1042 C 0.30631 0.53656 0.98508 0.0
C1043 C 0.25971 0.52098 0.94703 0.0
H1044 H 0.20457 0.527 0.95683 0.0
N1045 N 0.29965 0.48894 0.86906 0.0
C1046 C 0.27482 0.49875 0.89177 0.0
C1047 C 0.23005 0.48275 0.85222 0.0
C1048 C 0.2393 0.4958 0.88382 0.0
C1049 C 0.29067 0.47822 0.83803 0.0
C1050 C 0.25576 0.47424 0.82926 0.0
O1051 O 0.4325 0.42234 0.85655 0.0
O1052 O 0.4154 0.48771 0.89788 0.0
O1053 O 0.37298 0.58556 0.86418 0.0
O1054 O 0.34198 0.58963 0.90681 0.0
O1055 O 0.38119 0.34475 0.91604 0.0
O1056 O 0.38985 0.45293 0.92568 0.0
O1057 O 0.32387 0.4033 0.89455 0.0
O1058 O 0.34295 0.35281 0.85082 0.0
O1059 O 0.36568 0.25643 0.84672 0.0
O1060 O 0.41081 0.23233 0.87508 0.0
O1061 O 0.36874 0.49248 0.83594 0.0
O1062 O 0.38831 0.39168 0.81841 0.0
C1063 C 0.43924 0.46836 0.87728 0.0
C1064 C 0.38503 0.39385 0.93606 0.0
C1065 C 0.381 0.67364 0.89958 0.0
C1066 C 0.39839 0.78644 0.89892 0.0
C1067 C 0.41269 0.71881 0.94435 0.0
C1068 C 0.39689 0.66599 0.92952 0.0
C1069 C 0.41336 0.77898 0.92921 0.0
C1070 C 0.38222 0.73354 0.88415 0.0
C1071 C 0.35947 0.6223 0.88614 0.0
C1072 C 0.21419 0.50542 0.90757 0.0
C1073 C 0.22433 0.51873 0.93894 0.0
H1074 H 0.20317 0.47905 0.8452 0.0
C1075 C 0.31992 0.35694 0.8734 0.0
C1076 C 0.3793 0.45283 0.81352 0.0
C1077 C 0.38966 0.15279 0.83872 0.0
C1078 C 0.39513 0.03515 0.83648 0.0
C1079 C 0.38187 0.09655 0.7885 0.0
C1080 C 0.38222 0.15386 0.80597 0.0
C1081 C 0.38759 0.03749 0.80369 0.0
C1082 C 0.39699 0.09368 0.85363 0.0
C1083 C 0.38462 0.21043 0.85868 0.0
H1084 H 0.42436 0.71316 0.96764 0.0
H1085 H 0.39617 0.61981 0.94177 0.0
H1086 H 0.42581 0.81953 0.94098 0.0
H1087 H 0.36949 0.73961 0.86126 0.0
H1088 H 0.37553 0.09762 0.7634 0.0
H1089 H 0.37511 0.1983 0.79405 0.0
H1090 H 0.38449 0.99364 0.78995 0.0
H1091 H 0.40254 0.09343 0.87894 0.0
C1092 C 0.54229 0.70324 0.84324 0.0
C1093 C 0.50852 0.70533 0.89175 0.0
C1094 C 0.54085 0.70638 0.87615 0.0
C1095 C 0.47806 0.696 0.87391 0.0
C1096 C 0.51171 0.69649 0.82511 0.0
C1097 C 0.47958 0.69162 0.84066 0.0
N1098 N 0.57377 0.70689 0.82895 0.0
C1099 C 0.57638 0.71065 0.79666 0.0
C1100 C 0.51447 0.69435 0.79193 0.0
C1101 C 0.5469 0.70293 0.77759 0.0
Gd1102 Gd 0.66511 0.53637 0.88928 0.0
Gd1103 Gd 0.62208 0.69864 0.86251 0.0
N1104 N 0.57097 0.7132 0.89275 0.0
C1105 C 0.50781 0.71527 0.92468 0.0
C1106 C 0.56994 0.73071 0.9241 0.0
C1107 C 0.53854 0.73008 0.94076 0.0
H1108 H 0.59293 0.7467 0.93641 0.0
H1109 H 0.53804 0.74175 0.96588 0.0
H1110 H 0.71445 0.56766 0.82301 0.0
H1111 H 0.60138 0.71776 0.78561 0.0
H1112 H 0.77609 0.5673 0.80928 0.0
H1113 H 0.48364 0.71462 0.93768 0.0
H1114 H 0.4532 0.69297 0.88554 0.0
H1115 H 0.6613 0.50875 0.9677 0.0
H1116 H 0.49169 0.68686 0.77727 0.0
H1117 H 0.54929 0.70287 0.75193 0.0
H1118 H 0.83432 0.51713 0.90709 0.0
H1119 H 0.45575 0.6855 0.8272 0.0
H1120 H 0.76566 0.47934 1.00018 0.0
H1121 H 0.70252 0.48009 0.01067 0.0
N1122 N 0.70101 0.52175 0.93319 0.0
C1123 C 0.73565 0.52049 0.9265 0.0
C1124 C 0.68891 0.50937 0.96309 0.0
C1125 C 0.74778 0.49167 0.98116 0.0
C1126 C 0.71211 0.49254 0.9873 0.0
C1127 C 0.75998 0.50608 0.95057 0.0
H1128 H 0.81464 0.49405 0.9615 0.0
N1129 N 0.72282 0.54458 0.87202 0.0
C1130 C 0.74679 0.53178 0.89521 0.0
C1131 C 0.79295 0.54388 0.85678 0.0
C1132 C 0.78254 0.53114 0.88806 0.0
C1133 C 0.73297 0.55688 0.84144 0.0
C1134 C 0.76814 0.55712 0.83347 0.0
O1135 O 0.59084 0.60637 0.85494 0.0
O1136 O 0.60623 0.54489 0.89802 0.0
O1137 O 0.64786 0.44779 0.86521 0.0
O1138 O 0.67962 0.44259 0.90742 0.0
O1139 O 0.64046 0.68789 0.915 0.0
O1140 O 0.63064 0.5805 0.92588 0.0
O1141 O 0.69782 0.62959 0.89697 0.0
O1142 O 0.67875 0.68114 0.85344 0.0
O1143 O 0.61676 0.80142 0.87428 0.0
O1144 O 0.64535 0.77153 0.83254 0.0
O1145 O 0.65676 0.54027 0.83645 0.0
O1146 O 0.6331 0.63715 0.81835 0.0
C1147 C 0.58277 0.56378 0.87692 0.0
C1148 C 0.63373 0.64061 0.93551 0.0
C1149 C 0.64109 0.35739 0.89977 0.0
C1150 C 0.62573 0.24274 0.89813 0.0
C1151 C 0.61267 0.30797 0.94504 0.0
C1152 C 0.62655 0.3625 0.93028 0.0
C1153 C 0.61261 0.24838 0.92934 0.0
C1154 C 0.63994 0.29819 0.88353 0.0
C1155 C 0.66189 0.41037 0.88666 0.0
C1156 C 0.80678 0.51782 0.91221 0.0
C1157 C 0.79555 0.50499 0.94328 0.0
H1158 H 0.82005 0.54352 0.85031 0.0
C1159 C 0.70093 0.67797 0.87677 0.0
C1160 C 0.64506 0.57773 0.81354 0.0
C1161 C 0.62371 0.87899 0.83267 0.0
C1162 C 0.62084 0.99674 0.83249 0.0
C1163 C 0.61221 0.93699 0.78341 0.0
C1164 C 0.61679 0.87867 0.79979 0.0
C1165 C 0.61464 0.99592 0.7996 0.0
C1166 C 0.62514 0.93823 0.849 0.0
C1167 C 0.6344 0.8199 0.84955 0.0
H1168 H 0.60227 0.31168 0.9689 0.0
H1169 H 0.62714 0.408 0.94316 0.0
H1170 H 0.60259 0.20676 0.94199 0.0
H1171 H 0.65055 0.29574 0.85969 0.0
H1172 H 0.60733 0.93657 0.75803 0.0
H1173 H 0.61596 0.83372 0.78655 0.0
H1174 H 0.61135 0.04083 0.78655 0.0
H1175 H 0.63097 0.93901 0.87429 0.0
C1176 C 0.4684 0.7384 0.67028 0.0
C1177 C 0.51024 0.73842 0.62713 0.0
C1178 C 0.47589 0.72987 0.63819 0.0
C1179 C 0.53666 0.75554 0.64862 0.0
C1180 C 0.49466 0.75803 0.69166 0.0
C1181 C 0.52883 0.76595 0.68073 0.0
N1182 N 0.43529 0.72975 0.68047 0.0
C1183 C 0.4266 0.73962 0.71155 0.0
C1184 C 0.48563 0.77058 0.72331 0.0
C1185 C 0.45152 0.76077 0.73338 0.0
Gd1186 Gd 0.35093 0.5415 0.61464 0.0
Gd1187 Gd 0.39438 0.7035 0.64156 0.0
N1188 N 0.44954 0.71555 0.61768 0.0
C1189 C 0.51693 0.73126 0.59463 0.0
C1190 C 0.45584 0.71265 0.58573 0.0
C1191 C 0.48952 0.71893 0.57382 0.0
H1192 H 0.43534 0.70769 0.56893 0.0
H1193 H 0.49416 0.71567 0.54845 0.0
H1194 H 0.29945 0.56803 0.67975 0.0
H1195 H 0.40008 0.73303 0.71936 0.0
H1196 H 0.23727 0.56667 0.69184 0.0
H1197 H 0.54295 0.73717 0.58525 0.0
H1198 H 0.56312 0.76235 0.64048 0.0
H1199 H 0.3576 0.51112 0.53672 0.0
H1200 H 0.50474 0.78845 0.74008 0.0
H1201 H 0.44433 0.77007 0.75787 0.0
H1202 H 0.18248 0.51775 0.59218 0.0
H1203 H 0.54936 0.7806 0.6969 0.0
H1204 H 0.25466 0.47744 0.5016 0.0
H1205 H 0.31821 0.47981 0.49285 0.0
N1206 N 0.31658 0.52488 0.56988 0.0
C1207 C 0.28174 0.52321 0.57554 0.0
C1208 C 0.32983 0.51139 0.54051 0.0
C1209 C 0.27177 0.49144 0.52092 0.0
C1210 C 0.30764 0.49316 0.51578 0.0
C1211 C 0.25837 0.50726 0.55092 0.0
H1212 H 0.20419 0.49384 0.53847 0.0
N1213 N 0.2926 0.54716 0.63031 0.0
C1214 C 0.26946 0.53448 0.60644 0.0
C1215 C 0.22199 0.5448 0.64369 0.0
C1216 C 0.2335 0.53289 0.61264 0.0
C1217 C 0.28145 0.55786 0.66075 0.0
C1218 C 0.24603 0.55747 0.66778 0.0
O1219 O 0.42881 0.61512 0.64655 0.0
O1220 O 0.40954 0.55121 0.60522 0.0
O1221 O 0.37046 0.45485 0.63876 0.0
O1222 O 0.33673 0.44648 0.59785 0.0
O1223 O 0.3759 0.69538 0.58917 0.0
O1224 O 0.3841 0.58775 0.57789 0.0
O1225 O 0.31798 0.63445 0.60931 0.0
O1226 O 0.33858 0.68248 0.65323 0.0
O1227 O 0.40039 0.80446 0.627 0.0
O1228 O 0.36609 0.77892 0.66594 0.0
O1229 O 0.35796 0.54666 0.6674 0.0
O1230 O 0.38873 0.63695 0.68477 0.0
C1231 C 0.43376 0.56789 0.62608 0.0
C1232 C 0.37931 0.64749 0.56841 0.0
C1233 C 0.37756 0.36486 0.6042 0.0
C1234 C 0.39279 0.2502 0.60291 0.0
C1235 C 0.40897 0.32145 0.5591 0.0
C1236 C 0.39402 0.374 0.57479 0.0
C1237 C 0.40777 0.25974 0.57267 0.0
C1238 C 0.37775 0.30376 0.61852 0.0
C1239 C 0.35613 0.41604 0.61807 0.0
C1240 C 0.21018 0.51899 0.58783 0.0
C1241 C 0.22256 0.50571 0.55717 0.0
H1242 H 0.19464 0.54387 0.6494 0.0
C1243 C 0.31543 0.68088 0.63058 0.0
C1244 C 0.37382 0.57997 0.68969 0.0
C1245 C 0.38984 0.88486 0.66662 0.0
C1246 C 0.39737 1.00192 0.66608 0.0
C1247 C 0.39715 0.94415 0.71621 0.0
C1248 C 0.39137 0.88617 0.70007 0.0
C1249 C 0.39961 1.00205 0.69938 0.0
C1250 C 0.39347 0.94306 0.64966 0.0
C1251 C 0.37981 0.8256 0.64934 0.0
H1252 H 0.42096 0.32827 0.53605 0.0
H1253 H 0.39419 0.42119 0.56348 0.0
H1254 H 0.41869 0.21976 0.55935 0.0
H1255 H 0.36598 0.29859 0.64178 0.0
H1256 H 0.3985 0.94433 0.74189 0.0
H1257 H 0.3867 0.84325 0.71401 0.0
H1258 H 0.40263 0.04714 0.71232 0.0
H1259 H 0.39083 0.94321 0.62393 0.0
C1260 C 0.54069 0.32607 0.66531 0.0
C1261 C 0.50593 0.30282 0.61857 0.0
C1262 C 0.53859 0.31236 0.63299 0.0
C1263 C 0.47563 0.3108 0.63667 0.0
C1264 C 0.51032 0.33381 0.68357 0.0
C1265 C 0.47774 0.32636 0.66904 0.0
N1266 N 0.57254 0.33579 0.67845 0.0
C1267 C 0.57603 0.34861 0.71017 0.0
C1268 C 0.51362 0.35068 0.71568 0.0
C1269 C 0.54663 0.35682 0.72922 0.0
Gd1270 Gd 0.65537 0.4985 0.61196 0.0
Gd1271 Gd 0.61997 0.33385 0.64356 0.0
N1272 N 0.56842 0.30807 0.61576 0.0
C1273 C 0.50472 0.28502 0.58646 0.0
C1274 C 0.56737 0.28497 0.58525 0.0
C1275 C 0.53561 0.2747 0.56994 0.0
H1276 H 0.59075 0.27258 0.5726 0.0
H1277 H 0.53499 0.25802 0.5455 0.0
H1278 H 0.70251 0.48389 0.68051 0.0
H1279 H 0.60145 0.35361 0.72076 0.0
H1280 H 0.76364 0.48229 0.69638 0.0
H1281 H 0.48022 0.27698 0.57449 0.0
H1282 H 0.45046 0.30525 0.62584 0.0
H1283 H 0.65495 0.51676 0.53315 0.0
H1284 H 0.49085 0.35917 0.73017 0.0
H1285 H 0.54942 0.36858 0.75421 0.0
H1286 H 0.82544 0.5267 0.59987 0.0
H1287 H 0.45403 0.33254 0.6826 0.0
H1288 H 0.75942 0.55634 0.50401 0.0
H1289 H 0.69669 0.54847 0.49138 0.0
N1290 N 0.69333 0.51324 0.56954 0.0
C1291 C 0.72747 0.51923 0.57737 0.0
C1292 C 0.68226 0.52092 0.53893 0.0
C1293 C 0.74113 0.54386 0.52261 0.0
C1294 C 0.70582 0.53854 0.51524 0.0
C1295 C 0.75246 0.53297 0.55386 0.0
H1296 H 0.80734 0.54636 0.54448 0.0
N1297 N 0.71275 0.49923 0.63136 0.0
C1298 C 0.73755 0.5111 0.609 0.0
C1299 C 0.78239 0.50071 0.649 0.0
C1300 C 0.77305 0.51256 0.61733 0.0
C1301 C 0.72176 0.49103 0.66255 0.0
C1302 C 0.75664 0.49053 0.67174 0.0
O1303 O 0.58375 0.4209 0.64825 0.0
O1304 O 0.59729 0.48102 0.60444 0.0
O1305 O 0.65611 0.59351 0.63477 0.0
O1306 O 0.64233 0.58378 0.58486 0.0
O1307 O 0.63613 0.33962 0.59025 0.0
O1308 O 0.62267 0.44458 0.57722 0.0
O1309 O 0.69142 0.40878 0.60509 0.0
O1310 O 0.67608 0.35906 0.65051 0.0
O1311 O 0.62887 0.23301 0.63009 0.0
O1312 O 0.63028 0.26183 0.67955 0.0
O1313 O 0.63695 0.4996 0.66295 0.0
O1314 O 0.64465 0.39628 0.6823 0.0
C1315 C 0.5747 0.46213 0.62598 0.0
C1316 C 0.62806 0.38444 0.56882 0.0
C1317 C 0.66412 0.68491 0.6011 0.0
C1318 C 0.66308 0.80216 0.60627 0.0
C1319 C 0.7007 0.75113 0.56726 0.0
C1320 C 0.68902 0.69019 0.57687 0.0
C1321 C 0.6876 0.80701 0.58166 0.0
C1322 C 0.65162 0.74084 0.61604 0.0
C1323 C 0.64739 0.62317 0.60852 0.0
C1324 C 0.79806 0.52508 0.59384 0.0
C1325 C 0.78776 0.53606 0.56227 0.0
H1326 H 0.80936 0.49922 0.65616 0.0
C1327 C 0.6971 0.36281 0.62635 0.0
C1328 C 0.63964 0.45897 0.68685 0.0
C1329 C 0.6143 0.15358 0.66879 0.0
C1330 C 0.61207 0.03587 0.66498 0.0
C1331 C 0.57947 0.09178 0.70613 0.0
C1332 C 0.59152 0.1513 0.69489 0.0
C1333 C 0.58993 0.03426 0.6915 0.0
C1334 C 0.62389 0.0959 0.65355 0.0
C1335 C 0.63168 0.21404 0.65952 0.0
H1336 H 0.71957 0.7551 0.54829 0.0
H1337 H 0.69875 0.64767 0.56481 0.0
H1338 H 0.69679 0.85396 0.57377 0.0
H1339 H 0.63186 0.73678 0.63434 0.0
H1340 H 0.56239 0.09015 0.72655 0.0
H1341 H 0.58373 0.19518 0.70712 0.0
H1342 H 0.58054 0.98854 0.70079 0.0
H1343 H 0.64178 0.09764 0.63363 0.0
C1344 C 0.24462 0.24213 0.1031 0.0
C1345 C 0.22961 0.21931 0.13157 0.0
H1346 H 0.2834 0.30315 0.08138 0.0
C1347 C 0.24439 0.24 0.16055 0.0
H1348 H 0.2338 0.22771 0.08035 0.0
C1349 C 0.27334 0.28177 0.16114 0.0
C1350 C 0.28782 0.30611 0.13279 0.0
H1351 H 0.23361 0.22349 0.18293 0.0
H1352 H 0.28396 0.29623 0.18396 0.0
C1353 C 0.27294 0.28576 0.10372 0.0
C1354 C 0.77166 0.78902 0.10641 0.0
C1355 C 0.78719 0.80759 0.13549 0.0
H1356 H 0.73121 0.73438 0.08291 0.0
C1357 C 0.77183 0.7848 0.16378 0.0
H1358 H 0.78279 0.805 0.08409 0.0
C1359 C 0.74175 0.7457 0.16313 0.0
C1360 C 0.72654 0.72607 0.13413 0.0
H1361 H 0.78292 0.7979 0.18661 0.0
H1362 H 0.73069 0.72982 0.18549 0.0
C1363 C 0.74213 0.74809 0.10573 0.0
C1364 C 0.2682 0.73627 0.34031 0.0
C1365 C 0.2847 0.7177 0.36888 0.0
H1366 H 0.22652 0.78908 0.3179 0.0
C1367 C 0.27084 0.7417 0.39764 0.0
H1368 H 0.27809 0.71904 0.31771 0.0
C1369 C 0.24189 0.78406 0.39765 0.0
C1370 C 0.22511 0.80176 0.36901 0.0
H1371 H 0.28293 0.72904 0.42011 0.0
H1372 H 0.23227 0.80221 0.42018 0.0
C1373 C 0.23856 0.77657 0.34041 0.0
C1374 C 0.77051 0.24422 0.34066 0.0
C1375 C 0.78534 0.22282 0.36949 0.0
H1376 H 0.73056 0.30016 0.31759 0.0
C1377 C 0.77049 0.24565 0.3981 0.0
H1378 H 0.78107 0.2278 0.31817 0.0
C1379 C 0.74198 0.28906 0.39774 0.0
C1380 C 0.72676 0.30926 0.36878 0.0
H1381 H 0.7812 0.23059 0.42079 0.0
H1382 H 0.73134 0.30564 0.42017 0.0
C1383 C 0.74144 0.28581 0.34032 0.0
C1384 C 0.74614 0.74617 0.90652 0.0
C1385 C 0.73143 0.72399 0.87768 0.0
H1386 H 0.7837 0.80909 0.92926 0.0
C1387 C 0.74511 0.74906 0.84913 0.0
H1388 H 0.73618 0.72848 0.929 0.0
C1389 C 0.77274 0.79383 0.84927 0.0
C1390 C 0.7871 0.81714 0.87797 0.0
H1391 H 0.73462 0.73344 0.82644 0.0
H1392 H 0.78265 0.81095 0.82666 0.0
C1393 C 0.7732 0.7929 0.90668 0.0
C1394 C 0.27493 0.28938 0.84429 0.0
C1395 C 0.28833 0.31348 0.87321 0.0
H1396 H 0.23601 0.23169 0.82079 0.0
C1397 C 0.27181 0.29379 0.90159 0.0
H1398 H 0.28679 0.30324 0.82194 0.0
C1399 C 0.24318 0.2506 0.90097 0.0
C1400 C 0.22947 0.22756 0.8719 0.0
H1401 H 0.28142 0.31089 0.92435 0.0
H1402 H 0.2313 0.23639 0.92325 0.0
C1403 C 0.24571 0.24816 0.84362 0.0
C1404 C 0.745 0.3008 0.65404 0.0
C1405 C 0.72851 0.31901 0.62542 0.0
H1406 H 0.78477 0.24439 0.67695 0.0
C1407 C 0.74065 0.29055 0.59697 0.0
H1408 H 0.73638 0.3212 0.67645 0.0
C1409 C 0.76796 0.24431 0.59739 0.0
C1410 C 0.78461 0.22673 0.62613 0.0
H1411 H 0.72834 0.30257 0.57452 0.0
H1412 H 0.77633 0.22285 0.57514 0.0
C1413 C 0.77282 0.2564 0.65434 0.0
C1414 C 0.24338 0.79322 0.66128 0.0
C1415 C 0.22731 0.81548 0.63316 0.0
H1416 H 0.28365 0.73512 0.68252 0.0
C1417 C 0.24037 0.79229 0.60391 0.0
H1418 H 0.23415 0.80974 0.68424 0.0
C1419 C 0.26827 0.74751 0.60297 0.0
C1420 C 0.28466 0.72622 0.63119 0.0
H1421 H 0.22857 0.80776 0.58175 0.0
H1422 H 0.27745 0.73043 0.58008 0.0
C1423 C 0.27187 0.75027 0.66029 0.0
C1424 C 0.15078 0.93965 0.25424 0.0
C1425 C 0.13737 0.97132 0.28105 0.0
H1426 H 0.16399 0.94635 0.20485 0.0
C1427 C 0.12582 0.036 0.27749 0.0
H1428 H 0.16039 0.89044 0.25614 0.0
C1429 C 0.12849 0.0688 0.24839 0.0
C1430 C 0.14222 0.03783 0.2215 0.0
H1431 H 0.1151 0.06215 0.29759 0.0
H1432 H 0.12 0.11857 0.24727 0.0
C1433 C 0.15318 0.97245 0.22489 0.0
C1434 C 0.84766 1.01101 0.26975 0.0
C1435 C 0.87606 0.04806 0.28047 0.0
H1436 H 0.82688 0.94579 0.23472 0.0
C1437 C 0.90575 0.05061 0.26103 0.0
H1438 H 0.8233 1.01315 0.28203 0.0
C1439 C 0.90682 1.01588 0.23208 0.0
C1440 C 0.87887 0.97583 0.22263 0.0
H1441 H 0.9281 0.079 0.26824 0.0
H1442 H 0.92946 0.02045 0.21696 0.0
C1443 C 0.84949 0.97326 0.24209 0.0
C1444 C 0.89166 0.08274 0.74819 0.0
C1445 C 0.8765 0.05091 0.72203 0.0
H1446 H 0.90496 0.07869 0.79785 0.0
C1447 C 0.86436 0.98681 0.72669 0.0
H1448 H 0.90171 0.13143 0.74573 0.0
C1449 C 0.86687 0.95598 0.75641 0.0
C1450 C 0.88109 0.98848 0.78269 0.0
H1451 H 0.85266 0.95991 0.7073 0.0
H1452 H 0.8566 0.9074 0.75903 0.0
C1453 C 0.89366 0.05216 0.77812 0.0
C1454 C 0.17053 0.05147 0.76599 0.0
C1455 C 0.13955 0.0584 0.78317 0.0
H1456 H 0.19628 1.00549 0.72693 0.0
C1457 C 0.10917 0.02971 0.77078 0.0
H1458 H 0.19445 0.072 0.77509 0.0
C1459 C 0.10969 0.99691 0.7413 0.0
C1460 C 0.14103 0.98854 0.72456 0.0
H1461 H 0.08496 0.03317 0.7838 0.0
H1462 H 0.0856 0.97842 0.73156 0.0
C1463 C 0.17149 1.01441 0.73796 0.0
C1464 C 0.60656 0.5243 0.27275 0.0
C1465 C 0.63466 0.48421 0.28189 0.0
H1466 H 0.58463 0.5872 0.23676 0.0
C1467 C 0.6638 0.48194 0.26207 0.0
H1468 H 0.58408 0.52868 0.28806 0.0
C1469 C 0.66514 0.51948 0.2343 0.0
C1470 C 0.63651 0.55639 0.22382 0.0
H1471 H 0.68653 0.45438 0.26911 0.0
H1472 H 0.68925 0.52129 0.22159 0.0
C1473 C 0.60716 0.559 0.24372 0.0
C1474 C 0.34795 0.54837 0.26449 0.0
C1475 C 0.37787 0.54857 0.28343 0.0
H1476 H 0.32228 0.50795 0.22421 0.0
C1477 C 0.40666 0.5112 0.27355 0.0
H1478 H 0.32483 0.57389 0.27221 0.0
C1479 C 0.40593 0.47672 0.24453 0.0
C1480 C 0.37586 0.47709 0.22544 0.0
H1481 H 0.42979 0.50894 0.28825 0.0
H1482 H 0.4289 0.45069 0.23687 0.0
C1483 C 0.34665 0.51125 0.23662 0.0
C1484 C 0.39737 0.54164 0.77638 0.0
C1485 C 0.38083 0.48142 0.78109 0.0
H1486 H 0.40873 0.6197 0.7442 0.0
C1487 C 0.36221 0.45416 0.75578 0.0
H1488 H 0.41179 0.56398 0.79567 0.0
C1489 C 0.35956 0.48697 0.7266 0.0
C1490 C 0.3759 0.54767 0.72168 0.0
H1491 H 0.34857 0.40868 0.75893 0.0
H1492 H 0.34437 0.46451 0.70788 0.0
C1493 C 0.39528 0.57403 0.74698 0.0
C1494 C 0.65558 0.48367 0.77594 0.0
C1495 C 0.64406 0.54811 0.78082 0.0
H1496 H 0.66304 0.40487 0.74309 0.0
C1497 C 0.63048 0.58167 0.75448 0.0
H1498 H 0.66618 0.4556 0.79545 0.0
C1499 C 0.6286 0.55213 0.7244 0.0
C1500 C 0.64026 0.48796 0.71955 0.0
H1501 H 0.62127 0.63083 0.75691 0.0
H1502 H 0.61793 0.57996 0.70481 0.0
C1503 C 0.65361 0.45404 0.74583 0.0
C1504 C 0.10212 0.12885 0.98507 0.0
C1505 C 0.12547 0.16807 0.96809 0.0
H1506 H 0.08566 0.09247 0.03013 0.0
C1507 C 0.1485 0.2078 0.98549 0.0
H1508 H 0.08395 0.09779 0.97253 0.0
C1509 C 0.14954 0.20459 0.01918 0.0
C1510 C 0.1276 0.16156 0.03573 0.0
H1511 H 0.16722 0.23768 0.97309 0.0
H1512 H 0.16886 0.23244 0.03202 0.0
C1513 C 0.10318 0.12561 0.01821 0.0
C1514 C 0.90995 0.91555 0.98618 0.0
C1515 C 0.88725 0.87482 0.96918 0.0
H1516 H 0.92763 0.94921 0.03138 0.0
C1517 C 0.86697 0.83004 0.98633 0.0
H1518 H 0.92636 0.95003 0.97386 0.0
C1519 C 0.86789 0.82939 0.02 0.0
C1520 C 0.88911 0.87351 0.03672 0.0
H1521 H 0.84913 0.79828 0.97389 0.0
H1522 H 0.85054 0.79749 0.03287 0.0
C1523 C 0.91082 0.91493 0.01929 0.0
C1524 C 0.10357 0.92578 0.48867 0.0
C1525 C 0.12416 0.88157 0.47169 0.0
H1526 H 0.08667 0.96057 0.53377 0.0
C1527 C 0.14179 0.83273 0.4888 0.0
H1528 H 0.08925 0.96344 0.47631 0.0
C1529 C 0.14052 0.83123 0.52248 0.0
C1530 C 0.12134 0.87826 0.53934 0.0
H1531 H 0.15797 0.7981 0.47633 0.0
H1532 H 0.15604 0.79596 0.53525 0.0
C1533 C 0.102 0.92389 0.52178 0.0
C1534 C 0.86747 0.20167 0.51615 0.0
C1535 C 0.88541 0.15253 0.53278 0.0
H1536 H 0.85337 0.2406 0.47013 0.0
C1537 C 0.90629 0.10949 0.51537 0.0
H1538 H 0.85113 0.23555 0.52893 0.0
C1539 C 0.90788 0.1128 0.48228 0.0
C1540 C 0.88849 0.15909 0.46523 0.0
H1541 H 0.92092 0.07171 0.52733 0.0
H1542 H 0.92344 0.07699 0.46991 0.0
C1543 C 0.86896 0.20489 0.48255 0.0
C1544 C 0.64268 0.70733 0.02056 0.0
C1545 C 0.62338 0.66105 0.03781 0.0
H1546 H 0.66142 0.73752 0.97438 0.0
C1547 C 0.60522 0.61334 0.02062 0.0
H1548 H 0.65732 0.74426 0.03307 0.0
C1549 C 0.60777 0.60926 0.98757 0.0
C1550 C 0.62849 0.65284 0.97027 0.0
H1551 H 0.58991 0.57708 0.03288 0.0
H1552 H 0.59407 0.57038 0.97558 0.0
C1553 C 0.6452 0.70326 0.987 0.0
C1554 C 0.37116 0.33256 0.98715 0.0
C1555 C 0.38832 0.38313 0.97102 0.0
H1556 H 0.35701 0.29222 0.03278 0.0
C1557 C 0.40777 0.42772 0.98894 0.0
H1558 H 0.35592 0.29751 0.97395 0.0
C1559 C 0.40862 0.42442 0.02202 0.0
C1560 C 0.39001 0.37646 0.03852 0.0
H1561 H 0.42181 0.46669 0.97741 0.0
H1562 H 0.42306 0.46132 0.03478 0.0
C1563 C 0.37194 0.3293 0.02075 0.0
C1564 C 0.59954 0.40639 0.48358 0.0
C1565 C 0.62357 0.36901 0.46641 0.0
H1566 H 0.58169 0.43875 0.52894 0.0
C1567 C 0.64643 0.32837 0.48351 0.0
H1568 H 0.58158 0.43817 0.47121 0.0
C1569 C 0.64667 0.32896 0.51723 0.0
C1570 C 0.62399 0.37009 0.53416 0.0
H1571 H 0.66568 0.29991 0.47093 0.0
H1572 H 0.66601 0.30079 0.5299 0.0
C1573 C 0.59968 0.4068 0.51679 0.0
C1574 C 0.40857 0.62346 0.51719 0.0
C1575 C 0.38411 0.66071 0.53385 0.0
H1576 H 0.42927 0.59536 0.47228 0.0
C1577 C 0.3634 0.70503 0.5167 0.0
H1578 H 0.42529 0.58958 0.52966 0.0
C1579 C 0.36553 0.70817 0.48311 0.0
C1580 C 0.38866 0.66742 0.46651 0.0
H1581 H 0.34423 0.73417 0.52899 0.0
H1582 H 0.34757 0.73882 0.47013 0.0
C1583 C 0.411 0.62716 0.48419 0.0
C1584 C 0.991 1.00516 0.09571 0.0
C1585 C 0.9733 0.99454 0.12453 0.0
H1586 H 0.03918 0.03276 0.07329 0.0
C1587 C 0.9913 1.00463 0.15324 0.0
H1588 H 0.97793 0.99693 0.07321 0.0
C1589 C 0.02604 0.02445 0.15331 0.0
C1590 C 0.04403 0.0346 0.12465 0.0
H1591 H 0.97847 0.99684 0.17585 0.0
H1592 H 0.0389 0.03191 0.176 0.0
C1593 C 0.02617 0.02452 0.09576 0.0
C1594 C 0.99017 0.03988 0.40368 0.0
C1595 C 0.97298 0.04666 0.37422 0.0
H1596 H 0.03728 1.01197 0.42807 0.0
C1597 C 0.99104 0.03138 0.34627 0.0
H1598 H 0.97687 0.05221 0.42557 0.0
C1599 C 0.02524 1.00804 0.3477 0.0
C1600 C 0.04269 1.00125 0.37707 0.0
H1601 H 0.97859 0.03716 0.32327 0.0
H1602 H 0.03817 0.99536 0.32565 0.0
C1603 C 0.02482 1.0178 0.40509 0.0
C1604 C 0.02658 0.02169 0.90352 0.0
C1605 C 0.04204 0.04442 0.8753 0.0
H1606 H 0.98158 0.97838 0.92527 0.0
C1607 C 0.02326 0.03847 0.84663 0.0
H1608 H 0.04023 0.02584 0.92601 0.0
C1609 C 0.99017 1.00962 0.84609 0.0
C1610 C 0.97451 0.98802 0.87436 0.0
H1611 H 0.03438 0.05535 0.82446 0.0
H1612 H 0.97651 1.00534 0.82361 0.0
C1613 C 0.99297 0.9948 0.90313 0.0
C1614 C 0.98841 0.02824 0.60077 0.0
C1615 C 0.96962 0.03967 0.62896 0.0
H1616 H 0.03699 0.99846 0.57984 0.0
C1617 C 0.98618 0.0268 0.65823 0.0
H1618 H 0.97661 0.03832 0.57786 0.0
C1619 C 0.02033 1.00241 0.65936 0.0
C1620 C 0.03951 0.99263 0.63127 0.0
H1621 H 0.97254 0.0353 0.6804 0.0
H1622 H 0.03204 0.99248 0.68233 0.0
C1623 C 0.0231 1.006 0.60194 0.0
C1624 C 0.49994 0.45579 0.12314 0.0
C1625 C 0.47102 0.48967 0.1354 0.0
H1626 H 0.5547 0.45541 0.11356 0.0
C1627 C 0.47669 0.55173 0.14823 0.0
H1628 H 0.49674 0.40849 0.11252 0.0
C1629 C 0.51022 0.57886 0.14876 0.0
C1630 C 0.5391 0.54502 0.13633 0.0
H1631 H 0.45528 0.57926 0.15809 0.0
H1632 H 0.51346 0.62631 0.15919 0.0
C1633 C 0.53341 0.48284 0.12369 0.0
C1634 C 0.49112 0.53422 0.40633 0.0
C1635 C 0.47392 0.54674 0.37742 0.0
H1636 H 0.53801 0.50056 0.42896 0.0
C1637 C 0.49123 0.53423 0.34868 0.0
H1638 H 0.47835 0.54396 0.4288 0.0
C1639 C 0.52482 0.50858 0.34879 0.0
C1640 C 0.54222 0.49648 0.37762 0.0
H1641 H 0.47857 0.54336 0.32607 0.0
H1642 H 0.53726 0.4983 0.32624 0.0
C1643 C 0.52524 0.5101 0.40643 0.0
C1644 C 0.49377 0.50476 0.90674 0.0
C1645 C 0.47546 0.49527 0.87801 0.0
H1646 H 0.54227 0.53167 0.92907 0.0
C1647 C 0.493 0.50767 0.84928 0.0
H1648 H 0.48123 0.49483 0.92928 0.0
C1649 C 0.52752 0.52998 0.84917 0.0
C1650 C 0.54619 0.53829 0.87775 0.0
H1651 H 0.47982 0.50066 0.82672 0.0
H1652 H 0.5398 0.54007 0.82652 0.0
C1653 C 0.52888 0.52508 0.90659 0.0
C1654 C 0.48613 0.52242 0.65404 0.0
C1655 C 0.46902 0.53741 0.62532 0.0
H1656 H 0.53221 0.48572 0.67669 0.0
C1657 C 0.48689 0.5269 0.59656 0.0
H1658 H 0.47318 0.53021 0.67661 0.0
C1659 C 0.52133 0.50333 0.59666 0.0
C1660 C 0.53831 0.4879 0.62546 0.0
H1661 H 0.47462 0.53875 0.57407 0.0
H1662 H 0.53459 0.49658 0.57417 0.0
C1663 C 0.52001 0.49698 0.65409 0.0
C1664 C 0.09622 0.6311 0.11421 0.0
C1665 C 0.12269 0.67733 0.11927 0.0
H1666 H 0.07592 0.53714 0.12606 0.0
C1667 C 0.14968 0.66191 0.14059 0.0
H1668 H 0.07453 0.64133 0.09856 0.0
C1669 C 0.14944 0.60363 0.15722 0.0
C1670 C 0.12312 0.55771 0.15218 0.0
H1671 H 0.17118 0.69465 0.14467 0.0
H1672 H 0.16983 0.5949 0.17434 0.0
C1673 C 0.0968 0.5714 0.13007 0.0
C1674 C 0.85928 0.36197 0.13335 0.0
C1675 C 0.88894 0.34442 0.11589 0.0
H1676 H 0.83457 0.43197 0.1627 0.0
C1677 C 0.9171 0.38818 0.11504 0.0
H1678 H 0.83664 0.3309 0.1341 0.0
C1679 C 0.91538 0.44793 0.13091 0.0
C1680 C 0.88583 0.46476 0.14867 0.0
H1681 H 0.94072 0.37616 0.10238 0.0
H1682 H 0.9375 0.48028 0.12984 0.0
C1683 C 0.85791 0.42083 0.14964 0.0
C1684 C 0.12982 0.39909 0.39914 0.0
C1685 C 0.12501 0.34464 0.37977 0.0
H1686 H 0.13537 0.50103 0.40167 0.0
C1687 C 0.12147 0.35278 0.34668 0.0
H1688 H 0.13356 0.39411 0.4246 0.0
C1689 C 0.12198 0.41468 0.33333 0.0
C1690 C 0.12663 0.46939 0.35276 0.0
H1691 H 0.11752 0.31142 0.3312 0.0
H1692 H 0.11859 0.41956 0.30785 0.0
C1693 C 0.13056 0.46063 0.38586 0.0
C1694 C 0.8706 0.62229 0.34771 0.0
C1695 C 0.89012 0.57111 0.36086 0.0
H1696 H 0.84802 0.71607 0.35492 0.0
C1697 C 0.9033 0.57753 0.39181 0.0
H1698 H 0.85961 0.61811 0.32403 0.0
C1699 C 0.8972 0.63397 0.40928 0.0
C1700 C 0.87697 0.68477 0.39659 0.0
H1701 H 0.91861 0.53908 0.40241 0.0
H1702 H 0.90835 0.6376 0.4329 0.0
C1703 C 0.86405 0.67851 0.36538 0.0
C1704 C 0.89289 0.40786 0.90315 0.0
C1705 C 0.87281 0.35848 0.88932 0.0
H1706 H 0.9154 0.50199 0.89737 0.0
C1707 C 0.86096 0.36547 0.85789 0.0
H1708 H 0.90279 0.40301 0.9272 0.0
C1709 C 0.86818 0.42178 0.84089 0.0
C1710 C 0.88765 0.47179 0.85494 0.0
H1711 H 0.84518 0.32827 0.8468 0.0
H1712 H 0.85759 0.42705 0.81711 0.0
C1713 C 0.9002 0.46418 0.88611 0.0
C1714 C 0.16425 0.62103 0.8531 0.0
C1715 C 0.14014 0.57249 0.8613 0.0
H1716 H 0.18611 0.71371 0.86433 0.0
C1717 C 0.11964 0.5811 0.88859 0.0
H1718 H 0.18106 0.61519 0.83265 0.0
C1719 C 0.12263 0.63767 0.90679 0.0
C1720 C 0.14635 0.68662 0.89824 0.0
H1721 H 0.10072 0.54488 0.89544 0.0
H1722 H 0.10605 0.64348 0.92741 0.0
C1723 C 0.16713 0.67759 0.87119 0.0
C1724 C 0.85937 0.66667 0.64106 0.0
C1725 C 0.8875 0.68228 0.62104 0.0
H1726 H 0.837 0.5975 0.67289 0.0
C1727 C 0.91391 0.6359 0.61649 0.0
H1728 H 0.83792 0.69981 0.6446 0.0
C1729 C 0.91212 0.57563 0.63139 0.0
C1730 C 0.88471 0.56164 0.65211 0.0
H1731 H 0.93643 0.64633 0.60201 0.0
H1732 H 0.93276 0.54073 0.62757 0.0
C1733 C 0.85842 0.60753 0.65696 0.0
C1734 C 0.12258 0.41037 0.59428 0.0
C1735 C 0.14101 0.35829 0.60803 0.0
H1736 H 0.10162 0.50592 0.60032 0.0
C1737 C 0.15204 0.36394 0.63987 0.0
H1738 H 0.1129 0.40739 0.5701 0.0
C1739 C 0.14498 0.42032 0.65731 0.0
C1740 C 0.12695 0.47234 0.64325 0.0
H1741 H 0.16663 0.32538 0.65119 0.0
H1742 H 0.15382 0.42354 0.68176 0.0
C1743 C 0.11598 0.46692 0.61155 0.0
C1744 C 0.60836 0.08394 0.10964 0.0
C1745 C 0.62205 0.07693 0.14037 0.0
H1746 H 0.60274 0.14473 0.06886 0.0
C1747 C 0.64196 0.12758 0.15344 0.0
H1748 H 0.59265 0.04593 0.09916 0.0
C1749 C 0.64835 0.18397 0.13589 0.0
C1750 C 0.63487 0.19088 0.10491 0.0
H1751 H 0.65322 0.12295 0.177 0.0
H1752 H 0.6646 0.22124 0.1463 0.0
C1753 C 0.61432 0.14053 0.09229 0.0
C1754 C 0.39525 0.89609 0.0907 0.0
C1755 C 0.37445 0.84573 0.10287 0.0
H1756 H 0.41627 0.9911 0.09792 0.0
C1757 C 0.35936 0.85344 0.13313 0.0
H1758 H 0.40804 0.89137 0.06789 0.0
C1759 C 0.36481 0.91025 0.15058 0.0
C1760 C 0.3852 0.96056 0.13804 0.0
H1761 H 0.34282 0.81624 0.14313 0.0
H1762 H 0.35267 0.91533 0.17371 0.0
C1763 C 0.40019 0.95317 0.10791 0.0
C1764 C 0.65243 0.9209 0.35513 0.0
C1765 C 0.62517 0.96589 0.35806 0.0
H1766 H 0.67448 0.83107 0.36969 0.0
C1767 C 0.5976 0.9514 0.37861 0.0
H1768 H 0.67388 0.93005 0.33927 0.0
C1769 C 0.59682 0.89214 0.39497 0.0
C1770 C 0.62427 0.84688 0.39213 0.0
H1771 H 0.57594 0.98461 0.38095 0.0
H1772 H 0.57415 0.88151 0.40923 0.0
C1773 C 0.65233 0.86296 0.37223 0.0
C1774 C 0.35192 0.11618 0.35047 0.0
C1775 C 0.37585 0.06682 0.35813 0.0
H1776 H 0.3311 0.20945 0.36231 0.0
C1777 C 0.39721 0.07471 0.38499 0.0
H1778 H 0.33448 0.11098 0.33036 0.0
C1779 C 0.39516 0.13121 0.40334 0.0
C1780 C 0.37156 0.18088 0.39539 0.0
H1781 H 0.41606 0.03795 0.39141 0.0
H1782 H 0.41235 0.13632 0.42363 0.0
C1783 C 0.35 0.17273 0.36871 0.0
C1784 C 0.38612 0.90453 0.89946 0.0
C1785 C 0.39848 0.84998 0.88321 0.0
H1786 H 0.37476 1.00513 0.89755 0.0
C1787 C 0.4106 0.85628 0.85193 0.0
H1788 H 0.37619 0.90031 0.9235 0.0
C1789 C 0.41062 0.91675 0.83713 0.0
C1790 C 0.39771 0.97172 0.85309 0.0
H1791 H 0.42043 0.81456 0.83908 0.0
H1792 H 0.42086 0.92021 0.81321 0.0
C1793 C 0.38555 0.96472 0.88453 0.0
C1794 C 0.59833 0.13407 0.88767 0.0
C1795 C 0.62484 0.17924 0.88117 0.0
H1796 H 0.57719 0.03998 0.87806 0.0
C1797 C 0.65032 0.16287 0.85844 0.0
H1798 H 0.57758 0.14515 0.90414 0.0
C1799 C 0.64889 0.10365 0.8424 0.0
C1800 C 0.62276 0.05879 0.84956 0.0
H1801 H 0.67164 0.19521 0.8531 0.0
H1802 H 0.66842 0.09255 0.82468 0.0
C1803 C 0.59776 0.07398 0.87251 0.0
C1804 C 0.42149 0.08058 0.62692 0.0
C1805 C 0.39585 0.06393 0.64897 0.0
H1806 H 0.44205 0.15392 0.59666 0.0
C1807 C 0.36894 0.10762 0.65554 0.0
H1808 H 0.44265 0.0475 0.62185 0.0
C1809 C 0.36728 0.16699 0.63992 0.0
C1810 C 0.39349 0.18527 0.61837 0.0
H1811 H 0.34906 0.0956 0.67269 0.0
H1812 H 0.34532 0.19817 0.64486 0.0
C1813 C 0.42077 0.14129 0.61226 0.0
C1814 C 0.63645 0.91216 0.60247 0.0
C1815 C 0.64889 0.86102 0.62133 0.0
H1816 H 0.61444 1.00748 0.60164 0.0
C1817 C 0.64801 0.8666 0.65463 0.0
H1818 H 0.63644 0.90846 0.57674 0.0
C1819 C 0.63584 0.92334 0.66883 0.0
C1820 C 0.62389 0.97499 0.64996 0.0
H1821 H 0.65754 0.82771 0.66963 0.0
H1822 H 0.63641 0.92733 0.69455 0.0
C1823 C 0.62387 0.96858 0.61669 0.0
loop_
_geom_bond_atom_site_label_1
_geom_bond_atom_site_label_2
_geom_bond_distance
_geom_bond_site_symmetry_2
_ccdc_geom_bond_type
C0 C2 1.422 . S
C0 C4 1.415 . S
C0 N6 1.369 . S
C1 C2 1.421 1_565 S
C1 C3 1.417 . S
C1 C13 1.422 . S
C2 C0 1.422 . S
C2 C1 1.421 1_545 S
C2 N12 1.359 . S
C3 C1 1.417 . S
C3 C5 1.327 1_565 S
C3 H22 0.930 . S
C4 C0 1.415 . S
C4 C5 1.440 . S
C4 C8 1.413 . S
C5 C3 1.327 1_545 S
C5 C4 1.440 . S
C5 H27 0.929 . S
N6 C0 1.369 . S
N6 C7 1.338 . S
N6 Gd11 2.622 . S
C7 N6 1.338 . S
C7 C9 1.378 . S
C7 H19 0.929 . S
C8 C4 1.413 . S
C8 C9 1.348 . S
C8 H24 0.931 . S
C9 C7 1.378 . S
C9 C8 1.348 . S
C9 H25 0.930 1_554 S
Gd10 N30 2.622 . S
Gd10 N37 2.570 . S
Gd10 O44 2.353 . S
Gd10 O45 2.468 . S
Gd10 O46 2.427 . S
Gd10 O48 2.388 . S
Gd10 O49 2.386 . S
Gd10 O53 2.307 . S
Gd10 C63 2.805 . S
Gd11 N6 2.622 . S
Gd11 N12 2.570 . S
Gd11 O43 2.386 . S
Gd11 O47 2.307 . S
Gd11 O50 2.353 . S
Gd11 O51 2.468 1_545 S
Gd11 O52 2.427 1_545 S
Gd11 O54 2.388 . S
Gd11 C75 2.805 1_545 S
N12 C2 1.359 . S
N12 Gd11 2.570 . S
N12 C14 1.343 1_545 S
C13 C1 1.422 . S
C13 C15 1.321 . S
C13 H21 0.931 . S
C14 N12 1.343 1_565 S
C14 C15 1.390 . S
C14 H16 0.931 . S
C15 C13 1.321 . S
C15 C14 1.390 . S
C15 H17 0.930 . S
H16 C14 0.931 . S
H17 C15 0.930 . S
H18 C41 0.931 . S
H19 C7 0.929 . S
H20 C42 0.930 1_655 S
H21 C13 0.931 . S
H22 C3 0.930 . S
H23 C32 0.929 . S
H24 C8 0.931 . S
H25 C9 0.930 1_556 S
H26 C64 0.930 . S
H27 C5 0.929 . S
H28 C33 0.931 1_655 S
H29 C34 0.930 . S
N30 Gd10 2.622 . S
N30 C31 1.369 . S
N30 C32 1.338 . S
C31 N30 1.369 . S
C31 C35 1.415 1_455 S
C31 C38 1.422 . S
C32 H23 0.929 . S
C32 N30 1.338 . S
C32 C34 1.378 . S
C33 H28 0.931 1_455 S
C33 C34 1.348 . S
C33 C35 1.413 1_455 S
C34 H29 0.930 . S
C34 C32 1.378 . S
C34 C33 1.348 . S
C35 C31 1.415 1_655 S
C35 C33 1.413 1_655 S
C35 C65 1.437 . S
H36 C65 0.929 . S
N37 Gd10 2.570 . S
N37 C38 1.359 . S
N37 C41 1.343 . S
C38 C31 1.422 . S
C38 N37 1.359 . S
C38 C40 1.421 1_455 S
C39 C40 1.422 . S
C39 C42 1.321 1_655 S
C39 H66 0.931 . S
C40 C38 1.421 1_655 S
C40 C39 1.422 . S
C40 C64 1.417 . S
C41 H18 0.931 . S
C41 N37 1.343 . S
C41 C42 1.390 . S
C42 H20 0.930 1_455 S
C42 C39 1.321 1_455 S
C42 C41 1.390 . S
O43 Gd11 2.386 . S
O43 C55 1.265 . S
O44 Gd10 2.353 . S
O44 C55 1.242 . S
O45 Gd10 2.468 . S
O45 C63 1.263 . S
O46 Gd10 2.427 . S
O46 C63 1.252 . S
O47 Gd11 2.307 . S
O47 C56 1.261 . S
O48 Gd10 2.388 . S
O48 C56 1.252 . S
O49 Gd10 2.386 . S
O49 C67 1.265 . S
O50 Gd11 2.353 . S
O50 C67 1.242 . S
O51 Gd11 2.468 1_565 S
O51 C75 1.263 . S
O52 Gd11 2.427 1_565 S
O52 C75 1.252 . S
O53 Gd10 2.307 . S
O53 C68 1.261 . S
O54 Gd11 2.388 . S
O54 C68 1.252 . S
C55 O43 1.265 . S
C55 O44 1.242 . S
C56 O47 1.261 . S
C56 O48 1.252 . S
C57 C60 1.394 . S
C57 C62 1.370 . S
C57 C63 1.500 . S
C58 C61 1.383 . S
C58 C62 1.395 . S
C59 C60 1.396 . S
C59 C61 1.365 . S
C59 H76 0.929 . S
C60 C57 1.394 . S
C60 C59 1.396 . S
C60 H77 0.930 . S
C61 C58 1.383 . S
C61 C59 1.365 . S
C61 H78 0.931 . S
C62 C57 1.370 . S
C62 C58 1.395 . S
C62 H79 0.930 . S
C63 Gd10 2.805 . S
C63 O45 1.263 . S
C63 O46 1.252 . S
C63 C57 1.500 . S
C64 H26 0.930 . S
C64 C40 1.417 . S
C64 C65 1.329 . S
C65 C35 1.437 . S
C65 H36 0.929 . S
C65 C64 1.329 . S
H66 C39 0.931 . S
C67 O49 1.265 . S
C67 O50 1.242 . S
C68 O53 1.261 . S
C68 O54 1.252 . S
C69 C72 1.394 . S
C69 C74 1.370 . S
C69 C75 1.500 . S
C70 C73 1.383 . S
C70 C74 1.395 . S
C71 C72 1.396 . S
C71 C73 1.365 . S
C71 H80 0.929 . S
C72 C69 1.394 . S
C72 C71 1.396 . S
C72 H81 0.930 . S
C73 C70 1.383 . S
C73 C71 1.365 . S
C73 H82 0.931 . S
C74 C69 1.370 . S
C74 C70 1.395 . S
C74 H83 0.930 . S
C75 Gd11 2.805 1_565 S
C75 O51 1.263 . S
C75 O52 1.252 . S
C75 C69 1.500 . S
H76 C59 0.929 . S
H77 C60 0.930 . S
H78 C61 0.931 . S
H79 C62 0.930 . S
H80 C71 0.929 . S
H81 C72 0.930 . S
H82 C73 0.931 . S
H83 C74 0.930 . S
C84 C86 1.422 . S
C84 C88 1.415 . S
C84 N90 1.369 . S
C85 C86 1.421 1_545 S
C85 C87 1.417 . S
C85 C97 1.422 . S
C86 C84 1.422 . S
C86 C85 1.421 1_565 S
C86 N96 1.359 . S
C87 C85 1.417 . S
C87 C89 1.327 1_545 S
C87 H106 0.930 . S
C88 C84 1.415 . S
C88 C89 1.440 . S
C88 C92 1.413 . S
C89 C87 1.327 1_565 S
C89 C88 1.440 . S
C89 H111 0.929 . S
N90 C84 1.369 . S
N90 C91 1.338 . S
N90 Gd95 2.622 . S
C91 N90 1.338 . S
C91 C93 1.378 . S
C91 H103 0.929 . S
C92 C88 1.413 . S
C92 C93 1.348 . S
C92 H108 0.931 . S
C93 C91 1.378 . S
C93 C92 1.348 . S
C93 H109 0.930 1_554 S
Gd94 N114 2.622 . S
Gd94 N121 2.570 . S
Gd94 O128 2.353 . S
Gd94 O129 2.468 . S
Gd94 O130 2.427 . S
Gd94 O132 2.388 . S
Gd94 O133 2.386 . S
Gd94 O137 2.307 . S
Gd94 C147 2.805 . S
Gd95 N90 2.622 . S
Gd95 N96 2.570 . S
Gd95 O127 2.386 . S
Gd95 O131 2.307 . S
Gd95 O134 2.353 . S
Gd95 O135 2.468 1_565 S
Gd95 O136 2.427 1_565 S
Gd95 O138 2.388 . S
Gd95 C159 2.805 1_565 S
N96 C86 1.359 . S
N96 Gd95 2.570 . S
N96 C98 1.343 1_565 S
C97 C85 1.422 . S
C97 C99 1.321 . S
C97 H105 0.931 . S
C98 N96 1.343 1_545 S
C98 C99 1.390 . S
C98 H100 0.931 . S
C99 C97 1.321 . S
C99 C98 1.390 . S
C99 H101 0.930 . S
H100 C98 0.931 . S
H101 C99 0.930 . S
H102 C125 0.931 . S
H103 C91 0.929 . S
H104 C126 0.930 1_455 S
H105 C97 0.931 . S
H106 C87 0.930 . S
H107 C116 0.929 . S
H108 C92 0.931 . S
H109 C93 0.930 1_556 S
H110 C148 0.930 . S
H111 C89 0.929 . S
H112 C117 0.931 1_455 S
H113 C118 0.930 . S
N114 Gd94 2.622 . S
N114 C115 1.369 . S
N114 C116 1.338 . S
C115 N114 1.369 . S
C115 C119 1.415 1_655 S
C115 C122 1.422 . S
C116 H107 0.929 . S
C116 N114 1.338 . S
C116 C118 1.378 . S
C117 H112 0.931 1_655 S
C117 C118 1.348 . S
C117 C119 1.413 1_655 S
C118 H113 0.930 . S
C118 C116 1.378 . S
C118 C117 1.348 . S
C119 C115 1.415 1_455 S
C119 C117 1.413 1_455 S
C119 C149 1.437 . S
H120 C149 0.929 . S
N121 Gd94 2.570 . S
N121 C122 1.359 . S
N121 C125 1.343 . S
C122 C115 1.422 . S
C122 N121 1.359 . S
C122 C124 1.421 1_655 S
C123 C124 1.422 . S
C123 C126 1.321 1_455 S
C123 H150 0.931 . S
C124 C122 1.421 1_455 S
C124 C123 1.422 . S
C124 C148 1.417 . S
C125 H102 0.931 . S
C125 N121 1.343 . S
C125 C126 1.390 . S
C126 H104 0.930 1_655 S
C126 C123 1.321 1_655 S
C126 C125 1.390 . S
O127 Gd95 2.386 . S
O127 C139 1.265 . S
O128 Gd94 2.353 . S
O128 C139 1.242 . S
O129 Gd94 2.468 . S
O129 C147 1.263 . S
O130 Gd94 2.427 . S
O130 C147 1.252 . S
O131 Gd95 2.307 . S
O131 C140 1.261 . S
O132 Gd94 2.388 . S
O132 C140 1.252 . S
O133 Gd94 2.386 . S
O133 C151 1.265 . S
O134 Gd95 2.353 . S
O134 C151 1.242 . S
O135 Gd95 2.468 1_545 S
O135 C159 1.263 . S
O136 Gd95 2.427 1_545 S
O136 C159 1.252 . S
O137 Gd94 2.307 . S
O137 C152 1.261 . S
O138 Gd95 2.388 . S
O138 C152 1.252 . S
C139 O127 1.265 . S
C139 O128 1.242 . S
C140 O131 1.261 . S
C140 O132 1.252 . S
C141 C144 1.394 . S
C141 C146 1.370 . S
C141 C147 1.500 . S
C142 C145 1.383 . S
C142 C146 1.395 . S
C143 C144 1.396 . S
C143 C145 1.365 . S
C143 H160 0.929 . S
C144 C141 1.394 . S
C144 C143 1.396 . S
C144 H161 0.930 . S
C145 C142 1.383 . S
C145 C143 1.365 . S
C145 H162 0.931 . S
C146 C141 1.370 . S
C146 C142 1.395 . S
C146 H163 0.930 . S
C147 Gd94 2.805 . S
C147 O129 1.263 . S
C147 O130 1.252 . S
C147 C141 1.500 . S
C148 H110 0.930 . S
C148 C124 1.417 . S
C148 C149 1.329 . S
C149 C119 1.437 . S
C149 H120 0.929 . S
C149 C148 1.329 . S
H150 C123 0.931 . S
C151 O133 1.265 . S
C151 O134 1.242 . S
C152 O137 1.261 . S
C152 O138 1.252 . S
C153 C156 1.394 . S
C153 C158 1.370 . S
C153 C159 1.500 . S
C154 C157 1.383 . S
C154 C158 1.395 . S
C155 C156 1.396 . S
C155 C157 1.365 . S
C155 H164 0.929 . S
C156 C153 1.394 . S
C156 C155 1.396 . S
C156 H165 0.930 . S
C157 C154 1.383 . S
C157 C155 1.365 . S
C157 H166 0.931 . S
C158 C153 1.370 . S
C158 C154 1.395 . S
C158 H167 0.930 . S
C159 Gd95 2.805 1_545 S
C159 O135 1.263 . S
C159 O136 1.252 . S
C159 C153 1.500 . S
H160 C143 0.929 . S
H161 C144 0.930 . S
H162 C145 0.931 . S
H163 C146 0.930 . S
H164 C155 0.929 . S
H165 C156 0.930 . S
H166 C157 0.931 . S
H167 C158 0.930 . S
C168 C170 1.422 . S
C168 C172 1.415 . S
C168 N174 1.369 . S
C169 C170 1.421 1_545 S
C169 C171 1.417 . S
C169 C181 1.422 . S
C170 C168 1.422 . S
C170 C169 1.421 1_565 S
C170 N180 1.359 . S
C171 C169 1.417 . S
C171 C173 1.327 1_545 S
C171 H190 0.930 . S
C172 C168 1.415 . S
C172 C173 1.440 . S
C172 C176 1.413 . S
C173 C171 1.327 1_565 S
C173 C172 1.440 . S
C173 H195 0.929 . S
N174 C168 1.369 . S
N174 C175 1.338 . S
N174 Gd179 2.622 . S
C175 N174 1.338 . S
C175 C177 1.378 . S
C175 H187 0.929 . S
C176 C172 1.413 . S
C176 C177 1.348 . S
C176 H192 0.931 . S
C177 C175 1.378 . S
C177 C176 1.348 . S
C177 H193 0.930 . S
Gd178 N198 2.622 . S
Gd178 N205 2.570 . S
Gd178 O212 2.353 . S
Gd178 O213 2.468 . S
Gd178 O214 2.427 . S
Gd178 O216 2.388 . S
Gd178 O217 2.386 . S
Gd178 O221 2.307 . S
Gd178 C231 2.805 . S
Gd179 N174 2.622 . S
Gd179 N180 2.570 . S
Gd179 O211 2.386 . S
Gd179 O215 2.307 . S
Gd179 O218 2.353 . S
Gd179 O219 2.468 1_565 S
Gd179 O220 2.427 1_565 S
Gd179 O222 2.388 . S
Gd179 C243 2.805 1_565 S
N180 C170 1.359 . S
N180 Gd179 2.570 . S
N180 C182 1.343 1_565 S
C181 C169 1.422 . S
C181 C183 1.321 . S
C181 H189 0.931 . S
C182 N180 1.343 1_545 S
C182 C183 1.390 . S
C182 H184 0.931 . S
C183 C181 1.321 . S
C183 C182 1.390 . S
C183 H185 0.930 . S
H184 C182 0.931 . S
H185 C183 0.930 . S
H186 C209 0.931 . S
H187 C175 0.929 . S
H188 C210 0.930 1_655 S
H189 C181 0.931 . S
H190 C171 0.930 . S
H191 C200 0.929 . S
H192 C176 0.931 . S
H193 C177 0.930 . S
H194 C232 0.930 . S
H195 C173 0.929 . S
H196 C201 0.931 1_655 S
H197 C202 0.930 . S
N198 Gd178 2.622 . S
N198 C199 1.369 . S
N198 C200 1.338 . S
C199 N198 1.369 . S
C199 C203 1.415 1_455 S
C199 C206 1.422 . S
C200 H191 0.929 . S
C200 N198 1.338 . S
C200 C202 1.378 . S
C201 H196 0.931 1_455 S
C201 C202 1.348 . S
C201 C203 1.413 1_455 S
C202 H197 0.930 . S
C202 C200 1.378 . S
C202 C201 1.348 . S
C203 C199 1.415 1_655 S
C203 C201 1.413 1_655 S
C203 C233 1.437 . S
H204 C233 0.929 . S
N205 Gd178 2.570 . S
N205 C206 1.359 . S
N205 C209 1.343 . S
C206 C199 1.422 . S
C206 N205 1.359 . S
C206 C208 1.421 1_455 S
C207 C208 1.422 . S
C207 C210 1.321 1_655 S
C207 H234 0.931 . S
C208 C206 1.421 1_655 S
C208 C207 1.422 . S
C208 C232 1.417 . S
C209 H186 0.931 . S
C209 N205 1.343 . S
C209 C210 1.390 . S
C210 H188 0.930 1_455 S
C210 C207 1.321 1_455 S
C210 C209 1.390 . S
O211 Gd179 2.386 . S
O211 C223 1.265 . S
O212 Gd178 2.353 . S
O212 C223 1.242 . S
O213 Gd178 2.468 . S
O213 C231 1.263 . S
O214 Gd178 2.427 . S
O214 C231 1.252 . S
O215 Gd179 2.307 . S
O215 C224 1.261 . S
O216 Gd178 2.388 . S
O216 C224 1.252 . S
O217 Gd178 2.386 . S
O217 C235 1.265 . S
O218 Gd179 2.353 . S
O218 C235 1.242 . S
O219 Gd179 2.468 1_545 S
O219 C243 1.263 . S
O220 Gd179 2.427 1_545 S
O220 C243 1.252 . S
O221 Gd178 2.307 . S
O221 C236 1.261 . S
O222 Gd179 2.388 . S
O222 C236 1.252 . S
C223 O211 1.265 . S
C223 O212 1.242 . S
C224 O215 1.261 . S
C224 O216 1.252 . S
C225 C228 1.394 . S
C225 C230 1.370 . S
C225 C231 1.500 . S
C226 C229 1.383 . S
C226 C230 1.395 . S
C227 C228 1.396 . S
C227 C229 1.365 . S
C227 H244 0.929 . S
C228 C225 1.394 . S
C228 C227 1.396 . S
C228 H245 0.930 . S
C229 C226 1.383 . S
C229 C227 1.365 . S
C229 H246 0.931 . S
C230 C225 1.370 . S
C230 C226 1.395 . S
C230 H247 0.930 . S
C231 Gd178 2.805 . S
C231 O213 1.263 . S
C231 O214 1.252 . S
C231 C225 1.500 . S
C232 H194 0.930 . S
C232 C208 1.417 . S
C232 C233 1.329 . S
C233 C203 1.437 . S
C233 H204 0.929 . S
C233 C232 1.329 . S
H234 C207 0.931 . S
C235 O217 1.265 . S
C235 O218 1.242 . S
C236 O221 1.261 . S
C236 O222 1.252 . S
C237 C240 1.394 . S
C237 C242 1.370 . S
C237 C243 1.500 . S
C238 C241 1.383 . S
C238 C242 1.395 . S
C239 C240 1.396 . S
C239 C241 1.365 . S
C239 H248 0.929 . S
C240 C237 1.394 . S
C240 C239 1.396 . S
C240 H249 0.930 . S
C241 C238 1.383 . S
C241 C239 1.365 . S
C241 H250 0.931 . S
C242 C237 1.370 . S
C242 C238 1.395 . S
C242 H251 0.930 . S
C243 Gd179 2.805 1_545 S
C243 O219 1.263 . S
C243 O220 1.252 . S
C243 C237 1.500 . S
H244 C227 0.929 . S
H245 C228 0.930 . S
H246 C229 0.931 . S
H247 C230 0.930 . S
H248 C239 0.929 . S
H249 C240 0.930 . S
H250 C241 0.931 . S
H251 C242 0.930 . S
C252 C254 1.422 . S
C252 C256 1.415 . S
C252 N258 1.369 . S
C253 C254 1.421 1_565 S
C253 C255 1.417 . S
C253 C265 1.422 . S
C254 C252 1.422 . S
C254 C253 1.421 1_545 S
C254 N264 1.359 . S
C255 C253 1.417 . S
C255 C257 1.327 1_565 S
C255 H274 0.930 . S
C256 C252 1.415 . S
C256 C257 1.440 . S
C256 C260 1.413 . S
C257 C255 1.327 1_545 S
C257 C256 1.440 . S
C257 H279 0.929 . S
N258 C252 1.369 . S
N258 C259 1.338 . S
N258 Gd263 2.622 . S
C259 N258 1.338 . S
C259 C261 1.378 . S
C259 H271 0.929 . S
C260 C256 1.413 . S
C260 C261 1.348 . S
C260 H276 0.931 . S
C261 C259 1.378 . S
C261 C260 1.348 . S
C261 H277 0.930 . S
Gd262 N282 2.622 . S
Gd262 N289 2.570 . S
Gd262 O296 2.353 . S
Gd262 O297 2.468 . S
Gd262 O298 2.427 . S
Gd262 O300 2.388 . S
Gd262 O301 2.386 . S
Gd262 O305 2.307 . S
Gd262 C315 2.805 . S
Gd263 N258 2.622 . S
Gd263 N264 2.570 . S
Gd263 O295 2.386 . S
Gd263 O299 2.307 . S
Gd263 O302 2.353 . S
Gd263 O303 2.468 1_545 S
Gd263 O304 2.427 1_545 S
Gd263 O306 2.388 . S
Gd263 C327 2.805 1_545 S
N264 C254 1.359 . S
N264 Gd263 2.570 . S
N264 C266 1.343 1_545 S
C265 C253 1.422 . S
C265 C267 1.321 . S
C265 H273 0.931 . S
C266 N264 1.343 1_565 S
C266 C267 1.390 . S
C266 H268 0.931 . S
C267 C265 1.321 . S
C267 C266 1.390 . S
C267 H269 0.930 . S
H268 C266 0.931 . S
H269 C267 0.930 . S
H270 C293 0.931 . S
H271 C259 0.929 . S
H272 C294 0.930 1_455 S
H273 C265 0.931 . S
H274 C255 0.930 . S
H275 C284 0.929 . S
H276 C260 0.931 . S
H277 C261 0.930 . S
H278 C316 0.930 . S
H279 C257 0.929 . S
H280 C285 0.931 1_455 S
H281 C286 0.930 . S
N282 Gd262 2.622 . S
N282 C283 1.369 . S
N282 C284 1.338 . S
C283 N282 1.369 . S
C283 C287 1.415 1_655 S
C283 C290 1.422 . S
C284 H275 0.929 . S
C284 N282 1.338 . S
C284 C286 1.378 . S
C285 H280 0.931 1_655 S
C285 C286 1.348 . S
C285 C287 1.413 1_655 S
C286 H281 0.930 . S
C286 C284 1.378 . S
C286 C285 1.348 . S
C287 C283 1.415 1_455 S
C287 C285 1.413 1_455 S
C287 C317 1.437 . S
H288 C317 0.929 . S
N289 Gd262 2.570 . S
N289 C290 1.359 . S
N289 C293 1.343 . S
C290 C283 1.422 . S
C290 N289 1.359 . S
C290 C292 1.421 1_655 S
C291 C292 1.422 . S
C291 C294 1.321 1_455 S
C291 H318 0.931 . S
C292 C290 1.421 1_455 S
C292 C291 1.422 . S
C292 C316 1.417 . S
C293 H270 0.931 . S
C293 N289 1.343 . S
C293 C294 1.390 . S
C294 H272 0.930 1_655 S
C294 C291 1.321 1_655 S
C294 C293 1.390 . S
O295 Gd263 2.386 . S
O295 C307 1.265 . S
O296 Gd262 2.353 . S
O296 C307 1.242 . S
O297 Gd262 2.468 . S
O297 C315 1.263 . S
O298 Gd262 2.427 . S
O298 C315 1.252 . S
O299 Gd263 2.307 . S
O299 C308 1.261 . S
O300 Gd262 2.388 . S
O300 C308 1.252 . S
O301 Gd262 2.386 . S
O301 C319 1.265 . S
O302 Gd263 2.353 . S
O302 C319 1.242 . S
O303 Gd263 2.468 1_565 S
O303 C327 1.263 . S
O304 Gd263 2.427 1_565 S
O304 C327 1.252 . S
O305 Gd262 2.307 . S
O305 C320 1.261 . S
O306 Gd263 2.388 . S
O306 C320 1.252 . S
C307 O295 1.265 . S
C307 O296 1.242 . S
C308 O299 1.261 . S
C308 O300 1.252 . S
C309 C312 1.394 . S
C309 C314 1.370 . S
C309 C315 1.500 . S
C310 C313 1.383 . S
C310 C314 1.395 . S
C311 C312 1.396 . S
C311 C313 1.365 . S
C311 H328 0.929 . S
C312 C309 1.394 . S
C312 C311 1.396 . S
C312 H329 0.930 . S
C313 C310 1.383 . S
C313 C311 1.365 . S
C313 H330 0.931 . S
C314 C309 1.370 . S
C314 C310 1.395 . S
C314 H331 0.930 . S
C315 Gd262 2.805 . S
C315 O297 1.263 . S
C315 O298 1.252 . S
C315 C309 1.500 . S
C316 H278 0.930 . S
C316 C292 1.417 . S
C316 C317 1.329 . S
C317 C287 1.437 . S
C317 H288 0.929 . S
C317 C316 1.329 . S
H318 C291 0.931 . S
C319 O301 1.265 . S
C319 O302 1.242 . S
C320 O305 1.261 . S
C320 O306 1.252 . S
C321 C324 1.394 . S
C321 C326 1.370 . S
C321 C327 1.500 . S
C322 C325 1.383 . S
C322 C326 1.395 . S
C323 C324 1.396 . S
C323 C325 1.365 . S
C323 H332 0.929 . S
C324 C321 1.394 . S
C324 C323 1.396 . S
C324 H333 0.930 . S
C325 C322 1.383 . S
C325 C323 1.365 . S
C325 H334 0.931 . S
C326 C321 1.370 . S
C326 C322 1.395 . S
C326 H335 0.930 . S
C327 Gd263 2.805 1_565 S
C327 O303 1.263 . S
C327 O304 1.252 . S
C327 C321 1.500 . S
H328 C311 0.929 . S
H329 C312 0.930 . S
H330 C313 0.931 . S
H331 C314 0.930 . S
H332 C323 0.929 . S
H333 C324 0.930 . S
H334 C325 0.931 . S
H335 C326 0.930 . S
C336 C338 1.422 . S
C336 C340 1.415 1_655 S
C336 N342 1.369 . S
C337 C338 1.421 1_455 S
C337 C339 1.417 . S
C337 C349 1.422 . S
C338 C336 1.422 . S
C338 C337 1.421 1_655 S
C338 N348 1.359 . S
C339 C337 1.417 . S
C339 C341 1.329 . S
C339 H358 0.930 . S
C340 C336 1.415 1_455 S
C340 C341 1.437 . S
C340 C344 1.413 1_455 S
C341 C339 1.329 . S
C341 C340 1.437 . S
C341 H363 0.929 . S
N342 C336 1.369 . S
N342 C343 1.338 . S
N342 Gd347 2.622 . S
C343 N342 1.338 . S
C343 C345 1.378 . S
C343 H355 0.929 . S
C344 C340 1.413 1_655 S
C344 C345 1.348 . S
C344 H360 0.931 1_655 S
C345 C343 1.378 . S
C345 C344 1.348 . S
C345 H361 0.930 . S
Gd346 N366 2.622 . S
Gd346 N373 2.570 . S
Gd346 O380 2.353 . S
Gd346 O381 2.468 1_565 S
Gd346 O382 2.427 1_565 S
Gd346 O384 2.388 . S
Gd346 O385 2.386 . S
Gd346 O389 2.307 . S
Gd346 C399 2.805 1_565 S
Gd347 N342 2.622 . S
Gd347 N348 2.570 . S
Gd347 O379 2.386 . S
Gd347 O383 2.307 . S
Gd347 O386 2.353 . S
Gd347 O387 2.468 . S
Gd347 O388 2.427 . S
Gd347 O390 2.388 . S
Gd347 C411 2.805 . S
N348 C338 1.359 . S
N348 Gd347 2.570 . S
N348 C350 1.343 . S
C349 C337 1.422 . S
C349 C351 1.321 1_455 S
C349 H357 0.931 . S
C350 N348 1.343 . S
C350 C351 1.390 . S
C350 H352 0.931 . S
C351 C349 1.321 1_655 S
C351 C350 1.390 . S
C351 H353 0.930 1_655 S
H352 C350 0.931 . S
H353 C351 0.930 1_455 S
H354 C377 0.931 . S
H355 C343 0.929 . S
H356 C378 0.930 . S
H357 C349 0.931 . S
H358 C339 0.930 . S
H359 C368 0.929 . S
H360 C344 0.931 1_455 S
H361 C345 0.930 . S
H362 C400 0.930 . S
H363 C341 0.929 . S
H364 C369 0.931 . S
H365 C370 0.930 1_554 S
N366 Gd346 2.622 . S
N366 C367 1.369 . S
N366 C368 1.338 . S
C367 N366 1.369 . S
C367 C371 1.415 . S
C367 C374 1.422 . S
C368 H359 0.929 . S
C368 N366 1.338 . S
C368 C370 1.378 . S
C369 H364 0.931 . S
C369 C370 1.348 . S
C369 C371 1.413 . S
C370 H365 0.930 1_556 S
C370 C368 1.378 . S
C370 C369 1.348 . S
C371 C367 1.415 . S
C371 C369 1.413 . S
C371 C401 1.440 . S
H372 C401 0.929 . S
N373 Gd346 2.570 . S
N373 C374 1.359 . S
N373 C377 1.343 1_565 S
C374 C367 1.422 . S
C374 N373 1.359 . S
C374 C376 1.421 1_565 S
C375 C376 1.422 . S
C375 C378 1.321 . S
C375 H402 0.931 . S
C376 C374 1.421 1_545 S
C376 C375 1.422 . S
C376 C400 1.417 . S
C377 H354 0.931 . S
C377 N373 1.343 1_545 S
C377 C378 1.390 . S
C378 H356 0.930 . S
C378 C375 1.321 . S
C378 C377 1.390 . S
O379 Gd347 2.386 . S
O379 C391 1.265 . S
O380 Gd346 2.353 . S
O380 C391 1.242 . S
O381 Gd346 2.468 1_545 S
O381 C399 1.263 . S
O382 Gd346 2.427 1_545 S
O382 C399 1.252 . S
O383 Gd347 2.307 . S
O383 C392 1.261 . S
O384 Gd346 2.388 . S
O384 C392 1.252 . S
O385 Gd346 2.386 . S
O385 C403 1.265 . S
O386 Gd347 2.353 . S
O386 C403 1.242 . S
O387 Gd347 2.468 . S
O387 C411 1.263 . S
O388 Gd347 2.427 . S
O388 C411 1.252 . S
O389 Gd346 2.307 . S
O389 C404 1.261 . S
O390 Gd347 2.388 . S
O390 C404 1.252 . S
C391 O379 1.265 . S
C391 O380 1.242 . S
C392 O383 1.261 . S
C392 O384 1.252 . S
C393 C396 1.394 . S
C393 C398 1.370 . S
C393 C399 1.500 . S
C394 C397 1.383 . S
C394 C398 1.395 . S
C395 C396 1.396 . S
C395 C397 1.365 . S
C395 H412 0.929 . S
C396 C393 1.394 . S
C396 C395 1.396 . S
C396 H413 0.930 . S
C397 C394 1.383 . S
C397 C395 1.365 . S
C397 H414 0.931 . S
C398 C393 1.370 . S
C398 C394 1.395 . S
C398 H415 0.930 . S
C399 Gd346 2.805 1_545 S
C399 O381 1.263 . S
C399 O382 1.252 . S
C399 C393 1.500 . S
C400 H362 0.930 . S
C400 C376 1.417 . S
C400 C401 1.327 1_545 S
C401 C371 1.440 . S
C401 H372 0.929 . S
C401 C400 1.327 1_565 S
H402 C375 0.931 . S
C403 O385 1.265 . S
C403 O386 1.242 . S
C404 O389 1.261 . S
C404 O390 1.252 . S
C405 C408 1.394 . S
C405 C410 1.370 . S
C405 C411 1.500 . S
C406 C409 1.383 . S
C406 C410 1.395 . S
C407 C408 1.396 . S
C407 C409 1.365 . S
C407 H416 0.929 . S
C408 C405 1.394 . S
C408 C407 1.396 . S
C408 H417 0.930 . S
C409 C406 1.383 . S
C409 C407 1.365 . S
C409 H418 0.931 . S
C410 C405 1.370 . S
C410 C406 1.395 . S
C410 H419 0.930 . S
C411 Gd347 2.805 . S
C411 O387 1.263 . S
C411 O388 1.252 . S
C411 C405 1.500 . S
H412 C395 0.929 . S
H413 C396 0.930 . S
H414 C397 0.931 . S
H415 C398 0.930 . S
H416 C407 0.929 . S
H417 C408 0.930 . S
H418 C409 0.931 . S
H419 C410 0.930 . S
C420 C422 1.422 . S
C420 C424 1.415 1_455 S
C420 N426 1.369 . S
C421 C422 1.421 1_655 S
C421 C423 1.417 . S
C421 C433 1.422 . S
C422 C420 1.422 . S
C422 C421 1.421 1_455 S
C422 N432 1.359 . S
C423 C421 1.417 . S
C423 C425 1.329 . S
C423 H442 0.930 . S
C424 C420 1.415 1_655 S
C424 C425 1.437 . S
C424 C428 1.413 1_655 S
C425 C423 1.329 . S
C425 C424 1.437 . S
C425 H447 0.929 . S
N426 C420 1.369 . S
N426 C427 1.338 . S
N426 Gd431 2.622 . S
C427 N426 1.338 . S
C427 C429 1.378 . S
C427 H439 0.929 . S
C428 C424 1.413 1_455 S
C428 C429 1.348 . S
C428 H444 0.931 1_455 S
C429 C427 1.378 . S
C429 C428 1.348 . S
C429 H445 0.930 . S
Gd430 N450 2.622 . S
Gd430 N457 2.570 . S
Gd430 O464 2.353 . S
Gd430 O465 2.468 1_545 S
Gd430 O466 2.427 1_545 S
Gd430 O468 2.388 . S
Gd430 O469 2.386 . S
Gd430 O473 2.307 . S
Gd430 C483 2.805 1_545 S
Gd431 N426 2.622 . S
Gd431 N432 2.570 . S
Gd431 O463 2.386 . S
Gd431 O467 2.307 . S
Gd431 O470 2.353 . S
Gd431 O471 2.468 . S
Gd431 O472 2.427 . S
Gd431 O474 2.388 . S
Gd431 C495 2.805 . S
N432 C422 1.359 . S
N432 Gd431 2.570 . S
N432 C434 1.343 . S
C433 C421 1.422 . S
C433 C435 1.321 1_655 S
C433 H441 0.931 . S
C434 N432 1.343 . S
C434 C435 1.390 . S
C434 H436 0.931 . S
C435 C433 1.321 1_455 S
C435 C434 1.390 . S
C435 H437 0.930 1_455 S
H436 C434 0.931 . S
H437 C435 0.930 1_655 S
H438 C461 0.931 . S
H439 C427 0.929 . S
H440 C462 0.930 . S
H441 C433 0.931 . S
H442 C423 0.930 . S
H443 C452 0.929 . S
H444 C428 0.931 1_655 S
H445 C429 0.930 . S
H446 C484 0.930 . S
H447 C425 0.929 . S
H448 C453 0.931 . S
H449 C454 0.930 1_554 S
N450 Gd430 2.622 . S
N450 C451 1.369 . S
N450 C452 1.338 . S
C451 N450 1.369 . S
C451 C455 1.415 . S
C451 C458 1.422 . S
C452 H443 0.929 . S
C452 N450 1.338 . S
C452 C454 1.378 . S
C453 H448 0.931 . S
C453 C454 1.348 . S
C453 C455 1.413 . S
C454 H449 0.930 1_556 S
C454 C452 1.378 . S
C454 C453 1.348 . S
C455 C451 1.415 . S
C455 C453 1.413 . S
C455 C485 1.440 . S
H456 C485 0.929 . S
N457 Gd430 2.570 . S
N457 C458 1.359 . S
N457 C461 1.343 1_545 S
C458 C451 1.422 . S
C458 N457 1.359 . S
C458 C460 1.421 1_545 S
C459 C460 1.422 . S
C459 C462 1.321 . S
C459 H486 0.931 . S
C460 C458 1.421 1_565 S
C460 C459 1.422 . S
C460 C484 1.417 . S
C461 H438 0.931 . S
C461 N457 1.343 1_565 S
C461 C462 1.390 . S
C462 H440 0.930 . S
C462 C459 1.321 . S
C462 C461 1.390 . S
O463 Gd431 2.386 . S
O463 C475 1.265 . S
O464 Gd430 2.353 . S
O464 C475 1.242 . S
O465 Gd430 2.468 1_565 S
O465 C483 1.263 . S
O466 Gd430 2.427 1_565 S
O466 C483 1.252 . S
O467 Gd431 2.307 . S
O467 C476 1.261 . S
O468 Gd430 2.388 . S
O468 C476 1.252 . S
O469 Gd430 2.386 . S
O469 C487 1.265 . S
O470 Gd431 2.353 . S
O470 C487 1.242 . S
O471 Gd431 2.468 . S
O471 C495 1.263 . S
O472 Gd431 2.427 . S
O472 C495 1.252 . S
O473 Gd430 2.307 . S
O473 C488 1.261 . S
O474 Gd431 2.388 . S
O474 C488 1.252 . S
C475 O463 1.265 . S
C475 O464 1.242 . S
C476 O467 1.261 . S
C476 O468 1.252 . S
C477 C480 1.394 . S
C477 C482 1.370 . S
C477 C483 1.500 . S
C478 C481 1.383 . S
C478 C482 1.395 . S
C479 C480 1.396 . S
C479 C481 1.365 . S
C479 H496 0.929 . S
C480 C477 1.394 . S
C480 C479 1.396 . S
C480 H497 0.930 . S
C481 C478 1.383 . S
C481 C479 1.365 . S
C481 H498 0.931 . S
C482 C477 1.370 . S
C482 C478 1.395 . S
C482 H499 0.930 . S
C483 Gd430 2.805 1_565 S
C483 O465 1.263 . S
C483 O466 1.252 . S
C483 C477 1.500 . S
C484 H446 0.930 . S
C484 C460 1.417 . S
C484 C485 1.327 1_565 S
C485 C455 1.440 . S
C485 H456 0.929 . S
C485 C484 1.327 1_545 S
H486 C459 0.931 . S
C487 O469 1.265 . S
C487 O470 1.242 . S
C488 O473 1.261 . S
C488 O474 1.252 . S
C489 C492 1.394 . S
C489 C494 1.370 . S
C489 C495 1.500 . S
C490 C493 1.383 . S
C490 C494 1.395 . S
C491 C492 1.396 . S
C491 C493 1.365 . S
C491 H500 0.929 . S
C492 C489 1.394 . S
C492 C491 1.396 . S
C492 H501 0.930 . S
C493 C490 1.383 . S
C493 C491 1.365 . S
C493 H502 0.931 . S
C494 C489 1.370 . S
C494 C490 1.395 . S
C494 H503 0.930 . S
C495 Gd431 2.805 . S
C495 O471 1.263 . S
C495 O472 1.252 . S
C495 C489 1.500 . S
H496 C479 0.929 . S
H497 C480 0.930 . S
H498 C481 0.931 . S
H499 C482 0.930 . S
H500 C491 0.929 . S
H501 C492 0.930 . S
H502 C493 0.931 . S
H503 C494 0.930 . S
C504 C506 1.422 . S
C504 C508 1.415 1_655 S
C504 N510 1.369 . S
C505 C506 1.421 1_455 S
C505 C507 1.417 . S
C505 C517 1.422 . S
C506 C504 1.422 . S
C506 C505 1.421 1_655 S
C506 N516 1.359 . S
C507 C505 1.417 . S
C507 C509 1.329 . S
C507 H526 0.930 . S
C508 C504 1.415 1_455 S
C508 C509 1.437 . S
C508 C512 1.413 1_455 S
C509 C507 1.329 . S
C509 C508 1.437 . S
C509 H531 0.929 . S
N510 C504 1.369 . S
N510 C511 1.338 . S
N510 Gd515 2.622 . S
C511 N510 1.338 . S
C511 C513 1.378 . S
C511 H523 0.929 . S
C512 C508 1.413 1_655 S
C512 C513 1.348 . S
C512 H528 0.931 1_655 S
C513 C511 1.378 . S
C513 C512 1.348 . S
C513 H529 0.930 . S
Gd514 N534 2.622 . S
Gd514 N541 2.570 . S
Gd514 O548 2.353 . S
Gd514 O549 2.468 1_545 S
Gd514 O550 2.427 1_545 S
Gd514 O552 2.388 . S
Gd514 O553 2.386 . S
Gd514 O557 2.307 . S
Gd514 C567 2.805 1_545 S
Gd515 N510 2.622 . S
Gd515 N516 2.570 . S
Gd515 O547 2.386 . S
Gd515 O551 2.307 . S
Gd515 O554 2.353 . S
Gd515 O555 2.468 . S
Gd515 O556 2.427 . S
Gd515 O558 2.388 . S
Gd515 C579 2.805 . S
N516 C506 1.359 . S
N516 Gd515 2.570 . S
N516 C518 1.343 . S
C517 C505 1.422 . S
C517 C519 1.321 1_455 S
C517 H525 0.931 . S
C518 N516 1.343 . S
C518 C519 1.390 . S
C518 H520 0.931 . S
C519 C517 1.321 1_655 S
C519 C518 1.390 . S
C519 H521 0.930 1_655 S
H520 C518 0.931 . S
H521 C519 0.930 1_455 S
H522 C545 0.931 . S
H523 C511 0.929 . S
H524 C546 0.930 . S
H525 C517 0.931 . S
H526 C507 0.930 . S
H527 C536 0.929 . S
H528 C512 0.931 1_455 S
H529 C513 0.930 . S
H530 C568 0.930 . S
H531 C509 0.929 . S
H532 C537 0.931 . S
H533 C538 0.930 . S
N534 Gd514 2.622 . S
N534 C535 1.369 . S
N534 C536 1.338 . S
C535 N534 1.369 . S
C535 C539 1.415 . S
C535 C542 1.422 . S
C536 H527 0.929 . S
C536 N534 1.338 . S
C536 C538 1.378 . S
C537 H532 0.931 . S
C537 C538 1.348 . S
C537 C539 1.413 . S
C538 H533 0.930 . S
C538 C536 1.378 . S
C538 C537 1.348 . S
C539 C535 1.415 . S
C539 C537 1.413 . S
C539 C569 1.440 . S
H540 C569 0.929 . S
N541 Gd514 2.570 . S
N541 C542 1.359 . S
N541 C545 1.343 1_545 S
C542 C535 1.422 . S
C542 N541 1.359 . S
C542 C544 1.421 1_545 S
C543 C544 1.422 . S
C543 C546 1.321 . S
C543 H570 0.931 . S
C544 C542 1.421 1_565 S
C544 C543 1.422 . S
C544 C568 1.417 . S
C545 H522 0.931 . S
C545 N541 1.343 1_565 S
C545 C546 1.390 . S
C546 H524 0.930 . S
C546 C543 1.321 . S
C546 C545 1.390 . S
O547 Gd515 2.386 . S
O547 C559 1.265 . S
O548 Gd514 2.353 . S
O548 C559 1.242 . S
O549 Gd514 2.468 1_565 S
O549 C567 1.263 . S
O550 Gd514 2.427 1_565 S
O550 C567 1.252 . S
O551 Gd515 2.307 . S
O551 C560 1.261 . S
O552 Gd514 2.388 . S
O552 C560 1.252 . S
O553 Gd514 2.386 . S
O553 C571 1.265 . S
O554 Gd515 2.353 . S
O554 C571 1.242 . S
O555 Gd515 2.468 . S
O555 C579 1.263 . S
O556 Gd515 2.427 . S
O556 C579 1.252 . S
O557 Gd514 2.307 . S
O557 C572 1.261 . S
O558 Gd515 2.388 . S
O558 C572 1.252 . S
C559 O547 1.265 . S
C559 O548 1.242 . S
C560 O551 1.261 . S
C560 O552 1.252 . S
C561 C564 1.394 . S
C561 C566 1.370 . S
C561 C567 1.500 . S
C562 C565 1.383 . S
C562 C566 1.395 . S
C563 C564 1.396 . S
C563 C565 1.365 . S
C563 H580 0.929 . S
C564 C561 1.394 . S
C564 C563 1.396 . S
C564 H581 0.930 . S
C565 C562 1.383 . S
C565 C563 1.365 . S
C565 H582 0.931 . S
C566 C561 1.370 . S
C566 C562 1.395 . S
C566 H583 0.930 . S
C567 Gd514 2.805 1_565 S
C567 O549 1.263 . S
C567 O550 1.252 . S
C567 C561 1.500 . S
C568 H530 0.930 . S
C568 C544 1.417 . S
C568 C569 1.327 1_565 S
C569 C539 1.440 . S
C569 H540 0.929 . S
C569 C568 1.327 1_545 S
H570 C543 0.931 . S
C571 O553 1.265 . S
C571 O554 1.242 . S
C572 O557 1.261 . S
C572 O558 1.252 . S
C573 C576 1.394 . S
C573 C578 1.370 . S
C573 C579 1.500 . S
C574 C577 1.383 . S
C574 C578 1.395 . S
C575 C576 1.396 . S
C575 C577 1.365 . S
C575 H584 0.929 . S
C576 C573 1.394 . S
C576 C575 1.396 . S
C576 H585 0.930 . S
C577 C574 1.383 . S
C577 C575 1.365 . S
C577 H586 0.931 . S
C578 C573 1.370 . S
C578 C574 1.395 . S
C578 H587 0.930 . S
C579 Gd515 2.805 . S
C579 O555 1.263 . S
C579 O556 1.252 . S
C579 C573 1.500 . S
H580 C563 0.929 . S
H581 C564 0.930 . S
H582 C565 0.931 . S
H583 C566 0.930 . S
H584 C575 0.929 . S
H585 C576 0.930 . S
H586 C577 0.931 . S
H587 C578 0.930 . S
C588 C590 1.422 . S
C588 C592 1.415 1_455 S
C588 N594 1.369 . S
C589 C590 1.421 1_655 S
C589 C591 1.417 . S
C589 C601 1.422 . S
C590 C588 1.422 . S
C590 C589 1.421 1_455 S
C590 N600 1.359 . S
C591 C589 1.417 . S
C591 C593 1.329 . S
C591 H610 0.930 . S
C592 C588 1.415 1_655 S
C592 C593 1.437 . S
C592 C596 1.413 1_655 S
C593 C591 1.329 . S
C593 C592 1.437 . S
C593 H615 0.929 . S
N594 C588 1.369 . S
N594 C595 1.338 . S
N594 Gd599 2.622 . S
C595 N594 1.338 . S
C595 C597 1.378 . S
C595 H607 0.929 . S
C596 C592 1.413 1_455 S
C596 C597 1.348 . S
C596 H612 0.931 1_455 S
C597 C595 1.378 . S
C597 C596 1.348 . S
C597 H613 0.930 . S
Gd598 N618 2.622 . S
Gd598 N625 2.570 . S
Gd598 O632 2.353 . S
Gd598 O633 2.468 1_565 S
Gd598 O634 2.427 1_565 S
Gd598 O636 2.388 . S
Gd598 O637 2.386 . S
Gd598 O641 2.307 . S
Gd598 C651 2.805 1_565 S
Gd599 N594 2.622 . S
Gd599 N600 2.570 . S
Gd599 O631 2.386 . S
Gd599 O635 2.307 . S
Gd599 O638 2.353 . S
Gd599 O639 2.468 . S
Gd599 O640 2.427 . S
Gd599 O642 2.388 . S
Gd599 C663 2.805 . S
N600 C590 1.359 . S
N600 Gd599 2.570 . S
N600 C602 1.343 . S
C601 C589 1.422 . S
C601 C603 1.321 1_655 S
C601 H609 0.931 . S
C602 N600 1.343 . S
C602 C603 1.390 . S
C602 H604 0.931 . S
C603 C601 1.321 1_455 S
C603 C602 1.390 . S
C603 H605 0.930 1_455 S
H604 C602 0.931 . S
H605 C603 0.930 1_655 S
H606 C629 0.931 . S
H607 C595 0.929 . S
H608 C630 0.930 . S
H609 C601 0.931 . S
H610 C591 0.930 . S
H611 C620 0.929 . S
H612 C596 0.931 1_655 S
H613 C597 0.930 . S
H614 C652 0.930 . S
H615 C593 0.929 . S
H616 C621 0.931 . S
H617 C622 0.930 . S
N618 Gd598 2.622 . S
N618 C619 1.369 . S
N618 C620 1.338 . S
C619 N618 1.369 . S
C619 C623 1.415 . S
C619 C626 1.422 . S
C620 H611 0.929 . S
C620 N618 1.338 . S
C620 C622 1.378 . S
C621 H616 0.931 . S
C621 C622 1.348 . S
C621 C623 1.413 . S
C622 H617 0.930 . S
C622 C620 1.378 . S
C622 C621 1.348 . S
C623 C619 1.415 . S
C623 C621 1.413 . S
C623 C653 1.440 . S
H624 C653 0.929 . S
N625 Gd598 2.570 . S
N625 C626 1.359 . S
N625 C629 1.343 1_565 S
C626 C619 1.422 . S
C626 N625 1.359 . S
C626 C628 1.421 1_565 S
C627 C628 1.422 . S
C627 C630 1.321 . S
C627 H654 0.931 . S
C628 C626 1.421 1_545 S
C628 C627 1.422 . S
C628 C652 1.417 . S
C629 H606 0.931 . S
C629 N625 1.343 1_545 S
C629 C630 1.390 . S
C630 H608 0.930 . S
C630 C627 1.321 . S
C630 C629 1.390 . S
O631 Gd599 2.386 . S
O631 C643 1.265 . S
O632 Gd598 2.353 . S
O632 C643 1.242 . S
O633 Gd598 2.468 1_545 S
O633 C651 1.263 . S
O634 Gd598 2.427 1_545 S
O634 C651 1.252 . S
O635 Gd599 2.307 . S
O635 C644 1.261 . S
O636 Gd598 2.388 . S
O636 C644 1.252 . S
O637 Gd598 2.386 . S
O637 C655 1.265 . S
O638 Gd599 2.353 . S
O638 C655 1.242 . S
O639 Gd599 2.468 . S
O639 C663 1.263 . S
O640 Gd599 2.427 . S
O640 C663 1.252 . S
O641 Gd598 2.307 . S
O641 C656 1.261 . S
O642 Gd599 2.388 . S
O642 C656 1.252 . S
C643 O631 1.265 . S
C643 O632 1.242 . S
C644 O635 1.261 . S
C644 O636 1.252 . S
C645 C648 1.394 . S
C645 C650 1.370 . S
C645 C651 1.500 . S
C646 C649 1.383 . S
C646 C650 1.395 . S
C647 C648 1.396 . S
C647 C649 1.365 . S
C647 H664 0.929 . S
C648 C645 1.394 . S
C648 C647 1.396 . S
C648 H665 0.930 . S
C649 C646 1.383 . S
C649 C647 1.365 . S
C649 H666 0.931 . S
C650 C645 1.370 . S
C650 C646 1.395 . S
C650 H667 0.930 . S
C651 Gd598 2.805 1_545 S
C651 O633 1.263 . S
C651 O634 1.252 . S
C651 C645 1.500 . S
C652 H614 0.930 . S
C652 C628 1.417 . S
C652 C653 1.327 1_545 S
C653 C623 1.440 . S
C653 H624 0.929 . S
C653 C652 1.327 1_565 S
H654 C627 0.931 . S
C655 O637 1.265 . S
C655 O638 1.242 . S
C656 O641 1.261 . S
C656 O642 1.252 . S
C657 C660 1.394 . S
C657 C662 1.370 . S
C657 C663 1.500 . S
C658 C661 1.383 . S
C658 C662 1.395 . S
C659 C660 1.396 . S
C659 C661 1.365 . S
C659 H668 0.929 . S
C660 C657 1.394 . S
C660 C659 1.396 . S
C660 H669 0.930 . S
C661 C658 1.383 . S
C661 C659 1.365 . S
C661 H670 0.931 . S
C662 C657 1.370 . S
C662 C658 1.395 . S
C662 H671 0.930 . S
C663 Gd599 2.805 . S
C663 O639 1.263 . S
C663 O640 1.252 . S
C663 C657 1.500 . S
H664 C647 0.929 . S
H665 C648 0.930 . S
H666 C649 0.931 . S
H667 C650 0.930 . S
H668 C659 0.929 . S
H669 C660 0.930 . S
H670 C661 0.931 . S
H671 C662 0.930 . S
C672 C674 1.422 . S
C672 C676 1.415 . S
C672 N678 1.369 . S
C673 C674 1.421 . S
C673 C675 1.417 . S
C673 C685 1.422 . S
C674 C672 1.422 . S
C674 C673 1.421 . S
C674 N684 1.359 . S
C675 C673 1.417 . S
C675 C677 1.329 . S
C675 H694 0.930 . S
C676 C672 1.415 . S
C676 C677 1.437 . S
C676 C680 1.413 . S
C677 C675 1.329 . S
C677 C676 1.437 . S
C677 H699 0.929 . S
N678 C672 1.369 . S
N678 C679 1.338 . S
N678 Gd683 2.622 . S
C679 N678 1.338 . S
C679 C681 1.378 . S
C679 H691 0.929 . S
C680 C676 1.413 . S
C680 C681 1.348 . S
C680 H696 0.931 . S
C681 C679 1.378 . S
C681 C680 1.348 . S
C681 H697 0.930 1_554 S
Gd682 N702 2.622 . S
Gd682 N709 2.570 . S
Gd682 O716 2.353 . S
Gd682 O717 2.468 . S
Gd682 O718 2.427 . S
Gd682 O720 2.388 . S
Gd682 O721 2.386 . S
Gd682 O725 2.307 . S
Gd682 C735 2.805 . S
Gd683 N678 2.622 . S
Gd683 N684 2.570 . S
Gd683 O715 2.386 . S
Gd683 O719 2.307 . S
Gd683 O722 2.353 . S
Gd683 O723 2.468 . S
Gd683 O724 2.427 . S
Gd683 O726 2.388 . S
Gd683 C747 2.805 . S
N684 C674 1.359 . S
N684 Gd683 2.570 . S
N684 C686 1.343 . S
C685 C673 1.422 . S
C685 C687 1.321 . S
C685 H693 0.931 . S
C686 N684 1.343 . S
C686 C687 1.390 . S
C686 H688 0.931 . S
C687 C685 1.321 . S
C687 C686 1.390 . S
C687 H689 0.930 . S
H688 C686 0.931 . S
H689 C687 0.930 . S
H690 C713 0.931 . S
H691 C679 0.929 . S
H692 C714 0.930 . S
H693 C685 0.931 . S
H694 C675 0.930 . S
H695 C704 0.929 . S
H696 C680 0.931 . S
H697 C681 0.930 1_556 S
H698 C736 0.930 . S
H699 C677 0.929 . S
H700 C705 0.931 . S
H701 C706 0.930 . S
N702 Gd682 2.622 . S
N702 C703 1.369 . S
N702 C704 1.338 . S
C703 N702 1.369 . S
C703 C707 1.415 . S
C703 C710 1.422 . S
C704 H695 0.929 . S
C704 N702 1.338 . S
C704 C706 1.378 . S
C705 H700 0.931 . S
C705 C706 1.348 . S
C705 C707 1.413 . S
C706 H701 0.930 . S
C706 C704 1.378 . S
C706 C705 1.348 . S
C707 C703 1.415 . S
C707 C705 1.413 . S
C707 C737 1.437 . S
H708 C737 0.929 . S
N709 Gd682 2.570 . S
N709 C710 1.359 . S
N709 C713 1.343 . S
C710 C703 1.422 . S
C710 N709 1.359 . S
C710 C712 1.421 . S
C711 C712 1.422 . S
C711 C714 1.321 . S
C711 H738 0.931 . S
C712 C710 1.421 . S
C712 C711 1.422 . S
C712 C736 1.417 . S
C713 H690 0.931 . S
C713 N709 1.343 . S
C713 C714 1.390 . S
C714 H692 0.930 . S
C714 C711 1.321 . S
C714 C713 1.390 . S
O715 Gd683 2.386 . S
O715 C727 1.265 . S
O716 Gd682 2.353 . S
O716 C727 1.242 . S
O717 Gd682 2.468 . S
O717 C735 1.263 . S
O718 Gd682 2.427 . S
O718 C735 1.252 . S
O719 Gd683 2.307 . S
O719 C728 1.261 . S
O720 Gd682 2.388 . S
O720 C728 1.252 . S
O721 Gd682 2.386 . S
O721 C739 1.265 . S
O722 Gd683 2.353 . S
O722 C739 1.242 . S
O723 Gd683 2.468 . S
O723 C747 1.263 . S
O724 Gd683 2.427 . S
O724 C747 1.252 . S
O725 Gd682 2.307 . S
O725 C740 1.261 . S
O726 Gd683 2.388 . S
O726 C740 1.252 . S
C727 O715 1.265 . S
C727 O716 1.242 . S
C728 O719 1.261 . S
C728 O720 1.252 . S
C729 C732 1.394 . S
C729 C734 1.370 . S
C729 C735 1.500 . S
C730 C733 1.383 1_565 S
C730 C734 1.395 . S
C731 C732 1.396 . S
C731 C733 1.365 1_565 S
C731 H748 0.929 1_565 S
C732 C729 1.394 . S
C732 C731 1.396 . S
C732 H749 0.930 . S
C733 C730 1.383 1_545 S
C733 C731 1.365 1_545 S
C733 H750 0.931 . S
C734 C729 1.370 . S
C734 C730 1.395 . S
C734 H751 0.930 . S
C735 Gd682 2.805 . S
C735 O717 1.263 . S
C735 O718 1.252 . S
C735 C729 1.500 . S
C736 H698 0.930 . S
C736 C712 1.417 . S
C736 C737 1.329 . S
C737 C707 1.437 . S
C737 H708 0.929 . S
C737 C736 1.329 . S
H738 C711 0.931 . S
C739 O721 1.265 . S
C739 O722 1.242 . S
C740 O725 1.261 . S
C740 O726 1.252 . S
C741 C744 1.394 . S
C741 C746 1.370 . S
C741 C747 1.500 . S
C742 C745 1.383 . S
C742 C746 1.395 . S
C743 C744 1.396 . S
C743 C745 1.365 . S
C743 H752 0.929 . S
C744 C741 1.394 . S
C744 C743 1.396 . S
C744 H753 0.930 . S
C745 C742 1.383 . S
C745 C743 1.365 . S
C745 H754 0.931 . S
C746 C741 1.370 . S
C746 C742 1.395 . S
C746 H755 0.930 . S
C747 Gd683 2.805 . S
C747 O723 1.263 . S
C747 O724 1.252 . S
C747 C741 1.500 . S
H748 C731 0.929 1_545 S
H749 C732 0.930 . S
H750 C733 0.931 . S
H751 C734 0.930 . S
H752 C743 0.929 . S
H753 C744 0.930 . S
H754 C745 0.931 . S
H755 C746 0.930 . S
C756 C758 1.422 . S
C756 C760 1.415 . S
C756 N762 1.369 . S
C757 C758 1.421 . S
C757 C759 1.417 . S
C757 C769 1.422 . S
C758 C756 1.422 . S
C758 C757 1.421 . S
C758 N768 1.359 . S
C759 C757 1.417 . S
C759 C761 1.329 . S
C759 H778 0.930 . S
C760 C756 1.415 . S
C760 C761 1.437 . S
C760 C764 1.413 . S
C761 C759 1.329 . S
C761 C760 1.437 . S
C761 H783 0.929 . S
N762 C756 1.369 . S
N762 C763 1.338 . S
N762 Gd767 2.622 . S
C763 N762 1.338 . S
C763 C765 1.378 . S
C763 H775 0.929 . S
C764 C760 1.413 . S
C764 C765 1.348 . S
C764 H780 0.931 . S
C765 C763 1.378 . S
C765 C764 1.348 . S
C765 H781 0.930 1_554 S
Gd766 N786 2.622 . S
Gd766 N793 2.570 . S
Gd766 O800 2.353 . S
Gd766 O801 2.468 . S
Gd766 O802 2.427 . S
Gd766 O804 2.388 . S
Gd766 O805 2.386 . S
Gd766 O809 2.307 . S
Gd766 C819 2.805 . S
Gd767 N762 2.622 . S
Gd767 N768 2.570 . S
Gd767 O799 2.386 . S
Gd767 O803 2.307 . S
Gd767 O806 2.353 . S
Gd767 O807 2.468 . S
Gd767 O808 2.427 . S
Gd767 O810 2.388 . S
Gd767 C831 2.805 . S
N768 C758 1.359 . S
N768 Gd767 2.570 . S
N768 C770 1.343 . S
C769 C757 1.422 . S
C769 C771 1.321 . S
C769 H777 0.931 . S
C770 N768 1.343 . S
C770 C771 1.390 . S
C770 H772 0.931 . S
C771 C769 1.321 . S
C771 C770 1.390 . S
C771 H773 0.930 . S
H772 C770 0.931 . S
H773 C771 0.930 . S
H774 C797 0.931 . S
H775 C763 0.929 . S
H776 C798 0.930 . S
H777 C769 0.931 . S
H778 C759 0.930 . S
H779 C788 0.929 . S
H780 C764 0.931 . S
H781 C765 0.930 1_556 S
H782 C820 0.930 . S
H783 C761 0.929 . S
H784 C789 0.931 . S
H785 C790 0.930 . S
N786 Gd766 2.622 . S
N786 C787 1.369 . S
N786 C788 1.338 . S
C787 N786 1.369 . S
C787 C791 1.415 . S
C787 C794 1.422 . S
C788 H779 0.929 . S
C788 N786 1.338 . S
C788 C790 1.378 . S
C789 H784 0.931 . S
C789 C790 1.348 . S
C789 C791 1.413 . S
C790 H785 0.930 . S
C790 C788 1.378 . S
C790 C789 1.348 . S
C791 C787 1.415 . S
C791 C789 1.413 . S
C791 C821 1.437 . S
H792 C821 0.929 . S
N793 Gd766 2.570 . S
N793 C794 1.359 . S
N793 C797 1.343 . S
C794 C787 1.422 . S
C794 N793 1.359 . S
C794 C796 1.421 . S
C795 C796 1.422 . S
C795 C798 1.321 . S
C795 H822 0.931 . S
C796 C794 1.421 . S
C796 C795 1.422 . S
C796 C820 1.417 . S
C797 H774 0.931 . S
C797 N793 1.343 . S
C797 C798 1.390 . S
C798 H776 0.930 . S
C798 C795 1.321 . S
C798 C797 1.390 . S
O799 Gd767 2.386 . S
O799 C811 1.265 . S
O800 Gd766 2.353 . S
O800 C811 1.242 . S
O801 Gd766 2.468 . S
O801 C819 1.263 . S
O802 Gd766 2.427 . S
O802 C819 1.252 . S
O803 Gd767 2.307 . S
O803 C812 1.261 . S
O804 Gd766 2.388 . S
O804 C812 1.252 . S
O805 Gd766 2.386 . S
O805 C823 1.265 . S
O806 Gd767 2.353 . S
O806 C823 1.242 . S
O807 Gd767 2.468 . S
O807 C831 1.263 . S
O808 Gd767 2.427 . S
O808 C831 1.252 . S
O809 Gd766 2.307 . S
O809 C824 1.261 . S
O810 Gd767 2.388 . S
O810 C824 1.252 . S
C811 O799 1.265 . S
C811 O800 1.242 . S
C812 O803 1.261 . S
C812 O804 1.252 . S
C813 C816 1.394 . S
C813 C818 1.370 . S
C813 C819 1.500 . S
C814 C817 1.383 1_545 S
C814 C818 1.395 . S
C815 C816 1.396 . S
C815 C817 1.365 1_545 S
C815 H832 0.929 1_545 S
C816 C813 1.394 . S
C816 C815 1.396 . S
C816 H833 0.930 . S
C817 C814 1.383 1_565 S
C817 C815 1.365 1_565 S
C817 H834 0.931 . S
C818 C813 1.370 . S
C818 C814 1.395 . S
C818 H835 0.930 . S
C819 Gd766 2.805 . S
C819 O801 1.263 . S
C819 O802 1.252 . S
C819 C813 1.500 . S
C820 H782 0.930 . S
C820 C796 1.417 . S
C820 C821 1.329 . S
C821 C791 1.437 . S
C821 H792 0.929 . S
C821 C820 1.329 . S
H822 C795 0.931 . S
C823 O805 1.265 . S
C823 O806 1.242 . S
C824 O809 1.261 . S
C824 O810 1.252 . S
C825 C828 1.394 . S
C825 C830 1.370 . S
C825 C831 1.500 . S
C826 C829 1.383 . S
C826 C830 1.395 . S
C827 C828 1.396 . S
C827 C829 1.365 . S
C827 H836 0.929 . S
C828 C825 1.394 . S
C828 C827 1.396 . S
C828 H837 0.930 . S
C829 C826 1.383 . S
C829 C827 1.365 . S
C829 H838 0.931 . S
C830 C825 1.370 . S
C830 C826 1.395 . S
C830 H839 0.930 . S
C831 Gd767 2.805 . S
C831 O807 1.263 . S
C831 O808 1.252 . S
C831 C825 1.500 . S
H832 C815 0.929 1_565 S
H833 C816 0.930 . S
H834 C817 0.931 . S
H835 C818 0.930 . S
H836 C827 0.929 . S
H837 C828 0.930 . S
H838 C829 0.931 . S
H839 C830 0.930 . S
C840 C842 1.422 . S
C840 C844 1.415 . S
C840 N846 1.369 . S
C841 C842 1.421 . S
C841 C843 1.417 . S
C841 C853 1.422 . S
C842 C840 1.422 . S
C842 C841 1.421 . S
C842 N852 1.359 . S
C843 C841 1.417 . S
C843 C845 1.329 . S
C843 H862 0.930 . S
C844 C840 1.415 . S
C844 C845 1.437 . S
C844 C848 1.413 . S
C845 C843 1.329 . S
C845 C844 1.437 . S
C845 H867 0.929 . S
N846 C840 1.369 . S
N846 C847 1.338 . S
N846 Gd851 2.622 . S
C847 N846 1.338 . S
C847 C849 1.378 . S
C847 H859 0.929 . S
C848 C844 1.413 . S
C848 C849 1.348 . S
C848 H864 0.931 . S
C849 C847 1.378 . S
C849 C848 1.348 . S
C849 H865 0.930 . S
Gd850 N870 2.622 . S
Gd850 N877 2.570 . S
Gd850 O884 2.353 . S
Gd850 O885 2.468 . S
Gd850 O886 2.427 . S
Gd850 O888 2.388 . S
Gd850 O889 2.386 . S
Gd850 O893 2.307 . S
Gd850 C903 2.805 . S
Gd851 N846 2.622 . S
Gd851 N852 2.570 . S
Gd851 O883 2.386 . S
Gd851 O887 2.307 . S
Gd851 O890 2.353 . S
Gd851 O891 2.468 . S
Gd851 O892 2.427 . S
Gd851 O894 2.388 . S
Gd851 C915 2.805 . S
N852 C842 1.359 . S
N852 Gd851 2.570 . S
N852 C854 1.343 . S
C853 C841 1.422 . S
C853 C855 1.321 . S
C853 H861 0.931 . S
C854 N852 1.343 . S
C854 C855 1.390 . S
C854 H856 0.931 . S
C855 C853 1.321 . S
C855 C854 1.390 . S
C855 H857 0.930 . S
H856 C854 0.931 . S
H857 C855 0.930 . S
H858 C881 0.931 . S
H859 C847 0.929 . S
H860 C882 0.930 . S
H861 C853 0.931 . S
H862 C843 0.930 . S
H863 C872 0.929 . S
H864 C848 0.931 . S
H865 C849 0.930 . S
H866 C904 0.930 . S
H867 C845 0.929 . S
H868 C873 0.931 . S
H869 C874 0.930 . S
N870 Gd850 2.622 . S
N870 C871 1.369 . S
N870 C872 1.338 . S
C871 N870 1.369 . S
C871 C875 1.415 . S
C871 C878 1.422 . S
C872 H863 0.929 . S
C872 N870 1.338 . S
C872 C874 1.378 . S
C873 H868 0.931 . S
C873 C874 1.348 . S
C873 C875 1.413 . S
C874 H869 0.930 . S
C874 C872 1.378 . S
C874 C873 1.348 . S
C875 C871 1.415 . S
C875 C873 1.413 . S
C875 C905 1.437 . S
H876 C905 0.929 . S
N877 Gd850 2.570 . S
N877 C878 1.359 . S
N877 C881 1.343 . S
C878 C871 1.422 . S
C878 N877 1.359 . S
C878 C880 1.421 . S
C879 C880 1.422 . S
C879 C882 1.321 . S
C879 H906 0.931 . S
C880 C878 1.421 . S
C880 C879 1.422 . S
C880 C904 1.417 . S
C881 H858 0.931 . S
C881 N877 1.343 . S
C881 C882 1.390 . S
C882 H860 0.930 . S
C882 C879 1.321 . S
C882 C881 1.390 . S
O883 Gd851 2.386 . S
O883 C895 1.265 . S
O884 Gd850 2.353 . S
O884 C895 1.242 . S
O885 Gd850 2.468 . S
O885 C903 1.263 . S
O886 Gd850 2.427 . S
O886 C903 1.252 . S
O887 Gd851 2.307 . S
O887 C896 1.261 . S
O888 Gd850 2.388 . S
O888 C896 1.252 . S
O889 Gd850 2.386 . S
O889 C907 1.265 . S
O890 Gd851 2.353 . S
O890 C907 1.242 . S
O891 Gd851 2.468 . S
O891 C915 1.263 . S
O892 Gd851 2.427 . S
O892 C915 1.252 . S
O893 Gd850 2.307 . S
O893 C908 1.261 . S
O894 Gd851 2.388 . S
O894 C908 1.252 . S
C895 O883 1.265 . S
C895 O884 1.242 . S
C896 O887 1.261 . S
C896 O888 1.252 . S
C897 C900 1.394 . S
C897 C902 1.370 . S
C897 C903 1.500 . S
C898 C901 1.383 1_545 S
C898 C902 1.395 . S
C899 C900 1.396 . S
C899 C901 1.365 1_545 S
C899 H916 0.929 1_545 S
C900 C897 1.394 . S
C900 C899 1.396 . S
C900 H917 0.930 . S
C901 C898 1.383 1_565 S
C901 C899 1.365 1_565 S
C901 H918 0.931 . S
C902 C897 1.370 . S
C902 C898 1.395 . S
C902 H919 0.930 . S
C903 Gd850 2.805 . S
C903 O885 1.263 . S
C903 O886 1.252 . S
C903 C897 1.500 . S
C904 H866 0.930 . S
C904 C880 1.417 . S
C904 C905 1.329 . S
C905 C875 1.437 . S
C905 H876 0.929 . S
C905 C904 1.329 . S
H906 C879 0.931 . S
C907 O889 1.265 . S
C907 O890 1.242 . S
C908 O893 1.261 . S
C908 O894 1.252 . S
C909 C912 1.394 . S
C909 C914 1.370 . S
C909 C915 1.500 . S
C910 C913 1.383 . S
C910 C914 1.395 . S
C911 C912 1.396 . S
C911 C913 1.365 . S
C911 H920 0.929 . S
C912 C909 1.394 . S
C912 C911 1.396 . S
C912 H921 0.930 . S
C913 C910 1.383 . S
C913 C911 1.365 . S
C913 H922 0.931 . S
C914 C909 1.370 . S
C914 C910 1.395 . S
C914 H923 0.930 . S
C915 Gd851 2.805 . S
C915 O891 1.263 . S
C915 O892 1.252 . S
C915 C909 1.500 . S
H916 C899 0.929 1_565 S
H917 C900 0.930 . S
H918 C901 0.931 . S
H919 C902 0.930 . S
H920 C911 0.929 . S
H921 C912 0.930 . S
H922 C913 0.931 . S
H923 C914 0.930 . S
C924 C926 1.422 . S
C924 C928 1.415 . S
C924 N930 1.369 . S
C925 C926 1.421 . S
C925 C927 1.417 . S
C925 C937 1.422 . S
C926 C924 1.422 . S
C926 C925 1.421 . S
C926 N936 1.359 . S
C927 C925 1.417 . S
C927 C929 1.329 . S
C927 H946 0.930 . S
C928 C924 1.415 . S
C928 C929 1.437 . S
C928 C932 1.413 . S
C929 C927 1.329 . S
C929 C928 1.437 . S
C929 H951 0.929 . S
N930 C924 1.369 . S
N930 C931 1.338 . S
N930 Gd935 2.622 . S
C931 N930 1.338 . S
C931 C933 1.378 . S
C931 H943 0.929 . S
C932 C928 1.413 . S
C932 C933 1.348 . S
C932 H948 0.931 . S
C933 C931 1.378 . S
C933 C932 1.348 . S
C933 H949 0.930 . S
Gd934 N954 2.622 . S
Gd934 N961 2.570 . S
Gd934 O968 2.353 . S
Gd934 O969 2.468 . S
Gd934 O970 2.427 . S
Gd934 O972 2.388 . S
Gd934 O973 2.386 . S
Gd934 O977 2.307 . S
Gd934 C987 2.805 . S
Gd935 N930 2.622 . S
Gd935 N936 2.570 . S
Gd935 O967 2.386 . S
Gd935 O971 2.307 . S
Gd935 O974 2.353 . S
Gd935 O975 2.468 . S
Gd935 O976 2.427 . S
Gd935 O978 2.388 . S
Gd935 C999 2.805 . S
N936 C926 1.359 . S
N936 Gd935 2.570 . S
N936 C938 1.343 . S
C937 C925 1.422 . S
C937 C939 1.321 . S
C937 H945 0.931 . S
C938 N936 1.343 . S
C938 C939 1.390 . S
C938 H940 0.931 . S
C939 C937 1.321 . S
C939 C938 1.390 . S
C939 H941 0.930 . S
H940 C938 0.931 . S
H941 C939 0.930 . S
H942 C965 0.931 . S
H943 C931 0.929 . S
H944 C966 0.930 . S
H945 C937 0.931 . S
H946 C927 0.930 . S
H947 C956 0.929 . S
H948 C932 0.931 . S
H949 C933 0.930 . S
H950 C988 0.930 . S
H951 C929 0.929 . S
H952 C957 0.931 . S
H953 C958 0.930 . S
N954 Gd934 2.622 . S
N954 C955 1.369 . S
N954 C956 1.338 . S
C955 N954 1.369 . S
C955 C959 1.415 . S
C955 C962 1.422 . S
C956 H947 0.929 . S
C956 N954 1.338 . S
C956 C958 1.378 . S
C957 H952 0.931 . S
C957 C958 1.348 . S
C957 C959 1.413 . S
C958 H953 0.930 . S
C958 C956 1.378 . S
C958 C957 1.348 . S
C959 C955 1.415 . S
C959 C957 1.413 . S
C959 C989 1.437 . S
H960 C989 0.929 . S
N961 Gd934 2.570 . S
N961 C962 1.359 . S
N961 C965 1.343 . S
C962 C955 1.422 . S
C962 N961 1.359 . S
C962 C964 1.421 . S
C963 C964 1.422 . S
C963 C966 1.321 . S
C963 H990 0.931 . S
C964 C962 1.421 . S
C964 C963 1.422 . S
C964 C988 1.417 . S
C965 H942 0.931 . S
C965 N961 1.343 . S
C965 C966 1.390 . S
C966 H944 0.930 . S
C966 C963 1.321 . S
C966 C965 1.390 . S
O967 Gd935 2.386 . S
O967 C979 1.265 . S
O968 Gd934 2.353 . S
O968 C979 1.242 . S
O969 Gd934 2.468 . S
O969 C987 1.263 . S
O970 Gd934 2.427 . S
O970 C987 1.252 . S
O971 Gd935 2.307 . S
O971 C980 1.261 . S
O972 Gd934 2.388 . S
O972 C980 1.252 . S
O973 Gd934 2.386 . S
O973 C991 1.265 . S
O974 Gd935 2.353 . S
O974 C991 1.242 . S
O975 Gd935 2.468 . S
O975 C999 1.263 . S
O976 Gd935 2.427 . S
O976 C999 1.252 . S
O977 Gd934 2.307 . S
O977 C992 1.261 . S
O978 Gd935 2.388 . S
O978 C992 1.252 . S
C979 O967 1.265 . S
C979 O968 1.242 . S
C980 O971 1.261 . S
C980 O972 1.252 . S
C981 C984 1.394 . S
C981 C986 1.370 . S
C981 C987 1.500 . S
C982 C985 1.383 1_565 S
C982 C986 1.395 . S
C983 C984 1.396 . S
C983 C985 1.365 1_565 S
C983 H1000 0.929 1_565 S
C984 C981 1.394 . S
C984 C983 1.396 . S
C984 H1001 0.930 . S
C985 C982 1.383 1_545 S
C985 C983 1.365 1_545 S
C985 H1002 0.931 . S
C986 C981 1.370 . S
C986 C982 1.395 . S
C986 H1003 0.930 . S
C987 Gd934 2.805 . S
C987 O969 1.263 . S
C987 O970 1.252 . S
C987 C981 1.500 . S
C988 H950 0.930 . S
C988 C964 1.417 . S
C988 C989 1.329 . S
C989 C959 1.437 . S
C989 H960 0.929 . S
C989 C988 1.329 . S
H990 C963 0.931 . S
C991 O973 1.265 . S
C991 O974 1.242 . S
C992 O977 1.261 . S
C992 O978 1.252 . S
C993 C996 1.394 . S
C993 C998 1.370 . S
C993 C999 1.500 . S
C994 C997 1.383 . S
C994 C998 1.395 . S
C995 C996 1.396 . S
C995 C997 1.365 . S
C995 H1004 0.929 . S
C996 C993 1.394 . S
C996 C995 1.396 . S
C996 H1005 0.930 . S
C997 C994 1.383 . S
C997 C995 1.365 . S
C997 H1006 0.931 . S
C998 C993 1.370 . S
C998 C994 1.395 . S
C998 H1007 0.930 . S
C999 Gd935 2.805 . S
C999 O975 1.263 . S
C999 O976 1.252 . S
C999 C993 1.500 . S
H1000 C983 0.929 1_545 S
H1001 C984 0.930 . S
H1002 C985 0.931 . S
H1003 C986 0.930 . S
H1004 C995 0.929 . S
H1005 C996 0.930 . S
H1006 C997 0.931 . S
H1007 C998 0.930 . S
C1008 C1010 1.422 . S
C1008 C1012 1.415 . S
C1008 N1014 1.369 . S
C1009 C1010 1.421 . S
C1009 C1011 1.417 . S
C1009 C1021 1.422 . S
C1010 C1008 1.422 . S
C1010 C1009 1.421 . S
C1010 N1020 1.359 . S
C1011 C1009 1.417 . S
C1011 C1013 1.329 . S
C1011 H1030 0.930 . S
C1012 C1008 1.415 . S
C1012 C1013 1.437 . S
C1012 C1016 1.413 . S
C1013 C1011 1.329 . S
C1013 C1012 1.437 . S
C1013 H1035 0.929 . S
N1014 C1008 1.369 . S
N1014 C1015 1.338 . S
N1014 Gd1019 2.622 . S
C1015 N1014 1.338 . S
C1015 C1017 1.378 . S
C1015 H1027 0.929 . S
C1016 C1012 1.413 . S
C1016 C1017 1.348 . S
C1016 H1032 0.931 . S
C1017 C1015 1.378 . S
C1017 C1016 1.348 . S
C1017 H1033 0.930 . S
Gd1018 N1038 2.622 . S
Gd1018 N1045 2.570 . S
Gd1018 O1052 2.353 . S
Gd1018 O1053 2.468 . S
Gd1018 O1054 2.427 . S
Gd1018 O1056 2.388 . S
Gd1018 O1057 2.386 . S
Gd1018 O1061 2.307 . S
Gd1018 C1071 2.805 . S
Gd1019 N1014 2.622 . S
Gd1019 N1020 2.570 . S
Gd1019 O1051 2.386 . S
Gd1019 O1055 2.307 . S
Gd1019 O1058 2.353 . S
Gd1019 O1059 2.468 . S
Gd1019 O1060 2.427 . S
Gd1019 O1062 2.388 . S
Gd1019 C1083 2.805 . S
N1020 C1010 1.359 . S
N1020 Gd1019 2.570 . S
N1020 C1022 1.343 . S
C1021 C1009 1.422 . S
C1021 C1023 1.321 . S
C1021 H1029 0.931 . S
C1022 N1020 1.343 . S
C1022 C1023 1.390 . S
C1022 H1024 0.931 . S
C1023 C1021 1.321 . S
C1023 C1022 1.390 . S
C1023 H1025 0.930 . S
H1024 C1022 0.931 . S
H1025 C1023 0.930 . S
H1026 C1049 0.931 . S
H1027 C1015 0.929 . S
H1028 C1050 0.930 . S
H1029 C1021 0.931 . S
H1030 C1011 0.930 . S
H1031 C1040 0.929 . S
H1032 C1016 0.931 . S
H1033 C1017 0.930 . S
H1034 C1072 0.930 . S
H1035 C1013 0.929 . S
H1036 C1041 0.931 . S
H1037 C1042 0.930 1_554 S
N1038 Gd1018 2.622 . S
N1038 C1039 1.369 . S
N1038 C1040 1.338 . S
C1039 N1038 1.369 . S
C1039 C1043 1.415 . S
C1039 C1046 1.422 . S
C1040 H1031 0.929 . S
C1040 N1038 1.338 . S
C1040 C1042 1.378 . S
C1041 H1036 0.931 . S
C1041 C1042 1.348 . S
C1041 C1043 1.413 . S
C1042 H1037 0.930 1_556 S
C1042 C1040 1.378 . S
C1042 C1041 1.348 . S
C1043 C1039 1.415 . S
C1043 C1041 1.413 . S
C1043 C1073 1.437 . S
H1044 C1073 0.929 . S
N1045 Gd1018 2.570 . S
N1045 C1046 1.359 . S
N1045 C1049 1.343 . S
C1046 C1039 1.422 . S
C1046 N1045 1.359 . S
C1046 C1048 1.421 . S
C1047 C1048 1.422 . S
C1047 C1050 1.321 . S
C1047 H1074 0.931 . S
C1048 C1046 1.421 . S
C1048 C1047 1.422 . S
C1048 C1072 1.417 . S
C1049 H1026 0.931 . S
C1049 N1045 1.343 . S
C1049 C1050 1.390 . S
C1050 H1028 0.930 . S
C1050 C1047 1.321 . S
C1050 C1049 1.390 . S
O1051 Gd1019 2.386 . S
O1051 C1063 1.265 . S
O1052 Gd1018 2.353 . S
O1052 C1063 1.242 . S
O1053 Gd1018 2.468 . S
O1053 C1071 1.263 . S
O1054 Gd1018 2.427 . S
O1054 C1071 1.252 . S
O1055 Gd1019 2.307 . S
O1055 C1064 1.261 . S
O1056 Gd1018 2.388 . S
O1056 C1064 1.252 . S
O1057 Gd1018 2.386 . S
O1057 C1075 1.265 . S
O1058 Gd1019 2.353 . S
O1058 C1075 1.242 . S
O1059 Gd1019 2.468 . S
O1059 C1083 1.263 . S
O1060 Gd1019 2.427 . S
O1060 C1083 1.252 . S
O1061 Gd1018 2.307 . S
O1061 C1076 1.261 . S
O1062 Gd1019 2.388 . S
O1062 C1076 1.252 . S
C1063 O1051 1.265 . S
C1063 O1052 1.242 . S
C1064 O1055 1.261 . S
C1064 O1056 1.252 . S
C1065 C1068 1.394 . S
C1065 C1070 1.370 . S
C1065 C1071 1.500 . S
C1066 C1069 1.383 . S
C1066 C1070 1.395 . S
C1067 C1068 1.396 . S
C1067 C1069 1.365 . S
C1067 H1084 0.929 . S
C1068 C1065 1.394 . S
C1068 C1067 1.396 . S
C1068 H1085 0.930 . S
C1069 C1066 1.383 . S
C1069 C1067 1.365 . S
C1069 H1086 0.931 . S
C1070 C1065 1.370 . S
C1070 C1066 1.395 . S
C1070 H1087 0.930 . S
C1071 Gd1018 2.805 . S
C1071 O1053 1.263 . S
C1071 O1054 1.252 . S
C1071 C1065 1.500 . S
C1072 H1034 0.930 . S
C1072 C1048 1.417 . S
C1072 C1073 1.329 . S
C1073 C1043 1.437 . S
C1073 H1044 0.929 . S
C1073 C1072 1.329 . S
H1074 C1047 0.931 . S
C1075 O1057 1.265 . S
C1075 O1058 1.242 . S
C1076 O1061 1.261 . S
C1076 O1062 1.252 . S
C1077 C1080 1.394 . S
C1077 C1082 1.370 . S
C1077 C1083 1.500 . S
C1078 C1081 1.383 1_545 S
C1078 C1082 1.395 . S
C1079 C1080 1.396 . S
C1079 C1081 1.365 1_545 S
C1079 H1088 0.929 1_545 S
C1080 C1077 1.394 . S
C1080 C1079 1.396 . S
C1080 H1089 0.930 . S
C1081 C1078 1.383 1_565 S
C1081 C1079 1.365 1_565 S
C1081 H1090 0.931 . S
C1082 C1077 1.370 . S
C1082 C1078 1.395 . S
C1082 H1091 0.930 . S
C1083 Gd1019 2.805 . S
C1083 O1059 1.263 . S
C1083 O1060 1.252 . S
C1083 C1077 1.500 . S
H1084 C1067 0.929 . S
H1085 C1068 0.930 . S
H1086 C1069 0.931 . S
H1087 C1070 0.930 . S
H1088 C1079 0.929 1_565 S
H1089 C1080 0.930 . S
H1090 C1081 0.931 . S
H1091 C1082 0.930 . S
C1092 C1094 1.422 . S
C1092 C1096 1.415 . S
C1092 N1098 1.369 . S
C1093 C1094 1.421 . S
C1093 C1095 1.417 . S
C1093 C1105 1.422 . S
C1094 C1092 1.422 . S
C1094 C1093 1.421 . S
C1094 N1104 1.359 . S
C1095 C1093 1.417 . S
C1095 C1097 1.329 . S
C1095 H1114 0.930 . S
C1096 C1092 1.415 . S
C1096 C1097 1.437 . S
C1096 C1100 1.413 . S
C1097 C1095 1.329 . S
C1097 C1096 1.437 . S
C1097 H1119 0.929 . S
N1098 C1092 1.369 . S
N1098 C1099 1.338 . S
N1098 Gd1103 2.622 . S
C1099 N1098 1.338 . S
C1099 C1101 1.378 . S
C1099 H1111 0.929 . S
C1100 C1096 1.413 . S
C1100 C1101 1.348 . S
C1100 H1116 0.931 . S
C1101 C1099 1.378 . S
C1101 C1100 1.348 . S
C1101 H1117 0.930 . S
Gd1102 N1122 2.622 . S
Gd1102 N1129 2.570 . S
Gd1102 O1136 2.353 . S
Gd1102 O1137 2.468 . S
Gd1102 O1138 2.427 . S
Gd1102 O1140 2.388 . S
Gd1102 O1141 2.386 . S
Gd1102 O1145 2.307 . S
Gd1102 C1155 2.805 . S
Gd1103 N1098 2.622 . S
Gd1103 N1104 2.570 . S
Gd1103 O1135 2.386 . S
Gd1103 O1139 2.307 . S
Gd1103 O1142 2.353 . S
Gd1103 O1143 2.468 . S
Gd1103 O1144 2.427 . S
Gd1103 O1146 2.388 . S
Gd1103 C1167 2.805 . S
N1104 C1094 1.359 . S
N1104 Gd1103 2.570 . S
N1104 C1106 1.343 . S
C1105 C1093 1.422 . S
C1105 C1107 1.321 . S
C1105 H1113 0.931 . S
C1106 N1104 1.343 . S
C1106 C1107 1.390 . S
C1106 H1108 0.931 . S
C1107 C1105 1.321 . S
C1107 C1106 1.390 . S
C1107 H1109 0.930 . S
H1108 C1106 0.931 . S
H1109 C1107 0.930 . S
H1110 C1133 0.931 . S
H1111 C1099 0.929 . S
H1112 C1134 0.930 . S
H1113 C1105 0.931 . S
H1114 C1095 0.930 . S
H1115 C1124 0.929 . S
H1116 C1100 0.931 . S
H1117 C1101 0.930 . S
H1118 C1156 0.930 . S
H1119 C1097 0.929 . S
H1120 C1125 0.931 . S
H1121 C1126 0.930 1_554 S
N1122 Gd1102 2.622 . S
N1122 C1123 1.369 . S
N1122 C1124 1.338 . S
C1123 N1122 1.369 . S
C1123 C1127 1.415 . S
C1123 C1130 1.422 . S
C1124 H1115 0.929 . S
C1124 N1122 1.338 . S
C1124 C1126 1.378 . S
C1125 H1120 0.931 . S
C1125 C1126 1.348 . S
C1125 C1127 1.413 . S
C1126 H1121 0.930 1_556 S
C1126 C1124 1.378 . S
C1126 C1125 1.348 . S
C1127 C1123 1.415 . S
C1127 C1125 1.413 . S
C1127 C1157 1.437 . S
H1128 C1157 0.929 . S
N1129 Gd1102 2.570 . S
N1129 C1130 1.359 . S
N1129 C1133 1.343 . S
C1130 C1123 1.422 . S
C1130 N1129 1.359 . S
C1130 C1132 1.421 . S
C1131 C1132 1.422 . S
C1131 C1134 1.321 . S
C1131 H1158 0.931 . S
C1132 C1130 1.421 . S
C1132 C1131 1.422 . S
C1132 C1156 1.417 . S
C1133 H1110 0.931 . S
C1133 N1129 1.343 . S
C1133 C1134 1.390 . S
C1134 H1112 0.930 . S
C1134 C1131 1.321 . S
C1134 C1133 1.390 . S
O1135 Gd1103 2.386 . S
O1135 C1147 1.265 . S
O1136 Gd1102 2.353 . S
O1136 C1147 1.242 . S
O1137 Gd1102 2.468 . S
O1137 C1155 1.263 . S
O1138 Gd1102 2.427 . S
O1138 C1155 1.252 . S
O1139 Gd1103 2.307 . S
O1139 C1148 1.261 . S
O1140 Gd1102 2.388 . S
O1140 C1148 1.252 . S
O1141 Gd1102 2.386 . S
O1141 C1159 1.265 . S
O1142 Gd1103 2.353 . S
O1142 C1159 1.242 . S
O1143 Gd1103 2.468 . S
O1143 C1167 1.263 . S
O1144 Gd1103 2.427 . S
O1144 C1167 1.252 . S
O1145 Gd1102 2.307 . S
O1145 C1160 1.261 . S
O1146 Gd1103 2.388 . S
O1146 C1160 1.252 . S
C1147 O1135 1.265 . S
C1147 O1136 1.242 . S
C1148 O1139 1.261 . S
C1148 O1140 1.252 . S
C1149 C1152 1.394 . S
C1149 C1154 1.370 . S
C1149 C1155 1.500 . S
C1150 C1153 1.383 . S
C1150 C1154 1.395 . S
C1151 C1152 1.396 . S
C1151 C1153 1.365 . S
C1151 H1168 0.929 . S
C1152 C1149 1.394 . S
C1152 C1151 1.396 . S
C1152 H1169 0.930 . S
C1153 C1150 1.383 . S
C1153 C1151 1.365 . S
C1153 H1170 0.931 . S
C1154 C1149 1.370 . S
C1154 C1150 1.395 . S
C1154 H1171 0.930 . S
C1155 Gd1102 2.805 . S
C1155 O1137 1.263 . S
C1155 O1138 1.252 . S
C1155 C1149 1.500 . S
C1156 H1118 0.930 . S
C1156 C1132 1.417 . S
C1156 C1157 1.329 . S
C1157 C1127 1.437 . S
C1157 H1128 0.929 . S
C1157 C1156 1.329 . S
H1158 C1131 0.931 . S
C1159 O1141 1.265 . S
C1159 O1142 1.242 . S
C1160 O1145 1.261 . S
C1160 O1146 1.252 . S
C1161 C1164 1.394 . S
C1161 C1166 1.370 . S
C1161 C1167 1.500 . S
C1162 C1165 1.383 1_565 S
C1162 C1166 1.395 . S
C1163 C1164 1.396 . S
C1163 C1165 1.365 1_565 S
C1163 H1172 0.929 1_565 S
C1164 C1161 1.394 . S
C1164 C1163 1.396 . S
C1164 H1173 0.930 . S
C1165 C1162 1.383 1_545 S
C1165 C1163 1.365 1_545 S
C1165 H1174 0.931 . S
C1166 C1161 1.370 . S
C1166 C1162 1.395 . S
C1166 H1175 0.930 . S
C1167 Gd1103 2.805 . S
C1167 O1143 1.263 . S
C1167 O1144 1.252 . S
C1167 C1161 1.500 . S
H1168 C1151 0.929 . S
H1169 C1152 0.930 . S
H1170 C1153 0.931 . S
H1171 C1154 0.930 . S
H1172 C1163 0.929 1_545 S
H1173 C1164 0.930 . S
H1174 C1165 0.931 . S
H1175 C1166 0.930 . S
C1176 C1178 1.422 . S
C1176 C1180 1.415 . S
C1176 N1182 1.369 . S
C1177 C1178 1.421 . S
C1177 C1179 1.417 . S
C1177 C1189 1.422 . S
C1178 C1176 1.422 . S
C1178 C1177 1.421 . S
C1178 N1188 1.359 . S
C1179 C1177 1.417 . S
C1179 C1181 1.329 . S
C1179 H1198 0.930 . S
C1180 C1176 1.415 . S
C1180 C1181 1.437 . S
C1180 C1184 1.413 . S
C1181 C1179 1.329 . S
C1181 C1180 1.437 . S
C1181 H1203 0.929 . S
N1182 C1176 1.369 . S
N1182 C1183 1.338 . S
N1182 Gd1187 2.622 . S
C1183 N1182 1.338 . S
C1183 C1185 1.378 . S
C1183 H1195 0.929 . S
C1184 C1180 1.413 . S
C1184 C1185 1.348 . S
C1184 H1200 0.931 . S
C1185 C1183 1.378 . S
C1185 C1184 1.348 . S
C1185 H1201 0.930 . S
Gd1186 N1206 2.622 . S
Gd1186 N1213 2.570 . S
Gd1186 O1220 2.353 . S
Gd1186 O1221 2.468 . S
Gd1186 O1222 2.427 . S
Gd1186 O1224 2.388 . S
Gd1186 O1225 2.386 . S
Gd1186 O1229 2.307 . S
Gd1186 C1239 2.805 . S
Gd1187 N1182 2.622 . S
Gd1187 N1188 2.570 . S
Gd1187 O1219 2.386 . S
Gd1187 O1223 2.307 . S
Gd1187 O1226 2.353 . S
Gd1187 O1227 2.468 . S
Gd1187 O1228 2.427 . S
Gd1187 O1230 2.388 . S
Gd1187 C1251 2.805 . S
N1188 C1178 1.359 . S
N1188 Gd1187 2.570 . S
N1188 C1190 1.343 . S
C1189 C1177 1.422 . S
C1189 C1191 1.321 . S
C1189 H1197 0.931 . S
C1190 N1188 1.343 . S
C1190 C1191 1.390 . S
C1190 H1192 0.931 . S
C1191 C1189 1.321 . S
C1191 C1190 1.390 . S
C1191 H1193 0.930 . S
H1192 C1190 0.931 . S
H1193 C1191 0.930 . S
H1194 C1217 0.931 . S
H1195 C1183 0.929 . S
H1196 C1218 0.930 . S
H1197 C1189 0.931 . S
H1198 C1179 0.930 . S
H1199 C1208 0.929 . S
H1200 C1184 0.931 . S
H1201 C1185 0.930 . S
H1202 C1240 0.930 . S
H1203 C1181 0.929 . S
H1204 C1209 0.931 . S
H1205 C1210 0.930 . S
N1206 Gd1186 2.622 . S
N1206 C1207 1.369 . S
N1206 C1208 1.338 . S
C1207 N1206 1.369 . S
C1207 C1211 1.415 . S
C1207 C1214 1.422 . S
C1208 H1199 0.929 . S
C1208 N1206 1.338 . S
C1208 C1210 1.378 . S
C1209 H1204 0.931 . S
C1209 C1210 1.348 . S
C1209 C1211 1.413 . S
C1210 H1205 0.930 . S
C1210 C1208 1.378 . S
C1210 C1209 1.348 . S
C1211 C1207 1.415 . S
C1211 C1209 1.413 . S
C1211 C1241 1.437 . S
H1212 C1241 0.929 . S
N1213 Gd1186 2.570 . S
N1213 C1214 1.359 . S
N1213 C1217 1.343 . S
C1214 C1207 1.422 . S
C1214 N1213 1.359 . S
C1214 C1216 1.421 . S
C1215 C1216 1.422 . S
C1215 C1218 1.321 . S
C1215 H1242 0.931 . S
C1216 C1214 1.421 . S
C1216 C1215 1.422 . S
C1216 C1240 1.417 . S
C1217 H1194 0.931 . S
C1217 N1213 1.343 . S
C1217 C1218 1.390 . S
C1218 H1196 0.930 . S
C1218 C1215 1.321 . S
C1218 C1217 1.390 . S
O1219 Gd1187 2.386 . S
O1219 C1231 1.265 . S
O1220 Gd1186 2.353 . S
O1220 C1231 1.242 . S
O1221 Gd1186 2.468 . S
O1221 C1239 1.263 . S
O1222 Gd1186 2.427 . S
O1222 C1239 1.252 . S
O1223 Gd1187 2.307 . S
O1223 C1232 1.261 . S
O1224 Gd1186 2.388 . S
O1224 C1232 1.252 . S
O1225 Gd1186 2.386 . S
O1225 C1243 1.265 . S
O1226 Gd1187 2.353 . S
O1226 C1243 1.242 . S
O1227 Gd1187 2.468 . S
O1227 C1251 1.263 . S
O1228 Gd1187 2.427 . S
O1228 C1251 1.252 . S
O1229 Gd1186 2.307 . S
O1229 C1244 1.261 . S
O1230 Gd1187 2.388 . S
O1230 C1244 1.252 . S
C1231 O1219 1.265 . S
C1231 O1220 1.242 . S
C1232 O1223 1.261 . S
C1232 O1224 1.252 . S
C1233 C1236 1.394 . S
C1233 C1238 1.370 . S
C1233 C1239 1.500 . S
C1234 C1237 1.383 . S
C1234 C1238 1.395 . S
C1235 C1236 1.396 . S
C1235 C1237 1.365 . S
C1235 H1252 0.929 . S
C1236 C1233 1.394 . S
C1236 C1235 1.396 . S
C1236 H1253 0.930 . S
C1237 C1234 1.383 . S
C1237 C1235 1.365 . S
C1237 H1254 0.931 . S
C1238 C1233 1.370 . S
C1238 C1234 1.395 . S
C1238 H1255 0.930 . S
C1239 Gd1186 2.805 . S
C1239 O1221 1.263 . S
C1239 O1222 1.252 . S
C1239 C1233 1.500 . S
C1240 H1202 0.930 . S
C1240 C1216 1.417 . S
C1240 C1241 1.329 . S
C1241 C1211 1.437 . S
C1241 H1212 0.929 . S
C1241 C1240 1.329 . S
H1242 C1215 0.931 . S
C1243 O1225 1.265 . S
C1243 O1226 1.242 . S
C1244 O1229 1.261 . S
C1244 O1230 1.252 . S
C1245 C1248 1.394 . S
C1245 C1250 1.370 . S
C1245 C1251 1.500 . S
C1246 C1249 1.383 1_565 S
C1246 C1250 1.395 . S
C1247 C1248 1.396 . S
C1247 C1249 1.365 1_565 S
C1247 H1256 0.929 1_565 S
C1248 C1245 1.394 . S
C1248 C1247 1.396 . S
C1248 H1257 0.930 . S
C1249 C1246 1.383 1_545 S
C1249 C1247 1.365 1_545 S
C1249 H1258 0.931 . S
C1250 C1245 1.370 . S
C1250 C1246 1.395 . S
C1250 H1259 0.930 . S
C1251 Gd1187 2.805 . S
C1251 O1227 1.263 . S
C1251 O1228 1.252 . S
C1251 C1245 1.500 . S
H1252 C1235 0.929 . S
H1253 C1236 0.930 . S
H1254 C1237 0.931 . S
H1255 C1238 0.930 . S
H1256 C1247 0.929 1_545 S
H1257 C1248 0.930 . S
H1258 C1249 0.931 . S
H1259 C1250 0.930 . S
C1260 C1262 1.422 . S
C1260 C1264 1.415 . S
C1260 N1266 1.369 . S
C1261 C1262 1.421 . S
C1261 C1263 1.417 . S
C1261 C1273 1.422 . S
C1262 C1260 1.422 . S
C1262 C1261 1.421 . S
C1262 N1272 1.359 . S
C1263 C1261 1.417 . S
C1263 C1265 1.329 . S
C1263 H1282 0.930 . S
C1264 C1260 1.415 . S
C1264 C1265 1.437 . S
C1264 C1268 1.413 . S
C1265 C1263 1.329 . S
C1265 C1264 1.437 . S
C1265 H1287 0.929 . S
N1266 C1260 1.369 . S
N1266 C1267 1.338 . S
N1266 Gd1271 2.622 . S
C1267 N1266 1.338 . S
C1267 C1269 1.378 . S
C1267 H1279 0.929 . S
C1268 C1264 1.413 . S
C1268 C1269 1.348 . S
C1268 H1284 0.931 . S
C1269 C1267 1.378 . S
C1269 C1268 1.348 . S
C1269 H1285 0.930 . S
Gd1270 N1290 2.622 . S
Gd1270 N1297 2.570 . S
Gd1270 O1304 2.353 . S
Gd1270 O1305 2.468 . S
Gd1270 O1306 2.427 . S
Gd1270 O1308 2.388 . S
Gd1270 O1309 2.386 . S
Gd1270 O1313 2.307 . S
Gd1270 C1323 2.805 . S
Gd1271 N1266 2.622 . S
Gd1271 N1272 2.570 . S
Gd1271 O1303 2.386 . S
Gd1271 O1307 2.307 . S
Gd1271 O1310 2.353 . S
Gd1271 O1311 2.468 . S
Gd1271 O1312 2.427 . S
Gd1271 O1314 2.388 . S
Gd1271 C1335 2.805 . S
N1272 C1262 1.359 . S
N1272 Gd1271 2.570 . S
N1272 C1274 1.343 . S
C1273 C1261 1.422 . S
C1273 C1275 1.321 . S
C1273 H1281 0.931 . S
C1274 N1272 1.343 . S
C1274 C1275 1.390 . S
C1274 H1276 0.931 . S
C1275 C1273 1.321 . S
C1275 C1274 1.390 . S
C1275 H1277 0.930 . S
H1276 C1274 0.931 . S
H1277 C1275 0.930 . S
H1278 C1301 0.931 . S
H1279 C1267 0.929 . S
H1280 C1302 0.930 . S
H1281 C1273 0.931 . S
H1282 C1263 0.930 . S
H1283 C1292 0.929 . S
H1284 C1268 0.931 . S
H1285 C1269 0.930 . S
H1286 C1324 0.930 . S
H1287 C1265 0.929 . S
H1288 C1293 0.931 . S
H1289 C1294 0.930 . S
N1290 Gd1270 2.622 . S
N1290 C1291 1.369 . S
N1290 C1292 1.338 . S
C1291 N1290 1.369 . S
C1291 C1295 1.415 . S
C1291 C1298 1.422 . S
C1292 H1283 0.929 . S
C1292 N1290 1.338 . S
C1292 C1294 1.378 . S
C1293 H1288 0.931 . S
C1293 C1294 1.348 . S
C1293 C1295 1.413 . S
C1294 H1289 0.930 . S
C1294 C1292 1.378 . S
C1294 C1293 1.348 . S
C1295 C1291 1.415 . S
C1295 C1293 1.413 . S
C1295 C1325 1.437 . S
H1296 C1325 0.929 . S
N1297 Gd1270 2.570 . S
N1297 C1298 1.359 . S
N1297 C1301 1.343 . S
C1298 C1291 1.422 . S
C1298 N1297 1.359 . S
C1298 C1300 1.421 . S
C1299 C1300 1.422 . S
C1299 C1302 1.321 . S
C1299 H1326 0.931 . S
C1300 C1298 1.421 . S
C1300 C1299 1.422 . S
C1300 C1324 1.417 . S
C1301 H1278 0.931 . S
C1301 N1297 1.343 . S
C1301 C1302 1.390 . S
C1302 H1280 0.930 . S
C1302 C1299 1.321 . S
C1302 C1301 1.390 . S
O1303 Gd1271 2.386 . S
O1303 C1315 1.265 . S
O1304 Gd1270 2.353 . S
O1304 C1315 1.242 . S
O1305 Gd1270 2.468 . S
O1305 C1323 1.263 . S
O1306 Gd1270 2.427 . S
O1306 C1323 1.252 . S
O1307 Gd1271 2.307 . S
O1307 C1316 1.261 . S
O1308 Gd1270 2.388 . S
O1308 C1316 1.252 . S
O1309 Gd1270 2.386 . S
O1309 C1327 1.265 . S
O1310 Gd1271 2.353 . S
O1310 C1327 1.242 . S
O1311 Gd1271 2.468 . S
O1311 C1335 1.263 . S
O1312 Gd1271 2.427 . S
O1312 C1335 1.252 . S
O1313 Gd1270 2.307 . S
O1313 C1328 1.261 . S
O1314 Gd1271 2.388 . S
O1314 C1328 1.252 . S
C1315 O1303 1.265 . S
C1315 O1304 1.242 . S
C1316 O1307 1.261 . S
C1316 O1308 1.252 . S
C1317 C1320 1.394 . S
C1317 C1322 1.370 . S
C1317 C1323 1.500 . S
C1318 C1321 1.383 . S
C1318 C1322 1.395 . S
C1319 C1320 1.396 . S
C1319 C1321 1.365 . S
C1319 H1336 0.929 . S
C1320 C1317 1.394 . S
C1320 C1319 1.396 . S
C1320 H1337 0.930 . S
C1321 C1318 1.383 . S
C1321 C1319 1.365 . S
C1321 H1338 0.931 . S
C1322 C1317 1.370 . S
C1322 C1318 1.395 . S
C1322 H1339 0.930 . S
C1323 Gd1270 2.805 . S
C1323 O1305 1.263 . S
C1323 O1306 1.252 . S
C1323 C1317 1.500 . S
C1324 H1286 0.930 . S
C1324 C1300 1.417 . S
C1324 C1325 1.329 . S
C1325 C1295 1.437 . S
C1325 H1296 0.929 . S
C1325 C1324 1.329 . S
H1326 C1299 0.931 . S
C1327 O1309 1.265 . S
C1327 O1310 1.242 . S
C1328 O1313 1.261 . S
C1328 O1314 1.252 . S
C1329 C1332 1.394 . S
C1329 C1334 1.370 . S
C1329 C1335 1.500 . S
C1330 C1333 1.383 1_545 S
C1330 C1334 1.395 . S
C1331 C1332 1.396 . S
C1331 C1333 1.365 1_545 S
C1331 H1340 0.929 1_545 S
C1332 C1329 1.394 . S
C1332 C1331 1.396 . S
C1332 H1341 0.930 . S
C1333 C1330 1.383 1_565 S
C1333 C1331 1.365 1_565 S
C1333 H1342 0.931 . S
C1334 C1329 1.370 . S
C1334 C1330 1.395 . S
C1334 H1343 0.930 . S
C1335 Gd1271 2.805 . S
C1335 O1311 1.263 . S
C1335 O1312 1.252 . S
C1335 C1329 1.500 . S
H1336 C1319 0.929 . S
H1337 C1320 0.930 . S
H1338 C1321 0.931 . S
H1339 C1322 0.930 . S
H1340 C1331 0.929 1_565 S
H1341 C1332 0.930 . S
H1342 C1333 0.931 . S
H1343 C1334 0.930 . S
C1344 C1345 1.387 . S
C1344 H1348 0.950 . S
C1344 C1353 1.390 . S
C1345 C1344 1.387 . S
C1345 C1347 1.387 . S
H1346 C1353 0.950 . S
C1347 C1345 1.387 . S
C1347 C1349 1.390 . S
C1347 H1351 0.950 . S
H1348 C1344 0.950 . S
C1349 C1347 1.390 . S
C1349 C1350 1.387 . S
C1349 H1352 0.950 . S
C1350 C1349 1.387 . S
C1350 C1353 1.387 . S
H1351 C1347 0.950 . S
H1352 C1349 0.950 . S
C1353 C1344 1.390 . S
C1353 H1346 0.950 . S
C1353 C1350 1.387 . S
C1354 C1355 1.387 . S
C1354 H1358 0.950 . S
C1354 C1363 1.390 . S
C1355 C1354 1.387 . S
C1355 C1357 1.387 . S
H1356 C1363 0.950 . S
C1357 C1355 1.387 . S
C1357 C1359 1.390 . S
C1357 H1361 0.950 . S
H1358 C1354 0.950 . S
C1359 C1357 1.390 . S
C1359 C1360 1.387 . S
C1359 H1362 0.950 . S
C1360 C1359 1.387 . S
C1360 C1363 1.387 . S
H1361 C1357 0.950 . S
H1362 C1359 0.950 . S
C1363 C1354 1.390 . S
C1363 H1356 0.950 . S
C1363 C1360 1.387 . S
C1364 C1365 1.387 . S
C1364 H1368 0.950 . S
C1364 C1373 1.390 . S
C1365 C1364 1.387 . S
C1365 C1367 1.387 . S
H1366 C1373 0.950 . S
C1367 C1365 1.387 . S
C1367 C1369 1.390 . S
C1367 H1371 0.950 . S
H1368 C1364 0.950 . S
C1369 C1367 1.390 . S
C1369 C1370 1.387 . S
C1369 H1372 0.950 . S
C1370 C1369 1.387 . S
C1370 C1373 1.387 . S
H1371 C1367 0.950 . S
H1372 C1369 0.950 . S
C1373 C1364 1.390 . S
C1373 H1366 0.950 . S
C1373 C1370 1.387 . S
C1374 C1375 1.387 . S
C1374 H1378 0.950 . S
C1374 C1383 1.390 . S
C1375 C1374 1.387 . S
C1375 C1377 1.387 . S
H1376 C1383 0.950 . S
C1377 C1375 1.387 . S
C1377 C1379 1.390 . S
C1377 H1381 0.950 . S
H1378 C1374 0.950 . S
C1379 C1377 1.390 . S
C1379 C1380 1.387 . S
C1379 H1382 0.950 . S
C1380 C1379 1.387 . S
C1380 C1383 1.387 . S
H1381 C1377 0.950 . S
H1382 C1379 0.950 . S
C1383 C1374 1.390 . S
C1383 H1376 0.950 . S
C1383 C1380 1.387 . S
C1384 C1385 1.387 . S
C1384 H1388 0.950 . S
C1384 C1393 1.390 . S
C1385 C1384 1.387 . S
C1385 C1387 1.387 . S
H1386 C1393 0.950 . S
C1387 C1385 1.387 . S
C1387 C1389 1.390 . S
C1387 H1391 0.950 . S
H1388 C1384 0.950 . S
C1389 C1387 1.390 . S
C1389 C1390 1.387 . S
C1389 H1392 0.950 . S
C1390 C1389 1.387 . S
C1390 C1393 1.387 . S
H1391 C1387 0.950 . S
H1392 C1389 0.950 . S
C1393 C1384 1.390 . S
C1393 H1386 0.950 . S
C1393 C1390 1.387 . S
C1394 C1395 1.387 . S
C1394 H1398 0.950 . S
C1394 C1403 1.390 . S
C1395 C1394 1.387 . S
C1395 C1397 1.387 . S
H1396 C1403 0.950 . S
C1397 C1395 1.387 . S
C1397 C1399 1.390 . S
C1397 H1401 0.950 . S
H1398 C1394 0.950 . S
C1399 C1397 1.390 . S
C1399 C1400 1.387 . S
C1399 H1402 0.950 . S
C1400 C1399 1.387 . S
C1400 C1403 1.387 . S
H1401 C1397 0.950 . S
H1402 C1399 0.950 . S
C1403 C1394 1.390 . S
C1403 H1396 0.950 . S
C1403 C1400 1.387 . S
C1404 C1405 1.387 . S
C1404 H1408 0.950 . S
C1404 C1413 1.390 . S
C1405 C1404 1.387 . S
C1405 C1407 1.387 . S
H1406 C1413 0.950 . S
C1407 C1405 1.387 . S
C1407 C1409 1.390 . S
C1407 H1411 0.950 . S
H1408 C1404 0.950 . S
C1409 C1407 1.390 . S
C1409 C1410 1.387 . S
C1409 H1412 0.950 . S
C1410 C1409 1.387 . S
C1410 C1413 1.387 . S
H1411 C1407 0.950 . S
H1412 C1409 0.950 . S
C1413 C1404 1.390 . S
C1413 H1406 0.950 . S
C1413 C1410 1.387 . S
C1414 C1415 1.387 . S
C1414 H1418 0.950 . S
C1414 C1423 1.390 . S
C1415 C1414 1.387 . S
C1415 C1417 1.387 . S
H1416 C1423 0.950 . S
C1417 C1415 1.387 . S
C1417 C1419 1.390 . S
C1417 H1421 0.950 . S
H1418 C1414 0.950 . S
C1419 C1417 1.390 . S
C1419 C1420 1.387 . S
C1419 H1422 0.950 . S
C1420 C1419 1.387 . S
C1420 C1423 1.387 . S
H1421 C1417 0.950 . S
H1422 C1419 0.950 . S
C1423 C1414 1.390 . S
C1423 H1416 0.950 . S
C1423 C1420 1.387 . S
C1424 C1425 1.387 . S
C1424 H1428 0.950 . S
C1424 C1433 1.390 1_565 S
C1425 C1424 1.387 . S
C1425 C1427 1.387 . S
H1426 C1433 0.950 . S
C1427 C1425 1.387 . S
C1427 C1429 1.390 1_565 S
C1427 H1431 0.950 . S
H1428 C1424 0.950 . S
C1429 C1427 1.390 1_545 S
C1429 C1430 1.387 . S
C1429 H1432 0.950 . S
C1430 C1429 1.387 . S
C1430 C1433 1.387 . S
H1431 C1427 0.950 . S
H1432 C1429 0.950 . S
C1433 C1424 1.390 1_545 S
C1433 H1426 0.950 . S
C1433 C1430 1.387 . S
C1434 C1435 1.387 . S
C1434 H1438 0.950 . S
C1434 C1443 1.390 1_545 S
C1435 C1434 1.387 . S
C1435 C1437 1.387 . S
H1436 C1443 0.950 . S
C1437 C1435 1.387 . S
C1437 C1439 1.390 1_545 S
C1437 H1441 0.950 . S
H1438 C1434 0.950 . S
C1439 C1437 1.390 1_565 S
C1439 C1440 1.387 . S
C1439 H1442 0.950 . S
C1440 C1439 1.387 . S
C1440 C1443 1.387 . S
H1441 C1437 0.950 . S
H1442 C1439 0.950 . S
C1443 C1434 1.390 1_565 S
C1443 H1436 0.950 . S
C1443 C1440 1.387 . S
C1444 C1445 1.387 . S
C1444 H1448 0.950 . S
C1444 C1453 1.390 1_545 S
C1445 C1444 1.387 . S
C1445 C1447 1.387 . S
H1446 C1453 0.950 . S
C1447 C1445 1.387 . S
C1447 C1449 1.390 1_545 S
C1447 H1451 0.950 . S
H1448 C1444 0.950 . S
C1449 C1447 1.390 1_565 S
C1449 C1450 1.387 . S
C1449 H1452 0.950 . S
C1450 C1449 1.387 . S
C1450 C1453 1.387 . S
H1451 C1447 0.950 . S
H1452 C1449 0.950 . S
C1453 C1444 1.390 1_565 S
C1453 H1446 0.950 . S
C1453 C1450 1.387 . S
C1454 C1455 1.387 . S
C1454 H1458 0.950 . S
C1454 C1463 1.390 1_545 S
C1455 C1454 1.387 . S
C1455 C1457 1.387 . S
H1456 C1463 0.950 . S
C1457 C1455 1.387 . S
C1457 C1459 1.390 1_545 S
C1457 H1461 0.950 . S
H1458 C1454 0.950 . S
C1459 C1457 1.390 1_565 S
C1459 C1460 1.387 . S
C1459 H1462 0.950 . S
C1460 C1459 1.387 . S
C1460 C1463 1.387 . S
H1461 C1457 0.950 . S
H1462 C1459 0.950 . S
C1463 C1454 1.390 1_565 S
C1463 H1456 0.950 . S
C1463 C1460 1.387 . S
C1464 C1465 1.387 . S
C1464 H1468 0.950 . S
C1464 C1473 1.390 . S
C1465 C1464 1.387 . S
C1465 C1467 1.387 . S
H1466 C1473 0.950 . S
C1467 C1465 1.387 . S
C1467 C1469 1.390 . S
C1467 H1471 0.950 . S
H1468 C1464 0.950 . S
C1469 C1467 1.390 . S
C1469 C1470 1.387 . S
C1469 H1472 0.950 . S
C1470 C1469 1.387 . S
C1470 C1473 1.387 . S
H1471 C1467 0.950 . S
H1472 C1469 0.950 . S
C1473 C1464 1.390 . S
C1473 H1466 0.950 . S
C1473 C1470 1.387 . S
C1474 C1475 1.387 . S
C1474 H1478 0.950 . S
C1474 C1483 1.390 . S
C1475 C1474 1.387 . S
C1475 C1477 1.387 . S
H1476 C1483 0.950 . S
C1477 C1475 1.387 . S
C1477 C1479 1.390 . S
C1477 H1481 0.950 . S
H1478 C1474 0.950 . S
C1479 C1477 1.390 . S
C1479 C1480 1.387 . S
C1479 H1482 0.950 . S
C1480 C1479 1.387 . S
C1480 C1483 1.387 . S
H1481 C1477 0.950 . S
H1482 C1479 0.950 . S
C1483 C1474 1.390 . S
C1483 H1476 0.950 . S
C1483 C1480 1.387 . S
C1484 C1485 1.387 . S
C1484 H1488 0.950 . S
C1484 C1493 1.390 . S
C1485 C1484 1.387 . S
C1485 C1487 1.387 . S
H1486 C1493 0.950 . S
C1487 C1485 1.387 . S
C1487 C1489 1.390 . S
C1487 H1491 0.950 . S
H1488 C1484 0.950 . S
C1489 C1487 1.390 . S
C1489 C1490 1.387 . S
C1489 H1492 0.950 . S
C1490 C1489 1.387 . S
C1490 C1493 1.387 . S
H1491 C1487 0.950 . S
H1492 C1489 0.950 . S
C1493 C1484 1.390 . S
C1493 H1486 0.950 . S
C1493 C1490 1.387 . S
C1494 C1495 1.387 . S
C1494 H1498 0.950 . S
C1494 C1503 1.390 . S
C1495 C1494 1.387 . S
C1495 C1497 1.387 . S
H1496 C1503 0.950 . S
C1497 C1495 1.387 . S
C1497 C1499 1.390 . S
C1497 H1501 0.950 . S
H1498 C1494 0.950 . S
C1499 C1497 1.390 . S
C1499 C1500 1.387 . S
C1499 H1502 0.950 . S
C1500 C1499 1.387 . S
C1500 C1503 1.387 . S
H1501 C1497 0.950 . S
H1502 C1499 0.950 . S
C1503 C1494 1.390 . S
C1503 H1496 0.950 . S
C1503 C1500 1.387 . S
C1504 C1505 1.387 . S
C1504 H1508 0.950 . S
C1504 C1513 1.390 1_556 S
C1505 C1504 1.387 . S
C1505 C1507 1.387 . S
H1506 C1513 0.950 . S
C1507 C1505 1.387 . S
C1507 C1509 1.390 1_556 S
C1507 H1511 0.950 . S
H1508 C1504 0.950 . S
C1509 C1507 1.390 1_554 S
C1509 C1510 1.387 . S
C1509 H1512 0.950 . S
C1510 C1509 1.387 . S
C1510 C1513 1.387 . S
H1511 C1507 0.950 . S
H1512 C1509 0.950 . S
C1513 C1504 1.390 1_554 S
C1513 H1506 0.950 . S
C1513 C1510 1.387 . S
C1514 C1515 1.387 . S
C1514 H1518 0.950 . S
C1514 C1523 1.390 1_556 S
C1515 C1514 1.387 . S
C1515 C1517 1.387 . S
H1516 C1523 0.950 . S
C1517 C1515 1.387 . S
C1517 C1519 1.390 1_556 S
C1517 H1521 0.950 . S
H1518 C1514 0.950 . S
C1519 C1517 1.390 1_554 S
C1519 C1520 1.387 . S
C1519 H1522 0.950 . S
C1520 C1519 1.387 . S
C1520 C1523 1.387 . S
H1521 C1517 0.950 . S
H1522 C1519 0.950 . S
C1523 C1514 1.390 1_554 S
C1523 H1516 0.950 . S
C1523 C1520 1.387 . S
C1524 C1525 1.387 . S
C1524 H1528 0.950 . S
C1524 C1533 1.390 . S
C1525 C1524 1.387 . S
C1525 C1527 1.387 . S
H1526 C1533 0.950 . S
C1527 C1525 1.387 . S
C1527 C1529 1.390 . S
C1527 H1531 0.950 . S
H1528 C1524 0.950 . S
C1529 C1527 1.390 . S
C1529 C1530 1.387 . S
C1529 H1532 0.950 . S
C1530 C1529 1.387 . S
C1530 C1533 1.387 . S
H1531 C1527 0.950 . S
H1532 C1529 0.950 . S
C1533 C1524 1.390 . S
C1533 H1526 0.950 . S
C1533 C1530 1.387 . S
C1534 C1535 1.387 . S
C1534 H1538 0.950 . S
C1534 C1543 1.390 . S
C1535 C1534 1.387 . S
C1535 C1537 1.387 . S
H1536 C1543 0.950 . S
C1537 C1535 1.387 . S
C1537 C1539 1.390 . S
C1537 H1541 0.950 . S
H1538 C1534 0.950 . S
C1539 C1537 1.390 . S
C1539 C1540 1.387 . S
C1539 H1542 0.950 . S
C1540 C1539 1.387 . S
C1540 C1543 1.387 . S
H1541 C1537 0.950 . S
H1542 C1539 0.950 . S
C1543 C1534 1.390 . S
C1543 H1536 0.950 . S
C1543 C1540 1.387 . S
C1544 C1545 1.387 . S
C1544 H1548 0.950 . S
C1544 C1553 1.390 1_554 S
C1545 C1544 1.387 . S
C1545 C1547 1.387 . S
H1546 C1553 0.950 . S
C1547 C1545 1.387 . S
C1547 C1549 1.390 1_554 S
C1547 H1551 0.950 . S
H1548 C1544 0.950 . S
C1549 C1547 1.390 1_556 S
C1549 C1550 1.387 . S
C1549 H1552 0.950 . S
C1550 C1549 1.387 . S
C1550 C1553 1.387 . S
H1551 C1547 0.950 . S
H1552 C1549 0.950 . S
C1553 C1544 1.390 1_556 S
C1553 H1546 0.950 . S
C1553 C1550 1.387 . S
C1554 C1555 1.387 . S
C1554 H1558 0.950 . S
C1554 C1563 1.390 1_556 S
C1555 C1554 1.387 . S
C1555 C1557 1.387 . S
H1556 C1563 0.950 . S
C1557 C1555 1.387 . S
C1557 C1559 1.390 1_556 S
C1557 H1561 0.950 . S
H1558 C1554 0.950 . S
C1559 C1557 1.390 1_554 S
C1559 C1560 1.387 . S
C1559 H1562 0.950 . S
C1560 C1559 1.387 . S
C1560 C1563 1.387 . S
H1561 C1557 0.950 . S
H1562 C1559 0.950 . S
C1563 C1554 1.390 1_554 S
C1563 H1556 0.950 . S
C1563 C1560 1.387 . S
C1564 C1565 1.387 . S
C1564 H1568 0.950 . S
C1564 C1573 1.390 . S
C1565 C1564 1.387 . S
C1565 C1567 1.387 . S
H1566 C1573 0.950 . S
C1567 C1565 1.387 . S
C1567 C1569 1.390 . S
C1567 H1571 0.950 . S
H1568 C1564 0.950 . S
C1569 C1567 1.390 . S
C1569 C1570 1.387 . S
C1569 H1572 0.950 . S
C1570 C1569 1.387 . S
C1570 C1573 1.387 . S
H1571 C1567 0.950 . S
H1572 C1569 0.950 . S
C1573 C1564 1.390 . S
C1573 H1566 0.950 . S
C1573 C1570 1.387 . S
C1574 C1575 1.387 . S
C1574 H1578 0.950 . S
C1574 C1583 1.390 . S
C1575 C1574 1.387 . S
C1575 C1577 1.387 . S
H1576 C1583 0.950 . S
C1577 C1575 1.387 . S
C1577 C1579 1.390 . S
C1577 H1581 0.950 . S
H1578 C1574 0.950 . S
C1579 C1577 1.390 . S
C1579 C1580 1.387 . S
C1579 H1582 0.950 . S
C1580 C1579 1.387 . S
C1580 C1583 1.387 . S
H1581 C1577 0.950 . S
H1582 C1579 0.950 . S
C1583 C1574 1.390 . S
C1583 H1576 0.950 . S
C1583 C1580 1.387 . S
C1584 C1585 1.387 . S
C1584 H1588 0.950 . S
C1584 C1593 1.390 1_665 S
C1585 C1584 1.387 . S
C1585 C1587 1.387 . S
H1586 C1593 0.950 . S
C1587 C1585 1.387 . S
C1587 C1589 1.390 1_665 S
C1587 H1591 0.950 . S
H1588 C1584 0.950 . S
C1589 C1587 1.390 1_445 S
C1589 C1590 1.387 . S
C1589 H1592 0.950 . S
C1590 C1589 1.387 . S
C1590 C1593 1.387 . S
H1591 C1587 0.950 . S
H1592 C1589 0.950 . S
C1593 C1584 1.390 1_445 S
C1593 H1586 0.950 . S
C1593 C1590 1.387 . S
C1594 C1595 1.387 . S
C1594 H1598 0.950 . S
C1594 C1603 1.390 1_645 S
C1595 C1594 1.387 . S
C1595 C1597 1.387 . S
H1596 C1603 0.950 . S
C1597 C1595 1.387 . S
C1597 C1599 1.390 1_645 S
C1597 H1601 0.950 . S
H1598 C1594 0.950 . S
C1599 C1597 1.390 1_465 S
C1599 C1600 1.387 . S
C1599 H1602 0.950 . S
C1600 C1599 1.387 . S
C1600 C1603 1.387 . S
H1601 C1597 0.950 . S
H1602 C1599 0.950 . S
C1603 C1594 1.390 1_465 S
C1603 H1596 0.950 . S
C1603 C1600 1.387 . S
C1604 C1605 1.387 . S
C1604 H1608 0.950 . S
C1604 C1613 1.390 1_445 S
C1605 C1604 1.387 . S
C1605 C1607 1.387 . S
H1606 C1613 0.950 . S
C1607 C1605 1.387 . S
C1607 C1609 1.390 1_445 S
C1607 H1611 0.950 . S
H1608 C1604 0.950 . S
C1609 C1607 1.390 1_665 S
C1609 C1610 1.387 . S
C1609 H1612 0.950 . S
C1610 C1609 1.387 . S
C1610 C1613 1.387 . S
H1611 C1607 0.950 . S
H1612 C1609 0.950 . S
C1613 C1604 1.390 1_665 S
C1613 H1606 0.950 . S
C1613 C1610 1.387 . S
C1614 C1615 1.387 . S
C1614 H1618 0.950 . S
C1614 C1623 1.390 1_645 S
C1615 C1614 1.387 . S
C1615 C1617 1.387 . S
H1616 C1623 0.950 . S
C1617 C1615 1.387 . S
C1617 C1619 1.390 1_645 S
C1617 H1621 0.950 . S
H1618 C1614 0.950 . S
C1619 C1617 1.390 1_465 S
C1619 C1620 1.387 . S
C1619 H1622 0.950 . S
C1620 C1619 1.387 . S
C1620 C1623 1.387 . S
H1621 C1617 0.950 . S
H1622 C1619 0.950 . S
C1623 C1614 1.390 1_465 S
C1623 H1616 0.950 . S
C1623 C1620 1.387 . S
C1624 C1625 1.387 . S
C1624 H1628 0.950 . S
C1624 C1633 1.390 . S
C1625 C1624 1.387 . S
C1625 C1627 1.387 . S
H1626 C1633 0.950 . S
C1627 C1625 1.387 . S
C1627 C1629 1.390 . S
C1627 H1631 0.950 . S
H1628 C1624 0.950 . S
C1629 C1627 1.390 . S
C1629 C1630 1.387 . S
C1629 H1632 0.950 . S
C1630 C1629 1.387 . S
C1630 C1633 1.387 . S
H1631 C1627 0.950 . S
H1632 C1629 0.950 . S
C1633 C1624 1.390 . S
C1633 H1626 0.950 . S
C1633 C1630 1.387 . S
C1634 C1635 1.387 . S
C1634 H1638 0.950 . S
C1634 C1643 1.390 . S
C1635 C1634 1.387 . S
C1635 C1637 1.387 . S
H1636 C1643 0.950 . S
C1637 C1635 1.387 . S
C1637 C1639 1.390 . S
C1637 H1641 0.950 . S
H1638 C1634 0.950 . S
C1639 C1637 1.390 . S
C1639 C1640 1.387 . S
C1639 H1642 0.950 . S
C1640 C1639 1.387 . S
C1640 C1643 1.387 . S
H1641 C1637 0.950 . S
H1642 C1639 0.950 . S
C1643 C1634 1.390 . S
C1643 H1636 0.950 . S
C1643 C1640 1.387 . S
C1644 C1645 1.387 . S
C1644 H1648 0.950 . S
C1644 C1653 1.390 . S
C1645 C1644 1.387 . S
C1645 C1647 1.387 . S
H1646 C1653 0.950 . S
C1647 C1645 1.387 . S
C1647 C1649 1.390 . S
C1647 H1651 0.950 . S
H1648 C1644 0.950 . S
C1649 C1647 1.390 . S
C1649 C1650 1.387 . S
C1649 H1652 0.950 . S
C1650 C1649 1.387 . S
C1650 C1653 1.387 . S
H1651 C1647 0.950 . S
H1652 C1649 0.950 . S
C1653 C1644 1.390 . S
C1653 H1646 0.950 . S
C1653 C1650 1.387 . S
C1654 C1655 1.387 . S
C1654 H1658 0.950 . S
C1654 C1663 1.390 . S
C1655 C1654 1.387 . S
C1655 C1657 1.387 . S
H1656 C1663 0.950 . S
C1657 C1655 1.387 . S
C1657 C1659 1.390 . S
C1657 H1661 0.950 . S
H1658 C1654 0.950 . S
C1659 C1657 1.390 . S
C1659 C1660 1.387 . S
C1659 H1662 0.950 . S
C1660 C1659 1.387 . S
C1660 C1663 1.387 . S
H1661 C1657 0.950 . S
H1662 C1659 0.950 . S
C1663 C1654 1.390 . S
C1663 H1656 0.950 . S
C1663 C1660 1.387 . S
C1664 C1665 1.387 . S
C1664 H1668 0.950 . S
C1664 C1673 1.390 . S
C1665 C1664 1.387 . S
C1665 C1667 1.387 . S
H1666 C1673 0.950 . S
C1667 C1665 1.387 . S
C1667 C1669 1.390 . S
C1667 H1671 0.950 . S
H1668 C1664 0.950 . S
C1669 C1667 1.390 . S
C1669 C1670 1.387 . S
C1669 H1672 0.950 . S
C1670 C1669 1.387 . S
C1670 C1673 1.387 . S
H1671 C1667 0.950 . S
H1672 C1669 0.950 . S
C1673 C1664 1.390 . S
C1673 H1666 0.950 . S
C1673 C1670 1.387 . S
C1674 C1675 1.387 . S
C1674 H1678 0.950 . S
C1674 C1683 1.390 . S
C1675 C1674 1.387 . S
C1675 C1677 1.387 . S
H1676 C1683 0.950 . S
C1677 C1675 1.387 . S
C1677 C1679 1.390 . S
C1677 H1681 0.950 . S
H1678 C1674 0.950 . S
C1679 C1677 1.390 . S
C1679 C1680 1.387 . S
C1679 H1682 0.950 . S
C1680 C1679 1.387 . S
C1680 C1683 1.387 . S
H1681 C1677 0.950 . S
H1682 C1679 0.950 . S
C1683 C1674 1.390 . S
C1683 H1676 0.950 . S
C1683 C1680 1.387 . S
C1684 C1685 1.387 . S
C1684 H1688 0.950 . S
C1684 C1693 1.390 . S
C1685 C1684 1.387 . S
C1685 C1687 1.387 . S
H1686 C1693 0.950 . S
C1687 C1685 1.387 . S
C1687 C1689 1.390 . S
C1687 H1691 0.950 . S
H1688 C1684 0.950 . S
C1689 C1687 1.390 . S
C1689 C1690 1.387 . S
C1689 H1692 0.950 . S
C1690 C1689 1.387 . S
C1690 C1693 1.387 . S
H1691 C1687 0.950 . S
H1692 C1689 0.950 . S
C1693 C1684 1.390 . S
C1693 H1686 0.950 . S
C1693 C1690 1.387 . S
C1694 C1695 1.387 . S
C1694 H1698 0.950 . S
C1694 C1703 1.390 . S
C1695 C1694 1.387 . S
C1695 C1697 1.387 . S
H1696 C1703 0.950 . S
C1697 C1695 1.387 . S
C1697 C1699 1.390 . S
C1697 H1701 0.950 . S
H1698 C1694 0.950 . S
C1699 C1697 1.390 . S
C1699 C1700 1.387 . S
C1699 H1702 0.950 . S
C1700 C1699 1.387 . S
C1700 C1703 1.387 . S
H1701 C1697 0.950 . S
H1702 C1699 0.950 . S
C1703 C1694 1.390 . S
C1703 H1696 0.950 . S
C1703 C1700 1.387 . S
C1704 C1705 1.387 . S
C1704 H1708 0.950 . S
C1704 C1713 1.390 . S
C1705 C1704 1.387 . S
C1705 C1707 1.387 . S
H1706 C1713 0.950 . S
C1707 C1705 1.387 . S
C1707 C1709 1.390 . S
C1707 H1711 0.950 . S
H1708 C1704 0.950 . S
C1709 C1707 1.390 . S
C1709 C1710 1.387 . S
C1709 H1712 0.950 . S
C1710 C1709 1.387 . S
C1710 C1713 1.387 . S
H1711 C1707 0.950 . S
H1712 C1709 0.950 . S
C1713 C1704 1.390 . S
C1713 H1706 0.950 . S
C1713 C1710 1.387 . S
C1714 C1715 1.387 . S
C1714 H1718 0.950 . S
C1714 C1723 1.390 . S
C1715 C1714 1.387 . S
C1715 C1717 1.387 . S
H1716 C1723 0.950 . S
C1717 C1715 1.387 . S
C1717 C1719 1.390 . S
C1717 H1721 0.950 . S
H1718 C1714 0.950 . S
C1719 C1717 1.390 . S
C1719 C1720 1.387 . S
C1719 H1722 0.950 . S
C1720 C1719 1.387 . S
C1720 C1723 1.387 . S
H1721 C1717 0.950 . S
H1722 C1719 0.950 . S
C1723 C1714 1.390 . S
C1723 H1716 0.950 . S
C1723 C1720 1.387 . S
C1724 C1725 1.387 . S
C1724 H1728 0.950 . S
C1724 C1733 1.390 . S
C1725 C1724 1.387 . S
C1725 C1727 1.387 . S
H1726 C1733 0.950 . S
C1727 C1725 1.387 . S
C1727 C1729 1.390 . S
C1727 H1731 0.950 . S
H1728 C1724 0.950 . S
C1729 C1727 1.390 . S
C1729 C1730 1.387 . S
C1729 H1732 0.950 . S
C1730 C1729 1.387 . S
C1730 C1733 1.387 . S
H1731 C1727 0.950 . S
H1732 C1729 0.950 . S
C1733 C1724 1.390 . S
C1733 H1726 0.950 . S
C1733 C1730 1.387 . S
C1734 C1735 1.387 . S
C1734 H1738 0.950 . S
C1734 C1743 1.390 . S
C1735 C1734 1.387 . S
C1735 C1737 1.387 . S
H1736 C1743 0.950 . S
C1737 C1735 1.387 . S
C1737 C1739 1.390 . S
C1737 H1741 0.950 . S
H1738 C1734 0.950 . S
C1739 C1737 1.390 . S
C1739 C1740 1.387 . S
C1739 H1742 0.950 . S
C1740 C1739 1.387 . S
C1740 C1743 1.387 . S
H1741 C1737 0.950 . S
H1742 C1739 0.950 . S
C1743 C1734 1.390 . S
C1743 H1736 0.950 . S
C1743 C1740 1.387 . S
C1744 C1745 1.387 . S
C1744 H1748 0.950 . S
C1744 C1753 1.390 . S
C1745 C1744 1.387 . S
C1745 C1747 1.387 . S
H1746 C1753 0.950 . S
C1747 C1745 1.387 . S
C1747 C1749 1.390 . S
C1747 H1751 0.950 . S
H1748 C1744 0.950 . S
C1749 C1747 1.390 . S
C1749 C1750 1.387 . S
C1749 H1752 0.950 . S
C1750 C1749 1.387 . S
C1750 C1753 1.387 . S
H1751 C1747 0.950 . S
H1752 C1749 0.950 . S
C1753 C1744 1.390 . S
C1753 H1746 0.950 . S
C1753 C1750 1.387 . S
C1754 C1755 1.387 . S
C1754 H1758 0.950 . S
C1754 C1763 1.390 . S
C1755 C1754 1.387 . S
C1755 C1757 1.387 . S
H1756 C1763 0.950 . S
C1757 C1755 1.387 . S
C1757 C1759 1.390 . S
C1757 H1761 0.950 . S
H1758 C1754 0.950 . S
C1759 C1757 1.390 . S
C1759 C1760 1.387 . S
C1759 H1762 0.950 . S
C1760 C1759 1.387 . S
C1760 C1763 1.387 . S
H1761 C1757 0.950 . S
H1762 C1759 0.950 . S
C1763 C1754 1.390 . S
C1763 H1756 0.950 . S
C1763 C1760 1.387 . S
C1764 C1765 1.387 . S
C1764 H1768 0.950 . S
C1764 C1773 1.390 . S
C1765 C1764 1.387 . S
C1765 C1767 1.387 . S
H1766 C1773 0.950 . S
C1767 C1765 1.387 . S
C1767 C1769 1.390 . S
C1767 H1771 0.950 . S
H1768 C1764 0.950 . S
C1769 C1767 1.390 . S
C1769 C1770 1.387 . S
C1769 H1772 0.950 . S
C1770 C1769 1.387 . S
C1770 C1773 1.387 . S
H1771 C1767 0.950 . S
H1772 C1769 0.950 . S
C1773 C1764 1.390 . S
C1773 H1766 0.950 . S
C1773 C1770 1.387 . S
C1774 C1775 1.387 . S
C1774 H1778 0.950 . S
C1774 C1783 1.390 . S
C1775 C1774 1.387 . S
C1775 C1777 1.387 . S
H1776 C1783 0.950 . S
C1777 C1775 1.387 . S
C1777 C1779 1.390 . S
C1777 H1781 0.950 . S
H1778 C1774 0.950 . S
C1779 C1777 1.390 . S
C1779 C1780 1.387 . S
C1779 H1782 0.950 . S
C1780 C1779 1.387 . S
C1780 C1783 1.387 . S
H1781 C1777 0.950 . S
H1782 C1779 0.950 . S
C1783 C1774 1.390 . S
C1783 H1776 0.950 . S
C1783 C1780 1.387 . S
C1784 C1785 1.387 . S
C1784 H1788 0.950 . S
C1784 C1793 1.390 . S
C1785 C1784 1.387 . S
C1785 C1787 1.387 . S
H1786 C1793 0.950 . S
C1787 C1785 1.387 . S
C1787 C1789 1.390 . S
C1787 H1791 0.950 . S
H1788 C1784 0.950 . S
C1789 C1787 1.390 . S
C1789 C1790 1.387 . S
C1789 H1792 0.950 . S
C1790 C1789 1.387 . S
C1790 C1793 1.387 . S
H1791 C1787 0.950 . S
H1792 C1789 0.950 . S
C1793 C1784 1.390 . S
C1793 H1786 0.950 . S
C1793 C1790 1.387 . S
C1794 C1795 1.387 . S
C1794 H1798 0.950 . S
C1794 C1803 1.390 . S
C1795 C1794 1.387 . S
C1795 C1797 1.387 . S
H1796 C1803 0.950 . S
C1797 C1795 1.387 . S
C1797 C1799 1.390 . S
C1797 H1801 0.950 . S
H1798 C1794 0.950 . S
C1799 C1797 1.390 . S
C1799 C1800 1.387 . S
C1799 H1802 0.950 . S
C1800 C1799 1.387 . S
C1800 C1803 1.387 . S
H1801 C1797 0.950 . S
H1802 C1799 0.950 . S
C1803 C1794 1.390 . S
C1803 H1796 0.950 . S
C1803 C1800 1.387 . S
C1804 C1805 1.387 . S
C1804 H1808 0.950 . S
C1804 C1813 1.390 . S
C1805 C1804 1.387 . S
C1805 C1807 1.387 . S
H1806 C1813 0.950 . S
C1807 C1805 1.387 . S
C1807 C1809 1.390 . S
C1807 H1811 0.950 . S
H1808 C1804 0.950 . S
C1809 C1807 1.390 . S
C1809 C1810 1.387 . S
C1809 H1812 0.950 . S
C1810 C1809 1.387 . S
C1810 C1813 1.387 . S
H1811 C1807 0.950 . S
H1812 C1809 0.950 . S
C1813 C1804 1.390 . S
C1813 H1806 0.950 . S
C1813 C1810 1.387 . S
C1814 C1815 1.387 . S
C1814 H1818 0.950 . S
C1814 C1823 1.390 . S
C1815 C1814 1.387 . S
C1815 C1817 1.387 . S
H1816 C1823 0.950 . S
C1817 C1815 1.387 . S
C1817 C1819 1.390 . S
C1817 H1821 0.950 . S
H1818 C1814 0.950 . S
C1819 C1817 1.390 . S
C1819 C1820 1.387 . S
C1819 H1822 0.950 . S
C1820 C1819 1.387 . S
C1820 C1823 1.387 . S
H1821 C1817 0.950 . S
H1822 C1819 0.950 . S
C1823 C1814 1.390 . S
C1823 H1816 0.950 . S
C1823 C1820 1.387 . S
C1345 C55 1.509 . S
C1350 C811 1.509 . S
C1355 C139 1.509 . S
C1360 C727 1.509 . S
C1365 C979 1.508 . S
C1370 C223 1.508 . S
C1375 C307 1.508 . S
C1380 C895 1.508 . S
C1385 C1159 1.508 . S
C1390 C403 1.508 . S
C1395 C1075 1.509 . S
C1400 C487 1.509 . S
C1405 C1327 1.509 . S
C1410 C571 1.509 . S
C1415 C655 1.509 . S
C1420 C1243 1.509 . S
C1425 C224 1.703 . S
C1430 C56 1.703 . S
C1435 C308 1.703 . S
C1440 C140 1.703 . S
C1445 C572 1.703 . S
C1450 C404 1.703 . S
C1455 C488 1.703 . S
C1460 C656 1.703 . S
C1465 C896 1.703 . S
C1470 C728 1.703 . S
C1475 C980 1.703 . S
C1480 C812 1.703 . S
C1485 C1076 1.703 . S
C1490 C1244 1.703 . S
C1495 C1160 1.703 . S
C1500 C1328 1.703 . S
C1505 C476 1.677 . S
C1510 C68 1.675 . S
C1515 C392 1.676 . S
C1520 C152 1.677 . S
C1525 C236 1.675 . S
C1530 C644 1.678 . S
C1535 C560 1.675 . S
C1540 C320 1.678 . S
C1545 C740 1.676 . S
C1550 C1148 1.677 . S
C1555 C1064 1.676 . S
C1560 C824 1.677 . S
C1565 C908 1.677 . S
C1570 C1316 1.675 . S
C1575 C1232 1.676 . S
C1580 C992 1.677 . S
C1585 C151 1.502 . S
C1590 C67 1.502 . S
C1595 C319 1.502 . S
C1600 C235 1.502 . S
C1605 C475 1.502 . S
C1610 C391 1.502 . S
C1615 C559 1.502 . S
C1620 C643 1.502 . S
C1625 C823 1.502 . S
C1630 C739 1.502 . S
C1635 C991 1.502 . S
C1640 C907 1.502 . S
C1645 C1063 1.502 . S
C1650 C1147 1.502 . S
C1655 C1231 1.502 . S
C1660 C1315 1.502 . S
C1665 C70 1.309 . S
C1670 C58 1.309 . S
C1675 C154 1.302 . S
C1680 C142 1.302 . S
C1685 C238 1.305 . S
C1690 C226 1.305 . S
C1695 C310 1.302 . S
C1700 C322 1.302 . S
C1705 C394 1.302 . S
C1710 C406 1.302 . S
C1715 C490 1.309 . S
C1720 C478 1.309 . S
C1725 C562 1.309 . S
C1730 C574 1.309 . S
C1735 C646 1.302 . S
C1740 C658 1.302 . S
C1745 C730 1.309 1_545 S
C1750 C742 1.309 . S
C1755 C826 1.309 . S
C1760 C814 1.309 1_565 S
C1765 C898 1.302 1_565 S
C1770 C910 1.302 . S
C1775 C982 1.302 1_545 S
C1780 C994 1.302 . S
C1785 C1066 1.308 . S
C1790 C1078 1.308 1_565 S
C1795 C1150 1.302 . S
C1800 C1162 1.302 1_545 S
C1805 C1246 1.303 1_545 S
C1810 C1234 1.303 . S
C1815 C1318 1.302 . S
C1820 C1330 1.302 1_565 S
